
#######################################################################
#
#                 Cambridge Crystallographic Data Centre
#                                CCDC 
#
#######################################################################
#
# If this CIF has been generated from an entry in the Cambridge 
# Structural Database, then it will include bibliographic, chemical, 
# crystal, experimental, refinement or atomic coordinate data resulting 
# from the CCDC's data processing and validation procedures.
#
#######################################################################

data_ABAYUY
_symmetry_cell_setting           tetragonal
_symmetry_space_group_name_H-M   'P 41'
_symmetry_Int_Tables_number      76
_space_group_name_Hall           'P 4w'
loop_
_symmetry_equiv_pos_site_id
_symmetry_equiv_pos_as_xyz
1 x,y,z
2 -x,-y,1/2+z
3 -y,x,1/4+z
4 y,-x,3/4+z
_cell_length_a                   8.1045(9)
_cell_length_b                   8.1045(9)
_cell_length_c                   29.953(5)
_cell_angle_alpha                90
_cell_angle_beta                 90
_cell_angle_gamma                90
_cell_volume                     1967.4
loop_
_atom_site_label
_atom_site_type_symbol
_atom_site_fract_x
_atom_site_fract_y
_atom_site_fract_z
Zn1 Zn 1.36215(11) 1.10172(11) -0.07022(4)
O1 O 1.2769(9) 1.0153(9) -0.0147(2)
O2 O 1.1356(11) 0.7859(11) -0.0190(2)
O3 O 0.9665(12) 0.4958(9) 0.1200(4)
O4 O 1.0326(8) 0.5968(13) 0.1830(4)
O5 O 1.2818(9) 1.1557(9) 0.1458(2)
H1 H 1.2604 1.1463 0.1724
N1 N 1.1620(8) 1.1893(8) -0.1048(2)
N2 N 0.3085(9) 1.5339(9) -0.2931(2)
C1 C 1.2020(11) 0.8968(12) 0.0017(3)
C2 C 1.0313(12) 0.6032(17) 0.1425(5)
C3 C 1.1918(9) 0.8909(11) 0.0528(2)
C4 C 1.1219(9) 0.7546(12) 0.0731(3)
H2 H 1.0845 0.6666 0.0560
C5 C 1.1079(10) 0.7498(12) 0.1197(3)
C6 C 1.1621(10) 0.8820(12) 0.1439(3)
H3 H 1.1552 0.8787 0.1749
C7 C 1.2270(12) 1.0201(12) 0.1235(3)
C8 C 1.2432(11) 1.0245(11) 0.0780(3)
H4 H 1.2885 1.1166 0.0641
C9 C 1.1481(11) 1.1629(11) -0.1481(3)
H5 H 1.2307 1.1039 -0.1625
C10 C 1.0154(12) 1.2196(11) -0.1729(3)
H6 H 1.0107 1.1983 -0.2034
C11 C 0.8893(11) 1.3083(10) -0.1524(4)
C12 C 0.7398(12) 1.3708(13) -0.1765(4)
H7 H 0.6425 1.3293 -0.1613
H8 H 0.7379 1.4902 -0.1742
C13 C 0.7283(13) 1.3252(15) -0.2244(4)
H9 H 0.7230 1.2060 -0.2267
H10 H 0.8281 1.3611 -0.2393
C14 C 0.5789(13) 1.3992(13) -0.2489(3)
C15 C 0.5975(11) 1.4908(12) -0.2852(3)
H11 H 0.7029 1.5106 -0.2963
C16 C 0.4645(11) 1.5559(11) -0.3064(3)
H12 H 0.4831 1.6198 -0.3317
C17 C 0.2933(12) 1.4395(14) -0.2570(4)
H13 H 0.1880 1.4200 -0.2459
C18 C 0.4231(14) 1.3703(16) -0.2356(5)
H14 H 0.4042 1.3015 -0.2113
C19 C 0.9091(12) 1.3310(12) -0.1075(4)
H15 H 0.8287 1.3892 -0.0919
C20 C 1.0399(11) 1.2729(12) -0.0850(3)
H16 H 1.0460 1.2915 -0.0544
O3C O 1.4958(9) 1.0335(12) -0.1300(4)
O4C O 1.5968(13) 0.9674(8) -0.0670(4)
N2B N 1.4661(9) 1.3085(9) -0.0431(2)
Zn1B Zn 0.89828(11) 0.36215(11) 0.17978(4)
Zn1C Zn 0.10172(11) 1.63785(11) -0.32022(4)
loop_
_geom_bond_atom_site_label_1
_geom_bond_atom_site_label_2
_geom_bond_site_symmetry_1
_geom_bond_site_symmetry_2
Zn1 O1 1_555 1_555
O1 C1 1_555 1_555
O2 C1 1_555 1_555
O3 C2 1_555 1_555
O4 C2 1_555 1_555
O5 H1 1_555 1_555
N1 Zn1 1_555 1_555
N2 C16 1_555 1_555
C1 C3 1_555 1_555
C2 C5 1_555 1_555
C3 C4 1_555 1_555
C4 H2 1_555 1_555
C5 C4 1_555 1_555
C6 C5 1_555 1_555
H3 C6 1_555 1_555
C7 O5 1_555 1_555
C8 C3 1_555 1_555
H4 C8 1_555 1_555
C9 N1 1_555 1_555
H5 C9 1_555 1_555
C10 C9 1_555 1_555
H6 C10 1_555 1_555
C11 C10 1_555 1_555
C12 C11 1_555 1_555
H7 C12 1_555 1_555
H8 C12 1_555 1_555
C13 C12 1_555 1_555
H9 C13 1_555 1_555
H10 C13 1_555 1_555
C14 C13 1_555 1_555
C15 C14 1_555 1_555
H11 C15 1_555 1_555
C16 C15 1_555 1_555
H12 C16 1_555 1_555
C17 N2 1_555 1_555
H13 C17 1_555 1_555
C18 C14 1_555 1_555
H14 C18 1_555 1_555
C19 C11 1_555 1_555
H15 C19 1_555 1_555
C20 N1 1_555 1_555
H16 C20 1_555 1_555
O3C Zn1 1_555 1_555
O4C Zn1 1_555 1_555
N2B Zn1 1_555 1_555
Zn1B O3 1_555 1_555
Zn1C N2 1_555 1_555
O4 Zn1B 1_555 1_555
C6 C7 1_555 1_555
C7 C8 1_555 1_555
C17 C18 1_555 1_555
C19 C20 1_555 1_555

#END
