
#######################################################################
#
#                 Cambridge Crystallographic Data Centre
#                                CCDC 
#
#######################################################################
#
# If this CIF has been generated from an entry in the Cambridge 
# Structural Database, then it will include bibliographic, chemical, 
# crystal, experimental, refinement or atomic coordinate data resulting 
# from the CCDC's data processing and validation procedures.
#
#######################################################################

data_ABAYOS01
_symmetry_cell_setting           monoclinic
_symmetry_space_group_name_H-M   'P 21/c'
_symmetry_Int_Tables_number      14
_space_group_name_Hall           '-P 2ybc'
loop_
_symmetry_equiv_pos_site_id
_symmetry_equiv_pos_as_xyz
1 x,y,z
2 -x,1/2+y,1/2-z
3 -x,-y,-z
4 x,1/2-y,1/2+z
_cell_length_a                   7.7106(4)
_cell_length_b                   16.5018(7)
_cell_length_c                   7.0862(3)
_cell_angle_alpha                90
_cell_angle_beta                 114.478(6)
_cell_angle_gamma                90
_cell_volume                     820.6
loop_
_atom_site_label
_atom_site_type_symbol
_atom_site_fract_x
_atom_site_fract_y
_atom_site_fract_z
O1 O 0.4038(5) 0.52799(18) 0.6709(5)
O2 O 0.2603(5) 0.53993(19) 0.8861(5)
N1 N 0.2292(5) 0.7915(2) 0.6564(5)
O3 O 0.0058(5) 0.6051(2) 0.4473(5)
N2 N 0.5083(5) 0.6883(2) 0.9152(5)
O4 O -0.0908(5) 0.73021(19) 0.3465(5)
C1 C 0.3323(6) 0.5674(3) 0.7679(6)
C2 C 0.3466(6) 0.6584(3) 0.7694(6)
C3 C 0.3928(7) 0.8202(3) 0.8034(7)
H1 H 0.4127 0.8771 0.8195
C4 C 0.2051(7) 0.7110(3) 0.6359(6)
C5 C 0.5310(7) 0.7685(3) 0.9299(7)
H2 H 0.6461 0.7904 1.0308
C6 C 0.0249(6) 0.6799(3) 0.4636(6)
O5 O -0.1843(6) 0.5305(2) 0.7620(6)
H3 H -0.1169 0.4995 0.7238
H4 H -0.2886 0.5333 0.6542
Ag2B Ag 0.28288(5) 0.40129(2) 0.85788(5)
Ag2 Ag -0.28288(5) 0.59871(2) 0.14212(5)
Ag2_2 Ag 0.71712(5) 0.59871(2) 1.14212(5)
Ag1B Ag -0.01785(6) 0.63234(2) 0.92499(5)
Ag1A Ag -0.01785(6) 0.86766(2) 0.42499(5)
N1C N 0.2292(5) 0.7085(2) 1.1564(5)
O3B O -0.0058(5) 0.3949(2) 0.5527(5)
N2B N 0.4917(5) 0.3117(2) 1.0848(5)
O4B O 0.0908(5) 0.26979(19) 0.6535(5)
O4C O -0.0908(5) 0.76979(19) 0.8465(5)
Ag2_3 Ag -0.28288(5) 0.59871(2) 1.14212(5)
Ag1 Ag 0.01785(6) 0.36766(2) 1.07501(5)
loop_
_geom_bond_atom_site_label_1
_geom_bond_atom_site_label_2
_geom_bond_site_symmetry_1
_geom_bond_site_symmetry_2
O1 C1 1_555 1_555
O2 C1 1_555 1_555
N1 C3 1_555 1_555
O3 C6 1_555 1_555
N2 C2 1_555 1_555
O4 C6 1_555 1_555
C1 C2 1_555 1_555
C2 C4 1_555 1_555
C3 H1 1_555 1_555
C4 N1 1_555 1_555
C5 N2 1_555 1_555
H2 C5 1_555 1_555
C6 C4 1_555 1_555
O5 H3 1_555 1_555
H4 O5 1_555 1_555
Ag2B O2 1_555 1_555
Ag2 O3 1_555 1_555
Ag2_2 N2 1_555 1_555
Ag1B O2 1_555 1_555
Ag1A N1 1_555 1_555
N1C Ag1B 1_555 1_555
O3B Ag2B 1_555 1_555
N2B Ag2B 1_555 1_555
O4B Ag2B 1_555 1_555
O4C Ag1B 1_555 1_555
O4 Ag2 1_555 1_555
O4 Ag1A 1_555 1_555
C3 C5 1_555 1_555
O5 Ag1B 1_555 1_555

#END
