
#######################################################################
#
#                 Cambridge Crystallographic Data Centre
#                                CCDC 
#
#######################################################################
#
# If this CIF has been generated from an entry in the Cambridge 
# Structural Database, then it will include bibliographic, chemical, 
# crystal, experimental, refinement or atomic coordinate data resulting 
# from the CCDC's data processing and validation procedures.
#
#######################################################################

data_ABAZAF
_symmetry_cell_setting           monoclinic
_symmetry_space_group_name_H-M   'P 21/c'
_symmetry_Int_Tables_number      14
_space_group_name_Hall           '-P 2ybc'
loop_
_symmetry_equiv_pos_site_id
_symmetry_equiv_pos_as_xyz
1 x,y,z
2 -x,1/2+y,1/2-z
3 -x,-y,-z
4 x,1/2-y,1/2+z
_cell_length_a                   12.70(4)
_cell_length_b                   12.198(17)
_cell_length_c                   17.97(3)
_cell_angle_alpha                90
_cell_angle_beta                 125.75(11)
_cell_angle_gamma                90
_cell_volume                     2259.27
loop_
_atom_site_label
_atom_site_type_symbol
_atom_site_fract_x
_atom_site_fract_y
_atom_site_fract_z
Zn1 Zn 0.07389(2) 0.59673(2) 0.377887(17)
O1 O -0.02126(18) 0.68332(16) 0.20430(14)
O2 O 0.13899(18) 0.57051(15) 0.30288(12)
O3 O 0.01026(19) 0.82350(17) -0.04664(16)
O4 O 0.1416(2) 0.74162(15) -0.06967(14)
O5 O 0.2778(2) 0.39590(14) 0.11904(14)
H1 H 0.2936 0.3574 0.1632
N1 N 0.23149(19) 0.50845(16) 0.48462(13)
N2 N 0.91514(19) 0.00649(16) 0.81469(13)
C1 C 0.1053(2) 0.60015(17) 0.16104(16)
C2 C 0.0698(2) 0.67442(19) 0.09164(16)
H2 H 0.0201 0.7373 0.0837
C3 C 0.2093(2) 0.48662(19) 0.11156(15)
C4 C 0.2203(3) 0.40131(19) 0.49536(18)
H3 H 0.1359 0.3716 0.4671
C5 C 0.5726(2) 0.20282(19) 0.66779(15)
H4 H 0.4953 0.1723 0.6558
C6 C 0.7841(2) 0.14227(19) 0.70068(16)
H5 H 0.7723 0.1911 0.6552
C7 C 0.1070(2) 0.65677(19) 0.03394(15)
C8 C 0.0693(2) 0.6210(2) 0.22564(17)
C9 C 0.3260(2) 0.3320(2) 0.54571(17)
H6 H 0.3135 0.2565 0.5516
C10 C 0.8247(2) -0.0009(2) 0.83098(16)
H7 H 0.8387 -0.0507 0.8766
C11 C 0.1762(2) 0.50684(18) 0.17173(15)
H8 H 0.2021 0.4569 0.2202
C12 C 0.7126(2) 0.0606(2) 0.78441(17)
H9 H 0.6504 0.0522 0.7973
C13 C 0.4507(2) 0.37364(19) 0.58767(16)
C14 C 0.5678(2) 0.3044(2) 0.63821(16)
H10 H 0.6457 0.3343 0.6507
C15 C 0.6912(2) 0.13546(19) 0.71799(16)
C16 C 0.1745(2) 0.5610(2) 0.04226(16)
H11 H 0.1962 0.5473 0.0007
C17 C 0.8939(2) 0.07750(19) 0.75005(16)
H12 H 0.9570 0.0834 0.7378
C18 C 0.4616(2) 0.4854(2) 0.57839(17)
H13 H 0.5449 0.5179 0.6076
C19 C 0.0828(3) 0.7445(2) -0.03231(17)
C20 C 0.3519(2) 0.5489(2) 0.52696(18)
H14 H 0.3618 0.6250 0.5211
O1C O -0.02126(18) 0.81668(16) 0.70430(14)
O2C O 0.13899(18) 0.92949(15) 0.80288(12)
O3C O 0.01026(19) 0.67650(17) 0.45336(16)
O4C O 0.1416(2) 0.75838(15) 0.43033(14)
O5C O 0.2778(2) 1.10410(14) 0.61904(14)
H1C H 0.2936 1.1426 0.6632
C1C C 0.1053(2) 0.89985(17) 0.66104(16)
C2C C 0.0698(2) 0.82558(19) 0.59164(16)
H2C H 0.0201 0.7627 0.5837
C3C C 0.2093(2) 1.01338(19) 0.61156(15)
C7C C 0.1070(2) 0.84323(19) 0.53394(15)
C8C C 0.0693(2) 0.8790(2) 0.72564(17)
C11C C 0.1762(2) 0.99316(18) 0.67173(15)
H8C H 0.2021 1.0431 0.7202
C16C C 0.1745(2) 0.9390(2) 0.54226(16)
H11C H 0.1962 0.9527 0.5007
C19C C 0.0828(3) 0.7555(2) 0.46769(17)
N1C N -0.76851(19) -0.00845(16) -0.01538(13)
N2C N -0.08486(19) 0.49351(16) 0.31469(13)
C4C C -0.7797(3) 0.09869(19) -0.00464(18)
H3C H -0.8641 0.1284 -0.0329
C5C C -0.4274(2) 0.29718(19) 0.16779(15)
H4C H -0.5047 0.3277 0.1558
C6C C -0.2159(2) 0.35773(19) 0.20068(16)
H5C H -0.2277 0.3089 0.1552
C9C C -0.6740(2) 0.1680(2) 0.04571(17)
H6C H -0.6865 0.2435 0.0516
C10C C -0.1753(2) 0.5009(2) 0.33098(16)
H7C H -0.1613 0.5507 0.3766
C12C C -0.2874(2) 0.4394(2) 0.28441(17)
H9C H -0.3496 0.4478 0.2973
C13C C -0.5493(2) 0.12636(19) 0.08767(16)
C14C C -0.4322(2) 0.1956(2) 0.13821(16)
H10C H -0.3543 0.1657 0.1507
C15C C -0.3088(2) 0.36454(19) 0.21799(16)
C17C C -0.1061(2) 0.42250(19) 0.25005(16)
H12C H -0.0430 0.4166 0.2378
C18C C -0.5384(2) 0.0146(2) 0.07839(17)
H13C H -0.4551 -0.0179 0.1076
C20C C -0.6481(2) -0.0489(2) 0.02696(18)
H14C H -0.6382 -0.1250 0.0211
Zn1C Zn 0.07389(2) 0.90327(2) 0.877887(17)
Zn1C_2 Zn 0.07389(2) 0.90327(2) -0.122113(17)
Zn1C_3 Zn 1.07389(2) -0.09673(2) 0.877887(17)
Zn1C_4 Zn -0.92611(2) -0.09673(2) -0.122113(17)
O3_2 O 0.01026(19) 0.82350(17) 0.95336(16)
O4_2 O 0.1416(2) 0.74162(15) 0.93033(14)
N1C_2 N 0.23149(19) 0.99155(16) 0.98462(13)
N2_2 N -0.08486(19) 1.00649(16) 0.81469(13)
N3 N 0.3473(2) 0.26275(18) 0.26625(16)
C21 C 0.2689(3) 0.2400(2) 0.29118(18)
H15 H 0.1863 0.2746 0.2588
C22 C 0.4504(3) 0.0348(2) 0.47999(17)
H16 H 0.3942 0.0322 0.4987
C23 C 0.4202(3) 0.1154(2) 0.40917(17)
C24 C 0.3018(2) 0.1689(2) 0.36153(17)
H17 H 0.2431 0.1567 0.3772
C25 C 0.4630(3) 0.2132(2) 0.3136(2)
H18 H 0.5210 0.2290 0.2979
C26 C 0.5027(3) 0.1398(3) 0.3844(2)
H19 H 0.5859 0.1064 0.4157
C22B C 0.5496(3) -0.0348(2) 0.52001(17)
H16B H 0.6058 -0.0322 0.5013
C23B C 0.5798(3) -0.1154(2) 0.59083(17)
C24B C 0.6982(2) -0.1689(2) 0.63847(17)
C21B C 0.7311(3) -0.2400(2) 0.70882(18)
N3B N 0.6527(2) -0.26275(18) 0.73375(16)
C25B C 0.5370(3) -0.2132(2) 0.6864(2)
H18B H 0.4790 -0.2290 0.7021
C26B C 0.4973(3) -0.1398(3) 0.6156(2)
H19B H 0.4141 -0.1064 0.5843
H15B H 0.8137 -0.2746 0.7412
H17B H 0.7569 -0.1567 0.6228
loop_
_geom_bond_atom_site_label_1
_geom_bond_atom_site_label_2
_geom_bond_site_symmetry_1
_geom_bond_site_symmetry_2
Zn1 O2 1_555 1_555
O1 C8 1_555 1_555
O2 C8 1_555 1_555
O3 C19 1_555 1_555
O4 C19 1_555 1_555
O5 H1 1_555 1_555
N1 Zn1 1_555 1_555
N2 C10 1_555 1_555
C1 C2 1_555 1_555
C2 H2 1_555 1_555
C3 O5 1_555 1_555
C4 N1 1_555 1_555
H3 C4 1_555 1_555
C5 H4 1_555 1_555
C6 H5 1_555 1_555
C7 C2 1_555 1_555
C8 C1 1_555 1_555
C9 C4 1_555 1_555
H6 C9 1_555 1_555
C10 H7 1_555 1_555
C11 C1 1_555 1_555
H8 C11 1_555 1_555
C12 C10 1_555 1_555
H9 C12 1_555 1_555
C13 C9 1_555 1_555
C14 C5 1_555 1_555
H10 C14 1_555 1_555
C15 C5 1_555 1_555
C16 C3 1_555 1_555
H11 C16 1_555 1_555
C17 N2 1_555 1_555
H12 C17 1_555 1_555
C18 C13 1_555 1_555
H13 C18 1_555 1_555
C19 C7 1_555 1_555
C20 N1 1_555 1_555
H14 C20 1_555 1_555
N3 C21 1_555 1_555
C21 H15 1_555 1_555
C22 H16 1_555 1_555
C23 C22 1_555 1_555
C24 C21 1_555 1_555
H17 C24 1_555 1_555
C25 N3 1_555 1_555
H18 C25 1_555 1_555
C26 C23 1_555 1_555
H19 C26 1_555 1_555
O1C C8C 1_555 1_555
O2C C8C 1_555 1_555
O3C Zn1 1_555 1_555
O4C Zn1 1_555 1_555
O5C H1C 1_555 1_555
C1C C2C 1_555 1_555
C2C H2C 1_555 1_555
C3C O5C 1_555 1_555
C7C C2C 1_555 1_555
C8C C1C 1_555 1_555
C11C C1C 1_555 1_555
H8C C11C 1_555 1_555
C16C C3C 1_555 1_555
H11C C16C 1_555 1_555
C19C O3C 1_555 1_555
N1C C4C 1_555 1_555
N2C Zn1 1_555 1_555
C4C H3C 1_555 1_555
C5C H4C 1_555 1_555
C6C H5C 1_555 1_555
C9C C4C 1_555 1_555
H6C C9C 1_555 1_555
C10C N2C 1_555 1_555
H7C C10C 1_555 1_555
C12C C10C 1_555 1_555
H9C C12C 1_555 1_555
C13C C9C 1_555 1_555
C14C C5C 1_555 1_555
H10C C14C 1_555 1_555
C15C C5C 1_555 1_555
C17C N2C 1_555 1_555
H12C C17C 1_555 1_555
C18C C13C 1_555 1_555
H13C C18C 1_555 1_555
C20C N1C 1_555 1_555
H14C C20C 1_555 1_555
Zn1C O2C 1_555 1_555
Zn1C_2 O3 1_555 1_555
Zn1C_3 N2 1_555 1_555
Zn1C_4 N1C 1_555 1_555
O3_2 Zn1C 1_555 1_555
O4_2 Zn1C 1_555 1_555
N1C_2 Zn1C 1_555 1_555
N2_2 Zn1C 1_555 1_555
C22B C22 1_555 1_555
H16B C22B 1_555 1_555
C23B C22B 1_555 1_555
C24B C23B 1_555 1_555
C21B C24B 1_555 1_555
N3B C21B 1_555 1_555
C25B N3B 1_555 1_555
H18B C25B 1_555 1_555
C26B C23B 1_555 1_555
H19B C26B 1_555 1_555
H15B C21B 1_555 1_555
H17B C24B 1_555 1_555
O4 Zn1C_2 1_555 1_555
C3 C11 1_555 1_555
C6 C15 1_555 1_555
C6 C17 1_555 1_555
C7 C16 1_555 1_555
C12 C15 1_555 1_555
C13 C14 1_555 1_555
C18 C20 1_555 1_555
C23 C24 1_555 1_555
C25 C26 1_555 1_555
O4C C19C 1_555 1_555
C3C C11C 1_555 1_555
C7C C16C 1_555 1_555
C7C C19C 1_555 1_555
C6C C15C 1_555 1_555
C6C C17C 1_555 1_555
C12C C15C 1_555 1_555
C13C C14C 1_555 1_555
C18C C20C 1_555 1_555
C25B C26B 1_555 1_555

#END
