
#######################################################################
#
#                 Cambridge Crystallographic Data Centre
#                                CCDC 
#
#######################################################################
#
# If this CIF has been generated from an entry in the Cambridge 
# Structural Database, then it will include bibliographic, chemical, 
# crystal, experimental, refinement or atomic coordinate data resulting 
# from the CCDC's data processing and validation procedures.
#
#######################################################################

data_ABAZEJ
_symmetry_cell_setting           monoclinic
_symmetry_space_group_name_H-M   'P 21/n'
_symmetry_Int_Tables_number      14
_space_group_name_Hall           '-P 2yn'
loop_
_symmetry_equiv_pos_site_id
_symmetry_equiv_pos_as_xyz
1 x,y,z
2 1/2+x,1/2-y,1/2+z
3 -x,-y,-z
4 1/2-x,1/2+y,1/2-z
_cell_length_a                   11.1365(2)
_cell_length_b                   10.9605(4)
_cell_length_c                   16.3438(7)
_cell_angle_alpha                90
_cell_angle_beta                 103.861(2)
_cell_angle_gamma                90
_cell_volume                     1936.86
loop_
_atom_site_label
_atom_site_type_symbol
_atom_site_fract_x
_atom_site_fract_y
_atom_site_fract_z
Zn1 Zn 0.86059(5) 0.94903(5) 0.15245(3)
O1 O 0.8237(3) 0.7902(3) 0.0954(2)
O3 O 0.6672(3) 0.8685(3) -0.0006(2)
O4 O 0.4972(3) 0.5901(3) -0.24981(19)
O5 O 0.4632(4) 0.3983(3) -0.2188(2)
O6 O 0.6920(3) 0.3443(3) 0.0851(2)
H1 H 0.7306 0.3686 0.1314
N1 N 0.7007(4) 0.9781(4) 0.1909(2)
N2 N 0.3958(4) 1.4210(4) 0.5718(2)
C1 C 0.7300(5) 0.7796(5) 0.0338(3)
C2 C 0.5106(5) 0.4994(5) -0.1986(3)
C3 C 0.6933(4) 0.6535(5) 0.0020(3)
C4 C 0.6273(5) 0.6342(5) -0.0814(3)
H2 H 0.613(4) 0.693(4) -0.111(3)
C5 C 0.5873(4) 0.5202(4) -0.1098(3)
C6 C 0.6095(5) 0.4228(5) -0.0540(3)
H3 H 0.590(3) 0.358(4) -0.069(2)
C7 C 0.6730(4) 0.4387(5) 0.0294(3)
C8 C 0.7174(5) 0.5530(5) 0.0558(3)
H4 H 0.754(5) 0.562(5) 0.102(3)
C9 C 0.6221(5) 0.8876(6) 0.1947(3)
H5 H 0.649(4) 0.806(5) 0.183(3)
C10 C 0.5103(6) 0.9045(6) 0.2141(4)
H6 H 0.460(6) 0.841(6) 0.217(4)
C11 C 0.4723(5) 1.0217(5) 0.2309(3)
C12 C 0.3469(6) 1.0438(7) 0.2475(5)
H7 H 0.329(5) 0.979(5) 0.272(3)
H8 H 0.296(5) 1.062(5) 0.199(4)
C13 C 0.3389(6) 1.1501(6) 0.3065(4)
H9 H 0.361(4) 1.220(4) 0.282(3)
H10 H 0.252(5) 1.162(5) 0.305(3)
C14 C 0.4164(6) 1.1316(6) 0.3948(4)
H11 H 0.386(4) 1.063(5) 0.413(3)
H12 H 0.500(5) 1.114(5) 0.397(3)
C15 C 0.4130(5) 1.2351(5) 0.4559(3)
C16 C 0.3679(6) 1.3495(6) 0.4299(4)
H13 H 0.342(6) 1.378(6) 0.373(4)
C17 C 0.3623(6) 1.4385(6) 0.4876(3)
H14 H 0.334(6) 1.525(6) 0.469(4)
C18 C 0.4434(6) 1.3126(6) 0.5976(4)
H15 H 0.470(4) 1.306(5) 0.659(3)
C19 C 0.4520(7) 1.2188(6) 0.5416(4)
H16 H 0.496(5) 1.160(5) 0.563(3)
C20 C 0.5543(5) 1.1150(6) 0.2273(3)
H17 H 0.535(3) 1.188(4) 0.236(2)
C21 C 0.6655(5) 1.0912(5) 0.2074(3)
H18 H 0.733(5) 1.159(5) 0.209(3)
O4A O 0.9972(3) 0.9099(3) 0.25019(19)
N2A N 0.8958(4) 1.0790(4) 0.0718(2)
Zn1A Zn 0.36059(5) 0.55097(5) -0.34755(3)
Zn1A_2 Zn 0.36059(5) 1.55097(5) 0.65245(3)
O2 O 0.5867(3) 0.1347(4) 0.0115(2)
loop_
_geom_bond_atom_site_label_1
_geom_bond_atom_site_label_2
_geom_bond_site_symmetry_1
_geom_bond_site_symmetry_2
Zn1 O1 1_555 1_555
O1 C1 1_555 1_555
O3 C1 1_555 1_555
O4 C2 1_555 1_555
O5 C2 1_555 1_555
O6 H1 1_555 1_555
N1 Zn1 1_555 1_555
N2 C17 1_555 1_555
C1 C3 1_555 1_555
C2 C5 1_555 1_555
C3 C4 1_555 1_555
C4 H2 1_555 1_555
C5 C4 1_555 1_555
C6 C5 1_555 1_555
H3 C6 1_555 1_555
C7 O6 1_555 1_555
C8 C3 1_555 1_555
H4 C8 1_555 1_555
C9 N1 1_555 1_555
H5 C9 1_555 1_555
C10 C9 1_555 1_555
H6 C10 1_555 1_555
C11 C10 1_555 1_555
C12 C11 1_555 1_555
H7 C12 1_555 1_555
H8 C12 1_555 1_555
C13 C12 1_555 1_555
H9 C13 1_555 1_555
H10 C13 1_555 1_555
C14 C13 1_555 1_555
H11 C14 1_555 1_555
H12 C14 1_555 1_555
C15 C14 1_555 1_555
C16 C15 1_555 1_555
H13 C16 1_555 1_555
C17 C16 1_555 1_555
H14 C17 1_555 1_555
C18 N2 1_555 1_555
H15 C18 1_555 1_555
C19 C15 1_555 1_555
H16 C19 1_555 1_555
C20 C11 1_555 1_555
H17 C20 1_555 1_555
C21 N1 1_555 1_555
H18 C21 1_555 1_555
O4A Zn1 1_555 1_555
N2A Zn1 1_555 1_555
Zn1A O4 1_555 1_555
Zn1A_2 N2 1_555 1_555
C6 C7 1_555 1_555
C7 C8 1_555 1_555
C18 C19 1_555 1_555
C20 C21 1_555 1_555

#END
