
#######################################################################
#
#                 Cambridge Crystallographic Data Centre
#                                CCDC 
#
#######################################################################
#
# If this CIF has been generated from an entry in the Cambridge 
# Structural Database, then it will include bibliographic, chemical, 
# crystal, experimental, refinement or atomic coordinate data resulting 
# from the CCDC's data processing and validation procedures.
#
#######################################################################

data_ABECAM
_symmetry_cell_setting           monoclinic
_symmetry_space_group_name_H-M   'C 2/c'
_symmetry_Int_Tables_number      15
_space_group_name_Hall           '-C 2yn'
loop_
_symmetry_equiv_pos_site_id
_symmetry_equiv_pos_as_xyz
1 x,y,z
2 1/2+x,1/2+y,z
3 x,-y,1/2+z
4 1/2+x,1/2-y,1/2+z
5 -x,-y,-z
6 1/2-x,1/2-y,-z
7 -x,y,1/2-z
8 1/2-x,1/2+y,1/2-z
_cell_length_a                   16.769(3)
_cell_length_b                   11.411(2)
_cell_length_c                   8.7730(18)
_cell_angle_alpha                90
_cell_angle_beta                 108.03(3)
_cell_angle_gamma                90
_cell_volume                     1596.29
loop_
_atom_site_label
_atom_site_type_symbol
_atom_site_fract_x
_atom_site_fract_y
_atom_site_fract_z
Pb1 Pb 0.5000 0.11930(3) 0.2500
O1 O 0.6345(5) 0.1683(11) 0.1754(11)
O2 O 0.5486(7) 0.0989(7) -0.0294(12)
O3 O 0.6766(11) 0.1096(11) -0.016(2)
N1 N 0.4351(4) 0.2983(5) 0.1086(7)
N2 N 0.6220(7) 0.1251(6) 0.0423(12)
C1 C 0.3703(5) 0.2983(9) -0.0247(10)
C2 C 0.3327(7) 0.4054(15) -0.0943(16)
H1 H 0.2870 0.4044 -0.1872
C3 C 0.3634(9) 0.5083(11) -0.0255(18)
H2 H 0.3388 0.5783 -0.0706
C4 C 0.4306(7) 0.5099(7) 0.1099(13)
C5 C 0.4654(5) 0.4026(6) 0.1788(9)
C6 C 0.3387(7) 0.1819(12) -0.0974(12)
H3 H 0.3718 0.1206 -0.0333
H4 H 0.3430 0.1780 -0.2039
H5 H 0.2812 0.1726 -0.1018
C7 C 0.4665(11) 0.6153(7) 0.185(3)
H6 H 0.4427 0.6864 0.1428
C5F C 0.5346(5) 0.4026(6) 0.3212(9)
N1F N 0.5649(4) 0.2983(5) 0.3914(7)
C1F C 0.6297(5) 0.2983(9) 0.5247(10)
C2F C 0.6673(7) 0.4054(15) 0.5943(16)
H1F H 0.7130 0.4044 0.6872
C3F C 0.6366(9) 0.5083(11) 0.5255(18)
H2F H 0.6612 0.5783 0.5706
C4F C 0.5694(7) 0.5099(7) 0.3901(13)
C7F C 0.5335(11) 0.6153(7) 0.315(3)
H6F H 0.5573 0.6864 0.3572
C6F C 0.6613(7) 0.1819(12) 0.5974(12)
H3F H 0.6282 0.1206 0.5333
H4F H 0.6570 0.1780 0.7039
H5F H 0.7188 0.1726 0.6018
O1F O 0.3655(5) 0.1683(11) 0.3246(11)
O2F O 0.4514(7) 0.0989(7) 0.5294(12)
O3F O 0.3234(11) 0.1096(11) 0.516(2)
N2F N 0.3780(7) 0.1251(6) 0.4577(12)
O2B O 0.5486(7) -0.0989(7) 0.4706(12)
O2D O 0.4514(7) -0.0989(7) 0.0294(12)
Pb1B Pb 0.5000 -0.11930(3) -0.2500
Pb1B_2 Pb 0.5000 -0.11930(3) 0.7500
loop_
_geom_bond_atom_site_label_1
_geom_bond_atom_site_label_2
_geom_bond_site_symmetry_1
_geom_bond_site_symmetry_2
Pb1 O1 1_555 1_555
O1 N2 1_555 1_555
O2 Pb1 1_555 1_555
O3 N2 1_555 1_555
N1 Pb1 1_555 1_555
N2 O2 1_555 1_555
C1 N1 1_555 1_555
C2 C1 1_555 1_555
H1 C2 1_555 1_555
C3 C2 1_555 1_555
H2 C3 1_555 1_555
C4 C3 1_555 1_555
C5 N1 1_555 1_555
C6 C1 1_555 1_555
H3 C6 1_555 1_555
H4 C6 1_555 1_555
H5 C6 1_555 1_555
C7 C4 1_555 1_555
H6 C7 1_555 1_555
C5F C5 1_555 1_555
N1F Pb1 1_555 1_555
C1F N1F 1_555 1_555
C2F C1F 1_555 1_555
H1F C2F 1_555 1_555
C3F C2F 1_555 1_555
H2F C3F 1_555 1_555
C4F C5F 1_555 1_555
C7F C7 1_555 1_555
H6F C7F 1_555 1_555
C6F C1F 1_555 1_555
H3F C6F 1_555 1_555
H4F C6F 1_555 1_555
H5F C6F 1_555 1_555
O1F Pb1 1_555 1_555
O2F Pb1 1_555 1_555
O3F N2F 1_555 1_555
N2F O1F 1_555 1_555
O2B Pb1 1_555 1_555
O2D Pb1 1_555 1_555
Pb1B O2 1_555 1_555
Pb1B_2 O2F 1_555 1_555
C4 C5 1_555 1_555
C5F N1F 1_555 1_555
C3F C4F 1_555 1_555
C4F C7F 1_555 1_555
O2F N2F 1_555 1_555
O2B Pb1B_2 1_555 1_555
O2D Pb1B 1_555 1_555

#END
