
#######################################################################
#
#                 Cambridge Crystallographic Data Centre
#                                CCDC 
#
#######################################################################
#
# If this CIF has been generated from an entry in the Cambridge 
# Structural Database, then it will include bibliographic, chemical, 
# crystal, experimental, refinement or atomic coordinate data resulting 
# from the CCDC's data processing and validation procedures.
#
#######################################################################

data_ABEMUR
_symmetry_cell_setting           triclinic
_symmetry_space_group_name_H-M   'P -1'
_symmetry_Int_Tables_number      2
_space_group_name_Hall           '-P 1'
loop_
_symmetry_equiv_pos_site_id
_symmetry_equiv_pos_as_xyz
1 x,y,z
2 -x,-y,-z
_cell_length_a                   7.5856(12)
_cell_length_b                   14.516(2)
_cell_length_c                   17.684(3)
_cell_angle_alpha                71.470(5)
_cell_angle_beta                 80.448(5)
_cell_angle_gamma                77.098(5)
_cell_volume                     1790.14
loop_
_atom_site_label
_atom_site_type_symbol
_atom_site_fract_x
_atom_site_fract_y
_atom_site_fract_z
Ag1 Ag 0.15532(12) 0.46261(5) -0.07340(5)
Ag2 Ag -0.27232(12) 1.97073(5) -0.52407(5)
N1 N -0.2513(12) 1.8140(5) -0.4920(5)
N2 N 0.1820(11) 0.3053(5) -0.0304(5)
N3 N 0.1651(12) 0.6167(5) -0.1098(5)
N4 N 0.7153(11) -0.8729(6) 0.4333(5)
O2 O 0.2309(10) 1.1259(4) -0.2104(4)
C1 C 0.2424(12) 0.0983(6) 0.0266(5)
C2 C 0.0660(15) 0.7847(7) -0.1863(6)
H1 H -0.0061 0.8283 -0.2251
C3 C 0.3744(13) -0.0698(6) 0.1106(5)
H2 H 0.4415 -0.0437 0.1356
N5 N 0.5178(11) -0.3332(5) 0.2094(4)
H3 H 0.4599 -0.3599 0.1867
O4 O 0.2967(10) -0.2171(4) 0.1035(4)
C4 C 0.6562(13) -0.8199(7) 0.3637(6)
H4 H 0.6194 -0.8517 0.3326
C5 C 0.1313(13) 0.1510(7) -0.0340(5)
H5 H 0.0759 0.1172 -0.0573
N6 N 0.5001(10) -0.2321(5) 0.1867(4)
H6 H 0.5624 -0.2044 0.2067
C6 C 0.6970(13) -0.6677(6) 0.3772(6)
C7 C 0.1886(13) 0.9235(6) -0.1696(6)
H7 H 0.2727 0.9377 -0.1442
C8 C 0.1132(15) 1.1009(7) -0.2360(6)
C9 C 0.1734(13) 0.8188(6) -0.1502(6)
C10 C 0.0663(15) 0.6848(7) -0.1644(6)
H8 H -0.0079 0.6632 -0.1896
N7 N -0.0102(11) 1.2666(5) -0.2989(4)
H9 H 0.0603 1.2880 -0.2776
C11 C -0.1276(15) 1.3284(7) -0.3494(6)
N8 N -0.0080(11) 1.1671(5) -0.2828(4)
H10 H -0.0838 1.1474 -0.3026
C12 C 0.1028(15) 0.2516(7) -0.0597(6)
H11 H 0.0251 0.2846 -0.0993
C13 C 0.6469(14) -0.7196(7) 0.3355(6)
H12 H 0.6044 -0.6860 0.2858
C14 C -0.2133(13) 1.5013(6) -0.4237(6)
H13 H -0.2787 1.4782 -0.4517
C15 C 0.2877(15) 0.2544(7) 0.0282(7)
H14 H 0.3436 0.2898 0.0498
C16 C -0.2239(13) 1.6085(6) -0.4464(6)
C17 C 0.0948(14) 0.9984(6) -0.2193(6)
H15 H 0.0110 0.9853 -0.2456
C18 C -0.2824(15) 1.6700(7) -0.5189(6)
H16 H -0.3143 1.6422 -0.5543
C19 C 0.6250(14) -0.3913(7) 0.2670(6)
O7 O -0.2322(11) 1.2984(5) -0.3772(4)
C20 C -0.1966(14) 1.7547(7) -0.4206(6)
H17 H -0.1682 1.7841 -0.3857
C21 C -0.1808(14) 1.6562(7) -0.3971(6)
H18 H -0.1407 1.6195 -0.3475
C22 C 0.7662(15) -0.8243(8) 0.4758(6)
H19 H 0.8087 -0.8604 0.5251
C23 C -0.2947(15) 1.7700(8) -0.5399(6)
H20 H -0.3344 1.8085 -0.5892
C24 C 0.7594(15) -0.7233(7) 0.4512(6)
H21 H 0.7959 -0.6928 0.4834
O10 O 0.7141(9) -0.3554(4) 0.2984(4)
C25 C 0.3185(14) 0.1543(6) 0.0582(6)
H22 H 0.3910 0.1234 0.1000
C26 C 0.3850(13) -0.1777(6) 0.1332(5)
C27 C -0.1196(13) 1.4333(6) -0.3670(5)
H23 H -0.0488 1.4524 -0.3385
C28 C 0.6941(12) -0.5618(6) 0.3506(6)
H24 H 0.7480 -0.5368 0.3815
C29 C 0.6223(13) -0.4973(6) 0.2866(6)
H25 H 0.5693 -0.5195 0.2534
C30 C 0.2694(12) -0.0094(6) 0.0548(5)
H26 H 0.2064 -0.0393 0.0311
C31 C 0.2687(15) 0.6496(7) -0.0740(7)
H27 H 0.3399 0.6045 -0.0355
C32 C 0.2735(14) 0.7493(7) -0.0926(6)
H28 H 0.3457 0.7697 -0.0655
Ag2_2 Ag 0.72768(12) -1.02927(5) 0.47593(5)
N4_2 N -0.2847(11) 2.1271(6) -0.5667(5)
Cl1 Cl 0.7263(4) 0.51890(18) -0.14878(16)
O1 O 0.7611(11) 0.5385(5) -0.0796(4)
O3 O 0.5954(12) 0.4553(6) -0.1263(5)
O5 O 0.8923(13) 0.4767(7) -0.1829(5)
O11 O 0.6552(12) 0.6081(5) -0.2036(5)
Cl2 Cl 0.6698(4) 0.98653(19) -0.32056(16)
O6 O 0.8361(12) 0.9587(6) -0.3638(5)
O8 O 0.6826(12) 1.0719(7) -0.3002(6)
O9 O 0.5298(11) 1.0095(5) -0.3703(5)
O12 O 0.6371(13) 0.9112(7) -0.2531(5)
loop_
_geom_bond_atom_site_label_1
_geom_bond_atom_site_label_2
_geom_bond_site_symmetry_1
_geom_bond_site_symmetry_2
Ag1 N2 1_555 1_555
Ag2 N1 1_555 1_555
Cl1 O1 1_555 1_555
Cl2 O6 1_555 1_555
N1 C20 1_555 1_555
N2 C12 1_555 1_555
N3 Ag1 1_555 1_555
N4 C4 1_555 1_555
O2 C8 1_555 1_555
C1 C5 1_555 1_555
O3 Cl1 1_555 1_555
C2 H1 1_555 1_555
C3 H2 1_555 1_555
N5 H3 1_555 1_555
O4 C26 1_555 1_555
C4 H4 1_555 1_555
C5 H5 1_555 1_555
N6 N5 1_555 1_555
H6 N6 1_555 1_555
C6 C13 1_555 1_555
C7 H7 1_555 1_555
C8 N8 1_555 1_555
O5 Cl1 1_555 1_555
C9 C2 1_555 1_555
C10 N3 1_555 1_555
H8 C10 1_555 1_555
N7 H9 1_555 1_555
C11 N7 1_555 1_555
N8 N7 1_555 1_555
H10 N8 1_555 1_555
C12 C5 1_555 1_555
H11 C12 1_555 1_555
C13 C4 1_555 1_555
H12 C13 1_555 1_555
C14 H13 1_555 1_555
C15 N2 1_555 1_555
H14 C15 1_555 1_555
C16 C14 1_555 1_555
C17 C7 1_555 1_555
H15 C17 1_555 1_555
C18 C16 1_555 1_555
H16 C18 1_555 1_555
C19 N5 1_555 1_555
O7 C11 1_555 1_555
C20 H17 1_555 1_555
O8 Cl2 1_555 1_555
C21 C16 1_555 1_555
H18 C21 1_555 1_555
C22 N4 1_555 1_555
H19 C22 1_555 1_555
O9 Cl2 1_555 1_555
C23 N1 1_555 1_555
H20 C23 1_555 1_555
C24 C6 1_555 1_555
H21 C24 1_555 1_555
O10 C19 1_555 1_555
C25 C1 1_555 1_555
H22 C25 1_555 1_555
O11 Cl1 1_555 1_555
C26 C3 1_555 1_555
C27 C11 1_555 1_555
H23 C27 1_555 1_555
C28 C6 1_555 1_555
H24 C28 1_555 1_555
C29 C19 1_555 1_555
H25 C29 1_555 1_555
O12 Cl2 1_555 1_555
C30 C1 1_555 1_555
H26 C30 1_555 1_555
C31 N3 1_555 1_555
H27 C31 1_555 1_555
C32 C9 1_555 1_555
H28 C32 1_555 1_555
Ag2_2 N4 1_555 1_555
N4_2 Ag2 1_555 1_555
C2 C10 1_555 1_555
C3 C30 1_555 1_555
N6 C26 1_555 1_555
C7 C9 1_555 1_555
C8 C17 1_555 1_555
C14 C27 1_555 1_555
C15 C25 1_555 1_555
C18 C23 1_555 1_555
C20 C21 1_555 1_555
C22 C24 1_555 1_555
C28 C29 1_555 1_555
C31 C32 1_555 1_555

#END
