
#######################################################################
#
#                 Cambridge Crystallographic Data Centre
#                                CCDC 
#
#######################################################################
#
# If this CIF has been generated from an entry in the Cambridge 
# Structural Database, then it will include bibliographic, chemical, 
# crystal, experimental, refinement or atomic coordinate data resulting 
# from the CCDC's data processing and validation procedures.
#
#######################################################################

data_ABENAY
_symmetry_cell_setting           triclinic
_symmetry_space_group_name_H-M   'P -1'
_symmetry_Int_Tables_number      2
_space_group_name_Hall           '-P 1'
loop_
_symmetry_equiv_pos_site_id
_symmetry_equiv_pos_as_xyz
1 x,y,z
2 -x,-y,-z
_cell_length_a                   8.224(3)
_cell_length_b                   8.903(3)
_cell_length_c                   12.642(4)
_cell_angle_alpha                86.630(11)
_cell_angle_beta                 80.050(10)
_cell_angle_gamma                66.214(9)
_cell_volume                     834.2
loop_
_atom_site_label
_atom_site_type_symbol
_atom_site_fract_x
_atom_site_fract_y
_atom_site_fract_z
Ag1 Ag 0.36352(9) 0.53731(8) 0.91271(6)
N1 N 0.5012(9) 0.3347(8) 0.8021(6)
C1 C 0.4577(11) 0.2043(11) 0.8126(7)
H1 H 0.3759 0.1995 0.8721
C2 C 0.5289(10) 0.0772(11) 0.7390(7)
H2 H 0.4887 -0.0072 0.7467
C3 C 0.6593(10) 0.0746(10) 0.6542(7)
C4 C 0.7096(11) 0.2065(10) 0.6457(7)
H3 H 0.7980 0.2091 0.5897
C5 C 0.6296(12) 0.3337(10) 0.7194(7)
H4 H 0.6650 0.4212 0.7120
C6 C 0.7415(11) -0.0564(10) 0.5727(7)
H5 H 0.8413 -0.0555 0.5255
C7 C 0.6909(11) -0.1753(10) 0.5583(7)
H6 H 0.5895 -0.1799 0.6017
N2 N 1.1943(9) -1.2707(8) 0.0250(5)
C8 C 1.0596(11) -1.2841(10) 0.0935(7)
H7 H 1.0344 -1.3759 0.0876
C9 C 0.9546(11) -1.1700(10) 0.1729(7)
H8 H 0.8660 -1.1883 0.2217
C10 C 0.9831(10) -1.0257(10) 0.1793(7)
C11 C 1.1215(10) -1.0100(10) 0.1069(6)
H9 H 1.1458 -0.9168 0.1079
C12 C 1.2229(11) -1.1340(11) 0.0331(7)
H10 H 1.3171 -1.1223 -0.0141
C13 C 0.8680(10) -0.9018(10) 0.2602(6)
H11 H 0.7754 -0.9219 0.3035
C14 C 0.8827(10) -0.7629(10) 0.2782(7)
H12 H 0.9735 -0.7392 0.2358
O1 O 0.9332(8) -0.3072(8) 0.4170(5)
O2 O 0.6223(8) -0.6519(7) 0.4143(5)
N3 N 0.8121(9) -0.5241(8) 0.3787(6)
H13 H 0.9052 -0.5201 0.3376
N4 N 0.7226(8) -0.4077(8) 0.4574(5)
H14 H 0.6233 -0.4028 0.4956
C15 C 0.7934(11) -0.3016(10) 0.4737(7)
C16 C 0.7599(11) -0.6447(10) 0.3630(7)
N5 N 0.7116(13) 0.6684(9) 0.8427(8)
O3 O 0.8219(9) 0.6042(10) 0.7632(6)
O4 O 0.7576(18) 0.6860(12) 0.9249(8)
O5 O 0.5529(11) 0.7063(11) 0.8337(8)
Ag1_2 Ag 1.36352(9) -1.46269(8) -0.08729(6)
N2_2 N 0.1943(9) 0.7293(8) 1.0250(5)
loop_
_geom_bond_atom_site_label_1
_geom_bond_atom_site_label_2
_geom_bond_site_symmetry_1
_geom_bond_site_symmetry_2
Ag1 N1 1_555 1_555
N1 C1 1_555 1_555
C1 H1 1_555 1_555
C2 C1 1_555 1_555
H2 C2 1_555 1_555
C3 C2 1_555 1_555
C4 C3 1_555 1_555
H3 C4 1_555 1_555
C5 N1 1_555 1_555
H4 C5 1_555 1_555
C6 C3 1_555 1_555
H5 C6 1_555 1_555
C7 C6 1_555 1_555
H6 C7 1_555 1_555
N2 C8 1_555 1_555
C8 H7 1_555 1_555
C9 C8 1_555 1_555
H8 C9 1_555 1_555
C10 C9 1_555 1_555
C11 C10 1_555 1_555
H9 C11 1_555 1_555
C12 N2 1_555 1_555
H10 C12 1_555 1_555
C13 C10 1_555 1_555
H11 C13 1_555 1_555
C14 C13 1_555 1_555
H12 C14 1_555 1_555
O1 C15 1_555 1_555
O2 C16 1_555 1_555
N3 H13 1_555 1_555
N4 N3 1_555 1_555
H14 N4 1_555 1_555
C15 C7 1_555 1_555
C16 C14 1_555 1_555
N5 O3 1_555 1_555
O4 N5 1_555 1_555
O5 Ag1 1_555 1_555
Ag1_2 N2 1_555 1_555
N2_2 Ag1 1_555 1_555
C4 C5 1_555 1_555
C11 C12 1_555 1_555
N3 C16 1_555 1_555
N4 C15 1_555 1_555
N5 O5 1_555 1_555

#END
