
#######################################################################
#
#                 Cambridge Crystallographic Data Centre
#                                CCDC 
#
#######################################################################
#
# If this CIF has been generated from an entry in the Cambridge 
# Structural Database, then it will include bibliographic, chemical, 
# crystal, experimental, refinement or atomic coordinate data resulting 
# from the CCDC's data processing and validation procedures.
#
#######################################################################

data_ABEWUB
_symmetry_cell_setting           monoclinic
_symmetry_space_group_name_H-M   'P 21/n'
_symmetry_Int_Tables_number      14
_space_group_name_Hall           '-P 2yn'
loop_
_symmetry_equiv_pos_site_id
_symmetry_equiv_pos_as_xyz
1 x,y,z
2 1/2-x,1/2+y,1/2-z
3 -x,-y,-z
4 1/2+x,1/2-y,1/2+z
_cell_length_a                   7.8720(6)
_cell_length_b                   13.0190(7)
_cell_length_c                   12.9240(8)
_cell_angle_alpha                90
_cell_angle_beta                 94.241(6)
_cell_angle_gamma                90
_cell_volume                     1320.9
loop_
_atom_site_label
_atom_site_type_symbol
_atom_site_fract_x
_atom_site_fract_y
_atom_site_fract_z
Dy1 Dy 0.09743(2) 0.165058(11) 0.163309(12)
N1 N 0.2303(4) 0.0263(2) 0.2987(2)
C1 C 0.2759(4) -0.0713(2) 0.2847(3)
H1 H 0.2802 -0.0938 0.2167
N2 N 0.3158(4) -0.1397(2) 0.3603(2)
C2 C 0.3111(4) -0.1061(2) 0.4579(3)
C3 C 0.2652(4) -0.0060(3) 0.4803(3)
H2 H 0.2626 0.0170 0.5483
C4 C 0.2237(4) 0.0574(2) 0.3974(3)
C5 C 0.1644(4) 0.1677(2) 0.4110(3)
O1 O 0.1451(3) 0.22214(17) 0.32998(19)
O2 O 0.1368(3) 0.19595(18) 0.4998(2)
C6 C 0.3608(4) -0.1846(3) 0.5421(3)
O3 O 0.3807(3) -0.27525(17) 0.51073(19)
O4 O 0.3766(3) -0.15537(18) 0.63359(19)
O5 O -0.1249(3) 0.09502(17) 0.05054(19)
C7 C -0.0900(4) 0.0227(2) -0.0072(3)
O6 O -0.1890(3) -0.01791(17) -0.07633(18)
O7 O -0.1089(3) 0.06813(18) 0.26343(19)
O8 O -0.1440(3) 0.27330(19) 0.17061(19)
O9 O 0.4033(3) 0.17715(18) 0.1715(2)
H3 H -0.1933 0.0960 0.2910
H4 H -0.1514 0.0118 0.2385
H5 H -0.2153 0.2838 0.1180
H6 H -0.1783 0.3142 0.2166
H7 H 0.4486 0.1532 0.1179
H8 H 0.4798 0.1659 0.2216
Dy1B Dy -0.09743(2) -0.165058(11) -0.163309(12)
Dy1A Dy 0.40257(2) -0.334942(11) 0.336691(12)
Dy1C Dy -0.40257(2) 0.334942(11) -0.336691(12)
N1B N -0.2303(4) -0.0263(2) -0.2987(2)
C1B C -0.2759(4) 0.0713(2) -0.2847(3)
H1B H -0.2802 0.0938 -0.2167
N2B N -0.3158(4) 0.1397(2) -0.3603(2)
N2A N 0.1842(4) 0.3603(2) 0.1397(2)
N2C N -0.1842(4) -0.3603(2) -0.1397(2)
C2B C -0.3111(4) 0.1061(2) -0.4579(3)
C3B C -0.2652(4) 0.0060(3) -0.4803(3)
H2B H -0.2626 -0.0170 -0.5483
C4B C -0.2237(4) -0.0574(2) -0.3974(3)
C5B C -0.1644(4) -0.1677(2) -0.4110(3)
O1B O -0.1451(3) -0.22214(17) -0.32998(19)
O2B O -0.1368(3) -0.19595(18) -0.4998(2)
C6B C -0.3608(4) 0.1846(3) -0.5421(3)
O3B O -0.3807(3) 0.27525(17) -0.51073(19)
O3A O 0.1193(3) 0.22475(17) -0.01073(19)
O3C O -0.1193(3) -0.22475(17) 0.01073(19)
O4B O -0.3766(3) 0.15537(18) -0.63359(19)
O5B O 0.1249(3) -0.09502(17) -0.05054(19)
C7B C 0.0900(4) -0.0227(2) 0.0072(3)
O6B O 0.1890(3) 0.01791(17) 0.07633(18)
O7B O 0.1089(3) -0.06813(18) -0.26343(19)
O8B O 0.1440(3) -0.27330(19) -0.17061(19)
O9B O -0.4033(3) -0.17715(18) -0.1715(2)
H3B H 0.1933 -0.0960 -0.2910
H4B H 0.1514 -0.0118 -0.2385
H5B H 0.2153 -0.2838 -0.1180
H6B H 0.1783 -0.3142 -0.2166
H7B H -0.4486 -0.1532 -0.1179
H8B H -0.4798 -0.1659 -0.2216
O10 O 0.0112(3) 0.39257(18) 0.4816(2)
O11 O -0.2468(3) 0.39113(18) 0.3294(2)
loop_
_geom_bond_atom_site_label_1
_geom_bond_atom_site_label_2
_geom_bond_site_symmetry_1
_geom_bond_site_symmetry_2
Dy1 N1 1_555 1_555
N1 C1 1_555 1_555
C1 H1 1_555 1_555
N2 C1 1_555 1_555
C2 N2 1_555 1_555
C3 C2 1_555 1_555
H2 C3 1_555 1_555
C4 N1 1_555 1_555
C5 C4 1_555 1_555
O1 Dy1 1_555 1_555
O2 C5 1_555 1_555
C6 C2 1_555 1_555
O3 C6 1_555 1_555
O4 C6 1_555 1_555
O5 Dy1 1_555 1_555
C7 O5 1_555 1_555
O6 C7 1_555 1_555
O7 Dy1 1_555 1_555
O8 Dy1 1_555 1_555
O9 Dy1 1_555 1_555
H3 O7 1_555 1_555
H4 O7 1_555 1_555
H5 O8 1_555 1_555
H6 O8 1_555 1_555
H7 O9 1_555 1_555
H8 O9 1_555 1_555
Dy1B O6 1_555 1_555
Dy1A N2 1_555 1_555
Dy1C N2B 1_555 1_555
N1B Dy1B 1_555 1_555
C1B N1B 1_555 1_555
H1B C1B 1_555 1_555
N2B C1B 1_555 1_555
N2A Dy1 1_555 1_555
N2C Dy1B 1_555 1_555
C2B N2B 1_555 1_555
C3B C2B 1_555 1_555
H2B C3B 1_555 1_555
C4B N1B 1_555 1_555
C5B C4B 1_555 1_555
O1B Dy1B 1_555 1_555
O2B C5B 1_555 1_555
C6B C2B 1_555 1_555
O3B Dy1C 1_555 1_555
O3A Dy1 1_555 1_555
O3C Dy1B 1_555 1_555
O4B C6B 1_555 1_555
O5B Dy1B 1_555 1_555
C7B C7 1_555 1_555
O6B Dy1 1_555 1_555
O7B Dy1B 1_555 1_555
O8B Dy1B 1_555 1_555
O9B Dy1B 1_555 1_555
H3B O7B 1_555 1_555
H4B O7B 1_555 1_555
H5B O8B 1_555 1_555
H6B O8B 1_555 1_555
H7B O9B 1_555 1_555
H8B O9B 1_555 1_555
C3 C4 1_555 1_555
C5 O1 1_555 1_555
O3 Dy1A 1_555 1_555
C3B C4B 1_555 1_555
C5B O1B 1_555 1_555
C6B O3B 1_555 1_555
O5B C7B 1_555 1_555
C7B O6B 1_555 1_555

#END
