
#######################################################################
#
#                 Cambridge Crystallographic Data Centre
#                                CCDC 
#
#######################################################################
#
# If this CIF has been generated from an entry in the Cambridge 
# Structural Database, then it will include bibliographic, chemical, 
# crystal, experimental, refinement or atomic coordinate data resulting 
# from the CCDC's data processing and validation procedures.
#
#######################################################################

data_ABIFEX
_symmetry_cell_setting           orthorhombic
_symmetry_space_group_name_H-M   'P c c n'
_symmetry_Int_Tables_number      56
_space_group_name_Hall           '-P 2ab 2ac'
loop_
_symmetry_equiv_pos_site_id
_symmetry_equiv_pos_as_xyz
1 x,y,z
2 1/2+x,1/2+y,-z
3 x,1/2-y,1/2+z
4 1/2-x,y,1/2+z
5 -x,-y,-z
6 1/2-x,1/2-y,z
7 -x,1/2+y,1/2-z
8 1/2+x,-y,1/2-z
_cell_length_a                   7.6296(11)
_cell_length_b                   11.4509(14)
_cell_length_c                   15.021(2)
_cell_angle_alpha                90
_cell_angle_beta                 90
_cell_angle_gamma                90
_cell_volume                     1312.32
loop_
_atom_site_label
_atom_site_type_symbol
_atom_site_fract_x
_atom_site_fract_y
_atom_site_fract_z
Mn1 Mn 0.2500 0.7500 0.31230(6)
N1 N 0.2500 0.7500 0.1541(3)
N2 N 0.2500 0.7500 -0.0326(3)
O1 O 0.0250(3) 0.6402(3) 0.3041(2)
O2 O -0.2512(4) 0.5963(2) 0.2722(2)
O3 O 0.0975(4) 0.9095(3) 0.3140(2)
H1 H -0.008(3) 0.906(4) 0.297(3)
H2 H 0.149(5) 0.969(3) 0.293(3)
C1 C -0.1378(5) 0.6430(3) 0.3207(3)
C2 C -0.1963(5) 0.7009(4) 0.4058(3)
C3 C -0.1494(6) 0.6513(4) 0.4869(4)
H3 H -0.0826 0.5834 0.4874
C4 C -0.1999(6) 0.7008(5) 0.5664(4)
H4 H -0.167(6) 0.658(4) 0.627(4)
C5 C 0.1892(5) 0.6603(4) 0.1072(3)
H5 H 0.1459 0.5954 0.1373
C6 C 0.1883(6) 0.6601(4) 0.0155(3)
H6 H 0.1433 0.5955 -0.0142
C6E C 0.3117(6) 0.8399(4) 0.0155(3)
C5E C 0.3108(5) 0.8397(4) 0.1072(3)
H5E H 0.3541 0.9046 0.1373
H6E H 0.3567 0.9045 -0.0142
C2E C -0.3037(5) 0.7991(4) 0.4058(3)
C1E C -0.3622(5) 0.8570(3) 0.3207(3)
O1E O -0.5250(3) 0.8598(3) 0.3041(2)
O2E O -0.2488(4) 0.9037(2) 0.2722(2)
C3E C -0.3506(6) 0.8487(4) 0.4869(4)
H3E H -0.4174 0.9166 0.4874
C4E C -0.3001(6) 0.7992(5) 0.5664(4)
H4E H -0.333(6) 0.842(4) 0.627(4)
O3E O 0.4025(4) 0.5905(3) 0.3140(2)
H1E H 0.508(3) 0.594(4) 0.297(3)
H2E H 0.351(5) 0.531(3) 0.293(3)
N2B N 0.2500 0.7500 0.4674(3)
O1E_2 O 0.4750(3) 0.8598(3) 0.3041(2)
Mn1B Mn 0.2500 0.7500 -0.18770(6)
Mn1_2 Mn -0.7500 0.7500 0.31230(6)
loop_
_geom_bond_atom_site_label_1
_geom_bond_atom_site_label_2
_geom_bond_site_symmetry_1
_geom_bond_site_symmetry_2
Mn1 N1 1_555 1_555
N1 C5 1_555 1_555
N2 C6 1_555 1_555
O1 Mn1 1_555 1_555
O2 C1 1_555 1_555
O3 Mn1 1_555 1_555
H1 O3 1_555 1_555
H2 O3 1_555 1_555
C1 O1 1_555 1_555
C2 C1 1_555 1_555
C3 C2 1_555 1_555
H3 C3 1_555 1_555
C4 C3 1_555 1_555
H4 C4 1_555 1_555
C5 H5 1_555 1_555
C6 C5 1_555 1_555
H6 C6 1_555 1_555
C6E N2 1_555 1_555
C5E N1 1_555 1_555
H5E C5E 1_555 1_555
H6E C6E 1_555 1_555
C2E C2 1_555 1_555
C1E C2E 1_555 1_555
O1E C1E 1_555 1_555
O2E C1E 1_555 1_555
C3E C2E 1_555 1_555
H3E C3E 1_555 1_555
C4E C4 1_555 1_555
H4E C4E 1_555 1_555
O3E Mn1 1_555 1_555
H1E O3E 1_555 1_555
H2E O3E 1_555 1_555
N2B Mn1 1_555 1_555
O1E_2 Mn1 1_555 1_555
Mn1B N2 1_555 1_555
Mn1_2 O1E 1_555 1_555
C6E C5E 1_555 1_555
C3E C4E 1_555 1_555

#END
