
#######################################################################
#
#                 Cambridge Crystallographic Data Centre
#                                CCDC 
#
#######################################################################
#
# If this CIF has been generated from an entry in the Cambridge 
# Structural Database, then it will include bibliographic, chemical, 
# crystal, experimental, refinement or atomic coordinate data resulting 
# from the CCDC's data processing and validation procedures.
#
#######################################################################

data_ABIGEZ01
_symmetry_cell_setting           monoclinic
_symmetry_space_group_name_H-M   'P 21/c'
_symmetry_Int_Tables_number      14
_space_group_name_Hall           '-P 2ybc'
loop_
_symmetry_equiv_pos_site_id
_symmetry_equiv_pos_as_xyz
1 x,y,z
2 -x,1/2+y,1/2-z
3 -x,-y,-z
4 x,1/2-y,1/2+z
_cell_length_a                   3.6896(4)
_cell_length_b                   14.6443(15)
_cell_length_c                   12.9107(13)
_cell_angle_alpha                90
_cell_angle_beta                 92.9027(16)
_cell_angle_gamma                90
_cell_volume                     696.691
loop_
_atom_site_label
_atom_site_type_symbol
_atom_site_fract_x
_atom_site_fract_y
_atom_site_fract_z
Co1 Co 0.5000 0.5000 0.5000
S1 S 0.05925(13) 0.55941(3) 0.38777(4)
N1 N 0.4478(4) 0.38774(11) 0.41294(12)
C1 C -0.0381(6) 0.49157(14) 0.18860(18)
H1 H -0.1572 0.5457 0.1706
C2 C 0.1089(5) 0.48009(14) 0.28889(15)
C3 C 0.3048(5) 0.32586(14) 0.24013(15)
C4 C 0.2911(5) 0.39683(13) 0.31378(14)
C5 C 0.1541(6) 0.34128(15) 0.13843(16)
H2 H 0.1668 0.2959 0.0883
C6 C 0.5871(5) 0.30694(13) 0.43974(16)
H3 H 0.6840 0.2995 0.5071
C7 C -0.0094(6) 0.42262(16) 0.11407(16)
H4 H -0.1036 0.4325 0.0468
C8 C 0.4640(6) 0.24192(14) 0.27153(18)
H5 H 0.4789 0.1940 0.2247
C9 C 0.5959(5) 0.23231(14) 0.37192(17)
H6 H 0.6907 0.1767 0.3950
Co1_2 Co -0.5000 0.5000 0.5000
Co1_3 Co 1.5000 0.5000 0.5000
S1_2 S 1.05925(13) 0.55941(3) 0.38777(4)
S1B S -0.05925(13) 0.44059(3) 0.61223(4)
S1B_2 S 0.94075(13) 0.44059(3) 0.61223(4)
N1B N 0.5522(4) 0.61226(11) 0.58706(12)
C1B C 1.0381(6) 0.50843(14) 0.81140(18)
H1B H 1.1572 0.4543 0.8294
C2B C 0.8911(5) 0.51991(14) 0.71111(15)
C3B C 0.6952(5) 0.67414(14) 0.75987(15)
C4B C 0.7089(5) 0.60317(13) 0.68622(14)
C5B C 0.8459(6) 0.65872(15) 0.86157(16)
H2B H 0.8332 0.7041 0.9117
C6B C 0.4129(5) 0.69306(13) 0.56026(16)
H3B H 0.3160 0.7005 0.4929
C7B C 1.0094(6) 0.57738(16) 0.88593(16)
H4B H 1.1036 0.5675 0.9532
C8B C 0.5360(6) 0.75808(14) 0.72847(18)
H5B H 0.5211 0.8060 0.7753
C9B C 0.4041(5) 0.76769(14) 0.62808(17)
H6B H 0.3093 0.8233 0.6050
loop_
_geom_bond_atom_site_label_1
_geom_bond_atom_site_label_2
_geom_bond_site_symmetry_1
_geom_bond_site_symmetry_2
Co1 S1 1_555 1_555
S1 C2 1_555 1_555
N1 Co1 1_555 1_555
C1 H1 1_555 1_555
C2 C1 1_555 1_555
C3 C4 1_555 1_555
C4 N1 1_555 1_555
C5 C3 1_555 1_555
H2 C5 1_555 1_555
C6 N1 1_555 1_555
H3 C6 1_555 1_555
C7 C1 1_555 1_555
H4 C7 1_555 1_555
C8 C3 1_555 1_555
H5 C8 1_555 1_555
C9 C6 1_555 1_555
H6 C9 1_555 1_555
Co1_2 S1 1_555 1_555
Co1_3 S1_2 1_555 1_555
S1_2 Co1 1_555 1_555
S1B Co1 1_555 1_555
S1B_2 Co1 1_555 1_555
N1B Co1 1_555 1_555
C1B H1B 1_555 1_555
C2B S1B_2 1_555 1_555
C3B C4B 1_555 1_555
C4B N1B 1_555 1_555
C5B C3B 1_555 1_555
H2B C5B 1_555 1_555
C6B N1B 1_555 1_555
H3B C6B 1_555 1_555
C7B C1B 1_555 1_555
H4B C7B 1_555 1_555
C8B C3B 1_555 1_555
H5B C8B 1_555 1_555
C9B C6B 1_555 1_555
H6B C9B 1_555 1_555
C2 C4 1_555 1_555
C5 C7 1_555 1_555
C8 C9 1_555 1_555
Co1_2 S1B 1_555 1_555
Co1_3 S1B_2 1_555 1_555
C1B C2B 1_555 1_555
C2B C4B 1_555 1_555
C5B C7B 1_555 1_555
C8B C9B 1_555 1_555

#END
