
#######################################################################
#
#                 Cambridge Crystallographic Data Centre
#                                CCDC 
#
#######################################################################
#
# If this CIF has been generated from an entry in the Cambridge 
# Structural Database, then it will include bibliographic, chemical, 
# crystal, experimental, refinement or atomic coordinate data resulting 
# from the CCDC's data processing and validation procedures.
#
#######################################################################

data_ABIKAZ
_symmetry_cell_setting           triclinic
_symmetry_space_group_name_H-M   'P -1'
_symmetry_Int_Tables_number      2
_space_group_name_Hall           '-P 1'
loop_
_symmetry_equiv_pos_site_id
_symmetry_equiv_pos_as_xyz
1 x,y,z
2 -x,-y,-z
_cell_length_a                   10.7993(9)
_cell_length_b                   14.0068(11)
_cell_length_c                   24.4363(19)
_cell_angle_alpha                90.00
_cell_angle_beta                 90.00
_cell_angle_gamma                94.227(4)
_cell_volume                     3686.27
loop_
_atom_site_label
_atom_site_type_symbol
_atom_site_fract_x
_atom_site_fract_y
_atom_site_fract_z
Mo1 Mo 1.05676(6) -0.04118(5) 0.25305(3)
C1 C 1.2451(9) 0.0113(6) 0.2325(4)
N1 N 1.3451(7) 0.0391(6) 0.2221(4)
C2 C 0.9540(9) -0.0155(7) 0.3275(4)
N2 N 0.9017(9) 0.0000(7) 0.3667(4)
C3 C 1.0717(8) 0.1136(6) 0.2602(4)
N3 N 1.0749(8) 0.1941(6) 0.2627(4)
C4 C 1.1677(9) -0.0704(8) 0.3259(4)
N4 N 1.2262(8) -0.0848(7) 0.3629(4)
C5 C 1.1571(9) -0.1621(7) 0.2275(5)
N5 N 1.2103(9) -0.2273(7) 0.2154(5)
C6 C 1.0565(8) -0.0224(7) 0.1635(4)
N6 N 1.0598(8) -0.0126(7) 0.1191(4)
C7 C 0.9373(9) -0.1693(7) 0.2597(5)
N7 N 0.8724(9) -0.2395(7) 0.2651(5)
C8 C 0.8728(8) -0.0004(7) 0.2305(4)
N8 N 0.7731(7) 0.0199(6) 0.2199(4)
Mn1 Mn 1.56031(12) 0.03977(10) 0.21504(6)
O1 O 1.5755(6) 0.1747(5) 0.2140(3)
O2 O 1.5611(6) 0.0298(4) 0.1391(3)
N9 N 1.5607(7) 0.0417(5) 0.2940(4)
N10 N 1.5392(7) -0.1019(5) 0.2259(3)
C9 C 1.5306(8) 0.2305(6) 0.2515(4)
C10 C 1.5150(9) 0.3259(7) 0.2340(4)
H1 H 1.5330 0.3451 0.1974
C11 C 1.4724(9) 0.3908(7) 0.2720(4)
H2 H 1.4601 0.4546 0.2612
C12 C 1.4483(9) 0.3621(7) 0.3253(4)
C13 C 1.4643(9) 0.2714(7) 0.3428(5)
H3 H 1.4480 0.2537 0.3798
C14 C 1.5057(9) 0.2038(7) 0.3048(4)
C15 C 1.5260(9) 0.1083(7) 0.3260(4)
H4 H 1.5136 0.0951 0.3638
C16 C 1.5860(9) -0.0538(7) 0.3194(4)
H5 H 1.6759 -0.0631 0.3131
C17 C 1.5625(10) -0.0686(7) 0.3780(5)
H6 H 1.4762 -0.0544 0.3866
H7 H 1.6193 -0.0243 0.3995
C18 C 1.5826(11) -0.1734(7) 0.3941(5)
H8 H 1.6716 -0.1844 0.3900
H9 H 1.5602 -0.1834 0.4331
C19 C 1.5057(12) -0.2459(8) 0.3593(5)
H10 H 1.4162 -0.2397 0.3660
H11 H 1.5249 -0.3115 0.3696
C20 C 1.5346(10) -0.2288(7) 0.2989(4)
H12 H 1.6227 -0.2396 0.2918
H13 H 1.4825 -0.2749 0.2765
C21 C 1.5101(10) -0.1281(7) 0.2826(5)
H14 H 1.4200 -0.1200 0.2887
C22 C 1.5447(9) -0.1645(7) 0.1868(4)
H15 H 1.5354 -0.2302 0.1967
C23 C 1.5639(8) -0.1417(6) 0.1298(4)
C24 C 1.5720(9) -0.2225(7) 0.0935(4)
H16 H 1.5697 -0.2857 0.1077
C25 C 1.5826(8) -0.2070(7) 0.0398(4)
C26 C 1.5945(9) -0.1115(7) 0.0168(4)
H17 H 1.6059 -0.1012 -0.0214
C27 C 1.5885(9) -0.0358(7) 0.0528(4)
H18 H 1.5963 0.0275 0.0387
C28 C 1.5716(7) -0.0484(6) 0.1090(4)
Br1 Br 1.39816(10) 0.45756(7) 0.37525(5)
Br2 Br 1.59254(10) -0.30981(7) -0.01008(5)
N8_2 N 1.7731(7) 0.0199(6) 0.2199(4)
Mn1_2 Mn 0.56031(12) 0.03977(10) 0.21504(6)
Cd1 Cd 0.0000 0.5000 0.5000
N11 N -0.1224(7) 0.3678(6) 0.4636(4)
N12 N -0.0914(7) 0.3369(5) 0.4129(4)
N13 N 0.0112(8) 0.5353(6) 0.4076(4)
N14 N 0.0408(7) 0.4625(5) 0.3732(3)
N15 N 0.1578(8) 0.4053(7) 0.4725(4)
N16 N 0.1265(7) 0.3433(5) 0.4294(3)
C29 C -0.2987(12) 0.3402(9) 0.5285(6)
H19 H -0.3017 0.2801 0.5492
H20 H -0.3833 0.3586 0.5222
H21 H -0.2521 0.3906 0.5495
C30 C -0.2349(9) 0.3269(7) 0.4739(5)
C31 C -0.2759(10) 0.2666(8) 0.4309(5)
H22 H -0.3512 0.2272 0.4289
C32 C -0.1819(9) 0.2768(7) 0.3914(5)
C33 C -0.1747(9) 0.2321(9) 0.3354(5)
H23 H -0.1838 0.2811 0.3073
H24 H -0.2415 0.1813 0.3314
H25 H -0.0943 0.2049 0.3311
C34 C 0.0069(13) 0.7133(7) 0.4012(5)
H26 H -0.0677 0.7360 0.3842
H27 H 0.0781 0.7588 0.3936
H28 H -0.0056 0.7079 0.4408
C35 C 0.0312(10) 0.6164(7) 0.3780(5)
C36 C 0.0690(11) 0.5935(8) 0.3248(5)
H29 H 0.0867 0.6375 0.2957
C37 C 0.0758(10) 0.4956(7) 0.3223(4)
C38 C 0.1088(15) 0.4310(9) 0.2746(5)
H30 H 0.1917 0.4087 0.2805
H31 H 0.1081 0.4672 0.2403
H32 H 0.0478 0.3757 0.2724
C39 C 0.3023(12) 0.4107(9) 0.5503(6)
H33 H 0.2482 0.4585 0.5642
H34 H 0.3833 0.4423 0.5405
H35 H 0.3133 0.3626 0.5787
C40 C 0.2446(9) 0.3632(7) 0.5010(4)
C41 C 0.2701(9) 0.2767(7) 0.4769(4)
H36 H 0.3282 0.2338 0.4892
C42 C 0.1948(8) 0.2657(6) 0.4319(4)
C43 C 0.1781(10) 0.1858(7) 0.3914(5)
H37 H 0.0893 0.1674 0.3869
H38 H 0.2203 0.1307 0.4046
H39 H 0.2135 0.2069 0.3561
C44 C 0.0297(8) 0.3619(6) 0.3920(4)
H40 H 0.0405 0.3209 0.3590
N11A N 0.1224(7) 0.6322(6) 0.5364(4)
N12A N 0.0914(7) 0.6631(5) 0.5871(4)
N13A N -0.0112(8) 0.4647(6) 0.5924(4)
N14A N -0.0408(7) 0.5375(5) 0.6268(3)
N15A N -0.1578(8) 0.5947(7) 0.5275(4)
N16A N -0.1265(7) 0.6567(5) 0.5706(3)
C29A C 0.2987(12) 0.6598(9) 0.4715(6)
H19A H 0.3017 0.7199 0.4508
H20A H 0.3833 0.6414 0.4778
H21A H 0.2521 0.6094 0.4505
C30A C 0.2349(9) 0.6731(7) 0.5261(5)
C31A C 0.2759(10) 0.7334(8) 0.5691(5)
H22A H 0.3512 0.7728 0.5711
C32A C 0.1819(9) 0.7232(7) 0.6086(5)
C33A C 0.1747(9) 0.7679(9) 0.6646(5)
H23A H 0.1838 0.7189 0.6927
H24A H 0.2415 0.8187 0.6686
H25A H 0.0943 0.7951 0.6689
C34A C -0.0069(13) 0.2867(7) 0.5988(5)
H26A H 0.0677 0.2640 0.6158
H27A H -0.0781 0.2412 0.6064
H28A H 0.0056 0.2921 0.5592
C35A C -0.0312(10) 0.3836(7) 0.6220(5)
C36A C -0.0690(11) 0.4065(8) 0.6752(5)
H29A H -0.0867 0.3625 0.7043
C37A C -0.0758(10) 0.5044(7) 0.6777(4)
C38A C -0.1088(15) 0.5690(9) 0.7254(5)
H30A H -0.1917 0.5913 0.7195
H31A H -0.1081 0.5328 0.7597
H32A H -0.0478 0.6243 0.7276
C39A C -0.3023(12) 0.5893(9) 0.4497(6)
H33A H -0.2482 0.5415 0.4358
H34A H -0.3833 0.5577 0.4595
H35A H -0.3133 0.6374 0.4213
C40A C -0.2446(9) 0.6368(7) 0.4990(4)
C41A C -0.2701(9) 0.7233(7) 0.5231(4)
H36A H -0.3282 0.7662 0.5108
C42A C -0.1948(8) 0.7343(6) 0.5681(4)
C43A C -0.1781(10) 0.8142(7) 0.6086(5)
H37A H -0.0893 0.8326 0.6131
H38A H -0.2203 0.8693 0.5954
H39A H -0.2135 0.7931 0.6439
C44A C -0.0297(8) 0.6381(6) 0.6080(4)
H40A H -0.0405 0.6791 0.6410
Cd2 Cd 1.0000 0.5000 0.0000
N17 N 0.8579(7) 0.5567(5) -0.0630(4)
N18 N 0.8707(7) 0.6505(6) -0.0774(3)
N19 N 1.1304(8) 0.6030(5) -0.0516(4)
N20 N 1.0886(7) 0.6913(5) -0.0651(4)
N21 N 0.9594(8) 0.6416(6) 0.0423(4)
N22 N 0.9475(7) 0.7199(6) 0.0063(3)
C45 C 0.9648(8) 0.7135(6) -0.0517(4)
H41 H 0.9547 0.7789 -0.0666
C46 C 0.8946(9) 0.8907(7) 0.0086(5)
H42 H 0.8681 0.9363 0.0358
H43 H 0.8305 0.8809 -0.0197
H44 H 0.9725 0.9162 -0.0083
C47 C 0.9140(8) 0.7980(7) 0.0356(5)
C48 C 0.9060(9) 0.7683(6) 0.0902(4)
H45 H 0.8846 0.8068 0.1202
C49 C 0.9352(9) 0.6707(7) 0.0933(4)
C50 C 0.9444(13) 0.6088(8) 0.1402(5)
H46 H 0.9893 0.5532 0.1299
H47 H 0.8609 0.5871 0.1528
H48 H 0.9893 0.6440 0.1696
C51 C 0.7206(11) 0.4139(7) -0.0864(5)
H49 H 0.7658 0.3864 -0.0561
H50 H 0.6314 0.4081 -0.0785
H51 H 0.7366 0.3795 -0.1203
C52 C 0.7638(9) 0.5179(7) -0.0930(4)
C53 C 0.7191(10) 0.5872(8) -0.1285(4)
H52 H 0.6537 0.5772 -0.1543
C54 C 0.7887(9) 0.6723(6) -0.1186(4)
C55 C 0.7792(12) 0.7700(8) -0.1401(5)
H53 H 0.7795 0.8154 -0.1096
H54 H 0.8500 0.7871 -0.1642
H55 H 0.7018 0.7724 -0.1608
C56 C 1.1574(11) 0.8485(7) -0.1070(5)
H56 H 1.1149 0.8808 -0.0777
H57 H 1.2372 0.8838 -0.1148
H58 H 1.1058 0.8462 -0.1401
C57 C 1.1793(10) 0.7484(8) -0.0895(5)
C58 C 1.2819(10) 0.6975(7) -0.0946(4)
H59 H 1.3593 0.7181 -0.1108
C59 C 1.2474(10) 0.6069(8) -0.0703(5)
C60 C 1.3230(10) 0.5227(7) -0.0637(5)
H60 H 1.2678 0.4641 -0.0615
H61 H 1.3788 0.5187 -0.0951
H62 H 1.3722 0.5299 -0.0300
N17A N 1.1421(7) 0.4433(5) 0.0630(4)
N18A N 1.1293(7) 0.3495(6) 0.0774(3)
N19A N 0.8696(8) 0.3970(5) 0.0516(4)
N20A N 0.9114(7) 0.3087(5) 0.0651(4)
N21A N 1.0406(8) 0.3584(6) -0.0423(4)
N22A N 1.0525(7) 0.2801(6) -0.0063(3)
C45A C 1.0352(8) 0.2865(6) 0.0517(4)
H41A H 1.0453 0.2211 0.0666
C46A C 1.1054(9) 0.1093(7) -0.0086(5)
H42A H 1.1319 0.0637 -0.0358
H43A H 1.1695 0.1191 0.0197
H44A H 1.0275 0.0838 0.0083
C47A C 1.0860(8) 0.2020(7) -0.0356(5)
C48A C 1.0940(9) 0.2317(6) -0.0902(4)
H45A H 1.1154 0.1932 -0.1202
C49A C 1.0648(9) 0.3293(7) -0.0933(4)
C50A C 1.0556(13) 0.3912(8) -0.1402(5)
H46A H 1.0107 0.4468 -0.1299
H47A H 1.1391 0.4129 -0.1528
H48A H 1.0107 0.3560 -0.1696
C51A C 1.2794(11) 0.5861(7) 0.0864(5)
H49A H 1.2342 0.6136 0.0561
H50A H 1.3686 0.5919 0.0785
H51A H 1.2634 0.6205 0.1203
C52A C 1.2362(9) 0.4821(7) 0.0930(4)
C53A C 1.2809(10) 0.4128(8) 0.1285(4)
H52A H 1.3463 0.4228 0.1543
C54A C 1.2113(9) 0.3277(6) 0.1186(4)
C55A C 1.2208(12) 0.2300(8) 0.1401(5)
H53A H 1.2205 0.1846 0.1096
H54A H 1.1500 0.2129 0.1642
H55A H 1.2982 0.2276 0.1608
C56A C 0.8426(11) 0.1515(7) 0.1070(5)
H56A H 0.8851 0.1192 0.0777
H57A H 0.7628 0.1162 0.1148
H58A H 0.8942 0.1538 0.1401
C57A C 0.8207(10) 0.2516(8) 0.0895(5)
C58A C 0.7181(10) 0.3025(7) 0.0946(4)
H59A H 0.6407 0.2819 0.1108
C59A C 0.7526(10) 0.3931(8) 0.0703(5)
C60A C 0.6770(10) 0.4773(7) 0.0637(5)
H60A H 0.7322 0.5359 0.0615
H61A H 0.6212 0.4813 0.0951
H62A H 0.6278 0.4701 0.0300
C61 C 0.9060(16) 0.0098(12) 0.4828(7)
O3 O 0.9062(14) 0.1016(11) 0.4681(7)
O4 O 0.2047(9) 0.9152(6) 0.0297(4)
H63 H 0.1719 0.9475 0.0540
C62 C 0.2497(11) 0.8322(8) 0.0536(6)
H64 H 0.3122 0.8512 0.0814
H65 H 0.2872 0.7943 0.0252
H66 H 0.1807 0.7938 0.0708
O5 O 0.3234(9) 0.6022(6) 0.2338(4)
O6 O 0.5493(10) 0.5806(7) 0.1777(5)
O7 O 0.7317(12) -0.4214(8) 0.2579(6)
O8 O 0.3142(8) 0.9493(8) 0.4739(4)
O9 O 0.4838(8) 0.1148(5) 0.4660(3)
O10? O 0.977(2) 0.0956(17) 0.4969(10)
loop_
_geom_bond_atom_site_label_1
_geom_bond_atom_site_label_2
_geom_bond_site_symmetry_1
_geom_bond_site_symmetry_2
Mo1 C1 1_555 1_555
C1 N1 1_555 1_555
N1 Mn1 1_555 1_555
C2 Mo1 1_555 1_555
N2 C2 1_555 1_555
C3 Mo1 1_555 1_555
N3 C3 1_555 1_555
C4 Mo1 1_555 1_555
N4 C4 1_555 1_555
C5 Mo1 1_555 1_555
N5 C5 1_555 1_555
C6 Mo1 1_555 1_555
N6 C6 1_555 1_555
C7 Mo1 1_555 1_555
N7 C7 1_555 1_555
C8 Mo1 1_555 1_555
N8 C8 1_555 1_555
Mn1 O1 1_555 1_555
O1 C9 1_555 1_555
O2 Mn1 1_555 1_555
N9 Mn1 1_555 1_555
N10 Mn1 1_555 1_555
C9 C10 1_555 1_555
C10 H1 1_555 1_555
C11 C10 1_555 1_555
H2 C11 1_555 1_555
C12 C11 1_555 1_555
C13 C12 1_555 1_555
H3 C13 1_555 1_555
C14 C9 1_555 1_555
C15 N9 1_555 1_555
H4 C15 1_555 1_555
C16 N9 1_555 1_555
H5 C16 1_555 1_555
C17 C16 1_555 1_555
H6 C17 1_555 1_555
H7 C17 1_555 1_555
C18 C17 1_555 1_555
H8 C18 1_555 1_555
H9 C18 1_555 1_555
C19 C18 1_555 1_555
H10 C19 1_555 1_555
H11 C19 1_555 1_555
C20 C19 1_555 1_555
H12 C20 1_555 1_555
H13 C20 1_555 1_555
C21 N10 1_555 1_555
H14 C21 1_555 1_555
C22 N10 1_555 1_555
H15 C22 1_555 1_555
C23 C22 1_555 1_555
C24 C23 1_555 1_555
H16 C24 1_555 1_555
C25 C24 1_555 1_555
C26 C25 1_555 1_555
H17 C26 1_555 1_555
C27 C26 1_555 1_555
H18 C27 1_555 1_555
C28 O2 1_555 1_555
Br1 C12 1_555 1_555
Br2 C25 1_555 1_555
Cd1 N11 1_555 1_555
N11 N12 1_555 1_555
N12 C32 1_555 1_555
N13 Cd1 1_555 1_555
N14 N13 1_555 1_555
N15 Cd1 1_555 1_555
N16 N15 1_555 1_555
C29 H19 1_555 1_555
H20 C29 1_555 1_555
H21 C29 1_555 1_555
C30 N11 1_555 1_555
C31 C30 1_555 1_555
H22 C31 1_555 1_555
C32 C31 1_555 1_555
C33 C32 1_555 1_555
H23 C33 1_555 1_555
H24 C33 1_555 1_555
H25 C33 1_555 1_555
C34 H26 1_555 1_555
H27 C34 1_555 1_555
H28 C34 1_555 1_555
C35 N13 1_555 1_555
C36 C35 1_555 1_555
H29 C36 1_555 1_555
C37 N14 1_555 1_555
C38 C37 1_555 1_555
H30 C38 1_555 1_555
H31 C38 1_555 1_555
H32 C38 1_555 1_555
C39 H33 1_555 1_555
H34 C39 1_555 1_555
H35 C39 1_555 1_555
C40 N15 1_555 1_555
C41 C40 1_555 1_555
H36 C41 1_555 1_555
C42 N16 1_555 1_555
C43 C42 1_555 1_555
H37 C43 1_555 1_555
H38 C43 1_555 1_555
H39 C43 1_555 1_555
C44 N12 1_555 1_555
H40 C44 1_555 1_555
Cd2 N17 1_555 1_555
N17 N18 1_555 1_555
N18 C45 1_555 1_555
N19 Cd2 1_555 1_555
N20 N19 1_555 1_555
N21 Cd2 1_555 1_555
N22 N21 1_555 1_555
C45 N20 1_555 1_555
H41 C45 1_555 1_555
C46 H42 1_555 1_555
H43 C46 1_555 1_555
H44 C46 1_555 1_555
C47 N22 1_555 1_555
C48 C47 1_555 1_555
H45 C48 1_555 1_555
C49 N21 1_555 1_555
C50 C49 1_555 1_555
H46 C50 1_555 1_555
H47 C50 1_555 1_555
H48 C50 1_555 1_555
C51 H49 1_555 1_555
H50 C51 1_555 1_555
H51 C51 1_555 1_555
C52 N17 1_555 1_555
C53 C52 1_555 1_555
H52 C53 1_555 1_555
C54 N18 1_555 1_555
C55 C54 1_555 1_555
H53 C55 1_555 1_555
H54 C55 1_555 1_555
H55 C55 1_555 1_555
C56 H56 1_555 1_555
H57 C56 1_555 1_555
H58 C56 1_555 1_555
C57 N20 1_555 1_555
C58 C57 1_555 1_555
H59 C58 1_555 1_555
C59 N19 1_555 1_555
C60 C59 1_555 1_555
H60 C60 1_555 1_555
H61 C60 1_555 1_555
H62 C60 1_555 1_555
C61 O3 1_555 1_555
O4 H63 1_555 1_555
C62 O4 1_555 1_555
H64 C62 1_555 1_555
H65 C62 1_555 1_555
H66 C62 1_555 1_555
N8_2 Mn1 1_555 1_555
Mn1_2 N8 1_555 1_555
N11A Cd1 1_555 1_555
N12A N11A 1_555 1_555
N13A Cd1 1_555 1_555
N14A N13A 1_555 1_555
N15A Cd1 1_555 1_555
N16A N15A 1_555 1_555
C29A H19A 1_555 1_555
H20A C29A 1_555 1_555
H21A C29A 1_555 1_555
C30A N11A 1_555 1_555
C31A C30A 1_555 1_555
H22A C31A 1_555 1_555
C32A N12A 1_555 1_555
C33A C32A 1_555 1_555
H23A C33A 1_555 1_555
H24A C33A 1_555 1_555
H25A C33A 1_555 1_555
C34A H26A 1_555 1_555
H27A C34A 1_555 1_555
H28A C34A 1_555 1_555
C35A N13A 1_555 1_555
C36A C35A 1_555 1_555
H29A C36A 1_555 1_555
C37A N14A 1_555 1_555
C38A C37A 1_555 1_555
H30A C38A 1_555 1_555
H31A C38A 1_555 1_555
H32A C38A 1_555 1_555
C39A H33A 1_555 1_555
H34A C39A 1_555 1_555
H35A C39A 1_555 1_555
C40A N15A 1_555 1_555
C41A C40A 1_555 1_555
H36A C41A 1_555 1_555
C42A N16A 1_555 1_555
C43A C42A 1_555 1_555
H37A C43A 1_555 1_555
H38A C43A 1_555 1_555
H39A C43A 1_555 1_555
C44A N12A 1_555 1_555
H40A C44A 1_555 1_555
N17A Cd2 1_555 1_555
N18A N17A 1_555 1_555
N19A Cd2 1_555 1_555
N20A N19A 1_555 1_555
N21A Cd2 1_555 1_555
N22A N21A 1_555 1_555
C45A N18A 1_555 1_555
H41A C45A 1_555 1_555
C46A H42A 1_555 1_555
H43A C46A 1_555 1_555
H44A C46A 1_555 1_555
C47A N22A 1_555 1_555
C48A C47A 1_555 1_555
H45A C48A 1_555 1_555
C49A N21A 1_555 1_555
C50A C49A 1_555 1_555
H46A C50A 1_555 1_555
H47A C50A 1_555 1_555
H48A C50A 1_555 1_555
C51A H49A 1_555 1_555
H50A C51A 1_555 1_555
H51A C51A 1_555 1_555
C52A N17A 1_555 1_555
C53A C52A 1_555 1_555
H52A C53A 1_555 1_555
C54A N18A 1_555 1_555
C55A C54A 1_555 1_555
H53A C55A 1_555 1_555
H54A C55A 1_555 1_555
H55A C55A 1_555 1_555
C56A H56A 1_555 1_555
H57A C56A 1_555 1_555
H58A C56A 1_555 1_555
C57A N20A 1_555 1_555
C58A C57A 1_555 1_555
H59A C58A 1_555 1_555
C59A N19A 1_555 1_555
C60A C59A 1_555 1_555
H60A C60A 1_555 1_555
H61A C60A 1_555 1_555
H62A C60A 1_555 1_555
C13 C14 1_555 1_555
C14 C15 1_555 1_555
C16 C21 1_555 1_555
C20 C21 1_555 1_555
C23 C28 1_555 1_555
C27 C28 1_555 1_555
N14 C44 1_555 1_555
N16 C44 1_555 1_555
C29 C30 1_555 1_555
C34 C35 1_555 1_555
C36 C37 1_555 1_555
C39 C40 1_555 1_555
C41 C42 1_555 1_555
N22 C45 1_555 1_555
C46 C47 1_555 1_555
C48 C49 1_555 1_555
C51 C52 1_555 1_555
C53 C54 1_555 1_555
C56 C57 1_555 1_555
C58 C59 1_555 1_555
N14A C44A 1_555 1_555
N16A C44A 1_555 1_555
C29A C30A 1_555 1_555
C31A C32A 1_555 1_555
C34A C35A 1_555 1_555
C36A C37A 1_555 1_555
C39A C40A 1_555 1_555
C41A C42A 1_555 1_555
N20A C45A 1_555 1_555
N22A C45A 1_555 1_555
C46A C47A 1_555 1_555
C48A C49A 1_555 1_555
C51A C52A 1_555 1_555
C53A C54A 1_555 1_555
C56A C57A 1_555 1_555
C58A C59A 1_555 1_555

#END
