
#######################################################################
#
#                 Cambridge Crystallographic Data Centre
#                                CCDC 
#
#######################################################################
#
# If this CIF has been generated from an entry in the Cambridge 
# Structural Database, then it will include bibliographic, chemical, 
# crystal, experimental, refinement or atomic coordinate data resulting 
# from the CCDC's data processing and validation procedures.
#
#######################################################################

data_ABIRAF
_symmetry_cell_setting           monoclinic
_symmetry_space_group_name_H-M   'P 21/c'
_symmetry_Int_Tables_number      14
_space_group_name_Hall           '-P 2ybc'
loop_
_symmetry_equiv_pos_site_id
_symmetry_equiv_pos_as_xyz
1 x,y,z
2 x,1/2-y,1/2+z
3 -x,-y,-z
4 -x,1/2+y,1/2-z
_cell_length_a                   8.4778(5)
_cell_length_b                   7.6947(3)
_cell_length_c                   16.6640(12)
_cell_angle_alpha                90
_cell_angle_beta                 96.803(2)
_cell_angle_gamma                90
_cell_volume                     1079.41
loop_
_atom_site_label
_atom_site_type_symbol
_atom_site_fract_x
_atom_site_fract_y
_atom_site_fract_z
Ag1 Ag 0.24477(3) 0.42911(3) 0.261090(15)
N1 N -0.3670(4) 0.2078(4) 0.21123(18)
H1 H -0.456(5) 0.191(5) 0.192(2)
H2 H -0.354(5) 0.250(5) 0.255(2)
N2 N -0.3040(4) 0.8118(3) 0.11721(16)
H3 H -0.4119 0.8226 0.1035
H4 H -0.2560 0.8783 0.0812
N3 N 0.1434(4) 0.4059(4) 0.13222(17)
H5 H 0.170(5) 0.310(5) 0.119(2)
H6 H 0.189(5) 0.488(5) 0.106(2)
C1 C -0.2942(4) 0.3204(4) 0.15365(19)
H7 H -0.333(4) 0.279(4) 0.099(2)
C2 C -0.3451(4) 0.5106(4) 0.15871(19)
H8 H -0.4613 0.5190 0.1436
H9 H -0.3211 0.5512 0.2152
C3 C -0.2621(4) 0.6284(4) 0.10383(19)
H10 H -0.2981 0.5972 0.0463
C4 C -0.0823(4) 0.6087(4) 0.11913(19)
H11 H -0.0443 0.6527 0.1738
H12 H -0.0325 0.6797 0.0794
C5 C -0.0315(4) 0.4196(4) 0.11237(19)
H13 H -0.056(4) 0.385(4) 0.058(2)
C6 C -0.1146(4) 0.3060(4) 0.16860(18)
H14 H -0.0787 0.3396 0.2252
H15 H -0.0835 0.1834 0.1615
Ag1C Ag -0.24477(3) 0.92911(3) 0.238910(15)
Ag1C_2 Ag -0.24477(3) -0.07089(3) 0.238910(15)
N1C N 0.3670(4) 0.7078(4) 0.28877(18)
N2C N 0.3040(4) 0.3118(3) 0.38279(16)
H1C H 0.456(5) 0.691(5) 0.308(2)
H2C H 0.354(5) 0.750(5) 0.245(2)
H3C H 0.4119 0.3226 0.3965
H4C H 0.2560 0.3783 0.4188
Cl1 Cl -0.25333(11) -0.56160(10) 0.42293(4)
O1 O -0.1664(3) -0.5715(3) 0.50181(13)
O2 O -0.3724(4) -0.4283(3) 0.42183(16)
O3 O -0.1479(4) -0.5218(3) 0.36404(15)
O4 O -0.3290(3) -0.7273(3) 0.40339(16)
loop_
_geom_bond_atom_site_label_1
_geom_bond_atom_site_label_2
_geom_bond_site_symmetry_1
_geom_bond_site_symmetry_2
Ag1 N3 1_555 1_555
N1 H1 1_555 1_555
H2 N1 1_555 1_555
N2 H3 1_555 1_555
H4 N2 1_555 1_555
N3 H5 1_555 1_555
H6 N3 1_555 1_555
C1 N1 1_555 1_555
H7 C1 1_555 1_555
C2 C1 1_555 1_555
H8 C2 1_555 1_555
H9 C2 1_555 1_555
C3 N2 1_555 1_555
H10 C3 1_555 1_555
C4 C3 1_555 1_555
H11 C4 1_555 1_555
H12 C4 1_555 1_555
C5 N3 1_555 1_555
H13 C5 1_555 1_555
C6 C1 1_555 1_555
H14 C6 1_555 1_555
H15 C6 1_555 1_555
Cl1 O1 1_555 1_555
O2 Cl1 1_555 1_555
O3 Cl1 1_555 1_555
O4 Cl1 1_555 1_555
Ag1C N2 1_555 1_555
Ag1C_2 N1 1_555 1_555
N1C Ag1 1_555 1_555
N2C Ag1 1_555 1_555
H1C N1C 1_555 1_555
H2C N1C 1_555 1_555
H3C N2C 1_555 1_555
H4C N2C 1_555 1_555
C2 C3 1_555 1_555
C4 C5 1_555 1_555
C5 C6 1_555 1_555

#END
