
#######################################################################
#
#                 Cambridge Crystallographic Data Centre
#                                CCDC 
#
#######################################################################
#
# If this CIF has been generated from an entry in the Cambridge 
# Structural Database, then it will include bibliographic, chemical, 
# crystal, experimental, refinement or atomic coordinate data resulting 
# from the CCDC's data processing and validation procedures.
#
#######################################################################

data_ABITUA
_symmetry_cell_setting           triclinic
_symmetry_space_group_name_H-M   'P -1'
_symmetry_Int_Tables_number      2
_space_group_name_Hall           '-P 1'
loop_
_symmetry_equiv_pos_site_id
_symmetry_equiv_pos_as_xyz
1 x,y,z
2 -x,-y,-z
_cell_length_a                   7.4606(15)
_cell_length_b                   9.5722(19)
_cell_length_c                   11.235(2)
_cell_angle_alpha                66.51(3)
_cell_angle_beta                 84.01(3)
_cell_angle_gamma                68.75(3)
_cell_volume                     685.063
loop_
_atom_site_label
_atom_site_type_symbol
_atom_site_fract_x
_atom_site_fract_y
_atom_site_fract_z
Pb1 Pb 0.2438(1) 0.0178(1) 0.1010(1)
C1 C 0.4140(11) -0.1571(10) 0.4146(7)
C2 C 0.4259(14) -0.1918(12) 0.5466(7)
C3 C 0.3149(14) -0.0810(13) 0.5958(8)
C4 C 0.1887(15) 0.0660(13) 0.5116(9)
C5 C 0.1852(14) 0.0947(12) 0.3811(9)
C6 C 0.5341(11) -0.2726(9) 0.3559(7)
C7 C 0.6985(14) -0.4218(12) 0.4340(9)
C8 C 0.5821(10) -0.3220(9) 0.0656(7)
C9 C 0.8261(16) -0.5875(11) 0.1053(11)
C10 C 0.1331(13) -0.3625(11) 0.2110(8)
N1 N 0.2898(10) -0.0142(9) 0.3337(6)
N2 N 0.4963(8) -0.2374(7) 0.2344(6)
N3 N 0.6099(9) -0.3515(8) 0.1882(6)
N4 N 0.6896(11) -0.4355(8) 0.0228(7)
N5 N 0.2291(16) -0.4932(11) 0.2164(9)
S1 S 0.4242(3) -0.1453(2) -0.0527(2)
S2 S -0.0027(3) -0.1788(3) 0.2015(2)
H1 H 0.6790(16) -0.4210(14) -0.0700(12)
H2 H 0.1084 0.1433 0.5423
H3 H 0.1055 0.1953 0.3240
H4 H 0.5104 -0.2914 0.6017
H5 H 0.3234 -0.1032 0.6840
H6 H 0.7607 -0.4825 0.3815
H7 H 0.6501 -0.4883 0.5090
H8 H 0.7896 -0.3895 0.4613
H9 H 0.8880 -0.6519 0.0554
H10 H 0.7605 -0.6451 0.1745
H11 H 0.9209 -0.5673 0.1411
Pb1A Pb 0.7562(1) -0.0178(1) -0.1010(1)
S1A S 0.5758(3) 0.1453(2) 0.0527(2)
S2A S 0.0027(3) 0.1788(3) -0.2015(2)
Pb1A_2 Pb -0.2438(1) -0.0178(1) -0.1010(1)
loop_
_geom_bond_atom_site_label_1
_geom_bond_atom_site_label_2
_geom_bond_site_symmetry_1
_geom_bond_site_symmetry_2
Pb1 N1 1_555 1_555
C1 C2 1_555 1_555
C2 C3 1_555 1_555
C3 C4 1_555 1_555
C4 C5 1_555 1_555
C5 N1 1_555 1_555
C6 C1 1_555 1_555
C7 C6 1_555 1_555
C8 N3 1_555 1_555
C9 N4 1_555 1_555
C10 N5 1_555 1_555
N1 C1 1_555 1_555
N2 Pb1 1_555 1_555
N3 N2 1_555 1_555
N4 C8 1_555 1_555
S1 Pb1 1_555 1_555
S2 Pb1 1_555 1_555
H1 N4 1_555 1_555
H2 C4 1_555 1_555
H3 C5 1_555 1_555
H4 C2 1_555 1_555
H5 C3 1_555 1_555
H6 C7 1_555 1_555
H7 C7 1_555 1_555
H8 C7 1_555 1_555
H9 C9 1_555 1_555
H10 C9 1_555 1_555
H11 C9 1_555 1_555
Pb1A S1 1_555 1_555
S1A Pb1 1_555 1_555
S2A Pb1 1_555 1_555
Pb1A_2 S2 1_555 1_555
C6 N2 1_555 1_555
C8 S1 1_555 1_555
C10 S2 1_555 1_555
Pb1A S1A 1_555 1_555
S2A Pb1A_2 1_555 1_555

#END
