
#######################################################################
#
#                 Cambridge Crystallographic Data Centre
#                                CCDC 
#
#######################################################################
#
# If this CIF has been generated from an entry in the Cambridge 
# Structural Database, then it will include bibliographic, chemical, 
# crystal, experimental, refinement or atomic coordinate data resulting 
# from the CCDC's data processing and validation procedures.
#
#######################################################################

data_ABIVUC
_symmetry_cell_setting           monoclinic
_symmetry_space_group_name_H-M   'P 21/n'
_symmetry_Int_Tables_number      14
_space_group_name_Hall           '-P 2yn'
loop_
_symmetry_equiv_pos_site_id
_symmetry_equiv_pos_as_xyz
1 x,y,z
2 1/2-x,1/2+y,1/2-z
3 -x,-y,-z
4 1/2+x,1/2-y,1/2+z
_cell_length_a                   10.129(2)
_cell_length_b                   9.265(2)
_cell_length_c                   15.696(3)
_cell_angle_alpha                90
_cell_angle_beta                 91.97(3)
_cell_angle_gamma                90
_cell_volume                     1472.12
loop_
_atom_site_label
_atom_site_type_symbol
_atom_site_fract_x
_atom_site_fract_y
_atom_site_fract_z
Fe1 Fe 0.65359(3) 0.15855(4) 0.31279(2)
N1 N 0.5006(2) 0.2801(3) 0.35858(13)
N2 N 0.6611(2) 0.0921(3) 0.43944(13)
C1 C 0.4148(3) 0.3651(3) 0.3163(2)
H1 H 0.4191(3) 0.3711(3) 0.2574(2)
C2 C 0.3193(3) 0.4450(4) 0.3567(2)
H2 H 0.2599(3) 0.5018(4) 0.3250(2)
C3 C 0.3137(3) 0.4390(4) 0.4438(2)
H3 H 0.2515(3) 0.4938(4) 0.4717(2)
C4 C 0.4009(3) 0.3510(3) 0.4905(2)
C5 C 0.4006(3) 0.3362(4) 0.5816(2)
H4 H 0.3413(3) 0.3896(4) 0.6127(2)
C6 C 0.4856(3) 0.2455(4) 0.6224(2)
H5 H 0.4841(3) 0.2380(4) 0.6814(2)
C7 C 0.5784(3) 0.1604(3) 0.5769(2)
C8 C 0.6684(3) 0.0633(4) 0.6161(2)
H6 H 0.6717(3) 0.0530(4) 0.6750(2)
C9 C 0.7514(3) -0.0162(4) 0.5671(2)
H7 H 0.8118(3) -0.0799(4) 0.5925(2)
C10 C 0.7436(3) 0.0003(3) 0.4784(2)
H8 H 0.7985(3) -0.0554(3) 0.4455(2)
C11 C 0.5806(3) 0.1723(3) 0.4878(2)
C12 C 0.4921(3) 0.2707(3) 0.4447(2)
C13 C 0.5935(3) -0.2105(3) 0.1256(2)
C14 C 0.5384(2) -0.0995(3) 0.06345(15)
C15 C 0.5079(2) -0.1448(3) -0.01910(15)
H9 H 0.5125(2) -0.2426(3) -0.03202(15)
C16 C 0.5293(2) 0.0478(3) 0.08297(14)
C17 C 0.5582(2) 0.1009(3) 0.17162(15)
O1 O 0.6170(2) 0.2202(2) 0.18258(11)
O2 O 0.5274(2) 0.0238(2) 0.23433(10)
O3 O 0.5245(2) -0.3182(2) 0.14024(14)
O4 O 0.7112(2) -0.1871(2) 0.15259(11)
O5 O 0.8032(2) 0.0275(2) 0.27526(12)
C16B C 0.4707(2) -0.0478(3) -0.08297(14)
C14B C 0.4616(2) 0.0995(3) -0.06345(15)
C13B C 0.4065(3) 0.2105(3) -0.1256(2)
O3B O 0.4755(2) 0.3182(2) -0.14024(14)
O4B O 0.2888(2) 0.1871(2) -0.15259(11)
C15B C 0.4921(2) 0.1448(3) 0.01910(15)
H9B H 0.4875(2) 0.2426(3) 0.03202(15)
C17B C 0.4418(2) -0.1009(3) -0.17162(15)
O1B O 0.3830(2) -0.2202(2) -0.18258(11)
O2B O 0.4726(2) -0.0238(2) -0.23433(10)
Fe1B Fe 0.34641(3) -0.15855(4) -0.31279(2)
N1B N 0.4994(2) -0.2801(3) -0.35858(13)
N2B N 0.3389(2) -0.0921(3) -0.43944(13)
C1B C 0.5852(3) -0.3651(3) -0.3163(2)
H1B H 0.5809(3) -0.3711(3) -0.2574(2)
C2B C 0.6807(3) -0.4450(4) -0.3567(2)
H2B H 0.7401(3) -0.5018(4) -0.3250(2)
C3B C 0.6863(3) -0.4390(4) -0.4438(2)
H3B H 0.7485(3) -0.4938(4) -0.4717(2)
C4B C 0.5991(3) -0.3510(3) -0.4905(2)
C5B C 0.5994(3) -0.3362(4) -0.5816(2)
H4B H 0.6587(3) -0.3896(4) -0.6127(2)
C6B C 0.5144(3) -0.2455(4) -0.6224(2)
H5B H 0.5159(3) -0.2380(4) -0.6814(2)
C7B C 0.4216(3) -0.1604(3) -0.5769(2)
C8B C 0.3316(3) -0.0633(4) -0.6161(2)
H6B H 0.3283(3) -0.0530(4) -0.6750(2)
C9B C 0.2486(3) 0.0162(4) -0.5671(2)
H7B H 0.1882(3) 0.0799(4) -0.5925(2)
C10B C 0.2564(3) -0.0003(3) -0.4784(2)
H8B H 0.2015(3) 0.0554(3) -0.4455(2)
C11B C 0.4194(3) -0.1723(3) -0.4878(2)
C12B C 0.5079(3) -0.2707(3) -0.4447(2)
O5B O 0.1968(2) -0.0275(2) -0.27526(12)
O4A O 0.7888(2) 0.3129(2) 0.34741(11)
Fe1A Fe 0.84641(3) -0.34145(4) 0.18721(2)
Fe1C Fe 0.15359(3) 0.34145(4) -0.18721(2)
O4C O 0.2112(2) -0.3129(2) -0.34741(11)
loop_
_geom_bond_atom_site_label_1
_geom_bond_atom_site_label_2
_geom_bond_site_symmetry_1
_geom_bond_site_symmetry_2
Fe1 N1 1_555 1_555
N1 C1 1_555 1_555
N2 Fe1 1_555 1_555
C1 H1 1_555 1_555
C2 C1 1_555 1_555
H2 C2 1_555 1_555
C3 C2 1_555 1_555
H3 C3 1_555 1_555
C4 C3 1_555 1_555
C5 C4 1_555 1_555
H4 C5 1_555 1_555
C6 C5 1_555 1_555
H5 C6 1_555 1_555
C7 C6 1_555 1_555
C8 C7 1_555 1_555
H6 C8 1_555 1_555
C9 C8 1_555 1_555
H7 C9 1_555 1_555
C10 N2 1_555 1_555
H8 C10 1_555 1_555
C11 N2 1_555 1_555
C12 N1 1_555 1_555
C13 C14 1_555 1_555
C14 C15 1_555 1_555
C15 H9 1_555 1_555
C16 C14 1_555 1_555
C17 C16 1_555 1_555
O1 Fe1 1_555 1_555
O2 Fe1 1_555 1_555
O3 C13 1_555 1_555
O4 C13 1_555 1_555
O5 Fe1 1_555 1_555
C16B C15 1_555 1_555
C14B C16B 1_555 1_555
C13B C14B 1_555 1_555
O3B C13B 1_555 1_555
O4B C13B 1_555 1_555
C15B C16 1_555 1_555
H9B C15B 1_555 1_555
C17B C16B 1_555 1_555
O1B C17B 1_555 1_555
O2B C17B 1_555 1_555
Fe1B O1B 1_555 1_555
N1B Fe1B 1_555 1_555
N2B Fe1B 1_555 1_555
C1B N1B 1_555 1_555
H1B C1B 1_555 1_555
C2B C1B 1_555 1_555
H2B C2B 1_555 1_555
C3B C2B 1_555 1_555
H3B C3B 1_555 1_555
C4B C3B 1_555 1_555
C5B C4B 1_555 1_555
H4B C5B 1_555 1_555
C6B C5B 1_555 1_555
H5B C6B 1_555 1_555
C7B C6B 1_555 1_555
C8B C7B 1_555 1_555
H6B C8B 1_555 1_555
C9B C8B 1_555 1_555
H7B C9B 1_555 1_555
C10B N2B 1_555 1_555
H8B C10B 1_555 1_555
C11B N2B 1_555 1_555
C12B N1B 1_555 1_555
O5B Fe1B 1_555 1_555
O4A Fe1 1_555 1_555
Fe1A O4 1_555 1_555
Fe1C O4B 1_555 1_555
O4C Fe1B 1_555 1_555
C4 C12 1_555 1_555
C7 C11 1_555 1_555
C9 C10 1_555 1_555
C11 C12 1_555 1_555
C17 O1 1_555 1_555
C17 O2 1_555 1_555
C14B C15B 1_555 1_555
O2B Fe1B 1_555 1_555
C4B C12B 1_555 1_555
C7B C11B 1_555 1_555
C9B C10B 1_555 1_555
C11B C12B 1_555 1_555

#END
