
#######################################################################
#
#                 Cambridge Crystallographic Data Centre
#                                CCDC 
#
#######################################################################
#
# If this CIF has been generated from an entry in the Cambridge 
# Structural Database, then it will include bibliographic, chemical, 
# crystal, experimental, refinement or atomic coordinate data resulting 
# from the CCDC's data processing and validation procedures.
#
#######################################################################

data_ABIXAL02
_symmetry_cell_setting           monoclinic
_symmetry_space_group_name_H-M   'C 2/m'
_symmetry_Int_Tables_number      12
_space_group_name_Hall           '-C 2y'
loop_
_symmetry_equiv_pos_site_id
_symmetry_equiv_pos_as_xyz
1 x,y,z
2 1/2+x,1/2+y,z
3 -x,y,-z
4 1/2-x,1/2+y,-z
5 -x,-y,-z
6 1/2-x,1/2-y,-z
7 x,-y,z
8 1/2+x,1/2-y,z
_cell_length_a                   11.7878(9)
_cell_length_b                   12.3863(10)
_cell_length_c                   4.1107(3)
_cell_angle_alpha                90
_cell_angle_beta                 95.217(4)
_cell_angle_gamma                90
_cell_volume                     597.706
loop_
_atom_site_label
_atom_site_type_symbol
_atom_site_fract_x
_atom_site_fract_y
_atom_site_fract_z
Pb1 Pb 0.0000 0.0000 0.0000
Cl1 Cl 0.17040(18) 0.0000 -0.4520(6)
N1 N 0.0000 0.2141(5) 0.0000
C1 C 0.0849(6) 0.2701(5) -0.1071(19)
H1 H 0.1484 0.2300 -0.1876
C2 C 0.0892(5) 0.3810(5) -0.1121(18)
H2 H 0.1543 0.4182 -0.1936
C3 C 0.0000 0.4401(6) 0.0000
Pb1_2 Pb 0.0000 0.0000 -1.0000
Pb1_3 Pb 0.0000 1.0000 0.0000
Cl1_2 Cl 0.17040(18) 0.0000 0.5480(6)
Cl1B Cl -0.17040(18) 0.0000 -0.5480(6)
Cl1B_2 Cl -0.17040(18) 0.0000 0.4520(6)
N1D N 0.0000 0.7859(5) 0.0000
N1D_2 N 0.0000 -0.2141(5) 0.0000
C1B C -0.0849(6) 0.2701(5) 0.1071(19)
C1F C 0.0849(6) 0.7299(5) -0.1071(19)
C1D C -0.0849(6) 0.7299(5) 0.1071(19)
H1B H -0.1484 0.2300 0.1876
H1D H -0.1484 0.7700 0.1876
H1F H 0.1484 0.7700 -0.1876
C2B C -0.0892(5) 0.3810(5) 0.1121(18)
C2F C 0.0892(5) 0.6190(5) -0.1121(18)
C2D C -0.0892(5) 0.6190(5) 0.1121(18)
H2B H -0.1543 0.4182 0.1936
H2D H -0.1543 0.5818 0.1936
H2F H 0.1543 0.5818 -0.1936
C3D C 0.0000 0.5599(6) 0.0000
loop_
_geom_bond_atom_site_label_1
_geom_bond_atom_site_label_2
_geom_bond_site_symmetry_1
_geom_bond_site_symmetry_2
Pb1 Cl1 1_555 1_555
Cl1 Pb1_2 1_555 1_555
N1 Pb1 1_555 1_555
C1 N1 1_555 1_555
H1 C1 1_555 1_555
C2 C1 1_555 1_555
H2 C2 1_555 1_555
C3 C2 1_555 1_555
Pb1_2 Cl1B 1_555 1_555
Pb1_3 N1D 1_555 1_555
Cl1_2 Pb1 1_555 1_555
Cl1B Pb1 1_555 1_555
Cl1B_2 Pb1 1_555 1_555
N1D C1F 1_555 1_555
N1D_2 Pb1 1_555 1_555
C1B N1 1_555 1_555
C1F H1F 1_555 1_555
C1D N1D 1_555 1_555
H1B C1B 1_555 1_555
H1D C1D 1_555 1_555
C2B C3 1_555 1_555
C2F C1F 1_555 1_555
C2D C1D 1_555 1_555
H2B C2B 1_555 1_555
H2D C2D 1_555 1_555
H2F C2F 1_555 1_555
C3D C3 1_555 1_555
C1B C2B 1_555 1_555
C2F C3D 1_555 1_555
C2D C3D 1_555 1_555

#END
