
#######################################################################
#
#                 Cambridge Crystallographic Data Centre
#                                CCDC 
#
#######################################################################
#
# If this CIF has been generated from an entry in the Cambridge 
# Structural Database, then it will include bibliographic, chemical, 
# crystal, experimental, refinement or atomic coordinate data resulting 
# from the CCDC's data processing and validation procedures.
#
#######################################################################

data_ABIXAL03
_symmetry_cell_setting           orthorhombic
_symmetry_space_group_name_H-M   'C m m m'
_symmetry_Int_Tables_number      65
_space_group_name_Hall           '-C 2 2'
loop_
_symmetry_equiv_pos_site_id
_symmetry_equiv_pos_as_xyz
1 x,y,z
2 1/2+x,1/2+y,z
3 -x,-y,z
4 -x,y,-z
5 x,-y,-z
6 1/2-x,1/2-y,z
7 1/2-x,1/2+y,-z
8 1/2+x,1/2-y,-z
9 -x,-y,-z
10 1/2-x,1/2-y,-z
11 x,y,-z
12 x,-y,z
13 -x,y,z
14 1/2+x,1/2+y,-z
15 1/2+x,1/2-y,z
16 1/2-x,1/2+y,z
_cell_length_a                   12.333(2)
_cell_length_b                   12.2648(18)
_cell_length_c                   4.0991(7)
_cell_angle_alpha                90
_cell_angle_beta                 90
_cell_angle_gamma                90
_cell_volume                     620.037
loop_
_atom_site_label
_atom_site_type_symbol
_atom_site_fract_x
_atom_site_fract_y
_atom_site_fract_z
Pb1 Pb 0.0000 0.0000 0.0000
Cl1 Cl 0.0000 0.1629(3) -0.5000
N1 N 0.2151(9) 0.0000 0.0000
C1 C 0.2688(9) 0.0881(9) 0.0000
H1 H 0.2289 0.1571 0.0000
C2 C 0.3792(9) 0.0916(9) 0.0000
H2 H 0.4152 0.1628 0.0000
C3 C 0.4412(9) 0.0000 0.0000
Pb1_2 Pb 0.0000 0.0000 -1.0000
Pb1_3 Pb 1.0000 0.0000 0.0000
Cl1_2 Cl 0.0000 0.1629(3) 0.5000
Cl1B Cl 0.0000 -0.1629(3) -0.5000
Cl1B_2 Cl 0.0000 -0.1629(3) 0.5000
N1B N 0.7849(9) 0.0000 0.0000
N1B_2 N -0.2151(9) 0.0000 0.0000
C1D C 0.2688(9) -0.0881(9) 0.0000
C1C C 0.7312(9) 0.0881(9) 0.0000
C1B C 0.7312(9) -0.0881(9) 0.0000
H1D H 0.2289 -0.1571 0.0000
H1B H 0.7711 -0.1571 0.0000
H1C H 0.7711 0.1571 0.0000
C2D C 0.3792(9) -0.0916(9) 0.0000
C2C C 0.6208(9) 0.0916(9) 0.0000
C2B C 0.6208(9) -0.0916(9) 0.0000
H2D H 0.4152 -0.1628 0.0000
H2B H 0.5848 -0.1628 0.0000
H2C H 0.5848 0.1628 0.0000
C3B C 0.5588(9) 0.0000 0.0000
loop_
_geom_bond_atom_site_label_1
_geom_bond_atom_site_label_2
_geom_bond_site_symmetry_1
_geom_bond_site_symmetry_2
Pb1 Cl1 1_555 1_555
Cl1 Pb1_2 1_555 1_555
N1 Pb1 1_555 1_555
C1 N1 1_555 1_555
H1 C1 1_555 1_555
C2 C1 1_555 1_555
H2 C2 1_555 1_555
C3 C2 1_555 1_555
Pb1_2 Cl1B 1_555 1_555
Pb1_3 N1B 1_555 1_555
Cl1_2 Pb1 1_555 1_555
Cl1B Pb1 1_555 1_555
Cl1B_2 Pb1 1_555 1_555
N1B C1C 1_555 1_555
N1B_2 Pb1 1_555 1_555
C1D N1 1_555 1_555
C1C H1C 1_555 1_555
C1B N1B 1_555 1_555
H1D C1D 1_555 1_555
H1B C1B 1_555 1_555
C2D C3 1_555 1_555
C2C C1C 1_555 1_555
C2B C1B 1_555 1_555
H2D C2D 1_555 1_555
H2B C2B 1_555 1_555
H2C C2C 1_555 1_555
C3B C3 1_555 1_555
C1D C2D 1_555 1_555
C2C C3B 1_555 1_555
C2B C3B 1_555 1_555

#END
