
#######################################################################
#
#                 Cambridge Crystallographic Data Centre
#                                CCDC 
#
#######################################################################
#
# If this CIF has been generated from an entry in the Cambridge 
# Structural Database, then it will include bibliographic, chemical, 
# crystal, experimental, refinement or atomic coordinate data resulting 
# from the CCDC's data processing and validation procedures.
#
#######################################################################

data_ABIXEQ
_symmetry_cell_setting           tetragonal
_symmetry_space_group_name_H-M   'I -4 2 d'
_symmetry_Int_Tables_number      122
_space_group_name_Hall           'I -4 2bw'
loop_
_symmetry_equiv_pos_site_id
_symmetry_equiv_pos_as_xyz
1 x,y,z
2 -x,-y,z
3 y,-x,-z
4 -y,x,-z
5 1/2-x,y,3/4-z
6 1/2+x,-y,3/4-z
7 1/2-y,-x,3/4+z
8 1/2+y,x,3/4+z
9 1/2+x,1/2+y,1/2+z
10 1/2-x,1/2-y,1/2+z
11 1/2+y,1/2-x,1/2-z
12 1/2-y,1/2+x,1/2-z
13 -x,1/2+y,1/4-z
14 x,1/2-y,1/4-z
15 -y,1/2-x,1/4+z
16 y,1/2+x,1/4+z
_cell_length_a                   24.315(5)
_cell_length_b                   24.315(5)
_cell_length_c                   8.343(2)
_cell_angle_alpha                90
_cell_angle_beta                 90
_cell_angle_gamma                90
_cell_volume                     4932.54
loop_
_atom_site_label
_atom_site_type_symbol
_atom_site_fract_x
_atom_site_fract_y
_atom_site_fract_z
C1 C 0.4143(3) 0.2755(3) 0.6789(9)
H1 H 0.4477 0.2963 0.6595
H2 H 0.3834 0.2987 0.6500
C2 C 0.4109(4) 0.2625(4) 0.8488(11)
H3 H 0.4386 0.2350 0.8728
H4 H 0.3753 0.2460 0.8691
C3 C 0.3819(4) 0.4348(4) 1.1429(15)
H5 H 0.3517 0.4520 1.0964
C4 C 0.4089(6) 0.4559(5) 1.2711(17)
H6 H 0.3954 0.4879 1.3177
C5 C 0.4562(6) 0.4319(5) 1.3370(17)
H7 H 0.4748 0.4498 1.4194
C6 C 0.4755(4) 0.3827(4) 1.2822(13)
H8 H 0.5053 0.3651 1.3295
C7 C 0.4484(3) 0.3608(3) 1.1536(9)
C8 C 0.4029(3) 0.3864(3) 1.0881(10)
C9 C 0.4182(3) 0.3092(3) 0.9625(9)
C10 C 0.5978(3) 0.2230(3) 0.9144(9)
C11 C 0.6272(2) 0.2363(3) 0.7624(8)
C12 C 0.6000(3) 0.2500 0.6250
H9 H 0.5618 0.2500 0.6250
C13 C 0.6847(3) 0.2362(4) 0.7619(11)
H10 H 0.7041 0.2269 0.8541
C14 C 0.71231(4) 0.2500 0.6250
H11 H 0.7506 0.2500 0.6250
N1 N 0.38603(4) 0.3535 0.9656
N2 N 0.45767(4) 0.3117 1.0732
O1 O 0.54917(4) 0.2415 0.9250
O2 O 0.62103(4) 0.1975 1.0210
Co1 Co 0.50992(4) 0.2500 1.1250
H12 H 0.3603 0.3605 0.8821
C1M C 0.4143(3) 0.2245(3) 0.5711(9)
H1M H 0.4477 0.2037 0.5905
H2M H 0.3834 0.2013 0.6000
C2M C 0.4109(4) 0.2375(4) 0.4012(11)
H3M H 0.4386 0.2650 0.3772
H4M H 0.3753 0.2540 0.3809
C3M C 0.3819(4) 0.0652(4) 0.1071(15)
H5M H 0.3517 0.0480 0.1536
C4M C 0.4089(6) 0.0441(5) -0.0211(17)
H6M H 0.3954 0.0121 -0.0677
C5M C 0.4562(6) 0.0681(5) -0.0870(17)
H7M H 0.4748 0.0502 -0.1694
C6M C 0.4755(4) 0.1173(4) -0.0322(13)
H8M H 0.5053 0.1349 -0.0795
C7M C 0.4484(3) 0.1392(3) 0.0964(9)
C8M C 0.4029(3) 0.1136(3) 0.1619(10)
C9M C 0.4182(3) 0.1908(3) 0.2875(9)
C10M C 0.5978(3) 0.2770(3) 0.3356(9)
C11M C 0.6272(2) 0.2637(3) 0.4876(8)
C13M C 0.6847(3) 0.2638(4) 0.4881(11)
H10M H 0.7041 0.2731 0.3959
N1M N 0.38603(4) 0.1465 0.2844
N2M N 0.45767(4) 0.1883 0.1768
N2M_2 N 0.45767(4) 0.1883 1.1768
O1M O 0.54917(4) 0.2585 0.3250
O1M_2 O 0.54917(4) 0.2585 1.3250
O2M O 0.62103(4) 0.3025 0.2290
Co1_2 Co 0.50992(4) 0.2500 0.1250
H12M H 0.3603 0.1395 0.3679
loop_
_geom_bond_atom_site_label_1
_geom_bond_atom_site_label_2
_geom_bond_site_symmetry_1
_geom_bond_site_symmetry_2
C1 H1 1_555 1_555
H2 C1 1_555 1_555
C2 C1 1_555 1_555
H3 C2 1_555 1_555
H4 C2 1_555 1_555
C3 H5 1_555 1_555
C4 C3 1_555 1_555
H6 C4 1_555 1_555
C5 C4 1_555 1_555
H7 C5 1_555 1_555
C6 C5 1_555 1_555
H8 C6 1_555 1_555
C7 C6 1_555 1_555
C8 C3 1_555 1_555
C9 C2 1_555 1_555
C10 C11 1_555 1_555
C11 C12 1_555 1_555
C12 H9 1_555 1_555
C13 C11 1_555 1_555
H10 C13 1_555 1_555
C14 C13 1_555 1_555
H11 C14 1_555 1_555
N1 C8 1_555 1_555
N2 C7 1_555 1_555
O1 C10 1_555 1_555
O2 C10 1_555 1_555
Co1 N2 1_555 1_555
H12 N1 1_555 1_555
C1M C1 1_555 1_555
H1M C1M 1_555 1_555
H2M C1M 1_555 1_555
C2M C1M 1_555 1_555
H3M C2M 1_555 1_555
H4M C2M 1_555 1_555
C3M H5M 1_555 1_555
C4M C3M 1_555 1_555
H6M C4M 1_555 1_555
C5M C4M 1_555 1_555
H7M C5M 1_555 1_555
C6M C5M 1_555 1_555
H8M C6M 1_555 1_555
C7M C6M 1_555 1_555
C8M C3M 1_555 1_555
C9M C2M 1_555 1_555
C10M C11M 1_555 1_555
C11M C12 1_555 1_555
C13M C14 1_555 1_555
H10M C13M 1_555 1_555
N1M C8M 1_555 1_555
N2M C7M 1_555 1_555
N2M_2 Co1 1_555 1_555
O1M C10M 1_555 1_555
O1M_2 Co1 1_555 1_555
O2M C10M 1_555 1_555
Co1_2 N2M 1_555 1_555
H12M N1M 1_555 1_555
C7 C8 1_555 1_555
C9 N1 1_555 1_555
C9 N2 1_555 1_555
O1 Co1 1_555 1_555
C7M C8M 1_555 1_555
C9M N1M 1_555 1_555
C9M N2M 1_555 1_555
C11M C13M 1_555 1_555
O1M Co1_2 1_555 1_555

#END
