
#######################################################################
#
#                 Cambridge Crystallographic Data Centre
#                                CCDC 
#
#######################################################################
#
# If this CIF has been generated from an entry in the Cambridge 
# Structural Database, then it will include bibliographic, chemical, 
# crystal, experimental, refinement or atomic coordinate data resulting 
# from the CCDC's data processing and validation procedures.
#
#######################################################################

data_ABIXIU
_symmetry_cell_setting           triclinic
_symmetry_space_group_name_H-M   'P -1'
_symmetry_Int_Tables_number      2
_space_group_name_Hall           '-P 1'
loop_
_symmetry_equiv_pos_site_id
_symmetry_equiv_pos_as_xyz
1 x,y,z
2 -x,-y,-z
_cell_length_a                   11.2831(12)
_cell_length_b                   11.6718(13)
_cell_length_c                   11.7771(13)
_cell_angle_alpha                105.392(2)
_cell_angle_beta                 108.382(2)
_cell_angle_gamma                112.397(2)
_cell_volume                     1222.36
loop_
_atom_site_label
_atom_site_type_symbol
_atom_site_fract_x
_atom_site_fract_y
_atom_site_fract_z
Cu1 Cu 0.90950(3) 0.95882(3) 0.72936(3)
N1 N 0.8924(2) 1.0584(2) 0.6131(2)
N2 N 1.1191(2) 1.0786(2) 0.7861(2)
O1 O 0.5668(2) 0.23439(19) 0.6769(2)
O2 O 0.76476(19) 0.68802(18) 0.79597(18)
O3 O 0.95829(19) 0.83506(18) 0.78961(17)
O4 O 0.3318(2) 0.28764(19) 0.50473(18)
O5 O 0.29590(18) 0.13320(17) 0.32054(16)
O6 O 1.0544(2) 0.8818(2) 1.08167(18)
O7 O 1.2802(2) 0.9279(2) 1.1390(2)
H1 H 1.2998 1.0023 1.1921
C1 C 0.8878(3) 0.7321(2) 0.8061(2)
C2 C 0.9668(2) 0.6550(2) 0.8383(2)
C3 C 1.0902(3) 0.7128(2) 0.9595(2)
C4 C 1.1390(3) 0.8493(3) 1.0658(2)
C5 C 1.1599(3) 0.6408(3) 0.9863(3)
H2 H 1.2424 0.6809 1.0672
C6 C 1.1072(3) 0.5093(3) 0.8930(3)
H3 H 1.1528 0.4600 0.9113
C7 C 0.9852(3) 0.4517(3) 0.7714(3)
H4 H 0.9497 0.3633 0.7086
C8 C 0.9155(3) 0.5236(2) 0.7422(2)
C9 C 0.7885(3) 0.4638(2) 0.6082(2)
C10 C 0.8135(3) 0.4862(3) 0.5057(2)
H5 H 0.9082 0.5361 0.5207
C11 C 0.6994(3) 0.4352(3) 0.3817(3)
H6 H 0.7179 0.4524 0.3146
C12 C 0.5586(3) 0.3593(3) 0.3571(2)
H7 H 0.4824 0.3262 0.2738
C13 C 0.5299(3) 0.3319(2) 0.4566(2)
C14 C 0.3759(3) 0.2482(2) 0.4288(2)
C15 C 0.6453(3) 0.3864(2) 0.5830(2)
C16 C 0.6155(3) 0.3512(3) 0.6891(2)
C17 C 1.4915(3) 1.1718(4) 1.0247(3)
H8 H 1.5288 1.1235 0.9813
H9 H 1.4527 1.1258 1.0719
H10 H 1.5681 1.2647 1.0863
C18 C 1.3733(3) 1.1742(3) 0.9220(3)
C19 C 1.4024(3) 1.2563(3) 0.8576(3)
H11 H 1.4980 1.3172 0.8817
C20 C 1.2907(3) 1.2489(3) 0.7576(3)
H12 H 1.3106 1.3042 0.7143
C21 C 1.1483(3) 1.1575(3) 0.7227(2)
C22 C 1.0202(3) 1.1397(2) 0.6186(2)
C23 C 1.0238(3) 1.1969(3) 0.5304(3)
H13 H 1.1113 1.2495 0.5326
C24 C 0.8954(3) 1.1751(3) 0.4382(3)
H14 H 0.8967 1.2130 0.3782
C25 C 0.7648(3) 1.0969(3) 0.4351(3)
C26 C 0.6232(3) 1.0726(3) 0.3400(3)
H15 H 0.5868 1.1172 0.3888
H16 H 0.5547 0.9753 0.2917
H17 H 0.6372 1.1097 0.2787
C27 C 0.7695(3) 1.0388(3) 0.5237(3)
H18 H 0.6827 0.9833 0.5209
C28 C 1.2291(3) 1.0874(3) 0.8827(3)
H19 H 1.2071 1.0320 0.9257
O8 O 0.6490(2) 0.45297(18) 0.79781(17)
H20 H 0.6868 0.5264 0.7939
Cu1A Cu 0.09050(3) 0.04118(3) 0.27064(3)
Cu1_2 Cu -0.09050(3) -0.04118(3) -0.27064(3)
Cu1A_2 Cu 1.09050(3) 1.04118(3) 1.27064(3)
N1A N 0.1076(2) -0.0584(2) 0.3869(2)
N2A N -0.1191(2) -0.0786(2) 0.2139(2)
O1A O 0.4332(2) 0.76561(19) 0.3231(2)
O2A O 0.23524(19) 0.31198(18) 0.20403(18)
O3A O 0.04171(19) 0.16494(18) 0.21039(17)
O4A O 0.6682(2) 0.71236(19) 0.49527(18)
O5A O 0.70410(18) 0.86680(17) 0.67946(16)
O6A O -0.0544(2) 0.1182(2) -0.08167(18)
O6_2 O 0.0544(2) -0.1182(2) 0.08167(18)
O6A_2 O 0.9456(2) 1.1182(2) 0.91833(18)
O7A O -0.2802(2) 0.0721(2) -0.1390(2)
H1A H -0.2998 -0.0023 -0.1921
C1A C 0.1122(3) 0.2679(2) 0.1939(2)
C2A C 0.0332(2) 0.3450(2) 0.1617(2)
C3A C -0.0902(3) 0.2872(2) 0.0405(2)
C4A C -0.1390(3) 0.1507(3) -0.0658(2)
C5A C -0.1599(3) 0.3592(3) 0.0137(3)
H2A H -0.2424 0.3191 -0.0672
C6A C -0.1072(3) 0.4907(3) 0.1070(3)
H3A H -0.1528 0.5400 0.0887
C7A C 0.0148(3) 0.5483(3) 0.2286(3)
H4A H 0.0503 0.6367 0.2914
C8A C 0.0845(3) 0.4764(2) 0.2578(2)
C9A C 0.2115(3) 0.5362(2) 0.3918(2)
C10A C 0.1865(3) 0.5138(3) 0.4943(2)
H5A H 0.0918 0.4639 0.4793
C11A C 0.3006(3) 0.5648(3) 0.6183(3)
H6A H 0.2821 0.5476 0.6854
C12A C 0.4414(3) 0.6407(3) 0.6429(2)
H7A H 0.5176 0.6738 0.7262
C13A C 0.4701(3) 0.6681(2) 0.5434(2)
C14A C 0.6241(3) 0.7518(2) 0.5712(2)
C15A C 0.3547(3) 0.6136(2) 0.4170(2)
C16A C 0.3845(3) 0.6488(3) 0.3109(2)
C17A C -0.4915(3) -0.1718(4) -0.0247(3)
H8A H -0.5288 -0.1235 0.0187
H9A H -0.4527 -0.1258 -0.0719
H10A H -0.5681 -0.2647 -0.0863
C18A C -0.3733(3) -0.1742(3) 0.0780(3)
C19A C -0.4024(3) -0.2563(3) 0.1424(3)
H11A H -0.4980 -0.3172 0.1183
C20A C -0.2907(3) -0.2489(3) 0.2424(3)
H12A H -0.3106 -0.3042 0.2857
C21A C -0.1483(3) -0.1575(3) 0.2773(2)
C22A C -0.0202(3) -0.1397(2) 0.3814(2)
C23A C -0.0238(3) -0.1969(3) 0.4696(3)
H13A H -0.1113 -0.2495 0.4674
C24A C 0.1046(3) -0.1751(3) 0.5618(3)
H14A H 0.1033 -0.2130 0.6218
C25A C 0.2352(3) -0.0969(3) 0.5649(3)
C26A C 0.3768(3) -0.0726(3) 0.6600(3)
H15A H 0.4132 -0.1172 0.6112
H16A H 0.4453 0.0247 0.7083
H17A H 0.3628 -0.1097 0.7213
C27A C 0.2305(3) -0.0388(3) 0.4763(3)
H18A H 0.3173 0.0167 0.4791
C28A C -0.2291(3) -0.0874(3) 0.1173(3)
H19A H -0.2071 -0.0320 0.0743
O8A O 0.3510(2) 0.54703(18) 0.20219(17)
H20A H 0.3132 0.4736 0.2061
loop_
_geom_bond_atom_site_label_1
_geom_bond_atom_site_label_2
_geom_bond_site_symmetry_1
_geom_bond_site_symmetry_2
Cu1 N1 1_555 1_555
N1 C22 1_555 1_555
N2 Cu1 1_555 1_555
O1 C16 1_555 1_555
O2 C1 1_555 1_555
O3 Cu1 1_555 1_555
O4 C14 1_555 1_555
O5 C14 1_555 1_555
O6 C4 1_555 1_555
O7 H1 1_555 1_555
C1 O3 1_555 1_555
C2 C1 1_555 1_555
C3 C2 1_555 1_555
C4 O7 1_555 1_555
C5 C3 1_555 1_555
H2 C5 1_555 1_555
C6 C5 1_555 1_555
H3 C6 1_555 1_555
C7 C6 1_555 1_555
H4 C7 1_555 1_555
C8 C2 1_555 1_555
C9 C8 1_555 1_555
C10 C9 1_555 1_555
H5 C10 1_555 1_555
C11 C10 1_555 1_555
H6 C11 1_555 1_555
C12 C11 1_555 1_555
H7 C12 1_555 1_555
C13 C12 1_555 1_555
C14 C13 1_555 1_555
C15 C9 1_555 1_555
C16 C15 1_555 1_555
C17 H8 1_555 1_555
H9 C17 1_555 1_555
H10 C17 1_555 1_555
C18 C17 1_555 1_555
C19 C18 1_555 1_555
H11 C19 1_555 1_555
C20 C19 1_555 1_555
H12 C20 1_555 1_555
C21 N2 1_555 1_555
C22 C21 1_555 1_555
C23 C22 1_555 1_555
H13 C23 1_555 1_555
C24 C23 1_555 1_555
H14 C24 1_555 1_555
C25 C24 1_555 1_555
C26 C25 1_555 1_555
H15 C26 1_555 1_555
H16 C26 1_555 1_555
H17 C26 1_555 1_555
C27 N1 1_555 1_555
H18 C27 1_555 1_555
C28 N2 1_555 1_555
H19 C28 1_555 1_555
O8 C16 1_555 1_555
H20 O8 1_555 1_555
Cu1A O5 1_555 1_555
Cu1_2 O6A 1_555 1_555
Cu1A_2 O6 1_555 1_555
N1A Cu1A 1_555 1_555
N2A Cu1A 1_555 1_555
O1A C16A 1_555 1_555
O2A C1A 1_555 1_555
O3A Cu1A 1_555 1_555
O4A C14A 1_555 1_555
O5A Cu1 1_555 1_555
O6A C4A 1_555 1_555
O6_2 Cu1A 1_555 1_555
O6A_2 Cu1 1_555 1_555
O7A H1A 1_555 1_555
C1A O3A 1_555 1_555
C2A C1A 1_555 1_555
C3A C2A 1_555 1_555
C4A O7A 1_555 1_555
C5A C3A 1_555 1_555
H2A C5A 1_555 1_555
C6A C5A 1_555 1_555
H3A C6A 1_555 1_555
C7A C6A 1_555 1_555
H4A C7A 1_555 1_555
C8A C2A 1_555 1_555
C9A C8A 1_555 1_555
C10A C9A 1_555 1_555
H5A C10A 1_555 1_555
C11A C10A 1_555 1_555
H6A C11A 1_555 1_555
C12A C11A 1_555 1_555
H7A C12A 1_555 1_555
C13A C12A 1_555 1_555
C14A O5A 1_555 1_555
C15A C9A 1_555 1_555
C16A C15A 1_555 1_555
C17A H8A 1_555 1_555
H9A C17A 1_555 1_555
H10A C17A 1_555 1_555
C18A C17A 1_555 1_555
C19A C18A 1_555 1_555
H11A C19A 1_555 1_555
C20A C19A 1_555 1_555
H12A C20A 1_555 1_555
C21A N2A 1_555 1_555
C22A N1A 1_555 1_555
C23A C22A 1_555 1_555
H13A C23A 1_555 1_555
C24A C23A 1_555 1_555
H14A C24A 1_555 1_555
C25A C24A 1_555 1_555
C26A C25A 1_555 1_555
H15A C26A 1_555 1_555
H16A C26A 1_555 1_555
H17A C26A 1_555 1_555
C27A N1A 1_555 1_555
H18A C27A 1_555 1_555
C28A N2A 1_555 1_555
H19A C28A 1_555 1_555
O8A C16A 1_555 1_555
H20A O8A 1_555 1_555
C3 C4 1_555 1_555
C7 C8 1_555 1_555
C13 C15 1_555 1_555
C18 C28 1_555 1_555
C20 C21 1_555 1_555
C25 C27 1_555 1_555
C3A C4A 1_555 1_555
C7A C8A 1_555 1_555
C13A C14A 1_555 1_555
C13A C15A 1_555 1_555
C18A C28A 1_555 1_555
C20A C21A 1_555 1_555
C21A C22A 1_555 1_555
C25A C27A 1_555 1_555

#END
