
#######################################################################
#
#                 Cambridge Crystallographic Data Centre
#                                CCDC 
#
#######################################################################
#
# If this CIF has been generated from an entry in the Cambridge 
# Structural Database, then it will include bibliographic, chemical, 
# crystal, experimental, refinement or atomic coordinate data resulting 
# from the CCDC's data processing and validation procedures.
#
#######################################################################

data_ABIYIV
_symmetry_cell_setting           orthorhombic
_symmetry_space_group_name_H-M   'P c c n'
_symmetry_Int_Tables_number      56
_space_group_name_Hall           '-P 2ab 2ac'
loop_
_symmetry_equiv_pos_site_id
_symmetry_equiv_pos_as_xyz
1 x,y,z
2 1/2-x,1/2-y,z
3 -x,1/2+y,1/2-z
4 1/2+x,-y,1/2-z
5 -x,-y,-z
6 1/2+x,1/2+y,-z
7 x,1/2-y,1/2+z
8 1/2-x,y,1/2+z
_cell_length_a                   11.1040(3)
_cell_length_b                   19.8834(5)
_cell_length_c                   21.3025(5)
_cell_angle_alpha                90
_cell_angle_beta                 90
_cell_angle_gamma                90
_cell_volume                     4703.28
loop_
_atom_site_label
_atom_site_type_symbol
_atom_site_fract_x
_atom_site_fract_y
_atom_site_fract_z
Co1 Co -0.30595(4) 0.46297(3) 0.22352(2)
Co2 Co 0.0000 0.5000 0.0000
O1 O -0.15285(17) 0.45761(11) 0.04362(9)
O2 O -0.14093(18) 0.44416(11) 0.26619(10)
N1 N 0.0434(2) 0.51193(12) 0.09282(12)
O3 O -0.25072(19) 0.45318(11) 0.13352(9)
N2 N -0.3660(2) 0.35820(13) 0.21639(13)
N3 N -0.2626(2) 0.57186(13) 0.22295(13)
N4 N 0.0896(2) 0.40326(13) -0.00009(12)
C1 C -0.1566(3) 0.46437(16) 0.10307(14)
C2 C -0.2529(3) 0.71258(16) 0.22423(17)
C3 C 0.0366(3) 0.34603(17) -0.01683(16)
H1 H -0.0457 0.3474 -0.0291
C4 C -0.2288(3) 0.60567(17) 0.27411(16)
H2 H -0.2081 0.5808 0.3107
C5 C -0.0439(3) 0.48836(15) 0.13278(15)
C6 C -0.2917(3) 0.60849(17) 0.17200(16)
H3 H -0.3164 0.5854 0.1351
C7 C 0.2052(3) 0.40099(18) 0.01700(17)
H4 H 0.2438 0.4416 0.0290
C8 C -0.2874(3) 0.67742(17) 0.17064(16)
H5 H -0.3079 0.7010 0.1334
C9 C 0.2166(3) 0.28192(17) 0.00020(15)
C10 C -0.3844(4) 0.32029(19) 0.26745(19)
H6 H -0.3741 0.3405 0.3075
C11 C 0.1330(3) 0.53256(16) 0.13024(14)
H7 H 0.2060 0.5513 0.1149
C12 C 0.0950(3) 0.28500(18) -0.01723(16)
H8 H 0.0533 0.2453 -0.0292
C13 C -0.2222(3) 0.67489(17) 0.27654(17)
H9 H -0.1967 0.6967 0.3139
C14 C 0.2709(3) 0.34209(17) 0.01803(17)
H10 H 0.3529 0.3426 0.0308
C15 C -0.4176(4) 0.2535(2) 0.2649(2)
H11 H -0.4293 0.2286 0.3025
C16 C -0.4182(4) 0.2621(2) 0.1546(2)
H12 H -0.4306 0.2432 0.1142
C17 C -0.3843(4) 0.32920(19) 0.16099(19)
H13 H -0.3738 0.3554 0.1241
C18 C -0.4337(4) 0.2235(2) 0.2077(2)
H14 H -0.4548 0.1773 0.2047
C19 C -0.0026(3) 0.49567(15) 0.19412(14)
C20 C -0.0455(3) 0.47847(15) 0.25811(14)
O4 O 0.01911(18) 0.49902(11) 0.30279(9)
N5 N 0.1098(2) 0.52414(13) 0.19119(12)
Co1D Co 0.30595(4) 0.53703(3) -0.22352(2)
Co1C Co 0.19405(4) 0.53703(3) 0.27648(2)
Co1A Co -0.19405(4) 1.03703(3) 0.22352(2)
Co1G Co -0.19405(4) 0.46297(3) -0.27648(2)
Co2A Co 0.5000 0.0000 0.0000
O1D O 0.15285(17) 0.54239(11) -0.04362(9)
O2D O 0.14093(18) 0.55584(11) -0.26619(10)
N1D N -0.0434(2) 0.48807(12) -0.09282(12)
O3D O 0.25072(19) 0.54682(11) -0.13352(9)
N2D N 0.3660(2) 0.64180(13) -0.21639(13)
N3A N -0.2374(2) 0.92814(13) 0.22295(13)
N3D N 0.2626(2) 0.42814(13) -0.22295(13)
N4A N 0.4104(2) 0.09674(13) -0.00009(12)
N4D N -0.0896(2) 0.59674(13) 0.00009(12)
C1D C 0.1566(3) 0.53563(16) -0.10307(14)
C2A C -0.2471(3) 0.78742(16) 0.22423(17)
C3A C 0.4634(3) 0.15397(17) -0.01683(16)
H1A H 0.5457 0.1526 -0.0291
C4A C -0.2712(3) 0.89433(17) 0.27411(16)
H2A H -0.2919 0.9192 0.3107
C5D C 0.0439(3) 0.51164(15) -0.13278(15)
C6A C -0.2083(3) 0.89151(17) 0.17200(16)
H3A H -0.1836 0.9146 0.1351
C7A C 0.2948(3) 0.09901(18) 0.01700(17)
H4A H 0.2562 0.0584 0.0290
C8A C -0.2126(3) 0.82258(17) 0.17064(16)
H5A H -0.1921 0.7990 0.1334
C9A C 0.2834(3) 0.21808(17) 0.00020(15)
C10D C 0.3844(4) 0.67971(19) -0.26745(19)
H6D H 0.3741 0.6595 -0.3075
C11D C -0.1330(3) 0.46744(16) -0.13024(14)
H7D H -0.2060 0.4487 -0.1149
C12A C 0.4050(3) 0.21500(18) -0.01723(16)
H8A H 0.4467 0.2547 -0.0292
C13A C -0.2778(3) 0.82511(17) 0.27654(17)
H9A H -0.3033 0.8033 0.3139
C14A C 0.2291(3) 0.15791(17) 0.01803(17)
H10A H 0.1471 0.1574 0.0308
C15D C 0.4176(4) 0.7465(2) -0.2649(2)
H11D H 0.4293 0.7714 -0.3025
C16D C 0.4182(4) 0.7379(2) -0.1546(2)
H12D H 0.4306 0.7568 -0.1142
C17D C 0.3843(4) 0.67080(19) -0.16099(19)
H13D H 0.3738 0.6446 -0.1241
C18D C 0.4337(4) 0.7765(2) -0.2077(2)
H14D H 0.4548 0.8227 -0.2047
C19D C 0.0026(3) 0.50433(15) -0.19412(14)
C20D C 0.0455(3) 0.52153(15) -0.25811(14)
O4D O -0.01911(18) 0.50098(11) -0.30279(9)
O4C O -0.48089(18) 0.50098(11) 0.19721(9)
O4G O 0.48089(18) 0.49902(11) -0.19721(9)
N5D N -0.1098(2) 0.47586(13) -0.19119(12)
N5C N -0.3902(2) 0.47586(13) 0.30881(12)
N5G N 0.3902(2) 0.52414(13) -0.30881(12)
O5 O 0.8771(2) 0.07199(14) -0.00613(11)
H15 H 0.8093 0.0601 0.0080
H16 H 0.9299 0.0693 0.0228
O6 O 0.6058(3) 0.14410(14) 0.38139(14)
H17 H 0.5969 0.1252 0.4169
H18 H 0.6070 0.1143 0.3527
O8 O 0.5539(2) -0.03922(14) 0.42084(11)
H21 H 0.5719 -0.0010 0.4369
H22 H 0.5309 -0.0326 0.3832
O7? O 0.7009(6) 0.2706(4) 0.4236(3)
H19? H 0.6629 0.2419 0.4013
H20? H 0.7401 0.2968 0.3993
loop_
_geom_bond_atom_site_label_1
_geom_bond_atom_site_label_2
_geom_bond_site_symmetry_1
_geom_bond_site_symmetry_2
Co1 O2 1_555 1_555
Co2 O1 1_555 1_555
O1 C1 1_555 1_555
O2 C20 1_555 1_555
N1 Co2 1_555 1_555
O3 Co1 1_555 1_555
N2 Co1 1_555 1_555
N3 Co1 1_555 1_555
N4 Co2 1_555 1_555
C1 O3 1_555 1_555
C2 C8 1_555 1_555
C3 N4 1_555 1_555
H1 C3 1_555 1_555
C4 N3 1_555 1_555
H2 C4 1_555 1_555
C5 N1 1_555 1_555
C6 N3 1_555 1_555
H3 C6 1_555 1_555
C7 N4 1_555 1_555
H4 C7 1_555 1_555
C8 C6 1_555 1_555
H5 C8 1_555 1_555
C9 C12 1_555 1_555
C10 N2 1_555 1_555
H6 C10 1_555 1_555
C11 N1 1_555 1_555
H7 C11 1_555 1_555
C12 C3 1_555 1_555
H8 C12 1_555 1_555
C13 C2 1_555 1_555
H9 C13 1_555 1_555
C14 C7 1_555 1_555
H10 C14 1_555 1_555
C15 C10 1_555 1_555
H11 C15 1_555 1_555
C16 H12 1_555 1_555
C17 N2 1_555 1_555
H13 C17 1_555 1_555
C18 C15 1_555 1_555
H14 C18 1_555 1_555
C19 C5 1_555 1_555
C20 C19 1_555 1_555
O4 C20 1_555 1_555
N5 C11 1_555 1_555
O5 H15 1_555 1_555
H16 O5 1_555 1_555
O6 H17 1_555 1_555
H18 O6 1_555 1_555
O8 H21 1_555 1_555
H22 O8 1_555 1_555
Co1D O2D 1_555 1_555
Co1C O4 1_555 1_555
Co1A N3A 1_555 1_555
Co1G O4D 1_555 1_555
Co2A N4A 1_555 1_555
O1D Co2 1_555 1_555
O2D C20D 1_555 1_555
N1D Co2 1_555 1_555
O3D Co1D 1_555 1_555
N2D Co1D 1_555 1_555
N3A C4A 1_555 1_555
N3D Co1D 1_555 1_555
N4A C3A 1_555 1_555
N4D Co2 1_555 1_555
C1D O1D 1_555 1_555
C2A C2 1_555 1_555
C3A H1A 1_555 1_555
C4A H2A 1_555 1_555
C5D N1D 1_555 1_555
C6A N3A 1_555 1_555
H3A C6A 1_555 1_555
C7A N4A 1_555 1_555
H4A C7A 1_555 1_555
C8A C2A 1_555 1_555
H5A C8A 1_555 1_555
C9A C9 1_555 1_555
C10D N2D 1_555 1_555
H6D C10D 1_555 1_555
C11D N1D 1_555 1_555
H7D C11D 1_555 1_555
C12A C3A 1_555 1_555
H8A C12A 1_555 1_555
C13A C2A 1_555 1_555
H9A C13A 1_555 1_555
C14A C7A 1_555 1_555
H10A C14A 1_555 1_555
C15D C10D 1_555 1_555
H11D C15D 1_555 1_555
C16D H12D 1_555 1_555
C17D N2D 1_555 1_555
H13D C17D 1_555 1_555
C18D C15D 1_555 1_555
H14D C18D 1_555 1_555
C19D C5D 1_555 1_555
C20D C19D 1_555 1_555
O4D C20D 1_555 1_555
O4C Co1 1_555 1_555
O4G Co1D 1_555 1_555
N5D Co1G 1_555 1_555
N5C Co1 1_555 1_555
N5G Co1D 1_555 1_555
C1 C5 1_555 1_555
C4 C13 1_555 1_555
C9 C14 1_555 1_555
C16 C17 1_555 1_555
C16 C18 1_555 1_555
C19 N5 1_555 1_555
N5 Co1C 1_555 1_555
O3D C1D 1_555 1_555
C1D C5D 1_555 1_555
C4A C13A 1_555 1_555
C6A C8A 1_555 1_555
C9A C12A 1_555 1_555
C9A C14A 1_555 1_555
C11D N5D 1_555 1_555
C16D C17D 1_555 1_555
C16D C18D 1_555 1_555
C19D N5D 1_555 1_555

#END
