
#######################################################################
#
#                 Cambridge Crystallographic Data Centre
#                                CCDC 
#
#######################################################################
#
# If this CIF has been generated from an entry in the Cambridge 
# Structural Database, then it will include bibliographic, chemical, 
# crystal, experimental, refinement or atomic coordinate data resulting 
# from the CCDC's data processing and validation procedures.
#
#######################################################################

data_ABOTUG02
_symmetry_cell_setting           monoclinic
_symmetry_space_group_name_H-M   'P 21/c'
_symmetry_Int_Tables_number      14
_space_group_name_Hall           '-P 2ybc'
loop_
_symmetry_equiv_pos_site_id
_symmetry_equiv_pos_as_xyz
1 x,y,z
2 -x,1/2+y,1/2-z
3 -x,-y,-z
4 x,1/2-y,1/2+z
_cell_length_a                   10.3364(4)
_cell_length_b                   10.5089(4)
_cell_length_c                   13.4413(7)
_cell_angle_alpha                90
_cell_angle_beta                 105.8610(16)
_cell_angle_gamma                90
_cell_volume                     1404.46
loop_
_atom_site_label
_atom_site_type_symbol
_atom_site_fract_x
_atom_site_fract_y
_atom_site_fract_z
Co1 Co 0.711811(18) 0.946138(18) 0.164459(14)
N1 N 0.81210(13) 0.91055(13) 0.04900(10)
N2 N 0.91583(13) 0.96165(12) 0.24508(10)
O1 O 0.47883(11) 1.34142(10) 0.42615(8)
O2 O 0.29714(10) 1.24361(11) 0.33837(8)
O3 O 0.64834(12) 1.12664(11) 0.11396(8)
O4 O 0.65183(13) 0.96724(11) 0.29217(9)
O5 O 0.51932(13) 1.13831(12) 0.25733(9)
C1 C 0.96776(18) 1.00054(18) 0.33997(13)
C2 C 1.1037(2) 0.9874(2) 0.39017(15)
H1 H 1.132(2) 1.019(2) 0.450(2)
C3 C 1.18739(18) 0.9298(2) 0.34253(15)
H2 H 1.272(2) 0.918(2) 0.3762(18)
C4 C 1.13690(16) 0.89049(17) 0.24130(14)
C5 C 1.21888(17) 0.83675(19) 0.18271(17)
H3 H 1.312(2) 0.823(2) 0.2170(18)
C6 C 1.16619(19) 0.81017(18) 0.08397(17)
H4 H 1.216(2) 0.776(2) 0.0428(19)
C7 C 1.02674(18) 0.83276(15) 0.03370(14)
C8 C 0.9672(2) 0.81266(17) -0.07012(15)
H5 H 1.024(2) 0.782(2) -0.1115(19)
C9 C 0.8350(2) 0.83911(18) -0.11097(14)
H6 H 0.788(2) 0.830(2) -0.1812(19)
C10 C 0.76000(18) 0.88915(18) -0.04901(12)
H7 H 0.6700(19) 0.9137(19) -0.0759(15)
C11 C 0.94364(15) 0.88251(14) 0.09003(11)
C12 C 0.99989(15) 0.91083(14) 0.19525(12)
C13 C 0.46317(13) 1.11608(13) 0.44917(10)
C14 C 0.56850(14) 0.91029(14) 0.46086(11)
H8 H 0.615(2) 0.8458(19) 0.4299(16)
C15 C 0.41305(14) 1.24067(13) 0.39868(10)
C16 C 0.53312(13) 1.02482(14) 0.40907(10)
C17 C 0.56963(14) 1.04655(13) 0.31098(11)
H9 H 0.905(2) 1.0370(17) 0.3751(15)
H10 H 0.595(2) 1.143(2) 0.0510(14)
H11 H 0.596(2) 1.137(2) 0.1551(18)
Co1B Co 0.288189(18) 1.053862(18) 0.835541(14)
Co1A Co 0.288189(18) 1.446138(18) 0.335541(14)
Co1C Co 0.711811(18) 0.553862(18) 0.664459(14)
N1B N 0.18790(13) 1.08945(13) 0.95100(10)
N2B N 0.08417(13) 1.03835(12) 0.75492(10)
O1B O 0.52117(11) 0.65858(10) 0.57385(8)
O1A O 0.52117(11) 0.84142(10) 0.07385(8)
O1C O 0.47883(11) 1.15858(10) 0.92615(8)
O2B O 0.70286(10) 0.75639(11) 0.66163(8)
O2A O 0.70286(10) 0.74361(11) 0.16163(8)
O2C O 0.29714(10) 1.25639(11) 0.83837(8)
O3B O 0.35166(12) 0.87336(11) 0.88604(8)
O4B O 0.34817(13) 1.03276(11) 0.70783(9)
O5B O 0.48068(13) 0.86169(12) 0.74267(9)
C1B C 0.03224(18) 0.99946(18) 0.66003(13)
C2B C -0.1037(2) 1.0126(2) 0.60983(15)
H1B H -0.132(2) 0.981(2) 0.550(2)
C3B C -0.18739(18) 1.0702(2) 0.65747(15)
H2B H -0.272(2) 1.082(2) 0.6238(18)
C4B C -0.13690(16) 1.10951(17) 0.75870(14)
C5B C -0.21888(17) 1.16325(19) 0.81729(17)
H3B H -0.312(2) 1.177(2) 0.7830(18)
C6B C -0.16619(19) 1.18983(18) 0.91603(17)
H4B H -0.216(2) 1.224(2) 0.9572(19)
C7B C -0.02674(18) 1.16724(15) 0.96630(14)
C8B C 0.0328(2) 1.18734(17) 1.07012(15)
H5B H -0.024(2) 1.218(2) 1.1115(19)
C9B C 0.1650(2) 1.16089(18) 1.11097(14)
H6B H 0.212(2) 1.170(2) 1.1812(19)
C10B C 0.24000(18) 1.11085(18) 1.04901(12)
H7B H 0.3300(19) 1.0863(19) 1.0759(15)
C11B C 0.05636(15) 1.11749(14) 0.90997(11)
C12B C 0.00011(15) 1.08917(14) 0.80475(12)
C13B C 0.53683(13) 0.88392(13) 0.55083(10)
C14B C 0.43150(14) 1.08971(14) 0.53914(11)
H8B H 0.385(2) 1.1542(19) 0.5701(16)
C15B C 0.58695(14) 0.75933(13) 0.60132(10)
C16B C 0.46688(13) 0.97518(14) 0.59093(10)
C17B C 0.43037(14) 0.95345(13) 0.68902(11)
H9B H 0.095(2) 0.9630(17) 0.6249(15)
H10B H 0.405(2) 0.857(2) 0.9490(14)
H11B H 0.404(2) 0.863(2) 0.8449(18)
loop_
_geom_bond_atom_site_label_1
_geom_bond_atom_site_label_2
_geom_bond_site_symmetry_1
_geom_bond_site_symmetry_2
Co1 N1 1_555 1_555
N1 C10 1_555 1_555
N2 Co1 1_555 1_555
O1 C15 1_555 1_555
O2 C15 1_555 1_555
O3 Co1 1_555 1_555
O4 Co1 1_555 1_555
O5 C17 1_555 1_555
C1 N2 1_555 1_555
C2 C1 1_555 1_555
H1 C2 1_555 1_555
C3 C2 1_555 1_555
H2 C3 1_555 1_555
C4 C3 1_555 1_555
C5 C4 1_555 1_555
H3 C5 1_555 1_555
C6 C5 1_555 1_555
H4 C6 1_555 1_555
C7 C6 1_555 1_555
C8 C7 1_555 1_555
H5 C8 1_555 1_555
C9 C8 1_555 1_555
H6 C9 1_555 1_555
C10 C9 1_555 1_555
H7 C10 1_555 1_555
C11 N1 1_555 1_555
C12 N2 1_555 1_555
C13 C15 1_555 1_555
C14 H8 1_555 1_555
C16 C13 1_555 1_555
C17 O4 1_555 1_555
H9 C1 1_555 1_555
H10 O3 1_555 1_555
H11 O3 1_555 1_555
Co1B N1B 1_555 1_555
Co1A O1 1_555 1_555
Co1C O1B 1_555 1_555
N1B C10B 1_555 1_555
N2B Co1B 1_555 1_555
O1B C15B 1_555 1_555
O1A Co1 1_555 1_555
O1C Co1B 1_555 1_555
O2B Co1C 1_555 1_555
O2A Co1 1_555 1_555
O2C Co1B 1_555 1_555
O3B Co1B 1_555 1_555
O4B Co1B 1_555 1_555
O5B C17B 1_555 1_555
C1B N2B 1_555 1_555
C2B C1B 1_555 1_555
H1B C2B 1_555 1_555
C3B C2B 1_555 1_555
H2B C3B 1_555 1_555
C4B C3B 1_555 1_555
C5B C4B 1_555 1_555
H3B C5B 1_555 1_555
C6B C5B 1_555 1_555
H4B C6B 1_555 1_555
C7B C6B 1_555 1_555
C8B C7B 1_555 1_555
H5B C8B 1_555 1_555
C9B C8B 1_555 1_555
H6B C9B 1_555 1_555
C10B C9B 1_555 1_555
H7B C10B 1_555 1_555
C11B N1B 1_555 1_555
C12B N2B 1_555 1_555
C13B C14 1_555 1_555
C14B C13 1_555 1_555
H8B C14B 1_555 1_555
C15B O2B 1_555 1_555
C16B C13B 1_555 1_555
C17B O4B 1_555 1_555
H9B C1B 1_555 1_555
H10B O3B 1_555 1_555
H11B O3B 1_555 1_555
O2 Co1A 1_555 1_555
C4 C12 1_555 1_555
C7 C11 1_555 1_555
C11 C12 1_555 1_555
C14 C16 1_555 1_555
C16 C17 1_555 1_555
C4B C12B 1_555 1_555
C7B C11B 1_555 1_555
C11B C12B 1_555 1_555
C13B C15B 1_555 1_555
C14B C16B 1_555 1_555
C16B C17B 1_555 1_555

#END
