
#######################################################################
#
#                 Cambridge Crystallographic Data Centre
#                                CCDC 
#
#######################################################################
#
# If this CIF has been generated from an entry in the Cambridge 
# Structural Database, then it will include bibliographic, chemical, 
# crystal, experimental, refinement or atomic coordinate data resulting 
# from the CCDC's data processing and validation procedures.
#
#######################################################################

data_ABPENC
_symmetry_cell_setting           triclinic
_symmetry_space_group_name_H-M   'P -1'
_symmetry_Int_Tables_number      2
_space_group_name_Hall           '-P 1'
loop_
_symmetry_equiv_pos_site_id
_symmetry_equiv_pos_as_xyz
1 x,y,z
2 -x,-y,-z
_cell_length_a                   9.050(15)
_cell_length_b                   7.795(6)
_cell_length_c                   9.464(7)
_cell_angle_alpha                115.72(9)
_cell_angle_beta                 88.17(4)
_cell_angle_gamma                96.75(4)
_cell_volume                     597.185
loop_
_atom_site_label
_atom_site_type_symbol
_atom_site_fract_x
_atom_site_fract_y
_atom_site_fract_z
Br1 Br 0.12971 0.14002 -0.32072
S1 S -0.37380 0.13120 -0.29850
O1 O 0.10940 0.31120 -0.64850
O2 O 0.34100 0.33960 -0.56910
O3 O 0.12480 -0.05620 -0.95610
N1 N 0.35970 0.72990 -0.44860
C1 C 0.23510 0.40460 -0.60170
C2 C 0.25930 0.60960 -0.58880
C3 C -0.32860 0.38430 -0.26040
C4 C -0.47480 0.47360 -0.21960
C5 C -0.21460 0.48440 -0.12640
H1 H 0.16500 0.67000 -0.56600
H2 H 0.44600 0.66600 -0.45800
H3 H 0.31100 0.69600 -0.35600
H4 H 0.37000 0.87200 -0.45000
H5 H -0.55300 0.39600 -0.31700
H6 H -0.53000 0.45600 -0.14200
H7 H -0.44700 0.60900 -0.18600
H8 H -0.11300 0.43000 -0.14100
H9 H -0.20300 0.60300 -0.10000
H10 H -0.24600 0.45400 -0.05500
H11 H 0.097 0.032 -1.004
H12 H 0.24500 0.00400 -0.96500
Cd1 Cd 0.14438 0.01685 -0.67336
Br1A Br -0.12971 -0.14002 -0.67928
Cd1A Cd -0.14438 -0.01685 -0.32664
S1A S 0.37380 -0.13120 -0.70150
C2A C -0.25930 0.39040 -0.41120
N1A N -0.35970 0.27010 -0.55140
H2A H -0.44600 0.33400 -0.54200
H3A H -0.31100 0.30400 -0.64400
H4A H -0.37000 0.12800 -0.55000
C1A C -0.23510 0.59540 -0.39830
O1A O -0.10940 0.68880 -0.35150
Cd1A_2 Cd -0.14438 0.98315 -0.32664
O2A O -0.34100 0.66040 -0.43090
H1A H -0.16500 0.33000 -0.43400
O1A_2 O -0.10940 -0.31120 -0.35150
O2A_2 O -0.34100 -0.33960 -0.43090
O3A O -0.12480 0.05620 -0.04390
H11A H -0.097 -0.032 0.004
H12A H -0.24500 -0.00400 -0.03500
C3A C 0.32860 0.61570 -0.73960
S1A_2 S 0.37380 0.86880 -0.70150
Cd1_2 Cd 0.14438 1.01685 -0.67336
C4A C 0.47480 0.52640 -0.78040
H5A H 0.55300 0.60400 -0.68300
H6A H 0.53000 0.54400 -0.85800
H7A H 0.44700 0.39100 -0.81400
C5A C 0.21460 0.51560 -0.87360
H8A H 0.11300 0.57000 -0.85900
H9A H 0.20300 0.39700 -0.90000
H10A H 0.24600 0.54600 -0.94500
O4 O 0.84930 0.37820 -0.75310
H13 H 0.84200 0.50100 -0.70000
H14 H 0.91700 0.39200 -0.68400
O5 O 0.38950 0.01460 -0.08720
loop_
_geom_bond_atom_site_label_1
_geom_bond_atom_site_label_2
_geom_bond_site_symmetry_1
_geom_bond_site_symmetry_2
Br1 Cd1 1_555 1_555
S1 C3 1_555 1_555
O1 C1 1_555 1_555
O2 C1 1_555 1_555
O3 H11 1_555 1_555
N1 C2 1_555 1_555
C1 C2 1_555 1_555
C2 H1 1_555 1_555
C3 C4 1_555 1_555
C4 H5 1_555 1_555
C5 C3 1_555 1_555
H2 N1 1_555 1_555
H3 N1 1_555 1_555
H4 N1 1_555 1_555
H6 C4 1_555 1_555
H7 C4 1_555 1_555
H8 C5 1_555 1_555
H9 C5 1_555 1_555
H10 C5 1_555 1_555
H12 O3 1_555 1_555
Cd1 O1 1_555 1_555
O4 H13 1_555 1_555
H14 O4 1_555 1_555
Br1A Cd1 1_555 1_555
Cd1A Br1 1_555 1_555
S1A Cd1 1_555 1_555
C2A C3 1_555 1_555
N1A C2A 1_555 1_555
H2A N1A 1_555 1_555
H3A N1A 1_555 1_555
H4A N1A 1_555 1_555
C1A C2A 1_555 1_555
O1A C1A 1_555 1_555
Cd1A_2 O1A 1_555 1_555
O2A C1A 1_555 1_555
H1A C2A 1_555 1_555
O1A_2 Cd1A 1_555 1_555
O2A_2 Cd1A 1_555 1_555
O3A Cd1A 1_555 1_555
H11A O3A 1_555 1_555
H12A O3A 1_555 1_555
C3A C2 1_555 1_555
S1A_2 C3A 1_555 1_555
Cd1_2 S1A_2 1_555 1_555
C4A C3A 1_555 1_555
H5A C4A 1_555 1_555
H6A C4A 1_555 1_555
H7A C4A 1_555 1_555
C5A C3A 1_555 1_555
H8A C5A 1_555 1_555
H9A C5A 1_555 1_555
H10A C5A 1_555 1_555
S1 Cd1A 1_555 1_555
O2 Cd1 1_555 1_555
O3 Cd1 1_555 1_555
Br1A Cd1A 1_555 1_555
Cd1A_2 O2A 1_555 1_555

#END
