
#######################################################################
#
#                 Cambridge Crystallographic Data Centre
#                                CCDC 
#
#######################################################################
#
# If this CIF has been generated from an entry in the Cambridge 
# Structural Database, then it will include bibliographic, chemical, 
# crystal, experimental, refinement or atomic coordinate data resulting 
# from the CCDC's data processing and validation procedures.
#
#######################################################################

data_ABPZCU02
_symmetry_cell_setting           monoclinic
_symmetry_space_group_name_H-M   'C 2/c'
_symmetry_Int_Tables_number      15
_space_group_name_Hall           '-C 2yn'
loop_
_symmetry_equiv_pos_site_id
_symmetry_equiv_pos_as_xyz
1 x,y,z
2 1/2+x,1/2+y,z
3 -x,y,1/2-z
4 1/2-x,1/2+y,1/2-z
5 -x,-y,-z
6 1/2-x,1/2-y,-z
7 x,-y,1/2+z
8 1/2+x,1/2-y,1/2+z
_cell_length_a                   15.125(3)
_cell_length_b                   12.442(3)
_cell_length_c                   6.9920(14)
_cell_angle_alpha                90
_cell_angle_beta                 105.94(3)
_cell_angle_gamma                90
_cell_volume                     1265.2
loop_
_atom_site_label
_atom_site_type_symbol
_atom_site_fract_x
_atom_site_fract_y
_atom_site_fract_z
Cu1 Cu 0.5000 0.27438(2) 0.7500
O1 O 0.40555(11) 0.38319(12) 0.7526(2)
N1 N 0.58794(11) 0.15265(13) 0.7718(3)
C1 C 0.67871(15) 0.16125(18) 0.7963(3)
H1 H 0.7045 0.2295 0.8026
C2 C 0.73520(15) 0.0731(2) 0.8125(4)
H2 H 0.7980 0.0812 0.8291
C3 C 0.69626(17) -0.02798(19) 0.8034(4)
H3 H 0.7330 -0.0889 0.8148
C4 C 0.60263(17) -0.03842(17) 0.7772(4)
H4 H 0.5756 -0.1060 0.7697
C5 C 0.55013(13) 0.05400(15) 0.7625(3)
S1 S 0.5000 0.34601(5) 1.2500
O2 O 0.53483(15) 0.27996(13) 1.1136(3)
O3 O 0.42510(11) 0.41618(12) 1.1312(2)
H5 H 0.411(2) 0.432(3) 0.711(5)
H6 H 0.411(2) 0.392(2) 0.877(5)
C5B C 0.44987(13) 0.05400(15) 0.7375(3)
N1B N 0.41206(11) 0.15265(13) 0.7282(3)
C1B C 0.32129(15) 0.16125(18) 0.7037(3)
H1B H 0.2955 0.2295 0.6974
C2B C 0.26480(15) 0.0731(2) 0.6875(4)
H2B H 0.2020 0.0812 0.6709
C3B C 0.30374(17) -0.02798(19) 0.6966(4)
H3B H 0.2670 -0.0889 0.6852
C4B C 0.39737(17) -0.03842(17) 0.7228(4)
H4B H 0.4244 -0.1060 0.7303
O2B O 0.46517(15) 0.27996(13) 1.3864(3)
O3B O 0.57490(11) 0.41618(12) 1.3688(2)
O1B O 0.59445(11) 0.38319(12) 0.7474(2)
H5B H 0.589(2) 0.432(3) 0.789(5)
H6B H 0.589(2) 0.392(2) 0.623(5)
O2B_2 O 0.46517(15) 0.27996(13) 0.3864(3)
Cu1_2 Cu 0.5000 0.27438(2) 1.7500
loop_
_geom_bond_atom_site_label_1
_geom_bond_atom_site_label_2
_geom_bond_site_symmetry_1
_geom_bond_site_symmetry_2
Cu1 O1 1_555 1_555
O1 H5 1_555 1_555
N1 Cu1 1_555 1_555
C1 N1 1_555 1_555
H1 C1 1_555 1_555
C2 C1 1_555 1_555
H2 C2 1_555 1_555
C3 C2 1_555 1_555
H3 C3 1_555 1_555
C4 C3 1_555 1_555
H4 C4 1_555 1_555
C5 N1 1_555 1_555
S1 O2 1_555 1_555
O2 Cu1 1_555 1_555
O3 S1 1_555 1_555
H6 O1 1_555 1_555
C5B C5 1_555 1_555
N1B Cu1 1_555 1_555
C1B N1B 1_555 1_555
H1B C1B 1_555 1_555
C2B C1B 1_555 1_555
H2B C2B 1_555 1_555
C3B C2B 1_555 1_555
H3B C3B 1_555 1_555
C4B C5B 1_555 1_555
H4B C4B 1_555 1_555
O2B S1 1_555 1_555
O3B S1 1_555 1_555
O1B Cu1 1_555 1_555
H5B O1B 1_555 1_555
H6B O1B 1_555 1_555
O2B_2 Cu1 1_555 1_555
Cu1_2 O2B 1_555 1_555
C4 C5 1_555 1_555
C5B N1B 1_555 1_555
C3B C4B 1_555 1_555

#END
