
#######################################################################
#
#                 Cambridge Crystallographic Data Centre
#                                CCDC 
#
#######################################################################
#
# If this CIF has been generated from an entry in the Cambridge 
# Structural Database, then it will include bibliographic, chemical, 
# crystal, experimental, refinement or atomic coordinate data resulting 
# from the CCDC's data processing and validation procedures.
#
#######################################################################

data_ABPZCU07
_symmetry_cell_setting           monoclinic
_symmetry_space_group_name_H-M   'C 2/c'
_symmetry_Int_Tables_number      15
_space_group_name_Hall           '-C 2yn'
loop_
_symmetry_equiv_pos_site_id
_symmetry_equiv_pos_as_xyz
1 x,y,z
2 -x,y,1/2-z
3 1/2+x,1/2+y,z
4 1/2-x,1/2+y,1/2-z
5 -x,-y,-z
6 x,-y,1/2+z
7 1/2-x,1/2-y,-z
8 1/2+x,1/2-y,1/2+z
_cell_length_a                   15.129(3)
_cell_length_b                   12.462(3)
_cell_length_c                   7.0062(14)
_cell_angle_alpha                90
_cell_angle_beta                 106.00(3)
_cell_angle_gamma                90
_cell_volume                     1269.76
loop_
_atom_site_label
_atom_site_type_symbol
_atom_site_fract_x
_atom_site_fract_y
_atom_site_fract_z
Cu1 Cu 0.0000 0.27440(3) -0.7500
O1 O -0.09411(12) 0.38363(14) -0.7472(3)
H1 H -0.1508 0.3634 -0.7608
H2 H -0.0766 0.4523 -0.7444
N1 N -0.08782(14) 0.15270(17) -0.7719(3)
C1 C -0.17869(19) 0.1611(2) -0.7958(4)
H3 H -0.2045 0.2291 -0.8013
C2 C -0.2349(2) 0.0732(3) -0.8126(4)
H4 H -0.2977 0.0814 -0.8300
C3 C -0.1961(2) -0.0278(2) -0.8030(5)
H5 H -0.2328 -0.0885 -0.8135
C4 C -0.1027(2) -0.0381(2) -0.7776(4)
H6 H -0.0755 -0.1055 -0.7706
C5 C -0.05043(17) 0.0545(2) -0.7628(4)
S1 S 0.0000 0.34606(7) -0.2500
O2 O 0.03492(18) 0.28004(16) -0.3861(3)
O3 O 0.07481(14) 0.41617(15) -0.1315(3)
Cu1_2 Cu 0.0000 0.27440(3) 0.2500
O1A O 0.09411(12) 0.38363(14) -0.7528(3)
H1A H 0.1508 0.3634 -0.7392
H2A H 0.0766 0.4523 -0.7556
N1A N 0.08782(14) 0.15270(17) -0.7281(3)
C1A C 0.17869(19) 0.1611(2) -0.7042(4)
H3A H 0.2045 0.2291 -0.6987
C2A C 0.2349(2) 0.0732(3) -0.6874(4)
H4A H 0.2977 0.0814 -0.6700
C3A C 0.1961(2) -0.0278(2) -0.6970(5)
H5A H 0.2328 -0.0885 -0.6865
C4A C 0.1027(2) -0.0381(2) -0.7224(4)
H6A H 0.0755 -0.1055 -0.7294
C5A C 0.05043(17) 0.0545(2) -0.7372(4)
O2A O -0.03492(18) 0.28004(16) -0.1139(3)
O2A_2 O -0.03492(18) 0.28004(16) -1.1139(3)
O3A O -0.07481(14) 0.41617(15) -0.3685(3)
loop_
_geom_bond_atom_site_label_1
_geom_bond_atom_site_label_2
_geom_bond_site_symmetry_1
_geom_bond_site_symmetry_2
Cu1 O1 1_555 1_555
O1 H1 1_555 1_555
H2 O1 1_555 1_555
N1 Cu1 1_555 1_555
C1 N1 1_555 1_555
H3 C1 1_555 1_555
C2 C1 1_555 1_555
H4 C2 1_555 1_555
C3 C2 1_555 1_555
H5 C3 1_555 1_555
C4 C3 1_555 1_555
H6 C4 1_555 1_555
C5 N1 1_555 1_555
S1 O2 1_555 1_555
O2 Cu1 1_555 1_555
O3 S1 1_555 1_555
Cu1_2 O2A 1_555 1_555
O1A Cu1 1_555 1_555
H1A O1A 1_555 1_555
H2A O1A 1_555 1_555
N1A Cu1 1_555 1_555
C1A N1A 1_555 1_555
H3A C1A 1_555 1_555
C2A C1A 1_555 1_555
H4A C2A 1_555 1_555
C3A C2A 1_555 1_555
H5A C3A 1_555 1_555
C4A C3A 1_555 1_555
H6A C4A 1_555 1_555
C5A C5 1_555 1_555
O2A S1 1_555 1_555
O2A_2 Cu1 1_555 1_555
O3A S1 1_555 1_555
C4 C5 1_555 1_555
N1A C5A 1_555 1_555
C4A C5A 1_555 1_555

#END
