
#######################################################################
#
#                 Cambridge Crystallographic Data Centre
#                                CCDC 
#
#######################################################################
#
# If this CIF has been generated from an entry in the Cambridge 
# Structural Database, then it will include bibliographic, chemical, 
# crystal, experimental, refinement or atomic coordinate data resulting 
# from the CCDC's data processing and validation procedures.
#
#######################################################################

data_ABUDUY
_symmetry_cell_setting           monoclinic
_symmetry_space_group_name_H-M   'P n'
_symmetry_Int_Tables_number      7
_space_group_name_Hall           'P -2yac'
loop_
_symmetry_equiv_pos_site_id
_symmetry_equiv_pos_as_xyz
1 x,y,z
2 1/2+x,-y,1/2+z
_cell_length_a                   12.2946(13)
_cell_length_b                   15.6385(15)
_cell_length_c                   18.030(3)
_cell_angle_alpha                90
_cell_angle_beta                 91.692(2)
_cell_angle_gamma                90
_cell_volume                     3465.1
loop_
_atom_site_label
_atom_site_type_symbol
_atom_site_fract_x
_atom_site_fract_y
_atom_site_fract_z
K1 K 0.61832(9) 0.15536(9) 0.70543(6)
F1 F 1.1015(3) 0.0073(3) 0.8657(2)
F2 F 1.1021(3) 0.0953(3) 0.7755(2)
F3 F 1.0911(4) -0.0383(3) 0.7537(3)
F4 F 0.7079(3) 0.0217(2) 0.97049(19)
F5 F 0.6116(3) 0.0934(3) 0.89093(19)
F6 F 0.6109(3) -0.0411(2) 0.8841(2)
N1 N 0.7667(4) 0.0367(3) 0.6245(3)
N2 N 0.7539(4) 0.0345(2) 0.7754(3)
C1 C 0.7705(7) 0.0410(3) 0.5493(3)
H1 H 0.7040 0.0359 0.5215
C2 C 0.8630(6) 0.0520(4) 0.5114(3)
H2 H 0.8610 0.0540 0.4587
C3 C 0.9614(6) 0.0603(4) 0.5516(3)
H3 H 1.0276 0.0693 0.5269
C4 C 0.9599(6) 0.0551(4) 0.6276(4)
H4 H 1.0263 0.0600 0.6557
C5 C 0.8638(6) 0.0430(3) 0.6641(4)
C6 C 0.8528(5) 0.0353(3) 0.7452(3)
C7 C 0.9360(5) 0.0271(3) 0.8023(3)
C8 C 0.8805(5) 0.0243(3) 0.8693(3)
H5 H 0.9120 0.0203 0.9179
C9 C 0.7725(5) 0.0285(3) 0.8506(3)
C10 C 1.0542(6) 0.0229(5) 0.7998(4)
C11 C 0.6774(5) 0.0263(4) 0.8985(3)
O1 O 0.4505(3) 0.0190(2) 0.7048(2)
C12 C 0.4447(7) 0.0405(4) 0.5756(4)
H6 H 0.3987 0.0653 0.5358
H7 H 0.4657 -0.0177 0.5619
H8 H 0.5102 0.0756 0.5831
C13 C 0.3835(6) 0.0380(4) 0.6450(4)
H9 H 0.3488 0.0943 0.6530
H10 H 0.3253 -0.0055 0.6405
C14 C 0.3916(5) 0.0031(4) 0.7733(4)
H11 H 0.4383 -0.0317 0.8073
H12 H 0.3255 -0.0307 0.7609
C15 C 0.3591(5) 0.0823(4) 0.8126(3)
H13 H 0.3224 0.0670 0.8583
H14 H 0.3094 0.1157 0.7804
H15 H 0.4239 0.1164 0.8250
K2 K 0.63617(10) 0.40565(9) 0.70692(6)
F7 F 0.1524(3) 0.2569(3) 0.5435(2)
F8 F 0.1646(3) 0.2172(2) 0.6576(2)
F9 F 0.1523(3) 0.3509(3) 0.6313(2)
F10 F 0.6372(3) 0.3446(2) 0.50835(19)
F11 F 0.5391(3) 0.2650(3) 0.43536(17)
F12 F 0.6393(3) 0.2083(2) 0.5206(2)
N3 N 0.4905(5) 0.2874(3) 0.7835(3)
N4 N 0.5012(4) 0.2872(3) 0.6312(3)
C16 C 0.4891(7) 0.2942(4) 0.8565(4)
H16 H 0.5558 0.2880 0.8839
C17 C 0.3938(6) 0.3102(4) 0.8959(3)
H17 H 0.3950 0.3127 0.9485
C18 C 0.2988(6) 0.3220(4) 0.8548(3)
H18 H 0.2333 0.3347 0.8791
C19 C 0.2982(5) 0.3156(3) 0.7780(3)
H19 H 0.2331 0.3240 0.7493
C20 C 0.3967(5) 0.2964(3) 0.7440(3)
C21 C 0.3997(5) 0.2882(3) 0.6619(3)
C22 C 0.3199(5) 0.2826(3) 0.6061(3)
C23 C 0.3707(5) 0.2747(3) 0.5390(3)
H20 H 0.3375 0.2680 0.4911
C24 C 0.4813(5) 0.2787(3) 0.5572(3)
C25 C 0.1988(6) 0.2765(4) 0.6100(4)
C26 C 0.5709(5) 0.2740(4) 0.5062(3)
O2 O 0.7931(3) 0.2725(2) 0.73342(18)
C27 C 0.8624(6) 0.3305(4) 0.8517(3)
H21 H 0.8645 0.3181 0.9050
H22 H 0.8187 0.3819 0.8421
H23 H 0.9366 0.3400 0.8351
C28 C 0.8140(5) 0.2581(4) 0.8113(3)
H24 H 0.8632 0.2083 0.8171
H25 H 0.7445 0.2431 0.8344
C29 C 0.8947(5) 0.2772(3) 0.6948(3)
H26 H 0.9408 0.2270 0.7071
H27 H 0.9351 0.3296 0.7094
C30 C 0.8662(6) 0.2788(4) 0.6127(3)
H28 H 0.9329 0.2746 0.5845
H29 H 0.8287 0.3324 0.6002
H30 H 0.8184 0.2304 0.6002
K3 K 0.62936(9) 0.65667(9) 0.69344(6)
F13 F 1.1026(3) 0.6062(3) 0.7473(3)
F14 F 1.1116(3) 0.5638(3) 0.8590(2)
F15 F 1.1066(3) 0.4740(2) 0.7714(2)
F16 F 0.7201(3) 0.5598(3) 0.96799(18)
F17 F 0.6181(3) 0.6149(3) 0.8828(2)
F18 F 0.6266(3) 0.4814(2) 0.8919(2)
N5 N 0.7715(5) 0.5291(3) 0.6224(3)
N6 N 0.7610(4) 0.5372(3) 0.7730(3)
C31 C 0.7734(7) 0.5187(4) 0.5469(4)
H31 H 0.7069 0.5234 0.5191
C32 C 0.8646(6) 0.5022(4) 0.5105(3)
H32 H 0.8614 0.4937 0.4583
C33 C 0.9635(6) 0.4975(5) 0.5492(3)
H33 H 1.0292 0.4876 0.5241
C34 C 0.9640(5) 0.5075(4) 0.6239(3)
H34 H 1.0309 0.5028 0.6513
C35 C 0.8689(6) 0.5243(3) 0.6614(4)
C36 C 0.8593(6) 0.5365(3) 0.7420(3)
C37 C 0.9447(5) 0.5467(3) 0.7981(3)
C38 C 0.8904(5) 0.5574(3) 0.8658(3)
H35 H 0.9223 0.5679 0.9135
C39 C 0.7816(5) 0.5495(3) 0.8474(3)
C40 C 1.0627(6) 0.5481(5) 0.7935(4)
C41 C 0.6882(5) 0.5515(4) 0.8971(3)
O3 O 0.4665(3) 0.5240(2) 0.6679(2)
C42 C 0.4128(7) 0.5759(4) 0.5462(3)
H36 H 0.4080 0.5597 0.4937
H37 H 0.4633 0.6240 0.5527
H38 H 0.3407 0.5927 0.5628
C43 C 0.4519(5) 0.5040(4) 0.5897(3)
H39 H 0.5223 0.4847 0.5703
H40 H 0.3996 0.4562 0.5839
C44 C 0.3679(4) 0.5326(3) 0.7063(3)
H41 H 0.3207 0.4825 0.6960
H42 H 0.3288 0.5845 0.6890
C45 C 0.3927(5) 0.5389(3) 0.7879(3)
H43 H 0.3248 0.5466 0.8143
H44 H 0.4408 0.5879 0.7977
H45 H 0.4287 0.4863 0.8051
K4 K 0.63302(10) -0.09277(9) 0.69633(7)
F19 F 0.1658(3) -0.2815(3) 0.6208(2)
F20 F 0.1616(3) -0.2024(3) 0.5235(2)
F21 F 0.1629(3) -0.1443(3) 0.6321(3)
F22 F 0.6533(3) -0.1363(3) 0.5123(2)
F23 F 0.6467(3) -0.2743(3) 0.5039(2)
F24 F 0.5567(3) -0.1970(3) 0.42561(18)
N7 N 0.4898(5) -0.2191(3) 0.7715(3)
N8 N 0.5077(4) -0.2134(3) 0.6203(3)
C46 C 0.4848(6) -0.2238(4) 0.8444(3)
H46 H 0.5512 -0.2218 0.8727
C47 C 0.3885(6) -0.2315(4) 0.8826(3)
H47 H 0.3883 -0.2343 0.9352
C48 C 0.2956(6) -0.2348(5) 0.8410(3)
H48 H 0.2280 -0.2410 0.8645
C49 C 0.2978(5) -0.2291(4) 0.7641(3)
H49 H 0.2321 -0.2299 0.7350
C50 C 0.3974(5) -0.2222(3) 0.7307(3)
C51 C 0.4041(5) -0.2158(3) 0.6490(3)
C52 C 0.3273(5) -0.2061(3) 0.5910(3)
C53 C 0.3818(5) -0.1990(3) 0.5253(3)
H50 H 0.3511 -0.1926 0.4766
C54 C 0.4923(5) -0.2033(3) 0.5463(3)
C55 C 0.5836(6) -0.2024(4) 0.4974(3)
C56 C 0.2053(6) -0.2082(5) 0.5928(4)
O4 O 0.8041(4) -0.2265(3) 0.6964(3)
C57 C 0.8138(7) -0.2056(4) 0.8250(4)
H51 H 0.8639 -0.1957 0.8674
H52 H 0.7724 -0.2581 0.8331
H53 H 0.7635 -0.1572 0.8198
C58 C 0.8759(6) -0.2142(4) 0.7572(4)
H54 H 0.9197 -0.1620 0.7497
H55 H 0.9262 -0.2634 0.7620
C59 C 0.8680(6) -0.2490(5) 0.6249(4)
H56 H 0.9322 -0.2848 0.6377
H57 H 0.8205 -0.2807 0.5891
C60 C 0.9007(5) -0.1706(4) 0.5942(4)
H58 H 0.9426 -0.1815 0.5497
H59 H 0.9461 -0.1394 0.6307
H60 H 0.8363 -0.1364 0.5808
K3_2 K 0.62936(9) -0.34333(9) 0.69344(6)
N7_2 N 0.4898(5) 0.7809(3) 0.7715(3)
N8_2 N 0.5077(4) 0.7866(3) 0.6203(3)
O4_2 O 0.8041(4) 0.7735(3) 0.6964(3)
loop_
_geom_bond_atom_site_label_1
_geom_bond_atom_site_label_2
_geom_bond_site_symmetry_1
_geom_bond_site_symmetry_2
K1 N1 1_555 1_555
F1 C10 1_555 1_555
F2 C10 1_555 1_555
F3 C10 1_555 1_555
F4 C11 1_555 1_555
F5 C11 1_555 1_555
F6 C11 1_555 1_555
N1 C1 1_555 1_555
N2 K1 1_555 1_555
C1 H1 1_555 1_555
C2 C1 1_555 1_555
H2 C2 1_555 1_555
C3 C2 1_555 1_555
H3 C3 1_555 1_555
C4 C3 1_555 1_555
H4 C4 1_555 1_555
C5 N1 1_555 1_555
C6 N2 1_555 1_555
C7 C6 1_555 1_555
C8 C7 1_555 1_555
H5 C8 1_555 1_555
C9 N2 1_555 1_555
C10 C7 1_555 1_555
C11 C9 1_555 1_555
O1 K1 1_555 1_555
C12 H6 1_555 1_555
H7 C12 1_555 1_555
H8 C12 1_555 1_555
C13 O1 1_555 1_555
H9 C13 1_555 1_555
H10 C13 1_555 1_555
C14 O1 1_555 1_555
H11 C14 1_555 1_555
H12 C14 1_555 1_555
C15 C14 1_555 1_555
H13 C15 1_555 1_555
H14 C15 1_555 1_555
H15 C15 1_555 1_555
K2 N3 1_555 1_555
F7 C25 1_555 1_555
F8 C25 1_555 1_555
F9 C25 1_555 1_555
F10 C26 1_555 1_555
F11 C26 1_555 1_555
F12 C26 1_555 1_555
N3 K1 1_555 1_555
N4 K1 1_555 1_555
C16 N3 1_555 1_555
H16 C16 1_555 1_555
C17 C16 1_555 1_555
H17 C17 1_555 1_555
C18 C17 1_555 1_555
H18 C18 1_555 1_555
C19 C18 1_555 1_555
H19 C19 1_555 1_555
C20 N3 1_555 1_555
C21 N4 1_555 1_555
C22 C21 1_555 1_555
C23 C22 1_555 1_555
H20 C23 1_555 1_555
C24 N4 1_555 1_555
C25 C22 1_555 1_555
C26 C24 1_555 1_555
O2 K1 1_555 1_555
C27 H21 1_555 1_555
H22 C27 1_555 1_555
H23 C27 1_555 1_555
C28 O2 1_555 1_555
H24 C28 1_555 1_555
H25 C28 1_555 1_555
C29 O2 1_555 1_555
H26 C29 1_555 1_555
H27 C29 1_555 1_555
C30 C29 1_555 1_555
H28 C30 1_555 1_555
H29 C30 1_555 1_555
H30 C30 1_555 1_555
K3 N5 1_555 1_555
F13 C40 1_555 1_555
F14 C40 1_555 1_555
F15 C40 1_555 1_555
F16 C41 1_555 1_555
F17 C41 1_555 1_555
F18 C41 1_555 1_555
N5 K2 1_555 1_555
N6 K2 1_555 1_555
C31 N5 1_555 1_555
H31 C31 1_555 1_555
C32 C31 1_555 1_555
H32 C32 1_555 1_555
C33 C32 1_555 1_555
H33 C33 1_555 1_555
C34 C33 1_555 1_555
H34 C34 1_555 1_555
C35 N5 1_555 1_555
C36 N6 1_555 1_555
C37 C36 1_555 1_555
C38 C37 1_555 1_555
H35 C38 1_555 1_555
C39 N6 1_555 1_555
C40 C37 1_555 1_555
C41 C39 1_555 1_555
O3 K2 1_555 1_555
C42 H36 1_555 1_555
H37 C42 1_555 1_555
H38 C42 1_555 1_555
C43 O3 1_555 1_555
H39 C43 1_555 1_555
H40 C43 1_555 1_555
C44 O3 1_555 1_555
H41 C44 1_555 1_555
H42 C44 1_555 1_555
C45 C44 1_555 1_555
H43 C45 1_555 1_555
H44 C45 1_555 1_555
H45 C45 1_555 1_555
K4 N1 1_555 1_555
F19 C56 1_555 1_555
F20 C56 1_555 1_555
F21 C56 1_555 1_555
F22 C55 1_555 1_555
F23 C55 1_555 1_555
F24 C55 1_555 1_555
N7 K4 1_555 1_555
N8 K4 1_555 1_555
C46 N7 1_555 1_555
H46 C46 1_555 1_555
C47 C46 1_555 1_555
H47 C47 1_555 1_555
C48 C47 1_555 1_555
H48 C48 1_555 1_555
C49 C48 1_555 1_555
H49 C49 1_555 1_555
C50 N7 1_555 1_555
C51 N8 1_555 1_555
C52 C51 1_555 1_555
C53 C52 1_555 1_555
H50 C53 1_555 1_555
C54 N8 1_555 1_555
C55 C54 1_555 1_555
C56 C52 1_555 1_555
O4 K4 1_555 1_555
C57 H51 1_555 1_555
H52 C57 1_555 1_555
H53 C57 1_555 1_555
C58 O4 1_555 1_555
H54 C58 1_555 1_555
H55 C58 1_555 1_555
C59 O4 1_555 1_555
H56 C59 1_555 1_555
H57 C59 1_555 1_555
C60 C59 1_555 1_555
H58 C60 1_555 1_555
H59 C60 1_555 1_555
H60 C60 1_555 1_555
K3_2 N7 1_555 1_555
N7_2 K3 1_555 1_555
N8_2 K3 1_555 1_555
O4_2 K3 1_555 1_555
N2 K4 1_555 1_555
C4 C5 1_555 1_555
C5 C6 1_555 1_555
C8 C9 1_555 1_555
O1 K4 1_555 1_555
C12 C13 1_555 1_555
K2 N4 1_555 1_555
K2 O2 1_555 1_555
C19 C20 1_555 1_555
C20 C21 1_555 1_555
C23 C24 1_555 1_555
C27 C28 1_555 1_555
K3 N6 1_555 1_555
K3 O3 1_555 1_555
C34 C35 1_555 1_555
C35 C36 1_555 1_555
C38 C39 1_555 1_555
C42 C43 1_555 1_555
N8 K3_2 1_555 1_555
C49 C50 1_555 1_555
C50 C51 1_555 1_555
C53 C54 1_555 1_555
O4 K3_2 1_555 1_555
C57 C58 1_555 1_555

#END
