
#######################################################################
#
#                 Cambridge Crystallographic Data Centre
#                                CCDC 
#
#######################################################################
#
# If this CIF has been generated from an entry in the Cambridge 
# Structural Database, then it will include bibliographic, chemical, 
# crystal, experimental, refinement or atomic coordinate data resulting 
# from the CCDC's data processing and validation procedures.
#
#######################################################################

data_ABUFOU
_symmetry_cell_setting           monoclinic
_symmetry_space_group_name_H-M   'P 21/c'
_symmetry_Int_Tables_number      14
_space_group_name_Hall           '-P 2ybc'
loop_
_symmetry_equiv_pos_site_id
_symmetry_equiv_pos_as_xyz
1 x,y,z
2 -x,1/2+y,1/2-z
3 -x,-y,-z
4 x,1/2-y,1/2+z
_cell_length_a                   13.088(5)
_cell_length_b                   6.461(2)
_cell_length_c                   7.461(3)
_cell_angle_alpha                90
_cell_angle_beta                 90.175(5)
_cell_angle_gamma                90
_cell_volume                     630.911
loop_
_atom_site_label
_atom_site_type_symbol
_atom_site_fract_x
_atom_site_fract_y
_atom_site_fract_z
Mn1 Mn 0.5000 0.0000 0.5000
C1 C 0.3526(3) 0.2472(5) 0.2508(4)
O1 O 0.4051(2) 0.0897(4) 0.2727(4)
C2 C 0.2047(4) 0.0635(8) 0.3771(6)
H1 H 0.2479 -0.0497 0.3917
C3 C 0.0746(3) -0.1479(7) 0.5187(7)
H2 H 0.1230 -0.2529 0.5266
C4 C 0.0995(3) 0.0389(7) 0.4357(6)
C5 C 0.2453(3) 0.2354(8) 0.3036(7)
H3 H 0.2037 0.3503 0.2859
O2 O 0.3887(2) 0.4180(4) 0.1960(4)
C6 C 0.0224(4) 0.1775(9) 0.4104(7)
H4 H 0.0350 0.2960 0.3433
O3 O 0.4191(2) -0.2990(4) 0.4955(4)
H5 H 0.414(4) -0.407(5) 0.563(5)
H6 H 0.390(3) -0.333(7) 0.398(4)
Mn1_2 Mn -0.5000 0.0000 0.5000
Mn1A Mn -0.5000 -0.5000 1.0000
Mn1A_2 Mn 0.5000 0.5000 0.0000
C1B C -0.3526(3) -0.2472(5) 0.7492(4)
O1B O -0.4051(2) -0.0897(4) 0.7273(4)
O1B_2 O 0.5949(2) -0.0897(4) 0.7273(4)
C2B C -0.2047(4) -0.0635(8) 0.6229(6)
H1B H -0.2479 0.0497 0.6083
C3B C -0.0746(3) 0.1479(7) 0.4813(7)
H2B H -0.1230 0.2529 0.4734
C4B C -0.0995(3) -0.0389(7) 0.5643(6)
C5B C -0.2453(3) -0.2354(8) 0.6964(7)
H3B H -0.2037 -0.3503 0.7141
O2B O -0.3887(2) -0.4180(4) 0.8040(4)
O2A O 0.6113(2) -0.0820(4) 0.3040(4)
O2C O 0.3887(2) 0.0820(4) 0.6960(4)
C6B C -0.0224(4) -0.1775(9) 0.5896(7)
H4B H -0.0350 -0.2960 0.6567
O3B O 0.5809(2) 0.2990(4) 0.5045(4)
H5B H 0.586(4) 0.407(5) 0.437(5)
H6B H 0.610(3) 0.333(7) 0.602(4)
loop_
_geom_bond_atom_site_label_1
_geom_bond_atom_site_label_2
_geom_bond_site_symmetry_1
_geom_bond_site_symmetry_2
Mn1 O1 1_555 1_555
C1 O1 1_555 1_555
C2 H1 1_555 1_555
C3 H2 1_555 1_555
C4 C2 1_555 1_555
C5 C1 1_555 1_555
H3 C5 1_555 1_555
O2 C1 1_555 1_555
C6 C4 1_555 1_555
H4 C6 1_555 1_555
O3 Mn1 1_555 1_555
H5 O3 1_555 1_555
H6 O3 1_555 1_555
Mn1_2 O1B 1_555 1_555
Mn1A O2B 1_555 1_555
Mn1A_2 O2 1_555 1_555
C1B O1B 1_555 1_555
O1B_2 Mn1 1_555 1_555
C2B H1B 1_555 1_555
C3B C6 1_555 1_555
H2B C3B 1_555 1_555
C4B C2B 1_555 1_555
C5B C1B 1_555 1_555
H3B C5B 1_555 1_555
O2B C1B 1_555 1_555
O2A Mn1 1_555 1_555
O2C Mn1 1_555 1_555
C6B C3 1_555 1_555
H4B C6B 1_555 1_555
O3B Mn1 1_555 1_555
H5B O3B 1_555 1_555
H6B O3B 1_555 1_555
C2 C5 1_555 1_555
C3 C4 1_555 1_555
C2B C5B 1_555 1_555
C3B C4B 1_555 1_555
C4B C6B 1_555 1_555

#END
