
#######################################################################
#
#                 Cambridge Crystallographic Data Centre
#                                CCDC 
#
#######################################################################
#
# If this CIF has been generated from an entry in the Cambridge 
# Structural Database, then it will include bibliographic, chemical, 
# crystal, experimental, refinement or atomic coordinate data resulting 
# from the CCDC's data processing and validation procedures.
#
#######################################################################

data_ABUFUA
_symmetry_cell_setting           monoclinic
_symmetry_space_group_name_H-M   'P 21/c'
_symmetry_Int_Tables_number      14
_space_group_name_Hall           '-P 2ybc'
loop_
_symmetry_equiv_pos_site_id
_symmetry_equiv_pos_as_xyz
1 x,y,z
2 -x,1/2+y,1/2-z
3 -x,-y,-z
4 x,1/2-y,1/2+z
_cell_length_a                   13.058(6)
_cell_length_b                   6.386(3)
_cell_length_c                   7.409(3)
_cell_angle_alpha                90
_cell_angle_beta                 90.001(7)
_cell_angle_gamma                90
_cell_volume                     617.825
loop_
_atom_site_label
_atom_site_type_symbol
_atom_site_fract_x
_atom_site_fract_y
_atom_site_fract_z
Fe1 Fe 0.5000 0.0000 0.5000
C1 C 0.3552(5) 0.2471(10) 0.2500(9)
O1 O 0.4105(4) 0.0892(8) 0.2698(7)
C2 C 0.2062(6) 0.0625(13) 0.3762(11)
H1 H 0.2489 -0.0535 0.3850
C3 C 0.0733(6) -0.1515(12) 0.5219(12)
H2 H 0.1219 -0.2572 0.5332
C4 C 0.1002(6) 0.0359(13) 0.4382(12)
C5 C 0.2470(6) 0.2364(13) 0.3088(12)
H3 H 0.2063 0.3552 0.2982
O2 O 0.3870(5) 0.4193(8) 0.1875(8)
C6 C 0.0239(7) 0.1830(14) 0.4120(13)
H4 H 0.0385 0.3051 0.3486
O3 O 0.4203(5) -0.2914(7) 0.4925(8)
H5 H 0.413(7) -0.384(10) 0.574(7)
H6 H 0.400(7) -0.346(12) 0.393(6)
Fe1_2 Fe -0.5000 0.0000 0.5000
Fe1A Fe -0.5000 -0.5000 1.0000
Fe1A_2 Fe 0.5000 0.5000 0.0000
C1B C -0.3552(5) -0.2471(10) 0.7500(9)
O1B O -0.4105(4) -0.0892(8) 0.7302(7)
O1B_2 O 0.5895(4) -0.0892(8) 0.7302(7)
C2B C -0.2062(6) -0.0625(13) 0.6238(11)
H1B H -0.2489 0.0535 0.6150
C3B C -0.0733(6) 0.1515(12) 0.4781(12)
H2B H -0.1219 0.2572 0.4668
C4B C -0.1002(6) -0.0359(13) 0.5618(12)
C5B C -0.2470(6) -0.2364(13) 0.6912(12)
H3B H -0.2063 -0.3552 0.7018
O2B O -0.3870(5) -0.4193(8) 0.8125(8)
O2A O 0.6130(5) -0.0807(8) 0.3125(8)
O2C O 0.3870(5) 0.0807(8) 0.6875(8)
C6B C -0.0239(7) -0.1830(14) 0.5880(13)
H4B H -0.0385 -0.3051 0.6514
O3B O 0.5797(5) 0.2914(7) 0.5075(8)
H5B H 0.587(7) 0.384(10) 0.426(7)
H6B H 0.600(7) 0.346(12) 0.607(6)
loop_
_geom_bond_atom_site_label_1
_geom_bond_atom_site_label_2
_geom_bond_site_symmetry_1
_geom_bond_site_symmetry_2
Fe1 O1 1_555 1_555
C1 O1 1_555 1_555
C2 H1 1_555 1_555
C3 H2 1_555 1_555
C4 C2 1_555 1_555
C5 C1 1_555 1_555
H3 C5 1_555 1_555
O2 C1 1_555 1_555
C6 C4 1_555 1_555
H4 C6 1_555 1_555
O3 Fe1 1_555 1_555
H5 O3 1_555 1_555
H6 O3 1_555 1_555
Fe1_2 O1B 1_555 1_555
Fe1A O2B 1_555 1_555
Fe1A_2 O2 1_555 1_555
C1B O1B 1_555 1_555
O1B_2 Fe1 1_555 1_555
C2B H1B 1_555 1_555
C3B C6 1_555 1_555
H2B C3B 1_555 1_555
C4B C2B 1_555 1_555
C5B C1B 1_555 1_555
H3B C5B 1_555 1_555
O2B C1B 1_555 1_555
O2A Fe1 1_555 1_555
O2C Fe1 1_555 1_555
C6B C3 1_555 1_555
H4B C6B 1_555 1_555
O3B Fe1 1_555 1_555
H5B O3B 1_555 1_555
H6B O3B 1_555 1_555
C2 C5 1_555 1_555
C3 C4 1_555 1_555
C2B C5B 1_555 1_555
C3B C4B 1_555 1_555
C4B C6B 1_555 1_555

#END
