
#######################################################################
#
#                 Cambridge Crystallographic Data Centre
#                                CCDC 
#
#######################################################################
#
# If this CIF has been generated from an entry in the Cambridge 
# Structural Database, then it will include bibliographic, chemical, 
# crystal, experimental, refinement or atomic coordinate data resulting 
# from the CCDC's data processing and validation procedures.
#
#######################################################################

data_ABULAL
_symmetry_cell_setting           monoclinic
_symmetry_space_group_name_H-M   'P 21/n'
_symmetry_Int_Tables_number      14
_space_group_name_Hall           '-P 2yn'
loop_
_symmetry_equiv_pos_site_id
_symmetry_equiv_pos_as_xyz
1 x,y,z
2 1/2+x,1/2-y,1/2+z
3 -x,-y,-z
4 1/2-x,1/2+y,1/2-z
_cell_length_a                   12.3835(2)
_cell_length_b                   10.9430(2)
_cell_length_c                   16.64540(10)
_cell_angle_alpha                90.00
_cell_angle_beta                 100.0360(5)
_cell_angle_gamma                90.00
_cell_volume                     2221.15
loop_
_atom_site_label
_atom_site_type_symbol
_atom_site_fract_x
_atom_site_fract_y
_atom_site_fract_z
Ag1 Ag 0.60527(3) 0.00587(3) 0.24256(3)
Ag2 Ag 0.38971(3) -0.48368(4) 0.25313(3)
N1 N 0.3742(3) -0.2838(3) 0.3050(2)
N2 N 0.2677(3) -0.0943(4) 0.3066(3)
N3 N 0.4002(3) -0.1540(4) 0.4342(2)
N4 N 0.4663(3) -0.0851(4) 0.3038(2)
C1 C 0.4621(4) -0.2131(4) 0.2729(3)
H1 H 0.5326 -0.2522 0.2902
H2 H 0.4467 -0.2128 0.2137
C2 C 0.3975(4) -0.2793(4) 0.4022(3)
H3 H 0.3409 -0.3250 0.4227
H4 H 0.4672 -0.3186 0.4222
C3 C 0.2670(4) -0.2232(4) 0.2764(3)
H5 H 0.2094 -0.2687 0.2958
H6 H 0.2515 -0.2235 0.2172
C4 C 0.2937(4) -0.0960(4) 0.4038(3)
H7 H 0.2944 -0.0128 0.4241
H8 H 0.2363 -0.1403 0.4243
C5 C 0.3576(4) -0.0288(4) 0.2743(3)
H9 H 0.3426 -0.0307 0.2151
H10 H 0.3592 0.0560 0.2913
C6 C 0.4866(4) -0.0866(4) 0.4009(3)
H11 H 0.5572 -0.1241 0.4209
H12 H 0.4894 -0.0031 0.4207
N5 N 0.6426(3) 0.2082(3) 0.2834(3)
N6 N 0.7495(3) 0.3969(3) 0.2918(2)
N7 N 0.5512(3) 0.4042(4) 0.2955(3)
N8 N 0.6806(3) 0.3230(4) 0.4186(3)
C7 C 0.5408(4) 0.2801(4) 0.2578(3)
H13 H 0.4794 0.2375 0.2742
H14 H 0.5264 0.2877 0.1989
C8 C 0.6680(4) 0.2018(4) 0.3802(3)
H15 H 0.6088 0.1588 0.3993
H16 H 0.7348 0.1553 0.3972
C9 C 0.7351(4) 0.2733(4) 0.2539(3)
H17 H 0.8022 0.2266 0.2684
H18 H 0.7190 0.2809 0.1950
C10 C 0.7709(4) 0.3852(5) 0.3886(3)
H19 H 0.8384 0.3402 0.4061
H20 H 0.7803 0.4662 0.4124
C11 C 0.6447(4) 0.4654(4) 0.2656(3)
H21 H 0.6527 0.5480 0.2869
H22 H 0.6291 0.4701 0.2065
C12 C 0.5785(4) 0.3911(5) 0.3918(3)
H23 H 0.5851 0.4718 0.4162
H24 H 0.5186 0.3492 0.4106
N6C N 0.7505(3) -0.1031(3) 0.2082(2)
N2C N 0.2323(3) -0.5943(4) 0.1934(3)
N7_2 N 0.5512(3) -0.5958(4) 0.2955(3)
Ag2C Ag 0.11029(3) 0.01632(4) 0.24687(3)
Ag1C Ag 0.89473(3) 0.50587(3) 0.25744(3)
Ag2_2 Ag 0.38971(3) 0.51632(4) 0.25313(3)
Cr1 Cr 0.28638(7) 0.31866(7) 0.47070(5)
Cr2 Cr 0.06751(8) 0.17193(8) 0.47500(6)
O1 O 0.3448(4) 0.2064(3) 0.4299(2)
O2 O 0.3272(3) 0.3233(3) 0.5753(2)
O3 O 0.3166(4) 0.4445(4) 0.4267(3)
O4 O 0.1392(3) 0.3062(4) 0.4473(3)
O5 O 0.1507(4) 0.0904(4) 0.5416(3)
O6 O 0.0258(5) 0.1011(5) 0.3858(3)
O7 O -0.0330(4) 0.2202(5) 0.5197(3)
O8 O 0.4737(4) 0.0365(5) 0.1011(3)
loop_
_geom_bond_atom_site_label_1
_geom_bond_atom_site_label_2
_geom_bond_site_symmetry_1
_geom_bond_site_symmetry_2
Ag1 N4 1_555 1_555
Ag2 N1 1_555 1_555
Cr1 O1 1_555 1_555
Cr2 O4 1_555 1_555
O2 Cr1 1_555 1_555
O3 Cr1 1_555 1_555
O4 Cr1 1_555 1_555
O5 Cr2 1_555 1_555
O6 Cr2 1_555 1_555
O7 Cr2 1_555 1_555
N1 C1 1_555 1_555
N2 C3 1_555 1_555
N3 C2 1_555 1_555
N4 C1 1_555 1_555
C1 H1 1_555 1_555
H2 C1 1_555 1_555
C2 N1 1_555 1_555
H3 C2 1_555 1_555
H4 C2 1_555 1_555
C3 N1 1_555 1_555
H5 C3 1_555 1_555
H6 C3 1_555 1_555
C4 N2 1_555 1_555
H7 C4 1_555 1_555
H8 C4 1_555 1_555
C5 N2 1_555 1_555
H9 C5 1_555 1_555
H10 C5 1_555 1_555
C6 N3 1_555 1_555
H11 C6 1_555 1_555
H12 C6 1_555 1_555
N5 Ag1 1_555 1_555
N6 C9 1_555 1_555
N7 C7 1_555 1_555
N8 C8 1_555 1_555
C7 N5 1_555 1_555
H13 C7 1_555 1_555
H14 C7 1_555 1_555
C8 N5 1_555 1_555
H15 C8 1_555 1_555
H16 C8 1_555 1_555
C9 N5 1_555 1_555
H17 C9 1_555 1_555
H18 C9 1_555 1_555
C10 N6 1_555 1_555
H19 C10 1_555 1_555
H20 C10 1_555 1_555
C11 N6 1_555 1_555
H21 C11 1_555 1_555
H22 C11 1_555 1_555
C12 N7 1_555 1_555
H23 C12 1_555 1_555
H24 C12 1_555 1_555
N6C Ag1 1_555 1_555
N2C Ag2 1_555 1_555
N7_2 Ag2 1_555 1_555
Ag2C N2 1_555 1_555
Ag1C N6 1_555 1_555
Ag2_2 N7 1_555 1_555
N3 C4 1_555 1_555
N4 C5 1_555 1_555
N4 C6 1_555 1_555
N7 C11 1_555 1_555
N8 C10 1_555 1_555
N8 C12 1_555 1_555

#END
