
#######################################################################
#
#                 Cambridge Crystallographic Data Centre
#                                CCDC 
#
#######################################################################
#
# If this CIF has been generated from an entry in the Cambridge 
# Structural Database, then it will include bibliographic, chemical, 
# crystal, experimental, refinement or atomic coordinate data resulting 
# from the CCDC's data processing and validation procedures.
#
#######################################################################

data_ABUQEU
_symmetry_cell_setting           orthorhombic
_symmetry_space_group_name_H-M   'P n a 21'
_symmetry_Int_Tables_number      33
_space_group_name_Hall           'P 2c -2n'
loop_
_symmetry_equiv_pos_site_id
_symmetry_equiv_pos_as_xyz
1 x,y,z
2 -x,-y,1/2+z
3 1/2+x,1/2-y,z
4 1/2-x,1/2+y,1/2+z
_cell_length_a                   17.101(2)
_cell_length_b                   10.5715(14)
_cell_length_c                   19.698(3)
_cell_angle_alpha                90
_cell_angle_beta                 90
_cell_angle_gamma                90
_cell_volume                     3561.07
loop_
_atom_site_label
_atom_site_type_symbol
_atom_site_fract_x
_atom_site_fract_y
_atom_site_fract_z
Rb1 Rb 0.53697(4) 0.42605(6) 0.14261(4)
Ti1 Ti 0.41212(7) 0.50863(11) 0.35688(7)
O1 O 0.4381(2) 0.5309(4) 0.2615(2)
O2 O 0.3112(2) 0.4673(4) 0.3291(2)
O3 O 0.5576(2) 0.3237(4) -0.1212(2)
O4 O 0.6126(3) 0.5183(5) -0.0517(3)
O5 O 0.4893(2) 0.3850(4) 0.3573(3)
C1 C 0.3983(4) 0.5749(8) 0.2055(4)
C2 C 0.4112(5) 0.7016(8) 0.1867(4)
C3 C 0.3716(5) 0.7445(10) 0.1284(5)
H1 H 0.3783 0.8295 0.1139
C4 C 0.3237(6) 0.6656(13) 0.0924(5)
H2 H 0.2960 0.6976 0.0543
C5 C 0.3149(5) 0.5411(10) 0.1104(4)
H3 H 0.2835 0.4868 0.0834
C6 C 0.3515(4) 0.4939(8) 0.1677(4)
C7 C 0.4655(5) 0.7821(8) 0.2245(5)
H4 H 0.4720 0.8626 0.2005
H5 H 0.5162 0.7396 0.2283
H6 H 0.4445 0.7981 0.2700
C8 C 0.3434(5) 0.3566(8) 0.1855(4)
H7 H 0.3119 0.3482 0.2268
H8 H 0.3953 0.3202 0.1933
H9 H 0.3177 0.3118 0.1481
C9 C 0.2385(4) 0.4685(6) 0.3553(4)
C10 C 0.2129(4) 0.3686(7) 0.3975(4)
C11 C 0.1398(4) 0.3788(7) 0.4263(4)
H10 H 0.1226 0.3148 0.4566
C12 C 0.0913(4) 0.4780(8) 0.4125(4)
H11 H 0.0417 0.4835 0.4340
C13 C 0.1146(4) 0.5702(7) 0.3673(4)
H12 H 0.0802 0.6380 0.3569
C14 C 0.1866(4) 0.5653(7) 0.3372(4)
C15 C 0.2083(4) 0.6570(7) 0.2825(4)
H13 H 0.2026 0.6162 0.2381
H14 H 0.2627 0.6838 0.2887
H15 H 0.1739 0.7309 0.2849
C16 C 0.2619(4) 0.2530(6) 0.4092(4)
H16 H 0.2367 0.1991 0.4432
H17 H 0.3137 0.2784 0.4255
H18 H 0.2673 0.2061 0.3666
C17 C 0.5580(4) 0.2471(7) -0.0662(4)
C18 C 0.4998(5) 0.2643(7) -0.0163(4)
C19 C 0.5032(5) 0.1826(8) 0.0384(4)
H19 H 0.4663 0.1943 0.0739
C20 C 0.5557(5) 0.0863(8) 0.0451(5)
H20 H 0.5547 0.0315 0.0832
C21 C 0.6108(5) 0.0716(7) -0.0064(5)
H21 H 0.6486 0.0061 -0.0028
C22 C 0.6117(4) 0.1491(7) -0.0617(4)
C23 C 0.6728(4) 0.1322(7) -0.1150(4)
H22 H 0.7155 0.1923 -0.1072
H23 H 0.6498 0.1477 -0.1598
H24 H 0.6932 0.0457 -0.1131
C24 C 0.4376(6) 0.3604(9) -0.0232(5)
C25 C 0.6364(4) 0.5502(7) 0.0103(4)
C26 C 0.6966(4) 0.4817(6) 0.0431(4)
C27 C 0.7187(4) 0.5208(8) 0.1078(4)
H25 H 0.7576 0.4739 0.1313
C28 C 0.6868(4) 0.6234(7) 0.1384(5)
H26 H 0.7052 0.6494 0.1818
C29 C 0.6285(4) 0.6895(7) 0.1073(4)
H27 H 0.6060 0.7605 0.1296
C30 C 0.6009(4) 0.6542(7) 0.0426(4)
C31 C 0.5366(5) 0.7274(7) 0.0076(4)
H28 H 0.5579 0.7701 -0.0325
H29 H 0.5152 0.7905 0.0390
H30 H 0.4950 0.6691 -0.0063
C32 C 0.7358(4) 0.3708(7) 0.0106(4)
H31 H 0.7910 0.3689 0.0241
H32 H 0.7321 0.3781 -0.0388
H33 H 0.7102 0.2926 0.0255
C33 C 0.5353(4) 0.3244(7) 0.3109(4)
C34 C 0.5118(4) 0.2090(7) 0.2835(4)
C35 C 0.5597(5) 0.1452(7) 0.2388(4)
H34 H 0.5431 0.0669 0.2199
C36 C 0.6322(4) 0.1950(7) 0.2211(4)
H35 H 0.6653 0.1519 0.1900
C37 C 0.6551(4) 0.3077(7) 0.2496(4)
H36 H 0.7054 0.3400 0.2388
C38 C 0.6082(4) 0.3761(7) 0.2932(4)
C39 C 0.6352(4) 0.4981(7) 0.3239(4)
H37 H 0.6846 0.5237 0.3028
H38 H 0.6429 0.4868 0.3728
H39 H 0.5956 0.5636 0.3161
C40 C 0.4361(4) 0.1485(7) 0.3066(4)
H40 H 0.4181 0.0885 0.2720
H41 H 0.3963 0.2142 0.3132
H42 H 0.4448 0.1036 0.3495
H43 H 0.451(3) 0.428(4) -0.041(3)
H44 H 0.410(5) 0.358(9) 0.011(3)
H45 H 0.401(8) 0.334(18) -0.047(9)
O3A O 0.4424(2) 0.6763(4) 0.3788(2)
O4A O 0.3874(3) 0.4817(5) 0.4483(3)
Ti1A Ti 0.58788(7) 0.49137(11) -0.14312(7)
loop_
_geom_bond_atom_site_label_1
_geom_bond_atom_site_label_2
_geom_bond_site_symmetry_1
_geom_bond_site_symmetry_2
Rb1 O1 1_555 1_555
Ti1 O1 1_555 1_555
O1 C1 1_555 1_555
O2 Ti1 1_555 1_555
O3 C17 1_555 1_555
O4 C25 1_555 1_555
O5 Ti1 1_555 1_555
C1 Rb1 1_555 1_555
C2 C1 1_555 1_555
C3 C2 1_555 1_555
H1 C3 1_555 1_555
C4 C3 1_555 1_555
H2 C4 1_555 1_555
C5 C4 1_555 1_555
H3 C5 1_555 1_555
C6 Rb1 1_555 1_555
C7 C2 1_555 1_555
H4 C7 1_555 1_555
H5 C7 1_555 1_555
H6 C7 1_555 1_555
C8 C6 1_555 1_555
H7 C8 1_555 1_555
H8 C8 1_555 1_555
H9 C8 1_555 1_555
C9 O2 1_555 1_555
C10 C9 1_555 1_555
C11 C10 1_555 1_555
H10 C11 1_555 1_555
C12 C11 1_555 1_555
H11 C12 1_555 1_555
C13 C12 1_555 1_555
H12 C13 1_555 1_555
C14 C9 1_555 1_555
C15 C14 1_555 1_555
H13 C15 1_555 1_555
H14 C15 1_555 1_555
H15 C15 1_555 1_555
C16 C10 1_555 1_555
H16 C16 1_555 1_555
H17 C16 1_555 1_555
H18 C16 1_555 1_555
C17 C18 1_555 1_555
C18 C19 1_555 1_555
C19 Rb1 1_555 1_555
H19 C19 1_555 1_555
C20 C19 1_555 1_555
H20 C20 1_555 1_555
C21 C20 1_555 1_555
H21 C21 1_555 1_555
C22 C17 1_555 1_555
C23 C22 1_555 1_555
H22 C23 1_555 1_555
H23 C23 1_555 1_555
H24 C23 1_555 1_555
C24 C18 1_555 1_555
C25 C26 1_555 1_555
C26 C27 1_555 1_555
C27 Rb1 1_555 1_555
H25 C27 1_555 1_555
C28 Rb1 1_555 1_555
H26 C28 1_555 1_555
C29 Rb1 1_555 1_555
H27 C29 1_555 1_555
C30 Rb1 1_555 1_555
C31 C30 1_555 1_555
H28 C31 1_555 1_555
H29 C31 1_555 1_555
H30 C31 1_555 1_555
C32 C26 1_555 1_555
H31 C32 1_555 1_555
H32 C32 1_555 1_555
H33 C32 1_555 1_555
C33 O5 1_555 1_555
C34 C33 1_555 1_555
C35 C34 1_555 1_555
H34 C35 1_555 1_555
C36 Rb1 1_555 1_555
H35 C36 1_555 1_555
C37 Rb1 1_555 1_555
H36 C37 1_555 1_555
C38 Rb1 1_555 1_555
C39 C38 1_555 1_555
H37 C39 1_555 1_555
H38 C39 1_555 1_555
H39 C39 1_555 1_555
C40 C34 1_555 1_555
H40 C40 1_555 1_555
H41 C40 1_555 1_555
H42 C40 1_555 1_555
H43 C24 1_555 1_555
H44 C24 1_555 1_555
H45 C24 1_555 1_555
O3A Ti1 1_555 1_555
O4A Ti1 1_555 1_555
Ti1A O3 1_555 1_555
O4 Ti1A 1_555 1_555
C1 C6 1_555 1_555
C5 C6 1_555 1_555
C13 C14 1_555 1_555
C21 C22 1_555 1_555
C25 C30 1_555 1_555
C27 C28 1_555 1_555
C28 C29 1_555 1_555
C29 C30 1_555 1_555
C33 C38 1_555 1_555
C35 C36 1_555 1_555
C36 C37 1_555 1_555
C37 C38 1_555 1_555

#END
