
#######################################################################
#
#                 Cambridge Crystallographic Data Centre
#                                CCDC 
#
#######################################################################
#
# If this CIF has been generated from an entry in the Cambridge 
# Structural Database, then it will include bibliographic, chemical, 
# crystal, experimental, refinement or atomic coordinate data resulting 
# from the CCDC's data processing and validation procedures.
#
#######################################################################

data_ABXALA01
_symmetry_cell_setting           triclinic
_symmetry_space_group_name_H-M   'P -1'
_symmetry_Int_Tables_number      2
_space_group_name_Hall           '-P 1'
loop_
_symmetry_equiv_pos_site_id
_symmetry_equiv_pos_as_xyz
1 x,y,z
2 -x,-y,-z
_cell_length_a                   8.7345(7)
_cell_length_b                   12.2794(9)
_cell_length_c                   12.7575(9)
_cell_angle_alpha                75.674(2)
_cell_angle_beta                 78.373(2)
_cell_angle_gamma                83.902(2)
_cell_volume                     1296.25
loop_
_atom_site_label
_atom_site_type_symbol
_atom_site_fract_x
_atom_site_fract_y
_atom_site_fract_z
La1 La 0.317418(5) 0.289492(4) 0.202499(4)
Na1 Na 0.31718(5) 0.54083(4) -0.05358(3)
C1 C 0.01660(10) 0.32252(8) 0.42986(7)
O1 O 0.03760(8) 0.30938(6) 0.32271(6)
C2 C -0.09774(10) 0.28878(9) 0.28404(8)
H1 H -0.1838 0.3452 0.2994
H2 H -0.1337 0.2131 0.323
C3 C -0.05630(10) 0.29615(7) 0.16040(7)
O2 O 0.08514(8) 0.30305(6) 0.11370(6)
O3 O -0.16826(8) 0.29457(6) 0.11351(6)
C4 C 0.14105(10) 0.36777(8) 0.45625(7)
O4 O 0.26752(8) 0.39351(6) 0.37195(6)
C5 C 0.38763(11) 0.45255(8) 0.39182(8)
H3 H 0.4319 0.4075 0.4558
H4 H 0.3433 0.5254 0.4083
C6 C 0.51516(10) 0.47278(8) 0.28990(8)
O5 O 0.51093(8) 0.41982(6) 0.21709(6)
O6 O 0.61704(9) 0.53822(7) 0.28681(7)
C7 C 0.13158(12) 0.38320(9) 0.56165(8)
H5 H 0.2151 0.4144 0.5797
C8 C -0.00195(12) 0.35250(9) 0.64100(8)
H6 H -0.0084 0.3624 0.7133
C9 C -0.12470(12) 0.30797(9) 0.61529(8)
H7 H -0.2148 0.2873 0.6699
C10 C -0.11615(11) 0.29335(8) 0.50854(8)
H8 H -0.2008 0.2636 0.4903
C11 C 0.27007(11) 0.07377(8) 0.05760(8)
O7 O 0.35488(9) 0.16627(6) 0.04616(6)
C12 C 0.45187(11) 0.20319(8) -0.05895(8)
H9 H 0.3874 0.2197 -0.1172
H10 H 0.5322 0.1428 -0.0734
C13 C 0.53086(10) 0.30795(7) -0.06142(7)
O8 O 0.47504(8) 0.36288(6) 0.01282(6)
O9 O 0.64179(9) 0.33470(6) -0.13825(6)
C14 C 0.18711(12) 0.03055(8) 0.16310(8)
O10 O 0.20273(10) 0.08382(6) 0.24451(6)
C15 C 0.17442(15) 0.01483(10) 0.35410(9)
H11 H 0.2207 -0.0624 0.3542
H12 H 0.0603 0.0104 0.3813
C16 C 0.24645(12) 0.06450(9) 0.42881(8)
O11 O 0.30746(9) 0.15820(6) 0.38904(6)
O12 O 0.23963(13) 0.00694(8) 0.52486(7)
C17 C 0.09740(14) -0.06193(9) 0.18329(9)
H13 H 0.0388 -0.0898 0.2546
C18 C 0.09413(14) -0.11350(9) 0.09790(10)
H14 H 0.035 -0.1777 0.1115
C19 C 0.17650(13) -0.07148(9) -0.00606(10)
H15 H 0.1733 -0.1068 -0.0639
C20 C 0.26470(12) 0.02259(9) -0.02726(9)
H16 H 0.3207 0.0514 -0.0992
O13 O 0.20667(8) 0.49452(6) 0.13455(6)
H17 H 0.1173(15) 0.5112(14) 0.1352(14)
H18 H 0.250(2) 0.5470(15) 0.1406(18)
O14 O 0.57125(9) 0.17839(7) 0.20385(7)
H19 H 0.593(2) 0.1137(12) 0.2311(15)
H20 H 0.6506(19) 0.2103(15) 0.1805(16)
O15 O 0.11922(10) 0.44239(7) -0.11040(7)
H21 H 0.179(2) 0.4230(16) -0.1604(13)
H22 H 0.103(3) 0.3872(16) -0.0613(14)
Na1A Na -0.31718(5) 0.45917(4) 0.05358(3)
Na1A_2 Na 0.68282(5) 0.45917(4) 0.05358(3)
O3A O 0.16826(8) 0.70543(6) -0.11351(6)
O5A O 0.48907(8) 0.58018(6) -0.21709(6)
O8A O 0.52496(8) 0.63712(6) -0.01282(6)
O16 O 0.51539(15) -0.23554(9) 0.32372(9)
H23 H 0.491(3) -0.2397(16) 0.3956(12)
H24 H 0.541(3) -0.3038(15) 0.3216(19)
O17 O 0.65415(18) -0.03313(9) 0.29598(9)
H25 H 0.618(3) -0.0899(15) 0.3001(17)
H26 H 0.681(3) -0.0366(18) 0.3543(14)
O18 O 0.43650(11) -0.19617(9) 0.53123(8)
H27 H 0.515(2) -0.1858(19) 0.5550(19)
H28 H 0.388(2) -0.1379(14) 0.5224(17)
loop_
_geom_bond_atom_site_label_1
_geom_bond_atom_site_label_2
_geom_bond_site_symmetry_1
_geom_bond_site_symmetry_2
La1 O1 1_555 1_555
Na1 O8 1_555 1_555
C1 O1 1_555 1_555
O1 C2 1_555 1_555
C2 H1 1_555 1_555
H2 C2 1_555 1_555
C3 C2 1_555 1_555
O2 La1 1_555 1_555
O3 C3 1_555 1_555
C4 C1 1_555 1_555
O4 La1 1_555 1_555
C5 O4 1_555 1_555
H3 C5 1_555 1_555
H4 C5 1_555 1_555
C6 C5 1_555 1_555
O5 La1 1_555 1_555
O6 C6 1_555 1_555
C7 C4 1_555 1_555
H5 C7 1_555 1_555
C8 C7 1_555 1_555
H6 C8 1_555 1_555
C9 C8 1_555 1_555
H7 C9 1_555 1_555
C10 C1 1_555 1_555
H8 C10 1_555 1_555
C11 O7 1_555 1_555
O7 La1 1_555 1_555
C12 O7 1_555 1_555
H9 C12 1_555 1_555
H10 C12 1_555 1_555
C13 C12 1_555 1_555
O8 La1 1_555 1_555
O9 C13 1_555 1_555
C14 C11 1_555 1_555
O10 La1 1_555 1_555
C15 O10 1_555 1_555
H11 C15 1_555 1_555
H12 C15 1_555 1_555
C16 C15 1_555 1_555
O11 La1 1_555 1_555
O12 C16 1_555 1_555
C17 C14 1_555 1_555
H13 C17 1_555 1_555
C18 C17 1_555 1_555
H14 C18 1_555 1_555
C19 C18 1_555 1_555
H15 C19 1_555 1_555
C20 C11 1_555 1_555
H16 C20 1_555 1_555
O13 La1 1_555 1_555
H17 O13 1_555 1_555
H18 O13 1_555 1_555
O14 La1 1_555 1_555
H19 O14 1_555 1_555
H20 O14 1_555 1_555
O15 Na1 1_555 1_555
H21 O15 1_555 1_555
H22 O15 1_555 1_555
O16 H23 1_555 1_555
H24 O16 1_555 1_555
O17 H25 1_555 1_555
H26 O17 1_555 1_555
O18 H27 1_555 1_555
H28 O18 1_555 1_555
Na1A O3 1_555 1_555
Na1A_2 O5 1_555 1_555
O3A Na1 1_555 1_555
O5A Na1 1_555 1_555
O8A Na1 1_555 1_555
Na1 O13 1_555 1_555
C3 O2 1_555 1_555
C4 O4 1_555 1_555
C6 O5 1_555 1_555
C9 C10 1_555 1_555
C13 O8 1_555 1_555
O8 Na1A_2 1_555 1_555
C14 O10 1_555 1_555
C16 O11 1_555 1_555
C19 C20 1_555 1_555
Na1A_2 O8A 1_555 1_555

#END
