
#######################################################################
#
#                 Cambridge Crystallographic Data Centre
#                                CCDC 
#
#######################################################################
#
# If this CIF has been generated from an entry in the Cambridge 
# Structural Database, then it will include bibliographic, chemical, 
# crystal, experimental, refinement or atomic coordinate data resulting 
# from the CCDC's data processing and validation procedures.
#
#######################################################################

data_ACAGEQ
_symmetry_cell_setting           monoclinic
_symmetry_space_group_name_H-M   'P 21/n'
_symmetry_Int_Tables_number      14
_space_group_name_Hall           '-P 2yn'
loop_
_symmetry_equiv_pos_site_id
_symmetry_equiv_pos_as_xyz
1 x,y,z
2 1/2+x,1/2-y,1/2+z
3 -x,-y,-z
4 1/2-x,1/2+y,1/2-z
_cell_length_a                   11.922(3)
_cell_length_b                   8.360(2)
_cell_length_c                   17.121(5)
_cell_angle_alpha                90
_cell_angle_beta                 101.42(2)
_cell_angle_gamma                90
_cell_volume                     1672.63
loop_
_atom_site_label
_atom_site_type_symbol
_atom_site_fract_x
_atom_site_fract_y
_atom_site_fract_z
Ni1 Ni 0.41287(6) 0.12353(10) 0.26324(4)
N1 N 0.3690(4) 0.1149(8) 0.3776(3)
N2 N 0.4426(4) -0.1099(6) 0.2928(3)
N3 N 0.4650(4) 0.1014(6) 0.1487(3)
N4 N 0.5726(4) 0.2003(7) 0.3221(3)
N5 N 0.5897(5) 0.3241(8) 0.3544(3)
N6 N 0.6090(7) 0.4452(10) 0.3873(5)
N7 N 0.3639(4) 0.3602(7) 0.2354(3)
N8 N 0.3087(4) 0.4515(6) 0.2623(3)
N9 N 0.2559(4) 0.5489(6) 0.2896(3)
C1 C 0.3391(6) 0.2319(10) 0.4217(4)
H1 H 0.3329(6) 0.3354(10) 0.4014(4)
C2 C 0.3165(6) 0.2047(12) 0.4978(4)
H2 H 0.2966(6) 0.2890(12) 0.5277(4)
C3 C 0.3241(6) 0.0529(11) 0.5273(4)
H3 H 0.3068(6) 0.0315(11) 0.5768(4)
C4 C 0.3575(5) -0.0670(9) 0.4831(4)
H4 H 0.3651(5) -0.1712(9) 0.5025(4)
C5 C 0.3799(5) -0.0310(8) 0.4088(4)
C6 C 0.4175(5) -0.1534(8) 0.3587(4)
H5 H 0.4230(5) -0.2601(8) 0.3744(4)
C7 C 0.4698(6) -0.2364(8) 0.2401(4)
H6 H 0.3991(6) -0.2749(8) 0.2074(4)
H7 H 0.5048(6) -0.3251(8) 0.2725(4)
C8 C 0.5493(6) -0.1834(8) 0.1862(4)
C9 C 0.4894(6) -0.0639(8) 0.1254(4)
H8 H 0.5347(6) -0.0552(8) 0.0844(4)
H9 H 0.4168(6) -0.1111(8) 0.1005(4)
C10 C 0.5736(8) -0.3319(9) 0.1399(5)
H10 H 0.5034(10) -0.3700(38) 0.1078(25)
H11 H 0.6063(43) -0.4139(25) 0.1767(5)
H12 H 0.6262(36) -0.3048(18) 0.1062(24)
C11 C 0.6619(5) -0.1257(10) 0.2369(4)
H13 H 0.6478(8) -0.0344(38) 0.2676(23)
H14 H 0.7136(17) -0.0965(59) 0.2028(5)
H15 H 0.6952(22) -0.2098(22) 0.2721(22)
C12 C 0.3693(5) 0.1627(8) 0.0857(3)
H16 H 0.3016(11) 0.1008(32) 0.0860(17)
H17 H 0.3902(15) 0.1539(47) 0.0345(4)
H18 H 0.3548(23) 0.2728(16) 0.0962(14)
C13 C 0.5634(6) 0.2063(9) 0.1469(4)
H19 H 0.5465(15) 0.3124(14) 0.1627(25)
H20 H 0.5785(24) 0.2090(42) 0.0939(7)
H21 H 0.6294(10) 0.1661(30) 0.1830(20)
N9C N 0.2441(4) 0.0489(6) 0.2104(3)
Ni1C Ni 0.08713(6) 0.62353(10) 0.23676(4)
loop_
_geom_bond_atom_site_label_1
_geom_bond_atom_site_label_2
_geom_bond_site_symmetry_1
_geom_bond_site_symmetry_2
Ni1 N1 1_555 1_555
N1 C1 1_555 1_555
N2 Ni1 1_555 1_555
N3 Ni1 1_555 1_555
N4 Ni1 1_555 1_555
N5 N4 1_555 1_555
N6 N5 1_555 1_555
N7 Ni1 1_555 1_555
N8 N7 1_555 1_555
N9 N8 1_555 1_555
C1 H1 1_555 1_555
C2 C1 1_555 1_555
H2 C2 1_555 1_555
C3 C2 1_555 1_555
H3 C3 1_555 1_555
C4 C3 1_555 1_555
H4 C4 1_555 1_555
C5 N1 1_555 1_555
C6 N2 1_555 1_555
H5 C6 1_555 1_555
C7 N2 1_555 1_555
H6 C7 1_555 1_555
H7 C7 1_555 1_555
C8 C7 1_555 1_555
C9 N3 1_555 1_555
H8 C9 1_555 1_555
H9 C9 1_555 1_555
C10 C8 1_555 1_555
H10 C10 1_555 1_555
H11 C10 1_555 1_555
H12 C10 1_555 1_555
C11 C8 1_555 1_555
H13 C11 1_555 1_555
H14 C11 1_555 1_555
H15 C11 1_555 1_555
C12 N3 1_555 1_555
H16 C12 1_555 1_555
H17 C12 1_555 1_555
H18 C12 1_555 1_555
C13 N3 1_555 1_555
H19 C13 1_555 1_555
H20 C13 1_555 1_555
H21 C13 1_555 1_555
N9C Ni1 1_555 1_555
Ni1C N9 1_555 1_555
C4 C5 1_555 1_555
C5 C6 1_555 1_555
C8 C9 1_555 1_555

#END
