
#######################################################################
#
#                 Cambridge Crystallographic Data Centre
#                                CCDC 
#
#######################################################################
#
# If this CIF has been generated from an entry in the Cambridge 
# Structural Database, then it will include bibliographic, chemical, 
# crystal, experimental, refinement or atomic coordinate data resulting 
# from the CCDC's data processing and validation procedures.
#
#######################################################################

data_ACALEX
_symmetry_cell_setting           monoclinic
_symmetry_space_group_name_H-M   'P 21/c'
_symmetry_Int_Tables_number      14
_space_group_name_Hall           '-P 2ybc'
loop_
_symmetry_equiv_pos_site_id
_symmetry_equiv_pos_as_xyz
1 x,y,z
2 -x,1/2+y,1/2-z
3 -x,-y,-z
4 x,1/2-y,1/2+z
_cell_length_a                   10.547(2)
_cell_length_b                   20.708(4)
_cell_length_c                   10.434(2)
_cell_angle_alpha                90
_cell_angle_beta                 111.95(3)
_cell_angle_gamma                90
_cell_volume                     2113.67
loop_
_atom_site_label
_atom_site_type_symbol
_atom_site_fract_x
_atom_site_fract_y
_atom_site_fract_z
Tb1 Tb 0.79816(5) 0.030509(17) 0.73738(4)
O1 O 0.9752(7) 0.0791(3) 0.9152(6)
O2 O 1.6356(8) 0.4254(3) 2.0130(7)
C1 C 1.0595(9) 0.0958(4) 1.0296(9)
O3 O 1.6814(7) 0.0931(3) 1.8422(6)
O4 O 1.7618(8) 0.1243(3) 2.0627(6)
O5 O 0.8707(7) 0.3028(3) 0.7721(6)
H1 H 0.8291 0.3312 0.6950
O6 O 0.5822(8) -0.0191(4) 0.7005(8)
C2 C 1.1896(9) 0.2536(4) 1.2191(8)
C3 C 1.7038(10) 0.3727(4) 2.0329(8)
C4 C 1.2836(9) 0.2755(4) 1.3549(8)
O7 O 1.8091(7) 0.3658(3) 2.1371(6)
N1 N 1.3184(10) 0.3387(4) 1.3784(8)
O8 O 0.9819(9) 0.3854(3) 0.9023(8)
C5 C 1.1722(10) 0.1881(4) 1.1898(8)
H2 H 1.2220 0.1581 1.2559
C6 C 1.0307(9) 0.2783(4) 0.9912(9)
O9 O 0.7610(10) -0.0568(4) 0.5641(9)
O10 O 1.1277(8) 0.0581(3) 1.1246(7)
N2 N 1.4283(8) 0.2853(3) 1.5650(8)
C7 C 1.6992(9) 0.2559(4) 1.9757(8)
H3 H 1.7603 0.2495 2.0659
C8 C 1.7038(10) 0.1359(4) 1.9344(8)
C9 C 1.5696(10) 0.2143(4) 1.7500(9)
H4 H 1.5447 0.1800 1.6881
C10 C 1.0816(9) 0.1671(4) 1.0635(8)
C11 C 1.3525(9) 0.2414(4) 1.4693(8)
H5 H 1.3492 0.1970 1.4810
C12 C 1.6560(10) 0.2035(4) 1.8869(8)
C13 C 1.5208(9) 0.2754(4) 1.7059(8)
N3 N 1.4063(10) 0.3447(4) 1.5053(8)
C14 C 1.1173(9) 0.2991(4) 1.1224(8)
H6 H 1.1260 0.3428 1.1443
C15 C 1.0122(9) 0.2123(4) 0.9595(8)
H7 H 0.9554 0.1986 0.8719
C16 C 1.5614(10) 0.3283(4) 1.7979(9)
H8 H 1.5275 0.3695 1.7691
C17 C 1.6524(10) 0.3179(4) 1.9315(8)
C18 C 0.9585(10) 0.3275(4) 0.8851(8)
O12 O 1.0003(13) 0.0193(5) 0.6821(16)
Tb1C Tb 1.79816(5) 0.469491(17) 2.23738(4)
Tb1_2 Tb 1.79816(5) 0.030509(17) 1.73738(4)
Tb1B Tb 1.20184(5) -0.030509(17) 1.26262(4)
O2C O 0.6356(8) 0.0746(3) 0.5130(7)
O3_2 O 0.6814(7) 0.0931(3) 0.8422(6)
O7C O 0.8091(7) 0.1342(3) 0.6371(6)
O10B O 0.8723(8) -0.0581(3) 0.8754(7)
O11 O 0.3623(11) 0.0525(5) 0.7179(10)
O13 O 1.2495(16) 0.0043(7) 0.8904(15)
loop_
_geom_bond_atom_site_label_1
_geom_bond_atom_site_label_2
_geom_bond_site_symmetry_1
_geom_bond_site_symmetry_2
Tb1 O1 1_555 1_555
O1 C1 1_555 1_555
O2 C3 1_555 1_555
C1 O10 1_555 1_555
O3 C8 1_555 1_555
O4 C8 1_555 1_555
O5 H1 1_555 1_555
O6 Tb1 1_555 1_555
C2 C4 1_555 1_555
C3 O7 1_555 1_555
C4 N1 1_555 1_555
O7 Tb1C 1_555 1_555
N1 N3 1_555 1_555
O8 C18 1_555 1_555
C5 C2 1_555 1_555
H2 C5 1_555 1_555
C6 C14 1_555 1_555
O9 Tb1 1_555 1_555
O10 Tb1B 1_555 1_555
N2 C11 1_555 1_555
C7 H3 1_555 1_555
C8 C12 1_555 1_555
C9 H4 1_555 1_555
C10 C1 1_555 1_555
C11 C4 1_555 1_555
H5 C11 1_555 1_555
C12 C7 1_555 1_555
C13 N2 1_555 1_555
N3 N2 1_555 1_555
C14 C2 1_555 1_555
H6 C14 1_555 1_555
C15 C6 1_555 1_555
H7 C15 1_555 1_555
C16 C13 1_555 1_555
H8 C16 1_555 1_555
C17 C3 1_555 1_555
C18 O5 1_555 1_555
O12 Tb1 1_555 1_555
Tb1C O2 1_555 1_555
Tb1_2 O3 1_555 1_555
O2C Tb1 1_555 1_555
O3_2 Tb1 1_555 1_555
O7C Tb1 1_555 1_555
O10B Tb1 1_555 1_555
C5 C10 1_555 1_555
C6 C18 1_555 1_555
C7 C17 1_555 1_555
C9 C12 1_555 1_555
C9 C13 1_555 1_555
C10 C15 1_555 1_555
C16 C17 1_555 1_555

#END
