
#######################################################################
#
#                 Cambridge Crystallographic Data Centre
#                                CCDC 
#
#######################################################################
#
# If this CIF has been generated from an entry in the Cambridge 
# Structural Database, then it will include bibliographic, chemical, 
# crystal, experimental, refinement or atomic coordinate data resulting 
# from the CCDC's data processing and validation procedures.
#
#######################################################################

data_ACASUU
_symmetry_cell_setting           triclinic
_symmetry_space_group_name_H-M   'P -1'
_symmetry_Int_Tables_number      2
_space_group_name_Hall           '-P 1'
loop_
_symmetry_equiv_pos_site_id
_symmetry_equiv_pos_as_xyz
1 x,y,z
2 -x,-y,-z
_cell_length_a                   10.143(4)
_cell_length_b                   11.404(4)
_cell_length_c                   14.197(6)
_cell_angle_alpha                104.95(4)
_cell_angle_beta                 107.92(3)
_cell_angle_gamma                104.48(4)
_cell_volume                     1409.37
loop_
_atom_site_label
_atom_site_type_symbol
_atom_site_fract_x
_atom_site_fract_y
_atom_site_fract_z
Ag1 Ag 0.00942(4) 0.04722(3) 0.13098(3)
Ag2 Ag 0.31074(5) 0.24877(3) 0.35179(3)
N1 N 0.3211(4) 0.0696(3) 0.3751(3)
N2 N 0.3264(4) -0.5495(3) 0.3829(3)
N3 N 0.0012(4) -0.1438(3) 0.1329(3)
N4 N 0.0132(4) -0.7583(3) 0.1467(3)
C1 C 0.4245(5) 0.0247(4) 0.3571(3)
H1 H 0.4940 0.0750 0.3397
C2 C 0.4335(5) -0.0919(4) 0.3630(3)
H2 H 0.5074 -0.1187 0.3494
C3 C 0.3316(4) -0.1699(4) 0.3894(3)
C4 C 0.2261(5) -0.1211(4) 0.4101(4)
H3 H 0.1565 -0.1682 0.4292
C5 C 0.2244(5) -0.0043(4) 0.4025(4)
H4 H 0.1528 0.0256 0.4169
C6 C 0.2252(6) -0.5041(4) 0.4032(4)
H5 H 0.1509 -0.5578 0.4147
C7 C 0.2244(6) -0.3822(4) 0.4081(4)
H6 H 0.1505 -0.3558 0.4221
C8 C 0.3337(5) -0.2987(4) 0.3922(3)
C9 C 0.4415(5) -0.3444(4) 0.3750(4)
H7 H 0.5196 -0.2914 0.3665
C10 C 0.4336(5) -0.4683(4) 0.3703(4)
H8 H 0.5071 -0.4967 0.3578
C11 C 0.1144(4) -0.1814(4) 0.1278(3)
H9 H 0.1928 -0.1247 0.1222
C12 C 0.1208(4) -0.2995(4) 0.1304(3)
H10 H 0.2019 -0.3212 0.1264
C13 C 0.0054(4) -0.3867(4) 0.1391(3)
C14 C -0.1119(5) -0.3468(4) 0.1441(4)
H11 H -0.1918 -0.4013 0.1499
C15 C -0.1103(5) -0.2279(4) 0.1406(4)
H12 H -0.1905 -0.2041 0.1438
C16 C -0.0920(5) -0.7152(4) 0.1638(4)
H13 H -0.1642 -0.7680 0.1775
C17 C -0.0987(5) -0.5965(4) 0.1619(4)
H14 H -0.1744 -0.5712 0.1736
C18 C 0.0087(4) -0.5145(3) 0.1425(3)
C19 C 0.1182(4) -0.5599(4) 0.1261(3)
H15 H 0.1926 -0.5086 0.1132
C20 C 0.1174(4) -0.6790(4) 0.1289(3)
H16 H 0.1923 -0.7064 0.1179
C21 C 0.3632(5) 0.1334(4) 0.1247(4)
C22 C 0.4181(5) 0.0777(4) -0.0391(4)
H17 H 0.4154 0.1598 -0.0454
H18 H 0.3183 0.0137 -0.0783
C23 C 0.4680(5) 0.0928(4) 0.0768(3)
H19 H 0.5670 0.1605 0.1160
C24 C 0.4786(5) -0.0353(5) 0.0876(4)
H20 H 0.5156 -0.0243 0.1622
H21 H 0.3806 -0.1024 0.0522
O1 O 0.2284(4) 0.0682(3) 0.0785(3)
O2 O 0.4209(4) 0.2327(4) 0.2098(3)
Ag1_2 Ag 0.00942(4) 1.04722(3) 0.13098(3)
Ag1_3 Ag 0.00942(4) -0.95278(3) 0.13098(3)
Ag1A Ag 0.99058(4) -0.04722(3) -0.13098(3)
Ag2A Ag 0.68926(5) -0.24877(3) -0.35179(3)
Ag2_2 Ag 0.31074(5) -0.75123(3) 0.35179(3)
Ag2_3 Ag 0.31074(5) 1.24877(3) 0.35179(3)
N1_2 N 0.3211(4) 1.0696(3) 0.3751(3)
N1A N 0.6789(4) -0.0696(3) -0.3751(3)
N2_2 N 0.3264(4) 0.4505(3) 0.3829(3)
N2A N 0.6736(4) -0.4505(3) -0.3829(3)
N3_2 N 0.0012(4) 0.8562(3) 0.1329(3)
N4_2 N 0.0132(4) 0.2417(3) 0.1467(3)
N4_3 N 0.0132(4) 1.2417(3) 0.1467(3)
C1_2 C 0.4245(5) 1.0247(4) 0.3571(3)
H1_2 H 0.4940 1.0750 0.3397
C2_2 C 0.4335(5) 0.9081(4) 0.3630(3)
H2_2 H 0.5074 0.8813 0.3494
C3_2 C 0.3316(4) 0.8301(4) 0.3894(3)
C4_2 C 0.2261(5) 0.8789(4) 0.4101(4)
H3_2 H 0.1565 0.8318 0.4292
C5_2 C 0.2244(5) 0.9957(4) 0.4025(4)
H4_2 H 0.1528 1.0256 0.4169
C6_2 C 0.2252(6) 0.4959(4) 0.4032(4)
H5_2 H 0.1509 0.4422 0.4147
C7_2 C 0.2244(6) 0.6178(4) 0.4081(4)
H6_2 H 0.1505 0.6442 0.4221
C8_2 C 0.3337(5) 0.7013(4) 0.3922(3)
C9_2 C 0.4415(5) 0.6556(4) 0.3750(4)
H7_2 H 0.5196 0.7086 0.3665
C10_2 C 0.4336(5) 0.5317(4) 0.3703(4)
H8_2 H 0.5071 0.5033 0.3578
C11_2 C 0.1144(4) 0.8186(4) 0.1278(3)
H9_2 H 0.1928 0.8753 0.1222
C12_2 C 0.1208(4) 0.7005(4) 0.1304(3)
H10_2 H 0.2019 0.6788 0.1264
C13_2 C 0.0054(4) 0.6133(4) 0.1391(3)
C14_2 C -0.1119(5) 0.6532(4) 0.1441(4)
H11_2 H -0.1918 0.5987 0.1499
C15_2 C -0.1103(5) 0.7721(4) 0.1406(4)
H12_2 H -0.1905 0.7959 0.1438
C16_2 C -0.0920(5) 0.2848(4) 0.1638(4)
H13_2 H -0.1642 0.2320 0.1775
C17_2 C -0.0987(5) 0.4035(4) 0.1619(4)
H14_2 H -0.1744 0.4288 0.1736
C18_2 C 0.0087(4) 0.4855(3) 0.1425(3)
C19_2 C 0.1182(4) 0.4401(4) 0.1261(3)
H15_2 H 0.1926 0.4914 0.1132
C20_2 C 0.1174(4) 0.3210(4) 0.1289(3)
H16_2 H 0.1923 0.2936 0.1179
C21A C 0.6368(5) -0.1334(4) -0.1247(4)
C22A C 0.5819(5) -0.0777(4) 0.0391(4)
H17A H 0.5846 -0.1598 0.0454
H18A H 0.6817 -0.0137 0.0783
C23A C 0.5320(5) -0.0928(4) -0.0768(3)
H19A H 0.4330 -0.1605 -0.1160
C24A C 0.5214(5) 0.0353(5) -0.0876(4)
H20A H 0.4844 0.0243 -0.1622
H21A H 0.6194 0.1024 -0.0522
O1A O 0.7716(4) -0.0682(3) -0.0785(3)
O1_2 O 0.2284(4) 1.0682(3) 0.0785(3)
O2A O 0.5791(4) -0.2327(4) -0.2098(3)
O3 O 0.4691(5) 0.5822(4) 0.9015(4)
H22 H 0.5246 0.6497 0.8987
H23 H 0.5094 0.5250 0.8991
O4 O 0.5662(4) 0.3709(4) 0.9000(3)
H24 H 0.4853 0.3161 0.8501
H25 H 0.5609 0.3732 0.9590
O5 O 0.3152(5) 0.1933(4) 0.7165(4)
H26 H 0.2607 0.1152 0.6987
H27 H 0.2650 0.2305 0.6835
O6 O 0.1800(6) 0.3449(5) 0.6225(4)
H28 H 0.1062 0.3166 0.5634
H29 H 0.2284 0.4240 0.6361
O7 O 0.2888(4) 0.6142(3) 0.6711(2)
H30 H 0.2155 0.6398 0.6618
H31 H 0.3676 0.6792 0.7124
N5 N 0.1070(4) 0.8492(3) 0.6309(2)
O8 O 0.2342(4) 0.8947(3) 0.6847(2)
O9 O 0.0552(4) 0.9190(3) 0.5930(2)
O10 O 0.0665(4) 0.7326(3) 0.5858(2)
O11? O 0.1187(4) 0.9559(3) 0.7052(2)
O12? O 0.2037(4) 0.8180(3) 0.6214(2)
O13? O -0.0383(4) 0.7912(3) 0.5996(2)
loop_
_geom_bond_atom_site_label_1
_geom_bond_atom_site_label_2
_geom_bond_site_symmetry_1
_geom_bond_site_symmetry_2
Ag1 N3 1_555 1_555
Ag2 N1 1_555 1_555
N1 C1 1_555 1_555
N2 C6 1_555 1_555
N3 C11 1_555 1_555
N4 C16 1_555 1_555
C1 H1 1_555 1_555
C2 C1 1_555 1_555
H2 C2 1_555 1_555
C3 C2 1_555 1_555
C4 C3 1_555 1_555
H3 C4 1_555 1_555
C5 N1 1_555 1_555
H4 C5 1_555 1_555
C6 H5 1_555 1_555
C7 C6 1_555 1_555
H6 C7 1_555 1_555
C8 C3 1_555 1_555
C9 C8 1_555 1_555
H7 C9 1_555 1_555
C10 N2 1_555 1_555
H8 C10 1_555 1_555
C11 H9 1_555 1_555
C12 C11 1_555 1_555
H10 C12 1_555 1_555
C13 C12 1_555 1_555
C14 C13 1_555 1_555
H11 C14 1_555 1_555
C15 N3 1_555 1_555
H12 C15 1_555 1_555
C16 H13 1_555 1_555
C17 C16 1_555 1_555
H14 C17 1_555 1_555
C18 C13 1_555 1_555
C19 C18 1_555 1_555
H15 C19 1_555 1_555
C20 N4 1_555 1_555
H16 C20 1_555 1_555
C21 C23 1_555 1_555
C22 H17 1_555 1_555
H18 C22 1_555 1_555
C23 C22 1_555 1_555
H19 C23 1_555 1_555
C24 C23 1_555 1_555
H20 C24 1_555 1_555
H21 C24 1_555 1_555
O1 Ag1 1_555 1_555
O2 Ag2 1_555 1_555
O3 H22 1_555 1_555
H23 O3 1_555 1_555
O4 H24 1_555 1_555
H25 O4 1_555 1_555
O5 H26 1_555 1_555
H27 O5 1_555 1_555
O6 H28 1_555 1_555
H29 O6 1_555 1_555
O7 H30 1_555 1_555
H31 O7 1_555 1_555
N5 O8 1_555 1_555
O9 N5 1_555 1_555
O10 N5 1_555 1_555
Ag1_2 N3_2 1_555 1_555
Ag1_3 N4 1_555 1_555
Ag1A O1A 1_555 1_555
Ag2A N1A 1_555 1_555
Ag2_2 N2 1_555 1_555
Ag2_3 N1_2 1_555 1_555
N1_2 C1_2 1_555 1_555
N2_2 Ag2 1_555 1_555
N2A Ag2A 1_555 1_555
N3_2 C11_2 1_555 1_555
N4_2 Ag1 1_555 1_555
N4_3 Ag1_2 1_555 1_555
C1_2 H1_2 1_555 1_555
C2_2 C1_2 1_555 1_555
H2_2 C2_2 1_555 1_555
C3_2 C2_2 1_555 1_555
C4_2 C3_2 1_555 1_555
H3_2 C4_2 1_555 1_555
C5_2 N1_2 1_555 1_555
H4_2 C5_2 1_555 1_555
C6_2 N2_2 1_555 1_555
H5_2 C6_2 1_555 1_555
C7_2 C6_2 1_555 1_555
H6_2 C7_2 1_555 1_555
C8_2 C3_2 1_555 1_555
C9_2 C8_2 1_555 1_555
H7_2 C9_2 1_555 1_555
C10_2 N2_2 1_555 1_555
H8_2 C10_2 1_555 1_555
C11_2 H9_2 1_555 1_555
C12_2 C11_2 1_555 1_555
H10_2 C12_2 1_555 1_555
C13_2 C12_2 1_555 1_555
C14_2 C13_2 1_555 1_555
H11_2 C14_2 1_555 1_555
C15_2 N3_2 1_555 1_555
H12_2 C15_2 1_555 1_555
C16_2 N4_2 1_555 1_555
H13_2 C16_2 1_555 1_555
C17_2 C16_2 1_555 1_555
H14_2 C17_2 1_555 1_555
C18_2 C13_2 1_555 1_555
C19_2 C18_2 1_555 1_555
H15_2 C19_2 1_555 1_555
C20_2 N4_2 1_555 1_555
H16_2 C20_2 1_555 1_555
C21A C23A 1_555 1_555
C22A C24 1_555 1_555
H17A C22A 1_555 1_555
H18A C22A 1_555 1_555
C23A C22A 1_555 1_555
H19A C23A 1_555 1_555
C24A C22 1_555 1_555
H20A C24A 1_555 1_555
H21A C24A 1_555 1_555
O1A C21A 1_555 1_555
O1_2 Ag1_2 1_555 1_555
O2A Ag2A 1_555 1_555
C4 C5 1_555 1_555
C7 C8 1_555 1_555
C9 C10 1_555 1_555
C14 C15 1_555 1_555
C17 C18 1_555 1_555
C19 C20 1_555 1_555
C21 O1 1_555 1_555
C21 O2 1_555 1_555
C4_2 C5_2 1_555 1_555
C7_2 C8_2 1_555 1_555
C9_2 C10_2 1_555 1_555
C14_2 C15_2 1_555 1_555
C17_2 C18_2 1_555 1_555
C19_2 C20_2 1_555 1_555
C21A O2A 1_555 1_555
C23A C24A 1_555 1_555

#END
