
#######################################################################
#
#                 Cambridge Crystallographic Data Centre
#                                CCDC 
#
#######################################################################
#
# If this CIF has been generated from an entry in the Cambridge 
# Structural Database, then it will include bibliographic, chemical, 
# crystal, experimental, refinement or atomic coordinate data resulting 
# from the CCDC's data processing and validation procedures.
#
#######################################################################

data_ACATIJ
_symmetry_cell_setting           triclinic
_symmetry_space_group_name_H-M   'P -1'
_symmetry_Int_Tables_number      2
_space_group_name_Hall           '-P 1'
loop_
_symmetry_equiv_pos_site_id
_symmetry_equiv_pos_as_xyz
1 x,y,z
2 -x,-y,-z
_cell_length_a                   8.1893(16)
_cell_length_b                   10.168(2)
_cell_length_c                   11.644(2)
_cell_angle_alpha                114.55(3)
_cell_angle_beta                 90.57(3)
_cell_angle_gamma                103.62(3)
_cell_volume                     850.735
loop_
_atom_site_label
_atom_site_type_symbol
_atom_site_fract_x
_atom_site_fract_y
_atom_site_fract_z
Ag1 Ag 0.39801(3) 0.16051(3) 0.05932(3)
N1 N 0.1860(3) -0.0212(3) 0.0530(2)
N2 N -0.4202(3) -0.6426(3) 0.0592(2)
C1 C 0.1495(4) -0.1565(3) -0.0451(3)
H1 H 0.2072 -0.1691 -0.1157
C2 C 0.0306(4) -0.2784(3) -0.0467(3)
H2 H 0.0116 -0.3712 -0.1164
C3 C -0.0607(3) -0.2625(3) 0.0558(3)
C4 C -0.0266(4) -0.1202(3) 0.1563(3)
H3 H -0.0864 -0.1030 0.2263
C5 C 0.0968(4) -0.0051(3) 0.1510(3)
H4 H 0.1191 0.0890 0.2195
C6 C -0.3812(4) -0.6358(3) -0.0497(3)
H5 H -0.4334 -0.7166 -0.1258
C7 C -0.2677(4) -0.5153(3) -0.0552(3)
H6 H -0.2454 -0.5154 -0.1334
C8 C -0.1868(3) -0.3933(3) 0.0572(3)
C9 C -0.2277(4) -0.3999(3) 0.1707(3)
H7 H -0.1769 -0.3209 0.2482
C10 C -0.3444(4) -0.5247(3) 0.1677(3)
H8 H -0.3713 -0.5267 0.2444
C11 C 0.5720(4) 0.0777(3) 0.2871(3)
C12 C 0.3625(4) -0.0053(4) 0.4149(3)
H9 H 0.2866 0.0438 0.3939
H10 H 0.3374 -0.1078 0.3501
C13 C 0.5458(4) 0.0759(3) 0.4160(3)
H11 H 0.5666 0.1800 0.4798
C14 C 0.6671(4) 0.0053(4) 0.4556(3)
H12 H 0.7827 0.0606 0.4598
H13 H 0.6517 -0.0970 0.3922
O1 O 0.6187(4) -0.0238(3) 0.2040(2)
O2 O 0.5419(3) 0.1882(3) 0.2719(2)
Ag1_2 Ag -0.60199(3) -0.83949(3) 0.05932(3)
Ag1A Ag 0.60199(3) -0.16051(3) 0.94068(3)
Ag1A_2 Ag 1.60199(3) 0.83949(3) 0.94068(3)
N1A N 0.8140(3) 0.0212(3) 0.9470(2)
N2_2 N 0.5798(3) 0.3574(3) 0.0592(2)
N2A N 0.4202(3) -0.3574(3) 0.9408(2)
N2A_2 N 1.4202(3) 0.6426(3) 0.9408(2)
C1A C 0.8505(4) 0.1565(3) 1.0451(3)
H1A H 0.7928 0.1691 1.1157
C2A C 0.9694(4) 0.2784(3) 1.0467(3)
H2A H 0.9884 0.3712 1.1164
C3A C 1.0607(3) 0.2625(3) 0.9442(3)
C4A C 1.0266(4) 0.1202(3) 0.8437(3)
H3A H 1.0864 0.1030 0.7737
C5A C 0.9032(4) 0.0051(3) 0.8490(3)
H4A H 0.8809 -0.0890 0.7805
C6A C 1.3812(4) 0.6358(3) 1.0497(3)
H5A H 1.4334 0.7166 1.1258
C7A C 1.2677(4) 0.5153(3) 1.0552(3)
H6A H 1.2454 0.5154 1.1334
C8A C 1.1868(3) 0.3933(3) 0.9428(3)
C9A C 1.2277(4) 0.3999(3) 0.8293(3)
H7A H 1.1769 0.3209 0.7518
C10A C 1.3444(4) 0.5247(3) 0.8323(3)
H8A H 1.3713 0.5267 0.7556
C11A C 0.4280(4) -0.0777(3) 0.7129(3)
C12A C 0.6375(4) 0.0053(4) 0.5851(3)
H9A H 0.7134 -0.0438 0.6061
H10A H 0.6626 0.1078 0.6499
C13A C 0.4542(4) -0.0759(3) 0.5840(3)
H11A H 0.4334 -0.1800 0.5202
C14A C 0.3329(4) -0.0053(4) 0.5444(3)
H12A H 0.2173 -0.0606 0.5402
H13A H 0.3483 0.0970 0.6078
O1A O 0.3813(4) 0.0238(3) 0.7960(2)
O2A O 0.4581(3) -0.1882(3) 0.7281(2)
C15 C 0.2858(4) 0.4005(3) 0.3791(3)
C16 C 0.0834(4) 0.5636(4) 0.4172(3)
H14 H 0.1696 0.6393 0.4055
H15 H 0.0188 0.4957 0.3350
C17 C 0.1682(4) 0.4767(3) 0.4677(3)
H16 H 0.2356 0.5478 0.5493
C18 C 0.0338(4) 0.3611(3) 0.4918(3)
H17 H -0.0321 0.2873 0.4118
H18 H 0.0887 0.3095 0.5276
O3 O 0.2961(3) 0.3961(3) 0.2744(2)
O4 O 0.3690(3) 0.3360(3) 0.4257(2)
H19 H 0.4233 0.2895 0.3719
C15A C -0.2858(4) 0.5995(3) 0.6209(3)
C16A C -0.0834(4) 0.4364(4) 0.5828(3)
H14A H -0.1696 0.3607 0.5945
H15A H -0.0188 0.5043 0.6650
C17A C -0.1682(4) 0.5233(3) 0.5323(3)
H16A H -0.2356 0.4522 0.4507
C18A C -0.0338(4) 0.6389(3) 0.5082(3)
H17A H 0.0321 0.7127 0.5882
H18A H -0.0887 0.6905 0.4724
O3A O -0.2961(3) 0.6039(3) 0.7256(2)
O4A O -0.3690(3) 0.6640(3) 0.5743(2)
H19A H -0.4233 0.7105 0.6281
loop_
_geom_bond_atom_site_label_1
_geom_bond_atom_site_label_2
_geom_bond_site_symmetry_1
_geom_bond_site_symmetry_2
Ag1 N1 1_555 1_555
N1 C1 1_555 1_555
N2 C6 1_555 1_555
C1 H1 1_555 1_555
C2 C1 1_555 1_555
H2 C2 1_555 1_555
C3 C2 1_555 1_555
C4 C3 1_555 1_555
H3 C4 1_555 1_555
C5 N1 1_555 1_555
H4 C5 1_555 1_555
C6 H5 1_555 1_555
C7 C6 1_555 1_555
H6 C7 1_555 1_555
C8 C3 1_555 1_555
C9 C8 1_555 1_555
H7 C9 1_555 1_555
C10 N2 1_555 1_555
H8 C10 1_555 1_555
C11 C13 1_555 1_555
C12 H9 1_555 1_555
H10 C12 1_555 1_555
C13 C12 1_555 1_555
H11 C13 1_555 1_555
C14 C13 1_555 1_555
H12 C14 1_555 1_555
H13 C14 1_555 1_555
C15 C17 1_555 1_555
C16 H14 1_555 1_555
H15 C16 1_555 1_555
C17 C16 1_555 1_555
H16 C17 1_555 1_555
C18 C17 1_555 1_555
H17 C18 1_555 1_555
H18 C18 1_555 1_555
O1 C11 1_555 1_555
O2 Ag1 1_555 1_555
O3 C15 1_555 1_555
O4 C15 1_555 1_555
H19 O4 1_555 1_555
Ag1_2 N2 1_555 1_555
Ag1A N1A 1_555 1_555
Ag1A_2 N2A_2 1_555 1_555
N1A C1A 1_555 1_555
N2_2 Ag1 1_555 1_555
N2A Ag1A 1_555 1_555
N2A_2 C6A 1_555 1_555
C1A H1A 1_555 1_555
C2A C1A 1_555 1_555
H2A C2A 1_555 1_555
C3A C2A 1_555 1_555
C4A C3A 1_555 1_555
H3A C4A 1_555 1_555
C5A N1A 1_555 1_555
H4A C5A 1_555 1_555
C6A H5A 1_555 1_555
C7A C6A 1_555 1_555
H6A C7A 1_555 1_555
C8A C3A 1_555 1_555
C9A C8A 1_555 1_555
H7A C9A 1_555 1_555
C10A N2A_2 1_555 1_555
H8A C10A 1_555 1_555
C11A C13A 1_555 1_555
C12A C14 1_555 1_555
H9A C12A 1_555 1_555
H10A C12A 1_555 1_555
C13A C12A 1_555 1_555
H11A C13A 1_555 1_555
C14A C12 1_555 1_555
H12A C14A 1_555 1_555
H13A C14A 1_555 1_555
C15A C17A 1_555 1_555
C16A C18 1_555 1_555
H14A C16A 1_555 1_555
H15A C16A 1_555 1_555
C17A C16A 1_555 1_555
H16A C17A 1_555 1_555
C18A C16 1_555 1_555
H17A C18A 1_555 1_555
H18A C18A 1_555 1_555
O1A C11A 1_555 1_555
O2A Ag1A 1_555 1_555
O3A C15A 1_555 1_555
O4A C15A 1_555 1_555
H19A O4A 1_555 1_555
C4 C5 1_555 1_555
C7 C8 1_555 1_555
C9 C10 1_555 1_555
C11 O2 1_555 1_555
C4A C5A 1_555 1_555
C7A C8A 1_555 1_555
C9A C10A 1_555 1_555
C11A O2A 1_555 1_555
C13A C14A 1_555 1_555
C17A C18A 1_555 1_555

#END
