
#######################################################################
#
#                 Cambridge Crystallographic Data Centre
#                                CCDC 
#
#######################################################################
#
# If this CIF has been generated from an entry in the Cambridge 
# Structural Database, then it will include bibliographic, chemical, 
# crystal, experimental, refinement or atomic coordinate data resulting 
# from the CCDC's data processing and validation procedures.
#
#######################################################################

data_ACELOL
_symmetry_cell_setting           orthorhombic
_symmetry_space_group_name_H-M   'P n a 21'
_symmetry_Int_Tables_number      33
_space_group_name_Hall           'P 2c -2n'
loop_
_symmetry_equiv_pos_site_id
_symmetry_equiv_pos_as_xyz
1 x,y,z
2 -x,-y,1/2+z
3 1/2-x,1/2+y,1/2+z
4 1/2+x,1/2-y,z
_cell_length_a                   16.256(4)
_cell_length_b                   16.085(5)
_cell_length_c                   17.810(3)
_cell_angle_alpha                90
_cell_angle_beta                 90
_cell_angle_gamma                90
_cell_volume                     4656.92
loop_
_atom_site_label
_atom_site_type_symbol
_atom_site_fract_x
_atom_site_fract_y
_atom_site_fract_z
C1 C -0.4770(4) 0.0022(5) 0.9928(5)
H1 H -0.4953 -0.0448 0.9674
C2 C -0.4272(5) -0.0092(5) 1.0554(4)
H2 H -0.4131 -0.0625 1.0713
C3 C -0.3997(4) 0.0581(5) 1.0927(4)
H3 H -0.3661 0.0519 1.1346
C4 C -0.4233(2) 0.1420(2) 1.0663(2)
C5 C -0.4722(2) 0.1475(2) 1.0025(2)
C6 C -0.4969(2) 0.2248(3) 0.97587(19)
C7 C -0.4726(2) 0.2967(2) 1.0131(2)
C8 C -0.4237(2) 0.2912(2) 1.0769(2)
C9 C -0.3990(2) 0.2139(3) 1.10353(18)
C10 C -0.5623(4) 0.3018(4) 0.8816(4)
H4 H -0.5928 0.3034 0.8374
C11 C -0.5405(4) 0.3773(4) 0.9163(4)
H5 H -0.5563 0.4277 0.8952
C12 C -0.4956(4) 0.3757(4) 0.9813(4)
H6 H -0.4802 0.4250 1.0047
C13 C -0.3485(5) 0.3125(5) 1.1753(4)
C14 C -0.3048(3) 0.4377(3) 1.2425(3)
H7 H -0.3332 0.4692 1.2071
C15 C -0.2637(3) 0.4769(2) 1.3010(3)
H8 H -0.2646 0.5346 1.3049
C16 C -0.2212(3) 0.4300(3) 1.3538(3)
C17 C -0.2199(3) 0.3438(3) 1.3481(3)
H9 H -0.1914 0.3124 1.3834
C18 C -0.2610(3) 0.3046(2) 1.2895(3)
H10 H -0.2601 0.2469 1.2857
C19 C -0.3035(3) 0.3516(3) 1.2367(2)
C20 C -0.4680(4) 0.1630(5) 0.7374(4)
H11 H -0.4879 0.2117 0.7590
C21 C -0.4114(5) 0.1694(5) 0.6780(4)
H12 H -0.3941 0.2213 0.6610
C22 C -0.3823(4) 0.0986(5) 0.6456(4)
H13 H -0.3459 0.1014 0.6054
C23 C -0.4078(4) 0.0211(4) 0.6736(4)
C24 C -0.4637(4) 0.0222(5) 0.7340(4)
C25 C -0.4928(3) -0.0569(4) 0.7659(3)
C26 C -0.4633(3) -0.1333(4) 0.7396(3)
C27 C -0.4919(4) -0.2053(4) 0.7746(3)
H14 H -0.4730 -0.2571 0.7593
C28 C -0.5477(4) -0.1992(4) 0.8312(3)
H15 H -0.5665 -0.2463 0.8561
C29 C -0.5758(3) -0.1214(4) 0.8507(7)
H16 H -0.6165 -0.1184 0.8873
C30 C -0.4094(3) -0.1311(4) 0.6772(3)
C31 C -0.3837(4) -0.0564(4) 0.6465(3)
C32 C -0.3316(4) -0.1631(4) 0.5838(4)
C33 C -0.2409(3) -0.1665(2) 0.4713(3)
H17 H -0.2364 -0.1089 0.4738
C34 C -0.2869(2) -0.2090(3) 0.5248(2)
C35 C -0.2936(2) -0.2950(3) 0.5212(2)
H18 H -0.3244 -0.3234 0.5570
C36 C -0.2544(3) -0.3386(2) 0.4641(3)
H19 H -0.2589 -0.3962 0.4617
C37 C -0.2084(3) -0.2961(3) 0.4106(2)
C38 C -0.2017(2) -0.2100(3) 0.4142(2)
H20 H -0.1710 -0.1816 0.3785
C39 C -1.3088(4) -0.1329(5) 1.2036(4)
C40 C -0.7681(4) -0.0460(5) 0.9363(5)
C41 C -0.85602(18) -0.0748(3) 0.9422(2)
C42 C -0.9071(2) -0.0705(3) 0.87969(18)
H21 H -0.8867 -0.0506 0.8343
C43 C -0.9886(2) -0.0958(3) 0.8850(2)
H22 H -1.0228 -0.0928 0.8432
C44 C -1.01913(19) -0.1254(3) 0.9528(2)
C45 C -0.9681(3) -0.1298(3) 1.01532(19)
H23 H -0.9885 -0.1496 1.0607
C46 C -0.8865(3) -0.1045(3) 1.00998(18)
H24 H -0.8524 -0.1074 1.0518
C47 C -1.1485(3) -0.1482(3) 1.0139(2)
C48 C -1.1506(3) -0.0764(3) 1.0573(3)
H25 H -1.1167 -0.0317 1.0453
C49 C -1.2033(3) -0.0713(2) 1.1185(2)
H26 H -1.2047 -0.0232 1.1475
C50 C -1.2540(2) -0.1380(3) 1.1364(2)
C51 C -1.2519(3) -0.2098(2) 1.0931(3)
H27 H -1.2858 -0.2545 1.1051
C52 C -1.1991(3) -0.2149(2) 1.0318(2)
H28 H -1.1977 -0.2630 1.0028
O1 O -0.7426(3) -0.0243(3) 0.8734(3)
O2 O -0.7249(3) -0.0470(4) 0.9946(3)
O3 O -1.0989(3) -0.1539(4) 0.9518(3)
O4 O -1.3256(3) -0.0597(3) 1.2279(2)
O5 O -1.3362(3) -0.1965(3) 1.2348(3)
Pb1 Pb -0.614176(10) 0.086360(11) 0.85222(3)
N1 N -0.4936(4) 0.0923(4) 0.7635(3)
N2 N -0.5498(3) -0.0514(3) 0.8219(3)
N3 N -0.3767(3) -0.1977(3) 0.6373(3)
N4 N -0.3337(3) -0.0769(3) 0.5871(3)
H29 H -0.3086 -0.0429 0.5577
N5 N -0.5412(3) 0.2292(3) 0.9092(3)
N6 N -0.4999(4) 0.0752(4) 0.9674(3)
N7 N -0.3948(3) 0.3527(3) 1.1240(3)
N8 N -0.3499(3) 0.2303(3) 1.1631(3)
H30 H -0.3238 0.1938 1.1890
F1 F -0.1807(3) 0.4679(4) 1.4087(3)
F2 F -0.1715(2) -0.3366(3) 0.3563(4)
O4A O -0.6744(3) 0.0597(3) 0.7279(2)
Pb1A Pb -1.385824(10) -0.086360(11) 1.35222(3)
O6 O -0.7437(4) -0.1041(4) 0.7380(3)
O7 O -0.3977(4) -0.3680(5) 0.6801(5)
O8 O -0.5120(7) -0.4908(7) 0.6654(9)
O9 O -1.3473(9) -0.3644(6) 1.2069(7)
loop_
_geom_bond_atom_site_label_1
_geom_bond_atom_site_label_2
_geom_bond_site_symmetry_1
_geom_bond_site_symmetry_2
C1 H1 1_555 1_555
C2 C1 1_555 1_555
H2 C2 1_555 1_555
C3 C2 1_555 1_555
H3 C3 1_555 1_555
C4 C3 1_555 1_555
C5 C4 1_555 1_555
C6 C5 1_555 1_555
C7 C6 1_555 1_555
C8 C7 1_555 1_555
C9 C4 1_555 1_555
C10 H4 1_555 1_555
C11 C10 1_555 1_555
H5 C11 1_555 1_555
C12 C7 1_555 1_555
H6 C12 1_555 1_555
C13 C19 1_555 1_555
C14 H7 1_555 1_555
C15 C14 1_555 1_555
H8 C15 1_555 1_555
C16 C15 1_555 1_555
C17 C16 1_555 1_555
H9 C17 1_555 1_555
C18 C17 1_555 1_555
H10 C18 1_555 1_555
C19 C14 1_555 1_555
C20 H11 1_555 1_555
C21 C20 1_555 1_555
H12 C21 1_555 1_555
C22 C21 1_555 1_555
H13 C22 1_555 1_555
C23 C22 1_555 1_555
C24 C23 1_555 1_555
C25 C24 1_555 1_555
C26 C25 1_555 1_555
C27 C26 1_555 1_555
H14 C27 1_555 1_555
C28 C27 1_555 1_555
H15 C28 1_555 1_555
C29 C28 1_555 1_555
H16 C29 1_555 1_555
C30 C26 1_555 1_555
C31 C23 1_555 1_555
C32 C34 1_555 1_555
C33 H17 1_555 1_555
C34 C33 1_555 1_555
C35 C34 1_555 1_555
H18 C35 1_555 1_555
C36 C35 1_555 1_555
H19 C36 1_555 1_555
C37 C36 1_555 1_555
C38 C33 1_555 1_555
H20 C38 1_555 1_555
C39 C50 1_555 1_555
C40 C41 1_555 1_555
C41 C42 1_555 1_555
C42 H21 1_555 1_555
C43 C42 1_555 1_555
H22 C43 1_555 1_555
C44 C43 1_555 1_555
C45 C44 1_555 1_555
H23 C45 1_555 1_555
C46 C41 1_555 1_555
H24 C46 1_555 1_555
C47 C48 1_555 1_555
C48 H25 1_555 1_555
C49 C48 1_555 1_555
H26 C49 1_555 1_555
C50 C49 1_555 1_555
C51 C50 1_555 1_555
H27 C51 1_555 1_555
C52 C47 1_555 1_555
H28 C52 1_555 1_555
O1 C40 1_555 1_555
O2 C40 1_555 1_555
O3 C44 1_555 1_555
O4 C39 1_555 1_555
O5 C39 1_555 1_555
Pb1 O1 1_555 1_555
N1 C20 1_555 1_555
N2 C25 1_555 1_555
N3 C30 1_555 1_555
N4 C31 1_555 1_555
H29 N4 1_555 1_555
N5 C6 1_555 1_555
N6 C1 1_555 1_555
N7 C8 1_555 1_555
N8 C9 1_555 1_555
H30 N8 1_555 1_555
F1 C16 1_555 1_555
F2 C37 1_555 1_555
O4A Pb1 1_555 1_555
Pb1A O4 1_555 1_555
C5 N6 1_555 1_555
C8 C9 1_555 1_555
C10 N5 1_555 1_555
C11 C12 1_555 1_555
C13 N7 1_555 1_555
C13 N8 1_555 1_555
C18 C19 1_555 1_555
C24 N1 1_555 1_555
C29 N2 1_555 1_555
C30 C31 1_555 1_555
C32 N3 1_555 1_555
C32 N4 1_555 1_555
C37 C38 1_555 1_555
C45 C46 1_555 1_555
C47 O3 1_555 1_555
C51 C52 1_555 1_555
Pb1 N1 1_555 1_555
Pb1 N2 1_555 1_555
Pb1 N5 1_555 1_555
Pb1 N6 1_555 1_555

#END
