
#######################################################################
#
#                 Cambridge Crystallographic Data Centre
#                                CCDC 
#
#######################################################################
#
# If this CIF has been generated from an entry in the Cambridge 
# Structural Database, then it will include bibliographic, chemical, 
# crystal, experimental, refinement or atomic coordinate data resulting 
# from the CCDC's data processing and validation procedures.
#
#######################################################################

data_ACEMAY
_symmetry_cell_setting           orthorhombic
_symmetry_space_group_name_H-M   'P n m a'
_symmetry_Int_Tables_number      62
_space_group_name_Hall           '-P 2ac 2n'
loop_
_symmetry_equiv_pos_site_id
_symmetry_equiv_pos_as_xyz
1 x,y,z
2 1/2-x,-y,1/2+z
3 -x,1/2+y,-z
4 1/2+x,1/2-y,1/2-z
5 -x,-y,-z
6 1/2+x,y,1/2-z
7 x,1/2-y,z
8 1/2-x,1/2+y,1/2+z
_cell_length_a                   10.4923(9)
_cell_length_b                   20.0481(17)
_cell_length_c                   17.2999(14)
_cell_angle_alpha                90
_cell_angle_beta                 90
_cell_angle_gamma                90
_cell_volume                     3639.05
loop_
_atom_site_label
_atom_site_type_symbol
_atom_site_fract_x
_atom_site_fract_y
_atom_site_fract_z
Zn1 Zn -0.15191(9) -0.2500 1.08974(5)
O1 O -0.0644(4) -0.1677(2) 1.0681(3)
O2 O -0.1784(5) -0.1533(3) 0.9619(3)
O3 O -0.3369(5) -0.2500 1.0783(4)
O4 O -0.1529(6) -0.2500 1.2052(4)
S1 S -0.4047(2) -0.2500 1.00018(14)
S2 S -0.0475(3) -0.2500 1.26534(14)
C1 C -0.1125(5) -0.0116(3) 1.0411(3)
C2 C 0.0642(5) -0.0526(3) 0.9647(3)
C3 C -0.0490(6) -0.0645(3) 1.0058(3)
C4 C -0.1035(6) -0.1347(3) 1.0105(4)
C5 C -0.5106(11) -0.3173(7) 1.0058(7)
H1 H -0.5675 -0.3109 1.0486
H2 H -0.5589 -0.3202 0.9588
H3 H -0.4635 -0.3579 1.0131
C6 C 0.0533(10) -0.3175(4) 1.2427(7)
H4 H 0.0754 -0.3158 1.1889
H5 H 0.1294 -0.3148 1.2734
H6 H 0.0101 -0.3586 1.2535
I1 I -0.28216(5) -0.03256(3) 1.10099(3)
I2 I 0.15780(4) -0.13478(2) 0.91500(3)
Zn1B Zn 0.15191(9) 0.2500 0.91026(5)
O1D O 0.0644(4) 0.1677(2) 0.9319(3)
O1F O -0.0644(4) -0.3323(2) 1.0681(3)
O2D O 0.1784(5) 0.1533(3) 1.0381(3)
C1D C 0.1125(5) 0.0116(3) 0.9589(3)
C2D C -0.0642(5) 0.0526(3) 1.0353(3)
C3D C 0.0490(6) 0.0645(3) 0.9942(3)
C4D C 0.1035(6) 0.1347(3) 0.9895(4)
C5F C -0.5106(11) -0.1827(7) 1.0058(7)
H1F H -0.5675 -0.1891 1.0486
H2F H -0.5589 -0.1798 0.9588
H3F H -0.4635 -0.1421 1.0131
C6F C 0.0533(10) -0.1825(4) 1.2427(7)
H4F H 0.0754 -0.1842 1.1889
H5F H 0.1294 -0.1852 1.2734
H6F H 0.0101 -0.1414 1.2535
I1D I 0.28216(5) 0.03256(3) 0.89901(3)
I2D I -0.15780(4) 0.13478(2) 1.08500(3)
O5 O 0.629(4) 0.316(2) 0.273(2)
O6 O 0.4555(10) -0.0554(5) 0.1688(8)
S3 S 0.3589(5) -0.0171(3) 0.1209(3)
C7 C 0.2022(9) -0.0343(11) 0.1575(10)
H7 H 0.2019 -0.0751 0.1865
H8 H 0.1410 -0.0372 0.1164
H9 H 0.1803 0.0022 0.1910
C8 C 0.394(3) 0.0666(5) 0.1508(17)
H10 H 0.4751 0.0868 0.1394
H11 H 0.3941 0.0511 0.2033
H12 H 0.3277 0.0989 0.1440
O7? O 0.6854(9) 0.2500 0.1581(5)
O8? O 0.7016(8) 0.2718(4) 0.2402(4)
O9? O 0.6057(14) 0.2500 0.2281(8)
S4? S 0.3764(12) 0.0068(9) 0.1966(7)
loop_
_geom_bond_atom_site_label_1
_geom_bond_atom_site_label_2
_geom_bond_site_symmetry_1
_geom_bond_site_symmetry_2
Zn1 O1 1_555 1_555
O1 C4 1_555 1_555
O2 C4 1_555 1_555
O3 Zn1 1_555 1_555
O4 Zn1 1_555 1_555
S1 O3 1_555 1_555
S2 O4 1_555 1_555
C1 C3 1_555 1_555
C2 C3 1_555 1_555
C3 C4 1_555 1_555
C5 S1 1_555 1_555
H1 C5 1_555 1_555
H2 C5 1_555 1_555
H3 C5 1_555 1_555
C6 S2 1_555 1_555
H4 C6 1_555 1_555
H5 C6 1_555 1_555
H6 C6 1_555 1_555
I1 C1 1_555 1_555
I2 C2 1_555 1_555
O6 S3 1_555 1_555
S3 C7 1_555 1_555
C7 H7 1_555 1_555
H8 C7 1_555 1_555
H9 C7 1_555 1_555
C8 S3 1_555 1_555
H10 C8 1_555 1_555
H11 C8 1_555 1_555
H12 C8 1_555 1_555
Zn1B O1D 1_555 1_555
O1D C4D 1_555 1_555
O1F Zn1 1_555 1_555
O2D C4D 1_555 1_555
C1D C2 1_555 1_555
C2D C1 1_555 1_555
C3D C1D 1_555 1_555
C4D C3D 1_555 1_555
C5F S1 1_555 1_555
H1F C5F 1_555 1_555
H2F C5F 1_555 1_555
H3F C5F 1_555 1_555
C6F S2 1_555 1_555
H4F C6F 1_555 1_555
H5F C6F 1_555 1_555
H6F C6F 1_555 1_555
I1D C1D 1_555 1_555
I2D C2D 1_555 1_555
C2D C3D 1_555 1_555

#END
