
#######################################################################
#
#                 Cambridge Crystallographic Data Centre
#                                CCDC 
#
#######################################################################
#
# If this CIF has been generated from an entry in the Cambridge 
# Structural Database, then it will include bibliographic, chemical, 
# crystal, experimental, refinement or atomic coordinate data resulting 
# from the CCDC's data processing and validation procedures.
#
#######################################################################

data_ACEPON
_symmetry_cell_setting           triclinic
_symmetry_space_group_name_H-M   'P -1'
_symmetry_Int_Tables_number      2
_space_group_name_Hall           '-P 1'
loop_
_symmetry_equiv_pos_site_id
_symmetry_equiv_pos_as_xyz
1 x,y,z
2 -x,-y,-z
_cell_length_a                   11.191(3)
_cell_length_b                   11.750(4)
_cell_length_c                   11.802(3)
_cell_angle_alpha                86.92(3)
_cell_angle_beta                 82.65(2)
_cell_angle_gamma                62.90(2)
_cell_volume                     1370.15
loop_
_atom_site_label
_atom_site_type_symbol
_atom_site_fract_x
_atom_site_fract_y
_atom_site_fract_z
Cu1 Cu 0.0000 0.0000 0.5000
S1 S -0.2166(2) -0.0655(2) 0.62490(13)
S2 S 0.2328(2) -0.2949(2) 0.5827(2)
S3 S -0.1154(2) 0.0156(2) 0.27448(13)
O5 O -0.1806(4) 0.0080(4) 0.5273(3)
O6 O 0.1011(5) -0.2223(5) 0.5345(4)
O7 O 0.0106(4) -0.0311(5) 0.3358(3)
C1 C -0.3487(8) -0.0902(8) 0.5768(7)
H1 H -0.3079(8) -0.1609(8) 0.5229(7)
H2 H -0.3938(8) -0.1152(8) 0.6418(7)
C2 C -0.4486(8) 0.0176(8) 0.5236(6)
H3 H -0.4044(8) 0.0473(8) 0.4614(6)
H4 H -0.4964(8) 0.0866(8) 0.5788(6)
C3 C 0.3069(9) -0.4486(8) 0.5109(8)
H5 H 0.2561(9) -0.4947(8) 0.5391(8)
H6 H 0.3004(9) -0.4351(8) 0.4297(8)
C4 C 0.4542(9) -0.5289(8) 0.5295(8)
H7 H 0.4854(9) -0.6144(8) 0.4998(8)
H8 H 0.4617(9) -0.5357(8) 0.6109(8)
C5 C -0.0465(14) 0.0259(11) 0.1273(6)
C6 C 0.0479(16) -0.0753(14) 0.0787(11)
C7 C -0.1120(16) 0.0410(17) 0.0385(11)
C8 C -0.3060(6) 0.0488(7) 0.7382(5)
C9 C -0.3391(7) 0.0060(8) 0.8432(6)
H9 H -0.3212(7) -0.0791(8) 0.8537(6)
C10 C -0.3998(9) 0.0936(10) 0.9328(6)
H10 H -0.4244(9) 0.0675(10) 1.0039(6)
C11 C -0.4235(9) 0.2176(10) 0.9167(7)
H11 H -0.4627(9) 0.2752(10) 0.9774(7)
C12 C -0.3902(9) 0.2579(9) 0.8126(7)
H12 H -0.4078(9) 0.3429(9) 0.8025(7)
C13 C -0.3309(7) 0.1738(7) 0.7221(6)
H13 H -0.3079(7) 0.2012(7) 0.6511(6)
C14 C 0.1931(8) -0.3398(6) 0.7242(6)
C15 C 0.2875(9) -0.3750(7) 0.8001(7)
H14 H 0.3712(9) -0.3773(7) 0.7772(7)
C16 C 0.2566(11) -0.4071(9) 0.9107(8)
H15 H 0.3216(11) -0.4355(9) 0.9613(8)
C17 C 0.1291(12) -0.3970(9) 0.9465(8)
H16 H 0.1072(12) -0.4145(9) 1.0219(8)
C18 C 0.0356(9) -0.3610(8) 0.8703(8)
H17 H -0.0493(9) -0.3559(8) 0.8937(8)
C19 C 0.0667(8) -0.3325(7) 0.7592(7)
H18 H 0.0031(8) -0.3083(7) 0.7077(7)
C20 C -0.1453(7) -0.1198(6) 0.2619(5)
C21 C -0.0530(9) -0.2377(8) 0.2904(8)
H19 H 0.0267(9) -0.2498(8) 0.3168(8)
C22 C -0.0810(11) -0.3414(9) 0.2789(10)
H20 H -0.0186(11) -0.4238(9) 0.2961(10)
C23 C -0.1996(11) -0.3204(10) 0.2427(10)
H21 H -0.2174(11) -0.3892(10) 0.2341(10)
C24 C -0.2917(10) -0.2018(10) 0.2190(8)
H22 H -0.3734(10) -0.1895(10) 0.1965(8)
C25 C -0.2667(7) -0.0968(7) 0.2277(6)
H23 H -0.3299(7) -0.0146(7) 0.2109(6)
O5A O 0.1806(4) -0.0080(4) 0.4727(3)
O6A O -0.1011(5) 0.2223(5) 0.4655(4)
O7A O -0.0106(4) 0.0311(5) 0.6642(3)
C2A C -0.5514(8) -0.0176(8) 0.4764(6)
C4A C 0.5458(9) -0.4711(8) 0.4705(8)
C7A C 0.1120(16) -0.0410(17) -0.0385(11)
C6A C -0.0479(16) 0.0753(14) -0.0787(11)
Cl1 Cl -0.3492(3) -0.3522(2) 0.7801(2)
O1 O -0.4667(10) -0.2477(11) 0.7689(12)
O2 O -0.3672(12) -0.4527(8) 0.8238(10)
O3 O -0.2524(14) -0.3732(10) 0.6903(10)
O4 O -0.2976(14) -0.3148(13) 0.8602(12)
loop_
_geom_bond_atom_site_label_1
_geom_bond_atom_site_label_2
_geom_bond_site_symmetry_1
_geom_bond_site_symmetry_2
Cl1 O1 1_555 1_555
O2 Cl1 1_555 1_555
O3 Cl1 1_555 1_555
O4 Cl1 1_555 1_555
Cu1 O5 1_555 1_555
S1 O5 1_555 1_555
S2 O6 1_555 1_555
S3 O7 1_555 1_555
O6 Cu1 1_555 1_555
O7 Cu1 1_555 1_555
C1 S1 1_555 1_555
H1 C1 1_555 1_555
H2 C1 1_555 1_555
C2 C1 1_555 1_555
H3 C2 1_555 1_555
H4 C2 1_555 1_555
C3 S2 1_555 1_555
H5 C3 1_555 1_555
H6 C3 1_555 1_555
C4 C3 1_555 1_555
H7 C4 1_555 1_555
H8 C4 1_555 1_555
C5 S3 1_555 1_555
C6 C5 1_555 1_555
C7 C5 1_555 1_555
C8 S1 1_555 1_555
C9 C8 1_555 1_555
H9 C9 1_555 1_555
C10 C9 1_555 1_555
H10 C10 1_555 1_555
C11 C10 1_555 1_555
H11 C11 1_555 1_555
C12 C11 1_555 1_555
H12 C12 1_555 1_555
C13 C8 1_555 1_555
H13 C13 1_555 1_555
C14 S2 1_555 1_555
C15 C14 1_555 1_555
H14 C15 1_555 1_555
C16 C15 1_555 1_555
H15 C16 1_555 1_555
C17 C16 1_555 1_555
H16 C17 1_555 1_555
C18 C17 1_555 1_555
H17 C18 1_555 1_555
C19 C14 1_555 1_555
H18 C19 1_555 1_555
C20 S3 1_555 1_555
C21 C20 1_555 1_555
H19 C21 1_555 1_555
C22 C21 1_555 1_555
H20 C22 1_555 1_555
C23 C22 1_555 1_555
H21 C23 1_555 1_555
C24 C23 1_555 1_555
H22 C24 1_555 1_555
C25 C20 1_555 1_555
H23 C25 1_555 1_555
O5A Cu1 1_555 1_555
O6A Cu1 1_555 1_555
O7A Cu1 1_555 1_555
C2A C2 1_555 1_555
C4A C4 1_555 1_555
C7A C6 1_555 1_555
C6A C7 1_555 1_555
C6 C7 1_555 1_555
C12 C13 1_555 1_555
C18 C19 1_555 1_555
C24 C25 1_555 1_555
C7A C6A 1_555 1_555

#END
