
#######################################################################
#
#                 Cambridge Crystallographic Data Centre
#                                CCDC 
#
#######################################################################
#
# If this CIF has been generated from an entry in the Cambridge 
# Structural Database, then it will include bibliographic, chemical, 
# crystal, experimental, refinement or atomic coordinate data resulting 
# from the CCDC's data processing and validation procedures.
#
#######################################################################

data_ACEVAF
_symmetry_cell_setting           monoclinic
_symmetry_space_group_name_H-M   'P 21/n'
_symmetry_Int_Tables_number      14
_space_group_name_Hall           '-P 2yn'
loop_
_symmetry_equiv_pos_site_id
_symmetry_equiv_pos_as_xyz
1 x,y,z
2 1/2+x,1/2-y,1/2+z
3 -x,-y,-z
4 1/2-x,1/2+y,1/2-z
_cell_length_a                   7.0650(10)
_cell_length_b                   15.148(3)
_cell_length_c                   11.113(2)
_cell_angle_alpha                90
_cell_angle_beta                 98.090(10)
_cell_angle_gamma                90
_cell_volume                     1177.48
loop_
_atom_site_label
_atom_site_type_symbol
_atom_site_fract_x
_atom_site_fract_y
_atom_site_fract_z
Ni1 Ni -0.5000 -0.5000 0.5000
N1 N -0.5149(2) -0.49563(13) -0.32056(14)
O1 O -0.4832(2) -0.34882(10) 0.49844(14)
O2 O -0.1675(2) -0.33124(11) 0.52315(15)
O3 O -0.3538(3) -0.22503(12) 0.72189(17)
H1 H -0.358(4) -0.2225(4) 0.802(3)
O4 O -0.4192(3) -0.08158(13) 0.73320(19)
O5 O -0.7956(2) -0.48891(12) 0.46526(14)
H2 H -0.8282(7) -0.4643(12) 0.3945(15)
H3 H -0.8479(10) -0.5478(11) 0.4580(17)
C1 C -0.4080(4) -0.43878(15) -0.24883(19)
H6 H -0.3352 -0.3978 -0.2845
C2 C -0.4004(4) -0.43806(16) -0.12409(19)
H7 H -0.3251 -0.3966 -0.0779
C3 C -0.5044(3) -0.49880(16) -0.06740(16)
C4 C -0.6175(4) -0.55650(19) -0.1425(2)
H8 H -0.6917 -0.5981 -0.1092
C5 C -0.6207(4) -0.55248(18) -0.2668(2)
H9 H -0.7002 -0.5912 -0.3154
C6 C -0.3354(3) -0.30207(16) 0.50160(19)
C7 C -0.3643(4) -0.20650(17) 0.4651(2)
C8 C -0.3890(4) -0.14097(17) 0.5416(2)
H10 H -0.4089 -0.0852 0.5071
C9 C -0.3886(4) -0.14621(18) 0.6738(2)
C10 C -0.3674(5) -0.19101(19) 0.3308(2)
H11 H -0.3987 -0.1304 0.3121
H12 H -0.2439 -0.2042 0.3087
H13 H -0.4616 -0.2286 0.2860
C3B C -0.4956(3) -0.50120(16) 0.06740(16)
C2B C -0.5996(4) -0.56194(16) 0.12409(19)
C1B C -0.5920(4) -0.56122(15) 0.24883(19)
N1B N -0.4851(2) -0.50437(13) 0.32056(14)
Ni1_2 Ni -0.5000 -0.5000 -0.5000
N1_2 N -0.5149(2) -0.49563(13) 0.67944(14)
O1B O -0.5168(2) -0.65118(10) 0.50156(14)
C6B C -0.6646(3) -0.69793(16) 0.49840(19)
O2B O -0.8325(2) -0.66876(11) 0.47685(15)
C7B C -0.6357(4) -0.79350(17) 0.5349(2)
C8B C -0.6110(4) -0.85903(17) 0.4584(2)
H10B H -0.5911 -0.9148 0.4929
C9B C -0.6114(4) -0.85379(18) 0.3262(2)
O3B O -0.6462(3) -0.77497(12) 0.27811(17)
H1B H -0.642(4) -0.7775(4) 0.198(3)
O4B O -0.5808(3) -0.91842(13) 0.26680(19)
C10B C -0.6326(5) -0.80899(19) 0.6692(2)
H11B H -0.6013 -0.8696 0.6879
H12B H -0.7561 -0.7958 0.6913
H13B H -0.5384 -0.7714 0.7140
O5B O -0.2044(2) -0.51109(12) 0.53474(14)
H2B H -0.1718(7) -0.5357(12) 0.6055(15)
H3B H -0.1521(10) -0.4522(11) 0.5420(17)
C5B C -0.3793(4) -0.44752(18) 0.2668(2)
C4B C -0.3825(4) -0.44350(19) 0.1425(2)
H8B H -0.3083 -0.4019 0.1092
H9B H -0.2998 -0.4088 0.3154
H6B H -0.6648 -0.6022 0.2845
H7B H -0.6749 -0.6034 0.0779
O6 O -0.6663(2) -0.76652(11) -0.95609(15)
H4 H -0.5788(18) -0.7881(5) -0.9894(7)
H5 H -0.768(2) -0.7970(6) -0.9801(5)
loop_
_geom_bond_atom_site_label_1
_geom_bond_atom_site_label_2
_geom_bond_site_symmetry_1
_geom_bond_site_symmetry_2
Ni1 O1 1_555 1_555
N1 C1 1_555 1_555
O1 C6 1_555 1_555
O2 C6 1_555 1_555
O3 H1 1_555 1_555
O4 C9 1_555 1_555
O5 Ni1 1_555 1_555
H2 O5 1_555 1_555
H3 O5 1_555 1_555
O6 H4 1_555 1_555
H5 O6 1_555 1_555
C1 H6 1_555 1_555
C2 C1 1_555 1_555
H7 C2 1_555 1_555
C3 C2 1_555 1_555
C4 C3 1_555 1_555
H8 C4 1_555 1_555
C5 N1 1_555 1_555
H9 C5 1_555 1_555
C6 C7 1_555 1_555
C7 C8 1_555 1_555
C8 H10 1_555 1_555
C9 O3 1_555 1_555
C10 C7 1_555 1_555
H11 C10 1_555 1_555
H12 C10 1_555 1_555
H13 C10 1_555 1_555
C3B C3 1_555 1_555
C2B C3B 1_555 1_555
C1B C2B 1_555 1_555
N1B Ni1 1_555 1_555
Ni1_2 N1 1_555 1_555
N1_2 Ni1 1_555 1_555
O1B Ni1 1_555 1_555
C6B O1B 1_555 1_555
O2B C6B 1_555 1_555
C7B C6B 1_555 1_555
C8B C7B 1_555 1_555
H10B C8B 1_555 1_555
C9B C8B 1_555 1_555
O3B C9B 1_555 1_555
H1B O3B 1_555 1_555
O4B C9B 1_555 1_555
C10B C7B 1_555 1_555
H11B C10B 1_555 1_555
H12B C10B 1_555 1_555
H13B C10B 1_555 1_555
O5B Ni1 1_555 1_555
H2B O5B 1_555 1_555
H3B O5B 1_555 1_555
C5B N1B 1_555 1_555
C4B C3B 1_555 1_555
H8B C4B 1_555 1_555
H9B C5B 1_555 1_555
H6B C1B 1_555 1_555
H7B C2B 1_555 1_555
C4 C5 1_555 1_555
C8 C9 1_555 1_555
C1B N1B 1_555 1_555
C5B C4B 1_555 1_555

#END
