
#######################################################################
#
#                 Cambridge Crystallographic Data Centre
#                                CCDC 
#
#######################################################################
#
# If this CIF has been generated from an entry in the Cambridge 
# Structural Database, then it will include bibliographic, chemical, 
# crystal, experimental, refinement or atomic coordinate data resulting 
# from the CCDC's data processing and validation procedures.
#
#######################################################################

data_ACICUL
_symmetry_cell_setting           monoclinic
_symmetry_space_group_name_H-M   'P 21/c'
_symmetry_Int_Tables_number      14
_space_group_name_Hall           '-P 2ybc'
loop_
_symmetry_equiv_pos_site_id
_symmetry_equiv_pos_as_xyz
1 x,y,z
2 -x,1/2+y,1/2-z
3 -x,-y,-z
4 x,1/2-y,1/2+z
_cell_length_a                   14.673(5)
_cell_length_b                   11.017(3)
_cell_length_c                   17.219(5)
_cell_angle_alpha                90
_cell_angle_beta                 97.936(19)
_cell_angle_gamma                90
_cell_volume                     2756.84
loop_
_atom_site_label
_atom_site_type_symbol
_atom_site_fract_x
_atom_site_fract_y
_atom_site_fract_z
Zn1 Zn 0.01088(3) 0.25761(4) 0.17771(3)
O1 O 0.1430(2) 0.2140(3) 0.21112(19)
O2 O 0.0961(2) 0.0267(3) 0.1830(2)
O3 O 0.52567(18) -0.0675(3) 0.24266(19)
O4 O 0.9177(2) 0.1678(3) 0.2272(2)
O5 O 0.8392(3) 0.2671(4) 0.1321(2)
O6 O 0.0243(3) 0.4121(3) 0.2368(2)
N1 N 0.0208(2) 0.3020(3) 0.06226(19)
N2 N 0.2434(3) 0.5143(3) 0.0148(2)
N3 N 0.5684(2) 0.7699(3) -0.0153(2)
N4 N 0.8586(2) 0.8992(3) 0.1253(2)
C1 C -0.0436(3) 0.2732(4) 0.0004(3)
C2 C -0.0358(3) 0.3021(4) -0.0748(3)
C3 C 0.0406(3) 0.3679(4) -0.0901(3)
C4 C 0.1066(3) 0.4004(4) -0.0286(2)
C5 C 0.0946(3) 0.3633(4) 0.0466(2)
C6 C 0.1875(3) 0.4739(4) -0.0421(3)
C7 C 0.3236(3) 0.5802(4) 0.0014(2)
C8 C 0.3514(3) 0.6723(5) 0.0540(3)
C9 C 0.4308(3) 0.7365(5) 0.0497(3)
C10 C 0.4851(3) 0.7090(4) -0.0082(2)
C11 C 0.4547(3) 0.6200(4) -0.0634(3)
C12 C 0.3751(3) 0.5570(4) -0.0577(3)
C13 C 0.6249(3) 0.7850(4) 0.0469(3)
C14 C 0.7132(3) 0.8481(4) 0.0498(2)
C15 C 0.7382(4) 0.9102(5) -0.0143(3)
C16 C 0.8236(4) 0.9650(5) -0.0070(3)
C17 C 0.8810(4) 0.9573(5) 0.0631(3)
C18 C 0.7742(3) 0.8454(4) 0.1165(3)
C19 C 0.1583(3) 0.1013(4) 0.2035(2)
C20 C 0.2554(3) 0.0603(4) 0.2180(2)
C21 C 0.2767(3) -0.0624(4) 0.2173(2)
C22 C 0.3668(3) -0.1022(4) 0.2253(3)
C23 C 0.4384(3) -0.0188(3) 0.2343(2)
C24 C 0.4187(3) 0.1050(4) 0.2367(3)
C25 C 0.3286(3) 0.1430(4) 0.2289(2)
C26 C 0.6008(2) 0.0033(3) 0.2287(2)
C27 C 0.6786(3) -0.0021(4) 0.2839(3)
C28 C 0.7572(3) 0.0579(4) 0.2695(2)
C29 C 0.7574(2) 0.1282(3) 0.2028(2)
C30 C 0.6790(3) 0.1338(4) 0.1485(3)
C31 C 0.5990(3) 0.0709(4) 0.1609(3)
C32 C 0.8426(3) 0.1926(4) 0.1855(3)
H1 H -0.081(3) 0.241(4) 0.014(2)
H2 H -0.077(4) 0.274(5) -0.112(3)
H3 H 0.054(3) 0.391(4) -0.142(2)
H4 H 0.135(4) 0.386(5) 0.094(3)
H5 H 0.191(3) 0.491(3) -0.099(2)
H6 H 0.317(4) 0.691(5) 0.088(3)
H7 H 0.441(3) 0.805(4) 0.081(2)
H8 H 0.485(3) 0.599(4) -0.107(2)
H9 H 0.357(3) 0.498(4) -0.091(3)
H10 H 0.607(4) 0.751(4) 0.089(3)
H11 H 0.699(4) 0.907(5) -0.060(3)
H12 H 0.835(4) 1.007(5) -0.049(3)
H13 H 0.935(3) 0.987(4) 0.070(2)
H14 H 0.758(3) 0.807(4) 0.153(3)
H15 H 0.221(3) -0.122(4) 0.216(2)
H16 H 0.379(3) -0.177(4) 0.224(2)
H17 H 0.466(4) 0.157(5) 0.248(3)
H18 H 0.311(5) 0.229(6) 0.230(4)
H19 H 0.675(3) -0.046(4) 0.329(2)
H20 H 0.814(3) 0.055(3) 0.308(2)
H21 H 0.683(2) 0.177(3) 0.100(2)
H22 H 0.545(3) 0.073(4) 0.128(2)
H23 H -0.023(4) 0.448(5) 0.249(3)
H24 H 0.061(4) 0.405(5) 0.276(3)
Zn1_2 Zn 1.01088(3) 0.25761(4) 0.17771(3)
O4_2 O -0.0823(2) 0.1678(3) 0.2272(2)
loop_
_geom_bond_atom_site_label_1
_geom_bond_atom_site_label_2
_geom_bond_site_symmetry_1
_geom_bond_site_symmetry_2
Zn1 O1 1_555 1_555
O1 C19 1_555 1_555
O2 C19 1_555 1_555
O3 C23 1_555 1_555
O4 C32 1_555 1_555
O5 C32 1_555 1_555
O6 Zn1 1_555 1_555
N1 Zn1 1_555 1_555
N2 C6 1_555 1_555
N3 C10 1_555 1_555
N4 C17 1_555 1_555
C1 N1 1_555 1_555
C2 C1 1_555 1_555
C3 C2 1_555 1_555
C4 C3 1_555 1_555
C5 N1 1_555 1_555
C6 C4 1_555 1_555
C7 N2 1_555 1_555
C8 C7 1_555 1_555
C9 C8 1_555 1_555
C10 C9 1_555 1_555
C11 C10 1_555 1_555
C12 C7 1_555 1_555
C13 N3 1_555 1_555
C14 C13 1_555 1_555
C15 C14 1_555 1_555
C16 C15 1_555 1_555
C17 C16 1_555 1_555
C18 N4 1_555 1_555
C19 C20 1_555 1_555
C20 C21 1_555 1_555
C21 C22 1_555 1_555
C22 C23 1_555 1_555
C23 C24 1_555 1_555
C24 C25 1_555 1_555
C25 C20 1_555 1_555
C26 O3 1_555 1_555
C27 C26 1_555 1_555
C28 C27 1_555 1_555
C29 C28 1_555 1_555
C30 C29 1_555 1_555
C31 C26 1_555 1_555
C32 C29 1_555 1_555
H1 C1 1_555 1_555
H2 C2 1_555 1_555
H3 C3 1_555 1_555
H4 C5 1_555 1_555
H5 C6 1_555 1_555
H6 C8 1_555 1_555
H7 C9 1_555 1_555
H8 C11 1_555 1_555
H9 C12 1_555 1_555
H10 C13 1_555 1_555
H11 C15 1_555 1_555
H12 C16 1_555 1_555
H13 C17 1_555 1_555
H14 C18 1_555 1_555
H15 C21 1_555 1_555
H16 C22 1_555 1_555
H17 C24 1_555 1_555
H18 C25 1_555 1_555
H19 C27 1_555 1_555
H20 C28 1_555 1_555
H21 C30 1_555 1_555
H22 C31 1_555 1_555
H23 O6 1_555 1_555
H24 O6 1_555 1_555
Zn1_2 O4 1_555 1_555
O4_2 Zn1 1_555 1_555
C4 C5 1_555 1_555
C11 C12 1_555 1_555
C14 C18 1_555 1_555
C30 C31 1_555 1_555

#END
