
#######################################################################
#
#                 Cambridge Crystallographic Data Centre
#                                CCDC 
#
#######################################################################
#
# If this CIF has been generated from an entry in the Cambridge 
# Structural Database, then it will include bibliographic, chemical, 
# crystal, experimental, refinement or atomic coordinate data resulting 
# from the CCDC's data processing and validation procedures.
#
#######################################################################

data_ACIFOI
_symmetry_cell_setting           monoclinic
_symmetry_space_group_name_H-M   'P 21/n'
_symmetry_Int_Tables_number      14
_space_group_name_Hall           '-P 2yn'
loop_
_symmetry_equiv_pos_site_id
_symmetry_equiv_pos_as_xyz
1 x,y,z
2 1/2-x,1/2+y,1/2-z
3 -x,-y,-z
4 1/2+x,1/2-y,1/2+z
_cell_length_a                   7.552(3)
_cell_length_b                   13.679(3)
_cell_length_c                   15.843(4)
_cell_angle_alpha                90
_cell_angle_beta                 97.63(3)
_cell_angle_gamma                90
_cell_volume                     1622.15
loop_
_atom_site_label
_atom_site_type_symbol
_atom_site_fract_x
_atom_site_fract_y
_atom_site_fract_z
H1 H 0.094(4) -0.144(2) 0.575(2)
H2 H -0.491(5) -0.005(3) 0.187(2)
H3 H 0.210(4) -0.183(2) 0.333(2)
H4 H 0.301(5) -0.200(3) 0.482(2)
H5 H -0.630(5) 0.050(2) 0.413(2)
H6 H 0.302(5) -0.210(3) 0.039(3)
H7 H -0.704(5) 0.065(3) 0.265(2)
H8 H -0.404(6) -0.094(3) -0.035(3)
H9 H -0.253(7) -0.077(3) -0.080(3)
H10 H 0.287(7) -0.252(4) 0.121(3)
H11 H 0.358(6) -0.167(4) 0.133(3)
H12 H -0.333(5) -0.002(3) -0.036(2)
Cu1 Cu -0.13617(4) -0.10371(3) 0.22328(2)
Cl1 Cl -0.37484(9) -0.32178(6) 0.29571(5)
O1 O -0.2598(3) -0.08517(16) 0.11206(12)
N1 N -0.0946(3) -0.10333(17) 0.48592(14)
N2 N -0.0287(3) -0.12203(17) 0.34450(14)
O2 O 0.0756(3) -0.15296(19) 0.18726(13)
N3 N -0.3303(3) -0.04574(16) 0.28036(13)
C1 C -0.1322(3) -0.09442(18) 0.40238(16)
C2 C -0.1891(4) -0.09737(19) 0.04437(17)
C3 C -0.0172(4) -0.1332(2) 0.03980(18)
N4 N -0.4135(3) -0.0147(2) 0.41706(15)
C4 C 0.1027(4) -0.1611(2) 0.11011(18)
C5 C -0.3053(3) -0.04895(19) 0.36562(16)
C6 C 0.1313(4) -0.1607(2) 0.3727(2)
C7 C -0.3047(5) -0.0710(3) -0.0369(2)
C8 C 0.1840(4) -0.1702(2) 0.4589(2)
C9 C -0.5651(4) 0.0270(3) 0.3790(2)
C10 C 0.0665(4) -0.1417(2) 0.51342(19)
C11 C -0.4808(4) -0.0026(3) 0.24345(18)
C12 C 0.2805(5) -0.2035(3) 0.0968(3)
C13 C -0.6022(4) 0.0357(3) 0.2918(2)
O3 O -0.2983(4) -0.2805(2) 0.22648(17)
O4 O -0.2345(4) -0.3438(2) 0.36215(18)
O5 O -0.4670(4) -0.4087(2) 0.2680(3)
O6 O -0.4961(4) -0.2544(2) 0.3250(2)
Cu1A Cu -0.36383(4) -0.60371(3) 0.27672(2)
O5A O -0.0330(4) 0.0913(2) 0.2320(3)
H13? H -0.0317 -0.1896 0.0024
H14? H 0.0432 -0.0837 0.0103
loop_
_geom_bond_atom_site_label_1
_geom_bond_atom_site_label_2
_geom_bond_site_symmetry_1
_geom_bond_site_symmetry_2
H1 C10 1_555 1_555
H2 C11 1_555 1_555
H3 C6 1_555 1_555
H4 C8 1_555 1_555
H5 C9 1_555 1_555
H6 C12 1_555 1_555
H7 C13 1_555 1_555
H8 C7 1_555 1_555
H9 C7 1_555 1_555
H10 C12 1_555 1_555
H11 C12 1_555 1_555
H12 C7 1_555 1_555
Cu1 O1 1_555 1_555
Cl1 O3 1_555 1_555
O1 C2 1_555 1_555
N1 C1 1_555 1_555
N2 Cu1 1_555 1_555
O2 Cu1 1_555 1_555
N3 Cu1 1_555 1_555
C1 N2 1_555 1_555
C2 C3 1_555 1_555
C3 C4 1_555 1_555
N4 C5 1_555 1_555
C4 O2 1_555 1_555
C5 N3 1_555 1_555
C6 N2 1_555 1_555
C7 C2 1_555 1_555
C8 C6 1_555 1_555
C9 N4 1_555 1_555
C10 N1 1_555 1_555
C11 N3 1_555 1_555
C12 C4 1_555 1_555
C13 C9 1_555 1_555
O3 Cu1 1_555 1_555
O4 Cl1 1_555 1_555
O5 Cl1 1_555 1_555
O6 Cl1 1_555 1_555
Cu1A O5 1_555 1_555
O5A Cu1 1_555 1_555
C1 C5 1_555 1_555
C8 C10 1_555 1_555
C11 C13 1_555 1_555

#END
