
#######################################################################
#
#                 Cambridge Crystallographic Data Centre
#                                CCDC 
#
#######################################################################
#
# If this CIF has been generated from an entry in the Cambridge 
# Structural Database, then it will include bibliographic, chemical, 
# crystal, experimental, refinement or atomic coordinate data resulting 
# from the CCDC's data processing and validation procedures.
#
#######################################################################

data_ACIPEJ
_symmetry_cell_setting           triclinic
_symmetry_space_group_name_H-M   'P -1'
_symmetry_Int_Tables_number      2
_space_group_name_Hall           '-P 1'
loop_
_symmetry_equiv_pos_site_id
_symmetry_equiv_pos_as_xyz
1 x,y,z
2 -x,-y,-z
_cell_length_a                   8.5606(2)
_cell_length_b                   8.9656(2)
_cell_length_c                   10.5456(3)
_cell_angle_alpha                112.878(3)
_cell_angle_beta                 101.431(3)
_cell_angle_gamma                96.338(2)
_cell_volume                     715.004
loop_
_atom_site_label
_atom_site_type_symbol
_atom_site_fract_x
_atom_site_fract_y
_atom_site_fract_z
Pd1 Pd 0.0000 0.0000 0.0000
Cu1 Cu 0.0000 0.5000 0.5000
N1 N 0.0551(2) 0.2623(2) 0.31489(17)
N2 N 0.2842(2) -0.1703(2) 0.0766(2)
N3 N 0.23422(19) 0.61914(19) 0.55259(16)
N4 N 0.46687(19) 0.6953(2) 0.51272(19)
N5 N 0.05036(18) 0.39657(18) 0.63964(16)
N6 N 0.1207(2) 0.35875(19) 0.83566(16)
C1 C 0.0398(2) 0.1652(2) 0.20097(19)
C2 C 0.1828(2) -0.1043(2) 0.05170(19)
C3 C 0.3193(2) 0.5935(2) 0.4570(2)
H1 H 0.2818 0.5148 0.3629
C4 C 0.3323(2) 0.7453(2) 0.6765(2)
H2 H 0.3047 0.7907 0.7626
C5 C 0.4769(2) 0.7931(3) 0.6523(2)
H3 H 0.5647 0.8757 0.7179
C6 C 0.5892(3) 0.7009(3) 0.4329(3)
H4 H 0.5691 0.5954 0.3508
H5 H 0.6968 0.7175 0.4934
C7 C 0.5857(3) 0.8362(4) 0.3831(3)
H6 H 0.6665 0.8347 0.3314
H7 H 0.6084 0.9411 0.4640
H8 H 0.4799 0.8193 0.3219
C8 C 0.1267(2) 0.4680(2) 0.77708(19)
H9 H 0.1778 0.5791 0.8268
C9 C -0.0070(2) 0.2332(2) 0.6090(2)
H10 H -0.0659 0.1526 0.5198
C10 C 0.0358(2) 0.2083(2) 0.7293(2)
H11 H 0.0124 0.1094 0.7378
C11 C 0.1938(3) 0.3954(3) 0.9856(2)
H12 H 0.1110 0.3612 1.0253
H13 H 0.2336 0.5138 1.0393
C12 C 0.3331(3) 0.3080(3) 1.0017(2)
H14 H 0.3762 0.3333 1.1006
H15 H 0.4172 0.3445 0.9658
H16 H 0.2941 0.1906 0.9488
Cu1_2 Cu 0.0000 -0.5000 -0.5000
N1A N -0.0551(2) -0.2623(2) -0.31489(17)
N1A_2 N -0.0551(2) 0.7377(2) 0.68511(17)
N2A N -0.2842(2) 0.1703(2) -0.0766(2)
N3A N -0.23422(19) 0.38086(19) 0.44741(16)
N4A N -0.46687(19) 0.3047(2) 0.48728(19)
N5A N -0.05036(18) 0.60343(18) 0.36036(16)
N6A N -0.1207(2) 0.64125(19) 0.16434(16)
C1A C -0.0398(2) -0.1652(2) -0.20097(19)
C2A C -0.1828(2) 0.1043(2) -0.05170(19)
C3A C -0.3193(2) 0.4065(2) 0.5430(2)
H1A H -0.2818 0.4852 0.6371
C4A C -0.3323(2) 0.2547(2) 0.3235(2)
H2A H -0.3047 0.2093 0.2374
C5A C -0.4769(2) 0.2069(3) 0.3477(2)
H3A H -0.5647 0.1243 0.2821
C6A C -0.5892(3) 0.2991(3) 0.5671(3)
H4A H -0.5691 0.4046 0.6492
H5A H -0.6968 0.2825 0.5066
C7A C -0.5857(3) 0.1638(4) 0.6169(3)
H6A H -0.6665 0.1653 0.6686
H7A H -0.6084 0.0589 0.5360
H8A H -0.4799 0.1807 0.6781
C8A C -0.1267(2) 0.5320(2) 0.22292(19)
H9A H -0.1778 0.4209 0.1732
C9A C 0.0070(2) 0.7668(2) 0.3910(2)
H10A H 0.0659 0.8474 0.4802
C10A C -0.0358(2) 0.7917(2) 0.2707(2)
H11A H -0.0124 0.8906 0.2622
C11A C -0.1938(3) 0.6046(3) 0.0144(2)
H12A H -0.1110 0.6388 -0.0253
H13A H -0.2336 0.4862 -0.0393
C12A C -0.3331(3) 0.6920(3) -0.0017(2)
H14A H -0.3762 0.6667 -0.1006
H15A H -0.4172 0.6555 0.0342
H16A H -0.2941 0.8094 0.0512
loop_
_geom_bond_atom_site_label_1
_geom_bond_atom_site_label_2
_geom_bond_site_symmetry_1
_geom_bond_site_symmetry_2
Pd1 C1 1_555 1_555
Cu1 N1 1_555 1_555
N1 C1 1_555 1_555
N2 C2 1_555 1_555
N3 Cu1 1_555 1_555
N4 C3 1_555 1_555
N5 Cu1 1_555 1_555
N6 C8 1_555 1_555
C2 Pd1 1_555 1_555
C3 N3 1_555 1_555
H1 C3 1_555 1_555
C4 N3 1_555 1_555
H2 C4 1_555 1_555
C5 N4 1_555 1_555
H3 C5 1_555 1_555
C6 N4 1_555 1_555
H4 C6 1_555 1_555
H5 C6 1_555 1_555
C7 C6 1_555 1_555
H6 C7 1_555 1_555
H7 C7 1_555 1_555
H8 C7 1_555 1_555
C8 N5 1_555 1_555
H9 C8 1_555 1_555
C9 N5 1_555 1_555
H10 C9 1_555 1_555
C10 N6 1_555 1_555
H11 C10 1_555 1_555
C11 N6 1_555 1_555
H12 C11 1_555 1_555
H13 C11 1_555 1_555
C12 C11 1_555 1_555
H14 C12 1_555 1_555
H15 C12 1_555 1_555
H16 C12 1_555 1_555
Cu1_2 N1A 1_555 1_555
N1A C1A 1_555 1_555
N1A_2 Cu1 1_555 1_555
N2A C2A 1_555 1_555
N3A Cu1 1_555 1_555
N4A C3A 1_555 1_555
N5A Cu1 1_555 1_555
N6A C8A 1_555 1_555
C1A Pd1 1_555 1_555
C2A Pd1 1_555 1_555
C3A N3A 1_555 1_555
H1A C3A 1_555 1_555
C4A N3A 1_555 1_555
H2A C4A 1_555 1_555
C5A N4A 1_555 1_555
H3A C5A 1_555 1_555
C6A N4A 1_555 1_555
H4A C6A 1_555 1_555
H5A C6A 1_555 1_555
C7A C6A 1_555 1_555
H6A C7A 1_555 1_555
H7A C7A 1_555 1_555
H8A C7A 1_555 1_555
C8A N5A 1_555 1_555
H9A C8A 1_555 1_555
C9A N5A 1_555 1_555
H10A C9A 1_555 1_555
C10A N6A 1_555 1_555
H11A C10A 1_555 1_555
C11A N6A 1_555 1_555
H12A C11A 1_555 1_555
H13A C11A 1_555 1_555
C12A C11A 1_555 1_555
H14A C12A 1_555 1_555
H15A C12A 1_555 1_555
H16A C12A 1_555 1_555
C4 C5 1_555 1_555
C9 C10 1_555 1_555
C4A C5A 1_555 1_555
C9A C10A 1_555 1_555

#END
