
#######################################################################
#
#                 Cambridge Crystallographic Data Centre
#                                CCDC 
#
#######################################################################
#
# If this CIF has been generated from an entry in the Cambridge 
# Structural Database, then it will include bibliographic, chemical, 
# crystal, experimental, refinement or atomic coordinate data resulting 
# from the CCDC's data processing and validation procedures.
#
#######################################################################

data_ACIQIN
_symmetry_cell_setting           monoclinic
_symmetry_space_group_name_H-M   'P 21/c'
_symmetry_Int_Tables_number      14
_space_group_name_Hall           '-P 2ybc'
loop_
_symmetry_equiv_pos_site_id
_symmetry_equiv_pos_as_xyz
1 x,y,z
2 -x,1/2+y,1/2-z
3 -x,-y,-z
4 x,1/2-y,1/2+z
_cell_length_a                   12.370(3)
_cell_length_b                   21.786(4)
_cell_length_c                   12.571(3)
_cell_angle_alpha                90
_cell_angle_beta                 105.99(2)
_cell_angle_gamma                90
_cell_volume                     3256.72
loop_
_atom_site_label
_atom_site_type_symbol
_atom_site_fract_x
_atom_site_fract_y
_atom_site_fract_z
Mn1 Mn 0.23536(7) 0.14177(4) 0.05136(7)
Mn2 Mn -0.23920(8) 0.13268(4) -0.46937(8)
O1 O 0.1301(4) 0.1442(2) 0.1633(3)
H1 H 0.065(3) 0.160(3) 0.136(4)
H2 H 0.151(4) 0.159(3) 0.229(2)
O2 O -0.1782(5) 0.2146(2) -0.5240(5)
H3 H -0.225(4) 0.231(2) -0.580(4)
H4 H -0.164(6) 0.2436(14) -0.476(3)
O3 O -0.3505(4) 0.1539(2) -0.3672(4)
H5 H -0.317(3) 0.178(2) -0.314(3)
H6 H -0.408(3) 0.174(3) -0.403(2)
O4 O 0.2587(4) 0.2376(2) 0.0350(4)
H7 H 0.328(2) 0.2485(13) 0.051(5)
H8 H 0.231(5) 0.2510(14) -0.032(3)
N1 N 0.3453(4) 0.1086(2) -0.0561(4)
N2 N 0.2194(4) 0.0382(2) 0.0418(4)
C1 C 0.4104(7) 0.1433(4) -0.1003(7)
H9 H 0.4115 0.1855 -0.0889
C2 C 0.4758(8) 0.1190(5) -0.1620(8)
H10 H 0.5232 0.1444 -0.1882
C3 C 0.4719(8) 0.0588(5) -0.1846(8)
H11 H 0.5144 0.0425 -0.2285
C4 C 0.4034(7) 0.0206(4) -0.1418(7)
C5 C 0.3419(5) 0.0486(3) -0.0755(5)
C6 C 0.2726(5) 0.0096(3) -0.0250(5)
C7 C 0.2662(7) -0.0526(3) -0.0465(7)
C8 C 0.1989(8) -0.0869(3) 0.0040(9)
H12 H 0.1914 -0.1289 -0.0083
C9 C 0.1440(7) -0.0591(4) 0.0713(8)
H13 H 0.0983 -0.0818 0.1043
C10 C 0.1579(7) 0.0046(3) 0.0901(7)
H14 H 0.1225 0.0235 0.1379
C11 C 0.3904(9) -0.0444(5) -0.1612(9)
H15 H 0.4292 -0.0628 -0.2065
N3 N -0.1404(4) 0.0781(2) -0.5662(4)
N4 N -0.2802(4) 0.0324(2) -0.4548(4)
C12 C -0.0689(7) 0.0997(4) -0.6176(7)
H16 H -0.0507 0.1412 -0.6109
C13 C -0.0189(8) 0.0622(5) -0.6825(8)
H17 H 0.0324 0.0789 -0.7164
C14 C -0.0456(8) 0.0017(5) -0.6956(7)
H18 H -0.0142 -0.0230 -0.7395
C15 C -0.1204(6) -0.0228(4) -0.6424(6)
C16 C -0.1650(5) 0.0171(3) -0.5778(5)
C17 C -0.2404(5) -0.0071(3) -0.5190(5)
C18 C -0.2677(6) -0.0697(3) -0.5287(6)
C19 C -0.3401(7) -0.0908(3) -0.4695(7)
H19 H -0.3618 -0.1319 -0.4746
C20 C -0.3790(7) -0.0523(3) -0.4050(7)
H20 H -0.4259 -0.0663 -0.3638
C21 C -0.3473(6) 0.0089(3) -0.4015(6)
H21 H -0.3761 0.0352 -0.3578
C22 C 0.3261(9) -0.0793(4) -0.1178(9)
H22 H 0.3197 -0.1210 -0.1336
C23 C -0.1524(8) -0.0858(4) -0.6513(8)
H23 H -0.1234 -0.1120 -0.6950
C24 C -0.2228(7) -0.1075(3) -0.5983(7)
H24 H -0.2434 -0.1486 -0.6067
O5 O -0.1100(3) 0.14028(16) -0.3129(3)
O6 O 0.0843(3) 0.14698(16) -0.0873(3)
O7 O 0.1415(4) 0.2883(2) -0.1461(4)
O8 O -0.0548(4) 0.28271(19) -0.3692(4)
O9 O 0.3818(3) 0.14331(16) 0.1940(3)
O10 O 0.6080(3) 0.13828(17) 0.3914(3)
O11 O 0.6939(4) 0.2647(2) 0.3005(4)
O12 O 0.4697(4) 0.2683(2) 0.1015(4)
C25 C -0.0437(5) 0.1830(2) -0.2656(5)
C26 C 0.0451(4) 0.1853(2) -0.1630(5)
C27 C 0.0715(5) 0.2471(3) -0.1891(5)
C28 C -0.0184(5) 0.2448(3) -0.2924(5)
C29 C 0.4677(5) 0.1773(3) 0.2228(5)
C30 C 0.5702(5) 0.1755(2) 0.3138(5)
C31 C 0.6078(5) 0.2302(3) 0.2722(5)
C32 C 0.5069(5) 0.2325(3) 0.1824(6)
Mn2_2 Mn 0.76080(8) 0.13268(4) 0.53063(8)
O10_2 O -0.3920(3) 0.13828(17) -0.6086(3)
loop_
_geom_bond_atom_site_label_1
_geom_bond_atom_site_label_2
_geom_bond_site_symmetry_1
_geom_bond_site_symmetry_2
Mn1 O1 1_555 1_555
Mn2 O2 1_555 1_555
O1 H1 1_555 1_555
H2 O1 1_555 1_555
O2 H3 1_555 1_555
H4 O2 1_555 1_555
O3 Mn2 1_555 1_555
H5 O3 1_555 1_555
H6 O3 1_555 1_555
O4 Mn1 1_555 1_555
H7 O4 1_555 1_555
H8 O4 1_555 1_555
N1 Mn1 1_555 1_555
N2 Mn1 1_555 1_555
C1 N1 1_555 1_555
H9 C1 1_555 1_555
C2 C1 1_555 1_555
H10 C2 1_555 1_555
C3 C2 1_555 1_555
H11 C3 1_555 1_555
C4 C3 1_555 1_555
C5 N1 1_555 1_555
C6 N2 1_555 1_555
C7 C6 1_555 1_555
C8 C7 1_555 1_555
H12 C8 1_555 1_555
C9 C8 1_555 1_555
H13 C9 1_555 1_555
C10 N2 1_555 1_555
H14 C10 1_555 1_555
C11 C4 1_555 1_555
H15 C11 1_555 1_555
N3 Mn2 1_555 1_555
N4 Mn2 1_555 1_555
C12 N3 1_555 1_555
H16 C12 1_555 1_555
C13 C12 1_555 1_555
H17 C13 1_555 1_555
C14 C13 1_555 1_555
H18 C14 1_555 1_555
C15 C14 1_555 1_555
C16 N3 1_555 1_555
C17 N4 1_555 1_555
C18 C17 1_555 1_555
C19 C18 1_555 1_555
H19 C19 1_555 1_555
C20 C19 1_555 1_555
H20 C20 1_555 1_555
C21 N4 1_555 1_555
H21 C21 1_555 1_555
C22 C7 1_555 1_555
H22 C22 1_555 1_555
C23 C15 1_555 1_555
H23 C23 1_555 1_555
C24 C18 1_555 1_555
H24 C24 1_555 1_555
O5 Mn2 1_555 1_555
O6 Mn1 1_555 1_555
O7 C27 1_555 1_555
O8 C28 1_555 1_555
O9 Mn1 1_555 1_555
O10 C30 1_555 1_555
O11 C31 1_555 1_555
O12 C32 1_555 1_555
C25 O5 1_555 1_555
C26 O6 1_555 1_555
C27 C26 1_555 1_555
C28 C25 1_555 1_555
C29 O9 1_555 1_555
C30 C29 1_555 1_555
C31 C30 1_555 1_555
C32 C29 1_555 1_555
Mn2_2 O10 1_555 1_555
O10_2 Mn2 1_555 1_555
C4 C5 1_555 1_555
C5 C6 1_555 1_555
C9 C10 1_555 1_555
C11 C22 1_555 1_555
C15 C16 1_555 1_555
C16 C17 1_555 1_555
C20 C21 1_555 1_555
C23 C24 1_555 1_555
C25 C26 1_555 1_555
C27 C28 1_555 1_555
C31 C32 1_555 1_555

#END
