
#######################################################################
#
#                 Cambridge Crystallographic Data Centre
#                                CCDC 
#
#######################################################################
#
# If this CIF has been generated from an entry in the Cambridge 
# Structural Database, then it will include bibliographic, chemical, 
# crystal, experimental, refinement or atomic coordinate data resulting 
# from the CCDC's data processing and validation procedures.
#
#######################################################################

data_ACIROV
_symmetry_cell_setting           monoclinic
_symmetry_space_group_name_H-M   'C 2/c'
_symmetry_Int_Tables_number      15
_space_group_name_Hall           '-C 2yn'
loop_
_symmetry_equiv_pos_site_id
_symmetry_equiv_pos_as_xyz
1 x,y,z
2 -x,y,1/2-z
3 1/2+x,1/2+y,z
4 1/2-x,1/2+y,1/2-z
5 -x,-y,-z
6 x,-y,1/2+z
7 1/2-x,1/2-y,-z
8 1/2+x,1/2-y,1/2+z
_cell_length_a                   11.340(2)
_cell_length_b                   14.189(3)
_cell_length_c                   12.358(3)
_cell_angle_alpha                90
_cell_angle_beta                 102.17(3)
_cell_angle_gamma                90
_cell_volume                     1943.76
loop_
_atom_site_label
_atom_site_type_symbol
_atom_site_fract_x
_atom_site_fract_y
_atom_site_fract_z
Ag1 Ag 0.5000 0.23827(8) 0.2500
C1 C 0.3365(12) 0.3038(10) -0.2105(10)
H1 H 0.3828 0.2488 -0.2193
H2 H 0.3651 0.3564 -0.2465
H3 H 0.2530 0.2927 -0.2431
C2 C 0.3496(8) 0.3250(7) -0.0897(8)
C3 C 0.3016(10) 0.3944(7) -0.0383(8)
H4 H 0.2515 0.4427 -0.0719
C4 C 0.3418(10) 0.3796(7) 0.0746(9)
C5 C 0.3170(13) 0.4346(9) 0.1694(11)
H5 H 0.3594 0.4069 0.2375
H6 H 0.2319 0.4341 0.1675
H7 H 0.3437 0.4984 0.1647
C6 C 0.4996(9) 0.1945(6) -0.0228(8)
H8 H 0.4959 0.1465 0.0323
H9 H 0.4723 0.1661 -0.0952
C7 C 0.6275(9) 0.2253(6) -0.0114(7)
C8 C 0.7140(9) 0.1586(6) -0.0191(9)
H10 H 0.6905 0.0961 -0.0310
C9 C 0.6665(9) 0.3188(6) 0.0100(9)
H11 H 0.6113 0.3655 0.0180
N1 N 0.5000 0.0242(7) 0.2500
N2 N 0.4140(7) 0.3042(6) 0.0909(6)
N3 N 0.4171(7) 0.2726(5) -0.0101(7)
O1 O 0.4270(10) 0.0714(8) 0.2884(11)
O2 O 0.5000 -0.0635(8) 0.2500
Ag1F Ag 1.0000 0.26173(8) -0.2500
C1F C 1.1635(12) 0.1962(10) 0.2105(10)
H1F H 1.1172 0.2512 0.2193
H2F H 1.1349 0.1436 0.2465
H3F H 1.2470 0.2073 0.2431
C2F C 1.1504(8) 0.1750(7) 0.0897(8)
C3F C 1.1984(10) 0.1056(7) 0.0383(8)
H4F H 1.2485 0.0573 0.0719
C4F C 1.1582(10) 0.1204(7) -0.0746(9)
C5F C 1.1830(13) 0.0654(9) -0.1694(11)
H5F H 1.1406 0.0931 -0.2375
H6F H 1.2681 0.0659 -0.1675
H7F H 1.1563 0.0016 -0.1647
C6F C 1.0004(9) 0.3055(6) 0.0228(8)
H8F H 1.0041 0.3535 -0.0323
H9F H 1.0277 0.3339 0.0952
C7F C 0.8725(9) 0.2747(6) 0.0114(7)
C8F C 0.7860(9) 0.3414(6) 0.0191(9)
H10F H 0.8095 0.4039 0.0310
C9F C 0.8335(9) 0.1812(6) -0.0100(9)
H11F H 0.8887 0.1345 -0.0180
N2F N 1.0860(7) 0.1958(6) -0.0909(6)
N2A N 0.5860(7) 0.3042(6) 0.4091(6)
N3F N 1.0829(7) 0.2274(5) 0.0101(7)
O1A O 0.5730(10) 0.0714(8) 0.2116(11)
loop_
_geom_bond_atom_site_label_1
_geom_bond_atom_site_label_2
_geom_bond_site_symmetry_1
_geom_bond_site_symmetry_2
Ag1 N2 1_555 1_555
C1 H1 1_555 1_555
H2 C1 1_555 1_555
H3 C1 1_555 1_555
C2 C1 1_555 1_555
C3 C2 1_555 1_555
H4 C3 1_555 1_555
C4 C3 1_555 1_555
C5 C4 1_555 1_555
H5 C5 1_555 1_555
H6 C5 1_555 1_555
H7 C5 1_555 1_555
C6 H8 1_555 1_555
H9 C6 1_555 1_555
C7 C6 1_555 1_555
C8 C7 1_555 1_555
H10 C8 1_555 1_555
C9 C7 1_555 1_555
H11 C9 1_555 1_555
N1 O1 1_555 1_555
N2 C4 1_555 1_555
N3 C2 1_555 1_555
O1 Ag1 1_555 1_555
O2 N1 1_555 1_555
Ag1F N2F 1_555 1_555
C1F H1F 1_555 1_555
H2F C1F 1_555 1_555
H3F C1F 1_555 1_555
C2F C1F 1_555 1_555
C3F C2F 1_555 1_555
H4F C3F 1_555 1_555
C4F C3F 1_555 1_555
C5F C4F 1_555 1_555
H5F C5F 1_555 1_555
H6F C5F 1_555 1_555
H7F C5F 1_555 1_555
C6F H8F 1_555 1_555
H9F C6F 1_555 1_555
C7F C6F 1_555 1_555
C8F C9 1_555 1_555
H10F C8F 1_555 1_555
C9F C8 1_555 1_555
H11F C9F 1_555 1_555
N2F C4F 1_555 1_555
N2A Ag1 1_555 1_555
N3F C2F 1_555 1_555
O1A Ag1 1_555 1_555
C6 N3 1_555 1_555
N1 O1A 1_555 1_555
N2 N3 1_555 1_555
C6F N3F 1_555 1_555
C7F C8F 1_555 1_555
C7F C9F 1_555 1_555
N2F N3F 1_555 1_555

#END
