
#######################################################################
#
#                 Cambridge Crystallographic Data Centre
#                                CCDC 
#
#######################################################################
#
# If this CIF has been generated from an entry in the Cambridge 
# Structural Database, then it will include bibliographic, chemical, 
# crystal, experimental, refinement or atomic coordinate data resulting 
# from the CCDC's data processing and validation procedures.
#
#######################################################################

data_ACIRIP
_symmetry_cell_setting           triclinic
_symmetry_space_group_name_H-M   'P -1'
_symmetry_Int_Tables_number      2
_space_group_name_Hall           '-P 1'
loop_
_symmetry_equiv_pos_site_id
_symmetry_equiv_pos_as_xyz
1 x,y,z
2 -x,-y,-z
_cell_length_a                   8.9615(18)
_cell_length_b                   9.0061(18)
_cell_length_c                   9.1711(18)
_cell_angle_alpha                85.29(3)
_cell_angle_beta                 76.67(3)
_cell_angle_gamma                76.05(3)
_cell_volume                     698.723
loop_
_atom_site_label
_atom_site_type_symbol
_atom_site_fract_x
_atom_site_fract_y
_atom_site_fract_z
N1 N 1.1845(4) -0.0976(5) -0.0699(4)
Cd1 Cd 1.10703(3) -0.18893(2) -0.26005(3)
S1 S 1.00061(12) -0.30664(10) -0.47173(11)
S2 S 1.18867(11) 0.12756(11) 0.12106(12)
N2 N 1.3769(3) -0.5114(3) -0.2843(3)
N3 N 1.3482(3) -0.3580(3) -0.3108(3)
N4 N 0.8725(5) -0.0279(4) -0.5996(4)
C1 C 1.5064(5) -0.1603(5) -0.3542(6)
H1 H 1.4052 -0.1050 -0.3684
H2 H 1.5553 -0.1183 -0.3035
H3 H 1.5733 -0.1643 -0.4689
C2 C 1.4873(4) -0.3209(4) -0.3247(4)
C3 C 1.6030(4) -0.4504(5) -0.3082(4)
H4 H 1.7091 -0.4553 -0.3148
C4 C 1.5287(4) -0.5713(4) -0.2822(4)
C5 C 1.5937(6) -0.7377(5) -0.2551(7)
H5 H 1.6871 -0.7434 -0.2467
H6 H 1.5193 -0.7660 -0.1665
H7 H 1.5766 -0.7828 -0.3405
C6 C 1.2487(4) -0.5894(4) -0.2646(4)
H8 H 1.2054 -0.5711 -0.3537
H9 H 1.2903 -0.6987 -0.2548
C7 C 1.1193(4) -0.5383(3) -0.1277(3)
C8 C 1.1476(4) -0.4751(4) -0.0057(4)
H10 H 1.2468 -0.4632 -0.0074
C9 C 0.9703(4) -0.5624(4) -0.1206(3)
H11 H 0.9533 -0.6116 -0.1965
C10 C 0.9269(4) -0.1403(4) -0.5465(4)
C11 C 1.1843(4) -0.0045(4) 0.0080(4)
N1A N 0.8155(4) 0.0976(5) 0.0699(4)
Cd1A Cd 0.89297(3) 0.18893(2) 0.26005(3)
Cd1A_2 Cd 0.89297(3) 0.18893(2) -0.73995(3)
Cd1A_3 Cd 0.89297(3) -0.81107(2) 0.26005(3)
S1A S 0.99939(12) 0.30664(10) -0.52827(11)
S1A_2 S 0.99939(12) 0.30664(10) 0.47173(11)
S2A S 0.81133(11) -0.12756(11) -0.12106(12)
N2A N 0.6231(3) -0.4886(3) 0.2843(3)
N3A N 0.6518(3) -0.6420(3) 0.3108(3)
N3A_2 N 0.6518(3) 0.3580(3) 0.3108(3)
N4A N 1.1275(5) 0.0279(4) -0.4004(4)
N4_2 N 0.8725(5) -0.0279(4) 0.4004(4)
C1A C 0.4936(5) -0.8397(5) 0.3542(6)
H1A H 0.5948 -0.8950 0.3684
H2A H 0.4447 -0.8817 0.3035
H3A H 0.4267 -0.8357 0.4689
C2A C 0.5127(4) -0.6791(4) 0.3247(4)
C3A C 0.3970(4) -0.5496(5) 0.3082(4)
H4A H 0.2909 -0.5447 0.3148
C4A C 0.4713(4) -0.4287(4) 0.2822(4)
C5A C 0.4063(6) -0.2623(5) 0.2551(7)
H5A H 0.3129 -0.2566 0.2467
H6A H 0.4807 -0.2340 0.1665
H7A H 0.4234 -0.2172 0.3405
C6A C 0.7513(4) -0.4106(4) 0.2646(4)
H8A H 0.7946 -0.4289 0.3537
H9A H 0.7097 -0.3013 0.2548
C7A C 0.8807(4) -0.4617(3) 0.1277(3)
C8A C 0.8524(4) -0.5249(4) 0.0057(4)
H10A H 0.7532 -0.5368 0.0074
C9A C 1.0297(4) -0.4376(4) 0.1206(3)
H11A H 1.0467 -0.3884 0.1965
C10A C 1.0731(4) 0.1403(4) -0.4535(4)
C11A C 0.8157(4) 0.0045(4) -0.0080(4)
loop_
_geom_bond_atom_site_label_1
_geom_bond_atom_site_label_2
_geom_bond_site_symmetry_1
_geom_bond_site_symmetry_2
N1 Cd1 1_555 1_555
Cd1 S1 1_555 1_555
S1 C10 1_555 1_555
S2 C11 1_555 1_555
N2 N3 1_555 1_555
N3 Cd1 1_555 1_555
N4 C10 1_555 1_555
C1 H1 1_555 1_555
H2 C1 1_555 1_555
H3 C1 1_555 1_555
C2 N3 1_555 1_555
C3 C2 1_555 1_555
H4 C3 1_555 1_555
C4 N2 1_555 1_555
C5 C4 1_555 1_555
H5 C5 1_555 1_555
H6 C5 1_555 1_555
H7 C5 1_555 1_555
C6 N2 1_555 1_555
H8 C6 1_555 1_555
H9 C6 1_555 1_555
C7 C6 1_555 1_555
C8 C7 1_555 1_555
H10 C8 1_555 1_555
C9 C7 1_555 1_555
H11 C9 1_555 1_555
C11 N1 1_555 1_555
N1A Cd1A 1_555 1_555
Cd1A S2 1_555 1_555
Cd1A_2 N4 1_555 1_555
Cd1A_3 N3A 1_555 1_555
S1A Cd1A_2 1_555 1_555
S1A_2 Cd1A 1_555 1_555
S2A Cd1 1_555 1_555
N2A N3A 1_555 1_555
N3A C2A 1_555 1_555
N3A_2 Cd1A 1_555 1_555
N4A Cd1 1_555 1_555
N4_2 Cd1A 1_555 1_555
C1A H1A 1_555 1_555
H2A C1A 1_555 1_555
H3A C1A 1_555 1_555
C2A C1A 1_555 1_555
C3A C2A 1_555 1_555
H4A C3A 1_555 1_555
C4A N2A 1_555 1_555
C5A C4A 1_555 1_555
H5A C5A 1_555 1_555
H6A C5A 1_555 1_555
H7A C5A 1_555 1_555
C6A N2A 1_555 1_555
H8A C6A 1_555 1_555
H9A C6A 1_555 1_555
C7A C6A 1_555 1_555
C8A C9 1_555 1_555
H10A C8A 1_555 1_555
C9A C8 1_555 1_555
H11A C9A 1_555 1_555
C10A S1A 1_555 1_555
C11A N1A 1_555 1_555
C1 C2 1_555 1_555
C3 C4 1_555 1_555
S2A C11A 1_555 1_555
N4A C10A 1_555 1_555
C3A C4A 1_555 1_555
C7A C8A 1_555 1_555
C7A C9A 1_555 1_555

#END
