
#######################################################################
#
#                 Cambridge Crystallographic Data Centre
#                                CCDC 
#
#######################################################################
#
# If this CIF has been generated from an entry in the Cambridge 
# Structural Database, then it will include bibliographic, chemical, 
# crystal, experimental, refinement or atomic coordinate data resulting 
# from the CCDC's data processing and validation procedures.
#
#######################################################################

data_ACISIQ
_symmetry_cell_setting           monoclinic
_symmetry_space_group_name_H-M   'C 2/c'
_symmetry_Int_Tables_number      15
_space_group_name_Hall           '-C 2yn'
loop_
_symmetry_equiv_pos_site_id
_symmetry_equiv_pos_as_xyz
1 x,y,z
2 -x,y,1/2-z
3 1/2+x,1/2+y,z
4 1/2-x,1/2+y,1/2-z
5 -x,-y,-z
6 x,-y,1/2+z
7 1/2-x,1/2-y,-z
8 1/2+x,1/2-y,1/2+z
_cell_length_a                   14.723(3)
_cell_length_b                   8.4311(17)
_cell_length_c                   17.514(4)
_cell_angle_alpha                90
_cell_angle_beta                 114.14(3)
_cell_angle_gamma                90
_cell_volume                     1983.91
loop_
_atom_site_label
_atom_site_type_symbol
_atom_site_fract_x
_atom_site_fract_y
_atom_site_fract_z
C1 C 0.4469(2) 0.2050(4) 0.4554(2)
H1 H 0.4495 0.1819 0.5100
H2 H 0.5131 0.2214 0.4592
H3 H 0.4168 0.1176 0.4186
C2 C 0.38632(18) 0.3516(3) 0.42190(17)
C3 C 0.4028(2) 0.4759(4) 0.37711(19)
H4 H 0.4551 0.4851 0.3606
C4 C 0.32706(19) 0.5823(3) 0.36195(16)
C5 C 0.3053(3) 0.7370(4) 0.3162(2)
H5 H 0.3619 0.7691 0.3060
H6 H 0.2914 0.8161 0.3495
H7 H 0.2486 0.7252 0.2639
C6 C 0.18149(16) 0.5945(3) 0.40298(14)
H8 H 0.1967 0.7044 0.4198
H9 H 0.1683 0.5409 0.4464
C7 C 0.08811(15) 0.5892(3) 0.32245(14)
C8 C 0.04397(17) 0.4473(3) 0.28623(15)
H10 H 0.0731 0.3517 0.3103
C9 C 0.04390(18) 0.7300(3) 0.28581(16)
H11 H 0.0733 0.8258 0.3094
N1 N 0.26888(13) 0.5219(2) 0.39749(11)
N2 N 0.30443(14) 0.3793(2) 0.43431(12)
Cu1 Cu 0.2500 0.2500 0.5000
Cl1 Cl 0.18490(6) 0.07699(8) 0.39341(4)
C1A C -0.4469(2) 0.2050(4) 0.0446(2)
H1A H -0.4495 0.1819 -0.0100
H2A H -0.5131 0.2214 0.0408
H3A H -0.4168 0.1176 0.0814
C2A C -0.38632(18) 0.3516(3) 0.07810(17)
C3A C -0.4028(2) 0.4759(4) 0.12289(19)
H4A H -0.4551 0.4851 0.1394
C4A C -0.32706(19) 0.5823(3) 0.13805(16)
C5A C -0.3053(3) 0.7370(4) 0.1838(2)
H5A H -0.3619 0.7691 0.1940
H6A H -0.2914 0.8161 0.1505
H7A H -0.2486 0.7252 0.2361
C6A C -0.18149(16) 0.5945(3) 0.09702(14)
H8A H -0.1967 0.7044 0.0802
H9A H -0.1683 0.5409 0.0536
C7A C -0.08811(15) 0.5892(3) 0.17755(14)
C8A C -0.04397(17) 0.4473(3) 0.21377(15)
H10A H -0.0731 0.3517 0.1897
C9A C -0.04390(18) 0.7300(3) 0.21419(16)
H11A H -0.0733 0.8258 0.1906
N1A N -0.26888(13) 0.5219(2) 0.10251(11)
N2A N -0.30443(14) 0.3793(2) 0.06569(12)
N2F N 0.19557(14) 0.1207(2) 0.56569(12)
Cu1A Cu -0.2500 0.2500 0.0000
Cl1F Cl 0.31510(6) 0.42301(8) 0.60659(4)
loop_
_geom_bond_atom_site_label_1
_geom_bond_atom_site_label_2
_geom_bond_site_symmetry_1
_geom_bond_site_symmetry_2
C1 H1 1_555 1_555
H2 C1 1_555 1_555
H3 C1 1_555 1_555
C2 C1 1_555 1_555
C3 C2 1_555 1_555
H4 C3 1_555 1_555
C4 C3 1_555 1_555
C5 C4 1_555 1_555
H5 C5 1_555 1_555
H6 C5 1_555 1_555
H7 C5 1_555 1_555
C6 H8 1_555 1_555
H9 C6 1_555 1_555
C7 C6 1_555 1_555
C8 C7 1_555 1_555
H10 C8 1_555 1_555
C9 C7 1_555 1_555
H11 C9 1_555 1_555
N1 C4 1_555 1_555
N2 C2 1_555 1_555
Cu1 N2 1_555 1_555
Cl1 Cu1 1_555 1_555
C1A H1A 1_555 1_555
H2A C1A 1_555 1_555
H3A C1A 1_555 1_555
C2A C1A 1_555 1_555
C3A C2A 1_555 1_555
H4A C3A 1_555 1_555
C4A C3A 1_555 1_555
C5A C4A 1_555 1_555
H5A C5A 1_555 1_555
H6A C5A 1_555 1_555
H7A C5A 1_555 1_555
C6A H8A 1_555 1_555
H9A C6A 1_555 1_555
C7A C6A 1_555 1_555
C8A C8 1_555 1_555
H10A C8A 1_555 1_555
C9A C9 1_555 1_555
H11A C9A 1_555 1_555
N1A C4A 1_555 1_555
N2A C2A 1_555 1_555
N2F Cu1 1_555 1_555
Cu1A N2A 1_555 1_555
Cl1F Cu1 1_555 1_555
C6 N1 1_555 1_555
N1 N2 1_555 1_555
C6A N1A 1_555 1_555
C7A C8A 1_555 1_555
C7A C9A 1_555 1_555
N1A N2A 1_555 1_555

#END
