
#######################################################################
#
#                 Cambridge Crystallographic Data Centre
#                                CCDC 
#
#######################################################################
#
# If this CIF has been generated from an entry in the Cambridge 
# Structural Database, then it will include bibliographic, chemical, 
# crystal, experimental, refinement or atomic coordinate data resulting 
# from the CCDC's data processing and validation procedures.
#
#######################################################################

data_ACISOW
_symmetry_cell_setting           triclinic
_symmetry_space_group_name_H-M   'P -1'
_symmetry_Int_Tables_number      2
_space_group_name_Hall           '-P 1'
loop_
_symmetry_equiv_pos_site_id
_symmetry_equiv_pos_as_xyz
1 x,y,z
2 -x,-y,-z
_cell_length_a                   10.038(2)
_cell_length_b                   11.057(2)
_cell_length_c                   11.445(2)
_cell_angle_alpha                71.81(3)
_cell_angle_beta                 74.48(3)
_cell_angle_gamma                86.08(3)
_cell_volume                     1162.64
loop_
_atom_site_label
_atom_site_type_symbol
_atom_site_fract_x
_atom_site_fract_y
_atom_site_fract_z
Zn1 Zn 0.33181(12) 0.25801(11) 0.32156(12)
C1 C -0.0466(11) 0.1211(11) 0.4575(11)
H1 H -0.0808 0.2024 0.4293
C2 C -0.0808(11) 0.0248(11) 0.4165(10)
H2 H -0.1341 0.0434 0.3582
C3 C 0.0371(10) 0.0986(10) 0.5391(9)
C4 C 0.0735(9) 0.2035(10) 0.5829(11)
H3 H 0.0713 0.2844 0.5182
H4 H 0.0043 0.2055 0.6599
C5 C 0.1330(15) 0.1224(15) 0.8438(12)
H5 H 0.0912 0.2011 0.8519
H6 H 0.1752 0.0846 0.9125
H7 H 0.0635 0.0653 0.8466
C6 C 0.2390(12) 0.1472(10) 0.7216(10)
C7 C 0.3806(11) 0.1393(10) 0.6947(10)
H8 H 0.4330 0.1168 0.7539
C8 C 0.4309(11) 0.1705(9) 0.5654(10)
C9 C 0.5762(11) 0.1692(11) 0.4871(12)
H9 H 0.6068 0.0828 0.5012
H10 H 0.6353 0.2164 0.5112
H11 H 0.5798 0.2073 0.3985
C10 C 0.3666(10) 0.5144(10) 0.4932(11)
H12 H 0.2749 0.5241 0.4895
C11 C 0.3957(11) 0.4872(11) 0.6086(11)
H13 H 0.3244 0.4784 0.6821
C12 C 0.4673(11) 0.5273(10) 0.3840(10)
C13 C 0.4336(13) 0.5568(11) 0.2568(11)
H14 H 0.3374 0.5346 0.2713
H15 H 0.4451 0.6477 0.2138
C14 C 0.6828(16) 0.6675(12) 0.0354(12)
H16 H 0.6072 0.7202 0.0146
H17 H 0.7585 0.6806 -0.0395
H18 H 0.7118 0.6895 0.0997
C15 C 0.6382(13) 0.5325(12) 0.0834(10)
C16 C 0.6981(14) 0.4282(14) 0.0510(12)
H19 H 0.7796 0.4278 -0.0112
C17 C 0.6162(12) 0.3249(11) 0.1272(10)
C18 C 0.6437(16) 0.1915(14) 0.1280(15)
H20 H 0.6052 0.1353 0.2120
H21 H 0.7417 0.1795 0.1038
H22 H 0.6021 0.1733 0.0688
C19 C 0.0928(12) 0.4349(13) 0.2646(13)
C20 C 0.2993(11) 0.0266(11) 0.2314(11)
N1 N 0.1789(11) 0.3722(11) 0.2866(11)
N2 N 0.3190(11) 0.1073(10) 0.2733(10)
N3 N 0.2074(9) 0.1892(8) 0.6079(8)
N4 N 0.3238(9) 0.2046(8) 0.5089(8)
N5 N 0.5063(9) 0.3605(8) 0.2046(8)
N6 N 0.5189(9) 0.4899(8) 0.1752(8)
S1 S 0.2785(4) -0.0828(5) 0.1723(5)
S2 S -0.0298(6) 0.5334(8) 0.2381(7)
Zn1A Zn -0.33181(12) -0.25801(11) 0.67844(12)
Zn1A_2 Zn 0.66819(12) 0.74199(11) 0.67844(12)
C1A C 0.0466(11) -0.1211(11) 0.5425(11)
H1A H 0.0808 -0.2024 0.5707
C2A C 0.0808(11) -0.0248(11) 0.5835(10)
H2A H 0.1341 -0.0434 0.6418
C3A C -0.0371(10) -0.0986(10) 0.4609(9)
C4A C -0.0735(9) -0.2035(10) 0.4171(11)
H3A H -0.0713 -0.2844 0.4818
H4A H -0.0043 -0.2055 0.3401
C5A C -0.1330(15) -0.1224(15) 0.1562(12)
H5A H -0.0912 -0.2011 0.1481
H6A H -0.1752 -0.0846 0.0875
H7A H -0.0635 -0.0653 0.1534
C6A C -0.2390(12) -0.1472(10) 0.2784(10)
C7A C -0.3806(11) -0.1393(10) 0.3053(10)
H8A H -0.4330 -0.1168 0.2461
C8A C -0.4309(11) -0.1705(9) 0.4346(10)
C9A C -0.5762(11) -0.1692(11) 0.5129(12)
H9A H -0.6068 -0.0828 0.4988
H10A H -0.6353 -0.2164 0.4888
H11A H -0.5798 -0.2073 0.6015
C10A C 0.6334(10) 0.4856(10) 0.5068(11)
H12A H 0.7251 0.4759 0.5105
C11A C 0.6043(11) 0.5128(11) 0.3914(11)
H13A H 0.6756 0.5216 0.3179
C12A C 0.5327(11) 0.4727(10) 0.6160(10)
C13A C 0.5664(13) 0.4432(11) 0.7432(11)
H14A H 0.6626 0.4654 0.7287
H15A H 0.5549 0.3523 0.7862
C14A C 0.3172(16) 0.3325(12) 0.9646(12)
H16A H 0.3928 0.2798 0.9854
H17A H 0.2415 0.3194 1.0395
H18A H 0.2882 0.3105 0.9003
C15A C 0.3618(13) 0.4675(12) 0.9166(10)
C16A C 0.3019(14) 0.5718(14) 0.9490(12)
H19A H 0.2204 0.5722 1.0112
C17A C 0.3838(12) 0.6751(11) 0.8728(10)
C18A C 0.3563(16) 0.8085(14) 0.8720(15)
H20A H 0.3948 0.8647 0.7880
H21A H 0.2583 0.8205 0.8962
H22A H 0.3979 0.8267 0.9312
C19A C -0.0928(12) -0.4349(13) 0.7354(13)
C20A C -0.2993(11) -0.0266(11) 0.7686(11)
N1A N -0.1789(11) -0.3722(11) 0.7134(11)
N2A N -0.3190(11) -0.1073(10) 0.7267(10)
N3A N -0.2074(9) -0.1892(8) 0.3921(8)
N4A N -0.3238(9) -0.2046(8) 0.4911(8)
N5A N 0.4937(9) 0.6395(8) 0.7954(8)
N5A_2 N -0.5063(9) -0.3605(8) 0.7954(8)
N6A N 0.4811(9) 0.5101(8) 0.8248(8)
S1A S -0.2785(4) 0.0828(5) 0.8277(5)
S2A S 0.0298(6) -0.5334(8) 0.7619(7)
loop_
_geom_bond_atom_site_label_1
_geom_bond_atom_site_label_2
_geom_bond_site_symmetry_1
_geom_bond_site_symmetry_2
Zn1 N1 1_555 1_555
C1 H1 1_555 1_555
C2 C1 1_555 1_555
H2 C2 1_555 1_555
C3 C1 1_555 1_555
C4 C3 1_555 1_555
H3 C4 1_555 1_555
H4 C4 1_555 1_555
C5 H5 1_555 1_555
H6 C5 1_555 1_555
H7 C5 1_555 1_555
C6 C5 1_555 1_555
C7 C6 1_555 1_555
H8 C7 1_555 1_555
C8 C7 1_555 1_555
C9 C8 1_555 1_555
H9 C9 1_555 1_555
H10 C9 1_555 1_555
H11 C9 1_555 1_555
C10 H12 1_555 1_555
C11 C10 1_555 1_555
H13 C11 1_555 1_555
C12 C10 1_555 1_555
C13 C12 1_555 1_555
H14 C13 1_555 1_555
H15 C13 1_555 1_555
C14 H16 1_555 1_555
H17 C14 1_555 1_555
H18 C14 1_555 1_555
C15 C14 1_555 1_555
C16 C15 1_555 1_555
H19 C16 1_555 1_555
C17 C16 1_555 1_555
C18 C17 1_555 1_555
H20 C18 1_555 1_555
H21 C18 1_555 1_555
H22 C18 1_555 1_555
C19 N1 1_555 1_555
C20 N2 1_555 1_555
N2 Zn1 1_555 1_555
N3 C4 1_555 1_555
N4 Zn1 1_555 1_555
N5 Zn1 1_555 1_555
N6 C13 1_555 1_555
S1 C20 1_555 1_555
S2 C19 1_555 1_555
Zn1A N1A 1_555 1_555
Zn1A_2 N5A 1_555 1_555
C1A H1A 1_555 1_555
C2A C3 1_555 1_555
H2A C2A 1_555 1_555
C3A C2 1_555 1_555
C4A C3A 1_555 1_555
H3A C4A 1_555 1_555
H4A C4A 1_555 1_555
C5A H5A 1_555 1_555
H6A C5A 1_555 1_555
H7A C5A 1_555 1_555
C6A C5A 1_555 1_555
C7A C6A 1_555 1_555
H8A C7A 1_555 1_555
C8A C7A 1_555 1_555
C9A C8A 1_555 1_555
H9A C9A 1_555 1_555
H10A C9A 1_555 1_555
H11A C9A 1_555 1_555
C10A H12A 1_555 1_555
C11A C12 1_555 1_555
H13A C11A 1_555 1_555
C12A C11 1_555 1_555
C13A C12A 1_555 1_555
H14A C13A 1_555 1_555
H15A C13A 1_555 1_555
C14A H16A 1_555 1_555
H17A C14A 1_555 1_555
H18A C14A 1_555 1_555
C15A C14A 1_555 1_555
C16A C15A 1_555 1_555
H19A C16A 1_555 1_555
C17A C16A 1_555 1_555
C18A C17A 1_555 1_555
H20A C18A 1_555 1_555
H21A C18A 1_555 1_555
H22A C18A 1_555 1_555
C19A N1A 1_555 1_555
C20A N2A 1_555 1_555
N2A Zn1A 1_555 1_555
N3A C4A 1_555 1_555
N4A Zn1A 1_555 1_555
N5A C17A 1_555 1_555
N5A_2 Zn1A 1_555 1_555
N6A C13A 1_555 1_555
S1A C20A 1_555 1_555
S2A C19A 1_555 1_555
C6 N3 1_555 1_555
C8 N4 1_555 1_555
C15 N6 1_555 1_555
C17 N5 1_555 1_555
N3 N4 1_555 1_555
N5 N6 1_555 1_555
C1A C2A 1_555 1_555
C1A C3A 1_555 1_555
C6A N3A 1_555 1_555
C8A N4A 1_555 1_555
C10A C11A 1_555 1_555
C10A C12A 1_555 1_555
C15A N6A 1_555 1_555
N3A N4A 1_555 1_555
N5A N6A 1_555 1_555

#END
