
#######################################################################
#
#                 Cambridge Crystallographic Data Centre
#                                CCDC 
#
#######################################################################
#
# If this CIF has been generated from an entry in the Cambridge 
# Structural Database, then it will include bibliographic, chemical, 
# crystal, experimental, refinement or atomic coordinate data resulting 
# from the CCDC's data processing and validation procedures.
#
#######################################################################

data_ACITOW
_symmetry_cell_setting           triclinic
_symmetry_space_group_name_H-M   'P -1'
_symmetry_Int_Tables_number      2
_space_group_name_Hall           '-P 1'
loop_
_symmetry_equiv_pos_site_id
_symmetry_equiv_pos_as_xyz
1 x,y,z
2 -x,-y,-z
_cell_length_a                   9.9433(12)
_cell_length_b                   10.9857(15)
_cell_length_c                   14.691(2)
_cell_angle_alpha                75.706(7)
_cell_angle_beta                 70.487(5)
_cell_angle_gamma                73.880(5)
_cell_volume                     1431.91
loop_
_atom_site_label
_atom_site_type_symbol
_atom_site_fract_x
_atom_site_fract_y
_atom_site_fract_z
Na1 Na -0.3456(3) 0.5512(3) 0.0247(2)
Na2 Na -0.0284(3) 0.6387(3) 0.0414(2)
Na3 Na -0.7254(4) 0.7138(3) 0.0884(2)
O1 O 0.0373(6) 0.6865(5) 0.1680(4)
H1 H 0.029(9) 0.607(4) 0.210(5)
H2 H -0.032(8) 0.746(5) 0.207(5)
O2 O -0.2633(6) 0.6040(5) 0.1410(4)
H3 H -0.273(9) 0.524(4) 0.182(5)
H4 H -0.310(9) 0.665(5) 0.185(4)
O3 O -0.4934(6) 0.7561(5) 0.0070(4)
H5 H -0.470(9) 0.831(5) 0.014(5)
H6 H -0.473(9) 0.762(7) -0.061(3)
N1 N -0.3553(7) 0.5583(6) -0.2778(5)
H7 H -0.3405 0.4778 -0.2795
C1 C -0.3903(8) 0.5950(7) -0.1903(6)
O4 O -0.3985(6) 0.5117(5) -0.1144(4)
N2 N -0.4170(7) 0.7226(6) -0.1870(5)
C2 C -0.4059(9) 0.8078(7) -0.2704(5)
N3 N -0.4328(8) 0.9310(6) -0.2643(6)
H8 H -0.4565 0.9538 -0.2081
H9 H -0.4266 0.9883 -0.3166
C3 C -0.3665(10) 0.7694(9) -0.3616(6)
H10 H -0.3574 0.8293 -0.4192
C4 C -0.3423(9) 0.6428(8) -0.3632(6)
H11 H -0.3170 0.6139 -0.4224
N4 N -0.0888(7) 0.7647(6) -0.2048(5)
H12 H -0.1164 0.8092 -0.1586
C5 C -0.0682(8) 0.6346(7) -0.1796(6)
O5 O -0.0889(6) 0.5827(5) -0.0911(4)
N5 N -0.0251(7) 0.5644(6) -0.2520(4)
C6 C -0.0020(8) 0.6250(7) -0.3454(6)
N6 N 0.0431(8) 0.5517(7) -0.4143(5)
H13 H 0.0562 0.4695 -0.3981
H14 H 0.0592 0.5867 -0.4751
C7 C -0.0235(9) 0.7598(7) -0.3708(6)
H15 H -0.0071 0.8003 -0.4359
C8 C -0.0686(9) 0.8278(7) -0.2974(6)
H16 H -0.0855 0.9171 -0.3106
N7 N -0.2113(7) 0.1494(6) 0.1714(5)
H17 H -0.1820 0.1088 0.1228
C9 C -0.2374(8) 0.2819(6) 0.1530(6)
O6 O -0.2198(6) 0.3377(5) 0.0658(4)
N8 N -0.2770(7) 0.3451(6) 0.2275(5)
C10 C -0.2965(9) 0.2782(8) 0.3200(6)
N9 N -0.3389(8) 0.3443(7) 0.3925(5)
H18 H -0.3531 0.4268 0.3800
H19 H -0.3522 0.3047 0.4521
C11 C -0.2734(9) 0.1419(8) 0.3390(6)
H20 H -0.2882 0.0967 0.4028
C12 C -0.2303(9) 0.0809(8) 0.2633(6)
H21 H -0.2131 -0.0083 0.2734
Cl1 Cl -0.2308(3) 0.96186(18) -0.00846(15)
O7 O -0.1758(8) 1.0720(5) -0.0207(5)
O8 O -0.3318(13) 0.9443(8) 0.0822(6)
O9 O -0.3019(9) 0.9790(7) -0.0823(6)
O10 O -0.1135(8) 0.8529(5) -0.0227(5)
Cl2 Cl -0.8105(3) 0.7780(2) 0.32657(17)
O11 O -0.9275(10) 0.8660(8) 0.2902(8)
O12 O -0.6955(8) 0.7389(7) 0.2441(5)
O13 O -0.7677(11) 0.8422(8) 0.3809(7)
O14 O -0.8629(13) 0.6676(8) 0.3816(6)
Na1A Na -0.6544(3) 0.4488(3) -0.0247(2)
Na2A Na 0.0284(3) 0.3613(3) -0.0414(2)
Na3_2 Na 0.2746(4) 0.7138(3) 0.0884(2)
Na3A Na -0.2746(4) 0.2862(3) -0.0884(2)
Na3A_2 Na -0.2746(4) 1.2862(3) -0.0884(2)
O1_2 O -0.9627(6) 0.6865(5) 0.1680(4)
H1_2 H -0.971(9) 0.607(4) 0.210(5)
H2_2 H -1.032(8) 0.746(5) 0.207(5)
O4A O -0.6015(6) 0.4883(5) 0.1144(4)
O5A O 0.0889(6) 0.4173(5) 0.0911(4)
O6A O 0.2198(6) 0.6623(5) -0.0658(4)
O6A_2 O -0.7802(6) 0.6623(5) -0.0658(4)
O7A O -0.8242(8) 0.9280(5) 0.0207(5)
Cl3 Cl -0.3661(3) 0.7475(2) 0.37224(15)
O15 O -0.4073(9) 0.6278(6) 0.4066(6)
O16 O -0.4691(8) 0.8403(6) 0.4274(4)
O17 O -0.3602(12) 0.7887(7) 0.2732(5)
O18 O -0.2247(9) 0.7352(9) 0.3839(7)
loop_
_geom_bond_atom_site_label_1
_geom_bond_atom_site_label_2
_geom_bond_site_symmetry_1
_geom_bond_site_symmetry_2
Na1 O2 1_555 1_555
Na2 O1 1_555 1_555
Na3 O3 1_555 1_555
O1 H1 1_555 1_555
H2 O1 1_555 1_555
O2 Na2 1_555 1_555
H3 O2 1_555 1_555
H4 O2 1_555 1_555
O3 Na1 1_555 1_555
H5 O3 1_555 1_555
H6 O3 1_555 1_555
N1 H7 1_555 1_555
C1 N1 1_555 1_555
O4 Na1 1_555 1_555
N2 C1 1_555 1_555
C2 N2 1_555 1_555
N3 C2 1_555 1_555
H8 N3 1_555 1_555
H9 N3 1_555 1_555
C3 C2 1_555 1_555
H10 C3 1_555 1_555
C4 N1 1_555 1_555
H11 C4 1_555 1_555
N4 H12 1_555 1_555
C5 N4 1_555 1_555
O5 Na1 1_555 1_555
N5 C5 1_555 1_555
C6 N5 1_555 1_555
N6 C6 1_555 1_555
H13 N6 1_555 1_555
H14 N6 1_555 1_555
C7 C6 1_555 1_555
H15 C7 1_555 1_555
C8 N4 1_555 1_555
H16 C8 1_555 1_555
N7 H17 1_555 1_555
C9 N7 1_555 1_555
O6 Na1 1_555 1_555
N8 C9 1_555 1_555
C10 N8 1_555 1_555
N9 C10 1_555 1_555
H18 N9 1_555 1_555
H19 N9 1_555 1_555
C11 C10 1_555 1_555
H20 C11 1_555 1_555
C12 N7 1_555 1_555
H21 C12 1_555 1_555
Cl1 O7 1_555 1_555
O7 Na3A_2 1_555 1_555
O8 Cl1 1_555 1_555
O9 Cl1 1_555 1_555
O10 Na2 1_555 1_555
Cl2 O11 1_555 1_555
O12 Na3 1_555 1_555
O13 Cl2 1_555 1_555
O14 Cl2 1_555 1_555
Cl3 O15 1_555 1_555
O16 Cl3 1_555 1_555
O17 Cl3 1_555 1_555
O18 Cl3 1_555 1_555
Na1A O4 1_555 1_555
Na2A O5 1_555 1_555
Na3_2 O1 1_555 1_555
Na3A O4 1_555 1_555
O1_2 Na3 1_555 1_555
H1_2 O1_2 1_555 1_555
H2_2 O1_2 1_555 1_555
O4A Na1 1_555 1_555
O5A Na2 1_555 1_555
O6A Na2 1_555 1_555
O6A_2 Na3 1_555 1_555
O7A Na3 1_555 1_555
Na2 O5 1_555 1_555
Na3 O4A 1_555 1_555
C1 O4 1_555 1_555
C3 C4 1_555 1_555
C5 O5 1_555 1_555
C7 C8 1_555 1_555
C9 O6 1_555 1_555
O6 Na2A 1_555 1_555
O6 Na3A 1_555 1_555
C11 C12 1_555 1_555
Cl1 O10 1_555 1_555
Cl2 O12 1_555 1_555
Na1A O4A 1_555 1_555
Na1A O6A_2 1_555 1_555
Na2A O5A 1_555 1_555
Na3_2 O6A 1_555 1_555

#END
