
#######################################################################
#
#                 Cambridge Crystallographic Data Centre
#                                CCDC 
#
#######################################################################
#
# If this CIF has been generated from an entry in the Cambridge 
# Structural Database, then it will include bibliographic, chemical, 
# crystal, experimental, refinement or atomic coordinate data resulting 
# from the CCDC's data processing and validation procedures.
#
#######################################################################

data_ACITOV
_symmetry_cell_setting           orthorhombic
_symmetry_space_group_name_H-M   'P n a 21'
_symmetry_Int_Tables_number      33
_space_group_name_Hall           'P 2c -2n'
loop_
_symmetry_equiv_pos_site_id
_symmetry_equiv_pos_as_xyz
1 x,y,z
2 -x,-y,1/2+z
3 1/2-x,1/2+y,1/2+z
4 1/2+x,1/2-y,z
_cell_length_a                   23.392(4)
_cell_length_b                   13.199(2)
_cell_length_c                   20.547(4)
_cell_angle_alpha                90
_cell_angle_beta                 90
_cell_angle_gamma                90
_cell_volume                     6343.91
loop_
_atom_site_label
_atom_site_type_symbol
_atom_site_fract_x
_atom_site_fract_y
_atom_site_fract_z
C1 C 1.0386(7) 0.1936(12) 0.7355(12)
C2 C 1.0518(8) 0.0881(15) 0.7456(11)
C3 C 1.0451(9) 0.0156(16) 0.7016(13)
C4 C 1.0231(9) 0.0406(14) 0.6450(15)
C5 C 1.0108(8) 0.1413(16) 0.6299(12)
C6 C 1.0191(8) 0.2189(15) 0.6751(10)
C7 C 1.0013(8) 0.3225(16) 0.6607(11)
C8 C 0.9768(7) 0.5505(15) 0.7241(11)
C9 C 0.9560(7) 0.6544(14) 0.7116(10)
C10 C 0.9313(7) 0.6804(13) 0.6542(12)
C11 C 0.9135(8) 0.7816(21) 0.6423(12)
C12 C 0.9224(10) 0.8530(16) 0.6905(16)
C13 C 0.9453(13) 0.8274(17) 0.7478(14)
C14 C 0.9620(11) 0.7257(18) 0.7591(11)
C15 C 0.8956(8) 0.2618(14) 0.7890(12)
C16 C 0.8684(9) 0.3277(17) 0.7454(10)
C17 C 0.8306(9) 0.2989(19) 0.6985(11)
C18 C 0.8135(10) 0.1961(21) 0.6950(13)
C19 C 0.8390(8) 0.1281(16) 0.7373(11)
C20 C 0.8806(7) 0.1597(14) 0.7843(12)
C21 C 0.9055(9) 0.0795(14) 0.8233(11)
C22 C 1.0137(8) 0.0344(15) 0.9245(10)
C23 C 1.0465(8) -0.0479(14) 0.9545(10)
C24 C 1.0446(9) -0.1469(16) 0.9365(12)
C25 C 1.0789(13) -0.2194(19) 0.9675(15)
C26 C 1.1145(11) -0.1941(20) 1.0158(16)
C27 C 1.1199(8) -0.0978(21) 1.0306(12)
C28 C 1.0881(8) -0.0229(12) 1.0055(10)
C29 C 1.0352(7) 0.3630(14) 0.9794(12)
C30 C 1.0598(9) 0.4570(14) 0.9791(12)
C31 C 1.0602(8) 0.4763(13) 0.9134(11)
N1 N 1.0022(6) 0.3944(11) 0.6982(8)
N2 N 0.9815(6) 0.4866(11) 0.6741(7)
N3 N 1.0359(5) 0.4042(10) 0.8779(7)
N4 N 1.0199(6) 0.3331(11) 0.9206(8)
N5 N 0.9457(6) 0.0912(10) 0.8612(8)
N6 N 0.9686(5) 0.0041(9) 0.8904(9)
O1 O 1.0495(4) 0.2566(7) 0.7855(6)
O2 O 0.9863(5) 0.5242(8) 0.7840(7)
O3 O 0.9316(5) 0.2956(9) 0.8340(6)
O4 O 1.0308(5) 0.1282(9) 0.9323(7)
Cu1 Cu 1.0187(1) 0.3908(2) 0.7882(1)
Cu2 Cu 0.9812(1) 0.2159(1) 0.8858(1)
C32 C 0.8586(8) 0.3146(13) 0.9886(11)
C33 C 0.8850(7) 0.3798(14) 1.0306(11)
C34 C 0.9212(8) 0.3529(15) 1.0817(11)
C35 C 0.9303(8) 0.2527(16) 1.0923(11)
C36 C 0.9061(8) 0.1792(15) 1.0519(11)
C37 C 0.8699(7) 0.2078(15) 1.0002(10)
C38 C 0.8434(8) 0.1271(12) 0.9642(10)
C39 C 0.7385(8) 0.0782(14) 0.8552(10)
C40 C 0.7041(8) -0.0004(13) 0.8242(10)
C41 C 0.6679(9) 0.0269(17) 0.7746(11)
C42 C 0.6369(10) -0.0448(18) 0.7433(11)
C43 C 0.6420(9) -0.1447(20) 0.7607(13)
C44 C 0.6807(13) -0.1774(18) 0.8086(15)
C45 C 0.7115(11) -0.1009(18) 0.8393(13)
C46 C 0.7123(7) 0.2463(13) 1.0390(12)
C47 C 0.6963(6) 0.1435(15) 1.0318(9)
C48 C 0.6989(9) 0.0746(14) 1.0839(13)
C49 C 0.7175(10) 0.1080(16) 1.1442(13)
C50 C 0.7357(8) 0.2045(14) 1.1505(12)
C51 C 0.7345(8) 0.2743(13) 1.1009(12)
C52 C 0.7531(7) 0.3766(13) 1.1171(10)
C53 C 0.7781(7) 0.6032(12) 1.0503(12)
C54 C 0.7947(7) 0.7106(12) 1.0613(10)
C55 C 0.7776(8) 0.7857(13) 1.0213(10)
C56 C 0.7897(10) 0.8887(15) 1.0346(13)
C57 C 0.8202(8) 0.9079(15) 1.0899(14)
C58 C 0.8369(8) 0.8340(16) 1.1273(11)
C59 C 0.8252(8) 0.7355(15) 1.1163(10)
C60 C 0.7204(7) 0.4025(13) 0.7914(12)
C61 C 0.6920(7) 0.4968(14) 0.7947(11)
C62 C 0.6920(7) 0.5240(13) 0.8577(11)
N7 N 0.8071(6) 0.1391(9) 0.9207(7)
N8 N 0.7823(6) 0.0522(8) 0.8937(9)
N9 N 0.7370(6) 0.3807(11) 0.8530(8)
N10 N 0.7202(5) 0.4531(8) 0.8914(9)
N11 N 0.7549(5) 0.4486(9) 1.0761(7)
N12 N 0.7758(6) 0.5424(11) 1.0990(8)
O5 O 0.8254(5) 0.3455(8) 0.9423(6)
O6 O 0.7230(5) 0.1709(8) 0.8466(5)
O7 O 0.7079(5) 0.3089(8) 0.9888(7)
O8 O 0.7639(5) 0.5830(7) 0.9889(7)
Cu3 Cu 0.7750(1) 0.2637(1) 0.8911(1)
Cu4 Cu 0.7378(1) 0.4432(1) 0.9847(1)
K1 K 0.9045(2) 0.4851(3) 0.8835(3)
K2 K 1.1283(2) 0.2249(3) 0.8869(3)
O10 O 0.8321(10) 0.6423(16) 0.8793(19)
O11 O 0.9303(14) 0.6405(20) 0.9663(22)
H1 H 1.0662(8) 0.0695(15) 0.7860(11)
H2 H 1.0556(9) -0.0509(16) 0.7105(13)
H3 H 1.0157(9) -0.0097(14) 0.6144(15)
H4 H 0.9968(8) 0.1571(16) 0.5888(12)
H5 H 0.9880(8) 0.3351(16) 0.6188(11)
H6 H 0.9260(7) 0.6314(13) 0.6222(12)
H7 H 0.8964(8) 0.7994(21) 0.6031(12)
H8 H 0.9122(10) 0.9201(16) 0.6829(16)
H9 H 0.9502(13) 0.8760(17) 0.7801(14)
H10 H 0.9772(11) 0.7075(18) 0.7993(11)
H11 H 0.8768(9) 0.3964(17) 0.7488(10)
H12 H 0.8163(9) 0.3461(19) 0.6691(11)
H13 H 0.7861(10) 0.1749(21) 0.6652(13)
H14 H 0.8289(8) 0.0600(16) 0.7351(11)
H15 H 0.8901(9) 0.0148(14) 0.8194(11)
H16 H 1.0201(9) -0.1668(16) 0.9032(12)
H17 H 1.0769(13) -0.2866(19) 0.9542(15)
H18 H 1.1349(11) -0.2434(20) 1.0382(16)
H19 H 1.1478(8) -0.0804(21) 1.0608(12)
H20 H 1.0923(8) 0.0433(12) 1.0201(10)
H21 H 1.0297(7) 0.3245(14) 1.0168(12)
H22 H 1.0727(9) 0.4966(14) 1.0135(12)
H23 H 1.0760(8) 0.5345(13) 0.8955(11)
H24 H 0.8782(7) 0.4485(14) 1.0245(11)
H25 H 0.9385(8) 0.4019(15) 1.1076(11)
H26 H 0.9530(8) 0.2326(16) 1.1271(11)
H27 H 0.9139(8) 0.1111(15) 1.0592(11)
H28 H 0.8543(8) 0.0611(12) 0.9741(10)
H29 H 0.6647(9) 0.0946(17) 0.7626(11)
H30 H 0.6122(10) -0.0263(18) 0.7099(11)
H31 H 0.6191(9) -0.1924(20) 0.7401(13)
H32 H 0.6853(13) -0.2455(18) 0.8190(15)
H33 H 0.7380(11) -0.1184(18) 0.8711(13)
H34 H 0.6837(6) 0.1209(15) 0.9914(9)
H35 H 0.6883(9) 0.0073(14) 1.0779(13)
H36 H 0.7174(10) 0.0645(16) 1.1798(13)
H37 H 0.7499(8) 0.2250(14) 1.1907(12)
H38 H 0.7642(7) 0.3899(13) 1.1597(10)
H39 H 0.7573(8) 0.7693(13) 0.9838(10)
H40 H 0.7775(10) 0.9405(15) 1.0072(13)
H41 H 0.8292(8) 0.9744(15) 1.1010(14)
H42 H 0.8583(8) 0.8503(16) 1.1640(11)
H43 H 0.8374(8) 0.6856(15) 1.1451(10)
H44 H 0.7264(7) 0.3632(13) 0.7545(12)
H45 H 0.6765(7) 0.5329(14) 0.7601(11)
H46 H 0.6754(7) 0.5821(13) 0.8749(11)
K2C K 0.6283(2) 0.2751(3) 0.8869(3)
O6C O 1.2230(5) 0.3291(8) 0.8466(5)
O7C O 1.2079(5) 0.1911(8) 0.9888(7)
O9 O 0.8719(16) -0.1368(17) 0.8964(25)
C63 C 0.9060(19) -0.1751(34) 0.9326(27)
loop_
_geom_bond_atom_site_label_1
_geom_bond_atom_site_label_2
_geom_bond_site_symmetry_1
_geom_bond_site_symmetry_2
C1 C2 1_555 1_555
C2 C3 1_555 1_555
C3 C4 1_555 1_555
C4 C5 1_555 1_555
C5 C6 1_555 1_555
C6 C1 1_555 1_555
C7 C6 1_555 1_555
C8 C9 1_555 1_555
C9 C10 1_555 1_555
C10 C11 1_555 1_555
C11 C12 1_555 1_555
C12 C13 1_555 1_555
C13 C14 1_555 1_555
C14 C9 1_555 1_555
C15 C16 1_555 1_555
C16 C17 1_555 1_555
C17 C18 1_555 1_555
C18 C19 1_555 1_555
C19 C20 1_555 1_555
C20 C15 1_555 1_555
C21 C20 1_555 1_555
C22 C23 1_555 1_555
C23 C24 1_555 1_555
C24 C25 1_555 1_555
C25 C26 1_555 1_555
C26 C27 1_555 1_555
C27 C28 1_555 1_555
C28 C23 1_555 1_555
C29 C30 1_555 1_555
C30 C31 1_555 1_555
C31 N3 1_555 1_555
N1 C7 1_555 1_555
N2 C8 1_555 1_555
N3 N4 1_555 1_555
N4 C29 1_555 1_555
N5 C21 1_555 1_555
N6 C22 1_555 1_555
O1 C1 1_555 1_555
O2 C8 1_555 1_555
O3 C15 1_555 1_555
O4 C22 1_555 1_555
Cu1 N1 1_555 1_555
Cu2 N4 1_555 1_555
C32 C33 1_555 1_555
C33 C34 1_555 1_555
C34 C35 1_555 1_555
C35 C36 1_555 1_555
C36 C37 1_555 1_555
C37 C32 1_555 1_555
C38 C37 1_555 1_555
C39 C40 1_555 1_555
C40 C41 1_555 1_555
C41 C42 1_555 1_555
C42 C43 1_555 1_555
C43 C44 1_555 1_555
C44 C45 1_555 1_555
C45 C40 1_555 1_555
C46 C47 1_555 1_555
C47 C48 1_555 1_555
C48 C49 1_555 1_555
C49 C50 1_555 1_555
C50 C51 1_555 1_555
C51 C46 1_555 1_555
C52 C51 1_555 1_555
C53 C54 1_555 1_555
C54 C55 1_555 1_555
C55 C56 1_555 1_555
C56 C57 1_555 1_555
C57 C58 1_555 1_555
C58 C59 1_555 1_555
C59 C54 1_555 1_555
C60 C61 1_555 1_555
C61 C62 1_555 1_555
C62 N10 1_555 1_555
N7 C38 1_555 1_555
N8 C39 1_555 1_555
N9 C60 1_555 1_555
N10 N9 1_555 1_555
N11 C52 1_555 1_555
N12 C53 1_555 1_555
O5 C32 1_555 1_555
O6 C39 1_555 1_555
O7 C46 1_555 1_555
O8 C53 1_555 1_555
Cu3 N7 1_555 1_555
Cu4 N10 1_555 1_555
K1 O2 1_555 1_555
K2 O1 1_555 1_555
O9 C63 1_555 1_555
O10 K1 1_555 1_555
O11 K1 1_555 1_555
H1 C2 1_555 1_555
H2 C3 1_555 1_555
H3 C4 1_555 1_555
H4 C5 1_555 1_555
H5 C7 1_555 1_555
H6 C10 1_555 1_555
H7 C11 1_555 1_555
H8 C12 1_555 1_555
H9 C13 1_555 1_555
H10 C14 1_555 1_555
H11 C16 1_555 1_555
H12 C17 1_555 1_555
H13 C18 1_555 1_555
H14 C19 1_555 1_555
H15 C21 1_555 1_555
H16 C24 1_555 1_555
H17 C25 1_555 1_555
H18 C26 1_555 1_555
H19 C27 1_555 1_555
H20 C28 1_555 1_555
H21 C29 1_555 1_555
H22 C30 1_555 1_555
H23 C31 1_555 1_555
H24 C33 1_555 1_555
H25 C34 1_555 1_555
H26 C35 1_555 1_555
H27 C36 1_555 1_555
H28 C38 1_555 1_555
H29 C41 1_555 1_555
H30 C42 1_555 1_555
H31 C43 1_555 1_555
H32 C44 1_555 1_555
H33 C45 1_555 1_555
H34 C47 1_555 1_555
H35 C48 1_555 1_555
H36 C49 1_555 1_555
H37 C50 1_555 1_555
H38 C52 1_555 1_555
H39 C55 1_555 1_555
H40 C56 1_555 1_555
H41 C57 1_555 1_555
H42 C58 1_555 1_555
H43 C59 1_555 1_555
H44 C60 1_555 1_555
H45 C61 1_555 1_555
H46 C62 1_555 1_555
K2C O6 1_555 1_555
O6C K2 1_555 1_555
O7C K2 1_555 1_555
N1 N2 1_555 1_555
N3 Cu1 1_555 1_555
N5 N6 1_555 1_555
N5 Cu2 1_555 1_555
O1 Cu1 1_555 1_555
O2 Cu1 1_555 1_555
O3 Cu2 1_555 1_555
O3 K1 1_555 1_555
O4 Cu2 1_555 1_555
O4 K2 1_555 1_555
N7 N8 1_555 1_555
N9 Cu3 1_555 1_555
N11 N12 1_555 1_555
N11 Cu4 1_555 1_555
O5 Cu3 1_555 1_555
O5 K1 1_555 1_555
O6 Cu3 1_555 1_555
O7 Cu4 1_555 1_555
O7 K2C 1_555 1_555
O8 Cu4 1_555 1_555

#END
