
#######################################################################
#
#                 Cambridge Crystallographic Data Centre
#                                CCDC 
#
#######################################################################
#
# If this CIF has been generated from an entry in the Cambridge 
# Structural Database, then it will include bibliographic, chemical, 
# crystal, experimental, refinement or atomic coordinate data resulting 
# from the CCDC's data processing and validation procedures.
#
#######################################################################

data_ACOLIP
_symmetry_cell_setting           monoclinic
_symmetry_space_group_name_H-M   'C c'
_symmetry_Int_Tables_number      9
_space_group_name_Hall           'C -2yc'
loop_
_symmetry_equiv_pos_site_id
_symmetry_equiv_pos_as_xyz
1 x,y,z
2 x,-y,1/2+z
3 1/2+x,1/2+y,z
4 1/2+x,1/2-y,1/2+z
_cell_length_a                   20.661(4)
_cell_length_b                   11.567(2)
_cell_length_c                   14.227(3)
_cell_angle_alpha                90
_cell_angle_beta                 116.01(3)
_cell_angle_gamma                90
_cell_volume                     3055.69
loop_
_atom_site_label
_atom_site_type_symbol
_atom_site_fract_x
_atom_site_fract_y
_atom_site_fract_z
C1 C 0.0083(5) 0.4124(6) 0.1180(7)
C2 C -0.0550(4) 0.3346(7) 0.0540(6)
C3 C -0.1164(4) 0.3798(6) -0.0279(6)
C4 C -0.1695(4) 0.2948(8) -0.0891(6)
H1 H -0.2109 0.3199 -0.1461
C5 C -0.1615(4) 0.1783(7) -0.0670(5)
C6 C -0.0989(4) 0.1460(6) 0.0158(6)
H2 H -0.0932 0.0676 0.0317
C7 C -0.0452(5) 0.2151(6) 0.0760(7)
H3 H -0.0034 0.1863 0.1299
C8 C -0.2158(4) 0.0891(8) -0.1298(6)
C9 C 0.1742(4) 0.6346(7) 0.4337(5)
H4 H 0.2231 0.6416 0.4523
C10 C 0.0564(4) 0.5912(7) 0.3429(6)
H5 H 0.0131 0.5631 0.2917
C11 C 0.0656(5) 0.6603(7) 0.4298(6)
H6 H 0.0292 0.6859 0.4465
C12 C 0.1699(4) 0.7710(7) 0.5704(6)
H7 H 0.1484 0.7619 0.6185
H8 H 0.2213 0.7582 0.6092
C13 C 0.1570(3) 0.8904(4) 0.5284(4)
C14 C 0.1980(3) 0.9421(4) 0.4844(4)
H9 H 0.2357 0.9016 0.4807
C15 C 0.1825(3) 1.0542(4) 0.4457(4)
H10 H 0.2099 1.0887 0.4162
C16 C 0.1261(3) 1.1146(4) 0.4511(3)
C17 C 0.0851(2) 1.0629(4) 0.4952(3)
H11 H 0.0474 1.1033 0.4988
C18 C 0.1006(3) 0.9508(4) 0.5338(3)
H12 H 0.0732 0.9162 0.5633
C19 C 0.1034(5) 1.2370(6) 0.4075(5)
H13 H 0.1185 1.2544 0.3534
H14 H 0.0517 1.2472 0.3796
C20 C 0.1063(5) 1.3718(7) 0.5566(6)
H15 H 0.0571 1.3721 0.5378
C21 C 0.2278(4) 1.4147(7) 0.6361(7)
H16 H 0.2717 1.4465 0.6822
C22 C 0.2170(4) 1.3434(7) 0.5489(6)
H17 H 0.2513 1.3225 0.5264
N1 N 0.1251(4) 0.5733(6) 0.3488(5)
N2 N 0.1390(4) 0.6832(6) 0.4860(6)
N3 N 0.1602(3) 1.4303(6) 0.6421(5)
N4 N 0.1427(4) 1.3102(5) 0.5026(5)
N5 N -0.1325(3) 0.4851(5) -0.0400(5)
H32 H -0.1047 0.5350 0.0040
H33 H -0.1713 0.5074 -0.0923
O1 O -0.0057(3) 0.5197(4) 0.1039(5)
O2 O 0.0669(3) 0.3689(4) 0.1780(4)
O3 O -0.2740(3) 0.1327(6) -0.1907(4)
O4 O -0.2088(3) -0.0208(5) -0.1206(5)
Zn1 Zn 0.14187(6) 0.48701(5) 0.24376(7)
N3A N 0.1602(3) 0.5697(6) 0.1421(5)
O3C O 0.2260(3) 0.3673(6) 0.3093(4)
Zn1A Zn 0.14187(6) 1.51299(5) 0.74376(7)
Zn1C Zn -0.35813(6) 0.01299(5) -0.25624(7)
C23 C 0.3148(3) 0.2222(5) 0.8389(5)
H18 H 0.2924 0.2684 0.8695
C24 C 0.2025(4) 0.1160(7) 0.7351(6)
H19 H 0.1979 0.0423 0.7625
H20 H 0.1738 0.1169 0.6607
H21 H 0.1862 0.1758 0.7665
C25 C 0.3129(4) 0.0634(5) 0.7013(5)
H22 H 0.3498 0.1076 0.6942
H23 H 0.2765 0.0428 0.6333
H24 H 0.3336 -0.0055 0.7407
N6 N 0.2788(3) 0.1364(5) 0.7592(4)
O5 O 0.3796(3) 0.2256(4) 0.8607(4)
C26 C 0.4110(4) 0.2715(7) 0.1014(5)
H25 H 0.4315 0.2287 0.0661
C27 C 0.4139(3) 0.4156(5) 0.2351(5)
H26 H 0.3629 0.4055 0.1960
H27 H 0.4251 0.4966 0.2433
H28 H 0.4298 0.3804 0.3027
C28 C 0.5259(4) 0.3796(7) 0.1838(5)
H29 H 0.5393 0.3148 0.1540
H30 H 0.5600 0.3884 0.2557
H31 H 0.5254 0.4485 0.1458
N7 N 0.4517(3) 0.3595(5) 0.1773(4)
O6 O 0.3458(2) 0.2557(4) 0.0854(3)
loop_
_geom_bond_atom_site_label_1
_geom_bond_atom_site_label_2
_geom_bond_site_symmetry_1
_geom_bond_site_symmetry_2
C1 C2 1_555 1_555
C2 C3 1_555 1_555
C3 C4 1_555 1_555
C4 H1 1_555 1_555
C5 C4 1_555 1_555
C6 C5 1_555 1_555
H2 C6 1_555 1_555
C7 C2 1_555 1_555
H3 C7 1_555 1_555
C8 C5 1_555 1_555
C9 H4 1_555 1_555
C10 H5 1_555 1_555
C11 C10 1_555 1_555
H6 C11 1_555 1_555
C12 H7 1_555 1_555
H8 C12 1_555 1_555
C13 C12 1_555 1_555
C14 C13 1_555 1_555
H9 C14 1_555 1_555
C15 C14 1_555 1_555
H10 C15 1_555 1_555
C16 C15 1_555 1_555
C17 C16 1_555 1_555
H11 C17 1_555 1_555
C18 C13 1_555 1_555
H12 C18 1_555 1_555
C19 C16 1_555 1_555
H13 C19 1_555 1_555
H14 C19 1_555 1_555
C20 H15 1_555 1_555
C21 H16 1_555 1_555
C22 C21 1_555 1_555
H17 C22 1_555 1_555
C23 H18 1_555 1_555
C24 H19 1_555 1_555
H20 C24 1_555 1_555
H21 C24 1_555 1_555
C25 H22 1_555 1_555
H23 C25 1_555 1_555
H24 C25 1_555 1_555
C26 H25 1_555 1_555
C27 H26 1_555 1_555
H27 C27 1_555 1_555
H28 C27 1_555 1_555
C28 H29 1_555 1_555
H30 C28 1_555 1_555
H31 C28 1_555 1_555
N1 C9 1_555 1_555
N2 C9 1_555 1_555
N3 C20 1_555 1_555
N4 C19 1_555 1_555
N5 C3 1_555 1_555
H32 N5 1_555 1_555
H33 N5 1_555 1_555
N6 C23 1_555 1_555
N7 C26 1_555 1_555
O1 C1 1_555 1_555
O2 C1 1_555 1_555
O3 C8 1_555 1_555
O4 C8 1_555 1_555
O5 C23 1_555 1_555
O6 C26 1_555 1_555
Zn1 N1 1_555 1_555
N3A Zn1 1_555 1_555
O3C Zn1 1_555 1_555
Zn1A N3 1_555 1_555
Zn1C O3 1_555 1_555
C6 C7 1_555 1_555
C10 N1 1_555 1_555
C11 N2 1_555 1_555
C12 N2 1_555 1_555
C17 C18 1_555 1_555
C20 N4 1_555 1_555
C21 N3 1_555 1_555
C22 N4 1_555 1_555
C24 N6 1_555 1_555
C25 N6 1_555 1_555
C27 N7 1_555 1_555
C28 N7 1_555 1_555
O2 Zn1 1_555 1_555

#END
