
#######################################################################
#
#                 Cambridge Crystallographic Data Centre
#                                CCDC 
#
#######################################################################
#
# If this CIF has been generated from an entry in the Cambridge 
# Structural Database, then it will include bibliographic, chemical, 
# crystal, experimental, refinement or atomic coordinate data resulting 
# from the CCDC's data processing and validation procedures.
#
#######################################################################

data_ACOQEP
_symmetry_cell_setting           orthorhombic
_symmetry_space_group_name_H-M   'P b c a'
_symmetry_Int_Tables_number      61
_space_group_name_Hall           '-P 2ac 2ab'
loop_
_symmetry_equiv_pos_site_id
_symmetry_equiv_pos_as_xyz
1 x,y,z
2 1/2+x,1/2-y,-z
3 -x,1/2+y,1/2-z
4 1/2-x,-y,1/2+z
5 -x,-y,-z
6 1/2-x,1/2+y,z
7 x,1/2-y,1/2+z
8 1/2+x,y,1/2-z
_cell_length_a                   10.826(2)
_cell_length_b                   19.498(3)
_cell_length_c                   19.757(3)
_cell_angle_alpha                90
_cell_angle_beta                 90
_cell_angle_gamma                90
_cell_volume                     4170.41
loop_
_atom_site_label
_atom_site_type_symbol
_atom_site_fract_x
_atom_site_fract_y
_atom_site_fract_z
Tb1 Tb 0.56766(2) 0.033560(10) 0.683570(10)
O1 O 0.6986(3) 0.1003(2) 0.7516(2)
O2 O 0.7476(3) 0.1871(2) 0.8181(2)
O3 O 0.4922(3) 0.1521(1) 0.7117(1)
O4 O 0.6246(3) 0.2791(2) 0.6972(1)
O5 O 0.3667(3) 0.2837(1) 0.8139(2)
O6 O 0.4990(3) 0.4109(1) 0.7949(1)
O7 O 0.2841(3) 0.4578(2) 0.7696(2)
O8 O 0.2415(3) 0.3835(2) 0.6885(2)
O9 O 0.7573(3) 0.0541(2) 0.6188(2)
O10 O 0.8367(3) 0.0633(2) 0.5152(2)
O11 O 0.5397(2) 0.1010(2) 0.5783(1)
O12 O 0.5584(3) -0.0334(2) 0.57987(13)
O13 O 0.3477(3) 0.0305(2) 0.6597(2)
O14 O 0.4805(3) 0.0255(2) 0.7994(2)
C1 C 0.6744(4) 0.1566(2) 0.7803(2)
C2 C 0.5455(4) 0.1872(2) 0.7682(2)
C3 C 0.5547(4) 0.2636(2) 0.7561(2)
C4 C 0.4288(4) 0.2990(2) 0.7524(2)
C5 C 0.4399(4) 0.3762(2) 0.7409(2)
C6 C 0.3114(4) 0.4079(2) 0.7324(2)
C7 C 0.7489(4) 0.0629(2) 0.5561(3)
C8 C 0.6166(4) 0.0705(2) 0.5281(2)
C9 C 0.5645(4) -0.0011(2) 0.5152(2)
H1 H 0.4999(4) 0.1799(2) 0.8026(2)
H2 H 0.4207(3) 0.1669(1) 0.7039(1)
H3 H 0.5977(4) 0.2798(2) 0.7891(2)
H4 H 0.5767(3) 0.2634(2) 0.6645(1)
H5 H 0.3872(4) 0.2805(2) 0.7197(2)
H6 H 0.2880(3) 0.2801(1) 0.8023(2)
H7 H 0.4813(4) 0.3817(2) 0.7039(2)
H8 H 0.5683(3) 0.3951(1) 0.7989(1)
H9 H 0.6171(4) 0.0977(2) 0.4916(2)
H10 H 0.5341(2) 0.1517(2) 0.5761(1)
H11 H 0.6166(4) -0.0240(2) 0.4899(2)
H12 H 0.5621(3) -0.0753(2) 0.58093(13)
H13 H 0.3295(3) -0.0176(2) 0.6527(2)
H14 H 0.2983(3) 0.0447(2) 0.6966(2)
H15 H 0.3949(3) 0.0201(2) 0.8128(2)
H16 H 0.5054(3) 0.0367(2) 0.8381(2)
Tb1B Tb 0.43234(2) -0.466440(10) 0.816430(10)
Tb1B_2 Tb 0.43234(2) 0.533560(10) 0.816430(10)
Tb1D Tb 0.43234(2) -0.033560(10) 0.316430(10)
O1B O 0.3014(3) -0.3997(2) 0.7484(2)
O2B O 0.2524(3) -0.3129(2) 0.6819(2)
O3B O 0.5078(3) -0.3479(1) 0.7883(1)
O4B O 0.3754(3) -0.2209(2) 0.8028(1)
O5B O 0.6333(3) -0.2163(1) 0.6861(2)
O6B O 0.5010(3) -0.0891(1) 0.7051(1)
O6_2 O 0.4990(3) -0.5891(1) 0.7949(1)
O7B O 0.7159(3) -0.0422(2) 0.7304(2)
O7_2 O 0.2841(3) -0.5422(2) 0.7696(2)
O8B O 0.7585(3) -0.1165(2) 0.8115(2)
O9D O 0.2427(3) -0.0541(2) 0.3812(2)
O9B O 0.2427(3) -0.4459(2) 0.8812(2)
O10D O 0.1633(3) -0.0633(2) 0.4848(2)
O11D O 0.4603(2) -0.1010(2) 0.4217(1)
O11B O 0.4603(2) -0.3990(2) 0.9217(1)
O12D O 0.4416(3) 0.0334(2) 0.42013(13)
O12B O 0.4416(3) -0.5334(2) 0.92013(13)
O13B O 0.6523(3) -0.4695(2) 0.8403(2)
O14B O 0.5195(3) -0.4745(2) 0.7006(2)
C1B C 0.3256(4) -0.3434(2) 0.7197(2)
C2B C 0.4545(4) -0.3128(2) 0.7318(2)
C3B C 0.4453(4) -0.2364(2) 0.7439(2)
C4B C 0.5712(4) -0.2010(2) 0.7476(2)
C5B C 0.5601(4) -0.1238(2) 0.7591(2)
C6B C 0.6886(4) -0.0921(2) 0.7676(2)
C7D C 0.2511(4) -0.0629(2) 0.4439(3)
C8D C 0.3834(4) -0.0705(2) 0.4719(2)
C9D C 0.4355(4) 0.0011(2) 0.4848(2)
H1B H 0.5001(4) -0.3201(2) 0.6974(2)
H2B H 0.5793(3) -0.3331(1) 0.7961(1)
H3B H 0.4023(4) -0.2202(2) 0.7109(2)
H4B H 0.4233(3) -0.2366(2) 0.8355(1)
H5B H 0.6128(4) -0.2195(2) 0.7803(2)
H6B H 0.7120(3) -0.2199(1) 0.6977(2)
H7B H 0.5187(4) -0.1183(2) 0.7961(2)
H8B H 0.4317(3) -0.1049(1) 0.7011(1)
H8_2 H 0.5683(3) -0.6049(1) 0.7989(1)
H9D H 0.3829(4) -0.0977(2) 0.5084(2)
H10D H 0.4659(2) -0.1517(2) 0.4239(1)
H10B H 0.4659(2) -0.3483(2) 0.9239(1)
H11D H 0.3834(4) 0.0240(2) 0.5101(2)
H12D H 0.4379(3) 0.0753(2) 0.41907(13)
H12B H 0.4379(3) -0.5753(2) 0.91907(13)
H13B H 0.6705(3) -0.5176(2) 0.8473(2)
H14B H 0.7017(3) -0.4553(2) 0.8034(2)
H15B H 0.6051(3) -0.4799(2) 0.6872(2)
H16B H 0.4946(3) -0.4633(2) 0.6619(2)
O15 O 0.5396(3) 0.2401(2) 0.5716(2)
H17 H 0.5791(3) 0.2490(2) 0.5357(2)
H18 H 0.4735(3) 0.2589(2) 0.5757(2)
O16 O 0.3239(4) 0.3173(2) 0.5703(2)
H19 H 0.2873(4) 0.3269(2) 0.6096(2)
H20 H 0.3508(4) 0.3610(2) 0.5507(2)
O17 O 0.4022(4) 0.1621(2) 0.4404(2)
H21 H 0.3166(4) 0.1550(2) 0.4398(2)
H22 H 0.4126(4) 0.1870(2) 0.3998(2)
O18 O 0.1921(4) 0.1919(3) 0.5236(2)
H23 H 0.2179(4) 0.2335(3) 0.5400(2)
H24 H 0.1741(4) 0.1642(3) 0.5576(2)
O19 O 0.0741(4) 0.0583(2) 0.5705(2)
H25 H 0.0987(4) 0.0210(2) 0.5492(2)
H26 H 0.0098(4) 0.0725(2) 0.5540(2)
loop_
_geom_bond_atom_site_label_1
_geom_bond_atom_site_label_2
_geom_bond_site_symmetry_1
_geom_bond_site_symmetry_2
Tb1 O1 1_555 1_555
O1 C1 1_555 1_555
O2 C1 1_555 1_555
O3 Tb1 1_555 1_555
O4 C3 1_555 1_555
O5 C4 1_555 1_555
O6 C5 1_555 1_555
O7 C6 1_555 1_555
O8 C6 1_555 1_555
O9 Tb1 1_555 1_555
O10 C7 1_555 1_555
O11 Tb1 1_555 1_555
O12 Tb1 1_555 1_555
O13 Tb1 1_555 1_555
O14 Tb1 1_555 1_555
O15 H17 1_555 1_555
O16 H19 1_555 1_555
O17 H21 1_555 1_555
O18 H23 1_555 1_555
O19 H25 1_555 1_555
C1 C2 1_555 1_555
C2 O3 1_555 1_555
C3 C2 1_555 1_555
C4 C3 1_555 1_555
C5 C4 1_555 1_555
C6 C5 1_555 1_555
C7 O9 1_555 1_555
C8 O11 1_555 1_555
C9 O12 1_555 1_555
H1 C2 1_555 1_555
H2 O3 1_555 1_555
H3 C3 1_555 1_555
H4 O4 1_555 1_555
H5 C4 1_555 1_555
H6 O5 1_555 1_555
H7 C5 1_555 1_555
H8 O6 1_555 1_555
H9 C8 1_555 1_555
H10 O11 1_555 1_555
H11 C9 1_555 1_555
H12 O12 1_555 1_555
H13 O13 1_555 1_555
H14 O13 1_555 1_555
H15 O14 1_555 1_555
H16 O14 1_555 1_555
H18 O15 1_555 1_555
H20 O16 1_555 1_555
H22 O17 1_555 1_555
H24 O18 1_555 1_555
H26 O19 1_555 1_555
Tb1B O1B 1_555 1_555
Tb1B_2 O6 1_555 1_555
Tb1D O9D 1_555 1_555
O1B C1B 1_555 1_555
O2B C1B 1_555 1_555
O3B Tb1B 1_555 1_555
O4B C3B 1_555 1_555
O5B C4B 1_555 1_555
O6B Tb1 1_555 1_555
O6_2 Tb1B 1_555 1_555
O7B Tb1 1_555 1_555
O7_2 Tb1B 1_555 1_555
O8B C6B 1_555 1_555
O9D C7D 1_555 1_555
O9B Tb1B 1_555 1_555
O10D C7D 1_555 1_555
O11D Tb1D 1_555 1_555
O11B Tb1B 1_555 1_555
O12D Tb1D 1_555 1_555
O12B Tb1B 1_555 1_555
O13B Tb1B 1_555 1_555
O14B Tb1B 1_555 1_555
C1B C2B 1_555 1_555
C2B O3B 1_555 1_555
C3B C2B 1_555 1_555
C4B C3B 1_555 1_555
C5B O6B 1_555 1_555
C6B O7B 1_555 1_555
C7D C8D 1_555 1_555
C8D O11D 1_555 1_555
C9D C9 1_555 1_555
H1B C2B 1_555 1_555
H2B O3B 1_555 1_555
H3B C3B 1_555 1_555
H4B O4B 1_555 1_555
H5B C4B 1_555 1_555
H6B O5B 1_555 1_555
H7B C5B 1_555 1_555
H8B O6B 1_555 1_555
H8_2 O6_2 1_555 1_555
H9D C8D 1_555 1_555
H10D O11D 1_555 1_555
H10B O11B 1_555 1_555
H11D C9D 1_555 1_555
H12D O12D 1_555 1_555
H12B O12B 1_555 1_555
H13B O13B 1_555 1_555
H14B O13B 1_555 1_555
H15B O14B 1_555 1_555
H16B O14B 1_555 1_555
O7 Tb1B_2 1_555 1_555
C7 C8 1_555 1_555
C8 C9 1_555 1_555
O12D C9D 1_555 1_555
C4B C5B 1_555 1_555
C5B C6B 1_555 1_555
C8D C9D 1_555 1_555

#END
