
#######################################################################
#
#                 Cambridge Crystallographic Data Centre
#                                CCDC 
#
#######################################################################
#
# If this CIF has been generated from an entry in the Cambridge 
# Structural Database, then it will include bibliographic, chemical, 
# crystal, experimental, refinement or atomic coordinate data resulting 
# from the CCDC's data processing and validation procedures.
#
#######################################################################

data_ACOVEU
_symmetry_cell_setting           orthorhombic
_symmetry_space_group_name_H-M   'I 2 2 2'
_symmetry_Int_Tables_number      23
_space_group_name_Hall           'I 2 2'
loop_
_symmetry_equiv_pos_site_id
_symmetry_equiv_pos_as_xyz
1 x,y,z
2 -x,-y,z
3 x,-y,-z
4 -x,y,-z
5 1/2+x,1/2+y,1/2+z
6 1/2-x,1/2-y,1/2+z
7 1/2+x,1/2-y,1/2-z
8 1/2-x,1/2+y,1/2-z
_cell_length_a                   9.117(3)
_cell_length_b                   5.057(2)
_cell_length_c                   11.631(3)
_cell_angle_alpha                90
_cell_angle_beta                 90
_cell_angle_gamma                90
_cell_volume                     536.243
loop_
_atom_site_label
_atom_site_type_symbol
_atom_site_fract_x
_atom_site_fract_y
_atom_site_fract_z
Co1 Co 0.0000 0.0000 0.27859(4)
O1 O 0.0980(2) -0.2085(5) 0.14887(16)
O2 O 0.3354(2) -0.2319(4) 0.19465(15)
O3 O 0.3679(2) -0.6923(4) 0.08655(17)
H1 H 0.3479 -0.8379 0.1133
C1 C 0.2218(3) -0.3139(6) 0.1432(2)
C2 C 0.2340(3) -0.5498(6) 0.06238(19)
H2 H 0.1499 -0.6673 0.0742
Co1F Co 0.5000 -0.5000 0.22141(4)
Co1D Co 0.5000 -0.5000 -0.22141(4)
Co1B Co 0.0000 -1.0000 -0.27859(4)
O1B O 0.0980(2) -0.7915(5) -0.14887(16)
O1A O -0.0980(2) 0.2085(5) 0.14887(16)
O2B O 0.3354(2) -0.7681(4) -0.19465(15)
O2F O -0.1646(2) -0.2681(4) 0.30535(15)
O2G O 0.1646(2) 0.2681(4) 0.30535(15)
O3B O 0.3679(2) -0.3077(4) -0.08655(17)
O3F O -0.1321(2) 0.1923(4) 0.41345(17)
O3G O 0.1321(2) -0.1923(4) 0.41345(17)
H1B H 0.3479 -0.1621 -0.1133
H1F H -0.1521 0.3379 0.3867
H1G H 0.1521 -0.3379 0.3867
C1B C 0.2218(3) -0.6861(6) -0.1432(2)
C2B C 0.2340(3) -0.4502(6) -0.06238(19)
H2B H 0.1499 -0.3327 -0.0742
loop_
_geom_bond_atom_site_label_1
_geom_bond_atom_site_label_2
_geom_bond_site_symmetry_1
_geom_bond_site_symmetry_2
Co1 O1 1_555 1_555
O1 C1 1_555 1_555
O2 C1 1_555 1_555
O3 H1 1_555 1_555
C1 C2 1_555 1_555
C2 O3 1_555 1_555
H2 C2 1_555 1_555
Co1F O2 1_555 1_555
Co1D O2B 1_555 1_555
Co1B O1B 1_555 1_555
O1B C1B 1_555 1_555
O1A Co1 1_555 1_555
O2B C1B 1_555 1_555
O2F Co1 1_555 1_555
O2G Co1 1_555 1_555
O3B Co1D 1_555 1_555
O3F Co1 1_555 1_555
O3G Co1 1_555 1_555
H1B O3B 1_555 1_555
H1F O3F 1_555 1_555
H1G O3G 1_555 1_555
C1B C2B 1_555 1_555
C2B C2 1_555 1_555
H2B C2B 1_555 1_555
O3 Co1F 1_555 1_555
O3B C2B 1_555 1_555

#END
