
#######################################################################
#
#                 Cambridge Crystallographic Data Centre
#                                CCDC 
#
#######################################################################
#
# If this CIF has been generated from an entry in the Cambridge 
# Structural Database, then it will include bibliographic, chemical, 
# crystal, experimental, refinement or atomic coordinate data resulting 
# from the CCDC's data processing and validation procedures.
#
#######################################################################

data_ACOYEY
_symmetry_cell_setting           monoclinic
_symmetry_space_group_name_H-M   'C 2/c'
_symmetry_Int_Tables_number      15
_space_group_name_Hall           '-C 2yn'
loop_
_symmetry_equiv_pos_site_id
_symmetry_equiv_pos_as_xyz
1 x,y,z
2 -x,y,1/2-z
3 1/2+x,1/2+y,z
4 1/2-x,1/2+y,1/2-z
5 -x,-y,-z
6 x,-y,1/2+z
7 1/2-x,1/2-y,-z
8 1/2+x,1/2-y,1/2+z
_cell_length_a                   24.0674(3)
_cell_length_b                   5.1499(1)
_cell_length_c                   15.5647(2)
_cell_angle_alpha                90
_cell_angle_beta                 97.626(1)
_cell_angle_gamma                90
_cell_volume                     1912.1
loop_
_atom_site_label
_atom_site_type_symbol
_atom_site_fract_x
_atom_site_fract_y
_atom_site_fract_z
C1 C 0.20212(7) 0.8969(4) 0.61463(11)
C2 C 0.12094(7) 0.6079(4) 0.62395(11)
C3 C 0.21596(8) 1.0512(4) 0.46379(11)
H1 H 0.1933 0.9167 0.4396
C4 C 0.22583(7) 1.0791(4) 0.55372(11)
C5 C 0.26052(7) 1.2786(4) 0.58938(11)
H2 H 0.2678 1.2970 0.6493
C6 C 0.06506(9) 0.5682(4) 0.58949(13)
H3 H 0.0491 0.6653 0.5422
C7 C 0.14242(8) 0.4574(4) 0.69498(12)
H4 H 0.1794 0.4763 0.7203
C8 C 0.03389(8) 0.3865(4) 0.62538(12)
H5 H -0.0032 0.3624 0.6010
C9 C 0.10765(8) 0.2805(4) 0.72683(12)
H6 H 0.1223 0.1812 0.7744
C10 C -0.07771(9) -0.1629(5) 0.60796(13)
H7 H -0.1009(11) -0.298(5) 0.5805(16)
N1 N 0.05383(6) 0.2415(3) 0.69375(9)
N2 N 0.15109(6) 0.7913(3) 0.58327(9)
H8 H 0.1361 0.8439 0.5331
O1 O -0.04867(6) -0.2244(3) 0.67841(9)
O2 O -0.08099(7) 0.0459(3) 0.57321(10)
O3 O 0.22653(6) 0.8507(3) 0.68632(8)
Zn1 Zn 0.0000 0.01357(5) 0.7500
C1F C 0.29788(7) 1.6031(4) 0.38537(11)
C2F C 0.37906(7) 1.8921(4) 0.37605(11)
C3F C 0.28404(8) 1.4488(4) 0.53621(11)
H1F H 0.3067 1.5833 0.5604
C4F C 0.27417(7) 1.4209(4) 0.44628(11)
C5F C 0.23948(7) 1.2214(4) 0.41062(11)
H2F H 0.2322 1.2030 0.3507
C6F C 0.43494(9) 1.9318(4) 0.41051(13)
H3F H 0.4509 1.8347 0.4578
C7F C 0.35758(8) 2.0426(4) 0.30502(12)
H4F H 0.3206 2.0237 0.2797
C8F C 0.46611(8) 2.1135(4) 0.37462(12)
H5F H 0.5032 2.1376 0.3990
C9F C 0.39235(8) 2.2195(4) 0.27317(12)
H6F H 0.3777 2.3188 0.2256
C10A C 0.07771(9) -0.1629(5) 0.89204(13)
H7A H 0.1009(11) -0.298(5) 0.9195(16)
N1F N 0.44617(6) 2.2585(3) 0.30625(9)
N1A N -0.05383(6) 0.2415(3) 0.80625(9)
N2F N 0.34891(6) 1.7087(3) 0.41673(9)
H8F H 0.3639 1.6561 0.4669
O1A O 0.04867(6) -0.2244(3) 0.82159(9)
O2A O 0.08099(7) 0.0459(3) 0.92679(10)
O3F O 0.27347(6) 1.6493(3) 0.31368(8)
Zn1F Zn 0.5000 2.48643(5) 0.2500
loop_
_geom_bond_atom_site_label_1
_geom_bond_atom_site_label_2
_geom_bond_site_symmetry_1
_geom_bond_site_symmetry_2
C1 C4 1_555 1_555
C2 C6 1_555 1_555
C3 H1 1_555 1_555
C4 C3 1_555 1_555
C5 C4 1_555 1_555
H2 C5 1_555 1_555
C6 H3 1_555 1_555
C7 C2 1_555 1_555
H4 C7 1_555 1_555
C8 C6 1_555 1_555
H5 C8 1_555 1_555
C9 C7 1_555 1_555
H6 C9 1_555 1_555
C10 H7 1_555 1_555
N1 C8 1_555 1_555
N2 C1 1_555 1_555
H8 N2 1_555 1_555
O1 C10 1_555 1_555
O2 C10 1_555 1_555
O3 C1 1_555 1_555
Zn1 N1 1_555 1_555
C1F C4F 1_555 1_555
C2F C6F 1_555 1_555
C3F C5 1_555 1_555
H1F C3F 1_555 1_555
C4F C3F 1_555 1_555
C5F C3 1_555 1_555
H2F C5F 1_555 1_555
C6F H3F 1_555 1_555
C7F C2F 1_555 1_555
H4F C7F 1_555 1_555
C8F C6F 1_555 1_555
H5F C8F 1_555 1_555
C9F C7F 1_555 1_555
H6F C9F 1_555 1_555
C10A H7A 1_555 1_555
N1F C8F 1_555 1_555
N1A Zn1 1_555 1_555
N2F C1F 1_555 1_555
H8F N2F 1_555 1_555
O1A Zn1 1_555 1_555
O2A C10A 1_555 1_555
O3F C1F 1_555 1_555
Zn1F N1F 1_555 1_555
C2 N2 1_555 1_555
C9 N1 1_555 1_555
O1 Zn1 1_555 1_555
C2F N2F 1_555 1_555
C4F C5F 1_555 1_555
C9F N1F 1_555 1_555
C10A O1A 1_555 1_555

#END
