
#######################################################################
#
#                 Cambridge Crystallographic Data Centre
#                                CCDC 
#
#######################################################################
#
# If this CIF has been generated from an entry in the Cambridge 
# Structural Database, then it will include bibliographic, chemical, 
# crystal, experimental, refinement or atomic coordinate data resulting 
# from the CCDC's data processing and validation procedures.
#
#######################################################################

data_ACRNCU01
_symmetry_cell_setting           orthorhombic
_symmetry_space_group_name_H-M   'P c a 21'
_symmetry_Int_Tables_number      29
_space_group_name_Hall           'P 2c -2ac'
loop_
_symmetry_equiv_pos_site_id
_symmetry_equiv_pos_as_xyz
1 x,y,z
2 1/2-x,y,1/2+z
3 1/2+x,-y,z
4 -x,-y,1/2+z
_cell_length_a                   7.078(2)
_cell_length_b                   7.167(3)
_cell_length_c                   12.175(5)
_cell_angle_alpha                90
_cell_angle_beta                 90
_cell_angle_gamma                90
_cell_volume                     617.614
loop_
_atom_site_label
_atom_site_type_symbol
_atom_site_fract_x
_atom_site_fract_y
_atom_site_fract_z
Cu1 Cu 0.22500 0.19200 0.00000
Cu2 Cu 0.55500 0.15700 0.24200
Cl1 Cl 0.24400 0.13300 0.17900
Cl2 Cl -0.016 0.04900 -0.079
N1 N 0.283 0.42800 -0.094
C1 C 0.255 0.531 -0.170
C2 C 0.211 0.658 -0.244
C3 C 0.29300 0.65300 -0.34800
Cl2B Cl 0.484 -0.04900 -0.079
Cl1B Cl 0.74400 -0.13300 0.17900
Cl2A Cl 0.516 0.04900 0.421
C2C C 0.789 0.342 0.256
C3C C 0.70700 0.34700 0.15200
Cu2B Cu 0.05500 -0.15700 0.24200
Cu1B Cu -0.27500 -0.19200 0.00000
Cu2A Cu -0.05500 0.15700 -0.25800
Cu2C Cu 0.44500 0.84300 -0.25800
loop_
_geom_bond_atom_site_label_1
_geom_bond_atom_site_label_2
_geom_bond_site_symmetry_1
_geom_bond_site_symmetry_2
Cu1 Cl1 1_555 1_555
Cu2 Cl1 1_555 1_555
Cl1 Cu2B 1_555 1_555
Cl2 Cu1 1_555 1_555
N1 Cu1 1_555 1_555
C1 N1 1_555 1_555
C2 C1 1_555 1_555
C3 C2 1_555 1_555
Cl2B Cu1 1_555 1_555
Cl1B Cu2 1_555 1_555
Cl2A Cu2 1_555 1_555
C2C Cu2 1_555 1_555
C3C Cu2 1_555 1_555
Cu1B Cl2 1_555 1_555
Cu2A Cl2 1_555 1_555
Cu2C C2 1_555 1_555
C3 Cu2C 1_555 1_555
C2C C3C 1_555 1_555

#END
