
#######################################################################
#
#                 Cambridge Crystallographic Data Centre
#                                CCDC 
#
#######################################################################
#
# If this CIF has been generated from an entry in the Cambridge 
# Structural Database, then it will include bibliographic, chemical, 
# crystal, experimental, refinement or atomic coordinate data resulting 
# from the CCDC's data processing and validation procedures.
#
#######################################################################

data_ACUCEG
_symmetry_cell_setting           orthorhombic
_symmetry_space_group_name_H-M   'P 21 21 2'
_symmetry_Int_Tables_number      18
_space_group_name_Hall           'P 2 2ab'
loop_
_symmetry_equiv_pos_site_id
_symmetry_equiv_pos_as_xyz
1 x,y,z
2 -x,-y,z
3 1/2-x,1/2+y,-z
4 1/2+x,1/2-y,-z
_cell_length_a                   7.6251(5)
_cell_length_b                   25.4296(18)
_cell_length_c                   5.8625(4)
_cell_angle_alpha                90
_cell_angle_beta                 90
_cell_angle_gamma                90
_cell_volume                     1136.76
loop_
_atom_site_label
_atom_site_type_symbol
_atom_site_fract_x
_atom_site_fract_y
_atom_site_fract_z
Zn1 Zn 1.0000 0.5000 0.74411(7)
O1 O 1.2666(4) 0.57364(8) 0.8354(4)
C1 C 1.2135(4) 0.58136(11) 0.6414(5)
O2 O 1.1099(3) 0.54986(7) 0.5323(3)
C2 C 1.2513(4) 0.63244(9) 0.5209(5)
C3 C 1.3466(4) 0.67075(11) 0.6361(5)
C4 C 1.3225(4) 0.78591(9) 0.2370(6)
C5 C 1.1712(4) 0.88019(11) -0.2109(5)
C6 C 1.3022(3) 0.73202(10) 0.3242(5)
C7 C 1.2108(4) 0.69251(10) 0.2069(5)
N1 N 1.3515(3) 0.95087(8) 0.0570(4)
C8 C 1.1859(4) 0.64341(10) 0.3044(4)
C9 C 1.1834(4) 0.93260(11) -0.2747(6)
C10 C 1.3710(4) 0.72011(10) 0.5377(5)
C11 C 1.2492(4) 0.86274(9) -0.0102(5)
C12 C 1.2388(4) 0.80731(10) 0.0598(5)
C13 C 1.3365(4) 0.90009(11) 0.1191(5)
C14 C 1.2748(5) 0.96648(11) -0.1371(5)
H1 H 1.387(3) 0.8915(9) 0.257(5)
H2 H 1.397(4) 0.6633(11) 0.781(5)
H3 H 1.124(3) 0.6195(10) 0.228(5)
H4 H 1.435(3) 0.7466(11) 0.628(5)
H5 H 1.166(4) 0.6997(11) 0.054(5)
H6 H 1.153(4) 0.7870(12) -0.024(6)
H7 H 1.413(4) 0.8047(11) 0.321(5)
H8 H 1.281(5) 1.0055(15) -0.170(6)
H9 H 1.129(5) 0.9449(14) -0.406(7)
H10 H 1.119(5) 0.8556(14) -0.305(6)
O1A O 0.7334(4) 0.42636(8) 0.8354(4)
C1A C 0.7865(4) 0.41864(11) 0.6414(5)
O2A O 0.8901(3) 0.45014(7) 0.5323(3)
C2A C 0.7487(4) 0.36756(9) 0.5209(5)
C3A C 0.6534(4) 0.32925(11) 0.6361(5)
C4A C 0.6775(4) 0.21409(9) 0.2370(6)
C5A C 0.8288(4) 0.11981(11) -0.2109(5)
C6A C 0.6978(3) 0.26798(10) 0.3242(5)
C7A C 0.7892(4) 0.30749(10) 0.2069(5)
N1A N 0.6485(3) 0.04913(8) 0.0570(4)
C8A C 0.8141(4) 0.35659(10) 0.3044(4)
C9A C 0.8166(4) 0.06740(11) -0.2747(6)
C10A C 0.6290(4) 0.27989(10) 0.5377(5)
C11A C 0.7508(4) 0.13726(9) -0.0102(5)
C12A C 0.7612(4) 0.19269(10) 0.0598(5)
C13A C 0.6635(4) 0.09991(11) 0.1191(5)
C14A C 0.7252(5) 0.03352(11) -0.1371(5)
H1A H 0.613(3) 0.1085(9) 0.257(5)
H2A H 0.603(4) 0.3367(11) 0.781(5)
H3A H 0.876(3) 0.3805(10) 0.228(5)
H4A H 0.565(3) 0.2534(11) 0.628(5)
H5A H 0.834(4) 0.3003(11) 0.054(5)
H6A H 0.847(4) 0.2130(12) -0.024(6)
H7A H 0.587(4) 0.1953(11) 0.321(5)
H8A H 0.719(5) -0.0055(15) -0.170(6)
H9A H 0.871(5) 0.0551(14) -0.406(7)
H10A H 0.881(5) 0.1444(14) -0.305(6)
N1B N 1.1485(3) 0.45087(8) 0.9430(4)
N1C N 0.8515(3) 0.54913(8) 0.9430(4)
Zn1B Zn 1.5000 1.0000 0.25589(7)
Zn1B_2 Zn 0.5000 0.0000 0.25589(7)
O3 O 1.5000 0.5000 0.6953(15)
H11 H 1.479(10) 0.526(4) 0.764(12)
H11A H 1.521(10) 0.474(4) 0.764(12)
loop_
_geom_bond_atom_site_label_1
_geom_bond_atom_site_label_2
_geom_bond_site_symmetry_1
_geom_bond_site_symmetry_2
Zn1 O2 1_555 1_555
O1 C1 1_555 1_555
C1 O2 1_555 1_555
C2 C1 1_555 1_555
C3 C2 1_555 1_555
C4 C6 1_555 1_555
C5 C9 1_555 1_555
C6 C7 1_555 1_555
C7 C8 1_555 1_555
N1 C13 1_555 1_555
C8 C2 1_555 1_555
C9 C14 1_555 1_555
C10 C3 1_555 1_555
C11 C5 1_555 1_555
C12 C4 1_555 1_555
C13 C11 1_555 1_555
C14 N1 1_555 1_555
O3 H11 1_555 1_555
H1 C13 1_555 1_555
H2 C3 1_555 1_555
H3 C8 1_555 1_555
H4 C10 1_555 1_555
H5 C7 1_555 1_555
H6 C12 1_555 1_555
H7 C4 1_555 1_555
H8 C14 1_555 1_555
H9 C9 1_555 1_555
H10 C5 1_555 1_555
H11A O3 1_555 1_555
O1A C1A 1_555 1_555
C1A O2A 1_555 1_555
O2A Zn1 1_555 1_555
C2A C1A 1_555 1_555
C3A C2A 1_555 1_555
C4A C6A 1_555 1_555
C5A C9A 1_555 1_555
C6A C7A 1_555 1_555
C7A C8A 1_555 1_555
N1A C13A 1_555 1_555
C8A C2A 1_555 1_555
C9A C14A 1_555 1_555
C10A C3A 1_555 1_555
C11A C5A 1_555 1_555
C12A C4A 1_555 1_555
C13A C11A 1_555 1_555
C14A N1A 1_555 1_555
H1A C13A 1_555 1_555
H2A C3A 1_555 1_555
H3A C8A 1_555 1_555
H4A C10A 1_555 1_555
H5A C7A 1_555 1_555
H6A C12A 1_555 1_555
H7A C4A 1_555 1_555
H8A C14A 1_555 1_555
H9A C9A 1_555 1_555
H10A C5A 1_555 1_555
N1B Zn1 1_555 1_555
N1C Zn1 1_555 1_555
Zn1B N1 1_555 1_555
Zn1B_2 N1A 1_555 1_555
C6 C10 1_555 1_555
C11 C12 1_555 1_555
C6A C10A 1_555 1_555
C11A C12A 1_555 1_555

#END
