
#######################################################################
#
#                 Cambridge Crystallographic Data Centre
#                                CCDC 
#
#######################################################################
#
# If this CIF has been generated from an entry in the Cambridge 
# Structural Database, then it will include bibliographic, chemical, 
# crystal, experimental, refinement or atomic coordinate data resulting 
# from the CCDC's data processing and validation procedures.
#
#######################################################################

data_ACUFIO
_symmetry_cell_setting           monoclinic
_symmetry_space_group_name_H-M   'P 21/n'
_symmetry_Int_Tables_number      14
_space_group_name_Hall           '-P 2yn'
loop_
_symmetry_equiv_pos_site_id
_symmetry_equiv_pos_as_xyz
1 x,y,z
2 1/2-x,1/2+y,1/2-z
3 -x,-y,-z
4 1/2+x,1/2-y,1/2+z
_cell_length_a                   3.555(4)
_cell_length_b                   18.134(14)
_cell_length_c                   10.635(8)
_cell_angle_alpha                90
_cell_angle_beta                 91.39(9)
_cell_angle_gamma                90
_cell_volume                     685.398
loop_
_atom_site_label
_atom_site_type_symbol
_atom_site_fract_x
_atom_site_fract_y
_atom_site_fract_z
Na1 Na 0.2111(4) 0.46923(8) 0.86854(13)
O1 O -0.3948(7) 0.67656(13) 0.9315(2)
O2 O -0.2645(8) 0.55622(13) 0.9086(2)
O3 O -0.3589(8) 0.67298(13) 0.3487(2)
O4 O -0.0217(8) 0.51573(13) 0.6659(2)
O5 O -0.2647(8) 0.38114(15) 0.8616(3)
H1 H -0.345(12) 0.356(2) 0.790(4)
H2 H -0.386(13) 0.362(2) 0.925(4)
N1 N -0.4598(9) 0.71077(17) 0.5494(3)
H3 H -0.569(11) 0.743(2) 0.516(3)
N2 N -0.2050(9) 0.59556(16) 0.5126(3)
H4 H -0.137(12) 0.568(2) 0.465(4)
C1 C -0.3143(10) 0.6208(2) 0.8656(3)
C2 C -0.3006(11) 0.63212(19) 0.7253(3)
C3 C -0.4372(10) 0.69718(19) 0.6756(3)
H5 H -0.5195 0.7343 0.7317
C4 C -0.3432(11) 0.66098(19) 0.4616(3)
C5 C -0.1689(11) 0.57639(19) 0.6390(3)
Na1_2 Na -0.7889(4) 0.46923(8) 0.86854(13)
Na1B Na -0.2111(4) 0.53077(8) 1.13146(13)
O2_2 O 0.7355(8) 0.55622(13) 0.9086(2)
O2B O 0.2645(8) 0.44378(13) 1.0914(2)
O5_2 O 0.7353(8) 0.38114(15) 0.8616(3)
H1_2 H 0.655(12) 0.356(2) 0.790(4)
H2_2 H 0.614(13) 0.362(2) 0.925(4)
loop_
_geom_bond_atom_site_label_1
_geom_bond_atom_site_label_2
_geom_bond_site_symmetry_1
_geom_bond_site_symmetry_2
Na1 O2 1_555 1_555
O1 C1 1_555 1_555
O2 C1 1_555 1_555
O3 C4 1_555 1_555
O4 Na1 1_555 1_555
O5 Na1 1_555 1_555
H1 O5 1_555 1_555
H2 O5 1_555 1_555
N1 H3 1_555 1_555
N2 H4 1_555 1_555
C1 C2 1_555 1_555
C2 C3 1_555 1_555
C3 N1 1_555 1_555
H5 C3 1_555 1_555
C4 N1 1_555 1_555
C5 O4 1_555 1_555
Na1_2 O2 1_555 1_555
Na1B O2 1_555 1_555
O2_2 Na1 1_555 1_555
O2B Na1 1_555 1_555
O5_2 Na1 1_555 1_555
H1_2 O5_2 1_555 1_555
H2_2 O5_2 1_555 1_555
O5 Na1_2 1_555 1_555
N2 C4 1_555 1_555
N2 C5 1_555 1_555
C2 C5 1_555 1_555
Na1B O2B 1_555 1_555

#END
