
#######################################################################
#
#                 Cambridge Crystallographic Data Centre
#                                CCDC 
#
#######################################################################
#
# If this CIF has been generated from an entry in the Cambridge 
# Structural Database, then it will include bibliographic, chemical, 
# crystal, experimental, refinement or atomic coordinate data resulting 
# from the CCDC's data processing and validation procedures.
#
#######################################################################

data_ACUGAH
_symmetry_cell_setting           monoclinic
_symmetry_space_group_name_H-M   'P 21/c'
_symmetry_Int_Tables_number      14
_space_group_name_Hall           '-P 2ybc'
loop_
_symmetry_equiv_pos_site_id
_symmetry_equiv_pos_as_xyz
1 x,y,z
2 -x,1/2+y,1/2-z
3 -x,-y,-z
4 x,1/2-y,1/2+z
_cell_length_a                   7.8301(5)
_cell_length_b                   4.9937(3)
_cell_length_c                   18.9664(13)
_cell_angle_alpha                90
_cell_angle_beta                 98.649(1)
_cell_angle_gamma                90
_cell_volume                     733.175
loop_
_atom_site_label
_atom_site_type_symbol
_atom_site_fract_x
_atom_site_fract_y
_atom_site_fract_z
Rb1 Rb 0.17757(2) 0.64681(3) 0.218739(8)
O1 O 0.23647(17) 0.1617(2) 0.30128(7)
O2 O 0.43031(17) -0.0062(3) 0.38856(7)
O3 O 0.03456(16) 0.5961(2) 0.34235(6)
O4 O 0.14982(16) 0.8693(2) 0.57082(6)
O5 O 0.55741(19) 0.6081(3) 0.31307(8)
H1 H 0.606(4) 0.646(5) 0.2805(16)
H2 H 0.506(4) 0.743(6) 0.3298(15)
N1 N 0.10209(18) 0.7236(3) 0.45625(7)
H3 H 0.037(3) 0.843(4) 0.4475(13)
N2 N 0.29193(18) 0.4997(3) 0.53975(7)
H4 H 0.333(3) 0.485(5) 0.5802(11)
C1 C 0.3107(2) 0.1527(3) 0.36466(9)
C2 C 0.2546(2) 0.3462(3) 0.41835(9)
C3 C 0.1253(2) 0.5545(3) 0.40002(8)
C4 C 0.1803(2) 0.7085(3) 0.52519(8)
C5 C 0.3276(2) 0.3281(3) 0.48786(9)
H5 H 0.4082 0.1880 0.5011
Rb1A Rb -0.17757(2) 0.14681(3) 0.281261(8)
Rb1A_2 Rb -0.17757(2) 1.14681(3) 0.281261(8)
Rb1_2 Rb 0.17757(2) -0.35319(3) 0.218739(8)
Rb1C Rb 0.17757(2) 0.85319(3) 0.718739(8)
Rb1A_3 Rb 0.82243(2) 0.14681(3) 0.281261(8)
Rb1A_4 Rb 0.82243(2) 1.14681(3) 0.281261(8)
O1_2 O 0.23647(17) 1.1617(2) 0.30128(7)
O1A O -0.23647(17) 0.6617(2) 0.19872(7)
O3A O -0.03456(16) 0.0961(2) 0.15765(6)
O3A_2 O -0.03456(16) 1.0961(2) 0.15765(6)
O4C O 0.14982(16) 0.6307(2) 0.07082(6)
O5A O 0.44259(19) 0.1081(3) 0.18693(8)
O5A_2 O 0.44259(19) 1.1081(3) 0.18693(8)
H1A H 0.394(4) 0.146(5) 0.2195(16)
H1A_2 H 0.394(4) 1.146(5) 0.2195(16)
H2A H 0.494(4) 0.243(6) 0.1702(15)
H2A_2 H 0.494(4) 1.243(6) 0.1702(15)
loop_
_geom_bond_atom_site_label_1
_geom_bond_atom_site_label_2
_geom_bond_site_symmetry_1
_geom_bond_site_symmetry_2
Rb1 O1 1_555 1_555
O1 C1 1_555 1_555
O2 C1 1_555 1_555
O3 Rb1 1_555 1_555
O4 C4 1_555 1_555
O5 Rb1 1_555 1_555
H1 O5 1_555 1_555
H2 O5 1_555 1_555
N1 H3 1_555 1_555
N2 H4 1_555 1_555
C1 C2 1_555 1_555
C2 C3 1_555 1_555
C3 O3 1_555 1_555
C4 N1 1_555 1_555
C5 N2 1_555 1_555
H5 C5 1_555 1_555
Rb1A O1 1_555 1_555
Rb1A_2 O3 1_555 1_555
Rb1_2 O1 1_555 1_555
Rb1C O4 1_555 1_555
Rb1A_3 O5 1_555 1_555
Rb1A_4 O5 1_555 1_555
O1_2 Rb1 1_555 1_555
O1A Rb1 1_555 1_555
O3A Rb1 1_555 1_555
O3A_2 Rb1 1_555 1_555
O4C Rb1 1_555 1_555
O5A Rb1 1_555 1_555
O5A_2 Rb1 1_555 1_555
H1A O5A 1_555 1_555
H1A_2 O5A_2 1_555 1_555
H2A O5A 1_555 1_555
H2A_2 O5A_2 1_555 1_555
O3 Rb1A 1_555 1_555
N1 C3 1_555 1_555
N2 C4 1_555 1_555
C2 C5 1_555 1_555
Rb1A O1A 1_555 1_555
Rb1A O3A 1_555 1_555
Rb1A_2 O1_2 1_555 1_555
Rb1A_2 O1A 1_555 1_555
Rb1A_2 O3A_2 1_555 1_555
Rb1_2 O3A 1_555 1_555
Rb1_2 O5A 1_555 1_555
Rb1A_3 O5A 1_555 1_555
Rb1A_4 O5A_2 1_555 1_555

#END
