
#######################################################################
#
#                 Cambridge Crystallographic Data Centre
#                                CCDC 
#
#######################################################################
#
# If this CIF has been generated from an entry in the Cambridge 
# Structural Database, then it will include bibliographic, chemical, 
# crystal, experimental, refinement or atomic coordinate data resulting 
# from the CCDC's data processing and validation procedures.
#
#######################################################################

data_ACUQUK
_symmetry_cell_setting           monoclinic
_symmetry_space_group_name_H-M   'C 2/c'
_symmetry_Int_Tables_number      15
_space_group_name_Hall           '-C 2yn'
loop_
_symmetry_equiv_pos_site_id
_symmetry_equiv_pos_as_xyz
1 x,y,z
2 1/2+x,1/2+y,z
3 x,-y,1/2+z
4 1/2+x,1/2-y,1/2+z
5 -x,-y,-z
6 1/2-x,1/2-y,-z
7 -x,y,1/2-z
8 1/2-x,1/2+y,1/2-z
_cell_length_a                   24.0654(6)
_cell_length_b                   5.1239(1)
_cell_length_c                   13.9276(2)
_cell_angle_alpha                90
_cell_angle_beta                 110.757(1)
_cell_angle_gamma                90
_cell_volume                     1605.92
loop_
_atom_site_label
_atom_site_type_symbol
_atom_site_fract_x
_atom_site_fract_y
_atom_site_fract_z
Ag1 Ag 0.0000 0.0000 0.0000
O3 O -0.20160(9) -0.2368(3) -0.34653(14)
N1 N -0.06955(9) -0.3008(4) -0.05949(15)
C1 C -0.07715(12) -0.4887(4) 0.0023(2)
H1 H -0.0525 -0.4891 0.0710
C2 C -0.11990(11) -0.6807(5) -0.03192(19)
H2 H -0.1240 -0.8070 0.0131
C3 C -0.15666(10) -0.6824(5) -0.13435(18)
H3 H -0.1853 -0.8119 -0.1594
C4 C -0.15011(11) -0.4879(4) -0.19892(19)
C5 C -0.10593(10) -0.3023(5) -0.15820(17)
H4 H -0.1013 -0.1725 -0.2015
C6 C -0.19071(11) -0.4567(4) -0.30880(19)
C7 C -0.26013(12) -0.6717(5) -0.46309(18)
H5 H -0.2677 -0.4930 -0.4871
H6 H -0.2969 -0.7444 -0.4611
N2 N -0.21507(10) -0.6746(4) -0.35944(15)
H7 H -0.2038 -0.8226 -0.3299
C7E C -0.23987(12) -0.8283(5) -0.53691(18)
H5E H -0.2323 -1.0070 -0.5129
H6E H -0.2031 -0.7556 -0.5389
N2E N -0.28493(10) -0.8254(4) -0.64056(15)
C6E C -0.30929(11) -1.0433(4) -0.69120(19)
O3E O -0.29840(9) -1.2632(3) -0.65347(14)
C4E C -0.34989(11) -1.0121(4) -0.80108(19)
C3E C -0.34334(10) -0.8176(5) -0.86565(18)
C2E C -0.38010(11) -0.8193(5) -0.96808(19)
C1E C -0.42285(12) -1.0113(4) -1.0023(2)
N1E N -0.43045(9) -1.1992(4) -0.94051(15)
C5E C -0.39407(10) -1.1977(5) -0.84180(17)
H4E H -0.3987 -1.3275 -0.7985
H1E H -0.4475 -1.0109 -1.0710
H2E H -0.3760 -0.6930 -1.0131
H3E H -0.3147 -0.6881 -0.8406
H7E H -0.2962 -0.6774 -0.6701
N1D N 0.06955(9) 0.3008(4) 0.05949(15)
Ag1A Ag -0.5000 -1.5000 -1.0000
Cl1 Cl 0.0000 -0.08795(18) 0.2500
O1 O -0.03943(14) 0.0727(6) 0.1725(2)
O2 O 0.03288(10) -0.2454(4) 0.20424(18)
O1F O 0.03943(14) 0.0727(6) 0.3275(2)
O2F O -0.03288(10) -0.2454(4) 0.29576(18)
loop_
_geom_bond_atom_site_label_1
_geom_bond_atom_site_label_2
_geom_bond_site_symmetry_1
_geom_bond_site_symmetry_2
Ag1 N1 1_555 1_555
Cl1 O1 1_555 1_555
O2 Cl1 1_555 1_555
O3 C6 1_555 1_555
N1 C1 1_555 1_555
C1 H1 1_555 1_555
C2 C1 1_555 1_555
H2 C2 1_555 1_555
C3 C2 1_555 1_555
H3 C3 1_555 1_555
C4 C3 1_555 1_555
C5 N1 1_555 1_555
H4 C5 1_555 1_555
C6 C4 1_555 1_555
C7 H5 1_555 1_555
H6 C7 1_555 1_555
N2 C6 1_555 1_555
H7 N2 1_555 1_555
O1F Cl1 1_555 1_555
O2F Cl1 1_555 1_555
C7E C7 1_555 1_555
H5E C7E 1_555 1_555
H6E C7E 1_555 1_555
N2E C7E 1_555 1_555
C6E N2E 1_555 1_555
O3E C6E 1_555 1_555
C4E C6E 1_555 1_555
C3E C4E 1_555 1_555
C2E C3E 1_555 1_555
C1E C2E 1_555 1_555
N1E C1E 1_555 1_555
C5E C4E 1_555 1_555
H4E C5E 1_555 1_555
H1E C1E 1_555 1_555
H2E C2E 1_555 1_555
H3E C3E 1_555 1_555
H7E N2E 1_555 1_555
N1D Ag1 1_555 1_555
Ag1A N1E 1_555 1_555
C4 C5 1_555 1_555
C7 N2 1_555 1_555
N1E C5E 1_555 1_555

#END
