
#######################################################################
#
#                 Cambridge Crystallographic Data Centre
#                                CCDC 
#
#######################################################################
#
# If this CIF has been generated from an entry in the Cambridge 
# Structural Database, then it will include bibliographic, chemical, 
# crystal, experimental, refinement or atomic coordinate data resulting 
# from the CCDC's data processing and validation procedures.
#
#######################################################################

data_ACURUL
_symmetry_cell_setting           triclinic
_symmetry_space_group_name_H-M   'P -1'
_symmetry_Int_Tables_number      2
_space_group_name_Hall           '-P 1'
loop_
_symmetry_equiv_pos_site_id
_symmetry_equiv_pos_as_xyz
1 x,y,z
2 -x,-y,-z
_cell_length_a                   7.1569(2)
_cell_length_b                   10.6650(2)
_cell_length_c                   13.2643(2)
_cell_angle_alpha                88.4960(10)
_cell_angle_beta                 88.8160(10)
_cell_angle_gamma                76.8810(10)
_cell_volume                     985.566
loop_
_atom_site_label
_atom_site_type_symbol
_atom_site_fract_x
_atom_site_fract_y
_atom_site_fract_z
Ag1 Ag 0.21314(6) 0.36950(4) 0.44492(3)
O1 O 0.2929(6) 0.5885(4) 0.4253(3)
O2 O 0.1463(6) 1.1544(3) 0.4195(3)
N1 N 0.2104(6) 0.4571(4) 0.5937(3)
N2 N 0.2379(6) 1.3222(4) 0.2808(3)
N3 N 0.3338(6) 0.7541(4) 0.5140(3)
H1 H 0.3448 0.7827 0.5731
N4 N 0.1872(6) 0.9981(3) 0.3060(3)
H2 H 0.2082 0.9782 0.2437
C1 C 0.1783(8) 0.3925(5) 0.6780(4)
H3 H 0.1422 0.3146 0.6716
C2 C 0.1959(9) 0.4352(6) 0.7723(4)
H4 H 0.1716 0.3874 0.8288
C3 C 0.2494(8) 0.5480(6) 0.7831(4)
H5 H 0.2630 0.5788 0.8469
C4 C 0.2832(7) 0.6162(5) 0.6974(4)
H6 H 0.3200 0.6939 0.7032
C5 C 0.2627(6) 0.5702(4) 0.6043(3)
C6 C 0.2962(7) 0.6384(4) 0.5064(4)
C7 C 0.3570(8) 0.8344(5) 0.4258(4)
H7 H 0.4364 0.7818 0.3756
H8 H 0.4221 0.9003 0.4453
C8 C 0.1663(7) 0.8978(4) 0.3803(4)
H9 H 0.1133 0.8333 0.3479
H10 H 0.0775 0.9356 0.4333
C9 C 0.1746(7) 1.1193(4) 0.3327(4)
C10 C 0.2007(7) 1.2124(4) 0.2491(3)
C11 C 0.1860(10) 1.1912(5) 0.1491(4)
H11 H 0.1563 1.1154 0.1286
C12 C 0.2150(11) 1.2821(6) 0.0783(4)
H12 H 0.2053 1.2686 0.0098
C13 C 0.2583(10) 1.3928(5) 0.1110(5)
H13 H 0.2821 1.4548 0.0650
C14 C 0.2659(8) 1.4106(5) 0.2125(4)
H14 H 0.2915 1.4870 0.2347
O2_2 O 0.1463(6) 0.1544(3) 0.4195(3)
N2_2 N 0.2379(6) 0.3222(4) 0.2808(3)
Ag1_2 Ag 0.21314(6) 1.36950(4) 0.44492(3)
Cl1 Cl 0.2586(2) 0.76455(12) 0.08821(11)
O3 O 0.1028(10) 0.7271(8) 0.1385(7)
O4 O 0.4320(12) 0.6940(10) 0.1306(8)
O5 O 0.2391(16) 0.8969(8) 0.0959(9)
O6 O 0.2604(17) 0.7329(11) -0.0163(6)
C15 C 0.7034(13) -0.0309(10) 0.1381(7)
H15 H 0.7632 -0.1211 0.1405
H16 H 0.7791 0.0139 0.0963
H17 H 0.5773 -0.0188 0.1107
C16 C 0.6893(9) 0.0189(6) 0.2383(5)
N5 N 0.6762(10) 0.0601(6) 0.3154(5)
O7? O 0.346(3) 0.693(2) 0.0177(15)
O8? O 0.386(2) 0.795(2) 0.1632(14)
O9? O 0.159(3) 0.8992(15) 0.0512(16)
O10? O 0.326(3) 0.8755(15) 0.1030(15)
O11? O 0.436(2) 0.6603(16) 0.0704(16)
O12? O 0.150(3) 0.7670(18) 0.0035(12)
O13? O 0.174(3) 0.726(2) 0.1758(12)
loop_
_geom_bond_atom_site_label_1
_geom_bond_atom_site_label_2
_geom_bond_site_symmetry_1
_geom_bond_site_symmetry_2
Ag1 O1 1_555 1_555
O1 C6 1_555 1_555
O2 C9 1_555 1_555
N1 Ag1 1_555 1_555
N2 C10 1_555 1_555
N3 H1 1_555 1_555
N4 H2 1_555 1_555
C1 N1 1_555 1_555
H3 C1 1_555 1_555
C2 C1 1_555 1_555
H4 C2 1_555 1_555
C3 C2 1_555 1_555
H5 C3 1_555 1_555
C4 C3 1_555 1_555
H6 C4 1_555 1_555
C5 N1 1_555 1_555
C6 N3 1_555 1_555
C7 N3 1_555 1_555
H7 C7 1_555 1_555
H8 C7 1_555 1_555
C8 N4 1_555 1_555
H9 C8 1_555 1_555
H10 C8 1_555 1_555
C9 N4 1_555 1_555
C10 C9 1_555 1_555
C11 C10 1_555 1_555
H11 C11 1_555 1_555
C12 C11 1_555 1_555
H12 C12 1_555 1_555
C13 C12 1_555 1_555
H13 C13 1_555 1_555
C14 N2 1_555 1_555
H14 C14 1_555 1_555
Cl1 O3 1_555 1_555
O4 Cl1 1_555 1_555
O5 Cl1 1_555 1_555
O6 Cl1 1_555 1_555
C15 H15 1_555 1_555
H16 C15 1_555 1_555
H17 C15 1_555 1_555
C16 C15 1_555 1_555
N5 C16 1_555 1_555
O2_2 Ag1 1_555 1_555
N2_2 Ag1 1_555 1_555
Ag1_2 O2 1_555 1_555
N2 Ag1_2 1_555 1_555
C4 C5 1_555 1_555
C5 C6 1_555 1_555
C7 C8 1_555 1_555
C13 C14 1_555 1_555

#END
