
#######################################################################
#
#                 Cambridge Crystallographic Data Centre
#                                CCDC 
#
#######################################################################
#
# If this CIF has been generated from an entry in the Cambridge 
# Structural Database, then it will include bibliographic, chemical, 
# crystal, experimental, refinement or atomic coordinate data resulting 
# from the CCDC's data processing and validation procedures.
#
#######################################################################

data_ACURAR
_symmetry_cell_setting           triclinic
_symmetry_space_group_name_H-M   'P -1'
_symmetry_Int_Tables_number      2
_space_group_name_Hall           '-P 1'
loop_
_symmetry_equiv_pos_site_id
_symmetry_equiv_pos_as_xyz
1 x,y,z
2 -x,-y,-z
_cell_length_a                   9.1297(1)
_cell_length_b                   9.6318(1)
_cell_length_c                   9.8647(1)
_cell_angle_alpha                86.833(1)
_cell_angle_beta                 87.100(1)
_cell_angle_gamma                89.493(1)
_cell_volume                     865.007
loop_
_atom_site_label
_atom_site_type_symbol
_atom_site_fract_x
_atom_site_fract_y
_atom_site_fract_z
Ag1 Ag 0.48153(2) 0.497689(16) 0.247036(16)
S1 S 0.06453(7) 0.59077(6) 0.23022(6)
O1 O 0.72147(18) 0.06785(18) -0.22514(16)
O2 O 0.27562(18) 0.92010(18) 0.72522(16)
O3 O -0.0132(2) 0.69171(19) 0.3088(2)
O4 O 0.0683(3) 0.6153(3) 0.0869(2)
O5 O 0.2023(2) 0.5462(2) 0.2832(3)
C1 C 0.3402(3) 0.3371(3) 0.0280(2)
H1 H 0.263(3) 0.392(3) 0.054(3)
C2 C 0.3249(3) 0.2455(3) -0.0730(3)
H2 H 0.236(4) 0.237(3) -0.109(3)
C3 C 0.4440(3) 0.1671(3) -0.1157(2)
H3 H 0.439(3) 0.102(3) -0.179(3)
C4 C 0.5780(2) 0.1827(2) -0.0554(2)
C5 C 0.5846(3) 0.2772(2) 0.0450(2)
H4 H 0.675(3) 0.284(3) 0.081(3)
C6 C 0.7103(2) 0.1029(2) -0.1061(2)
N1 N 0.4692(2) 0.3534(2) 0.0877(2)
C7 C 0.9495(3) 0.0050(3) -0.0583(2)
H5 H 0.996(3) 0.065(3) -0.133(3)
H6 H 0.928(3) -0.080(3) -0.085(3)
C8 C 0.6531(3) 0.6627(3) 0.4528(3)
H7 H 0.732(3) 0.616(3) 0.423(3)
C9 C 0.6731(3) 0.7549(3) 0.5525(3)
H8 H 0.763(4) 0.769(3) 0.572(3)
C10 C 0.5552(3) 0.8296(3) 0.6039(2)
H9 H 0.563(3) 0.898(3) 0.667(3)
C11 C 0.4179(2) 0.8097(2) 0.5512(2)
C12 C 0.4057(3) 0.7146(2) 0.4522(2)
H10 H 0.308(3) 0.704(3) 0.422(3)
C13 C 0.2858(3) 0.8870(2) 0.6055(2)
N2 N 0.5209(2) 0.6409(2) 0.4024(2)
C14 C 0.0467(3) 0.9870(3) 0.5606(2)
H11 H 0.075(3) 1.072(3) 0.598(3)
H12 H -0.007(3) 0.923(3) 0.629(3)
C15 C -0.0450(3) 0.4328(3) 0.2625(3)
F1 F -0.0613(2) 0.3990(2) 0.39380(18)
F2 F -0.17894(17) 0.45088(19) 0.2161(2)
F3 F 0.01571(18) 0.32440(15) 0.20220(17)
N3 N 0.8125(2) 0.0721(2) -0.0169(2)
H13 H 0.799(3) 0.085(3) 0.051(3)
N4 N 0.1822(2) 0.9172(2) 0.5177(2)
H14 H 0.199(3) 0.907(3) 0.447(3)
C7A C 1.0505(3) -0.0050(3) 0.0583(2)
H5A H 1.004(3) -0.065(3) 0.133(3)
H6A H 1.072(3) 0.080(3) 0.085(3)
N3A N 1.1875(2) -0.0721(2) 0.0169(2)
C6A C 1.2897(2) -0.1029(2) 0.1061(2)
O1A O 1.27853(18) -0.06785(18) 0.22514(16)
C4A C 1.4220(2) -0.1827(2) 0.0554(2)
C3A C 1.5560(3) -0.1671(3) 0.1157(2)
C2A C 1.6751(3) -0.2455(3) 0.0730(3)
C1A C 1.6598(3) -0.3371(3) -0.0280(2)
H1A H 1.737(3) -0.392(3) -0.054(3)
N1A N 1.5308(2) -0.3534(2) -0.0877(2)
C5A C 1.4154(3) -0.2772(2) -0.0450(2)
H4A H 1.325(3) -0.284(3) -0.081(3)
H2A H 1.764(4) -0.237(3) 0.109(3)
H3A H 1.561(3) -0.102(3) 0.179(3)
H13A H 1.201(3) -0.085(3) -0.051(3)
C14A C -0.0467(3) 1.0130(3) 0.4394(2)
H11A H -0.075(3) 0.928(3) 0.402(3)
H12A H 0.007(3) 1.077(3) 0.371(3)
N4A N -0.1822(2) 1.0828(2) 0.4823(2)
C13A C -0.2858(3) 1.1130(2) 0.3945(2)
O2A O -0.27562(18) 1.07990(18) 0.27478(16)
C11A C -0.4179(2) 1.1903(2) 0.4488(2)
C10A C -0.5552(3) 1.1704(3) 0.3961(2)
C9A C -0.6731(3) 1.2451(3) 0.4475(3)
C8A C -0.6531(3) 1.3373(3) 0.5472(3)
H7A H -0.732(3) 1.384(3) 0.577(3)
N2A N -0.5209(2) 1.3591(2) 0.5976(2)
C12A C -0.4057(3) 1.2854(2) 0.5478(2)
H10A H -0.308(3) 1.296(3) 0.578(3)
H8A H -0.763(4) 1.231(3) 0.428(3)
H9A H -0.563(3) 1.102(3) 0.333(3)
H14A H -0.199(3) 1.093(3) 0.553(3)
Ag1A Ag 1.51847(2) -0.497689(16) -0.247036(16)
S1A S 1.93547(7) -0.59077(6) -0.23022(6)
O3A O 2.0132(2) -0.69171(19) -0.3088(2)
O4A O 1.9317(3) -0.6153(3) -0.0869(2)
O5A O 1.7977(2) -0.5462(2) -0.2832(3)
C15A C 2.0450(3) -0.4328(3) -0.2625(3)
F1A F 2.0613(2) -0.3990(2) -0.39380(18)
F2A F 2.17894(17) -0.45088(19) -0.2161(2)
F3A F 1.98429(18) -0.32440(15) -0.20220(17)
Ag1A_2 Ag -0.48153(2) 1.502311(16) 0.752964(16)
N2A_2 N 1.4791(2) -0.6409(2) -0.4024(2)
loop_
_geom_bond_atom_site_label_1
_geom_bond_atom_site_label_2
_geom_bond_site_symmetry_1
_geom_bond_site_symmetry_2
Ag1 O5 1_555 1_555
S1 O3 1_555 1_555
O1 C6 1_555 1_555
O2 C13 1_555 1_555
O4 S1 1_555 1_555
O5 S1 1_555 1_555
C1 H1 1_555 1_555
C2 C1 1_555 1_555
H2 C2 1_555 1_555
C3 C2 1_555 1_555
H3 C3 1_555 1_555
C4 C3 1_555 1_555
C5 C4 1_555 1_555
H4 C5 1_555 1_555
C6 C4 1_555 1_555
N1 Ag1 1_555 1_555
C7 H5 1_555 1_555
H6 C7 1_555 1_555
C8 H7 1_555 1_555
C9 C8 1_555 1_555
H8 C9 1_555 1_555
C10 C9 1_555 1_555
H9 C10 1_555 1_555
C11 C10 1_555 1_555
C12 C11 1_555 1_555
H10 C12 1_555 1_555
C13 C11 1_555 1_555
N2 Ag1 1_555 1_555
C14 H11 1_555 1_555
H12 C14 1_555 1_555
C15 S1 1_555 1_555
F1 C15 1_555 1_555
F2 C15 1_555 1_555
F3 C15 1_555 1_555
N3 C6 1_555 1_555
H13 N3 1_555 1_555
N4 C13 1_555 1_555
H14 N4 1_555 1_555
C7A C7 1_555 1_555
H5A C7A 1_555 1_555
H6A C7A 1_555 1_555
N3A C7A 1_555 1_555
C6A N3A 1_555 1_555
O1A C6A 1_555 1_555
C4A C6A 1_555 1_555
C3A C4A 1_555 1_555
C2A C3A 1_555 1_555
C1A C2A 1_555 1_555
H1A C1A 1_555 1_555
N1A C1A 1_555 1_555
C5A C4A 1_555 1_555
H4A C5A 1_555 1_555
H2A C2A 1_555 1_555
H3A C3A 1_555 1_555
H13A N3A 1_555 1_555
C14A C14 1_555 1_555
H11A C14A 1_555 1_555
H12A C14A 1_555 1_555
N4A C14A 1_555 1_555
C13A N4A 1_555 1_555
O2A C13A 1_555 1_555
C11A C13A 1_555 1_555
C10A C11A 1_555 1_555
C9A C10A 1_555 1_555
C8A C9A 1_555 1_555
H7A C8A 1_555 1_555
N2A C8A 1_555 1_555
C12A C11A 1_555 1_555
H10A C12A 1_555 1_555
H8A C9A 1_555 1_555
H9A C10A 1_555 1_555
H14A N4A 1_555 1_555
Ag1A N1A 1_555 1_555
S1A O3A 1_555 1_555
O4A S1A 1_555 1_555
O5A Ag1A 1_555 1_555
C15A S1A 1_555 1_555
F1A C15A 1_555 1_555
F2A C15A 1_555 1_555
F3A C15A 1_555 1_555
Ag1A_2 N2A 1_555 1_555
N2A_2 Ag1A 1_555 1_555
C1 N1 1_555 1_555
C5 N1 1_555 1_555
C7 N3 1_555 1_555
C8 N2 1_555 1_555
C12 N2 1_555 1_555
C14 N4 1_555 1_555
N1A C5A 1_555 1_555
N2A C12A 1_555 1_555
S1A O5A 1_555 1_555

#END
