
#######################################################################
#
#                 Cambridge Crystallographic Data Centre
#                                CCDC 
#
#######################################################################
#
# If this CIF has been generated from an entry in the Cambridge 
# Structural Database, then it will include bibliographic, chemical, 
# crystal, experimental, refinement or atomic coordinate data resulting 
# from the CCDC's data processing and validation procedures.
#
#######################################################################

data_ADADEP
_symmetry_cell_setting           monoclinic
_symmetry_space_group_name_H-M   'P 21/m'
_symmetry_Int_Tables_number      11
_space_group_name_Hall           '-P 2yb'
loop_
_symmetry_equiv_pos_site_id
_symmetry_equiv_pos_as_xyz
1 x,y,z
2 -x,1/2+y,-z
3 -x,-y,-z
4 x,1/2-y,z
_cell_length_a                   7.4101(10)
_cell_length_b                   14.7889(18)
_cell_length_c                   9.8821(14)
_cell_angle_alpha                90
_cell_angle_beta                 109.491(3)
_cell_angle_gamma                90
_cell_volume                     1020.89
loop_
_atom_site_label
_atom_site_type_symbol
_atom_site_fract_x
_atom_site_fract_y
_atom_site_fract_z
Ni1 Ni 0.49145(4) 0.2500 0.75135(2)
O1 O 1.0321(3) 0.2500 1.0652(3)
O2 O -0.0481(3) 0.2500 0.4334(3)
N1 N 0.78590(19) 0.48316(9) 0.69871(14)
N2 N 0.7393(2) 0.45683(10) 0.55896(15)
N3 N 0.64185(19) 0.35394(9) 0.68737(14)
N4 N 1.19030(19) 0.48280(9) 0.79453(14)
N5 N 1.2299(2) 0.45722(11) 0.93403(15)
N6 N 1.33823(19) 0.35410(9) 0.81281(14)
N7 N 0.6936(3) 0.2500 0.9592(2)
N8 N 0.2896(3) 0.2500 0.5449(2)
C1 C 0.6523(3) 0.37882(12) 0.55795(17)
H1 H 0.6013 0.3431 0.4738
C2 C 0.7284(2) 0.42120(11) 0.77261(17)
H2 H 0.7468 0.4247 0.8723
C3 C 1.3188(3) 0.37943(12) 0.93910(18)
H3 H 1.3653 0.3441 1.0240
C4 C 1.2547(2) 0.42072(10) 0.72509(17)
H4 H 1.2426 0.4237 0.6264
C5 C 0.8892(2) 0.56666(10) 0.75231(18)
H5 H 0.9016 0.5746 0.8545
H6 H 0.8154 0.6185 0.6978
C6 C 1.0880(2) 0.56599(10) 0.73818(18)
H7 H 1.0758 0.5724 0.6358
H8 H 1.1623 0.6182 0.7910
C7 C 0.8613(4) 0.2500 1.0093(2)
C8 C 0.1234(4) 0.2500 0.4915(2)
Ni1_2 Ni 1.49145(4) 0.2500 0.75135(2)
N1C N 0.78590(19) 0.01684(9) 0.69871(14)
N2C N 0.7393(2) 0.04317(10) 0.55896(15)
N3C N 0.64185(19) 0.14606(9) 0.68737(14)
N4C N 1.19030(19) 0.01720(9) 0.79453(14)
N5C N 1.2299(2) 0.04278(11) 0.93403(15)
N6C N 1.33823(19) 0.14590(9) 0.81281(14)
N6_2 N 0.33823(19) 0.35410(9) 0.81281(14)
N6C_2 N 0.33823(19) 0.14590(9) 0.81281(14)
C1C C 0.6523(3) 0.12118(12) 0.55795(17)
H1C H 0.6013 0.1569 0.4738
C2C C 0.7284(2) 0.07880(11) 0.77261(17)
H2C H 0.7468 0.0753 0.8723
C3C C 1.3188(3) 0.12057(12) 0.93910(18)
H3C H 1.3653 0.1559 1.0240
C4C C 1.2547(2) 0.07928(10) 0.72509(17)
H4C H 1.2426 0.0763 0.6264
C5C C 0.8892(2) -0.06666(10) 0.75231(18)
H5C H 0.9016 -0.0746 0.8545
H6C H 0.8154 -0.1185 0.6978
C6C C 1.0880(2) -0.06599(10) 0.73818(18)
H7C H 1.0758 -0.0724 0.6358
H8C H 1.1623 -0.1182 0.7910
O3 O -0.4118(3) 0.2500 0.2254(3)
loop_
_geom_bond_atom_site_label_1
_geom_bond_atom_site_label_2
_geom_bond_site_symmetry_1
_geom_bond_site_symmetry_2
Ni1 N3 1_555 1_555
O1 C7 1_555 1_555
O2 C8 1_555 1_555
N1 N2 1_555 1_555
N2 C1 1_555 1_555
N3 C1 1_555 1_555
N4 N5 1_555 1_555
N5 C3 1_555 1_555
N6 C3 1_555 1_555
N7 Ni1 1_555 1_555
N8 Ni1 1_555 1_555
C1 H1 1_555 1_555
C2 N1 1_555 1_555
H2 C2 1_555 1_555
C3 H3 1_555 1_555
C4 N4 1_555 1_555
H4 C4 1_555 1_555
C5 N1 1_555 1_555
H5 C5 1_555 1_555
H6 C5 1_555 1_555
C6 N4 1_555 1_555
H7 C6 1_555 1_555
H8 C6 1_555 1_555
C7 N7 1_555 1_555
C8 N8 1_555 1_555
Ni1_2 N6 1_555 1_555
N1C N2C 1_555 1_555
N2C C1C 1_555 1_555
N3C Ni1 1_555 1_555
N4C N5C 1_555 1_555
N5C C3C 1_555 1_555
N6C Ni1_2 1_555 1_555
N6_2 Ni1 1_555 1_555
N6C_2 Ni1 1_555 1_555
C1C N3C 1_555 1_555
H1C C1C 1_555 1_555
C2C N1C 1_555 1_555
H2C C2C 1_555 1_555
C3C N6C 1_555 1_555
H3C C3C 1_555 1_555
C4C N4C 1_555 1_555
H4C C4C 1_555 1_555
C5C N1C 1_555 1_555
H5C C5C 1_555 1_555
H6C C5C 1_555 1_555
C6C N4C 1_555 1_555
H7C C6C 1_555 1_555
H8C C6C 1_555 1_555
N3 C2 1_555 1_555
N6 C4 1_555 1_555
C5 C6 1_555 1_555
N3C C2C 1_555 1_555
N6C C4C 1_555 1_555
C5C C6C 1_555 1_555

#END
