
#######################################################################
#
#                 Cambridge Crystallographic Data Centre
#                                CCDC 
#
#######################################################################
#
# If this CIF has been generated from an entry in the Cambridge 
# Structural Database, then it will include bibliographic, chemical, 
# crystal, experimental, refinement or atomic coordinate data resulting 
# from the CCDC's data processing and validation procedures.
#
#######################################################################

data_ADATUW
_symmetry_cell_setting           cubic
_symmetry_space_group_name_H-M   'I 21 3'
_symmetry_Int_Tables_number      199
_space_group_name_Hall           'I 2b 2c 3'
loop_
_symmetry_equiv_pos_site_id
_symmetry_equiv_pos_as_xyz
1 x,y,z
2 1/2-x,-y,1/2+z
3 -x,1/2+y,1/2-z
4 1/2+x,1/2-y,-z
5 z,x,y
6 1/2+z,1/2-x,-y
7 1/2-z,-x,1/2+y
8 -z,1/2+x,1/2-y
9 y,z,x
10 -y,1/2+z,1/2-x
11 1/2+y,1/2-z,-x
12 1/2-y,-z,1/2+x
13 1/2+x,1/2+y,1/2+z
14 -x,1/2-y,z
15 1/2-x,y,-z
16 x,-y,1/2-z
17 1/2+z,1/2+x,1/2+y
18 z,-x,1/2-y
19 -z,1/2-x,y
20 1/2-z,x,-y
21 1/2+y,1/2+z,1/2+x
22 1/2-y,z,-x
23 y,-z,1/2-x
24 -y,1/2-z,x
_cell_length_a                   25.574(3)
_cell_length_b                   25.574(3)
_cell_length_c                   25.574(3)
_cell_angle_alpha                90
_cell_angle_beta                 90
_cell_angle_gamma                90
_cell_volume                     16726.1
loop_
_atom_site_label
_atom_site_type_symbol
_atom_site_fract_x
_atom_site_fract_y
_atom_site_fract_z
C14 C 0.1777(6) 1.1777(6) 1.1777(6)
Cl1 Cl 0.2220(2) 1.2220(2) 1.2220(2)
Cl2 Cl 0.1898(3) 1.1217(3) 1.2042(3)
Cl2D Cl 0.2042(3) 1.1898(3) 1.1217(3)
Cl2H Cl 0.1217(3) 1.2042(3) 1.1898(3)
B1 B 0.24038(17) 0.79333(19) 0.47358(18)
B1N B 0.25962(17) 0.79333(19) 0.52642(18)
C15 C 0.4466(9) 0.8436(8) 1.0151(5)
C16 C 0.4460(6) 0.8587(9) 0.9561(6)
N5 N 0.4799(5) 0.8776(6) 0.9236(5)
N6 N 0.3245(8) 0.6663(8) 1.4041(7)
C17 C 0.3275(8) 0.6884(7) 1.3588(7)
C18 C 0.3432(10) 0.6915(10) 1.3003(8)
O5 O 0.4538(11) 0.7033(11) 0.9759(10)
Ag1 Ag 0.2500 0.89133(4) 1.0000
N1 N 0.1981(3) 0.8631(2) 1.0625(3)
N2 N 0.2192(3) 0.9409(2) 1.1091(3)
H1 H 0.2146 0.9628 1.1342
N3 N 0.2540(3) 0.9519(2) 1.0706(2)
N4 N 0.4404(3) 1.0596(3) 0.9404(3)
C1 C 0.1792(4) 0.8136(4) 1.0600(4)
H2 H 0.1874 0.7918 1.0321
C2 C 0.1460(4) 0.7959(4) 1.1017(5)
H3 H 0.1270 0.7650 1.0988
C3 C 0.1430(4) 0.8288(4) 1.1499(4)
H4 H 0.1267 0.8152 1.1794
C4 C 0.1626(3) 0.8758(3) 1.1521(3)
H5 H 0.1577 0.8964 1.1816
C5 C 0.1917(4) 0.8955(4) 1.1082(4)
C6 C 0.2741(3) 1.0014(4) 1.0707(3)
C7 C 0.2512(3) 1.0402(3) 1.1132(3)
H6 H 0.2243 1.0228 1.1328
H7 H 0.2366 1.0703 1.0961
H8 H 0.2786 1.0510 1.1364
C8 C 0.3155(3) 1.0129(3) 1.0362(3)
C9 C 0.3223(3) 1.0679(3) 1.0245(3)
H9 H 0.3005 1.0930 1.0391
C10 C 0.3627(3) 1.0819(3) 0.9905(3)
H10 H 0.3667 1.1162 0.9792
C11 C 0.3948(3) 1.0450(4) 0.9751(3)
C12 C 0.3876(3) 0.9890(3) 0.9856(3)
H11 H 0.4103 0.9645 0.9710
C13 C 0.3491(3) 0.9738(4) 1.0155(3)
H12 H 0.3439 0.9387 1.0231
Ag1E Ag 0.5000 1.2500 1.10867(4)
Ag1K Ag 0.60867(4) 1.0000 0.7500
N1E N 0.5625(3) 1.3019(3) 1.1369(2)
N1K N 0.6369(2) 0.9375(3) 0.6981(3)
N1N N 0.3019(3) 0.8631(2) 0.9375(3)
N2E N 0.6091(3) 1.2808(3) 1.0591(2)
N2K N 0.5591(2) 0.8909(3) 0.7192(3)
H1E H 0.6342 1.2854 1.0372
H1K H 0.5372 0.8658 0.7146
N3E N 0.5706(2) 1.2460(3) 1.0481(2)
N3K N 0.5481(2) 0.9294(2) 0.7540(3)
N3N N 0.2460(3) 0.9519(2) 0.9294(2)
C1E C 0.5600(4) 1.3208(4) 1.1864(4)
C1K C 0.6864(4) 0.9400(4) 0.6792(4)
H2E H 0.5321 1.3126 1.2082
H2K H 0.7082 0.9679 0.6874
C2E C 0.6017(5) 1.3540(4) 1.2041(4)
C2K C 0.7041(4) 0.8983(5) 0.6460(4)
H3E H 0.5988 1.3730 1.2350
H3K H 0.7350 0.9012 0.6270
C3E C 0.6499(4) 1.3570(4) 1.1712(4)
C3K C 0.6712(4) 0.8501(4) 0.6430(4)
H4E H 0.6794 1.3733 1.1848
H4K H 0.6848 0.8206 0.6267
C4E C 0.6521(3) 1.3374(3) 1.1242(3)
C4K C 0.6242(3) 0.8479(3) 0.6626(3)
H5E H 0.6816 1.3423 1.1036
H5K H 0.6036 0.8184 0.6577
C5E C 0.6082(4) 1.3083(4) 1.1045(4)
C5K C 0.6045(4) 0.8918(4) 0.6917(4)
C6E C 0.5707(3) 1.2259(3) 0.9986(4)
C6K C 0.4986(4) 0.9293(3) 0.7741(3)
C7E C 0.6132(3) 1.2488(3) 0.9598(3)
C7K C 0.4598(3) 0.8868(3) 0.7512(3)
H6E H 0.6328 1.2757 0.9772
H6K H 0.4772 0.8672 0.7243
H7E H 0.5961 1.2634 0.9297
H7K H 0.4297 0.9039 0.7366
H8E H 0.6364 1.2214 0.9490
H8K H 0.4490 0.8636 0.7786
C8E C 0.5362(3) 1.1845(3) 0.9871(3)
C8K C 0.4871(3) 0.9638(3) 0.8155(3)
C9E C 0.5245(3) 1.1777(3) 0.9321(3)
C9K C 0.4321(3) 0.9755(3) 0.8223(3)
H9E H 0.5391 1.1995 0.9070
H9K H 0.4070 0.9609 0.8005
C10E C 0.4905(3) 1.1373(3) 0.9181(3)
C10K C 0.4181(3) 1.0095(3) 0.8627(3)
H10E H 0.4792 1.1333 0.8838
H10K H 0.3838 1.0208 0.8667
C11E C 0.4751(3) 1.1052(3) 0.9550(4)
C11K C 0.4550(4) 1.0249(3) 0.8948(3)
C12E C 0.4856(3) 1.1124(3) 1.0110(3)
C12K C 0.5110(3) 1.0144(3) 0.8876(3)
H11E H 0.4710 1.0897 1.0355
H11K H 0.5355 1.0290 0.9103
C13E C 0.5155(3) 1.1509(3) 1.0262(4)
C13K C 0.5262(4) 0.9845(3) 0.8491(3)
H12E H 0.5231 1.1561 1.0613
H12K H 0.5613 0.9769 0.8439
F1? F 0.2093(2) 0.7904(4) 0.5147(2)
F2? F 0.2309(5) 0.7529(4) 0.4416(4)
F3? F 0.2312(6) 0.8370(3) 0.4460(5)
F4? F 0.28914(19) 0.8093(3) 0.4857(2)
F5? F 0.2427(5) 0.7417(3) 0.4708(5)
F6? F 0.2227(5) 0.8128(5) 0.4289(4)
C19? C 0.4105(8) 0.6538(4) 1.3293(5)
O1? O 0.4090(10) 0.6004(5) 1.3383(9)
O2? O 0.410(2) 0.6814(13) 1.2822(9)
C20? C 0.2723(5) 0.6210(11) 1.5002(14)
O3? O 0.3216(6) 0.6336(7) 1.4821(7)
C21? C 0.3343(10) 0.4940(9) 1.1615(14)
O4? O 0.3596(13) 0.4530(11) 1.1360(13)
loop_
_geom_bond_atom_site_label_1
_geom_bond_atom_site_label_2
_geom_bond_site_symmetry_1
_geom_bond_site_symmetry_2
Ag1 N1 1_555 1_555
N1 C1 1_555 1_555
N2 H1 1_555 1_555
N3 Ag1 1_555 1_555
N4 C11 1_555 1_555
C1 H2 1_555 1_555
C2 C1 1_555 1_555
H3 C2 1_555 1_555
C3 C2 1_555 1_555
H4 C3 1_555 1_555
C4 C3 1_555 1_555
H5 C4 1_555 1_555
C5 N1 1_555 1_555
C6 N3 1_555 1_555
C7 C6 1_555 1_555
H6 C7 1_555 1_555
H7 C7 1_555 1_555
H8 C7 1_555 1_555
C8 C6 1_555 1_555
C9 C8 1_555 1_555
H9 C9 1_555 1_555
C10 C9 1_555 1_555
H10 C10 1_555 1_555
C11 C10 1_555 1_555
C12 C11 1_555 1_555
H11 C12 1_555 1_555
C13 C8 1_555 1_555
H12 C13 1_555 1_555
C14 Cl1 1_555 1_555
Cl2 C14 1_555 1_555
B1 B1N 1_555 1_555
C15 C16 1_555 1_555
C16 N5 1_555 1_555
N6 C17 1_555 1_555
C17 C18 1_555 1_555
Ag1E N1E 1_555 1_555
Ag1K N1K 1_555 1_555
N1E C1E 1_555 1_555
N1K C1K 1_555 1_555
N1N Ag1 1_555 1_555
N2E H1E 1_555 1_555
N2K H1K 1_555 1_555
N3E Ag1E 1_555 1_555
N3K Ag1K 1_555 1_555
N3N Ag1 1_555 1_555
C1E H2E 1_555 1_555
C1K H2K 1_555 1_555
C2E C1E 1_555 1_555
C2K C1K 1_555 1_555
H3E C2E 1_555 1_555
H3K C2K 1_555 1_555
C3E C2E 1_555 1_555
C3K C2K 1_555 1_555
H4E C3E 1_555 1_555
H4K C3K 1_555 1_555
C4E C3E 1_555 1_555
C4K C3K 1_555 1_555
H5E C4E 1_555 1_555
H5K C4K 1_555 1_555
C5E N1E 1_555 1_555
C5K N1K 1_555 1_555
C6E N3E 1_555 1_555
C6K N3K 1_555 1_555
C7E C6E 1_555 1_555
C7K C6K 1_555 1_555
H6E C7E 1_555 1_555
H6K C7K 1_555 1_555
H7E C7E 1_555 1_555
H7K C7K 1_555 1_555
H8E C7E 1_555 1_555
H8K C7K 1_555 1_555
C8E C6E 1_555 1_555
C8K C6K 1_555 1_555
C9E C8E 1_555 1_555
C9K C8K 1_555 1_555
H9E C9E 1_555 1_555
H9K C9K 1_555 1_555
C10E C9E 1_555 1_555
C10K C9K 1_555 1_555
H10E C10E 1_555 1_555
H10K C10K 1_555 1_555
C11E N4 1_555 1_555
C11K N4 1_555 1_555
C12E C11E 1_555 1_555
C12K C11K 1_555 1_555
H11E C12E 1_555 1_555
H11K C12K 1_555 1_555
C13E C8E 1_555 1_555
C13K C8K 1_555 1_555
H12E C13E 1_555 1_555
H12K C13K 1_555 1_555
Cl2D C14 1_555 1_555
Cl2H C14 1_555 1_555
N2 N3 1_555 1_555
N2 C5 1_555 1_555
C4 C5 1_555 1_555
C12 C13 1_555 1_555
N2E N3E 1_555 1_555
N2E C5E 1_555 1_555
N2K N3K 1_555 1_555
N2K C5K 1_555 1_555
C4E C5E 1_555 1_555
C4K C5K 1_555 1_555
C10E C11E 1_555 1_555
C10K C11K 1_555 1_555
C12E C13E 1_555 1_555
C12K C13K 1_555 1_555

#END
