
#######################################################################
#
#                 Cambridge Crystallographic Data Centre
#                                CCDC 
#
#######################################################################
#
# If this CIF has been generated from an entry in the Cambridge 
# Structural Database, then it will include bibliographic, chemical, 
# crystal, experimental, refinement or atomic coordinate data resulting 
# from the CCDC's data processing and validation procedures.
#
#######################################################################

data_ADAVAD
_symmetry_cell_setting           monoclinic
_symmetry_space_group_name_H-M   'P 21/c'
_symmetry_Int_Tables_number      14
_space_group_name_Hall           '-P 2ybc'
loop_
_symmetry_equiv_pos_site_id
_symmetry_equiv_pos_as_xyz
1 x,y,z
2 -x,1/2+y,1/2-z
3 -x,-y,-z
4 x,1/2-y,1/2+z
_cell_length_a                   9.421(8)
_cell_length_b                   12.668(12)
_cell_length_c                   9.392(7)
_cell_angle_alpha                90
_cell_angle_beta                 102.53(7)
_cell_angle_gamma                90
_cell_volume                     1094.19
loop_
_atom_site_label
_atom_site_type_symbol
_atom_site_fract_x
_atom_site_fract_y
_atom_site_fract_z
Cu1 Cu 0.19173(7) 0.14720(5) 0.67560(7)
Cu2 Cu 0.49291(8) 0.10215(6) 0.23795(7)
O1 O 0.0744(4) 0.1432(3) 0.4765(4)
O2 O 0.0588(4) 0.2250(3) 0.2635(4)
O3 O 0.3028(4) 0.2615(3) 0.5955(4)
O4 O 0.3051(4) 0.3347(3) 0.3809(4)
O5 O 0.3811(4) -0.0131(3) 0.1192(4)
O6 O 0.3845(4) -0.0980(3) -0.0886(4)
O7 O 0.3817(4) 0.0902(3) 0.3919(4)
O8 O 0.3739(4) 0.0225(3) 0.6094(4)
N1 N 0.0929(5) 0.0199(4) 0.7323(5)
H1 H 0.0647 -0.0205 0.6523
H2 H 0.159 -0.0174 0.7963
N2 N 0.5906(5) 0.2327(4) 0.3227(5)
H3 H 0.5823 0.2806 0.2506
H4 H 0.5412 0.2579 0.3873
C1 C 0.1168(6) 0.2084(4) 0.3928(6)
C2 C 0.2527(6) 0.2730(4) 0.4620(6)
C3 C 0.4327(6) -0.0315(4) 0.0094(6)
C4 C 0.4293(6) 0.0320(4) 0.5010(6)
C5 C -0.0350(9) 0.0366(7) 0.7974(10)
H5 H -0.0722 -0.0305 0.8199
H6 H -0.109 0.0737 0.7293
H7 H -0.0069 0.0774 0.8851
C6 C 0.7426(9) 0.2267(7) 0.3953(11)
H8 H 0.7761 0.2954 0.4308
H9 H 0.7985 0.2025 0.3275
H10 H 0.754 0.1783 0.4756
Cu1C Cu 0.19173(7) 0.35280(5) 1.17560(7)
Cu1C_2 Cu 0.19173(7) 0.35280(5) 0.17560(7)
Cu1B Cu 0.80827(7) -0.14720(5) 0.32440(7)
Cu2B Cu 0.50709(8) -0.10215(6) 0.76205(7)
Cu2B_2 Cu 0.50709(8) -0.10215(6) -0.23795(7)
O1C O 0.0744(4) 0.3568(3) 0.9765(4)
O2C O 0.0588(4) 0.2750(3) 0.7635(4)
O2_2 O 0.0588(4) 0.2250(3) 1.2635(4)
O3C O 0.3028(4) 0.2385(3) 1.0955(4)
O4C O 0.3051(4) 0.1653(3) 0.8809(4)
O4_2 O 0.3051(4) 0.3347(3) 1.3809(4)
O5B O 0.6189(4) 0.0131(3) -0.1192(4)
O5B_2 O 0.6189(4) 0.0131(3) 0.8808(4)
O6B O 0.6155(4) 0.0980(3) 0.0886(4)
O6_2 O 0.3845(4) -0.0980(3) 0.9114(4)
O7B O 0.6183(4) -0.0902(3) 0.6081(4)
O8B O 0.6261(4) -0.0225(3) 0.3906(4)
O8C O 0.3739(4) 0.4775(3) 1.1094(4)
N1C N 0.0929(5) 0.4801(4) 1.2323(5)
H1C H 0.0647 0.5205 1.1523
H2C H 0.159 0.5174 1.2963
N2B N 0.4094(5) -0.2327(4) 0.6773(5)
H3B H 0.4177 -0.2806 0.7494
H4B H 0.4588 -0.2579 0.6127
C1C C 0.1168(6) 0.2916(4) 0.8928(6)
C2C C 0.2527(6) 0.2270(4) 0.9620(6)
C3B C 0.5673(6) 0.0315(4) -0.0094(6)
C4B C 0.5707(6) -0.0320(4) 0.4990(6)
C5C C -0.0350(9) 0.4634(7) 1.2974(10)
H5C H -0.0722 0.5305 1.3199
H6C H -0.109 0.4263 1.2293
H7C H -0.0069 0.4226 1.3851
C6B C 0.2574(9) -0.2267(7) 0.6047(11)
H8B H 0.2239 -0.2954 0.5692
H9B H 0.2015 -0.2025 0.6725
H10B H 0.246 -0.1783 0.5244
loop_
_geom_bond_atom_site_label_1
_geom_bond_atom_site_label_2
_geom_bond_site_symmetry_1
_geom_bond_site_symmetry_2
Cu1 O1 1_555 1_555
Cu2 O5 1_555 1_555
O1 C1 1_555 1_555
O2 C1 1_555 1_555
O3 Cu1 1_555 1_555
O4 C2 1_555 1_555
O5 C3 1_555 1_555
O6 C3 1_555 1_555
O7 Cu2 1_555 1_555
O8 Cu1 1_555 1_555
N1 Cu1 1_555 1_555
H1 N1 1_555 1_555
H2 N1 1_555 1_555
N2 Cu2 1_555 1_555
H3 N2 1_555 1_555
H4 N2 1_555 1_555
C1 C2 1_555 1_555
C2 O3 1_555 1_555
C3 C3B 1_555 1_555
C4 O7 1_555 1_555
C5 N1 1_555 1_555
H5 C5 1_555 1_555
H6 C5 1_555 1_555
H7 C5 1_555 1_555
C6 N2 1_555 1_555
H8 C6 1_555 1_555
H9 C6 1_555 1_555
H10 C6 1_555 1_555
Cu1C O1C 1_555 1_555
Cu1C_2 O2 1_555 1_555
Cu1B O8B 1_555 1_555
Cu2B O8 1_555 1_555
Cu2B_2 O6 1_555 1_555
O1C C1C 1_555 1_555
O2C Cu1 1_555 1_555
O2_2 Cu1C 1_555 1_555
O3C Cu1C 1_555 1_555
O4C Cu1 1_555 1_555
O4_2 Cu1C 1_555 1_555
O5B Cu2B_2 1_555 1_555
O5B_2 Cu2B 1_555 1_555
O6B Cu2 1_555 1_555
O6_2 Cu2B 1_555 1_555
O7B Cu2B 1_555 1_555
O8B Cu2 1_555 1_555
O8C Cu1C 1_555 1_555
N1C Cu1C 1_555 1_555
H1C N1C 1_555 1_555
H2C N1C 1_555 1_555
N2B Cu2B 1_555 1_555
H3B N2B 1_555 1_555
H4B N2B 1_555 1_555
C1C O2C 1_555 1_555
C2C O3C 1_555 1_555
C3B O5B 1_555 1_555
C4B C4 1_555 1_555
C5C N1C 1_555 1_555
H5C C5C 1_555 1_555
H6C C5C 1_555 1_555
H7C C5C 1_555 1_555
C6B N2B 1_555 1_555
H8B C6B 1_555 1_555
H9B C6B 1_555 1_555
H10B C6B 1_555 1_555
O4 Cu1C_2 1_555 1_555
O8 C4 1_555 1_555
O4C C2C 1_555 1_555
O6B C3B 1_555 1_555
O7B C4B 1_555 1_555
O8B C4B 1_555 1_555
C1C C2C 1_555 1_555

#END
