
#######################################################################
#
#                 Cambridge Crystallographic Data Centre
#                                CCDC 
#
#######################################################################
#
# If this CIF has been generated from an entry in the Cambridge 
# Structural Database, then it will include bibliographic, chemical, 
# crystal, experimental, refinement or atomic coordinate data resulting 
# from the CCDC's data processing and validation procedures.
#
#######################################################################

data_ADAVAE
_symmetry_cell_setting           cubic
_symmetry_space_group_name_H-M   'I 21 3'
_symmetry_Int_Tables_number      199
_space_group_name_Hall           'I 2b 2c 3'
loop_
_symmetry_equiv_pos_site_id
_symmetry_equiv_pos_as_xyz
1 x,y,z
2 1/2-x,-y,1/2+z
3 -x,1/2+y,1/2-z
4 1/2+x,1/2-y,-z
5 z,x,y
6 1/2+z,1/2-x,-y
7 1/2-z,-x,1/2+y
8 -z,1/2+x,1/2-y
9 y,z,x
10 -y,1/2+z,1/2-x
11 1/2+y,1/2-z,-x
12 1/2-y,-z,1/2+x
13 1/2+x,1/2+y,1/2+z
14 -x,1/2-y,z
15 1/2-x,y,-z
16 x,-y,1/2-z
17 1/2+z,1/2+x,1/2+y
18 z,-x,1/2-y
19 -z,1/2-x,y
20 1/2-z,x,-y
21 1/2+y,1/2+z,1/2+x
22 1/2-y,z,-x
23 y,-z,1/2-x
24 -y,1/2-z,x
_cell_length_a                   25.381(4)
_cell_length_b                   25.381(4)
_cell_length_c                   25.381(4)
_cell_angle_alpha                90
_cell_angle_beta                 90
_cell_angle_gamma                90
_cell_volume                     16350.3
loop_
_atom_site_label
_atom_site_type_symbol
_atom_site_fract_x
_atom_site_fract_y
_atom_site_fract_z
B1 B 0.20298(17) 1.02750(19) 0.23951(18)
F1 F 0.2052(2) 1.0154(4) 0.2907(2)
F2 F 0.2438(5) 1.0604(3) 0.2301(4)
F3 F 0.1591(5) 1.0547(3) 0.2260(5)
B1O B 0.20298(17) 0.97250(19) 0.26049(18)
F1O F 0.2052(2) 0.9846(4) 0.2093(2)
F2O F 0.2438(5) 0.9396(3) 0.2699(4)
F3O F 0.1591(5) 0.9453(3) 0.2740(5)
N5 N 0.4759(5) 0.8710(6) -0.0709(5)
C15 C 0.4643(9) 0.8486(8) -0.0329(5)
C16 C 0.4400(8) 0.8440(10) 0.0190(5)
O3 O 0.5254(6) 0.8055(6) -0.1414(8)
C18 C 0.5249(11) 0.8426(10) -0.0952(18)
C17 C 0.4080(5) 0.6615(9) 0.3375(7)
O1 O 0.3506(6) 0.6676(14) 0.3505(15)
O5 O 0.340(3) 0.549(2) 0.4100(12)
Ag1 Ag 0.61225(3) 1.0000 -0.2500
N1 N 0.6378(2) 0.9370(2) -0.3036(2)
N2 N 0.56230(19) 0.8920(2) -0.2836(2)
H1 H 0.5395 0.8680 -0.2909
N3 N 0.5505(2) 0.92810(19) -0.2475(2)
N4 N 0.4435(3) 1.0565(3) -0.0565(3)
C1 C 0.6846(3) 0.9379(3) -0.3259(4)
H2 H 0.7053 0.9677 -0.3215
C2 C 0.7053(3) 0.8954(4) -0.3565(4)
H3 H 0.7371 0.8983 -0.3744
C3 C 0.6758(3) 0.8502(3) -0.3579(4)
H4 H 0.6890 0.8203 -0.3744
C4 C 0.6272(3) 0.8492(3) -0.3351(3)
H5 H 0.6071 0.8188 -0.3380
C5 C 0.6068(3) 0.8918(3) -0.3079(3)
C6 C 0.5026(3) 0.9264(3) -0.2308(3)
C7 C 0.4601(3) 0.8920(3) -0.2535(3)
H6 H 0.4747 0.8703 -0.2809
H7 H 0.4326 0.9137 -0.2679
H8 H 0.4458 0.8700 -0.2263
C8 C 0.4875(2) 0.9600(3) -0.1855(3)
C9 C 0.4356(3) 0.9773(3) -0.1774(3)
H9 H 0.4100 0.9674 -0.2016
C10 C 0.4202(3) 1.0087(3) -0.1348(3)
H10 H 0.3851 1.0169 -0.1287
C11 C 0.4573(4) 1.0258(3) -0.1043(3)
C12 C 0.5105(3) 1.0131(3) -0.1110(3)
H11 H 0.5362 1.0258 -0.0882
C13 C 0.5231(3) 0.9818(3) -0.1518(3)
H12 H 0.5586 0.9746 -0.1575
Ag1E Ag 0.2500 0.88775(3) 0.0000
Ag1K Ag 0.5000 1.2500 0.11225(3)
N1E N 0.1964(2) 0.8622(2) 0.0630(2)
N1K N 0.5630(2) 1.3036(2) 0.1378(2)
N1O N 0.6378(2) 1.0630(2) -0.1964(2)
N2E N 0.2164(2) 0.93770(19) 0.1080(2)
N2K N 0.6080(2) 1.2836(2) 0.06230(19)
H1E H 0.2091 0.9605 0.1320
H1K H 0.6320 1.2909 0.0395
N3E N 0.2525(2) 0.9495(2) 0.07190(19)
N3K N 0.57190(19) 1.2475(2) 0.0505(2)
N3O N 0.5505(2) 1.07190(19) -0.2525(2)
C1E C 0.1741(4) 0.8154(3) 0.0621(3)
C1K C 0.5621(3) 1.3259(4) 0.1846(3)
H2E H 0.1785 0.7947 0.0323
H2K H 0.5323 1.3215 0.2053
C2E C 0.1435(4) 0.7947(3) 0.1046(4)
C2K C 0.6046(4) 1.3565(4) 0.2053(3)
H3E H 0.1256 0.7629 0.1017
H3K H 0.6017 1.3744 0.2371
C3E C 0.1421(4) 0.8242(3) 0.1498(3)
C3K C 0.6498(3) 1.3579(4) 0.1758(3)
H4E H 0.1256 0.8110 0.1797
H4K H 0.6797 1.3744 0.1890
C4E C 0.1649(3) 0.8728(3) 0.1508(3)
C4K C 0.6508(3) 1.3351(3) 0.1272(3)
H5E H 0.1620 0.8929 0.1812
H5K H 0.6812 1.3380 0.1071
C5E C 0.1921(3) 0.8932(3) 0.1082(3)
C5K C 0.6082(3) 1.3079(3) 0.1068(3)
C6E C 0.2692(3) 0.9974(3) 0.0736(3)
C6K C 0.5736(3) 1.2308(3) 0.0026(3)
C7E C 0.2465(3) 1.0399(3) 0.1080(3)
C7K C 0.6080(3) 1.2535(3) -0.0399(3)
H6E H 0.2191 1.0253 0.1297
H6K H 0.6297 1.2809 -0.0253
H7E H 0.2321 1.0674 0.0863
H7K H 0.5863 1.2679 -0.0674
H8E H 0.2737 1.0542 0.1300
H8K H 0.6300 1.2263 -0.0542
C8E C 0.3145(3) 1.0125(2) 0.0400(3)
C8K C 0.5400(3) 1.1855(3) -0.0125(2)
C9E C 0.3226(3) 1.0644(3) 0.0227(3)
C9K C 0.5227(3) 1.1774(3) -0.0644(3)
H9E H 0.2984 1.0900 0.0326
H9K H 0.5326 1.2016 -0.0900
C10E C 0.3652(3) 1.0798(3) -0.0087(3)
C10K C 0.4913(3) 1.1348(3) -0.0798(3)
H10E H 0.3713 1.1149 -0.0169
H10K H 0.4831 1.1287 -0.1149
C11E C 0.3957(3) 1.0427(4) -0.0258(3)
C11K C 0.4742(3) 1.1043(3) -0.0427(4)
C12E C 0.3890(3) 0.9895(3) -0.0131(3)
C12K C 0.4869(3) 1.1110(3) 0.0105(3)
H11E H 0.4118 0.9638 -0.0258
H11K H 0.4742 1.0882 0.0362
C13E C 0.3482(3) 0.9769(3) 0.0182(3)
C13K C 0.5182(3) 1.1518(3) 0.0231(3)
H12E H 0.3425 0.9414 0.0254
H12K H 0.5254 1.1575 0.0586
C14? C 0.1821(5) 1.1821(5) 0.1821(5)
Cl1? Cl 0.2216(3) 1.2216(3) 0.2216(3)
Cl2? Cl 0.1906(2) 1.1202(2) 0.2060(2)
F4? F 0.1882(2) 1.0150(3) 0.2893(2)
F5? F 0.2555(5) 1.0339(6) 0.2404(3)
F6? F 0.1801(5) 1.0709(5) 0.2201(4)
O2? O 0.4125(17) 0.6851(14) 0.2836(9)
C19? C 0.3292(13) 0.5734(9) 0.3569(8)
O4? O 0.308(2) 0.6228(14) 0.332(3)
O6? O 0.433(2) 0.854(2) 0.068(3)
C20? C 0.3114(11) 0.6944(9) 0.3740(5)
C21? C 0.3258(12) 0.6962(12) 0.3188(5)
N6? N 0.3026(10) 0.6752(9) 0.4144(5)
loop_
_geom_bond_atom_site_label_1
_geom_bond_atom_site_label_2
_geom_bond_site_symmetry_1
_geom_bond_site_symmetry_2
Ag1 N1 1_555 1_555
N1 C1 1_555 1_555
N2 H1 1_555 1_555
N3 Ag1 1_555 1_555
N4 C11 1_555 1_555
C1 H2 1_555 1_555
C2 C1 1_555 1_555
H3 C2 1_555 1_555
C3 C2 1_555 1_555
H4 C3 1_555 1_555
C4 C3 1_555 1_555
H5 C4 1_555 1_555
C5 N1 1_555 1_555
C6 N3 1_555 1_555
C7 C6 1_555 1_555
H6 C7 1_555 1_555
H7 C7 1_555 1_555
H8 C7 1_555 1_555
C8 C6 1_555 1_555
C9 C8 1_555 1_555
H9 C9 1_555 1_555
C10 C9 1_555 1_555
H10 C10 1_555 1_555
C11 C10 1_555 1_555
C12 C11 1_555 1_555
H11 C12 1_555 1_555
C13 C8 1_555 1_555
H12 C13 1_555 1_555
B1 F1 1_555 1_555
F1 B1O 1_555 1_555
F2 B1 1_555 1_555
F3 B1 1_555 1_555
N5 C15 1_555 1_555
C15 C16 1_555 1_555
C17 O1 1_555 1_555
O3 C18 1_555 1_555
C18 N5 1_555 1_555
Ag1E N1E 1_555 1_555
Ag1K N1K 1_555 1_555
N1E C1E 1_555 1_555
N1K C1K 1_555 1_555
N1O Ag1 1_555 1_555
N2E H1E 1_555 1_555
N2K H1K 1_555 1_555
N3E Ag1E 1_555 1_555
N3K Ag1K 1_555 1_555
N3O Ag1 1_555 1_555
C1E H2E 1_555 1_555
C1K H2K 1_555 1_555
C2E C1E 1_555 1_555
C2K C1K 1_555 1_555
H3E C2E 1_555 1_555
H3K C2K 1_555 1_555
C3E C2E 1_555 1_555
C3K C2K 1_555 1_555
H4E C3E 1_555 1_555
H4K C3K 1_555 1_555
C4E C3E 1_555 1_555
C4K C3K 1_555 1_555
H5E C4E 1_555 1_555
H5K C4K 1_555 1_555
C5E N1E 1_555 1_555
C5K N1K 1_555 1_555
C6E N3E 1_555 1_555
C6K N3K 1_555 1_555
C7E C6E 1_555 1_555
C7K C6K 1_555 1_555
H6E C7E 1_555 1_555
H6K C7K 1_555 1_555
H7E C7E 1_555 1_555
H7K C7K 1_555 1_555
H8E C7E 1_555 1_555
H8K C7K 1_555 1_555
C8E C6E 1_555 1_555
C8K C6K 1_555 1_555
C9E C8E 1_555 1_555
C9K C8K 1_555 1_555
H9E C9E 1_555 1_555
H9K C9K 1_555 1_555
C10E C9E 1_555 1_555
C10K C9K 1_555 1_555
H10E C10E 1_555 1_555
H10K C10K 1_555 1_555
C11E N4 1_555 1_555
C11K N4 1_555 1_555
C12E C11E 1_555 1_555
C12K C11K 1_555 1_555
H11E C12E 1_555 1_555
H11K C12K 1_555 1_555
C13E C8E 1_555 1_555
C13K C8K 1_555 1_555
H12E C13E 1_555 1_555
H12K C13K 1_555 1_555
B1O B1 1_555 1_555
F1O B1 1_555 1_555
F2O B1O 1_555 1_555
F3O B1O 1_555 1_555
N2 N3 1_555 1_555
N2 C5 1_555 1_555
C4 C5 1_555 1_555
C12 C13 1_555 1_555
N2E N3E 1_555 1_555
N2E C5E 1_555 1_555
N2K N3K 1_555 1_555
N2K C5K 1_555 1_555
C4E C5E 1_555 1_555
C4K C5K 1_555 1_555
C10E C11E 1_555 1_555
C10K C11K 1_555 1_555
C12E C13E 1_555 1_555
C12K C13K 1_555 1_555
B1O F1O 1_555 1_555

#END
