
#######################################################################
#
#                 Cambridge Crystallographic Data Centre
#                                CCDC 
#
#######################################################################
#
# If this CIF has been generated from an entry in the Cambridge 
# Structural Database, then it will include bibliographic, chemical, 
# crystal, experimental, refinement or atomic coordinate data resulting 
# from the CCDC's data processing and validation procedures.
#
#######################################################################

data_ADAVIM
_symmetry_cell_setting           cubic
_symmetry_space_group_name_H-M   'I 21 3'
_symmetry_Int_Tables_number      199
_space_group_name_Hall           'I 2b 2c 3'
loop_
_symmetry_equiv_pos_site_id
_symmetry_equiv_pos_as_xyz
1 x,y,z
2 1/2-x,-y,1/2+z
3 -x,1/2+y,1/2-z
4 1/2+x,1/2-y,-z
5 z,x,y
6 1/2+z,1/2-x,-y
7 1/2-z,-x,1/2+y
8 -z,1/2+x,1/2-y
9 y,z,x
10 -y,1/2+z,1/2-x
11 1/2+y,1/2-z,-x
12 1/2-y,-z,1/2+x
13 1/2+x,1/2+y,1/2+z
14 -x,1/2-y,z
15 1/2-x,y,-z
16 x,-y,1/2-z
17 1/2+z,1/2+x,1/2+y
18 z,-x,1/2-y
19 -z,1/2-x,y
20 1/2-z,x,-y
21 1/2+y,1/2+z,1/2+x
22 1/2-y,z,-x
23 y,-z,1/2-x
24 -y,1/2-z,x
_cell_length_a                   25.5824(6)
_cell_length_b                   25.5824(6)
_cell_length_c                   25.5824(6)
_cell_angle_alpha                90
_cell_angle_beta                 90
_cell_angle_gamma                90
_cell_volume                     16742.6
loop_
_atom_site_label
_atom_site_type_symbol
_atom_site_fract_x
_atom_site_fract_y
_atom_site_fract_z
Cl1 Cl 0.22050(18) 0.27950(18) 0.72050(18)
Cl2 Cl 0.1903(3) 0.3781(3) 0.7040(2)
C14 C 0.1829(2) 0.3171(2) 0.6829(2)
B1 B 0.2054(4) 0.4866(4) 0.7358(4)
F1 F 0.1726(4) 0.4439(5) 0.7286(5)
F2 F 0.2500(4) 0.4564(4) 0.7409(4)
Cl2K Cl 0.1219(3) 0.2960(2) 0.6903(3)
Cl2E Cl 0.2040(2) 0.3097(3) 0.6219(3)
B1O B 0.2054(4) 0.5134(4) 0.7642(4)
F1K F 0.0561(5) 0.2714(5) 0.6726(4)
F1E F 0.2286(5) 0.3274(4) 0.5561(5)
F1O F 0.1726(4) 0.5561(5) 0.7714(5)
F2O F 0.2500(4) 0.5436(4) 0.7591(4)
O1 O 0.5861(6) 0.6551(7) 0.8267(7)
O2 O 0.6490(5) 0.6438(7) 0.8928(7)
N5 N 0.5337(4) 0.5780(7) 0.8724(8)
C15 C 0.4222(6) 0.5146(7) 0.8744(8)
H12 H 0.4317 0.5156 0.9107
C16 C 0.3748(6) 0.4916(8) 0.8611(9)
H13 H 0.3531 0.4766 0.8878
C17 C 0.3588(7) 0.4903(9) 0.8092(9)
H14 H 0.3261 0.4745 0.8000
C18 C 0.3903(8) 0.5121(10) 0.7706(8)
C19 C 0.4377(8) 0.5350(9) 0.7839(8)
H16 H 0.4594 0.5500 0.7572
C20 C 0.4537(6) 0.5363(8) 0.8358(9)
C21 C 0.5075(6) 0.5452(9) 0.8444(11)
H17 H 0.5296 0.5238 0.8229
C22 C 0.5866(5) 0.5717(5) 0.8532(13)
H18 H 0.5862 0.5589 0.8175
H19 H 0.6056 0.5470 0.8748
C23 C 0.6112(6) 0.6233(5) 0.8556(8)
C24 C 0.6836(8) 0.6911(8) 0.8870(10)
H20 H 0.7074 0.6928 0.9159
H21 H 0.6624 0.7221 0.8864
H22 H 0.7029 0.6886 0.8549
C17O C 0.3588(7) 0.5097(9) 0.6908(9)
H14O H 0.3261 0.5255 0.7000
C18O C 0.3903(8) 0.4879(10) 0.7294(8)
C19O C 0.4377(8) 0.4650(9) 0.7161(8)
H16O H 0.4594 0.4500 0.7428
O5 O 0.5245(8) 0.5245(8) 0.5245(8)
O6 O 0.5911(16) 0.5129(18) 0.7096(17)
Ag1 Ag 0.7500 -0.10679(4) 0.5000
N1 N 0.8027(3) -0.1371(3) 0.5596(3)
N2 N 0.7810(3) -0.0620(3) 0.6092(3)
N3 N 0.7453(3) -0.0476(3) 0.5711(3)
N4 N 0.5605(3) 0.0605(3) 0.4395(3)
C1 C 0.8242(5) -0.1856(4) 0.5639(4)
H1 H 0.8179 -0.2083 0.5361
C2 C 0.8519(6) -0.2038(5) 0.6011(4)
H2 H 0.8697 -0.2354 0.5983
C3 C 0.8539(5) -0.1748(5) 0.6443(6)
H3 H 0.8703 -0.1889 0.6735
C4 C 0.8337(4) -0.1267(5) 0.6487(4)
H4 H 0.8370 -0.1066 0.6789
C5 C 0.8063(3) -0.1085(4) 0.6026(4)
C6 C 0.7283(3) 0.0012(4) 0.5723(3)
C7 C 0.7507(4) 0.0411(4) 0.6094(4)
H5 H 0.7787 0.0256 0.6290
H6 H 0.7239 0.0527 0.6329
H7 H 0.7638 0.0703 0.5899
C8 C 0.6868(3) 0.0173(3) 0.5404(3)
C9 C 0.6774(4) 0.0706(4) 0.5213(4)
H8 H 0.7004 0.0970 0.5312
C10 C 0.6360(3) 0.0833(4) 0.4892(4)
H9 H 0.6295 0.1178 0.4799
C11 C 0.6068(4) 0.0467(5) 0.4727(3)
C12 C 0.6075(4) -0.0099(4) 0.4834(3)
H10 H 0.5839 -0.0341 0.4701
C13 C 0.6494(4) -0.0214(4) 0.5166(3)
H11 H 0.6546 -0.0564 0.5248
N1N N 0.6973(3) -0.1371(3) 0.4404(3)
N2N N 0.7190(3) -0.0620(3) 0.3908(3)
N3N N 0.7547(3) -0.0476(3) 0.4289(3)
N4N N 0.9395(3) 0.0605(3) 0.5605(3)
C1N C 0.6758(5) -0.1856(4) 0.4361(4)
H1N H 0.6821 -0.2083 0.4639
C2N C 0.6481(6) -0.2038(5) 0.3989(4)
H2N H 0.6303 -0.2354 0.4017
C3N C 0.6461(5) -0.1748(5) 0.3557(6)
H3N H 0.6297 -0.1889 0.3265
C4N C 0.6663(4) -0.1267(5) 0.3513(4)
H4N H 0.6630 -0.1066 0.3211
C5N C 0.6937(3) -0.1085(4) 0.3974(4)
C6N C 0.7717(3) 0.0012(4) 0.4277(3)
C7N C 0.7493(4) 0.0411(4) 0.3906(4)
H5N H 0.7213 0.0256 0.3710
H6N H 0.7761 0.0527 0.3671
H7N H 0.7362 0.0703 0.4101
C8N C 0.8132(3) 0.0173(3) 0.4596(3)
C9N C 0.8226(4) 0.0706(4) 0.4787(4)
H8N H 0.7996 0.0970 0.4688
C10N C 0.8640(3) 0.0833(4) 0.5108(4)
C10G C 0.5108(4) 0.1360(3) 0.4167(4)
C10J C 0.5833(4) 0.0108(4) 0.3640(3)
C10P C 0.9892(4) 0.1360(3) 0.5833(4)
C10W C 0.9167(4) 0.0108(4) 0.6360(3)
H9N H 0.8705 0.1178 0.5201
H9G H 0.5201 0.1295 0.3822
H9J H 0.6178 0.0201 0.3705
H9P H 0.9799 0.1295 0.6178
H9W H 0.8822 0.0201 0.6295
C11G C 0.5273(3) 0.1068(4) 0.4533(5)
C11J C 0.5467(5) 0.0273(3) 0.3932(4)
C11N C 0.8932(4) 0.0467(5) 0.5273(3)
C11P C 0.9727(3) 0.1068(4) 0.5467(5)
C11W C 0.9533(5) 0.0273(3) 0.6068(4)
C12N C 0.8925(4) -0.0099(4) 0.5166(3)
C12G C 0.5166(3) 0.1075(4) 0.5099(4)
C12J C 0.4901(4) 0.0166(3) 0.3925(4)
C12P C 0.9834(3) 0.1075(4) 0.4901(4)
C12W C 1.0099(4) 0.0166(3) 0.6075(4)
H10N H 0.9161 -0.0341 0.5299
H10G H 0.5299 0.0839 0.5341
H10J H 0.4659 0.0299 0.4161
H10P H 0.9701 0.0839 0.4659
H10W H 1.0341 0.0299 0.5839
C13N C 0.8506(4) -0.0214(4) 0.4834(3)
H11N H 0.8454 -0.0564 0.4752
F3? F 0.1971(2) 0.4848(2) 0.7887(3)
H15? H 0.3793 0.4888 0.7653
C25? C 0.3194(11) 0.1638(11) 0.7223(11)
O3? O 0.6691(11) 0.6840(11) 0.8458(11)
O4? O 0.6889(13) 0.6656(14) 0.9206(14)
loop_
_geom_bond_atom_site_label_1
_geom_bond_atom_site_label_2
_geom_bond_site_symmetry_1
_geom_bond_site_symmetry_2
Ag1 N1 1_555 1_555
N1 C1 1_555 1_555
N2 N3 1_555 1_555
N3 Ag1 1_555 1_555
N4 C11 1_555 1_555
C1 H1 1_555 1_555
C2 C1 1_555 1_555
H2 C2 1_555 1_555
C3 C2 1_555 1_555
H3 C3 1_555 1_555
C4 C3 1_555 1_555
H4 C4 1_555 1_555
C5 N1 1_555 1_555
C6 N3 1_555 1_555
C7 C6 1_555 1_555
H5 C7 1_555 1_555
H6 C7 1_555 1_555
H7 C7 1_555 1_555
C8 C6 1_555 1_555
C9 C8 1_555 1_555
H8 C9 1_555 1_555
C10 C9 1_555 1_555
H9 C10 1_555 1_555
C11 C10 1_555 1_555
C12 C11 1_555 1_555
H10 C12 1_555 1_555
C13 C8 1_555 1_555
H11 C13 1_555 1_555
Cl1 C14 1_555 1_555
Cl2 C14 1_555 1_555
C14 Cl2K 1_555 1_555
B1 F1 1_555 1_555
F1 Cl2 1_555 1_555
F2 B1 1_555 1_555
O1 C23 1_555 1_555
O2 C23 1_555 1_555
N5 C21 1_555 1_555
C15 H12 1_555 1_555
C16 C15 1_555 1_555
H13 C16 1_555 1_555
C17 C16 1_555 1_555
H14 C17 1_555 1_555
C18 C17 1_555 1_555
C19 C18 1_555 1_555
H16 C19 1_555 1_555
C20 C15 1_555 1_555
C21 C20 1_555 1_555
H17 C21 1_555 1_555
C22 N5 1_555 1_555
H18 C22 1_555 1_555
H19 C22 1_555 1_555
C23 C22 1_555 1_555
C24 O2 1_555 1_555
H20 C24 1_555 1_555
H21 C24 1_555 1_555
H22 C24 1_555 1_555
N1N Ag1 1_555 1_555
N2N N3N 1_555 1_555
N3N Ag1 1_555 1_555
N4N C11N 1_555 1_555
C1N N1N 1_555 1_555
H1N C1N 1_555 1_555
C2N C1N 1_555 1_555
H2N C2N 1_555 1_555
C3N C2N 1_555 1_555
H3N C3N 1_555 1_555
C4N C3N 1_555 1_555
H4N C4N 1_555 1_555
C5N N1N 1_555 1_555
C6N N3N 1_555 1_555
C7N C6N 1_555 1_555
H5N C7N 1_555 1_555
H6N C7N 1_555 1_555
H7N C7N 1_555 1_555
C8N C6N 1_555 1_555
C9N C8N 1_555 1_555
H8N C9N 1_555 1_555
C10N C9N 1_555 1_555
C10G H9G 1_555 1_555
C10J H9J 1_555 1_555
C10P H9P 1_555 1_555
C10W H9W 1_555 1_555
H9N C10N 1_555 1_555
C11G N4 1_555 1_555
C11J N4 1_555 1_555
C11N C10N 1_555 1_555
C11P N4N 1_555 1_555
C11W N4N 1_555 1_555
C12N C11N 1_555 1_555
C12G C11G 1_555 1_555
C12J C11J 1_555 1_555
C12P C11P 1_555 1_555
C12W C11W 1_555 1_555
H10N C12N 1_555 1_555
H10G C12G 1_555 1_555
H10J C12J 1_555 1_555
H10P C12P 1_555 1_555
H10W C12W 1_555 1_555
C13N C8N 1_555 1_555
H11N C13N 1_555 1_555
Cl2K F1K 1_555 1_555
Cl2E C14 1_555 1_555
B1O B1 1_555 1_555
F1E Cl2E 1_555 1_555
F1O B1O 1_555 1_555
F2O B1O 1_555 1_555
C17O H14O 1_555 1_555
C18O C18 1_555 1_555
C19O C18O 1_555 1_555
H16O C19O 1_555 1_555
N2 C5 1_555 1_555
C4 C5 1_555 1_555
C12 C13 1_555 1_555
C19 C20 1_555 1_555
N2N C5N 1_555 1_555
C4N C5N 1_555 1_555
C10G C11G 1_555 1_555
C10J C11J 1_555 1_555
C10P C11P 1_555 1_555
C10W C11W 1_555 1_555
C12N C13N 1_555 1_555
C17O C18O 1_555 1_555

#END
