
#######################################################################
#
#                 Cambridge Crystallographic Data Centre
#                                CCDC 
#
#######################################################################
#
# If this CIF has been generated from an entry in the Cambridge 
# Structural Database, then it will include bibliographic, chemical, 
# crystal, experimental, refinement or atomic coordinate data resulting 
# from the CCDC's data processing and validation procedures.
#
#######################################################################

data_ADEGOG
_symmetry_cell_setting           orthorhombic
_symmetry_space_group_name_H-M   'P b c a'
_symmetry_Int_Tables_number      61
_space_group_name_Hall           '-P 2ac 2ab'
loop_
_symmetry_equiv_pos_site_id
_symmetry_equiv_pos_as_xyz
1 x,y,z
2 1/2-x,-y,1/2+z
3 1/2+x,1/2-y,-z
4 -x,1/2+y,1/2-z
5 -x,-y,-z
6 1/2+x,y,1/2-z
7 1/2-x,1/2+y,z
8 x,1/2-y,1/2+z
_cell_length_a                   16.933(4)
_cell_length_b                   10.918(3)
_cell_length_c                   28.116(6)
_cell_angle_alpha                90
_cell_angle_beta                 90
_cell_angle_gamma                90
_cell_volume                     5197.93
loop_
_atom_site_label
_atom_site_type_symbol
_atom_site_fract_x
_atom_site_fract_y
_atom_site_fract_z
Zn1 Zn 0.30968(3) 0.22767(5) 1.110560(16)
S1 S 0.50229(7) 0.20104(12) 1.11438(5)
O1 O 0.33214(17) 0.0490(3) 1.13175(10)
O2 O 0.3951(2) -0.1123(3) 1.16047(13)
O3 O 0.43106(18) 0.2673(3) 1.09846(11)
O4 O 0.5107(2) 0.0846(4) 1.09157(13)
O5 O 0.5708(2) 0.2785(4) 1.11169(16)
O6 O 0.28396(19) 0.4045(3) 1.08370(11)
H1 H 0.2528 0.4486 1.0980
H2 H 0.3216 0.4501 1.0789
O7 O 0.18781(18) 0.2088(3) 1.12196(13)
H3 H 0.1662 0.2714 1.1315
H4 H 0.1549 0.1688 1.1072
N1 N 0.2994(2) 0.1577(3) 1.03966(12)
N2 N 0.3127(2) 0.1942(3) 0.68115(12)
C1 C 0.3844(3) -0.0011(4) 1.15749(15)
C2 C 0.4330(3) 0.0791(4) 1.19041(16)
C3 C 0.4853(3) 0.1698(4) 1.17590(17)
C4 C 0.5230(3) 0.2428(5) 1.2096(2)
H5 H 0.5581 0.3033 1.1998
C5 C 0.5085(4) 0.2258(6) 1.2573(2)
H6 H 0.5330 0.2759 1.2796
C6 C 0.4584(4) 0.1358(6) 1.27203(19)
H7 H 0.4485 0.1245 1.3043
C7 C 0.4223(3) 0.0617(5) 1.23872(17)
H8 H 0.3899 -0.0018 1.2490
C8 C 0.3487(3) 0.0707(4) 1.02406(16)
H9 H 0.3890 0.0449 1.0442
C9 C 0.3429(3) 0.0174(4) 0.97976(16)
H10 H 0.3788 -0.0425 0.9705
C10 C 0.2838(3) 0.0531(5) 0.94924(16)
C11 C 0.2330(3) 0.1446(5) 0.96476(16)
H11 H 0.1924 0.1722 0.9452
C12 C 0.2433(3) 0.1941(4) 1.00943(16)
H12 H 0.2093 0.2562 1.0191
C13 C 0.2749(4) -0.0077(6) 0.90133(17)
H13 H 0.3084 -0.0798 0.9006
H14 H 0.2207 -0.0352 0.8980
C14 C 0.2951(4) 0.0718(5) 0.85925(17)
H15 H 0.3491 0.1007 0.8622
H16 H 0.2606 0.1426 0.8587
C15 C 0.2863(4) 0.0013(5) 0.81342(17)
H17 H 0.2338 -0.0344 0.8128
H18 H 0.3238 -0.0657 0.8137
C16 C 0.2979(3) 0.0728(5) 0.76796(16)
C17 C 0.3483(3) 0.0321(5) 0.73335(17)
H19 H 0.3789 -0.0373 0.7385
C18 C 0.3533(3) 0.0945(5) 0.69069(16)
H20 H 0.3873 0.0645 0.6675
C19 C 0.2653(3) 0.2369(5) 0.71539(16)
H21 H 0.2373 0.3089 0.7100
C20 C 0.2562(3) 0.1780(5) 0.75852(16)
H22 H 0.2219 0.2097 0.7812
Zn1G Zn 0.30968(3) 0.27233(5) 0.610560(16)
N2G N 0.3127(2) 0.3058(3) 1.18115(12)
O8 O 1.0934(3) 0.0608(4) 0.0723(2)
N3 N 0.9809(3) 0.1442(4) 0.04789(19)
C21 C 0.9002(4) 0.1295(7) 0.0325(4)
H23 H 0.8856 0.0447 0.0347
H24 H 0.8952 0.1564 0.0002
H25 H 0.8662 0.1774 0.0525
C22 C 1.0132(4) 0.2665(7) 0.0426(4)
H26 H 1.0698 0.2624 0.0428
H27 H 0.9955 0.3170 0.0684
H28 H 0.9956 0.3010 0.0130
C23 C 1.0241(4) 0.0532(5) 0.0624(2)
H29 H 1.0000 -0.0230 0.0655
loop_
_geom_bond_atom_site_label_1
_geom_bond_atom_site_label_2
_geom_bond_site_symmetry_1
_geom_bond_site_symmetry_2
Zn1 O1 1_555 1_555
S1 O3 1_555 1_555
O1 C1 1_555 1_555
O2 C1 1_555 1_555
O3 Zn1 1_555 1_555
O4 S1 1_555 1_555
O5 S1 1_555 1_555
O6 Zn1 1_555 1_555
H1 O6 1_555 1_555
H2 O6 1_555 1_555
O7 Zn1 1_555 1_555
H3 O7 1_555 1_555
H4 O7 1_555 1_555
O8 C23 1_555 1_555
N1 Zn1 1_555 1_555
N2 C18 1_555 1_555
N3 C21 1_555 1_555
C1 C2 1_555 1_555
C2 C3 1_555 1_555
C3 S1 1_555 1_555
C4 C3 1_555 1_555
H5 C4 1_555 1_555
C5 C4 1_555 1_555
H6 C5 1_555 1_555
C6 C5 1_555 1_555
H7 C6 1_555 1_555
C7 C2 1_555 1_555
H8 C7 1_555 1_555
C8 N1 1_555 1_555
H9 C8 1_555 1_555
C9 C8 1_555 1_555
H10 C9 1_555 1_555
C10 C9 1_555 1_555
C11 C10 1_555 1_555
H11 C11 1_555 1_555
C12 N1 1_555 1_555
H12 C12 1_555 1_555
C13 C10 1_555 1_555
H13 C13 1_555 1_555
H14 C13 1_555 1_555
C14 C13 1_555 1_555
H15 C14 1_555 1_555
H16 C14 1_555 1_555
C15 C14 1_555 1_555
H17 C15 1_555 1_555
H18 C15 1_555 1_555
C16 C15 1_555 1_555
C17 C16 1_555 1_555
H19 C17 1_555 1_555
C18 C17 1_555 1_555
H20 C18 1_555 1_555
C19 N2 1_555 1_555
H21 C19 1_555 1_555
C20 C16 1_555 1_555
H22 C20 1_555 1_555
C21 H23 1_555 1_555
H24 C21 1_555 1_555
H25 C21 1_555 1_555
C22 N3 1_555 1_555
H26 C22 1_555 1_555
H27 C22 1_555 1_555
H28 C22 1_555 1_555
C23 N3 1_555 1_555
H29 C23 1_555 1_555
Zn1G N2 1_555 1_555
N2G Zn1 1_555 1_555
C6 C7 1_555 1_555
C11 C12 1_555 1_555
C19 C20 1_555 1_555

#END
