
#######################################################################
#
#                 Cambridge Crystallographic Data Centre
#                                CCDC 
#
#######################################################################
#
# If this CIF has been generated from an entry in the Cambridge 
# Structural Database, then it will include bibliographic, chemical, 
# crystal, experimental, refinement or atomic coordinate data resulting 
# from the CCDC's data processing and validation procedures.
#
#######################################################################

data_ADETEJ
_symmetry_cell_setting           monoclinic
_symmetry_space_group_name_H-M   'P 21/n'
_symmetry_Int_Tables_number      14
_space_group_name_Hall           '-P 2yn'
loop_
_symmetry_equiv_pos_site_id
_symmetry_equiv_pos_as_xyz
1 x,y,z
2 1/2-x,1/2+y,1/2-z
3 -x,-y,-z
4 1/2+x,1/2-y,1/2+z
_cell_length_a                   9.7639(18)
_cell_length_b                   22.836(4)
_cell_length_c                   9.8496(18)
_cell_angle_alpha                90
_cell_angle_beta                 99.908(4)
_cell_angle_gamma                90
_cell_volume                     2163.39
loop_
_atom_site_label
_atom_site_type_symbol
_atom_site_fract_x
_atom_site_fract_y
_atom_site_fract_z
Gd1 Gd 0.481002(12) 0.998608(5) 0.256346(11)
O1 O 0.51125(19) 0.89287(8) 0.2165(2)
O2 O 0.6586(2) 0.93347(8) 0.38588(19)
O3 O 0.3678(2) 0.95939(8) 0.4225(2)
O4 O 0.3961(2) 0.92180(9) 0.6321(2)
O5 O 0.30116(18) 0.97271(8) 0.07559(18)
O6 O 0.3451(2) 1.01134(8) -0.1192(2)
O7 O 0.4568(2) 1.08569(8) 0.09586(19)
H1 H 0.427(3) 1.0730(12) 0.0150(15)
H2 H 0.526(2) 1.1082(11) 0.098(3)
N1 N 0.8296(3) 0.66183(11) 0.4750(3)
H3 H 0.889(3) 0.6614(13) 0.550(2)
H4 H 0.765(2) 0.6364(11) 0.470(3)
N2 N 0.1106(4) 0.70572(13) 0.2757(4)
H5 H 0.082(4) 0.6819(14) 0.331(3)
H6 H 0.066(4) 0.7080(16) 0.1934(17)
N3 N -0.2859(2) 0.92780(9) -0.3130(2)
H7 H -0.3082 0.8916 -0.2879
H8 H -0.2905 0.9273 -0.4051
C1 C 0.6106(3) 0.88810(11) 0.3180(3)
C2 C 0.6691(3) 0.82924(11) 0.3590(3)
C3 C 0.5905(3) 0.77907(12) 0.3199(3)
H9 H 0.5020 0.7827 0.2676
C4 C 0.6429(3) 0.72379(12) 0.3585(3)
H10 H 0.5896 0.6907 0.3316
C5 C 0.7751(3) 0.71787(12) 0.4373(3)
C6 C 0.8532(3) 0.76797(12) 0.4772(3)
H11 H 0.9414 0.7644 0.5302
C7 C 0.8007(3) 0.82308(12) 0.4386(3)
H12 H 0.8538 0.8562 0.4661
C8 C 0.3520(3) 0.91848(11) 0.5039(3)
C9 C 0.2802(3) 0.86365(11) 0.4481(3)
C10 C 0.2780(3) 0.81387(12) 0.5298(3)
H13 H 0.3147 0.8157 0.6233
C11 C 0.2220(3) 0.76187(13) 0.4735(3)
H14 H 0.2235 0.7289 0.5291
C12 C 0.1639(3) 0.75835(13) 0.3355(3)
C13 C 0.1604(3) 0.80859(13) 0.2537(3)
H15 H 0.1177 0.8073 0.1618
C14 C 0.2200(3) 0.86010(12) 0.3091(3)
H16 H 0.2201 0.8928 0.2529
C15 C 0.2661(3) 0.98444(10) -0.0507(3)
C16 C 0.1243(3) 0.96686(10) -0.1223(3)
C17 C 0.0378(3) 0.93360(11) -0.0541(3)
H17 H 0.0695 0.9213 0.0358
C18 C -0.0949(3) 0.91866(11) -0.1187(3)
H18 H -0.1507 0.8953 -0.0732
C19 C -0.1451(3) 0.93860(11) -0.2519(3)
C20 C -0.0589(3) 0.97182(14) -0.3202(3)
H19 H -0.0915 0.9850 -0.4093
C21 C 0.0749(3) 0.98545(12) -0.2568(3)
H20 H 0.1324 1.0071 -0.3040
Gd1B Gd 0.518998(12) 1.001392(5) 0.743654(11)
Gd1B_2 Gd 0.518998(12) 1.001392(5) -0.256346(11)
Gd1B_3 Gd -0.481002(12) 1.001392(5) -0.256346(11)
O4B O 0.6039(2) 1.07820(9) 0.3679(2)
O6B O 0.6549(2) 0.98866(8) 0.1192(2)
N3B N 0.2859(2) 1.07220(9) 0.3130(2)
H7B H 0.3082 1.1084 0.2879
H8B H 0.2905 1.0727 0.4051
loop_
_geom_bond_atom_site_label_1
_geom_bond_atom_site_label_2
_geom_bond_site_symmetry_1
_geom_bond_site_symmetry_2
Gd1 O1 1_555 1_555
O1 C1 1_555 1_555
O2 Gd1 1_555 1_555
O3 Gd1 1_555 1_555
O4 C8 1_555 1_555
O5 Gd1 1_555 1_555
O6 C15 1_555 1_555
O7 Gd1 1_555 1_555
H1 O7 1_555 1_555
H2 O7 1_555 1_555
N1 H3 1_555 1_555
H4 N1 1_555 1_555
N2 H5 1_555 1_555
H6 N2 1_555 1_555
N3 H7 1_555 1_555
H8 N3 1_555 1_555
C1 O2 1_555 1_555
C2 C1 1_555 1_555
C3 C2 1_555 1_555
H9 C3 1_555 1_555
C4 C3 1_555 1_555
H10 C4 1_555 1_555
C5 N1 1_555 1_555
C6 C5 1_555 1_555
H11 C6 1_555 1_555
C7 C2 1_555 1_555
H12 C7 1_555 1_555
C8 O3 1_555 1_555
C9 C8 1_555 1_555
C10 C9 1_555 1_555
H13 C10 1_555 1_555
C11 C10 1_555 1_555
H14 C11 1_555 1_555
C12 N2 1_555 1_555
C13 C12 1_555 1_555
H15 C13 1_555 1_555
C14 C9 1_555 1_555
H16 C14 1_555 1_555
C15 O5 1_555 1_555
C16 C15 1_555 1_555
C17 C16 1_555 1_555
H17 C17 1_555 1_555
C18 C17 1_555 1_555
H18 C18 1_555 1_555
C19 N3 1_555 1_555
C20 C19 1_555 1_555
H19 C20 1_555 1_555
C21 C16 1_555 1_555
H20 C21 1_555 1_555
Gd1B O4 1_555 1_555
Gd1B_2 O6 1_555 1_555
Gd1B_3 N3 1_555 1_555
O4B Gd1 1_555 1_555
O6B Gd1 1_555 1_555
N3B Gd1 1_555 1_555
H7B N3B 1_555 1_555
H8B N3B 1_555 1_555
C4 C5 1_555 1_555
C6 C7 1_555 1_555
C11 C12 1_555 1_555
C13 C14 1_555 1_555
C18 C19 1_555 1_555
C20 C21 1_555 1_555

#END
