
#######################################################################
#
#                 Cambridge Crystallographic Data Centre
#                                CCDC 
#
#######################################################################
#
# If this CIF has been generated from an entry in the Cambridge 
# Structural Database, then it will include bibliographic, chemical, 
# crystal, experimental, refinement or atomic coordinate data resulting 
# from the CCDC's data processing and validation procedures.
#
#######################################################################

data_ADIPIO
_symmetry_cell_setting           orthorhombic
_symmetry_space_group_name_H-M   'P b c a'
_symmetry_Int_Tables_number      61
_space_group_name_Hall           '-P 2ac 2ab'
loop_
_symmetry_equiv_pos_site_id
_symmetry_equiv_pos_as_xyz
1 x,y,z
2 1/2-x,-y,1/2+z
3 1/2+x,1/2-y,-z
4 -x,1/2+y,1/2-z
5 -x,-y,-z
6 1/2+x,y,1/2-z
7 1/2-x,1/2+y,z
8 x,1/2-y,1/2+z
_cell_length_a                   17.877(1)
_cell_length_b                   23.0874(12)
_cell_length_c                   24.7589(14)
_cell_angle_alpha                90
_cell_angle_beta                 90
_cell_angle_gamma                90
_cell_volume                     10218.8
loop_
_atom_site_label
_atom_site_type_symbol
_atom_site_fract_x
_atom_site_fract_y
_atom_site_fract_z
Mn1 Mn 0.2493 0.2352 0.1753
N1 N 0.2478(2) 0.3316(1) 0.1719(1)
N2 N 0.2475(2) 0.6383(1) 0.1824(1)
O1 O 0.3322(2) 0.2396(1) 0.2392(1)
O2 O 0.2654(2) 0.2871(2) 0.2999(1)
O3 O 0.4627(2) 0.2149(1) 0.2553(1)
H1 H 0.4213 0.2212 0.2404
O4 O 0.5144(2) 0.2291(2) 0.3342(1)
O5 O 0.1786(2) 0.2295(1) 0.1048(1)
O6 O 0.2527(2) 0.2189(2) 0.0340(1)
O7 O 0.0828(2) 0.2052(2) -0.0728(1)
O8 O 0.2031(2) 0.2042(2) -0.0569(1)
H2 H 0.2320 0.2096 -0.0307
O9 O 0.3455(2) 0.2319(1) 0.1204(1)
H3 H 0.3279 0.2231 0.0874
H4 H 0.3961 0.2294 0.1200
O10 O 0.1450(2) 0.2338(1) 0.2208(1)
H5 H 0.1024 0.2310 0.2020
H6 H 0.1360 0.2441 0.2548
C1 C 0.3105(2) 0.3618(2) 0.1802(2)
H11 H 0.3561 0.3411 0.1841
C2 C 0.3123(2) 0.4212(2) 0.1836(2)
H12 H 0.3582 0.4406 0.1903
C3 C 0.2473(2) 0.4528(2) 0.1771(1)
C4 C 0.1823(3) 0.4216(2) 0.1670(2)
H13 H 0.1361 0.4412 0.1618
C5 C 0.1855(3) 0.3620(2) 0.1646(2)
H14 H 0.1406 0.3415 0.1574
C6 C 0.3108(2) 0.6080(2) 0.1768(2)
H15 H 0.3566 0.6286 0.1738
C7 C 0.3126(2) 0.5484(2) 0.1752(2)
H16 H 0.3590 0.5289 0.1709
C8 C 0.2471(2) 0.5169(2) 0.1798(1)
C9 C 0.1813(2) 0.5483(2) 0.1867(2)
H17 H 0.1348 0.5289 0.1905
C10 C 0.1844(2) 0.6079(2) 0.1878(2)
H18 H 0.1390 0.6286 0.1927
C11 C 0.4768(3) 0.4639(2) 0.2996(2)
C12 C 0.5097(3) 0.4583(2) 0.2490(2)
H19 H 0.5231 0.4209 0.2361
C13 C 0.5229(3) 0.5061(2) 0.2173(2)
H20 H 0.5457 0.5017 0.1829
C14 C 0.5032(3) 0.5604(2) 0.2354(2)
H21 H 0.5118 0.5934 0.2134
C15 C 0.4714(3) 0.5666(2) 0.2847(2)
H22 H 0.4576 0.6040 0.2972
C16 C 0.4591(3) 0.5195(2) 0.3165(2)
H23 H 0.4378 0.5248 0.3513
C17 C 0.4608(3) 0.4130(2) 0.3361(2)
H24 H 0.5083 0.4011 0.3534
H25 H 0.4269 0.4263 0.3652
C18 C 0.4271(3) 0.3614(2) 0.3105(2)
H26 H 0.4640 0.3436 0.2858
H27 H 0.3833 0.3734 0.2888
C19 C 0.4022(3) 0.3160(2) 0.3526(2)
H28 H 0.4418 0.3121 0.3803
H29 H 0.3564 0.3302 0.3709
C20 C 0.3861(2) 0.2560(2) 0.3280(2)
C21 C 0.3590(2) 0.2139(2) 0.3724(2)
H30 H 0.3972 0.2123 0.4013
H31 H 0.3124 0.2295 0.3885
C22 C 0.3440(2) 0.1525(2) 0.3525(2)
H32 H 0.3083 0.1542 0.3219
H33 H 0.3913 0.1358 0.3388
C23 C 0.3127(3) 0.1132(2) 0.3954(2)
H34 H 0.2646 0.1294 0.4084
H35 H 0.3477 0.1123 0.4264
C24 C 0.2999(3) 0.0522(2) 0.3758(2)
C25 C 0.3399(3) 0.0059(2) 0.3972(2)
H36 H 0.3756 0.0128 0.4249
C26 C 0.3287(3) -0.0502(2) 0.3790(2)
H37 H 0.3569 -0.0811 0.3941
C27 C 0.2771(3) -0.0615(2) 0.3392(2)
H38 H 0.2695 -0.0999 0.3266
C28 C 0.2365(3) -0.0158(2) 0.3178(2)
H39 H 0.2002 -0.0229 0.2905
C29 C 0.2484(3) 0.0401(2) 0.3359(2)
H40 H 0.2205 0.0709 0.3205
C30 C 0.3223(2) 0.2616(2) 0.2862(2)
C31 C 0.4598(3) 0.2320(2) 0.3055(2)
C32 C 0.0857(3) 0.4394(2) 0.0073(2)
C33 C 0.0752(3) 0.4798(2) 0.0474(2)
H41 H 0.0469 0.4693 0.0784
C34 C 0.1047(3) 0.5356(2) 0.0441(2)
H42 H 0.0969 0.5626 0.0725
C35 C 0.1447(3) 0.5509(2) -0.0002(2)
H43 H 0.1649 0.5888 -0.0028
C36 C 0.1563(3) 0.5120(2) -0.0412(2)
H44 H 0.1844 0.5229 -0.0721
C37 C 0.1266(3) 0.4564(2) -0.0374(2)
H45 H 0.1345 0.4297 -0.0660
C38 C 0.0523(3) 0.3793(2) 0.0116(2)
H46 H 0.0177 0.3734 -0.0191
H47 H 0.0223 0.3772 0.0452
C39 C 0.1093(2) 0.3299(2) 0.0121(2)
H48 H 0.1329 0.3266 -0.0240
H49 H 0.1490 0.3384 0.0388
C40 C 0.0710(2) 0.2729(2) 0.0265(2)
H50 H 0.0257 0.2689 0.0037
H51 H 0.0543 0.2751 0.0645
C41 C 0.1189(2) 0.2174(2) 0.0196(2)
C42 C 0.0721(2) 0.1653(2) 0.0404(2)
H52 H 0.0588 0.1724 0.0786
H53 H 0.0249 0.1636 0.0195
C43 C 0.1107(2) 0.1063(2) 0.0364(2)
H54 H 0.1213 0.0975 -0.0019
H55 H 0.1590 0.1079 0.0560
C44 C 0.0626(2) 0.0585(2) 0.0602(2)
H56 H 0.0536 0.0675 0.0987
H57 H 0.0135 0.0592 0.0417
C45 C 0.0934(3) -0.0026(2) 0.0566(2)
C46 C 0.1662(3) -0.0144(2) 0.0422(2)
H58 H 0.1992 0.0166 0.0342
C47 C 0.1919(3) -0.0706(2) 0.0394(2)
H59 H 0.2424 -0.0777 0.0295
C48 C 0.1456(4) -0.1164(2) 0.0507(2)
H60 H 0.1635 -0.1551 0.0481
C49 C 0.0739(3) -0.1057(2) 0.0658(2)
H61 H 0.0417 -0.1372 0.0744
C50 C 0.0468(3) -0.0492(2) 0.0689(2)
H62 H -0.0036 -0.0424 0.0794
C51 C 0.1890(2) 0.2224(2) 0.0557(2)
C52 C 0.1339(3) 0.2087(2) -0.0407(2)
Mn1F Mn 0.2507 0.7352 0.1753
N2F N 0.2525(2) 0.1383(1) 0.1824(1)
O11 O 0.1129(3) 0.3071(2) 0.3091(2)
H7 H 0.1636 0.3169 0.3105
H8 H 0.0925 0.3172 0.3412
O12 O 0.4939(2) 0.2164(2) 0.1321(2)
H9 H 0.5019 0.2160 0.1680
H10 H 0.5343 0.2327 0.1153
O13 O 0.3575(7) 0.6875(5) 0.3327(5)
loop_
_geom_bond_atom_site_label_1
_geom_bond_atom_site_label_2
_geom_bond_site_symmetry_1
_geom_bond_site_symmetry_2
Mn1 N1 1_555 1_555
N1 C1 1_555 1_555
N2 C6 1_555 1_555
O1 Mn1 1_555 1_555
O2 C30 1_555 1_555
O3 H1 1_555 1_555
O4 C31 1_555 1_555
O5 Mn1 1_555 1_555
O6 C51 1_555 1_555
O7 C52 1_555 1_555
O8 H2 1_555 1_555
O9 Mn1 1_555 1_555
H3 O9 1_555 1_555
H4 O9 1_555 1_555
O10 Mn1 1_555 1_555
H5 O10 1_555 1_555
H6 O10 1_555 1_555
O11 H7 1_555 1_555
H8 O11 1_555 1_555
O12 H9 1_555 1_555
H10 O12 1_555 1_555
C1 H11 1_555 1_555
C2 C1 1_555 1_555
H12 C2 1_555 1_555
C3 C2 1_555 1_555
C4 C3 1_555 1_555
H13 C4 1_555 1_555
C5 N1 1_555 1_555
H14 C5 1_555 1_555
C6 H15 1_555 1_555
C7 C6 1_555 1_555
H16 C7 1_555 1_555
C8 C3 1_555 1_555
C9 C8 1_555 1_555
H17 C9 1_555 1_555
C10 N2 1_555 1_555
H18 C10 1_555 1_555
C11 C12 1_555 1_555
C12 H19 1_555 1_555
C13 C12 1_555 1_555
H20 C13 1_555 1_555
C14 C13 1_555 1_555
H21 C14 1_555 1_555
C15 C14 1_555 1_555
H22 C15 1_555 1_555
C16 C11 1_555 1_555
H23 C16 1_555 1_555
C17 C11 1_555 1_555
H24 C17 1_555 1_555
H25 C17 1_555 1_555
C18 C17 1_555 1_555
H26 C18 1_555 1_555
H27 C18 1_555 1_555
C19 C18 1_555 1_555
H28 C19 1_555 1_555
H29 C19 1_555 1_555
C20 C19 1_555 1_555
C21 C20 1_555 1_555
H30 C21 1_555 1_555
H31 C21 1_555 1_555
C22 C21 1_555 1_555
H32 C22 1_555 1_555
H33 C22 1_555 1_555
C23 C22 1_555 1_555
H34 C23 1_555 1_555
H35 C23 1_555 1_555
C24 C23 1_555 1_555
C25 C24 1_555 1_555
H36 C25 1_555 1_555
C26 C25 1_555 1_555
H37 C26 1_555 1_555
C27 C26 1_555 1_555
H38 C27 1_555 1_555
C28 C27 1_555 1_555
H39 C28 1_555 1_555
C29 C24 1_555 1_555
H40 C29 1_555 1_555
C30 O1 1_555 1_555
C31 O3 1_555 1_555
C32 C33 1_555 1_555
C33 H41 1_555 1_555
C34 C33 1_555 1_555
H42 C34 1_555 1_555
C35 C34 1_555 1_555
H43 C35 1_555 1_555
C36 C35 1_555 1_555
H44 C36 1_555 1_555
C37 C32 1_555 1_555
H45 C37 1_555 1_555
C38 C32 1_555 1_555
H46 C38 1_555 1_555
H47 C38 1_555 1_555
C39 C38 1_555 1_555
H48 C39 1_555 1_555
H49 C39 1_555 1_555
C40 C39 1_555 1_555
H50 C40 1_555 1_555
H51 C40 1_555 1_555
C41 C40 1_555 1_555
C42 C41 1_555 1_555
H52 C42 1_555 1_555
H53 C42 1_555 1_555
C43 C42 1_555 1_555
H54 C43 1_555 1_555
H55 C43 1_555 1_555
C44 C43 1_555 1_555
H56 C44 1_555 1_555
H57 C44 1_555 1_555
C45 C44 1_555 1_555
C46 C45 1_555 1_555
H58 C46 1_555 1_555
C47 C46 1_555 1_555
H59 C47 1_555 1_555
C48 C47 1_555 1_555
H60 C48 1_555 1_555
C49 C48 1_555 1_555
H61 C49 1_555 1_555
C50 C45 1_555 1_555
H62 C50 1_555 1_555
C51 O5 1_555 1_555
C52 O8 1_555 1_555
Mn1F N2 1_555 1_555
N2F Mn1 1_555 1_555
C4 C5 1_555 1_555
C7 C8 1_555 1_555
C9 C10 1_555 1_555
C15 C16 1_555 1_555
C20 C30 1_555 1_555
C20 C31 1_555 1_555
C28 C29 1_555 1_555
C36 C37 1_555 1_555
C41 C51 1_555 1_555
C41 C52 1_555 1_555
C49 C50 1_555 1_555

#END
