
#######################################################################
#
#                 Cambridge Crystallographic Data Centre
#                                CCDC 
#
#######################################################################
#
# If this CIF has been generated from an entry in the Cambridge 
# Structural Database, then it will include bibliographic, chemical, 
# crystal, experimental, refinement or atomic coordinate data resulting 
# from the CCDC's data processing and validation procedures.
#
#######################################################################

data_ADIQOV
_symmetry_cell_setting           monoclinic
_symmetry_space_group_name_H-M   'P 21/c'
_symmetry_Int_Tables_number      14
_space_group_name_Hall           '-P 2ybc'
loop_
_symmetry_equiv_pos_site_id
_symmetry_equiv_pos_as_xyz
1 x,y,z
2 -x,1/2+y,1/2-z
3 -x,-y,-z
4 x,1/2-y,1/2+z
_cell_length_a                   12.4066(11)
_cell_length_b                   19.6819(12)
_cell_length_c                   8.0216(5)
_cell_angle_alpha                90
_cell_angle_beta                 108.102(2)
_cell_angle_gamma                90
_cell_volume                     1861.81
loop_
_atom_site_label
_atom_site_type_symbol
_atom_site_fract_x
_atom_site_fract_y
_atom_site_fract_z
Ni1 Ni 0.27160(7) 0.34492(4) 0.80394(9)
N1 N 0.4242(4) 0.3447(3) 1.0030(6)
N2 N 0.2215(5) 0.3811(2) 1.0113(7)
N3 N 0.1160(4) 0.3500(3) 0.6128(5)
N4 N 0.2779(5) 0.4412(3) 0.7088(7)
N5 N 0.3484(4) 0.3135(2) 0.6165(6)
N6 N 0.2951(4) 0.2839(2) 0.4895(7)
N7 N 0.2417(4) 0.2562(2) 0.3586(5)
C1 C 0.5221(6) 0.3216(3) 0.9988(8)
H1 H 0.5306 0.3113 0.8904
C2 C 0.6139(6) 0.3118(3) 1.1480(10)
H2 H 0.6816 0.2938 1.1408
C3 C 0.6020(7) 0.3291(4) 1.3041(9)
H3 H 0.6630 0.3239 1.4058
C4 C 0.5011(6) 0.3545(3) 1.3151(8)
H4 H 0.4923 0.3669 1.4220
C5 C 0.4139(6) 0.3604(3) 1.1605(8)
C6 C 0.3019(7) 0.3840(3) 1.1545(8)
H5 H 0.2892 0.4010 1.2549
C7 C 0.1075(6) 0.4020(3) 0.9998(7)
H6 H 0.0565 0.3644 0.9612
H7 H 0.0846 0.4387 0.9175
H8 H 0.1059 0.4168 1.1130
C8 C 0.0381(6) 0.3014(4) 0.5660(8)
H9 H 0.0492 0.2616 0.6316
C9 C -0.0601(6) 0.3076(5) 0.4219(10)
H10 H -0.1133 0.2728 0.3905
C10 C -0.0743(8) 0.3671(5) 0.3295(10)
H11 H -0.1388 0.3730 0.2335
C11 C 0.0045(8) 0.4180(4) 0.3753(10)
H12 H -0.0053 0.4584 0.3120
C12 C 0.0997(7) 0.4073(5) 0.5198(9)
C13 C 0.1915(8) 0.4564(3) 0.5798(9)
H13 H 0.1871 0.4983 0.5245
C14 C 0.3718(5) 0.4895(3) 0.7667(8)
H14 H 0.3491 0.5324 0.7098
H15 H 0.4360 0.4724 0.7370
H16 H 0.3920 0.4954 0.8915
Ni1C Ni 0.27160(7) 0.15508(4) 0.30394(9)
N7C N 0.2417(4) 0.2438(2) 0.8586(5)
Cl1 Cl 0.2402(2) 0.59381(13) 1.2002(3)
O1 O 0.3381(6) 0.5686(5) 1.2988(9)
O2 O 0.2395(7) 0.6605(3) 1.1711(10)
O3 O 0.2142(7) 0.5653(3) 1.0437(7)
O4 O 0.1627(6) 0.5779(4) 1.2788(10)
loop_
_geom_bond_atom_site_label_1
_geom_bond_atom_site_label_2
_geom_bond_site_symmetry_1
_geom_bond_site_symmetry_2
Ni1 N1 1_555 1_555
N1 C1 1_555 1_555
N2 Ni1 1_555 1_555
N3 Ni1 1_555 1_555
N4 Ni1 1_555 1_555
N5 Ni1 1_555 1_555
N6 N5 1_555 1_555
N7 N6 1_555 1_555
C1 H1 1_555 1_555
C2 C1 1_555 1_555
H2 C2 1_555 1_555
C3 C2 1_555 1_555
H3 C3 1_555 1_555
C4 C3 1_555 1_555
H4 C4 1_555 1_555
C5 N1 1_555 1_555
C6 N2 1_555 1_555
H5 C6 1_555 1_555
C7 N2 1_555 1_555
H6 C7 1_555 1_555
H7 C7 1_555 1_555
H8 C7 1_555 1_555
C8 N3 1_555 1_555
H9 C8 1_555 1_555
C9 C8 1_555 1_555
H10 C9 1_555 1_555
C10 C9 1_555 1_555
H11 C10 1_555 1_555
C11 C10 1_555 1_555
H12 C11 1_555 1_555
C12 N3 1_555 1_555
C13 N4 1_555 1_555
H13 C13 1_555 1_555
C14 N4 1_555 1_555
H14 C14 1_555 1_555
H15 C14 1_555 1_555
H16 C14 1_555 1_555
Cl1 O1 1_555 1_555
O2 Cl1 1_555 1_555
O3 Cl1 1_555 1_555
O4 Cl1 1_555 1_555
Ni1C N7 1_555 1_555
N7C Ni1 1_555 1_555
C4 C5 1_555 1_555
C5 C6 1_555 1_555
C11 C12 1_555 1_555
C12 C13 1_555 1_555

#END
