
#######################################################################
#
#                 Cambridge Crystallographic Data Centre
#                                CCDC 
#
#######################################################################
#
# If this CIF has been generated from an entry in the Cambridge 
# Structural Database, then it will include bibliographic, chemical, 
# crystal, experimental, refinement or atomic coordinate data resulting 
# from the CCDC's data processing and validation procedures.
#
#######################################################################

data_ADIXOB
_symmetry_cell_setting           orthorhombic
_symmetry_space_group_name_H-M   'F d d 2'
_symmetry_Int_Tables_number      43
_space_group_name_Hall           'F 2 -2d'
loop_
_symmetry_equiv_pos_site_id
_symmetry_equiv_pos_as_xyz
1 x,y,z
2 -x,-y,z
3 1/4+x,1/4-y,1/4+z
4 1/4-x,1/4+y,1/4+z
5 x,1/2+y,1/2+z
6 -x,1/2-y,1/2+z
7 1/4+x,3/4-y,3/4+z
8 1/4-x,3/4+y,3/4+z
9 1/2+x,y,1/2+z
10 1/2-x,-y,1/2+z
11 3/4+x,1/4-y,3/4+z
12 3/4-x,1/4+y,3/4+z
13 1/2+x,1/2+y,z
14 1/2-x,1/2-y,z
15 3/4+x,3/4-y,1/4+z
16 3/4-x,3/4+y,1/4+z
_cell_length_a                   30.350(4)
_cell_length_b                   34.864(7)
_cell_length_c                   8.8405(11)
_cell_angle_alpha                90
_cell_angle_beta                 90
_cell_angle_gamma                90
_cell_volume                     9354.33
loop_
_atom_site_label
_atom_site_type_symbol
_atom_site_fract_x
_atom_site_fract_y
_atom_site_fract_z
Ag1 Ag 0.835326(13) 0.928166(12) 0.99786(4)
Ag2 Ag 0.785910(13) 1.099490(12) 1.02831(4)
N1 N 0.86183(13) 0.95757(12) 0.8192(4)
N2 N 0.86614(13) 0.99453(13) 0.6135(5)
H1 H 0.8590 1.0111 0.5456
N3 N 0.74957(13) 1.11403(13) 0.8374(5)
N4 N 0.69547(14) 1.10069(13) 0.6713(5)
N5 N 0.68043(13) 0.91819(12) 0.7196(5)
N6 N 0.65105(13) 0.95616(13) 0.8982(5)
C1 C 0.84163(16) 0.98308(15) 0.7304(6)
C2 C 0.90264(15) 0.95186(15) 0.7516(6)
C3 C 0.93727(17) 0.92744(17) 0.7903(7)
H2 H 0.9365 0.9127 0.8779
C4 C 0.9724(2) 0.9262(2) 0.6938(8)
H3 H 0.9958 0.9098 0.7153
C5 C 0.97404(19) 0.9486(2) 0.5648(8)
H4 H 0.9985 0.9467 0.5020
C6 C 0.94134(17) 0.97346(19) 0.5262(8)
H5 H 0.9431 0.9887 0.4401
C7 C 0.90493(17) 0.97472(17) 0.6232(6)
C8 C 0.72880(16) 1.08713(16) 0.7544(6)
C9 C 0.72704(18) 1.14759(15) 0.8081(6)
C10 C 0.7322(2) 1.18399(17) 0.8644(7)
H6 H 0.7542 1.1896 0.9342
C11 C 0.7036(2) 1.21202(18) 0.8138(8)
H7 H 0.7064 1.2369 0.8503
C12 C 0.6708(2) 1.20388(19) 0.7103(8)
H8 H 0.6519 1.2233 0.6794
C13 C 0.66554(19) 1.16790(18) 0.6525(6)
H9 H 0.6440 1.1627 0.5806
C14 C 0.69353(17) 1.13942(15) 0.7047(6)
C15 C 0.68320(15) 0.95105(15) 0.7957(6)
C16 C 0.64309(15) 0.90014(14) 0.7760(6)
C17 C 0.62270(17) 0.86544(14) 0.7390(6)
H10 H 0.6340 0.8497 0.6634
C18 C 0.58597(17) 0.85550(15) 0.8169(6)
H11 H 0.5719 0.8326 0.7936
C19 C 0.56866(18) 0.87874(17) 0.9312(6)
H12 H 0.5437 0.8708 0.9832
C20 C 0.58788(16) 0.91306(17) 0.9680(6)
H13 H 0.5764 0.9287 1.0435
C21 C 0.62527(16) 0.92326(16) 0.8869(6)
C22 C 0.79521(16) 0.99571(15) 0.7521(6)
C23 C 0.78467(15) 1.03444(15) 0.7447(5)
H14 H 0.8068 1.0526 0.7315
C24 C 0.74058(16) 1.04611(14) 0.7572(6)
C25 C 0.70806(15) 1.01838(15) 0.7730(6)
H15 H 0.6788 1.0260 0.7820
C26 C 0.71808(14) 0.97996(15) 0.7758(6)
C27 C 0.76251(15) 0.96874(14) 0.7666(6)
H16 H 0.7698 0.9428 0.7704
Ag1I Ag 0.664674(13) 1.071834(12) 0.49786(4)
Ag2I Ag 0.714090(13) 0.900510(12) 0.52831(4)
N4I N 0.80453(14) 0.89931(13) 1.1713(5)
N5I N 0.81957(13) 1.08181(12) 1.2196(5)
loop_
_geom_bond_atom_site_label_1
_geom_bond_atom_site_label_2
_geom_bond_site_symmetry_1
_geom_bond_site_symmetry_2
Ag1 N1 1_555 1_555
Ag2 N3 1_555 1_555
N1 C1 1_555 1_555
N2 H1 1_555 1_555
N3 C8 1_555 1_555
N4 C8 1_555 1_555
N5 C15 1_555 1_555
N6 C15 1_555 1_555
C1 N2 1_555 1_555
C2 N1 1_555 1_555
C3 C2 1_555 1_555
H2 C3 1_555 1_555
C4 C3 1_555 1_555
H3 C4 1_555 1_555
C5 C4 1_555 1_555
H4 C5 1_555 1_555
C6 C5 1_555 1_555
H5 C6 1_555 1_555
C7 N2 1_555 1_555
C8 C24 1_555 1_555
C9 N3 1_555 1_555
C10 C9 1_555 1_555
H6 C10 1_555 1_555
C11 C10 1_555 1_555
H7 C11 1_555 1_555
C12 C11 1_555 1_555
H8 C12 1_555 1_555
C13 C12 1_555 1_555
H9 C13 1_555 1_555
C14 N4 1_555 1_555
C15 C26 1_555 1_555
C16 N5 1_555 1_555
C17 C16 1_555 1_555
H10 C17 1_555 1_555
C18 C17 1_555 1_555
H11 C18 1_555 1_555
C19 C18 1_555 1_555
H12 C19 1_555 1_555
C20 C19 1_555 1_555
H13 C20 1_555 1_555
C21 N6 1_555 1_555
C22 C1 1_555 1_555
C23 C22 1_555 1_555
H14 C23 1_555 1_555
C24 C23 1_555 1_555
C25 C24 1_555 1_555
H15 C25 1_555 1_555
C26 C25 1_555 1_555
C27 C22 1_555 1_555
H16 C27 1_555 1_555
Ag1I N4 1_555 1_555
Ag2I N5 1_555 1_555
N4I Ag1 1_555 1_555
N5I Ag2 1_555 1_555
C2 C7 1_555 1_555
C6 C7 1_555 1_555
C9 C14 1_555 1_555
C13 C14 1_555 1_555
C16 C21 1_555 1_555
C20 C21 1_555 1_555
C26 C27 1_555 1_555

#END
