
#######################################################################
#
#                 Cambridge Crystallographic Data Centre
#                                CCDC 
#
#######################################################################
#
# If this CIF has been generated from an entry in the Cambridge 
# Structural Database, then it will include bibliographic, chemical, 
# crystal, experimental, refinement or atomic coordinate data resulting 
# from the CCDC's data processing and validation procedures.
#
#######################################################################

data_ADIZUJ
_symmetry_cell_setting           monoclinic
_symmetry_space_group_name_H-M   'P 21/n'
_symmetry_Int_Tables_number      14
_space_group_name_Hall           '-P 2yn'
loop_
_symmetry_equiv_pos_site_id
_symmetry_equiv_pos_as_xyz
1 x,y,z
2 1/2-x,1/2+y,1/2-z
3 -x,-y,-z
4 1/2+x,1/2-y,1/2+z
_cell_length_a                   12.0313(14)
_cell_length_b                   8.2794(10)
_cell_length_c                   15.5741(18)
_cell_angle_alpha                90
_cell_angle_beta                 111.3070(10)
_cell_angle_gamma                90
_cell_volume                     1445.33
loop_
_atom_site_label
_atom_site_type_symbol
_atom_site_fract_x
_atom_site_fract_y
_atom_site_fract_z
Zn1 Zn -0.145605(17) 0.45855(2) 0.160324(13)
O1 O -0.04549(13) 0.23426(16) 0.32401(9)
O2 O -0.02084(13) 0.48304(16) 0.28348(9)
O3 O 0.19781(13) 0.88551(16) 0.50992(9)
O4 O 0.31145(12) 0.81123(16) 0.64986(9)
N1 N -0.06289(14) 0.3514(2) 0.08522(11)
N2 N 0.07024(19) 0.1792(3) 0.06667(15)
N3 N -0.00660(17) 0.2344(2) -0.01684(13)
H1 H -0.0039 0.2074 -0.0693
N4 N -0.17315(18) 0.4091(3) -0.07248(12)
H2 H -0.1816 0.3927 -0.1290
H3 H -0.2211 0.4731 -0.0594
N5 N 0.22744(13) 0.20546(17) 0.66426(9)
H4 H 0.1609 0.1506 0.6596
H5 H 0.2541 0.2537 0.7198
C1 C 0.0327(2) 0.2524(3) 0.12391(16)
H6 H 0.0685 0.2387 0.1873
C2 C -0.08609(18) 0.3357(2) -0.00533(14)
C3 C 0.08558(15) 0.4087(2) 0.43760(11)
C4 C 0.12695(15) 0.5652(2) 0.45871(12)
H7 H 0.1041 0.6440 0.4130
C5 C 0.20197(15) 0.6058(2) 0.54708(12)
C6 C 0.23794(15) 0.4864(2) 0.61514(12)
H8 H 0.2904 0.5117 0.6741
C7 C 0.19517(15) 0.3301(2) 0.59432(11)
C8 C 0.11930(15) 0.2908(2) 0.50588(11)
H9 H 0.0910 0.1857 0.4922
C9 C 0.00075(15) 0.3691(2) 0.34187(11)
C10 C 0.23837(15) 0.7784(2) 0.56897(12)
Zn1C Zn 0.354395(17) 0.04145(2) 0.660324(13)
Zn1C_2 Zn 0.354395(17) 1.04145(2) 0.660324(13)
O4C O -0.18855(12) 0.68877(16) 0.14986(9)
N5C N -0.27256(13) 0.29454(17) 0.16426(9)
H4C H -0.3391 0.3494 0.1596
H5C H -0.2459 0.2463 0.2198
O5 O 0.00107(13) 0.92186(16) 0.34874(10)
H10 H 0.0552 0.8972 0.3999
H11 H -0.0102 1.0229 0.3402
O6 O 0.4226(2) 0.3036(3) 0.29397(14)
H12 H 0.3655 0.3706 0.2823
H13 H 0.4716 0.3189 0.2668
O7 O 0.26466(17) 0.0119(3) 0.21330(15)
H14 H 0.3334 0.0539 0.2268
H15 H 0.2119 0.0418 0.1627
loop_
_geom_bond_atom_site_label_1
_geom_bond_atom_site_label_2
_geom_bond_site_symmetry_1
_geom_bond_site_symmetry_2
Zn1 O2 1_555 1_555
O1 C9 1_555 1_555
O2 C9 1_555 1_555
O3 C10 1_555 1_555
O4 C10 1_555 1_555
N1 Zn1 1_555 1_555
N2 N3 1_555 1_555
N3 H1 1_555 1_555
N4 H2 1_555 1_555
H3 N4 1_555 1_555
N5 H4 1_555 1_555
H5 N5 1_555 1_555
C1 N1 1_555 1_555
H6 C1 1_555 1_555
C2 N1 1_555 1_555
C3 C4 1_555 1_555
C4 H7 1_555 1_555
C5 C4 1_555 1_555
C6 C5 1_555 1_555
H8 C6 1_555 1_555
C7 N5 1_555 1_555
C8 C3 1_555 1_555
H9 C8 1_555 1_555
C9 C3 1_555 1_555
C10 C5 1_555 1_555
O5 H10 1_555 1_555
H11 O5 1_555 1_555
O6 H12 1_555 1_555
H13 O6 1_555 1_555
O7 H14 1_555 1_555
H15 O7 1_555 1_555
Zn1C N5 1_555 1_555
Zn1C_2 O4 1_555 1_555
O4C Zn1 1_555 1_555
N5C Zn1 1_555 1_555
H4C N5C 1_555 1_555
H5C N5C 1_555 1_555
N2 C1 1_555 1_555
N3 C2 1_555 1_555
N4 C2 1_555 1_555
C6 C7 1_555 1_555
C7 C8 1_555 1_555

#END
