
#######################################################################
#
#                 Cambridge Crystallographic Data Centre
#                                CCDC 
#
#######################################################################
#
# If this CIF has been generated from an entry in the Cambridge 
# Structural Database, then it will include bibliographic, chemical, 
# crystal, experimental, refinement or atomic coordinate data resulting 
# from the CCDC's data processing and validation procedures.
#
#######################################################################

data_ADODEC
_symmetry_cell_setting           monoclinic
_symmetry_space_group_name_H-M   'C 2/c'
_symmetry_Int_Tables_number      15
_space_group_name_Hall           '-C 2yn'
loop_
_symmetry_equiv_pos_site_id
_symmetry_equiv_pos_as_xyz
1 x,y,z
2 1/2+x,1/2+y,z
3 x,-y,1/2+z
4 1/2+x,1/2-y,1/2+z
5 -x,-y,-z
6 1/2-x,1/2-y,-z
7 -x,y,1/2-z
8 1/2-x,1/2+y,1/2-z
_cell_length_a                   20.707(3)
_cell_length_b                   9.331(2)
_cell_length_c                   17.050(5)
_cell_angle_alpha                90.00
_cell_angle_beta                 123.85(2)
_cell_angle_gamma                90.00
_cell_volume                     2735.95
loop_
_atom_site_label
_atom_site_type_symbol
_atom_site_fract_x
_atom_site_fract_y
_atom_site_fract_z
V1 V 0.82234(3) 0.34307(5) 0.04611(4)
O1 O 0.83488(12) 0.5617(2) 0.0546(2)
O2 O 0.85629(14) 0.8968(3) 0.0603(2)
O3 O 0.87100(13) 0.3169(3) 0.15746(15)
O4 O 0.78635(13) 0.1490(2) -0.0058(2)
N1 N 0.92245(14) 0.3167(3) 0.0411(2)
N2 N 0.78526(15) 0.4034(3) -0.1075(2)
C1 C 0.7868(2) 0.6626(3) 0.0234(2)
C2 C 0.7983(2) 0.8182(3) 0.0273(2)
C3 C 0.9917(2) 0.2791(4) 0.1164(2)
C4 C 1.0566(2) 0.2568(5) 0.1139(3)
C5 C 1.0511(2) 0.2748(5) 0.0310(3)
C6 C 0.9799(2) 0.3165(4) -0.0501(3)
C7 C 0.9692(2) 0.3438(5) -0.1397(3)
C8 C 0.9012(3) 0.3925(5) -0.2132(3)
C9 C 0.8368(2) 0.4185(4) -0.2055(3)
C10 C 0.7658(2) 0.4780(5) -0.2783(3)
C11 C 0.7077(2) 0.4991(5) -0.2639(2)
C12 C 0.7191(2) 0.4578(4) -0.1783(2)
C13 C 0.9168(2) 0.3367(4) -0.0415(2)
C14 C 0.8438(2) 0.3867(3) -0.1209(2)
H1 H 0.7622(19) 0.5024(39) -0.3336(25)
H2 H 0.9964(18) 0.2659(35) 0.1715(23)
H3 H 0.6560(20) 0.5410(39) -0.3127(25)
H4 H 0.6773(18) 0.4677(35) -0.1718(22)
H5 H 0.8946(20) 0.4179(42) -0.2652(27)
H6 H 0.8112(20) 0.0812(41) 0.0145(25)
H7 H 1.0183(22) 0.3236(43) -0.1413(26)
H8 H 1.0993(23) 0.2543(47) 0.0302(27)
H9 H 1.1011(23) 0.2266(44) 0.1664(27)
C1E C 0.7132(2) 0.8374(3) -0.0234(2)
O1E O 0.66512(12) 0.9383(2) -0.0546(2)
C2E C 0.7017(2) 0.6818(3) -0.0273(2)
O2E O 0.64371(14) 0.6032(3) -0.0603(2)
O4E O 0.71365(13) 0.3510(2) 0.0058(2)
H6E H 0.6888(20) 0.4188(41) -0.0145(25)
V1E V 0.67766(3) 1.15693(5) -0.04611(4)
O3E O 0.62900(13) 1.1831(3) -0.15746(15)
N1E N 0.57755(14) 1.1833(3) -0.0411(2)
N2E N 0.71474(15) 1.0966(3) 0.1075(2)
C3E C 0.5083(2) 1.2209(4) -0.1164(2)
C4E C 0.4434(2) 1.2432(5) -0.1139(3)
C5E C 0.4489(2) 1.2252(5) -0.0310(3)
C6E C 0.5201(2) 1.1835(4) 0.0501(3)
C7E C 0.5308(2) 1.1562(5) 0.1397(3)
C8E C 0.5988(3) 1.1075(5) 0.2132(3)
C9E C 0.6632(2) 1.0815(4) 0.2055(3)
C10E C 0.7342(2) 1.0220(5) 0.2783(3)
C11E C 0.7923(2) 1.0009(5) 0.2639(2)
C12E C 0.7809(2) 1.0422(4) 0.1783(2)
C13E C 0.5832(2) 1.1633(4) 0.0415(2)
C14E C 0.6562(2) 1.1133(3) 0.1209(2)
H1E H 0.7378(19) 0.9976(39) 0.3336(25)
H2E H 0.5036(18) 1.2341(35) -0.1715(23)
H3E H 0.8440(20) 0.9590(39) 0.3127(25)
H4E H 0.8227(18) 1.0323(35) 0.1718(22)
H5E H 0.6054(20) 1.0821(42) 0.2652(27)
H7E H 0.4817(22) 1.1764(43) 0.1413(26)
H8E H 0.4007(23) 1.2457(47) -0.0302(27)
H9E H 0.3989(23) 1.2734(44) -0.1664(27)
V1E_2 V 0.67766(3) 0.15693(5) -0.04611(4)
O4_2 O 0.78635(13) 1.1490(2) -0.0058(2)
O4E_2 O 0.71365(13) 1.3510(2) 0.0058(2)
H6_2 H 0.8112(20) 1.0812(41) 0.0145(25)
H6E_2 H 0.6888(20) 1.4188(41) -0.0145(25)
O5 O 1.0000 0.9906(11) 0.2500
H10 H 1.0445 0.9132 0.2708
H10F H 0.9555 0.9132 0.2292
loop_
_geom_bond_atom_site_label_1
_geom_bond_atom_site_label_2
_geom_bond_site_symmetry_1
_geom_bond_site_symmetry_2
V1 O1 1_555 1_555
O1 C1 1_555 1_555
O2 C2 1_555 1_555
O3 V1 1_555 1_555
O4 V1 1_555 1_555
N1 V1 1_555 1_555
N2 V1 1_555 1_555
C1 C2 1_555 1_555
C2 C1E 1_555 1_555
C3 N1 1_555 1_555
C4 C3 1_555 1_555
C5 C4 1_555 1_555
C6 C5 1_555 1_555
C7 C6 1_555 1_555
C8 C7 1_555 1_555
C9 C8 1_555 1_555
C10 C9 1_555 1_555
C11 C10 1_555 1_555
C12 N2 1_555 1_555
C13 N1 1_555 1_555
C14 N2 1_555 1_555
O5 H10 1_555 1_555
H1 C10 1_555 1_555
H2 C3 1_555 1_555
H3 C11 1_555 1_555
H4 C12 1_555 1_555
H5 C8 1_555 1_555
H6 O4 1_555 1_555
H7 C7 1_555 1_555
H8 C5 1_555 1_555
H9 C4 1_555 1_555
C1E O1E 1_555 1_555
O1E V1E 1_555 1_555
C2E C1 1_555 1_555
O2E C2E 1_555 1_555
H10F O5 1_555 1_555
O4E V1 1_555 1_555
H6E O4E 1_555 1_555
V1E O3E 1_555 1_555
N1E V1E 1_555 1_555
N2E V1E 1_555 1_555
C3E N1E 1_555 1_555
C4E C3E 1_555 1_555
C5E C4E 1_555 1_555
C6E C5E 1_555 1_555
C7E C6E 1_555 1_555
C8E C7E 1_555 1_555
C9E C8E 1_555 1_555
C10E C9E 1_555 1_555
C11E C10E 1_555 1_555
C12E N2E 1_555 1_555
C13E N1E 1_555 1_555
C14E N2E 1_555 1_555
H1E C10E 1_555 1_555
H2E C3E 1_555 1_555
H3E C11E 1_555 1_555
H4E C12E 1_555 1_555
H5E C8E 1_555 1_555
H7E C7E 1_555 1_555
H8E C5E 1_555 1_555
H9E C4E 1_555 1_555
V1E_2 O4 1_555 1_555
O4_2 V1E 1_555 1_555
O4E_2 V1E 1_555 1_555
H6_2 O4_2 1_555 1_555
H6E_2 O4E_2 1_555 1_555
C6 C13 1_555 1_555
C9 C14 1_555 1_555
C11 C12 1_555 1_555
C13 C14 1_555 1_555
C1E C2E 1_555 1_555
O4E V1E_2 1_555 1_555
C6E C13E 1_555 1_555
C9E C14E 1_555 1_555
C11E C12E 1_555 1_555
C13E C14E 1_555 1_555

#END
