
#######################################################################
#
#                 Cambridge Crystallographic Data Centre
#                                CCDC 
#
#######################################################################
#
# If this CIF has been generated from an entry in the Cambridge 
# Structural Database, then it will include bibliographic, chemical, 
# crystal, experimental, refinement or atomic coordinate data resulting 
# from the CCDC's data processing and validation procedures.
#
#######################################################################

data_ADOKOU
_symmetry_cell_setting           monoclinic
_symmetry_space_group_name_H-M   'C 2/c'
_symmetry_Int_Tables_number      15
_space_group_name_Hall           '-C 2yn'
loop_
_symmetry_equiv_pos_site_id
_symmetry_equiv_pos_as_xyz
1 x,y,z
2 1/2+x,1/2+y,z
3 -x,y,1/2-z
4 1/2-x,1/2+y,1/2-z
5 -x,-y,-z
6 1/2-x,1/2-y,-z
7 x,-y,1/2+z
8 1/2+x,1/2-y,1/2+z
_cell_length_a                   30.270(7)
_cell_length_b                   4.2661(10)
_cell_length_c                   18.671(4)
_cell_angle_alpha                90
_cell_angle_beta                 115.470(4)
_cell_angle_gamma                90
_cell_volume                     2176.75
loop_
_atom_site_label
_atom_site_type_symbol
_atom_site_fract_x
_atom_site_fract_y
_atom_site_fract_z
Hg1 Hg 0.105962(10) 0.40592(7) 0.480893(16)
I1 I 0.183298(17) 0.09447(11) 0.49098(3)
I2 I 0.032980(17) -0.18840(11) 0.42816(3)
Cl1 Cl 0.22902(7) 0.0785(5) 0.82265(11)
Cl2 Cl 0.06535(7) 0.7503(5) 0.76166(11)
N1 N 0.1233(2) 0.3994(14) 0.6246(3)
C1 C 0.1636(3) 0.2595(18) 0.6779(4)
H1 H 0.1851 0.1504 0.6591
C2 C 0.1759(3) 0.2622(17) 0.7572(4)
C3 C 0.1465(3) 0.4152(18) 0.7867(4)
H2 H 0.1549 0.4225 0.8436
C4 C 0.1049(3) 0.5559(18) 0.7308(4)
C5 C 0.0942(3) 0.5519(17) 0.6516(4)
H3 H 0.0649 0.6611 0.6139
Hg1_2 Hg 0.105962(10) -0.59408(7) 0.480893(16)
I2_2 I 0.032980(17) 0.81160(11) 0.42816(3)
loop_
_geom_bond_atom_site_label_1
_geom_bond_atom_site_label_2
_geom_bond_site_symmetry_1
_geom_bond_site_symmetry_2
Hg1 I1 1_555 1_555
I2 Hg1 1_555 1_555
Cl1 C2 1_555 1_555
Cl2 C4 1_555 1_555
N1 Hg1 1_555 1_555
C1 N1 1_555 1_555
H1 C1 1_555 1_555
C2 C1 1_555 1_555
C3 C2 1_555 1_555
H2 C3 1_555 1_555
C4 C3 1_555 1_555
C5 N1 1_555 1_555
H3 C5 1_555 1_555
Hg1_2 I2 1_555 1_555
I2_2 Hg1 1_555 1_555
C4 C5 1_555 1_555

#END
