
#######################################################################
#
#                 Cambridge Crystallographic Data Centre
#                                CCDC 
#
#######################################################################
#
# If this CIF has been generated from an entry in the Cambridge 
# Structural Database, then it will include bibliographic, chemical, 
# crystal, experimental, refinement or atomic coordinate data resulting 
# from the CCDC's data processing and validation procedures.
#
#######################################################################

data_ADOQIV
_symmetry_cell_setting           monoclinic
_symmetry_space_group_name_H-M   'P 21'
_symmetry_Int_Tables_number      4
_space_group_name_Hall           'P 2yb'
loop_
_symmetry_equiv_pos_site_id
_symmetry_equiv_pos_as_xyz
1 x,y,z
2 -x,1/2+y,-z
_cell_length_a                   9.0828(3)
_cell_length_b                   20.1071(6)
_cell_length_c                   10.2803(3)
_cell_angle_alpha                90
_cell_angle_beta                 95.118(2)
_cell_angle_gamma                90
_cell_volume                     1869.99
loop_
_atom_site_label
_atom_site_type_symbol
_atom_site_fract_x
_atom_site_fract_y
_atom_site_fract_z
C1 C -0.6727(7) -0.3590(4) 0.1671(8)
H1 H -0.6329 -0.3906 0.2308
H2 H -0.7094 -0.3819 0.0890
H3 H -0.7520 -0.3349 0.2013
C2 C -0.5963(6) -0.2649(3) 0.0433(5)
C3 C -0.7265(7) -0.2633(4) -0.0345(6)
H4 H -0.7994 -0.2950 -0.0254
C4 C -0.7478(8) -0.2124(4) -0.1291(7)
H5 H -0.8353 -0.2111 -0.1835
C5 C -0.6427(8) -0.1654(4) -0.1419(6)
H6 H -0.6583 -0.1326 -0.2055
C6 C -0.5110(7) -0.1660(3) -0.0600(5)
C7 C -0.4872(6) -0.2167(3) 0.0337(4)
C8 C -0.4013(8) -0.1149(3) -0.0828(5)
H7 H -0.4280 -0.0824 -0.1449
C9 C -0.1667(9) -0.0590(3) -0.0487(8)
H8 H -0.1749 -0.0227 0.0125
H9 H -0.1878 -0.0417 -0.1365
C10 C -0.0108(9) -0.0879(3) -0.0326(8)
H10 H 0.0081 -0.1138 -0.1091
H11 H 0.0618 -0.0525 -0.0219
C11 C 0.1174(7) -0.1414(3) 0.1532(7)
H12 H 0.2020 -0.1202 0.1297
C12 C 0.1322(6) -0.1846(3) 0.2674(6)
C13 C 0.2625(7) -0.1806(4) 0.3532(8)
H13 H 0.3373 -0.1515 0.3343
C14 C 0.2801(7) -0.2184(5) 0.4627(9)
H14 H 0.3687 -0.2163 0.5155
C15 C 0.1680(7) -0.2605(4) 0.4976(7)
H15 H 0.1794 -0.2847 0.5750
C16 C 0.0390(5) -0.2655(3) 0.4147(6)
C17 C 0.0198(5) -0.2285(3) 0.2984(5)
C18 C -0.0820(7) -0.3317(4) 0.5673(6)
H16 H -0.1693 -0.3582 0.5720
H17 H -0.0821 -0.2958 0.6289
H18 H 0.0040 -0.3588 0.5875
C19 C -0.5412(6) 0.0951(3) 0.5096(5)
C20 C -0.2594(6) 0.0591(3) 0.5039(5)
C21 C -0.2625(7) 0.0762(3) 0.2558(6)
C22 C -0.6721(6) 0.0113(3) 0.3320(6)
C23 C -0.4691(7) -0.0315(3) 0.5150(5)
C24 C -0.5198(6) 0.1340(3) 0.2824(5)
C25 C -0.3296(6) -0.0510(3) 0.3135(5)
C26 C -0.5008(7) 0.0208(3) 0.1555(5)
Cu1 Cu -0.19093(8) -0.17068(3) 0.10967(7)
Tb1 Tb -0.28609(2) -0.318210(11) 0.235090(19)
N1 N -0.2723(6) -0.1117(2) -0.0240(5)
N2 N -0.0015(6) -0.1307(2) 0.0843(5)
N3 N -0.5994(6) 0.1258(2) 0.5840(5)
N4 N -0.1651(5) 0.0702(3) 0.5815(6)
N5 N -0.1694(7) 0.0942(4) 0.1991(7)
N6 N -0.7941(7) -0.0025(4) 0.3113(8)
N7 N -0.4746(8) -0.0702(3) 0.5948(6)
N8 N -0.5652(6) 0.1825(3) 0.2378(5)
N9 N -0.2724(7) -0.0985(3) 0.2855(5)
N10 N -0.5314(9) 0.0117(3) 0.0483(5)
O1 O -0.5581(3) -0.3131(2) 0.1374(3)
O2 O -0.3659(4) -0.22303(18) 0.1141(4)
O3 O -0.2483(5) -0.3325(2) 0.0080(4)
O4 O -0.1052(4) -0.23766(18) 0.2241(4)
O5 O -0.0645(4) -0.3863(2) 0.2228(5)
O6 O -0.0797(4) -0.30511(19) 0.4377(4)
O7 O -0.3605(5) -0.4314(2) 0.1812(4)
O8 O -0.3646(5) -0.2335(2) 0.3792(4)
W1 W -0.442880(18) 0.039410(8) 0.360200(15)
Tb1A Tb -0.71391(2) 0.181790(11) 0.764910(19)
N3A N -0.4006(6) -0.3742(2) 0.4160(5)
C27 C -0.0887(8) -0.5554(4) 0.3774(8)
C28 C 0.0122(11) -0.5878(5) 0.4707(11)
H19 H 0.0238 -0.5619 0.5493
H20 H 0.1062 -0.5925 0.4357
H21 H -0.0254 -0.6310 0.4899
N11 N -0.1677(9) -0.5311(4) 0.3023(9)
O9 O -0.3222(6) -0.1993(3) 0.6380(5)
O10 O -0.0819(5) -0.4321(3) -0.0678(6)
loop_
_geom_bond_atom_site_label_1
_geom_bond_atom_site_label_2
_geom_bond_site_symmetry_1
_geom_bond_site_symmetry_2
C1 H1 1_555 1_555
H2 C1 1_555 1_555
H3 C1 1_555 1_555
C2 C3 1_555 1_555
C3 H4 1_555 1_555
C4 C3 1_555 1_555
H5 C4 1_555 1_555
C5 C4 1_555 1_555
H6 C5 1_555 1_555
C6 C5 1_555 1_555
C7 C2 1_555 1_555
C8 C6 1_555 1_555
H7 C8 1_555 1_555
C9 H8 1_555 1_555
H9 C9 1_555 1_555
C10 C9 1_555 1_555
H10 C10 1_555 1_555
H11 C10 1_555 1_555
C11 H12 1_555 1_555
C12 C11 1_555 1_555
C13 C12 1_555 1_555
H13 C13 1_555 1_555
C14 C13 1_555 1_555
H14 C14 1_555 1_555
C15 C14 1_555 1_555
H15 C15 1_555 1_555
C16 C15 1_555 1_555
C17 C12 1_555 1_555
C18 H16 1_555 1_555
H17 C18 1_555 1_555
H18 C18 1_555 1_555
C19 N3 1_555 1_555
C20 N4 1_555 1_555
C21 N5 1_555 1_555
C22 N6 1_555 1_555
C23 N7 1_555 1_555
C24 N8 1_555 1_555
C25 N9 1_555 1_555
C26 N10 1_555 1_555
C27 C28 1_555 1_555
C28 H19 1_555 1_555
H20 C28 1_555 1_555
H21 C28 1_555 1_555
Cu1 N1 1_555 1_555
Tb1 O1 1_555 1_555
N1 C8 1_555 1_555
N2 C10 1_555 1_555
N3 Tb1A 1_555 1_555
N9 Cu1 1_555 1_555
N11 C27 1_555 1_555
O1 C1 1_555 1_555
O2 C7 1_555 1_555
O3 Tb1 1_555 1_555
O4 C17 1_555 1_555
O5 Tb1 1_555 1_555
O6 C16 1_555 1_555
O7 Tb1 1_555 1_555
O8 Tb1 1_555 1_555
W1 C19 1_555 1_555
N3A Tb1 1_555 1_555
C2 O1 1_555 1_555
C6 C7 1_555 1_555
C9 N1 1_555 1_555
C11 N2 1_555 1_555
C16 C17 1_555 1_555
C18 O6 1_555 1_555
C20 W1 1_555 1_555
C21 W1 1_555 1_555
C22 W1 1_555 1_555
C23 W1 1_555 1_555
C24 W1 1_555 1_555
C25 W1 1_555 1_555
C26 W1 1_555 1_555
Cu1 N2 1_555 1_555
Cu1 O2 1_555 1_555
Cu1 O4 1_555 1_555
Tb1 O2 1_555 1_555
Tb1 O4 1_555 1_555
Tb1 O6 1_555 1_555

#END
