
#######################################################################
#
#                 Cambridge Crystallographic Data Centre
#                                CCDC 
#
#######################################################################
#
# If this CIF has been generated from an entry in the Cambridge 
# Structural Database, then it will include bibliographic, chemical, 
# crystal, experimental, refinement or atomic coordinate data resulting 
# from the CCDC's data processing and validation procedures.
#
#######################################################################

data_ADOVIZ
_symmetry_cell_setting           monoclinic
_symmetry_space_group_name_H-M   'P 21/c'
_symmetry_Int_Tables_number      14
_space_group_name_Hall           '-P 2ybc'
loop_
_symmetry_equiv_pos_site_id
_symmetry_equiv_pos_as_xyz
1 x,y,z
2 -x,1/2+y,1/2-z
3 -x,-y,-z
4 x,1/2-y,1/2+z
_cell_length_a                   13.212(17)
_cell_length_b                   17.15(2)
_cell_length_c                   7.506(10)
_cell_angle_alpha                90
_cell_angle_beta                 93.71(2)
_cell_angle_gamma                90
_cell_volume                     1697.19
loop_
_atom_site_label
_atom_site_type_symbol
_atom_site_fract_x
_atom_site_fract_y
_atom_site_fract_z
Zn1 Zn 0.851775(18) 0.010412(13) 0.12017(3)
O1 O 0.89613(11) 0.11920(8) 0.0828(2)
O2 O 0.73918(11) 0.13477(9) -0.0319(2)
O3 O 0.61026(12) 0.40594(11) -0.1745(3)
O4 O 0.73242(11) 0.48937(8) -0.2362(2)
O5 O 1.02588(12) 0.46719(9) 0.2569(2)
O6 O 1.10035(11) 0.35028(9) 0.2654(2)
N1 N 0.80577(13) -0.04874(10) -0.1052(2)
N2 N 0.72136(13) -0.15684(11) -0.5919(2)
H1 H 0.7756(15) -0.1618(14) -0.649(3)
N3 N 0.45775(16) -0.15120(14) -0.9125(3)
H2 H 0.3999(16) -0.1460(17) -0.979(3)
C1 C 0.86374(16) -0.10296(13) -0.1777(3)
H3 H 0.9262 -0.1151 -0.1202
C2 C 0.83464(16) -0.14124(13) -0.3330(3)
H4 H 0.8762 -0.1795 -0.3770
C3 C 0.74264(16) -0.12264(12) -0.4248(3)
C4 C 0.68177(16) -0.06656(13) -0.3492(3)
H5 H 0.6193 -0.0528 -0.4044
C5 C 0.71638(16) -0.03231(13) -0.1916(3)
H6 H 0.6752 0.0046 -0.1417
C6 C 0.45207(18) -0.14835(15) -0.7355(4)
H7 H 0.3888 -0.1451 -0.6883
C7 C 0.53669(17) -0.15013(14) -0.6233(3)
H8 H 0.5314 -0.1480 -0.5004
C8 C 0.63229(16) -0.15526(12) -0.6934(3)
C9 C 0.63523(18) -0.16264(14) -0.8794(3)
H9 H 0.6968 -0.1701 -0.9304
C10 C 0.5473(2) -0.15882(16) -0.9849(3)
H10 H 0.5495 -0.1615 -1.1083
C11 C 0.83772(15) 0.24851(11) 0.0246(3)
C12 C 0.76466(15) 0.29710(11) -0.0573(3)
H11 H 0.7061 0.2755 -0.1123
C13 C 0.77758(15) 0.37748(12) -0.0584(3)
C14 C 0.86358(15) 0.40971(12) 0.0315(3)
H12 H 0.8726 0.4635 0.0330
C15 C 0.93576(15) 0.36167(11) 0.1190(3)
C16 C 0.92387(15) 0.28122(11) 0.1112(3)
H13 H 0.9738 0.2490 0.1643
C17 C 0.82259(15) 0.16192(11) 0.0231(3)
C18 C 0.69961(16) 0.42723(12) -0.1635(3)
C19 C 1.02805(15) 0.39450(12) 0.2204(3)
Zn1C Zn 0.851775(18) 0.489588(13) -0.37983(3)
Zn1A Zn 1.148225(18) 0.510412(13) 0.37983(3)
O4C O 0.73242(11) 0.01063(8) 0.2638(2)
O5A O 0.97412(12) -0.03281(9) 0.2431(2)
loop_
_geom_bond_atom_site_label_1
_geom_bond_atom_site_label_2
_geom_bond_site_symmetry_1
_geom_bond_site_symmetry_2
Zn1 O1 1_555 1_555
O1 C17 1_555 1_555
O2 C17 1_555 1_555
O3 C18 1_555 1_555
O4 C18 1_555 1_555
O5 C19 1_555 1_555
O6 C19 1_555 1_555
N1 Zn1 1_555 1_555
N2 H1 1_555 1_555
N3 H2 1_555 1_555
C1 N1 1_555 1_555
H3 C1 1_555 1_555
C2 C1 1_555 1_555
H4 C2 1_555 1_555
C3 N2 1_555 1_555
C4 C3 1_555 1_555
H5 C4 1_555 1_555
C5 N1 1_555 1_555
H6 C5 1_555 1_555
C6 N3 1_555 1_555
H7 C6 1_555 1_555
C7 C6 1_555 1_555
H8 C7 1_555 1_555
C8 N2 1_555 1_555
C9 C8 1_555 1_555
H9 C9 1_555 1_555
C10 N3 1_555 1_555
H10 C10 1_555 1_555
C11 C12 1_555 1_555
C12 H11 1_555 1_555
C13 C12 1_555 1_555
C14 C13 1_555 1_555
H12 C14 1_555 1_555
C15 C14 1_555 1_555
C16 C11 1_555 1_555
H13 C16 1_555 1_555
C17 C11 1_555 1_555
C18 C13 1_555 1_555
C19 C15 1_555 1_555
Zn1C O4 1_555 1_555
Zn1A O5 1_555 1_555
O4C Zn1 1_555 1_555
O5A Zn1 1_555 1_555
C2 C3 1_555 1_555
C4 C5 1_555 1_555
C7 C8 1_555 1_555
C9 C10 1_555 1_555
C15 C16 1_555 1_555

#END
