
#######################################################################
#
#                 Cambridge Crystallographic Data Centre
#                                CCDC 
#
#######################################################################
#
# If this CIF has been generated from an entry in the Cambridge 
# Structural Database, then it will include bibliographic, chemical, 
# crystal, experimental, refinement or atomic coordinate data resulting 
# from the CCDC's data processing and validation procedures.
#
#######################################################################

data_ADUBAE
_symmetry_cell_setting           orthorhombic
_symmetry_space_group_name_H-M   'I m m a'
_symmetry_Int_Tables_number      74
_space_group_name_Hall           '-I 2b 2'
loop_
_symmetry_equiv_pos_site_id
_symmetry_equiv_pos_as_xyz
1 x,y,z
2 -x,1/2-y,z
3 x,-y,-z
4 -x,1/2+y,-z
5 1/2+x,1/2+y,1/2+z
6 1/2-x,-y,1/2+z
7 1/2+x,1/2-y,1/2-z
8 1/2-x,y,1/2-z
9 -x,-y,-z
10 x,1/2+y,-z
11 -x,y,z
12 x,1/2-y,z
13 1/2-x,1/2-y,1/2-z
14 1/2+x,y,1/2-z
15 1/2-x,1/2+y,1/2+z
16 1/2+x,-y,1/2+z
_cell_length_a                   27.235(2)
_cell_length_b                   12.4825(8)
_cell_length_c                   14.2559(8)
_cell_angle_alpha                90
_cell_angle_beta                 90
_cell_angle_gamma                90
_cell_volume                     4846.45
loop_
_atom_site_label
_atom_site_type_symbol
_atom_site_fract_x
_atom_site_fract_y
_atom_site_fract_z
C1 C 0.4123(2) 0.1486(5) 0.4264(5)
C2 C 0.3476(3) 0.2500 0.5391(8)
C3 C 0.3792(3) 0.2500 0.2721(8)
C4 C 0.3099(2) 0.0406(6) 0.3834(5)
H1 H 0.3408 0.0093 0.3870
C5 C 0.2699(3) -0.0248(6) 0.3754(5)
H2 H 0.2742 -0.0987 0.3729
C6 C 0.2235(3) 0.0175(6) 0.3711(5)
C7 C 0.2196(2) 0.1290(6) 0.3747(5)
H3 H 0.1889 0.1614 0.3731
C8 C 0.26146(19) 0.1911(5) 0.3805(4)
C9 C 0.1778(3) -0.0510(8) 0.3664(7)
H4 H 0.1779 -0.0915 0.3091
H5 H 0.1493 -0.0058 0.3681
H6 H 0.1772 -0.0991 0.4189
Fe1 Fe 0.36122(4) 0.2500 0.40493(9)
N1 N 0.44437(19) 0.0927(5) 0.4422(5)
N2 N 0.3396(4) 0.2500 0.6172(7)
N3 N 0.3895(3) 0.2500 0.1980(7)
N4 N 0.30681(16) 0.1472(4) 0.3863(3)
Co1 Co 0.5000 0.0000 0.5000
O1 O 0.5000 0.0983(7) 0.6230(6)
C1B C 0.4123(2) -0.1486(5) 0.5736(5)
C1H C 0.5877(2) -0.1486(5) 0.5736(5)
C1J C 0.5877(2) 0.1486(5) 0.4264(5)
C1K C 0.4123(2) 0.3514(5) 0.4264(5)
C1I C 0.4123(2) -0.3514(5) 0.5736(5)
C2B C 0.3476(3) -0.2500 0.4609(8)
C3B C 0.3792(3) -0.2500 0.7279(8)
C4K C 0.3099(2) 0.4594(6) 0.3834(5)
C4B C 0.3099(2) -0.0406(6) 0.6166(5)
C4I C 0.3099(2) -0.4594(6) 0.6166(5)
H1K H 0.3408 0.4907 0.3870
H1B H 0.3408 -0.0093 0.6130
H1I H 0.3408 -0.4907 0.6130
C5K C 0.2699(3) 0.5248(6) 0.3754(5)
C5B C 0.2699(3) 0.0248(6) 0.6246(5)
C5I C 0.2699(3) -0.5248(6) 0.6246(5)
H2K H 0.2742 0.5987 0.3729
H2B H 0.2742 0.0987 0.6271
H2I H 0.2742 -0.5987 0.6271
C6K C 0.2235(3) 0.4825(6) 0.3711(5)
C6B C 0.2235(3) -0.0175(6) 0.6289(5)
C6I C 0.2235(3) -0.4825(6) 0.6289(5)
C7K C 0.2196(2) 0.3710(6) 0.3747(5)
C7B C 0.2196(2) -0.1290(6) 0.6253(5)
C7I C 0.2196(2) -0.3710(6) 0.6253(5)
H3K H 0.1889 0.3386 0.3731
H3B H 0.1889 -0.1614 0.6269
H3I H 0.1889 -0.3386 0.6269
C8K C 0.26146(19) 0.3089(5) 0.3805(4)
C8B C 0.26146(19) -0.1911(5) 0.6195(4)
C8I C 0.26146(19) -0.3089(5) 0.6195(4)
C9K C 0.1778(3) 0.5510(8) 0.3664(7)
C9B C 0.1778(3) 0.0510(8) 0.6336(7)
C9I C 0.1778(3) -0.5510(8) 0.6336(7)
H4K H 0.1779 0.5915 0.3091
H4B H 0.1779 0.0915 0.6909
H4I H 0.1779 -0.5915 0.6909
H5K H 0.1493 0.5058 0.3681
H5B H 0.1493 0.0058 0.6319
H5I H 0.1493 -0.5058 0.6319
H6K H 0.1772 0.5991 0.4189
H6B H 0.1772 0.0991 0.5811
H6I H 0.1772 -0.5991 0.5811
Fe1B Fe 0.36122(4) -0.2500 0.59507(9)
Fe1C Fe 0.63878(4) -0.2500 0.59507(9)
Fe1A Fe 0.63878(4) 0.2500 0.40493(9)
N1B N 0.44437(19) -0.0927(5) 0.5578(5)
N1H N 0.55563(19) -0.0927(5) 0.5578(5)
N1J N 0.55563(19) 0.0927(5) 0.4422(5)
N2B N 0.3396(4) -0.2500 0.3828(7)
N3B N 0.3895(3) -0.2500 0.8020(7)
N4K N 0.30681(16) 0.3528(4) 0.3863(3)
N4B N 0.30681(16) -0.1472(4) 0.6137(3)
N4I N 0.30681(16) -0.3528(4) 0.6137(3)
O1B O 0.5000 -0.0983(7) 0.3770(6)
O2 O 0.4338(5) 0.2500 0.7010(11)
O3 O 0.4516(9) 0.2500 0.8833(19)
O4 O 0.416(2) 0.366(10) 0.025(3)
loop_
_geom_bond_atom_site_label_1
_geom_bond_atom_site_label_2
_geom_bond_site_symmetry_1
_geom_bond_site_symmetry_2
C1 Fe1 1_555 1_555
C2 Fe1 1_555 1_555
C3 Fe1 1_555 1_555
C4 H1 1_555 1_555
C5 C4 1_555 1_555
H2 C5 1_555 1_555
C6 C5 1_555 1_555
C7 C6 1_555 1_555
H3 C7 1_555 1_555
C8 C7 1_555 1_555
C9 C6 1_555 1_555
H4 C9 1_555 1_555
H5 C9 1_555 1_555
H6 C9 1_555 1_555
Fe1 N4 1_555 1_555
N1 C1 1_555 1_555
N2 C2 1_555 1_555
N3 C3 1_555 1_555
N4 C4 1_555 1_555
Co1 N1 1_555 1_555
O1 Co1 1_555 1_555
C1B Fe1B 1_555 1_555
C1H Fe1C 1_555 1_555
C1J Fe1A 1_555 1_555
C1K Fe1 1_555 1_555
C1I Fe1B 1_555 1_555
C2B Fe1B 1_555 1_555
C3B Fe1B 1_555 1_555
C4K H1K 1_555 1_555
C4B H1B 1_555 1_555
C4I H1I 1_555 1_555
C5K C4K 1_555 1_555
C5B C4B 1_555 1_555
C5I C4I 1_555 1_555
H2K C5K 1_555 1_555
H2B C5B 1_555 1_555
H2I C5I 1_555 1_555
C6K C5K 1_555 1_555
C6B C5B 1_555 1_555
C6I C5I 1_555 1_555
C7K C6K 1_555 1_555
C7B C6B 1_555 1_555
C7I C6I 1_555 1_555
H3K C7K 1_555 1_555
H3B C7B 1_555 1_555
H3I C7I 1_555 1_555
C8K C8 1_555 1_555
C8B C7B 1_555 1_555
C8I C7I 1_555 1_555
C9K C6K 1_555 1_555
C9B C6B 1_555 1_555
C9I C6I 1_555 1_555
H4K C9K 1_555 1_555
H4B C9B 1_555 1_555
H4I C9I 1_555 1_555
H5K C9K 1_555 1_555
H5B C9B 1_555 1_555
H5I C9I 1_555 1_555
H6K C9K 1_555 1_555
H6B C9B 1_555 1_555
H6I C9I 1_555 1_555
Fe1B N4B 1_555 1_555
N1B Co1 1_555 1_555
N1H Co1 1_555 1_555
N1J Co1 1_555 1_555
N2B C2B 1_555 1_555
N3B C3B 1_555 1_555
N4K Fe1 1_555 1_555
N4B C4B 1_555 1_555
N4I C4I 1_555 1_555
O1B Co1 1_555 1_555
C8 N4 1_555 1_555
C1B N1B 1_555 1_555
C1H N1H 1_555 1_555
C1J N1J 1_555 1_555
C4K N4K 1_555 1_555
C7K C8K 1_555 1_555
C8K N4K 1_555 1_555
C8B C8I 1_555 1_555
C8B N4B 1_555 1_555
C8I N4I 1_555 1_555
Fe1B N4I 1_555 1_555

#END
