
#######################################################################
#
#                 Cambridge Crystallographic Data Centre
#                                CCDC 
#
#######################################################################
#
# If this CIF has been generated from an entry in the Cambridge 
# Structural Database, then it will include bibliographic, chemical, 
# crystal, experimental, refinement or atomic coordinate data resulting 
# from the CCDC's data processing and validation procedures.
#
#######################################################################

data_ADURUN
_symmetry_cell_setting           triclinic
_symmetry_space_group_name_H-M   'P -1'
_symmetry_Int_Tables_number      2
_space_group_name_Hall           '-P 1'
loop_
_symmetry_equiv_pos_site_id
_symmetry_equiv_pos_as_xyz
1 x,y,z
2 -x,-y,-z
_cell_length_a                   7.6561(5)
_cell_length_b                   12.4652(8)
_cell_length_c                   15.7501(10)
_cell_angle_alpha                80.0480(10)
_cell_angle_beta                 87.7900(10)
_cell_angle_gamma                74.08
_cell_volume                     1423.65
loop_
_atom_site_label
_atom_site_type_symbol
_atom_site_fract_x
_atom_site_fract_y
_atom_site_fract_z
Cl1 Cl 0.2791(3) 0.23378(15) 0.02949(9)
O5 O 0.3061(9) 0.1919(5) -0.0474(3)
O6 O 0.2717(9) 0.1537(5) 0.1023(3)
O7 O 0.4152(9) 0.2860(5) 0.0426(3)
O8 O 0.1115(10) 0.3180(7) 0.0223(4)
Cu1 Cu 0.38903(8) 0.60915(5) 0.55422(4)
Cu2 Cu 0.21298(8) 0.61452(5) 0.39165(4)
O1 O 0.3056(5) 0.5052(3) 0.4956(2)
O2 O 0.3233(5) 0.7053(3) 0.4467(2)
O3 O -0.1116(5) 0.6643(3) 0.4291(2)
O4 O -0.3808(5) 0.7765(3) 0.3753(2)
N1 N 0.3959(5) 0.5368(3) 0.6787(2)
N2 N 0.4553(5) 0.7279(3) 0.6090(2)
N3 N 0.1335(5) 0.5150(3) 0.3238(2)
N4 N 0.2074(5) 0.7061(3) 0.2737(2)
N5 N -0.0187(5) 1.0535(3) 0.3866(3)
C1 C 0.3587(7) 0.4379(4) 0.7098(3)
H1 H 0.3346 0.3942 0.6702
H2 H 0.3285 0.3263 0.8182
H3 H 0.3930 0.4348 0.9175
H4 H 0.4524 0.6098 0.8640
H5 H 0.518(7) 0.765(4) 0.803(3)
H6 H 0.593(7) 0.916(4) 0.725(3)
H7 H 0.564(7) 0.959(4) 0.582(3)
H8 H 0.474(7) 0.832(4) 0.509(3)
H9 H 0.094(7) 0.399(4) 0.415(3)
H10 H 0.025(7) 0.294(4) 0.326(3)
H11 H 0.023(7) 0.337(4) 0.180(3)
H12 H 0.078(7) 0.509(4) 0.123(3)
H13 H 0.146(7) 0.672(4) 0.077(3)
H14 H 0.233(7) 0.839(4) 0.052(3)
H15 H 0.304(7) 0.920(4) 0.156(3)
H16 H 0.276(7) 0.831(4) 0.297(3)
H17 H -0.072(7) 0.841(4) 0.510(3)
H18 H -0.271(7) 0.867(4) 0.230(3)
H19 H -0.261(7) 0.984(4) 0.102(3)
H20 H -0.118(7) 1.132(4) 0.106(3)
H21 H -0.006(7) 1.157(4) 0.232(3)
C2 C 0.3543(7) 0.3977(4) 0.7963(4)
C3 C 0.3921(8) 0.4596(5) 0.8543(4)
C4 C 0.4288(7) 0.5628(5) 0.8236(3)
C5 C 0.4304(6) 0.5986(4) 0.7356(3)
C6 C 0.4686(6) 0.7053(4) 0.6960(3)
C7 C 0.5193(7) 0.7773(4) 0.7422(3)
C8 C 0.5559(8) 0.8747(5) 0.6978(4)
C9 C 0.5412(8) 0.8968(5) 0.6094(4)
C10 C 0.4893(8) 0.8231(4) 0.5670(4)
C11 C 0.0920(7) 0.4178(4) 0.3566(3)
C12 C 0.0450(7) 0.3513(4) 0.3045(4)
C13 C 0.0424(8) 0.3845(5) 0.2166(4)
C14 C 0.0800(7) 0.4856(5) 0.1826(4)
C15 C 0.1243(6) 0.5496(4) 0.2376(3)
C16 C 0.1665(7) 0.6591(4) 0.2090(3)
C17 C 0.1718(8) 0.7092(5) 0.1232(4)
C18 C 0.2230(9) 0.8079(6) 0.1046(4)
C19 C 0.2665(8) 0.8568(5) 0.1694(4)
C20 C 0.2562(7) 0.8045(5) 0.2535(4)
C21 C -0.0274(6) 0.9853(4) 0.4597(3)
C22 C -0.0850(7) 0.8859(4) 0.4627(3)
C23 C -0.1477(6) 0.8613(4) 0.3907(3)
C24 C -0.1503(6) 0.9361(4) 0.3113(3)
C25 C -0.2144(7) 0.9225(4) 0.2317(3)
C26 C -0.2027(8) 0.9940(5) 0.1576(3)
C27 C -0.1248(9) 1.0827(5) 0.1583(4)
C28 C -0.0624(8) 1.0996(5) 0.2335(4)
C29 C -0.0762(7) 1.0289(4) 0.3123(3)
C30 C -0.2194(7) 0.7584(4) 0.3981(3)
H22 H 0.247(7) 0.464(4) 0.525(3)
H23 H 0.426(5) 0.711(5) 0.423(3)
Cu1A Cu 0.61097(8) 0.39085(5) 0.44578(4)
Cu2A Cu -0.21298(8) 1.38548(5) 0.60835(4)
Cu2A_2 Cu 0.78702(8) 0.38548(5) 0.60835(4)
O1A O 0.6944(5) 0.4948(3) 0.5044(2)
O2A O 0.6767(5) 0.2947(3) 0.5533(2)
O3A O 0.1116(5) 1.3357(3) 0.5709(2)
O3A_2 O 1.1116(5) 0.3357(3) 0.5709(2)
O4A O 0.3808(5) 1.2235(3) 0.6247(2)
N1A N 0.6041(5) 0.4632(3) 0.3213(2)
N2A N 0.5447(5) 0.2721(3) 0.3910(2)
N3A N 0.8665(5) 0.4850(3) 0.6762(2)
N4A N 0.7926(5) 0.2939(3) 0.7263(2)
N5A N 0.0187(5) 0.9465(3) 0.6134(3)
C1A C 0.6413(7) 0.5621(4) 0.2902(3)
H1A H 0.6654 0.6058 0.3298
H2A H 0.6715 0.6737 0.1818
H3A H 0.6070 0.5652 0.0825
H4A H 0.5476 0.3902 0.1360
H5A H 0.482(7) 0.235(4) 0.197(3)
H6A H 0.407(7) 0.084(4) 0.275(3)
H7A H 0.436(7) 0.041(4) 0.418(3)
H8A H 0.526(7) 0.168(4) 0.491(3)
H9A H 0.906(7) 0.601(4) 0.585(3)
H10A H 0.975(7) 0.706(4) 0.674(3)
H11A H 0.977(7) 0.663(4) 0.820(3)
H12A H 0.922(7) 0.491(4) 0.877(3)
H13A H 0.854(7) 0.328(4) 0.923(3)
H14A H 0.767(7) 0.161(4) 0.948(3)
H15A H 0.696(7) 0.080(4) 0.844(3)
H16A H 0.724(7) 0.169(4) 0.703(3)
H17A H 0.072(7) 1.159(4) 0.490(3)
H18A H 0.271(7) 1.133(4) 0.770(3)
H19A H 0.261(7) 1.016(4) 0.898(3)
H20A H 0.118(7) 0.868(4) 0.894(3)
H21A H 0.006(7) 0.843(4) 0.768(3)
C2A C 0.6457(7) 0.6023(4) 0.2037(4)
C3A C 0.6079(8) 0.5404(5) 0.1457(4)
C4A C 0.5712(7) 0.4372(5) 0.1764(3)
C5A C 0.5696(6) 0.4014(4) 0.2644(3)
C6A C 0.5314(6) 0.2947(4) 0.3040(3)
C7A C 0.4807(7) 0.2227(4) 0.2578(3)
C8A C 0.4441(8) 0.1253(5) 0.3022(4)
C9A C 0.4588(8) 0.1032(5) 0.3906(4)
C10A C 0.5107(8) 0.1769(4) 0.4330(4)
C11A C 0.9080(7) 0.5822(4) 0.6434(3)
C12A C 0.9550(7) 0.6487(4) 0.6955(4)
C13A C 0.9576(8) 0.6155(5) 0.7834(4)
C14A C 0.9200(7) 0.5144(5) 0.8174(4)
C15A C 0.8757(6) 0.4504(4) 0.7624(3)
C16A C 0.8335(7) 0.3409(4) 0.7910(3)
C17A C 0.8282(8) 0.2908(5) 0.8768(4)
C18A C 0.7770(9) 0.1921(6) 0.8954(4)
C19A C 0.7335(8) 0.1432(5) 0.8306(4)
C20A C 0.7438(7) 0.1955(5) 0.7465(4)
C21A C 0.0274(6) 1.0147(4) 0.5403(3)
C22A C 0.0850(7) 1.1141(4) 0.5373(3)
C23A C 0.1477(6) 1.1387(4) 0.6093(3)
C24A C 0.1503(6) 1.0639(4) 0.6887(3)
C25A C 0.2144(7) 1.0775(4) 0.7683(3)
C26A C 0.2027(8) 1.0060(5) 0.8424(3)
C27A C 0.1248(9) 0.9173(5) 0.8417(4)
C28A C 0.0624(8) 0.9004(5) 0.7665(4)
C29A C 0.0762(7) 0.9711(4) 0.6877(3)
C30A C 0.2194(7) 1.2416(4) 0.6019(3)
H22A H 0.753(7) 0.536(4) 0.475(3)
H23A H 0.574(5) 0.289(5) 0.577(3)
loop_
_geom_bond_atom_site_label_1
_geom_bond_atom_site_label_2
_geom_bond_site_symmetry_1
_geom_bond_site_symmetry_2
Cl1 O5 1_555 1_555
Cu1 O1 1_555 1_555
Cu2 O1 1_555 1_555
O1 H22 1_555 1_555
O2 Cu1 1_555 1_555
O3 Cu2 1_555 1_555
O4 C30 1_555 1_555
O6 Cl1 1_555 1_555
O7 Cl1 1_555 1_555
O8 Cl1 1_555 1_555
N1 Cu1 1_555 1_555
N2 Cu1 1_555 1_555
N3 Cu2 1_555 1_555
N4 Cu2 1_555 1_555
N5 C21 1_555 1_555
C1 N1 1_555 1_555
H1 C1 1_555 1_555
H2 C2 1_555 1_555
H3 C3 1_555 1_555
H4 C4 1_555 1_555
H5 C7 1_555 1_555
H6 C8 1_555 1_555
H7 C9 1_555 1_555
H8 C10 1_555 1_555
H9 C11 1_555 1_555
H10 C12 1_555 1_555
H11 C13 1_555 1_555
H12 C14 1_555 1_555
H13 C17 1_555 1_555
H14 C18 1_555 1_555
H15 C19 1_555 1_555
H16 C20 1_555 1_555
H17 C22 1_555 1_555
H18 C25 1_555 1_555
H19 C26 1_555 1_555
H20 C27 1_555 1_555
H21 C28 1_555 1_555
C2 C1 1_555 1_555
C3 C2 1_555 1_555
C4 C3 1_555 1_555
C5 N1 1_555 1_555
C6 N2 1_555 1_555
C7 C6 1_555 1_555
C8 C7 1_555 1_555
C9 C8 1_555 1_555
C10 N2 1_555 1_555
C11 N3 1_555 1_555
C12 C11 1_555 1_555
C13 C12 1_555 1_555
C14 C13 1_555 1_555
C15 N3 1_555 1_555
C16 N4 1_555 1_555
C17 C16 1_555 1_555
C18 C17 1_555 1_555
C19 C18 1_555 1_555
C20 N4 1_555 1_555
C21 C22 1_555 1_555
C22 C23 1_555 1_555
C23 C24 1_555 1_555
C24 C25 1_555 1_555
C25 C26 1_555 1_555
C26 C27 1_555 1_555
C27 C28 1_555 1_555
C28 C29 1_555 1_555
C29 N5 1_555 1_555
C30 O3 1_555 1_555
H23 O2 1_555 1_555
Cu1A O1 1_555 1_555
Cu2A O3A 1_555 1_555
Cu2A_2 O1A 1_555 1_555
O1A Cu1 1_555 1_555
O2A Cu1A 1_555 1_555
O3A C30A 1_555 1_555
O3A_2 Cu2A_2 1_555 1_555
O4A C30A 1_555 1_555
N1A Cu1A 1_555 1_555
N2A Cu1A 1_555 1_555
N3A Cu2A_2 1_555 1_555
N4A Cu2A_2 1_555 1_555
N5A C21A 1_555 1_555
C1A N1A 1_555 1_555
H1A C1A 1_555 1_555
H2A C2A 1_555 1_555
H3A C3A 1_555 1_555
H4A C4A 1_555 1_555
H5A C7A 1_555 1_555
H6A C8A 1_555 1_555
H7A C9A 1_555 1_555
H8A C10A 1_555 1_555
H9A C11A 1_555 1_555
H10A C12A 1_555 1_555
H11A C13A 1_555 1_555
H12A C14A 1_555 1_555
H13A C17A 1_555 1_555
H14A C18A 1_555 1_555
H15A C19A 1_555 1_555
H16A C20A 1_555 1_555
H17A C22A 1_555 1_555
H18A C25A 1_555 1_555
H19A C26A 1_555 1_555
H20A C27A 1_555 1_555
H21A C28A 1_555 1_555
C2A C1A 1_555 1_555
C3A C2A 1_555 1_555
C4A C3A 1_555 1_555
C5A N1A 1_555 1_555
C6A N2A 1_555 1_555
C7A C6A 1_555 1_555
C8A C7A 1_555 1_555
C9A C8A 1_555 1_555
C10A N2A 1_555 1_555
C11A N3A 1_555 1_555
C12A C11A 1_555 1_555
C13A C12A 1_555 1_555
C14A C13A 1_555 1_555
C15A N3A 1_555 1_555
C16A N4A 1_555 1_555
C17A C16A 1_555 1_555
C18A C17A 1_555 1_555
C19A C18A 1_555 1_555
C20A N4A 1_555 1_555
C21A C21 1_555 1_555
C22A C21A 1_555 1_555
C23A C22A 1_555 1_555
C24A C23A 1_555 1_555
C25A C24A 1_555 1_555
C26A C25A 1_555 1_555
C27A C26A 1_555 1_555
C28A C27A 1_555 1_555
C29A N5A 1_555 1_555
C30A C23A 1_555 1_555
H22A O1A 1_555 1_555
H23A O2A 1_555 1_555
Cu2 O2 1_555 1_555
C4 C5 1_555 1_555
C5 C6 1_555 1_555
C9 C10 1_555 1_555
C14 C15 1_555 1_555
C15 C16 1_555 1_555
C19 C20 1_555 1_555
C23 C30 1_555 1_555
C24 C29 1_555 1_555
Cu1A O1A 1_555 1_555
Cu2A_2 O2A 1_555 1_555
C4A C5A 1_555 1_555
C5A C6A 1_555 1_555
C9A C10A 1_555 1_555
C14A C15A 1_555 1_555
C15A C16A 1_555 1_555
C19A C20A 1_555 1_555
C24A C29A 1_555 1_555
C28A C29A 1_555 1_555

#END
