
#######################################################################
#
#                 Cambridge Crystallographic Data Centre
#                                CCDC 
#
#######################################################################
#
# If this CIF has been generated from an entry in the Cambridge 
# Structural Database, then it will include bibliographic, chemical, 
# crystal, experimental, refinement or atomic coordinate data resulting 
# from the CCDC's data processing and validation procedures.
#
#######################################################################

data_ADUTUP
_symmetry_cell_setting           monoclinic
_symmetry_space_group_name_H-M   'P 21/c'
_symmetry_Int_Tables_number      14
_space_group_name_Hall           '-P 2ybc'
loop_
_symmetry_equiv_pos_site_id
_symmetry_equiv_pos_as_xyz
1 x,y,z
2 -x,1/2+y,1/2-z
3 -x,-y,-z
4 x,1/2-y,1/2+z
_cell_length_a                   7.7231(7)
_cell_length_b                   12.7787(9)
_cell_length_c                   13.9374(13)
_cell_angle_alpha                90
_cell_angle_beta                 105.419(4)
_cell_angle_gamma                90
_cell_volume                     1325.99
loop_
_atom_site_label
_atom_site_type_symbol
_atom_site_fract_x
_atom_site_fract_y
_atom_site_fract_z
Ni1 Ni 0.5000 -0.5000 1.0000
Cl1 Cl 0.71763(8) -0.63168(5) 0.97039(4)
N1 N -0.2938(3) -0.42625(15) 0.10729(13)
N2 N -0.1474(3) -0.36085(16) 0.25342(14)
N3 N 0.5448(3) -0.40710(15) 0.88295(13)
C1 C 0.5853(4) -0.5493(2) 0.58690(18)
N4 N 0.6230(3) -0.37082(16) 0.74536(13)
C2 C 0.6047(3) -0.44297(19) 0.57957(17)
C3 C 0.4227(4) -0.3382(2) 0.82583(18)
C4 C -0.3039(3) -0.39959(19) 0.19724(17)
C5 C -0.1061(4) -0.5215(2) 0.40640(17)
C6 C -0.1208(3) -0.4030(2) 0.10585(19)
C7 C 0.7157(4) -0.3804(2) 0.66635(19)
C8 C -0.0291(4) -0.3633(2) 0.19511(19)
C9 C -0.1103(4) -0.3301(2) 0.35802(18)
C10 C 0.4677(4) -0.3157(2) 0.74065(18)
C11 C -0.0510(3) -0.41979(19) 0.42964(16)
C12 C 0.3370(4) -0.57558(19) 0.16796(17)
C13 C 0.4815(4) -0.6074(2) 0.50846(18)
C14 C 0.0561(4) -0.3987(2) 0.52473(18)
H1 H 0.236(3) -0.5299(19) 0.1497(17)
H2 H -0.407(3) -0.4071(18) 0.2233(17)
H3 H 0.167(4) -0.5838(19) 0.2989(18)
H4 H 0.266(4) -0.688(2) 0.3557(19)
H5 H 0.586(4) -0.727(2) 0.3153(19)
H6 H 0.090(4) -0.341(2) 0.2171(19)
H7 H -0.071(4) -0.415(2) 0.048(2)
H8 H -0.022(4) -0.277(2) 0.3724(18)
H9 H 0.349(3) -0.4162(19) 0.3515(18)
H10 H 0.674(4) -0.685(2) 0.1537(19)
H11 H -0.219(4) -0.298(2) 0.369(2)
H12 H 0.099(3) -0.328(2) 0.5414(17)
H13 H -0.177(3) -0.538(2) 0.3438(19)
H14 H 0.523(4) -0.317(2) 0.487(2)
Ni1_2 Ni -0.5000 -0.5000 0.0000
Ni1_3 Ni 0.5000 -0.5000 0.0000
Cl1B Cl 0.28237(8) -0.36832(5) 1.02961(4)
N1B N 0.2938(3) -0.57375(15) 0.89271(13)
N1_2 N 0.7062(3) -0.42625(15) 1.10729(13)
N2B N 0.1474(3) -0.63915(16) 0.74658(14)
N3B N 0.4552(3) -0.59290(15) 0.11705(13)
N3B_2 N 0.4552(3) -0.59290(15) 1.11705(13)
C1B C 0.4147(4) -0.4507(2) 0.41310(18)
N4B N 0.3770(3) -0.62918(16) 0.25464(13)
C2B C 0.3953(3) -0.55703(19) 0.42043(17)
C3B C 0.5773(4) -0.6618(2) 0.17417(18)
C4B C 0.3039(3) -0.60041(19) 0.80276(17)
C5B C 0.1061(4) -0.4785(2) 0.59360(17)
C6B C 0.1208(3) -0.5970(2) 0.89415(19)
C7B C 0.2843(4) -0.6196(2) 0.33365(19)
C8B C 0.0291(4) -0.6367(2) 0.80489(19)
C9B C 0.1103(4) -0.6699(2) 0.64198(18)
C10B C 0.5323(4) -0.6843(2) 0.25935(18)
C11B C 0.0510(3) -0.58021(19) 0.57036(16)
C12B C 0.6630(4) -0.42442(19) 0.83204(17)
C13B C 0.5185(4) -0.3926(2) 0.49154(18)
C14B C -0.0561(4) -0.6013(2) 0.47527(18)
H1B H 0.764(3) -0.4701(19) 0.8503(17)
H2B H 0.407(3) -0.5929(18) 0.7767(17)
H3B H 0.833(4) -0.4162(19) 0.7011(18)
H4B H 0.734(4) -0.312(2) 0.6443(19)
H5B H 0.414(4) -0.273(2) 0.6847(19)
H6B H -0.090(4) -0.659(2) 0.7829(19)
H7B H 0.071(4) -0.585(2) 0.952(2)
H8B H 0.022(4) -0.723(2) 0.6276(18)
H9B H 0.651(3) -0.5838(19) 0.6485(18)
H10B H 0.326(4) -0.315(2) 0.8463(19)
H11B H 0.219(4) -0.702(2) 0.631(2)
H12B H -0.099(3) -0.672(2) 0.4586(17)
H13B H 0.177(3) -0.462(2) 0.6562(19)
H14B H 0.477(4) -0.683(2) 0.513(2)
loop_
_geom_bond_atom_site_label_1
_geom_bond_atom_site_label_2
_geom_bond_site_symmetry_1
_geom_bond_site_symmetry_2
Ni1 Cl1 1_555 1_555
N1 C4 1_555 1_555
N2 C4 1_555 1_555
N3 Ni1 1_555 1_555
C1 C2 1_555 1_555
N4 C7 1_555 1_555
C2 C7 1_555 1_555
C3 N3 1_555 1_555
C4 H2 1_555 1_555
C5 C11 1_555 1_555
C6 N1 1_555 1_555
C7 H3B 1_555 1_555
C8 N2 1_555 1_555
C9 N2 1_555 1_555
C10 N4 1_555 1_555
C11 C9 1_555 1_555
C12 H1 1_555 1_555
C13 C1 1_555 1_555
C14 C11 1_555 1_555
H3 C7B 1_555 1_555
H4 C7B 1_555 1_555
H5 C10B 1_555 1_555
H6 C8 1_555 1_555
H7 C6 1_555 1_555
H8 C9 1_555 1_555
H9 C1B 1_555 1_555
H10 C3B 1_555 1_555
H11 C9 1_555 1_555
H12 C14 1_555 1_555
H13 C5 1_555 1_555
H14 C13B 1_555 1_555
Ni1_2 N1 1_555 1_555
Ni1_3 N3B 1_555 1_555
Cl1B Ni1 1_555 1_555
N1B Ni1 1_555 1_555
N1_2 Ni1 1_555 1_555
N2B C4B 1_555 1_555
N3B C12 1_555 1_555
N3B_2 Ni1 1_555 1_555
C1B C2B 1_555 1_555
N4B C12 1_555 1_555
C2B C13 1_555 1_555
C3B N3B 1_555 1_555
C4B N1B 1_555 1_555
C5B C14 1_555 1_555
C6B N1B 1_555 1_555
C7B N4B 1_555 1_555
C8B N2B 1_555 1_555
C9B N2B 1_555 1_555
C10B N4B 1_555 1_555
C11B C5B 1_555 1_555
C12B N3 1_555 1_555
C13B C2 1_555 1_555
C14B C5 1_555 1_555
H1B C12B 1_555 1_555
H2B C4B 1_555 1_555
H4B C7 1_555 1_555
H5B C10 1_555 1_555
H6B C8B 1_555 1_555
H7B C6B 1_555 1_555
H8B C9B 1_555 1_555
H9B C1 1_555 1_555
H10B C3 1_555 1_555
H11B C9B 1_555 1_555
H12B C14B 1_555 1_555
H13B C5B 1_555 1_555
H14B C13 1_555 1_555
N4 C12B 1_555 1_555
C3 C10 1_555 1_555
C6 C8 1_555 1_555
C1B C13B 1_555 1_555
C2B C7B 1_555 1_555
C3B C10B 1_555 1_555
C6B C8B 1_555 1_555
C9B C11B 1_555 1_555
C11B C14B 1_555 1_555

#END
