
#######################################################################
#
#                 Cambridge Crystallographic Data Centre
#                                CCDC 
#
#######################################################################
#
# If this CIF has been generated from an entry in the Cambridge 
# Structural Database, then it will include bibliographic, chemical, 
# crystal, experimental, refinement or atomic coordinate data resulting 
# from the CCDC's data processing and validation procedures.
#
#######################################################################

data_ADUTAV
_symmetry_cell_setting           orthorhombic
_symmetry_space_group_name_H-M   'P b c n'
_symmetry_Int_Tables_number      60
_space_group_name_Hall           '-P 2n 2ab'
loop_
_symmetry_equiv_pos_site_id
_symmetry_equiv_pos_as_xyz
1 x,y,z
2 1/2-x,1/2-y,1/2+z
3 -x,y,1/2-z
4 1/2+x,1/2-y,-z
5 -x,-y,-z
6 1/2+x,1/2+y,1/2-z
7 x,-y,1/2+z
8 1/2-x,1/2+y,z
_cell_length_a                   18.7158(2)
_cell_length_b                   11.6919(3)
_cell_length_c                   9.4799(2)
_cell_angle_alpha                90
_cell_angle_beta                 90
_cell_angle_gamma                90
_cell_volume                     2074.42
loop_
_atom_site_label
_atom_site_type_symbol
_atom_site_fract_x
_atom_site_fract_y
_atom_site_fract_z
Mn1 Mn 0.5000 0.04843(5) -0.2500
O1 O 0.41574(12) -0.05981(15) 0.0999(2)
O2 O 0.41639(12) 0.05127(15) -0.0900(2)
N1 N 0.5000 -0.1476(3) -0.2500
N2 N 0.5000 -0.7551(3) -0.2500
C1 C 0.38932(16) -0.0238(2) -0.0125(3)
C2 C 0.31832(15) -0.0758(3) -0.0535(3)
C3 C 0.28073(19) -0.0332(3) -0.1672(4)
H1 H 0.2990 0.0279 -0.2186
C4 C 0.2157(2) -0.0816(5) -0.2050(5)
H2 H 0.1899 -0.0517 -0.2803
C5 C 0.1894(2) -0.1736(4) -0.1313(5)
H3 H 0.1461 -0.2066 -0.1574
C6 C 0.2266(2) -0.2160(4) -0.0201(5)
H4 H 0.2086 -0.2780 0.0300
C7 C 0.29094(18) -0.1680(3) 0.0193(4)
H5 H 0.3160 -0.1980 0.0954
C8 C 0.44392(18) -0.2077(3) -0.2926(4)
H6 H 0.4039 -0.1677 -0.3237
C9 C 0.44090(19) -0.3260(3) -0.2940(4)
H7 H 0.3997 -0.3633 -0.3239
C10 C 0.5000 -0.3881(4) -0.2500
C11 C 0.5000 -0.5141(4) -0.2500
C12 C 0.46740(17) -0.5774(2) -0.3576(3)
H8 H 0.4440 -0.5399 -0.4309
C13 C 0.46992(18) -0.6946(2) -0.3550(3)
H9 H 0.5503 -0.7345 -0.0701
Mn1F Mn 0.5000 -0.04843(5) 0.2500
Mn1F_2 Mn 0.5000 -0.04843(5) -0.7500
Mn1_2 Mn 0.5000 -0.95157(5) -0.2500
O1F O 0.41574(12) 0.05981(15) -0.4001(2)
O1D O 0.58426(12) 0.05981(15) -0.0999(2)
O2F O 0.41639(12) -0.05127(15) -0.5900(2)
O2B O 0.58361(12) 0.05127(15) -0.4100(2)
N2_2 N 0.5000 0.2449(3) -0.2500
C1F C 0.38932(16) 0.0238(2) -0.5125(3)
C2F C 0.31832(15) 0.0758(3) -0.5535(3)
C3F C 0.28073(19) 0.0332(3) -0.6672(4)
H1F H 0.2990 -0.0279 -0.7186
C4F C 0.2157(2) 0.0816(5) -0.7050(5)
H2F H 0.1899 0.0517 -0.7803
C5F C 0.1894(2) 0.1736(4) -0.6313(5)
H3F H 0.1461 0.2066 -0.6574
C6F C 0.2266(2) 0.2160(4) -0.5201(5)
H4F H 0.2086 0.2780 -0.4700
C7F C 0.29094(18) 0.1680(3) -0.4807(4)
H5F H 0.3160 0.1980 -0.4046
C8B C 0.55608(18) -0.2077(3) -0.2074(4)
H6B H 0.5961 -0.1677 -0.1763
C9B C 0.55910(19) -0.3260(3) -0.2060(4)
H7B H 0.6003 -0.3633 -0.1761
C12B C 0.53260(17) -0.5774(2) -0.1424(3)
H8B H 0.5560 -0.5399 -0.0691
C13B C 0.53008(18) -0.6946(2) -0.1450(3)
H9B H 0.4497 -0.7345 -0.4299
loop_
_geom_bond_atom_site_label_1
_geom_bond_atom_site_label_2
_geom_bond_site_symmetry_1
_geom_bond_site_symmetry_2
Mn1 O2 1_555 1_555
O1 C1 1_555 1_555
O2 C1 1_555 1_555
N1 Mn1 1_555 1_555
N2 C13 1_555 1_555
C1 C2 1_555 1_555
C2 C3 1_555 1_555
C3 H1 1_555 1_555
C4 C3 1_555 1_555
H2 C4 1_555 1_555
C5 C4 1_555 1_555
H3 C5 1_555 1_555
C6 C5 1_555 1_555
H4 C6 1_555 1_555
C7 C2 1_555 1_555
H5 C7 1_555 1_555
C8 N1 1_555 1_555
H6 C8 1_555 1_555
C9 C8 1_555 1_555
H7 C9 1_555 1_555
C10 C9 1_555 1_555
C11 C10 1_555 1_555
C12 C11 1_555 1_555
H8 C12 1_555 1_555
C13 C12 1_555 1_555
H9 C13B 1_555 1_555
Mn1F O1 1_555 1_555
Mn1F_2 O2F 1_555 1_555
Mn1_2 N2 1_555 1_555
O1F Mn1 1_555 1_555
O1D Mn1 1_555 1_555
O2F C1F 1_555 1_555
O2B Mn1 1_555 1_555
N2_2 Mn1 1_555 1_555
C1F O1F 1_555 1_555
C2F C1F 1_555 1_555
C3F C2F 1_555 1_555
H1F C3F 1_555 1_555
C4F C3F 1_555 1_555
H2F C4F 1_555 1_555
C5F C4F 1_555 1_555
H3F C5F 1_555 1_555
C6F C5F 1_555 1_555
H4F C6F 1_555 1_555
C7F C2F 1_555 1_555
H5F C7F 1_555 1_555
C8B N1 1_555 1_555
H6B C8B 1_555 1_555
C9B C10 1_555 1_555
H7B C9B 1_555 1_555
C12B C11 1_555 1_555
H8B C12B 1_555 1_555
C13B N2 1_555 1_555
H9B C13 1_555 1_555
C6 C7 1_555 1_555
C6F C7F 1_555 1_555
C8B C9B 1_555 1_555
C12B C13B 1_555 1_555

#END
