
#######################################################################
#
#                 Cambridge Crystallographic Data Centre
#                                CCDC 
#
#######################################################################
#
# If this CIF has been generated from an entry in the Cambridge 
# Structural Database, then it will include bibliographic, chemical, 
# crystal, experimental, refinement or atomic coordinate data resulting 
# from the CCDC's data processing and validation procedures.
#
#######################################################################

data_ADUVEB
_symmetry_cell_setting           monoclinic
_symmetry_space_group_name_H-M   'P 21/c'
_symmetry_Int_Tables_number      14
_space_group_name_Hall           '-P 2ybc'
loop_
_symmetry_equiv_pos_site_id
_symmetry_equiv_pos_as_xyz
1 x,y,z
2 -x,1/2+y,1/2-z
3 -x,-y,-z
4 x,1/2-y,1/2+z
_cell_length_a                   16.8374(14)
_cell_length_b                   16.9825(14)
_cell_length_c                   9.9392(8)
_cell_angle_alpha                90
_cell_angle_beta                 95.9830(10)
_cell_angle_gamma                90
_cell_volume                     2826.55
loop_
_atom_site_label
_atom_site_type_symbol
_atom_site_fract_x
_atom_site_fract_y
_atom_site_fract_z
Pb1 Pb 0.098790(9) 0.403000(8) -0.343720(14)
S1 S 0.10208(6) 0.58662(5) -0.49214(10)
S2 S 0.12656(7) 0.22798(6) -0.53272(11)
O1 O 0.13744(16) 0.50778(15) -0.4985(3)
O2 O 0.0893(2) 0.62202(19) -0.6250(3)
O3 O 0.02992(18) 0.58341(17) -0.4241(3)
O4 O 0.15207(19) 0.30968(16) -0.5106(3)
O5 O 0.1337(2) 0.20611(18) -0.6727(3)
O6 O 0.0481(2) 0.2155(2) -0.4916(4)
N1 N 0.1411(2) 0.4974(2) -0.1458(3)
N2 N 0.2478(2) 0.4243(2) -0.2922(3)
N3 N 0.0733(2) 0.7090(2) -0.2659(4)
H1 H 0.0342 0.6873 -0.3152
H2 H 0.0639 0.7403 -0.2015
N4 N 0.0947(3) 0.1097(2) -0.3015(5)
H3 H 0.0560 0.1313 -0.3518
H4 H 0.0848 0.0798 -0.2354
C1 C 0.2192(2) 0.5104(2) -0.1117(4)
C2 C 0.2754(2) 0.4729(2) -0.1897(4)
C3 C 0.2994(3) 0.3907(3) -0.3667(5)
H5 H 0.2799 0.3572 -0.4364
C4 C 0.3813(3) 0.4035(3) -0.3449(6)
H6 H 0.4156 0.3793 -0.3996
C5 C 0.4105(3) 0.4520(3) -0.2418(5)
H7 H 0.4652 0.4607 -0.2251
C6 C 0.3583(3) 0.4884(3) -0.1622(5)
C7 C 0.3836(3) 0.5407(3) -0.0508(5)
H8 H 0.4377 0.5517 -0.0309
C8 C 0.3305(3) 0.5738(3) 0.0245(5)
H9 H 0.3487 0.6060 0.0969
C9 C 0.2478(3) 0.5606(2) -0.0043(4)
C10 C 0.1902(4) 0.5966(3) 0.0686(5)
H10 H 0.2063 0.6298 0.1408
C11 C 0.1114(4) 0.5831(3) 0.0337(6)
H11 H 0.0729 0.6061 0.0819
C12 C 0.0896(3) 0.5341(3) -0.0756(5)
H12 H 0.0354 0.5266 -0.1013
C13 C 0.1732(2) 0.6443(2) -0.3904(4)
C14 C 0.2562(2) 0.6391(2) -0.4130(4)
C15 C 0.2848(3) 0.5971(2) -0.5210(5)
H13 H 0.2488 0.5698 -0.5813
C16 C 0.3645(3) 0.5956(3) -0.5386(6)
H14 H 0.3816 0.5670 -0.6099
C17 C 0.4204(3) 0.6365(3) -0.4513(6)
H15 H 0.4744 0.6347 -0.4634
C18 C 0.3947(3) 0.6790(3) -0.3482(6)
H16 H 0.4317 0.7071 -0.2911
C19 C 0.3139(3) 0.6815(2) -0.3259(5)
C20 C 0.2874(3) 0.7257(3) -0.2181(5)
H17 H 0.3247 0.7510 -0.1575
C21 C 0.2102(3) 0.7316(2) -0.2017(4)
H18 H 0.1952 0.7615 -0.1301
C22 C 0.1495(3) 0.6937(2) -0.2898(4)
C23 C 0.1960(2) 0.1700(2) -0.4300(4)
C24 C 0.2790(2) 0.1761(2) -0.4505(4)
C25 C 0.3087(3) 0.2204(2) -0.5570(4)
H19 H 0.2730 0.2464 -0.6196
C26 C 0.3886(3) 0.2251(3) -0.5681(5)
H20 H 0.4062 0.2544 -0.6382
C27 C 0.4447(3) 0.1872(3) -0.4774(5)
H21 H 0.4990 0.1918 -0.4858
C28 C 0.4185(3) 0.1432(3) -0.3762(5)
H22 H 0.4556 0.1167 -0.3166
C29 C 0.3369(3) 0.1368(2) -0.3595(4)
C30 C 0.3099(3) 0.0917(2) -0.2532(5)
H23 H 0.3471 0.0666 -0.1921
C31 C 0.2317(3) 0.0844(2) -0.2385(5)
H24 H 0.2162 0.0532 -0.1689
C32 C 0.1718(3) 0.1230(2) -0.3266(4)
Pb1C Pb 0.098790(9) 0.097000(8) -0.843720(14)
O5C O 0.1337(2) 0.29389(18) -0.1727(3)
loop_
_geom_bond_atom_site_label_1
_geom_bond_atom_site_label_2
_geom_bond_site_symmetry_1
_geom_bond_site_symmetry_2
Pb1 O1 1_555 1_555
S1 O1 1_555 1_555
S2 O4 1_555 1_555
O2 S1 1_555 1_555
O3 S1 1_555 1_555
O4 Pb1 1_555 1_555
O5 S2 1_555 1_555
O6 S2 1_555 1_555
N1 Pb1 1_555 1_555
N2 Pb1 1_555 1_555
N3 H1 1_555 1_555
H2 N3 1_555 1_555
N4 H3 1_555 1_555
H4 N4 1_555 1_555
C1 N1 1_555 1_555
C2 N2 1_555 1_555
C3 N2 1_555 1_555
H5 C3 1_555 1_555
C4 C3 1_555 1_555
H6 C4 1_555 1_555
C5 C4 1_555 1_555
H7 C5 1_555 1_555
C6 C2 1_555 1_555
C7 C6 1_555 1_555
H8 C7 1_555 1_555
C8 C7 1_555 1_555
H9 C8 1_555 1_555
C9 C1 1_555 1_555
C10 C9 1_555 1_555
H10 C10 1_555 1_555
C11 C10 1_555 1_555
H11 C11 1_555 1_555
C12 N1 1_555 1_555
H12 C12 1_555 1_555
C13 S1 1_555 1_555
C14 C13 1_555 1_555
C15 C14 1_555 1_555
H13 C15 1_555 1_555
C16 C15 1_555 1_555
H14 C16 1_555 1_555
C17 C16 1_555 1_555
H15 C17 1_555 1_555
C18 C17 1_555 1_555
H16 C18 1_555 1_555
C19 C14 1_555 1_555
C20 C19 1_555 1_555
H17 C20 1_555 1_555
C21 C20 1_555 1_555
H18 C21 1_555 1_555
C22 N3 1_555 1_555
C23 S2 1_555 1_555
C24 C23 1_555 1_555
C25 C24 1_555 1_555
H19 C25 1_555 1_555
C26 C25 1_555 1_555
H20 C26 1_555 1_555
C27 C26 1_555 1_555
H21 C27 1_555 1_555
C28 C27 1_555 1_555
H22 C28 1_555 1_555
C29 C24 1_555 1_555
C30 C29 1_555 1_555
H23 C30 1_555 1_555
C31 C30 1_555 1_555
H24 C31 1_555 1_555
C32 N4 1_555 1_555
Pb1C O5 1_555 1_555
O5C Pb1 1_555 1_555
C1 C2 1_555 1_555
C5 C6 1_555 1_555
C8 C9 1_555 1_555
C11 C12 1_555 1_555
C13 C22 1_555 1_555
C18 C19 1_555 1_555
C21 C22 1_555 1_555
C23 C32 1_555 1_555
C28 C29 1_555 1_555
C31 C32 1_555 1_555

#END
