
#######################################################################
#
#                 Cambridge Crystallographic Data Centre
#                                CCDC 
#
#######################################################################
#
# If this CIF has been generated from an entry in the Cambridge 
# Structural Database, then it will include bibliographic, chemical, 
# crystal, experimental, refinement or atomic coordinate data resulting 
# from the CCDC's data processing and validation procedures.
#
#######################################################################

data_AFALUP
_symmetry_cell_setting           triclinic
_symmetry_space_group_name_H-M   'P -1'
_symmetry_Int_Tables_number      2
_space_group_name_Hall           '-P 1'
loop_
_symmetry_equiv_pos_site_id
_symmetry_equiv_pos_as_xyz
1 x,y,z
2 -x,-y,-z
_cell_length_a                   14.239(3)
_cell_length_b                   17.396(4)
_cell_length_c                   24.691(5)
_cell_angle_alpha                106.77(3)
_cell_angle_beta                 104.68(3)
_cell_angle_gamma                94.20(3)
_cell_volume                     5593.56
loop_
_atom_site_label
_atom_site_type_symbol
_atom_site_fract_x
_atom_site_fract_y
_atom_site_fract_z
W1 W 0.19677(3) 0.94713(2) 0.603860(15)
W2 W 0.43319(3) 0.87984(2) 0.600250(15)
W3 W 0.56003(3) 0.99797(2) 0.868060(15)
W4 W 0.42014(3) 1.09900(3) 0.647830(18)
W5 W 0.60940(3) 0.90949(3) 0.726629(17)
W6 W 0.33601(3) 0.67749(2) 0.604199(15)
W7 W 0.59298(3) 1.12786(3) 0.777270(18)
W8 W 0.46184(3) 0.79462(2) 0.872389(15)
W9 W 0.34540(3) 1.06437(2) 0.873490(15)
W10 W 0.15404(3) 1.02962(2) 0.734100(17)
W11 W 0.09888(3) 0.74296(2) 0.606130(16)
W12 W 0.51333(3) 0.70649(2) 0.730869(17)
W13 W 0.37256(3) 1.18648(3) 0.777320(18)
W14 W 0.24696(3) 0.85897(3) 0.874569(15)
W15 W 0.05603(3) 0.82513(3) 0.735630(17)
W16 W 0.12341(4) 0.64968(3) 0.783859(19)
W17 W 0.16102(4) 0.56462(3) 0.651689(18)
W18 W 0.34029(4) 0.58827(3) 0.776879(19)
P1 P 0.38668(2) 0.977582(19) 0.734800(12)
P2 P 0.28287(2) 0.76187(2) 0.737419(12)
Cu1 Cu 0.97660(5) 1.06174(5) 0.58038(4)
Cu2 Cu 0.47765(5) 0.54802(3) 0.56351(2)
Cu3 Cu 0.11008(5) 0.82518(4) 0.97887(2)
Cu4 Cu 0.28315(5) 1.41936(4) 1.23406(3)
Cu5 Cu -0.04202(7) 1.18517(6) 0.75607(4)
C1 C -0.06355(4) 0.80158(4) 0.87142(3)
H1 H -0.0289 0.7697 0.8488
C2 C -0.14791(4) 0.81407(4) 0.84813(3)
H2 H -0.1714 0.7914 0.8073
C3 C -0.21360(5) 0.85948(5) 0.87683(3)
H3 H -0.2763 0.8643 0.8564
C4 C -0.17322(5) 0.89552(5) 0.93847(3)
H4 H -0.2093 0.9265 0.9606
C5 C -0.07801(5) 0.88459(5) 0.96659(3)
C6 C -0.02708(6) 0.91475(5) 1.02909(3)
C7 C -0.07200(6) 0.95378(5) 1.06989(3)
H5 H -0.1376 0.9599 1.0578
C8 C -0.02018(7) 0.98374(6) 1.12857(4)
H6 H -0.0506 1.0102 1.1562
C9 C 0.07657(7) 0.97464(5) 1.14643(3)
H7 H 0.1117 0.9949 1.1862
C10 C 0.12147(6) 0.93563(5) 1.10561(3)
H8 H 0.1871 0.9295 1.1177
C11 C 0.20533(5) 0.68325(4) 0.94957(2)
H9 H 0.1500 0.6595 0.9176
C12 C 0.28896(5) 0.64798(4) 0.95410(2)
H10 H 0.2902 0.6003 0.9252
C13 C 0.37072(5) 0.68309(4) 1.00134(2)
C14 C 0.36886(5) 0.75346(4) 1.04405(2)
H11 H 0.4242 0.7773 1.0760
C15 C 0.28524(5) 0.78871(4) 1.03954(2)
H12 H 0.2840 0.8364 1.0685
C16 C 0.59927(6) 0.60937(4) 1.05479(3)
H13 H 0.6409 0.6117 1.0911
C17 C 0.51892(6) 0.65259(4) 1.05905(3)
H14 H 0.5092 0.6815 1.0948
C18 C 0.45337(5) 0.64683(4) 1.00162(3)
C19 C 0.46980(5) 0.60169(4) 0.95461(3)
H15 H 0.4217 0.5933 0.9191
C20 C 0.56081(5) 0.56030(4) 0.95119(3)
H16 H 0.5730 0.5340 0.9157
C21 C 0.39898(5) 1.58448(4) 1.25827(3)
H17 H 0.4167 1.5608 1.2242
C22 C 0.42754(6) 1.66770(4) 1.28813(3)
H18 H 0.4643 1.6995 1.2739
C23 C 0.40090(6) 1.70324(4) 1.33933(4)
H19 H 0.4199 1.7587 1.3592
C24 C 0.34565(6) 1.65554(4) 1.36067(4)
H20 H 0.3279 1.6792 1.3948
C25 C 0.31709(6) 1.57232(4) 1.33081(3)
C26 C 0.25461(5) 1.51470(4) 1.34240(3)
C27 C 0.22213(6) 1.53548(5) 1.39203(4)
H21 H 0.2459 1.5861 1.4206
C28 C 0.15441(6) 1.48121(5) 1.39922(4)
H22 H 0.1325 1.4952 1.4327
C29 C 0.11916(5) 1.40616(5) 1.35676(4)
H23 H 0.0735 1.3696 1.3616
C30 C 0.15166(5) 1.38539(4) 1.30713(3)
H24 H 0.1279 1.3348 1.2785
C31 C 0.28841(4) 1.33235(3) 1.11460(3)
H25 H 0.3525 1.3273 1.1324
C32 C 0.24956(5) 1.30088(4) 1.05383(3)
H26 H 0.2876 1.2747 1.0309
C33 C 0.15413(5) 1.30845(4) 1.02727(3)
C34 C 0.09755(5) 1.34750(5) 1.06148(3)
H27 H 0.0335 1.3526 1.0436
C35 C 0.13640(5) 1.37899(4) 1.12226(3)
H28 H 0.0984 1.4052 1.1452
C36 C 0.11609(6) 1.22324(5) 0.86098(3)
H29 H 0.1532 1.2087 0.8347
C37 C 0.16138(6) 1.25292(5) 0.92018(3)
H30 H 0.2294 1.2586 0.9343
C38 C 0.10695(5) 1.27428(5) 0.95875(3)
C39 C 0.00723(6) 1.26593(5) 0.93811(4)
H31 H -0.0299 1.2805 0.9644
C40 C -0.03806(6) 1.23625(6) 0.87890(4)
H32 H -0.1061 1.2306 0.8648
C41 C -0.22198(8) 1.07890(7) 0.68280(5)
H33 H -0.2128 1.0558 0.7130
C42 C -0.30684(9) 1.04936(7) 0.63297(5)
H34 H -0.3530 1.0069 0.6306
C43 C -0.32096(9) 1.08479(8) 0.58678(5)
H35 H -0.3764 1.0655 0.5542
C44 C -0.25023(9) 1.14976(8) 0.59042(5)
H36 H -0.2594 1.1729 0.5603
C45 C -0.16537(9) 1.17930(7) 0.64026(5)
C46 C -0.10612(9) 1.22969(7) 0.63879(5)
C47 C -0.09596(9) 1.27167(8) 0.59583(5)
H37 H -0.1347 1.2507 0.5568
C48 C -0.02413(9) 1.34703(7) 0.61495(5)
H38 H -0.0177 1.3734 0.5879
C49 C 0.03752(9) 1.38041(7) 0.67707(5)
H39 H 0.0827 1.4278 0.6891
C50 C 0.02737(8) 1.33844(7) 0.72004(5)
H40 H 0.0661 1.3594 0.7591
C51 C 0.14502(6) 0.18719(6) 0.63173(4)
H41 H 0.1524 0.1712 0.6652
C52 C 0.21168(7) 0.24763(7) 0.63149(5)
H42 H 0.2645 0.2728 0.6648
C53 C 0.20078(7) 0.27109(7) 0.58232(5)
C54 C 0.12321(7) 0.23413(7) 0.53333(5)
H43 H 0.1158 0.2501 0.4998
C55 C 0.05656(7) 0.17368(6) 0.53356(4)
H44 H 0.0038 0.1485 0.5002
C56 C 0.41488(5) 0.43460(3) 0.61698(3)
H45 H 0.4760 0.4534 0.6449
C57 C 0.35133(5) 0.37740(3) 0.62185(3)
H46 H 0.3686 0.3567 0.6531
C58 C 0.26272(6) 0.35021(3) 0.58137(3)
C59 C 0.23765(5) 0.38024(3) 0.53604(3)
H47 H 0.1765 0.3615 0.5081
C60 C 0.30119(5) 0.43745(3) 0.53118(2)
H48 H 0.2839 0.4582 0.4999
C61 C 0.89515(5) 0.94763(5) 0.62300(3)
H49 H 0.9497 0.9708 0.6557
C62 C 0.83261(4) 0.88425(4) 0.62134(3)
H50 H 0.8440 0.8637 0.6529
C63 C 0.75347(4) 0.85063(4) 0.57393(3)
C64 C 0.73685(5) 0.88041(4) 0.52814(3)
H51 H 0.6823 0.8573 0.4955
C65 C 0.79940(5) 0.94380(5) 0.52979(3)
H52 H 0.7880 0.9643 0.4982
C66 C 0.64903(4) 0.66410(3) 0.60723(2)
H53 H 0.6659 0.6382 0.6356
C67 C 0.71063(4) 0.73279(4) 0.61073(3)
H54 H 0.7685 0.7526 0.6415
C68 C 0.68522(4) 0.77166(4) 0.56803(3)
C69 C 0.59823(4) 0.74181(4) 0.52183(2)
H55 H 0.5813 0.7677 0.4934
C70 C 0.53665(4) 0.67312(3) 0.51833(2)
H56 H 0.4788 0.6533 0.4876
N1 N -0.02318(5) 0.83762(4) 0.93305(3)
N2 N 0.06965(5) 0.90568(5) 1.04693(3)
N3 N 0.20346(5) 0.75359(4) 0.99232(2)
N4 N 0.38981(5) 0.46462(3) 0.57165(2)
N5 N 0.56205(4) 0.63427(3) 0.56103(2)
N6 N 0.87853(5) 0.97743(5) 0.57723(3)
N7 N 0.06746(6) 0.15022(6) 0.58275(4)
N8 N 0.21937(5) 1.43966(4) 1.29995(3)
N9 N 0.23182(5) 1.37141(4) 1.14880(3)
N10 N 0.01638(6) 1.21489(5) 0.84033(4)
N11 N 0.34374(5) 1.53679(4) 1.27960(3)
N12 N 0.62636(6) 0.56606(4) 1.00862(3)
H57 H 0.6783 0.5434 1.0125
N13 N -0.04446(8) 1.26307(7) 0.70089(5)
N14 N -0.15124(8) 1.14387(7) 0.68645(5)
O1 O 0.70741(4) 1.18207(3) 0.80294(2)
O2 O 0.34637(4) 1.28273(3) 0.80473(2)
O3 O 0.54919(3) 1.13763(3) 0.699790(19)
O4 O 0.32835(2) 0.81649(2) 0.802209(12)
O5 O 0.39263(4) 0.51697(3) 0.80428(2)
O6 O 0.22590(4) 0.59038(3) 0.80697(2)
O7 O 0.25720(4) 0.52085(3) 0.70131(2)
O8 O 0.09945(4) 0.47757(3) 0.59808(2)
O9 O 0.01712(4) 0.70242(3) 0.539520(19)
O10 O 0.28739(3) 1.04319(3) 0.620870(17)
O11 O 0.39469(3) 0.68717(3) 0.842059(17)
O12 O 0.01476(3) 0.77328(3) 0.651960(18)
O13 O 0.50558(3) 0.90662(2) 0.882249(14)
O14 O 0.61604(3) 1.02540(3) 0.740790(17)
O15 O 0.40692(2) 0.975092(19) 0.798860(12)
O16 O 0.13044(3) 0.94510(3) 0.536190(19)
O17 O 0.22486(3) 1.03777(2) 0.810870(16)
O18 O 0.56582(3) 0.88475(3) 0.643700(17)
O19 O 0.26526(4) 0.59707(2) 0.623569(17)
O20 O 0.05655(3) 0.72203(3) 0.748279(18)
O21 O 0.12749(3) 0.84874(2) 0.605390(15)
O22 O 0.36700(3) 0.83255(3) 0.912929(16)
O23 O 0.29885(3) 0.88857(2) 0.588480(14)
O24 O 0.42613(3) 1.06355(2) 0.735470(14)
O25 O 0.40487(3) 0.77410(2) 0.605579(15)
O26 O 0.59552(3) 0.93435(2) 0.805979(15)
O27 O 0.72950(3) 0.90089(3) 0.73595(2)
O28 O 0.35852(3) 0.74985(2) 0.704879(12)
O29 O 0.19635(2) 0.79354(2) 0.705920(13)
O30 O 0.47910(3) 1.06090(2) 0.910370(15)
O31 O 0.38192(3) 1.14412(2) 0.841300(17)
O32 O 0.27770(2) 0.95899(2) 0.704330(12)
O33 O 0.04097(4) 0.61820(3) 0.81350(2)
O34 O 0.56001(3) 0.79853(2) 0.716849(16)
O35 O 0.24755(3) 1.12270(2) 0.743800(18)
O36 O 0.52118(3) 0.76622(2) 0.807199(16)
O37 O 0.31583(3) 0.96034(2) 0.884420(14)
O38 O 0.66458(3) 1.01967(3) 0.924280(18)
O39 O 0.43812(2) 0.91659(2) 0.701630(12)
O40 O 0.14443(3) 0.86913(3) 0.811950(16)
O41 O 0.58382(3) 1.08689(2) 0.837840(16)
O42 O 0.45460(3) 0.65539(2) 0.648549(18)
O43 O 0.44062(4) 0.85437(3) 0.531170(18)
O44 O 0.12126(3) 1.00996(3) 0.650760(18)
O45 O 0.42424(4) 1.14115(3) 0.59477(2)
O46 O 0.37871(4) 1.18425(3) 0.700470(19)
O47 O 0.19140(3) 0.74339(3) 0.844369(17)
O48 O 0.06002(3) 1.08293(3) 0.74570(2)
O49 O 0.08682(4) 0.57233(3) 0.70556(2)
O50 O 0.09277(3) 0.92838(3) 0.723490(17)
O51 O 0.43177(3) 0.61947(2) 0.742139(18)
O52 O 0.09920(3) 0.64583(3) 0.626339(17)
O53 O 0.24373(3) 0.67598(2) 0.737009(15)
O54 O -0.05349(3) 0.84062(3) 0.74717(2)
O55 O 0.62233(4) 0.66191(3) 0.74002(2)
O56 O 0.45253(3) 0.99735(3) 0.619460(16)
O57 O 0.51444(4) 1.20835(3) 0.801490(19)
O58 O 0.55077(4) 0.78511(3) 0.926689(19)
O59 O 0.19767(4) 0.88714(3) 0.932650(19)
O60 O 0.31348(4) 1.12377(3) 0.930000(19)
O61 O 0.21822(3) 0.72168(2) 0.591039(14)
O62 O 0.33221(4) 0.61935(3) 0.536509(19)
Cu1_2 Cu -0.02340(5) 0.06174(5) 0.58038(4)
Cu4A Cu 0.71685(5) 0.58064(4) 0.76594(3)
N7_2 N 1.06746(6) 1.15022(6) 0.58275(4)
O55A O 0.37767(4) 1.33809(3) 1.25998(2)
O63 O 0.50000(4) 1.00000(3) 1.000000(18)
O67 O 0.78036(6) 0.50011(5) 0.99371(4)
O68 O 0.22148(5) 0.42012(4) 0.81891(3)
O64? O 0.45259(4) 1.00180(3) 0.997800(18)
O65? O 0.75606(6) 0.51333(5) 1.00712(4)
O66? O 0.73068(6) 0.51151(5) 1.00362(4)
loop_
_geom_bond_atom_site_label_1
_geom_bond_atom_site_label_2
_geom_bond_site_symmetry_1
_geom_bond_site_symmetry_2
W1 O10 1_555 1_555
W2 O18 1_555 1_555
W3 O13 1_555 1_555
W4 O3 1_555 1_555
W5 O14 1_555 1_555
W6 O19 1_555 1_555
W7 O1 1_555 1_555
W8 O4 1_555 1_555
W9 O15 1_555 1_555
W10 O17 1_555 1_555
W11 O9 1_555 1_555
W12 O28 1_555 1_555
W13 O2 1_555 1_555
W14 O4 1_555 1_555
W15 O12 1_555 1_555
W16 O6 1_555 1_555
W17 O7 1_555 1_555
W18 O5 1_555 1_555
P1 O15 1_555 1_555
P2 O4 1_555 1_555
Cu1 N6 1_555 1_555
Cu2 N4 1_555 1_555
Cu3 N1 1_555 1_555
Cu4 N8 1_555 1_555
Cu5 N10 1_555 1_555
C1 H1 1_555 1_555
C2 C1 1_555 1_555
H2 C2 1_555 1_555
C3 C2 1_555 1_555
H3 C3 1_555 1_555
C4 C3 1_555 1_555
H4 C4 1_555 1_555
C5 C4 1_555 1_555
C6 C5 1_555 1_555
C7 C6 1_555 1_555
H5 C7 1_555 1_555
C8 C7 1_555 1_555
H6 C8 1_555 1_555
C9 C8 1_555 1_555
H7 C9 1_555 1_555
C10 C9 1_555 1_555
H8 C10 1_555 1_555
C11 H9 1_555 1_555
C12 C11 1_555 1_555
H10 C12 1_555 1_555
C13 C12 1_555 1_555
C14 C13 1_555 1_555
H11 C14 1_555 1_555
C15 C14 1_555 1_555
H12 C15 1_555 1_555
C16 H13 1_555 1_555
C17 C16 1_555 1_555
H14 C17 1_555 1_555
C18 C13 1_555 1_555
C19 C18 1_555 1_555
H15 C19 1_555 1_555
C20 C19 1_555 1_555
H16 C20 1_555 1_555
C21 H17 1_555 1_555
C22 C21 1_555 1_555
H18 C22 1_555 1_555
C23 C22 1_555 1_555
H19 C23 1_555 1_555
C24 C23 1_555 1_555
H20 C24 1_555 1_555
C25 C24 1_555 1_555
C26 C25 1_555 1_555
C27 C26 1_555 1_555
H21 C27 1_555 1_555
C28 C27 1_555 1_555
H22 C28 1_555 1_555
C29 C28 1_555 1_555
H23 C29 1_555 1_555
C30 C29 1_555 1_555
H24 C30 1_555 1_555
C31 H25 1_555 1_555
C32 C31 1_555 1_555
H26 C32 1_555 1_555
C33 C32 1_555 1_555
C34 C33 1_555 1_555
H27 C34 1_555 1_555
C35 C34 1_555 1_555
H28 C35 1_555 1_555
C36 H29 1_555 1_555
C37 C36 1_555 1_555
H30 C37 1_555 1_555
C38 C33 1_555 1_555
C39 C38 1_555 1_555
H31 C39 1_555 1_555
C40 C39 1_555 1_555
H32 C40 1_555 1_555
C41 H33 1_555 1_555
C42 C41 1_555 1_555
H34 C42 1_555 1_555
C43 C42 1_555 1_555
H35 C43 1_555 1_555
C44 C43 1_555 1_555
H36 C44 1_555 1_555
C45 C44 1_555 1_555
C46 C45 1_555 1_555
C47 C46 1_555 1_555
H37 C47 1_555 1_555
C48 C47 1_555 1_555
H38 C48 1_555 1_555
C49 C48 1_555 1_555
H39 C49 1_555 1_555
C50 C49 1_555 1_555
H40 C50 1_555 1_555
C51 H41 1_555 1_555
C52 C51 1_555 1_555
H42 C52 1_555 1_555
C53 C52 1_555 1_555
C54 C53 1_555 1_555
H43 C54 1_555 1_555
C55 C54 1_555 1_555
H44 C55 1_555 1_555
C56 H45 1_555 1_555
C57 C56 1_555 1_555
H46 C57 1_555 1_555
C58 C53 1_555 1_555
C59 C58 1_555 1_555
H47 C59 1_555 1_555
C60 C59 1_555 1_555
H48 C60 1_555 1_555
C61 H49 1_555 1_555
C62 C61 1_555 1_555
H50 C62 1_555 1_555
C63 C62 1_555 1_555
C64 C63 1_555 1_555
H51 C64 1_555 1_555
C65 C64 1_555 1_555
H52 C65 1_555 1_555
C66 H53 1_555 1_555
C67 C66 1_555 1_555
H54 C67 1_555 1_555
C68 C63 1_555 1_555
C69 C68 1_555 1_555
H55 C69 1_555 1_555
C70 C69 1_555 1_555
H56 C70 1_555 1_555
N1 C1 1_555 1_555
N2 Cu3 1_555 1_555
N3 Cu3 1_555 1_555
N4 C56 1_555 1_555
N5 Cu2 1_555 1_555
N6 C61 1_555 1_555
N7 C51 1_555 1_555
N8 C26 1_555 1_555
N9 Cu4 1_555 1_555
N10 C36 1_555 1_555
N11 Cu4 1_555 1_555
N12 C16 1_555 1_555
H57 N12 1_555 1_555
N13 Cu5 1_555 1_555
N14 Cu5 1_555 1_555
O3 W7 1_555 1_555
O6 W18 1_555 1_555
O7 W18 1_555 1_555
O8 W17 1_555 1_555
O10 W4 1_555 1_555
O11 W8 1_555 1_555
O12 W11 1_555 1_555
O13 W8 1_555 1_555
O14 W7 1_555 1_555
O15 W3 1_555 1_555
O16 W1 1_555 1_555
O17 W9 1_555 1_555
O18 W5 1_555 1_555
O19 W17 1_555 1_555
O20 W15 1_555 1_555
O21 W1 1_555 1_555
O22 W8 1_555 1_555
O23 W1 1_555 1_555
O24 W4 1_555 1_555
O25 W2 1_555 1_555
O26 W3 1_555 1_555
O27 W5 1_555 1_555
O28 W6 1_555 1_555
O29 W11 1_555 1_555
O30 W3 1_555 1_555
O31 W9 1_555 1_555
O32 W1 1_555 1_555
O33 W16 1_555 1_555
O34 W5 1_555 1_555
O35 W10 1_555 1_555
O36 W8 1_555 1_555
O37 W9 1_555 1_555
O38 W3 1_555 1_555
O39 W2 1_555 1_555
O40 W14 1_555 1_555
O41 W3 1_555 1_555
O42 W6 1_555 1_555
O43 W2 1_555 1_555
O44 W1 1_555 1_555
O45 W4 1_555 1_555
O46 W4 1_555 1_555
O47 W14 1_555 1_555
O48 W10 1_555 1_555
O49 W16 1_555 1_555
O50 W10 1_555 1_555
O51 W12 1_555 1_555
O52 W11 1_555 1_555
O53 W16 1_555 1_555
O54 W15 1_555 1_555
O55 W12 1_555 1_555
O56 W2 1_555 1_555
O57 W7 1_555 1_555
O58 W8 1_555 1_555
O59 W14 1_555 1_555
O60 W9 1_555 1_555
O61 W6 1_555 1_555
O62 W6 1_555 1_555
Cu1_2 N7 1_555 1_555
Cu4A O55 1_555 1_555
N7_2 Cu1 1_555 1_555
O55A Cu4 1_555 1_555
W2 O23 1_555 1_555
W4 O56 1_555 1_555
W5 O26 1_555 1_555
W5 O39 1_555 1_555
W6 O25 1_555 1_555
W7 O24 1_555 1_555
W7 O41 1_555 1_555
W9 O30 1_555 1_555
W10 O32 1_555 1_555
W10 O44 1_555 1_555
W11 O21 1_555 1_555
W11 O61 1_555 1_555
W12 O34 1_555 1_555
W12 O36 1_555 1_555
W12 O42 1_555 1_555
W13 O24 1_555 1_555
W13 O31 1_555 1_555
W13 O35 1_555 1_555
W13 O46 1_555 1_555
W13 O57 1_555 1_555
W14 O22 1_555 1_555
W14 O37 1_555 1_555
W15 O29 1_555 1_555
W15 O40 1_555 1_555
W15 O50 1_555 1_555
W16 O20 1_555 1_555
W16 O47 1_555 1_555
W17 O49 1_555 1_555
W17 O52 1_555 1_555
W17 O53 1_555 1_555
W18 O11 1_555 1_555
W18 O51 1_555 1_555
W18 O53 1_555 1_555
P1 O24 1_555 1_555
P1 O32 1_555 1_555
P1 O39 1_555 1_555
P2 O28 1_555 1_555
P2 O29 1_555 1_555
P2 O53 1_555 1_555
Cu2 O42 1_555 1_555
Cu2 O62 1_555 1_555
Cu3 O59 1_555 1_555
Cu5 O48 1_555 1_555
C5 N1 1_555 1_555
C6 N2 1_555 1_555
C10 N2 1_555 1_555
C11 N3 1_555 1_555
C15 N3 1_555 1_555
C17 C18 1_555 1_555
C20 N12 1_555 1_555
C21 N11 1_555 1_555
C25 N11 1_555 1_555
C30 N8 1_555 1_555
C31 N9 1_555 1_555
C35 N9 1_555 1_555
C37 C38 1_555 1_555
C40 N10 1_555 1_555
C41 N14 1_555 1_555
C45 N14 1_555 1_555
C46 N13 1_555 1_555
C50 N13 1_555 1_555
C55 N7 1_555 1_555
C57 C58 1_555 1_555
C60 N4 1_555 1_555
C65 N6 1_555 1_555
C66 N5 1_555 1_555
C67 C68 1_555 1_555
C70 N5 1_555 1_555

#END
