
#######################################################################
#
#                 Cambridge Crystallographic Data Centre
#                                CCDC 
#
#######################################################################
#
# If this CIF has been generated from an entry in the Cambridge 
# Structural Database, then it will include bibliographic, chemical, 
# crystal, experimental, refinement or atomic coordinate data resulting 
# from the CCDC's data processing and validation procedures.
#
#######################################################################

data_AFATAD
_symmetry_cell_setting           monoclinic
_symmetry_space_group_name_H-M   'P 21/n'
_symmetry_Int_Tables_number      14
_space_group_name_Hall           '-P 2yn'
loop_
_symmetry_equiv_pos_site_id
_symmetry_equiv_pos_as_xyz
1 x,y,z
2 1/2-x,1/2+y,1/2-z
3 -x,-y,-z
4 1/2+x,1/2-y,1/2+z
_cell_length_a                   9.2206(2)
_cell_length_b                   7.7428(2)
_cell_length_c                   14.8613(3)
_cell_angle_alpha                90
_cell_angle_beta                 93.7248(12)
_cell_angle_gamma                90
_cell_volume                     1058.76
loop_
_atom_site_label
_atom_site_type_symbol
_atom_site_fract_x
_atom_site_fract_y
_atom_site_fract_z
Co1 Co 0.0000 0.0000 0.0000
S1 S -0.19516(19) -0.4862(2) -0.16500(12)
N1 N -0.0673(6) -0.1672(7) 0.1113(3)
N2 N -0.0235(6) -0.2168(8) 0.3543(4)
H1 H 0.0546 -0.1519 0.3623
N3 N -0.1670(7) -0.3750(8) 0.2479(4)
N4 N 0.0031(6) -0.2655(8) 0.5070(4)
N5 N -0.2787(5) -0.3978(7) 0.5089(3)
N6 N -0.0646(6) -0.1842(7) -0.0956(3)
C1 C -0.1606(8) -0.2954(10) 0.0930(5)
H2 H -0.1936 -0.3178 0.0322
C2 C -0.2097(8) -0.3954(10) 0.1605(5)
H3 H -0.2777 -0.4843 0.1446
C3 C -0.0736(7) -0.2470(8) 0.2655(4)
C4 C -0.0239(7) -0.1427(8) 0.1971(4)
H4 H 0.0426 -0.0521 0.2125
C5 C -0.0825(7) -0.2775(8) 0.4316(4)
C6 C -0.2744(7) 0.1605(8) 0.0671(4)
H5 H -0.2140 0.1600 0.1214
C7 C -0.1906(7) -0.3927(9) 0.5842(4)
H6 H -0.2766 0.0638 -0.1391
C8 C -0.0513(7) -0.3238(9) 0.5825(5)
H7 H 0.0076 -0.3180 0.6373
C9 C -0.1171(7) -0.3084(8) -0.1262(4)
Co1C Co -0.5000 -0.5000 0.5000
Co1C_2 Co -0.5000 0.5000 0.5000
S1B S 0.19516(19) 0.4862(2) 0.16500(12)
N1A N -0.4327(6) 0.3328(7) 0.3887(3)
N1B N 0.0673(6) 0.1672(7) -0.1113(3)
N2A N -0.4765(6) 0.2832(8) 0.1457(4)
H1A H -0.5546 0.3481 0.1377
N3A N -0.3330(7) 0.1250(8) 0.2521(4)
N4A N -0.5031(6) 0.2345(8) -0.0070(4)
N5C N 0.2213(5) -0.1022(7) 0.0089(3)
N5A N -0.2213(5) 0.1022(7) -0.0089(3)
N6B N 0.0646(6) 0.1842(7) 0.0956(3)
C1A C -0.3394(8) 0.2046(10) 0.4070(5)
H2A H -0.3064 0.1822 0.4678
C2A C -0.2903(8) 0.1046(10) 0.3395(5)
H3A H -0.2223 0.0157 0.3554
C3A C -0.4264(7) 0.2530(8) 0.2345(4)
C4A C -0.4761(7) 0.3573(8) 0.3029(4)
H4A H -0.5426 0.4479 0.2875
C5A C -0.4175(7) 0.2225(8) 0.0684(4)
C6A C -0.2256(7) -0.3395(8) 0.4329(4)
H5A H -0.2860 -0.3400 0.3786
C7A C -0.3094(7) 0.1073(9) -0.0842(4)
H6A H -0.2234 -0.4362 0.6391
C8A C -0.4487(7) 0.1762(9) -0.0825(5)
H7A H -0.5076 0.1820 -0.1373
C9B C 0.1171(7) 0.3084(8) 0.1262(4)
loop_
_geom_bond_atom_site_label_1
_geom_bond_atom_site_label_2
_geom_bond_site_symmetry_1
_geom_bond_site_symmetry_2
Co1 N1 1_555 1_555
S1 C9 1_555 1_555
N1 C1 1_555 1_555
N2 H1 1_555 1_555
N3 C2 1_555 1_555
N4 C5 1_555 1_555
N5 C7 1_555 1_555
N6 Co1 1_555 1_555
C1 H2 1_555 1_555
C2 C1 1_555 1_555
H3 C2 1_555 1_555
C3 N2 1_555 1_555
C4 N1 1_555 1_555
H4 C4 1_555 1_555
C5 N2 1_555 1_555
C6 H5 1_555 1_555
C7 C8 1_555 1_555
H6 C7A 1_555 1_555
C8 N4 1_555 1_555
H7 C8 1_555 1_555
C9 N6 1_555 1_555
Co1C N5 1_555 1_555
Co1C_2 N1A 1_555 1_555
S1B C9B 1_555 1_555
N1A C1A 1_555 1_555
N1B Co1 1_555 1_555
N2A H1A 1_555 1_555
N3A C2A 1_555 1_555
N4A C5A 1_555 1_555
N5C Co1 1_555 1_555
N5A Co1 1_555 1_555
N6B Co1 1_555 1_555
C1A H2A 1_555 1_555
C2A C1A 1_555 1_555
H3A C2A 1_555 1_555
C3A N2A 1_555 1_555
C4A N1A 1_555 1_555
H4A C4A 1_555 1_555
C5A C6 1_555 1_555
C6A N5 1_555 1_555
H5A C6A 1_555 1_555
C7A N5A 1_555 1_555
H6A C7 1_555 1_555
C8A N4A 1_555 1_555
H7A C8A 1_555 1_555
C9B N6B 1_555 1_555
N3 C3 1_555 1_555
C3 C4 1_555 1_555
C5 C6A 1_555 1_555
C6 N5A 1_555 1_555
N2A C5A 1_555 1_555
N3A C3A 1_555 1_555
C3A C4A 1_555 1_555
C7A C8A 1_555 1_555

#END
