
#######################################################################
#
#                 Cambridge Crystallographic Data Centre
#                                CCDC 
#
#######################################################################
#
# If this CIF has been generated from an entry in the Cambridge 
# Structural Database, then it will include bibliographic, chemical, 
# crystal, experimental, refinement or atomic coordinate data resulting 
# from the CCDC's data processing and validation procedures.
#
#######################################################################

data_AFEBEU
_symmetry_cell_setting           triclinic
_symmetry_space_group_name_H-M   'P -1'
_symmetry_Int_Tables_number      2
_space_group_name_Hall           '-P 1'
loop_
_symmetry_equiv_pos_site_id
_symmetry_equiv_pos_as_xyz
1 x,y,z
2 -x,-y,-z
_cell_length_a                   9.5230(10)
_cell_length_b                   10.1986(11)
_cell_length_c                   13.4493(14)
_cell_angle_alpha                91.3730(10)
_cell_angle_beta                 90.7620(10)
_cell_angle_gamma                99.4040(10)
_cell_volume                     1288.09
loop_
_atom_site_label
_atom_site_type_symbol
_atom_site_fract_x
_atom_site_fract_y
_atom_site_fract_z
Cd1 Cd 0.34310(3) 1.16998(2) 0.352210(18)
N1 N 0.1925(3) 1.1762(3) 0.4883(2)
N2 N 0.1040(3) 1.1238(3) 0.2981(2)
N3 N 0.6676(4) 0.7219(4) 0.0386(3)
H1 H 0.6838 0.8032 0.0063
N4 N 0.8451(4) 0.4771(4) 0.1067(3)
O1 O 0.4452(4) 0.3284(3) 0.2407(2)
O2 O 0.3410(4) 0.4131(3) 0.3634(3)
O3 O 0.3715(3) 0.9229(3) 0.3831(2)
O4 O 0.4017(3) 1.0181(3) 0.2387(2)
O5 O 0.5460(3) 1.1980(3) 0.4479(2)
H2 H 0.5652 1.1562 0.4969
H3 H 0.5938 1.2844 0.4536
C1 C 0.5827(4) 0.7019(4) 0.1209(3)
C2 C 0.5431(4) 0.5779(4) 0.1631(3)
H4 H 0.5735 0.5035 0.1347
C3 C 0.4592(4) 0.5642(3) 0.2466(3)
C4 C 0.4148(4) 0.6744(3) 0.2912(3)
H5 H 0.3610 0.6652 0.3486
C5 C 0.4514(4) 0.7987(3) 0.2492(3)
C6 C 0.5336(4) 0.8112(4) 0.1638(3)
H6 H 0.5560 0.8938 0.1350
C7 C 0.7381(5) 0.6202(5) -0.0040(3)
H7 H 0.7732 0.6475 -0.0689
H8 H 0.6698 0.5390 -0.0132
C8 C 0.8614(4) 0.5921(4) 0.0601(3)
C9 C 0.9856(6) 0.6845(6) 0.0718(4)
H9 H 0.9950 0.7645 0.0388
C10 C 1.0935(6) 0.6580(7) 0.1317(4)
H10 H 1.1781 0.7179 0.1381
C11 C 1.0752(6) 0.5404(6) 0.1829(4)
H11 H 1.1453 0.5209 0.2263
C12 C 0.9506(6) 0.4538(6) 0.1674(4)
H12 H 0.9384 0.3741 0.2010
C13 C 0.4129(4) 0.4269(4) 0.2867(3)
C14 C 0.4046(4) 0.9206(3) 0.2941(3)
C15 C 0.2409(5) 1.2011(5) 0.5812(3)
H13 H 0.3383 1.2088 0.5936
C16 C 0.1521(6) 1.2160(5) 0.6609(3)
H14 H 0.1891 1.2363 0.7248
C17 C 0.0083(6) 1.1997(5) 0.6420(4)
H15 H -0.0546 1.2057 0.6935
C18 C -0.0414(5) 1.1745(4) 0.5466(3)
H16 H -0.1386 1.1640 0.5330
C19 C 0.0525(4) 1.1645(3) 0.4698(3)
C20 C 0.0032(4) 1.1370(4) 0.3647(3)
C21 C -0.1393(5) 1.1238(5) 0.3369(4)
H17 H -0.2070 1.1360 0.3839
C22 C -0.1803(5) 1.0925(5) 0.2392(4)
H18 H -0.2754 1.0841 0.2195
C23 C -0.0782(6) 1.0738(5) 0.1717(4)
H19 H -0.1030 1.0496 0.1060
C24 C 0.0626(5) 1.0919(5) 0.2035(3)
H20 H 0.1318 1.0815 0.1572
Cd1_2 Cd 0.34310(3) 0.16998(2) 0.352210(18)
O1_2 O 0.4452(4) 1.3284(3) 0.2407(2)
O2_2 O 0.3410(4) 1.4131(3) 0.3634(3)
O6 O 0.3011(4) 0.9889(4) 0.0347(2)
H21 H 0.3263 0.9285 0.0035
H22 H 0.3384 0.9849 0.0937
O7 O 0.6356(4) 0.2319(4) 0.0793(3)
H23 H 0.6957 0.3061 0.0785
H24 H 0.5714 0.2560 0.1307
O8 O 0.6859(7) 0.4449(5) 0.4710(4)
O9? O 0.8094(14) 0.4679(11) 0.4374(9)
loop_
_geom_bond_atom_site_label_1
_geom_bond_atom_site_label_2
_geom_bond_site_symmetry_1
_geom_bond_site_symmetry_2
Cd1 N1 1_555 1_555
N1 C15 1_555 1_555
N2 Cd1 1_555 1_555
N3 H1 1_555 1_555
N4 C8 1_555 1_555
O1 C13 1_555 1_555
O2 C13 1_555 1_555
O3 Cd1 1_555 1_555
O4 Cd1 1_555 1_555
O5 Cd1 1_555 1_555
H2 O5 1_555 1_555
H3 O5 1_555 1_555
C1 N3 1_555 1_555
C2 C1 1_555 1_555
H4 C2 1_555 1_555
C3 C2 1_555 1_555
C4 C3 1_555 1_555
H5 C4 1_555 1_555
C5 C4 1_555 1_555
C6 C1 1_555 1_555
H6 C6 1_555 1_555
C7 N3 1_555 1_555
H7 C7 1_555 1_555
H8 C7 1_555 1_555
C8 C7 1_555 1_555
C9 C8 1_555 1_555
H9 C9 1_555 1_555
C10 C9 1_555 1_555
H10 C10 1_555 1_555
C11 C10 1_555 1_555
H11 C11 1_555 1_555
C12 N4 1_555 1_555
H12 C12 1_555 1_555
C13 C3 1_555 1_555
C14 O3 1_555 1_555
C15 H13 1_555 1_555
C16 C15 1_555 1_555
H14 C16 1_555 1_555
C17 C16 1_555 1_555
H15 C17 1_555 1_555
C18 C17 1_555 1_555
H16 C18 1_555 1_555
C19 N1 1_555 1_555
C20 N2 1_555 1_555
C21 C20 1_555 1_555
H17 C21 1_555 1_555
C22 C21 1_555 1_555
H18 C22 1_555 1_555
C23 C22 1_555 1_555
H19 C23 1_555 1_555
C24 N2 1_555 1_555
H20 C24 1_555 1_555
O6 H21 1_555 1_555
H22 O6 1_555 1_555
O7 H23 1_555 1_555
H24 O7 1_555 1_555
Cd1_2 O1 1_555 1_555
O1_2 Cd1 1_555 1_555
O2_2 Cd1 1_555 1_555
O2 Cd1_2 1_555 1_555
O4 C14 1_555 1_555
C5 C6 1_555 1_555
C5 C14 1_555 1_555
C11 C12 1_555 1_555
C18 C19 1_555 1_555
C19 C20 1_555 1_555
C23 C24 1_555 1_555

#END
