
#######################################################################
#
#                 Cambridge Crystallographic Data Centre
#                                CCDC 
#
#######################################################################
#
# If this CIF has been generated from an entry in the Cambridge 
# Structural Database, then it will include bibliographic, chemical, 
# crystal, experimental, refinement or atomic coordinate data resulting 
# from the CCDC's data processing and validation procedures.
#
#######################################################################

data_AFECEV
_symmetry_cell_setting           tetragonal
_symmetry_space_group_name_H-M   'P 4'
_symmetry_Int_Tables_number      75
_space_group_name_Hall           'P 4'
loop_
_symmetry_equiv_pos_site_id
_symmetry_equiv_pos_as_xyz
1 x,y,z
2 -y,x,z
3 -x,-y,z
4 y,-x,z
_cell_length_a                   16.366(2)
_cell_length_b                   16.366(2)
_cell_length_c                   10.158(2)
_cell_angle_alpha                90
_cell_angle_beta                 90
_cell_angle_gamma                90
_cell_volume                     2720.78
loop_
_atom_site_label
_atom_site_type_symbol
_atom_site_fract_x
_atom_site_fract_y
_atom_site_fract_z
Cu1 Cu 0.5000 0.5000 0.3567(2)
C1 C 0.3533(5) 0.3980(5) 0.3092(11)
H1 H 0.3826 0.3854 0.2311
C2 C 0.2677(8) 0.4341(7) 0.5326(13)
H2 H 0.2415 0.4452 0.6140
C3 C 0.2794(6) 0.3585(6) 0.3343(12)
H3 H 0.2619 0.3171 0.2751
C4 C 0.2327(8) 0.3759(7) 0.4364(14)
Cu2 Cu 0.0000 0.0000 -0.0040(8)
C5 C 0.2656(10) 0.1203(10) -0.0864(18)
C6 C 0.1469(10) 0.1023(12) 0.061(2)
H4 H 0.1184 0.1163 0.1388
N1 N 0.3738(8) 0.2442(8) -0.0260(14)
C7 C 0.3526(11) 0.1629(8) -0.1098(18)
H5 H 0.3567 0.1769 -0.2043
H6 H 0.3954 0.1218 -0.0910
N2 N 0.1111(11) 0.0441(13) -0.030(2)
C8 C 0.1670(10) 0.0328(12) -0.136(2)
H7 H 0.1501 -0.0070 -0.1978
C9 C 0.2338(12) 0.0649(9) -0.162(3)
H8 H 0.2622 0.0486 -0.2394
O1 O 0.2118(12) 0.3243(12) -0.039(2)
C10 C 0.2747(12) 0.3159(11) -0.153(3)
H9 H 0.2599 0.2679 -0.2077
H10 H 0.2711 0.3650 -0.2102
C11 C 0.3575(12) 0.3068(14) -0.109(3)
H11 H 0.3930 0.3008 -0.1869
H12 H 0.3736 0.3582 -0.0640
C12 C 0.4575(8) 0.2544(9) 0.0318(17)
H13 H 0.4989 0.2519 -0.0392
H14 H 0.4617 0.3086 0.0746
N3 N 0.1332(7) 0.2698(7) 0.4037(14)
C13 C 0.1622(9) 0.3368(10) 0.481(2)
H15 H 0.1180 0.3779 0.4866
H16 H 0.1726 0.3167 0.5713
O2 O 0.2987(6) 0.1683(6) 0.3839(11)
C14 C 0.2588(7) 0.1704(8) 0.4739(14)
H17 H 0.2820 0.2134 0.5315
H18 H 0.2671 0.1179 0.5204
C15 C 0.1645(9) 0.1853(9) 0.4708(18)
H19 H 0.1441 0.1837 0.5625
H20 H 0.1389 0.1391 0.4231
O3 O 0.4229(7) 0.2129(7) 0.2303(14)
C16 C 0.4727(12) 0.1944(13) 0.1224(16)
H21 H 0.5310 0.1944 0.1484
H22 H 0.4588 0.1400 0.0861
C17 C 0.2187(8) 0.1360(11) 0.0356(19)
H23 H 0.2413 0.1721 0.0992
C18 C 0.3874(9) 0.1616(9) 0.4001(16)
H24 H 0.4044 0.2137 0.4413
H25 H 0.3954 0.1190 0.4680
C19 C 0.4393(10) 0.1475(11) 0.3162(16)
H26 H 0.4307 0.0939 0.2733
H27 H 0.4954 0.1503 0.3526
N4 N 0.3835(4) 0.4528(4) 0.3920(8)
S1 S 0.0000 0.0000 0.4946(6)
S2 S 0.5000 0.5000 -0.1420(13)
C20 C 0.3430(5) 0.4726(6) 0.4969(11)
H28 H 0.3641 0.5144 0.5522
N5 N 0.5000 0.5000 0.156(2)
C21 C 0.0000 0.0000 0.341(2)
N6 N 0.0000 0.0000 0.214(3)
C22 C 0.0784(18) 0.328(2) 0.020(4)
H29 H 0.0572 0.3842 0.0328
H30 H 0.0325 0.2984 -0.0222
O4 O 0.0742(10) 0.3003(10) 0.1374(18)
C23 C 0.5000 0.5000 0.039(3)
C24 C 0.1358(13) 0.3416(17) -0.102(3)
H31 H 0.1240 0.3028 -0.1743
H32 H 0.1333 0.3984 -0.1355
C25 C 0.0446(8) 0.2675(10) 0.3951(15)
H33 H 0.0189 0.3026 0.4628
H34 H 0.0234 0.2111 0.4035
C26 C 0.0317(12) 0.2999(14) 0.2628(17)
H35 H 0.0224 0.3588 0.2794
H36 H -0.0226 0.2778 0.2392
C1A C -0.3980(5) 0.3533(5) 0.3092(11)
H1A H -0.3854 0.3826 0.2311
C2A C -0.4341(7) 0.2677(8) 0.5326(13)
H2A H -0.4452 0.2415 0.6140
C3A C -0.3585(6) 0.2794(6) 0.3343(12)
H3A H -0.3171 0.2619 0.2751
C4A C -0.3759(7) 0.2327(8) 0.4364(14)
C5A C -0.1203(10) 0.2656(10) -0.0864(18)
C6A C -0.1023(12) 0.1469(10) 0.061(2)
H4A H -0.1163 0.1184 0.1388
N1A N -0.2442(8) 0.3738(8) -0.0260(14)
C7A C -0.1629(8) 0.3526(11) -0.1098(18)
H5A H -0.1769 0.3567 -0.2043
H6A H -0.1218 0.3954 -0.0910
N2A N -0.0441(13) 0.1111(11) -0.030(2)
C8A C -0.0328(12) 0.1670(10) -0.136(2)
H7A H 0.0070 0.1501 -0.1978
C9A C -0.0649(9) 0.2338(12) -0.162(3)
H8A H -0.0486 0.2622 -0.2394
O1A O -0.3243(12) 0.2118(12) -0.039(2)
C10A C -0.3159(11) 0.2747(12) -0.153(3)
H9A H -0.2679 0.2599 -0.2077
H10A H -0.3650 0.2711 -0.2102
C11A C -0.3068(14) 0.3575(12) -0.109(3)
H11A H -0.3008 0.3930 -0.1869
H12A H -0.3582 0.3736 -0.0640
C12A C -0.2544(9) 0.4575(8) 0.0318(17)
H13A H -0.2519 0.4989 -0.0392
H14A H -0.3086 0.4617 0.0746
N3A N -0.2698(7) 0.1332(7) 0.4037(14)
C13A C -0.3368(10) 0.1622(9) 0.481(2)
H15A H -0.3779 0.1180 0.4866
H16A H -0.3167 0.1726 0.5713
O2A O -0.1683(6) 0.2987(6) 0.3839(11)
C14A C -0.1704(8) 0.2588(7) 0.4739(14)
H17A H -0.2134 0.2820 0.5315
H18A H -0.1179 0.2671 0.5204
C15A C -0.1853(9) 0.1645(9) 0.4708(18)
H19A H -0.1837 0.1441 0.5625
H20A H -0.1391 0.1389 0.4231
O3A O -0.2129(7) 0.4229(7) 0.2303(14)
C16A C -0.1944(13) 0.4727(12) 0.1224(16)
H21A H -0.1944 0.5310 0.1484
H22A H -0.1400 0.4588 0.0861
C17A C -0.1360(11) 0.2187(8) 0.0356(19)
H23A H -0.1721 0.2413 0.0992
C18A C -0.1616(9) 0.3874(9) 0.4001(16)
H24A H -0.2137 0.4044 0.4413
H25A H -0.1190 0.3954 0.4680
C19A C -0.1475(11) 0.4393(10) 0.3162(16)
H26A H -0.0939 0.4307 0.2733
H27A H -0.1503 0.4954 0.3526
N4A N -0.4528(4) 0.3835(4) 0.3920(8)
C20A C -0.4726(6) 0.3430(5) 0.4969(11)
H28A H -0.5144 0.3641 0.5522
C22A C -0.328(2) 0.0784(18) 0.020(4)
H29A H -0.3842 0.0572 0.0328
H30A H -0.2984 0.0325 -0.0222
O4A O -0.3003(10) 0.0742(10) 0.1374(18)
C24A C -0.3416(17) 0.1358(13) -0.102(3)
H31A H -0.3028 0.1240 -0.1743
H32A H -0.3984 0.1333 -0.1355
C25A C -0.2675(10) 0.0446(8) 0.3951(15)
H33A H -0.3026 0.0189 0.4628
H34A H -0.2111 0.0234 0.4035
C26A C -0.2999(14) 0.0317(12) 0.2628(17)
H35A H -0.3588 0.0224 0.2794
H36A H -0.2778 -0.0226 0.2392
C1B C -0.3533(5) -0.3980(5) 0.3092(11)
H1B H -0.3826 -0.3854 0.2311
C2B C -0.2677(8) -0.4341(7) 0.5326(13)
H2B H -0.2415 -0.4452 0.6140
C3B C -0.2794(6) -0.3585(6) 0.3343(12)
H3B H -0.2619 -0.3171 0.2751
C4B C -0.2327(8) -0.3759(7) 0.4364(14)
C5B C -0.2656(10) -0.1203(10) -0.0864(18)
C6B C -0.1469(10) -0.1023(12) 0.061(2)
H4B H -0.1184 -0.1163 0.1388
N1B N -0.3738(8) -0.2442(8) -0.0260(14)
C7B C -0.3526(11) -0.1629(8) -0.1098(18)
H5B H -0.3567 -0.1769 -0.2043
H6B H -0.3954 -0.1218 -0.0910
N2B N -0.1111(11) -0.0441(13) -0.030(2)
C8B C -0.1670(10) -0.0328(12) -0.136(2)
H7B H -0.1501 0.0070 -0.1978
C9B C -0.2338(12) -0.0649(9) -0.162(3)
H8B H -0.2622 -0.0486 -0.2394
O1B O -0.2118(12) -0.3243(12) -0.039(2)
C10B C -0.2747(12) -0.3159(11) -0.153(3)
H9B H -0.2599 -0.2679 -0.2077
H10B H -0.2711 -0.3650 -0.2102
C11B C -0.3575(12) -0.3068(14) -0.109(3)
H11B H -0.3930 -0.3008 -0.1869
H12B H -0.3736 -0.3582 -0.0640
C12B C -0.4575(8) -0.2544(9) 0.0318(17)
H13B H -0.4989 -0.2519 -0.0392
H14B H -0.4617 -0.3086 0.0746
N3B N -0.1332(7) -0.2698(7) 0.4037(14)
C13B C -0.1622(9) -0.3368(10) 0.481(2)
H15B H -0.1180 -0.3779 0.4866
H16B H -0.1726 -0.3167 0.5713
O2B O -0.2987(6) -0.1683(6) 0.3839(11)
C14B C -0.2588(7) -0.1704(8) 0.4739(14)
H17B H -0.2820 -0.2134 0.5315
H18B H -0.2671 -0.1179 0.5204
C15B C -0.1645(9) -0.1853(9) 0.4708(18)
H19B H -0.1441 -0.1837 0.5625
H20B H -0.1389 -0.1391 0.4231
O3B O -0.4229(7) -0.2129(7) 0.2303(14)
C16B C -0.4727(12) -0.1944(13) 0.1224(16)
H21B H -0.5310 -0.1944 0.1484
H22B H -0.4588 -0.1400 0.0861
C17B C -0.2187(8) -0.1360(11) 0.0356(19)
H23B H -0.2413 -0.1721 0.0992
C18B C -0.3874(9) -0.1616(9) 0.4001(16)
H24B H -0.4044 -0.2137 0.4413
H25B H -0.3954 -0.1190 0.4680
C19B C -0.4393(10) -0.1475(11) 0.3162(16)
H26B H -0.4307 -0.0939 0.2733
H27B H -0.4954 -0.1503 0.3526
N4B N -0.3835(4) -0.4528(4) 0.3920(8)
C20B C -0.3430(5) -0.4726(6) 0.4969(11)
H28B H -0.3641 -0.5144 0.5522
C22B C -0.0784(18) -0.328(2) 0.020(4)
H29B H -0.0572 -0.3842 0.0328
H30B H -0.0325 -0.2984 -0.0222
O4B O -0.0742(10) -0.3003(10) 0.1374(18)
C24B C -0.1358(13) -0.3416(17) -0.102(3)
H31B H -0.1240 -0.3028 -0.1743
H32B H -0.1333 -0.3984 -0.1355
C25B C -0.0446(8) -0.2675(10) 0.3951(15)
H33B H -0.0189 -0.3026 0.4628
H34B H -0.0234 -0.2111 0.4035
C26B C -0.0317(12) -0.2999(14) 0.2628(17)
H35B H -0.0224 -0.3588 0.2794
H36B H 0.0226 -0.2778 0.2392
C1C C 0.3980(5) -0.3533(5) 0.3092(11)
H1C H 0.3854 -0.3826 0.2311
C2C C 0.4341(7) -0.2677(8) 0.5326(13)
H2C H 0.4452 -0.2415 0.6140
C3C C 0.3585(6) -0.2794(6) 0.3343(12)
H3C H 0.3171 -0.2619 0.2751
C4C C 0.3759(7) -0.2327(8) 0.4364(14)
C5C C 0.1203(10) -0.2656(10) -0.0864(18)
C6C C 0.1023(12) -0.1469(10) 0.061(2)
H4C H 0.1163 -0.1184 0.1388
N1C N 0.2442(8) -0.3738(8) -0.0260(14)
C7C C 0.1629(8) -0.3526(11) -0.1098(18)
H5C H 0.1769 -0.3567 -0.2043
H6C H 0.1218 -0.3954 -0.0910
N2C N 0.0441(13) -0.1111(11) -0.030(2)
C8C C 0.0328(12) -0.1670(10) -0.136(2)
H7C H -0.0070 -0.1501 -0.1978
C9C C 0.0649(9) -0.2338(12) -0.162(3)
H8C H 0.0486 -0.2622 -0.2394
O1C O 0.3243(12) -0.2118(12) -0.039(2)
C10C C 0.3159(11) -0.2747(12) -0.153(3)
H9C H 0.2679 -0.2599 -0.2077
H10C H 0.3650 -0.2711 -0.2102
C11C C 0.3068(14) -0.3575(12) -0.109(3)
H11C H 0.3008 -0.3930 -0.1869
H12C H 0.3582 -0.3736 -0.0640
C12C C 0.2544(9) -0.4575(8) 0.0318(17)
H13C H 0.2519 -0.4989 -0.0392
H14C H 0.3086 -0.4617 0.0746
N3C N 0.2698(7) -0.1332(7) 0.4037(14)
C13C C 0.3368(10) -0.1622(9) 0.481(2)
H15C H 0.3779 -0.1180 0.4866
H16C H 0.3167 -0.1726 0.5713
O2C O 0.1683(6) -0.2987(6) 0.3839(11)
C14C C 0.1704(8) -0.2588(7) 0.4739(14)
H17C H 0.2134 -0.2820 0.5315
H18C H 0.1179 -0.2671 0.5204
C15C C 0.1853(9) -0.1645(9) 0.4708(18)
H19C H 0.1837 -0.1441 0.5625
H20C H 0.1391 -0.1389 0.4231
O3C O 0.2129(7) -0.4229(7) 0.2303(14)
C16C C 0.1944(13) -0.4727(12) 0.1224(16)
H21C H 0.1944 -0.5310 0.1484
H22C H 0.1400 -0.4588 0.0861
C17C C 0.1360(11) -0.2187(8) 0.0356(19)
H23C H 0.1721 -0.2413 0.0992
C18C C 0.1616(9) -0.3874(9) 0.4001(16)
H24C H 0.2137 -0.4044 0.4413
H25C H 0.1190 -0.3954 0.4680
C19C C 0.1475(11) -0.4393(10) 0.3162(16)
H26C H 0.0939 -0.4307 0.2733
H27C H 0.1503 -0.4954 0.3526
N4C N 0.4528(4) -0.3835(4) 0.3920(8)
C20C C 0.4726(6) -0.3430(5) 0.4969(11)
H28C H 0.5144 -0.3641 0.5522
C22C C 0.328(2) -0.0784(18) 0.020(4)
H29C H 0.3842 -0.0572 0.0328
H30C H 0.2984 -0.0325 -0.0222
O4C O 0.3003(10) -0.0742(10) 0.1374(18)
C24C C 0.3416(17) -0.1358(13) -0.102(3)
H31C H 0.3028 -0.1240 -0.1743
H32C H 0.3984 -0.1333 -0.1355
C25C C 0.2675(10) -0.0446(8) 0.3951(15)
H33C H 0.3026 -0.0189 0.4628
H34C H 0.2111 -0.0234 0.4035
C26C C 0.2999(14) -0.0317(12) 0.2628(17)
H35C H 0.3588 -0.0224 0.2794
H36C H 0.2778 0.0226 0.2392
Cu1_2 Cu -0.5000 -0.5000 0.3567(2)
Cu1_3 Cu -0.5000 0.5000 0.3567(2)
Cu1_4 Cu 0.5000 -0.5000 0.3567(2)
N4A_2 N 0.5472(4) 0.3835(4) 0.3920(8)
N4B_2 N 0.6165(4) 0.5472(4) 0.3920(8)
N4C_2 N 0.4528(4) 0.6165(4) 0.3920(8)
S3 S 0.5000 0.0000 0.6829(11)
C27 C 0.5000 0.0000 0.838(2)
N7 N 0.5000 0.0000 0.963(7)
loop_
_geom_bond_atom_site_label_1
_geom_bond_atom_site_label_2
_geom_bond_site_symmetry_1
_geom_bond_site_symmetry_2
Cu1 N4 1_555 1_555
C1 H1 1_555 1_555
C2 H2 1_555 1_555
C3 C1 1_555 1_555
H3 C3 1_555 1_555
C4 C2 1_555 1_555
Cu2 N2 1_555 1_555
C5 C7 1_555 1_555
C6 H4 1_555 1_555
N1 C7 1_555 1_555
C7 H5 1_555 1_555
H6 C7 1_555 1_555
N2 C6 1_555 1_555
C8 N2 1_555 1_555
H7 C8 1_555 1_555
C9 C5 1_555 1_555
H8 C9 1_555 1_555
O1 C10 1_555 1_555
C10 H9 1_555 1_555
H10 C10 1_555 1_555
C11 N1 1_555 1_555
H11 C11 1_555 1_555
H12 C11 1_555 1_555
C12 N1 1_555 1_555
H13 C12 1_555 1_555
H14 C12 1_555 1_555
N3 C13 1_555 1_555
C13 C4 1_555 1_555
H15 C13 1_555 1_555
H16 C13 1_555 1_555
O2 C14 1_555 1_555
C14 H17 1_555 1_555
H18 C14 1_555 1_555
C15 N3 1_555 1_555
H19 C15 1_555 1_555
H20 C15 1_555 1_555
O3 C16 1_555 1_555
C16 C12 1_555 1_555
H21 C16 1_555 1_555
H22 C16 1_555 1_555
C17 C5 1_555 1_555
H23 C17 1_555 1_555
C18 O2 1_555 1_555
H24 C18 1_555 1_555
H25 C18 1_555 1_555
C19 O3 1_555 1_555
H26 C19 1_555 1_555
H27 C19 1_555 1_555
N4 C1 1_555 1_555
S1 C21 1_555 1_555
S2 C23 1_555 1_555
C20 C2 1_555 1_555
H28 C20 1_555 1_555
N5 Cu1 1_555 1_555
C21 N6 1_555 1_555
N6 Cu2 1_555 1_555
C22 H29 1_555 1_555
H30 C22 1_555 1_555
O4 C22 1_555 1_555
C23 N5 1_555 1_555
C24 O1 1_555 1_555
H31 C24 1_555 1_555
H32 C24 1_555 1_555
C25 N3 1_555 1_555
H33 C25 1_555 1_555
H34 C25 1_555 1_555
C26 O4 1_555 1_555
H35 C26 1_555 1_555
H36 C26 1_555 1_555
S3 C27 1_555 1_555
C27 N7 1_555 1_555
C1A H1A 1_555 1_555
C2A H2A 1_555 1_555
C3A C1A 1_555 1_555
H3A C3A 1_555 1_555
C4A C2A 1_555 1_555
C5A C7A 1_555 1_555
C6A H4A 1_555 1_555
N1A C7A 1_555 1_555
C7A H5A 1_555 1_555
H6A C7A 1_555 1_555
N2A Cu2 1_555 1_555
C8A N2A 1_555 1_555
H7A C8A 1_555 1_555
C9A C5A 1_555 1_555
H8A C9A 1_555 1_555
O1A C10A 1_555 1_555
C10A H9A 1_555 1_555
H10A C10A 1_555 1_555
C11A N1A 1_555 1_555
H11A C11A 1_555 1_555
H12A C11A 1_555 1_555
C12A N1A 1_555 1_555
H13A C12A 1_555 1_555
H14A C12A 1_555 1_555
N3A C13A 1_555 1_555
C13A C4A 1_555 1_555
H15A C13A 1_555 1_555
H16A C13A 1_555 1_555
O2A C14A 1_555 1_555
C14A H17A 1_555 1_555
H18A C14A 1_555 1_555
C15A N3A 1_555 1_555
H19A C15A 1_555 1_555
H20A C15A 1_555 1_555
O3A C16A 1_555 1_555
C16A C12A 1_555 1_555
H21A C16A 1_555 1_555
H22A C16A 1_555 1_555
C17A C5A 1_555 1_555
H23A C17A 1_555 1_555
C18A O2A 1_555 1_555
H24A C18A 1_555 1_555
H25A C18A 1_555 1_555
C19A O3A 1_555 1_555
H26A C19A 1_555 1_555
H27A C19A 1_555 1_555
N4A C1A 1_555 1_555
C20A C2A 1_555 1_555
H28A C20A 1_555 1_555
C22A H29A 1_555 1_555
H30A C22A 1_555 1_555
O4A C22A 1_555 1_555
C24A O1A 1_555 1_555
H31A C24A 1_555 1_555
H32A C24A 1_555 1_555
C25A N3A 1_555 1_555
H33A C25A 1_555 1_555
H34A C25A 1_555 1_555
C26A O4A 1_555 1_555
H35A C26A 1_555 1_555
H36A C26A 1_555 1_555
C1B H1B 1_555 1_555
C2B H2B 1_555 1_555
C3B C1B 1_555 1_555
H3B C3B 1_555 1_555
C4B C2B 1_555 1_555
C5B C7B 1_555 1_555
C6B H4B 1_555 1_555
N1B C7B 1_555 1_555
C7B H5B 1_555 1_555
H6B C7B 1_555 1_555
N2B Cu2 1_555 1_555
C8B N2B 1_555 1_555
H7B C8B 1_555 1_555
C9B C5B 1_555 1_555
H8B C9B 1_555 1_555
O1B C10B 1_555 1_555
C10B H9B 1_555 1_555
H10B C10B 1_555 1_555
C11B N1B 1_555 1_555
H11B C11B 1_555 1_555
H12B C11B 1_555 1_555
C12B N1B 1_555 1_555
H13B C12B 1_555 1_555
H14B C12B 1_555 1_555
N3B C13B 1_555 1_555
C13B C4B 1_555 1_555
H15B C13B 1_555 1_555
H16B C13B 1_555 1_555
O2B C14B 1_555 1_555
C14B H17B 1_555 1_555
H18B C14B 1_555 1_555
C15B N3B 1_555 1_555
H19B C15B 1_555 1_555
H20B C15B 1_555 1_555
O3B C16B 1_555 1_555
C16B C12B 1_555 1_555
H21B C16B 1_555 1_555
H22B C16B 1_555 1_555
C17B C5B 1_555 1_555
H23B C17B 1_555 1_555
C18B O2B 1_555 1_555
H24B C18B 1_555 1_555
H25B C18B 1_555 1_555
C19B O3B 1_555 1_555
H26B C19B 1_555 1_555
H27B C19B 1_555 1_555
N4B C1B 1_555 1_555
C20B C2B 1_555 1_555
H28B C20B 1_555 1_555
C22B H29B 1_555 1_555
H30B C22B 1_555 1_555
O4B C22B 1_555 1_555
C24B O1B 1_555 1_555
H31B C24B 1_555 1_555
H32B C24B 1_555 1_555
C25B N3B 1_555 1_555
H33B C25B 1_555 1_555
H34B C25B 1_555 1_555
C26B O4B 1_555 1_555
H35B C26B 1_555 1_555
H36B C26B 1_555 1_555
C1C H1C 1_555 1_555
C2C H2C 1_555 1_555
C3C C1C 1_555 1_555
H3C C3C 1_555 1_555
C4C C2C 1_555 1_555
C5C C7C 1_555 1_555
C6C H4C 1_555 1_555
N1C C7C 1_555 1_555
C7C H5C 1_555 1_555
H6C C7C 1_555 1_555
N2C Cu2 1_555 1_555
C8C N2C 1_555 1_555
H7C C8C 1_555 1_555
C9C C5C 1_555 1_555
H8C C9C 1_555 1_555
O1C C10C 1_555 1_555
C10C H9C 1_555 1_555
H10C C10C 1_555 1_555
C11C N1C 1_555 1_555
H11C C11C 1_555 1_555
H12C C11C 1_555 1_555
C12C N1C 1_555 1_555
H13C C12C 1_555 1_555
H14C C12C 1_555 1_555
N3C C13C 1_555 1_555
C13C C4C 1_555 1_555
H15C C13C 1_555 1_555
H16C C13C 1_555 1_555
O2C C14C 1_555 1_555
C14C H17C 1_555 1_555
H18C C14C 1_555 1_555
C15C N3C 1_555 1_555
H19C C15C 1_555 1_555
H20C C15C 1_555 1_555
O3C C16C 1_555 1_555
C16C C12C 1_555 1_555
H21C C16C 1_555 1_555
H22C C16C 1_555 1_555
C17C C5C 1_555 1_555
H23C C17C 1_555 1_555
C18C O2C 1_555 1_555
H24C C18C 1_555 1_555
H25C C18C 1_555 1_555
C19C O3C 1_555 1_555
H26C C19C 1_555 1_555
H27C C19C 1_555 1_555
N4C C1C 1_555 1_555
C20C C2C 1_555 1_555
H28C C20C 1_555 1_555
C22C H29C 1_555 1_555
H30C C22C 1_555 1_555
O4C C22C 1_555 1_555
C24C O1C 1_555 1_555
H31C C24C 1_555 1_555
H32C C24C 1_555 1_555
C25C N3C 1_555 1_555
H33C C25C 1_555 1_555
H34C C25C 1_555 1_555
C26C O4C 1_555 1_555
H35C C26C 1_555 1_555
H36C C26C 1_555 1_555
Cu1_2 N4B 1_555 1_555
Cu1_3 N4A 1_555 1_555
Cu1_4 N4C 1_555 1_555
N4A_2 Cu1 1_555 1_555
N4B_2 Cu1 1_555 1_555
N4C_2 Cu1 1_555 1_555
C3 C4 1_555 1_555
C6 C17 1_555 1_555
C8 C9 1_555 1_555
C10 C11 1_555 1_555
C14 C15 1_555 1_555
C18 C19 1_555 1_555
N4 C20 1_555 1_555
C22 C24 1_555 1_555
C25 C26 1_555 1_555
C3A C4A 1_555 1_555
C6A N2A 1_555 1_555
C6A C17A 1_555 1_555
C8A C9A 1_555 1_555
C10A C11A 1_555 1_555
C14A C15A 1_555 1_555
C18A C19A 1_555 1_555
N4A C20A 1_555 1_555
C22A C24A 1_555 1_555
C25A C26A 1_555 1_555
C3B C4B 1_555 1_555
C6B N2B 1_555 1_555
C6B C17B 1_555 1_555
C8B C9B 1_555 1_555
C10B C11B 1_555 1_555
C14B C15B 1_555 1_555
C18B C19B 1_555 1_555
N4B C20B 1_555 1_555
C22B C24B 1_555 1_555
C25B C26B 1_555 1_555
C3C C4C 1_555 1_555
C6C N2C 1_555 1_555
C6C C17C 1_555 1_555
C8C C9C 1_555 1_555
C10C C11C 1_555 1_555
C14C C15C 1_555 1_555
C18C C19C 1_555 1_555
N4C C20C 1_555 1_555
C22C C24C 1_555 1_555
C25C C26C 1_555 1_555

#END
