
#######################################################################
#
#                 Cambridge Crystallographic Data Centre
#                                CCDC 
#
#######################################################################
#
# If this CIF has been generated from an entry in the Cambridge 
# Structural Database, then it will include bibliographic, chemical, 
# crystal, experimental, refinement or atomic coordinate data resulting 
# from the CCDC's data processing and validation procedures.
#
#######################################################################

data_AFEDIA
_symmetry_cell_setting           triclinic
_symmetry_space_group_name_H-M   'P -1'
_symmetry_Int_Tables_number      2
_space_group_name_Hall           '-P 1'
loop_
_symmetry_equiv_pos_site_id
_symmetry_equiv_pos_as_xyz
1 x,y,z
2 -x,-y,-z
_cell_length_a                   10.2347(12)
_cell_length_b                   10.8608(13)
_cell_length_c                   13.7452(17)
_cell_angle_alpha                79.053(2)
_cell_angle_beta                 78.7450(10)
_cell_angle_gamma                86.326(2)
_cell_volume                     1470.65
loop_
_atom_site_label
_atom_site_type_symbol
_atom_site_fract_x
_atom_site_fract_y
_atom_site_fract_z
Ni1 Ni 1.0000 0.5000 0.5000
Tb1 Tb 0.68072(2) 0.07753(2) 0.702898(17)
C1 C 0.7020(4) 0.4733(4) 0.7262(3)
C2 C 0.6789(4) 0.4175(4) 0.8277(3)
H1 H 0.6736 0.3308 0.8459
C3 C 0.6638(4) 0.4905(4) 0.9018(3)
C4 C 0.6652(4) 0.6204(4) 0.8744(3)
H2 H 0.6536 0.6703 0.9236
C5 C 0.6839(4) 0.6748(4) 0.7733(3)
C6 C 0.7036(4) 0.6024(4) 0.6993(3)
H3 H 0.7179 0.6402 0.6317
C7 C 0.6867(4) 0.8146(4) 0.7468(3)
C8 C 0.7334(5) 0.3941(4) 0.6453(4)
C9 C 0.6652(5) 0.4829(5) 1.0811(4)
C10 C 0.6518(5) 0.4003(5) 1.1831(4)
C11 C 0.6510(5) 0.2706(5) 1.2016(4)
H4 H 0.6537 0.2274 1.1489
C12 C 0.6461(5) 0.2065(5) 1.2977(4)
H5 H 0.6461 0.1194 1.3084
C13 C 0.6395(6) 0.3855(6) 1.3606(4)
H6 H 0.6341 0.4257 1.4154
C14 C 0.6452(5) 0.4584(5) 1.2657(4)
H7 H 0.6446 0.5454 1.2574
C15 C 1.0258(4) 0.1208(4) 0.8319(3)
C16 C 1.1580(5) 0.1051(4) 0.7839(3)
H8 H 1.1759 0.0885 0.7186
C17 C 1.2619(4) 0.1142(4) 0.8325(3)
C18 C 1.2340(5) 0.1428(4) 0.9301(3)
H9 H 1.3034 0.1484 0.9636
C19 C 1.1034(5) 0.1627(4) 0.9764(3)
C20 C 0.9994(5) 0.1486(4) 0.9280(3)
H10 H 0.9116 0.1578 0.9605
C21 C 0.9089(5) 0.1091(4) 0.7832(4)
C22 C 1.4064(5) 0.0981(4) 0.7846(4)
C23 C 0.9939(5) 0.2964(5) 1.0918(4)
C24 C 0.9908(5) 0.3390(5) 1.1902(4)
C25 C 0.9825(5) 0.2574(5) 1.2813(4)
H11 H 0.9818 0.1711 1.2847
C26 C 0.9751(5) 0.3078(5) 1.3671(4)
H12 H 0.9668 0.2531 1.4287
C27 C 0.9848(5) 0.5064(5) 1.2781(4)
H13 H 0.9863 0.5924 1.2762
C28 C 0.9886(5) 0.4653(5) 1.1899(4)
H14 H 0.9897 0.5224 1.1301
N1 N 0.6471(4) 0.4307(4) 1.0036(3)
H15 H 0.6233 0.3539 1.0175
N2 N 0.6415(4) 0.2613(4) 1.3772(3)
N3 N 1.0796(4) 0.2002(4) 1.0719(3)
H16 H 1.1205 0.1609 1.1182
N4 N 0.9792(4) 0.4297(4) 1.3670(3)
O1 O 0.8077(3) 0.4367(3) 0.5645(2)
O2 O 0.6811(3) 0.2878(3) 0.6642(2)
O3 O 0.6713(4) 0.8705(3) 0.6617(2)
O4 O 0.7068(4) 0.8772(3) 0.8101(2)
O5 O 0.6912(5) 0.5911(4) 1.0737(3)
O6 O 0.9267(3) 0.0947(3) 0.6916(2)
O7 O 0.7926(3) 0.1150(3) 0.8333(2)
O8 O 1.4397(3) 0.0991(3) 0.6916(2)
O9 O 1.4954(3) 0.0850(4) 0.8377(2)
O10 O 0.9241(4) 0.3510(4) 1.0333(3)
O11 O 0.9258(3) 0.6831(3) 0.4332(2)
H17 H 0.8653 0.7199 0.4703
H18 H 0.9887 0.7246 0.3992
O12 O 0.7196(4) 0.0949(4) 0.5260(3)
H19 H 0.762(6) 0.038(5) 0.497(5)
H20 H 0.6846 0.1625 0.4985
Tb1A Tb 1.31928(2) 0.92247(2) 0.297102(17)
C1A C 1.2980(4) 0.5267(4) 0.2738(3)
C2A C 1.3211(4) 0.5825(4) 0.1723(3)
H1A H 1.3264 0.6692 0.1541
C3A C 1.3362(4) 0.5095(4) 0.0982(3)
C4A C 1.3348(4) 0.3796(4) 0.1256(3)
H2A H 1.3464 0.3297 0.0764
C5A C 1.3161(4) 0.3252(4) 0.2267(3)
C6A C 1.2964(4) 0.3976(4) 0.3007(3)
H3A H 1.2821 0.3598 0.3683
C7A C 1.3133(4) 0.1854(4) 0.2532(3)
C8A C 1.2666(5) 0.6059(4) 0.3547(4)
C9A C 1.3348(5) 0.5171(5) -0.0811(4)
C10A C 1.3482(5) 0.5997(5) -0.1831(4)
C11A C 1.3490(5) 0.7294(5) -0.2016(4)
H4A H 1.3463 0.7726 -0.1489
C12A C 1.3539(5) 0.7935(5) -0.2977(4)
H5A H 1.3539 0.8806 -0.3084
C13A C 1.3605(6) 0.6145(6) -0.3606(4)
H6A H 1.3659 0.5743 -0.4154
C14A C 1.3548(5) 0.5416(5) -0.2657(4)
H7A H 1.3554 0.4546 -0.2574
C15A C 0.9742(4) 0.8792(4) 0.1681(3)
C16A C 0.8420(5) 0.8949(4) 0.2161(3)
H8A H 0.8241 0.9115 0.2814
C17A C 0.7381(4) 0.8858(4) 0.1675(3)
C18A C 0.7660(5) 0.8572(4) 0.0699(3)
H9A H 0.6966 0.8516 0.0364
C19A C 0.8966(5) 0.8373(4) 0.0236(3)
C20A C 1.0006(5) 0.8514(4) 0.0720(3)
H10A H 1.0884 0.8422 0.0395
C21A C 1.0911(5) 0.8909(4) 0.2168(4)
C22A C 0.5936(5) 0.9019(4) 0.2154(4)
C23A C 1.0061(5) 0.7036(5) -0.0918(4)
C24A C 1.0092(5) 0.6610(5) -0.1902(4)
C25A C 1.0175(5) 0.7426(5) -0.2813(4)
H11A H 1.0182 0.8289 -0.2847
C26A C 1.0249(5) 0.6922(5) -0.3671(4)
H12A H 1.0332 0.7469 -0.4287
C27A C 1.0152(5) 0.4936(5) -0.2781(4)
H13A H 1.0137 0.4076 -0.2762
C28A C 1.0114(5) 0.5347(5) -0.1899(4)
H14A H 1.0103 0.4776 -0.1301
N1A N 1.3529(4) 0.5693(4) -0.0036(3)
H15A H 1.3767 0.6461 -0.0175
N2A N 1.3585(4) 0.7387(4) -0.3772(3)
N3A N 0.9204(4) 0.7998(4) -0.0719(3)
H16A H 0.8795 0.8391 -0.1182
N4A N 1.0208(4) 0.5703(4) -0.3670(3)
O1A O 1.1923(3) 0.5633(3) 0.4355(2)
O2A O 1.3189(3) 0.7122(3) 0.3358(2)
O3A O 1.3287(4) 0.1295(3) 0.3383(2)
O4A O 1.2932(4) 0.1228(3) 0.1899(2)
O5A O 1.3088(5) 0.4089(4) -0.0737(3)
O6A O 1.0733(3) 0.9053(3) 0.3084(2)
O7A O 1.2074(3) 0.8850(3) 0.1667(2)
O8A O 0.5603(3) 0.9009(3) 0.3084(2)
O9A O 0.5046(3) 0.9150(4) 0.1623(2)
O10A O 1.0759(4) 0.6490(4) -0.0333(3)
O11A O 1.0742(3) 0.3169(3) 0.5668(2)
H17A H 1.1347 0.2801 0.5297
H18A H 1.0113 0.2754 0.6008
O12A O 1.2804(4) 0.9051(4) 0.4740(3)
H19A H 1.238(6) 0.962(5) 0.503(5)
H20A H 1.3154 0.8375 0.5015
Ni1_2 Ni 1.0000 0.5000 -0.5000
Ni1_3 Ni 1.0000 0.5000 1.5000
Tb1_2 Tb 0.68072(2) 1.07753(2) 0.702898(17)
Tb1_3 Tb 1.68072(2) 0.07753(2) 0.702898(17)
Tb1A_2 Tb 0.31928(2) 0.92247(2) 0.297102(17)
Tb1A_3 Tb 1.31928(2) -0.07753(2) 0.297102(17)
N4_2 N 0.9792(4) 0.4297(4) 0.3670(3)
N4A_2 N 1.0208(4) 0.5703(4) 0.6330(3)
O3_2 O 0.6713(4) -0.1295(3) 0.6617(2)
O3A_2 O 1.3287(4) 1.1295(3) 0.3383(2)
O4_2 O 0.7068(4) -0.1228(3) 0.8101(2)
O4A_2 O 1.2932(4) 1.1228(3) 0.1899(2)
O8_2 O 0.4397(3) 0.0991(3) 0.6916(2)
O8A_2 O 1.5603(3) 0.9009(3) 0.3084(2)
O9_2 O 0.4954(3) 0.0850(4) 0.8377(2)
O9A_2 O 1.5046(3) 0.9150(4) 0.1623(2)
O13 O 0.2999(4) 0.1656(5) 0.5331(3)
H21 H 0.3276 0.1462 0.4754
H22 H 0.3569 0.1383 0.5705
O14 O 0.4141(5) 0.8386(4) 0.9854(3)
H23 H 0.4330 0.9020 0.9390
H24 H 0.4387 0.8527 1.0378
loop_
_geom_bond_atom_site_label_1
_geom_bond_atom_site_label_2
_geom_bond_site_symmetry_1
_geom_bond_site_symmetry_2
Ni1 O1 1_555 1_555
Tb1 O2 1_555 1_555
C1 C2 1_555 1_555
C2 H1 1_555 1_555
C3 C2 1_555 1_555
C4 C3 1_555 1_555
H2 C4 1_555 1_555
C5 C4 1_555 1_555
C6 C1 1_555 1_555
H3 C6 1_555 1_555
C7 C5 1_555 1_555
C8 C1 1_555 1_555
C9 C10 1_555 1_555
C10 C11 1_555 1_555
C11 H4 1_555 1_555
C12 C11 1_555 1_555
H5 C12 1_555 1_555
C13 H6 1_555 1_555
C14 C10 1_555 1_555
H7 C14 1_555 1_555
C15 C16 1_555 1_555
C16 H8 1_555 1_555
C17 C16 1_555 1_555
C18 C17 1_555 1_555
H9 C18 1_555 1_555
C19 C18 1_555 1_555
C20 C15 1_555 1_555
H10 C20 1_555 1_555
C21 C15 1_555 1_555
C22 C17 1_555 1_555
C23 C24 1_555 1_555
C24 C25 1_555 1_555
C25 H11 1_555 1_555
C26 C25 1_555 1_555
H12 C26 1_555 1_555
C27 H13 1_555 1_555
C28 C24 1_555 1_555
H14 C28 1_555 1_555
N1 C3 1_555 1_555
H15 N1 1_555 1_555
N2 C12 1_555 1_555
N3 C19 1_555 1_555
H16 N3 1_555 1_555
N4 C26 1_555 1_555
O1 C8 1_555 1_555
O2 C8 1_555 1_555
O3 C7 1_555 1_555
O4 C7 1_555 1_555
O5 C9 1_555 1_555
O6 Tb1 1_555 1_555
O7 Tb1 1_555 1_555
O8 C22 1_555 1_555
O9 C22 1_555 1_555
O10 C23 1_555 1_555
O11 Ni1 1_555 1_555
H17 O11 1_555 1_555
H18 O11 1_555 1_555
O12 Tb1 1_555 1_555
H19 O12 1_555 1_555
H20 O12 1_555 1_555
O13 H21 1_555 1_555
H22 O13 1_555 1_555
O14 H23 1_555 1_555
H24 O14 1_555 1_555
Tb1A O2A 1_555 1_555
C1A C2A 1_555 1_555
C2A H1A 1_555 1_555
C3A C2A 1_555 1_555
C4A C3A 1_555 1_555
H2A C4A 1_555 1_555
C5A C4A 1_555 1_555
C6A C1A 1_555 1_555
H3A C6A 1_555 1_555
C7A C5A 1_555 1_555
C8A C1A 1_555 1_555
C9A C10A 1_555 1_555
C10A C11A 1_555 1_555
C11A H4A 1_555 1_555
C12A C11A 1_555 1_555
H5A C12A 1_555 1_555
C13A H6A 1_555 1_555
C14A C10A 1_555 1_555
H7A C14A 1_555 1_555
C15A C16A 1_555 1_555
C16A H8A 1_555 1_555
C17A C16A 1_555 1_555
C18A C17A 1_555 1_555
H9A C18A 1_555 1_555
C19A C18A 1_555 1_555
C20A C15A 1_555 1_555
H10A C20A 1_555 1_555
C21A C15A 1_555 1_555
C22A C17A 1_555 1_555
C23A C24A 1_555 1_555
C24A C25A 1_555 1_555
C25A H11A 1_555 1_555
C26A C25A 1_555 1_555
H12A C26A 1_555 1_555
C27A H13A 1_555 1_555
C28A C24A 1_555 1_555
H14A C28A 1_555 1_555
N1A C3A 1_555 1_555
H15A N1A 1_555 1_555
N2A C12A 1_555 1_555
N3A C19A 1_555 1_555
H16A N3A 1_555 1_555
N4A C26A 1_555 1_555
O1A Ni1 1_555 1_555
O2A C8A 1_555 1_555
O3A C7A 1_555 1_555
O4A C7A 1_555 1_555
O5A C9A 1_555 1_555
O6A Tb1A 1_555 1_555
O7A Tb1A 1_555 1_555
O8A C22A 1_555 1_555
O9A C22A 1_555 1_555
O10A C23A 1_555 1_555
O11A Ni1 1_555 1_555
H17A O11A 1_555 1_555
H18A O11A 1_555 1_555
O12A Tb1A 1_555 1_555
H19A O12A 1_555 1_555
H20A O12A 1_555 1_555
Ni1_2 N4A 1_555 1_555
Ni1_3 N4 1_555 1_555
Tb1_2 O3 1_555 1_555
Tb1_3 O8 1_555 1_555
Tb1A_2 O8A 1_555 1_555
Tb1A_3 O3A 1_555 1_555
N4_2 Ni1 1_555 1_555
N4A_2 Ni1 1_555 1_555
O3_2 Tb1 1_555 1_555
O3A_2 Tb1A 1_555 1_555
O4_2 Tb1 1_555 1_555
O4A_2 Tb1A 1_555 1_555
O8_2 Tb1 1_555 1_555
O8A_2 Tb1A 1_555 1_555
O9_2 Tb1 1_555 1_555
O9A_2 Tb1A 1_555 1_555
C5 C6 1_555 1_555
C9 N1 1_555 1_555
C13 C14 1_555 1_555
C13 N2 1_555 1_555
C19 C20 1_555 1_555
C21 O6 1_555 1_555
C21 O7 1_555 1_555
C23 N3 1_555 1_555
C27 C28 1_555 1_555
C27 N4 1_555 1_555
O4 Tb1_2 1_555 1_555
O9 Tb1_3 1_555 1_555
C5A C6A 1_555 1_555
C8A O1A 1_555 1_555
C9A N1A 1_555 1_555
C13A C14A 1_555 1_555
C13A N2A 1_555 1_555
C19A C20A 1_555 1_555
C21A O6A 1_555 1_555
C21A O7A 1_555 1_555
C23A N3A 1_555 1_555
C27A C28A 1_555 1_555
C27A N4A 1_555 1_555
O4A Tb1A_3 1_555 1_555
O9A Tb1A_2 1_555 1_555

#END
