
#######################################################################
#
#                 Cambridge Crystallographic Data Centre
#                                CCDC 
#
#######################################################################
#
# If this CIF has been generated from an entry in the Cambridge 
# Structural Database, then it will include bibliographic, chemical, 
# crystal, experimental, refinement or atomic coordinate data resulting 
# from the CCDC's data processing and validation procedures.
#
#######################################################################

data_AFEDAR
_symmetry_cell_setting           triclinic
_symmetry_space_group_name_H-M   'P -1'
_symmetry_Int_Tables_number      2
_space_group_name_Hall           '-P 1'
loop_
_symmetry_equiv_pos_site_id
_symmetry_equiv_pos_as_xyz
1 x,y,z
2 -x,-y,-z
_cell_length_a                   9.6739(7)
_cell_length_b                   12.993(1)
_cell_length_c                   14.5927(11)
_cell_angle_alpha                68.148(1)
_cell_angle_beta                 86.352(1)
_cell_angle_gamma                75.553(1)
_cell_volume                     1647.71
loop_
_atom_site_label
_atom_site_type_symbol
_atom_site_fract_x
_atom_site_fract_y
_atom_site_fract_z
Er1 Er 0.23836(2) 0.534282(16) 0.488335(14)
O1 O 0.0653(3) 0.7073(2) 0.4698(2)
H1 H -0.0140 0.6984 0.4654
H2 H 0.0630 0.7445 0.5034
O2 O 0.3274(3) 0.6254(3) 0.5816(2)
H3 H 0.4053 0.5942 0.6099
H4 H 0.3058 0.6920 0.5776
O3 O 0.3646(3) 0.4181(3) 0.3984(2)
O4 O 0.2065(3) 0.3474(2) 0.5022(2)
O5 O 0.3152(4) -0.0827(3) 0.5920(3)
O6 O 0.3511(4) -0.1456(3) 0.4731(3)
O7 O 0.0899(3) 0.5813(3) 0.3549(2)
O8 O -0.1017(3) 0.5123(3) 0.3786(2)
O9 O -0.4305(5) 0.6104(5) 0.1072(4)
O10 O -0.4168(5) 0.7462(4) -0.0301(3)
O11 O 0.3488(3) 0.6566(3) 0.3733(2)
O12 O 0.5808(3) 0.5949(3) 0.4063(2)
O13 O 0.7828(6) 1.0268(5) 0.1239(4)
O14 O 0.8555(5) 0.8901(5) 0.2628(4)
N1 N 0.3339(4) -0.0681(4) 0.5054(4)
N2 N -0.3713(6) 0.6810(5) 0.0532(4)
N3 N 0.7672(6) 0.9441(5) 0.1964(4)
C1 C 0.3284(5) 0.2406(4) 0.4055(3)
C2 C 0.3083(4) 0.1363(4) 0.4694(4)
H9 H 0.2738 0.1269 0.5322
C3 C 0.3416(5) 0.0458(4) 0.4361(4)
C4 C 0.3832(6) 0.0586(5) 0.3419(4)
H10 H 0.3995 -0.0025 0.3207
C5 C 0.4004(6) 0.1631(5) 0.2796(4)
H11 H 0.4283 0.1737 0.2152
C6 C 0.3765(5) 0.2529(4) 0.3121(4)
H12 H 0.3931 0.3225 0.2704
C7 C 0.2972(5) 0.3413(4) 0.4373(3)
C8 C -0.0676(5) 0.6362(4) 0.2196(3)
C9 C -0.1923(5) 0.6271(4) 0.1846(3)
H13 H -0.2463 0.5795 0.2261
C10 C -0.2346(6) 0.6900(4) 0.0871(4)
C11 C -0.1618(7) 0.7615(5) 0.0232(4)
H14 H -0.1947 0.8034 -0.0418
C12 C -0.0383(7) 0.7705(5) 0.0570(4)
H15 H 0.0150 0.8177 0.0141
C13 C 0.0088(6) 0.7088(4) 0.1561(4)
H16 H 0.0916 0.7169 0.1788
C14 C -0.0222(4) 0.5716(4) 0.3263(3)
C15 C 0.4937(5) 0.7748(4) 0.2790(3)
C16 C 0.6194(5) 0.8086(4) 0.2749(3)
H17 H 0.6927 0.7653 0.3219
C17 C 0.6337(6) 0.9073(4) 0.2003(4)
C18 C 0.5288(7) 0.9735(5) 0.1300(4)
H18 H 0.5415 1.0401 0.0802
C19 C 0.4040(7) 0.9397(5) 0.1343(4)
H19 H 0.3314 0.9835 0.0869
C20 C 0.3857(5) 0.8404(4) 0.2091(4)
H20 H 0.3008 0.8182 0.2121
C21 C 0.4740(5) 0.6664(3) 0.3589(3)
Er1A Er -0.23836(2) 0.465718(16) 0.511665(14)
Er1A_2 Er 0.76164(2) 0.465718(16) 0.511665(14)
O1A O -0.0653(3) 0.2927(2) 0.5302(2)
H1A H 0.0140 0.3016 0.5346
H2A H -0.0630 0.2555 0.4966
O2A O -0.3274(3) 0.3746(3) 0.4184(2)
H3A H -0.4053 0.4058 0.3901
H4A H -0.3058 0.3080 0.4224
O3A O -0.3646(3) 0.5819(3) 0.6016(2)
O4A O -0.2065(3) 0.6526(2) 0.4978(2)
O5A O -0.3152(4) 1.0827(3) 0.4080(3)
O6A O -0.3511(4) 1.1456(3) 0.5269(3)
O7A O -0.0899(3) 0.4187(3) 0.6451(2)
O8A O 0.1017(3) 0.4877(3) 0.6214(2)
O9A O 0.4305(5) 0.3896(5) 0.8928(4)
O10A O 0.4168(5) 0.2538(4) 1.0301(3)
O11A O 0.6512(3) 0.3434(3) 0.6267(2)
O11A_2 O -0.3488(3) 0.3434(3) 0.6267(2)
O12A O 0.4192(3) 0.4051(3) 0.5937(2)
O12_2 O -0.4192(3) 0.5949(3) 0.4063(2)
O13A O 0.2172(6) -0.0268(5) 0.8761(4)
O14A O 0.1445(5) 0.1099(5) 0.7372(4)
N1A N -0.3339(4) 1.0681(4) 0.4946(4)
N2A N 0.3713(6) 0.3190(5) 0.9468(4)
N3A N 0.2328(6) 0.0559(5) 0.8036(4)
C1A C -0.3284(5) 0.7594(4) 0.5945(3)
C2A C -0.3083(4) 0.8637(4) 0.5306(4)
H9A H -0.2738 0.8731 0.4678
C3A C -0.3416(5) 0.9542(4) 0.5639(4)
C4A C -0.3832(6) 0.9414(5) 0.6581(4)
H10A H -0.3995 1.0025 0.6793
C5A C -0.4004(6) 0.8369(5) 0.7204(4)
H11A H -0.4283 0.8263 0.7848
C6A C -0.3765(5) 0.7471(4) 0.6879(4)
H12A H -0.3931 0.6775 0.7296
C7A C -0.2972(5) 0.6587(4) 0.5627(3)
C8A C 0.0676(5) 0.3638(4) 0.7804(3)
C9A C 0.1923(5) 0.3729(4) 0.8154(3)
H13A H 0.2463 0.4205 0.7739
C10A C 0.2346(6) 0.3100(4) 0.9129(4)
C11A C 0.1618(7) 0.2385(5) 0.9768(4)
H14A H 0.1947 0.1966 1.0418
C12A C 0.0383(7) 0.2295(5) 0.9430(4)
H15A H -0.0150 0.1823 0.9859
C13A C -0.0088(6) 0.2912(4) 0.8439(4)
H16A H -0.0916 0.2831 0.8212
C14A C 0.0222(4) 0.4284(4) 0.6737(3)
C15A C 0.5063(5) 0.2252(4) 0.7210(3)
C16A C 0.3806(5) 0.1914(4) 0.7251(3)
H17A H 0.3073 0.2347 0.6781
C17A C 0.3663(6) 0.0927(4) 0.7997(4)
C18A C 0.4712(7) 0.0265(5) 0.8700(4)
H18A H 0.4585 -0.0401 0.9198
C19A C 0.5960(7) 0.0603(5) 0.8657(4)
H19A H 0.6686 0.0165 0.9131
C20A C 0.6143(5) 0.1596(4) 0.7909(4)
H20A H 0.6992 0.1818 0.7879
C21A C 0.5260(5) 0.3336(3) 0.6411(3)
N4 N 0.0331(4) 0.8453(3) 0.5768(3)
N5 N 0.0566(5) 0.6783(3) 0.7180(3)
H5 H 0.0793 0.6283 0.6901
H6 H 0.0619 0.6540 0.7798
S1 S -0.00548(15) 0.88246(11) 0.73874(9)
C22 C 0.0016(4) 0.9632(3) 0.5521(3)
C23 C -0.0232(5) 0.9975(4) 0.6293(3)
H21 H -0.0468 1.0734 0.6240
C24 C 0.0330(5) 0.7925(4) 0.6719(3)
N4A N -0.0331(4) 1.1547(3) 0.4232(3)
N5A N -0.0566(5) 1.3217(3) 0.2820(3)
H5A H -0.0793 1.3717 0.3099
H6A H -0.0619 1.3460 0.2202
S1A S 0.00548(15) 1.11754(11) 0.26126(9)
C22A C -0.0016(4) 1.0368(3) 0.4479(3)
C23A C 0.0232(5) 1.0025(4) 0.3707(3)
H21A H 0.0468 0.9266 0.3760
C24A C -0.0330(5) 1.2075(4) 0.3281(3)
N6 N -0.8833(4) 0.5964(3) -0.0659(3)
N7 N -0.6912(5) 0.6844(4) -0.0938(4)
H7 H -0.6039 0.6718 -0.0733
H8 H -0.7197 0.7411 -0.1494
S2 S -0.70468(15) 0.51627(13) 0.08145(11)
C25 C -0.9334(5) 0.5121(4) 0.0086(3)
C26 C -0.8513(5) 0.4608(5) 0.0911(4)
H22 H -0.8710 0.4025 0.1468
C27 C -0.7648(6) 0.6076(4) -0.0381(4)
N6A N -1.1167(4) 0.4036(3) 0.0659(3)
N7A N -1.3088(5) 0.3156(4) 0.0938(4)
H7A H -1.3961 0.3282 0.0733
H8A H -1.2803 0.2589 0.1494
S2A S -1.29532(15) 0.48373(13) -0.08145(11)
C25A C -1.0666(5) 0.4879(4) -0.0086(3)
C26A C -1.1487(5) 0.5392(5) -0.0911(4)
H22A H -1.1290 0.5975 -0.1468
C27A C -1.2352(6) 0.3924(4) 0.0381(4)
loop_
_geom_bond_atom_site_label_1
_geom_bond_atom_site_label_2
_geom_bond_site_symmetry_1
_geom_bond_site_symmetry_2
Er1 O1 1_555 1_555
O1 H1 1_555 1_555
H2 O1 1_555 1_555
O2 Er1 1_555 1_555
H3 O2 1_555 1_555
H4 O2 1_555 1_555
O3 Er1 1_555 1_555
O4 Er1 1_555 1_555
O5 N1 1_555 1_555
O6 N1 1_555 1_555
O7 Er1 1_555 1_555
O8 C14 1_555 1_555
O9 N2 1_555 1_555
O10 N2 1_555 1_555
O11 Er1 1_555 1_555
O12 C21 1_555 1_555
O13 N3 1_555 1_555
O14 N3 1_555 1_555
N1 C3 1_555 1_555
N2 C10 1_555 1_555
N3 C17 1_555 1_555
N4 C22 1_555 1_555
N5 H5 1_555 1_555
H6 N5 1_555 1_555
N6 C25 1_555 1_555
N7 H7 1_555 1_555
H8 N7 1_555 1_555
S1 C23 1_555 1_555
S2 C26 1_555 1_555
C1 C2 1_555 1_555
C2 H9 1_555 1_555
C3 C2 1_555 1_555
C4 C3 1_555 1_555
H10 C4 1_555 1_555
C5 C4 1_555 1_555
H11 C5 1_555 1_555
C6 C1 1_555 1_555
H12 C6 1_555 1_555
C7 O3 1_555 1_555
C8 C9 1_555 1_555
C9 H13 1_555 1_555
C10 C9 1_555 1_555
C11 C10 1_555 1_555
H14 C11 1_555 1_555
C12 C11 1_555 1_555
H15 C12 1_555 1_555
C13 C8 1_555 1_555
H16 C13 1_555 1_555
C14 O7 1_555 1_555
C15 C16 1_555 1_555
C16 H17 1_555 1_555
C17 C16 1_555 1_555
C18 C17 1_555 1_555
H18 C18 1_555 1_555
C19 C18 1_555 1_555
H19 C19 1_555 1_555
C20 C15 1_555 1_555
H20 C20 1_555 1_555
C21 O11 1_555 1_555
C22 C23 1_555 1_555
C23 H21 1_555 1_555
C24 N4 1_555 1_555
C25 C26 1_555 1_555
C26 H22 1_555 1_555
C27 N6 1_555 1_555
Er1A O8 1_555 1_555
Er1A_2 O12 1_555 1_555
O1A Er1A 1_555 1_555
H1A O1A 1_555 1_555
H2A O1A 1_555 1_555
O2A Er1A 1_555 1_555
H3A O2A 1_555 1_555
H4A O2A 1_555 1_555
O3A Er1A 1_555 1_555
O4A Er1A 1_555 1_555
O5A N1A 1_555 1_555
O6A N1A 1_555 1_555
O7A Er1A 1_555 1_555
O8A Er1 1_555 1_555
O9A N2A 1_555 1_555
O10A N2A 1_555 1_555
O11A Er1A_2 1_555 1_555
O11A_2 Er1A 1_555 1_555
O12A Er1 1_555 1_555
O12_2 Er1A 1_555 1_555
O13A N3A 1_555 1_555
O14A N3A 1_555 1_555
N1A C3A 1_555 1_555
N2A C10A 1_555 1_555
N3A C17A 1_555 1_555
N4A C22A 1_555 1_555
N5A H5A 1_555 1_555
H6A N5A 1_555 1_555
N6A C25A 1_555 1_555
N7A H7A 1_555 1_555
H8A N7A 1_555 1_555
S1A C23A 1_555 1_555
S2A C26A 1_555 1_555
C1A C2A 1_555 1_555
C2A H9A 1_555 1_555
C3A C2A 1_555 1_555
C4A C3A 1_555 1_555
H10A C4A 1_555 1_555
C5A C4A 1_555 1_555
H11A C5A 1_555 1_555
C6A C1A 1_555 1_555
H12A C6A 1_555 1_555
C7A O3A 1_555 1_555
C8A C9A 1_555 1_555
C9A H13A 1_555 1_555
C10A C9A 1_555 1_555
C11A C10A 1_555 1_555
H14A C11A 1_555 1_555
C12A C11A 1_555 1_555
H15A C12A 1_555 1_555
C13A C8A 1_555 1_555
H16A C13A 1_555 1_555
C14A O7A 1_555 1_555
C15A C16A 1_555 1_555
C16A H17A 1_555 1_555
C17A C16A 1_555 1_555
C18A C17A 1_555 1_555
H18A C18A 1_555 1_555
C19A C18A 1_555 1_555
H19A C19A 1_555 1_555
C20A C15A 1_555 1_555
H20A C20A 1_555 1_555
C21A O11A 1_555 1_555
C22A C22 1_555 1_555
C23A C22A 1_555 1_555
H21A C23A 1_555 1_555
C24A N4A 1_555 1_555
C25A C25 1_555 1_555
C26A C25A 1_555 1_555
H22A C26A 1_555 1_555
C27A N6A 1_555 1_555
O4 C7 1_555 1_555
N5 C24 1_555 1_555
N7 C27 1_555 1_555
S1 C24 1_555 1_555
S2 C27 1_555 1_555
C1 C7 1_555 1_555
C5 C6 1_555 1_555
C8 C14 1_555 1_555
C12 C13 1_555 1_555
C15 C21 1_555 1_555
C19 C20 1_555 1_555
O4A C7A 1_555 1_555
O8A C14A 1_555 1_555
O12A C21A 1_555 1_555
N5A C24A 1_555 1_555
N7A C27A 1_555 1_555
S1A C24A 1_555 1_555
S2A C27A 1_555 1_555
C1A C7A 1_555 1_555
C5A C6A 1_555 1_555
C8A C14A 1_555 1_555
C12A C13A 1_555 1_555
C15A C21A 1_555 1_555
C19A C20A 1_555 1_555

#END
