
#######################################################################
#
#                 Cambridge Crystallographic Data Centre
#                                CCDC 
#
#######################################################################
#
# If this CIF has been generated from an entry in the Cambridge 
# Structural Database, then it will include bibliographic, chemical, 
# crystal, experimental, refinement or atomic coordinate data resulting 
# from the CCDC's data processing and validation procedures.
#
#######################################################################

data_AFEHAV
_symmetry_cell_setting           triclinic
_symmetry_space_group_name_H-M   'P -1'
_symmetry_Int_Tables_number      2
_space_group_name_Hall           '-P 1'
loop_
_symmetry_equiv_pos_site_id
_symmetry_equiv_pos_as_xyz
1 x,y,z
2 -x,-y,-z
_cell_length_a                   10.5417(5)
_cell_length_b                   10.6758(6)
_cell_length_c                   12.7711(5)
_cell_angle_alpha                70.419(3)
_cell_angle_beta                 86.123(3)
_cell_angle_gamma                66.278(2)
_cell_volume                     1235.97
loop_
_atom_site_label
_atom_site_type_symbol
_atom_site_fract_x
_atom_site_fract_y
_atom_site_fract_z
K1 K 0.80940(3) 0.58975(4) 0.06727(3)
O1 O 0.73827(13) 0.51425(15) 0.28382(9)
O2 O 0.68752(13) 0.35147(15) 0.49469(10)
O3 O 0.58105(12) 0.54644(14) 0.04898(10)
O4 O 0.61613(12) 0.86555(13) 0.04205(10)
N1 N 1.08797(13) 0.42696(15) 0.14643(10)
C1 C 1.12229(16) 0.53691(18) 0.15025(13)
C2 C 1.07544(16) 0.66780(18) 0.05752(13)
H1 H 1.0300 0.6720 -0.0061
C3 C 1.09369(18) 0.7895(2) 0.05649(15)
H2 H 1.0599 0.8752 -0.0071
C4 C 1.16059(19) 0.7883(2) 0.14690(16)
H3 H 1.1736 0.8717 0.1460
C5 C 1.20816(18) 0.6613(2) 0.23914(16)
H4 H 1.2539 0.6586 0.3020
C6 C 1.19035(17) 0.5389(2) 0.24136(14)
H5 H 1.2246 0.4540 0.3056
C7 C 1.16056(16) 0.28448(18) 0.21367(12)
C8 C 1.09112(18) 0.18982(19) 0.24413(13)
H6 H 0.9948 0.2278 0.2227
C9 C 1.1595(2) 0.0436(2) 0.30425(14)
H7 H 1.1093 -0.0165 0.3235
C10 C 1.2995(2) -0.0164(2) 0.33671(14)
H8 H 1.3461 -0.1170 0.3778
C11 C 1.37052(18) 0.0734(2) 0.30805(14)
H9 H 1.4669 0.0337 0.3301
C12 C 1.30370(17) 0.21958(19) 0.24804(13)
H10 H 1.3555 0.2781 0.2294
C13 C 0.8367(2) 0.4525(2) 0.37896(15)
H11 H 0.8192 0.5251 0.4161
H12 H 0.9321 0.4269 0.3541
C14 C 0.82513(19) 0.3192(2) 0.46008(16)
H13 H 0.8500 0.2437 0.4248
H14 H 0.8913 0.2804 0.5260
C15 C 0.5912(2) 0.4105(2) 0.40013(15)
H15 H 0.4957 0.4343 0.4245
H16 H 0.6111 0.3375 0.3629
C16 C 0.60096(19) 0.5448(2) 0.31960(14)
H17 H 0.5341 0.5838 0.2541
H18 H 0.5760 0.6196 0.3556
C17 C 0.5678(2) 0.4124(2) 0.10436(16)
H19 H 0.4899 0.4284 0.1531
H20 H 0.6540 0.3416 0.1519
C18 C 0.45827(19) 0.6481(2) -0.02155(16)
H21 H 0.4689 0.7400 -0.0615
H22 H 0.3779 0.6697 0.0243
C19 C 0.51208(19) 0.9214(2) 0.11231(14)
H23 H 0.5408 0.9780 0.1460
H24 H 0.5035 0.8395 0.1735
C20 C 0.62656(18) 0.98288(19) -0.04698(14)
H25 H 0.6962 0.9445 -0.0968
H26 H 0.6581 1.0407 -0.0169
K1A K 0.19060(3) 0.41025(4) -0.06727(3)
K1A_2 K 1.19060(3) 0.41025(4) -0.06727(3)
K1A_3 K 0.19060(3) 1.41025(4) -0.06727(3)
O1A O 0.26173(13) 0.48575(15) -0.28382(9)
O2A O 0.31248(13) 0.64853(15) -0.49469(10)
O3A O 0.41895(12) 0.45356(14) -0.04898(10)
O4A O 0.38387(12) 1.13445(13) -0.04205(10)
O4A_2 O 0.38387(12) 0.13445(13) -0.04205(10)
N1A N 0.91203(13) 0.57304(15) -0.14643(10)
N1_2 N 0.08797(13) 0.42696(15) 0.14643(10)
N1A_2 N -0.08797(13) 0.57304(15) -0.14643(10)
C1A C 0.87771(16) 0.46309(18) -0.15025(13)
C2A C 0.92456(16) 0.33220(18) -0.05752(13)
H1A H 0.9700 0.3280 0.0061
C3A C 0.90631(18) 0.2105(2) -0.05649(15)
H2A H 0.9401 0.1248 0.0071
C4A C 0.83941(19) 0.2117(2) -0.14690(16)
H3A H 0.8264 0.1283 -0.1460
C5A C 0.79184(18) 0.3387(2) -0.23914(16)
H4A H 0.7461 0.3414 -0.3020
C6A C 0.80965(17) 0.4611(2) -0.24136(14)
H5A H 0.7754 0.5460 -0.3056
C7A C 0.83944(16) 0.71552(18) -0.21367(12)
C8A C 0.90888(18) 0.81018(19) -0.24413(13)
H6A H 1.0052 0.7722 -0.2227
C9A C 0.8405(2) 0.9564(2) -0.30425(14)
H7A H 0.8907 1.0165 -0.3235
C10A C 0.7005(2) 1.0164(2) -0.33671(14)
H8A H 0.6539 1.1170 -0.3778
C11A C 0.62948(18) 0.9266(2) -0.30805(14)
H9A H 0.5331 0.9663 -0.3301
C12A C 0.69630(17) 0.78042(19) -0.24804(13)
H10A H 0.6445 0.7219 -0.2294
C13A C 0.1633(2) 0.5475(2) -0.37896(15)
H11A H 0.1808 0.4749 -0.4161
H12A H 0.0679 0.5731 -0.3541
C14A C 0.17487(19) 0.6808(2) -0.46008(16)
H13A H 0.1500 0.7563 -0.4248
H14A H 0.1087 0.7196 -0.5260
C15A C 0.4088(2) 0.5895(2) -0.40013(15)
H15A H 0.5043 0.5657 -0.4245
H16A H 0.3889 0.6625 -0.3629
C16A C 0.39904(19) 0.4552(2) -0.31960(14)
H17A H 0.4659 0.4162 -0.2541
H18A H 0.4240 0.3804 -0.3556
C17A C 0.4322(2) 0.5876(2) -0.10436(16)
H19A H 0.5101 0.5716 -0.1531
H20A H 0.3460 0.6584 -0.1519
C18A C 0.54173(19) 0.3519(2) 0.02155(16)
H21A H 0.5311 0.2600 0.0615
H22A H 0.6221 0.3303 -0.0243
C19A C 0.48792(19) 1.0786(2) -0.11231(14)
H23A H 0.4592 1.0220 -0.1460
H24A H 0.4965 1.1605 -0.1735
C20A C 0.37344(18) 1.01712(19) 0.04698(14)
H25A H 0.3038 1.0555 0.0968
H26A H 0.3419 0.9593 0.0169
O5 O 0.88112(13) 0.75650(14) 0.39904(10)
O6 O 0.71297(15) 1.04991(15) 0.27924(11)
C21 C 0.7750(2) 0.8442(2) 0.44988(15)
H27 H 0.8030 0.8128 0.5301
H28 H 0.6884 0.8311 0.4435
C22 C 0.7485(2) 1.0009(2) 0.39619(16)
H29 H 0.6717 1.0596 0.4313
H30 H 0.8326 1.0153 0.4086
C23 C 0.8202(2) 0.9608(2) 0.22953(16)
H31 H 0.9073 0.9722 0.2377
H32 H 0.7941 0.9924 0.1489
C24 C 0.8439(2) 0.8044(2) 0.28301(14)
H33 H 0.7582 0.7920 0.2717
H34 H 0.9190 0.7445 0.2475
loop_
_geom_bond_atom_site_label_1
_geom_bond_atom_site_label_2
_geom_bond_site_symmetry_1
_geom_bond_site_symmetry_2
K1 O1 1_555 1_555
O1 C13 1_555 1_555
O2 C14 1_555 1_555
O3 K1 1_555 1_555
O4 K1 1_555 1_555
O5 C21 1_555 1_555
O6 C22 1_555 1_555
N1 K1 1_555 1_555
C1 N1 1_555 1_555
C2 C1 1_555 1_555
H1 C2 1_555 1_555
C3 C2 1_555 1_555
H2 C3 1_555 1_555
C4 C3 1_555 1_555
H3 C4 1_555 1_555
C5 C4 1_555 1_555
H4 C5 1_555 1_555
C6 C1 1_555 1_555
H5 C6 1_555 1_555
C7 N1 1_555 1_555
C8 C7 1_555 1_555
H6 C8 1_555 1_555
C9 C8 1_555 1_555
H7 C9 1_555 1_555
C10 C9 1_555 1_555
H8 C10 1_555 1_555
C11 C10 1_555 1_555
H9 C11 1_555 1_555
C12 C7 1_555 1_555
H10 C12 1_555 1_555
C13 H11 1_555 1_555
H12 C13 1_555 1_555
C14 C13 1_555 1_555
H13 C14 1_555 1_555
H14 C14 1_555 1_555
C15 O2 1_555 1_555
H15 C15 1_555 1_555
H16 C15 1_555 1_555
C16 O1 1_555 1_555
H17 C16 1_555 1_555
H18 C16 1_555 1_555
C17 O3 1_555 1_555
H19 C17 1_555 1_555
H20 C17 1_555 1_555
C18 O3 1_555 1_555
H21 C18 1_555 1_555
H22 C18 1_555 1_555
C19 O4 1_555 1_555
H23 C19 1_555 1_555
H24 C19 1_555 1_555
C20 O4 1_555 1_555
H25 C20 1_555 1_555
H26 C20 1_555 1_555
C21 H27 1_555 1_555
H28 C21 1_555 1_555
C22 C21 1_555 1_555
H29 C22 1_555 1_555
H30 C22 1_555 1_555
C23 O6 1_555 1_555
H31 C23 1_555 1_555
H32 C23 1_555 1_555
C24 O5 1_555 1_555
H33 C24 1_555 1_555
H34 C24 1_555 1_555
K1A O1A 1_555 1_555
K1A_2 N1 1_555 1_555
K1A_3 O4A 1_555 1_555
O1A C13A 1_555 1_555
O2A C14A 1_555 1_555
O3A K1A 1_555 1_555
O4A C19A 1_555 1_555
O4A_2 K1A 1_555 1_555
N1A K1 1_555 1_555
N1_2 K1A 1_555 1_555
N1A_2 K1A 1_555 1_555
C1A N1A 1_555 1_555
C2A C1A 1_555 1_555
H1A C2A 1_555 1_555
C3A C2A 1_555 1_555
H2A C3A 1_555 1_555
C4A C3A 1_555 1_555
H3A C4A 1_555 1_555
C5A C4A 1_555 1_555
H4A C5A 1_555 1_555
C6A C1A 1_555 1_555
H5A C6A 1_555 1_555
C7A N1A 1_555 1_555
C8A C7A 1_555 1_555
H6A C8A 1_555 1_555
C9A C8A 1_555 1_555
H7A C9A 1_555 1_555
C10A C9A 1_555 1_555
H8A C10A 1_555 1_555
C11A C10A 1_555 1_555
H9A C11A 1_555 1_555
C12A C7A 1_555 1_555
H10A C12A 1_555 1_555
C13A H11A 1_555 1_555
H12A C13A 1_555 1_555
C14A C13A 1_555 1_555
H13A C14A 1_555 1_555
H14A C14A 1_555 1_555
C15A O2A 1_555 1_555
H15A C15A 1_555 1_555
H16A C15A 1_555 1_555
C16A O1A 1_555 1_555
H17A C16A 1_555 1_555
H18A C16A 1_555 1_555
C17A C18 1_555 1_555
H19A C17A 1_555 1_555
H20A C17A 1_555 1_555
C18A C17 1_555 1_555
H21A C18A 1_555 1_555
H22A C18A 1_555 1_555
C19A C20 1_555 1_555
H23A C19A 1_555 1_555
H24A C19A 1_555 1_555
C20A C19 1_555 1_555
H25A C20A 1_555 1_555
H26A C20A 1_555 1_555
C5 C6 1_555 1_555
C11 C12 1_555 1_555
C15 C16 1_555 1_555
C23 C24 1_555 1_555
K1A_2 N1A 1_555 1_555
O3A C17A 1_555 1_555
O3A C18A 1_555 1_555
O4A C20A 1_555 1_555
C5A C6A 1_555 1_555
C11A C12A 1_555 1_555
C15A C16A 1_555 1_555

#END
