
#######################################################################
#
#                 Cambridge Crystallographic Data Centre
#                                CCDC 
#
#######################################################################
#
# If this CIF has been generated from an entry in the Cambridge 
# Structural Database, then it will include bibliographic, chemical, 
# crystal, experimental, refinement or atomic coordinate data resulting 
# from the CCDC's data processing and validation procedures.
#
#######################################################################

data_AFENOQ
_symmetry_cell_setting           orthorhombic
_symmetry_space_group_name_H-M   'P b c a'
_symmetry_Int_Tables_number      61
_space_group_name_Hall           '-P 2ac 2ab'
loop_
_symmetry_equiv_pos_site_id
_symmetry_equiv_pos_as_xyz
1 x,y,z
2 1/2-x,-y,1/2+z
3 1/2+x,1/2-y,-z
4 -x,1/2+y,1/2-z
5 -x,-y,-z
6 1/2+x,y,1/2-z
7 1/2-x,1/2+y,z
8 x,1/2-y,1/2+z
_cell_length_a                   10.5197(7)
_cell_length_b                   13.5799(9)
_cell_length_c                   18.3598(12)
_cell_angle_alpha                90
_cell_angle_beta                 90
_cell_angle_gamma                90
_cell_volume                     2622.82
loop_
_atom_site_label
_atom_site_type_symbol
_atom_site_fract_x
_atom_site_fract_y
_atom_site_fract_z
Co1 Co -0.25563(3) -0.18510(2) 0.676072(14)
N1 N 0.24674(18) 0.27233(15) 0.71985(10)
N2 N 0.2836(2) 0.19601(14) 0.61695(11)
O1 O 0.15203(14) -0.23572(11) 0.39821(8)
O2 O 0.28725(17) -0.12380(12) 0.35766(9)
O3 O -0.10684(15) -0.15863(12) 0.61615(9)
O4 O -0.02340(16) -0.06331(12) 0.70178(9)
O5 O -0.35382(18) -0.05830(11) 0.68817(9)
H1 H -0.3259 -0.0026 0.6759
H2 H -0.4017 -0.0540 0.7285
C1 C 0.2457(2) 0.04192(17) 0.54988(12)
C2 C 0.1533(2) 0.01310(16) 0.59929(11)
H3 H 0.1432 0.0480 0.6425
C3 C 0.07558(19) -0.06752(14) 0.58497(11)
C4 C 0.09094(19) -0.11987(14) 0.52069(11)
H4 H 0.0376 -0.1727 0.5104
C5 C 0.18584(19) -0.09377(15) 0.47139(11)
C6 C 0.2618(2) -0.01240(16) 0.48626(11)
H5 H 0.3243 0.0060 0.4532
C7 C 0.3306(3) 0.1302(2) 0.56183(14)
H6 H 0.4146 0.1076 0.5758
H7 H 0.3387 0.1660 0.5164
C8 C 0.3189(2) 0.20763(17) 0.68613(13)
C9 C 0.1572(2) 0.30515(19) 0.66706(14)
H8 H 0.0943 0.3521 0.6748
C10 C 0.1780(3) 0.2582(2) 0.60549(14)
H9 H 0.1319 0.2648 0.5626
C11 C 0.4248(3) 0.1545(2) 0.72041(15)
H10 H 0.4347 0.1766 0.7697
H11 H 0.5016 0.1670 0.6938
H12 H 0.4071 0.0851 0.7201
C12 C -0.02419(19) -0.09783(15) 0.63918(11)
C13 C 0.2101(2) -0.15340(15) 0.40398(11)
Co1B Co 0.24437(3) -0.31490(2) 0.323928(14)
Co1C Co 0.25563(3) 0.31490(2) 0.823928(14)
N1C N -0.24674(18) -0.22767(15) 0.78015(10)
O1B O -0.34797(14) -0.26428(11) 0.60179(8)
loop_
_geom_bond_atom_site_label_1
_geom_bond_atom_site_label_2
_geom_bond_site_symmetry_1
_geom_bond_site_symmetry_2
Co1 O3 1_555 1_555
N1 C8 1_555 1_555
N2 C7 1_555 1_555
O1 C13 1_555 1_555
O2 C13 1_555 1_555
O3 C12 1_555 1_555
O4 C12 1_555 1_555
O5 Co1 1_555 1_555
H1 O5 1_555 1_555
H2 O5 1_555 1_555
C1 C2 1_555 1_555
C2 H3 1_555 1_555
C3 C2 1_555 1_555
C4 C3 1_555 1_555
H4 C4 1_555 1_555
C5 C4 1_555 1_555
C6 C1 1_555 1_555
H5 C6 1_555 1_555
C7 C1 1_555 1_555
H6 C7 1_555 1_555
H7 C7 1_555 1_555
C8 N2 1_555 1_555
C9 N1 1_555 1_555
H8 C9 1_555 1_555
C10 N2 1_555 1_555
H9 C10 1_555 1_555
C11 C8 1_555 1_555
H10 C11 1_555 1_555
H11 C11 1_555 1_555
H12 C11 1_555 1_555
C12 C3 1_555 1_555
C13 C5 1_555 1_555
Co1B O1 1_555 1_555
Co1C N1 1_555 1_555
N1C Co1 1_555 1_555
O1B Co1 1_555 1_555
C5 C6 1_555 1_555
C9 C10 1_555 1_555

#END
