
#######################################################################
#
#                 Cambridge Crystallographic Data Centre
#                                CCDC 
#
#######################################################################
#
# If this CIF has been generated from an entry in the Cambridge 
# Structural Database, then it will include bibliographic, chemical, 
# crystal, experimental, refinement or atomic coordinate data resulting 
# from the CCDC's data processing and validation procedures.
#
#######################################################################

data_AFENAA
_symmetry_cell_setting           monoclinic
_symmetry_space_group_name_H-M   'P 21/c'
_symmetry_Int_Tables_number      14
_space_group_name_Hall           '-P 2ybc'
loop_
_symmetry_equiv_pos_site_id
_symmetry_equiv_pos_as_xyz
1 x,y,z
2 x,1/2-y,1/2+z
3 -x,-y,-z
4 -x,1/2+y,1/2-z
_cell_length_a                   9.89400(10)
_cell_length_b                   21.3850(4)
_cell_length_c                   9.2910(2)
_cell_angle_alpha                90
_cell_angle_beta                 112.2350(7)
_cell_angle_gamma                90
_cell_volume                     1819.64
loop_
_atom_site_label
_atom_site_type_symbol
_atom_site_fract_x
_atom_site_fract_y
_atom_site_fract_z
Cu1 Cu 0.05125(3) 0.109198(11) -0.11688(3)
N1 N 0.13014(19) 0.02631(8) -0.16467(19)
C1 C 0.2810(2) 0.02288(10) -0.0480(2)
H1 H 0.3431 0.0542 -0.0722
H2 H 0.3223 -0.0191 -0.0499
C2 C 0.2783(2) 0.03574(9) 0.1118(2)
H3 H 0.2220 0.0027 0.1389
H4 H 0.3791 0.0355 0.1909
N2 N 0.21036(19) 0.09706(8) 0.11084(19)
C3 C 0.2728(2) 0.13255(10) 0.2268(2)
H5 H 0.3610 0.1182 0.3049
C4 C 0.2177(2) 0.19472(10) 0.2488(2)
C5 C 0.0753(2) 0.21503(10) 0.1682(3)
H6 H 0.0084 0.1894 0.0900
C6 C 0.0316(2) 0.27271(10) 0.2025(3)
H7 H -0.0661 0.2858 0.1466
N3 N 0.12192(19) 0.31112(8) 0.3122(2)
C7 C 0.2597(2) 0.29145(10) 0.3886(2)
H8 H 0.3251 0.3182 0.4651
C8 C 0.3112(2) 0.23430(10) 0.3617(2)
H9 H 0.4092 0.2222 0.4196
C9 C 0.0850(2) -0.02144(10) -0.2528(2)
H10 H 0.1518 -0.0549 -0.2391
C10 C -0.0620(2) -0.02869(10) -0.3734(2)
C11 C -0.1688(2) 0.01769(10) -0.4172(2)
H11 H -0.1484 0.0581 -0.3714
C12 C -0.3051(3) 0.00404(11) -0.5285(3)
H12 H -0.3775 0.0358 -0.5556
N4 N -0.3409(2) -0.05152(9) -0.6004(2)
C13 C -0.2360(3) -0.09489(11) -0.5612(3)
H13 H -0.2580 -0.1341 -0.6129
C14 C -0.0970(2) -0.08622(11) -0.4498(3)
H14 H -0.0267 -0.1188 -0.4257
N5 N -0.1491(2) 0.12258(8) -0.1357(2)
C15 C -0.2655(2) 0.13505(10) -0.1495(3)
C16 C -0.4136(3) 0.14959(12) -0.1653(3)
H15 H -0.4787 0.1153 -0.2195
H16 H -0.4454 0.1883 -0.2252
H17 H -0.4169 0.1550 -0.0620
N3A N 0.12192(19) 0.18888(8) -0.1878(2)
Cu1A Cu 0.05125(3) 0.390802(11) 0.38312(3)
Cl1 Cl 0.65356(6) 0.16625(3) 0.27325(7)
O1 O 0.6016(2) 0.10744(8) 0.1963(2)
O2 O 0.5551(2) 0.21429(9) 0.1886(2)
O3 O 0.6559(2) 0.16342(10) 0.4288(2)
O4 O 0.7965(2) 0.17764(11) 0.2761(3)
loop_
_geom_bond_atom_site_label_1
_geom_bond_atom_site_label_2
_geom_bond_site_symmetry_1
_geom_bond_site_symmetry_2
Cu1 N1 1_555 1_555
N1 C1 1_555 1_555
C1 H1 1_555 1_555
H2 C1 1_555 1_555
C2 C1 1_555 1_555
H3 C2 1_555 1_555
H4 C2 1_555 1_555
N2 Cu1 1_555 1_555
C3 N2 1_555 1_555
H5 C3 1_555 1_555
C4 C3 1_555 1_555
C5 C4 1_555 1_555
H6 C5 1_555 1_555
C6 C5 1_555 1_555
H7 C6 1_555 1_555
N3 C6 1_555 1_555
C7 N3 1_555 1_555
H8 C7 1_555 1_555
C8 C4 1_555 1_555
H9 C8 1_555 1_555
C9 N1 1_555 1_555
H10 C9 1_555 1_555
C10 C9 1_555 1_555
C11 C10 1_555 1_555
H11 C11 1_555 1_555
C12 C11 1_555 1_555
H12 C12 1_555 1_555
N4 C12 1_555 1_555
C13 N4 1_555 1_555
H13 C13 1_555 1_555
C14 C10 1_555 1_555
H14 C14 1_555 1_555
N5 Cu1 1_555 1_555
C15 N5 1_555 1_555
C16 C15 1_555 1_555
H15 C16 1_555 1_555
H16 C16 1_555 1_555
H17 C16 1_555 1_555
Cl1 O1 1_555 1_555
O2 Cl1 1_555 1_555
O3 Cl1 1_555 1_555
O4 Cl1 1_555 1_555
N3A Cu1 1_555 1_555
Cu1A N3 1_555 1_555
C2 N2 1_555 1_555
C7 C8 1_555 1_555
C13 C14 1_555 1_555

#END
