
#######################################################################
#
#                 Cambridge Crystallographic Data Centre
#                                CCDC 
#
#######################################################################
#
# If this CIF has been generated from an entry in the Cambridge 
# Structural Database, then it will include bibliographic, chemical, 
# crystal, experimental, refinement or atomic coordinate data resulting 
# from the CCDC's data processing and validation procedures.
#
#######################################################################

data_AFETUC
_symmetry_cell_setting           triclinic
_symmetry_space_group_name_H-M   'P -1'
_symmetry_Int_Tables_number      2
_space_group_name_Hall           '-P 1'
loop_
_symmetry_equiv_pos_site_id
_symmetry_equiv_pos_as_xyz
1 x,y,z
2 -x,-y,-z
_cell_length_a                   10.051(4)
_cell_length_b                   13.344(5)
_cell_length_c                   15.453(5)
_cell_angle_alpha                81.380(5)
_cell_angle_beta                 86.974(5)
_cell_angle_gamma                69.073(5)
_cell_volume                     1913.98
loop_
_atom_site_label
_atom_site_type_symbol
_atom_site_fract_x
_atom_site_fract_y
_atom_site_fract_z
Cu1 Cu 0.28952(5) 0.12152(4) 0.82116(2)
Cu2 Cu 0.09974(5) 0.27127(4) 0.65800(2)
N1 N 0.3584(4) 0.2048(3) 0.89291(17)
N2 N 0.4823(4) 0.0129(3) 0.85037(18)
N3 N -0.0817(4) 0.3303(3) 0.58883(18)
N4 N 0.0582(4) 0.4264(3) 0.66044(19)
O1 O 0.3061(3) 0.2225(2) 0.68852(14)
O2 O 0.3109(4) 0.2346(3) 0.54551(16)
O3 O 0.2411(3) 0.0181(3) 0.76467(17)
O4 O 0.1100(3) 0.1264(3) 0.65167(17)
O5 O 1.0948(3) 0.2289(2) 0.81050(14)
O6 O 1.0461(3) 0.1303(3) 0.92568(17)
C1 C 0.2878(6) 0.3056(5) 0.9086(2)
H1 H 0.1946 0.3395 0.8886
C2 C 0.3463(6) 0.3629(5) 0.9536(3)
H2 H 0.2954 0.4343 0.9617
C3 C 0.4825(6) 0.3099(5) 0.9858(3)
H3 H 0.5251 0.3447 1.0172
C4 C 0.5550(5) 0.2049(5) 0.9710(3)
H4 H 0.6468 0.1682 0.9927
C5 C 0.4909(5) 0.1542(4) 0.9239(2)
C6 C 0.5599(4) 0.0442(4) 0.90225(19)
C7 C 0.6939(5) -0.0251(4) 0.9308(2)
H5 H 0.7454 -0.0035 0.9678
C8 C 0.7504(5) -0.1245(5) 0.9050(3)
H6 H 0.8407 -0.1708 0.9238
C9 C 0.6726(6) -0.1568(5) 0.8504(3)
H7 H 0.7097 -0.2242 0.8313
C10 C 0.5383(5) -0.0851(4) 0.8254(3)
H8 H 0.4846 -0.1062 0.7895
C11 C -0.1383(5) 0.2724(4) 0.5502(2)
H9 H -0.0987 0.1972 0.5610
C12 C -0.2545(5) 0.3205(5) 0.4945(3)
H10 H -0.2918 0.2784 0.4675
C13 C -0.3129(6) 0.4307(5) 0.4802(3)
H11 H -0.3909 0.4650 0.4431
C14 C -0.2562(5) 0.4901(5) 0.5204(3)
H12 H -0.2958 0.5654 0.5113
C15 C -0.1395(5) 0.4382(4) 0.5748(2)
C16 C -0.0630(5) 0.4938(4) 0.6175(2)
C17 C -0.1088(7) 0.6052(5) 0.6167(3)
H13 H -0.1920 0.6512 0.5879
C18 C -0.0264(9) 0.6449(5) 0.6599(4)
H14 H -0.0542 0.7193 0.6594
C19 C 0.0950(7) 0.5782(5) 0.7035(3)
H15 H 0.1489 0.6061 0.7332
C20 C 0.1350(6) 0.4683(4) 0.7020(3)
H16 H 0.2180 0.4219 0.7307
C21 C 0.3726(5) 0.2070(4) 0.6161(2)
C22 C 0.5324(5) 0.1483(4) 0.6213(2)
H17 H 0.5718 0.1573 0.5632
H18 H 0.5507 0.0715 0.6380
C23 C 0.6119(5) 0.1841(4) 0.6843(2)
C24 C 0.5747(5) 0.2908(4) 0.6973(3)
H19 H 0.4953 0.3428 0.6686
C25 C 0.6523(5) 0.3223(4) 0.7517(3)
H20 H 0.6247 0.3947 0.7594
C26 C 0.7274(4) 0.1094(4) 0.7289(2)
H21 H 0.7526 0.0367 0.7227
C27 C 0.8078(5) 0.1396(4) 0.7831(3)
H22 H 0.8870 0.0872 0.8117
C28 C 0.7721(4) 0.2458(4) 0.7951(2)
C29 C 0.8541(5) 0.2820(4) 0.8569(3)
H23 H 0.8502 0.3549 0.8346
H24 H 0.8085 0.2837 0.9139
C30 C 1.0068(4) 0.2084(4) 0.8670(2)
C31 C 0.1749(5) 0.0356(4) 0.6941(2)
C32 C 0.1751(7) -0.0640(5) 0.6579(4)
H25 H 0.1377 -0.1071 0.7017
H26 H 0.2722 -0.1078 0.6450
C33 C 0.0850(5) -0.0329(4) 0.5748(3)
C34 C -0.0455(6) -0.0448(4) 0.5755(2)
H27 H -0.0770 -0.0763 0.6263
C35 C 0.1304(5) 0.0106(4) 0.4984(3)
H28 H 0.2196 0.0173 0.4961
O3A O -0.2411(3) -0.0181(3) 0.23533(17)
O4A O -0.1100(3) -0.1264(3) 0.34833(17)
C31A C -0.1749(5) -0.0356(4) 0.3059(2)
C32A C -0.1751(7) 0.0640(5) 0.3421(4)
H25A H -0.1377 0.1071 0.2983
H26A H -0.2722 0.1078 0.3550
C33A C -0.0850(5) 0.0329(4) 0.4252(3)
C34A C 0.0455(6) 0.0448(4) 0.4245(2)
H27A H 0.0770 0.0763 0.3737
C35A C -0.1304(5) -0.0106(4) 0.5016(3)
H28A H -0.2196 -0.0173 0.5039
Cu1A Cu -0.28952(5) -0.12152(4) 0.17884(2)
Cu2A Cu -0.09974(5) -0.27127(4) 0.34200(2)
N1A N -0.3584(4) -0.2048(3) 0.10709(17)
N2A N -0.4823(4) -0.0129(3) 0.14963(18)
N3A N 0.0817(4) -0.3303(3) 0.41117(18)
N4A N -0.0582(4) -0.4264(3) 0.33956(19)
O1A O -0.3061(3) -0.2225(2) 0.31148(14)
O2A O -0.3109(4) -0.2346(3) 0.45449(16)
O5A O -1.0948(3) -0.2289(2) 0.18950(14)
O6A O -1.0461(3) -0.1303(3) 0.07432(17)
C1A C -0.2878(6) -0.3056(5) 0.0914(2)
H1A H -0.1946 -0.3395 0.1114
C2A C -0.3463(6) -0.3629(5) 0.0464(3)
H2A H -0.2954 -0.4343 0.0383
C3A C -0.4825(6) -0.3099(5) 0.0142(3)
H3A H -0.5251 -0.3447 -0.0172
C4A C -0.5550(5) -0.2049(5) 0.0290(3)
H4A H -0.6468 -0.1682 0.0073
C5A C -0.4909(5) -0.1542(4) 0.0761(2)
C6A C -0.5599(4) -0.0442(4) 0.09775(19)
C7A C -0.6939(5) 0.0251(4) 0.0692(2)
H5A H -0.7454 0.0035 0.0322
C8A C -0.7504(5) 0.1245(5) 0.0950(3)
H6A H -0.8407 0.1708 0.0762
C9A C -0.6726(6) 0.1568(5) 0.1496(3)
H7A H -0.7097 0.2242 0.1687
C10A C -0.5383(5) 0.0851(4) 0.1746(3)
H8A H -0.4846 0.1062 0.2105
C11A C 0.1383(5) -0.2724(4) 0.4498(2)
H9A H 0.0987 -0.1972 0.4390
C12A C 0.2545(5) -0.3205(5) 0.5055(3)
H10A H 0.2918 -0.2784 0.5325
C13A C 0.3129(6) -0.4307(5) 0.5198(3)
H11A H 0.3909 -0.4650 0.5569
C14A C 0.2562(5) -0.4901(5) 0.4796(3)
H12A H 0.2958 -0.5654 0.4887
C15A C 0.1395(5) -0.4382(4) 0.4252(2)
C16A C 0.0630(5) -0.4938(4) 0.3825(2)
C17A C 0.1088(7) -0.6052(5) 0.3833(3)
H13A H 0.1920 -0.6512 0.4121
C18A C 0.0264(9) -0.6449(5) 0.3401(4)
H14A H 0.0542 -0.7193 0.3406
C19A C -0.0950(7) -0.5782(5) 0.2965(3)
H15A H -0.1489 -0.6061 0.2668
C20A C -0.1350(6) -0.4683(4) 0.2980(3)
H16A H -0.2180 -0.4219 0.2693
C21A C -0.3726(5) -0.2070(4) 0.3839(2)
C22A C -0.5324(5) -0.1483(4) 0.3787(2)
H17A H -0.5718 -0.1573 0.4368
H18A H -0.5507 -0.0715 0.3620
C23A C -0.6119(5) -0.1841(4) 0.3157(2)
C24A C -0.5747(5) -0.2908(4) 0.3027(3)
H19A H -0.4953 -0.3428 0.3314
C25A C -0.6523(5) -0.3223(4) 0.2483(3)
H20A H -0.6247 -0.3947 0.2406
C26A C -0.7274(4) -0.1094(4) 0.2711(2)
H21A H -0.7526 -0.0367 0.2773
C27A C -0.8078(5) -0.1396(4) 0.2169(3)
H22A H -0.8870 -0.0872 0.1883
C28A C -0.7721(4) -0.2458(4) 0.2049(2)
C29A C -0.8541(5) -0.2820(4) 0.1431(3)
H23A H -0.8502 -0.3549 0.1654
H24A H -0.8085 -0.2837 0.0861
C30A C -1.0068(4) -0.2084(4) 0.1330(2)
Cu1_2 Cu 1.28952(5) 0.12152(4) 0.82116(2)
Cu1A_2 Cu -1.28952(5) -0.12152(4) 0.17884(2)
Cu2_2 Cu 1.09974(5) 0.27127(4) 0.65800(2)
Cu2A_2 Cu -1.09974(5) -0.27127(4) 0.34200(2)
O5_2 O 0.0948(3) 0.2289(2) 0.81050(14)
O5A_2 O -0.0948(3) -0.2289(2) 0.18950(14)
O7 O 0.8810(5) 0.1020(4) 0.0726(3)
H29 H 0.9321 0.0808 0.0287
H30 H 0.9232 0.1299 0.1028
O8 O 0.9603(8) 0.3784(5) 0.0405(5)
H31 H 0.9054 0.3522 0.0721
H32 H 1.0120 0.4016 0.0679
O9 O 0.1053(10) 0.4847(6) 0.1162(5)
H33 H 0.1902 0.4535 0.1351
O10 O 0.3979(9) 0.1402(6) 0.3846(3)
H34 H 0.4417 0.0963 0.4283
H35 H 0.4294 0.1919 0.3804
O11 O 0.7846(10) 0.2984(7) 0.1378(5)
H36 H 0.7750 0.2803 0.1923
H37 H 0.7378 0.2614 0.1235
N5 N 0.4633(17) 0.3610(16) 0.2723(10)
O12 O 0.557(2) 0.313(3) 0.2270(14)
O13 O 0.4821(19) 0.3384(18) 0.3507(11)
O14 O 0.3430(18) 0.3820(19) 0.2469(12)
N6? N 0.4830(19) 0.3801(13) 0.2337(10)
O15? O 0.5699(19) 0.3940(16) 0.2761(11)
O16? O 0.462(3) 0.2968(17) 0.2492(11)
O17? O 0.455(2) 0.4306(12) 0.1622(9)
loop_
_geom_bond_atom_site_label_1
_geom_bond_atom_site_label_2
_geom_bond_site_symmetry_1
_geom_bond_site_symmetry_2
Cu1 N1 1_555 1_555
Cu2 N3 1_555 1_555
N1 C1 1_555 1_555
N2 Cu1 1_555 1_555
N3 C11 1_555 1_555
N4 Cu2 1_555 1_555
O1 Cu1 1_555 1_555
O2 Cu2 1_555 1_555
O3 Cu1 1_555 1_555
O4 Cu2 1_555 1_555
O5 C30 1_555 1_555
O6 C30 1_555 1_555
C1 H1 1_555 1_555
C2 C1 1_555 1_555
H2 C2 1_555 1_555
C3 C2 1_555 1_555
H3 C3 1_555 1_555
C4 C3 1_555 1_555
H4 C4 1_555 1_555
C5 N1 1_555 1_555
C6 N2 1_555 1_555
C7 C6 1_555 1_555
H5 C7 1_555 1_555
C8 C7 1_555 1_555
H6 C8 1_555 1_555
C9 C8 1_555 1_555
H7 C9 1_555 1_555
C10 N2 1_555 1_555
H8 C10 1_555 1_555
C11 H9 1_555 1_555
C12 C11 1_555 1_555
H10 C12 1_555 1_555
C13 C12 1_555 1_555
H11 C13 1_555 1_555
C14 C13 1_555 1_555
H12 C14 1_555 1_555
C15 N3 1_555 1_555
C16 N4 1_555 1_555
C17 C16 1_555 1_555
H13 C17 1_555 1_555
C18 C17 1_555 1_555
H14 C18 1_555 1_555
C19 C18 1_555 1_555
H15 C19 1_555 1_555
C20 N4 1_555 1_555
H16 C20 1_555 1_555
C21 O1 1_555 1_555
C22 C21 1_555 1_555
H17 C22 1_555 1_555
H18 C22 1_555 1_555
C23 C22 1_555 1_555
C24 C23 1_555 1_555
H19 C24 1_555 1_555
C25 C24 1_555 1_555
H20 C25 1_555 1_555
C26 C23 1_555 1_555
H21 C26 1_555 1_555
C27 C26 1_555 1_555
H22 C27 1_555 1_555
C28 C25 1_555 1_555
C29 C28 1_555 1_555
H23 C29 1_555 1_555
H24 C29 1_555 1_555
C30 C29 1_555 1_555
C31 O3 1_555 1_555
C32 C31 1_555 1_555
H25 C32 1_555 1_555
H26 C32 1_555 1_555
C33 C32 1_555 1_555
C34 C33 1_555 1_555
H27 C34 1_555 1_555
C35 C33 1_555 1_555
H28 C35 1_555 1_555
O7 H29 1_555 1_555
H30 O7 1_555 1_555
O8 H31 1_555 1_555
H32 O8 1_555 1_555
O9 H33 1_555 1_555
O10 H34 1_555 1_555
H35 O10 1_555 1_555
O11 H36 1_555 1_555
H37 O11 1_555 1_555
N5 O12 1_555 1_555
O13 N5 1_555 1_555
O14 N5 1_555 1_555
O3A C31A 1_555 1_555
O4A C31A 1_555 1_555
C31A C32A 1_555 1_555
C32A H25A 1_555 1_555
H26A C32A 1_555 1_555
C33A C32A 1_555 1_555
C34A C35 1_555 1_555
H27A C34A 1_555 1_555
C35A C34 1_555 1_555
H28A C35A 1_555 1_555
Cu1A O3A 1_555 1_555
Cu2A O4A 1_555 1_555
N1A Cu1A 1_555 1_555
N2A Cu1A 1_555 1_555
N3A Cu2A 1_555 1_555
N4A Cu2A 1_555 1_555
O1A Cu1A 1_555 1_555
O2A Cu2A 1_555 1_555
O5A C30A 1_555 1_555
O6A C30A 1_555 1_555
C1A N1A 1_555 1_555
H1A C1A 1_555 1_555
C2A C1A 1_555 1_555
H2A C2A 1_555 1_555
C3A C2A 1_555 1_555
H3A C3A 1_555 1_555
C4A C3A 1_555 1_555
H4A C4A 1_555 1_555
C5A N1A 1_555 1_555
C6A N2A 1_555 1_555
C7A C6A 1_555 1_555
H5A C7A 1_555 1_555
C8A C7A 1_555 1_555
H6A C8A 1_555 1_555
C9A C8A 1_555 1_555
H7A C9A 1_555 1_555
C10A N2A 1_555 1_555
H8A C10A 1_555 1_555
C11A N3A 1_555 1_555
H9A C11A 1_555 1_555
C12A C11A 1_555 1_555
H10A C12A 1_555 1_555
C13A C12A 1_555 1_555
H11A C13A 1_555 1_555
C14A C13A 1_555 1_555
H12A C14A 1_555 1_555
C15A N3A 1_555 1_555
C16A N4A 1_555 1_555
C17A C16A 1_555 1_555
H13A C17A 1_555 1_555
C18A C17A 1_555 1_555
H14A C18A 1_555 1_555
C19A C18A 1_555 1_555
H15A C19A 1_555 1_555
C20A N4A 1_555 1_555
H16A C20A 1_555 1_555
C21A O1A 1_555 1_555
C22A C21A 1_555 1_555
H17A C22A 1_555 1_555
H18A C22A 1_555 1_555
C23A C22A 1_555 1_555
C24A C23A 1_555 1_555
H19A C24A 1_555 1_555
C25A C24A 1_555 1_555
H20A C25A 1_555 1_555
C26A C23A 1_555 1_555
H21A C26A 1_555 1_555
C27A C26A 1_555 1_555
H22A C27A 1_555 1_555
C28A C25A 1_555 1_555
C29A C28A 1_555 1_555
H23A C29A 1_555 1_555
H24A C29A 1_555 1_555
C30A C29A 1_555 1_555
Cu1_2 O5 1_555 1_555
Cu1A_2 O5A 1_555 1_555
Cu2_2 O5 1_555 1_555
Cu2A_2 O5A 1_555 1_555
O5_2 Cu1 1_555 1_555
O5A_2 Cu1A 1_555 1_555
Cu2 O1 1_555 1_555
Cu2 O5_2 1_555 1_555
O2 C21 1_555 1_555
O4 C31 1_555 1_555
C4 C5 1_555 1_555
C5 C6 1_555 1_555
C9 C10 1_555 1_555
C14 C15 1_555 1_555
C15 C16 1_555 1_555
C19 C20 1_555 1_555
C27 C28 1_555 1_555
C33A C34A 1_555 1_555
C33A C35A 1_555 1_555
Cu2A O1A 1_555 1_555
Cu2A O5A_2 1_555 1_555
O2A C21A 1_555 1_555
C4A C5A 1_555 1_555
C5A C6A 1_555 1_555
C9A C10A 1_555 1_555
C14A C15A 1_555 1_555
C15A C16A 1_555 1_555
C19A C20A 1_555 1_555
C27A C28A 1_555 1_555

#END
