
#######################################################################
#
#                 Cambridge Crystallographic Data Centre
#                                CCDC 
#
#######################################################################
#
# If this CIF has been generated from an entry in the Cambridge 
# Structural Database, then it will include bibliographic, chemical, 
# crystal, experimental, refinement or atomic coordinate data resulting 
# from the CCDC's data processing and validation procedures.
#
#######################################################################

data_AFEYAL05
_symmetry_cell_setting           monoclinic
_symmetry_space_group_name_H-M   'C 2/c'
_symmetry_Int_Tables_number      15
_space_group_name_Hall           '-C 2yn'
loop_
_symmetry_equiv_pos_site_id
_symmetry_equiv_pos_as_xyz
1 x,y,z
2 -x,y,1/2-z
3 1/2+x,1/2+y,z
4 1/2-x,1/2+y,1/2-z
5 -x,-y,-z
6 x,-y,1/2+z
7 1/2-x,1/2-y,-z
8 1/2+x,1/2-y,1/2+z
_cell_length_a                   10.6032(5)
_cell_length_b                   15.8676(8)
_cell_length_c                   26.2795(12)
_cell_angle_alpha                90
_cell_angle_beta                 96.001(6)
_cell_angle_gamma                90
_cell_volume                     4397.23
loop_
_atom_site_label
_atom_site_type_symbol
_atom_site_fract_x
_atom_site_fract_y
_atom_site_fract_z
Cd1 Cd 0.32859(3) 0.508838(16) 0.582852(11)
Cd2 Cd 0.0000 0.53130(2) 0.7500
N1 N 0.6605(4) 0.5119(2) 0.50360(15)
C1 C 0.6290(4) 0.5047(2) 0.54384(15)
S1 S 0.58897(11) 0.49601(6) 0.60230(4)
N2 N 0.0051(4) 0.5272(3) 0.66282(14)
C2 C 0.0322(4) 0.5209(2) 0.62188(16)
S2 S 0.06778(11) 0.51213(7) 0.56278(4)
N3 N 0.3229(4) 0.5336(3) 0.66862(15)
C3 C 0.2956(4) 0.5334(2) 0.70996(16)
S3 S 0.26057(11) 0.53320(7) 0.76919(4)
N4 N 0.3140(4) 0.3626(2) 0.59734(16)
C4 C 0.2612(5) 0.3320(3) 0.6372(2)
H1 H 0.2285 0.3697 0.6595
C5 C 0.2527(6) 0.2461(4) 0.6471(3)
H2 H 0.2167 0.2268 0.6757
C6 C 0.2990(6) 0.1905(3) 0.6133(3)
H3 H 0.2932 0.1327 0.6184
C7 C 0.3524(7) 0.2206(3) 0.5732(3)
H4 H 0.3852 0.1841 0.5502
C8 C 0.3585(6) 0.3077(3) 0.5661(3)
H5 H 0.3958 0.3279 0.5380
N5 N 0.3386(4) 0.65687(19) 0.57172(15)
C9 C 0.2388(5) 0.7045(3) 0.5789(2)
H6 H 0.1653 0.6784 0.5873
C10 C 0.2401(5) 0.7917(3) 0.5743(3)
H7 H 0.1685 0.8231 0.5795
C11 C 0.3473(5) 0.8308(3) 0.5621(3)
H8 H 0.3496 0.8890 0.5581
C12 C 0.4504(5) 0.7829(3) 0.5557(3)
H9 H 0.5255 0.8080 0.5483
C13 C 0.4426(5) 0.6956(3) 0.5605(2)
H10 H 0.5135 0.6633 0.5557
N6 N 0.0000 0.3829(3) 0.7500
C14 C 0.0597(5) 0.3397(3) 0.7885(2)
H11 H 0.1019 0.3692 0.8157
C15 C 0.0620(6) 0.2519(3) 0.7897(3)
H12 H 0.1051 0.2235 0.8172
C16 C 0.0000 0.2081(4) 0.7500
H13 H 0.0000 0.1495 0.7500
N7 N 0.0000 0.6795(3) 0.7500
C17 C -0.0690(5) 0.7228(3) 0.7806(2)
H14 H -0.1177 0.6935 0.8022
C18 C -0.0708(6) 0.8108(3) 0.7813(3)
H15 H -0.1199 0.8395 0.8029
C19 C 0.0000 0.8537(5) 0.7500
H16 H 0.0000 0.9123 0.7500
C14A C -0.0597(5) 0.3397(3) 0.7115(2)
H11A H -0.1019 0.3692 0.6843
C15A C -0.0620(6) 0.2519(3) 0.7103(3)
H12A H -0.1051 0.2235 0.6828
C17A C 0.0690(5) 0.7228(3) 0.7194(2)
H14A H 0.1177 0.6935 0.6978
C18A C 0.0708(6) 0.8108(3) 0.7187(3)
H15A H 0.1199 0.8395 0.6971
Cd1A Cd -0.32859(3) 0.508838(16) 0.917148(11)
N1A N -0.6605(4) 0.5119(2) 0.99640(15)
C1A C -0.6290(4) 0.5047(2) 0.95616(15)
S1A S -0.58897(11) 0.49601(6) 0.89770(4)
N2A N -0.0051(4) 0.5272(3) 0.83718(14)
C2A C -0.0322(4) 0.5209(2) 0.87812(16)
S2A S -0.06778(11) 0.51213(7) 0.93722(4)
N3A N -0.3229(4) 0.5336(3) 0.83138(15)
C3A C -0.2956(4) 0.5334(2) 0.79004(16)
S3A S -0.26057(11) 0.53320(7) 0.73081(4)
N4A N -0.3140(4) 0.3626(2) 0.90266(16)
C4A C -0.2612(5) 0.3320(3) 0.8628(2)
H1A H -0.2285 0.3697 0.8405
C5A C -0.2527(6) 0.2461(4) 0.8529(3)
H2A H -0.2167 0.2268 0.8243
C6A C -0.2990(6) 0.1905(3) 0.8867(3)
H3A H -0.2932 0.1327 0.8816
C7A C -0.3524(7) 0.2206(3) 0.9268(3)
H4A H -0.3852 0.1841 0.9498
C8A C -0.3585(6) 0.3077(3) 0.9339(3)
H5A H -0.3958 0.3279 0.9620
N5A N -0.3386(4) 0.65687(19) 0.92828(15)
C9A C -0.2388(5) 0.7045(3) 0.9211(2)
H6A H -0.1653 0.6784 0.9127
C10A C -0.2401(5) 0.7917(3) 0.9257(3)
H7A H -0.1685 0.8231 0.9205
C11A C -0.3473(5) 0.8308(3) 0.9379(3)
H8A H -0.3496 0.8890 0.9419
C12A C -0.4504(5) 0.7829(3) 0.9443(3)
H9A H -0.5255 0.8080 0.9517
C13A C -0.4426(5) 0.6956(3) 0.9395(2)
H10A H -0.5135 0.6633 0.9443
Cd1D Cd 0.67141(3) 0.491162(16) 0.417148(11)
Cd1E Cd -0.67141(3) 0.491162(16) 1.082852(11)
N1D N 0.3395(4) 0.4881(2) 0.49640(15)
N1E N -0.3395(4) 0.4881(2) 1.00360(15)
loop_
_geom_bond_atom_site_label_1
_geom_bond_atom_site_label_2
_geom_bond_site_symmetry_1
_geom_bond_site_symmetry_2
Cd1 S1 1_555 1_555
Cd2 N2 1_555 1_555
N1 C1 1_555 1_555
C1 S1 1_555 1_555
N2 C2 1_555 1_555
C2 S2 1_555 1_555
S2 Cd1 1_555 1_555
N3 Cd1 1_555 1_555
C3 N3 1_555 1_555
S3 Cd2 1_555 1_555
N4 Cd1 1_555 1_555
C4 N4 1_555 1_555
H1 C4 1_555 1_555
C5 C4 1_555 1_555
H2 C5 1_555 1_555
C6 C5 1_555 1_555
H3 C6 1_555 1_555
C7 C6 1_555 1_555
H4 C7 1_555 1_555
C8 N4 1_555 1_555
H5 C8 1_555 1_555
N5 Cd1 1_555 1_555
C9 N5 1_555 1_555
H6 C9 1_555 1_555
C10 C9 1_555 1_555
H7 C10 1_555 1_555
C11 C10 1_555 1_555
H8 C11 1_555 1_555
C12 C11 1_555 1_555
H9 C12 1_555 1_555
C13 N5 1_555 1_555
H10 C13 1_555 1_555
N6 Cd2 1_555 1_555
C14 N6 1_555 1_555
H11 C14 1_555 1_555
C15 C14 1_555 1_555
H12 C15 1_555 1_555
C16 C15 1_555 1_555
H13 C16 1_555 1_555
N7 Cd2 1_555 1_555
C17 N7 1_555 1_555
H14 C17 1_555 1_555
C18 C17 1_555 1_555
H15 C18 1_555 1_555
C19 C18 1_555 1_555
H16 C19 1_555 1_555
C14A N6 1_555 1_555
H11A C14A 1_555 1_555
C15A C16 1_555 1_555
H12A C15A 1_555 1_555
C17A N7 1_555 1_555
H14A C17A 1_555 1_555
C18A C19 1_555 1_555
H15A C18A 1_555 1_555
Cd1A S1A 1_555 1_555
N1A C1A 1_555 1_555
C1A S1A 1_555 1_555
N2A Cd2 1_555 1_555
C2A N2A 1_555 1_555
S2A Cd1A 1_555 1_555
N3A Cd1A 1_555 1_555
C3A N3A 1_555 1_555
S3A Cd2 1_555 1_555
N4A Cd1A 1_555 1_555
C4A N4A 1_555 1_555
H1A C4A 1_555 1_555
C5A C4A 1_555 1_555
H2A C5A 1_555 1_555
C6A C5A 1_555 1_555
H3A C6A 1_555 1_555
C7A C6A 1_555 1_555
H4A C7A 1_555 1_555
C8A N4A 1_555 1_555
H5A C8A 1_555 1_555
N5A Cd1A 1_555 1_555
C9A N5A 1_555 1_555
H6A C9A 1_555 1_555
C10A C9A 1_555 1_555
H7A C10A 1_555 1_555
C11A C10A 1_555 1_555
H8A C11A 1_555 1_555
C12A C11A 1_555 1_555
H9A C12A 1_555 1_555
C13A N5A 1_555 1_555
H10A C13A 1_555 1_555
Cd1D N1 1_555 1_555
Cd1E N1A 1_555 1_555
N1D Cd1 1_555 1_555
N1E Cd1A 1_555 1_555
C3 S3 1_555 1_555
C7 C8 1_555 1_555
C12 C13 1_555 1_555
C14A C15A 1_555 1_555
C17A C18A 1_555 1_555
C2A S2A 1_555 1_555
C3A S3A 1_555 1_555
C7A C8A 1_555 1_555
C12A C13A 1_555 1_555

#END
