
#######################################################################
#
#                 Cambridge Crystallographic Data Centre
#                                CCDC 
#
#######################################################################
#
# If this CIF has been generated from an entry in the Cambridge 
# Structural Database, then it will include bibliographic, chemical, 
# crystal, experimental, refinement or atomic coordinate data resulting 
# from the CCDC's data processing and validation procedures.
#
#######################################################################

data_AFICAU
_symmetry_cell_setting           trigonal
_symmetry_space_group_name_H-M   'P 31'
_symmetry_Int_Tables_number      144
_space_group_name_Hall           'P 31'
loop_
_symmetry_equiv_pos_site_id
_symmetry_equiv_pos_as_xyz
1 x,y,z
2 -y,x-y,1/3+z
3 -x+y,-x,2/3+z
_cell_length_a                   15.6505(19)
_cell_length_b                   15.6505(19)
_cell_length_c                   5.0120(14)
_cell_angle_alpha                90
_cell_angle_beta                 90
_cell_angle_gamma                120
_cell_volume                     1063.16
loop_
_atom_site_label
_atom_site_type_symbol
_atom_site_fract_x
_atom_site_fract_y
_atom_site_fract_z
C1 C 1.0066(5) 0.2099(6) 0.5559(15)
C2 C 1.0318(6) 0.3398(6) 0.8847(15)
H1 H 0.9870 0.3301 1.0303
H2 H 1.0825 0.3273 0.9528
C3 C 1.0786(5) 0.4436(6) 0.7943(16)
C4 C 1.0607(7) 0.5107(7) 0.9319(19)
H3 H 1.0165 0.4894 1.0739
C5 C 1.1086(8) 0.6088(7) 0.857(2)
H4 H 1.0963 0.6529 0.9504
C6 C 1.1742(7) 0.6428(7) 0.646(2)
H5 H 1.2070 0.7092 0.6005
C7 C 1.1905(7) 0.5768(8) 0.506(2)
H6 H 1.2335 0.5980 0.3613
C8 C 1.1424(7) 0.4788(6) 0.5810(17)
H7 H 1.1537 0.4347 0.4835
C9 C 0.8849(6) 0.2674(6) 0.5893(16)
H8 H 0.8627 0.2342 0.4187
H9 H 0.8997 0.3350 0.5667
C10 C 0.8041(6) 0.2174(6) 0.7892(17)
C11 C 0.7728(6) 0.2713(7) 0.9324(17)
H10 H 0.8028 0.3389 0.9036
C12 C 0.6973(6) 0.2274(7) 1.1197(18)
H11 H 0.6766 0.2649 1.2147
C13 C 0.6544(7) 0.1282(8) 1.161(2)
H12 H 0.6040 0.0976 1.2853
C14 C 0.6844(6) 0.0740(7) 1.0219(19)
H13 H 0.6539 0.0063 1.0515
C15 C 0.7590(7) 0.1168(6) 0.8386(18)
H14 H 0.7794 0.0785 0.7471
N1 N 0.9764(4) 0.2672(4) 0.6704(13)
S1 S 0.93514(15) 0.12847(14) 0.3071(5)
S2 S 1.11785(16) 0.21987(18) 0.6397(5)
Ag1 Ag 1.07051(5) 0.10767(5) 0.12225(17)
S1B S 1.19333(21) 0.06486(15) -0.0262(5)
S2_2 S 1.11785(16) 0.21987(18) -0.3603(5)
Ag1A Ag 0.89233(5) -0.03716(7) 0.45558(17)
Ag1_2 Ag 1.07051(5) 0.10767(5) 1.12225(17)
Ag1B Ag 1.03716(7) -0.07051(5) -0.21108(17)
loop_
_geom_bond_atom_site_label_1
_geom_bond_atom_site_label_2
_geom_bond_site_symmetry_1
_geom_bond_site_symmetry_2
C1 N1 1_555 1_555
C2 H1 1_555 1_555
H2 C2 1_555 1_555
C3 C2 1_555 1_555
C4 C3 1_555 1_555
H3 C4 1_555 1_555
C5 C4 1_555 1_555
H4 C5 1_555 1_555
C6 C5 1_555 1_555
H5 C6 1_555 1_555
C7 C6 1_555 1_555
H6 C7 1_555 1_555
C8 C3 1_555 1_555
H7 C8 1_555 1_555
C9 H8 1_555 1_555
H9 C9 1_555 1_555
C10 C9 1_555 1_555
C11 C10 1_555 1_555
H10 C11 1_555 1_555
C12 C11 1_555 1_555
H11 C12 1_555 1_555
C13 C12 1_555 1_555
H12 C13 1_555 1_555
C14 C13 1_555 1_555
H13 C14 1_555 1_555
C15 C10 1_555 1_555
H14 C15 1_555 1_555
N1 C2 1_555 1_555
S1 C1 1_555 1_555
S2 C1 1_555 1_555
Ag1 S1 1_555 1_555
S1B Ag1 1_555 1_555
S2_2 Ag1 1_555 1_555
Ag1A S1 1_555 1_555
Ag1_2 S2 1_555 1_555
Ag1B Ag1 1_555 1_555
C7 C8 1_555 1_555
C9 N1 1_555 1_555
C14 C15 1_555 1_555
S2 Ag1 1_555 1_555
Ag1 Ag1A 1_555 1_555
S1B Ag1B 1_555 1_555

#END
