
#######################################################################
#
#                 Cambridge Crystallographic Data Centre
#                                CCDC 
#
#######################################################################
#
# If this CIF has been generated from an entry in the Cambridge 
# Structural Database, then it will include bibliographic, chemical, 
# crystal, experimental, refinement or atomic coordinate data resulting 
# from the CCDC's data processing and validation procedures.
#
#######################################################################

data_AFIQOW
_symmetry_cell_setting           orthorhombic
_symmetry_space_group_name_H-M   'P b c a'
_symmetry_Int_Tables_number      61
_space_group_name_Hall           '-P 2ac 2ab'
loop_
_symmetry_equiv_pos_site_id
_symmetry_equiv_pos_as_xyz
1 x,y,z
2 1/2-x,-y,1/2+z
3 1/2+x,1/2-y,-z
4 -x,1/2+y,1/2-z
5 -x,-y,-z
6 1/2+x,y,1/2-z
7 1/2-x,1/2+y,z
8 x,1/2-y,1/2+z
_cell_length_a                   14.273
_cell_length_b                   14.190
_cell_length_c                   18.696
_cell_angle_alpha                90
_cell_angle_beta                 90
_cell_angle_gamma                90
_cell_volume                     3786.57
loop_
_atom_site_label
_atom_site_type_symbol
_atom_site_fract_x
_atom_site_fract_y
_atom_site_fract_z
In1 In -0.005914(13) 0.798236(13) 0.066447(10)
O1 O 0.05514(14) 0.72549(14) 0.15508(11)
O2 O 0.17068(17) 0.82472(17) 0.18524(12)
O3 O 0.05873(15) 0.43215(14) 0.40620(11)
O4 O 0.0338(2) 0.41802(17) 0.28892(13)
O5 O 0.36840(15) 0.73798(17) 0.39406(12)
O6 O 0.28650(16) 0.69142(17) 0.48893(12)
O7 O 0.13256(14) 0.86669(14) 0.05384(11)
N1 N -0.05346(17) 0.82483(17) -0.04727(13)
N2 N 0.04206(18) 0.67354(17) -0.00167(14)
C1 C 0.1401(2) 0.69421(19) 0.26038(16)
C2 C 0.0951(2) 0.6079(2) 0.27016(16)
C3 C 0.11140(19) 0.55486(19) 0.33146(15)
C4 C 0.17272(19) 0.5887(2) 0.38330(15)
C5 C 0.22160(18) 0.67210(19) 0.37210(15)
C6 C 0.2054(2) 0.7249(2) 0.31052(15)
C7 C 0.1215(2) 0.75394(19) 0.19559(15)
C8 C 0.0638(2) 0.46062(19) 0.34100(15)
C9 C 0.2963(2) 0.70355(18) 0.42398(15)
C10 C -0.1023(2) 0.9011(2) -0.06626(17)
C11 C -0.1408(3) 0.9115(3) -0.1338(2)
C12 C -0.1275(3) 0.8407(3) -0.18280(19)
C13 C -0.0762(2) 0.7616(3) -0.16420(18)
C14 C -0.0398(2) 0.7554(2) -0.09557(15)
C15 C 0.0173(2) 0.6735(3) -0.07097(17)
C16 C 0.0453(3) 0.6015(3) -0.1164(2)
C17 C 0.0981(3) 0.5287(3) -0.0896(3)
C18 C 0.1235(3) 0.5288(3) -0.0187(3)
C19 C 0.0947(3) 0.6024(2) 0.0239(2)
H1 H 0.055(2) 0.587(2) 0.2342(17)
H2 H 0.239(2) 0.786(2) 0.3018(17)
H3 H 0.183(2) 0.555(2) 0.4261(17)
H4 H -0.065(3) 0.712(3) -0.197(2)
H5 H -0.110(2) 0.949(3) -0.031(2)
H6 H -0.153(3) 0.851(3) -0.225(3)
H7 H -0.175(3) 0.972(3) -0.146(2)
H8 H 0.112(3) 0.605(3) 0.073(2)
H9 H 0.022(3) 0.607(3) -0.159(2)
H10 H 0.117(4) 0.485(4) -0.129(3)
H11 H 0.157(3) 0.482(3) 0.001(2)
In1C In 0.005914(13) 0.298236(13) 0.433553(10)
In1E In 0.494086(13) 0.798236(13) 0.433553(10)
O3C O -0.05873(15) 0.93215(14) 0.09380(11)
O5E O -0.13160(15) 0.73798(17) 0.10594(12)
O8 O 0.3286(5) 0.9479(5) 0.1658(5)
loop_
_geom_bond_atom_site_label_1
_geom_bond_atom_site_label_2
_geom_bond_site_symmetry_1
_geom_bond_site_symmetry_2
In1 O1 1_555 1_555
O1 C7 1_555 1_555
O2 C7 1_555 1_555
O3 C8 1_555 1_555
O4 C8 1_555 1_555
O5 C9 1_555 1_555
O6 C9 1_555 1_555
O7 In1 1_555 1_555
N1 In1 1_555 1_555
N2 In1 1_555 1_555
C1 C2 1_555 1_555
C2 C3 1_555 1_555
C3 C4 1_555 1_555
C4 C5 1_555 1_555
C5 C6 1_555 1_555
C6 C1 1_555 1_555
C7 C1 1_555 1_555
C8 C3 1_555 1_555
C9 C5 1_555 1_555
C10 N1 1_555 1_555
C11 C10 1_555 1_555
C12 C11 1_555 1_555
C13 C12 1_555 1_555
C14 N1 1_555 1_555
C15 N2 1_555 1_555
C16 C15 1_555 1_555
C17 C16 1_555 1_555
C18 C17 1_555 1_555
C19 N2 1_555 1_555
H1 C2 1_555 1_555
H2 C6 1_555 1_555
H3 C4 1_555 1_555
H4 C13 1_555 1_555
H5 C10 1_555 1_555
H6 C12 1_555 1_555
H7 C11 1_555 1_555
H8 C19 1_555 1_555
H9 C16 1_555 1_555
H10 C17 1_555 1_555
H11 C18 1_555 1_555
In1C O3 1_555 1_555
In1E O5 1_555 1_555
O3C In1 1_555 1_555
O5E In1 1_555 1_555
C13 C14 1_555 1_555
C14 C15 1_555 1_555
C18 C19 1_555 1_555

#END
