
#######################################################################
#
#                 Cambridge Crystallographic Data Centre
#                                CCDC 
#
#######################################################################
#
# If this CIF has been generated from an entry in the Cambridge 
# Structural Database, then it will include bibliographic, chemical, 
# crystal, experimental, refinement or atomic coordinate data resulting 
# from the CCDC's data processing and validation procedures.
#
#######################################################################

data_AFIRUD
_symmetry_cell_setting           trigonal
_symmetry_space_group_name_H-M   'P 32 2 1'
_symmetry_Int_Tables_number      154
_space_group_name_Hall           'P 32 2"'
loop_
_symmetry_equiv_pos_site_id
_symmetry_equiv_pos_as_xyz
1 x,y,z
2 -y,x-y,2/3+z
3 -x+y,-x,1/3+z
4 y,x,-z
5 x-y,-y,1/3-z
6 -x,-x+y,2/3-z
_cell_length_a                   9.0773(5)
_cell_length_b                   9.0773(5)
_cell_length_c                   31.015(3)
_cell_angle_alpha                90
_cell_angle_beta                 90
_cell_angle_gamma                120
_cell_volume                     2213.18
loop_
_atom_site_label
_atom_site_type_symbol
_atom_site_fract_x
_atom_site_fract_y
_atom_site_fract_z
Zn1 Zn 0.26762(4) 0.68208(4) 0.154252(10)
O1 O 0.3730(3) 0.8680(3) 0.11151(7)
C1 C 0.4405(4) 0.8577(4) 0.07494(10)
C2 C 0.5972(5) 0.9964(5) 0.06023(11)
H1 H 0.6518 1.0957 0.0770
C3 C 0.6702(5) 0.9895(5) 0.02263(10)
H2 H 0.7734 1.0840 0.0138
C4 C 0.5938(5) 0.8434(5) -0.00328(9)
C5 C 0.4384(5) 0.7081(4) 0.01135(10)
C6 C 0.3595(4) 0.7097(4) 0.04963(9)
C7 C 0.1913(4) 0.5653(4) 0.06320(10)
H3 H 0.1093 0.6054 0.0650
H4 H 0.1509 0.4763 0.0411
N1 N 0.1970(3) 0.4909(3) 0.10535(8)
H5 H 0.2754 0.4550 0.1043
C8 C 0.0278(4) 0.3466(4) 0.11667(11)
H6 H -0.0356 0.2927 0.0899
C9 C 0.0450(6) 0.2155(5) 0.14310(17)
H7 H 0.1263 0.2720 0.1662
H8 H 0.0844 0.1557 0.1247
H9 H -0.0646 0.1349 0.1553
C10 C -0.0731(4) 0.4098(4) 0.14333(10)
O2 O 0.0088(3) 0.5410(3) 0.16488(7)
O3 O -0.2322(3) 0.3178(3) 0.14278(8)
C11 C 0.4190(6) 0.5360(6) -0.04988(10)
C12 C 0.5758(6) 0.6750(6) -0.06507(11)
H10 H 0.6206 0.6628 -0.0913
C13 C 0.6615(5) 0.8221(5) -0.04349(12)
C14 C 0.8294(5) 0.9614(6) -0.06031(13)
H11 H 0.8213 1.0621 -0.0661
H12 H 0.8579 0.9239 -0.0867
H13 H 0.9172 0.9879 -0.0389
O4 O 0.3560(3) 0.5602(3) -0.01221(6)
O5 O 0.3345(4) 0.3951(4) -0.06634(7)
O6 O 0.2456(4) 0.8440(3) 0.19585(8)
H14 H 0.192(6) 0.798(6) 0.2151(14)
H15 H 0.318(5) 0.918(5) 0.2029(12)
Zn1D Zn 0.58554(6) 0.31792(4) 0.179081(10)
Zn1D_2 Zn -0.41446(6) 0.31792(4) 0.179081(10)
O1D O 0.5050(4) 0.1320(3) 0.22182(7)
C1D C 0.5828(6) 0.1423(4) 0.25839(10)
C2D C 0.6008(7) 0.0036(5) 0.27310(11)
H1D H 0.5561 -0.0957 0.2563
C3D C 0.6807(7) 0.0105(5) 0.31070(10)
H2D H 0.6894 -0.0840 0.3195
C4D C 0.7504(7) 0.1566(5) 0.33661(9)
C5D C 0.7303(6) 0.2919(4) 0.32198(10)
C6D C 0.6498(6) 0.2903(4) 0.28370(9)
C7D C 0.6260(6) 0.4347(4) 0.27013(10)
H3D H 0.5039 0.3946 0.2683
H4D H 0.6746 0.5237 0.2922
N1D N 0.7061(4) 0.5091(3) 0.22798(8)
H5D H 0.8204 0.5450 0.2290
C8D C 0.6812(6) 0.6534(4) 0.21666(11)
H6D H 0.6717 0.7073 0.2434
C9D C 0.8295(8) 0.7845(5) 0.19023(17)
H7D H 0.8543 0.7280 0.1671
H8D H 0.9287 0.8443 0.2086
H9D H 0.8005 0.8651 0.1780
C10D C 0.5171(6) 0.5902(4) 0.19000(10)
O2D O 0.4678(4) 0.4590(3) 0.16845(7)
O3D O 0.4500(4) 0.6822(3) 0.19055(8)
O3_2 O 0.7678(3) 0.3178(3) 0.14278(8)
C11D C 0.8830(8) 0.4640(6) 0.38321(10)
C12D C 0.9008(8) 0.3250(6) 0.39840(11)
H10D H 0.9578 0.3372 0.4246
C13D C 0.8394(7) 0.1779(5) 0.37682(12)
C14D C 0.8680(8) 0.0386(6) 0.39364(13)
H11D H 0.7592 -0.0621 0.3994
H12D H 0.9340 0.0761 0.4200
H13D H 0.9293 0.0121 0.3722
O4D O 0.7958(4) 0.4398(3) 0.34554(6)
O5D O 0.9394(6) 0.6049(4) 0.39967(7)
O6D O 0.4016(5) 0.1560(3) 0.13748(8)
H14D H 0.394(8) 0.202(6) 0.1182(14)
H15D H 0.400(7) 0.082(5) 0.1304(12)
O7 O 0.1558(9) 0.1558(9) 0.0000
H16 H 0.201(4) 0.221(3) -0.0236(6)
H16C H 0.221(3) 0.201(4) 0.0236(6)
loop_
_geom_bond_atom_site_label_1
_geom_bond_atom_site_label_2
_geom_bond_site_symmetry_1
_geom_bond_site_symmetry_2
Zn1 O1 1_555 1_555
O1 C1 1_555 1_555
C1 C2 1_555 1_555
C2 H1 1_555 1_555
C3 C2 1_555 1_555
H2 C3 1_555 1_555
C4 C3 1_555 1_555
C5 C4 1_555 1_555
C6 C1 1_555 1_555
C7 C6 1_555 1_555
H3 C7 1_555 1_555
H4 C7 1_555 1_555
N1 Zn1 1_555 1_555
H5 N1 1_555 1_555
C8 N1 1_555 1_555
H6 C8 1_555 1_555
C9 C8 1_555 1_555
H7 C9 1_555 1_555
H8 C9 1_555 1_555
H9 C9 1_555 1_555
C10 C8 1_555 1_555
O2 Zn1 1_555 1_555
O3 C10 1_555 1_555
C11 C12 1_555 1_555
C12 H10 1_555 1_555
C13 C4 1_555 1_555
C14 C13 1_555 1_555
H11 C14 1_555 1_555
H12 C14 1_555 1_555
H13 C14 1_555 1_555
O4 C5 1_555 1_555
O5 C11 1_555 1_555
O6 Zn1 1_555 1_555
H14 O6 1_555 1_555
H15 O6 1_555 1_555
O7 H16 1_555 1_555
Zn1D O1D 1_555 1_555
Zn1D_2 O3 1_555 1_555
O1D C1D 1_555 1_555
C1D C2D 1_555 1_555
C2D H1D 1_555 1_555
C3D C2D 1_555 1_555
H2D C3D 1_555 1_555
C4D C3D 1_555 1_555
C5D C4D 1_555 1_555
C6D C1D 1_555 1_555
C7D C6D 1_555 1_555
H3D C7D 1_555 1_555
H4D C7D 1_555 1_555
N1D Zn1D 1_555 1_555
H5D N1D 1_555 1_555
C8D N1D 1_555 1_555
H6D C8D 1_555 1_555
C9D C8D 1_555 1_555
H7D C9D 1_555 1_555
H8D C9D 1_555 1_555
H9D C9D 1_555 1_555
C10D C8D 1_555 1_555
O2D Zn1D 1_555 1_555
O3D Zn1 1_555 1_555
O3_2 Zn1D 1_555 1_555
C11D C12D 1_555 1_555
C12D H10D 1_555 1_555
C13D C4D 1_555 1_555
C14D C13D 1_555 1_555
H11D C14D 1_555 1_555
H12D C14D 1_555 1_555
H13D C14D 1_555 1_555
O4D C5D 1_555 1_555
O5D C11D 1_555 1_555
O6D Zn1D 1_555 1_555
H14D O6D 1_555 1_555
H15D O6D 1_555 1_555
H16C O7 1_555 1_555
C5 C6 1_555 1_555
C7 N1 1_555 1_555
C10 O2 1_555 1_555
C11 O4 1_555 1_555
C12 C13 1_555 1_555
C5D C6D 1_555 1_555
C7D N1D 1_555 1_555
C10D O2D 1_555 1_555
C10D O3D 1_555 1_555
C11D O4D 1_555 1_555
C12D C13D 1_555 1_555

#END
