
#######################################################################
#
#                 Cambridge Crystallographic Data Centre
#                                CCDC 
#
#######################################################################
#
# If this CIF has been generated from an entry in the Cambridge 
# Structural Database, then it will include bibliographic, chemical, 
# crystal, experimental, refinement or atomic coordinate data resulting 
# from the CCDC's data processing and validation procedures.
#
#######################################################################

data_AFOGOS
_symmetry_cell_setting           monoclinic
_symmetry_space_group_name_H-M   'P 21/n'
_symmetry_Int_Tables_number      14
_space_group_name_Hall           '-P 2yn'
loop_
_symmetry_equiv_pos_site_id
_symmetry_equiv_pos_as_xyz
1 x,y,z
2 1/2-x,1/2+y,1/2-z
3 -x,-y,-z
4 1/2+x,1/2-y,1/2+z
_cell_length_a                   8.0674(9)
_cell_length_b                   28.516(3)
_cell_length_c                   9.1564(10)
_cell_angle_alpha                90
_cell_angle_beta                 104.329(2)
_cell_angle_gamma                90
_cell_volume                     2040.9
loop_
_atom_site_label
_atom_site_type_symbol
_atom_site_fract_x
_atom_site_fract_y
_atom_site_fract_z
O1 O 0.4894(3) 0.06735(7) 0.7596(3)
Cd1 Cd 0.20017(2) 0.227786(6) 0.89532(2)
O2 O 0.9598(3) -0.03645(8) 0.6692(4)
C1 C 0.8700(4) -0.07037(10) 0.6760(4)
C2 C 0.7084(4) -0.06593(10) 0.7284(3)
C3 C 0.6436(4) -0.10271(10) 0.7977(3)
H1 H 0.6968 -0.1319 0.8065
C4 C 0.5014(4) -0.09622(10) 0.8531(4)
H2 H 0.4594 -0.1208 0.9002
C5 C 0.4213(4) -0.05300(10) 0.8385(4)
H3 H 0.3251 -0.0488 0.8758
C6 C 0.4820(4) -0.01597(9) 0.7694(3)
C7 C 0.6273(4) -0.02245(10) 0.7152(4)
H4 H 0.6703 0.0024 0.6699
C8 C 0.4055(4) 0.03222(9) 0.7633(4)
N1 N 0.2388(3) 0.03305(9) 0.7709(3)
C9 C 0.1482(3) 0.07077(9) 0.8136(3)
C10 C 0.0019(4) 0.05985(10) 0.8604(4)
H5 H -0.0341 0.0289 0.8610
C11 C -0.0894(4) 0.09532(10) 0.9060(4)
H6 H -0.1890 0.0888 0.9359
C12 C -0.0309(4) 0.14075(10) 0.9065(4)
H7 H -0.0915 0.1647 0.9390
N2 N 0.1099(3) 0.15141(8) 0.8619(3)
C13 C 0.1982(3) 0.11732(9) 0.8146(3)
H8 H 0.2950 0.1250 0.7817
O3 O 0.1579(3) 0.22050(8) 1.1337(2)
O4 O 0.4323(2) 0.25110(7) 1.2611(2)
S1 S 0.26162(8) 0.23792(2) 1.27938(7)
O5 O 0.1773(3) 0.27900(7) 1.3242(3)
O6 O 0.2775(3) 0.20075(7) 1.3925(2)
N3 N 1.2406(3) -0.19254(8) 0.5779(3)
C14 C 1.3260(4) -0.16467(10) 0.5041(3)
H9 H 1.4183 -0.1770 0.4729
C15 C 1.1449(4) -0.09937(10) 0.5170(3)
H10 H 1.1131 -0.0683 0.4959
C16 C 1.2821(4) -0.11848(10) 0.4729(3)
H11 H 1.3449 -0.1001 0.4220
C17 C 1.0562(3) -0.12805(9) 0.5937(3)
N4 N 0.9085(3) -0.11422(9) 0.6404(3)
C18 C 1.1100(4) -0.17396(9) 0.6235(4)
H12 H 1.0524 -0.1927 0.6779
O7 O 0.3177(3) 0.22356(10) 0.6883(3)
O8 O 0.4774(3) 0.20438(8) 1.0124(3)
H13 H 0.422(3) 0.2237(16) 0.701(6)
H14 H 0.292(6) 0.2172(16) 0.600(2)
H15 H 0.552(5) 0.2087(14) 0.966(4)
H16 H 0.500(6) 0.2160(15) 1.096(5)
H17 H 0.189(4) 0.0063(12) 0.761(4)
H18 H 0.839(4) -0.1363(12) 0.643(4)
Cd1C Cd 0.70017(2) 0.272214(6) 1.39532(2)
Cd1A Cd 1.29983(2) -0.272214(6) 0.60468(2)
O4C O -0.0677(2) 0.24890(7) 0.7611(2)
N3A N 0.2594(3) 0.30746(8) 0.9221(3)
loop_
_geom_bond_atom_site_label_1
_geom_bond_atom_site_label_2
_geom_bond_site_symmetry_1
_geom_bond_site_symmetry_2
O1 C8 1_555 1_555
Cd1 N2 1_555 1_555
O2 C1 1_555 1_555
C1 C2 1_555 1_555
C2 C3 1_555 1_555
C3 H1 1_555 1_555
C4 C3 1_555 1_555
H2 C4 1_555 1_555
C5 C4 1_555 1_555
H3 C5 1_555 1_555
C6 C5 1_555 1_555
C7 C2 1_555 1_555
H4 C7 1_555 1_555
C8 C6 1_555 1_555
N1 C8 1_555 1_555
C9 N1 1_555 1_555
C10 C9 1_555 1_555
H5 C10 1_555 1_555
C11 C10 1_555 1_555
H6 C11 1_555 1_555
C12 C11 1_555 1_555
H7 C12 1_555 1_555
N2 C12 1_555 1_555
C13 C9 1_555 1_555
H8 C13 1_555 1_555
O3 Cd1 1_555 1_555
O4 S1 1_555 1_555
S1 O3 1_555 1_555
O5 S1 1_555 1_555
O6 S1 1_555 1_555
N3 C14 1_555 1_555
C14 H9 1_555 1_555
C15 H10 1_555 1_555
C16 C14 1_555 1_555
H11 C16 1_555 1_555
C17 C15 1_555 1_555
N4 C1 1_555 1_555
C18 N3 1_555 1_555
H12 C18 1_555 1_555
O7 Cd1 1_555 1_555
O8 Cd1 1_555 1_555
H13 O7 1_555 1_555
H14 O7 1_555 1_555
H15 O8 1_555 1_555
H16 O8 1_555 1_555
H17 N1 1_555 1_555
H18 N4 1_555 1_555
Cd1C O4 1_555 1_555
Cd1A N3 1_555 1_555
O4C Cd1 1_555 1_555
N3A Cd1 1_555 1_555
C6 C7 1_555 1_555
N2 C13 1_555 1_555
C15 C16 1_555 1_555
C17 N4 1_555 1_555
C17 C18 1_555 1_555

#END
