
#######################################################################
#
#                 Cambridge Crystallographic Data Centre
#                                CCDC 
#
#######################################################################
#
# If this CIF has been generated from an entry in the Cambridge 
# Structural Database, then it will include bibliographic, chemical, 
# crystal, experimental, refinement or atomic coordinate data resulting 
# from the CCDC's data processing and validation procedures.
#
#######################################################################

data_AFOJEK01
_symmetry_cell_setting           triclinic
_symmetry_space_group_name_H-M   'P -1'
_symmetry_Int_Tables_number      2
_space_group_name_Hall           '-P 1'
loop_
_symmetry_equiv_pos_site_id
_symmetry_equiv_pos_as_xyz
1 x,y,z
2 -x,-y,-z
_cell_length_a                   6.4146(9)
_cell_length_b                   9.3821(13)
_cell_length_c                   9.5654(13)
_cell_angle_alpha                88.4090(10)
_cell_angle_beta                 74.3800(10)
_cell_angle_gamma                76.6240(10)
_cell_volume                     539.003
loop_
_atom_site_label
_atom_site_type_symbol
_atom_site_fract_x
_atom_site_fract_y
_atom_site_fract_z
Nd1 Nd 0.848382(18) 0.440227(12) 0.219910(12)
O1 O 0.7684(3) 0.60237(19) 0.43225(19)
O2 O 0.4624(3) 0.6287(2) 0.6164(2)
O3 O 0.8963(3) 0.74241(19) 0.6627(2)
O4 O 0.9135(3) 0.9741(2) 0.6977(2)
H1 H 0.9991 0.9347 0.7449
O5 O 0.8530(3) 0.18091(18) 0.14575(19)
O6 O 0.6281(3) 0.35549(17) 0.06280(19)
O7 O 0.4522(3) 0.34171(18) -0.19840(18)
O8 O 0.1542(3) 0.37336(18) -0.01217(19)
O9 O 1.1566(3) 0.5525(3) 0.2248(2)
H2 H 1.2717 0.5432 0.1567
H3 H 1.1669 0.5994 0.2944
C1 C 0.8360(4) 0.8737(3) 0.6469(3)
C2 C 0.6636(4) 0.9362(3) 0.5686(2)
C3 C 0.3938(4) 0.9113(3) 0.4447(3)
H4 H 0.3214 0.8529 0.4071
C4 C 0.5566(4) 0.8450(2) 0.5129(2)
C5 C 0.6019(4) 0.6783(2) 0.5223(2)
C6 C 0.6973(4) 0.2221(2) 0.0840(2)
C7 C 0.5953(4) 0.1085(2) 0.0383(2)
C8 C 0.4278(4) 0.1461(2) -0.0345(2)
C9 C 0.3442(4) 0.2981(2) -0.0822(2)
C10 C 0.6650(4) -0.0375(2) 0.0715(2)
H5 H 0.7760 -0.0627 0.1194
Nd1A Nd 0.151618(18) 1.559773(12) 0.780090(12)
Nd1A_2 Nd 0.151618(18) 0.559773(12) 0.780090(12)
Nd1A_3 Nd 1.151618(18) 0.559773(12) 0.780090(12)
Nd1A_4 Nd 0.151618(18) 0.559773(12) -0.219910(12)
Nd1_2 Nd -0.151618(18) 0.440227(12) 0.219910(12)
Nd1_3 Nd -0.151618(18) 1.440227(12) 0.219910(12)
Nd1_4 Nd 0.848382(18) 1.440227(12) 0.219910(12)
Nd1A_5 Nd 0.151618(18) -0.440227(12) -0.219910(12)
Nd1_5 Nd 0.848382(18) -0.559773(12) 0.219910(12)
Nd1A_6 Nd 1.151618(18) -0.440227(12) -0.219910(12)
O1A O 0.2316(3) 1.39763(19) 0.56775(19)
O2A O 0.5376(3) 1.3713(2) 0.3836(2)
O2A_2 O 0.5376(3) 0.3713(2) 0.3836(2)
O2_2 O 0.4624(3) 1.6287(2) 0.6164(2)
O3A O 0.1037(3) 1.25759(19) 0.3373(2)
O3A_2 O 1.1037(3) 0.25759(19) 0.3373(2)
O3_2 O -0.1037(3) 1.74241(19) 0.6627(2)
O4A O 0.0865(3) 1.0259(2) 0.3023(2)
H1A H 0.0009 1.0653 0.2551
O5A O 0.1470(3) -0.18091(18) -0.14575(19)
O5A_2 O 0.1470(3) 1.81909(18) 0.85425(19)
O6A O 0.3719(3) -0.35549(17) -0.06280(19)
O6A_2 O 0.3719(3) 1.64451(17) 0.93720(19)
O7A O 0.5478(3) -0.34171(18) 0.19840(18)
O7A_2 O 0.5478(3) 0.65829(18) 0.19840(18)
O7_2 O 0.4522(3) 1.34171(18) 0.80160(18)
O8A O 0.8458(3) -0.37336(18) 0.01217(19)
O8_2 O 1.1542(3) 0.37336(18) -0.01217(19)
O8A_2 O 0.8458(3) 0.62664(18) 0.01217(19)
O8A_3 O -0.1542(3) 1.62664(18) 1.01217(19)
O8_3 O 0.1542(3) 1.37336(18) 0.98783(19)
O9A O -0.1566(3) 1.4475(3) 0.7752(2)
H2A H -0.2717 1.4568 0.8433
H3A H -0.1669 1.4006 0.7056
C1A C 0.1640(4) 1.1263(3) 0.3531(3)
C2A C 0.3364(4) 1.0638(3) 0.4314(2)
C3A C 0.6062(4) 1.0887(3) 0.5553(3)
H4A H 0.6786 1.1471 0.5929
C4A C 0.4434(4) 1.1550(2) 0.4871(2)
C5A C 0.3981(4) 1.3217(2) 0.4777(2)
C6A C 0.3027(4) -0.2221(2) -0.0840(2)
C7A C 0.4047(4) -0.1085(2) -0.0383(2)
C8A C 0.5722(4) -0.1461(2) 0.0345(2)
C9A C 0.6558(4) -0.2981(2) 0.0822(2)
C10A C 0.3350(4) 0.0375(2) -0.0715(2)
H5A H 0.2240 0.0627 -0.1194
loop_
_geom_bond_atom_site_label_1
_geom_bond_atom_site_label_2
_geom_bond_site_symmetry_1
_geom_bond_site_symmetry_2
Nd1 O1 1_555 1_555
O1 C5 1_555 1_555
O2 C5 1_555 1_555
O3 C1 1_555 1_555
O4 H1 1_555 1_555
O5 Nd1 1_555 1_555
O6 Nd1 1_555 1_555
O7 C9 1_555 1_555
O8 C9 1_555 1_555
O9 Nd1 1_555 1_555
H2 O9 1_555 1_555
H3 O9 1_555 1_555
C1 O4 1_555 1_555
C2 C1 1_555 1_555
C3 H4 1_555 1_555
C4 C2 1_555 1_555
C5 C4 1_555 1_555
C6 O5 1_555 1_555
C7 C6 1_555 1_555
C8 C7 1_555 1_555
C9 C8 1_555 1_555
C10 C7 1_555 1_555
H5 C10 1_555 1_555
Nd1A O1A 1_555 1_555
Nd1A_2 O2 1_555 1_555
Nd1A_3 O3 1_555 1_555
Nd1A_4 O7 1_555 1_555
Nd1_2 O8 1_555 1_555
Nd1_3 O3A 1_555 1_555
Nd1_4 O2A 1_555 1_555
Nd1A_5 O5A 1_555 1_555
Nd1_5 O7A 1_555 1_555
Nd1A_6 O8A 1_555 1_555
O1A C5A 1_555 1_555
O2A C5A 1_555 1_555
O2A_2 Nd1 1_555 1_555
O2_2 Nd1A 1_555 1_555
O3A C1A 1_555 1_555
O3A_2 Nd1 1_555 1_555
O3_2 Nd1A 1_555 1_555
O4A H1A 1_555 1_555
O5A C6A 1_555 1_555
O5A_2 Nd1A 1_555 1_555
O6A Nd1A_5 1_555 1_555
O6A_2 Nd1A 1_555 1_555
O7A C9A 1_555 1_555
O7A_2 Nd1 1_555 1_555
O7_2 Nd1A 1_555 1_555
O8A Nd1_5 1_555 1_555
O8_2 Nd1 1_555 1_555
O8A_2 Nd1 1_555 1_555
O8A_3 Nd1A 1_555 1_555
O8_3 Nd1A 1_555 1_555
O9A Nd1A 1_555 1_555
H2A O9A 1_555 1_555
H3A O9A 1_555 1_555
C1A O4A 1_555 1_555
C2A C3 1_555 1_555
C3A C2 1_555 1_555
H4A C3A 1_555 1_555
C4A C2A 1_555 1_555
C5A C4A 1_555 1_555
C6A O6A 1_555 1_555
C7A C6A 1_555 1_555
C8A C10 1_555 1_555
C9A O8A 1_555 1_555
C10A C8 1_555 1_555
H5A C10A 1_555 1_555
O6 C6 1_555 1_555
O8 Nd1A_4 1_555 1_555
C3 C4 1_555 1_555
C1A C2A 1_555 1_555
C3A C4A 1_555 1_555
C7A C8A 1_555 1_555
C7A C10A 1_555 1_555
C8A C9A 1_555 1_555

#END
