
#######################################################################
#
#                 Cambridge Crystallographic Data Centre
#                                CCDC 
#
#######################################################################
#
# If this CIF has been generated from an entry in the Cambridge 
# Structural Database, then it will include bibliographic, chemical, 
# crystal, experimental, refinement or atomic coordinate data resulting 
# from the CCDC's data processing and validation procedures.
#
#######################################################################

data_AFOKUC
_symmetry_cell_setting           triclinic
_symmetry_space_group_name_H-M   'P -1'
_symmetry_Int_Tables_number      2
_space_group_name_Hall           '-P 1'
loop_
_symmetry_equiv_pos_site_id
_symmetry_equiv_pos_as_xyz
1 x,y,z
2 -x,-y,-z
_cell_length_a                   7.4980(6)
_cell_length_b                   7.7578(7)
_cell_length_c                   10.5603(9)
_cell_angle_alpha                104.016(7)
_cell_angle_beta                 96.294(6)
_cell_angle_gamma                110.306(7)
_cell_volume                     546.136
loop_
_atom_site_label
_atom_site_type_symbol
_atom_site_fract_x
_atom_site_fract_y
_atom_site_fract_z
C1 C -0.2433(5) -0.5517(4) -0.3886(3)
C2 C -0.2959(6) -0.7391(5) -0.4684(4)
H1 H -0.3088 -0.8403 -0.4328
C3 C -0.3279(8) -0.7660(8) -0.6041(4)
H2 H -0.3620 -0.8889 -0.6623
C4 C -0.3109(7) -0.6157(8) -0.6559(3)
H3 H -0.3371 -0.6407 -0.7481
C5 C -0.2558(6) -0.4288(7) -0.5750(3)
H4 H -0.2419 -0.3275 -0.6105
C6 C -0.2223(5) -0.3996(5) -0.4380(3)
C7 C -0.1579(5) -0.2137(4) -0.3293(3)
C8 C -0.4494(4) -0.1351(4) 0.0323(3)
H5 H -0.4188 -0.2315 0.0551
C9 C -0.6362(4) -0.1396(4) 0.0284(3)
N1 N -0.1367(4) -0.2366(3) -0.2056(2)
N2 N -0.3134(3) 0.0046(3) 0.00401(18)
O1 O -0.3695(4) -0.5315(4) -0.1649(2)
O2 O -0.0311(4) -0.4869(3) -0.1509(2)
O3 O -0.0760(3) -0.2126(3) 0.1245(2)
O4 O -0.1260(5) -0.0595(4) -0.3514(2)
S1 S -0.19661(11) -0.46059(9) -0.21380(6)
Cd1 Cd 0.0000 0.0000 0.0000
H6 H -0.721(5) -0.233(5) 0.042(3)
H7 H -0.065(7) -0.316(4) 0.108(5)
H8 H -0.018(7) -0.140(6) 0.199(3)
C1A C 0.2433(5) 0.5517(4) 0.3886(3)
C2A C 0.2959(6) 0.7391(5) 0.4684(4)
H1A H 0.3088 0.8403 0.4328
C3A C 0.3279(8) 0.7660(8) 0.6041(4)
H2A H 0.3620 0.8889 0.6623
C4A C 0.3109(7) 0.6157(8) 0.6559(3)
H3A H 0.3371 0.6407 0.7481
C5A C 0.2558(6) 0.4288(7) 0.5750(3)
H4A H 0.2419 0.3275 0.6105
C6A C 0.2223(5) 0.3996(5) 0.4380(3)
C7A C 0.1579(5) 0.2137(4) 0.3293(3)
C8A C -0.5506(4) 0.1351(4) -0.0323(3)
H5A H -0.5812 0.2315 -0.0551
C9A C -0.3638(4) 0.1396(4) -0.0284(3)
N1A N 0.1367(4) 0.2366(3) 0.2056(2)
N2A N -0.6866(3) -0.0046(3) -0.00401(18)
N2A_2 N 0.3134(3) -0.0046(3) -0.00401(18)
O1A O 0.3695(4) 0.5315(4) 0.1649(2)
O2A O 0.0311(4) 0.4869(3) 0.1509(2)
O3A O 0.0760(3) 0.2126(3) -0.1245(2)
O4A O 0.1260(5) 0.0595(4) 0.3514(2)
S1A S 0.19661(11) 0.46059(9) 0.21380(6)
Cd1_2 Cd -1.0000 0.0000 0.0000
H6A H -0.279(5) 0.233(5) -0.042(3)
H7A H 0.065(7) 0.316(4) -0.108(5)
H8A H 0.018(7) 0.140(6) -0.199(3)
loop_
_geom_bond_atom_site_label_1
_geom_bond_atom_site_label_2
_geom_bond_site_symmetry_1
_geom_bond_site_symmetry_2
C1 C2 1_555 1_555
C2 H1 1_555 1_555
C3 C2 1_555 1_555
H2 C3 1_555 1_555
C4 C3 1_555 1_555
H3 C4 1_555 1_555
C5 C4 1_555 1_555
H4 C5 1_555 1_555
C6 C1 1_555 1_555
C7 C6 1_555 1_555
C8 H5 1_555 1_555
C9 C8 1_555 1_555
N1 C7 1_555 1_555
N2 C8 1_555 1_555
O1 S1 1_555 1_555
O2 S1 1_555 1_555
O3 Cd1 1_555 1_555
O4 C7 1_555 1_555
S1 C1 1_555 1_555
Cd1 N1 1_555 1_555
H6 C9 1_555 1_555
H7 O3 1_555 1_555
H8 O3 1_555 1_555
C1A C2A 1_555 1_555
C2A H1A 1_555 1_555
C3A C2A 1_555 1_555
H2A C3A 1_555 1_555
C4A C3A 1_555 1_555
H3A C4A 1_555 1_555
C5A C4A 1_555 1_555
H4A C5A 1_555 1_555
C6A C1A 1_555 1_555
C7A C6A 1_555 1_555
C8A H5A 1_555 1_555
C9A N2 1_555 1_555
N1A Cd1 1_555 1_555
N2A C9 1_555 1_555
N2A_2 Cd1 1_555 1_555
O1A S1A 1_555 1_555
O2A S1A 1_555 1_555
O3A Cd1 1_555 1_555
O4A C7A 1_555 1_555
S1A C1A 1_555 1_555
Cd1_2 N2A 1_555 1_555
H6A C9A 1_555 1_555
H7A O3A 1_555 1_555
H8A O3A 1_555 1_555
C5 C6 1_555 1_555
N1 S1 1_555 1_555
N2 Cd1 1_555 1_555
C5A C6A 1_555 1_555
C7A N1A 1_555 1_555
C8A C9A 1_555 1_555
C8A N2A 1_555 1_555
N1A S1A 1_555 1_555

#END
