
#######################################################################
#
#                 Cambridge Crystallographic Data Centre
#                                CCDC 
#
#######################################################################
#
# If this CIF has been generated from an entry in the Cambridge 
# Structural Database, then it will include bibliographic, chemical, 
# crystal, experimental, refinement or atomic coordinate data resulting 
# from the CCDC's data processing and validation procedures.
#
#######################################################################

data_AFONIT
_symmetry_cell_setting           triclinic
_symmetry_space_group_name_H-M   'P -1'
_symmetry_Int_Tables_number      2
_space_group_name_Hall           '-P 1'
loop_
_symmetry_equiv_pos_site_id
_symmetry_equiv_pos_as_xyz
1 x,y,z
2 -x,-y,-z
_cell_length_a                   7.9472(12)
_cell_length_b                   12.933(2)
_cell_length_c                   15.403(2)
_cell_angle_alpha                80.454(3)
_cell_angle_beta                 77.663(3)
_cell_angle_gamma                87.259(3)
_cell_volume                     1525.04
loop_
_atom_site_label
_atom_site_type_symbol
_atom_site_fract_x
_atom_site_fract_y
_atom_site_fract_z
Nd1 Nd 0.242723(18) 0.029910(12) 0.524661(10)
Cl1 Cl 0.98063(12) 0.07212(10) 0.82544(7)
Cl2 Cl 0.63243(16) 0.12315(9) 1.15406(6)
Cl3 Cl 0.4378(2) 0.58341(9) 0.40341(8)
Cl4 Cl 0.31806(18) 0.59333(11) 0.07187(8)
Cl5 Cl 0.02852(17) 0.29831(8) 0.03321(6)
Cl6 Cl -0.15144(18) 0.62169(9) 0.21352(9)
O1 O 0.3889(3) 0.10960(17) 0.61683(14)
O2 O 0.6745(3) 0.08188(18) 0.59978(15)
O3 O 0.6589(3) 0.1251(2) 0.76911(14)
O4 O 0.3284(3) 0.21044(17) 0.43442(16)
O5 O 0.5367(3) 0.09289(16) 0.43258(14)
O6 O 0.5528(3) 0.37466(18) 0.39089(17)
O7 O 0.0436(3) 0.06571(16) 0.42205(13)
O8 O -0.1224(3) 0.08434(19) 0.32406(14)
O9 O 0.1291(3) 0.19636(19) 0.19357(14)
O10 O 0.0165(3) 0.15082(18) 0.59274(16)
C1 C 0.5277(4) 0.1071(2) 0.6433(2)
C2 C 0.5041(4) 0.1384(3) 0.7354(2)
H1 H 0.4669 0.2112 0.7321
H2 H 0.4144 0.0961 0.7768
C3 C 0.6426(4) 0.1268(3) 0.8599(2)
C4 C 0.7892(4) 0.1035(3) 0.8950(2)
C5 C 0.7854(5) 0.1019(3) 0.9846(2)
H3 H 0.8841 0.0850 1.0075
C6 C 0.6339(5) 0.1257(3) 1.0401(2)
C7 C 0.4874(5) 0.1498(3) 1.0078(2)
H4 H 0.3854 0.1653 1.0462
C8 C 0.4925(4) 0.1510(3) 0.9170(2)
H5 H 0.3935 0.1684 0.8944
C9 C 0.4841(4) 0.1883(2) 0.4215(2)
C10 C 0.6206(4) 0.2709(3) 0.3954(3)
H6 H 0.6943 0.2600 0.4389
H7 H 0.6912 0.2627 0.3372
C11 C 0.4975(4) 0.4189(3) 0.3147(2)
C12 C 0.4360(5) 0.5212(3) 0.3128(3)
C13 C 0.3801(5) 0.5743(3) 0.2385(3)
H8 H 0.3375 0.6426 0.2383
C14 C 0.3878(5) 0.5260(3) 0.1651(3)
C15 C 0.4497(6) 0.4239(4) 0.1657(3)
H9 H 0.4553 0.3914 0.1156
C16 C 0.5031(5) 0.3708(3) 0.2406(3)
H10 H 0.5431 0.3020 0.2412
C17 C 0.0188(4) 0.0943(2) 0.34187(19)
C18 C 0.1739(4) 0.1333(3) 0.2703(2)
H11 H 0.2447 0.1739 0.2960
H12 H 0.2420 0.0736 0.2515
C19 C 0.0592(4) 0.2924(3) 0.2055(2)
C20 C 0.0040(5) 0.3514(3) 0.1313(2)
C21 C -0.0641(5) 0.4509(3) 0.1342(3)
H13 H -0.1009 0.4887 0.0846
C22 C -0.0767(5) 0.4937(3) 0.2117(3)
C23 C -0.0231(5) 0.4369(3) 0.2851(3)
H14 H -0.0309 0.4664 0.3369
C24 C 0.0418(5) 0.3370(3) 0.2821(2)
H15 H 0.0745 0.2988 0.3327
C25 C 0.0342(6) 0.2525(3) 0.6161(3)
H16 H 0.1454 0.2557 0.6319
H17 H -0.0538 0.2611 0.6688
C26 C 0.0194(9) 0.3408(4) 0.5428(4)
H18 H 0.0138 0.4059 0.5654
H19 H -0.0833 0.3331 0.5211
H20 H 0.1180 0.3403 0.4943
Nd1A Nd 0.757277(18) -0.029910(12) 0.475339(10)
Nd1A_2 Nd -0.242723(18) -0.029910(12) 0.475339(10)
O2A O 0.3255(3) -0.08188(18) 0.40022(15)
O5A O 0.4633(3) -0.09289(16) 0.56742(14)
O7A O -0.0436(3) -0.06571(16) 0.57795(13)
O8A O 0.1224(3) -0.08434(19) 0.67594(14)
loop_
_geom_bond_atom_site_label_1
_geom_bond_atom_site_label_2
_geom_bond_site_symmetry_1
_geom_bond_site_symmetry_2
Nd1 O1 1_555 1_555
Cl1 C4 1_555 1_555
Cl2 C6 1_555 1_555
Cl3 C12 1_555 1_555
Cl4 C14 1_555 1_555
Cl5 C20 1_555 1_555
Cl6 C22 1_555 1_555
O1 C1 1_555 1_555
O2 C1 1_555 1_555
O3 C2 1_555 1_555
O4 Nd1 1_555 1_555
O5 Nd1 1_555 1_555
O6 C10 1_555 1_555
O7 Nd1 1_555 1_555
O8 C17 1_555 1_555
O9 C18 1_555 1_555
O10 Nd1 1_555 1_555
C1 C2 1_555 1_555
C2 H1 1_555 1_555
H2 C2 1_555 1_555
C3 O3 1_555 1_555
C4 C3 1_555 1_555
C5 C4 1_555 1_555
H3 C5 1_555 1_555
C6 C5 1_555 1_555
C7 C6 1_555 1_555
H4 C7 1_555 1_555
C8 C3 1_555 1_555
H5 C8 1_555 1_555
C9 O4 1_555 1_555
C10 C9 1_555 1_555
H6 C10 1_555 1_555
H7 C10 1_555 1_555
C11 O6 1_555 1_555
C12 C11 1_555 1_555
C13 C12 1_555 1_555
H8 C13 1_555 1_555
C14 C13 1_555 1_555
C15 C14 1_555 1_555
H9 C15 1_555 1_555
C16 C11 1_555 1_555
H10 C16 1_555 1_555
C17 O7 1_555 1_555
C18 C17 1_555 1_555
H11 C18 1_555 1_555
H12 C18 1_555 1_555
C19 O9 1_555 1_555
C20 C19 1_555 1_555
C21 C20 1_555 1_555
H13 C21 1_555 1_555
C22 C21 1_555 1_555
C23 C22 1_555 1_555
H14 C23 1_555 1_555
C24 C19 1_555 1_555
H15 C24 1_555 1_555
C25 O10 1_555 1_555
H16 C25 1_555 1_555
H17 C25 1_555 1_555
C26 C25 1_555 1_555
H18 C26 1_555 1_555
H19 C26 1_555 1_555
H20 C26 1_555 1_555
Nd1A O2 1_555 1_555
Nd1A_2 O7 1_555 1_555
O2A Nd1 1_555 1_555
O5A Nd1 1_555 1_555
O7A Nd1 1_555 1_555
O8A Nd1 1_555 1_555
O5 C9 1_555 1_555
O5 Nd1A 1_555 1_555
O8 Nd1A_2 1_555 1_555
C7 C8 1_555 1_555
C15 C16 1_555 1_555
C23 C24 1_555 1_555
Nd1A O5A 1_555 1_555
Nd1A_2 O7A 1_555 1_555

#END
