
#######################################################################
#
#                 Cambridge Crystallographic Data Centre
#                                CCDC 
#
#######################################################################
#
# If this CIF has been generated from an entry in the Cambridge 
# Structural Database, then it will include bibliographic, chemical, 
# crystal, experimental, refinement or atomic coordinate data resulting 
# from the CCDC's data processing and validation procedures.
#
#######################################################################

data_AFONUF
_symmetry_cell_setting           triclinic
_symmetry_space_group_name_H-M   'P -1'
_symmetry_Int_Tables_number      2
_space_group_name_Hall           '-P 1'
loop_
_symmetry_equiv_pos_site_id
_symmetry_equiv_pos_as_xyz
1 x,y,z
2 -x,-y,-z
_cell_length_a                   7.931(2)
_cell_length_b                   16.232(4)
_cell_length_c                   16.739(4)
_cell_angle_alpha                66.131(9)
_cell_angle_beta                 87.677(10)
_cell_angle_gamma                80.073(10)
_cell_volume                     1940.08
loop_
_atom_site_label
_atom_site_type_symbol
_atom_site_fract_x
_atom_site_fract_y
_atom_site_fract_z
La1 La 0.72951(4) 0.54448(2) 0.467779(18)
O1 O 0.9953(4) 0.5470(2) 0.5548(2)
O2 O 0.7732(4) 0.6517(2) 0.5461(2)
O3 O 0.7954(5) 0.8737(3) 0.6158(2)
O4 O 0.4844(4) 0.6645(2) 0.3949(2)
O5 O 0.2297(4) 0.6205(2) 0.4189(2)
O6 O -0.0160(5) 0.9253(2) 0.2159(2)
O7 O 0.6717(4) 0.5340(3) 0.3210(2)
O8 O 0.3679(5) 0.5725(3) 0.0973(2)
O9 O 0.5015(4) 0.4682(2) 0.4244(2)
O10 O 0.8923(4) 0.6594(2) 0.3637(2)
H1 H 0.9986 0.6470 0.3774
H2 H 0.8874 0.6813 0.3082
N1 N 0.5770(7) 0.9573(3) 0.6930(3)
N2 N -0.1779(6) 0.9267(4) 0.0795(3)
N3 N 0.5922(7) 0.6596(4) -0.0115(3)
C1 C 0.9252(6) 0.6166(4) 0.5695(3)
C2 C 1.0282(7) 0.6526(4) 0.6171(4)
H7 H 1.1182 0.6791 0.5795
H8 H 1.0829 0.6015 0.6683
C3 C 0.9296(8) 0.7234(4) 0.6463(4)
H9 H 0.8226 0.7041 0.6701
H10 H 0.9951 0.7254 0.6929
C4 C 0.8903(7) 0.8184(4) 0.5753(4)
H11 H 0.9952 0.8409 0.5520
H12 H 0.8229 0.8189 0.5280
C5 C 0.7307(8) 0.9627(4) 0.5658(4)
C6 C 0.7674(9) 1.0096(5) 0.4806(4)
H13 H 0.8411 0.9805 0.4517
C7 C 0.6915(10) 1.1040(5) 0.4359(5)
H14 H 0.7165 1.1361 0.3778
C8 C 0.5840(9) 1.1468(5) 0.4774(5)
H15 H 0.5365 1.2081 0.4478
C9 C 0.5439(8) 1.0995(4) 0.5644(4)
C10 C 0.6157(7) 1.0073(4) 0.6096(4)
C11 C 0.4676(8) 0.9981(5) 0.7318(5)
H16 H 0.4383 0.9635 0.7885
C12 C 0.3925(9) 1.0901(6) 0.6937(6)
H17 H 0.3190 1.1163 0.7250
C13 C 0.4285(9) 1.1403(5) 0.6105(6)
H18 H 0.3780 1.2015 0.5833
C14 C 0.3266(7) 0.6776(4) 0.3808(3)
C15 C 0.2455(6) 0.7709(4) 0.3134(3)
H19 H 0.3355 0.8053 0.2852
H20 H 0.1846 0.7624 0.2689
C16 C 0.1224(7) 0.8256(4) 0.3527(3)
H21 H 0.0216 0.7970 0.3708
H22 H 0.1765 0.8239 0.4044
C17 C 0.0677(8) 0.9233(4) 0.2911(4)
H23 H -0.0101 0.9552 0.3196
H24 H 0.1667 0.9536 0.2737
C18 C -0.0723(7) 1.0093(4) 0.1518(4)
C19 C -0.0530(8) 1.0906(4) 0.1542(4)
H25 H 0.0012 1.0914 0.2020
C20 C -0.1164(10) 1.1724(5) 0.0834(5)
H26 H -0.1023 1.2274 0.0849
C21 C -0.1966(10) 1.1741(6) 0.0135(5)
H27 H -0.2380 1.2298 -0.0318
C22 C -0.2182(8) 1.0926(5) 0.0086(4)
C23 C -0.1592(7) 1.0081(4) 0.0792(4)
C24 C -0.2560(9) 0.9284(6) 0.0104(4)
H28 H -0.2704 0.8730 0.0097
C25 C -0.3184(10) 1.0092(7) -0.0619(5)
H29 H -0.3721 1.0068 -0.1091
C26 C -0.2997(10) 1.0903(7) -0.0622(5)
H30 H -0.3411 1.1443 -0.1095
C27 C 0.5473(6) 0.4926(4) 0.3459(3)
C28 C 0.4514(7) 0.4732(4) 0.2815(3)
H31 H 0.4164 0.4141 0.3110
H32 H 0.5274 0.4703 0.2355
C29 C 0.2958(7) 0.5445(4) 0.2413(3)
H33 H 0.3228 0.6044 0.2293
H34 H 0.2045 0.5340 0.2828
C30 C 0.2341(7) 0.5435(5) 0.1576(3)
H35 H 0.2180 0.4826 0.1664
H36 H 0.1268 0.5853 0.1364
C31 C 0.3377(8) 0.5933(4) 0.0108(3)
C32 C 0.2028(9) 0.5718(4) -0.0209(4)
H37 H 0.1265 0.5387 0.0172
C33 C 0.1801(10) 0.6000(6) -0.1121(5)
H38 H 0.0893 0.5850 -0.1339
C34 C 0.2899(10) 0.6489(5) -0.1680(4)
H39 H 0.2720 0.6676 -0.2278
C35 C 0.4298(9) 0.6719(5) -0.1380(4)
C36 C 0.4580(8) 0.6418(4) -0.0468(4)
C37 C 0.6968(10) 0.7081(5) -0.0665(4)
H40 H 0.7891 0.7205 -0.0433
C38 C 0.6786(11) 0.7422(6) -0.1571(5)
H41 H 0.7556 0.7767 -0.1931
C39 C 0.5443(10) 0.7234(6) -0.1918(4)
H42 H 0.5296 0.7454 -0.2521
La1A La 1.27049(4) 0.45552(2) 0.532221(18)
La1A_2 La 0.27049(4) 0.45552(2) 0.532221(18)
O1A O 1.0047(4) 0.4530(2) 0.4452(2)
O5A O 0.7703(4) 0.3795(2) 0.5811(2)
O9A O 0.4985(4) 0.5318(2) 0.5756(2)
O11 O 0.9189(7) 0.7373(3) 0.1919(3)
H3 H 0.8321 0.7246 0.1740
H4 H 0.9015 0.7955 0.1711
O12 O 0.2279(8) 0.3810(4) 0.8544(4)
H5 H 0.3169 0.3435 0.8539
H6 H 0.2420 0.4319 0.8138
loop_
_geom_bond_atom_site_label_1
_geom_bond_atom_site_label_2
_geom_bond_site_symmetry_1
_geom_bond_site_symmetry_2
La1 O1 1_555 1_555
O1 C1 1_555 1_555
O2 La1 1_555 1_555
O3 C4 1_555 1_555
O4 La1 1_555 1_555
O5 C14 1_555 1_555
O6 C17 1_555 1_555
O7 La1 1_555 1_555
O8 C30 1_555 1_555
O9 La1 1_555 1_555
O10 La1 1_555 1_555
H1 O10 1_555 1_555
H2 O10 1_555 1_555
O11 H3 1_555 1_555
H4 O11 1_555 1_555
O12 H5 1_555 1_555
H6 O12 1_555 1_555
N1 C10 1_555 1_555
N2 C23 1_555 1_555
N3 C36 1_555 1_555
C1 O2 1_555 1_555
C2 C1 1_555 1_555
H7 C2 1_555 1_555
H8 C2 1_555 1_555
C3 C2 1_555 1_555
H9 C3 1_555 1_555
H10 C3 1_555 1_555
C4 C3 1_555 1_555
H11 C4 1_555 1_555
H12 C4 1_555 1_555
C5 O3 1_555 1_555
C6 C5 1_555 1_555
H13 C6 1_555 1_555
C7 C6 1_555 1_555
H14 C7 1_555 1_555
C8 C7 1_555 1_555
H15 C8 1_555 1_555
C9 C8 1_555 1_555
C10 C5 1_555 1_555
C11 N1 1_555 1_555
H16 C11 1_555 1_555
C12 C11 1_555 1_555
H17 C12 1_555 1_555
C13 C9 1_555 1_555
H18 C13 1_555 1_555
C14 O4 1_555 1_555
C15 C14 1_555 1_555
H19 C15 1_555 1_555
H20 C15 1_555 1_555
C16 C15 1_555 1_555
H21 C16 1_555 1_555
H22 C16 1_555 1_555
C17 C16 1_555 1_555
H23 C17 1_555 1_555
H24 C17 1_555 1_555
C18 O6 1_555 1_555
C19 C18 1_555 1_555
H25 C19 1_555 1_555
C20 C19 1_555 1_555
H26 C20 1_555 1_555
C21 C20 1_555 1_555
H27 C21 1_555 1_555
C22 C21 1_555 1_555
C23 C18 1_555 1_555
C24 N2 1_555 1_555
H28 C24 1_555 1_555
C25 C24 1_555 1_555
H29 C25 1_555 1_555
C26 C22 1_555 1_555
H30 C26 1_555 1_555
C27 O7 1_555 1_555
C28 C27 1_555 1_555
H31 C28 1_555 1_555
H32 C28 1_555 1_555
C29 C28 1_555 1_555
H33 C29 1_555 1_555
H34 C29 1_555 1_555
C30 C29 1_555 1_555
H35 C30 1_555 1_555
H36 C30 1_555 1_555
C31 O8 1_555 1_555
C32 C31 1_555 1_555
H37 C32 1_555 1_555
C33 C32 1_555 1_555
H38 C33 1_555 1_555
C34 C33 1_555 1_555
H39 C34 1_555 1_555
C35 C34 1_555 1_555
C36 C31 1_555 1_555
C37 N3 1_555 1_555
H40 C37 1_555 1_555
C38 C37 1_555 1_555
H41 C38 1_555 1_555
C39 C35 1_555 1_555
H42 C39 1_555 1_555
La1A O1 1_555 1_555
La1A_2 O5 1_555 1_555
O1A La1 1_555 1_555
O5A La1 1_555 1_555
O9A La1 1_555 1_555
O9 C27 1_555 1_555
O9 La1A_2 1_555 1_555
C9 C10 1_555 1_555
C12 C13 1_555 1_555
C22 C23 1_555 1_555
C25 C26 1_555 1_555
C35 C36 1_555 1_555
C38 C39 1_555 1_555
La1A O1A 1_555 1_555
La1A_2 O9A 1_555 1_555

#END
