
#######################################################################
#
#                 Cambridge Crystallographic Data Centre
#                                CCDC 
#
#######################################################################
#
# If this CIF has been generated from an entry in the Cambridge 
# Structural Database, then it will include bibliographic, chemical, 
# crystal, experimental, refinement or atomic coordinate data resulting 
# from the CCDC's data processing and validation procedures.
#
#######################################################################

data_AFOQOC01
_symmetry_cell_setting           monoclinic
_symmetry_space_group_name_H-M   'P 21/c'
_symmetry_Int_Tables_number      14
_space_group_name_Hall           '-P 2ybc'
loop_
_symmetry_equiv_pos_site_id
_symmetry_equiv_pos_as_xyz
1 x,y,z
2 -x,1/2+y,1/2-z
3 -x,-y,-z
4 x,1/2-y,1/2+z
_cell_length_a                   8.712(2)
_cell_length_b                   13.121(5)
_cell_length_c                   18.958(9)
_cell_angle_alpha                90
_cell_angle_beta                 93.89(3)
_cell_angle_gamma                90
_cell_volume                     2162.1
loop_
_atom_site_label
_atom_site_type_symbol
_atom_site_fract_x
_atom_site_fract_y
_atom_site_fract_z
Zn1 Zn 0.0000 0.5000 0.0000
Zn2 Zn 0.14149(7) 0.42448(5) 0.44850(4)
Zn3 Zn 0.47910(7) 0.70834(5) 0.06444(4)
N1 N 0.1853(5) 0.5524(4) 0.5061(3)
N2 N 0.0854(5) 0.6059(4) 0.5452(3)
N3 N 0.3094(6) 0.6869(4) 0.5503(3)
O1 O 0.1805(5) 0.4652(3) 0.0717(2)
O2 O 0.3642(5) 0.5750(3) 0.0472(2)
O3 O 0.1528(5) 0.4375(4) 0.3419(2)
O4 O 0.3729(5) 0.4448(4) 0.4022(2)
O5 O 0.8561(5) 0.4451(5) 0.2960(3)
H1 H 0.9503 0.4432 0.2964
O6 O 0.8784(5) 0.4667(4) 0.1827(3)
O7 O 0.2198(5) 0.2896(3) 0.4868(2)
O8 O 0.4391(5) 0.2224(4) 0.5305(2)
O9 O 0.3655(5) 0.2968(3) 0.8591(2)
O10 O 0.5668(5) 0.2887(4) 0.7955(2)
O11 O -0.2120(5) 0.2891(6) 0.6461(3)
O12 O -0.1515(5) 0.3036(5) 0.7596(3)
H2 H -0.2452 0.3047 0.7618
O13 O -0.0741(6) 0.6093(4) 0.0760(2)
O14 O -0.1226(5) 0.3838(4) 0.0436(2)
C1 C 0.1635(7) 0.6853(5) 0.5710(3)
H3 H 0.1232 0.7344 0.5999
C2 C 0.3156(7) 0.6037(5) 0.5101(4)
H4 H 0.4022 0.5841 0.4875
C3 C 0.3060(6) 0.5089(4) 0.0865(3)
C4 C 0.2983(7) 0.4456(4) 0.3443(3)
C5 C 0.7990(7) 0.4574(5) 0.2319(4)
C6 C 0.3892(6) 0.4829(4) 0.1563(3)
C7 C 0.3047(6) 0.4703(4) 0.2139(3)
H5 H 0.1977 0.4711 0.2093
C8 C 0.3833(7) 0.4564(4) 0.2792(3)
C9 C 0.5424(7) 0.4525(5) 0.2853(3)
H6 H 0.5936 0.4441 0.3296
C10 C 0.6262(7) 0.4609(5) 0.2261(3)
C11 C 0.5493(7) 0.4763(4) 0.1602(3)
H7 H 0.6034 0.4821 0.1198
C12 C 0.3127(6) 0.2648(4) 0.5384(3)
C13 C 0.4270(7) 0.2915(4) 0.8001(3)
C14 C -0.1188(7) 0.2954(5) 0.6942(4)
C15 C 0.2632(7) 0.2807(4) 0.6102(3)
C16 C 0.3681(6) 0.2819(4) 0.6689(3)
H8 H 0.4729 0.2773 0.6630
C17 C 0.3165(6) 0.2898(4) 0.7361(3)
C18 C 0.1589(6) 0.2933(4) 0.7444(3)
H9 H 0.1242 0.2960 0.7897
C19 C 0.0528(7) 0.2927(5) 0.6863(3)
C20 C 0.1042(7) 0.2880(5) 0.6194(3)
H10 H 0.0341 0.2897 0.5802
Zn2B Zn -0.14149(7) 0.57552(5) -0.44850(4)
Zn2B_2 Zn -0.14149(7) 0.57552(5) 0.55150(4)
Zn2A Zn 0.85851(7) 0.92448(5) 0.05150(4)
Zn3B Zn -0.47910(7) 0.29166(5) -0.06444(4)
Zn3C Zn 0.47910(7) 0.79166(5) 0.56444(4)
Zn3A Zn 0.52090(7) 0.20834(5) 0.43556(4)
Zn3B_2 Zn 0.52090(7) 0.29166(5) 0.93556(4)
Zn3A_2 Zn -0.47910(7) 0.20834(5) 0.43556(4)
Zn3C_2 Zn 0.47910(7) 0.79166(5) -0.43556(4)
N1B N -0.1853(5) 0.4476(4) 0.4939(3)
N1B_2 N -0.1853(5) 0.4476(4) -0.5061(3)
N2B N -0.0854(5) 0.3941(4) 0.4548(3)
N2_2 N 0.0854(5) 0.6059(4) -0.4548(3)
N3B N -0.3094(6) 0.3131(4) 0.4497(3)
N3C N 0.3094(6) 0.8131(4) 0.0503(3)
N3A N -0.3094(6) 0.1869(4) -0.0503(3)
O1B O -0.1805(5) 0.5348(3) -0.0717(2)
O2B O -0.3642(5) 0.4250(3) -0.0472(2)
O3B O -0.1528(5) 0.5625(4) -0.3419(2)
O4B O -0.3729(5) 0.5552(4) -0.4022(2)
O5B O -0.8561(5) 0.5549(5) -0.2960(3)
H1B H -0.9503 0.5568 -0.2964
O6B O -0.8784(5) 0.5333(4) -0.1827(3)
O7A O 0.7802(5) 0.7896(3) 0.0132(2)
O7B O -0.2198(5) 0.7104(3) -0.4868(2)
O8A O 0.5609(5) 0.7224(4) -0.0305(2)
O8C O -0.5609(5) 0.2776(4) 0.0305(2)
O9A O 0.6345(5) 0.7968(3) -0.3591(2)
O9B O 0.6345(5) 0.7032(3) 0.1409(2)
O9_2 O -0.6345(5) 0.2968(3) -0.1409(2)
O10A O 0.4332(5) 0.7887(4) -0.2955(2)
O11A O 1.2120(5) 0.7891(6) -0.1461(3)
O12A O 1.1515(5) 0.8036(5) -0.2596(3)
H2A H 1.2452 0.8047 -0.2618
O13B O 0.0741(6) 0.3907(4) -0.0760(2)
O14B O 0.1226(5) 0.6162(4) -0.0436(2)
C1B C -0.1635(7) 0.3147(5) 0.4290(3)
H3B H -0.1232 0.2656 0.4001
C2B C -0.3156(7) 0.3963(5) 0.4899(4)
H4B H -0.4022 0.4159 0.5125
C3B C -0.3060(6) 0.4911(4) -0.0865(3)
C4B C -0.2983(7) 0.5544(4) -0.3443(3)
C5B C -0.7990(7) 0.5426(5) -0.2319(4)
C6B C -0.3892(6) 0.5171(4) -0.1563(3)
C7B C -0.3047(6) 0.5297(4) -0.2139(3)
H5B H -0.1977 0.5289 -0.2093
C8B C -0.3833(7) 0.5436(4) -0.2792(3)
C9B C -0.5424(7) 0.5475(5) -0.2853(3)
H6B H -0.5936 0.5559 -0.3296
C10B C -0.6262(7) 0.5391(5) -0.2261(3)
C11B C -0.5493(7) 0.5237(4) -0.1602(3)
H7B H -0.6034 0.5179 -0.1198
C12A C 0.6873(6) 0.7648(4) -0.0384(3)
C13A C 0.5730(7) 0.7915(4) -0.3001(3)
C14A C 1.1188(7) 0.7954(5) -0.1942(4)
C15A C 0.7368(7) 0.7807(4) -0.1102(3)
C16A C 0.6319(6) 0.7819(4) -0.1689(3)
H8A H 0.5271 0.7773 -0.1630
C17A C 0.6835(6) 0.7898(4) -0.2361(3)
C18A C 0.8411(6) 0.7933(4) -0.2444(3)
H9A H 0.8758 0.7960 -0.2897
C19A C 0.9472(7) 0.7927(5) -0.1863(3)
C20A C 0.8958(7) 0.7880(5) -0.1194(3)
H10A H 0.9659 0.7897 -0.0802
loop_
_geom_bond_atom_site_label_1
_geom_bond_atom_site_label_2
_geom_bond_site_symmetry_1
_geom_bond_site_symmetry_2
Zn1 O1 1_555 1_555
Zn2 N1 1_555 1_555
Zn3 O2 1_555 1_555
N1 N2 1_555 1_555
N2 C1 1_555 1_555
N3 C1 1_555 1_555
O1 C3 1_555 1_555
O2 C3 1_555 1_555
O3 Zn2 1_555 1_555
O4 Zn2 1_555 1_555
O5 H1 1_555 1_555
O6 C5 1_555 1_555
O7 Zn2 1_555 1_555
O8 C12 1_555 1_555
O9 C13 1_555 1_555
O10 C13 1_555 1_555
O11 C14 1_555 1_555
O12 H2 1_555 1_555
O13 Zn1 1_555 1_555
O14 Zn1 1_555 1_555
C1 H3 1_555 1_555
C2 N1 1_555 1_555
H4 C2 1_555 1_555
C3 C6 1_555 1_555
C4 O3 1_555 1_555
C5 O5 1_555 1_555
C6 C7 1_555 1_555
C7 H5 1_555 1_555
C8 C4 1_555 1_555
C9 C8 1_555 1_555
H6 C9 1_555 1_555
C10 C5 1_555 1_555
C11 C6 1_555 1_555
H7 C11 1_555 1_555
C12 O7 1_555 1_555
C13 C17 1_555 1_555
C14 O12 1_555 1_555
C15 C12 1_555 1_555
C16 C15 1_555 1_555
H8 C16 1_555 1_555
C17 C16 1_555 1_555
C18 C17 1_555 1_555
H9 C18 1_555 1_555
C19 C14 1_555 1_555
C20 C15 1_555 1_555
H10 C20 1_555 1_555
Zn2B N1B_2 1_555 1_555
Zn2B_2 N2 1_555 1_555
Zn2A O7A 1_555 1_555
Zn3B N3A 1_555 1_555
Zn3C N3 1_555 1_555
Zn3A O8 1_555 1_555
Zn3B_2 O9 1_555 1_555
Zn3A_2 N3B 1_555 1_555
Zn3C_2 O9A 1_555 1_555
N1B Zn2B_2 1_555 1_555
N2B Zn2 1_555 1_555
N2_2 Zn2B 1_555 1_555
N3B C1B 1_555 1_555
N3C Zn3 1_555 1_555
O1B Zn1 1_555 1_555
O2B Zn3B 1_555 1_555
O3B Zn2B 1_555 1_555
O4B Zn2B 1_555 1_555
O5B H1B 1_555 1_555
O6B C5B 1_555 1_555
O7A C12A 1_555 1_555
O7B Zn2B 1_555 1_555
O8A Zn3 1_555 1_555
O8C Zn3B 1_555 1_555
O9A C13A 1_555 1_555
O9B Zn3 1_555 1_555
O9_2 Zn3B 1_555 1_555
O10A C13A 1_555 1_555
O11A C14A 1_555 1_555
O12A H2A 1_555 1_555
O13B Zn1 1_555 1_555
O14B Zn1 1_555 1_555
C1B N2B 1_555 1_555
H3B C1B 1_555 1_555
C2B N1B 1_555 1_555
H4B C2B 1_555 1_555
C3B O1B 1_555 1_555
C4B O3B 1_555 1_555
C5B O5B 1_555 1_555
C6B C3B 1_555 1_555
C7B C6B 1_555 1_555
H5B C7B 1_555 1_555
C8B C4B 1_555 1_555
C9B C8B 1_555 1_555
H6B C9B 1_555 1_555
C10B C5B 1_555 1_555
C11B C6B 1_555 1_555
H7B C11B 1_555 1_555
C12A O8A 1_555 1_555
C13A C17A 1_555 1_555
C14A O12A 1_555 1_555
C15A C12A 1_555 1_555
C16A C15A 1_555 1_555
H8A C16A 1_555 1_555
C17A C16A 1_555 1_555
C18A C17A 1_555 1_555
H9A C18A 1_555 1_555
C19A C14A 1_555 1_555
C20A C15A 1_555 1_555
H10A C20A 1_555 1_555
N3 C2 1_555 1_555
O4 C4 1_555 1_555
C7 C8 1_555 1_555
C9 C10 1_555 1_555
C10 C11 1_555 1_555
C18 C19 1_555 1_555
C19 C20 1_555 1_555
N1B N2B 1_555 1_555
N3B C2B 1_555 1_555
O2B C3B 1_555 1_555
O4B C4B 1_555 1_555
C7B C8B 1_555 1_555
C9B C10B 1_555 1_555
C10B C11B 1_555 1_555
C18A C19A 1_555 1_555
C19A C20A 1_555 1_555

#END
