
#######################################################################
#
#                 Cambridge Crystallographic Data Centre
#                                CCDC 
#
#######################################################################
#
# If this CIF has been generated from an entry in the Cambridge 
# Structural Database, then it will include bibliographic, chemical, 
# crystal, experimental, refinement or atomic coordinate data resulting 
# from the CCDC's data processing and validation procedures.
#
#######################################################################

data_AFOROD
_symmetry_cell_setting           monoclinic
_symmetry_space_group_name_H-M   'C 2/c'
_symmetry_Int_Tables_number      15
_space_group_name_Hall           '-C 2yn'
loop_
_symmetry_equiv_pos_site_id
_symmetry_equiv_pos_as_xyz
1 x,y,z
2 1/2+x,1/2+y,z
3 -x,y,1/2-z
4 1/2-x,1/2+y,1/2-z
5 -x,-y,-z
6 1/2-x,1/2-y,-z
7 x,-y,1/2+z
8 1/2+x,1/2-y,1/2+z
_cell_length_a                   19.5910(10)
_cell_length_b                   13.4860(7)
_cell_length_c                   19.1550(10)
_cell_angle_alpha                90
_cell_angle_beta                 120.240(2)
_cell_angle_gamma                90
_cell_volume                     4372.17
loop_
_atom_site_label
_atom_site_type_symbol
_atom_site_fract_x
_atom_site_fract_y
_atom_site_fract_z
Zn1 Zn 0.05055(2) 0.22683(3) 0.04686(2)
O1 O -0.05628(16) 0.2366(2) 0.0237(2)
N1 N 0.10945(16) 0.3549(2) 0.07858(16)
C1 C -0.1725(2) 0.2738(3) 0.0224(2)
N2 N 0.08417(18) 0.4356(2) 0.10086(17)
O2 O 0.04304(19) 0.1895(2) -0.05368(15)
C2 C 0.04826(19) 0.1058(3) -0.08011(19)
C3 C 0.02332(18) 0.1050(2) -0.16841(19)
C4 C 0.1396(2) 0.5057(3) 0.1319(2)
C5 C 0.2042(2) 0.4704(3) 0.12969(18)
C6 C 0.01191(19) 0.0168(3) -0.20862(18)
O3 O 0.07040(19) 0.0293(2) -0.04080(14)
C7 C -0.2004(2) 0.1781(3) -0.0008(2)
C8 C 0.2828(2) 0.5203(3) 0.1602(2)
H1 H 0.3165 0.4772 0.1500
H2 H 0.2749 0.5809 0.1297
C9 C 0.1832(2) 0.3762(3) 0.0959(2)
O4 O -0.05995(18) 0.3774(3) 0.0790(2)
C10 C -0.2230(2) 0.3448(3) 0.0233(2)
C11 C 0.0112(3) 0.1930(3) -0.2098(2)
C12 C -0.0896(2) 0.2992(3) 0.0445(2)
C13 C 0.1253(3) 0.6018(3) 0.1610(3)
H3 H 0.0850 0.5931 0.1750
H4 H 0.1085 0.6507 0.1191
H5 H 0.1733 0.6235 0.2078
C14 C 0.2299(3) 0.3025(4) 0.0796(3)
H6 H 0.1948 0.2564 0.0393
H7 H 0.2647 0.2674 0.1284
H8 H 0.2606 0.3362 0.0604
H9 H 0.0179(19) 0.247(3) -0.189(2)
H10 H 0.0190(19) -0.045(3) -0.173(2)
H11 H -0.207(2) 0.396(3) 0.038(2)
H12 H 0.039(2) 0.426(3) 0.098(2)
H13 H -0.168(2) 0.129(3) -0.002(2)
N3 N 0.39247(16) 0.6292(2) 0.36426(15)
N4 N 0.37720(16) 0.5373(2) 0.37968(16)
C15 C 0.36091(18) 0.6342(3) 0.28386(18)
C16 C 0.32462(18) 0.5452(3) 0.24862(18)
C17 C 0.3376(2) 0.4841(3) 0.3124(2)
C18 C 0.3709(3) 0.7251(3) 0.2449(2)
H14 H 0.3879 0.7793 0.2825
H15 H 0.3214 0.7415 0.1978
H16 H 0.4098 0.7128 0.2295
C19 C 0.3193(3) 0.3780(3) 0.3155(3)
H17 H 0.3620 0.3478 0.3628
H18 H 0.3126 0.3447 0.2681
H19 H 0.2716 0.3727 0.3176
H20 H 0.3982(18) 0.522(2) 0.433(2)
Zn1E Zn -0.55055(2) 0.27317(3) -0.04686(2)
Zn1C Zn 0.44945(2) 0.72683(3) 0.45314(2)
Zn1B Zn -0.05055(2) 0.22683(3) -0.54686(2)
Zn1C_2 Zn 0.44945(2) -0.27317(3) 0.45314(2)
O1E O -0.44372(16) 0.2634(2) -0.0237(2)
N1C N 0.39055(16) -0.1451(2) 0.42142(16)
N1E N -0.60945(16) 0.1451(2) -0.07858(16)
C1E C -0.3275(2) 0.2262(3) -0.0224(2)
N2C N 0.41583(18) -0.0644(2) 0.39914(17)
O2B O -0.04304(19) 0.1895(2) -0.44632(15)
O2E O -0.54304(19) 0.3105(2) 0.05368(15)
C2B C -0.04826(19) 0.1058(3) -0.41989(19)
C3B C -0.02332(18) 0.1050(2) -0.33159(19)
C4C C 0.3604(2) 0.0057(3) 0.3681(2)
C5C C 0.2958(2) -0.0296(3) 0.37031(18)
C6B C -0.01191(19) 0.0168(3) -0.29138(18)
O3B O -0.07040(19) 0.0293(2) -0.45920(14)
C7E C -0.2996(2) 0.3219(3) 0.0008(2)
C8C C 0.2172(2) 0.0203(3) 0.3398(2)
H1C H 0.1835 -0.0228 0.3500
H2C H 0.2251 0.0809 0.3703
C9C C 0.3168(2) -0.1238(3) 0.4041(2)
O4E O -0.44005(18) 0.1226(3) -0.0790(2)
C10E C -0.2770(2) 0.1552(3) -0.0233(2)
C11B C -0.0112(3) 0.1930(3) -0.2902(2)
C12E C -0.4104(2) 0.2008(3) -0.0445(2)
C13C C 0.3747(3) 0.1018(3) 0.3390(3)
H3C H 0.4150 0.0931 0.3250
H4C H 0.3915 0.1507 0.3809
H5C H 0.3267 0.1235 0.2922
C14C C 0.2701(3) -0.1975(4) 0.4204(3)
H6C H 0.3052 -0.2436 0.4607
H7C H 0.2353 -0.2326 0.3716
H8C H 0.2394 -0.1638 0.4396
H9B H -0.0179(19) 0.247(3) -0.311(2)
H10B H -0.0190(19) -0.045(3) -0.327(2)
H11E H -0.293(2) 0.104(3) -0.038(2)
H12C H 0.461(2) -0.074(3) 0.402(2)
H13E H -0.332(2) 0.371(3) 0.002(2)
N3C N 0.10753(16) 0.1292(2) 0.13574(15)
N3F N -0.60753(16) 0.3708(2) -0.13574(15)
N4C N 0.12280(16) 0.0373(2) 0.12032(16)
C15C C 0.13909(18) 0.1342(3) 0.21614(18)
C16C C 0.17538(18) 0.0452(3) 0.25138(18)
C17C C 0.1624(2) -0.0159(3) 0.1876(2)
C18C C 0.1291(3) 0.2251(3) 0.2551(2)
H14C H 0.1121 0.2793 0.2175
H15C H 0.1786 0.2415 0.3022
H16C H 0.0902 0.2128 0.2705
C19C C 0.1807(3) -0.1220(3) 0.1845(3)
H17C H 0.1380 -0.1522 0.1372
H18C H 0.1874 -0.1553 0.2319
H19C H 0.2284 -0.1273 0.1824
H20C H 0.1018(18) 0.022(2) 0.067(2)
loop_
_geom_bond_atom_site_label_1
_geom_bond_atom_site_label_2
_geom_bond_site_symmetry_1
_geom_bond_site_symmetry_2
Zn1 O1 1_555 1_555
O1 C12 1_555 1_555
N1 Zn1 1_555 1_555
C1 C7 1_555 1_555
N2 N1 1_555 1_555
O2 Zn1 1_555 1_555
C2 O2 1_555 1_555
C3 C2 1_555 1_555
C4 N2 1_555 1_555
C5 C4 1_555 1_555
C6 C3 1_555 1_555
O3 C2 1_555 1_555
C7 H13 1_555 1_555
C8 C5 1_555 1_555
H1 C8 1_555 1_555
H2 C8 1_555 1_555
C9 N1 1_555 1_555
O4 C12 1_555 1_555
C10 C1 1_555 1_555
C11 C3 1_555 1_555
C12 C1 1_555 1_555
C13 C4 1_555 1_555
H3 C13 1_555 1_555
H4 C13 1_555 1_555
H5 C13 1_555 1_555
C14 C9 1_555 1_555
H6 C14 1_555 1_555
H7 C14 1_555 1_555
H8 C14 1_555 1_555
H9 C11 1_555 1_555
H10 C6 1_555 1_555
H11 C10 1_555 1_555
H12 N2 1_555 1_555
N3 N4 1_555 1_555
N4 C17 1_555 1_555
C15 N3 1_555 1_555
C16 C8 1_555 1_555
C17 C16 1_555 1_555
C18 C15 1_555 1_555
H14 C18 1_555 1_555
H15 C18 1_555 1_555
H16 C18 1_555 1_555
C19 C17 1_555 1_555
H17 C19 1_555 1_555
H18 C19 1_555 1_555
H19 C19 1_555 1_555
H20 N4 1_555 1_555
Zn1E O1E 1_555 1_555
Zn1C N3 1_555 1_555
Zn1B O2B 1_555 1_555
Zn1C_2 N1C 1_555 1_555
O1E C12E 1_555 1_555
N1C N2C 1_555 1_555
N1E Zn1E 1_555 1_555
C1E C7E 1_555 1_555
N2C C4C 1_555 1_555
O2B C2B 1_555 1_555
O2E Zn1E 1_555 1_555
C2B C3B 1_555 1_555
C3B C6B 1_555 1_555
C4C C5C 1_555 1_555
C5C C8C 1_555 1_555
C6B C6 1_555 1_555
O3B C2B 1_555 1_555
C7E C10 1_555 1_555
C8C H1C 1_555 1_555
H2C C8C 1_555 1_555
C9C N1C 1_555 1_555
O4E C12E 1_555 1_555
C10E C7 1_555 1_555
C11B C11 1_555 1_555
C12E C1E 1_555 1_555
C13C C4C 1_555 1_555
H3C C13C 1_555 1_555
H4C C13C 1_555 1_555
H5C C13C 1_555 1_555
C14C C9C 1_555 1_555
H6C C14C 1_555 1_555
H7C C14C 1_555 1_555
H8C C14C 1_555 1_555
H9B C11B 1_555 1_555
H10B C6B 1_555 1_555
H11E C10E 1_555 1_555
H12C N2C 1_555 1_555
H13E C7E 1_555 1_555
N3C Zn1 1_555 1_555
N3F Zn1E 1_555 1_555
N4C N3C 1_555 1_555
C15C N3C 1_555 1_555
C16C C8C 1_555 1_555
C17C N4C 1_555 1_555
C18C C15C 1_555 1_555
H14C C18C 1_555 1_555
H15C C18C 1_555 1_555
H16C C18C 1_555 1_555
C19C C17C 1_555 1_555
H17C C19C 1_555 1_555
H18C C19C 1_555 1_555
H19C C19C 1_555 1_555
H20C N4C 1_555 1_555
C5 C9 1_555 1_555
C15 C16 1_555 1_555
C1E C10E 1_555 1_555
C3B C11B 1_555 1_555
C5C C9C 1_555 1_555
C15C C16C 1_555 1_555
C16C C17C 1_555 1_555

#END
