
#######################################################################
#
#                 Cambridge Crystallographic Data Centre
#                                CCDC 
#
#######################################################################
#
# If this CIF has been generated from an entry in the Cambridge 
# Structural Database, then it will include bibliographic, chemical, 
# crystal, experimental, refinement or atomic coordinate data resulting 
# from the CCDC's data processing and validation procedures.
#
#######################################################################

data_AFOSIY
_symmetry_cell_setting           monoclinic
_symmetry_space_group_name_H-M   'C 2/c'
_symmetry_Int_Tables_number      15
_space_group_name_Hall           '-C 2yn'
loop_
_symmetry_equiv_pos_site_id
_symmetry_equiv_pos_as_xyz
1 x,y,z
2 1/2+x,1/2+y,z
3 -x,y,1/2-z
4 1/2-x,1/2+y,1/2-z
5 -x,-y,-z
6 1/2-x,1/2-y,-z
7 x,-y,1/2+z
8 1/2+x,1/2-y,1/2+z
_cell_length_a                   18.2323(8)
_cell_length_b                   10.8209(5)
_cell_length_c                   13.0970(6)
_cell_angle_alpha                90
_cell_angle_beta                 93.552(1)
_cell_angle_gamma                90
_cell_volume                     2578.94
loop_
_atom_site_label
_atom_site_type_symbol
_atom_site_fract_x
_atom_site_fract_y
_atom_site_fract_z
Zn1 Zn 0.044785(10) 0.754788(14) 0.158577(14)
O1 O 0.01854(8) 0.57271(11) 0.17072(10)
O2 O 0.04356(7) -0.06475(11) 0.19377(11)
O3 O 0.12322(8) 0.72771(12) 0.27551(11)
O4 O 0.05872(7) 0.77859(13) 0.40867(11)
O5 O 0.10874(9) 0.76354(11) 0.04233(12)
C1 C 0.0000 0.5197(2) 0.2500
C2 C 0.0000 0.3816(2) 0.2500
C3 C 0.01732(10) 0.31669(15) 0.16311(13)
H1 H 0.0291 0.3593 0.1047
C4 C 0.01709(10) 0.18911(15) 0.16338(14)
H2 H 0.0285 0.1461 0.1050
C5 C 0.0000 0.1251(2) 0.2500
C6 C 0.0000 -0.0130(2) 0.2500
C7 C 0.11704(11) 0.75363(13) 0.36792(15)
C8 C 0.18624(10) 0.75362(13) 0.43598(15)
C9 C 0.24863(9) 0.69402(18) 0.40554(13)
H3 H 0.2479 0.6562 0.3417
C10 C 0.18844(9) 0.80969(18) 0.53106(13)
H4 H 0.1470 0.8502 0.5522
C11 C 0.13677(10) 0.6902(2) -0.01651(14)
C12 C 0.13053(13) 0.5537(2) -0.00058(19)
H5 H 0.1136 0.5380 0.0661
H6 H 0.1778 0.5160 -0.0060
H7 H 0.0963 0.5197 -0.0516
C13 C 0.20600(16) 0.6522(3) -0.1678(2)
H8 H 0.2081 0.5688 -0.1428
H9 H 0.2548 0.6807 -0.1783
H10 H 0.1770 0.6548 -0.2315
C14 C 0.17730(14) 0.8637(2) -0.1112(2)
H11 H 0.1634 0.9073 -0.0515
H12 H 0.1447 0.8858 -0.1686
H13 H 0.2268 0.8852 -0.1251
N1 N 0.17275(12) 0.73152(18) -0.09337(16)
Zn1B Zn -0.044785(10) 0.754788(14) 0.341423(14)
Zn1_2 Zn 0.044785(10) -0.245212(14) 0.158577(14)
Zn1B_2 Zn -0.044785(10) -0.245212(14) 0.341423(14)
Zn1E Zn 0.455215(10) 0.745212(14) 0.841423(14)
Zn1G Zn 0.544785(10) 0.745212(14) 0.658577(14)
O1B O -0.01854(8) 0.57271(11) 0.32928(10)
O2B O -0.04356(7) -0.06475(11) 0.30623(11)
O2_2 O 0.04356(7) 0.93525(11) 0.19377(11)
O2B_2 O -0.04356(7) 0.93525(11) 0.30623(11)
O3E O 0.37678(8) 0.77229(12) 0.72449(11)
O3B O -0.12322(8) 0.72771(12) 0.22449(11)
O4E O 0.44128(7) 0.72141(13) 0.59133(11)
O4B O -0.05872(7) 0.77859(13) 0.09133(11)
O5B O -0.10874(9) 0.76354(11) 0.45767(12)
C3B C -0.01732(10) 0.31669(15) 0.33689(13)
H1B H -0.0291 0.3593 0.3953
C4B C -0.01709(10) 0.18911(15) 0.33662(14)
H2B H -0.0285 0.1461 0.3950
C7E C 0.38296(11) 0.74637(13) 0.63208(15)
C8E C 0.31376(10) 0.74638(13) 0.56402(15)
C9E C 0.25137(9) 0.80598(18) 0.59446(13)
H3E H 0.2521 0.8438 0.6583
C10E C 0.31156(9) 0.69031(18) 0.46894(13)
H4E H 0.3530 0.6498 0.4478
C11B C -0.13677(10) 0.6902(2) 0.51651(14)
C12B C -0.13053(13) 0.5537(2) 0.50058(19)
H5B H -0.1136 0.5380 0.4339
H6B H -0.1778 0.5160 0.5060
H7B H -0.0963 0.5197 0.5516
C13B C -0.20600(16) 0.6522(3) 0.6678(2)
H8B H -0.2081 0.5688 0.6428
H9B H -0.2548 0.6807 0.6783
H10B H -0.1770 0.6548 0.7315
C14B C -0.17730(14) 0.8637(2) 0.6112(2)
H11B H -0.1634 0.9073 0.5515
H12B H -0.1447 0.8858 0.6686
H13B H -0.2268 0.8852 0.6251
N1B N -0.17275(12) 0.73152(18) 0.59337(16)
loop_
_geom_bond_atom_site_label_1
_geom_bond_atom_site_label_2
_geom_bond_site_symmetry_1
_geom_bond_site_symmetry_2
Zn1 O1 1_555 1_555
O1 C1 1_555 1_555
O2 C6 1_555 1_555
O3 Zn1 1_555 1_555
O4 C7 1_555 1_555
O5 Zn1 1_555 1_555
C1 C2 1_555 1_555
C2 C3 1_555 1_555
C3 H1 1_555 1_555
C4 C3 1_555 1_555
H2 C4 1_555 1_555
C5 C4 1_555 1_555
C6 C5 1_555 1_555
C7 O3 1_555 1_555
C8 C7 1_555 1_555
C9 C8 1_555 1_555
H3 C9 1_555 1_555
C10 C8 1_555 1_555
H4 C10 1_555 1_555
C11 O5 1_555 1_555
C12 C11 1_555 1_555
H5 C12 1_555 1_555
H6 C12 1_555 1_555
H7 C12 1_555 1_555
C13 H8 1_555 1_555
H9 C13 1_555 1_555
H10 C13 1_555 1_555
C14 H11 1_555 1_555
H12 C14 1_555 1_555
H13 C14 1_555 1_555
N1 C11 1_555 1_555
Zn1B Zn1 1_555 1_555
Zn1_2 O2 1_555 1_555
Zn1B_2 Zn1_2 1_555 1_555
Zn1E Zn1G 1_555 1_555
Zn1G O4E 1_555 1_555
O1B C1 1_555 1_555
O2B C6 1_555 1_555
O2_2 Zn1 1_555 1_555
O2B_2 Zn1B 1_555 1_555
O3E Zn1E 1_555 1_555
O3B Zn1B 1_555 1_555
O4E C7E 1_555 1_555
O4B Zn1 1_555 1_555
O5B Zn1B 1_555 1_555
C3B C2 1_555 1_555
H1B C3B 1_555 1_555
C4B C5 1_555 1_555
H2B C4B 1_555 1_555
C7E O3E 1_555 1_555
C8E C7E 1_555 1_555
C9E C10 1_555 1_555
H3E C9E 1_555 1_555
C10E C9 1_555 1_555
H4E C10E 1_555 1_555
C11B O5B 1_555 1_555
C12B C11B 1_555 1_555
H5B C12B 1_555 1_555
H6B C12B 1_555 1_555
H7B C12B 1_555 1_555
C13B H8B 1_555 1_555
H9B C13B 1_555 1_555
H10B C13B 1_555 1_555
C14B H11B 1_555 1_555
H12B C14B 1_555 1_555
H13B C14B 1_555 1_555
N1B C11B 1_555 1_555
O4 Zn1B 1_555 1_555
C13 N1 1_555 1_555
C14 N1 1_555 1_555
Zn1B O1B 1_555 1_555
Zn1B_2 O2B 1_555 1_555
C3B C4B 1_555 1_555
C8E C9E 1_555 1_555
C8E C10E 1_555 1_555
C13B N1B 1_555 1_555
C14B N1B 1_555 1_555

#END
