
#######################################################################
#
#                 Cambridge Crystallographic Data Centre
#                                CCDC 
#
#######################################################################
#
# If this CIF has been generated from an entry in the Cambridge 
# Structural Database, then it will include bibliographic, chemical, 
# crystal, experimental, refinement or atomic coordinate data resulting 
# from the CCDC's data processing and validation procedures.
#
#######################################################################

data_AFOXID
_symmetry_cell_setting           monoclinic
_symmetry_space_group_name_H-M   'P 21/c'
_symmetry_Int_Tables_number      14
_space_group_name_Hall           '-P 2ybc'
loop_
_symmetry_equiv_pos_site_id
_symmetry_equiv_pos_as_xyz
1 x,y,z
2 -x,1/2+y,1/2-z
3 -x,-y,-z
4 x,1/2-y,1/2+z
_cell_length_a                   24.6600(18)
_cell_length_b                   15.8459(8)
_cell_length_c                   7.7808(5)
_cell_angle_alpha                90
_cell_angle_beta                 95.485(8)
_cell_angle_gamma                90
_cell_volume                     3026.5
loop_
_atom_site_label
_atom_site_type_symbol
_atom_site_fract_x
_atom_site_fract_y
_atom_site_fract_z
Cu1 Cu 0.285463(17) 0.24900(4) 0.13946(4)
N1 N 0.28268(14) 0.1460(2) 0.3007(3)
N2 N 0.28549(14) 0.1468(2) 0.4798(3)
N3 N 0.27814(15) 0.0166(2) 0.3919(4)
N4 N 0.2252(2) -0.4634(3) 0.3235(6)
N5 N 0.2780(2) -0.4699(2) 0.3923(4)
N6 N 0.25822(18) -0.3360(2) 0.3746(4)
N7 N 0.22406(14) 0.1891(2) -0.0712(3)
N8 N 0.22292(14) 0.1993(2) -0.2478(3)
N9 N 0.14788(14) 0.1367(2) -0.1947(4)
N10 N -0.13846(19) -0.0627(3) -0.3319(5)
N11 N -0.11156(19) -0.1371(3) -0.2937(4)
N12 N -0.05137(15) -0.0351(3) -0.2808(4)
N13 N 0.34610(14) 0.3085(2) 0.3461(3)
N14 N 0.34607(14) 0.3054(2) 0.5245(3)
N15 N 0.41351(15) 0.3855(2) 0.4641(3)
C1 C 0.27851(18) 0.0673(2) 0.2526(4)
H1 H 0.2761 0.0486 0.1375
C2 C 0.28279(18) 0.0693(2) 0.5294(4)
H2 H 0.2839 0.0519 0.6452
C3 C 0.2144(3) -0.3821(3) 0.3134(7)
H3 H 0.1807 -0.3591 0.2695
C4 C 0.2962(3) -0.3935(3) 0.4213(5)
H4 H 0.3317 -0.3806 0.4691
C5 C 0.27217(18) -0.0735(3) 0.3917(5)
C6 C 0.3113(2) -0.1218(3) 0.4861(5)
H5 H 0.3409 -0.0960 0.5509
C7 C 0.3059(2) -0.2096(3) 0.4832(5)
H6 H 0.3316 -0.2439 0.5473
C8 C 0.26213(18) -0.2452(3) 0.3839(4)
C9 C 0.2238(2) -0.1968(3) 0.2905(5)
H7 H 0.1944 -0.2223 0.2244
C10 C 0.2291(2) -0.1102(3) 0.2950(5)
H8 H 0.2031 -0.0762 0.2316
C11 C 0.17899(18) 0.1509(3) -0.0450(4)
H9 H 0.1692 0.1352 0.0644
C12 C 0.17753(17) 0.1677(3) -0.3182(4)
H10 H 0.1668 0.1666 -0.4374
C13 C -0.1016(2) -0.0031(4) -0.3257(6)
H11 H -0.1091 0.0541 -0.3492
C14 C -0.0591(2) -0.1193(3) -0.2643(5)
H12 H -0.0314 -0.1591 -0.2362
C15 C 0.09633(17) 0.0933(3) -0.2162(4)
C16 C 0.09251(19) 0.0147(3) -0.1425(5)
H13 H 0.1229 -0.0097 -0.0791
C17 C 0.04340(19) -0.0277(3) -0.1630(5)
H14 H 0.0399 -0.0810 -0.1124
C18 C -0.0006(2) 0.0090(3) -0.2589(5)
C19 C 0.00320(19) 0.0883(3) -0.3323(5)
H15 H -0.0271 0.1126 -0.3965
C20 C 0.05194(19) 0.1310(3) -0.3094(5)
H16 H 0.0552 0.1852 -0.3566
C21 C 0.38678(18) 0.3570(3) 0.3140(4)
H17 H 0.3963 0.3704 0.2031
C22 C 0.38616(18) 0.3512(3) 0.5909(4)
H18 H 0.3951 0.3596 0.7098
C23 C 0.50011(19) 0.4298(3) 0.6116(5)
H19 H 0.5003 0.3825 0.6847
C24 C 0.45802(19) 0.4429(3) 0.4824(4)
C25 C 0.4583(2) 0.5114(3) 0.3711(5)
H20 H 0.4298 0.5179 0.2828
Cu1C Cu 0.285463(17) 0.25100(4) -0.36054(4)
Cu1C_2 Cu 0.285463(17) 0.25100(4) 0.63946(4)
Cu1B Cu 0.714537(17) 0.75100(4) 0.86054(4)
Cu1A Cu 0.714537(17) 0.74900(4) 0.36054(4)
N1C N 0.28268(14) 0.3540(2) -0.1993(3)
N2C N 0.28549(14) 0.3532(2) -0.0202(3)
N2_2 N 0.28549(14) 0.1468(2) -0.5202(3)
N3C N 0.27814(15) 0.4834(2) -0.1081(4)
N4C N 0.2252(2) 0.9634(3) -0.1765(6)
N5C N 0.2780(2) 0.9699(2) -0.1077(4)
N6C N 0.25822(18) 0.8360(2) -0.1254(4)
N7C N 0.22406(14) 0.3109(2) 0.4288(3)
N7C_2 N 0.22406(14) 0.3109(2) -0.5712(3)
N8C N 0.22292(14) 0.3007(2) 0.2522(3)
N9C N 0.14788(14) 0.3633(2) 0.3053(4)
N10C N -0.13846(19) 0.5627(3) 0.1681(5)
N11C N -0.11156(19) 0.6371(3) 0.2063(4)
N12C N -0.05137(15) 0.5351(3) 0.2192(4)
N13B N 0.65390(14) 0.6915(2) 0.6539(3)
N13C N 0.34610(14) 0.1915(2) -0.1539(3)
N14B N 0.65393(14) 0.6946(2) 0.4755(3)
N14C N 0.34607(14) 0.1946(2) 0.0245(3)
N14_2 N 0.34607(14) 0.3054(2) -0.4755(3)
N15B N 0.58649(15) 0.6145(2) 0.5359(3)
C1C C 0.27851(18) 0.4327(2) -0.2474(4)
H1C H 0.2761 0.4514 -0.3625
C2C C 0.28279(18) 0.4307(2) 0.0294(4)
H2C H 0.2839 0.4481 0.1452
C3C C 0.2144(3) 0.8821(3) -0.1866(7)
H3C H 0.1807 0.8591 -0.2305
C4C C 0.2962(3) 0.8935(3) -0.0787(5)
H4C H 0.3317 0.8806 -0.0309
C5C C 0.27217(18) 0.5735(3) -0.1083(5)
C6C C 0.3113(2) 0.6218(3) -0.0139(5)
H5C H 0.3409 0.5960 0.0509
C7C C 0.3059(2) 0.7096(3) -0.0168(5)
H6C H 0.3316 0.7439 0.0473
C8C C 0.26213(18) 0.7452(3) -0.1161(4)
C9C C 0.2238(2) 0.6968(3) -0.2095(5)
H7C H 0.1944 0.7223 -0.2756
C10C C 0.2291(2) 0.6102(3) -0.2050(5)
H8C H 0.2031 0.5762 -0.2684
C11C C 0.17899(18) 0.3491(3) 0.4550(4)
H9C H 0.1692 0.3648 0.5644
C12C C 0.17753(17) 0.3323(3) 0.1818(4)
H10C H 0.1668 0.3334 0.0626
C13C C -0.1016(2) 0.5031(4) 0.1743(6)
H11C H -0.1091 0.4459 0.1508
C14C C -0.0591(2) 0.6193(3) 0.2357(5)
H12C H -0.0314 0.6591 0.2638
C15C C 0.09633(17) 0.4067(3) 0.2838(4)
C16C C 0.09251(19) 0.4853(3) 0.3575(5)
H13C H 0.1229 0.5097 0.4209
C17C C 0.04340(19) 0.5277(3) 0.3370(5)
H14C H 0.0399 0.5810 0.3876
C18C C -0.0006(2) 0.4910(3) 0.2411(5)
C19C C 0.00320(19) 0.4117(3) 0.1677(5)
H15C H -0.0271 0.3874 0.1035
C20C C 0.05194(19) 0.3690(3) 0.1906(5)
H16C H 0.0552 0.3148 0.1434
C21B C 0.61322(18) 0.6430(3) 0.6860(4)
H17B H 0.6037 0.6296 0.7969
C22B C 0.61384(18) 0.6488(3) 0.4091(4)
H18B H 0.6049 0.6404 0.2902
C23B C 0.49989(19) 0.5702(3) 0.3884(5)
H19B H 0.4997 0.6175 0.3153
C24B C 0.54198(19) 0.5571(3) 0.5176(4)
C25B C 0.5417(2) 0.4886(3) 0.6289(5)
H20B H 0.5702 0.4821 0.7172
N16 N 0.0837(3) -0.2354(3) 0.0445(6)
O1 O 0.0338(2) -0.2307(3) 0.0014(6)
O2 O 0.1065(3) -0.3051(4) 0.0652(7)
O3 O 0.1107(2) -0.1684(3) 0.0693(6)
N17 N 0.4108(4) -0.0946(6) 0.2556(9)
O4 O 0.3806(3) -0.0375(5) 0.2044(7)
O5 O 0.4437(3) -0.0854(5) 0.4022(8)
O6 O 0.4097(3) -0.1606(6) 0.1805(8)
O7 O 0.4289(3) 0.4064(4) -0.0304(6)
O8? O 0.4130(5) 0.4463(9) -0.0492(13)
loop_
_geom_bond_atom_site_label_1
_geom_bond_atom_site_label_2
_geom_bond_site_symmetry_1
_geom_bond_site_symmetry_2
Cu1 N1 1_555 1_555
N1 N2 1_555 1_555
N2 C2 1_555 1_555
N3 C1 1_555 1_555
N4 N5 1_555 1_555
N5 C4 1_555 1_555
N6 C3 1_555 1_555
N7 Cu1 1_555 1_555
N8 N7 1_555 1_555
N9 C11 1_555 1_555
N10 N11 1_555 1_555
N11 C14 1_555 1_555
N12 C13 1_555 1_555
N13 Cu1 1_555 1_555
N14 N13 1_555 1_555
N15 C21 1_555 1_555
C1 N1 1_555 1_555
H1 C1 1_555 1_555
C2 N3 1_555 1_555
H2 C2 1_555 1_555
C3 N4 1_555 1_555
H3 C3 1_555 1_555
C4 N6 1_555 1_555
H4 C4 1_555 1_555
C5 N3 1_555 1_555
C6 C5 1_555 1_555
H5 C6 1_555 1_555
C7 C6 1_555 1_555
H6 C7 1_555 1_555
C8 N6 1_555 1_555
C9 C8 1_555 1_555
H7 C9 1_555 1_555
C10 C5 1_555 1_555
H8 C10 1_555 1_555
C11 N7 1_555 1_555
H9 C11 1_555 1_555
C12 N8 1_555 1_555
H10 C12 1_555 1_555
C13 N10 1_555 1_555
H11 C13 1_555 1_555
C14 N12 1_555 1_555
H12 C14 1_555 1_555
C15 N9 1_555 1_555
C16 C15 1_555 1_555
H13 C16 1_555 1_555
C17 C16 1_555 1_555
H14 C17 1_555 1_555
C18 N12 1_555 1_555
C19 C18 1_555 1_555
H15 C19 1_555 1_555
C20 C15 1_555 1_555
H16 C20 1_555 1_555
C21 N13 1_555 1_555
H17 C21 1_555 1_555
C22 N14 1_555 1_555
H18 C22 1_555 1_555
C23 H19 1_555 1_555
C24 N15 1_555 1_555
C25 C24 1_555 1_555
H20 C25 1_555 1_555
N16 O1 1_555 1_555
O2 N16 1_555 1_555
O3 N16 1_555 1_555
N17 O4 1_555 1_555
O5 N17 1_555 1_555
O6 N17 1_555 1_555
Cu1C N8 1_555 1_555
Cu1C_2 N2 1_555 1_555
Cu1B N13B 1_555 1_555
Cu1A N14B 1_555 1_555
N1C Cu1C 1_555 1_555
N2C Cu1 1_555 1_555
N2_2 Cu1C 1_555 1_555
N3C C1C 1_555 1_555
N4C N5C 1_555 1_555
N5C C4C 1_555 1_555
N6C C3C 1_555 1_555
N7C Cu1C_2 1_555 1_555
N7C_2 Cu1C 1_555 1_555
N8C Cu1 1_555 1_555
N9C C11C 1_555 1_555
N10C N11C 1_555 1_555
N11C C14C 1_555 1_555
N12C C13C 1_555 1_555
N13B N14B 1_555 1_555
N13C Cu1C 1_555 1_555
N14B C22B 1_555 1_555
N14C Cu1 1_555 1_555
N14_2 Cu1C 1_555 1_555
N15B C21B 1_555 1_555
C1C N1C 1_555 1_555
H1C C1C 1_555 1_555
C2C N2C 1_555 1_555
H2C C2C 1_555 1_555
C3C N4C 1_555 1_555
H3C C3C 1_555 1_555
C4C N6C 1_555 1_555
H4C C4C 1_555 1_555
C5C N3C 1_555 1_555
C6C C5C 1_555 1_555
H5C C6C 1_555 1_555
C7C C6C 1_555 1_555
H6C C7C 1_555 1_555
C8C N6C 1_555 1_555
C9C C8C 1_555 1_555
H7C C9C 1_555 1_555
C10C C5C 1_555 1_555
H8C C10C 1_555 1_555
C11C N7C 1_555 1_555
H9C C11C 1_555 1_555
C12C N8C 1_555 1_555
H10C C12C 1_555 1_555
C13C N10C 1_555 1_555
H11C C13C 1_555 1_555
C14C N12C 1_555 1_555
H12C C14C 1_555 1_555
C15C N9C 1_555 1_555
C16C C15C 1_555 1_555
H13C C16C 1_555 1_555
C17C C16C 1_555 1_555
H14C C17C 1_555 1_555
C18C N12C 1_555 1_555
C19C C18C 1_555 1_555
H15C C19C 1_555 1_555
C20C C15C 1_555 1_555
H16C C20C 1_555 1_555
C21B N13B 1_555 1_555
H17B C21B 1_555 1_555
C22B N15B 1_555 1_555
H18B C22B 1_555 1_555
C23B C25 1_555 1_555
H19B C23B 1_555 1_555
C24B N15B 1_555 1_555
C25B C23 1_555 1_555
H20B C25B 1_555 1_555
N9 C12 1_555 1_555
N14 Cu1C_2 1_555 1_555
N15 C22 1_555 1_555
C7 C8 1_555 1_555
C9 C10 1_555 1_555
C17 C18 1_555 1_555
C19 C20 1_555 1_555
C23 C24 1_555 1_555
N1C N2C 1_555 1_555
N3C C2C 1_555 1_555
N7C N8C 1_555 1_555
N9C C12C 1_555 1_555
N13C N14C 1_555 1_555
C7C C8C 1_555 1_555
C9C C10C 1_555 1_555
C17C C18C 1_555 1_555
C19C C20C 1_555 1_555
C23B C24B 1_555 1_555
C24B C25B 1_555 1_555

#END
