
#######################################################################
#
#                 Cambridge Crystallographic Data Centre
#                                CCDC 
#
#######################################################################
#
# If this CIF has been generated from an entry in the Cambridge 
# Structural Database, then it will include bibliographic, chemical, 
# crystal, experimental, refinement or atomic coordinate data resulting 
# from the CCDC's data processing and validation procedures.
#
#######################################################################

data_AFOYEA
_symmetry_cell_setting           monoclinic
_symmetry_space_group_name_H-M   'P 21/c'
_symmetry_Int_Tables_number      14
_space_group_name_Hall           '-P 2ybc'
loop_
_symmetry_equiv_pos_site_id
_symmetry_equiv_pos_as_xyz
1 x,y,z
2 -x,1/2+y,1/2-z
3 -x,-y,-z
4 x,1/2-y,1/2+z
_cell_length_a                   5.1275(4)
_cell_length_b                   16.3726(11)
_cell_length_c                   10.8005(9)
_cell_angle_alpha                90
_cell_angle_beta                 99.531(10)
_cell_angle_gamma                90
_cell_volume                     894.191
loop_
_atom_site_label
_atom_site_type_symbol
_atom_site_fract_x
_atom_site_fract_y
_atom_site_fract_z
Cu1 Cu 0.5000 0.5000 0.5000
Cu2 Cu 0.45756(5) 0.684336(13) 0.62846(2)
S1 S 0.54780(11) 0.68873(3) 0.34611(5)
O1 O 0.2844(3) 0.58844(8) 0.55140(13)
H1 H 0.1681 0.6009 0.4985
O2 O 0.6454(3) 0.73040(8) 0.23888(14)
O3 O 0.6470(3) 0.73426(9) 0.46383(14)
O4 O 0.6529(4) 0.60578(8) 0.35652(15)
O5 O 0.2564(4) 0.69046(9) 0.32347(15)
O6 O 0.1446(3) 0.75608(9) 0.59000(14)
H2 H 0.1240 0.7755 0.6577
H3 H 0.0016 0.7414 0.5461
N1 N 0.7551(4) 0.53137(9) 0.65249(15)
N2 N 0.7513(4) 0.60939(9) 0.69979(16)
N3 N 1.0655(4) 0.54151(10) 0.81611(15)
C1 C 0.9422(5) 0.49176(11) 0.72336(19)
H4 H 0.9862 0.4368 0.7123
C2 C 0.9385(5) 0.61461(12) 0.79727(18)
H5 H 0.9794 0.6616 0.8468
C3 C 1.2861(4) 0.52046(12) 0.91055(18)
C4 C 1.3428(5) 0.43875(12) 0.9368(2)
H6 H 1.2359 0.3977 0.8938
C5 C 1.4418(5) 0.58185(12) 0.9733(2)
H7 H 1.4015 0.6370 0.9550
Cu1_2 Cu 2.5000 0.5000 1.5000
Cu2B Cu 0.54244(5) 0.315664(13) 0.37154(2)
Cu2C Cu 0.45756(5) 0.815664(13) 0.12846(2)
Cu2B_2 Cu 2.54244(5) 0.315664(13) 1.37154(2)
Cu2A Cu 0.54244(5) 0.184336(13) 0.87154(2)
S1B S 0.45220(11) 0.31127(3) 0.65389(5)
O1B O 0.7156(3) 0.41156(8) 0.44860(13)
H1B H 0.8319 0.3991 0.5015
O2B O 0.3546(3) 0.26960(8) 0.76112(14)
O2C O 0.6454(3) 0.76960(8) 0.73888(14)
O2A O 0.3546(3) 0.23040(8) 0.26112(14)
O3B O 0.3530(3) 0.26574(9) 0.53617(14)
O4B O 0.3471(4) 0.39422(8) 0.64348(15)
O5B O 0.7436(4) 0.30954(9) 0.67653(15)
O6B O 0.8554(3) 0.24392(9) 0.41000(14)
H2B H 0.8760 0.2245 0.3423
H3B H 0.9984 0.2586 0.4539
N1B N 2.2449(4) 0.46863(9) 1.34751(15)
N1B_2 N 0.2449(4) 0.46863(9) 0.34751(15)
N2B N 2.2487(4) 0.39061(9) 1.30021(16)
N2B_2 N 0.2487(4) 0.39061(9) 0.30021(16)
N3B N 1.9345(4) 0.45849(10) 1.18389(15)
C1B C 2.0578(5) 0.50824(11) 1.27664(19)
H4B H 2.0138 0.5632 1.2877
C2B C 2.0615(5) 0.38539(12) 1.20273(18)
H5B H 2.0206 0.3384 1.1532
C3B C 1.7139(4) 0.47954(12) 1.08945(18)
C4B C 1.6572(5) 0.56125(12) 1.0632(2)
H6B H 1.7641 0.6023 1.1062
C5B C 1.5582(5) 0.41815(12) 1.0267(2)
H7B H 1.5985 0.3630 1.0450
loop_
_geom_bond_atom_site_label_1
_geom_bond_atom_site_label_2
_geom_bond_site_symmetry_1
_geom_bond_site_symmetry_2
Cu1 O1 1_555 1_555
Cu2 O1 1_555 1_555
S1 O2 1_555 1_555
O1 H1 1_555 1_555
O2 Cu2C 1_555 1_555
O3 Cu2 1_555 1_555
O4 Cu1 1_555 1_555
O5 S1 1_555 1_555
O6 Cu2 1_555 1_555
H2 O6 1_555 1_555
H3 O6 1_555 1_555
N1 Cu1 1_555 1_555
N2 Cu2 1_555 1_555
N3 C1 1_555 1_555
C1 N1 1_555 1_555
H4 C1 1_555 1_555
C2 N2 1_555 1_555
H5 C2 1_555 1_555
C3 N3 1_555 1_555
C4 C3 1_555 1_555
H6 C4 1_555 1_555
C5 C3 1_555 1_555
H7 C5 1_555 1_555
Cu1_2 N1B 1_555 1_555
Cu2B O1B 1_555 1_555
Cu2B_2 N2B 1_555 1_555
Cu2A O2B 1_555 1_555
S1B O2B 1_555 1_555
O1B Cu1 1_555 1_555
H1B O1B 1_555 1_555
O2C Cu2 1_555 1_555
O2A Cu2B 1_555 1_555
O3B Cu2B 1_555 1_555
O4B Cu1 1_555 1_555
O5B S1B 1_555 1_555
O6B Cu2B 1_555 1_555
H2B O6B 1_555 1_555
H3B O6B 1_555 1_555
N1B N2B 1_555 1_555
N1B_2 Cu1 1_555 1_555
N2B C2B 1_555 1_555
N2B_2 Cu2B 1_555 1_555
N3B C1B 1_555 1_555
C1B N1B 1_555 1_555
H4B C1B 1_555 1_555
C2B N3B 1_555 1_555
H5B C2B 1_555 1_555
C3B N3B 1_555 1_555
C4B C5 1_555 1_555
H6B C4B 1_555 1_555
C5B C4 1_555 1_555
H7B C5B 1_555 1_555
S1 O3 1_555 1_555
S1 O4 1_555 1_555
N1 N2 1_555 1_555
N3 C2 1_555 1_555
S1B O3B 1_555 1_555
S1B O4B 1_555 1_555
N1B_2 N2B_2 1_555 1_555
C3B C4B 1_555 1_555
C3B C5B 1_555 1_555

#END
