
#######################################################################
#
#                 Cambridge Crystallographic Data Centre
#                                CCDC 
#
#######################################################################
#
# If this CIF has been generated from an entry in the Cambridge 
# Structural Database, then it will include bibliographic, chemical, 
# crystal, experimental, refinement or atomic coordinate data resulting 
# from the CCDC's data processing and validation procedures.
#
#######################################################################

data_AFUDUC
_symmetry_cell_setting           monoclinic
_symmetry_space_group_name_H-M   'P 21/n'
_symmetry_Int_Tables_number      14
_space_group_name_Hall           '-P 2yn'
loop_
_symmetry_equiv_pos_site_id
_symmetry_equiv_pos_as_xyz
1 x,y,z
2 1/2-x,1/2+y,1/2-z
3 -x,-y,-z
4 1/2+x,1/2-y,1/2+z
_cell_length_a                   14.8084(5)
_cell_length_b                   9.4799(4)
_cell_length_c                   15.5376(6)
_cell_angle_alpha                90
_cell_angle_beta                 104.717(1)
_cell_angle_gamma                90
_cell_volume                     2109.64
loop_
_atom_site_label
_atom_site_type_symbol
_atom_site_fract_x
_atom_site_fract_y
_atom_site_fract_z
Zn1 Zn 0.14280(3) 0.45833(6) 0.36841(3)
Zn2 Zn 0.0000 0.5000 0.5000
O1 O -0.0599(2) 0.5650(4) 0.37189(19)
O2 O 0.0434(2) 0.5664(4) 0.2880(2)
O3 O -0.2790(3) 0.9137(5) -0.0456(2)
O4 O -0.3921(2) 0.8595(3) 0.0220(2)
O5 O 0.0850(2) 0.3469(3) 0.4507(2)
O6 O 0.0579(4) 0.2211(4) 0.3274(3)
C1 C 0.0562(3) 0.2326(5) 0.4063(3)
C2 C 0.0267(3) 0.1136(4) 0.4549(3)
C3 C 0.0507(3) 0.1111(5) 0.5476(3)
H1 H 0.0851 0.1870 0.5802
C4 C -0.0244(4) 0.0016(5) 0.4078(3)
H2 H -0.0413 0.0030 0.3446
C5 C -0.3094(3) 0.8575(5) 0.0161(3)
C6 C -0.0356(3) 0.5907(5) 0.3026(3)
C7 C -0.1978(3) 0.6757(6) 0.2340(3)
H3 H -0.2148 0.6461 0.2862
C8 C -0.2390(3) 0.7850(6) 0.0893(3)
C9 C -0.2642(3) 0.7369(6) 0.1647(3)
H4 H -0.3269 0.7461 0.1687
C10 C -0.1068(3) 0.6575(6) 0.2276(3)
C11 C -0.0828(4) 0.7003(10) 0.1516(4)
H5 H -0.0213 0.6842 0.1459
C12 C -0.1479(4) 0.7671(11) 0.0830(4)
H6 H -0.1299 0.8002 0.0321
N1 N 0.2273(4) 0.4217(7) 0.2916(4)
C13 C 0.2903(12) 0.5331(14) 0.2853(13)
H7 H 0.2944 0.6203 0.3162
C14 C 0.3420(12) 0.4983(16) 0.2306(12)
H8 H 0.3907 0.5547 0.2192
N2 N 0.3161(14) 0.3723(19) 0.1938(13)
H9 H 0.3328 0.3307 0.1496
C15 C 0.2558(14) 0.3238(15) 0.2434(14)
H10 H 0.2368 0.2280 0.2426
O5B O -0.0850(2) -0.3469(3) 0.5493(2)
O6B O -0.0579(4) -0.2211(4) 0.6726(3)
C1B C -0.0562(3) -0.2326(5) 0.5937(3)
C2B C -0.0267(3) -0.1136(4) 0.5451(3)
C3B C -0.0507(3) -0.1111(5) 0.4524(3)
H1B H -0.0851 -0.1870 0.4198
C4B C 0.0244(4) -0.0016(5) 0.5922(3)
H2B H 0.0413 -0.0030 0.6554
Zn1B Zn -0.14280(3) -0.45833(6) 0.63159(3)
O1B O 0.0599(2) -0.5650(4) 0.62811(19)
O2B O -0.0434(2) -0.5664(4) 0.7120(2)
O3B O 0.2790(3) -0.9137(5) 1.0456(2)
O4B O 0.3921(2) -0.8595(3) 0.9780(2)
C5B C 0.3094(3) -0.8575(5) 0.9839(3)
C6B C 0.0356(3) -0.5907(5) 0.6974(3)
C7B C 0.1978(3) -0.6757(6) 0.7660(3)
H3B H 0.2148 -0.6461 0.7138
C8B C 0.2390(3) -0.7850(6) 0.9107(3)
C9B C 0.2642(3) -0.7369(6) 0.8353(3)
H4B H 0.3269 -0.7461 0.8313
C10B C 0.1068(3) -0.6575(6) 0.7724(3)
C11B C 0.0828(4) -0.7003(10) 0.8484(4)
H5B H 0.0213 -0.6842 0.8541
C12B C 0.1479(4) -0.7671(11) 0.9170(4)
H6B H 0.1299 -0.8002 0.9679
N1B N -0.2273(4) -0.4217(7) 0.7084(4)
C13B C -0.2903(12) -0.5331(14) 0.7147(13)
H7B H -0.2944 -0.6203 0.6838
C14B C -0.3420(12) -0.4983(16) 0.7694(12)
H8B H -0.3907 -0.5547 0.7808
N2B N -0.3161(14) -0.3723(19) 0.8062(13)
H9B H -0.3328 -0.3307 0.8504
C15B C -0.2558(14) -0.3238(15) 0.7566(14)
H10B H -0.2368 -0.2280 0.7574
Zn1A Zn 0.35720(3) -1.04167(6) 1.13159(3)
Zn1C Zn -0.35720(3) 1.04167(6) -0.13159(3)
Zn2_2 Zn 0.0000 -0.5000 0.5000
Zn2A Zn -0.5000 1.0000 0.0000
Zn2A_2 Zn 0.5000 -1.0000 1.0000
O1B_2 O 0.0599(2) 0.4350(4) 0.62811(19)
O3A O -0.2210(3) -0.5863(5) 0.5456(2)
O3C O 0.2210(3) 0.5863(5) 0.4544(2)
O4A O -0.1079(2) 0.3595(3) 0.4780(2)
O4C O 0.1079(2) 0.6405(3) 0.5220(2)
O5B_2 O -0.0850(2) 0.6531(3) 0.5493(2)
O7 O 0.4148(18) 0.262(3) 0.5851(17)
O8 O 0.5373(13) 0.175(3) 0.5673(13)
C16? C 0.2021(12) 0.316(2) 0.2290(11)
H11? H 0.1462 0.2623 0.2159
C17? C 0.2746(13) 0.306(2) 0.1898(13)
H12? H 0.2745 0.2518 0.1383
N3? N 0.3483(14) 0.387(2) 0.2376(13)
H13? H 0.4025 0.4018 0.2256
C18? C 0.3176(11) 0.437(2) 0.3076(14)
H14? H 0.3563 0.4779 0.3600
O9? O 0.2584(13) 0.291(2) 0.4368(15)
loop_
_geom_bond_atom_site_label_1
_geom_bond_atom_site_label_2
_geom_bond_site_symmetry_1
_geom_bond_site_symmetry_2
Zn1 O2 1_555 1_555
Zn2 O1 1_555 1_555
O1 C6 1_555 1_555
O2 C6 1_555 1_555
O3 C5 1_555 1_555
O4 C5 1_555 1_555
O5 Zn1 1_555 1_555
O6 Zn1 1_555 1_555
C1 O5 1_555 1_555
C2 C1 1_555 1_555
C3 C2 1_555 1_555
H1 C3 1_555 1_555
C4 C2 1_555 1_555
H2 C4 1_555 1_555
C5 C8 1_555 1_555
C6 C10 1_555 1_555
C7 H3 1_555 1_555
C8 C9 1_555 1_555
C9 C7 1_555 1_555
H4 C9 1_555 1_555
C10 C7 1_555 1_555
C11 C10 1_555 1_555
H5 C11 1_555 1_555
C12 C8 1_555 1_555
H6 C12 1_555 1_555
N1 Zn1 1_555 1_555
C13 N1 1_555 1_555
H7 C13 1_555 1_555
C14 C13 1_555 1_555
H8 C14 1_555 1_555
N2 C14 1_555 1_555
H9 N2 1_555 1_555
C15 N1 1_555 1_555
H10 C15 1_555 1_555
O5B C1B 1_555 1_555
O6B C1B 1_555 1_555
C1B C2B 1_555 1_555
C2B C3B 1_555 1_555
C3B C4 1_555 1_555
H1B C3B 1_555 1_555
C4B C3 1_555 1_555
H2B C4B 1_555 1_555
Zn1B O5B 1_555 1_555
O1B C6B 1_555 1_555
O2B Zn1B 1_555 1_555
O3B C5B 1_555 1_555
O4B C5B 1_555 1_555
C5B C8B 1_555 1_555
C6B O2B 1_555 1_555
C7B H3B 1_555 1_555
C8B C9B 1_555 1_555
C9B C7B 1_555 1_555
H4B C9B 1_555 1_555
C10B C6B 1_555 1_555
C11B C10B 1_555 1_555
H5B C11B 1_555 1_555
C12B C8B 1_555 1_555
H6B C12B 1_555 1_555
N1B Zn1B 1_555 1_555
C13B N1B 1_555 1_555
H7B C13B 1_555 1_555
C14B C13B 1_555 1_555
H8B C14B 1_555 1_555
N2B C14B 1_555 1_555
H9B N2B 1_555 1_555
C15B N1B 1_555 1_555
H10B C15B 1_555 1_555
Zn1A O3B 1_555 1_555
Zn1C O3 1_555 1_555
Zn2_2 O5B 1_555 1_555
Zn2A O4 1_555 1_555
Zn2A_2 O4B 1_555 1_555
O1B_2 Zn2 1_555 1_555
O3A Zn1B 1_555 1_555
O3C Zn1 1_555 1_555
O4A Zn2 1_555 1_555
O4C Zn2 1_555 1_555
O5B_2 Zn2 1_555 1_555
Zn2 O5 1_555 1_555
O6 C1 1_555 1_555
C11 C12 1_555 1_555
N2 C15 1_555 1_555
O6B Zn1B 1_555 1_555
C2B C4B 1_555 1_555
O1B Zn2_2 1_555 1_555
C7B C10B 1_555 1_555
C11B C12B 1_555 1_555
N2B C15B 1_555 1_555

#END
