
#######################################################################
#
#                 Cambridge Crystallographic Data Centre
#                                CCDC 
#
#######################################################################
#
# If this CIF has been generated from an entry in the Cambridge 
# Structural Database, then it will include bibliographic, chemical, 
# crystal, experimental, refinement or atomic coordinate data resulting 
# from the CCDC's data processing and validation procedures.
#
#######################################################################

data_AFUJUG
_symmetry_cell_setting           triclinic
_symmetry_space_group_name_H-M   'P -1'
_symmetry_Int_Tables_number      2
_space_group_name_Hall           '-P 1'
loop_
_symmetry_equiv_pos_site_id
_symmetry_equiv_pos_as_xyz
1 x,y,z
2 -x,-y,-z
_cell_length_a                   10.653(2)
_cell_length_b                   12.195(3)
_cell_length_c                   14.641(3)
_cell_angle_alpha                88.295(19)
_cell_angle_beta                 83.553(18)
_cell_angle_gamma                73.921(19)
_cell_volume                     1816.09
loop_
_atom_site_label
_atom_site_type_symbol
_atom_site_fract_x
_atom_site_fract_y
_atom_site_fract_z
Hg1 Hg 0.57163(5) 0.82216(4) 0.48033(3)
C1 C 0.6980(15) 0.9854(13) 0.4105(10)
C2 C 0.7790(16) 1.0492(13) 0.3491(12)
H1 H 0.7534 1.1282 0.3665
H2 H 0.7643 1.0427 0.2862
H3 H 0.8705 1.0168 0.3557
O1 O 0.6778(11) 0.8994(9) 0.3735(7)
O2 O 0.6606(10) 1.0104(10) 0.4906(7)
S1 S 0.8659(4) 0.6336(3) 0.5577(2)
O5 O 0.7925(10) 0.6526(8) 0.4798(6)
O6 O 0.8138(12) 0.5762(10) 0.6292(6)
O7 O 0.9102(11) 0.7292(9) 0.5828(7)
O8 O 1.0105(11) 0.5534(9) 0.5159(8)
N1 N 0.4857(11) 0.7490(10) 0.3547(7)
N2 N 0.4567(10) 0.6920(9) 0.5352(7)
N3 N 0.5571(12) 0.8167(9) 0.6403(7)
C5 C 0.5080(15) 0.7743(13) 0.2661(9)
H7 H 0.5583 0.8246 0.2499
C6 C 0.4594(18) 0.7288(17) 0.1983(10)
H8 H 0.4741 0.7493 0.1371
C7 C 0.3884(16) 0.6521(15) 0.2226(9)
H9 H 0.3544 0.6206 0.1773
C8 C 0.3671(14) 0.6213(12) 0.3116(9)
H10 H 0.3214 0.5676 0.3281
C9 C 0.4168(13) 0.6736(11) 0.3777(7)
C10 C 0.3952(13) 0.6478(11) 0.4775(8)
C11 C 0.3119(15) 0.5823(13) 0.5095(9)
H11 H 0.2697 0.5508 0.4693
C12 C 0.2935(15) 0.5653(13) 0.6039(9)
H12 H 0.2370 0.5231 0.6279
C13 C 0.3596(15) 0.6114(11) 0.6619(9)
H13 H 0.3504 0.5983 0.7249
C14 C 0.4406(12) 0.6782(10) 0.6244(7)
C15 C 0.5061(14) 0.7383(13) 0.6827(8)
C16 C 0.5092(15) 0.7198(14) 0.7753(9)
H14 H 0.4728 0.6643 0.8028
C17 C 0.562(2) 0.7787(18) 0.8270(11)
H15 H 0.5634 0.7657 0.8898
C18 C 0.6180(18) 0.8623(17) 0.7825(10)
H16 H 0.6560 0.9069 0.8149
C19 C 0.6128(16) 0.8737(14) 0.6897(11)
H17 H 0.6519 0.9260 0.6594
O8A O 0.9895(11) 0.4466(9) 0.4841(8)
S1A S 1.1341(4) 0.3664(3) 0.4423(2)
O5A O 1.2075(10) 0.3474(8) 0.5202(6)
O6A O 1.1862(12) 0.4238(10) 0.3708(6)
O7A O 1.0898(11) 0.2708(9) 0.4172(7)
C1A C 0.3020(15) 1.0146(13) 0.5895(10)
C2A C 0.2210(16) 0.9508(13) 0.6509(12)
H1A H 0.2466 0.8718 0.6335
H2A H 0.2357 0.9573 0.7138
H3A H 0.1295 0.9832 0.6443
O1A O 0.3222(11) 1.1006(9) 0.6265(7)
O2A O 0.3394(10) 0.9896(10) 0.5094(7)
Hg1A Hg 0.42837(5) 1.17784(4) 0.51967(3)
N1A N 0.5143(11) 1.2510(10) 0.6453(7)
N2A N 0.5433(10) 1.3080(9) 0.4648(7)
N3A N 0.4429(12) 1.1833(9) 0.3597(7)
C5A C 0.4920(15) 1.2257(13) 0.7339(9)
H7A H 0.4417 1.1754 0.7501
C6A C 0.5406(18) 1.2712(17) 0.8017(10)
H8A H 0.5259 1.2507 0.8629
C7A C 0.6116(16) 1.3479(15) 0.7774(9)
H9A H 0.6456 1.3794 0.8227
C8A C 0.6329(14) 1.3787(12) 0.6884(9)
H10A H 0.6786 1.4324 0.6719
C9A C 0.5832(13) 1.3264(11) 0.6223(7)
C10A C 0.6048(13) 1.3522(11) 0.5225(8)
C11A C 0.6881(15) 1.4177(13) 0.4905(9)
H11A H 0.7303 1.4492 0.5307
C12A C 0.7065(15) 1.4347(13) 0.3961(9)
H12A H 0.7630 1.4769 0.3721
C13A C 0.6404(15) 1.3886(11) 0.3381(9)
H13A H 0.6496 1.4017 0.2751
C14A C 0.5594(12) 1.3218(10) 0.3756(7)
C15A C 0.4939(14) 1.2617(13) 0.3173(8)
C16A C 0.4908(15) 1.2802(14) 0.2247(9)
H14A H 0.5272 1.3357 0.1972
C17A C 0.438(2) 1.2213(18) 0.1730(11)
H15A H 0.4366 1.2343 0.1102
C18A C 0.3820(18) 1.1377(17) 0.2175(10)
H16A H 0.3440 1.0931 0.1851
C19A C 0.3872(16) 1.1263(14) 0.3103(11)
H17A H 0.3481 1.0740 0.3406
Hg1A_2 Hg 1.42837(5) 0.17784(4) 0.51967(3)
O5A_2 O 0.2075(10) 1.3474(8) 0.5202(6)
Hg2 Hg 1.10236(6) 0.86345(5) 0.05888(3)
C3 C 1.2461(16) 1.0078(11) -0.0187(11)
C4 C 1.3346(16) 1.0739(15) -0.0668(12)
H4 H 1.2832 1.1495 -0.0802
H5 H 1.3774 1.0359 -0.1230
H6 H 1.3996 1.0785 -0.0277
O3 O 1.2654(14) 0.9714(11) 0.0611(8)
O4 O 1.1558(12) 0.9889(10) -0.0598(9)
S2 S 1.3256(4) 0.5963(4) -0.0224(2)
O9 O 1.3223(11) 0.7120(10) -0.0051(7)
O10 O 1.3138(13) 0.5698(10) -0.1144(6)
O11 O 1.2481(12) 0.5520(10) 0.0456(6)
O12 O 1.4821(17) 0.5617(5) -0.0058(15)
N4 N 1.0236(12) 0.7838(11) -0.0620(7)
N5 N 0.9855(11) 0.7397(9) 0.1202(7)
N6 N 1.0907(10) 0.8626(10) 0.2219(7)
C20 C 1.0506(18) 0.8074(16) -0.1494(10)
H18 H 1.1013 0.8575 -0.1650
C21 C 1.0032(17) 0.7568(15) -0.2201(10)
H19 H 1.0168 0.7774 -0.2813
C22 C 0.938(2) 0.6780(16) -0.1954(10)
H20 H 0.9107 0.6404 -0.2406
C23 C 0.9110(17) 0.6529(13) -0.1046(9)
H21 H 0.8641 0.6002 -0.0879
C24 C 0.9559(13) 0.7084(12) -0.0369(9)
C25 C 0.9331(15) 0.6865(12) 0.0632(9)
C26 C 0.8568(15) 0.6144(13) 0.0977(9)
H22 H 0.8200 0.5767 0.0583
C27 C 0.8381(18) 0.6010(14) 0.1906(10)
H23 H 0.7883 0.5531 0.2149
C28 C 0.8919(17) 0.6572(14) 0.2486(9)
H24 H 0.8780 0.6489 0.3120
C29 C 0.9676(15) 0.7268(12) 0.2107(9)
C30 C 1.0319(13) 0.7911(12) 0.2669(8)
C31 C 1.0281(15) 0.7800(13) 0.3615(9)
H25 H 0.9882 0.7279 0.3911
C32 C 1.0808(16) 0.8428(14) 0.4114(9)
H26 H 1.0734 0.8375 0.4752
C33 C 1.1460(15) 0.9156(14) 0.3667(9)
H27 H 1.1873 0.9577 0.3988
C34 C 1.1476(15) 0.9234(13) 0.2699(9)
H28 H 1.1898 0.9728 0.2385
O12A O 1.5179(17) 0.4383(5) 0.0058(15)
S2A S 1.6744(4) 0.4037(4) 0.0224(2)
O9A O 1.6777(11) 0.2880(10) 0.0051(7)
O10A O 1.6862(13) 0.4302(10) 0.1144(6)
O11A O 1.7519(12) 0.4480(10) -0.0456(6)
C3A C 0.7539(16) 0.9922(11) 0.0187(11)
C4A C 0.6654(16) 0.9261(15) 0.0668(12)
H4A H 0.7168 0.8505 0.0802
H5A H 0.6226 0.9641 0.1230
H6A H 0.6004 0.9215 0.0277
O3A O 0.7346(14) 1.0286(11) -0.0611(8)
O4A O 0.8442(12) 1.0111(10) 0.0598(9)
Hg2A Hg 0.89764(6) 1.13655(5) -0.05888(3)
N4A N 0.9764(12) 1.2162(11) 0.0620(7)
N5A N 1.0145(11) 1.2603(9) -0.1202(7)
N6A N 0.9093(10) 1.1374(10) -0.2219(7)
C20A C 0.9494(18) 1.1926(16) 0.1494(10)
H18A H 0.8987 1.1425 0.1650
C21A C 0.9968(17) 1.2432(15) 0.2201(10)
H19A H 0.9832 1.2226 0.2813
C22A C 1.062(2) 1.3220(16) 0.1954(10)
H20A H 1.0893 1.3596 0.2406
C23A C 1.0890(17) 1.3471(13) 0.1046(9)
H21A H 1.1359 1.3998 0.0879
C24A C 1.0441(13) 1.2916(12) 0.0369(9)
C25A C 1.0669(15) 1.3135(12) -0.0632(9)
C26A C 1.1432(15) 1.3856(13) -0.0977(9)
H22A H 1.1800 1.4233 -0.0583
C27A C 1.1619(18) 1.3990(14) -0.1906(10)
H23A H 1.2117 1.4469 -0.2149
C28A C 1.1081(17) 1.3428(14) -0.2486(9)
H24A H 1.1220 1.3511 -0.3120
C29A C 1.0324(15) 1.2732(12) -0.2107(9)
C30A C 0.9681(13) 1.2089(12) -0.2669(8)
C31A C 0.9719(15) 1.2200(13) -0.3615(9)
H25A H 1.0118 1.2721 -0.3911
C32A C 0.9192(16) 1.1572(14) -0.4114(9)
H26A H 0.9266 1.1625 -0.4752
C33A C 0.8540(15) 1.0844(14) -0.3667(9)
H27A H 0.8127 1.0423 -0.3988
C34A C 0.8524(15) 1.0766(13) -0.2699(9)
H28A H 0.8102 1.0272 -0.2385
Hg2A_2 Hg 1.89764(6) 0.13655(5) -0.05888(3)
O9A_2 O 0.6777(11) 1.2880(10) 0.0051(7)
loop_
_geom_bond_atom_site_label_1
_geom_bond_atom_site_label_2
_geom_bond_site_symmetry_1
_geom_bond_site_symmetry_2
Hg1 O1 1_555 1_555
Hg2 O3 1_555 1_555
C1 C2 1_555 1_555
C2 H1 1_555 1_555
H2 C2 1_555 1_555
H3 C2 1_555 1_555
O1 C1 1_555 1_555
O2 Hg1 1_555 1_555
C3 C4 1_555 1_555
C4 H4 1_555 1_555
H5 C4 1_555 1_555
H6 C4 1_555 1_555
O3 C3 1_555 1_555
O4 Hg2 1_555 1_555
S1 O5 1_555 1_555
O5 Hg1 1_555 1_555
O6 S1 1_555 1_555
O7 S1 1_555 1_555
O8 S1 1_555 1_555
S2 O9 1_555 1_555
O9 Hg2 1_555 1_555
O10 S2 1_555 1_555
O11 S2 1_555 1_555
O12 S2 1_555 1_555
N1 Hg1 1_555 1_555
N2 Hg1 1_555 1_555
N3 Hg1 1_555 1_555
C5 N1 1_555 1_555
H7 C5 1_555 1_555
C6 C5 1_555 1_555
H8 C6 1_555 1_555
C7 C6 1_555 1_555
H9 C7 1_555 1_555
C8 C7 1_555 1_555
H10 C8 1_555 1_555
C9 N1 1_555 1_555
C10 N2 1_555 1_555
C11 C10 1_555 1_555
H11 C11 1_555 1_555
C12 C11 1_555 1_555
H12 C12 1_555 1_555
C13 C12 1_555 1_555
H13 C13 1_555 1_555
C14 N2 1_555 1_555
C15 N3 1_555 1_555
C16 C15 1_555 1_555
H14 C16 1_555 1_555
C17 C16 1_555 1_555
H15 C17 1_555 1_555
C18 C17 1_555 1_555
H16 C18 1_555 1_555
C19 N3 1_555 1_555
H17 C19 1_555 1_555
N4 Hg2 1_555 1_555
N5 Hg2 1_555 1_555
N6 Hg2 1_555 1_555
C20 N4 1_555 1_555
H18 C20 1_555 1_555
C21 C20 1_555 1_555
H19 C21 1_555 1_555
C22 C21 1_555 1_555
H20 C22 1_555 1_555
C23 C22 1_555 1_555
H21 C23 1_555 1_555
C24 N4 1_555 1_555
C25 N5 1_555 1_555
C26 C25 1_555 1_555
H22 C26 1_555 1_555
C27 C26 1_555 1_555
H23 C27 1_555 1_555
C28 C27 1_555 1_555
H24 C28 1_555 1_555
C29 N5 1_555 1_555
C30 N6 1_555 1_555
C31 C30 1_555 1_555
H25 C31 1_555 1_555
C32 C31 1_555 1_555
H26 C32 1_555 1_555
C33 C32 1_555 1_555
H27 C33 1_555 1_555
C34 N6 1_555 1_555
H28 C34 1_555 1_555
O8A O8 1_555 1_555
S1A O8A 1_555 1_555
O5A S1A 1_555 1_555
O6A S1A 1_555 1_555
O7A S1A 1_555 1_555
O12A O12 1_555 1_555
S2A O12A 1_555 1_555
O9A S2A 1_555 1_555
O10A S2A 1_555 1_555
O11A S2A 1_555 1_555
C1A C2A 1_555 1_555
C2A H1A 1_555 1_555
H2A C2A 1_555 1_555
H3A C2A 1_555 1_555
O1A C1A 1_555 1_555
O2A Hg1 1_555 1_555
Hg1A O2 1_555 1_555
N1A Hg1A 1_555 1_555
N2A Hg1A 1_555 1_555
N3A Hg1A 1_555 1_555
C5A N1A 1_555 1_555
H7A C5A 1_555 1_555
C6A C5A 1_555 1_555
H8A C6A 1_555 1_555
C7A C6A 1_555 1_555
H9A C7A 1_555 1_555
C8A C7A 1_555 1_555
H10A C8A 1_555 1_555
C9A N1A 1_555 1_555
C10A N2A 1_555 1_555
C11A C10A 1_555 1_555
H11A C11A 1_555 1_555
C12A C11A 1_555 1_555
H12A C12A 1_555 1_555
C13A C12A 1_555 1_555
H13A C13A 1_555 1_555
C14A N2A 1_555 1_555
C15A N3A 1_555 1_555
C16A C15A 1_555 1_555
H14A C16A 1_555 1_555
C17A C16A 1_555 1_555
H15A C17A 1_555 1_555
C18A C17A 1_555 1_555
H16A C18A 1_555 1_555
C19A N3A 1_555 1_555
H17A C19A 1_555 1_555
C3A C4A 1_555 1_555
C4A H4A 1_555 1_555
H5A C4A 1_555 1_555
H6A C4A 1_555 1_555
O3A C3A 1_555 1_555
O4A Hg2 1_555 1_555
Hg2A O4 1_555 1_555
N4A Hg2A 1_555 1_555
N5A Hg2A 1_555 1_555
N6A Hg2A 1_555 1_555
C20A N4A 1_555 1_555
H18A C20A 1_555 1_555
C21A C20A 1_555 1_555
H19A C21A 1_555 1_555
C22A C21A 1_555 1_555
H20A C22A 1_555 1_555
C23A C22A 1_555 1_555
H21A C23A 1_555 1_555
C24A N4A 1_555 1_555
C25A N5A 1_555 1_555
C26A C25A 1_555 1_555
H22A C26A 1_555 1_555
C27A C26A 1_555 1_555
H23A C27A 1_555 1_555
C28A C27A 1_555 1_555
H24A C28A 1_555 1_555
C29A N5A 1_555 1_555
C30A N6A 1_555 1_555
C31A C30A 1_555 1_555
H25A C31A 1_555 1_555
C32A C31A 1_555 1_555
H26A C32A 1_555 1_555
C33A C32A 1_555 1_555
H27A C33A 1_555 1_555
C34A N6A 1_555 1_555
H28A C34A 1_555 1_555
Hg1A_2 O5A 1_555 1_555
Hg2A_2 O9A 1_555 1_555
O5A_2 Hg1A 1_555 1_555
O9A_2 Hg2A 1_555 1_555
C1 O2 1_555 1_555
C3 O4 1_555 1_555
C8 C9 1_555 1_555
C9 C10 1_555 1_555
C13 C14 1_555 1_555
C14 C15 1_555 1_555
C18 C19 1_555 1_555
C23 C24 1_555 1_555
C24 C25 1_555 1_555
C28 C29 1_555 1_555
C29 C30 1_555 1_555
C33 C34 1_555 1_555
C1A O2A 1_555 1_555
O1A Hg1A 1_555 1_555
O2A Hg1A 1_555 1_555
C8A C9A 1_555 1_555
C9A C10A 1_555 1_555
C13A C14A 1_555 1_555
C14A C15A 1_555 1_555
C18A C19A 1_555 1_555
C3A O4A 1_555 1_555
O3A Hg2A 1_555 1_555
O4A Hg2A 1_555 1_555
C23A C24A 1_555 1_555
C24A C25A 1_555 1_555
C28A C29A 1_555 1_555
C29A C30A 1_555 1_555
C33A C34A 1_555 1_555

#END
