
#######################################################################
#
#                 Cambridge Crystallographic Data Centre
#                                CCDC 
#
#######################################################################
#
# If this CIF has been generated from an entry in the Cambridge 
# Structural Database, then it will include bibliographic, chemical, 
# crystal, experimental, refinement or atomic coordinate data resulting 
# from the CCDC's data processing and validation procedures.
#
#######################################################################

data_AFUJUI
_symmetry_cell_setting           monoclinic
_symmetry_space_group_name_H-M   'C 2/c'
_symmetry_Int_Tables_number      15
_space_group_name_Hall           '-C 2yn'
loop_
_symmetry_equiv_pos_site_id
_symmetry_equiv_pos_as_xyz
1 x,y,z
2 -x,y,1/2-z
3 1/2+x,1/2+y,z
4 1/2-x,1/2+y,1/2-z
5 -x,-y,-z
6 x,-y,1/2+z
7 1/2-x,1/2-y,-z
8 1/2+x,1/2-y,1/2+z
_cell_length_a                   23.643(9)
_cell_length_b                   10.850(5)
_cell_length_c                   34.239(15)
_cell_angle_alpha                90
_cell_angle_beta                 100.091(11)
_cell_angle_gamma                90
_cell_volume                     8647.34
loop_
_atom_site_label
_atom_site_type_symbol
_atom_site_fract_x
_atom_site_fract_y
_atom_site_fract_z
Mn1 Mn 0.75329(14) 0.2613(3) 1.00091(9)
Mn2 Mn 1.17615(5) 1.02132(9) 0.99911(3)
N1 N 1.1083(3) 0.9785(6) 1.03428(17)
N2 N 1.1312(4) 1.1954(7) 1.00618(18)
C1 C 0.9226(3) 0.5118(7) 0.78020(19)
C2 C 0.9559(4) 0.6096(7) 0.80444(18)
H1 H 0.9812 0.6513 0.7892
H2 H 0.9302 0.6700 0.8128
C3 C 0.8823(4) 0.4492(8) 0.8043(2)
H3 H 0.8586 0.3887 0.7882
H4 H 0.9042 0.4078 0.8272
C4 C 0.8870(4) 0.5764(7) 0.74500(18)
H5 H 0.8602 0.6335 0.7538
H6 H 0.9116 0.6219 0.7302
C5 C 0.9623(3) 0.4204(7) 0.76815(19)
H7 H 0.9826 0.3768 0.7911
H8 H 0.9415 0.3611 0.7498
C6 C 1.0209(4) 0.6196(10) 0.8640(2)
C7 C 1.0277(4) 0.7459(9) 0.8616(2)
H9 H 1.0079 0.7884 0.8399
C8 C 1.0636(4) 0.8099(9) 0.8910(2)
H10 H 1.0687 0.8947 0.8898
C9 C 1.0918(3) 0.7383(13) 0.9229(2)
C10 C 1.0848(5) 0.6135(13) 0.9229(3)
H11 H 1.1054 0.5676 0.9435
C11 C 1.0503(5) 0.5565(11) 0.8950(3)
H12 H 1.0459 0.4715 0.8963
C12 C 1.1281(5) 0.8106(18) 0.9530(3)
C13 C 0.8246(5) 0.5252(10) 0.8490(3)
C14 C 0.8046(6) 0.6275(10) 0.8642(4)
H13 H 0.8067 0.7025 0.8514
C15 C 0.7823(6) 0.6239(8) 0.8970(4)
H14 H 0.7701 0.6957 0.9078
C16 C 0.7774(5) 0.5126(7) 0.9145(2)
C17 C 0.8004(4) 0.4129(7) 0.9012(2)
H15 H 0.8005 0.3394 0.9153
C18 C 0.8237(4) 0.4154(7) 0.8676(2)
H16 H 0.8385 0.3445 0.8578
C19 C 0.7496(5) 0.5132(8) 0.9496(3)
C20 C 0.8329(4) 0.5093(8) 0.6847(2)
C21 C 0.8129(5) 0.4132(8) 0.6627(3)
H17 H 0.8179 0.3343 0.6734
C22 C 0.7856(5) 0.4280(8) 0.6251(3)
H18 H 0.7703 0.3597 0.6105
C23 C 0.7801(3) 0.5424(7) 0.6080(2)
C24 C 0.8008(3) 0.6382(7) 0.63041(19)
H19 H 0.7967 0.7167 0.6193
C25 C 0.8280(3) 0.6263(7) 0.6690(2)
H20 H 0.8425 0.6944 0.6839
C26 C 0.7498(4) 0.5554(8) 0.5672(2)
C27 C 1.0935(5) 0.8652(9) 1.0446(3)
H21 H 1.1186 0.8008 1.0420
C28 C 1.0446(7) 0.8376(13) 1.0587(4)
H22 H 1.0372 0.7578 1.0663
C29 C 1.0059(6) 0.9333(19) 1.0613(4)
H23 H 0.9717 0.9194 1.0706
C30 C 1.0201(6) 1.0477(16) 1.0498(4)
H24 H 0.9945 1.1125 1.0503
C31 C 1.0710(5) 1.0689(10) 1.0375(2)
C32 C 1.1494(6) 1.3038(9) 0.9954(3)
H25 H 1.1790 1.3048 0.9808
C33 C 1.1273(9) 1.4131(12) 1.0044(4)
H26 H 1.1410 1.4878 0.9966
C34 C 1.0858(11) 1.4071(15) 1.0248(5)
H27 H 1.0701 1.4811 1.0316
C35 C 1.0627(7) 1.2974(14) 1.0373(3)
H28 H 1.0326 1.2954 1.0515
C36 C 1.0901(4) 1.1909(8) 1.0262(3)
O1 O 0.9880(3) 0.5504(5) 0.83754(16)
O2 O 0.8483(3) 0.5410(7) 0.81632(19)
O3 O 0.8574(3) 0.4831(5) 0.72147(17)
O4 O 1.0000 0.4873(7) 0.7500
O5 O 1.1249(3) 0.9218(9) 0.95388(18)
O6 O 1.1610(3) 0.7447(7) 0.97951(18)
O7 O 0.7540(3) 0.4171(5) 0.97003(14)
O8 O 0.7196(4) 0.5987(5) 0.95633(19)
O9 O 0.7411(3) 0.6582(5) 0.55356(13)
O10 O 0.7335(3) 0.4583(5) 0.54878(15)
C1A C 1.0774(3) 0.5118(7) 0.71980(19)
C2A C 1.0441(4) 0.6096(7) 0.69556(18)
H1A H 1.0188 0.6513 0.7108
H2A H 1.0698 0.6700 0.6872
C3A C 1.1177(4) 0.4492(8) 0.6957(2)
H3A H 1.1414 0.3887 0.7118
H4A H 1.0958 0.4078 0.6728
C4A C 1.1130(4) 0.5764(7) 0.75500(18)
H5A H 1.1398 0.6335 0.7462
H6A H 1.0884 0.6219 0.7698
C5A C 1.0377(3) 0.4204(7) 0.73185(19)
H7A H 1.0174 0.3768 0.7089
H8A H 1.0585 0.3611 0.7502
C6A C 0.9791(4) 0.6196(10) 0.6360(2)
C7A C 0.9723(4) 0.7459(9) 0.6384(2)
H9A H 0.9921 0.7884 0.6601
C8A C 0.9364(4) 0.8099(9) 0.6090(2)
H10A H 0.9313 0.8947 0.6102
C9A C 0.9082(3) 0.7383(13) 0.5771(2)
C10A C 0.9152(5) 0.6135(13) 0.5771(3)
H11A H 0.8946 0.5676 0.5565
C11A C 0.9497(5) 0.5565(11) 0.6050(3)
H12A H 0.9541 0.4715 0.6037
C12A C 0.8719(5) 0.8106(18) 0.5470(3)
C13A C 1.1754(5) 0.5252(10) 0.6510(3)
C14A C 1.1954(6) 0.6275(10) 0.6358(4)
H13A H 1.1933 0.7025 0.6486
C15A C 1.2177(6) 0.6239(8) 0.6030(4)
H14A H 1.2299 0.6957 0.5922
C16A C 1.2226(5) 0.5126(7) 0.5855(2)
C17A C 1.1996(4) 0.4129(7) 0.5988(2)
H15A H 1.1995 0.3394 0.5847
C18A C 1.1763(4) 0.4154(7) 0.6324(2)
H16A H 1.1615 0.3445 0.6422
C19A C 1.2504(5) 0.5132(8) 0.5504(3)
C20A C 1.1671(4) 0.5093(8) 0.8153(2)
C21A C 1.1871(5) 0.4132(8) 0.8373(3)
H17A H 1.1821 0.3343 0.8266
C22A C 1.2144(5) 0.4280(8) 0.8749(3)
H18A H 1.2297 0.3597 0.8895
C23A C 1.2199(3) 0.5424(7) 0.8920(2)
C24A C 1.1992(3) 0.6382(7) 0.86959(19)
H19A H 1.2033 0.7167 0.8807
C25A C 1.1720(3) 0.6263(7) 0.8310(2)
H20A H 1.1575 0.6944 0.8161
C26A C 1.2502(4) 0.5554(8) 0.9328(2)
O1A O 1.0120(3) 0.5504(5) 0.66246(16)
O2A O 1.1517(3) 0.5410(7) 0.68368(19)
O3A O 1.1426(3) 0.4831(5) 0.77853(17)
O5A O 0.8751(3) 0.9218(9) 0.54612(18)
O6A O 0.8390(3) 0.7447(7) 0.52049(18)
O7A O 1.2460(3) 0.4171(5) 0.52997(14)
O8A O 1.2804(4) 0.5987(5) 0.54367(19)
O9A O 1.2589(3) 0.6582(5) 0.94644(13)
O10A O 1.2665(3) 0.4583(5) 0.95122(15)
Mn1A Mn 1.24671(14) 0.2613(3) 0.49909(9)
Mn2A Mn 0.82385(5) 1.02132(9) 0.50089(3)
N1A N 0.8917(3) 0.9785(6) 0.46572(17)
N2A N 0.8688(4) 1.1954(7) 0.49382(18)
C27A C 0.9065(5) 0.8652(9) 0.4554(3)
H21A H 0.8814 0.8008 0.4580
C28A C 0.9554(7) 0.8376(13) 0.4413(4)
H22A H 0.9628 0.7578 0.4337
C29A C 0.9941(6) 0.9333(19) 0.4387(4)
H23A H 1.0283 0.9194 0.4294
C30A C 0.9799(6) 1.0477(16) 0.4502(4)
H24A H 1.0055 1.1125 0.4497
C31A C 0.9290(5) 1.0689(10) 0.4625(2)
C32A C 0.8506(6) 1.3038(9) 0.5046(3)
H25A H 0.8210 1.3048 0.5192
C33A C 0.8727(9) 1.4131(12) 0.4956(4)
H26A H 0.8590 1.4878 0.5034
C34A C 0.9142(11) 1.4071(15) 0.4752(5)
H27A H 0.9299 1.4811 0.4684
C35A C 0.9373(7) 1.2974(14) 0.4627(3)
H28A H 0.9674 1.2954 0.4485
C36A C 0.9099(4) 1.1909(8) 0.4738(3)
Mn1B Mn 1.25329(14) 0.7613(3) 1.00091(9)
Mn1C Mn 0.74671(14) 0.7613(3) 0.49909(9)
Mn1D Mn 1.24671(14) 0.7387(3) 0.99909(9)
Mn1E Mn 0.75329(14) 0.7387(3) 0.50091(9)
Mn1F Mn 0.74671(14) 0.2387(3) 0.99909(9)
Mn1G Mn 1.25329(14) 0.2387(3) 0.50091(9)
Mn2B Mn 0.67615(5) 0.52132(9) 0.99911(3)
Mn2C Mn 1.32385(5) 0.52132(9) 0.50089(3)
Mn2F Mn 1.32385(5) 0.47868(9) 1.00089(3)
Mn2G Mn 0.67615(5) 0.47868(9) 0.49911(3)
O6B O 0.6610(3) 0.2447(7) 0.97951(18)
O6C O 1.3390(3) 0.2447(7) 0.52049(18)
O6D O 0.8390(3) 0.2553(7) 1.02049(18)
O6E O 1.1610(3) 0.2553(7) 0.47951(18)
O7B O 1.2540(3) 0.9171(5) 0.97003(14)
O7C O 0.7460(3) 0.9171(5) 0.52997(14)
O7F O 0.7460(3) 0.0829(5) 1.02997(14)
O7G O 1.2540(3) 0.0829(5) 0.47003(14)
O8B O 1.2196(4) 1.0987(5) 0.95633(19)
O8C O 0.7804(4) 1.0987(5) 0.54367(19)
O9B O 1.2411(3) 0.1582(5) 0.55356(13)
O9C O 0.7589(3) 0.1582(5) 0.94644(13)
O9D O 1.2589(3) 0.3418(5) 0.44644(13)
O9E O 0.7411(3) 0.3418(5) 1.05356(13)
O10F O 0.7665(3) 1.0417(5) 0.45122(15)
O10G O 1.2335(3) 1.0417(5) 1.04878(15)
loop_
_geom_bond_atom_site_label_1
_geom_bond_atom_site_label_2
_geom_bond_site_symmetry_1
_geom_bond_site_symmetry_2
Mn1 O7 1_555 1_555
Mn2 N1 1_555 1_555
N1 C27 1_555 1_555
N2 Mn2 1_555 1_555
C1 C2 1_555 1_555
C2 H1 1_555 1_555
H2 C2 1_555 1_555
C3 C1 1_555 1_555
H3 C3 1_555 1_555
H4 C3 1_555 1_555
C4 C1 1_555 1_555
H5 C4 1_555 1_555
H6 C4 1_555 1_555
C5 C1 1_555 1_555
H7 C5 1_555 1_555
H8 C5 1_555 1_555
C6 C7 1_555 1_555
C7 H9 1_555 1_555
C8 C7 1_555 1_555
H10 C8 1_555 1_555
C9 C8 1_555 1_555
C10 C9 1_555 1_555
H11 C10 1_555 1_555
C11 C6 1_555 1_555
H12 C11 1_555 1_555
C12 C9 1_555 1_555
C13 C14 1_555 1_555
C14 H13 1_555 1_555
C15 C14 1_555 1_555
H14 C15 1_555 1_555
C16 C15 1_555 1_555
C17 C16 1_555 1_555
H15 C17 1_555 1_555
C18 C13 1_555 1_555
H16 C18 1_555 1_555
C19 C16 1_555 1_555
C20 C21 1_555 1_555
C21 H17 1_555 1_555
C22 C21 1_555 1_555
H18 C22 1_555 1_555
C23 C22 1_555 1_555
C24 C23 1_555 1_555
H19 C24 1_555 1_555
C25 C20 1_555 1_555
H20 C25 1_555 1_555
C26 C23 1_555 1_555
C27 H21 1_555 1_555
C28 C27 1_555 1_555
H22 C28 1_555 1_555
C29 C28 1_555 1_555
H23 C29 1_555 1_555
C30 C29 1_555 1_555
H24 C30 1_555 1_555
C31 N1 1_555 1_555
C32 N2 1_555 1_555
H25 C32 1_555 1_555
C33 C32 1_555 1_555
H26 C33 1_555 1_555
C34 C33 1_555 1_555
H27 C34 1_555 1_555
C35 C34 1_555 1_555
H28 C35 1_555 1_555
C36 N2 1_555 1_555
O1 C2 1_555 1_555
O2 C3 1_555 1_555
O3 C4 1_555 1_555
O4 C5 1_555 1_555
O5 Mn2 1_555 1_555
O6 C12 1_555 1_555
O7 C19 1_555 1_555
O8 C19 1_555 1_555
O9 C26 1_555 1_555
O10 C26 1_555 1_555
C1A C2A 1_555 1_555
C2A H1A 1_555 1_555
H2A C2A 1_555 1_555
C3A C1A 1_555 1_555
H3A C3A 1_555 1_555
H4A C3A 1_555 1_555
C4A C1A 1_555 1_555
H5A C4A 1_555 1_555
H6A C4A 1_555 1_555
C5A O4 1_555 1_555
H7A C5A 1_555 1_555
H8A C5A 1_555 1_555
C6A C7A 1_555 1_555
C7A H9A 1_555 1_555
C8A C7A 1_555 1_555
H10A C8A 1_555 1_555
C9A C8A 1_555 1_555
C10A C9A 1_555 1_555
H11A C10A 1_555 1_555
C11A C6A 1_555 1_555
H12A C11A 1_555 1_555
C12A C9A 1_555 1_555
C13A C14A 1_555 1_555
C14A H13A 1_555 1_555
C15A C14A 1_555 1_555
H14A C15A 1_555 1_555
C16A C15A 1_555 1_555
C17A C16A 1_555 1_555
H15A C17A 1_555 1_555
C18A C13A 1_555 1_555
H16A C18A 1_555 1_555
C19A C16A 1_555 1_555
C20A C21A 1_555 1_555
C21A H17A 1_555 1_555
C22A C21A 1_555 1_555
H18A C22A 1_555 1_555
C23A C22A 1_555 1_555
C24A C23A 1_555 1_555
H19A C24A 1_555 1_555
C25A C20A 1_555 1_555
H20A C25A 1_555 1_555
C26A C23A 1_555 1_555
O1A C2A 1_555 1_555
O2A C3A 1_555 1_555
O3A C4A 1_555 1_555
O5A C12A 1_555 1_555
O6A C12A 1_555 1_555
O7A C19A 1_555 1_555
O8A C19A 1_555 1_555
O9A C26A 1_555 1_555
O10A C26A 1_555 1_555
Mn1A O7A 1_555 1_555
Mn2A O5A 1_555 1_555
N1A Mn2A 1_555 1_555
N2A Mn2A 1_555 1_555
C27A N1A 1_555 1_555
H21A C27A 1_555 1_555
C28A C27A 1_555 1_555
H22A C28A 1_555 1_555
C29A C28A 1_555 1_555
H23A C29A 1_555 1_555
C30A C29A 1_555 1_555
H24A C30A 1_555 1_555
C31A N1A 1_555 1_555
C32A N2A 1_555 1_555
H25A C32A 1_555 1_555
C33A C32A 1_555 1_555
H26A C33A 1_555 1_555
C34A C33A 1_555 1_555
H27A C34A 1_555 1_555
C35A C34A 1_555 1_555
H28A C35A 1_555 1_555
C36A N2A 1_555 1_555
Mn1B O6 1_555 1_555
Mn1C O9 1_555 1_555
Mn1D O6 1_555 1_555
Mn1E O9 1_555 1_555
Mn1F O7 1_555 1_555
Mn1G O7A 1_555 1_555
Mn2B O7 1_555 1_555
Mn2C O7A 1_555 1_555
Mn2F O10A 1_555 1_555
Mn2G O10 1_555 1_555
O6B Mn1 1_555 1_555
O6C Mn1A 1_555 1_555
O6D Mn1 1_555 1_555
O6E Mn1A 1_555 1_555
O7B Mn2 1_555 1_555
O7C Mn2A 1_555 1_555
O7F Mn1 1_555 1_555
O7G Mn1A 1_555 1_555
O8B Mn2 1_555 1_555
O8C Mn2A 1_555 1_555
O9B Mn1A 1_555 1_555
O9C Mn1 1_555 1_555
O9D Mn1A 1_555 1_555
O9E Mn1 1_555 1_555
O10F Mn2A 1_555 1_555
O10G Mn2 1_555 1_555
C6 O1 1_555 1_555
C10 C11 1_555 1_555
C12 O5 1_555 1_555
C13 O2 1_555 1_555
C17 C18 1_555 1_555
C20 O3 1_555 1_555
C24 C25 1_555 1_555
C30 C31 1_555 1_555
C31 C36 1_555 1_555
C35 C36 1_555 1_555
O8 Mn2B 1_555 1_555
C1A C5A 1_555 1_555
C6A O1A 1_555 1_555
C10A C11A 1_555 1_555
C13A O2A 1_555 1_555
C17A C18A 1_555 1_555
C20A O3A 1_555 1_555
C24A C25A 1_555 1_555
O6A Mn1C 1_555 1_555
O6A Mn1E 1_555 1_555
O8A Mn2C 1_555 1_555
O9A Mn1B 1_555 1_555
O9A Mn1D 1_555 1_555
C30A C31A 1_555 1_555
C31A C36A 1_555 1_555
C35A C36A 1_555 1_555
Mn1B O7B 1_555 1_555
Mn1C O7C 1_555 1_555
Mn1D O7B 1_555 1_555
Mn1E O7C 1_555 1_555
Mn1F O6B 1_555 1_555
Mn1F O6D 1_555 1_555
Mn1F O7F 1_555 1_555
Mn1F O9C 1_555 1_555
Mn1F O9E 1_555 1_555
Mn1G O6C 1_555 1_555
Mn1G O6E 1_555 1_555
Mn1G O7G 1_555 1_555
Mn1G O9B 1_555 1_555
Mn1G O9D 1_555 1_555

#END
