
#######################################################################
#
#                 Cambridge Crystallographic Data Centre
#                                CCDC 
#
#######################################################################
#
# If this CIF has been generated from an entry in the Cambridge 
# Structural Database, then it will include bibliographic, chemical, 
# crystal, experimental, refinement or atomic coordinate data resulting 
# from the CCDC's data processing and validation procedures.
#
#######################################################################

data_AFUKUI
_symmetry_cell_setting           monoclinic
_symmetry_space_group_name_H-M   'P 21/c'
_symmetry_Int_Tables_number      14
_space_group_name_Hall           '-P 2ybc'
loop_
_symmetry_equiv_pos_site_id
_symmetry_equiv_pos_as_xyz
1 x,y,z
2 -x,1/2+y,1/2-z
3 -x,-y,-z
4 x,1/2-y,1/2+z
_cell_length_a                   11.2760(3)
_cell_length_b                   18.5120(5)
_cell_length_c                   12.9750(3)
_cell_angle_alpha                90
_cell_angle_beta                 113.4711(10)
_cell_angle_gamma                90
_cell_volume                     2484.33
loop_
_atom_site_label
_atom_site_type_symbol
_atom_site_fract_x
_atom_site_fract_y
_atom_site_fract_z
Cu1 Cu 0.85399(3) 0.154382(18) 0.56241(3)
O1 O 0.75210(19) 0.21384(11) 0.43102(16)
O2 O 0.6743(2) 0.11387(12) 0.3322(2)
O3 O 0.7895(2) 0.22215(14) 0.2040(2)
O4 O 0.7220(2) 0.32927(11) 0.12170(18)
O5 O 1.0001(2) 0.24368(13) 0.6730(2)
H1 H 1.0172 0.2781 0.6380
H2 H 1.0568 0.2296 0.7519
N1 N 0.9331(2) 0.07381(13) 0.6713(2)
N2 N 0.9940(2) 0.12644(13) 0.51317(19)
C1 C 0.8932(3) 0.04970(19) 0.7497(3)
H8 H 0.8199 0.0744 0.7601
C2 C 0.9538(4) -0.0066(2) 0.8206(3)
H9 H 0.9228 -0.0193 0.8735
C3 C 1.0581(4) -0.0388(2) 0.8113(3)
H10 H 1.1070 -0.0847 0.8587
C4 C 1.1013(3) -0.01421(17) 0.7305(3)
H11 H 1.1796 -0.0353 0.7263
C5 C 1.0366(3) 0.04236(15) 0.6621(2)
C6 C 1.0736(3) 0.07407(14) 0.5745(2)
C7 C 1.1820(3) 0.05363(16) 0.5560(3)
H12 H 1.2486 0.0183 0.6098
C8 C 1.2085(3) 0.08831(18) 0.4739(3)
H13 H 1.2909 0.0813 0.4603
C9 C 1.1267(3) 0.14250(18) 0.4115(3)
H14 H 1.1492 0.1686 0.3559
C10 C 1.0200(3) 0.15990(17) 0.4334(3)
H15 H 0.9575 0.1999 0.3883
C11 C 0.6727(3) 0.17966(15) 0.3456(2)
C12 C 0.5656(3) 0.22497(15) 0.2622(2)
C13 C 0.5868(3) 0.26744(16) 0.1880(2)
H16 H 0.5191 0.2976 0.1380
C14 C 0.7092(3) 0.27205(16) 0.1719(2)
C15 C 0.4340(3) 0.22067(17) 0.2711(2)
C16 C 0.3385(3) 0.2747(3) 0.1948(4)
H17 H 0.2588 0.2719 0.2049
H18 H 0.3227 0.2639 0.1181
H19 H 0.3734 0.3226 0.2128
C17 C 0.4526(4) 0.2352(3) 0.3920(3)
H20 H 0.4907 0.2820 0.4143
H21 H 0.5086 0.1991 0.4402
H22 H 0.3704 0.2336 0.3979
C18 C 0.3773(4) 0.1449(2) 0.2370(5)
H23 H 0.2957 0.1416 0.2438
H24 H 0.4358 0.1097 0.2851
H25 H 0.3649 0.1359 0.1605
Cu1C Cu 0.85399(3) 0.345618(18) 0.06241(3)
O4C O 0.7220(2) 0.17073(11) 0.62170(18)
O6 O 0.1574(3) 0.32974(18) 0.3804(3)
H3 H 0.2212 0.3606 0.3973
H4 H 0.0909 0.3413 0.3964
O7 O 0.0272(4) 0.15608(17) 0.0217(3)
O8 O 0.6158(3) 0.08591(17) 0.0908(3)
O9 O 0.5449(4) 0.0489(2) 0.5842(4)
H5 H 0.5045 0.0463 0.6402
H6 H 0.6020 0.0870 0.5809
O10 O 0.7518(4) 0.36319(17) 0.4495(3)
H7 H 0.7492 0.3080 0.4399
O11 O 0.3693(5) 0.4310(3) 0.4140(4)
O13 O 0.5708(8) 0.0451(4) 0.8083(6)
O12? O 0.3511(10) 0.4367(5) 0.4682(9)
O14? O 0.491(2) 0.0349(10) 0.7735(16)
loop_
_geom_bond_atom_site_label_1
_geom_bond_atom_site_label_2
_geom_bond_site_symmetry_1
_geom_bond_site_symmetry_2
Cu1 O1 1_555 1_555
O1 C11 1_555 1_555
O2 C11 1_555 1_555
O3 C14 1_555 1_555
O4 C14 1_555 1_555
O5 Cu1 1_555 1_555
H1 O5 1_555 1_555
H2 O5 1_555 1_555
O6 H3 1_555 1_555
H4 O6 1_555 1_555
O9 H5 1_555 1_555
H6 O9 1_555 1_555
O10 H7 1_555 1_555
N1 Cu1 1_555 1_555
N2 Cu1 1_555 1_555
C1 N1 1_555 1_555
H8 C1 1_555 1_555
C2 C1 1_555 1_555
H9 C2 1_555 1_555
C3 C2 1_555 1_555
H10 C3 1_555 1_555
C4 C3 1_555 1_555
H11 C4 1_555 1_555
C5 N1 1_555 1_555
C6 N2 1_555 1_555
C7 C6 1_555 1_555
H12 C7 1_555 1_555
C8 C7 1_555 1_555
H13 C8 1_555 1_555
C9 C8 1_555 1_555
H14 C9 1_555 1_555
C10 N2 1_555 1_555
H15 C10 1_555 1_555
C11 C12 1_555 1_555
C12 C13 1_555 1_555
C13 H16 1_555 1_555
C14 C13 1_555 1_555
C15 C12 1_555 1_555
C16 C15 1_555 1_555
H17 C16 1_555 1_555
H18 C16 1_555 1_555
H19 C16 1_555 1_555
C17 C15 1_555 1_555
H20 C17 1_555 1_555
H21 C17 1_555 1_555
H22 C17 1_555 1_555
C18 C15 1_555 1_555
H23 C18 1_555 1_555
H24 C18 1_555 1_555
H25 C18 1_555 1_555
Cu1C O4 1_555 1_555
O4C Cu1 1_555 1_555
C4 C5 1_555 1_555
C5 C6 1_555 1_555
C9 C10 1_555 1_555

#END
