
#######################################################################
#
#                 Cambridge Crystallographic Data Centre
#                                CCDC 
#
#######################################################################
#
# If this CIF has been generated from an entry in the Cambridge 
# Structural Database, then it will include bibliographic, chemical, 
# crystal, experimental, refinement or atomic coordinate data resulting 
# from the CCDC's data processing and validation procedures.
#
#######################################################################

data_AFUMCO03
_symmetry_cell_setting           monoclinic
_symmetry_space_group_name_H-M   'C c'
_symmetry_Int_Tables_number      9
_space_group_name_Hall           'C -2yc'
loop_
_symmetry_equiv_pos_site_id
_symmetry_equiv_pos_as_xyz
1 x,y,z
2 x,-y,1/2+z
3 1/2+x,1/2+y,z
4 1/2+x,1/2-y,1/2+z
_cell_length_a                   5.298(2)
_cell_length_b                   13.218(3)
_cell_length_c                   13.364(3)
_cell_angle_alpha                90
_cell_angle_beta                 95.25(2)
_cell_angle_gamma                90
_cell_volume                     931.941
loop_
_atom_site_label
_atom_site_type_symbol
_atom_site_fract_x
_atom_site_fract_y
_atom_site_fract_z
Co1 Co 0.0639(3) 0.018570(17) -0.53701(12)
C1 C 0.1668(11) -0.1371(5) -0.3617(5)
C2 C 0.3527(11) -0.2131(5) -0.3136(5)
H1 H 0.5237 -0.2049 -0.3223
C3 C 0.2848(11) -0.2916(5) -0.2592(5)
H2 H 0.1144 -0.3004 -0.2500
C4 C 0.4707(10) -0.3649(4) -0.2134(4)
O1 O 0.2302(10) -0.0905(5) -0.4373(4)
O2 O -0.0407(9) -0.1197(5) -0.3245(3)
O3 O 0.3956(10) -0.4077(5) -0.1342(3)
O4 O 0.6748(8) -0.3777(5) -0.2486(4)
O5 O 0.2699(8) 0.1267(5) -0.4450(3)
H3 H 0.220(10) 0.118(3) -0.386(2)
H4 H 0.210(9) 0.185(2) -0.462(3)
O6 O -0.2354(12) 0.0251(4) -0.4431(5)
H5 H -0.194(10) -0.009(3) -0.393(3)
H6 H -0.363(7) 0.059(4) -0.432(4)
O7 O -0.1407(8) 0.1297(4) -0.6282(2)
H7 H -0.137(9) 0.188(2) -0.600(3)
H8 H -0.112(10) 0.143(3) -0.6894(17)
O8 O 0.3559(13) 0.0244(4) -0.6265(6)
H9 H 0.364(11) -0.030(3) -0.660(4)
H10 H 0.509(5) 0.041(4) -0.612(4)
O3C O -0.1044(10) -0.0923(5) -0.6342(3)
Co1C Co 0.5639(3) -0.518570(17) -0.03701(12)
O9 O 0.0694(13) -0.29682(12) -0.0367(6)
H11 H 0.137(8) -0.342(4) -0.071(3)
H12 H -0.061(7) -0.325(4) -0.017(4)
loop_
_geom_bond_atom_site_label_1
_geom_bond_atom_site_label_2
_geom_bond_site_symmetry_1
_geom_bond_site_symmetry_2
Co1 O1 1_555 1_555
C1 C2 1_555 1_555
C2 H1 1_555 1_555
C3 C2 1_555 1_555
H2 C3 1_555 1_555
C4 C3 1_555 1_555
O1 C1 1_555 1_555
O2 C1 1_555 1_555
O3 C4 1_555 1_555
O4 C4 1_555 1_555
O5 Co1 1_555 1_555
H3 O5 1_555 1_555
H4 O5 1_555 1_555
O6 Co1 1_555 1_555
H5 O6 1_555 1_555
H6 O6 1_555 1_555
O7 Co1 1_555 1_555
H7 O7 1_555 1_555
H8 O7 1_555 1_555
O8 Co1 1_555 1_555
H9 O8 1_555 1_555
H10 O8 1_555 1_555
O9 H11 1_555 1_555
H12 O9 1_555 1_555
O3C Co1 1_555 1_555
Co1C O3 1_555 1_555

#END
