
#######################################################################
#
#                 Cambridge Crystallographic Data Centre
#                                CCDC 
#
#######################################################################
#
# If this CIF has been generated from an entry in the Cambridge 
# Structural Database, then it will include bibliographic, chemical, 
# crystal, experimental, refinement or atomic coordinate data resulting 
# from the CCDC's data processing and validation procedures.
#
#######################################################################

data_AFUMEU
_symmetry_cell_setting           orthorhombic
_symmetry_space_group_name_H-M   'F d d d'
_symmetry_Int_Tables_number      70
_space_group_name_Hall           '-F 2uv 2vw'
loop_
_symmetry_equiv_pos_site_id
_symmetry_equiv_pos_as_xyz
1 x,y,z
2 x,1/2+y,1/2+z
3 x,1/4-y,1/4-z
4 1/2+x,y,1/2+z
5 1/4-x,y,1/4-z
6 1/2+x,1/2+y,z
7 1/4-x,1/4-y,z
8 3/4-x,3/4-y,z
9 3/4-x,y,3/4-z
10 x,3/4-y,3/4-z
11 3/4-x,1/4-y,1/2+z
12 3/4-x,1/2+y,1/4-z
13 1/4-x,3/4-y,1/2+z
14 1/2+x,3/4-y,1/4-z
15 1/4-x,1/2+y,3/4-z
16 1/2+x,1/4-y,3/4-z
17 -x,-y,-z
18 -x,1/2-y,1/2-z
19 -x,3/4+y,3/4+z
20 1/2-x,-y,1/2-z
21 3/4+x,-y,3/4+z
22 1/2-x,1/2-y,-z
23 3/4+x,3/4+y,-z
24 1/4+x,1/4+y,-z
25 1/4+x,-y,1/4+z
26 -x,1/4+y,1/4+z
27 1/4+x,3/4+y,1/2-z
28 1/4+x,1/2-y,3/4+z
29 3/4+x,1/4+y,1/2-z
30 1/2-x,1/4+y,3/4+z
31 3/4+x,1/2-y,1/4+z
32 1/2-x,3/4+y,1/4+z
_cell_length_a                   24.9286(3)
_cell_length_b                   35.2338(5)
_cell_length_c                   35.4759(6)
_cell_angle_alpha                90
_cell_angle_beta                 90
_cell_angle_gamma                90
_cell_volume                     31159.5
loop_
_atom_site_label
_atom_site_type_symbol
_atom_site_fract_x
_atom_site_fract_y
_atom_site_fract_z
Gd1 Gd 0.812203(17) 0.528987(12) 0.031403(12)
Ni1 Ni 0.6250 0.50367(3) 0.1250
Ni2 Ni 0.8750 0.52069(4) -0.1250
N1 N 0.6664(3) 0.54503(16) 0.15646(17)
N2 N 0.6948(2) 0.50694(16) 0.09681(16)
N3 N 0.6133(3) 0.46298(16) 0.08356(18)
N4 N 0.9286(3) 0.5611(2) -0.10581(19)
N5 N 0.8580(3) 0.52100(19) -0.0697(2)
N6 N 0.8145(3) 0.4790(2) -0.1234(2)
N7 N 0.7325(3) 0.5777(2) -0.0108(2)
N8 N 0.8710(4) 0.5937(3) 0.0617(3)
C1 C 0.6504(4) 0.5623(2) 0.1878(2)
H1 H 0.6168 0.5560 0.1974
C2 C 0.6808(5) 0.5892(3) 0.2073(3)
H2 H 0.6687 0.6001 0.2296
C3 C 0.7298(5) 0.5988(3) 0.1917(3)
H3 H 0.7515 0.6170 0.2030
C4 C 0.7459(4) 0.5806(3) 0.1590(3)
H4 H 0.7789 0.5866 0.1483
C5 C 0.7137(3) 0.5536(2) 0.1420(2)
C6 C 0.7291(3) 0.5335(2) 0.1068(2)
C7 C 0.7011(3) 0.4851(2) 0.0649(2)
C8 C 0.6539(4) 0.4594(2) 0.0586(2)
C9 C 0.6540(5) 0.4342(2) 0.0291(3)
H5 H 0.6834 0.4321 0.0130
C10 C 0.6071(5) 0.4112(3) 0.0239(3)
H6 H 0.6049 0.3944 0.0037
C11 C 0.5670(5) 0.4143(3) 0.0483(3)
H7 H 0.5365 0.3993 0.0457
C12 C 0.5708(4) 0.4406(2) 0.0782(3)
H8 H 0.5423 0.4424 0.0951
C13 C 0.9643(4) 0.5814(3) -0.1256(3)
H9 H 0.9664 0.5777 -0.1515
C14 C 0.9980(5) 0.6074(3) -0.1090(4)
H10 H 1.0230 0.6207 -0.1234
C15 C 0.9943(5) 0.6136(3) -0.0709(3)
H11 H 1.0149 0.6322 -0.0592
C16 C 0.9596(4) 0.5918(3) -0.0504(3)
H12 H 0.9586 0.5941 -0.0243
C17 C 0.9268(3) 0.5670(2) -0.0679(2)
C18 C 0.8862(3) 0.5434(2) -0.0478(3)
C19 C 0.8184(4) 0.4980(3) -0.0569(3)
C20 C 0.7950(4) 0.4738(3) -0.0869(3)
C21 C 0.7521(4) 0.4485(3) -0.0811(3)
H13 H 0.7374 0.4450 -0.0572
C22 C 0.7326(4) 0.4290(4) -0.1116(4)
H14 H 0.7042 0.4123 -0.1081
C23 C 0.7526(4) 0.4331(4) -0.1458(4)
H15 H 0.7394 0.4189 -0.1659
C24 C 0.7950(4) 0.4596(3) -0.1513(3)
H16 H 0.8090 0.4631 -0.1753
O1 O 0.7710(2) 0.54337(15) 0.09035(15)
O2 O 0.7388(3) 0.48522(16) 0.04273(17)
O3 O 0.8815(2) 0.54829(18) -0.01256(18)
O4 O 0.8002(3) 0.49421(17) -0.02454(19)
O5 O 0.7245(2) 0.56092(18) 0.01967(19)
O6 O 0.7766(3) 0.5729(2) -0.02581(18)
O7 O 0.6993(3) 0.5989(2) -0.0238(2)
O8 O 0.8296(3) 0.59700(17) 0.04211(18)
O9 O 0.8832(3) 0.5585(3) 0.0692(2)
O10 O 0.8958(5) 0.6181(3) 0.0716(4)
N10 N 0.8902(10) 0.4778(8) 0.0660(6)
O14 O 0.8481(8) 0.4856(4) 0.0825(4)
O15 O 0.8999(8) 0.4901(5) 0.0344(5)
O16 O 0.9262(11) 0.4580(8) 0.0806(9)
Gd1D Gd 0.437797(17) 0.528987(12) 0.218597(12)
Ni2C Ni 0.3750 0.52069(4) 0.3750
N1D N 0.5836(3) 0.54503(16) 0.09354(17)
N2D N 0.5552(2) 0.50694(16) 0.15319(16)
N3D N 0.6367(3) 0.46298(16) 0.16644(18)
N4D N 0.3214(3) 0.5611(2) 0.35581(19)
N4H N 0.8214(3) 0.5611(2) -0.14419(19)
N5D N 0.3920(3) 0.52100(19) 0.3197(2)
N5H N 0.8920(3) 0.52100(19) -0.1803(2)
N6D N 0.4355(3) 0.4790(2) 0.3734(2)
N6H N 0.9355(3) 0.4790(2) -0.1266(2)
N7D N 0.5175(3) 0.5777(2) 0.2608(2)
N8D N 0.3790(4) 0.5937(3) 0.1883(3)
C1D C 0.5996(4) 0.5623(2) 0.0622(2)
H1D H 0.6332 0.5560 0.0526
C2D C 0.5692(5) 0.5892(3) 0.0427(3)
H2D H 0.5813 0.6001 0.0204
C3D C 0.5202(5) 0.5988(3) 0.0583(3)
H3D H 0.4985 0.6170 0.0470
C4D C 0.5041(4) 0.5806(3) 0.0910(3)
H4D H 0.4711 0.5866 0.1017
C5D C 0.5363(3) 0.5536(2) 0.1080(2)
C6D C 0.5209(3) 0.5335(2) 0.1432(2)
C7D C 0.5489(3) 0.4851(2) 0.1851(2)
C8D C 0.5961(4) 0.4594(2) 0.1914(2)
C9D C 0.5960(5) 0.4342(2) 0.2209(3)
H5D H 0.5666 0.4321 0.2370
C10D C 0.6429(5) 0.4112(3) 0.2261(3)
H6D H 0.6451 0.3944 0.2463
C11D C 0.6830(5) 0.4143(3) 0.2017(3)
H7D H 0.7135 0.3993 0.2043
C12D C 0.6792(4) 0.4406(2) 0.1718(3)
H8D H 0.7077 0.4424 0.1549
C13D C 0.2857(4) 0.5814(3) 0.3756(3)
H9D H 0.2836 0.5777 0.4015
C14D C 0.2520(5) 0.6074(3) 0.3590(4)
H10D H 0.2270 0.6207 0.3734
C15D C 0.2557(5) 0.6136(3) 0.3209(3)
H11D H 0.2351 0.6322 0.3092
C16D C 0.2904(4) 0.5918(3) 0.3004(3)
H12D H 0.2914 0.5941 0.2743
C17D C 0.3232(3) 0.5670(2) 0.3179(2)
C18D C 0.3638(3) 0.5434(2) 0.2978(3)
C19D C 0.4316(4) 0.4980(3) 0.3069(3)
C20D C 0.4550(4) 0.4738(3) 0.3369(3)
C21D C 0.4979(4) 0.4485(3) 0.3311(3)
H13D H 0.5126 0.4450 0.3072
C22D C 0.5174(4) 0.4290(4) 0.3616(4)
H14D H 0.5458 0.4123 0.3581
C23D C 0.4974(4) 0.4331(4) 0.3958(4)
H15D H 0.5106 0.4189 0.4159
C24D C 0.4550(4) 0.4596(3) 0.4013(3)
H16D H 0.4410 0.4631 0.4253
O1D O 0.4790(2) 0.54337(15) 0.15965(15)
O2D O 0.5112(3) 0.48522(16) 0.20727(17)
O3D O 0.3685(2) 0.54829(18) 0.26256(18)
O4D O 0.4498(3) 0.49421(17) 0.27454(19)
O5D O 0.5255(2) 0.56092(18) 0.23033(19)
O6D O 0.4734(3) 0.5729(2) 0.27581(18)
O7D O 0.5507(3) 0.5989(2) 0.2738(2)
O8D O 0.4204(3) 0.59700(17) 0.20789(18)
O9D O 0.3668(3) 0.5585(3) 0.1808(2)
O10D O 0.3542(5) 0.6181(3) 0.1784(4)
N10D N 0.3598(10) 0.4778(8) 0.1840(6)
O14D O 0.4019(8) 0.4856(4) 0.1675(4)
O15D O 0.3501(8) 0.4901(5) 0.2156(5)
O16D O 0.3238(11) 0.4580(8) 0.1694(9)
O17 O 0.0874(6) 0.6786(4) 0.8231(4)
O18 O 0.8750 0.3750 0.8259(5)
O19 O 0.6559(6) 0.5144(4) 0.9488(4)
O20 O 0.8706(11) 0.4020(5) 0.9858(7)
O22 O 0.0474(9) 0.6282(6) 0.0249(6)
O23 O 0.5536(8) 0.5072(5) 0.9486(6)
N9? N 0.8593(9) 0.4594(6) 0.0574(5)
O11? O 0.8282(9) 0.4765(7) 0.0775(7)
O12? O 0.8764(9) 0.4278(5) 0.0684(6)
O13? O 0.8640(8) 0.4714(5) 0.0251(5)
O21? O 0.0087(12) 0.5130(7) 0.0171(8)
loop_
_geom_bond_atom_site_label_1
_geom_bond_atom_site_label_2
_geom_bond_site_symmetry_1
_geom_bond_site_symmetry_2
Gd1 O1 1_555 1_555
Ni1 N1 1_555 1_555
Ni2 N4 1_555 1_555
N1 C1 1_555 1_555
N2 Ni1 1_555 1_555
N3 Ni1 1_555 1_555
N4 C13 1_555 1_555
N5 Ni2 1_555 1_555
N6 Ni2 1_555 1_555
N7 O5 1_555 1_555
N8 O8 1_555 1_555
C1 H1 1_555 1_555
C2 C1 1_555 1_555
H2 C2 1_555 1_555
C3 C2 1_555 1_555
H3 C3 1_555 1_555
C4 C3 1_555 1_555
H4 C4 1_555 1_555
C5 N1 1_555 1_555
C6 N2 1_555 1_555
C7 N2 1_555 1_555
C8 N3 1_555 1_555
C9 C8 1_555 1_555
H5 C9 1_555 1_555
C10 C9 1_555 1_555
H6 C10 1_555 1_555
C11 C10 1_555 1_555
H7 C11 1_555 1_555
C12 N3 1_555 1_555
H8 C12 1_555 1_555
C13 H9 1_555 1_555
C14 C13 1_555 1_555
H10 C14 1_555 1_555
C15 C14 1_555 1_555
H11 C15 1_555 1_555
C16 C15 1_555 1_555
H12 C16 1_555 1_555
C17 N4 1_555 1_555
C18 N5 1_555 1_555
C19 N5 1_555 1_555
C20 N6 1_555 1_555
C21 C20 1_555 1_555
H13 C21 1_555 1_555
C22 C21 1_555 1_555
H14 C22 1_555 1_555
C23 C22 1_555 1_555
H15 C23 1_555 1_555
C24 N6 1_555 1_555
H16 C24 1_555 1_555
O1 C6 1_555 1_555
O2 Gd1 1_555 1_555
O3 Gd1 1_555 1_555
O4 Gd1 1_555 1_555
O5 Gd1 1_555 1_555
O6 Gd1 1_555 1_555
O7 N7 1_555 1_555
O8 Gd1 1_555 1_555
O9 Gd1 1_555 1_555
O10 N8 1_555 1_555
N10 O14 1_555 1_555
O14 Gd1 1_555 1_555
O15 Gd1 1_555 1_555
O16 N10 1_555 1_555
Gd1D O1D 1_555 1_555
Ni2C N4D 1_555 1_555
N1D Ni1 1_555 1_555
N2D Ni1 1_555 1_555
N3D Ni1 1_555 1_555
N4D C13D 1_555 1_555
N4H Ni2 1_555 1_555
N5D Ni2C 1_555 1_555
N5H Ni2 1_555 1_555
N6D Ni2C 1_555 1_555
N6H Ni2 1_555 1_555
N7D O5D 1_555 1_555
N8D O8D 1_555 1_555
C1D N1D 1_555 1_555
H1D C1D 1_555 1_555
C2D C1D 1_555 1_555
H2D C2D 1_555 1_555
C3D C2D 1_555 1_555
H3D C3D 1_555 1_555
C4D C3D 1_555 1_555
H4D C4D 1_555 1_555
C5D N1D 1_555 1_555
C6D N2D 1_555 1_555
C7D N2D 1_555 1_555
C8D N3D 1_555 1_555
C9D C8D 1_555 1_555
H5D C9D 1_555 1_555
C10D C9D 1_555 1_555
H6D C10D 1_555 1_555
C11D C10D 1_555 1_555
H7D C11D 1_555 1_555
C12D N3D 1_555 1_555
H8D C12D 1_555 1_555
C13D H9D 1_555 1_555
C14D C13D 1_555 1_555
H10D C14D 1_555 1_555
C15D C14D 1_555 1_555
H11D C15D 1_555 1_555
C16D C15D 1_555 1_555
H12D C16D 1_555 1_555
C17D N4D 1_555 1_555
C18D N5D 1_555 1_555
C19D N5D 1_555 1_555
C20D N6D 1_555 1_555
C21D C20D 1_555 1_555
H13D C21D 1_555 1_555
C22D C21D 1_555 1_555
H14D C22D 1_555 1_555
C23D C22D 1_555 1_555
H15D C23D 1_555 1_555
C24D N6D 1_555 1_555
H16D C24D 1_555 1_555
O1D C6D 1_555 1_555
O2D Gd1D 1_555 1_555
O3D Gd1D 1_555 1_555
O4D Gd1D 1_555 1_555
O5D Gd1D 1_555 1_555
O6D Gd1D 1_555 1_555
O7D N7D 1_555 1_555
O8D Gd1D 1_555 1_555
O9D Gd1D 1_555 1_555
O10D N8D 1_555 1_555
N10D O14D 1_555 1_555
O14D Gd1D 1_555 1_555
O15D Gd1D 1_555 1_555
O16D N10D 1_555 1_555
N7 O6 1_555 1_555
N8 O9 1_555 1_555
C4 C5 1_555 1_555
C5 C6 1_555 1_555
C7 C8 1_555 1_555
C7 O2 1_555 1_555
C11 C12 1_555 1_555
C16 C17 1_555 1_555
C17 C18 1_555 1_555
C18 O3 1_555 1_555
C19 C20 1_555 1_555
C19 O4 1_555 1_555
C23 C24 1_555 1_555
N10 O15 1_555 1_555
N7D O6D 1_555 1_555
N8D O9D 1_555 1_555
C4D C5D 1_555 1_555
C5D C6D 1_555 1_555
C7D C8D 1_555 1_555
C7D O2D 1_555 1_555
C11D C12D 1_555 1_555
C16D C17D 1_555 1_555
C17D C18D 1_555 1_555
C18D O3D 1_555 1_555
C19D C20D 1_555 1_555
C19D O4D 1_555 1_555
C23D C24D 1_555 1_555
N10D O15D 1_555 1_555

#END
