
#######################################################################
#
#                 Cambridge Crystallographic Data Centre
#                                CCDC 
#
#######################################################################
#
# If this CIF has been generated from an entry in the Cambridge 
# Structural Database, then it will include bibliographic, chemical, 
# crystal, experimental, refinement or atomic coordinate data resulting 
# from the CCDC's data processing and validation procedures.
#
#######################################################################

data_AFUMIY
_symmetry_cell_setting           orthorhombic
_symmetry_space_group_name_H-M   'F d d d'
_symmetry_Int_Tables_number      70
_space_group_name_Hall           '-F 2uv 2vw'
loop_
_symmetry_equiv_pos_site_id
_symmetry_equiv_pos_as_xyz
1 x,y,z
2 x,1/2+y,1/2+z
3 x,1/4-y,1/4-z
4 1/2+x,y,1/2+z
5 1/4-x,y,1/4-z
6 1/2+x,1/2+y,z
7 1/4-x,1/4-y,z
8 3/4-x,3/4-y,z
9 3/4-x,y,3/4-z
10 x,3/4-y,3/4-z
11 3/4-x,1/4-y,1/2+z
12 3/4-x,1/2+y,1/4-z
13 1/4-x,3/4-y,1/2+z
14 1/2+x,3/4-y,1/4-z
15 1/4-x,1/2+y,3/4-z
16 1/2+x,1/4-y,3/4-z
17 -x,-y,-z
18 -x,1/2-y,1/2-z
19 -x,3/4+y,3/4+z
20 1/2-x,-y,1/2-z
21 3/4+x,-y,3/4+z
22 1/2-x,1/2-y,-z
23 3/4+x,3/4+y,-z
24 1/4+x,1/4+y,-z
25 1/4+x,-y,1/4+z
26 -x,1/4+y,1/4+z
27 1/4+x,3/4+y,1/2-z
28 1/4+x,1/2-y,3/4+z
29 3/4+x,1/4+y,1/2-z
30 1/2-x,1/4+y,3/4+z
31 3/4+x,1/2-y,1/4+z
32 1/2-x,3/4+y,1/4+z
_cell_length_a                   24.8274(4)
_cell_length_b                   35.2709(5)
_cell_length_c                   35.4105(6)
_cell_angle_alpha                90
_cell_angle_beta                 90
_cell_angle_gamma                90
_cell_volume                     31008.4
loop_
_atom_site_label
_atom_site_type_symbol
_atom_site_fract_x
_atom_site_fract_y
_atom_site_fract_z
Tb1 Tb 0.812324(18) 0.028787(11) 0.031350(11)
Ni1 Ni 0.6250 0.00348(3) 0.1250
Ni2 Ni 0.8750 0.02104(4) -0.1250
N1 N 0.6665(3) 0.04490(16) 0.15637(16)
N2 N 0.6951(3) 0.00656(15) 0.09625(16)
N3 N 0.6132(3) -0.03733(16) 0.08331(18)
N4 N 0.9284(3) 0.0616(2) -0.10588(18)
N5 N 0.8580(3) 0.02141(18) -0.0698(2)
N6 N 0.8144(3) -0.0204(2) -0.1234(2)
N7 N 0.7321(3) 0.0779(2) -0.0106(2)
N8 N 0.8709(4) 0.0935(3) 0.0616(3)
N9 N 0.8771(12) -0.0320(6) 0.0605(6)
C1 C 0.6502(4) 0.0620(2) 0.1880(2)
H1 H 0.6168 0.0556 0.1980
C2 C 0.6817(5) 0.0893(3) 0.2067(3)
H2 H 0.6698 0.1005 0.2289
C3 C 0.7300(5) 0.0988(3) 0.1912(3)
H3 H 0.7515 0.1172 0.2025
C4 C 0.7468(4) 0.0810(3) 0.1586(3)
H4 H 0.7800 0.0871 0.1481
C5 C 0.7140(3) 0.0538(2) 0.1412(2)
C6 C 0.7302(3) 0.0335(2) 0.1069(2)
C7 C 0.7013(4) -0.0152(2) 0.0649(2)
C8 C 0.6543(4) -0.0406(2) 0.0584(2)
C9 C 0.6543(5) -0.0657(3) 0.0287(3)
H5 H 0.6837 -0.0677 0.0126
C10 C 0.6072(5) -0.0889(3) 0.0235(3)
H6 H 0.6050 -0.1058 0.0034
C11 C 0.5659(5) -0.0856(3) 0.0484(3)
H7 H 0.5349 -0.1002 0.0457
C12 C 0.5709(4) -0.0598(2) 0.0783(3)
H8 H 0.5429 -0.0584 0.0957
C13 C 0.9643(4) 0.0820(3) -0.1248(3)
H9 H 0.9656 0.0790 -0.1509
C14 C 0.9994(5) 0.1072(3) -0.1087(3)
H10 H 1.0252 0.1198 -0.1230
C15 C 0.9951(5) 0.1129(3) -0.0707(4)
H11 H 1.0161 0.1313 -0.0591
C16 C 0.9604(4) 0.0919(3) -0.0494(3)
H12 H 0.9594 0.0944 -0.0233
C17 C 0.9271(3) 0.0670(2) -0.0674(2)
C18 C 0.8866(4) 0.0438(3) -0.0471(3)
C19 C 0.8178(4) -0.0019(2) -0.0566(3)
C20 C 0.7940(4) -0.0260(3) -0.0874(3)
C21 C 0.7511(4) -0.0508(3) -0.0813(3)
H13 H 0.7357 -0.0534 -0.0575
C22 C 0.7324(5) -0.0713(3) -0.1114(4)
H14 H 0.7052 -0.0890 -0.1074
C23 C 0.7520(4) -0.0667(4) -0.1465(3)
H15 H 0.7382 -0.0806 -0.1666
C24 C 0.7942(4) -0.0403(3) -0.1521(3)
H16 H 0.8081 -0.0367 -0.1762
O1 O 0.7715(2) 0.04299(15) 0.09029(15)
O2 O 0.7392(3) -0.01499(15) 0.04280(17)
O3 O 0.8809(2) 0.04808(19) -0.01256(17)
O4 O 0.8004(3) -0.00581(17) -0.02435(17)
O5 O 0.7243(3) 0.06029(19) 0.01976(18)
O6 O 0.7760(3) 0.0730(2) -0.02612(18)
O7 O 0.6983(4) 0.0985(2) -0.0232(2)
O8 O 0.8289(3) 0.09657(17) 0.04190(18)
O9 O 0.8833(3) 0.0586(3) 0.06913(19)
O10 O 0.8961(5) 0.1186(3) 0.0720(4)
O11 O 0.8423(5) -0.0182(3) 0.0785(3)
O12 O 0.8830(9) -0.0193(5) 0.0310(4)
O13 O 0.8985(12) -0.0607(7) 0.0717(5)
Tb1D Tb 0.437676(18) 0.028787(11) 0.218650(11)
N1D N 0.5835(3) 0.04490(16) 0.09363(16)
N2D N 0.5549(3) 0.00656(15) 0.15375(16)
N3D N 0.6368(3) -0.03733(16) 0.16669(18)
N4D N 0.3216(3) 0.0616(2) 0.35588(18)
N5D N 0.3920(3) 0.02141(18) 0.3198(2)
N6D N 0.4356(3) -0.0204(2) 0.3734(2)
N7D N 0.5179(3) 0.0779(2) 0.2606(2)
N8D N 0.3791(4) 0.0935(3) 0.1884(3)
N9D N 0.3729(12) -0.0320(6) 0.1895(6)
C1D C 0.5998(4) 0.0620(2) 0.0620(2)
H1D H 0.6332 0.0556 0.0520
C2D C 0.5683(5) 0.0893(3) 0.0433(3)
H2D H 0.5802 0.1005 0.0211
C3D C 0.5200(5) 0.0988(3) 0.0588(3)
H3D H 0.4985 0.1172 0.0475
C4D C 0.5032(4) 0.0810(3) 0.0914(3)
H4D H 0.4700 0.0871 0.1019
C5D C 0.5360(3) 0.0538(2) 0.1088(2)
C6D C 0.5198(3) 0.0335(2) 0.1431(2)
C7D C 0.5487(4) -0.0152(2) 0.1851(2)
C8D C 0.5957(4) -0.0406(2) 0.1916(2)
C9D C 0.5957(5) -0.0657(3) 0.2213(3)
H5D H 0.5663 -0.0677 0.2374
C10D C 0.6428(5) -0.0889(3) 0.2265(3)
H6D H 0.6450 -0.1058 0.2466
C11D C 0.6841(5) -0.0856(3) 0.2016(3)
H7D H 0.7151 -0.1002 0.2043
C12D C 0.6791(4) -0.0598(2) 0.1717(3)
H8D H 0.7071 -0.0584 0.1543
C13D C 0.2857(4) 0.0820(3) 0.3748(3)
H9D H 0.2844 0.0790 0.4009
C14D C 0.2506(5) 0.1072(3) 0.3587(3)
H10D H 0.2248 0.1198 0.3730
C15D C 0.2549(5) 0.1129(3) 0.3207(4)
H11D H 0.2339 0.1313 0.3091
C16D C 0.2896(4) 0.0919(3) 0.2994(3)
H12D H 0.2906 0.0944 0.2733
C17D C 0.3229(3) 0.0670(2) 0.3174(2)
C18D C 0.3634(4) 0.0438(3) 0.2971(3)
C19D C 0.4322(4) -0.0019(2) 0.3066(3)
C20D C 0.4560(4) -0.0260(3) 0.3374(3)
C21D C 0.4989(4) -0.0508(3) 0.3313(3)
H13D H 0.5143 -0.0534 0.3075
C22D C 0.5176(5) -0.0713(3) 0.3614(4)
H14D H 0.5448 -0.0890 0.3574
C23D C 0.4980(4) -0.0667(4) 0.3965(3)
H15D H 0.5118 -0.0806 0.4166
C24D C 0.4558(4) -0.0403(3) 0.4021(3)
H16D H 0.4419 -0.0367 0.4262
O1D O 0.4785(2) 0.04299(15) 0.15971(15)
O2D O 0.5108(3) -0.01499(15) 0.20720(17)
O3D O 0.3691(2) 0.04808(19) 0.26256(17)
O4D O 0.4496(3) -0.00581(17) 0.27435(17)
O5D O 0.5257(3) 0.06029(19) 0.23024(18)
O6D O 0.4740(3) 0.0730(2) 0.27612(18)
O7D O 0.5517(4) 0.0985(2) 0.2732(2)
O8D O 0.4211(3) 0.09657(17) 0.20810(18)
O9D O 0.3667(3) 0.0586(3) 0.18087(19)
O10D O 0.3539(5) 0.1186(3) 0.1780(4)
O11D O 0.4077(5) -0.0182(3) 0.1715(3)
O12D O 0.3670(9) -0.0193(5) 0.2190(4)
O13D O 0.3515(12) -0.0607(7) 0.1783(5)
Ni2C Ni 0.3750 0.02104(4) 0.3750
N4H N 0.8216(3) 0.0616(2) -0.14412(18)
N5H N 0.8920(3) 0.02141(18) -0.1802(2)
N6H N 0.9356(3) -0.0204(2) -0.1266(2)
O14 O 0.6633(7) 0.1799(5) 0.9256(5)
O15 O 0.6555(6) 0.0142(4) 0.9479(5)
O16 O 0.8750 0.8750 0.8257(5)
O17 O 0.8028(8) 0.9926(6) 0.2021(6)
O18 O 0.8702(13) 0.9019(5) 0.9853(7)
O19 O 0.9496(10) 0.8787(7) 0.7769(6)
O20 O 0.9870(12) 0.9830(6) 0.9857(8)
loop_
_geom_bond_atom_site_label_1
_geom_bond_atom_site_label_2
_geom_bond_site_symmetry_1
_geom_bond_site_symmetry_2
Tb1 O1 1_555 1_555
Ni1 N1 1_555 1_555
Ni2 N4 1_555 1_555
N1 C1 1_555 1_555
N2 Ni1 1_555 1_555
N3 Ni1 1_555 1_555
N4 C13 1_555 1_555
N5 Ni2 1_555 1_555
N6 Ni2 1_555 1_555
N7 O5 1_555 1_555
N8 O8 1_555 1_555
N9 O11 1_555 1_555
C1 H1 1_555 1_555
C2 C1 1_555 1_555
H2 C2 1_555 1_555
C3 C2 1_555 1_555
H3 C3 1_555 1_555
C4 C3 1_555 1_555
H4 C4 1_555 1_555
C5 N1 1_555 1_555
C6 N2 1_555 1_555
C7 N2 1_555 1_555
C8 N3 1_555 1_555
C9 C8 1_555 1_555
H5 C9 1_555 1_555
C10 C9 1_555 1_555
H6 C10 1_555 1_555
C11 C10 1_555 1_555
H7 C11 1_555 1_555
C12 N3 1_555 1_555
H8 C12 1_555 1_555
C13 H9 1_555 1_555
C14 C13 1_555 1_555
H10 C14 1_555 1_555
C15 C14 1_555 1_555
H11 C15 1_555 1_555
C16 C15 1_555 1_555
H12 C16 1_555 1_555
C17 N4 1_555 1_555
C18 N5 1_555 1_555
C19 N5 1_555 1_555
C20 N6 1_555 1_555
C21 C20 1_555 1_555
H13 C21 1_555 1_555
C22 C21 1_555 1_555
H14 C22 1_555 1_555
C23 C22 1_555 1_555
H15 C23 1_555 1_555
C24 N6 1_555 1_555
H16 C24 1_555 1_555
O1 C6 1_555 1_555
O2 Tb1 1_555 1_555
O3 Tb1 1_555 1_555
O4 Tb1 1_555 1_555
O5 Tb1 1_555 1_555
O6 Tb1 1_555 1_555
O7 N7 1_555 1_555
O8 Tb1 1_555 1_555
O9 Tb1 1_555 1_555
O10 N8 1_555 1_555
O11 Tb1 1_555 1_555
O12 Tb1 1_555 1_555
O13 N9 1_555 1_555
Tb1D O1D 1_555 1_555
N1D Ni1 1_555 1_555
N2D Ni1 1_555 1_555
N3D Ni1 1_555 1_555
N4D C13D 1_555 1_555
N5D C18D 1_555 1_555
N6D C20D 1_555 1_555
N7D O5D 1_555 1_555
N8D O8D 1_555 1_555
N9D O11D 1_555 1_555
C1D N1D 1_555 1_555
H1D C1D 1_555 1_555
C2D C1D 1_555 1_555
H2D C2D 1_555 1_555
C3D C2D 1_555 1_555
H3D C3D 1_555 1_555
C4D C3D 1_555 1_555
H4D C4D 1_555 1_555
C5D N1D 1_555 1_555
C6D N2D 1_555 1_555
C7D N2D 1_555 1_555
C8D N3D 1_555 1_555
C9D C8D 1_555 1_555
H5D C9D 1_555 1_555
C10D C9D 1_555 1_555
H6D C10D 1_555 1_555
C11D C10D 1_555 1_555
H7D C11D 1_555 1_555
C12D N3D 1_555 1_555
H8D C12D 1_555 1_555
C13D H9D 1_555 1_555
C14D C13D 1_555 1_555
H10D C14D 1_555 1_555
C15D C14D 1_555 1_555
H11D C15D 1_555 1_555
C16D C15D 1_555 1_555
H12D C16D 1_555 1_555
C17D N4D 1_555 1_555
C18D C17D 1_555 1_555
C19D N5D 1_555 1_555
C20D C19D 1_555 1_555
C21D C20D 1_555 1_555
H13D C21D 1_555 1_555
C22D C21D 1_555 1_555
H14D C22D 1_555 1_555
C23D C22D 1_555 1_555
H15D C23D 1_555 1_555
C24D N6D 1_555 1_555
H16D C24D 1_555 1_555
O1D C6D 1_555 1_555
O2D Tb1D 1_555 1_555
O3D Tb1D 1_555 1_555
O4D Tb1D 1_555 1_555
O5D Tb1D 1_555 1_555
O6D Tb1D 1_555 1_555
O7D N7D 1_555 1_555
O8D Tb1D 1_555 1_555
O9D Tb1D 1_555 1_555
O10D N8D 1_555 1_555
O11D Tb1D 1_555 1_555
O12D Tb1D 1_555 1_555
O13D N9D 1_555 1_555
Ni2C N4D 1_555 1_555
N4H Ni2 1_555 1_555
N5H Ni2 1_555 1_555
N6H Ni2 1_555 1_555
N7 O6 1_555 1_555
N8 O9 1_555 1_555
N9 O12 1_555 1_555
C4 C5 1_555 1_555
C5 C6 1_555 1_555
C7 C8 1_555 1_555
C7 O2 1_555 1_555
C11 C12 1_555 1_555
C16 C17 1_555 1_555
C17 C18 1_555 1_555
C18 O3 1_555 1_555
C19 C20 1_555 1_555
C19 O4 1_555 1_555
C23 C24 1_555 1_555
N5D Ni2C 1_555 1_555
N6D Ni2C 1_555 1_555
N7D O6D 1_555 1_555
N8D O9D 1_555 1_555
N9D O12D 1_555 1_555
C4D C5D 1_555 1_555
C5D C6D 1_555 1_555
C7D C8D 1_555 1_555
C7D O2D 1_555 1_555
C11D C12D 1_555 1_555
C16D C17D 1_555 1_555
C18D O3D 1_555 1_555
C19D O4D 1_555 1_555
C23D C24D 1_555 1_555

#END
