
#######################################################################
#
#                 Cambridge Crystallographic Data Centre
#                                CCDC 
#
#######################################################################
#
# If this CIF has been generated from an entry in the Cambridge 
# Structural Database, then it will include bibliographic, chemical, 
# crystal, experimental, refinement or atomic coordinate data resulting 
# from the CCDC's data processing and validation procedures.
#
#######################################################################

data_AFUMCO05
_symmetry_cell_setting           monoclinic
_symmetry_space_group_name_H-M   'C 2/c'
_symmetry_Int_Tables_number      15
_space_group_name_Hall           '-C 2yn'
loop_
_symmetry_equiv_pos_site_id
_symmetry_equiv_pos_as_xyz
1 x,y,z
2 1/2+x,1/2+y,z
3 -x,y,1/2-z
4 1/2-x,1/2+y,1/2-z
5 -x,-y,-z
6 1/2-x,1/2-y,-z
7 x,-y,1/2+z
8 1/2+x,1/2-y,1/2+z
_cell_length_a                   5.2931(9)
_cell_length_b                   13.209(2)
_cell_length_c                   13.346(2)
_cell_angle_alpha                90
_cell_angle_beta                 95.260(3)
_cell_angle_gamma                90
_cell_volume                     929.177
loop_
_atom_site_label
_atom_site_type_symbol
_atom_site_fract_x
_atom_site_fract_y
_atom_site_fract_z
Co1 Co 0.5000 0.48150(2) 0.2500
O1 O 0.3922(2) 0.62108(11) 0.46217(9)
O2 O 0.7958(3) 0.47522(11) 0.15842(12)
O3 O 0.2941(2) 0.37193(10) 0.15862(10)
O4 O 0.6672(2) 0.59155(10) 0.34806(10)
C1 C 0.5982(3) 0.63581(12) 0.42575(12)
C2 C 0.7841(3) 0.71113(13) 0.47318(12)
H1 H 0.324(5) 0.315(2) 0.180(2)
H2 H 0.340(6) 0.378(2) 0.100(2)
H3 H 0.921(6) 0.452(2) 0.158(2)
H4 H 0.784(7) 0.522(2) 0.122(3)
H5 H 0.957(5) 0.700(2) 0.4666(18)
Co1E Co 1.0000 1.01850(2) 0.7500
O1E O 1.1078(2) 0.87892(11) 0.53783(9)
O2B O 0.2042(3) 0.47522(11) 0.34158(12)
O3B O 0.7059(2) 0.37193(10) 0.34138(10)
O4E O 0.8328(2) 0.90845(10) 0.65194(10)
O4B O 0.3328(2) 0.59155(10) 0.15194(10)
C1E C 0.9018(3) 0.86419(12) 0.57425(12)
C2E C 0.7159(3) 0.78887(13) 0.52682(12)
H1B H 0.676(5) 0.315(2) 0.320(2)
H2B H 0.660(6) 0.378(2) 0.400(2)
H3B H 0.079(6) 0.452(2) 0.342(2)
H4B H 0.216(7) 0.522(2) 0.378(3)
H5E H 0.543(5) 0.800(2) 0.5334(18)
O5 O 1.0000 0.70354(14) 0.2500
H6 H 0.913(5) 0.666(2) 0.2792(19)
H6B H 1.087(5) 0.666(2) 0.2208(19)
loop_
_geom_bond_atom_site_label_1
_geom_bond_atom_site_label_2
_geom_bond_site_symmetry_1
_geom_bond_site_symmetry_2
Co1 O2 1_555 1_555
O1 C1 1_555 1_555
O2 H3 1_555 1_555
O3 Co1 1_555 1_555
O4 Co1 1_555 1_555
C1 O4 1_555 1_555
C2 C1 1_555 1_555
H1 O3 1_555 1_555
H2 O3 1_555 1_555
H4 O2 1_555 1_555
H5 C2 1_555 1_555
O5 H6 1_555 1_555
Co1E O4E 1_555 1_555
O1E C1E 1_555 1_555
O2B Co1 1_555 1_555
O3B Co1 1_555 1_555
O4E C1E 1_555 1_555
O4B Co1 1_555 1_555
C1E C2E 1_555 1_555
C2E C2 1_555 1_555
H1B O3B 1_555 1_555
H2B O3B 1_555 1_555
H3B O2B 1_555 1_555
H4B O2B 1_555 1_555
H5E C2E 1_555 1_555
H6B O5 1_555 1_555

#END
