
#######################################################################
#
#                 Cambridge Crystallographic Data Centre
#                                CCDC 
#
#######################################################################
#
# If this CIF has been generated from an entry in the Cambridge 
# Structural Database, then it will include bibliographic, chemical, 
# crystal, experimental, refinement or atomic coordinate data resulting 
# from the CCDC's data processing and validation procedures.
#
#######################################################################

data_AFUPOH
_symmetry_cell_setting           monoclinic
_symmetry_space_group_name_H-M   'P 21/c'
_symmetry_Int_Tables_number      14
_space_group_name_Hall           '-P 2ybc'
loop_
_symmetry_equiv_pos_site_id
_symmetry_equiv_pos_as_xyz
1 x,y,z
2 -x,1/2+y,1/2-z
3 -x,-y,-z
4 x,1/2-y,1/2+z
_cell_length_a                   10.235(2)
_cell_length_b                   8.9134(19)
_cell_length_c                   20.466(4)
_cell_angle_alpha                90
_cell_angle_beta                 99.820(3)
_cell_angle_gamma                90
_cell_volume                     1839.73
loop_
_atom_site_label
_atom_site_type_symbol
_atom_site_fract_x
_atom_site_fract_y
_atom_site_fract_z
Mn1 Mn 0.69446(3) 0.43839(4) 0.108130(16)
N1 N 0.88033(17) 0.3122(2) 0.14924(9)
N2 N 0.80135(18) 0.3938(2) 0.02146(9)
O1 O 0.75979(15) 0.67844(18) 0.12865(8)
O2 O 0.57735(15) 0.63227(17) 0.05933(7)
O3 O 0.37105(16) 0.9262(2) 0.29997(8)
O4 O 0.57944(18) 0.8553(3) 0.33483(9)
O5 O 0.54022(17) 0.28524(19) 0.06493(10)
C1 C 0.6124(2) 0.8869(3) 0.09585(11)
C2 C 0.6967(2) 0.9773(3) 0.15139(12)
C3 C 0.6676(2) 0.9364(3) 0.21954(12)
C4 C 0.5209(2) 0.9491(3) 0.22376(11)
C5 C 0.4383(2) 0.8555(3) 0.16895(11)
C6 C 0.4652(2) 0.9024(3) 0.10071(11)
C7 C 0.6533(2) 0.7231(2) 0.09498(10)
C8 C 0.4903(2) 0.9061(3) 0.29169(11)
C9 C 0.9191(3) 0.2734(3) 0.21226(12)
C10 C 1.0330(3) 0.1902(3) 0.23400(14)
C11 C 1.1089(3) 0.1454(3) 0.18968(15)
C12 C 1.0718(2) 0.1825(3) 0.12219(13)
C13 C 0.9560(2) 0.2671(2) 0.10459(11)
C14 C 0.9139(2) 0.3107(2) 0.03617(11)
C15 C 0.9885(2) 0.2669(3) -0.01164(13)
C16 C 0.9449(3) 0.3158(4) -0.07708(14)
C17 C 0.8334(3) 0.3998(4) -0.09147(13)
C18 C 0.7634(3) 0.4359(3) -0.04116(12)
C19 C 1.1442(3) 0.1385(4) 0.07141(17)
C20 C 1.1044(3) 0.1779(4) 0.00825(18)
H1 H 0.505(3) 0.308(3) 0.0260(16)
H2 H 0.489(3) 0.299(4) 0.0959(18)
H3 H 0.627(2) 0.927(2) 0.0543(11)
H4 H 0.789(2) 0.964(2) 0.1497(11)
H5 H 0.679(2) 1.083(3) 0.1452(12)
H6 H 0.695(2) 0.832(3) 0.2307(12)
H7 H 0.718(3) 1.003(3) 0.2515(14)
H8 H 0.490(2) 1.054(2) 0.2145(10)
H9 H 0.347(3) 0.867(3) 0.1703(11)
H10 H 0.462(2) 0.752(3) 0.1767(10)
H11 H 0.415(2) 0.843(3) 0.0683(11)
H12 H 0.442(2) 1.008(3) 0.0935(10)
H13 H 0.864(2) 0.303(3) 0.2432(12)
H14 H 1.055(3) 0.161(3) 0.2789(15)
H15 H 1.186(3) 0.089(3) 0.2039(14)
H16 H 0.995(3) 0.290(3) -0.1104(15)
H17 H 0.803(3) 0.435(3) -0.1328(15)
H18 H 0.686(3) 0.492(3) -0.0527(13)
H19 H 1.220(3) 0.085(3) 0.0844(15)
H20 H 1.147(3) 0.146(4) -0.0253(16)
Mn1A Mn 0.30554(3) 0.93839(4) 0.391870(16)
O3A O 0.62895(16) 0.4262(2) 0.20003(8)
loop_
_geom_bond_atom_site_label_1
_geom_bond_atom_site_label_2
_geom_bond_site_symmetry_1
_geom_bond_site_symmetry_2
Mn1 N1 1_555 1_555
N1 C9 1_555 1_555
N2 Mn1 1_555 1_555
O1 Mn1 1_555 1_555
O2 Mn1 1_555 1_555
O3 C8 1_555 1_555
O4 C8 1_555 1_555
O5 Mn1 1_555 1_555
C1 C2 1_555 1_555
C2 C3 1_555 1_555
C3 C4 1_555 1_555
C4 C5 1_555 1_555
C5 C6 1_555 1_555
C6 C1 1_555 1_555
C7 O1 1_555 1_555
C8 C4 1_555 1_555
C9 C10 1_555 1_555
C10 C11 1_555 1_555
C11 C12 1_555 1_555
C12 C13 1_555 1_555
C13 N1 1_555 1_555
C14 N2 1_555 1_555
C15 C14 1_555 1_555
C16 C15 1_555 1_555
C17 C16 1_555 1_555
C18 N2 1_555 1_555
C19 C12 1_555 1_555
C20 C15 1_555 1_555
H1 O5 1_555 1_555
H2 O5 1_555 1_555
H3 C1 1_555 1_555
H4 C2 1_555 1_555
H5 C2 1_555 1_555
H6 C3 1_555 1_555
H7 C3 1_555 1_555
H8 C4 1_555 1_555
H9 C5 1_555 1_555
H10 C5 1_555 1_555
H11 C6 1_555 1_555
H12 C6 1_555 1_555
H13 C9 1_555 1_555
H14 C10 1_555 1_555
H15 C11 1_555 1_555
H16 C16 1_555 1_555
H17 C17 1_555 1_555
H18 C18 1_555 1_555
H19 C19 1_555 1_555
H20 C20 1_555 1_555
Mn1A O3 1_555 1_555
O3A Mn1 1_555 1_555
O2 C7 1_555 1_555
C1 C7 1_555 1_555
C13 C14 1_555 1_555
C17 C18 1_555 1_555
C19 C20 1_555 1_555

#END
