
#######################################################################
#
#                 Cambridge Crystallographic Data Centre
#                                CCDC 
#
#######################################################################
#
# If this CIF has been generated from an entry in the Cambridge 
# Structural Database, then it will include bibliographic, chemical, 
# crystal, experimental, refinement or atomic coordinate data resulting 
# from the CCDC's data processing and validation procedures.
#
#######################################################################

data_AFUREY
_symmetry_cell_setting           monoclinic
_symmetry_space_group_name_H-M   'P 21/n'
_symmetry_Int_Tables_number      14
_space_group_name_Hall           '-P 2yn'
loop_
_symmetry_equiv_pos_site_id
_symmetry_equiv_pos_as_xyz
1 x,y,z
2 1/2+x,1/2-y,1/2+z
3 -x,-y,-z
4 1/2-x,1/2+y,1/2-z
_cell_length_a                   13.389(3)
_cell_length_b                   7.1460(10)
_cell_length_c                   19.473(4)
_cell_angle_alpha                90
_cell_angle_beta                 108.57(3)
_cell_angle_gamma                90
_cell_volume                     1766.13
loop_
_atom_site_label
_atom_site_type_symbol
_atom_site_fract_x
_atom_site_fract_y
_atom_site_fract_z
Cu1 Cu 0.05749(2) 0.25642(4) -0.002988(16)
Cl1 Cl -0.02626(5) 0.38933(8) 0.07084(3)
Cl2 Cl -0.09005(5) 0.11279(8) -0.07628(3)
N1 N 0.24472(18) -0.0206(3) -0.10037(12)
N2 N 0.2401(3) 0.1468(5) -0.1318(2)
N3 N 0.1767(3) 0.2503(4) -0.1106(2)
N4 N 0.14145(17) 0.1527(3) -0.06431(12)
C1 C 0.1820(2) -0.0130(4) -0.06019(15)
H1 H 0.171(2) -0.109(4) -0.0339(17)
C2 C 0.3108(3) -0.1769(5) -0.11317(18)
C3 C 0.2430(5) -0.2853(8) -0.1790(3)
H2 H 0.2278 -0.2079 -0.2214
H3 H 0.1783 -0.3219 -0.1715
H4 H 0.2805 -0.3948 -0.1855
C4 C 0.3320(5) -0.3109(8) -0.0510(3)
H5 H 0.3742 -0.4124 -0.0586
H6 H 0.2666 -0.3590 -0.0480
H7 H 0.3690 -0.2478 -0.0066
C5 C 0.4039(5) -0.0997(8) -0.1233(6)
H8 H 0.3852 -0.0089 -0.1616
H9 H 0.4433 -0.1991 -0.1356
H10 H 0.4461 -0.0410 -0.0792
N5 N 0.32155(16) 0.4826(3) 0.14838(11)
N6 N 0.3659(2) 0.3454(6) 0.1223(2)
N7 N 0.2924(2) 0.2610(5) 0.0730(2)
N8 N 0.19883(15) 0.3401(3) 0.06717(11)
C6 C 0.21956(19) 0.4765(4) 0.11367(13)
H11 H 0.170(2) 0.561(4) 0.1207(16)
C7 C 0.3849(2) 0.6152(5) 0.20485(15)
C8 C 0.3153(3) 0.6863(6) 0.24776(18)
H12 H 0.2547 0.7483 0.2157
H13 H 0.3547 0.7729 0.2840
H14 H 0.2929 0.5830 0.2707
C9 C 0.4181(5) 0.7741(8) 0.1665(3)
H15 H 0.4609 0.7265 0.1392
H16 H 0.4581 0.8627 0.2017
H17 H 0.3570 0.8346 0.1344
C10 C 0.4769(3) 0.5074(7) 0.2558(2)
H18 H 0.4502 0.4048 0.2766
H19 H 0.5175 0.5887 0.2936
H20 H 0.5207 0.4602 0.2291
Cl1B Cl 0.02626(5) 0.61067(8) -0.07084(3)
Cl2B Cl 0.09005(5) -0.11279(8) 0.07628(3)
Cu1B Cu -0.05749(2) 0.74358(4) 0.002988(16)
Cu1B_2 Cu -0.05749(2) -0.25642(4) 0.002988(16)
loop_
_geom_bond_atom_site_label_1
_geom_bond_atom_site_label_2
_geom_bond_site_symmetry_1
_geom_bond_site_symmetry_2
Cu1 Cl1 1_555 1_555
Cl1 Cu1B 1_555 1_555
Cl2 Cu1 1_555 1_555
N1 N2 1_555 1_555
N2 N3 1_555 1_555
N3 N4 1_555 1_555
N4 Cu1 1_555 1_555
C1 N1 1_555 1_555
H1 C1 1_555 1_555
C2 N1 1_555 1_555
C3 C2 1_555 1_555
H2 C3 1_555 1_555
H3 C3 1_555 1_555
H4 C3 1_555 1_555
C4 C2 1_555 1_555
H5 C4 1_555 1_555
H6 C4 1_555 1_555
H7 C4 1_555 1_555
C5 C2 1_555 1_555
H8 C5 1_555 1_555
H9 C5 1_555 1_555
H10 C5 1_555 1_555
N5 N6 1_555 1_555
N6 N7 1_555 1_555
N7 N8 1_555 1_555
N8 Cu1 1_555 1_555
C6 N5 1_555 1_555
H11 C6 1_555 1_555
C7 N5 1_555 1_555
C8 C7 1_555 1_555
H12 C8 1_555 1_555
H13 C8 1_555 1_555
H14 C8 1_555 1_555
C9 C7 1_555 1_555
H15 C9 1_555 1_555
H16 C9 1_555 1_555
H17 C9 1_555 1_555
C10 C7 1_555 1_555
H18 C10 1_555 1_555
H19 C10 1_555 1_555
H20 C10 1_555 1_555
Cl1B Cu1 1_555 1_555
Cl2B Cu1 1_555 1_555
Cu1B Cl1B 1_555 1_555
Cu1B_2 Cl2 1_555 1_555
N4 C1 1_555 1_555
N8 C6 1_555 1_555
Cl2B Cu1B_2 1_555 1_555

#END
