
#######################################################################
#
#                 Cambridge Crystallographic Data Centre
#                                CCDC 
#
#######################################################################
#
# If this CIF has been generated from an entry in the Cambridge 
# Structural Database, then it will include bibliographic, chemical, 
# crystal, experimental, refinement or atomic coordinate data resulting 
# from the CCDC's data processing and validation procedures.
#
#######################################################################

data_AFUXAC
_symmetry_cell_setting           triclinic
_symmetry_space_group_name_H-M   'P -1'
_symmetry_Int_Tables_number      2
_space_group_name_Hall           '-P 1'
loop_
_symmetry_equiv_pos_site_id
_symmetry_equiv_pos_as_xyz
1 x,y,z
2 -x,-y,-z
_cell_length_a                   9.7556(5)
_cell_length_b                   11.3298(6)
_cell_length_c                   12.0571(6)
_cell_angle_alpha                73.1870(10)
_cell_angle_beta                 87.0820(10)
_cell_angle_gamma                79.8410(10)
_cell_volume                     1255.69
loop_
_atom_site_label
_atom_site_type_symbol
_atom_site_fract_x
_atom_site_fract_y
_atom_site_fract_z
Sn1 Sn 1.118867(13) 0.216792(11) 0.364576(10)
O1 O 0.91398(14) 0.21171(14) 0.43008(12)
O2 O 0.82580(15) 0.29679(14) 0.25203(12)
O3 O 0.36940(15) 0.25668(14) 0.28265(12)
O4 O 0.54744(17) 0.37815(17) -0.35968(13)
N1 N 0.56244(18) 0.31413(16) 0.18064(15)
C1 C 1.2068(2) 0.12405(18) 0.53210(17)
C2 C 1.1190(2) 0.09341(19) 0.62727(18)
C3 C 1.1730(2) 0.0327(2) 0.73784(18)
C4 C 1.3154(2) 0.0025(2) 0.75508(18)
C5 C 1.4035(2) 0.0305(2) 0.6616(2)
C6 C 1.3499(2) 0.0898(2) 0.55069(19)
C7 C 1.1471(2) 0.10390(19) 0.24991(17)
C8 C 1.0993(2) 0.1477(2) 0.13559(19)
C9 C 1.1310(3) 0.0744(2) 0.0605(2)
C10 C 1.2088(2) -0.0445(2) 0.0984(2)
C11 C 1.2536(2) -0.0907(2) 0.2129(2)
C12 C 1.2232(2) -0.0165(2) 0.28751(19)
C13 C 1.0903(2) 0.41459(18) 0.30166(17)
C14 C 1.0550(2) 0.4792(2) 0.18678(19)
C15 C 1.0324(2) 0.6089(2) 0.15076(19)
C16 C 1.0452(2) 0.6755(2) 0.2282(2)
C17 C 1.0806(2) 0.6130(2) 0.3421(2)
C18 C 1.1028(2) 0.4831(2) 0.37833(19)
C19 C 0.8119(2) 0.26463(19) 0.35832(18)
C20 C 0.6763(2) 0.2894(2) 0.41850(18)
C21 C 0.5453(2) 0.3011(2) 0.38405(18)
C22 C 0.4852(2) 0.28728(18) 0.27760(17)
C23 C 0.5275(2) 0.32237(19) 0.06658(17)
C24 C 0.4041(2) 0.2941(2) 0.0351(2)
C25 C 0.3785(2) 0.3122(2) -0.0815(2)
C26 C 0.4739(2) 0.35404(19) -0.16698(18)
C27 C 0.5990(2) 0.3783(2) -0.13311(18)
C28 C 0.6248(2) 0.36391(19) -0.01899(19)
C29 C 0.4505(2) 0.3716(2) -0.29234(18)
C30 C 0.3051(3) 0.3806(3) -0.3335(2)
H1 H 1.023(3) 0.112(2) 0.618(2)
H2 H 1.112(3) 0.013(3) 0.798(2)
H3 H 1.354(3) -0.036(3) 0.826(3)
H4 H 1.498(3) 0.004(3) 0.672(2)
H5 H 1.409(3) 0.107(2) 0.489(2)
H6 H 1.047(3) 0.227(3) 0.113(2)
H7 H 1.104(3) 0.105(3) -0.011(3)
H8 H 1.228(3) -0.092(3) 0.049(2)
H9 H 1.304(3) -0.170(3) 0.240(2)
H10 H 1.254(3) -0.046(2) 0.357(2)
H11 H 1.045(3) 0.436(3) 0.132(2)
H12 H 1.010(3) 0.650(3) 0.075(2)
H13 H 1.032(3) 0.756(2) 0.206(2)
H14 H 1.085(3) 0.654(3) 0.393(2)
H15 H 1.127(3) 0.442(2) 0.453(2)
H16 H 0.688(3) 0.302(2) 0.489(2)
H17 H 0.476(3) 0.319(2) 0.437(2)
H18 H 0.339(3) 0.263(3) 0.091(3)
H19 H 0.301(3) 0.293(3) -0.103(2)
H20 H 0.663(3) 0.408(3) -0.188(2)
H21 H 0.711(3) 0.385(3) 0.001(2)
H22 H 0.303(3) 0.410(3) -0.412(3)
H23 H 0.244(3) 0.434(3) -0.300(2)
H24 H 0.282(3) 0.301(3) -0.315(3)
H25 H 0.647(3) 0.326(2) 0.188(2)
Sn1_2 Sn 0.118867(13) 0.216792(11) 0.364576(10)
O3_2 O 1.36940(15) 0.25668(14) 0.28265(12)
loop_
_geom_bond_atom_site_label_1
_geom_bond_atom_site_label_2
_geom_bond_site_symmetry_1
_geom_bond_site_symmetry_2
Sn1 O1 1_555 1_555
O1 C19 1_555 1_555
O2 C19 1_555 1_555
O3 C22 1_555 1_555
O4 C29 1_555 1_555
N1 C22 1_555 1_555
C1 Sn1 1_555 1_555
C2 C1 1_555 1_555
C3 C2 1_555 1_555
C4 C3 1_555 1_555
C5 C4 1_555 1_555
C6 C1 1_555 1_555
C7 Sn1 1_555 1_555
C8 C7 1_555 1_555
C9 C8 1_555 1_555
C10 C9 1_555 1_555
C11 C10 1_555 1_555
C12 C7 1_555 1_555
C13 Sn1 1_555 1_555
C14 C13 1_555 1_555
C15 C14 1_555 1_555
C16 C15 1_555 1_555
C17 C16 1_555 1_555
C18 C13 1_555 1_555
C19 C20 1_555 1_555
C20 C21 1_555 1_555
C21 C22 1_555 1_555
C23 N1 1_555 1_555
C24 C23 1_555 1_555
C25 C24 1_555 1_555
C26 C25 1_555 1_555
C27 C26 1_555 1_555
C28 C23 1_555 1_555
C29 C26 1_555 1_555
C30 C29 1_555 1_555
H1 C2 1_555 1_555
H2 C3 1_555 1_555
H3 C4 1_555 1_555
H4 C5 1_555 1_555
H5 C6 1_555 1_555
H6 C8 1_555 1_555
H7 C9 1_555 1_555
H8 C10 1_555 1_555
H9 C11 1_555 1_555
H10 C12 1_555 1_555
H11 C14 1_555 1_555
H12 C15 1_555 1_555
H13 C16 1_555 1_555
H14 C17 1_555 1_555
H15 C18 1_555 1_555
H16 C20 1_555 1_555
H17 C21 1_555 1_555
H18 C24 1_555 1_555
H19 C25 1_555 1_555
H20 C27 1_555 1_555
H21 C28 1_555 1_555
H22 C30 1_555 1_555
H23 C30 1_555 1_555
H24 C30 1_555 1_555
H25 N1 1_555 1_555
Sn1_2 O3 1_555 1_555
O3_2 Sn1 1_555 1_555
C5 C6 1_555 1_555
C11 C12 1_555 1_555
C17 C18 1_555 1_555
C27 C28 1_555 1_555

#END
