
#######################################################################
#
#                 Cambridge Crystallographic Data Centre
#                                CCDC 
#
#######################################################################
#
# If this CIF has been generated from an entry in the Cambridge 
# Structural Database, then it will include bibliographic, chemical, 
# crystal, experimental, refinement or atomic coordinate data resulting 
# from the CCDC's data processing and validation procedures.
#
#######################################################################

data_AGACIW01
_symmetry_cell_setting           triclinic
_symmetry_space_group_name_H-M   'P -1'
_symmetry_Int_Tables_number      2
_space_group_name_Hall           '-P 1'
loop_
_symmetry_equiv_pos_site_id
_symmetry_equiv_pos_as_xyz
1 x,y,z
2 -x,-y,-z
_cell_length_a                   6.9661(16)
_cell_length_b                   9.843(3)
_cell_length_c                   11.215(3)
_cell_angle_alpha                103.93(3)
_cell_angle_beta                 105.94(3)
_cell_angle_gamma                106.35(3)
_cell_volume                     666.028
loop_
_atom_site_label
_atom_site_type_symbol
_atom_site_fract_x
_atom_site_fract_y
_atom_site_fract_z
P1 P 0.191460(5) 0.368711(4) 0.291180(3)
Na1 Na 0.755796(10) 1.411597(7) 0.392625(7)
O1 O 0.53047(3) 1.112735(17) 0.186336(17)
O2 O 0.66604(3) 1.152126(15) 0.395136(15)
O3 O -0.28467(4) -0.464995(19) 0.15570(2)
O4 O -0.14141(3) -0.347644(19) 0.366755(18)
O5 O 0.18913(2) 0.451162(12) 0.181326(10)
O6 O 0.025099(19) 0.206321(11) 0.179933(10)
O7 O 0.404652(19) 0.362255(14) 0.349140(13)
O8 O 0.086597(18) 0.427658(13) 0.379199(11)
N1 N 0.556985(18) 1.067436(12) 0.279996(11)
N2 N -0.18547(2) -0.349160(13) 0.252113(13)
C1 C 0.28339(2) 0.602920(12) 0.212025(11)
C2 C 0.24913(2) 0.655591(14) 0.105538(12)
C3 C 0.33688(2) 0.808379(14) 0.126683(12)
C4 C 0.45927(2) 0.906969(13) 0.255540(11)
C5 C 0.49672(2) 0.856008(13) 0.362038(11)
C6 C 0.40926(2) 0.702930(13) 0.340909(11)
C7 C -0.014377(19) 0.073253(12) 0.202811(11)
C8 C -0.14113(2) -0.057336(13) 0.092193(11)
C9 C -0.19464(2) -0.198110(14) 0.106107(12)
C10 C -0.12017(2) -0.204945(13) 0.232229(12)
C11 C 0.00768(2) -0.076736(14) 0.342940(12)
C12 C 0.06147(2) 0.063937(13) 0.328780(12)
H1 H 0.158632 0.576755 0.004751
H2 H 0.312482 0.852672 0.045853
H3 H 0.598352 0.932411 0.462366
H4 H 0.438228 0.661117 0.423149
H5 H -0.196138 -0.042567 -0.002954
H6 H -0.29389 -0.297427 0.018088
H7 H 0.059425 -0.091934 0.438141
H8 H 0.153966 0.166122 0.415132
Na1_2 Na -0.244204(10) -0.588403(7) 0.392625(7)
Na1_3 Na -0.244204(10) 0.411597(7) 0.392625(7)
Na1_4 Na 0.755796(10) 0.411597(7) 0.392625(7)
Na1A Na 0.244204(10) 0.588403(7) 0.607375(7)
O4_2 O 0.85859(3) 1.652356(19) 0.366755(18)
O7_2 O 0.404652(19) 1.362255(14) 0.349140(13)
O8_2 O 1.086597(18) 1.427658(13) 0.379199(11)
O8A O 0.913403(18) 1.572342(13) 0.620801(11)
loop_
_geom_bond_atom_site_label_1
_geom_bond_atom_site_label_2
_geom_bond_site_symmetry_1
_geom_bond_site_symmetry_2
P1 O5 1_555 1_555
Na1 O1 1_555 1_555
O1 N1 1_555 1_555
O2 Na1 1_555 1_555
O3 N2 1_555 1_555
O4 N2 1_555 1_555
O5 C1 1_555 1_555
O6 P1 1_555 1_555
O7 P1 1_555 1_555
O8 P1 1_555 1_555
N1 O2 1_555 1_555
N2 C10 1_555 1_555
C1 C2 1_555 1_555
C2 C3 1_555 1_555
C3 C4 1_555 1_555
C4 N1 1_555 1_555
C5 C4 1_555 1_555
C6 C1 1_555 1_555
C7 O6 1_555 1_555
C8 C7 1_555 1_555
C9 C8 1_555 1_555
C10 C9 1_555 1_555
C11 C10 1_555 1_555
C12 C7 1_555 1_555
H1 C2 1_555 1_555
H2 C3 1_555 1_555
H3 C5 1_555 1_555
H4 C6 1_555 1_555
H5 C8 1_555 1_555
H6 C9 1_555 1_555
H7 C11 1_555 1_555
H8 C12 1_555 1_555
Na1_2 O4 1_555 1_555
Na1_3 O8 1_555 1_555
Na1_4 O7 1_555 1_555
Na1A O8 1_555 1_555
O4_2 Na1 1_555 1_555
O7_2 Na1 1_555 1_555
O8_2 Na1 1_555 1_555
O8A Na1 1_555 1_555
C5 C6 1_555 1_555
C11 C12 1_555 1_555

#END
