
#######################################################################
#
#                 Cambridge Crystallographic Data Centre
#                                CCDC 
#
#######################################################################
#
# If this CIF has been generated from an entry in the Cambridge 
# Structural Database, then it will include bibliographic, chemical, 
# crystal, experimental, refinement or atomic coordinate data resulting 
# from the CCDC's data processing and validation procedures.
#
#######################################################################

data_AGADIW
_symmetry_cell_setting           orthorhombic
_symmetry_space_group_name_H-M   'P 21 21 21'
_symmetry_Int_Tables_number      19
_space_group_name_Hall           'P 2ac 2ab'
loop_
_symmetry_equiv_pos_site_id
_symmetry_equiv_pos_as_xyz
1 x,y,z
2 1/2-x,-y,1/2+z
3 1/2+x,1/2-y,-z
4 -x,1/2+y,1/2-z
_cell_length_a                   28.69990
_cell_length_b                   11.13030
_cell_length_c                   17.45190
_cell_angle_alpha                90
_cell_angle_beta                 90
_cell_angle_gamma                90
_cell_volume                     5574.81
loop_
_atom_site_label
_atom_site_type_symbol
_atom_site_fract_x
_atom_site_fract_y
_atom_site_fract_z
Mn1 Mn 0.27352 0.68215 -0.02457
Mn2 Mn 0.25164 1.17883 0.14682
O1 O 0.21146 0.73121 -0.05207
O2 O 0.25192 0.68686 0.09820
O3 O 0.33699 0.62074 -0.00693
O4 O 0.19581 1.07985 0.11350
O5 O 0.33956 0.27142 0.11467
O6 O 0.22765 0.93684 -0.28516
N1 N 0.29120 0.68320 -0.14220
N2 N 0.27831 0.72861 -0.26286
N3 N 0.29650 0.85623 -0.00087
N4 N 0.34108 0.56508 0.06070
N5 N 0.25113 0.50413 -0.01083
N6 N 0.25234 0.31705 0.05385
N7 N 0.29167 1.05182 0.05781
N8 N 0.20700 0.82174 -0.10005
N9 N 0.20548 0.89285 -0.22010
N10 N 0.22648 0.77577 0.12175
N11 N 0.20009 0.96752 0.13401
N12 N 0.34658 0.38823 0.11179
C1 C 0.22577 0.81552 -0.17159
C2 C 0.15812 0.89040 -0.10754
C3 C 0.16942 0.97780 -0.18177
C4 C 0.12075 0.80020 -0.12323
C5 C 0.15359 0.96642 -0.04131
C6 C 0.19340 1.09747 -0.16413
C7 C 0.12847 0.99397 -0.23210
C8 C 0.26642 0.76094 -0.18819
C9 C 0.32866 0.62134 -0.18269
C10 C 0.31870 0.65661 -0.25604
C11 C 0.23538 0.89270 0.10061
C12 C 0.18657 0.77456 0.17940
C13 C 0.17220 0.90198 0.19009
C14 C 0.20652 0.70215 0.24215
C15 C 0.15556 0.68359 0.14068
C16 C 0.18450 0.95234 0.26768
C17 C 0.12148 0.93054 0.16752
C18 C 0.27215 0.93438 0.05031
C19 C 0.32687 0.92770 -0.02403
C20 C 0.32757 1.04006 0.00485
C21 C 0.31969 0.45945 0.06429
C22 C 0.38577 0.57483 0.10020
C23 C 0.38091 0.46801 0.15321
C24 C 0.42456 0.55826 0.03496
C25 C 0.39067 0.69662 0.13149
C26 C 0.35357 0.50349 0.22661
C27 C 0.42624 0.38788 0.16583
C28 C 0.27249 0.42408 0.03006
C29 C 0.20876 0.44810 -0.02997
C30 C 0.21141 0.33571 0.01063
C31 C 0.17354 0.24964 0.00575
C32 C 0.13302 0.27598 -0.03972
C33 C 0.13038 0.38838 -0.08031
C34 C 0.16825 0.47444 -0.07544
C35 C 0.34796 0.61996 -0.31450
C36 C 0.38719 0.54804 -0.29962
C37 C 0.39714 0.51277 -0.22629
C38 C 0.36788 0.54942 -0.16782
C39 C 0.35986 1.12037 -0.01864
C40 C 0.39144 1.08831 -0.07098
C41 C 0.39074 0.97596 -0.09985
C42 C 0.35846 0.89565 -0.07638
H20 H 0.34046 0.64603 -0.37618
H21 H 0.41083 0.51685 -0.34879
H22 H 0.42898 0.45238 -0.21454
H23 H 0.37605 0.51818 -0.10675
H24 H 0.17585 0.15875 0.03794
H25 H 0.10335 0.20609 -0.04348
H26 H 0.09842 0.40813 -0.11660
H27 H 0.16595 0.56123 -0.10781
H28 H 0.36007 1.21441 0.00613
H29 H 0.41876 1.15508 -0.09103
H30 H 0.41758 0.94719 -0.14465
H31 H 0.35811 0.80015 -0.10116
H32 H 0.45845 0.60025 0.05422
H33 H 0.41208 0.60025 -0.02036
H34 H 0.43074 0.45636 0.02453
H35 H 0.36040 0.75260 0.11098
H36 H 0.42492 0.73532 0.11098
H37 H 0.39050 0.69037 0.19673
H38 H 0.32171 0.55683 0.21000
H39 H 0.37702 0.55683 0.26572
H40 H 0.34191 0.41674 0.25789
H41 H 0.44199 0.40672 0.22428
H42 H 0.45281 0.40672 0.11910
H43 H 0.41638 0.28671 0.16306
H44 H 0.13650 0.71885 -0.15755
H45 H 0.09217 0.84096 -0.15755
H46 H 0.10682 0.76177 -0.06673
H47 H 0.13432 0.91304 0.00539
H48 H 0.13432 1.04800 -0.05762
H49 H 0.19027 0.98826 -0.01937
H50 H 0.09728 0.94680 -0.20461
H51 H 0.13611 0.94680 -0.29006
H52 H 0.12218 1.09057 -0.24060
H53 H 0.18766 0.72190 0.29790
H54 H 0.24514 0.72190 0.24847
H55 H 0.20218 0.60058 0.22847
H56 H 0.17765 0.61966 0.10337
H57 H 0.12892 0.73007 0.10337
H58 H 0.13667 0.62611 0.18595
H59 H 0.15447 1.00781 0.28959
H60 H 0.21723 1.00781 0.26268
H61 H 0.19112 0.87335 0.30937
H62 H 0.12117 0.98278 0.11210
H63 H 0.10423 0.98278 0.21507
H64 H 0.10152 0.84105 0.15861
Mn2_2 Mn 0.25164 0.17883 0.14682
Mn2A Mn 0.24836 0.82117 -0.35318
O5_2 O 0.33956 1.27142 0.11467
O6A O 0.27235 1.06316 0.21484
N2A N 0.22169 1.27139 0.23714
N6_2 N 0.25234 1.31705 0.05385
S1 S 0.05446 0.93253 0.59163
O7 O 0.04963 0.99186 0.67526
O8 O 0.07507 1.03475 0.53498
O9 O 0.09289 0.82822 0.59582
O10 O 0.00069 0.87816 0.55889
C43 C 0.00930 0.80681 0.49391
C44 C -0.03364 0.72895 0.47874
C45 C -0.02615 0.66142 0.40576
C46 C -0.04950 0.73350 0.34205
C47 C -0.01211 0.76953 0.28791
C48 C -0.01921 0.69915 0.21340
C49 C 0.02788 0.68069 0.17709
C50 C 0.02077 0.68636 0.09138
C51 C 0.06830 0.71686 0.05759
C52 C 0.08845 0.60734 0.01630
H1 H 0.04022 0.74885 0.50485
H2 H 0.01578 0.86926 0.44251
H3 H -0.06633 0.79064 0.47320
H4 H -0.03923 0.66538 0.52828
H5 H -0.04336 0.57068 0.41007
H6 H 0.01223 0.65419 0.39457
H7 H 0.02281 0.74901 0.31349
H8 H -0.01506 0.87224 0.27659
H9 H -0.04313 0.75453 0.17300
H10 H -0.03662 0.61083 0.22686
H11 H 0.04175 0.59101 0.19390
H12 H 0.05207 0.75653 0.19698
H13 H -0.00603 0.76179 0.07665
H14 H 0.00715 0.59772 0.06993
H15 H 0.09233 0.74716 0.10564
H16 H 0.06388 0.79591 0.01503
H17 H 0.06736 0.52578 0.03326
H18 H 0.12596 0.59748 0.03326
H19 H 0.08532 0.62327 -0.04823
loop_
_geom_bond_atom_site_label_1
_geom_bond_atom_site_label_2
_geom_bond_site_symmetry_1
_geom_bond_site_symmetry_2
Mn1 O1 1_555 1_555
Mn2 O4 1_555 1_555
S1 O7 1_555 1_555
O1 N8 1_555 1_555
O2 Mn1 1_555 1_555
O3 Mn1 1_555 1_555
O4 N11 1_555 1_555
O5 N12 1_555 1_555
O6 N9 1_555 1_555
O8 S1 1_555 1_555
O9 S1 1_555 1_555
O10 S1 1_555 1_555
N1 Mn1 1_555 1_555
N2 C8 1_555 1_555
N3 Mn1 1_555 1_555
N4 O3 1_555 1_555
N5 Mn1 1_555 1_555
N6 C28 1_555 1_555
N7 Mn2 1_555 1_555
N8 C1 1_555 1_555
N9 C1 1_555 1_555
N10 O2 1_555 1_555
N11 C11 1_555 1_555
N12 C21 1_555 1_555
C1 C8 1_555 1_555
C2 N8 1_555 1_555
C3 N9 1_555 1_555
C4 C2 1_555 1_555
C5 C2 1_555 1_555
C6 C3 1_555 1_555
C7 C3 1_555 1_555
C8 N1 1_555 1_555
C9 N1 1_555 1_555
C10 N2 1_555 1_555
C11 N10 1_555 1_555
C12 N10 1_555 1_555
C13 N11 1_555 1_555
C14 C12 1_555 1_555
C15 C12 1_555 1_555
C16 C13 1_555 1_555
C17 C13 1_555 1_555
C18 N3 1_555 1_555
C19 N3 1_555 1_555
C20 N7 1_555 1_555
C21 N4 1_555 1_555
C22 N4 1_555 1_555
C23 N12 1_555 1_555
C24 C22 1_555 1_555
C25 C22 1_555 1_555
C26 C23 1_555 1_555
C27 C23 1_555 1_555
C28 N5 1_555 1_555
C29 N5 1_555 1_555
C30 N6 1_555 1_555
C31 C30 1_555 1_555
C32 C31 1_555 1_555
C33 C32 1_555 1_555
C34 C29 1_555 1_555
C35 C10 1_555 1_555
C36 C35 1_555 1_555
C37 C36 1_555 1_555
C38 C9 1_555 1_555
C39 C20 1_555 1_555
C40 C39 1_555 1_555
C41 C40 1_555 1_555
C42 C19 1_555 1_555
C43 O10 1_555 1_555
C44 C43 1_555 1_555
C45 C44 1_555 1_555
C46 C45 1_555 1_555
C47 C46 1_555 1_555
C48 C47 1_555 1_555
C49 C48 1_555 1_555
C50 C49 1_555 1_555
C51 C50 1_555 1_555
C52 C51 1_555 1_555
H1 C43 1_555 1_555
H2 C43 1_555 1_555
H3 C44 1_555 1_555
H4 C44 1_555 1_555
H5 C45 1_555 1_555
H6 C45 1_555 1_555
H7 C47 1_555 1_555
H8 C47 1_555 1_555
H9 C48 1_555 1_555
H10 C48 1_555 1_555
H11 C49 1_555 1_555
H12 C49 1_555 1_555
H13 C50 1_555 1_555
H14 C50 1_555 1_555
H15 C51 1_555 1_555
H16 C51 1_555 1_555
H17 C52 1_555 1_555
H18 C52 1_555 1_555
H19 C52 1_555 1_555
H20 C35 1_555 1_555
H21 C36 1_555 1_555
H22 C37 1_555 1_555
H23 C38 1_555 1_555
H24 C31 1_555 1_555
H25 C32 1_555 1_555
H26 C33 1_555 1_555
H27 C34 1_555 1_555
H28 C39 1_555 1_555
H29 C40 1_555 1_555
H30 C41 1_555 1_555
H31 C42 1_555 1_555
H32 C24 1_555 1_555
H33 C24 1_555 1_555
H34 C24 1_555 1_555
H35 C25 1_555 1_555
H36 C25 1_555 1_555
H37 C25 1_555 1_555
H38 C26 1_555 1_555
H39 C26 1_555 1_555
H40 C26 1_555 1_555
H41 C27 1_555 1_555
H42 C27 1_555 1_555
H43 C27 1_555 1_555
H44 C4 1_555 1_555
H45 C4 1_555 1_555
H46 C4 1_555 1_555
H47 C5 1_555 1_555
H48 C5 1_555 1_555
H49 C5 1_555 1_555
H50 C7 1_555 1_555
H51 C7 1_555 1_555
H52 C7 1_555 1_555
H53 C14 1_555 1_555
H54 C14 1_555 1_555
H55 C14 1_555 1_555
H56 C15 1_555 1_555
H57 C15 1_555 1_555
H58 C15 1_555 1_555
H59 C16 1_555 1_555
H60 C16 1_555 1_555
H61 C16 1_555 1_555
H62 C17 1_555 1_555
H63 C17 1_555 1_555
H64 C17 1_555 1_555
Mn2_2 O5 1_555 1_555
Mn2A O6 1_555 1_555
O5_2 Mn2 1_555 1_555
O6A Mn2 1_555 1_555
N2A Mn2 1_555 1_555
N6_2 Mn2 1_555 1_555
N2 Mn2A 1_555 1_555
N6 Mn2_2 1_555 1_555
N7 C18 1_555 1_555
C2 C3 1_555 1_555
C9 C10 1_555 1_555
C11 C18 1_555 1_555
C12 C13 1_555 1_555
C19 C20 1_555 1_555
C21 C28 1_555 1_555
C22 C23 1_555 1_555
C29 C30 1_555 1_555
C33 C34 1_555 1_555
C37 C38 1_555 1_555
C41 C42 1_555 1_555

#END
