
#######################################################################
#
#                 Cambridge Crystallographic Data Centre
#                                CCDC 
#
#######################################################################
#
# If this CIF has been generated from an entry in the Cambridge 
# Structural Database, then it will include bibliographic, chemical, 
# crystal, experimental, refinement or atomic coordinate data resulting 
# from the CCDC's data processing and validation procedures.
#
#######################################################################

data_AGAFEU
_symmetry_cell_setting           orthorhombic
_symmetry_space_group_name_H-M   'P 21 21 21'
_symmetry_Int_Tables_number      19
_space_group_name_Hall           'P 2ac 2ab'
loop_
_symmetry_equiv_pos_site_id
_symmetry_equiv_pos_as_xyz
1 x,y,z
2 1/2-x,-y,1/2+z
3 1/2+x,1/2-y,-z
4 -x,1/2+y,1/2-z
_cell_length_a                   30.39960
_cell_length_b                   11.43200
_cell_length_c                   17.76640
_cell_angle_alpha                90
_cell_angle_beta                 90
_cell_angle_gamma                90
_cell_volume                     6174.33
loop_
_atom_site_label
_atom_site_type_symbol
_atom_site_fract_x
_atom_site_fract_y
_atom_site_fract_z
Mn1 Mn 0.23484 0.33510 0.22885
Mn2 Mn 0.23642 0.19107 -0.09196
O1 O 0.29019 0.27637 0.19286
O2 O 0.17784 0.40674 0.25555
O3 O 0.26207 0.32648 0.34400
O4 O 0.25747 0.06902 -0.02942
O5 O 0.30774 -0.08476 0.35046
O6 O 0.18928 0.76487 0.37300
N1 N 0.21144 0.33722 0.11806
N2 N 0.26624 0.70644 0.30100
N3 N 0.21141 0.15937 0.25538
N4 N 0.21558 -0.04244 0.31138
N5 N 0.25995 0.51465 0.23855
N6 N 0.21552 0.28961 -0.00029
N7 N 0.28980 0.18315 0.14595
N8 N 0.28283 0.11071 0.02992
N9 N 0.28548 0.23155 0.36290
N10 N 0.30710 0.03099 0.37081
N11 N 0.17906 0.46400 0.32137
N12 N 0.18033 0.64597 0.37138
C1 C 0.26822 0.19257 0.07978
C2 C 0.33366 0.10598 0.13127
C3 C 0.31708 0.01829 0.06145
C4 C 0.36933 0.19355 0.11034
C5 C 0.34028 0.02688 0.19455
C6 C 0.29342 -0.10138 0.08224
C7 C 0.35202 -0.00359 0.00663
C8 C 0.23037 0.25430 0.06995
C9 C 0.17532 0.40612 0.08468
C10 C 0.17965 0.36902 0.01241
C11 C 0.27368 0.11289 0.34395
C12 C 0.32612 0.22692 0.41240
C13 C 0.33766 0.09408 0.42059
C14 C 0.31256 0.30360 0.47593
C15 C 0.35454 0.31630 0.37022
C16 C 0.32978 0.04356 0.49740
C17 C 0.38315 0.05794 0.39109
C18 C 0.23563 0.07547 0.30107
C19 C 0.18037 0.09035 0.23773
C20 C 0.17921 -0.02509 0.26576
C21 C 0.20126 0.56945 0.32150
C22 C 0.13947 0.45987 0.36633
C23 C 0.14915 0.56851 0.41667
C24 C 0.09978 0.48265 0.30934
C25 C 0.13437 0.33532 0.39738
C26 C 0.17828 0.52785 0.48331
C27 C 0.10915 0.65691 0.43573
C28 C 0.24397 0.59950 0.28122
C29 C 0.29947 0.56648 0.21354
C30 C 0.30154 0.68197 0.25305
C31 C 0.33825 0.76513 0.24249
C32 C 0.37289 0.73282 0.19242
C33 C 0.37081 0.61733 0.15294
C34 C 0.33410 0.53415 0.16349
C35 C 0.14962 0.41105 -0.03953
C36 C 0.11530 0.49018 -0.01924
C37 C 0.11097 0.52728 0.05304
C38 C 0.14097 0.48525 0.10498
C39 C 0.14618 -0.10295 0.24812
C40 C 0.11426 -0.06534 0.20244
C41 C 0.11540 0.05007 0.17437
C42 C 0.14844 0.12793 0.19203
H1 H 0.36015 0.24129 0.06741
H2 H 0.39630 0.14630 0.09902
H3 H 0.37527 0.25091 0.15085
H4 H 0.31392 -0.02487 0.20228
H5 H 0.34538 0.07916 0.23765
H6 H 0.36606 -0.02695 0.18655
H7 H 0.27048 -0.08299 0.11844
H8 H 0.31478 -0.16058 0.10283
H9 H 0.27965 -0.13803 0.03873
H10 H 0.36659 0.07560 -0.00521
H11 H 0.33873 -0.03898 -0.03753
H12 H 0.37389 -0.06223 0.02629
H13 H 0.30604 0.38892 0.45985
H14 H 0.33663 0.30547 0.51176
H15 H 0.28605 0.26717 0.49829
H16 H 0.34105 0.39949 0.37108
H17 H 0.35717 0.28757 0.31974
H18 H 0.38405 0.32023 0.39244
H19 H 0.33825 -0.04482 0.49934
H20 H 0.29834 0.05190 0.50991
H21 H 0.34767 0.09100 0.53241
H22 H 0.38810 -0.03155 0.39904
H23 H 0.40611 0.10584 0.41654
H24 H 0.38447 0.07613 0.33877
H25 H 0.10274 0.56597 0.28769
H26 H 0.07131 0.47644 0.33471
H27 H 0.10113 0.41947 0.27075
H28 H 0.12821 0.27534 0.35834
H29 H 0.10972 0.33542 0.43221
H30 H 0.16175 0.31153 0.42253
H31 H 0.18381 0.60023 0.51473
H32 H 0.20659 0.49462 0.46574
H33 H 0.16269 0.46318 0.51110
H34 H 0.11924 0.72296 0.46879
H35 H 0.08571 0.60817 0.45943
H36 H 0.09759 0.69447 0.39091
H37 H 0.40207 0.79893 0.18401
H38 H 0.39834 0.59165 0.11313
H39 H 0.33246 0.44236 0.13212
H40 H 0.33990 0.85693 0.27386
H41 H 0.15318 0.38061 -0.09880
H42 H 0.09068 0.52465 -0.06183
H43 H 0.08281 0.59218 0.06968
H44 H 0.13745 0.51569 0.16424
H45 H 0.14520 -0.20122 0.27199
H46 H 0.08613 -0.13163 0.18741
H47 H 0.08822 0.08210 0.13549
H48 H 0.14940 0.22620 0.16814
Mn2A Mn 0.26358 -0.19107 0.40804
Mn2A_2 Mn 0.26358 0.80893 0.40804
O5A O 0.19226 0.08476 -0.14954
O6A O 0.31072 0.23513 -0.12700
N2A N 0.23376 0.29356 -0.19900
N4A N 0.28442 0.04244 -0.18862
S1 S -0.01695 0.79405 1.00725
O7 O -0.04835 0.69815 1.04616
O8 O -0.03770 0.91335 1.00694
O9 O 0.03060 0.82373 1.07261
O10 O -0.01265 0.74239 0.90434
C43 C 0.02115 0.83569 0.33905
C44 C 0.01423 0.96183 0.31750
C45 C 0.00562 0.63894 0.90941
C46 C -0.01027 0.57436 0.84031
C47 C 0.02167 0.59181 0.77704
C48 C -0.00361 0.57664 0.71202
C49 C 0.02220 0.57934 0.65724
C50 C -0.00554 0.61474 0.59754
C51 C -0.00571 0.74130 0.59919
C52 C 0.03588 0.76777 0.54376
C53 C 0.02141 0.76921 0.46331
C54 C 0.04139 0.86405 0.42355
C55 C 0.00482 0.94402 0.22624
C56 C -0.01701 0.81172 0.19324
H49 H 0.02087 0.77025 0.19416
H50 H -0.03892 0.77270 0.57570
H51 H -0.01093 0.77889 0.33391
H52 H 0.04319 0.77777 0.29681
H53 H -0.01404 1.00420 0.34568
H54 H 0.04438 1.02722 0.34152
H55 H 0.04771 0.66208 0.91334
H56 H -0.01060 0.57880 0.95856
H57 H -0.04733 0.62129 0.83665
H58 H -0.00923 0.46595 0.84003
H59 H 0.03474 0.54038 0.77827
H60 H 0.03005 0.69321 0.77943
H61 H -0.03511 0.63477 0.71645
H62 H -0.01866 0.47989 0.71257
H63 H 0.04756 0.66030 0.66202
H64 H 0.04353 0.49992 0.64157
H65 H -0.04529 0.58774 0.61196
H66 H 0.01362 0.57341 0.53714
H67 H 0.00066 0.77695 0.66039
H68 H 0.06902 0.69899 0.53735
H69 H 0.04445 0.85497 0.56940
H70 H 0.03494 0.68441 0.42392
H71 H -0.01984 0.78445 0.47180
H72 H 0.07959 0.86348 0.42932
H73 H 0.03328 0.96142 0.45336
H74 H -0.01507 1.02066 0.22063
H75 H 0.03388 0.95259 0.18730
H76 H -0.03691 0.82854 0.13994
H77 H -0.03928 0.77214 0.23816
loop_
_geom_bond_atom_site_label_1
_geom_bond_atom_site_label_2
_geom_bond_site_symmetry_1
_geom_bond_site_symmetry_2
Mn1 O1 1_555 1_555
Mn2 O4 1_555 1_555
O1 N7 1_555 1_555
O2 Mn1 1_555 1_555
O3 Mn1 1_555 1_555
O4 N8 1_555 1_555
O5 N10 1_555 1_555
O6 N12 1_555 1_555
N1 Mn1 1_555 1_555
N2 C28 1_555 1_555
N3 Mn1 1_555 1_555
N4 C18 1_555 1_555
N5 Mn1 1_555 1_555
N6 Mn2 1_555 1_555
N7 C1 1_555 1_555
N8 C1 1_555 1_555
N9 O3 1_555 1_555
N10 C11 1_555 1_555
N11 O2 1_555 1_555
N12 C21 1_555 1_555
C1 C8 1_555 1_555
C2 N7 1_555 1_555
C3 N8 1_555 1_555
C4 C2 1_555 1_555
C5 C2 1_555 1_555
C6 C3 1_555 1_555
C7 C3 1_555 1_555
C8 N1 1_555 1_555
C9 N1 1_555 1_555
C10 N6 1_555 1_555
C11 N9 1_555 1_555
C12 N9 1_555 1_555
C13 N10 1_555 1_555
C14 C12 1_555 1_555
C15 C12 1_555 1_555
C16 C13 1_555 1_555
C17 C13 1_555 1_555
C18 N3 1_555 1_555
C19 N3 1_555 1_555
C20 N4 1_555 1_555
C21 N11 1_555 1_555
C22 N11 1_555 1_555
C23 N12 1_555 1_555
C24 C22 1_555 1_555
C25 C22 1_555 1_555
C26 C23 1_555 1_555
C27 C23 1_555 1_555
C28 N5 1_555 1_555
C29 N5 1_555 1_555
C30 N2 1_555 1_555
C31 C30 1_555 1_555
C32 C31 1_555 1_555
C33 C32 1_555 1_555
C34 C29 1_555 1_555
C35 C10 1_555 1_555
C36 C35 1_555 1_555
C37 C36 1_555 1_555
C38 C9 1_555 1_555
C39 C20 1_555 1_555
C40 C39 1_555 1_555
C41 C40 1_555 1_555
C42 C19 1_555 1_555
S1 O7 1_555 1_555
O8 S1 1_555 1_555
O9 S1 1_555 1_555
O10 S1 1_555 1_555
C43 C44 1_555 1_555
C44 C55 1_555 1_555
C45 O10 1_555 1_555
C46 C45 1_555 1_555
C47 C46 1_555 1_555
C48 C47 1_555 1_555
C49 C48 1_555 1_555
C50 C49 1_555 1_555
C51 C50 1_555 1_555
C52 C51 1_555 1_555
C53 C52 1_555 1_555
C54 C43 1_555 1_555
C55 C56 1_555 1_555
C56 H49 1_555 1_555
H1 C4 1_555 1_555
H2 C4 1_555 1_555
H3 C4 1_555 1_555
H4 C5 1_555 1_555
H5 C5 1_555 1_555
H6 C5 1_555 1_555
H7 C6 1_555 1_555
H8 C6 1_555 1_555
H9 C6 1_555 1_555
H10 C7 1_555 1_555
H11 C7 1_555 1_555
H12 C7 1_555 1_555
H13 C14 1_555 1_555
H14 C14 1_555 1_555
H15 C14 1_555 1_555
H16 C15 1_555 1_555
H17 C15 1_555 1_555
H18 C15 1_555 1_555
H19 C16 1_555 1_555
H20 C16 1_555 1_555
H21 C16 1_555 1_555
H22 C17 1_555 1_555
H23 C17 1_555 1_555
H24 C17 1_555 1_555
H25 C24 1_555 1_555
H26 C24 1_555 1_555
H27 C24 1_555 1_555
H28 C25 1_555 1_555
H29 C25 1_555 1_555
H30 C25 1_555 1_555
H31 C26 1_555 1_555
H32 C26 1_555 1_555
H33 C26 1_555 1_555
H34 C27 1_555 1_555
H35 C27 1_555 1_555
H36 C27 1_555 1_555
H37 C32 1_555 1_555
H38 C33 1_555 1_555
H39 C34 1_555 1_555
H40 C31 1_555 1_555
H41 C35 1_555 1_555
H42 C36 1_555 1_555
H43 C37 1_555 1_555
H44 C38 1_555 1_555
H45 C39 1_555 1_555
H46 C40 1_555 1_555
H47 C41 1_555 1_555
H48 C42 1_555 1_555
H50 C51 1_555 1_555
H51 C43 1_555 1_555
H52 C43 1_555 1_555
H53 C44 1_555 1_555
H54 C44 1_555 1_555
H55 C45 1_555 1_555
H56 C45 1_555 1_555
H57 C46 1_555 1_555
H58 C46 1_555 1_555
H59 C47 1_555 1_555
H60 C47 1_555 1_555
H61 C48 1_555 1_555
H62 C48 1_555 1_555
H63 C49 1_555 1_555
H64 C49 1_555 1_555
H65 C50 1_555 1_555
H66 C50 1_555 1_555
H67 C51 1_555 1_555
H68 C52 1_555 1_555
H69 C52 1_555 1_555
H70 C53 1_555 1_555
H71 C53 1_555 1_555
H72 C54 1_555 1_555
H73 C54 1_555 1_555
H74 C55 1_555 1_555
H75 C55 1_555 1_555
H76 C56 1_555 1_555
H77 C56 1_555 1_555
Mn2A O5 1_555 1_555
Mn2A_2 O6 1_555 1_555
O5A Mn2 1_555 1_555
O6A Mn2 1_555 1_555
N2A Mn2 1_555 1_555
N4A Mn2 1_555 1_555
N2 Mn2A_2 1_555 1_555
N4 Mn2A 1_555 1_555
N6 C8 1_555 1_555
C2 C3 1_555 1_555
C9 C10 1_555 1_555
C11 C18 1_555 1_555
C12 C13 1_555 1_555
C19 C20 1_555 1_555
C21 C28 1_555 1_555
C22 C23 1_555 1_555
C29 C30 1_555 1_555
C33 C34 1_555 1_555
C37 C38 1_555 1_555
C41 C42 1_555 1_555
C53 C54 1_555 1_555

#END
