
#######################################################################
#
#                 Cambridge Crystallographic Data Centre
#                                CCDC 
#
#######################################################################
#
# If this CIF has been generated from an entry in the Cambridge 
# Structural Database, then it will include bibliographic, chemical, 
# crystal, experimental, refinement or atomic coordinate data resulting 
# from the CCDC's data processing and validation procedures.
#
#######################################################################

data_AGALUR
_symmetry_cell_setting           orthorhombic
_symmetry_space_group_name_H-M   'P 21 21 21'
_symmetry_Int_Tables_number      19
_space_group_name_Hall           'P 2ac 2ab'
loop_
_symmetry_equiv_pos_site_id
_symmetry_equiv_pos_as_xyz
1 x,y,z
2 1/2-x,-y,1/2+z
3 -x,1/2+y,1/2-z
4 1/2+x,1/2-y,-z
_cell_length_a                   5.8180(2)
_cell_length_b                   10.4281(3)
_cell_length_c                   17.9763(6)
_cell_angle_alpha                90
_cell_angle_beta                 90
_cell_angle_gamma                90
_cell_volume                     1090.63
loop_
_atom_site_label
_atom_site_type_symbol
_atom_site_fract_x
_atom_site_fract_y
_atom_site_fract_z
Mg1 Mg 0.33315(6) -0.32063(3) 0.14332(2)
O1 O 0.26297(16) -0.32838(9) 0.25453(5)
H1 H 0.218(3) -0.3887(18) 0.2752(10)
H2 H 0.337(3) -0.2842(16) 0.2893(9)
O2 O 0.67052(14) -0.36936(8) 0.15923(5)
H3 H 0.790(3) -0.3181(17) 0.1514(9)
H4 H 0.729(3) -0.4450(18) 0.1495(10)
O3 O 0.36814(17) -0.30754(10) 0.02851(5)
H5 H 0.441(4) -0.353(2) 0.0059(11)
H6 H 0.389(5) -0.235(3) 0.0140(16)
O4 O 0.02863(13) -0.21705(7) 0.13304(5)
O5 O -0.14866(14) -0.03583(8) 0.16352(5)
O6 O 0.43182(13) -0.12846(7) 0.15337(5)
H7 H 0.5893 -0.1063 0.1589
O7 O 0.23333(15) -0.02200(8) 0.01884(5)
H8 H 0.2631 0.0196 -0.0200
O8 O 0.19066(16) 0.24012(9) 0.01325(5)
H9 H 0.0724 0.2383 -0.0135
O9 O 0.45630(14) 0.28337(8) 0.14457(6)
H10 H 0.4919 0.3611 0.1405
O10 O 0.23796(15) 0.49648(8) 0.13204(5)
O11 O -0.11252(15) 0.40910(8) 0.12687(5)
C1 C 0.02736(17) -0.09986(10) 0.15005(6)
C2 C 0.25962(18) -0.03112(9) 0.15181(6)
H11 H 0.2707 0.0224 0.1978
C3 C 0.28859(18) 0.05441(10) 0.08284(6)
H12 H 0.4542 0.0793 0.0793
C4 C 0.14395(18) 0.17808(10) 0.08262(6)
H13 H -0.0232 0.1567 0.0864
C5 C 0.21214(18) 0.27091(10) 0.14425(6)
H14 H 0.1615 0.2350 0.1932
C6 C 0.1004(2) 0.40323(10) 0.13325(6)
Mg1_2 Mg 0.33315(6) 0.67937(3) 0.14332(2)
O10_2 O 0.23796(15) -0.50352(8) 0.13204(5)
loop_
_geom_bond_atom_site_label_1
_geom_bond_atom_site_label_2
_geom_bond_site_symmetry_1
_geom_bond_site_symmetry_2
Mg1 O1 1_555 1_555
O1 H1 1_555 1_555
H2 O1 1_555 1_555
O2 Mg1 1_555 1_555
H3 O2 1_555 1_555
H4 O2 1_555 1_555
O3 Mg1 1_555 1_555
H5 O3 1_555 1_555
H6 O3 1_555 1_555
O4 Mg1 1_555 1_555
O5 C1 1_555 1_555
O6 Mg1 1_555 1_555
H7 O6 1_555 1_555
O7 H8 1_555 1_555
O8 H9 1_555 1_555
O9 H10 1_555 1_555
O10 C6 1_555 1_555
O11 C6 1_555 1_555
C1 O4 1_555 1_555
C2 O6 1_555 1_555
H11 C2 1_555 1_555
C3 O7 1_555 1_555
H12 C3 1_555 1_555
C4 O8 1_555 1_555
H13 C4 1_555 1_555
C5 O9 1_555 1_555
H14 C5 1_555 1_555
C6 C5 1_555 1_555
Mg1_2 O10 1_555 1_555
O10_2 Mg1 1_555 1_555
C1 C2 1_555 1_555
C2 C3 1_555 1_555
C3 C4 1_555 1_555
C4 C5 1_555 1_555

#END
