
#######################################################################
#
#                 Cambridge Crystallographic Data Centre
#                                CCDC 
#
#######################################################################
#
# If this CIF has been generated from an entry in the Cambridge 
# Structural Database, then it will include bibliographic, chemical, 
# crystal, experimental, refinement or atomic coordinate data resulting 
# from the CCDC's data processing and validation procedures.
#
#######################################################################

data_AGAMOL
_symmetry_cell_setting           orthorhombic
_symmetry_space_group_name_H-M   'P c 21 n'
_symmetry_Int_Tables_number      33
_space_group_name_Hall           'P -2n -2ac'
loop_
_symmetry_equiv_pos_site_id
_symmetry_equiv_pos_as_xyz
1 x,y,z
2 1/2-x,y,1/2+z
3 -x,1/2+y,-z
4 1/2+x,1/2+y,1/2-z
_cell_length_a                   10.8359(7)
_cell_length_b                   14.2069(19)
_cell_length_c                   20.417(2)
_cell_angle_alpha                90
_cell_angle_beta                 90
_cell_angle_gamma                90
_cell_volume                     3143.09
loop_
_atom_site_label
_atom_site_type_symbol
_atom_site_fract_x
_atom_site_fract_y
_atom_site_fract_z
Nd1 Nd 0.74837(3) 0.04112(2) 0.070914(12)
O1 O 0.7380(4) 0.2071(3) 0.10495(19)
N1 N 0.7717(4) 0.0393(5) 0.20287(19)
C1 C 0.7887(5) 0.1126(5) 0.2430(3)
H1 H 0.8101 0.1716 0.2255
C2 C 0.7749(6) 0.1022(5) 0.3099(3)
H2 H 0.7874 0.1554 0.3365
N2 N 0.7456(6) 0.0228(3) 0.3387(2)
C3 C 0.7331(7) -0.0508(5) 0.2989(3)
H3 H 0.7144 -0.1097 0.3173
C4 C 0.7462(6) -0.0443(5) 0.2323(3)
C5 C 0.7322(5) -0.1237(4) 0.1853(3)
O2 O 0.7435(4) -0.1083(3) 0.12600(18)
N3 N 0.7107(5) -0.2080(4) 0.2078(3)
H4 H 0.7039 -0.2551 0.1808
H5 H 0.7031 -0.2171 0.2497
N4 N 0.8921(4) -0.0700(4) -0.0025(3)
C6 C 0.9010(6) -0.1629(5) 0.0017(3)
H6 H 0.8507 -0.1958 0.0314
C7 C 0.9838(6) -0.2120(5) -0.0372(3)
H7 H 0.9861 -0.2779 -0.0338
N5 N 1.0590(5) -0.1707(4) -0.0787(3)
C8 C 1.0476(6) -0.0780(5) -0.0846(3)
H8 H 1.0974 -0.0457 -0.1150
C9 C 0.9635(5) -0.0276(5) -0.0468(3)
C10 C 0.9378(5) 0.0747(5) -0.0530(3)
O3 O 0.8563(3) 0.1111(3) -0.01803(19)
N6 N 1.0035(5) 0.1274(4) -0.0927(3)
H9 H 0.9903 0.1878 -0.0946
H10 H 1.0603 0.1020 -0.1171
N7 N 0.5882(4) 0.1192(4) -0.0144(3)
C11 C 0.5622(6) 0.2093(5) -0.0217(3)
H11 H 0.6051 0.2544 0.0031
C12 C 0.4731(7) 0.2378(5) -0.0654(3)
H12 H 0.4572 0.3026 -0.0690
N8 N 0.4088(5) 0.1805(5) -0.1022(3)
C13 C 0.4381(6) 0.0902(5) -0.0964(3)
H13 H 0.3966 0.0457 -0.1224
C14 C 0.5275(5) 0.0594(5) -0.0534(3)
C15 C 0.5690(5) -0.0402(5) -0.0475(3)
O4 O 0.6302(4) -0.0636(3) 0.0024(2)
N9 N 0.5404(5) -0.1013(4) -0.0931(2)
H14 H 0.5637 -0.1596 -0.0893
H15 H 0.4981 -0.0835 -0.1271
Mo1 Mo 0.24608(5) 0.00017(3) 0.15781(2)
C16 C 0.4367(6) 0.0269(5) 0.1369(3)
N10 N 0.5377(4) 0.0429(5) 0.1238(2)
C17 C 1.0693(5) 0.0417(6) 0.1229(3)
N11 N 0.9718(4) 0.0619(4) 0.1061(2)
C18 C 0.2528(7) 0.1495(5) 0.1370(3)
N12 N 0.2623(7) 0.2287(4) 0.1307(3)
C19 C 0.1196(5) -0.0287(5) 0.2361(3)
N13 N 0.0514(5) -0.0458(5) 0.2768(3)
C20 C 0.3179(5) 0.0628(5) 0.2456(3)
N14 N 0.3533(6) 0.0920(5) 0.2928(3)
C21 C 0.1518(6) -0.1270(5) 0.1323(3)
N15 N 0.0988(6) -0.1929(5) 0.1199(4)
C22 C 0.2702(6) -0.0153(6) 0.0555(3)
N16 N 0.2821(6) -0.0283(7) 0.0002(3)
C23 C 0.3475(6) -0.1160(5) 0.2011(4)
N17 N 0.4001(6) -0.1743(5) 0.2257(4)
Mo1_2 Mo 1.24608(5) 0.00017(3) 0.15781(2)
C17_2 C 0.0693(5) 0.0417(6) 0.1229(3)
O5 O 0.5595(4) 0.2460(4) 0.1970(3)
loop_
_geom_bond_atom_site_label_1
_geom_bond_atom_site_label_2
_geom_bond_site_symmetry_1
_geom_bond_site_symmetry_2
Nd1 O1 1_555 1_555
N1 Nd1 1_555 1_555
C1 N1 1_555 1_555
H1 C1 1_555 1_555
C2 C1 1_555 1_555
H2 C2 1_555 1_555
N2 C2 1_555 1_555
C3 N2 1_555 1_555
H3 C3 1_555 1_555
C4 N1 1_555 1_555
C5 C4 1_555 1_555
O2 Nd1 1_555 1_555
N3 C5 1_555 1_555
H4 N3 1_555 1_555
H5 N3 1_555 1_555
N4 Nd1 1_555 1_555
C6 N4 1_555 1_555
H6 C6 1_555 1_555
C7 C6 1_555 1_555
H7 C7 1_555 1_555
N5 C7 1_555 1_555
C8 N5 1_555 1_555
H8 C8 1_555 1_555
C9 N4 1_555 1_555
C10 C9 1_555 1_555
O3 Nd1 1_555 1_555
N6 C10 1_555 1_555
H9 N6 1_555 1_555
H10 N6 1_555 1_555
N7 Nd1 1_555 1_555
C11 N7 1_555 1_555
H11 C11 1_555 1_555
C12 C11 1_555 1_555
H12 C12 1_555 1_555
N8 C12 1_555 1_555
C13 N8 1_555 1_555
H13 C13 1_555 1_555
C14 N7 1_555 1_555
C15 C14 1_555 1_555
O4 Nd1 1_555 1_555
N9 C15 1_555 1_555
H14 N9 1_555 1_555
H15 N9 1_555 1_555
Mo1 C16 1_555 1_555
C16 N10 1_555 1_555
N10 Nd1 1_555 1_555
C17 N11 1_555 1_555
N11 Nd1 1_555 1_555
C18 Mo1 1_555 1_555
N12 C18 1_555 1_555
C19 Mo1 1_555 1_555
N13 C19 1_555 1_555
C20 Mo1 1_555 1_555
N14 C20 1_555 1_555
C21 Mo1 1_555 1_555
N15 C21 1_555 1_555
C22 Mo1 1_555 1_555
N16 C22 1_555 1_555
C23 Mo1 1_555 1_555
N17 C23 1_555 1_555
Mo1_2 C17 1_555 1_555
C17_2 Mo1 1_555 1_555
C3 C4 1_555 1_555
C5 O2 1_555 1_555
C8 C9 1_555 1_555
C10 O3 1_555 1_555
C13 C14 1_555 1_555
C15 O4 1_555 1_555

#END
