
#######################################################################
#
#                 Cambridge Crystallographic Data Centre
#                                CCDC 
#
#######################################################################
#
# If this CIF has been generated from an entry in the Cambridge 
# Structural Database, then it will include bibliographic, chemical, 
# crystal, experimental, refinement or atomic coordinate data resulting 
# from the CCDC's data processing and validation procedures.
#
#######################################################################

data_AGAMUR
_symmetry_cell_setting           orthorhombic
_symmetry_space_group_name_H-M   'P 21 21 21'
_symmetry_Int_Tables_number      19
_space_group_name_Hall           'P 2ac 2ab'
loop_
_symmetry_equiv_pos_site_id
_symmetry_equiv_pos_as_xyz
1 x,y,z
2 1/2-x,-y,1/2+z
3 1/2+x,1/2-y,-z
4 -x,1/2+y,1/2-z
_cell_length_a                   10.8895(19)
_cell_length_b                   11.7647(17)
_cell_length_c                   16.981(4)
_cell_angle_alpha                90
_cell_angle_beta                 90
_cell_angle_gamma                90
_cell_volume                     2175.46
loop_
_atom_site_label
_atom_site_type_symbol
_atom_site_fract_x
_atom_site_fract_y
_atom_site_fract_z
Mn1 Mn 0.30281(7) 0.01649(5) 0.39010(4)
N1 N 0.2903(5) -0.1699(4) 0.4271(3)
H1 H 0.3394 -0.2121 0.3931
N2 N 0.1077(4) -0.0437(5) 0.3514(3)
H2 H 0.0941 -0.0187 0.3002
N3 N 0.1633(5) 0.1530(4) 0.4369(3)
H3 H 0.1895 0.2239 0.4195
N4 N 0.3526(5) 0.0275(5) 0.5161(3)
H4 H 0.4377 0.0318 0.5197
N5 N 0.4166(4) 0.1701(4) 0.3584(2)
N6 N 0.2571(4) 0.4094(4) 0.4751(3)
N7 N 0.4871(4) 0.6685(4) 0.3566(3)
N8 N 0.6313(4) 0.4444(3) 0.2245(2)
C1 C 0.3468(5) -0.1796(4) 0.5125(3)
H5 H 0.3125 -0.2465 0.5401
H6 H 0.4371 -0.1883 0.5094
C2 C 0.3138(7) -0.0707(5) 0.5565(4)
H7 H 0.2237 -0.0675 0.5638
H8 H 0.3524 -0.0723 0.6092
C3 C 0.2993(6) 0.1328(4) 0.5535(3)
H9 H 0.3522 0.1993 0.5423
H10 H 0.2941 0.1229 0.6113
C4 C 0.1724(9) 0.1512(5) 0.5195(4)
H11 H 0.1180 0.0904 0.5395
H12 H 0.1406 0.2243 0.5399
C5 C 0.0419(5) 0.1321(4) 0.4037(4)
H13 H 0.0375 0.1646 0.3500
H14 H -0.0211 0.1700 0.4365
C6 C 0.0157(5) 0.0034(6) 0.4003(4)
H15 H 0.0194 -0.0303 0.4537
H16 H -0.0668 -0.0110 0.3779
C7 C 0.1125(5) -0.1709(4) 0.3505(3)
H17 H 0.1598 -0.1968 0.3041
H18 H 0.0281 -0.2017 0.3461
C8 C 0.1723(6) -0.2161(5) 0.4253(4)
H19 H 0.1251 -0.1922 0.4723
H20 H 0.1762 -0.3002 0.4242
C9 C 0.4681(4) 0.3748(4) 0.3219(3)
C10 C 0.4075(4) 0.4627(4) 0.3650(2)
C11 C 0.4447(4) 0.2602(4) 0.3395(3)
C12 C 0.3245(5) 0.4347(4) 0.4261(3)
C13 C 0.4504(4) 0.5762(4) 0.3613(3)
C14 C 0.5607(4) 0.4069(4) 0.2677(3)
Mn1C Mn 0.69719(7) 0.51649(5) 0.10990(4)
N8C N 0.3687(4) -0.0556(3) 0.2755(2)
N9 N 0.2011(5) 0.1903(4) 0.2376(3)
N10 N 0.0474(4) 0.4511(4) 0.3392(3)
N11 N 0.2858(5) 0.6874(4) 0.2080(3)
N12 N 0.4300(5) 0.4315(4) 0.0932(3)
C15 C 0.2816(5) 0.3892(4) 0.2049(3)
C16 C 0.2293(4) 0.4819(4) 0.2464(3)
C17 C 0.2394(4) 0.2773(5) 0.2209(3)
C18 C 0.1289(5) 0.4667(4) 0.2976(3)
C19 C 0.2610(4) 0.5961(5) 0.2250(3)
C20 C 0.3640(5) 0.4096(4) 0.1429(3)
loop_
_geom_bond_atom_site_label_1
_geom_bond_atom_site_label_2
_geom_bond_site_symmetry_1
_geom_bond_site_symmetry_2
Mn1 N1 1_555 1_555
N1 H1 1_555 1_555
N2 Mn1 1_555 1_555
H2 N2 1_555 1_555
N3 Mn1 1_555 1_555
H3 N3 1_555 1_555
N4 Mn1 1_555 1_555
H4 N4 1_555 1_555
N5 Mn1 1_555 1_555
N6 C12 1_555 1_555
N7 C13 1_555 1_555
N8 C14 1_555 1_555
N9 C17 1_555 1_555
N10 C18 1_555 1_555
N11 C19 1_555 1_555
N12 C20 1_555 1_555
C1 N1 1_555 1_555
H5 C1 1_555 1_555
H6 C1 1_555 1_555
C2 N4 1_555 1_555
H7 C2 1_555 1_555
H8 C2 1_555 1_555
C3 N4 1_555 1_555
H9 C3 1_555 1_555
H10 C3 1_555 1_555
C4 N3 1_555 1_555
H11 C4 1_555 1_555
H12 C4 1_555 1_555
C5 N3 1_555 1_555
H13 C5 1_555 1_555
H14 C5 1_555 1_555
C6 N2 1_555 1_555
H15 C6 1_555 1_555
H16 C6 1_555 1_555
C7 N2 1_555 1_555
H17 C7 1_555 1_555
H18 C7 1_555 1_555
C8 N1 1_555 1_555
H19 C8 1_555 1_555
H20 C8 1_555 1_555
C9 C10 1_555 1_555
C10 C12 1_555 1_555
C11 N5 1_555 1_555
C13 C10 1_555 1_555
C14 C9 1_555 1_555
C15 C16 1_555 1_555
C16 C18 1_555 1_555
C17 C15 1_555 1_555
C19 C16 1_555 1_555
C20 C15 1_555 1_555
Mn1C N8 1_555 1_555
N8C Mn1 1_555 1_555
C1 C2 1_555 1_555
C3 C4 1_555 1_555
C5 C6 1_555 1_555
C7 C8 1_555 1_555
C9 C11 1_555 1_555

#END
