
#######################################################################
#
#                 Cambridge Crystallographic Data Centre
#                                CCDC 
#
#######################################################################
#
# If this CIF has been generated from an entry in the Cambridge 
# Structural Database, then it will include bibliographic, chemical, 
# crystal, experimental, refinement or atomic coordinate data resulting 
# from the CCDC's data processing and validation procedures.
#
#######################################################################

data_AGANOM
_symmetry_cell_setting           triclinic
_symmetry_space_group_name_H-M   'P -1'
_symmetry_Int_Tables_number      2
_space_group_name_Hall           '-P 1'
loop_
_symmetry_equiv_pos_site_id
_symmetry_equiv_pos_as_xyz
1 x,y,z
2 -x,-y,-z
_cell_length_a                   10.316(6)
_cell_length_b                   11.362(8)
_cell_length_c                   9.131(6)
_cell_angle_alpha                101.92(2)
_cell_angle_beta                 113.90(3)
_cell_angle_gamma                106.16(3)
_cell_volume                     875.484
loop_
_atom_site_label
_atom_site_type_symbol
_atom_site_fract_x
_atom_site_fract_y
_atom_site_fract_z
Mn1 Mn 0.0000 0.0000 0.0000
Mn2 Mn -0.29956(7) -0.06216(6) -0.86058(7)
N1 N -0.0636(4) -0.0880(3) -0.3812(4)
N2 N -0.1366(4) -0.0327(4) -0.4816(4)
N3 N -0.2348(4) -0.1254(4) -0.6373(4)
O1 O 0.0483(3) -0.0151(3) -0.2188(3)
N4 N 0.3418(4) -0.1620(4) 0.0518(5)
N5 N 0.2815(4) -0.0737(4) 0.0293(5)
N6 N 0.1732(4) -0.0936(4) 0.0764(5)
O2 O 0.4456(3) -0.1716(3) 0.0039(4)
O3 O 0.1738(4) 0.1887(3) 0.1497(4)
O4 O 0.3456(4) 0.2237(3) 0.0606(5)
O5 O -0.3293(4) 0.1043(4) -0.7290(5)
C1 C -0.3002(5) -0.3673(5) -0.7598(6)
C2 C -0.2642(6) -0.4663(5) -0.7132(7)
C3 C -0.1528(6) -0.4417(5) -0.5427(7)
C4 C -0.0744(6) -0.3187(5) -0.4180(7)
C5 C -0.2229(5) -0.2422(4) -0.6334(5)
C6 C -0.1120(5) -0.2188(4) -0.4659(5)
C7 C 0.3032(5) 0.2496(4) 0.1676(6)
C8 C 0.4146(6) 0.3651(6) 0.3319(8)
H1 H 0.3609 0.3860 0.3913
H2 H 0.4582 0.4394 0.3066
H3 H 0.4960 0.3439 0.4030
C9 C 0.0629(6) -0.2653(6) 0.1790(7)
C10 C 0.0776(7) -0.3739(6) 0.2131(7)
C11 C 0.1900(7) -0.4163(6) 0.2008(8)
C12 C 0.2913(6) -0.3530(5) 0.1522(7)
C13 C 0.1630(5) -0.1992(5) 0.1260(5)
C14 C 0.2726(5) -0.2444(4) 0.1131(6)
C15 C -0.3818(8) 0.1133(7) -0.6071(7)
H4 H -0.3394 0.2036 -0.5338
H5 H -0.4930 0.0798 -0.6662
H6 H -0.3487 0.0626 -0.5389
H7 H -0.361(7) 0.137(6) -0.796(8)
H8 H -0.371(6) -0.381(5) -0.878(7)
H9 H -0.317(7) -0.555(6) -0.806(8)
H10 H -0.132(8) -0.514(7) -0.523(9)
H11 H -0.002(6) -0.300(5) -0.309(7)
H12 H -0.007(7) -0.233(5) 0.187(7)
H13 H 0.005(8) -0.425(7) 0.254(9)
H14 H 0.191(6) -0.495(6) 0.225(7)
H15 H 0.374(7) -0.380(5) 0.144(7)
Mn2A Mn 0.29956(7) 0.06216(6) 0.86058(7)
Mn2A_2 Mn 0.29956(7) 0.06216(6) -0.13942(7)
Mn2_2 Mn 0.70044(7) -0.06216(6) 0.13942(7)
Mn2_3 Mn -0.29956(7) -0.06216(6) 0.13942(7)
Mn2A_3 Mn -0.70044(7) 0.06216(6) -0.13942(7)
N1A N 0.0636(4) 0.0880(3) 0.3812(4)
N2A N 0.1366(4) 0.0327(4) 0.4816(4)
N3A N 0.2348(4) 0.1254(4) 0.6373(4)
O1A O -0.0483(3) 0.0151(3) 0.2188(3)
O1A_2 O -0.0483(3) 0.0151(3) -0.7812(3)
O1_2 O 0.0483(3) -0.0151(3) 0.7812(3)
N4A N -0.3418(4) 0.1620(4) -0.0518(5)
N5A N -0.2815(4) 0.0737(4) -0.0293(5)
N5A_2 N -0.2815(4) 0.0737(4) -1.0293(5)
N5_2 N 0.2815(4) -0.0737(4) 1.0293(5)
N6A N -0.1732(4) 0.0936(4) -0.0764(5)
O2A O -0.4456(3) 0.1716(3) -0.0039(4)
O2_2 O -0.5544(3) -0.1716(3) -0.9961(4)
O2A_2 O 0.5544(3) 0.1716(3) 0.9961(4)
O3A O -0.1738(4) -0.1887(3) -0.1497(4)
O4A O -0.3456(4) -0.2237(3) -0.0606(5)
O4A_2 O -0.3456(4) -0.2237(3) -1.0606(5)
O4_2 O 0.3456(4) 0.2237(3) 1.0606(5)
O5A O 0.3293(4) -0.1043(4) 0.7290(5)
C1A C 0.3002(5) 0.3673(5) 0.7598(6)
C2A C 0.2642(6) 0.4663(5) 0.7132(7)
C3A C 0.1528(6) 0.4417(5) 0.5427(7)
C4A C 0.0744(6) 0.3187(5) 0.4180(7)
C5A C 0.2229(5) 0.2422(4) 0.6334(5)
C6A C 0.1120(5) 0.2188(4) 0.4659(5)
C7A C -0.3032(5) -0.2496(4) -0.1676(6)
C8A C -0.4146(6) -0.3651(6) -0.3319(8)
H1A H -0.3609 -0.3860 -0.3913
H2A H -0.4582 -0.4394 -0.3066
H3A H -0.4960 -0.3439 -0.4030
C9A C -0.0629(6) 0.2653(6) -0.1790(7)
C10A C -0.0776(7) 0.3739(6) -0.2131(7)
C11A C -0.1900(7) 0.4163(6) -0.2008(8)
C12A C -0.2913(6) 0.3530(5) -0.1522(7)
C13A C -0.1630(5) 0.1992(5) -0.1260(5)
C14A C -0.2726(5) 0.2444(4) -0.1131(6)
C15A C 0.3818(8) -0.1133(7) 0.6071(7)
H4A H 0.3394 -0.2036 0.5338
H5A H 0.4930 -0.0798 0.6662
H6A H 0.3487 -0.0626 0.5389
H7A H 0.361(7) -0.137(6) 0.796(8)
H8A H 0.371(6) 0.381(5) 0.878(7)
H9A H 0.317(7) 0.555(6) 0.806(8)
H10A H 0.132(8) 0.514(7) 0.523(9)
H11A H 0.002(6) 0.300(5) 0.309(7)
H12A H 0.007(7) 0.233(5) -0.187(7)
H13A H -0.005(8) 0.425(7) -0.254(9)
H14A H -0.191(6) 0.495(6) -0.225(7)
H15A H -0.374(7) 0.380(5) -0.144(7)
loop_
_geom_bond_atom_site_label_1
_geom_bond_atom_site_label_2
_geom_bond_site_symmetry_1
_geom_bond_site_symmetry_2
Mn1 O1 1_555 1_555
Mn2 N3 1_555 1_555
N1 N2 1_555 1_555
N2 N3 1_555 1_555
N3 C5 1_555 1_555
O1 N1 1_555 1_555
N4 N5 1_555 1_555
N5 N6 1_555 1_555
N6 Mn1 1_555 1_555
O2 N4 1_555 1_555
O3 Mn1 1_555 1_555
O4 C7 1_555 1_555
O5 Mn2 1_555 1_555
C1 C2 1_555 1_555
C2 C3 1_555 1_555
C3 C4 1_555 1_555
C4 C6 1_555 1_555
C5 C1 1_555 1_555
C6 N1 1_555 1_555
C7 O3 1_555 1_555
C8 C7 1_555 1_555
H1 C8 1_555 1_555
H2 C8 1_555 1_555
H3 C8 1_555 1_555
C9 C10 1_555 1_555
C10 C11 1_555 1_555
C11 C12 1_555 1_555
C12 C14 1_555 1_555
C13 N6 1_555 1_555
C14 N4 1_555 1_555
C15 O5 1_555 1_555
H4 C15 1_555 1_555
H5 C15 1_555 1_555
H6 C15 1_555 1_555
H7 O5 1_555 1_555
H8 C1 1_555 1_555
H9 C2 1_555 1_555
H10 C3 1_555 1_555
H11 C4 1_555 1_555
H12 C9 1_555 1_555
H13 C10 1_555 1_555
H14 C11 1_555 1_555
H15 C12 1_555 1_555
Mn2A N3A 1_555 1_555
Mn2A_2 O1 1_555 1_555
Mn2_2 O2 1_555 1_555
Mn2_3 O1A 1_555 1_555
Mn2A_3 O2A 1_555 1_555
N1A N2A 1_555 1_555
N2A N3A 1_555 1_555
N3A C5A 1_555 1_555
O1A Mn1 1_555 1_555
O1A_2 Mn2 1_555 1_555
O1_2 Mn2A 1_555 1_555
N4A N5A 1_555 1_555
N5A Mn2_3 1_555 1_555
N5A_2 Mn2 1_555 1_555
N5_2 Mn2A 1_555 1_555
N6A Mn1 1_555 1_555
O2A N4A 1_555 1_555
O2_2 Mn2 1_555 1_555
O2A_2 Mn2A 1_555 1_555
O3A Mn1 1_555 1_555
O4A Mn2_3 1_555 1_555
O4A_2 Mn2 1_555 1_555
O4_2 Mn2A 1_555 1_555
O5A Mn2A 1_555 1_555
C1A C2A 1_555 1_555
C2A C3A 1_555 1_555
C3A C4A 1_555 1_555
C4A C6A 1_555 1_555
C5A C1A 1_555 1_555
C6A N1A 1_555 1_555
C7A O3A 1_555 1_555
C8A C7A 1_555 1_555
H1A C8A 1_555 1_555
H2A C8A 1_555 1_555
H3A C8A 1_555 1_555
C9A C10A 1_555 1_555
C10A C11A 1_555 1_555
C11A C12A 1_555 1_555
C12A C14A 1_555 1_555
C13A N6A 1_555 1_555
C14A N4A 1_555 1_555
C15A O5A 1_555 1_555
H4A C15A 1_555 1_555
H5A C15A 1_555 1_555
H6A C15A 1_555 1_555
H7A O5A 1_555 1_555
H8A C1A 1_555 1_555
H9A C2A 1_555 1_555
H10A C3A 1_555 1_555
H11A C4A 1_555 1_555
H12A C9A 1_555 1_555
H13A C10A 1_555 1_555
H14A C11A 1_555 1_555
H15A C12A 1_555 1_555
N5 Mn2A_2 1_555 1_555
O4 Mn2A_2 1_555 1_555
C5 C6 1_555 1_555
C9 C13 1_555 1_555
C13 C14 1_555 1_555
N1A O1A 1_555 1_555
N5A N6A 1_555 1_555
O4A C7A 1_555 1_555
C5A C6A 1_555 1_555
C9A C13A 1_555 1_555
C13A C14A 1_555 1_555

#END
