
#######################################################################
#
#                 Cambridge Crystallographic Data Centre
#                                CCDC 
#
#######################################################################
#
# If this CIF has been generated from an entry in the Cambridge 
# Structural Database, then it will include bibliographic, chemical, 
# crystal, experimental, refinement or atomic coordinate data resulting 
# from the CCDC's data processing and validation procedures.
#
#######################################################################

data_AGASOR
_symmetry_cell_setting           triclinic
_symmetry_space_group_name_H-M   'P -1'
_symmetry_Int_Tables_number      2
_space_group_name_Hall           '-P 1'
loop_
_symmetry_equiv_pos_site_id
_symmetry_equiv_pos_as_xyz
1 x,y,z
2 -x,-y,-z
_cell_length_a                   14.31(1)
_cell_length_b                   13.70(2)
_cell_length_c                   15.18(2)
_cell_angle_alpha                91.91(3)
_cell_angle_beta                 114.56(2)
_cell_angle_gamma                89.46(4)
_cell_volume                     2705.21
loop_
_atom_site_label
_atom_site_type_symbol
_atom_site_fract_x
_atom_site_fract_y
_atom_site_fract_z
Fe1 Fe -0.7469(1) 0.0036(1) 0.0081(1)
O1 O -0.7679(6) -0.1323(5) -0.0376(5)
O2 O -0.8056(5) 0.0743(5) -0.1110(5)
O3 O -0.8345(7) -0.2880(6) -0.1450(6)
O4 O -0.8930(8) 0.1181(8) -0.2929(6)
N1 N -0.7046(6) 0.1371(6) 0.0828(6)
N2 N -0.6773(6) -0.0447(6) 0.1495(6)
N3 N -0.5995(7) -0.0001(6) -0.0006(6)
N4 N -0.1016(7) -0.0020(6) -0.0090(6)
C1 C -0.6438(7) 0.0330(7) 0.2212(7)
C2 C -0.596(1) 0.019(1) 0.3196(8)
C3 C -0.563(1) 0.099(1) 0.3849(8)
C4 C -0.578(1) 0.189(1) 0.3508(10)
C5 C -0.624(1) 0.2081(9) 0.2520(9)
C6 C -0.6555(8) 0.1270(8) 0.1859(8)
C7 C -0.6646(9) -0.1348(9) 0.1748(8)
C8 C -0.6955(8) -0.2199(7) 0.1105(7)
C9 C -0.675(1) -0.3138(9) 0.1510(9)
C10 C -0.707(1) -0.3954(9) 0.094(1)
C11 C -0.763(1) -0.391(1) -0.008(1)
C12 C -0.7832(10) -0.3036(8) -0.051(1)
C13 C -0.7487(7) -0.2132(8) 0.0091(8)
C14 C -0.865(1) -0.3723(10) -0.209(1)
C15 C -0.714(1) 0.2207(9) 0.0450(10)
C16 C -0.7597(9) 0.2390(8) -0.0531(9)
C17 C -0.757(1) 0.3385(9) -0.080(1)
C18 C -0.796(2) 0.364(1) -0.175(2)
C19 C -0.845(1) 0.293(1) -0.249(1)
C20 C -0.8504(9) 0.196(1) -0.2310(9)
C21 C -0.8052(9) 0.1662(10) -0.1307(8)
C22 C -0.936(2) 0.142(1) -0.394(1)
C23 C -0.5645(9) 0.0704(9) -0.0374(9)
C24 C -0.5329(10) -0.0733(8) 0.0337(9)
C25 C -0.059(1) 0.0773(8) -0.0250(9)
C26 C -0.041(1) -0.0820(8) 0.0147(8)
H1 H -0.5845 -0.0450 0.3432
H2 H -0.5309 0.0893 0.4527
H3 H -0.5552 0.2432 0.3958
H4 H -0.6346 0.2730 0.2299
H5 H -0.6316 -0.1461 0.2423
H6 H -0.6392 -0.3195 0.2191
H7 H -0.6901 -0.4574 0.1223
H8 H -0.7869 -0.4497 -0.0455
H9 H -0.9094 -0.4117 -0.1918
H10 H -0.8063 -0.4087 -0.2026
H11 H -0.9008 -0.3524 -0.2735
H12 H -0.6877 0.2754 0.0883
H13 H -0.7278 0.3877 -0.0305
H14 H -0.7907 0.4291 -0.1906
H15 H -0.8756 0.3131 -0.3137
H16 H -0.8829 0.1672 -0.4092
H17 H -0.9876 0.1899 -0.4054
H18 H -0.9644 0.0851 -0.4325
H19 H -0.6058 0.1259 -0.0637
H20 H -0.5502 -0.1274 0.0615
H21 H -0.0966 0.1362 -0.0419
H22 H -0.0661 -0.1414 0.0271
Fe1A Fe -0.2531(1) -0.0036(1) -0.0081(1)
Fe1_2 Fe 0.2531(1) 0.0036(1) 0.0081(1)
O1A O -0.2321(6) 0.1323(5) 0.0376(5)
O2A O -0.1944(5) -0.0743(5) 0.1110(5)
O3A O -0.1655(7) 0.2880(6) 0.1450(6)
O4A O -0.1070(8) -0.1181(8) 0.2929(6)
N1A N -0.2954(6) -0.1371(6) -0.0828(6)
N2A N -0.3227(6) 0.0447(6) -0.1495(6)
N3A N -0.4005(7) 0.0001(6) 0.0006(6)
N4A N -0.8984(7) 0.0020(6) 0.0090(6)
N4A_2 N 0.1016(7) 0.0020(6) 0.0090(6)
C1A C -0.3562(7) -0.0330(7) -0.2212(7)
C2A C -0.404(1) -0.019(1) -0.3196(8)
C3A C -0.437(1) -0.099(1) -0.3849(8)
C4A C -0.422(1) -0.189(1) -0.3508(10)
C5A C -0.376(1) -0.2081(9) -0.2520(9)
C6A C -0.3445(8) -0.1270(8) -0.1859(8)
C7A C -0.3354(9) 0.1348(9) -0.1748(8)
C8A C -0.3045(8) 0.2199(7) -0.1105(7)
C9A C -0.325(1) 0.3138(9) -0.1510(9)
C10A C -0.293(1) 0.3954(9) -0.094(1)
C11A C -0.237(1) 0.391(1) 0.008(1)
C12A C -0.2168(10) 0.3036(8) 0.051(1)
C13A C -0.2513(7) 0.2132(8) -0.0091(8)
C14A C -0.135(1) 0.3723(10) 0.209(1)
C15A C -0.286(1) -0.2207(9) -0.0450(10)
C16A C -0.2403(9) -0.2390(8) 0.0531(9)
C17A C -0.243(1) -0.3385(9) 0.080(1)
C18A C -0.204(2) -0.364(1) 0.175(2)
C19A C -0.155(1) -0.293(1) 0.249(1)
C20A C -0.1496(9) -0.196(1) 0.2310(9)
C21A C -0.1948(9) -0.1662(10) 0.1307(8)
C22A C -0.064(2) -0.142(1) 0.394(1)
C23A C -0.4355(9) -0.0704(9) 0.0374(9)
C24A C -0.4671(10) 0.0733(8) -0.0337(9)
C25A C 0.059(1) -0.0773(8) 0.0250(9)
C26A C 0.041(1) 0.0820(8) -0.0147(8)
H1A H -0.4155 0.0450 -0.3432
H2A H -0.4691 -0.0893 -0.4527
H3A H -0.4448 -0.2432 -0.3958
H4A H -0.3654 -0.2730 -0.2299
H5A H -0.3684 0.1461 -0.2423
H6A H -0.3608 0.3195 -0.2191
H7A H -0.3099 0.4574 -0.1223
H8A H -0.2131 0.4497 0.0455
H9A H -0.0906 0.4117 0.1918
H10A H -0.1937 0.4087 0.2026
H11A H -0.0992 0.3524 0.2735
H12A H -0.3123 -0.2754 -0.0883
H13A H -0.2722 -0.3877 0.0305
H14A H -0.2093 -0.4291 0.1906
H15A H -0.1244 -0.3131 0.3137
H16A H -0.1171 -0.1672 0.4092
H17A H -0.0124 -0.1899 0.4054
H18A H -0.0356 -0.0851 0.4325
H19A H -0.3942 -0.1259 0.0637
H20A H -0.4498 0.1274 -0.0615
H21A H 0.0966 -0.1362 0.0419
H22A H 0.0661 0.1414 -0.0271
Fe2 Fe -0.2646(1) 0.5256(1) 0.4705(1)
O5 O -0.1913(5) 0.4793(5) 0.6035(5)
O6 O -0.2996(6) 0.4083(5) 0.3841(5)
O7 O -0.1103(6) 0.3684(6) 0.7512(5)
O8 O -0.3063(8) 0.2316(6) 0.3122(6)
N5 N -0.3406(7) 0.6099(6) 0.3464(6)
N6 N -0.2443(6) 0.6695(6) 0.5325(6)
N7 N -0.1047(7) 0.5157(6) 0.4747(6)
N8 N 0.4083(6) 0.4871(6) 0.5114(6)
C27 C -0.2868(8) 0.7419(9) 0.4636(8)
C28 C -0.286(1) 0.8432(8) 0.4859(8)
C29 C -0.329(1) 0.9094(9) 0.4121(10)
C30 C -0.375(1) 0.8773(10) 0.3177(9)
C31 C -0.381(1) 0.7779(9) 0.2919(9)
C32 C -0.3377(8) 0.7108(6) 0.3662(7)
C33 C -0.2055(8) 0.6912(7) 0.6224(8)
C34 C -0.1574(8) 0.6259(9) 0.7014(8)
C35 C -0.122(1) 0.6681(9) 0.7975(9)
C36 C -0.078(1) 0.610(1) 0.8768(9)
C37 C -0.075(1) 0.509(1) 0.8626(8)
C38 C -0.1084(8) 0.4672(9) 0.7707(8)
C39 C -0.1558(8) 0.5220(8) 0.6870(8)
C40 C -0.068(1) 0.303(1) 0.8304(9)
C41 C -0.3905(9) 0.5748(8) 0.2586(7)
C42 C -0.3997(9) 0.4721(8) 0.2278(8)
C43 C -0.457(1) 0.4506(9) 0.1261(8)
C44 C -0.466(1) 0.360(1) 0.0898(9)
C45 C -0.413(1) 0.2830(10) 0.1507(9)
C46 C -0.3597(10) 0.3003(8) 0.2464(9)
C47 C -0.3501(8) 0.3970(8) 0.2908(7)
C48 C -0.305(2) 0.1335(9) 0.274(1)
C49 C 0.4146(9) 0.4672(8) 0.4275(6)
C50 C 0.4975(9) 0.5207(9) 0.5858(8)
C51 C -0.0360(9) 0.5863(8) 0.5123(8)
C52 C -0.0691(8) 0.4277(8) 0.4612(8)
H23 H -0.2563 0.8660 0.5516
H24 H -0.3253 0.9774 0.4276
H25 H -0.4033 0.9235 0.2683
H26 H -0.4139 0.7562 0.2259
H27 H -0.2083 0.7580 0.6398
H28 H -0.1292 0.7363 0.8065
H29 H -0.0493 0.6389 0.9405
H30 H -0.0506 0.4690 0.9171
H31 H 0.0026 0.3181 0.8669
H32 H -0.1037 0.3115 0.8709
H33 H -0.0756 0.2380 0.8059
H34 H -0.4243 0.6206 0.2098
H35 H -0.4904 0.5022 0.0840
H36 H -0.5067 0.3462 0.0229
H37 H -0.4161 0.2189 0.1240
H38 H -0.2735 0.1346 0.2296
H39 H -0.3731 0.1094 0.2414
H40 H -0.2666 0.0921 0.3256
H41 H -0.1154 0.3744 0.4344
H42 H -0.0570 0.6498 0.5233
H43 H 0.4985 0.5363 0.6477
H44 H 0.3559 0.4438 0.3729
Fe2A Fe 0.2646(1) 0.4744(1) 0.5295(1)
Fe2_2 Fe 0.7354(1) 0.5256(1) 0.4705(1)
O5A O 0.1913(5) 0.5207(5) 0.3965(5)
O6A O 0.2996(6) 0.5917(5) 0.6159(5)
O7A O 0.1103(6) 0.6316(6) 0.2488(5)
O8A O 0.3063(8) 0.7684(6) 0.6878(6)
N5A N 0.3406(7) 0.3901(6) 0.6536(6)
N6A N 0.2443(6) 0.3305(6) 0.4675(6)
N7A N 0.1047(7) 0.4843(6) 0.5253(6)
N8A N -0.4083(6) 0.5129(6) 0.4886(6)
N8A_2 N 0.5917(6) 0.5129(6) 0.4886(6)
C27A C 0.2868(8) 0.2581(9) 0.5364(8)
C28A C 0.286(1) 0.1568(8) 0.5141(8)
C29A C 0.329(1) 0.0906(9) 0.5879(10)
C30A C 0.375(1) 0.1227(10) 0.6823(9)
C31A C 0.381(1) 0.2221(9) 0.7081(9)
C32A C 0.3377(8) 0.2892(6) 0.6338(7)
C33A C 0.2055(8) 0.3088(7) 0.3776(8)
C34A C 0.1574(8) 0.3741(9) 0.2986(8)
C35A C 0.122(1) 0.3319(9) 0.2025(9)
C36A C 0.078(1) 0.390(1) 0.1232(9)
C37A C 0.075(1) 0.491(1) 0.1374(8)
C38A C 0.1084(8) 0.5328(9) 0.2293(8)
C39A C 0.1558(8) 0.4780(8) 0.3130(8)
C40A C 0.068(1) 0.697(1) 0.1696(9)
C41A C 0.3905(9) 0.4252(8) 0.7414(7)
C42A C 0.3997(9) 0.5279(8) 0.7722(8)
C43A C 0.457(1) 0.5494(9) 0.8739(8)
C44A C 0.466(1) 0.640(1) 0.9102(9)
C45A C 0.413(1) 0.7170(10) 0.8493(9)
C46A C 0.3597(10) 0.6997(8) 0.7536(9)
C47A C 0.3501(8) 0.6030(8) 0.7092(7)
C48A C 0.305(2) 0.8665(9) 0.726(1)
C49A C 0.5854(9) 0.5328(8) 0.5725(6)
C50A C 0.5025(9) 0.4793(9) 0.4142(8)
C51A C 0.0360(9) 0.4137(8) 0.4877(8)
C52A C 0.0691(8) 0.5723(8) 0.5388(8)
H23A H 0.2563 0.1340 0.4484
H24A H 0.3253 0.0226 0.5724
H25A H 0.4033 0.0765 0.7317
H26A H 0.4139 0.2438 0.7741
H27A H 0.2083 0.2420 0.3602
H28A H 0.1292 0.2637 0.1935
H29A H 0.0493 0.3611 0.0595
H30A H 0.0506 0.5310 0.0829
H31A H -0.0026 0.6819 0.1331
H32A H 0.1037 0.6885 0.1291
H33A H 0.0756 0.7620 0.1941
H34A H 0.4243 0.3794 0.7902
H35A H 0.4904 0.4978 0.9160
H36A H 0.5067 0.6538 0.9771
H37A H 0.4161 0.7811 0.8760
H38A H 0.2735 0.8654 0.7704
H39A H 0.3731 0.8906 0.7586
H40A H 0.2666 0.9079 0.6744
H41A H 0.1154 0.6256 0.5656
H42A H 0.0570 0.3502 0.4767
H43A H 0.5015 0.4637 0.3523
H44A H 0.6441 0.5562 0.6271
Cl1 Cl -1.0854(4) -0.0540(3) -0.2454(3)
Cl2 Cl -0.9862(4) -0.1431(4) -0.3602(3)
C54 C -0.970(1) -0.089(1) -0.2465(9)
H47 H -0.9272 -0.0325 -0.2338
H48 H -0.9381 -0.1343 -0.1972
Cl3 Cl -0.3889(4) 0.2678(3) 0.5822(3)
Cl4 Cl -0.2213(5) 0.1447(4) 0.5877(5)
C53 C -0.280(2) 0.256(1) 0.554(1)
H45 H -0.2323 0.3068 0.5881
H46 H -0.3017 0.2626 0.4865
loop_
_geom_bond_atom_site_label_1
_geom_bond_atom_site_label_2
_geom_bond_site_symmetry_1
_geom_bond_site_symmetry_2
Fe1 O1 1_555 1_555
Fe2 O5 1_555 1_555
Cl1 C54 1_555 1_555
Cl2 C54 1_555 1_555
Cl3 C53 1_555 1_555
Cl4 C53 1_555 1_555
O1 C13 1_555 1_555
O2 Fe1 1_555 1_555
O3 C12 1_555 1_555
O4 C20 1_555 1_555
O5 C39 1_555 1_555
O6 Fe2 1_555 1_555
O7 C38 1_555 1_555
O8 C46 1_555 1_555
N1 Fe1 1_555 1_555
N2 Fe1 1_555 1_555
N3 Fe1 1_555 1_555
N4 C25 1_555 1_555
N5 Fe2 1_555 1_555
N6 Fe2 1_555 1_555
N7 Fe2 1_555 1_555
N8 C49 1_555 1_555
C1 N2 1_555 1_555
C2 C1 1_555 1_555
C3 C2 1_555 1_555
C4 C3 1_555 1_555
C5 C4 1_555 1_555
C6 N1 1_555 1_555
C7 N2 1_555 1_555
C8 C7 1_555 1_555
C9 C8 1_555 1_555
C10 C9 1_555 1_555
C11 C10 1_555 1_555
C12 C11 1_555 1_555
C13 C8 1_555 1_555
C14 O3 1_555 1_555
C15 N1 1_555 1_555
C16 C15 1_555 1_555
C17 C16 1_555 1_555
C18 C17 1_555 1_555
C19 C18 1_555 1_555
C20 C19 1_555 1_555
C21 O2 1_555 1_555
C22 O4 1_555 1_555
C23 N3 1_555 1_555
C24 N3 1_555 1_555
C25 H21 1_555 1_555
C26 N4 1_555 1_555
C27 N6 1_555 1_555
C28 C27 1_555 1_555
C29 C28 1_555 1_555
C30 C29 1_555 1_555
C31 C30 1_555 1_555
C32 N5 1_555 1_555
C33 N6 1_555 1_555
C34 C33 1_555 1_555
C35 C34 1_555 1_555
C36 C35 1_555 1_555
C37 C36 1_555 1_555
C38 C37 1_555 1_555
C39 C34 1_555 1_555
C40 O7 1_555 1_555
C41 N5 1_555 1_555
C42 C41 1_555 1_555
C43 C42 1_555 1_555
C44 C43 1_555 1_555
C45 C44 1_555 1_555
C46 C45 1_555 1_555
C47 O6 1_555 1_555
C48 O8 1_555 1_555
C49 H44 1_555 1_555
C50 N8 1_555 1_555
C51 N7 1_555 1_555
C52 N7 1_555 1_555
C53 H45 1_555 1_555
C54 H47 1_555 1_555
H1 C2 1_555 1_555
H2 C3 1_555 1_555
H3 C4 1_555 1_555
H4 C5 1_555 1_555
H5 C7 1_555 1_555
H6 C9 1_555 1_555
H7 C10 1_555 1_555
H8 C11 1_555 1_555
H9 C14 1_555 1_555
H10 C14 1_555 1_555
H11 C14 1_555 1_555
H12 C15 1_555 1_555
H13 C17 1_555 1_555
H14 C18 1_555 1_555
H15 C19 1_555 1_555
H16 C22 1_555 1_555
H17 C22 1_555 1_555
H18 C22 1_555 1_555
H19 C23 1_555 1_555
H20 C24 1_555 1_555
H22 C26 1_555 1_555
H23 C28 1_555 1_555
H24 C29 1_555 1_555
H25 C30 1_555 1_555
H26 C31 1_555 1_555
H27 C33 1_555 1_555
H28 C35 1_555 1_555
H29 C36 1_555 1_555
H30 C37 1_555 1_555
H31 C40 1_555 1_555
H32 C40 1_555 1_555
H33 C40 1_555 1_555
H34 C41 1_555 1_555
H35 C43 1_555 1_555
H36 C44 1_555 1_555
H37 C45 1_555 1_555
H38 C48 1_555 1_555
H39 C48 1_555 1_555
H40 C48 1_555 1_555
H41 C52 1_555 1_555
H42 C51 1_555 1_555
H43 C50 1_555 1_555
H46 C53 1_555 1_555
H48 C54 1_555 1_555
Fe1A N4 1_555 1_555
Fe1_2 N4A_2 1_555 1_555
Fe2A N8 1_555 1_555
Fe2_2 N8A_2 1_555 1_555
O1A Fe1A 1_555 1_555
O2A Fe1A 1_555 1_555
O3A C12A 1_555 1_555
O4A C20A 1_555 1_555
O5A Fe2A 1_555 1_555
O6A Fe2A 1_555 1_555
O7A C38A 1_555 1_555
O8A C46A 1_555 1_555
N1A Fe1A 1_555 1_555
N2A Fe1A 1_555 1_555
N3A Fe1A 1_555 1_555
N4A Fe1 1_555 1_555
N4A_2 C25A 1_555 1_555
N5A Fe2A 1_555 1_555
N6A Fe2A 1_555 1_555
N7A Fe2A 1_555 1_555
N8A Fe2 1_555 1_555
N8A_2 C49A 1_555 1_555
C1A N2A 1_555 1_555
C2A C1A 1_555 1_555
C3A C2A 1_555 1_555
C4A C3A 1_555 1_555
C5A C4A 1_555 1_555
C6A N1A 1_555 1_555
C7A N2A 1_555 1_555
C8A C7A 1_555 1_555
C9A C8A 1_555 1_555
C10A C9A 1_555 1_555
C11A C10A 1_555 1_555
C12A C11A 1_555 1_555
C13A O1A 1_555 1_555
C14A O3A 1_555 1_555
C15A N1A 1_555 1_555
C16A C15A 1_555 1_555
C17A C16A 1_555 1_555
C18A C17A 1_555 1_555
C19A C18A 1_555 1_555
C20A C19A 1_555 1_555
C21A O2A 1_555 1_555
C22A O4A 1_555 1_555
C23A C24 1_555 1_555
C24A C23 1_555 1_555
C25A C26 1_555 1_555
C26A C25 1_555 1_555
C27A N6A 1_555 1_555
C28A C27A 1_555 1_555
C29A C28A 1_555 1_555
C30A C29A 1_555 1_555
C31A C30A 1_555 1_555
C32A N5A 1_555 1_555
C33A N6A 1_555 1_555
C34A C33A 1_555 1_555
C35A C34A 1_555 1_555
C36A C35A 1_555 1_555
C37A C36A 1_555 1_555
C38A C37A 1_555 1_555
C39A O5A 1_555 1_555
C40A O7A 1_555 1_555
C41A N5A 1_555 1_555
C42A C41A 1_555 1_555
C43A C42A 1_555 1_555
C44A C43A 1_555 1_555
C45A C44A 1_555 1_555
C46A C45A 1_555 1_555
C47A O6A 1_555 1_555
C48A O8A 1_555 1_555
C49A C50 1_555 1_555
C50A C49 1_555 1_555
C51A C52 1_555 1_555
C52A C51 1_555 1_555
H1A C2A 1_555 1_555
H2A C3A 1_555 1_555
H3A C4A 1_555 1_555
H4A C5A 1_555 1_555
H5A C7A 1_555 1_555
H6A C9A 1_555 1_555
H7A C10A 1_555 1_555
H8A C11A 1_555 1_555
H9A C14A 1_555 1_555
H10A C14A 1_555 1_555
H11A C14A 1_555 1_555
H12A C15A 1_555 1_555
H13A C17A 1_555 1_555
H14A C18A 1_555 1_555
H15A C19A 1_555 1_555
H16A C22A 1_555 1_555
H17A C22A 1_555 1_555
H18A C22A 1_555 1_555
H19A C23A 1_555 1_555
H20A C24A 1_555 1_555
H21A C25A 1_555 1_555
H22A C26A 1_555 1_555
H23A C28A 1_555 1_555
H24A C29A 1_555 1_555
H25A C30A 1_555 1_555
H26A C31A 1_555 1_555
H27A C33A 1_555 1_555
H28A C35A 1_555 1_555
H29A C36A 1_555 1_555
H30A C37A 1_555 1_555
H31A C40A 1_555 1_555
H32A C40A 1_555 1_555
H33A C40A 1_555 1_555
H34A C41A 1_555 1_555
H35A C43A 1_555 1_555
H36A C44A 1_555 1_555
H37A C45A 1_555 1_555
H38A C48A 1_555 1_555
H39A C48A 1_555 1_555
H40A C48A 1_555 1_555
H41A C52A 1_555 1_555
H42A C51A 1_555 1_555
H43A C50A 1_555 1_555
H44A C49A 1_555 1_555
C1 C6 1_555 1_555
C5 C6 1_555 1_555
C12 C13 1_555 1_555
C16 C21 1_555 1_555
C20 C21 1_555 1_555
C27 C32 1_555 1_555
C31 C32 1_555 1_555
C38 C39 1_555 1_555
C42 C47 1_555 1_555
C46 C47 1_555 1_555
N3A C23A 1_555 1_555
N3A C24A 1_555 1_555
N4A_2 C26A 1_555 1_555
N7A C51A 1_555 1_555
N7A C52A 1_555 1_555
N8A_2 C50A 1_555 1_555
C1A C6A 1_555 1_555
C5A C6A 1_555 1_555
C8A C13A 1_555 1_555
C12A C13A 1_555 1_555
C16A C21A 1_555 1_555
C20A C21A 1_555 1_555
C27A C32A 1_555 1_555
C31A C32A 1_555 1_555
C34A C39A 1_555 1_555
C38A C39A 1_555 1_555
C42A C47A 1_555 1_555
C46A C47A 1_555 1_555

#END
