
#######################################################################
#
#                 Cambridge Crystallographic Data Centre
#                                CCDC 
#
#######################################################################
#
# If this CIF has been generated from an entry in the Cambridge 
# Structural Database, then it will include bibliographic, chemical, 
# crystal, experimental, refinement or atomic coordinate data resulting 
# from the CCDC's data processing and validation procedures.
#
#######################################################################

data_AGAXAH
_symmetry_cell_setting           monoclinic
_symmetry_space_group_name_H-M   'C 2/m'
_symmetry_Int_Tables_number      12
_space_group_name_Hall           '-C 2y'
loop_
_symmetry_equiv_pos_site_id
_symmetry_equiv_pos_as_xyz
1 x,y,z
2 -x,y,-z
3 1/2+x,1/2+y,z
4 1/2-x,1/2+y,-z
5 -x,-y,-z
6 x,-y,z
7 1/2-x,1/2-y,-z
8 1/2+x,1/2-y,z
_cell_length_a                   13.7877(4)
_cell_length_b                   16.6254(5)
_cell_length_c                   10.6179(4)
_cell_angle_alpha                90
_cell_angle_beta                 112.364(1)
_cell_angle_gamma                90
_cell_volume                     2250.83
loop_
_atom_site_label
_atom_site_type_symbol
_atom_site_fract_x
_atom_site_fract_y
_atom_site_fract_z
Zn1 Zn 0.04355(9) 0.5000 0.14864(11)
O1 O 0.1376(4) 0.4141(3) 0.1225(5)
O2 O 0.0720(4) 0.4154(3) -0.1033(5)
O3 O 0.0901(5) 0.5000 0.3514(6)
N1 N 0.0942(8) 0.4236(7) 0.5350(11)
C1 C 0.1313(5) 0.3884(4) 0.0087(7)
C2 C 0.1969(5) 0.3172(4) 0.0063(7)
C3 C 0.2978(6) 0.2866(4) 0.1212(7)
C4 C 0.1526(5) 0.2296(4) -0.0135(8)
C5 C 0.2478(6) 0.3007(4) -0.0995(7)
C6 C 0.0593(10) 0.4365(8) 0.4002(13)
C7 C 0.1713(10) 0.4742(7) 0.6302(13)
C8 C 0.0559(12) 0.3477(9) 0.5809(15)
H1 H 0.3322 0.3120 0.2070
H2 H 0.0833 0.2153 -0.0237
H3 H 0.2458 0.3365 -0.1704
C4F C 0.3474(5) 0.2704(4) 0.0135(8)
C2F C 0.3031(5) 0.1828(4) -0.0063(7)
C1F C 0.3687(5) 0.1116(4) -0.0087(7)
O1F O 0.3624(4) 0.0859(3) -0.1225(5)
O2F O 0.4280(4) 0.0846(3) 0.1033(5)
C3F C 0.2022(6) 0.2134(4) -0.1212(7)
H1F H 0.1678 0.1880 -0.2070
H2F H 0.4167 0.2847 0.0237
C5F C 0.2522(6) 0.1993(4) 0.0995(7)
H3F H 0.2542 0.1635 0.1704
C7E C 0.1713(10) 0.5258(7) 0.6302(13)
N1E N 0.0942(8) 0.5764(7) 0.5350(11)
C6E C 0.0593(10) 0.5635(8) 0.4002(13)
C8E C 0.0559(12) 0.6523(9) 0.5809(15)
O1E O 0.1376(4) 0.5859(3) 0.1225(5)
O2E O 0.0720(4) 0.5846(3) -0.1033(5)
C1E C 0.1313(5) 0.6116(4) 0.0087(7)
C2E C 0.1969(5) 0.6828(4) 0.0063(7)
C3E C 0.2978(6) 0.7134(4) 0.1212(7)
C4E C 0.1526(5) 0.7704(4) -0.0135(8)
C5E C 0.2478(6) 0.6993(4) -0.0995(7)
H1E H 0.3322 0.6880 0.2070
H2E H 0.0833 0.7847 -0.0237
H3E H 0.2458 0.6635 -0.1704
C4C C 0.3474(5) 0.7296(4) 0.0135(8)
C2C C 0.3031(5) 0.8172(4) -0.0063(7)
C1C C 0.3687(5) 0.8884(4) -0.0087(7)
O1C O 0.3624(4) 0.9141(3) -0.1225(5)
O2C O 0.4280(4) 0.9154(3) 0.1033(5)
C3C C 0.2022(6) 0.7866(4) -0.1212(7)
H1C H 0.1678 0.8120 -0.2070
H2C H 0.4167 0.7153 0.0237
C5C C 0.2522(6) 0.8007(4) 0.0995(7)
H3C H 0.2542 0.8365 0.1704
Zn1F Zn 0.45645(9) 0.0000 -0.14864(11)
O3F O 0.4099(5) 0.0000 -0.3514(6)
N1F N 0.4058(8) 0.0764(7) -0.5350(11)
C6F C 0.4407(10) 0.0635(8) -0.4002(13)
C7F C 0.3287(10) 0.0258(7) -0.6302(13)
C8F C 0.4441(12) 0.1523(9) -0.5809(15)
C7C C 0.3287(10) -0.0258(7) -0.6302(13)
N1C N 0.4058(8) -0.0764(7) -0.5350(11)
C6C C 0.4407(10) -0.0635(8) -0.4002(13)
C8C C 0.4441(12) -0.1523(9) -0.5809(15)
O2A O -0.0720(4) 0.4154(3) 0.1033(5)
O2D O -0.0720(4) 0.5846(3) 0.1033(5)
Zn1A Zn -0.04355(9) 0.5000 -0.14864(11)
Zn1B Zn 0.54355(9) 0.0000 0.14864(11)
Zn1C Zn 0.45645(9) 1.0000 -0.14864(11)
Zn1B_2 Zn 0.54355(9) 1.0000 0.14864(11)
O1C_2 O 0.3624(4) -0.0859(3) -0.1225(5)
O2B O 0.5720(4) -0.0846(3) -0.1033(5)
O2G O 0.5720(4) 0.0846(3) -0.1033(5)
Cl1 Cl 0.4071(14) 0.3351(12) 0.639(2)
C13 C 0.273(2) 0.3360(17) 0.440(3)
C15 C 0.318(3) 0.225(2) 0.624(3)
C16 C 0.2500 0.2500 0.5000
C17 C 0.328(3) 0.295(2) 0.580(4)
C15F C 0.182(3) 0.275(2) 0.376(3)
C13F C 0.227(2) 0.1640(17) 0.560(3)
C17F C 0.172(3) 0.205(2) 0.420(4)
Cl1F Cl 0.0929(14) 0.1649(12) 0.361(2)
C9 C 0.442(3) 0.527(2) -0.134(4)
C10 C 0.4556(16) 0.5000 -0.033(2)
C11 C 0.3540(8) 0.5000 0.0106(12)
C12 C 0.3828(11) 0.5000 0.0971(15)
C9E C 0.442(3) 0.473(2) -0.134(4)
C10A C 0.5444(16) 0.5000 0.033(2)
C9A C 0.558(3) 0.527(2) 0.134(4)
C9D C 0.558(3) 0.473(2) 0.134(4)
C11A C 0.6460(8) 0.5000 -0.0106(12)
C12A C 0.6172(11) 0.5000 -0.0971(15)
Cl2? Cl 0.3822(12) 0.2640(11) 0.6786(14)
C14? C 0.270(2) 0.2004(15) 0.582(2)
C18? C 0.3856(17) 0.3022(15) 0.644(2)
C19? C 0.348(2) 0.3559(15) 0.521(3)
loop_
_geom_bond_atom_site_label_1
_geom_bond_atom_site_label_2
_geom_bond_site_symmetry_1
_geom_bond_site_symmetry_2
Zn1 O1 1_555 1_555
Cl1 C17 1_555 1_555
O1 C1 1_555 1_555
O2 C1 1_555 1_555
O3 Zn1 1_555 1_555
N1 C6 1_555 1_555
C1 C2 1_555 1_555
C2 C3 1_555 1_555
C3 H1 1_555 1_555
C4 C2 1_555 1_555
C5 C2 1_555 1_555
C6 O3 1_555 1_555
C7 N1 1_555 1_555
C8 N1 1_555 1_555
C9 C10 1_555 1_555
C10 C11 1_555 1_555
C11 C12 1_555 1_555
C13 C17 1_555 1_555
C15 C16 1_555 1_555
C16 C17 1_555 1_555
C17 C15 1_555 1_555
H2 C4 1_555 1_555
H3 C5 1_555 1_555
C15F C13 1_555 1_555
C13F C15 1_555 1_555
C17F C16 1_555 1_555
Cl1F C17F 1_555 1_555
C4F C3 1_555 1_555
C2F C4F 1_555 1_555
C1F C2F 1_555 1_555
O1F C1F 1_555 1_555
O2F C1F 1_555 1_555
C3F C4 1_555 1_555
H1F C3F 1_555 1_555
H2F C4F 1_555 1_555
C5F C3 1_555 1_555
H3F C5F 1_555 1_555
C7E C7 1_555 1_555
N1E C7E 1_555 1_555
C6E O3 1_555 1_555
C8E N1E 1_555 1_555
C9E C9 1_555 1_555
C10A C10 1_555 1_555
C9A C10A 1_555 1_555
C9D C10A 1_555 1_555
C11A C10A 1_555 1_555
C12A C11A 1_555 1_555
O1E Zn1 1_555 1_555
O2E C1E 1_555 1_555
C1E O1E 1_555 1_555
C2E C1E 1_555 1_555
C3E C2E 1_555 1_555
C4E C2E 1_555 1_555
C5E C2E 1_555 1_555
H1E C3E 1_555 1_555
H2E C4E 1_555 1_555
H3E C5E 1_555 1_555
C4C C3E 1_555 1_555
C2C C4C 1_555 1_555
C1C C2C 1_555 1_555
O1C C1C 1_555 1_555
O2C C1C 1_555 1_555
C3C C4E 1_555 1_555
H1C C3C 1_555 1_555
H2C C4C 1_555 1_555
C5C C3E 1_555 1_555
H3C C5C 1_555 1_555
Zn1F O1F 1_555 1_555
O3F Zn1F 1_555 1_555
N1F C6F 1_555 1_555
C6F O3F 1_555 1_555
C7F N1F 1_555 1_555
C8F N1F 1_555 1_555
C7C C7F 1_555 1_555
N1C C7C 1_555 1_555
C6C O3F 1_555 1_555
C8C N1C 1_555 1_555
O2A Zn1 1_555 1_555
O2D Zn1 1_555 1_555
Zn1A O2 1_555 1_555
Zn1B O2F 1_555 1_555
Zn1C O1C 1_555 1_555
Zn1B_2 O2C 1_555 1_555
O1C_2 Zn1F 1_555 1_555
O2B Zn1F 1_555 1_555
O2G Zn1F 1_555 1_555
C4 C5F 1_555 1_555
C5 C3F 1_555 1_555
C5 C4F 1_555 1_555
C10 C9E 1_555 1_555
C16 C15F 1_555 1_555
C15F C17F 1_555 1_555
C13F C17F 1_555 1_555
C2F C3F 1_555 1_555
C2F C5F 1_555 1_555
N1E C6E 1_555 1_555
C9A C9D 1_555 1_555
O2E Zn1A 1_555 1_555
C4E C5C 1_555 1_555
C5E C3C 1_555 1_555
C5E C4C 1_555 1_555
C2C C3C 1_555 1_555
C2C C5C 1_555 1_555
N1C C6C 1_555 1_555

#END
