
#######################################################################
#
#                 Cambridge Crystallographic Data Centre
#                                CCDC 
#
#######################################################################
#
# If this CIF has been generated from an entry in the Cambridge 
# Structural Database, then it will include bibliographic, chemical, 
# crystal, experimental, refinement or atomic coordinate data resulting 
# from the CCDC's data processing and validation procedures.
#
#######################################################################

data_AGAXEL
_symmetry_cell_setting           monoclinic
_symmetry_space_group_name_H-M   'P 21/c'
_symmetry_Int_Tables_number      14
_space_group_name_Hall           '-P 2ybc'
loop_
_symmetry_equiv_pos_site_id
_symmetry_equiv_pos_as_xyz
1 x,y,z
2 x,1/2-y,1/2+z
3 -x,-y,-z
4 -x,1/2+y,1/2-z
_cell_length_a                   8.130(2)
_cell_length_b                   16.444(5)
_cell_length_c                   12.807(4)
_cell_angle_alpha                90
_cell_angle_beta                 92.127(5)
_cell_angle_gamma                90
_cell_volume                     1710.98
loop_
_atom_site_label
_atom_site_type_symbol
_atom_site_fract_x
_atom_site_fract_y
_atom_site_fract_z
Zn1 Zn 0.37295(4) 0.50326(2) 0.07902(3)
O1 O 0.5364(3) 0.42633(15) 0.15341(18)
O2 O 0.7258(3) 0.42175(15) 0.03144(18)
O3 O 1.2822(3) 0.09175(14) 0.49547(18)
O4 O 1.4717(3) 0.09610(14) 0.37277(18)
O5 O 0.2093(3) 0.51451(13) 0.18864(17)
C1 C 0.6720(5) 0.4041(2) 0.1191(3)
C2 C 0.7807(4) 0.35203(19) 0.1890(2)
C3 C 0.7149(4) 0.31247(19) 0.2775(3)
H1 H 0.6033 0.3216 0.2938
C4 C 0.8087(4) 0.26206(19) 0.3388(3)
H2 H 0.7618 0.2356 0.3966
C5 C 0.9761(4) 0.24864(19) 0.3172(2)
C6 C 1.0773(4) 0.19368(19) 0.3768(2)
H3 H 1.0330 0.1662 0.4347
C7 C 1.2369(4) 0.17980(19) 0.3521(2)
C8 C 1.3057(4) 0.22204(19) 0.2675(3)
H4 H 1.4170 0.2125 0.2510
C9 C 1.2131(4) 0.2764(2) 0.2094(3)
H5 H 1.2611 0.3046 0.1535
C10 C 1.0458(4) 0.29092(19) 0.2321(2)
C11 C 0.9437(4) 0.34230(19) 0.1692(3)
H6 H 0.9891 0.3705 0.1122
C12 C 1.3385(4) 0.11781(19) 0.4110(3)
C13 C 0.2195(4) 0.5683(2) 0.2576(3)
H7 H 0.3040 0.6080 0.2530
N1 N 0.1200(4) 0.57319(18) 0.3360(2)
C14 C 0.1447(5) 0.6332(2) 0.4201(3)
H8 H 0.2227 0.6748 0.3985
H9 H 0.1885 0.6059 0.4832
H10 H 0.0393 0.6589 0.4348
C15 C -0.0101(6) 0.5140(3) 0.3452(4)
H11 H -0.0650 0.5055 0.2766
H12 H -0.0902 0.5339 0.3945
H13 H 0.0367 0.4625 0.3707
O2B O 0.2742(3) 0.57825(15) -0.03144(18)
O3A O 0.2822(3) 0.40825(14) -0.00453(18)
O4C O 0.5283(3) 0.59610(14) 0.12723(18)
Zn1B Zn 0.62705(4) 0.49674(2) -0.07902(3)
Zn1A Zn 1.37295(4) -0.00326(2) 0.57902(3)
Zn1C Zn 1.62705(4) 0.00326(2) 0.42098(3)
loop_
_geom_bond_atom_site_label_1
_geom_bond_atom_site_label_2
_geom_bond_site_symmetry_1
_geom_bond_site_symmetry_2
Zn1 O1 1_555 1_555
O1 C1 1_555 1_555
O2 C1 1_555 1_555
O3 C12 1_555 1_555
O4 C12 1_555 1_555
O5 Zn1 1_555 1_555
C1 C2 1_555 1_555
C2 C3 1_555 1_555
C3 H1 1_555 1_555
C4 C3 1_555 1_555
H2 C4 1_555 1_555
C5 C4 1_555 1_555
C6 C5 1_555 1_555
H3 C6 1_555 1_555
C7 C6 1_555 1_555
C8 C7 1_555 1_555
H4 C8 1_555 1_555
C9 C8 1_555 1_555
H5 C9 1_555 1_555
C10 C5 1_555 1_555
C11 C2 1_555 1_555
H6 C11 1_555 1_555
C12 C7 1_555 1_555
C13 O5 1_555 1_555
H7 C13 1_555 1_555
N1 C13 1_555 1_555
C14 N1 1_555 1_555
H8 C14 1_555 1_555
H9 C14 1_555 1_555
H10 C14 1_555 1_555
C15 N1 1_555 1_555
H11 C15 1_555 1_555
H12 C15 1_555 1_555
H13 C15 1_555 1_555
O2B Zn1 1_555 1_555
O3A Zn1 1_555 1_555
O4C Zn1 1_555 1_555
Zn1B O2 1_555 1_555
Zn1A O3 1_555 1_555
Zn1C O4 1_555 1_555
C9 C10 1_555 1_555
C10 C11 1_555 1_555

#END
