
#######################################################################
#
#                 Cambridge Crystallographic Data Centre
#                                CCDC 
#
#######################################################################
#
# If this CIF has been generated from an entry in the Cambridge 
# Structural Database, then it will include bibliographic, chemical, 
# crystal, experimental, refinement or atomic coordinate data resulting 
# from the CCDC's data processing and validation procedures.
#
#######################################################################

data_AGDCNM
_symmetry_cell_setting           monoclinic
_symmetry_space_group_name_H-M   'C 2/c'
_symmetry_Int_Tables_number      15
_space_group_name_Hall           '-C 2yn'
loop_
_symmetry_equiv_pos_site_id
_symmetry_equiv_pos_as_xyz
1 x,y,z
2 1/2+x,1/2+y,z
3 -x,y,1/2-z
4 1/2-x,1/2+y,1/2-z
5 -x,-y,-z
6 1/2-x,1/2-y,-z
7 x,-y,1/2+z
8 1/2+x,1/2-y,1/2+z
_cell_length_a                   29.571(20)
_cell_length_b                   7.818(8)
_cell_length_c                   19.581(14)
_cell_angle_alpha                90
_cell_angle_beta                 116.69(5)
_cell_angle_gamma                90
_cell_volume                     4044.52
loop_
_atom_site_label
_atom_site_type_symbol
_atom_site_fract_x
_atom_site_fract_y
_atom_site_fract_z
Ag1 Ag -0.18440 1.34570 0.05231
Ag2 Ag -0.10928 0.80325 0.42293
Ag3 Ag -0.38957 0.76413 -0.21194
Ag4 Ag -0.38744 0.83511 0.17894
C1 C -0.21330 0.83960 -0.05500
C2 C -0.22990 1.03580 0.21650
C3 C -0.22170 1.14970 0.16750
C4 C -0.27720 0.97920 0.20480
C5 C -0.26400 0.82760 -0.11070
C6 C -0.18790 0.99490 -0.03030
C7 C -0.03290 0.27300 0.54090
C8 C -0.05730 0.42710 0.50690
C9 C 0.01210 0.26740 0.60550
C10 C -0.04730 1.25840 0.15990
C11 C -0.00230 1.27440 0.15510
C12 C -0.06780 1.10350 0.16500
N1 N -0.19050 0.69350 -0.01490
N2 N -0.18800 0.96640 0.27580
N3 N -0.21610 1.24200 0.12690
N4 N -0.31650 0.93110 0.19360
N5 N -0.30440 0.81570 -0.15660
N6 N -0.16750 1.12230 -0.00900
N7 N -0.05640 0.12400 0.50500
N8 N -0.07660 0.55300 0.47980
N9 N 0.05070 0.26940 0.65940
N10 N -0.06910 1.40360 0.17020
N11 N 0.03470 1.29120 0.15200
N12 N -0.08390 0.97530 0.17150
O1 O -0.21670 0.55820 -0.03630
O2 O -0.14810 0.69540 0.03680
O3 O -0.09680 0.12700 0.44430
O4 O -0.03640 -0.01670 0.53420
O5 O -0.04890 1.54620 0.17450
O6 O -0.10930 1.39450 0.17650
O7 O -0.19360 0.86160 0.31930
O8 O -0.14480 1.00760 0.28400
O1_2 O -0.21670 1.55820 -0.03630
O3_2 O -0.09680 1.12700 0.44430
N9A N -0.44930 0.76940 -0.34060
N12E N -0.41610 0.52470 -0.17150
N11A N -0.46530 0.79120 0.15200
Ag3A Ag 0.11043 0.26413 0.78806
Ag4A Ag 0.11256 1.33511 0.17894
Ag3E Ag -0.11043 0.73587 0.21194
Ag1_2 Ag -0.18440 0.34570 0.05231
Ag2_2 Ag -0.10928 -0.19675 0.42293
loop_
_geom_bond_atom_site_label_1
_geom_bond_atom_site_label_2
_geom_bond_site_symmetry_1
_geom_bond_site_symmetry_2
Ag1 N3 1_555 1_555
Ag2 N8 1_555 1_555
Ag3 N5 1_555 1_555
Ag4 N4 1_555 1_555
C1 C5 1_555 1_555
C2 C3 1_555 1_555
C3 N3 1_555 1_555
C4 C2 1_555 1_555
C5 N5 1_555 1_555
C6 C1 1_555 1_555
C7 C8 1_555 1_555
C8 N8 1_555 1_555
C9 C7 1_555 1_555
C10 C11 1_555 1_555
C11 N11 1_555 1_555
C12 C10 1_555 1_555
N1 C1 1_555 1_555
N2 C2 1_555 1_555
N4 C4 1_555 1_555
N6 Ag1 1_555 1_555
N7 C7 1_555 1_555
N9 C9 1_555 1_555
N10 C10 1_555 1_555
N11 Ag4A 1_555 1_555
N12 C12 1_555 1_555
O1 N1 1_555 1_555
O2 N1 1_555 1_555
O3 N7 1_555 1_555
O4 N7 1_555 1_555
O5 N10 1_555 1_555
O6 Ag1 1_555 1_555
O7 Ag2 1_555 1_555
O8 N2 1_555 1_555
O1_2 Ag1 1_555 1_555
O3_2 Ag2 1_555 1_555
N9A Ag3 1_555 1_555
N12E Ag3 1_555 1_555
N11A Ag4 1_555 1_555
Ag3A N9 1_555 1_555
Ag3E N12 1_555 1_555
Ag1_2 O1 1_555 1_555
Ag2_2 O3 1_555 1_555
C6 N6 1_555 1_555
N2 O7 1_555 1_555
N10 O6 1_555 1_555

#END
