
#######################################################################
#
#                 Cambridge Crystallographic Data Centre
#                                CCDC 
#
#######################################################################
#
# If this CIF has been generated from an entry in the Cambridge 
# Structural Database, then it will include bibliographic, chemical, 
# crystal, experimental, refinement or atomic coordinate data resulting 
# from the CCDC's data processing and validation procedures.
#
#######################################################################

data_AGEZUJ
_symmetry_cell_setting           triclinic
_symmetry_space_group_name_H-M   'P -1'
_symmetry_Int_Tables_number      2
_space_group_name_Hall           '-P 1'
loop_
_symmetry_equiv_pos_site_id
_symmetry_equiv_pos_as_xyz
1 x,y,z
2 -x,-y,-z
_cell_length_a                   8.0080(2)
_cell_length_b                   10.0938(3)
_cell_length_c                   11.3153(3)
_cell_angle_alpha                107.5040(10)
_cell_angle_beta                 98.0210(10)
_cell_angle_gamma                97.9710(10)
_cell_volume                     847.795
loop_
_atom_site_label
_atom_site_type_symbol
_atom_site_fract_x
_atom_site_fract_y
_atom_site_fract_z
Pb1 Pb 0.47052(2) 0.84913(2) 1.352514(18)
Pb2 Pb 1.0000 1.0000 1.5000
Br1 Br 0.72370(7) 0.86239(6) 1.60294(5)
Br2 Br 1.20395(7) 0.76648(6) 1.48207(5)
Br3 Br 1.20597(7) 1.14950(6) 1.76192(5)
O1 O 0.4806(6) 0.1795(4) 1.1015(4)
O2 O 0.0191(6) 0.5482(5) 0.7783(4)
N1 N 0.4632(6) 0.5995(5) 1.2679(5)
N2 N 0.2785(6) 0.7376(5) 1.1451(5)
C1 C 0.5536(7) 0.5303(6) 1.3315(5)
H1 H 0.6130 0.5822 1.4151
C2 C 0.5657(7) 0.3916(6) 1.2847(5)
H2 H 0.6304 0.3484 1.3343
C3 C 0.4805(7) 0.3151(6) 1.1617(5)
C4 C 0.3853(7) 0.3842(6) 1.0931(5)
H3 H 0.3250 0.3342 1.0094
C5 C 0.3800(6) 0.5244(6) 1.1479(5)
C6 C 0.2794(7) 0.6030(6) 1.0799(5)
C7 C 0.1914(7) 0.5386(6) 0.9567(5)
H4 H 0.1940 0.4429 0.9124
C8 C 0.0985(7) 0.6177(6) 0.8990(6)
C9 C 0.0936(7) 0.7558(6) 0.9656(5)
H5 H 0.0306 0.8111 0.9285
C10 C 0.1853(8) 0.8111(7) 1.0904(6)
H6 H 0.1811 0.9052 1.1383
C11 C 0.5777(8) 0.1053(6) 1.1671(5)
H7 H 0.5687 0.0079 1.1119
H8 H 0.5324 0.1041 1.2430
H9 H 0.6985 0.1530 1.1915
C12 C -0.0659(8) 0.6248(7) 0.7074(6)
H10 H -0.1214 0.5599 0.6232
H11 H 0.0186 0.7001 0.6995
H12 H -0.1529 0.6665 0.7513
Pb1A Pb 1.52948(2) 1.15087(2) 1.647486(18)
Br1A Br 1.27630(7) 1.13761(6) 1.39706(5)
Br2A Br 0.79605(7) 1.23352(6) 1.51793(5)
Br3A Br 0.79403(7) 0.85050(6) 1.23808(5)
O1A O 1.5194(6) 1.8205(4) 1.8985(4)
O2A O 1.9809(6) 1.4518(5) 2.2217(4)
N1A N 1.5368(6) 1.4005(5) 1.7321(5)
N2A N 1.7215(6) 1.2624(5) 1.8549(5)
C1A C 1.4464(7) 1.4697(6) 1.6685(5)
H1A H 1.3870 1.4178 1.5849
C2A C 1.4343(7) 1.6084(6) 1.7153(5)
H2A H 1.3696 1.6516 1.6657
C3A C 1.5195(7) 1.6849(6) 1.8383(5)
C4A C 1.6147(7) 1.6158(6) 1.9069(5)
H3A H 1.6750 1.6658 1.9906
C5A C 1.6200(6) 1.4756(6) 1.8521(5)
C6A C 1.7206(7) 1.3970(6) 1.9201(5)
C7A C 1.8086(7) 1.4614(6) 2.0433(5)
H4A H 1.8060 1.5571 2.0876
C8A C 1.9015(7) 1.3823(6) 2.1010(6)
C9A C 1.9064(7) 1.2442(6) 2.0344(5)
H5A H 1.9694 1.1889 2.0715
C10A C 1.8147(8) 1.1889(7) 1.9096(6)
H6A H 1.8189 1.0948 1.8617
C11A C 1.4223(8) 1.8947(6) 1.8329(5)
H7A H 1.4313 1.9921 1.8881
H8A H 1.4676 1.8959 1.7570
H9A H 1.3015 1.8470 1.8085
C12A C 2.0659(8) 1.3752(7) 2.2926(6)
H10A H 2.1214 1.4401 2.3768
H11A H 1.9814 1.2999 2.3005
H12A H 2.1529 1.3335 2.2487
Pb1_2 Pb 1.47052(2) 0.84913(2) 1.352514(18)
Pb1A_2 Pb 0.52948(2) 1.15087(2) 1.647486(18)
Br2_2 Br 0.20395(7) 0.76648(6) 1.48207(5)
Br2A_2 Br 1.79605(7) 1.23352(6) 1.51793(5)
loop_
_geom_bond_atom_site_label_1
_geom_bond_atom_site_label_2
_geom_bond_site_symmetry_1
_geom_bond_site_symmetry_2
Pb1 Br1 1_555 1_555
Pb2 Br1 1_555 1_555
Br2 Pb2 1_555 1_555
Br3 Pb2 1_555 1_555
O1 C3 1_555 1_555
O2 C8 1_555 1_555
N1 Pb1 1_555 1_555
N2 Pb1 1_555 1_555
C1 N1 1_555 1_555
H1 C1 1_555 1_555
C2 C1 1_555 1_555
H2 C2 1_555 1_555
C3 C2 1_555 1_555
C4 C3 1_555 1_555
H3 C4 1_555 1_555
C5 N1 1_555 1_555
C6 N2 1_555 1_555
C7 C6 1_555 1_555
H4 C7 1_555 1_555
C8 C7 1_555 1_555
C9 C8 1_555 1_555
H5 C9 1_555 1_555
C10 N2 1_555 1_555
H6 C10 1_555 1_555
C11 O1 1_555 1_555
H7 C11 1_555 1_555
H8 C11 1_555 1_555
H9 C11 1_555 1_555
C12 O2 1_555 1_555
H10 C12 1_555 1_555
H11 C12 1_555 1_555
H12 C12 1_555 1_555
Pb1A Br3 1_555 1_555
Br1A Pb2 1_555 1_555
Br2A Pb2 1_555 1_555
Br3A Pb1 1_555 1_555
O1A C3A 1_555 1_555
O2A C8A 1_555 1_555
N1A Pb1A 1_555 1_555
N2A Pb1A 1_555 1_555
C1A N1A 1_555 1_555
H1A C1A 1_555 1_555
C2A C1A 1_555 1_555
H2A C2A 1_555 1_555
C3A C2A 1_555 1_555
C4A C3A 1_555 1_555
H3A C4A 1_555 1_555
C5A N1A 1_555 1_555
C6A N2A 1_555 1_555
C7A C6A 1_555 1_555
H4A C7A 1_555 1_555
C8A C7A 1_555 1_555
C9A C8A 1_555 1_555
H5A C9A 1_555 1_555
C10A N2A 1_555 1_555
H6A C10A 1_555 1_555
C11A O1A 1_555 1_555
H7A C11A 1_555 1_555
H8A C11A 1_555 1_555
H9A C11A 1_555 1_555
C12A O2A 1_555 1_555
H10A C12A 1_555 1_555
H11A C12A 1_555 1_555
H12A C12A 1_555 1_555
Pb1_2 Br2 1_555 1_555
Pb1A_2 Br2A 1_555 1_555
Br2_2 Pb1 1_555 1_555
Br2A_2 Pb1A 1_555 1_555
Pb2 Br3A 1_555 1_555
C4 C5 1_555 1_555
C5 C6 1_555 1_555
C9 C10 1_555 1_555
Pb1A Br1A 1_555 1_555
C4A C5A 1_555 1_555
C5A C6A 1_555 1_555
C9A C10A 1_555 1_555

#END
