
#######################################################################
#
#                 Cambridge Crystallographic Data Centre
#                                CCDC 
#
#######################################################################
#
# If this CIF has been generated from an entry in the Cambridge 
# Structural Database, then it will include bibliographic, chemical, 
# crystal, experimental, refinement or atomic coordinate data resulting 
# from the CCDC's data processing and validation procedures.
#
#######################################################################

data_AGEZOD
_symmetry_cell_setting           orthorhombic
_symmetry_space_group_name_H-M   'P c a 21'
_symmetry_Int_Tables_number      29
_space_group_name_Hall           'P 2c -2ac'
loop_
_symmetry_equiv_pos_site_id
_symmetry_equiv_pos_as_xyz
1 x,y,z
2 -x,-y,1/2+z
3 1/2+x,-y,z
4 1/2-x,y,1/2+z
_cell_length_a                   10.3127(4)
_cell_length_b                   18.0775(6)
_cell_length_c                   8.5977(3)
_cell_angle_alpha                90
_cell_angle_beta                 90
_cell_angle_gamma                90
_cell_volume                     1602.85
loop_
_atom_site_label
_atom_site_type_symbol
_atom_site_fract_x
_atom_site_fract_y
_atom_site_fract_z
Pb1 Pb -0.687078(9) 0.755382(5) 1.12212(2)
I1 I -0.571368(16) 0.663092(10) 1.41507(3)
I2 I -0.771113(18) 0.882578(10) 1.37987(3)
O1 O -0.2586(2) 0.55788(13) 0.7168(4)
O2 O -0.0905(2) 0.88751(13) 1.0842(4)
N1 N -0.5318(3) 0.68173(14) 0.9542(3)
N2 N -0.4618(2) 0.80347(13) 1.1194(4)
C1 C -0.5668(3) 0.61988(16) 0.8787(5)
H1 H -0.6556 0.6061 0.8821
C2 C -0.4834(3) 0.57488(17) 0.7964(4)
H2 H -0.5136 0.5318 0.7444
C3 C -0.3523(3) 0.59518(17) 0.7927(4)
C4 C -0.3133(3) 0.65846(19) 0.8718(5)
H3 H -0.2247 0.6728 0.8715
C5 C -0.4043(3) 0.70080(16) 0.9516(4)
C6 C -0.3669(3) 0.76907(17) 1.0355(4)
C7 C -0.2424(3) 0.79718(18) 1.0271(5)
H4 H -0.1773 0.7716 0.9703
C8 C -0.2129(3) 0.86361(16) 1.1029(5)
C9 C -0.3079(3) 0.89871(18) 1.1896(5)
H5 H -0.2904 0.9434 1.2437
C10 C -0.4301(3) 0.86593(17) 1.1944(5)
H6 H -0.4953 0.8894 1.2548
C11 C -0.2995(3) 0.50118(17) 0.6105(6)
H7 H -0.2234 0.4800 0.5587
H8 H -0.3577 0.5226 0.5325
H9 H -0.3452 0.4623 0.6679
C12 C -0.0571(3) 0.95762(17) 1.1515(5)
H10 H 0.0356 0.9671 1.1358
H11 H -0.0762 0.9568 1.2631
H12 H -0.1077 0.9968 1.1014
Pb1C Pb -0.812922(9) 0.755382(5) 1.62212(2)
I2C I -0.728887(18) 0.882578(10) 0.87987(3)
loop_
_geom_bond_atom_site_label_1
_geom_bond_atom_site_label_2
_geom_bond_site_symmetry_1
_geom_bond_site_symmetry_2
Pb1 I1 1_555 1_555
I2 Pb1 1_555 1_555
O1 C3 1_555 1_555
O2 C8 1_555 1_555
N1 Pb1 1_555 1_555
N2 Pb1 1_555 1_555
C1 N1 1_555 1_555
H1 C1 1_555 1_555
C2 C1 1_555 1_555
H2 C2 1_555 1_555
C3 C2 1_555 1_555
C4 C3 1_555 1_555
H3 C4 1_555 1_555
C5 N1 1_555 1_555
C6 N2 1_555 1_555
C7 C6 1_555 1_555
H4 C7 1_555 1_555
C8 C7 1_555 1_555
C9 C8 1_555 1_555
H5 C9 1_555 1_555
C10 N2 1_555 1_555
H6 C10 1_555 1_555
C11 O1 1_555 1_555
H7 C11 1_555 1_555
H8 C11 1_555 1_555
H9 C11 1_555 1_555
C12 O2 1_555 1_555
H10 C12 1_555 1_555
H11 C12 1_555 1_555
H12 C12 1_555 1_555
Pb1C I2 1_555 1_555
I2C Pb1 1_555 1_555
C4 C5 1_555 1_555
C5 C6 1_555 1_555
C9 C10 1_555 1_555

#END
