
#######################################################################
#
#                 Cambridge Crystallographic Data Centre
#                                CCDC 
#
#######################################################################
#
# If this CIF has been generated from an entry in the Cambridge 
# Structural Database, then it will include bibliographic, chemical, 
# crystal, experimental, refinement or atomic coordinate data resulting 
# from the CCDC's data processing and validation procedures.
#
#######################################################################

data_AGEZUI
_symmetry_cell_setting           orthorhombic
_symmetry_space_group_name_H-M   'P 21 21 21'
_symmetry_Int_Tables_number      19
_space_group_name_Hall           'P 2ac 2ab'
loop_
_symmetry_equiv_pos_site_id
_symmetry_equiv_pos_as_xyz
1 x,y,z
2 1/2-x,-y,1/2+z
3 -x,1/2+y,1/2-z
4 1/2+x,1/2-y,-z
_cell_length_a                   10.039(5)
_cell_length_b                   15.379(8)
_cell_length_c                   21.480(11)
_cell_angle_alpha                90
_cell_angle_beta                 90
_cell_angle_gamma                90
_cell_volume                     3316.29
loop_
_atom_site_label
_atom_site_type_symbol
_atom_site_fract_x
_atom_site_fract_y
_atom_site_fract_z
Cu1 Cu 0.16393(7) 0.44236(4) 0.12785(3)
Cu2 Cu -0.24109(7) 0.01131(4) 0.22457(3)
C1 C 0.2089(6) 0.5668(4) 0.0295(2)
C2 C 0.2528(7) 0.6373(4) -0.0061(3)
C3 C 0.3502(7) 0.5996(4) 0.1108(3)
H1 H 0.3844 0.5873 0.1501
C4 C 0.1082(6) 0.1654(3) 0.2131(2)
H2 H 0.0278 0.1933 0.2052
C5 C 0.1062(6) 0.5101(4) 0.0066(2)
C6 C 0.2316(5) 0.0545(4) 0.2654(2)
H3 H 0.2348 0.0076 0.2928
C7 C 0.3416(6) 0.1498(3) 0.1944(2)
H4 H 0.4189 0.1680 0.1745
C8 C 0.3456(6) 0.0802(3) 0.2357(2)
C9 C 0.4749(6) 0.0336(4) 0.2502(3)
C10 C -0.0402(6) -0.0384(4) 0.1346(3)
C11 C 0.2211(6) 0.1921(3) 0.1831(2)
C12 C -0.2594(7) 0.1436(4) 0.1224(3)
H5 H -0.3256 0.1694 0.1464
C13 C 0.0424(7) 0.0264(5) 0.0185(3)
C14 C 0.0931(7) 0.5982(4) -0.0882(3)
C15 C 0.1027(7) -0.0481(5) 0.0427(3)
C16 C 0.2214(6) 0.2711(3) 0.1404(2)
C17 C -0.0107(6) 0.0703(4) 0.2916(3)
C18 C -0.1285(7) 0.1451(5) 0.0297(3)
H6 H -0.1062 0.1689 -0.0087
C19 C 0.0636(7) -0.0804(4) 0.1041(3)
C20 C -0.2268(8) 0.1820(4) 0.0658(3)
H7 H -0.2707 0.2319 0.0525
C21 C 0.0835(10) 0.6748(5) -0.1789(3)
H8 H 0.0480 0.6848 -0.2182
C22 C -0.0625(6) 0.0709(4) 0.0521(3)
C23 C 0.1875(9) 0.7276(5) -0.1576(3)
H9 H 0.2188 0.7716 -0.1834
C24 C 0.1122(6) 0.0966(4) 0.2556(2)
C25 C -0.0293(7) -0.1329(4) 0.2180(3)
H10 H -0.0606 -0.1515 0.2565
C26 C 0.3520(8) 0.6895(5) 0.0199(3)
H11 H 0.3863 0.7361 -0.0026
C27 C -0.0195(7) 0.3876(4) 0.0249(3)
H12 H -0.0431 0.3413 0.0504
C28 C 0.1203(8) -0.1522(5) 0.1322(4)
H13 H 0.1874 -0.1832 0.1122
C29 C -0.1031(6) 0.0382(4) 0.1094(2)
C30 C 0.1942(7) 0.6513(4) -0.0670(3)
C31 C 0.2311(9) -0.0578(6) -0.0434(3)
H14 H 0.2942 -0.0865 -0.0675
C32 C 0.1758(9) 0.0180(6) -0.0664(3)
H15 H 0.2068 0.0400 -0.1040
C33 C -0.0826(8) 0.3966(5) -0.0331(3)
H16 H -0.1454 0.3561 -0.0462
C34 C 0.0473(7) 0.5246(4) -0.0509(3)
C35 C -0.0502(8) 0.4661(4) -0.0702(3)
H17 H -0.0933 0.4741 -0.1081
C36 C 0.3985(9) 0.6721(5) 0.0783(4)
H18 H 0.4620 0.7082 0.0964
C37 C 0.0752(9) -0.1775(5) 0.1908(4)
H19 H 0.1151 -0.2238 0.2115
N1 N 0.0726(5) 0.4430(3) 0.0444(2)
N2 N -0.0867(5) -0.0650(3) 0.1914(2)
N3 N -0.2019(5) 0.0732(3) 0.1436(2)
N4 N 0.2571(5) 0.5481(3) 0.0871(2)
N5 N 0.0822(7) 0.0594(5) -0.0373(2)
N6 N 0.2429(7) 0.7175(3) -0.1023(2)
N7 N 0.0342(7) 0.6108(4) -0.1445(2)
N8 N 0.1991(6) -0.0917(4) 0.0112(2)
O1 O 0.1171(4) 0.3180(2) 0.14187(18)
O2 O -0.1180(4) 0.1063(2) 0.2772(2)
O3 O 0.5797(4) 0.0632(3) 0.22362(19)
O4 O 0.3198(5) 0.2872(3) 0.1090(2)
O5 O 0.0036(4) 0.0130(3) 0.33268(19)
O6 O 0.4716(4) -0.0271(3) 0.2879(2)
O8 O 0.2651(4) 0.4410(2) 0.20366(16)
Cu1B Cu -0.16393(7) -0.05764(4) 0.37215(3)
Cu2_2 Cu 0.75891(7) 0.01131(4) 0.22457(3)
Cu2B Cu 0.24109(7) 0.51131(4) 0.27543(3)
O3_2 O -0.4203(4) 0.0632(3) 0.22362(19)
O5B O -0.0036(4) 0.5130(3) 0.16732(19)
O8B O -0.2651(4) -0.0590(2) 0.29634(16)
O7 O -0.4184(9) 0.3093(4) 0.1637(4)
H20 H -0.420(9) 0.368(6) 0.178(4)
H21 H -0.491(12) 0.314(8) 0.144(6)
loop_
_geom_bond_atom_site_label_1
_geom_bond_atom_site_label_2
_geom_bond_site_symmetry_1
_geom_bond_site_symmetry_2
Cu1 N1 1_555 1_555
Cu2 N2 1_555 1_555
C1 C2 1_555 1_555
C2 C26 1_555 1_555
C3 H1 1_555 1_555
C4 H2 1_555 1_555
C5 C1 1_555 1_555
C6 H3 1_555 1_555
C7 H4 1_555 1_555
C8 C6 1_555 1_555
C9 C8 1_555 1_555
C10 C19 1_555 1_555
C11 C4 1_555 1_555
C12 H5 1_555 1_555
C13 C15 1_555 1_555
C14 C30 1_555 1_555
C15 C19 1_555 1_555
C16 C11 1_555 1_555
C17 C24 1_555 1_555
C18 H6 1_555 1_555
C19 C28 1_555 1_555
C20 C12 1_555 1_555
H7 C20 1_555 1_555
C21 H8 1_555 1_555
C22 C13 1_555 1_555
C23 C21 1_555 1_555
H9 C23 1_555 1_555
C24 C4 1_555 1_555
C25 H10 1_555 1_555
C26 H11 1_555 1_555
C27 H12 1_555 1_555
C28 H13 1_555 1_555
C29 C10 1_555 1_555
C30 C2 1_555 1_555
C31 H14 1_555 1_555
C32 C31 1_555 1_555
H15 C32 1_555 1_555
C33 C27 1_555 1_555
H16 C33 1_555 1_555
C34 C5 1_555 1_555
C35 C33 1_555 1_555
H17 C35 1_555 1_555
C36 C3 1_555 1_555
H18 C36 1_555 1_555
C37 C25 1_555 1_555
H19 C37 1_555 1_555
N1 C5 1_555 1_555
N2 C10 1_555 1_555
N3 Cu2 1_555 1_555
N4 Cu1 1_555 1_555
N5 C13 1_555 1_555
N6 C23 1_555 1_555
N7 C14 1_555 1_555
N8 C15 1_555 1_555
O1 Cu1 1_555 1_555
O2 Cu2 1_555 1_555
O3 C9 1_555 1_555
O4 C16 1_555 1_555
O5 C17 1_555 1_555
O6 C9 1_555 1_555
O7 H20 1_555 1_555
O8 Cu1 1_555 1_555
H21 O7 1_555 1_555
Cu1B O5 1_555 1_555
Cu2_2 O3 1_555 1_555
Cu2B O8 1_555 1_555
O3_2 Cu2 1_555 1_555
O5B Cu1 1_555 1_555
O8B Cu2 1_555 1_555
C1 N4 1_555 1_555
C3 N4 1_555 1_555
C6 C24 1_555 1_555
C7 C8 1_555 1_555
C7 C11 1_555 1_555
C12 N3 1_555 1_555
C14 C34 1_555 1_555
C16 O1 1_555 1_555
C17 O2 1_555 1_555
C18 C20 1_555 1_555
C18 C22 1_555 1_555
C21 N7 1_555 1_555
C22 C29 1_555 1_555
C25 N2 1_555 1_555
C26 C36 1_555 1_555
C27 N1 1_555 1_555
C28 C37 1_555 1_555
C29 N3 1_555 1_555
C30 N6 1_555 1_555
C31 N8 1_555 1_555
C32 N5 1_555 1_555
C34 C35 1_555 1_555
Cu1B O8B 1_555 1_555

#END
