
#######################################################################
#
#                 Cambridge Crystallographic Data Centre
#                                CCDC 
#
#######################################################################
#
# If this CIF has been generated from an entry in the Cambridge 
# Structural Database, then it will include bibliographic, chemical, 
# crystal, experimental, refinement or atomic coordinate data resulting 
# from the CCDC's data processing and validation procedures.
#
#######################################################################

data_AGIGUT
_symmetry_cell_setting           triclinic
_symmetry_space_group_name_H-M   'P -1'
_symmetry_Int_Tables_number      2
_space_group_name_Hall           '-P 1'
loop_
_symmetry_equiv_pos_site_id
_symmetry_equiv_pos_as_xyz
1 x,y,z
2 -x,-y,-z
_cell_length_a                   7.3246(5)
_cell_length_b                   9.9630(7)
_cell_length_c                   17.2673(12)
_cell_angle_alpha                90.0850(10)
_cell_angle_beta                 101.2100(10)
_cell_angle_gamma                110.6800(10)
_cell_volume                     1153.02
loop_
_atom_site_label
_atom_site_type_symbol
_atom_site_fract_x
_atom_site_fract_y
_atom_site_fract_z
Cu1 Cu 0.76017(4) 1.07031(3) 0.046730(16)
Cu2 Cu 0.54905(5) 0.84254(3) 0.489054(16)
S1 S 0.57493(9) 0.84492(6) -0.01298(3)
S2 S 0.76442(9) 1.05114(7) 0.55852(4)
N1 N 0.9618(3) 1.2738(2) 0.07322(11)
N2 N 0.8550(3) 1.10166(19) -0.05295(11)
N3 N 0.7858(3) 1.0034(2) -0.11701(11)
N4 N 0.5713(4) 0.7792(2) -0.16215(13)
H1 H 0.6075 0.7935 -0.2068
H2 H 0.4831 0.6984 -0.1556
N5 N 0.3635(3) 0.6351(2) 0.45797(12)
N6 N 0.4992(3) 0.7840(2) 0.59368(11)
N7 N 0.5867(3) 0.8685(2) 0.66235(11)
N8 N 0.8060(4) 1.0897(2) 0.71341(13)
H3 H 0.7835 1.0665 0.7595
H4 H 0.8889 1.1734 0.7078
N9 N 0.7427(3) 1.0348(2) 0.15556(12)
N10 N 0.8148(4) 1.0432(3) 0.29936(13)
N11 N 0.6497(4) 0.8853(3) 0.39243(13)
C1 C 1.0033(4) 1.3614(3) 0.13801(14)
H5 H 0.9315 1.3303 0.1776
C2 C 1.1500(4) 1.4973(3) 0.14802(15)
H6 H 1.1748 1.5568 0.1934
C3 C 1.2579(4) 1.5430(3) 0.09067(16)
H7 H 1.3588 1.6332 0.0971
C4 C 1.2160(4) 1.4542(3) 0.02294(15)
H8 H 1.2877 1.4834 -0.0168
C5 C 1.0651(3) 1.3211(2) 0.01578(13)
C6 C 1.0010(3) 1.2205(2) -0.05438(13)
H9 H 1.0620 1.2411 -0.0976
C7 C 0.6513(4) 0.8818(2) -0.10334(14)
C8 C 0.3056(4) 0.5613(3) 0.38716(15)
H10 H 0.3477 0.6083 0.3437
C9 C 0.1854(5) 0.4179(3) 0.37660(18)
H11 H 0.1475 0.3689 0.3268
C10 C 0.1224(4) 0.3481(3) 0.44038(18)
H12 H 0.0422 0.2511 0.4343
C11 C 0.1790(4) 0.4230(3) 0.51356(17)
H13 H 0.1365 0.3778 0.5574
C12 C 0.3003(4) 0.5668(3) 0.52047(14)
C13 C 0.3743(4) 0.6553(3) 0.59478(14)
H14 H 0.3335 0.6208 0.6410
C14 C 0.7125(4) 0.9957(3) 0.65059(14)
C15 C 0.7667(4) 1.0305(2) 0.22302(15)
C16 C 0.7192(4) 0.9539(3) 0.34538(14)
Cu1A Cu 0.23983(4) 0.92969(3) -0.046730(16)
Cu2A Cu 0.45095(5) 1.15746(3) 0.510946(16)
S1A S 0.42507(9) 1.15508(6) 0.01298(3)
S2A S 0.23558(9) 0.94886(7) 0.44148(4)
Cl1 Cl 0.27846(9) 0.40354(6) 0.76829(4)
O1 O 0.4505(3) 0.4774(3) 0.73782(12)
O2 O 0.2886(4) 0.4818(2) 0.83970(14)
O3 O 0.1033(3) 0.3936(3) 0.71157(15)
O4 O 0.2697(4) 0.2644(2) 0.78822(16)
loop_
_geom_bond_atom_site_label_1
_geom_bond_atom_site_label_2
_geom_bond_site_symmetry_1
_geom_bond_site_symmetry_2
Cu1 S1 1_555 1_555
Cu2 S2 1_555 1_555
S1 C7 1_555 1_555
S2 C14 1_555 1_555
N1 Cu1 1_555 1_555
N2 Cu1 1_555 1_555
N3 N2 1_555 1_555
N4 H1 1_555 1_555
H2 N4 1_555 1_555
N5 Cu2 1_555 1_555
N6 Cu2 1_555 1_555
N7 N6 1_555 1_555
N8 H3 1_555 1_555
H4 N8 1_555 1_555
N9 Cu1 1_555 1_555
N10 C15 1_555 1_555
N11 Cu2 1_555 1_555
C1 N1 1_555 1_555
H5 C1 1_555 1_555
C2 C1 1_555 1_555
H6 C2 1_555 1_555
C3 C2 1_555 1_555
H7 C3 1_555 1_555
C4 C3 1_555 1_555
H8 C4 1_555 1_555
C5 N1 1_555 1_555
C6 N2 1_555 1_555
H9 C6 1_555 1_555
C7 N3 1_555 1_555
C8 N5 1_555 1_555
H10 C8 1_555 1_555
C9 C8 1_555 1_555
H11 C9 1_555 1_555
C10 C9 1_555 1_555
H12 C10 1_555 1_555
C11 C10 1_555 1_555
H13 C11 1_555 1_555
C12 N5 1_555 1_555
C13 N6 1_555 1_555
H14 C13 1_555 1_555
C14 N7 1_555 1_555
C15 N9 1_555 1_555
C16 N10 1_555 1_555
Cl1 O1 1_555 1_555
O2 Cl1 1_555 1_555
O3 Cl1 1_555 1_555
O4 Cl1 1_555 1_555
Cu1A S1 1_555 1_555
Cu2A S2 1_555 1_555
S1A Cu1 1_555 1_555
S2A Cu2 1_555 1_555
N4 C7 1_555 1_555
N8 C14 1_555 1_555
N11 C16 1_555 1_555
C4 C5 1_555 1_555
C5 C6 1_555 1_555
C11 C12 1_555 1_555
C12 C13 1_555 1_555
Cu1A S1A 1_555 1_555
Cu2A S2A 1_555 1_555

#END
