
#######################################################################
#
#                 Cambridge Crystallographic Data Centre
#                                CCDC 
#
#######################################################################
#
# If this CIF has been generated from an entry in the Cambridge 
# Structural Database, then it will include bibliographic, chemical, 
# crystal, experimental, refinement or atomic coordinate data resulting 
# from the CCDC's data processing and validation procedures.
#
#######################################################################

data_AGIJAD
_symmetry_cell_setting           monoclinic
_symmetry_space_group_name_H-M   'C 2'
_symmetry_Int_Tables_number      5
_space_group_name_Hall           'C 2y'
loop_
_symmetry_equiv_pos_site_id
_symmetry_equiv_pos_as_xyz
1 x,y,z
2 -x,y,-z
3 1/2+x,1/2+y,z
4 1/2-x,1/2+y,-z
_cell_length_a                   20.815(3)
_cell_length_b                   6.4732(9)
_cell_length_c                   12.0367(17)
_cell_angle_alpha                90
_cell_angle_beta                 90.196(6)
_cell_angle_gamma                90
_cell_volume                     1621.81
loop_
_atom_site_label
_atom_site_type_symbol
_atom_site_fract_x
_atom_site_fract_y
_atom_site_fract_z
Ag1 Ag 0.08396(2) 0.46769(11) 0.46564(4)
Ag2 Ag 0.13506(2) 0.55271(6) 0.25273(4)
C1 C 0.2272(3) 0.4754(11) 0.4641(5)
C2 C 0.2920(3) 0.4708(11) 0.5142(6)
C3 C 0.3474(3) 0.4472(11) 0.4466(6)
C4 C 0.4079(3) 0.4572(14) 0.4944(5)
H1 H 0.4449 0.4412 0.4493
C5 C 0.4149(3) 0.4905(13) 0.6081(6)
H2 H 0.4566 0.5008 0.6402
C6 C 0.3607(3) 0.5086(9) 0.6739(6)
C7 C 0.3000(3) 0.4982(10) 0.6281(6)
H3 H 0.2634 0.5098 0.6746
C8 C 0.0137(3) 0.5407(13) 0.7210(5)
C9 C 0.0812(3) 0.5143(10) 0.7671(6)
H4 H 0.1136 0.5572 0.7105
C10 C 0.0905(4) 0.2840(12) 0.7980(7)
H5 H 0.0487 0.2168 0.813
H6 H 0.1124 0.2083 0.7375
C11 C 0.1316(3) 0.2896(11) 0.9014(6)
H7 H 0.1266 0.1602 0.9459
C12 C 0.1052(4) 0.4755(13) 0.9636(6)
H8 H 0.0655 0.4393 1.004
H9 H 0.1372 0.5298 1.0172
H10 H 0.059(3) 0.701(12) 0.897(7)
N1 N 0.0918(3) 0.6296(10) 0.8737(5)
O1 O 0.4357(2) 0.5896(7) 0.8405(4)
O2 O 0.3441(2) 0.3623(8) 0.8719(4)
O3 O 0.3281(2) 0.7293(8) 0.8435(4)
O4 O 0.3428(2) 0.4146(8) 0.3366(4)
H11 H 0.3039 0.4137 0.3177
O5 O 0.2228(2) 0.4824(8) 0.3585(4)
O6 O 0.1797(2) 0.4722(9) 0.5293(4)
O7 O 0.0069(2) 0.4778(11) 0.6223(4)
O8 O 0.1970(2) 0.3296(9) 0.8782(5)
H12 H 0.2148 0.2203 0.8568
O9 O -0.0288(2) 0.6042(7) 0.7841(4)
S1 S 0.36813(7) 0.5502(3) 0.81845(13)
Ag1A Ag -0.08396(2) 0.46769(11) 0.53436(4)
Ag2A Ag -0.13506(2) 0.55271(6) 0.74727(4)
Ag2C Ag 0.36494(2) 0.05271(6) 0.74727(4)
Ag2C_2 Ag 0.36494(2) 1.05271(6) 0.74727(4)
O2C O 0.1559(2) 0.8623(8) 0.1281(4)
O3C O 0.1719(2) 0.2293(8) 0.1565(4)
O7A O -0.0069(2) 0.4778(11) 0.3777(4)
O9A O 0.0288(2) 0.6042(7) 0.2159(4)
H13 H 0.739(3) 0.305(12) 0.884(6)
H14 H 0.709(3) 0.393(14) 0.971(3)
O10 O 0.7074(2) 0.3692(9) 0.9036(4)
H15 H 0.981(4) 0.931(12) 0.955(6)
O11 O 1.00000 0.8587(11) 1.00000
H15A H 1.019(4) 0.931(12) 1.045(6)
loop_
_geom_bond_atom_site_label_1
_geom_bond_atom_site_label_2
_geom_bond_site_symmetry_1
_geom_bond_site_symmetry_2
Ag1 Ag2 1_555 1_555
Ag2 O5 1_555 1_555
C1 C2 1_555 1_555
C2 C3 1_555 1_555
C3 C4 1_555 1_555
C4 H1 1_555 1_555
C5 C4 1_555 1_555
H2 C5 1_555 1_555
C6 C5 1_555 1_555
C7 C2 1_555 1_555
H3 C7 1_555 1_555
C8 C9 1_555 1_555
C9 H4 1_555 1_555
C10 C9 1_555 1_555
H5 C10 1_555 1_555
H6 C10 1_555 1_555
C11 C10 1_555 1_555
H7 C11 1_555 1_555
C12 C11 1_555 1_555
H8 C12 1_555 1_555
H9 C12 1_555 1_555
H10 N1 1_555 1_555
N1 C9 1_555 1_555
O1 S1 1_555 1_555
O2 S1 1_555 1_555
O3 S1 1_555 1_555
O4 C3 1_555 1_555
H11 O4 1_555 1_555
O5 C1 1_555 1_555
O6 Ag1 1_555 1_555
O7 Ag1 1_555 1_555
O8 C11 1_555 1_555
H12 O8 1_555 1_555
O9 C8 1_555 1_555
S1 C6 1_555 1_555
H13 O10 1_555 1_555
H14 O10 1_555 1_555
H15 O11 1_555 1_555
O11 H15A 1_555 1_555
Ag1A O7 1_555 1_555
Ag2A O9 1_555 1_555
Ag2C O2 1_555 1_555
Ag2C_2 O3 1_555 1_555
O2C Ag2 1_555 1_555
O3C Ag2 1_555 1_555
O7A Ag1 1_555 1_555
O9A Ag2 1_555 1_555
C1 O6 1_555 1_555
C6 C7 1_555 1_555
C8 O7 1_555 1_555
C12 N1 1_555 1_555
Ag1A Ag2A 1_555 1_555
Ag1A O7A 1_555 1_555

#END
