
#######################################################################
#
#                 Cambridge Crystallographic Data Centre
#                                CCDC 
#
#######################################################################
#
# If this CIF has been generated from an entry in the Cambridge 
# Structural Database, then it will include bibliographic, chemical, 
# crystal, experimental, refinement or atomic coordinate data resulting 
# from the CCDC's data processing and validation procedures.
#
#######################################################################

data_AGIKAD
_symmetry_cell_setting           triclinic
_symmetry_space_group_name_H-M   'P -1'
_symmetry_Int_Tables_number      2
_space_group_name_Hall           '-P 1'
loop_
_symmetry_equiv_pos_site_id
_symmetry_equiv_pos_as_xyz
1 x,y,z
2 -x,-y,-z
_cell_length_a                   7.290(6)
_cell_length_b                   8.411(7)
_cell_length_c                   11.453(9)
_cell_angle_alpha                93.440(8)
_cell_angle_beta                 107.266(8)
_cell_angle_gamma                112.504(6)
_cell_volume                     607.43
loop_
_atom_site_label
_atom_site_type_symbol
_atom_site_fract_x
_atom_site_fract_y
_atom_site_fract_z
Cu1 Cu 0.45300(9) 0.67969(8) 0.17498(5)
O1 O 0.3398(5) 0.4310(4) 0.0920(3)
O2 O 0.3184(5) 0.6041(5) 0.2994(3)
O3 O -0.0154(6) 0.5449(6) 0.1827(3)
O4 O 0.1876(5) 0.7246(5) 0.0303(3)
H1 H 0.1228 0.6658 -0.0415
H2 H 0.0976 0.6902 0.0745
N1 N 0.3654(6) 0.2783(5) -0.0736(4)
N2 N 0.4022(6) 0.0659(6) -0.2777(4)
C1 C 0.4172(7) 0.4187(6) 0.0070(4)
C2 C 0.2005(8) 0.1142(6) -0.0680(5)
H3 H 0.2600 0.0660 0.0007
H4 H 0.0889 0.1379 -0.0523
C3 C 0.1082(8) -0.0184(7) -0.1875(5)
H5 H -0.0006 -0.1247 -0.1802
H6 H 0.0413 0.0277 -0.2550
C4 C 0.2705(9) -0.0636(7) -0.2200(6)
H7 H 0.1977 -0.1764 -0.2768
H8 H 0.3637 -0.0767 -0.1445
C5 C 0.2730(10) 0.0661(9) -0.4045(5)
H9 H 0.1702 0.1086 -0.3991
H10 H 0.3630 0.1410 -0.4436
H11 H 0.2017 -0.0511 -0.4529
C6 C 0.5644(9) 0.0064(7) -0.2903(6)
H12 H 0.4957 -0.1132 -0.3346
H13 H 0.6435 0.0795 -0.3355
H14 H 0.6587 0.0144 -0.2090
C7 C 0.1233(8) 0.5604(6) 0.2817(4)
C8 C 0.0605(7) 0.5281(6) 0.3959(4)
C9 C -0.1378(8) 0.5152(6) 0.3917(4)
H15 H -0.2295 0.5265 0.3198
C10 C 0.1979(8) 0.5148(6) 0.5043(4)
H16 H 0.3313 0.5260 0.5075
Cu1A Cu 0.54700(9) 0.32031(8) -0.17498(5)
Cu1A_2 Cu -0.45300(9) 0.32031(8) 0.82502(5)
O1A O 0.6602(5) 0.5690(4) -0.0920(3)
O2A O -0.3184(5) 0.3959(5) 0.7006(3)
O2A_2 O 0.6816(5) 0.3959(5) -0.2994(3)
O3A O 0.0154(6) 0.4551(6) 0.8173(3)
O4A O 0.8124(5) 0.2754(5) -0.0303(3)
H1A H 0.8772 0.3342 0.0415
H2A H 0.9024 0.3098 -0.0745
N1A N 0.6346(6) 0.7217(5) 0.0736(4)
N2A N 0.5978(6) 0.9341(6) 0.2777(4)
C1A C 0.5828(7) 0.5813(6) -0.0070(4)
C2A C 0.7995(8) 0.8858(6) 0.0680(5)
H3A H 0.7400 0.9340 -0.0007
H4A H 0.9111 0.8621 0.0523
C3A C 0.8918(8) 1.0184(7) 0.1875(5)
H5A H 1.0006 1.1247 0.1802
H6A H 0.9587 0.9723 0.2550
C4A C 0.7295(9) 1.0636(7) 0.2200(6)
H7A H 0.8023 1.1764 0.2768
H8A H 0.6363 1.0767 0.1445
C5A C 0.7270(10) 0.9339(9) 0.4045(5)
H9A H 0.8298 0.8914 0.3991
H10A H 0.6370 0.8590 0.4436
H11A H 0.7983 1.0511 0.4529
C6A C 0.4356(9) 0.9936(7) 0.2903(6)
H12A H 0.5043 1.1132 0.3346
H13A H 0.3565 0.9205 0.3355
H14A H 0.3413 0.9856 0.2090
C7A C -0.1233(8) 0.4396(6) 0.7183(4)
C8A C -0.0605(7) 0.4719(6) 0.6041(4)
C9A C 0.1378(8) 0.4848(6) 0.6083(4)
H15A H 0.2295 0.4735 0.6802
C10A C -0.1979(8) 0.4852(6) 0.4957(4)
H16A H -0.3313 0.4740 0.4925
loop_
_geom_bond_atom_site_label_1
_geom_bond_atom_site_label_2
_geom_bond_site_symmetry_1
_geom_bond_site_symmetry_2
Cu1 O1 1_555 1_555
O1 C1 1_555 1_555
O2 Cu1 1_555 1_555
O3 C7 1_555 1_555
O4 Cu1 1_555 1_555
H1 O4 1_555 1_555
H2 O4 1_555 1_555
N1 C1 1_555 1_555
N2 C4 1_555 1_555
C1 C1A 1_555 1_555
C2 N1 1_555 1_555
H3 C2 1_555 1_555
H4 C2 1_555 1_555
C3 C2 1_555 1_555
H5 C3 1_555 1_555
H6 C3 1_555 1_555
C4 C3 1_555 1_555
H7 C4 1_555 1_555
H8 C4 1_555 1_555
C5 N2 1_555 1_555
H9 C5 1_555 1_555
H10 C5 1_555 1_555
H11 C5 1_555 1_555
C6 N2 1_555 1_555
H12 C6 1_555 1_555
H13 C6 1_555 1_555
H14 C6 1_555 1_555
C7 O2 1_555 1_555
C8 C7 1_555 1_555
C9 C8 1_555 1_555
H15 C9 1_555 1_555
C10 C8 1_555 1_555
H16 C10 1_555 1_555
Cu1A N1 1_555 1_555
Cu1A_2 O2A 1_555 1_555
O1A Cu1A 1_555 1_555
O2A C7A 1_555 1_555
O2A_2 Cu1A 1_555 1_555
O3A C7A 1_555 1_555
O4A Cu1A 1_555 1_555
H1A O4A 1_555 1_555
H2A O4A 1_555 1_555
N1A Cu1 1_555 1_555
N2A Cu1 1_555 1_555
C1A O1A 1_555 1_555
C2A N1A 1_555 1_555
H3A C2A 1_555 1_555
H4A C2A 1_555 1_555
C3A C2A 1_555 1_555
H5A C3A 1_555 1_555
H6A C3A 1_555 1_555
C4A N2A 1_555 1_555
H7A C4A 1_555 1_555
H8A C4A 1_555 1_555
C5A N2A 1_555 1_555
H9A C5A 1_555 1_555
H10A C5A 1_555 1_555
H11A C5A 1_555 1_555
C6A N2A 1_555 1_555
H12A C6A 1_555 1_555
H13A C6A 1_555 1_555
H14A C6A 1_555 1_555
C7A C8A 1_555 1_555
C8A C9A 1_555 1_555
C9A C10 1_555 1_555
H15A C9A 1_555 1_555
C10A C9 1_555 1_555
H16A C10A 1_555 1_555
N2 Cu1A 1_555 1_555
N1A C1A 1_555 1_555
C3A C4A 1_555 1_555
C8A C10A 1_555 1_555

#END
