
#######################################################################
#
#                 Cambridge Crystallographic Data Centre
#                                CCDC 
#
#######################################################################
#
# If this CIF has been generated from an entry in the Cambridge 
# Structural Database, then it will include bibliographic, chemical, 
# crystal, experimental, refinement or atomic coordinate data resulting 
# from the CCDC's data processing and validation procedures.
#
#######################################################################

data_AGIQUE
_symmetry_cell_setting           orthorhombic
_symmetry_space_group_name_H-M   'P n n a'
_symmetry_Int_Tables_number      52
_space_group_name_Hall           '-P 2a 2bc'
loop_
_symmetry_equiv_pos_site_id
_symmetry_equiv_pos_as_xyz
1 x,y,z
2 1/2-x,-y,z
3 x,1/2-y,1/2-z
4 1/2-x,1/2+y,1/2-z
5 -x,-y,-z
6 1/2+x,y,-z
7 -x,1/2+y,1/2+z
8 1/2+x,1/2-y,1/2+z
_cell_length_a                   18.819(4)
_cell_length_b                   8.8399(18)
_cell_length_c                   11.508(2)
_cell_angle_alpha                90
_cell_angle_beta                 90
_cell_angle_gamma                90
_cell_volume                     1914.45
loop_
_atom_site_label
_atom_site_type_symbol
_atom_site_fract_x
_atom_site_fract_y
_atom_site_fract_z
O5 O 0.0164(8) 0.8364(13) 0.6476(9)
H8 H 0.0321 0.7543 0.6211
H9 H 0.0444 0.8626 0.7004
O6 O 0.1449(10) 0.370(2) 0.250(2)
Mn1 Mn 0.17691(7) 0.16132(13) 0.58991(11)
O1 O 0.2561(5) 0.1683(7) 0.4549(7)
O2 O 0.3532(4) 0.0573(8) 0.5219(6)
O3 O 0.5812(4) 0.3505(8) 0.1889(7)
N1 N 0.2330(4) 0.4359(8) 0.7536(6)
N2 N 0.2210(4) 0.3899(8) 0.6415(6)
N3 N 0.2500 0.5000 0.4559(10)
H1 H 0.2335 0.4164 0.4203
C1 C 0.2500 0.5000 0.5769(10)
C2 C 0.3202(5) 0.1313(10) 0.4487(9)
C3 C 0.3594(5) 0.1916(11) 0.3437(8)
C4 C 0.4339(5) 0.1869(10) 0.3434(8)
H2 H 0.4588 0.1413 0.4061
C5 C 0.4713(7) 0.2500 0.2500
C6 C 0.5509(6) 0.2500 0.2500
C7 C 0.3245(7) 0.2500 0.2500
H3 H 0.2740 0.2500 0.2500
O4 O 0.107(2) 0.295(4) 0.480(3)
H4 H 0.1008 0.2587 0.4129
C8 C 0.0720(19) 0.442(4) 0.486(3)
H5 H 0.0394 0.4437 0.5529
H6 H 0.0452 0.4607 0.4147
H7 H 0.1079 0.5216 0.4963
O1B O 0.2561(5) 0.3317(7) 0.0451(7)
O2B O 0.3532(4) 0.4427(8) -0.0219(6)
O3B O 0.5812(4) 0.1495(8) 0.3111(7)
C2B C 0.3202(5) 0.3687(10) 0.0513(9)
C3B C 0.3594(5) 0.3084(11) 0.1563(8)
C4B C 0.4339(5) 0.3131(10) 0.1566(8)
H2B H 0.4588 0.3587 0.0939
N1A N 0.2670(4) 0.5641(8) 0.7536(6)
N2A N 0.2790(4) 0.6101(8) 0.6415(6)
H1A H 0.2665 0.5836 0.4203
Mn1A Mn 0.32309(7) -0.16132(13) 0.58991(11)
O4A O 0.393(2) -0.295(4) 0.480(3)
H4A H 0.3992 -0.2587 0.4129
C8A C 0.4280(19) -0.442(4) 0.486(3)
H5A H 0.4606 -0.4437 0.5529
H6A H 0.4548 -0.4607 0.4147
H7A H 0.3921 -0.5216 0.4963
Mn1A_2 Mn 0.32309(7) 0.83868(13) 0.58991(11)
Mn1B Mn 0.17691(7) 0.33868(13) -0.08991(11)
Mn1B_2 Mn 0.17691(7) 0.33868(13) 0.91009(11)
Mn1C Mn 0.32309(7) 0.66132(13) -0.08991(11)
Mn1C_2 Mn 0.32309(7) 0.66132(13) 0.91009(11)
Mn1E Mn 0.67691(7) 0.16132(13) 0.41009(11)
Mn1G Mn 0.67691(7) 0.33868(13) 0.08991(11)
O1A O 0.2439(5) -0.1683(7) 0.4549(7)
O2A O 0.1468(4) -0.0573(8) 0.5219(6)
O3F O 0.4188(4) -0.1495(8) 0.6889(7)
O3G O 0.0812(4) 0.1495(8) 0.6889(7)
N1B N 0.2330(4) 0.0641(8) 0.7464(6)
N1C N 0.2670(4) -0.0641(8) 0.7464(6)
N2A_2 N 0.2790(4) -0.3899(8) 0.6415(6)
O7? O 0.1075(12) 0.265(2) 0.4498(15)
H10? H 0.1396 0.3140 0.4158
H11? H 0.0856 0.3263 0.4929
O8? O 0.068(2) 0.556(4) 0.578(3)
loop_
_geom_bond_atom_site_label_1
_geom_bond_atom_site_label_2
_geom_bond_site_symmetry_1
_geom_bond_site_symmetry_2
Mn1 O1 1_555 1_555
O1 C2 1_555 1_555
O2 C2 1_555 1_555
O3 C6 1_555 1_555
N1 N2 1_555 1_555
N2 Mn1 1_555 1_555
N3 H1 1_555 1_555
C1 N2 1_555 1_555
C2 C3 1_555 1_555
C3 C4 1_555 1_555
C4 H2 1_555 1_555
C5 C4 1_555 1_555
C6 C5 1_555 1_555
C7 C3 1_555 1_555
H3 C7 1_555 1_555
O4 Mn1 1_555 1_555
H4 O4 1_555 1_555
C8 O4 1_555 1_555
H5 C8 1_555 1_555
H6 C8 1_555 1_555
H7 C8 1_555 1_555
O5 H8 1_555 1_555
H9 O5 1_555 1_555
O1B C2B 1_555 1_555
O2B C2B 1_555 1_555
O3B C6 1_555 1_555
C2B C3B 1_555 1_555
C3B C7 1_555 1_555
C4B C5 1_555 1_555
H2B C4B 1_555 1_555
N1A N1 1_555 1_555
N2A C1 1_555 1_555
H1A N3 1_555 1_555
Mn1A O2 1_555 1_555
O4A Mn1A 1_555 1_555
H4A O4A 1_555 1_555
C8A O4A 1_555 1_555
H5A C8A 1_555 1_555
H6A C8A 1_555 1_555
H7A C8A 1_555 1_555
Mn1A_2 N2A 1_555 1_555
Mn1B O1B 1_555 1_555
Mn1B_2 N1 1_555 1_555
Mn1C O2B 1_555 1_555
Mn1C_2 N1A 1_555 1_555
Mn1E O3B 1_555 1_555
Mn1G O3 1_555 1_555
O1A Mn1A 1_555 1_555
O2A Mn1 1_555 1_555
O3F Mn1A 1_555 1_555
O3G Mn1 1_555 1_555
N1B Mn1 1_555 1_555
N1C Mn1A 1_555 1_555
N2A_2 Mn1A 1_555 1_555
N3 C1 1_555 1_555
C3B C4B 1_555 1_555
N1A N2A 1_555 1_555
N1B N1C 1_555 1_555

#END
