
#######################################################################
#
#                 Cambridge Crystallographic Data Centre
#                                CCDC 
#
#######################################################################
#
# If this CIF has been generated from an entry in the Cambridge 
# Structural Database, then it will include bibliographic, chemical, 
# crystal, experimental, refinement or atomic coordinate data resulting 
# from the CCDC's data processing and validation procedures.
#
#######################################################################

data_AGIYEU02
_symmetry_cell_setting           triclinic
_symmetry_space_group_name_H-M   'P -1'
_symmetry_Int_Tables_number      2
_space_group_name_Hall           '-P 1'
loop_
_symmetry_equiv_pos_site_id
_symmetry_equiv_pos_as_xyz
1 x,y,z
2 -x,-y,-z
_cell_length_a                   4.1759(4)
_cell_length_b                   7.1281(7)
_cell_length_c                   8.1279(8)
_cell_angle_alpha                109.607(2)
_cell_angle_beta                 101.769(2)
_cell_angle_gamma                96.676(2)
_cell_volume                     218.597
loop_
_atom_site_label
_atom_site_type_symbol
_atom_site_fract_x
_atom_site_fract_y
_atom_site_fract_z
Cu1 Cu 0.6905(2) 0.44552(12) 0.87415(10)
I1 I 0.22278(9) 0.65940(6) 0.84037(5)
C1 C 0.6865(17) 0.0146(10) 0.6583(8)
H1 H 0.8205 0.0190 0.7666
C2 C 0.6184(18) -0.1610(10) 0.5077(8)
H2 H 0.7043 -0.2722 0.5186
N1 N 0.5665(12) 0.1780(8) 0.6537(7)
N1A N 0.4335(12) -0.1780(8) 0.3463(7)
C1A C 0.3135(17) -0.0146(10) 0.3417(8)
H1A H 0.1795 -0.0190 0.2334
C2A C 0.3816(18) 0.1610(10) 0.4923(8)
H2A H 0.2957 0.2722 0.4814
I1_2 I 1.22278(9) 0.65940(6) 0.84037(5)
Cu1_2 Cu 1.6905(2) 0.44552(12) 0.87415(10)
I1A I 0.77722(9) 0.34060(6) 1.15963(5)
Cu1_3 Cu -0.3095(2) 0.44552(12) 0.87415(10)
Cu1A Cu 0.3095(2) 0.55448(12) 1.12585(10)
Cu1A_2 Cu 0.3095(2) -0.44552(12) 0.12585(10)
Cu1A_3 Cu 1.3095(2) 0.55448(12) 1.12585(10)
I1_3 I 2.22278(9) 0.65940(6) 0.84037(5)
I1A_2 I 1.77722(9) 0.34060(6) 1.15963(5)
N1_2 N 1.5665(12) 0.1780(8) 0.6537(7)
loop_
_geom_bond_atom_site_label_1
_geom_bond_atom_site_label_2
_geom_bond_site_symmetry_1
_geom_bond_site_symmetry_2
Cu1 I1 1_555 1_555
I1 Cu1_3 1_555 1_555
C1 H1 1_555 1_555
C2 C1 1_555 1_555
H2 C2 1_555 1_555
N1 Cu1 1_555 1_555
N1A C2 1_555 1_555
C1A N1A 1_555 1_555
H1A C1A 1_555 1_555
C2A N1 1_555 1_555
H2A C2A 1_555 1_555
I1_2 Cu1 1_555 1_555
Cu1_2 I1_2 1_555 1_555
I1A Cu1 1_555 1_555
Cu1A I1 1_555 1_555
Cu1A_2 N1A 1_555 1_555
Cu1A_3 I1_2 1_555 1_555
I1_3 Cu1_2 1_555 1_555
I1A_2 Cu1_2 1_555 1_555
N1_2 Cu1_2 1_555 1_555
C1 N1 1_555 1_555
C1A C2A 1_555 1_555
I1A Cu1A 1_555 1_555
I1A Cu1A_3 1_555 1_555
Cu1A_3 I1A_2 1_555 1_555

#END
