
#######################################################################
#
#                 Cambridge Crystallographic Data Centre
#                                CCDC 
#
#######################################################################
#
# If this CIF has been generated from an entry in the Cambridge 
# Structural Database, then it will include bibliographic, chemical, 
# crystal, experimental, refinement or atomic coordinate data resulting 
# from the CCDC's data processing and validation procedures.
#
#######################################################################

data_AGOHEL
_symmetry_cell_setting           monoclinic
_symmetry_space_group_name_H-M   'P 21'
_symmetry_Int_Tables_number      4
_space_group_name_Hall           'P 2yb'
loop_
_symmetry_equiv_pos_site_id
_symmetry_equiv_pos_as_xyz
1 x,y,z
2 -x,1/2+y,-z
_cell_length_a                   8.3395(2)
_cell_length_b                   15.7388(4)
_cell_length_c                   12.6940(4)
_cell_angle_alpha                90
_cell_angle_beta                 105.5650(10)
_cell_angle_gamma                90
_cell_volume                     1605.03
loop_
_atom_site_label
_atom_site_type_symbol
_atom_site_fract_x
_atom_site_fract_y
_atom_site_fract_z
Zn1 Zn 0.59726(5) 0.04662(3) 0.49430(3)
O1 O 0.6653(3) 0.0545(2) 0.35795(19)
N1 N 0.4963(4) 0.1541(2) 0.5335(2)
C1 C 0.4821(5) 0.1887(3) 0.6266(3)
H1 H 0.5246 0.1648 0.6954
N2 N 0.4184(4) 0.2081(3) 0.4548(3)
H2 H 0.413(5) 0.199(3) 0.396(3)
C2 C 0.3955(5) 0.2651(3) 0.6074(3)
O2 O 0.4591(4) 0.1380(3) 0.2703(2)
C3 C 0.3570(5) 0.2746(3) 0.4957(3)
H3 H 0.297(5) 0.312(4) 0.452(3)
N3 N 0.7005(4) 0.3392(2) 0.9368(2)
O3 O 0.9172(4) -0.0812(2) -0.0414(2)
C4 C 0.6382(5) 0.3365(3) 0.8280(3)
H4 H 0.711(4) 0.345(3) 0.785(3)
N4 N 0.5666(4) 0.3322(3) 0.9764(3)
H5 H 0.580(5) 0.331(3) 1.039(3)
O4 O 0.9782(4) -0.1071(2) 0.1356(3)
C5 C 0.4667(4) 0.3277(3) 0.7980(3)
C6 C 0.4267(5) 0.3254(4) 0.8968(3)
H6 H 0.328(5) 0.318(3) 0.907(3)
C7 C 0.3478(5) 0.3257(4) 0.6858(3)
H7 H 0.3396 0.3825 0.6550
H8 H 0.2384 0.3101 0.6925
C8 C 0.6391(5) 0.0829(3) 0.1712(3)
C9 C 0.5712(5) 0.1351(3) 0.0822(3)
H9 H 0.505(5) 0.172(3) 0.091(3)
C10 C 0.6164(6) 0.1233(3) -0.0144(3)
H10 H 0.577(5) 0.158(3) -0.075(3)
C11 C 0.7238(5) 0.0591(3) -0.0227(3)
H11 H 0.748(5) 0.050(3) -0.083(3)
C12 C 0.7931(5) 0.0070(3) 0.0657(3)
C13 C 0.7515(5) 0.0206(3) 0.1638(3)
H12 H 0.797(5) -0.008(3) 0.219(3)
C14 C 0.5832(5) 0.0934(3) 0.2739(3)
C15 C 0.9068(5) -0.0653(3) 0.0555(4)
O5 O 0.4305(4) -0.0441(2) 0.4662(3)
C16 C 0.4115(6) -0.0680(3) 0.5600(4)
O6 O 0.4933(4) -0.0372(2) 0.6466(3)
C17 C 0.2819(5) -0.1346(3) 0.5559(3)
C18 C 0.2143(5) -0.1807(4) 0.4609(3)
C19 C 0.2302(5) -0.1514(3) 0.6487(3)
C20 C 0.1117(4) -0.2136(3) 0.6474(3)
C21 C 0.0988(6) -0.2438(3) 0.4598(4)
H13 H 0.257(6) -0.166(4) 0.396(4)
H14 H 0.278(4) -0.123(3) 0.716(3)
C22 C 0.0466(5) -0.2592(3) 0.5522(3)
H15 H 0.058(5) -0.269(3) 0.400(3)
C23 C 0.0500(5) -0.2297(3) 0.7472(3)
O7 O 0.1210(3) -0.1871(2) 0.83211(18)
O8 O -0.0637(4) -0.2821(2) 0.7407(2)
H16 H -0.035(5) -0.301(3) 0.546(3)
N5 N 0.8290(4) 0.0274(2) 0.5887(2)
C24 C 0.8933(5) 0.0255(3) 0.6975(3)
N6 N 0.9615(4) 0.0414(3) 0.5495(3)
H17 H 0.816(5) 0.023(3) 0.737(3)
C25 C 1.0641(4) 0.0395(3) 0.7267(3)
C26 C 1.1000(4) 0.0500(3) 0.6279(3)
C27 C 1.1832(5) 0.0402(4) 0.8387(3)
H18 H 1.208(5) 0.059(3) 0.617(3)
C28 C 1.1376(5) 0.1011(3) 0.9183(3)
H19 H 1.285(5) 0.060(3) 0.828(3)
H20 H 1.186(5) -0.018(3) 0.869(4)
C29 C 1.0564(5) 0.1790(3) 0.8987(3)
C30 C 1.1724(5) 0.0900(3) 1.0294(3)
N7 N 1.0414(4) 0.2130(2) 0.9925(3)
H21 H 1.013(5) 0.206(3) 0.835(3)
Zn2 Zn 0.93629(5) 0.32031(3) 1.02836(3)
N8 N 1.1136(4) 0.1575(3) 1.0713(3)
H22 H 1.102(7) 0.175(4) 1.134(5)
H23 H 1.224(5) 0.044(4) 1.071(3)
H24 H 0.950(5) 0.038(3) 0.494(3)
O3A O 1.0828(4) 0.4188(2) 1.0414(2)
O7A O 0.8790(3) 0.3129(2) 1.16789(18)
Zn2A Zn 0.06371(5) -0.17969(3) 0.97164(3)
Zn2A_2 Zn 1.06371(5) -0.17969(3) -0.02836(3)
O9 O 0.4243(5) 0.3555(4) 0.1554(3)
H25 H 0.3480 0.3482 0.1999
H26 H 0.4653 0.3006 0.1483
O10 O 0.1003(4) 0.0505(3) 0.3708(3)
H27 H 0.1431 0.0144 0.3216
H28 H 0.0973 0.1057 0.3407
loop_
_geom_bond_atom_site_label_1
_geom_bond_atom_site_label_2
_geom_bond_site_symmetry_1
_geom_bond_site_symmetry_2
Zn1 O1 1_555 1_555
O1 C14 1_555 1_555
N1 Zn1 1_555 1_555
C1 N1 1_555 1_555
H1 C1 1_555 1_555
N2 N1 1_555 1_555
H2 N2 1_555 1_555
C2 C1 1_555 1_555
O2 C14 1_555 1_555
C3 N2 1_555 1_555
H3 C3 1_555 1_555
N3 C4 1_555 1_555
O3 C15 1_555 1_555
C4 H4 1_555 1_555
N4 N3 1_555 1_555
H5 N4 1_555 1_555
O4 C15 1_555 1_555
C5 C4 1_555 1_555
C6 N4 1_555 1_555
H6 C6 1_555 1_555
C7 C2 1_555 1_555
H7 C7 1_555 1_555
H8 C7 1_555 1_555
C8 C9 1_555 1_555
C9 H9 1_555 1_555
C10 C9 1_555 1_555
H10 C10 1_555 1_555
C11 C10 1_555 1_555
H11 C11 1_555 1_555
C12 C11 1_555 1_555
C13 C8 1_555 1_555
H12 C13 1_555 1_555
C14 C8 1_555 1_555
C15 C12 1_555 1_555
O5 Zn1 1_555 1_555
C16 O5 1_555 1_555
O6 C16 1_555 1_555
C17 C16 1_555 1_555
C18 C17 1_555 1_555
C19 C17 1_555 1_555
C20 C19 1_555 1_555
C21 C18 1_555 1_555
H13 C18 1_555 1_555
H14 C19 1_555 1_555
C22 C20 1_555 1_555
H15 C21 1_555 1_555
C23 C20 1_555 1_555
O7 C23 1_555 1_555
O8 C23 1_555 1_555
H16 C22 1_555 1_555
N5 Zn1 1_555 1_555
C24 N5 1_555 1_555
N6 N5 1_555 1_555
H17 C24 1_555 1_555
C25 C24 1_555 1_555
C26 N6 1_555 1_555
C27 C25 1_555 1_555
H18 C26 1_555 1_555
C28 C27 1_555 1_555
H19 C27 1_555 1_555
H20 C27 1_555 1_555
C29 C28 1_555 1_555
C30 C28 1_555 1_555
N7 C29 1_555 1_555
H21 C29 1_555 1_555
Zn2 N3 1_555 1_555
N8 C30 1_555 1_555
H22 N8 1_555 1_555
H23 C30 1_555 1_555
H24 N6 1_555 1_555
O9 H25 1_555 1_555
H26 O9 1_555 1_555
O10 H27 1_555 1_555
H28 O10 1_555 1_555
O3A Zn2 1_555 1_555
O7A Zn2 1_555 1_555
Zn2A O7 1_555 1_555
Zn2A_2 O3 1_555 1_555
C2 C3 1_555 1_555
C5 C6 1_555 1_555
C5 C7 1_555 1_555
C12 C13 1_555 1_555
C21 C22 1_555 1_555
C25 C26 1_555 1_555
N7 Zn2 1_555 1_555
N7 N8 1_555 1_555

#END
