
#######################################################################
#
#                 Cambridge Crystallographic Data Centre
#                                CCDC 
#
#######################################################################
#
# If this CIF has been generated from an entry in the Cambridge 
# Structural Database, then it will include bibliographic, chemical, 
# crystal, experimental, refinement or atomic coordinate data resulting 
# from the CCDC's data processing and validation procedures.
#
#######################################################################

data_AGOHUB
_symmetry_cell_setting           monoclinic
_symmetry_space_group_name_H-M   'P 21/c'
_symmetry_Int_Tables_number      14
_space_group_name_Hall           '-P 2ybc'
loop_
_symmetry_equiv_pos_site_id
_symmetry_equiv_pos_as_xyz
1 x,y,z
2 -x,1/2+y,1/2-z
3 -x,-y,-z
4 x,1/2-y,1/2+z
_cell_length_a                   9.3228(4)
_cell_length_b                   14.8745(6)
_cell_length_c                   12.8792(5)
_cell_angle_alpha                90
_cell_angle_beta                 102.712(2)
_cell_angle_gamma                90
_cell_volume                     1742.21
loop_
_atom_site_label
_atom_site_type_symbol
_atom_site_fract_x
_atom_site_fract_y
_atom_site_fract_z
Zn1 Zn 0.716534(18) 0.189345(9) 0.347532(14)
O1 O 0.65444(14) 0.31430(6) 0.35811(9)
C1 C 0.95936(17) -0.15804(11) 0.61016(12)
H1 H 0.9542 -0.1533 0.5374
N1 N 1.08044(15) -0.17988(8) 0.68167(11)
O2 O 0.82854(15) 0.30618(6) 0.50486(10)
C2 C 0.84212(16) -0.14333(9) 0.65778(12)
N2 N 1.04098(17) -0.18033(8) 0.77590(11)
H2 H 1.109(2) -0.1874(12) 0.8341(17)
N3 N 0.70910(14) 0.10725(8) 0.47185(10)
O3 O 0.41341(14) 0.60969(8) 0.25294(9)
C3 C 0.89858(18) -0.15855(10) 0.76354(13)
H3 H 0.8472 -0.1545 0.8176
C4 C 0.71582(18) 0.01735(9) 0.47442(13)
H4 H 0.7356 -0.0182 0.4198
N4 N 0.67788(16) 0.13108(9) 0.56471(11)
H5 H 0.664(3) 0.1830(14) 0.5802(19)
O4 O 0.4245(3) 0.71278(11) 0.37306(13)
O5 O 0.85684(18) 0.62365(8) 0.65778(11)
C5 C 0.68932(15) -0.01598(9) 0.56939(12)
C6 C 0.66438(19) 0.05943(12) 0.62379(13)
H6 H 0.6418 0.0604 0.6906
C7 C 0.68970(16) -0.11221(11) 0.60433(15)
H7 H 0.6520 -0.1499 0.5429
H8 H 0.6250 -0.1187 0.6534
C8 C 0.71149(16) 0.44789(8) 0.45992(11)
C9 C 0.60108(16) 0.49622(8) 0.39415(11)
H9 H 0.5411 0.4687 0.3355
C10 C 0.58012(16) 0.58655(8) 0.41618(11)
C11 C 0.6671(2) 0.62669(9) 0.50453(13)
H10 H 0.6511 0.6865 0.5199
C12 C 0.7782(2) 0.57844(9) 0.57050(13)
C13 C 0.80211(18) 0.48941(9) 0.54780(12)
H11 H 0.8782 0.4573 0.5909
C14 C 0.73500(17) 0.34948(9) 0.44141(11)
C15 C 0.46377(18) 0.64076(10) 0.34414(12)
C16 C 0.9740(3) 0.57839(15) 0.72496(19)
H12 H 1.0193 0.6174 0.7822
H13 H 1.0453 0.5612 0.6850
H14 H 0.9375 0.5256 0.7535
Zn1A Zn 0.283466(18) 0.689345(9) 0.152468(14)
Zn1B Zn 1.283466(18) -0.189345(9) 0.652468(14)
N1B N 0.91956(15) 0.17988(8) 0.31833(11)
O3A O 0.58659(14) 0.10969(8) 0.24706(9)
O6 O 0.6781(4) 0.66825(19) 0.8192(3)
H15 H 0.6558 0.7191 0.7967
H16 H 0.6503 0.6579 0.7466
loop_
_geom_bond_atom_site_label_1
_geom_bond_atom_site_label_2
_geom_bond_site_symmetry_1
_geom_bond_site_symmetry_2
Zn1 O1 1_555 1_555
O1 C14 1_555 1_555
C1 H1 1_555 1_555
N1 C1 1_555 1_555
O2 C14 1_555 1_555
C2 C1 1_555 1_555
N2 N1 1_555 1_555
H2 N2 1_555 1_555
N3 Zn1 1_555 1_555
O3 C15 1_555 1_555
C3 C2 1_555 1_555
H3 C3 1_555 1_555
C4 N3 1_555 1_555
H4 C4 1_555 1_555
N4 N3 1_555 1_555
H5 N4 1_555 1_555
O4 C15 1_555 1_555
O5 C12 1_555 1_555
C5 C4 1_555 1_555
C6 N4 1_555 1_555
H6 C6 1_555 1_555
C7 C2 1_555 1_555
H7 C7 1_555 1_555
H8 C7 1_555 1_555
C8 C9 1_555 1_555
C9 H9 1_555 1_555
C10 C9 1_555 1_555
C11 C10 1_555 1_555
H10 C11 1_555 1_555
C12 C11 1_555 1_555
C13 C8 1_555 1_555
H11 C13 1_555 1_555
C14 C8 1_555 1_555
C15 C10 1_555 1_555
C16 O5 1_555 1_555
H12 C16 1_555 1_555
H13 C16 1_555 1_555
H14 C16 1_555 1_555
O6 H15 1_555 1_555
H16 O6 1_555 1_555
Zn1A O3 1_555 1_555
Zn1B N1 1_555 1_555
N1B Zn1 1_555 1_555
O3A Zn1 1_555 1_555
N2 C3 1_555 1_555
C5 C6 1_555 1_555
C5 C7 1_555 1_555
C12 C13 1_555 1_555

#END
