
#######################################################################
#
#                 Cambridge Crystallographic Data Centre
#                                CCDC 
#
#######################################################################
#
# If this CIF has been generated from an entry in the Cambridge 
# Structural Database, then it will include bibliographic, chemical, 
# crystal, experimental, refinement or atomic coordinate data resulting 
# from the CCDC's data processing and validation procedures.
#
#######################################################################

data_AGOJIR
_symmetry_cell_setting           monoclinic
_symmetry_space_group_name_H-M   'P 21/n'
_symmetry_Int_Tables_number      14
_space_group_name_Hall           '-P 2yn'
loop_
_symmetry_equiv_pos_site_id
_symmetry_equiv_pos_as_xyz
1 x,y,z
2 1/2-x,1/2+y,1/2-z
3 -x,-y,-z
4 1/2+x,1/2-y,1/2+z
_cell_length_a                   8.4539(5)
_cell_length_b                   16.3640(10)
_cell_length_c                   13.2550(8)
_cell_angle_alpha                90
_cell_angle_beta                 92.011(2)
_cell_angle_gamma                90
_cell_volume                     1832.56
loop_
_atom_site_label
_atom_site_type_symbol
_atom_site_fract_x
_atom_site_fract_y
_atom_site_fract_z
Br1 Br 0.20149(9) 0.10467(6) 0.64018(5)
Zn1 Zn 0.07119(6) 0.11125(3) 1.24900(3)
O1 O 0.0042(4) 0.10097(17) 1.1071(2)
N1 N -0.1329(4) 0.1229(2) 1.3183(3)
C1 C -0.1560(5) 0.1379(3) 1.4153(3)
H1 H -0.0763 0.1523 1.4622
N2 N -0.2767(5) 0.1037(2) 1.2775(3)
H2 H -0.2943 0.0909 1.2151
O2 O 0.2103(4) 0.0349(2) 1.0440(2)
C2 C -0.3157(5) 0.1293(3) 1.4378(3)
C3 C -0.3888(6) 0.1071(2) 1.3469(3)
H3 H -0.4960 0.0965 1.3358
O3 O -0.2810(4) 0.2977(2) 0.7376(2)
N3 N -0.1978(4) -0.01442(19) 1.7042(2)
O4 O -0.2920(5) 0.3064(2) 0.9028(3)
C4 C -0.2262(5) 0.0200(3) 1.6130(3)
H4 H -0.1806 0.0030 1.5537
N4 N -0.2886(4) 0.0276(2) 1.7674(2)
H5 H -0.2936 0.0176 1.8309
C5 C -0.3328(5) 0.0844(3) 1.6194(3)
C6 C -0.3699(5) 0.0865(3) 1.7197(3)
H6 H -0.4395 0.1227 1.7490
C7 C -0.3939(6) 0.1412(3) 1.5370(3)
H7 H -0.5069 0.1329 1.5269
H8 H -0.3776 0.1972 1.5589
C8 C 0.0512(5) 0.1204(2) 0.9344(3)
C9 C 0.1347(5) 0.0991(2) 0.8501(3)
H9 H 0.2167 0.0613 0.8547
C10 C 0.0926(5) 0.1361(3) 0.7582(3)
C11 C -0.0255(5) 0.1925(2) 0.7502(3)
H10 H -0.0510 0.2166 0.6882
C12 C -0.1082(5) 0.2142(2) 0.8357(3)
C13 C -0.0682(5) 0.1784(2) 0.9276(3)
H11 H -0.1216 0.1932 0.9850
C14 C 0.0933(5) 0.0819(3) 1.0367(3)
C15 C -0.2376(6) 0.2772(3) 0.8277(3)
Zn1B Zn -0.07119(6) -0.11125(3) 1.75100(3)
Zn1C Zn -0.42881(6) 0.38875(3) 0.74900(3)
O3C O 0.2190(4) 0.2023(2) 1.2376(2)
N3B N 0.1978(4) 0.01442(19) 1.2958(2)
O5 O -0.3869(5) 0.0611(3) 1.0864(3)
C16 C -0.4628(11) 0.1345(7) 1.0315(8)
Br2? Br 0.2179(8) 0.1323(3) 0.6455(5)
Br3? Br -0.0469(7) 0.2598(4) 0.6363(4)
loop_
_geom_bond_atom_site_label_1
_geom_bond_atom_site_label_2
_geom_bond_site_symmetry_1
_geom_bond_site_symmetry_2
Br1 C10 1_555 1_555
Zn1 O1 1_555 1_555
O1 C14 1_555 1_555
N1 Zn1 1_555 1_555
C1 N1 1_555 1_555
H1 C1 1_555 1_555
N2 N1 1_555 1_555
H2 N2 1_555 1_555
O2 C14 1_555 1_555
C2 C1 1_555 1_555
C3 N2 1_555 1_555
H3 C3 1_555 1_555
O3 C15 1_555 1_555
N3 C4 1_555 1_555
O4 C15 1_555 1_555
C4 H4 1_555 1_555
N4 N3 1_555 1_555
H5 N4 1_555 1_555
C5 C4 1_555 1_555
C6 N4 1_555 1_555
H6 C6 1_555 1_555
C7 C2 1_555 1_555
H7 C7 1_555 1_555
H8 C7 1_555 1_555
C8 C9 1_555 1_555
C9 H9 1_555 1_555
C10 C9 1_555 1_555
C11 C10 1_555 1_555
H10 C11 1_555 1_555
C12 C11 1_555 1_555
C13 C8 1_555 1_555
H11 C13 1_555 1_555
C14 C8 1_555 1_555
C15 C12 1_555 1_555
O5 C16 1_555 1_555
Zn1B N3 1_555 1_555
Zn1C O3 1_555 1_555
O3C Zn1 1_555 1_555
N3B Zn1 1_555 1_555
C2 C3 1_555 1_555
C5 C6 1_555 1_555
C5 C7 1_555 1_555
C12 C13 1_555 1_555

#END
