
#######################################################################
#
#                 Cambridge Crystallographic Data Centre
#                                CCDC 
#
#######################################################################
#
# If this CIF has been generated from an entry in the Cambridge 
# Structural Database, then it will include bibliographic, chemical, 
# crystal, experimental, refinement or atomic coordinate data resulting 
# from the CCDC's data processing and validation procedures.
#
#######################################################################

data_AGOPES
_symmetry_cell_setting           monoclinic
_symmetry_space_group_name_H-M   'P 21/c'
_symmetry_Int_Tables_number      14
_space_group_name_Hall           '-P 2ybc'
loop_
_symmetry_equiv_pos_site_id
_symmetry_equiv_pos_as_xyz
1 x,y,z
2 -x,1/2+y,1/2-z
3 -x,-y,-z
4 x,1/2-y,1/2+z
_cell_length_a                   6.2556(19)
_cell_length_b                   17.599(5)
_cell_length_c                   7.889(2)
_cell_angle_alpha                90
_cell_angle_beta                 98.994(6)
_cell_angle_gamma                90
_cell_volume                     857.84
loop_
_atom_site_label
_atom_site_type_symbol
_atom_site_fract_x
_atom_site_fract_y
_atom_site_fract_z
Mo1 Mo 0.21242(14) 0.60612(5) 0.33146(12)
P1 P 0.7215(4) 0.54630(15) 0.3799(3)
O1 O 0.2024(13) 0.5644(5) 0.1353(10)
O2 O 0.2138(12) 0.7005(4) 0.2867(10)
O3 O 0.2460(14) 0.6422(5) 0.6154(10)
H1 H 0.2996 0.6847 0.6270
O4 O 0.5308(11) 0.6000(4) 0.3921(10)
O5 O 0.7772(12) 0.5018(4) 0.5464(9)
O6 O 0.9038(12) 0.6009(5) 0.3559(10)
O7 O 0.6721(13) 0.4920(4) 0.2298(9)
Cu1 Cu 0.5000 0.5000 0.0000
N1 N 0.3727(14) 0.4005(5) 0.0448(11)
N2 N 0.223(2) 0.3945(7) 0.1480(1)
H2 H 0.1681 0.4323 0.1969
C1 C 0.172(3) 0.3219(8) 0.170(2)
H3 H 0.0720 0.3042 0.2368
C2 C 0.289(2) 0.2786(7) 0.0791(18)
H4 H 0.2863 0.2260 0.0683
C3 C 0.413(2) 0.3296(7) 0.0053(17)
H5 H 0.5134 0.3157 -0.0644
Mo1B Mo 0.78758(14) 0.39388(5) -0.33146(12)
Mo1B_2 Mo 0.78758(14) 0.39388(5) 0.66854(12)
Mo1_2 Mo 1.21242(14) 0.60612(5) 0.33146(12)
Mo1_3 Mo 0.21242(14) 0.60612(5) -0.66854(12)
Mo1B_3 Mo -0.21242(14) 0.39388(5) -0.33146(12)
P1B P 0.2785(4) 0.45370(15) -0.3799(3)
O1B O 0.7976(13) 0.4356(5) -0.1353(10)
O2B O 0.7862(12) 0.2995(4) -0.2867(10)
O3B O 0.7540(14) 0.3578(5) -0.6154(10)
H1B H 0.7004 0.3153 -0.6270
O4B O 0.4692(11) 0.4000(4) -0.3921(10)
O5B O 0.2228(12) 0.4982(4) -0.5464(9)
O5B_2 O 0.2228(12) 0.4982(4) 0.4536(9)
O5_2 O 0.7772(12) 0.5018(4) -0.4536(9)
O6B O 0.0962(12) 0.3991(5) -0.3559(10)
O6_2 O -0.0962(12) 0.6009(5) 0.3559(10)
O6B_2 O 1.0962(12) 0.3991(5) -0.3559(10)
O7B O 0.3279(13) 0.5080(4) -0.2298(9)
N1B N 0.6273(14) 0.5995(5) -0.0448(11)
N2B N 0.777(2) 0.6055(7) -0.1480(1)
H2B H 0.8319 0.5677 -0.1969
C1B C 0.828(3) 0.6781(8) -0.170(2)
H3B H 0.9280 0.6958 -0.2368
C2B C 0.711(2) 0.7214(7) -0.0791(18)
H4B H 0.7137 0.7740 -0.0683
C3B C 0.587(2) 0.6704(7) -0.0053(17)
H5B H 0.4866 0.6843 0.0644
loop_
_geom_bond_atom_site_label_1
_geom_bond_atom_site_label_2
_geom_bond_site_symmetry_1
_geom_bond_site_symmetry_2
Mo1 O1 1_555 1_555
P1 O4 1_555 1_555
O1 Cu1 1_555 1_555
O2 Mo1 1_555 1_555
O3 Mo1 1_555 1_555
H1 O3 1_555 1_555
O4 Mo1 1_555 1_555
O5 P1 1_555 1_555
O6 P1 1_555 1_555
O7 P1 1_555 1_555
Cu1 O7 1_555 1_555
N1 Cu1 1_555 1_555
N2 N1 1_555 1_555
H2 N2 1_555 1_555
C1 N2 1_555 1_555
H3 C1 1_555 1_555
C2 C1 1_555 1_555
H4 C2 1_555 1_555
C3 N1 1_555 1_555
H5 C3 1_555 1_555
Mo1B O1B 1_555 1_555
Mo1B_2 O5 1_555 1_555
Mo1_2 O6 1_555 1_555
Mo1_3 O5B 1_555 1_555
Mo1B_3 O6B 1_555 1_555
P1B O4B 1_555 1_555
O1B Cu1 1_555 1_555
O2B Mo1B 1_555 1_555
O3B Mo1B 1_555 1_555
H1B O3B 1_555 1_555
O4B Mo1B 1_555 1_555
O5B P1B 1_555 1_555
O5B_2 Mo1 1_555 1_555
O5_2 Mo1B 1_555 1_555
O6B P1B 1_555 1_555
O6_2 Mo1 1_555 1_555
O6B_2 Mo1B 1_555 1_555
O7B Cu1 1_555 1_555
N1B Cu1 1_555 1_555
N2B N1B 1_555 1_555
H2B N2B 1_555 1_555
C1B N2B 1_555 1_555
H3B C1B 1_555 1_555
C2B C1B 1_555 1_555
H4B C2B 1_555 1_555
C3B N1B 1_555 1_555
H5B C3B 1_555 1_555
C2 C3 1_555 1_555
P1B O7B 1_555 1_555
C2B C3B 1_555 1_555

#END
