
#######################################################################
#
#                 Cambridge Crystallographic Data Centre
#                                CCDC 
#
#######################################################################
#
# If this CIF has been generated from an entry in the Cambridge 
# Structural Database, then it will include bibliographic, chemical, 
# crystal, experimental, refinement or atomic coordinate data resulting 
# from the CCDC's data processing and validation procedures.
#
#######################################################################

data_AGOPAN
_symmetry_cell_setting           rhombohedral
_symmetry_space_group_name_H-M   'R -3'
_symmetry_Int_Tables_number      148
_space_group_name_Hall           '-P 3*'
loop_
_symmetry_equiv_pos_site_id
_symmetry_equiv_pos_as_xyz
1 x,y,z
2 z,x,y
3 y,z,x
4 -x,-y,-z
5 -z,-x,-y
6 -y,-z,-x
_cell_length_a                   13.5818(8)
_cell_length_b                   13.5818(8)
_cell_length_c                   13.5818(8)
_cell_angle_alpha                46.194(2)
_cell_angle_beta                 46.194(2)
_cell_angle_gamma                46.194(2)
_cell_volume                     1190.71
loop_
_atom_site_label
_atom_site_type_symbol
_atom_site_fract_x
_atom_site_fract_y
_atom_site_fract_z
Zn1 Zn 0.0000 0.0000 0.0000
N1 N -0.1090(3) 0.2247(3) -0.3611(3)
N2 N -0.0236(3) 0.1279(3) -0.2078(3)
C1 C -0.3269(3) 0.4118(3) -0.4318(3)
C2 C -0.4665(3) 0.4285(3) -0.3090(3)
C3 C -0.1977(3) 0.2583(3) -0.4145(3)
H1 H -0.2379 0.1816 -0.3432
H2 H -0.1311 0.2515 -0.5122
C4 C -0.1199(4) 0.1437(4) -0.2223(3)
H3 H -0.1911 0.1011 -0.1408
C5 C 0.0548(5) 0.2019(6) -0.3450(4)
H4 H 0.1359 0.2096 -0.3721
C6 C 0.0023(6) 0.2647(6) -0.4403(5)
H5 H 0.0374 0.3259 -0.5442
C7 C -0.4841(4) 0.2974(3) -0.1576(3)
H6 H -0.5899 0.3145 -0.0964
H7 H -0.4479 0.2871 -0.1076
H8 H -0.4260 0.2057 -0.1710
C1B C -0.5882(3) 0.5682(3) -0.3269(3)
C2B C -0.5715(3) 0.6910(3) -0.4665(3)
C1A C -0.4318(3) 0.6731(3) -0.5882(3)
C2A C -0.3090(3) 0.5335(3) -0.5715(3)
C7A C -0.1576(3) 0.5159(4) -0.7026(3)
H6A H -0.0964 0.4101 -0.6855
H7A H -0.1076 0.5521 -0.7129
H8A H -0.1710 0.5740 -0.7943
C3A C -0.4145(3) 0.8023(3) -0.7417(3)
N1A N -0.3611(3) 0.8910(3) -0.7753(3)
C4A C -0.2223(3) 0.8801(4) -0.8563(4)
N2A N -0.2078(3) 0.9764(3) -0.8721(3)
C5A C -0.3450(4) 1.0548(5) -0.7981(6)
H4A H -0.3721 1.1359 -0.7904
C6A C -0.4403(5) 1.0023(6) -0.7353(6)
H5A H -0.5442 1.0374 -0.6741
H3A H -0.1408 0.8089 -0.8989
H1A H -0.3432 0.7621 -0.8184
H2A H -0.5122 0.8689 -0.7485
C7B C -0.7026(3) 0.8424(3) -0.4841(4)
H6B H -0.6855 0.9036 -0.5899
H7B H -0.7129 0.8924 -0.4479
H8B H -0.7943 0.8290 -0.4260
C3B C -0.7417(3) 0.5855(3) -0.1977(3)
N1B N -0.7753(3) 0.6389(3) -0.1090(3)
C4B C -0.8563(4) 0.7777(3) -0.1199(4)
N2B N -0.8721(3) 0.7922(3) -0.0236(3)
C5B C -0.7981(6) 0.6550(4) 0.0548(5)
H4B H -0.7904 0.6279 0.1359
C6B C -0.7353(6) 0.5597(5) 0.0023(6)
H5B H -0.6741 0.4558 0.0374
H3B H -0.8989 0.8592 -0.1911
H1B H -0.8184 0.6568 -0.2379
H2B H -0.7485 0.4878 -0.1311
N1A_2 N -0.3611(3) -0.1090(3) 0.2247(3)
N2A_2 N -0.2078(3) -0.0236(3) 0.1279(3)
C1A_2 C -0.4318(3) -0.3269(3) 0.4118(3)
C2A_2 C -0.3090(3) -0.4665(3) 0.4285(3)
C3A_2 C -0.4145(3) -0.1977(3) 0.2583(3)
H1A_2 H -0.3432 -0.2379 0.1816
H2A_2 H -0.5122 -0.1311 0.2515
C4A_2 C -0.2223(3) -0.1199(4) 0.1437(4)
H3A_2 H -0.1408 -0.1911 0.1011
C5A_2 C -0.3450(4) 0.0548(5) 0.2019(6)
H4A_2 H -0.3721 0.1359 0.2096
C6A_2 C -0.4403(5) 0.0023(6) 0.2647(6)
H5A_2 H -0.5442 0.0374 0.3259
C7A_2 C -0.1576(3) -0.4841(4) 0.2974(3)
H6A_2 H -0.0964 -0.5899 0.3145
H7A_2 H -0.1076 -0.4479 0.2871
H8A_2 H -0.1710 -0.4260 0.2057
C1_2 C -0.3269(3) -0.5882(3) 0.5682(3)
C2_2 C -0.4665(3) -0.5715(3) 0.6910(3)
C1B_2 C -0.5882(3) -0.4318(3) 0.6731(3)
C2B_2 C -0.5715(3) -0.3090(3) 0.5335(3)
C7B_2 C -0.7026(3) -0.1576(3) 0.5159(4)
H6B_2 H -0.6855 -0.0964 0.4101
H7B_2 H -0.7129 -0.1076 0.5521
H8B_2 H -0.7943 -0.1710 0.5740
C3B_2 C -0.7417(3) -0.4145(3) 0.8023(3)
N1B_2 N -0.7753(3) -0.3611(3) 0.8910(3)
C4B_2 C -0.8563(4) -0.2223(3) 0.8801(4)
N2B_2 N -0.8721(3) -0.2078(3) 0.9764(3)
C5B_2 C -0.7981(6) -0.3450(4) 1.0548(5)
H4B_2 H -0.7904 -0.3721 1.1359
C6B_2 C -0.7353(6) -0.4403(5) 1.0023(6)
H5B_2 H -0.6741 -0.5442 1.0374
H3B_2 H -0.8989 -0.1408 0.8089
H1B_2 H -0.8184 -0.3432 0.7621
H2B_2 H -0.7485 -0.5122 0.8689
C7_2 C -0.4841(4) -0.7026(3) 0.8424(3)
H6_2 H -0.5899 -0.6855 0.9036
H7_2 H -0.4479 -0.7129 0.8924
H8_2 H -0.4260 -0.7943 0.8290
C3_2 C -0.1977(3) -0.7417(3) 0.5855(3)
N1_2 N -0.1090(3) -0.7753(3) 0.6389(3)
C4_2 C -0.1199(4) -0.8563(4) 0.7777(3)
N2_2 N -0.0236(3) -0.8721(3) 0.7922(3)
C5_2 C 0.0548(5) -0.7981(6) 0.6550(4)
H4_2 H 0.1359 -0.7904 0.6279
C6_2 C 0.0023(6) -0.7353(6) 0.5597(5)
H5_2 H 0.0374 -0.6741 0.4558
H3_2 H -0.1911 -0.8989 0.8592
H1_2 H -0.2379 -0.8184 0.6568
H2_2 H -0.1311 -0.7485 0.4878
N2B_3 N 0.1279(3) -0.2078(3) -0.0236(3)
N2C N 0.0236(3) -0.1279(3) 0.2078(3)
N2D N 0.2078(3) 0.0236(3) -0.1279(3)
N2E N -0.1279(3) 0.2078(3) 0.0236(3)
Zn1_2 Zn 0.0000 1.0000 -1.0000
Zn1_3 Zn -1.0000 1.0000 0.0000
Zn1_4 Zn -1.0000 0.0000 1.0000
Zn1_5 Zn 0.0000 -1.0000 1.0000
Cl1 Cl 0.17219(3) 0.17219(3) 0.17219(3)
O1 O 0.21065(13) 0.21065(13) 0.21065(13)
O2 O 0.1252(3) 0.3013(3) 0.0555(3)
O2A O 0.0555(3) 0.1252(3) 0.3013(3)
O2B O 0.3013(3) 0.0555(3) 0.1252(3)
loop_
_geom_bond_atom_site_label_1
_geom_bond_atom_site_label_2
_geom_bond_site_symmetry_1
_geom_bond_site_symmetry_2
Zn1 N2 1_555 1_555
Cl1 O1 1_555 1_555
O2 Cl1 1_555 1_555
N1 C3 1_555 1_555
N2 C4 1_555 1_555
C1 C2 1_555 1_555
C2 C7 1_555 1_555
C3 C1 1_555 1_555
H1 C3 1_555 1_555
H2 C3 1_555 1_555
C4 N1 1_555 1_555
H3 C4 1_555 1_555
C5 N2 1_555 1_555
H4 C5 1_555 1_555
C6 N1 1_555 1_555
H5 C6 1_555 1_555
C7 H6 1_555 1_555
H7 C7 1_555 1_555
H8 C7 1_555 1_555
O2A Cl1 1_555 1_555
O2B Cl1 1_555 1_555
C1B C2 1_555 1_555
C2B C1B 1_555 1_555
C1A C2B 1_555 1_555
C2A C1 1_555 1_555
C7A C2A 1_555 1_555
H6A C7A 1_555 1_555
H7A C7A 1_555 1_555
H8A C7A 1_555 1_555
C3A C1A 1_555 1_555
N1A C3A 1_555 1_555
C4A N1A 1_555 1_555
N2A C4A 1_555 1_555
C5A N2A 1_555 1_555
H4A C5A 1_555 1_555
C6A N1A 1_555 1_555
H5A C6A 1_555 1_555
H3A C4A 1_555 1_555
H1A C3A 1_555 1_555
H2A C3A 1_555 1_555
C7B C2B 1_555 1_555
H6B C7B 1_555 1_555
H7B C7B 1_555 1_555
H8B C7B 1_555 1_555
C3B C1B 1_555 1_555
N1B C3B 1_555 1_555
C4B N1B 1_555 1_555
N2B C4B 1_555 1_555
C5B N2B 1_555 1_555
H4B C5B 1_555 1_555
C6B N1B 1_555 1_555
H5B C6B 1_555 1_555
H3B C4B 1_555 1_555
H1B C3B 1_555 1_555
H2B C3B 1_555 1_555
N1A_2 C3A_2 1_555 1_555
N2A_2 Zn1 1_555 1_555
C1A_2 C2A_2 1_555 1_555
C2A_2 C7A_2 1_555 1_555
C3A_2 C1A_2 1_555 1_555
H1A_2 C3A_2 1_555 1_555
H2A_2 C3A_2 1_555 1_555
C4A_2 N1A_2 1_555 1_555
H3A_2 C4A_2 1_555 1_555
C5A_2 N2A_2 1_555 1_555
H4A_2 C5A_2 1_555 1_555
C6A_2 N1A_2 1_555 1_555
H5A_2 C6A_2 1_555 1_555
C7A_2 H6A_2 1_555 1_555
H7A_2 C7A_2 1_555 1_555
H8A_2 C7A_2 1_555 1_555
C1_2 C2A_2 1_555 1_555
C2_2 C1_2 1_555 1_555
C1B_2 C2_2 1_555 1_555
C2B_2 C1A_2 1_555 1_555
C7B_2 C2B_2 1_555 1_555
H6B_2 C7B_2 1_555 1_555
H7B_2 C7B_2 1_555 1_555
H8B_2 C7B_2 1_555 1_555
C3B_2 C1B_2 1_555 1_555
N1B_2 C3B_2 1_555 1_555
C4B_2 N1B_2 1_555 1_555
N2B_2 C4B_2 1_555 1_555
C5B_2 N2B_2 1_555 1_555
H4B_2 C5B_2 1_555 1_555
C6B_2 N1B_2 1_555 1_555
H5B_2 C6B_2 1_555 1_555
H3B_2 C4B_2 1_555 1_555
H1B_2 C3B_2 1_555 1_555
H2B_2 C3B_2 1_555 1_555
C7_2 C2_2 1_555 1_555
H6_2 C7_2 1_555 1_555
H7_2 C7_2 1_555 1_555
H8_2 C7_2 1_555 1_555
C3_2 C1_2 1_555 1_555
N1_2 C3_2 1_555 1_555
C4_2 N1_2 1_555 1_555
N2_2 C4_2 1_555 1_555
C5_2 N2_2 1_555 1_555
H4_2 C5_2 1_555 1_555
C6_2 N1_2 1_555 1_555
H5_2 C6_2 1_555 1_555
H3_2 C4_2 1_555 1_555
H1_2 C3_2 1_555 1_555
H2_2 C3_2 1_555 1_555
N2B_3 Zn1 1_555 1_555
N2C Zn1 1_555 1_555
N2D Zn1 1_555 1_555
N2E Zn1 1_555 1_555
Zn1_2 N2A 1_555 1_555
Zn1_3 N2B 1_555 1_555
Zn1_4 N2B_2 1_555 1_555
Zn1_5 N2_2 1_555 1_555
C5 C6 1_555 1_555
C1A C2A 1_555 1_555
C5A C6A 1_555 1_555
C5B C6B 1_555 1_555
N2A_2 C4A_2 1_555 1_555
C5A_2 C6A_2 1_555 1_555
C1B_2 C2B_2 1_555 1_555
C5B_2 C6B_2 1_555 1_555
C5_2 C6_2 1_555 1_555

#END
