
#######################################################################
#
#                 Cambridge Crystallographic Data Centre
#                                CCDC 
#
#######################################################################
#
# If this CIF has been generated from an entry in the Cambridge 
# Structural Database, then it will include bibliographic, chemical, 
# crystal, experimental, refinement or atomic coordinate data resulting 
# from the CCDC's data processing and validation procedures.
#
#######################################################################

data_AGOWEA
_symmetry_cell_setting           cubic
_symmetry_space_group_name_H-M   'I -4 3 m'
_symmetry_Int_Tables_number      217
_space_group_name_Hall           'I -4 2 3'
loop_
_symmetry_equiv_pos_site_id
_symmetry_equiv_pos_as_xyz
1 x,y,z
2 -x,-y,z
3 -x,y,-z
4 x,-y,-z
5 z,x,y
6 z,-x,-y
7 -z,-x,y
8 -z,x,-y
9 y,z,x
10 -y,z,-x
11 y,-z,-x
12 -y,-z,x
13 y,x,z
14 -y,-x,z
15 y,-x,-z
16 -y,x,-z
17 x,z,y
18 -x,z,-y
19 -x,-z,y
20 x,-z,-y
21 z,y,x
22 z,-y,-x
23 -z,y,-x
24 -z,-y,x
25 1/2+x,1/2+y,1/2+z
26 1/2-x,1/2-y,1/2+z
27 1/2-x,1/2+y,1/2-z
28 1/2+x,1/2-y,1/2-z
29 1/2+z,1/2+x,1/2+y
30 1/2+z,1/2-x,1/2-y
31 1/2-z,1/2-x,1/2+y
32 1/2-z,1/2+x,1/2-y
33 1/2+y,1/2+z,1/2+x
34 1/2-y,1/2+z,1/2-x
35 1/2+y,1/2-z,1/2-x
36 1/2-y,1/2-z,1/2+x
37 1/2+y,1/2+x,1/2+z
38 1/2-y,1/2-x,1/2+z
39 1/2+y,1/2-x,1/2-z
40 1/2-y,1/2+x,1/2-z
41 1/2+x,1/2+z,1/2+y
42 1/2-x,1/2+z,1/2-y
43 1/2-x,1/2-z,1/2+y
44 1/2+x,1/2-z,1/2-y
45 1/2+z,1/2+y,1/2+x
46 1/2+z,1/2-y,1/2-x
47 1/2-z,1/2+y,1/2-x
48 1/2-z,1/2-y,1/2+x
_cell_length_a                   22.1436(5)
_cell_length_b                   22.1436(5)
_cell_length_c                   22.1436(5)
_cell_angle_alpha                90
_cell_angle_beta                 90
_cell_angle_gamma                90
_cell_volume                     10857.9
loop_
_atom_site_label
_atom_site_type_symbol
_atom_site_fract_x
_atom_site_fract_y
_atom_site_fract_z
In1 In 0.11942(3) 0.76801(2) 0.23199(2)
O1 O 0.1979(3) 0.8021(3) 0.1979(3)
O2 O 0.0744(2) 0.8541(2) 0.2412(3)
O3 O -0.1752(2) 0.7234(3) 0.3483(3)
C1 C 0.0922(4) 0.9078(4) 0.2423(6)
C2 C 0.0444(3) 0.9556(3) 0.2435(6)
C3 C 0.0592(4) 1.0146(5) 0.2428(11)
H1 H 0.0997 1.0258 0.2422
C4 C -0.1510(5) 0.6905(4) 0.3095(4)
C5 C -0.0847(5) 0.7023(4) 0.2977(4)
C6 C -0.0539(4) 0.7455(4) 0.3294(4)
H2 H -0.0720 0.7658 0.3614
C7 C 0.0058(4) 0.7585(4) 0.3124(4)
H3 H 0.0266 0.7879 0.3339
N1 N 0.0337(3) 0.7317(3) 0.2683(3)
O2L O -0.1459(2) 1.0744(2) 0.2412(3)
C1A C -0.0922(4) 1.0922(4) 0.2423(6)
C2A C -0.0444(3) 1.0444(3) 0.2435(6)
C3L C 0.0146(5) 1.0592(4) 0.2428(11)
H1L H 0.0258 1.0997 0.2422
O2M O 0.1459(2) 0.9256(2) 0.2412(3)
C3M C -0.0146(5) 0.9408(4) 0.2428(11)
H1M H -0.0258 0.9003 0.2422
O2A O -0.0744(2) 1.1459(2) 0.2412(3)
C3A C -0.0592(4) 0.9854(5) 0.2428(11)
H1A H -0.0997 0.9742 0.2422
C6S C -0.0539(4) 0.6706(4) 0.2545(4)
H2S H -0.0720 0.6386 0.2342
C7S C 0.0058(4) 0.6876(4) 0.2415(4)
H3S H 0.0266 0.6661 0.2121
O3S O -0.1752(2) 0.6517(3) 0.2766(3)
In1A In -0.11942(3) 1.23199(2) 0.23199(2)
O1A O -0.1979(3) 1.1979(3) 0.1979(3)
O3A O 0.1752(2) 1.2766(3) 0.3483(3)
C4A C 0.1510(5) 1.3095(4) 0.3095(4)
C5A C 0.0847(5) 1.2977(4) 0.2977(4)
C6A C 0.0539(4) 1.2545(4) 0.3294(4)
H2A H 0.0720 1.2342 0.3614
C7A C -0.0058(4) 1.2415(4) 0.3124(4)
H3A H -0.0266 1.2121 0.3339
N1A N -0.0337(3) 1.2683(3) 0.2683(3)
C6Q C 0.0539(4) 1.3294(4) 0.2545(4)
H2Q H 0.0720 1.3614 0.2342
C7Q C -0.0058(4) 1.3124(4) 0.2415(4)
H3Q H -0.0266 1.3339 0.2121
O3Q O 0.1752(2) 1.3483(3) 0.2766(3)
In1E In 0.23199(2) 0.88058(3) 0.23199(2)
O2E O 0.2412(3) 0.9256(2) 0.1459(2)
O3E O 0.3483(3) 1.1752(2) 0.2766(3)
C1E C 0.2423(6) 0.9078(4) 0.0922(4)
C2E C 0.2435(6) 0.9556(3) 0.0444(3)
C3E C 0.2428(11) 0.9408(4) -0.0146(5)
H1E H 0.2422 0.9003 -0.0258
C4E C 0.3095(4) 1.1510(5) 0.3095(4)
C5E C 0.2977(4) 1.0847(5) 0.2977(4)
C6E C 0.3294(4) 1.0539(4) 0.2545(4)
H2E H 0.3614 1.0720 0.2342
C7E C 0.3124(4) 0.9942(4) 0.2415(4)
H3E H 0.3339 0.9734 0.2121
N1E N 0.2683(3) 0.9663(3) 0.2683(3)
O2U O 0.2412(3) 1.1459(2) -0.0744(2)
C1D C 0.2423(6) 1.0922(4) -0.0922(4)
C2D C 0.2435(6) 1.0444(3) -0.0444(3)
C3U C 0.2428(11) 0.9854(5) -0.0592(4)
H1U H 0.2422 0.9742 -0.0997
O2T O 0.2412(3) 0.8541(2) 0.0744(2)
C3T C 0.2428(11) 1.0146(5) 0.0592(4)
H1T H 0.2422 1.0258 0.0997
O2D O 0.2412(3) 1.0744(2) -0.1459(2)
C3D C 0.2428(11) 1.0592(4) 0.0146(5)
H1D H 0.2422 1.0997 0.0258
C6M C 0.2545(4) 1.0539(4) 0.3294(4)
H2M H 0.2342 1.0720 0.3614
C7M C 0.2415(4) 0.9942(4) 0.3124(4)
H3M H 0.2121 0.9734 0.3339
O3M O 0.2766(3) 1.1752(2) 0.3483(3)
In1G In -0.23199(2) 1.11942(3) 0.23199(2)
O2G O -0.2412(3) 1.0744(2) 0.1459(2)
O3G O -0.3483(3) 0.8248(2) 0.2766(3)
C1G C -0.2423(6) 1.0922(4) 0.0922(4)
C2G C -0.2435(6) 1.0444(3) 0.0444(3)
C3G C -0.2428(11) 1.0592(4) -0.0146(5)
H1G H -0.2422 1.0997 -0.0258
C4G C -0.3095(4) 0.8490(5) 0.3095(4)
C5G C -0.2977(4) 0.9153(5) 0.2977(4)
C6G C -0.3294(4) 0.9461(4) 0.2545(4)
H2G H -0.3614 0.9280 0.2342
C7G C -0.3124(4) 1.0058(4) 0.2415(4)
H3G H -0.3339 1.0266 0.2121
N1G N -0.2683(3) 1.0337(3) 0.2683(3)
O2V O -0.2412(3) 0.8541(2) -0.0744(2)
C1F C -0.2423(6) 0.9078(4) -0.0922(4)
C2F C -0.2435(6) 0.9556(3) -0.0444(3)
C3V C -0.2428(11) 1.0146(5) -0.0592(4)
H1V H -0.2422 1.0258 -0.0997
O2W O -0.2412(3) 1.1459(2) 0.0744(2)
C3W C -0.2428(11) 0.9854(5) 0.0592(4)
H1W H -0.2422 0.9742 0.0997
O2F O -0.2412(3) 0.9256(2) -0.1459(2)
C3F C -0.2428(11) 0.9408(4) 0.0146(5)
H1F H -0.2422 0.9003 0.0258
C6L C -0.2545(4) 0.9461(4) 0.3294(4)
H2L H -0.2342 0.9280 0.3614
C7L C -0.2415(4) 1.0058(4) 0.3124(4)
H3L H -0.2121 1.0266 0.3339
O3L O -0.2766(3) 0.8248(2) 0.3483(3)
In1H In -0.23199(2) 1.23199(2) 0.11942(3)
O3H O -0.2766(3) 1.3483(3) -0.1752(2)
C4H C -0.3095(4) 1.3095(4) -0.1510(5)
C5H C -0.2977(4) 1.2977(4) -0.0847(5)
C6H C -0.2545(4) 1.3294(4) -0.0539(4)
H2H H -0.2342 1.3614 -0.0720
C7H C -0.2415(4) 1.3124(4) 0.0058(4)
H3H H -0.2121 1.3339 0.0266
N1H N -0.2683(3) 1.2683(3) 0.0337(3)
C6W C -0.3294(4) 1.2545(4) -0.0539(4)
H2W H -0.3614 1.2342 -0.0720
C7W C -0.3124(4) 1.2415(4) 0.0058(4)
H3W H -0.3339 1.2121 0.0266
O3W O -0.3483(3) 1.2766(3) -0.1752(2)
In1I In 0.23199(2) 1.23199(2) -0.11942(3)
O3I O 0.2766(3) 1.3483(3) 0.1752(2)
C4I C 0.3095(4) 1.3095(4) 0.1510(5)
C5I C 0.2977(4) 1.2977(4) 0.0847(5)
C6I C 0.2545(4) 1.3294(4) 0.0539(4)
H2I H 0.2342 1.3614 0.0720
C7I C 0.2415(4) 1.3124(4) -0.0058(4)
H3I H 0.2121 1.3339 -0.0266
N1I N 0.2683(3) 1.2683(3) -0.0337(3)
C6U C 0.3294(4) 1.2545(4) 0.0539(4)
H2U H 0.3614 1.2342 0.0720
C7U C 0.3124(4) 1.2415(4) -0.0058(4)
H3U H 0.3339 1.2121 -0.0266
O3U O 0.3483(3) 1.2766(3) 0.1752(2)
In1D In 0.23199(2) 1.11942(3) -0.23199(2)
In1F In -0.23199(2) 0.88058(3) -0.23199(2)
In1J In -0.23199(2) 0.76801(2) -0.11942(3)
In1K In 0.23199(2) 0.76801(2) 0.11942(3)
In1X In -0.38058(3) 1.26801(2) -0.26801(2)
In1Z In 0.38058(3) 1.26801(2) 0.26801(2)
In1AA In -0.38058(3) 0.73199(2) 0.26801(2)
In1BA In -0.26801(2) 0.61942(3) 0.26801(2)
In1CA In -0.26801(2) 1.38058(3) -0.26801(2)
In1DA In 0.26801(2) 1.38058(3) 0.26801(2)
In1GA In -0.26801(2) 0.73199(2) 0.38058(3)
In1HA In 0.26801(2) 1.26801(2) 0.38058(3)
O1C O 0.1979(3) 1.1979(3) -0.1979(3)
O2H O -0.1459(2) 1.2412(3) 0.0744(2)
O2I O 0.1459(2) 1.2412(3) -0.0744(2)
O2Q O -0.0744(2) 1.2412(3) 0.1459(2)
O2S O 0.0744(2) 0.7588(3) 0.1459(2)
O3X O 0.3248(2) 1.2234(3) -0.1517(3)
O3Z O -0.3248(2) 1.2234(3) 0.1517(3)
O3BA O -0.1517(3) 1.3248(2) 0.2234(3)
O3DA O 0.1517(3) 0.6752(2) 0.2234(3)
O3FA O 0.2234(3) 0.8483(3) 0.3248(2)
O3IA O -0.2234(3) 1.1517(3) 0.3248(2)
O3JA O 0.2234(3) 1.3248(2) -0.1517(3)
O3MA O -0.2234(3) 1.3248(2) 0.1517(3)
O3NA O 0.3248(2) 0.8483(3) 0.2234(3)
O3PA O -0.3248(2) 1.1517(3) 0.2234(3)
O3RA O -0.1517(3) 1.2234(3) 0.3248(2)
O3UA O 0.1517(3) 0.7766(3) 0.3248(2)
loop_
_geom_bond_atom_site_label_1
_geom_bond_atom_site_label_2
_geom_bond_site_symmetry_1
_geom_bond_site_symmetry_2
In1 O1 1_555 1_555
O1 In1E 1_555 1_555
O2 In1 1_555 1_555
O3 C4 1_555 1_555
C1 O2 1_555 1_555
C2 C1 1_555 1_555
C3 C2 1_555 1_555
H1 C3 1_555 1_555
C4 C5 1_555 1_555
C5 C6 1_555 1_555
C6 H2 1_555 1_555
C7 C6 1_555 1_555
H3 C7 1_555 1_555
N1 In1 1_555 1_555
O2L C1A 1_555 1_555
C1A C2A 1_555 1_555
C2A C3L 1_555 1_555
C3L C3 1_555 1_555
H1L C3L 1_555 1_555
O2M C1 1_555 1_555
C3M C2 1_555 1_555
H1M C3M 1_555 1_555
O2A C1A 1_555 1_555
C3A C2A 1_555 1_555
H1A C3A 1_555 1_555
C6S C5 1_555 1_555
H2S C6S 1_555 1_555
C7S N1 1_555 1_555
H3S C7S 1_555 1_555
O3S C4 1_555 1_555
In1A O2A 1_555 1_555
O1A In1A 1_555 1_555
O3A C4A 1_555 1_555
C4A C5A 1_555 1_555
C5A C6A 1_555 1_555
C6A H2A 1_555 1_555
C7A C6A 1_555 1_555
H3A C7A 1_555 1_555
N1A In1A 1_555 1_555
C6Q C5A 1_555 1_555
H2Q C6Q 1_555 1_555
C7Q N1A 1_555 1_555
H3Q C7Q 1_555 1_555
O3Q C4A 1_555 1_555
In1E O2M 1_555 1_555
O2E In1E 1_555 1_555
O3E C4E 1_555 1_555
C1E O2E 1_555 1_555
C2E C1E 1_555 1_555
C3E C2E 1_555 1_555
H1E C3E 1_555 1_555
C4E C5E 1_555 1_555
C5E C6E 1_555 1_555
C6E H2E 1_555 1_555
C7E C6E 1_555 1_555
H3E C7E 1_555 1_555
N1E In1E 1_555 1_555
O2U C1D 1_555 1_555
C1D C2D 1_555 1_555
C2D C3U 1_555 1_555
C3U C3E 1_555 1_555
H1U C3U 1_555 1_555
O2T C1E 1_555 1_555
C3T C2E 1_555 1_555
H1T C3T 1_555 1_555
O2D C1D 1_555 1_555
C3D C2D 1_555 1_555
H1D C3D 1_555 1_555
C6M C5E 1_555 1_555
H2M C6M 1_555 1_555
C7M N1E 1_555 1_555
H3M C7M 1_555 1_555
O3M C4E 1_555 1_555
In1G O2L 1_555 1_555
O2G In1G 1_555 1_555
O3G C4G 1_555 1_555
C1G O2G 1_555 1_555
C2G C1G 1_555 1_555
C3G C2G 1_555 1_555
H1G C3G 1_555 1_555
C4G C5G 1_555 1_555
C5G C6G 1_555 1_555
C6G H2G 1_555 1_555
C7G C6G 1_555 1_555
H3G C7G 1_555 1_555
N1G In1G 1_555 1_555
O2V C1F 1_555 1_555
C1F C2F 1_555 1_555
C2F C3V 1_555 1_555
C3V C3G 1_555 1_555
H1V C3V 1_555 1_555
O2W C1G 1_555 1_555
C3W C2G 1_555 1_555
H1W C3W 1_555 1_555
O2F C1F 1_555 1_555
C3F C2F 1_555 1_555
H1F C3F 1_555 1_555
C6L C5G 1_555 1_555
H2L C6L 1_555 1_555
C7L N1G 1_555 1_555
H3L C7L 1_555 1_555
O3L C4G 1_555 1_555
In1H O1A 1_555 1_555
O3H C4H 1_555 1_555
C4H C5H 1_555 1_555
C5H C6H 1_555 1_555
C6H H2H 1_555 1_555
C7H C6H 1_555 1_555
H3H C7H 1_555 1_555
N1H In1H 1_555 1_555
C6W C5H 1_555 1_555
H2W C6W 1_555 1_555
C7W N1H 1_555 1_555
H3W C7W 1_555 1_555
O3W C4H 1_555 1_555
In1I O2U 1_555 1_555
O3I C4I 1_555 1_555
C4I C5I 1_555 1_555
C5I C6I 1_555 1_555
C6I H2I 1_555 1_555
C7I C6I 1_555 1_555
H3I C7I 1_555 1_555
N1I In1I 1_555 1_555
C6U C5I 1_555 1_555
H2U C6U 1_555 1_555
C7U N1I 1_555 1_555
H3U C7U 1_555 1_555
O3U C4I 1_555 1_555
In1D O2D 1_555 1_555
In1F O2F 1_555 1_555
In1J O2V 1_555 1_555
In1K O1 1_555 1_555
In1X O3W 1_555 1_555
In1Z O3E 1_555 1_555
In1AA O3G 1_555 1_555
In1BA O3S 1_555 1_555
In1CA O3H 1_555 1_555
In1DA O3Q 1_555 1_555
In1GA O3 1_555 1_555
In1HA O3A 1_555 1_555
O1C In1I 1_555 1_555
O2H In1H 1_555 1_555
O2I In1I 1_555 1_555
O2Q In1A 1_555 1_555
O2S In1 1_555 1_555
O3X In1I 1_555 1_555
O3Z In1H 1_555 1_555
O3BA In1A 1_555 1_555
O3DA In1 1_555 1_555
O3FA In1E 1_555 1_555
O3IA In1G 1_555 1_555
O3JA In1I 1_555 1_555
O3MA In1H 1_555 1_555
O3NA In1E 1_555 1_555
O3PA In1G 1_555 1_555
O3RA In1A 1_555 1_555
O3UA In1 1_555 1_555
C7 N1 1_555 1_555
C3M C3A 1_555 1_555
C6S C7S 1_555 1_555
O1A In1G 1_555 1_555
C7A N1A 1_555 1_555
C6Q C7Q 1_555 1_555
C7E N1E 1_555 1_555
O2T In1K 1_555 1_555
C3T C3D 1_555 1_555
C6M C7M 1_555 1_555
O3M In1HA 1_555 1_555
C7G N1G 1_555 1_555
O2W In1H 1_555 1_555
C3W C3F 1_555 1_555
C6L C7L 1_555 1_555
O3L In1GA 1_555 1_555
C7H N1H 1_555 1_555
C6W C7W 1_555 1_555
O3I In1DA 1_555 1_555
C7I N1I 1_555 1_555
C6U C7U 1_555 1_555
O3U In1Z 1_555 1_555
In1D O1C 1_555 1_555

#END
