
#######################################################################
#
#                 Cambridge Crystallographic Data Centre
#                                CCDC 
#
#######################################################################
#
# If this CIF has been generated from an entry in the Cambridge 
# Structural Database, then it will include bibliographic, chemical, 
# crystal, experimental, refinement or atomic coordinate data resulting 
# from the CCDC's data processing and validation procedures.
#
#######################################################################

data_AGOXOK
_symmetry_cell_setting           orthorhombic
_symmetry_space_group_name_H-M   'P b c a'
_symmetry_Int_Tables_number      61
_space_group_name_Hall           '-P 2ac 2ab'
loop_
_symmetry_equiv_pos_site_id
_symmetry_equiv_pos_as_xyz
1 x,y,z
2 1/2-x,-y,1/2+z
3 -x,1/2+y,1/2-z
4 1/2+x,1/2-y,-z
5 -x,-y,-z
6 1/2+x,y,1/2-z
7 x,1/2-y,1/2+z
8 1/2-x,1/2+y,z
_cell_length_a                   21.295(4)
_cell_length_b                   9.7177(19)
_cell_length_c                   24.440(5)
_cell_angle_alpha                90
_cell_angle_beta                 90
_cell_angle_gamma                90
_cell_volume                     5057.58
loop_
_atom_site_label
_atom_site_type_symbol
_atom_site_fract_x
_atom_site_fract_y
_atom_site_fract_z
Hg1 Hg 0.374277(19) 0.12855(4) 0.670365(18)
I1 I 0.34375(4) -0.02626(8) 0.58368(3)
I2 I 0.44953(4) 0.13315(9) 0.75677(3)
O1 O 0.3018(3) 0.4961(8) 0.8261(3)
O2 O 0.0375(3) 0.7089(8) 0.9751(3)
N1 N 0.2739(4) 0.2015(9) 0.7046(4)
N2 N 0.2026(3) 0.4172(9) 0.8104(3)
H1 H 0.1649 0.4223 0.8228
N3 N 0.1581(3) 0.5688(8) 0.8930(3)
N4 N 0.0345(3) 0.5356(8) 0.9121(3)
H2 H 0.0581 0.4874 0.8909
N5 N -0.1067(4) 0.3479(7) 0.8756(4)
C1 C 0.2230(5) 0.1535(11) 0.6809(5)
H3 H 0.2274 0.0923 0.6519
C2 C 0.1634(5) 0.1903(12) 0.6973(4)
H4 H 0.1281 0.1551 0.6798
C3 C 0.1576(4) 0.2814(10) 0.7406(4)
H5 H 0.1181 0.3091 0.7527
C4 C 0.2112(4) 0.3301(10) 0.7656(4)
C5 C 0.2690(4) 0.2899(10) 0.7462(4)
H6 H 0.3053 0.3247 0.7623
C6 C 0.2461(5) 0.4951(11) 0.8370(4)
C7 C 0.2196(4) 0.5800(10) 0.8830(4)
C8 C 0.2579(5) 0.6690(12) 0.9118(5)
H7 H 0.3005 0.6756 0.9038
C9 C 0.2315(5) 0.7476(13) 0.9527(5)
H8 H 0.2564 0.8069 0.9732
C10 C 0.1680(5) 0.7383(11) 0.9633(4)
H9 H 0.1493 0.7922 0.9901
C11 C 0.1331(4) 0.6463(10) 0.9326(4)
C12 C 0.0642(5) 0.6341(10) 0.9427(4)
C13 C -0.0295(4) 0.5039(9) 0.9109(4)
C14 C -0.0755(5) 0.5696(11) 0.9413(5)
H10 H -0.0655 0.6445 0.9633
C15 C -0.1367(5) 0.5216(12) 0.9382(5)
H11 H -0.1686 0.5648 0.9578
C16 C -0.1495(5) 0.4110(12) 0.9063(5)
H12 H -0.1904 0.3774 0.9058
C17 C -0.0481(5) 0.3943(10) 0.8778(4)
H13 H -0.0180 0.3516 0.8561
Hg1E Hg -0.125723(19) 0.12855(4) 0.829635(18)
N5E N 0.3933(4) 0.3479(7) 0.6244(4)
O3 O 0.5923(3) 0.2832(8) 0.6383(3)
N6 N 0.5553(4) 0.0721(9) 0.6163(4)
C18 C 0.5424(7) 0.1046(15) 0.5597(5)
H14 H 0.4990 0.0863 0.5519
H15 H 0.5683 0.0489 0.5365
H16 H 0.5511 0.2001 0.5532
C19 C 0.5445(6) -0.0682(12) 0.6371(6)
H17 H 0.5770 -0.1281 0.6239
H18 H 0.5045 -0.1008 0.6245
H19 H 0.5450 -0.0672 0.6763
C20 C 0.5801(4) 0.1635(10) 0.6498(4)
H20 H 0.5891 0.1345 0.6852
loop_
_geom_bond_atom_site_label_1
_geom_bond_atom_site_label_2
_geom_bond_site_symmetry_1
_geom_bond_site_symmetry_2
Hg1 I1 1_555 1_555
I2 Hg1 1_555 1_555
O1 C6 1_555 1_555
O2 C12 1_555 1_555
O3 C20 1_555 1_555
N1 Hg1 1_555 1_555
N2 H1 1_555 1_555
N3 C7 1_555 1_555
N4 H2 1_555 1_555
N5 C16 1_555 1_555
N6 C18 1_555 1_555
C1 N1 1_555 1_555
H3 C1 1_555 1_555
C2 C1 1_555 1_555
H4 C2 1_555 1_555
C3 C2 1_555 1_555
H5 C3 1_555 1_555
C4 N2 1_555 1_555
C5 N1 1_555 1_555
H6 C5 1_555 1_555
C6 N2 1_555 1_555
C7 C6 1_555 1_555
C8 C7 1_555 1_555
H7 C8 1_555 1_555
C9 C8 1_555 1_555
H8 C9 1_555 1_555
C10 C9 1_555 1_555
H9 C10 1_555 1_555
C11 N3 1_555 1_555
C12 N4 1_555 1_555
C13 N4 1_555 1_555
C14 C13 1_555 1_555
H10 C14 1_555 1_555
C15 C14 1_555 1_555
H11 C15 1_555 1_555
C16 C15 1_555 1_555
H12 C16 1_555 1_555
C17 N5 1_555 1_555
H13 C17 1_555 1_555
C18 H14 1_555 1_555
H15 C18 1_555 1_555
H16 C18 1_555 1_555
C19 N6 1_555 1_555
H17 C19 1_555 1_555
H18 C19 1_555 1_555
H19 C19 1_555 1_555
C20 N6 1_555 1_555
H20 C20 1_555 1_555
Hg1E N5 1_555 1_555
N5E Hg1 1_555 1_555
C3 C4 1_555 1_555
C4 C5 1_555 1_555
C10 C11 1_555 1_555
C11 C12 1_555 1_555
C13 C17 1_555 1_555

#END
