
#######################################################################
#
#                 Cambridge Crystallographic Data Centre
#                                CCDC 
#
#######################################################################
#
# If this CIF has been generated from an entry in the Cambridge 
# Structural Database, then it will include bibliographic, chemical, 
# crystal, experimental, refinement or atomic coordinate data resulting 
# from the CCDC's data processing and validation procedures.
#
#######################################################################

data_AGOXAL03
_symmetry_cell_setting           monoclinic
_symmetry_space_group_name_H-M   'P 1 1 21/b'
_symmetry_Int_Tables_number      14
_space_group_name_Hall           '-P 2bc'
loop_
_symmetry_equiv_pos_site_id
_symmetry_equiv_pos_as_xyz
1 x,y,z
2 -x,1/2-y,1/2+z
3 -x,-y,-z
4 x,1/2+y,1/2-z
_cell_length_a                   3.48(2)
_cell_length_b                   9.58(4)
_cell_length_c                   6.22(3)
_cell_angle_alpha                90
_cell_angle_beta                 90
_cell_angle_gamma                76.63(3)
_cell_volume                     201.745
loop_
_atom_site_label
_atom_site_type_symbol
_atom_site_fract_x
_atom_site_fract_y
_atom_site_fract_z
Ag1 Ag 0.3603(9) 0.1575(9) 0.5048(9)
O1 O 0.674(8) 0.108(8) 0.822(8)
O2 O 1.009(8) -0.117(8) 0.782(8)
C1 C 0.903(12) -0.001(12) 0.885(12)
C1B C 1.097(12) 0.001(12) 1.115(12)
O1B O 1.326(8) -0.108(8) 1.178(8)
O2B O 0.991(8) 0.117(8) 1.218(8)
Ag1B Ag 1.6397(9) -0.1575(9) 1.4952(9)
Ag1B_2 Ag 0.6397(9) -0.1575(9) 0.4952(9)
O1A O 0.326(8) 0.392(8) 0.322(8)
O2B_2 O -0.009(8) 0.117(8) 0.218(8)
O2C O 0.009(8) 0.383(8) 0.718(8)
Ag1A Ag 0.6397(9) 0.3425(9) 1.0048(9)
Ag1C Ag 1.3603(9) -0.3425(9) 0.9952(9)
Ag1_2 Ag 1.3603(9) 0.1575(9) 1.5048(9)
O1C O 1.674(8) -0.392(8) 1.678(8)
O2_2 O 2.009(8) -0.117(8) 1.782(8)
O2A O 1.991(8) -0.383(8) 1.282(8)
loop_
_geom_bond_atom_site_label_1
_geom_bond_atom_site_label_2
_geom_bond_site_symmetry_1
_geom_bond_site_symmetry_2
Ag1 O1 1_555 1_555
O1 C1 1_555 1_555
O2 C1 1_555 1_555
C1 C1B 1_555 1_555
C1B O1B 1_555 1_555
O1B Ag1B 1_555 1_555
O2B C1B 1_555 1_555
Ag1B Ag1_2 1_555 1_555
Ag1B_2 Ag1 1_555 1_555
O1A Ag1 1_555 1_555
O2B_2 Ag1 1_555 1_555
O2C Ag1 1_555 1_555
Ag1A O1 1_555 1_555
Ag1C O2 1_555 1_555
Ag1_2 O2B 1_555 1_555
O1C Ag1B 1_555 1_555
O2_2 Ag1B 1_555 1_555
O2A Ag1B 1_555 1_555
O2 Ag1B_2 1_555 1_555
O1B Ag1C 1_555 1_555
O2B Ag1A 1_555 1_555

#END
