
#######################################################################
#
#                 Cambridge Crystallographic Data Centre
#                                CCDC 
#
#######################################################################
#
# If this CIF has been generated from an entry in the Cambridge 
# Structural Database, then it will include bibliographic, chemical, 
# crystal, experimental, refinement or atomic coordinate data resulting 
# from the CCDC's data processing and validation procedures.
#
#######################################################################

data_AGOZOM
_symmetry_cell_setting           orthorhombic
_symmetry_space_group_name_H-M   'P 21 21 21'
_symmetry_Int_Tables_number      19
_space_group_name_Hall           'P 2ac 2ab'
loop_
_symmetry_equiv_pos_site_id
_symmetry_equiv_pos_as_xyz
1 x,y,z
2 1/2-x,-y,1/2+z
3 -x,1/2+y,1/2-z
4 1/2+x,1/2-y,-z
_cell_length_a                   10.9087(15)
_cell_length_b                   11.214(2)
_cell_length_c                   18.129(3)
_cell_angle_alpha                90
_cell_angle_beta                 90
_cell_angle_gamma                90
_cell_volume                     2217.72
loop_
_atom_site_label
_atom_site_type_symbol
_atom_site_fract_x
_atom_site_fract_y
_atom_site_fract_z
Ni1 Ni 0.24756(4) -0.30846(3) -0.101320(19)
C1 C 0.5625(3) 0.0010(3) 0.06148(16)
C2 C 0.4305(3) 0.0354(3) 0.03948(16)
C3 C 0.4167(4) 0.1232(3) -0.01390(18)
H1 H 0.4864 0.1582 -0.0339
C4 C 0.3031(5) 0.1602(4) -0.0383(2)
H2 H 0.2977 0.2188 -0.0745
C5 C 0.1971(4) 0.1108(4) -0.0095(2)
H3 H 0.1208 0.1353 -0.0265
C6 C 0.2059(3) 0.0243(3) 0.04525(19)
H4 H 0.1351 -0.0082 0.0656
C7 C 0.3233(3) -0.0147(3) 0.07010(16)
C8 C 0.3257(3) -0.0970(3) 0.13631(16)
C9 C 0.3102(3) -0.0475(3) 0.20745(18)
H5 H 0.2988 0.0345 0.2110
C10 C 0.3108(4) -0.1126(4) 0.27158(19)
H6 H 0.2954 -0.0761 0.3167
C11 C 0.3343(4) -0.2313(4) 0.26763(18)
H7 H 0.3383 -0.2778 0.3101
C12 C 0.3524(3) -0.2819(3) 0.19772(17)
H8 H 0.3706 -0.3628 0.1950
C13 C 0.3445(3) -0.2180(3) 0.13252(16)
C14 C 0.3500(3) -0.2832(3) 0.05824(16)
C15 C 0.4937(3) -0.1654(3) -0.1073(2)
H9 H 0.4958 -0.1776 -0.0565
C16 C 0.5799(3) -0.0915(3) -0.1394(2)
H10 H 0.6392 -0.0543 -0.1106
C17 C 0.5771(4) -0.0733(4) -0.2153(3)
H11 H 0.6337 -0.0228 -0.2375
C18 C 0.4900(4) -0.1305(4) -0.2576(2)
H12 H 0.4877 -0.1198 -0.3085
C19 C 0.4047(3) -0.2051(3) -0.22231(18)
C20 C 0.3066(3) -0.2714(3) -0.26257(17)
C21 C 0.3005(4) -0.2770(3) -0.34066(18)
H13 H 0.3595 -0.2391 -0.3694
C22 C 0.2058(4) -0.3395(3) -0.3736(2)
H14 H 0.2007 -0.3445 -0.4247
C23 C 0.1192(4) -0.3942(3) -0.33014(18)
H15 H 0.0547 -0.4362 -0.3514
C24 C 0.1297(3) -0.3857(3) -0.25287(18)
H16 H 0.0705 -0.4220 -0.2236
N1 N 0.4065(2) -0.2203(2) -0.14781(14)
N2 N 0.2231(2) -0.3267(2) -0.21945(13)
O1 O 0.28142(19) -0.24587(19) 0.00612(11)
O2 O 0.4185(2) -0.3728(2) 0.05422(12)
O3 O 0.58196(19) -0.10632(18) 0.07528(12)
O4 O 0.6422(2) 0.0789(2) 0.06222(17)
O5 O 0.1519(2) -0.14143(18) -0.10931(12)
H17 H 0.187(2) -0.105(3) -0.0736(15)
H18 H 0.0764(16) -0.142(3) -0.0975(17)
O6 O 0.3552(2) -0.4655(2) -0.08341(13)
H19 H 0.302(3) -0.516(3) -0.0775(18)
H20 H 0.385(3) -0.443(3) -0.0442(13)
Ni1C Ni 0.74756(4) -0.19154(3) 0.101320(19)
O3C O 0.08196(19) -0.39368(18) -0.07528(12)
loop_
_geom_bond_atom_site_label_1
_geom_bond_atom_site_label_2
_geom_bond_site_symmetry_1
_geom_bond_site_symmetry_2
Ni1 N1 1_555 1_555
C1 C2 1_555 1_555
C2 C3 1_555 1_555
C3 H1 1_555 1_555
C4 C3 1_555 1_555
H2 C4 1_555 1_555
C5 C4 1_555 1_555
H3 C5 1_555 1_555
C6 C5 1_555 1_555
H4 C6 1_555 1_555
C7 C2 1_555 1_555
C8 C7 1_555 1_555
C9 C8 1_555 1_555
H5 C9 1_555 1_555
C10 C9 1_555 1_555
H6 C10 1_555 1_555
C11 C10 1_555 1_555
H7 C11 1_555 1_555
C12 C11 1_555 1_555
H8 C12 1_555 1_555
C13 C8 1_555 1_555
C14 C13 1_555 1_555
C15 H9 1_555 1_555
C16 C15 1_555 1_555
H10 C16 1_555 1_555
C17 C16 1_555 1_555
H11 C17 1_555 1_555
C18 C17 1_555 1_555
H12 C18 1_555 1_555
C19 C18 1_555 1_555
C20 C19 1_555 1_555
C21 C20 1_555 1_555
H13 C21 1_555 1_555
C22 C21 1_555 1_555
H14 C22 1_555 1_555
C23 C22 1_555 1_555
H15 C23 1_555 1_555
C24 C23 1_555 1_555
H16 C24 1_555 1_555
N1 C15 1_555 1_555
N2 Ni1 1_555 1_555
O1 Ni1 1_555 1_555
O2 C14 1_555 1_555
O3 C1 1_555 1_555
O4 C1 1_555 1_555
O5 Ni1 1_555 1_555
H17 O5 1_555 1_555
H18 O5 1_555 1_555
O6 Ni1 1_555 1_555
H19 O6 1_555 1_555
H20 O6 1_555 1_555
Ni1C O3 1_555 1_555
O3C Ni1 1_555 1_555
C6 C7 1_555 1_555
C12 C13 1_555 1_555
C14 O1 1_555 1_555
C19 N1 1_555 1_555
C20 N2 1_555 1_555
C24 N2 1_555 1_555

#END
