
#######################################################################
#
#                 Cambridge Crystallographic Data Centre
#                                CCDC 
#
#######################################################################
#
# If this CIF has been generated from an entry in the Cambridge 
# Structural Database, then it will include bibliographic, chemical, 
# crystal, experimental, refinement or atomic coordinate data resulting 
# from the CCDC's data processing and validation procedures.
#
#######################################################################

data_AGOZED
_symmetry_cell_setting           monoclinic
_symmetry_space_group_name_H-M   'P 2/c'
_symmetry_Int_Tables_number      13
_space_group_name_Hall           '-P 2yc'
loop_
_symmetry_equiv_pos_site_id
_symmetry_equiv_pos_as_xyz
1 x,y,z
2 -x,y,1/2-z
3 -x,-y,-z
4 x,-y,1/2+z
_cell_length_a                   19.1588(13)
_cell_length_b                   11.6924(8)
_cell_length_c                   15.8248(9)
_cell_angle_alpha                90
_cell_angle_beta                 90.00
_cell_angle_gamma                90
_cell_volume                     3544.95
loop_
_atom_site_label
_atom_site_type_symbol
_atom_site_fract_x
_atom_site_fract_y
_atom_site_fract_z
Cd1 Cd 0.05985(10) 0.33582(10) 0.64541(14)
Cd2 Cd 0.44005(12) 0.32739(16) 0.14581(17)
S1 S 0.3143(4) 0.3324(6) 0.4952(4)
C1 C 0.3378(11) 0.3250(17) 0.3973(15)
C2 C 0.2797(13) 0.3472(19) 0.3408(16)
H1 H 0.2837 0.3660 0.2826
C3 C 0.2165(12) 0.337(2) 0.3855(16)
H2 H 0.1725 0.3247 0.3594
C4 C 0.2266(15) 0.347(2) 0.4769(19)
C5 C 0.4158(17) 0.330(3) 0.362(3)
C6 C 0.1714(14) 0.331(2) 0.5335(16)
O1 O 0.4538(12) 0.311(2) 0.4187(15)
O2 O 0.4235(10) 0.3288(14) 0.2909(13)
O3 O 0.1918(10) 0.3317(15) 0.6154(14)
O4 O 0.1114(11) 0.3414(16) 0.5166(13)
S2 S 0.1861(4) 0.3399(8) -0.0030(5)
C7 C 0.2740(15) 0.338(2) -0.0335(17)
C8 C 0.2846(14) 0.360(2) -0.1083(18)
H3 H 0.3295 0.3807 -0.1288
C9 C 0.2265(15) 0.353(2) -0.161(2)
H4 H 0.2285 0.3514 -0.2212
C10 C 0.1640(12) 0.349(2) -0.1133(15)
C11 C 0.3222(17) 0.344(2) 0.0493(19)
C12 C 0.0931(11) 0.3303(15) -0.1357(15)
O5 O 0.3919(13) 0.3251(18) 0.0106(16)
O6 O 0.3117(13) 0.3377(18) 0.1138(16)
O7 O 0.0743(13) 0.346(2) -0.2137(16)
O8 O 0.0446(8) 0.3313(13) -0.0749(10)
N1 N 0.4381(7) 0.5188(8) 0.1497(9)
C13 C 0.3868(6) 0.5767(11) 0.1853(9)
H5 H 0.3487 0.5350 0.2081
C14 C 0.3855(7) 0.6934(11) 0.1912(10)
H6 H 0.3472 0.7304 0.2178
C15 C 0.4398(9) 0.7575(8) 0.1584(11)
C16 C 0.4913(7) 0.6958(11) 0.1191(11)
H7 H 0.5290 0.7351 0.0930
C17 C 0.4894(6) 0.5798(11) 0.1167(9)
H8 H 0.5268 0.5405 0.0900
N2 N 0.4409(7) 1.1297(7) 0.1565(9)
C18 C 0.3790(6) 1.0714(11) 0.1722(9)
H9 H 0.3377 1.1128 0.1853
C19 C 0.3775(6) 0.9527(11) 0.1687(10)
H10 H 0.3352 0.9129 0.1794
C20 C 0.4379(8) 0.8921(7) 0.1495(11)
C21 C 0.4998(6) 0.9504(10) 0.1339(10)
H11 H 0.5411 0.9090 0.1207
C22 C 0.5013(6) 1.0691(11) 0.1374(10)
H12 H 0.5437 1.1089 0.1267
N3 N 0.0563(8) 0.5395(8) 0.6604(9)
C23 C 0.0104(7) 0.6002(11) 0.6173(9)
H13 H -0.0254 0.5605 0.5879
C24 C 0.0114(8) 0.7169(12) 0.6125(11)
H14 H -0.0231 0.7561 0.5806
C25 C 0.0629(9) 0.7781(8) 0.6541(12)
C26 C 0.1114(8) 0.7132(12) 0.6960(10)
H15 H 0.1492 0.7500 0.7237
C27 C 0.1063(7) 0.5974(12) 0.6987(9)
H16 H 0.1404 0.5560 0.7298
N4 N 0.0610(8) 1.1419(7) 0.6508(9)
C28 C 0.0295(7) 1.0796(10) 0.5921(8)
H17 H 0.0078 1.1188 0.5465
C29 C 0.0260(8) 0.9632(10) 0.5927(8)
H18 H 0.0022 0.9247 0.5484
C30 C 0.0563(9) 0.9007(7) 0.6566(10)
C31 C 0.0899(8) 0.9645(11) 0.7172(8)
H19 H 0.1122 0.9271 0.7632
C32 C 0.0915(7) 1.0814(10) 0.7118(8)
H20 H 0.1160 1.1220 0.7545
Cd1_2 Cd 0.05985(10) 0.33582(10) -0.35459(14)
Cd1_3 Cd 0.05985(10) 1.33582(10) 0.64541(14)
Cd1A Cd -0.05985(10) 0.33582(10) -0.14541(14)
Cd2_2 Cd 0.44005(12) 1.32739(16) 0.14581(17)
Cd2A Cd 0.55995(12) 0.32739(16) 0.35419(17)
O1A O 0.5462(12) 0.311(2) 0.0813(15)
O2A O 0.5765(10) 0.3288(14) 0.2091(13)
O7_2 O 0.0743(13) 0.346(2) 0.7863(16)
O7A O -0.0743(13) 0.346(2) 0.7137(16)
O8A O -0.0446(8) 0.3313(13) 0.5749(10)
N2_2 N 0.4409(7) 0.1297(7) 0.1565(9)
N4_2 N 0.0610(8) 0.1419(7) 0.6508(9)
loop_
_geom_bond_atom_site_label_1
_geom_bond_atom_site_label_2
_geom_bond_site_symmetry_1
_geom_bond_site_symmetry_2
Cd1 O3 1_555 1_555
Cd2 O2 1_555 1_555
S1 C1 1_555 1_555
C1 C2 1_555 1_555
C2 H1 1_555 1_555
C3 C2 1_555 1_555
H2 C3 1_555 1_555
C4 S1 1_555 1_555
C5 C1 1_555 1_555
C6 C4 1_555 1_555
O1 C5 1_555 1_555
O2 C5 1_555 1_555
O3 C6 1_555 1_555
O4 Cd1 1_555 1_555
S2 C7 1_555 1_555
C7 C8 1_555 1_555
C8 H3 1_555 1_555
C9 C8 1_555 1_555
H4 C9 1_555 1_555
C10 S2 1_555 1_555
C11 C7 1_555 1_555
C12 C10 1_555 1_555
O5 Cd2 1_555 1_555
O6 Cd2 1_555 1_555
O7 C12 1_555 1_555
O8 C12 1_555 1_555
N1 Cd2 1_555 1_555
C13 N1 1_555 1_555
H5 C13 1_555 1_555
C14 C13 1_555 1_555
H6 C14 1_555 1_555
C15 C14 1_555 1_555
C16 C15 1_555 1_555
H7 C16 1_555 1_555
C17 N1 1_555 1_555
H8 C17 1_555 1_555
N2 C18 1_555 1_555
C18 H9 1_555 1_555
C19 C18 1_555 1_555
H10 C19 1_555 1_555
C20 C15 1_555 1_555
C21 C20 1_555 1_555
H11 C21 1_555 1_555
C22 N2 1_555 1_555
H12 C22 1_555 1_555
N3 Cd1 1_555 1_555
C23 N3 1_555 1_555
H13 C23 1_555 1_555
C24 C23 1_555 1_555
H14 C24 1_555 1_555
C25 C24 1_555 1_555
C26 C25 1_555 1_555
H15 C26 1_555 1_555
C27 N3 1_555 1_555
H16 C27 1_555 1_555
N4 C28 1_555 1_555
C28 H17 1_555 1_555
C29 C28 1_555 1_555
H18 C29 1_555 1_555
C30 C25 1_555 1_555
C31 C30 1_555 1_555
H19 C31 1_555 1_555
C32 N4 1_555 1_555
H20 C32 1_555 1_555
Cd1_2 O7 1_555 1_555
Cd1_3 N4 1_555 1_555
Cd1A O7 1_555 1_555
Cd2_2 N2 1_555 1_555
Cd2A O1 1_555 1_555
O1A Cd2 1_555 1_555
O2A Cd2 1_555 1_555
O7_2 Cd1 1_555 1_555
O7A Cd1 1_555 1_555
O8A Cd1 1_555 1_555
N2_2 Cd2 1_555 1_555
N4_2 Cd1 1_555 1_555
C3 C4 1_555 1_555
C6 O4 1_555 1_555
O2 Cd2A 1_555 1_555
C9 C10 1_555 1_555
C11 O5 1_555 1_555
C11 O6 1_555 1_555
O8 Cd1A 1_555 1_555
C16 C17 1_555 1_555
C19 C20 1_555 1_555
C21 C22 1_555 1_555
C26 C27 1_555 1_555
C29 C30 1_555 1_555
C31 C32 1_555 1_555
Cd2A O2A 1_555 1_555

#END
