
#######################################################################
#
#                 Cambridge Crystallographic Data Centre
#                                CCDC 
#
#######################################################################
#
# If this CIF has been generated from an entry in the Cambridge 
# Structural Database, then it will include bibliographic, chemical, 
# crystal, experimental, refinement or atomic coordinate data resulting 
# from the CCDC's data processing and validation procedures.
#
#######################################################################

data_AGPHCU
_symmetry_cell_setting           triclinic
_symmetry_space_group_name_H-M   'P -1'
_symmetry_Int_Tables_number      2
_space_group_name_Hall           '-P 1'
loop_
_symmetry_equiv_pos_site_id
_symmetry_equiv_pos_as_xyz
1 x,y,z
2 -x,-y,-z
_cell_length_a                   11.388(11)
_cell_length_b                   11.772(12)
_cell_length_c                   7.875(9)
_cell_angle_alpha                100.3(1)
_cell_angle_beta                 80.2(1)
_cell_angle_gamma                102.2(1)
_cell_volume                     1005.58
loop_
_atom_site_label
_atom_site_type_symbol
_atom_site_fract_x
_atom_site_fract_y
_atom_site_fract_z
Ag1 Ag 0.87130 -0.16630 0.22450
Cu1 Cu 0.55490 -0.11630 -0.23870
Cu2 Cu 0.63000 0.04520 0.46500
O1 O 0.61490 -0.23660 -0.16160
O2 O 0.54170 -0.16810 0.10180
O3 O 0.52520 -0.23370 0.51030
O4 O 0.69240 -0.13740 0.38490
O5 O 1.37790 -0.17340 -0.14030
O6 O 1.25670 -0.09930 -0.27250
O7 O 1.25250 -0.12400 0.38260
O8 O 1.29170 -0.00750 0.17200
O9 O 0.50930 0.00200 -0.33780
O13 O 0.88400 -0.08550 -0.02860
O14 O 0.96680 0.03610 0.36330
C1 C 0.62580 -0.33720 0.07310
C2 C 0.62290 -0.33240 0.25330
C3 C 0.63720 -0.43220 0.31590
C4 C 0.66010 -0.53130 0.20030
C5 C 0.66630 -0.53360 0.02210
C6 C 0.65010 -0.43640 -0.03760
C7 C 0.59360 -0.23820 0.00020
C8 C 0.61020 -0.22620 0.39140
C9 C 1.16690 -0.21030 -0.04600
C10 C 1.15380 -0.19070 0.13400
C11 C 1.05790 -0.25570 0.22930
C12 C 0.97300 -0.33930 0.14270
C13 C 0.98630 -0.35640 -0.03530
C14 C 1.08170 -0.29300 -0.13070
C15 C 1.27770 -0.15440 -0.15730
C16 C 1.24060 -0.09860 0.23440
H1 H 0.49400 0.04100 -0.24400
H2 H 0.63800 -0.43300 0.43600
H3 H 0.67300 -0.60700 0.24600
H4 H 0.68200 -0.60400 -0.06500
H5 H 0.64800 -0.43700 -0.14200
H6 H 1.03800 -0.25100 0.36400
H7 H 0.92300 -0.38800 0.20000
H8 H 0.92600 -0.40300 -0.08500
H9 H 1.09000 -0.30300 -0.23900
O3_2 O 0.52520 -0.23370 -0.48970
O5_2 O 0.37790 -0.17340 -0.14030
O8A O 0.70830 0.00750 -0.17200
O6A O 0.74330 0.09930 0.27250
O7A O 0.74750 0.12400 0.61740
O9_2 O 0.50930 0.00200 0.66220
O9A O 0.49070 -0.00200 0.33780
Cu1_2 Cu 0.55490 -0.11630 0.76130
Cu1_3 Cu 1.55490 -0.11630 -0.23870
Cu2A Cu 1.37000 -0.04520 -0.46500
Cu2A_2 Cu 1.37000 -0.04520 0.53500
Cu1A Cu 1.44510 0.11630 0.23870
Cu2_2 Cu 0.63000 0.04520 -0.53500
Cu2A_3 Cu 0.37000 -0.04520 -0.46500
H1_2 H 0.49400 0.04100 0.75600
H1A H 0.50600 -0.04100 0.24400
O10 O 1.29240 0.64690 0.43170
O11 O 1.10610 0.45880 0.46190
O12 O 1.15350 0.24120 0.36380
loop_
_geom_bond_atom_site_label_1
_geom_bond_atom_site_label_2
_geom_bond_site_symmetry_1
_geom_bond_site_symmetry_2
Ag1 O4 1_555 1_555
Cu1 O1 1_555 1_555
Cu2 O4 1_555 1_555
O1 C7 1_555 1_555
O2 C7 1_555 1_555
O3 C8 1_555 1_555
O4 C8 1_555 1_555
O5 C15 1_555 1_555
O6 C15 1_555 1_555
O7 C16 1_555 1_555
O8 C16 1_555 1_555
O9 Cu1 1_555 1_555
O13 Ag1 1_555 1_555
O14 Ag1 1_555 1_555
C1 C2 1_555 1_555
C2 C3 1_555 1_555
C3 C4 1_555 1_555
C4 C5 1_555 1_555
C5 C6 1_555 1_555
C6 C1 1_555 1_555
C7 C1 1_555 1_555
C8 C2 1_555 1_555
C9 C10 1_555 1_555
C10 C11 1_555 1_555
C11 Ag1 1_555 1_555
C12 Ag1 1_555 1_555
C13 C12 1_555 1_555
C14 C9 1_555 1_555
C15 C9 1_555 1_555
C16 C10 1_555 1_555
H1 O9 1_555 1_555
H2 C3 1_555 1_555
H3 C4 1_555 1_555
H4 C5 1_555 1_555
H5 C6 1_555 1_555
H6 C11 1_555 1_555
H7 C12 1_555 1_555
H8 C13 1_555 1_555
H9 C14 1_555 1_555
O3_2 Cu1 1_555 1_555
O5_2 Cu1 1_555 1_555
O8A Cu1 1_555 1_555
O6A Cu2 1_555 1_555
O7A Cu2 1_555 1_555
O9_2 Cu2 1_555 1_555
O9A Cu2 1_555 1_555
Cu1_2 O3 1_555 1_555
Cu1_3 O5 1_555 1_555
Cu2A O6 1_555 1_555
Cu2A_2 O7 1_555 1_555
Cu1A O8 1_555 1_555
Cu2_2 O9 1_555 1_555
Cu2A_3 O9 1_555 1_555
H1_2 O9_2 1_555 1_555
H1A O9A 1_555 1_555
C11 C12 1_555 1_555
C13 C14 1_555 1_555
O9_2 Cu1_2 1_555 1_555

#END
