
#######################################################################
#
#                 Cambridge Crystallographic Data Centre
#                                CCDC 
#
#######################################################################
#
# If this CIF has been generated from an entry in the Cambridge 
# Structural Database, then it will include bibliographic, chemical, 
# crystal, experimental, refinement or atomic coordinate data resulting 
# from the CCDC's data processing and validation procedures.
#
#######################################################################

data_AGUGOZ
_symmetry_cell_setting           monoclinic
_symmetry_space_group_name_H-M   'P 21'
_symmetry_Int_Tables_number      4
_space_group_name_Hall           'P 2yb'
loop_
_symmetry_equiv_pos_site_id
_symmetry_equiv_pos_as_xyz
1 x,y,z
2 -x,1/2+y,-z
_cell_length_a                   9.8998(4)
_cell_length_b                   11.0917(6)
_cell_length_c                   9.9506(7)
_cell_angle_alpha                90
_cell_angle_beta                 117.386(3)
_cell_angle_gamma                90
_cell_volume                     970.178
loop_
_atom_site_label
_atom_site_type_symbol
_atom_site_fract_x
_atom_site_fract_y
_atom_site_fract_z
Gd1 Gd 0.739143(10) 0.98783(2) 0.845497(10)
C1 C 0.9020(3) 0.9223(2) 0.6779(3)
C2 C 0.9966(3) 0.8996(2) 0.5966(3)
H1 H 1.0095 0.8119 0.5995
C3 C 1.1608(3) 0.9503(2) 0.6812(3)
H2 H 1.2080 0.9109 0.7805
C4 C 1.1806(3) 1.0847(3) 0.7113(3)
C5 C 1.2494(3) 0.9074(2) 0.5978(3)
H3 H 1.2456 0.8192 0.6013
C6 C 1.4167(3) 0.9377(3) 0.6883(3)
C7 C 1.1743(3) 0.9375(3) 0.4276(3)
H4 H 1.2280 0.8879 0.3859
C8 C 1.1837(3) 1.0648(3) 0.3787(3)
C9 C 1.0094(3) 0.8917(2) 0.3505(3)
H5 H 1.0196 0.8043 0.3662
C10 C 0.9400(3) 0.9057(2) 0.1789(3)
C11 C 0.9121(3) 0.9308(3) 0.4278(3)
H6 H 0.8228 0.8779 0.3856
C12 C 0.8494(3) 1.0575(3) 0.4045(3)
O1 O 0.7622(2) 0.9040(2) 0.6136(2)
O2 O 0.9664(2) 0.95661(18) 0.8143(2)
O3 O 1.1390(2) 1.13000(19) 0.8086(2)
H7 H 1.1031 1.0764 0.8392
O4 O 1.2411(3) 1.1487(2) 0.6558(2)
O5 O 1.4815(2) 0.9232(2) 0.8261(2)
O6 O 1.4920(2) 0.9711(3) 0.6187(2)
O7 O 1.3174(3) 1.1053(2) 0.4018(3)
H8 H 1.3839 1.0587 0.4578
O8 O 1.0709(3) 1.12509(19) 0.3037(2)
O9 O 1.0152(3) 0.8777(2) 0.1141(2)
O10 O 0.8020(2) 0.94351(19) 0.1044(2)
O11 O 0.7553(3) 1.0920(2) 0.2656(2)
H9 H 0.7570 1.0426 0.2050
O12 O 0.8699(2) 1.12352(18) 0.5094(2)
O13 O 0.7171(3) 1.15815(19) 0.6811(3)
O14 O 0.7290(2) 0.7726(2) 0.8408(2)
O15 O 0.6110(3) 1.1491(2) 0.9103(3)
O16 O 0.9254(3) 1.14639(19) 0.9895(2)
Gd1_2 Gd 1.739143(10) 0.98783(2) 0.845497(10)
Gd1_3 Gd 0.739143(10) 0.98783(2) -0.154503(10)
O5_2 O 0.4815(2) 0.9232(2) 0.8261(2)
O6_2 O 0.4920(2) 0.9711(3) 0.6187(2)
O10_2 O 0.8020(2) 0.94351(19) 1.1044(2)
O17 O 0.4817(3) 1.3097(2) 0.6387(3)
O18 O 0.4405(3) 1.1210(2) 1.0742(3)
O19 O 0.7037(3) 1.4012(3) 0.9166(3)
loop_
_geom_bond_atom_site_label_1
_geom_bond_atom_site_label_2
_geom_bond_site_symmetry_1
_geom_bond_site_symmetry_2
Gd1 O1 1_555 1_555
C1 C2 1_555 1_555
C2 H1 1_555 1_555
C3 C2 1_555 1_555
H2 C3 1_555 1_555
C4 C3 1_555 1_555
C5 C3 1_555 1_555
H3 C5 1_555 1_555
C6 C5 1_555 1_555
C7 C5 1_555 1_555
H4 C7 1_555 1_555
C8 C7 1_555 1_555
C9 C7 1_555 1_555
H5 C9 1_555 1_555
C10 C9 1_555 1_555
C11 C2 1_555 1_555
H6 C11 1_555 1_555
C12 C11 1_555 1_555
O1 C1 1_555 1_555
O2 Gd1 1_555 1_555
O3 C4 1_555 1_555
H7 O3 1_555 1_555
O4 C4 1_555 1_555
O5 C6 1_555 1_555
O6 C6 1_555 1_555
O7 C8 1_555 1_555
H8 O7 1_555 1_555
O8 C8 1_555 1_555
O9 C10 1_555 1_555
O10 C10 1_555 1_555
O11 C12 1_555 1_555
H9 O11 1_555 1_555
O12 C12 1_555 1_555
O13 Gd1 1_555 1_555
O14 Gd1 1_555 1_555
O15 Gd1 1_555 1_555
O16 Gd1 1_555 1_555
Gd1_2 O5 1_555 1_555
Gd1_3 O10 1_555 1_555
O5_2 Gd1 1_555 1_555
O6_2 Gd1 1_555 1_555
O10_2 Gd1 1_555 1_555
C1 O2 1_555 1_555
C9 C11 1_555 1_555
O6 Gd1_2 1_555 1_555

#END
