
#######################################################################
#
#                 Cambridge Crystallographic Data Centre
#                                CCDC 
#
#######################################################################
#
# If this CIF has been generated from an entry in the Cambridge 
# Structural Database, then it will include bibliographic, chemical, 
# crystal, experimental, refinement or atomic coordinate data resulting 
# from the CCDC's data processing and validation procedures.
#
#######################################################################

data_AGUMOF
_symmetry_cell_setting           monoclinic
_symmetry_space_group_name_H-M   'C 2/c'
_symmetry_Int_Tables_number      15
_space_group_name_Hall           '-C 2yn'
loop_
_symmetry_equiv_pos_site_id
_symmetry_equiv_pos_as_xyz
1 x,y,z
2 -x,y,1/2-z
3 1/2+x,1/2+y,z
4 1/2-x,1/2+y,1/2-z
5 -x,-y,-z
6 x,-y,1/2+z
7 1/2-x,1/2-y,-z
8 1/2+x,1/2-y,1/2+z
_cell_length_a                   19.0610(7)
_cell_length_b                   10.4310(7)
_cell_length_c                   18.3960(14)
_cell_angle_alpha                90
_cell_angle_beta                 93.1480(10)
_cell_angle_gamma                90
_cell_volume                     3652.07
loop_
_atom_site_label
_atom_site_type_symbol
_atom_site_fract_x
_atom_site_fract_y
_atom_site_fract_z
Cu1 Cu 0.0000 0.0000 0.0000
Mo1 Mo -0.182170(15) -0.03161(3) -0.054730(17)
Mo2 Mo -0.254190(16) -0.30003(3) -0.095020(16)
Mo3 Mo -0.102710(16) -0.29862(3) 0.028970(17)
Mo4 Mo -0.176850(16) -0.57049(3) -0.016510(18)
C1 C -0.0395(2) -0.0354(4) 0.1568(2)
H1 H -0.0104 -0.1061 0.1651
C2 C -0.08892(19) 0.1227(3) 0.1044(2)
H2 H -0.1026 0.1857 0.0708
C3 C -0.1636(2) 0.1920(4) 0.2065(2)
H3 H -0.1890 0.1408 0.2403
H4 H -0.1975 0.2280 0.1709
C4 C -0.1251(2) 0.2996(4) 0.2473(2)
C5 C -0.0724(2) 0.2748(4) 0.3009(2)
H5 H -0.0607 0.1906 0.3129
C6 C -0.0376(2) 0.3745(4) 0.3361(2)
H6 H -0.0021 0.3577 0.3716
C7 C -0.0552(2) 0.4973(4) 0.3190(2)
H7 H -0.0318 0.5651 0.3424
C8 C -0.1413(2) 0.4255(4) 0.2322(2)
H8 H -0.1766 0.4454 0.1971
N1 N -0.11398(16) 0.1099(3) 0.16940(17)
N2 N -0.08202(18) 0.0070(3) 0.20428(19)
N3 N -0.04155(15) 0.0331(3) 0.09403(16)
N4 N -0.10629(19) 0.5197(3) 0.2681(2)
H9 H -0.117(2) 0.5988(16) 0.262(3)
O1 O -0.22098(13) -0.4519(2) -0.11340(14)
O2 O -0.28089(14) -0.2397(3) -0.17708(14)
O4 O -0.16437(12) -0.2136(2) -0.07770(13)
O5 O -0.15823(11) -0.1467(2) 0.05650(13)
O6 O -0.22007(11) -0.3641(2) 0.02841(12)
O7 O -0.08284(14) -0.3558(3) 0.11373(15)
O8 O -0.02881(13) -0.2213(2) 0.00383(16)
O9 O -0.10313(12) -0.4486(2) -0.02808(14)
O10 O -0.15641(15) -0.6913(2) -0.07294(17)
O11 O -0.15087(14) -0.6218(2) 0.06895(15)
O12 O -0.22284(12) 0.0855(2) 0.00775(14)
O13 O -0.21236(13) 0.0182(2) -0.13803(14)
O14 O -0.09480(12) 0.0172(2) -0.04899(14)
Cu1B Cu -0.5000 -0.5000 0.0000
Mo1F Mo -0.317830(15) -0.46839(3) 0.054730(17)
Mo2F Mo -0.245810(16) -0.19997(3) 0.095020(16)
Mo3F Mo -0.397290(16) -0.20138(3) -0.028970(17)
Mo4F Mo -0.323150(16) 0.07049(3) 0.016510(18)
C1D C 0.0395(2) 0.0354(4) -0.1568(2)
H1D H 0.0104 0.1061 -0.1651
C2D C 0.08892(19) -0.1227(3) -0.1044(2)
H2D H 0.1026 -0.1857 -0.0708
C3D C 0.1636(2) -0.1920(4) -0.2065(2)
H3D H 0.1890 -0.1408 -0.2403
H4D H 0.1975 -0.2280 -0.1709
C4D C 0.1251(2) -0.2996(4) -0.2473(2)
C5D C 0.0724(2) -0.2748(4) -0.3009(2)
H5D H 0.0607 -0.1906 -0.3129
C6D C 0.0376(2) -0.3745(4) -0.3361(2)
H6D H 0.0021 -0.3577 -0.3716
C7D C 0.0552(2) -0.4973(4) -0.3190(2)
H7D H 0.0318 -0.5651 -0.3424
C8D C 0.1413(2) -0.4255(4) -0.2322(2)
H8D H 0.1766 -0.4454 -0.1971
N1D N 0.11398(16) -0.1099(3) -0.16940(17)
N2D N 0.08202(18) -0.0070(3) -0.20428(19)
N3D N 0.04155(15) -0.0331(3) -0.09403(16)
N4D N 0.10629(19) -0.5197(3) -0.2681(2)
H9D H 0.117(2) -0.5988(16) -0.262(3)
O1F O -0.27902(13) -0.0481(2) 0.11340(14)
O2F O -0.21911(14) -0.2603(3) 0.17708(14)
O4F O -0.33563(12) -0.2864(2) 0.07770(13)
O5F O -0.34177(11) -0.3533(2) -0.05650(13)
O6F O -0.27993(11) -0.1359(2) -0.02841(12)
O7F O -0.41716(14) -0.1442(3) -0.11373(15)
O8D O 0.02881(13) 0.2213(2) -0.00383(16)
O8F O -0.47119(13) -0.2787(2) -0.00383(16)
O9F O -0.39687(12) -0.0514(2) 0.02808(14)
O10F O -0.34359(15) 0.1913(2) 0.07294(17)
O11F O -0.34913(14) 0.1218(2) -0.06895(15)
O12F O -0.27716(12) -0.5855(2) -0.00775(14)
O13F O -0.28764(13) -0.5182(2) 0.13803(14)
O14D O 0.09480(12) -0.0172(2) 0.04899(14)
O14F O -0.40520(12) -0.5172(2) 0.04899(14)
O3 O -0.09977(18) 0.7785(3) 0.29757(19)
H10 H -0.129(2) 0.771(4) 0.3305(19)
H11 H -0.1127(19) 0.840(3) 0.2696(18)
loop_
_geom_bond_atom_site_label_1
_geom_bond_atom_site_label_2
_geom_bond_site_symmetry_1
_geom_bond_site_symmetry_2
Cu1 N3 1_555 1_555
Mo1 O4 1_555 1_555
Mo2 O1 1_555 1_555
Mo3 O4 1_555 1_555
Mo4 O1 1_555 1_555
C1 H1 1_555 1_555
C2 H2 1_555 1_555
C3 H3 1_555 1_555
H4 C3 1_555 1_555
C4 C3 1_555 1_555
C5 C4 1_555 1_555
H5 C5 1_555 1_555
C6 C5 1_555 1_555
H6 C6 1_555 1_555
C7 C6 1_555 1_555
H7 C7 1_555 1_555
C8 C4 1_555 1_555
H8 C8 1_555 1_555
N1 C2 1_555 1_555
N2 C1 1_555 1_555
N3 C1 1_555 1_555
N4 C7 1_555 1_555
H9 N4 1_555 1_555
O2 Mo2 1_555 1_555
O3 H10 1_555 1_555
H11 O3 1_555 1_555
O4 Mo2 1_555 1_555
O5 Mo1 1_555 1_555
O6 Mo2 1_555 1_555
O7 Mo3 1_555 1_555
O8 Cu1 1_555 1_555
O9 Mo3 1_555 1_555
O10 Mo4 1_555 1_555
O11 Mo4 1_555 1_555
O12 Mo1 1_555 1_555
O13 Mo1 1_555 1_555
O14 Cu1 1_555 1_555
Cu1B O8F 1_555 1_555
Mo1F O6 1_555 1_555
Mo2F O5 1_555 1_555
Mo3F O4F 1_555 1_555
Mo4F O12 1_555 1_555
C1D H1D 1_555 1_555
C2D H2D 1_555 1_555
C3D H3D 1_555 1_555
H4D C3D 1_555 1_555
C4D C3D 1_555 1_555
C5D C4D 1_555 1_555
H5D C5D 1_555 1_555
C6D C5D 1_555 1_555
H6D C6D 1_555 1_555
C7D C6D 1_555 1_555
H7D C7D 1_555 1_555
C8D C4D 1_555 1_555
H8D C8D 1_555 1_555
N1D C2D 1_555 1_555
N2D C1D 1_555 1_555
N3D Cu1 1_555 1_555
N4D C7D 1_555 1_555
H9D N4D 1_555 1_555
O1F Mo2F 1_555 1_555
O2F Mo2F 1_555 1_555
O4F Mo1F 1_555 1_555
O5F Mo2 1_555 1_555
O6F Mo1 1_555 1_555
O7F Mo3F 1_555 1_555
O8D Cu1 1_555 1_555
O8F Mo3F 1_555 1_555
O9F Mo3F 1_555 1_555
O10F Mo4F 1_555 1_555
O11F Mo4F 1_555 1_555
O12F Mo4 1_555 1_555
O13F Mo1F 1_555 1_555
O14D Cu1 1_555 1_555
O14F Cu1B 1_555 1_555
Mo1 O14 1_555 1_555
Mo2 O6F 1_555 1_555
Mo3 O5 1_555 1_555
Mo3 O6 1_555 1_555
Mo3 O8 1_555 1_555
Mo4 O6 1_555 1_555
Mo4 O9 1_555 1_555
C2 N3 1_555 1_555
C3 N1 1_555 1_555
C8 N4 1_555 1_555
N1 N2 1_555 1_555
O6 Mo2F 1_555 1_555
Mo1F O5F 1_555 1_555
Mo1F O12F 1_555 1_555
Mo1F O14F 1_555 1_555
Mo2F O4F 1_555 1_555
Mo2F O6F 1_555 1_555
Mo3F O5F 1_555 1_555
Mo3F O6F 1_555 1_555
Mo4F O1F 1_555 1_555
Mo4F O6F 1_555 1_555
Mo4F O9F 1_555 1_555
C1D N3D 1_555 1_555
C2D N3D 1_555 1_555
C3D N1D 1_555 1_555
C8D N4D 1_555 1_555
N1D N2D 1_555 1_555

#END
