
#######################################################################
#
#                 Cambridge Crystallographic Data Centre
#                                CCDC 
#
#######################################################################
#
# If this CIF has been generated from an entry in the Cambridge 
# Structural Database, then it will include bibliographic, chemical, 
# crystal, experimental, refinement or atomic coordinate data resulting 
# from the CCDC's data processing and validation procedures.
#
#######################################################################

data_AGUMIZ
_symmetry_cell_setting           triclinic
_symmetry_space_group_name_H-M   'P -1'
_symmetry_Int_Tables_number      2
_space_group_name_Hall           '-P 1'
loop_
_symmetry_equiv_pos_site_id
_symmetry_equiv_pos_as_xyz
1 x,y,z
2 -x,-y,-z
_cell_length_a                   9.7380(9)
_cell_length_b                   10.415(1)
_cell_length_c                   10.660(1)
_cell_angle_alpha                107.409(1)
_cell_angle_beta                 90.801(1)
_cell_angle_gamma                115.658(1)
_cell_volume                     916.864
loop_
_atom_site_label
_atom_site_type_symbol
_atom_site_fract_x
_atom_site_fract_y
_atom_site_fract_z
Cu1 Cu -0.5000 0.0000 0.0000
Mo1 Mo -0.30051(7) 0.28436(7) 0.35763(6)
Mo2 Mo 0.08254(6) 0.37095(7) 0.46249(6)
Mo3 Mo -0.23292(7) 0.16603(7) 0.59007(6)
Mo4 Mo -0.01524(7) 0.51820(7) 0.77390(6)
C1 C -0.7348(12) 0.0588(11) -0.0980(10)
H1 H -0.7141 0.0307 -0.1842
C2 C -0.7318(10) 0.0997(10) 0.1173(9)
H2 H -0.7067 0.0994 0.2017
C3 C -0.8267(10) 0.1547(9) 0.0886(9)
H3 H -0.8759 0.2006 0.1462
C4 C -0.9018(16) 0.1658(16) -0.1439(14)
H4 H -0.9725 0.0763 -0.2166
H5 H -0.9595 0.2158 -0.0973
C5 C -0.7703(14) 0.2754(13) -0.1996(12)
C6 C -0.6793(11) 0.4243(10) -0.1252(10)
H6 H -0.7011 0.4644 -0.0421
C7 C -0.5559(12) 0.5161(12) -0.1712(12)
H7 H -0.4932 0.6175 -0.1218
C8 C -0.5314(11) 0.4487(13) -0.2943(11)
H8 H -0.4489 0.5010 -0.3321
C9 C -0.7393(16) 0.236(2) -0.3054(16)
H9 H -0.8056 0.1374 -0.3596
O1 O 0.1187(7) 0.6046(6) 0.9147(5)
O2 O -0.1758(6) 0.5276(6) 0.8250(5)
O3 O -0.0723(6) 0.3111(5) 0.7387(5)
O4 O -0.0555(5) 0.3127(5) 0.3004(5)
O5 O -0.1244(5) 0.4099(5) 0.5481(5)
O6 O -0.0129(6) 0.2037(6) 0.4984(5)
O7 O -0.3838(6) 0.1858(7) 0.6555(6)
O8 O -0.2510(7) -0.0016(6) 0.5970(6)
O9 O 0.2386(6) 0.3624(6) 0.4007(5)
O10 O 0.1763(5) 0.5071(5) 0.6442(5)
O11 O -0.4457(6) 0.3093(6) 0.4293(5)
O12 O -0.3012(6) 0.1238(6) 0.4056(5)
O13 O -0.3770(6) 0.1897(6) 0.1916(5)
N1 N -0.8333(9) 0.1244(9) -0.0556(11)
N2 N -0.6287(11) 0.3088(12) -0.3551(8)
H10 H -0.6172 0.2637 -0.4331
N3 N -0.6775(8) 0.0446(9) 0.0069(7)
O14 O -0.3910(8) 0.1693(8) -0.0868(7)
Cu1_2 Cu 0.5000 1.0000 1.0000
Mo1A Mo 0.30051(7) 0.71564(7) 0.64237(6)
Mo2A Mo -0.08254(6) 0.62905(7) 0.53751(6)
Mo3A Mo 0.23292(7) 0.83397(7) 0.40993(6)
Mo4A Mo 0.01524(7) 0.48180(7) 0.22610(6)
C1A C -0.2652(12) -0.0588(11) 0.0980(10)
H1A H -0.2859 -0.0307 0.1842
C2A C -0.2682(10) -0.0997(10) -0.1173(9)
H2A H -0.2933 -0.0994 -0.2017
C3A C -0.1733(10) -0.1547(9) -0.0886(9)
H3A H -0.1241 -0.2006 -0.1462
C4A C -0.0982(16) -0.1658(16) 0.1439(14)
H4A H -0.0275 -0.0763 0.2166
H5A H -0.0405 -0.2158 0.0973
C5A C -0.2297(14) -0.2754(13) 0.1996(12)
C6A C -0.3207(11) -0.4243(10) 0.1252(10)
H6A H -0.2989 -0.4644 0.0421
C7A C -0.4441(12) -0.5161(12) 0.1712(12)
H7A H -0.5068 -0.6175 0.1218
C8A C -0.4686(11) -0.4487(13) 0.2943(11)
H8A H -0.5511 -0.5010 0.3321
C9A C -0.2607(16) -0.236(2) 0.3054(16)
H9A H -0.1944 -0.1374 0.3596
O1A O -0.1187(7) 0.3954(6) 0.0853(5)
O2A O 0.1758(6) 0.4724(6) 0.1750(5)
O3A O 0.0723(6) 0.6889(5) 0.2613(5)
O4A O 0.0555(5) 0.6873(5) 0.6996(5)
O5A O 0.1244(5) 0.5901(5) 0.4519(5)
O6A O 0.0129(6) 0.7963(6) 0.5016(5)
O7A O 0.3838(6) 0.8142(7) 0.3445(6)
O8A O 0.2510(7) 1.0016(6) 0.4030(6)
O9A O -0.2386(6) 0.6376(6) 0.5993(5)
O10A O -0.1763(5) 0.4929(5) 0.3558(5)
O11A O 0.4457(6) 0.6907(6) 0.5707(5)
O12A O 0.3012(6) 0.8762(6) 0.5944(5)
O13A O -0.6230(6) -0.1897(6) -0.1916(5)
O13A_2 O 0.3770(6) 0.8103(6) 0.8084(5)
N1A N -0.1667(9) -0.1244(9) 0.0556(11)
N2A N -0.3713(11) -0.3088(12) 0.3551(8)
H10A H -0.3828 -0.2637 0.4331
N3A N -0.3225(8) -0.0446(9) -0.0069(7)
O14A O -0.6090(8) -0.1693(8) 0.0868(7)
loop_
_geom_bond_atom_site_label_1
_geom_bond_atom_site_label_2
_geom_bond_site_symmetry_1
_geom_bond_site_symmetry_2
Cu1 O13 1_555 1_555
Mo1 O4 1_555 1_555
Mo2 O4 1_555 1_555
Mo3 O3 1_555 1_555
Mo4 O1 1_555 1_555
C1 H1 1_555 1_555
C2 H2 1_555 1_555
C3 C2 1_555 1_555
H3 C3 1_555 1_555
C4 H4 1_555 1_555
H5 C4 1_555 1_555
C5 C4 1_555 1_555
C6 C5 1_555 1_555
H6 C6 1_555 1_555
C7 C6 1_555 1_555
H7 C7 1_555 1_555
C8 C7 1_555 1_555
H8 C8 1_555 1_555
C9 C5 1_555 1_555
H9 C9 1_555 1_555
O2 Mo4 1_555 1_555
O3 Mo4 1_555 1_555
O4 Mo4A 1_555 1_555
O5 Mo1 1_555 1_555
O6 Mo2 1_555 1_555
O7 Mo3 1_555 1_555
O8 Mo3 1_555 1_555
O9 Mo2 1_555 1_555
O10 Mo2 1_555 1_555
O11 Mo1 1_555 1_555
O12 Mo1 1_555 1_555
O13 Mo1 1_555 1_555
N1 C1 1_555 1_555
N2 C8 1_555 1_555
H10 N2 1_555 1_555
N3 Cu1 1_555 1_555
O14 Cu1 1_555 1_555
Cu1_2 O13A_2 1_555 1_555
Mo1A O10 1_555 1_555
Mo2A O5 1_555 1_555
Mo3A O3A 1_555 1_555
Mo4A O1A 1_555 1_555
C1A H1A 1_555 1_555
C2A H2A 1_555 1_555
C3A C2A 1_555 1_555
H3A C3A 1_555 1_555
C4A H4A 1_555 1_555
H5A C4A 1_555 1_555
C5A C4A 1_555 1_555
C6A C5A 1_555 1_555
H6A C6A 1_555 1_555
C7A C6A 1_555 1_555
H7A C7A 1_555 1_555
C8A C7A 1_555 1_555
H8A C8A 1_555 1_555
C9A C5A 1_555 1_555
H9A C9A 1_555 1_555
O2A Mo4A 1_555 1_555
O3A Mo4A 1_555 1_555
O4A Mo4 1_555 1_555
O5A Mo2 1_555 1_555
O6A Mo2A 1_555 1_555
O7A Mo3A 1_555 1_555
O8A Mo3A 1_555 1_555
O9A Mo2A 1_555 1_555
O10A Mo1 1_555 1_555
O11A Mo1A 1_555 1_555
O12A Mo1A 1_555 1_555
O13A Cu1 1_555 1_555
O13A_2 Mo1A 1_555 1_555
N1A C1A 1_555 1_555
N2A C8A 1_555 1_555
H10A N2A 1_555 1_555
N3A Cu1 1_555 1_555
O14A Cu1 1_555 1_555
Mo2 O5 1_555 1_555
Mo3 O5 1_555 1_555
Mo3 O6 1_555 1_555
Mo3 O12 1_555 1_555
Mo4 O5 1_555 1_555
Mo4 O10 1_555 1_555
C1 N3 1_555 1_555
C2 N3 1_555 1_555
C3 N1 1_555 1_555
C4 N1 1_555 1_555
C9 N2 1_555 1_555
Mo1A O4A 1_555 1_555
Mo1A O5A 1_555 1_555
Mo2A O4A 1_555 1_555
Mo2A O5A 1_555 1_555
Mo2A O10A 1_555 1_555
Mo3A O5A 1_555 1_555
Mo3A O6A 1_555 1_555
Mo3A O12A 1_555 1_555
Mo4A O5A 1_555 1_555
Mo4A O10A 1_555 1_555
C1A N3A 1_555 1_555
C2A N3A 1_555 1_555
C3A N1A 1_555 1_555
C4A N1A 1_555 1_555
C9A N2A 1_555 1_555

#END
