
#######################################################################
#
#                 Cambridge Crystallographic Data Centre
#                                CCDC 
#
#######################################################################
#
# If this CIF has been generated from an entry in the Cambridge 
# Structural Database, then it will include bibliographic, chemical, 
# crystal, experimental, refinement or atomic coordinate data resulting 
# from the CCDC's data processing and validation procedures.
#
#######################################################################

data_AGUPOI
_symmetry_cell_setting           monoclinic
_symmetry_space_group_name_H-M   'C 2/c'
_symmetry_Int_Tables_number      15
_space_group_name_Hall           '-C 2yn'
loop_
_symmetry_equiv_pos_site_id
_symmetry_equiv_pos_as_xyz
1 x,y,z
2 -x,y,1/2-z
3 1/2+x,1/2+y,z
4 1/2-x,1/2+y,1/2-z
5 -x,-y,-z
6 x,-y,1/2+z
7 1/2-x,1/2-y,-z
8 1/2+x,1/2-y,1/2+z
_cell_length_a                   27.178(12)
_cell_length_b                   11.287(5)
_cell_length_c                   14.980(6)
_cell_angle_alpha                90
_cell_angle_beta                 107.480(5)
_cell_angle_gamma                90
_cell_volume                     4383.04
loop_
_atom_site_label
_atom_site_type_symbol
_atom_site_fract_x
_atom_site_fract_y
_atom_site_fract_z
Cd1 Cd 0.236751(18) 1.25504(4) 1.11896(3)
N1 N 0.1639(2) 1.1387(5) 1.0600(4)
N2 N -0.0106(2) 0.9894(5) 0.8641(3)
N3 N -0.1873(2) 1.1312(5) 0.6752(4)
N4 N -0.0110(3) 0.3619(6) 0.8693(5)
O1 O 0.28034(17) 1.1492(4) 1.0244(3)
O2 O 0.3416(2) 1.0275(5) 1.0110(4)
O3 O 0.28451(19) 1.0783(4) 1.1908(3)
O4 O 0.2578(2) 0.7460(5) 1.2106(4)
O5 O 0.3093(2) 0.8716(5) 1.2999(4)
C1 C 0.1649(3) 1.0200(6) 1.0635(5)
H1 H 0.1952 0.9829 1.0981
C2 C 0.1234(2) 0.9507(6) 1.0187(5)
H2 H 0.1264 0.8687 1.0227
C3 C 0.0773(2) 1.0013(5) 0.9675(4)
C4 C 0.0754(3) 1.1239(6) 0.9674(5)
H3 H 0.0450 1.1633 0.9363
C5 C 0.1196(3) 1.1880(6) 1.0145(5)
H4 H 0.1175 1.2702 1.0136
C6 C 0.0313(2) 0.9299(6) 0.9160(4)
C7 C 0.0318(2) 0.8078(5) 0.9196(4)
H5 H 0.0609 0.7681 0.9560
C8 C -0.0109(2) 0.7449(6) 0.8695(4)
C9 C -0.0535(2) 0.8049(5) 0.8163(4)
H6 H -0.0826 0.7634 0.7817
C10 C -0.0531(2) 0.9270(5) 0.8146(4)
C11 C -0.1879(3) 1.0140(6) 0.6742(5)
H7 H -0.2186 0.9760 0.6427
C12 C -0.1458(3) 0.9455(6) 0.7168(5)
H8 H -0.1488 0.8634 0.7147
C13 C -0.0991(2) 0.9969(5) 0.7625(4)
C14 C -0.0976(3) 1.1198(6) 0.7617(6)
H9 H -0.0672 1.1603 0.7904
C15 C -0.1424(3) 1.1807(6) 0.7171(6)
H10 H -0.1406 1.2630 0.7167
C16 C 0.0311(3) 0.4243(7) 0.8734(6)
H11 H 0.0611 0.3829 0.8759
C17 C 0.0332(3) 0.5472(7) 0.8742(5)
H12 H 0.0638 0.5859 0.8770
C18 C -0.0111(2) 0.6122(6) 0.8707(4)
C19 C -0.0548(3) 0.5474(7) 0.8674(5)
H13 H -0.0855 0.5860 0.8642
C20 C -0.0527(4) 0.4245(7) 0.8688(6)
H14 H -0.0822 0.3832 0.8695
C21 C 0.3121(3) 1.0660(6) 1.0524(5)
C22 C 0.3145(3) 1.0103(6) 1.1465(5)
H15 H 0.3505 1.0138 1.1861
C23 C 0.2989(3) 0.8824(6) 1.1356(5)
H16 H 0.3261 0.8370 1.1219
H17 H 0.2681 0.8745 1.0825
C24 C 0.2883(3) 0.8299(6) 1.2220(6)
Cd1G Cd -0.263249(18) 1.24496(4) 0.61896(3)
Cd1F Cd 0.263249(18) 1.24496(4) 0.88104(3)
Cd1C Cd 0.263249(18) 0.75504(4) 1.38104(3)
N3G N 0.3127(2) 1.3688(5) 1.1752(4)
O1F O 0.21966(17) 1.3508(4) 0.9756(3)
O4C O 0.2422(2) 1.2460(5) 1.2894(4)
O5C O 0.1907(2) 1.3716(5) 1.2001(4)
O6 O 0.3349(3) 0.1655(8) 0.4005(7)
loop_
_geom_bond_atom_site_label_1
_geom_bond_atom_site_label_2
_geom_bond_site_symmetry_1
_geom_bond_site_symmetry_2
Cd1 N1 1_555 1_555
N1 C1 1_555 1_555
N2 C6 1_555 1_555
N3 C11 1_555 1_555
N4 C16 1_555 1_555
O1 Cd1 1_555 1_555
O2 C21 1_555 1_555
O3 Cd1 1_555 1_555
O4 C24 1_555 1_555
O5 C24 1_555 1_555
C1 H1 1_555 1_555
C2 C1 1_555 1_555
H2 C2 1_555 1_555
C3 C2 1_555 1_555
C4 C3 1_555 1_555
H3 C4 1_555 1_555
C5 N1 1_555 1_555
H4 C5 1_555 1_555
C6 C3 1_555 1_555
C7 C6 1_555 1_555
H5 C7 1_555 1_555
C8 C7 1_555 1_555
C9 C8 1_555 1_555
H6 C9 1_555 1_555
C10 N2 1_555 1_555
C11 H7 1_555 1_555
C12 C11 1_555 1_555
H8 C12 1_555 1_555
C13 C10 1_555 1_555
C14 C13 1_555 1_555
H9 C14 1_555 1_555
C15 N3 1_555 1_555
H10 C15 1_555 1_555
C16 H11 1_555 1_555
C17 C16 1_555 1_555
H12 C17 1_555 1_555
C18 C8 1_555 1_555
C19 C18 1_555 1_555
H13 C19 1_555 1_555
C20 N4 1_555 1_555
H14 C20 1_555 1_555
C21 O1 1_555 1_555
C22 O3 1_555 1_555
H15 C22 1_555 1_555
C23 C22 1_555 1_555
H16 C23 1_555 1_555
H17 C23 1_555 1_555
C24 C23 1_555 1_555
Cd1G N3 1_555 1_555
Cd1F O1 1_555 1_555
Cd1C O4 1_555 1_555
N3G Cd1 1_555 1_555
O1F Cd1 1_555 1_555
O4C Cd1 1_555 1_555
O5C Cd1 1_555 1_555
O5 Cd1C 1_555 1_555
C4 C5 1_555 1_555
C9 C10 1_555 1_555
C12 C13 1_555 1_555
C14 C15 1_555 1_555
C17 C18 1_555 1_555
C19 C20 1_555 1_555
C21 C22 1_555 1_555
Cd1F O1F 1_555 1_555

#END
