
#######################################################################
#
#                 Cambridge Crystallographic Data Centre
#                                CCDC 
#
#######################################################################
#
# If this CIF has been generated from an entry in the Cambridge 
# Structural Database, then it will include bibliographic, chemical, 
# crystal, experimental, refinement or atomic coordinate data resulting 
# from the CCDC's data processing and validation procedures.
#
#######################################################################

data_AGUQEZ
_symmetry_cell_setting           monoclinic
_symmetry_space_group_name_H-M   'P 21/c'
_symmetry_Int_Tables_number      14
_space_group_name_Hall           '-P 2ybc'
loop_
_symmetry_equiv_pos_site_id
_symmetry_equiv_pos_as_xyz
1 x,y,z
2 -x,1/2+y,1/2-z
3 -x,-y,-z
4 x,1/2-y,1/2+z
_cell_length_a                   10.666(2)
_cell_length_b                   16.748(3)
_cell_length_c                   14.201(3)
_cell_angle_alpha                90
_cell_angle_beta                 95.299(4)
_cell_angle_gamma                90
_cell_volume                     2525.94
loop_
_atom_site_label
_atom_site_type_symbol
_atom_site_fract_x
_atom_site_fract_y
_atom_site_fract_z
C1 C 0.9659(5) 0.2299(3) 0.6563(4)
C2 C 1.0779(5) 0.1896(3) 0.6796(4)
H1 H 1.0768 0.1343 0.6856
C3 C 1.1899(5) 0.2294(3) 0.6941(4)
C4 C 1.1921(5) 0.3103(3) 0.6881(4)
H2 H 1.2683 0.3373 0.6991
C5 C 1.0804(5) 0.3538(3) 0.6653(4)
C6 C 0.9683(5) 0.3126(3) 0.6492(4)
H3 H 0.8938 0.3404 0.6336
C7 C 0.8437(6) 0.1865(3) 0.6415(4)
C8 C 1.0830(6) 0.4433(3) 0.6655(4)
C9 C 1.0389(5) 0.1552(3) 0.8982(4)
H4 H 1.0792 0.1062 0.8943
C10 C 1.0062(5) 0.2830(3) 0.9208(4)
H5 H 1.0179 0.3369 0.9348
C11 C 0.8969(6) 0.2476(3) 0.8939(4)
H6 H 0.8191 0.2730 0.8857
C12 C 1.2850(5) 0.3087(3) 0.9277(4)
H7 H 1.2360 0.3515 0.9045
C13 C 1.2302(5) 0.2361(3) 0.9447(4)
C14 C 1.3035(5) 0.1720(3) 0.9806(4)
H8 H 1.2668 0.1228 0.9908
C15 C 1.4311(5) 0.1830(3) 1.0005(4)
C16 C 1.4881(5) 0.2537(3) 0.9822(4)
H9 H 1.5748 0.2596 0.9940
C17 C 1.4137(5) 0.3166(3) 0.9457(4)
C18 C 1.4621(5) 0.0600(3) 1.0961(4)
H10 H 1.3778 0.0532 1.1062
C19 C 1.6606(6) 0.0437(3) 1.1002(4)
H11 H 1.7410 0.0230 1.1145
C20 C 1.6324(5) 0.1085(3) 1.0456(4)
H12 H 1.6886 0.1398 1.0153
C21 C 1.5881(6) 0.4165(3) 0.9618(4)
H13 H 1.6394 0.3937 1.0111
C22 C 1.6111(6) 0.4829(3) 0.9141(4)
H14 H 1.6825 0.5146 0.9257
C23 C 1.4334(6) 0.4396(3) 0.8534(4)
H15 H 1.3580 0.4342 0.8154
C24 C 1.3112(6) 0.1868(4) 0.7188(4)
N1 N 0.9175(4) 0.1664(3) 0.8798(3)
N2 N 1.0986(4) 0.2254(3) 0.9240(3)
N3 N 1.5052(4) 0.1192(3) 1.0436(3)
N4 N 1.5525(4) 0.0132(3) 1.1311(3)
N5 N 1.4734(4) 0.3887(3) 0.9234(3)
N6 N 1.5146(4) 0.4980(3) 0.8456(3)
O1 O 0.8421(4) 0.1129(2) 0.6710(3)
O2 O 0.7507(4) 0.2202(3) 0.6028(4)
O3 O 1.3044(4) 0.1141(2) 0.7446(3)
O4 O 1.4116(5) 0.2219(3) 0.7146(4)
O5 O 0.9830(4) 0.4816(3) 0.6549(4)
O6 O 1.1924(4) 0.4760(2) 0.6779(3)
O7 O 0.6301(3) 0.1228(2) 0.8125(3)
Zn1 Zn 0.80264(6) 0.09110(4) 0.80290(5)
Zn2 Zn 1.52572(6) -0.06977(4) 1.23184(5)
N6C N 1.5146(4) 0.0020(3) 1.3456(3)
O3B O 1.6956(4) -0.1141(2) 1.2554(3)
O6A O 0.8076(4) -0.0240(2) 0.8221(3)
O7B O 1.3699(3) -0.1228(2) 1.1875(3)
Zn1A Zn 1.19736(6) 0.59110(4) 0.69710(5)
Zn2C Zn 1.52572(6) 0.56977(4) 0.73184(5)
Zn2B Zn 1.47428(6) 0.06977(4) 0.76816(5)
Zn2B_2 Zn 0.47428(6) 0.06977(4) 0.76816(5)
O8 O 0.3708(4) 0.8002(2) 0.7375(3)
H16 H 0.4150 0.7859 0.7876
H17 H 0.3772 0.7655 0.6946
O9 O 0.9013(4) 0.9769(2) 0.5658(3)
H18 H 0.9413 1.0089 0.6041
H19 H 0.8947 0.9971 0.5106
O10 O 0.1538(7) 0.9368(3) 0.6855(5)
H20 H 0.0944 0.9277 0.6427
H21 H 0.1335 0.9754 0.7197
loop_
_geom_bond_atom_site_label_1
_geom_bond_atom_site_label_2
_geom_bond_site_symmetry_1
_geom_bond_site_symmetry_2
C1 C2 1_555 1_555
C2 H1 1_555 1_555
C3 C2 1_555 1_555
C4 C3 1_555 1_555
H2 C4 1_555 1_555
C5 C4 1_555 1_555
C6 C1 1_555 1_555
H3 C6 1_555 1_555
C7 C1 1_555 1_555
C8 C5 1_555 1_555
C9 H4 1_555 1_555
C10 H5 1_555 1_555
C11 C10 1_555 1_555
H6 C11 1_555 1_555
C12 H7 1_555 1_555
C13 C12 1_555 1_555
C14 C13 1_555 1_555
H8 C14 1_555 1_555
C15 C14 1_555 1_555
C16 C15 1_555 1_555
H9 C16 1_555 1_555
C17 C12 1_555 1_555
C18 H10 1_555 1_555
C19 H11 1_555 1_555
C20 C19 1_555 1_555
H12 C20 1_555 1_555
C21 H13 1_555 1_555
C22 C21 1_555 1_555
H14 C22 1_555 1_555
C23 H15 1_555 1_555
C24 C3 1_555 1_555
N1 C9 1_555 1_555
N2 C9 1_555 1_555
N3 C15 1_555 1_555
N4 C18 1_555 1_555
N5 C17 1_555 1_555
N6 C22 1_555 1_555
O1 C7 1_555 1_555
O2 C7 1_555 1_555
O3 C24 1_555 1_555
O4 C24 1_555 1_555
O5 C8 1_555 1_555
O6 C8 1_555 1_555
O7 Zn1 1_555 1_555
O8 H16 1_555 1_555
H17 O8 1_555 1_555
O9 H18 1_555 1_555
H19 O9 1_555 1_555
O10 H20 1_555 1_555
H21 O10 1_555 1_555
Zn1 N1 1_555 1_555
Zn2 N4 1_555 1_555
N6C Zn2 1_555 1_555
O3B Zn2 1_555 1_555
O6A Zn1 1_555 1_555
O7B Zn2 1_555 1_555
Zn1A O6 1_555 1_555
Zn2C N6 1_555 1_555
Zn2B O3 1_555 1_555
Zn2B_2 O7 1_555 1_555
C5 C6 1_555 1_555
C10 N2 1_555 1_555
C11 N1 1_555 1_555
C13 N2 1_555 1_555
C16 C17 1_555 1_555
C18 N3 1_555 1_555
C19 N4 1_555 1_555
C20 N3 1_555 1_555
C21 N5 1_555 1_555
C23 N5 1_555 1_555
C23 N6 1_555 1_555
O1 Zn1 1_555 1_555

#END
