
#######################################################################
#
#                 Cambridge Crystallographic Data Centre
#                                CCDC 
#
#######################################################################
#
# If this CIF has been generated from an entry in the Cambridge 
# Structural Database, then it will include bibliographic, chemical, 
# crystal, experimental, refinement or atomic coordinate data resulting 
# from the CCDC's data processing and validation procedures.
#
#######################################################################

data_AGUTIG
_symmetry_cell_setting           monoclinic
_symmetry_space_group_name_H-M   'C 2/c'
_symmetry_Int_Tables_number      15
_space_group_name_Hall           '-C 2yn'
loop_
_symmetry_equiv_pos_site_id
_symmetry_equiv_pos_as_xyz
1 x,y,z
2 -x,y,1/2-z
3 1/2+x,1/2+y,z
4 1/2-x,1/2+y,1/2-z
5 -x,-y,-z
6 x,-y,1/2+z
7 1/2-x,1/2-y,-z
8 1/2+x,1/2-y,1/2+z
_cell_length_a                   13.5711(12)
_cell_length_b                   12.8518(10)
_cell_length_c                   12.1510(11)
_cell_angle_alpha                90
_cell_angle_beta                 91.032(10)
_cell_angle_gamma                90
_cell_volume                     2118.95
loop_
_atom_site_label
_atom_site_type_symbol
_atom_site_fract_x
_atom_site_fract_y
_atom_site_fract_z
Cu1 Cu 0.2500 0.2500 0.5000
O1 O 0.23708(12) 0.39525(12) 0.61035(14)
H1 H 0.2789 0.4050 0.6650
H2 H 0.2392 0.4480 0.5766
N1 N 0.33696(12) 0.17834(14) 0.61299(14)
N2 N 0.31007(14) 0.08516(15) 0.66178(17)
N3 N 0.45631(12) 0.12957(14) 0.71987(15)
N4 N 0.12961(12) 0.19180(14) 0.57697(14)
N5 N 0.06234(13) 0.12163(14) 0.52981(16)
N6 N 0.02474(13) 0.15191(14) 0.70080(15)
C1 C 0.42546(14) 0.20378(16) 0.64846(17)
H7 H 0.4612 0.2631 0.6279
C2 C 0.38312(16) 0.05778(19) 0.7267(2)
H8 H 0.3849 -0.0021 0.7711
C3 C 0.10589(15) 0.20948(17) 0.67855(18)
H9 H 0.1391 0.2543 0.7279
C4 C -0.00064(16) 0.09952(18) 0.60586(19)
H10 H -0.0550 0.0547 0.5972
Cu1A Cu 0.7500 0.2500 1.0000
Cu1A_2 Cu -0.2500 0.2500 1.0000
O1F O 0.26292(12) 0.10475(12) 0.38965(14)
H1F H 0.2211 0.0950 0.3350
H2F H 0.2608 0.0520 0.4234
N1A N 0.66304(12) 0.17834(14) 0.88701(14)
N1F N 0.16304(12) 0.32166(14) 0.38701(14)
N2A N 0.68993(14) 0.08516(15) 0.83822(17)
N3A N 0.54369(12) 0.12957(14) 0.78013(15)
N4A N -0.12961(12) 0.19180(14) 0.92303(14)
N4F N 0.37039(12) 0.30820(14) 0.42303(14)
N5A N -0.06234(13) 0.12163(14) 0.97019(16)
N6A N -0.02474(13) 0.15191(14) 0.79920(15)
C1A C 0.57454(14) 0.20378(16) 0.85154(17)
H7A H 0.5388 0.2631 0.8721
C2A C 0.61688(16) 0.05778(19) 0.7733(2)
H8A H 0.6151 -0.0021 0.7289
C3A C -0.10589(15) 0.20948(17) 0.82145(18)
H9A H -0.1391 0.2543 0.7721
C4A C 0.00064(16) 0.09952(18) 0.89414(19)
H10A H 0.0550 0.0547 0.9028
S1 S 0.30523(4) 0.19304(5) 0.98665(5)
O2 O 0.35982(15) 0.23255(19) 0.89323(18)
O3 O 0.2504(2) 0.0985(2) 0.9645(2)
O4 O 0.36233(15) 0.19038(19) 1.08906(17)
S1F S 0.19477(4) 0.30696(5) 1.01335(5)
O2F O 0.14018(15) 0.26745(19) 1.10677(18)
O3F O 0.2496(2) 0.4015(2) 1.0355(2)
O4F O 0.13767(15) 0.30962(19) 0.91094(17)
O5 O 0.35093(14) 0.43689(16) 0.79412(18)
H3 H 0.3016 0.4736 0.8123
H4 H 0.3469 0.3784 0.8276
O6 O 0.0219(2) 0.4346(3) 0.5847(3)
H5 H -0.0281 0.3934 0.5885
H6 H 0.0103 0.4767 0.5322
H11? H 0.0730 0.3996 0.5728
O7? O 0.3627(11) 0.2793(14) 0.9023(13)
O8? O 0.3661(13) 0.2498(16) 1.1013(15)
O9? O 0.2802(15) 0.399(2) 1.031(2)
S2? S 0.3151(3) 0.2943(4) 1.0069(4)
loop_
_geom_bond_atom_site_label_1
_geom_bond_atom_site_label_2
_geom_bond_site_symmetry_1
_geom_bond_site_symmetry_2
Cu1 O1 1_555 1_555
O1 H1 1_555 1_555
H2 O1 1_555 1_555
S1 O2 1_555 1_555
O3 S1 1_555 1_555
O4 S1 1_555 1_555
O5 H3 1_555 1_555
H4 O5 1_555 1_555
O6 H5 1_555 1_555
H6 O6 1_555 1_555
N1 Cu1 1_555 1_555
N2 N1 1_555 1_555
N3 C1 1_555 1_555
N4 Cu1 1_555 1_555
N5 N4 1_555 1_555
N6 C3 1_555 1_555
C1 N1 1_555 1_555
H7 C1 1_555 1_555
C2 N2 1_555 1_555
H8 C2 1_555 1_555
C3 N4 1_555 1_555
H9 C3 1_555 1_555
C4 N5 1_555 1_555
H10 C4 1_555 1_555
Cu1A N1A 1_555 1_555
Cu1A_2 N4A 1_555 1_555
O1F Cu1 1_555 1_555
H1F O1F 1_555 1_555
H2F O1F 1_555 1_555
S1F S1 1_555 1_555
O2F S1F 1_555 1_555
O3F S1F 1_555 1_555
O4F S1F 1_555 1_555
N1A N2A 1_555 1_555
N1F Cu1 1_555 1_555
N2A C2A 1_555 1_555
N3A N3 1_555 1_555
N4A N5A 1_555 1_555
N4F Cu1 1_555 1_555
N5A C4A 1_555 1_555
N6A N6 1_555 1_555
C1A N1A 1_555 1_555
H7A C1A 1_555 1_555
C2A N3A 1_555 1_555
H8A C2A 1_555 1_555
C3A N4A 1_555 1_555
H9A C3A 1_555 1_555
C4A N6A 1_555 1_555
H10A C4A 1_555 1_555
N3 C2 1_555 1_555
N6 C4 1_555 1_555
N3A C1A 1_555 1_555
N6A C3A 1_555 1_555

#END
