
#######################################################################
#
#                 Cambridge Crystallographic Data Centre
#                                CCDC 
#
#######################################################################
#
# If this CIF has been generated from an entry in the Cambridge 
# Structural Database, then it will include bibliographic, chemical, 
# crystal, experimental, refinement or atomic coordinate data resulting 
# from the CCDC's data processing and validation procedures.
#
#######################################################################

data_AHADUI
_symmetry_cell_setting           monoclinic
_symmetry_space_group_name_H-M   'C 2/m'
_symmetry_Int_Tables_number      12
_space_group_name_Hall           '-C 2y'
loop_
_symmetry_equiv_pos_site_id
_symmetry_equiv_pos_as_xyz
1 x,y,z
2 1/2+x,1/2+y,z
3 x,-y,z
4 1/2+x,1/2-y,z
5 -x,-y,-z
6 1/2-x,1/2-y,-z
7 -x,y,-z
8 1/2-x,1/2+y,-z
_cell_length_a                   10.9700(10)
_cell_length_b                   7.647(2)
_cell_length_c                   6.0070(10)
_cell_angle_alpha                90
_cell_angle_beta                 95.945(12)
_cell_angle_gamma                90
_cell_volume                     501.203
loop_
_atom_site_label
_atom_site_type_symbol
_atom_site_fract_x
_atom_site_fract_y
_atom_site_fract_z
Cd1 Cd 0.5000 0.5000 0.5000
Se1 Se 0.72269(4) 0.5000 0.77334(8)
C1 C 0.6570(5) 0.5000 1.0350(9)
N1 N 0.6164(4) 0.5000 1.2036(8)
N2 N 0.5000 0.1824(6) 0.5000
C2 C 0.4514(3) 0.0901(5) 0.3252(6)
H1 H 0.4163 0.1490 0.1990
C2B C 0.4514(3) -0.0901(5) 0.3252(6)
N2B N 0.5000 -0.1824(6) 0.5000
C2D C 0.5486(3) -0.0901(5) 0.6748(6)
C2F C 0.5486(3) 0.0901(5) 0.6748(6)
H1F H 0.5837 0.1490 0.8010
H1D H 0.5837 -0.1490 0.8010
H1B H 0.4163 -0.1490 0.1990
Se1D Se 0.27731(4) 0.5000 0.22666(8)
C1D C 0.3430(5) 0.5000 -0.0350(9)
N1D N 0.3836(4) 0.5000 -0.2036(8)
N1_2 N 0.6164(4) 0.5000 0.2036(8)
N1D_2 N 0.3836(4) 0.5000 0.7964(8)
N2B_2 N 0.5000 0.8176(6) 0.5000
Cd1_2 Cd 0.5000 0.5000 1.5000
Cd1_3 Cd 0.5000 -0.5000 0.5000
Cd1_4 Cd 0.5000 0.5000 -0.5000
loop_
_geom_bond_atom_site_label_1
_geom_bond_atom_site_label_2
_geom_bond_site_symmetry_1
_geom_bond_site_symmetry_2
Cd1 Se1 1_555 1_555
Se1 C1 1_555 1_555
C1 N1 1_555 1_555
N1 Cd1_2 1_555 1_555
N2 Cd1 1_555 1_555
C2 N2 1_555 1_555
H1 C2 1_555 1_555
C2B C2 1_555 1_555
N2B C2B 1_555 1_555
C2D N2B 1_555 1_555
C2F N2 1_555 1_555
H1F C2F 1_555 1_555
H1D C2D 1_555 1_555
H1B C2B 1_555 1_555
Se1D Cd1 1_555 1_555
C1D Se1D 1_555 1_555
N1D C1D 1_555 1_555
N1_2 Cd1 1_555 1_555
N1D_2 Cd1 1_555 1_555
N2B_2 Cd1 1_555 1_555
Cd1_3 N2B 1_555 1_555
Cd1_4 N1D 1_555 1_555
C2D C2F 1_555 1_555

#END
