
#######################################################################
#
#                 Cambridge Crystallographic Data Centre
#                                CCDC 
#
#######################################################################
#
# If this CIF has been generated from an entry in the Cambridge 
# Structural Database, then it will include bibliographic, chemical, 
# crystal, experimental, refinement or atomic coordinate data resulting 
# from the CCDC's data processing and validation procedures.
#
#######################################################################

data_AHAFAR
_symmetry_cell_setting           monoclinic
_symmetry_space_group_name_H-M   'P 21/c'
_symmetry_Int_Tables_number      14
_space_group_name_Hall           '-P 2ybc'
loop_
_symmetry_equiv_pos_site_id
_symmetry_equiv_pos_as_xyz
1 x,y,z
2 -x,1/2+y,1/2-z
3 -x,-y,-z
4 x,1/2-y,1/2+z
_cell_length_a                   11.770(2)
_cell_length_b                   13.743(3)
_cell_length_c                   12.618(2)
_cell_angle_alpha                90
_cell_angle_beta                 97.437(3)
_cell_angle_gamma                90
_cell_volume                     2023.86
loop_
_atom_site_label
_atom_site_type_symbol
_atom_site_fract_x
_atom_site_fract_y
_atom_site_fract_z
C1 C 0.8527(2) 0.9697(2) 0.5864(2)
H1 H 0.8445 0.9936 0.6540
C2 C 0.8837(2) 0.8670(2) 0.4502(3)
H2 H 0.8994 0.8114 0.4126
C3 C 0.8613(2) 0.9612(2) 0.4057(2)
H3 H 0.8597 0.9782 0.3342
C4 C 0.8113(3) 1.1289(2) 0.4726(3)
H4 H 0.8272 1.1484 0.4021
H5 H 0.8583 1.1684 0.5248
C5 C 0.6832(3) 1.1475(2) 0.4821(3)
C6 C 0.6113(3) 1.0799(2) 0.4284(2)
H6 H 0.6409 1.0324 0.3873
C7 C 0.4951(3) 1.0825(2) 0.4354(2)
H7 H 0.4466 1.0363 0.3997
C8 C 0.4511(3) 1.1539(2) 0.4957(3)
H8 H 0.3729 1.1558 0.5003
C9 C 0.5234(2) 1.2229(2) 0.5494(2)
C10 C 0.6389(3) 1.2203(2) 0.5419(2)
H9 H 0.6874 1.2670 0.5767
C11 C 0.4803(3) 1.2900(2) 0.6267(3)
H10 H 0.5449 1.3252 0.6639
H11 H 0.4302 1.3372 0.5872
C12 C 0.3063(3) 1.2793(2) 0.7166(2)
H12 H 0.2699 1.3311 0.6788
C13 C 0.3442(2) 1.1513(2) 0.8334(2)
H13 H 0.3365 1.1047 0.8855
C14 C 0.4415(3) 1.1640(3) 0.7783(2)
H14 H 0.5085 1.1273 0.7875
C15 C 0.9182(3) 0.6166(2) 0.5104(2)
C16 C 0.9778(2) 0.5358(2) 0.4585(2)
H15 H 0.9255 0.5047 0.4017
C17 C 1.0843(2) 0.5881(2) 0.4097(2)
H16 H 1.1244 0.6300 0.4640
H17 H 1.1376 0.5384 0.3930
C18 C 1.0503(3) 0.6447(2) 0.3156(2)
Co1 Co 0.88497(3) 0.76302(3) 0.65695(3)
N1 N 0.8781(2) 0.87225(18) 0.5614(2)
N2 N 0.8419(2) 1.02457(18) 0.49029(19)
N3 N 0.4173(2) 1.24301(18) 0.7068(2)
N4 N 0.2612(2) 1.22180(18) 0.79514(19)
O1 O 0.97305(17) 0.66786(15) 0.57885(17)
O2 O 0.8119(2) 0.62734(16) 0.49468(18)
O3 O 1.13079(17) 0.67267(16) 0.26654(17)
O4 O 0.95855(17) 0.68139(14) 0.28960(16)
C1B C 1.1473(2) 0.0303(2) 0.4136(2)
H1B H 1.1555 0.0064 0.3460
C2B C 1.1163(2) 0.1330(2) 0.5498(3)
H2B H 1.1006 0.1886 0.5874
C3B C 1.1387(2) 0.0388(2) 0.5943(2)
H3B H 1.1403 0.0218 0.6658
C4B C 1.1887(3) -0.1289(2) 0.5274(3)
H4B H 1.1728 -0.1484 0.5979
H5B H 1.1417 -0.1684 0.4752
C5B C 1.3168(3) -0.1475(2) 0.5179(3)
C6B C 1.3887(3) -0.0799(2) 0.5716(2)
H6B H 1.3591 -0.0324 0.6127
C7B C 1.5049(3) -0.0825(2) 0.5646(2)
H7B H 1.5534 -0.0363 0.6003
C8B C 1.5489(3) -0.1539(2) 0.5043(3)
H8B H 1.6271 -0.1558 0.4997
C9B C 1.4766(2) -0.2229(2) 0.4506(2)
C10B C 1.3611(3) -0.2203(2) 0.4581(2)
H9B H 1.3126 -0.2670 0.4233
C11B C 1.5197(3) -0.2900(2) 0.3733(3)
H10B H 1.4551 -0.3252 0.3361
H11B H 1.5698 -0.3372 0.4128
C12B C 1.6937(3) -0.2793(2) 0.2834(2)
H12B H 1.7301 -0.3311 0.3212
C13B C 1.6558(2) -0.1513(2) 0.1666(2)
H13B H 1.6635 -0.1047 0.1145
C14B C 1.5585(3) -0.1640(3) 0.2217(2)
H14B H 1.4915 -0.1273 0.2125
C15B C 1.0818(3) 0.3834(2) 0.4896(2)
C16B C 1.0222(2) 0.4642(2) 0.5415(2)
H15B H 1.0745 0.4953 0.5983
C17B C 0.9157(2) 0.4119(2) 0.5903(2)
H16B H 0.8756 0.3700 0.5360
H17B H 0.8624 0.4616 0.6070
C18B C 0.9497(3) 0.3553(2) 0.6844(2)
Co1B Co 1.11503(3) 0.23698(3) 0.34305(3)
Co1A Co 0.11503(3) 1.26302(3) 0.84305(3)
Co1A_2 Co 1.11503(3) 0.26302(3) 0.84305(3)
Co1C Co 0.88497(3) 0.73698(3) 0.15695(3)
Co1C_2 Co 1.88497(3) -0.26302(3) 0.15695(3)
N1B N 1.1219(2) 0.12775(18) 0.4386(2)
N2B N 1.1581(2) -0.02457(18) 0.50971(19)
N3B N 1.5827(2) -0.24301(18) 0.2932(2)
N4B N 1.7388(2) -0.22180(18) 0.20486(19)
N4A N 0.7388(2) 0.72180(18) 0.70486(19)
N4C N 1.2612(2) 0.27820(18) 0.29514(19)
O1B O 1.02695(17) 0.33214(15) 0.42115(17)
O2B O 1.1881(2) 0.37266(16) 0.50532(18)
O3B O 0.86921(17) 0.32733(16) 0.73346(17)
O4B O 1.04145(17) 0.31861(14) 0.71040(16)
O4A O 1.04145(17) 0.18139(14) 0.21040(16)
O4C O 0.95855(17) 0.81861(14) 0.78960(16)
O5 O 0.6681(3) 0.4875(3) 0.3619(3)
H18 H 0.7054 0.4740 0.3105
H19 H 0.6808 0.4443 0.4102
O6 O 0.1796(4) 0.6368(3) 0.7143(3)
H20 H 0.2316 0.6208 0.6767
H21 H 0.2090 0.6444 0.7789
loop_
_geom_bond_atom_site_label_1
_geom_bond_atom_site_label_2
_geom_bond_site_symmetry_1
_geom_bond_site_symmetry_2
C1 H1 1_555 1_555
C2 H2 1_555 1_555
C3 C2 1_555 1_555
H3 C3 1_555 1_555
C4 H4 1_555 1_555
H5 C4 1_555 1_555
C5 C4 1_555 1_555
C6 C5 1_555 1_555
H6 C6 1_555 1_555
C7 C6 1_555 1_555
H7 C7 1_555 1_555
C8 C7 1_555 1_555
H8 C8 1_555 1_555
C9 C8 1_555 1_555
C10 C5 1_555 1_555
H9 C10 1_555 1_555
C11 C9 1_555 1_555
H10 C11 1_555 1_555
H11 C11 1_555 1_555
C12 H12 1_555 1_555
C13 H13 1_555 1_555
C14 C13 1_555 1_555
H14 C14 1_555 1_555
C15 C16 1_555 1_555
C16 H15 1_555 1_555
C17 C16 1_555 1_555
H16 C17 1_555 1_555
H17 C17 1_555 1_555
C18 C17 1_555 1_555
Co1 N1 1_555 1_555
N1 C1 1_555 1_555
N2 C1 1_555 1_555
N3 C11 1_555 1_555
N4 C12 1_555 1_555
O1 C15 1_555 1_555
O2 C15 1_555 1_555
O3 C18 1_555 1_555
O4 C18 1_555 1_555
O5 H18 1_555 1_555
H19 O5 1_555 1_555
O6 H20 1_555 1_555
H21 O6 1_555 1_555
C1B H1B 1_555 1_555
C2B H2B 1_555 1_555
C3B C2B 1_555 1_555
H3B C3B 1_555 1_555
C4B H4B 1_555 1_555
H5B C4B 1_555 1_555
C5B C4B 1_555 1_555
C6B C5B 1_555 1_555
H6B C6B 1_555 1_555
C7B C6B 1_555 1_555
H7B C7B 1_555 1_555
C8B C7B 1_555 1_555
H8B C8B 1_555 1_555
C9B C8B 1_555 1_555
C10B C5B 1_555 1_555
H9B C10B 1_555 1_555
C11B C9B 1_555 1_555
H10B C11B 1_555 1_555
H11B C11B 1_555 1_555
C12B H12B 1_555 1_555
C13B H13B 1_555 1_555
C14B C13B 1_555 1_555
H14B C14B 1_555 1_555
C15B C16B 1_555 1_555
C16B C16 1_555 1_555
H15B C16B 1_555 1_555
C17B C16B 1_555 1_555
H16B C17B 1_555 1_555
H17B C17B 1_555 1_555
C18B C17B 1_555 1_555
Co1B N1B 1_555 1_555
Co1A N4 1_555 1_555
Co1A_2 O4B 1_555 1_555
Co1C O4 1_555 1_555
Co1C_2 N4B 1_555 1_555
N1B C1B 1_555 1_555
N2B C1B 1_555 1_555
N3B C11B 1_555 1_555
N4B C12B 1_555 1_555
N4A Co1 1_555 1_555
N4C Co1B 1_555 1_555
O1B C15B 1_555 1_555
O2B C15B 1_555 1_555
O3B C18B 1_555 1_555
O4B C18B 1_555 1_555
O4A Co1B 1_555 1_555
O4C Co1 1_555 1_555
C2 N1 1_555 1_555
C3 N2 1_555 1_555
C4 N2 1_555 1_555
C9 C10 1_555 1_555
C12 N3 1_555 1_555
C13 N4 1_555 1_555
C14 N3 1_555 1_555
Co1 O1 1_555 1_555
C2B N1B 1_555 1_555
C3B N2B 1_555 1_555
C4B N2B 1_555 1_555
C9B C10B 1_555 1_555
C12B N3B 1_555 1_555
C13B N4B 1_555 1_555
C14B N3B 1_555 1_555
Co1B O1B 1_555 1_555

#END
