
#######################################################################
#
#                 Cambridge Crystallographic Data Centre
#                                CCDC 
#
#######################################################################
#
# If this CIF has been generated from an entry in the Cambridge 
# Structural Database, then it will include bibliographic, chemical, 
# crystal, experimental, refinement or atomic coordinate data resulting 
# from the CCDC's data processing and validation procedures.
#
#######################################################################

data_AHAGUM
_symmetry_cell_setting           triclinic
_symmetry_space_group_name_H-M   'P -1'
_symmetry_Int_Tables_number      2
_space_group_name_Hall           '-P 1'
loop_
_symmetry_equiv_pos_site_id
_symmetry_equiv_pos_as_xyz
1 x,y,z
2 -x,-y,-z
_cell_length_a                   10.6019(9)
_cell_length_b                   12.0311(11)
_cell_length_c                   14.5296(12)
_cell_angle_alpha                87.735(2)
_cell_angle_beta                 77.347(2)
_cell_angle_gamma                75.328(2)
_cell_volume                     1749.06
loop_
_atom_site_label
_atom_site_type_symbol
_atom_site_fract_x
_atom_site_fract_y
_atom_site_fract_z
Cd1 Cd 0.19750(4) 0.90572(3) 0.34544(3)
S1 S 0.11828(15) 1.13636(12) 0.35137(11)
F1 F 0.3921(4) 0.2254(3) 0.2365(2)
F2 F 0.8302(5) 0.2109(4) 0.0856(4)
F3 F 0.8386(5) 0.7284(4) -0.0863(3)
F4 F 0.6764(6) 0.3981(4) -0.0499(3)
O1 O 0.4489(4) 0.4000(3) 0.4652(3)
H1 H 0.3862 0.4251 0.5095
O2 O 0.7354(4) 0.7786(3) 0.2113(2)
H2 H 0.7762 0.7190 0.2317
N1 N 0.2795(4) 0.7028(4) 0.3264(3)
N2 N 0.2888(4) 0.5203(3) 0.3429(3)
N3 N 0.3547(5) 0.5304(4) 0.2537(3)
N4 N 0.3592(4) 0.9212(4) 0.2061(3)
N5 N 0.4818(4) 0.8786(4) 0.0586(3)
N6 N 0.5548(4) 0.9083(4) 0.1150(3)
N7 N -0.0485(5) 1.1386(4) 0.5278(4)
C1 C 0.2446(5) 0.6230(5) 0.3843(4)
H3 H 0.1955 0.6372 0.4460
C2 C 0.3461(6) 0.6407(5) 0.2490(4)
H4 H 0.3843 0.6739 0.1946
C3 C 0.2756(5) 0.4084(4) 0.3798(4)
H5 H 0.2497 0.3674 0.3338
H6 H 0.2057 0.4192 0.4367
C4 C 0.4070(5) 0.3364(4) 0.4023(4)
C5 C 0.3659(5) 0.8890(5) 0.1161(4)
H7 H 0.2930 0.8753 0.0969
C6 C 0.4807(5) 0.9333(4) 0.2014(4)
H8 H 0.5103 0.9562 0.2515
C7 C 0.6981(5) 0.8950(5) 0.0830(4)
H9 H 0.7238 0.9561 0.1102
H10 H 0.7199 0.9012 0.0149
C8 C 0.7765(5) 0.7784(5) 0.1117(4)
C9 C 0.3772(5) 0.2267(4) 0.4519(4)
H11 H 0.3050 0.2481 0.5070
H12 H 0.3492 0.1825 0.4093
C10 C 0.5204(5) 0.3052(4) 0.3166(4)
C11 C 0.5088(6) 0.2504(5) 0.2389(4)
C12 C 0.6112(8) 0.2177(5) 0.1612(5)
H13 H 0.6001 0.1813 0.1093
C13 C 0.7495(8) 0.2924(7) 0.2381(8)
H14 H 0.8323 0.3054 0.2380
C14 C 0.6438(6) 0.3249(5) 0.3141(5)
H15 H 0.6561 0.3615 0.3655
C15 C 0.9280(5) 0.7660(6) 0.0824(4)
H16 H 0.9744 0.6865 0.0892
H17 H 0.9507 0.7853 0.0164
C16 C 0.7443(5) 0.6792(5) 0.0662(4)
C17 C 0.7796(7) 0.6551(6) -0.0290(5)
C18 C 0.7592(8) 0.5632(7) -0.0710(5)
H18 H 0.7860 0.5496 -0.1358
C19 C 0.6973(9) 0.4928(7) -0.0120(6)
C20 C 0.6543(7) 0.5119(6) 0.0825(5)
H19 H 0.6083 0.4641 0.1199
C21 C 0.6804(6) 0.6039(5) 0.1214(4)
H20 H 0.6547 0.6161 0.1863
C22 C 0.0180(5) 1.1382(4) 0.4549(4)
C23 C 0.7290(10) 0.2409(7) 0.1636(7)
N8 N 0.9731(4) 0.8387(5) 0.1381(4)
C24 C 1.0337(5) 0.8106(5) 0.2089(4)
H21 H 1.0565 0.7368 0.2321
N9 N 0.9538(5) 0.9518(5) 0.1231(4)
N10 N 0.4946(4) 0.1573(4) 0.4802(3)
N11 N 0.5861(5) 0.0748(4) 0.4228(3)
C25 C 0.5381(6) 0.1697(5) 0.5567(4)
H22 H 0.4921 0.2219 0.6055
N12 N 1.0575(4) 0.9016(4) 0.2421(3)
C26 C 1.0056(6) 0.9850(6) 0.1869(5)
H23 H 1.0067 1.0612 0.1938
N13 N 0.6555(5) 0.0980(4) 0.5542(3)
C27 C 0.6787(6) 0.0417(5) 0.4713(4)
H24 H 0.7553 -0.0167 0.4502
Cd1A Cd -0.19750(4) 1.09428(3) 0.65456(3)
Cd1_2 Cd 1.19750(4) 0.90572(3) 0.34544(3)
Cd1A_2 Cd 0.80250(4) 0.09428(3) 0.65456(3)
N7A N 0.0485(5) 0.8614(4) 0.4722(4)
N12_2 N 0.0575(4) 0.9016(4) 0.2421(3)
N13A N 0.3445(5) 0.9020(4) 0.4458(3)
Cl1 Cl 0.1050(2) 0.45686(19) 0.65643(14)
O3 O 0.0852(9) 0.5643(6) 0.6171(6)
O4 O 0.2449(5) 0.4124(6) 0.6434(4)
O5 O 0.0418(7) 0.4566(7) 0.7486(4)
O6 O 0.0575(8) 0.3857(9) 0.6031(6)
loop_
_geom_bond_atom_site_label_1
_geom_bond_atom_site_label_2
_geom_bond_site_symmetry_1
_geom_bond_site_symmetry_2
Cd1 S1 1_555 1_555
S1 C22 1_555 1_555
F1 C11 1_555 1_555
F2 C23 1_555 1_555
F3 C17 1_555 1_555
F4 C19 1_555 1_555
O1 H1 1_555 1_555
O2 H2 1_555 1_555
N1 Cd1 1_555 1_555
N2 N3 1_555 1_555
N3 C2 1_555 1_555
N4 Cd1 1_555 1_555
N5 N6 1_555 1_555
N6 C6 1_555 1_555
N7 C22 1_555 1_555
C1 N1 1_555 1_555
H3 C1 1_555 1_555
C2 N1 1_555 1_555
H4 C2 1_555 1_555
C3 N2 1_555 1_555
H5 C3 1_555 1_555
H6 C3 1_555 1_555
C4 O1 1_555 1_555
C5 N4 1_555 1_555
H7 C5 1_555 1_555
C6 N4 1_555 1_555
H8 C6 1_555 1_555
C7 N6 1_555 1_555
H9 C7 1_555 1_555
H10 C7 1_555 1_555
C8 O2 1_555 1_555
C9 C4 1_555 1_555
H11 C9 1_555 1_555
H12 C9 1_555 1_555
C10 C4 1_555 1_555
C11 C10 1_555 1_555
C12 C11 1_555 1_555
H13 C12 1_555 1_555
C13 H14 1_555 1_555
C14 C10 1_555 1_555
H15 C14 1_555 1_555
C15 C8 1_555 1_555
H16 C15 1_555 1_555
H17 C15 1_555 1_555
C16 C8 1_555 1_555
C17 C16 1_555 1_555
C18 C17 1_555 1_555
H18 C18 1_555 1_555
C19 C18 1_555 1_555
C20 C19 1_555 1_555
H19 C20 1_555 1_555
C21 C16 1_555 1_555
H20 C21 1_555 1_555
C23 C12 1_555 1_555
Cl1 O3 1_555 1_555
O4 Cl1 1_555 1_555
O5 Cl1 1_555 1_555
O6 Cl1 1_555 1_555
N8 C15 1_555 1_555
C24 N8 1_555 1_555
H21 C24 1_555 1_555
N9 N8 1_555 1_555
N10 C9 1_555 1_555
N11 N10 1_555 1_555
C25 N10 1_555 1_555
H22 C25 1_555 1_555
N12 C24 1_555 1_555
C26 N9 1_555 1_555
H23 C26 1_555 1_555
N13 C25 1_555 1_555
C27 N11 1_555 1_555
H24 C27 1_555 1_555
Cd1A N7 1_555 1_555
Cd1_2 N12 1_555 1_555
Cd1A_2 N13 1_555 1_555
N7A Cd1 1_555 1_555
N12_2 Cd1 1_555 1_555
N13A Cd1 1_555 1_555
N2 C1 1_555 1_555
N5 C5 1_555 1_555
C3 C4 1_555 1_555
C7 C8 1_555 1_555
C13 C14 1_555 1_555
C13 C23 1_555 1_555
C20 C21 1_555 1_555
N12 C26 1_555 1_555
N13 C27 1_555 1_555

#END
