
#######################################################################
#
#                 Cambridge Crystallographic Data Centre
#                                CCDC 
#
#######################################################################
#
# If this CIF has been generated from an entry in the Cambridge 
# Structural Database, then it will include bibliographic, chemical, 
# crystal, experimental, refinement or atomic coordinate data resulting 
# from the CCDC's data processing and validation procedures.
#
#######################################################################

data_AHAGIB
_symmetry_cell_setting           monoclinic
_symmetry_space_group_name_H-M   'C 2/c'
_symmetry_Int_Tables_number      15
_space_group_name_Hall           '-C 2yn'
loop_
_symmetry_equiv_pos_site_id
_symmetry_equiv_pos_as_xyz
1 x,y,z
2 -x,y,1/2-z
3 1/2+x,1/2+y,z
4 1/2-x,1/2+y,1/2-z
5 -x,-y,-z
6 x,-y,1/2+z
7 1/2-x,1/2-y,-z
8 1/2+x,1/2-y,1/2+z
_cell_length_a                   26.4924(4)
_cell_length_b                   7.91130(10)
_cell_length_c                   22.9666(3)
_cell_angle_alpha                90
_cell_angle_beta                 107.3980(10)
_cell_angle_gamma                90
_cell_volume                     4593.34
loop_
_atom_site_label
_atom_site_type_symbol
_atom_site_fract_x
_atom_site_fract_y
_atom_site_fract_z
Dy1 Dy 0.180494(6) 0.134582(16) 0.014775(6)
O1 O 0.26012(9) -0.0121(3) 0.04662(10)
O2 O 0.33393(9) 0.1230(3) 0.04562(10)
O3 O 0.33034(9) -0.4828(3) 0.39660(9)
O4 O 0.31620(9) -0.7607(3) 0.39148(9)
O5 O 0.23886(9) -0.6819(3) 0.07690(9)
O6 O 0.31442(9) -0.5544(3) 0.08216(9)
O7 O 0.16039(10) -0.1636(3) -0.00459(10)
H1 H 0.1774 -0.2012 -0.0280
H2 H 0.1273 -0.1758 -0.0218
N1 N 0.08296(11) 0.1221(3) -0.04759(12)
N2 N 0.11621(11) 0.3056(3) 0.05660(12)
C1 C 0.34039(13) -0.0867(4) 0.11979(13)
C2 C 0.39254(14) -0.0461(5) 0.14863(16)
H3 H 0.4081 0.0457 0.1353
C3 C 0.42164(16) -0.1423(5) 0.19738(18)
H4 H 0.4567 -0.1143 0.2172
C4 C 0.39878(14) -0.2801(5) 0.21676(16)
H5 H 0.4187 -0.3455 0.2491
C5 C 0.34622(13) -0.3212(4) 0.18812(13)
C6 C 0.31747(13) -0.2228(4) 0.14047(13)
H6 H 0.2820 -0.2477 0.1217
C7 C 0.32330(12) -0.4721(4) 0.21157(13)
C8 C 0.33112(12) -0.4821(4) 0.27406(13)
H7 H 0.3495 -0.3957 0.2989
C9 C 0.31253(12) -0.6161(4) 0.30078(13)
C10 C 0.28490(13) -0.7452(4) 0.26350(14)
H8 H 0.2736 -0.8388 0.2807
C11 C 0.27435(13) -0.7341(4) 0.20125(14)
H9 H 0.2544 -0.8183 0.1766
C12 C 0.29293(12) -0.5996(4) 0.17418(13)
C13 C 0.30887(13) 0.0168(4) 0.06649(14)
C14 C 0.32019(12) -0.6219(4) 0.36832(13)
C15 C 0.28110(13) -0.6097(4) 0.10589(13)
C16 C 0.06672(15) 0.0430(5) -0.10039(17)
H10 H 0.0920 -0.0023 -0.1166
C17 C 0.01353(17) 0.0242(6) -0.1330(2)
H11 H 0.0039 -0.0289 -0.1708
C18 C -0.02398(17) 0.0833(6) -0.1093(2)
H12 H -0.0596 0.0686 -0.1302
C19 C -0.00874(15) 0.1668(5) -0.05316(18)
C20 C 0.04577(13) 0.1880(4) -0.02451(16)
C21 C 0.06318(13) 0.2791(4) 0.03172(15)
C22 C 0.02581(16) 0.3387(4) 0.05934(18)
C23 C 0.04494(18) 0.4260(5) 0.11418(19)
H13 H 0.0215 0.4651 0.1343
C24 C 0.09737(18) 0.4541(5) 0.13834(18)
H14 H 0.1103 0.5140 0.1746
C25 C 0.13211(16) 0.3917(4) 0.10771(16)
H15 H 0.1681 0.4117 0.1245
C26 C -0.04549(16) 0.2292(6) -0.0243(2)
H16 H -0.0815 0.2145 -0.0433
C27 C -0.02942(16) 0.3099(5) 0.0293(2)
H17 H -0.0543 0.3465 0.0477
Dy1_2 Dy 0.180494(6) -0.865418(16) 0.014775(6)
Dy1C Dy 0.319506(6) -0.365418(16) 0.485225(6)
Dy1F Dy 0.319506(6) -0.634582(16) -0.014775(6)
Dy1F_2 Dy 0.319506(6) 0.365418(16) -0.014775(6)
O2F O 0.16607(9) 0.3770(3) -0.04562(10)
O3C O 0.16966(9) 0.0172(3) 0.10340(9)
O5_2 O 0.23886(9) 0.3181(3) 0.07690(9)
O6F O 0.18558(9) 0.0544(3) -0.08216(9)
loop_
_geom_bond_atom_site_label_1
_geom_bond_atom_site_label_2
_geom_bond_site_symmetry_1
_geom_bond_site_symmetry_2
Dy1 O1 1_555 1_555
O1 C13 1_555 1_555
O2 C13 1_555 1_555
O3 C14 1_555 1_555
O4 C14 1_555 1_555
O5 C15 1_555 1_555
O6 C15 1_555 1_555
O7 Dy1 1_555 1_555
H1 O7 1_555 1_555
H2 O7 1_555 1_555
N1 Dy1 1_555 1_555
N2 Dy1 1_555 1_555
C1 C2 1_555 1_555
C2 H3 1_555 1_555
C3 C2 1_555 1_555
H4 C3 1_555 1_555
C4 C3 1_555 1_555
H5 C4 1_555 1_555
C5 C4 1_555 1_555
C6 C1 1_555 1_555
H6 C6 1_555 1_555
C7 C5 1_555 1_555
C8 C7 1_555 1_555
H7 C8 1_555 1_555
C9 C8 1_555 1_555
C10 C9 1_555 1_555
H8 C10 1_555 1_555
C11 C10 1_555 1_555
H9 C11 1_555 1_555
C12 C7 1_555 1_555
C13 C1 1_555 1_555
C14 C9 1_555 1_555
C15 C12 1_555 1_555
C16 N1 1_555 1_555
H10 C16 1_555 1_555
C17 C16 1_555 1_555
H11 C17 1_555 1_555
C18 C17 1_555 1_555
H12 C18 1_555 1_555
C19 C18 1_555 1_555
C20 N1 1_555 1_555
C21 N2 1_555 1_555
C22 C21 1_555 1_555
C23 C22 1_555 1_555
H13 C23 1_555 1_555
C24 C23 1_555 1_555
H14 C24 1_555 1_555
C25 N2 1_555 1_555
H15 C25 1_555 1_555
C26 C19 1_555 1_555
H16 C26 1_555 1_555
C27 C22 1_555 1_555
H17 C27 1_555 1_555
Dy1_2 O5 1_555 1_555
Dy1C O3 1_555 1_555
Dy1F O6 1_555 1_555
Dy1F_2 O2 1_555 1_555
O2F Dy1 1_555 1_555
O3C Dy1 1_555 1_555
O5_2 Dy1 1_555 1_555
O6F Dy1 1_555 1_555
C5 C6 1_555 1_555
C11 C12 1_555 1_555
C19 C20 1_555 1_555
C20 C21 1_555 1_555
C24 C25 1_555 1_555
C26 C27 1_555 1_555

#END
