
#######################################################################
#
#                 Cambridge Crystallographic Data Centre
#                                CCDC 
#
#######################################################################
#
# If this CIF has been generated from an entry in the Cambridge 
# Structural Database, then it will include bibliographic, chemical, 
# crystal, experimental, refinement or atomic coordinate data resulting 
# from the CCDC's data processing and validation procedures.
#
#######################################################################

data_AHAGIA
_symmetry_cell_setting           triclinic
_symmetry_space_group_name_H-M   'P -1'
_symmetry_Int_Tables_number      2
_space_group_name_Hall           '-P 1'
loop_
_symmetry_equiv_pos_site_id
_symmetry_equiv_pos_as_xyz
1 x,y,z
2 -x,-y,-z
_cell_length_a                   8.0708(6)
_cell_length_b                   10.1838(7)
_cell_length_c                   11.5445(8)
_cell_angle_alpha                89.5510(10)
_cell_angle_beta                 86.1850(10)
_cell_angle_gamma                67.5610(10)
_cell_volume                     874.915
loop_
_atom_site_label
_atom_site_type_symbol
_atom_site_fract_x
_atom_site_fract_y
_atom_site_fract_z
Cd1 Cd 0.5000 0.0000 0.0000
F1 F -0.1592(3) 0.6918(2) 0.31254(19)
F2 F -0.2876(4) 1.0017(3) 0.6301(2)
O1 O 0.3941(3) 0.5809(2) 0.3558(2)
H1 H 0.4725 0.5126 0.3220
O2 O 0.2582(3) 0.1662(2) -0.0865(2)
H2 H 0.2484 0.2523 -0.0880
H3 H 0.1754 0.1488 -0.1168
N1 N 0.4541(3) 0.1566(2) 0.1571(2)
N2 N 0.4990(4) 0.2481(3) 0.3225(3)
N3 N 0.3303(3) 0.3219(2) 0.2895(2)
N4 N 0.2094(3) 0.7498(2) 0.1658(2)
N5 N 0.0617(3) 0.8724(2) 0.1643(2)
N6 N 0.3064(3) 0.9069(2) 0.0931(2)
C1 C 0.5666(5) 0.1513(4) 0.2400(3)
H4 H 0.6834 0.0839 0.2387
C2 C 0.3064(4) 0.2657(3) 0.1916(3)
H5 H 0.2011 0.2985 0.1530
C3 C 0.2043(4) 0.4426(3) 0.3584(3)
H6 H 0.2228 0.4234 0.4400
H7 H 0.0828 0.4517 0.3458
C4 C 0.2227(4) 0.5856(3) 0.3298(3)
C5 C 0.1981(4) 0.6153(3) 0.2001(3)
H8 H 0.2897 0.5388 0.1549
H9 H 0.0819 0.6162 0.1822
C6 C 0.1278(4) 0.9632(3) 0.1207(3)
H10 H 0.0573 1.0583 0.1097
C7 C 0.3513(4) 0.7722(3) 0.1234(3)
H11 H 0.4672 0.7033 0.1157
C8 C 0.0838(4) 0.6989(3) 0.4098(2)
C9 C -0.0971(5) 0.7474(3) 0.3980(3)
C10 C -0.2263(5) 0.8500(3) 0.4691(3)
H12 H -0.3479 0.8820 0.4566
C11 C -0.1646(6) 0.9014(4) 0.5583(3)
C12 C 0.0110(6) 0.8569(4) 0.5773(3)
H13 H 0.0476 0.8940 0.6396
C13 C 0.1379(5) 0.7550(4) 0.5030(3)
H14 H 0.2593 0.7244 0.5158
Cd1_2 Cd 0.5000 -1.0000 0.0000
Cd1_3 Cd 0.5000 1.0000 0.0000
F1A F 1.1592(3) -0.6918(2) -0.31254(19)
F2A F 1.2876(4) -1.0017(3) -0.6301(2)
O1A O 0.6059(3) -0.5809(2) -0.3558(2)
H1A H 0.5275 -0.5126 -0.3220
O2A O 0.7418(3) -0.1662(2) 0.0865(2)
H2A H 0.7516 -0.2523 0.0880
H3A H 0.8246 -0.1488 0.1168
N1A N 0.5459(3) -0.1566(2) -0.1571(2)
N2A N 0.5010(4) -0.2481(3) -0.3225(3)
N3A N 0.6697(3) -0.3219(2) -0.2895(2)
N4A N 0.7906(3) -0.7498(2) -0.1658(2)
N5A N 0.9383(3) -0.8724(2) -0.1643(2)
N6A N 0.6936(3) -0.9069(2) -0.0931(2)
N6_2 N 0.3064(3) -0.0931(2) 0.0931(2)
N6A_2 N 0.6936(3) 0.0931(2) -0.0931(2)
C1A C 0.4334(5) -0.1513(4) -0.2400(3)
H4A H 0.3166 -0.0839 -0.2387
C2A C 0.6936(4) -0.2657(3) -0.1916(3)
H5A H 0.7989 -0.2985 -0.1530
C3A C 0.7957(4) -0.4426(3) -0.3584(3)
H6A H 0.7772 -0.4234 -0.4400
H7A H 0.9172 -0.4517 -0.3458
C4A C 0.7773(4) -0.5856(3) -0.3298(3)
C5A C 0.8019(4) -0.6153(3) -0.2001(3)
H8A H 0.7103 -0.5388 -0.1549
H9A H 0.9181 -0.6162 -0.1822
C6A C 0.8722(4) -0.9632(3) -0.1207(3)
H10A H 0.9427 -1.0583 -0.1097
C7A C 0.6487(4) -0.7722(3) -0.1234(3)
H11A H 0.5328 -0.7033 -0.1157
C8A C 0.9162(4) -0.6989(3) -0.4098(2)
C9A C 1.0971(5) -0.7474(3) -0.3980(3)
C10A C 1.2263(5) -0.8500(3) -0.4691(3)
H12A H 1.3479 -0.8820 -0.4566
C11A C 1.1646(6) -0.9014(4) -0.5583(3)
C12A C 0.9890(6) -0.8569(4) -0.5773(3)
H13A H 0.9524 -0.8940 -0.6396
C13A C 0.8621(5) -0.7550(4) -0.5030(3)
H14A H 0.7407 -0.7244 -0.5158
Cl1 Cl 0.78566(10) 0.42232(8) 0.12554(7)
O3 O 0.9163(4) 0.3009(3) 0.0715(3)
O4 O 0.6163(4) 0.4211(4) 0.1112(4)
O5 O 0.8064(7) 0.4275(5) 0.2445(3)
O6 O 0.7934(5) 0.5446(3) 0.0705(3)
loop_
_geom_bond_atom_site_label_1
_geom_bond_atom_site_label_2
_geom_bond_site_symmetry_1
_geom_bond_site_symmetry_2
Cd1 O2 1_555 1_555
F1 C9 1_555 1_555
F2 C11 1_555 1_555
O1 H1 1_555 1_555
O2 H2 1_555 1_555
H3 O2 1_555 1_555
N1 Cd1 1_555 1_555
N2 N3 1_555 1_555
N3 C2 1_555 1_555
N4 N5 1_555 1_555
N5 C6 1_555 1_555
N6 C6 1_555 1_555
C1 N1 1_555 1_555
H4 C1 1_555 1_555
C2 N1 1_555 1_555
H5 C2 1_555 1_555
C3 N3 1_555 1_555
H6 C3 1_555 1_555
H7 C3 1_555 1_555
C4 O1 1_555 1_555
C5 N4 1_555 1_555
H8 C5 1_555 1_555
H9 C5 1_555 1_555
C6 H10 1_555 1_555
C7 N4 1_555 1_555
H11 C7 1_555 1_555
C8 C4 1_555 1_555
C9 C8 1_555 1_555
C10 C9 1_555 1_555
H12 C10 1_555 1_555
C11 C10 1_555 1_555
C12 C11 1_555 1_555
H13 C12 1_555 1_555
C13 C8 1_555 1_555
H14 C13 1_555 1_555
Cl1 O3 1_555 1_555
O4 Cl1 1_555 1_555
O5 Cl1 1_555 1_555
O6 Cl1 1_555 1_555
Cd1_2 N6A 1_555 1_555
Cd1_3 N6 1_555 1_555
F1A C9A 1_555 1_555
F2A C11A 1_555 1_555
O1A H1A 1_555 1_555
O2A Cd1 1_555 1_555
H2A O2A 1_555 1_555
H3A O2A 1_555 1_555
N1A Cd1 1_555 1_555
N2A N3A 1_555 1_555
N3A C2A 1_555 1_555
N4A N5A 1_555 1_555
N5A C6A 1_555 1_555
N6A C6A 1_555 1_555
N6_2 Cd1 1_555 1_555
N6A_2 Cd1 1_555 1_555
C1A N1A 1_555 1_555
H4A C1A 1_555 1_555
C2A N1A 1_555 1_555
H5A C2A 1_555 1_555
C3A N3A 1_555 1_555
H6A C3A 1_555 1_555
H7A C3A 1_555 1_555
C4A O1A 1_555 1_555
C5A N4A 1_555 1_555
H8A C5A 1_555 1_555
H9A C5A 1_555 1_555
C6A H10A 1_555 1_555
C7A N4A 1_555 1_555
H11A C7A 1_555 1_555
C8A C4A 1_555 1_555
C9A C8A 1_555 1_555
C10A C9A 1_555 1_555
H12A C10A 1_555 1_555
C11A C10A 1_555 1_555
C12A C11A 1_555 1_555
H13A C12A 1_555 1_555
C13A C8A 1_555 1_555
H14A C13A 1_555 1_555
N2 C1 1_555 1_555
N6 C7 1_555 1_555
C3 C4 1_555 1_555
C4 C5 1_555 1_555
C12 C13 1_555 1_555
N2A C1A 1_555 1_555
N6A C7A 1_555 1_555
C3A C4A 1_555 1_555
C4A C5A 1_555 1_555
C12A C13A 1_555 1_555

#END
