
#######################################################################
#
#                 Cambridge Crystallographic Data Centre
#                                CCDC 
#
#######################################################################
#
# If this CIF has been generated from an entry in the Cambridge 
# Structural Database, then it will include bibliographic, chemical, 
# crystal, experimental, refinement or atomic coordinate data resulting 
# from the CCDC's data processing and validation procedures.
#
#######################################################################

data_AHAHEY
_symmetry_cell_setting           monoclinic
_symmetry_space_group_name_H-M   'C 2/c'
_symmetry_Int_Tables_number      15
_space_group_name_Hall           '-C 2yn'
loop_
_symmetry_equiv_pos_site_id
_symmetry_equiv_pos_as_xyz
1 x,y,z
2 -x,y,1/2-z
3 1/2+x,1/2+y,z
4 1/2-x,1/2+y,1/2-z
5 -x,-y,-z
6 x,-y,1/2+z
7 1/2-x,1/2-y,-z
8 1/2+x,1/2-y,1/2+z
_cell_length_a                   26.5873(4)
_cell_length_b                   7.93790(10)
_cell_length_c                   23.1031(3)
_cell_angle_alpha                90
_cell_angle_beta                 107.3840(10)
_cell_angle_gamma                90
_cell_volume                     4653.14
loop_
_atom_site_label
_atom_site_type_symbol
_atom_site_fract_x
_atom_site_fract_y
_atom_site_fract_z
Sm1 Sm 0.181128(6) 0.132830(18) 0.014701(6)
O1 O 0.26209(9) -0.0160(3) 0.04744(10)
O2 O 0.33525(9) 0.1228(3) 0.04796(10)
O3 O 0.33005(9) -0.4860(3) 0.39550(8)
O4 O 0.31543(9) -0.7629(3) 0.38961(9)
O5 O 0.24078(9) -0.6781(3) 0.07639(9)
O6 O 0.31585(9) -0.5477(3) 0.08397(9)
O7 O 0.16101(9) -0.1712(3) -0.00415(9)
H1 H 0.1709 -0.2255 0.0283
H2 H 0.1730 -0.2020 -0.0235
N1 N 0.08156(11) 0.1203(3) -0.04757(12)
N2 N 0.11500(11) 0.3043(3) 0.05609(12)
C1 C 0.34184(12) -0.0872(4) 0.12188(13)
C2 C 0.39345(14) -0.0480(5) 0.15062(16)
H3 H 0.4092 0.0429 0.1375
C3 C 0.42196(15) -0.1439(5) 0.19909(18)
H4 H 0.4569 -0.1167 0.2190
C4 C 0.39868(14) -0.2802(5) 0.21799(15)
H5 H 0.4182 -0.3451 0.2504
C5 C 0.34696(12) -0.3212(4) 0.18942(12)
C6 C 0.31838(12) -0.2233(4) 0.14214(12)
H6 H 0.2830 -0.2477 0.1234
C7 C 0.32351(11) -0.4713(4) 0.21184(12)
C8 C 0.33101(12) -0.4823(4) 0.27406(12)
H7 H 0.3493 -0.3967 0.2991
C9 C 0.31210(12) -0.6166(3) 0.29998(12)
C10 C 0.28453(13) -0.7435(4) 0.26251(13)
H8 H 0.2729 -0.8368 0.2792
C11 C 0.27439(13) -0.7316(4) 0.20073(13)
H9 H 0.2543 -0.8145 0.1759
C12 C 0.29357(12) -0.5980(4) 0.17453(12)
C13 C 0.31043(13) 0.0152(4) 0.06852(13)
C14 C 0.31984(12) -0.6242(4) 0.36676(12)
C15 C 0.28238(12) -0.6057(4) 0.10661(12)
C16 C 0.06509(15) 0.0413(5) -0.09989(16)
H10 H 0.0902 -0.0039 -0.1162
C17 C 0.01232(17) 0.0220(6) -0.13198(19)
H11 H 0.0025 -0.0325 -0.1693
C18 C -0.02462(17) 0.0836(6) -0.1082(2)
H12 H -0.0602 0.0701 -0.1290
C19 C -0.00955(15) 0.1668(5) -0.05301(18)
C20 C 0.04469(13) 0.1875(4) -0.02441(15)
C21 C 0.06234(13) 0.2792(4) 0.03145(15)
C22 C 0.02486(15) 0.3392(4) 0.05844(18)
C23 C 0.04421(18) 0.4260(5) 0.11310(19)
H13 H 0.0209 0.4654 0.1331
C24 C 0.09656(18) 0.4534(5) 0.13739(18)
H14 H 0.1093 0.5130 0.1735
C25 C 0.13114(15) 0.3908(4) 0.10747(15)
H15 H 0.1670 0.4107 0.1243
C26 C -0.04606(15) 0.2301(5) -0.0238(2)
H16 H -0.0820 0.2144 -0.0422
C27 C -0.02998(16) 0.3111(5) 0.0291(2)
H17 H -0.0547 0.3498 0.0471
Sm1_2 Sm 0.181128(6) -0.867170(18) 0.014701(6)
Sm1C Sm 0.318872(6) -0.367170(18) 0.485299(6)
Sm1F Sm 0.318872(6) -0.632830(18) -0.014701(6)
Sm1F_2 Sm 0.318872(6) 0.367170(18) -0.014701(6)
O2F O 0.16475(9) 0.3772(3) -0.04796(10)
O3C O 0.16995(9) 0.0140(3) 0.10450(8)
O5_2 O 0.24078(9) 0.3219(3) 0.07639(9)
O6F O 0.18415(9) 0.0477(3) -0.08397(9)
loop_
_geom_bond_atom_site_label_1
_geom_bond_atom_site_label_2
_geom_bond_site_symmetry_1
_geom_bond_site_symmetry_2
Sm1 O1 1_555 1_555
O1 C13 1_555 1_555
O2 C13 1_555 1_555
O3 C14 1_555 1_555
O4 C14 1_555 1_555
O5 C15 1_555 1_555
O6 C15 1_555 1_555
O7 Sm1 1_555 1_555
H1 O7 1_555 1_555
H2 O7 1_555 1_555
N1 Sm1 1_555 1_555
N2 Sm1 1_555 1_555
C1 C2 1_555 1_555
C2 H3 1_555 1_555
C3 C2 1_555 1_555
H4 C3 1_555 1_555
C4 C3 1_555 1_555
H5 C4 1_555 1_555
C5 C4 1_555 1_555
C6 C1 1_555 1_555
H6 C6 1_555 1_555
C7 C5 1_555 1_555
C8 C7 1_555 1_555
H7 C8 1_555 1_555
C9 C8 1_555 1_555
C10 C9 1_555 1_555
H8 C10 1_555 1_555
C11 C10 1_555 1_555
H9 C11 1_555 1_555
C12 C7 1_555 1_555
C13 C1 1_555 1_555
C14 C9 1_555 1_555
C15 C12 1_555 1_555
C16 N1 1_555 1_555
H10 C16 1_555 1_555
C17 C16 1_555 1_555
H11 C17 1_555 1_555
C18 C17 1_555 1_555
H12 C18 1_555 1_555
C19 C18 1_555 1_555
C20 N1 1_555 1_555
C21 N2 1_555 1_555
C22 C21 1_555 1_555
C23 C22 1_555 1_555
H13 C23 1_555 1_555
C24 C23 1_555 1_555
H14 C24 1_555 1_555
C25 N2 1_555 1_555
H15 C25 1_555 1_555
C26 C19 1_555 1_555
H16 C26 1_555 1_555
C27 C22 1_555 1_555
H17 C27 1_555 1_555
Sm1_2 O5 1_555 1_555
Sm1C O3 1_555 1_555
Sm1F O6 1_555 1_555
Sm1F_2 O2 1_555 1_555
O2F Sm1 1_555 1_555
O3C Sm1 1_555 1_555
O5_2 Sm1 1_555 1_555
O6F Sm1 1_555 1_555
C5 C6 1_555 1_555
C11 C12 1_555 1_555
C19 C20 1_555 1_555
C20 C21 1_555 1_555
C24 C25 1_555 1_555
C26 C27 1_555 1_555

#END
