
#######################################################################
#
#                 Cambridge Crystallographic Data Centre
#                                CCDC 
#
#######################################################################
#
# If this CIF has been generated from an entry in the Cambridge 
# Structural Database, then it will include bibliographic, chemical, 
# crystal, experimental, refinement or atomic coordinate data resulting 
# from the CCDC's data processing and validation procedures.
#
#######################################################################

data_AHAKOK
_symmetry_cell_setting           monoclinic
_symmetry_space_group_name_H-M   'P 21/n'
_symmetry_Int_Tables_number      14
_space_group_name_Hall           '-P 2yn'
loop_
_symmetry_equiv_pos_site_id
_symmetry_equiv_pos_as_xyz
1 x,y,z
2 1/2-x,1/2+y,1/2-z
3 -x,-y,-z
4 1/2+x,1/2-y,1/2+z
_cell_length_a                   9.6466(19)
_cell_length_b                   13.475(3)
_cell_length_c                   22.138(4)
_cell_angle_alpha                90
_cell_angle_beta                 92.93(3)
_cell_angle_gamma                90
_cell_volume                     2873.91
loop_
_atom_site_label
_atom_site_type_symbol
_atom_site_fract_x
_atom_site_fract_y
_atom_site_fract_z
C1 C -0.3771(4) 0.3524(3) 0.02983(19)
O1 O 0.0416(3) 0.0270(2) 0.26128(13)
C2 C -0.0669(4) 0.0701(3) 0.2409(2)
O2 O 0.0538(3) 0.4339(2) 0.22203(14)
C3 C -0.0326(4) 0.3831(3) 0.19210(19)
O3 O -0.5452(3) 0.3229(2) 0.28957(13)
O4 O -0.3667(3) -0.1698(2) -0.04444(13)
H1 H -0.4366 -0.2023 -0.0386
C4 C -0.3509(4) -0.0983(3) -0.00166(19)
C5 C -0.2438(4) -0.0306(3) -0.00965(19)
H2 H -0.1846 -0.0383 -0.0412
C6 C -0.2273(4) 0.0474(3) 0.0298(2)
Sm1 Sm -0.73316(2) 0.438800(14) 0.277100(9)
Sm2 Sm -0.26614(2) 0.205200(14) 0.147710(9)
C7 C -0.1951(4) 0.1895(3) 0.38333(19)
O5 O -0.5947(3) 0.4788(2) 0.36963(13)
H3 H -0.5868 0.4367 0.3982
H4 H -0.5545 0.5348 0.3732
O6 O -0.1028(3) 0.1874(2) 0.06782(13)
O7 O -0.0389(3) 0.6292(2) 0.03211(15)
H5 H -0.0824 0.6453 0.0008
O8 O -0.4672(3) 0.0966(2) 0.16635(13)
O9 O -0.4337(3) 0.30065(19) 0.20427(13)
O10 O -0.8276(3) 0.2682(2) 0.28912(14)
H6 H -0.8285 0.2277 0.2597
H7 H -0.8589 0.2505 0.3227
O11 O -0.1112(3) 0.0732(2) 0.18627(13)
N1 N -0.3080(3) 0.0609(2) 0.07663(16)
N2 N -0.2566(3) 0.1764(2) 0.25984(16)
O12 O -0.1687(3) 0.1991(2) 0.44305(13)
H8 H -0.0978 0.1685 0.4531
O13 O -0.5969(3) -0.0402(2) 0.14757(13)
O14 O -0.0562(3) 0.1330(2) -0.02472(14)
C8 C -0.4989(4) 0.0174(3) 0.13725(19)
O15 O -0.0704(3) 0.2961(2) 0.20461(14)
C9 C -0.0951(4) 0.4289(3) 0.13505(19)
C10 C -0.4463(4) 0.2902(3) 0.26065(19)
C11 C -0.3092(4) 0.2409(3) 0.35698(18)
H9 H -0.3660 0.2792 0.3804
C12 C -0.4093(4) -0.0067(3) 0.08486(18)
O16 O -0.4115(3) 0.2765(2) 0.06017(13)
N3 N -0.2036(3) 0.3786(2) 0.10927(15)
C13 C -0.1506(4) 0.1258(3) 0.28579(19)
O17 O -0.7955(3) 0.6113(2) 0.27455(15)
H10 H -0.8791 0.6285 0.2790
H11 H -0.7340 0.6551 0.2692
C14 C -0.1168(4) 0.1295(3) 0.34699(19)
H12 H -0.0430 0.0925 0.3637
C15 C -0.1182(4) 0.1291(3) 0.02294(19)
C16 C -0.2582(4) 0.4136(3) 0.05682(19)
C17 C -0.2096(4) 0.4973(3) 0.02833(19)
H13 H -0.2515 0.5191 -0.0080
C18 C -0.4345(4) -0.0873(3) 0.04701(19)
H14 H -0.5049 -0.1324 0.0540
C19 C -0.0967(4) 0.5481(3) 0.0553(2)
C20 C -0.3347(4) 0.2332(3) 0.29552(19)
C21 C -0.0407(4) 0.5128(3) 0.1106(2)
H15 H 0.0328 0.5459 0.1306
O18 O -0.4331(3) 0.3779(2) -0.01995(14)
O19 O -0.6966(3) 0.3753(2) 0.17464(13)
H16 H -0.7203 0.3163 0.1653
H17 H -0.6605 0.4124 0.1487
O1A O -0.5416(3) 0.5270(2) 0.23872(13)
O2_2 O -0.9462(3) 0.4339(2) 0.22203(14)
Sm1A Sm 0.23316(2) -0.061200(14) 0.222900(9)
Sm1_2 Sm 0.26684(2) 0.438800(14) 0.277100(9)
Sm1A_2 Sm -0.76684(2) -0.061200(14) 0.222900(9)
O13A O -0.9031(3) 0.4598(2) 0.35243(13)
O20 O -0.7623(4) 0.6954(3) 0.10411(19)
H18 H -0.8234 0.7260 0.0826
H19 H -0.7040 0.6745 0.0791
O21 O -0.1425(3) 0.7081(2) 0.92767(15)
H20 H -0.1414 0.7677 0.9010
H21 H -0.2377 0.6917 0.9139
loop_
_geom_bond_atom_site_label_1
_geom_bond_atom_site_label_2
_geom_bond_site_symmetry_1
_geom_bond_site_symmetry_2
C1 O16 1_555 1_555
O1 C2 1_555 1_555
C2 O11 1_555 1_555
O2 C3 1_555 1_555
C3 O15 1_555 1_555
O3 Sm1 1_555 1_555
O4 H1 1_555 1_555
C4 O4 1_555 1_555
C5 C4 1_555 1_555
H2 C5 1_555 1_555
C6 C5 1_555 1_555
Sm1 O5 1_555 1_555
Sm2 O6 1_555 1_555
C7 O12 1_555 1_555
O5 H3 1_555 1_555
H4 O5 1_555 1_555
O6 C15 1_555 1_555
O7 H5 1_555 1_555
O8 Sm2 1_555 1_555
O9 Sm2 1_555 1_555
O10 Sm1 1_555 1_555
H6 O10 1_555 1_555
H7 O10 1_555 1_555
O11 Sm2 1_555 1_555
N1 C6 1_555 1_555
N2 Sm2 1_555 1_555
O12 H8 1_555 1_555
O13 C8 1_555 1_555
O14 C15 1_555 1_555
C8 O8 1_555 1_555
O15 Sm2 1_555 1_555
C9 C3 1_555 1_555
C10 O3 1_555 1_555
C11 C7 1_555 1_555
H9 C11 1_555 1_555
C12 N1 1_555 1_555
O16 Sm2 1_555 1_555
N3 Sm2 1_555 1_555
C13 C2 1_555 1_555
O17 Sm1 1_555 1_555
H10 O17 1_555 1_555
H11 O17 1_555 1_555
C14 C7 1_555 1_555
H12 C14 1_555 1_555
C15 C6 1_555 1_555
C16 C1 1_555 1_555
C17 C16 1_555 1_555
H13 C17 1_555 1_555
C18 C4 1_555 1_555
H14 C18 1_555 1_555
C19 O7 1_555 1_555
C20 N2 1_555 1_555
C21 C9 1_555 1_555
H15 C21 1_555 1_555
O18 C1 1_555 1_555
O19 Sm1 1_555 1_555
H16 O19 1_555 1_555
H17 O19 1_555 1_555
O20 H18 1_555 1_555
H19 O20 1_555 1_555
O21 H20 1_555 1_555
H21 O21 1_555 1_555
O1A Sm1 1_555 1_555
O2_2 Sm1 1_555 1_555
Sm1A O1 1_555 1_555
Sm1_2 O2 1_555 1_555
Sm1A_2 O13 1_555 1_555
O13A Sm1 1_555 1_555
Sm2 N1 1_555 1_555
O9 C10 1_555 1_555
N2 C13 1_555 1_555
C8 C12 1_555 1_555
C9 N3 1_555 1_555
C10 C20 1_555 1_555
C11 C20 1_555 1_555
C12 C18 1_555 1_555
N3 C16 1_555 1_555
C13 C14 1_555 1_555
C17 C19 1_555 1_555
C19 C21 1_555 1_555

#END
