
#######################################################################
#
#                 Cambridge Crystallographic Data Centre
#                                CCDC 
#
#######################################################################
#
# If this CIF has been generated from an entry in the Cambridge 
# Structural Database, then it will include bibliographic, chemical, 
# crystal, experimental, refinement or atomic coordinate data resulting 
# from the CCDC's data processing and validation procedures.
#
#######################################################################

data_AHALEB
_symmetry_cell_setting           monoclinic
_symmetry_space_group_name_H-M   'C 2/c'
_symmetry_Int_Tables_number      15
_space_group_name_Hall           '-C 2yn'
loop_
_symmetry_equiv_pos_site_id
_symmetry_equiv_pos_as_xyz
1 x,y,z
2 -x,y,1/2-z
3 1/2+x,1/2+y,z
4 1/2-x,1/2+y,1/2-z
5 -x,-y,-z
6 x,-y,1/2+z
7 1/2-x,1/2-y,-z
8 1/2+x,1/2-y,1/2+z
_cell_length_a                   15.450(3)
_cell_length_b                   7.0671(14)
_cell_length_c                   19.380(4)
_cell_angle_alpha                90
_cell_angle_beta                 108.68(3)
_cell_angle_gamma                90
_cell_volume                     2004.57
loop_
_atom_site_label
_atom_site_type_symbol
_atom_site_fract_x
_atom_site_fract_y
_atom_site_fract_z
La1 La 0.228135(16) 0.23319(4) 0.382848(12)
O1 O 0.2622(2) 0.4078(5) 0.28104(15)
O2 O 0.3545(2) 0.5736(4) 0.23546(16)
O3 O 0.6659(2) 0.4364(4) 0.42167(16)
O4 O 0.4911(2) 0.1262(5) 0.57513(15)
O5 O 0.3470(2) 0.2005(5) 0.51111(17)
O6 O 0.0783(2) 0.4187(5) 0.31871(15)
H1 H 0.0439 0.3844 0.2769
H2 H 0.0638 0.5135 0.3396
O7 O 0.2469(2) 0.5740(4) 0.42853(16)
H3 H 0.2033 0.6523 0.4124
H4 H 0.2966 0.6094 0.4599
O8 O 0.3227(2) -0.0523(5) 0.36374(16)
H5 H 0.3041 -0.1170 0.3248
H6 H 0.3724 -0.0813 0.3965
N1 N 0.3958(2) 0.3309(5) 0.40164(18)
C1 C 0.3396(3) 0.4710(6) 0.2836(2)
C2 C 0.4189(3) 0.4166(6) 0.3484(2)
C3 C 0.5082(3) 0.4545(6) 0.3528(2)
H7 H 0.5207 0.5169 0.3149
C4 C 0.5802(3) 0.3987(6) 0.4146(2)
C5 C 0.5548(3) 0.3052(6) 0.4695(2)
H8 H 0.5993 0.2623 0.5113
C6 C 0.4645(3) 0.2778(6) 0.4609(3)
C7 C 0.4332(3) 0.1926(6) 0.5204(2)
La1F La 0.271865(16) 0.26681(4) 0.617152(12)
La1C La 0.271865(16) 0.73319(4) 0.117152(12)
La1B La 0.728135(16) 0.73319(4) 0.382848(12)
O2C O 0.1455(2) 0.0736(4) 0.26454(16)
O3B O 0.1659(2) -0.0636(4) 0.42167(16)
O5F O 0.1530(2) 0.2995(5) 0.48889(17)
loop_
_geom_bond_atom_site_label_1
_geom_bond_atom_site_label_2
_geom_bond_site_symmetry_1
_geom_bond_site_symmetry_2
La1 O1 1_555 1_555
O1 C1 1_555 1_555
O2 C1 1_555 1_555
O3 C4 1_555 1_555
O4 C7 1_555 1_555
O5 La1 1_555 1_555
O6 La1 1_555 1_555
H1 O6 1_555 1_555
H2 O6 1_555 1_555
O7 La1 1_555 1_555
H3 O7 1_555 1_555
H4 O7 1_555 1_555
O8 La1 1_555 1_555
H5 O8 1_555 1_555
H6 O8 1_555 1_555
N1 La1 1_555 1_555
C1 C2 1_555 1_555
C2 N1 1_555 1_555
C3 C2 1_555 1_555
H7 C3 1_555 1_555
C4 C3 1_555 1_555
C5 C4 1_555 1_555
H8 C5 1_555 1_555
C6 N1 1_555 1_555
C7 O5 1_555 1_555
La1F O5 1_555 1_555
La1C O2 1_555 1_555
La1B O3 1_555 1_555
O2C La1 1_555 1_555
O3B La1 1_555 1_555
O5F La1 1_555 1_555
C5 C6 1_555 1_555
C6 C7 1_555 1_555
La1F O5F 1_555 1_555

#END
