
#######################################################################
#
#                 Cambridge Crystallographic Data Centre
#                                CCDC 
#
#######################################################################
#
# If this CIF has been generated from an entry in the Cambridge 
# Structural Database, then it will include bibliographic, chemical, 
# crystal, experimental, refinement or atomic coordinate data resulting 
# from the CCDC's data processing and validation procedures.
#
#######################################################################

data_AHAMON
_symmetry_cell_setting           cubic
_symmetry_space_group_name_H-M   'P a -3'
_symmetry_Int_Tables_number      205
_space_group_name_Hall           '-P 2ac 2ab 3'
loop_
_symmetry_equiv_pos_site_id
_symmetry_equiv_pos_as_xyz
1 x,y,z
2 1/2-x,-y,1/2+z
3 -x,1/2+y,1/2-z
4 1/2+x,1/2-y,-z
5 z,x,y
6 1/2+z,1/2-x,-y
7 1/2-z,-x,1/2+y
8 -z,1/2+x,1/2-y
9 y,z,x
10 -y,1/2+z,1/2-x
11 1/2+y,1/2-z,-x
12 1/2-y,-z,1/2+x
13 -x,-y,-z
14 1/2+x,y,1/2-z
15 x,1/2-y,1/2+z
16 1/2-x,1/2+y,z
17 -z,-x,-y
18 1/2-z,1/2+x,y
19 1/2+z,x,1/2-y
20 z,1/2-x,1/2+y
21 -y,-z,-x
22 y,1/2-z,1/2+x
23 1/2-y,1/2+z,x
24 1/2+y,z,1/2-x
_cell_length_a                   20.5415(7)
_cell_length_b                   20.5415(7)
_cell_length_c                   20.5415(7)
_cell_angle_alpha                90
_cell_angle_beta                 90
_cell_angle_gamma                90
_cell_volume                     8667.55
loop_
_atom_site_label
_atom_site_type_symbol
_atom_site_fract_x
_atom_site_fract_y
_atom_site_fract_z
Cd1 Cd 0.27612(2) 0.39816(2) 1.05954(2)
N1 N 0.27412(14) 0.43440(15) 0.95395(14)
N2 N 0.22462(14) 0.48662(14) 1.11173(15)
N3 N 0.16748(15) 0.54375(14) 1.18648(14)
N4 N 0.32221(15) 0.46490(15) 0.86038(14)
C1 C 0.18497(17) 0.48544(17) 1.16281(17)
H1 H 0.1703 0.4467 1.1810
C2 C 0.19898(18) 0.58638(17) 1.14628(18)
C3 C 0.23337(18) 0.55185(18) 1.10111(19)
N5 N 0.1925(2) 0.71091(17) 1.1533(2)
C4 C 0.32528(18) 0.42942(18) 0.91484(17)
H2 H 0.3608 0.4031 0.9246
C5 C 0.1949(2) 0.65552(18) 1.1513(2)
C6 C 0.26365(18) 0.49539(18) 0.86505(17)
C7 C 0.23406(19) 0.4759(2) 0.92185(19)
N6 N 0.2234(2) 0.5782(2) 0.7811(2)
C8 C 0.2410(2) 0.5412(2) 0.81804(19)
C9 C 0.1715(3) 0.4912(3) 0.9476(2)
C10 C 0.2716(2) 0.5784(2) 1.0497(2)
N7 N 0.3000(2) 0.6027(2) 1.0090(3)
N8 N 0.1223(3) 0.4998(4) 0.9697(3)
O1 O 0.29894(14) 0.35589(13) 1.16211(12)
H3 H 0.2785 0.3777 1.1911
H4 H 0.2870 0.3160 1.1639
O2 O 0.36654(13) 0.46755(14) 1.07482(14)
H5 H 0.3914 0.4660 1.0414
H6 H 0.3531 0.5066 1.0801
Na1 Na 0.0000 0.5000 1.0000
Cd1G Cd -0.05954(2) 0.77612(2) 1.10184(2)
N1G N 0.04605(14) 0.77412(14) 1.06560(15)
N2G N -0.11173(15) 0.72462(14) 1.01338(14)
N3G N -0.18648(14) 0.66748(15) 0.95625(14)
N4G N 0.13962(14) 0.82221(15) 1.03510(15)
C1G C -0.16281(17) 0.68497(17) 1.01456(17)
H1G H -0.1810 0.6703 1.0533
C2G C -0.14628(18) 0.69898(18) 0.91362(17)
C3G C -0.10111(19) 0.73337(18) 0.94815(18)
N5G N -0.1533(2) 0.6925(2) 0.78909(17)
C4G C 0.08516(17) 0.82528(18) 1.07058(18)
H2G H 0.0754 0.8608 1.0969
C5G C -0.1513(2) 0.6949(2) 0.84448(18)
C6G C 0.13495(17) 0.76365(18) 1.00461(18)
C7G C 0.07815(19) 0.73406(19) 1.0241(2)
N6G N 0.2189(2) 0.7234(2) 0.9218(2)
C8G C 0.18196(19) 0.7410(2) 0.9588(2)
C9G C 0.0524(2) 0.6715(3) 1.0088(3)
C10G C -0.0497(2) 0.7716(2) 0.9216(2)
N7G N -0.0090(3) 0.8000(2) 0.8973(2)
N8G N 0.0303(3) 0.6223(3) 1.0002(4)
O1G O -0.16211(12) 0.79894(14) 1.14411(13)
H3G H -0.1911 0.7785 1.1223
H4G H -0.1639 0.7870 1.1840
O2G O -0.07482(14) 0.86654(13) 1.03245(14)
H5G H -0.0414 0.8914 1.0340
H6G H -0.0801 0.8531 0.9934
Cd1J Cd -0.10184(2) 0.44046(2) 0.72388(2)
N1J N -0.06560(15) 0.54605(14) 0.72588(14)
N2J N -0.01338(14) 0.38827(15) 0.77538(14)
N3J N 0.04375(14) 0.31352(14) 0.83252(15)
N4J N -0.03510(15) 0.63962(14) 0.67779(15)
C1J C -0.01456(17) 0.33719(17) 0.81503(17)
H1J H -0.0533 0.3190 0.8297
C2J C 0.08638(17) 0.35372(18) 0.80102(18)
C3J C 0.05185(18) 0.39889(19) 0.76663(18)
N5J N 0.21091(17) 0.3467(2) 0.8075(2)
C4J C -0.07058(18) 0.58516(17) 0.67472(18)
H2J H -0.0969 0.5754 0.6392
C5J C 0.15552(18) 0.3487(2) 0.8051(2)
C6J C -0.00461(18) 0.63495(17) 0.73635(18)
C7J C -0.0241(2) 0.57815(19) 0.76594(19)
N6J N 0.0782(2) 0.7189(2) 0.7766(2)
C8J C 0.0412(2) 0.68196(19) 0.7590(2)
C9J C -0.0088(3) 0.5524(2) 0.8285(3)
C10J C 0.0784(2) 0.4503(2) 0.7284(2)
N7J N 0.1027(2) 0.4910(3) 0.7000(2)
N8J N -0.0002(4) 0.5303(3) 0.8777(3)
O1J O -0.14411(13) 0.33789(12) 0.70106(14)
H3J H -0.1223 0.3089 0.7215
H4J H -0.1840 0.3361 0.7130
O2J O -0.03245(14) 0.42518(14) 0.63346(13)
H5J H -0.0340 0.4586 0.6086
H6J H 0.0066 0.4199 0.6469
Cd1L Cd -0.27612(2) 0.60184(2) 0.94046(2)
N1L N -0.27412(14) 0.56560(15) 1.04605(14)
N2L N -0.22462(14) 0.51338(14) 0.88827(15)
N3L N -0.16748(15) 0.45625(14) 0.81352(14)
N4L N -0.32221(15) 0.53510(15) 1.13962(14)
C1L C -0.18497(17) 0.51456(17) 0.83719(17)
H1L H -0.1703 0.5533 0.8190
C2L C -0.19898(18) 0.41362(17) 0.85372(18)
C3L C -0.23337(18) 0.44815(18) 0.89889(19)
N5L N -0.1925(2) 0.28909(17) 0.8467(2)
C4L C -0.32528(18) 0.57058(18) 1.08516(17)
H2L H -0.3608 0.5969 1.0754
C5L C -0.1949(2) 0.34448(18) 0.8487(2)
C6L C -0.26365(18) 0.50461(18) 1.13495(17)
C7L C -0.23406(19) 0.5241(2) 1.07815(19)
N6L N -0.2234(2) 0.4218(2) 1.2189(2)
C8L C -0.2410(2) 0.4588(2) 1.18196(19)
C9L C -0.1715(3) 0.5088(3) 1.0524(2)
C10L C -0.2716(2) 0.4216(2) 0.9503(2)
N7L N -0.3000(2) 0.3973(2) 0.9910(3)
N8L N -0.1223(3) 0.5002(4) 1.0303(3)
O1L O -0.29894(14) 0.64411(13) 0.83789(12)
H3L H -0.2785 0.6223 0.8089
H4L H -0.2870 0.6840 0.8361
O2L O -0.36654(13) 0.53245(14) 0.92518(14)
H5L H -0.3914 0.5340 0.9586
H6L H -0.3531 0.4934 0.9199
Cd1S Cd 0.05954(2) 0.22388(2) 0.89816(2)
N1S N -0.04605(14) 0.22588(14) 0.93440(15)
N2S N 0.11173(15) 0.27538(14) 0.98662(14)
N3S N 0.18648(14) 0.33252(15) 1.04375(14)
N4S N -0.13962(14) 0.17779(15) 0.96490(15)
C1S C 0.16281(17) 0.31503(17) 0.98544(17)
H1S H 0.1810 0.3297 0.9467
C2S C 0.14628(18) 0.30102(18) 1.08638(17)
C3S C 0.10111(19) 0.26663(18) 1.05185(18)
N5S N 0.1533(2) 0.3075(2) 1.21091(17)
C4S C -0.08516(17) 0.17472(18) 0.92942(18)
H2S H -0.0754 0.1392 0.9031
C5S C 0.1513(2) 0.3051(2) 1.15552(18)
C6S C -0.13495(17) 0.23635(18) 0.99539(18)
C7S C -0.07815(19) 0.26594(19) 0.9759(2)
N6S N -0.2189(2) 0.2766(2) 1.0782(2)
C8S C -0.18196(19) 0.2590(2) 1.0412(2)
C9S C -0.0524(2) 0.3285(3) 0.9912(3)
C10S C 0.0497(2) 0.2284(2) 1.0784(2)
N7S N 0.0090(3) 0.2000(2) 1.1027(2)
N8S N -0.0303(3) 0.3777(3) 0.9998(4)
O1S O 0.16211(12) 0.20106(14) 0.85589(13)
H3S H 0.1911 0.2215 0.8777
H4S H 0.1639 0.2130 0.8160
O2S O 0.07482(14) 0.13346(13) 0.96755(14)
H5S H 0.0414 0.1086 0.9660
H6S H 0.0801 0.1469 1.0066
Cd1V Cd 0.10184(2) 0.55954(2) 1.27612(2)
N1V N 0.06560(15) 0.45395(14) 1.27412(14)
N2V N 0.01338(14) 0.61173(15) 1.22462(14)
N3V N -0.04375(14) 0.68648(14) 1.16748(15)
N4V N 0.03510(15) 0.36038(14) 1.32221(15)
C1V C 0.01456(17) 0.66281(17) 1.18497(17)
H1V H 0.0533 0.6810 1.1703
C2V C -0.08638(17) 0.64628(18) 1.19898(18)
C3V C -0.05185(18) 0.60111(19) 1.23337(18)
N5V N -0.21091(17) 0.6533(2) 1.1925(2)
C4V C 0.07058(18) 0.41484(17) 1.32528(18)
H2V H 0.0969 0.4246 1.3608
C5V C -0.15552(18) 0.6513(2) 1.1949(2)
C6V C 0.00461(18) 0.36505(17) 1.26365(18)
C7V C 0.0241(2) 0.42185(19) 1.23406(19)
N6V N -0.0782(2) 0.2811(2) 1.2234(2)
C8V C -0.0412(2) 0.31804(19) 1.2410(2)
C9V C 0.0088(3) 0.4476(2) 1.1715(3)
C10V C -0.0784(2) 0.5497(2) 1.2716(2)
N7V N -0.1027(2) 0.5090(3) 1.3000(2)
N8V N 0.0002(4) 0.4697(3) 1.1223(3)
O1V O 0.14411(13) 0.66211(12) 1.29894(14)
H3V H 0.1223 0.6911 1.2785
H4V H 0.1840 0.6639 1.2870
O2V O 0.03245(14) 0.57482(14) 1.36654(13)
H5V H 0.0340 0.5414 1.3914
H6V H -0.0066 0.5801 1.3531
Cd1C Cd -0.22388(2) 0.10184(2) 0.94046(2)
Cd1D Cd 0.05954(2) 0.27612(2) 1.39816(2)
Cd1I Cd -0.39816(2) 0.55954(2) 1.22388(2)
Cd1O Cd 0.22388(2) 0.89816(2) 1.05954(2)
Cd1P Cd -0.05954(2) 0.72388(2) 0.60184(2)
Cd1U Cd 0.39816(2) 0.44046(2) 0.77612(2)
N4A N 0.17779(15) 0.53510(15) 1.36038(14)
N4F N -0.36038(14) 0.67779(15) 0.96490(15)
N4K N 0.03510(15) 0.13962(14) 0.82221(15)
N4M N -0.17779(15) 0.46490(15) 0.63962(14)
N4R N 0.36038(14) 0.32221(15) 1.03510(15)
N4W N -0.03510(15) 0.86038(14) 1.17779(15)
Cl1 Cl 0.5000 0.5000 1.0000
loop_
_geom_bond_atom_site_label_1
_geom_bond_atom_site_label_2
_geom_bond_site_symmetry_1
_geom_bond_site_symmetry_2
Cd1 N1 1_555 1_555
N1 C4 1_555 1_555
N2 Cd1 1_555 1_555
N3 C1 1_555 1_555
N4 C4 1_555 1_555
C1 N2 1_555 1_555
H1 C1 1_555 1_555
C2 N3 1_555 1_555
C3 N2 1_555 1_555
N5 C5 1_555 1_555
C4 H2 1_555 1_555
C5 C2 1_555 1_555
C6 N4 1_555 1_555
C7 N1 1_555 1_555
N6 C8 1_555 1_555
C8 C6 1_555 1_555
C9 C7 1_555 1_555
C10 C3 1_555 1_555
N7 C10 1_555 1_555
N8 C9 1_555 1_555
O1 Cd1 1_555 1_555
H3 O1 1_555 1_555
H4 O1 1_555 1_555
O2 Cd1 1_555 1_555
H5 O2 1_555 1_555
H6 O2 1_555 1_555
Na1 N8 1_555 1_555
Cd1G N1G 1_555 1_555
N1G C4G 1_555 1_555
N2G Cd1G 1_555 1_555
N3G C1G 1_555 1_555
N4G C4G 1_555 1_555
C1G N2G 1_555 1_555
H1G C1G 1_555 1_555
C2G N3G 1_555 1_555
C3G N2G 1_555 1_555
N5G C5G 1_555 1_555
C4G H2G 1_555 1_555
C5G C2G 1_555 1_555
C6G N4G 1_555 1_555
C7G N1G 1_555 1_555
N6G C8G 1_555 1_555
C8G C6G 1_555 1_555
C9G C7G 1_555 1_555
C10G C3G 1_555 1_555
N7G C10G 1_555 1_555
N8G Na1 1_555 1_555
O1G Cd1G 1_555 1_555
H3G O1G 1_555 1_555
H4G O1G 1_555 1_555
O2G Cd1G 1_555 1_555
H5G O2G 1_555 1_555
H6G O2G 1_555 1_555
Cd1J N1J 1_555 1_555
N1J C4J 1_555 1_555
N2J Cd1J 1_555 1_555
N3J C1J 1_555 1_555
N4J C4J 1_555 1_555
C1J N2J 1_555 1_555
H1J C1J 1_555 1_555
C2J N3J 1_555 1_555
C3J N2J 1_555 1_555
N5J C5J 1_555 1_555
C4J H2J 1_555 1_555
C5J C2J 1_555 1_555
C6J N4J 1_555 1_555
C7J N1J 1_555 1_555
N6J C8J 1_555 1_555
C8J C6J 1_555 1_555
C9J C7J 1_555 1_555
C10J C3J 1_555 1_555
N7J C10J 1_555 1_555
N8J Na1 1_555 1_555
O1J Cd1J 1_555 1_555
H3J O1J 1_555 1_555
H4J O1J 1_555 1_555
O2J Cd1J 1_555 1_555
H5J O2J 1_555 1_555
H6J O2J 1_555 1_555
Cd1L N3G 1_555 1_555
N1L Cd1L 1_555 1_555
N2L Cd1L 1_555 1_555
N3L Cd1J 1_555 1_555
N4L C4L 1_555 1_555
C1L N2L 1_555 1_555
H1L C1L 1_555 1_555
C2L N3L 1_555 1_555
C3L N2L 1_555 1_555
N5L C5L 1_555 1_555
C4L N1L 1_555 1_555
H2L C4L 1_555 1_555
C5L C2L 1_555 1_555
C6L N4L 1_555 1_555
C7L N1L 1_555 1_555
N6L C8L 1_555 1_555
C8L C6L 1_555 1_555
C9L C7L 1_555 1_555
C10L C3L 1_555 1_555
N7L C10L 1_555 1_555
N8L Na1 1_555 1_555
O1L Cd1L 1_555 1_555
H3L O1L 1_555 1_555
H4L O1L 1_555 1_555
O2L Cd1L 1_555 1_555
H5L O2L 1_555 1_555
H6L O2L 1_555 1_555
Cd1S N3J 1_555 1_555
N1S Cd1S 1_555 1_555
N2S Cd1S 1_555 1_555
N3S Cd1 1_555 1_555
N4S C4S 1_555 1_555
C1S N2S 1_555 1_555
H1S C1S 1_555 1_555
C2S N3S 1_555 1_555
C3S N2S 1_555 1_555
N5S C5S 1_555 1_555
C4S N1S 1_555 1_555
H2S C4S 1_555 1_555
C5S C2S 1_555 1_555
C6S N4S 1_555 1_555
C7S N1S 1_555 1_555
N6S C8S 1_555 1_555
C8S C6S 1_555 1_555
C9S C7S 1_555 1_555
C10S C3S 1_555 1_555
N7S C10S 1_555 1_555
N8S Na1 1_555 1_555
O1S Cd1S 1_555 1_555
H3S O1S 1_555 1_555
H4S O1S 1_555 1_555
O2S Cd1S 1_555 1_555
H5S O2S 1_555 1_555
H6S O2S 1_555 1_555
Cd1V N3 1_555 1_555
N1V Cd1V 1_555 1_555
N2V Cd1V 1_555 1_555
N3V Cd1G 1_555 1_555
N4V C4V 1_555 1_555
C1V N2V 1_555 1_555
H1V C1V 1_555 1_555
C2V N3V 1_555 1_555
C3V N2V 1_555 1_555
N5V C5V 1_555 1_555
C4V N1V 1_555 1_555
H2V C4V 1_555 1_555
C5V C2V 1_555 1_555
C6V N4V 1_555 1_555
C7V N1V 1_555 1_555
N6V C8V 1_555 1_555
C8V C6V 1_555 1_555
C9V C7V 1_555 1_555
C10V C3V 1_555 1_555
N7V C10V 1_555 1_555
N8V Na1 1_555 1_555
O1V Cd1V 1_555 1_555
H3V O1V 1_555 1_555
H4V O1V 1_555 1_555
O2V Cd1V 1_555 1_555
H5V O2V 1_555 1_555
H6V O2V 1_555 1_555
Cd1C N4S 1_555 1_555
Cd1D N4V 1_555 1_555
Cd1I N4L 1_555 1_555
Cd1O N4G 1_555 1_555
Cd1P N4J 1_555 1_555
Cd1U N4 1_555 1_555
N4A Cd1V 1_555 1_555
N4F Cd1L 1_555 1_555
N4K Cd1S 1_555 1_555
N4M Cd1J 1_555 1_555
N4R Cd1 1_555 1_555
N4W Cd1G 1_555 1_555
C2 C3 1_555 1_555
C6 C7 1_555 1_555
C2G C3G 1_555 1_555
C6G C7G 1_555 1_555
C9G N8G 1_555 1_555
C2J C3J 1_555 1_555
C6J C7J 1_555 1_555
C9J N8J 1_555 1_555
N3L C1L 1_555 1_555
C2L C3L 1_555 1_555
C6L C7L 1_555 1_555
C9L N8L 1_555 1_555
N3S C1S 1_555 1_555
C2S C3S 1_555 1_555
C6S C7S 1_555 1_555
C9S N8S 1_555 1_555
N3V C1V 1_555 1_555
C2V C3V 1_555 1_555
C6V C7V 1_555 1_555
C9V N8V 1_555 1_555

#END
