
#######################################################################
#
#                 Cambridge Crystallographic Data Centre
#                                CCDC 
#
#######################################################################
#
# If this CIF has been generated from an entry in the Cambridge 
# Structural Database, then it will include bibliographic, chemical, 
# crystal, experimental, refinement or atomic coordinate data resulting 
# from the CCDC's data processing and validation procedures.
#
#######################################################################

data_AHAMEC
_symmetry_cell_setting           monoclinic
_symmetry_space_group_name_H-M   'P 21/n'
_symmetry_Int_Tables_number      14
_space_group_name_Hall           '-P 2yn'
loop_
_symmetry_equiv_pos_site_id
_symmetry_equiv_pos_as_xyz
1 x,y,z
2 1/2-x,1/2+y,1/2-z
3 -x,-y,-z
4 1/2+x,1/2-y,1/2+z
_cell_length_a                   8.4302(10)
_cell_length_b                   9.8132(11)
_cell_length_c                   10.8881(13)
_cell_angle_alpha                90
_cell_angle_beta                 106.2780(10)
_cell_angle_gamma                90
_cell_volume                     864.634
loop_
_atom_site_label
_atom_site_type_symbol
_atom_site_fract_x
_atom_site_fract_y
_atom_site_fract_z
Zn1 Zn 0.94555(4) 0.70250(3) 0.84077(3)
P1 P 1.07083(9) 0.38304(8) 0.87692(7)
O1 O 1.0780(2) 0.5282(2) 0.8290(2)
O2 O 1.1384(3) 0.2832(2) 0.7971(2)
O3 O 1.1522(2) 0.3676(2) 1.0198(2)
O4 O 0.7582(2) 0.3509(2) 0.72210(19)
H1 H 0.7522 0.4310 0.6999
O5 O 0.7403(3) 0.1166(2) 0.8214(2)
O6 O 0.8966(3) 0.1697(2) 1.0160(2)
O7 O 1.0484(3) 0.8091(2) 0.7146(2)
H2 H 1.0091 0.8894 0.7045
H3 H 1.1527 0.8130 0.7458
C1 C 0.8510(4) 0.3408(3) 0.8535(3)
H4 H 0.8051 0.4058 0.9027
C2 C 0.8292(4) 0.1984(3) 0.9003(3)
Zn1B Zn 1.05445(4) 0.29750(3) 1.15923(3)
Zn1A Zn 0.55445(4) 0.20250(3) 0.65923(3)
Zn1C Zn 1.44555(4) 0.79750(3) 1.34077(3)
P1B P 0.92917(9) 0.61696(8) 1.12308(7)
O1B O 0.9220(2) 0.4718(2) 1.1710(2)
O2B O 0.8616(3) 0.7168(2) 1.2029(2)
O3B O 0.8478(2) 0.6324(2) 0.9802(2)
O4B O 1.2418(2) 0.6491(2) 1.27790(19)
O4A O 0.7418(2) 0.8509(2) 0.77790(19)
O4C O 1.2582(2) 0.1491(2) 1.22210(19)
H1B H 1.2478 0.5690 1.3001
H1A H 0.7478 0.9310 0.8001
H1C H 1.2522 0.0690 1.1999
O5B O 1.2597(3) 0.8834(2) 1.1786(2)
O5A O 0.7597(3) 0.6166(2) 0.6786(2)
O5C O 1.2403(3) 0.3834(2) 1.3214(2)
O6B O 1.1034(3) 0.8303(2) 0.9840(2)
O7B O 0.9516(3) 0.1909(2) 1.2854(2)
H2B H 0.9909 0.1106 1.2955
H3B H 0.8473 0.1870 1.2542
C1B C 1.1490(4) 0.6592(3) 1.1465(3)
H4B H 1.1949 0.5942 1.0973
C2B C 1.1708(4) 0.8016(3) 1.0997(3)
O8 O 0.9819(3) 1.0672(3) 0.6289(3)
H5 H 0.9167 1.1273 0.6432
H6 H 1.0805 1.0969 0.6527
N1 N 0.7924(3) 0.4603(3) 0.3879(3)
H7 H 0.7316 0.3847 0.3755
H8 H 0.8153 0.4831 0.3156
H9 H 0.7365 0.5276 0.4116
C3 C 0.9488(4) 0.4361(3) 0.4898(3)
H10 H 1.0095 0.3621 0.4649
H11 H 0.9245 0.4106 0.5687
N1B N 1.2076(3) 0.5397(3) 0.6121(3)
H7B H 1.2684 0.6153 0.6245
H8B H 1.1847 0.5169 0.6844
H9B H 1.2635 0.4724 0.5884
C3B C 1.0512(4) 0.5639(3) 0.5102(3)
H10B H 0.9905 0.6379 0.5351
H11B H 1.0755 0.5894 0.4313
loop_
_geom_bond_atom_site_label_1
_geom_bond_atom_site_label_2
_geom_bond_site_symmetry_1
_geom_bond_site_symmetry_2
Zn1 O1 1_555 1_555
P1 O1 1_555 1_555
O2 P1 1_555 1_555
O3 P1 1_555 1_555
O4 H1 1_555 1_555
O5 C2 1_555 1_555
O6 C2 1_555 1_555
O7 Zn1 1_555 1_555
H2 O7 1_555 1_555
H3 O7 1_555 1_555
C1 P1 1_555 1_555
H4 C1 1_555 1_555
C2 C1 1_555 1_555
O8 H5 1_555 1_555
H6 O8 1_555 1_555
N1 H7 1_555 1_555
H8 N1 1_555 1_555
H9 N1 1_555 1_555
C3 N1 1_555 1_555
H10 C3 1_555 1_555
H11 C3 1_555 1_555
Zn1B O3 1_555 1_555
Zn1A O4 1_555 1_555
Zn1C O4B 1_555 1_555
P1B O1B 1_555 1_555
O1B Zn1B 1_555 1_555
O2B P1B 1_555 1_555
O3B Zn1 1_555 1_555
O4B H1B 1_555 1_555
O4A Zn1 1_555 1_555
O4C Zn1B 1_555 1_555
H1A O4A 1_555 1_555
H1C O4C 1_555 1_555
O5B Zn1C 1_555 1_555
O5A Zn1 1_555 1_555
O5C Zn1B 1_555 1_555
O6B Zn1 1_555 1_555
O7B Zn1B 1_555 1_555
H2B O7B 1_555 1_555
H3B O7B 1_555 1_555
C1B P1B 1_555 1_555
H4B C1B 1_555 1_555
C2B O5B 1_555 1_555
N1B H7B 1_555 1_555
H8B N1B 1_555 1_555
H9B N1B 1_555 1_555
C3B C3 1_555 1_555
H10B C3B 1_555 1_555
H11B C3B 1_555 1_555
O4 C1 1_555 1_555
O5 Zn1A 1_555 1_555
O6 Zn1B 1_555 1_555
P1B O3B 1_555 1_555
O4B C1B 1_555 1_555
O6B C2B 1_555 1_555
C1B C2B 1_555 1_555
N1B C3B 1_555 1_555

#END
