
#######################################################################
#
#                 Cambridge Crystallographic Data Centre
#                                CCDC 
#
#######################################################################
#
# If this CIF has been generated from an entry in the Cambridge 
# Structural Database, then it will include bibliographic, chemical, 
# crystal, experimental, refinement or atomic coordinate data resulting 
# from the CCDC's data processing and validation procedures.
#
#######################################################################

data_AHANEE
_symmetry_cell_setting           cubic
_symmetry_space_group_name_H-M   'P a -3'
_symmetry_Int_Tables_number      205
_space_group_name_Hall           '-P 2ac 2ab 3'
loop_
_symmetry_equiv_pos_site_id
_symmetry_equiv_pos_as_xyz
1 x,y,z
2 1/2-x,-y,1/2+z
3 -x,1/2+y,1/2-z
4 1/2+x,1/2-y,-z
5 z,x,y
6 1/2+z,1/2-x,-y
7 1/2-z,-x,1/2+y
8 -z,1/2+x,1/2-y
9 y,z,x
10 -y,1/2+z,1/2-x
11 1/2+y,1/2-z,-x
12 1/2-y,-z,1/2+x
13 -x,-y,-z
14 1/2+x,y,1/2-z
15 x,1/2-y,1/2+z
16 1/2-x,1/2+y,z
17 -z,-x,-y
18 1/2-z,1/2+x,y
19 1/2+z,x,1/2-y
20 z,1/2-x,1/2+y
21 -y,-z,-x
22 y,1/2-z,1/2+x
23 1/2-y,1/2+z,x
24 1/2+y,z,1/2-x
_cell_length_a                   20.6704(5)
_cell_length_b                   20.6704(5)
_cell_length_c                   20.6704(5)
_cell_angle_alpha                90
_cell_angle_beta                 90
_cell_angle_gamma                90
_cell_volume                     8831.75
loop_
_atom_site_label
_atom_site_type_symbol
_atom_site_fract_x
_atom_site_fract_y
_atom_site_fract_z
Cd1 Cd 0.90010(2) 0.06022(2) 0.22444(2)
Rb1 Rb 1.0000 0.0000 0.5000
O1 O 0.85671(14) 0.16254(13) 0.20274(15)
H1 H 0.8169 0.1657 0.2173
H2 H 0.8799 0.1927 0.2215
O2 O 0.96958(15) 0.07779(15) 0.13708(14)
H3 H 0.9616 0.0504 0.1067
H4 H 0.9641 0.1163 0.1223
N1 N 0.93576(15) -0.04597(15) 0.22283(15)
N2 N 0.96262(15) -0.14020(15) 0.17537(15)
N3 N 1.0773(2) -0.2194(2) 0.2710(2)
N4 N 1.0160(4) -0.0251(3) 0.3658(3)
N5 N 0.83553(15) 0.04418(14) 0.31378(15)
N6 N 0.77711(15) -0.01227(15) 0.38717(15)
N7 N 0.8086(2) 0.21054(18) 0.3467(2)
N8 N 0.7000(3) 0.1042(2) 0.4860(3)
C1 C 0.92828(19) -0.08528(18) 0.17285(19)
H5 H 0.9011 -0.0755 0.1384
C2 C 0.9788(2) -0.07761(19) 0.26113(19)
C3 C 1.0005(3) -0.0496(2) 0.3201(3)
C4 C 0.99543(18) -0.13479(18) 0.23232(19)
C5 C 1.0403(2) -0.1823(2) 0.2537(2)
C6 C 0.81799(19) -0.01348(18) 0.33719(18)
H6 H 0.8333 -0.0520 0.3198
C7 C 0.80340(19) 0.08673(17) 0.35255(19)
C8 C 0.8071(2) 0.1558(2) 0.3477(2)
C9 C 0.76794(19) 0.05234(19) 0.39729(19)
C10 C 0.7293(2) 0.0798(2) 0.4470(2)
Cd1F Cd 1.27556(2) 0.09990(2) 0.56022(2)
O1F O 1.29726(15) 0.14329(14) 0.66254(13)
H1F H 1.2827 0.1831 0.6657
H2F H 1.2785 0.1201 0.6927
O2F O 1.36292(14) 0.03042(15) 0.57779(15)
H3F H 1.3933 0.0384 0.5504
H4F H 1.3777 0.0359 0.6163
N1F N 1.27717(15) 0.06424(15) 0.45403(15)
N2F N 1.32463(15) 0.03738(15) 0.35980(15)
N3F N 1.2290(2) -0.0773(2) 0.2806(2)
N4F N 1.1342(3) -0.0160(4) 0.4749(3)
N5F N 1.18622(15) 0.16447(15) 0.54418(14)
N6F N 1.11283(15) 0.22289(15) 0.48773(15)
N7F N 1.1533(2) 0.1914(2) 0.71054(18)
N8F N 1.0140(3) 0.3000(3) 0.6042(2)
C1F C 1.32715(19) 0.07172(19) 0.41472(18)
H5F H 1.3616 0.0989 0.4245
C2F C 1.23887(19) 0.0212(2) 0.42239(19)
C3F C 1.1799(3) -0.0005(3) 0.4504(2)
C4F C 1.26768(19) 0.00457(18) 0.36521(18)
C5F C 1.2463(2) -0.0403(2) 0.3177(2)
C6F C 1.16281(18) 0.18201(19) 0.48652(18)
H6F H 1.1802 0.1667 0.4480
C7F C 1.14745(19) 0.19660(19) 0.58673(17)
C8F C 1.1523(2) 0.1929(2) 0.6558(2)
C9F C 1.10271(19) 0.23206(19) 0.55234(19)
C10F C 1.0530(2) 0.2707(2) 0.5798(2)
Cd1I Cd 0.93978(2) -0.27556(2) 0.59990(2)
O1I O 0.83746(13) -0.29726(15) 0.64329(14)
H1I H 0.8343 -0.2827 0.6831
H2I H 0.8073 -0.2785 0.6201
O2I O 0.92221(15) -0.36292(14) 0.53042(15)
H3I H 0.9496 -0.3933 0.5384
H4I H 0.8837 -0.3777 0.5359
N1I N 1.04597(15) -0.27717(15) 0.56424(15)
N2I N 1.14020(15) -0.32463(15) 0.53738(15)
N3I N 1.2194(2) -0.2290(2) 0.4227(2)
N4I N 1.0251(3) -0.1342(3) 0.4840(4)
N5I N 0.95582(14) -0.18622(15) 0.66447(15)
N6I N 1.01227(15) -0.11283(15) 0.72289(15)
N7I N 0.78946(18) -0.1533(2) 0.6914(2)
N8I N 0.8958(2) -0.0140(3) 0.8000(3)
C1I C 1.08528(18) -0.32715(19) 0.57172(19)
H5I H 1.0755 -0.3616 0.5989
C2I C 1.07761(19) -0.23887(19) 0.5212(2)
C3I C 1.0496(2) -0.1799(3) 0.4995(3)
C4I C 1.13479(18) -0.26768(19) 0.50457(18)
C5I C 1.1823(2) -0.2463(2) 0.4597(2)
C6I C 1.01348(18) -0.16281(18) 0.68201(19)
H6I H 1.0520 -0.1802 0.6667
C7I C 0.91327(17) -0.14745(19) 0.69660(19)
C8I C 0.8442(2) -0.1523(2) 0.6929(2)
C9I C 0.94766(19) -0.10271(19) 0.73206(19)
C10I C 0.9202(2) -0.0530(2) 0.7707(2)
Cd1L Cd 1.09990(2) -0.06022(2) 0.77556(2)
O1L O 1.14329(14) -0.16254(13) 0.79726(15)
H1L H 1.1831 -0.1657 0.7827
H2L H 1.1201 -0.1927 0.7785
O2L O 1.03042(15) -0.07779(15) 0.86292(14)
H3L H 1.0384 -0.0504 0.8933
H4L H 1.0359 -0.1163 0.8777
N1L N 1.06424(15) 0.04597(15) 0.77717(15)
N2L N 1.03738(15) 0.14020(15) 0.82463(15)
N3L N 0.9227(2) 0.2194(2) 0.7290(2)
N4L N 0.9840(4) 0.0251(3) 0.6342(3)
N5L N 1.16447(15) -0.04418(14) 0.68622(15)
N6L N 1.22289(15) 0.01227(15) 0.61283(15)
N7L N 1.1914(2) -0.21054(18) 0.6533(2)
N8L N 1.3000(3) -0.1042(2) 0.5140(3)
C1L C 1.07172(19) 0.08528(18) 0.82715(19)
H5L H 1.0989 0.0755 0.8616
C2L C 1.0212(2) 0.07761(19) 0.73887(19)
C3L C 0.9995(3) 0.0496(2) 0.6799(3)
C4L C 1.00457(18) 0.13479(18) 0.76768(19)
C5L C 0.9597(2) 0.1823(2) 0.7463(2)
C6L C 1.18201(19) 0.01348(18) 0.66281(18)
H6L H 1.1667 0.0520 0.6802
C7L C 1.19660(19) -0.08673(17) 0.64745(19)
C8L C 1.1929(2) -0.1558(2) 0.6523(2)
C9L C 1.23206(19) -0.05234(19) 0.60271(19)
C10L C 1.2707(2) -0.0798(2) 0.5530(2)
Cd1R Cd 0.72444(2) -0.09990(2) 0.43978(2)
O1R O 0.70274(15) -0.14329(14) 0.33746(13)
H1R H 0.7173 -0.1831 0.3343
H2R H 0.7215 -0.1201 0.3073
O2R O 0.63708(14) -0.03042(15) 0.42221(15)
H3R H 0.6067 -0.0384 0.4496
H4R H 0.6223 -0.0359 0.3837
N1R N 0.72283(15) -0.06424(15) 0.54597(15)
N2R N 0.67537(15) -0.03738(15) 0.64020(15)
N3R N 0.7710(2) 0.0773(2) 0.7194(2)
N4R N 0.8658(3) 0.0160(4) 0.5251(3)
N5R N 0.81378(15) -0.16447(15) 0.45582(14)
N6R N 0.88717(15) -0.22289(15) 0.51227(15)
N7R N 0.8467(2) -0.1914(2) 0.28946(18)
N8R N 0.9860(3) -0.3000(3) 0.3958(2)
C1R C 0.67285(19) -0.07172(19) 0.58528(18)
H5R H 0.6384 -0.0989 0.5755
C2R C 0.76113(19) -0.0212(2) 0.57761(19)
C3R C 0.8201(3) 0.0005(3) 0.5496(2)
C4R C 0.73232(19) -0.00457(18) 0.63479(18)
C5R C 0.7537(2) 0.0403(2) 0.6823(2)
C6R C 0.83719(18) -0.18201(19) 0.51348(18)
H6R H 0.8198 -0.1667 0.5520
C7R C 0.85255(19) -0.19660(19) 0.41327(17)
C8R C 0.8477(2) -0.1929(2) 0.3442(2)
C9R C 0.89729(19) -0.23206(19) 0.44766(19)
C10R C 0.9470(2) -0.2707(2) 0.4202(2)
Cd1U Cd 1.06022(2) 0.27556(2) 0.40010(2)
O1U O 1.16254(13) 0.29726(15) 0.35671(14)
H1U H 1.1657 0.2827 0.3169
H2U H 1.1927 0.2785 0.3799
O2U O 1.07779(15) 0.36292(14) 0.46958(15)
H3U H 1.0504 0.3933 0.4616
H4U H 1.1163 0.3777 0.4641
N1U N 0.95403(15) 0.27717(15) 0.43576(15)
N2U N 0.85980(15) 0.32463(15) 0.46262(15)
N3U N 0.7806(2) 0.2290(2) 0.5773(2)
N4U N 0.9749(3) 0.1342(3) 0.5160(4)
N5U N 1.04418(14) 0.18622(15) 0.33553(15)
N6U N 0.98773(15) 0.11283(15) 0.27711(15)
N7U N 1.21054(18) 0.1533(2) 0.3086(2)
N8U N 1.1042(2) 0.0140(3) 0.2000(3)
C1U C 0.91472(18) 0.32715(19) 0.42828(19)
H5U H 0.9245 0.3616 0.4011
C2U C 0.92239(19) 0.23887(19) 0.4788(2)
C3U C 0.9504(2) 0.1799(3) 0.5005(3)
C4U C 0.86521(18) 0.26768(19) 0.49543(18)
C5U C 0.8177(2) 0.2463(2) 0.5403(2)
C6U C 0.98652(18) 0.16281(18) 0.31799(19)
H6U H 0.9480 0.1802 0.3333
C7U C 1.08673(17) 0.14745(19) 0.30340(19)
C8U C 1.1558(2) 0.1523(2) 0.3071(2)
C9U C 1.05234(19) 0.10271(19) 0.26794(19)
C10U C 1.0798(2) 0.0530(2) 0.2293(2)
Cd1A Cd 0.59990(2) -0.06022(2) 0.72444(2)
Cd1G Cd 0.77556(2) 0.40010(2) 0.43978(2)
Cd1H Cd 1.06022(2) 0.22444(2) 0.90010(2)
Cd1M Cd 1.40010(2) 0.06022(2) 0.27556(2)
Cd1S Cd 1.22444(2) -0.40010(2) 0.56022(2)
Cd1T Cd 0.93978(2) -0.22444(2) 0.09990(2)
N2B N 1.03738(15) 0.35980(15) 0.32463(15)
N2D N 1.17537(15) -0.03738(15) 0.85980(15)
N2K N 0.64020(15) -0.17537(15) 0.46262(15)
N2N N 0.96262(15) -0.35980(15) 0.67537(15)
N2P N 0.82463(15) 0.03738(15) 0.14020(15)
N2W N 1.35980(15) 0.17537(15) 0.53738(15)
Br1 Br 1.0000 0.0000 0.0000
loop_
_geom_bond_atom_site_label_1
_geom_bond_atom_site_label_2
_geom_bond_site_symmetry_1
_geom_bond_site_symmetry_2
Cd1 O1 1_555 1_555
Rb1 N4 1_555 1_555
O1 H1 1_555 1_555
H2 O1 1_555 1_555
O2 Cd1 1_555 1_555
H3 O2 1_555 1_555
H4 O2 1_555 1_555
N1 Cd1 1_555 1_555
N2 C1 1_555 1_555
N3 C5 1_555 1_555
N4 C3 1_555 1_555
N5 Cd1 1_555 1_555
N6 C6 1_555 1_555
N7 C8 1_555 1_555
N8 C10 1_555 1_555
C1 N1 1_555 1_555
H5 C1 1_555 1_555
C2 N1 1_555 1_555
C3 C2 1_555 1_555
C4 N2 1_555 1_555
C5 C4 1_555 1_555
C6 N5 1_555 1_555
H6 C6 1_555 1_555
C7 N5 1_555 1_555
C8 C7 1_555 1_555
C9 N6 1_555 1_555
C10 C9 1_555 1_555
Cd1F O1F 1_555 1_555
O1F H1F 1_555 1_555
H2F O1F 1_555 1_555
O2F Cd1F 1_555 1_555
H3F O2F 1_555 1_555
H4F O2F 1_555 1_555
N1F Cd1F 1_555 1_555
N2F C1F 1_555 1_555
N3F C5F 1_555 1_555
N4F Rb1 1_555 1_555
N5F Cd1F 1_555 1_555
N6F C6F 1_555 1_555
N7F C8F 1_555 1_555
N8F C10F 1_555 1_555
C1F N1F 1_555 1_555
H5F C1F 1_555 1_555
C2F N1F 1_555 1_555
C3F N4F 1_555 1_555
C4F N2F 1_555 1_555
C5F C4F 1_555 1_555
C6F N5F 1_555 1_555
H6F C6F 1_555 1_555
C7F N5F 1_555 1_555
C8F C7F 1_555 1_555
C9F N6F 1_555 1_555
C10F C9F 1_555 1_555
Cd1I O1I 1_555 1_555
O1I H1I 1_555 1_555
H2I O1I 1_555 1_555
O2I Cd1I 1_555 1_555
H3I O2I 1_555 1_555
H4I O2I 1_555 1_555
N1I Cd1I 1_555 1_555
N2I C1I 1_555 1_555
N3I C5I 1_555 1_555
N4I Rb1 1_555 1_555
N5I Cd1I 1_555 1_555
N6I C6I 1_555 1_555
N7I C8I 1_555 1_555
N8I C10I 1_555 1_555
C1I N1I 1_555 1_555
H5I C1I 1_555 1_555
C2I N1I 1_555 1_555
C3I N4I 1_555 1_555
C4I N2I 1_555 1_555
C5I C4I 1_555 1_555
C6I N5I 1_555 1_555
H6I C6I 1_555 1_555
C7I N5I 1_555 1_555
C8I C7I 1_555 1_555
C9I N6I 1_555 1_555
C10I C9I 1_555 1_555
Cd1L N6I 1_555 1_555
O1L Cd1L 1_555 1_555
H1L O1L 1_555 1_555
H2L O1L 1_555 1_555
O2L Cd1L 1_555 1_555
H3L O2L 1_555 1_555
H4L O2L 1_555 1_555
N1L Cd1L 1_555 1_555
N2L C1L 1_555 1_555
N3L C5L 1_555 1_555
N4L Rb1 1_555 1_555
N5L Cd1L 1_555 1_555
N6L Cd1F 1_555 1_555
N7L C8L 1_555 1_555
N8L C10L 1_555 1_555
C1L N1L 1_555 1_555
H5L C1L 1_555 1_555
C2L N1L 1_555 1_555
C3L N4L 1_555 1_555
C4L N2L 1_555 1_555
C5L C4L 1_555 1_555
C6L N5L 1_555 1_555
H6L C6L 1_555 1_555
C7L N5L 1_555 1_555
C8L C7L 1_555 1_555
C9L N6L 1_555 1_555
C10L C9L 1_555 1_555
Cd1R N6 1_555 1_555
O1R Cd1R 1_555 1_555
H1R O1R 1_555 1_555
H2R O1R 1_555 1_555
O2R Cd1R 1_555 1_555
H3R O2R 1_555 1_555
H4R O2R 1_555 1_555
N1R Cd1R 1_555 1_555
N2R C1R 1_555 1_555
N3R C5R 1_555 1_555
N4R Rb1 1_555 1_555
N5R Cd1R 1_555 1_555
N6R Cd1I 1_555 1_555
N7R C8R 1_555 1_555
N8R C10R 1_555 1_555
C1R N1R 1_555 1_555
H5R C1R 1_555 1_555
C2R N1R 1_555 1_555
C3R N4R 1_555 1_555
C4R N2R 1_555 1_555
C5R C4R 1_555 1_555
C6R N5R 1_555 1_555
H6R C6R 1_555 1_555
C7R N5R 1_555 1_555
C8R C7R 1_555 1_555
C9R N6R 1_555 1_555
C10R C9R 1_555 1_555
Cd1U N6F 1_555 1_555
O1U Cd1U 1_555 1_555
H1U O1U 1_555 1_555
H2U O1U 1_555 1_555
O2U Cd1U 1_555 1_555
H3U O2U 1_555 1_555
H4U O2U 1_555 1_555
N1U Cd1U 1_555 1_555
N2U C1U 1_555 1_555
N3U C5U 1_555 1_555
N4U Rb1 1_555 1_555
N5U Cd1U 1_555 1_555
N6U Cd1 1_555 1_555
N7U C8U 1_555 1_555
N8U C10U 1_555 1_555
C1U N1U 1_555 1_555
H5U C1U 1_555 1_555
C2U N1U 1_555 1_555
C3U N4U 1_555 1_555
C4U N2U 1_555 1_555
C5U C4U 1_555 1_555
C6U N5U 1_555 1_555
H6U C6U 1_555 1_555
C7U N5U 1_555 1_555
C8U C7U 1_555 1_555
C9U N6U 1_555 1_555
C10U C9U 1_555 1_555
Cd1A N2R 1_555 1_555
Cd1G N2U 1_555 1_555
Cd1H N2L 1_555 1_555
Cd1M N2F 1_555 1_555
Cd1S N2I 1_555 1_555
Cd1T N2 1_555 1_555
N2B Cd1U 1_555 1_555
N2D Cd1L 1_555 1_555
N2K Cd1R 1_555 1_555
N2N Cd1I 1_555 1_555
N2P Cd1 1_555 1_555
N2W Cd1F 1_555 1_555
C2 C4 1_555 1_555
C7 C9 1_555 1_555
C2F C3F 1_555 1_555
C2F C4F 1_555 1_555
C7F C9F 1_555 1_555
C2I C3I 1_555 1_555
C2I C4I 1_555 1_555
C7I C9I 1_555 1_555
N6L C6L 1_555 1_555
C2L C3L 1_555 1_555
C2L C4L 1_555 1_555
C7L C9L 1_555 1_555
N6R C6R 1_555 1_555
C2R C3R 1_555 1_555
C2R C4R 1_555 1_555
C7R C9R 1_555 1_555
N6U C6U 1_555 1_555
C2U C3U 1_555 1_555
C2U C4U 1_555 1_555
C7U C9U 1_555 1_555

#END
