
#######################################################################
#
#                 Cambridge Crystallographic Data Centre
#                                CCDC 
#
#######################################################################
#
# If this CIF has been generated from an entry in the Cambridge 
# Structural Database, then it will include bibliographic, chemical, 
# crystal, experimental, refinement or atomic coordinate data resulting 
# from the CCDC's data processing and validation procedures.
#
#######################################################################

data_AHAQAB
_symmetry_cell_setting           monoclinic
_symmetry_space_group_name_H-M   'P 21/n'
_symmetry_Int_Tables_number      14
_space_group_name_Hall           '-P 2yn'
loop_
_symmetry_equiv_pos_site_id
_symmetry_equiv_pos_as_xyz
1 x,y,z
2 1/2+x,1/2-y,1/2+z
3 -x,-y,-z
4 1/2-x,1/2+y,1/2-z
_cell_length_a                   13.7579(8)
_cell_length_b                   18.5786(10)
_cell_length_c                   15.4717(8)
_cell_angle_alpha                90
_cell_angle_beta                 91.735(2)
_cell_angle_gamma                90
_cell_volume                     3952.79
loop_
_atom_site_label
_atom_site_type_symbol
_atom_site_fract_x
_atom_site_fract_y
_atom_site_fract_z
Fe1 Fe -0.24780(4) 0.24821(3) -0.00806(4)
Cr1 Cr -0.49503(4) 0.22093(3) 0.24455(3)
N1 N -0.4047(2) 0.29787(17) 0.29508(19)
N2 N -0.3934(2) 0.22162(16) 0.15581(18)
N3 N -0.5516(2) 0.14536(16) 0.16151(18)
N4 N -0.5831(2) 0.29986(17) 0.19218(19)
N5 N -0.5968(2) 0.22382(16) 0.33257(18)
N6 N -0.4406(2) 0.14485(16) 0.32919(18)
O1 O -0.2493(2) 0.27670(15) 0.11972(17)
O2 O -0.3614(2) 0.18018(15) 0.01862(16)
O3 O -0.7436(2) 0.27812(15) 0.36411(16)
O4 O -0.6333(2) 0.18273(14) 0.46899(16)
C1 C -0.4158(3) 0.3383(2) 0.3661(3)
H1 H -0.4688 0.3291 0.4004
C2 C -0.3532(4) 0.3925(2) 0.3906(3)
H2 H -0.3633 0.4188 0.4407
C3 C -0.2741(4) 0.4073(3) 0.3391(3)
H3 H -0.2308 0.4440 0.3540
C4 C -0.2615(3) 0.3665(2) 0.2657(3)
H4 H -0.2095 0.3755 0.2303
C5 C -0.3260(3) 0.3131(2) 0.2459(2)
C6 C -0.3185(3) 0.2683(2) 0.1668(2)
C7 C -0.4110(3) 0.1817(2) 0.0843(2)
C8 C -0.5004(3) 0.1369(2) 0.0880(2)
C9 C -0.5302(3) 0.0911(2) 0.0224(3)
H5 H -0.4946 0.0870 -0.0275
C10 C -0.6139(3) 0.0516(2) 0.0322(3)
H6 H -0.6359 0.0204 -0.0113
C11 C -0.6644(3) 0.0587(2) 0.1065(3)
H7 H -0.7203 0.0316 0.1144
C12 C -0.6319(3) 0.1063(2) 0.1701(3)
H8 H -0.6671 0.1110 0.2201
C13 C -0.5695(4) 0.3404(2) 0.1223(3)
H9 H -0.5152 0.3315 0.0895
C14 C -0.6317(4) 0.3945(3) 0.0965(3)
H10 H -0.6195 0.4215 0.0473
C15 C -0.7128(4) 0.4085(3) 0.1444(3)
H11 H -0.7560 0.4447 0.1278
C16 C -0.7286(3) 0.3679(2) 0.2174(3)
H12 H -0.7822 0.3766 0.2512
C17 C -0.6631(3) 0.3144(2) 0.2391(2)
C18 C -0.6730(3) 0.2696(2) 0.3188(2)
C19 C -0.5825(3) 0.1830(2) 0.4049(2)
C20 C -0.4938(3) 0.1374(2) 0.4014(2)
C21 C -0.4667(3) 0.0918(2) 0.4679(3)
H13 H -0.5034 0.0887 0.5173
C22 C -0.3839(3) 0.0507(2) 0.4598(3)
H14 H -0.3641 0.0190 0.5033
C23 C -0.3308(3) 0.0576(2) 0.3858(3)
H15 H -0.2747 0.0306 0.3789
C24 C -0.3622(3) 0.1055(2) 0.3217(3)
H16 H -0.3264 0.1098 0.2719
Cl1 Cl -0.13499(12) 0.09342(7) 0.00600(10)
O5 O -0.1359(2) 0.17127(16) 0.0182(2)
O6 O -0.2042(4) 0.0650(3) 0.0589(4)
O7 O -0.0416(4) 0.0685(3) 0.0336(3)
O8 O -0.1516(6) 0.0790(3) -0.0857(3)
Cl2 Cl -0.35299(12) 0.40057(8) -0.05061(12)
O9 O -0.3617(2) 0.32545(16) -0.0313(2)
O10 O -0.2950(5) 0.4056(3) -0.1273(4)
O11 O -0.3067(5) 0.4362(3) 0.0156(5)
O12 O -0.4502(3) 0.4273(2) -0.0660(3)
O3A O -0.2436(2) 0.22188(15) -0.13589(16)
O4A O -0.1333(2) 0.31727(14) -0.03101(16)
Fe1A Fe -0.74780(4) 0.25179(3) 0.49194(4)
Cl3 Cl -0.49397(8) 0.05571(6) 0.74824(7)
O13 O -0.5497(3) 0.0978(2) 0.6872(2)
O14 O -0.4289(3) 0.01090(18) 0.7013(2)
O15 O -0.5571(2) 0.01209(18) 0.7985(2)
O16 O -0.4394(3) 0.1020(2) 0.8050(2)
C25 C -0.4671(14) 0.2535(8) 0.6586(13)
N7 N -0.3799(9) 0.2835(7) 0.6243(6)
O17 O -0.3592(9) 0.3416(9) 0.5928(8)
O18 O -0.3247(8) 0.2953(5) 0.6980(7)
C26 C -0.0532(3) 0.95311(15) 0.2913(2)
H17 H -0.1045 0.9445 0.3307
H18 H 0.0084 0.9432 0.3197
H19 H -0.0616 0.9222 0.2419
N8 N -0.0559(3) 1.02528(15) 0.2644(2)
O19 O -0.1150(3) 1.07756(16) 0.2688(3)
O20 O 0.0294(3) 1.02923(17) 0.2228(3)
O24 O -0.1532(3) 0.26213(15) 0.5020(3)
C27? C -0.0490(4) 0.22892(15) 0.30950(19)
N9? N -0.1202(4) 0.22674(15) 0.3723(2)
O21? O -0.2157(3) 0.21481(15) 0.3760(2)
O22? O -0.1499(3) 0.24327(15) 0.4323(2)
O23? O -0.0898(4) 0.23910(15) 0.37170(19)
O25? O -0.3997(3) 0.25002(16) 0.5743(3)
O26? O -0.3401(3) 0.30310(16) 0.6438(3)
O27? O -0.1163(3) 1.00708(16) 0.2850(3)
loop_
_geom_bond_atom_site_label_1
_geom_bond_atom_site_label_2
_geom_bond_site_symmetry_1
_geom_bond_site_symmetry_2
Fe1 O1 1_555 1_555
Cr1 N1 1_555 1_555
N1 C1 1_555 1_555
N2 Cr1 1_555 1_555
N3 Cr1 1_555 1_555
N4 Cr1 1_555 1_555
N5 Cr1 1_555 1_555
N6 Cr1 1_555 1_555
O1 C6 1_555 1_555
O2 Fe1 1_555 1_555
O3 C18 1_555 1_555
O4 C19 1_555 1_555
C1 H1 1_555 1_555
C2 C1 1_555 1_555
H2 C2 1_555 1_555
C3 C2 1_555 1_555
H3 C3 1_555 1_555
C4 C3 1_555 1_555
H4 C4 1_555 1_555
C5 N1 1_555 1_555
C6 N2 1_555 1_555
C7 N2 1_555 1_555
C8 N3 1_555 1_555
C9 C8 1_555 1_555
H5 C9 1_555 1_555
C10 C9 1_555 1_555
H6 C10 1_555 1_555
C11 C10 1_555 1_555
H7 C11 1_555 1_555
C12 N3 1_555 1_555
H8 C12 1_555 1_555
C13 N4 1_555 1_555
H9 C13 1_555 1_555
C14 C13 1_555 1_555
H10 C14 1_555 1_555
C15 C14 1_555 1_555
H11 C15 1_555 1_555
C16 C15 1_555 1_555
H12 C16 1_555 1_555
C17 N4 1_555 1_555
C18 N5 1_555 1_555
C19 N5 1_555 1_555
C20 N6 1_555 1_555
C21 C20 1_555 1_555
H13 C21 1_555 1_555
C22 C21 1_555 1_555
H14 C22 1_555 1_555
C23 C22 1_555 1_555
H15 C23 1_555 1_555
C24 N6 1_555 1_555
H16 C24 1_555 1_555
Cl1 O5 1_555 1_555
O5 Fe1 1_555 1_555
O6 Cl1 1_555 1_555
O7 Cl1 1_555 1_555
O8 Cl1 1_555 1_555
Cl2 O9 1_555 1_555
O9 Fe1 1_555 1_555
O10 Cl2 1_555 1_555
O11 Cl2 1_555 1_555
O12 Cl2 1_555 1_555
Cl3 O13 1_555 1_555
O14 Cl3 1_555 1_555
O15 Cl3 1_555 1_555
O16 Cl3 1_555 1_555
C25 N7 1_555 1_555
N7 O17 1_555 1_555
O18 N7 1_555 1_555
C26 H17 1_555 1_555
H18 C26 1_555 1_555
H19 C26 1_555 1_555
N8 C26 1_555 1_555
O19 N8 1_555 1_555
O20 N8 1_555 1_555
O3A Fe1 1_555 1_555
O4A Fe1 1_555 1_555
Fe1A O3 1_555 1_555
O2 C7 1_555 1_555
O4 Fe1A 1_555 1_555
C4 C5 1_555 1_555
C5 C6 1_555 1_555
C7 C8 1_555 1_555
C11 C12 1_555 1_555
C16 C17 1_555 1_555
C17 C18 1_555 1_555
C19 C20 1_555 1_555
C23 C24 1_555 1_555

#END
