
#######################################################################
#
#                 Cambridge Crystallographic Data Centre
#                                CCDC 
#
#######################################################################
#
# If this CIF has been generated from an entry in the Cambridge 
# Structural Database, then it will include bibliographic, chemical, 
# crystal, experimental, refinement or atomic coordinate data resulting 
# from the CCDC's data processing and validation procedures.
#
#######################################################################

data_AHAVOV
_symmetry_cell_setting           monoclinic
_symmetry_space_group_name_H-M   'P 21/c'
_symmetry_Int_Tables_number      14
_space_group_name_Hall           '-P 2ybc'
loop_
_symmetry_equiv_pos_site_id
_symmetry_equiv_pos_as_xyz
1 x,y,z
2 -x,1/2+y,1/2-z
3 -x,-y,-z
4 x,1/2-y,1/2+z
_cell_length_a                   14.8034(9)
_cell_length_b                   8.0917(5)
_cell_length_c                   10.5824(7)
_cell_angle_alpha                90
_cell_angle_beta                 93.3230(10)
_cell_angle_gamma                90
_cell_volume                     1265.48
loop_
_atom_site_label
_atom_site_type_symbol
_atom_site_fract_x
_atom_site_fract_y
_atom_site_fract_z
Cd1 Cd 0.622821(15) 1.00693(3) 0.09990(2)
O1 O 0.77678(15) 1.0022(3) 0.1435(2)
O2 O 0.70445(15) 0.8563(3) 0.2804(2)
O3 O 1.1213(2) 0.6716(4) 0.5827(3)
O4 O 1.18295(19) 0.8549(4) 0.4701(3)
O5 O 0.64240(17) 0.7425(3) 0.0015(2)
H1 H 0.6691 0.7383 -0.0674
N1 N 0.59384(18) 1.1196(3) -0.0937(2)
N2 N 0.51059(17) 1.1101(3) -0.1573(2)
N3 N 0.59796(18) 1.2724(3) -0.2673(2)
N4 N 1.1184(2) 0.7751(4) 0.4996(3)
C1 C 0.5173(2) 1.2030(4) -0.2585(3)
H2 H 0.4697 1.2185 -0.3186
C2 C 0.6434(2) 1.2156(4) -0.1623(3)
H3 H 0.7035 1.2415 -0.1405
C3 C 0.7762(2) 0.9126(4) 0.2396(3)
C4 C 0.8659(2) 0.8720(4) 0.3082(3)
C5 C 0.8728(2) 0.7523(4) 0.4013(3)
H4 H 0.8218 0.6933 0.4220
C6 C 0.9558(2) 0.7202(4) 0.4639(3)
H5 H 0.9610 0.6407 0.5273
C7 C 1.0302(2) 0.8074(4) 0.4309(3)
C8 C 1.0256(2) 0.9259(4) 0.3390(3)
H6 H 1.0771 0.9834 0.3183
C9 C 0.9427(2) 0.9584(4) 0.2775(3)
H7 H 0.9382 1.0391 0.2148
C10 C 0.6339(4) 0.5892(5) 0.0623(4)
H8 H 0.6900 0.5617 0.1074
H9 H 0.6190 0.5055 0.0003
H10 H 0.5867 0.5958 0.1207
Cd1B Cd 0.377179(15) 0.99307(3) -0.09990(2)
Cd1C Cd 0.622821(15) 1.49307(3) -0.40010(2)
N2B N 0.48941(17) 0.8899(3) 0.1573(2)
N3C N 0.59796(18) 1.2276(3) 0.2327(2)
loop_
_geom_bond_atom_site_label_1
_geom_bond_atom_site_label_2
_geom_bond_site_symmetry_1
_geom_bond_site_symmetry_2
Cd1 O1 1_555 1_555
O1 C3 1_555 1_555
O2 Cd1 1_555 1_555
O3 N4 1_555 1_555
O4 N4 1_555 1_555
O5 Cd1 1_555 1_555
H1 O5 1_555 1_555
N1 Cd1 1_555 1_555
N2 N1 1_555 1_555
N3 C1 1_555 1_555
N4 C7 1_555 1_555
C1 N2 1_555 1_555
H2 C1 1_555 1_555
C2 N1 1_555 1_555
H3 C2 1_555 1_555
C3 O2 1_555 1_555
C4 C3 1_555 1_555
C5 C4 1_555 1_555
H4 C5 1_555 1_555
C6 C5 1_555 1_555
H5 C6 1_555 1_555
C7 C6 1_555 1_555
C8 C7 1_555 1_555
H6 C8 1_555 1_555
C9 C4 1_555 1_555
H7 C9 1_555 1_555
C10 O5 1_555 1_555
H8 C10 1_555 1_555
H9 C10 1_555 1_555
H10 C10 1_555 1_555
Cd1B N2 1_555 1_555
Cd1C N3 1_555 1_555
N2B Cd1 1_555 1_555
N3C Cd1 1_555 1_555
N3 C2 1_555 1_555
C8 C9 1_555 1_555

#END
