
#######################################################################
#
#                 Cambridge Crystallographic Data Centre
#                                CCDC 
#
#######################################################################
#
# If this CIF has been generated from an entry in the Cambridge 
# Structural Database, then it will include bibliographic, chemical, 
# crystal, experimental, refinement or atomic coordinate data resulting 
# from the CCDC's data processing and validation procedures.
#
#######################################################################

data_AHAWOW
_symmetry_cell_setting           monoclinic
_symmetry_space_group_name_H-M   'P 21/n'
_symmetry_Int_Tables_number      14
_space_group_name_Hall           '-P 2yn'
loop_
_symmetry_equiv_pos_site_id
_symmetry_equiv_pos_as_xyz
1 x,y,z
2 1/2-x,1/2+y,1/2-z
3 -x,-y,-z
4 1/2+x,1/2-y,1/2+z
_cell_length_a                   13.098(3)
_cell_length_b                   10.395(3)
_cell_length_c                   24.441(4)
_cell_angle_alpha                90
_cell_angle_beta                 98.350(2)
_cell_angle_gamma                90
_cell_volume                     3292.46
loop_
_atom_site_label
_atom_site_type_symbol
_atom_site_fract_x
_atom_site_fract_y
_atom_site_fract_z
Cd1 Cd 1.078411(17) 0.09235(2) 0.138995(9)
C1 C 0.9261(2) 0.8898(3) 0.15284(15)
C2 C 0.8307(2) 0.8079(3) 0.13912(12)
C3 C 0.7681(2) 0.8267(3) 0.08908(13)
H1 H 0.7852 0.8886 0.0645
C4 C 0.6803(2) 0.7532(3) 0.07589(13)
C5 C 0.6546(2) 0.6597(3) 0.11236(13)
H2 H 0.5950 0.6109 0.1035
C6 C 0.7188(2) 0.6402(3) 0.16195(13)
C7 C 0.8068(2) 0.7150(3) 0.17615(12)
H3 H 0.8488 0.7030 0.2098
C8 C 0.6451(3) 0.8503(4) -0.01327(14)
H4 H 0.7122 0.8244 -0.0217
H5 H 0.6504 0.9375 0.0010
C9 C 0.5670(2) 0.8443(4) -0.06436(14)
C10 C 0.5607(3) 0.7407(4) -0.09963(18)
H6 H 0.6026 0.6693 -0.0907
C11 C 0.4921(3) 0.7423(4) -0.14843(18)
H7 H 0.4896 0.6710 -0.1716
C12 C 0.4354(3) 0.9387(4) -0.12908(17)
H8 H 0.3915 1.0080 -0.1386
C13 C 0.5016(3) 0.9454(4) -0.08011(16)
H9 H 0.5022 1.0179 -0.0578
C14 C 0.7572(3) 0.4971(3) 0.24079(13)
H10 H 0.7188 0.4542 0.2665
H11 H 0.7941 0.5688 0.2600
C15 C 0.8335(3) 0.4046(3) 0.22231(12)
C16 C 0.7998(3) 0.2961(3) 0.19251(14)
H12 H 0.7295 0.2796 0.1844
C17 C 0.8690(3) 0.2124(3) 0.17479(14)
H13 H 0.8432 0.1405 0.1548
C18 C 1.0035(3) 0.3330(3) 0.21327(15)
H14 H 1.0743 0.3476 0.2206
C19 C 0.9392(3) 0.4217(4) 0.23295(14)
H15 H 0.9668 0.4925 0.2532
C20 C 1.6110(2) 0.2215(3) 0.56316(12)
C21 C 1.6196(2) 0.1324(3) 0.51517(11)
C22 C 1.5442(2) 0.1387(3) 0.46888(11)
H16 H 1.4889 0.1952 0.4680
C23 C 1.5528(2) 0.0594(3) 0.42403(12)
C24 C 1.6342(2) -0.0238(3) 0.42534(12)
H17 H 1.6387 -0.0773 0.3953
C25 C 1.7097(2) -0.0288(3) 0.47121(12)
C26 C 1.7022(2) 0.0480(3) 0.51662(12)
H18 H 1.7519 0.0432 0.5479
C27 C 1.3964(2) 0.1359(3) 0.37367(12)
H19 H 1.3581 0.1156 0.4037
H20 H 1.4179 0.2252 0.3773
C28 C 1.3288(3) 0.1153(3) 0.31868(12)
C29 C 1.3489(3) 0.1754(4) 0.27175(14)
H21 H 1.4082 0.2250 0.2725
C30 C 1.2813(3) 0.1625(4) 0.22308(13)
H22 H 1.2957 0.2057 0.1918
C31 C 1.1789(3) 0.0297(4) 0.26421(14)
H23 H 1.1203 -0.0214 0.2622
C32 C 1.2435(3) 0.0381(4) 0.31401(14)
H24 H 1.2289 -0.0087 0.3444
C33 C 1.8498(3) -0.1619(4) 0.51308(16)
H25 H 1.9124 -0.1992 0.5032
H26 H 1.8696 -0.0926 0.5391
C34 C 1.7925(3) -0.2637(3) 0.54112(15)
C35 C 1.8274(3) -0.3001(4) 0.59461(16)
H27 H 1.8862 -0.2623 0.6139
C36 C 1.7752(3) -0.3924(3) 0.61926(16)
H28 H 1.8007 -0.4156 0.6554
C37 C 1.6567(3) -0.4174(3) 0.54289(14)
H29 H 1.5980 -0.4574 0.5245
C38 C 1.7054(3) -0.3250(3) 0.51460(15)
H30 H 1.6795 -0.3045 0.4782
N1 N 0.4302(3) 0.8397(4) -0.16369(14)
N2 N 0.9711(2) 0.2281(3) 0.18455(11)
N3 N 1.1968(2) 0.0911(3) 0.21917(10)
N4 N 1.6899(2) -0.4515(3) 0.59487(12)
O1 O 0.97382(18) 0.8903(2) 0.20027(11)
O2 O 0.95015(19) 0.9573(2) 0.11330(10)
O3 O 0.61254(17) 0.7652(2) 0.02705(9)
O4 O 0.68639(17) 0.5451(2) 0.19468(9)
O5 O 1.67860(17) 0.2166(2) 0.60530(8)
O6 O 1.53750(17) 0.3011(2) 0.55787(9)
O7 O 1.48286(17) 0.0561(2) 0.37620(9)
O8 O 1.79137(18) -0.1110(2) 0.46562(10)
Cd1C Cd 1.578411(17) -0.59235(2) 0.638995(9)
Cd1_2 Cd 1.078411(17) 1.09235(2) 0.138995(9)
Cd1C_2 Cd 1.578411(17) 0.40765(2) 0.638995(9)
N4C N 1.1899(2) -0.0485(3) 0.09487(12)
O2_2 O 0.95015(19) -0.0427(2) 0.11330(10)
O5C O 1.17860(17) 0.2834(2) 0.10530(8)
O6C O 1.03750(17) 0.1989(2) 0.05787(9)
loop_
_geom_bond_atom_site_label_1
_geom_bond_atom_site_label_2
_geom_bond_site_symmetry_1
_geom_bond_site_symmetry_2
Cd1 N2 1_555 1_555
C1 C2 1_555 1_555
C2 C3 1_555 1_555
C3 H1 1_555 1_555
C4 C3 1_555 1_555
C5 C4 1_555 1_555
H2 C5 1_555 1_555
C6 C5 1_555 1_555
C7 C2 1_555 1_555
H3 C7 1_555 1_555
C8 H4 1_555 1_555
H5 C8 1_555 1_555
C9 C8 1_555 1_555
C10 C9 1_555 1_555
H6 C10 1_555 1_555
C11 C10 1_555 1_555
H7 C11 1_555 1_555
C12 H8 1_555 1_555
C13 C9 1_555 1_555
H9 C13 1_555 1_555
C14 H10 1_555 1_555
H11 C14 1_555 1_555
C15 C14 1_555 1_555
C16 C15 1_555 1_555
H12 C16 1_555 1_555
C17 C16 1_555 1_555
H13 C17 1_555 1_555
C18 H14 1_555 1_555
C19 C15 1_555 1_555
H15 C19 1_555 1_555
C20 C21 1_555 1_555
C21 C22 1_555 1_555
C22 H16 1_555 1_555
C23 C22 1_555 1_555
C24 C23 1_555 1_555
H17 C24 1_555 1_555
C25 C24 1_555 1_555
C26 C21 1_555 1_555
H18 C26 1_555 1_555
C27 H19 1_555 1_555
H20 C27 1_555 1_555
C28 C27 1_555 1_555
C29 C28 1_555 1_555
H21 C29 1_555 1_555
C30 C29 1_555 1_555
H22 C30 1_555 1_555
C31 H23 1_555 1_555
C32 C28 1_555 1_555
H24 C32 1_555 1_555
C33 H25 1_555 1_555
H26 C33 1_555 1_555
C34 C33 1_555 1_555
C35 C34 1_555 1_555
H27 C35 1_555 1_555
C36 C35 1_555 1_555
H28 C36 1_555 1_555
C37 H29 1_555 1_555
C38 C34 1_555 1_555
H30 C38 1_555 1_555
N1 C11 1_555 1_555
N2 C17 1_555 1_555
N3 Cd1 1_555 1_555
N4 C36 1_555 1_555
O1 C1 1_555 1_555
O2 C1 1_555 1_555
O3 C4 1_555 1_555
O4 C6 1_555 1_555
O5 C20 1_555 1_555
O6 C20 1_555 1_555
O7 C23 1_555 1_555
O8 C25 1_555 1_555
Cd1C N4 1_555 1_555
Cd1_2 O2 1_555 1_555
Cd1C_2 O5 1_555 1_555
N4C Cd1 1_555 1_555
O2_2 Cd1 1_555 1_555
O5C Cd1 1_555 1_555
O6C Cd1 1_555 1_555
C6 C7 1_555 1_555
C8 O3 1_555 1_555
C12 C13 1_555 1_555
C12 N1 1_555 1_555
C14 O4 1_555 1_555
C18 C19 1_555 1_555
C18 N2 1_555 1_555
C25 C26 1_555 1_555
C27 O7 1_555 1_555
C30 N3 1_555 1_555
C31 C32 1_555 1_555
C31 N3 1_555 1_555
C33 O8 1_555 1_555
C37 C38 1_555 1_555
C37 N4 1_555 1_555
O6 Cd1C_2 1_555 1_555

#END
