
#######################################################################
#
#                 Cambridge Crystallographic Data Centre
#                                CCDC 
#
#######################################################################
#
# If this CIF has been generated from an entry in the Cambridge 
# Structural Database, then it will include bibliographic, chemical, 
# crystal, experimental, refinement or atomic coordinate data resulting 
# from the CCDC's data processing and validation procedures.
#
#######################################################################

data_AHAWAI
_symmetry_cell_setting           monoclinic
_symmetry_space_group_name_H-M   'P 21/n'
_symmetry_Int_Tables_number      14
_space_group_name_Hall           '-P 2yn'
loop_
_symmetry_equiv_pos_site_id
_symmetry_equiv_pos_as_xyz
1 x,y,z
2 1/2-x,1/2+y,1/2-z
3 -x,-y,-z
4 1/2+x,1/2-y,1/2+z
_cell_length_a                   7.8857(3)
_cell_length_b                   22.5795(10)
_cell_length_c                   10.4642(4)
_cell_angle_alpha                90
_cell_angle_beta                 96.5780(10)
_cell_angle_gamma                90
_cell_volume                     1850.94
loop_
_atom_site_label
_atom_site_type_symbol
_atom_site_fract_x
_atom_site_fract_y
_atom_site_fract_z
Cd1 Cd 0.162619(18) 0.239060(6) 0.782085(12)
O1 O 0.17690(19) 0.34916(7) 0.80342(15)
O2 O -0.0108(2) 0.30557(6) 0.66341(15)
O3 O -0.1592(3) 0.62050(8) 0.6104(2)
O4 O -0.3572(3) 0.57853(8) 0.4902(2)
O5 O -0.0555(2) 0.17558(7) 0.6620(2)
O6 O 0.1548(2) 0.13559(7) 0.78563(14)
O7 O -0.1499(3) -0.14257(9) 0.6115(3)
O8 O -0.3622(3) -0.10387(10) 0.4981(2)
O9 O 0.4155(2) 0.24352(6) 0.92824(14)
H1 H 0.4346 0.2203 0.9923
H2 H 0.4560 0.2784 0.9370
C1 C 0.5153(3) 0.21246(10) 0.66781(19)
H3 H 0.5441 0.1916 0.7439
N1 N 0.3687(2) 0.23955(7) 0.63622(16)
N2 N 0.5344(2) 0.25128(7) 0.47913(17)
N3 N -0.2308(2) 0.57675(8) 0.56669(17)
N4 N -0.2303(3) -0.10023(10) 0.5689(2)
C2 C 0.3864(3) 0.26227(9) 0.5191(2)
H4 H 0.3010 0.2838 0.4712
N5 N 0.6152(2) 0.21907(8) 0.57664(16)
H5 H 0.7168 0.2050 0.5787
C3 C 0.0544(3) 0.35153(9) 0.71808(18)
C4 C -0.0231(3) 0.41030(9) 0.67763(17)
C5 C -0.1716(3) 0.41401(10) 0.5952(2)
H6 H -0.2256 0.3796 0.5630
C6 C -0.2408(3) 0.46856(10) 0.5601(3)
H7 H -0.3422 0.4712 0.5055
C7 C -0.1580(3) 0.51873(9) 0.60683(18)
C8 C -0.0113(3) 0.51651(10) 0.6888(2)
H8 H 0.0430 0.5510 0.7198
C9 C 0.0550(3) 0.46150(10) 0.7247(2)
H9 H 0.1542 0.4591 0.7818
C10 C 0.0221(3) 0.13119(9) 0.70973(19)
C11 C -0.0466(2) 0.07057(9) 0.67202(18)
C12 C -0.1898(3) 0.06345(11) 0.5861(3)
H10 H -0.2463 0.0965 0.5494
C13 C -0.2509(3) 0.00736(12) 0.5535(3)
H11 H -0.3492 0.0026 0.4962
C14 C -0.1655(3) -0.04068(9) 0.6061(2)
C15 C -0.0239(3) -0.03507(11) 0.6908(3)
H12 H 0.0333 -0.0684 0.7258
C16 C 0.0345(3) 0.02119(10) 0.7245(3)
H13 H 0.1307 0.0255 0.7840
Cd1C Cd 0.662619(18) 0.260940(6) 0.282085(12)
N2C N 0.0344(2) 0.24872(7) 0.97913(17)
loop_
_geom_bond_atom_site_label_1
_geom_bond_atom_site_label_2
_geom_bond_site_symmetry_1
_geom_bond_site_symmetry_2
Cd1 O1 1_555 1_555
O1 C3 1_555 1_555
O2 Cd1 1_555 1_555
O3 N3 1_555 1_555
O4 N3 1_555 1_555
O5 Cd1 1_555 1_555
O6 Cd1 1_555 1_555
O7 N4 1_555 1_555
O8 N4 1_555 1_555
O9 Cd1 1_555 1_555
H1 O9 1_555 1_555
H2 O9 1_555 1_555
C1 H3 1_555 1_555
N1 Cd1 1_555 1_555
N2 C2 1_555 1_555
N3 C7 1_555 1_555
N4 C14 1_555 1_555
C2 N1 1_555 1_555
H4 C2 1_555 1_555
N5 C1 1_555 1_555
H5 N5 1_555 1_555
C3 O2 1_555 1_555
C4 C3 1_555 1_555
C5 C4 1_555 1_555
H6 C5 1_555 1_555
C6 C5 1_555 1_555
H7 C6 1_555 1_555
C7 C6 1_555 1_555
C8 C7 1_555 1_555
H8 C8 1_555 1_555
C9 C4 1_555 1_555
H9 C9 1_555 1_555
C10 O5 1_555 1_555
C11 C10 1_555 1_555
C12 C11 1_555 1_555
H10 C12 1_555 1_555
C13 C12 1_555 1_555
H11 C13 1_555 1_555
C14 C13 1_555 1_555
C15 C14 1_555 1_555
H12 C15 1_555 1_555
C16 C11 1_555 1_555
H13 C16 1_555 1_555
Cd1C N2 1_555 1_555
N2C Cd1 1_555 1_555
O6 C10 1_555 1_555
C1 N1 1_555 1_555
N2 N5 1_555 1_555
C8 C9 1_555 1_555
C15 C16 1_555 1_555

#END
