
#######################################################################
#
#                 Cambridge Crystallographic Data Centre
#                                CCDC 
#
#######################################################################
#
# If this CIF has been generated from an entry in the Cambridge 
# Structural Database, then it will include bibliographic, chemical, 
# crystal, experimental, refinement or atomic coordinate data resulting 
# from the CCDC's data processing and validation procedures.
#
#######################################################################

data_AHAXOX
_symmetry_cell_setting           monoclinic
_symmetry_space_group_name_H-M   'P 21/c'
_symmetry_Int_Tables_number      14
_space_group_name_Hall           '-P 2ybc'
loop_
_symmetry_equiv_pos_site_id
_symmetry_equiv_pos_as_xyz
1 x,y,z
2 -x,1/2+y,1/2-z
3 -x,-y,-z
4 x,1/2-y,1/2+z
_cell_length_a                   8.556(5)
_cell_length_b                   10.761(5)
_cell_length_c                   16.917(5)
_cell_angle_alpha                90
_cell_angle_beta                 93.032(5)
_cell_angle_gamma                90
_cell_volume                     1555.39
loop_
_atom_site_label
_atom_site_type_symbol
_atom_site_fract_x
_atom_site_fract_y
_atom_site_fract_z
Mn1 Mn 0.5000 0.0000 0.5000
V1 V 0.83465(6) -0.04865(6) 0.38760(3)
V2 V 0.85942(6) -0.14812(5) 0.56886(3)
N1 N 0.4280(3) -0.1897(3) 0.46035(17)
N2 N 0.2636(4) -0.3411(3) 0.4292(2)
N3 N -0.2880(3) -0.6166(3) 0.28600(17)
N4 N -0.4852(5) -0.7250(4) 0.3247(3)
H1 H -0.5423 -0.7763 0.3494
C1 C 0.2802(4) -0.2218(3) 0.4499(3)
H2 H 0.1969 -0.1678 0.4561
C2 C 0.5100(4) -0.2945(4) 0.4445(3)
H3 H 0.6185 -0.3007 0.4476
C3 C 0.4108(5) -0.3879(4) 0.4238(3)
H4 H 0.4375 -0.4680 0.4088
C4 C 0.1102(6) -0.4071(4) 0.4158(3)
H5 H 0.1248 -0.4953 0.4256
H6 H 0.0364 -0.3760 0.4526
C5 C 0.0474(6) -0.3880(7) 0.3347(4)
H7 H 0.1137 -0.4285 0.2977
H8 H 0.0436 -0.2999 0.3225
C6 C -0.1205(6) -0.4444(7) 0.3276(5)
H9 H -0.1558 -0.4584 0.3804
H10 H -0.1906 -0.3842 0.3018
C7 C -0.1320(4) -0.5598(4) 0.2840(3)
H11 H -0.0545 -0.6176 0.3061
H12 H -0.1085 -0.5443 0.2294
C8 C -0.4140(5) -0.5863(4) 0.2412(2)
H13 H -0.4172 -0.5294 0.1998
C9 C -0.5331(4) -0.6497(3) 0.2650(2)
H14 H -0.6353 -0.6436 0.2438
C10 C -0.3307(5) -0.7052(4) 0.3387(3)
H15 H -0.2655 -0.7443 0.3768
O1 O 0.6608(2) 0.0081(2) 0.40574(13)
O2 O 0.8210(3) -0.1241(3) 0.30367(15)
O3 O 0.8929(3) -0.1555(3) 0.46476(14)
O4 O 0.6920(2) -0.0723(2) 0.57964(13)
O5 O 0.8427(4) -0.2873(3) 0.6028(2)
O6 O 0.9762(3) 0.0730(3) 0.38235(16)
V1B V 0.16535(6) 0.04865(6) 0.61240(3)
V1_2 V -0.16535(6) -0.04865(6) 0.38760(3)
V2B V 0.14058(6) 0.14812(5) 0.43114(3)
V2B_2 V 1.14058(6) 0.14812(5) 0.43114(3)
N1B N 0.5720(3) 0.1897(3) 0.53965(17)
N2B N 0.7364(4) 0.3411(3) 0.5708(2)
N3B N 1.2880(3) 0.6166(3) 0.71400(17)
N4B N 1.4852(5) 0.7250(4) 0.6753(3)
H1B H 1.5423 0.7763 0.6506
C1B C 0.7198(4) 0.2218(3) 0.5501(3)
H2B H 0.8031 0.1678 0.5439
C2B C 0.4900(4) 0.2945(4) 0.5555(3)
H3B H 0.3815 0.3007 0.5524
C3B C 0.5892(5) 0.3879(4) 0.5762(3)
H4B H 0.5625 0.4680 0.5912
C4B C 0.8898(6) 0.4071(4) 0.5842(3)
H5B H 0.8752 0.4953 0.5744
H6B H 0.9636 0.3760 0.5474
C5B C 0.9526(6) 0.3880(7) 0.6653(4)
H7B H 0.8863 0.4285 0.7023
H8B H 0.9564 0.2999 0.6775
C6B C 1.1205(6) 0.4444(7) 0.6724(5)
H9B H 1.1558 0.4584 0.6196
H10B H 1.1906 0.3842 0.6982
C7B C 1.1320(4) 0.5598(4) 0.7160(3)
H11B H 1.0545 0.6176 0.6939
H12B H 1.1085 0.5443 0.7706
C8B C 1.4140(5) 0.5863(4) 0.7588(2)
H13B H 1.4172 0.5294 0.8002
C9B C 1.5331(4) 0.6497(3) 0.7350(2)
H14B H 1.6353 0.6436 0.7562
C10B C 1.3307(5) 0.7052(4) 0.6613(3)
H15B H 1.2655 0.7443 0.6232
O1B O 0.3392(2) -0.0081(2) 0.59426(13)
O2B O 0.1790(3) 0.1241(3) 0.69633(15)
O3B O 0.1071(3) 0.1555(3) 0.53524(14)
O4B O 0.3080(2) 0.0723(2) 0.42036(13)
O5B O 0.1573(4) 0.2873(3) 0.3972(2)
O6_2 O -0.0238(3) 0.0730(3) 0.38235(16)
O6B O 0.0238(3) -0.0730(3) 0.61765(16)
O6B_2 O 1.0238(3) -0.0730(3) 0.61765(16)
loop_
_geom_bond_atom_site_label_1
_geom_bond_atom_site_label_2
_geom_bond_site_symmetry_1
_geom_bond_site_symmetry_2
Mn1 N1 1_555 1_555
V1 O1 1_555 1_555
V2 O3 1_555 1_555
N1 C1 1_555 1_555
N2 C1 1_555 1_555
N3 C7 1_555 1_555
N4 H1 1_555 1_555
C1 H2 1_555 1_555
C2 N1 1_555 1_555
H3 C2 1_555 1_555
C3 N2 1_555 1_555
H4 C3 1_555 1_555
C4 N2 1_555 1_555
H5 C4 1_555 1_555
H6 C4 1_555 1_555
C5 C4 1_555 1_555
H7 C5 1_555 1_555
H8 C5 1_555 1_555
C6 C5 1_555 1_555
H9 C6 1_555 1_555
H10 C6 1_555 1_555
C7 C6 1_555 1_555
H11 C7 1_555 1_555
H12 C7 1_555 1_555
C8 N3 1_555 1_555
H13 C8 1_555 1_555
C9 N4 1_555 1_555
H14 C9 1_555 1_555
C10 N3 1_555 1_555
H15 C10 1_555 1_555
O1 Mn1 1_555 1_555
O2 V1 1_555 1_555
O3 V1 1_555 1_555
O4 Mn1 1_555 1_555
O5 V2 1_555 1_555
O6 V1 1_555 1_555
V1B O1B 1_555 1_555
V1_2 O6_2 1_555 1_555
V2B O3B 1_555 1_555
V2B_2 O6 1_555 1_555
N1B Mn1 1_555 1_555
N2B C1B 1_555 1_555
N3B C7B 1_555 1_555
N4B H1B 1_555 1_555
C1B N1B 1_555 1_555
H2B C1B 1_555 1_555
C2B N1B 1_555 1_555
H3B C2B 1_555 1_555
C3B N2B 1_555 1_555
H4B C3B 1_555 1_555
C4B N2B 1_555 1_555
H5B C4B 1_555 1_555
H6B C4B 1_555 1_555
C5B C4B 1_555 1_555
H7B C5B 1_555 1_555
H8B C5B 1_555 1_555
C6B C5B 1_555 1_555
H9B C6B 1_555 1_555
H10B C6B 1_555 1_555
C7B C6B 1_555 1_555
H11B C7B 1_555 1_555
H12B C7B 1_555 1_555
C8B N3B 1_555 1_555
H13B C8B 1_555 1_555
C9B N4B 1_555 1_555
H14B C9B 1_555 1_555
C10B N3B 1_555 1_555
H15B C10B 1_555 1_555
O1B Mn1 1_555 1_555
O2B V1B 1_555 1_555
O3B V1B 1_555 1_555
O4B Mn1 1_555 1_555
O5B V2B 1_555 1_555
O6_2 V2B 1_555 1_555
O6B V1B 1_555 1_555
O6B_2 V2 1_555 1_555
V2 O4 1_555 1_555
N4 C10 1_555 1_555
C2 C3 1_555 1_555
C8 C9 1_555 1_555
V2B O4B 1_555 1_555
N4B C10B 1_555 1_555
C2B C3B 1_555 1_555
C8B C9B 1_555 1_555

#END
