
#######################################################################
#
#                 Cambridge Crystallographic Data Centre
#                                CCDC 
#
#######################################################################
#
# If this CIF has been generated from an entry in the Cambridge 
# Structural Database, then it will include bibliographic, chemical, 
# crystal, experimental, refinement or atomic coordinate data resulting 
# from the CCDC's data processing and validation procedures.
#
#######################################################################

data_AHAYAK
_symmetry_cell_setting           triclinic
_symmetry_space_group_name_H-M   'P -1'
_symmetry_Int_Tables_number      2
_space_group_name_Hall           '-P 1'
loop_
_symmetry_equiv_pos_site_id
_symmetry_equiv_pos_as_xyz
1 x,y,z
2 -x,-y,-z
_cell_length_a                   7.3357(6)
_cell_length_b                   10.6481(9)
_cell_length_c                   15.5568(13)
_cell_angle_alpha                81.102(2)
_cell_angle_beta                 83.227(2)
_cell_angle_gamma                79.860(2)
_cell_volume                     1176.63
loop_
_atom_site_label
_atom_site_type_symbol
_atom_site_fract_x
_atom_site_fract_y
_atom_site_fract_z
C1 C 0.4079(7) -0.1933(5) 0.7635(3)
H1 H 0.3823 -0.2791 0.7741
C2 C 0.5028(7) -0.1535(5) 0.6856(3)
H2 H 0.5406 -0.2106 0.6432
C3 C 0.5436(7) -0.0273(5) 0.6688(3)
C4 C 0.4883(7) 0.0507(5) 0.7340(3)
H3 H 0.5162 0.1358 0.7261
C5 C 0.3920(7) 0.0030(5) 0.8107(3)
H4 H 0.3543 0.0575 0.8547
C6 C 0.6445(7) 0.0099(5) 0.5840(3)
C7 C 0.7893(7) 0.1097(5) 0.4724(3)
C8 C 1.0551(7) 0.2566(5) 0.2741(3)
H5 H 1.1060 0.2336 0.2186
C9 C 0.9595(7) 0.1718(5) 0.3304(3)
H6 H 0.9449 0.0924 0.3135
C10 C 0.8840(7) 0.2040(5) 0.4129(3)
C11 C 0.9099(8) 0.3220(6) 0.4340(3)
H7 H 0.8607 0.3484 0.4888
C12 C 1.0084(8) 0.3989(5) 0.3734(4)
H8 H 1.0275 0.4783 0.3888
C13 C -0.1111(7) 0.0275(5) 0.8673(3)
C14 C 0.5789(7) -0.3357(5) 0.9644(3)
C15 C 0.1272(7) -0.4938(5) 0.8928(3)
C16 C 1.4550(7) 0.4810(5) 0.3553(4)
Hg1 Hg 0.17709(3) -0.193723(18) 0.955535(12)
Hg2 Hg 1.20696(3) 0.532922(19) 0.198772(12)
N1 N 0.3493(6) -0.1166(4) 0.8259(3)
N2 N 0.7141(6) -0.0745(4) 0.5301(3)
N3 N 0.8058(6) -0.0104(4) 0.4595(3)
N4 N 1.0790(6) 0.3698(4) 0.2945(3)
N5 N -0.0953(7) 0.1135(5) 0.8147(3)
N6 N 0.6741(6) -0.3808(4) 0.9107(3)
N7 N 0.1700(6) -0.4002(4) 0.9037(3)
N8 N 1.4367(7) 0.4277(5) 0.4255(3)
N9 N 0.6145(7) 0.2426(4) 0.5854(3)
H9 H 0.721(6) 0.262(6) 0.602(4)
H10 H 0.555(8) 0.301(5) 0.545(3)
N10 N 0.6879(6) 0.1278(4) 0.5499(3)
S1 S -0.14622(18) -0.09599(13) 0.94565(9)
S2 S 0.44026(18) -0.26421(13) 1.04401(8)
S3 S 0.07021(17) -0.63368(12) 0.87518(8)
S4 S 1.48939(18) 0.55952(14) 0.25368(9)
Hg2A Hg 0.79304(3) -0.532922(19) 0.801228(12)
Hg2A_2 Hg -0.20696(3) -0.532922(19) 0.801228(12)
N6A N 1.3259(6) 0.3808(4) 0.0893(3)
S3A S 0.92979(17) 0.63368(12) 0.12482(8)
C17 C 0.1511(8) 0.2792(6) 0.6317(4)
H11 H 0.2159 0.3103 0.6738
H12 H 0.1730 0.3281 0.5738
H13 H 0.1981 0.1876 0.6294
O1 O -0.0461(5) 0.2962(4) 0.6586(3)
H14 H -0.0671 0.2429 0.7029
loop_
_geom_bond_atom_site_label_1
_geom_bond_atom_site_label_2
_geom_bond_site_symmetry_1
_geom_bond_site_symmetry_2
C1 H1 1_555 1_555
C2 C1 1_555 1_555
H2 C2 1_555 1_555
C3 C2 1_555 1_555
C4 C3 1_555 1_555
H3 C4 1_555 1_555
C5 C4 1_555 1_555
H4 C5 1_555 1_555
C6 C3 1_555 1_555
C7 C10 1_555 1_555
C8 H5 1_555 1_555
C9 C8 1_555 1_555
H6 C9 1_555 1_555
C10 C9 1_555 1_555
C11 C10 1_555 1_555
H7 C11 1_555 1_555
C12 C11 1_555 1_555
H8 C12 1_555 1_555
C13 N5 1_555 1_555
C14 N6 1_555 1_555
C15 N7 1_555 1_555
C16 N8 1_555 1_555
Hg1 N1 1_555 1_555
Hg2 N4 1_555 1_555
N1 C1 1_555 1_555
N2 C6 1_555 1_555
N3 C7 1_555 1_555
N4 C8 1_555 1_555
N6 Hg2A 1_555 1_555
N7 Hg1 1_555 1_555
N9 H9 1_555 1_555
H10 N9 1_555 1_555
N10 C6 1_555 1_555
S1 C13 1_555 1_555
S2 C14 1_555 1_555
S3 C15 1_555 1_555
S4 C16 1_555 1_555
C17 H11 1_555 1_555
H12 C17 1_555 1_555
H13 C17 1_555 1_555
O1 C17 1_555 1_555
H14 O1 1_555 1_555
Hg2A_2 S3 1_555 1_555
N6A Hg2 1_555 1_555
S3A Hg2 1_555 1_555
C5 N1 1_555 1_555
C7 N10 1_555 1_555
C12 N4 1_555 1_555
Hg1 S1 1_555 1_555
Hg1 S2 1_555 1_555
Hg2 S4 1_555 1_555
N2 N3 1_555 1_555
N9 N10 1_555 1_555

#END
