
#######################################################################
#
#                 Cambridge Crystallographic Data Centre
#                                CCDC 
#
#######################################################################
#
# If this CIF has been generated from an entry in the Cambridge 
# Structural Database, then it will include bibliographic, chemical, 
# crystal, experimental, refinement or atomic coordinate data resulting 
# from the CCDC's data processing and validation procedures.
#
#######################################################################

data_AHAZAM
_symmetry_cell_setting           triclinic
_symmetry_space_group_name_H-M   'P -1'
_symmetry_Int_Tables_number      2
_space_group_name_Hall           '-P 1'
loop_
_symmetry_equiv_pos_site_id
_symmetry_equiv_pos_as_xyz
1 x,y,z
2 -x,-y,-z
_cell_length_a                   9.7730(3)
_cell_length_b                   18.3347(5)
_cell_length_c                   19.9481(6)
_cell_angle_alpha                96.5820(10)
_cell_angle_beta                 102.6170(10)
_cell_angle_gamma                100.1690(10)
_cell_volume                     3389.35
loop_
_atom_site_label
_atom_site_type_symbol
_atom_site_fract_x
_atom_site_fract_y
_atom_site_fract_z
Cd1 Cd 0.18606(4) 0.474556(18) 0.039406(16)
Cl1 Cl 0.07791(13) 0.59492(7) 0.01832(6)
Cl2 Cl 0.43799(14) 0.55520(7) 0.07742(7)
N1 N 0.2661(5) 0.3610(2) 0.0513(2)
C1 C 0.3994(6) 0.3559(3) 0.0483(3)
H1 H 0.4660 0.4004 0.0481
C2 C 0.4444(6) 0.2882(3) 0.0454(3)
H2 H 0.5408 0.2871 0.0445
C3 C 0.3484(7) 0.2218(3) 0.0439(3)
C4 C 0.2124(8) 0.2284(4) 0.0490(5)
H3 H 0.1445 0.1851 0.0508
C5 C 0.1745(8) 0.2978(4) 0.0515(5)
H4 H 0.0792 0.3005 0.0534
C6 C 0.3916(7) 0.1513(3) 0.0363(3)
C7 C 0.4298(6) 0.0933(3) 0.0238(3)
Pt1 Pt 0.5000 0.0000 0.0000
P1 P 0.68280(17) 0.03488(8) 0.10028(8)
C8 C 0.6239(8) 0.0061(3) 0.1750(3)
C9 C 0.7195(11) -0.0062(5) 0.2343(4)
H5 H 0.8183 -0.0021 0.2355
C10 C 0.6679(13) -0.0243(6) 0.2910(5)
H6 H 0.7325 -0.0330 0.3309
C11 C 0.5317(13) -0.0297(5) 0.2913(5)
H7 H 0.4994 -0.0420 0.3310
C12 C 0.4351(12) -0.0172(6) 0.2333(6)
H8 H 0.3372 -0.0205 0.2338
C13 C 0.4807(9) 0.0002(4) 0.1749(4)
H9 H 0.4143 0.0079 0.1352
C14 C 0.8449(7) -0.0026(4) 0.1005(4)
C15 C 0.9655(7) 0.0402(4) 0.0900(4)
H10 H 0.9676 0.0913 0.0850
C16 C 1.0847(8) 0.0101(5) 0.0865(4)
H11 H 1.1667 0.0404 0.0780
C17 C 1.0856(9) -0.0636(6) 0.0951(5)
H12 H 1.1680 -0.0839 0.0934
C18 C 0.9657(10) -0.1068(5) 0.1063(6)
H13 H 0.9655 -0.1574 0.1125
C19 C 0.8433(9) -0.0777(4) 0.1085(5)
H14 H 0.7602 -0.1084 0.1155
C20 C 0.7528(7) 0.1358(3) 0.1237(4)
C21 C 0.7607(8) 0.1778(4) 0.0710(5)
H15 H 0.7271 0.1551 0.0235
C22 C 0.8204(10) 0.2557(5) 0.0895(7)
H16 H 0.8256 0.2856 0.0539
C23 C 0.8699(12) 0.2881(5) 0.1566(8)
H17 H 0.9111 0.3403 0.1677
C24 C 0.8615(12) 0.2471(5) 0.2086(7)
H18 H 0.8963 0.2705 0.2558
C25 C 0.8009(9) 0.1697(4) 0.1924(5)
H19 H 0.7932 0.1410 0.2286
N2 N 0.1476(5) 0.4737(3) 0.1504(2)
C26 C 0.2501(7) 0.4632(5) 0.2021(3)
H20 H 0.3338 0.4506 0.1913
C27 C 0.2417(7) 0.4696(6) 0.2711(3)
H21 H 0.3195 0.4633 0.3064
C28 C 0.1183(6) 0.4854(4) 0.2880(3)
C29 C 0.0107(6) 0.4950(4) 0.2336(3)
H22 H -0.0759 0.5057 0.2424
C30 C 0.0295(6) 0.4889(3) 0.1665(3)
H23 H -0.0457 0.4960 0.1302
C31 C 0.0980(7) 0.4899(4) 0.3567(3)
C32 C 0.0676(6) 0.4946(4) 0.4130(3)
Pt2 Pt 0.0000 0.5000 0.5000
P2 P -0.19791(15) 0.41152(9) 0.43747(7)
C33 C -0.2671(6) 0.4369(4) 0.3528(3)
C34 C -0.3158(9) 0.3836(5) 0.2921(3)
H24 H -0.3125 0.3322 0.2931
C35 C -0.3696(9) 0.4088(7) 0.2299(4)
H25 H -0.4027 0.3731 0.1884
C36 C -0.3768(8) 0.4787(7) 0.2257(4)
H26 H -0.4118 0.4933 0.1820
C37 C -0.3327(9) 0.5310(6) 0.2858(5)
H27 H -0.3415 0.5815 0.2837
C38 C -0.2751(8) 0.5104(5) 0.3498(4)
H28 H -0.2419 0.5470 0.3907
C39 C -0.3543(6) 0.3938(4) 0.4736(3)
C40 C -0.4835(7) 0.4126(5) 0.4441(4)
H29 H -0.4923 0.4361 0.4038
C41 C -0.6001(9) 0.3969(5) 0.4737(5)
H30 H -0.6877 0.4105 0.4540
C42 C -0.5882(9) 0.3617(5) 0.5312(5)
H31 H -0.6679 0.3504 0.5510
C43 C -0.4637(9) 0.3435(5) 0.5592(4)
H32 H -0.4571 0.3186 0.5987
C44 C -0.3466(9) 0.3595(5) 0.5330(4)
H33 H -0.2590 0.3473 0.5551
C45 C -0.1582(7) 0.3189(4) 0.4216(3)
C46 C -0.0161(9) 0.3117(5) 0.4348(5)
H34 H 0.0598 0.3546 0.4502
C47 C 0.0136(12) 0.2372(6) 0.4243(7)
H35 H 0.1097 0.2305 0.4358
C48 C -0.0973(14) 0.1760(6) 0.3979(7)
H36 H -0.0780 0.1274 0.3884
C49 C -0.2333(13) 0.1859(5) 0.3857(6)
H37 H -0.3092 0.1434 0.3672
C50 C -0.2667(9) 0.2549(5) 0.3989(5)
H38 H -0.3642 0.2589 0.3926
O1 O 0.2434(4) 0.4492(2) -0.07285(19)
C51 C 0.1872(7) 0.3783(4) -0.1193(3)
H39 H 0.2399 0.3407 -0.1023
H40 H 0.1983 0.3847 -0.1661
H41 H 0.0853 0.3617 -0.1210
Cd1A Cd -0.18606(4) 0.525444(18) -0.039406(16)
Cl1A Cl -0.07791(13) 0.40508(7) -0.01832(6)
Cl2A Cl -0.43799(14) 0.44480(7) -0.07742(7)
N1A N -0.2661(5) 0.6390(2) -0.0513(2)
C1A C -0.3994(6) 0.6441(3) -0.0483(3)
H1A H -0.4660 0.5996 -0.0481
C2A C -0.4444(6) 0.7118(3) -0.0454(3)
H2A H -0.5408 0.7129 -0.0445
C3A C -0.3484(7) 0.7782(3) -0.0439(3)
C4A C -0.2124(8) 0.7716(4) -0.0490(5)
H3A H -0.1445 0.8149 -0.0508
C5A C -0.1745(8) 0.7022(4) -0.0515(5)
H4A H -0.0792 0.6995 -0.0534
C6A C -0.3916(7) 0.8487(3) -0.0363(3)
C7A C -0.4298(6) 0.9067(3) -0.0238(3)
N2A N -0.1476(5) 0.5263(3) -0.1504(2)
C26A C -0.2501(7) 0.5368(5) -0.2021(3)
H20A H -0.3338 0.5494 -0.1913
C27A C -0.2417(7) 0.5304(6) -0.2711(3)
H21A H -0.3195 0.5367 -0.3064
C28A C -0.1183(6) 0.5146(4) -0.2880(3)
C29A C -0.0107(6) 0.5050(4) -0.2336(3)
H22A H 0.0759 0.4943 -0.2424
C30A C -0.0295(6) 0.5111(3) -0.1665(3)
H23A H 0.0457 0.5040 -0.1302
C31A C -0.0980(7) 0.5101(4) -0.3567(3)
C32A C -0.0676(6) 0.5054(4) -0.4130(3)
O1A O -0.2434(4) 0.5508(2) 0.07285(19)
C51A C -0.1872(7) 0.6217(4) 0.1193(3)
H39A H -0.2399 0.6593 0.1023
H40A H -0.1983 0.6153 0.1661
H41A H -0.0853 0.6383 0.1210
P1A P 0.31720(17) -0.03488(8) -0.10028(8)
C8A C 0.3761(8) -0.0061(3) -0.1750(3)
C9A C 0.2805(11) 0.0062(5) -0.2343(4)
H5A H 0.1817 0.0021 -0.2355
C10A C 0.3321(13) 0.0243(6) -0.2910(5)
H6A H 0.2675 0.0330 -0.3309
C11A C 0.4683(13) 0.0297(5) -0.2913(5)
H7A H 0.5006 0.0420 -0.3310
C12A C 0.5649(12) 0.0172(6) -0.2333(6)
H8A H 0.6628 0.0205 -0.2338
C13A C 0.5193(9) -0.0002(4) -0.1749(4)
H9A H 0.5857 -0.0079 -0.1352
C14A C 0.1551(7) 0.0026(4) -0.1005(4)
C15A C 0.0345(7) -0.0402(4) -0.0900(4)
H10A H 0.0324 -0.0913 -0.0850
C16A C -0.0847(8) -0.0101(5) -0.0865(4)
H11A H -0.1667 -0.0404 -0.0780
C17A C -0.0856(9) 0.0636(6) -0.0951(5)
H12A H -0.1680 0.0839 -0.0934
C18A C 0.0343(10) 0.1068(5) -0.1063(6)
H13A H 0.0345 0.1574 -0.1125
C19A C 0.1567(9) 0.0777(4) -0.1085(5)
H14A H 0.2398 0.1084 -0.1155
C20A C 0.2472(7) -0.1358(3) -0.1237(4)
C21A C 0.2393(8) -0.1778(4) -0.0710(5)
H15A H 0.2729 -0.1551 -0.0235
C22A C 0.1796(10) -0.2557(5) -0.0895(7)
H16A H 0.1744 -0.2856 -0.0539
C23A C 0.1301(12) -0.2881(5) -0.1566(8)
H17A H 0.0889 -0.3403 -0.1677
C24A C 0.1385(12) -0.2471(5) -0.2086(7)
H18A H 0.1037 -0.2705 -0.2558
C25A C 0.1991(9) -0.1697(4) -0.1924(5)
H19A H 0.2068 -0.1410 -0.2286
P2A P 0.19791(15) 0.58848(9) 0.56253(7)
C33A C 0.2671(6) 0.5631(4) 0.6472(3)
C34A C 0.3158(9) 0.6164(5) 0.7079(3)
H24A H 0.3125 0.6678 0.7069
C35A C 0.3696(9) 0.5912(7) 0.7701(4)
H25A H 0.4027 0.6269 0.8116
C36A C 0.3768(8) 0.5213(7) 0.7743(4)
H26A H 0.4118 0.5067 0.8180
C37A C 0.3327(9) 0.4690(6) 0.7142(5)
H27A H 0.3415 0.4185 0.7163
C38A C 0.2751(8) 0.4896(5) 0.6502(4)
H28A H 0.2419 0.4530 0.6093
C39A C 0.3543(6) 0.6062(4) 0.5264(3)
C40A C 0.4835(7) 0.5874(5) 0.5559(4)
H29A H 0.4923 0.5639 0.5962
C41A C 0.6001(9) 0.6031(5) 0.5263(5)
H30A H 0.6877 0.5895 0.5460
C42A C 0.5882(9) 0.6383(5) 0.4688(5)
H31A H 0.6679 0.6496 0.4490
C43A C 0.4637(9) 0.6565(5) 0.4408(4)
H32A H 0.4571 0.6814 0.4013
C44A C 0.3466(9) 0.6405(5) 0.4670(4)
H33A H 0.2590 0.6527 0.4449
C45A C 0.1582(7) 0.6811(4) 0.5784(3)
C46A C 0.0161(9) 0.6883(5) 0.5652(5)
H34A H -0.0598 0.6454 0.5498
C47A C -0.0136(12) 0.7628(6) 0.5757(7)
H35A H -0.1097 0.7695 0.5642
C48A C 0.0973(14) 0.8240(6) 0.6021(7)
H36A H 0.0780 0.8726 0.6116
C49A C 0.2333(13) 0.8141(5) 0.6143(6)
H37A H 0.3092 0.8566 0.6328
C50A C 0.2667(9) 0.7451(5) 0.6011(5)
H38A H 0.3642 0.7411 0.6074
C7A_2 C 0.5702(6) -0.0933(3) -0.0238(3)
Pt1_2 Pt -0.5000 1.0000 0.0000
C32A_2 C -0.0676(6) 0.5054(4) 0.5870(3)
Pt2_2 Pt 0.0000 0.5000 -0.5000
Cl3 Cl 0.1300(4) 0.0804(2) 0.2847(2)
Cl4 Cl 0.3425(4) 0.1937(4) 0.3779(2)
C52 C 0.2077(18) 0.1768(9) 0.2971(10)
H42 H 0.1317 0.2039 0.3063
C53 C 0.245(2) 0.2009(9) 0.2359(12)
H43 H 0.1653 0.1814 0.1931
Cl5 Cl 0.4152(8) 0.1812(3) 0.2243(2)
Cl6 Cl 0.2746(7) 0.2980(3) 0.2577(5)
Cl7 Cl 0.2809(9) 0.6524(2) 0.2369(2)
Cl8 Cl 0.5352(7) 0.7728(3) 0.2685(3)
C54 C 0.4230(17) 0.7004(8) 0.2073(8)
H44 H 0.4793 0.6644 0.1911
C55 C 0.3432(13) 0.7280(6) 0.1480(7)
H45 H 0.2847 0.6834 0.1137
Cl9 Cl 0.2270(5) 0.7848(3) 0.1675(4)
Cl10 Cl 0.4603(8) 0.7833(2) 0.1039(3)
Cl11 Cl -0.0120(7) 0.6768(3) 0.3543(4)
Cl12 Cl -0.1192(12) 0.8184(6) 0.4006(4)
C56 C 0.017(4) 0.7769(11) 0.3818(19)
H46 H 0.1101 0.7967 0.4171
C57 C 0.014(4) 0.8073(15) 0.3191(16)
H47 H 0.0878 0.7832 0.3029
Cl13 Cl -0.1216(10) 0.7780(5) 0.2476(5)
Cl14 Cl 0.0779(15) 0.8988(5) 0.3087(7)
loop_
_geom_bond_atom_site_label_1
_geom_bond_atom_site_label_2
_geom_bond_site_symmetry_1
_geom_bond_site_symmetry_2
Cd1 Cl1 1_555 1_555
Cl1 Cd1A 1_555 1_555
Cl2 Cd1 1_555 1_555
N1 Cd1 1_555 1_555
C1 N1 1_555 1_555
H1 C1 1_555 1_555
C2 C1 1_555 1_555
H2 C2 1_555 1_555
C3 C2 1_555 1_555
C4 C3 1_555 1_555
H3 C4 1_555 1_555
C5 N1 1_555 1_555
H4 C5 1_555 1_555
C6 C3 1_555 1_555
C7 C6 1_555 1_555
Pt1 C7 1_555 1_555
P1 Pt1 1_555 1_555
C8 P1 1_555 1_555
C9 C8 1_555 1_555
H5 C9 1_555 1_555
C10 C9 1_555 1_555
H6 C10 1_555 1_555
C11 C10 1_555 1_555
H7 C11 1_555 1_555
C12 C11 1_555 1_555
H8 C12 1_555 1_555
C13 C8 1_555 1_555
H9 C13 1_555 1_555
C14 P1 1_555 1_555
C15 C14 1_555 1_555
H10 C15 1_555 1_555
C16 C15 1_555 1_555
H11 C16 1_555 1_555
C17 C16 1_555 1_555
H12 C17 1_555 1_555
C18 C17 1_555 1_555
H13 C18 1_555 1_555
C19 C14 1_555 1_555
H14 C19 1_555 1_555
C20 P1 1_555 1_555
C21 C20 1_555 1_555
H15 C21 1_555 1_555
C22 C21 1_555 1_555
H16 C22 1_555 1_555
C23 C22 1_555 1_555
H17 C23 1_555 1_555
C24 C23 1_555 1_555
H18 C24 1_555 1_555
C25 C20 1_555 1_555
H19 C25 1_555 1_555
N2 Cd1 1_555 1_555
C26 N2 1_555 1_555
H20 C26 1_555 1_555
C27 C26 1_555 1_555
H21 C27 1_555 1_555
C28 C27 1_555 1_555
C29 C28 1_555 1_555
H22 C29 1_555 1_555
C30 N2 1_555 1_555
H23 C30 1_555 1_555
C31 C28 1_555 1_555
C32 C31 1_555 1_555
Pt2 C32 1_555 1_555
P2 Pt2 1_555 1_555
C33 P2 1_555 1_555
C34 C33 1_555 1_555
H24 C34 1_555 1_555
C35 C34 1_555 1_555
H25 C35 1_555 1_555
C36 C35 1_555 1_555
H26 C36 1_555 1_555
C37 C36 1_555 1_555
H27 C37 1_555 1_555
C38 C33 1_555 1_555
H28 C38 1_555 1_555
C39 P2 1_555 1_555
C40 C39 1_555 1_555
H29 C40 1_555 1_555
C41 C40 1_555 1_555
H30 C41 1_555 1_555
C42 C41 1_555 1_555
H31 C42 1_555 1_555
C43 C42 1_555 1_555
H32 C43 1_555 1_555
C44 C39 1_555 1_555
H33 C44 1_555 1_555
C45 P2 1_555 1_555
C46 C45 1_555 1_555
H34 C46 1_555 1_555
C47 C46 1_555 1_555
H35 C47 1_555 1_555
C48 C47 1_555 1_555
H36 C48 1_555 1_555
C49 C48 1_555 1_555
H37 C49 1_555 1_555
C50 C45 1_555 1_555
H38 C50 1_555 1_555
O1 Cd1 1_555 1_555
C51 O1 1_555 1_555
H39 C51 1_555 1_555
H40 C51 1_555 1_555
H41 C51 1_555 1_555
Cl3 C52 1_555 1_555
Cl4 C52 1_555 1_555
C52 H42 1_555 1_555
C53 C52 1_555 1_555
H43 C53 1_555 1_555
Cl5 C53 1_555 1_555
Cl6 C53 1_555 1_555
Cl7 C54 1_555 1_555
Cl8 C54 1_555 1_555
C54 H44 1_555 1_555
C55 C54 1_555 1_555
H45 C55 1_555 1_555
Cl9 C55 1_555 1_555
Cl10 C55 1_555 1_555
Cl11 C56 1_555 1_555
Cl12 C56 1_555 1_555
C56 H46 1_555 1_555
C57 C56 1_555 1_555
H47 C57 1_555 1_555
Cl13 C57 1_555 1_555
Cl14 C57 1_555 1_555
Cd1A Cl1A 1_555 1_555
Cl1A Cd1 1_555 1_555
Cl2A Cd1A 1_555 1_555
N1A Cd1A 1_555 1_555
C1A N1A 1_555 1_555
H1A C1A 1_555 1_555
C2A C1A 1_555 1_555
H2A C2A 1_555 1_555
C3A C2A 1_555 1_555
C4A C3A 1_555 1_555
H3A C4A 1_555 1_555
C5A N1A 1_555 1_555
H4A C5A 1_555 1_555
C6A C3A 1_555 1_555
C7A C6A 1_555 1_555
N2A Cd1A 1_555 1_555
C26A N2A 1_555 1_555
H20A C26A 1_555 1_555
C27A C26A 1_555 1_555
H21A C27A 1_555 1_555
C28A C27A 1_555 1_555
C29A C28A 1_555 1_555
H22A C29A 1_555 1_555
C30A N2A 1_555 1_555
H23A C30A 1_555 1_555
C31A C28A 1_555 1_555
C32A C31A 1_555 1_555
O1A Cd1A 1_555 1_555
C51A O1A 1_555 1_555
H39A C51A 1_555 1_555
H40A C51A 1_555 1_555
H41A C51A 1_555 1_555
P1A Pt1 1_555 1_555
C8A P1A 1_555 1_555
C9A C8A 1_555 1_555
H5A C9A 1_555 1_555
C10A C9A 1_555 1_555
H6A C10A 1_555 1_555
C11A C10A 1_555 1_555
H7A C11A 1_555 1_555
C12A C11A 1_555 1_555
H8A C12A 1_555 1_555
C13A C8A 1_555 1_555
H9A C13A 1_555 1_555
C14A P1A 1_555 1_555
C15A C14A 1_555 1_555
H10A C15A 1_555 1_555
C16A C15A 1_555 1_555
H11A C16A 1_555 1_555
C17A C16A 1_555 1_555
H12A C17A 1_555 1_555
C18A C17A 1_555 1_555
H13A C18A 1_555 1_555
C19A C14A 1_555 1_555
H14A C19A 1_555 1_555
C20A P1A 1_555 1_555
C21A C20A 1_555 1_555
H15A C21A 1_555 1_555
C22A C21A 1_555 1_555
H16A C22A 1_555 1_555
C23A C22A 1_555 1_555
H17A C23A 1_555 1_555
C24A C23A 1_555 1_555
H18A C24A 1_555 1_555
C25A C20A 1_555 1_555
H19A C25A 1_555 1_555
P2A Pt2 1_555 1_555
C33A P2A 1_555 1_555
C34A C33A 1_555 1_555
H24A C34A 1_555 1_555
C35A C34A 1_555 1_555
H25A C35A 1_555 1_555
C36A C35A 1_555 1_555
H26A C36A 1_555 1_555
C37A C36A 1_555 1_555
H27A C37A 1_555 1_555
C38A C33A 1_555 1_555
H28A C38A 1_555 1_555
C39A P2A 1_555 1_555
C40A C39A 1_555 1_555
H29A C40A 1_555 1_555
C41A C40A 1_555 1_555
H30A C41A 1_555 1_555
C42A C41A 1_555 1_555
H31A C42A 1_555 1_555
C43A C42A 1_555 1_555
H32A C43A 1_555 1_555
C44A C39A 1_555 1_555
H33A C44A 1_555 1_555
C45A P2A 1_555 1_555
C46A C45A 1_555 1_555
H34A C46A 1_555 1_555
C47A C46A 1_555 1_555
H35A C47A 1_555 1_555
C48A C47A 1_555 1_555
H36A C48A 1_555 1_555
C49A C48A 1_555 1_555
H37A C49A 1_555 1_555
C50A C45A 1_555 1_555
H38A C50A 1_555 1_555
C7A_2 Pt1 1_555 1_555
Pt1_2 C7A 1_555 1_555
C32A_2 Pt2 1_555 1_555
Pt2_2 C32A 1_555 1_555
C4 C5 1_555 1_555
C12 C13 1_555 1_555
C18 C19 1_555 1_555
C24 C25 1_555 1_555
C29 C30 1_555 1_555
C37 C38 1_555 1_555
C43 C44 1_555 1_555
C49 C50 1_555 1_555
C4A C5A 1_555 1_555
C29A C30A 1_555 1_555
C12A C13A 1_555 1_555
C18A C19A 1_555 1_555
C24A C25A 1_555 1_555
C37A C38A 1_555 1_555
C43A C44A 1_555 1_555
C49A C50A 1_555 1_555

#END
