
#######################################################################
#
#                 Cambridge Crystallographic Data Centre
#                                CCDC 
#
#######################################################################
#
# If this CIF has been generated from an entry in the Cambridge 
# Structural Database, then it will include bibliographic, chemical, 
# crystal, experimental, refinement or atomic coordinate data resulting 
# from the CCDC's data processing and validation procedures.
#
#######################################################################

data_AHEBAS
_symmetry_cell_setting           monoclinic
_symmetry_space_group_name_H-M   'C 2'
_symmetry_Int_Tables_number      5
_space_group_name_Hall           'C 2y'
loop_
_symmetry_equiv_pos_site_id
_symmetry_equiv_pos_as_xyz
1 x,y,z
2 -x,y,-z
3 1/2+x,1/2+y,z
4 1/2-x,1/2+y,-z
_cell_length_a                   20.7929(8)
_cell_length_b                   12.4871(7)
_cell_length_c                   19.5025(9)
_cell_angle_alpha                90
_cell_angle_beta                 97.329(4)
_cell_angle_gamma                90
_cell_volume                     5022.32
loop_
_atom_site_label
_atom_site_type_symbol
_atom_site_fract_x
_atom_site_fract_y
_atom_site_fract_z
Cu1 Cu 0.30278(4) 0.23703(8) 0.18793(5)
Cu2 Cu 0.39069(4) 0.37236(8) 0.14997(5)
Cu3 Cu 0.51996(4) 0.83561(8) 0.43707(5)
O1 O 0.4611(2) 0.7177(4) 0.4095(2)
O2 O 0.0567(2) 0.4332(4) 0.5792(2)
O3 O 0.4531(2) 0.2688(5) 0.1955(2)
O4 O 0.3770(2) 0.4362(4) 0.2408(3)
O5 O 0.3090(2) 0.3150(4) 0.2748(2)
O6 O 0.0779(2) 0.4517(4) 0.4695(2)
N1 N 0.5561(2) 0.8278(6) 0.3410(3)
O7 O 0.41918(19) 0.7315(4) 0.5102(2)
O8 O 0.61821(19) 0.2781(4) -0.0677(2)
O9 O 0.8177(2) -0.0412(5) 0.1080(3)
O10 O 0.3796(2) 0.1494(4) 0.2216(3)
O11 O 0.7438(2) -0.1493(4) 0.1488(2)
O12 O 0.2351(3) 0.1146(5) 0.2105(4)
N2 N 0.1927(2) 0.5594(5) 0.5124(3)
O13 O 0.6987(2) 0.1734(5) -0.0970(2)
O14 O 0.2194(2) 0.3838(5) 0.5064(3)
N3 N 0.5456(3) 0.1072(6) 0.2040(3)
C1 C 0.4368(3) 0.1794(6) 0.2160(3)
C2 C 0.6566(3) 0.1350(6) 0.0077(3)
N4 N 0.4685(3) 0.4635(6) 0.1161(3)
C3 C 0.4209(3) 0.6912(6) 0.4506(4)
C4 C 0.2860(3) 0.4434(6) 0.3874(4)
H1 H 0.2583 0.3857 0.3763
C5 C 0.6006(3) 0.0807(7) 0.1030(4)
C6 C 0.0891(3) 0.4683(6) 0.5345(4)
C7 C 0.6025(3) 0.1417(7) 0.0429(4)
H2 H 0.5680 0.1861 0.0267
C8 C 0.5410(3) 0.0813(7) 0.1384(4)
C9 C 0.6564(3) 0.2011(6) -0.0567(4)
O15 O 0.4871(3) 0.0545(6) 0.1057(3)
C10 C 0.4901(3) 0.1014(8) 0.2434(4)
H3 H 0.4729 0.0283 0.2421
C11 C 0.2782(3) 0.5062(7) 0.4449(4)
C12 C 0.3221(3) 0.5856(7) 0.4636(4)
H4 H 0.3176 0.6272 0.5023
C13 C 0.3788(3) 0.5482(6) 0.3667(4)
H5 H 0.4115 0.5639 0.3399
C14 C 0.3423(3) 0.3987(6) 0.2826(3)
C15 C 0.7060(3) 0.0075(7) 0.0906(4)
C16 C 0.3349(3) 0.4656(6) 0.3461(3)
C17 C 0.6506(3) 0.0137(7) 0.1241(4)
H6 H 0.6480 -0.0298 0.1624
C18 C 0.2268(3) 0.4772(7) 0.4904(4)
C19 C 0.7601(3) -0.0668(7) 0.1180(4)
C20 C 0.7079(3) 0.0713(7) 0.0314(4)
H7 H 0.7443 0.0700 0.0083
C21 C 0.1475(3) 0.5378(6) 0.5621(4)
H8 H 0.1707 0.5044 0.6035
C22 C 0.3742(3) 0.6062(6) 0.4255(4)
C23 C 0.6189(3) 0.8198(8) 0.3383(4)
H9 H 0.6473 0.8249 0.3791
C24 C 0.6029(3) 0.1556(9) 0.2473(4)
H10 H 0.6429 0.1213 0.2385
H11 H 0.6058 0.2318 0.2387
C25 C 0.1908(4) 0.6713(7) 0.4898(5)
H12 H 0.1904 0.6764 0.4401
H13 H 0.2276 0.7110 0.5125
C26 C 0.6018(4) 0.7973(9) 0.2160(5)
H14 H 0.6174 0.7858 0.1740
C27 C 0.5157(4) 0.8201(8) 0.2824(4)
H15 H 0.4713 0.8234 0.2846
C28 C 0.5196(4) 0.1300(10) 0.3177(4)
H16 H 0.5032 0.1985 0.3313
H17 H 0.5086 0.0758 0.3499
C29 C 0.1262(4) 0.6484(8) 0.5795(6)
H18 H 0.1554 0.6792 0.6171
H19 H 0.0826 0.6475 0.5923
C30 C 0.6442(4) 0.8041(9) 0.2759(5)
H20 H 0.6887 0.7983 0.2751
C31 C 0.5176(4) 0.4068(10) 0.0962(5)
H21 H 0.5160 0.3326 0.0996
C32 C 0.1286(4) 0.7115(9) 0.5113(6)
H22 H 0.0919 0.6944 0.4772
H23 H 0.1300 0.7882 0.5193
C33 C 0.5714(5) 0.4527(15) 0.0706(7)
H24 H 0.6043 0.4102 0.0571
C34 C 0.5368(5) 0.8075(9) 0.2185(4)
H25 H 0.5075 0.8061 0.1782
C35 C 0.4705(5) 0.5691(10) 0.1097(6)
H26 H 0.4379 0.6105 0.1248
C36 C 0.5221(8) 0.6212(13) 0.0796(8)
H27 H 0.5197 0.6940 0.0697
C37 C 0.5896(5) 0.1350(18) 0.3180(6)
H28 H 0.6092 0.0678 0.3345
H29 H 0.6077 0.1918 0.3484
C38 C 0.5738(7) 0.5640(14) 0.0660(8)
H30 H 0.6104 0.5981 0.0538
Cu1A Cu 0.69722(4) 0.23703(8) -0.18793(5)
Cu1B Cu 0.80278(4) -0.26297(8) 0.18793(5)
Cu2A Cu 0.60931(4) 0.37236(8) -0.14997(5)
Cu2B Cu 0.89069(4) -0.12764(8) 0.14997(5)
Cu3A Cu 0.48004(4) 0.83561(8) 0.56293(5)
Cu3B Cu 0.01996(4) 0.33561(8) 0.43707(5)
Cu3C Cu -0.01996(4) 0.33561(8) 0.56293(5)
O2C O 0.4433(2) 0.9332(4) 0.4208(2)
O6B O 0.5779(2) 0.9517(4) 0.4695(2)
O7A O 0.58082(19) 0.7315(4) 0.4898(2)
O8A O 0.38179(19) 0.2781(4) 0.0677(2)
O9B O 0.3177(2) 0.4588(5) 0.1080(3)
O11B O 0.2438(2) 0.3507(4) 0.1488(2)
O13A O 0.3013(2) 0.1734(5) 0.0970(2)
O16 O 0.6500(5) 0.5232(11) 0.2906(5)
C39 C 0.5449(10) 0.494(3) 0.3140(15)
H31 H 0.5145 0.4354 0.3050
H32 H 0.5205 0.5596 0.3178
C40 C 0.5823(9) 0.503(2) 0.2607(13)
H33 H 0.5666 0.5614 0.2303
H34 H 0.5797 0.4373 0.2339
C41 C 0.6540(10) 0.509(2) 0.3601(8)
H35 H 0.6672 0.5755 0.3839
H36 H 0.6856 0.4544 0.3752
C42 C 0.5865(11) 0.476(2) 0.3761(9)
H37 H 0.5861 0.4005 0.3889
H38 H 0.5734 0.5181 0.4136
O17 O 0.5000 -0.1075(15) 0.0000
loop_
_geom_bond_atom_site_label_1
_geom_bond_atom_site_label_2
_geom_bond_site_symmetry_1
_geom_bond_site_symmetry_2
Cu1 Cu2 1_555 1_555
Cu2 O3 1_555 1_555
Cu3 O1 1_555 1_555
O1 C3 1_555 1_555
O2 C6 1_555 1_555
O3 C1 1_555 1_555
O4 Cu2 1_555 1_555
O5 Cu1 1_555 1_555
O6 C6 1_555 1_555
N1 Cu3 1_555 1_555
O7 C3 1_555 1_555
O8 C9 1_555 1_555
O9 C19 1_555 1_555
O10 Cu1 1_555 1_555
O11 C19 1_555 1_555
O12 Cu1 1_555 1_555
N2 C18 1_555 1_555
O13 C9 1_555 1_555
O14 C18 1_555 1_555
N3 C8 1_555 1_555
C1 O10 1_555 1_555
C2 C7 1_555 1_555
N4 Cu2 1_555 1_555
C3 C22 1_555 1_555
C4 H1 1_555 1_555
C5 C7 1_555 1_555
C6 C21 1_555 1_555
C7 H2 1_555 1_555
C8 C5 1_555 1_555
C9 C2 1_555 1_555
O15 C8 1_555 1_555
C10 N3 1_555 1_555
H3 C10 1_555 1_555
C11 C4 1_555 1_555
C12 C11 1_555 1_555
H4 C12 1_555 1_555
C13 H5 1_555 1_555
C14 O4 1_555 1_555
C15 C17 1_555 1_555
C16 C4 1_555 1_555
C17 C5 1_555 1_555
H6 C17 1_555 1_555
C18 C11 1_555 1_555
C19 C15 1_555 1_555
C20 C2 1_555 1_555
H7 C20 1_555 1_555
C21 N2 1_555 1_555
H8 C21 1_555 1_555
C22 C12 1_555 1_555
C23 N1 1_555 1_555
H9 C23 1_555 1_555
C24 N3 1_555 1_555
H10 C24 1_555 1_555
H11 C24 1_555 1_555
C25 N2 1_555 1_555
H12 C25 1_555 1_555
H13 C25 1_555 1_555
C26 H14 1_555 1_555
C27 N1 1_555 1_555
H15 C27 1_555 1_555
C28 C10 1_555 1_555
H16 C28 1_555 1_555
H17 C28 1_555 1_555
C29 C21 1_555 1_555
H18 C29 1_555 1_555
H19 C29 1_555 1_555
C30 C23 1_555 1_555
H20 C30 1_555 1_555
C31 N4 1_555 1_555
H21 C31 1_555 1_555
C32 C25 1_555 1_555
H22 C32 1_555 1_555
H23 C32 1_555 1_555
C33 C31 1_555 1_555
H24 C33 1_555 1_555
C34 C26 1_555 1_555
H25 C34 1_555 1_555
C35 N4 1_555 1_555
H26 C35 1_555 1_555
C36 C35 1_555 1_555
H27 C36 1_555 1_555
C37 C24 1_555 1_555
H28 C37 1_555 1_555
H29 C37 1_555 1_555
C38 C33 1_555 1_555
H30 C38 1_555 1_555
O16 C40 1_555 1_555
C39 H31 1_555 1_555
H32 C39 1_555 1_555
C40 C39 1_555 1_555
H33 C40 1_555 1_555
H34 C40 1_555 1_555
C41 O16 1_555 1_555
H35 C41 1_555 1_555
H36 C41 1_555 1_555
C42 C39 1_555 1_555
H37 C42 1_555 1_555
H38 C42 1_555 1_555
Cu1A O13 1_555 1_555
Cu1B O11 1_555 1_555
Cu2A O8 1_555 1_555
Cu2B O9 1_555 1_555
Cu3A Cu3 1_555 1_555
Cu3B O6 1_555 1_555
Cu3C O2 1_555 1_555
O2C Cu3 1_555 1_555
O6B Cu3 1_555 1_555
O7A Cu3 1_555 1_555
O8A Cu2 1_555 1_555
O9B Cu2 1_555 1_555
O11B Cu1 1_555 1_555
O13A Cu1 1_555 1_555
O5 C14 1_555 1_555
O7 Cu3A 1_555 1_555
C1 C10 1_555 1_555
C13 C16 1_555 1_555
C13 C22 1_555 1_555
C14 C16 1_555 1_555
C15 C20 1_555 1_555
C26 C30 1_555 1_555
C27 C34 1_555 1_555
C28 C37 1_555 1_555
C29 C32 1_555 1_555
C36 C38 1_555 1_555
C41 C42 1_555 1_555
Cu1A Cu2A 1_555 1_555
Cu1B Cu2B 1_555 1_555
Cu3B Cu3C 1_555 1_555

#END
