
#######################################################################
#
#                 Cambridge Crystallographic Data Centre
#                                CCDC 
#
#######################################################################
#
# If this CIF has been generated from an entry in the Cambridge 
# Structural Database, then it will include bibliographic, chemical, 
# crystal, experimental, refinement or atomic coordinate data resulting 
# from the CCDC's data processing and validation procedures.
#
#######################################################################

data_AHEFAW
_symmetry_cell_setting           monoclinic
_symmetry_space_group_name_H-M   'P 21/n'
_symmetry_Int_Tables_number      14
_space_group_name_Hall           '-P 2yn'
loop_
_symmetry_equiv_pos_site_id
_symmetry_equiv_pos_as_xyz
1 x,y,z
2 1/2-x,1/2+y,1/2-z
3 -x,-y,-z
4 1/2+x,1/2-y,1/2+z
_cell_length_a                   7.4300(15)
_cell_length_b                   24.095(5)
_cell_length_c                   7.5930(15)
_cell_angle_alpha                90
_cell_angle_beta                 91.27(3)
_cell_angle_gamma                90
_cell_volume                     1359.01
loop_
_atom_site_label
_atom_site_type_symbol
_atom_site_fract_x
_atom_site_fract_y
_atom_site_fract_z
Mn1 Mn 0.56903(5) 0.22314(2) 0.89895(4)
O1 O 0.7988(3) 0.28188(7) 0.9016(2)
H1 H 0.862(3) 0.2740(10) 0.990(2)
H2 H 0.845(4) 0.2733(10) 0.8068(19)
O2 O 0.4039(2) 0.26636(7) 1.0848(2)
O3 O 0.1878(2) 0.32060(7) 1.1812(2)
O4 O 0.4141(2) 0.27030(7) 0.7117(2)
O5 O 0.1867(2) 0.32247(7) 0.6172(2)
N1 N 0.3644(3) 0.15190(8) 0.8880(3)
C1 C 0.2977(3) 0.30685(9) 1.0674(3)
C2 C 0.3020(3) 0.30895(9) 0.7320(3)
C3 C 0.3075(3) 0.34313(9) 0.9013(3)
C4 C 0.1857(4) 0.39463(11) 0.9051(3)
H3 H 0.1467 0.4074 0.7893
H4 H 0.0844 0.391 0.9826
C5 C 0.3422(5) 0.42786(12) 0.9847(4)
H5 H 0.3388 0.4313 1.1118
H6 H 0.3588 0.4638 0.9299
C6 C 0.4729(4) 0.38341(11) 0.9212(3)
H7 H 0.5613 0.3719 1.0097
H8 H 0.5294 0.3923 0.8109
C7 C 0.1888(4) 0.15938(11) 0.9101(3)
H9 H 0.1467 0.1955 0.9207
C8 C 0.0664(4) 0.11689(12) 0.9181(3)
H10 H -0.0548 0.1246 0.9338
C9 C 0.1237(4) 0.06274(12) 0.9029(4)
C10 C 0.3048(4) 0.05483(12) 0.8781(5)
H11 H 0.35 0.0191 0.8663
C11 C 0.4190(4) 0.09962(12) 0.8707(4)
H12 H 0.5406 0.093 0.8527
C12 C -0.0063(5) 0.01499(14) 0.9168(4)
H13 H -0.1279 0.0291 0.9013
H14 H 0.0152 -0.0108 0.8215
N1B N -0.3644(3) -0.15190(8) 1.1120(3)
C7B C -0.1888(4) -0.15938(11) 1.0899(3)
H9B H -0.1467 -0.1955 1.0793
C8B C -0.0664(4) -0.11689(12) 1.0819(3)
H10B H 0.0548 -0.1246 1.0662
C9B C -0.1237(4) -0.06274(12) 1.0971(4)
C10B C -0.3048(4) -0.05483(12) 1.1219(5)
H11B H -0.35 -0.0191 1.1337
C11B C -0.4190(4) -0.09962(12) 1.1293(4)
H12B H -0.5406 -0.093 1.1473
C12B C 0.0063(5) -0.01499(14) 1.0832(4)
H13B H 0.1279 -0.0291 1.0987
H14B H -0.0152 0.0108 1.1785
Mn1B Mn -0.56903(5) -0.22314(2) 1.10105(4)
O1B O -0.7988(3) -0.28188(7) 1.0984(2)
H1B H -0.862(3) -0.2740(10) 1.010(2)
H2B H -0.845(4) -0.2733(10) 1.1932(19)
O2B O -0.4039(2) -0.26636(7) 0.9152(2)
O3B O -0.1878(2) -0.32060(7) 0.8188(2)
O4B O -0.4141(2) -0.27030(7) 1.2883(2)
O5B O -0.1867(2) -0.32247(7) 1.3828(2)
C1B C -0.2977(3) -0.30685(9) 0.9326(3)
C2B C -0.3020(3) -0.30895(9) 1.2680(3)
C3B C -0.3075(3) -0.34313(9) 1.0987(3)
C4B C -0.1857(4) -0.39463(11) 1.0949(3)
H3B H -0.1467 -0.4074 1.2107
H4B H -0.0844 -0.391 1.0174
C5B C -0.3422(5) -0.42786(12) 1.0153(4)
H5B H -0.3388 -0.4313 0.8882
H6B H -0.3588 -0.4638 1.0701
C6B C -0.4729(4) -0.38341(11) 1.0788(3)
H7B H -0.5613 -0.3719 0.9903
H8B H -0.5294 -0.3923 1.1891
Mn1A Mn -0.06903(5) -0.27686(2) 0.60105(4)
Mn1A_2 Mn -0.06903(5) -0.27686(2) 1.60105(4)
Mn1C Mn 0.06903(5) 0.27686(2) 0.39895(4)
Mn1C_2 Mn 0.06903(5) 0.27686(2) 1.39895(4)
O3A O -0.6878(2) -0.17940(7) 1.3188(2)
O3C O 0.6878(2) 0.17940(7) 0.6812(2)
O5A O -0.6867(2) -0.17753(7) 0.8828(2)
O5C O 0.6867(2) 0.17753(7) 1.1172(2)
loop_
_geom_bond_atom_site_label_1
_geom_bond_atom_site_label_2
_geom_bond_site_symmetry_1
_geom_bond_site_symmetry_2
Mn1 O1 1_555 1_555
O1 H1 1_555 1_555
H2 O1 1_555 1_555
O2 Mn1 1_555 1_555
O3 C1 1_555 1_555
O4 Mn1 1_555 1_555
O5 C2 1_555 1_555
N1 Mn1 1_555 1_555
C1 O2 1_555 1_555
C2 O4 1_555 1_555
C3 C1 1_555 1_555
C4 C3 1_555 1_555
H3 C4 1_555 1_555
H4 C4 1_555 1_555
C5 C4 1_555 1_555
H5 C5 1_555 1_555
H6 C5 1_555 1_555
C6 C3 1_555 1_555
H7 C6 1_555 1_555
H8 C6 1_555 1_555
C7 N1 1_555 1_555
H9 C7 1_555 1_555
C8 C7 1_555 1_555
H10 C8 1_555 1_555
C9 C8 1_555 1_555
C10 C9 1_555 1_555
H11 C10 1_555 1_555
C11 N1 1_555 1_555
H12 C11 1_555 1_555
C12 C9 1_555 1_555
H13 C12 1_555 1_555
H14 C12 1_555 1_555
N1B C7B 1_555 1_555
C7B H9B 1_555 1_555
C8B C7B 1_555 1_555
H10B C8B 1_555 1_555
C9B C8B 1_555 1_555
C10B C9B 1_555 1_555
H11B C10B 1_555 1_555
C11B N1B 1_555 1_555
H12B C11B 1_555 1_555
C12B C12 1_555 1_555
H13B C12B 1_555 1_555
H14B C12B 1_555 1_555
Mn1B N1B 1_555 1_555
O1B Mn1B 1_555 1_555
H1B O1B 1_555 1_555
H2B O1B 1_555 1_555
O2B Mn1B 1_555 1_555
O3B C1B 1_555 1_555
O4B Mn1B 1_555 1_555
O5B C2B 1_555 1_555
C1B O2B 1_555 1_555
C2B O4B 1_555 1_555
C3B C1B 1_555 1_555
C4B C3B 1_555 1_555
H3B C4B 1_555 1_555
H4B C4B 1_555 1_555
C5B C4B 1_555 1_555
H5B C5B 1_555 1_555
H6B C5B 1_555 1_555
C6B C3B 1_555 1_555
H7B C6B 1_555 1_555
H8B C6B 1_555 1_555
Mn1A O3B 1_555 1_555
Mn1A_2 O5B 1_555 1_555
Mn1C O5 1_555 1_555
Mn1C_2 O3 1_555 1_555
O3A Mn1B 1_555 1_555
O3C Mn1 1_555 1_555
O5A Mn1B 1_555 1_555
O5C Mn1 1_555 1_555
C2 C3 1_555 1_555
C5 C6 1_555 1_555
C10 C11 1_555 1_555
C9B C12B 1_555 1_555
C10B C11B 1_555 1_555
C2B C3B 1_555 1_555
C5B C6B 1_555 1_555

#END
