
#######################################################################
#
#                 Cambridge Crystallographic Data Centre
#                                CCDC 
#
#######################################################################
#
# If this CIF has been generated from an entry in the Cambridge 
# Structural Database, then it will include bibliographic, chemical, 
# crystal, experimental, refinement or atomic coordinate data resulting 
# from the CCDC's data processing and validation procedures.
#
#######################################################################

data_AHEMEG
_symmetry_cell_setting           monoclinic
_symmetry_space_group_name_H-M   'P 21/c'
_symmetry_Int_Tables_number      14
_space_group_name_Hall           '-P 2ybc'
loop_
_symmetry_equiv_pos_site_id
_symmetry_equiv_pos_as_xyz
1 x,y,z
2 -x,1/2+y,1/2-z
3 -x,-y,-z
4 x,1/2-y,1/2+z
_cell_length_a                   5.9567(12)
_cell_length_b                   20.497(4)
_cell_length_c                   10.180(2)
_cell_angle_alpha                90
_cell_angle_beta                 98.40(3)
_cell_angle_gamma                90
_cell_volume                     1229.59
loop_
_atom_site_label
_atom_site_type_symbol
_atom_site_fract_x
_atom_site_fract_y
_atom_site_fract_z
Cu1 Cu 0.5000 0.0000 0.5000
C1 C 0.3233(5) 0.08618(15) 1.0696(3)
C2 C 0.3704(5) 0.06747(15) 0.9333(3)
C3 C 0.5770(5) 0.08093(17) 0.8886(3)
H1 H 0.6921 0.1031 0.9422
C4 C 0.6055(5) 0.06058(17) 0.7633(3)
H2 H 0.7428 0.0695 0.7336
C5 C 0.2061(5) 0.03380(16) 0.8497(3)
H3 H 0.0681 0.0237 0.8773
C6 C 0.2475(5) 0.01528(16) 0.7257(3)
H4 H 0.1354 -0.0071 0.6703
C7 C 0.2245(5) 0.26337(16) 0.2354(3)
H5 H 0.3704 0.2730 0.2768
C8 C -0.0764(5) 0.19193(16) 0.1993(3)
H6 H -0.1410 0.1520 0.2157
C9 C -0.2045(5) 0.23645(16) 0.1191(3)
H7 H -0.3523 0.2264 0.0817
C10 C -0.1108(5) 0.29644(15) 0.0946(3)
C11 C 0.1072(5) 0.31044(16) 0.1575(3)
H8 H 0.1724 0.3510 0.1470
C12 C -0.2458(5) 0.34495(15) 0.0015(3)
Cu2 Cu 0.35184(5) 0.127518(17) 0.31445(3)
H9 H 0.197(9) 0.063(3) 0.451(5)
N1 N 0.1385(4) 0.20402(13) 0.2547(3)
N2 N 0.4458(4) 0.02859(13) 0.6818(3)
O1 O 0.2610(4) 0.05622(12) 0.4154(3)
O2 O 0.4861(4) 0.10982(11) 1.1503(2)
O3 O 0.1277(4) 0.07772(12) 1.0965(2)
O4 O -0.1779(4) 0.40207(11) -0.0023(2)
O5 O -0.4220(4) 0.32093(11) -0.0664(2)
C1B C 0.6767(5) -0.08618(15) -0.0696(3)
C2B C 0.6296(5) -0.06747(15) 0.0667(3)
C3B C 0.4230(5) -0.08093(17) 0.1114(3)
H1B H 0.3079 -0.1031 0.0578
C4B C 0.3945(5) -0.06058(17) 0.2367(3)
H2B H 0.2572 -0.0695 0.2664
C5B C 0.7939(5) -0.03380(16) 0.1503(3)
H3B H 0.9319 -0.0237 0.1227
C6B C 0.7525(5) -0.01528(16) 0.2743(3)
H4B H 0.8646 0.0071 0.3297
C7C C 1.2245(5) 0.23663(16) 0.7354(3)
H5C H 1.3704 0.2270 0.7768
C8C C 0.9236(5) 0.30807(16) 0.6993(3)
H6C H 0.8590 0.3480 0.7157
C9C C 0.7955(5) 0.26355(16) 0.6191(3)
H7C H 0.6477 0.2736 0.5817
C10C C 0.8892(5) 0.20356(15) 0.5946(3)
C11C C 1.1072(5) 0.18956(16) 0.6575(3)
H8C H 1.1724 0.1490 0.6470
C12C C 0.7542(5) 0.15505(15) 0.5015(3)
Cu2B Cu 0.64816(5) -0.127518(17) 0.68555(3)
Cu2_2 Cu 0.35184(5) 0.127518(17) 1.31445(3)
Cu2C Cu -0.64816(5) 0.372482(17) -0.18555(3)
Cu2B_2 Cu 0.64816(5) -0.127518(17) -0.31445(3)
Cu2C_2 Cu 1.35184(5) 0.372482(17) 0.81445(3)
H9B H 0.803(9) -0.063(3) 0.549(5)
N1C N 1.1385(4) 0.29598(13) 0.7547(3)
N1B N 0.8615(4) -0.20402(13) 0.7453(3)
N2B N 0.5542(4) -0.02859(13) 0.3182(3)
O1B O 0.7390(4) -0.05622(12) 0.5846(3)
O2B O 0.5139(4) -0.10982(11) -0.1503(2)
O2_2 O 0.4861(4) 0.10982(11) 0.1503(2)
O2B_2 O 0.5139(4) -0.10982(11) 0.8497(2)
O3B O 0.8723(4) -0.07772(12) -0.0965(2)
O4C O 0.8221(4) 0.09793(11) 0.4977(2)
O5C O 0.5780(4) 0.17907(11) 0.4336(2)
O5A O 0.4220(4) -0.17907(11) 0.5664(2)
loop_
_geom_bond_atom_site_label_1
_geom_bond_atom_site_label_2
_geom_bond_site_symmetry_1
_geom_bond_site_symmetry_2
Cu1 N2 1_555 1_555
C1 C2 1_555 1_555
C2 C3 1_555 1_555
C3 H1 1_555 1_555
C4 C3 1_555 1_555
H2 C4 1_555 1_555
C5 C2 1_555 1_555
H3 C5 1_555 1_555
C6 C5 1_555 1_555
H4 C6 1_555 1_555
C7 H5 1_555 1_555
C8 H6 1_555 1_555
C9 C8 1_555 1_555
H7 C9 1_555 1_555
C10 C9 1_555 1_555
C11 C7 1_555 1_555
H8 C11 1_555 1_555
C12 C10 1_555 1_555
Cu2 N1 1_555 1_555
H9 O1 1_555 1_555
N1 C7 1_555 1_555
N2 C4 1_555 1_555
O1 Cu1 1_555 1_555
O2 C1 1_555 1_555
O3 C1 1_555 1_555
O4 C12 1_555 1_555
O5 C12 1_555 1_555
C1B C2B 1_555 1_555
C2B C3B 1_555 1_555
C3B H1B 1_555 1_555
C4B C3B 1_555 1_555
H2B C4B 1_555 1_555
C5B C2B 1_555 1_555
H3B C5B 1_555 1_555
C6B C5B 1_555 1_555
H4B C6B 1_555 1_555
C7C H5C 1_555 1_555
C8C H6C 1_555 1_555
C9C C8C 1_555 1_555
H7C C9C 1_555 1_555
C10C C9C 1_555 1_555
C11C C7C 1_555 1_555
H8C C11C 1_555 1_555
C12C C10C 1_555 1_555
Cu2B N1B 1_555 1_555
Cu2_2 O2 1_555 1_555
Cu2C O5 1_555 1_555
Cu2B_2 O2B 1_555 1_555
Cu2C_2 N1C 1_555 1_555
H9B O1B 1_555 1_555
N1C C7C 1_555 1_555
N2B Cu1 1_555 1_555
O1B Cu1 1_555 1_555
O2B C1B 1_555 1_555
O2_2 Cu2 1_555 1_555
O2B_2 Cu2B 1_555 1_555
O3B C1B 1_555 1_555
O4C C12C 1_555 1_555
O5C Cu2 1_555 1_555
O5A Cu2B 1_555 1_555
C6 N2 1_555 1_555
C8 N1 1_555 1_555
C10 C11 1_555 1_555
Cu2 O1 1_555 1_555
C4B N2B 1_555 1_555
C6B N2B 1_555 1_555
C8C N1C 1_555 1_555
C10C C11C 1_555 1_555
C12C O5C 1_555 1_555
Cu2B O1B 1_555 1_555

#END
