
#######################################################################
#
#                 Cambridge Crystallographic Data Centre
#                                CCDC 
#
#######################################################################
#
# If this CIF has been generated from an entry in the Cambridge 
# Structural Database, then it will include bibliographic, chemical, 
# crystal, experimental, refinement or atomic coordinate data resulting 
# from the CCDC's data processing and validation procedures.
#
#######################################################################

data_AHEPAG
_symmetry_cell_setting           triclinic
_symmetry_space_group_name_H-M   'P -1'
_symmetry_Int_Tables_number      2
_space_group_name_Hall           '-P 1'
loop_
_symmetry_equiv_pos_site_id
_symmetry_equiv_pos_as_xyz
1 x,y,z
2 -x,-y,-z
_cell_length_a                   8.7397(2)
_cell_length_b                   9.2716(2)
_cell_length_c                   18.1021(5)
_cell_angle_alpha                91.2641(10)
_cell_angle_beta                 100.0750(11)
_cell_angle_gamma                95.0881(11)
_cell_volume                     1437.46
loop_
_atom_site_label
_atom_site_type_symbol
_atom_site_fract_x
_atom_site_fract_y
_atom_site_fract_z
Na1 Na 0.71778(13) 0.06116(13) 0.03956(6)
Zn1 Zn 0.68114(4) 0.15177(3) 0.237027(17)
Br1 Br 0.44200(3) 0.02879(3) 0.259994(17)
Br2 Br 0.85532(3) -0.01251(3) 0.201852(17)
Br3 Br 0.59379(3) 0.29123(3) 0.126523(15)
Fe1 Fe 1.13772(4) 0.45624(4) 0.27397(2)
S1 S 1.09883(8) 0.24188(8) 0.03442(4)
P1 P 0.81704(8) 0.29739(7) 0.34606(4)
O1 O 0.9313(2) 0.2444(2) 0.01568(11)
O2 O 1.1644(3) 0.1175(2) 0.00828(12)
C1 C 1.1381(3) 0.4058(3) 0.16466(14)
C2 C 1.2656(3) 0.5110(3) 0.19328(15)
H1 H 1.3731 0.4996 0.1950
C3 C 1.2034(4) 0.6350(3) 0.21855(16)
H2 H 1.2622 0.7212 0.2406
C4 C 1.0389(3) 0.6088(3) 0.20545(16)
H3 H 0.9681 0.6745 0.2170
C5 C 0.9972(3) 0.4667(3) 0.17187(14)
H4 H 0.8943 0.4211 0.1571
C6 C 1.0205(3) 0.3534(3) 0.34872(14)
C7 C 1.1362(3) 0.2674(3) 0.32922(14)
H5 H 1.1178 0.1724 0.3068
C8 C 1.2834(3) 0.3490(3) 0.34924(15)
H6 H 1.3809 0.3176 0.3426
C9 C 1.2611(3) 0.4839(3) 0.38055(15)
H7 H 1.3410 0.5591 0.3985
C10 C 1.0990(3) 0.4891(3) 0.38088(14)
H8 H 1.0514 0.5677 0.3990
C11 C 1.1553(3) 0.2579(3) 0.13379(14)
H9 H 1.0904 0.1851 0.1569
H10 H 1.2655 0.2368 0.1477
C12 C 0.8171(3) 0.2111(3) 0.43598(14)
C13 C 0.9559(3) 0.2000(3) 0.48609(15)
H11 H 1.0528 0.2313 0.4720
C14 C 0.9535(4) 0.1436(3) 0.55643(16)
H12 H 1.0488 0.1352 0.5898
C15 C 0.8144(4) 0.1002(3) 0.57769(17)
H13 H 0.8129 0.0638 0.6262
C16 C 0.6760(4) 0.1094(4) 0.52834(18)
H14 H 0.5795 0.0790 0.5431
C17 C 0.6771(4) 0.1631(3) 0.45703(17)
H15 H 0.5817 0.1667 0.4229
C18 C 0.7333(3) 0.4678(3) 0.35785(14)
C19 C 0.7129(3) 0.5202(3) 0.42777(15)
H16 H 0.7365 0.4636 0.4707
C20 C 0.6583(3) 0.6549(3) 0.43492(16)
H17 H 0.6434 0.6901 0.4826
C21 C 0.6256(3) 0.7378(3) 0.37262(16)
H18 H 0.5893 0.8306 0.3776
C22 C 0.6454(3) 0.6863(3) 0.30350(16)
H19 H 0.6227 0.7438 0.2608
C23 C 0.6980(3) 0.5518(3) 0.29550(15)
H20 H 0.7101 0.5165 0.2474
C24 C 1.1903(4) 0.3969(4) 0.00026(17)
H21 H 1.3031 0.4021 0.0185
H22 H 1.1489 0.4836 0.0180
H23 H 1.1697 0.3913 -0.0548
O3 O 0.4690(2) -0.0845(2) 0.07165(12)
H24 H 0.4674 -0.0257 0.1149
C25 C 0.4827(5) -0.2315(4) 0.09004(19)
H25 H 0.3933 -0.2680 0.1125
H26 H 0.5795 -0.2384 0.1259
H27 H 0.4847 -0.2896 0.0444
Na1A Na 0.28222(13) -0.06116(13) -0.03956(6)
Na1A_2 Na 1.28222(13) -0.06116(13) -0.03956(6)
O2A O 0.8356(3) -0.1175(2) -0.00828(12)
O3A O 0.5310(2) 0.0845(2) -0.07165(12)
loop_
_geom_bond_atom_site_label_1
_geom_bond_atom_site_label_2
_geom_bond_site_symmetry_1
_geom_bond_site_symmetry_2
Na1 Br2 1_555 1_555
Zn1 Br1 1_555 1_555
Br2 Zn1 1_555 1_555
Br3 Na1 1_555 1_555
Fe1 C1 1_555 1_555
S1 O1 1_555 1_555
P1 Zn1 1_555 1_555
O1 Na1 1_555 1_555
O2 S1 1_555 1_555
C1 C2 1_555 1_555
C2 Fe1 1_555 1_555
H1 C2 1_555 1_555
C3 Fe1 1_555 1_555
H2 C3 1_555 1_555
C4 Fe1 1_555 1_555
H3 C4 1_555 1_555
C5 Fe1 1_555 1_555
H4 C5 1_555 1_555
C6 Fe1 1_555 1_555
C7 Fe1 1_555 1_555
H5 C7 1_555 1_555
C8 Fe1 1_555 1_555
H6 C8 1_555 1_555
C9 Fe1 1_555 1_555
H7 C9 1_555 1_555
C10 Fe1 1_555 1_555
H8 C10 1_555 1_555
C11 S1 1_555 1_555
H9 C11 1_555 1_555
H10 C11 1_555 1_555
C12 P1 1_555 1_555
C13 C12 1_555 1_555
H11 C13 1_555 1_555
C14 C13 1_555 1_555
H12 C14 1_555 1_555
C15 C14 1_555 1_555
H13 C15 1_555 1_555
C16 C15 1_555 1_555
H14 C16 1_555 1_555
C17 C12 1_555 1_555
H15 C17 1_555 1_555
C18 P1 1_555 1_555
C19 C18 1_555 1_555
H16 C19 1_555 1_555
C20 C19 1_555 1_555
H17 C20 1_555 1_555
C21 C20 1_555 1_555
H18 C21 1_555 1_555
C22 C21 1_555 1_555
H19 C22 1_555 1_555
C23 C18 1_555 1_555
H20 C23 1_555 1_555
C24 S1 1_555 1_555
H21 C24 1_555 1_555
H22 C24 1_555 1_555
H23 C24 1_555 1_555
O3 Na1 1_555 1_555
H24 O3 1_555 1_555
C25 O3 1_555 1_555
H25 C25 1_555 1_555
H26 C25 1_555 1_555
H27 C25 1_555 1_555
Na1A O3 1_555 1_555
Na1A_2 O2 1_555 1_555
O2A Na1 1_555 1_555
O3A Na1 1_555 1_555
Zn1 Br3 1_555 1_555
P1 C6 1_555 1_555
C1 C5 1_555 1_555
C1 C11 1_555 1_555
C2 C3 1_555 1_555
C3 C4 1_555 1_555
C4 C5 1_555 1_555
C6 C7 1_555 1_555
C6 C10 1_555 1_555
C7 C8 1_555 1_555
C8 C9 1_555 1_555
C9 C10 1_555 1_555
C16 C17 1_555 1_555
C22 C23 1_555 1_555
Na1A O3A 1_555 1_555

#END
