
#######################################################################
#
#                 Cambridge Crystallographic Data Centre
#                                CCDC 
#
#######################################################################
#
# If this CIF has been generated from an entry in the Cambridge 
# Structural Database, then it will include bibliographic, chemical, 
# crystal, experimental, refinement or atomic coordinate data resulting 
# from the CCDC's data processing and validation procedures.
#
#######################################################################

data_AHERAH
_symmetry_cell_setting           monoclinic
_symmetry_space_group_name_H-M   'P 21/c'
_symmetry_Int_Tables_number      14
_space_group_name_Hall           '-P 2ybc'
loop_
_symmetry_equiv_pos_site_id
_symmetry_equiv_pos_as_xyz
1 x,y,z
2 -x,1/2+y,1/2-z
3 -x,-y,-z
4 x,1/2-y,1/2+z
_cell_length_a                   10.1421(6)
_cell_length_b                   14.5960(9)
_cell_length_c                   14.8945(9)
_cell_angle_alpha                90
_cell_angle_beta                 91.1080(10)
_cell_angle_gamma                90
_cell_volume                     2204.48
loop_
_atom_site_label
_atom_site_type_symbol
_atom_site_fract_x
_atom_site_fract_y
_atom_site_fract_z
C1 C 0.056(2) 0.6627(15) 0.856(2)
H1 H 0.0686 0.7279 0.8583
H2 H 0.0301 0.6411 0.9140
H3 H -0.0118 0.6484 0.8124
Au1 Au 0.70509(8) 0.76497(5) 0.52986(5)
Au2 Au 0.58904(8) 0.26441(6) 0.50370(5)
Fe1 Fe 0.6436(3) 0.50015(17) 0.76630(16)
N1 N 0.7032(18) 0.5856(11) 0.8797(10)
N2 N 0.6864(18) 0.6097(13) 0.6735(11)
N3 N 0.5883(18) 0.4115(13) 0.6540(12)
N4 N 0.6119(16) 0.3903(12) 0.8591(11)
N5 N 0.8500(16) 0.4521(11) 0.7547(10)
C2 C 0.587(2) 0.3598(15) 0.6007(13)
C3 C 0.699(2) 0.6674(15) 0.6218(13)
N6 N 0.4413(13) 0.5503(11) 0.7797(12)
C4 C 0.5988(19) 0.3345(14) 0.9095(13)
C5 C 0.7142(19) 0.6379(14) 0.9366(13)
C6 C 0.905(2) 0.4444(14) 0.6726(14)
H4 H 0.8570 0.4621 0.6218
C7 C 1.050(2) 0.4011(17) 0.8189(16)
H5 H 1.0970 0.3894 0.8718
C8 C 0.926(2) 0.4291(15) 0.8253(13)
H6 H 0.8897 0.4328 0.8821
C9 C 0.390(2) 0.5465(14) 0.8651(12)
H7 H 0.4448 0.5196 0.9082
C10 C 0.1953(19) 0.6124(19) 0.8275(13)
C11 C 0.2311(17) 0.6177(16) 0.7388(11)
C12 C 0.358(2) 0.5884(17) 0.7161(11)
H8 H 0.3856 0.5947 0.6573
C13 C 0.271(2) 0.5759(16) 0.8964(8)
H9 H 0.2445 0.5717 0.9558
Br1 Br 1.0941(4) 0.3971(3) 0.5469(2)
C14 C 1.114(2) 0.3881(13) 0.7380(15)
C15 C 1.031(2) 0.4110(16) 0.6634(14)
C16 C 1.251(2) 0.3516(17) 0.7291(18)
H10 H 1.3045 0.3719 0.7790
H11 H 1.2877 0.3735 0.6742
H12 H 1.2486 0.2858 0.7282
Br2 Br 0.1375(4) 0.6631(4) 0.6397(4)
Au1C Au 0.70509(8) 0.73503(5) 1.02986(5)
Au2C Au 0.58904(8) 0.23559(6) 1.00370(5)
C4C C 0.5988(19) 0.1655(14) 0.4095(13)
C5C C 0.7142(19) 0.8621(14) 0.4366(13)
loop_
_geom_bond_atom_site_label_1
_geom_bond_atom_site_label_2
_geom_bond_site_symmetry_1
_geom_bond_site_symmetry_2
C1 H1 1_555 1_555
H2 C1 1_555 1_555
H3 C1 1_555 1_555
Au1 C3 1_555 1_555
Au2 C2 1_555 1_555
Fe1 N1 1_555 1_555
N1 C5 1_555 1_555
N2 Fe1 1_555 1_555
N3 Fe1 1_555 1_555
N4 Fe1 1_555 1_555
N5 Fe1 1_555 1_555
C2 N3 1_555 1_555
C3 N2 1_555 1_555
N6 Fe1 1_555 1_555
C4 N4 1_555 1_555
C5 Au1C 1_555 1_555
C6 N5 1_555 1_555
H4 C6 1_555 1_555
C7 H5 1_555 1_555
C8 N5 1_555 1_555
H6 C8 1_555 1_555
C9 N6 1_555 1_555
H7 C9 1_555 1_555
C10 C1 1_555 1_555
C11 C10 1_555 1_555
C12 N6 1_555 1_555
H8 C12 1_555 1_555
C13 C9 1_555 1_555
H9 C13 1_555 1_555
Br1 C15 1_555 1_555
C14 C7 1_555 1_555
C15 C6 1_555 1_555
C16 C14 1_555 1_555
H10 C16 1_555 1_555
H11 C16 1_555 1_555
H12 C16 1_555 1_555
Br2 C11 1_555 1_555
Au2C C4 1_555 1_555
C4C Au2 1_555 1_555
C5C Au1 1_555 1_555
C7 C8 1_555 1_555
C10 C13 1_555 1_555
C11 C12 1_555 1_555
C14 C15 1_555 1_555

#END
