
#######################################################################
#
#                 Cambridge Crystallographic Data Centre
#                                CCDC 
#
#######################################################################
#
# If this CIF has been generated from an entry in the Cambridge 
# Structural Database, then it will include bibliographic, chemical, 
# crystal, experimental, refinement or atomic coordinate data resulting 
# from the CCDC's data processing and validation procedures.
#
#######################################################################

data_AHERIQ
_symmetry_cell_setting           rhombohedral
_symmetry_space_group_name_H-M   'R -3'
_symmetry_Int_Tables_number      148
_space_group_name_Hall           '-R 3'
loop_
_symmetry_equiv_pos_site_id
_symmetry_equiv_pos_as_xyz
1 x,y,z
2 -y,x-y,z
3 -x+y,-x,z
4 2/3+x,1/3+y,1/3+z
5 2/3-y,1/3+x-y,1/3+z
6 2/3-x+y,1/3-x,1/3+z
7 1/3+x,2/3+y,2/3+z
8 1/3-y,2/3+x-y,2/3+z
9 1/3-x+y,2/3-x,2/3+z
10 -x,-y,-z
11 y,-x+y,-z
12 x-y,x,-z
13 1/3-x,2/3-y,2/3-z
14 1/3+y,2/3-x+y,2/3-z
15 1/3+x-y,2/3+x,2/3-z
16 2/3-x,1/3-y,1/3-z
17 2/3+y,1/3-x+y,1/3-z
18 2/3+x-y,1/3+x,1/3-z
_cell_length_a                   14.4445(6)
_cell_length_b                   14.4445(6)
_cell_length_c                   34.0453(10)
_cell_angle_alpha                90
_cell_angle_beta                 90
_cell_angle_gamma                120
_cell_volume                     6151.67
loop_
_atom_site_label
_atom_site_type_symbol
_atom_site_fract_x
_atom_site_fract_y
_atom_site_fract_z
Pb1 Pb 0.07562(3) 0.40049(3) 0.15531(2)
O1 O 0.1179(6) 0.2560(5) 0.1740(2)
O2 O -0.0152(7) 0.2517(6) 0.2063(2)
O3 O 0.0993(5) 0.5324(5) 0.2169(2)
O4 O 0.2285(8) 0.4947(6) 0.2053(2)
C1 C 0.0475(8) 0.2156(8) 0.2002(3)
C2 C 0.0287(8) 0.1156(8) 0.2238(3)
C3 C -0.0864(8) 0.0253(7) 0.2123(3)
H1 H -0.1376 0.0416 0.2242
H2 H -0.0941 0.0272 0.184
C4 C 0.0386(9) 0.1491(8) 0.2653(3)
H3 H -0.0157 0.1669 0.2713
H4 H 0.0299 0.0917 0.282
H5 H 0.1078 0.2105 0.2696
C5 C 0.1842(9) 0.5330(7) 0.2273(3)
C6 C 0.2236(8) 0.5665(8) 0.2690(3)
C7 C 0.1297(8) 0.4803(8) 0.2944(3)
H6 H 0.1472 0.4946 0.3217
H7 H 0.0657 0.4826 0.289
H8 H 0.1186 0.4107 0.288
C8 C 0.2359(8) 0.6762(8) 0.2799(3)
H9 H 0.1787 0.6817 0.2671
H10 H 0.2256 0.6772 0.308
C9 C -0.0774(11) 0.1707(13) 0.1030(5)
N1 N -0.1228(8) 0.0971(8) 0.0749(3)
C10 C -0.1262(11) 0.1245(10) 0.0351(4)
H11 H -0.162 0.0606 0.0196
H12 H -0.1642 0.1631 0.0333
H13 H -0.0546 0.1685 0.0255
C11 C -0.1829(10) -0.0138(10) 0.0863(5)
H14 H -0.2108 -0.0575 0.0632
H15 H -0.137 -0.033 0.1001
H16 H -0.2409 -0.0247 0.1031
H17 H -0.076(11) 0.162(11) 0.137(5)
O5 O -0.0267(7) 0.2694(8) 0.0958(3)
O1A O -0.2560(5) -0.1381(8) 0.1740(2)
O2A O -0.2517(6) -0.2669(9) 0.2063(2)
C1A C -0.2156(8) -0.1681(11) 0.2002(3)
C2A C -0.1156(8) -0.0869(11) 0.2238(3)
C3A C -0.0253(7) -0.1117(11) 0.2123(3)
H1A H -0.0416 -0.1792 0.2242
H2A H -0.0272 -0.1213 0.184
C4A C -0.1491(8) -0.1105(12) 0.2653(3)
H3A H -0.1669 -0.1826 0.2713
H4A H -0.0917 -0.0618 0.282
H5A H -0.2105 -0.1027 0.2696
O1B O 0.1381(8) -0.1179(6) 0.1740(2)
O2B O 0.2669(9) 0.0152(7) 0.2063(2)
C1B C 0.1681(11) -0.0475(8) 0.2002(3)
C2B C 0.0869(11) -0.0287(8) 0.2238(3)
C3B C 0.1117(11) 0.0864(8) 0.2123(3)
H1B H 0.1792 0.1376 0.2242
H2B H 0.1213 0.0941 0.184
C4B C 0.1105(12) -0.0386(9) 0.2653(3)
H3B H 0.1826 0.0157 0.2713
H4B H 0.0618 -0.0299 0.282
H5B H 0.1027 -0.1078 0.2696
O3A O 0.4676(5) 0.5669(7) 0.2169(2)
C5A C 0.4670(7) 0.6512(11) 0.2273(3)
C6A C 0.4335(8) 0.6571(11) 0.2690(3)
C7A C 0.5197(8) 0.6494(11) 0.2944(3)
H6A H 0.5054 0.6526 0.3217
H7A H 0.5174 0.5831 0.289
H8A H 0.5893 0.7079 0.288
C8A C 0.3238(8) 0.5597(11) 0.2799(3)
H9A H 0.3183 0.4970 0.2671
H10A H 0.3228 0.5484 0.308
O4A O 0.5053(6) 0.7338(10) 0.2053(2)
O3B O 0.4331(7) 0.9007(5) 0.2169(2)
C5B C 0.3488(11) 0.8158(9) 0.2273(3)
C6B C 0.3429(11) 0.7764(8) 0.2690(3)
C7B C 0.3506(11) 0.8703(8) 0.2944(3)
H6B H 0.3474 0.8528 0.3217
H7B H 0.4169 0.9343 0.289
H8B H 0.2921 0.8814 0.288
C8B C 0.4403(11) 0.7641(8) 0.2799(3)
H9B H 0.5030 0.8213 0.2671
H10B H 0.4516 0.7744 0.308
O4B O 0.2662(10) 0.7715(8) 0.2053(2)
Pb1A Pb -0.40049(3) -0.32487(4) 0.15531(2)
C9A C -0.1707(13) -0.2481(17) 0.1030(5)
N1A N -0.0971(8) -0.2199(11) 0.0749(3)
C10A C -0.1245(10) -0.2507(15) 0.0351(4)
H11A H -0.0606 -0.2226 0.0196
H12A H -0.1631 -0.3273 0.0333
H13A H -0.1685 -0.2231 0.0255
C11A C 0.0138(10) -0.1691(14) 0.0863(5)
H14A H 0.0575 -0.1533 0.0632
H15A H 0.033 -0.104 0.1001
H16A H 0.0247 -0.2162 0.1031
H17A H -0.162(11) -0.238(16) 0.137(5)
O5A O -0.2694(8) -0.2961(11) 0.0958(3)
Pb1Q Pb 0.34180(4) 0.40895(3) 0.17802(2)
C9Q C 0.4186(17) 0.2559(11) 0.2303(5)
N1Q N 0.4468(11) 0.2105(8) 0.2584(3)
C10Q C 0.4160(15) 0.2071(11) 0.2982(4)
H11Q H 0.4441 0.171333 0.3137
H12Q H 0.3394 0.1691 0.3000
H13Q H 0.4436 0.2787 0.3078
C11Q C 0.4976(14) 0.1504(10) 0.2470(5)
H14Q H 0.5134 0.1225 0.2701
H15Q H 0.562667 0.196333 0.2332
H16Q H 0.4505 0.0924 0.2302
H17Q H 0.429(16) 0.257(11) 0.196(5)
O5Q O 0.3706(11) 0.3066(7) 0.2375(3)
Pb1A_2 Pb 0.59951(3) 0.67513(4) 0.15531(2)
Pb1B Pb 0.32487(4) -0.07562(3) 0.15531(2)
Pb1B_2 Pb 0.32487(4) 0.92438(3) 0.15531(2)
Pb1O Pb -0.40895(3) -0.06716(3) 0.17802(2)
Pb1O_2 Pb 0.59105(3) 0.93284(3) 0.17802(2)
Pb1P Pb 0.06716(3) -0.34180(4) 0.17802(2)
Pb1P_2 Pb 0.06716(3) 0.65820(4) 0.17802(2)
O1P O -0.0773(5) 0.4714(8) 0.1593(2)
O1Q O -0.4714(8) -0.5488(6) 0.1593(2)
O1Q_2 O 0.5286(8) 0.4512(6) 0.1593(2)
O2Q O 0.3998(9) 0.3181(7) 0.1270(2)
O3A_2 O -0.5324(5) -0.4331(7) 0.2169(2)
O3O O -0.4326(5) -0.1991(5) 0.1164(2)
O3Q O 0.2336(7) 0.4326(5) 0.1164(2)
O4A_2 O -0.4947(6) -0.2662(10) 0.2053(2)
O4P O 0.1614(6) 0.5995(10) 0.1280(2)
O4Q O -0.5995(10) -0.4382(8) 0.1280(2)
O4Q_2 O 0.4005(10) 0.5618(8) 0.1280(2)
loop_
_geom_bond_atom_site_label_1
_geom_bond_atom_site_label_2
_geom_bond_site_symmetry_1
_geom_bond_site_symmetry_2
Pb1 O1 1_555 1_555
O1 C1 1_555 1_555
O2 Pb1 1_555 1_555
O3 Pb1 1_555 1_555
O4 Pb1 1_555 1_555
C1 O2 1_555 1_555
C2 C1 1_555 1_555
C3 C2 1_555 1_555
H1 C3 1_555 1_555
H2 C3 1_555 1_555
C4 C2 1_555 1_555
H3 C4 1_555 1_555
H4 C4 1_555 1_555
H5 C4 1_555 1_555
C5 O3 1_555 1_555
C6 C5 1_555 1_555
C7 C6 1_555 1_555
H6 C7 1_555 1_555
H7 C7 1_555 1_555
H8 C7 1_555 1_555
C8 C6 1_555 1_555
H9 C8 1_555 1_555
H10 C8 1_555 1_555
C9 N1 1_555 1_555
N1 C10 1_555 1_555
C10 H11 1_555 1_555
H12 C10 1_555 1_555
H13 C10 1_555 1_555
C11 N1 1_555 1_555
H14 C11 1_555 1_555
H15 C11 1_555 1_555
H16 C11 1_555 1_555
H17 C9 1_555 1_555
O5 Pb1 1_555 1_555
O1A C1A 1_555 1_555
O2A C1A 1_555 1_555
C1A C2A 1_555 1_555
C2A C3 1_555 1_555
C3A C2A 1_555 1_555
H1A C3A 1_555 1_555
H2A C3A 1_555 1_555
C4A C2A 1_555 1_555
H3A C4A 1_555 1_555
H4A C4A 1_555 1_555
H5A C4A 1_555 1_555
O1B C1B 1_555 1_555
O2B C1B 1_555 1_555
C1B C2B 1_555 1_555
C2B C3A 1_555 1_555
C3B C2 1_555 1_555
H1B C3B 1_555 1_555
H2B C3B 1_555 1_555
C4B C2B 1_555 1_555
H3B C4B 1_555 1_555
H4B C4B 1_555 1_555
H5B C4B 1_555 1_555
O3A C5A 1_555 1_555
C5A C6A 1_555 1_555
C6A C7A 1_555 1_555
C7A H6A 1_555 1_555
H7A C7A 1_555 1_555
H8A C7A 1_555 1_555
C8A C6 1_555 1_555
H9A C8A 1_555 1_555
H10A C8A 1_555 1_555
O4A C5A 1_555 1_555
O3B C5B 1_555 1_555
C5B C6B 1_555 1_555
C6B C8 1_555 1_555
C7B C6B 1_555 1_555
H6B C7B 1_555 1_555
H7B C7B 1_555 1_555
H8B C7B 1_555 1_555
C8B C6A 1_555 1_555
H9B C8B 1_555 1_555
H10B C8B 1_555 1_555
O4B C5B 1_555 1_555
Pb1A O1A 1_555 1_555
C9A N1A 1_555 1_555
N1A C10A 1_555 1_555
C10A H11A 1_555 1_555
H12A C10A 1_555 1_555
H13A C10A 1_555 1_555
C11A N1A 1_555 1_555
H14A C11A 1_555 1_555
H15A C11A 1_555 1_555
H16A C11A 1_555 1_555
H17A C9A 1_555 1_555
O5A Pb1A 1_555 1_555
Pb1Q O1 1_555 1_555
C9Q N1Q 1_555 1_555
N1Q C10Q 1_555 1_555
C10Q H11Q 1_555 1_555
H12Q C10Q 1_555 1_555
H13Q C10Q 1_555 1_555
C11Q N1Q 1_555 1_555
H14Q C11Q 1_555 1_555
H15Q C11Q 1_555 1_555
H16Q C11Q 1_555 1_555
H17Q C9Q 1_555 1_555
O5Q Pb1Q 1_555 1_555
Pb1A_2 O3A 1_555 1_555
Pb1B O1B 1_555 1_555
Pb1B_2 O3B 1_555 1_555
Pb1O O1A 1_555 1_555
Pb1O_2 O4A 1_555 1_555
Pb1P O1B 1_555 1_555
Pb1P_2 O3 1_555 1_555
O1P Pb1 1_555 1_555
O1Q Pb1A 1_555 1_555
O1Q_2 Pb1Q 1_555 1_555
O2Q Pb1Q 1_555 1_555
O3A_2 Pb1A 1_555 1_555
O3O Pb1A 1_555 1_555
O3Q Pb1 1_555 1_555
O4A_2 Pb1A 1_555 1_555
O4P Pb1 1_555 1_555
O4Q Pb1A 1_555 1_555
O4Q_2 Pb1Q 1_555 1_555
O4 C5 1_555 1_555
O4 Pb1Q 1_555 1_555
C9 O5 1_555 1_555
O2A Pb1A 1_555 1_555
O2B Pb1B 1_555 1_555
C2B C3B 1_555 1_555
O3A Pb1Q 1_555 1_555
C6A C8A 1_555 1_555
O4A Pb1A_2 1_555 1_555
O3B Pb1O_2 1_555 1_555
C6B C8B 1_555 1_555
O4B Pb1B_2 1_555 1_555
O4B Pb1P_2 1_555 1_555
C9A O5A 1_555 1_555
Pb1Q O3Q 1_555 1_555
C9Q O5Q 1_555 1_555
Pb1A_2 O1Q_2 1_555 1_555
Pb1A_2 O4Q_2 1_555 1_555
Pb1O O3O 1_555 1_555
Pb1O O4A_2 1_555 1_555
Pb1P_2 O1P 1_555 1_555
Pb1P_2 O4P 1_555 1_555

#END
