
#######################################################################
#
#                 Cambridge Crystallographic Data Centre
#                                CCDC 
#
#######################################################################
#
# If this CIF has been generated from an entry in the Cambridge 
# Structural Database, then it will include bibliographic, chemical, 
# crystal, experimental, refinement or atomic coordinate data resulting 
# from the CCDC's data processing and validation procedures.
#
#######################################################################

data_AHESUD
_symmetry_cell_setting           monoclinic
_symmetry_space_group_name_H-M   'P 21/n'
_symmetry_Int_Tables_number      14
_space_group_name_Hall           '-P 2yn'
loop_
_symmetry_equiv_pos_site_id
_symmetry_equiv_pos_as_xyz
1 x,y,z
2 1/2-x,1/2+y,1/2-z
3 -x,-y,-z
4 1/2+x,1/2-y,1/2+z
_cell_length_a                   9.2691(12)
_cell_length_b                   9.3354(13)
_cell_length_c                   18.669(3)
_cell_angle_alpha                90
_cell_angle_beta                 98.925(12)
_cell_angle_gamma                90
_cell_volume                     1595.88
loop_
_atom_site_label
_atom_site_type_symbol
_atom_site_fract_x
_atom_site_fract_y
_atom_site_fract_z
Co1 Co 1.45371(6) 0.22141(6) 0.62579(3)
O1 O 1.4697(3) -0.0135(3) 0.61456(16)
O2 O 0.7057(3) 0.0715(3) 0.53746(16)
N1 N 1.4621(4) -0.5516(4) 0.63787(19)
O3 O 0.6784(3) 0.2270(3) 0.62769(16)
O4 O 1.5996(3) -0.0586(3) 0.72390(18)
N2 N 1.2203(4) 0.2034(4) 0.6271(2)
C1 C 1.3821(5) -0.4577(5) 0.5937(3)
H1 H 1.3116 -0.4934 0.5571
N3 N 1.4101(4) 0.2047(4) 0.5129(2)
N4 N 1.2986(4) 0.2492(4) 0.4761(2)
C2 C 0.9156(5) 0.1729(5) 0.6048(2)
C3 C 1.0054(4) 0.0628(5) 0.5879(2)
H2 H 0.9652 -0.0230 0.5689
N5 N 1.1942(5) 0.2908(5) 0.4415(2)
C4 C 0.7518(4) 0.1566(5) 0.5889(2)
C5 C 0.9816(5) 0.2977(5) 0.6342(3)
H3 H 0.9253 0.3732 0.6470
C6 C 1.3995(5) -0.3108(5) 0.5998(2)
H4 H 1.3408 -0.2494 0.5686
C7 C 1.5678(5) -0.4984(5) 0.6895(2)
H5 H 1.6261 -0.5619 0.7196
C8 C 1.1545(5) 0.0816(5) 0.5996(2)
H6 H 1.2130 0.0069 0.5880
C9 C 1.5917(5) -0.3536(5) 0.6988(3)
H7 H 1.6643 -0.3204 0.7351
C10 C 1.5064(5) -0.2566(5) 0.6535(2)
C11 C 1.1319(5) 0.3082(5) 0.6442(2)
H8 H 1.1746 0.3926 0.6638
O5 O 1.5055(3) 0.2004(3) 0.73920(16)
H9 H 1.5407 0.1165 0.7462
C12 C 1.4094(5) 0.2166(5) 0.7918(3)
H10 H 1.4627 0.2009 0.8394
H11 H 1.3315 0.1481 0.7823
H12 H 1.3694 0.3117 0.7888
C13 C 1.5302(4) -0.0981(5) 0.6653(2)
Co2 Co 1.5000 0.0000 0.5000
Co1B Co 0.54629(6) -0.22141(6) 0.37421(3)
O1B O 0.5303(3) 0.0135(3) 0.38544(16)
O2B O 1.2943(3) -0.0715(3) 0.46254(16)
N1B N 0.5379(4) 0.5516(4) 0.36213(19)
O3B O 1.3216(3) -0.2270(3) 0.37231(16)
O4B O 0.4004(3) 0.0586(3) 0.27610(18)
N2B N 0.7797(4) -0.2034(4) 0.3729(2)
C1B C 0.6179(5) 0.4577(5) 0.4063(3)
H1B H 0.6884 0.4934 0.4429
N3B N 0.5899(4) -0.2047(4) 0.4871(2)
N4B N 0.7014(4) -0.2492(4) 0.5239(2)
C2B C 1.0844(5) -0.1729(5) 0.3952(2)
C3B C 0.9946(4) -0.0628(5) 0.4121(2)
H2B H 1.0348 0.0230 0.4311
N5B N 0.8058(5) -0.2908(5) 0.5585(2)
C4B C 1.2482(4) -0.1566(5) 0.4111(2)
C5B C 1.0184(5) -0.2977(5) 0.3658(3)
H3B H 1.0747 -0.3732 0.3530
C6B C 0.6005(5) 0.3108(5) 0.4002(2)
H4B H 0.6592 0.2494 0.4314
C7B C 0.4322(5) 0.4984(5) 0.3105(2)
H5B H 0.3739 0.5619 0.2804
C8B C 0.8455(5) -0.0816(5) 0.4004(2)
H6B H 0.7870 -0.0069 0.4120
C9B C 0.4083(5) 0.3536(5) 0.3012(3)
H7B H 0.3357 0.3204 0.2649
C10B C 0.4936(5) 0.2566(5) 0.3465(2)
C11B C 0.8681(5) -0.3082(5) 0.3558(2)
H8B H 0.8254 -0.3926 0.3362
O5B O 0.4945(3) -0.2004(3) 0.26080(16)
H9B H 0.4593 -0.1165 0.2538
C12B C 0.5906(5) -0.2166(5) 0.2082(3)
H10B H 0.5373 -0.2009 0.1606
H11B H 0.6685 -0.1481 0.2177
H12B H 0.6306 -0.3117 0.2112
C13B C 0.4698(4) 0.0981(5) 0.3347(2)
Co1_2 Co 0.45371(6) 0.22141(6) 0.62579(3)
Co1_3 Co 1.45371(6) -0.77859(6) 0.62579(3)
Co1B_2 Co 0.54629(6) 0.77859(6) 0.37421(3)
Co1B_3 Co 1.54629(6) -0.22141(6) 0.37421(3)
O1B_2 O 1.5303(3) 0.0135(3) 0.38544(16)
O2_2 O 1.7057(3) 0.0715(3) 0.53746(16)
N1_2 N 1.4621(4) 0.4484(4) 0.63787(19)
N1B_2 N 0.5379(4) -0.4484(4) 0.36213(19)
O3_2 O 1.6784(3) 0.2270(3) 0.62769(16)
O3B_2 O 0.3216(3) -0.2270(3) 0.37231(16)
N3B_2 N 1.5899(4) -0.2047(4) 0.4871(2)
Co2_2 Co 0.5000 0.0000 0.5000
loop_
_geom_bond_atom_site_label_1
_geom_bond_atom_site_label_2
_geom_bond_site_symmetry_1
_geom_bond_site_symmetry_2
Co1 O1 1_555 1_555
O1 C13 1_555 1_555
O2 C4 1_555 1_555
N1 C1 1_555 1_555
O3 C4 1_555 1_555
O4 C13 1_555 1_555
N2 Co1 1_555 1_555
C1 H1 1_555 1_555
N3 Co1 1_555 1_555
N4 N3 1_555 1_555
C2 C3 1_555 1_555
C3 H2 1_555 1_555
N5 N4 1_555 1_555
C4 C2 1_555 1_555
C5 C2 1_555 1_555
H3 C5 1_555 1_555
C6 C1 1_555 1_555
H4 C6 1_555 1_555
C7 N1 1_555 1_555
H5 C7 1_555 1_555
C8 N2 1_555 1_555
H6 C8 1_555 1_555
C9 C7 1_555 1_555
H7 C9 1_555 1_555
C10 C6 1_555 1_555
C11 N2 1_555 1_555
H8 C11 1_555 1_555
O5 Co1 1_555 1_555
H9 O5 1_555 1_555
C12 O5 1_555 1_555
H10 C12 1_555 1_555
H11 C12 1_555 1_555
H12 C12 1_555 1_555
C13 C10 1_555 1_555
Co2 O1 1_555 1_555
Co1B O1B 1_555 1_555
O1B C13B 1_555 1_555
O2B Co2 1_555 1_555
N1B C1B 1_555 1_555
O3B C4B 1_555 1_555
O4B C13B 1_555 1_555
N2B Co1B 1_555 1_555
C1B H1B 1_555 1_555
N3B Co1B 1_555 1_555
N4B N3B 1_555 1_555
C2B C3B 1_555 1_555
C3B H2B 1_555 1_555
N5B N4B 1_555 1_555
C4B O2B 1_555 1_555
C5B C2B 1_555 1_555
H3B C5B 1_555 1_555
C6B C1B 1_555 1_555
H4B C6B 1_555 1_555
C7B N1B 1_555 1_555
H5B C7B 1_555 1_555
C8B N2B 1_555 1_555
H6B C8B 1_555 1_555
C9B C7B 1_555 1_555
H7B C9B 1_555 1_555
C10B C6B 1_555 1_555
C11B N2B 1_555 1_555
H8B C11B 1_555 1_555
O5B Co1B 1_555 1_555
H9B O5B 1_555 1_555
C12B O5B 1_555 1_555
H10B C12B 1_555 1_555
H11B C12B 1_555 1_555
H12B C12B 1_555 1_555
C13B C10B 1_555 1_555
Co1_2 O3 1_555 1_555
Co1_3 N1 1_555 1_555
Co1B_2 N1B 1_555 1_555
Co1B_3 O3B 1_555 1_555
O1B_2 Co2 1_555 1_555
O2_2 Co2 1_555 1_555
N1_2 Co1 1_555 1_555
N1B_2 Co1B 1_555 1_555
O3_2 Co1 1_555 1_555
O3B_2 Co1B 1_555 1_555
N3B_2 Co2 1_555 1_555
Co2_2 O2 1_555 1_555
N3 Co2 1_555 1_555
C3 C8 1_555 1_555
C5 C11 1_555 1_555
C9 C10 1_555 1_555
O1B Co2_2 1_555 1_555
N3B Co2_2 1_555 1_555
C2B C4B 1_555 1_555
C3B C8B 1_555 1_555
C5B C11B 1_555 1_555
C9B C10B 1_555 1_555
Co1B_3 O1B_2 1_555 1_555
Co1B_3 N3B_2 1_555 1_555

#END
