
#######################################################################
#
#                 Cambridge Crystallographic Data Centre
#                                CCDC 
#
#######################################################################
#
# If this CIF has been generated from an entry in the Cambridge 
# Structural Database, then it will include bibliographic, chemical, 
# crystal, experimental, refinement or atomic coordinate data resulting 
# from the CCDC's data processing and validation procedures.
#
#######################################################################

data_AHEYET
_symmetry_cell_setting           monoclinic
_symmetry_space_group_name_H-M   'C 2/c'
_symmetry_Int_Tables_number      15
_space_group_name_Hall           '-C 2yn'
loop_
_symmetry_equiv_pos_site_id
_symmetry_equiv_pos_as_xyz
1 x,y,z
2 -x,y,1/2-z
3 1/2+x,1/2+y,z
4 1/2-x,1/2+y,1/2-z
5 -x,-y,-z
6 x,-y,1/2+z
7 1/2-x,1/2-y,-z
8 1/2+x,1/2-y,1/2+z
_cell_length_a                   22.6970(12)
_cell_length_b                   13.4610(5)
_cell_length_c                   18.0752(10)
_cell_angle_alpha                90
_cell_angle_beta                 108.977(6)
_cell_angle_gamma                90
_cell_volume                     5222.27
loop_
_atom_site_label
_atom_site_type_symbol
_atom_site_fract_x
_atom_site_fract_y
_atom_site_fract_z
Cd1 Cd 0.308388(13) 0.52912(2) 0.184374(16)
C1 C 0.3057(2) 0.4328(4) 0.3494(3)
H1 H 0.2626 0.4385 0.3349
C2 C 0.3424(2) 0.3964(3) 0.4175(3)
H2 H 0.3300 0.3718 0.4581
C3 C 0.39872(19) 0.4419(3) 0.3454(2)
H3 H 0.4329 0.4542 0.3290
C4 C 0.45895(19) 0.3724(3) 0.4733(2)
C5 C 0.4596(2) 0.3293(3) 0.5425(2)
H4 H 0.4231 0.3185 0.5542
C6 C 0.5171(2) 0.3031(4) 0.5936(3)
H5 H 0.5197 0.2739 0.6412
C7 C 0.5705(2) 0.3192(3) 0.5756(2)
H6 H 0.6095 0.3023 0.6101
C8 C 0.56380(19) 0.3618(3) 0.5040(2)
C9 C 0.6765(2) 0.3520(3) 0.5122(2)
H7 H 0.6932 0.3176 0.5590
C10 C 0.7068(2) 0.3834(3) 0.4646(3)
H8 H 0.7491 0.3738 0.4729
C11 C 0.61198(19) 0.4287(3) 0.4111(2)
H9 H 0.5757 0.4557 0.3766
C12 C 0.12031(18) 0.5836(3) 0.1530(2)
C13 C 0.07887(19) 0.5119(3) 0.1116(2)
H10 H 0.0939 0.4548 0.0951
C14 C 0.01562(19) 0.5243(3) 0.0947(2)
H11 H -0.0119 0.4758 0.0669
C15 C -0.00658(17) 0.6098(3) 0.1194(2)
C16 C 0.03396(19) 0.6820(3) 0.1609(2)
H12 H 0.0188 0.7390 0.1775
C17 C 0.0973(2) 0.6687(3) 0.1774(2)
H13 H 0.1249 0.7172 0.2051
C18 C -0.11315(17) 0.5073(3) 0.1138(2)
C19 C -0.15127(18) 0.4537(3) 0.0519(2)
H14 H -0.1667 0.4819 0.0024
C20 C -0.16623(19) 0.3567(3) 0.0648(2)
H15 H -0.1932 0.3202 0.0240
C21 C -0.14128(17) 0.3144(3) 0.1377(2)
C22 C -0.1039(2) 0.3699(3) 0.1992(2)
H16 H -0.0880 0.3414 0.2486
C23 C -0.0900(2) 0.4675(3) 0.1881(2)
H17 H -0.0656 0.5056 0.2297
C24 C 0.18845(19) 0.5677(3) 0.1730(2)
C25 C -0.15500(19) 0.2072(3) 0.1487(2)
O1 O 0.20633(13) 0.4901(2) 0.14616(17)
O2 O 0.22639(14) 0.6287(2) 0.2132(2)
O3 O -0.11481(13) 0.64582(18) 0.01395(15)
O4 O -0.09748(13) 0.69707(18) 0.15044(15)
O5 O -0.12127(14) 0.16278(19) 0.20974(16)
O6 O -0.19828(16) 0.1657(2) 0.09766(18)
N1 N 0.34092(16) 0.4607(2) 0.30382(19)
N2 N 0.40225(15) 0.4025(2) 0.41540(18)
N3 N 0.50933(15) 0.3888(2) 0.45348(17)
N4 N 0.61502(15) 0.3809(2) 0.47819(18)
N5 N 0.66624(16) 0.4321(2) 0.4011(2)
S1 S -0.08803(5) 0.62676(6) 0.09637(5)
Cd1A Cd 0.691612(13) 0.52912(2) 0.315626(16)
Cd1B Cd -0.191612(13) 0.02912(2) 0.184374(16)
O5B O 0.37873(14) 0.66278(19) 0.20974(16)
O6B O 0.30172(16) 0.6657(2) 0.09766(18)
N5A N 0.33376(16) 0.4321(2) 0.0989(2)
O7 O 0.0000 0.0564(4) 0.2500
H18 H -0.0301 0.0971 0.2343
H18A H 0.0301 0.0971 0.2657
O8 O 0.2057(2) 0.2764(3) 0.1790(2)
H19 H 0.2341 0.2675 0.1585
H20 H 0.2068 0.3383 0.1886
loop_
_geom_bond_atom_site_label_1
_geom_bond_atom_site_label_2
_geom_bond_site_symmetry_1
_geom_bond_site_symmetry_2
Cd1 O1 1_555 1_555
C1 H1 1_555 1_555
C2 C1 1_555 1_555
H2 C2 1_555 1_555
C3 H3 1_555 1_555
C4 C5 1_555 1_555
C5 H4 1_555 1_555
C6 C5 1_555 1_555
H5 C6 1_555 1_555
C7 C6 1_555 1_555
H6 C7 1_555 1_555
C8 C7 1_555 1_555
C9 H7 1_555 1_555
C10 C9 1_555 1_555
H8 C10 1_555 1_555
C11 H9 1_555 1_555
C12 C13 1_555 1_555
C13 H10 1_555 1_555
C14 C13 1_555 1_555
H11 C14 1_555 1_555
C15 C14 1_555 1_555
C16 C15 1_555 1_555
H12 C16 1_555 1_555
C17 C12 1_555 1_555
H13 C17 1_555 1_555
C18 C19 1_555 1_555
C19 H14 1_555 1_555
C20 C19 1_555 1_555
H15 C20 1_555 1_555
C21 C20 1_555 1_555
C22 C21 1_555 1_555
H16 C22 1_555 1_555
C23 C18 1_555 1_555
H17 C23 1_555 1_555
C24 C12 1_555 1_555
C25 C21 1_555 1_555
O1 C24 1_555 1_555
O2 Cd1 1_555 1_555
O3 S1 1_555 1_555
O4 S1 1_555 1_555
O5 C25 1_555 1_555
O6 C25 1_555 1_555
N1 Cd1 1_555 1_555
N2 C2 1_555 1_555
N3 C4 1_555 1_555
N4 C8 1_555 1_555
N5 C10 1_555 1_555
S1 C15 1_555 1_555
O7 H18 1_555 1_555
O8 H19 1_555 1_555
H20 O8 1_555 1_555
Cd1A N5 1_555 1_555
Cd1B O5 1_555 1_555
O5B Cd1 1_555 1_555
O6B Cd1 1_555 1_555
N5A Cd1 1_555 1_555
H18A O7 1_555 1_555
C1 N1 1_555 1_555
C3 N1 1_555 1_555
C3 N2 1_555 1_555
C4 N2 1_555 1_555
C8 N3 1_555 1_555
C9 N4 1_555 1_555
C11 N4 1_555 1_555
C11 N5 1_555 1_555
C16 C17 1_555 1_555
C18 S1 1_555 1_555
C22 C23 1_555 1_555
C24 O2 1_555 1_555
O6 Cd1B 1_555 1_555

#END
