
#######################################################################
#
#                 Cambridge Crystallographic Data Centre
#                                CCDC 
#
#######################################################################
#
# If this CIF has been generated from an entry in the Cambridge 
# Structural Database, then it will include bibliographic, chemical, 
# crystal, experimental, refinement or atomic coordinate data resulting 
# from the CCDC's data processing and validation procedures.
#
#######################################################################

data_AHIBUQ
_symmetry_cell_setting           monoclinic
_symmetry_space_group_name_H-M   'P 21/c'
_symmetry_Int_Tables_number      14
_space_group_name_Hall           '-P 2ybc'
loop_
_symmetry_equiv_pos_site_id
_symmetry_equiv_pos_as_xyz
1 x,y,z
2 -x,1/2+y,1/2-z
3 -x,-y,-z
4 x,1/2-y,1/2+z
_cell_length_a                   13.9991(5)
_cell_length_b                   24.2237(8)
_cell_length_c                   15.2676(6)
_cell_angle_alpha                90
_cell_angle_beta                 101.814(2)
_cell_angle_gamma                90
_cell_volume                     5067.73
loop_
_atom_site_label
_atom_site_type_symbol
_atom_site_fract_x
_atom_site_fract_y
_atom_site_fract_z
C1 C 0.2543(16) 0.5372(8) 0.8090(14)
C2 C -0.1431(7) 0.2969(3) 0.5290(6)
H1 H -0.1223 0.3311 0.5125
C3 C -0.2406(6) 0.2818(5) 0.5029(6)
H2 H -0.285 0.3059 0.4689
C4 C -0.2717(5) 0.2307(5) 0.5276(7)
H3 H -0.3369 0.2206 0.5102
C5 C -0.2053(8) 0.1947(4) 0.5785(7)
H4 H -0.2261 0.1605 0.595
C6 C -0.1078(7) 0.2098(3) 0.6046(6)
H5 H -0.0634 0.1857 0.6387
C7 C 0.4141(12) 0.3911(5) 0.3350(7)
C8 C 0.3213(11) 0.4085(6) 0.3031(10)
H6 H 0.2697 0.3883 0.3164
C9 C 0.4997(12) 0.4180(6) 0.3146(10)
H7 H 0.5627 0.4055 0.3373
C10 C 0.3235(10) 0.4737(5) 0.5630(8)
C11 C 0.2524(11) 0.5080(6) 0.5741(10)
H8 H 0.219 0.5004 0.6195
C12 C 0.2266(14) 0.5528(7) 0.5235(12)
H9 H 0.1737 0.5738 0.5322
C13 C 0.2754(14) 0.5681(8) 0.4605(12)
H10 H 0.2599 0.6004 0.4278
C14 C 0.3484(17) 0.5346(8) 0.4464(11)
H11 H 0.3818 0.5443 0.4019
C15 C 0.3758(11) 0.4869(6) 0.4945(10)
H12 H 0.4258 0.4645 0.4829
C16 C 0.5453(10) 0.2529(6) 0.6785(8)
C17 C 0.6068(14) 0.2114(6) 0.7248(10)
H13 H 0.5823 0.1763 0.7309
C18 C 0.7033(13) 0.2233(10) 0.7610(11)
H14 H 0.7424 0.1948 0.7889
C19 C 0.7440(13) 0.2725(9) 0.7587(11)
H15 H 0.8085 0.279 0.7864
C20 C 0.6863(12) 0.3132(8) 0.7136(10)
H16 H 0.713 0.3481 0.71
C21 C 0.5867(11) 0.3041(6) 0.6718(9)
H17 H 0.5499 0.3324 0.6403
C22 C 0.0780(9) 0.3507(5) 0.4234(7)
C23 C 0.1113(11) 0.4016(6) 0.4396(9)
H18 H 0.1728 0.4072 0.4752
C24 C 0.0539(11) 0.4481(6) 0.4032(10)
H19 H 0.0776 0.4838 0.415
C25 C -0.0342(12) 0.4397(7) 0.3519(10)
H20 H -0.0713 0.4694 0.3255
C26 C -0.0684(10) 0.3888(7) 0.3390(9)
H21 H -0.1316 0.3834 0.3065
C27 C -0.0124(9) 0.3433(6) 0.3727(8)
H22 H -0.037 0.3078 0.3604
C28 C 0.4297(10) 0.3623(5) 0.9090(8)
C29 C 0.4414(13) 0.3942(7) 0.9810(10)
H23 H 0.39 0.4005 1.0099
C30 C 0.5370(16) 0.4191(8) 1.0139(12)
H24 H 0.5476 0.44 1.066
C31 C 0.6104(12) 0.4122(6) 0.9693(11)
H25 H 0.6689 0.4307 0.9898
C32 C 0.6025(13) 0.3792(6) 0.8954(10)
H26 H 0.6537 0.3735 0.8661
C33 C 0.5085(10) 0.3544(5) 0.8671(9)
H27 H 0.4993 0.3313 0.8173
C34 C -0.0057(9) 0.3812(5) 0.7574(8)
C35 C 0.0169(10) 0.3415(6) 0.8236(9)
H28 H 0.0645 0.3152 0.8202
C36 C -0.0293(10) 0.3403(7) 0.8932(10)
H29 H -0.0133 0.3135 0.9374
C37 C -0.0989(11) 0.3783(8) 0.8983(10)
H30 H -0.1293 0.3783 0.9471
C38 C -0.1234(12) 0.4147(7) 0.8356(11)
H31 H -0.1748 0.4385 0.8382
C39 C -0.0763(10) 0.4195(6) 0.7651(10)
H32 H -0.0917 0.448 0.7237
C40 C 0.1364(9) 0.1468(5) 0.6508(8)
C41 C 0.0717(9) 0.1050(5) 0.6666(9)
H33 H 0.0382 0.1078 0.7131
C42 C 0.0600(11) 0.0599(6) 0.6109(10)
H34 H 0.0177 0.032 0.6207
C43 C 0.1080(12) 0.0540(6) 0.5413(10)
H35 H 0.0985 0.023 0.5046
C44 C 0.1704(10) 0.0954(5) 0.5275(9)
H36 H 0.205 0.0922 0.4819
C45 C 0.1815(10) 0.1414(6) 0.5812(8)
H37 H 0.2216 0.1698 0.5692
N1 N -0.0767(5) 0.2609(4) 0.5799(5)
N2 N 0.2871(12) 0.5784(7) 0.7790(12)
S1 S 0.2188(5) 0.4860(2) 0.8443(3)
Se1 Se 0.44350(9) 0.32202(5) 0.40336(8)
Se2 Se 0.36723(9) 0.41005(5) 0.63648(8)
Se3 Se 0.40982(10) 0.23648(5) 0.62839(8)
Se4 Se 0.15333(9) 0.28685(5) 0.47067(8)
Se5 Se 0.30557(10) 0.32896(5) 0.86715(8)
Se6 Se 0.05734(10) 0.38885(5) 0.65754(8)
Se7 Se 0.15074(9) 0.20853(5) 0.73164(7)
Hg1 Hg 0.33492(4) 0.32378(2) 0.52621(3)
Hg2 Hg 0.34073(4) 0.24241(2) 0.77377(3)
Hg3 Hg 0.24119(4) 0.40357(2) 0.74191(3)
Hg4 Hg 0.09186(4) 0.28669(2) 0.62212(3)
C46 C 0.3794(16) 0.4797(9) 0.2295(15)
H38 H 0.3666 0.5101 0.1917
C47 C 0.3022(15) 0.4544(8) 0.2524(13)
H39 H 0.239 0.4679 0.2342
C48 C 0.4808(14) 0.4635(8) 0.2590(12)
H40 H 0.5309 0.4829 0.2412
Se1C Se 0.44350(9) 0.17798(5) 0.90336(8)
Hg2C Hg 0.34073(4) 0.25759(2) 0.27377(3)
loop_
_geom_bond_atom_site_label_1
_geom_bond_atom_site_label_2
_geom_bond_site_symmetry_1
_geom_bond_site_symmetry_2
C1 N2 1_555 1_555
C2 H1 1_555 1_555
C3 C2 1_555 1_555
H2 C3 1_555 1_555
C4 C3 1_555 1_555
H3 C4 1_555 1_555
C5 C4 1_555 1_555
H4 C5 1_555 1_555
C6 C5 1_555 1_555
H5 C6 1_555 1_555
C7 C8 1_555 1_555
C8 H6 1_555 1_555
C9 C7 1_555 1_555
H7 C9 1_555 1_555
C10 C11 1_555 1_555
C11 H8 1_555 1_555
C12 C11 1_555 1_555
H9 C12 1_555 1_555
C13 C12 1_555 1_555
H10 C13 1_555 1_555
C14 C13 1_555 1_555
H11 C14 1_555 1_555
C15 C10 1_555 1_555
H12 C15 1_555 1_555
C16 C17 1_555 1_555
C17 H13 1_555 1_555
C18 C17 1_555 1_555
H14 C18 1_555 1_555
C19 C18 1_555 1_555
H15 C19 1_555 1_555
C20 C19 1_555 1_555
H16 C20 1_555 1_555
C21 C16 1_555 1_555
H17 C21 1_555 1_555
C22 C23 1_555 1_555
C23 H18 1_555 1_555
C24 C23 1_555 1_555
H19 C24 1_555 1_555
C25 C24 1_555 1_555
H20 C25 1_555 1_555
C26 C25 1_555 1_555
H21 C26 1_555 1_555
C27 C22 1_555 1_555
H22 C27 1_555 1_555
C28 C29 1_555 1_555
C29 H23 1_555 1_555
C30 C29 1_555 1_555
H24 C30 1_555 1_555
C31 C30 1_555 1_555
H25 C31 1_555 1_555
C32 C31 1_555 1_555
H26 C32 1_555 1_555
C33 C28 1_555 1_555
H27 C33 1_555 1_555
C34 C35 1_555 1_555
C35 H28 1_555 1_555
C36 C35 1_555 1_555
H29 C36 1_555 1_555
C37 C36 1_555 1_555
H30 C37 1_555 1_555
C38 C37 1_555 1_555
H31 C38 1_555 1_555
C39 C34 1_555 1_555
H32 C39 1_555 1_555
C40 C41 1_555 1_555
C41 H33 1_555 1_555
C42 C41 1_555 1_555
H34 C42 1_555 1_555
C43 C42 1_555 1_555
H35 C43 1_555 1_555
C44 C43 1_555 1_555
H36 C44 1_555 1_555
C45 C40 1_555 1_555
H37 C45 1_555 1_555
N1 C2 1_555 1_555
S1 C1 1_555 1_555
Se1 C7 1_555 1_555
Se2 C10 1_555 1_555
Se3 C16 1_555 1_555
Se4 C22 1_555 1_555
Se5 C28 1_555 1_555
Se6 C34 1_555 1_555
Se7 C40 1_555 1_555
Hg1 Se1 1_555 1_555
Hg2 Se3 1_555 1_555
Hg3 S1 1_555 1_555
Hg4 N1 1_555 1_555
C46 H38 1_555 1_555
C47 C8 1_555 1_555
H39 C47 1_555 1_555
C48 C9 1_555 1_555
H40 C48 1_555 1_555
Se1C Hg2 1_555 1_555
Hg2C Se1 1_555 1_555
C6 N1 1_555 1_555
C14 C15 1_555 1_555
C20 C21 1_555 1_555
C26 C27 1_555 1_555
C32 C33 1_555 1_555
C38 C39 1_555 1_555
C44 C45 1_555 1_555
Se2 Hg1 1_555 1_555
Se2 Hg3 1_555 1_555
Se3 Hg1 1_555 1_555
Se4 Hg1 1_555 1_555
Se4 Hg4 1_555 1_555
Se5 Hg2 1_555 1_555
Se5 Hg3 1_555 1_555
Se6 Hg3 1_555 1_555
Se6 Hg4 1_555 1_555
Se7 Hg2 1_555 1_555
Se7 Hg4 1_555 1_555
C46 C47 1_555 1_555
C46 C48 1_555 1_555

#END
