
#######################################################################
#
#                 Cambridge Crystallographic Data Centre
#                                CCDC 
#
#######################################################################
#
# If this CIF has been generated from an entry in the Cambridge 
# Structural Database, then it will include bibliographic, chemical, 
# crystal, experimental, refinement or atomic coordinate data resulting 
# from the CCDC's data processing and validation procedures.
#
#######################################################################

data_AHIKIL01
_symmetry_cell_setting           monoclinic
_symmetry_space_group_name_H-M   'C 2/c'
_symmetry_Int_Tables_number      15
_space_group_name_Hall           '-C 2yn'
loop_
_symmetry_equiv_pos_site_id
_symmetry_equiv_pos_as_xyz
1 x,y,z
2 1/2+x,1/2+y,z
3 x,-y,1/2+z
4 1/2+x,1/2-y,1/2+z
5 -x,-y,-z
6 1/2-x,1/2-y,-z
7 -x,y,1/2-z
8 1/2-x,1/2+y,1/2-z
_cell_length_a                   11.449(2)
_cell_length_b                   7.9053(16)
_cell_length_c                   13.215(3)
_cell_angle_alpha                90
_cell_angle_beta                 100.65(3)
_cell_angle_gamma                90
_cell_volume                     1175.46
loop_
_atom_site_label
_atom_site_type_symbol
_atom_site_fract_x
_atom_site_fract_y
_atom_site_fract_z
Co1 Co 0.0000 0.70320(8) 0.2500
N1 N 0.0658(2) 0.9125(4) 0.3423(2)
O1 O 0.0392(2) 1.5085(3) 0.36157(18)
O2 O -0.1338(2) 1.3655(3) 0.3274(2)
O3 O -0.1747(2) 0.6904(4) 0.2835(2)
C1 C 0.1267(3) 0.8945(5) 0.4383(3)
H1 H 0.1504 0.7865 0.4614
C2 C 0.1562(3) 1.0303(5) 0.5048(3)
H2 H 0.2047 1.0165 0.5690
C3 C 0.1103(3) 1.1871(5) 0.4717(3)
H3 H 0.1245 1.2796 0.5157
C4 C 0.0426(3) 1.2081(4) 0.3726(2)
C5 C 0.0288(3) 1.0670(4) 0.3065(2)
C6 C -0.0225(3) 1.3743(4) 0.3508(2)
H4 H -0.171(6) 0.579(10) 0.292(5)
H5 H -0.224(4) 0.723(6) 0.254(4)
C5F C -0.0288(3) 1.0670(4) 0.1935(2)
N1F N -0.0658(2) 0.9125(4) 0.1577(2)
C1F C -0.1267(3) 0.8945(5) 0.0617(3)
H1F H -0.1504 0.7865 0.0386
C2F C -0.1562(3) 1.0303(5) -0.0048(3)
H2F H -0.2047 1.0165 -0.0690
C3F C -0.1103(3) 1.1871(5) 0.0283(3)
H3F H -0.1245 1.2796 -0.0157
C4F C -0.0426(3) 1.2081(4) 0.1274(2)
C6F C 0.0225(3) 1.3743(4) 0.1492(2)
O1F O -0.0392(2) 1.5085(3) 0.13843(18)
O2F O 0.1338(2) 1.3655(3) 0.1726(2)
O3F O 0.1747(2) 0.6904(4) 0.2165(2)
H4F H 0.171(6) 0.579(10) 0.208(5)
H5F H 0.224(4) 0.723(6) 0.246(4)
O1_2 O 0.0392(2) 0.5085(3) 0.36157(18)
O1F_2 O -0.0392(2) 0.5085(3) 0.13843(18)
Co1_2 Co 0.0000 1.70320(8) 0.2500
loop_
_geom_bond_atom_site_label_1
_geom_bond_atom_site_label_2
_geom_bond_site_symmetry_1
_geom_bond_site_symmetry_2
Co1 N1 1_555 1_555
N1 C1 1_555 1_555
O1 C6 1_555 1_555
O2 C6 1_555 1_555
O3 Co1 1_555 1_555
C1 H1 1_555 1_555
C2 C1 1_555 1_555
H2 C2 1_555 1_555
C3 C2 1_555 1_555
H3 C3 1_555 1_555
C4 C3 1_555 1_555
C5 N1 1_555 1_555
C6 C4 1_555 1_555
H4 O3 1_555 1_555
H5 O3 1_555 1_555
C5F C5 1_555 1_555
N1F Co1 1_555 1_555
C1F N1F 1_555 1_555
H1F C1F 1_555 1_555
C2F C1F 1_555 1_555
H2F C2F 1_555 1_555
C3F C2F 1_555 1_555
H3F C3F 1_555 1_555
C4F C5F 1_555 1_555
C6F C4F 1_555 1_555
O1F C6F 1_555 1_555
O2F C6F 1_555 1_555
O3F Co1 1_555 1_555
H4F O3F 1_555 1_555
H5F O3F 1_555 1_555
O1_2 Co1 1_555 1_555
O1F_2 Co1 1_555 1_555
Co1_2 O1 1_555 1_555
C4 C5 1_555 1_555
C5F N1F 1_555 1_555
C3F C4F 1_555 1_555
O1F Co1_2 1_555 1_555

#END
