
#######################################################################
#
#                 Cambridge Crystallographic Data Centre
#                                CCDC 
#
#######################################################################
#
# If this CIF has been generated from an entry in the Cambridge 
# Structural Database, then it will include bibliographic, chemical, 
# crystal, experimental, refinement or atomic coordinate data resulting 
# from the CCDC's data processing and validation procedures.
#
#######################################################################

data_AHIKIL
_symmetry_cell_setting           monoclinic
_symmetry_space_group_name_H-M   'C 2/c'
_symmetry_Int_Tables_number      15
_space_group_name_Hall           '-C 2yn'
loop_
_symmetry_equiv_pos_site_id
_symmetry_equiv_pos_as_xyz
1 x,y,z
2 1/2+x,1/2+y,z
3 x,-y,1/2+z
4 1/2+x,1/2-y,1/2+z
5 -x,-y,-z
6 1/2-x,1/2-y,-z
7 -x,y,1/2-z
8 1/2-x,1/2+y,1/2-z
_cell_length_a                   11.373(2)
_cell_length_b                   7.8632(16)
_cell_length_c                   13.162(3)
_cell_angle_alpha                90
_cell_angle_beta                 100.92(3)
_cell_angle_gamma                90
_cell_volume                     1155.74
loop_
_atom_site_label
_atom_site_type_symbol
_atom_site_fract_x
_atom_site_fract_y
_atom_site_fract_z
Co1 Co 0.0000 0.70340(7) 0.2500
O1 O -0.03905(17) 0.5087(2) 0.13819(15)
O2 O 0.13384(17) 0.3653(3) 0.17289(16)
O3 O -0.17466(17) 0.6908(3) 0.28347(16)
H1 H -0.2314 0.7276 0.2450
H2 H -0.1760 0.5889 0.2943
N1 N -0.06589(19) -0.0870(3) 0.15830(17)
C1 C -0.0290(2) 0.0679(3) 0.19373(18)
C2 C -0.0425(2) 0.2080(3) 0.12723(19)
C3 C -0.1105(2) 0.1878(4) 0.0281(2)
H3 H -0.1250 0.2807 -0.0162
C4 C -0.1562(2) 0.0300(4) -0.0043(2)
H4 H -0.2051 0.0159 -0.0688
C5 C -0.1275(2) -0.1053(4) 0.0615(2)
H5 H -0.1515 -0.2137 0.0381
C6 C 0.0224(2) 0.3746(3) 0.14944(18)
C1F C 0.0290(2) 0.0679(3) 0.30627(18)
N1F N 0.06589(19) -0.0870(3) 0.34170(17)
C5F C 0.1275(2) -0.1053(4) 0.4385(2)
C4F C 0.1562(2) 0.0300(4) 0.5043(2)
C3F C 0.1105(2) 0.1878(4) 0.4719(2)
C2F C 0.0425(2) 0.2080(3) 0.37277(19)
C6F C -0.0224(2) 0.3746(3) 0.35056(18)
O1F O 0.03905(17) 0.5087(2) 0.36181(15)
O2F O -0.13384(17) 0.3653(3) 0.32711(16)
H3F H 0.1250 0.2807 0.5162
H4F H 0.2051 0.0159 0.5688
H5F H 0.1515 -0.2137 0.4619
O3F O 0.17466(17) 0.6908(3) 0.21653(16)
H1F H 0.2314 0.7276 0.2550
H2F H 0.1760 0.5889 0.2057
N1_2 N -0.06589(19) 0.9130(3) 0.15830(17)
N1F_2 N 0.06589(19) 0.9130(3) 0.34170(17)
Co1_2 Co 0.0000 -0.29660(7) 0.2500
loop_
_geom_bond_atom_site_label_1
_geom_bond_atom_site_label_2
_geom_bond_site_symmetry_1
_geom_bond_site_symmetry_2
Co1 O1 1_555 1_555
O1 C6 1_555 1_555
O2 C6 1_555 1_555
O3 Co1 1_555 1_555
H1 O3 1_555 1_555
H2 O3 1_555 1_555
N1 C1 1_555 1_555
C1 C2 1_555 1_555
C2 C3 1_555 1_555
C3 H3 1_555 1_555
C4 C3 1_555 1_555
H4 C4 1_555 1_555
C5 N1 1_555 1_555
H5 C5 1_555 1_555
C6 C2 1_555 1_555
C1F C1 1_555 1_555
N1F C1F 1_555 1_555
C5F N1F 1_555 1_555
C4F C5F 1_555 1_555
C3F C4F 1_555 1_555
C2F C1F 1_555 1_555
C6F C2F 1_555 1_555
O1F Co1 1_555 1_555
O2F C6F 1_555 1_555
H3F C3F 1_555 1_555
H4F C4F 1_555 1_555
H5F C5F 1_555 1_555
O3F Co1 1_555 1_555
H1F O3F 1_555 1_555
H2F O3F 1_555 1_555
N1_2 Co1 1_555 1_555
N1F_2 Co1 1_555 1_555
Co1_2 N1 1_555 1_555
C4 C5 1_555 1_555
N1F Co1_2 1_555 1_555
C3F C2F 1_555 1_555
C6F O1F 1_555 1_555

#END
