
#######################################################################
#
#                 Cambridge Crystallographic Data Centre
#                                CCDC 
#
#######################################################################
#
# If this CIF has been generated from an entry in the Cambridge 
# Structural Database, then it will include bibliographic, chemical, 
# crystal, experimental, refinement or atomic coordinate data resulting 
# from the CCDC's data processing and validation procedures.
#
#######################################################################

data_AHIREP
_symmetry_cell_setting           monoclinic
_symmetry_space_group_name_H-M   'C c'
_symmetry_Int_Tables_number      9
_space_group_name_Hall           'C -2yc'
loop_
_symmetry_equiv_pos_site_id
_symmetry_equiv_pos_as_xyz
1 x,y,z
2 x,-y,1/2+z
3 1/2+x,1/2+y,z
4 1/2+x,1/2-y,1/2+z
_cell_length_a                   14.1241(4)
_cell_length_b                   44.1171(18)
_cell_length_c                   21.0763(7)
_cell_angle_alpha                90
_cell_angle_beta                 104.696(2)
_cell_angle_gamma                90
_cell_volume                     12703.3
loop_
_atom_site_label
_atom_site_type_symbol
_atom_site_fract_x
_atom_site_fract_y
_atom_site_fract_z
Ce1 Ce 0.46118(11) 0.381706(19) 0.80533(7)
Ce2 Ce 0.64822(11) 0.523994(19) 1.03727(7)
Ce3 Ce 0.72851(12) 0.27875(2) 1.01336(8)
Re1 Re 0.56246(10) 0.436912(13) 0.96910(7)
Re2 Re 0.81710(11) 0.194753(15) 1.07592(7)
O1 O 0.5886(8) 0.4186(2) 0.7792(5)
O2 O 0.7093(8) 0.5304(2) 0.9402(5)
O3 O 0.3686(7) 0.4244(2) 0.7522(5)
O4 O 0.4759(8) 0.5210(2) 0.9539(5)
O5 O 0.3409(8) 0.3873(3) 0.8839(5)
O6 O 0.3456(8) 0.4891(2) 1.0660(5)
O7 O 0.4831(10) 0.3434(3) 1.0150(6)
O8 O 0.4847(9) 0.4525(2) 1.1834(5)
O9 O 0.7072(7) 0.3323(2) 1.0386(5)
O10 O 0.7003(9) 0.4530(3) 1.1582(6)
O11 O 0.7533(8) 0.3762(3) 0.9131(5)
O12 O 0.8140(8) 0.4932(2) 1.0510(5)
O13 O 0.4494(8) 0.3254(2) 0.7984(6)
O14 O 0.2355(9) 0.2204(2) 0.6448(6)
O15 O 0.2839(8) 0.3675(3) 0.7518(5)
O16 O 0.0324(12) 0.2741(3) 0.5869(9)
O17 O 0.2731(9) 0.3985(2) 0.5952(6)
O18 O -0.0248(9) 0.3104(3) 0.4495(6)
O19 O 0.4286(10) 0.3924(3) 0.4845(5)
O20 O 0.1263(9) 0.2950(3) 0.3527(6)
O21 O 0.6135(9) 0.3477(3) 0.5246(6)
O22 O 0.3278(9) 0.2476(3) 0.4406(5)
O23 O 0.6080(8) 0.3150(2) 0.6836(5)
O24 O 0.3880(9) 0.2008(3) 0.5712(5)
O25 O 0.5136(8) 0.4259(2) 0.8862(5)
O26 O 0.6222(8) 0.4719(2) 0.9747(5)
O27 O 0.6458(8) 0.4100(3) 1.0081(5)
O28 O 0.4685(8) 0.4381(2) 1.0060(6)
O29 O 0.8138(9) 0.2345(2) 1.0714(5)
O30 O 0.7079(14) 0.1785(4) 1.0384(11)
O31 O 0.8458(14) 0.1838(4) 1.1561(5)
O32 O 0.9061(15) 0.1831(5) 1.0363(11)
O33 O 0.4343(9) 0.3738(3) 0.6848(5)
O34 O 0.6120(9) 0.3560(2) 0.7843(6)
O35 O 0.5581(8) 0.3595(3) 0.9133(5)
O36 O 0.7927(9) 0.5589(2) 1.0671(5)
O37 O 0.5991(9) 0.5754(3) 0.9834(5)
O38 O 0.5472(8) 0.4916(2) 1.0914(5)
O39 O 0.5640(9) 0.5571(2) 1.1025(5)
O40 O 0.7398(8) 0.5132(2) 1.1557(5)
O41 O 0.6309(10) 0.2343(3) 0.9657(7)
O42 O 0.5787(13) 0.2931(4) 0.9190(8)
O43 O 0.7590(13) 0.3118(3) 0.9234(7)
O44 O 0.5656(14) 0.2793(5) 1.0472(10)
N1 N 0.7192(10) 0.4508(3) 0.8207(6)
N2 N 0.5837(10) 0.4706(3) 0.7639(6)
N3 N 0.6254(10) 0.5150(3) 0.8367(6)
N4 N 0.7749(11) 0.4980(3) 0.8777(6)
N5 N 0.4081(10) 0.4757(3) 0.7565(6)
N6 N 0.2925(9) 0.4602(3) 0.8021(6)
N7 N 0.3374(9) 0.4994(3) 0.8874(6)
N8 N 0.4540(10) 0.5145(3) 0.8410(6)
N9 N 0.2448(11) 0.4306(3) 0.8862(7)
N10 N 0.2766(10) 0.3999(3) 0.9726(7)
N11 N 0.2696(12) 0.4418(3) 1.0448(8)
N12 N 0.2659(9) 0.4728(3) 0.9635(6)
N13 N 0.3793(10) 0.3717(3) 1.0620(6)
N14 N 0.5283(11) 0.3544(3) 1.1248(7)
N15 N 0.5304(11) 0.4012(3) 1.1890(7)
N16 N 0.3770(11) 0.4145(4) 1.1362(7)
N17 N 0.6990(10) 0.3532(3) 1.1370(7)
N18 N 0.8165(9) 0.3686(3) 1.0931(7)
N19 N 0.8166(9) 0.4177(3) 1.1419(6)
N20 N 0.6984(11) 0.4023(4) 1.1890(7)
N21 N 0.8642(9) 0.3960(3) 1.0041(7)
N22 N 0.8245(10) 0.4225(3) 0.9096(7)
N23 N 0.8731(10) 0.4698(3) 0.9705(7)
N24 N 0.8788(10) 0.4439(3) 1.0614(6)
N25 N 0.4551(9) 0.2743(3) 0.7794(7)
N26 N 0.3259(10) 0.2910(3) 0.8062(7)
N27 N 0.2358(10) 0.2526(3) 0.7336(7)
N28 N 0.3741(9) 0.2285(3) 0.7283(7)
N29 N 0.1941(9) 0.3263(3) 0.7669(7)
N30 N 0.1277(10) 0.3597(3) 0.6868(8)
N31 N 0.0167(10) 0.3215(3) 0.6293(8)
N32 N 0.1002(11) 0.2862(3) 0.6942(9)
N33 N 0.1150(11) 0.3850(3) 0.5851(8)
N34 N 0.1626(10) 0.3932(3) 0.4947(7)
N35 N 0.0373(14) 0.3581(4) 0.4339(8)
N36 N -0.0091(11) 0.3498(4) 0.5251(8)
N37 N 0.2686(11) 0.3828(3) 0.4266(7)
N38 N 0.3925(12) 0.3590(3) 0.3987(6)
N39 N 0.2735(16) 0.3178(3) 0.3560(8)
N40 N 0.1470(12) 0.3465(3) 0.3641(8)
N41 N 0.5306(11) 0.3240(3) 0.4270(6)
N42 N 0.6045(11) 0.2957(3) 0.5094(7)
N43 N 0.4965(14) 0.2528(4) 0.4713(8)
N44 N 0.4074(12) 0.2838(3) 0.3993(6)
N45 N 0.6203(9) 0.2732(3) 0.6199(7)
N46 N 0.5645(9) 0.2664(3) 0.7066(6)
N47 N 0.4905(9) 0.2161(3) 0.6674(6)
N48 N 0.5293(12) 0.2277(4) 0.5753(8)
C1 C 0.6278(11) 0.4448(4) 0.7882(7)
C2 C 0.6413(13) 0.4961(4) 0.7816(8)
H1 H 0.6432 0.5085 0.7433
C3 C 0.7461(12) 0.4825(3) 0.8160(7)
H2 H 0.7933 0.4852 0.7895
C4 C 0.6982(15) 0.5159(4) 0.8868(10)
C5 C 0.4840(11) 0.4723(4) 0.7218(7)
H3 H 0.4802 0.4894 0.6922
H4 H 0.4710 0.4541 0.6954
C6 C 0.5368(11) 0.5316(3) 0.8337(8)
H5 H 0.5509 0.5469 0.8677
H6 H 0.5184 0.5420 0.7919
C7 C 0.3617(12) 0.4507(4) 0.7682(7)
C8 C 0.2986(15) 0.4912(5) 0.8147(9)
H7 H 0.2365 0.5015 0.7952
C9 C 0.3800(12) 0.5033(4) 0.7877(8)
H8 H 0.3562 0.5192 0.7551
C10 C 0.4280(14) 0.5126(4) 0.8980(9)
C11 C 0.2283(11) 0.4376(4) 0.8182(7)
H9 H 0.1613 0.4445 0.8022
H10 H 0.2350 0.4191 0.7949
C12 C 0.2758(11) 0.5010(4) 0.9300(8)
H11 H 0.2114 0.5075 0.9051
H12 H 0.3008 0.5165 0.9627
C13 C 0.2942(10) 0.4046(4) 0.9122(7)
C14 C 0.2236(11) 0.4250(4) 0.9936(8)
H13 H 0.1598 0.4182 0.9986
C15 C 0.2112(12) 0.4465(4) 0.9372(9)
H14 H 0.1419 0.4519 0.9208
C16 C 0.3012(12) 0.4691(4) 1.0275(8)
C17 C 0.3012(12) 0.3715(4) 1.0071(9)
H15 H 0.2439 0.3645 1.0202
H16 H 0.3150 0.3568 0.9765
C18 C 0.2948(13) 0.4320(4) 1.1171(8)
H17 H 0.3035 0.4500 1.1443
H18 H 0.2398 0.4208 1.1250
C19 C 0.4632(14) 0.3567(4) 1.0627(8)
C20 C 0.4846(14) 0.3734(4) 1.1705(8)
H19 H 0.4801 0.3616 1.2091
C21 C 0.3823(13) 0.3818(4) 1.1284(8)
H20 H 0.3314 0.3716 1.1447
C22 C 0.4629(13) 0.4259(4) 1.1696(8)
C23 C 0.6110(13) 0.3359(4) 1.1412(8)
H21 H 0.6023 0.3188 1.1115
H22 H 0.6196 0.3283 1.1854
C24 C 0.6334(14) 0.4047(5) 1.2270(8)
H23 H 0.6413 0.4243 1.2483
H24 H 0.6483 0.3893 1.2609
C25 C 0.7341(14) 0.3500(4) 1.0837(8)
C26 C 0.8307(14) 0.3853(4) 1.1531(7)
H25 H 0.8958 0.3812 1.1818
C27 C 0.7568(14) 0.3753(4) 1.1833(8)
H26 H 0.7853 0.3661 1.2262
C28 C 0.7333(13) 0.4269(4) 1.1620(8)
C29 C 0.8763(11) 0.3674(4) 1.0447(8)
H27 H 0.8567 0.3500 1.0161
H28 H 0.9447 0.3649 1.0676
C30 C 0.8903(15) 0.4381(4) 1.1301(9)
H29 H 0.8867 0.4572 1.1524
H30 H 0.9545 0.4295 1.1484
C31 C 0.8081(11) 0.3954(3) 0.9410(8)
C32 C 0.9012(13) 0.4394(4) 0.9529(8)
H31 H 0.9603 0.4401 0.9368
C33 C 0.9207(12) 0.4233(4) 1.0211(8)
H32 H 0.9903 0.4192 1.0402
C34 C 0.8456(11) 0.4710(4) 1.0269(7)
C35 C 0.7916(13) 0.4272(4) 0.8410(7)
H33 H 0.7644 0.4083 0.8207
H34 H 0.8478 0.4321 0.8244
C36 C 0.8680(11) 0.4950(3) 0.9271(8)
H35 H 0.9200 0.4930 0.9048
H36 H 0.8798 0.5135 0.9529
C37 C 0.4156(12) 0.2999(4) 0.7947(9)
C38 C 0.3043(12) 0.2605(3) 0.7911(9)
H37 H 0.2858 0.2509 0.8282
C39 C 0.4023(12) 0.2463(4) 0.7846(9)
H38 H 0.4346 0.2343 0.8233
C40 C 0.2805(15) 0.2324(4) 0.6963(9)
C41 C 0.2634(12) 0.3140(4) 0.8246(8)
H39 H 0.3039 0.3303 0.8480
H40 H 0.2278 0.3051 0.8537
C42 C 0.1371(17) 0.2578(4) 0.7213(12)
H41 H 0.1186 0.2554 0.7623
H42 H 0.1039 0.2421 0.6918
C43 C 0.2075(12) 0.3528(4) 0.7367(8)
C44 C 0.0490(12) 0.3370(4) 0.6868(9)
H43 H -0.0060 0.3467 0.6993
C45 C 0.0940(13) 0.3136(4) 0.7356(11)
H44 H 0.0558 0.3098 0.7676
C46 C 0.0486(13) 0.2900(5) 0.6387(10)
C47 C 0.1146(13) 0.3874(4) 0.6532(8)
H45 H 0.1663 0.4012 0.6748
H46 H 0.0528 0.3961 0.6560
C48 C -0.0554(15) 0.3327(5) 0.5703(12)
H47 H -0.1021 0.3457 0.5838
H48 H -0.0912 0.3156 0.5470
C49 C 0.1878(12) 0.3926(4) 0.5604(8)
C50 C 0.0588(13) 0.3855(4) 0.4730(9)
H49 H 0.0232 0.4026 0.4480
C51 C 0.0228(11) 0.3803(4) 0.5290(10)
H50 H -0.0295 0.3945 0.5315
C52 C 0.0034(18) 0.3376(6) 0.4704(13)
C53 C 0.2229(15) 0.4058(4) 0.4534(9)
H51 H 0.1819 0.4177 0.4183
H52 H 0.2722 0.4192 0.4796
C54 C 0.0404(16) 0.3526(6) 0.3693(10)
H53 H 0.0138 0.3699 0.3423
H54 H -0.0001 0.3351 0.3526
C55 C 0.368(2) 0.3785(4) 0.4403(10)
C56 C 0.3075(15) 0.3487(4) 0.3510(11)
H55 H 0.3147 0.3524 0.3066
C57 C 0.2213(15) 0.3679(4) 0.3636(9)
H56 H 0.1989 0.3829 0.3287
C58 C 0.1774(17) 0.3174(4) 0.3620(10)
C59 C 0.4866(14) 0.3523(4) 0.3959(9)
H57 H 0.5285 0.3689 0.4159
H58 H 0.4875 0.3516 0.3501
C60 C 0.3266(13) 0.2935(4) 0.3423(10)
H59 H 0.3542 0.2988 0.3061
H60 H 0.2826 0.2765 0.3283
C61 C 0.5838(13) 0.3249(4) 0.4900(9)
C62 C 0.5706(13) 0.2741(4) 0.4590(8)
H61 H 0.6234 0.2642 0.4443
C63 C 0.5028(16) 0.2942(4) 0.4048(9)
H62 H 0.5197 0.2909 0.3631
C64 C 0.4055(13) 0.2601(4) 0.4370(7)
C65 C 0.6694(13) 0.2872(4) 0.5748(8)
H63 H 0.7191 0.2733 0.5678
H64 H 0.7025 0.3053 0.5953
C66 C 0.5214(16) 0.2248(4) 0.5037(8)
H65 H 0.5834 0.2178 0.4972
H66 H 0.4720 0.2098 0.4849
C67 C 0.5969(11) 0.2875(4) 0.6712(7)
C68 C 0.5807(12) 0.2361(4) 0.6874(9)
H67 H 0.6330 0.2261 0.7203
C69 C 0.6101(12) 0.2408(4) 0.6217(8)
H68 H 0.6716 0.2304 0.6219
C70 C 0.4666(12) 0.2148(4) 0.6041(9)
C71 C 0.5613(10) 0.2737(3) 0.7746(7)
H69 H 0.5914 0.2933 0.7871
H70 H 0.5977 0.2586 0.8045
C72 C 0.4370(12) 0.2051(4) 0.7073(8)
H71 H 0.4811 0.1965 0.7460
H72 H 0.3955 0.1889 0.6847
Ce3C Ce 0.22851(12) 0.22125(2) 0.51336(8)
O14C O 0.7355(9) 0.2796(2) 1.1448(6)
O22C O 0.8278(9) 0.2524(3) 0.9406(5)
O24C O 0.8880(9) 0.2992(3) 1.0712(5)
Re3 Re 0.24034(11) 0.176907(15) 0.85254(7)
O45 O 0.2785(10) 0.1549(4) 0.9197(7)
O46 O 0.2223(13) 0.2126(3) 0.8782(8)
O47 O 0.1319(9) 0.1632(3) 0.8037(7)
O48 O 0.3206(9) 0.1783(3) 0.8035(5)
Re4 Re 0.86128(11) 0.279404(17) 0.75954(7)
O49 O 0.7754(11) 0.2839(3) 0.8070(7)
O50 O 0.8248(13) 0.2504(4) 0.7013(7)
O51 O 0.8649(9) 0.3121(3) 0.7167(6)
O52 O 0.9718(8) 0.2718(3) 0.8087(7)
Re5 Re 0.03891(11) 0.356138(19) 0.89074(7)
O53 O 0.0672(16) 0.3749(6) 0.8212(11)
O54 O -0.0661(14) 0.3394(5) 0.8620(11)
O55 O 0.0358(11) 0.3825(4) 0.9457(7)
O56 O 0.1303(10) 0.3303(3) 0.9205(7)
Re6 Re 0.64081(12) 0.14427(3) 0.66833(8)
O57 O 0.7039(15) 0.1795(3) 0.6808(14)
O58 O 0.6119(17) 0.1354(6) 0.5859(5)
O59 O 0.7218(13) 0.1171(4) 0.7139(9)
O60 O 0.5379(9) 0.1470(4) 0.6984(9)
Re7 Re 0.91481(14) 0.44009(2) 1.32130(8)
O61 O 0.9406(13) 0.4095(3) 1.2802(7)
O62 O 1.0155(13) 0.4520(5) 1.3798(9)
O63 O 0.8715(13) 0.4692(3) 1.2679(7)
O64 O 0.8243(16) 0.4306(6) 1.3601(13)
Re8 Re 1.09943(12) 0.51897(3) 1.08196(9)
O65 O 1.1779(15) 0.5157(6) 1.1573(7)
O66 O 0.9937(9) 0.5368(5) 1.0854(10)
O67 O 1.1637(16) 0.5419(4) 1.0410(12)
O68 O 1.0827(17) 0.4842(3) 1.0433(9)
Re9 Re 0.8666(5) 0.23613(18) 0.5389(3)
O69 O 0.9371(12) 0.2173(4) 0.6066(7)
O70 O 0.837(3) 0.2724(4) 0.5612(14)
O71 O 0.7579(16) 0.2159(6) 0.5069(16)
O72 O 0.931(2) 0.2391(10) 0.4783(11)
O73 O 0.5920(8) 0.3831(2) 0.6260(5)
O74 O 0.7659(11) 0.3697(3) 0.7200(7)
O75 O 0.786(3) 0.6173(7) 1.0467(17)
O76 O 0.3736(9) 0.5505(3) 1.0781(6)
O77 O 0.9267(15) 0.5341(5) 1.2071(10)
O78 O 0.9296(12) 0.4041(3) 0.7230(10)
O79 O 1.0261(19) 0.5206(6) 1.3338(13)
O80 O 0.8899(18) 0.0881(5) 0.7928(11)
loop_
_geom_bond_atom_site_label_1
_geom_bond_atom_site_label_2
_geom_bond_site_symmetry_1
_geom_bond_site_symmetry_2
Ce1 O1 1_555 1_555
Ce2 O2 1_555 1_555
Ce3 O9 1_555 1_555
Re1 O25 1_555 1_555
Re2 O29 1_555 1_555
O1 C1 1_555 1_555
O2 C4 1_555 1_555
O3 Ce1 1_555 1_555
O4 Ce2 1_555 1_555
O5 Ce1 1_555 1_555
O6 C16 1_555 1_555
O7 C19 1_555 1_555
O8 C22 1_555 1_555
O9 C25 1_555 1_555
O10 C28 1_555 1_555
O11 C31 1_555 1_555
O12 Ce2 1_555 1_555
O13 Ce1 1_555 1_555
O14 C40 1_555 1_555
O15 Ce1 1_555 1_555
O16 C46 1_555 1_555
O17 C49 1_555 1_555
O18 C52 1_555 1_555
O19 C55 1_555 1_555
O20 C58 1_555 1_555
O21 C61 1_555 1_555
O22 C64 1_555 1_555
O23 C67 1_555 1_555
O24 C70 1_555 1_555
O25 Ce1 1_555 1_555
O26 Ce2 1_555 1_555
O27 Re1 1_555 1_555
O28 Re1 1_555 1_555
O29 Ce3 1_555 1_555
O30 Re2 1_555 1_555
O31 Re2 1_555 1_555
O32 Re2 1_555 1_555
O33 Ce1 1_555 1_555
O34 Ce1 1_555 1_555
O35 Ce1 1_555 1_555
O36 Ce2 1_555 1_555
O37 Ce2 1_555 1_555
O38 Ce2 1_555 1_555
O39 Ce2 1_555 1_555
O40 Ce2 1_555 1_555
O41 Ce3 1_555 1_555
O42 Ce3 1_555 1_555
O43 Ce3 1_555 1_555
O44 Ce3 1_555 1_555
N1 C1 1_555 1_555
N2 C1 1_555 1_555
N3 C2 1_555 1_555
N4 C3 1_555 1_555
N5 C5 1_555 1_555
N6 C7 1_555 1_555
N7 C8 1_555 1_555
N8 C6 1_555 1_555
N9 C11 1_555 1_555
N10 C13 1_555 1_555
N11 C14 1_555 1_555
N12 C12 1_555 1_555
N13 C17 1_555 1_555
N14 C19 1_555 1_555
N15 C20 1_555 1_555
N16 C18 1_555 1_555
N17 C23 1_555 1_555
N18 C25 1_555 1_555
N19 C26 1_555 1_555
N20 C24 1_555 1_555
N21 C29 1_555 1_555
N22 C31 1_555 1_555
N23 C32 1_555 1_555
N24 C30 1_555 1_555
N25 C37 1_555 1_555
N26 C37 1_555 1_555
N27 C38 1_555 1_555
N28 C39 1_555 1_555
N29 C41 1_555 1_555
N30 C43 1_555 1_555
N31 C44 1_555 1_555
N32 C42 1_555 1_555
N33 C47 1_555 1_555
N34 C49 1_555 1_555
N35 C50 1_555 1_555
N36 C48 1_555 1_555
N37 C53 1_555 1_555
N38 C55 1_555 1_555
N39 C56 1_555 1_555
N40 C54 1_555 1_555
N41 C59 1_555 1_555
N42 C61 1_555 1_555
N43 C62 1_555 1_555
N44 C60 1_555 1_555
N45 C65 1_555 1_555
N46 C67 1_555 1_555
N47 C68 1_555 1_555
N48 C66 1_555 1_555
C2 N2 1_555 1_555
H1 C2 1_555 1_555
C3 N1 1_555 1_555
H2 C3 1_555 1_555
C4 N3 1_555 1_555
C5 N2 1_555 1_555
H3 C5 1_555 1_555
H4 C5 1_555 1_555
C6 N3 1_555 1_555
H5 C6 1_555 1_555
H6 C6 1_555 1_555
C7 O3 1_555 1_555
C8 N6 1_555 1_555
H7 C8 1_555 1_555
C9 N5 1_555 1_555
H8 C9 1_555 1_555
C10 O4 1_555 1_555
C11 N6 1_555 1_555
H9 C11 1_555 1_555
H10 C11 1_555 1_555
C12 N7 1_555 1_555
H11 C12 1_555 1_555
H12 C12 1_555 1_555
C13 O5 1_555 1_555
C14 N10 1_555 1_555
H13 C14 1_555 1_555
C15 N9 1_555 1_555
H14 C15 1_555 1_555
C16 N11 1_555 1_555
C17 N10 1_555 1_555
H15 C17 1_555 1_555
H16 C17 1_555 1_555
C18 N11 1_555 1_555
H17 C18 1_555 1_555
H18 C18 1_555 1_555
C19 N13 1_555 1_555
C20 N14 1_555 1_555
H19 C20 1_555 1_555
C21 N13 1_555 1_555
H20 C21 1_555 1_555
C22 N15 1_555 1_555
C23 N14 1_555 1_555
H21 C23 1_555 1_555
H22 C23 1_555 1_555
C24 N15 1_555 1_555
H23 C24 1_555 1_555
H24 C24 1_555 1_555
C25 N17 1_555 1_555
C26 N18 1_555 1_555
H25 C26 1_555 1_555
C27 N17 1_555 1_555
H26 C27 1_555 1_555
C28 N19 1_555 1_555
C29 N18 1_555 1_555
H27 C29 1_555 1_555
H28 C29 1_555 1_555
C30 N19 1_555 1_555
H29 C30 1_555 1_555
H30 C30 1_555 1_555
C31 N21 1_555 1_555
C32 N22 1_555 1_555
H31 C32 1_555 1_555
C33 N21 1_555 1_555
H32 C33 1_555 1_555
C34 O12 1_555 1_555
C35 N1 1_555 1_555
H33 C35 1_555 1_555
H34 C35 1_555 1_555
C36 N4 1_555 1_555
H35 C36 1_555 1_555
H36 C36 1_555 1_555
C37 O13 1_555 1_555
C38 N26 1_555 1_555
H37 C38 1_555 1_555
C39 N25 1_555 1_555
H38 C39 1_555 1_555
C40 N27 1_555 1_555
C41 N26 1_555 1_555
H39 C41 1_555 1_555
H40 C41 1_555 1_555
C42 N27 1_555 1_555
H41 C42 1_555 1_555
H42 C42 1_555 1_555
C43 O15 1_555 1_555
C44 N30 1_555 1_555
H43 C44 1_555 1_555
C45 N29 1_555 1_555
H44 C45 1_555 1_555
C46 N31 1_555 1_555
C47 N30 1_555 1_555
H45 C47 1_555 1_555
H46 C47 1_555 1_555
C48 N31 1_555 1_555
H47 C48 1_555 1_555
H48 C48 1_555 1_555
C49 N33 1_555 1_555
C50 N34 1_555 1_555
H49 C50 1_555 1_555
C51 N33 1_555 1_555
H50 C51 1_555 1_555
C52 N35 1_555 1_555
C53 N34 1_555 1_555
H51 C53 1_555 1_555
H52 C53 1_555 1_555
C54 N35 1_555 1_555
H53 C54 1_555 1_555
H54 C54 1_555 1_555
C55 N37 1_555 1_555
C56 N38 1_555 1_555
H55 C56 1_555 1_555
C57 N37 1_555 1_555
H56 C57 1_555 1_555
C58 N39 1_555 1_555
C59 N38 1_555 1_555
H57 C59 1_555 1_555
H58 C59 1_555 1_555
C60 N39 1_555 1_555
H59 C60 1_555 1_555
H60 C60 1_555 1_555
C61 N41 1_555 1_555
C62 N42 1_555 1_555
H61 C62 1_555 1_555
C63 N41 1_555 1_555
H62 C63 1_555 1_555
C64 N43 1_555 1_555
C65 N42 1_555 1_555
H63 C65 1_555 1_555
H64 C65 1_555 1_555
C66 N43 1_555 1_555
H65 C66 1_555 1_555
H66 C66 1_555 1_555
C67 N45 1_555 1_555
C68 N46 1_555 1_555
H67 C68 1_555 1_555
C69 N45 1_555 1_555
H68 C69 1_555 1_555
C70 N47 1_555 1_555
C71 N25 1_555 1_555
H69 C71 1_555 1_555
H70 C71 1_555 1_555
C72 N28 1_555 1_555
H71 C72 1_555 1_555
H72 C72 1_555 1_555
Re3 O45 1_555 1_555
O46 Re3 1_555 1_555
O47 Re3 1_555 1_555
O48 Re3 1_555 1_555
Re4 O49 1_555 1_555
O50 Re4 1_555 1_555
O51 Re4 1_555 1_555
O52 Re4 1_555 1_555
Re5 O53 1_555 1_555
O54 Re5 1_555 1_555
O55 Re5 1_555 1_555
O56 Re5 1_555 1_555
Re6 O57 1_555 1_555
O58 Re6 1_555 1_555
O59 Re6 1_555 1_555
O60 Re6 1_555 1_555
Re7 O61 1_555 1_555
O62 Re7 1_555 1_555
O63 Re7 1_555 1_555
O64 Re7 1_555 1_555
Re8 O65 1_555 1_555
O66 Re8 1_555 1_555
O67 Re8 1_555 1_555
O68 Re8 1_555 1_555
Re9 O69 1_555 1_555
O70 Re9 1_555 1_555
O71 Re9 1_555 1_555
O72 Re9 1_555 1_555
Ce3C O14 1_555 1_555
O14C Ce3 1_555 1_555
O22C Ce3 1_555 1_555
O24C Ce3 1_555 1_555
Re1 O26 1_555 1_555
O22 Ce3C 1_555 1_555
O24 Ce3C 1_555 1_555
N4 C4 1_555 1_555
N5 C7 1_555 1_555
N7 C10 1_555 1_555
N8 C9 1_555 1_555
N8 C10 1_555 1_555
N9 C13 1_555 1_555
N12 C15 1_555 1_555
N12 C16 1_555 1_555
N16 C21 1_555 1_555
N16 C22 1_555 1_555
N20 C27 1_555 1_555
N20 C28 1_555 1_555
N22 C35 1_555 1_555
N23 C34 1_555 1_555
N23 C36 1_555 1_555
N24 C33 1_555 1_555
N24 C34 1_555 1_555
N28 C40 1_555 1_555
N29 C43 1_555 1_555
N32 C45 1_555 1_555
N32 C46 1_555 1_555
N36 C51 1_555 1_555
N36 C52 1_555 1_555
N40 C57 1_555 1_555
N40 C58 1_555 1_555
N44 C63 1_555 1_555
N44 C64 1_555 1_555
N46 C71 1_555 1_555
N47 C72 1_555 1_555
N48 C69 1_555 1_555
N48 C70 1_555 1_555
C2 C3 1_555 1_555
C8 C9 1_555 1_555
C14 C15 1_555 1_555
C20 C21 1_555 1_555
C26 C27 1_555 1_555
C32 C33 1_555 1_555
C38 C39 1_555 1_555
C44 C45 1_555 1_555
C50 C51 1_555 1_555
C56 C57 1_555 1_555
C62 C63 1_555 1_555
C68 C69 1_555 1_555

#END
