
#######################################################################
#
#                 Cambridge Crystallographic Data Centre
#                                CCDC 
#
#######################################################################
#
# If this CIF has been generated from an entry in the Cambridge 
# Structural Database, then it will include bibliographic, chemical, 
# crystal, experimental, refinement or atomic coordinate data resulting 
# from the CCDC's data processing and validation procedures.
#
#######################################################################

data_AHIZIB
_symmetry_cell_setting           orthorhombic
_symmetry_space_group_name_H-M   'P 21 21 21'
_symmetry_Int_Tables_number      19
_space_group_name_Hall           'P 2ac 2ab'
loop_
_symmetry_equiv_pos_site_id
_symmetry_equiv_pos_as_xyz
1 x,y,z
2 1/2-x,-y,1/2+z
3 -x,1/2+y,1/2-z
4 1/2+x,1/2-y,-z
_cell_length_a                   7.789(2)
_cell_length_b                   17.352(3)
_cell_length_c                   31.176(6)
_cell_angle_alpha                90
_cell_angle_beta                 90
_cell_angle_gamma                90
_cell_volume                     4213.58
loop_
_atom_site_label
_atom_site_type_symbol
_atom_site_fract_x
_atom_site_fract_y
_atom_site_fract_z
Mn1 Mn -0.99263(16) 0.98353(7) 0.38648(5)
Mn2 Mn -1.10201(16) 1.16739(7) 0.38916(5)
Mn3 Mn -0.88269(16) 1.09768(7) 0.30663(5)
Br1 Br -1.04659(19) 0.77133(6) 0.59277(4)
Br2 Br -1.07934(18) 1.59380(6) 0.41046(4)
Br3 Br -0.39903(14) 0.91492(6) 0.12695(4)
C1 C -1.0200(12) 0.8641(5) 0.4514(3)
C2 C -0.9727(12) 0.7878(5) 0.4619(3)
H1 H -0.9374 0.7547 0.4402
C3 C -0.9776(13) 0.7618(5) 0.5028(4)
H2 H -0.9392 0.7123 0.5091
C4 C -1.0396(13) 0.8085(5) 0.5353(3)
C5 C -1.0902(15) 0.8823(5) 0.5272(4)
H3 H -1.1300 0.9133 0.5494
C6 C -1.0822(11) 0.9118(5) 0.4848(3)
C7 C -1.1312(12) 0.9912(5) 0.4768(3)
C8 C -1.2075(14) 1.0453(5) 0.5025(3)
H4 H -1.2408 1.0392 0.5310
C9 C -1.2251(13) 1.1110(5) 0.4774(3)
H5 H -1.2768 1.1567 0.4862
C10 C -1.1740(11) 1.3276(5) 0.4126(4)
C11 C -1.2284(13) 1.3750(6) 0.4464(4)
H6 H -1.2788 1.3526 0.4704
C12 C -1.2088(14) 1.4538(5) 0.4450(4)
H7 H -1.2527 1.4849 0.4667
C13 C -1.1229(13) 1.4854(5) 0.4108(4)
C14 C -1.0695(12) 1.4413(5) 0.3764(4)
H8 H -1.0181 1.4646 0.3528
C15 C -1.0933(12) 1.3612(5) 0.3771(4)
C16 C -1.0294(12) 1.3151(5) 0.3411(4)
C17 C -0.9629(13) 1.3357(5) 0.3014(4)
H9 H -0.9539 1.3850 0.2898
C18 C -0.9140(13) 1.2683(5) 0.2830(4)
H10 H -0.8638 1.2647 0.2560
C19 C -0.7008(12) 1.0632(5) 0.2276(3)
C20 C -0.6387(12) 1.0956(6) 0.1874(3)
H11 H -0.6597 1.1470 0.1809
C21 C -0.5524(11) 1.0518(6) 0.1602(3)
H12 H -0.5081 1.0739 0.1353
C22 C -0.5261(11) 0.9733(6) 0.1677(3)
C23 C -0.5889(12) 0.9409(5) 0.2034(3)
H13 H -0.5732 0.8884 0.2080
C24 C -0.6782(11) 0.9848(5) 0.2343(3)
C25 C -0.7493(11) 0.9458(5) 0.2729(3)
C26 C -0.7480(13) 0.8697(5) 0.2844(4)
H14 H -0.7024 0.8285 0.2691
C27 C -0.8298(11) 0.8677(5) 0.3239(3)
H15 H -0.8493 0.8235 0.3401
C28 C -1.3659(13) 0.9108(6) 0.3498(4)
H16 H -1.4829 0.9269 0.3439
H17 H -1.3635 0.8874 0.3781
C29 C -1.3121(15) 0.8542(7) 0.3178(6)
H18 H -1.3868 0.8103 0.3190
H19 H -1.1964 0.8384 0.3236
H20 H -1.3178 0.8769 0.2898
C30 C -0.6010(18) 1.0118(6) 0.4415(4)
H21 H -0.6334 1.0476 0.4640
H22 H -0.4885 1.0268 0.4311
C31 C -0.5896(17) 0.9333(6) 0.4600(4)
H23 H -0.5091 0.9333 0.4833
H24 H -0.5518 0.8979 0.4383
H25 H -0.7005 0.9178 0.4703
C32 C -1.4876(12) 1.1478(5) 0.3420(3)
C33 C -1.4677(15) 1.2175(7) 0.3128(4)
H26 H -1.5762 1.2293 0.2997
H27 H -1.3848 1.2063 0.2909
H28 H -1.4295 1.2609 0.3294
C34 C -0.7649(16) 1.2481(7) 0.4317(6)
H29 H -0.8344 1.2804 0.4503
H30 H -0.7524 1.2746 0.4045
C35 C -0.5911(15) 1.2386(6) 0.4515(5)
H31 H -0.5392 1.2884 0.4554
H32 H -0.5203 1.2078 0.4331
H33 H -0.6023 1.2137 0.4789
C36 C -1.1884(19) 1.0604(8) 0.2345(5)
H34 H -1.3064 1.0428 0.2330
H35 H -1.1166 1.0201 0.2226
C37 C -1.1709(17) 1.1294(8) 0.2078(4)
H36 H -1.2003 1.1170 0.1787
H37 H -1.0545 1.1474 0.2090
H38 H -1.2464 1.1688 0.2183
N1 N -1.1014(10) 1.0256(4) 0.4388(3)
N2 N -1.1572(9) 1.0986(4) 0.4395(3)
N3 N -1.0221(9) 1.2379(4) 0.3437(3)
N4 N -0.9454(9) 1.2088(4) 0.3077(3)
N5 N -0.8270(9) 0.9876(4) 0.3031(3)
N6 N -0.8761(10) 0.9387(4) 0.3352(3)
O1 O -1.0080(8) 0.8867(3) 0.4104(2)
O2 O -1.1983(9) 1.2515(4) 0.4168(2)
O3 O -0.7797(8) 1.1120(3) 0.2533(2)
O4 O -0.9928(7) 1.0830(3) 0.36103(18)
O5 O -1.2552(8) 0.9765(4) 0.3492(2)
H39 H -1.2859 1.0152 0.3344
O6 O -0.7178(9) 1.0177(6) 0.4082(3)
H40 H -0.6712 1.0432 0.3881
O7 O -1.3570(8) 1.1238(3) 0.3619(2)
O8 O -0.8466(11) 1.1824(4) 0.4252(3)
H41 H -0.8003 1.1418 0.4352
O9 O -1.1461(10) 1.0698(4) 0.2763(3)
H42 H -1.2289 1.0650 0.2939
O10 O -1.6322(7) 1.1168(4) 0.3448(2)
Mn3_2 Mn -1.88269(16) 1.09768(7) 0.30663(5)
O10_2 O -0.6322(7) 1.1168(4) 0.3448(2)
loop_
_geom_bond_atom_site_label_1
_geom_bond_atom_site_label_2
_geom_bond_site_symmetry_1
_geom_bond_site_symmetry_2
Mn1 N1 1_555 1_555
Mn2 N2 1_555 1_555
Mn3 N4 1_555 1_555
Br1 C4 1_555 1_555
Br2 C13 1_555 1_555
Br3 C22 1_555 1_555
C1 C2 1_555 1_555
C2 H1 1_555 1_555
C3 C2 1_555 1_555
H2 C3 1_555 1_555
C4 C3 1_555 1_555
C5 C4 1_555 1_555
H3 C5 1_555 1_555
C6 C1 1_555 1_555
C7 C6 1_555 1_555
C8 C7 1_555 1_555
H4 C8 1_555 1_555
C9 C8 1_555 1_555
H5 C9 1_555 1_555
C10 C11 1_555 1_555
C11 H6 1_555 1_555
C12 C11 1_555 1_555
H7 C12 1_555 1_555
C13 C12 1_555 1_555
C14 C13 1_555 1_555
H8 C14 1_555 1_555
C15 C10 1_555 1_555
C16 C15 1_555 1_555
C17 C16 1_555 1_555
H9 C17 1_555 1_555
C18 C17 1_555 1_555
H10 C18 1_555 1_555
C19 C20 1_555 1_555
C20 H11 1_555 1_555
C21 C20 1_555 1_555
H12 C21 1_555 1_555
C22 C21 1_555 1_555
C23 C22 1_555 1_555
H13 C23 1_555 1_555
C24 C19 1_555 1_555
C25 C24 1_555 1_555
C26 C25 1_555 1_555
H14 C26 1_555 1_555
C27 C26 1_555 1_555
H15 C27 1_555 1_555
C28 H16 1_555 1_555
H17 C28 1_555 1_555
C29 C28 1_555 1_555
H18 C29 1_555 1_555
H19 C29 1_555 1_555
H20 C29 1_555 1_555
C30 H21 1_555 1_555
H22 C30 1_555 1_555
C31 C30 1_555 1_555
H23 C31 1_555 1_555
H24 C31 1_555 1_555
H25 C31 1_555 1_555
C32 C33 1_555 1_555
C33 H26 1_555 1_555
H27 C33 1_555 1_555
H28 C33 1_555 1_555
C34 H29 1_555 1_555
H30 C34 1_555 1_555
C35 C34 1_555 1_555
H31 C35 1_555 1_555
H32 C35 1_555 1_555
H33 C35 1_555 1_555
C36 H34 1_555 1_555
H35 C36 1_555 1_555
C37 C36 1_555 1_555
H36 C37 1_555 1_555
H37 C37 1_555 1_555
H38 C37 1_555 1_555
N1 C7 1_555 1_555
N2 C9 1_555 1_555
N3 Mn2 1_555 1_555
N4 C18 1_555 1_555
N5 Mn3 1_555 1_555
N6 Mn1 1_555 1_555
O1 Mn1 1_555 1_555
O2 Mn2 1_555 1_555
O3 Mn3 1_555 1_555
O4 Mn1 1_555 1_555
O5 Mn1 1_555 1_555
H39 O5 1_555 1_555
O6 Mn1 1_555 1_555
H40 O6 1_555 1_555
O7 Mn2 1_555 1_555
O8 Mn2 1_555 1_555
H41 O8 1_555 1_555
O9 Mn3 1_555 1_555
H42 O9 1_555 1_555
O10 C32 1_555 1_555
Mn3_2 O10 1_555 1_555
O10_2 Mn3 1_555 1_555
Mn2 O4 1_555 1_555
Mn3 O4 1_555 1_555
C1 O1 1_555 1_555
C5 C6 1_555 1_555
C10 O2 1_555 1_555
C14 C15 1_555 1_555
C16 N3 1_555 1_555
C19 O3 1_555 1_555
C23 C24 1_555 1_555
C25 N5 1_555 1_555
C27 N6 1_555 1_555
C28 O5 1_555 1_555
C30 O6 1_555 1_555
C32 O7 1_555 1_555
C34 O8 1_555 1_555
C36 O9 1_555 1_555
N1 N2 1_555 1_555
N3 N4 1_555 1_555
N5 N6 1_555 1_555

#END
