
#######################################################################
#
#                 Cambridge Crystallographic Data Centre
#                                CCDC 
#
#######################################################################
#
# If this CIF has been generated from an entry in the Cambridge 
# Structural Database, then it will include bibliographic, chemical, 
# crystal, experimental, refinement or atomic coordinate data resulting 
# from the CCDC's data processing and validation procedures.
#
#######################################################################

data_AHOBAB
_symmetry_cell_setting           monoclinic
_symmetry_space_group_name_H-M   'P 21/c'
_symmetry_Int_Tables_number      14
_space_group_name_Hall           '-P 2ybc'
loop_
_symmetry_equiv_pos_site_id
_symmetry_equiv_pos_as_xyz
1 x,y,z
2 -x,1/2+y,1/2-z
3 -x,-y,-z
4 x,1/2-y,1/2+z
_cell_length_a                   9.211(4)
_cell_length_b                   11.186(5)
_cell_length_c                   8.034(3)
_cell_angle_alpha                90
_cell_angle_beta                 102.365(5)
_cell_angle_gamma                90
_cell_volume                     808.575
loop_
_atom_site_label
_atom_site_type_symbol
_atom_site_fract_x
_atom_site_fract_y
_atom_site_fract_z
Mn1 Mn 0.51188(4) 0.87381(4) 0.37228(5)
N1 N 1.3189(2) 0.9558(2) 0.1724(3)
H1 H 1.3209 1.0352 0.1904
H2 H 1.3404 0.9442 0.0694
N2 N 0.6049(2) 1.06883(19) 0.4211(3)
N3 N 0.6000(2) 1.13167(19) 0.2995(3)
N4 N 0.5967(3) 1.1926(2) 0.1796(3)
O1 O 0.6313(2) 0.86785(18) 0.1776(3)
O2 O 0.6854(2) 0.69699(17) 0.0612(3)
C1 C 0.7176(3) 0.7982(2) 0.1258(3)
C2 C 0.8761(3) 0.8400(2) 0.1390(3)
C3 C 0.9304(3) 0.9415(2) 0.2327(3)
H3 H 0.8683 0.9850 0.2875
C4 C 1.0759(3) 0.9781(3) 0.2448(4)
H4 H 1.1117 1.0445 0.3106
C5 C 1.1676(3) 0.9171(2) 0.1601(4)
C6 C 1.1148(3) 0.8164(3) 0.0655(4)
H5 H 1.1763 0.7747 0.0078
C7 C 0.9714(3) 0.7784(3) 0.0572(4)
H6 H 0.9377 0.7099 -0.0047
Mn1_2 Mn 1.51188(4) 0.87381(4) 0.37228(5)
Mn1B Mn 0.48812(4) 1.12619(4) 0.62772(5)
Mn1A Mn 0.48812(4) 1.37381(4) 0.12772(5)
Mn1C Mn 0.51188(4) 0.62619(4) -0.12772(5)
N1_2 N 0.3189(2) 0.9558(2) 0.1724(3)
H1_2 H 0.3209 1.0352 0.1904
H2_2 H 0.3404 0.9442 0.0694
N2B N 0.3951(2) 0.93117(19) 0.5789(3)
N4A N 0.4033(3) 0.6926(2) 0.3204(3)
O2C O 0.6854(2) 0.80301(17) 0.5612(3)
loop_
_geom_bond_atom_site_label_1
_geom_bond_atom_site_label_2
_geom_bond_site_symmetry_1
_geom_bond_site_symmetry_2
Mn1 N2 1_555 1_555
N1 H1 1_555 1_555
H2 N1 1_555 1_555
N2 N3 1_555 1_555
N3 N4 1_555 1_555
N4 Mn1A 1_555 1_555
O1 Mn1 1_555 1_555
O2 C1 1_555 1_555
C1 O1 1_555 1_555
C2 C1 1_555 1_555
C3 C2 1_555 1_555
H3 C3 1_555 1_555
C4 C3 1_555 1_555
H4 C4 1_555 1_555
C5 N1 1_555 1_555
C6 C5 1_555 1_555
H5 C6 1_555 1_555
C7 C2 1_555 1_555
H6 C7 1_555 1_555
Mn1_2 N1 1_555 1_555
Mn1B N2 1_555 1_555
Mn1C O2 1_555 1_555
N1_2 Mn1 1_555 1_555
H1_2 N1_2 1_555 1_555
H2_2 N1_2 1_555 1_555
N2B Mn1 1_555 1_555
N4A Mn1 1_555 1_555
O2C Mn1 1_555 1_555
C4 C5 1_555 1_555
C6 C7 1_555 1_555
Mn1B N2B 1_555 1_555

#END
