
#######################################################################
#
#                 Cambridge Crystallographic Data Centre
#                                CCDC 
#
#######################################################################
#
# If this CIF has been generated from an entry in the Cambridge 
# Structural Database, then it will include bibliographic, chemical, 
# crystal, experimental, refinement or atomic coordinate data resulting 
# from the CCDC's data processing and validation procedures.
#
#######################################################################

data_AHOKAK
_symmetry_cell_setting           triclinic
_symmetry_space_group_name_H-M   'P -1'
_symmetry_Int_Tables_number      2
_space_group_name_Hall           '-P 1'
loop_
_symmetry_equiv_pos_site_id
_symmetry_equiv_pos_as_xyz
1 x,y,z
2 -x,-y,-z
_cell_length_a                   9.914(2)
_cell_length_b                   10.234(2)
_cell_length_c                   10.622(2)
_cell_angle_alpha                88.33(3)
_cell_angle_beta                 84.66(3)
_cell_angle_gamma                67.24(3)
_cell_volume                     989.449
loop_
_atom_site_label
_atom_site_type_symbol
_atom_site_fract_x
_atom_site_fract_y
_atom_site_fract_z
Yb1 Yb 0.81498(4) 0.44599(3) 0.02944(5)
S1 S 0.8369(2) 0.16708(18) 0.0408(3)
S2 S 0.92488(19) 0.63900(16) 0.1322(2)
N1 N 0.9316(6) 0.3044(5) 0.1951(6)
N2 N 0.9987(7) 0.0778(6) 0.2493(8)
H1 H 1.0077 -0.0111 0.2473
N3 N 0.7425(6) 0.6795(5) -0.0483(6)
N4 N 0.7680(5) 0.8787(4) -0.0032(6)
H2 H 0.8001 0.9368 0.0319
N5 N 0.5822(6) 0.5297(5) 0.1366(6)
N6 N 0.3438(6) 0.5648(5) 0.1192(6)
C1 C 0.9254(8) 0.1799(7) 0.1691(9)
C2 C 1.0579(9) 0.1363(8) 0.3359(9)
C3 C 1.1427(12) 0.0811(10) 0.4343(11)
H3 H 1.1724 -0.0161 0.4560
C4 C 1.1825(13) 0.1705(11) 0.4997(11)
H4 H 1.2399 0.1360 0.5693
C5 C 1.1406(11) 0.3102(10) 0.4661(10)
H5 H 1.1705 0.3700 0.5135
C6 C 1.0572(9) 0.3674(8) 0.3669(8)
H6 H 1.0295 0.4645 0.3453
C7 C 1.0153(8) 0.2780(7) 0.3001(8)
C8 C 0.8072(7) 0.7394(6) 0.0220(8)
C9 C 0.6680(7) 0.9142(6) -0.0941(8)
C10 C 0.5917(8) 1.0410(6) -0.1529(9)
H7 H 0.6035 1.1258 -0.1337
C11 C 0.4996(10) 1.0390(8) -0.2387(10)
H8 H 0.4470 1.1235 -0.2819
C12 C 0.4809(11) 0.9137(8) -0.2647(11)
H9 H 0.4137 0.9167 -0.3239
C13 C 0.5558(9) 0.7866(7) -0.2081(9)
H10 H 0.5424 0.7025 -0.2270
C14 C 0.6510(7) 0.7884(6) -0.1230(8)
C15 C 0.4816(7) 0.5233(5) 0.0649(6)
C16 C 0.3550(8) 0.6042(6) 0.2409(7)
C17 C 0.2481(9) 0.6581(6) 0.3420(9)
H11 H 0.1487 0.6720 0.3348
C18 C 0.2917(11) 0.6906(7) 0.4532(9)
H12 H 0.2214 0.7281 0.5234
C19 C 0.4388(12) 0.6683(8) 0.4624(9)
H13 H 0.4660 0.6900 0.5401
C20 C 0.5459(10) 0.6163(7) 0.3636(8)
H14 H 0.6447 0.6045 0.3713
C21 C 0.5029(8) 0.5817(6) 0.2516(7)
Yb1A Yb 1.18502(4) 0.55401(3) -0.02944(5)
Yb1A_2 Yb 0.18502(4) 0.55401(3) -0.02944(5)
S1A S 1.1631(2) 0.83292(18) -0.0408(3)
S2A S 1.07512(19) 0.36100(16) -0.1322(2)
N1A N 1.0684(6) 0.6956(5) -0.1951(6)
N2A N 1.0013(7) 0.9222(6) -0.2493(8)
H1A H 0.9923 1.0111 -0.2473
N3A N 1.2575(6) 0.3205(5) 0.0483(6)
N4A N 1.2320(5) 0.1213(4) 0.0032(6)
H2A H 1.1999 0.0632 -0.0319
N5A N 0.4178(6) 0.4703(5) -0.1366(6)
N5A_2 N 1.4178(6) 0.4703(5) -0.1366(6)
N6A N 0.6562(6) 0.4352(5) -0.1192(6)
N6_2 N 1.3438(6) 0.5648(5) 0.1192(6)
C1A C 1.0746(8) 0.8201(7) -0.1691(9)
C2A C 0.9421(9) 0.8637(8) -0.3359(9)
C3A C 0.8573(12) 0.9189(10) -0.4343(11)
H3A H 0.8276 1.0161 -0.4560
C4A C 0.8175(13) 0.8295(11) -0.4997(11)
H4A H 0.7601 0.8640 -0.5693
C5A C 0.8594(11) 0.6898(10) -0.4661(10)
H5A H 0.8295 0.6300 -0.5135
C6A C 0.9428(9) 0.6326(8) -0.3669(8)
H6A H 0.9705 0.5355 -0.3453
C7A C 0.9847(8) 0.7220(7) -0.3001(8)
C8A C 1.1928(7) 0.2606(6) -0.0220(8)
C9A C 1.3320(7) 0.0858(6) 0.0941(8)
C10A C 1.4083(8) -0.0410(6) 0.1529(9)
H7A H 1.3965 -0.1258 0.1337
C11A C 1.5004(10) -0.0390(8) 0.2387(10)
H8A H 1.5530 -0.1235 0.2819
C12A C 1.5191(11) 0.0863(8) 0.2647(11)
H9A H 1.5863 0.0833 0.3239
C13A C 1.4442(9) 0.2134(7) 0.2081(9)
H10A H 1.4576 0.2975 0.2270
C14A C 1.3490(7) 0.2116(6) 0.1230(8)
C15A C 0.5184(7) 0.4767(5) -0.0649(6)
C16A C 0.6450(8) 0.3958(6) -0.2409(7)
C17A C 0.7519(9) 0.3419(6) -0.3420(9)
H11A H 0.8513 0.3280 -0.3348
C18A C 0.7083(11) 0.3094(7) -0.4532(9)
H12A H 0.7786 0.2719 -0.5234
C19A C 0.5612(12) 0.3317(8) -0.4624(9)
H13A H 0.5340 0.3100 -0.5401
C20A C 0.4541(10) 0.3837(7) -0.3636(8)
H14A H 0.3553 0.3955 -0.3713
C21A C 0.4971(8) 0.4183(6) -0.2516(7)
loop_
_geom_bond_atom_site_label_1
_geom_bond_atom_site_label_2
_geom_bond_site_symmetry_1
_geom_bond_site_symmetry_2
Yb1 S1 1_555 1_555
S1 C1 1_555 1_555
S2 Yb1 1_555 1_555
N1 Yb1 1_555 1_555
N2 H1 1_555 1_555
N3 Yb1 1_555 1_555
N4 H2 1_555 1_555
N5 Yb1 1_555 1_555
N6 C15 1_555 1_555
C1 N1 1_555 1_555
C2 N2 1_555 1_555
C3 C2 1_555 1_555
H3 C3 1_555 1_555
C4 C3 1_555 1_555
H4 C4 1_555 1_555
C5 C4 1_555 1_555
H5 C5 1_555 1_555
C6 C5 1_555 1_555
H6 C6 1_555 1_555
C7 N1 1_555 1_555
C8 S2 1_555 1_555
C9 N4 1_555 1_555
C10 C9 1_555 1_555
H7 C10 1_555 1_555
C11 C10 1_555 1_555
H8 C11 1_555 1_555
C12 C11 1_555 1_555
H9 C12 1_555 1_555
C13 C12 1_555 1_555
H10 C13 1_555 1_555
C14 N3 1_555 1_555
C15 N5 1_555 1_555
C16 N6 1_555 1_555
C17 C16 1_555 1_555
H11 C17 1_555 1_555
C18 C17 1_555 1_555
H12 C18 1_555 1_555
C19 C18 1_555 1_555
H13 C19 1_555 1_555
C20 C19 1_555 1_555
H14 C20 1_555 1_555
C21 N5 1_555 1_555
Yb1A S2 1_555 1_555
Yb1A_2 N6 1_555 1_555
S1A Yb1A 1_555 1_555
S2A Yb1 1_555 1_555
N1A Yb1A 1_555 1_555
N2A H1A 1_555 1_555
N3A Yb1A 1_555 1_555
N4A H2A 1_555 1_555
N5A Yb1A_2 1_555 1_555
N5A_2 Yb1A 1_555 1_555
N6A Yb1 1_555 1_555
N6_2 Yb1A 1_555 1_555
C1A S1A 1_555 1_555
C2A N2A 1_555 1_555
C3A C2A 1_555 1_555
H3A C3A 1_555 1_555
C4A C3A 1_555 1_555
H4A C4A 1_555 1_555
C5A C4A 1_555 1_555
H5A C5A 1_555 1_555
C6A C5A 1_555 1_555
H6A C6A 1_555 1_555
C7A N1A 1_555 1_555
C8A S2A 1_555 1_555
C9A N4A 1_555 1_555
C10A C9A 1_555 1_555
H7A C10A 1_555 1_555
C11A C10A 1_555 1_555
H8A C11A 1_555 1_555
C12A C11A 1_555 1_555
H9A C12A 1_555 1_555
C13A C12A 1_555 1_555
H10A C13A 1_555 1_555
C14A N3A 1_555 1_555
C15A C15 1_555 1_555
C16A N6A 1_555 1_555
C17A C16A 1_555 1_555
H11A C17A 1_555 1_555
C18A C17A 1_555 1_555
H12A C18A 1_555 1_555
C19A C18A 1_555 1_555
H13A C19A 1_555 1_555
C20A C19A 1_555 1_555
H14A C20A 1_555 1_555
C21A N5A 1_555 1_555
N2 C1 1_555 1_555
N3 C8 1_555 1_555
N4 C8 1_555 1_555
C2 C7 1_555 1_555
C6 C7 1_555 1_555
C9 C14 1_555 1_555
C13 C14 1_555 1_555
C16 C21 1_555 1_555
C20 C21 1_555 1_555
Yb1A S2A 1_555 1_555
N1A C1A 1_555 1_555
N2A C1A 1_555 1_555
N3A C8A 1_555 1_555
N4A C8A 1_555 1_555
N5A C15A 1_555 1_555
N6A C15A 1_555 1_555
C2A C7A 1_555 1_555
C6A C7A 1_555 1_555
C9A C14A 1_555 1_555
C13A C14A 1_555 1_555
C16A C21A 1_555 1_555
C20A C21A 1_555 1_555

#END
