
#######################################################################
#
#                 Cambridge Crystallographic Data Centre
#                                CCDC 
#
#######################################################################
#
# If this CIF has been generated from an entry in the Cambridge 
# Structural Database, then it will include bibliographic, chemical, 
# crystal, experimental, refinement or atomic coordinate data resulting 
# from the CCDC's data processing and validation procedures.
#
#######################################################################

data_AHOMEQ
_symmetry_cell_setting           monoclinic
_symmetry_space_group_name_H-M   'C 2'
_symmetry_Int_Tables_number      5
_space_group_name_Hall           'C 2y'
loop_
_symmetry_equiv_pos_site_id
_symmetry_equiv_pos_as_xyz
1 x,y,z
2 -x,y,-z
3 1/2+x,1/2+y,z
4 1/2-x,1/2+y,-z
_cell_length_a                   12.928(3)
_cell_length_b                   6.6426(9)
_cell_length_c                   7.2435(16)
_cell_angle_alpha                90
_cell_angle_beta                 106.234(17)
_cell_angle_gamma                90
_cell_volume                     597.237
loop_
_atom_site_label
_atom_site_type_symbol
_atom_site_fract_x
_atom_site_fract_y
_atom_site_fract_z
Tl1 Tl 0.41491(4) -0.15831(10) 0.19892(7)
Tl2 Tl 0.26989(4) -0.13136(11) 0.65736(7)
C1 C 0.1630(11) -0.111(2) 0.1017(19)
C2 C 0.0493(9) -0.129(2) 0.0299(19)
C3 C 0.5000 0.231(2) 0.5000
C4 C 0.5000 0.466(3) 0.5000
O1 O 0.2164(8) -0.2053(15) 0.2501(14)
O2 O 0.2093(9) 0.0043(18) 0.0090(18)
O3 O 0.4120(10) 0.1468(14) 0.438(2)
O4 O 0.4099(10) 0.5574(14) 0.4675(19)
Tl1A Tl -0.41491(4) -0.15831(10) -0.19892(7)
Tl1C Tl 0.08509(4) 0.34169(10) -0.19892(7)
Tl1_2 Tl 0.41491(4) 0.84169(10) 0.19892(7)
Tl1B Tl -0.08509(4) 0.34169(10) 0.19892(7)
Tl1A_2 Tl 0.58509(4) 0.84169(10) 0.80108(7)
Tl1A_3 Tl 0.58509(4) -0.15831(10) 0.80108(7)
Tl2A Tl -0.26989(4) -0.13136(11) -0.65736(7)
Tl2C Tl 0.23011(4) -0.63136(11) 0.34264(7)
Tl2C_2 Tl 0.23011(4) 0.36864(11) 0.34264(7)
Tl2B Tl -0.23011(4) -0.63136(11) -0.34264(7)
Tl2B_2 Tl 0.76989(4) 0.36864(11) 0.65736(7)
C1A C -0.1630(11) -0.111(2) -0.1017(19)
C2A C -0.0493(9) -0.129(2) -0.0299(19)
O1A O -0.2164(8) -0.2053(15) -0.2501(14)
O1C O 0.2836(8) 0.2947(15) 0.7499(14)
O1B O -0.2836(8) 0.2947(15) -0.7499(14)
O2A O -0.2093(9) 0.0043(18) -0.0090(18)
O2C O 0.2907(9) -0.4957(18) -0.0090(18)
O2B O -0.2907(9) -0.4957(18) 0.0090(18)
O3A O 0.5880(10) 0.1468(14) 0.562(2)
O3C O 0.0880(10) -0.3532(14) 0.562(2)
O3A_2 O -0.4120(10) 0.1468(14) -0.438(2)
O3B O -0.0880(10) -0.3532(14) -0.562(2)
O4A O 0.5901(10) 0.5574(14) 0.5325(19)
O4_2 O 0.4099(10) -0.4426(14) 0.4675(19)
O4C O 0.0901(10) 0.0574(14) 0.5325(19)
O4A_2 O -0.4099(10) -0.4426(14) -0.4675(19)
O4B O -0.0901(10) 0.0574(14) -0.5325(19)
loop_
_geom_bond_atom_site_label_1
_geom_bond_atom_site_label_2
_geom_bond_site_symmetry_1
_geom_bond_site_symmetry_2
Tl1 O1 1_555 1_555
Tl2 O1 1_555 1_555
C1 C2 1_555 1_555
C2 C2A 1_555 1_555
C3 C4 1_555 1_555
C4 O4 1_555 1_555
O1 C1 1_555 1_555
O2 Tl1 1_555 1_555
O3 Tl1 1_555 1_555
O4 Tl1_2 1_555 1_555
Tl1A O1A 1_555 1_555
Tl1C O2 1_555 1_555
Tl1B O2A 1_555 1_555
Tl1A_2 O4A 1_555 1_555
Tl1A_3 O3A 1_555 1_555
Tl2A O1A 1_555 1_555
Tl2C O1 1_555 1_555
Tl2C_2 O3 1_555 1_555
Tl2B O1A 1_555 1_555
Tl2B_2 O3A 1_555 1_555
C1A C2A 1_555 1_555
O1A C1A 1_555 1_555
O1C Tl2 1_555 1_555
O1B Tl2A 1_555 1_555
O2A Tl1A 1_555 1_555
O2C Tl1 1_555 1_555
O2B Tl1A 1_555 1_555
O3A C3 1_555 1_555
O3C Tl2 1_555 1_555
O3A_2 Tl1A 1_555 1_555
O3B Tl2A 1_555 1_555
O4A C4 1_555 1_555
O4_2 Tl1 1_555 1_555
O4C Tl2 1_555 1_555
O4A_2 Tl1A 1_555 1_555
O4B Tl2A 1_555 1_555
C1 O2 1_555 1_555
C3 O3 1_555 1_555
O4 Tl2C_2 1_555 1_555
Tl2C O4_2 1_555 1_555
Tl2C_2 O1C 1_555 1_555
Tl2B O4A_2 1_555 1_555
Tl2B_2 O4A 1_555 1_555
C1A O2A 1_555 1_555

#END
