
#######################################################################
#
#                 Cambridge Crystallographic Data Centre
#                                CCDC 
#
#######################################################################
#
# If this CIF has been generated from an entry in the Cambridge 
# Structural Database, then it will include bibliographic, chemical, 
# crystal, experimental, refinement or atomic coordinate data resulting 
# from the CCDC's data processing and validation procedures.
#
#######################################################################

data_AHOSOF
_symmetry_cell_setting           orthorhombic
_symmetry_space_group_name_H-M   'P 21 21 21'
_symmetry_Int_Tables_number      19
_space_group_name_Hall           'P 2ac 2ab'
loop_
_symmetry_equiv_pos_site_id
_symmetry_equiv_pos_as_xyz
1 x,y,z
2 1/2-x,-y,1/2+z
3 -x,1/2+y,1/2-z
4 1/2+x,1/2-y,-z
_cell_length_a                   11.1472(6)
_cell_length_b                   11.8026(7)
_cell_length_c                   18.3879(10)
_cell_angle_alpha                90
_cell_angle_beta                 90
_cell_angle_gamma                90
_cell_volume                     2419.22
loop_
_atom_site_label
_atom_site_type_symbol
_atom_site_fract_x
_atom_site_fract_y
_atom_site_fract_z
Zn1 Zn 0.23986(6) 0.55369(5) 0.76274(4)
Mn1 Mn -0.04455(9) 0.79103(8) 0.88519(6)
C1 C 0.1344(5) 0.7577(5) 0.8255(3)
C2 C 0.1418(5) 0.8552(5) 0.8730(3)
C3 C 0.0603(5) 0.9463(5) 0.8647(3)
C4 C -0.0298(5) 0.9444(5) 0.8098(3)
C5 C -0.0467(5) 0.8407(5) 0.7719(4)
H1 H -0.1127 0.8328 0.7414
C6 C 0.0333(6) 0.7501(5) 0.7794(4)
H2 H 0.0196 0.6837 0.7535
C7 C 0.2400(6) 0.8580(6) 0.9273(3)
H3 H 0.2103 0.8882 0.9723
H4 H 0.3039 0.9051 0.9096
H5 H 0.2695 0.7826 0.9351
C8 C 0.0742(6) 1.0537(5) 0.9069(3)
H6 H 0.0006 1.0959 0.9051
H7 H 0.1377 1.0981 0.8863
H8 H 0.0930 1.0361 0.9566
O1 O 0.2159(3) 0.6784(3) 0.8302(3)
O2 O -0.0994(3) 1.0318(3) 0.7992(2)
C9 C -0.1506(8) 0.6849(8) 0.8706(6)
O3 O -0.2183(8) 0.6114(7) 0.8623(5)
C10 C 0.0041(7) 0.7213(6) 0.9649(5)
O4 O 0.0353(6) 0.6782(5) 1.0198(4)
C11 C -0.1503(6) 0.8753(7) 0.9342(4)
O5 O -0.2189(5) 0.9326(5) 0.9638(3)
Mn2 Mn 0.56815(8) 0.36679(8) 0.82508(5)
C12 C 0.3673(5) 0.3464(5) 0.8095(3)
C13 C 0.4045(5) 0.2872(5) 0.8743(3)
C14 C 0.4972(5) 0.2058(5) 0.8707(3)
C15 C 0.5516(5) 0.1751(5) 0.8015(4)
C16 C 0.5234(5) 0.2440(5) 0.7422(4)
H9 H 0.5659 0.2348 0.6991
C17 C 0.4328(5) 0.3270(4) 0.7453(3)
H10 H 0.4159 0.3699 0.7041
C18 C 0.3399(6) 0.3119(6) 0.9438(3)
H11 H 0.3956 0.3099 0.9835
H12 H 0.2785 0.2561 0.9514
H13 H 0.3039 0.3857 0.9410
C19 C 0.5360(6) 0.1380(6) 0.9368(4)
H14 H 0.4808 0.0766 0.9445
H15 H 0.5365 0.1862 0.9788
H16 H 0.6150 0.1081 0.9289
O6 O 0.2772(3) 0.4155(3) 0.8148(2)
O7 O 0.6272(4) 0.0904(3) 0.8002(3)
C20 C 0.5391(6) 0.4869(6) 0.8806(4)
O8 O 0.5125(5) 0.5643(5) 0.9154(3)
C21 C 0.7113(7) 0.3380(6) 0.8653(4)
O9 O 0.8026(5) 0.3152(6) 0.8906(4)
C22 C 0.6368(5) 0.4572(6) 0.7590(4)
O10 O 0.6802(4) 0.5161(4) 0.7166(3)
O2B O 0.0994(3) 0.5318(3) 0.7008(2)
O7B O 0.3728(4) 0.5904(3) 0.6998(3)
Zn1B Zn -0.23986(6) 1.05369(5) 0.73726(4)
Zn1B_2 Zn 0.76014(6) 0.05369(5) 0.73726(4)
loop_
_geom_bond_atom_site_label_1
_geom_bond_atom_site_label_2
_geom_bond_site_symmetry_1
_geom_bond_site_symmetry_2
Zn1 O1 1_555 1_555
Mn1 C2 1_555 1_555
C1 C2 1_555 1_555
C2 C3 1_555 1_555
C3 Mn1 1_555 1_555
C4 C3 1_555 1_555
C5 Mn1 1_555 1_555
H1 C5 1_555 1_555
C6 Mn1 1_555 1_555
H2 C6 1_555 1_555
C7 C2 1_555 1_555
H3 C7 1_555 1_555
H4 C7 1_555 1_555
H5 C7 1_555 1_555
C8 C3 1_555 1_555
H6 C8 1_555 1_555
H7 C8 1_555 1_555
H8 C8 1_555 1_555
O1 C1 1_555 1_555
O2 C4 1_555 1_555
C9 Mn1 1_555 1_555
O3 C9 1_555 1_555
C10 Mn1 1_555 1_555
O4 C10 1_555 1_555
C11 Mn1 1_555 1_555
O5 C11 1_555 1_555
Mn2 C13 1_555 1_555
C12 C13 1_555 1_555
C13 C14 1_555 1_555
C14 Mn2 1_555 1_555
C15 C14 1_555 1_555
C16 Mn2 1_555 1_555
H9 C16 1_555 1_555
C17 Mn2 1_555 1_555
H10 C17 1_555 1_555
C18 C13 1_555 1_555
H11 C18 1_555 1_555
H12 C18 1_555 1_555
H13 C18 1_555 1_555
C19 C14 1_555 1_555
H14 C19 1_555 1_555
H15 C19 1_555 1_555
H16 C19 1_555 1_555
O6 Zn1 1_555 1_555
O7 C15 1_555 1_555
C20 Mn2 1_555 1_555
O8 C20 1_555 1_555
C21 Mn2 1_555 1_555
O9 C21 1_555 1_555
C22 Mn2 1_555 1_555
O10 C22 1_555 1_555
O2B Zn1 1_555 1_555
O7B Zn1 1_555 1_555
Zn1B O2 1_555 1_555
Zn1B_2 O7 1_555 1_555
C1 C6 1_555 1_555
C4 C5 1_555 1_555
C5 C6 1_555 1_555
C12 O6 1_555 1_555
C12 C17 1_555 1_555
C15 C16 1_555 1_555
C16 C17 1_555 1_555

#END
