
#######################################################################
#
#                 Cambridge Crystallographic Data Centre
#                                CCDC 
#
#######################################################################
#
# If this CIF has been generated from an entry in the Cambridge 
# Structural Database, then it will include bibliographic, chemical, 
# crystal, experimental, refinement or atomic coordinate data resulting 
# from the CCDC's data processing and validation procedures.
#
#######################################################################

data_AHOZEC
_symmetry_cell_setting           monoclinic
_symmetry_space_group_name_H-M   'C 2/c'
_symmetry_Int_Tables_number      15
_space_group_name_Hall           '-C 2yn'
loop_
_symmetry_equiv_pos_site_id
_symmetry_equiv_pos_as_xyz
1 x,y,z
2 1/2+x,1/2+y,z
3 x,-y,1/2+z
4 1/2+x,1/2-y,1/2+z
5 -x,-y,-z
6 1/2-x,1/2-y,-z
7 -x,y,1/2-z
8 1/2-x,1/2+y,1/2-z
_cell_length_a                   26.170(3)
_cell_length_b                   7.4351(6)
_cell_length_c                   18.3972(13)
_cell_angle_alpha                90
_cell_angle_beta                 92.263(5)
_cell_angle_gamma                90
_cell_volume                     3576.87
loop_
_atom_site_label
_atom_site_type_symbol
_atom_site_fract_x
_atom_site_fract_y
_atom_site_fract_z
Cd1 Cd 0.2500 0.7500 0.0000
Cl1 Cl 0.21394(3) 0.48347(10) 0.07734(4)
N1 N 0.11248(9) 1.1088(3) 0.00389(12)
N2 N 0.17086(9) 0.8962(3) -0.00068(12)
N3 N 0.29837(9) 1.0873(3) 0.19607(12)
N4 N 0.27997(9) 0.8946(3) 0.10786(12)
C1 C 0.01293(11) 1.3117(4) 0.21554(14)
C2 C -0.01308(12) 1.3527(4) 0.14962(15)
H1 H -0.0481 1.3861 0.1496
C3 C 0.01144(12) 1.3454(4) 0.08488(16)
H2 H -0.0070 1.3738 0.0408
C4 C 0.06222(12) 1.2976(3) 0.08286(15)
C5 C 0.08838(10) 1.2577(4) 0.14786(14)
H3 H 0.1235 1.2253 0.1475
C6 C 0.06425(11) 1.2642(4) 0.21284(15)
H4 H 0.0829 1.2359 0.2567
C7 C 0.08992(12) 1.2874(4) 0.01293(15)
H5 H 0.0657 1.3129 -0.0285
H6 H 0.1172 1.3796 0.0132
C8 C 0.47196(11) 1.3194(4) 0.24881(14)
C9 C 0.44473(11) 1.2667(4) 0.30870(14)
H7 H 0.4627 1.2392 0.3532
C10 C 0.39239(11) 1.2535(5) 0.30486(14)
H8 H 0.3748 1.2166 0.3465
C11 C 0.36481(11) 1.2935(4) 0.24073(15)
C12 C 0.39137(12) 1.3534(4) 0.18183(15)
H9 H 0.3731 1.3867 0.1383
C13 C 0.44386(12) 1.3653(4) 0.18543(15)
H10 H 0.4613 1.4054 0.1441
C14 C 0.30835(11) 1.2600(5) 0.23373(15)
H11 H 0.2939 1.2566 0.2826
H12 H 0.2916 1.3591 0.2059
C15 C 0.16251(12) 1.0697(4) 0.00703(15)
H13 H 0.1888 1.1567 0.0140
C16 C 0.08705(12) 0.9482(4) -0.00594(15)
H14 H 0.0511 0.9310 -0.0098
C17 C 0.12360(12) 0.8195(4) -0.00908(16)
H15 H 0.1173 0.6947 -0.0161
C18 C 0.27934(11) 1.0645(4) 0.12788(15)
H16 H 0.2669 1.1598 0.0976
C19 C 0.30111(12) 0.8043(4) 0.16675(17)
H17 H 0.3070 0.6782 0.1689
C20 C 0.31236(12) 0.9214(4) 0.22132(16)
H18 H 0.3271 0.8936 0.2680
C1F C -0.01293(11) 1.3117(4) 0.28446(14)
C2F C 0.01308(12) 1.3527(4) 0.35038(15)
H1F H 0.0481 1.3861 0.3504
C3F C -0.01144(12) 1.3454(4) 0.41512(16)
H2F H 0.0070 1.3738 0.4592
C4F C -0.06222(12) 1.2976(3) 0.41714(15)
C5F C -0.08838(10) 1.2577(4) 0.35214(14)
H3F H -0.1235 1.2253 0.3525
C6F C -0.06425(11) 1.2642(4) 0.28716(15)
H4F H -0.0829 1.2359 0.2433
C7F C -0.08992(12) 1.2874(4) 0.48707(15)
N1F N -0.11248(9) 1.1088(3) 0.49611(12)
C15F C -0.16251(12) 1.0697(4) 0.49297(15)
N2F N -0.17086(9) 0.8962(3) 0.50068(12)
C17F C -0.12360(12) 0.8195(4) 0.50908(16)
C16F C -0.08705(12) 0.9482(4) 0.50594(15)
H14F H -0.0511 0.9310 0.5098
H15F H -0.1173 0.6947 0.5161
H13F H -0.1888 1.1567 0.4860
H5F H -0.0657 1.3129 0.5285
H6F H -0.1172 1.3796 0.4868
C8F C 0.52804(11) 1.3194(4) 0.25119(14)
C9F C 0.55527(11) 1.2667(4) 0.19130(14)
H7F H 0.5373 1.2392 0.1468
C10F C 0.60761(11) 1.2535(5) 0.19514(14)
H8F H 0.6252 1.2166 0.1535
C11F C 0.63519(11) 1.2935(4) 0.25927(15)
C12F C 0.60863(12) 1.3534(4) 0.31817(15)
H9F H 0.6269 1.3867 0.3617
C13F C 0.55614(12) 1.3653(4) 0.31457(15)
H10F H 0.5387 1.4054 0.3559
C14F C 0.69165(11) 1.2600(5) 0.26627(15)
N3F N 0.70163(9) 1.0873(3) 0.30393(12)
C18F C 0.72066(11) 1.0645(4) 0.37212(15)
N4F N 0.72003(9) 0.8946(3) 0.39214(12)
C19F C 0.69889(12) 0.8043(4) 0.33325(17)
H17F H 0.6930 0.6782 0.3311
C20F C 0.68764(12) 0.9214(4) 0.27868(16)
H18F H 0.6729 0.8936 0.2320
H16F H 0.7331 1.1598 0.4024
H11F H 0.7061 1.2566 0.2174
H12F H 0.7084 1.3591 0.2941
Cl1E Cl 0.28606(3) 1.01653(10) -0.07734(4)
N2E N 0.32914(9) 0.6038(3) 0.00068(12)
N4E N 0.22003(9) 0.6054(3) -0.10786(12)
Cd1C Cd -0.2500 0.7500 0.5000
Cd1C_2 Cd 0.7500 0.7500 0.5000
loop_
_geom_bond_atom_site_label_1
_geom_bond_atom_site_label_2
_geom_bond_site_symmetry_1
_geom_bond_site_symmetry_2
Cd1 Cl1 1_555 1_555
N1 C7 1_555 1_555
N2 Cd1 1_555 1_555
N3 C14 1_555 1_555
N4 Cd1 1_555 1_555
C1 C2 1_555 1_555
C2 H1 1_555 1_555
C3 C2 1_555 1_555
H2 C3 1_555 1_555
C4 C3 1_555 1_555
C5 C4 1_555 1_555
H3 C5 1_555 1_555
C6 C1 1_555 1_555
H4 C6 1_555 1_555
C7 C4 1_555 1_555
H5 C7 1_555 1_555
H6 C7 1_555 1_555
C8 C9 1_555 1_555
C9 H7 1_555 1_555
C10 C9 1_555 1_555
H8 C10 1_555 1_555
C11 C10 1_555 1_555
C12 C11 1_555 1_555
H9 C12 1_555 1_555
C13 C8 1_555 1_555
H10 C13 1_555 1_555
C14 C11 1_555 1_555
H11 C14 1_555 1_555
H12 C14 1_555 1_555
C15 N1 1_555 1_555
H13 C15 1_555 1_555
C16 N1 1_555 1_555
H14 C16 1_555 1_555
C17 N2 1_555 1_555
H15 C17 1_555 1_555
C18 N3 1_555 1_555
H16 C18 1_555 1_555
C19 N4 1_555 1_555
H17 C19 1_555 1_555
C20 N3 1_555 1_555
H18 C20 1_555 1_555
C1F C1 1_555 1_555
C2F C1F 1_555 1_555
H1F C2F 1_555 1_555
C3F C2F 1_555 1_555
H2F C3F 1_555 1_555
C4F C3F 1_555 1_555
C5F C4F 1_555 1_555
H3F C5F 1_555 1_555
C6F C1F 1_555 1_555
H4F C6F 1_555 1_555
C7F C4F 1_555 1_555
N1F C7F 1_555 1_555
C15F N1F 1_555 1_555
N2F C15F 1_555 1_555
C17F N2F 1_555 1_555
C16F N1F 1_555 1_555
H14F C16F 1_555 1_555
H15F C17F 1_555 1_555
H13F C15F 1_555 1_555
H5F C7F 1_555 1_555
H6F C7F 1_555 1_555
C8F C8 1_555 1_555
C9F C8F 1_555 1_555
H7F C9F 1_555 1_555
C10F C9F 1_555 1_555
H8F C10F 1_555 1_555
C11F C10F 1_555 1_555
C12F C11F 1_555 1_555
H9F C12F 1_555 1_555
C13F C8F 1_555 1_555
H10F C13F 1_555 1_555
C14F C11F 1_555 1_555
N3F C14F 1_555 1_555
C18F N3F 1_555 1_555
N4F C18F 1_555 1_555
C19F N4F 1_555 1_555
H17F C19F 1_555 1_555
C20F N3F 1_555 1_555
H18F C20F 1_555 1_555
H16F C18F 1_555 1_555
H11F C14F 1_555 1_555
H12F C14F 1_555 1_555
Cl1E Cd1 1_555 1_555
N2E Cd1 1_555 1_555
N4E Cd1 1_555 1_555
Cd1C N2F 1_555 1_555
Cd1C_2 N4F 1_555 1_555
N2 C15 1_555 1_555
N4 C18 1_555 1_555
C5 C6 1_555 1_555
C12 C13 1_555 1_555
C16 C17 1_555 1_555
C19 C20 1_555 1_555
C5F C6F 1_555 1_555
C17F C16F 1_555 1_555
C12F C13F 1_555 1_555
C19F C20F 1_555 1_555

#END
