
#######################################################################
#
#                 Cambridge Crystallographic Data Centre
#                                CCDC 
#
#######################################################################
#
# If this CIF has been generated from an entry in the Cambridge 
# Structural Database, then it will include bibliographic, chemical, 
# crystal, experimental, refinement or atomic coordinate data resulting 
# from the CCDC's data processing and validation procedures.
#
#######################################################################

data_AHUBIO
_symmetry_cell_setting           monoclinic
_symmetry_space_group_name_H-M   'C 2/c'
_symmetry_Int_Tables_number      15
_space_group_name_Hall           '-C 2yn'
loop_
_symmetry_equiv_pos_site_id
_symmetry_equiv_pos_as_xyz
1 x,y,z
2 1/2+x,1/2+y,z
3 x,-y,1/2+z
4 1/2+x,1/2-y,1/2+z
5 -x,-y,-z
6 1/2-x,1/2-y,-z
7 -x,y,1/2-z
8 1/2-x,1/2+y,1/2-z
_cell_length_a                   12.570(4)
_cell_length_b                   17.821(4)
_cell_length_c                   6.742(3)
_cell_angle_alpha                90
_cell_angle_beta                 99.42(3)
_cell_angle_gamma                90
_cell_volume                     1489.91
loop_
_atom_site_label
_atom_site_type_symbol
_atom_site_fract_x
_atom_site_fract_y
_atom_site_fract_z
Pb1 Pb 1.0000 0.435758(14) 0.2500
O1 O 0.9117(3) 0.5326(3) 0.3925(7)
O2 O 0.7764(4) 0.4243(3) 0.2309(11)
O3 O 0.6098(5) 0.4516(4) 0.1655(16)
O4 O 0.5934(5) 0.7920(3) 0.1092(11)
O5 O 0.4922(5) 0.6998(4) 0.0054(13)
N1 N 0.7038(4) 0.4704(3) 0.2039(8)
N2 N 0.5772(5) 0.7248(3) 0.0862(10)
C1 C 0.8318(4) 0.5753(3) 0.3117(8)
C2 C 0.7295(4) 0.5495(3) 0.2194(9)
C3 C 0.6466(5) 0.5982(3) 0.1451(9)
H1 H 0.5798 0.5798 0.0848
C4 C 0.6647(5) 0.6738(3) 0.1620(10)
C5 C 0.7638(5) 0.7036(4) 0.2505(10)
H2 H 0.7746 0.7552 0.2612
C6 C 0.8450(5) 0.6541(4) 0.3213(11)
H3 H 0.9118 0.6734 0.3783
O1B O 0.9117(3) 0.4674(3) -0.1075(7)
O2B O 0.7764(4) 0.5757(3) -0.2691(11)
O3B O 0.6098(5) 0.5484(4) -0.3345(16)
O4B O 0.5934(5) 0.2080(3) -0.3908(11)
O5B O 0.4922(5) 0.3002(4) -0.4946(13)
N1B N 0.7038(4) 0.5296(3) -0.2961(8)
N2B N 0.5772(5) 0.2752(3) -0.4138(10)
C1B C 0.8318(4) 0.4247(3) -0.1883(8)
C2B C 0.7295(4) 0.4505(3) -0.2806(9)
C3B C 0.6466(5) 0.4018(3) -0.3549(9)
H1B H 0.5798 0.4202 -0.4152
C4B C 0.6647(5) 0.3262(3) -0.3380(10)
C5B C 0.7638(5) 0.2964(4) -0.2495(10)
H2B H 0.7746 0.2448 -0.2388
C6B C 0.8450(5) 0.3459(4) -0.1787(11)
H3B H 0.9118 0.3266 -0.1217
O1D O 1.0883(3) 0.4674(3) 0.6075(7)
O1F O 1.0883(3) 0.5326(3) 0.1075(7)
O2F O 1.2236(4) 0.4243(3) 0.2691(11)
O4A O 1.0934(5) 0.2920(3) 0.1092(11)
O4G O 0.9066(5) 0.2920(3) 0.3908(11)
Pb1B Pb 1.0000 0.564242(14) 0.7500
Pb1A Pb 0.5000 0.935758(14) 0.2500
Pb1B_2 Pb 1.0000 0.564242(14) -0.2500
Pb1C Pb 0.5000 0.064242(14) -0.2500
loop_
_geom_bond_atom_site_label_1
_geom_bond_atom_site_label_2
_geom_bond_site_symmetry_1
_geom_bond_site_symmetry_2
Pb1 O1 1_555 1_555
O1 C1 1_555 1_555
O2 Pb1 1_555 1_555
O3 N1 1_555 1_555
O4 N2 1_555 1_555
O5 N2 1_555 1_555
N1 O2 1_555 1_555
N2 C4 1_555 1_555
C1 C2 1_555 1_555
C2 N1 1_555 1_555
C3 C2 1_555 1_555
H1 C3 1_555 1_555
C4 C3 1_555 1_555
C5 C4 1_555 1_555
H2 C5 1_555 1_555
C6 C1 1_555 1_555
H3 C6 1_555 1_555
O1B Pb1 1_555 1_555
O2B N1B 1_555 1_555
O3B N1B 1_555 1_555
O4B N2B 1_555 1_555
O5B N2B 1_555 1_555
N1B C2B 1_555 1_555
N2B C4B 1_555 1_555
C1B O1B 1_555 1_555
C2B C1B 1_555 1_555
C3B C2B 1_555 1_555
H1B C3B 1_555 1_555
C4B C3B 1_555 1_555
C5B C4B 1_555 1_555
H2B C5B 1_555 1_555
C6B C1B 1_555 1_555
H3B C6B 1_555 1_555
O1D Pb1 1_555 1_555
O1F Pb1 1_555 1_555
O2F Pb1 1_555 1_555
O4A Pb1 1_555 1_555
O4G Pb1 1_555 1_555
Pb1B O1 1_555 1_555
Pb1A O4 1_555 1_555
Pb1B_2 O1B 1_555 1_555
Pb1C O4B 1_555 1_555
C5 C6 1_555 1_555
O2B Pb1B_2 1_555 1_555
C5B C6B 1_555 1_555
O1D Pb1B 1_555 1_555
O1F Pb1B_2 1_555 1_555

#END
