
#######################################################################
#
#                 Cambridge Crystallographic Data Centre
#                                CCDC 
#
#######################################################################
#
# If this CIF has been generated from an entry in the Cambridge 
# Structural Database, then it will include bibliographic, chemical, 
# crystal, experimental, refinement or atomic coordinate data resulting 
# from the CCDC's data processing and validation procedures.
#
#######################################################################

data_AHUFAM
_symmetry_cell_setting           orthorhombic
_symmetry_space_group_name_H-M   'C c c a'
_symmetry_Int_Tables_number      68
_space_group_name_Hall           '-C 2a 2ac'
loop_
_symmetry_equiv_pos_site_id
_symmetry_equiv_pos_as_xyz
1 x,y,z
2 -x,1/2-y,z
3 x,1/2-y,1/2-z
4 -x,y,1/2-z
5 1/2+x,1/2+y,z
6 1/2-x,-y,z
7 1/2+x,-y,1/2-z
8 1/2-x,1/2+y,1/2-z
9 -x,-y,-z
10 x,1/2+y,-z
11 -x,1/2+y,1/2+z
12 x,-y,1/2+z
13 1/2-x,1/2-y,-z
14 1/2+x,y,-z
15 1/2-x,y,1/2+z
16 1/2+x,1/2-y,1/2+z
_cell_length_a                   22.5545(4)
_cell_length_b                   60.8585(11)
_cell_length_c                   19.7526(4)
_cell_angle_alpha                90
_cell_angle_beta                 90
_cell_angle_gamma                90
_cell_volume                     27113.1
loop_
_atom_site_label
_atom_site_type_symbol
_atom_site_fract_x
_atom_site_fract_y
_atom_site_fract_z
Ag1 Ag 0.02798(2) 0.11460(1) 0.51341(3)
Mo1 Mo -0.05795(3) 0.17657(1) 0.47330(4)
Mo2 Mo -0.14745(3) 0.13978(1) 0.48837(4)
P1 P -0.04664(9) 0.13622(3) 0.44311(10)
P2 P -0.04898(8) 0.14461(3) 0.54786(9)
O1 O 0.0808(3) 0.17396(12) 0.4726(6)
O2 O -0.0644(6) 0.17303(18) 0.3161(5)
O3 O -0.1338(3) 0.09418(10) 0.5602(4)
O4 O -0.1772(4) 0.15806(14) 0.6325(4)
N1 N 0.0081(3) 0.07724(9) 0.5021(3)
N2 N 0.4058(3) 0.11731(9) 0.1026(3)
N3 N 0.1111(3) 0.11124(12) 0.4356(4)
C1 C 0.0307(5) 0.17480(14) 0.4711(7)
C2 C -0.0616(6) 0.17373(18) 0.3733(6)
C3 C -0.1371(4) 0.11052(16) 0.5350(5)
C4 C -0.1655(4) 0.15173(16) 0.5806(6)
C5 C -0.1075(5) 0.20953(14) 0.4589(6)
C6 C -0.0486(5) 0.21419(15) 0.4743(7)
C7 C -0.0382(5) 0.20642(15) 0.5417(8)
C8 C -0.0917(5) 0.19737(14) 0.5657(6)
C9 C -0.1339(4) 0.19960(14) 0.5142(5)
C10 C -0.1794(6) 0.1378(2) 0.3760(6)
C11 C -0.2044(6) 0.1208(2) 0.4100(8)
C12 C -0.2429(5) 0.1295(2) 0.4621(8)
C13 C -0.2401(4) 0.15288(18) 0.4550(6)
C14 C -0.2017(5) 0.1579(2) 0.4023(6)
C15 C 0.0031(3) 0.03130(11) 0.4869(4)
C16 C 0.0068(4) 0.04544(13) 0.4316(4)
C17 C 0.0091(4) 0.06765(13) 0.4406(4)
C18 C 0.0023(3) 0.06376(11) 0.5549(4)
C19 C -0.0001(4) 0.04117(11) 0.5500(4)
C20 C 0.0012(4) 0.00758(11) 0.4763(4)
C21 C 0.3886(3) 0.13694(12) 0.1271(4)
C22 C 0.3460(3) 0.13911(13) 0.1766(4)
C23 C 0.3196(3) 0.12036(12) 0.2039(4)
C24 C 0.3366(3) 0.10038(12) 0.1772(4)
C25 C 0.3800(3) 0.09963(12) 0.1276(4)
C26 C 0.2741(3) 0.12265(12) 0.2554(4)
C27 C 0.2539(4) 0.10639(13) 0.2946(4)
C28 C 0.2062(4) 0.10871(13) 0.3437(4)
C29 C 0.1724(5) 0.12750(16) 0.3497(6)
C30 C 0.1264(5) 0.12793(16) 0.3956(6)
C31 C 0.1443(4) 0.09285(15) 0.4290(5)
C32 C 0.1900(4) 0.09092(15) 0.3842(5)
H1 H -0.17670 0.19560 0.51780
H2 H -0.09920 0.19180 0.61250
H3 H -0.00130 0.20880 0.56890
H4 H -0.02060 0.22310 0.44620
H5 H -0.12850 0.21420 0.41680
H6 H -0.27080 0.12100 0.49140
H7 H -0.19340 0.17290 0.38400
H8 H -0.26480 0.16370 0.48060
H9 H -0.20000 0.10490 0.39830
H10 H -0.15300 0.13630 0.33560
H11 H 0.00190 0.00260 0.43070
H12 H -0.00400 0.03240 0.58960
H13 H 0.01140 0.07680 0.40170
H14 H -0.00020 0.07010 0.59880
H15 H 0.00780 0.03950 0.38710
H16 H 0.33470 0.15330 0.19210
H17 H 0.31870 0.08720 0.19270
H18 H 0.39170 0.08570 0.11080
H19 H 0.27200 0.09240 0.29010
H20 H 0.40670 0.14980 0.10950
H21 H 0.25730 0.13680 0.26180
H22 H 0.18080 0.14000 0.32260
H23 H 0.21080 0.07740 0.38050
H24 H 0.10380 0.14110 0.39890
H25 H 0.13530 0.08060 0.45710
N1H N -0.0081(3) -0.07724(9) 0.4979(3)
C15H C -0.0031(3) -0.03130(11) 0.5131(4)
C16H C -0.0068(4) -0.04544(13) 0.5684(4)
C17H C -0.0091(4) -0.06765(13) 0.5594(4)
C18H C -0.0023(3) -0.06376(11) 0.4451(4)
C19H C 0.0001(4) -0.04117(11) 0.4500(4)
C20H C -0.0012(4) -0.00758(11) 0.5237(4)
H11H H -0.00190 -0.00260 0.56930
H12H H 0.00400 -0.03240 0.41040
H13H H -0.01140 -0.07680 0.59830
H14H H 0.00020 -0.07010 0.40120
H15H H -0.00780 -0.03950 0.61290
Ag1H Ag -0.02798(2) -0.11460(1) 0.48659(3)
Mo1H Mo 0.05795(3) -0.17657(1) 0.52670(4)
Mo2H Mo 0.14745(3) -0.13978(1) 0.51163(4)
P1H P 0.04664(9) -0.13622(3) 0.55689(10)
P2H P 0.04898(8) -0.14461(3) 0.45214(9)
O1H O -0.0808(3) -0.17396(12) 0.5274(6)
O2H O 0.0644(6) -0.17303(18) 0.6839(5)
O3H O 0.1338(3) -0.09418(10) 0.4398(4)
O4H O 0.1772(4) -0.15806(14) 0.3675(4)
N2H N -0.4058(3) -0.11731(9) 0.8974(3)
N3H N -0.1111(3) -0.11124(12) 0.5644(4)
C1H C -0.0307(5) -0.17480(14) 0.5289(7)
C2H C 0.0616(6) -0.17373(18) 0.6267(6)
C3H C 0.1371(4) -0.11052(16) 0.4650(5)
C4H C 0.1655(4) -0.15173(16) 0.4194(6)
C5H C 0.1075(5) -0.20953(14) 0.5411(6)
C6H C 0.0486(5) -0.21419(15) 0.5257(7)
C7H C 0.0382(5) -0.20642(15) 0.4583(8)
C8H C 0.0917(5) -0.19737(14) 0.4343(6)
C9H C 0.1339(4) -0.19960(14) 0.4858(5)
C10H C 0.1794(6) -0.1378(2) 0.6240(6)
C11H C 0.2044(6) -0.1208(2) 0.5900(8)
C12H C 0.2429(5) -0.1295(2) 0.5379(8)
C13H C 0.2401(4) -0.15288(18) 0.5450(6)
C14H C 0.2017(5) -0.1579(2) 0.5977(6)
C21H C -0.3886(3) -0.13694(12) 0.8729(4)
C22H C -0.3460(3) -0.13911(13) 0.8234(4)
C23H C -0.3196(3) -0.12036(12) 0.7961(4)
C24H C -0.3366(3) -0.10038(12) 0.8228(4)
C25H C -0.3800(3) -0.09963(12) 0.8724(4)
C26H C -0.2741(3) -0.12265(12) 0.7446(4)
C27H C -0.2539(4) -0.10639(13) 0.7054(4)
C28H C -0.2062(4) -0.10871(13) 0.6563(4)
C29H C -0.1724(5) -0.12750(16) 0.6503(6)
C30H C -0.1264(5) -0.12793(16) 0.6044(6)
C31H C -0.1443(4) -0.09285(15) 0.5710(5)
C32H C -0.1900(4) -0.09092(15) 0.6158(5)
H1H H 0.17670 -0.19560 0.48220
H2H H 0.09920 -0.19180 0.38750
H3H H 0.00130 -0.20880 0.43110
H4H H 0.02060 -0.22310 0.55380
H5H H 0.12850 -0.21420 0.58320
H6H H 0.27080 -0.12100 0.50860
H7H H 0.19340 -0.17290 0.61600
H8H H 0.26480 -0.16370 0.51940
H9H H 0.20000 -0.10490 0.60170
H10H H 0.15300 -0.13630 0.66440
H16H H -0.33470 -0.15330 0.80790
H17H H -0.31870 -0.08720 0.80730
H18H H -0.39170 -0.08570 0.88920
H19H H -0.27200 -0.09240 0.70990
H20H H -0.40670 -0.14980 0.89050
H21H H -0.25730 -0.13680 0.73820
H22H H -0.18080 -0.14000 0.67740
H23H H -0.21080 -0.07740 0.61950
H24H H -0.10380 -0.14110 0.60110
H25H H -0.13530 -0.08060 0.54290
Ag1F Ag -0.47202(2) -0.11460(1) 0.98659(3)
Ag1N Ag 0.47202(2) 0.11460(1) 0.01341(3)
N2F N -0.0942(3) -0.11731(9) 0.3974(3)
N2N N 0.0942(3) 0.11731(9) 0.6026(3)
Al1 Al 0.23481(13) 0.25000 0.75000
F1 F 0.2255(8) 0.2121(3) 0.5777(9)
F2 F 0.1358(9) 0.2034(2) 0.5593(7)
F3 F 0.1633(10) 0.2491(4) 0.5552(16)
F4 F 0.0759(7) 0.2316(3) 0.7371(8)
F5 F 0.1379(14) 0.2040(3) 0.7485(15)
F6 F 0.2758(14) 0.2715(5) 0.5725(11)
F7 F 0.0902(8) 0.2539(2) 0.6174(7)
F8 F 0.0952(6) 0.22534(19) 0.5545(6)
F9 F 0.1014(8) 0.19327(19) 0.6491(6)
F10 F 0.3192(8) 0.2474(2) 0.6199(8)
F11 F 0.3706(7) 0.2749(3) 0.5794(6)
F12 F 0.3561(9) 0.2864(4) 0.7787(10)
F13 F 0.3935(8) 0.2630(4) 0.7128(11)
F14 F 0.4019(6) 0.2988(3) 0.6908(7)
F15 F 0.3152(12) 0.3144(4) 0.6075(15)
F16 F 0.2279(7) 0.3039(3) 0.6375(8)
O5 O 0.1808(5) 0.2415(2) 0.6941(6)
O6 O 0.2637(7) 0.27182(19) 0.7111(6)
C33 C 0.1786(17) 0.2074(4) 0.6082(14)
C34 C 0.111(3) 0.2111(9) 0.694(2)
C35 C 0.1573(4) 0.22578(13) 0.6544(4)
C36 C 0.123(2) 0.2384(5) 0.5924(18)
C37 C 0.3114(4) 0.28181(13) 0.6774(4)
C38 C 0.3196(10) 0.2692(3) 0.6099(13)
C39 C 0.3655(10) 0.2829(5) 0.7164(14)
C40 C 0.2831(11) 0.3042(3) 0.6593(11)
F17 F 0.1826(8) 0.18809(17) 0.6401(7)
F18 F 0.2900(10) 0.3176(2) 0.7135(9)
F1B F 0.2255(8) 0.2879(3) 0.9223(9)
F2B F 0.1358(9) 0.2966(2) 0.9407(7)
F3B F 0.1633(10) 0.2509(4) 0.9448(16)
F4B F 0.0759(7) 0.2684(3) 0.7629(8)
F5B F 0.1379(14) 0.2960(3) 0.7515(15)
F6B F 0.2758(14) 0.2285(5) 0.9275(11)
F7B F 0.0902(8) 0.2461(2) 0.8826(7)
F8B F 0.0952(6) 0.27466(19) 0.9455(6)
F9B F 0.1014(8) 0.30673(19) 0.8509(6)
F10B F 0.3192(8) 0.2526(2) 0.8801(8)
F11B F 0.3706(7) 0.2251(3) 0.9206(6)
F12B F 0.3561(9) 0.2136(4) 0.7213(10)
F13B F 0.3935(8) 0.2370(4) 0.7872(11)
F14B F 0.4019(6) 0.2012(3) 0.8092(7)
F15B F 0.3152(12) 0.1856(4) 0.8925(15)
F16B F 0.2279(7) 0.1961(3) 0.8625(8)
O5B O 0.1808(5) 0.2585(2) 0.8059(6)
O6B O 0.2637(7) 0.22818(19) 0.7889(6)
C33B C 0.1786(17) 0.2926(4) 0.8918(14)
C34B C 0.111(3) 0.2889(9) 0.806(2)
C35B C 0.1573(4) 0.27422(13) 0.8456(4)
C36B C 0.123(2) 0.2616(5) 0.9076(18)
C37B C 0.3114(4) 0.21819(13) 0.8226(4)
C38B C 0.3196(10) 0.2308(3) 0.8901(13)
C39B C 0.3655(10) 0.2171(5) 0.7836(14)
C40B C 0.2831(11) 0.1958(3) 0.8407(11)
F17B F 0.1826(8) 0.31191(17) 0.8599(7)
F18B F 0.2900(10) 0.1824(2) 0.7865(9)
Al2 Al 0.25000 0.00000 0.16969(14)
F19 F 0.3800(10) 0.0027(3) 0.3753(9)
F20 F 0.4170(10) -0.0156(3) 0.2804(12)
F21 F 0.3227(9) -0.0176(3) 0.3351(10)
F22 F 0.4366(9) 0.0302(3) 0.2813(8)
F23 F 0.3699(9) 0.0449(3) 0.2132(10)
F24 F 0.3122(6) 0.0568(2) 0.0833(7)
F25 F 0.2020(8) 0.0575(3) 0.1676(9)
F26 F 0.1490(11) 0.0636(5) 0.0756(14)
F27 F 0.1250(6) 0.0362(3) 0.1427(9)
F28 F 0.1540(6) 0.0011(3) 0.0615(7)
F29 F 0.1352(7) 0.0296(3) -0.0029(8)
F30 F 0.2165(8) 0.0102(3) -0.0202(7)
O7 O 0.3116(3) 0.00269(11) 0.2193(3)
O8 O 0.2428(3) 0.02292(10) 0.1204(3)
C41 C 0.3500(5) 0.01230(19) 0.2575(6)
C42 C 0.3695(9) -0.0061(3) 0.3138(9)
C43 C 0.4012(8) 0.0277(3) 0.2266(9)
C44 C 0.2159(15) 0.0338(5) 0.0725(17)
C45 C 0.1712(8) 0.0476(3) 0.1156(9)
C46 C 0.1783(8) 0.0179(3) 0.0270(11)
F31 F 0.2241(7) 0.0566(4) -0.0220(10)
F32 F 0.3059(9) 0.0387(4) 0.0084(16)
C47 C 0.253(2) 0.0489(8) 0.032(3)
F33 F 0.2834(10) 0.0441(3) 0.2596(10)
C48 C 0.3065(8) 0.0296(3) 0.3047(9)
F34 F 0.3436(9) 0.0423(3) 0.3454(8)
F35 F 0.2722(9) 0.0182(3) 0.3500(10)
F36 F 0.4202(9) 0.0138(3) 0.1833(9)
F19E F 0.1200(10) -0.0027(3) 0.3753(9)
F20E F 0.0830(10) 0.0156(3) 0.2804(12)
F21E F 0.1773(9) 0.0176(3) 0.3351(10)
F22E F 0.0634(9) -0.0302(3) 0.2813(8)
F23E F 0.1301(9) -0.0449(3) 0.2132(10)
F24E F 0.1878(6) -0.0568(2) 0.0833(7)
F25E F 0.2980(8) -0.0575(3) 0.1676(9)
F26E F 0.3510(11) -0.0636(5) 0.0756(14)
F27E F 0.3750(6) -0.0362(3) 0.1427(9)
F28E F 0.3460(6) -0.0011(3) 0.0615(7)
F29E F 0.3648(7) -0.0296(3) -0.0029(8)
F30E F 0.2835(8) -0.0102(3) -0.0202(7)
O7E O 0.1884(3) -0.00269(11) 0.2193(3)
O8E O 0.2572(3) -0.02292(10) 0.1204(3)
C41E C 0.1500(5) -0.01230(19) 0.2575(6)
C42E C 0.1305(9) 0.0061(3) 0.3138(9)
C43E C 0.0988(8) -0.0277(3) 0.2266(9)
C44E C 0.2841(15) -0.0338(5) 0.0725(17)
C45E C 0.3288(8) -0.0476(3) 0.1156(9)
C46E C 0.3217(8) -0.0179(3) 0.0270(11)
F31E F 0.2759(7) -0.0566(4) -0.0220(10)
F32E F 0.1941(9) -0.0387(4) 0.0084(16)
C47E C 0.247(2) -0.0489(8) 0.032(3)
F33E F 0.2166(10) -0.0441(3) 0.2596(10)
C48E C 0.1935(8) -0.0296(3) 0.3047(9)
F34E F 0.1564(9) -0.0423(3) 0.3454(8)
F35E F 0.2278(9) -0.0182(3) 0.3500(10)
F36E F 0.0798(9) -0.0138(3) 0.1833(9)
C49 C 0.50000 0.0830(3) 0.25000
C50 C 0.4565(5) 0.09404(19) 0.2846(5)
C51 C 0.4570(5) 0.11638(19) 0.2853(5)
C52 C 0.50000 0.1287(2) 0.25000
C53 C 0.50000 0.1532(3) 0.25000
H26 H 0.50000 0.06740 0.25000
H27 H 0.42630 0.08620 0.30770
H28 H 0.42750 0.12390 0.31050
C50C C 0.5435(5) 0.09404(19) 0.2154(5)
C51C C 0.5430(5) 0.11638(19) 0.2147(5)
H27C H 0.57370 0.08620 0.19230
H28C H 0.57250 0.12390 0.18950
O9? O 0.2026(7) 0.2310(2) 0.6969(7)
C54? C 0.1295(18) 0.2444(6) 0.616(2)
C55? C 0.2126(12) 0.2137(5) 0.6170(17)
C56? C 0.113(2) 0.2154(9) 0.696(3)
F37? F 0.0730(8) 0.2409(3) 0.5954(10)
F38? F 0.1272(6) 0.26249(17) 0.6564(7)
F39? F 0.1665(19) 0.2490(6) 0.563(2)
F40? F 0.0661(8) 0.2033(3) 0.6720(8)
F41? F 0.1936(9) 0.2018(2) 0.5627(7)
F42? F 0.2551(6) 0.2249(2) 0.6045(7)
F43? F 0.0636(7) 0.2215(3) 0.7016(9)
F44? F 0.1284(18) 0.2029(6) 0.748(2)
O10? O 0.2931(6) 0.2641(2) 0.7114(6)
C57? C 0.2142(7) 0.0397(5) 0.0902(15)
C58? C 0.1831(9) 0.0568(4) 0.1398(11)
C59? C 0.2590(14) 0.0534(7) 0.049(2)
C60? C 0.1632(9) 0.0295(3) 0.0450(10)
F45? F 0.2761(8) 0.0399(2) -0.0043(7)
F46? F 0.2378(6) 0.07201(17) 0.0268(8)
F47? F 0.2234(7) 0.0712(3) 0.1594(9)
F48? F 0.1402(10) 0.0667(4) 0.1025(14)
F49? F 0.1584(6) 0.0467(2) 0.1937(7)
F50? F 0.1183(5) 0.0247(2) 0.0874(7)
F51? F 0.2733(11) 0.0664(3) 0.0692(11)
F52? F 0.1821(9) 0.0108(3) 0.0158(8)
F53? F 0.1461(10) 0.0436(3) -0.0029(10)
C61? C 0.4090(8) -0.0032(3) 0.2808(12)
C62? C 0.3871(8) 0.0268(3) 0.1937(9)
F54? F 0.3296(9) 0.0177(3) 0.3542(10)
F55? F 0.2706(8) 0.0362(3) 0.2838(11)
C63? C 0.3278(8) 0.0339(4) 0.3047(17)
F56? F 0.3717(10) 0.0476(3) 0.3137(11)
F57? F 0.3551(8) 0.0458(3) 0.1748(11)
F58? F 0.3907(8) 0.0160(3) 0.1318(9)
F59? F 0.4435(9) 0.0116(3) 0.3132(11)
F60? F 0.4424(7) 0.0349(3) 0.2072(10)
F61? F 0.3744(11) -0.0200(3) 0.3053(11)
F62? F 0.4372(10) -0.0081(3) 0.2218(11)
C64? C 0.0593(19) 0.0781(8) 0.246(2)
C65? C 0.0574(9) 0.1012(6) 0.2358(14)
C66? C 0.00000 0.1064(5) 0.25000
C67? C 0.00000 0.1316(5) 0.25000
H29? H 0.02750 0.13700 0.28470
H30? H -0.01260 0.13700 0.29450
H31? H 0.08870 0.11070 0.22210
H32? H 0.09630 0.07080 0.25130
C68? C 0.00000 0.0645(6) 0.25000
C69? C 0.0376(13) 0.0688(5) 0.2514(15)
C70? C 0.0565(12) 0.0915(5) 0.2494(14)
C71? C 0.030(2) 0.1108(6) 0.255(3)
C72? C 0.048(3) 0.1310(12) 0.266(4)
H33? H 0.00000 0.04890 0.25000
H34? H 0.09800 0.09280 0.24250
H35? H 0.04010 0.13700 0.24020
H36? H 0.09100 0.13110 0.27340
H37? H 0.02820 0.13680 0.30660
H38? H 0.03830 0.14030 0.22720
H39? H 0.06260 0.05620 0.25370
H40? H 0.46340 0.15850 0.27100
H41? H 0.50240 0.15850 0.20330
H42? H 0.53420 0.15850 0.27570
C73? C 0.3806(14) 0.2762(6) 0.660(2)
C74? C 0.3154(12) 0.3025(3) 0.7293(11)
C75? C 0.2785(11) 0.2885(4) 0.6176(10)
F63? F 0.2269(7) 0.1970(2) 0.6638(6)
F64? F 0.3989(8) 0.2904(4) 0.6126(14)
F65? F 0.3828(9) 0.2568(3) 0.6321(12)
F66? F 0.2847(17) 0.2757(7) 0.5588(14)
F67? F 0.3306(12) 0.2956(3) 0.7914(10)
F68? F 0.4140(7) 0.2774(3) 0.7151(14)
F69? F 0.3509(10) 0.3172(2) 0.7089(9)
F70? F 0.2918(11) 0.3086(4) 0.5960(11)
F71? F 0.2201(6) 0.2879(3) 0.6347(7)
F72? F 0.2614(7) 0.3109(2) 0.7336(7)
loop_
_geom_bond_atom_site_label_1
_geom_bond_atom_site_label_2
_geom_bond_site_symmetry_1
_geom_bond_site_symmetry_2
Ag1 P1 1_555 1_555
Mo1 Mo2 1_555 1_555
Mo2 P1 1_555 1_555
P1 Mo1 1_555 1_555
P2 Ag1 1_555 1_555
O1 C1 1_555 1_555
O2 C2 1_555 1_555
O3 C3 1_555 1_555
O4 C4 1_555 1_555
N1 Ag1 1_555 1_555
N2 C21 1_555 1_555
N3 Ag1 1_555 1_555
C1 Mo1 1_555 1_555
C2 Mo1 1_555 1_555
C3 Mo2 1_555 1_555
C4 Mo2 1_555 1_555
C5 Mo1 1_555 1_555
C6 Mo1 1_555 1_555
C7 Mo1 1_555 1_555
C8 Mo1 1_555 1_555
C9 Mo1 1_555 1_555
C10 Mo2 1_555 1_555
C11 Mo2 1_555 1_555
C12 Mo2 1_555 1_555
C13 Mo2 1_555 1_555
C14 Mo2 1_555 1_555
C15 C16 1_555 1_555
C16 C17 1_555 1_555
C17 N1 1_555 1_555
C18 N1 1_555 1_555
C19 C15 1_555 1_555
C20 C15 1_555 1_555
C21 C22 1_555 1_555
C22 C23 1_555 1_555
C23 C24 1_555 1_555
C24 C25 1_555 1_555
C25 N2 1_555 1_555
C26 C23 1_555 1_555
C27 C26 1_555 1_555
C28 C27 1_555 1_555
C29 C28 1_555 1_555
C30 N3 1_555 1_555
C31 N3 1_555 1_555
C32 C28 1_555 1_555
H1 C9 1_555 1_555
H2 C8 1_555 1_555
H3 C7 1_555 1_555
H4 C6 1_555 1_555
H5 C5 1_555 1_555
H6 C12 1_555 1_555
H7 C14 1_555 1_555
H8 C13 1_555 1_555
H9 C11 1_555 1_555
H10 C10 1_555 1_555
H11 C20 1_555 1_555
H12 C19 1_555 1_555
H13 C17 1_555 1_555
H14 C18 1_555 1_555
H15 C16 1_555 1_555
H16 C22 1_555 1_555
H17 C24 1_555 1_555
H18 C25 1_555 1_555
H19 C27 1_555 1_555
H20 C21 1_555 1_555
H21 C26 1_555 1_555
H22 C29 1_555 1_555
H23 C32 1_555 1_555
H24 C30 1_555 1_555
H25 C31 1_555 1_555
Al1 O5 1_555 1_555
F1 C33 1_555 1_555
F2 C33 1_555 1_555
F3 C36 1_555 1_555
F4 C34 1_555 1_555
F5 C34 1_555 1_555
F6 C38 1_555 1_555
F7 C36 1_555 1_555
F8 C36 1_555 1_555
F9 C34 1_555 1_555
F10 C38 1_555 1_555
F11 C38 1_555 1_555
F12 C39 1_555 1_555
F13 C39 1_555 1_555
F14 C39 1_555 1_555
F15 C40 1_555 1_555
F16 C40 1_555 1_555
O5 C35 1_555 1_555
O6 Al1 1_555 1_555
C33 C35 1_555 1_555
C34 C35 1_555 1_555
C35 C36 1_555 1_555
C37 O6 1_555 1_555
C38 C37 1_555 1_555
C39 C37 1_555 1_555
C40 C37 1_555 1_555
F17 C33 1_555 1_555
F18 C40 1_555 1_555
Al2 O7 1_555 1_555
F19 C42 1_555 1_555
F20 C42 1_555 1_555
F21 C42 1_555 1_555
F22 C43 1_555 1_555
F23 C43 1_555 1_555
F24 C47 1_555 1_555
F25 C45 1_555 1_555
F26 C45 1_555 1_555
F27 C45 1_555 1_555
F28 C46 1_555 1_555
F29 C46 1_555 1_555
F30 C46 1_555 1_555
O7 C41 1_555 1_555
O8 Al2 1_555 1_555
C41 C42 1_555 1_555
C43 C41 1_555 1_555
C44 O8 1_555 1_555
C45 C44 1_555 1_555
C46 C44 1_555 1_555
F31 C47 1_555 1_555
F32 C47 1_555 1_555
C47 C44 1_555 1_555
F33 C48 1_555 1_555
C48 C41 1_555 1_555
F34 C48 1_555 1_555
F35 C48 1_555 1_555
F36 C43 1_555 1_555
C49 C50 1_555 1_555
C50 C51 1_555 1_555
C51 C52 1_555 1_555
C52 C53 1_555 1_555
H26 C49 1_555 1_555
H27 C50 1_555 1_555
H28 C51 1_555 1_555
N1H C17H 1_555 1_555
C15H C16H 1_555 1_555
C16H C17H 1_555 1_555
C17H H13H 1_555 1_555
C18H N1H 1_555 1_555
C19H C15H 1_555 1_555
C20H C20 1_555 1_555
H11H C20H 1_555 1_555
H12H C19H 1_555 1_555
H14H C18H 1_555 1_555
H15H C16H 1_555 1_555
Ag1H N1H 1_555 1_555
Mo1H Mo2H 1_555 1_555
Mo2H P1H 1_555 1_555
P1H Ag1H 1_555 1_555
P2H Ag1H 1_555 1_555
O1H C1H 1_555 1_555
O2H C2H 1_555 1_555
O3H C3H 1_555 1_555
O4H C4H 1_555 1_555
N2H C21H 1_555 1_555
N3H Ag1H 1_555 1_555
C1H Mo1H 1_555 1_555
C2H Mo1H 1_555 1_555
C3H Mo2H 1_555 1_555
C4H Mo2H 1_555 1_555
C5H Mo1H 1_555 1_555
C6H Mo1H 1_555 1_555
C7H Mo1H 1_555 1_555
C8H Mo1H 1_555 1_555
C9H Mo1H 1_555 1_555
C10H Mo2H 1_555 1_555
C11H Mo2H 1_555 1_555
C12H Mo2H 1_555 1_555
C13H Mo2H 1_555 1_555
C14H Mo2H 1_555 1_555
C21H C22H 1_555 1_555
C22H C23H 1_555 1_555
C23H C24H 1_555 1_555
C24H C25H 1_555 1_555
C25H N2H 1_555 1_555
C26H C23H 1_555 1_555
C27H C26H 1_555 1_555
C28H C27H 1_555 1_555
C29H C28H 1_555 1_555
C30H N3H 1_555 1_555
C31H N3H 1_555 1_555
C32H C28H 1_555 1_555
H1H C9H 1_555 1_555
H2H C8H 1_555 1_555
H3H C7H 1_555 1_555
H4H C6H 1_555 1_555
H5H C5H 1_555 1_555
H6H C12H 1_555 1_555
H7H C14H 1_555 1_555
H8H C13H 1_555 1_555
H9H C11H 1_555 1_555
H10H C10H 1_555 1_555
H16H C22H 1_555 1_555
H17H C24H 1_555 1_555
H18H C25H 1_555 1_555
H19H C27H 1_555 1_555
H20H C21H 1_555 1_555
H21H C26H 1_555 1_555
H22H C29H 1_555 1_555
H23H C32H 1_555 1_555
H24H C30H 1_555 1_555
H25H C31H 1_555 1_555
Ag1F N2H 1_555 1_555
Ag1N N2 1_555 1_555
N2F Ag1H 1_555 1_555
N2N Ag1 1_555 1_555
F1B C33B 1_555 1_555
F2B C33B 1_555 1_555
F3B C36B 1_555 1_555
F4B C34B 1_555 1_555
F5B C34B 1_555 1_555
F6B C38B 1_555 1_555
F7B C36B 1_555 1_555
F8B C36B 1_555 1_555
F9B C34B 1_555 1_555
F10B C38B 1_555 1_555
F11B C38B 1_555 1_555
F12B C39B 1_555 1_555
F13B C39B 1_555 1_555
F14B C39B 1_555 1_555
F15B C40B 1_555 1_555
F16B C40B 1_555 1_555
O5B Al1 1_555 1_555
O6B Al1 1_555 1_555
C33B C35B 1_555 1_555
C34B C35B 1_555 1_555
C35B O5B 1_555 1_555
C36B C35B 1_555 1_555
C37B O6B 1_555 1_555
C38B C37B 1_555 1_555
C39B C37B 1_555 1_555
C40B C37B 1_555 1_555
F17B C33B 1_555 1_555
F18B C40B 1_555 1_555
F19E C42E 1_555 1_555
F20E C42E 1_555 1_555
F21E C42E 1_555 1_555
F22E C43E 1_555 1_555
F23E C43E 1_555 1_555
F24E C47E 1_555 1_555
F25E C45E 1_555 1_555
F26E C45E 1_555 1_555
F27E C45E 1_555 1_555
F28E C46E 1_555 1_555
F29E C46E 1_555 1_555
F30E C46E 1_555 1_555
O7E Al2 1_555 1_555
O8E Al2 1_555 1_555
C41E O7E 1_555 1_555
C42E C41E 1_555 1_555
C43E C41E 1_555 1_555
C44E O8E 1_555 1_555
C45E C44E 1_555 1_555
C46E C44E 1_555 1_555
F31E C47E 1_555 1_555
F32E C47E 1_555 1_555
C47E C44E 1_555 1_555
F33E C48E 1_555 1_555
C48E C41E 1_555 1_555
F34E C48E 1_555 1_555
F35E C48E 1_555 1_555
F36E C43E 1_555 1_555
C50C C49 1_555 1_555
C51C C52 1_555 1_555
H27C C50C 1_555 1_555
H28C C51C 1_555 1_555
Mo1 P2 1_555 1_555
Mo2 P2 1_555 1_555
P1 P2 1_555 1_555
C5 C6 1_555 1_555
C5 C9 1_555 1_555
C6 C7 1_555 1_555
C7 C8 1_555 1_555
C8 C9 1_555 1_555
C10 C11 1_555 1_555
C10 C14 1_555 1_555
C11 C12 1_555 1_555
C12 C13 1_555 1_555
C13 C14 1_555 1_555
C18 C19 1_555 1_555
C29 C30 1_555 1_555
C31 C32 1_555 1_555
C15H C20H 1_555 1_555
C18H C19H 1_555 1_555
Mo1H P1H 1_555 1_555
Mo1H P2H 1_555 1_555
Mo2H P2H 1_555 1_555
P1H P2H 1_555 1_555
C5H C6H 1_555 1_555
C5H C9H 1_555 1_555
C6H C7H 1_555 1_555
C7H C8H 1_555 1_555
C8H C9H 1_555 1_555
C10H C11H 1_555 1_555
C10H C14H 1_555 1_555
C11H C12H 1_555 1_555
C12H C13H 1_555 1_555
C13H C14H 1_555 1_555
C29H C30H 1_555 1_555
C31H C32H 1_555 1_555
C50C C51C 1_555 1_555

#END
