
#######################################################################
#
#                 Cambridge Crystallographic Data Centre
#                                CCDC 
#
#######################################################################
#
# If this CIF has been generated from an entry in the Cambridge 
# Structural Database, then it will include bibliographic, chemical, 
# crystal, experimental, refinement or atomic coordinate data resulting 
# from the CCDC's data processing and validation procedures.
#
#######################################################################

data_AHUPEA
_symmetry_cell_setting           triclinic
_symmetry_space_group_name_H-M   'P -1'
_symmetry_Int_Tables_number      2
_space_group_name_Hall           '-P 1'
loop_
_symmetry_equiv_pos_site_id
_symmetry_equiv_pos_as_xyz
1 x,y,z
2 -x,-y,-z
_cell_length_a                   12.149(2)
_cell_length_b                   13.216(2)
_cell_length_c                   14.011(2)
_cell_angle_alpha                61.995(8)
_cell_angle_beta                 72.171(11)
_cell_angle_gamma                75.034(10)
_cell_volume                     1873.2
loop_
_atom_site_label
_atom_site_type_symbol
_atom_site_fract_x
_atom_site_fract_y
_atom_site_fract_z
Mn1 Mn 0.51148(3) 0.38575(3) 0.47419(3)
Mn2 Mn 0.86460(3) 0.04225(3) 0.56036(3)
O1 O 0.56303(15) 0.41489(15) 0.57574(15)
O2 O 0.63808(16) 0.43552(15) 0.35275(15)
O3 O 0.91647(15) -0.04616(15) 0.47547(14)
O4 O 0.87157(16) -0.08759(16) 0.69523(15)
O5 O 0.59946(16) 0.21424(16) 0.53622(16)
O6 O 0.68839(15) 0.03370(15) 0.58219(16)
N1 N 0.36085(18) 0.35288(18) 0.58424(18)
N2 N 0.42391(19) 0.37349(19) 0.38226(19)
N3 N 0.87628(18) 0.18442(18) 0.42030(18)
N4 N 0.85386(18) 0.15094(18) 0.62366(18)
C1 C 0.5441(2) 0.3448(2) 0.6850(2)
C2 C 0.6256(2) 0.3297(2) 0.7452(2)
C3 C 0.6092(2) 0.2594(2) 0.8564(2)
C4 C 0.5111(3) 0.2027(3) 0.9138(2)
C5 C 0.4275(2) 0.2205(2) 0.8573(2)
C6 C 0.4426(2) 0.2900(2) 0.7432(2)
C7 C 0.3494(2) 0.3113(2) 0.6896(2)
C8 C 0.2618(2) 0.3815(2) 0.5322(2)
C9 C 0.3046(2) 0.3408(2) 0.4405(2)
C10 C 0.4619(2) 0.3890(2) 0.2807(2)
C11 C 0.5737(2) 0.4219(2) 0.2129(2)
C12 C 0.6012(2) 0.4327(2) 0.1036(2)
C13 C 0.7048(2) 0.4681(2) 0.0320(2)
C14 C 0.7832(2) 0.4945(2) 0.0688(2)
C15 C 0.7588(2) 0.4858(2) 0.1752(2)
C16 C 0.6551(2) 0.4465(2) 0.2514(2)
C17 C 0.8730(2) -0.0171(2) 0.3872(2)
C18 C 0.8629(2) -0.1050(2) 0.3621(2)
C19 C 0.8258(2) -0.0784(2) 0.2690(2)
C20 C 0.7984(2) 0.0359(2) 0.1953(2)
C21 C 0.8088(2) 0.1234(2) 0.2175(2)
C22 C 0.8449(2) 0.0992(2) 0.3131(2)
C23 C 0.8622(2) 0.1937(2) 0.3291(2)
C24 C 0.9057(2) 0.2807(2) 0.4285(2)
C25 C 0.8440(2) 0.2736(2) 0.5440(2)
C26 C 0.8615(2) 0.1211(2) 0.7238(2)
C27 C 0.8720(2) 0.0049(2) 0.8089(2)
C28 C 0.8830(2) -0.0109(2) 0.9130(2)
C29 C 0.8960(2) -0.1194(2) 0.9972(2)
C30 C 0.8971(2) -0.2158(2) 0.9815(2)
C31 C 0.8861(2) -0.2032(2) 0.8800(2)
C32 C 0.8754(2) -0.0933(2) 0.7917(2)
C33 C 0.5978(2) 0.1077(2) 0.5712(2)
C34 C 0.4828(2) 0.0608(2) 0.6073(2)
C35 C 0.4872(2) -0.0262(2) 0.5630(2)
H1 H 0.6926 0.3685 0.7083
H2 H 0.6661 0.2491 0.8952
H3 H 0.5018 0.1526 0.9906
H4 H 0.3585 0.1849 0.8964
H5 H 0.2746 0.2933 0.7351
H6 H 0.2359 0.4659 0.5014
H7 H 0.1953 0.3417 0.5873
H8 H 0.3070 0.2559 0.4719
H9 H 0.2516 0.3782 0.3882
H10 H 0.4114 0.3777 0.2474
H11 H 0.5471 0.4152 0.0787
H12 H 0.7223 0.4744 -0.0413
H13 H 0.8548 0.5190 0.0199
H14 H 0.8129 0.5065 0.1975
H15 H 0.8819 -0.1837 0.4102
H16 H 0.8185 -0.1393 0.2542
H17 H 0.7731 0.0530 0.1310
H18 H 0.7914 0.2016 0.1673
H19 H 0.8632 0.2678 0.2682
H20 H 0.8788 0.3556 0.3710
H21 H 0.9912 0.2741 0.4181
H22 H 0.8808 0.3181 0.5635
H23 H 0.7608 0.3068 0.5457
H24 H 0.8600 0.1816 0.7429
H25 H 0.8814 0.0548 0.9247
H26 H 0.9042 -0.1286 1.0662
H27 H 0.9053 -0.2908 1.0401
H28 H 0.8859 -0.2698 0.8706
H29 H 0.4210 0.1261 0.5813
H30 H 0.4615 0.0231 0.6892
H31 H 0.5483 -0.0921 0.5897
H32 H 0.4114 -0.0564 0.5927
O5A O 0.40054(16) -0.21424(16) 0.46378(16)
O6A O 0.31161(15) -0.03370(15) 0.41781(16)
C33A C 0.4022(2) -0.1077(2) 0.4288(2)
C34A C 0.5172(2) -0.0608(2) 0.3927(2)
C35A C 0.5128(2) 0.0262(2) 0.4370(2)
H29A H 0.5790 -0.1261 0.4187
H30A H 0.5385 -0.0231 0.3108
H31A H 0.4517 0.0921 0.4103
H32A H 0.5886 0.0564 0.4073
Mn1A Mn 0.48852(3) -0.38575(3) 0.52581(3)
Mn2A Mn 0.13540(3) -0.04225(3) 0.43964(3)
O1A O 0.43697(15) -0.41489(15) 0.42426(15)
O2A O 0.36192(16) -0.43552(15) 0.64725(15)
O3A O 0.08353(15) 0.04616(15) 0.52453(14)
O4A O 0.12843(16) 0.08759(16) 0.30477(15)
N1A N 0.63915(18) -0.35288(18) 0.41576(18)
N2A N 0.57609(19) -0.37349(19) 0.61774(19)
N3A N 0.12372(18) -0.18442(18) 0.57970(18)
N4A N 0.14614(18) -0.15094(18) 0.37634(18)
C1A C 0.4559(2) -0.3448(2) 0.3150(2)
C2A C 0.3744(2) -0.3297(2) 0.2548(2)
C3A C 0.3908(2) -0.2594(2) 0.1436(2)
C4A C 0.4889(3) -0.2027(3) 0.0862(2)
C5A C 0.5725(2) -0.2205(2) 0.1427(2)
C6A C 0.5574(2) -0.2900(2) 0.2568(2)
C7A C 0.6506(2) -0.3113(2) 0.3104(2)
C8A C 0.7382(2) -0.3815(2) 0.4678(2)
C9A C 0.6954(2) -0.3408(2) 0.5595(2)
C10A C 0.5381(2) -0.3890(2) 0.7193(2)
C11A C 0.4263(2) -0.4219(2) 0.7871(2)
C12A C 0.3988(2) -0.4327(2) 0.8964(2)
C13A C 0.2952(2) -0.4681(2) 0.9680(2)
C14A C 0.2168(2) -0.4945(2) 0.9312(2)
C15A C 0.2412(2) -0.4858(2) 0.8248(2)
C16A C 0.3449(2) -0.4465(2) 0.7486(2)
C17A C 0.1270(2) 0.0171(2) 0.6128(2)
C18A C 0.1371(2) 0.1050(2) 0.6379(2)
C19A C 0.1742(2) 0.0784(2) 0.7310(2)
C20A C 0.2016(2) -0.0359(2) 0.8047(2)
C21A C 0.1912(2) -0.1234(2) 0.7825(2)
C22A C 0.1551(2) -0.0992(2) 0.6869(2)
C23A C 0.1378(2) -0.1937(2) 0.6709(2)
C24A C 0.0943(2) -0.2807(2) 0.5715(2)
C25A C 0.1560(2) -0.2736(2) 0.4560(2)
C26A C 0.1385(2) -0.1211(2) 0.2762(2)
C27A C 0.1280(2) -0.0049(2) 0.1911(2)
C28A C 0.1170(2) 0.0109(2) 0.0870(2)
C29A C 0.1040(2) 0.1194(2) 0.0028(2)
C30A C 0.1029(2) 0.2158(2) 0.0185(2)
C31A C 0.1139(2) 0.2032(2) 0.1200(2)
C32A C 0.1246(2) 0.0933(2) 0.2083(2)
H1A H 0.3074 -0.3685 0.2917
H2A H 0.3339 -0.2491 0.1048
H3A H 0.4982 -0.1526 0.0094
H4A H 0.6415 -0.1849 0.1036
H5A H 0.7254 -0.2933 0.2649
H6A H 0.7641 -0.4659 0.4986
H7A H 0.8047 -0.3417 0.4127
H8A H 0.6930 -0.2559 0.5281
H9A H 0.7484 -0.3782 0.6118
H10A H 0.5886 -0.3777 0.7526
H11A H 0.4529 -0.4152 0.9213
H12A H 0.2777 -0.4744 1.0413
H13A H 0.1452 -0.5190 0.9801
H14A H 0.1871 -0.5065 0.8025
H15A H 0.1181 0.1837 0.5898
H16A H 0.1815 0.1393 0.7458
H17A H 0.2269 -0.0530 0.8690
H18A H 0.2086 -0.2016 0.8327
H19A H 0.1368 -0.2678 0.7318
H20A H 0.1212 -0.3556 0.6290
H21A H 0.0088 -0.2741 0.5819
H22A H 0.1192 -0.3181 0.4365
H23A H 0.2392 -0.3068 0.4543
H24A H 0.1400 -0.1816 0.2571
H25A H 0.1186 -0.0548 0.0753
H26A H 0.0958 0.1286 -0.0662
H27A H 0.0947 0.2908 -0.0401
H28A H 0.1141 0.2698 0.1294
Mn1_2 Mn 0.51148(3) -0.61425(3) 0.47419(3)
Mn1A_2 Mn 0.48852(3) 0.61425(3) 0.52581(3)
O1_2 O 0.56303(15) -0.58511(15) 0.57574(15)
O1A_2 O 0.43697(15) 0.58511(15) 0.42426(15)
P1 P 0.93839(7) 0.41787(7) 0.76055(7)
F1 F 0.9405(2) 0.4891(3) 0.8230(3)
F2 F 0.9065(2) 0.3111(2) 0.87522(19)
F3 F 0.80135(18) 0.4596(2) 0.7683(2)
F4 F 0.9695(2) 0.52258(19) 0.6437(2)
F5 F 1.07431(18) 0.3763(2) 0.75585(19)
F6 F 0.9377(2) 0.3462(2) 0.6985(2)
O7 O 0.3063(2) 0.2360(2) 0.2631(2)
C36 C 0.3800(3) 0.2101(3) 0.1762(3)
H33 H 0.4127 0.1281 0.2056
H34 H 0.4435 0.2577 0.1404
H35 H 0.3353 0.2263 0.1219
loop_
_geom_bond_atom_site_label_1
_geom_bond_atom_site_label_2
_geom_bond_site_symmetry_1
_geom_bond_site_symmetry_2
Mn1 O1 1_555 1_555
Mn2 O3 1_555 1_555
O1 C1 1_555 1_555
O2 Mn1 1_555 1_555
O3 C17 1_555 1_555
O4 Mn2 1_555 1_555
O5 Mn1 1_555 1_555
O6 Mn2 1_555 1_555
N1 Mn1 1_555 1_555
N2 Mn1 1_555 1_555
N3 Mn2 1_555 1_555
N4 Mn2 1_555 1_555
C1 C2 1_555 1_555
C2 C3 1_555 1_555
C3 C4 1_555 1_555
C4 C5 1_555 1_555
C5 C6 1_555 1_555
C6 C1 1_555 1_555
C7 N1 1_555 1_555
C8 N1 1_555 1_555
C9 N2 1_555 1_555
C10 N2 1_555 1_555
C11 C10 1_555 1_555
C12 C11 1_555 1_555
C13 C12 1_555 1_555
C14 C13 1_555 1_555
C15 C14 1_555 1_555
C16 O2 1_555 1_555
C17 C18 1_555 1_555
C18 C19 1_555 1_555
C19 C20 1_555 1_555
C20 C21 1_555 1_555
C21 C22 1_555 1_555
C22 C17 1_555 1_555
C23 N3 1_555 1_555
C24 N3 1_555 1_555
C25 N4 1_555 1_555
C26 N4 1_555 1_555
C27 C26 1_555 1_555
C28 C27 1_555 1_555
C29 C28 1_555 1_555
C30 C29 1_555 1_555
C31 C30 1_555 1_555
C32 O4 1_555 1_555
C33 O5 1_555 1_555
C34 C33 1_555 1_555
C35 C34 1_555 1_555
H1 C2 1_555 1_555
H2 C3 1_555 1_555
H3 C4 1_555 1_555
H4 C5 1_555 1_555
H5 C7 1_555 1_555
H6 C8 1_555 1_555
H7 C8 1_555 1_555
H8 C9 1_555 1_555
H9 C9 1_555 1_555
H10 C10 1_555 1_555
H11 C12 1_555 1_555
H12 C13 1_555 1_555
H13 C14 1_555 1_555
H14 C15 1_555 1_555
H15 C18 1_555 1_555
H16 C19 1_555 1_555
H17 C20 1_555 1_555
H18 C21 1_555 1_555
H19 C23 1_555 1_555
H20 C24 1_555 1_555
H21 C24 1_555 1_555
H22 C25 1_555 1_555
H23 C25 1_555 1_555
H24 C26 1_555 1_555
H25 C28 1_555 1_555
H26 C29 1_555 1_555
H27 C30 1_555 1_555
H28 C31 1_555 1_555
H29 C34 1_555 1_555
H30 C34 1_555 1_555
H31 C35 1_555 1_555
H32 C35 1_555 1_555
P1 F1 1_555 1_555
F2 P1 1_555 1_555
F3 P1 1_555 1_555
F4 P1 1_555 1_555
F5 P1 1_555 1_555
F6 P1 1_555 1_555
O7 C36 1_555 1_555
C36 H33 1_555 1_555
H34 C36 1_555 1_555
H35 C36 1_555 1_555
O5A C33A 1_555 1_555
O6A C33A 1_555 1_555
C33A C34A 1_555 1_555
C34A C35A 1_555 1_555
C35A C35 1_555 1_555
H29A C34A 1_555 1_555
H30A C34A 1_555 1_555
H31A C35A 1_555 1_555
H32A C35A 1_555 1_555
Mn1A O5A 1_555 1_555
Mn2A O6A 1_555 1_555
O1A Mn1A 1_555 1_555
O2A Mn1A 1_555 1_555
O3A Mn2A 1_555 1_555
O4A Mn2A 1_555 1_555
N1A Mn1A 1_555 1_555
N2A Mn1A 1_555 1_555
N3A Mn2A 1_555 1_555
N4A Mn2A 1_555 1_555
C1A O1A 1_555 1_555
C2A C1A 1_555 1_555
C3A C2A 1_555 1_555
C4A C3A 1_555 1_555
C5A C4A 1_555 1_555
C6A C1A 1_555 1_555
C7A N1A 1_555 1_555
C8A N1A 1_555 1_555
C9A N2A 1_555 1_555
C10A N2A 1_555 1_555
C11A C10A 1_555 1_555
C12A C11A 1_555 1_555
C13A C12A 1_555 1_555
C14A C13A 1_555 1_555
C15A C14A 1_555 1_555
C16A O2A 1_555 1_555
C17A O3A 1_555 1_555
C18A C17A 1_555 1_555
C19A C18A 1_555 1_555
C20A C19A 1_555 1_555
C21A C20A 1_555 1_555
C22A C17A 1_555 1_555
C23A N3A 1_555 1_555
C24A N3A 1_555 1_555
C25A N4A 1_555 1_555
C26A N4A 1_555 1_555
C27A C26A 1_555 1_555
C28A C27A 1_555 1_555
C29A C28A 1_555 1_555
C30A C29A 1_555 1_555
C31A C30A 1_555 1_555
C32A O4A 1_555 1_555
H1A C2A 1_555 1_555
H2A C3A 1_555 1_555
H3A C4A 1_555 1_555
H4A C5A 1_555 1_555
H5A C7A 1_555 1_555
H6A C8A 1_555 1_555
H7A C8A 1_555 1_555
H8A C9A 1_555 1_555
H9A C9A 1_555 1_555
H10A C10A 1_555 1_555
H11A C12A 1_555 1_555
H12A C13A 1_555 1_555
H13A C14A 1_555 1_555
H14A C15A 1_555 1_555
H15A C18A 1_555 1_555
H16A C19A 1_555 1_555
H17A C20A 1_555 1_555
H18A C21A 1_555 1_555
H19A C23A 1_555 1_555
H20A C24A 1_555 1_555
H21A C24A 1_555 1_555
H22A C25A 1_555 1_555
H23A C25A 1_555 1_555
H24A C26A 1_555 1_555
H25A C28A 1_555 1_555
H26A C29A 1_555 1_555
H27A C30A 1_555 1_555
H28A C31A 1_555 1_555
Mn1_2 O1A 1_555 1_555
Mn1A_2 O1 1_555 1_555
O1_2 Mn1A 1_555 1_555
O1A_2 Mn1 1_555 1_555
O6 C33 1_555 1_555
C6 C7 1_555 1_555
C8 C9 1_555 1_555
C11 C16 1_555 1_555
C15 C16 1_555 1_555
C22 C23 1_555 1_555
C24 C25 1_555 1_555
C27 C32 1_555 1_555
C31 C32 1_555 1_555
C5A C6A 1_555 1_555
C6A C7A 1_555 1_555
C8A C9A 1_555 1_555
C11A C16A 1_555 1_555
C15A C16A 1_555 1_555
C21A C22A 1_555 1_555
C22A C23A 1_555 1_555
C24A C25A 1_555 1_555
C27A C32A 1_555 1_555
C31A C32A 1_555 1_555
Mn1_2 O1_2 1_555 1_555
Mn1A_2 O1A_2 1_555 1_555

#END
