
#######################################################################
#
#                 Cambridge Crystallographic Data Centre
#                                CCDC 
#
#######################################################################
#
# If this CIF has been generated from an entry in the Cambridge 
# Structural Database, then it will include bibliographic, chemical, 
# crystal, experimental, refinement or atomic coordinate data resulting 
# from the CCDC's data processing and validation procedures.
#
#######################################################################

data_AHUWEG
_symmetry_cell_setting           monoclinic
_symmetry_space_group_name_H-M   'C c'
_symmetry_Int_Tables_number      9
_space_group_name_Hall           'C -2yc'
loop_
_symmetry_equiv_pos_site_id
_symmetry_equiv_pos_as_xyz
1 x,y,z
2 x,-y,1/2+z
3 1/2+x,1/2+y,z
4 1/2+x,1/2-y,1/2+z
_cell_length_a                   19.702(3)
_cell_length_b                   6.8202(9)
_cell_length_c                   19.481(2)
_cell_angle_alpha                90
_cell_angle_beta                 117.063(2)
_cell_angle_gamma                90
_cell_volume                     2331.07
loop_
_atom_site_label
_atom_site_type_symbol
_atom_site_fract_x
_atom_site_fract_y
_atom_site_fract_z
Fe1 Fe 0.94667(4) 0.24527(12) 0.62730(5)
Fe2 Fe 0.99125(4) 0.34704(11) 0.92169(4)
Fe3 Fe 0.72765(4) 0.18920(12) 0.30748(5)
O1 O 0.9579(2) 0.3353(6) 0.7386(2)
O2 O 0.8965(2) 0.3719(6) 0.8095(2)
O3 O 0.6052(2) 0.2763(7) 0.6596(3)
O4 O 0.5581(2) 0.1678(7) 0.5402(3)
O5 O 0.7450(2) 0.1537(6) 0.4193(3)
O6 O 0.8680(2) 0.1619(7) 0.5065(3)
O7 O 1.1082(4) 0.2597(8) 0.7186(4)
O8 O 1.0324(3) 0.2090(8) 0.5933(4)
O9 O 1.1682(3) 0.2071(8) 0.4217(3)
O10 O 1.2910(2) 0.1344(7) 0.4817(3)
O11 O 1.4231(2) 0.3726(7) 0.7727(3)
O12 O 1.3432(3) 0.3781(7) 0.8242(3)
O13 O 0.9768(3) -0.0453(6) 0.6695(3)
H1 H 0.9706 -0.1031 0.7098
H2 H 1.0211 -0.1081 0.6743
O14 O 0.9380(2) 0.5434(6) 0.5894(3)
H3 H 0.976(2) 0.614(9) 0.596(5)
H4 H 0.8974(18) 0.600(8) 0.558(3)
O15 O 1.0312(3) 0.0716(8) 0.8975(3)
H5 H 1.0782(10) 0.063(10) 0.909(4)
H6 H 1.005(3) 0.013(14) 0.855(3)
O16 O 1.0637(2) 0.4785(7) 0.8810(3)
H7 H 1.103(4) 0.549(13) 0.904(4)
H8 H 1.041(4) 0.512(14) 0.8339(16)
O17 O 0.9602(3) 0.6259(7) 0.9434(3)
H9 H 0.978(4) 0.591(12) 0.9902(17)
H10 H 0.919(3) 0.687(12) 0.930(4)
O18 O 0.9105(3) 0.1727(7) 0.9391(3)
H11 H 0.876(4) 0.112(11) 0.901(3)
H12 H 0.922(5) 0.109(10) 0.980(2)
O19 O 0.6897(4) -0.1017(7) 0.2999(3)
H13 H 0.707(6) -0.174(11) 0.340(3)
H14 H 0.658(4) -0.166(10) 0.261(3)
O20 O 0.7741(3) 0.4835(7) 0.3415(3)
H15 H 0.777(5) 0.546(12) 0.380(3)
H16 H 0.814(4) 0.50(2) 0.336(6)
N1 N 0.8353(3) 0.2499(6) 0.6160(3)
N2 N 1.2275(3) 0.2793(7) 0.6979(3)
C1 C 0.8257(3) 0.2906(8) 0.6781(3)
C2 C 0.7538(3) 0.2841(8) 0.6756(3)
H17 H 0.7479 0.3091 0.7196
C3 C 0.6913(3) 0.2398(8) 0.6062(4)
C4 C 0.7021(3) 0.2047(8) 0.5416(3)
H18 H 0.6608 0.1780 0.4941
C5 C 0.7760(3) 0.2102(8) 0.5493(3)
C6 C 0.8989(3) 0.3373(7) 0.7480(3)
C7 C 0.6119(3) 0.2279(7) 0.6018(3)
C8 C 0.7972(3) 0.1725(8) 0.4855(4)
C9 C 1.1638(3) 0.2394(8) 0.6341(4)
C10 C 1.1619(3) 0.2120(8) 0.5637(4)
H19 H 1.1159 0.1887 0.5203
C11 C 1.2296(3) 0.2193(7) 0.5579(4)
C12 C 1.2967(3) 0.2601(8) 0.6250(3)
H20 H 1.3433 0.2636 0.6236
C13 C 1.2934(3) 0.2950(8) 0.6932(3)
C14 C 1.0954(4) 0.2351(9) 0.6490(5)
C15 C 1.2301(3) 0.1850(8) 0.4809(3)
C16 C 1.3592(4) 0.3524(8) 0.7694(4)
Fe2C Fe 0.49125(4) 0.15296(11) 0.42169(4)
Fe3C Fe 1.22765(4) 0.31080(12) 0.80748(5)
O4C O 1.0581(2) 0.3322(7) 1.0402(3)
O7C O 0.6082(4) 0.2403(8) 0.2186(4)
O12C O 0.8432(3) 0.1219(7) 0.3242(3)
N2C N 0.7275(3) 0.2207(7) 0.1979(3)
loop_
_geom_bond_atom_site_label_1
_geom_bond_atom_site_label_2
_geom_bond_site_symmetry_1
_geom_bond_site_symmetry_2
Fe1 O1 1_555 1_555
Fe2 O2 1_555 1_555
Fe3 O5 1_555 1_555
O1 C6 1_555 1_555
O2 C6 1_555 1_555
O3 C7 1_555 1_555
O4 C7 1_555 1_555
O5 C8 1_555 1_555
O6 Fe1 1_555 1_555
O7 C14 1_555 1_555
O8 Fe1 1_555 1_555
O9 C15 1_555 1_555
O10 C15 1_555 1_555
O11 C16 1_555 1_555
O12 C16 1_555 1_555
O13 Fe1 1_555 1_555
H1 O13 1_555 1_555
H2 O13 1_555 1_555
O14 Fe1 1_555 1_555
H3 O14 1_555 1_555
H4 O14 1_555 1_555
O15 Fe2 1_555 1_555
H5 O15 1_555 1_555
H6 O15 1_555 1_555
O16 Fe2 1_555 1_555
H7 O16 1_555 1_555
H8 O16 1_555 1_555
O17 Fe2 1_555 1_555
H9 O17 1_555 1_555
H10 O17 1_555 1_555
O18 Fe2 1_555 1_555
H11 O18 1_555 1_555
H12 O18 1_555 1_555
O19 Fe3 1_555 1_555
H13 O19 1_555 1_555
H14 O19 1_555 1_555
O20 Fe3 1_555 1_555
H15 O20 1_555 1_555
H16 O20 1_555 1_555
N1 Fe1 1_555 1_555
N2 C9 1_555 1_555
C1 N1 1_555 1_555
C2 C1 1_555 1_555
H17 C2 1_555 1_555
C3 C2 1_555 1_555
C4 C3 1_555 1_555
H18 C4 1_555 1_555
C5 N1 1_555 1_555
C6 C1 1_555 1_555
C7 C3 1_555 1_555
C8 O6 1_555 1_555
C9 C10 1_555 1_555
C10 H19 1_555 1_555
C11 C10 1_555 1_555
C12 C11 1_555 1_555
H20 C12 1_555 1_555
C13 N2 1_555 1_555
C14 O8 1_555 1_555
C15 C11 1_555 1_555
C16 C13 1_555 1_555
Fe2C O4 1_555 1_555
Fe3C O7 1_555 1_555
O4C Fe2 1_555 1_555
O7C Fe3 1_555 1_555
O12C Fe3 1_555 1_555
N2C Fe3 1_555 1_555
O12 Fe3C 1_555 1_555
N2 Fe3C 1_555 1_555
C4 C5 1_555 1_555
C5 C8 1_555 1_555
C9 C14 1_555 1_555
C12 C13 1_555 1_555

#END
