
#######################################################################
#
#                 Cambridge Crystallographic Data Centre
#                                CCDC 
#
#######################################################################
#
# If this CIF has been generated from an entry in the Cambridge 
# Structural Database, then it will include bibliographic, chemical, 
# crystal, experimental, refinement or atomic coordinate data resulting 
# from the CCDC's data processing and validation procedures.
#
#######################################################################

data_AHUXAD
_symmetry_cell_setting           triclinic
_symmetry_space_group_name_H-M   'P -1'
_symmetry_Int_Tables_number      2
_space_group_name_Hall           '-P 1'
loop_
_symmetry_equiv_pos_site_id
_symmetry_equiv_pos_as_xyz
1 x,y,z
2 -x,-y,-z
_cell_length_a                   7.9871(11)
_cell_length_b                   9.8376(13)
_cell_length_c                   11.4393(15)
_cell_angle_alpha                67.108(1)
_cell_angle_beta                 89.823(3)
_cell_angle_gamma                80.283(2)
_cell_volume                     814.219
loop_
_atom_site_label
_atom_site_type_symbol
_atom_site_fract_x
_atom_site_fract_y
_atom_site_fract_z
C1 C 0.2422(10) 0.6550(8) 0.9565(7)
C2 C 0.2906(8) 0.5692(7) 1.0829(6)
C3 C 0.3101(12) 0.5341(10) 1.2923(8)
H1 H 0.1903 0.5474 1.3081
H2 H 0.3715 0.5626 1.3497
C4 C 0.3770(15) 0.3712(10) 1.3151(9)
H3 H 0.5002 0.3579 1.3186
H4 H 0.3467 0.3106 1.3993
C5 C 0.2897(8) 0.4174(7) 1.1165(6)
C6 C 0.2405(8) 0.3841(7) 1.0138(6)
C7 C 0.2203(9) 0.2375(8) 1.0165(6)
C8 C 0.2336(9) 0.8172(8) 0.8890(7)
Dy1 Dy 0.22033(4) 0.12790(3) 0.76478(3)
N1 N 0.2011(9) 0.4528(6) 0.6065(6)
O3 O 0.3325(7) 0.6239(6) 1.1665(5)
O4 O 0.3310(7) 0.3119(6) 1.2368(5)
O5 O 0.1877(7) 0.2364(5) 0.9077(5)
O6 O 0.2270(7) 0.1271(6) 1.1189(5)
O7 O 0.2798(7) 0.8915(6) 0.9453(5)
O8 O 0.1720(7) 0.8815(6) 0.7758(5)
O9 O 0.0664(6) 0.4112(5) 0.6521(5)
O10 O 0.3302(6) 0.3509(5) 0.6268(5)
O11 O 0.2105(8) 0.5849(7) 0.5452(5)
O12 O 0.4188(8) 0.0358(6) 0.6426(6)
H9 H 0.3715 -0.0138 0.6102
H10 H 0.4569 0.1178 0.5766
O13 O 0.5071(7) 0.1118(5) 0.8463(6)
H11 H 0.5363 0.2100 0.8150
H12 H 0.5852 0.0475 0.8177
O14 O 0.0682(8) 0.1825(6) 0.5684(5)
H13 H 0.0151 0.1114 0.5778
H14 H -0.0040 0.2637 0.5460
O15 O -0.0654(7) 0.1143(5) 0.8255(6)
H15 H -0.0648 0.0711 0.9060
H16 H -0.1317 0.2137 0.7972
S1 S 0.1928(3) 0.5452(2) 0.87929(18)
Dy1_2 Dy 0.22033(4) 1.12790(3) 0.76478(3)
O7_2 O 0.2798(7) -0.1085(6) 0.9453(5)
O8_2 O 0.1720(7) -0.1185(6) 0.7758(5)
O1 O 0.6632(7) 0.1431(7) 0.4945(6)
H5 H 0.7548 0.0844 0.5309
H6 H 0.6683 0.2261 0.4998
O2 O 0.8896(7) 0.8914(6) 0.6391(5)
H7 H 0.8748 0.9089 0.7056
H8 H 0.9509 0.8049 0.6599
loop_
_geom_bond_atom_site_label_1
_geom_bond_atom_site_label_2
_geom_bond_site_symmetry_1
_geom_bond_site_symmetry_2
C1 C2 1_555 1_555
C2 C5 1_555 1_555
C3 H1 1_555 1_555
H2 C3 1_555 1_555
C4 C3 1_555 1_555
H3 C4 1_555 1_555
H4 C4 1_555 1_555
C5 C6 1_555 1_555
C6 C7 1_555 1_555
C7 O5 1_555 1_555
C8 C1 1_555 1_555
Dy1 O5 1_555 1_555
N1 O9 1_555 1_555
O1 H5 1_555 1_555
H6 O1 1_555 1_555
O2 H7 1_555 1_555
H8 O2 1_555 1_555
O3 C2 1_555 1_555
O4 C4 1_555 1_555
O6 C7 1_555 1_555
O7 C8 1_555 1_555
O8 C8 1_555 1_555
O9 Dy1 1_555 1_555
O10 Dy1 1_555 1_555
O11 N1 1_555 1_555
O12 Dy1 1_555 1_555
H9 O12 1_555 1_555
H10 O12 1_555 1_555
O13 Dy1 1_555 1_555
H11 O13 1_555 1_555
H12 O13 1_555 1_555
O14 Dy1 1_555 1_555
H13 O14 1_555 1_555
H14 O14 1_555 1_555
O15 Dy1 1_555 1_555
H15 O15 1_555 1_555
H16 O15 1_555 1_555
S1 C1 1_555 1_555
Dy1_2 O7 1_555 1_555
O7_2 Dy1 1_555 1_555
O8_2 Dy1 1_555 1_555
C3 O3 1_555 1_555
C5 O4 1_555 1_555
C6 S1 1_555 1_555
N1 O10 1_555 1_555
O8 Dy1_2 1_555 1_555

#END
