
#######################################################################
#
#                 Cambridge Crystallographic Data Centre
#                                CCDC 
#
#######################################################################
#
# If this CIF has been generated from an entry in the Cambridge 
# Structural Database, then it will include bibliographic, chemical, 
# crystal, experimental, refinement or atomic coordinate data resulting 
# from the CCDC's data processing and validation procedures.
#
#######################################################################

data_AHXCUD10
_symmetry_cell_setting           monoclinic
_symmetry_space_group_name_H-M   'P 21/n'
_symmetry_Int_Tables_number      14
_space_group_name_Hall           '-P 2yn'
loop_
_symmetry_equiv_pos_site_id
_symmetry_equiv_pos_as_xyz
1 x,y,z
2 1/2-x,1/2+y,1/2-z
3 -x,-y,-z
4 1/2+x,1/2-y,1/2+z
_cell_length_a                   8.550(2)
_cell_length_b                   20.068(3)
_cell_length_c                   5.145(1)
_cell_angle_alpha                90
_cell_angle_beta                 106.85(2)
_cell_angle_gamma                90
_cell_volume                     844.886
loop_
_atom_site_label
_atom_site_type_symbol
_atom_site_fract_x
_atom_site_fract_y
_atom_site_fract_z
Cu1 Cu 0.00000 0.00000 0.00000
C1 C -0.05400 0.14540 0.11880
C2 C -0.11170 0.19500 0.28920
C3 C -0.09050 0.26660 0.21500
C4 C -0.15760 0.31640 0.37470
C5 C -0.14120 0.38830 0.29750
C6 C -0.23860 0.43380 0.42780
H2 H -0.13800 0.27400 0.04700
H3 H -0.28800 0.30700 0.40300
H4 H -0.10700 0.31600 0.56000
H5 H -0.04200 0.40600 0.34800
H6 H -0.16800 0.38900 0.12100
H8 H 0.00100 0.07100 0.39000
H9 H -0.14400 0.06800 0.27700
H10 H 0.06200 0.15700 0.13400
H11 H -0.13000 0.14900 -0.06800
H12 H -0.22800 0.18500 0.29600
H13 H -0.05400 0.18400 0.47600
H14 H 0.02100 0.28100 0.23100
N1 N -0.05930 0.07560 0.20440
O1 O -0.38970 0.44180 0.30070
O2 O 0.32370 0.04000 0.15030
O1A O -0.11030 -0.05820 0.19930
Cu1A Cu -0.50000 0.50000 0.50000
Cu1C Cu 0.50000 0.50000 -0.50000
N1C N 0.44070 0.42440 -0.29560
C1C C 0.44600 0.35460 -0.38120
C2C C 0.38830 0.30500 -0.21080
C3C C 0.40950 0.23340 -0.28500
C4C C 0.34240 0.18360 -0.12530
C5C C 0.35880 0.11170 -0.20250
C6C C 0.26140 0.06620 -0.07220
O1C O 0.11030 0.05820 -0.19930
N1B N 0.05930 -0.07560 -0.20440
O2B O -0.32370 -0.04000 -0.15030
H5C H 0.45800 0.09400 -0.15200
H6C H 0.33200 0.11100 -0.37900
H3C H 0.21200 0.19300 -0.09700
H4C H 0.39300 0.18400 0.06000
H2C H 0.36200 0.22600 -0.45300
H14C H 0.52100 0.21900 -0.26900
H12C H 0.27200 0.31500 -0.20400
H13C H 0.44600 0.31600 -0.02400
H10C H 0.56200 0.34300 -0.36600
H11C H 0.37000 0.35100 -0.56800
H8C H 0.50100 0.42900 -0.11000
H9C H 0.35600 0.43200 -0.22300
O2C O -0.17630 0.46000 0.65030
H8B H -0.00100 -0.07100 -0.39000
H9B H 0.14400 -0.06800 -0.27700
H1 H 0.58800 0.05800 0.33700
H7 H 0.65700 0.03500 0.58400
O3 O 0.65840 0.05950 0.44000
loop_
_geom_bond_atom_site_label_1
_geom_bond_atom_site_label_2
_geom_bond_site_symmetry_1
_geom_bond_site_symmetry_2
Cu1 N1 1_555 1_555
C1 C2 1_555 1_555
C2 C3 1_555 1_555
C3 C4 1_555 1_555
C4 C5 1_555 1_555
C5 C6 1_555 1_555
C6 O1 1_555 1_555
H1 O3 1_555 1_555
H2 C3 1_555 1_555
H3 C4 1_555 1_555
H4 C4 1_555 1_555
H5 C5 1_555 1_555
H6 C5 1_555 1_555
H7 O3 1_555 1_555
H8 N1 1_555 1_555
H9 N1 1_555 1_555
H10 C1 1_555 1_555
H11 C1 1_555 1_555
H12 C2 1_555 1_555
H13 C2 1_555 1_555
H14 C3 1_555 1_555
N1 C1 1_555 1_555
O1 Cu1A 1_555 1_555
O2 Cu1 1_555 1_555
O1A Cu1 1_555 1_555
Cu1A O2C 1_555 1_555
Cu1C N1C 1_555 1_555
N1C C1C 1_555 1_555
C1C C2C 1_555 1_555
C2C C3C 1_555 1_555
C3C C4C 1_555 1_555
C4C C5C 1_555 1_555
C5C C6C 1_555 1_555
C6C O2 1_555 1_555
O1C Cu1 1_555 1_555
N1B Cu1 1_555 1_555
O2B Cu1 1_555 1_555
H5C C5C 1_555 1_555
H6C C5C 1_555 1_555
H3C C4C 1_555 1_555
H4C C4C 1_555 1_555
H2C C3C 1_555 1_555
H14C C3C 1_555 1_555
H12C C2C 1_555 1_555
H13C C2C 1_555 1_555
H10C C1C 1_555 1_555
H11C C1C 1_555 1_555
H8C N1C 1_555 1_555
H9C N1C 1_555 1_555
O2C C6 1_555 1_555
H8B N1B 1_555 1_555
H9B N1B 1_555 1_555
C6C O1C 1_555 1_555

#END
