
#######################################################################
#
#                 Cambridge Crystallographic Data Centre
#                                CCDC 
#
#######################################################################
#
# If this CIF has been generated from an entry in the Cambridge 
# Structural Database, then it will include bibliographic, chemical, 
# crystal, experimental, refinement or atomic coordinate data resulting 
# from the CCDC's data processing and validation procedures.
#
#######################################################################

data_AJABIX01
_symmetry_cell_setting           rhombohedral
_symmetry_space_group_name_H-M   'R -3'
_symmetry_Int_Tables_number      148
_space_group_name_Hall           '-R 3'
loop_
_symmetry_equiv_pos_site_id
_symmetry_equiv_pos_as_xyz
1 x,y,z
2 -y,x-y,z
3 -x+y,-x,z
4 2/3+x,1/3+y,1/3+z
5 2/3-y,1/3+x-y,1/3+z
6 2/3-x+y,1/3-x,1/3+z
7 1/3+x,2/3+y,2/3+z
8 1/3-y,2/3+x-y,2/3+z
9 1/3-x+y,2/3-x,2/3+z
10 -x,-y,-z
11 y,-x+y,-z
12 x-y,x,-z
13 1/3-x,2/3-y,2/3-z
14 1/3+y,2/3-x+y,2/3-z
15 1/3+x-y,2/3+x,2/3-z
16 2/3-x,1/3-y,1/3-z
17 2/3+y,1/3-x+y,1/3-z
18 2/3+x-y,1/3+x,1/3-z
_cell_length_a                   19.6972(9)
_cell_length_b                   19.6972(9)
_cell_length_c                   14.2478(8)
_cell_angle_alpha                90
_cell_angle_beta                 90
_cell_angle_gamma                120
_cell_volume                     4787.26
loop_
_atom_site_label
_atom_site_type_symbol
_atom_site_fract_x
_atom_site_fract_y
_atom_site_fract_z
Cu1 Cu 0.41465(3) 0.45126(3) 0.56229(3)
N1 N 0.50557(18) 0.54837(18) 0.6118(2)
N2 N 0.57435(18) 0.58679(18) 0.5599(2)
N3 N 0.58897(18) 0.65513(17) 0.6888(2)
C1 C 0.5169(2) 0.5909(2) 0.6882(3)
C2 C 0.4587(3) 0.5704(3) 0.7649(4)
H1 H 0.4131 0.5202 0.7500
H2 H 0.4813 0.5636 0.8222
C3 C 0.4329(5) 0.6259(5) 0.7828(7)
H3 H 0.3940 0.6061 0.8315
H4 H 0.4108 0.6337 0.7266
H5 H 0.4768 0.6749 0.8024
C4 C 0.6220(2) 0.6494(2) 0.6091(3)
C5 C 0.7030(2) 0.7074(3) 0.5790(3)
H6 H 0.7073 0.7585 0.5733
H7 H 0.7127 0.6927 0.5177
C6 C 0.7639(3) 0.7130(4) 0.6462(5)
H8 H 0.8151 0.7493 0.6224
H9 H 0.7591 0.6623 0.6533
H10 H 0.7567 0.7309 0.7060
Cu1I Cu 0.58535(3) 0.54874(3) 0.43771(3)
Cu1Q Cu 0.63006(4) 0.74798(3) 0.77104(3)
N2I N 0.42565(18) 0.41321(18) 0.4401(2)
N3P N 0.32180(17) 0.39949(25) 0.6445(2)
C7 C 0.6116(10) 0.4620(10) 0.6961(13)
H11 H 0.5772 0.4747 0.6667
C8 C 0.6495(14) 0.4480(14) 0.7284(19)
H12 H 0.6838 0.4353 0.7577
loop_
_geom_bond_atom_site_label_1
_geom_bond_atom_site_label_2
_geom_bond_site_symmetry_1
_geom_bond_site_symmetry_2
Cu1 N1 1_555 1_555
N1 N2 1_555 1_555
N2 C4 1_555 1_555
N3 C1 1_555 1_555
C1 N1 1_555 1_555
C2 C1 1_555 1_555
H1 C2 1_555 1_555
H2 C2 1_555 1_555
C3 C2 1_555 1_555
H3 C3 1_555 1_555
H4 C3 1_555 1_555
H5 C3 1_555 1_555
C4 N3 1_555 1_555
C5 C4 1_555 1_555
H6 C5 1_555 1_555
H7 C5 1_555 1_555
C6 C5 1_555 1_555
H8 C6 1_555 1_555
H9 C6 1_555 1_555
H10 C6 1_555 1_555
C7 H11 1_555 1_555
C8 C7 1_555 1_555
H12 C8 1_555 1_555
Cu1I N2 1_555 1_555
Cu1Q N3 1_555 1_555
N2I Cu1 1_555 1_555
N3P Cu1 1_555 1_555

#END
