
#######################################################################
#
#                 Cambridge Crystallographic Data Centre
#                                CCDC 
#
#######################################################################
#
# If this CIF has been generated from an entry in the Cambridge 
# Structural Database, then it will include bibliographic, chemical, 
# crystal, experimental, refinement or atomic coordinate data resulting 
# from the CCDC's data processing and validation procedures.
#
#######################################################################

data_AJAHEZ
_symmetry_cell_setting           triclinic
_symmetry_space_group_name_H-M   'P -1'
_symmetry_Int_Tables_number      2
_space_group_name_Hall           '-P 1'
loop_
_symmetry_equiv_pos_site_id
_symmetry_equiv_pos_as_xyz
1 x,y,z
2 -x,-y,-z
_cell_length_a                   10.6597(8)
_cell_length_b                   10.9534(8)
_cell_length_c                   13.8976(10)
_cell_angle_alpha                99.9830(10)
_cell_angle_beta                 95.7530(10)
_cell_angle_gamma                92.3100(10)
_cell_volume                     1587.31
loop_
_atom_site_label
_atom_site_type_symbol
_atom_site_fract_x
_atom_site_fract_y
_atom_site_fract_z
Bi1 Bi 0.34848(2) 0.89235(2) 0.553203(17)
Bi2 Bi 0.24184(2) 1.09070(2) 0.283536(18)
Br1 Br 0.21787(7) 0.91002(7) 0.70549(5)
Br2 Br 0.48198(6) 0.90264(6) 0.36378(5)
Br3 Br 0.15669(7) 1.04371(7) 0.45736(5)
Br4 Br 0.06071(7) 0.94550(7) 0.17172(6)
Br5 Br 0.51457(7) 0.73340(7) 0.61884(6)
Br6 Br 0.12159(7) 1.29436(7) 0.29680(6)
C1 C 0.4946(7) 0.4269(6) 0.0706(5)
H1 H 0.4925 0.3766 0.1197
C2 C 0.5458(6) 0.3806(6) -0.0163(5)
C3 C 0.4461(6) 0.5451(6) 0.0880(5)
C4 C 0.3864(7) 0.5805(6) 0.1803(5)
C5 C 0.4360(7) 0.5447(6) 0.2667(5)
H2 H 0.5123 0.5028 0.2669
C6 C 0.3788(6) 0.5676(6) 0.3521(5)
H3 H 0.4144 0.5407 0.4097
C7 C 0.2676(7) 0.6313(6) 0.3527(5)
C8 C 0.2154(6) 0.6681(6) 0.2695(5)
H4 H 0.1400 0.7116 0.2702
C9 C 0.2734(6) 0.6415(6) 0.1837(5)
H5 H 0.2353 0.6654 0.1256
C10 C 0.0487(7) 0.7029(8) 0.4399(6)
H6 H 0.0506 0.7747 0.4065
H7 H 0.0089 0.7244 0.5007
H8 H 0.0002 0.6330 0.3967
C11 C 0.5807(7) 0.2478(6) -0.0318(5)
C12 C 0.5153(6) 0.1647(6) -0.1079(5)
H9 H 0.4507 0.1928 -0.1496
C13 C 0.5427(7) 0.0414(6) -0.1242(5)
H10 H 0.4953 -0.0157 -0.1755
C14 C 0.6403(6) 0.0004(6) -0.0650(5)
C15 C 0.7043(7) 0.0826(7) 0.0140(5)
H11 H 0.7688 0.0550 0.0561
C16 C 0.6723(7) 0.2053(6) 0.0303(4)
H12 H 0.7141 0.2614 0.0850
C17 C 0.8125(8) -0.1771(7) -0.0241(6)
H13 H 0.7937 -0.1612 0.0444
H14 H 0.8379 -0.2625 -0.0411
H15 H 0.8813 -0.1190 -0.0324
S1 S 0.20581(17) 0.66070(16) 0.46838(13)
S2 S 0.67491(18) -0.15615(16) -0.10279(13)
Bi1A Bi 0.65152(2) 1.10765(2) 0.446797(17)
Bi1A_2 Bi 0.65152(2) 0.10765(2) -0.553203(17)
Bi2A Bi 0.75816(2) 0.90930(2) 0.716464(18)
Bi2A_2 Bi 0.75816(2) -0.09070(2) -0.283536(18)
Br1A Br 0.78213(7) 1.08998(7) 0.29451(5)
Br2A Br 0.51802(6) 1.09736(6) 0.63622(5)
Br3A Br 0.84331(7) 0.95629(7) 0.54264(5)
Br4A Br 0.93929(7) 1.05450(7) 0.82828(6)
Br5A Br 0.48543(7) 1.26660(7) 0.38116(6)
Br6A Br 0.87841(7) 0.70564(7) 0.70320(6)
C1A C 0.5054(7) 0.5731(6) -0.0706(5)
H1A H 0.5075 0.6234 -0.1197
C2A C 0.4542(6) 0.6194(6) 0.0163(5)
C3A C 0.5539(6) 0.4549(6) -0.0880(5)
C4A C 0.6136(7) 0.4195(6) -0.1803(5)
C5A C 0.5640(7) 0.4553(6) -0.2667(5)
H2A H 0.4877 0.4972 -0.2669
C6A C 0.6212(6) 0.4324(6) -0.3521(5)
H3A H 0.5856 0.4593 -0.4097
C7A C 0.7324(7) 0.3687(6) -0.3527(5)
C8A C 0.7846(6) 0.3319(6) -0.2695(5)
H4A H 0.8600 0.2884 -0.2702
C9A C 0.7266(6) 0.3585(6) -0.1837(5)
H5A H 0.7647 0.3346 -0.1256
C10A C 0.9513(7) 0.2971(8) -0.4399(6)
H6A H 0.9494 0.2253 -0.4065
H7A H 0.9911 0.2756 -0.5007
H8A H 0.9998 0.3670 -0.3967
C11A C 0.4193(7) 0.7522(6) 0.0318(5)
C12A C 0.4847(6) 0.8353(6) 0.1079(5)
H9A H 0.5493 0.8072 0.1496
C13A C 0.4573(7) 0.9586(6) 0.1242(5)
H10A H 0.5047 1.0157 0.1755
C14A C 0.3597(6) 0.9996(6) 0.0650(5)
C15A C 0.2957(7) 0.9174(7) -0.0140(5)
H11A H 0.2312 0.9450 -0.0561
C16A C 0.3277(7) 0.7947(6) -0.0303(4)
H12A H 0.2859 0.7386 -0.0850
C17A C 0.1875(8) 1.1771(7) 0.0241(6)
H13A H 0.2063 1.1612 -0.0444
H14A H 0.1621 1.2625 0.0411
H15A H 0.1187 1.1190 0.0324
S1A S 0.79419(17) 0.33930(16) -0.46838(13)
S1A_2 S 0.79419(17) 1.33930(16) 0.53162(13)
S2A S 0.32509(18) 1.15615(16) 0.10279(13)
S2_2 S 0.67491(18) 0.84385(16) 0.89721(13)
C18 C 0.2506(9) 0.3298(10) 0.6815(9)
H16 H 0.2942 0.2710 0.6408
C19 C 0.2443(8) 0.4499(10) 0.6632(8)
H17 H 0.2811 0.4728 0.6090
C20 C 0.1842(8) 0.5354(8) 0.7240(8)
H18 H 0.1822 0.6184 0.7128
C21 C 0.1276(10) 0.5030(9) 0.8002(8)
H19 H 0.0843 0.5618 0.8412
C22 C 0.1350(10) 0.3804(10) 0.8165(8)
H20 H 0.0974 0.3565 0.8701
C23 C 0.1948(9) 0.2956(9) 0.7574(9)
H21 H 0.1978 0.2127 0.7688
loop_
_geom_bond_atom_site_label_1
_geom_bond_atom_site_label_2
_geom_bond_site_symmetry_1
_geom_bond_site_symmetry_2
Bi1 Br1 1_555 1_555
Bi2 Br2 1_555 1_555
Br2 Bi1 1_555 1_555
Br3 Bi1 1_555 1_555
Br4 Bi2 1_555 1_555
Br5 Bi1 1_555 1_555
Br6 Bi2 1_555 1_555
C1 H1 1_555 1_555
C2 C1 1_555 1_555
C3 C1 1_555 1_555
C4 C3 1_555 1_555
C5 C4 1_555 1_555
H2 C5 1_555 1_555
C6 C5 1_555 1_555
H3 C6 1_555 1_555
C7 C6 1_555 1_555
C8 C7 1_555 1_555
H4 C8 1_555 1_555
C9 C4 1_555 1_555
H5 C9 1_555 1_555
C10 H6 1_555 1_555
H7 C10 1_555 1_555
H8 C10 1_555 1_555
C11 C2 1_555 1_555
C12 C11 1_555 1_555
H9 C12 1_555 1_555
C13 C12 1_555 1_555
H10 C13 1_555 1_555
C14 C13 1_555 1_555
C15 C14 1_555 1_555
H11 C15 1_555 1_555
C16 C11 1_555 1_555
H12 C16 1_555 1_555
C17 H13 1_555 1_555
H14 C17 1_555 1_555
H15 C17 1_555 1_555
C18 H16 1_555 1_555
C19 C18 1_555 1_555
H17 C19 1_555 1_555
C20 C19 1_555 1_555
H18 C20 1_555 1_555
C21 C20 1_555 1_555
H19 C21 1_555 1_555
C22 C21 1_555 1_555
H20 C22 1_555 1_555
C23 C18 1_555 1_555
H21 C23 1_555 1_555
S1 Bi1 1_555 1_555
S2 C14 1_555 1_555
Bi1A Br2 1_555 1_555
Bi1A_2 S1A 1_555 1_555
Bi2A Br5 1_555 1_555
Bi2A_2 S2 1_555 1_555
Br1A Bi1A 1_555 1_555
Br2A Bi1 1_555 1_555
Br3A Bi1A 1_555 1_555
Br4A Bi2A 1_555 1_555
Br5A Bi2 1_555 1_555
Br6A Bi2A 1_555 1_555
C1A H1A 1_555 1_555
C2A C3 1_555 1_555
C3A C2 1_555 1_555
C4A C3A 1_555 1_555
C5A C4A 1_555 1_555
H2A C5A 1_555 1_555
C6A C5A 1_555 1_555
H3A C6A 1_555 1_555
C7A C6A 1_555 1_555
C8A C7A 1_555 1_555
H4A C8A 1_555 1_555
C9A C4A 1_555 1_555
H5A C9A 1_555 1_555
C10A H6A 1_555 1_555
H7A C10A 1_555 1_555
H8A C10A 1_555 1_555
C11A C2A 1_555 1_555
C12A C11A 1_555 1_555
H9A C12A 1_555 1_555
C13A C12A 1_555 1_555
H10A C13A 1_555 1_555
C14A C13A 1_555 1_555
C15A C14A 1_555 1_555
H11A C15A 1_555 1_555
C16A C11A 1_555 1_555
H12A C16A 1_555 1_555
C17A H13A 1_555 1_555
H14A C17A 1_555 1_555
H15A C17A 1_555 1_555
S1A C7A 1_555 1_555
S1A_2 Bi1A 1_555 1_555
S2A Bi2 1_555 1_555
S2_2 Bi2A 1_555 1_555
Bi2 Br3 1_555 1_555
C7 S1 1_555 1_555
C8 C9 1_555 1_555
C10 S1 1_555 1_555
C15 C16 1_555 1_555
C17 S2 1_555 1_555
C22 C23 1_555 1_555
Bi1A Br2A 1_555 1_555
Bi1A Br5A 1_555 1_555
Bi2A Br2A 1_555 1_555
Bi2A Br3A 1_555 1_555
C1A C2A 1_555 1_555
C1A C3A 1_555 1_555
C8A C9A 1_555 1_555
C10A S1A 1_555 1_555
C14A S2A 1_555 1_555
C15A C16A 1_555 1_555
C17A S2A 1_555 1_555

#END
