
#######################################################################
#
#                 Cambridge Crystallographic Data Centre
#                                CCDC 
#
#######################################################################
#
# If this CIF has been generated from an entry in the Cambridge 
# Structural Database, then it will include bibliographic, chemical, 
# crystal, experimental, refinement or atomic coordinate data resulting 
# from the CCDC's data processing and validation procedures.
#
#######################################################################

data_AJAHID
_symmetry_cell_setting           monoclinic
_symmetry_space_group_name_H-M   'P 21/c'
_symmetry_Int_Tables_number      14
_space_group_name_Hall           '-P 2ybc'
loop_
_symmetry_equiv_pos_site_id
_symmetry_equiv_pos_as_xyz
1 x,y,z
2 -x,1/2+y,1/2-z
3 -x,-y,-z
4 x,1/2-y,1/2+z
_cell_length_a                   15.0644(8)
_cell_length_b                   14.6368(7)
_cell_length_c                   10.8604(6)
_cell_angle_alpha                90
_cell_angle_beta                 108.5210(10)
_cell_angle_gamma                90
_cell_volume                     2270.63
loop_
_atom_site_label
_atom_site_type_symbol
_atom_site_fract_x
_atom_site_fract_y
_atom_site_fract_z
Bi1 Bi 0.889759(15) 0.023361(15) 0.57746(2)
Br1 Br 0.92987(4) -0.08718(4) 0.34828(6)
Br2 Br 0.82842(5) 0.15963(4) 0.41259(6)
Br3 Br 0.84974(5) 0.10078(5) 0.77199(6)
C1 C 0.6175(4) 0.1180(4) 0.9735(5)
H1 H 0.6520 0.1718 0.9706
C2 C 0.6510(4) 0.0357(4) 0.9505(5)
H2 H 0.7076 0.0333 0.9297
C3 C 0.6027(4) -0.0476(4) 0.9572(5)
C4 C 0.5182(4) -0.0435(3) 0.9890(5)
C5 C 0.5307(4) 0.1251(4) 1.0020(5)
C6 C 0.4943(4) 0.2107(4) 1.0242(5)
C7 C 0.4133(4) 0.2125(4) 1.0575(5)
H3 H 0.3900 0.2699 1.0743
C8 C 0.6370(4) -0.1322(4) 0.9320(5)
C9 C 0.7226(4) -0.1433(4) 0.8924(6)
C10 C 0.8114(4) -0.1204(4) 0.9744(5)
H4 H 0.8181 -0.0988 1.0593
C11 C 0.8905(4) -0.1281(4) 0.9362(6)
H5 H 0.9504 -0.1123 0.9942
C12 C 0.8809(4) -0.1594(4) 0.8110(6)
C13 C 0.7941(4) -0.1877(4) 0.7315(6)
H6 H 0.7880 -0.2129 0.6486
C14 C 0.7160(4) -0.1796(4) 0.7715(5)
H7 H 0.6569 -0.1992 0.7154
C15 C 1.0729(5) -0.1245(6) 0.8703(6)
H8 H 1.0625 -0.0625 0.8968
H9 H 1.1279 -0.1248 0.8406
H10 H 1.0835 -0.1661 0.9443
C16 C 0.5375(4) 0.2987(4) 1.0052(5)
C17 C 0.5653(4) 0.3635(4) 1.1037(5)
H11 H 0.5544 0.3531 1.1841
C18 C 0.6090(4) 0.4430(4) 1.0849(6)
H12 H 0.6281 0.4868 1.1528
C19 C 0.6250(4) 0.4596(4) 0.9688(6)
C20 C 0.5937(4) 0.3973(4) 0.8671(5)
H13 H 0.6014 0.4096 0.7852
C21 C 0.5514(4) 0.3179(4) 0.8868(5)
H14 H 0.5312 0.2749 0.8180
C22 C 0.6803(5) 0.5663(4) 0.7901(6)
H15 H 0.6137 0.5685 0.7392
H16 H 0.7111 0.6223 0.7751
H17 H 0.7095 0.5133 0.7634
S1 S 0.97257(12) -0.16111(11) 0.74131(16)
S2 S 0.69267(11) 0.55697(10) 0.96077(14)
Bi1B Bi 1.110241(15) -0.023361(15) 0.42254(2)
Bi1C Bi 0.889759(15) 0.476639(15) 1.07746(2)
Bi1A Bi 0.110241(15) -0.476639(15) 0.92254(2)
Bi1B_2 Bi 0.110241(15) -0.023361(15) 1.42254(2)
Br1B Br 1.07013(4) 0.08718(4) 0.65172(6)
Br2B Br 1.17158(5) -0.15963(4) 0.58741(6)
Br3B Br 1.15026(5) -0.10078(5) 0.22801(6)
C1B C 0.3825(4) -0.1180(4) 1.0265(5)
H1B H 0.3480 -0.1718 1.0294
C2B C 0.3490(4) -0.0357(4) 1.0495(5)
H2B H 0.2924 -0.0333 1.0703
C3B C 0.3973(4) 0.0476(4) 1.0428(5)
C4B C 0.4818(4) 0.0435(3) 1.0110(5)
C5B C 0.4693(4) -0.1251(4) 0.9980(5)
C6B C 0.5057(4) -0.2107(4) 0.9758(5)
C7B C 0.5867(4) -0.2125(4) 0.9425(5)
H3B H 0.6100 -0.2699 0.9257
C8B C 0.3630(4) 0.1322(4) 1.0680(5)
C9B C 0.2774(4) 0.1433(4) 1.1076(6)
C10B C 0.1886(4) 0.1204(4) 1.0256(5)
H4B H 0.1819 0.0988 0.9407
C11B C 0.1095(4) 0.1281(4) 1.0638(6)
H5B H 0.0496 0.1123 1.0058
C12B C 0.1191(4) 0.1594(4) 1.1890(6)
C13B C 0.2059(4) 0.1877(4) 1.2685(6)
H6B H 0.2120 0.2129 1.3514
C14B C 0.2840(4) 0.1796(4) 1.2285(5)
H7B H 0.3431 0.1992 1.2846
C15B C -0.0729(5) 0.1245(6) 1.1297(6)
H8B H -0.0625 0.0625 1.1032
H9B H -0.1279 0.1248 1.1594
H10B H -0.0835 0.1661 1.0557
C16B C 0.4625(4) -0.2987(4) 0.9948(5)
C17B C 0.4347(4) -0.3635(4) 0.8963(5)
H11B H 0.4456 -0.3531 0.8159
C18B C 0.3910(4) -0.4430(4) 0.9151(6)
H12B H 0.3719 -0.4868 0.8472
C19B C 0.3750(4) -0.4596(4) 1.0312(6)
C20B C 0.4063(4) -0.3973(4) 1.1329(5)
H13B H 0.3986 -0.4096 1.2148
C21B C 0.4486(4) -0.3179(4) 1.1132(5)
H14B H 0.4688 -0.2749 1.1820
C22B C 0.3197(5) -0.5663(4) 1.2099(6)
H15B H 0.3863 -0.5685 1.2608
H16B H 0.2889 -0.6223 1.2249
H17B H 0.2905 -0.5133 1.2366
S1B S 0.02743(12) 0.16111(11) 1.25869(16)
S1B_2 S 1.02743(12) 0.16111(11) 0.25869(16)
S2B S 0.30733(11) -0.55697(10) 1.03923(14)
S2C S 0.69267(11) -0.05697(10) 0.46077(14)
S2A S 1.30733(11) 0.05697(10) 0.53923(14)
loop_
_geom_bond_atom_site_label_1
_geom_bond_atom_site_label_2
_geom_bond_site_symmetry_1
_geom_bond_site_symmetry_2
Bi1 Br1 1_555 1_555
Br1 Bi1B 1_555 1_555
Br2 Bi1 1_555 1_555
Br3 Bi1 1_555 1_555
C1 H1 1_555 1_555
C2 C1 1_555 1_555
H2 C2 1_555 1_555
C3 C2 1_555 1_555
C4 C3 1_555 1_555
C5 C1 1_555 1_555
C6 C5 1_555 1_555
C7 C6 1_555 1_555
H3 C7 1_555 1_555
C8 C3 1_555 1_555
C9 C8 1_555 1_555
C10 C9 1_555 1_555
H4 C10 1_555 1_555
C11 C10 1_555 1_555
H5 C11 1_555 1_555
C12 C11 1_555 1_555
C13 C12 1_555 1_555
H6 C13 1_555 1_555
C14 C9 1_555 1_555
H7 C14 1_555 1_555
C15 H8 1_555 1_555
H9 C15 1_555 1_555
H10 C15 1_555 1_555
C16 C6 1_555 1_555
C17 C16 1_555 1_555
H11 C17 1_555 1_555
C18 C17 1_555 1_555
H12 C18 1_555 1_555
C19 C18 1_555 1_555
C20 C19 1_555 1_555
H13 C20 1_555 1_555
C21 C16 1_555 1_555
H14 C21 1_555 1_555
C22 H15 1_555 1_555
H16 C22 1_555 1_555
H17 C22 1_555 1_555
S1 Bi1 1_555 1_555
S2 C19 1_555 1_555
Bi1B Br1B 1_555 1_555
Bi1C S2 1_555 1_555
Bi1A S2B 1_555 1_555
Bi1B_2 S1B 1_555 1_555
Br1B Bi1 1_555 1_555
Br2B Bi1B 1_555 1_555
Br3B Bi1B 1_555 1_555
C1B H1B 1_555 1_555
C2B C1B 1_555 1_555
H2B C2B 1_555 1_555
C3B C2B 1_555 1_555
C4B C4 1_555 1_555
C5B C4 1_555 1_555
C6B C5B 1_555 1_555
C7B C8 1_555 1_555
H3B C7B 1_555 1_555
C8B C7 1_555 1_555
C9B C8B 1_555 1_555
C10B C9B 1_555 1_555
H4B C10B 1_555 1_555
C11B C10B 1_555 1_555
H5B C11B 1_555 1_555
C12B C11B 1_555 1_555
C13B C12B 1_555 1_555
H6B C13B 1_555 1_555
C14B C9B 1_555 1_555
H7B C14B 1_555 1_555
C15B H8B 1_555 1_555
H9B C15B 1_555 1_555
H10B C15B 1_555 1_555
C16B C6B 1_555 1_555
C17B C16B 1_555 1_555
H11B C17B 1_555 1_555
C18B C17B 1_555 1_555
H12B C18B 1_555 1_555
C19B C18B 1_555 1_555
C20B C19B 1_555 1_555
H13B C20B 1_555 1_555
C21B C16B 1_555 1_555
H14B C21B 1_555 1_555
C22B H15B 1_555 1_555
H16B C22B 1_555 1_555
H17B C22B 1_555 1_555
S1B C12B 1_555 1_555
S1B_2 Bi1B 1_555 1_555
S2B C19B 1_555 1_555
S2C Bi1 1_555 1_555
S2A Bi1B 1_555 1_555
C5 C4B 1_555 1_555
C12 S1 1_555 1_555
C13 C14 1_555 1_555
C15 S1 1_555 1_555
C20 C21 1_555 1_555
C22 S2 1_555 1_555
C1B C5B 1_555 1_555
C3B C4B 1_555 1_555
C3B C8B 1_555 1_555
C6B C7B 1_555 1_555
C13B C14B 1_555 1_555
C15B S1B 1_555 1_555
C20B C21B 1_555 1_555
C22B S2B 1_555 1_555

#END
