
#######################################################################
#
#                 Cambridge Crystallographic Data Centre
#                                CCDC 
#
#######################################################################
#
# If this CIF has been generated from an entry in the Cambridge 
# Structural Database, then it will include bibliographic, chemical, 
# crystal, experimental, refinement or atomic coordinate data resulting 
# from the CCDC's data processing and validation procedures.
#
#######################################################################

data_AJAXAM
_symmetry_cell_setting           triclinic
_symmetry_space_group_name_H-M   'P -1'
_symmetry_Int_Tables_number      2
_space_group_name_Hall           '-P 1'
loop_
_symmetry_equiv_pos_site_id
_symmetry_equiv_pos_as_xyz
1 x,y,z
2 -x,-y,-z
_cell_length_a                   7.7180(6)
_cell_length_b                   12.0620(9)
_cell_length_c                   13.1994(9)
_cell_angle_alpha                110.800(2)
_cell_angle_beta                 91.295(2)
_cell_angle_gamma                106.262(2)
_cell_volume                     1092.5
loop_
_atom_site_label
_atom_site_type_symbol
_atom_site_fract_x
_atom_site_fract_y
_atom_site_fract_z
Mn1 Mn 0.21864(5) 0.26611(4) 0.27992(3)
N1 N 0.3218(3) 0.1710(2) 0.37664(18)
N2 N 0.1306(4) 0.3626(3) 0.1755(2)
O1 O -0.0552(3) 0.22184(19) 0.32365(16)
O2 O 0.1065(3) 0.0911(2) 0.14450(18)
O3 O 0.4856(3) 0.3300(2) 0.23509(17)
O4 O 0.3037(3) 0.4443(2) 0.42463(17)
C1 C 0.4994(4) 0.2027(3) 0.4105(3)
H1 H 0.5772 0.2718 0.4012
C2 C 0.5745(4) 0.1387(3) 0.4586(3)
H2 H 0.6995 0.1644 0.4800
C3 C 0.4619(3) 0.0357(2) 0.4747(2)
C4 C 0.2762(4) 0.0033(3) 0.4407(3)
H3 H 0.1951 -0.0647 0.4498
C5 C 0.2125(4) 0.0728(3) 0.3933(3)
H4 H 0.0879 0.0501 0.3720
C6 C 0.1941(4) 0.3494(3) 0.0797(2)
H5 H 0.2742 0.3028 0.0594
C7 C 0.1470(4) 0.4016(3) 0.0090(2)
H6 H 0.1958 0.3902 -0.0564
C8 C 0.0265(4) 0.4708(3) 0.0364(2)
C9 C -0.0408(4) 0.4832(3) 0.1350(2)
H7 H -0.1226 0.5282 0.1568
C10 C 0.0140(4) 0.4284(3) 0.2013(2)
H8 H -0.0332 0.4381 0.2670
H9 H -0.144(6) 0.204(4) 0.277(4)
H10 H 0.008(7) 0.080(4) 0.102(4)
H11 H 0.545(7) 0.402(5) 0.269(5)
H12 H 0.560(7) 0.289(5) 0.212(4)
H13 H 0.298(6) 0.439(4) 0.481(4)
H14 H 0.159(8) 0.048(5) 0.100(5)
H15 H -0.064(7) 0.279(3) 0.379(3)
H16 H 0.411(4) 0.488(4) 0.420(4)
N1A N 0.6782(3) -0.1710(2) 0.62336(18)
C1A C 0.5006(4) -0.2027(3) 0.5895(3)
H1A H 0.4228 -0.2718 0.5988
C2A C 0.4255(4) -0.1387(3) 0.5414(3)
H2A H 0.3005 -0.1644 0.5200
C3A C 0.5381(3) -0.0357(2) 0.5253(2)
C4A C 0.7238(4) -0.0033(3) 0.5593(3)
H3A H 0.8049 0.0647 0.5502
C5A C 0.7875(4) -0.0728(3) 0.6067(3)
H4A H 0.9121 -0.0501 0.6280
N2A N -0.1306(4) 0.6374(3) -0.1755(2)
C6A C -0.1941(4) 0.6506(3) -0.0797(2)
H5A H -0.2742 0.6972 -0.0594
C7A C -0.1470(4) 0.5984(3) -0.0090(2)
H6A H -0.1958 0.6098 0.0564
C8A C -0.0265(4) 0.5292(3) -0.0364(2)
C9A C 0.0408(4) 0.5168(3) -0.1350(2)
H7A H 0.1226 0.4718 -0.1568
C10A C -0.0140(4) 0.5716(3) -0.2013(2)
H8A H 0.0332 0.5619 -0.2670
Mn1A Mn -0.21864(5) 0.73389(4) -0.27992(3)
O1A O 0.0552(3) 0.77816(19) -0.32365(16)
O2A O -0.1065(3) 0.9089(2) -0.14450(18)
O3A O -0.4856(3) 0.6700(2) -0.23509(17)
O4A O -0.3037(3) 0.5557(2) -0.42463(17)
H9A H 0.144(6) 0.796(4) -0.277(4)
H10A H -0.008(7) 0.920(4) -0.102(4)
H11A H -0.545(7) 0.598(5) -0.269(5)
H12A H -0.560(7) 0.711(5) -0.212(4)
H13A H -0.298(6) 0.561(4) -0.481(4)
H14A H -0.159(8) 0.952(5) -0.100(5)
H15A H 0.064(7) 0.721(3) -0.379(3)
H16A H -0.411(4) 0.512(4) -0.420(4)
Mn1A_2 Mn 0.78136(5) -0.26611(4) 0.72008(3)
N1A_2 N -0.3218(3) 0.8290(2) -0.37664(18)
O5 O 0.1953(3) 0.9260(3) -0.02483(19)
O6 O 0.3131(3) 0.8180(2) -0.16376(17)
O7 O 0.9423(4) 0.7052(2) 0.3783(2)
O8 O 0.6812(4) 0.5656(2) 0.37680(19)
C11 C 0.2973(4) 0.8607(3) -0.0631(2)
C12 C 0.4079(4) 0.8282(3) 0.0128(2)
H17 H 0.5354 0.8575 0.0048
H18 H 0.3734 0.7381 -0.0117
C13 C 0.3896(5) 0.8802(3) 0.1341(2)
H19 H 0.4403 0.9703 0.1631
H20 H 0.2618 0.8591 0.1436
C14 C 0.4887(4) 0.8267(3) 0.1961(2)
C15 C 0.3922(5) 0.7346(3) 0.2325(3)
H21 H 0.2655 0.7099 0.2231
C16 C 0.4839(5) 0.6795(3) 0.2828(3)
H22 H 0.4176 0.6178 0.3059
C17 C 0.6726(4) 0.7153(3) 0.2990(2)
C18 C 0.7695(4) 0.8087(3) 0.2638(2)
H23 H 0.8961 0.8344 0.2747
C19 C 0.6788(4) 0.8634(3) 0.2128(3)
H24 H 0.7454 0.9250 0.1896
C20 C 0.7730(5) 0.6588(3) 0.3558(2)
O9 O 0.9009(3) 0.39360(19) 0.51423(17)
H25 H 0.961(8) 0.377(6) 0.561(5)
H26 H 0.834(10) 0.439(7) 0.546(7)
loop_
_geom_bond_atom_site_label_1
_geom_bond_atom_site_label_2
_geom_bond_site_symmetry_1
_geom_bond_site_symmetry_2
Mn1 N1 1_555 1_555
N1 C1 1_555 1_555
N2 Mn1 1_555 1_555
O1 Mn1 1_555 1_555
O2 Mn1 1_555 1_555
O3 Mn1 1_555 1_555
O4 Mn1 1_555 1_555
C1 H1 1_555 1_555
C2 C1 1_555 1_555
H2 C2 1_555 1_555
C3 C2 1_555 1_555
C4 C3 1_555 1_555
H3 C4 1_555 1_555
C5 N1 1_555 1_555
H4 C5 1_555 1_555
C6 N2 1_555 1_555
H5 C6 1_555 1_555
C7 C6 1_555 1_555
H6 C7 1_555 1_555
C8 C7 1_555 1_555
C9 C8 1_555 1_555
H7 C9 1_555 1_555
C10 N2 1_555 1_555
H8 C10 1_555 1_555
H9 O1 1_555 1_555
H10 O2 1_555 1_555
H11 O3 1_555 1_555
H12 O3 1_555 1_555
H13 O4 1_555 1_555
H14 O2 1_555 1_555
H15 O1 1_555 1_555
H16 O4 1_555 1_555
O5 C11 1_555 1_555
O6 C11 1_555 1_555
O7 C20 1_555 1_555
O8 C20 1_555 1_555
C11 C12 1_555 1_555
C12 H17 1_555 1_555
H18 C12 1_555 1_555
C13 C12 1_555 1_555
H19 C13 1_555 1_555
H20 C13 1_555 1_555
C14 C13 1_555 1_555
C15 C14 1_555 1_555
H21 C15 1_555 1_555
C16 C15 1_555 1_555
H22 C16 1_555 1_555
C17 C16 1_555 1_555
C18 C17 1_555 1_555
H23 C18 1_555 1_555
C19 C14 1_555 1_555
H24 C19 1_555 1_555
C20 C17 1_555 1_555
O9 H25 1_555 1_555
H26 O9 1_555 1_555
N1A C1A 1_555 1_555
C1A H1A 1_555 1_555
C2A C1A 1_555 1_555
H2A C2A 1_555 1_555
C3A C3 1_555 1_555
C4A C3A 1_555 1_555
H3A C4A 1_555 1_555
C5A N1A 1_555 1_555
H4A C5A 1_555 1_555
N2A C6A 1_555 1_555
C6A H5A 1_555 1_555
C7A C6A 1_555 1_555
H6A C7A 1_555 1_555
C8A C8 1_555 1_555
C9A C8A 1_555 1_555
H7A C9A 1_555 1_555
C10A N2A 1_555 1_555
H8A C10A 1_555 1_555
Mn1A N2A 1_555 1_555
O1A Mn1A 1_555 1_555
O2A Mn1A 1_555 1_555
O3A Mn1A 1_555 1_555
O4A Mn1A 1_555 1_555
H9A O1A 1_555 1_555
H10A O2A 1_555 1_555
H11A O3A 1_555 1_555
H12A O3A 1_555 1_555
H13A O4A 1_555 1_555
H14A O2A 1_555 1_555
H15A O1A 1_555 1_555
H16A O4A 1_555 1_555
Mn1A_2 N1A 1_555 1_555
N1A_2 Mn1A 1_555 1_555
C4 C5 1_555 1_555
C9 C10 1_555 1_555
C18 C19 1_555 1_555
C2A C3A 1_555 1_555
C4A C5A 1_555 1_555
C7A C8A 1_555 1_555
C9A C10A 1_555 1_555

#END
