
#######################################################################
#
#                 Cambridge Crystallographic Data Centre
#                                CCDC 
#
#######################################################################
#
# If this CIF has been generated from an entry in the Cambridge 
# Structural Database, then it will include bibliographic, chemical, 
# crystal, experimental, refinement or atomic coordinate data resulting 
# from the CCDC's data processing and validation procedures.
#
#######################################################################

data_AJAXUF
_symmetry_cell_setting           triclinic
_symmetry_space_group_name_H-M   'P -1'
_symmetry_Int_Tables_number      2
_space_group_name_Hall           '-P 1'
loop_
_symmetry_equiv_pos_site_id
_symmetry_equiv_pos_as_xyz
1 x,y,z
2 -x,-y,-z
_cell_length_a                   9.243(3)
_cell_length_b                   10.578(3)
_cell_length_c                   12.245(4)
_cell_angle_alpha                98.730(5)
_cell_angle_beta                 91.085(6)
_cell_angle_gamma                94.933(5)
_cell_volume                     1178.35
loop_
_atom_site_label
_atom_site_type_symbol
_atom_site_fract_x
_atom_site_fract_y
_atom_site_fract_z
Cu1 Cu 0.0000 0.5000 0.0000
S1 S 0.14845(12) 0.19291(10) 0.26292(9)
S2 S 0.29620(12) 0.44319(10) 0.34611(9)
S3 S 0.14307(17) 0.10548(12) 0.48261(12)
S4 S 0.33117(13) 0.38676(11) 0.57670(9)
C1 C 0.0348(5) 0.2538(4) -0.1356(4)
H1 H -0.0219 0.2876 -0.1858
C2 C 0.0736(6) 0.1301(5) -0.1640(4)
H2 H 0.0433 0.0814 -0.2316
C3 C 0.1582(6) 0.0805(5) -0.0897(4)
H3 H 0.1828 -0.0036 -0.1049
C4 C 0.2058(5) 0.1582(4) 0.0075(4)
H4 H 0.2659 0.1276 0.0573
C5 C 0.1639(4) 0.2816(4) 0.0307(3)
C6 C 0.2237(4) 0.3723(4) 0.1279(3)
C7 C 0.2872(4) 0.4987(4) 0.1084(3)
C8 C 0.4291(5) 0.5429(5) 0.1434(4)
H5 H 0.4855 0.4933 0.1806
C9 C 0.4846(6) 0.6618(5) 0.1219(4)
H6 H 0.5777 0.6945 0.1477
C10 C 0.4038(6) 0.7310(5) 0.0631(4)
H7 H 0.4406 0.8107 0.0474
C11 C 0.2662(5) 0.6800(4) 0.0274(4)
H8 H 0.2118 0.7253 -0.0154
C12 C 0.2258(4) 0.3384(4) 0.2300(3)
C13 C 0.1900(4) 0.2261(4) 0.4047(3)
C14 C 0.2594(4) 0.3414(4) 0.4432(3)
C15 C 0.3083(5) 0.5562(4) 0.6005(3)
H9 H 0.3716 0.5965 0.6624
H10 H 0.3399 0.5926 0.5359
C16 C 0.1555(5) 0.5897(5) 0.6242(3)
H11 H 0.1505 0.6808 0.6235
H12 H 0.0898 0.5432 0.5662
C17 C 0.1087(5) 0.5586(4) 0.7301(4)
C18 C 0.3066(7) 0.0213(6) 0.4768(6)
H13 H 0.3899 0.0836 0.4760
H14 H 0.3152 -0.0164 0.5438
C19 C 0.3133(7) -0.0834(6) 0.3786(6)
H15 H 0.2950 -0.0490 0.3110
H16 H 0.4098 -0.1130 0.3757
C20 C 0.2084(8) -0.1893(6) 0.3855(5)
N1 N 0.0750(4) 0.3270(3) -0.0396(3)
N2 N 0.2068(4) 0.5675(3) 0.0516(3)
N3 N 0.1296(8) -0.2736(6) 0.3917(5)
N4 N 0.0737(4) 0.5380(4) 0.8140(3)
Cu1_2 Cu 0.0000 0.5000 1.0000
Cu1_3 Cu 0.0000 0.5000 -1.0000
S1A S -0.14845(12) 0.80709(10) -0.26292(9)
S2A S -0.29620(12) 0.55681(10) -0.34611(9)
S3A S -0.14307(17) 0.89452(12) -0.48261(12)
S4A S -0.33117(13) 0.61324(11) -0.57670(9)
C1A C -0.0348(5) 0.7462(4) 0.1356(4)
H1A H 0.0219 0.7124 0.1858
C2A C -0.0736(6) 0.8699(5) 0.1640(4)
H2A H -0.0433 0.9186 0.2316
C3A C -0.1582(6) 0.9195(5) 0.0897(4)
H3A H -0.1828 1.0036 0.1049
C4A C -0.2058(5) 0.8418(4) -0.0075(4)
H4A H -0.2659 0.8724 -0.0573
C5A C -0.1639(4) 0.7184(4) -0.0307(3)
C6A C -0.2237(4) 0.6277(4) -0.1279(3)
C7A C -0.2872(4) 0.5013(4) -0.1084(3)
C8A C -0.4291(5) 0.4571(5) -0.1434(4)
H5A H -0.4855 0.5067 -0.1806
C9A C -0.4846(6) 0.3382(5) -0.1219(4)
H6A H -0.5777 0.3055 -0.1477
C10A C -0.4038(6) 0.2690(5) -0.0631(4)
H7A H -0.4406 0.1893 -0.0474
C11A C -0.2662(5) 0.3200(4) -0.0274(4)
H8A H -0.2118 0.2747 0.0154
C12A C -0.2258(4) 0.6616(4) -0.2300(3)
C13A C -0.1900(4) 0.7739(4) -0.4047(3)
C14A C -0.2594(4) 0.6586(4) -0.4432(3)
C15A C -0.3083(5) 0.4438(4) -0.6005(3)
H9A H -0.3716 0.4035 -0.6624
H10A H -0.3399 0.4074 -0.5359
C16A C -0.1555(5) 0.4103(5) -0.6242(3)
H11A H -0.1505 0.3192 -0.6235
H12A H -0.0898 0.4568 -0.5662
C17A C -0.1087(5) 0.4414(4) -0.7301(4)
C18A C -0.3066(7) 0.9787(6) -0.4768(6)
H13A H -0.3899 0.9164 -0.4760
H14A H -0.3152 1.0164 -0.5438
C19A C -0.3133(7) 1.0834(6) -0.3786(6)
H15A H -0.2950 1.0490 -0.3110
H16A H -0.4098 1.1130 -0.3757
C20A C -0.2084(8) 1.1893(6) -0.3855(5)
N1A N -0.0750(4) 0.6730(3) 0.0396(3)
N2A N -0.2068(4) 0.4325(3) -0.0516(3)
N3A N -0.1296(8) 1.2736(6) -0.3917(5)
N4A N -0.0737(4) 0.4620(4) -0.8140(3)
N4_2 N 0.0737(4) 0.5380(4) -0.1860(3)
N4A_2 N -0.0737(4) 0.4620(4) 0.1860(3)
B1 B 0.5842(5) 0.1268(5) 0.2374(4)
F1 F 0.5037(9) 0.0444(11) 0.1564(9)
F2 F 0.5341(6) 0.1673(5) 0.3408(4)
F3 F 0.5341(11) 0.2314(8) 0.1969(6)
F4 F 0.7107(10) 0.1762(7) 0.1955(11)
F5? F 0.7264(11) 0.122(2) 0.2731(16)
F6? F 0.577(2) -0.0047(5) 0.2362(15)
loop_
_geom_bond_atom_site_label_1
_geom_bond_atom_site_label_2
_geom_bond_site_symmetry_1
_geom_bond_site_symmetry_2
Cu1 N1 1_555 1_555
S1 C12 1_555 1_555
S2 C12 1_555 1_555
S3 C13 1_555 1_555
S4 C14 1_555 1_555
C1 H1 1_555 1_555
C2 C1 1_555 1_555
H2 C2 1_555 1_555
C3 C2 1_555 1_555
H3 C3 1_555 1_555
C4 C3 1_555 1_555
H4 C4 1_555 1_555
C5 C4 1_555 1_555
C6 C5 1_555 1_555
C7 C6 1_555 1_555
C8 C7 1_555 1_555
H5 C8 1_555 1_555
C9 C8 1_555 1_555
H6 C9 1_555 1_555
C10 C9 1_555 1_555
H7 C10 1_555 1_555
C11 C10 1_555 1_555
H8 C11 1_555 1_555
C12 C6 1_555 1_555
C13 S1 1_555 1_555
C14 S2 1_555 1_555
C15 S4 1_555 1_555
H9 C15 1_555 1_555
H10 C15 1_555 1_555
C16 C15 1_555 1_555
H11 C16 1_555 1_555
H12 C16 1_555 1_555
C17 C16 1_555 1_555
C18 S3 1_555 1_555
H13 C18 1_555 1_555
H14 C18 1_555 1_555
C19 C18 1_555 1_555
H15 C19 1_555 1_555
H16 C19 1_555 1_555
C20 C19 1_555 1_555
N1 C1 1_555 1_555
N2 Cu1 1_555 1_555
N3 C20 1_555 1_555
N4 C17 1_555 1_555
B1 F1 1_555 1_555
F2 B1 1_555 1_555
F3 B1 1_555 1_555
F4 B1 1_555 1_555
Cu1_2 N4 1_555 1_555
Cu1_3 N4A 1_555 1_555
S1A C12A 1_555 1_555
S2A C12A 1_555 1_555
S3A C13A 1_555 1_555
S4A C14A 1_555 1_555
C1A H1A 1_555 1_555
C2A C1A 1_555 1_555
H2A C2A 1_555 1_555
C3A C2A 1_555 1_555
H3A C3A 1_555 1_555
C4A C3A 1_555 1_555
H4A C4A 1_555 1_555
C5A C4A 1_555 1_555
C6A C5A 1_555 1_555
C7A C6A 1_555 1_555
C8A C7A 1_555 1_555
H5A C8A 1_555 1_555
C9A C8A 1_555 1_555
H6A C9A 1_555 1_555
C10A C9A 1_555 1_555
H7A C10A 1_555 1_555
C11A C10A 1_555 1_555
H8A C11A 1_555 1_555
C12A C6A 1_555 1_555
C13A S1A 1_555 1_555
C14A S2A 1_555 1_555
C15A S4A 1_555 1_555
H9A C15A 1_555 1_555
H10A C15A 1_555 1_555
C16A C15A 1_555 1_555
H11A C16A 1_555 1_555
H12A C16A 1_555 1_555
C17A C16A 1_555 1_555
C18A S3A 1_555 1_555
H13A C18A 1_555 1_555
H14A C18A 1_555 1_555
C19A C18A 1_555 1_555
H15A C19A 1_555 1_555
H16A C19A 1_555 1_555
C20A C19A 1_555 1_555
N1A Cu1 1_555 1_555
N2A Cu1 1_555 1_555
N3A C20A 1_555 1_555
N4A C17A 1_555 1_555
N4_2 Cu1 1_555 1_555
N4A_2 Cu1 1_555 1_555
C5 N1 1_555 1_555
C7 N2 1_555 1_555
C11 N2 1_555 1_555
C13 C14 1_555 1_555
C1A N1A 1_555 1_555
C5A N1A 1_555 1_555
C7A N2A 1_555 1_555
C11A N2A 1_555 1_555
C13A C14A 1_555 1_555

#END
