
#######################################################################
#
#                 Cambridge Crystallographic Data Centre
#                                CCDC 
#
#######################################################################
#
# If this CIF has been generated from an entry in the Cambridge 
# Structural Database, then it will include bibliographic, chemical, 
# crystal, experimental, refinement or atomic coordinate data resulting 
# from the CCDC's data processing and validation procedures.
#
#######################################################################

data_AJAYAM
_symmetry_cell_setting           monoclinic
_symmetry_space_group_name_H-M   'C 2/c'
_symmetry_Int_Tables_number      15
_space_group_name_Hall           '-C 2yn'
loop_
_symmetry_equiv_pos_site_id
_symmetry_equiv_pos_as_xyz
1 x,y,z
2 -x,y,1/2-z
3 1/2+x,1/2+y,z
4 1/2-x,1/2+y,1/2-z
5 -x,-y,-z
6 x,-y,1/2+z
7 1/2-x,1/2-y,-z
8 1/2+x,1/2-y,1/2+z
_cell_length_a                   23.673(6)
_cell_length_b                   11.564(3)
_cell_length_c                   20.745(5)
_cell_angle_alpha                90
_cell_angle_beta                 105.637(5)
_cell_angle_gamma                90
_cell_volume                     5468.85
loop_
_atom_site_label
_atom_site_type_symbol
_atom_site_fract_x
_atom_site_fract_y
_atom_site_fract_z
Cl1 Cl 0.7977(6) 0.0977(18) 0.5779(9)
Cl2 Cl 0.7603(5) 0.0999(13) 0.6665(7)
C21 C 0.7337(10) 0.1864(17) 0.5980(16)
H17 H 0.7405 0.2688 0.6051
H18 H 0.6944 0.1686 0.5709
Co1 Co 0.0000 0.07639(10) 0.7500
S1 S -0.00152(10) 0.50097(15) 0.65881(10)
S2 S 0.02595(10) 0.34673(15) 0.56012(9)
S3 S 0.07522(11) 0.69213(15) 0.63374(10)
S4 S 0.10793(11) 0.51063(17) 0.52169(11)
C1 C -0.0991(3) 0.2103(6) 0.7814(4)
H1 H -0.0940 0.1526 0.8136
C2 C -0.1414(4) 0.2927(7) 0.7807(4)
H2 H -0.1639 0.2910 0.8112
C3 C -0.1487(4) 0.3780(7) 0.7323(4)
H3 H -0.1761 0.4366 0.7300
C4 C -0.1152(4) 0.3752(7) 0.6882(4)
H4 H -0.1204 0.4315 0.6551
C5 C -0.0738(3) 0.2897(6) 0.6921(3)
C6 C -0.0404(3) 0.2761(6) 0.6423(3)
C7 C -0.0466(3) 0.1627(6) 0.6051(4)
C8 C -0.0706(4) 0.1559(6) 0.5378(4)
H5 H -0.0837 0.2225 0.5133
C9 C -0.0755(4) 0.0505(8) 0.5060(4)
H6 H -0.0904 0.0443 0.4598
C10 C -0.0574(5) -0.0446(7) 0.5453(4)
H7 H -0.0614 -0.1176 0.5258
C11 C -0.0339(4) -0.0343(6) 0.6116(4)
H8 H -0.0211 -0.1007 0.6365
C12 C -0.0104(3) 0.3612(5) 0.6234(3)
C13 C 0.0498(3) 0.5503(5) 0.6186(3)
C14 C 0.1196(4) 0.6802(6) 0.7195(4)
H9 H 0.0957 0.6525 0.7476
H10 H 0.1510 0.6252 0.7221
C15 C 0.1451(4) 0.7980(7) 0.7440(4)
H11 H 0.1718 0.7901 0.7883
H12 H 0.1674 0.8268 0.7143
C16 C 0.0987(4) 0.8818(6) 0.7463(3)
C17 C 0.0634(3) 0.4801(6) 0.5739(3)
C18 C 0.1620(4) 0.3978(8) 0.5459(5)
H13 H 0.1931 0.4230 0.5841
H14 H 0.1440 0.3294 0.5588
C19 C 0.1864(5) 0.3702(11) 0.4902(6)
H15 H 0.2191 0.3177 0.5063
H16 H 0.2018 0.4407 0.4761
C20 C 0.1455(7) 0.3177(10) 0.4312(8)
N1 N -0.0653(2) 0.2062(4) 0.7402(3)
N2 N -0.0283(3) 0.0679(5) 0.6435(3)
N3 N 0.0637(3) 0.9460(5) 0.7478(3)
N4 N 0.1139(6) 0.2857(9) 0.3840(6)
Co1_2 Co 0.0000 1.07639(10) 0.7500
S1A S 0.00152(10) 0.50097(15) 0.84119(10)
S2A S -0.02595(10) 0.34673(15) 0.93988(9)
S3A S -0.07522(11) 0.69213(15) 0.86626(10)
S4A S -0.10793(11) 0.51063(17) 0.97831(11)
C1A C 0.0991(3) 0.2103(6) 0.7186(4)
H1A H 0.0940 0.1526 0.6864
C2A C 0.1414(4) 0.2927(7) 0.7193(4)
H2A H 0.1639 0.2910 0.6888
C3A C 0.1487(4) 0.3780(7) 0.7677(4)
H3A H 0.1761 0.4366 0.7700
C4A C 0.1152(4) 0.3752(7) 0.8118(4)
H4A H 0.1204 0.4315 0.8449
C5A C 0.0738(3) 0.2897(6) 0.8079(3)
C6A C 0.0404(3) 0.2761(6) 0.8577(3)
C7A C 0.0466(3) 0.1627(6) 0.8949(4)
C8A C 0.0706(4) 0.1559(6) 0.9622(4)
H5A H 0.0837 0.2225 0.9867
C9A C 0.0755(4) 0.0505(8) 0.9940(4)
H6A H 0.0904 0.0443 1.0402
C10A C 0.0574(5) -0.0446(7) 0.9547(4)
H7A H 0.0614 -0.1176 0.9742
C11A C 0.0339(4) -0.0343(6) 0.8884(4)
H8A H 0.0211 -0.1007 0.8635
C12A C 0.0104(3) 0.3612(5) 0.8766(3)
C13A C -0.0498(3) 0.5503(5) 0.8814(3)
C14A C -0.1196(4) 0.6802(6) 0.7805(4)
H9A H -0.0957 0.6525 0.7524
H10A H -0.1510 0.6252 0.7779
C15A C -0.1451(4) 0.7980(7) 0.7560(4)
H11A H -0.1718 0.7901 0.7117
H12A H -0.1674 0.8268 0.7857
C16A C -0.0987(4) 0.8818(6) 0.7537(3)
C17A C -0.0634(3) 0.4801(6) 0.9261(3)
C18A C -0.1620(4) 0.3978(8) 0.9541(5)
H13A H -0.1931 0.4230 0.9159
H14A H -0.1440 0.3294 0.9412
C19A C -0.1864(5) 0.3702(11) 1.0098(6)
H15A H -0.2191 0.3177 0.9937
H16A H -0.2018 0.4407 1.0239
C20A C -0.1455(7) 0.3177(10) 1.0688(8)
N1A N 0.0653(2) 0.2062(4) 0.7598(3)
N2A N 0.0283(3) 0.0679(5) 0.8565(3)
N3A N -0.0637(3) 0.9460(5) 0.7522(3)
N3_2 N 0.0637(3) -0.0540(5) 0.7478(3)
N3A_2 N -0.0637(3) -0.0540(5) 0.7522(3)
N4A N -0.1139(6) 0.2857(9) 1.1160(6)
Cl3 Cl 0.78635(15) 0.9367(3) 0.36999(17)
O1 O 0.8258(8) 0.8695(10) 0.4200(7)
O2 O 0.7503(11) 0.8364(19) 0.3508(17)
O3 O 0.7570(6) 1.0195(9) 0.4002(6)
O4 O 0.8172(14) 1.0106(19) 0.3359(14)
O5? O 0.7537(16) 0.909(3) 0.3027(10)
O6? O 0.8461(5) 0.942(3) 0.3667(15)
loop_
_geom_bond_atom_site_label_1
_geom_bond_atom_site_label_2
_geom_bond_site_symmetry_1
_geom_bond_site_symmetry_2
Cl1 C21 1_555 1_555
Cl2 C21 1_555 1_555
Co1 N1 1_555 1_555
S1 C12 1_555 1_555
S2 C12 1_555 1_555
S3 C13 1_555 1_555
S4 C17 1_555 1_555
C1 H1 1_555 1_555
C2 C1 1_555 1_555
H2 C2 1_555 1_555
C3 C2 1_555 1_555
H3 C3 1_555 1_555
C4 C3 1_555 1_555
H4 C4 1_555 1_555
C5 C4 1_555 1_555
C6 C5 1_555 1_555
C7 C6 1_555 1_555
C8 C7 1_555 1_555
H5 C8 1_555 1_555
C9 C8 1_555 1_555
H6 C9 1_555 1_555
C10 C9 1_555 1_555
H7 C10 1_555 1_555
C11 C10 1_555 1_555
H8 C11 1_555 1_555
C12 C6 1_555 1_555
C13 S1 1_555 1_555
C14 S3 1_555 1_555
H9 C14 1_555 1_555
H10 C14 1_555 1_555
C15 C14 1_555 1_555
H11 C15 1_555 1_555
H12 C15 1_555 1_555
C16 C15 1_555 1_555
C17 S2 1_555 1_555
C18 S4 1_555 1_555
H13 C18 1_555 1_555
H14 C18 1_555 1_555
C19 C18 1_555 1_555
H15 C19 1_555 1_555
H16 C19 1_555 1_555
C20 C19 1_555 1_555
Cl3 O1 1_555 1_555
N1 C1 1_555 1_555
N2 Co1 1_555 1_555
N3 C16 1_555 1_555
N4 C20 1_555 1_555
O2 Cl3 1_555 1_555
O3 Cl3 1_555 1_555
O4 Cl3 1_555 1_555
C21 H17 1_555 1_555
H18 C21 1_555 1_555
Co1_2 N3 1_555 1_555
S1A C12A 1_555 1_555
S2A C12A 1_555 1_555
S3A C13A 1_555 1_555
S4A C17A 1_555 1_555
C1A H1A 1_555 1_555
C2A C1A 1_555 1_555
H2A C2A 1_555 1_555
C3A C2A 1_555 1_555
H3A C3A 1_555 1_555
C4A C3A 1_555 1_555
H4A C4A 1_555 1_555
C5A C4A 1_555 1_555
C6A C5A 1_555 1_555
C7A C6A 1_555 1_555
C8A C7A 1_555 1_555
H5A C8A 1_555 1_555
C9A C8A 1_555 1_555
H6A C9A 1_555 1_555
C10A C9A 1_555 1_555
H7A C10A 1_555 1_555
C11A C10A 1_555 1_555
H8A C11A 1_555 1_555
C12A C6A 1_555 1_555
C13A S1A 1_555 1_555
C14A S3A 1_555 1_555
H9A C14A 1_555 1_555
H10A C14A 1_555 1_555
C15A C14A 1_555 1_555
H11A C15A 1_555 1_555
H12A C15A 1_555 1_555
C16A C15A 1_555 1_555
C17A S2A 1_555 1_555
C18A S4A 1_555 1_555
H13A C18A 1_555 1_555
H14A C18A 1_555 1_555
C19A C18A 1_555 1_555
H15A C19A 1_555 1_555
H16A C19A 1_555 1_555
C20A C19A 1_555 1_555
N1A Co1 1_555 1_555
N2A Co1 1_555 1_555
N3A Co1_2 1_555 1_555
N3_2 Co1 1_555 1_555
N3A_2 Co1 1_555 1_555
N4A C20A 1_555 1_555
C5 N1 1_555 1_555
C7 N2 1_555 1_555
C11 N2 1_555 1_555
C13 C17 1_555 1_555
C1A N1A 1_555 1_555
C5A N1A 1_555 1_555
C7A N2A 1_555 1_555
C11A N2A 1_555 1_555
C13A C17A 1_555 1_555
C16A N3A 1_555 1_555

#END
