
#######################################################################
#
#                 Cambridge Crystallographic Data Centre
#                                CCDC 
#
#######################################################################
#
# If this CIF has been generated from an entry in the Cambridge 
# Structural Database, then it will include bibliographic, chemical, 
# crystal, experimental, refinement or atomic coordinate data resulting 
# from the CCDC's data processing and validation procedures.
#
#######################################################################

data_AJECOI
_symmetry_cell_setting           monoclinic
_symmetry_space_group_name_H-M   'P 21'
_symmetry_Int_Tables_number      4
_space_group_name_Hall           'P 2yb'
loop_
_symmetry_equiv_pos_site_id
_symmetry_equiv_pos_as_xyz
1 x,y,z
2 -x,1/2+y,-z
_cell_length_a                   11.9757(8)
_cell_length_b                   18.3032(10)
_cell_length_c                   13.0747(8)
_cell_angle_alpha                90
_cell_angle_beta                 90.225(2)
_cell_angle_gamma                90
_cell_volume                     2865.87
loop_
_atom_site_label
_atom_site_type_symbol
_atom_site_fract_x
_atom_site_fract_y
_atom_site_fract_z
Bi1 Bi -0.05451(3) 0.184840(19) 0.34365(3)
Bi2 Bi 0.46077(3) 0.145730(19) 0.17236(3)
Nb1 Nb 0.08447(7) 0.09083(5) 0.01465(7)
Nb2 Nb -0.41990(6) 0.18916(5) 0.52484(7)
O1 O 0.1498(6) 0.0797(4) -0.1130(5)
O2 O -0.0591(5) 0.0588(4) -0.0172(5)
O3 O -0.5636(5) 0.1662(4) 0.5681(6)
O4 O -0.3651(6) 0.2313(4) 0.6465(6)
O5 O 0.0854(6) 0.0921(4) 0.3376(5)
O6 O 0.0566(5) 0.0937(4) 0.1716(5)
O7 O 0.1647(5) 0.0007(4) 0.0575(5)
O8 O 0.3623(5) 0.2303(4) 0.0679(5)
O9 O 0.2293(5) 0.1481(4) 0.0567(5)
O10 O 0.0300(5) 0.1921(4) -0.0033(5)
O11 O -0.1509(6) 0.2962(4) 0.3774(5)
O12 O -0.2751(5) 0.2261(4) 0.4516(5)
O13 O -0.4802(6) 0.2804(4) 0.4644(6)
O14 O -0.3979(6) 0.0680(4) 0.2499(5)
O15 O -0.4380(5) 0.1318(3) 0.3884(5)
O16 O -0.3335(5) 0.1007(3) 0.5623(5)
C1 C 0.2559(11) 0.0624(8) -0.1567(9)
H1 H 0.2497 0.0627 -0.2315
H2 H 0.2795 0.0138 -0.1335
H3 H 0.3111 0.0988 -0.1350
C2 C -0.1584(8) 0.0769(7) -0.0628(10)
H4 H -0.2103 0.0356 -0.0576
H5 H -0.1457 0.0883 -0.1351
H6 H -0.1903 0.1196 -0.0285
C3 C -0.6768(11) 0.1843(11) 0.5606(16)
H7 H -0.7204 0.1513 0.6040
H8 H -0.7015 0.1794 0.4894
H9 H -0.6878 0.2348 0.5833
C4 C -0.2594(10) 0.2311(8) 0.6984(11)
H10 H -0.2650 0.2598 0.7614
H11 H -0.2025 0.2526 0.6539
H12 H -0.2385 0.1807 0.7152
C5 C -0.0026(7) 0.1855(6) 0.5081(6)
C6 C 0.0095(9) 0.1190(6) 0.5594(8)
H13 H 0.0010 0.0742 0.5235
C7 C 0.0346(9) 0.1190(7) 0.6659(8)
H14 H 0.0439 0.0744 0.7021
C8 C 0.0453(8) 0.1866(7) 0.7165(8)
H15 H 0.0610 0.1872 0.7877
C9 C 0.0338(10) 0.2504(7) 0.6659(9)
H16 H 0.0409 0.2953 0.7018
C10 C 0.0115(9) 0.2506(6) 0.5606(8)
H17 H 0.0059 0.2957 0.5250
C11 C 0.0804(7) 0.2624(6) 0.2949(7)
C12 C 0.1888(9) 0.2489(6) 0.3251(10)
H18 H 0.2057 0.2061 0.3634
C13 C 0.2756(10) 0.2985(7) 0.2993(11)
H19 H 0.3506 0.2893 0.3195
C14 C 0.2482(11) 0.3600(7) 0.2443(10)
H20 H 0.3053 0.3935 0.2261
C15 C 0.1412(12) 0.3737(7) 0.2156(9)
H21 H 0.1245 0.4164 0.1772
C16 C 0.0543(9) 0.3251(6) 0.2424(8)
H22 H -0.0209 0.3356 0.2243
C17 C 0.1960(9) 0.0126(6) 0.2366(8)
C18 C 0.2182(8) -0.0187(5) 0.1418(7)
C19 C 0.3587(11) -0.0964(6) 0.2163(9)
H23 H 0.4118 -0.1346 0.2099
C20 C 0.3402(12) -0.0616(8) 0.3122(10)
H24 H 0.3851 -0.0748 0.3694
C21 C 0.2994(9) -0.0736(6) 0.1355(9)
H25 H 0.3128 -0.0957 0.0709
C22 C 0.2579(10) -0.0090(7) 0.3238(10)
H26 H 0.2434 0.0120 0.3888
C23 C 0.1113(8) 0.0686(6) 0.2494(6)
C24 C 0.1930(8) 0.2692(5) -0.0070(7)
C25 C 0.0768(8) 0.2554(5) -0.0247(8)
C26 C 0.0140(9) 0.3130(6) -0.0639(8)
H27 H -0.0636 0.3055 -0.0749
C27 C 0.0579(10) 0.3793(6) -0.0871(9)
H28 H 0.0119 0.4172 -0.1135
C28 C 0.1719(10) 0.3908(5) -0.0716(9)
H29 H 0.2037 0.4370 -0.0875
C29 C 0.2374(9) 0.3368(5) -0.0341(9)
H30 H 0.3152 0.3452 -0.0261
C30 C 0.2662(8) 0.2130(5) 0.0412(7)
C31 C 0.5141(7) 0.0924(5) 0.0281(7)
C32 C 0.5322(8) 0.0169(6) 0.0189(9)
H31 H 0.5255 -0.0128 0.0783
C33 C 0.5592(8) -0.0163(6) -0.0727(8)
H32 H 0.5712 -0.0675 -0.0758
C34 C 0.5684(9) 0.0251(6) -0.1576(9)
H33 H 0.5873 0.0025 -0.2207
C35 C 0.5513(9) 0.0971(7) -0.1548(9)
H34 H 0.5563 0.1248 -0.2160
C36 C 0.5258(8) 0.1328(5) -0.0607(7)
H35 H 0.5168 0.1844 -0.0591
C37 C 0.5962(8) 0.2317(6) 0.1606(9)
C38 C 0.7051(7) 0.2109(6) 0.1366(8)
H36 H 0.7233 0.1605 0.1329
C39 C 0.7855(8) 0.2617(6) 0.1184(8)
H37 H 0.8584 0.2465 0.0992
C40 C 0.7613(9) 0.3362(6) 0.1280(8)
H38 H 0.8174 0.3718 0.1162
C41 C 0.6557(9) 0.3570(6) 0.1547(9)
H39 H 0.6386 0.4073 0.1630
C42 C 0.5725(8) 0.3039(5) 0.1697(8)
H40 H 0.4988 0.3187 0.1866
C43 C -0.3203(8) 0.3542(5) 0.4204(7)
C44 C -0.4356(8) 0.3439(5) 0.4426(8)
C45 C -0.5036(8) 0.4078(5) 0.4385(8)
H41 H -0.5815 0.4039 0.4511
C46 C -0.4590(9) 0.4734(6) 0.4171(8)
H42 H -0.5063 0.5151 0.4134
C47 C -0.3465(11) 0.4814(6) 0.4006(8)
H43 H -0.3164 0.5287 0.3887
C48 C -0.2777(10) 0.4221(6) 0.4012(8)
H44 H -0.2002 0.4280 0.3883
C49 C -0.2436(8) 0.2879(5) 0.4157(7)
C50 C -0.3020(9) 0.0386(6) 0.4053(9)
C51 C -0.2837(8) 0.0476(6) 0.5090(9)
C52 C -0.2142(9) -0.0014(5) 0.5627(8)
H45 H -0.2014 0.0061 0.6337
C53 C -0.1648(12) -0.0592(7) 0.5153(10)
H46 H -0.1221 -0.0933 0.5537
C54 C -0.1774(14) -0.0678(8) 0.4098(12)
H47 H -0.1378 -0.1052 0.3749
C55 C -0.2487(12) -0.0210(7) 0.3559(10)
H48 H -0.2617 -0.0292 0.2851
C56 C -0.3819(8) 0.0804(5) 0.3429(9)
Bi2_2 Bi -0.53923(3) 0.145730(19) 0.17236(3)
O14_2 O 0.6021(6) 0.0680(4) 0.2499(5)
loop_
_geom_bond_atom_site_label_1
_geom_bond_atom_site_label_2
_geom_bond_site_symmetry_1
_geom_bond_site_symmetry_2
Bi1 O5 1_555 1_555
Bi2 O8 1_555 1_555
Nb1 O1 1_555 1_555
Nb2 O3 1_555 1_555
O1 C1 1_555 1_555
O2 Nb1 1_555 1_555
O3 C3 1_555 1_555
O4 Nb2 1_555 1_555
O5 C23 1_555 1_555
O6 Nb1 1_555 1_555
O7 Nb1 1_555 1_555
O8 C30 1_555 1_555
O9 Nb1 1_555 1_555
O10 Nb1 1_555 1_555
O11 Bi1 1_555 1_555
O12 Nb2 1_555 1_555
O13 Nb2 1_555 1_555
O14 C56 1_555 1_555
O15 Nb2 1_555 1_555
O16 Nb2 1_555 1_555
C1 H1 1_555 1_555
H2 C1 1_555 1_555
H3 C1 1_555 1_555
C2 O2 1_555 1_555
H4 C2 1_555 1_555
H5 C2 1_555 1_555
H6 C2 1_555 1_555
C3 H7 1_555 1_555
H8 C3 1_555 1_555
H9 C3 1_555 1_555
C4 O4 1_555 1_555
H10 C4 1_555 1_555
H11 C4 1_555 1_555
H12 C4 1_555 1_555
C5 Bi1 1_555 1_555
C6 C5 1_555 1_555
H13 C6 1_555 1_555
C7 C6 1_555 1_555
H14 C7 1_555 1_555
C8 C7 1_555 1_555
H15 C8 1_555 1_555
C9 C8 1_555 1_555
H16 C9 1_555 1_555
C10 C5 1_555 1_555
H17 C10 1_555 1_555
C11 Bi1 1_555 1_555
C12 C11 1_555 1_555
H18 C12 1_555 1_555
C13 C12 1_555 1_555
H19 C13 1_555 1_555
C14 C13 1_555 1_555
H20 C14 1_555 1_555
C15 C14 1_555 1_555
H21 C15 1_555 1_555
C16 C11 1_555 1_555
H22 C16 1_555 1_555
C17 C18 1_555 1_555
C18 O7 1_555 1_555
C19 H23 1_555 1_555
C20 C19 1_555 1_555
H24 C20 1_555 1_555
C21 C18 1_555 1_555
H25 C21 1_555 1_555
C22 C17 1_555 1_555
H26 C22 1_555 1_555
C23 O6 1_555 1_555
C24 C25 1_555 1_555
C25 O10 1_555 1_555
C26 C25 1_555 1_555
H27 C26 1_555 1_555
C27 C26 1_555 1_555
H28 C27 1_555 1_555
C28 C27 1_555 1_555
H29 C28 1_555 1_555
C29 C24 1_555 1_555
H30 C29 1_555 1_555
C30 O9 1_555 1_555
C31 Bi2 1_555 1_555
C32 C31 1_555 1_555
H31 C32 1_555 1_555
C33 C32 1_555 1_555
H32 C33 1_555 1_555
C34 C33 1_555 1_555
H33 C34 1_555 1_555
C35 C34 1_555 1_555
H34 C35 1_555 1_555
C36 C31 1_555 1_555
H35 C36 1_555 1_555
C37 Bi2 1_555 1_555
C38 C37 1_555 1_555
H36 C38 1_555 1_555
C39 C38 1_555 1_555
H37 C39 1_555 1_555
C40 C39 1_555 1_555
H38 C40 1_555 1_555
C41 C40 1_555 1_555
H39 C41 1_555 1_555
C42 C37 1_555 1_555
H40 C42 1_555 1_555
C43 C44 1_555 1_555
C44 O13 1_555 1_555
C45 C44 1_555 1_555
H41 C45 1_555 1_555
C46 C45 1_555 1_555
H42 C46 1_555 1_555
C47 C46 1_555 1_555
H43 C47 1_555 1_555
C48 C43 1_555 1_555
H44 C48 1_555 1_555
C49 O11 1_555 1_555
C50 C51 1_555 1_555
C51 O16 1_555 1_555
C52 C51 1_555 1_555
H45 C52 1_555 1_555
C53 C52 1_555 1_555
H46 C53 1_555 1_555
C54 C53 1_555 1_555
H47 C54 1_555 1_555
C55 C50 1_555 1_555
H48 C55 1_555 1_555
C56 O15 1_555 1_555
Bi2_2 O14 1_555 1_555
O14_2 Bi2 1_555 1_555
O12 C49 1_555 1_555
C9 C10 1_555 1_555
C15 C16 1_555 1_555
C17 C23 1_555 1_555
C19 C21 1_555 1_555
C20 C22 1_555 1_555
C24 C30 1_555 1_555
C28 C29 1_555 1_555
C35 C36 1_555 1_555
C41 C42 1_555 1_555
C43 C49 1_555 1_555
C47 C48 1_555 1_555
C50 C56 1_555 1_555
C54 C55 1_555 1_555

#END
