
#######################################################################
#
#                 Cambridge Crystallographic Data Centre
#                                CCDC 
#
#######################################################################
#
# If this CIF has been generated from an entry in the Cambridge 
# Structural Database, then it will include bibliographic, chemical, 
# crystal, experimental, refinement or atomic coordinate data resulting 
# from the CCDC's data processing and validation procedures.
#
#######################################################################

data_AJEGIG
_symmetry_cell_setting           monoclinic
_symmetry_space_group_name_H-M   'C 2/c'
_symmetry_Int_Tables_number      15
_space_group_name_Hall           '-C 2yn'
loop_
_symmetry_equiv_pos_site_id
_symmetry_equiv_pos_as_xyz
1 x,y,z
2 -x,y,1/2-z
3 1/2+x,1/2+y,z
4 1/2-x,1/2+y,1/2-z
5 -x,-y,-z
6 x,-y,1/2+z
7 1/2-x,1/2-y,-z
8 1/2+x,1/2-y,1/2+z
_cell_length_a                   15.1658(10)
_cell_length_b                   14.1698(10)
_cell_length_c                   6.6001(4)
_cell_angle_alpha                90
_cell_angle_beta                 104.524(8)
_cell_angle_gamma                90
_cell_volume                     1373.01
loop_
_atom_site_label
_atom_site_type_symbol
_atom_site_fract_x
_atom_site_fract_y
_atom_site_fract_z
Co1 Co 0.0000 0.19976(4) 0.2500
S1 S 0.0000 0.14352(7) 0.7500
O1 O -0.10159(14) 0.10024(15) 0.2406(3)
H1 H -0.098(2) 0.087(2) 0.370(3)
H2 H -0.091(2) 0.0438(15) 0.203(5)
O2 O 0.02397(12) 0.20291(13) 0.5892(3)
O3 O 0.07831(12) 0.08300(13) 0.8507(3)
N1 N 0.08990(15) 0.31375(16) 0.2656(3)
C1 C 0.0481(2) 0.3994(2) 0.2592(4)
C2 C 0.17830(19) 0.3129(2) 0.2797(4)
H3 H 0.2078 0.2536 0.2827
C3 C 0.2305(2) 0.3945(2) 0.2905(5)
H4 H 0.2942 0.3903 0.3026
C4 C 0.1892(2) 0.4804(2) 0.2834(4)
H5 H 0.2239 0.5366 0.2893
C5 C 0.0951(2) 0.4855(2) 0.2674(4)
C6 C 0.0451(2) 0.5715(2) 0.2582(4)
H6 H 0.0762 0.6300 0.2638
Co1_2 Co 0.0000 0.19976(4) 1.2500
O1A O 0.10159(14) 0.10024(15) 0.2594(3)
H1A H 0.098(2) 0.087(2) 0.130(3)
H2A H 0.091(2) 0.0438(15) 0.297(5)
O2A O -0.02397(12) 0.20291(13) 0.9108(3)
O2A_2 O -0.02397(12) 0.20291(13) -0.0892(3)
O3A O -0.07831(12) 0.08300(13) 0.6493(3)
N1A N -0.08990(15) 0.31375(16) 0.2344(3)
C1A C -0.0481(2) 0.3994(2) 0.2408(4)
C2A C -0.17830(19) 0.3129(2) 0.2203(4)
H3A H -0.2078 0.2536 0.2173
C3A C -0.2305(2) 0.3945(2) 0.2095(5)
H4A H -0.2942 0.3903 0.1974
C4A C -0.1892(2) 0.4804(2) 0.2166(4)
H5A H -0.2239 0.5366 0.2107
C5A C -0.0951(2) 0.4855(2) 0.2326(4)
C6A C -0.0451(2) 0.5715(2) 0.2418(4)
H6A H -0.0762 0.6300 0.2362
loop_
_geom_bond_atom_site_label_1
_geom_bond_atom_site_label_2
_geom_bond_site_symmetry_1
_geom_bond_site_symmetry_2
Co1 O1 1_555 1_555
S1 O2 1_555 1_555
O1 H1 1_555 1_555
H2 O1 1_555 1_555
O2 Co1 1_555 1_555
O3 S1 1_555 1_555
N1 Co1 1_555 1_555
C1 N1 1_555 1_555
C2 N1 1_555 1_555
H3 C2 1_555 1_555
C3 C2 1_555 1_555
H4 C3 1_555 1_555
C4 C3 1_555 1_555
H5 C4 1_555 1_555
C5 C1 1_555 1_555
C6 C5 1_555 1_555
H6 C6 1_555 1_555
Co1_2 O2A 1_555 1_555
O1A Co1 1_555 1_555
H1A O1A 1_555 1_555
H2A O1A 1_555 1_555
O2A S1 1_555 1_555
O2A_2 Co1 1_555 1_555
O3A S1 1_555 1_555
N1A Co1 1_555 1_555
C1A C1 1_555 1_555
C2A N1A 1_555 1_555
H3A C2A 1_555 1_555
C3A C2A 1_555 1_555
H4A C3A 1_555 1_555
C4A C3A 1_555 1_555
H5A C4A 1_555 1_555
C5A C1A 1_555 1_555
C6A C6 1_555 1_555
H6A C6A 1_555 1_555
C4 C5 1_555 1_555
N1A C1A 1_555 1_555
C4A C5A 1_555 1_555
C5A C6A 1_555 1_555

#END
