
#######################################################################
#
#                 Cambridge Crystallographic Data Centre
#                                CCDC 
#
#######################################################################
#
# If this CIF has been generated from an entry in the Cambridge 
# Structural Database, then it will include bibliographic, chemical, 
# crystal, experimental, refinement or atomic coordinate data resulting 
# from the CCDC's data processing and validation procedures.
#
#######################################################################

data_AJEHUS
_symmetry_cell_setting           monoclinic
_symmetry_space_group_name_H-M   'P 21/n'
_symmetry_Int_Tables_number      14
_space_group_name_Hall           '-P 2yn'
loop_
_symmetry_equiv_pos_site_id
_symmetry_equiv_pos_as_xyz
1 x,y,z
2 1/2+x,1/2-y,1/2+z
3 -x,-y,-z
4 1/2-x,1/2+y,1/2-z
_cell_length_a                   19.956(5)
_cell_length_b                   7.464(3)
_cell_length_c                   21.214(5)
_cell_angle_alpha                90
_cell_angle_beta                 96.42(2)
_cell_angle_gamma                90
_cell_volume                     3140.04
loop_
_atom_site_label
_atom_site_type_symbol
_atom_site_fract_x
_atom_site_fract_y
_atom_site_fract_z
Mn1 Mn 0.59677(2) 0.73461(6) 0.75761(2)
Fe1 Fe 0.66810(2) 0.22835(5) 0.60215(2)
Fe2 Fe 0.44271(2) 0.20821(6) 0.82627(2)
O1 O 0.4868(2) 0.7710(4) 0.6996(2)
N1 N 0.6257(1) 0.5391(4) 0.6870(1)
N2 N 0.5357(1) 0.5247(4) 0.7987(1)
N3 N 0.6254(1) 0.9534(4) 0.6963(1)
N4 N 0.6928(1) 0.7167(4) 0.8194(1)
N5 N 0.6951(2) -0.1006(5) 0.5212(2)
N6 N 0.4184(2) 0.1502(6) 0.6827(2)
N7 N 0.5584(1) 0.9457(4) 0.8178(1)
N8 N 0.3613(2) -0.1370(5) 0.8436(2)
N9 N 0.5788(1) 0.2462(3) 0.5511(1)
N10 N 0.6941(1) 0.3737(3) 0.5306(1)
N11 N 0.3598(1) 0.3506(4) 0.8349(1)
N12 N 0.4560(1) 0.2509(4) 0.9186(1)
C1 C 0.6424(2) 0.4290(4) 0.6547(1)
C2 C 0.5001(2) 0.4130(4) 0.8102(1)
C3 C 0.6408(1) 1.0608(4) 0.6628(1)
C4 C 0.7443(2) 0.7203(4) 0.8498(1)
C5 C 0.6876(1) 0.0188(4) 0.5527(1)
C6 C 0.4269(2) 0.1739(5) 0.7362(2)
C7 C 0.5174(2) 1.0508(4) 0.8221(1)
C8 C 0.3908(2) -0.0082(4) 0.8376(2)
C9 C 0.5202(2) 0.1914(4) 0.5695(2)
C10 C 0.4603(2) 0.1992(5) 0.5295(2)
C11 C 0.4620(2) 0.2621(5) 0.4688(2)
C12 C 0.5218(2) 0.3233(5) 0.4505(2)
C13 C 0.5796(2) 0.3168(4) 0.4925(1)
C14 C 0.6455(2) 0.3874(4) 0.4805(1)
C15 C 0.6590(2) 0.4650(5) 0.4238(2)
C16 C 0.7227(2) 0.5277(6) 0.4182(2)
C17 C 0.7711(2) 0.5164(5) 0.4687(2)
C18 C 0.7556(2) 0.4390(5) 0.5246(2)
C19 C 0.3117(2) 0.3909(6) 0.7887(2)
C20 C 0.2512(2) 0.4679(8) 0.8013(3)
C21 C 0.2417(2) 0.5071(7) 0.8625(4)
C22 C 0.2910(2) 0.4691(6) 0.9102(3)
C23 C 0.3497(2) 0.3891(5) 0.8952(2)
C24 C 0.4043(2) 0.3353(5) 0.9428(2)
C25 C 0.4074(3) 0.3644(6) 1.0081(2)
C26 C 0.4628(3) 0.3120(6) 1.0474(2)
C27 C 0.5148(3) 0.2310(6) 1.0221(2)
C28 C 0.5105(2) 0.2011(5) 0.9580(2)
H4 H 0.5191 0.1424 0.6133
H5 H 0.4172 0.1590 0.5443
H6 H 0.4205 0.2640 0.4384
H7 H 0.5238 0.3729 0.4066
H8 H 0.6226 0.4763 0.3871
H9 H 0.7328 0.5804 0.3769
H10 H 0.8173 0.5625 0.4648
H11 H 0.7918 0.4329 0.5612
H12 H 0.3186 0.3666 0.7434
H13 H 0.2146 0.4937 0.7661
H14 H 0.1983 0.5647 0.8715
H15 H 0.2839 0.4971 0.9548
H16 H 0.3693 0.4238 1.0267
H17 H 0.4656 0.3363 1.0938
H18 H 0.5558 0.1919 1.0508
H19 H 0.5493 0.1401 0.9407
C3_2 C 0.6408(1) 0.0608(4) 0.6628(1)
C4C C 0.7557(2) 0.2203(4) 0.6502(1)
C7_2 C 0.5174(2) 0.0508(4) 0.8221(1)
Fe1_2 Fe 0.66810(2) 1.22835(5) 0.60215(2)
Fe1C Fe 0.83190(2) 0.72835(5) 0.89785(2)
Fe2_2 Fe 0.44271(2) 1.20821(6) 0.82627(2)
C29 C 0.2938(3) 0.7579(6) 0.1830(2)
C30 C 0.3252(2) 0.7286(5) 0.1260(2)
N13 N 0.3487(2) 0.7071(7) 0.0811(2)
H1 H 0.3289 0.7888 0.2186
H2 H 0.2605 0.8571 0.1759
H3 H 0.2701 0.6451 0.1937
O2 O 0.3751(8) 0.678(2) 0.7218(6)
loop_
_geom_bond_atom_site_label_1
_geom_bond_atom_site_label_2
_geom_bond_site_symmetry_1
_geom_bond_site_symmetry_2
Mn1 O1 1_555 1_555
Fe1 N9 1_555 1_555
Fe2 N11 1_555 1_555
N1 Mn1 1_555 1_555
N2 Mn1 1_555 1_555
N3 Mn1 1_555 1_555
N4 Mn1 1_555 1_555
N5 C5 1_555 1_555
N6 C6 1_555 1_555
N7 Mn1 1_555 1_555
N8 C8 1_555 1_555
N9 C9 1_555 1_555
N10 Fe1 1_555 1_555
N11 C19 1_555 1_555
N12 Fe2 1_555 1_555
C1 Fe1 1_555 1_555
C2 Fe2 1_555 1_555
C3 N3 1_555 1_555
C4 N4 1_555 1_555
C5 Fe1 1_555 1_555
C6 Fe2 1_555 1_555
C7 N7 1_555 1_555
C8 Fe2 1_555 1_555
C9 C10 1_555 1_555
C10 C11 1_555 1_555
C11 C12 1_555 1_555
C12 C13 1_555 1_555
C13 N9 1_555 1_555
C14 N10 1_555 1_555
C15 C14 1_555 1_555
C16 C15 1_555 1_555
C17 C16 1_555 1_555
C18 N10 1_555 1_555
C19 C20 1_555 1_555
C20 C21 1_555 1_555
C21 C22 1_555 1_555
C22 C23 1_555 1_555
C23 N11 1_555 1_555
C24 N12 1_555 1_555
C25 C24 1_555 1_555
C26 C25 1_555 1_555
C27 C26 1_555 1_555
C28 N12 1_555 1_555
C29 C30 1_555 1_555
C30 N13 1_555 1_555
H1 C29 1_555 1_555
H2 C29 1_555 1_555
H3 C29 1_555 1_555
H4 C9 1_555 1_555
H5 C10 1_555 1_555
H6 C11 1_555 1_555
H7 C12 1_555 1_555
H8 C15 1_555 1_555
H9 C16 1_555 1_555
H10 C17 1_555 1_555
H11 C18 1_555 1_555
H12 C19 1_555 1_555
H13 C20 1_555 1_555
H14 C21 1_555 1_555
H15 C22 1_555 1_555
H16 C25 1_555 1_555
H17 C26 1_555 1_555
H18 C27 1_555 1_555
H19 C28 1_555 1_555
C3_2 Fe1 1_555 1_555
C4C Fe1 1_555 1_555
C7_2 Fe2 1_555 1_555
Fe1_2 C3 1_555 1_555
Fe1C C4 1_555 1_555
Fe2_2 C7 1_555 1_555
N1 C1 1_555 1_555
N2 C2 1_555 1_555
C13 C14 1_555 1_555
C17 C18 1_555 1_555
C23 C24 1_555 1_555
C27 C28 1_555 1_555

#END
