
#######################################################################
#
#                 Cambridge Crystallographic Data Centre
#                                CCDC 
#
#######################################################################
#
# If this CIF has been generated from an entry in the Cambridge 
# Structural Database, then it will include bibliographic, chemical, 
# crystal, experimental, refinement or atomic coordinate data resulting 
# from the CCDC's data processing and validation procedures.
#
#######################################################################

data_AJEMAF
_symmetry_cell_setting           monoclinic
_symmetry_space_group_name_H-M   'P 21/c'
_symmetry_Int_Tables_number      14
_space_group_name_Hall           '-P 2ybc'
loop_
_symmetry_equiv_pos_site_id
_symmetry_equiv_pos_as_xyz
1 x,y,z
2 -x,1/2+y,1/2-z
3 -x,-y,-z
4 x,1/2-y,1/2+z
_cell_length_a                   17.3046(5)
_cell_length_b                   16.2580(5)
_cell_length_c                   17.8466(5)
_cell_angle_alpha                90
_cell_angle_beta                 114.6990(10)
_cell_angle_gamma                90
_cell_volume                     4561.59
loop_
_atom_site_label
_atom_site_type_symbol
_atom_site_fract_x
_atom_site_fract_y
_atom_site_fract_z
Zn1 Zn 0.479592(15) 0.487106(15) 0.294471(15)
O1 O 0.53958(11) 0.39178(9) 0.35563(9)
O2 O 0.49075(9) 0.45338(9) 0.19073(8)
O3 O 0.35607(9) 0.48397(10) 0.25323(9)
O4 O 0.53106(9) 0.59486(9) 0.32079(8)
C1 C 0.52018(13) 0.38395(13) 0.18714(13)
C2 C 0.33757(13) 0.49131(12) 0.31452(13)
N1 N 0.52981(11) 0.35474(11) 0.12350(11)
H1 H 0.5365 0.3505 0.2335
O5 O 0.39291(9) 0.49754(10) 0.38634(9)
C3 C 0.24551(13) 0.49062(13) 0.29972(13)
C4 C 0.57242(16) 0.27612(15) 0.12927(15)
C5 C 0.50782(16) 0.40334(16) 0.04914(14)
Zn2 Zn 0.5000 0.5000 0.5000
C6 C 0.17898(12) 0.51840(12) 0.22420(13)
C7 C 0.22694(15) 0.4616(2) 0.36224(15)
H2 H 0.6299 0.2856 0.1366
H3 H 0.5428 0.2453 0.0795
H4 H 0.5726 0.2457 0.1754
H5 H 0.4807 0.4534 0.0538
H6 H 0.4697 0.3726 0.0024
H7 H 0.5585 0.4162 0.0421
O6 O 0.54851(8) 0.39082(8) 0.48463(8)
O7 O 0.42304(8) 0.43226(8) 0.54488(8)
C8 C 0.09302(13) 0.51025(13) 0.21418(14)
C9 C 0.19422(13) 0.55778(16) 0.16123(14)
C10 C 0.14292(17) 0.4544(3) 0.35242(18)
H8 H 0.2710 0.4465 0.4120
C11 C 0.42635(12) 0.38760(12) 0.60292(12)
C12 C 0.07747(15) 0.47817(19) 0.28025(17)
C13 C 0.02532(13) 0.53728(13) 0.13929(14)
C14 C 0.12868(16) 0.5873(2) 0.09256(17)
H9 H 0.2498 0.5637 0.1667
H10 H 0.1313 0.4334 0.3951
C15 C 0.37563(13) 0.30896(13) 0.58597(12)
H11 H 0.0217 0.4731 0.2745
C16 C 0.04381(15) 0.57589(17) 0.08103(16)
C17 C -0.06538(13) 0.52417(13) 0.12369(14)
H12 H 0.1401 0.6153 0.0529
C18 C 0.34618(12) 0.26614(12) 0.50859(12)
C19 C 0.35703(15) 0.27826(15) 0.64843(14)
H13 H -0.0002 0.5950 0.0330
C20 C -0.12052(13) 0.59078(13) 0.10760(14)
C21 C -0.09702(13) 0.44483(13) 0.12076(14)
C22 C 0.36819(13) 0.28896(13) 0.44344(13)
C23 C 0.29459(12) 0.19424(12) 0.49811(13)
C24 C 0.30942(16) 0.20620(16) 0.63850(15)
H14 H 0.3766 0.3061 0.6985
H15 H -0.1005 0.6437 0.1067
C25 C -0.20568(13) 0.57883(12) 0.09275(13)
C26 C -0.18248(12) 0.43111(13) 0.10261(13)
H16 H -0.0604 0.4002 0.1311
C27 C 0.34112(15) 0.24332(15) 0.37226(14)
H17 H 0.4014 0.3355 0.4489
C28 C 0.26418(12) 0.15052(12) 0.42158(13)
C29 C 0.27775(14) 0.16573(14) 0.56450(14)
H18 H 0.2993 0.1858 0.6823
C30 C -0.23570(13) 0.49944(12) 0.09137(13)
C31 C -0.21643(12) 0.34613(13) 0.09239(13)
C32 C 0.28849(14) 0.17432(14) 0.36084(14)
H19 H 0.3579 0.2583 0.3310
H20 H 0.2447 0.1189 0.5579
H21 H -0.2920 0.4914 0.0829
C33 C -0.17908(14) 0.28840(14) 0.15340(15)
C34 C -0.28812(12) 0.32312(12) 0.01808(12)
H22 H 0.2701 0.1446 0.3119
C35 C -0.21069(14) 0.20692(14) 0.14384(15)
H23 H -0.1325 0.3031 0.2015
C36 C -0.32537(13) 0.37783(12) -0.04944(13)
C37 C -0.32196(12) 0.24176(12) 0.01098(12)
C38 C -0.28064(13) 0.18440(12) 0.07554(13)
H24 H -0.1833 0.1683 0.1848
H25 H -0.3022 0.4300 -0.0463
C39 C -0.39439(14) 0.35554(13) -0.11885(13)
C40 C -0.39528(13) 0.22125(12) -0.06199(12)
H26 H -0.3016 0.1311 0.0711
C41 C -0.42972(14) 0.27705(13) -0.12483(13)
H27 H -0.4180 0.3925 -0.1623
C42 C -0.43853(12) 0.13899(12) -0.07335(12)
H28 H -0.4773 0.2626 -0.1721
O6B O 0.45149(8) 0.60918(8) 0.51537(8)
O5B O 0.60709(9) 0.50246(10) 0.61366(9)
O7B O 0.57696(8) 0.56774(8) 0.45512(8)
O4B O 0.46894(9) 0.40514(9) 0.67921(8)
Zn1B Zn 0.520408(15) 0.512894(15) 0.705529(15)
C28A C -0.26418(12) 0.65052(12) 0.07842(13)
C25A C 0.20568(13) 0.07883(12) 0.40725(13)
C32A C -0.28849(14) 0.67432(14) 0.13916(14)
C23A C -0.29459(12) 0.69424(12) 0.00189(13)
C30A C 0.23570(13) -0.00056(12) 0.40863(13)
C20A C 0.12052(13) 0.09078(13) 0.39240(14)
C27A C -0.34112(15) 0.74332(15) 0.12774(14)
H22A H -0.2701 0.6446 0.1881
C29A C -0.27775(14) 0.66573(14) -0.06450(14)
C18A C -0.34618(12) 0.76614(12) -0.00859(12)
C26A C 0.18248(12) -0.06889(13) 0.39739(13)
H21A H 0.2920 -0.0086 0.4171
H15A H 0.1005 0.1437 0.3933
C17A C 0.06538(13) 0.02417(13) 0.37631(14)
H19A H -0.3579 0.7583 0.1690
C22A C -0.36819(13) 0.78896(13) 0.05656(13)
C24A C -0.30942(16) 0.70620(16) -0.13850(15)
H20A H -0.2447 0.6189 -0.0579
C15A C -0.37563(13) 0.80896(13) -0.08597(12)
C31A C 0.21643(12) -0.15387(13) 0.40761(13)
C21A C 0.09702(13) -0.05517(13) 0.37924(14)
C13A C -0.02532(13) 0.03728(13) 0.36071(14)
H17A H -0.4014 0.8355 0.0511
H18A H -0.2993 0.6858 -0.1823
C19A C -0.35703(15) 0.77826(15) -0.14843(14)
C11A C -0.42635(12) 0.88760(12) -0.10292(12)
C34A C 0.28812(12) -0.17688(12) 0.48192(12)
C33A C 0.17908(14) -0.21160(14) 0.34660(15)
H16A H 0.0604 -0.0998 0.3689
C16A C -0.04381(15) 0.07589(17) 0.41897(16)
C8A C -0.09302(13) 0.01025(13) 0.28582(14)
H14A H -0.3766 0.8061 -0.1985
O4C O -0.46894(9) 0.90514(9) -0.17921(8)
O7A O -0.42304(8) 0.93226(8) -0.04488(8)
O1C O -0.46042(11) 0.10822(9) -0.14437(9)
O6C O -0.45149(8) 0.10918(8) -0.01537(8)
C36A C 0.32537(13) -0.12217(12) 0.54944(13)
C37A C 0.32196(12) -0.25824(12) 0.48902(12)
H23A H 0.1325 -0.1969 0.2985
C35A C 0.21069(14) -0.29308(14) 0.35616(15)
H13A H 0.0002 0.0950 0.4670
C14A C -0.12868(16) 0.0873(2) 0.40744(17)
C6A C -0.17898(12) 0.01840(12) 0.27580(13)
C12A C -0.07747(15) -0.02183(19) 0.21975(17)
Zn1C Zn -0.520408(15) 1.012894(15) -0.205529(15)
Zn2A Zn -0.5000 1.0000 0.0000
Zn1C_2 Zn -0.520408(15) 0.012894(15) -0.205529(15)
Zn2A_2 Zn -0.5000 0.0000 0.0000
C39A C 0.39439(14) -0.14446(13) 0.61885(13)
H25A H 0.3022 -0.0700 0.5463
C40A C 0.39528(13) -0.27875(12) 0.56199(12)
C38A C 0.28064(13) -0.31560(12) 0.42446(13)
H24A H 0.1833 -0.3317 0.3152
C9A C -0.19422(13) 0.05778(16) 0.33877(14)
H12A H -0.1401 0.1153 0.4471
C3A C -0.24551(13) -0.00938(13) 0.20028(13)
H11A H -0.0217 -0.0269 0.2255
C10A C -0.14292(17) -0.0456(3) 0.14758(18)
O3C O -0.64393(9) 0.01603(10) -0.24677(9)
O4C_2 O -0.46894(9) -0.09486(9) -0.17921(8)
O2C O -0.50925(9) 0.04662(9) -0.30927(8)
O5A O -0.39291(9) -0.00246(10) 0.11366(9)
C41A C 0.42972(14) -0.22295(13) 0.62483(13)
H27A H 0.4180 -0.1075 0.6623
C42A C 0.43853(12) -0.36101(12) 0.57335(12)
H26A H 0.3016 -0.3689 0.4289
H9A H -0.2498 0.0637 0.3333
C7A C -0.22694(15) -0.0384(2) 0.13776(15)
C2A C -0.33757(13) -0.00869(12) 0.18548(13)
H10A H -0.1313 -0.0666 0.1049
C1C C -0.47982(13) 0.11605(13) -0.31286(13)
H28A H 0.4773 -0.2374 0.6721
O6B_2 O 0.45149(8) -0.39082(8) 0.51537(8)
O1B O 0.46042(11) -0.39178(9) 0.64437(9)
H8A H -0.2710 -0.0535 0.0880
O3A O -0.35607(9) -0.01603(10) 0.24677(9)
N1C N -0.47019(11) 0.14526(11) -0.37650(11)
H1C H -0.4635 0.1495 -0.2665
Zn2_2 Zn 0.5000 -0.5000 0.5000
Zn1B_2 Zn 0.520408(15) -0.487106(15) 0.705529(15)
Zn1A Zn -0.479592(15) -0.012894(15) 0.205529(15)
C4C C -0.42758(16) 0.22388(15) -0.37073(15)
C5C C -0.49218(16) 0.09666(16) -0.45086(14)
H3C H -0.4572 0.2547 -0.4205
H2C H -0.3701 0.2144 -0.3634
H4C H -0.4274 0.2543 -0.3246
H6C H -0.5303 0.1274 -0.4976
H7C H -0.4415 0.0838 -0.4579
H5C H -0.5193 0.0466 -0.4462
loop_
_geom_bond_atom_site_label_1
_geom_bond_atom_site_label_2
_geom_bond_site_symmetry_1
_geom_bond_site_symmetry_2
Zn1 O1 1_555 1_555
O2 Zn1 1_555 1_555
O3 Zn1 1_555 1_555
O4 Zn1 1_555 1_555
C1 O2 1_555 1_555
C2 O3 1_555 1_555
N1 C1 1_555 1_555
H1 C1 1_555 1_555
O5 C2 1_555 1_555
C3 C2 1_555 1_555
C4 N1 1_555 1_555
C5 N1 1_555 1_555
Zn2 O5 1_555 1_555
C6 C3 1_555 1_555
C7 C3 1_555 1_555
H2 C4 1_555 1_555
H3 C4 1_555 1_555
H4 C4 1_555 1_555
H5 C5 1_555 1_555
H6 C5 1_555 1_555
H7 C5 1_555 1_555
O6 Zn2 1_555 1_555
O7 Zn2 1_555 1_555
C8 C6 1_555 1_555
C9 C6 1_555 1_555
C10 C7 1_555 1_555
H8 C7 1_555 1_555
C11 O7 1_555 1_555
C12 C8 1_555 1_555
C13 C8 1_555 1_555
C14 C9 1_555 1_555
H9 C9 1_555 1_555
H10 C10 1_555 1_555
C15 C11 1_555 1_555
H11 C12 1_555 1_555
C16 C13 1_555 1_555
C17 C13 1_555 1_555
H12 C14 1_555 1_555
C18 C15 1_555 1_555
C19 C15 1_555 1_555
H13 C16 1_555 1_555
C20 C17 1_555 1_555
C21 C17 1_555 1_555
C22 C18 1_555 1_555
C23 C18 1_555 1_555
C24 C19 1_555 1_555
H14 C19 1_555 1_555
H15 C20 1_555 1_555
C25 C20 1_555 1_555
C26 C21 1_555 1_555
H16 C21 1_555 1_555
C27 C22 1_555 1_555
H17 C22 1_555 1_555
C28 C23 1_555 1_555
C29 C23 1_555 1_555
H18 C24 1_555 1_555
C30 C25 1_555 1_555
C31 C26 1_555 1_555
C32 C27 1_555 1_555
H19 C27 1_555 1_555
H20 C29 1_555 1_555
H21 C30 1_555 1_555
C33 C31 1_555 1_555
C34 C31 1_555 1_555
H22 C32 1_555 1_555
C35 C33 1_555 1_555
H23 C33 1_555 1_555
C36 C34 1_555 1_555
C37 C34 1_555 1_555
C38 C35 1_555 1_555
H24 C35 1_555 1_555
H25 C36 1_555 1_555
C39 C36 1_555 1_555
C40 C37 1_555 1_555
H26 C38 1_555 1_555
C41 C39 1_555 1_555
H27 C39 1_555 1_555
C42 C40 1_555 1_555
H28 C41 1_555 1_555
O6B Zn2 1_555 1_555
O5B Zn2 1_555 1_555
O7B Zn2 1_555 1_555
O4B C11 1_555 1_555
Zn1B O4B 1_555 1_555
C28A C25 1_555 1_555
C25A C28 1_555 1_555
C32A C28A 1_555 1_555
C23A C28A 1_555 1_555
C30A C25A 1_555 1_555
C20A C25A 1_555 1_555
C27A C32A 1_555 1_555
H22A C32A 1_555 1_555
C29A C23A 1_555 1_555
C18A C23A 1_555 1_555
C26A C30A 1_555 1_555
H21A C30A 1_555 1_555
H15A C20A 1_555 1_555
C17A C20A 1_555 1_555
H19A C27A 1_555 1_555
C22A C27A 1_555 1_555
C24A C29A 1_555 1_555
H20A C29A 1_555 1_555
C15A C18A 1_555 1_555
C31A C26A 1_555 1_555
C21A C26A 1_555 1_555
C13A C17A 1_555 1_555
H17A C22A 1_555 1_555
H18A C24A 1_555 1_555
C19A C24A 1_555 1_555
C11A C15A 1_555 1_555
C34A C31A 1_555 1_555
C33A C31A 1_555 1_555
H16A C21A 1_555 1_555
C16A C13A 1_555 1_555
C8A C13A 1_555 1_555
H14A C19A 1_555 1_555
O4C C11A 1_555 1_555
O7A C11A 1_555 1_555
O1C C42 1_555 1_555
O6C C42 1_555 1_555
C36A C34A 1_555 1_555
C37A C34A 1_555 1_555
H23A C33A 1_555 1_555
C35A C33A 1_555 1_555
H13A C16A 1_555 1_555
C14A C16A 1_555 1_555
C6A C8A 1_555 1_555
C12A C8A 1_555 1_555
Zn1C O4C 1_555 1_555
Zn2A O7A 1_555 1_555
Zn1C_2 O1C 1_555 1_555
Zn2A_2 O6C 1_555 1_555
C39A C36A 1_555 1_555
H25A C36A 1_555 1_555
C40A C37A 1_555 1_555
C38A C37A 1_555 1_555
H24A C35A 1_555 1_555
C9A C14A 1_555 1_555
H12A C14A 1_555 1_555
C3A C6A 1_555 1_555
H11A C12A 1_555 1_555
C10A C12A 1_555 1_555
O3C Zn1C_2 1_555 1_555
O4C_2 Zn1C_2 1_555 1_555
O2C Zn1C_2 1_555 1_555
O5A Zn2A_2 1_555 1_555
C41A C39A 1_555 1_555
H27A C39A 1_555 1_555
C42A C40A 1_555 1_555
H26A C38A 1_555 1_555
H9A C9A 1_555 1_555
C7A C3A 1_555 1_555
C2A C3A 1_555 1_555
H10A C10A 1_555 1_555
C1C O2C 1_555 1_555
H28A C41A 1_555 1_555
O6B_2 C42A 1_555 1_555
O1B C42A 1_555 1_555
H8A C7A 1_555 1_555
O3A C2A 1_555 1_555
N1C C1C 1_555 1_555
H1C C1C 1_555 1_555
Zn2_2 O6B_2 1_555 1_555
Zn1B_2 O1B 1_555 1_555
Zn1A O3A 1_555 1_555
C4C N1C 1_555 1_555
C5C N1C 1_555 1_555
H3C C4C 1_555 1_555
H2C C4C 1_555 1_555
H4C C4C 1_555 1_555
H6C C5C 1_555 1_555
H7C C5C 1_555 1_555
H5C C5C 1_555 1_555
C10 C12 1_555 1_555
C14 C16 1_555 1_555
C24 C29 1_555 1_555
C26 C30 1_555 1_555
C28 C32 1_555 1_555
C37 C38 1_555 1_555
C40 C41 1_555 1_555
C18A C22A 1_555 1_555
C17A C21A 1_555 1_555
C15A C19A 1_555 1_555
C35A C38A 1_555 1_555
C6A C9A 1_555 1_555
C40A C41A 1_555 1_555
C10A C7A 1_555 1_555
O5A C2A 1_555 1_555

#END
