
#######################################################################
#
#                 Cambridge Crystallographic Data Centre
#                                CCDC 
#
#######################################################################
#
# If this CIF has been generated from an entry in the Cambridge 
# Structural Database, then it will include bibliographic, chemical, 
# crystal, experimental, refinement or atomic coordinate data resulting 
# from the CCDC's data processing and validation procedures.
#
#######################################################################

data_AJIGIK
_symmetry_cell_setting           monoclinic
_symmetry_space_group_name_H-M   'P 21/c'
_symmetry_Int_Tables_number      14
_space_group_name_Hall           '-P 2ybc'
loop_
_symmetry_equiv_pos_site_id
_symmetry_equiv_pos_as_xyz
1 x,y,z
2 -x,1/2+y,1/2-z
3 -x,-y,-z
4 x,1/2-y,1/2+z
_cell_length_a                   6.3670(1)
_cell_length_b                   7.3116(1)
_cell_length_c                   11.9910(1)
_cell_angle_alpha                90
_cell_angle_beta                 101.438(1)
_cell_angle_gamma                90
_cell_volume                     547.13
loop_
_atom_site_label
_atom_site_type_symbol
_atom_site_fract_x
_atom_site_fract_y
_atom_site_fract_z
C1 C 0.3930(2) 0.34321(18) 0.39316(11)
C2 C 0.2110(2) 0.32565(19) 0.45839(13)
H1 H 0.2484 0.3936 0.5290
H2 H 0.0826 0.3804 0.4137
C3 C 0.0594(2) 0.1341(2) 0.58516(12)
H3 H -0.0658 0.2127 0.5701
H4 H 0.1581 0.1831 0.6505
C4 C 0.0075(2) 0.0568(2) 0.38757(12)
H5 H 0.0714 0.0528 0.3206
H6 H -0.1179 0.1350 0.3709
H7 H 0.547(3) 0.101(3) 0.7111(15)
H8 H 0.607(3) 0.255(2) 0.6608(17)
N1 N 0.16401(17) 0.13433(15) 0.48462(10)
O1 O 0.3977(2) 0.48174(13) 0.33348(10)
O2 O 0.53370(15) 0.22018(14) 0.40554(9)
O3 O 0.59517(17) 0.14245(15) 0.65815(9)
Zn1 Zn 0.5000 0.0000 0.5000
C1B C -0.3930(2) -0.34321(18) 0.60684(11)
C2B C -0.2110(2) -0.32565(19) 0.54161(13)
H1B H -0.2484 -0.3936 0.4710
H2B H -0.0826 -0.3804 0.5863
C3B C -0.0594(2) -0.1341(2) 0.41484(12)
H3B H 0.0658 -0.2127 0.4299
H4B H -0.1581 -0.1831 0.3495
C4B C -0.0075(2) -0.0568(2) 0.61243(12)
H5B H -0.0714 -0.0528 0.6794
H6B H 0.1179 -0.1350 0.6291
H7B H 0.453(3) -0.101(3) 0.2889(15)
H8B H 0.393(3) -0.255(2) 0.3392(17)
N1B N -0.16401(17) -0.13433(15) 0.51538(10)
N1B_2 N 0.83599(17) -0.13433(15) 0.51538(10)
O1B O -0.3977(2) -0.48174(13) 0.66652(10)
O2B O -0.53370(15) -0.22018(14) 0.59446(9)
O2B_2 O 0.46630(15) -0.22018(14) 0.59446(9)
O3B O 0.40483(17) -0.14245(15) 0.34185(9)
Zn1_2 Zn -0.5000 0.0000 0.5000
loop_
_geom_bond_atom_site_label_1
_geom_bond_atom_site_label_2
_geom_bond_site_symmetry_1
_geom_bond_site_symmetry_2
C1 C2 1_555 1_555
C2 H1 1_555 1_555
H2 C2 1_555 1_555
C3 H3 1_555 1_555
H4 C3 1_555 1_555
C4 H5 1_555 1_555
H6 C4 1_555 1_555
H7 O3 1_555 1_555
H8 O3 1_555 1_555
N1 C2 1_555 1_555
O1 C1 1_555 1_555
O2 C1 1_555 1_555
O3 Zn1 1_555 1_555
Zn1 N1 1_555 1_555
C1B C2B 1_555 1_555
C2B H1B 1_555 1_555
H2B C2B 1_555 1_555
C3B C4 1_555 1_555
H3B C3B 1_555 1_555
H4B C3B 1_555 1_555
C4B C3 1_555 1_555
H5B C4B 1_555 1_555
H6B C4B 1_555 1_555
H7B O3B 1_555 1_555
H8B O3B 1_555 1_555
N1B C2B 1_555 1_555
N1B_2 Zn1 1_555 1_555
O1B C1B 1_555 1_555
O2B C1B 1_555 1_555
O2B_2 Zn1 1_555 1_555
O3B Zn1 1_555 1_555
Zn1_2 N1B 1_555 1_555
C3 N1 1_555 1_555
C4 N1 1_555 1_555
O2 Zn1 1_555 1_555
C3B N1B 1_555 1_555
C4B N1B 1_555 1_555
O2B Zn1_2 1_555 1_555

#END
