
#######################################################################
#
#                 Cambridge Crystallographic Data Centre
#                                CCDC 
#
#######################################################################
#
# If this CIF has been generated from an entry in the Cambridge 
# Structural Database, then it will include bibliographic, chemical, 
# crystal, experimental, refinement or atomic coordinate data resulting 
# from the CCDC's data processing and validation procedures.
#
#######################################################################

data_AJIGAD
_symmetry_cell_setting           triclinic
_symmetry_space_group_name_H-M   'P -1'
_symmetry_Int_Tables_number      2
_space_group_name_Hall           '-P 1'
loop_
_symmetry_equiv_pos_site_id
_symmetry_equiv_pos_as_xyz
1 x,y,z
2 -x,-y,-z
_cell_length_a                   7.3729(3)
_cell_length_b                   8.6105(5)
_cell_length_c                   12.5826(8)
_cell_angle_alpha                92.089(5)
_cell_angle_beta                 103.493(5)
_cell_angle_gamma                97.741(4)
_cell_volume                     767.759
loop_
_atom_site_label
_atom_site_type_symbol
_atom_site_fract_x
_atom_site_fract_y
_atom_site_fract_z
C1 C 0.5458(6) 0.7144(5) -0.0501(4)
C2 C 0.4133(6) 0.7519(6) 0.0187(4)
H1 H 0.3850 0.6610 0.0586
H2 H 0.4769 0.8377 0.0722
C3 C 0.0879(6) 0.7010(5) -0.1029(3)
C4 C 0.0496(7) 0.9379(5) -0.1240(4)
H3 H -0.0053 1.0253 -0.1484
C5 C -0.3713(7) 1.4142(5) -0.3192(4)
C6 C -0.4795(8) 1.2893(5) -0.4085(4)
H4 H -0.6121 1.2760 -0.4082
H5 H -0.4676 1.3244 -0.4793
C7 C -0.4552(6) 1.0266(5) -0.3300(3)
C8 C -0.2212(7) 0.9790(6) -0.3893(4)
H6 H -0.1226 0.9292 -0.4013
N1 N 0.2371(5) 0.7951(4) -0.0430(3)
N2 N 0.2157(6) 0.9496(5) -0.0574(4)
N3 N -0.0375(5) 0.7885(4) -0.1552(3)
N4 N -0.4115(6) 1.1395(4) -0.3937(3)
N5 N -0.2570(6) 1.1117(5) -0.4308(3)
N6 N -0.3376(5) 0.9198(4) -0.3281(3)
O1 O 0.5071(4) 0.7516(4) -0.1491(2)
O2 O 0.6831(5) 0.6547(4) -0.0062(3)
O3 O 0.0706(6) 0.5440(5) -0.1093(4)
H7 H -0.0335 0.5072 -0.1476
O4 O -0.4042(5) 1.5526(3) -0.3399(3)
O5 O -0.2669(6) 1.3761(4) -0.2369(3)
O6 O -0.5997(6) 1.0181(5) -0.2819(4)
H8 H -0.5954 0.9452 -0.2417
Zn1 Zn -0.30669(6) 0.73213(5) -0.23536(4)
O1_2 O -0.4929(4) 0.7516(4) -0.1491(2)
O4_2 O -0.4042(5) 0.5526(3) -0.3399(3)
Zn1_2 Zn -0.30669(6) 1.73213(5) -0.23536(4)
Zn1_3 Zn 0.69331(6) 0.73213(5) -0.23536(4)
O7 O 0.8021(11) -0.2680(7) 0.2440(6)
H9 H 0.8409 -0.2971 0.3082
H10 H 0.7017 -0.3278 0.2113
O8 O 0.020(3) 0.554(3) 0.5404(18)
O9? O -0.033(3) 0.691(2) 0.4859(16)
loop_
_geom_bond_atom_site_label_1
_geom_bond_atom_site_label_2
_geom_bond_site_symmetry_1
_geom_bond_site_symmetry_2
C1 C2 1_555 1_555
C2 H1 1_555 1_555
H2 C2 1_555 1_555
C3 N1 1_555 1_555
C4 H3 1_555 1_555
C5 C6 1_555 1_555
C6 H4 1_555 1_555
H5 C6 1_555 1_555
C7 N4 1_555 1_555
C8 H6 1_555 1_555
N1 C2 1_555 1_555
N2 C4 1_555 1_555
N3 C3 1_555 1_555
N4 C6 1_555 1_555
N5 C8 1_555 1_555
N6 C7 1_555 1_555
O1 C1 1_555 1_555
O2 C1 1_555 1_555
O3 C3 1_555 1_555
H7 O3 1_555 1_555
O4 C5 1_555 1_555
O5 C5 1_555 1_555
O6 C7 1_555 1_555
H8 O6 1_555 1_555
Zn1 N3 1_555 1_555
O7 H9 1_555 1_555
H10 O7 1_555 1_555
O1_2 Zn1 1_555 1_555
O4_2 Zn1 1_555 1_555
Zn1_2 O4 1_555 1_555
Zn1_3 O1 1_555 1_555
C4 N3 1_555 1_555
C8 N6 1_555 1_555
N1 N2 1_555 1_555
N4 N5 1_555 1_555
N6 Zn1 1_555 1_555

#END
