
#######################################################################
#
#                 Cambridge Crystallographic Data Centre
#                                CCDC 
#
#######################################################################
#
# If this CIF has been generated from an entry in the Cambridge 
# Structural Database, then it will include bibliographic, chemical, 
# crystal, experimental, refinement or atomic coordinate data resulting 
# from the CCDC's data processing and validation procedures.
#
#######################################################################

data_AJINUE
_symmetry_cell_setting           monoclinic
_symmetry_space_group_name_H-M   'C 2/c'
_symmetry_Int_Tables_number      15
_space_group_name_Hall           '-C 2yn'
loop_
_symmetry_equiv_pos_site_id
_symmetry_equiv_pos_as_xyz
1 x,y,z
2 -x,y,1/2-z
3 1/2+x,1/2+y,z
4 1/2-x,1/2+y,1/2-z
5 -x,-y,-z
6 x,-y,1/2+z
7 1/2-x,1/2-y,-z
8 1/2+x,1/2-y,1/2+z
_cell_length_a                   16.3231(5)
_cell_length_b                   15.4929(5)
_cell_length_c                   35.311(3)
_cell_angle_alpha                90
_cell_angle_beta                 100.73
_cell_angle_gamma                90
_cell_volume                     8773.74
loop_
_atom_site_label
_atom_site_type_symbol
_atom_site_fract_x
_atom_site_fract_y
_atom_site_fract_z
Ag1 Ag 0.59719(4) 0.45442(4) 0.646607(16)
Ag2 Ag 0.65034(4) 0.24936(4) 0.601478(17)
Ag3 Ag 0.42113(4) 0.49987(4) 0.647284(17)
Ag4 Ag 0.32448(4) 0.69942(4) 0.603824(18)
Cl1 Cl 0.28960(15) 0.35073(17) 0.56054(7)
Cl2 Cl 0.57086(15) 0.63809(17) 0.52113(7)
Cl3 Cl 0.17054(17) 0.61340(16) 0.72157(8)
N1 N 0.5956(4) 0.4978(4) 0.78820(17)
O1 O 0.5774(4) 0.5685(4) 0.60308(16)
O2 O 0.4642(3) 0.6210(4) 0.62160(16)
N2 N 0.6354(4) 0.2652(4) 0.53586(18)
C1 C 0.1862(5) 0.5104(5) 0.7046(2)
N3 N 0.6123(4) 0.4769(4) 0.71154(17)
C2 C 0.1939(6) 0.3597(6) 0.7173(3)
H1 H 0.1897 0.3121 0.7338
O3 O 0.5311(3) 0.3334(4) 0.61508(17)
N4 N 0.6558(4) 0.2900(4) 0.45995(17)
C3 C 0.3403(5) 0.2514(6) 0.5668(2)
C4 C 0.3016(6) 0.1819(7) 0.5454(2)
H2 H 0.2490 0.1890 0.5289
C5 C 0.2220(5) 0.4139(6) 0.6578(3)
H3 H 0.2382 0.4034 0.6338
C6 C 0.4553(5) 0.1626(6) 0.5942(3)
H4 H 0.5082 0.1553 0.6104
O4 O 0.4128(3) 0.3545(4) 0.63673(17)
C7 C 0.3408(6) 0.1029(6) 0.5487(3)
H5 H 0.3156 0.0552 0.5341
C8 C 0.4561(4) 0.3178(5) 0.6164(2)
O5 O 0.1557(4) 0.6243(5) 0.6346(2)
O6 O 0.2797(4) 0.5765(4) 0.62807(17)
C9 C 0.6299(7) 0.4209(6) 0.5469(3)
H6 H 0.6182 0.3997 0.5715
H7 H 0.5842 0.4584 0.5346
H8 H 0.6821 0.4536 0.5515
C10 C 0.6059(5) 0.5663(5) 0.7661(2)
C11 C 0.6067(6) 0.6541(5) 0.7845(2)
H9 H 0.5811 0.6504 0.8075
H10 H 0.5751 0.6948 0.7661
H11 H 0.6644 0.6742 0.7920
C12 C 0.2072(5) 0.4990(5) 0.6685(2)
C13 C 0.2133(6) 0.3463(6) 0.6814(3)
H12 H 0.2208 0.2890 0.6730
C14 C 0.6478(6) 0.4465(6) 0.4654(2)
H13 H 0.6620 0.4421 0.4397
H14 H 0.6890 0.4827 0.4818
H15 H 0.5923 0.4723 0.4633
C15 C 0.2139(5) 0.5731(5) 0.6410(2)
C16 C 0.6065(5) 0.4082(5) 0.7343(2)
C17 C 0.5978(5) 0.4199(5) 0.7721(2)
H16 H 0.5933 0.3703 0.7873
C18 C 0.4168(5) 0.2430(5) 0.5916(2)
C19 C 0.6478(5) 0.3581(5) 0.4827(2)
C20 C 0.1807(5) 0.4430(6) 0.7292(2)
H17 H 0.1681 0.4533 0.7540
C21 C 0.6050(7) 0.3204(6) 0.7163(3)
H18 H 0.5602 0.3179 0.6936
H19 H 0.5952 0.2767 0.7350
H20 H 0.6586 0.3093 0.7085
C22 C 0.5253(5) 0.7872(6) 0.6084(3)
H21 H 0.5097 0.7809 0.6329
C23 C 0.5251(5) 0.6258(5) 0.6050(2)
C24 C 0.5691(6) 0.8080(7) 0.5369(3)
H22 H 0.5821 0.8153 0.5120
C25 C 0.5597(5) 0.7241(6) 0.5514(3)
C26 C 0.5357(4) 0.7121(5) 0.5866(2)
C27 C 0.6377(5) 0.3447(5) 0.5206(2)
C28 C 0.4171(6) 0.0929(6) 0.5733(3)
H23 H 0.4434 0.0379 0.5758
C29 C 0.6499(5) 0.2105(5) 0.4745(2)
H24 H 0.6532 0.1614 0.4588
C30 C 0.5373(6) 0.8687(6) 0.5949(3)
H25 H 0.5306 0.9181 0.6100
C31 C 0.5593(6) 0.8778(6) 0.5587(4)
H26 H 0.5677 0.9339 0.5493
C32 C 0.6155(5) 0.5554(5) 0.7276(2)
C33 C 0.6305(6) 0.1084(6) 0.5282(3)
H27 H 0.6707 0.1012 0.5523
H28 H 0.6415 0.0655 0.5094
H29 H 0.5738 0.1005 0.5331
C34 C 0.6390(5) 0.1990(5) 0.5123(2)
C35 C 0.6277(6) 0.6314(6) 0.7024(2)
H30 H 0.6479 0.6109 0.6796
H31 H 0.6686 0.6712 0.7169
H32 H 0.5745 0.6615 0.6944
Cl4 Cl 0.95540(19) 0.3842(3) 0.69561(8)
O7 O 0.7187(3) 0.3654(4) 0.63837(18)
C36 C 0.7916(5) 0.3841(6) 0.6359(2)
C37 C 0.8251(5) 0.4692(6) 0.6517(2)
C38 C 0.8152(9) 0.6241(7) 0.6525(4)
H33 H 0.7861 0.6753 0.6434
C39 C 0.8997(6) 0.4770(8) 0.6775(3)
C40 C 0.7824(7) 0.5457(7) 0.6393(3)
H34 H 0.7308 0.5434 0.6216
C41 C 0.9312(9) 0.5559(11) 0.6909(4)
H35 H 0.9825 0.5592 0.7087
C42 C 0.8879(11) 0.6307(10) 0.6783(4)
H36 H 0.9086 0.6856 0.6875
O8 O 0.8362(4) 0.3421(4) 0.6174(2)
Ag2B Ag 0.15034(4) 0.74936(4) 0.601478(17)
Ag3A Ag 0.57887(4) 0.49987(4) 0.852716(17)
Ag4B Ag 0.82448(4) 0.19942(4) 0.603824(18)
Ag4D Ag 0.67552(4) 0.30058(4) 0.396176(18)
N1A N 0.4044(4) 0.4978(4) 0.71180(17)
N4D N 0.3442(4) 0.7100(4) 0.54005(17)
O5B O 0.6557(4) 0.1243(5) 0.6346(2)
O8B O 0.3362(4) 0.8421(4) 0.6174(2)
loop_
_geom_bond_atom_site_label_1
_geom_bond_atom_site_label_2
_geom_bond_site_symmetry_1
_geom_bond_site_symmetry_2
Ag1 Ag3 1_555 1_555
Ag2 N2 1_555 1_555
Ag3 O2 1_555 1_555
Ag4 O2 1_555 1_555
Cl1 C3 1_555 1_555
Cl2 C25 1_555 1_555
Cl3 C1 1_555 1_555
N1 C10 1_555 1_555
O1 Ag1 1_555 1_555
O2 C23 1_555 1_555
N2 C27 1_555 1_555
C1 C12 1_555 1_555
N3 Ag1 1_555 1_555
C2 H1 1_555 1_555
O3 Ag1 1_555 1_555
N4 C19 1_555 1_555
C3 C4 1_555 1_555
C4 H2 1_555 1_555
C5 H3 1_555 1_555
C6 H4 1_555 1_555
O4 Ag3 1_555 1_555
C7 C4 1_555 1_555
H5 C7 1_555 1_555
C8 O3 1_555 1_555
O5 C15 1_555 1_555
O6 Ag3 1_555 1_555
C9 H6 1_555 1_555
H7 C9 1_555 1_555
H8 C9 1_555 1_555
C10 C11 1_555 1_555
C11 H9 1_555 1_555
H10 C11 1_555 1_555
H11 C11 1_555 1_555
C12 C5 1_555 1_555
C13 C2 1_555 1_555
H12 C13 1_555 1_555
C14 H13 1_555 1_555
H14 C14 1_555 1_555
H15 C14 1_555 1_555
C15 O6 1_555 1_555
C16 N3 1_555 1_555
C17 N1 1_555 1_555
H16 C17 1_555 1_555
C18 C3 1_555 1_555
C19 C14 1_555 1_555
C20 C1 1_555 1_555
H17 C20 1_555 1_555
C21 C16 1_555 1_555
H18 C21 1_555 1_555
H19 C21 1_555 1_555
H20 C21 1_555 1_555
C22 H21 1_555 1_555
C23 O1 1_555 1_555
C24 H22 1_555 1_555
C25 C24 1_555 1_555
C26 C22 1_555 1_555
C27 C9 1_555 1_555
C28 C6 1_555 1_555
H23 C28 1_555 1_555
C29 N4 1_555 1_555
H24 C29 1_555 1_555
C30 C22 1_555 1_555
H25 C30 1_555 1_555
C31 C24 1_555 1_555
H26 C31 1_555 1_555
C32 N3 1_555 1_555
C33 H27 1_555 1_555
H28 C33 1_555 1_555
H29 C33 1_555 1_555
C34 N2 1_555 1_555
C35 C32 1_555 1_555
H30 C35 1_555 1_555
H31 C35 1_555 1_555
H32 C35 1_555 1_555
Cl4 C39 1_555 1_555
O7 Ag1 1_555 1_555
C36 O7 1_555 1_555
C37 C36 1_555 1_555
C38 H33 1_555 1_555
C39 C37 1_555 1_555
C40 C37 1_555 1_555
H34 C40 1_555 1_555
C41 C39 1_555 1_555
H35 C41 1_555 1_555
C42 C38 1_555 1_555
H36 C42 1_555 1_555
O8 C36 1_555 1_555
Ag2B Ag4 1_555 1_555
Ag3A N1 1_555 1_555
Ag4B Ag2 1_555 1_555
Ag4D N4 1_555 1_555
N1A Ag3 1_555 1_555
N4D Ag4 1_555 1_555
O5B Ag2 1_555 1_555
O8B Ag4 1_555 1_555
Ag2 O3 1_555 1_555
Ag2 O7 1_555 1_555
Ag4 O6 1_555 1_555
C2 C20 1_555 1_555
C5 C13 1_555 1_555
C6 C18 1_555 1_555
O4 C8 1_555 1_555
C7 C28 1_555 1_555
C8 C18 1_555 1_555
O5 Ag2B 1_555 1_555
C10 C32 1_555 1_555
C12 C15 1_555 1_555
C16 C17 1_555 1_555
C19 C27 1_555 1_555
C23 C26 1_555 1_555
C25 C26 1_555 1_555
C29 C34 1_555 1_555
C30 C31 1_555 1_555
C33 C34 1_555 1_555
C38 C40 1_555 1_555
C41 C42 1_555 1_555
O8 Ag4B 1_555 1_555

#END
