
#######################################################################
#
#                 Cambridge Crystallographic Data Centre
#                                CCDC 
#
#######################################################################
#
# If this CIF has been generated from an entry in the Cambridge 
# Structural Database, then it will include bibliographic, chemical, 
# crystal, experimental, refinement or atomic coordinate data resulting 
# from the CCDC's data processing and validation procedures.
#
#######################################################################

data_AJIPUF
_symmetry_cell_setting           orthorhombic
_symmetry_space_group_name_H-M   'P b c n'
_symmetry_Int_Tables_number      60
_space_group_name_Hall           '-P 2n 2ab'
loop_
_symmetry_equiv_pos_site_id
_symmetry_equiv_pos_as_xyz
1 x,y,z
2 1/2-x,1/2-y,1/2+z
3 -x,y,1/2-z
4 1/2+x,1/2-y,-z
5 -x,-y,-z
6 1/2+x,1/2+y,1/2-z
7 x,-y,1/2+z
8 1/2-x,1/2+y,z
_cell_length_a                   17.719(6)
_cell_length_b                   8.159(3)
_cell_length_c                   7.326(2)
_cell_angle_alpha                90
_cell_angle_beta                 90
_cell_angle_gamma                90
_cell_volume                     1059.11
loop_
_atom_site_label
_atom_site_type_symbol
_atom_site_fract_x
_atom_site_fract_y
_atom_site_fract_z
Ag1 Ag 0.68299(3) 0.14887(6) 0.20060(7)
C1 C 0.5000 0.1063(9) 0.2500
C2 C 0.5638(4) -0.1372(7) 0.2077(9)
H1 H 0.6075 -0.1940 0.1773
C3 C 0.5000 -0.2253(11) 0.2500
H2 H 0.5000 -0.3393 0.2500
C4 C 0.8316(3) 0.0180(6) -0.0363(7)
N1 N 0.5000 0.2711(8) 0.2500
H3 H 0.4593 0.3238 0.2758
N2 N 0.5657(2) 0.0277(6) 0.2083(6)
N3 N 0.8825(3) -0.0526(7) 0.0194(7)
S1 S 0.75465(8) 0.12005(16) -0.11137(18)
Ag1B Ag 0.31701(3) 0.14887(6) 0.29940(7)
Ag1A Ag 0.81701(3) 0.35113(6) -0.29940(7)
Ag1F Ag 0.68299(3) -0.14887(6) -0.29940(7)
Ag1A_2 Ag 0.81701(3) 0.35113(6) 0.70060(7)
Ag1G Ag 0.81701(3) 0.64887(6) 0.20060(7)
C2B C 0.4362(4) -0.1372(7) 0.2923(9)
H1B H 0.3925 -0.1940 0.3227
C4A C 0.6684(3) 0.4820(6) 0.4637(7)
H3B H 0.5407 0.3238 0.2242
N2B N 0.4343(2) 0.0277(6) 0.2917(6)
N3A N 0.6175(3) 0.5526(7) 0.5194(7)
S1A S 0.74535(8) 0.37995(16) 0.38863(18)
S1F S 0.75465(8) -0.12005(16) 0.38863(18)
S1B S 0.24535(8) 0.12005(16) 0.61137(18)
S1C S 0.25465(8) 0.37995(16) 0.11137(18)
S1D S 0.24535(8) -0.12005(16) 0.11137(18)
loop_
_geom_bond_atom_site_label_1
_geom_bond_atom_site_label_2
_geom_bond_site_symmetry_1
_geom_bond_site_symmetry_2
Ag1 N2 1_555 1_555
C1 N1 1_555 1_555
C2 H1 1_555 1_555
C3 C2 1_555 1_555
H2 C3 1_555 1_555
C4 N3 1_555 1_555
N1 H3 1_555 1_555
N2 C1 1_555 1_555
S1 Ag1 1_555 1_555
Ag1B N2B 1_555 1_555
Ag1A S1 1_555 1_555
Ag1F S1 1_555 1_555
Ag1A_2 S1A 1_555 1_555
Ag1G S1A 1_555 1_555
C2B C3 1_555 1_555
H1B C2B 1_555 1_555
C4A N3A 1_555 1_555
H3B N1 1_555 1_555
N2B C1 1_555 1_555
S1A Ag1 1_555 1_555
S1F Ag1 1_555 1_555
S1B Ag1B 1_555 1_555
S1C Ag1B 1_555 1_555
S1D Ag1B 1_555 1_555
C2 N2 1_555 1_555
C4 S1 1_555 1_555
C2B N2B 1_555 1_555
C4A S1A 1_555 1_555

#END
