
#######################################################################
#
#                 Cambridge Crystallographic Data Centre
#                                CCDC 
#
#######################################################################
#
# If this CIF has been generated from an entry in the Cambridge 
# Structural Database, then it will include bibliographic, chemical, 
# crystal, experimental, refinement or atomic coordinate data resulting 
# from the CCDC's data processing and validation procedures.
#
#######################################################################

data_AJIQUF
_symmetry_cell_setting           orthorhombic
_symmetry_space_group_name_H-M   'C 2 2 21'
_symmetry_Int_Tables_number      20
_space_group_name_Hall           'C 2n 2'
loop_
_symmetry_equiv_pos_site_id
_symmetry_equiv_pos_as_xyz
1 x,y,z
2 -x,-y,1/2+z
3 -x,y,1/2-z
4 x,-y,-z
5 1/2+x,1/2+y,z
6 1/2-x,1/2-y,1/2+z
7 1/2-x,1/2+y,1/2-z
8 1/2+x,1/2-y,-z
_cell_length_a                   18.745(4)
_cell_length_b                   19.817(4)
_cell_length_c                   15.015(3)
_cell_angle_alpha                90
_cell_angle_beta                 90
_cell_angle_gamma                90
_cell_volume                     5577.62
loop_
_atom_site_label
_atom_site_type_symbol
_atom_site_fract_x
_atom_site_fract_y
_atom_site_fract_z
Cu1 Cu 0.33323(2) 0.14947(2) 0.12725(3)
O1 O 0.27258(13) 0.08248(12) 0.18396(16)
O2 O 0.36564(13) 0.18549(13) 0.24618(18)
O3 O 0.39350(13) 0.21701(13) 0.07064(16)
O4 O 0.29345(14) 0.11856(13) 0.01014(18)
N1 N 0.42319(17) 0.07167(16) 0.1223(3)
N2 N 0.58701(19) -0.07139(18) 0.1302(3)
N3 N 0.56982(18) -0.13126(17) 0.1336(3)
N4 N 0.73798(18) -0.27181(16) 0.1345(2)
C1 C 0.3522(2) 0.2186(2) 0.3961(3)
H1 H 0.3896 0.2489 0.3785
H2 H 0.3691 0.1899 0.4431
H3 H 0.3119 0.2441 0.4168
C2 C 0.3304(2) 0.17619(17) 0.3178(2)
C3 C 0.27618(19) 0.12854(19) 0.3298(2)
H4 H 0.2541 0.1271 0.3852
C4 C 0.25244(18) 0.08286(18) 0.2650(2)
C5 C 0.1980(2) 0.03030(18) 0.2885(2)
C6 C 0.19011(19) 0.0048(2) 0.3747(3)
H5 H 0.2183 0.0213 0.4207
C7 C 0.1402(2) -0.0453(2) 0.3916(3)
H6 H 0.1353 -0.0623 0.4490
C8 C 0.0978(2) -0.0702(2) 0.3240(3)
H7 H 0.0645 -0.1039 0.3357
C9 C 0.1050(2) -0.0446(2) 0.2392(3)
H8 H 0.0762 -0.0609 0.1935
C10 C 0.1549(2) 0.00505(19) 0.2214(2)
H9 H 0.1596 0.0216 0.1637
C11 C 0.2596(3) 0.1253(2) -0.1406(3)
H10 H 0.2328 0.0862 -0.1232
H11 H 0.2918 0.1135 -0.1878
H12 H 0.2276 0.1598 -0.1609
C12 C 0.3014(2) 0.1509(2) -0.0622(2)
C13 C 0.3454(2) 0.2078(2) -0.0742(3)
H13 H 0.3456 0.2276 -0.1303
C14 C 0.38868(18) 0.23709(18) -0.0095(2)
C15 C 0.43441(19) 0.29668(18) -0.0327(2)
C16 C 0.4238(2) 0.3353(2) -0.1091(3)
H14 H 0.3880 0.3237 -0.1490
C17 C 0.4664(2) 0.3909(2) -0.1259(4)
H15 H 0.4579 0.4172 -0.1761
C18 C 0.5212(2) 0.4079(2) -0.0685(3)
H16 H 0.5503 0.4448 -0.0805
C19 C 0.5322(2) 0.36919(19) 0.0066(3)
H17 H 0.5692 0.3801 0.0453
C20 C 0.4891(2) 0.31453(19) 0.0250(2)
H18 H 0.4967 0.2895 0.0765
C21 C 0.4915(2) 0.0882(2) 0.1331(4)
H19 H 0.5032 0.1337 0.1384
C22 C 0.5455(2) 0.0415(2) 0.1366(4)
H20 H 0.5925 0.0550 0.1453
C23 C 0.5288(2) -0.0256(2) 0.1271(4)
C24 C 0.4587(2) -0.0442(2) 0.1158(4)
H21 H 0.4459 -0.0893 0.1099
C25 C 0.4080(2) 0.0060(2) 0.1134(3)
H22 H 0.3606 -0.0063 0.1052
C26 C 0.6692(2) -0.2900(2) 0.1386(3)
H23 H 0.6584 -0.3358 0.1404
C27 C 0.6133(2) -0.2446(2) 0.1402(3)
H24 H 0.5664 -0.2594 0.1445
C28 C 0.6291(2) -0.1770(2) 0.1352(3)
C29 C 0.7002(2) -0.1570(2) 0.1305(3)
H25 H 0.7125 -0.1116 0.1277
C30 C 0.7514(2) -0.2062(2) 0.1302(3)
H26 H 0.7989 -0.1927 0.1266
N1D N -0.07681(17) 0.57167(16) 0.1223(3)
N2D N 0.08701(19) 0.42861(18) 0.1302(3)
N3D N 0.06982(18) 0.36874(17) 0.1336(3)
N4D N 0.23798(18) 0.22819(16) 0.1345(2)
C21D C -0.0085(2) 0.5882(2) 0.1331(4)
H19D H 0.0032 0.6337 0.1384
C22D C 0.0455(2) 0.5415(2) 0.1366(4)
H20D H 0.0925 0.5550 0.1453
C23D C 0.0288(2) 0.4744(2) 0.1271(4)
C24D C -0.0413(2) 0.4558(2) 0.1158(4)
H21D H -0.0541 0.4107 0.1099
C25D C -0.0920(2) 0.5060(2) 0.1134(3)
H22D H -0.1394 0.4937 0.1052
C26D C 0.1692(2) 0.2100(2) 0.1386(3)
H23D H 0.1584 0.1642 0.1404
C27D C 0.1133(2) 0.2554(2) 0.1402(3)
H24D H 0.0664 0.2406 0.1445
C28D C 0.1291(2) 0.3230(2) 0.1352(3)
C29D C 0.2002(2) 0.3430(2) 0.1305(3)
H25D H 0.2125 0.3884 0.1277
C30D C 0.2514(2) 0.2938(2) 0.1302(3)
H26D H 0.2989 0.3073 0.1266
Cu1D Cu -0.16677(2) 0.64947(2) 0.12725(3)
O1D O -0.22742(13) 0.58248(12) 0.18396(16)
O2D O -0.13436(13) 0.68549(13) 0.24618(18)
C1D C -0.1478(2) 0.7186(2) 0.3961(3)
H1D H -0.1104 0.7489 0.3785
H2D H -0.1309 0.6899 0.4431
H3D H -0.1881 0.7441 0.4168
C2D C -0.1696(2) 0.67619(17) 0.3178(2)
C3D C -0.22382(19) 0.62854(19) 0.3298(2)
H4D H -0.2459 0.6271 0.3852
C4D C -0.24756(18) 0.58286(18) 0.2650(2)
C5D C -0.3020(2) 0.53030(18) 0.2885(2)
C6D C -0.30989(19) 0.5048(2) 0.3747(3)
H5D H -0.2817 0.5213 0.4207
C7D C -0.3598(2) 0.4547(2) 0.3916(3)
H6D H -0.3647 0.4377 0.4490
C8D C -0.4022(2) 0.4298(2) 0.3240(3)
H7D H -0.4355 0.3961 0.3357
C9D C -0.3950(2) 0.4554(2) 0.2392(3)
H8D H -0.4238 0.4391 0.1935
C10D C -0.3451(2) 0.50505(19) 0.2214(2)
H9D H -0.3404 0.5216 0.1637
O3D O -0.10650(13) 0.71701(13) 0.07064(16)
O4D O -0.20655(14) 0.61856(13) 0.01014(18)
C11D C -0.2404(3) 0.6253(2) -0.1406(3)
H10D H -0.2672 0.5862 -0.1232
H11D H -0.2082 0.6135 -0.1878
H12D H -0.2724 0.6598 -0.1609
C12D C -0.1986(2) 0.6509(2) -0.0622(2)
C13D C -0.1546(2) 0.7078(2) -0.0742(3)
H13D H -0.1544 0.7276 -0.1303
C14D C -0.11132(18) 0.73709(18) -0.0095(2)
C15D C -0.06559(19) 0.79668(18) -0.0327(2)
C16D C -0.0762(2) 0.8353(2) -0.1091(3)
H14D H -0.1120 0.8237 -0.1490
C17D C -0.0336(2) 0.8909(2) -0.1259(4)
H15D H -0.0421 0.9172 -0.1761
C18D C 0.0212(2) 0.9079(2) -0.0685(3)
H16D H 0.0503 0.9448 -0.0805
C19D C 0.0322(2) 0.86919(19) 0.0066(3)
H17D H 0.0692 0.8801 0.0453
C20D C -0.0109(2) 0.81453(19) 0.0250(2)
H18D H -0.0033 0.7895 0.0765
Cu1D_2 Cu 0.83323(2) -0.35053(2) 0.12725(3)
N4_2 N -0.26202(18) 0.72819(16) 0.1345(2)
O5 O 0.5000 0.2714(2) 0.2500
O6 O 0.1963(2) 0.0000 0.0000
loop_
_geom_bond_atom_site_label_1
_geom_bond_atom_site_label_2
_geom_bond_site_symmetry_1
_geom_bond_site_symmetry_2
Cu1 O1 1_555 1_555
O1 C4 1_555 1_555
O2 Cu1 1_555 1_555
O3 Cu1 1_555 1_555
O4 Cu1 1_555 1_555
N1 Cu1 1_555 1_555
N2 N3 1_555 1_555
N3 C28 1_555 1_555
N4 C26 1_555 1_555
C1 H1 1_555 1_555
H2 C1 1_555 1_555
H3 C1 1_555 1_555
C2 O2 1_555 1_555
C3 C2 1_555 1_555
H4 C3 1_555 1_555
C4 C3 1_555 1_555
C5 C4 1_555 1_555
C6 C5 1_555 1_555
H5 C6 1_555 1_555
C7 C6 1_555 1_555
H6 C7 1_555 1_555
C8 C7 1_555 1_555
H7 C8 1_555 1_555
C9 C8 1_555 1_555
H8 C9 1_555 1_555
C10 C5 1_555 1_555
H9 C10 1_555 1_555
C11 H10 1_555 1_555
H11 C11 1_555 1_555
H12 C11 1_555 1_555
C12 O4 1_555 1_555
C13 C12 1_555 1_555
H13 C13 1_555 1_555
C14 O3 1_555 1_555
C15 C14 1_555 1_555
C16 C15 1_555 1_555
H14 C16 1_555 1_555
C17 C16 1_555 1_555
H15 C17 1_555 1_555
C18 C17 1_555 1_555
H16 C18 1_555 1_555
C19 C18 1_555 1_555
H17 C19 1_555 1_555
C20 C15 1_555 1_555
H18 C20 1_555 1_555
C21 N1 1_555 1_555
H19 C21 1_555 1_555
C22 C21 1_555 1_555
H20 C22 1_555 1_555
C23 N2 1_555 1_555
C24 C23 1_555 1_555
H21 C24 1_555 1_555
C25 N1 1_555 1_555
H22 C25 1_555 1_555
C26 H23 1_555 1_555
C27 C26 1_555 1_555
H24 C27 1_555 1_555
C28 C27 1_555 1_555
C29 C28 1_555 1_555
H25 C29 1_555 1_555
C30 N4 1_555 1_555
H26 C30 1_555 1_555
N1D C21D 1_555 1_555
N2D N3D 1_555 1_555
N3D C28D 1_555 1_555
N4D Cu1 1_555 1_555
C21D H19D 1_555 1_555
C22D C21D 1_555 1_555
H20D C22D 1_555 1_555
C23D N2D 1_555 1_555
C24D C23D 1_555 1_555
H21D C24D 1_555 1_555
C25D N1D 1_555 1_555
H22D C25D 1_555 1_555
C26D N4D 1_555 1_555
H23D C26D 1_555 1_555
C27D C26D 1_555 1_555
H24D C27D 1_555 1_555
C28D C27D 1_555 1_555
C29D C28D 1_555 1_555
H25D C29D 1_555 1_555
C30D N4D 1_555 1_555
H26D C30D 1_555 1_555
Cu1D N1D 1_555 1_555
O1D Cu1D 1_555 1_555
O2D Cu1D 1_555 1_555
C1D H1D 1_555 1_555
H2D C1D 1_555 1_555
H3D C1D 1_555 1_555
C2D O2D 1_555 1_555
C3D C2D 1_555 1_555
H4D C3D 1_555 1_555
C4D O1D 1_555 1_555
C5D C4D 1_555 1_555
C6D C5D 1_555 1_555
H5D C6D 1_555 1_555
C7D C6D 1_555 1_555
H6D C7D 1_555 1_555
C8D C7D 1_555 1_555
H7D C8D 1_555 1_555
C9D C8D 1_555 1_555
H8D C9D 1_555 1_555
C10D C5D 1_555 1_555
H9D C10D 1_555 1_555
O3D Cu1D 1_555 1_555
O4D Cu1D 1_555 1_555
C11D H10D 1_555 1_555
H11D C11D 1_555 1_555
H12D C11D 1_555 1_555
C12D O4D 1_555 1_555
C13D C12D 1_555 1_555
H13D C13D 1_555 1_555
C14D O3D 1_555 1_555
C15D C14D 1_555 1_555
C16D C15D 1_555 1_555
H14D C16D 1_555 1_555
C17D C16D 1_555 1_555
H15D C17D 1_555 1_555
C18D C17D 1_555 1_555
H16D C18D 1_555 1_555
C19D C18D 1_555 1_555
H17D C19D 1_555 1_555
C20D C15D 1_555 1_555
H18D C20D 1_555 1_555
Cu1D_2 N4 1_555 1_555
N4_2 Cu1D 1_555 1_555
C1 C2 1_555 1_555
C9 C10 1_555 1_555
C11 C12 1_555 1_555
C13 C14 1_555 1_555
C19 C20 1_555 1_555
C22 C23 1_555 1_555
C24 C25 1_555 1_555
C29 C30 1_555 1_555
C22D C23D 1_555 1_555
C24D C25D 1_555 1_555
C29D C30D 1_555 1_555
C1D C2D 1_555 1_555
C3D C4D 1_555 1_555
C9D C10D 1_555 1_555
C11D C12D 1_555 1_555
C13D C14D 1_555 1_555
C19D C20D 1_555 1_555

#END
