
#######################################################################
#
#                 Cambridge Crystallographic Data Centre
#                                CCDC 
#
#######################################################################
#
# If this CIF has been generated from an entry in the Cambridge 
# Structural Database, then it will include bibliographic, chemical, 
# crystal, experimental, refinement or atomic coordinate data resulting 
# from the CCDC's data processing and validation procedures.
#
#######################################################################

data_AJIQER
_symmetry_cell_setting           triclinic
_symmetry_space_group_name_H-M   'P -1'
_symmetry_Int_Tables_number      2
_space_group_name_Hall           '-P 1'
loop_
_symmetry_equiv_pos_site_id
_symmetry_equiv_pos_as_xyz
1 x,y,z
2 -x,-y,-z
_cell_length_a                   9.9407(11)
_cell_length_b                   11.3538(13)
_cell_length_c                   11.8314(14)
_cell_angle_alpha                93.823(2)
_cell_angle_beta                 102.190(2)
_cell_angle_gamma                111.703(2)
_cell_volume                     1197.21
loop_
_atom_site_label
_atom_site_type_symbol
_atom_site_fract_x
_atom_site_fract_y
_atom_site_fract_z
Co1 Co 0.14916(4) 0.24113(3) 0.30537(3)
O1 O 0.28629(19) 0.47502(18) 0.20856(17)
O2 O 0.0655(2) 0.35930(17) 0.23962(17)
O3 O -0.3707(2) 0.4474(2) 0.0512(2)
O4 O -0.3371(2) 0.64997(19) 0.0319(2)
H1 H -0.4287 0.6176 0.0087
O5 O 0.22612(19) 0.86384(16) 0.07364(17)
O6 O 0.1986(2) 0.9868(2) 0.26793(17)
O7 O 0.1372(2) 1.12666(17) 0.16837(16)
N1 N 0.3503(2) 0.3051(2) 0.42000(19)
N2 N 0.5242(2) 0.3688(2) 0.5876(2)
H2 H 0.5655 0.3937 0.6614
N3 N 0.0072(2) 0.16233(19) 0.40554(19)
N4 N -0.1099(2) 0.0983(2) 0.5437(2)
H3 H -0.1241 0.0886 0.6123
C1 C 0.0887(3) 0.5478(2) 0.1574(2)
C2 C -0.0644(3) 0.5165(2) 0.1338(2)
H4 H -0.1276 0.4381 0.1478
C3 C -0.1229(3) 0.6022(2) 0.0893(2)
C4 C -0.0297(3) 0.7211(2) 0.0700(2)
H5 H -0.0693 0.7790 0.0417
C5 C 0.1232(3) 0.7519(2) 0.0934(2)
C6 C 0.1816(3) 0.6647(2) 0.1349(2)
H6 H 0.2837 0.6848 0.1478
C7 C 0.1541(3) 0.4556(2) 0.2039(2)
C8 C -0.2878(3) 0.5612(3) 0.0557(2)
C9 C 0.1860(3) 0.9713(2) 0.0641(2)
H7 H 0.0911 0.9448 0.0061
H8 H 0.2607 1.0365 0.0360
C10 C 0.1724(3) 1.0304(2) 0.1779(2)
C11 C 0.4845(3) 0.3098(2) 0.3975(2)
C12 C 0.5191(3) 0.2868(3) 0.2928(3)
H9 H 0.4469 0.2619 0.2218
C13 C 0.6644(3) 0.3023(3) 0.2982(3)
H10 H 0.6907 0.2874 0.2293
C14 C 0.7733(3) 0.3399(3) 0.4048(3)
H11 H 0.8704 0.3493 0.4050
C15 C 0.7412(3) 0.3633(3) 0.5091(3)
H12 H 0.8135 0.3875 0.5801
C16 C 0.5941(3) 0.3486(2) 0.5028(3)
C17 C 0.3807(3) 0.3426(2) 0.5342(2)
C18 C 0.2736(3) 0.3577(3) 0.5991(2)
H13 H 0.2204 0.4041 0.5563
H14 H 0.3303 0.4101 0.6747
C19 C 0.1580(3) 0.2320(3) 0.6190(2)
H15 H 0.2069 0.1731 0.6356
H16 H 0.1265 0.2502 0.6880
C20 C 0.0216(3) 0.1659(2) 0.5202(2)
C21 C -0.1447(3) 0.0870(2) 0.3525(2)
C22 C -0.2223(3) 0.0537(3) 0.2359(3)
H17 H -0.1745 0.0795 0.1768
C23 C -0.3748(4) -0.0199(3) 0.2108(3)
H18 H -0.4304 -0.0437 0.1332
C24 C -0.4469(3) -0.0589(3) 0.2989(3)
H19 H -0.5495 -0.1074 0.2786
C25 C -0.3705(3) -0.0278(3) 0.4143(3)
H20 H -0.4181 -0.0552 0.4731
C26 C -0.2177(3) 0.0472(2) 0.4394(2)
Co1_2 Co 0.14916(4) 1.24113(3) 0.30537(3)
O7_2 O 0.1372(2) 0.12666(17) 0.16837(16)
loop_
_geom_bond_atom_site_label_1
_geom_bond_atom_site_label_2
_geom_bond_site_symmetry_1
_geom_bond_site_symmetry_2
Co1 O2 1_555 1_555
O1 C7 1_555 1_555
O2 C7 1_555 1_555
O3 C8 1_555 1_555
O4 H1 1_555 1_555
O5 C5 1_555 1_555
O6 C10 1_555 1_555
O7 C10 1_555 1_555
N1 Co1 1_555 1_555
N2 H2 1_555 1_555
N3 Co1 1_555 1_555
N4 H3 1_555 1_555
C1 C2 1_555 1_555
C2 H4 1_555 1_555
C3 C2 1_555 1_555
C4 C3 1_555 1_555
H5 C4 1_555 1_555
C5 C4 1_555 1_555
C6 C1 1_555 1_555
H6 C6 1_555 1_555
C7 C1 1_555 1_555
C8 O4 1_555 1_555
C9 O5 1_555 1_555
H7 C9 1_555 1_555
H8 C9 1_555 1_555
C10 C9 1_555 1_555
C11 N1 1_555 1_555
C12 C11 1_555 1_555
H9 C12 1_555 1_555
C13 C12 1_555 1_555
H10 C13 1_555 1_555
C14 C13 1_555 1_555
H11 C14 1_555 1_555
C15 C14 1_555 1_555
H12 C15 1_555 1_555
C16 N2 1_555 1_555
C17 N1 1_555 1_555
C18 C17 1_555 1_555
H13 C18 1_555 1_555
H14 C18 1_555 1_555
C19 C18 1_555 1_555
H15 C19 1_555 1_555
H16 C19 1_555 1_555
C20 N3 1_555 1_555
C21 N3 1_555 1_555
C22 C21 1_555 1_555
H17 C22 1_555 1_555
C23 C22 1_555 1_555
H18 C23 1_555 1_555
C24 C23 1_555 1_555
H19 C24 1_555 1_555
C25 C24 1_555 1_555
H20 C25 1_555 1_555
C26 N4 1_555 1_555
Co1_2 O7 1_555 1_555
O7_2 Co1 1_555 1_555
N2 C17 1_555 1_555
N4 C20 1_555 1_555
C3 C8 1_555 1_555
C5 C6 1_555 1_555
C11 C16 1_555 1_555
C15 C16 1_555 1_555
C19 C20 1_555 1_555
C21 C26 1_555 1_555
C25 C26 1_555 1_555

#END
