
#######################################################################
#
#                 Cambridge Crystallographic Data Centre
#                                CCDC 
#
#######################################################################
#
# If this CIF has been generated from an entry in the Cambridge 
# Structural Database, then it will include bibliographic, chemical, 
# crystal, experimental, refinement or atomic coordinate data resulting 
# from the CCDC's data processing and validation procedures.
#
#######################################################################

data_AJIRAM
_symmetry_cell_setting           triclinic
_symmetry_space_group_name_H-M   'P 1'
_symmetry_Int_Tables_number      1
_space_group_name_Hall           'P 1'
loop_
_symmetry_equiv_pos_site_id
_symmetry_equiv_pos_as_xyz
1 x,y,z
_cell_length_a                   7.0930(14)
_cell_length_b                   8.6620(17)
_cell_length_c                   11.335(2)
_cell_angle_alpha                75.96(3)
_cell_angle_beta                 76.40(3)
_cell_angle_gamma                89.52(3)
_cell_volume                     655.794
loop_
_atom_site_label
_atom_site_type_symbol
_atom_site_fract_x
_atom_site_fract_y
_atom_site_fract_z
Cu1 Cu 0.7553(2) 0.73404(19) 0.30020(15)
O1 O 0.5917(12) 0.5618(11) 0.2871(8)
O2 O 0.9640(12) 0.7031(9) 0.1670(8)
O3 O 0.9223(11) 0.9074(9) 0.3096(7)
O4 O 0.5433(10) 0.7640(10) 0.4406(8)
N1 N 0.6108(15) 0.9274(12) 0.1547(8)
N2 N 0.8982(15) 1.5322(13) -0.5522(10)
N3 N 0.7904(16) 1.1992(13) -0.1489(9)
N4 N 0.7208(12) 1.2594(10) -0.2406(8)
C1 C 0.4221(15) 0.9437(12) 0.1672(10)
H1 H 0.3424 0.8848 0.2418
C2 C 0.3304(17) 1.0351(15) 0.0856(11)
H2 H 0.1956 1.0352 0.1031
C3 C 0.4483(13) 1.1326(12) -0.0295(10)
H3 H 0.3973 1.2018 -0.0894
C4 C 0.6545(15) 1.1119(12) -0.0424(11)
C5 C 0.7229(16) 1.0196(14) 0.0477(12)
H4 H 0.8569 1.0179 0.0368
C6 C 1.094(2) 1.5297(17) -0.5724(11)
H5 H 1.1739 1.5884 -0.6468
C7 C 1.1735(14) 1.4342(14) -0.4761(10)
H6 H 1.3075 1.4295 -0.4882
C8 C 1.059(2) 1.3526(16) -0.3700(11)
H7 H 1.1147 1.2977 -0.3066
C9 C 0.8650(17) 1.3458(13) -0.3503(8)
C10 C 0.7867(15) 1.4487(13) -0.4462(9)
H8 H 0.6528 1.4560 -0.4326
C11 C 0.4963(19) 0.3250(15) 0.2323(11)
H9 H 0.3776 0.3319 0.2921
H10 H 0.5501 0.2238 0.2578
H11 H 0.4701 0.3355 0.1514
C12 C 0.6418(17) 0.4593(14) 0.2251(10)
C13 C 0.8236(15) 0.4580(14) 0.1431(12)
H12 H 0.8517 0.3717 0.1077
C14 C 0.9700(15) 0.5887(12) 0.1118(10)
C15 C 1.1563(15) 0.5825(11) 0.0152(9)
C16 C 1.1546(18) 0.5287(16) -0.0939(11)
H13 H 1.0388 0.4992 -0.1096
C17 C 1.3302(19) 0.5219(15) -0.1752(12)
H14 H 1.3347 0.4708 -0.2390
C18 C 1.5009(19) 0.5888(16) -0.1652(12)
H15 H 1.6107 0.6018 -0.2311
C19 C 1.5105(18) 0.6370(17) -0.0580(15)
H16 H 1.6268 0.6643 -0.0418
C20 C 1.3258(18) 0.6406(15) 0.0247(11)
H17 H 1.3222 0.6871 0.0909
C21 C 1.0049(17) 1.1410(16) 0.3544(13)
H18 H 1.1182 1.1286 0.2923
H19 H 1.0413 1.1437 0.4303
H20 H 0.9470 1.2388 0.3243
C22 C 0.8623(17) 1.0044(13) 0.3796(11)
C23 C 0.6847(17) 0.9879(13) 0.4668(9)
H21 H 0.6654 1.0613 0.5157
C24 C 0.5376(16) 0.8805(14) 0.4898(10)
C25 C 0.3542(16) 0.8880(14) 0.5834(11)
C26 C 0.3454(17) 0.9464(13) 0.6869(11)
H22 H 0.4566 0.9942 0.6957
C27 C 0.170(2) 0.9354(19) 0.7808(12)
H23 H 0.1690 0.9571 0.8573
C28 C -0.0003(18) 0.8911(17) 0.7546(14)
H24 H -0.1214 0.9078 0.8019
C29 C 0.0170(15) 0.8216(14) 0.6560(10)
H25 H -0.0907 0.7630 0.6535
C30 C 0.1780(15) 0.8318(14) 0.5621(11)
H26 H 0.1750 0.8040 0.4883
Cu1_2 Cu 0.7553(2) 1.73404(19) -0.69980(15)
N2_2 N 0.8982(15) 0.5322(13) 0.4478(10)
loop_
_geom_bond_atom_site_label_1
_geom_bond_atom_site_label_2
_geom_bond_site_symmetry_1
_geom_bond_site_symmetry_2
Cu1 O1 1_555 1_555
O1 C12 1_555 1_555
O2 Cu1 1_555 1_555
O3 Cu1 1_555 1_555
O4 Cu1 1_555 1_555
N1 Cu1 1_555 1_555
N2 C6 1_555 1_555
N3 N4 1_555 1_555
N4 C9 1_555 1_555
C1 N1 1_555 1_555
H1 C1 1_555 1_555
C2 C1 1_555 1_555
H2 C2 1_555 1_555
C3 C2 1_555 1_555
H3 C3 1_555 1_555
C4 N3 1_555 1_555
C5 N1 1_555 1_555
H4 C5 1_555 1_555
C6 H5 1_555 1_555
C7 C6 1_555 1_555
H6 C7 1_555 1_555
C8 C7 1_555 1_555
H7 C8 1_555 1_555
C9 C8 1_555 1_555
C10 N2 1_555 1_555
H8 C10 1_555 1_555
C11 H9 1_555 1_555
H10 C11 1_555 1_555
H11 C11 1_555 1_555
C12 C11 1_555 1_555
C13 C12 1_555 1_555
H12 C13 1_555 1_555
C14 O2 1_555 1_555
C15 C14 1_555 1_555
C16 C15 1_555 1_555
H13 C16 1_555 1_555
C17 C16 1_555 1_555
H14 C17 1_555 1_555
C18 C17 1_555 1_555
H15 C18 1_555 1_555
C19 C18 1_555 1_555
H16 C19 1_555 1_555
C20 C15 1_555 1_555
H17 C20 1_555 1_555
C21 H18 1_555 1_555
H19 C21 1_555 1_555
H20 C21 1_555 1_555
C22 O3 1_555 1_555
C23 C22 1_555 1_555
H21 C23 1_555 1_555
C24 O4 1_555 1_555
C25 C24 1_555 1_555
C26 C25 1_555 1_555
H22 C26 1_555 1_555
C27 C26 1_555 1_555
H23 C27 1_555 1_555
C28 C27 1_555 1_555
H24 C28 1_555 1_555
C29 C28 1_555 1_555
H25 C29 1_555 1_555
C30 C25 1_555 1_555
H26 C30 1_555 1_555
Cu1_2 N2 1_555 1_555
N2_2 Cu1 1_555 1_555
C3 C4 1_555 1_555
C4 C5 1_555 1_555
C9 C10 1_555 1_555
C13 C14 1_555 1_555
C19 C20 1_555 1_555
C21 C22 1_555 1_555
C23 C24 1_555 1_555
C29 C30 1_555 1_555

#END
