
#######################################################################
#
#                 Cambridge Crystallographic Data Centre
#                                CCDC 
#
#######################################################################
#
# If this CIF has been generated from an entry in the Cambridge 
# Structural Database, then it will include bibliographic, chemical, 
# crystal, experimental, refinement or atomic coordinate data resulting 
# from the CCDC's data processing and validation procedures.
#
#######################################################################

data_AJODOT
_symmetry_cell_setting           monoclinic
_symmetry_space_group_name_H-M   'P 21/c'
_symmetry_Int_Tables_number      14
_space_group_name_Hall           '-P 2ybc'
loop_
_symmetry_equiv_pos_site_id
_symmetry_equiv_pos_as_xyz
1 x,y,z
2 -x,1/2+y,1/2-z
3 -x,-y,-z
4 x,1/2-y,1/2+z
_cell_length_a                   6.0824(4)
_cell_length_b                   20.3385(13)
_cell_length_c                   19.0247(13)
_cell_angle_alpha                90
_cell_angle_beta                 96.3320(10)
_cell_angle_gamma                90
_cell_volume                     2339.13
loop_
_atom_site_label
_atom_site_type_symbol
_atom_site_fract_x
_atom_site_fract_y
_atom_site_fract_z
Cd1 Cd 0.40021(3) 0.266647(9) 0.747442(11)
C1 C 0.0541(4) 0.08698(13) 0.75137(15)
C2 C 0.1443(5) 0.03248(13) 0.72151(16)
H1 H 0.2767 0.0365 0.7017
C3 C 0.0397(5) -0.02741(14) 0.72098(17)
H2 H 0.1025 -0.0637 0.7012
C4 C -0.1595(4) -0.03403(13) 0.74980(14)
C5 C -0.2508(5) 0.02063(14) 0.77878(17)
H3 H -0.3844 0.0169 0.7979
C6 C -0.1444(5) 0.08094(14) 0.77942(18)
H4 H -0.2071 0.1174 0.7989
C7 C 0.1749(5) 0.15153(13) 0.75337(16)
C8 C -0.2692(5) -0.09986(13) 0.75003(14)
C9 C 0.7756(5) 0.28410(14) 0.88210(15)
H5 H 0.8438 0.3070 0.8481
C10 C 0.8798(5) 0.28332(14) 0.95090(15)
C11 C 0.7753(5) 0.24886(17) 1.00070(18)
H6 H 0.8367 0.2476 1.0477
C12 C 0.5799(5) 0.21656(17) 0.97998(18)
H7 H 0.5100 0.1924 1.0126
C13 C 0.4893(5) 0.22034(15) 0.91067(17)
H8 H 0.3568 0.1986 0.8973
C14 C 1.0854(5) 0.31927(14) 0.97104(15)
C15 C 1.3716(5) 0.38373(14) 0.96058(16)
C16 C 1.3742(5) 0.36151(16) 1.02973(16)
C17 C 1.5479(6) 0.38008(18) 1.08048(19)
H9 H 1.5529 0.3662 1.1272
C18 C 1.7108(6) 0.41963(18) 1.0584(2)
H10 H 1.8281 0.4325 1.0910
C19 C 1.7052(6) 0.44080(17) 0.9889(2)
H11 H 1.8192 0.4672 0.9762
C20 C 1.5354(5) 0.42376(15) 0.93840(19)
H12 H 1.5307 0.4383 0.8919
N1 N 0.5839(4) 0.25410(11) 0.86166(13)
N2 N 1.1835(4) 0.35640(12) 0.92428(13)
H15 H 1.1376 0.3620 0.8803
N3 N 1.1933(4) 0.32068(13) 1.03520(13)
O1 O 0.3673(3) 0.15311(10) 0.73641(12)
O2 O 0.0800(3) 0.20240(9) 0.77374(12)
O3 O -0.1789(3) -0.14757(8) 0.72168(10)
O4 O -0.4464(3) -0.10787(9) 0.77718(11)
O7 O 0.7287(4) 0.26478(11) 0.70329(13)
O8 O 0.2433(4) 0.28071(12) 0.63211(12)
H17 H 0.138(4) 0.3070(14) 0.6227(19)
H18 H 0.841(4) 0.2456(16) 0.7240(18)
H19 H 0.212(6) 0.2468(11) 0.6074(17)
H20 H 0.779(6) 0.2996(12) 0.687(2)
Cd1A Cd -0.40021(3) -0.233353(9) 0.752558(11)
O3A O 0.1789(3) 0.35243(8) 0.77832(10)
O4A O 0.4464(3) 0.39213(9) 0.72282(11)
C21 C 0.1000(5) 0.53707(14) 0.45090(16)
C22 C -0.0833(6) 0.55979(17) 0.4787(2)
H13 H -0.1413 0.6006 0.4645
C23 C 0.1841(6) 0.47632(17) 0.4727(2)
H14 H 0.3088 0.4599 0.4545
C24 C 0.2028(5) 0.57709(15) 0.39811(16)
O5 O 0.3843(4) 0.55096(12) 0.37914(13)
H16 H 0.4277 0.5728 0.3472
O6 O 0.1263(3) 0.62870(10) 0.37511(11)
C21B C -0.1000(5) 0.46293(14) 0.54910(16)
C22B C 0.0833(6) 0.44021(17) 0.5213(2)
H13B H 0.1413 0.3994 0.5355
C23B C -0.1841(6) 0.52368(17) 0.5273(2)
H14B H -0.3088 0.5401 0.5455
C24B C -0.2028(5) 0.42291(15) 0.60189(16)
O5B O -0.3843(4) 0.44904(12) 0.62086(13)
H16B H -0.4277 0.4272 0.6528
O6B O -0.1263(3) 0.37130(10) 0.62489(11)
loop_
_geom_bond_atom_site_label_1
_geom_bond_atom_site_label_2
_geom_bond_site_symmetry_1
_geom_bond_site_symmetry_2
Cd1 N1 1_555 1_555
C1 C2 1_555 1_555
C2 H1 1_555 1_555
C3 C2 1_555 1_555
H2 C3 1_555 1_555
C4 C3 1_555 1_555
C5 C4 1_555 1_555
H3 C5 1_555 1_555
C6 C1 1_555 1_555
H4 C6 1_555 1_555
C7 C1 1_555 1_555
C8 C4 1_555 1_555
C9 H5 1_555 1_555
C10 C9 1_555 1_555
C11 C10 1_555 1_555
H6 C11 1_555 1_555
C12 C11 1_555 1_555
H7 C12 1_555 1_555
C13 C12 1_555 1_555
H8 C13 1_555 1_555
C14 C10 1_555 1_555
C15 C16 1_555 1_555
C16 C17 1_555 1_555
C17 H9 1_555 1_555
C18 C17 1_555 1_555
H10 C18 1_555 1_555
C19 C18 1_555 1_555
H11 C19 1_555 1_555
C20 C15 1_555 1_555
H12 C20 1_555 1_555
C21 C22 1_555 1_555
C22 H13 1_555 1_555
C23 C21 1_555 1_555
H14 C23 1_555 1_555
C24 C21 1_555 1_555
N1 C9 1_555 1_555
N2 C14 1_555 1_555
H15 N2 1_555 1_555
N3 C14 1_555 1_555
O1 Cd1 1_555 1_555
O2 Cd1 1_555 1_555
O3 C8 1_555 1_555
O4 C8 1_555 1_555
O5 C24 1_555 1_555
H16 O5 1_555 1_555
O6 C24 1_555 1_555
O7 Cd1 1_555 1_555
O8 Cd1 1_555 1_555
H17 O8 1_555 1_555
H18 O7 1_555 1_555
H19 O8 1_555 1_555
H20 O7 1_555 1_555
Cd1A O3 1_555 1_555
C21B C22B 1_555 1_555
C22B C23 1_555 1_555
H13B C22B 1_555 1_555
C23B C22 1_555 1_555
H14B C23B 1_555 1_555
C24B C21B 1_555 1_555
O3A Cd1 1_555 1_555
O4A Cd1 1_555 1_555
O5B C24B 1_555 1_555
H16B O5B 1_555 1_555
O6B C24B 1_555 1_555
C5 C6 1_555 1_555
C7 O1 1_555 1_555
C7 O2 1_555 1_555
C13 N1 1_555 1_555
C15 N2 1_555 1_555
C16 N3 1_555 1_555
C19 C20 1_555 1_555
O4 Cd1A 1_555 1_555
C21B C23B 1_555 1_555

#END
