
#######################################################################
#
#                 Cambridge Crystallographic Data Centre
#                                CCDC 
#
#######################################################################
#
# If this CIF has been generated from an entry in the Cambridge 
# Structural Database, then it will include bibliographic, chemical, 
# crystal, experimental, refinement or atomic coordinate data resulting 
# from the CCDC's data processing and validation procedures.
#
#######################################################################

data_AJOFAI
_symmetry_cell_setting           monoclinic
_symmetry_space_group_name_H-M   'P 2/c'
_symmetry_Int_Tables_number      13
_space_group_name_Hall           '-P 2yc'
loop_
_symmetry_equiv_pos_site_id
_symmetry_equiv_pos_as_xyz
1 x,y,z
2 -x,y,1/2-z
3 -x,-y,-z
4 x,-y,1/2+z
_cell_length_a                   9.7444(19)
_cell_length_b                   6.0825(12)
_cell_length_c                   18.314(5)
_cell_angle_alpha                90
_cell_angle_beta                 110.74(3)
_cell_angle_gamma                90
_cell_volume                     1015.13
loop_
_atom_site_label
_atom_site_type_symbol
_atom_site_fract_x
_atom_site_fract_y
_atom_site_fract_z
Zn1 Zn 0.5000 0.65949(8) 0.2500
S1 S 1.0000 0.8731(2) 0.2500
O1 O 0.6081(2) 0.8625(3) 0.20781(12)
O2 O 0.6197(3) 0.5952(4) 0.12908(15)
N1 N 0.3417(3) 0.4652(4) 0.17696(12)
C1 C 0.2015(3) 0.5314(5) 0.15221(16)
H1 H 0.1793 0.6659 0.1708
C2 C 0.0886(4) 0.4119(5) 0.10098(17)
H2 H -0.0082 0.4648 0.0851
C3 C 0.1181(4) 0.2140(5) 0.07303(16)
C4 C 0.2631(4) 0.1437(5) 0.09886(17)
H3 H 0.2874 0.0088 0.0815
C5 C 0.3724(4) 0.2733(5) 0.15049(17)
H4 H 0.4702 0.2248 0.1672
C6 C -0.0065(4) 0.0902(5) 0.01710(18)
H5 H -0.1014 0.1473 0.0058
C7 C 0.6518(4) 0.7829(6) 0.15548(17)
C8 C 0.7448(4) 0.9327(7) 0.1265(2)
H6 H 0.6802 1.0375 0.0894
H7 H 0.7933 0.8441 0.0980
C9 C 0.8608(4) 1.0604(6) 0.1897(2)
H8 H 0.8154 1.1389 0.2220
H9 H 0.9061 1.1691 0.1658
O1A O 1.3919(2) 0.8625(3) 0.29219(12)
O2A O 1.3803(3) 0.5952(4) 0.37092(15)
C7A C 1.3482(4) 0.7829(6) 0.34452(17)
C8A C 1.2552(4) 0.9327(7) 0.3735(2)
H6A H 1.3198 1.0375 0.4106
H7A H 1.2067 0.8441 0.4020
C9A C 1.1392(4) 1.0604(6) 0.3103(2)
H8A H 1.1846 1.1389 0.2780
H9A H 1.0939 1.1691 0.3342
N1B N -0.3417(3) -0.4652(4) -0.17696(12)
C1B C -0.2015(3) -0.5314(5) -0.15221(16)
H1B H -0.1793 -0.6659 -0.1708
C2B C -0.0886(4) -0.4119(5) -0.10098(17)
H2B H 0.0082 -0.4648 -0.0851
C3B C -0.1181(4) -0.2140(5) -0.07303(16)
C4B C -0.2631(4) -0.1437(5) -0.09886(17)
H3B H -0.2874 -0.0088 -0.0815
C5B C -0.3724(4) -0.2733(5) -0.15049(17)
H4B H -0.4702 -0.2248 -0.1672
C6B C 0.0065(4) -0.0902(5) -0.01710(18)
H5B H 0.1014 -0.1473 -0.0058
Zn1_2 Zn 1.5000 0.65949(8) 0.2500
Zn1B Zn -0.5000 -0.65949(8) -0.2500
O1A_2 O 0.3919(2) 0.8625(3) 0.29219(12)
N1A N 0.6583(3) 0.4652(4) 0.32304(12)
O3 O 0.6816(3) 0.3802(4) 0.00703(15)
H10 H 0.6582 0.4323 0.0441
H11 H 0.6066 0.4242 -0.0305
loop_
_geom_bond_atom_site_label_1
_geom_bond_atom_site_label_2
_geom_bond_site_symmetry_1
_geom_bond_site_symmetry_2
Zn1 O1 1_555 1_555
S1 C9 1_555 1_555
O1 C7 1_555 1_555
O2 C7 1_555 1_555
N1 Zn1 1_555 1_555
C1 N1 1_555 1_555
H1 C1 1_555 1_555
C2 C1 1_555 1_555
H2 C2 1_555 1_555
C3 C2 1_555 1_555
C4 C3 1_555 1_555
H3 C4 1_555 1_555
C5 N1 1_555 1_555
H4 C5 1_555 1_555
C6 C3 1_555 1_555
H5 C6 1_555 1_555
C7 C8 1_555 1_555
C8 H6 1_555 1_555
H7 C8 1_555 1_555
C9 C8 1_555 1_555
H8 C9 1_555 1_555
H9 C9 1_555 1_555
O3 H10 1_555 1_555
H11 O3 1_555 1_555
O1A C7A 1_555 1_555
O2A C7A 1_555 1_555
C7A C8A 1_555 1_555
C8A H6A 1_555 1_555
H7A C8A 1_555 1_555
C9A S1 1_555 1_555
H8A C9A 1_555 1_555
H9A C9A 1_555 1_555
N1B C1B 1_555 1_555
C1B H1B 1_555 1_555
C2B C1B 1_555 1_555
H2B C2B 1_555 1_555
C3B C2B 1_555 1_555
C4B C3B 1_555 1_555
H3B C4B 1_555 1_555
C5B N1B 1_555 1_555
H4B C5B 1_555 1_555
C6B C6 1_555 1_555
H5B C6B 1_555 1_555
Zn1_2 O1A 1_555 1_555
Zn1B N1B 1_555 1_555
O1A_2 Zn1 1_555 1_555
N1A Zn1 1_555 1_555
C4 C5 1_555 1_555
C8A C9A 1_555 1_555
C3B C6B 1_555 1_555
C4B C5B 1_555 1_555

#END
