
#######################################################################
#
#                 Cambridge Crystallographic Data Centre
#                                CCDC 
#
#######################################################################
#
# If this CIF has been generated from an entry in the Cambridge 
# Structural Database, then it will include bibliographic, chemical, 
# crystal, experimental, refinement or atomic coordinate data resulting 
# from the CCDC's data processing and validation procedures.
#
#######################################################################

data_AJOKUF
_symmetry_cell_setting           monoclinic
_symmetry_space_group_name_H-M   'P 21'
_symmetry_Int_Tables_number      4
_space_group_name_Hall           'P 2yb'
loop_
_symmetry_equiv_pos_site_id
_symmetry_equiv_pos_as_xyz
1 x,y,z
2 -x,1/2+y,-z
_cell_length_a                   12.268
_cell_length_b                   14.987(4)
_cell_length_c                   24.318(7)
_cell_angle_alpha                90
_cell_angle_beta                 90.040(5)
_cell_angle_gamma                90
_cell_volume                     4471.12
loop_
_atom_site_label
_atom_site_type_symbol
_atom_site_fract_x
_atom_site_fract_y
_atom_site_fract_z
Sn1 Sn 0.9665(1) -0.2639(1) 0.3997(1)
Sn2 Sn 0.4829(1) 0.2452(1) 0.3962(1)
N1 N 0.6152(8) 0.1145(6) 0.4068(4)
N2 N 1.1002(7) -0.3980(6) 0.4071(4)
O1 O 0.8401(6) -0.1628(5) 0.3958(3)
O2 O 0.9635(6) -0.0586(5) 0.4078(4)
O3 O 1.3810(6) -0.6387(5) 0.3897(3)
O4 O 1.2898(6) -0.6796(5) 0.4646(4)
C1 C 0.6540(18) 0.3329(13) 0.2187(9)
C2 C 0.5590(20) 0.3660(30) 0.2351(7)
C3 C 0.5154(12) 0.3472(11) 0.2885(7)
C4 C 0.3559(9) 0.1481(7) 0.3816(5)
C5 C 0.3430(11) 0.1192(9) 0.3276(6)
C6 C 0.2530(14) 0.0650(10) 0.3151(7)
C7 C 0.1871(13) 0.0335(10) 0.3573(9)
C8 C 0.2030(12) 0.0591(11) 0.4096(8)
C9 C 0.2910(10) 0.1220(7) 0.4252(6)
C17 C 0.8715(9) -0.0845(8) 0.4040(4)
C18 C 0.7778(9) -0.0144(7) 0.4085(5)
C19 C 0.6699(10) -0.0366(8) 0.3986(5)
C20 C 0.5922(9) 0.0319(7) 0.3971(5)
C21 C 0.7200(11) 0.1351(8) 0.4200(7)
C22 C 0.8064(9) 0.0747(7) 0.4182(6)
C23 C 1.3069(10) -0.6278(7) 0.4260(6)
C24 C 1.2347(9) -0.5466(6) 0.4188(5)
C25 C 1.1439(8) -0.5362(6) 0.4517(4)
C26 C 1.0751(9) -0.4620(7) 0.4453(5)
C27 C 1.1891(10) -0.4090(8) 0.3761(6)
C28 C 1.2603(10) -0.4837(8) 0.3813(6)
C29 C 0.8446(10) -0.3639(7) 0.3894(5)
C30 C 0.7412(11) -0.3535(8) 0.4133(6)
C31 C 0.6606(12) -0.4190(13) 0.3997(8)
C32 C 0.6788(16) -0.4854(13) 0.3673(8)
C33 C 0.7770(16) -0.4955(10) 0.3427(7)
C34 C 0.8642(11) -0.4361(8) 0.3528(5)
C35 C 1.0485(9) -0.2312(8) 0.3252(5)
C36 C 0.9984(11) -0.2584(14) 0.2773(5)
C37 C 1.0500(15) -0.2306(15) 0.2252(7)
C38 C 1.1541(18) -0.1898(13) 0.2273(7)
C39 C 1.2024(14) -0.1672(10) 0.2750(9)
C40 C 1.1515(11) -0.1863(8) 0.3276(5)
C41 C 1.0199(9) -0.2332(7) 0.4806(4)
C42 C 0.9597(9) -0.2691(8) 0.5251(5)
C43 C 0.9902(11) -0.2470(10) 0.5786(6)
C44 C 1.0740(12) -0.1865(9) 0.5883(6)
C45 C 1.1327(10) -0.1499(9) 0.5448(6)
C46 C 1.1039(9) -0.1729(8) 0.4906(5)
C47 C 0.5423(9) 0.2823(9) 0.4748(5)
C48 C 0.5572(11) 0.2200(12) 0.5160(6)
C49 C 0.5865(19) 0.2510(20) 0.5700(9)
C50 C 0.6130(20) 0.3530(30) 0.5690(20)
C51 C 0.6050(20) 0.3830(20) 0.5290(20)
C52 C 0.5630(10) 0.3740(9) 0.4838(7)
C53 C 0.5650(10) 0.2810(7) 0.3201(5)
C54 C 0.6621(16) 0.240 0.3070(9)
C55 C 0.6920(20) 0.261 0.2502(11)
O3_2 O 0.3810(6) 0.3613(5) 0.3897(3)
Sn2_2 Sn 1.4829(1) -0.7548(1) 0.3962(1)
Sn3 Sn 0.4666(1) 0.9072(1) 0.1002(1)
Sn4 Sn -0.0174(1) 0.3983(1) 0.1039(1)
N3 N 0.1157(8) 0.5282(6) 0.0938(4)
N4 N 0.5976(8) 1.0416(6) 0.0921(4)
C10 C 0.3707(9) 0.7260(8) 0.0962(4)
C11 C 0.2807(9) 0.6578(6) 0.0926(4)
C12 C 0.1710(9) 0.6803(7) 0.1023(5)
C13 C 0.0937(9) 0.6125(8) 0.1033(6)
C14 C 0.2233(12) 0.5076(9) 0.0833(7)
C15 C 0.3037(8) 0.5704(8) 0.0826(5)
C16 C 0.8060(11) 1.2731(7) 0.0740(6)
O5 O 0.3398(6) 0.8061(5) 0.1041(3)
O6 O 0.4628(7) 0.7039(5) 0.0915(4)
O7 O 0.8791(7) 1.2824(5) 0.1114(3)
O8 O 0.7898(6) 1.3229(5) 0.0350(4)
C56 C 0.7337(9) 1.1883(7) 0.0819(5)
C57 C 0.6450(8) 1.1792(7) 0.0477(5)
C58 C 0.5742(9) 1.1027(7) 0.0547(5)
C59 C 0.6861(11) 1.0494(8) 0.1240(6)
C60 C 0.7605(10) 1.1268(8) 0.1186(6)
C61 C 0.3445(11) 1.0053(7) 0.1116(5)
C62 C 0.2430(12) 0.9960(9) 0.0862(6)
C63 C 0.1616(11) 1.0606(14) 0.1000(8)
C64 C 0.1846(16) 1.1291(11) 0.1351(8)
C65 C 0.2805(16) 1.1410(11) 0.1583(7)
C66 C 0.3634(11) 1.0804(9) 0.1491(5)
C67 C 0.5187(9) 0.8779(7) 0.0192(5)
C68 C 0.4580(9) 0.9124(8) -0.0240(5)
C69 C 0.4889(11) 0.8904(10) -0.0799(6)
C70 C 0.5756(10) 0.8324(9) -0.0884(5)
C71 C 0.6307(10) 0.7929(9) -0.0463(6)
C72 C 0.6031(9) 0.8159(8) 0.0091(5)
C73 C 0.5497(10) 0.8742(7) 0.1751(5)
C74 C 0.5007(11) 0.8970(13) 0.2225(6)
C75 C 0.5503(18) 0.8755(16) 0.2728(8)
C76 C 0.6576(18) 0.8283(13) 0.2712(7)
C77 C 0.7008(13) 0.8083(10) 0.2201(8)
C78 C 0.6502(12) 0.8287(9) 0.1718(5)
C79 C 0.0614(10) 0.3628(8) 0.1793(6)
C80 C 0.0130(13) 0.2975(12) 0.2126(7)
C81 C 0.0620(20) 0.2725(15) 0.2646(8)
C82 C 0.1556(18) 0.3140(15) 0.2848(9)
C83 C 0.2060(20) 0.3676(17) 0.2456(11)
C84 C 0.1609(16) 0.3934(17) 0.1949(9)
C85 C -0.1427(9) 0.4959(7) 0.1182(6)
C86 C -0.2110(11) 0.5237(8) 0.0764(7)
C87 C -0.2994(13) 0.5816(11) 0.0887(8)
C88 C -0.3162(13) 0.6074(11) 0.1425(9)
C89 C -0.2465(14) 0.5791(11) 0.1842(8)
C90 C -0.1571(11) 0.5207(8) 0.1733(6)
C91 C 0.0417(9) 0.3614(9) 0.0249(5)
C92 C 0.0556(11) 0.4248(11) -0.0155(6)
C93 C 0.0867(16) 0.3990(20) -0.0696(9)
C94 C 0.1100(20) 0.3050(20) -0.0801(12)
C95 C 0.0993(15) 0.2455(18) -0.0389(11)
C96 C 0.0666(10) 0.2716(10) 0.0155(7)
O7_2 O -0.1209(7) 0.2824(5) 0.1114(3)
Sn4_2 Sn 0.9826(1) 1.3983(1) 0.1039(1)
Cl1 Cl 0.3185(9) 0.5951(9) 0.2313(3)
Cl2 Cl 0.4945(8) 0.6255(7) 0.2864(4)
C97 C 0.4494(15) 0.5830(20) 0.2263(9)
Cl3 Cl 0.8208(10) 0.0541(8) 0.2691(4)
Cl4 Cl 0.9937(7) 0.0172(7) 0.2122(4)
C98 C 0.9230(20) -0.0162(16) 0.2656(11)
loop_
_geom_bond_atom_site_label_1
_geom_bond_atom_site_label_2
_geom_bond_site_symmetry_1
_geom_bond_site_symmetry_2
Sn1 N2 1_555 1_555
Sn2 N1 1_555 1_555
Sn3 N4 1_555 1_555
Sn4 N3 1_555 1_555
Cl1 C97 1_555 1_555
Cl2 C97 1_555 1_555
Cl3 C98 1_555 1_555
Cl4 C98 1_555 1_555
N1 C20 1_555 1_555
N2 C26 1_555 1_555
N3 C13 1_555 1_555
N4 C58 1_555 1_555
O1 Sn1 1_555 1_555
O2 C17 1_555 1_555
O3 C23 1_555 1_555
O4 C23 1_555 1_555
C1 C2 1_555 1_555
C2 C3 1_555 1_555
C3 C53 1_555 1_555
C4 Sn2 1_555 1_555
C5 C4 1_555 1_555
C6 C5 1_555 1_555
C7 C6 1_555 1_555
C8 C7 1_555 1_555
C9 C4 1_555 1_555
C10 C11 1_555 1_555
C11 C12 1_555 1_555
C12 C13 1_555 1_555
C14 N3 1_555 1_555
C15 C11 1_555 1_555
C16 O7 1_555 1_555
O5 Sn3 1_555 1_555
O6 C10 1_555 1_555
O7 Sn4_2 1_555 1_555
O8 C16 1_555 1_555
C17 O1 1_555 1_555
C18 C17 1_555 1_555
C19 C18 1_555 1_555
C20 C19 1_555 1_555
C21 N1 1_555 1_555
C22 C18 1_555 1_555
C23 C24 1_555 1_555
C24 C25 1_555 1_555
C25 C26 1_555 1_555
C27 N2 1_555 1_555
C28 C24 1_555 1_555
C29 Sn1 1_555 1_555
C30 C29 1_555 1_555
C31 C30 1_555 1_555
C32 C31 1_555 1_555
C33 C32 1_555 1_555
C34 C29 1_555 1_555
C35 Sn1 1_555 1_555
C36 C35 1_555 1_555
C37 C36 1_555 1_555
C38 C37 1_555 1_555
C39 C38 1_555 1_555
C40 C35 1_555 1_555
C41 Sn1 1_555 1_555
C42 C41 1_555 1_555
C43 C42 1_555 1_555
C44 C43 1_555 1_555
C45 C44 1_555 1_555
C46 C41 1_555 1_555
C47 Sn2 1_555 1_555
C48 C47 1_555 1_555
C49 C48 1_555 1_555
C50 C49 1_555 1_555
C51 C50 1_555 1_555
C52 C47 1_555 1_555
C53 Sn2 1_555 1_555
C54 C53 1_555 1_555
C55 C1 1_555 1_555
C56 C16 1_555 1_555
C57 C56 1_555 1_555
C58 C57 1_555 1_555
C59 N4 1_555 1_555
C60 C56 1_555 1_555
C61 Sn3 1_555 1_555
C62 C61 1_555 1_555
C63 C62 1_555 1_555
C64 C63 1_555 1_555
C65 C64 1_555 1_555
C66 C61 1_555 1_555
C67 Sn3 1_555 1_555
C68 C67 1_555 1_555
C69 C68 1_555 1_555
C70 C69 1_555 1_555
C71 C70 1_555 1_555
C72 C67 1_555 1_555
C73 Sn3 1_555 1_555
C74 C73 1_555 1_555
C75 C74 1_555 1_555
C76 C75 1_555 1_555
C77 C76 1_555 1_555
C78 C73 1_555 1_555
C79 Sn4 1_555 1_555
C80 C79 1_555 1_555
C81 C80 1_555 1_555
C82 C81 1_555 1_555
C83 C82 1_555 1_555
C84 C79 1_555 1_555
C85 Sn4 1_555 1_555
C86 C85 1_555 1_555
C87 C86 1_555 1_555
C88 C87 1_555 1_555
C89 C88 1_555 1_555
C90 C85 1_555 1_555
C91 Sn4 1_555 1_555
C92 C91 1_555 1_555
C93 C92 1_555 1_555
C94 C93 1_555 1_555
C95 C94 1_555 1_555
C96 C91 1_555 1_555
O3_2 Sn2 1_555 1_555
O7_2 Sn4 1_555 1_555
Sn2_2 O3 1_555 1_555
C8 C9 1_555 1_555
C10 O5 1_555 1_555
C14 C15 1_555 1_555
C21 C22 1_555 1_555
C27 C28 1_555 1_555
C33 C34 1_555 1_555
C39 C40 1_555 1_555
C45 C46 1_555 1_555
C51 C52 1_555 1_555
C54 C55 1_555 1_555
C59 C60 1_555 1_555
C65 C66 1_555 1_555
C71 C72 1_555 1_555
C77 C78 1_555 1_555
C83 C84 1_555 1_555
C89 C90 1_555 1_555
C95 C96 1_555 1_555

#END
