
#######################################################################
#
#                 Cambridge Crystallographic Data Centre
#                                CCDC 
#
#######################################################################
#
# If this CIF has been generated from an entry in the Cambridge 
# Structural Database, then it will include bibliographic, chemical, 
# crystal, experimental, refinement or atomic coordinate data resulting 
# from the CCDC's data processing and validation procedures.
#
#######################################################################

data_AJONUK
_symmetry_cell_setting           monoclinic
_symmetry_space_group_name_H-M   'I a'
_symmetry_Int_Tables_number      9
_space_group_name_Hall           'I -2ya'
loop_
_symmetry_equiv_pos_site_id
_symmetry_equiv_pos_as_xyz
1 x,y,z
2 1/2+x,-y,z
3 1/2+x,1/2+y,1/2+z
4 x,1/2-y,1/2+z
_cell_length_a                   13.5597(3)
_cell_length_b                   18.3476(4)
_cell_length_c                   7.5551(1)
_cell_angle_alpha                90
_cell_angle_beta                 93.836(1)
_cell_angle_gamma                90
_cell_volume                     1875.41
loop_
_atom_site_label
_atom_site_type_symbol
_atom_site_fract_x
_atom_site_fract_y
_atom_site_fract_z
Fe1 Fe 0.3427(3) -0.0042(2) 0.8421(3)
Cu1 Cu 0.5971(3) -0.0490(3) 0.3285(2)
C1 C 0.4269(2) -0.0362(2) 0.6611(4)
C2 C 0.2664(2) 0.0389(2) 1.0216(5)
C3 C 0.2539(2) 0.0303(2) 0.6500(4)
C4 C 0.4393(2) -0.0277(2) 1.0327(5)
C5 C 0.4081(3) 0.0886(2) 0.8302(4)
C6 C 0.5111(2) -0.2141(2) 0.3312(6)
C7 C 0.6822(2) -0.2169(2) 0.3524(6)
C8 C 0.5066(2) -0.2889(2) 0.3245(5)
C9 C 0.6816(2) -0.2914(2) 0.3466(5)
C10 C 0.5936(1) -0.3281(1) 0.3330(1)
C11 C 0.5008(2) 0.1213(2) 0.3153(4)
C12 C 0.6715(2) 0.1216(2) 0.3119(4)
C13 C 0.4988(2) 0.1959(1) 0.3127(4)
C14 C 0.6733(2) 0.1967(2) 0.3088(5)
C15 C 0.5852(7) 0.2343(2) 0.3098(1)
N1 N 0.4574(2) -0.0600(2) 0.5368(4)
N2 N 0.2305(2) 0.0589(2) 1.1448(3)
N3 N 0.1897(2) 0.0414(2) 0.5489(4)
N4 N 0.5047(2) -0.0487(2) 1.1195(4)
N5 N 0.4491(2) 0.1429(2) 0.8236(4)
N6 N 0.2865(2) -0.0840(2) 0.8522(4)
O1 O 0.2481(2) -0.1384(1) 0.8592(3)
N7 N 0.5973(1) -0.1784(1) 0.3438(1)
N8 N 0.5868(7) 0.0845(1) 0.3139(8)
Cu1_2 Cu 0.5971(3) -0.0490(3) 1.3285(2)
Cu1A Cu 0.0971(3) 0.0490(3) 0.3285(2)
Cu1A_2 Cu 0.0971(3) 0.0490(3) 1.3285(2)
N2A N 0.7305(2) -0.0589(2) 0.1448(3)
N3A N 0.6897(2) -0.0414(2) 0.5489(4)
N4_2 N 0.5047(2) -0.0487(2) 0.1195(4)
loop_
_geom_bond_atom_site_label_1
_geom_bond_atom_site_label_2
_geom_bond_site_symmetry_1
_geom_bond_site_symmetry_2
Fe1 C1 1_555 1_555
Cu1 N1 1_555 1_555
C1 N1 1_555 1_555
C2 Fe1 1_555 1_555
C3 Fe1 1_555 1_555
C4 Fe1 1_555 1_555
C5 Fe1 1_555 1_555
C6 C8 1_555 1_555
C7 C9 1_555 1_555
C8 C10 1_555 1_555
C9 C10 1_555 1_555
C11 C13 1_555 1_555
C12 C14 1_555 1_555
C13 C15 1_555 1_555
C14 C15 1_555 1_555
N2 C2 1_555 1_555
N3 C3 1_555 1_555
N4 C4 1_555 1_555
N5 C5 1_555 1_555
N6 Fe1 1_555 1_555
O1 N6 1_555 1_555
N7 Cu1 1_555 1_555
N8 Cu1 1_555 1_555
Cu1_2 N4 1_555 1_555
Cu1A N3 1_555 1_555
Cu1A_2 N2 1_555 1_555
N2A Cu1 1_555 1_555
N3A Cu1 1_555 1_555
N4_2 Cu1 1_555 1_555
C6 N7 1_555 1_555
C7 N7 1_555 1_555
C11 N8 1_555 1_555
C12 N8 1_555 1_555

#END
