
#######################################################################
#
#                 Cambridge Crystallographic Data Centre
#                                CCDC 
#
#######################################################################
#
# If this CIF has been generated from an entry in the Cambridge 
# Structural Database, then it will include bibliographic, chemical, 
# crystal, experimental, refinement or atomic coordinate data resulting 
# from the CCDC's data processing and validation procedures.
#
#######################################################################

data_AJURIG
_symmetry_cell_setting           monoclinic
_symmetry_space_group_name_H-M   'P 21/c'
_symmetry_Int_Tables_number      14
_space_group_name_Hall           '-P 2ybc'
loop_
_symmetry_equiv_pos_site_id
_symmetry_equiv_pos_as_xyz
1 x,y,z
2 x,1/2-y,1/2+z
3 -x,-y,-z
4 -x,1/2+y,1/2-z
_cell_length_a                   9.3490(2)
_cell_length_b                   19.3139(4)
_cell_length_c                   15.5765(4)
_cell_angle_alpha                90
_cell_angle_beta                 91.8920(10)
_cell_angle_gamma                90
_cell_volume                     2811.05
loop_
_atom_site_label
_atom_site_type_symbol
_atom_site_fract_x
_atom_site_fract_y
_atom_site_fract_z
Zn1 Zn -0.73923(4) 0.61997(2) -0.46751(2)
Cl1 Cl -0.82310(8) 0.60556(6) -0.60203(6)
Cl2 Cl -0.53862(8) 0.67655(4) -0.44045(5)
O1 O -0.0262(3) 0.04865(15) -0.37776(18)
N1 N -0.7096(2) 0.52244(14) -0.41767(17)
N2 N -0.7627(3) 0.29001(14) -0.28367(17)
N3 N -1.0963(3) 0.15972(14) -0.10075(17)
C1 C -0.8047(3) 0.41494(18) -0.3732(2)
H1 H -0.8871 0.3878 -0.3628
C2 C -0.8190(3) 0.48019(18) -0.4038(2)
H2 H -0.9129 0.4969 -0.4161
C3 C -0.5780(3) 0.49743(16) -0.4013(2)
H3 H -0.4981 0.5266 -0.4108
C4 C -0.5535(3) 0.43162(17) -0.3716(2)
H4 H -0.4583 0.4159 -0.3610
C5 C -0.6683(3) 0.38765(16) -0.35702(19)
C6 C -0.6507(3) 0.31585(18) -0.3259(2)
C7 C -0.5263(3) 0.27786(17) -0.33882(19)
H5 H -0.4486 0.2986 -0.3670
C8 C -0.5159(3) 0.21031(18) -0.3109(2)
C9 C -0.6321(3) 0.18480(18) -0.2656(2)
H6 H -0.6297 0.1389 -0.2436
C10 C -0.7498(3) 0.22627(19) -0.2529(2)
C11 C -0.8705(3) 0.20197(18) -0.1999(2)
C12 C -0.8489(3) 0.15537(19) -0.1336(2)
H7 H -0.7564 0.1368 -0.1213
C13 C -0.9631(3) 0.1361(2) -0.0856(2)
H8 H -0.9468 0.1046 -0.0395
C14 C -1.1171(3) 0.20474(17) -0.1640(2)
H9 H -1.2110 0.2222 -0.1750
C15 C -1.0088(3) 0.22728(17) -0.2142(2)
H10 H -1.0279 0.2600 -0.2586
C16 C -0.3880(3) 0.16672(17) -0.3272(2)
C17 C -0.2862(4) 0.1873(2) -0.3853(3)
H11 H -0.2995 0.2295 -0.4160
C18 C -0.1654(4) 0.1473(2) -0.3993(3)
H12 H -0.0951 0.1634 -0.4372
C19 C -0.1473(4) 0.0846(2) -0.3586(2)
C20 C -0.2475(4) 0.0631(2) -0.3032(3)
H13 H -0.2366 0.0199 -0.2746
C21 C -0.3657(4) 0.10443(19) -0.2884(3)
H14 H -0.4343 0.0884 -0.2493
C22 C -0.0035(5) -0.0162(3) -0.3370(4)
H15 H -0.0871 -0.0468 -0.3478
H16 H 0.0101 -0.0098 -0.2742
C23 C 0.1324(6) -0.0489(3) -0.3747(4)
H17 H 0.1371 -0.0987 -0.3595
H18 H 0.1274 -0.0451 -0.4381
C24 C 0.2519(6) -0.0163(4) -0.3434(5)
H19 H 0.2611 -0.0231 -0.2804
H20 H 0.2444 0.0340 -0.3548
C25 C 0.3968(8) -0.0484(5) -0.3903(7)
H21 H 0.3785 -0.0401 -0.4524
H22 H 0.4751 -0.0164 -0.3728
C26 C 0.4458(8) -0.0997(4) -0.3871(6)
H23 H 0.3801 -0.1295 -0.4219
H24 H 0.4352 -0.1146 -0.3268
C27 C 0.5894(8) -0.1231(4) -0.4089(6)
H25 H 0.6547 -0.0870 -0.3852
H26 H 0.6071 -0.1647 -0.3729
C28 C 0.6356(8) -0.1373(4) -0.4763(5)
H27 H 0.6317 -0.0939 -0.5102
H28 H 0.5644 -0.1688 -0.5039
C29 C 0.7852(6) -0.1700(3) -0.4934(4)
H29 H 0.8587 -0.1472 -0.4571
H30 H 0.8074 -0.1638 -0.5540
H31 H 0.7831 -0.2196 -0.4799
N3C N -0.9037(3) 0.65972(14) -0.39925(17)
Zn1C Zn -1.26077(4) 0.11997(2) -0.03249(2)
loop_
_geom_bond_atom_site_label_1
_geom_bond_atom_site_label_2
_geom_bond_site_symmetry_1
_geom_bond_site_symmetry_2
Zn1 Cl1 1_555 1_555
Cl2 Zn1 1_555 1_555
O1 C19 1_555 1_555
N1 Zn1 1_555 1_555
N2 C6 1_555 1_555
N3 C13 1_555 1_555
C1 H1 1_555 1_555
C2 N1 1_555 1_555
H2 C2 1_555 1_555
C3 N1 1_555 1_555
H3 C3 1_555 1_555
C4 C3 1_555 1_555
H4 C4 1_555 1_555
C5 C1 1_555 1_555
C6 C5 1_555 1_555
C7 C6 1_555 1_555
H5 C7 1_555 1_555
C8 C7 1_555 1_555
C9 C8 1_555 1_555
H6 C9 1_555 1_555
C10 N2 1_555 1_555
C11 C10 1_555 1_555
C12 C11 1_555 1_555
H7 C12 1_555 1_555
C13 C12 1_555 1_555
H8 C13 1_555 1_555
C14 N3 1_555 1_555
H9 C14 1_555 1_555
C15 C11 1_555 1_555
H10 C15 1_555 1_555
C16 C8 1_555 1_555
C17 C16 1_555 1_555
H11 C17 1_555 1_555
C18 C17 1_555 1_555
H12 C18 1_555 1_555
C19 C18 1_555 1_555
C20 C19 1_555 1_555
H13 C20 1_555 1_555
C21 C16 1_555 1_555
H14 C21 1_555 1_555
C22 O1 1_555 1_555
H15 C22 1_555 1_555
H16 C22 1_555 1_555
C23 C22 1_555 1_555
H17 C23 1_555 1_555
H18 C23 1_555 1_555
C24 C23 1_555 1_555
H19 C24 1_555 1_555
H20 C24 1_555 1_555
C25 C24 1_555 1_555
H21 C25 1_555 1_555
H22 C25 1_555 1_555
C26 C25 1_555 1_555
H23 C26 1_555 1_555
H24 C26 1_555 1_555
C27 C26 1_555 1_555
H25 C27 1_555 1_555
H26 C27 1_555 1_555
C28 C27 1_555 1_555
H27 C28 1_555 1_555
H28 C28 1_555 1_555
C29 C28 1_555 1_555
H29 C29 1_555 1_555
H30 C29 1_555 1_555
H31 C29 1_555 1_555
N3C Zn1 1_555 1_555
Zn1C N3 1_555 1_555
C1 C2 1_555 1_555
C4 C5 1_555 1_555
C9 C10 1_555 1_555
C14 C15 1_555 1_555
C20 C21 1_555 1_555

#END
