
#######################################################################
#
#                 Cambridge Crystallographic Data Centre
#                                CCDC 
#
#######################################################################
#
# If this CIF has been generated from an entry in the Cambridge 
# Structural Database, then it will include bibliographic, chemical, 
# crystal, experimental, refinement or atomic coordinate data resulting 
# from the CCDC's data processing and validation procedures.
#
#######################################################################

data_AJUZIO
_symmetry_cell_setting           triclinic
_symmetry_space_group_name_H-M   'P -1'
_symmetry_Int_Tables_number      2
_space_group_name_Hall           '-P 1'
loop_
_symmetry_equiv_pos_site_id
_symmetry_equiv_pos_as_xyz
1 x,y,z
2 -x,-y,-z
_cell_length_a                   6.3112(13)
_cell_length_b                   13.249(3)
_cell_length_c                   14.060(3)
_cell_angle_alpha                100.88(3)
_cell_angle_beta                 90.48(3)
_cell_angle_gamma                97.54(3)
_cell_volume                     1143.88
loop_
_atom_site_label
_atom_site_type_symbol
_atom_site_fract_x
_atom_site_fract_y
_atom_site_fract_z
Se1 Se 0.18353(4) 0.43880(2) 0.40689(2)
Se2 Se -0.35372(4) 0.05674(2) 0.40665(2)
Se3 Se 0.48540(4) 0.28203(2) 0.58976(2)
Cu1 Cu 0.43821(6) 0.33621(3) 0.22510(3)
V1 V 0.12609(8) 0.18275(4) 0.41270(4)
V2 V -0.02470(8) 0.64067(4) 0.38195(4)
V3 V -0.04257(8) 0.08831(4) 0.60069(4)
O1 O 0.2126(4) 0.16842(19) 0.30512(18)
O2 O 0.0077(4) 0.62866(19) 0.26752(18)
O3 O 0.7230(3) 0.34785(17) 0.57252(18)
O4 O -0.3164(3) 0.07958(17) 0.52915(16)
O5 O 0.4146(3) 0.23508(17) 0.46966(17)
O6 O 0.2067(4) 0.39750(19) 0.28767(18)
O7 O 0.0433(3) 0.21253(16) 0.57836(17)
O8 O 0.0641(3) 0.32834(16) 0.44431(17)
O9 O 0.1055(3) 0.06204(16) 0.44465(17)
O10 O -0.1365(4) 0.10760(19) 0.70643(18)
O11 O 0.3420(3) 0.38352(17) 0.61513(18)
O12 O -0.0456(3) 0.49441(16) 0.39954(17)
O13 O -0.1809(3) 0.15494(17) 0.37702(17)
O14 O -0.2358(3) -0.05239(17) 0.36699(17)
O15 O 0.6393(6) 0.4768(3) 0.1803(3)
O16 O 0.6139(4) 0.34906(19) 0.34315(18)
N1 N 0.6046(4) 0.2335(2) 0.1446(2)
N2 N 0.2704(5) 0.3174(2) 0.0997(2)
C1 C 0.7739(6) 0.1946(3) 0.1709(3)
H1 H 0.8308 0.2165 0.2338
C2 C 0.8697(7) 0.1212(3) 0.1063(3)
H2 H 0.9861 0.0936 0.1269
C3 C 0.7913(7) 0.0905(3) 0.0131(3)
H3 H 0.8550 0.0422 -0.0301
C4 C 0.6140(6) 0.1318(3) -0.0176(3)
C5 C 0.5263(6) 0.2029(3) 0.0523(3)
C6 C 0.3470(6) 0.2491(3) 0.0271(3)
C7 C 0.2585(6) 0.2246(3) -0.0671(3)
C8 C 0.0857(7) 0.2759(3) -0.0863(3)
H4 H 0.0215 0.2625 -0.1480
C9 C 0.0128(7) 0.3454(3) -0.0139(3)
H5 H -0.0995 0.3805 -0.0263
C10 C 0.1074(6) 0.3637(3) 0.0792(3)
H6 H 0.0539 0.4101 0.1283
C11 C 0.5225(7) 0.1072(3) -0.1143(3)
H7 H 0.5805 0.0605 -0.1614
C12 C 0.3524(7) 0.1515(3) -0.1377(3)
H8 H 0.2951 0.1342 -0.2007
O3A O 0.2770(3) 0.65215(17) 0.42748(18)
O7A O -0.0433(3) 0.78747(16) 0.42164(17)
O11A O -0.3420(3) 0.61648(17) 0.38487(18)
O9A O -0.1055(3) -0.06204(16) 0.55535(17)
O14A O 0.2358(3) 0.05239(17) 0.63301(17)
V2A V 1.02470(8) 0.35933(4) 0.61805(4)
V2A_2 V 0.02470(8) 0.35933(4) 0.61805(4)
V3A V 0.04257(8) -0.08831(4) 0.39931(4)
O17 O 0.3780(8) 0.6215(4) 0.1655(4)
loop_
_geom_bond_atom_site_label_1
_geom_bond_atom_site_label_2
_geom_bond_site_symmetry_1
_geom_bond_site_symmetry_2
Se1 O6 1_555 1_555
Se2 O4 1_555 1_555
Se3 O3 1_555 1_555
Cu1 O6 1_555 1_555
V1 O1 1_555 1_555
V2 O2 1_555 1_555
V3 O4 1_555 1_555
O3 V2A 1_555 1_555
O5 Se3 1_555 1_555
O7 V1 1_555 1_555
O8 Se1 1_555 1_555
O9 V1 1_555 1_555
O10 V3 1_555 1_555
O11 Se3 1_555 1_555
O12 Se1 1_555 1_555
O13 Se2 1_555 1_555
O14 Se2 1_555 1_555
O15 Cu1 1_555 1_555
O16 Cu1 1_555 1_555
N1 Cu1 1_555 1_555
N2 Cu1 1_555 1_555
C1 N1 1_555 1_555
H1 C1 1_555 1_555
C2 C1 1_555 1_555
H2 C2 1_555 1_555
C3 C2 1_555 1_555
H3 C3 1_555 1_555
C4 C3 1_555 1_555
C5 N1 1_555 1_555
C6 N2 1_555 1_555
C7 C6 1_555 1_555
C8 C7 1_555 1_555
H4 C8 1_555 1_555
C9 C8 1_555 1_555
H5 C9 1_555 1_555
C10 N2 1_555 1_555
H6 C10 1_555 1_555
C11 C4 1_555 1_555
H7 C11 1_555 1_555
C12 C7 1_555 1_555
H8 C12 1_555 1_555
O3A V2 1_555 1_555
O7A V2 1_555 1_555
O11A V2 1_555 1_555
O9A V3 1_555 1_555
O14A V3 1_555 1_555
V2A_2 O7 1_555 1_555
V3A O9 1_555 1_555
V1 O8 1_555 1_555
V1 O5 1_555 1_555
V1 O13 1_555 1_555
V2 O12 1_555 1_555
V3 O7 1_555 1_555
V3 O9 1_555 1_555
O11 V2A_2 1_555 1_555
O14 V3A 1_555 1_555
C4 C5 1_555 1_555
C5 C6 1_555 1_555
C9 C10 1_555 1_555
C11 C12 1_555 1_555
O9A V3A 1_555 1_555

#END
