
#######################################################################
#
#                 Cambridge Crystallographic Data Centre
#                                CCDC 
#
#######################################################################
#
# If this CIF has been generated from an entry in the Cambridge 
# Structural Database, then it will include bibliographic, chemical, 
# crystal, experimental, refinement or atomic coordinate data resulting 
# from the CCDC's data processing and validation procedures.
#
#######################################################################

data_AKACOE
_symmetry_cell_setting           triclinic
_symmetry_space_group_name_H-M   'P -1'
_symmetry_Int_Tables_number      2
_space_group_name_Hall           '-P 1'
loop_
_symmetry_equiv_pos_site_id
_symmetry_equiv_pos_as_xyz
1 x,y,z
2 -x,-y,-z
_cell_length_a                   8.280(10)
_cell_length_b                   9.839(3)
_cell_length_c                   10.142(8)
_cell_angle_alpha                72.37(3)
_cell_angle_beta                 85.36(7)
_cell_angle_gamma                74.48(4)
_cell_volume                     758.719
loop_
_atom_site_label
_atom_site_type_symbol
_atom_site_fract_x
_atom_site_fract_y
_atom_site_fract_z
Cd1 Cd 0.0000 0.0000 0.0000
O1 O 0.1825(5) 0.2910(4) 0.6191(3)
O2 O 0.2433(4) -0.1780(4) -0.0002(3)
H1 H 0.234(6) -0.253(6) 0.021(5)
N1 N 0.0747(4) 0.0066(3) 0.2125(3)
N2 N 0.1626(4) 0.3704(4) 0.3887(3)
H2 H 0.193(6) 0.415(5) 0.333(5)
C1 C 0.1888(6) -0.1046(5) 0.2945(4)
H3 H 0.242(6) -0.192(6) 0.257(5)
C2 C 0.2541(6) -0.0910(5) 0.4088(5)
H4 H 0.354(7) -0.169(7) 0.436(6)
C3 C 0.2023(5) 0.0402(5) 0.4412(4)
H5 H 0.239(6) 0.050(5) 0.529(5)
C4 C 0.0861(4) 0.1559(4) 0.3576(4)
C5 C 0.0241(4) 0.1324(4) 0.2462(4)
H6 H -0.076(6) 0.196(6) 0.207(5)
C6 C 0.0251(5) 0.3049(5) 0.3837(4)
H7 H -0.025(6) 0.291(6) 0.474(5)
H8 H -0.055(6) 0.371(6) 0.308(5)
C7 C 0.2301(5) 0.3602(4) 0.5066(3)
C8 C 0.3695(4) 0.4341(4) 0.4993(3)
C9 C 0.4562(5) 0.4842(4) 0.3778(3)
H9 H 0.432(5) 0.474(5) 0.291(4)
C10 C 0.4152(5) 0.4512(4) 0.6210(4)
H10 H 0.365(5) 0.415(5) 0.696(5)
C11 C 0.4079(6) -0.1681(7) -0.0359(6)
H11 H 0.4855 -0.2607 0.0105
H12 H 0.4304 -0.0915 -0.0039
C12 C 0.4367(10) -0.1349(12) -0.1842(8)
H13 H 0.5508 -0.1301 -0.2038
H14 H 0.3626 -0.0418 -0.2304
H15 H 0.4158 -0.2109 -0.2163
O6 O 0.1304(5) 0.1886(4) -0.1030(3)
H16 H 0.107(7) 0.219(7) -0.192(7)
H17 H 0.154(6) 0.246(6) -0.067(5)
C10A C 0.5848(5) 0.5488(4) 0.3790(4)
C8A C 0.6305(4) 0.5659(4) 0.5007(3)
C7A C 0.7699(5) 0.6398(4) 0.4934(3)
O1A O 0.8175(5) 0.7090(4) 0.3809(3)
N2A N 0.8374(4) 0.6296(4) 0.6113(3)
H2A H 0.807(6) 0.585(5) 0.667(5)
C6A C 0.9749(5) 0.6951(5) 0.6163(4)
C4A C 0.9139(4) 0.8441(4) 0.6424(4)
C3A C 0.7977(5) 0.9598(5) 0.5588(4)
C2A C 0.7459(6) 1.0910(5) 0.5912(5)
C1A C 0.8112(6) 1.1046(5) 0.7055(4)
N1A N 0.9253(4) 0.9934(3) 0.7875(3)
C5A C 0.9759(4) 0.8676(4) 0.7538(4)
H6A H 1.076(6) 0.804(6) 0.793(5)
H3A H 0.758(6) 1.192(6) 0.743(5)
H4A H 0.646(7) 1.169(7) 0.564(6)
H5A H 0.761(6) 0.950(5) 0.471(5)
H7A H 1.025(6) 0.709(6) 0.526(5)
H8A H 1.055(6) 0.629(6) 0.692(5)
C9A C 0.5438(5) 0.5158(4) 0.6222(3)
H9A H 0.568(5) 0.526(5) 0.709(4)
H10A H 0.635(5) 0.585(5) 0.304(5)
O2A O -0.2433(4) 0.1780(4) 0.0002(3)
H1A H -0.234(6) 0.253(6) -0.021(5)
C11A C -0.4079(6) 0.1681(7) 0.0359(6)
H11A H -0.4855 0.2607 -0.0105
H12A H -0.4304 0.0915 0.0039
C12A C -0.4367(10) 0.1349(12) 0.1842(8)
H13A H -0.5508 0.1301 0.2038
H14A H -0.3626 0.0418 0.2304
H15A H -0.4158 0.2109 0.2163
O6A O -0.1304(5) -0.1886(4) 0.1030(3)
H16A H -0.107(7) -0.219(7) 0.192(7)
H17A H -0.154(6) -0.246(6) 0.067(5)
N1A_2 N -0.0747(4) -0.0066(3) -0.2125(3)
Cd1_2 Cd 1.0000 1.0000 1.0000
O3 O 0.1725(5) 0.3580(4) 0.0597(4)
O4 O 0.2267(5) 0.5412(3) 0.1042(3)
O5 O 0.2536(5) 0.5258(4) -0.1033(3)
N3 N 0.2186(4) 0.4747(3) 0.0176(3)
loop_
_geom_bond_atom_site_label_1
_geom_bond_atom_site_label_2
_geom_bond_site_symmetry_1
_geom_bond_site_symmetry_2
Cd1 O2 1_555 1_555
O1 C7 1_555 1_555
O2 H1 1_555 1_555
O3 N3 1_555 1_555
O4 N3 1_555 1_555
O5 N3 1_555 1_555
N1 Cd1 1_555 1_555
N2 H2 1_555 1_555
C1 N1 1_555 1_555
H3 C1 1_555 1_555
C2 C1 1_555 1_555
H4 C2 1_555 1_555
C3 C2 1_555 1_555
H5 C3 1_555 1_555
C4 C3 1_555 1_555
C5 N1 1_555 1_555
H6 C5 1_555 1_555
C6 N2 1_555 1_555
H7 C6 1_555 1_555
H8 C6 1_555 1_555
C7 N2 1_555 1_555
C8 C7 1_555 1_555
C9 C8 1_555 1_555
H9 C9 1_555 1_555
C10 C8 1_555 1_555
H10 C10 1_555 1_555
C11 O2 1_555 1_555
H11 C11 1_555 1_555
H12 C11 1_555 1_555
C12 C11 1_555 1_555
H13 C12 1_555 1_555
H14 C12 1_555 1_555
H15 C12 1_555 1_555
O6 Cd1 1_555 1_555
H16 O6 1_555 1_555
H17 O6 1_555 1_555
C10A C9 1_555 1_555
C8A C10A 1_555 1_555
C7A C8A 1_555 1_555
O1A C7A 1_555 1_555
N2A C7A 1_555 1_555
H2A N2A 1_555 1_555
C6A N2A 1_555 1_555
C4A C6A 1_555 1_555
C3A C4A 1_555 1_555
C2A C3A 1_555 1_555
C1A C2A 1_555 1_555
N1A C1A 1_555 1_555
C5A C4A 1_555 1_555
H6A C5A 1_555 1_555
H3A C1A 1_555 1_555
H4A C2A 1_555 1_555
H5A C3A 1_555 1_555
H7A C6A 1_555 1_555
H8A C6A 1_555 1_555
C9A C10 1_555 1_555
H9A C9A 1_555 1_555
H10A C10A 1_555 1_555
O2A Cd1 1_555 1_555
H1A O2A 1_555 1_555
C11A O2A 1_555 1_555
H11A C11A 1_555 1_555
H12A C11A 1_555 1_555
C12A C11A 1_555 1_555
H13A C12A 1_555 1_555
H14A C12A 1_555 1_555
H15A C12A 1_555 1_555
O6A Cd1 1_555 1_555
H16A O6A 1_555 1_555
H17A O6A 1_555 1_555
N1A_2 Cd1 1_555 1_555
Cd1_2 N1A 1_555 1_555
C4 C6 1_555 1_555
C4 C5 1_555 1_555
C8A C9A 1_555 1_555
N1A C5A 1_555 1_555

#END
