
#######################################################################
#
#                 Cambridge Crystallographic Data Centre
#                                CCDC 
#
#######################################################################
#
# If this CIF has been generated from an entry in the Cambridge 
# Structural Database, then it will include bibliographic, chemical, 
# crystal, experimental, refinement or atomic coordinate data resulting 
# from the CCDC's data processing and validation procedures.
#
#######################################################################

data_AKAMII
_symmetry_cell_setting           monoclinic
_symmetry_space_group_name_H-M   'C 2/m'
_symmetry_Int_Tables_number      12
_space_group_name_Hall           '-C 2y'
loop_
_symmetry_equiv_pos_site_id
_symmetry_equiv_pos_as_xyz
1 x,y,z
2 1/2+x,1/2+y,z
3 x,-y,z
4 1/2+x,1/2-y,z
5 -x,-y,-z
6 1/2-x,1/2-y,-z
7 -x,y,-z
8 1/2-x,1/2+y,-z
_cell_length_a                   12.7380(9)
_cell_length_b                   7.9000(3)
_cell_length_c                   8.3490(5)
_cell_angle_alpha                90.00
_cell_angle_beta                 121.975(3)
_cell_angle_gamma                90.00
_cell_volume                     712.692
loop_
_atom_site_label
_atom_site_type_symbol
_atom_site_fract_x
_atom_site_fract_y
_atom_site_fract_z
Sn1 Sn 0.19563(4) 0.0000 0.84429(5)
Sn2 Sn 0.0000 0.28979(5) 0.0000
O1 O 0.2265(3) 0.2982(4) 0.8083(4)
O2 O 0.0772(4) 0.2932(4) 0.3490(5)
O3 O 0.1524(5) 0.0000 0.5400(7)
O4 O 0.3839(4) 0.0000 0.9522(6)
C1 C 0.1844(4) 0.4074(5) 0.6798(5)
C2 C 0.1170(4) 0.4073(6) 0.4718(6)
H1 H 0.1136 0.0960 0.4619
C1B C 0.1844(4) 0.5926(5) 0.6798(5)
O1B O 0.2265(3) 0.7018(4) 0.8083(4)
C2B C 0.1170(4) 0.5927(6) 0.4718(6)
O2B O 0.0772(4) 0.7068(4) 0.3490(5)
H1B H 0.1136 -0.0960 0.4619
O1B_2 O 0.2265(3) -0.2982(4) 0.8083(4)
O2F O -0.0772(4) 0.2932(4) -0.3490(5)
O4A O -0.1161(4) 0.5000 -0.0478(6)
O4E O 0.1161(4) 0.5000 0.0478(6)
Sn2A Sn 0.5000 -0.21021(5) 1.0000
Sn2C Sn 0.5000 0.21021(5) 1.0000
Sn1_2 Sn 0.19563(4) 1.0000 0.84429(5)
Sn2B Sn 0.0000 0.71021(5) 0.0000
loop_
_geom_bond_atom_site_label_1
_geom_bond_atom_site_label_2
_geom_bond_site_symmetry_1
_geom_bond_site_symmetry_2
Sn1 O1 1_555 1_555
Sn2 O2 1_555 1_555
O1 C1 1_555 1_555
O2 C2 1_555 1_555
O3 Sn1 1_555 1_555
O4 Sn1 1_555 1_555
C1 C2 1_555 1_555
C2 C2B 1_555 1_555
H1 O3 1_555 1_555
C1B C1 1_555 1_555
O1B C1B 1_555 1_555
C2B C1B 1_555 1_555
O2B C2B 1_555 1_555
H1B O3 1_555 1_555
O1B_2 Sn1 1_555 1_555
O2F Sn2 1_555 1_555
O4A Sn2 1_555 1_555
O4E Sn2 1_555 1_555
Sn2A O4 1_555 1_555
Sn2C O4 1_555 1_555
Sn1_2 O1B 1_555 1_555
Sn2B O2B 1_555 1_555
O4A Sn2B 1_555 1_555
O4E Sn2B 1_555 1_555

#END
