
#######################################################################
#
#                 Cambridge Crystallographic Data Centre
#                                CCDC 
#
#######################################################################
#
# If this CIF has been generated from an entry in the Cambridge 
# Structural Database, then it will include bibliographic, chemical, 
# crystal, experimental, refinement or atomic coordinate data resulting 
# from the CCDC's data processing and validation procedures.
#
#######################################################################

data_AKAROT
_symmetry_cell_setting           triclinic
_symmetry_space_group_name_H-M   'P -1'
_symmetry_Int_Tables_number      2
_space_group_name_Hall           '-P 1'
loop_
_symmetry_equiv_pos_site_id
_symmetry_equiv_pos_as_xyz
1 x,y,z
2 -x,-y,-z
_cell_length_a                   9.242(4)
_cell_length_b                   10.137(5)
_cell_length_c                   10.144(6)
_cell_angle_alpha                77.58(1)
_cell_angle_beta                 77.64(1)
_cell_angle_gamma                71.480(10)
_cell_volume                     869.08
loop_
_atom_site_label
_atom_site_type_symbol
_atom_site_fract_x
_atom_site_fract_y
_atom_site_fract_z
Ni1 Ni 0.06409(5) 0.10993(4) 0.13452(4)
N1 N -0.1333(3) 0.2869(3) 0.1317(3)
N2 N -0.7479(3) 0.9258(3) 0.1387(3)
O1 O 0.1842(3) 0.2300(3) 0.2039(2)
O2 O 0.0452(3) 0.1026(3) 0.3473(2)
O3 O 0.0859(3) 0.0091(3) 0.8413(2)
O4 O 0.1256(3) 0.1749(2) 0.9319(2)
C1 C 0.1277(4) 0.1864(3) 0.3252(3)
C2 C 0.1543(5) 0.2360(4) 0.4455(3)
C3 C 0.1289(4) 0.1593(4) 0.5757(3)
H1 H 0.1003 0.0739 0.5867
C4 C 0.1453(4) 0.2072(4) 0.6909(3)
C5 C 0.1152(4) 0.1230(3) 0.8320(3)
C6 C 0.1853(6) 0.3312(5) 0.6738(4)
H2 H 0.1949 0.3646 0.7523
C7 C 0.2121(7) 0.4075(5) 0.5432(4)
H3 H 0.2414 0.4925 0.5319
C8 C 0.1967(6) 0.3591(5) 0.4282(4)
H4 H 0.2149 0.4109 0.3382
C9 C -0.1355(5) 0.3993(4) 0.0351(4)
H5 H -0.0479 0.3947 -0.0363
C10 C -0.2571(5) 0.5222(4) 0.0320(4)
H6 H -0.2528 0.6000 -0.0404
C11 C -0.3857(4) 0.5331(4) 0.1342(4)
C12 C -0.3837(5) 0.4137(4) 0.2344(4)
H7 H -0.4704 0.4146 0.3063
C13 C -0.2585(5) 0.2952(4) 0.2302(4)
H8 H -0.2603 0.2149 0.3002
C14 C -0.5119(4) 0.6669(4) 0.1364(4)
C15 C -0.5209(5) 0.7752(4) 0.0251(4)
H9 H -0.4458 0.7625 -0.0561
C16 C -0.6371(5) 0.9003(4) 0.0303(4)
H10 H -0.6390 0.9733 -0.0479
C17 C -0.7399(5) 0.8228(4) 0.2459(4)
H11 H -0.8165 0.8385 0.3258
C18 C -0.6270(5) 0.6945(4) 0.2482(4)
H12 H -0.6278 0.6240 0.3283
N2_2 N 0.2521(3) -0.0742(3) 0.1387(3)
O3A O -0.0859(3) -0.0091(3) 0.1587(2)
O4_2 O 0.1256(3) 0.1749(2) -0.0681(2)
Ni1_2 Ni -0.93591(5) 1.10993(4) 0.13452(4)
Ni1A Ni -0.06409(5) -0.10993(4) 0.86548(4)
Ni1_3 Ni 0.06409(5) 0.10993(4) 1.13452(4)
loop_
_geom_bond_atom_site_label_1
_geom_bond_atom_site_label_2
_geom_bond_site_symmetry_1
_geom_bond_site_symmetry_2
Ni1 N1 1_555 1_555
N1 C9 1_555 1_555
N2 C16 1_555 1_555
O1 Ni1 1_555 1_555
O2 Ni1 1_555 1_555
O3 C5 1_555 1_555
O4 C5 1_555 1_555
C1 O1 1_555 1_555
C2 C1 1_555 1_555
C3 C2 1_555 1_555
H1 C3 1_555 1_555
C4 C3 1_555 1_555
C5 C4 1_555 1_555
C6 C4 1_555 1_555
H2 C6 1_555 1_555
C7 C6 1_555 1_555
H3 C7 1_555 1_555
C8 C2 1_555 1_555
H4 C8 1_555 1_555
C9 H5 1_555 1_555
C10 C9 1_555 1_555
H6 C10 1_555 1_555
C11 C10 1_555 1_555
C12 C11 1_555 1_555
H7 C12 1_555 1_555
C13 N1 1_555 1_555
H8 C13 1_555 1_555
C14 C11 1_555 1_555
C15 C14 1_555 1_555
H9 C15 1_555 1_555
C16 C15 1_555 1_555
H10 C16 1_555 1_555
C17 N2 1_555 1_555
H11 C17 1_555 1_555
C18 C14 1_555 1_555
H12 C18 1_555 1_555
N2_2 Ni1 1_555 1_555
O3A Ni1 1_555 1_555
O4_2 Ni1 1_555 1_555
Ni1_2 N2 1_555 1_555
Ni1A O3 1_555 1_555
Ni1_3 O4 1_555 1_555
O2 C1 1_555 1_555
C7 C8 1_555 1_555
C12 C13 1_555 1_555
C17 C18 1_555 1_555

#END
