
#######################################################################
#
#                 Cambridge Crystallographic Data Centre
#                                CCDC 
#
#######################################################################
#
# If this CIF has been generated from an entry in the Cambridge 
# Structural Database, then it will include bibliographic, chemical, 
# crystal, experimental, refinement or atomic coordinate data resulting 
# from the CCDC's data processing and validation procedures.
#
#######################################################################

data_AKAROT01
_symmetry_cell_setting           triclinic
_symmetry_space_group_name_H-M   'P -1'
_symmetry_Int_Tables_number      2
_space_group_name_Hall           '-P 1'
loop_
_symmetry_equiv_pos_site_id
_symmetry_equiv_pos_as_xyz
1 x,y,z
2 -x,-y,-z
_cell_length_a                   9.1738(3)
_cell_length_b                   9.9099(3)
_cell_length_c                   10.0623(4)
_cell_angle_alpha                79.141(2)
_cell_angle_beta                 71.968(2)
_cell_angle_gamma                72.471(2)
_cell_volume                     824.875
loop_
_atom_site_label
_atom_site_type_symbol
_atom_site_fract_x
_atom_site_fract_y
_atom_site_fract_z
O1 O -0.09616(15) 0.99799(12) 0.15881(13)
C1 C -0.12333(19) 0.88067(17) 0.16551(18)
O2 O -0.13845(14) 0.83168(12) 0.06512(12)
Ni1 Ni 0.05622(2) 1.11573(2) 0.14411(2)
C2 C -0.2573(2) 1.52070(19) 0.0369(2)
H1 H -0.2474 1.5929 -0.0397
O3 O -0.01168(15) 0.87483(12) 0.63791(12)
N1 N -0.14000(18) 1.29277(15) 0.14329(16)
N2 N -0.75819(18) 1.93014(16) 0.15104(16)
C3 C -0.1349(2) 1.39960(18) 0.03953(19)
H2 H -0.0415 1.3913 -0.0366
C4 C -0.3954(2) 1.53670(18) 0.14694(19)
C5 C -0.4029(2) 1.42436(19) 0.2545(2)
H3 H -0.4953 1.4294 0.3314
C6 C -0.2748(2) 1.30595(19) 0.24791(19)
H4 H -0.2826 1.2301 0.3211
C7 C -0.6266(2) 1.7214(2) 0.2743(2)
H5 H -0.6192 1.6678 0.3620
C8 C -0.5227(2) 1.67029(19) 0.1498(2)
C9 C -0.7402(2) 1.8496(2) 0.2709(2)
H6 H -0.8087 1.8823 0.3574
C10 C -0.5407(3) 1.7554(2) 0.0266(2)
H7 H -0.4726 1.7264 -0.0615
C11 C -0.6570(3) 1.8816(2) 0.0316(2)
H8 H -0.6660 1.9377 -0.0545
O4 O -0.17310(15) 0.76027(13) 0.79233(13)
C12 C -0.1821(2) 0.6238(2) 0.56420(19)
H9 H -0.1969 0.5681 0.6528
C13 C -0.1386(2) 0.74956(18) 0.54800(18)
C14 C -0.1215(2) 0.83326(18) 0.41932(18)
H10 H -0.0937 0.9203 0.4092
C15 C -0.1063(2) 0.79716(17) 0.66661(17)
C16 C -0.1451(2) 0.79003(18) 0.30541(18)
C17 C -0.1857(2) 0.6622(2) 0.32203(19)
H11 H -0.2010 0.6315 0.2446
C18 C -0.2039(2) 0.5795(2) 0.4502(2)
H12 H -0.2314 0.4924 0.4604
O2A O 0.13845(14) 1.16832(12) -0.06512(12)
Ni1A Ni -0.05622(2) 0.88427(2) -0.14411(2)
Ni1A_2 Ni -0.05622(2) 0.88427(2) 0.85589(2)
Ni1_2 Ni -0.94378(2) 2.11573(2) 0.14411(2)
O3A O 0.01168(15) 1.12517(12) 0.36209(12)
N2_2 N 0.24181(18) 0.93014(16) 0.15104(16)
O4A O 0.17310(15) 1.23973(13) 0.20767(13)
loop_
_geom_bond_atom_site_label_1
_geom_bond_atom_site_label_2
_geom_bond_site_symmetry_1
_geom_bond_site_symmetry_2
O1 C1 1_555 1_555
C1 O2 1_555 1_555
O2 Ni1A 1_555 1_555
Ni1 O1 1_555 1_555
C2 H1 1_555 1_555
O3 C15 1_555 1_555
N1 Ni1 1_555 1_555
N2 C9 1_555 1_555
C3 C2 1_555 1_555
H2 C3 1_555 1_555
C4 C2 1_555 1_555
C5 C4 1_555 1_555
H3 C5 1_555 1_555
C6 N1 1_555 1_555
H4 C6 1_555 1_555
C7 H5 1_555 1_555
C8 C4 1_555 1_555
C9 C7 1_555 1_555
H6 C9 1_555 1_555
C10 C8 1_555 1_555
H7 C10 1_555 1_555
C11 N2 1_555 1_555
H8 C11 1_555 1_555
O4 C15 1_555 1_555
C12 H9 1_555 1_555
C13 C12 1_555 1_555
C14 C13 1_555 1_555
H10 C14 1_555 1_555
C15 C13 1_555 1_555
C16 C1 1_555 1_555
C17 C16 1_555 1_555
H11 C17 1_555 1_555
C18 C12 1_555 1_555
H12 C18 1_555 1_555
O2A Ni1 1_555 1_555
Ni1A_2 O3 1_555 1_555
Ni1_2 N2 1_555 1_555
O3A Ni1 1_555 1_555
N2_2 Ni1 1_555 1_555
O4A Ni1 1_555 1_555
N1 C3 1_555 1_555
C5 C6 1_555 1_555
C7 C8 1_555 1_555
C10 C11 1_555 1_555
O4 Ni1A_2 1_555 1_555
C14 C16 1_555 1_555
C17 C18 1_555 1_555

#END
