
#######################################################################
#
#                 Cambridge Crystallographic Data Centre
#                                CCDC 
#
#######################################################################
#
# If this CIF has been generated from an entry in the Cambridge 
# Structural Database, then it will include bibliographic, chemical, 
# crystal, experimental, refinement or atomic coordinate data resulting 
# from the CCDC's data processing and validation procedures.
#
#######################################################################

data_AKASOV
_symmetry_cell_setting           monoclinic
_symmetry_space_group_name_H-M   'P 21/n'
_symmetry_Int_Tables_number      14
_space_group_name_Hall           '-P 2yn'
loop_
_symmetry_equiv_pos_site_id
_symmetry_equiv_pos_as_xyz
1 x,y,z
2 1/2-x,1/2+y,1/2-z
3 -x,-y,-z
4 1/2+x,1/2-y,1/2+z
_cell_length_a                   6.9682(10)
_cell_length_b                   20.6983(10)
_cell_length_c                   11.3079(10)
_cell_angle_alpha                90
_cell_angle_beta                 95.643(10)
_cell_angle_gamma                90
_cell_volume                     1623.03
loop_
_atom_site_label
_atom_site_type_symbol
_atom_site_fract_x
_atom_site_fract_y
_atom_site_fract_z
Ba1 Ba 0.64990(3) 0.234077(8) 0.607962(15)
C1 C 0.7542(4) 0.38787(14) 0.4857(3)
C2 C 0.7233(4) 0.40223(14) 0.6110(3)
C3 C 0.7204(4) 0.47205(14) 0.6252(3)
C4 C 0.7456(4) 0.50085(14) 0.5090(3)
C5 C 0.7699(4) 0.44849(14) 0.4242(3)
C6 C 0.7998(4) 0.45717(14) 0.3051(3)
C7 C 0.8091(5) 0.51951(16) 0.2510(3)
C8 C 0.8240(4) 0.40329(16) 0.2287(3)
C9 C 0.6960(4) 0.50508(14) 0.7283(3)
C10 C 0.6861(5) 0.57415(16) 0.7336(3)
C11 C 0.6850(5) 0.47266(16) 0.8400(3)
O1 O 0.7628(3) 0.33109(10) 0.44647(18)
O2 O 0.7001(3) 0.35998(10) 0.68696(18)
O3 O 0.7465(3) 0.55959(10) 0.4866(2)
O4 O 0.5327(4) 0.24327(15) 0.8347(2)
O5 O 0.8820(6) 0.15411(14) 0.4702(3)
O6 O 1.0410(4) 0.25448(17) 0.6936(3)
O7 O 0.4439(6) 0.1844(2) 0.4102(3)
O8 O 0.3031(4) 0.30545(15) 0.5403(3)
N1 N 0.8183(5) 0.56818(16) 0.2032(3)
N2 N 0.8452(5) 0.36032(15) 0.1662(2)
N3 N 0.6740(5) 0.62894(14) 0.7450(3)
N4 N 0.6757(5) 0.44895(17) 0.9307(3)
H1 H 0.502(6) 0.275(2) 0.860(4)
H2 H 0.459(7) 0.218(2) 0.861(4)
H3 H 0.963(6) 0.136(2) 0.487(4)
H4 H 0.799(9) 0.130(3) 0.422(6)
H5 H 1.082(9) 0.222(3) 0.707(6)
H6 H 1.113(10) 0.271(3) 0.660(6)
H7 H 0.391(15) 0.159(5) 0.410(9)
H8 H 0.473(7) 0.194(3) 0.349(5)
H9 H 0.300(7) 0.338(2) 0.538(4)
H10 H 0.248(8) 0.290(3) 0.475(5)
Ba1A Ba 0.85010(3) 0.734077(8) 0.892038(15)
Ba1C Ba 1.14990(3) 0.265923(8) 0.107962(15)
N2C N 0.3452(5) 0.13968(15) 0.6662(2)
N3A N 0.8260(5) 0.12894(14) 0.7550(3)
loop_
_geom_bond_atom_site_label_1
_geom_bond_atom_site_label_2
_geom_bond_site_symmetry_1
_geom_bond_site_symmetry_2
Ba1 O1 1_555 1_555
C1 C2 1_555 1_555
C2 C3 1_555 1_555
C3 C4 1_555 1_555
C4 C5 1_555 1_555
C5 C1 1_555 1_555
C6 C5 1_555 1_555
C7 C6 1_555 1_555
C8 C6 1_555 1_555
C9 C3 1_555 1_555
C10 C9 1_555 1_555
C11 C9 1_555 1_555
O1 C1 1_555 1_555
O2 Ba1 1_555 1_555
O3 C4 1_555 1_555
O4 Ba1 1_555 1_555
O5 Ba1 1_555 1_555
O6 Ba1 1_555 1_555
O7 Ba1 1_555 1_555
O8 Ba1 1_555 1_555
N1 C7 1_555 1_555
N2 C8 1_555 1_555
N3 C10 1_555 1_555
N4 C11 1_555 1_555
H1 O4 1_555 1_555
H2 O4 1_555 1_555
H3 O5 1_555 1_555
H4 O5 1_555 1_555
H5 O6 1_555 1_555
H6 O6 1_555 1_555
H7 O7 1_555 1_555
H8 O7 1_555 1_555
H9 O8 1_555 1_555
H10 O8 1_555 1_555
Ba1A N3 1_555 1_555
Ba1C N2 1_555 1_555
N2C Ba1 1_555 1_555
N3A Ba1 1_555 1_555
C2 O2 1_555 1_555

#END
