
#######################################################################
#
#                 Cambridge Crystallographic Data Centre
#                                CCDC 
#
#######################################################################
#
# If this CIF has been generated from an entry in the Cambridge 
# Structural Database, then it will include bibliographic, chemical, 
# crystal, experimental, refinement or atomic coordinate data resulting 
# from the CCDC's data processing and validation procedures.
#
#######################################################################

data_AKECUO
_symmetry_cell_setting           monoclinic
_symmetry_space_group_name_H-M   'C 2/m'
_symmetry_Int_Tables_number      12
_space_group_name_Hall           '-C 2y'
loop_
_symmetry_equiv_pos_site_id
_symmetry_equiv_pos_as_xyz
1 x,y,z
2 1/2+x,1/2+y,z
3 x,-y,z
4 1/2+x,1/2-y,z
5 -x,-y,-z
6 1/2-x,1/2-y,-z
7 -x,y,-z
8 1/2-x,1/2+y,-z
_cell_length_a                   14.1221(6)
_cell_length_b                   14.6697(6)
_cell_length_c                   17.6379(8)
_cell_angle_alpha                90
_cell_angle_beta                 100.274(2)
_cell_angle_gamma                90
_cell_volume                     3595.4
loop_
_atom_site_label
_atom_site_type_symbol
_atom_site_fract_x
_atom_site_fract_y
_atom_site_fract_z
U1 U 0.7500 0.7500 0.5000
U2 U 0.476885(16) 0.766666(16) 0.395190(13)
Zn1 Zn 0.45919(8) 1.0000 0.30267(6)
Zn2 Zn 0.38554(8) 0.5000 0.04362(6)
C1 C 0.2599(7) 1.0000 0.2191(5)
H1 H 0.2946 1.0000 0.1790
C2 C 0.2575(8) 1.0000 0.3486(5)
H2 H 0.2899 1.0000 0.3993
C3 C 0.1582(8) 1.0000 0.3353(6)
H3 H 0.1249 1.0000 0.3763
C4 C 0.1087(7) 1.0000 0.2601(6)
H4 H 0.0418 1.0000 0.2495
C5 C 0.1616(6) 1.0000 0.2010(5)
C6 C 0.1142(7) 1.0000 0.1159(5)
C7 C 0.6348(8) 1.0000 0.2334(5)
H5 H 0.5886 1.0000 0.1886
C8 C 0.6749(7) 1.0000 0.3666(5)
H6 H 0.6560 1.0000 0.4145
C9 C 0.7709(8) 1.0000 0.3646(6)
H7 H 0.8162 1.0000 0.4099
C10 C 0.7997(7) 1.0000 0.2929(6)
H8 H 0.8647 1.0000 0.2896
C11 C 0.7303(7) 1.0000 0.2267(5)
C12 C 0.7561(9) 1.0000 0.1462(6)
C13 C 0.4111(5) 0.6882(4) 0.1120(4)
H9 H 0.4258 0.6513 0.1554
C14 C 0.3698(6) 0.7035(5) -0.0193(4)
H10 H 0.3554 0.6768 -0.0678
C15 C 0.3695(6) 0.7974(5) -0.0145(4)
H11 H 0.3551 0.8331 -0.0587
C16 C 0.3910(6) 0.8369(4) 0.0572(4)
H12 H 0.3913 0.9001 0.0621
C17 C 0.4121(5) 0.7827(4) 0.1217(3)
C18 C 0.4360(4) 0.8216(4) 0.2026(3)
C19 C 0.7112(5) 0.7537(4) 0.3252(4)
C20 C 0.6916(6) 0.7518(5) 0.2388(4)
H13 H 0.7506 0.7407 0.2203
H14 H 0.6653 0.8094 0.2195
H15 H 0.6464 0.7042 0.2212
O1 O 0.1722(5) 1.0000 0.0690(4)
O2 O 0.0260(5) 1.0000 0.0994(4)
O3 O 0.8461(6) 1.0000 0.1455(4)
O4 O 0.6917(6) 1.0000 0.0889(4)
O5 O 0.4420(3) 0.9048(3) 0.2090(2)
O6 O 0.4467(4) 0.7625(3) 0.2570(3)
O7 O 0.4725(3) 0.8906(3) 0.3873(2)
O8 O 0.4783(3) 0.6457(3) 0.3909(3)
O9 O 0.6436(3) 0.7668(3) 0.3626(3)
O10 O 0.7964(3) 0.7419(3) 0.3623(3)
O11 O 0.7328(3) 0.6302(3) 0.4937(3)
O12 O 0.9086(3) 0.7307(3) 0.4999(2)
N1 N 0.3094(6) 1.0000 0.2921(4)
N2 N 0.6050(6) 1.0000 0.3024(4)
N3 N 0.3896(4) 0.6484(4) 0.0423(3)
C19E C 0.7888(5) 0.7463(4) 0.6748(4)
C20E C 0.8084(6) 0.7482(5) 0.7612(4)
H13E H 0.7494 0.7593 0.7797
H14E H 0.8347 0.6906 0.7805
H15E H 0.8536 0.7958 0.7788
O9E O 0.8564(3) 0.7332(3) 0.6374(3)
O10E O 0.7036(3) 0.7581(3) 0.6377(3)
O11E O 0.7672(3) 0.8698(3) 0.5063(3)
O12E O 0.5914(3) 0.7693(3) 0.5001(2)
U2E U 1.023115(16) 0.733334(16) 0.604810(13)
C13E C 1.0889(5) 0.8118(4) 0.8880(4)
H9E H 1.0742 0.8487 0.8446
C14E C 1.1302(6) 0.7965(5) 1.0193(4)
H10E H 1.1446 0.8232 1.0678
C15E C 1.1305(6) 0.7026(5) 1.0145(4)
H11E H 1.1449 0.6669 1.0587
C16E C 1.1090(6) 0.6631(4) 0.9428(4)
H12E H 1.1087 0.5999 0.9379
C17E C 1.0879(5) 0.7173(4) 0.8783(3)
C18E C 1.0640(4) 0.6784(4) 0.7974(3)
O5E O 1.0580(3) 0.5952(3) 0.7910(2)
O6E O 1.0533(4) 0.7375(3) 0.7430(3)
N3E N 1.1104(4) 0.8516(4) 0.9577(3)
O7E O 1.0275(3) 0.6094(3) 0.6127(2)
O8E O 1.0217(3) 0.8543(3) 0.6091(3)
O10C O 0.2964(3) 0.7581(3) 0.3623(3)
O12C O 0.4086(3) 0.7693(3) 0.4999(2)
O5B O 0.4420(3) 1.0952(3) 0.2090(2)
O7B O 0.4725(3) 1.1094(3) 0.3873(2)
O1E O 0.3278(5) 0.5000 -0.0690(4)
O2A O 0.5260(5) 0.5000 0.0994(4)
O3A O 0.3461(6) 0.5000 0.1455(4)
N3B N 0.3896(4) 0.3516(4) 0.0423(3)
Zn2E Zn 0.11446(8) 1.0000 -0.04362(6)
Zn2A Zn -0.11446(8) 1.0000 0.04362(6)
Zn2A_2 Zn 0.88554(8) 1.0000 0.04362(6)
U2C U 0.976885(16) 0.733334(16) 0.395190(13)
U2F U 0.523115(16) 0.766666(16) 0.604810(13)
O10F O 1.2036(3) 0.7419(3) 0.6377(3)
O12F O 1.0914(3) 0.7307(3) 0.5001(2)
Zn1E Zn 1.04081(8) 0.5000 0.69733(6)
Zn2E_2 Zn 1.11446(8) 1.0000 0.95638(6)
loop_
_geom_bond_atom_site_label_1
_geom_bond_atom_site_label_2
_geom_bond_site_symmetry_1
_geom_bond_site_symmetry_2
U1 O9 1_555 1_555
U2 O6 1_555 1_555
Zn1 O5 1_555 1_555
Zn2 N3 1_555 1_555
C1 H1 1_555 1_555
C2 H2 1_555 1_555
C3 C2 1_555 1_555
H3 C3 1_555 1_555
C4 C3 1_555 1_555
H4 C4 1_555 1_555
C5 C1 1_555 1_555
C6 C5 1_555 1_555
C7 H5 1_555 1_555
C8 H6 1_555 1_555
C9 C8 1_555 1_555
H7 C9 1_555 1_555
C10 C9 1_555 1_555
H8 C10 1_555 1_555
C11 C7 1_555 1_555
C12 C11 1_555 1_555
C13 H9 1_555 1_555
C14 H10 1_555 1_555
C15 C14 1_555 1_555
H11 C15 1_555 1_555
C16 C15 1_555 1_555
H12 C16 1_555 1_555
C17 C13 1_555 1_555
C18 C17 1_555 1_555
C19 C20 1_555 1_555
C20 H13 1_555 1_555
H14 C20 1_555 1_555
H15 C20 1_555 1_555
O1 C6 1_555 1_555
O2 C6 1_555 1_555
O3 C12 1_555 1_555
O4 C12 1_555 1_555
O5 C18 1_555 1_555
O6 C18 1_555 1_555
O7 U2 1_555 1_555
O8 U2 1_555 1_555
O9 U2 1_555 1_555
O10 U1 1_555 1_555
O11 U1 1_555 1_555
O12 U1 1_555 1_555
N1 Zn1 1_555 1_555
N2 Zn1 1_555 1_555
N3 C13 1_555 1_555
C19E C20E 1_555 1_555
C20E H13E 1_555 1_555
H14E C20E 1_555 1_555
H15E C20E 1_555 1_555
O9E U1 1_555 1_555
O10E U1 1_555 1_555
O11E U1 1_555 1_555
O12E U1 1_555 1_555
U2E O12 1_555 1_555
C13E H9E 1_555 1_555
C14E H10E 1_555 1_555
C15E C14E 1_555 1_555
H11E C15E 1_555 1_555
C16E C15E 1_555 1_555
H12E C16E 1_555 1_555
C17E C13E 1_555 1_555
C18E C17E 1_555 1_555
O5E C18E 1_555 1_555
O6E U2E 1_555 1_555
N3E C13E 1_555 1_555
O7E U2E 1_555 1_555
O8E U2E 1_555 1_555
O10C U2 1_555 1_555
O12C U2 1_555 1_555
O5B Zn1 1_555 1_555
O7B Zn1 1_555 1_555
O1E Zn2 1_555 1_555
O2A Zn2 1_555 1_555
O3A Zn2 1_555 1_555
N3B Zn2 1_555 1_555
Zn2E O1 1_555 1_555
Zn2A O2 1_555 1_555
Zn2A_2 O3 1_555 1_555
U2C O10 1_555 1_555
U2F O10E 1_555 1_555
O10F U2E 1_555 1_555
O12F U2E 1_555 1_555
Zn1E O5E 1_555 1_555
Zn2E_2 N3E 1_555 1_555
U2 O12E 1_555 1_555
Zn1 O7 1_555 1_555
C1 N1 1_555 1_555
C2 N1 1_555 1_555
C4 C5 1_555 1_555
C7 N2 1_555 1_555
C8 N2 1_555 1_555
C10 C11 1_555 1_555
C14 N3 1_555 1_555
C16 C17 1_555 1_555
C19 O9 1_555 1_555
C19 O10 1_555 1_555
O12 U2C 1_555 1_555
C19E O9E 1_555 1_555
C19E O10E 1_555 1_555
O9E U2E 1_555 1_555
O12E U2F 1_555 1_555
C14E N3E 1_555 1_555
C16E C17E 1_555 1_555
C18E O6E 1_555 1_555
O7E Zn1E 1_555 1_555
O12C U2F 1_555 1_555
U2C O12F 1_555 1_555

#END
