
#######################################################################
#
#                 Cambridge Crystallographic Data Centre
#                                CCDC 
#
#######################################################################
#
# If this CIF has been generated from an entry in the Cambridge 
# Structural Database, then it will include bibliographic, chemical, 
# crystal, experimental, refinement or atomic coordinate data resulting 
# from the CCDC's data processing and validation procedures.
#
#######################################################################

data_AKEDAW
_symmetry_cell_setting           monoclinic
_symmetry_space_group_name_H-M   'C 2/c'
_symmetry_Int_Tables_number      15
_space_group_name_Hall           '-C 2yn'
loop_
_symmetry_equiv_pos_site_id
_symmetry_equiv_pos_as_xyz
1 x,y,z
2 -x,y,1/2-z
3 1/2+x,1/2+y,z
4 1/2-x,1/2+y,1/2-z
5 -x,-y,-z
6 x,-y,1/2+z
7 1/2-x,1/2-y,-z
8 1/2+x,1/2-y,1/2+z
_cell_length_a                   28.039(3)
_cell_length_b                   10.2064(12)
_cell_length_c                   22.716(3)
_cell_angle_alpha                90
_cell_angle_beta                 123.037(2)
_cell_angle_gamma                90
_cell_volume                     5449.74
loop_
_atom_site_label
_atom_site_type_symbol
_atom_site_fract_x
_atom_site_fract_y
_atom_site_fract_z
Cu1 Cu 0.700032(16) 0.59839(3) 0.512039(19)
C1 C 0.64315(12) 0.2297(3) 0.52486(15)
C2 C 0.66721(12) 0.1278(3) 0.50920(15)
H1 H 0.6895 0.1461 0.4914
C3 C 0.65825(12) -0.0012(3) 0.51995(14)
C4 C 0.62415(12) -0.0278(3) 0.54551(15)
H2 H 0.6180 -0.1140 0.5529
C5 C 0.59909(12) 0.0742(3) 0.56011(15)
C6 C 0.60894(12) 0.2033(3) 0.54986(15)
H3 H 0.5925 0.2717 0.5598
C7 C 0.65404(13) 0.3704(3) 0.51647(16)
C8 C 0.68644(12) -0.1125(3) 0.50568(15)
C9 C 0.52467(13) 0.1123(3) 0.58541(17)
C10 C 0.49455(12) 0.0510(3) 0.61634(16)
C11 C 0.49035(13) -0.0815(3) 0.62301(17)
H4 H 0.5070 -0.1405 0.6081
C12 C 0.46109(14) -0.1259(4) 0.65215(19)
H5 H 0.4587 -0.2158 0.6565
C13 C 0.44013(15) 0.0796(4) 0.66658(19)
H6 H 0.4227 0.1363 0.6813
C14 C 0.46813(14) 0.1335(4) 0.63854(18)
H7 H 0.4694 0.2239 0.6345
C15 C 0.72382(13) 0.6297(3) 0.65393(16)
H8 H 0.6924 0.6840 0.6372
C16 C 0.74536(15) 0.6094(3) 0.77595(17)
H9 H 0.7194 0.6826 0.7628
H10 H 0.7809 0.6328 0.8188
C17 C 0.72061(15) 0.4905(3) 0.78931(17)
H11 H 0.7468 0.4178 0.8023
H12 H 0.7172 0.5085 0.8288
C18 C 0.66330(14) 0.4504(4) 0.72736(17)
H13 H 0.6673 0.4265 0.6889
H14 H 0.6378 0.5249 0.7123
C19 C 0.63673(16) 0.3363(4) 0.74257(18)
H15 H 0.5998 0.3166 0.7008
H16 H 0.6606 0.2594 0.7541
C20 C 0.58793(15) 0.4389(4) 0.7972(2)
H17 H 0.5556 0.4711 0.7568
C21 C 0.60224(15) 0.4563(4) 0.86342(19)
H18 H 0.5809 0.5023 0.8766
C22 C 0.66817(14) 0.3411(3) 0.86864(17)
H19 H 0.7011 0.2922 0.8853
C23 C 0.79752(14) 0.5094(3) 0.72411(18)
H20 H 0.8261 0.4652 0.7635
C24 C 0.78898(14) 0.5108(3) 0.65965(18)
H21 H 0.8113 0.4672 0.6471
N1 N 0.43616(12) -0.0477(4) 0.67427(15)
N2 N 0.56551(10) 0.0399(2) 0.58707(13)
H22 H 0.5720 -0.0358 0.6067
N3 N 0.74267(11) 0.5859(2) 0.61565(13)
N4 N 0.75575(11) 0.5859(3) 0.71975(13)
N5 N 0.65352(11) 0.3955(2) 0.90897(14)
N6 N 0.62980(11) 0.3649(3) 0.80051(14)
O1 O 0.69553(9) 0.39526(19) 0.50972(11)
O2 O 0.62329(10) 0.4568(2) 0.51655(14)
O3 O 0.71515(9) -0.0870(2) 0.48080(12)
O4 O 0.67821(9) -0.22429(19) 0.52211(11)
O5 O 0.51193(11) 0.2218(3) 0.56020(15)
Cu1E Cu 0.700032(16) 0.40161(3) 1.012039(19)
Cu1F Cu 0.799968(16) -0.09839(3) 0.487961(19)
Cu1_2 Cu 0.700032(16) -0.40161(3) 0.512039(19)
N5E N 0.65352(11) 0.6045(2) 0.40897(14)
O3F O 0.78485(9) 0.5870(2) 0.51920(12)
O4_2 O 0.67821(9) 0.77571(19) 0.52211(11)
O6 O 0.56269(17) 0.6108(4) 0.5524(2)
H29 H 0.5838(18) 0.563(5) 0.544(2)
H31 H 0.5434(18) 0.638(5) 0.521(2)
O7 O 0.61404(9) 0.7950(2) 0.65657(12)
H23 H 0.6089 0.7797 0.6895
H24 H 0.5988 0.7361 0.6251
O8 O 0.50645(18) 0.5422(6) 0.6211(2)
H25 H 0.4736 0.5408 0.5877
H26 H 0.5260 0.5628 0.6042
O9 O 0.29840(13) 0.7088(3) 0.60455(16)
H30 H 0.2981(17) 0.666(4) 0.576(2)
H32 H 0.266(3) 0.761(6) 0.582(3)
O10 O 0.39564(16) 0.7687(4) 0.73321(17)
H27 H 0.3699(15) 0.747(3) 0.6975(18)
H28 H 0.409(2) 0.829(5) 0.723(3)
loop_
_geom_bond_atom_site_label_1
_geom_bond_atom_site_label_2
_geom_bond_site_symmetry_1
_geom_bond_site_symmetry_2
Cu1 N3 1_555 1_555
C1 C2 1_555 1_555
C2 H1 1_555 1_555
C3 C2 1_555 1_555
C4 C3 1_555 1_555
H2 C4 1_555 1_555
C5 C4 1_555 1_555
C6 C1 1_555 1_555
H3 C6 1_555 1_555
C7 C1 1_555 1_555
C8 C3 1_555 1_555
C9 C10 1_555 1_555
C10 C11 1_555 1_555
C11 H4 1_555 1_555
C12 C11 1_555 1_555
H5 C12 1_555 1_555
C13 H6 1_555 1_555
C14 C10 1_555 1_555
H7 C14 1_555 1_555
C15 H8 1_555 1_555
C16 H9 1_555 1_555
H10 C16 1_555 1_555
C17 C16 1_555 1_555
H11 C17 1_555 1_555
H12 C17 1_555 1_555
C18 C17 1_555 1_555
H13 C18 1_555 1_555
H14 C18 1_555 1_555
C19 C18 1_555 1_555
H15 C19 1_555 1_555
H16 C19 1_555 1_555
C20 H17 1_555 1_555
C21 C20 1_555 1_555
H18 C21 1_555 1_555
C22 H19 1_555 1_555
C23 H20 1_555 1_555
C24 C23 1_555 1_555
H21 C24 1_555 1_555
N1 C12 1_555 1_555
N2 C5 1_555 1_555
H22 N2 1_555 1_555
N3 C15 1_555 1_555
N4 C15 1_555 1_555
N5 C21 1_555 1_555
N6 C19 1_555 1_555
O1 Cu1 1_555 1_555
O2 C7 1_555 1_555
O3 C8 1_555 1_555
O4 C8 1_555 1_555
O5 C9 1_555 1_555
O6 H29 1_555 1_555
O7 H23 1_555 1_555
H24 O7 1_555 1_555
O8 H25 1_555 1_555
H26 O8 1_555 1_555
O9 H30 1_555 1_555
O10 H27 1_555 1_555
H28 O10 1_555 1_555
H31 O6 1_555 1_555
H32 O9 1_555 1_555
Cu1E N5 1_555 1_555
Cu1F O3 1_555 1_555
Cu1_2 O4 1_555 1_555
N5E Cu1 1_555 1_555
O3F Cu1 1_555 1_555
O4_2 Cu1 1_555 1_555
C5 C6 1_555 1_555
C7 O1 1_555 1_555
C9 N2 1_555 1_555
C13 C14 1_555 1_555
C13 N1 1_555 1_555
C16 N4 1_555 1_555
C20 N6 1_555 1_555
C22 N5 1_555 1_555
C22 N6 1_555 1_555
C23 N4 1_555 1_555
C24 N3 1_555 1_555

#END
