
#######################################################################
#
#                 Cambridge Crystallographic Data Centre
#                                CCDC 
#
#######################################################################
#
# If this CIF has been generated from an entry in the Cambridge 
# Structural Database, then it will include bibliographic, chemical, 
# crystal, experimental, refinement or atomic coordinate data resulting 
# from the CCDC's data processing and validation procedures.
#
#######################################################################

data_AKEGUT
_symmetry_cell_setting           monoclinic
_symmetry_space_group_name_H-M   'C 2/c'
_symmetry_Int_Tables_number      15
_space_group_name_Hall           '-C 2yn'
loop_
_symmetry_equiv_pos_site_id
_symmetry_equiv_pos_as_xyz
1 x,y,z
2 -x,y,1/2-z
3 1/2+x,1/2+y,z
4 1/2-x,1/2+y,1/2-z
5 -x,-y,-z
6 x,-y,1/2+z
7 1/2-x,1/2-y,-z
8 1/2+x,1/2-y,1/2+z
_cell_length_a                   16.5936(6)
_cell_length_b                   8.4438(3)
_cell_length_c                   7.4838(3)
_cell_angle_alpha                90
_cell_angle_beta                 97.649(2)
_cell_angle_gamma                90
_cell_volume                     1039.25
loop_
_atom_site_label
_atom_site_type_symbol
_atom_site_fract_x
_atom_site_fract_y
_atom_site_fract_z
Zn1 Zn 1.0000 -0.07765(4) 0.2500
O1 O 0.89943(8) 0.04802(17) 0.27162(18)
O2 O 0.97106(7) 0.16244(16) 0.50689(17)
O3 O 0.88909(8) 0.29952(17) 0.74397(19)
C1 C 0.82575(11) 0.1943(2) 0.4642(3)
C2 C 0.81990(11) 0.2758(2) 0.6249(3)
C3 C 0.74429(11) 0.3298(2) 0.6580(3)
H1 H 0.7401 0.3848 0.7672
C4 C 0.90393(11) 0.1308(2) 0.4121(3)
C5 C 0.88121(14) 0.3818(3) 0.9077(3)
H2 H 0.8602 0.4887 0.8795
H3 H 0.9345 0.3890 0.9814
H4 H 0.8435 0.3243 0.9745
Zn1B Zn 0.5000 0.42235(4) 0.2500
Zn1D Zn 1.0000 0.07765(4) 0.7500
Zn1F Zn 0.5000 0.57765(4) 0.7500
O1F O 0.60057(8) 0.45198(17) 0.72838(18)
O1A O 1.10057(8) 0.04802(17) 0.22838(18)
O2F O 0.52894(7) 0.33756(16) 0.49311(17)
O2D O 1.02894(7) -0.16244(16) 0.49311(17)
O2E O 0.97106(7) -0.16244(16) 0.00689(17)
O3F O 0.61091(8) 0.20048(17) 0.25603(19)
C1F C 0.67425(11) 0.3057(2) 0.5358(3)
C2F C 0.68010(11) 0.2242(2) 0.3751(3)
C3F C 0.75571(11) 0.1702(2) 0.3420(3)
H1F H 0.7599 0.1152 0.2328
C4F C 0.59607(11) 0.3692(2) 0.5879(3)
C5F C 0.61879(14) 0.1182(3) 0.0923(3)
H2F H 0.6398 0.0113 0.1205
H3F H 0.5655 0.1110 0.0186
H4F H 0.6565 0.1757 0.0255
loop_
_geom_bond_atom_site_label_1
_geom_bond_atom_site_label_2
_geom_bond_site_symmetry_1
_geom_bond_site_symmetry_2
Zn1 O1 1_555 1_555
O1 C4 1_555 1_555
O2 C4 1_555 1_555
O3 C2 1_555 1_555
C1 C2 1_555 1_555
C2 C3 1_555 1_555
C3 H1 1_555 1_555
C4 C1 1_555 1_555
C5 O3 1_555 1_555
H2 C5 1_555 1_555
H3 C5 1_555 1_555
H4 C5 1_555 1_555
Zn1B O2F 1_555 1_555
Zn1D O2 1_555 1_555
Zn1F O1F 1_555 1_555
O1F C4F 1_555 1_555
O1A Zn1 1_555 1_555
O2F C4F 1_555 1_555
O2D Zn1 1_555 1_555
O2E Zn1 1_555 1_555
O3F C2F 1_555 1_555
C1F C3 1_555 1_555
C2F C1F 1_555 1_555
C3F C1 1_555 1_555
H1F C3F 1_555 1_555
C4F C1F 1_555 1_555
C5F O3F 1_555 1_555
H2F C5F 1_555 1_555
H3F C5F 1_555 1_555
H4F C5F 1_555 1_555
C2F C3F 1_555 1_555

#END
