
#######################################################################
#
#                 Cambridge Crystallographic Data Centre
#                                CCDC 
#
#######################################################################
#
# If this CIF has been generated from an entry in the Cambridge 
# Structural Database, then it will include bibliographic, chemical, 
# crystal, experimental, refinement or atomic coordinate data resulting 
# from the CCDC's data processing and validation procedures.
#
#######################################################################

data_AKESUE
_symmetry_cell_setting           monoclinic
_symmetry_space_group_name_H-M   'P 21/n'
_symmetry_Int_Tables_number      14
_space_group_name_Hall           '-P 2yn'
loop_
_symmetry_equiv_pos_site_id
_symmetry_equiv_pos_as_xyz
1 x,y,z
2 1/2+x,1/2-y,1/2+z
3 -x,-y,-z
4 1/2-x,1/2+y,1/2-z
_cell_length_a                   10.1515(11)
_cell_length_b                   11.8278(13)
_cell_length_c                   17.1067(19)
_cell_angle_alpha                90
_cell_angle_beta                 98.700(3)
_cell_angle_gamma                90
_cell_volume                     2030.37
loop_
_atom_site_label
_atom_site_type_symbol
_atom_site_fract_x
_atom_site_fract_y
_atom_site_fract_z
Co1 Co 0.94235(10) 0.16259(10) 0.12120(6)
Co2 Co 0.93501(12) -0.09616(11) 0.04326(7)
O1 O 0.9325(6) 0.0605(6) 0.2132(4)
O2 O 1.0635(6) -0.0465(6) 0.1500(4)
O3 O 0.9082(6) 0.0784(5) 0.0216(4)
O4 O 0.6986(6) -0.2276(6) 0.3730(4)
O5 O 1.2997(6) -0.3598(6) 0.4428(4)
O6 O 1.3906(6) -0.2545(6) 0.3570(4)
N1 N 0.7669(9) -0.1294(8) 0.1017(5)
N2 N 0.9658(9) -0.2659(7) 0.0824(5)
C1 C 0.9300(9) -0.2078(8) 0.3779(6)
C2 C 1.1433(9) -0.1591(9) 0.2995(6)
C3 C 0.6641(10) -0.0571(11) 0.1018(7)
H1 H 0.6685 0.0154 0.0813
C4 C 0.9148(9) -0.1299(8) 0.3158(5)
C5 C 1.0230(9) -0.1052(9) 0.2771(5)
C6 C 1.0057(9) -0.0253(9) 0.2094(6)
C7 C 1.0727(14) -0.3286(11) 0.0739(8)
H2 H 1.1352 -0.2980 0.0453
C8 C 1.2941(9) -0.2874(9) 0.3903(6)
C9 C 0.8127(9) -0.2461(9) 0.4150(6)
C10 C 1.1622(8) -0.2331(8) 0.3629(5)
O7 O 0.8298(7) -0.2968(7) 0.4788(4)
C11 C 1.0550(9) -0.2556(8) 0.4033(6)
C12 C 0.7590(11) -0.2354(10) 0.1285(6)
C13 C 0.8738(13) -0.3079(10) 0.1236(7)
C14 C 0.5519(14) -0.0910(17) 0.1327(9)
C15 C 0.6475(17) -0.2716(16) 0.1596(9)
C16 C 1.0957(18) -0.4353(12) 0.1046(11)
H3 H 1.1717 -0.4759 0.0981
C17 C 0.5436(17) -0.1997(18) 0.1609(10)
C18 C 0.8888(18) -0.4138(14) 0.1570(10)
H4 H 0.8258 -0.4408 0.1866
C19 C 0.997(2) -0.4807(16) 0.1470(12)
H5 H 1.0053 -0.5537 0.1674
H6 H 0.823(7) -0.101(6) 0.294(4)
H7 H 0.473(9) -0.054(8) 0.119(5)
H8 H 1.220(8) -0.145(6) 0.273(4)
H9 H 1.052(8) -0.321(8) 0.448(5)
H10 H 0.655(14) -0.348(13) 0.178(9)
H11 H 0.477(15) -0.192(14) 0.179(10)
O4C O 0.8014(6) 0.2724(6) 0.1270(4)
O6C O 1.1094(6) 0.2455(6) 0.1430(4)
O3B O 1.0918(6) -0.0784(5) -0.0216(4)
O5A O 0.7997(6) -0.1402(6) -0.0572(4)
Co2B Co 1.06499(12) 0.09616(11) -0.04326(7)
Co1C Co 0.55765(10) -0.33741(10) 0.37880(6)
Co2A Co 1.43501(12) -0.40384(11) 0.54326(7)
Co1C_2 Co 1.55765(10) -0.33741(10) 0.37880(6)
loop_
_geom_bond_atom_site_label_1
_geom_bond_atom_site_label_2
_geom_bond_site_symmetry_1
_geom_bond_site_symmetry_2
Co1 O1 1_555 1_555
Co2 O2 1_555 1_555
O1 C6 1_555 1_555
O2 C6 1_555 1_555
O3 Co1 1_555 1_555
O4 C9 1_555 1_555
O5 C8 1_555 1_555
O6 C8 1_555 1_555
N1 Co2 1_555 1_555
N2 Co2 1_555 1_555
C1 C4 1_555 1_555
C2 C5 1_555 1_555
C3 N1 1_555 1_555
H1 C3 1_555 1_555
C4 C5 1_555 1_555
C5 C6 1_555 1_555
C7 N2 1_555 1_555
H2 C7 1_555 1_555
C8 C10 1_555 1_555
C9 C1 1_555 1_555
C10 C2 1_555 1_555
O7 C9 1_555 1_555
C11 C1 1_555 1_555
C12 N1 1_555 1_555
C13 N2 1_555 1_555
C14 C3 1_555 1_555
C15 C12 1_555 1_555
C16 C7 1_555 1_555
H3 C16 1_555 1_555
C17 C14 1_555 1_555
C18 C13 1_555 1_555
H4 C18 1_555 1_555
C19 C16 1_555 1_555
H5 C19 1_555 1_555
H6 C4 1_555 1_555
H7 C14 1_555 1_555
H8 C2 1_555 1_555
H9 C11 1_555 1_555
H10 C15 1_555 1_555
H11 C17 1_555 1_555
O4C Co1 1_555 1_555
O6C Co1 1_555 1_555
O3B Co2 1_555 1_555
O5A Co2 1_555 1_555
Co2B O3 1_555 1_555
Co1C O4 1_555 1_555
Co2A O5 1_555 1_555
Co1C_2 O6 1_555 1_555
Co2 O3 1_555 1_555
C10 C11 1_555 1_555
C12 C13 1_555 1_555
C15 C17 1_555 1_555
C18 C19 1_555 1_555
O3B Co2B 1_555 1_555

#END
