
#######################################################################
#
#                 Cambridge Crystallographic Data Centre
#                                CCDC 
#
#######################################################################
#
# If this CIF has been generated from an entry in the Cambridge 
# Structural Database, then it will include bibliographic, chemical, 
# crystal, experimental, refinement or atomic coordinate data resulting 
# from the CCDC's data processing and validation procedures.
#
#######################################################################

data_AKETAL
_symmetry_cell_setting           monoclinic
_symmetry_space_group_name_H-M   'C 2/c'
_symmetry_Int_Tables_number      15
_space_group_name_Hall           '-C 2yn'
loop_
_symmetry_equiv_pos_site_id
_symmetry_equiv_pos_as_xyz
1 x,y,z
2 1/2+x,1/2+y,z
3 x,-y,1/2+z
4 1/2+x,1/2-y,1/2+z
5 -x,-y,-z
6 1/2-x,1/2-y,-z
7 -x,y,1/2-z
8 1/2-x,1/2+y,1/2-z
_cell_length_a                   15.2478(3)
_cell_length_b                   15.2007(6)
_cell_length_c                   16.5168(5)
_cell_angle_alpha                90
_cell_angle_beta                 110.1100(10)
_cell_angle_gamma                90
_cell_volume                     3594.83
loop_
_atom_site_label
_atom_site_type_symbol
_atom_site_fract_x
_atom_site_fract_y
_atom_site_fract_z
O1 O 0.5040(9) 0.3496(6) 0.6646(6)
Co1 Co 0.18668(7) 0.51454(7) 0.41006(7)
Co2 Co 0.0000 0.40635(14) 0.2500
O2 O 0.2544(4) 0.3979(4) 0.4133(4)
O3 O 0.1451(4) 0.3320(4) 0.3021(4)
O4 O 0.2563(4) 0.0797(4) 0.1719(3)
O5 O 0.3919(4) 0.0204(4) 0.2454(4)
O6 O 0.4343(4) 0.0434(4) 0.5871(3)
O7 O 0.4991(4) 0.1743(4) 0.6162(4)
N1 N 0.2611(5) 0.5439(5) 0.5386(4)
N2 N 0.1289(5) 0.6387(4) 0.4269(4)
C1 C 0.2799(5) 0.2506(5) 0.3787(5)
C2 C 0.2692(5) 0.1929(5) 0.3096(5)
H1 H 0.2243 0.2042 0.2561
C3 C 0.3256(6) 0.1191(5) 0.3212(5)
C4 C 0.3838(5) 0.0955(5) 0.4034(5)
H2 H 0.4181 0.0436 0.4116
C5 C 0.3908(5) 0.1487(5) 0.4726(5)
C6 C 0.3431(5) 0.2296(5) 0.4600(5)
H3 H 0.3538 0.2688 0.5056
C7 C 0.2206(5) 0.3333(5) 0.3627(5)
C8 C 0.3238(6) 0.0685(5) 0.2421(5)
C9 C 0.4457(5) 0.1211(5) 0.5644(5)
C10 C 0.3254(6) 0.4916(7) 0.5933(6)
H4 H 0.3474 0.4436 0.5710
C11 C 0.3602(7) 0.5058(7) 0.6808(6)
H5 H 0.4047 0.4682 0.7170
C12 C 0.3278(8) 0.5769(8) 0.7136(7)
H6 H 0.3509 0.5883 0.7725
C13 C 0.2608(8) 0.6314(7) 0.6589(6)
H7 H 0.2364 0.6782 0.6805
C14 C 0.2305(6) 0.6146(6) 0.5708(5)
C15 C 0.1617(6) 0.6711(6) 0.5068(6)
C16 C 0.1338(7) 0.7540(6) 0.5262(6)
H8 H 0.1573 0.7767 0.5818
C17 C 0.0705(8) 0.8008(6) 0.4605(8)
H9 H 0.0501 0.8556 0.4718
C18 C 0.0376(7) 0.7674(7) 0.3790(7)
H10 H -0.0049 0.7985 0.3341
C19 C 0.0693(7) 0.6864(7) 0.3658(7)
H11 H 0.0475 0.6636 0.3102
O2F O -0.2544(4) 0.3979(4) 0.0867(4)
O3F O -0.1451(4) 0.3320(4) 0.1979(4)
O4F O -0.2563(4) 0.0797(4) 0.3281(3)
O5F O -0.3919(4) 0.0204(4) 0.2546(4)
O6F O -0.4343(4) 0.0434(4) -0.0871(3)
O7F O -0.4991(4) 0.1743(4) -0.1162(4)
C1F C -0.2799(5) 0.2506(5) 0.1213(5)
C2F C -0.2692(5) 0.1929(5) 0.1904(5)
H1F H -0.2243 0.2042 0.2439
C3F C -0.3256(6) 0.1191(5) 0.1788(5)
C4F C -0.3838(5) 0.0955(5) 0.0966(5)
H2F H -0.4181 0.0436 0.0884
C5F C -0.3908(5) 0.1487(5) 0.0274(5)
C6F C -0.3431(5) 0.2296(5) 0.0400(5)
H3F H -0.3538 0.2688 -0.0056
C7F C -0.2206(5) 0.3333(5) 0.1373(5)
C8F C -0.3238(6) 0.0685(5) 0.2579(5)
C9F C -0.4457(5) 0.1211(5) -0.0644(5)
Co1F Co -0.18668(7) 0.51454(7) 0.08994(7)
N1F N -0.2611(5) 0.5439(5) -0.0386(4)
N2F N -0.1289(5) 0.6387(4) 0.0731(4)
C10F C -0.3254(6) 0.4916(7) -0.0933(6)
H4F H -0.3474 0.4436 -0.0710
C11F C -0.3602(7) 0.5058(7) -0.1808(6)
H5F H -0.4047 0.4682 -0.2170
C12F C -0.3278(8) 0.5769(8) -0.2136(7)
H6F H -0.3509 0.5883 -0.2725
C13F C -0.2608(8) 0.6314(7) -0.1589(6)
H7F H -0.2364 0.6782 -0.1805
C14F C -0.2305(6) 0.6146(6) -0.0708(5)
C15F C -0.1617(6) 0.6711(6) -0.0068(6)
C16F C -0.1338(7) 0.7540(6) -0.0262(6)
H8F H -0.1573 0.7767 -0.0818
C17F C -0.0705(8) 0.8008(6) 0.0395(8)
H9F H -0.0501 0.8556 0.0282
C18F C -0.0376(7) 0.7674(7) 0.1210(7)
H10F H 0.0049 0.7985 0.1659
C19F C -0.0693(7) 0.6864(7) 0.1342(7)
H11F H -0.0475 0.6636 0.1898
O4G O 0.2437(4) 0.5797(4) 0.3281(3)
O6E O 0.0657(4) 0.4566(4) 0.4129(3)
O5A O -0.1081(4) 0.5204(4) 0.2454(4)
O5G O 0.1081(4) 0.5204(4) 0.2546(4)
Co1G Co 0.31332(7) 0.01454(7) 0.08994(7)
Co2A Co 0.5000 -0.09365(14) 0.2500
Co1E Co 0.31332(7) -0.01454(7) 0.58994(7)
Co1A Co -0.31332(7) 0.01454(7) 0.41006(7)
Co2A_2 Co -0.5000 -0.09365(14) 0.2500
Co1C Co -0.31332(7) -0.01454(7) -0.08994(7)
O4A O -0.2437(4) 0.5797(4) 0.1719(3)
O6C O -0.0657(4) 0.4566(4) 0.0871(3)
O8 O 0.4423(6) 0.5086(7) 0.4145(6)
loop_
_geom_bond_atom_site_label_1
_geom_bond_atom_site_label_2
_geom_bond_site_symmetry_1
_geom_bond_site_symmetry_2
Co1 O2 1_555 1_555
Co2 O3 1_555 1_555
O2 C7 1_555 1_555
O3 C7 1_555 1_555
O4 C8 1_555 1_555
O5 C8 1_555 1_555
O6 C9 1_555 1_555
O7 C9 1_555 1_555
N1 Co1 1_555 1_555
N2 Co1 1_555 1_555
C1 C2 1_555 1_555
C2 H1 1_555 1_555
C3 C2 1_555 1_555
C4 C3 1_555 1_555
H2 C4 1_555 1_555
C5 C4 1_555 1_555
C6 C1 1_555 1_555
H3 C6 1_555 1_555
C7 C1 1_555 1_555
C8 C3 1_555 1_555
C9 C5 1_555 1_555
C10 N1 1_555 1_555
H4 C10 1_555 1_555
C11 C10 1_555 1_555
H5 C11 1_555 1_555
C12 C11 1_555 1_555
H6 C12 1_555 1_555
C13 C12 1_555 1_555
H7 C13 1_555 1_555
C14 N1 1_555 1_555
C15 N2 1_555 1_555
C16 C15 1_555 1_555
H8 C16 1_555 1_555
C17 C16 1_555 1_555
H9 C17 1_555 1_555
C18 C17 1_555 1_555
H10 C18 1_555 1_555
C19 N2 1_555 1_555
H11 C19 1_555 1_555
O2F C7F 1_555 1_555
O3F Co2 1_555 1_555
O4F C8F 1_555 1_555
O5F C8F 1_555 1_555
O6F C9F 1_555 1_555
O7F C9F 1_555 1_555
C1F C2F 1_555 1_555
C2F H1F 1_555 1_555
C3F C2F 1_555 1_555
C4F C3F 1_555 1_555
H2F C4F 1_555 1_555
C5F C4F 1_555 1_555
C6F C1F 1_555 1_555
H3F C6F 1_555 1_555
C7F O3F 1_555 1_555
C8F C3F 1_555 1_555
C9F C5F 1_555 1_555
Co1F O2F 1_555 1_555
N1F Co1F 1_555 1_555
N2F Co1F 1_555 1_555
C10F N1F 1_555 1_555
H4F C10F 1_555 1_555
C11F C10F 1_555 1_555
H5F C11F 1_555 1_555
C12F C11F 1_555 1_555
H6F C12F 1_555 1_555
C13F C12F 1_555 1_555
H7F C13F 1_555 1_555
C14F N1F 1_555 1_555
C15F N2F 1_555 1_555
C16F C15F 1_555 1_555
H8F C16F 1_555 1_555
C17F C16F 1_555 1_555
H9F C17F 1_555 1_555
C18F C17F 1_555 1_555
H10F C18F 1_555 1_555
C19F N2F 1_555 1_555
H11F C19F 1_555 1_555
O4G Co1 1_555 1_555
O6E Co1 1_555 1_555
O5A Co2 1_555 1_555
O5G Co2 1_555 1_555
Co1G O4 1_555 1_555
Co2A O5 1_555 1_555
Co1E O6 1_555 1_555
Co1A O4F 1_555 1_555
Co2A_2 O5F 1_555 1_555
Co1C O6F 1_555 1_555
O4A Co1F 1_555 1_555
O6C Co1F 1_555 1_555
C5 C6 1_555 1_555
C13 C14 1_555 1_555
C14 C15 1_555 1_555
C18 C19 1_555 1_555
C1F C7F 1_555 1_555
C5F C6F 1_555 1_555
C13F C14F 1_555 1_555
C14F C15F 1_555 1_555
C18F C19F 1_555 1_555

#END
