
#######################################################################
#
#                 Cambridge Crystallographic Data Centre
#                                CCDC 
#
#######################################################################
#
# If this CIF has been generated from an entry in the Cambridge 
# Structural Database, then it will include bibliographic, chemical, 
# crystal, experimental, refinement or atomic coordinate data resulting 
# from the CCDC's data processing and validation procedures.
#
#######################################################################

data_AKINAK
_symmetry_cell_setting           monoclinic
_symmetry_space_group_name_H-M   'P 21/c'
_symmetry_Int_Tables_number      14
_space_group_name_Hall           '-P 2ybc'
loop_
_symmetry_equiv_pos_site_id
_symmetry_equiv_pos_as_xyz
1 x,y,z
2 -x,1/2+y,1/2-z
3 -x,-y,-z
4 x,1/2-y,1/2+z
_cell_length_a                   15.3243(3)
_cell_length_b                   22.6272(5)
_cell_length_c                   16.9930(4)
_cell_angle_alpha                90
_cell_angle_beta                 112.1100(10)
_cell_angle_gamma                90
_cell_volume                     5458.96
loop_
_atom_site_label
_atom_site_type_symbol
_atom_site_fract_x
_atom_site_fract_y
_atom_site_fract_z
Au1 Au 0.50000 1.00000 0.00000
Au2 Au 0.46737(2) 0.738649(13) -0.04103(2)
Au3 Au 0.50000 1.00000 0.50000
Tl1 Tl 0.51390(3) 0.868358(15) 0.00500(2)
Tl2 Tl 0.44667(3) 0.885650(14) 0.39615(2)
C1 C 0.6412(5) 1.0062(3) 0.0243(5)
C2 C 0.6798(6) 0.9925(4) -0.0370(6)
C3 C 0.7741(6) 0.9994(4) -0.0218(6)
C4 C 0.8348(5) 1.0207(4) 0.0552(5)
C5 C 0.8011(5) 1.0335(3) 0.1207(5)
C6 C 0.7050(5) 1.0257(3) 0.1022(5)
Cl1 Cl 0.60549(15) 0.96451(13) -0.13381(14)
Cl2 Cl 0.81795(16) 0.98117(14) -0.09860(15)
Cl3 Cl 0.95255(14) 1.03148(10) 0.07485(14)
Cl4 Cl 0.87651(15) 1.05675(10) 0.21828(14)
Cl5 Cl 0.66337(14) 1.04158(10) 0.18167(12)
C7 C 0.5851(6) 0.7457(3) -0.0722(6)
C8 C 0.5845(6) 0.7814(4) -0.1395(6)
C9 C 0.6641(7) 0.7895(4) -0.1594(6)
C10 C 0.7447(7) 0.7601(4) -0.1132(8)
C11 C 0.7493(6) 0.7219(4) -0.0473(6)
C12 C 0.6678(7) 0.7170(4) -0.0289(6)
Cl6 Cl 0.47981(18) 0.81597(11) -0.20271(16)
Cl7 Cl 0.6602(2) 0.83434(15) -0.2426(2)
Cl8 Cl 0.8444(2) 0.76851(15) -0.1376(2)
Cl9 Cl 0.84929(18) 0.68269(12) 0.0064(2)
Cl10 Cl 0.67530(18) 0.67289(11) 0.05702(18)
C13 C 0.3522(6) 0.7323(3) -0.0080(6)
C14 C 0.3437(6) 0.6901(4) 0.0477(6)
C15 C 0.2656(7) 0.6859(4) 0.0727(6)
C16 C 0.1971(7) 0.7263(4) 0.0440(7)
C17 C 0.1973(7) 0.7690(4) -0.0165(7)
C18 C 0.2754(6) 0.7703(4) -0.0406(6)
Cl11 Cl 0.43269(17) 0.63711(10) 0.08757(15)
Cl12 Cl 0.2617(2) 0.63158(13) 0.1426(2)
Cl13 Cl 0.1013(2) 0.72461(15) 0.0747(2)
Cl14 Cl 0.10970(19) 0.82063(12) -0.0534(2)
Cl15 Cl 0.27424(19) 0.82146(11) -0.1176(2)
C19 C 0.3607(5) 1.0149(3) 0.4811(5)
C20 C 0.3279(6) 1.0177(3) 0.5479(5)
C21 C 0.2321(6) 1.0270(4) 0.5347(5)
C22 C 0.1677(5) 1.0358(4) 0.4521(6)
C23 C 0.1995(6) 1.0356(4) 0.3844(5)
C24 C 0.2934(5) 1.0241(3) 0.4002(5)
Cl16 Cl 0.40709(15) 1.00874(10) 0.65209(13)
Cl17 Cl 0.19491(16) 1.02889(12) 0.61761(15)
Cl18 Cl 0.05145(15) 1.04777(13) 0.43352(16)
Cl19 Cl 0.12087(16) 1.04923(14) 0.28290(15)
Cl20 Cl 0.33009(14) 1.02492(10) 0.31530(12)
N1 N 0.7016(6) 0.8575(4) 0.0760(6)
H1 H 0.7198 0.8223 0.0595
H2 H 0.7298 0.8878 0.0583
C25 C 0.7296(11) 0.8589(11) 0.1635(10)
H3 H 0.784 0.8317 0.1855
H4 H 0.7552 0.8991 0.1807
C26 C 0.6789(9) 0.8479(7) 0.2075(8)
H5 H 0.709 0.8679 0.263
H6 H 0.6831 0.8049 0.219
N2 N 0.5819(8) 0.8632(7) 0.1758(7)
H7 H 0.5863 0.9033 0.1888
C27 C 0.5236(9) 0.8459(9) 0.2129(9)
H8 H 0.5502 0.8611 0.2718
H9 H 0.5285 0.8023 0.2171
C28 C 0.4232(8) 0.8598(7) 0.1802(7)
H10 H 0.4169 0.9023 0.1653
H11 H 0.3935 0.8377 0.1264
N3 N 0.3725(7) 0.8499(7) 0.2264(7)
H12 H 0.3776 0.8091 0.2324
C29 C 0.2733(9) 0.8572(7) 0.1975(8)
H13 H 0.2586 0.8994 0.1835
H14 H 0.244 0.8345 0.1442
C30 C 0.2300(9) 0.8395(7) 0.2548(9)
H15 H 0.1609 0.8438 0.226
H16 H 0.2435 0.7971 0.2683
N4 N 0.2605(6) 0.8725(4) 0.3337(6)
H17 H 0.2321 0.9091 0.3242
H18 H 0.2424 0.8529 0.3725
Au2B Au 0.53263(2) 1.261351(13) 0.04103(2)
Au2C Au 0.46737(2) 0.761351(13) 0.45897(2)
Au2A Au 0.53263(2) 1.238649(13) -0.45897(2)
Au3_2 Au 0.50000 1.00000 -0.50000
Tl1B Tl 0.48610(3) 1.131642(15) -0.00500(2)
Tl2B Tl 0.55333(3) 1.114350(14) -0.39615(2)
Tl2C Tl 0.44667(3) 0.614350(14) -0.10385(2)
Tl2B_2 Tl 0.55333(3) 1.114350(14) 0.60385(2)
Tl2A Tl 0.55333(3) 1.385650(14) 0.10385(2)
C1B C 0.3588(5) 0.9938(3) -0.0243(5)
C2B C 0.3202(6) 1.0075(4) 0.0370(6)
C3B C 0.2259(6) 1.0006(4) 0.0218(6)
C4B C 0.1652(5) 0.9793(4) -0.0552(5)
C5B C 0.1989(5) 0.9665(3) -0.1207(5)
C6B C 0.2950(5) 0.9743(3) -0.1022(5)
Cl1B Cl 0.39451(15) 1.03549(13) 0.13381(14)
Cl2B Cl 0.18205(16) 1.01883(14) 0.09860(15)
Cl3B Cl 0.04745(14) 0.96852(10) -0.07485(14)
Cl4B Cl 0.12349(15) 0.94325(10) -0.21828(14)
Cl5B Cl 0.33663(14) 0.95842(10) -0.18167(12)
C7B C 0.4149(6) 1.2543(3) 0.0722(6)
C8B C 0.4155(6) 1.2186(4) 0.1395(6)
C9B C 0.3359(7) 1.2105(4) 0.1594(6)
C10B C 0.2553(7) 1.2399(4) 0.1132(8)
C11B C 0.2507(6) 1.2781(4) 0.0473(6)
C12B C 0.3322(7) 1.2830(4) 0.0289(6)
Cl6B Cl 0.52019(18) 1.18403(11) 0.20271(16)
Cl7B Cl 0.3398(2) 1.16566(15) 0.2426(2)
Cl8B Cl 0.1556(2) 1.23149(15) 0.1376(2)
Cl9B Cl 0.15071(18) 1.31731(12) -0.0064(2)
Cl10B Cl 0.32470(18) 1.32711(11) -0.05702(18)
C13B C 0.6478(6) 1.2677(3) 0.0080(6)
C14B C 0.6563(6) 1.3099(4) -0.0477(6)
C15B C 0.7344(7) 1.3141(4) -0.0727(6)
C16B C 0.8029(7) 1.2737(4) -0.0440(7)
C17B C 0.8027(7) 1.2310(4) 0.0165(7)
C18B C 0.7246(6) 1.2297(4) 0.0406(6)
Cl11B Cl 0.56731(17) 1.36289(10) -0.08757(15)
Cl12B Cl 0.7383(2) 1.36842(13) -0.1426(2)
Cl13B Cl 0.8987(2) 1.27539(15) -0.0747(2)
Cl14B Cl 0.89030(19) 1.17937(12) 0.0534(2)
Cl15B Cl 0.72576(19) 1.17854(11) 0.1176(2)
C19B C 0.6393(5) 0.9851(3) 0.5189(5)
C20B C 0.6721(6) 0.9823(3) 0.4521(5)
C21B C 0.7679(6) 0.9730(4) 0.4653(5)
C22B C 0.8323(5) 0.9642(4) 0.5479(6)
C23B C 0.8005(6) 0.9644(4) 0.6156(5)
C24B C 0.7066(5) 0.9759(3) 0.5998(5)
Cl16B Cl 0.59291(15) 0.99126(10) 0.34791(13)
Cl17B Cl 0.80509(16) 0.97111(12) 0.38239(15)
Cl18B Cl 0.94855(15) 0.95223(13) 0.56648(16)
Cl19B Cl 0.87913(16) 0.95077(14) 0.71710(15)
Cl20B Cl 0.66991(14) 0.97508(10) 0.68470(12)
N1B N 0.2984(6) 1.1425(4) -0.0760(6)
H1B H 0.2802 1.1777 -0.0595
H2B H 0.2702 1.1122 -0.0583
C25B C 0.2704(11) 1.1411(11) -0.1635(10)
H3B H 0.216 1.1683 -0.1855
H4B H 0.2448 1.1009 -0.1807
C26B C 0.3211(9) 1.1521(7) -0.2075(8)
H5B H 0.291 1.1321 -0.263
H6B H 0.3169 1.1951 -0.219
N2B N 0.4181(8) 1.1368(7) -0.1758(7)
H7B H 0.4137 1.0967 -0.1888
C27B C 0.4764(9) 1.1541(9) -0.2129(9)
H8B H 0.4498 1.1389 -0.2718
H9B H 0.4715 1.1977 -0.2171
C28B C 0.5768(8) 1.1402(7) -0.1802(7)
H10B H 0.5831 1.0977 -0.1653
H11B H 0.6065 1.1623 -0.1264
N3B N 0.6275(7) 1.1501(7) -0.2264(7)
H12B H 0.6224 1.1909 -0.2324
C29B C 0.7267(9) 1.1428(7) -0.1975(8)
H13B H 0.7414 1.1006 -0.1835
H14B H 0.756 1.1655 -0.1442
C30B C 0.7700(9) 1.1605(7) -0.2548(9)
H15B H 0.8391 1.1562 -0.226
H16B H 0.7565 1.2029 -0.2683
N4B N 0.7395(6) 1.1275(4) -0.3337(6)
H17B H 0.7679 1.0909 -0.3242
H18B H 0.7576 1.1471 -0.3725
C31 C 0.0018(9) 0.6348(6) 0.7930(10)
C32 C -0.0150(10) 0.5998(6) 0.7223(11)
H19 H -0.0093 0.558 0.7281
C33 C -0.0406(11) 0.6259(6) 0.6414(11)
H20 H -0.0544 0.6015 0.5928
C34 C -0.0456(10) 0.6831(7) 0.6326(12)
H21 H -0.0624 0.6998 0.5776
C35 C -0.0274(10) 0.7188(6) 0.6999(12)
H22 H -0.033 0.7603 0.6911
C36 C -0.0005(8) 0.6970(6) 0.7823(11)
H23 H 0.0157 0.7229 0.8297
C37 C 0.0304(14) 0.6165(9) 0.8820(13)
H24 H -0.0258 0.609 0.8949
H25 H 0.0679 0.6479 0.9191
H26 H 0.0681 0.5803 0.8915
loop_
_geom_bond_atom_site_label_1
_geom_bond_atom_site_label_2
_geom_bond_site_symmetry_1
_geom_bond_site_symmetry_2
Au1 Tl1 1_555 1_555
Au2 Tl1 1_555 1_555
Au3 Tl2 1_555 1_555
Tl1 N1 1_555 1_555
Tl2 N3 1_555 1_555
C1 Au1 1_555 1_555
C2 C1 1_555 1_555
C3 C2 1_555 1_555
C4 C3 1_555 1_555
C5 C4 1_555 1_555
C6 C1 1_555 1_555
Cl1 C2 1_555 1_555
Cl2 C3 1_555 1_555
Cl3 C4 1_555 1_555
Cl4 C5 1_555 1_555
Cl5 C6 1_555 1_555
C7 Au2 1_555 1_555
C8 C7 1_555 1_555
C9 C8 1_555 1_555
C10 C9 1_555 1_555
C11 C10 1_555 1_555
C12 C7 1_555 1_555
Cl6 C8 1_555 1_555
Cl7 C9 1_555 1_555
Cl8 C10 1_555 1_555
Cl9 C11 1_555 1_555
Cl10 C12 1_555 1_555
C13 Au2 1_555 1_555
C14 C13 1_555 1_555
C15 C14 1_555 1_555
C16 C15 1_555 1_555
C17 C16 1_555 1_555
C18 C13 1_555 1_555
Cl11 C14 1_555 1_555
Cl12 C15 1_555 1_555
Cl13 C16 1_555 1_555
Cl14 C17 1_555 1_555
Cl15 C18 1_555 1_555
C19 Au3 1_555 1_555
C20 C19 1_555 1_555
C21 C20 1_555 1_555
C22 C21 1_555 1_555
C23 C22 1_555 1_555
C24 C19 1_555 1_555
Cl16 C20 1_555 1_555
Cl17 C21 1_555 1_555
Cl18 C22 1_555 1_555
Cl19 C23 1_555 1_555
Cl20 C24 1_555 1_555
N1 H1 1_555 1_555
H2 N1 1_555 1_555
C25 N1 1_555 1_555
H3 C25 1_555 1_555
H4 C25 1_555 1_555
C26 C25 1_555 1_555
H5 C26 1_555 1_555
H6 C26 1_555 1_555
N2 Tl1 1_555 1_555
H7 N2 1_555 1_555
C27 N2 1_555 1_555
H8 C27 1_555 1_555
H9 C27 1_555 1_555
C28 C27 1_555 1_555
H10 C28 1_555 1_555
H11 C28 1_555 1_555
N3 C28 1_555 1_555
H12 N3 1_555 1_555
C29 N3 1_555 1_555
H13 C29 1_555 1_555
H14 C29 1_555 1_555
C30 C29 1_555 1_555
H15 C30 1_555 1_555
H16 C30 1_555 1_555
N4 Tl2 1_555 1_555
H17 N4 1_555 1_555
H18 N4 1_555 1_555
C31 C32 1_555 1_555
C32 H19 1_555 1_555
C33 C32 1_555 1_555
H20 C33 1_555 1_555
C34 C33 1_555 1_555
H21 C34 1_555 1_555
C35 C34 1_555 1_555
H22 C35 1_555 1_555
C36 C31 1_555 1_555
H23 C36 1_555 1_555
C37 C31 1_555 1_555
H24 C37 1_555 1_555
H25 C37 1_555 1_555
H26 C37 1_555 1_555
Au2B Tl1B 1_555 1_555
Au2C Tl2 1_555 1_555
Au2A Tl2B 1_555 1_555
Au3_2 Tl2B 1_555 1_555
Tl1B Au1 1_555 1_555
Tl2B N3B 1_555 1_555
Tl2C Au2 1_555 1_555
Tl2B_2 Au3 1_555 1_555
Tl2A Au2B 1_555 1_555
C1B Au1 1_555 1_555
C2B C1B 1_555 1_555
C3B C2B 1_555 1_555
C4B C3B 1_555 1_555
C5B C4B 1_555 1_555
C6B C1B 1_555 1_555
Cl1B C2B 1_555 1_555
Cl2B C3B 1_555 1_555
Cl3B C4B 1_555 1_555
Cl4B C5B 1_555 1_555
Cl5B C6B 1_555 1_555
C7B Au2B 1_555 1_555
C8B C7B 1_555 1_555
C9B C8B 1_555 1_555
C10B C9B 1_555 1_555
C11B C10B 1_555 1_555
C12B C7B 1_555 1_555
Cl6B C8B 1_555 1_555
Cl7B C9B 1_555 1_555
Cl8B C10B 1_555 1_555
Cl9B C11B 1_555 1_555
Cl10B C12B 1_555 1_555
C13B Au2B 1_555 1_555
C14B C13B 1_555 1_555
C15B C14B 1_555 1_555
C16B C15B 1_555 1_555
C17B C16B 1_555 1_555
C18B C13B 1_555 1_555
Cl11B C14B 1_555 1_555
Cl12B C15B 1_555 1_555
Cl13B C16B 1_555 1_555
Cl14B C17B 1_555 1_555
Cl15B C18B 1_555 1_555
C19B Au3 1_555 1_555
C20B C19B 1_555 1_555
C21B C20B 1_555 1_555
C22B C21B 1_555 1_555
C23B C22B 1_555 1_555
C24B C19B 1_555 1_555
Cl16B C20B 1_555 1_555
Cl17B C21B 1_555 1_555
Cl18B C22B 1_555 1_555
Cl19B C23B 1_555 1_555
Cl20B C24B 1_555 1_555
N1B Tl1B 1_555 1_555
H1B N1B 1_555 1_555
H2B N1B 1_555 1_555
C25B N1B 1_555 1_555
H3B C25B 1_555 1_555
H4B C25B 1_555 1_555
C26B C25B 1_555 1_555
H5B C26B 1_555 1_555
H6B C26B 1_555 1_555
N2B Tl1B 1_555 1_555
H7B N2B 1_555 1_555
C27B N2B 1_555 1_555
H8B C27B 1_555 1_555
H9B C27B 1_555 1_555
C28B C27B 1_555 1_555
H10B C28B 1_555 1_555
H11B C28B 1_555 1_555
N3B C28B 1_555 1_555
H12B N3B 1_555 1_555
C29B N3B 1_555 1_555
H13B C29B 1_555 1_555
H14B C29B 1_555 1_555
C30B C29B 1_555 1_555
H15B C30B 1_555 1_555
H16B C30B 1_555 1_555
N4B Tl2B 1_555 1_555
H17B N4B 1_555 1_555
H18B N4B 1_555 1_555
C5 C6 1_555 1_555
C11 C12 1_555 1_555
C17 C18 1_555 1_555
C23 C24 1_555 1_555
C26 N2 1_555 1_555
C30 N4 1_555 1_555
C35 C36 1_555 1_555
C5B C6B 1_555 1_555
C11B C12B 1_555 1_555
C17B C18B 1_555 1_555
C23B C24B 1_555 1_555
C26B N2B 1_555 1_555
C30B N4B 1_555 1_555

#END
