
#######################################################################
#
#                 Cambridge Crystallographic Data Centre
#                                CCDC 
#
#######################################################################
#
# If this CIF has been generated from an entry in the Cambridge 
# Structural Database, then it will include bibliographic, chemical, 
# crystal, experimental, refinement or atomic coordinate data resulting 
# from the CCDC's data processing and validation procedures.
#
#######################################################################

data_AKINIS
_symmetry_cell_setting           triclinic
_symmetry_space_group_name_H-M   'P -1'
_symmetry_Int_Tables_number      2
_space_group_name_Hall           '-P 1'
loop_
_symmetry_equiv_pos_site_id
_symmetry_equiv_pos_as_xyz
1 x,y,z
2 -x,-y,-z
_cell_length_a                   11.4964(2)
_cell_length_b                   12.8560(3)
_cell_length_c                   15.1920(4)
_cell_angle_alpha                105.2870(10)
_cell_angle_beta                 103.5070(11)
_cell_angle_gamma                111.5170(8)
_cell_volume                     1873.53
loop_
_atom_site_label
_atom_site_type_symbol
_atom_site_fract_x
_atom_site_fract_y
_atom_site_fract_z
Au1 Au 0.50000 0.00000 0.00000
Au2 Au 1.00000 0.00000 0.00000
Tl1 Tl 0.77206(3) -0.00291(3) 0.06664(2)
C1 C 0.5456(7) 0.0384(7) 0.1481(6)
C2 C 0.4705(8) -0.0440(8) 0.1804(5)
C3 C 0.4863(8) -0.0210(8) 0.2781(5)
C4 C 0.5827(8) 0.0920(7) 0.3487(6)
C5 C 0.6651(9) 0.1766(8) 0.3210(5)
C6 C 0.6448(9) 0.1478(8) 0.2220(6)
Cl1 Cl 0.3511(2) -0.1887(2) 0.09538(17)
Cl2 Cl 0.3832(3) -0.1257(3) 0.31306(18)
Cl3 Cl 0.6002(3) 0.1283(3) 0.47058(17)
Cl4 Cl 0.7884(3) 0.3149(2) 0.40950(17)
Cl5 Cl 0.7499(2) 0.2565(2) 0.18913(16)
C7 C 1.1194(8) 0.1695(7) 0.1132(6)
C8 C 1.0914(8) 0.2671(8) 0.1226(6)
C9 C 1.1656(9) 0.3781(8) 0.2019(6)
C10 C 1.2774(9) 0.3955(9) 0.2756(7)
C11 C 1.3104(9) 0.3001(9) 0.2689(7)
C12 C 1.2299(8) 0.1888(8) 0.1898(6)
Cl6 Cl 0.9545(2) 0.2509(2) 0.03198(17)
Cl7 Cl 1.1188(4) 0.4928(3) 0.2136(2)
Cl8 Cl 1.3698(3) 0.5300(3) 0.3773(2)
Cl9 Cl 1.4477(3) 0.3196(3) 0.3611(2)
Cl10 Cl 1.2699(3) 0.0711(3) 0.1876(2)
O1 O 0.8668(8) 0.0063(7) 0.2449(5)
C13 C 1.0405(11) 0.1976(10) 0.3556(8)
H1 H 1.0494 0.2035 0.2955
H2 H 1.1225 0.2051 0.3973
H3 H 1.0223 0.2614 0.3883
C14 C 0.9274(11) 0.0778(10) 0.3332(7)
C15 C 0.8960(10) 0.0500(9) 0.4115(7)
H4 H 0.9483 0.1066 0.4753
C16 C 0.7897(11) -0.0589(10) 0.3975(8)
C17 C 0.7610(12) -0.0774(11) 0.4852(8)
H5 H 0.6864 -0.1557 0.4643
H6 H 0.7396 -0.0157 0.5171
H7 H 0.8389 -0.0725 0.5301
N1 N 0.7117(8) -0.1430(7) 0.3095(6)
H8 H 0.7265 -0.1263 0.2608
C18 C 0.6029(11) -0.2615(10) 0.2860(9)
H9 H 0.5304 -0.2814 0.2268
H10 H 0.5687 -0.257 0.3388
C19 C 0.6424(11) -0.3605(10) 0.2711(8)
H11 H 0.5641 -0.4377 0.2501
H12 H 0.6811 -0.3639 0.2207
O2 O 0.7395(8) -0.3369(7) 0.3625(5)
C20 C 0.7746(11) -0.4313(10) 0.3604(8)
H13 H 0.7126 -0.5023 0.3011
H14 H 0.7665 -0.4524 0.4162
C21 C 0.9161(11) -0.3962(10) 0.3631(8)
H15 H 0.9778 -0.3229 0.4206
H16 H 0.9396 -0.46 0.3686
O3 O 0.9308(8) -0.3764(6) 0.2773(5)
C22 C 1.0032(10) -0.2531(10) 0.2943(7)
H17 H 1.0937 -0.2196 0.3414
H18 H 0.9594 -0.2078 0.3207
C23 C 1.0081(11) -0.2440(11) 0.1975(8)
H19 H 1.0687 -0.1615 0.2095
H20 H 1.043 -0.2966 0.1683
N2 N 0.8757(8) -0.2781(7) 0.1294(6)
H21 H 0.8487 -0.2233 0.1377
C24 C 0.8345(12) -0.4827(10) 0.0367(9)
H22 H 0.9216 -0.4547 0.0849
H23 H 0.8388 -0.5031 -0.0276
H24 H 0.7706 -0.553 0.0406
C25 C 0.7915(11) -0.3841(9) 0.0559(7)
C26 C 0.6686(10) -0.4029(9) -0.0047(7)
H25 H 0.6115 -0.4793 -0.054
C27 C 0.6262(11) -0.3128(9) 0.0044(7)
C28 C 0.5009(11) -0.3352(10) -0.0726(8)
H26 H 0.4863 -0.2649 -0.0557
H27 H 0.4254 -0.4036 -0.0763
H28 H 0.511 -0.3514 -0.1351
O4 O 0.6877(7) -0.2136(6) 0.0757(5)
Au2_2 Au 0.00000 0.00000 0.00000
Tl1A Tl 0.22794(3) 0.00291(3) -0.06664(2)
Tl1A_2 Tl 1.22794(3) 0.00291(3) -0.06664(2)
C1A C 0.4544(7) -0.0384(7) -0.1481(6)
C2A C 0.5295(8) 0.0440(8) -0.1804(5)
C3A C 0.5137(8) 0.0210(8) -0.2781(5)
C4A C 0.4173(8) -0.0920(7) -0.3487(6)
C5A C 0.3349(9) -0.1766(8) -0.3210(5)
C6A C 0.3552(9) -0.1478(8) -0.2220(6)
Cl1A Cl 0.6489(2) 0.1887(2) -0.09538(17)
Cl2A Cl 0.6168(3) 0.1257(3) -0.31306(18)
Cl3A Cl 0.3998(3) -0.1283(3) -0.47058(17)
Cl4A Cl 0.2116(3) -0.3149(2) -0.40950(17)
Cl5A Cl 0.2501(2) -0.2565(2) -0.18913(16)
C7A C 0.8806(8) -0.1695(7) -0.1132(6)
C8A C 0.9086(8) -0.2671(8) -0.1226(6)
C9A C 0.8344(9) -0.3781(8) -0.2019(6)
C10A C 0.7226(9) -0.3955(9) -0.2756(7)
C11A C 0.6896(9) -0.3001(9) -0.2689(7)
C12A C 0.7701(8) -0.1888(8) -0.1898(6)
Cl6A Cl 1.0455(2) -0.2509(2) -0.03198(17)
Cl7A Cl 0.8812(4) -0.4928(3) -0.2136(2)
Cl8A Cl 0.6302(3) -0.5300(3) -0.3773(2)
Cl9A Cl 0.5523(3) -0.3196(3) -0.3611(2)
Cl10A Cl 0.7301(3) -0.0711(3) -0.1876(2)
O1A O 0.1332(8) -0.0063(7) -0.2449(5)
C13A C -0.0405(11) -0.1976(10) -0.3556(8)
H1A H -0.0494 -0.2035 -0.2955
H2A H -0.1225 -0.2051 -0.3973
H3A H -0.0223 -0.2614 -0.3883
C14A C 0.0726(11) -0.0778(10) -0.3332(7)
C15A C 0.1040(10) -0.0500(9) -0.4115(7)
H4A H 0.0517 -0.1066 -0.4753
C16A C 0.2103(11) 0.0589(10) -0.3975(8)
C17A C 0.2390(12) 0.0774(11) -0.4852(8)
H5A H 0.3136 0.1557 -0.4643
H6A H 0.2604 0.0157 -0.5171
H7A H 0.1611 0.0725 -0.5301
N1A N 0.2883(8) 0.1430(7) -0.3095(6)
H8A H 0.2735 0.1263 -0.2608
C18A C 0.3971(11) 0.2615(10) -0.2860(9)
H9A H 0.4696 0.2814 -0.2268
H10A H 0.4313 0.257 -0.3388
C19A C 0.3576(11) 0.3605(10) -0.2711(8)
H11A H 0.4359 0.4377 -0.2501
H12A H 0.3189 0.3639 -0.2207
O2A O 0.2605(8) 0.3369(7) -0.3625(5)
C20A C 0.2254(11) 0.4313(10) -0.3604(8)
H13A H 0.2874 0.5023 -0.3011
H14A H 0.2335 0.4524 -0.4162
C21A C 0.0839(11) 0.3962(10) -0.3631(8)
H15A H 0.0222 0.3229 -0.4206
H16A H 0.0604 0.46 -0.3686
O3A O 0.0692(8) 0.3764(6) -0.2773(5)
C22A C -0.0032(10) 0.2531(10) -0.2943(7)
H17A H -0.0937 0.2196 -0.3414
H18A H 0.0406 0.2078 -0.3207
C23A C -0.0081(11) 0.2440(11) -0.1975(8)
H19A H -0.0687 0.1615 -0.2095
H20A H -0.043 0.2966 -0.1683
N2A N 0.1243(8) 0.2781(7) -0.1294(6)
H21A H 0.1513 0.2233 -0.1377
C24A C 0.1655(12) 0.4827(10) -0.0367(9)
H22A H 0.0784 0.4547 -0.0849
H23A H 0.1612 0.5031 0.0276
H24A H 0.2294 0.553 -0.0406
C25A C 0.2085(11) 0.3841(9) -0.0559(7)
C26A C 0.3314(10) 0.4029(9) 0.0047(7)
H25A H 0.3885 0.4793 0.054
C27A C 0.3738(11) 0.3128(9) -0.0044(7)
C28A C 0.4991(11) 0.3352(10) 0.0726(8)
H26A H 0.5137 0.2649 0.0557
H27A H 0.5746 0.4036 0.0763
H28A H 0.489 0.3514 0.1351
O4A O 0.3123(7) 0.2136(6) -0.0757(5)
loop_
_geom_bond_atom_site_label_1
_geom_bond_atom_site_label_2
_geom_bond_site_symmetry_1
_geom_bond_site_symmetry_2
Au1 Tl1 1_555 1_555
Au2 Tl1 1_555 1_555
Tl1 O1 1_555 1_555
C1 Au1 1_555 1_555
C2 C1 1_555 1_555
C3 C2 1_555 1_555
C4 C3 1_555 1_555
C5 C4 1_555 1_555
C6 C1 1_555 1_555
Cl1 C2 1_555 1_555
Cl2 C3 1_555 1_555
Cl3 C4 1_555 1_555
Cl4 C5 1_555 1_555
Cl5 C6 1_555 1_555
C7 Au2 1_555 1_555
C8 C7 1_555 1_555
C9 C8 1_555 1_555
C10 C9 1_555 1_555
C11 C10 1_555 1_555
C12 C7 1_555 1_555
Cl6 C8 1_555 1_555
Cl7 C9 1_555 1_555
Cl8 C10 1_555 1_555
Cl9 C11 1_555 1_555
Cl10 C12 1_555 1_555
O1 C14 1_555 1_555
C13 H1 1_555 1_555
H2 C13 1_555 1_555
H3 C13 1_555 1_555
C14 C13 1_555 1_555
C15 C14 1_555 1_555
H4 C15 1_555 1_555
C16 C15 1_555 1_555
C17 C16 1_555 1_555
H5 C17 1_555 1_555
H6 C17 1_555 1_555
H7 C17 1_555 1_555
N1 C16 1_555 1_555
H8 N1 1_555 1_555
C18 N1 1_555 1_555
H9 C18 1_555 1_555
H10 C18 1_555 1_555
C19 C18 1_555 1_555
H11 C19 1_555 1_555
H12 C19 1_555 1_555
O2 C19 1_555 1_555
C20 O2 1_555 1_555
H13 C20 1_555 1_555
H14 C20 1_555 1_555
C21 C20 1_555 1_555
H15 C21 1_555 1_555
H16 C21 1_555 1_555
O3 C21 1_555 1_555
C22 O3 1_555 1_555
H17 C22 1_555 1_555
H18 C22 1_555 1_555
C23 C22 1_555 1_555
H19 C23 1_555 1_555
H20 C23 1_555 1_555
N2 C23 1_555 1_555
H21 N2 1_555 1_555
C24 H22 1_555 1_555
H23 C24 1_555 1_555
H24 C24 1_555 1_555
C25 N2 1_555 1_555
C26 C25 1_555 1_555
H25 C26 1_555 1_555
C27 C26 1_555 1_555
C28 C27 1_555 1_555
H26 C28 1_555 1_555
H27 C28 1_555 1_555
H28 C28 1_555 1_555
O4 Tl1 1_555 1_555
Au2_2 Tl1A 1_555 1_555
Tl1A Au1 1_555 1_555
Tl1A_2 Au2 1_555 1_555
C1A Au1 1_555 1_555
C2A C1A 1_555 1_555
C3A C2A 1_555 1_555
C4A C3A 1_555 1_555
C5A C4A 1_555 1_555
C6A C1A 1_555 1_555
Cl1A C2A 1_555 1_555
Cl2A C3A 1_555 1_555
Cl3A C4A 1_555 1_555
Cl4A C5A 1_555 1_555
Cl5A C6A 1_555 1_555
C7A Au2 1_555 1_555
C8A C7A 1_555 1_555
C9A C8A 1_555 1_555
C10A C9A 1_555 1_555
C11A C10A 1_555 1_555
C12A C7A 1_555 1_555
Cl6A C8A 1_555 1_555
Cl7A C9A 1_555 1_555
Cl8A C10A 1_555 1_555
Cl9A C11A 1_555 1_555
Cl10A C12A 1_555 1_555
O1A Tl1A 1_555 1_555
C13A H1A 1_555 1_555
H2A C13A 1_555 1_555
H3A C13A 1_555 1_555
C14A O1A 1_555 1_555
C15A C14A 1_555 1_555
H4A C15A 1_555 1_555
C16A C15A 1_555 1_555
C17A C16A 1_555 1_555
H5A C17A 1_555 1_555
H6A C17A 1_555 1_555
H7A C17A 1_555 1_555
N1A C16A 1_555 1_555
H8A N1A 1_555 1_555
C18A N1A 1_555 1_555
H9A C18A 1_555 1_555
H10A C18A 1_555 1_555
C19A C18A 1_555 1_555
H11A C19A 1_555 1_555
H12A C19A 1_555 1_555
O2A C19A 1_555 1_555
C20A O2A 1_555 1_555
H13A C20A 1_555 1_555
H14A C20A 1_555 1_555
C21A C20A 1_555 1_555
H15A C21A 1_555 1_555
H16A C21A 1_555 1_555
O3A C21A 1_555 1_555
C22A O3A 1_555 1_555
H17A C22A 1_555 1_555
H18A C22A 1_555 1_555
C23A C22A 1_555 1_555
H19A C23A 1_555 1_555
H20A C23A 1_555 1_555
N2A C23A 1_555 1_555
H21A N2A 1_555 1_555
C24A H22A 1_555 1_555
H23A C24A 1_555 1_555
H24A C24A 1_555 1_555
C25A N2A 1_555 1_555
C26A C25A 1_555 1_555
H25A C26A 1_555 1_555
C27A C26A 1_555 1_555
C28A C27A 1_555 1_555
H26A C28A 1_555 1_555
H27A C28A 1_555 1_555
H28A C28A 1_555 1_555
O4A Tl1A 1_555 1_555
C5 C6 1_555 1_555
C11 C12 1_555 1_555
C24 C25 1_555 1_555
C27 O4 1_555 1_555
C5A C6A 1_555 1_555
C11A C12A 1_555 1_555
C13A C14A 1_555 1_555
C24A C25A 1_555 1_555
C27A O4A 1_555 1_555

#END
