
#######################################################################
#
#                 Cambridge Crystallographic Data Centre
#                                CCDC 
#
#######################################################################
#
# If this CIF has been generated from an entry in the Cambridge 
# Structural Database, then it will include bibliographic, chemical, 
# crystal, experimental, refinement or atomic coordinate data resulting 
# from the CCDC's data processing and validation procedures.
#
#######################################################################

data_AKISES
_symmetry_cell_setting           triclinic
_symmetry_space_group_name_H-M   'P -1'
_symmetry_Int_Tables_number      2
_space_group_name_Hall           '-P 1'
loop_
_symmetry_equiv_pos_site_id
_symmetry_equiv_pos_as_xyz
1 x,y,z
2 -x,-y,-z
_cell_length_a                   7.185(2)
_cell_length_b                   9.460(2)
_cell_length_c                   10.627(2)
_cell_angle_alpha                106.35(2)
_cell_angle_beta                 96.51(2)
_cell_angle_gamma                109.28(2)
_cell_volume                     637.035
loop_
_atom_site_label
_atom_site_type_symbol
_atom_site_fract_x
_atom_site_fract_y
_atom_site_fract_z
Hg1 Hg 0.0000 0.0000 1.0000
Cu1 Cu 0.51762(7) -0.01075(5) 1.13533(4)
Cl1 Cl 0.33056(17) 0.17661(12) 1.2485(1)
O2 O 0.3272(4) -0.1164(3) 0.9612(3)
N1 N 0.7261(5) 0.0867(4) 1.3100(3)
N2 N 0.4196(5) -0.1852(4) 1.2130(3)
N3 N 0.2135(7) 0.2810(5) 0.8964(4)
C1 C 0.8721(6) 0.2329(5) 1.3557(4)
C2 C 0.9933(7) 0.2968(5) 1.4840(4)
C3 C 0.9626(7) 0.2091(5) 1.5690(4)
C4 C 0.8113(6) 0.0585(5) 1.5231(4)
C5 C 0.6968(6) 0.0001(4) 1.3931(4)
C6 C 0.5335(6) -0.1587(4) 1.3330(4)
C7 C 0.5014(7) -0.2749(5) 1.3927(4)
C8 C 0.3468(7) -0.4212(5) 1.3266(5)
C9 C 0.2291(7) -0.4471(5) 1.2061(5)
C10 C 0.2680(7) -0.3271(5) 1.1519(4)
C11 C 0.1401(6) 0.1822(5) 0.9283(4)
H1 H 0.8923(6) 0.2938(5) 1.2974(4)
H2 H 1.0962(7) 0.4005(5) 1.5137(4)
H3 H 1.0445(7) 0.2513(5) 1.6578(4)
H4 H 0.7863(6) -0.0042(5) 1.5798(4)
H5 H 0.5852(7) -0.2535(5) 1.4771(4)
H6 H 0.3223(7) -0.5032(5) 1.3648(5)
H7 H 0.1208(7) -0.5466(5) 1.1600(5)
H8 H 0.1851(7) -0.3455(5) 1.0681(4)
H11 H 0.313(9) -0.196(7) 0.930(6)
Cl1A Cl -0.33056(17) -0.17661(12) 0.7515(1)
N3A N -0.2135(7) -0.2810(5) 1.1036(4)
C11A C -0.1401(6) -0.1822(5) 1.0717(4)
Cu1A Cu -0.51762(7) 0.01075(5) 0.86467(4)
O2A O 0.6728(4) 0.1164(3) 1.0388(3)
H11A H 0.687(9) 0.196(7) 1.070(6)
N1A N -0.7261(5) -0.0867(4) 0.6900(3)
N2A N -0.4196(5) 0.1852(4) 0.7870(3)
C1A C -0.8721(6) -0.2329(5) 0.6443(4)
C2A C -0.9933(7) -0.2968(5) 0.5160(4)
C3A C -0.9626(7) -0.2091(5) 0.4310(4)
C4A C -0.8113(6) -0.0585(5) 0.4769(4)
C5A C -0.6968(6) -0.0001(4) 0.6069(4)
C6A C -0.5335(6) 0.1587(4) 0.6670(4)
C7A C -0.5014(7) 0.2749(5) 0.6073(4)
C8A C -0.3468(7) 0.4212(5) 0.6734(5)
C9A C -0.2291(7) 0.4471(5) 0.7939(5)
C10A C -0.2680(7) 0.3271(5) 0.8481(4)
H1A H -0.8923(6) -0.2938(5) 0.7026(4)
H2A H -1.0962(7) -0.4005(5) 0.4863(4)
H3A H -1.0445(7) -0.2513(5) 0.3422(4)
H4A H -0.7863(6) 0.0042(5) 0.4202(4)
H5A H -0.5852(7) 0.2535(5) 0.5229(4)
H6A H -0.3223(7) 0.5032(5) 0.6352(5)
H7A H -0.1208(7) 0.5466(5) 0.8400(5)
H8A H -0.1851(7) 0.3455(5) 0.9319(4)
Cu1A_2 Cu 0.48238(7) 0.01075(5) 0.86467(4)
O2_2 O -0.6728(4) -0.1164(3) 0.9612(3)
O2A_2 O -0.3272(4) 0.1164(3) 1.0388(3)
H11_2 H -0.687(9) -0.196(7) 0.930(6)
H11A_2 H -0.313(9) 0.196(7) 1.070(6)
O1 O 0.3030(6) 0.5697(4) 0.8163(4)
H9 H 0.325(9) 0.516(7) 0.853(6)
H10 H 0.385(9) 0.623(7) 0.797(6)
loop_
_geom_bond_atom_site_label_1
_geom_bond_atom_site_label_2
_geom_bond_site_symmetry_1
_geom_bond_site_symmetry_2
Hg1 Cl1 1_555 1_555
Cu1 Cl1 1_555 1_555
O1 H9 1_555 1_555
O2 Cu1 1_555 1_555
N1 Cu1 1_555 1_555
N2 Cu1 1_555 1_555
N3 C11 1_555 1_555
C1 N1 1_555 1_555
C2 C1 1_555 1_555
C3 C2 1_555 1_555
C4 C3 1_555 1_555
C5 N1 1_555 1_555
C6 N2 1_555 1_555
C7 C6 1_555 1_555
C8 C7 1_555 1_555
C9 C8 1_555 1_555
C10 N2 1_555 1_555
C11 Hg1 1_555 1_555
H1 C1 1_555 1_555
H2 C2 1_555 1_555
H3 C3 1_555 1_555
H4 C4 1_555 1_555
H5 C7 1_555 1_555
H6 C8 1_555 1_555
H7 C9 1_555 1_555
H8 C10 1_555 1_555
H10 O1 1_555 1_555
H11 O2 1_555 1_555
Cl1A Hg1 1_555 1_555
N3A C11A 1_555 1_555
C11A Hg1 1_555 1_555
Cu1A Cl1A 1_555 1_555
O2A Cu1 1_555 1_555
H11A O2A 1_555 1_555
N1A Cu1A 1_555 1_555
N2A Cu1A 1_555 1_555
C1A N1A 1_555 1_555
C2A C1A 1_555 1_555
C3A C2A 1_555 1_555
C4A C3A 1_555 1_555
C5A N1A 1_555 1_555
C6A N2A 1_555 1_555
C7A C6A 1_555 1_555
C8A C7A 1_555 1_555
C9A C8A 1_555 1_555
C10A N2A 1_555 1_555
H1A C1A 1_555 1_555
H2A C2A 1_555 1_555
H3A C3A 1_555 1_555
H4A C4A 1_555 1_555
H5A C7A 1_555 1_555
H6A C8A 1_555 1_555
H7A C9A 1_555 1_555
H8A C10A 1_555 1_555
Cu1A_2 O2 1_555 1_555
O2_2 Cu1A 1_555 1_555
O2A_2 Cu1A 1_555 1_555
H11_2 O2_2 1_555 1_555
H11A_2 O2A_2 1_555 1_555
C4 C5 1_555 1_555
C5 C6 1_555 1_555
C9 C10 1_555 1_555
O2A Cu1A_2 1_555 1_555
C4A C5A 1_555 1_555
C5A C6A 1_555 1_555
C9A C10A 1_555 1_555

#END
