
#######################################################################
#
#                 Cambridge Crystallographic Data Centre
#                                CCDC 
#
#######################################################################
#
# If this CIF has been generated from an entry in the Cambridge 
# Structural Database, then it will include bibliographic, chemical, 
# crystal, experimental, refinement or atomic coordinate data resulting 
# from the CCDC's data processing and validation procedures.
#
#######################################################################

data_AKISAO
_symmetry_cell_setting           triclinic
_symmetry_space_group_name_H-M   'P -1'
_symmetry_Int_Tables_number      2
_space_group_name_Hall           '-P 1'
loop_
_symmetry_equiv_pos_site_id
_symmetry_equiv_pos_as_xyz
1 x,y,z
2 -x,-y,-z
_cell_length_a                   7.913(3)
_cell_length_b                   8.384(1)
_cell_length_c                   13.584(3)
_cell_angle_alpha                81.35(2)
_cell_angle_beta                 73.33(3)
_cell_angle_gamma                75.60(2)
_cell_volume                     833.159
loop_
_atom_site_label
_atom_site_type_symbol
_atom_site_fract_x
_atom_site_fract_y
_atom_site_fract_z
Hg1 Hg 0.02796(4) 0.83861(3) 0.854502(19)
Hg2 Hg 0.5000 0.5000 1.0000
Cu1 Cu 0.14669(9) 0.40562(9) 0.77095(5)
Cl1 Cl 0.3349(2) 0.5851(2) 0.80875(12)
Cl2 Cl -0.1317(2) 0.58637(19) 0.80633(13)
N1 N 0.2006(6) 0.4628(6) 0.6189(4)
N2 N 0.3523(6) 0.2159(6) 0.7252(4)
N3 N 0.1007(9) 1.0335(8) 0.6355(5)
N4 N -0.0811(8) 0.7020(7) 1.0886(4)
N5 N 0.672(1) 0.1280(9) 0.9577(6)
C1 C 0.3357(8) 0.3541(7) 0.5627(5)
C2 C 0.3837(9) 0.3793(9) 0.4554(5)
C3 C 0.295(1) 0.5156(9) 0.4068(5)
C4 C 0.163(1) 0.6251(9) 0.4649(5)
C5 C 0.1168(9) 0.5961(8) 0.5708(5)
C6 C 0.4236(8) 0.2154(7) 0.6223(5)
C7 C 0.5693(9) 0.0941(9) 0.5806(6)
C8 C 0.642(1) -0.0295(9) 0.6446(7)
C9 C 0.570(1) -0.0318(8) 0.7487(7)
C10 C 0.4248(9) 0.0939(8) 0.7877(6)
C11 C 0.0732(9) 0.9695(8) 0.7134(5)
C12 C -0.0423(9) 0.7575(8) 1.0071(5)
C13 C 0.607(1) 0.2626(9) 0.9725(6)
H1 H 0.4777(9) 0.3010(9) 0.4162(5)
H2 H 0.326(1) 0.5323(9) 0.3337(5)
H3 H 0.102(1) 0.7216(9) 0.4323(5)
H4 H 0.0241(9) 0.6741(8) 0.6110(5)
H5 H 0.6194(9) 0.0962(9) 0.5081(6)
H6 H 0.742(1) -0.1139(9) 0.6164(7)
H7 H 0.620(1) -0.1163(8) 0.7939(7)
H8 H 0.3733(9) 0.0937(8) 0.8601(6)
Cl1A Cl 0.6651(2) 0.4149(2) 1.19125(12)
N5A N 0.328(1) 0.8720(9) 1.0423(6)
C13A C 0.393(1) 0.7374(9) 1.0275(6)
Hg1A Hg 0.97204(4) 0.16139(3) 1.145498(19)
Cu1A Cu 0.85331(9) 0.59438(9) 1.22905(5)
N4A N 0.0811(8) 0.2980(7) 0.9114(4)
C12A C 0.0423(9) 0.2425(8) 0.9929(5)
Cl2A Cl 1.1317(2) 0.41363(19) 1.19367(13)
N3A N 0.8993(9) -0.0335(8) 1.3645(5)
C11A C 0.9268(9) 0.0305(8) 1.2866(5)
N1A N 0.7994(6) 0.5372(6) 1.3811(4)
N2A N 0.6477(6) 0.7841(6) 1.2748(4)
C1A C 0.6643(8) 0.6459(7) 1.4373(5)
C2A C 0.6163(9) 0.6207(9) 1.5446(5)
C3A C 0.705(1) 0.4844(9) 1.5932(5)
C4A C 0.837(1) 0.3749(9) 1.5351(5)
C5A C 0.8832(9) 0.4039(8) 1.4292(5)
C6A C 0.5764(8) 0.7846(7) 1.3777(5)
C7A C 0.4307(9) 0.9059(9) 1.4194(6)
C8A C 0.358(1) 1.0295(9) 1.3554(7)
C9A C 0.430(1) 1.0318(8) 1.2513(7)
C10A C 0.5752(9) 0.9061(8) 1.2123(6)
H1A H 0.5223(9) 0.6990(9) 1.5838(5)
H2A H 0.674(1) 0.4677(9) 1.6663(5)
H3A H 0.898(1) 0.2784(9) 1.5677(5)
H4A H 0.9759(9) 0.3259(8) 1.3890(5)
H5A H 0.3806(9) 0.9038(9) 1.4919(6)
H6A H 0.258(1) 1.1139(9) 1.3836(7)
H7A H 0.380(1) 1.1163(8) 1.2061(7)
H8A H 0.6267(9) 0.9063(8) 1.1399(6)
Cu1A_2 Cu -0.14669(9) 0.59438(9) 1.22905(5)
C12A_2 C 1.0423(9) 0.2425(8) 0.9929(5)
N4_2 N 0.9189(8) 0.7020(7) 1.0886(4)
Hg1A_2 Hg -0.02796(4) 0.16139(3) 1.145498(19)
loop_
_geom_bond_atom_site_label_1
_geom_bond_atom_site_label_2
_geom_bond_site_symmetry_1
_geom_bond_site_symmetry_2
Hg1 Cl1 1_555 1_555
Hg2 Cl1 1_555 1_555
Cu1 Cl1 1_555 1_555
Cl2 Hg1 1_555 1_555
N1 Cu1 1_555 1_555
N2 Cu1 1_555 1_555
N3 C11 1_555 1_555
N4 C12 1_555 1_555
N5 C13 1_555 1_555
C1 N1 1_555 1_555
C2 C1 1_555 1_555
C3 C2 1_555 1_555
C4 C3 1_555 1_555
C5 N1 1_555 1_555
C6 N2 1_555 1_555
C7 C6 1_555 1_555
C8 C7 1_555 1_555
C9 C8 1_555 1_555
C10 N2 1_555 1_555
C11 Hg1 1_555 1_555
C12 Hg1 1_555 1_555
C13 Hg2 1_555 1_555
H1 C2 1_555 1_555
H2 C3 1_555 1_555
H3 C4 1_555 1_555
H4 C5 1_555 1_555
H5 C7 1_555 1_555
H6 C8 1_555 1_555
H7 C9 1_555 1_555
H8 C10 1_555 1_555
Cl1A Hg2 1_555 1_555
N5A C13A 1_555 1_555
C13A Hg2 1_555 1_555
Hg1A Cl1A 1_555 1_555
Cu1A Cl1A 1_555 1_555
N4A Cu1 1_555 1_555
C12A N4A 1_555 1_555
Cl2A Hg1A 1_555 1_555
N3A C11A 1_555 1_555
C11A Hg1A 1_555 1_555
N1A Cu1A 1_555 1_555
N2A Cu1A 1_555 1_555
C1A N1A 1_555 1_555
C2A C1A 1_555 1_555
C3A C2A 1_555 1_555
C4A C3A 1_555 1_555
C5A N1A 1_555 1_555
C6A N2A 1_555 1_555
C7A C6A 1_555 1_555
C8A C7A 1_555 1_555
C9A C8A 1_555 1_555
C10A N2A 1_555 1_555
H1A C2A 1_555 1_555
H2A C3A 1_555 1_555
H3A C4A 1_555 1_555
H4A C5A 1_555 1_555
H5A C7A 1_555 1_555
H6A C8A 1_555 1_555
H7A C9A 1_555 1_555
H8A C10A 1_555 1_555
Cu1A_2 N4 1_555 1_555
C12A_2 Hg1A 1_555 1_555
N4_2 Cu1A 1_555 1_555
Hg1A_2 C12A 1_555 1_555
Cu1 Cl2 1_555 1_555
C1 C6 1_555 1_555
C4 C5 1_555 1_555
C9 C10 1_555 1_555
Cu1A Cl2A 1_555 1_555
C1A C6A 1_555 1_555
C4A C5A 1_555 1_555
C9A C10A 1_555 1_555

#END
