
#######################################################################
#
#                 Cambridge Crystallographic Data Centre
#                                CCDC 
#
#######################################################################
#
# If this CIF has been generated from an entry in the Cambridge 
# Structural Database, then it will include bibliographic, chemical, 
# crystal, experimental, refinement or atomic coordinate data resulting 
# from the CCDC's data processing and validation procedures.
#
#######################################################################

data_AKUDIT
_symmetry_cell_setting           monoclinic
_symmetry_space_group_name_H-M   'P 21/n'
_symmetry_Int_Tables_number      14
_space_group_name_Hall           '-P 2yn'
loop_
_symmetry_equiv_pos_site_id
_symmetry_equiv_pos_as_xyz
1 x,y,z
2 1/2+x,1/2-y,1/2+z
3 -x,-y,-z
4 1/2-x,1/2+y,1/2-z
_cell_length_a                   11.3450(5)
_cell_length_b                   16.2397(7)
_cell_length_c                   12.4793(5)
_cell_angle_alpha                90
_cell_angle_beta                 111.557(1)
_cell_angle_gamma                90
_cell_volume                     2138.36
loop_
_atom_site_label
_atom_site_type_symbol
_atom_site_fract_x
_atom_site_fract_y
_atom_site_fract_z
Zn1 Zn 0.59601(3) 0.427055(19) 0.62316(3)
O1 O 0.54336(18) 0.38538(13) 0.45837(17)
O2 O 0.61633(17) 0.54723(11) 0.67278(17)
O3 O 0.6607(2) 0.39439(16) 0.8170(2)
O4 O 0.6302(2) 0.29923(15) 0.6907(2)
O5 O 0.6927(3) 0.26563(17) 0.8711(2)
N1 N 0.4075(2) 0.42144(13) 0.62158(19)
N2 N -0.2145(2) 0.42648(14) 0.6287(2)
N3 N 0.5436(2) 0.26798(14) 0.3012(2)
N4 N 0.6614(2) 0.31893(18) 0.7952(3)
C1 C 0.3152(2) 0.37546(17) 0.5482(2)
H1 H 0.3349 0.3427 0.4959
C2 C 0.1926(3) 0.37376(17) 0.5456(3)
H2 H 0.1320 0.3406 0.4927
C3 C 0.1604(2) 0.42228(16) 0.6229(2)
C4 C 0.2571(3) 0.46888(18) 0.7000(3)
H3 H 0.2408 0.5017 0.7540
C5 C 0.3763(3) 0.46669(18) 0.6969(3)
H4 H 0.4392 0.4984 0.7499
C6 C 0.0307(2) 0.42362(17) 0.6249(2)
C7 C -0.0572(3) 0.36354(18) 0.5713(3)
H5 H -0.0359 0.3205 0.5327
C8 C -0.1769(3) 0.36767(19) 0.5756(3)
H6 H -0.2346 0.3265 0.5387
C9 C -0.1302(3) 0.48366(19) 0.6817(3)
H7 H -0.1541 0.5254 0.7205
C10 C -0.0087(3) 0.48422(19) 0.6820(3)
H8 H 0.0473 0.5256 0.7210
C11 C 0.4566(2) 0.39234(17) 0.3631(2)
C12 C 0.4340(3) 0.32022(17) 0.2789(3)
H9 H 0.3646 0.2871 0.2829
H10 H 0.4087 0.3418 0.2012
C13 C 0.6405(3) 0.28420(19) 0.2615(3)
C14 C 0.6445(4) 0.3377(2) 0.1774(3)
H11 H 0.5753 0.3708 0.1375
C15 C 0.7556(4) 0.3408(2) 0.1538(4)
H12 H 0.7605 0.3759 0.0966
C16 C 0.8600(4) 0.2914(3) 0.2158(4)
H13 H 0.9344 0.2957 0.2011
C17 C 0.8541(4) 0.2371(3) 0.2974(4)
H14 H 0.9237 0.2043 0.3373
C18 C 0.7442(3) 0.2313(2) 0.3201(3)
C19 C 0.7034(3) 0.17983(19) 0.3937(3)
C20 C 0.7567(4) 0.1128(2) 0.4650(3)
H15 H 0.8366 0.0938 0.4726
C21 C 0.6900(5) 0.0748(2) 0.5244(3)
H16 H 0.7252 0.0303 0.5723
C22 C 0.5702(5) 0.1033(2) 0.5123(3)
H17 H 0.5266 0.0773 0.5529
C23 C 0.5143(4) 0.1685(2) 0.4423(3)
H18 H 0.4344 0.1873 0.4356
C24 C 0.5810(3) 0.20536(19) 0.3819(3)
O2B O 0.38367(17) 0.45277(11) 0.32722(17)
Zn1B Zn 0.40399(3) 0.572945(19) 0.37684(3)
O1B O 0.45664(18) 0.61462(13) 0.54163(17)
C11B C 0.5434(2) 0.60766(17) 0.6369(2)
N2_2 N 0.7855(2) 0.42648(14) 0.6287(2)
Zn1_2 Zn -0.40399(3) 0.427055(19) 0.62316(3)
C12B C 0.5660(3) 0.67978(17) 0.7211(3)
N3B N 0.4564(2) 0.73202(14) 0.6988(2)
C13B C 0.3595(3) 0.71580(19) 0.7385(3)
C14B C 0.3555(4) 0.6623(2) 0.8226(3)
H11B H 0.4247 0.6292 0.8625
C15B C 0.2444(4) 0.6592(2) 0.8462(4)
H12B H 0.2395 0.6241 0.9034
C16B C 0.1400(4) 0.7086(3) 0.7842(4)
H13B H 0.0656 0.7043 0.7989
C17B C 0.1459(4) 0.7629(3) 0.7026(4)
H14B H 0.0763 0.7957 0.6627
C18B C 0.2558(3) 0.7687(2) 0.6799(3)
C19B C 0.2966(3) 0.82017(19) 0.6063(3)
C20B C 0.2433(4) 0.8872(2) 0.5350(3)
H15B H 0.1634 0.9062 0.5274
C21B C 0.3100(5) 0.9252(2) 0.4756(3)
H16B H 0.2748 0.9697 0.4277
C22B C 0.4298(5) 0.8967(2) 0.4877(3)
H17B H 0.4734 0.9227 0.4471
C23B C 0.4857(4) 0.8315(2) 0.5577(3)
H18B H 0.5656 0.8127 0.5644
C24B C 0.4190(3) 0.79464(19) 0.6181(3)
H9B H 0.6354 0.7129 0.7171
H10B H 0.5913 0.6582 0.7988
O3B O 0.3393(2) 0.60561(16) 0.1830(2)
N4B N 0.3386(2) 0.68107(18) 0.2048(3)
O4B O 0.3698(2) 0.70077(15) 0.3093(2)
N1B N 0.5925(2) 0.57856(13) 0.37842(19)
C1B C 0.6848(2) 0.62454(17) 0.4518(2)
H1B H 0.6651 0.6573 0.5041
C2B C 0.8074(3) 0.62624(17) 0.4544(3)
H2B H 0.8680 0.6594 0.5073
C3B C 0.8396(2) 0.57772(16) 0.3771(2)
C4B C 0.7429(3) 0.53112(18) 0.3000(3)
H3B H 0.7592 0.4983 0.2460
C5B C 0.6237(3) 0.53331(18) 0.3031(3)
H4B H 0.5608 0.5016 0.2501
C6B C 0.9693(2) 0.57638(17) 0.3751(2)
C7B C 1.0572(3) 0.63646(18) 0.4287(3)
H5B H 1.0359 0.6795 0.4673
C8B C 1.1769(3) 0.63233(19) 0.4244(3)
N2B N 1.2145(2) 0.57352(14) 0.3713(2)
Zn1B_2 Zn 1.40399(3) 0.572945(19) 0.37684(3)
C9B C 1.1302(3) 0.51634(19) 0.3183(3)
H7B H 1.1541 0.4746 0.2795
C10B C 1.0087(3) 0.51578(19) 0.3180(3)
H8B H 0.9527 0.4744 0.2790
H6B H 1.2346 0.6735 0.4613
N2B_2 N 0.2145(2) 0.57352(14) 0.3713(2)
O5B O 0.3073(3) 0.73437(17) 0.1289(2)
loop_
_geom_bond_atom_site_label_1
_geom_bond_atom_site_label_2
_geom_bond_site_symmetry_1
_geom_bond_site_symmetry_2
Zn1 O1 1_555 1_555
O1 C11 1_555 1_555
O2 Zn1 1_555 1_555
O3 Zn1 1_555 1_555
O4 Zn1 1_555 1_555
O5 N4 1_555 1_555
N1 Zn1 1_555 1_555
N2 C8 1_555 1_555
N3 C12 1_555 1_555
N4 O3 1_555 1_555
C1 N1 1_555 1_555
H1 C1 1_555 1_555
C2 C1 1_555 1_555
H2 C2 1_555 1_555
C3 C2 1_555 1_555
C4 C3 1_555 1_555
H3 C4 1_555 1_555
C5 N1 1_555 1_555
H4 C5 1_555 1_555
C6 C3 1_555 1_555
C7 C6 1_555 1_555
H5 C7 1_555 1_555
C8 C7 1_555 1_555
H6 C8 1_555 1_555
C9 N2 1_555 1_555
H7 C9 1_555 1_555
C10 C6 1_555 1_555
H8 C10 1_555 1_555
C11 C12 1_555 1_555
C12 H9 1_555 1_555
H10 C12 1_555 1_555
C13 N3 1_555 1_555
C14 C13 1_555 1_555
H11 C14 1_555 1_555
C15 C14 1_555 1_555
H12 C15 1_555 1_555
C16 C15 1_555 1_555
H13 C16 1_555 1_555
C17 C16 1_555 1_555
H14 C17 1_555 1_555
C18 C13 1_555 1_555
C19 C18 1_555 1_555
C20 C19 1_555 1_555
H15 C20 1_555 1_555
C21 C20 1_555 1_555
H16 C21 1_555 1_555
C22 C21 1_555 1_555
H17 C22 1_555 1_555
C23 C22 1_555 1_555
H18 C23 1_555 1_555
C24 N3 1_555 1_555
O2B C11 1_555 1_555
Zn1B O2B 1_555 1_555
O1B Zn1B 1_555 1_555
C11B O2 1_555 1_555
N2_2 Zn1 1_555 1_555
Zn1_2 N2 1_555 1_555
C12B C11B 1_555 1_555
N3B C12B 1_555 1_555
C13B N3B 1_555 1_555
C14B C13B 1_555 1_555
H11B C14B 1_555 1_555
C15B C14B 1_555 1_555
H12B C15B 1_555 1_555
C16B C15B 1_555 1_555
H13B C16B 1_555 1_555
C17B C16B 1_555 1_555
H14B C17B 1_555 1_555
C18B C13B 1_555 1_555
C19B C18B 1_555 1_555
C20B C19B 1_555 1_555
H15B C20B 1_555 1_555
C21B C20B 1_555 1_555
H16B C21B 1_555 1_555
C22B C21B 1_555 1_555
H17B C22B 1_555 1_555
C23B C22B 1_555 1_555
H18B C23B 1_555 1_555
C24B N3B 1_555 1_555
H9B C12B 1_555 1_555
H10B C12B 1_555 1_555
O3B Zn1B 1_555 1_555
N4B O3B 1_555 1_555
O4B Zn1B 1_555 1_555
N1B Zn1B 1_555 1_555
C1B N1B 1_555 1_555
H1B C1B 1_555 1_555
C2B C1B 1_555 1_555
H2B C2B 1_555 1_555
C3B C2B 1_555 1_555
C4B C3B 1_555 1_555
H3B C4B 1_555 1_555
C5B N1B 1_555 1_555
H4B C5B 1_555 1_555
C6B C3B 1_555 1_555
C7B C6B 1_555 1_555
H5B C7B 1_555 1_555
C8B C7B 1_555 1_555
N2B C8B 1_555 1_555
Zn1B_2 N2B 1_555 1_555
C9B N2B 1_555 1_555
H7B C9B 1_555 1_555
C10B C6B 1_555 1_555
H8B C10B 1_555 1_555
H6B C8B 1_555 1_555
N2B_2 Zn1B 1_555 1_555
O5B N4B 1_555 1_555
O4 N4 1_555 1_555
C4 C5 1_555 1_555
C9 C10 1_555 1_555
C17 C18 1_555 1_555
C19 C24 1_555 1_555
C23 C24 1_555 1_555
O1B C11B 1_555 1_555
C17B C18B 1_555 1_555
C19B C24B 1_555 1_555
C23B C24B 1_555 1_555
N4B O4B 1_555 1_555
C4B C5B 1_555 1_555
C9B C10B 1_555 1_555

#END
