
#######################################################################
#
#                 Cambridge Crystallographic Data Centre
#                                CCDC 
#
#######################################################################
#
# If this CIF has been generated from an entry in the Cambridge 
# Structural Database, then it will include bibliographic, chemical, 
# crystal, experimental, refinement or atomic coordinate data resulting 
# from the CCDC's data processing and validation procedures.
#
#######################################################################

data_AKUHOD
_symmetry_cell_setting           monoclinic
_symmetry_space_group_name_H-M   'I 2/a'
_symmetry_Int_Tables_number      15
_space_group_name_Hall           '-I 2ya'
loop_
_symmetry_equiv_pos_site_id
_symmetry_equiv_pos_as_xyz
1 x,y,z
2 1/2+x,1/2+y,1/2+z
3 1/2-x,y,-z
4 -x,1/2+y,1/2-z
5 -x,-y,-z
6 1/2-x,1/2-y,1/2-z
7 1/2+x,-y,z
8 x,1/2-y,1/2+z
_cell_length_a                   11.1064(10)
_cell_length_b                   12.2524(10)
_cell_length_c                   13.6098(10)
_cell_angle_alpha                90.00
_cell_angle_beta                 92.925(10)
_cell_angle_gamma                90.00
_cell_volume                     1849.61
loop_
_atom_site_label
_atom_site_type_symbol
_atom_site_fract_x
_atom_site_fract_y
_atom_site_fract_z
Gd1 Gd 0.096550(10) 0.148610(9) 0.216960(8)
C1 C -0.1597(3) 0.3286(2) 0.1195(2)
H1 H -0.240(6) 0.377(5) 0.112(5)
H2 H -0.118(4) 0.320(3) 0.058(3)
O1 O -0.0073(2) 0.1795(2) 0.37408(16)
H3 H 0.048(5) 0.209(6) 0.434(5)
H4 H -0.069(5) 0.230(4) 0.360(4)
O2 O 0.01887(18) 0.33203(16) 0.22609(16)
O3 O -0.1088(2) 0.14438(14) 0.16585(18)
O4 O -0.11013(18) 0.74134(18) 0.44831(14)
O5 O -0.29952(19) 0.18347(19) 0.1286(2)
O6 O 0.2900(2) 0.0644(2) 0.1805(2)
H5 H 0.355(5) 0.087(4) 0.208(3)
H6 H 0.328(9) 0.001(11) 0.199(9)
O7 O 0.0742(3) 0.0054(2) 0.0870(2)
C2 C -0.0679(2) 0.3846(2) 0.18828(18)
C3 C -0.1914(2) 0.2111(2) 0.14007(19)
C4 C -0.2500 0.8749(3) 0.5000
H7 H -0.332(6) 0.902(6) 0.471(5)
C5 C -0.2002(2) 0.7989(2) 0.42438(17)
O8 O -0.0838(2) 0.48463(17) 0.20074(19)
O9 O -0.25196(17) 0.79077(16) 0.33964(13)
Gd1C Gd -0.096550(10) 0.648610(9) 0.283040(8)
Gd1F Gd -0.403450(10) 0.851390(9) 0.216960(8)
Gd1_2 Gd 0.096550(10) 1.148610(9) 0.216960(8)
Gd1A Gd -0.403450(10) 0.648610(9) 0.716960(8)
Gd1D Gd -0.096550(10) 0.851390(9) 0.783040(8)
C1C C 0.1597(3) 0.8286(2) 0.3805(2)
H1C H 0.240(6) 0.877(5) 0.388(5)
H2C H 0.118(4) 0.820(3) 0.442(3)
O1C O 0.0073(2) 0.6795(2) 0.12592(16)
H3C H -0.048(5) 0.709(6) 0.066(5)
H4C H 0.069(5) 0.730(4) 0.140(4)
O2C O -0.01887(18) 0.83203(16) 0.27391(16)
O3C O 0.1088(2) 0.64438(14) 0.33415(18)
O4C O 0.11013(18) 0.24134(18) 0.05169(14)
O4B O -0.38987(18) 0.74134(18) 0.55169(14)
O5C O 0.29952(19) 0.68347(19) 0.3714(2)
O6C O -0.2900(2) 0.5644(2) 0.3195(2)
H5C H -0.355(5) 0.587(4) 0.292(3)
H6C H -0.328(9) 0.501(11) 0.301(9)
O7C O -0.0742(3) 0.5054(2) 0.4130(2)
C2C C 0.0679(2) 0.8846(2) 0.31172(18)
C3C C 0.1914(2) 0.7111(2) 0.35993(19)
H7B H -0.168(6) 0.902(6) 0.529(5)
C5B C -0.2998(2) 0.7989(2) 0.57562(17)
O8C O 0.0838(2) -0.01537(17) 0.29926(19)
O8C_2 O 0.0838(2) 0.98463(17) 0.29926(19)
O9C O 0.25196(17) 0.29077(16) 0.16036(13)
O9F O 0.24804(17) 0.20923(16) 0.33964(13)
O9E O -0.24804(17) 0.70923(16) 0.16036(13)
O9B O -0.24804(17) 0.79077(16) 0.66036(13)
loop_
_geom_bond_atom_site_label_1
_geom_bond_atom_site_label_2
_geom_bond_site_symmetry_1
_geom_bond_site_symmetry_2
Gd1 O1 1_555 1_555
C1 H1 1_555 1_555
H2 C1 1_555 1_555
O1 H3 1_555 1_555
H4 O1 1_555 1_555
O2 Gd1 1_555 1_555
O3 Gd1 1_555 1_555
O4 C5 1_555 1_555
O5 C3 1_555 1_555
O6 Gd1 1_555 1_555
H5 O6 1_555 1_555
H6 O6 1_555 1_555
O7 Gd1 1_555 1_555
C2 C1 1_555 1_555
C3 C1 1_555 1_555
C4 H7 1_555 1_555
C5 C4 1_555 1_555
O8 C2 1_555 1_555
O9 C5 1_555 1_555
Gd1C O4 1_555 1_555
Gd1F O9 1_555 1_555
Gd1_2 O8C_2 1_555 1_555
Gd1A O4B 1_555 1_555
Gd1D O9B 1_555 1_555
C1C H1C 1_555 1_555
H2C C1C 1_555 1_555
O1C Gd1C 1_555 1_555
H3C O1C 1_555 1_555
H4C O1C 1_555 1_555
O2C Gd1C 1_555 1_555
O3C Gd1C 1_555 1_555
O4C Gd1 1_555 1_555
O4B C5B 1_555 1_555
O5C C3C 1_555 1_555
O6C Gd1C 1_555 1_555
H5C O6C 1_555 1_555
H6C O6C 1_555 1_555
O7C Gd1C 1_555 1_555
C2C C1C 1_555 1_555
C3C C1C 1_555 1_555
H7B C4 1_555 1_555
C5B C4 1_555 1_555
O8C Gd1 1_555 1_555
O8C_2 C2C 1_555 1_555
O9C Gd1 1_555 1_555
O9F Gd1 1_555 1_555
O9E Gd1C 1_555 1_555
O9B Gd1A 1_555 1_555
O2 C2 1_555 1_555
O3 C3 1_555 1_555
O8 Gd1C 1_555 1_555
O9 Gd1C 1_555 1_555
Gd1F O9E 1_555 1_555
O2C C2C 1_555 1_555
O3C C3C 1_555 1_555
C5B O9B 1_555 1_555

#END
