
#######################################################################
#
#                 Cambridge Crystallographic Data Centre
#                                CCDC 
#
#######################################################################
#
# If this CIF has been generated from an entry in the Cambridge 
# Structural Database, then it will include bibliographic, chemical, 
# crystal, experimental, refinement or atomic coordinate data resulting 
# from the CCDC's data processing and validation procedures.
#
#######################################################################

data_ALALUU
_symmetry_cell_setting           monoclinic
_symmetry_space_group_name_H-M   'C 2/c'
_symmetry_Int_Tables_number      15
_space_group_name_Hall           '-C 2yn'
loop_
_symmetry_equiv_pos_site_id
_symmetry_equiv_pos_as_xyz
1 x,y,z
2 x,-y,1/2+z
3 1/2+x,1/2+y,z
4 1/2+x,1/2-y,1/2+z
5 -x,-y,-z
6 -x,y,1/2-z
7 1/2-x,1/2-y,-z
8 1/2-x,1/2+y,1/2-z
_cell_length_a                   17.2600(7)
_cell_length_b                   12.4230(5)
_cell_length_c                   11.2380(4)
_cell_angle_alpha                90
_cell_angle_beta                 127.505(2)
_cell_angle_gamma                90
_cell_volume                     1911.59
loop_
_atom_site_label
_atom_site_type_symbol
_atom_site_fract_x
_atom_site_fract_y
_atom_site_fract_z
Pr1 Pr 0.28350(1) 0.35310(1) 0.38024(2)
O1 O 0.1242(2) 0.3206(3) 0.1153(4)
O2 O 0.3191(4) 0.4366(3) 0.6153(6)
O3 O 0.4156(4) 0.4973(4) 0.4943(9)
O4 O 0.3380(3) 0.35539(18) 0.2270(5)
O5 O 0.3723(3) 0.3156(3) 0.0718(5)
O6 O 0.2748(2) 0.1693(2) 0.2902(4)
O7 O 0.3010(3) 0.0186(2) 0.2152(5)
O8 O 0.15850(16) 0.2910(2) 0.4088(3)
O9 O 0.04916(19) 0.2440(3) 0.4399(4)
C1 C 0.3613(2) 0.2891(2) 0.1676(4)
C2 C 0.3815(3) 0.1724(3) 0.2192(5)
C3 C 0.3125(2) 0.1177(2) 0.2421(4)
C4 C 0.0743(2) 0.2994(2) 0.3752(4)
C5 C 0.00000 0.3748(4) 0.25000
H1 H 0.31800 0.51340 0.62350
H2 H 0.33350 0.39140 0.69590
H3 H 0.44630 0.51440 0.44860
H4 H 0.43490 0.53430 0.58360
H5 H 0.44660 0.17220 0.31170
H6 H 0.38050 0.13410 0.14410
H7 H 0.12610 0.28710 0.04020
H8 H 0.06270 0.34140 0.09190
H9 H 0.00000 0.48(2) 0.25000
C4E C -0.0743(2) 0.2994(2) 0.1248(4)
O8E O -0.15850(16) 0.2910(2) 0.0912(3)
O9E O -0.04916(19) 0.2440(3) 0.0601(4)
O4G O 0.1620(3) 0.85539(18) 0.2730(5)
O5G O 0.1277(3) 0.8156(3) 0.4282(5)
O6G O 0.2252(2) 0.6693(2) 0.2098(4)
O7G O 0.1990(3) 0.5186(2) 0.2848(5)
C1G C 0.1387(2) 0.7891(2) 0.3324(4)
C2G C 0.1185(3) 0.6724(3) 0.2808(5)
C3G C 0.1875(2) 0.6177(2) 0.2579(4)
H5G H 0.05340 0.67220 0.18830
H6G H 0.11950 0.63410 0.35590
Pr1G Pr 0.21650(1) 0.85310(1) 0.11976(2)
O1G O 0.3758(2) 0.8206(3) 0.3847(4)
H7G H 0.37390 0.78710 0.45980
H8G H 0.43730 0.84140 0.40810
O2G O 0.1809(4) 0.9366(3) -0.1153(6)
H1G H 0.18200 1.01340 -0.12350
H2G H 0.16650 0.89140 -0.19590
O3G O 0.0844(4) 0.9973(4) 0.0057(9)
H3G H 0.05370 1.01440 0.05140
H4G H 0.06510 1.03430 -0.08360
O8F O 0.34150(16) 0.2090(2) 0.5912(3)
O9F O 0.45084(19) 0.2560(3) 0.5601(4)
Pr1G_2 Pr 0.21650(1) -0.14690(1) 0.11976(2)
Pr1F Pr 0.21650(1) 0.14690(1) 0.61976(2)
Pr1C Pr -0.21650(1) 0.14690(1) -0.11976(2)
Pr1E Pr -0.28350(1) 0.35310(1) 0.11976(2)
O7_2 O 0.3010(3) 1.0186(2) 0.2152(5)
O8A O 0.15850(16) 0.7090(2) -0.0912(3)
O8G O 0.34150(16) 0.7910(2) 0.0912(3)
O9A O 0.04916(19) 0.7560(3) -0.0601(4)
loop_
_geom_bond_atom_site_label_1
_geom_bond_atom_site_label_2
_geom_bond_site_symmetry_1
_geom_bond_site_symmetry_2
Pr1 O1 1_555 1_555
O1 H7 1_555 1_555
O2 Pr1 1_555 1_555
O3 Pr1 1_555 1_555
O4 Pr1 1_555 1_555
O5 C1 1_555 1_555
O6 Pr1 1_555 1_555
O7 C3 1_555 1_555
O8 Pr1 1_555 1_555
O9 C4 1_555 1_555
C1 O4 1_555 1_555
C2 C1 1_555 1_555
C3 O6 1_555 1_555
C4 O8 1_555 1_555
C5 C4 1_555 1_555
H1 O2 1_555 1_555
H2 O2 1_555 1_555
H3 O3 1_555 1_555
H4 O3 1_555 1_555
H5 C2 1_555 1_555
H6 C2 1_555 1_555
H8 O1 1_555 1_555
H9 C5 1_555 1_555
C4E C5 1_555 1_555
O8E C4E 1_555 1_555
O9E C4E 1_555 1_555
O4G C1G 1_555 1_555
O5G C1G 1_555 1_555
O6G C3G 1_555 1_555
O7G Pr1 1_555 1_555
C1G C2G 1_555 1_555
C2G C3G 1_555 1_555
C3G O7G 1_555 1_555
H5G C2G 1_555 1_555
H6G C2G 1_555 1_555
Pr1G O4G 1_555 1_555
O1G Pr1G 1_555 1_555
H7G O1G 1_555 1_555
H8G O1G 1_555 1_555
O2G Pr1G 1_555 1_555
H1G O2G 1_555 1_555
H2G O2G 1_555 1_555
O3G Pr1G 1_555 1_555
H3G O3G 1_555 1_555
H4G O3G 1_555 1_555
O8F Pr1 1_555 1_555
O9F Pr1 1_555 1_555
Pr1G_2 O7 1_555 1_555
Pr1F O8 1_555 1_555
Pr1C O8E 1_555 1_555
Pr1E O8E 1_555 1_555
O7_2 Pr1G 1_555 1_555
O8A Pr1G 1_555 1_555
O8G Pr1G 1_555 1_555
O9A Pr1G 1_555 1_555
O9 Pr1F 1_555 1_555
C2 C3 1_555 1_555
O9E Pr1C 1_555 1_555
O6G Pr1G 1_555 1_555
O8F Pr1F 1_555 1_555

#END
