
#######################################################################
#
#                 Cambridge Crystallographic Data Centre
#                                CCDC 
#
#######################################################################
#
# If this CIF has been generated from an entry in the Cambridge 
# Structural Database, then it will include bibliographic, chemical, 
# crystal, experimental, refinement or atomic coordinate data resulting 
# from the CCDC's data processing and validation procedures.
#
#######################################################################

data_ALANOQ
_symmetry_cell_setting           monoclinic
_symmetry_space_group_name_H-M   'P 21/c'
_symmetry_Int_Tables_number      14
_space_group_name_Hall           '-P 2ybc'
loop_
_symmetry_equiv_pos_site_id
_symmetry_equiv_pos_as_xyz
1 x,y,z
2 x,1/2-y,1/2+z
3 -x,-y,-z
4 -x,1/2+y,1/2-z
_cell_length_a                   27.065(1)
_cell_length_b                   11.383(1)
_cell_length_c                   27.046(1)
_cell_angle_alpha                90
_cell_angle_beta                 118.9930(1)
_cell_angle_gamma                90
_cell_volume                     7288.14
loop_
_atom_site_label
_atom_site_type_symbol
_atom_site_fract_x
_atom_site_fract_y
_atom_site_fract_z
Co1 Co 0.44775(2) 0.35694(5) 0.30643(2)
Co2 Co 0.94197(2) 1.61120(5) 0.81293(2)
S1 S 0.66214(5) 0.98792(11) 0.58258(5)
S2 S 0.76851(6) -0.23880(14) 0.48223(6)
S3 S 0.25966(8) -0.22979(14) -0.02195(7)
S4 S 0.17056(6) 0.99724(13) 0.09564(6)
S5 S 0.29960(12) 0.2888(3) 0.34256(16)
S6 S 0.51568(7) 0.38106(15) 0.17900(7)
S7 S 0.82330(12) 1.6381(3) 0.89594(13)
S8 S 1.02353(8) 1.59684(18) 0.69481(8)
N1 N 0.48775(16) 0.4841(3) 0.37814(15)
N2 N 0.87524(15) 1.4860(3) 0.76237(15)
N3 N 0.51750(15) 0.2351(3) 0.35353(15)
N4 N 0.99010(15) -0.7638(3) 0.63935(15)
N5 N 0.40280(15) 0.2260(3) 0.23827(15)
N6 N 0.10337(16) -0.7529(3) -0.24776(15)
N7 N -0.01720(16) 1.4758(3) -0.12106(15)
N8 N 0.38252(14) 0.4880(3) 0.26125(14)
N9 N 0.40041(17) 0.2957(3) 0.34253(15)
N10 N 0.49027(16) 0.4236(3) 0.26567(18)
N11 N 0.89693(17) 1.6643(3) 0.85309(15)
N12 N 0.98561(16) 1.5514(3) 0.77140(16)
C1 C 0.4598(2) 0.5239(5) 0.4034(2)
H1 H 0.4254 0.4889 0.3947
C2 C 0.4791(2) 0.6152(5) 0.4425(2)
H2 H 0.4575 0.6416 0.4585
C3 C 0.5312(2) 0.6668(4) 0.4573(2)
C4 C 0.5592(3) 0.6205(6) 0.4317(3)
H3 H 0.5946 0.6504 0.4406
C5 C 0.5371(2) 0.5319(5) 0.3934(3)
H4 H 0.5582 0.5036 0.3771
C6 C 0.5525(2) 0.7625(4) 0.4970(2)
C7 C 0.5706(2) 0.8440(4) 0.5268(2)
C8 C 0.59450(19) 0.9445(4) 0.56274(19)
C9 C 0.5685(2) 1.0203(5) 0.5819(3)
H5 H 0.5311 1.0135 0.5739
C10 C 0.6056(2) 1.1112(5) 0.6156(3)
H6 H 0.5957 1.1685 0.6337
C11 C 0.6574(2) 1.1052(4) 0.6188(2)
C12 C 0.7048(2) 1.1824(5) 0.6480(2)
C13 C 0.7436(2) 1.2469(5) 0.6710(2)
C14 C 0.78924(19) 1.3271(4) 0.70082(19)
C15 C 0.8451(2) 1.2957(4) 0.7244(2)
H7 H 0.8548 1.2193 0.7204
C16 C 0.8866(2) 1.3764(4) 0.75380(19)
H8 H 0.9241 1.3538 0.7684
C17 C 0.82091(19) 1.5173(4) 0.7384(2)
H9 H 0.8121 1.5942 0.7429
C18 C 0.77803(19) 1.4418(4) 0.7079(2)
H10 H 0.7408 1.4678 0.6916
C19 C 0.5504(2) 0.1955(5) 0.3335(2)
H11 H 0.5440 0.2229 0.2985
C20 C 0.5937(2) 0.1160(5) 0.3617(2)
H12 H 0.6153 0.0904 0.3456
C21 C 0.60432(18) 0.0752(4) 0.41335(19)
C22 C 0.5718(2) 0.1186(5) 0.4350(2)
H13 H 0.5782 0.0947 0.4705
C23 C 0.52925(19) 0.1985(4) 0.4039(2)
H14 H 0.5079 0.2276 0.4197
C24 C 0.6464(2) -0.0146(4) 0.4421(2)
C25 C 0.67961(19) -0.0913(5) 0.4645(2)
C26 C 0.71496(19) -0.1899(5) 0.4928(2)
C27 C 0.7176(4) -0.2656(5) 0.5291(2)
H15 H 0.6928 -0.2519 0.5431
C28 C 0.7479(3) -0.3540(6) 0.5489(3)
H16 H 0.7463 -0.4099 0.5731
C29 C 0.7842(2) -0.3510(5) 0.5269(2)
C30 C 0.82789(19) -0.4330(5) 0.54029(19)
C31 C 0.86326(19) -0.5072(4) 0.5560(2)
C32 C 0.90585(18) -0.5966(4) 0.58183(19)
C33 C 0.9391(2) -0.6371(5) 0.5601(2)
H17 H 0.9343 -0.6085 0.5258
C34 C 0.98009(19) -0.7211(4) 0.5898(2)
H18 H 1.0017 -0.7490 0.5740
C35 C 0.9569(3) -0.7228(5) 0.6592(2)
H19 H 0.9619 -0.7531 0.6932
C36 C 0.9166(2) -0.6405(5) 0.6332(2)
H20 H 0.8960 -0.6135 0.6502
C37 C 0.3882(2) 0.2440(4) 0.1844(2)
H21 H 0.3976 0.3156 0.1746
C38 C 0.3598(2) 0.1630(6) 0.1419(2)
H22 H 0.3507 0.1810 0.1050
C39 C 0.3445(2) 0.0541(5) 0.1542(2)
C40 C 0.3584(3) 0.0381(5) 0.2088(2)
H23 H 0.3484 -0.0315 0.2197
C41 C 0.3874(3) 0.1245(5) 0.2492(2)
H24 H 0.3965 0.1089 0.2864
C42 C 0.3160(2) -0.0326(5) 0.1127(2)
C43 C 0.2922(3) -0.1101(5) 0.0784(2)
C44 C 0.2625(3) -0.2026(5) 0.0414(2)
C45 C 0.2316(3) -0.2859(6) 0.0492(3)
H25 H 0.2287 -0.2874 0.0820
C46 C 0.2042(3) -0.3694(7) 0.0073(3)
H26 H 0.1807 -0.4286 0.0075
C47 C 0.2183(3) -0.3490(5) -0.0355(2)
C48 C 0.1994(2) -0.4219(5) -0.0840(2)
C49 C 0.1817(2) -0.4898(5) -0.1220(2)
C50 C 0.1572(2) -0.5782(4) -0.1651(2)
C51 C 0.1361(2) -0.6805(5) -0.1541(2)
H27 H 0.1393 -0.6921 -0.1186
C52 C 0.1108(2) -0.7637(5) -0.1950(2)
H28 H 0.0980 -0.8319 -0.1859
C53 C 0.1265(3) -0.6574(4) -0.2566(2)
H29 H 0.1250 -0.6499 -0.2916
C54 C 0.1521(3) -0.5704(5) -0.2183(2)
H30 H 0.1662 -0.5050 -0.2279
C55 C -0.0454(2) 1.4233(5) -0.0988(3)
H31 H -0.0822 1.4474 -0.1104
C56 C -0.0230(3) 1.3345(5) -0.0592(3)
H32 H -0.0447 1.3015 -0.0446
C57 C 0.0307(2) 1.2945(4) -0.04108(19)
C58 C 0.0581(3) 1.3483(6) -0.0650(3)
H33 H 0.0947 1.3243 -0.0548
C59 C 0.0345(2) 1.4368(6) -0.1037(3)
H34 H 0.0558 1.4709 -0.1184
C60 C 0.0544(2) 1.2030(4) -0.0002(2)
C61 C 0.0754(2) 1.1265(5) 0.0339(2)
C62 C 0.10171(19) 1.0371(4) 0.07502(18)
C63 C 0.0815(2) 0.9725(5) 0.1018(2)
H35 H 0.0449 0.9811 0.0960
C64 C 0.1192(2) 0.8908(5) 0.1392(2)
H36 H 0.1105 0.8402 0.1608
C65 C 0.1696(2) 0.8924(4) 0.14089(19)
C66 C 0.2168(2) 0.8173(5) 0.1704(2)
C67 C 0.2551(2) 0.7496(5) 0.1931(2)
C68 C 0.29902(19) 0.6623(4) 0.21634(18)
C69 C 0.3562(2) 0.6904(4) 0.2451(2)
H37 H 0.3677 0.7685 0.2504
C70 C 0.39496(19) 0.6029(4) 0.2653(2)
H38 H 0.4329 0.6240 0.2833
C71 C 0.32806(19) 0.4626(4) 0.23318(19)
H39 H 0.3181 0.3836 0.2288
C72 C 0.2853(2) 0.5428(4) 0.21013(19)
H40 H 0.2478 0.5185 0.1907
C73 C 0.3593(3) 0.2927(5) 0.3438(2)
C74 C 0.50149(19) 0.4072(4) 0.2304(2)
C75 C 0.8661(2) 1.6549(5) 0.8698(3)
C76 C 1.00225(19) 1.5667(4) 0.7399(2)
N4C N 1.00990(15) 1.7362(3) 0.86065(15)
N6C N 0.89663(16) 1.7471(3) 0.74776(15)
Co2C Co 1.05803(2) -0.88880(5) 0.68707(2)
Co2C_2 Co 0.05803(2) -0.88880(5) -0.31293(2)
N7_2 N 0.98280(16) 1.4758(3) 0.87894(15)
Co2_2 Co -0.05803(2) 1.61120(5) -0.18707(2)
loop_
_geom_bond_atom_site_label_1
_geom_bond_atom_site_label_2
_geom_bond_site_symmetry_1
_geom_bond_site_symmetry_2
Co1 N1 1_555 1_555
Co2 N2 1_555 1_555
S1 C8 1_555 1_555
S2 C26 1_555 1_555
S3 C44 1_555 1_555
S4 C62 1_555 1_555
S5 C73 1_555 1_555
S6 C74 1_555 1_555
S7 C75 1_555 1_555
S8 C76 1_555 1_555
N1 C1 1_555 1_555
N2 C16 1_555 1_555
N3 Co1 1_555 1_555
N4 C34 1_555 1_555
N5 Co1 1_555 1_555
N6 C52 1_555 1_555
N7 C55 1_555 1_555
N8 Co1 1_555 1_555
N9 Co1 1_555 1_555
N10 Co1 1_555 1_555
N11 Co2 1_555 1_555
N12 Co2 1_555 1_555
C1 H1 1_555 1_555
C2 C1 1_555 1_555
H2 C2 1_555 1_555
C3 C2 1_555 1_555
C4 C3 1_555 1_555
H3 C4 1_555 1_555
C5 N1 1_555 1_555
H4 C5 1_555 1_555
C6 C3 1_555 1_555
C7 C6 1_555 1_555
C8 C7 1_555 1_555
C9 C8 1_555 1_555
H5 C9 1_555 1_555
C10 C9 1_555 1_555
H6 C10 1_555 1_555
C11 S1 1_555 1_555
C12 C11 1_555 1_555
C13 C12 1_555 1_555
C14 C13 1_555 1_555
C15 C14 1_555 1_555
H7 C15 1_555 1_555
C16 C15 1_555 1_555
H8 C16 1_555 1_555
C17 N2 1_555 1_555
H9 C17 1_555 1_555
C18 C14 1_555 1_555
H10 C18 1_555 1_555
C19 N3 1_555 1_555
H11 C19 1_555 1_555
C20 C19 1_555 1_555
H12 C20 1_555 1_555
C21 C20 1_555 1_555
C22 C21 1_555 1_555
H13 C22 1_555 1_555
C23 N3 1_555 1_555
H14 C23 1_555 1_555
C24 C21 1_555 1_555
C25 C24 1_555 1_555
C26 C25 1_555 1_555
C27 C26 1_555 1_555
H15 C27 1_555 1_555
C28 C27 1_555 1_555
H16 C28 1_555 1_555
C29 S2 1_555 1_555
C30 C29 1_555 1_555
C31 C30 1_555 1_555
C32 C31 1_555 1_555
C33 C32 1_555 1_555
H17 C33 1_555 1_555
C34 C33 1_555 1_555
H18 C34 1_555 1_555
C35 N4 1_555 1_555
H19 C35 1_555 1_555
C36 C32 1_555 1_555
H20 C36 1_555 1_555
C37 N5 1_555 1_555
H21 C37 1_555 1_555
C38 C37 1_555 1_555
H22 C38 1_555 1_555
C39 C38 1_555 1_555
C40 C39 1_555 1_555
H23 C40 1_555 1_555
C41 N5 1_555 1_555
H24 C41 1_555 1_555
C42 C39 1_555 1_555
C43 C42 1_555 1_555
C44 C43 1_555 1_555
C45 C44 1_555 1_555
H25 C45 1_555 1_555
C46 C45 1_555 1_555
H26 C46 1_555 1_555
C47 S3 1_555 1_555
C48 C47 1_555 1_555
C49 C48 1_555 1_555
C50 C49 1_555 1_555
C51 C50 1_555 1_555
H27 C51 1_555 1_555
C52 C51 1_555 1_555
H28 C52 1_555 1_555
C53 N6 1_555 1_555
H29 C53 1_555 1_555
C54 C50 1_555 1_555
H30 C54 1_555 1_555
C55 H31 1_555 1_555
C56 C55 1_555 1_555
H32 C56 1_555 1_555
C57 C56 1_555 1_555
C58 C57 1_555 1_555
H33 C58 1_555 1_555
C59 N7 1_555 1_555
H34 C59 1_555 1_555
C60 C57 1_555 1_555
C61 C60 1_555 1_555
C62 C61 1_555 1_555
C63 C62 1_555 1_555
H35 C63 1_555 1_555
C64 C63 1_555 1_555
H36 C64 1_555 1_555
C65 S4 1_555 1_555
C66 C65 1_555 1_555
C67 C66 1_555 1_555
C68 C67 1_555 1_555
C69 C68 1_555 1_555
H37 C69 1_555 1_555
C70 N8 1_555 1_555
H38 C70 1_555 1_555
C71 N8 1_555 1_555
H39 C71 1_555 1_555
C72 C68 1_555 1_555
H40 C72 1_555 1_555
C73 N9 1_555 1_555
C74 N10 1_555 1_555
C75 N11 1_555 1_555
C76 N12 1_555 1_555
N4C Co2 1_555 1_555
N6C Co2 1_555 1_555
Co2C N4 1_555 1_555
Co2C_2 N6 1_555 1_555
N7_2 Co2 1_555 1_555
Co2_2 N7 1_555 1_555
C4 C5 1_555 1_555
C10 C11 1_555 1_555
C17 C18 1_555 1_555
C22 C23 1_555 1_555
C28 C29 1_555 1_555
C35 C36 1_555 1_555
C40 C41 1_555 1_555
C46 C47 1_555 1_555
C53 C54 1_555 1_555
C58 C59 1_555 1_555
C64 C65 1_555 1_555
C69 C70 1_555 1_555
C71 C72 1_555 1_555

#END
