
#######################################################################
#
#                 Cambridge Crystallographic Data Centre
#                                CCDC 
#
#######################################################################
#
# If this CIF has been generated from an entry in the Cambridge 
# Structural Database, then it will include bibliographic, chemical, 
# crystal, experimental, refinement or atomic coordinate data resulting 
# from the CCDC's data processing and validation procedures.
#
#######################################################################

data_ALECUP
_symmetry_cell_setting           triclinic
_symmetry_space_group_name_H-M   'P -1'
_symmetry_Int_Tables_number      2
_space_group_name_Hall           '-P 1'
loop_
_symmetry_equiv_pos_site_id
_symmetry_equiv_pos_as_xyz
1 x,y,z
2 -x,-y,-z
_cell_length_a                   8.8385(6)
_cell_length_b                   9.0586(6)
_cell_length_c                   16.0200(10)
_cell_angle_alpha                77.6160(10)
_cell_angle_beta                 83.3590(10)
_cell_angle_gamma                68.2510(10)
_cell_volume                     1162.68
loop_
_atom_site_label
_atom_site_type_symbol
_atom_site_fract_x
_atom_site_fract_y
_atom_site_fract_z
Mn1 Mn 0.22712(5) 0.27882(5) 0.42861(2)
Mn2 Mn 0.28383(6) 0.25503(5) 0.07339(3)
P1 P -0.15271(8) 0.35138(8) 0.52304(4)
O1 O -0.0267(2) 0.3251(3) 0.44898(13)
O2 O -0.2857(3) 0.2837(3) 0.50384(14)
H1 H -0.3604 0.3555 0.4634
O3 O -0.0880(3) 0.2545(2) 0.60911(12)
O4 O 0.2398(3) 0.4694(2) 0.47764(14)
O5 O 0.5020(2) 0.1531(2) 0.41326(12)
O6 O 0.2252(3) 0.1249(2) 0.33651(12)
O7 O 0.2950(2) 0.0714(2) 0.53422(13)
O8 O 0.2559(3) 0.4179(2) 0.29774(13)
O9 O 0.5352(3) 0.1566(3) 0.03299(16)
O10 O 0.2891(3) 0.0543(3) 0.02022(14)
O11 O 0.2828(3) 0.0982(2) 0.20006(12)
O12 O 0.2034(3) 0.4434(3) -0.03800(14)
O13 O 0.3233(3) 0.3857(3) 0.16242(13)
O14 O 0.0187(3) 0.3622(3) 0.09635(15)
C1 C 0.2614(3) 0.1729(3) 0.26066(17)
C2 C 0.2817(3) 0.3411(3) 0.23838(18)
C3 C 0.5590(3) 0.0247(3) 0.46474(16)
C4 C 0.0538(4) 0.5239(4) -0.03896(18)
C5 C 0.5704(3) 0.0300(4) 0.00383(17)
O4A O -0.2398(3) 0.5306(2) 0.52236(14)
Mn1A Mn -0.22712(5) 0.72118(5) 0.57139(2)
O1A O 0.0267(2) 0.6749(3) 0.55102(13)
P1A P 0.15271(8) 0.64862(8) 0.47696(4)
O2A O 0.2857(3) 0.7163(3) 0.49616(14)
H1A H 0.3604 0.6445 0.5366
O3A O 0.0880(3) 0.7455(2) 0.39089(12)
O7A O 0.7050(2) -0.0714(2) 0.46578(13)
Mn1A_2 Mn 0.77288(5) -0.27882(5) 0.57139(2)
O5A O 0.4980(2) -0.1531(2) 0.58674(12)
C3A C 0.4410(3) -0.0247(3) 0.53526(16)
O10A O 0.7109(3) -0.0543(3) -0.02022(14)
Mn2A Mn 0.71617(6) -0.25503(5) -0.07339(3)
O9A O 0.4648(3) -0.1566(3) -0.03299(16)
C5A C 0.4296(3) -0.0300(4) -0.00383(17)
O14A O -0.0187(3) 0.6378(3) -0.09635(15)
Mn2A_2 Mn -0.28383(6) 0.74497(5) -0.07339(3)
O12A O -0.2034(3) 0.5566(3) 0.03800(14)
C4A C -0.0538(4) 0.4761(4) 0.03896(18)
O11A O 0.7172(3) -0.0982(2) -0.20006(12)
O12A_2 O 0.7966(3) -0.4434(3) 0.03800(14)
O13A O 0.6767(3) -0.3857(3) -0.16242(13)
O14A_2 O 0.9813(3) -0.3622(3) -0.09635(15)
O5A_2 O -0.5020(2) 0.8469(2) 0.58674(12)
O6A O -0.2252(3) 0.8751(2) 0.66349(12)
O7A_2 O -0.2950(2) 0.9286(2) 0.46578(13)
O8A O -0.2559(3) 0.5821(2) 0.70226(13)
C3A_2 C -0.5590(3) 0.9753(3) 0.53526(16)
C3_2 C -0.4410(3) 1.0247(3) 0.46474(16)
O7_2 O -0.7050(2) 1.0714(2) 0.53422(13)
O5_2 O -0.4980(2) 1.1531(2) 0.41326(12)
Mn1_2 Mn -0.77288(5) 1.27882(5) 0.42861(2)
O15 O 0.4517(3) 0.4623(3) -0.17084(17)
O16 O -0.4645(3) 0.4822(3) 0.36851(17)
O17 O 0.4846(4) -0.1882(4) 0.3554(2)
N1 N -0.1221(3) 0.9295(3) 0.21353(15)
N2 N -0.0949(3) 1.0815(3) 0.35997(16)
H2 H -0.0219 0.9849 0.3585
H3 H -0.1793 1.0755 0.3945
H4 H -0.0558 1.1446 0.3830
N3 N 0.2451(3) 0.7857(3) 0.22069(18)
H5 H 0.1931 0.7596 0.2692
H6 H 0.3407 0.7022 0.2206
H7 H 0.2646 0.8883 0.2181
N4 N -0.1612(3) 0.6629(3) 0.34378(16)
H8 H -0.1055 0.7167 0.3513
H9 H -0.1521 0.5835 0.3770
H10 H -0.2719 0.7328 0.3600
C6 C -0.2308(4) 1.0886(4) 0.2307(2)
H11 H -0.3222 1.0756 0.2672
H12 H -0.2736 1.1578 0.1771
C7 C -0.1482(4) 1.1710(4) 0.2731(2)
H13 H -0.0541 1.1805 0.2378
H14 H -0.2231 1.2794 0.2770
C8 C -0.0068(4) 0.9444(4) 0.14032(19)
H15 H 0.0178 1.0411 0.1380
H16 H -0.0581 0.9565 0.0877
C9 C 0.1506(4) 0.7995(4) 0.1463(2)
H17 H 0.1259 0.7019 0.1520
H18 H 0.2164 0.8092 0.0941
C10 C -0.2142(4) 0.8299(4) 0.20038(19)
H19 H -0.2052 0.8230 0.1403
H20 H -0.3285 0.8832 0.2150
C11 C -0.1551(5) 0.6589(4) 0.2533(2)
H21 H -0.2231 0.6016 0.2437
H22 H -0.0441 0.6010 0.2351
loop_
_geom_bond_atom_site_label_1
_geom_bond_atom_site_label_2
_geom_bond_site_symmetry_1
_geom_bond_site_symmetry_2
Mn1 O1 1_555 1_555
Mn2 O9 1_555 1_555
P1 O1 1_555 1_555
O2 P1 1_555 1_555
H1 O2 1_555 1_555
O3 P1 1_555 1_555
O4 Mn1 1_555 1_555
O5 Mn1 1_555 1_555
O6 Mn1 1_555 1_555
O7 Mn1 1_555 1_555
O8 Mn1 1_555 1_555
O9 C5 1_555 1_555
O10 Mn2 1_555 1_555
O11 Mn2 1_555 1_555
O12 Mn2 1_555 1_555
O13 Mn2 1_555 1_555
O14 Mn2 1_555 1_555
N1 C6 1_555 1_555
N2 H2 1_555 1_555
H3 N2 1_555 1_555
H4 N2 1_555 1_555
N3 H5 1_555 1_555
H6 N3 1_555 1_555
H7 N3 1_555 1_555
N4 H8 1_555 1_555
H9 N4 1_555 1_555
H10 N4 1_555 1_555
C1 O6 1_555 1_555
C2 O8 1_555 1_555
C3 O5 1_555 1_555
C4 O12 1_555 1_555
C5 O10A 1_555 1_555
C6 H11 1_555 1_555
H12 C6 1_555 1_555
C7 N2 1_555 1_555
H13 C7 1_555 1_555
H14 C7 1_555 1_555
C8 N1 1_555 1_555
H15 C8 1_555 1_555
H16 C8 1_555 1_555
C9 N3 1_555 1_555
H17 C9 1_555 1_555
H18 C9 1_555 1_555
C10 N1 1_555 1_555
H19 C10 1_555 1_555
H20 C10 1_555 1_555
C11 N4 1_555 1_555
H21 C11 1_555 1_555
H22 C11 1_555 1_555
O4A P1 1_555 1_555
Mn1A O4A 1_555 1_555
O1A Mn1A 1_555 1_555
P1A O4 1_555 1_555
O2A P1A 1_555 1_555
H1A O2A 1_555 1_555
O3A P1A 1_555 1_555
O7A C3 1_555 1_555
Mn1A_2 O7A 1_555 1_555
O5A Mn1A_2 1_555 1_555
C3A O7 1_555 1_555
O10A Mn2A 1_555 1_555
Mn2A O9A 1_555 1_555
O9A C5A 1_555 1_555
C5A O10 1_555 1_555
O14A C4 1_555 1_555
Mn2A_2 O14A 1_555 1_555
O12A Mn2A_2 1_555 1_555
C4A O14 1_555 1_555
O11A Mn2A 1_555 1_555
O12A_2 Mn2A 1_555 1_555
O13A Mn2A 1_555 1_555
O14A_2 Mn2A 1_555 1_555
O5A_2 Mn1A 1_555 1_555
O6A Mn1A 1_555 1_555
O7A_2 Mn1A 1_555 1_555
O8A Mn1A 1_555 1_555
C3A_2 O5A_2 1_555 1_555
C3_2 O7A_2 1_555 1_555
O7_2 C3A_2 1_555 1_555
O5_2 C3_2 1_555 1_555
Mn1_2 O7_2 1_555 1_555
O11 C1 1_555 1_555
O13 C2 1_555 1_555
C1 C2 1_555 1_555
C3 C3A 1_555 1_555
C4 C4A 1_555 1_555
C5 C5A 1_555 1_555
C6 C7 1_555 1_555
C8 C9 1_555 1_555
C10 C11 1_555 1_555
O1A P1A 1_555 1_555
O5A C3A 1_555 1_555
O12A C4A 1_555 1_555
C3A_2 C3_2 1_555 1_555
O5_2 Mn1_2 1_555 1_555

#END
