
#######################################################################
#
#                 Cambridge Crystallographic Data Centre
#                                CCDC 
#
#######################################################################
#
# If this CIF has been generated from an entry in the Cambridge 
# Structural Database, then it will include bibliographic, chemical, 
# crystal, experimental, refinement or atomic coordinate data resulting 
# from the CCDC's data processing and validation procedures.
#
#######################################################################

data_ALEYOF
_symmetry_cell_setting           triclinic
_symmetry_space_group_name_H-M   'P -1'
_symmetry_Int_Tables_number      2
_space_group_name_Hall           '-P 1'
loop_
_symmetry_equiv_pos_site_id
_symmetry_equiv_pos_as_xyz
1 x,y,z
2 -x,-y,-z
_cell_length_a                   7.155(12)
_cell_length_b                   10.066(14)
_cell_length_c                   10.508(14)
_cell_angle_alpha                109.567(10)
_cell_angle_beta                 104.566(10)
_cell_angle_gamma                105.105(10)
_cell_volume                     638.947
loop_
_atom_site_label
_atom_site_type_symbol
_atom_site_fract_x
_atom_site_fract_y
_atom_site_fract_z
Fe1 Fe 0.59217(11) 0.88893(8) 0.89633(7)
N1 N 0.6484(7) 1.0102(5) 1.1228(5)
N2 N 0.6996(8) 0.9721(5) 1.2185(5)
N3 N 0.7485(11) 0.9396(7) 1.3138(6)
N4 N 0.8101(8) 1.0739(6) 0.8824(6)
N5 N 0.9820(7) 1.1342(5) 0.9683(5)
N6 N 1.1547(7) 1.1992(6) 1.0552(5)
N7 N 0.3790(7) 0.6702(5) 0.8668(4)
C1 C 0.3375(9) 0.6316(7) 0.9685(6)
H1 H 0.3897 0.7068 1.0633
C2 C 0.2184(10) 0.4824(7) 0.9398(7)
H2 H 0.1957 0.4600 1.0149
C3 C 0.1355(9) 0.3695(7) 0.7999(7)
H3 H 0.0562 0.2702 0.7791
C4 C 0.1734(8) 0.4076(6) 0.6889(6)
C5 C 0.2958(7) 0.5589(5) 0.7274(5)
C6 C 0.3398(8) 0.6046(6) 0.6184(5)
N8 N 0.4651(7) 0.7505(5) 0.6616(5)
C7 C 0.2471(8) 0.4963(6) 0.4701(6)
C8 C 0.2884(10) 0.5466(8) 0.3664(6)
H4 H 0.2329 0.4790 0.2684
C9 C 0.4087(11) 0.6932(8) 0.4097(6)
H5 H 0.4327 0.7272 0.3410
C10 C 0.4987(10) 0.7955(8) 0.5588(7)
H6 H 0.5830 0.8959 0.5869
C11 C 0.0873(9) 0.2976(6) 0.5398(7)
H7 H 0.0092 0.1966 0.5144
C12 C 0.1206(9) 0.3420(7) 0.4353(6)
H8 H 0.0598 0.2704 0.3386
N1A N 0.3516(7) 0.9898(5) 0.8772(5)
N6A N 0.8453(7) 0.8008(6) 0.9448(5)
Fe1A Fe 0.40783(11) 1.11107(8) 1.10367(7)
Fe1A_2 Fe 1.40783(11) 1.11107(8) 1.10367(7)
loop_
_geom_bond_atom_site_label_1
_geom_bond_atom_site_label_2
_geom_bond_site_symmetry_1
_geom_bond_site_symmetry_2
Fe1 N1 1_555 1_555
N1 N2 1_555 1_555
N2 N3 1_555 1_555
N4 Fe1 1_555 1_555
N5 N4 1_555 1_555
N6 N5 1_555 1_555
N7 Fe1 1_555 1_555
C1 N7 1_555 1_555
H1 C1 1_555 1_555
C2 C1 1_555 1_555
H2 C2 1_555 1_555
C3 C2 1_555 1_555
H3 C3 1_555 1_555
C4 C3 1_555 1_555
C5 N7 1_555 1_555
C6 C5 1_555 1_555
N8 Fe1 1_555 1_555
C7 C6 1_555 1_555
C8 C7 1_555 1_555
H4 C8 1_555 1_555
C9 C8 1_555 1_555
H5 C9 1_555 1_555
C10 N8 1_555 1_555
H6 C10 1_555 1_555
C11 C4 1_555 1_555
H7 C11 1_555 1_555
C12 C7 1_555 1_555
H8 C12 1_555 1_555
N1A Fe1 1_555 1_555
N6A Fe1 1_555 1_555
Fe1A N1 1_555 1_555
Fe1A_2 N6 1_555 1_555
C4 C5 1_555 1_555
C6 N8 1_555 1_555
C9 C10 1_555 1_555
C11 C12 1_555 1_555
N1A Fe1A 1_555 1_555

#END
