
#######################################################################
#
#                 Cambridge Crystallographic Data Centre
#                                CCDC 
#
#######################################################################
#
# If this CIF has been generated from an entry in the Cambridge 
# Structural Database, then it will include bibliographic, chemical, 
# crystal, experimental, refinement or atomic coordinate data resulting 
# from the CCDC's data processing and validation procedures.
#
#######################################################################

data_ALHSCU
_symmetry_cell_setting           monoclinic
_symmetry_space_group_name_H-M   'P 21'
_symmetry_Int_Tables_number      4
_space_group_name_Hall           'P 2yb'
loop_
_symmetry_equiv_pos_site_id
_symmetry_equiv_pos_as_xyz
1 x,y,z
2 -x,1/2+y,-z
_cell_length_a                   10.980(4)
_cell_length_b                   7.362(3)
_cell_length_c                   9.700(2)
_cell_angle_alpha                90
_cell_angle_beta                 101.45(3)
_cell_angle_gamma                90
_cell_volume                     768.492
loop_
_atom_site_label
_atom_site_type_symbol
_atom_site_fract_x
_atom_site_fract_y
_atom_site_fract_z
Cu1 Cu 0.19510 0.25010 0.14670
C1 C 0.50750 0.35680 0.49860
C2 C 0.43730 0.31550 0.34140
C3 C 0.47760 0.45180 0.24090
C4 C 0.43370 0.39840 0.08850
C5 C 0.31320 0.29620 -0.10160
C6 C 0.49560 0.42330 -0.02040
N1 N 0.30330 0.32150 0.32970
N2 N 0.32180 0.31750 0.03910
N3 N 0.41590 0.35760 -0.13670
O1 O 0.43870 0.37630 0.58500
O2 O 0.61880 0.36640 0.52010
C7 C -0.03290 0.15070 -0.01490
C8 C -0.06340 0.14770 0.13510
C9 C -0.18250 0.24610 0.14160
N4 N 0.04620 0.21410 0.23450
O3 O 0.07670 0.18290 -0.02560
O4 O -0.11620 0.12120 -0.11530
O5 O 0.27510 -0.06640 0.20330
O4A O 0.11620 0.62120 0.11530
Cu1A Cu -0.19510 -0.24990 -0.14670
loop_
_geom_bond_atom_site_label_1
_geom_bond_atom_site_label_2
_geom_bond_site_symmetry_1
_geom_bond_site_symmetry_2
Cu1 N1 1_555 1_555
C1 C2 1_555 1_555
C2 C3 1_555 1_555
C3 C4 1_555 1_555
C4 C6 1_555 1_555
C5 N2 1_555 1_555
C6 N3 1_555 1_555
N1 C2 1_555 1_555
N2 Cu1 1_555 1_555
N3 C5 1_555 1_555
O1 C1 1_555 1_555
O2 C1 1_555 1_555
C7 C8 1_555 1_555
C8 C9 1_555 1_555
N4 Cu1 1_555 1_555
O3 Cu1 1_555 1_555
O4 C7 1_555 1_555
O5 Cu1 1_555 1_555
O4A Cu1 1_555 1_555
Cu1A O4 1_555 1_555
C4 N2 1_555 1_555
C7 O3 1_555 1_555
C8 N4 1_555 1_555

#END
