
#######################################################################
#
#                 Cambridge Crystallographic Data Centre
#                                CCDC 
#
#######################################################################
#
# If this CIF has been generated from an entry in the Cambridge 
# Structural Database, then it will include bibliographic, chemical, 
# crystal, experimental, refinement or atomic coordinate data resulting 
# from the CCDC's data processing and validation procedures.
#
#######################################################################

data_ALIDOP
_symmetry_cell_setting           monoclinic
_symmetry_space_group_name_H-M   'P 21/c'
_symmetry_Int_Tables_number      14
_space_group_name_Hall           '-P 2ybc'
loop_
_symmetry_equiv_pos_site_id
_symmetry_equiv_pos_as_xyz
1 x,y,z
2 -x,1/2+y,1/2-z
3 -x,-y,-z
4 x,1/2-y,1/2+z
_cell_length_a                   10.1801(8)
_cell_length_b                   6.9427(5)
_cell_length_c                   24.8006(19)
_cell_angle_alpha                90
_cell_angle_beta                 91.265(1)
_cell_angle_gamma                90
_cell_volume                     1752.41
loop_
_atom_site_label
_atom_site_type_symbol
_atom_site_fract_x
_atom_site_fract_y
_atom_site_fract_z
Cu1 Cu 0.20191(3) 0.83209(5) 0.371630(13)
P1 P 0.12818(7) 0.96041(10) 0.24828(3)
O1 O 0.01104(19) 0.9036(3) 0.21301(8)
O2 O 0.11045(19) 0.8969(3) 0.30593(8)
O3 O 0.1588(2) 1.1809(3) 0.24472(9)
O4 O 0.6823(2) 0.6929(3) 0.11954(9)
O5 O 0.62348(19) 0.4092(3) 0.15273(8)
O6 O 0.1980(2) 0.5282(3) 0.34897(9)
N1 N 0.2638(2) 0.7908(4) 0.44922(10)
N2 N 0.0235(2) 0.8022(4) 0.40646(10)
C1 C 0.2735(3) 0.8551(4) 0.22050(11)
C2 C 0.3777(3) 0.9664(4) 0.20310(11)
H1 H 0.3745 1.1024 0.2071
C3 C 0.4870(3) 0.8816(4) 0.17980(11)
H2 H 0.5568 0.9598 0.1675
C4 C 0.4937(3) 0.6823(4) 0.17464(11)
C5 C 0.6086(3) 0.5905(4) 0.14697(11)
C6 C 0.3918(3) 0.5690(4) 0.19399(11)
H3 H 0.3979 0.4326 0.1921
C7 C 0.2817(3) 0.6536(4) 0.21606(12)
H4 H 0.2118 0.5752 0.2282
C8 C 0.3860(3) 0.7838(5) 0.46933(13)
H5 H 0.4571 0.8015 0.4457
C9 C 0.4136(3) 0.7513(5) 0.52431(14)
H6 H 0.5020 0.7464 0.5374
C10 C 0.3114(3) 0.7266(5) 0.55917(13)
H7 H 0.3289 0.7038 0.5964
C11 C 0.1815(3) 0.7354(4) 0.53929(12)
C12 C 0.1630(3) 0.7665(4) 0.48360(12)
C13 C 0.0680(3) 0.7148(4) 0.57239(12)
H8 H 0.0794 0.6962 0.6102
C14 C -0.0547(3) 0.7215(5) 0.55040(13)
H9 H -0.1282 0.7074 0.5730
C15 C -0.0761(3) 0.7495(4) 0.49344(12)
C16 C 0.0328(3) 0.7735(4) 0.46066(11)
C17 C -0.2008(3) 0.7537(5) 0.46777(13)
H10 H -0.2780 0.7400 0.4883
C18 C -0.2100(3) 0.7779(5) 0.41291(13)
H11 H -0.2936 0.7781 0.3951
C19 C -0.0954(3) 0.8023(4) 0.38312(12)
H12 H -0.1031 0.8195 0.3452
H13 H 0.113(4) 1.233(7) 0.2558(18)
H14 H 0.137(4) 0.500(5) 0.3300(15)
H15 H 0.234(4) 0.436(6) 0.3584(16)
Cu1A Cu 0.79809(3) 0.33209(5) 0.128370(13)
O5A O 0.37652(19) 0.9092(3) 0.34727(8)
loop_
_geom_bond_atom_site_label_1
_geom_bond_atom_site_label_2
_geom_bond_site_symmetry_1
_geom_bond_site_symmetry_2
Cu1 O2 1_555 1_555
P1 O1 1_555 1_555
O2 P1 1_555 1_555
O3 P1 1_555 1_555
O4 C5 1_555 1_555
O5 C5 1_555 1_555
O6 Cu1 1_555 1_555
N1 Cu1 1_555 1_555
N2 Cu1 1_555 1_555
C1 P1 1_555 1_555
C2 C1 1_555 1_555
H1 C2 1_555 1_555
C3 C2 1_555 1_555
H2 C3 1_555 1_555
C4 C3 1_555 1_555
C5 C4 1_555 1_555
C6 C4 1_555 1_555
H3 C6 1_555 1_555
C7 C1 1_555 1_555
H4 C7 1_555 1_555
C8 N1 1_555 1_555
H5 C8 1_555 1_555
C9 C8 1_555 1_555
H6 C9 1_555 1_555
C10 C9 1_555 1_555
H7 C10 1_555 1_555
C11 C10 1_555 1_555
C12 N1 1_555 1_555
C13 C11 1_555 1_555
H8 C13 1_555 1_555
C14 C13 1_555 1_555
H9 C14 1_555 1_555
C15 C14 1_555 1_555
C16 N2 1_555 1_555
C17 C15 1_555 1_555
H10 C17 1_555 1_555
C18 C17 1_555 1_555
H11 C18 1_555 1_555
C19 N2 1_555 1_555
H12 C19 1_555 1_555
H13 O3 1_555 1_555
H14 O6 1_555 1_555
H15 O6 1_555 1_555
Cu1A O5 1_555 1_555
O5A Cu1 1_555 1_555
C6 C7 1_555 1_555
C11 C12 1_555 1_555
C12 C16 1_555 1_555
C15 C16 1_555 1_555
C18 C19 1_555 1_555

#END
