
#######################################################################
#
#                 Cambridge Crystallographic Data Centre
#                                CCDC 
#
#######################################################################
#
# If this CIF has been generated from an entry in the Cambridge 
# Structural Database, then it will include bibliographic, chemical, 
# crystal, experimental, refinement or atomic coordinate data resulting 
# from the CCDC's data processing and validation procedures.
#
#######################################################################

data_ALIDOP01
_symmetry_cell_setting           monoclinic
_symmetry_space_group_name_H-M   'P 21/c'
_symmetry_Int_Tables_number      14
_space_group_name_Hall           '-P 2ybc'
loop_
_symmetry_equiv_pos_site_id
_symmetry_equiv_pos_as_xyz
1 x,y,z
2 -x,1/2+y,1/2-z
3 -x,-y,-z
4 x,1/2-y,1/2+z
_cell_length_a                   10.2042(3)
_cell_length_b                   6.9866(2)
_cell_length_c                   24.8482(6)
_cell_angle_alpha                90
_cell_angle_beta                 90.9290(10)
_cell_angle_gamma                90
_cell_volume                     1771.26
loop_
_atom_site_label
_atom_site_type_symbol
_atom_site_fract_x
_atom_site_fract_y
_atom_site_fract_z
Cu1 Cu 0.29716(3) 0.66772(4) 0.129147(10)
P1 P 0.37184(5) 0.54038(8) 0.25186(2)
O1 O 0.34188(16) 0.3218(2) 0.25567(7)
H1 H 0.4007 0.2612 0.2414
O2 O 0.38829(17) 0.6036(3) 0.19454(6)
O3 O 0.48850(15) 0.5967(2) 0.28624(7)
O4 O 0.30356(17) 0.9735(2) 0.15053(8)
O5 O -0.12320(16) 1.0888(2) 0.34676(7)
O6 O -0.18204(18) 0.8080(2) 0.38048(8)
C1 C 0.1142(3) 0.7207(5) 0.03233(12)
H2 H 0.0446 0.7042 0.0556
C2 C 0.7070(3) 0.7172(4) 0.08564(13)
H3 H 0.7890 0.7149 0.1025
C3 C 0.5513(3) 0.7770(4) -0.04984(11)
H4 H 0.6228 0.7892 -0.0723
C4 C 0.4296(3) 0.7870(4) -0.07100(11)
H5 H 0.4186 0.8071 -0.1078
C5 C 0.1870(3) 0.7762(5) -0.05665(12)
H6 H 0.1695 0.7978 -0.0930
C6 C 0.3159(3) 0.7671(4) -0.03794(10)
C7 C 0.5934(2) 0.6939(4) 0.11598(11)
H7 H 0.6014 0.6763 0.1530
C8 C 0.4643(2) 0.7264(3) 0.03966(9)
C9 C 0.6972(3) 0.7430(4) 0.03156(12)
H8 H 0.7723 0.7572 0.0113
C10 C 0.5732(2) 0.7481(4) 0.00648(10)
C11 C 0.3351(2) 0.7356(3) 0.01735(9)
C12 C 0.2267(2) 0.6458(3) 0.28007(9)
C13 C 0.0866(3) 0.7538(5) -0.02225(13)
H9 H 0.0004 0.7603 -0.0347
C14 C 0.2183(2) 0.8436(3) 0.28428(10)
H10 H 0.2868 0.9196 0.2723
C15 C 0.1235(2) 0.5349(3) 0.29808(10)
H11 H 0.1270 0.4024 0.2947
C16 C 0.0148(2) 0.6203(4) 0.32117(10)
H12 H -0.0532 0.5445 0.3336
C17 C 0.1084(2) 0.9284(3) 0.30619(10)
H13 H 0.1027 1.0611 0.3078
C18 C -0.1080(2) 0.9092(3) 0.35282(9)
C19 C 0.0072(2) 0.8179(3) 0.32571(9)
N1 N 0.4750(2) 0.6963(3) 0.09330(8)
N2 N 0.2354(2) 0.7118(3) 0.05216(8)
H14 H 0.3558 1.0057 0.1665
H15 H 0.2736 1.0588 0.1430
Cu1A Cu -0.29716(3) 1.16772(4) 0.370853(10)
O5A O 0.12320(16) 0.5888(2) 0.15324(7)
loop_
_geom_bond_atom_site_label_1
_geom_bond_atom_site_label_2
_geom_bond_site_symmetry_1
_geom_bond_site_symmetry_2
Cu1 O2 1_555 1_555
P1 O1 1_555 1_555
O1 H1 1_555 1_555
O2 P1 1_555 1_555
O3 P1 1_555 1_555
O4 Cu1 1_555 1_555
O5 C18 1_555 1_555
O6 C18 1_555 1_555
C1 H2 1_555 1_555
C2 H3 1_555 1_555
C3 H4 1_555 1_555
C4 C3 1_555 1_555
H5 C4 1_555 1_555
C5 H6 1_555 1_555
C6 C4 1_555 1_555
C7 C2 1_555 1_555
H7 C7 1_555 1_555
C8 C10 1_555 1_555
C9 C2 1_555 1_555
H8 C9 1_555 1_555
C10 C3 1_555 1_555
C11 C6 1_555 1_555
C12 P1 1_555 1_555
C13 C1 1_555 1_555
H9 C13 1_555 1_555
C14 C12 1_555 1_555
H10 C14 1_555 1_555
C15 C12 1_555 1_555
H11 C15 1_555 1_555
C16 C15 1_555 1_555
H12 C16 1_555 1_555
C17 C14 1_555 1_555
H13 C17 1_555 1_555
C18 C19 1_555 1_555
C19 C16 1_555 1_555
N1 Cu1 1_555 1_555
N2 Cu1 1_555 1_555
H14 O4 1_555 1_555
H15 O4 1_555 1_555
Cu1A O5 1_555 1_555
O5A Cu1 1_555 1_555
C1 N2 1_555 1_555
C5 C6 1_555 1_555
C5 C13 1_555 1_555
C7 N1 1_555 1_555
C8 C11 1_555 1_555
C8 N1 1_555 1_555
C9 C10 1_555 1_555
C11 N2 1_555 1_555
C17 C19 1_555 1_555

#END
