
#######################################################################
#
#                 Cambridge Crystallographic Data Centre
#                                CCDC 
#
#######################################################################
#
# If this CIF has been generated from an entry in the Cambridge 
# Structural Database, then it will include bibliographic, chemical, 
# crystal, experimental, refinement or atomic coordinate data resulting 
# from the CCDC's data processing and validation procedures.
#
#######################################################################

data_ALIFOR01
_symmetry_cell_setting           monoclinic
_symmetry_space_group_name_H-M   'P 21'
_symmetry_Int_Tables_number      4
_space_group_name_Hall           'P 2yb'
loop_
_symmetry_equiv_pos_site_id
_symmetry_equiv_pos_as_xyz
1 x,y,z
2 -x,1/2+y,-z
_cell_length_a                   7.438(3)
_cell_length_b                   10.841(4)
_cell_length_c                   10.050(4)
_cell_angle_alpha                90
_cell_angle_beta                 98.527(12)
_cell_angle_gamma                90
_cell_volume                     801.427
loop_
_atom_site_label
_atom_site_type_symbol
_atom_site_fract_x
_atom_site_fract_y
_atom_site_fract_z
Cu1 Cu 0.68357(7) 0.07425(6) 0.07739(4)
Cu2 Cu 0.57153(7) -0.19398(5) 0.01871(5)
Cl1 Cl 0.67392(17) -0.10643(10) 0.20211(10)
Cl2 Cl 0.54659(16) 0.23348(10) 0.16925(10)
C1 C 0.8519(5) 0.0731(4) -0.1593(3)
C2 C 0.6576(5) 0.0673(4) -0.2203(3)
C3 C 0.6569(5) 0.0644(4) -0.3713(3)
C4 C 0.4738(7) 0.0957(6) -0.4547(4)
H1 H 0.4847 0.0927 -0.5486
H2 H 0.4374 0.177 -0.4319
H3 H 0.3842 0.037 -0.4358
C5 C 0.7393(8) -0.0657(4) -0.3933(4)
H4 H 0.6808 -0.1288 -0.3463
H5 H 0.724 -0.0862 -0.4883
C6 C 0.9410(8) -0.0553(4) -0.3359(5)
H6 H 1.0164 -0.065 -0.4061
H7 H 0.9753 -0.1171 -0.267
C7 C 0.9590(5) 0.0749(4) -0.2761(3)
H8 H 1.0827 0.1079 -0.2569
C8 C 0.8227(5) 0.1496(4) -0.3800(3)
C9 C 0.8864(7) 0.1527(5) -0.5199(4)
H9 H 0.903 0.0699 -0.5496
H10 H 0.9994 0.1967 -0.5136
H11 H 0.7963 0.1935 -0.5831
C10 C 0.7999(7) 0.2817(4) -0.3362(4)
H12 H 0.9077 0.3277 -0.3451
H13 H 0.7801 0.2829 -0.244
H14 H 0.6975 0.3181 -0.3917
N1 N 0.8905(4) 0.0824(3) -0.0317(3)
N2 N 1.0687(4) 0.0875(4) 0.0293(3)
C11 C 1.0800(6) 0.1061(4) 0.1750(4)
H15 H 1.0028 0.1736 0.1918
H16 H 1.2032 0.1244 0.2128
H17 H 1.0411 0.0325 0.2156
C12 C 1.1838(6) -0.0114(5) -0.0032(4)
H18 H 1.1718 -0.0204 -0.0991
H19 H 1.1485 -0.0868 0.0359
H20 H 1.308 0.0071 0.0321
O1 O 0.5283(4) 0.0653(3) -0.1578(2)
Cu2A Cu 0.42847(7) 0.30602(5) -0.01871(5)
Cl2A Cl 0.45341(16) -0.26652(10) -0.16925(10)
loop_
_geom_bond_atom_site_label_1
_geom_bond_atom_site_label_2
_geom_bond_site_symmetry_1
_geom_bond_site_symmetry_2
Cu1 Cl1 1_555 1_555
Cu2 Cl1 1_555 1_555
Cl2 Cu1 1_555 1_555
C1 C2 1_555 1_555
C2 C3 1_555 1_555
C3 C4 1_555 1_555
C4 H1 1_555 1_555
H2 C4 1_555 1_555
H3 C4 1_555 1_555
C5 C3 1_555 1_555
H4 C5 1_555 1_555
H5 C5 1_555 1_555
C6 C5 1_555 1_555
H6 C6 1_555 1_555
H7 C6 1_555 1_555
C7 C1 1_555 1_555
H8 C7 1_555 1_555
C8 C3 1_555 1_555
C9 C8 1_555 1_555
H9 C9 1_555 1_555
H10 C9 1_555 1_555
H11 C9 1_555 1_555
C10 C8 1_555 1_555
H12 C10 1_555 1_555
H13 C10 1_555 1_555
H14 C10 1_555 1_555
N1 Cu1 1_555 1_555
N2 N1 1_555 1_555
C11 N2 1_555 1_555
H15 C11 1_555 1_555
H16 C11 1_555 1_555
H17 C11 1_555 1_555
C12 N2 1_555 1_555
H18 C12 1_555 1_555
H19 C12 1_555 1_555
H20 C12 1_555 1_555
O1 Cu1 1_555 1_555
Cu2A Cl2 1_555 1_555
Cl2A Cu2 1_555 1_555
C1 N1 1_555 1_555
C2 O1 1_555 1_555
C6 C7 1_555 1_555
C7 C8 1_555 1_555

#END
