
#######################################################################
#
#                 Cambridge Crystallographic Data Centre
#                                CCDC 
#
#######################################################################
#
# If this CIF has been generated from an entry in the Cambridge 
# Structural Database, then it will include bibliographic, chemical, 
# crystal, experimental, refinement or atomic coordinate data resulting 
# from the CCDC's data processing and validation procedures.
#
#######################################################################

data_ALIFOR
_symmetry_cell_setting           orthorhombic
_symmetry_space_group_name_H-M   'P 21 21 21'
_symmetry_Int_Tables_number      19
_space_group_name_Hall           'P 2ac 2ab'
loop_
_symmetry_equiv_pos_site_id
_symmetry_equiv_pos_as_xyz
1 x,y,z
2 1/2-x,-y,1/2+z
3 1/2+x,1/2-y,-z
4 -x,1/2+y,1/2-z
_cell_length_a                   11.3102(10)
_cell_length_b                   17.6038(19)
_cell_length_c                   8.0230(8)
_cell_angle_alpha                90
_cell_angle_beta                 90
_cell_angle_gamma                90
_cell_volume                     1597.4
loop_
_atom_site_label
_atom_site_type_symbol
_atom_site_fract_x
_atom_site_fract_y
_atom_site_fract_z
Cu1 Cu -0.16835(5) 0.22221(3) -0.12523(8)
Cu2 Cu 0.08198(7) 0.23375(3) 0.03569(8)
Cl1 Cl -0.05312(14) 0.13927(8) -0.0269(2)
Cl2 Cl 0.21729(12) 0.19596(7) 0.23020(17)
N1 N 0.0946(3) 0.32149(18) -0.1273(4)
N2 N 0.1482(4) 0.3167(2) -0.2822(5)
C1 C 0.0786(6) 0.3385(4) -0.4234(6)
H1 H 0.0074 0.3089 -0.4262
H2 H 0.123 0.3299 -0.5237
H3 H 0.0588 0.3914 -0.4151
C2 C 0.2129(5) 0.2450(3) -0.3000(6)
H4 H 0.2761 0.2433 -0.2202
H5 H 0.2449 0.2415 -0.4105
H6 H 0.16 0.2032 -0.2808
O1 O -0.0217(3) 0.33057(18) 0.1790(4)
C3 C 0.0449(3) 0.3842(2) -0.0798(5)
C4 C 0.0366(4) 0.4649(2) -0.1418(5)
H7 H 0.0913 0.4783 -0.2318
C5 C -0.0959(4) 0.4796(3) -0.1786(5)
H8 H -0.1074 0.5284 -0.2323
H9 H -0.1289 0.44 -0.2486
C6 C -0.1514(4) 0.4785(3) -0.0041(6)
H10 H -0.2084 0.4376 0.0054
H11 H -0.1911 0.5263 0.019
C7 C -0.0468(3) 0.4662(2) 0.1182(6)
C8 C -0.0106(3) 0.3851(2) 0.0886(5)
C9 C -0.0734(5) 0.4854(3) 0.2974(6)
H12 H -0.1308 0.4504 0.3404
H13 H -0.1042 0.5362 0.3039
H14 H -0.0022 0.482 0.362
C10 C 0.0562(4) 0.5081(2) 0.0275(5)
C11 C 0.1770(4) 0.4930(3) 0.1046(6)
H15 H 0.1835 0.5201 0.208
H16 H 0.2377 0.5099 0.0296
H17 H 0.186 0.4396 0.1247
C12 C 0.0375(5) 0.5943(3) 0.0116(7)
H18 H 0.0409 0.6172 0.1202
H19 H -0.0383 0.6041 -0.0375
H20 H 0.0984 0.6155 -0.0576
Cu1B Cu 0.33165(5) 0.27779(3) 0.12523(8)
Cl2B Cl -0.28271(12) 0.30404(7) -0.23020(17)
loop_
_geom_bond_atom_site_label_1
_geom_bond_atom_site_label_2
_geom_bond_site_symmetry_1
_geom_bond_site_symmetry_2
Cu1 Cl1 1_555 1_555
Cu2 Cl1 1_555 1_555
Cl2 Cu2 1_555 1_555
N1 Cu2 1_555 1_555
N2 N1 1_555 1_555
C1 N2 1_555 1_555
H1 C1 1_555 1_555
H2 C1 1_555 1_555
H3 C1 1_555 1_555
C2 N2 1_555 1_555
H4 C2 1_555 1_555
H5 C2 1_555 1_555
H6 C2 1_555 1_555
O1 Cu2 1_555 1_555
C3 N1 1_555 1_555
C4 C3 1_555 1_555
H7 C4 1_555 1_555
C5 C4 1_555 1_555
H8 C5 1_555 1_555
H9 C5 1_555 1_555
C6 C5 1_555 1_555
H10 C6 1_555 1_555
H11 C6 1_555 1_555
C7 C6 1_555 1_555
C8 O1 1_555 1_555
C9 C7 1_555 1_555
H12 C9 1_555 1_555
H13 C9 1_555 1_555
H14 C9 1_555 1_555
C10 C4 1_555 1_555
C11 C10 1_555 1_555
H15 C11 1_555 1_555
H16 C11 1_555 1_555
H17 C11 1_555 1_555
C12 C10 1_555 1_555
H18 C12 1_555 1_555
H19 C12 1_555 1_555
H20 C12 1_555 1_555
Cu1B Cl2 1_555 1_555
Cl2B Cu1 1_555 1_555
C3 C8 1_555 1_555
C7 C8 1_555 1_555
C7 C10 1_555 1_555

#END
