
#######################################################################
#
#                 Cambridge Crystallographic Data Centre
#                                CCDC 
#
#######################################################################
#
# If this CIF has been generated from an entry in the Cambridge 
# Structural Database, then it will include bibliographic, chemical, 
# crystal, experimental, refinement or atomic coordinate data resulting 
# from the CCDC's data processing and validation procedures.
#
#######################################################################

data_ALIGUY
_symmetry_cell_setting           monoclinic
_symmetry_space_group_name_H-M   'P 21/n'
_symmetry_Int_Tables_number      14
_space_group_name_Hall           '-P 2yn'
loop_
_symmetry_equiv_pos_site_id
_symmetry_equiv_pos_as_xyz
1 x,y,z
2 1/2-x,1/2+y,1/2-z
3 -x,-y,-z
4 1/2+x,1/2-y,1/2+z
_cell_length_a                   17.0212(3)
_cell_length_b                   10.2313(2)
_cell_length_c                   17.8680(3)
_cell_angle_alpha                90
_cell_angle_beta                 113.784(1)
_cell_angle_gamma                90
_cell_volume                     2847.43
loop_
_atom_site_label
_atom_site_type_symbol
_atom_site_fract_x
_atom_site_fract_y
_atom_site_fract_z
Li1 Li 0.6611(2) 0.4037(3) 0.6893(2)
Li2 Li 0.3304(2) 0.5854(3) 0.8023(2)
N1 N 0.47487(13) -0.04380(18) 0.20407(11)
N2 N 0.55745(11) 0.45270(15) 0.71739(11)
N3 N 0.73411(11) 0.27988(15) 0.77823(10)
N4 N 0.60989(11) 0.28892(15) 0.58584(10)
N5 N 0.79713(10) 0.08184(15) 0.82884(10)
N6 N 0.42448(11) 0.52395(16) 0.76226(11)
N7 N 0.25907(11) 0.70809(15) 0.71514(11)
N8 N 0.20763(11) 0.91461(15) 0.67216(10)
N9 N 0.39015(13) 0.69426(19) 0.90415(13)
C1 C 0.51880(16) 0.5680(2) 0.69850(16)
H1 H 0.5422(15) 0.627(2) 0.6727(14)
C2 C 0.76582(16) 0.3373(2) 0.99398(15)
H2 H 0.7540(15) 0.397(2) 1.0321(14)
C3 C 0.52810(16) 0.3734(2) 0.75869(17)
H3 H 0.5561(16) 0.287(2) 0.7744(15)
C4 C 0.46199(16) 0.4082(2) 0.78013(17)
H4 H 0.4392(16) 0.349(2) 0.8110(14)
C5 C 0.41908(17) 0.0027(2) 0.23272(14)
H5 H 0.3608(14) -0.0072(18) 0.1999(13)
C6 C 0.45330(16) 0.6033(2) 0.72050(17)
H6 H 0.4238(16) 0.691(2) 0.7067(15)
C7 C 0.80381(16) 0.2164(2) 1.02486(16)
H7 H 0.8187(15) 0.200(2) 1.0816(14)
C8 C 0.74102(15) 0.3685(2) 0.91291(15)
H8 H 0.7158(13) 0.451(2) 0.8906(12)
C9 C 0.53121(15) 0.2375(2) 0.55003(14)
H9 H 0.4927(14) 0.2488(18) 0.5765(12)
C10 C 0.58670(15) 0.0309(2) 0.32880(13)
H10 H 0.6463(13) 0.0370(16) 0.3606(11)
C11 C 0.55774(17) -0.0281(2) 0.25292(14)
H11 H 0.5966(15) -0.056(2) 0.2305(13)
C12 C 0.44127(14) 0.0635(2) 0.30726(13)
H12 H 0.3981(14) 0.0965(19) 0.3228(12)
C13 C 0.76147(13) 0.16216(19) 0.76477(14)
H13 H 0.7546(13) 0.1341(19) 0.7092(13)
C14 C 0.81783(14) 0.1241(2) 0.97538(14)
H14 H 0.8445(13) 0.040(2) 0.9993(12)
C15 C 0.79249(12) 0.15406(18) 0.89260(12)
C16 C 0.52803(13) 0.07903(17) 0.35809(12)
C17 C 0.50203(14) 0.1683(2) 0.47799(13)
H15 H 0.4457(14) 0.1341(18) 0.4555(12)
C18 C 0.66218(15) 0.2671(2) 0.54735(14)
H16 H 0.7193(14) 0.3031(19) 0.5735(12)
C19 C 0.75409(13) 0.27587(18) 0.86111(12)
C20 C 0.55645(12) 0.14753(17) 0.43783(12)
C21 C 0.63878(14) 0.19903(19) 0.47567(13)
H17 H 0.6773(15) 0.191(2) 0.4501(13)
C22 C 0.12733(16) 0.7608(2) 0.46632(16)
H18 H 0.0965(15) 0.775(2) 0.4085(15)
C23 C 0.20429(15) 0.6069(2) 0.57407(15)
H19 H 0.2283(14) 0.521(2) 0.5942(13)
C24 C 0.15984(16) 0.6354(2) 0.49262(16)
H20 H 0.1535(14) 0.569(2) 0.4533(14)
C25 C 0.25042(13) 0.8335(2) 0.73377(14)
H21 H 0.2753(12) 0.8636(17) 0.7909(12)
C26 C 0.21679(12) 0.70722(19) 0.63091(13)
C27 C 0.13947(14) 0.8613(2) 0.52116(14)
H22 H 0.1163(13) 0.949(2) 0.5020(12)
C28 C 0.18491(12) 0.83445(19) 0.60416(13)
C29 C 0.4616(2) 0.8279(4) 1.03673(19)
H23 H 0.4179(19) 0.797(2) 1.0617(16)
H24 H 0.524(2) 0.815(3) 1.0597(17)
H25 H 0.456(3) 0.923(4) 1.019(2)
C30 C 0.42159(15) 0.7532(2) 0.96225(15)
Li1A Li 0.8389(2) -0.0963(3) 0.8107(2)
Li2A Li 0.1696(2) 1.0854(3) 0.6977(2)
N5A N 0.70287(10) 0.58184(15) 0.67116(10)
N8A N 0.29237(11) 0.41461(15) 0.82784(10)
loop_
_geom_bond_atom_site_label_1
_geom_bond_atom_site_label_2
_geom_bond_site_symmetry_1
_geom_bond_site_symmetry_2
Li1 N2 1_555 1_555
Li2 N6 1_555 1_555
N1 C5 1_555 1_555
N2 C1 1_555 1_555
N3 Li1 1_555 1_555
N4 Li1 1_555 1_555
N5 C13 1_555 1_555
N6 C4 1_555 1_555
N7 Li2 1_555 1_555
N8 C25 1_555 1_555
N9 Li2 1_555 1_555
C1 H1 1_555 1_555
C2 H2 1_555 1_555
C3 N2 1_555 1_555
H3 C3 1_555 1_555
C4 C3 1_555 1_555
H4 C4 1_555 1_555
C5 H5 1_555 1_555
C6 N6 1_555 1_555
H6 C6 1_555 1_555
C7 C2 1_555 1_555
H7 C7 1_555 1_555
C8 C2 1_555 1_555
H8 C8 1_555 1_555
C9 N4 1_555 1_555
H9 C9 1_555 1_555
C10 H10 1_555 1_555
C11 N1 1_555 1_555
H11 C11 1_555 1_555
C12 C5 1_555 1_555
H12 C12 1_555 1_555
C13 N3 1_555 1_555
H13 C13 1_555 1_555
C14 C7 1_555 1_555
H14 C14 1_555 1_555
C15 N5 1_555 1_555
C16 C10 1_555 1_555
C17 C9 1_555 1_555
H15 C17 1_555 1_555
C18 N4 1_555 1_555
H16 C18 1_555 1_555
C19 N3 1_555 1_555
C20 C16 1_555 1_555
C21 C18 1_555 1_555
H17 C21 1_555 1_555
C22 H18 1_555 1_555
C23 H19 1_555 1_555
C24 C22 1_555 1_555
H20 C24 1_555 1_555
C25 N7 1_555 1_555
H21 C25 1_555 1_555
C26 N7 1_555 1_555
C27 C22 1_555 1_555
H22 C27 1_555 1_555
C28 N8 1_555 1_555
C29 H23 1_555 1_555
H24 C29 1_555 1_555
H25 C29 1_555 1_555
C30 N9 1_555 1_555
Li1A N5 1_555 1_555
Li2A N8 1_555 1_555
N5A Li1 1_555 1_555
N8A Li2 1_555 1_555
C1 C6 1_555 1_555
C8 C19 1_555 1_555
C10 C11 1_555 1_555
C12 C16 1_555 1_555
C14 C15 1_555 1_555
C15 C19 1_555 1_555
C17 C20 1_555 1_555
C20 C21 1_555 1_555
C23 C24 1_555 1_555
C23 C26 1_555 1_555
C26 C28 1_555 1_555
C27 C28 1_555 1_555
C29 C30 1_555 1_555

#END
