
#######################################################################
#
#                 Cambridge Crystallographic Data Centre
#                                CCDC 
#
#######################################################################
#
# If this CIF has been generated from an entry in the Cambridge 
# Structural Database, then it will include bibliographic, chemical, 
# crystal, experimental, refinement or atomic coordinate data resulting 
# from the CCDC's data processing and validation procedures.
#
#######################################################################

data_ALIJOV
_symmetry_cell_setting           orthorhombic
_symmetry_space_group_name_H-M   'P n n m'
_symmetry_Int_Tables_number      58
_space_group_name_Hall           '-P 2 2n'
loop_
_symmetry_equiv_pos_site_id
_symmetry_equiv_pos_as_xyz
1 x,y,z
2 -x,-y,z
3 1/2-x,1/2+y,1/2-z
4 1/2+x,1/2-y,1/2-z
5 -x,-y,-z
6 x,y,-z
7 1/2+x,1/2-y,1/2+z
8 1/2-x,1/2+y,1/2+z
_cell_length_a                   26.241(6)
_cell_length_b                   10.479(3)
_cell_length_c                   16.261(4)
_cell_angle_alpha                90
_cell_angle_beta                 90
_cell_angle_gamma                90
_cell_volume                     4471.44
loop_
_atom_site_label
_atom_site_type_symbol
_atom_site_fract_x
_atom_site_fract_y
_atom_site_fract_z
Li1 Li 0.20441(18) 0.8284(4) 0.7086(3)
O1 O 0.14622(9) 0.9220(2) 0.74994(15)
N4 N 0.19500(9) 0.8264(2) 0.57950(14)
N6 N 0.20562(9) 0.6460(2) 0.74669(15)
N7 N 0.23439(9) 0.4439(2) 0.77417(14)
C1 C 0.24282(13) 0.7730(3) 0.54754(17)
H1 H 0.2669(13) 0.822(3) 0.569(2)
H2 H 0.2440(14) 0.682(4) 0.566(2)
C2 C 0.18925(15) 0.9579(3) 0.54780(18)
H3 H 0.1551(14) 0.991(3) 0.569(2)
H4 H 0.2205(13) 1.015(3) 0.571(2)
C3 C 0.15252(13) 0.7487(3) 0.54737(19)
H5 H 0.1604(12) 0.661(3) 0.571(2)
H6 H 0.1217(14) 0.787(4) 0.573(2)
C6 C 0.07901(14) 0.5007(4) 0.7800(3)
H9 H 0.0423(18) 0.515(4) 0.779(3)
C7 C 0.14718(12) 0.3467(3) 0.7958(2)
H10 H 0.1600(12) 0.263(3) 0.805(2)
C8 C 0.16432(12) 0.5698(3) 0.76187(17)
C9 C 0.11239(13) 0.5988(4) 0.7623(2)
H11 H 0.1002(15) 0.696(4) 0.745(2)
C10 C 0.24481(12) 0.5659(3) 0.75505(17)
H12 H 0.2804(13) 0.595(3) 0.7508(19)
C11 C 0.09611(14) 0.3765(3) 0.7957(2)
H13 H 0.0698(17) 0.314(4) 0.807(3)
C12 C 0.18189(11) 0.4443(3) 0.77892(16)
H27 H 0.1128(18) 0.931(4) 0.729(3)
H28 H 0.1386(14) 0.914(3) 0.790(3)
Li1E Li 0.20441(18) 0.8284(4) 0.2914(3)
Li1B Li 0.29559(18) 0.3284(4) 0.7914(3)
Li1B_2 Li 0.29559(18) 1.3284(4) 0.7914(3)
O1E O 0.14622(9) 0.9220(2) 0.25006(15)
N4E N 0.19500(9) 0.8264(2) 0.42050(14)
N6B N 0.29438(9) 1.1460(2) 0.75331(15)
N6E N 0.20562(9) 0.6460(2) 0.25331(15)
N7B N 0.26561(9) 0.9439(2) 0.72583(14)
N7G N 0.26561(9) 0.9439(2) 0.27417(14)
C1E C 0.24282(13) 0.7730(3) 0.45246(17)
H1E H 0.2669(13) 0.822(3) 0.431(2)
H2E H 0.2440(14) 0.682(4) 0.434(2)
C2E C 0.18925(15) 0.9579(3) 0.45220(18)
H3E H 0.1551(14) 0.991(3) 0.431(2)
H4E H 0.2205(13) 1.015(3) 0.429(2)
C3E C 0.15252(13) 0.7487(3) 0.45263(19)
H5E H 0.1604(12) 0.661(3) 0.429(2)
H6E H 0.1217(14) 0.787(4) 0.427(2)
C6B C 0.42099(14) 1.0007(4) 0.7200(3)
H9B H 0.4577(18) 1.015(4) 0.721(3)
C7B C 0.35282(12) 0.8467(3) 0.7042(2)
H10B H 0.3400(12) 0.763(3) 0.695(2)
C8B C 0.33568(12) 1.0698(3) 0.73813(17)
C9B C 0.38761(13) 1.0988(4) 0.7377(2)
H11B H 0.3998(15) 1.196(4) 0.755(2)
C10B C 0.25519(12) 1.0659(3) 0.74495(17)
H12B H 0.2196(13) 1.095(3) 0.7492(19)
C11B C 0.40389(14) 0.8765(3) 0.7043(2)
H13B H 0.4302(17) 0.814(4) 0.693(3)
C12B C 0.31811(11) 0.9443(3) 0.72108(16)
H27E H 0.1128(18) 0.931(4) 0.271(3)
H28E H 0.1386(14) 0.914(3) 0.210(3)
N1 N 0.2839(2) 0.9260(5) 0.0000
N2 N 0.3626(2) 0.7453(4) 0.0000
C4 C 0.30405(17) 0.8792(4) -0.0688(2)
H7 H 0.2888(17) 0.909(4) -0.113(3)
C5 C 0.34207(17) 0.7921(4) -0.0688(2)
H8 H 0.3492(19) 0.746(5) -0.116(4)
C4E C 0.30405(17) 0.8792(4) 0.0688(2)
H7E H 0.2888(17) 0.909(4) 0.113(3)
C5E C 0.34207(17) 0.7921(4) 0.0688(2)
H8E H 0.3492(19) 0.746(5) 0.116(4)
N3 N 0.12587(13) 0.9107(3) -0.07931(16)
C13 C 0.1557(3) 0.8003(5) -0.0476(3)
H14 H 0.141(2) 0.743(6) -0.067(4)
H15 H 0.203(3) 0.801(7) -0.068(4)
C14 C 0.0745(2) 0.8999(8) -0.0480(2)
H16 H 0.0669(19) 0.999(5) -0.056(3)
H17 H 0.055(3) 0.817(8) -0.063(4)
C15 C 0.1515(2) 1.0245(4) -0.0478(2)
H18 H 0.1841(19) 1.038(4) -0.070(3)
H19 H 0.1293(17) 1.090(4) -0.065(3)
N3E N 0.12587(13) 0.9107(3) 0.07931(16)
C13E C 0.1557(3) 0.8003(5) 0.0476(3)
H14E H 0.141(2) 0.743(6) 0.067(4)
H15E H 0.203(3) 0.801(7) 0.068(4)
C14E C 0.0745(2) 0.8999(8) 0.0480(2)
H16E H 0.0669(19) 0.999(5) 0.056(3)
H17E H 0.055(3) 0.817(8) 0.063(4)
C15E C 0.1515(2) 1.0245(4) 0.0478(2)
H18E H 0.1841(19) 1.038(4) 0.070(3)
H19E H 0.1293(17) 1.090(4) 0.065(3)
N5 N 0.54650(10) 0.5386(2) 0.18632(15)
C16 C 0.52763(16) 0.5252(5) 0.1019(2)
H20 H 0.5491 0.4672 0.0722
H21 H 0.5288 0.6065 0.0748
C17 C 0.51369(15) 0.6302(3) 0.2300(2)
H22 H 0.5163 0.7126 0.2045
H23 H 0.5250 0.6378 0.2859
C18 C 0.54246(15) 0.4149(4) 0.2283(3)
H24 H 0.5549 0.4233 0.2836
H25 H 0.5631 0.3527 0.2005
N5A N 0.45350(10) 0.4614(2) 0.18632(15)
C16A C 0.47237(16) 0.4748(5) 0.1019(2)
H20A H 0.4509 0.5328 0.0722
H21A H 0.4712 0.3935 0.0748
C17A C 0.48631(15) 0.3698(3) 0.2300(2)
H22A H 0.4837 0.2874 0.2045
H23A H 0.4750 0.3622 0.2859
C18A C 0.45754(15) 0.5851(4) 0.2283(3)
H24A H 0.4451 0.5767 0.2836
H25A H 0.4369 0.6473 0.2005
N8 N 0.4646(3) 0.7726(9) 0.5000
C19 C 0.4395(4) 0.8579(8) 0.5000
C20 C 0.4048(6) 0.9653(10) 0.5000
N9? N -0.02306(19) 0.3918(4) 0.5000
H26? H 0.3981(16) 0.987(4) 0.540(3)
C21? C -0.0312(6) 0.6321(14) 0.5000
C22? C -0.0596(7) 0.4995(17) 0.5000
C23? C 0.0416(7) 0.5333(11) 0.4324(8)
C24? C 0.0100(6) 0.4057(10) 0.4284(6)
loop_
_geom_bond_atom_site_label_1
_geom_bond_atom_site_label_2
_geom_bond_site_symmetry_1
_geom_bond_site_symmetry_2
Li1 O1 1_555 1_555
O1 H27 1_555 1_555
N1 C4 1_555 1_555
N2 C5 1_555 1_555
N3 C13 1_555 1_555
N4 Li1 1_555 1_555
N5 C16 1_555 1_555
N6 Li1 1_555 1_555
N7 C10 1_555 1_555
N8 C19 1_555 1_555
C1 N4 1_555 1_555
H1 C1 1_555 1_555
H2 C1 1_555 1_555
C2 N4 1_555 1_555
H3 C2 1_555 1_555
H4 C2 1_555 1_555
C3 N4 1_555 1_555
H5 C3 1_555 1_555
H6 C3 1_555 1_555
C4 H7 1_555 1_555
C5 C4 1_555 1_555
H8 C5 1_555 1_555
C6 H9 1_555 1_555
C7 H10 1_555 1_555
C8 N6 1_555 1_555
C9 C6 1_555 1_555
H11 C9 1_555 1_555
C10 N6 1_555 1_555
H12 C10 1_555 1_555
C11 C6 1_555 1_555
H13 C11 1_555 1_555
C12 N7 1_555 1_555
C13 H14 1_555 1_555
H15 C13 1_555 1_555
C14 N3 1_555 1_555
H16 C14 1_555 1_555
H17 C14 1_555 1_555
C15 N3 1_555 1_555
H18 C15 1_555 1_555
H19 C15 1_555 1_555
C16 H20 1_555 1_555
H21 C16 1_555 1_555
C17 N5 1_555 1_555
H22 C17 1_555 1_555
H23 C17 1_555 1_555
C18 N5 1_555 1_555
H24 C18 1_555 1_555
H25 C18 1_555 1_555
C19 C20 1_555 1_555
H28 O1 1_555 1_555
Li1E O1E 1_555 1_555
Li1B N7 1_555 1_555
Li1B_2 N6B 1_555 1_555
O1E H27E 1_555 1_555
N3E C13E 1_555 1_555
N4E Li1E 1_555 1_555
N5A C16A 1_555 1_555
N6B C8B 1_555 1_555
N6E Li1E 1_555 1_555
N7B Li1 1_555 1_555
N7G Li1E 1_555 1_555
C1E C1 1_555 1_555
H1E C1E 1_555 1_555
H2E C1E 1_555 1_555
C2E C2 1_555 1_555
H3E C2E 1_555 1_555
H4E C2E 1_555 1_555
C3E C3 1_555 1_555
H5E C3E 1_555 1_555
H6E C3E 1_555 1_555
C4E N1 1_555 1_555
H7E C4E 1_555 1_555
C5E N2 1_555 1_555
H8E C5E 1_555 1_555
C6B H9B 1_555 1_555
C7B H10B 1_555 1_555
C8B C9B 1_555 1_555
C9B C6B 1_555 1_555
H11B C9B 1_555 1_555
C10B N6B 1_555 1_555
H12B C10B 1_555 1_555
C11B C6B 1_555 1_555
H13B C11B 1_555 1_555
C12B N7B 1_555 1_555
C13E C13 1_555 1_555
H14E C13E 1_555 1_555
H15E C13E 1_555 1_555
C14E C14 1_555 1_555
H16E C14E 1_555 1_555
H17E C14E 1_555 1_555
C15E C15 1_555 1_555
H18E C15E 1_555 1_555
H19E C15E 1_555 1_555
C16A C16 1_555 1_555
H20A C16A 1_555 1_555
H21A C16A 1_555 1_555
C17A C18 1_555 1_555
H22A C17A 1_555 1_555
H23A C17A 1_555 1_555
C18A C17 1_555 1_555
H24A C18A 1_555 1_555
H25A C18A 1_555 1_555
H28E O1E 1_555 1_555
C7 C11 1_555 1_555
C7 C12 1_555 1_555
C8 C9 1_555 1_555
C8 C12 1_555 1_555
N3E C14E 1_555 1_555
N3E C15E 1_555 1_555
N4E C1E 1_555 1_555
N4E C2E 1_555 1_555
N4E C3E 1_555 1_555
N5A C17A 1_555 1_555
N5A C18A 1_555 1_555
N7B C10B 1_555 1_555
C4E C5E 1_555 1_555
C7B C11B 1_555 1_555
C7B C12B 1_555 1_555
C8B C12B 1_555 1_555

#END
