
#######################################################################
#
#                 Cambridge Crystallographic Data Centre
#                                CCDC 
#
#######################################################################
#
# If this CIF has been generated from an entry in the Cambridge 
# Structural Database, then it will include bibliographic, chemical, 
# crystal, experimental, refinement or atomic coordinate data resulting 
# from the CCDC's data processing and validation procedures.
#
#######################################################################

data_ALONIZ
_symmetry_cell_setting           monoclinic
_symmetry_space_group_name_H-M   'P 21/c'
_symmetry_Int_Tables_number      14
_space_group_name_Hall           '-P 2ybc'
loop_
_symmetry_equiv_pos_site_id
_symmetry_equiv_pos_as_xyz
1 x,y,z
2 -x,1/2+y,1/2-z
3 -x,-y,-z
4 x,1/2-y,1/2+z
_cell_length_a                   15.1247(6)
_cell_length_b                   18.3351(7)
_cell_length_c                   21.1266(6)
_cell_angle_alpha                90
_cell_angle_beta                 126.830(2)
_cell_angle_gamma                90
_cell_volume                     4689.39
loop_
_atom_site_label
_atom_site_type_symbol
_atom_site_fract_x
_atom_site_fract_y
_atom_site_fract_z
Sm1 Sm 1.010342(14) 0.891286(9) 0.214673(11)
Sm2 Sm 0.947772(14) 1.170182(9) 0.257650(11)
O1 O 1.1119(2) 0.99690(13) 0.23301(15)
O2 O 1.0926(2) 1.09825(13) 0.28039(15)
O3 O 1.07096(19) 0.93677(12) 0.34779(14)
O4 O 1.19437(19) 0.87660(12) 0.34612(15)
O5 O 1.11159(19) 0.79932(13) 0.20526(15)
O6 O 1.1618(2) 0.69023(13) 0.19506(16)
O7 O 0.98438(19) 0.78422(12) 0.26974(14)
O8 O 1.0350(2) 0.69553(13) 0.35421(15)
O9 O 0.8481(2) 0.82583(12) 0.10777(15)
O10 O 0.9049(2) 0.71132(13) 0.11932(14)
O11 O 0.8290(2) 1.07986(13) 0.17253(16)
O12 O 0.8632(2) 0.96203(13) 0.18221(16)
O13 O 0.9758(2) 0.93168(14) 0.09230(15)
H1 H 1.0060 0.9780 0.0950
O14 O 0.77191(19) 1.23195(13) 0.14390(15)
H2 H 0.7464 1.2719 0.1577
O15 O 0.9784(2) 1.06724(13) 0.34578(16)
H3 H 1.0232 1.0299 0.3473
C1 C 1.2135(3) 1.09997(18) 0.2444(2)
C2 C 1.2396(3) 1.0694(2) 0.1980(2)
H4 H 1.2103 1.0231 0.1743
C3 C 1.3083(3) 1.1056(3) 0.1856(3)
H5 H 1.3251 1.0845 0.1529
C4 C 1.3521(4) 1.1718(3) 0.2203(3)
H6 H 1.3985 1.1970 0.2113
C5 C 1.3288(3) 1.2015(2) 0.2682(3)
H7 H 1.3608 1.2470 0.2934
C6 C 1.2594(3) 1.1663(2) 0.2803(3)
H8 H 1.2432 1.1877 0.3132
C7 C 1.1333(3) 1.06227(18) 0.2534(2)
C8 C 1.2511(3) 0.92461(19) 0.4703(2)
C9 C 1.3624(3) 0.9142(2) 0.5058(3)
H9 H 1.3858 0.8999 0.4748
C10 C 1.4396(4) 0.9246(3) 0.5864(3)
H10 H 1.5160 0.9182 0.6106
C11 C 1.4054(4) 0.9442(3) 0.6310(3)
H11 H 1.4585 0.9515 0.6863
C12 C 1.2954(4) 0.9533(3) 0.5969(3)
H12 H 1.2722 0.9657 0.6286
C13 C 1.2187(4) 0.9444(2) 0.5164(2)
H13 H 1.1426 0.9521 0.4925
C14 C 1.1668(3) 0.91235(18) 0.3833(2)
C15 C 1.2560(3) 0.79030(19) 0.1909(2)
C16 C 1.2908(3) 0.8612(2) 0.2140(2)
H14 H 1.2556 0.8917 0.2291
C17 C 1.3777(4) 0.8878(3) 0.2150(3)
H15 H 1.4034 0.9362 0.2322
C18 C 1.4268(4) 0.8437(3) 0.1909(3)
H16 H 1.4868 0.8616 0.1923
C19 C 1.3889(4) 0.7746(3) 0.1653(3)
H17 H 1.4207 0.7453 0.1468
C20 C 1.3051(3) 0.7469(2) 0.1660(3)
H18 H 1.2808 0.6981 0.1495
C21 C 1.1710(3) 0.75810(19) 0.1966(2)
C22 C 0.9317(3) 0.79271(19) 0.3556(2)
C23 C 0.8520(4) 0.8454(2) 0.3094(3)
H19 H 0.8376 0.8605 0.2610
C24 C 0.7933(5) 0.8761(3) 0.3341(4)
H20 H 0.7380 0.9116 0.3022
C25 C 0.8149(7) 0.8555(3) 0.4034(5)
H21 H 0.7742 0.8764 0.4198
C26 C 0.8955(7) 0.8043(3) 0.4507(4)
H22 H 0.9110 0.7911 0.4999
C27 C 0.9542(5) 0.7720(3) 0.4268(3)
H23 H 1.0089 0.7362 0.4589
C28 C 0.9880(3) 0.75549(19) 0.3264(2)
C29 C 0.7148(3) 0.7353(2) 0.0263(2)
C30 C 0.6318(3) 0.7846(2) -0.0210(2)
H24 H 0.6478 0.8353 -0.0154
C31 C 0.5245(4) 0.7603(3) -0.0770(3)
H25 H 0.4672 0.7944 -0.1099
C32 C 0.5014(4) 0.6868(3) -0.0848(3)
H26 H 0.4279 0.6702 -0.1228
C33 C 0.5837(4) 0.6378(3) -0.0383(3)
H27 H 0.5674 0.5872 -0.0443
C34 C 0.6903(3) 0.6612(2) 0.0171(2)
H28 H 0.7472 0.6267 0.0492
C35 C 0.8307(3) 0.75955(19) 0.0890(2)
C36 C 0.6885(3) 0.9993(2) 0.1432(2)
C37 C 0.6324(4) 1.0518(3) 0.1532(3)
H29 H 0.6661 1.0974 0.1769
C38 C 0.5268(5) 1.0370(4) 0.1282(5)
H30 H 0.4881 1.0720 0.1362
C39 C 0.4777(5) 0.9729(5) 0.0925(5)
H31 H 0.4039 0.9642 0.0742
C40 C 0.5319(5) 0.9212(4) 0.0825(3)
H32 H 0.4961 0.8765 0.0572
C41 C 0.6396(4) 0.9332(3) 0.1090(3)
H33 H 0.6791 0.8964 0.1038
C42 C 0.8019(3) 1.01481(18) 0.1685(2)
C43 C 0.9188(5) 0.8977(3) 0.0188(3)
H34 H 0.9410 0.8464 0.0258
H35 H 0.9360 0.9221 -0.0139
H36 H 0.8392 0.9008 -0.0074
C44 C 0.7068(4) 1.2138(2) 0.0618(3)
H37 H 0.7430 1.2324 0.0391
H38 H 0.6335 1.2359 0.0344
H39 H 0.6994 1.1607 0.0556
C45 C 0.9465(6) 1.0516(3) 0.3922(4)
H40 H 1.0055 1.0653 0.4470
H41 H 0.9318 0.9992 0.3895
H42 H 0.8794 1.0790 0.3735
Sm2A Sm 1.052228(14) 0.670182(9) 0.242350(11)
O5A O 0.88841(19) 1.29932(13) 0.29474(15)
O6A O 0.8382(2) 1.19023(13) 0.30494(16)
O7A O 1.01562(19) 1.28422(12) 0.23026(14)
O8A O 0.9650(2) 1.19553(13) 0.14579(15)
O10A O 1.0951(2) 1.21132(13) 0.38068(14)
O16 O 0.0560(2) 0.57422(14) 0.44083(16)
H43 H 0.0410 0.6072 0.4082
C46 C 0.1602(5) 0.5860(3) 0.5101(3)
H44 H 0.1696 0.5569 0.5527
H45 H 0.1690 0.6378 0.5241
H46 H 0.2159 0.5716 0.5028
loop_
_geom_bond_atom_site_label_1
_geom_bond_atom_site_label_2
_geom_bond_site_symmetry_1
_geom_bond_site_symmetry_2
Sm1 O1 1_555 1_555
Sm2 O2 1_555 1_555
O1 C7 1_555 1_555
O2 C7 1_555 1_555
O3 Sm1 1_555 1_555
O4 Sm1 1_555 1_555
O5 Sm1 1_555 1_555
O6 C21 1_555 1_555
O7 Sm1 1_555 1_555
O8 C28 1_555 1_555
O9 Sm1 1_555 1_555
O10 C35 1_555 1_555
O11 Sm2 1_555 1_555
O12 Sm1 1_555 1_555
O13 Sm1 1_555 1_555
H1 O13 1_555 1_555
O14 Sm2 1_555 1_555
H2 O14 1_555 1_555
O15 Sm2 1_555 1_555
H3 O15 1_555 1_555
C1 C2 1_555 1_555
C2 H4 1_555 1_555
C3 C2 1_555 1_555
H5 C3 1_555 1_555
C4 C3 1_555 1_555
H6 C4 1_555 1_555
C5 C4 1_555 1_555
H7 C5 1_555 1_555
C6 C1 1_555 1_555
H8 C6 1_555 1_555
C7 C1 1_555 1_555
C8 C9 1_555 1_555
C9 H9 1_555 1_555
C10 C9 1_555 1_555
H10 C10 1_555 1_555
C11 C10 1_555 1_555
H11 C11 1_555 1_555
C12 C11 1_555 1_555
H12 C12 1_555 1_555
C13 C8 1_555 1_555
H13 C13 1_555 1_555
C14 O3 1_555 1_555
C15 C16 1_555 1_555
C16 H14 1_555 1_555
C17 C16 1_555 1_555
H15 C17 1_555 1_555
C18 C17 1_555 1_555
H16 C18 1_555 1_555
C19 C18 1_555 1_555
H17 C19 1_555 1_555
C20 C15 1_555 1_555
H18 C20 1_555 1_555
C21 O5 1_555 1_555
C22 C23 1_555 1_555
C23 H19 1_555 1_555
C24 C23 1_555 1_555
H20 C24 1_555 1_555
C25 C24 1_555 1_555
H21 C25 1_555 1_555
C26 C25 1_555 1_555
H22 C26 1_555 1_555
C27 C22 1_555 1_555
H23 C27 1_555 1_555
C28 O7 1_555 1_555
C29 C30 1_555 1_555
C30 H24 1_555 1_555
C31 C30 1_555 1_555
H25 C31 1_555 1_555
C32 C31 1_555 1_555
H26 C32 1_555 1_555
C33 C32 1_555 1_555
H27 C33 1_555 1_555
C34 C29 1_555 1_555
H28 C34 1_555 1_555
C35 O9 1_555 1_555
C36 C37 1_555 1_555
C37 H29 1_555 1_555
C38 C37 1_555 1_555
H30 C38 1_555 1_555
C39 C38 1_555 1_555
H31 C39 1_555 1_555
C40 C39 1_555 1_555
H32 C40 1_555 1_555
C41 C36 1_555 1_555
H33 C41 1_555 1_555
C42 O11 1_555 1_555
C43 O13 1_555 1_555
H34 C43 1_555 1_555
H35 C43 1_555 1_555
H36 C43 1_555 1_555
C44 O14 1_555 1_555
H37 C44 1_555 1_555
H38 C44 1_555 1_555
H39 C44 1_555 1_555
C45 O15 1_555 1_555
H40 C45 1_555 1_555
H41 C45 1_555 1_555
H42 C45 1_555 1_555
O16 H43 1_555 1_555
C46 O16 1_555 1_555
H44 C46 1_555 1_555
H45 C46 1_555 1_555
H46 C46 1_555 1_555
Sm2A O5 1_555 1_555
O5A Sm2 1_555 1_555
O6A Sm2 1_555 1_555
O7A Sm2 1_555 1_555
O8A Sm2 1_555 1_555
O10A Sm2 1_555 1_555
O4 C14 1_555 1_555
O6 Sm2A 1_555 1_555
O7 Sm2A 1_555 1_555
O8 Sm2A 1_555 1_555
O10 Sm2A 1_555 1_555
O12 C42 1_555 1_555
C5 C6 1_555 1_555
C8 C14 1_555 1_555
C12 C13 1_555 1_555
C15 C21 1_555 1_555
C19 C20 1_555 1_555
C22 C28 1_555 1_555
C26 C27 1_555 1_555
C29 C35 1_555 1_555
C33 C34 1_555 1_555
C36 C42 1_555 1_555
C40 C41 1_555 1_555

#END
