
#######################################################################
#
#                 Cambridge Crystallographic Data Centre
#                                CCDC 
#
#######################################################################
#
# If this CIF has been generated from an entry in the Cambridge 
# Structural Database, then it will include bibliographic, chemical, 
# crystal, experimental, refinement or atomic coordinate data resulting 
# from the CCDC's data processing and validation procedures.
#
#######################################################################

data_ALOVUT
_symmetry_cell_setting           triclinic
_symmetry_space_group_name_H-M   'P -1'
_symmetry_Int_Tables_number      2
_space_group_name_Hall           '-P 1'
loop_
_symmetry_equiv_pos_site_id
_symmetry_equiv_pos_as_xyz
1 x,y,z
2 -x,-y,-z
_cell_length_a                   9.623(3)
_cell_length_b                   11.188(4)
_cell_length_c                   12.212(4)
_cell_angle_alpha                71.944(7)
_cell_angle_beta                 88.358(9)
_cell_angle_gamma                88.491(7)
_cell_volume                     1249.3
loop_
_atom_site_label
_atom_site_type_symbol
_atom_site_fract_x
_atom_site_fract_y
_atom_site_fract_z
Mo1 Mo 0.32888(4) 0.91883(4) 0.18530(4)
Mo2 Mo 0.30405(4) 1.10992(4) -0.09318(4)
Mo3 Mo 0.09100(4) 0.85670(4) 0.02765(4)
Mo4 Mo -0.05640(4) 0.93744(4) 0.25108(4)
Ag1 Ag 0.18358(4) 1.01114(4) 0.45750(4)
Ag2 Ag 0.57869(4) 0.99892(4) 0.36030(4)
Ag3 Ag 0.46427(5) 1.40499(4) 0.65844(4)
Ag4 Ag 0.15157(5) 1.61328(4) 0.42447(4)
O1 O 0.2793(3) 0.8955(3) 0.0171(3)
O2 O 0.0500(3) 0.8668(3) -0.1132(3)
O3 O 0.3375(4) 0.7623(3) 0.2619(3)
O4 O 0.5164(3) 0.9332(3) 0.1264(3)
O5 O 0.1258(3) 0.9308(3) 0.1714(3)
O6 O 0.2459(3) 1.0406(3) -0.2239(3)
O7 O 0.0897(4) 0.7013(3) 0.0999(3)
O8 O -0.0480(4) 0.7823(3) 0.3306(3)
O9 O 0.2995(4) 1.2655(3) -0.1650(3)
O10 O 0.3169(3) 1.1083(3) 0.0507(3)
O11 O 0.3441(3) 0.9938(3) 0.2882(3)
O12 O -0.0192(4) 1.0133(3) 0.3499(3)
N1 N 0.2520(4) 1.2035(4) 0.4605(4)
N2 N 0.3524(4) 1.2002(4) 0.5361(4)
N3 N 0.3638(5) 1.3136(4) 0.5456(4)
N4 N 0.2715(5) 1.3921(4) 0.4771(4)
N5 N 0.0355(4) 1.4844(4) 0.3476(4)
N6 N 0.3545(5) 0.6232(4) 0.6071(4)
N7 N 0.2711(5) 0.7046(4) 0.5323(4)
N8 N 0.2792(5) 0.8173(4) 0.5452(4)
N9 N 0.3701(4) 0.8106(4) 0.6299(4)
N10 N 0.5440(5) 0.5095(4) 0.7744(4)
C1 C 0.2045(5) 1.3216(5) 0.4265(4)
C2 C 0.0925(5) 1.3724(5) 0.3458(5)
C3 C -0.0708(5) 1.5325(5) 0.2779(5)
H1 H -0.1105 1.6088 0.2793
C4 C -0.1240(6) 1.4745(5) 0.2046(5)
H2 H -0.1990 1.5103 0.1586
C5 C -0.0651(7) 1.3629(6) 0.2001(6)
H3 H -0.0971 1.3233 0.1492
C6 C 0.0425(7) 1.3110(5) 0.2726(5)
H4 H 0.0820 1.2342 0.2725
C7 C 0.4132(5) 0.6908(5) 0.6656(5)
C8 C 0.5083(5) 0.6317(5) 0.7605(5)
C9 C 0.6291(7) 0.4511(6) 0.8597(5)
H5 H 0.6518 0.3670 0.8706
C10 C 0.6851(7) 0.5086(6) 0.9327(6)
H6 H 0.7462 0.4652 0.9898
C11 C 0.6481(8) 0.6319(6) 0.9188(6)
H7 H 0.6823 0.6728 0.9677
C12 C 0.5592(7) 0.6949(5) 0.8307(5)
H8 H 0.5344 0.7787 0.8194
O13 O 0.0913(3) 1.0848(3) -0.0751(3)
Mo2A Mo 0.69595(4) 0.89008(4) 0.09318(4)
Mo3A Mo -0.09100(4) 1.14330(4) -0.02765(4)
Mo4A Mo 0.05640(4) 1.06256(4) -0.25108(4)
Ag2A Ag 0.42131(4) 1.00108(4) -0.36030(4)
Ag2A_2 Ag 0.42131(4) 1.00108(4) 0.63970(4)
Ag3_2 Ag 0.46427(5) 0.40499(4) 0.65844(4)
Ag4_2 Ag 0.15157(5) 0.61328(4) 0.42447(4)
O2A O -0.0500(3) 1.1332(3) 0.1132(3)
O4A O 0.4836(3) 1.0668(3) -0.1264(3)
O6A O -0.2459(3) 0.9594(3) 0.2239(3)
O6A_2 O 0.7541(3) 0.9594(3) 0.2239(3)
N2A N 0.6476(4) 0.7998(4) 0.4639(4)
N6_2 N 0.3545(5) 1.6232(4) 0.6071(4)
N7_2 N 0.2711(5) 1.7046(4) 0.5323(4)
N9A N 0.6299(4) 1.1894(4) 0.3701(4)
N10_2 N 0.5440(5) 1.5095(4) 0.7744(4)
O13A O -0.0913(3) 0.9152(3) 0.0751(3)
loop_
_geom_bond_atom_site_label_1
_geom_bond_atom_site_label_2
_geom_bond_site_symmetry_1
_geom_bond_site_symmetry_2
Mo1 O1 1_555 1_555
Mo2 O1 1_555 1_555
Mo3 O1 1_555 1_555
Mo4 O5 1_555 1_555
Ag1 O11 1_555 1_555
Ag2 O11 1_555 1_555
Ag3 N3 1_555 1_555
Ag4 N4 1_555 1_555
O2 Mo3 1_555 1_555
O3 Mo1 1_555 1_555
O4 Mo1 1_555 1_555
O5 Mo1 1_555 1_555
O6 Mo2 1_555 1_555
O7 Mo3 1_555 1_555
O8 Mo4 1_555 1_555
O9 Mo2 1_555 1_555
O10 Mo1 1_555 1_555
O11 Mo1 1_555 1_555
O12 Mo4 1_555 1_555
N1 Ag1 1_555 1_555
N2 N1 1_555 1_555
N3 N2 1_555 1_555
N4 N3 1_555 1_555
N5 Ag4 1_555 1_555
N6 N7 1_555 1_555
N7 N8 1_555 1_555
N8 Ag1 1_555 1_555
N9 N8 1_555 1_555
N10 C8 1_555 1_555
C1 N1 1_555 1_555
C2 N5 1_555 1_555
C3 N5 1_555 1_555
H1 C3 1_555 1_555
C4 C3 1_555 1_555
H2 C4 1_555 1_555
C5 C4 1_555 1_555
H3 C5 1_555 1_555
C6 C2 1_555 1_555
H4 C6 1_555 1_555
C7 N6 1_555 1_555
C8 C7 1_555 1_555
C9 N10 1_555 1_555
H5 C9 1_555 1_555
C10 C9 1_555 1_555
H6 C10 1_555 1_555
C11 C10 1_555 1_555
H7 C11 1_555 1_555
C12 C8 1_555 1_555
H8 C12 1_555 1_555
O13 Mo2 1_555 1_555
Mo2A O4 1_555 1_555
Mo3A O13 1_555 1_555
Mo4A O2 1_555 1_555
Ag2A O6 1_555 1_555
Ag2A_2 N2 1_555 1_555
Ag3_2 N6 1_555 1_555
Ag4_2 N7 1_555 1_555
O2A Mo4 1_555 1_555
O4A Mo2 1_555 1_555
O6A Mo4 1_555 1_555
O6A_2 Ag2 1_555 1_555
N2A Ag2 1_555 1_555
N6_2 Ag3 1_555 1_555
N7_2 Ag4 1_555 1_555
N9A Ag2 1_555 1_555
N10_2 Ag3 1_555 1_555
O13A Mo3 1_555 1_555
Mo2 O10 1_555 1_555
Mo3 O5 1_555 1_555
Mo3 O13 1_555 1_555
Mo4 O13A 1_555 1_555
Ag1 O12 1_555 1_555
O6 Mo4A 1_555 1_555
N4 C1 1_555 1_555
N9 C7 1_555 1_555
N9 Ag2A_2 1_555 1_555
N10 Ag3_2 1_555 1_555
C1 C2 1_555 1_555
C5 C6 1_555 1_555
C11 C12 1_555 1_555
O13 Mo4A 1_555 1_555
Mo2A O6A_2 1_555 1_555
Mo3A O2A 1_555 1_555
Mo3A O13A 1_555 1_555
N6_2 N7_2 1_555 1_555

#END
