
#######################################################################
#
#                 Cambridge Crystallographic Data Centre
#                                CCDC 
#
#######################################################################
#
# If this CIF has been generated from an entry in the Cambridge 
# Structural Database, then it will include bibliographic, chemical, 
# crystal, experimental, refinement or atomic coordinate data resulting 
# from the CCDC's data processing and validation procedures.
#
#######################################################################

data_ALUPOM
_symmetry_cell_setting           monoclinic
_symmetry_space_group_name_H-M   'C 2/c'
_symmetry_Int_Tables_number      15
_space_group_name_Hall           '-C 2yn'
loop_
_symmetry_equiv_pos_site_id
_symmetry_equiv_pos_as_xyz
1 x,y,z
2 1/2+x,1/2+y,z
3 x,-y,1/2+z
4 1/2+x,1/2-y,1/2+z
5 -x,-y,-z
6 1/2-x,1/2-y,-z
7 -x,y,1/2-z
8 1/2-x,1/2+y,1/2-z
_cell_length_a                   16.758(4)
_cell_length_b                   11.135(3)
_cell_length_c                   17.341(4)
_cell_angle_alpha                90
_cell_angle_beta                 100.395(3)
_cell_angle_gamma                90
_cell_volume                     3182.73
loop_
_atom_site_label
_atom_site_type_symbol
_atom_site_fract_x
_atom_site_fract_y
_atom_site_fract_z
Cu1 Cu 0.09696(3) 0.11773(5) -0.19758(3)
N1 N 0.1034(2) -0.0633(3) -0.1992(2)
N2 N 0.1034(2) -0.7008(3) -0.1970(2)
C1 C 0.1404(3) -0.1259(4) -0.2491(3)
H1 H 0.1654 -0.0828 -0.2856
C2 C 0.1437(3) -0.2498(4) -0.2497(3)
H2 H 0.1698 -0.2905 -0.2864
C3 C 0.1089(3) -0.3133(4) -0.1968(3)
C4 C 0.1069(3) -0.4463(4) -0.1964(3)
C5 C 0.1573(3) -0.5160(4) -0.2361(3)
H3 H 0.1943 -0.4776 -0.2637
C6 C 0.1526(3) -0.6401(4) -0.2350(3)
H4 H 0.1865 -0.6845 -0.2629
C7 C 0.0563(3) -0.6375(4) -0.1571(3)
H5 H 0.0220 -0.6793 -0.1282
C8 C 0.0559(3) -0.5130(4) -0.1567(3)
H6 H 0.0203 -0.4719 -0.1289
C9 C 0.0699(3) -0.2502(4) -0.1453(3)
H7 H 0.0444 -0.2914 -0.1084
C10 C 0.0689(3) -0.1272(4) -0.1489(3)
H8 H 0.0421 -0.0848 -0.1134
C11 C 0.0964(3) 0.1222(4) -0.3570(3)
C12 C 0.0604(3) 0.1189(6) -0.4429(3)
H9 H 0.0662 0.1980 -0.4661
H10 H 0.0028 0.0979 -0.4496
H11 H 0.0889 0.0587 -0.4691
C13 C 0.2099(3) 0.1061(4) -0.0640(3)
C14 C 0.2415(3) 0.0864(5) 0.0222(3)
H12 H 0.2361 0.0013 0.0349
H13 H 0.2102 0.1352 0.0531
H14 H 0.2988 0.1096 0.0346
O1 O 0.04615(19) 0.1164(3) -0.30940(18)
O2 O 0.1702(2) 0.1287(3) -0.3354(2)
O3 O 0.1331(2) 0.1144(3) -0.08395(19)
O4 O 0.2561(2) 0.1160(5) -0.1117(2)
N2_2 N 0.1034(2) 0.2992(3) -0.1970(2)
O1F O -0.04615(19) 0.1164(3) -0.19060(18)
Cu1_2 Cu 0.09696(3) -0.88227(5) -0.19758(3)
Cu1F Cu -0.09696(3) 0.11773(5) -0.30242(3)
O5 O 0.2200(3) 0.3032(5) -0.4376(3)
O6 O 0.4108(5) 0.1916(9) -0.0444(5)
O8 O 0.4006(7) -0.0282(13) -0.0603(7)
O7? O 0.4373(6) -0.0626(11) -0.0269(6)
loop_
_geom_bond_atom_site_label_1
_geom_bond_atom_site_label_2
_geom_bond_site_symmetry_1
_geom_bond_site_symmetry_2
Cu1 N1 1_555 1_555
N1 C1 1_555 1_555
N2 C6 1_555 1_555
C1 H1 1_555 1_555
C2 C1 1_555 1_555
H2 C2 1_555 1_555
C3 C2 1_555 1_555
C4 C3 1_555 1_555
C5 C4 1_555 1_555
H3 C5 1_555 1_555
C6 C5 1_555 1_555
H4 C6 1_555 1_555
C7 N2 1_555 1_555
H5 C7 1_555 1_555
C8 C4 1_555 1_555
H6 C8 1_555 1_555
C9 C3 1_555 1_555
H7 C9 1_555 1_555
C10 N1 1_555 1_555
H8 C10 1_555 1_555
C11 C12 1_555 1_555
C12 H9 1_555 1_555
H10 C12 1_555 1_555
H11 C12 1_555 1_555
C13 C14 1_555 1_555
C14 H12 1_555 1_555
H13 C14 1_555 1_555
H14 C14 1_555 1_555
O1 Cu1 1_555 1_555
O2 C11 1_555 1_555
O3 Cu1 1_555 1_555
O4 C13 1_555 1_555
N2_2 Cu1 1_555 1_555
O1F Cu1 1_555 1_555
Cu1_2 N2 1_555 1_555
Cu1F O1 1_555 1_555
C7 C8 1_555 1_555
C9 C10 1_555 1_555
C11 O1 1_555 1_555
C13 O3 1_555 1_555
O1F Cu1F 1_555 1_555

#END
