
#######################################################################
#
#                 Cambridge Crystallographic Data Centre
#                                CCDC 
#
#######################################################################
#
# If this CIF has been generated from an entry in the Cambridge 
# Structural Database, then it will include bibliographic, chemical, 
# crystal, experimental, refinement or atomic coordinate data resulting 
# from the CCDC's data processing and validation procedures.
#
#######################################################################

data_ALUPAY
_symmetry_cell_setting           monoclinic
_symmetry_space_group_name_H-M   'P 21'
_symmetry_Int_Tables_number      4
_space_group_name_Hall           'P 2yb'
loop_
_symmetry_equiv_pos_site_id
_symmetry_equiv_pos_as_xyz
1 x,y,z
2 -x,1/2+y,-z
_cell_length_a                   6.671(2)
_cell_length_b                   16.939(8)
_cell_length_c                   12.941(4)
_cell_angle_alpha                90
_cell_angle_beta                 93.88(3)
_cell_angle_gamma                90
_cell_volume                     1458.98
loop_
_atom_site_label
_atom_site_type_symbol
_atom_site_fract_x
_atom_site_fract_y
_atom_site_fract_z
Cu1 Cu 0.60580(14) 0.87919(6) 0.77735(5)
S1 S 0.8156(3) 0.88182(15) 0.92547(11)
N1 N 0.5093(11) 0.7723(5) 0.7325(4)
C1 C 0.6459(10) 0.8911(6) 1.0272(4)
H1 H 0.5493 0.8482 1.0221
H2 H 0.5725 0.9404 1.0190
Cu2 Cu 0.55016(13) 0.89077(6) 1.27789(5)
S2 S 0.7804(2) 0.88882(14) 1.15278(10)
N2 N 0.3822(11) 0.9528(5) 0.7972(5)
C2 C 0.8766(14) 0.7895(5) 1.1488(5)
H3 H 0.9503 0.7782 1.2143
H4 H 0.7642 0.7532 1.1415
S3 S 0.7610(3) 0.93592(11) 0.41596(12)
N3 N 0.4444(10) 0.7828(5) 1.3011(5)
C3 C 1.0151(13) 0.7741(6) 1.0608(5)
H5 H 1.1272 0.8107 1.0672
H6 H 1.0688 0.7210 1.0676
S4 S 0.7933(3) 0.92786(12) 0.64716(12)
N4 N 0.3282(10) 0.9640(4) 1.2409(4)
C4 C 0.9079(13) 0.7832(6) 0.9544(5)
H7 H 0.7954 0.7468 0.9487
H8 H 0.9996 0.7683 0.9027
C5 C 0.6336(10) 0.9117(5) 0.5304(4)
H9 H 0.5923 0.8568 0.5272
H10 H 0.5137 0.9439 0.5326
C6 C 0.9810(11) 0.8524(5) 0.6247(5)
H11 H 1.0783 0.8502 0.6838
H12 H 0.9157 0.8013 0.6181
C7 C 1.0868(10) 0.8689(6) 0.5295(5)
H13 H 1.1994 0.8328 0.5273
H14 H 1.1410 0.9220 0.5343
C8 C 0.9570(10) 0.8615(5) 0.4278(5)
H15 H 0.8959 0.8095 0.4241
H16 H 1.0418 0.8665 0.3701
C9 C 0.4606(13) 0.7117(6) 0.7078(6)
C10 C 0.3878(13) 0.6332(5) 0.6738(6)
H17 H 0.3656 0.6014 0.7333
H18 H 0.4862 0.6083 0.6339
H19 H 0.2640 0.6388 0.6321
C11 C 0.2697(13) 1.0011(5) 0.8123(6)
C12 C 0.1292(14) 1.0642(6) 0.8323(7)
H20 H 0.1897 1.0994 0.8836
H21 H 0.0091 1.0420 0.8572
H22 H 0.0961 1.0928 0.7695
C13 C 0.4019(13) 0.7195(6) 1.3104(5)
C14 C 0.3491(13) 0.6360(5) 1.3171(6)
H23 H 0.3094 0.6164 1.2492
H24 H 0.2399 0.6300 1.3612
H25 H 0.4633 0.6068 1.3454
C15 C 0.2180(12) 1.0122(6) 1.2154(6)
C16 C 0.0803(16) 1.0750(7) 1.1831(9)
H26 H 0.1383 1.1067 1.1313
H27 H 0.0550 1.1074 1.2417
H28 H -0.0438 1.0527 1.1548
S3_2 S 0.7610(3) 0.93592(11) 1.41596(12)
Cu2_2 Cu 0.55016(13) 0.89077(6) 0.27789(5)
F1 F 0.7195(10) 1.0815(4) 0.9533(5)
B1 B 0.5954(13) 1.1287(6) 1.0071(5)
F2 F 0.5077(12) 1.1796(5) 0.9370(6)
F3 F 0.7017(10) 1.1680(4) 1.0822(4)
F4 F 0.4527(10) 1.0802(4) 1.0454(5)
B2 B 0.8189(17) 0.6380(7) 0.4915(7)
F5 F 0.7240(9) 0.5673(4) 0.4889(6)
F6 F 0.8870(18) 0.6473(7) 0.4010(9)
F7 F 0.6792(7) 0.6975(3) 0.5039(3)
F8 F 0.9501(17) 0.6409(7) 0.5650(9)
loop_
_geom_bond_atom_site_label_1
_geom_bond_atom_site_label_2
_geom_bond_site_symmetry_1
_geom_bond_site_symmetry_2
Cu1 S1 1_555 1_555
S1 C1 1_555 1_555
F1 B1 1_555 1_555
N1 Cu1 1_555 1_555
C1 H1 1_555 1_555
H2 C1 1_555 1_555
B1 F2 1_555 1_555
Cu2 S2 1_555 1_555
S2 C1 1_555 1_555
N2 Cu1 1_555 1_555
C2 S2 1_555 1_555
H3 C2 1_555 1_555
H4 C2 1_555 1_555
B2 F5 1_555 1_555
S3 C5 1_555 1_555
F3 B1 1_555 1_555
N3 Cu2 1_555 1_555
C3 C2 1_555 1_555
H5 C3 1_555 1_555
H6 C3 1_555 1_555
S4 Cu1 1_555 1_555
F4 B1 1_555 1_555
N4 Cu2 1_555 1_555
C4 S1 1_555 1_555
H7 C4 1_555 1_555
H8 C4 1_555 1_555
C5 S4 1_555 1_555
H9 C5 1_555 1_555
H10 C5 1_555 1_555
F6 B2 1_555 1_555
C6 S4 1_555 1_555
H11 C6 1_555 1_555
H12 C6 1_555 1_555
F7 B2 1_555 1_555
C7 C6 1_555 1_555
H13 C7 1_555 1_555
H14 C7 1_555 1_555
F8 B2 1_555 1_555
C8 S3 1_555 1_555
H15 C8 1_555 1_555
H16 C8 1_555 1_555
C9 N1 1_555 1_555
C10 C9 1_555 1_555
H17 C10 1_555 1_555
H18 C10 1_555 1_555
H19 C10 1_555 1_555
C11 N2 1_555 1_555
C12 C11 1_555 1_555
H20 C12 1_555 1_555
H21 C12 1_555 1_555
H22 C12 1_555 1_555
C13 N3 1_555 1_555
C14 C13 1_555 1_555
H23 C14 1_555 1_555
H24 C14 1_555 1_555
H25 C14 1_555 1_555
C15 N4 1_555 1_555
C16 C15 1_555 1_555
H26 C16 1_555 1_555
H27 C16 1_555 1_555
H28 C16 1_555 1_555
S3_2 Cu2 1_555 1_555
Cu2_2 S3 1_555 1_555
C3 C4 1_555 1_555
C7 C8 1_555 1_555

#END
