
#######################################################################
#
#                 Cambridge Crystallographic Data Centre
#                                CCDC 
#
#######################################################################
#
# If this CIF has been generated from an entry in the Cambridge 
# Structural Database, then it will include bibliographic, chemical, 
# crystal, experimental, refinement or atomic coordinate data resulting 
# from the CCDC's data processing and validation procedures.
#
#######################################################################

data_ALUPIG
_symmetry_cell_setting           orthorhombic
_symmetry_space_group_name_H-M   'P 21 21 21'
_symmetry_Int_Tables_number      19
_space_group_name_Hall           'P 2ac 2ab'
loop_
_symmetry_equiv_pos_site_id
_symmetry_equiv_pos_as_xyz
1 x,y,z
2 1/2-x,-y,1/2+z
3 1/2+x,1/2-y,-z
4 -x,1/2+y,1/2-z
_cell_length_a                   12.1164(17)
_cell_length_b                   16.379(2)
_cell_length_c                   19.486(3)
_cell_angle_alpha                90
_cell_angle_beta                 90
_cell_angle_gamma                90
_cell_volume                     3867.08
loop_
_atom_site_label
_atom_site_type_symbol
_atom_site_fract_x
_atom_site_fract_y
_atom_site_fract_z
Cu1 Cu 0.30431(8) 0.01502(6) 0.74780(5)
Cu2 Cu 0.43706(8) -0.17397(5) 0.81718(4)
Cu3 Cu 0.44220(8) 0.20206(5) 0.82962(4)
S1 S 0.39960(16) -0.03995(11) 0.83882(9)
S2 S 0.51127(19) 0.10710(12) 0.90527(9)
S3 S 0.41917(16) -0.20966(11) 0.70390(8)
S4 S 0.31752(18) -0.05303(11) 0.64545(9)
S5 S 0.40138(19) 0.28031(13) 0.63013(10)
S6 S 0.34221(16) 0.15327(11) 0.73834(9)
N1 N 0.1455(6) 0.0162(5) 0.7730(3)
N2 N 0.3343(6) -0.2431(4) 0.8703(4)
N3 N 0.3416(6) 0.2720(4) 0.8851(3)
C1 C 0.0550(9) 0.0351(6) 0.7743(5)
C2 C -0.0611(9) 0.0599(11) 0.7718(9)
H1 H -0.0693 0.1064 0.7406
H2 H -0.0856 0.0757 0.8179
H3 H -0.1061 0.0142 0.7554
C3 C 0.2868(8) -0.2822(6) 0.9064(4)
C4 C 0.2290(11) -0.3375(9) 0.9533(6)
H4 H 0.1790 -0.3727 0.9271
H5 H 0.1863 -0.3055 0.9865
H6 H 0.2829 -0.3713 0.9777
C5 C 0.2920(9) 0.3182(6) 0.9153(5)
C6 C 0.2309(12) 0.3766(8) 0.9529(7)
H7 H 0.2458 0.3699 1.0020
H8 H 0.1519 0.3688 0.9442
H9 H 0.2526 0.4316 0.9384
C7 C 0.5257(7) 0.0054(5) 0.8725(4)
H10 H 0.5540 -0.0300 0.9098
H11 H 0.5817 0.0059 0.8356
C8 C 0.4040(9) 0.0910(5) 0.9689(4)
H12 H 0.4326 0.0540 1.0049
H13 H 0.3865 0.1439 0.9909
C9 C 0.2992(8) 0.0552(6) 0.9401(4)
H14 H 0.2736 0.0900 0.9017
H15 H 0.2416 0.0565 0.9761
C10 C 0.3114(7) -0.0319(5) 0.9144(4)
H16 H 0.2374 -0.0538 0.9032
H17 H 0.3428 -0.0659 0.9516
C11 C 0.4242(8) -0.1288(5) 0.6411(4)
H18 H 0.4962 -0.1007 0.6455
H19 H 0.4219 -0.1539 0.5949
C12 C 0.1960(7) -0.1196(5) 0.6416(4)
H20 H 0.1290 -0.0854 0.6456
H21 H 0.1941 -0.1463 0.5960
C13 C 0.1918(7) -0.1847(5) 0.6960(4)
H22 H 0.1185 -0.2113 0.6946
H23 H 0.2000 -0.1586 0.7416
C14 C 0.2821(7) -0.2508(5) 0.6879(4)
H24 H 0.2791 -0.2735 0.6409
H25 H 0.2674 -0.2959 0.7205
C15 C 0.3847(7) 0.1733(5) 0.6501(4)
H26 H 0.4555 0.1450 0.6414
H27 H 0.3290 0.1498 0.6186
C16 C 0.2133(7) 0.2084(5) 0.7411(5)
H28 H 0.1624 0.1852 0.7065
H29 H 0.1793 0.2011 0.7869
C17 C 0.2286(8) 0.3013(5) 0.7268(5)
H30 H 0.1579 0.3296 0.7357
H31 H 0.2840 0.3233 0.7593
C18 C 0.2653(8) 0.3199(6) 0.6543(5)
H32 H 0.2658 0.3799 0.6482
H33 H 0.2099 0.2973 0.6222
S5C S 0.59862(19) -0.21969(13) 0.86987(10)
S3C S 0.58083(16) 0.29034(11) 0.79610(8)
Cu3C Cu 0.55780(8) -0.29794(5) 0.67038(4)
Cu2C Cu 0.56294(8) 0.32603(5) 0.68282(4)
Cl1 Cl 0.3484(7) -0.4969(6) 1.0713(4)
Cl2 Cl 0.5223(10) -0.3779(8) 1.0459(6)
C19 C 0.4768(16) -0.4809(12) 1.0301(12)
H34 H 0.4689 -0.4900 0.9801
H35 H 0.5321 -0.5200 1.0479
F1 F 0.3692(8) -0.0712(4) 1.1080(4)
F2 F 0.4863(7) -0.1726(6) 1.1218(4)
F3 F 0.3486(9) -0.1776(6) 1.0478(5)
F4 F 0.4905(5) -0.0988(4) 1.0234(3)
B1 B 0.4282(12) -0.1257(7) 1.0744(6)
F5 F 0.6075(9) 0.0926(4) 0.7327(3)
F6 F 0.6204(7) -0.0440(4) 0.7250(3)
F7 F 0.5817(7) 0.0320(4) 0.6326(3)
F8 F 0.7494(7) 0.0353(9) 0.6722(5)
B2 B 0.6467(10) 0.0280(8) 0.6940(6)
F9 F 0.5888(5) -0.2130(6) 0.4390(4)
F10 F 0.4548(9) -0.2813(6) 0.3913(5)
F11 F 0.4367(9) -0.1590(6) 0.3906(5)
F12 F 0.4214(7) -0.2205(5) 0.4913(3)
B3 B 0.4788(9) -0.2090(7) 0.4357(5)
Cl3? Cl 0.5122(12) -0.4216(9) 1.0071(6)
Cl4? Cl 0.5511(8) -0.3450(6) 1.1385(4)
C20? C 0.562(4) -0.3342(18) 1.0489(10)
H36? H 0.5191 -0.2860 1.0338
H37? H 0.6402 -0.3253 1.0362
loop_
_geom_bond_atom_site_label_1
_geom_bond_atom_site_label_2
_geom_bond_site_symmetry_1
_geom_bond_site_symmetry_2
Cu1 S1 1_555 1_555
Cu2 S1 1_555 1_555
Cu3 S2 1_555 1_555
Cl1 C19 1_555 1_555
Cl2 C19 1_555 1_555
S1 C7 1_555 1_555
S2 C7 1_555 1_555
S3 Cu2 1_555 1_555
S4 Cu1 1_555 1_555
S5 C15 1_555 1_555
S6 Cu1 1_555 1_555
F1 B1 1_555 1_555
F2 B1 1_555 1_555
F3 B1 1_555 1_555
F4 B1 1_555 1_555
F5 B2 1_555 1_555
F6 B2 1_555 1_555
F7 B2 1_555 1_555
F8 B2 1_555 1_555
F9 B3 1_555 1_555
F10 B3 1_555 1_555
F11 B3 1_555 1_555
F12 B3 1_555 1_555
N1 Cu1 1_555 1_555
N2 Cu2 1_555 1_555
N3 Cu3 1_555 1_555
C1 N1 1_555 1_555
C2 C1 1_555 1_555
H1 C2 1_555 1_555
H2 C2 1_555 1_555
H3 C2 1_555 1_555
C3 N2 1_555 1_555
C4 C3 1_555 1_555
H4 C4 1_555 1_555
H5 C4 1_555 1_555
H6 C4 1_555 1_555
C5 N3 1_555 1_555
C6 C5 1_555 1_555
H7 C6 1_555 1_555
H8 C6 1_555 1_555
H9 C6 1_555 1_555
C7 H10 1_555 1_555
H11 C7 1_555 1_555
C8 S2 1_555 1_555
H12 C8 1_555 1_555
H13 C8 1_555 1_555
C9 C8 1_555 1_555
H14 C9 1_555 1_555
H15 C9 1_555 1_555
C10 S1 1_555 1_555
H16 C10 1_555 1_555
H17 C10 1_555 1_555
C11 S3 1_555 1_555
H18 C11 1_555 1_555
H19 C11 1_555 1_555
C12 S4 1_555 1_555
H20 C12 1_555 1_555
H21 C12 1_555 1_555
C13 C12 1_555 1_555
H22 C13 1_555 1_555
H23 C13 1_555 1_555
C14 S3 1_555 1_555
H24 C14 1_555 1_555
H25 C14 1_555 1_555
C15 S6 1_555 1_555
H26 C15 1_555 1_555
H27 C15 1_555 1_555
C16 S6 1_555 1_555
H28 C16 1_555 1_555
H29 C16 1_555 1_555
C17 C16 1_555 1_555
H30 C17 1_555 1_555
H31 C17 1_555 1_555
C18 S5 1_555 1_555
H32 C18 1_555 1_555
H33 C18 1_555 1_555
C19 H34 1_555 1_555
H35 C19 1_555 1_555
S5C Cu2 1_555 1_555
S3C Cu3 1_555 1_555
Cu3C S3 1_555 1_555
Cu2C S5 1_555 1_555
Cu3 S6 1_555 1_555
S4 C11 1_555 1_555
C9 C10 1_555 1_555
C13 C14 1_555 1_555
C17 C18 1_555 1_555
S3C Cu2C 1_555 1_555

#END
