
#######################################################################
#
#                 Cambridge Crystallographic Data Centre
#                                CCDC 
#
#######################################################################
#
# If this CIF has been generated from an entry in the Cambridge 
# Structural Database, then it will include bibliographic, chemical, 
# crystal, experimental, refinement or atomic coordinate data resulting 
# from the CCDC's data processing and validation procedures.
#
#######################################################################

data_ALUPUS02
_symmetry_cell_setting           triclinic
_symmetry_space_group_name_H-M   'P -1'
_symmetry_Int_Tables_number      2
_space_group_name_Hall           '-P 1'
loop_
_symmetry_equiv_pos_site_id
_symmetry_equiv_pos_as_xyz
1 x,y,z
2 -x,-y,-z
_cell_length_a                   8.0509(17)
_cell_length_b                   9.1765(18)
_cell_length_c                   10.674(2)
_cell_angle_alpha                109.780(3)
_cell_angle_beta                 99.965(3)
_cell_angle_gamma                101.614(4)
_cell_volume                     701.543
loop_
_atom_site_label
_atom_site_type_symbol
_atom_site_fract_x
_atom_site_fract_y
_atom_site_fract_z
Zn1 Zn 0.83376(4) 1.02114(3) 0.35094(3)
O1 O 0.7766(3) 1.1678(3) 0.2356(2)
O2 O 0.5530(3) 1.0091(3) 0.2490(2)
O3 O 0.7415(3) 0.8456(2) 0.41453(18)
O4 O 0.9070(2) 0.8783(2) 0.61744(19)
N1 N 0.8473(3) 0.8276(2) 0.1667(2)
N2 N 0.8279(3) 0.2075(2) -0.4586(2)
C1 C 0.4998(7) 1.1851(6) 0.1352(5)
H1 H 0.3789 1.1369 0.1269
H2 H 0.5183 1.1632 0.0449
H3 H 0.5287 1.2996 0.1850
C2 C 0.6136(4) 1.1165(3) 0.2106(3)
C3 C 0.6345(5) 0.6804(4) 0.5247(4)
H4 H 0.6800 0.6508 0.5990
H5 H 0.6013 0.5883 0.4391
H6 H 0.5336 0.7176 0.5398
C4 C 0.7731(3) 0.8126(3) 0.5187(3)
C5 C 0.7448(4) 0.6776(3) 0.1239(3)
H7 H 0.6730 0.6545 0.1782
C6 C 0.7388(4) 0.5552(3) 0.0046(3)
H8 H 0.6640 0.4529 -0.0198
C7 C 0.8433(3) 0.5825(3) -0.0802(2)
C8 C 0.9529(4) 0.7389(3) -0.0338(3)
H9 H 1.0273 0.7653 -0.0853
C9 C 0.9512(4) 0.8539(3) 0.0875(3)
H10 H 1.0273 0.9566 0.1163
C10 C 0.8375(3) 0.4534(3) -0.2105(2)
C11 C 0.9379(4) 0.4825(3) -0.2988(3)
H11 H 1.0106 0.5852 -0.2765
C12 C 0.9283(4) 0.3586(3) -0.4183(3)
H12 H 0.9962 0.3810 -0.4752
C13 C 0.7297(3) 0.1807(3) -0.3754(3)
H13 H 0.6562 0.0773 -0.4016
C14 C 0.7311(3) 0.2968(3) -0.2537(3)
H14 H 0.6605 0.2708 -0.1997
Zn1A Zn 1.16624(4) 0.97886(3) 0.64906(3)
Zn1_2 Zn 0.83376(4) 0.02114(3) -0.64906(3)
O4A O 1.0930(2) 1.1217(2) 0.38256(19)
N2_2 N 0.8279(3) 1.2075(2) 0.5414(2)
loop_
_geom_bond_atom_site_label_1
_geom_bond_atom_site_label_2
_geom_bond_site_symmetry_1
_geom_bond_site_symmetry_2
Zn1 O1 1_555 1_555
O1 C2 1_555 1_555
O2 Zn1 1_555 1_555
O3 Zn1 1_555 1_555
O4 C4 1_555 1_555
N1 Zn1 1_555 1_555
N2 C12 1_555 1_555
C1 H1 1_555 1_555
H2 C1 1_555 1_555
H3 C1 1_555 1_555
C2 O2 1_555 1_555
C3 H4 1_555 1_555
H5 C3 1_555 1_555
H6 C3 1_555 1_555
C4 O3 1_555 1_555
C5 N1 1_555 1_555
H7 C5 1_555 1_555
C6 C5 1_555 1_555
H8 C6 1_555 1_555
C7 C6 1_555 1_555
C8 C7 1_555 1_555
H9 C8 1_555 1_555
C9 N1 1_555 1_555
H10 C9 1_555 1_555
C10 C7 1_555 1_555
C11 C10 1_555 1_555
H11 C11 1_555 1_555
C12 C11 1_555 1_555
H12 C12 1_555 1_555
C13 N2 1_555 1_555
H13 C13 1_555 1_555
C14 C10 1_555 1_555
H14 C14 1_555 1_555
Zn1A O4 1_555 1_555
Zn1_2 N2 1_555 1_555
O4A Zn1 1_555 1_555
N2_2 Zn1 1_555 1_555
C1 C2 1_555 1_555
C3 C4 1_555 1_555
C8 C9 1_555 1_555
C13 C14 1_555 1_555

#END
