
#######################################################################
#
#                 Cambridge Crystallographic Data Centre
#                                CCDC 
#
#######################################################################
#
# If this CIF has been generated from an entry in the Cambridge 
# Structural Database, then it will include bibliographic, chemical, 
# crystal, experimental, refinement or atomic coordinate data resulting 
# from the CCDC's data processing and validation procedures.
#
#######################################################################

data_ALUSUW
_symmetry_cell_setting           monoclinic
_symmetry_space_group_name_H-M   'P 21/n'
_symmetry_Int_Tables_number      14
_space_group_name_Hall           '-P 2yn'
loop_
_symmetry_equiv_pos_site_id
_symmetry_equiv_pos_as_xyz
1 x,y,z
2 1/2-x,1/2+y,1/2-z
3 -x,-y,-z
4 1/2+x,1/2-y,1/2+z
_cell_length_a                   11.330(6)
_cell_length_b                   6.557(3)
_cell_length_c                   11.330(6)
_cell_angle_alpha                90
_cell_angle_beta                 110.84
_cell_angle_gamma                90
_cell_volume                     786.648
loop_
_atom_site_label
_atom_site_type_symbol
_atom_site_fract_x
_atom_site_fract_y
_atom_site_fract_z
Mn1 Mn -0.17813(9) 0.28854(17) 0.72659(10)
Co1 Co 0.5000 0.0000 0.5000
O1 O 0.0019(4) 0.3251(7) 0.7148(5)
O2 O 0.2337(4) 0.4957(7) 0.4227(4)
O3 O 0.3827(4) 0.2653(7) 0.4365(4)
O4 O 0.6611(4) 0.4533(7) 0.7782(4)
O5 O 0.1186(4) 0.3812(8) 0.9148(4)
C1 C 0.2242(6) 0.3442(10) 0.7716(6)
C2 C 0.3402(6) 0.3397(10) 0.8715(6)
H1 H 0.3431 0.3375 0.9545
C3 C 0.4508(6) 0.3384(10) 0.8459(6)
H2 H 0.5278 0.3373 0.9128
C4 C 0.4501(5) 0.3386(10) 0.7234(6)
C5 C 0.3328(6) 0.3512(10) 0.6219(6)
C6 C 0.2224(6) 0.3573(10) 0.6495(6)
H3 H 0.1453 0.3706 0.5836
C7 C 0.1039(6) 0.3512(10) 0.8022(7)
C8 C 0.5792(6) 0.3255(10) 0.7162(6)
C9 C 0.3173(6) 0.3732(11) 0.4838(6)
O6 O 0.6102(4) 0.1823(7) 0.6593(4)
Mn1B Mn 1.17813(9) -0.28854(17) 0.27341(10)
Mn1B_2 Mn 0.17813(9) 0.71146(17) 0.27341(10)
Mn1C Mn 0.32187(9) 0.21146(17) 0.22659(10)
Mn1A Mn 0.67813(9) 0.78854(17) 0.77341(10)
Mn1_2 Mn 0.82187(9) 0.28854(17) 0.72659(10)
Mn1_3 Mn 0.82187(9) -0.71146(17) 0.72659(10)
Mn1A_2 Mn 0.67813(9) -0.21146(17) 0.77341(10)
Mn1C_2 Mn 0.32187(9) -0.78854(17) 0.22659(10)
Mn1B_3 Mn 0.17813(9) -0.28854(17) 0.27341(10)
Co1A Co 0.0000 0.5000 1.0000
Co1A_2 Co 1.0000 -0.5000 0.0000
O1B O 0.9981(4) -0.3251(7) 0.2852(5)
O2B O 0.7663(4) -0.4957(7) 0.5773(4)
O2B_2 O -0.2337(4) 0.5043(7) 0.5773(4)
O2_2 O 1.2337(4) -0.5043(7) 0.4227(4)
O3B O 0.6173(4) -0.2653(7) 0.5635(4)
O3C O -0.1173(4) 0.2347(7) 0.9365(4)
O3A O 1.1173(4) -0.2347(7) 0.0635(4)
O4B O 0.3389(4) -0.4533(7) 0.2218(4)
O4A O -0.1611(4) -0.0467(7) 0.7218(4)
O4_2 O -0.3389(4) 0.4533(7) 0.7782(4)
O4C O 1.1611(4) 0.0467(7) 0.2782(4)
O4B_2 O 1.3389(4) -0.4533(7) 0.2218(4)
O5B O 0.8814(4) -0.3812(8) 0.0852(4)
O5A O 0.3814(4) -0.1188(8) 0.5852(4)
O5C O 0.6186(4) 0.1188(8) 0.4148(4)
C1B C 0.7758(6) -0.3442(10) 0.2284(6)
C2B C 0.6598(6) -0.3397(10) 0.1285(6)
H1B H 0.6569 -0.3375 0.0455
C3B C 0.5492(6) -0.3384(10) 0.1541(6)
H2B H 0.4722 -0.3373 0.0872
C4B C 0.5499(5) -0.3386(10) 0.2766(6)
C5B C 0.6672(6) -0.3512(10) 0.3781(6)
C6B C 0.7776(6) -0.3573(10) 0.3505(6)
H3B H 0.8547 -0.3706 0.4164
C7B C 0.8961(6) -0.3512(10) 0.1978(7)
C8B C 0.4208(6) -0.3255(10) 0.2838(6)
C9B C 0.6827(6) -0.3732(11) 0.5162(6)
O6B O 0.3898(4) -0.1823(7) 0.3407(4)
O6_2 O -0.3898(4) 0.1823(7) 0.6593(4)
O6B_2 O 1.3898(4) -0.1823(7) 0.3407(4)
loop_
_geom_bond_atom_site_label_1
_geom_bond_atom_site_label_2
_geom_bond_site_symmetry_1
_geom_bond_site_symmetry_2
Mn1 O1 1_555 1_555
Co1 O3 1_555 1_555
O1 C7 1_555 1_555
O2 C9 1_555 1_555
O3 C9 1_555 1_555
O4 C8 1_555 1_555
O5 C7 1_555 1_555
C1 C2 1_555 1_555
C2 H1 1_555 1_555
C3 C2 1_555 1_555
H2 C3 1_555 1_555
C4 C3 1_555 1_555
C5 C4 1_555 1_555
C6 C1 1_555 1_555
H3 C6 1_555 1_555
C7 C1 1_555 1_555
C8 C4 1_555 1_555
C9 C5 1_555 1_555
O6 Co1 1_555 1_555
Mn1B O1B 1_555 1_555
Mn1B_2 O2 1_555 1_555
Mn1C O3 1_555 1_555
Mn1A O4 1_555 1_555
Mn1_2 O4 1_555 1_555
Mn1_3 O2B 1_555 1_555
Mn1A_2 O3B 1_555 1_555
Mn1C_2 O4B 1_555 1_555
Mn1B_3 O4B 1_555 1_555
Co1A O5 1_555 1_555
Co1A_2 O3A 1_555 1_555
O1B C7B 1_555 1_555
O2B C9B 1_555 1_555
O2B_2 Mn1 1_555 1_555
O2_2 Mn1B 1_555 1_555
O3B Co1 1_555 1_555
O3C Mn1 1_555 1_555
O3A Mn1B 1_555 1_555
O4B C8B 1_555 1_555
O4A Mn1 1_555 1_555
O4_2 Mn1 1_555 1_555
O4C Mn1B 1_555 1_555
O4B_2 Mn1B 1_555 1_555
O5B Co1A_2 1_555 1_555
O5A Co1 1_555 1_555
O5C Co1 1_555 1_555
C1B C2B 1_555 1_555
C2B H1B 1_555 1_555
C3B C2B 1_555 1_555
H2B C3B 1_555 1_555
C4B C3B 1_555 1_555
C5B C4B 1_555 1_555
C6B C1B 1_555 1_555
H3B C6B 1_555 1_555
C7B O5B 1_555 1_555
C8B C4B 1_555 1_555
C9B O3B 1_555 1_555
O6B Co1 1_555 1_555
O6_2 Mn1 1_555 1_555
O6B_2 Mn1B 1_555 1_555
C5 C6 1_555 1_555
C8 O6 1_555 1_555
O6 Mn1_2 1_555 1_555
Mn1B_3 O6B 1_555 1_555
Co1A O3C 1_555 1_555
C1B C7B 1_555 1_555
C5B C6B 1_555 1_555
C5B C9B 1_555 1_555
C8B O6B 1_555 1_555

#END
