
#######################################################################
#
#                 Cambridge Crystallographic Data Centre
#                                CCDC 
#
#######################################################################
#
# If this CIF has been generated from an entry in the Cambridge 
# Structural Database, then it will include bibliographic, chemical, 
# crystal, experimental, refinement or atomic coordinate data resulting 
# from the CCDC's data processing and validation procedures.
#
#######################################################################

data_AMAFOK
_symmetry_cell_setting           rhombohedral
_symmetry_space_group_name_H-M   'R -3'
_symmetry_Int_Tables_number      148
_space_group_name_Hall           '-R 3'
loop_
_symmetry_equiv_pos_site_id
_symmetry_equiv_pos_as_xyz
1 x,y,z
2 -y,x-y,z
3 -x+y,-x,z
4 2/3+x,1/3+y,1/3+z
5 2/3-y,1/3+x-y,1/3+z
6 2/3-x+y,1/3-x,1/3+z
7 1/3+x,2/3+y,2/3+z
8 1/3-y,2/3+x-y,2/3+z
9 1/3-x+y,2/3-x,2/3+z
10 -x,-y,-z
11 y,-x+y,-z
12 x-y,x,-z
13 1/3-x,2/3-y,2/3-z
14 1/3+y,2/3-x+y,2/3-z
15 1/3+x-y,2/3+x,2/3-z
16 2/3-x,1/3-y,1/3-z
17 2/3+y,1/3-x+y,1/3-z
18 2/3+x-y,1/3+x,1/3-z
_cell_length_a                   21.466(2)
_cell_length_b                   21.466(2)
_cell_length_c                   7.7719(11)
_cell_angle_alpha                90
_cell_angle_beta                 90
_cell_angle_gamma                120
_cell_volume                     3101.42
loop_
_atom_site_label
_atom_site_type_symbol
_atom_site_fract_x
_atom_site_fract_y
_atom_site_fract_z
N3 N 0.3333 -0.3333 -0.5734(15)
C6 C 0.3167(7) -0.2753(6) -0.5716(16)
O3 O 0.2625(10) -0.2936(10) -0.459(2)
C6A C 0.2753(6) -0.4080(9) -0.5716(16)
C6B C 0.4080(9) -0.3167(7) -0.5716(16)
O3A O 0.2936(10) -0.4439(14) -0.459(2)
O3B O 0.4439(14) -0.2625(10) -0.459(2)
Cu1 Cu 0.5000 0.0000 0.0000
O1 O 0.51664(12) -0.02218(13) -0.2300(3)
O2 O 0.5698(2) -0.08181(19) -0.1312(3)
N1 N 0.59742(14) -0.13112(15) -0.6281(3)
N2 N 0.50499(17) -0.10884(18) -0.7207(4)
C1 C 0.54476(18) -0.06234(18) -0.2466(4)
C2 C 0.54572(18) -0.08602(17) -0.4286(4)
C3 C 0.50102(19) -0.08762(19) -0.5599(4)
C4 C 0.55347(18) -0.1288(2) -0.7479(4)
C5 C 0.59294(17) -0.10940(18) -0.4691(4)
H1 H 0.467(2) -0.074(2) -0.542(5)
H2 H 0.559(2) -0.142(2) -0.860(5)
H3 H 0.626(2) -0.108(2) -0.386(5)
Cu1D Cu 0.6667 -0.1667 -0.6667
Cu1G Cu 0.3333 0.1667 0.6667
O1I O 0.48336(12) 0.02218(13) 0.2300(3)
O2I O 0.4302(2) 0.08181(19) 0.1312(3)
N1I N 0.40258(14) 0.13112(15) 0.6281(3)
N1H N 0.60479(21) 0.06925(14) 0.0386(3)
N1Q N 0.39521(21) -0.06925(14) -0.0386(3)
N2I N 0.49501(17) 0.10884(18) 0.7207(4)
C1I C 0.45524(18) 0.06234(18) 0.2466(4)
C2I C 0.45428(18) 0.08602(17) 0.4286(4)
C3I C 0.49898(19) 0.08762(19) 0.5599(4)
C4I C 0.44653(18) 0.1288(2) 0.7479(4)
C5I C 0.40706(17) 0.10940(18) 0.4691(4)
H1I H 0.533(2) 0.074(2) 0.542(5)
H2I H 0.441(2) 0.142(2) 0.860(5)
H3I H 0.374(2) 0.108(2) 0.386(5)
loop_
_geom_bond_atom_site_label_1
_geom_bond_atom_site_label_2
_geom_bond_site_symmetry_1
_geom_bond_site_symmetry_2
Cu1 O1 1_555 1_555
O1 C1 1_555 1_555
O2 C1 1_555 1_555
N1 C4 1_555 1_555
N2 C3 1_555 1_555
C1 C2 1_555 1_555
C2 C3 1_555 1_555
C3 H1 1_555 1_555
C4 N2 1_555 1_555
C5 N1 1_555 1_555
H2 C4 1_555 1_555
H3 C5 1_555 1_555
N3 C6 1_555 1_555
C6 O3 1_555 1_555
Cu1D N1 1_555 1_555
Cu1G N1I 1_555 1_555
O1I Cu1 1_555 1_555
O2I C1I 1_555 1_555
N1I C4I 1_555 1_555
N1H Cu1 1_555 1_555
N1Q Cu1 1_555 1_555
N2I C3I 1_555 1_555
C1I O1I 1_555 1_555
C2I C1I 1_555 1_555
C3I C2I 1_555 1_555
C4I N2I 1_555 1_555
C5I N1I 1_555 1_555
H1I C3I 1_555 1_555
H2I C4I 1_555 1_555
H3I C5I 1_555 1_555
C6A N3 1_555 1_555
C6B N3 1_555 1_555
O3A C6A 1_555 1_555
O3B C6B 1_555 1_555
C2 C5 1_555 1_555
C2I C5I 1_555 1_555

#END
