
#######################################################################
#
#                 Cambridge Crystallographic Data Centre
#                                CCDC 
#
#######################################################################
#
# If this CIF has been generated from an entry in the Cambridge 
# Structural Database, then it will include bibliographic, chemical, 
# crystal, experimental, refinement or atomic coordinate data resulting 
# from the CCDC's data processing and validation procedures.
#
#######################################################################

data_AMAJUU
_symmetry_cell_setting           monoclinic
_symmetry_space_group_name_H-M   'P 21/c'
_symmetry_Int_Tables_number      14
_space_group_name_Hall           '-P 2ybc'
loop_
_symmetry_equiv_pos_site_id
_symmetry_equiv_pos_as_xyz
1 x,y,z
2 -x,1/2+y,1/2-z
3 -x,-y,-z
4 x,1/2-y,1/2+z
_cell_length_a                   10.8343(14)
_cell_length_b                   11.2099(15)
_cell_length_c                   6.6573(9)
_cell_angle_alpha                90
_cell_angle_beta                 90.697(2)
_cell_angle_gamma                90
_cell_volume                     808.479
loop_
_atom_site_label
_atom_site_type_symbol
_atom_site_fract_x
_atom_site_fract_y
_atom_site_fract_z
Pb1 Pb 0.18395(3) 0.63235(2) 0.79139(4)
C1 C 0.1914(6) 0.3369(6) 0.8555(10)
C2 C 0.2318(7) 0.2204(6) 0.8700(11)
H1 H 0.1751 0.1584 0.8793
C3 C 0.3573(7) 0.1961(6) 0.8708(10)
H2 H 0.3854 0.1178 0.8781
C4 C 0.4403(7) 0.2897(6) 0.8605(10)
C5 C 0.3923(7) 0.4040(6) 0.8484(10)
H3 H 0.4469 0.4680 0.8447
C6 C 0.0550(7) 0.3667(7) 0.8431(10)
C7 C 0.5759(7) 0.2669(7) 0.8526(11)
N1 N 0.2720(6) 0.4266(5) 0.8419(8)
O1 O 0.0262(5) 0.4679(4) 0.7738(8)
O2 O -0.0184(5) 0.2883(5) 0.8962(8)
O3 O 0.6071(5) 0.1593(5) 0.8388(10)
O4 O 0.6491(5) 0.3539(5) 0.8623(9)
O5 O 0.1869(5) 0.5707(5) 0.4392(8)
H4 H 0.243(5) 0.593(8) 0.362(9)
H5 H 0.116(3) 0.557(8) 0.389(11)
Pb1A Pb -0.18395(3) 0.13235(2) 0.70861(4)
Pb1B Pb -0.18395(3) 0.36765(2) 1.20861(4)
Pb1A_2 Pb 0.81605(3) 0.13235(2) 0.70861(4)
Pb1B_2 Pb 0.81605(3) 0.36765(2) 1.20861(4)
O2A O 0.0184(5) 0.7883(5) 0.6038(8)
O2B O 0.0184(5) 0.7117(5) 1.1038(8)
O3A O 0.3929(5) 0.6593(5) 0.6612(10)
O4B O 0.3509(5) 0.6461(5) 1.1377(9)
loop_
_geom_bond_atom_site_label_1
_geom_bond_atom_site_label_2
_geom_bond_site_symmetry_1
_geom_bond_site_symmetry_2
Pb1 N1 1_555 1_555
C1 C2 1_555 1_555
C2 H1 1_555 1_555
C3 C2 1_555 1_555
H2 C3 1_555 1_555
C4 C3 1_555 1_555
C5 C4 1_555 1_555
H3 C5 1_555 1_555
C6 C1 1_555 1_555
C7 C4 1_555 1_555
N1 C1 1_555 1_555
O1 Pb1 1_555 1_555
O2 C6 1_555 1_555
O3 C7 1_555 1_555
O4 C7 1_555 1_555
O5 Pb1 1_555 1_555
H4 O5 1_555 1_555
H5 O5 1_555 1_555
Pb1A O2 1_555 1_555
Pb1B O2 1_555 1_555
Pb1A_2 O3 1_555 1_555
Pb1B_2 O4 1_555 1_555
O2A Pb1 1_555 1_555
O2B Pb1 1_555 1_555
O3A Pb1 1_555 1_555
O4B Pb1 1_555 1_555
C5 N1 1_555 1_555
C6 O1 1_555 1_555

#END
