
#######################################################################
#
#                 Cambridge Crystallographic Data Centre
#                                CCDC 
#
#######################################################################
#
# If this CIF has been generated from an entry in the Cambridge 
# Structural Database, then it will include bibliographic, chemical, 
# crystal, experimental, refinement or atomic coordinate data resulting 
# from the CCDC's data processing and validation procedures.
#
#######################################################################

data_AMBRCD
_symmetry_cell_setting           monoclinic
_symmetry_space_group_name_H-M   'C 2/c'
_symmetry_Int_Tables_number      15
_space_group_name_Hall           '-C 2yn'
loop_
_symmetry_equiv_pos_site_id
_symmetry_equiv_pos_as_xyz
1 x,y,z
2 1/2+x,1/2+y,z
3 -x,y,1/2-z
4 1/2-x,1/2+y,1/2-z
5 -x,-y,-z
6 1/2-x,1/2-y,-z
7 x,-y,1/2+z
8 1/2+x,1/2-y,1/2+z
_cell_length_a                   26.264(4)
_cell_length_b                   3.8618(5)
_cell_length_c                   21.564(4)
_cell_angle_alpha                90
_cell_angle_beta                 131.649(9)
_cell_angle_gamma                90
_cell_volume                     1634.31
loop_
_atom_site_label
_atom_site_type_symbol
_atom_site_fract_x
_atom_site_fract_y
_atom_site_fract_z
Cd1 Cd 0.00000 0.17320 0.75000
Br1 Br -0.08310 -0.32580 0.73049
C1 C 0.11650 0.29180 0.96990
N1 N 0.05670 0.16120 0.89940
S1 S 0.00965 0.06610 0.92110
N2 N 0.05970 0.18660 1.01670
C2 C 0.11720 0.31050 1.03720
C3 C 0.17450 0.44490 1.11500
C4 C 0.22760 0.54820 1.12400
C5 C 0.22760 0.52870 1.05850
C6 C 0.17320 0.39990 0.98100
N3 N 0.17270 0.45510 1.17920
H1 H 0.14000 0.59490 1.16300
H2 H 0.19800 0.61990 1.22400
H3 H 0.26900 0.61200 1.06900
H4 H 0.26900 0.64200 1.17900
H5 H 0.17400 0.38400 0.93600
Br1_2 Br -0.08310 0.67420 0.73049
Br1B Br 0.08310 -0.32580 0.76951
Br1B_2 Br 0.08310 0.67420 0.76951
N1B N -0.05670 0.16120 0.60060
Cd1_2 Cd 0.00000 -0.82680 0.75000
C1B C -0.11650 0.29180 0.53010
S1B S -0.00965 0.06610 0.57890
C2B C -0.11720 0.31050 0.46280
C6B C -0.17320 0.39990 0.51900
N2B N -0.05970 0.18660 0.48330
C3B C -0.17450 0.44490 0.38500
C5B C -0.22760 0.52870 0.44150
H5B H -0.17400 0.38400 0.56400
C4B C -0.22760 0.54820 0.37600
N3B N -0.17270 0.45510 0.32080
H3B H -0.26900 0.61200 0.43100
H4B H -0.26900 0.64200 0.32100
H1B H -0.14000 0.59490 0.33700
H2B H -0.19800 0.61990 0.27600
loop_
_geom_bond_atom_site_label_1
_geom_bond_atom_site_label_2
_geom_bond_site_symmetry_1
_geom_bond_site_symmetry_2
Cd1 Br1 1_555 1_555
Br1 Cd1_2 1_555 1_555
C1 N1 1_555 1_555
N1 Cd1 1_555 1_555
S1 N1 1_555 1_555
N2 S1 1_555 1_555
C2 C1 1_555 1_555
C3 C2 1_555 1_555
C4 C3 1_555 1_555
C5 C4 1_555 1_555
C6 C1 1_555 1_555
N3 C3 1_555 1_555
H1 N3 1_555 1_555
H2 N3 1_555 1_555
H3 C5 1_555 1_555
H4 C4 1_555 1_555
H5 C6 1_555 1_555
Br1_2 Cd1 1_555 1_555
Br1B Cd1 1_555 1_555
Br1B_2 Cd1 1_555 1_555
N1B Cd1 1_555 1_555
Cd1_2 Br1B 1_555 1_555
C1B N1B 1_555 1_555
S1B N1B 1_555 1_555
C2B C1B 1_555 1_555
C6B C1B 1_555 1_555
N2B S1B 1_555 1_555
C3B C2B 1_555 1_555
C5B C6B 1_555 1_555
H5B C6B 1_555 1_555
C4B C3B 1_555 1_555
N3B C3B 1_555 1_555
H3B C5B 1_555 1_555
H4B C4B 1_555 1_555
H1B N3B 1_555 1_555
H2B N3B 1_555 1_555
N2 C2 1_555 1_555
C5 C6 1_555 1_555
C2B N2B 1_555 1_555
C5B C4B 1_555 1_555

#END
