
#######################################################################
#
#                 Cambridge Crystallographic Data Centre
#                                CCDC 
#
#######################################################################
#
# If this CIF has been generated from an entry in the Cambridge 
# Structural Database, then it will include bibliographic, chemical, 
# crystal, experimental, refinement or atomic coordinate data resulting 
# from the CCDC's data processing and validation procedures.
#
#######################################################################

data_AMBZAG10
_symmetry_cell_setting           monoclinic
_symmetry_space_group_name_H-M   'P 21/c'
_symmetry_Int_Tables_number      14
_space_group_name_Hall           '-P 2ybc'
loop_
_symmetry_equiv_pos_site_id
_symmetry_equiv_pos_as_xyz
1 x,y,z
2 -x,1/2+y,1/2-z
3 -x,-y,-z
4 x,1/2-y,1/2+z
_cell_length_a                   7.651(2)
_cell_length_b                   16.314(4)
_cell_length_c                   12.082(2)
_cell_angle_alpha                90
_cell_angle_beta                 93.76(2)
_cell_angle_gamma                90
_cell_volume                     1504.81
loop_
_atom_site_label
_atom_site_type_symbol
_atom_site_fract_x
_atom_site_fract_y
_atom_site_fract_z
Ag1 Ag -0.01610 -0.10500 0.53020
Ag2 Ag 0.36700 -0.03050 0.57420
O1 O -0.07150 0.00540 0.63070
O2 O 0.16680 -0.03110 0.73230
O3 O -0.58810 -0.14710 0.48750
O4 O -0.32520 -0.11100 0.43010
N1 N -0.40990 -0.47250 0.23450
N2 N -0.08550 0.26840 1.01580
C1 C -0.45640 -0.15940 0.44010
C2 C -0.42890 -0.24570 0.38190
C3 C -0.32510 -0.25520 0.29620
C4 C -0.31910 -0.32920 0.24950
C5 C -0.40500 -0.39910 0.29030
C6 C -0.50390 -0.39090 0.37610
C7 C -0.51100 -0.31310 0.42910
C8 C 0.04250 0.00860 0.71550
C9 C 0.00160 0.07960 0.79320
C10 C -0.12790 0.13980 0.76850
C11 C -0.15090 0.20010 0.84370
C12 C -0.05980 0.20400 0.93920
C13 C 0.07110 0.14260 0.96970
C14 C 0.09680 0.08330 0.89650
H1 H -0.43900 -0.52000 0.28800
H2 H -0.28800 -0.48500 0.20600
H3 H -0.21800 0.27300 1.02600
H4 H -0.02400 0.25200 1.09100
H5 H -0.24900 -0.20400 0.26700
H6 H -0.24300 -0.33600 0.17600
H7 H -0.58000 -0.44300 0.40500
H8 H -0.58100 -0.30600 0.50500
H9 H -0.20800 0.13600 0.69000
H10 H -0.25100 0.24600 0.82300
H11 H 0.14300 0.14500 1.04800
H12 H 0.19900 0.03700 0.91700
Ag1B Ag 0.01610 0.10500 0.46980
O1B O 0.07150 -0.00540 0.36930
N2A N 0.08550 -0.23160 0.48420
Ag2B Ag 0.63300 0.03050 0.42580
O3_2 O 0.41190 -0.14710 0.48750
O4B O 0.32520 0.11100 0.56990
N1C N 0.59010 -0.02750 0.73450
Ag2_2 Ag -0.63300 -0.03050 0.57420
Ag2B_2 Ag -0.36700 0.03050 0.42580
Ag2C Ag -0.63300 -0.46950 0.07420
Ag1A Ag 0.01610 0.39500 0.96980
H3A H 0.21800 -0.22700 0.47400
H4A H 0.02400 -0.24800 0.40900
H1C H 0.56100 0.02000 0.78800
H2C H 0.71200 -0.01500 0.70600
loop_
_geom_bond_atom_site_label_1
_geom_bond_atom_site_label_2
_geom_bond_site_symmetry_1
_geom_bond_site_symmetry_2
Ag1 Ag2 1_555 1_555
Ag2 O2 1_555 1_555
O1 Ag1 1_555 1_555
O2 C8 1_555 1_555
O3 C1 1_555 1_555
O4 Ag1 1_555 1_555
N1 C5 1_555 1_555
N2 C12 1_555 1_555
C1 O4 1_555 1_555
C2 C1 1_555 1_555
C3 C2 1_555 1_555
C4 C3 1_555 1_555
C5 C4 1_555 1_555
C6 C5 1_555 1_555
C7 C2 1_555 1_555
C8 O1 1_555 1_555
C9 C8 1_555 1_555
C10 C9 1_555 1_555
C11 C10 1_555 1_555
C12 C11 1_555 1_555
C13 C12 1_555 1_555
C14 C9 1_555 1_555
H1 N1 1_555 1_555
H2 N1 1_555 1_555
H3 N2 1_555 1_555
H4 N2 1_555 1_555
H5 C3 1_555 1_555
H6 C4 1_555 1_555
H7 C6 1_555 1_555
H8 C7 1_555 1_555
H9 C10 1_555 1_555
H10 C11 1_555 1_555
H11 C13 1_555 1_555
H12 C14 1_555 1_555
Ag1B Ag1 1_555 1_555
O1B Ag1 1_555 1_555
N2A Ag1 1_555 1_555
Ag2B Ag2 1_555 1_555
O3_2 Ag2 1_555 1_555
O4B Ag2 1_555 1_555
N1C Ag2 1_555 1_555
Ag2_2 O3 1_555 1_555
Ag2B_2 O4 1_555 1_555
Ag2C N1 1_555 1_555
Ag1A N2 1_555 1_555
H3A N2A 1_555 1_555
H4A N2A 1_555 1_555
H1C N1C 1_555 1_555
H2C N1C 1_555 1_555
O1 Ag1B 1_555 1_555
C6 C7 1_555 1_555
C13 C14 1_555 1_555
Ag1B Ag2B_2 1_555 1_555
Ag1B O1B 1_555 1_555
Ag1B O4B 1_555 1_555
Ag2_2 Ag2B_2 1_555 1_555

#END
