
#######################################################################
#
#                 Cambridge Crystallographic Data Centre
#                                CCDC 
#
#######################################################################
#
# If this CIF has been generated from an entry in the Cambridge 
# Structural Database, then it will include bibliographic, chemical, 
# crystal, experimental, refinement or atomic coordinate data resulting 
# from the CCDC's data processing and validation procedures.
#
#######################################################################

data_AMEPOY
_symmetry_cell_setting           tetragonal
_symmetry_space_group_name_H-M   'I 41/a'
_symmetry_Int_Tables_number      88
_space_group_name_Hall           '-I 4ad'
loop_
_symmetry_equiv_pos_site_id
_symmetry_equiv_pos_as_xyz
1 x,y,z
2 1/2-x,-y,1/2+z
3 3/4-y,1/4+x,1/4+z
4 3/4+y,3/4-x,3/4+z
5 1/2+x,1/2+y,1/2+z
6 -x,1/2-y,z
7 1/4-y,3/4+x,3/4+z
8 1/4+y,1/4-x,1/4+z
9 -x,-y,-z
10 1/2+x,y,1/2-z
11 1/4+y,3/4-x,3/4-z
12 1/4-y,1/4+x,1/4-z
13 1/2-x,1/2-y,1/2-z
14 x,1/2+y,-z
15 3/4+y,1/4-x,1/4-z
16 3/4-y,3/4+x,3/4-z
_cell_length_a                   17.622(3)
_cell_length_b                   17.622(3)
_cell_length_c                   15.842(3)
_cell_angle_alpha                90
_cell_angle_beta                 90
_cell_angle_gamma                90
_cell_volume                     4919.49
loop_
_atom_site_label
_atom_site_type_symbol
_atom_site_fract_x
_atom_site_fract_y
_atom_site_fract_z
Cu1 Cu 0.42959(3) 0.53438(3) 0.06455(3)
C1 C 0.3687(17) 0.6449(17) -0.1923(11)
H1 H 0.3236 0.6180 -0.1760
H2 H 0.4089 0.6093 -0.2024
H3 H 0.3590 0.6733 -0.2428
C2 C 0.3906(14) 0.6960(12) -0.1256(7)
H4 H 0.4446 0.6913 -0.1148
H5 H 0.3804 0.7479 -0.1425
C3 C 0.3492(7) 0.6786(5) -0.0508(4)
H6 H 0.3452 0.6239 -0.0457
H7 H 0.2982 0.6986 -0.0564
C4 C 0.3859(3) 0.7115(3) 0.0344(3)
H8 H 0.4401 0.7019 0.0345
H9 H 0.3782 0.7660 0.0368
C5 C 0.3507(2) 0.6755(2) 0.1093(3)
C6 C 0.3157(2) 0.5916(2) 0.1969(3)
C7 C 0.3039(3) 0.5171(3) 0.2397(4)
H10 H 0.2713 0.5246 0.2883
H11 H 0.2779 0.4831 0.2012
C8 C 0.3752(6) 0.4809(6) 0.2677(8)
H12 H 0.3982 0.5123 0.3109
H13 H 0.4100 0.4790 0.2203
C9 C 0.3655(8) 0.4009(7) 0.3026(10)
H14 H 0.3405 0.4041 0.3570
H15 H 0.3325 0.3726 0.2650
C10 C 0.4290(18) 0.3631(15) 0.312(2)
H16 H 0.4607 0.3712 0.2632
H17 H 0.4180 0.3100 0.3172
H18 H 0.4549 0.3806 0.3614
N1 N 0.35705(19) 0.60087(19) 0.1260(2)
N2 N 0.30890(18) 0.7111(2) 0.1662(2)
N3 N 0.28620(18) 0.6563(2) 0.2234(2)
Cu1N Cu 0.28438(3) 0.82041(3) 0.18545(3)
Cu1B Cu 0.21562(3) 0.67959(3) 0.31455(3)
N2K N 0.5389(2) 0.55890(18) 0.0838(2)
N3C N 0.4063(2) 0.46380(18) -0.0266(2)
loop_
_geom_bond_atom_site_label_1
_geom_bond_atom_site_label_2
_geom_bond_site_symmetry_1
_geom_bond_site_symmetry_2
Cu1 N1 1_555 1_555
C1 H1 1_555 1_555
H2 C1 1_555 1_555
H3 C1 1_555 1_555
C2 C1 1_555 1_555
H4 C2 1_555 1_555
H5 C2 1_555 1_555
C3 C2 1_555 1_555
H6 C3 1_555 1_555
H7 C3 1_555 1_555
C4 C3 1_555 1_555
H8 C4 1_555 1_555
H9 C4 1_555 1_555
C5 C4 1_555 1_555
C6 C7 1_555 1_555
C7 H10 1_555 1_555
H11 C7 1_555 1_555
C8 C7 1_555 1_555
H12 C8 1_555 1_555
H13 C8 1_555 1_555
C9 C8 1_555 1_555
H14 C9 1_555 1_555
H15 C9 1_555 1_555
C10 C9 1_555 1_555
H16 C10 1_555 1_555
H17 C10 1_555 1_555
H18 C10 1_555 1_555
N1 C5 1_555 1_555
N2 C5 1_555 1_555
N3 C6 1_555 1_555
Cu1N N2 1_555 1_555
Cu1B N3 1_555 1_555
N2K Cu1 1_555 1_555
N3C Cu1 1_555 1_555
C6 N1 1_555 1_555
N2 N3 1_555 1_555

#END
