
#######################################################################
#
#                 Cambridge Crystallographic Data Centre
#                                CCDC 
#
#######################################################################
#
# If this CIF has been generated from an entry in the Cambridge 
# Structural Database, then it will include bibliographic, chemical, 
# crystal, experimental, refinement or atomic coordinate data resulting 
# from the CCDC's data processing and validation procedures.
#
#######################################################################

data_AMEQUF
_symmetry_cell_setting           orthorhombic
_symmetry_space_group_name_H-M   'P b c n'
_symmetry_Int_Tables_number      60
_space_group_name_Hall           '-P 2n 2ab'
loop_
_symmetry_equiv_pos_site_id
_symmetry_equiv_pos_as_xyz
1 x,y,z
2 1/2-x,1/2-y,1/2+z
3 -x,y,1/2-z
4 1/2+x,1/2-y,-z
5 -x,-y,-z
6 1/2+x,1/2+y,1/2-z
7 x,-y,1/2+z
8 1/2-x,1/2+y,z
_cell_length_a                   15.613(3)
_cell_length_b                   13.970(3)
_cell_length_c                   21.290(4)
_cell_angle_alpha                90
_cell_angle_beta                 90
_cell_angle_gamma                90
_cell_volume                     4643.64
loop_
_atom_site_label
_atom_site_type_symbol
_atom_site_fract_x
_atom_site_fract_y
_atom_site_fract_z
Ni1 Ni 0.15604(4) 0.38154(3) 0.10665(2)
N1 N 0.1380(2) 0.4821(3) 0.17930(17)
O1 O 0.1580(2) 0.2727(2) 0.04290(16)
N2 N 0.1327(2) 0.2926(3) 0.18507(17)
O2 O 0.2919(2) 0.3717(2) 0.12824(19)
O3 O 0.0217(2) 0.3921(2) 0.08664(17)
C1 C 0.1419(4) 0.5780(3) 0.1730(2)
H1 H 0.1550 0.6032 0.1337
C2 C 0.1154(3) 0.3386(3) 0.2388(2)
C3 C 0.1174(3) 0.4449(3) 0.2353(2)
O4 O 0.2950(3) 0.2395(3) 0.0372(2)
C4 C 0.2006(3) 0.1692(3) -0.0376(2)
H2 H 0.1405 0.1495 -0.0351
C5 C 0.2129(4) 0.2248(3) -0.0980(2)
H3 H 0.1703 0.2752 -0.1006
H4 H 0.2691 0.2544 -0.0982
C6 C 0.1005(3) 0.5029(4) 0.2862(2)
H5 H 0.0862 0.4764 0.3249
C7 C 0.2199(3) 0.2318(3) 0.0186(2)
C8 C 0.2561(3) 0.0786(3) -0.0394(2)
H6 H 0.3149 0.0970 -0.0501
C9 C 0.2045(4) 0.1600(4) -0.1533(3)
C10 C 0.1345(4) 0.1976(3) 0.1844(3)
H7 H 0.1478 0.1660 0.1472
C11 C 0.2074(4) 0.0664(4) -0.1501(2)
C12 C 0.2220(4) 0.0117(4) -0.0908(2)
H8 H 0.2630 -0.0392 -0.0984
H9 H 0.1687 -0.0171 -0.0771
C13 C 0.1171(4) 0.1446(4) 0.2374(3)
H10 H 0.1178 0.0781 0.2357
C14 C 0.0963(4) 0.2884(4) 0.2931(2)
H11 H 0.0818 0.3206 0.3299
C15 C 0.1050(4) 0.6016(4) 0.2788(3)
H12 H 0.0930 0.6418 0.3125
C16 C 0.1275(4) 0.6398(4) 0.2213(3)
H13 H 0.1326 0.7055 0.2158
C17 C 0.0993(4) 0.1896(4) 0.2917(3)
H14 H 0.0890 0.1544 0.3280
C18 C 0.2575(3) 0.0257(3) 0.0228(2)
O5 O 0.3226(2) -0.0222(2) 0.03457(15)
O6 O 0.1947(3) 0.0318(3) 0.05839(19)
H15 H 0.320(9) 0.335(6) 0.104(5)
H16 H 0.292(9) 0.427(3) 0.113(5)
H17 H -0.0180(12) 0.383(9) 0.046(2)
H18 H -0.0356(9) 0.369(8) 0.1069(13)
H19 H 0.211(9) 0.0313(15) -0.1867(11)
H20 H 0.234(8) 0.1894(17) -0.186(4)
Ni1G Ni 0.34396(4) -0.11846(3) 0.10665(2)
O5G O 0.1774(2) 0.4778(2) 0.03457(15)
O7 O 0.0581(3) 0.4377(3) -0.06255(17)
H21 H 0.077(9) 0.439(8) -0.025(3)
H22 H 0.053(11) 0.379(2) -0.073(6)
O8 O 0.4803(5) 0.5650(7) 0.0497(4)
H23 H 0.489(10) 0.515(6) 0.073(5)
H24 H 0.489(12) 0.615(5) 0.072(5)
O9 O 0.4631(5) 0.2294(7) 0.0053(5)
H25 H 0.438(9) 0.267(9) -0.029(3)
H26 H 0.426(8) 0.183(6) 0.011(5)
loop_
_geom_bond_atom_site_label_1
_geom_bond_atom_site_label_2
_geom_bond_site_symmetry_1
_geom_bond_site_symmetry_2
Ni1 N1 1_555 1_555
N1 C1 1_555 1_555
O1 Ni1 1_555 1_555
N2 Ni1 1_555 1_555
O2 Ni1 1_555 1_555
O3 Ni1 1_555 1_555
C1 H1 1_555 1_555
C2 N2 1_555 1_555
C3 N1 1_555 1_555
O4 C7 1_555 1_555
C4 H2 1_555 1_555
C5 C4 1_555 1_555
H3 C5 1_555 1_555
H4 C5 1_555 1_555
C6 C3 1_555 1_555
H5 C6 1_555 1_555
C7 O1 1_555 1_555
C8 C4 1_555 1_555
H6 C8 1_555 1_555
C9 C5 1_555 1_555
C10 N2 1_555 1_555
H7 C10 1_555 1_555
C11 C9 1_555 1_555
C12 C8 1_555 1_555
H8 C12 1_555 1_555
H9 C12 1_555 1_555
C13 C10 1_555 1_555
H10 C13 1_555 1_555
C14 C2 1_555 1_555
H11 C14 1_555 1_555
C15 C6 1_555 1_555
H12 C15 1_555 1_555
C16 C1 1_555 1_555
H13 C16 1_555 1_555
C17 C13 1_555 1_555
H14 C17 1_555 1_555
C18 C8 1_555 1_555
O5 C18 1_555 1_555
O6 C18 1_555 1_555
H15 O2 1_555 1_555
H16 O2 1_555 1_555
H17 O3 1_555 1_555
H18 O3 1_555 1_555
H19 C11 1_555 1_555
H20 C9 1_555 1_555
O7 H21 1_555 1_555
H22 O7 1_555 1_555
O8 H23 1_555 1_555
H24 O8 1_555 1_555
O9 H25 1_555 1_555
H26 O9 1_555 1_555
Ni1G O5 1_555 1_555
O5G Ni1 1_555 1_555
C2 C3 1_555 1_555
C4 C7 1_555 1_555
C11 C12 1_555 1_555
C14 C17 1_555 1_555
C15 C16 1_555 1_555

#END
