
#######################################################################
#
#                 Cambridge Crystallographic Data Centre
#                                CCDC 
#
#######################################################################
#
# If this CIF has been generated from an entry in the Cambridge 
# Structural Database, then it will include bibliographic, chemical, 
# crystal, experimental, refinement or atomic coordinate data resulting 
# from the CCDC's data processing and validation procedures.
#
#######################################################################

data_AMIMUE
_symmetry_cell_setting           triclinic
_symmetry_space_group_name_H-M   'P -1'
_symmetry_Int_Tables_number      2
_space_group_name_Hall           '-P 1'
loop_
_symmetry_equiv_pos_site_id
_symmetry_equiv_pos_as_xyz
1 x,y,z
2 -x,-y,-z
_cell_length_a                   8.582(4)
_cell_length_b                   12.239(5)
_cell_length_c                   12.439(5)
_cell_angle_alpha                99.029(4)
_cell_angle_beta                 91.210(4)
_cell_angle_gamma                93.000(6)
_cell_volume                     1288
loop_
_atom_site_label
_atom_site_type_symbol
_atom_site_fract_x
_atom_site_fract_y
_atom_site_fract_z
Cd1 Cd -0.06702(4) 1.23865(2) 1.01043(3)
Cd2 Cd -0.31798(4) 1.90383(3) 0.99666(3)
O1 O -0.2606(4) 1.3166(3) 0.9211(3)
O2 O -0.0251(4) 1.3964(3) 0.9078(3)
O3 O 0.0032(4) 1.5836(2) 0.8334(2)
H1 H 0.0414 1.5419 0.8745
O4 O 0.0382(4) 2.1211(2) 0.8642(3)
O5 O -0.1561(4) 2.0424(2) 0.9449(2)
O6 O -0.1462(3) 1.8043(2) 0.8999(2)
O7 O -0.5075(4) 1.9290(3) 0.8747(3)
O8 O -0.2486(4) 1.2272(3) 1.1446(3)
H2 H -0.3025 1.1671 1.1455
H3 H -0.2608 1.2830 1.1932
O9 O -0.4325(5) 1.7110(3) 0.9887(3)
H4 H -0.4016 1.6594 0.9415
H5 H -0.5023 1.6969 1.0329
N1 N -0.6082(5) 2.0858(3) 0.8330(3)
C1 C -0.2116(5) 1.6334(3) 0.7285(3)
C2 C -0.1482(5) 1.5618(3) 0.7925(3)
C3 C -0.2408(5) 1.4685(3) 0.8193(3)
C4 C -0.3958(6) 1.4497(4) 0.7818(4)
H6 H -0.4573 1.3880 0.8005
C5 C -0.6272(6) 1.5061(4) 0.6821(5)
H7 H -0.6877 1.4450 0.7028
C6 C -0.6944(7) 1.5767(5) 0.6226(5)
H8 H -0.8036 1.5663 0.6031
C7 C -0.6017(7) 1.6656(4) 0.5900(5)
H9 H -0.6472 1.7138 0.5458
C8 C -0.4464(6) 1.6834(4) 0.6218(4)
H10 H -0.3861 1.7432 0.5985
C9 C -0.3709(5) 1.6130(3) 0.6880(3)
C10 C -0.4647(6) 1.5221(4) 0.7169(4)
C11 C -0.1215(5) 1.7389(3) 0.7105(3)
C12 C -0.1060(5) 1.8250(3) 0.8001(3)
C13 C -0.0420(5) 1.9340(3) 0.7845(3)
C14 C 0.0228(5) 1.9465(4) 0.6856(3)
H11 H 0.0699 2.0173 0.6768
C15 C 0.0887(6) 1.8709(4) 0.4932(4)
H12 H 0.1405 1.9404 0.4850
C16 C 0.0803(6) 1.7855(4) 0.4057(4)
H13 H 0.1258 1.7955 0.3378
C17 C 0.0011(7) 1.6834(4) 0.4166(4)
H14 H -0.0031 1.6239 0.3561
C18 C -0.0654(6) 1.6664(4) 0.5144(4)
H15 H -0.1198 1.5968 0.5189
C19 C -0.0577(5) 1.7534(3) 0.6077(3)
C20 C 0.0207(5) 1.8585(4) 0.5964(3)
C21 C -0.1713(6) 1.3891(3) 0.8864(4)
C22 C -0.0531(5) 2.0366(3) 0.8696(3)
C23 C -0.5147(6) 2.0001(4) 0.8043(4)
C24 C -0.4344(6) 1.9913(5) 0.7047(4)
H16 H -0.3622 1.9346 0.6860
C25 C -0.4608(8) 2.0676(6) 0.6360(5)
H17 H -0.4089 2.0627 0.5679
C26 C -0.5635(8) 2.1526(6) 0.6636(5)
H18 H -0.5828 2.2046 0.6152
C27 C -0.6347(7) 2.1586(5) 0.7625(5)
H19 H -0.7068 2.2151 0.7826
O4_2 O 0.0382(4) 1.1211(2) 0.8642(3)
O5_2 O -0.1561(4) 1.0424(2) 0.9449(2)
O6A O 0.1462(3) 1.1957(2) 1.1001(2)
N1A N -0.3918(5) 1.9142(3) 1.1670(3)
Cd1_2 Cd -0.06702(4) 2.23865(2) 1.01043(3)
Cd1A Cd 0.06702(4) 1.76135(2) 0.98957(3)
Cd2A Cd -0.68202(4) 2.09617(3) 1.00334(3)
loop_
_geom_bond_atom_site_label_1
_geom_bond_atom_site_label_2
_geom_bond_site_symmetry_1
_geom_bond_site_symmetry_2
Cd1 O1 1_555 1_555
Cd2 O5 1_555 1_555
O1 C21 1_555 1_555
O2 Cd1 1_555 1_555
O3 H1 1_555 1_555
O4 C22 1_555 1_555
O5 C22 1_555 1_555
O6 Cd2 1_555 1_555
O7 Cd2 1_555 1_555
O8 Cd1 1_555 1_555
H2 O8 1_555 1_555
H3 O8 1_555 1_555
O9 Cd2 1_555 1_555
H4 O9 1_555 1_555
H5 O9 1_555 1_555
N1 C23 1_555 1_555
C1 C2 1_555 1_555
C2 O3 1_555 1_555
C3 C2 1_555 1_555
C4 C3 1_555 1_555
H6 C4 1_555 1_555
C5 H7 1_555 1_555
C6 C5 1_555 1_555
H8 C6 1_555 1_555
C7 C6 1_555 1_555
H9 C7 1_555 1_555
C8 C7 1_555 1_555
H10 C8 1_555 1_555
C9 C1 1_555 1_555
C10 C4 1_555 1_555
C11 C1 1_555 1_555
C12 O6 1_555 1_555
C13 C12 1_555 1_555
C14 C13 1_555 1_555
H11 C14 1_555 1_555
C15 H12 1_555 1_555
C16 C15 1_555 1_555
H13 C16 1_555 1_555
C17 C16 1_555 1_555
H14 C17 1_555 1_555
C18 C17 1_555 1_555
H15 C18 1_555 1_555
C19 C11 1_555 1_555
C20 C14 1_555 1_555
C21 O2 1_555 1_555
C22 C13 1_555 1_555
C23 O7 1_555 1_555
C24 C23 1_555 1_555
H16 C24 1_555 1_555
C25 C24 1_555 1_555
H17 C25 1_555 1_555
C26 C25 1_555 1_555
H18 C26 1_555 1_555
C27 N1 1_555 1_555
H19 C27 1_555 1_555
O4_2 Cd1 1_555 1_555
O5_2 Cd1 1_555 1_555
O6A Cd1 1_555 1_555
N1A Cd2 1_555 1_555
Cd1_2 O4 1_555 1_555
Cd1A O6 1_555 1_555
Cd2A N1 1_555 1_555
O5 Cd1_2 1_555 1_555
C3 C21 1_555 1_555
C5 C10 1_555 1_555
C8 C9 1_555 1_555
C9 C10 1_555 1_555
C11 C12 1_555 1_555
C15 C20 1_555 1_555
C18 C19 1_555 1_555
C19 C20 1_555 1_555
C26 C27 1_555 1_555

#END
