
#######################################################################
#
#                 Cambridge Crystallographic Data Centre
#                                CCDC 
#
#######################################################################
#
# If this CIF has been generated from an entry in the Cambridge 
# Structural Database, then it will include bibliographic, chemical, 
# crystal, experimental, refinement or atomic coordinate data resulting 
# from the CCDC's data processing and validation procedures.
#
#######################################################################

data_AMINUF
_symmetry_cell_setting           triclinic
_symmetry_space_group_name_H-M   'P -1'
_symmetry_Int_Tables_number      2
_space_group_name_Hall           '-P 1'
loop_
_symmetry_equiv_pos_site_id
_symmetry_equiv_pos_as_xyz
1 x,y,z
2 -x,-y,-z
_cell_length_a                   9.4185(11)
_cell_length_b                   10.2030(12)
_cell_length_c                   12.3617(15)
_cell_angle_alpha                106.223(2)
_cell_angle_beta                 93.856(2)
_cell_angle_gamma                116.698(2)
_cell_volume                     992.952
loop_
_atom_site_label
_atom_site_type_symbol
_atom_site_fract_x
_atom_site_fract_y
_atom_site_fract_z
Cu1 Cu 0.35716(5) 0.02614(5) 0.42589(4)
Cl1 Cl 0.36022(11) -0.20081(10) 0.40832(8)
O1 O 0.4602(3) 0.0541(3) 0.2983(2)
O2 O 0.2117(3) -0.0962(4) 0.1874(3)
O3 O 0.0841(6) 0.5735(5) 0.6293(4)
O4 O 0.0465(5) 0.5253(4) 0.7813(4)
N1 N 0.3133(3) 0.2082(3) 0.4399(3)
N2 N 0.2317(3) 0.0137(3) 0.5534(2)
N3 N 0.0814(4) 0.5005(4) 0.6900(4)
C1 C 0.3545(5) 0.3004(5) 0.3779(4)
C2 C 0.3218(5) 0.4247(5) 0.3989(4)
C3 C 0.2487(5) 0.4553(5) 0.4856(4)
C4 C 0.2020(4) 0.3605(4) 0.5533(3)
C5 C 0.1207(4) 0.3707(4) 0.6464(3)
C6 C 0.0732(4) 0.2683(4) 0.7043(3)
C7 C 0.1086(4) 0.1428(4) 0.6755(3)
C8 C 0.0666(5) 0.0332(5) 0.7311(4)
C9 C 0.1090(5) -0.0809(5) 0.6984(4)
C10 C 0.1926(4) -0.0869(4) 0.6102(3)
C11 C 0.1926(4) 0.1281(4) 0.5869(3)
C12 C 0.2376(4) 0.2356(4) 0.5247(3)
C13 C 0.3604(5) -0.0196(5) 0.2010(4)
C14 C 0.4328(4) -0.0087(4) 0.0970(3)
C15 C 0.5967(5) 0.0940(5) 0.1082(4)
C16 C 0.3388(5) -0.1021(5) -0.0128(4)
H8 H 0.409(4) 0.275(3) 0.316(3)
H9 H 0.365(6) 0.478(6) 0.351(4)
H10 H 0.238(5) 0.542(4) 0.520(4)
H11 H 0.026(5) 0.299(5) 0.776(4)
H12 H 0.006(4) 0.041(5) 0.784(3)
H13 H 0.067(5) -0.168(4) 0.719(4)
H14 H 0.220(4) -0.175(4) 0.580(3)
H15 H 0.669(5) 0.176(5) 0.185(4)
H16 H 0.230(3) -0.165(5) -0.025(4)
C16A C 0.6612(5) 0.1021(5) 0.0128(4)
C14A C 0.5672(4) 0.0087(4) -0.0970(3)
C13A C 0.6396(5) 0.0196(5) -0.2010(4)
O1A O 0.5398(3) -0.0541(3) -0.2983(2)
O2A O 0.7883(3) 0.0962(4) -0.1874(3)
C15A C 0.4033(5) -0.0940(5) -0.1082(4)
H15A H 0.331(5) -0.176(5) -0.185(4)
H16A H 0.770(3) 0.165(5) 0.025(4)
Cl1A Cl 0.63978(11) 0.20081(10) 0.59168(8)
Cu1A Cu 0.64284(5) -0.02614(5) 0.57411(4)
O3A O 0.9159(6) -0.5735(5) 0.3707(4)
O4A O 0.9535(5) -0.5253(4) 0.2187(4)
N1A N 0.6867(3) -0.2082(3) 0.5601(3)
N2A N 0.7683(3) -0.0137(3) 0.4466(2)
N3A N 0.9186(4) -0.5005(4) 0.3100(4)
C1A C 0.6455(5) -0.3004(5) 0.6221(4)
C2A C 0.6782(5) -0.4247(5) 0.6011(4)
C3A C 0.7513(5) -0.4553(5) 0.5144(4)
C4A C 0.7980(4) -0.3605(4) 0.4467(3)
C5A C 0.8793(4) -0.3707(4) 0.3536(3)
C6A C 0.9268(4) -0.2683(4) 0.2957(3)
C7A C 0.8914(4) -0.1428(4) 0.3245(3)
C8A C 0.9334(5) -0.0332(5) 0.2689(4)
C9A C 0.8910(5) 0.0809(5) 0.3016(4)
C10A C 0.8074(4) 0.0869(4) 0.3898(3)
C11A C 0.8074(4) -0.1281(4) 0.4131(3)
C12A C 0.7624(4) -0.2356(4) 0.4753(3)
H8A H 0.591(4) -0.275(3) 0.684(3)
H9A H 0.635(6) -0.478(6) 0.649(4)
H10A H 0.762(5) -0.542(4) 0.480(4)
H11A H 0.974(5) -0.299(5) 0.224(4)
H12A H 0.994(4) -0.041(5) 0.216(3)
H13A H 0.933(5) 0.168(4) 0.281(4)
H14A H 0.780(4) 0.175(4) 0.420(3)
Cu1A_2 Cu 0.64284(5) -0.02614(5) -0.42589(4)
O1A_2 O 0.5398(3) -0.0541(3) 0.7017(2)
O5 O 0.4639(8) 0.5256(11) 0.8090(6)
N4 N 0.6739(9) 0.5367(9) 0.9093(5)
C17 C 0.5454(15) 0.470(3) 0.8513(10)
H1 H 0.4928 0.3615 0.8318
C18 C 0.7610(18) 0.7020(14) 0.9382(10)
H2 H 0.8661 0.7437 0.9870
H3 H 0.7010 0.7472 0.9783
H4 H 0.7747 0.7265 0.8688
C19 C 0.7571(17) 0.4681(17) 0.9510(10)
H5 H 0.6792 0.3714 0.9577
H6 H 0.8274 0.5382 1.0254
H7 H 0.8211 0.4482 0.8980
loop_
_geom_bond_atom_site_label_1
_geom_bond_atom_site_label_2
_geom_bond_site_symmetry_1
_geom_bond_site_symmetry_2
Cu1 Cl1 1_555 1_555
Cl1 Cu1A 1_555 1_555
O1 Cu1 1_555 1_555
O2 C13 1_555 1_555
O3 N3 1_555 1_555
O4 N3 1_555 1_555
O5 C17 1_555 1_555
N1 Cu1 1_555 1_555
N2 Cu1 1_555 1_555
N3 C5 1_555 1_555
N4 C17 1_555 1_555
C1 N1 1_555 1_555
C2 C1 1_555 1_555
C3 C2 1_555 1_555
C4 C3 1_555 1_555
C5 C4 1_555 1_555
C6 C5 1_555 1_555
C7 C6 1_555 1_555
C8 C7 1_555 1_555
C9 C8 1_555 1_555
C10 N2 1_555 1_555
C11 N2 1_555 1_555
C12 N1 1_555 1_555
C13 O1 1_555 1_555
C14 C13 1_555 1_555
C15 C14 1_555 1_555
C16 C14 1_555 1_555
C17 H1 1_555 1_555
C18 N4 1_555 1_555
H2 C18 1_555 1_555
H3 C18 1_555 1_555
H4 C18 1_555 1_555
C19 N4 1_555 1_555
H5 C19 1_555 1_555
H6 C19 1_555 1_555
H7 C19 1_555 1_555
H8 C1 1_555 1_555
H9 C2 1_555 1_555
H10 C3 1_555 1_555
H11 C6 1_555 1_555
H12 C8 1_555 1_555
H13 C9 1_555 1_555
H14 C10 1_555 1_555
H15 C15 1_555 1_555
H16 C16 1_555 1_555
C16A C15 1_555 1_555
C14A C16A 1_555 1_555
C13A C14A 1_555 1_555
O1A C13A 1_555 1_555
O2A C13A 1_555 1_555
C15A C16 1_555 1_555
H15A C15A 1_555 1_555
H16A C16A 1_555 1_555
Cl1A Cu1 1_555 1_555
Cu1A Cl1A 1_555 1_555
O3A N3A 1_555 1_555
O4A N3A 1_555 1_555
N1A Cu1A 1_555 1_555
N2A Cu1A 1_555 1_555
N3A C5A 1_555 1_555
C1A N1A 1_555 1_555
C2A C1A 1_555 1_555
C3A C2A 1_555 1_555
C4A C3A 1_555 1_555
C5A C4A 1_555 1_555
C6A C5A 1_555 1_555
C7A C6A 1_555 1_555
C8A C7A 1_555 1_555
C9A C8A 1_555 1_555
C10A N2A 1_555 1_555
C11A N2A 1_555 1_555
C12A N1A 1_555 1_555
H8A C1A 1_555 1_555
H9A C2A 1_555 1_555
H10A C3A 1_555 1_555
H11A C6A 1_555 1_555
H12A C8A 1_555 1_555
H13A C9A 1_555 1_555
H14A C10A 1_555 1_555
Cu1A_2 O1A 1_555 1_555
O1A_2 Cu1A 1_555 1_555
C4 C12 1_555 1_555
C7 C11 1_555 1_555
C9 C10 1_555 1_555
C11 C12 1_555 1_555
C14A C15A 1_555 1_555
C4A C12A 1_555 1_555
C7A C11A 1_555 1_555
C9A C10A 1_555 1_555
C11A C12A 1_555 1_555

#END
