
#######################################################################
#
#                 Cambridge Crystallographic Data Centre
#                                CCDC 
#
#######################################################################
#
# If this CIF has been generated from an entry in the Cambridge 
# Structural Database, then it will include bibliographic, chemical, 
# crystal, experimental, refinement or atomic coordinate data resulting 
# from the CCDC's data processing and validation procedures.
#
#######################################################################

data_AMIXAW
_symmetry_cell_setting           monoclinic
_symmetry_space_group_name_H-M   'P 21/n'
_symmetry_Int_Tables_number      14
_space_group_name_Hall           '-P 2yn'
loop_
_symmetry_equiv_pos_site_id
_symmetry_equiv_pos_as_xyz
1 x,y,z
2 1/2-x,1/2+y,1/2-z
3 -x,-y,-z
4 1/2+x,1/2-y,1/2+z
_cell_length_a                   10.8074(4)
_cell_length_b                   14.2571(5)
_cell_length_c                   13.2023(5)
_cell_angle_alpha                90
_cell_angle_beta                 90.402(3)
_cell_angle_gamma                90
_cell_volume                     2034.19
loop_
_atom_site_label
_atom_site_type_symbol
_atom_site_fract_x
_atom_site_fract_y
_atom_site_fract_z
Dy1 Dy 0.24459(2) 0.217980(14) 0.214141(16)
Dy2 Dy 0.00627(2) -0.138220(15) 0.132330(17)
O1 O 0.2129(3) 0.1087(3) 0.0850(3)
O2 O 0.2067(3) -0.0936(3) 0.0943(3)
O3 O 0.3660(3) 0.3599(2) 0.2123(3)
O4 O 0.5062(4) 0.5033(2) 0.2828(3)
O5 O 0.3574(3) -0.1759(3) 0.1709(3)
O6 O 0.1793(3) 0.0588(3) -0.0729(3)
O7 O 0.3863(4) 0.2696(3) 0.0796(3)
O8 O 0.3926(5) 0.0982(3) 0.2599(3)
O9 O 0.0362(4) -0.1155(3) -0.0426(3)
O10 O 0.6067(4) 0.2405(3) 0.4451(3)
O11 O 0.3971(5) 0.6208(3) 0.2211(3)
O12 O 0.6085(4) 0.2120(3) 0.6117(3)
O13 O -0.1136(4) -0.1925(4) 0.2594(3)
C1 C 0.4567(5) 0.5464(3) 0.2109(4)
C2 C 0.2466(4) 0.0675(3) 0.0062(4)
C3 C 0.3767(4) 0.0287(3) 0.0025(4)
C4 C 0.4120(4) -0.0520(3) 0.0561(4)
C5 C 0.4031(5) 0.3471(4) 0.1209(4)
C6 C 0.4769(5) 0.5168(3) 0.1026(4)
C7 C 0.3193(4) -0.1114(3) 0.1124(4)
C8 C 0.4567(5) 0.4270(4) 0.0631(4)
C9 C 0.4635(4) 0.0796(3) -0.0520(4)
H1 H 0.4385 0.1333 -0.0865
C10 C 0.4133(5) 0.1301(3) 0.3457(4)
C11 C 0.4813(5) 0.4121(4) -0.0393(4)
H2 H 0.4693 0.3524 -0.0661
C12 C 0.5891(5) 0.1902(4) 0.5208(4)
C13 C 0.4259(5) -0.0270(4) 0.4201(4)
H3 H 0.3761 -0.0458 0.3661
C14 C 0.5395(5) 0.0926(3) 0.5071(4)
S1 S -0.2340(4) -0.2396(4) 0.2784(4)
C15 C -0.258(2) -0.2189(13) 0.4089(16)
C16 C 0.4641(5) 0.0664(4) 0.4263(4)
O14 O 0.3801(4) 0.2151(2) 0.3665(3)
C17 C -0.206(2) -0.3631(17) 0.2829(19)
Dy1B Dy 0.75541(2) -0.217980(14) -0.214141(16)
Dy1A Dy 0.25541(2) -0.282020(14) 0.285859(16)
Dy1A_2 Dy 0.25541(2) 0.717980(14) 0.285859(16)
Dy1C Dy 0.74459(2) 0.282020(14) 0.714141(16)
Dy1C_2 Dy 0.74459(2) 0.282020(14) -0.285859(16)
Dy1B_2 Dy 0.75541(2) 0.782020(14) -0.214141(16)
Dy1B_3 Dy 0.75541(2) -0.217980(14) 0.785859(16)
Dy2B Dy 0.99373(2) 0.138220(15) -0.132330(17)
Dy2A Dy 0.49373(2) 0.361780(15) 0.367670(17)
Dy2B_2 Dy -0.00627(2) 0.138220(15) -0.132330(17)
Dy2_2 Dy 1.00627(2) -0.138220(15) 0.132330(17)
Dy2C Dy 0.50627(2) 0.638220(15) -0.367670(17)
Dy2C_2 Dy 0.50627(2) -0.361780(15) 0.632330(17)
O1B O 0.7871(3) -0.1087(3) -0.0850(3)
O2B O 0.7933(3) 0.0936(3) -0.0943(3)
O3B O 0.6340(3) 0.6401(2) -0.2123(3)
O3A O 0.1340(3) -0.1401(2) 0.2877(3)
O3B_2 O 0.6340(3) -0.3599(2) -0.2123(3)
O3C O 0.8660(3) 0.1401(2) -0.2877(3)
O4B O 0.4938(4) 0.4967(2) -0.2828(3)
O4A O -0.0062(4) 0.0033(2) 0.2172(3)
O4C O 1.0062(4) -0.0033(2) -0.2172(3)
O5B O 0.6426(3) 0.1759(3) -0.1709(3)
O5A O 0.1426(3) 0.3241(3) 0.3291(3)
O5C O 0.8574(3) -0.3241(3) -0.3291(3)
O6B O 0.8207(3) -0.0588(3) 0.0729(3)
O6B_2 O -0.1793(3) -0.0588(3) 0.0729(3)
O6_2 O 1.1793(3) 0.0588(3) -0.0729(3)
O7B O 0.6137(4) 0.7304(3) -0.0796(3)
O7B_2 O 0.6137(4) -0.2696(3) -0.0796(3)
O8B O 0.6074(5) -0.0982(3) 0.7401(3)
O8B_2 O 0.6074(5) -0.0982(3) -0.2599(3)
O9B O 0.9638(4) 0.1155(3) 0.0426(3)
O10B O 0.3933(4) -0.2405(3) 0.5549(3)
O10A O -0.1067(4) -0.2595(3) 0.0549(3)
O10C O 1.1067(4) 0.2595(3) -0.0549(3)
O11B O 0.6029(5) 0.3792(3) -0.2211(3)
O11A O 0.1029(5) 0.1208(3) 0.2789(3)
O11C O 0.8971(5) -0.1208(3) -0.2789(3)
O12B O 0.3915(4) -0.2120(3) 0.3883(3)
O12C O 0.1085(4) 0.2880(3) 0.1117(3)
O12A O 0.8915(4) -0.2880(3) -0.1117(3)
O13B O 1.1136(4) 0.1925(4) -0.2594(3)
C1B C 0.5433(5) 0.4536(3) -0.2109(4)
C2B C 0.7534(4) -0.0675(3) -0.0062(4)
C3B C 0.6233(4) -0.0287(3) -0.0025(4)
C4B C 0.5880(4) 0.0520(3) -0.0561(4)
C5B C 0.5969(5) 0.6529(4) -0.1209(4)
C6B C 0.5231(5) 0.4832(3) -0.1026(4)
C7B C 0.6807(4) 0.1114(3) -0.1124(4)
C8B C 0.5433(5) 0.5730(4) -0.0631(4)
C9B C 0.5365(4) -0.0796(3) 0.0520(4)
H1B H 0.5615 -0.1333 0.0865
C10B C 0.5867(5) -0.1301(3) 0.6543(4)
C11B C 0.5187(5) 0.5879(4) 0.0393(4)
H2B H 0.5307 0.6476 0.0661
C12B C 0.4109(5) -0.1902(4) 0.4792(4)
C13B C 0.5741(5) 0.0270(4) 0.5799(4)
H3B H 0.6239 0.0458 0.6339
C14B C 0.4605(5) -0.0926(3) 0.4929(4)
S1B S 1.2340(4) 0.2396(4) -0.2784(4)
C15B C 1.258(2) 0.2189(13) -0.4089(16)
C16B C 0.5359(5) -0.0664(4) 0.5737(4)
O14B O 0.6199(4) -0.2151(2) 0.6335(3)
O14A O 0.1199(4) -0.2849(2) 0.1335(3)
O14B_2 O 0.6199(4) -0.2151(2) -0.3665(3)
O14C O 0.8801(4) 0.2849(2) -0.1335(3)
C17B C 1.206(2) 0.3631(17) -0.2829(19)
loop_
_geom_bond_atom_site_label_1
_geom_bond_atom_site_label_2
_geom_bond_site_symmetry_1
_geom_bond_site_symmetry_2
Dy1 O1 1_555 1_555
Dy2 O2 1_555 1_555
O1 C2 1_555 1_555
O2 C7 1_555 1_555
O3 Dy1 1_555 1_555
O4 C1 1_555 1_555
O5 C7 1_555 1_555
O6 C2 1_555 1_555
O7 Dy1 1_555 1_555
O8 Dy1 1_555 1_555
O9 Dy2 1_555 1_555
O10 C12 1_555 1_555
O11 C1 1_555 1_555
O12 C12 1_555 1_555
O13 Dy2 1_555 1_555
C1 C6 1_555 1_555
C2 C3 1_555 1_555
C3 C4 1_555 1_555
C4 C7 1_555 1_555
C5 O3 1_555 1_555
C6 C8 1_555 1_555
C8 C5 1_555 1_555
C9 C3 1_555 1_555
H1 C9 1_555 1_555
C10 O8 1_555 1_555
C11 C8 1_555 1_555
H2 C11 1_555 1_555
C12 C14 1_555 1_555
C13 H3 1_555 1_555
C14 C16 1_555 1_555
S1 O13 1_555 1_555
C15 S1 1_555 1_555
C16 C10 1_555 1_555
O14 Dy1 1_555 1_555
C17 S1 1_555 1_555
Dy1B O1B 1_555 1_555
Dy1A O5 1_555 1_555
Dy1A_2 O11 1_555 1_555
Dy1C O12 1_555 1_555
Dy1C_2 O3C 1_555 1_555
Dy1B_2 O3B 1_555 1_555
Dy1B_3 O8B 1_555 1_555
Dy2B O2B 1_555 1_555
Dy2A O3 1_555 1_555
Dy2B_2 O6 1_555 1_555
Dy2_2 O6B 1_555 1_555
Dy2C O3B 1_555 1_555
Dy2C_2 O10B 1_555 1_555
O1B C2B 1_555 1_555
O2B C7B 1_555 1_555
O3B C5B 1_555 1_555
O3A Dy2 1_555 1_555
O3B_2 Dy1B 1_555 1_555
O3C Dy2B 1_555 1_555
O4B Dy2C 1_555 1_555
O4A Dy2 1_555 1_555
O4C Dy2B 1_555 1_555
O5B Dy1C_2 1_555 1_555
O5A Dy1 1_555 1_555
O5C Dy1B 1_555 1_555
O6B C2B 1_555 1_555
O6B_2 Dy2 1_555 1_555
O6_2 Dy2B 1_555 1_555
O7B Dy1B_2 1_555 1_555
O7B_2 Dy1B 1_555 1_555
O8B C10B 1_555 1_555
O8B_2 Dy1B 1_555 1_555
O9B Dy2B 1_555 1_555
O10B C12B 1_555 1_555
O10A Dy2 1_555 1_555
O10C Dy2B 1_555 1_555
O11B Dy1C_2 1_555 1_555
O11A Dy1 1_555 1_555
O11C Dy1B 1_555 1_555
O12B Dy1A 1_555 1_555
O12C Dy1 1_555 1_555
O12A Dy1B 1_555 1_555
O13B Dy2B 1_555 1_555
C1B O4B 1_555 1_555
C2B C3B 1_555 1_555
C3B C4B 1_555 1_555
C4B C9 1_555 1_555
C5B O7B 1_555 1_555
C6B C11 1_555 1_555
C7B O5B 1_555 1_555
C8B C5B 1_555 1_555
C9B C4 1_555 1_555
H1B C9B 1_555 1_555
C10B C16B 1_555 1_555
C11B C6 1_555 1_555
H2B C11B 1_555 1_555
C12B O12B 1_555 1_555
C13B C14 1_555 1_555
H3B C13B 1_555 1_555
C14B C13 1_555 1_555
S1B O13B 1_555 1_555
C15B S1B 1_555 1_555
C16B C13B 1_555 1_555
O14B Dy1B_3 1_555 1_555
O14A Dy2 1_555 1_555
O14B_2 Dy1B 1_555 1_555
O14C Dy1C_2 1_555 1_555
C17B S1B 1_555 1_555
O4 Dy2A 1_555 1_555
O7 C5 1_555 1_555
O10 Dy2A 1_555 1_555
C10 O14 1_555 1_555
C13 C16 1_555 1_555
O14 Dy2A 1_555 1_555
Dy1A O3A 1_555 1_555
Dy1A O14A 1_555 1_555
Dy2B O14C 1_555 1_555
Dy2C_2 O14B 1_555 1_555
O11B C1B 1_555 1_555
C1B C6B 1_555 1_555
C3B C9B 1_555 1_555
C4B C7B 1_555 1_555
C6B C8B 1_555 1_555
C8B C11B 1_555 1_555
C10B O14B 1_555 1_555
C12B C14B 1_555 1_555
C14B C16B 1_555 1_555

#END
