
#######################################################################
#
#                 Cambridge Crystallographic Data Centre
#                                CCDC 
#
#######################################################################
#
# If this CIF has been generated from an entry in the Cambridge 
# Structural Database, then it will include bibliographic, chemical, 
# crystal, experimental, refinement or atomic coordinate data resulting 
# from the CCDC's data processing and validation procedures.
#
#######################################################################

data_AMIYEB01
_symmetry_cell_setting           triclinic
_symmetry_space_group_name_H-M   'P -1'
_symmetry_Int_Tables_number      2
_space_group_name_Hall           '-P 1'
loop_
_symmetry_equiv_pos_site_id
_symmetry_equiv_pos_as_xyz
1 x,y,z
2 -x,-y,-z
_cell_length_a                   7.549(3)
_cell_length_b                   10.072(4)
_cell_length_c                   10.470(4)
_cell_angle_alpha                87.810(4)
_cell_angle_beta                 82.531(4)
_cell_angle_gamma                86.306(4)
_cell_volume                     787.318
loop_
_atom_site_label
_atom_site_type_symbol
_atom_site_fract_x
_atom_site_fract_y
_atom_site_fract_z
Yb1 Yb 0.77916(4) 0.73511(3) -0.04744(3)
O1 O 0.7770(8) 0.7559(6) 0.1745(6)
O2 O 0.7351(9) 0.5534(6) 0.1230(6)
O3 O 0.7927(9) 0.5690(6) 0.8215(6)
O4 O 0.7617(11) 0.3580(6) 0.7809(6)
O5 O 0.6379(8) 0.8528(7) -0.2031(6)
O6 O 0.3437(8) 0.8524(7) -0.1807(6)
O7 O 0.9932(8) 0.8200(6) -0.2126(6)
H1 H 0.9740 0.9041 -0.2161
H2 H 1.1015 0.8299 -0.2029
O8 O 0.7981(11) 0.9573(7) -0.0024(7)
H3 H 0.8357 1.0077 -0.0632
H4 H 0.7421 0.9998 0.0579
O9 O 1.0701(7) 0.6593(6) -0.0134(6)
H5 H 1.1353 0.6027 -0.0555
H6 H 1.0814 0.6516 0.0645
O10 O 0.4800(8) 0.7305(8) 0.0178(7)
H7 H 0.4144 0.7664 -0.0329
H8 H 0.4216 0.6873 0.0759
C1 C 0.7566(12) 0.5926(8) 0.3473(8)
C2 C 0.7848(14) 0.6835(10) 0.4360(9)
H11 H 0.7986 0.7718 0.4094
C3 C 0.7932(15) 0.6474(9) 0.5630(9)
H12 H 0.8180 0.7101 0.6200
C4 C 0.7646(12) 0.5169(9) 0.6068(8)
C5 C 0.7337(14) 0.4243(9) 0.5174(9)
H13 H 0.7158 0.3367 0.5449
C6 C 0.7292(14) 0.4595(10) 0.3897(9)
H14 H 0.7083 0.3965 0.3316
C7 C 0.7543(11) 0.6339(8) 0.2076(8)
C8 C 0.7714(11) 0.4790(9) 0.7460(9)
C9 C 0.4943(11) 0.9427(8) -0.3766(8)
C10 C 0.3499(12) 0.9380(10) -0.4449(9)
H15 H 0.2488 0.8958 -0.4081
C11 C 0.6456(12) 1.0042(10) -0.4322(9)
H16 H 0.7439 1.0068 -0.3874
C12 C 0.4930(11) 0.8774(8) -0.2429(8)
Yb1_2 Yb 0.77916(4) 0.73511(3) -1.04744(3)
Yb1_3 Yb 0.77916(4) 0.73511(3) 0.95256(3)
Yb1A Yb 0.22084(4) 1.26489(3) -0.95256(3)
O1_2 O 0.7770(8) 0.7559(6) -0.8255(6)
O2_2 O 0.7351(9) 0.5534(6) -0.8770(6)
O3_2 O 0.7927(9) 0.5690(6) -0.1785(6)
O3_3 O 0.7927(9) 0.5690(6) -1.1785(6)
O4_2 O 0.7617(11) 0.3580(6) -0.2191(6)
O5A O 0.3621(8) 1.1472(7) -0.7969(6)
O5_2 O 0.6379(8) 0.8528(7) -1.2031(6)
O6A O 0.6563(8) 1.1476(7) -0.8193(6)
O7_2 O 0.9932(8) 0.8200(6) -1.2126(6)
H1_2 H 0.9740 0.9041 -1.2161
H2_2 H 1.1015 0.8299 -1.2029
O8_2 O 0.7981(11) 0.9573(7) -1.0024(7)
H3_2 H 0.8357 1.0077 -1.0632
H4_2 H 0.7421 0.9998 -0.9421
O9_2 O 1.0701(7) 0.6593(6) -1.0134(6)
H5_2 H 1.1353 0.6027 -1.0555
H6_2 H 1.0814 0.6516 -0.9355
O10_2 O 0.4800(8) 0.7305(8) -0.9822(7)
H7_2 H 0.4144 0.7664 -1.0329
H8_2 H 0.4216 0.6873 -0.9241
C1_2 C 0.7566(12) 0.5926(8) -0.6527(8)
C2_2 C 0.7848(14) 0.6835(10) -0.5640(9)
H11_2 H 0.7986 0.7718 -0.5906
C3_2 C 0.7932(15) 0.6474(9) -0.4370(9)
H12_2 H 0.8180 0.7101 -0.3800
C4_2 C 0.7646(12) 0.5169(9) -0.3932(8)
C5_2 C 0.7337(14) 0.4243(9) -0.4826(9)
H13_2 H 0.7158 0.3367 -0.4551
C6_2 C 0.7292(14) 0.4595(10) -0.6103(9)
H14_2 H 0.7083 0.3965 -0.6684
C7_2 C 0.7543(11) 0.6339(8) -0.7924(8)
C8_2 C 0.7714(11) 0.4790(9) -0.2540(9)
C9A C 0.5057(11) 1.0573(8) -0.6234(8)
C10A C 0.6501(12) 1.0620(10) -0.5551(9)
H15A H 0.7512 1.1042 -0.5919
C11A C 0.3544(12) 0.9958(10) -0.5678(9)
H16A H 0.2561 0.9932 -0.6126
C12A C 0.5070(11) 1.1226(8) -0.7571(8)
O11 O 0.0705(10) 0.8974(6) 0.2237(7)
H9 H 0.1441 0.8316 0.2246
H10 H -0.0312 0.8709 0.2178
loop_
_geom_bond_atom_site_label_1
_geom_bond_atom_site_label_2
_geom_bond_site_symmetry_1
_geom_bond_site_symmetry_2
Yb1 O1 1_555 1_555
O1 C7 1_555 1_555
O2 Yb1 1_555 1_555
O3 C8 1_555 1_555
O4 C8 1_555 1_555
O5 Yb1 1_555 1_555
O6 C12 1_555 1_555
O7 Yb1 1_555 1_555
H1 O7 1_555 1_555
H2 O7 1_555 1_555
O8 Yb1 1_555 1_555
H3 O8 1_555 1_555
H4 O8 1_555 1_555
O9 Yb1 1_555 1_555
H5 O9 1_555 1_555
H6 O9 1_555 1_555
O10 Yb1 1_555 1_555
H7 O10 1_555 1_555
H8 O10 1_555 1_555
O11 H9 1_555 1_555
H10 O11 1_555 1_555
C1 C2 1_555 1_555
C2 H11 1_555 1_555
C3 C2 1_555 1_555
H12 C3 1_555 1_555
C4 C3 1_555 1_555
C5 C4 1_555 1_555
H13 C5 1_555 1_555
C6 C1 1_555 1_555
H14 C6 1_555 1_555
C7 O2 1_555 1_555
C8 C4 1_555 1_555
C9 C10 1_555 1_555
C10 H15 1_555 1_555
C11 C9 1_555 1_555
H16 C11 1_555 1_555
C12 O5 1_555 1_555
Yb1_2 O1_2 1_555 1_555
Yb1_3 O3 1_555 1_555
Yb1A O5A 1_555 1_555
O1_2 C7_2 1_555 1_555
O2_2 Yb1_2 1_555 1_555
O3_2 Yb1 1_555 1_555
O3_3 Yb1_2 1_555 1_555
O4_2 C8_2 1_555 1_555
O5A C12A 1_555 1_555
O5_2 Yb1_2 1_555 1_555
O6A C12A 1_555 1_555
O7_2 Yb1_2 1_555 1_555
H1_2 O7_2 1_555 1_555
H2_2 O7_2 1_555 1_555
O8_2 Yb1_2 1_555 1_555
H3_2 O8_2 1_555 1_555
H4_2 O8_2 1_555 1_555
O9_2 Yb1_2 1_555 1_555
H5_2 O9_2 1_555 1_555
H6_2 O9_2 1_555 1_555
O10_2 Yb1_2 1_555 1_555
H7_2 O10_2 1_555 1_555
H8_2 O10_2 1_555 1_555
C1_2 C2_2 1_555 1_555
C2_2 H11_2 1_555 1_555
C3_2 C2_2 1_555 1_555
H12_2 C3_2 1_555 1_555
C4_2 C3_2 1_555 1_555
C5_2 C4_2 1_555 1_555
H13_2 C5_2 1_555 1_555
C6_2 C1_2 1_555 1_555
H14_2 C6_2 1_555 1_555
C7_2 O2_2 1_555 1_555
C8_2 O3_2 1_555 1_555
C9A C10A 1_555 1_555
C10A C11 1_555 1_555
H15A C10A 1_555 1_555
C11A C10 1_555 1_555
H16A C11A 1_555 1_555
C12A C9A 1_555 1_555
C1 C7 1_555 1_555
C5 C6 1_555 1_555
C9 C12 1_555 1_555
C1_2 C7_2 1_555 1_555
C4_2 C8_2 1_555 1_555
C5_2 C6_2 1_555 1_555
C9A C11A 1_555 1_555

#END
