
#######################################################################
#
#                 Cambridge Crystallographic Data Centre
#                                CCDC 
#
#######################################################################
#
# If this CIF has been generated from an entry in the Cambridge 
# Structural Database, then it will include bibliographic, chemical, 
# crystal, experimental, refinement or atomic coordinate data resulting 
# from the CCDC's data processing and validation procedures.
#
#######################################################################

data_AMIYIF
_symmetry_cell_setting           monoclinic
_symmetry_space_group_name_H-M   'C 2/m'
_symmetry_Int_Tables_number      12
_space_group_name_Hall           '-C 2y'
loop_
_symmetry_equiv_pos_site_id
_symmetry_equiv_pos_as_xyz
1 x,y,z
2 -x,y,-z
3 1/2+x,1/2+y,z
4 1/2-x,1/2+y,-z
5 -x,-y,-z
6 x,-y,z
7 1/2-x,1/2-y,-z
8 1/2+x,1/2-y,z
_cell_length_a                   24.2508(6)
_cell_length_b                   12.6282(3)
_cell_length_c                   13.2061(3)
_cell_angle_alpha                90
_cell_angle_beta                 119.7930(10)
_cell_angle_gamma                90
_cell_volume                     3509.74
loop_
_atom_site_label
_atom_site_type_symbol
_atom_site_fract_x
_atom_site_fract_y
_atom_site_fract_z
Ag1 Ag 0.285725(14) 0.250982(19) 0.39956(2)
O1 O 0.39738(16) 0.2059(5) 0.7592(3)
O2 O 0.3636(3) 0.2989(4) 0.6033(4)
O3 O 0.31247(14) 0.1623(3) 0.6009(3)
O4 O 0.15371(13) 0.19017(18) -0.2493(2)
O5 O 0.19725(12) 0.19047(18) 0.1486(2)
N1 N 0.35874(17) 0.2216(4) 0.6564(3)
N2 N 0.24828(13) 0.0936(2) 0.3101(2)
N3 N 0.19251(14) 0.0936(2) -0.3408(2)
C1 C 0.2042(2) 0.0000 -0.3711(4)
H1 H 0.2230 0.0000 -0.4194
C2 C 0.16447(16) 0.0924(3) -0.2748(3)
C3 C 0.1485(2) 0.0000 -0.2397(4)
H2 H 0.1279 0.0000 -0.1944
C4 C 0.13402(17) 0.2035(3) -0.1665(3)
C5 C 0.17618(16) 0.1830(3) -0.0501(3)
H3 H 0.2175 0.1558 -0.0250
C6 C 0.15530(17) 0.2039(3) 0.0277(3)
C7 C 0.09622(19) 0.2449(3) -0.0053(3)
H4 H 0.0836 0.2588 0.0510
C8 C 0.05535(19) 0.2655(3) -0.1230(4)
H5 H 0.0144 0.2941 -0.1478
C9 C 0.07407(19) 0.2447(3) -0.2040(3)
H6 H 0.0462 0.2584 -0.2845
C11 C 0.1899(2) 0.0000 0.1304(4)
H7 H 0.1625 0.0000 0.0482
C12 C 0.21107(15) 0.0921(3) 0.1939(3)
C13 C 0.2645(2) 0.0000 0.3625(4)
H8 H 0.2901 0.0000 0.4451
Ag1E Ag 0.285725(14) -0.250982(19) 0.39956(2)
Ag1C Ag 0.214275(14) -0.249018(19) -0.39956(2)
Ag1C_2 Ag 0.214275(14) -0.249018(19) 0.60044(2)
Ag1F Ag 0.214275(14) 0.249018(19) -0.39956(2)
Ag1F_2 Ag 0.214275(14) 0.249018(19) 0.60044(2)
O1E O 0.39738(16) -0.2059(5) 0.7592(3)
O2E O 0.3636(3) -0.2989(4) 0.6033(4)
O3E O 0.31247(14) -0.1623(3) 0.6009(3)
O3C O 0.18753(14) -0.3377(3) 0.3991(3)
O3F O 0.18753(14) 0.3377(3) 0.3991(3)
O4E O 0.15371(13) -0.19017(18) -0.2493(2)
O5E O 0.19725(12) -0.19047(18) 0.1486(2)
N1E N 0.35874(17) -0.2216(4) 0.6564(3)
N2E N 0.24828(13) -0.0936(2) 0.3101(2)
N3E N 0.19251(14) -0.0936(2) -0.3408(2)
N3C N 0.30749(14) -0.4064(2) 0.3408(2)
N3F N 0.30749(14) 0.4064(2) 0.3408(2)
C2E C 0.16447(16) -0.0924(3) -0.2748(3)
C4E C 0.13402(17) -0.2035(3) -0.1665(3)
C5E C 0.17618(16) -0.1830(3) -0.0501(3)
H3E H 0.2175 -0.1558 -0.0250
C6E C 0.15530(17) -0.2039(3) 0.0277(3)
C7E C 0.09622(19) -0.2449(3) -0.0053(3)
H4E H 0.0836 -0.2588 0.0510
C8E C 0.05535(19) -0.2655(3) -0.1230(4)
H5E H 0.0144 -0.2941 -0.1478
C9E C 0.07407(19) -0.2447(3) -0.2040(3)
H6E H 0.0462 -0.2584 -0.2845
C12E C 0.21107(15) -0.0921(3) 0.1939(3)
N4 N 0.3010(4) 0.0000 0.0135(10)
C19 C 0.3580(4) 0.0000 -0.1305(10)
C20 C 0.3263(4) 0.0000 -0.0473(11)
N5 N 0.0531(2) 0.0000 -0.1194(4)
C10 C -0.0678(3) 0.0000 -0.1952(7)
C21 C 0.0009(3) 0.0000 -0.1522(5)
C14 C 0.3964(5) 0.0539(9) 0.3596(16)
H9 H 0.3832 0.0891 0.2876
C15 C 0.4170(5) 0.1238(9) 0.4716(13)
H10 H 0.4163 0.1990 0.4697
C16 C 0.4367(3) 0.0648(9) 0.5762(11)
H11 H 0.4501 0.1016 0.6474
C14E C 0.3964(5) -0.0539(9) 0.3596(16)
H9E H 0.3832 -0.0891 0.2876
C15E C 0.4170(5) -0.1238(9) 0.4716(13)
H10E H 0.4163 -0.1990 0.4697
C16E C 0.4367(3) -0.0648(9) 0.5762(11)
H11E H 0.4501 -0.1016 0.6474
C17 C 0.0304(2) 0.0548(4) -0.5487(4)
H12 H 0.0512 0.0928 -0.5821
C18 C 0.0000 0.1080(5) -0.5000
H13 H 0.0000 0.1832 -0.5000
C17A C -0.0304(2) 0.0548(4) -0.4513(4)
C17D C -0.0304(2) -0.0548(4) -0.4513(4)
C17E C 0.0304(2) -0.0548(4) -0.5487(4)
H12A H -0.0512 0.0928 -0.4179
H12D H -0.0512 -0.0928 -0.4179
H12E H 0.0512 -0.0928 -0.5821
C18D C 0.0000 -0.1080(5) -0.5000
H13D H 0.0000 -0.1832 -0.5000
loop_
_geom_bond_atom_site_label_1
_geom_bond_atom_site_label_2
_geom_bond_site_symmetry_1
_geom_bond_site_symmetry_2
Ag1 O2 1_555 1_555
O1 N1 1_555 1_555
O2 N1 1_555 1_555
O3 Ag1 1_555 1_555
O4 C2 1_555 1_555
O5 C6 1_555 1_555
N1 O3 1_555 1_555
N2 Ag1 1_555 1_555
N3 C1 1_555 1_555
N4 C20 1_555 1_555
N5 C21 1_555 1_555
C1 H1 1_555 1_555
C2 N3 1_555 1_555
C3 C2 1_555 1_555
H2 C3 1_555 1_555
C4 O4 1_555 1_555
C5 C4 1_555 1_555
H3 C5 1_555 1_555
C6 C5 1_555 1_555
C7 C6 1_555 1_555
H4 C7 1_555 1_555
C8 C7 1_555 1_555
H5 C8 1_555 1_555
C9 C4 1_555 1_555
H6 C9 1_555 1_555
C10 C21 1_555 1_555
C11 H7 1_555 1_555
C12 O5 1_555 1_555
C13 N2 1_555 1_555
H8 C13 1_555 1_555
C14 H9 1_555 1_555
C15 C14 1_555 1_555
H10 C15 1_555 1_555
C16 C15 1_555 1_555
H11 C16 1_555 1_555
C17 H12 1_555 1_555
C18 C17 1_555 1_555
H13 C18 1_555 1_555
C19 C20 1_555 1_555
Ag1E O2E 1_555 1_555
Ag1C N3E 1_555 1_555
Ag1C_2 O3E 1_555 1_555
Ag1F N3 1_555 1_555
Ag1F_2 O3 1_555 1_555
O1E N1E 1_555 1_555
O2E N1E 1_555 1_555
O3E Ag1E 1_555 1_555
O3C Ag1E 1_555 1_555
O3F Ag1 1_555 1_555
O4E C2E 1_555 1_555
O5E C6E 1_555 1_555
N1E O3E 1_555 1_555
N2E C13 1_555 1_555
N3E C1 1_555 1_555
N3C Ag1E 1_555 1_555
N3F Ag1 1_555 1_555
C2E C3 1_555 1_555
C4E O4E 1_555 1_555
C5E C4E 1_555 1_555
H3E C5E 1_555 1_555
C6E C5E 1_555 1_555
C7E C6E 1_555 1_555
H4E C7E 1_555 1_555
C8E C7E 1_555 1_555
H5E C8E 1_555 1_555
C9E C4E 1_555 1_555
H6E C9E 1_555 1_555
C12E C11 1_555 1_555
C14E C14 1_555 1_555
H9E C14E 1_555 1_555
C15E C14E 1_555 1_555
H10E C15E 1_555 1_555
C16E C16 1_555 1_555
H11E C16E 1_555 1_555
C17A C18 1_555 1_555
C17D C17A 1_555 1_555
C17E C17 1_555 1_555
H12A C17A 1_555 1_555
H12D C17D 1_555 1_555
H12E C17E 1_555 1_555
C18D C17D 1_555 1_555
H13D C18D 1_555 1_555
N2 C12 1_555 1_555
C8 C9 1_555 1_555
C11 C12 1_555 1_555
Ag1E N2E 1_555 1_555
Ag1C_2 O3C 1_555 1_555
Ag1F_2 O3F 1_555 1_555
O5E C12E 1_555 1_555
N2E C12E 1_555 1_555
N3E C2E 1_555 1_555
C8E C9E 1_555 1_555
C15E C16E 1_555 1_555
C17E C18D 1_555 1_555

#END
