
#######################################################################
#
#                 Cambridge Crystallographic Data Centre
#                                CCDC 
#
#######################################################################
#
# If this CIF has been generated from an entry in the Cambridge 
# Structural Database, then it will include bibliographic, chemical, 
# crystal, experimental, refinement or atomic coordinate data resulting 
# from the CCDC's data processing and validation procedures.
#
#######################################################################

data_AMIZAX01
_symmetry_cell_setting           monoclinic
_symmetry_space_group_name_H-M   'C 2/c'
_symmetry_Int_Tables_number      15
_space_group_name_Hall           '-C 2yn'
loop_
_symmetry_equiv_pos_site_id
_symmetry_equiv_pos_as_xyz
1 x,y,z
2 1/2+x,1/2+y,z
3 -x,y,1/2-z
4 1/2-x,1/2+y,1/2-z
5 -x,-y,-z
6 1/2-x,1/2-y,-z
7 x,-y,1/2+z
8 1/2+x,1/2-y,1/2+z
_cell_length_a                   20.9169(6)
_cell_length_b                   21.3300(6)
_cell_length_c                   8.1871(2)
_cell_angle_alpha                90
_cell_angle_beta                 104.0920(10)
_cell_angle_gamma                90
_cell_volume                     3542.81
loop_
_atom_site_label
_atom_site_type_symbol
_atom_site_fract_x
_atom_site_fract_y
_atom_site_fract_z
Dy1 Dy 0.0000 0.213535(5) 0.7500
Dy2 Dy 0.0000 0.292628(5) 0.2500
C1 C 0.06973(10) 0.34229(9) 0.9513(3)
C2 C 0.06927(14) 0.45611(10) 0.9017(3)
H1 H 0.0334 0.4575 0.9500
C3 C 0.09778(11) 0.39847(9) 0.8832(3)
C4 C 0.10248(11) 0.29405(9) 0.5492(3)
C5 C 0.16747(11) 0.29059(10) 0.6770(3)
C6 C 0.20830(12) 0.24019(13) 0.6633(3)
H2 H 0.1928 0.2086 0.5856
C7 C 0.09280(16) 0.51131(11) 0.8502(3)
H3 H 0.0722 0.5493 0.8600
C8 C 0.27209(13) 0.23693(15) 0.7653(4)
H4 H 0.2996 0.2039 0.7532
C9 C 0.19015(10) 0.33800(10) 0.7948(3)
C10 C 0.15232(11) 0.39580(10) 0.8111(3)
C11 C 0.25390(11) 0.33217(12) 0.8979(3)
H5 H 0.2696 0.3628 0.9785
C12 C 0.29407(13) 0.28250(14) 0.8834(4)
H6 H 0.3362 0.2798 0.9539
C13 C 0.17669(14) 0.45284(12) 0.7653(3)
H7 H 0.2137 0.4525 0.7211
C14 C 0.14732(16) 0.50918(12) 0.7840(3)
H8 H 0.1644 0.5461 0.7518
O1 O 0.05734(7) 0.25343(7) 0.54733(18)
O2 O 0.09573(8) 0.33449(7) 0.4366(2)
O3 O 0.06875(8) 0.29008(6) 0.8787(2)
C15 C 0.05651(10) 0.15803(9) 1.1502(3)
C16 C 0.06248(13) 0.00472(10) 1.3963(3)
H9 H 0.0353 -0.0283 1.4106
C17 C 0.07808(10) 0.10362(9) 1.2698(3)
C18 C 0.03596(11) 0.05504(9) 1.2912(3)
C19 C 0.14438(12) 0.10242(11) 1.3577(3)
H10 H 0.1719 0.1356 1.3465
C20 C 0.12857(14) 0.00345(12) 1.4791(3)
H11 H 0.1455 -0.0305 1.5472
C21 C 0.16938(13) 0.05232(12) 1.4611(3)
H12 H 0.2136 0.0517 1.5183
O4 O 0.03349(8) 0.14697(7) 0.99717(18)
O5 O 0.06620(8) 0.21179(6) 1.2137(2)
O6 O 0.04806(8) 0.35124(7) 1.07947(19)
O7 O 0.09063(10) 0.14206(10) 0.7369(3)
H13 H 0.096(2) 0.113(2) 0.784(6)
H14 H 0.100(3) 0.136(2) 0.652(8)
Dy1_2 Dy 0.0000 0.213535(5) 1.7500
Dy2_2 Dy 0.0000 0.292628(5) 1.2500
C1B C -0.06973(10) 0.34229(9) 0.5487(3)
C2B C -0.06927(14) 0.45611(10) 0.5983(3)
H1B H -0.0334 0.4575 0.5500
C3B C -0.09778(11) 0.39847(9) 0.6168(3)
C4B C -0.10248(11) 0.29405(9) 0.9508(3)
C5B C -0.16747(11) 0.29059(10) 0.8230(3)
C6B C -0.20830(12) 0.24019(13) 0.8367(3)
H2B H -0.1928 0.2086 0.9144
C7B C -0.09280(16) 0.51131(11) 0.6498(3)
H3B H -0.0722 0.5493 0.6400
C8B C -0.27209(13) 0.23693(15) 0.7347(4)
H4B H -0.2996 0.2039 0.7468
C9B C -0.19015(10) 0.33800(10) 0.7052(3)
C10B C -0.15232(11) 0.39580(10) 0.6889(3)
C11B C -0.25390(11) 0.33217(12) 0.6021(3)
H5B H -0.2696 0.3628 0.5215
C12B C -0.29407(13) 0.28250(14) 0.6166(4)
H6B H -0.3362 0.2798 0.5461
C13B C -0.17669(14) 0.45284(12) 0.7347(3)
H7B H -0.2137 0.4525 0.7789
C14B C -0.14732(16) 0.50918(12) 0.7160(3)
H8B H -0.1644 0.5461 0.7482
O1B O -0.05734(7) 0.25343(7) 0.95267(18)
O1B_2 O -0.05734(7) 0.25343(7) -0.04733(18)
O2B O -0.09573(8) 0.33449(7) 1.0634(2)
O2B_2 O -0.09573(8) 0.33449(7) 0.0634(2)
O3B O -0.06875(8) 0.29008(6) 0.6213(2)
C15B C -0.05651(10) 0.15803(9) 1.3498(3)
C16B C -0.06248(13) 0.00472(10) 1.1037(3)
H9B H -0.0353 -0.0283 1.0894
C17B C -0.07808(10) 0.10362(9) 1.2302(3)
C18B C -0.03596(11) 0.05504(9) 1.2088(3)
C19B C -0.14438(12) 0.10242(11) 1.1423(3)
H10B H -0.1719 0.1356 1.1535
C20B C -0.12857(14) 0.00345(12) 1.0209(3)
H11B H -0.1455 -0.0305 0.9528
C21B C -0.16938(13) 0.05232(12) 1.0389(3)
H12B H -0.2136 0.0517 0.9817
O4B O -0.03349(8) 0.14697(7) 1.50283(18)
O4B_2 O -0.03349(8) 0.14697(7) 0.50283(18)
O5B O -0.06620(8) 0.21179(6) 1.2863(2)
O5_2 O 0.06620(8) 0.21179(6) 0.2137(2)
O5B_2 O -0.06620(8) 0.21179(6) 0.2863(2)
O6B O -0.04806(8) 0.35124(7) 0.42053(19)
O6_2 O 0.04806(8) 0.35124(7) 0.07947(19)
O7B O -0.09063(10) 0.14206(10) 0.7631(3)
H13B H -0.096(2) 0.113(2) 0.716(6)
H14B H -0.100(3) 0.136(2) 0.848(8)
loop_
_geom_bond_atom_site_label_1
_geom_bond_atom_site_label_2
_geom_bond_site_symmetry_1
_geom_bond_site_symmetry_2
Dy1 O1 1_555 1_555
Dy2 O1 1_555 1_555
C1 C3 1_555 1_555
C2 H1 1_555 1_555
C3 C2 1_555 1_555
C4 C5 1_555 1_555
C5 C6 1_555 1_555
C6 H2 1_555 1_555
C7 C2 1_555 1_555
H3 C7 1_555 1_555
C8 C6 1_555 1_555
H4 C8 1_555 1_555
C9 C5 1_555 1_555
C10 C3 1_555 1_555
C11 C9 1_555 1_555
H5 C11 1_555 1_555
C12 C8 1_555 1_555
H6 C12 1_555 1_555
C13 C10 1_555 1_555
H7 C13 1_555 1_555
C14 C7 1_555 1_555
H8 C14 1_555 1_555
O1 C4 1_555 1_555
O2 Dy2 1_555 1_555
O3 Dy1 1_555 1_555
C15 C17 1_555 1_555
C16 H9 1_555 1_555
C17 C18 1_555 1_555
C18 C16 1_555 1_555
C19 C17 1_555 1_555
H10 C19 1_555 1_555
C20 C16 1_555 1_555
H11 C20 1_555 1_555
C21 C19 1_555 1_555
H12 C21 1_555 1_555
O4 Dy1 1_555 1_555
O5 C15 1_555 1_555
O6 C1 1_555 1_555
O7 Dy1 1_555 1_555
H13 O7 1_555 1_555
H14 O7 1_555 1_555
Dy1_2 O4B 1_555 1_555
Dy2_2 O5 1_555 1_555
C1B C3B 1_555 1_555
C2B H1B 1_555 1_555
C3B C2B 1_555 1_555
C4B C5B 1_555 1_555
C5B C6B 1_555 1_555
C6B H2B 1_555 1_555
C7B C2B 1_555 1_555
H3B C7B 1_555 1_555
C8B C6B 1_555 1_555
H4B C8B 1_555 1_555
C9B C5B 1_555 1_555
C10B C3B 1_555 1_555
C11B C9B 1_555 1_555
H5B C11B 1_555 1_555
C12B C8B 1_555 1_555
H6B C12B 1_555 1_555
C13B C10B 1_555 1_555
H7B C13B 1_555 1_555
C14B C7B 1_555 1_555
H8B C14B 1_555 1_555
O1B Dy1 1_555 1_555
O1B_2 Dy2 1_555 1_555
O2B Dy2_2 1_555 1_555
O2B_2 Dy2 1_555 1_555
O3B Dy1 1_555 1_555
C15B C17B 1_555 1_555
C16B H9B 1_555 1_555
C17B C18B 1_555 1_555
C18B C18 1_555 1_555
C19B C17B 1_555 1_555
H10B C19B 1_555 1_555
C20B C16B 1_555 1_555
H11B C20B 1_555 1_555
C21B C19B 1_555 1_555
H12B C21B 1_555 1_555
O4B C15B 1_555 1_555
O4B_2 Dy1 1_555 1_555
O5B Dy2_2 1_555 1_555
O5_2 Dy2 1_555 1_555
O5B_2 Dy2 1_555 1_555
O6B Dy2 1_555 1_555
O6_2 Dy2 1_555 1_555
O7B Dy1 1_555 1_555
H13B O7B 1_555 1_555
H14B O7B 1_555 1_555
C1 O3 1_555 1_555
C4 O2 1_555 1_555
C9 C10 1_555 1_555
C11 C12 1_555 1_555
C13 C14 1_555 1_555
C15 O4 1_555 1_555
C20 C21 1_555 1_555
O6 Dy2_2 1_555 1_555
Dy2_2 O1B 1_555 1_555
C1B O3B 1_555 1_555
C1B O6B 1_555 1_555
C4B O1B 1_555 1_555
C4B O2B 1_555 1_555
C9B C10B 1_555 1_555
C11B C12B 1_555 1_555
C13B C14B 1_555 1_555
C15B O5B 1_555 1_555
C16B C18B 1_555 1_555
C20B C21B 1_555 1_555

#END
