
#######################################################################
#
#                 Cambridge Crystallographic Data Centre
#                                CCDC 
#
#######################################################################
#
# If this CIF has been generated from an entry in the Cambridge 
# Structural Database, then it will include bibliographic, chemical, 
# crystal, experimental, refinement or atomic coordinate data resulting 
# from the CCDC's data processing and validation procedures.
#
#######################################################################

data_AMOGEP
_symmetry_cell_setting           tetragonal
_symmetry_space_group_name_H-M   'I 41/a'
_symmetry_Int_Tables_number      88
_space_group_name_Hall           '-I 4ad'
loop_
_symmetry_equiv_pos_site_id
_symmetry_equiv_pos_as_xyz
1 x,y,z
2 3/4-y,1/4+x,1/4+z
3 1/2-x,-y,1/2+z
4 3/4+y,3/4-x,3/4+z
5 1/2+x,1/2+y,1/2+z
6 1/4-y,3/4+x,3/4+z
7 -x,1/2-y,z
8 1/4+y,1/4-x,1/4+z
9 -x,-y,-z
10 1/4+y,3/4-x,3/4-z
11 1/2+x,y,1/2-z
12 1/4-y,1/4+x,1/4-z
13 1/2-x,1/2-y,1/2-z
14 3/4+y,1/4-x,1/4-z
15 x,1/2+y,-z
16 3/4-y,3/4+x,3/4-z
_cell_length_a                   15.6452(5)
_cell_length_b                   15.6452(5)
_cell_length_c                   15.9953(6)
_cell_angle_alpha                90
_cell_angle_beta                 90
_cell_angle_gamma                90
_cell_volume                     3915.21
loop_
_atom_site_label
_atom_site_type_symbol
_atom_site_fract_x
_atom_site_fract_y
_atom_site_fract_z
Cl1 Cl 1.0765(2) 0.17580(19) 0.08138(19)
C6 C 1.0000 0.2500 0.1250
Cl1F Cl 0.9235(2) 0.32420(19) 0.08138(19)
Cl1M Cl 0.92580(19) 0.1735(2) 0.16862(19)
Cl1K Cl 1.07420(19) 0.3265(2) 0.16862(19)
Br1 Br 0.27393(3) 0.52941(2) -0.24933(3)
Cu1 Cu 0.5000 0.5000 0.0000
Cu2 Cu 0.28620(3) 0.44838(3) -0.11939(3)
S1 S 0.42853(6) 0.41143(6) -0.09172(6)
S2 S 0.56345(6) 0.53470(6) -0.12531(6)
N1 N 0.4936(2) 0.4372(2) -0.2450(2)
C1 C 0.4941(2) 0.4584(2) -0.1667(2)
C2 C 0.4397(2) 0.3682(2) -0.2811(2)
C3 C 0.4704(3) 0.3627(3) -0.3714(3)
C4 C 0.5018(3) 0.4529(3) -0.3906(2)
C5 C 0.5464(2) 0.4790(3) -0.3101(2)
H1 H 0.4488 0.3134 -0.2514
H2 H 0.3783 0.3833 -0.2784
H3 H 0.4231 0.3462 -0.4093
H4 H 0.5173 0.3206 -0.3771
H5 H 0.5421 0.4529 -0.4383
H6 H 0.4535 0.4916 -0.4033
H7 H 0.5464 0.5419 -0.3032
H8 H 0.6060 0.4579 -0.3087
Br1A Br 0.22059(2) 0.52393(3) 0.00067(3)
Br1H Br 0.72607(3) 0.47059(2) 0.24933(3)
Br1I Br 0.77941(2) 0.47607(3) -0.00067(3)
Br1J Br 0.77393(3) 0.52941(2) -0.25067(3)
Br1B Br 0.22607(3) 0.47059(2) 0.25067(3)
Cu1C Cu 0.2500 0.2500 -0.2500
Cu1G Cu 0.7500 0.7500 0.2500
Cu2H Cu 0.71380(3) 0.55162(3) 0.11939(3)
Cu2I Cu 0.69838(3) 0.46380(3) -0.13061(3)
Cu2A Cu 0.30162(3) 0.53620(3) 0.13061(3)
Cu2C Cu 0.19838(3) 0.46380(3) -0.36939(3)
Cu2O Cu 0.30162(3) 0.03620(3) -0.13061(3)
Cu2K Cu 0.80162(3) 0.53620(3) 0.36939(3)
Cu2G Cu 0.69838(3) 0.96380(3) 0.13061(3)
S1H S 0.57147(6) 0.58857(6) 0.09172(6)
S1O S 0.33857(6) 0.17853(6) -0.15828(6)
S1G S 0.66143(6) 0.82147(6) 0.15828(6)
S1I S 0.66143(6) 0.32147(6) -0.15828(6)
S1A S 0.33857(6) 0.67853(6) 0.15828(6)
S1C S 0.16143(6) 0.32147(6) -0.34172(6)
S2H S 0.43655(6) 0.46530(6) 0.12531(6)
S2O S 0.21530(6) 0.31345(6) -0.12469(6)
S2G S 0.78470(6) 0.68655(6) 0.12469(6)
S2C S 0.28470(6) 0.18655(6) -0.37531(6)
N1H N 0.5064(2) 0.5628(2) 0.2450(2)
N1O N 0.3128(2) 0.2436(2) -0.0050(2)
N1G N 0.6872(2) 0.7564(2) 0.0050(2)
C1H C 0.5059(2) 0.5416(2) 0.1667(2)
C1O C 0.2916(2) 0.2441(2) -0.0833(2)
C1G C 0.7084(2) 0.7559(2) 0.0833(2)
C2H C 0.5603(2) 0.6318(2) 0.2811(2)
C2O C 0.3818(2) 0.1897(2) 0.0311(2)
C2G C 0.6182(2) 0.8103(2) -0.0311(2)
C3H C 0.5296(3) 0.6373(3) 0.3714(3)
C3O C 0.3873(3) 0.2204(3) 0.1214(3)
C3G C 0.6127(3) 0.7796(3) -0.1214(3)
C4H C 0.4982(3) 0.5471(3) 0.3906(2)
C4O C 0.2971(3) 0.2518(3) 0.1406(2)
C4G C 0.7029(3) 0.7482(3) -0.1406(2)
C5H C 0.4536(2) 0.5210(3) 0.3101(2)
C5O C 0.2710(3) 0.2964(2) 0.0601(2)
C5G C 0.7290(3) 0.7036(2) -0.0601(2)
H1H H 0.5512 0.6866 0.2514
H1O H 0.4366 0.1988 0.0014
H1G H 0.5634 0.8012 -0.0014
H2H H 0.6217 0.6167 0.2784
H2O H 0.3667 0.1283 0.0284
H2G H 0.6333 0.8717 -0.0284
H3H H 0.5769 0.6538 0.4093
H3O H 0.4038 0.1731 0.1593
H3G H 0.5962 0.8269 -0.1593
H4H H 0.4827 0.6794 0.3771
H4O H 0.4294 0.2673 0.1271
H4G H 0.5706 0.7327 -0.1271
H5H H 0.4579 0.5471 0.4383
H5O H 0.2971 0.2921 0.1883
H5G H 0.7029 0.7079 -0.1883
H6H H 0.5465 0.5084 0.4033
H6O H 0.2584 0.2035 0.1533
H6G H 0.7416 0.7965 -0.1533
H7H H 0.4536 0.4581 0.3032
H7O H 0.2081 0.2964 0.0532
H7G H 0.7919 0.7036 -0.0532
H8H H 0.3940 0.5421 0.3087
H8O H 0.2921 0.3560 0.0587
H8G H 0.7079 0.6440 -0.0587
loop_
_geom_bond_atom_site_label_1
_geom_bond_atom_site_label_2
_geom_bond_site_symmetry_1
_geom_bond_site_symmetry_2
Br1 Cu2 1_555 1_555
Cu1 S1 1_555 1_555
Cu2 S1 1_555 1_555
Cl1 C6 1_555 1_555
S1 C1 1_555 1_555
S2 Cu1 1_555 1_555
N1 C1 1_555 1_555
C1 S2 1_555 1_555
C2 N1 1_555 1_555
C3 C2 1_555 1_555
C4 C3 1_555 1_555
C5 N1 1_555 1_555
C6 Cl1F 1_555 1_555
H1 C2 1_555 1_555
H2 C2 1_555 1_555
H3 C3 1_555 1_555
H4 C3 1_555 1_555
H5 C4 1_555 1_555
H6 C4 1_555 1_555
H7 C5 1_555 1_555
H8 C5 1_555 1_555
Br1A Cu2 1_555 1_555
Br1H Cu2H 1_555 1_555
Br1I Cu2H 1_555 1_555
Br1J Cu2I 1_555 1_555
Br1B Cu2A 1_555 1_555
Cu1C S1O 1_555 1_555
Cu1G S1G 1_555 1_555
Cu2H S1H 1_555 1_555
Cu2I S2 1_555 1_555
Cu2A Br1A 1_555 1_555
Cu2C Br1 1_555 1_555
Cu2O S1O 1_555 1_555
Cu2K Br1H 1_555 1_555
Cu2G S1G 1_555 1_555
Cl1M C6 1_555 1_555
Cl1K C6 1_555 1_555
S1H Cu1 1_555 1_555
S1O C1O 1_555 1_555
S1G C1G 1_555 1_555
S1I Cu2I 1_555 1_555
S1A Cu2A 1_555 1_555
S1C Cu1C 1_555 1_555
S2H Cu1 1_555 1_555
S2O Cu2 1_555 1_555
S2G Cu1G 1_555 1_555
S2C Cu1C 1_555 1_555
N1H C1H 1_555 1_555
N1O C1O 1_555 1_555
N1G C1G 1_555 1_555
C1H S1H 1_555 1_555
C1O S2O 1_555 1_555
C1G S2G 1_555 1_555
C2H N1H 1_555 1_555
C2O N1O 1_555 1_555
C2G N1G 1_555 1_555
C3H C2H 1_555 1_555
C3O C2O 1_555 1_555
C3G C2G 1_555 1_555
C4H C3H 1_555 1_555
C4O C3O 1_555 1_555
C4G C3G 1_555 1_555
C5H N1H 1_555 1_555
C5O N1O 1_555 1_555
C5G N1G 1_555 1_555
H1H C2H 1_555 1_555
H1O C2O 1_555 1_555
H1G C2G 1_555 1_555
H2H C2H 1_555 1_555
H2O C2O 1_555 1_555
H2G C2G 1_555 1_555
H3H C3H 1_555 1_555
H3O C3O 1_555 1_555
H3G C3G 1_555 1_555
H4H C3H 1_555 1_555
H4O C3O 1_555 1_555
H4G C3G 1_555 1_555
H5H C4H 1_555 1_555
H5O C4O 1_555 1_555
H5G C4G 1_555 1_555
H6H C4H 1_555 1_555
H6O C4O 1_555 1_555
H6G C4G 1_555 1_555
H7H C5H 1_555 1_555
H7O C5O 1_555 1_555
H7G C5G 1_555 1_555
H8H C5H 1_555 1_555
H8O C5O 1_555 1_555
H8G C5G 1_555 1_555
C4 C5 1_555 1_555
Br1I Cu2I 1_555 1_555
Cu1C S2O 1_555 1_555
Cu2H S2G 1_555 1_555
Cu2A S2H 1_555 1_555
Cu2C S1C 1_555 1_555
S2H C1H 1_555 1_555
C4H C5H 1_555 1_555
C4O C5O 1_555 1_555
C4G C5G 1_555 1_555

#END
