
#######################################################################
#
#                 Cambridge Crystallographic Data Centre
#                                CCDC 
#
#######################################################################
#
# If this CIF has been generated from an entry in the Cambridge 
# Structural Database, then it will include bibliographic, chemical, 
# crystal, experimental, refinement or atomic coordinate data resulting 
# from the CCDC's data processing and validation procedures.
#
#######################################################################

data_AMOYIL
_symmetry_cell_setting           triclinic
_symmetry_space_group_name_H-M   'P -1'
_symmetry_Int_Tables_number      2
_space_group_name_Hall           '-P 1'
loop_
_symmetry_equiv_pos_site_id
_symmetry_equiv_pos_as_xyz
1 x,y,z
2 -x,-y,-z
_cell_length_a                   9.5105(19)
_cell_length_b                   9.829(2)
_cell_length_c                   14.496(3)
_cell_angle_alpha                106.93(3)
_cell_angle_beta                 97.29(3)
_cell_angle_gamma                102.26(3)
_cell_volume                     1240.69
loop_
_atom_site_label
_atom_site_type_symbol
_atom_site_fract_x
_atom_site_fract_y
_atom_site_fract_z
Zn1 Zn 0.08189(3) -0.38649(3) -0.09020(2)
N1 N 0.2023(2) -0.18184(19) 0.01498(14)
N2 N 0.9756(2) 1.4051(2) 0.80104(14)
O1 O 0.2176(2) -0.3136(2) -0.21515(18)
O2 O 0.0106(2) -0.27474(18) -0.18171(13)
O3 O 0.0914(2) 0.3810(2) 0.01819(15)
O4 O 0.2394(2) 0.51635(17) -0.04711(13)
C1 C 0.3486(3) -0.1397(3) 0.04239(18)
H1 H 0.4021 -0.2057 0.0145
C2 C 0.4252(3) -0.0045(3) 0.10943(18)
H2 H 0.5283 0.0203 0.1257
C3 C 0.3488(3) 0.0957(2) 0.15321(17)
C4 C 0.1970(3) 0.0521(2) 0.12330(18)
H3 H 0.1406 0.1160 0.1496
C5 C 0.1290(3) -0.0842(2) 0.05535(18)
H4 H 0.0261 -0.1106 0.0361
C6 C 0.4302(3) 0.2383(2) 0.22610(17)
H5 H 0.5332 0.2588 0.2413
C7 C 0.3677(3) 0.3408(3) 0.27216(18)
H6 H 0.2650 0.3205 0.2541
C8 C 0.4440(3) 0.4822(2) 0.34844(17)
C9 C 0.5957(3) 0.5267(3) 0.38225(19)
H7 H 0.6536 0.4651 0.3548
C10 C 0.6624(3) 0.6594(3) 0.45515(19)
H8 H 0.7649 0.6866 0.4770
C11 C 0.5802(3) 0.7546(3) 0.49723(18)
C12 C 0.4286(3) 0.7089(3) 0.46429(19)
H9 H 0.3706 0.7698 0.4923
C13 C 0.3613(3) 0.5757(3) 0.39120(18)
H10 H 0.2587 0.5478 0.3700
C14 C 0.6477(3) 0.9005(3) 0.57086(18)
H11 H 0.5856 0.9445 0.6083
C15 C 0.7851(3) 0.9760(3) 0.59007(17)
H12 H 0.8481 0.9320 0.5536
C16 C 0.8503(3) 1.1233(2) 0.66338(17)
C17 C 0.9899(3) 1.2047(3) 0.66571(19)
H13 H 1.0450 1.1651 0.6203
C18 C 1.0482(3) 1.3433(3) 0.73428(19)
H14 H 1.1428 1.3965 0.7340
C19 C 0.8417(3) 1.3273(3) 0.79930(18)
H15 H 0.7889 1.3697 0.8454
C20 C 0.7764(3) 1.1881(3) 0.73351(18)
H16 H 0.6822 1.1371 0.7361
C21 C 0.2089(3) -0.0156(3) -0.25404(18)
C22 C 0.2971(3) 0.0404(3) -0.31021(19)
H17 H 0.2953 -0.0182 -0.3747
C23 C 0.3882(3) 0.1826(3) -0.2722(2)
H18 H 0.4485 0.2193 -0.3108
C24 C 0.3908(3) 0.2703(3) -0.1784(2)
H19 H 0.4517 0.3671 -0.1537
C25 C 0.3047(3) 0.2171(3) -0.12019(18)
C26 C 0.2133(3) 0.0736(3) -0.15847(18)
H20 H 0.1539 0.0367 -0.1194
C27 C 0.1057(4) -0.1702(3) -0.2966(2)
H21 H 0.0048 -0.1626 -0.3116
H22 H 0.1305 -0.2220 -0.3586
C28 C 0.1125(3) -0.2606(2) -0.22808(19)
C29 C 0.3095(3) 0.3136(3) -0.01610(18)
H23 H 0.4098 0.3757 0.0130
H24 H 0.2833 0.2509 0.0240
C30 C 0.2040(3) 0.4117(2) -0.01448(18)
Zn1_2 Zn 1.08189(3) 1.61351(3) 0.90980(2)
Zn1A Zn -0.08189(3) 0.38649(3) 0.09020(2)
Zn1_3 Zn 0.08189(3) 0.61351(3) -0.09020(2)
N2_2 N -0.0244(2) -0.5949(2) -0.19896(14)
O3A O -0.0914(2) -0.3810(2) -0.01819(15)
O4_2 O 0.2394(2) -0.48365(17) -0.04711(13)
loop_
_geom_bond_atom_site_label_1
_geom_bond_atom_site_label_2
_geom_bond_site_symmetry_1
_geom_bond_site_symmetry_2
Zn1 N1 1_555 1_555
N1 C1 1_555 1_555
N2 C18 1_555 1_555
O1 C28 1_555 1_555
O2 Zn1 1_555 1_555
O3 C30 1_555 1_555
O4 C30 1_555 1_555
C1 H1 1_555 1_555
C2 C1 1_555 1_555
H2 C2 1_555 1_555
C3 C2 1_555 1_555
C4 C3 1_555 1_555
H3 C4 1_555 1_555
C5 N1 1_555 1_555
H4 C5 1_555 1_555
C6 C3 1_555 1_555
H5 C6 1_555 1_555
C7 C6 1_555 1_555
H6 C7 1_555 1_555
C8 C7 1_555 1_555
C9 C8 1_555 1_555
H7 C9 1_555 1_555
C10 C9 1_555 1_555
H8 C10 1_555 1_555
C11 C10 1_555 1_555
C12 C11 1_555 1_555
H9 C12 1_555 1_555
C13 C8 1_555 1_555
H10 C13 1_555 1_555
C14 C11 1_555 1_555
H11 C14 1_555 1_555
C15 C14 1_555 1_555
H12 C15 1_555 1_555
C16 C15 1_555 1_555
C17 C16 1_555 1_555
H13 C17 1_555 1_555
C18 C17 1_555 1_555
H14 C18 1_555 1_555
C19 N2 1_555 1_555
H15 C19 1_555 1_555
C20 C16 1_555 1_555
H16 C20 1_555 1_555
C21 C22 1_555 1_555
C22 H17 1_555 1_555
C23 C22 1_555 1_555
H18 C23 1_555 1_555
C24 C23 1_555 1_555
H19 C24 1_555 1_555
C25 C24 1_555 1_555
C26 C21 1_555 1_555
H20 C26 1_555 1_555
C27 C21 1_555 1_555
H21 C27 1_555 1_555
H22 C27 1_555 1_555
C28 O2 1_555 1_555
C29 C25 1_555 1_555
H23 C29 1_555 1_555
H24 C29 1_555 1_555
C30 C29 1_555 1_555
Zn1_2 N2 1_555 1_555
Zn1A O3 1_555 1_555
Zn1_3 O4 1_555 1_555
N2_2 Zn1 1_555 1_555
O3A Zn1 1_555 1_555
O4_2 Zn1 1_555 1_555
C4 C5 1_555 1_555
C12 C13 1_555 1_555
C19 C20 1_555 1_555
C25 C26 1_555 1_555
C27 C28 1_555 1_555

#END
