
#######################################################################
#
#                 Cambridge Crystallographic Data Centre
#                                CCDC 
#
#######################################################################
#
# If this CIF has been generated from an entry in the Cambridge 
# Structural Database, then it will include bibliographic, chemical, 
# crystal, experimental, refinement or atomic coordinate data resulting 
# from the CCDC's data processing and validation procedures.
#
#######################################################################

data_AMUMIF
_symmetry_cell_setting           monoclinic
_symmetry_space_group_name_H-M   'P 21/c'
_symmetry_Int_Tables_number      14
_space_group_name_Hall           '-P 2ybc'
loop_
_symmetry_equiv_pos_site_id
_symmetry_equiv_pos_as_xyz
1 x,y,z
2 -x,1/2+y,1/2-z
3 -x,-y,-z
4 x,1/2-y,1/2+z
_cell_length_a                   14.137(3)
_cell_length_b                   14.329(3)
_cell_length_c                   9.662(2)
_cell_angle_alpha                90
_cell_angle_beta                 108.445(4)
_cell_angle_gamma                90
_cell_volume                     1856.68
loop_
_atom_site_label
_atom_site_type_symbol
_atom_site_fract_x
_atom_site_fract_y
_atom_site_fract_z
O3 O -0.9807(4) -0.8642(3) -0.6110(6)
H12 H -1.0249 -0.8963 -0.6705
C17 C -0.9002(5) -0.9221(5) -0.5360(8)
H13 H -0.8539 -0.8870 -0.4558
H14 H -0.8654 -0.9431 -0.6034
H15 H -0.9254 -0.9763 -0.4968
C18 C -0.4087(6) -0.5260(5) -1.0301(9)
C19 C -0.5067(7) -0.5701(7) -1.1101(11)
H16 H -0.5362 -0.5374 -1.2042
H17 H -0.4954 -0.6359 -1.1318
C20 C -0.4214(7) -0.4330(6) -0.9749(13)
H18 H -0.4447 -0.3896 -1.0586
H19 H -0.3557 -0.4105 -0.9118
O4 O -0.3363(8) -0.5609(8) -1.0386(13)
C18B C -0.5913(6) -0.4740(5) -0.9699(9)
C19B C -0.4933(7) -0.4299(7) -0.8899(11)
H16B H -0.4638 -0.4626 -0.7958
H17B H -0.5046 -0.3641 -0.8682
C20B C -0.5786(7) -0.5670(6) -1.0251(13)
H18B H -0.5553 -0.6104 -0.9414
H19B H -0.6443 -0.5895 -1.0882
O4B O -0.6637(8) -0.4391(8) -0.9614(13)
O1 O 0.9050(3) -0.5377(3) 0.6407(5)
N1 N 0.0917(3) -0.1065(3) 0.1840(5)
C1 C 0.0507(4) -0.1458(4) 0.2764(7)
H1 H -0.0150 -0.1274 0.2707
C2 C 0.8202(4) -0.4935(4) 0.6103(6)
Cd1 Cd 0.0000 0.0000 0.0000
N2 N 0.3967(3) -0.2721(3) 0.4034(5)
H2 H 0.3734 -0.2866 0.4750
C3 C 0.7940(4) -0.4195(3) 0.5033(6)
N3 N 0.8644(3) -0.3987(3) 0.4368(5)
O2 O 0.3692(3) -0.1967(3) 0.1878(5)
N4 N 0.4920(3) -0.3005(3) 0.4089(5)
C4 C 0.6583(4) -0.4682(4) 0.6415(7)
H3 H 0.6122 -0.4854 0.6903
C5 C 0.2376(4) -0.1991(4) 0.2931(6)
C6 C 0.5330(4) -0.3572(4) 0.5125(7)
H4 H 0.4969 -0.3740 0.5766
C7 C 0.6314(4) -0.3977(4) 0.5387(6)
C8 C 0.3406(4) -0.2228(4) 0.2896(7)
C9 C 0.7605(4) -0.2752(4) 0.3069(7)
H5 H 0.7520 -0.2249 0.2401
C10 C 0.7018(4) -0.3700(3) 0.4677(6)
C11 C 0.1849(4) -0.1329(4) 0.1969(7)
H6 H 0.2167 -0.1039 0.1350
C12 C 0.6889(4) -0.2953(4) 0.3678(7)
H7 H 0.6296 -0.2590 0.3433
C13 C 0.1927(4) -0.2398(4) 0.3863(7)
H8 H 0.2266 -0.2865 0.4536
C14 C 0.8479(4) -0.3300(4) 0.3439(7)
H9 H 0.8970 -0.3161 0.2989
C15 C 0.0978(4) -0.2118(4) 0.3803(7)
H10 H 0.0660 -0.2369 0.4452
C16 C 0.7498(4) -0.5161(4) 0.6782(7)
H11 H 0.7636 -0.5641 0.7496
O1A O 0.0950(3) -0.0377(3) -0.1407(5)
O1C O -0.0950(3) 0.0377(3) 0.1407(5)
O1B O -0.9050(3) 0.5377(3) -0.6407(5)
N1B N -0.0917(3) 0.1065(3) -0.1840(5)
C1B C -0.0507(4) 0.1458(4) -0.2764(7)
H1B H 0.0150 0.1274 -0.2707
C2B C -0.8202(4) 0.4935(4) -0.6103(6)
Cd1A Cd 1.0000 -0.5000 0.5000
Cd1A_2 Cd -1.0000 0.5000 -0.5000
N2B N -0.3967(3) 0.2721(3) -0.4034(5)
H2B H -0.3734 0.2866 -0.4750
C3B C -0.7940(4) 0.4195(3) -0.5033(6)
N3A N 0.1356(3) 0.1013(3) 0.0632(5)
N3C N -0.1356(3) -0.1013(3) -0.0632(5)
N3B N -0.8644(3) 0.3987(3) -0.4368(5)
O2B O -0.3692(3) 0.1967(3) -0.1878(5)
N4B N -0.4920(3) 0.3005(3) -0.4089(5)
C4B C -0.6583(4) 0.4682(4) -0.6415(7)
H3B H -0.6122 0.4854 -0.6903
C5B C -0.2376(4) 0.1991(4) -0.2931(6)
C6B C -0.5330(4) 0.3572(4) -0.5125(7)
H4B H -0.4969 0.3740 -0.5766
C7B C -0.6314(4) 0.3977(4) -0.5387(6)
C8B C -0.3406(4) 0.2228(4) -0.2896(7)
C9B C -0.7605(4) 0.2752(4) -0.3069(7)
H5B H -0.7520 0.2249 -0.2401
C10B C -0.7018(4) 0.3700(3) -0.4677(6)
C11B C -0.1849(4) 0.1329(4) -0.1969(7)
H6B H -0.2167 0.1039 -0.1350
C12B C -0.6889(4) 0.2953(4) -0.3678(7)
H7B H -0.6296 0.2590 -0.3433
C13B C -0.1927(4) 0.2398(4) -0.3863(7)
H8B H -0.2266 0.2865 -0.4536
C14B C -0.8479(4) 0.3300(4) -0.3439(7)
H9B H -0.8970 0.3161 -0.2989
C15B C -0.0978(4) 0.2118(4) -0.3803(7)
H10B H -0.0660 0.2369 -0.4452
C16B C -0.7498(4) 0.5161(4) -0.6782(7)
H11B H -0.7636 0.5641 -0.7496
H20? H -0.3759 -0.5655 -0.9475
H21? H -0.3686 -0.5251 -1.0928
loop_
_geom_bond_atom_site_label_1
_geom_bond_atom_site_label_2
_geom_bond_site_symmetry_1
_geom_bond_site_symmetry_2
O1 C2 1_555 1_555
N1 C1 1_555 1_555
C1 H1 1_555 1_555
C2 C3 1_555 1_555
Cd1 N1 1_555 1_555
N2 H2 1_555 1_555
C3 N3 1_555 1_555
N3 C14 1_555 1_555
O2 C8 1_555 1_555
N4 N2 1_555 1_555
C4 H3 1_555 1_555
C5 C8 1_555 1_555
C6 N4 1_555 1_555
H4 C6 1_555 1_555
C7 C4 1_555 1_555
C8 N2 1_555 1_555
C9 H5 1_555 1_555
C10 C3 1_555 1_555
C11 N1 1_555 1_555
H6 C11 1_555 1_555
C12 C9 1_555 1_555
H7 C12 1_555 1_555
C13 C5 1_555 1_555
H8 C13 1_555 1_555
C14 C9 1_555 1_555
H9 C14 1_555 1_555
C15 C1 1_555 1_555
H10 C15 1_555 1_555
C16 C2 1_555 1_555
H11 C16 1_555 1_555
O3 H12 1_555 1_555
C17 O3 1_555 1_555
H13 C17 1_555 1_555
H14 C17 1_555 1_555
H15 C17 1_555 1_555
C18 C19 1_555 1_555
C19 H16 1_555 1_555
H17 C19 1_555 1_555
C20 C18 1_555 1_555
H18 C20 1_555 1_555
H19 C20 1_555 1_555
O4 C18 1_555 1_555
O1A Cd1 1_555 1_555
O1C Cd1 1_555 1_555
O1B C2B 1_555 1_555
N1B Cd1 1_555 1_555
C1B N1B 1_555 1_555
H1B C1B 1_555 1_555
C2B C3B 1_555 1_555
Cd1A O1 1_555 1_555
Cd1A_2 O1B 1_555 1_555
N2B H2B 1_555 1_555
C3B N3B 1_555 1_555
N3A Cd1 1_555 1_555
N3C Cd1 1_555 1_555
N3B Cd1A_2 1_555 1_555
O2B C8B 1_555 1_555
N4B N2B 1_555 1_555
C4B H3B 1_555 1_555
C5B C8B 1_555 1_555
C6B N4B 1_555 1_555
H4B C6B 1_555 1_555
C7B C4B 1_555 1_555
C8B N2B 1_555 1_555
C9B H5B 1_555 1_555
C10B C3B 1_555 1_555
C11B N1B 1_555 1_555
H6B C11B 1_555 1_555
C12B C9B 1_555 1_555
H7B C12B 1_555 1_555
C13B C5B 1_555 1_555
H8B C13B 1_555 1_555
C14B N3B 1_555 1_555
H9B C14B 1_555 1_555
C15B C1B 1_555 1_555
H10B C15B 1_555 1_555
C16B C2B 1_555 1_555
H11B C16B 1_555 1_555
C18B C19B 1_555 1_555
C19B C20 1_555 1_555
H16B C19B 1_555 1_555
H17B C19B 1_555 1_555
C20B C19 1_555 1_555
H18B C20B 1_555 1_555
H19B C20B 1_555 1_555
O4B C18B 1_555 1_555
N3 Cd1A 1_555 1_555
C4 C16 1_555 1_555
C5 C11 1_555 1_555
C6 C7 1_555 1_555
C7 C10 1_555 1_555
C10 C12 1_555 1_555
C13 C15 1_555 1_555
C4B C16B 1_555 1_555
C5B C11B 1_555 1_555
C6B C7B 1_555 1_555
C7B C10B 1_555 1_555
C9B C14B 1_555 1_555
C10B C12B 1_555 1_555
C13B C15B 1_555 1_555
C18B C20B 1_555 1_555

#END
