
#######################################################################
#
#                 Cambridge Crystallographic Data Centre
#                                CCDC 
#
#######################################################################
#
# If this CIF has been generated from an entry in the Cambridge 
# Structural Database, then it will include bibliographic, chemical, 
# crystal, experimental, refinement or atomic coordinate data resulting 
# from the CCDC's data processing and validation procedures.
#
#######################################################################

data_AMUSOR
_symmetry_cell_setting           orthorhombic
_symmetry_space_group_name_H-M   'P 21 21 21'
_symmetry_Int_Tables_number      19
_space_group_name_Hall           'P 2ac 2ab'
loop_
_symmetry_equiv_pos_site_id
_symmetry_equiv_pos_as_xyz
1 x,y,z
2 1/2+x,1/2-y,-z
3 -x,1/2+y,1/2-z
4 1/2-x,-y,1/2+z
_cell_length_a                   20.2501(7)
_cell_length_b                   20.7455(8)
_cell_length_c                   23.6214(9)
_cell_angle_alpha                90
_cell_angle_beta                 90
_cell_angle_gamma                90
_cell_volume                     9923.31
loop_
_atom_site_label
_atom_site_type_symbol
_atom_site_fract_x
_atom_site_fract_y
_atom_site_fract_z
Ag1 Ag 0.74369(2) 0.94302(3) 0.893426(18)
Ag2 Ag 1.33002(2) 0.93577(2) 0.79044(2)
Ag3 Ag 0.26230(2) 0.95256(3) 0.91125(2)
Ag4 Ag 0.85112(2) 0.90125(2) 0.818130(18)
P1 P 1.26291(7) 0.85294(7) 0.75275(6)
P2 P 0.33957(6) 0.93500(7) 0.98389(6)
P3 P 0.79245(6) 0.93946(6) 0.73804(5)
P4 P 0.80987(6) 1.02272(7) 0.93497(6)
N1 N 1.1010(2) 0.8901(2) 0.8603(2)
H1 H 1.0653 0.8719 0.8462
N2 N 0.59299(19) 0.89235(19) 0.78125(17)
H2 H 0.5676 0.9130 0.7570
N3 N 0.5027(2) 0.8907(2) 0.87390(18)
H3 H 0.5407 0.9017 0.8891
N4 N 1.01021(19) 0.9639(2) 0.9270(2)
H4 H 1.0324 1.0001 0.9315
O1 O 0.69015(17) 0.88958(17) 0.82744(16)
O2 O 0.91646(17) 0.91872(16) 0.89374(16)
O3 O 0.39288(18) 0.90543(19) 0.87161(17)
O4 O 1.19548(18) 0.9424(2) 0.83820(16)
O5 O 1.3157(4) 1.0386(3) 0.8262(4)
C1 C 0.5691(2) 0.8302(2) 0.8041(2)
H7 H 0.6010 0.8151 0.8335
C2 C 0.5015(2) 0.8385(2) 0.8319(2)
H8 H 0.4689 0.8503 0.8017
C3 C 0.4799(3) 0.7745(2) 0.8581(2)
H9 H 0.5123 0.7609 0.8871
H10 H 0.4365 0.7797 0.8767
C4 C 0.4753(3) 0.7234(3) 0.8120(3)
H11 H 0.4620 0.6818 0.8292
H12 H 0.4409 0.7360 0.7844
C5 C 0.5399(4) 0.7150(3) 0.7819(4)
H13 H 0.5343 0.6836 0.7507
H14 H 0.5730 0.6974 0.8086
C6 C 0.5655(3) 0.7795(3) 0.7575(3)
H15 H 0.6098 0.7730 0.7409
H16 H 0.5355 0.7944 0.7272
C7 C 0.6502(2) 0.9187(2) 0.7951(2)
C8 C 0.6652(2) 0.9839(2) 0.77378(19)
C9 C 0.6174(2) 1.0318(2) 0.7788(2)
H17 H 0.5750 1.0210 0.7931
C10 C 0.6303(3) 1.0952(3) 0.7633(2)
H18 H 0.5974 1.1274 0.7679
C11 C 0.6908(3) 1.1109(3) 0.7412(2)
H19 H 0.7002 1.1542 0.7309
C12 C 0.7379(3) 1.0637(2) 0.7340(2)
H20 H 0.7790 1.0752 0.7174
C13 C 0.7279(2) 1.0004(2) 0.7500(2)
C14 C 0.7508(3) 0.8759(2) 0.6982(2)
C15 C 0.6976(3) 0.8892(3) 0.6620(2)
H21 H 0.6823 0.9322 0.6578
C16 C 0.6678(3) 0.8402(3) 0.6328(2)
H22 H 0.6315 0.8493 0.6086
C17 C 0.6905(3) 0.7770(3) 0.6384(3)
H23 H 0.6700 0.7429 0.6180
C18 C 0.7425(4) 0.7648(3) 0.6736(3)
H24 H 0.7578 0.7218 0.6779
C19 C 0.7733(3) 0.8138(3) 0.7033(3)
H25 H 0.8099 0.8045 0.7270
C20 C 0.8476(2) 0.9791(3) 0.6880(2)
C21 C 0.8367(4) 0.9808(3) 0.6308(3)
H26 H 0.8004 0.9581 0.6149
C22 C 0.8791(5) 1.0161(4) 0.5956(3)
H27 H 0.8706 1.0189 0.5562
C23 C 0.9333(4) 1.0469(4) 0.6186(3)
H28 H 0.9633 1.0691 0.5946
C24 C 0.9441(3) 1.0457(4) 0.6752(4)
H29 H 0.9802 1.0688 0.6909
C25 C 0.9027(3) 1.0111(4) 0.7097(3)
H30 H 0.9118 1.0089 0.7491
C26 C 0.7629(3) 1.0915(3) 0.9617(2)
C27 C 0.6992(3) 1.0841(4) 0.9784(3)
H31 H 0.6770 1.0448 0.9705
C28 C 0.6660(5) 1.1329(5) 1.0068(3)
H32 H 0.6218 1.1259 1.0189
C29 C 0.6956(5) 1.1912(6) 1.0177(3)
H33 H 0.6718 1.2245 1.0362
C30 C 0.7611(5) 1.2009(4) 1.0013(4)
H34 H 0.7824 1.2407 1.0091
C31 C 0.7947(4) 1.1523(4) 0.9739(3)
H35 H 0.8392 1.1589 0.9628
C32 C 0.8702(2) 1.0581(2) 0.8864(2)
C33 C 0.8528(3) 1.1133(3) 0.8573(3)
H36 H 0.8094 1.1301 0.8614
C34 C 0.8974(3) 1.1446(3) 0.8224(3)
H37 H 0.8844 1.1826 0.8030
C35 C 0.9615(3) 1.1207(3) 0.8156(3)
H38 H 0.9927 1.1429 0.7928
C36 C 0.9784(3) 1.0637(3) 0.8429(3)
H39 H 1.0212 1.0460 0.8377
C37 C 0.9331(2) 1.0320(2) 0.8782(2)
C38 C 1.1824(3) 0.7552(3) 0.7988(2)
H40 H 1.1501 0.7667 0.7714
C39 C 0.4490(3) 0.9214(2) 0.8897(2)
C40 C 1.2417(3) 0.7894(2) 0.8021(2)
C41 C 1.1707(3) 0.7037(3) 0.8362(3)
H41 H 1.1307 0.6799 0.8338
C42 C 1.2171(4) 0.6878(3) 0.8760(3)
H42 H 1.2092 0.6529 0.9011
C43 C 1.2761(4) 0.7228(3) 0.8798(3)
H43 H 1.3082 0.7115 0.9074
C44 C 1.2875(3) 0.7734(3) 0.8437(3)
H44 H 1.3270 0.7977 0.8471
C45 C 1.3053(3) 0.8097(3) 0.6965(2)
C46 C 1.3644(3) 0.8364(3) 0.6759(3)
H45 H 1.3789 0.8772 0.6893
C47 C 1.4018(4) 0.8031(4) 0.6360(3)
H46 H 1.4429 0.8202 0.6237
C48 C 1.3800(4) 0.7460(4) 0.6144(3)
H47 H 1.4048 0.7245 0.5860
C49 C 1.3211(3) 0.7193(3) 0.6341(3)
H48 H 1.3064 0.6791 0.6196
C50 C 1.2843(3) 0.7509(3) 0.6743(3)
H49 H 1.2441 0.7325 0.6871
C51 C 1.1811(3) 0.8754(3) 0.7257(2)
C52 C 1.1653(4) 0.8645(3) 0.6696(3)
H50 H 1.1979 0.8480 0.6446
C53 C 1.1017(4) 0.8776(4) 0.6491(3)
H51 H 1.0915 0.8697 0.6105
C54 C 1.0536(4) 0.9021(4) 0.6850(3)
H52 H 1.0107 0.9111 0.6709
C55 C 1.0685(3) 0.9131(4) 0.7411(3)
H53 H 1.0354 0.9296 0.7657
C56 C 1.1315(3) 0.9005(3) 0.7622(3)
C57 C 1.1453(3) 0.9123(2) 0.8244(2)
C58 C 0.4115(3) 0.9873(3) 0.9726(3)
C59 C 0.4193(4) 1.0419(4) 1.0057(4)
H54 H 0.3888 1.0498 1.0355
C60 C 0.4700(5) 1.0854(5) 0.9967(5)
H55 H 0.4749 1.1220 1.0204
C61 C 0.5134(5) 1.0748(5) 0.9529(5)
H56 H 0.5473 1.1052 0.9451
C62 C 0.5076(4) 1.0200(4) 0.9201(4)
H57 H 0.5388 1.0122 0.8909
C63 C 0.4568(3) 0.9760(3) 0.9292(3)
C64 C 0.3729(2) 0.8545(3) 0.9960(2)
C65 C 0.4382(3) 0.8435(3) 1.0099(2)
H58 H 0.4690 0.8780 1.0096
C66 C 0.4582(3) 0.7823(4) 1.0243(3)
H59 H 0.5032 0.7745 1.0332
C67 C 0.4132(3) 0.7318(4) 1.0259(3)
H60 H 0.4270 0.6900 1.0372
C68 C 0.3483(3) 0.7427(3) 1.0110(3)
H61 H 0.3174 0.7082 1.0112
C69 C 0.3284(3) 0.8035(3) 0.9960(2)
H62 H 0.2837 0.8109 0.9854
C70 C 0.3101(3) 0.9561(3) 1.0551(3)
C71 C 0.2499(4) 0.9885(3) 1.0591(3)
H63 H 0.2273 1.0019 1.0259
C72 C 0.2233(5) 1.0009(4) 1.1118(5)
H64 H 0.1813 1.0209 1.1153
C73 C 0.2591(6) 0.9835(5) 1.1595(5)
H65 H 0.2414 0.9932 1.1958
C74 C 0.3443(4) 0.9394(5) 1.1023(3)
H66 H 0.3858 0.9184 1.0990
C75 C 1.1073(2) 0.8936(3) 0.9224(2)
H67 H 1.1358 0.9313 0.9319
C76 C 1.1394(3) 0.8330(3) 0.9466(2)
H68 H 1.1120 0.7950 0.9371
H69 H 1.1834 0.8269 0.9292
C77 C 1.0397(2) 0.9043(3) 0.9487(2)
H70 H 1.0104 0.8673 0.9385
C78 C 0.9523(2) 0.9669(3) 0.9008(2)
C79 C 1.0449(3) 0.9083(3) 1.0128(2)
H71 H 1.0001 0.9123 1.0292
H72 H 1.0703 0.9473 1.0233
C80 C 1.0790(3) 0.8486(3) 1.0377(3)
H73 H 1.0845 0.8542 1.0790
H74 H 1.0509 0.8102 1.0313
C81 C 1.1467(3) 0.8378(3) 1.0102(2)
H75 H 1.1764 0.8741 1.0198
H76 H 1.1666 0.7977 1.0251
C82 C 0.8538(3) 0.9993(3) 0.9986(2)
C83 C 0.8316(3) 0.9458(3) 1.0283(2)
H77 H 0.7991 0.9181 1.0125
C84 C 0.8581(3) 0.9334(3) 1.0823(3)
H78 H 0.8419 0.8980 1.1038
C85 C 0.9071(3) 0.9719(3) 1.1045(2)
H79 H 0.9253 0.9623 1.1406
C86 C 0.9294(3) 1.0239(3) 1.0746(2)
H80 H 0.9629 1.0506 1.0902
C87 C 0.9034(2) 1.0380(3) 1.0215(2)
H81 H 0.9195 1.0740 1.0008
C91 C 0.3181(6) 0.9533(6) 1.1562(4)
H91 H 0.3415 0.9417 1.1895
C93 C 1.3655(14) 1.0977(9) 0.8258(17)
H95 H 1.3414 1.1374 0.8169
H96 H 1.3997 1.0904 0.7971
H97 H 1.3862 1.1018 0.8631
Ag3_2 Ag 1.26230(2) 0.95256(3) 0.91125(2)
O4_2 O 0.19548(18) 0.9424(2) 0.83820(16)
B1 B 0.4580(4) 0.9969(4) 0.7191(4)
F1 F 0.5027(2) 0.94950(19) 0.69909(18)
F2 F 0.4518(2) 0.9828(3) 0.7767(2)
F3 F 0.3993(3) 0.9908(3) 0.6934(3)
F4 F 0.48423(18) 1.05688(18) 0.71238(19)
B2 B 0.9734(4) 0.7675(4) 0.8011(4)
F5 F 0.9319(3) 0.7195(3) 0.8171(3)
F6 F 0.9401(3) 0.8182(3) 0.7779(3)
F7 F 1.0084(3) 0.7904(3) 0.8465(2)
F8 F 1.0195(3) 0.7451(3) 0.7632(2)
B3 B 0.6394(3) 0.8579(4) 0.9692(3)
F9 F 0.6157(2) 0.80785(19) 0.93583(17)
F10 F 0.62368(19) 0.91635(18) 0.94326(18)
F11 F 0.70750(19) 0.8543(2) 0.9719(2)
F12 F 0.6113(3) 0.8549(3) 1.02156(19)
B4 B 0.5391(9) 0.7638(9) 0.5055(8)
F13 F 0.4807(3) 0.7319(3) 0.5014(3)
F14 F 0.5416(5) 0.8038(5) 0.5462(4)
F15 F 0.5361(6) 0.8118(6) 0.4581(5)
F16 F 0.5891(5) 0.7300(5) 0.4886(9)
O6 O 0.2241(9) 1.0679(4) 0.9189(6)
C92 C 0.2537(11) 1.1209(6) 0.9461(9)
H92 H 0.2406 1.1213 0.9861
H93 H 0.2392 1.1609 0.9279
H94 H 0.3018 1.1172 0.9434
O7 O 0.8200(3) 0.8019(4) 0.8617(3)
C88 C 0.7689(5) 0.7559(4) 0.8551(4)
H82 H 0.7261 0.7765 0.8619
H83 H 0.7752 0.7208 0.8824
H84 H 0.7700 0.7385 0.8166
O8 O 0.0837(6) 0.0793(6) 0.9547(5)
H5 H 0.1183 0.0611 0.9433
C89 C 0.0932(6) 0.1012(6) 1.0104(6)
H85 H 0.1373 0.1203 1.0138
H86 H 0.0893 0.0648 1.0367
H87 H 0.0597 0.1336 1.0195
O9 O 0.1418(5) 0.1238(8) 0.8348(13)
H6 H 0.1571 0.0983 0.8591
C90 C 0.180(3) 0.1172(14) 0.7803(8)
H88 H 0.1718 0.1547 0.7561
H89 H 0.1664 0.0779 0.7606
H90 H 0.2275 0.1147 0.7889
O10 O 0.9266(7) 0.7364(9) 0.6212(7)
H98 H 0.9418(11) 0.7850(11) 0.6334(10)
H99 H 0.9207(14) 0.7202(13) 0.5992(11)
loop_
_geom_bond_atom_site_label_1
_geom_bond_atom_site_label_2
_geom_bond_site_symmetry_1
_geom_bond_site_symmetry_2
Ag1 P4 1_555 1_555
Ag2 P1 1_555 1_555
Ag3 P2 1_555 1_555
Ag4 P3 1_555 1_555
P1 C40 1_555 1_555
P2 C58 1_555 1_555
P3 C13 1_555 1_555
P4 C26 1_555 1_555
B1 F1 1_555 1_555
B2 F5 1_555 1_555
B3 F9 1_555 1_555
B4 F13 1_555 1_555
F2 B1 1_555 1_555
F3 B1 1_555 1_555
F4 B1 1_555 1_555
F6 B2 1_555 1_555
F7 B2 1_555 1_555
F8 B2 1_555 1_555
F10 B3 1_555 1_555
F11 B3 1_555 1_555
F12 B3 1_555 1_555
F14 B4 1_555 1_555
F15 B4 1_555 1_555
F16 B4 1_555 1_555
N1 H1 1_555 1_555
N2 H2 1_555 1_555
N3 H3 1_555 1_555
N4 H4 1_555 1_555
O1 Ag1 1_555 1_555
O2 Ag4 1_555 1_555
O3 C39 1_555 1_555
O4 C57 1_555 1_555
O5 Ag2 1_555 1_555
O6 C92 1_555 1_555
O7 C88 1_555 1_555
O8 H5 1_555 1_555
O9 H6 1_555 1_555
O10 H98 1_555 1_555
C1 N2 1_555 1_555
H7 C1 1_555 1_555
C2 N3 1_555 1_555
H8 C2 1_555 1_555
C3 C2 1_555 1_555
H9 C3 1_555 1_555
H10 C3 1_555 1_555
C4 C3 1_555 1_555
H11 C4 1_555 1_555
H12 C4 1_555 1_555
C5 C4 1_555 1_555
H13 C5 1_555 1_555
H14 C5 1_555 1_555
C6 C1 1_555 1_555
H15 C6 1_555 1_555
H16 C6 1_555 1_555
C7 N2 1_555 1_555
C8 C7 1_555 1_555
C9 C8 1_555 1_555
H17 C9 1_555 1_555
C10 C9 1_555 1_555
H18 C10 1_555 1_555
C11 C10 1_555 1_555
H19 C11 1_555 1_555
C12 C11 1_555 1_555
H20 C12 1_555 1_555
C13 C8 1_555 1_555
C14 P3 1_555 1_555
C15 C14 1_555 1_555
H21 C15 1_555 1_555
C16 C15 1_555 1_555
H22 C16 1_555 1_555
C17 C16 1_555 1_555
H23 C17 1_555 1_555
C18 C17 1_555 1_555
H24 C18 1_555 1_555
C19 C14 1_555 1_555
H25 C19 1_555 1_555
C20 P3 1_555 1_555
C21 C20 1_555 1_555
H26 C21 1_555 1_555
C22 C21 1_555 1_555
H27 C22 1_555 1_555
C23 C22 1_555 1_555
H28 C23 1_555 1_555
C24 C23 1_555 1_555
H29 C24 1_555 1_555
C25 C20 1_555 1_555
H30 C25 1_555 1_555
C26 C27 1_555 1_555
C27 H31 1_555 1_555
C28 C27 1_555 1_555
H32 C28 1_555 1_555
C29 C28 1_555 1_555
H33 C29 1_555 1_555
C30 C29 1_555 1_555
H34 C30 1_555 1_555
C31 C26 1_555 1_555
H35 C31 1_555 1_555
C32 P4 1_555 1_555
C33 C32 1_555 1_555
H36 C33 1_555 1_555
C34 C33 1_555 1_555
H37 C34 1_555 1_555
C35 C34 1_555 1_555
H38 C35 1_555 1_555
C36 C35 1_555 1_555
H39 C36 1_555 1_555
C37 C32 1_555 1_555
C38 H40 1_555 1_555
C39 N3 1_555 1_555
C40 C38 1_555 1_555
C41 C38 1_555 1_555
H41 C41 1_555 1_555
C42 C41 1_555 1_555
H42 C42 1_555 1_555
C43 C42 1_555 1_555
H43 C43 1_555 1_555
C44 C40 1_555 1_555
H44 C44 1_555 1_555
C45 P1 1_555 1_555
C46 C45 1_555 1_555
H45 C46 1_555 1_555
C47 C46 1_555 1_555
H46 C47 1_555 1_555
C48 C47 1_555 1_555
H47 C48 1_555 1_555
C49 C48 1_555 1_555
H48 C49 1_555 1_555
C50 C45 1_555 1_555
H49 C50 1_555 1_555
C51 P1 1_555 1_555
C52 C51 1_555 1_555
H50 C52 1_555 1_555
C53 C52 1_555 1_555
H51 C53 1_555 1_555
C54 C53 1_555 1_555
H52 C54 1_555 1_555
C55 C54 1_555 1_555
H53 C55 1_555 1_555
C56 C51 1_555 1_555
C57 N1 1_555 1_555
C58 C59 1_555 1_555
C59 H54 1_555 1_555
C60 C59 1_555 1_555
H55 C60 1_555 1_555
C61 C60 1_555 1_555
H56 C61 1_555 1_555
C62 C61 1_555 1_555
H57 C62 1_555 1_555
C63 C39 1_555 1_555
C64 P2 1_555 1_555
C65 C64 1_555 1_555
H58 C65 1_555 1_555
C66 C65 1_555 1_555
H59 C66 1_555 1_555
C67 C66 1_555 1_555
H60 C67 1_555 1_555
C68 C67 1_555 1_555
H61 C68 1_555 1_555
C69 C64 1_555 1_555
H62 C69 1_555 1_555
C70 P2 1_555 1_555
C71 C70 1_555 1_555
H63 C71 1_555 1_555
C72 C71 1_555 1_555
H64 C72 1_555 1_555
C73 C72 1_555 1_555
H65 C73 1_555 1_555
C74 C70 1_555 1_555
H66 C74 1_555 1_555
C75 N1 1_555 1_555
H67 C75 1_555 1_555
C76 C75 1_555 1_555
H68 C76 1_555 1_555
H69 C76 1_555 1_555
C77 N4 1_555 1_555
H70 C77 1_555 1_555
C78 N4 1_555 1_555
C79 C77 1_555 1_555
H71 C79 1_555 1_555
H72 C79 1_555 1_555
C80 C79 1_555 1_555
H73 C80 1_555 1_555
H74 C80 1_555 1_555
C81 C76 1_555 1_555
H75 C81 1_555 1_555
H76 C81 1_555 1_555
C82 P4 1_555 1_555
C83 C82 1_555 1_555
H77 C83 1_555 1_555
C84 C83 1_555 1_555
H78 C84 1_555 1_555
C85 C84 1_555 1_555
H79 C85 1_555 1_555
C86 C85 1_555 1_555
H80 C86 1_555 1_555
C87 C82 1_555 1_555
H81 C87 1_555 1_555
C88 H82 1_555 1_555
H83 C88 1_555 1_555
H84 C88 1_555 1_555
C89 O8 1_555 1_555
H85 C89 1_555 1_555
H86 C89 1_555 1_555
H87 C89 1_555 1_555
C90 O9 1_555 1_555
H88 C90 1_555 1_555
H89 C90 1_555 1_555
H90 C90 1_555 1_555
C91 C73 1_555 1_555
H91 C91 1_555 1_555
C92 H92 1_555 1_555
H93 C92 1_555 1_555
H94 C92 1_555 1_555
C93 O5 1_555 1_555
H95 C93 1_555 1_555
H96 C93 1_555 1_555
H97 C93 1_555 1_555
H99 O10 1_555 1_555
Ag3_2 O4 1_555 1_555
O4_2 Ag3 1_555 1_555
O1 C7 1_555 1_555
O2 C78 1_555 1_555
C1 C2 1_555 1_555
C5 C6 1_555 1_555
C12 C13 1_555 1_555
C18 C19 1_555 1_555
C24 C25 1_555 1_555
C30 C31 1_555 1_555
C36 C37 1_555 1_555
C37 C78 1_555 1_555
C43 C44 1_555 1_555
C49 C50 1_555 1_555
C55 C56 1_555 1_555
C56 C57 1_555 1_555
C58 C63 1_555 1_555
C62 C63 1_555 1_555
C68 C69 1_555 1_555
C74 C91 1_555 1_555
C75 C77 1_555 1_555
C80 C81 1_555 1_555
C86 C87 1_555 1_555

#END
