
#######################################################################
#
#                 Cambridge Crystallographic Data Centre
#                                CCDC 
#
#######################################################################
#
# If this CIF has been generated from an entry in the Cambridge 
# Structural Database, then it will include bibliographic, chemical, 
# crystal, experimental, refinement or atomic coordinate data resulting 
# from the CCDC's data processing and validation procedures.
#
#######################################################################

data_AMUVEK
_symmetry_cell_setting           triclinic
_symmetry_space_group_name_H-M   'P -1'
_symmetry_Int_Tables_number      2
_space_group_name_Hall           '-P 1'
loop_
_symmetry_equiv_pos_site_id
_symmetry_equiv_pos_as_xyz
1 x,y,z
2 -x,-y,-z
_cell_length_a                   7.4355(15)
_cell_length_b                   13.304(3)
_cell_length_c                   15.205(3)
_cell_angle_alpha                112.80(3)
_cell_angle_beta                 91.77(3)
_cell_angle_gamma                93.50(3)
_cell_volume                     1381.56
loop_
_atom_site_label
_atom_site_type_symbol
_atom_site_fract_x
_atom_site_fract_y
_atom_site_fract_z
Co1 Co 1.0000 0.5000 0.0000
Co2 Co 0.71645(8) 0.65148(5) 0.11761(4)
Co3 Co 0.34394(8) 0.63041(5) -0.08488(5)
O1 O 0.5743(4) 0.6941(2) 0.0196(2)
O2 O 0.5251(4) 0.7713(2) -0.0811(2)
O3 O 0.9390(4) 0.6666(2) 0.0375(2)
O4 O 1.1866(4) 0.7498(3) 0.0081(2)
O5 O 1.2600(4) 0.5141(2) -0.0360(2)
H1 H 1.3150 0.5431 0.0265
O6 O 1.1055(4) 0.3467(3) -0.2244(2)
O7 O 0.9057(4) 0.4628(2) -0.1391(2)
O8 O 0.5396(4) 0.3957(3) -0.1463(2)
O9 O 0.5146(4) 0.5384(2) -0.1888(2)
N1 N 0.6617(5) 0.8076(3) 0.2243(3)
N2 N 0.4828(5) 0.9125(3) 0.3244(3)
N3 N 0.6483(6) 0.9404(3) 0.3720(3)
N4 N 0.0585(5) 1.3882(3) 0.2958(3)
N5 N -0.1706(5) 1.3797(3) 0.2009(3)
N6 N -0.0830(6) 1.4132(4) 0.3538(3)
C1 C 0.4931(7) 0.8352(4) 0.2375(4)
H2 H 0.3944 0.8044 0.1916
C2 C 0.7486(7) 0.8744(4) 0.3081(4)
H3 H 0.8746 0.8737 0.3201
C3 C 0.3234(7) 0.9671(4) 0.3675(4)
H4 H 0.3297 0.9809 0.4364
H5 H 0.2140 0.9177 0.3375
C4 C 0.3062(6) 1.0745(4) 0.3563(3)
C5 C 0.4060(6) 1.1047(4) 0.2939(3)
H6 H 0.4895 1.0575 0.2559
C6 C 0.3833(6) 1.2039(4) 0.2872(3)
H7 H 0.4519 1.2242 0.2441
C7 C 0.2620(6) 1.2748(4) 0.3423(3)
C8 C 0.1641(6) 1.2457(4) 0.4061(4)
H8 H 0.0837 1.2941 0.4456
C9 C 0.1844(6) 1.1449(4) 0.4120(4)
H9 H 0.1148 1.1239 0.4544
C10 C 0.2407(6) 1.3840(4) 0.3350(4)
H10 H 0.2623 1.4434 0.3992
H11 H 0.3320 1.3958 0.2932
C11 C 0.0054(6) 1.3678(4) 0.2063(3)
H12 H 0.0810 1.3476 0.1539
C12 C -0.2171(7) 1.4073(4) 0.2925(4)
H13 H -0.3369 1.4213 0.3111
C13 C 0.6126(6) 0.7695(4) -0.0108(3)
C14 C 0.7526(6) 0.8628(4) 0.0417(3)
C15 C 0.6892(6) 0.9661(4) 0.0696(3)
H14 H 0.5660 0.9718 0.0550
C16 C 0.7981(7) 1.0608(4) 0.1175(4)
H15 H 0.7496 1.1300 0.1369
C17 C 0.9785(7) 1.0539(4) 0.1369(4)
H16 H 1.0553 1.1183 0.1701
C18 C 1.0461(6) 0.9521(4) 0.1076(4)
H17 H 1.1713 0.9480 0.1190
C19 C 0.9368(6) 0.8554(4) 0.0619(3)
C20 C 1.0278(6) 0.7506(4) 0.0330(3)
C21 C 0.5664(6) 0.4459(4) -0.2009(3)
C22 C 0.6487(6) 0.3832(4) -0.2940(3)
C23 C 0.5340(6) 0.3470(4) -0.3764(3)
H18 H 0.4132 0.3671 -0.3724
C24 C 0.5942(6) 0.2822(4) -0.4636(3)
H19 H 0.5142 0.2577 -0.5190
C25 C 0.7698(7) 0.2524(4) -0.4713(4)
H20 H 0.8105 0.2071 -0.5314
C26 C 0.8860(7) 0.2898(4) -0.3896(3)
H21 H 1.0075 0.2709 -0.3950
C27 C 0.8289(6) 0.3536(4) -0.3011(3)
C28 C 0.9566(6) 0.3907(4) -0.2148(3)
Co2A Co 1.28355(8) 0.34852(5) -0.11761(4)
Co2A_2 Co 0.28355(8) 0.34852(5) -0.11761(4)
Co2_2 Co 1.71645(8) 0.65148(5) 0.11761(4)
Co2A_3 Co -0.71645(8) 1.34852(5) -0.11761(4)
Co3A Co 1.65606(8) 0.36959(5) 0.08488(5)
Co3_2 Co 1.34394(8) 0.63041(5) -0.08488(5)
Co3A_2 Co -0.34394(8) 1.36959(5) 0.08488(5)
Co3A_3 Co 0.65606(8) 0.36959(5) 0.08488(5)
O1A O 1.4257(4) 0.3059(2) -0.0196(2)
O2A O 1.4749(4) 0.2287(2) 0.0811(2)
O3A O 1.0610(4) 0.3334(2) -0.0375(2)
O4A O 0.8134(4) 0.2502(3) -0.0081(2)
O4_2 O 0.1866(4) 0.7498(3) 0.0081(2)
O4A_2 O 1.8134(4) 0.2502(3) -0.0081(2)
O5A O 0.7400(4) 0.4859(2) 0.0360(2)
O5_2 O 0.2600(4) 0.5141(2) -0.0360(2)
O5A_2 O 1.7400(4) 0.4859(2) 0.0360(2)
H1A H 0.6850 0.4569 -0.0265
H1_2 H 0.3150 0.5431 0.0265
H1A_2 H 1.6850 0.4569 -0.0265
O6A O 0.8945(4) 0.6533(3) 0.2244(2)
O7A O 1.0943(4) 0.5372(2) 0.1391(2)
O8A O 1.4604(4) 0.6043(3) 0.1463(2)
O8A_2 O 0.4604(4) 0.6043(3) 0.1463(2)
O8_2 O 1.5396(4) 0.3957(3) -0.1463(2)
O9A O 1.4854(4) 0.4616(2) 0.1888(2)
N1A N -0.6617(5) 1.1924(3) -0.2243(3)
N1A_2 N 1.3383(5) 0.1924(3) -0.2243(3)
N2A N -0.4828(5) 1.0875(3) -0.3244(3)
N3A N -0.6483(6) 1.0596(3) -0.3720(3)
N4A N -0.0585(5) 0.6118(3) -0.2958(3)
N5A N 0.1706(5) 0.6203(3) -0.2009(3)
N5_2 N 1.8294(5) 0.3797(3) 0.2009(3)
N6A N 0.0830(6) 0.5868(4) -0.3538(3)
C1A C -0.4931(7) 1.1648(4) -0.2375(4)
H2A H -0.3944 1.1956 -0.1916
C2A C -0.7486(7) 1.1256(4) -0.3081(4)
H3A H -0.8746 1.1263 -0.3201
C3A C -0.3234(7) 1.0329(4) -0.3675(4)
H4A H -0.3297 1.0191 -0.4364
H5A H -0.2140 1.0823 -0.3375
C4A C -0.3062(6) 0.9255(4) -0.3563(3)
C5A C -0.4060(6) 0.8953(4) -0.2939(3)
H6A H -0.4895 0.9425 -0.2559
C6A C -0.3833(6) 0.7961(4) -0.2872(3)
H7A H -0.4519 0.7758 -0.2441
C7A C -0.2620(6) 0.7252(4) -0.3423(3)
C8A C -0.1641(6) 0.7543(4) -0.4061(4)
H8A H -0.0837 0.7059 -0.4456
C9A C -0.1844(6) 0.8551(4) -0.4120(4)
H9A H -0.1148 0.8761 -0.4544
C10A C -0.2407(6) 0.6160(4) -0.3350(4)
H10A H -0.2623 0.5566 -0.3992
H11A H -0.3320 0.6042 -0.2932
C11A C -0.0054(6) 0.6322(4) -0.2063(3)
H12A H -0.0810 0.6524 -0.1539
C12A C 0.2171(7) 0.5927(4) -0.2925(4)
H13A H 0.3369 0.5787 -0.3111
C13A C 1.3874(6) 0.2305(4) 0.0108(3)
C14A C 1.2474(6) 0.1372(4) -0.0417(3)
C15A C 1.3108(6) 0.0339(4) -0.0696(3)
H14A H 1.4340 0.0282 -0.0550
C16A C 1.2019(7) -0.0608(4) -0.1175(4)
H15A H 1.2504 -0.1300 -0.1369
C17A C 1.0215(7) -0.0539(4) -0.1369(4)
H16A H 0.9447 -0.1183 -0.1701
C18A C 0.9539(6) 0.0479(4) -0.1076(4)
H17A H 0.8287 0.0520 -0.1190
C19A C 1.0632(6) 0.1446(4) -0.0619(3)
C20A C 0.9722(6) 0.2494(4) -0.0330(3)
C21A C 1.4336(6) 0.5541(4) 0.2009(3)
C22A C 1.3513(6) 0.6168(4) 0.2940(3)
C23A C 1.4660(6) 0.6530(4) 0.3764(3)
H18A H 1.5868 0.6329 0.3724
C24A C 1.4058(6) 0.7178(4) 0.4636(3)
H19A H 1.4858 0.7423 0.5190
C25A C 1.2302(7) 0.7476(4) 0.4713(4)
H20A H 1.1895 0.7929 0.5314
C26A C 1.1140(7) 0.7102(4) 0.3896(3)
H21A H 0.9925 0.7291 0.3950
C27A C 1.1711(6) 0.6464(4) 0.3011(3)
C28A C 1.0434(6) 0.6093(4) 0.2148(3)
loop_
_geom_bond_atom_site_label_1
_geom_bond_atom_site_label_2
_geom_bond_site_symmetry_1
_geom_bond_site_symmetry_2
Co1 O3 1_555 1_555
Co2 O1 1_555 1_555
Co3 O1 1_555 1_555
O1 C13 1_555 1_555
O2 Co3 1_555 1_555
O3 Co2 1_555 1_555
O4 C20 1_555 1_555
O5 Co1 1_555 1_555
H1 O5 1_555 1_555
O6 C28 1_555 1_555
O7 Co1 1_555 1_555
O8 C21 1_555 1_555
O9 Co3 1_555 1_555
N1 Co2 1_555 1_555
N2 N3 1_555 1_555
N3 C2 1_555 1_555
N4 N6 1_555 1_555
N5 C11 1_555 1_555
N6 C12 1_555 1_555
C1 N1 1_555 1_555
H2 C1 1_555 1_555
C2 N1 1_555 1_555
H3 C2 1_555 1_555
C3 N2 1_555 1_555
H4 C3 1_555 1_555
H5 C3 1_555 1_555
C4 C3 1_555 1_555
C5 C4 1_555 1_555
H6 C5 1_555 1_555
C6 C5 1_555 1_555
H7 C6 1_555 1_555
C7 C6 1_555 1_555
C8 C7 1_555 1_555
H8 C8 1_555 1_555
C9 C4 1_555 1_555
H9 C9 1_555 1_555
C10 N4 1_555 1_555
H10 C10 1_555 1_555
H11 C10 1_555 1_555
C11 N4 1_555 1_555
H12 C11 1_555 1_555
C12 N5 1_555 1_555
H13 C12 1_555 1_555
C13 O2 1_555 1_555
C14 C13 1_555 1_555
C15 C14 1_555 1_555
H14 C15 1_555 1_555
C16 C15 1_555 1_555
H15 C16 1_555 1_555
C17 C16 1_555 1_555
H16 C17 1_555 1_555
C18 C17 1_555 1_555
H17 C18 1_555 1_555
C19 C14 1_555 1_555
C20 O3 1_555 1_555
C21 O9 1_555 1_555
C22 C21 1_555 1_555
C23 C22 1_555 1_555
H18 C23 1_555 1_555
C24 C23 1_555 1_555
H19 C24 1_555 1_555
C25 C24 1_555 1_555
H20 C25 1_555 1_555
C26 C25 1_555 1_555
H21 C26 1_555 1_555
C27 C22 1_555 1_555
C28 O7 1_555 1_555
Co2A O5 1_555 1_555
Co2A_2 O8 1_555 1_555
Co2_2 O5A_2 1_555 1_555
Co2A_3 N1A 1_555 1_555
Co3A O1A 1_555 1_555
Co3_2 O4 1_555 1_555
Co3A_2 N5 1_555 1_555
Co3A_3 O4A 1_555 1_555
O1A Co2A 1_555 1_555
O2A Co3A 1_555 1_555
O3A Co1 1_555 1_555
O4A C20A 1_555 1_555
O4_2 Co3 1_555 1_555
O4A_2 Co3A 1_555 1_555
O5A Co1 1_555 1_555
O5_2 Co3 1_555 1_555
O5A_2 Co3A 1_555 1_555
H1A O5A 1_555 1_555
H1_2 O5_2 1_555 1_555
H1A_2 O5A_2 1_555 1_555
O6A Co2 1_555 1_555
O7A Co1 1_555 1_555
O8A Co2_2 1_555 1_555
O8A_2 Co2 1_555 1_555
O8_2 Co2A 1_555 1_555
O9A Co3A 1_555 1_555
N1A C1A 1_555 1_555
N1A_2 Co2A 1_555 1_555
N2A N3A 1_555 1_555
N3A C2A 1_555 1_555
N4A N6A 1_555 1_555
N5A Co3 1_555 1_555
N5_2 Co3A 1_555 1_555
N6A C12A 1_555 1_555
C1A N2A 1_555 1_555
H2A C1A 1_555 1_555
C2A N1A 1_555 1_555
H3A C2A 1_555 1_555
C3A N2A 1_555 1_555
H4A C3A 1_555 1_555
H5A C3A 1_555 1_555
C4A C3A 1_555 1_555
C5A C4A 1_555 1_555
H6A C5A 1_555 1_555
C6A C5A 1_555 1_555
H7A C6A 1_555 1_555
C7A C6A 1_555 1_555
C8A C7A 1_555 1_555
H8A C8A 1_555 1_555
C9A C4A 1_555 1_555
H9A C9A 1_555 1_555
C10A N4A 1_555 1_555
H10A C10A 1_555 1_555
H11A C10A 1_555 1_555
C11A N4A 1_555 1_555
H12A C11A 1_555 1_555
C12A N5A 1_555 1_555
H13A C12A 1_555 1_555
C13A O1A 1_555 1_555
C14A C13A 1_555 1_555
C15A C14A 1_555 1_555
H14A C15A 1_555 1_555
C16A C15A 1_555 1_555
H15A C16A 1_555 1_555
C17A C16A 1_555 1_555
H16A C17A 1_555 1_555
C18A C17A 1_555 1_555
H17A C18A 1_555 1_555
C19A C14A 1_555 1_555
C20A O3A 1_555 1_555
C21A O8A 1_555 1_555
C22A C21A 1_555 1_555
C23A C22A 1_555 1_555
H18A C23A 1_555 1_555
C24A C23A 1_555 1_555
H19A C24A 1_555 1_555
C25A C24A 1_555 1_555
H20A C25A 1_555 1_555
C26A C25A 1_555 1_555
H21A C26A 1_555 1_555
C27A C22A 1_555 1_555
C28A O6A 1_555 1_555
Co2 O5A 1_555 1_555
O5 Co3_2 1_555 1_555
O6 Co2A 1_555 1_555
N2 C1 1_555 1_555
C7 C10 1_555 1_555
C8 C9 1_555 1_555
C18 C19 1_555 1_555
C19 C20 1_555 1_555
C26 C27 1_555 1_555
C27 C28 1_555 1_555
Co2A O3A 1_555 1_555
Co2A_2 O5_2 1_555 1_555
Co3A_3 O5A 1_555 1_555
O2A C13A 1_555 1_555
O7A C28A 1_555 1_555
O9A C21A 1_555 1_555
N5A C11A 1_555 1_555
C7A C10A 1_555 1_555
C8A C9A 1_555 1_555
C18A C19A 1_555 1_555
C19A C20A 1_555 1_555
C26A C27A 1_555 1_555
C27A C28A 1_555 1_555

#END
