
#######################################################################
#
#                 Cambridge Crystallographic Data Centre
#                                CCDC 
#
#######################################################################
#
# If this CIF has been generated from an entry in the Cambridge 
# Structural Database, then it will include bibliographic, chemical, 
# crystal, experimental, refinement or atomic coordinate data resulting 
# from the CCDC's data processing and validation procedures.
#
#######################################################################

data_ANABOH
_symmetry_cell_setting           monoclinic
_symmetry_space_group_name_H-M   'C 2/c'
_symmetry_Int_Tables_number      15
_space_group_name_Hall           '-C 2yn'
loop_
_symmetry_equiv_pos_site_id
_symmetry_equiv_pos_as_xyz
1 x,y,z
2 -x,y,1/2-z
3 1/2+x,1/2+y,z
4 1/2-x,1/2+y,1/2-z
5 -x,-y,-z
6 x,-y,1/2+z
7 1/2-x,1/2-y,-z
8 1/2+x,1/2-y,1/2+z
_cell_length_a                   30.740(3)
_cell_length_b                   6.8408(5)
_cell_length_c                   15.7361(18)
_cell_angle_alpha                90
_cell_angle_beta                 100.679(2)
_cell_angle_gamma                90
_cell_volume                     3251.77
loop_
_atom_site_label
_atom_site_type_symbol
_atom_site_fract_x
_atom_site_fract_y
_atom_site_fract_z
Hg1 Hg 0.424486(11) 0.52160(6) 0.62534(2)
Sr1 Sr 0.27761(2) 0.23803(11) 0.32698(4)
N1 N 0.4088(2) 0.6708(11) 0.4883(4)
N2 N 0.3593(2) 0.1843(12) 0.4373(5)
N3 N 0.5042(3) 0.6280(17) 0.6361(6)
O1 O 0.34176(19) 0.5532(9) 0.5680(3)
O2 O 0.29485(18) 0.5403(9) 0.4424(4)
O3 O 0.29820(18) 0.5632(8) 0.2608(3)
O4 O 0.28887(17) 0.8740(8) 0.2947(3)
O5 O 0.2669(2) -0.0113(8) 0.4523(4)
H1 H 0.2725 -0.1296 0.4409
H2 H 0.2421 -0.0044 0.4683
O6 O 0.3082(2) 0.1873(9) 0.1881(4)
H3 H 0.3111 0.2911 0.1603
H4 H 0.2966 0.0960 0.1553
O7 O 0.20088(19) 0.3140(9) 0.3933(4)
H5 H 0.1864 0.2101 0.3978
H6 H 0.2066 0.3732 0.4417
S1 S 0.43041(9) 0.1764(5) 0.58106(19)
S2 S 0.58584(8) 0.7002(4) 0.74552(17)
C1 C 0.3326(3) 0.5778(11) 0.4886(5)
C2 C 0.3109(3) 0.7190(12) 0.3006(4)
C3 C 0.3676(2) 0.6601(12) 0.4421(5)
C4 C 0.3571(2) 0.7227(11) 0.3569(5)
C5 C 0.3912(3) 0.8084(13) 0.3202(5)
H7 H 0.3850 0.8581 0.2642
C6 C 0.4334(3) 0.8181(15) 0.3675(6)
H8 H 0.4564 0.8717 0.3440
C7 C 0.4409(3) 0.7456(13) 0.4511(6)
H9 H 0.4696 0.7491 0.4830
C8 C 0.3888(3) 0.1808(13) 0.4974(6)
C9 C 0.5372(3) 0.6576(15) 0.6829(6)
Hg1A Hg 0.575514(11) 0.52160(6) 0.87466(2)
Sr1C Sr 0.22239(2) 0.73803(11) 0.17302(4)
Sr1_2 Sr 0.27761(2) 1.23803(11) 0.32698(4)
O3C O 0.20180(18) 0.0632(8) 0.2392(3)
O4_2 O 0.28887(17) -0.1260(8) 0.2947(3)
O4C O 0.21113(17) 0.3740(8) 0.2053(3)
S2A S 0.41416(8) 0.7002(4) 0.75448(17)
loop_
_geom_bond_atom_site_label_1
_geom_bond_atom_site_label_2
_geom_bond_site_symmetry_1
_geom_bond_site_symmetry_2
Hg1 N1 1_555 1_555
Sr1 N2 1_555 1_555
N1 C3 1_555 1_555
N2 C8 1_555 1_555
N3 Hg1 1_555 1_555
O1 Hg1 1_555 1_555
O2 Sr1 1_555 1_555
O3 Sr1 1_555 1_555
O4 C2 1_555 1_555
O5 Sr1 1_555 1_555
H1 O5 1_555 1_555
H2 O5 1_555 1_555
O6 Sr1 1_555 1_555
H3 O6 1_555 1_555
H4 O6 1_555 1_555
O7 Sr1 1_555 1_555
H5 O7 1_555 1_555
H6 O7 1_555 1_555
S1 Hg1 1_555 1_555
S2 C9 1_555 1_555
C1 O1 1_555 1_555
C2 O3 1_555 1_555
C3 C1 1_555 1_555
C4 C2 1_555 1_555
C5 C4 1_555 1_555
H7 C5 1_555 1_555
C6 C5 1_555 1_555
H8 C6 1_555 1_555
C7 N1 1_555 1_555
H9 C7 1_555 1_555
C8 S1 1_555 1_555
C9 N3 1_555 1_555
Hg1A S2 1_555 1_555
Sr1C O3 1_555 1_555
Sr1_2 O4 1_555 1_555
O3C Sr1 1_555 1_555
O4_2 Sr1 1_555 1_555
O4C Sr1 1_555 1_555
S2A Hg1 1_555 1_555
O2 C1 1_555 1_555
O4 Sr1C 1_555 1_555
C3 C4 1_555 1_555
C6 C7 1_555 1_555
Sr1C O4C 1_555 1_555

#END
