
#######################################################################
#
#                 Cambridge Crystallographic Data Centre
#                                CCDC 
#
#######################################################################
#
# If this CIF has been generated from an entry in the Cambridge 
# Structural Database, then it will include bibliographic, chemical, 
# crystal, experimental, refinement or atomic coordinate data resulting 
# from the CCDC's data processing and validation procedures.
#
#######################################################################

data_ANAGUS
_symmetry_cell_setting           monoclinic
_symmetry_space_group_name_H-M   'C 2/c'
_symmetry_Int_Tables_number      15
_space_group_name_Hall           '-C 2yn'
loop_
_symmetry_equiv_pos_site_id
_symmetry_equiv_pos_as_xyz
1 x,y,z
2 -x,y,1/2-z
3 1/2+x,1/2+y,z
4 1/2-x,1/2+y,1/2-z
5 -x,-y,-z
6 x,-y,1/2+z
7 1/2-x,1/2-y,-z
8 1/2+x,1/2-y,1/2+z
_cell_length_a                   30.112(3)
_cell_length_b                   11.5175(13)
_cell_length_c                   14.1247(14)
_cell_angle_alpha                90
_cell_angle_beta                 92.3410(10)
_cell_angle_gamma                90
_cell_volume                     4894.57
loop_
_atom_site_label
_atom_site_type_symbol
_atom_site_fract_x
_atom_site_fract_y
_atom_site_fract_z
Ag1 Ag 0.499357(11) 0.30270(3) 0.64080(2)
N1 N 0.49655(10) 0.4951(3) 0.6266(2)
N2 N 0.49757(10) 1.1104(3) 0.6284(2)
O1 O 0.58552(8) 0.3058(2) 0.6448(2)
O2 O 0.58108(10) 0.2955(3) 0.8015(2)
O3 O 0.63214(10) 0.2513(3) 0.5116(2)
H1 H 0.6163 0.2773 0.5524
O4 O 0.67107(13) 0.3233(3) 0.3976(2)
C1 C 0.60234(13) 0.2971(3) 0.7287(3)
C2 C 0.65216(13) 0.2859(3) 0.7375(3)
C3 C 0.67086(15) 0.2046(3) 0.7995(3)
H5 H 0.6523 0.1592 0.8354
C4 C 0.71575(16) 0.1893(4) 0.8092(3)
H6 H 0.7276 0.1338 0.8509
C5 C 0.74339(15) 0.2567(5) 0.7569(4)
H7 H 0.7740 0.2461 0.7623
C6 C 0.72564(14) 0.3403(4) 0.6962(3)
H8 H 0.7446 0.3870 0.6624
C7 C 0.68019(12) 0.3555(3) 0.6849(3)
C8 C 0.66387(11) 0.4552(3) 0.6250(3)
C9 C 0.66120(13) 0.5638(3) 0.6684(3)
H9 H 0.6662 0.5700 0.7336
C10 C 0.65114(14) 0.6628(4) 0.6154(3)
H10 H 0.6489 0.7342 0.6455
C11 C 0.64463(14) 0.6553(4) 0.5198(3)
H11 H 0.6383 0.7220 0.4847
C12 C 0.64739(14) 0.5501(4) 0.4746(3)
H12 H 0.6436 0.5465 0.4090
C13 C 0.65583(12) 0.4490(3) 0.5262(3)
C14 C 0.65438(15) 0.3367(4) 0.4737(3)
C15 C 0.46043(13) 0.5558(3) 0.6478(3)
H13 H 0.4355 0.5151 0.6662
C16 C 0.45812(13) 0.6745(3) 0.6441(3)
H14 H 0.4321 0.7122 0.6593
C17 C 0.49491(12) 0.7392(3) 0.6173(3)
C18 C 0.53215(13) 0.6749(3) 0.5934(3)
H15 H 0.5573 0.7130 0.5734
C19 C 0.53188(13) 0.5560(3) 0.5994(3)
H16 H 0.5573 0.5157 0.5839
C20 C 0.46006(13) 1.0523(3) 0.6053(3)
H17 H 0.4343 1.0950 0.5920
C21 C 0.45754(13) 0.9337(3) 0.6001(3)
H18 H 0.4307 0.8977 0.5839
C22 C 0.49551(12) 0.8676(3) 0.6194(2)
C23 C 0.53436(13) 0.9282(3) 0.6417(3)
H19 H 0.5607 0.8881 0.6545
C24 C 0.53380(13) 1.0470(3) 0.6447(3)
H20 H 0.5604 1.0854 0.6591
Ag1_2 Ag 0.499357(11) 1.30270(3) 0.64080(2)
Ag1A Ag 0.500643(11) 0.30270(3) 0.85920(2)
N2_2 N 0.49757(10) 0.1104(3) 0.6284(2)
O2A O 0.41892(10) 0.2955(3) 0.6985(2)
O5 O 0.63950(9) -0.0248(3) 0.5085(2)
H2 H 0.6529 -0.0006 0.4631
O6 O 0.65071(12) -0.0496(3) 0.6597(2)
C25 C 0.66508(16) -0.0167(4) 0.5857(3)
C26 C 0.71054(16) 0.0308(5) 0.5758(4)
H21 H 0.7086 0.1098 0.5543
H22 H 0.7260 -0.0148 0.5307
H23 H 0.7265 0.0281 0.6361
O7 O 0.66475(11) 0.0841(3) 0.3564(2)
H3 H 0.6665 0.1564 0.3679
H4 H 0.6605 0.0748 0.2971
loop_
_geom_bond_atom_site_label_1
_geom_bond_atom_site_label_2
_geom_bond_site_symmetry_1
_geom_bond_site_symmetry_2
Ag1 N1 1_555 1_555
N1 C15 1_555 1_555
N2 C20 1_555 1_555
O1 Ag1 1_555 1_555
O2 C1 1_555 1_555
O3 H1 1_555 1_555
O4 C14 1_555 1_555
O5 H2 1_555 1_555
O6 C25 1_555 1_555
O7 H3 1_555 1_555
H4 O7 1_555 1_555
C1 O1 1_555 1_555
C2 C1 1_555 1_555
C3 C2 1_555 1_555
H5 C3 1_555 1_555
C4 C3 1_555 1_555
H6 C4 1_555 1_555
C5 C4 1_555 1_555
H7 C5 1_555 1_555
C6 C5 1_555 1_555
H8 C6 1_555 1_555
C7 C2 1_555 1_555
C8 C7 1_555 1_555
C9 C8 1_555 1_555
H9 C9 1_555 1_555
C10 C9 1_555 1_555
H10 C10 1_555 1_555
C11 C10 1_555 1_555
H11 C11 1_555 1_555
C12 C11 1_555 1_555
H12 C12 1_555 1_555
C13 C8 1_555 1_555
C14 O3 1_555 1_555
C15 H13 1_555 1_555
C16 C15 1_555 1_555
H14 C16 1_555 1_555
C17 C16 1_555 1_555
C18 C17 1_555 1_555
H15 C18 1_555 1_555
C19 N1 1_555 1_555
H16 C19 1_555 1_555
C20 H17 1_555 1_555
C21 C20 1_555 1_555
H18 C21 1_555 1_555
C22 C17 1_555 1_555
C23 C22 1_555 1_555
H19 C23 1_555 1_555
C24 N2 1_555 1_555
H20 C24 1_555 1_555
C25 O5 1_555 1_555
C26 C25 1_555 1_555
H21 C26 1_555 1_555
H22 C26 1_555 1_555
H23 C26 1_555 1_555
Ag1_2 N2 1_555 1_555
Ag1A O2 1_555 1_555
N2_2 Ag1 1_555 1_555
O2A Ag1 1_555 1_555
C6 C7 1_555 1_555
C12 C13 1_555 1_555
C13 C14 1_555 1_555
C18 C19 1_555 1_555
C21 C22 1_555 1_555
C23 C24 1_555 1_555

#END
