
#######################################################################
#
#                 Cambridge Crystallographic Data Centre
#                                CCDC 
#
#######################################################################
#
# If this CIF has been generated from an entry in the Cambridge 
# Structural Database, then it will include bibliographic, chemical, 
# crystal, experimental, refinement or atomic coordinate data resulting 
# from the CCDC's data processing and validation procedures.
#
#######################################################################

data_ANAHIH
_symmetry_cell_setting           triclinic
_symmetry_space_group_name_H-M   'P -1'
_symmetry_Int_Tables_number      2
_space_group_name_Hall           '-P 1'
loop_
_symmetry_equiv_pos_site_id
_symmetry_equiv_pos_as_xyz
1 x,y,z
2 -x,-y,-z
_cell_length_a                   9.236(7)
_cell_length_b                   11.675(9)
_cell_length_c                   12.352(9)
_cell_angle_alpha                93.103(15)
_cell_angle_beta                 98.542(17)
_cell_angle_gamma                94.712(15)
_cell_volume                     1309.72
loop_
_atom_site_label
_atom_site_type_symbol
_atom_site_fract_x
_atom_site_fract_y
_atom_site_fract_z
C1 C 0.9412(9) 0.0242(7) 0.5301(8)
C2 C 1.4384(10) -0.1095(7) 0.7386(8)
H1 H 1.3776 -0.1711 0.7561
C3 C 1.5834(14) -0.1108(12) 0.7346(12)
H2 H 1.6391 -0.1727 0.7491
C4 C 1.6301(15) -0.0144(15) 0.7081(14)
H3 H 1.7263 0.0094 0.7000
Cr1 Cr 1.0000 0.5000 0.5000
Cu1 Cu 1.18445(11) 0.02436(9) 0.68287(9)
Cu2 Cu 1.5000 0.5000 1.0000
Mo1 Mo 1.24398(8) 0.53087(6) 0.72982(7)
Mo2 Mo 1.24717(8) 0.30833(6) 0.54744(7)
Mo3 Mo 0.99038(8) 0.71854(6) 0.68406(7)
N1 N 1.115(2) 0.1803(10) 0.8548(9)
H4 H 1.0902 0.2293 0.8075
N2 N 1.1626(9) 0.0789(6) 0.8336(6)
C5 C 1.189(2) 0.0290(12) 0.9272(8)
H5 H 1.2240 -0.0430 0.9359
C6 C 1.159(2) 0.0996(15) 1.0062(8)
H6 H 1.1676 0.0859 1.0803
C7 C 1.113(2) 0.1931(12) 0.9615(10)
H7 H 1.0836 0.2567 0.9986
N3 N 1.3949(8) -0.0054(6) 0.7134(6)
N4 N 1.5110(12) 0.0494(12) 0.6932(14)
H8 H 1.5149 0.1186 0.6725
N5 N 1.570(2) 0.371(2) 0.974(2)
N6 N 1.710(3) 0.346(2) 0.999(4)
H9 H 1.7853 0.3945 1.0183
C8 C 1.711(3) 0.231(2) 0.990(3)
H10 H 1.7930 0.1901 1.0024
C9 C 1.572(4) 0.185(2) 0.959(6)
H11 H 1.5410 0.1073 0.9461
C10 C 1.485(3) 0.272(3) 0.949(5)
H12 H 1.3837 0.2645 0.9288
O1 O 1.0679(7) 0.5951(5) 0.7658(5)
O2 O 1.3741(8) 0.6439(6) 0.7660(7)
O3 O 1.2669(9) 0.4425(7) 0.8338(6)
O4 O 1.3381(6) 0.4521(5) 0.6207(6)
O5 O 1.2575(7) 0.2198(5) 0.6522(6)
O6 O 1.3902(7) 0.2808(6) 0.4780(6)
O7 O 1.0841(6) 0.2249(4) 0.4551(5)
O8 O 0.8519(8) 0.7400(6) 0.7578(6)
O9 O 1.1246(7) 0.8273(5) 0.7268(6)
O10 O 1.1395(6) 0.6230(5) 0.5819(5)
O11 O 1.0725(6) 0.4055(4) 0.6196(5)
O12 O 0.8530(6) 0.5711(4) 0.5765(4)
O13 O 0.9754(6) 0.0545(5) 0.6299(5)
O14 O 0.8183(6) 0.0328(5) 0.4733(5)
O15 O 1.6284(14) 0.5609(11) 0.9100(10)
C1A C 1.0588(9) -0.0242(7) 0.4699(8)
C2A C 0.5616(10) 0.1095(7) 0.2614(8)
H1A H 0.6224 0.1711 0.2439
C3A C 0.4166(14) 0.1108(12) 0.2654(12)
H2A H 0.3609 0.1727 0.2509
C4A C 0.3699(15) 0.0144(15) 0.2919(14)
H3A H 0.2737 -0.0094 0.3000
Cu1A Cu 0.81555(11) 0.97564(9) 0.31713(9)
Cu1_2 Cu 1.18445(11) 1.02436(9) 0.68287(9)
Cu1A_2 Cu 0.81555(11) -0.02436(9) 0.31713(9)
Cu2_2 Cu 0.5000 0.5000 0.0000
Mo1A Mo 0.75602(8) 0.46913(6) 0.27018(7)
Mo2A Mo 0.75283(8) 0.69167(6) 0.45256(7)
Mo3A Mo 1.00962(8) 0.28146(6) 0.31594(7)
N1A N 0.885(2) -0.1803(10) 0.1452(9)
H4A H 0.9098 -0.2293 0.1925
N2A N 0.8374(9) -0.0789(6) 0.1664(6)
C5A C 0.811(2) -0.0290(12) 0.0728(8)
H5A H 0.7760 0.0430 0.0641
C6A C 0.841(2) -0.0996(15) -0.0062(8)
H6A H 0.8324 -0.0859 -0.0803
C7A C 0.887(2) -0.1931(12) 0.0385(10)
H7A H 0.9164 -0.2567 0.0014
N3A N 0.6051(8) 0.0054(6) 0.2866(6)
N4A N 0.4890(12) -0.0494(12) 0.3068(14)
H8A H 0.4851 -0.1186 0.3275
N5A N 1.430(2) 0.629(2) 1.026(2)
N6A N 1.290(3) 0.654(2) 1.001(4)
H9A H 1.2147 0.6055 0.9817
C8A C 1.289(3) 0.769(2) 1.010(3)
H10A H 1.2070 0.8099 0.9976
C9A C 1.428(4) 0.815(2) 1.041(6)
H11A H 1.4590 0.8927 1.0539
C10A C 1.515(3) 0.728(3) 1.051(5)
H12A H 1.6163 0.7355 1.0712
O1A O 0.9321(7) 0.4049(5) 0.2342(5)
O2A O 0.6259(8) 0.3561(6) 0.2340(7)
O3A O 0.7331(9) 0.5575(7) 0.1662(6)
O3A_2 O 1.7331(9) 0.5575(7) 1.1662(6)
O4A O 0.6619(6) 0.5479(5) 0.3793(6)
O5A O 0.7425(7) 0.7802(5) 0.3478(6)
O5A_2 O 0.7425(7) -0.2198(5) 0.3478(6)
O6A O 0.6098(7) 0.7192(6) 0.5220(6)
O7A O 0.9159(6) 0.7751(4) 0.5449(5)
O8A O 1.1481(8) 0.2600(6) 0.2422(6)
O9A O 0.8754(7) 0.1727(5) 0.2732(6)
O9_2 O 1.1246(7) -0.1727(5) 0.7268(6)
O10A O 0.8605(6) 0.3770(5) 0.4181(5)
O11A O 0.9275(6) 0.5945(4) 0.3804(5)
O12A O 1.1470(6) 0.4289(4) 0.4235(4)
O13A O 1.0246(6) -0.0545(5) 0.3701(5)
O14A O 1.1817(6) -0.0328(5) 0.5267(5)
O15A O 1.3716(14) 0.4391(11) 1.0900(10)
O16 O 0.8762(10) 0.2885(9) 0.7254(8)
O17 O 0.3172(8) 0.7655(6) 0.4800(7)
O18 O 0.3570(10) 0.5290(13) 0.3238(9)
O19 O 0.0967(12) 0.5027(11) 0.0951(12)
loop_
_geom_bond_atom_site_label_1
_geom_bond_atom_site_label_2
_geom_bond_site_symmetry_1
_geom_bond_site_symmetry_2
C1 O13 1_555 1_555
C2 H1 1_555 1_555
C3 C2 1_555 1_555
H2 C3 1_555 1_555
C4 C3 1_555 1_555
H3 C4 1_555 1_555
Cr1 O10 1_555 1_555
Cu1 N2 1_555 1_555
Cu2 N5 1_555 1_555
Mo1 O1 1_555 1_555
Mo2 O4 1_555 1_555
Mo3 O1 1_555 1_555
N1 H4 1_555 1_555
N2 N1 1_555 1_555
C5 N2 1_555 1_555
H5 C5 1_555 1_555
C6 C5 1_555 1_555
H6 C6 1_555 1_555
C7 N1 1_555 1_555
H7 C7 1_555 1_555
N3 C2 1_555 1_555
N4 C4 1_555 1_555
H8 N4 1_555 1_555
N5 N6 1_555 1_555
N6 H9 1_555 1_555
C8 N6 1_555 1_555
H10 C8 1_555 1_555
C9 C8 1_555 1_555
H11 C9 1_555 1_555
C10 N5 1_555 1_555
H12 C10 1_555 1_555
O2 Mo1 1_555 1_555
O3 Cu2 1_555 1_555
O4 Mo1 1_555 1_555
O5 Cu1 1_555 1_555
O6 Mo2 1_555 1_555
O7 Mo2 1_555 1_555
O8 Mo3 1_555 1_555
O9 Mo3 1_555 1_555
O10 Mo1 1_555 1_555
O11 Cr1 1_555 1_555
O12 Cr1 1_555 1_555
O13 Cu1 1_555 1_555
O14 C1 1_555 1_555
O15 Cu2 1_555 1_555
C1A C1 1_555 1_555
C2A H1A 1_555 1_555
C3A C2A 1_555 1_555
H2A C3A 1_555 1_555
C4A C3A 1_555 1_555
H3A C4A 1_555 1_555
Cu1A O5A 1_555 1_555
Cu1_2 O9 1_555 1_555
Cu1A_2 O14 1_555 1_555
Cu2_2 O3A 1_555 1_555
Mo1A O1A 1_555 1_555
Mo2A O12 1_555 1_555
Mo3A O7 1_555 1_555
N1A H4A 1_555 1_555
N2A Cu1A_2 1_555 1_555
C5A N2A 1_555 1_555
H5A C5A 1_555 1_555
C6A C5A 1_555 1_555
H6A C6A 1_555 1_555
C7A N1A 1_555 1_555
H7A C7A 1_555 1_555
N3A C2A 1_555 1_555
N4A C4A 1_555 1_555
H8A N4A 1_555 1_555
N5A Cu2 1_555 1_555
N6A N5A 1_555 1_555
H9A N6A 1_555 1_555
C8A N6A 1_555 1_555
H10A C8A 1_555 1_555
C9A C8A 1_555 1_555
H11A C9A 1_555 1_555
C10A N5A 1_555 1_555
H12A C10A 1_555 1_555
O1A Mo3A 1_555 1_555
O2A Mo1A 1_555 1_555
O3A Mo1A 1_555 1_555
O3A_2 Cu2 1_555 1_555
O4A Mo1A 1_555 1_555
O5A Mo2A 1_555 1_555
O5A_2 Cu1A_2 1_555 1_555
O6A Mo2A 1_555 1_555
O7A Mo3 1_555 1_555
O8A Mo3A 1_555 1_555
O9A Cu1A_2 1_555 1_555
O9_2 Cu1 1_555 1_555
O10A Cr1 1_555 1_555
O11A Cr1 1_555 1_555
O12A Cr1 1_555 1_555
O13A C1A 1_555 1_555
O14A Cu1 1_555 1_555
O15A Cu2 1_555 1_555
Cu1 N3 1_555 1_555
Mo1 O3 1_555 1_555
Mo1 O11 1_555 1_555
Mo2 O5 1_555 1_555
Mo2 O11 1_555 1_555
Mo2 O12A 1_555 1_555
Mo3 O10 1_555 1_555
Mo3 O12 1_555 1_555
C6 C7 1_555 1_555
N3 N4 1_555 1_555
C9 C10 1_555 1_555
C1A O14A 1_555 1_555
Cu1A_2 N3A 1_555 1_555
Cu1A_2 O13A 1_555 1_555
Mo1A O10A 1_555 1_555
Mo1A O11A 1_555 1_555
Mo2A O4A 1_555 1_555
Mo2A O7A 1_555 1_555
Mo2A O11A 1_555 1_555
Mo3A O9A 1_555 1_555
Mo3A O10A 1_555 1_555
Mo3A O12A 1_555 1_555
N1A N2A 1_555 1_555
C6A C7A 1_555 1_555
N3A N4A 1_555 1_555
C9A C10A 1_555 1_555

#END
