
#######################################################################
#
#                 Cambridge Crystallographic Data Centre
#                                CCDC 
#
#######################################################################
#
# If this CIF has been generated from an entry in the Cambridge 
# Structural Database, then it will include bibliographic, chemical, 
# crystal, experimental, refinement or atomic coordinate data resulting 
# from the CCDC's data processing and validation procedures.
#
#######################################################################

data_ANAROX
_symmetry_cell_setting           orthorhombic
_symmetry_space_group_name_H-M   'P b c a'
_symmetry_Int_Tables_number      61
_space_group_name_Hall           '-P 2ac 2ab'
loop_
_symmetry_equiv_pos_site_id
_symmetry_equiv_pos_as_xyz
1 x,y,z
2 1/2-x,-y,1/2+z
3 -x,1/2+y,1/2-z
4 1/2+x,1/2-y,-z
5 -x,-y,-z
6 1/2+x,y,1/2-z
7 x,1/2-y,1/2+z
8 1/2-x,1/2+y,z
_cell_length_a                   17.559(7)
_cell_length_b                   17.974(7)
_cell_length_c                   18.688(7)
_cell_angle_alpha                90
_cell_angle_beta                 90
_cell_angle_gamma                90
_cell_volume                     5898.03
loop_
_atom_site_label
_atom_site_type_symbol
_atom_site_fract_x
_atom_site_fract_y
_atom_site_fract_z
Cd1 Cd -0.434910(13) -0.023450(13) -0.083490(12)
Cl1 Cl -0.46290(6) -0.08130(5) 0.03936(5)
O1 O -0.30525(16) -0.0598(2) -0.08855(18)
O2 O -0.32507(14) 0.04530(17) -0.03557(15)
O3 O -0.57158(18) 0.12921(19) -0.83213(17)
O4 O -0.46094(18) 0.08305(18) -0.85665(15)
N1 N -0.38730(18) 0.24002(17) -0.51352(15)
N2 N -0.57265(16) -0.04917(18) -0.81185(16)
C1 C -0.5024(3) 0.1246(2) -0.8203(2)
C2 C -0.4689(2) 0.1680(2) -0.75949(18)
C3 C -0.3922(2) 0.1650(2) -0.7451(2)
H1 H -0.3603 0.1368 -0.7742
C4 C -0.3622(2) 0.2034(2) -0.6879(2)
H2 H -0.3101 0.2012 -0.6788
C5 C -0.4089(2) 0.24516(19) -0.64387(17)
C6 C -0.4850(3) 0.2495(3) -0.6591(2)
H3 H -0.5168 0.2783 -0.6306
C7 C -0.5147(2) 0.2111(3) -0.7169(2)
H4 H -0.5665 0.2146 -0.7269
C8 C -0.3760(3) 0.2852(2) -0.57998(18)
H5 H -0.3220 0.2938 -0.5875
H6 H -0.4007 0.3331 -0.5745
C9 C -0.3314(2) 0.1969(2) -0.48954(19)
H7 H -0.2863 0.1937 -0.5154
C10 C -0.3392(2) 0.1570(2) -0.42701(19)
H8 H -0.2996 0.1270 -0.4108
C11 C -0.4062(2) 0.1618(2) -0.38847(18)
C12 C -0.4647(2) 0.2056(2) -0.4158(2)
H9 H -0.5112 0.2085 -0.3922
C13 C -0.4530(2) 0.2445(2) -0.4781(2)
H10 H -0.4918 0.2745 -0.4959
C14 C -0.4145(2) 0.1227(2) -0.31941(18)
C15 C -0.3528(2) 0.1130(2) -0.2749(2)
H11 H -0.3054 0.1315 -0.2880
C16 C -0.6384(2) -0.0757(2) -0.78936(19)
H12 H -0.6811 -0.0691 -0.8181
C17 C -0.5125(2) -0.0605(3) -0.7701(2)
H13 H -0.4653 -0.0433 -0.7856
C18 C -0.4837(2) 0.0964(3) -0.2948(2)
H14 H -0.5276 0.1030 -0.3220
C19 C -0.2812(2) -0.0049(2) -0.0553(2)
C20 C -0.19763(19) 0.0001(2) -0.0401(2)
C21 C -0.1465(2) -0.0384(3) -0.0813(2)
H15 H -0.1640 -0.0654 -0.1204
C22 C -0.0699(2) -0.0379(3) -0.0664(2)
H16 H -0.0368 -0.0643 -0.0959
C23 C -0.0410(2) 0.0006(2) -0.0090(2)
C24 C 0.0930(3) -0.0379(4) -0.0331(3)
H17 H 0.0758 -0.0638 -0.0731
C25 C 0.1701(2) -0.0380(3) -0.0173(3)
H18 H 0.2035 -0.0643 -0.0464
Cd1D Cd -0.565090(13) 0.023450(13) -0.916510(12)
Cd1D_2 Cd -0.565090(13) 0.023450(13) 0.083490(12)
Cd1D_3 Cd 0.434910(13) 0.023450(13) 0.083490(12)
Cl1D Cl -0.53710(6) 0.08130(5) -0.03936(5)
O1D O 0.30525(16) 0.0598(2) 0.08855(18)
O1D_2 O -0.69475(16) 0.0598(2) 0.08855(18)
O2D O 0.32507(14) -0.04530(17) 0.03557(15)
O2D_2 O -0.67493(14) -0.04530(17) 0.03557(15)
O3D O -0.42842(18) -0.12921(19) -0.16787(17)
O3_2 O -0.57158(18) 0.12921(19) 0.16787(17)
O4D O -0.53906(18) -0.08305(18) -0.14335(15)
O4_2 O -0.46094(18) 0.08305(18) 0.14335(15)
N1D N -0.61270(18) -0.24002(17) -0.48648(15)
N2D N -0.42735(16) 0.04917(18) -0.18815(16)
N2_2 N -0.57265(16) -0.04917(18) 0.18815(16)
C1D C -0.4976(3) -0.1246(2) -0.1797(2)
C2D C -0.5311(2) -0.1680(2) -0.24051(18)
C3D C -0.6078(2) -0.1650(2) -0.2549(2)
H1D H -0.6397 -0.1368 -0.2258
C4D C -0.6378(2) -0.2034(2) -0.3121(2)
H2D H -0.6899 -0.2012 -0.3212
C5D C -0.5911(2) -0.24516(19) -0.35613(17)
C6D C -0.5150(3) -0.2495(3) -0.3409(2)
H3D H -0.4832 -0.2783 -0.3694
C7D C -0.4853(2) -0.2111(3) -0.2831(2)
H4D H -0.4335 -0.2146 -0.2731
C8D C -0.6240(3) -0.2852(2) -0.42002(18)
H5D H -0.6780 -0.2938 -0.4125
H6D H -0.5993 -0.3331 -0.4255
C9D C -0.6686(2) -0.1969(2) -0.51046(19)
H7D H -0.7137 -0.1937 -0.4846
C10D C -0.6608(2) -0.1570(2) -0.57299(19)
H8D H -0.7004 -0.1270 -0.5892
C11D C -0.5938(2) -0.1618(2) -0.61153(18)
C12D C -0.5353(2) -0.2056(2) -0.5842(2)
H9D H -0.4888 -0.2085 -0.6078
C13D C -0.5470(2) -0.2445(2) -0.5219(2)
H10D H -0.5082 -0.2745 -0.5041
C14D C -0.5855(2) -0.1227(2) -0.68059(18)
C15D C -0.6472(2) -0.1130(2) -0.7251(2)
H11D H -0.6946 -0.1315 -0.7120
C16D C -0.3616(2) 0.0757(2) -0.21064(19)
H12D H -0.3189 0.0691 -0.1819
C17D C -0.4875(2) 0.0605(3) -0.2299(2)
H13D H -0.5347 0.0433 -0.2144
C18D C -0.5163(2) -0.0964(3) -0.7052(2)
H14D H -0.4724 -0.1030 -0.6780
C19D C 0.2812(2) 0.0049(2) 0.0553(2)
C20D C 0.19763(19) -0.0001(2) 0.0401(2)
C21D C 0.1465(2) 0.0384(3) 0.0813(2)
H15D H 0.1640 0.0654 0.1204
C22D C 0.0699(2) 0.0379(3) 0.0664(2)
H16D H 0.0368 0.0643 0.0959
C23D C 0.0410(2) -0.0006(2) 0.0090(2)
C24D C -0.0930(3) 0.0379(4) 0.0331(3)
H17D H -0.0758 0.0638 0.0731
C25D C -0.1701(2) 0.0380(3) 0.0173(3)
H18D H -0.2035 0.0643 0.0464
O5 O -0.6674(4) 0.2496(4) -0.8729(4)
H19 H -0.6639 0.2674 -0.9149
H20 H -0.6443 0.2082 -0.8703
O6 O -0.7073(4) 0.0812(4) -0.7331(4)
H21 H -0.6797 0.0837 -0.7704
H22 H -0.6964 0.1172 -0.7053
O7 O -0.6413(3) 0.2665(3) -0.5136(4)
H23 H -0.6146 0.3054 -0.5195
H24 H -0.6610 0.2489 -0.5516
O8 O -0.67133(19) -0.1345(2) -1.08194(17)
H25 H -0.6745 -0.1053 -1.0463
H26 H -0.6307 -0.1254 -1.1051
O9 O -0.1726(3) 0.1722(4) -0.2633(5)
H27 H -0.1713 0.1951 -0.2235
H28 H -0.1857 0.1273 -0.2560
O10 O -0.2060(3) 0.2911(3) -0.3617(3)
H29 H -0.2456 0.3109 -0.3797
H30 H -0.2031 0.2550 -0.3325
O11 O -0.1903(4) 0.0326(3) -0.3298(5)
H31 H -0.1524 0.0039 -0.3364
H32 H -0.2177 -0.0031 -0.3146
loop_
_geom_bond_atom_site_label_1
_geom_bond_atom_site_label_2
_geom_bond_site_symmetry_1
_geom_bond_site_symmetry_2
Cd1 Cl1 1_555 1_555
Cl1 Cd1D_2 1_555 1_555
O1 Cd1 1_555 1_555
O2 Cd1 1_555 1_555
O3 C1 1_555 1_555
O4 C1 1_555 1_555
N1 C8 1_555 1_555
N2 C16 1_555 1_555
C1 C2 1_555 1_555
C2 C3 1_555 1_555
C3 H1 1_555 1_555
C4 C3 1_555 1_555
H2 C4 1_555 1_555
C5 C4 1_555 1_555
C6 C5 1_555 1_555
H3 C6 1_555 1_555
C7 C2 1_555 1_555
H4 C7 1_555 1_555
C8 C5 1_555 1_555
H5 C8 1_555 1_555
H6 C8 1_555 1_555
C9 N1 1_555 1_555
H7 C9 1_555 1_555
C10 C9 1_555 1_555
H8 C10 1_555 1_555
C11 C10 1_555 1_555
C12 C11 1_555 1_555
H9 C12 1_555 1_555
C13 N1 1_555 1_555
H10 C13 1_555 1_555
C14 C11 1_555 1_555
C15 C14 1_555 1_555
H11 C15 1_555 1_555
C16 H12 1_555 1_555
C17 N2 1_555 1_555
H13 C17 1_555 1_555
C18 C14 1_555 1_555
H14 C18 1_555 1_555
C19 O1 1_555 1_555
C20 C19 1_555 1_555
C21 C20 1_555 1_555
H15 C21 1_555 1_555
C22 C21 1_555 1_555
H16 C22 1_555 1_555
C23 C22 1_555 1_555
C24 H17 1_555 1_555
C25 C24 1_555 1_555
H18 C25 1_555 1_555
O5 H19 1_555 1_555
H20 O5 1_555 1_555
O6 H21 1_555 1_555
H22 O6 1_555 1_555
O7 H23 1_555 1_555
H24 O7 1_555 1_555
O8 H25 1_555 1_555
H26 O8 1_555 1_555
O9 H27 1_555 1_555
H28 O9 1_555 1_555
O10 H29 1_555 1_555
H30 O10 1_555 1_555
O11 H31 1_555 1_555
H32 O11 1_555 1_555
Cd1D O3 1_555 1_555
Cd1D_2 Cl1D 1_555 1_555
Cd1D_3 O1D 1_555 1_555
Cl1D Cd1 1_555 1_555
O1D C19D 1_555 1_555
O1D_2 Cd1D_2 1_555 1_555
O2D Cd1D_3 1_555 1_555
O2D_2 Cd1D_2 1_555 1_555
O3D Cd1 1_555 1_555
O3_2 Cd1D_2 1_555 1_555
O4D Cd1 1_555 1_555
O4_2 Cd1D_2 1_555 1_555
N1D C8D 1_555 1_555
N2D Cd1 1_555 1_555
N2_2 Cd1D_2 1_555 1_555
C1D O3D 1_555 1_555
C2D C1D 1_555 1_555
C3D C2D 1_555 1_555
H1D C3D 1_555 1_555
C4D C3D 1_555 1_555
H2D C4D 1_555 1_555
C5D C4D 1_555 1_555
C6D C5D 1_555 1_555
H3D C6D 1_555 1_555
C7D C2D 1_555 1_555
H4D C7D 1_555 1_555
C8D C5D 1_555 1_555
H5D C8D 1_555 1_555
H6D C8D 1_555 1_555
C9D N1D 1_555 1_555
H7D C9D 1_555 1_555
C10D C9D 1_555 1_555
H8D C10D 1_555 1_555
C11D C10D 1_555 1_555
C12D C11D 1_555 1_555
H9D C12D 1_555 1_555
C13D N1D 1_555 1_555
H10D C13D 1_555 1_555
C14D C11D 1_555 1_555
C15D C16 1_555 1_555
H11D C15D 1_555 1_555
C16D C15 1_555 1_555
H12D C16D 1_555 1_555
C17D C18 1_555 1_555
H13D C17D 1_555 1_555
C18D C17 1_555 1_555
H14D C18D 1_555 1_555
C19D O2D 1_555 1_555
C20D C25 1_555 1_555
C21D C20D 1_555 1_555
H15D C21D 1_555 1_555
C22D C21D 1_555 1_555
H16D C22D 1_555 1_555
C23D C23 1_555 1_555
C24D C23 1_555 1_555
H17D C24D 1_555 1_555
C25D C20 1_555 1_555
H18D C25D 1_555 1_555
O2 C19 1_555 1_555
O4 Cd1D 1_555 1_555
N2 Cd1D 1_555 1_555
C6 C7 1_555 1_555
C12 C13 1_555 1_555
C24 C23D 1_555 1_555
O4D C1D 1_555 1_555
N2D C16D 1_555 1_555
N2D C17D 1_555 1_555
C6D C7D 1_555 1_555
C12D C13D 1_555 1_555
C14D C15D 1_555 1_555
C14D C18D 1_555 1_555
C19D C20D 1_555 1_555
C22D C23D 1_555 1_555
C24D C25D 1_555 1_555

#END
