
#######################################################################
#
#                 Cambridge Crystallographic Data Centre
#                                CCDC 
#
#######################################################################
#
# If this CIF has been generated from an entry in the Cambridge 
# Structural Database, then it will include bibliographic, chemical, 
# crystal, experimental, refinement or atomic coordinate data resulting 
# from the CCDC's data processing and validation procedures.
#
#######################################################################

data_ANEDON
_symmetry_cell_setting           monoclinic
_symmetry_space_group_name_H-M   'P 21/c'
_symmetry_Int_Tables_number      14
_space_group_name_Hall           '-P 2ybc'
loop_
_symmetry_equiv_pos_site_id
_symmetry_equiv_pos_as_xyz
1 x,y,z
2 -x,1/2+y,1/2-z
3 -x,-y,-z
4 x,1/2-y,1/2+z
_cell_length_a                   9.260(2)
_cell_length_b                   32.016(8)
_cell_length_c                   7.6465(18)
_cell_angle_alpha                90
_cell_angle_beta                 110.074(6)
_cell_angle_gamma                90
_cell_volume                     2129.23
loop_
_atom_site_label
_atom_site_type_symbol
_atom_site_fract_x
_atom_site_fract_y
_atom_site_fract_z
C1 C 0.1088(3) 0.42427(9) 0.2815(4)
H1 H 0.0425 0.4250 0.1586
C2 C 0.0739(4) 0.44697(10) 0.4160(5)
H2 H -0.0152 0.4630 0.3830
C3 C 0.1707(4) 0.44586(10) 0.5977(5)
H3 H 0.1468 0.4610 0.6880
C4 C 0.3036(4) 0.42225(10) 0.6469(4)
H4 H 0.3692 0.4215 0.7702
C5 C 0.3390(3) 0.39964(9) 0.5118(4)
H5 H 0.4287 0.3839 0.5448
C6 C 0.2413(3) 0.40044(8) 0.3283(4)
C7 C 0.2712(3) 0.37558(8) 0.1795(3)
C8 C 0.4628(3) 0.34308(9) 0.0686(4)
H6 H 0.5311 0.3590 0.0220
H7 H 0.3724 0.3359 -0.0370
C9 C 0.5430(3) 0.30327(7) 0.1561(3)
C10 C 0.6910(5) 0.03522(12) 0.1754(7)
H8 H 0.6822 0.0267 0.0559
C11 C 0.6535(5) 0.00817(13) 0.2944(10)
H9 H 0.6213 -0.0188 0.2552
C12 C 0.6633(5) 0.02076(17) 0.4695(9)
H10 H 0.6392 0.0022 0.5490
C13 C 0.7076(4) 0.05996(15) 0.5265(5)
H11 H 0.7112 0.0685 0.6442
C14 C 0.7479(3) 0.08772(11) 0.4120(4)
H12 H 0.7790 0.1147 0.4531
C15 C 0.7418(3) 0.07521(9) 0.2364(4)
C16 C 0.7885(3) 0.10397(10) 0.1110(4)
C17 C 0.9792(3) 0.15230(9) 0.0814(4)
H13 H 1.0884 0.1557 0.1484
H14 H 0.9679 0.1384 -0.0352
C18 C 0.9070(3) 0.19522(8) 0.0383(3)
N1 N 0.4167(3) 0.36904(7) 0.1950(3)
N2 N 0.9168(3) 0.12575(7) 0.1887(3)
O1 O 0.1626(2) 0.36201(7) 0.0449(3)
O2 O 0.5320(3) 0.29015(6) 0.3042(3)
O3 O 0.7146(3) 0.10649(10) -0.0562(3)
O4 O 0.9290(2) 0.21448(6) -0.0929(2)
O5 O 0.8321(2) 0.21007(6) 0.1303(2)
O6 O 0.9185(3) 0.18921(7) 0.5613(3)
O7 O 0.5222(3) 0.19162(7) 0.1510(3)
O8 O 0.6184(2) 0.28431(6) 0.0737(2)
Ca1 Ca 0.72834(5) 0.232882(14) 0.35169(6)
H15 H 0.972(4) 0.1219(12) 0.309(5)
H16 H 0.498(4) 0.3776(10) 0.290(4)
H17 H 0.928(3) 0.1960(9) 0.671(2)
H18 H 0.999(2) 0.1777(10) 0.557(4)
H19 H 0.529(4) 0.1938(12) 0.044(3)
H20 H 0.443(3) 0.2039(12) 0.156(5)
O4C O 0.9290(2) 0.28552(6) 0.4071(2)
O5C O 0.8321(2) 0.28993(6) 0.6303(2)
O8C O 0.6184(2) 0.21569(6) 0.5737(2)
Ca1C Ca 0.72834(5) 0.267118(14) -0.14831(6)
O9 O 0.2516(6) 0.2346(2) 0.1276(16)
loop_
_geom_bond_atom_site_label_1
_geom_bond_atom_site_label_2
_geom_bond_site_symmetry_1
_geom_bond_site_symmetry_2
C1 H1 1_555 1_555
C2 C1 1_555 1_555
H2 C2 1_555 1_555
C3 C2 1_555 1_555
H3 C3 1_555 1_555
C4 C3 1_555 1_555
H4 C4 1_555 1_555
C5 C4 1_555 1_555
H5 C5 1_555 1_555
C6 C1 1_555 1_555
C7 C6 1_555 1_555
C8 H6 1_555 1_555
H7 C8 1_555 1_555
C9 C8 1_555 1_555
C10 H8 1_555 1_555
C11 C10 1_555 1_555
H9 C11 1_555 1_555
C12 C11 1_555 1_555
H10 C12 1_555 1_555
C13 C12 1_555 1_555
H11 C13 1_555 1_555
C14 C13 1_555 1_555
H12 C14 1_555 1_555
C15 C10 1_555 1_555
C16 C15 1_555 1_555
C17 H13 1_555 1_555
H14 C17 1_555 1_555
C18 C17 1_555 1_555
N1 C7 1_555 1_555
N2 C16 1_555 1_555
O1 C7 1_555 1_555
O2 C9 1_555 1_555
O3 C16 1_555 1_555
O4 C18 1_555 1_555
O5 C18 1_555 1_555
O6 Ca1 1_555 1_555
O7 Ca1 1_555 1_555
O8 C9 1_555 1_555
Ca1 O2 1_555 1_555
H15 N2 1_555 1_555
H16 N1 1_555 1_555
H17 O6 1_555 1_555
H18 O6 1_555 1_555
H19 O7 1_555 1_555
H20 O7 1_555 1_555
O4C Ca1 1_555 1_555
O5C Ca1 1_555 1_555
O8C Ca1 1_555 1_555
Ca1C O4 1_555 1_555
C5 C6 1_555 1_555
C8 N1 1_555 1_555
C14 C15 1_555 1_555
C17 N2 1_555 1_555
O5 Ca1 1_555 1_555
O5 Ca1C 1_555 1_555
O8 Ca1 1_555 1_555
O8 Ca1C 1_555 1_555

#END
