
#######################################################################
#
#                 Cambridge Crystallographic Data Centre
#                                CCDC 
#
#######################################################################
#
# If this CIF has been generated from an entry in the Cambridge 
# Structural Database, then it will include bibliographic, chemical, 
# crystal, experimental, refinement or atomic coordinate data resulting 
# from the CCDC's data processing and validation procedures.
#
#######################################################################

data_ANENIR
_symmetry_cell_setting           triclinic
_symmetry_space_group_name_H-M   'P 1'
_symmetry_Int_Tables_number      1
_space_group_name_Hall           'P 1'
loop_
_symmetry_equiv_pos_site_id
_symmetry_equiv_pos_as_xyz
1 x,y,z
_cell_length_a                   9.7792(13)
_cell_length_b                   11.3331(14)
_cell_length_c                   15.924(2)
_cell_angle_alpha                71.042(2)
_cell_angle_beta                 85.290(2)
_cell_angle_gamma                70.907(2)
_cell_volume                     1576.71
loop_
_atom_site_label
_atom_site_type_symbol
_atom_site_fract_x
_atom_site_fract_y
_atom_site_fract_z
La1 La 0.53896(2) 0.90551(2) 1.084065(15)
La2 La 0.098865(18) 1.006842(18) 1.062778(14)
O1 O 0.4251(9) 1.0264(9) 1.1874(6)
O2 O 0.1900(8) 1.0563(9) 1.1849(5)
O3 O 0.1623(9) 1.1852(6) 1.5853(3)
O4 O 0.5125(9) 1.7126(9) 1.2183(7)
O5 O 0.3106(8) 1.8136(7) 1.1429(4)
O6 O 0.1075(15) 1.4414(7) 1.5630(5)
C1 C 0.2266(12) 1.2595(8) 1.5125(5)
H1 H 0.291(10) 1.272(11) 1.548(6)
C2 C 0.2402(14) 1.2117(9) 1.4360(7)
C3 C 0.3757(14) 1.1773(13) 1.4001(9)
H2 H 0.4555 1.1839 1.4240
C4 C 0.3892(13) 1.1320(11) 1.3263(8)
H3 H 0.4795 1.1102 1.3011
C5 C 0.2788(11) 1.1191(10) 1.2912(7)
C6 C 0.1449(11) 1.1490(12) 1.3265(7)
H4 H 0.0669 1.1390 1.3030
C7 C 0.1292(13) 1.1951(11) 1.3994(6)
H5 H 0.0384 1.2156 1.4242
C8 C 0.2970(11) 1.0627(10) 1.2135(6)
C9 C 0.274(2) 1.0782(11) 1.6385(7)
H6 H 0.3372 1.0329 1.6016
H7 H 0.2321 1.0187 1.6814
H8 H 0.3276 1.1103 1.6687
C10 C 0.1218(16) 1.4030(11) 1.4874(7)
H9 H 0.026(6) 1.420(12) 1.465(7)
C11 C 0.1864(14) 1.4921(10) 1.4131(6)
C12 C 0.3008(18) 1.5165(11) 1.4334(7)
H10 H 0.3370 1.4823 1.4916
C13 C 0.3695(16) 1.5964(11) 1.3650(7)
H11 H 0.4480 1.6164 1.3789
C14 C 0.3153(12) 1.6430(11) 1.2772(6)
C15 C 0.1970(12) 1.6183(11) 1.2568(7)
H12 H 0.1597 1.6533 1.1988
C16 C 0.1317(12) 1.5404(10) 1.3231(8)
H13 H 0.0536 1.5199 1.3091
C17 C 0.3871(13) 1.7292(10) 1.2076(7)
C18 C -0.026(4) 1.5658(15) 1.5447(17)
H14 H 0.0047 1.6425 1.5218
H15 H -0.0759 1.5673 1.5990
H16 H -0.0892 1.5654 1.5020
O7 O 0.1253(9) 0.1890(9) 0.9251(6)
O8 O 0.3219(8) 0.1005(7) 1.0109(5)
O9 O 0.7004(7) 0.4742(6) 0.7129(4)
O10 O 0.2047(9) 0.8750(9) 0.9624(5)
O11 O 0.4361(10) 0.8655(8) 0.9670(5)
O12 O 0.3640(10) 0.6458(7) 0.5922(4)
C19 C 0.5656(12) 0.4857(10) 0.6794(7)
H17 H 0.606(9) 0.446(8) 0.634(4)
C20 C 0.4827(12) 0.4054(10) 0.7475(6)
C21 C 0.3709(14) 0.3691(10) 0.7213(6)
H18 H 0.3504 0.3904 0.6612
C22 C 0.2946(13) 0.3050(11) 0.7813(7)
H19 H 0.2160 0.2898 0.7626
C23 C 0.3304(11) 0.2613(9) 0.8699(7)
C24 C 0.4407(11) 0.2955(11) 0.8957(7)
H20 H 0.4660 0.2684 0.9556
C25 C 0.5132(13) 0.3686(11) 0.8343(8)
H21 H 0.5844 0.3927 0.8534
C26 C 0.2582(12) 0.1796(11) 0.9373(7)
C27 C 0.8231(14) 0.3539(10) 0.7310(14)
H22 H 0.7911 0.2826 0.7305
H23 H 0.8654 0.3344 0.7883
H24 H 0.8940 0.3653 0.6863
C28 C 0.4834(10) 0.6309(9) 0.6433(6)
H25 H 0.554(7) 0.670(7) 0.611(5)
C29 C 0.4306(13) 0.6958(11) 0.7176(7)
C30 C 0.3005(10) 0.7024(8) 0.7586(6)
H26 H 0.2351 0.6737 0.7379
C31 C 0.2634(12) 0.7504(9) 0.8296(7)
H27 H 0.1746 0.7541 0.8564
C32 C 0.3643(12) 0.7938(11) 0.8606(7)
C33 C 0.4988(16) 0.7753(18) 0.8208(11)
H28 H 0.5712 0.7930 0.8442
C34 C 0.5275(16) 0.7327(18) 0.7494(12)
H29 H 0.6158 0.7287 0.7219
C35 C 0.3280(12) 0.8474(10) 0.9350(7)
C36 C 0.3030(19) 0.7714(11) 0.5334(7)
H30 H 0.2664 0.8327 0.5660
H31 H 0.2251 0.7721 0.5000
H32 H 0.3752 0.7961 0.4935
O13 O 0.9613(8) 0.8836(8) 0.1655(5)
O14 O 0.7430(8) 0.8571(8) 0.1833(4)
O15 O 0.7991(7) 0.8354(7) 0.6230(3)
O16 O 0.6771(8) 1.0278(8) 0.9857(4)
O17 O 0.8889(8) 1.0540(8) 0.9687(4)
O18 O 0.6842(5) 1.1238(5) 0.5264(3)
C37 C 0.8702(9) 0.9177(9) 0.5652(7)
H33 H 0.951(7) 0.853(8) 0.603(6)
C38 C 0.8384(9) 0.9273(7) 0.4651(3)
C39 C 0.9532(8) 0.9409(6) 0.4094(3)
H34 H 1.0276 0.9624 0.4272
C40 C 0.9567(6) 0.9223(5) 0.3271(3)
H35 H 1.0335 0.9314 0.2898
C41 C 0.8454(6) 0.8901(6) 0.3005(3)
C42 C 0.7307(6) 0.8765(7) 0.3562(4)
H36 H 0.6562 0.8549 0.3384
C43 C 0.7271(7) 0.8951(7) 0.4385(4)
H37 H 0.6503 0.8860 0.4758
C44 C 0.8497(10) 0.8782(9) 0.2092(5)
C45 C 0.896(3) 0.736(2) 0.6975(11)
H38 H 0.9747 0.6786 0.6747
H39 H 0.8427 0.6848 0.7380
H40 H 0.9340 0.7792 0.7281
C46 C 0.8198(9) 1.0560(10) 0.5666(7)
H41 H 0.913(5) 1.058(9) 0.544(6)
C47 C 0.8002(10) 1.0451(12) 0.6681(5)
C48 C 0.6758(8) 1.0424(12) 0.7164(6)
H42 H 0.5948 1.0438 0.6889
C49 C 0.6692(8) 1.0377(10) 0.8051(5)
H43 H 0.5828 1.0423 0.8351
C50 C 0.7943(8) 1.0260(10) 0.8487(5)
C51 C 0.9223(9) 1.0178(15) 0.8034(6)
H44 H 1.0057 1.0138 0.8299
C52 C 0.9209(12) 1.016(3) 0.7170(9)
H45 H 1.0097 0.9923 0.6905
C53 C 0.7881(11) 1.0365(11) 0.9416(6)
C54 C 0.662(2) 1.2547(12) 0.5148(9)
H46 H 0.7538 1.2683 0.5156
H47 H 0.6043 1.2792 0.5618
H48 H 0.6129 1.3076 0.4587
O19 O 0.7280(10) 0.7177(10) 1.0535(8)
N1 N 0.9465(10) 0.5936(11) 1.0199(10)
C55 C 0.8543(19) 0.666(2) 1.0618(15)
H49 H 0.8963 0.6787 1.1070
C56 C 0.888(2) 0.525(2) 0.9746(14)
H50 H 0.9328 0.4310 1.0010
H51 H 0.7848 0.5451 0.9847
C57 C 0.910(3) 0.560(4) 0.8816(14)
H52 H 0.8817 0.6541 0.8565
H53 H 0.8530 0.5267 0.8546
H54 H 1.0106 0.5227 0.8710
C58 C 1.1014(12) 0.5363(14) 1.0420(16)
H55 H 1.1546 0.5513 0.9875
H56 H 1.1264 0.5816 1.0777
C59 C 1.1464(11) 0.3993(12) 1.0888(14)
H57 H 1.0938 0.3833 1.1427
H58 H 1.2482 0.3692 1.1029
H59 H 1.1277 0.3529 1.0526
O20 O -0.0954(8) 1.1879(7) 1.1049(4)
N2 N -0.3090(6) 1.3153(7) 1.1346(4)
C60 C -0.2271(7) 1.2299(6) 1.0983(4)
H60 H -0.2722 1.1987 1.0649
C61 C -0.2455(8) 1.3597(10) 1.1938(5)
H61 H -0.1414 1.3327 1.1872
H62 H -0.2806 1.4552 1.1747
C62 C -0.2754(14) 1.3119(15) 1.2857(6)
H63 H -0.3755 1.3532 1.2951
H64 H -0.2157 1.3320 1.3204
H65 H -0.2553 1.2183 1.3032
C63 C -0.4655(7) 1.3714(8) 1.1182(5)
H66 H -0.5002 1.3093 1.1034
H67 H -0.5120 1.3847 1.1720
C64 C -0.5059(15) 1.4948(12) 1.0472(11)
H68 H -0.4848 1.5602 1.0651
H69 H -0.6076 1.5221 1.0337
H70 H -0.4522 1.4843 0.9954
La1_2 La 0.53896(2) 1.90551(2) 1.084065(15)
La1_3 La 0.53896(2) -0.09449(2) 1.084065(15)
La1_4 La 0.53896(2) 0.90551(2) 0.084065(15)
La2_2 La 0.098865(18) 2.006842(18) 1.062778(14)
La2_3 La 0.098865(18) 0.006842(18) 1.062778(14)
La2_4 La 1.098865(18) 1.006842(18) 0.062778(14)
La2_5 La 1.098865(18) 1.006842(18) 1.062778(14)
O4_2 O 0.5125(9) 0.7126(9) 1.2183(7)
O5_2 O 0.3106(8) 0.8136(7) 1.1429(4)
O7_2 O 0.1253(9) 1.1890(9) 0.9251(6)
O8_2 O 0.3219(8) 1.1005(7) 1.0109(5)
O13_2 O -0.0387(8) 0.8836(8) 1.1655(5)
O14_2 O 0.7430(8) 0.8571(8) 1.1833(4)
O17_2 O -0.1111(8) 1.0540(8) 0.9687(4)
loop_
_geom_bond_atom_site_label_1
_geom_bond_atom_site_label_2
_geom_bond_site_symmetry_1
_geom_bond_site_symmetry_2
La1 O1 1_555 1_555
La2 O2 1_555 1_555
O1 C8 1_555 1_555
O2 C8 1_555 1_555
O3 C1 1_555 1_555
O4 C17 1_555 1_555
O5 C17 1_555 1_555
O6 C10 1_555 1_555
C1 H1 1_555 1_555
C2 C1 1_555 1_555
C3 C2 1_555 1_555
H2 C3 1_555 1_555
C4 C3 1_555 1_555
H3 C4 1_555 1_555
C5 C4 1_555 1_555
C6 C5 1_555 1_555
H4 C6 1_555 1_555
C7 C2 1_555 1_555
H5 C7 1_555 1_555
C8 C5 1_555 1_555
C9 O3 1_555 1_555
H6 C9 1_555 1_555
H7 C9 1_555 1_555
H8 C9 1_555 1_555
C10 C1 1_555 1_555
H9 C10 1_555 1_555
C11 C10 1_555 1_555
C12 C11 1_555 1_555
H10 C12 1_555 1_555
C13 C12 1_555 1_555
H11 C13 1_555 1_555
C14 C13 1_555 1_555
C15 C14 1_555 1_555
H12 C15 1_555 1_555
C16 C11 1_555 1_555
H13 C16 1_555 1_555
C17 C14 1_555 1_555
C18 O6 1_555 1_555
H14 C18 1_555 1_555
H15 C18 1_555 1_555
H16 C18 1_555 1_555
O7 C26 1_555 1_555
O8 C26 1_555 1_555
O9 C19 1_555 1_555
O10 La2 1_555 1_555
O11 La1 1_555 1_555
O12 C28 1_555 1_555
C19 H17 1_555 1_555
C20 C19 1_555 1_555
C21 C20 1_555 1_555
H18 C21 1_555 1_555
C22 C21 1_555 1_555
H19 C22 1_555 1_555
C23 C22 1_555 1_555
C24 C23 1_555 1_555
H20 C24 1_555 1_555
C25 C20 1_555 1_555
H21 C25 1_555 1_555
C26 C23 1_555 1_555
C27 O9 1_555 1_555
H22 C27 1_555 1_555
H23 C27 1_555 1_555
H24 C27 1_555 1_555
C28 C19 1_555 1_555
H25 C28 1_555 1_555
C29 C28 1_555 1_555
C30 C29 1_555 1_555
H26 C30 1_555 1_555
C31 C30 1_555 1_555
H27 C31 1_555 1_555
C32 C31 1_555 1_555
C33 C32 1_555 1_555
H28 C33 1_555 1_555
C34 C29 1_555 1_555
H29 C34 1_555 1_555
C35 O10 1_555 1_555
C36 O12 1_555 1_555
H30 C36 1_555 1_555
H31 C36 1_555 1_555
H32 C36 1_555 1_555
O13 C44 1_555 1_555
O14 C44 1_555 1_555
O15 C37 1_555 1_555
O16 La1 1_555 1_555
O17 C53 1_555 1_555
O18 C46 1_555 1_555
C37 H33 1_555 1_555
C38 C37 1_555 1_555
C39 C38 1_555 1_555
H34 C39 1_555 1_555
C40 C39 1_555 1_555
H35 C40 1_555 1_555
C41 C40 1_555 1_555
C42 C41 1_555 1_555
H36 C42 1_555 1_555
C43 C38 1_555 1_555
H37 C43 1_555 1_555
C44 C41 1_555 1_555
C45 O15 1_555 1_555
H38 C45 1_555 1_555
H39 C45 1_555 1_555
H40 C45 1_555 1_555
C46 C37 1_555 1_555
H41 C46 1_555 1_555
C47 C46 1_555 1_555
C48 C47 1_555 1_555
H42 C48 1_555 1_555
C49 C48 1_555 1_555
H43 C49 1_555 1_555
C50 C49 1_555 1_555
C51 C50 1_555 1_555
H44 C51 1_555 1_555
C52 C47 1_555 1_555
H45 C52 1_555 1_555
C53 O16 1_555 1_555
C54 O18 1_555 1_555
H46 C54 1_555 1_555
H47 C54 1_555 1_555
H48 C54 1_555 1_555
O19 La1 1_555 1_555
N1 C55 1_555 1_555
C55 O19 1_555 1_555
H49 C55 1_555 1_555
C56 N1 1_555 1_555
H50 C56 1_555 1_555
H51 C56 1_555 1_555
C57 C56 1_555 1_555
H52 C57 1_555 1_555
H53 C57 1_555 1_555
H54 C57 1_555 1_555
C58 N1 1_555 1_555
H55 C58 1_555 1_555
H56 C58 1_555 1_555
C59 C58 1_555 1_555
H57 C59 1_555 1_555
H58 C59 1_555 1_555
H59 C59 1_555 1_555
O20 La2 1_555 1_555
N2 C60 1_555 1_555
C60 O20 1_555 1_555
H60 C60 1_555 1_555
C61 N2 1_555 1_555
H61 C61 1_555 1_555
H62 C61 1_555 1_555
C62 C61 1_555 1_555
H63 C62 1_555 1_555
H64 C62 1_555 1_555
H65 C62 1_555 1_555
C63 N2 1_555 1_555
H66 C63 1_555 1_555
H67 C63 1_555 1_555
C64 C63 1_555 1_555
H68 C64 1_555 1_555
H69 C64 1_555 1_555
H70 C64 1_555 1_555
La1_2 O4 1_555 1_555
La1_3 O8 1_555 1_555
La1_4 O14 1_555 1_555
La2_2 O5 1_555 1_555
La2_3 O7 1_555 1_555
La2_4 O13 1_555 1_555
La2_5 O17 1_555 1_555
O4_2 La1 1_555 1_555
O5_2 La1 1_555 1_555
O7_2 La2 1_555 1_555
O8_2 La1 1_555 1_555
O13_2 La2 1_555 1_555
O14_2 La1 1_555 1_555
O17_2 La2 1_555 1_555
La2 O5_2 1_555 1_555
La2 O8_2 1_555 1_555
O5 La1_2 1_555 1_555
C6 C7 1_555 1_555
C15 C16 1_555 1_555
O8 La2_3 1_555 1_555
O11 C35 1_555 1_555
C24 C25 1_555 1_555
C32 C35 1_555 1_555
C33 C34 1_555 1_555
C42 C43 1_555 1_555
C50 C53 1_555 1_555
C51 C52 1_555 1_555

#END
