
#######################################################################
#
#                 Cambridge Crystallographic Data Centre
#                                CCDC 
#
#######################################################################
#
# If this CIF has been generated from an entry in the Cambridge 
# Structural Database, then it will include bibliographic, chemical, 
# crystal, experimental, refinement or atomic coordinate data resulting 
# from the CCDC's data processing and validation procedures.
#
#######################################################################

data_ANEQOA
_symmetry_cell_setting           triclinic
_symmetry_space_group_name_H-M   'P -1'
_symmetry_Int_Tables_number      2
_space_group_name_Hall           '-P 1'
loop_
_symmetry_equiv_pos_site_id
_symmetry_equiv_pos_as_xyz
1 x,y,z
2 -x,-y,-z
_cell_length_a                   12.561(2)
_cell_length_b                   13.1448(12)
_cell_length_c                   18.7697(18)
_cell_angle_alpha                84.391(2)
_cell_angle_beta                 83.6660(10)
_cell_angle_gamma                76.304(3)
_cell_volume                     2984.36
loop_
_atom_site_label
_atom_site_type_symbol
_atom_site_fract_x
_atom_site_fract_y
_atom_site_fract_z
Ag1 Ag -0.45800(5) 0.54994(5) 0.77601(3)
Ag2 Ag -0.22862(5) 0.57081(5) 0.70518(3)
Ag3 Ag 0.00895(5) 0.52421(5) 0.78068(3)
Ag4 Ag -0.20615(5) 0.60265(5) 0.29042(3)
Ag5 Ag 0.38981(5) 0.19599(5) 0.78256(3)
Ag6 Ag 0.51549(5) -0.00494(5) 0.28257(3)
Ag7 Ag 0.37052(5) 0.18715(5) 0.21819(3)
Ag8 Ag -0.90066(5) 1.18550(5) 0.23994(3)
C1 C -0.6410(7) 0.7566(6) 0.7676(5)
H1 H -0.5980 0.7959 0.7847
C2 C -0.6894(7) 0.6284(7) 0.7318(5)
H2 H -0.6888 0.5612 0.7199
C3 C -0.7673(7) 0.7130(6) 0.7211(4)
H3 H -0.8320 0.7162 0.7003
C4 C -0.8013(7) 0.9042(6) 0.7417(4)
H4 H -0.7866 0.9390 0.7815
H5 H -0.8788 0.9031 0.7476
C5 C -0.7797(7) 0.9680(7) 0.6732(5)
C6 C -0.8056(7) 1.0766(7) 0.6751(5)
H6 H -0.8251 1.1068 0.7188
C7 C -0.8022(8) 1.1400(7) 0.6115(5)
H7 H -0.8195 1.2127 0.6127
C8 C -0.7730(7) 1.0949(7) 0.5461(5)
H8 H -0.7707 1.1374 0.5036
C9 C -0.7471(7) 0.9863(7) 0.5443(5)
C10 C -0.7505(6) 0.9228(7) 0.6079(4)
H9 H -0.7332 0.8502 0.6066
C11 C -0.7113(7) 0.9402(7) 0.4744(5)
H10 H -0.6452 0.8917 0.4650
C12 C -0.7810(7) 1.0491(7) 0.3646(5)
H11 H -0.7175 1.0721 0.3482
C13 C -0.9440(7) 1.0305(6) 0.3748(4)
H12 H -1.0179 1.0417 0.3673
C14 C -0.8953(7) 0.9650(7) 0.4253(5)
H13 H -0.9264 0.9184 0.4565
C15 C -0.2467(8) 0.3585(7) 0.7736(5)
H14 H -0.2021 0.3901 0.7963
C16 C -0.3919(8) 0.3254(6) 0.7314(4)
H15 H -0.4631 0.3300 0.7198
C17 C -0.3022(7) 0.2438(7) 0.7209(5)
H16 H -0.3027 0.1831 0.6994
C18 C -0.1026(7) 0.1973(7) 0.7386(4)
H17 H -0.0548 0.2375 0.7106
H18 H -0.1029 0.1377 0.7120
C19 C -0.0561(8) 0.1580(6) 0.8074(5)
C20 C -0.0011(7) 0.2207(6) 0.8422(5)
H19 H -0.0009 0.2891 0.8241
C21 C 0.0522(7) 0.1781(7) 0.9035(4)
C22 C 0.0583(8) 0.0775(7) 0.9271(5)
H20 H 0.0940 0.0499 0.9680
C23 C 0.0117(8) 0.0143(7) 0.8910(5)
H21 H 0.0226 -0.0570 0.9047
C24 C -0.0511(7) 0.0571(7) 0.8345(5)
H22 H -0.0903 0.0165 0.8149
C25 C 0.1041(7) 0.2501(7) 0.9388(4)
H23 H 0.0867 0.3202 0.9152
H24 H 0.1834 0.2248 0.9350
C26 C 0.1146(6) 0.2245(6) 1.0738(4)
H25 H 0.1903 0.1974 1.0712
C27 C -0.0492(7) 0.3002(7) 1.0389(5)
H26 H -0.1052 0.3323 1.0100
C28 C -0.0551(7) 0.2884(6) 1.1157(5)
H27 H -0.1167 0.3089 1.1478
C29 C 0.0396(7) 0.6429(6) 0.5490(4)
C30 C -0.0114(6) 0.6337(6) 0.4897(4)
H28 H -0.0877 0.6462 0.4928
C31 C 0.0479(6) 0.6067(6) 0.4266(4)
C32 C 0.1627(6) 0.5911(6) 0.4206(4)
H29 H 0.2026 0.5761 0.3766
C33 C 0.2178(7) 0.5981(6) 0.4802(4)
C34 C 0.3411(7) 0.5663(7) 0.4719(5)
H30 H 0.3710 0.5955 0.5086
H31 H 0.3686 0.5930 0.4252
C35 C 0.3762(6) 0.4478(6) 0.4790(4)
C36 C 0.3937(7) 0.3899(6) 0.4175(4)
H32 H 0.3859 0.4266 0.3727
C37 C 0.4225(7) 0.2793(6) 0.4205(4)
C38 C 0.4429(7) 0.2255(6) 0.4893(4)
H33 H 0.4691 0.1530 0.4929
C39 C 0.4233(7) 0.2825(7) 0.5534(4)
C40 C 0.3903(6) 0.3935(6) 0.5443(4)
H34 H 0.3777 0.4313 0.5849
C41 C -0.0206(7) 0.6590(7) 0.6233(4)
C42 C -0.0106(7) 0.5913(6) 0.3638(4)
C43 C 0.4297(7) 0.2217(7) 0.3606(4)
C44 C 0.4362(6) 0.2238(6) 0.6221(4)
C45 C -0.6396(6) 0.9510(6) 1.0826(4)
C46 C -0.6380(6) 1.0049(6) 1.0145(4)
H35 H -0.6420 1.0768 1.0107
C47 C -0.6305(6) 0.9531(6) 0.9530(4)
C48 C -0.6217(6) 0.8427(6) 0.9598(4)
H36 H -0.6182 0.8082 0.9183
C49 C -0.6182(7) 0.7873(6) 1.0222(5)
C50 C -0.6310(7) 0.8403(6) 1.0877(4)
H37 H -0.6336 0.8029 1.1323
C51 C -0.5930(6) 0.6670(6) 1.0289(4)
H38 H -0.6251 0.6417 0.9914
H39 H -0.6238 0.6421 1.0751
C52 C -0.4680(6) 0.6268(6) 1.0217(4)
C53 C -0.4133(6) 0.6105(6) 0.9560(4)
H40 H -0.4511 0.6201 0.9150
C54 C -0.2972(6) 0.5787(5) 0.9512(4)
C55 C -0.2405(7) 0.5598(6) 1.0127(4)
H41 H -0.1643 0.5368 1.0084
C56 C -0.2972(6) 0.5751(5) 1.0812(4)
C57 C -0.4137(7) 0.6074(7) 1.0835(5)
H42 H -0.4546 0.6157 1.1279
C58 C -0.6417(7) 1.0030(6) 1.1487(4)
C59 C -0.6205(7) 1.0116(7) 0.8805(4)
C60 C -0.2358(7) 0.5669(6) 0.8809(4)
C61 C -0.2450(6) 0.5622(6) 1.1460(4)
C62 C 0.1604(7) 0.6232(6) 0.5423(4)
H43 H 0.1969 0.6284 0.5818
N1 N -0.6112(5) 0.6564(5) 0.7631(3)
N2 N -0.7367(6) 0.7962(5) 0.7457(3)
N3 N -0.7898(6) 0.9786(5) 0.4230(3)
N4 N -0.8722(5) 1.0785(5) 0.3361(4)
N5 N -0.3536(5) 0.4005(5) 0.7633(3)
N6 N -0.2142(6) 0.2632(5) 0.7457(4)
N7 N 0.0598(6) 0.2526(6) 1.0173(4)
N8 N 0.0549(5) 0.2378(5) 1.1328(4)
O1 O 0.0270(5) 0.6577(4) 0.6756(3)
O2 O -0.1243(5) 0.6686(5) 0.6235(3)
O3 O -0.1153(4) 0.6065(4) 0.3731(3)
O4 O 0.0442(4) 0.5705(4) 0.3043(3)
O5 O 0.3859(5) 0.2778(5) 0.3071(3)
O6 O 0.4586(6) 0.1266(5) 0.3657(4)
O7 O 0.4679(5) 0.1181(5) 0.6277(3)
O8 O 0.3952(4) 0.2743(4) 0.6784(3)
O9 O -0.6266(5) 0.9565(4) 1.2056(3)
O10 O -0.6620(4) 1.1086(4) 1.1376(3)
O11 O -0.6156(5) 1.1041(4) 0.8797(3)
O12 O -0.6018(4) 0.9607(4) 0.8260(3)
O13 O -0.2874(4) 0.6035(4) 0.8243(3)
O14 O -0.1329(5) 0.5217(5) 0.8749(3)
O15 O -0.1413(4) 0.5220(4) 1.1410(3)
O16 O -0.2959(4) 0.6040(4) 1.2001(3)
Ag2A Ag 0.22862(5) 0.42919(5) 0.29482(3)
Ag3A Ag -0.00895(5) 0.47579(5) 0.21932(3)
Ag3A_2 Ag -0.00895(5) 0.47579(5) 1.21932(3)
Ag4A Ag 0.20615(5) 0.39735(5) 0.70958(3)
Ag4_2 Ag -0.20615(5) 0.60265(5) 1.29042(3)
Ag5A Ag -0.38981(5) 0.80401(5) 0.21744(3)
Ag5A_2 Ag 0.61019(5) -0.19599(5) 0.21744(3)
Ag5_2 Ag -0.61019(5) 1.19599(5) 0.78256(3)
Ag6A Ag 0.48451(5) 0.00494(5) 0.71743(3)
Ag6_2 Ag -0.48451(5) 0.99506(5) 1.28257(3)
Ag6A_2 Ag -0.51549(5) 1.00494(5) 0.71743(3)
Ag7_2 Ag -0.62948(5) 1.18715(5) 0.21819(3)
Ag7_3 Ag -0.62948(5) 1.18715(5) 1.21819(3)
Ag8_2 Ag 0.09934(5) 0.18550(5) 0.23994(3)
Ag8_3 Ag 0.09934(5) 0.18550(5) 1.23994(3)
N8_2 N -0.9451(5) 1.2378(5) 0.1328(4)
O4A O -0.0442(4) 0.4295(4) 0.6957(3)
O5A O -0.3859(5) 0.7222(5) 0.6929(3)
O7A O 0.5321(5) -0.1181(5) 0.3723(3)
O8A O -0.3952(4) 0.7257(4) 0.3216(3)
O9_2 O 0.3734(5) -0.0435(4) 0.2056(3)
O10_2 O 0.3380(4) 0.1086(4) 0.1376(3)
O11_2 O 0.3844(5) 0.1041(4) 0.8797(3)
O12A O 0.6018(4) 0.0393(4) 0.1740(3)
O15A O 0.1413(4) 0.4780(4) 0.8590(3)
O16_2 O -0.2959(4) 0.6040(4) 0.2001(3)
loop_
_geom_bond_atom_site_label_1
_geom_bond_atom_site_label_2
_geom_bond_site_symmetry_1
_geom_bond_site_symmetry_2
Ag1 Ag2 1_555 1_555
Ag2 Ag3 1_555 1_555
Ag3 O1 1_555 1_555
Ag4 O3 1_555 1_555
Ag5 O8 1_555 1_555
Ag6 Ag7 1_555 1_555
Ag7 O5 1_555 1_555
Ag8 N4 1_555 1_555
C1 H1 1_555 1_555
C2 H2 1_555 1_555
C3 C2 1_555 1_555
H3 C3 1_555 1_555
C4 H4 1_555 1_555
H5 C4 1_555 1_555
C5 C4 1_555 1_555
C6 C5 1_555 1_555
H6 C6 1_555 1_555
C7 C6 1_555 1_555
H7 C7 1_555 1_555
C8 C7 1_555 1_555
H8 C8 1_555 1_555
C9 C8 1_555 1_555
C10 C5 1_555 1_555
H9 C10 1_555 1_555
C11 C9 1_555 1_555
H10 C11 1_555 1_555
C12 H11 1_555 1_555
C13 H12 1_555 1_555
C14 C13 1_555 1_555
H13 C14 1_555 1_555
C15 H14 1_555 1_555
C16 H15 1_555 1_555
C17 C16 1_555 1_555
H16 C17 1_555 1_555
C18 H17 1_555 1_555
H18 C18 1_555 1_555
C19 C18 1_555 1_555
C20 C19 1_555 1_555
H19 C20 1_555 1_555
C21 C20 1_555 1_555
C22 C21 1_555 1_555
H20 C22 1_555 1_555
C23 C22 1_555 1_555
H21 C23 1_555 1_555
C24 C19 1_555 1_555
H22 C24 1_555 1_555
C25 C21 1_555 1_555
H23 C25 1_555 1_555
H24 C25 1_555 1_555
C26 H25 1_555 1_555
C27 H26 1_555 1_555
C28 C27 1_555 1_555
H27 C28 1_555 1_555
C29 C30 1_555 1_555
C30 H28 1_555 1_555
C31 C30 1_555 1_555
C32 C31 1_555 1_555
H29 C32 1_555 1_555
C33 C32 1_555 1_555
C34 C33 1_555 1_555
H30 C34 1_555 1_555
H31 C34 1_555 1_555
C35 C34 1_555 1_555
C36 C35 1_555 1_555
H32 C36 1_555 1_555
C37 C36 1_555 1_555
C38 C37 1_555 1_555
H33 C38 1_555 1_555
C39 C38 1_555 1_555
C40 C35 1_555 1_555
H34 C40 1_555 1_555
C41 C29 1_555 1_555
C42 C31 1_555 1_555
C43 C37 1_555 1_555
C44 C39 1_555 1_555
C45 C46 1_555 1_555
C46 H35 1_555 1_555
C47 C46 1_555 1_555
C48 C47 1_555 1_555
H36 C48 1_555 1_555
C49 C48 1_555 1_555
C50 C45 1_555 1_555
H37 C50 1_555 1_555
C51 C49 1_555 1_555
H38 C51 1_555 1_555
H39 C51 1_555 1_555
C52 C51 1_555 1_555
C53 C52 1_555 1_555
H40 C53 1_555 1_555
C54 C53 1_555 1_555
C55 C54 1_555 1_555
H41 C55 1_555 1_555
C56 C55 1_555 1_555
C57 C52 1_555 1_555
H42 C57 1_555 1_555
C58 C45 1_555 1_555
C59 C47 1_555 1_555
C60 C54 1_555 1_555
C61 C56 1_555 1_555
C62 C29 1_555 1_555
H43 C62 1_555 1_555
N1 Ag1 1_555 1_555
N2 C1 1_555 1_555
N3 C11 1_555 1_555
N4 C12 1_555 1_555
N5 Ag1 1_555 1_555
N6 C15 1_555 1_555
N7 C25 1_555 1_555
N8 C26 1_555 1_555
O1 C41 1_555 1_555
O2 Ag2 1_555 1_555
O3 C42 1_555 1_555
O4 C42 1_555 1_555
O5 C43 1_555 1_555
O6 Ag6 1_555 1_555
O7 C44 1_555 1_555
O8 C44 1_555 1_555
O9 C58 1_555 1_555
O10 C58 1_555 1_555
O11 C59 1_555 1_555
O12 C59 1_555 1_555
O13 Ag2 1_555 1_555
O14 Ag3 1_555 1_555
O15 C61 1_555 1_555
O16 C61 1_555 1_555
Ag2A O5 1_555 1_555
Ag3A Ag4 1_555 1_555
Ag3A_2 O15 1_555 1_555
Ag4A Ag3 1_555 1_555
Ag4_2 O16 1_555 1_555
Ag5A Ag4 1_555 1_555
Ag5A_2 Ag6 1_555 1_555
Ag5_2 O11 1_555 1_555
Ag6A Ag5 1_555 1_555
Ag6_2 O9 1_555 1_555
Ag6A_2 O12 1_555 1_555
Ag7_2 Ag8 1_555 1_555
Ag7_3 O10 1_555 1_555
Ag8_2 Ag7 1_555 1_555
Ag8_3 N8 1_555 1_555
N8_2 Ag8 1_555 1_555
O4A Ag3 1_555 1_555
O5A Ag2 1_555 1_555
O7A Ag6 1_555 1_555
O8A Ag4 1_555 1_555
O9_2 Ag6 1_555 1_555
O10_2 Ag7 1_555 1_555
O11_2 Ag5 1_555 1_555
O12A Ag6 1_555 1_555
O15A Ag3 1_555 1_555
O16_2 Ag4 1_555 1_555
Ag5 Ag4A 1_555 1_555
C1 N1 1_555 1_555
C2 N1 1_555 1_555
C3 N2 1_555 1_555
C4 N2 1_555 1_555
C9 C10 1_555 1_555
C12 N3 1_555 1_555
C13 N4 1_555 1_555
C14 N3 1_555 1_555
C15 N5 1_555 1_555
C16 N5 1_555 1_555
C17 N6 1_555 1_555
C18 N6 1_555 1_555
C23 C24 1_555 1_555
C26 N7 1_555 1_555
C27 N7 1_555 1_555
C28 N8 1_555 1_555
C33 C62 1_555 1_555
C39 C40 1_555 1_555
C41 O2 1_555 1_555
C43 O6 1_555 1_555
C49 C50 1_555 1_555
C56 C57 1_555 1_555
C60 O13 1_555 1_555
C60 O14 1_555 1_555
O4 Ag3A 1_555 1_555
O7 Ag6A 1_555 1_555
O8 Ag4A 1_555 1_555
Ag2A Ag3A 1_555 1_555
Ag3A_2 Ag4_2 1_555 1_555
Ag5A O8A 1_555 1_555
Ag5_2 Ag6A_2 1_555 1_555
Ag6_2 Ag7_3 1_555 1_555

#END
