
#######################################################################
#
#                 Cambridge Crystallographic Data Centre
#                                CCDC 
#
#######################################################################
#
# If this CIF has been generated from an entry in the Cambridge 
# Structural Database, then it will include bibliographic, chemical, 
# crystal, experimental, refinement or atomic coordinate data resulting 
# from the CCDC's data processing and validation procedures.
#
#######################################################################

data_ANIHIP
_symmetry_cell_setting           monoclinic
_symmetry_space_group_name_H-M   'C 2/c'
_symmetry_Int_Tables_number      15
_space_group_name_Hall           '-C 2yn'
loop_
_symmetry_equiv_pos_site_id
_symmetry_equiv_pos_as_xyz
1 x,y,z
2 1/2+x,1/2+y,z
3 -x,y,1/2-z
4 1/2-x,1/2+y,1/2-z
5 -x,-y,-z
6 1/2-x,1/2-y,-z
7 x,-y,1/2+z
8 1/2+x,1/2-y,1/2+z
_cell_length_a                   40.833(10)
_cell_length_b                   6.928(1)
_cell_length_c                   7.884(2)
_cell_angle_alpha                90
_cell_angle_beta                 91.92(1)
_cell_angle_gamma                90
_cell_volume                     2229.06
loop_
_atom_site_label
_atom_site_type_symbol
_atom_site_fract_x
_atom_site_fract_y
_atom_site_fract_z
Ni1 Ni 0.50000 0.50000 0.50000
O1 O 0.46410 0.32040 0.56380
O2 O 0.50000 0.61140 0.75000
O3 O 0.44260 0.23660 0.32550
O4 O 0.36780 0.37450 0.41880
O5 O 0.46550 0.70080 0.41630
N1 N 0.38880 0.07620 0.47560
C1 C 0.44010 0.24350 0.49130
C2 C 0.41450 0.15680 0.58380
C3 C 0.36580 0.18800 0.41300
C4 C 0.33770 0.11450 0.31730
C5 C 0.31090 0.22560 0.23820
C6 C 0.27940 0.18150 0.15890
C7 C 0.27830 -0.01820 0.14100
C8 C 0.30090 -0.16260 0.20340
C9 C 0.33150 -0.09390 0.31020
O1D O 0.53590 0.67960 0.43620
O2D O 0.50000 0.38860 0.25000
O5D O 0.53450 0.29920 0.58370
Ni1B Ni 0.50000 0.50000 1.00000
C1D C 0.55990 0.75650 0.50870
Ni1B_2 Ni 0.50000 0.50000 0.00000
O1B O 0.53590 0.32040 0.93620
O1F O 0.46410 0.67960 1.06380
O2D_2 O 0.50000 0.38860 1.25000
O5B O 0.53450 0.70080 1.08370
O5F O 0.46550 0.29920 0.91630
O3D O 0.55740 0.76340 0.67450
C2D C 0.58550 0.84320 0.41620
C1B C 0.55990 0.24350 1.00870
C1F C 0.44010 0.75650 0.99130
N1D N 0.61120 0.92380 0.52440
O3B O 0.55740 0.23660 1.17450
C2B C 0.58550 0.15680 0.91620
O3F O 0.44260 0.76340 0.82550
C2F C 0.41450 0.84320 1.08380
C3D C 0.63420 0.81200 0.58700
N1B N 0.61120 0.07620 1.02440
N1F N 0.38880 0.92380 0.97560
O4D O 0.63220 0.62550 0.58120
C4D C 0.66230 0.88550 0.68270
C3B C 0.63420 0.18800 1.08700
C3F C 0.36580 0.81200 0.91300
C5D C 0.68910 0.77440 0.76180
C9D C 0.66850 1.09390 0.68980
O4B O 0.63220 0.37450 1.08120
C4B C 0.66230 0.11450 1.18270
O4F O 0.36780 0.62550 0.91880
C4F C 0.33770 0.88550 0.81730
C6D C 0.72060 0.81850 0.84110
C8D C 0.69910 1.16260 0.79660
C5B C 0.68910 0.22560 1.26180
C9B C 0.66850 -0.09390 1.18980
C5F C 0.31090 0.77440 0.73820
C9F C 0.33150 1.09390 0.81020
C7D C 0.72170 1.01820 0.85900
C6B C 0.72060 0.18150 1.34110
C8B C 0.69910 -0.16260 1.29660
C6F C 0.27940 0.81850 0.65890
C8F C 0.30090 1.16260 0.70340
C7B C 0.72170 -0.01820 1.35900
C7F C 0.27830 1.01820 0.64100
O6 O 0.40300 0.32870 0.02930
loop_
_geom_bond_atom_site_label_1
_geom_bond_atom_site_label_2
_geom_bond_site_symmetry_1
_geom_bond_site_symmetry_2
Ni1 O1 1_555 1_555
O1 C1 1_555 1_555
O2 Ni1 1_555 1_555
O3 C1 1_555 1_555
O4 C3 1_555 1_555
O5 Ni1 1_555 1_555
N1 C2 1_555 1_555
C1 C2 1_555 1_555
C3 N1 1_555 1_555
C4 C3 1_555 1_555
C5 C4 1_555 1_555
C6 C5 1_555 1_555
C7 C6 1_555 1_555
C8 C7 1_555 1_555
C9 C4 1_555 1_555
O1D Ni1 1_555 1_555
O2D Ni1 1_555 1_555
O5D Ni1 1_555 1_555
Ni1B O2 1_555 1_555
C1D O1D 1_555 1_555
Ni1B_2 O2D 1_555 1_555
O1B Ni1B 1_555 1_555
O1F Ni1B 1_555 1_555
O2D_2 Ni1B 1_555 1_555
O5B Ni1B 1_555 1_555
O5F Ni1B 1_555 1_555
O3D C1D 1_555 1_555
C2D C1D 1_555 1_555
C1B O1B 1_555 1_555
C1F O1F 1_555 1_555
N1D C2D 1_555 1_555
O3B C1B 1_555 1_555
C2B C1B 1_555 1_555
O3F C1F 1_555 1_555
C2F C1F 1_555 1_555
C3D N1D 1_555 1_555
N1B C2B 1_555 1_555
N1F C2F 1_555 1_555
O4D C3D 1_555 1_555
C4D C3D 1_555 1_555
C3B N1B 1_555 1_555
C3F N1F 1_555 1_555
C5D C4D 1_555 1_555
C9D C4D 1_555 1_555
O4B C3B 1_555 1_555
C4B C3B 1_555 1_555
O4F C3F 1_555 1_555
C4F C3F 1_555 1_555
C6D C5D 1_555 1_555
C8D C9D 1_555 1_555
C5B C4B 1_555 1_555
C9B C4B 1_555 1_555
C5F C4F 1_555 1_555
C9F C4F 1_555 1_555
C7D C6D 1_555 1_555
C6B C5B 1_555 1_555
C8B C9B 1_555 1_555
C6F C5F 1_555 1_555
C8F C9F 1_555 1_555
C7B C6B 1_555 1_555
C7F C6F 1_555 1_555
C8 C9 1_555 1_555
C8D C7D 1_555 1_555
C8B C7B 1_555 1_555
C8F C7F 1_555 1_555

#END
