
#######################################################################
#
#                 Cambridge Crystallographic Data Centre
#                                CCDC 
#
#######################################################################
#
# If this CIF has been generated from an entry in the Cambridge 
# Structural Database, then it will include bibliographic, chemical, 
# crystal, experimental, refinement or atomic coordinate data resulting 
# from the CCDC's data processing and validation procedures.
#
#######################################################################

data_ANINAN
_symmetry_cell_setting           orthorhombic
_symmetry_space_group_name_H-M   'P 21 21 21'
_symmetry_Int_Tables_number      19
_space_group_name_Hall           'P 2ac 2ab'
loop_
_symmetry_equiv_pos_site_id
_symmetry_equiv_pos_as_xyz
1 x,y,z
2 1/2-x,-y,1/2+z
3 -x,1/2+y,1/2-z
4 1/2+x,1/2-y,-z
_cell_length_a                   8.2066(2)
_cell_length_b                   15.3598(4)
_cell_length_c                   18.9926(4)
_cell_angle_alpha                90
_cell_angle_beta                 90
_cell_angle_gamma                90
_cell_volume                     2394.05
loop_
_atom_site_label
_atom_site_type_symbol
_atom_site_fract_x
_atom_site_fract_y
_atom_site_fract_z
Cs1 Cs -0.10720(2) 0.164073(12) 0.900897(9)
O1 O 0.1385(3) 0.00207(15) 0.93740(11)
O2 O 0.1311(3) 0.07468(17) 0.79690(12)
O3 O 0.1204(4) 0.26014(17) 0.78901(11)
O4 O -0.0141(3) 0.36186(14) 0.89977(16)
O5 O 0.0162(3) 0.28125(16) 1.03533(13)
O6 O -0.0062(3) 0.09588(17) 1.04773(11)
C1 C 0.0685(5) 0.0141(3) 1.05810(18)
H1 H 0.0174 -0.0158 1.0973
H2 H 0.1830 0.0219 1.0689
C2 C 0.0505(5) -0.0386(2) 0.9928(2)
H3 H 0.0921 -0.0969 1.0006
H4 H -0.0638 -0.0430 0.9802
C3 C 0.1313(5) -0.0460(2) 0.8739(2)
H5 H 0.0187 -0.0535 0.8596
H6 H 0.1788 -0.1032 0.8808
C4 C 0.2221(4) 0.0015(3) 0.8186(2)
H7 H 0.3268 0.0202 0.8369
H8 H 0.2414 -0.0365 0.7788
C5 C 0.2127(5) 0.1259(3) 0.74479(19)
H9 H 0.2264 0.0921 0.7021
H10 H 0.3198 0.1424 0.7618
C6 C 0.1169(6) 0.2038(3) 0.72978(17)
H11 H 0.1614 0.2335 0.6890
H12 H 0.0052 0.1876 0.7193
C7 C 0.0342(5) 0.3380(3) 0.7786(2)
H13 H -0.0811 0.3253 0.7737
H14 H 0.0710 0.3656 0.7355
C8 C 0.0596(5) 0.3978(3) 0.8388(3)
H15 H 0.1753 0.4060 0.8468
H16 H 0.0116 0.4541 0.8285
C9 C 0.0240(5) 0.4075(2) 0.9615(3)
H17 H -0.0141 0.4671 0.9576
H18 H 0.1412 0.4086 0.9681
C10 C -0.0550(5) 0.3645(3) 1.0226(2)
H19 H -0.0426 0.4007 1.0641
H20 H -0.1705 0.3576 1.0135
C11 C -0.0639(4) 0.2361(3) 1.09092(18)
H21 H -0.1763 0.2251 1.0778
H22 H -0.0640 0.2720 1.1330
C12 C 0.0183(4) 0.1530(3) 1.10588(17)
H23 H 0.1340 0.1627 1.1130
H24 H -0.0261 0.1273 1.1484
O7 O -0.3428(3) 0.18869(14) 0.77821(11)
O8 O -0.3261(3) 0.09248(14) 0.69182(12)
O9 O -0.7044(3) 0.49908(17) 0.62475(13)
O10 O -0.6327(3) 0.46255(14) 0.73404(11)
H25 H -0.653(6) 0.531(3) 0.760(2)
C13 C -0.4106(4) 0.23568(19) 0.66350(14)
C14 C -0.4895(3) 0.30916(18) 0.68737(15)
H26 H -0.5018 0.3175 0.7356
C15 C -0.5508(4) 0.37078(19) 0.64151(15)
C16 C -0.5271(4) 0.3585(2) 0.56960(16)
H27 H -0.5677 0.3995 0.5382
C17 C -0.4445(4) 0.2866(2) 0.54373(15)
C18 C -0.3870(5) 0.22441(17) 0.59098(15)
H28 H -0.3329 0.1753 0.5744
C19 C -0.3552(3) 0.1686(2) 0.71616(14)
C20 C -0.6378(4) 0.4515(2) 0.66735(17)
C21 C -0.4151(6) 0.2771(2) 0.46524(15)
H29 H -0.3567 0.2241 0.4564
H30 H -0.3522 0.3257 0.4486
H31 H -0.5178 0.2756 0.4410
Cs1B Cs -0.89280(2) 0.664073(12) 0.599103(9)
O9B O -0.2956(3) -0.00092(17) 0.87525(13)
loop_
_geom_bond_atom_site_label_1
_geom_bond_atom_site_label_2
_geom_bond_site_symmetry_1
_geom_bond_site_symmetry_2
Cs1 O1 1_555 1_555
O1 C2 1_555 1_555
O2 Cs1 1_555 1_555
O3 Cs1 1_555 1_555
O4 Cs1 1_555 1_555
O5 Cs1 1_555 1_555
O6 Cs1 1_555 1_555
C1 O6 1_555 1_555
H1 C1 1_555 1_555
H2 C1 1_555 1_555
C2 C1 1_555 1_555
H3 C2 1_555 1_555
H4 C2 1_555 1_555
C3 O1 1_555 1_555
H5 C3 1_555 1_555
H6 C3 1_555 1_555
C4 O2 1_555 1_555
H7 C4 1_555 1_555
H8 C4 1_555 1_555
C5 O2 1_555 1_555
H9 C5 1_555 1_555
H10 C5 1_555 1_555
C6 O3 1_555 1_555
H11 C6 1_555 1_555
H12 C6 1_555 1_555
C7 O3 1_555 1_555
H13 C7 1_555 1_555
H14 C7 1_555 1_555
C8 O4 1_555 1_555
H15 C8 1_555 1_555
H16 C8 1_555 1_555
C9 O4 1_555 1_555
H17 C9 1_555 1_555
H18 C9 1_555 1_555
C10 O5 1_555 1_555
H19 C10 1_555 1_555
H20 C10 1_555 1_555
C11 O5 1_555 1_555
H21 C11 1_555 1_555
H22 C11 1_555 1_555
C12 O6 1_555 1_555
H23 C12 1_555 1_555
H24 C12 1_555 1_555
O7 Cs1 1_555 1_555
O8 C19 1_555 1_555
O9 C20 1_555 1_555
O10 H25 1_555 1_555
C13 C14 1_555 1_555
C14 H26 1_555 1_555
C15 C14 1_555 1_555
C16 C15 1_555 1_555
H27 C16 1_555 1_555
C17 C16 1_555 1_555
C18 C13 1_555 1_555
H28 C18 1_555 1_555
C19 O7 1_555 1_555
C20 O10 1_555 1_555
C21 C17 1_555 1_555
H29 C21 1_555 1_555
H30 C21 1_555 1_555
H31 C21 1_555 1_555
Cs1B O9 1_555 1_555
O9B Cs1 1_555 1_555
C3 C4 1_555 1_555
C5 C6 1_555 1_555
C7 C8 1_555 1_555
C9 C10 1_555 1_555
C11 C12 1_555 1_555
C13 C19 1_555 1_555
C15 C20 1_555 1_555
C17 C18 1_555 1_555

#END
