
#######################################################################
#
#                 Cambridge Crystallographic Data Centre
#                                CCDC 
#
#######################################################################
#
# If this CIF has been generated from an entry in the Cambridge 
# Structural Database, then it will include bibliographic, chemical, 
# crystal, experimental, refinement or atomic coordinate data resulting 
# from the CCDC's data processing and validation procedures.
#
#######################################################################

data_ANINUH
_symmetry_cell_setting           monoclinic
_symmetry_space_group_name_H-M   'P 21/n'
_symmetry_Int_Tables_number      14
_space_group_name_Hall           '-P 2yn'
loop_
_symmetry_equiv_pos_site_id
_symmetry_equiv_pos_as_xyz
1 x,y,z
2 1/2-x,1/2+y,1/2-z
3 -x,-y,-z
4 1/2+x,1/2-y,1/2+z
_cell_length_a                   12.4406(3)
_cell_length_b                   16.2370(5)
_cell_length_c                   14.1394(4)
_cell_angle_alpha                90
_cell_angle_beta                 98.318(2)
_cell_angle_gamma                90
_cell_volume                     2826.09
loop_
_atom_site_label
_atom_site_type_symbol
_atom_site_fract_x
_atom_site_fract_y
_atom_site_fract_z
O1 O 0.2173(8) -0.0448(4) 0.9138(5)
O2 O 0.3698(5) 0.0041(4) 1.0668(6)
O3 O 0.2999(5) 0.1133(5) 1.1985(4)
O4 O 0.1358(7) 0.2331(3) 1.1375(6)
O5 O -0.0162(5) 0.1733(5) 0.9983(8)
O6 O 0.0345(8) 0.0579(6) 0.8575(5)
C1 C 0.323(2) -0.0610(11) 0.9141(18)
H1 H 0.3577 -0.0156 0.8860
H2 H 0.3314 -0.1105 0.8775
C2 C 0.3700(11) -0.0723(9) 1.0127(18)
H3 H 0.4441 -0.0918 1.0154
H4 H 0.3292 -0.1139 1.0416
C3 C 0.3980(11) -0.0078(11) 1.1567(17)
H5 H 0.4670 -0.0366 1.1687
H6 H 0.3436 -0.0399 1.1830
C4 C 0.4076(8) 0.0771(11) 1.2001(7)
H7 H 0.4439 0.0738 1.2655
H8 H 0.4510 0.1117 1.1644
C5 C 0.2992(15) 0.1911(12) 1.2339(10)
H9 H 0.3365 0.2282 1.1958
H10 H 0.3363 0.1924 1.2992
C6 C 0.1809(18) 0.2184(9) 1.2311(11)
H11 H 0.1401 0.1757 1.2582
H12 H 0.1778 0.2681 1.2687
C7 C 0.0265(12) 0.2536(8) 1.1292(14)
H13 H 0.0193 0.3081 1.1555
H14 H -0.0101 0.2150 1.1662
C8 C -0.0264(12) 0.2521(13) 1.0284(17)
H15 H -0.1024 0.2673 1.0239
H16 H 0.0093 0.2901 0.9901
C9 C -0.0766(13) 0.1595(13) 0.9093(14)
H17 H -0.0501 0.1952 0.8628
H18 H -0.1518 0.1740 0.9119
C10 C -0.0718(13) 0.0756(12) 0.8781(12)
H19 H -0.0894 0.0388 0.9277
H20 H -0.1245 0.0669 0.8213
C11 C 0.0431(17) -0.0209(13) 0.8231(10)
H21 H 0.0010 -0.0256 0.7600
H22 H 0.0145 -0.0600 0.8650
C12 C 0.159(2) -0.0396(9) 0.8182(12)
H23 H 0.1642 -0.0914 0.7851
H24 H 0.1896 0.0034 0.7829
O7 O 0.4540(3) 0.2273(3) 1.0233(3)
O8 O 0.4786(4) 0.2933(4) 0.8898(3)
H25 H 0.4594 0.2516 0.8595
O9 O 0.7698(7) 0.2416(3) 1.2892(4)
O10 O 0.8749(4) 0.3485(4) 1.2972(3)
C13 C 0.5971(4) 0.3233(3) 1.0300(3)
C14 C 0.6336(3) 0.3941(3) 0.9906(3)
H26 H 0.5990 0.4119 0.9315
C15 C 0.7201(3) 0.4394(3) 1.0368(3)
C16 C 0.7701(3) 0.4077(3) 1.1230(3)
H27 H 0.8298 0.4357 1.1550
C17 C 0.7368(4) 0.3379(3) 1.1636(3)
C18 C 0.6494(4) 0.2962(3) 1.1173(4)
H28 H 0.6248 0.2491 1.1449
C19 C 0.5031(5) 0.2750(4) 0.9801(4)
C20 C 0.8016(6) 0.3046(5) 1.2587(4)
C21 C 0.7576(5) 0.5186(4) 0.9943(4)
C22 C 0.6721(11) 0.5581(7) 0.9316(11)
H29 H 0.6150 0.5736 0.9670
H30 H 0.6439 0.5208 0.8814
H31 H 0.7001 0.6063 0.9044
C23 C 0.8004(10) 0.5791(5) 1.0661(6)
H32 H 0.8579 0.5547 1.1098
H33 H 0.7435 0.5969 1.1005
H34 H 0.8281 0.6256 1.0353
C24 C 0.8423(13) 0.4993(6) 0.9379(11)
H35 H 0.9018 0.4734 0.9778
H36 H 0.8670 0.5490 0.9114
H37 H 0.8143 0.4625 0.8871
Cs1 Cs 0.23176(2) 0.14595(2) 0.97526(2)
O9C O 0.2698(7) 0.2584(3) 0.7892(4)
O10C O 0.3749(4) 0.1515(4) 0.7972(3)
Cs1C Cs 0.73176(2) 0.35405(2) 1.47526(2)
loop_
_geom_bond_atom_site_label_1
_geom_bond_atom_site_label_2
_geom_bond_site_symmetry_1
_geom_bond_site_symmetry_2
O1 C1 1_555 1_555
O2 C2 1_555 1_555
O3 C4 1_555 1_555
O4 C6 1_555 1_555
O5 C8 1_555 1_555
O6 C10 1_555 1_555
C1 H1 1_555 1_555
H2 C1 1_555 1_555
C2 C1 1_555 1_555
H3 C2 1_555 1_555
H4 C2 1_555 1_555
C3 O2 1_555 1_555
H5 C3 1_555 1_555
H6 C3 1_555 1_555
C4 C3 1_555 1_555
H7 C4 1_555 1_555
H8 C4 1_555 1_555
C5 O3 1_555 1_555
H9 C5 1_555 1_555
H10 C5 1_555 1_555
C6 C5 1_555 1_555
H11 C6 1_555 1_555
H12 C6 1_555 1_555
C7 O4 1_555 1_555
H13 C7 1_555 1_555
H14 C7 1_555 1_555
C8 C7 1_555 1_555
H15 C8 1_555 1_555
H16 C8 1_555 1_555
C9 O5 1_555 1_555
H17 C9 1_555 1_555
H18 C9 1_555 1_555
C10 C9 1_555 1_555
H19 C10 1_555 1_555
H20 C10 1_555 1_555
C11 O6 1_555 1_555
H21 C11 1_555 1_555
H22 C11 1_555 1_555
C12 O1 1_555 1_555
H23 C12 1_555 1_555
H24 C12 1_555 1_555
O7 C19 1_555 1_555
O8 H25 1_555 1_555
O9 C20 1_555 1_555
O10 C20 1_555 1_555
C13 C14 1_555 1_555
C14 H26 1_555 1_555
C15 C14 1_555 1_555
C16 C15 1_555 1_555
H27 C16 1_555 1_555
C17 C16 1_555 1_555
C18 C13 1_555 1_555
H28 C18 1_555 1_555
C19 O8 1_555 1_555
C20 C17 1_555 1_555
C21 C15 1_555 1_555
C22 C21 1_555 1_555
H29 C22 1_555 1_555
H30 C22 1_555 1_555
H31 C22 1_555 1_555
C23 C21 1_555 1_555
H32 C23 1_555 1_555
H33 C23 1_555 1_555
H34 C23 1_555 1_555
C24 C21 1_555 1_555
H35 C24 1_555 1_555
H36 C24 1_555 1_555
H37 C24 1_555 1_555
Cs1 O1 1_555 1_555
O9C Cs1 1_555 1_555
O10C Cs1 1_555 1_555
Cs1C O9 1_555 1_555
O2 Cs1 1_555 1_555
O3 Cs1 1_555 1_555
O4 Cs1 1_555 1_555
O5 Cs1 1_555 1_555
O6 Cs1 1_555 1_555
C11 C12 1_555 1_555
O7 Cs1 1_555 1_555
O10 Cs1C 1_555 1_555
C13 C19 1_555 1_555
C17 C18 1_555 1_555

#END
