
#######################################################################
#
#                 Cambridge Crystallographic Data Centre
#                                CCDC 
#
#######################################################################
#
# If this CIF has been generated from an entry in the Cambridge 
# Structural Database, then it will include bibliographic, chemical, 
# crystal, experimental, refinement or atomic coordinate data resulting 
# from the CCDC's data processing and validation procedures.
#
#######################################################################

data_ANIYUS
_symmetry_cell_setting           monoclinic
_symmetry_space_group_name_H-M   'P 21'
_symmetry_Int_Tables_number      4
_space_group_name_Hall           'P 2yb'
loop_
_symmetry_equiv_pos_site_id
_symmetry_equiv_pos_as_xyz
1 x,y,z
2 -x,1/2+y,-z
_cell_length_a                   7.584(4)
_cell_length_b                   10.214(5)
_cell_length_c                   8.169(4)
_cell_angle_alpha                90
_cell_angle_beta                 92.778(7)
_cell_angle_gamma                90
_cell_volume                     632.051
loop_
_atom_site_label
_atom_site_type_symbol
_atom_site_fract_x
_atom_site_fract_y
_atom_site_fract_z
Cu1 Cu 0.73009(3) 0.73173(3) 0.74118(3)
O1 O 0.87260(19) 0.87882(15) 0.68944(19)
O2 O 0.8645(2) 1.09149(17) 0.6441(2)
O3 O 0.5337(2) 0.85056(15) 0.6784(2)
H1 H 0.4377 0.8332 0.6331
O4 O 0.2683(2) 1.13065(19) 0.5153(2)
O5 O 0.1921(3) 1.0781(2) 0.7651(2)
H2 H 0.0924 1.0898 0.7243
O6 O 0.59581(18) 0.58485(15) 0.81867(19)
O7 O 0.6239(2) 0.37543(17) 0.8897(2)
O8 O 0.92785(19) 0.62213(15) 0.8165(2)
H3 H 1.0350 0.6285 0.8334
O9 O 1.2225(2) 0.4155(2) 0.7162(2)
O10 O 1.2975(2) 0.35491(18) 0.9717(2)
H4 H 1.3839 0.4033 0.9729
C1 C 0.7912(3) 0.9846(2) 0.6553(3)
C2 C 0.5905(2) 0.9778(2) 0.6263(3)
H5 H 0.5611 0.9876 0.5088
C3 C 0.4971(3) 1.0853(2) 0.7192(3)
H6 H 0.4987 1.0634 0.8348
H7 H 0.5597 1.1674 0.7078
C4 C 0.3090(3) 1.1011(2) 0.6545(3)
C5 C 0.6861(2) 0.4809(2) 0.8424(2)
C6 C 0.8802(2) 0.48623(19) 0.8019(2)
H8 H 0.8906 0.4592 0.6876
C7 C 0.9966(3) 0.3990(2) 0.9100(2)
H9 H 0.9993 0.4321 1.0214
H10 H 0.9468 0.3116 0.9105
C8 C 1.1822(3) 0.3921(2) 0.8531(3)
Cu1A Cu 0.26991(3) 1.23173(3) 0.25882(3)
Cu1A_2 Cu 1.26991(3) 0.23173(3) 1.25882(3)
O4A O 0.7317(2) 0.63065(19) 0.4847(2)
O10A O 0.7025(2) 0.85491(18) 1.0283(2)
H4A H 0.6161 0.9033 1.0271
O11 O 0.7773(2) 1.3083(2) 0.4560(2)
H11 H 0.862(3) 1.335(3) 0.419(4)
H12 H 0.791(4) 1.239(2) 0.503(3)
O12 O 1.2533(2) 0.6721(2) 0.9014(3)
H13 H 1.262(4) 0.741(2) 0.955(4)
H14 H 1.354(3) 0.653(3) 0.874(4)
loop_
_geom_bond_atom_site_label_1
_geom_bond_atom_site_label_2
_geom_bond_site_symmetry_1
_geom_bond_site_symmetry_2
Cu1 O1 1_555 1_555
O1 C1 1_555 1_555
O2 C1 1_555 1_555
O3 Cu1 1_555 1_555
H1 O3 1_555 1_555
O4 C4 1_555 1_555
O5 H2 1_555 1_555
O6 Cu1 1_555 1_555
O7 C5 1_555 1_555
O8 Cu1 1_555 1_555
H3 O8 1_555 1_555
O9 C8 1_555 1_555
O10 H4 1_555 1_555
C1 C2 1_555 1_555
C2 O3 1_555 1_555
H5 C2 1_555 1_555
C3 C2 1_555 1_555
H6 C3 1_555 1_555
H7 C3 1_555 1_555
C4 O5 1_555 1_555
C5 O6 1_555 1_555
C6 O8 1_555 1_555
H8 C6 1_555 1_555
C7 C6 1_555 1_555
H9 C7 1_555 1_555
H10 C7 1_555 1_555
C8 O10 1_555 1_555
O11 H11 1_555 1_555
H12 O11 1_555 1_555
O12 H13 1_555 1_555
H14 O12 1_555 1_555
Cu1A O4 1_555 1_555
Cu1A_2 O10 1_555 1_555
O4A Cu1 1_555 1_555
O10A Cu1 1_555 1_555
H4A O10A 1_555 1_555
C3 C4 1_555 1_555
C5 C6 1_555 1_555
C7 C8 1_555 1_555

#END
