
#######################################################################
#
#                 Cambridge Crystallographic Data Centre
#                                CCDC 
#
#######################################################################
#
# If this CIF has been generated from an entry in the Cambridge 
# Structural Database, then it will include bibliographic, chemical, 
# crystal, experimental, refinement or atomic coordinate data resulting 
# from the CCDC's data processing and validation procedures.
#
#######################################################################

data_ANOHER
_symmetry_cell_setting           monoclinic
_symmetry_space_group_name_H-M   'P 21/c'
_symmetry_Int_Tables_number      14
_space_group_name_Hall           '-P 2ybc'
loop_
_symmetry_equiv_pos_site_id
_symmetry_equiv_pos_as_xyz
1 x,y,z
2 -x,1/2+y,1/2-z
3 -x,-y,-z
4 x,1/2-y,1/2+z
_cell_length_a                   13.1141(8)
_cell_length_b                   23.6161(14)
_cell_length_c                   20.7503(12)
_cell_angle_alpha                90
_cell_angle_beta                 106.3240(10)
_cell_angle_gamma                90
_cell_volume                     6167.38
loop_
_atom_site_label
_atom_site_type_symbol
_atom_site_fract_x
_atom_site_fract_y
_atom_site_fract_z
C63 C -0.0604(16) 0.5419(9) 0.5244(8)
C64 C 0.0283(17) 0.5551(8) 0.5066(9)
C65 C -0.0501(12) 0.4814(10) 0.5300(7)
C66 C -0.0014 0.4877 0.6019
C63B C 0.0604(16) 0.4581(9) 0.4756(8)
C64B C -0.0283(17) 0.4449(8) 0.4934(9)
C65B C 0.0501(12) 0.5186(10) 0.4700(7)
C66B C 0.0014 0.5123 0.3981
Li1 Li 0.7054(4) 0.4642(2) 0.7733(3)
Li2 Li 0.5773(4) 0.7305(2) 0.8064(3)
N1 N 0.54655(18) 0.35671(10) 0.73301(12)
N2 N 0.70476(19) 0.32847(10) 0.76749(12)
N3 N 0.48869(18) 0.60355(10) 0.76299(13)
N4 N 0.65585(18) 0.60013(10) 0.79471(12)
C1 C 0.6481(2) 0.37753(12) 0.75720(15)
C2 C 0.5358(3) 0.29601(12) 0.72760(16)
C3 C 0.6394(3) 0.28078(13) 0.75057(16)
H1 H 0.6638 0.2436 0.7546
C4 C 0.8183(2) 0.32456(12) 0.79338(18)
C5 C 0.8624(3) 0.31818(15) 0.86270(19)
C6 C 0.9716(3) 0.31282(19) 0.8865(2)
H2 H 1.0033 0.3093 0.9324
C7 C 1.0329(3) 0.3127(2) 0.8436(3)
H3 H 1.1061 0.3088 0.8607
C8 C 0.9891(3) 0.31824(19) 0.7756(3)
H4 H 1.0327 0.3179 0.7472
C9 C 0.8795(3) 0.32439(15) 0.7488(2)
C10 C 0.8388(12) 0.3287(5) 0.6713(6)
H5 H 0.7645 0.3411 0.6577
C11 C 0.9021(14) 0.3653(7) 0.6415(7)
H6 H 0.8983 0.4035 0.6565
H7 H 0.8751 0.3638 0.5935
H8 H 0.9746 0.3528 0.6548
C12 C 0.8487(17) 0.2730(6) 0.6419(7)
H9 H 0.8059 0.2459 0.6570
H10 H 0.9217 0.2611 0.6558
H11 H 0.8251 0.2756 0.5938
C13 C 0.7935(3) 0.3208(2) 0.9107(2)
H12 H 0.7211 0.3097 0.8860
C14 C 0.7898(4) 0.3807(2) 0.9369(2)
H13 H 0.7454 0.3814 0.9666
H14 H 0.7613 0.4058 0.8998
H15 H 0.8603 0.3926 0.9607
C15 C 0.8328(4) 0.2804(2) 0.9707(2)
H16 H 0.7870 0.2832 0.9994
H17 H 0.9039 0.2905 0.9955
H18 H 0.8320 0.2422 0.9546
C16 C 0.4556(2) 0.39337(13) 0.71489(17)
C17 C 0.3985(3) 0.40274(15) 0.7612(2)
C18 C 0.3085(3) 0.43630(18) 0.7417(3)
H19 H 0.2686 0.4426 0.7717
C19 C 0.2774(3) 0.4601(2) 0.6799(3)
H20 H 0.2170 0.4828 0.6680
C20 C 0.3332(3) 0.45113(17) 0.6357(2)
H21 H 0.3102 0.4677 0.5934
C21 C 0.4253(3) 0.41749(14) 0.65109(19)
C22 C 0.4866(6) 0.4109(4) 0.6001(4)
H22 H 0.5305 0.3769 0.6124
C23 C 0.5629(9) 0.4612(4) 0.6031(6)
H23 H 0.6042 0.4548 0.5722
H24 H 0.6095 0.4647 0.6478
H25 H 0.5225 0.4955 0.5911
C24 C 0.4198(6) 0.4035(6) 0.5268(4)
H26 H 0.4661 0.3982 0.4988
H27 H 0.3772 0.4367 0.5126
H28 H 0.3745 0.3711 0.5233
C25 C 0.4280(12) 0.3798(8) 0.8327(6)
H29 H 0.4708 0.3454 0.8350
C26 C 0.4910(17) 0.4228(10) 0.8799(11)
H30 H 0.5099 0.4080 0.9248
H31 H 0.4493 0.4565 0.8779
H32 H 0.5544 0.4316 0.8675
C27 C 0.3279(16) 0.3655(9) 0.8536(9)
H33 H 0.3479 0.3503 0.8983
H34 H 0.2866 0.3380 0.8232
H35 H 0.2866 0.3992 0.8523
C28 C 0.5741(2) 0.63812(12) 0.78698(15)
C29 C 0.5202(2) 0.54749(13) 0.75761(16)
H36 H 0.4736 0.5175 0.7425
C30 C 0.6280(2) 0.54262(12) 0.77744(16)
C31 C 0.7649(2) 0.61721(12) 0.81946(17)
C32 C 0.8216(2) 0.60332(14) 0.88468(18)
C33 C 0.9268(3) 0.61973(18) 0.9072(2)
H37 H 0.9661 0.6109 0.9507
C34 C 0.9741(3) 0.64895(19) 0.8661(3)
H38 H 1.0447 0.6600 0.8824
C35 C 0.9186(3) 0.66205(18) 0.8014(2)
H39 H 0.9521 0.6814 0.7741
C36 C 0.8116(3) 0.64642(15) 0.77631(19)
C37 C 0.757(2) 0.6579(5) 0.7011(7)
H40 H 0.6933 0.6339 0.6888
C38 C 0.8199(9) 0.6434(5) 0.6521(4)
H41 H 0.7777 0.6511 0.6071
H42 H 0.8386 0.6039 0.6562
H43 H 0.8835 0.6658 0.6621
C39 C 0.7168(8) 0.7196(4) 0.6900(5)
H44 H 0.6743 0.7279 0.7197
H45 H 0.6748 0.7243 0.6444
H46 H 0.7765 0.7448 0.6992
C40 C 0.7701(3) 0.5708(2) 0.93071(19)
H47 H 0.7201 0.5438 0.9027
C41 C 0.8486(5) 0.5368(3) 0.9849(3)
H48 H 0.8870 0.5113 0.9643
H49 H 0.8107 0.5156 1.0103
H50 H 0.8976 0.5621 1.0142
C42 C 0.7090(5) 0.6070(3) 0.9643(3)
H51 H 0.6781 0.5840 0.9921
H52 H 0.6537 0.6260 0.9311
H53 H 0.7555 0.6346 0.9916
C43 C 0.3792(2) 0.62081(13) 0.74541(18)
C44 C 0.3267(3) 0.62194(14) 0.7952(2)
C45 C 0.2189(3) 0.63731(17) 0.7750(2)
H54 H 0.1813 0.6388 0.8069
C46 C 0.1681(3) 0.65011(18) 0.7096(3)
H55 H 0.0968 0.6605 0.6974
C47 C 0.2214(3) 0.64768(17) 0.6625(2)
H56 H 0.1853 0.6563 0.6182
C48 C 0.3275(3) 0.63279(14) 0.67779(19)
C49 C 0.3855(3) 0.63113(18) 0.62512(19)
H57 H 0.4468 0.6060 0.6415
C50 C 0.4283(4) 0.6890(2) 0.6148(2)
H58 H 0.4662 0.6866 0.5815
H59 H 0.4755 0.7021 0.6564
H60 H 0.3703 0.7152 0.6001
C51 C 0.3173(4) 0.6065(2) 0.5582(2)
H61 H 0.3582 0.6055 0.5264
H62 H 0.2558 0.6299 0.5410
H63 H 0.2952 0.5689 0.5654
C52 C 0.3833(3) 0.60753(18) 0.8678(2)
H64 H 0.4512 0.5899 0.8686
C53 C 0.3216(4) 0.5654(2) 0.8976(3)
H65 H 0.3606 0.5574 0.9432
H66 H 0.3114 0.5311 0.8718
H67 H 0.2537 0.5812 0.8965
C54 C 0.4079(4) 0.6608(2) 0.9108(2)
H68 H 0.4442 0.6506 0.9562
H69 H 0.3427 0.6799 0.9097
H70 H 0.4521 0.6855 0.8935
O1 O 0.8621(2) 0.47041(12) 0.77763(18)
C55 C 0.8940(5) 0.5066(2) 0.7333(3)
H71 H 0.8722 0.5452 0.7383
H72 H 0.8629 0.4948 0.6872
C56 C 1.0135(5) 0.5023(3) 0.7519(4)
H73 H 1.0354 0.4759 0.7225
H74 H 1.0448 0.5390 0.7485
C57 C 1.0454(4) 0.4823(3) 0.8204(4)
H75 H 1.0817 0.5120 0.8505
H76 H 1.0928 0.4501 0.8248
C58 C 0.9475(4) 0.4659(2) 0.8361(3)
H77 H 0.9533 0.4273 0.8527
H78 H 0.9357 0.4905 0.8708
O2 O 0.7088(3) 0.75609(13) 0.87368(19)
C59 C 0.7951(17) 0.7827(10) 0.8641(8)
H79 H 0.7728 0.8159 0.8361
H80 H 0.8322 0.7575 0.8415
C60 C 0.8662(14) 0.7997(9) 0.9290(10)
H81 H 0.8894 0.8386 0.9281
H82 H 0.9279 0.7752 0.9423
C61 C 0.7974(13) 0.7930(10) 0.9741(8)
H83 H 0.7884 0.8293 0.9938
H84 H 0.8300 0.7670 1.0102
C62 C 0.6939(12) 0.7711(9) 0.9352(8)
H85 H 0.6735 0.7385 0.9572
H86 H 0.6393 0.7999 0.9295
Li1A Li 0.2946(4) 0.9642(2) 0.7267(3)
Li1A_2 Li 0.2946(4) -0.0358(2) 0.7267(3)
Li2A Li 0.4227(4) 0.2305(2) 0.6936(3)
N1A N 0.45345(18) 0.85671(10) 0.76699(12)
N2A N 0.29524(19) 0.82847(10) 0.73251(12)
N3A N 0.51131(18) 0.10355(10) 0.73701(13)
N4A N 0.34415(18) 0.10013(10) 0.70529(12)
C1A C 0.3519(2) 0.87753(12) 0.74280(15)
C2A C 0.4642(3) 0.79601(12) 0.77240(16)
C3A C 0.3606(3) 0.78078(13) 0.74943(16)
H1A H 0.3362 0.7436 0.7454
C4A C 0.1817(2) 0.82456(12) 0.70662(18)
C5A C 0.1376(3) 0.81818(15) 0.63730(19)
C6A C 0.0284(3) 0.81282(19) 0.6135(2)
H2A H -0.0033 0.8093 0.5676
C7A C -0.0329(3) 0.8127(2) 0.6564(3)
H3A H -0.1061 0.8088 0.6393
C8A C 0.0109(3) 0.81824(19) 0.7244(3)
H4A H -0.0327 0.8179 0.7528
C9A C 0.1205(3) 0.82439(15) 0.7512(2)
C10A C 0.1612(12) 0.8287(5) 0.8287(6)
H5A H 0.2355 0.8411 0.8423
C11A C 0.0979(14) 0.8653(7) 0.8585(7)
H6A H 0.1017 0.9035 0.8435
H7A H 0.1249 0.8638 0.9065
H8A H 0.0254 0.8528 0.8452
C12A C 0.1513(17) 0.7730(6) 0.8581(7)
H9A H 0.1941 0.7459 0.8430
H10A H 0.0783 0.7611 0.8442
H11A H 0.1749 0.7756 0.9062
C13A C 0.2065(3) 0.8208(2) 0.5893(2)
H12A H 0.2789 0.8097 0.6140
C14A C 0.2102(4) 0.8807(2) 0.5631(2)
H13A H 0.2546 0.8814 0.5334
H14A H 0.2387 0.9058 0.6002
H15A H 0.1397 0.8926 0.5393
C15A C 0.1672(4) 0.7804(2) 0.5293(2)
H16A H 0.2130 0.7832 0.5006
H17A H 0.0961 0.7905 0.5045
H18A H 0.1680 0.7422 0.5454
C16A C 0.5444(2) 0.89337(13) 0.78511(17)
C17A C 0.6015(3) 0.90274(15) 0.7388(2)
C18A C 0.6915(3) 0.93630(18) 0.7583(3)
H19A H 0.7314 0.9426 0.7283
C19A C 0.7226(3) 0.9601(2) 0.8201(3)
H20A H 0.7830 0.9828 0.8320
C20A C 0.6668(3) 0.95113(17) 0.8643(2)
H21A H 0.6898 0.9677 0.9066
C21A C 0.5747(3) 0.91749(14) 0.84891(19)
C22A C 0.5134(6) 0.9109(4) 0.8999(4)
H22A H 0.4695 0.8769 0.8876
C23A C 0.4371(9) 0.9612(4) 0.8969(6)
H23A H 0.3958 0.9548 0.9278
H24A H 0.3905 0.9647 0.8522
H25A H 0.4775 0.9955 0.9089
C24A C 0.5802(6) 0.9035(6) 0.9732(4)
H26A H 0.5339 0.8982 1.0012
H27A H 0.6228 0.9367 0.9874
H28A H 0.6255 0.8711 0.9767
C25A C 0.5720(12) 0.8798(8) 0.6673(6)
H29A H 0.5292 0.8454 0.6650
C26A C 0.5090(17) 0.9228(10) 0.6201(11)
H30A H 0.4901 0.9080 0.5752
H31A H 0.5507 0.9565 0.6221
H32A H 0.4456 0.9316 0.6325
C27A C 0.6721(16) 0.8655(9) 0.6464(9)
H33A H 0.6521 0.8503 0.6017
H34A H 0.7134 0.8380 0.6768
H35A H 0.7134 0.8992 0.6477
C28A C 0.4259(2) 0.13812(12) 0.71302(15)
C29A C 0.4798(2) 0.04749(13) 0.74239(16)
H36A H 0.5264 0.0175 0.7575
C30A C 0.3720(2) 0.04262(12) 0.72256(16)
C30A_2 C 0.3720(2) 1.04262(12) 0.72256(16)
C31A C 0.2351(2) 0.11721(12) 0.68054(17)
C32A C 0.1784(2) 0.10332(14) 0.61532(18)
C33A C 0.0732(3) 0.11973(18) 0.5928(2)
H37A H 0.0339 0.1109 0.5493
C34A C 0.0259(3) 0.14895(19) 0.6339(3)
H38A H -0.0447 0.1600 0.6176
C35A C 0.0814(3) 0.16205(18) 0.6986(2)
H39A H 0.0479 0.1814 0.7259
C36A C 0.1884(3) 0.14642(15) 0.72369(19)
C37A C 0.243(2) 0.1579(5) 0.7989(7)
H40A H 0.3067 0.1339 0.8112
C38A C 0.1801(9) 0.1434(5) 0.8479(4)
H41A H 0.2223 0.1511 0.8929
H42A H 0.1614 0.1039 0.8438
H43A H 0.1165 0.1658 0.8379
C39A C 0.2832(8) 0.2196(4) 0.8100(5)
H44A H 0.3257 0.2279 0.7803
H45A H 0.3252 0.2243 0.8556
H46A H 0.2235 0.2448 0.8008
C40A C 0.2299(3) 0.0708(2) 0.56929(19)
H47A H 0.2799 0.0438 0.5973
C41A C 0.1514(5) 0.0368(3) 0.5151(3)
H48A H 0.1130 0.0113 0.5357
H49A H 0.1893 0.0156 0.4897
H50A H 0.1024 0.0621 0.4858
C42A C 0.2910(5) 0.1070(3) 0.5357(3)
H51A H 0.3219 0.0840 0.5079
H52A H 0.3463 0.1260 0.5689
H53A H 0.2445 0.1346 0.5084
C43A C 0.6208(2) 0.12081(13) 0.75459(18)
C44A C 0.6733(3) 0.12194(14) 0.7048(2)
C45A C 0.7811(3) 0.13731(17) 0.7250(2)
H54A H 0.8187 0.1388 0.6931
C46A C 0.8319(3) 0.15011(18) 0.7904(3)
H55A H 0.9032 0.1605 0.8026
C47A C 0.7786(3) 0.14768(17) 0.8375(2)
H56A H 0.8147 0.1563 0.8818
C48A C 0.6725(3) 0.13279(14) 0.82221(19)
C49A C 0.6145(3) 0.13113(18) 0.87488(19)
H57A H 0.5532 0.1060 0.8585
C50A C 0.5717(4) 0.1890(2) 0.8852(2)
H58A H 0.5338 0.1866 0.9185
H59A H 0.5245 0.2021 0.8436
H60A H 0.6297 0.2152 0.8999
C51A C 0.6827(4) 0.1065(2) 0.9418(2)
H61A H 0.6418 0.1055 0.9736
H62A H 0.7442 0.1299 0.9590
H63A H 0.7048 0.0689 0.9346
C52A C 0.6167(3) 0.10753(18) 0.6322(2)
H64A H 0.5488 0.0899 0.6314
C53A C 0.6784(4) 0.0654(2) 0.6024(3)
H65A H 0.6394 0.0574 0.5568
H66A H 0.6886 0.0311 0.6282
H67A H 0.7463 0.0812 0.6035
C54A C 0.5921(4) 0.1608(2) 0.5892(2)
H68A H 0.5558 0.1506 0.5438
H69A H 0.6573 0.1799 0.5903
H70A H 0.5479 0.1855 0.6065
O1A O 0.1379(2) 0.97041(12) 0.72237(18)
C55A C 0.1060(5) 1.0066(2) 0.7667(3)
H71A H 0.1278 1.0452 0.7617
H72A H 0.1371 0.9948 0.8128
C56A C -0.0135(5) 1.0023(3) 0.7481(4)
H73A H -0.0354 0.9759 0.7775
H74A H -0.0448 1.0390 0.7515
C57A C -0.0454(4) 0.9823(3) 0.6796(4)
H75A H -0.0817 1.0120 0.6495
H76A H -0.0928 0.9501 0.6752
C58A C 0.0525(4) 0.9659(2) 0.6639(3)
H77A H 0.0467 0.9273 0.6473
H78A H 0.0643 0.9905 0.6292
O2A O 0.2912(3) 0.25609(13) 0.62632(19)
C59A C 0.2049(17) 0.2827(10) 0.6359(8)
H79A H 0.2272 0.3159 0.6639
H80A H 0.1678 0.2575 0.6585
C60A C 0.1338(14) 0.2997(9) 0.5710(10)
H81A H 0.1106 0.3386 0.5719
H82A H 0.0721 0.2752 0.5577
C61A C 0.2026(13) 0.2930(10) 0.5259(8)
H83A H 0.2116 0.3293 0.5062
H84A H 0.1700 0.2670 0.4898
C62A C 0.3061(12) 0.2711(9) 0.5648(8)
H85A H 0.3265 0.2385 0.5428
H86A H 0.3607 0.2999 0.5705
C67? C 0.814(2) 0.3312(9) 0.6769(9)
C68? C 0.828(3) 0.3784(8) 0.6392(12)
C69? C 0.781(2) 0.2829(8) 0.6330(11)
C70? C 0.509(3) 0.4078(15) 0.6125(16)
C71? C 0.514(4) 0.4652(13) 0.578(2)
C72? C 0.456(4) 0.3638(16) 0.558(2)
C73? C 0.451(2) 0.3767(16) 0.8307(12)
C74? C 0.500(3) 0.4203(17) 0.882(2)
C75? C 0.383(3) 0.3348(16) 0.8574(12)
C76? C 0.741(3) 0.6627(7) 0.7082(10)
C77? C 0.7235(11) 0.6138(5) 0.6594(5)
C78? C 0.7903(13) 0.7125(6) 0.6794(7)
C79? C 0.224(2) 0.2980(11) 0.6460(11)
C80? C 0.156(2) 0.3234(12) 0.5855(13)
C81? C 0.157(2) 0.2854(11) 0.5295(11)
C82? C 0.2397(18) 0.2442(7) 0.5567(8)
H87? H 0.7460 0.3411 0.6843
H88? H 0.8438 0.4111 0.6679
H89? H 0.7635 0.3850 0.6040
H90? H 0.8851 0.3715 0.6199
H91? H 0.7589 0.2529 0.6572
H92? H 0.8397 0.2701 0.6175
H93? H 0.7232 0.2936 0.5953
H94? H 0.5784 0.3955 0.6414
H95? H 0.5563 0.4614 0.5471
H96? H 0.5455 0.4931 0.6111
H97? H 0.4435 0.4768 0.5538
H98? H 0.4991 0.3588 0.5279
H99? H 0.3870 0.3769 0.5337
H100? H 0.4500 0.3283 0.5794
H101? H 0.5103 0.3543 0.8249
H102? H 0.5366 0.4020 0.9229
H103? H 0.4451 0.4444 0.8891
H104? H 0.5487 0.4425 0.8657
H105? H 0.3648 0.3031 0.8273
H106? H 0.3197 0.3532 0.8607
H107? H 0.4232 0.3216 0.9010
H108? H 0.6723 0.6746 0.7130
H109? H 0.6783 0.6257 0.6167
H110? H 0.6904 0.5831 0.6763
H111? H 0.7905 0.6014 0.6543
H112? H 0.8010 0.7439 0.7100
H113? H 0.7431 0.7236 0.6369
H114? H 0.8573 0.7011 0.6733
H115? H 0.1809 0.2799 0.6713
H116? H 0.2673 0.3268 0.6740
H117? H 0.1824 0.3606 0.5784
H118? H 0.0841 0.3275 0.5891
H119? H 0.1724 0.3064 0.4932
H120? H 0.0888 0.2668 0.5124
H121? H 0.2091 0.2065 0.5525
H122? H 0.2917 0.2452 0.5315
loop_
_geom_bond_atom_site_label_1
_geom_bond_atom_site_label_2
_geom_bond_site_symmetry_1
_geom_bond_site_symmetry_2
Li1 C1 1_555 1_555
Li2 C28 1_555 1_555
N1 C1 1_555 1_555
N2 C1 1_555 1_555
N3 C28 1_555 1_555
N4 C28 1_555 1_555
C2 N1 1_555 1_555
C3 N2 1_555 1_555
H1 C3 1_555 1_555
C4 N2 1_555 1_555
C5 C4 1_555 1_555
C6 C5 1_555 1_555
H2 C6 1_555 1_555
C7 C6 1_555 1_555
H3 C7 1_555 1_555
C8 C7 1_555 1_555
H4 C8 1_555 1_555
C9 C4 1_555 1_555
C10 C9 1_555 1_555
H5 C10 1_555 1_555
C11 C10 1_555 1_555
H6 C11 1_555 1_555
H7 C11 1_555 1_555
H8 C11 1_555 1_555
C12 C10 1_555 1_555
H9 C12 1_555 1_555
H10 C12 1_555 1_555
H11 C12 1_555 1_555
C13 C5 1_555 1_555
H12 C13 1_555 1_555
C14 C13 1_555 1_555
H13 C14 1_555 1_555
H14 C14 1_555 1_555
H15 C14 1_555 1_555
C15 C13 1_555 1_555
H16 C15 1_555 1_555
H17 C15 1_555 1_555
H18 C15 1_555 1_555
C16 N1 1_555 1_555
C17 C16 1_555 1_555
C18 C17 1_555 1_555
H19 C18 1_555 1_555
C19 C18 1_555 1_555
H20 C19 1_555 1_555
C20 C19 1_555 1_555
H21 C20 1_555 1_555
C21 C16 1_555 1_555
C22 C21 1_555 1_555
H22 C22 1_555 1_555
C23 C22 1_555 1_555
H23 C23 1_555 1_555
H24 C23 1_555 1_555
H25 C23 1_555 1_555
C24 C22 1_555 1_555
H26 C24 1_555 1_555
H27 C24 1_555 1_555
H28 C24 1_555 1_555
C25 C17 1_555 1_555
H29 C25 1_555 1_555
C26 C25 1_555 1_555
H30 C26 1_555 1_555
H31 C26 1_555 1_555
H32 C26 1_555 1_555
C27 C25 1_555 1_555
H33 C27 1_555 1_555
H34 C27 1_555 1_555
H35 C27 1_555 1_555
C29 N3 1_555 1_555
H36 C29 1_555 1_555
C30 Li1 1_555 1_555
C31 N4 1_555 1_555
C32 C31 1_555 1_555
C33 C32 1_555 1_555
H37 C33 1_555 1_555
C34 C33 1_555 1_555
H38 C34 1_555 1_555
C35 C34 1_555 1_555
H39 C35 1_555 1_555
C36 C31 1_555 1_555
C37 C36 1_555 1_555
H40 C37 1_555 1_555
C38 C37 1_555 1_555
H41 C38 1_555 1_555
H42 C38 1_555 1_555
H43 C38 1_555 1_555
C39 C37 1_555 1_555
H44 C39 1_555 1_555
H45 C39 1_555 1_555
H46 C39 1_555 1_555
C40 C32 1_555 1_555
H47 C40 1_555 1_555
C41 C40 1_555 1_555
H48 C41 1_555 1_555
H49 C41 1_555 1_555
H50 C41 1_555 1_555
C42 C40 1_555 1_555
H51 C42 1_555 1_555
H52 C42 1_555 1_555
H53 C42 1_555 1_555
C43 N3 1_555 1_555
C44 C43 1_555 1_555
C45 C44 1_555 1_555
H54 C45 1_555 1_555
C46 C45 1_555 1_555
H55 C46 1_555 1_555
C47 C46 1_555 1_555
H56 C47 1_555 1_555
C48 C43 1_555 1_555
C49 C48 1_555 1_555
H57 C49 1_555 1_555
C50 C49 1_555 1_555
H58 C50 1_555 1_555
H59 C50 1_555 1_555
H60 C50 1_555 1_555
C51 C49 1_555 1_555
H61 C51 1_555 1_555
H62 C51 1_555 1_555
H63 C51 1_555 1_555
C52 C44 1_555 1_555
H64 C52 1_555 1_555
C53 C52 1_555 1_555
H65 C53 1_555 1_555
H66 C53 1_555 1_555
H67 C53 1_555 1_555
C54 C52 1_555 1_555
H68 C54 1_555 1_555
H69 C54 1_555 1_555
H70 C54 1_555 1_555
O1 Li1 1_555 1_555
C55 O1 1_555 1_555
H71 C55 1_555 1_555
H72 C55 1_555 1_555
C56 C55 1_555 1_555
H73 C56 1_555 1_555
H74 C56 1_555 1_555
C57 C56 1_555 1_555
H75 C57 1_555 1_555
H76 C57 1_555 1_555
C58 O1 1_555 1_555
H77 C58 1_555 1_555
H78 C58 1_555 1_555
O2 Li2 1_555 1_555
C59 O2 1_555 1_555
H79 C59 1_555 1_555
H80 C59 1_555 1_555
C60 C59 1_555 1_555
H81 C60 1_555 1_555
H82 C60 1_555 1_555
C61 C60 1_555 1_555
H83 C61 1_555 1_555
H84 C61 1_555 1_555
C62 O2 1_555 1_555
H85 C62 1_555 1_555
H86 C62 1_555 1_555
C63 C64 1_555 1_555
C64 C65B 1_555 1_555
C65 C63 1_555 1_555
C66 C65 1_555 1_555
Li1A C1A 1_555 1_555
Li1A_2 C30A 1_555 1_555
Li2A C2 1_555 1_555
N1A C1A 1_555 1_555
N2A C1A 1_555 1_555
N3A C28A 1_555 1_555
N4A C28A 1_555 1_555
C2A Li2 1_555 1_555
C3A N2A 1_555 1_555
H1A C3A 1_555 1_555
C4A N2A 1_555 1_555
C5A C4A 1_555 1_555
C6A C5A 1_555 1_555
H2A C6A 1_555 1_555
C7A C6A 1_555 1_555
H3A C7A 1_555 1_555
C8A C7A 1_555 1_555
H4A C8A 1_555 1_555
C9A C4A 1_555 1_555
C10A C9A 1_555 1_555
H5A C10A 1_555 1_555
C11A C10A 1_555 1_555
H6A C11A 1_555 1_555
H7A C11A 1_555 1_555
H8A C11A 1_555 1_555
C12A C10A 1_555 1_555
H9A C12A 1_555 1_555
H10A C12A 1_555 1_555
H11A C12A 1_555 1_555
C13A C5A 1_555 1_555
H12A C13A 1_555 1_555
C14A C13A 1_555 1_555
H13A C14A 1_555 1_555
H14A C14A 1_555 1_555
H15A C14A 1_555 1_555
C15A C13A 1_555 1_555
H16A C15A 1_555 1_555
H17A C15A 1_555 1_555
H18A C15A 1_555 1_555
C16A N1A 1_555 1_555
C17A C16A 1_555 1_555
C18A C17A 1_555 1_555
H19A C18A 1_555 1_555
C19A C18A 1_555 1_555
H20A C19A 1_555 1_555
C20A C19A 1_555 1_555
H21A C20A 1_555 1_555
C21A C16A 1_555 1_555
C22A C21A 1_555 1_555
H22A C22A 1_555 1_555
C23A C22A 1_555 1_555
H23A C23A 1_555 1_555
H24A C23A 1_555 1_555
H25A C23A 1_555 1_555
C24A C22A 1_555 1_555
H26A C24A 1_555 1_555
H27A C24A 1_555 1_555
H28A C24A 1_555 1_555
C25A C17A 1_555 1_555
H29A C25A 1_555 1_555
C26A C25A 1_555 1_555
H30A C26A 1_555 1_555
H31A C26A 1_555 1_555
H32A C26A 1_555 1_555
C27A C25A 1_555 1_555
H33A C27A 1_555 1_555
H34A C27A 1_555 1_555
H35A C27A 1_555 1_555
C28A Li2A 1_555 1_555
C29A N3A 1_555 1_555
H36A C29A 1_555 1_555
C30A N4A 1_555 1_555
C30A_2 Li1A 1_555 1_555
C31A N4A 1_555 1_555
C32A C31A 1_555 1_555
C33A C32A 1_555 1_555
H37A C33A 1_555 1_555
C34A C33A 1_555 1_555
H38A C34A 1_555 1_555
C35A C34A 1_555 1_555
H39A C35A 1_555 1_555
C36A C31A 1_555 1_555
C37A C36A 1_555 1_555
H40A C37A 1_555 1_555
C38A C37A 1_555 1_555
H41A C38A 1_555 1_555
H42A C38A 1_555 1_555
H43A C38A 1_555 1_555
C39A C37A 1_555 1_555
H44A C39A 1_555 1_555
H45A C39A 1_555 1_555
H46A C39A 1_555 1_555
C40A C32A 1_555 1_555
H47A C40A 1_555 1_555
C41A C40A 1_555 1_555
H48A C41A 1_555 1_555
H49A C41A 1_555 1_555
H50A C41A 1_555 1_555
C42A C40A 1_555 1_555
H51A C42A 1_555 1_555
H52A C42A 1_555 1_555
H53A C42A 1_555 1_555
C43A N3A 1_555 1_555
C44A C43A 1_555 1_555
C45A C44A 1_555 1_555
H54A C45A 1_555 1_555
C46A C45A 1_555 1_555
H55A C46A 1_555 1_555
C47A C46A 1_555 1_555
H56A C47A 1_555 1_555
C48A C43A 1_555 1_555
C49A C48A 1_555 1_555
H57A C49A 1_555 1_555
C50A C49A 1_555 1_555
H58A C50A 1_555 1_555
H59A C50A 1_555 1_555
H60A C50A 1_555 1_555
C51A C49A 1_555 1_555
H61A C51A 1_555 1_555
H62A C51A 1_555 1_555
H63A C51A 1_555 1_555
C52A C44A 1_555 1_555
H64A C52A 1_555 1_555
C53A C52A 1_555 1_555
H65A C53A 1_555 1_555
H66A C53A 1_555 1_555
H67A C53A 1_555 1_555
C54A C52A 1_555 1_555
H68A C54A 1_555 1_555
H69A C54A 1_555 1_555
H70A C54A 1_555 1_555
O1A Li1A 1_555 1_555
C55A O1A 1_555 1_555
H71A C55A 1_555 1_555
H72A C55A 1_555 1_555
C56A C55A 1_555 1_555
H73A C56A 1_555 1_555
H74A C56A 1_555 1_555
C57A C56A 1_555 1_555
H75A C57A 1_555 1_555
H76A C57A 1_555 1_555
C58A O1A 1_555 1_555
H77A C58A 1_555 1_555
H78A C58A 1_555 1_555
O2A Li2A 1_555 1_555
C59A O2A 1_555 1_555
H79A C59A 1_555 1_555
H80A C59A 1_555 1_555
C60A C59A 1_555 1_555
H81A C60A 1_555 1_555
H82A C60A 1_555 1_555
C61A C60A 1_555 1_555
H83A C61A 1_555 1_555
H84A C61A 1_555 1_555
C62A O2A 1_555 1_555
H85A C62A 1_555 1_555
H86A C62A 1_555 1_555
C63B C64B 1_555 1_555
C64B C65 1_555 1_555
C65B C63B 1_555 1_555
C66B C65B 1_555 1_555
N4 C30 1_555 1_555
C2 C3 1_555 1_555
C8 C9 1_555 1_555
C20 C21 1_555 1_555
C29 C30 1_555 1_555
C35 C36 1_555 1_555
C47 C48 1_555 1_555
C57 C58 1_555 1_555
C61 C62 1_555 1_555
N1A C2A 1_555 1_555
C2A C3A 1_555 1_555
C8A C9A 1_555 1_555
C20A C21A 1_555 1_555
C29A C30A 1_555 1_555
C35A C36A 1_555 1_555
C47A C48A 1_555 1_555
C57A C58A 1_555 1_555
C61A C62A 1_555 1_555

#END
