
#######################################################################
#
#                 Cambridge Crystallographic Data Centre
#                                CCDC 
#
#######################################################################
#
# If this CIF has been generated from an entry in the Cambridge 
# Structural Database, then it will include bibliographic, chemical, 
# crystal, experimental, refinement or atomic coordinate data resulting 
# from the CCDC's data processing and validation procedures.
#
#######################################################################

data_ANOMEW
_symmetry_cell_setting           monoclinic
_symmetry_space_group_name_H-M   'P 21'
_symmetry_Int_Tables_number      4
_space_group_name_Hall           'P 2yb'
loop_
_symmetry_equiv_pos_site_id
_symmetry_equiv_pos_as_xyz
1 x,y,z
2 -x,1/2+y,-z
_cell_length_a                   14.0543(3)
_cell_length_b                   6.1624(2)
_cell_length_c                   15.0156(5)
_cell_angle_alpha                90
_cell_angle_beta                 111.7970(10)
_cell_angle_gamma                90
_cell_volume                     1207.5
loop_
_atom_site_label
_atom_site_type_symbol
_atom_site_fract_x
_atom_site_fract_y
_atom_site_fract_z
Mg1 Mg 0.49261(7) 0.55360(17) 0.48795(6)
O1 O 0.34776(14) 0.4743(3) 0.46507(15)
O2 O 0.35751(14) 0.1163(3) 0.48658(13)
O3 O 0.04219(16) 0.3406(4) 0.89707(15)
O4 O 0.44830(13) 0.8171(3) 0.39479(13)
O5 O 0.38064(17) 1.0680(4) 0.28379(14)
O6 O 0.40389(16) 0.9099(3) -0.25485(15)
O7 O 0.49287(13) 0.7904(3) 0.59192(13)
C1 C 0.30816(19) 0.2913(5) 0.46469(18)
C2 C 0.19162(19) 0.2846(5) 0.4368(2)
H1 H 0.1624 0.4079 0.3916
C3 C 0.1465(2) 0.0769(6) 0.3827(2)
H2 H 0.1754 -0.0486 0.4239
H3 H 0.1632 0.0675 0.3250
H4 H 0.0719 0.0782 0.3643
C4 C 0.16640(19) 0.3273(5) 0.5254(2)
C5 C 0.1974(2) 0.5279(5) 0.5742(2)
H5 H 0.2299 0.6332 0.5489
C6 C 0.1815(2) 0.5730(6) 0.6568(2)
H6 H 0.2038 0.7082 0.6880
C7 C 0.1326(2) 0.4223(5) 0.6965(2)
C8 C 0.1162(2) 0.4651(5) 0.7828(2)
H7 H 0.1401 0.5966 0.8169
C9 C 0.0655(2) 0.3144(6) 0.8167(2)
C10 C 0.0318(2) 0.1180(5) 0.7677(2)
H8 H -0.0024 0.0148 0.7923
C11 C 0.0476(2) 0.0739(6) 0.6857(2)
H9 H 0.0243 -0.0601 0.6537
C12 C 0.0981(2) 0.2239(5) 0.6468(2)
C13 C 0.1164(2) 0.1812(5) 0.5616(2)
H10 H 0.0935 0.0480 0.5289
C14 C 0.0701(3) 0.5413(7) 0.9475(3)
H11 H 0.1447 0.5593 0.9706
H12 H 0.0480 0.5411 1.0022
H13 H 0.0369 0.6613 0.9043
C15 C 0.3913(2) 0.8735(5) 0.3095(2)
C16 C 0.3346(2) 0.6997(5) 0.2364(2)
H14 H 0.3743 0.5613 0.2546
C17 C 0.2290(2) 0.6630(6) 0.2417(2)
H15 H 0.2363 0.6482 0.3089
H16 H 0.1986 0.5303 0.2067
H17 H 0.1845 0.7869 0.2129
C18 C 0.3260(2) 0.7603(5) 0.13555(19)
C19 C 0.2734(2) 0.9507(5) 0.0900(2)
H18 H 0.2389 1.0365 0.1212
C20 C 0.2716(2) 1.0126(5) 0.0019(2)
H19 H 0.2354 1.1400 -0.0273
C21 C 0.3227(2) 0.8901(5) -0.0466(2)
C22 C 0.3309(2) 0.9654(5) -0.1330(2)
H20 H 0.2986 1.0969 -0.1616
C23 C 0.3858(2) 0.8462(5) -0.1746(2)
C24 C 0.4300(2) 0.6460(5) -0.1352(2)
H21 H 0.4667 0.5639 -0.1655
C25 C 0.4204(2) 0.5696(5) -0.0537(2)
H22 H 0.4483 0.4319 -0.0292
C26 C 0.3694(2) 0.6923(5) -0.0049(2)
C27 C 0.3695(2) 0.6318(5) 0.0867(2)
H23 H 0.4006 0.4988 0.1146
C28 C 0.3826(2) 1.1329(5) -0.2812(2)
H24 H 0.3086 1.1582 -0.3034
H25 H 0.4069 1.1683 -0.3328
H26 H 0.4177 1.2251 -0.2254
H27 H 0.4331 0.7806 0.6077
H28 H 0.5461 0.7151 0.6512
Mg1A Mg 0.50739(7) 0.05360(17) 0.51205(6)
Mg1A_2 Mg 0.50739(7) 1.05360(17) 0.51205(6)
O2A O 0.64249(14) 0.6163(3) 0.51342(13)
O4A O 0.55170(13) 0.3171(3) 0.60521(13)
O7A O 0.50713(13) 0.2904(3) 0.40808(13)
H27A H 0.5669 0.2806 0.3923
H28A H 0.4539 0.2151 0.3488
loop_
_geom_bond_atom_site_label_1
_geom_bond_atom_site_label_2
_geom_bond_site_symmetry_1
_geom_bond_site_symmetry_2
Mg1 O1 1_555 1_555
O1 C1 1_555 1_555
O2 C1 1_555 1_555
O3 C9 1_555 1_555
O4 Mg1 1_555 1_555
O5 C15 1_555 1_555
O6 C23 1_555 1_555
O7 Mg1 1_555 1_555
C1 C2 1_555 1_555
C2 H1 1_555 1_555
C3 C2 1_555 1_555
H2 C3 1_555 1_555
H3 C3 1_555 1_555
H4 C3 1_555 1_555
C4 C2 1_555 1_555
C5 C4 1_555 1_555
H5 C5 1_555 1_555
C6 C5 1_555 1_555
H6 C6 1_555 1_555
C7 C6 1_555 1_555
C8 C7 1_555 1_555
H7 C8 1_555 1_555
C9 C8 1_555 1_555
C10 C9 1_555 1_555
H8 C10 1_555 1_555
C11 C10 1_555 1_555
H9 C11 1_555 1_555
C12 C7 1_555 1_555
C13 C4 1_555 1_555
H10 C13 1_555 1_555
C14 O3 1_555 1_555
H11 C14 1_555 1_555
H12 C14 1_555 1_555
H13 C14 1_555 1_555
C15 O4 1_555 1_555
C16 C15 1_555 1_555
H14 C16 1_555 1_555
C17 C16 1_555 1_555
H15 C17 1_555 1_555
H16 C17 1_555 1_555
H17 C17 1_555 1_555
C18 C16 1_555 1_555
C19 C18 1_555 1_555
H18 C19 1_555 1_555
C20 C19 1_555 1_555
H19 C20 1_555 1_555
C21 C20 1_555 1_555
C22 C21 1_555 1_555
H20 C22 1_555 1_555
C23 C22 1_555 1_555
C24 C23 1_555 1_555
H21 C24 1_555 1_555
C25 C24 1_555 1_555
H22 C25 1_555 1_555
C26 C21 1_555 1_555
C27 C18 1_555 1_555
H23 C27 1_555 1_555
C28 O6 1_555 1_555
H24 C28 1_555 1_555
H25 C28 1_555 1_555
H26 C28 1_555 1_555
H27 O7 1_555 1_555
H28 O7 1_555 1_555
Mg1A O2 1_555 1_555
Mg1A_2 O4 1_555 1_555
O2A Mg1 1_555 1_555
O4A Mg1 1_555 1_555
O7A Mg1 1_555 1_555
H27A O7A 1_555 1_555
H28A O7A 1_555 1_555
O7 Mg1A_2 1_555 1_555
C11 C12 1_555 1_555
C12 C13 1_555 1_555
C25 C26 1_555 1_555
C26 C27 1_555 1_555
Mg1A O4A 1_555 1_555
Mg1A O7A 1_555 1_555

#END
