
#######################################################################
#
#                 Cambridge Crystallographic Data Centre
#                                CCDC 
#
#######################################################################
#
# If this CIF has been generated from an entry in the Cambridge 
# Structural Database, then it will include bibliographic, chemical, 
# crystal, experimental, refinement or atomic coordinate data resulting 
# from the CCDC's data processing and validation procedures.
#
#######################################################################

data_AOXNDH01
_symmetry_cell_setting           monoclinic
_symmetry_space_group_name_H-M   'P 21/c'
_symmetry_Int_Tables_number      14
_space_group_name_Hall           '-P 2ybc'
loop_
_symmetry_equiv_pos_site_id
_symmetry_equiv_pos_as_xyz
1 x,y,z
2 -x,1/2+y,1/2-z
3 -x,-y,-z
4 x,1/2-y,1/2+z
_cell_length_a                   11.1919(9)
_cell_length_b                   9.612(4)
_cell_length_c                   10.257(6)
_cell_angle_alpha                90
_cell_angle_beta                 114.42(5)
_cell_angle_gamma                90
_cell_volume                     1004.7
loop_
_atom_site_label
_atom_site_type_symbol
_atom_site_fract_x
_atom_site_fract_y
_atom_site_fract_z
C1 C 0.00170 0.44320 0.44430
C2 C -0.44450 0.52800 0.57330
C3 C -0.46430 0.43200 -0.00220
Nd1 Nd -0.31020 0.54550 0.33100
O1 O -0.10850 0.42780 0.34020
O2 O 0.10700 0.38830 0.46160
O3 O -0.33980 0.56200 0.56720
O4 O -0.52770 0.47800 0.32320
O5 O -0.37800 0.39960 0.11550
O6 O -0.48960 0.64520 0.11090
O7 O -0.20040 0.68700 0.20420
O8 O -0.29210 0.30420 0.42920
O9 O -0.32510 0.79500 0.39140
C1B C -0.00170 0.55680 0.55570
O1B O 0.10850 0.57220 0.65980
Nd1B Nd 0.31020 0.45450 0.66900
O2B O -0.10700 0.61170 0.53840
C2B C -0.55550 0.47200 0.42670
O3B O -0.66020 0.43800 0.43280
Nd1B_2 Nd -0.68980 0.45450 0.66900
O4B O -0.47230 0.52200 0.67680
O3B_2 O 0.33980 0.43800 0.43280
O4B_2 O 0.52770 0.52200 0.67680
O5B O 0.37800 0.60040 0.88450
O6B O 0.48960 0.35480 0.88910
O7B O 0.20040 0.31300 0.79580
O8B O 0.29210 0.69580 0.57080
O9B O 0.32510 0.20500 0.60860
C3B C -0.53570 0.56800 0.00220
O5B_2 O -0.62200 0.60040 -0.11550
Nd1B_3 Nd -0.68980 0.45450 -0.33100
O6B_2 O -0.51040 0.35480 -0.11090
loop_
_geom_bond_atom_site_label_1
_geom_bond_atom_site_label_2
_geom_bond_site_symmetry_1
_geom_bond_site_symmetry_2
C1 O1 1_555 1_555
C2 O3 1_555 1_555
C3 O5 1_555 1_555
Nd1 O1 1_555 1_555
O2 C1 1_555 1_555
O3 Nd1 1_555 1_555
O4 Nd1 1_555 1_555
O5 Nd1 1_555 1_555
O6 Nd1 1_555 1_555
O7 Nd1 1_555 1_555
O8 Nd1 1_555 1_555
O9 Nd1 1_555 1_555
C1B C1 1_555 1_555
O1B C1B 1_555 1_555
Nd1B O2 1_555 1_555
O2B Nd1 1_555 1_555
C2B C2 1_555 1_555
O3B C2B 1_555 1_555
Nd1B_2 O3B 1_555 1_555
O4B C2 1_555 1_555
O3B_2 Nd1B 1_555 1_555
O4B_2 Nd1B 1_555 1_555
O5B Nd1B 1_555 1_555
O6B Nd1B 1_555 1_555
O7B Nd1B 1_555 1_555
O8B Nd1B 1_555 1_555
O9B Nd1B 1_555 1_555
C3B C3 1_555 1_555
O5B_2 C3B 1_555 1_555
Nd1B_3 O5B_2 1_555 1_555
O6B_2 C3 1_555 1_555
O4 C2B 1_555 1_555
O6 C3B 1_555 1_555
C1B O2B 1_555 1_555
O1B Nd1B 1_555 1_555
Nd1B_2 O4B 1_555 1_555
Nd1B_3 O6B_2 1_555 1_555

#END
