
#######################################################################
#
#                 Cambridge Crystallographic Data Centre
#                                CCDC 
#
#######################################################################
#
# If this CIF has been generated from an entry in the Cambridge 
# Structural Database, then it will include bibliographic, chemical, 
# crystal, experimental, refinement or atomic coordinate data resulting 
# from the CCDC's data processing and validation procedures.
#
#######################################################################

data_APAXEV
_symmetry_cell_setting           monoclinic
_symmetry_space_group_name_H-M   'P 21/c'
_symmetry_Int_Tables_number      14
_space_group_name_Hall           '-P 2ybc'
loop_
_symmetry_equiv_pos_site_id
_symmetry_equiv_pos_as_xyz
1 x,y,z
2 -x,1/2+y,1/2-z
3 -x,-y,-z
4 x,1/2-y,1/2+z
_cell_length_a                   15.5180(7)
_cell_length_b                   8.3032(4)
_cell_length_c                   8.1672(4)
_cell_angle_alpha                90
_cell_angle_beta                 93.973(3)
_cell_angle_gamma                90
_cell_volume                     1049.81
loop_
_atom_site_label
_atom_site_type_symbol
_atom_site_fract_x
_atom_site_fract_y
_atom_site_fract_z
Ba1 Ba 0.037344(19) 0.36864(3) 0.24837(3)
C1 C -0.1166(4) 0.2510(6) -0.0132(6)
C2 C -0.2122(4) 0.2694(7) -0.0513(7)
C3 C -0.2460(4) 0.4216(8) -0.0337(8)
H1 H -0.2080 0.5074 -0.0156
C4 C -0.3345(3) 0.4527(6) -0.0418(7)
H2 H -0.3550 0.5560 -0.0241
C5 C -0.3898(3) 0.3294(6) -0.0762(7)
H3 H -0.4488 0.3504 -0.0842
C6 C -0.3616(4) 0.1704(8) -0.1002(8)
C7 C -0.4215(4) 0.0450(9) -0.1348(9)
H4 H -0.4802 0.0683 -0.1437
C8 C -0.3950(5) -0.1083(8) -0.1551(12)
H5 H -0.4352 -0.1905 -0.1736
C9 C -0.3070(5) -0.1417(7) -0.1482(11)
H6 H -0.2894 -0.2470 -0.1656
C10 C -0.2453(4) -0.0259(7) -0.1169(7)
C11 C -0.2701(4) 0.1372(6) -0.0891(7)
C12 C -0.1545(4) -0.0856(7) -0.1265(7)
O1 O -0.0669(3) 0.3589(4) -0.0644(6)
O2 O -0.0889(3) 0.1366(4) 0.0749(6)
O3 O -0.1087(3) -0.0328(5) -0.2332(5)
O4 O -0.1321(3) -0.2033(5) -0.0316(5)
Ba1B Ba -0.037344(19) 0.63136(3) -0.24837(3)
Ba1C Ba 0.037344(19) 0.13136(3) -0.25163(3)
Ba1A Ba -0.037344(19) -0.13136(3) 0.25163(3)
Ba1B_2 Ba -0.037344(19) -0.36864(3) -0.24837(3)
O1B O 0.0669(3) 0.6411(4) 0.0644(6)
O1C O -0.0669(3) 0.1411(4) 0.4356(6)
O2A O 0.0889(3) 0.6366(4) 0.4251(6)
O3B O 0.1087(3) 0.0328(5) 0.2332(5)
O3C O -0.1087(3) 0.5328(5) 0.2668(5)
O4A O 0.1321(3) 0.2967(5) 0.5316(5)
O4B O 0.1321(3) 0.2033(5) 0.0316(5)
loop_
_geom_bond_atom_site_label_1
_geom_bond_atom_site_label_2
_geom_bond_site_symmetry_1
_geom_bond_site_symmetry_2
Ba1 O1 1_555 1_555
C1 C2 1_555 1_555
C2 C3 1_555 1_555
C3 H1 1_555 1_555
C4 C3 1_555 1_555
H2 C4 1_555 1_555
C5 C4 1_555 1_555
H3 C5 1_555 1_555
C6 C5 1_555 1_555
C7 C6 1_555 1_555
H4 C7 1_555 1_555
C8 C7 1_555 1_555
H5 C8 1_555 1_555
C9 C8 1_555 1_555
H6 C9 1_555 1_555
C10 C9 1_555 1_555
C11 C2 1_555 1_555
C12 C10 1_555 1_555
O1 C1 1_555 1_555
O2 Ba1 1_555 1_555
O3 C12 1_555 1_555
O4 C12 1_555 1_555
Ba1B O1 1_555 1_555
Ba1C O1 1_555 1_555
Ba1A O2 1_555 1_555
Ba1B_2 O3 1_555 1_555
O1B Ba1 1_555 1_555
O1C Ba1 1_555 1_555
O2A Ba1 1_555 1_555
O3B Ba1 1_555 1_555
O3C Ba1 1_555 1_555
O4A Ba1 1_555 1_555
O4B Ba1 1_555 1_555
C1 O2 1_555 1_555
C6 C11 1_555 1_555
C10 C11 1_555 1_555
O3 Ba1C 1_555 1_555
O4 Ba1A 1_555 1_555
O4 Ba1B_2 1_555 1_555
Ba1B O1B 1_555 1_555
Ba1C O4B 1_555 1_555
Ba1A O1C 1_555 1_555
Ba1A O3B 1_555 1_555

#END
