
#######################################################################
#
#                 Cambridge Crystallographic Data Centre
#                                CCDC 
#
#######################################################################
#
# If this CIF has been generated from an entry in the Cambridge 
# Structural Database, then it will include bibliographic, chemical, 
# crystal, experimental, refinement or atomic coordinate data resulting 
# from the CCDC's data processing and validation procedures.
#
#######################################################################

data_APBMHG
_symmetry_cell_setting           orthorhombic
_symmetry_space_group_name_H-M   'P c a 21'
_symmetry_Int_Tables_number      29
_space_group_name_Hall           'P 2c -2ac'
loop_
_symmetry_equiv_pos_site_id
_symmetry_equiv_pos_as_xyz
1 x,y,z
2 -x,-y,1/2+z
3 1/2-x,y,1/2+z
4 1/2+x,-y,z
_cell_length_a                   8.755(2)
_cell_length_b                   14.853(4)
_cell_length_c                   9.438(3)
_cell_angle_alpha                90
_cell_angle_beta                 90
_cell_angle_gamma                90
_cell_volume                     1227.3
loop_
_atom_site_label
_atom_site_type_symbol
_atom_site_fract_x
_atom_site_fract_y
_atom_site_fract_z
Hg1 Hg 0.05410 0.12123 0.00000
O1 O 0.25120 0.03120 0.17100
O2 O -0.17850 0.08050 -0.18970
N1 N 0.05080 -0.02080 -0.04260
C1 C 0.05300 0.26100 0.03090
C2 C 0.17450 -0.03580 0.19540
C3 C 0.05620 -0.07830 0.09360
C4 C 0.10360 -0.17500 0.05130
C5 C -0.01760 -0.22070 -0.03950
C6 C 0.03170 -0.31240 -0.07200
C7 C -0.01690 -0.38620 -0.00220
C8 C 0.03710 -0.47870 -0.03040
C9 C 0.13350 -0.49040 -0.12270
C10 C 0.19310 -0.41730 -0.21110
C11 C 0.14840 -0.32620 -0.18120
C2A C -0.17450 0.03580 -0.30460
O2A O 0.17850 -0.08050 0.31030
O1A O -0.25120 -0.03120 -0.32900
C3A C -0.05620 0.07830 -0.40640
Hg1A Hg -0.05410 -0.12123 0.50000
Hg1A_2 Hg -0.05410 -0.12123 -0.50000
N1A N -0.05080 0.02080 -0.54260
C4A C -0.10360 0.17500 -0.44870
O1A_2 O -0.25120 -0.03120 0.67100
N1A_2 N -0.05080 0.02080 0.45740
C1A C -0.05300 -0.26100 0.53090
C5A C 0.01760 0.22070 -0.53950
C6A C -0.03170 0.31240 -0.57200
C7A C 0.01690 0.38620 -0.50220
C11A C -0.14840 0.32620 -0.68120
C8A C -0.03710 0.47870 -0.53040
C10A C -0.19310 0.41730 -0.71110
C9A C -0.13350 0.49040 -0.62270
loop_
_geom_bond_atom_site_label_1
_geom_bond_atom_site_label_2
_geom_bond_site_symmetry_1
_geom_bond_site_symmetry_2
Hg1 O1 1_555 1_555
O1 C2 1_555 1_555
O2 Hg1 1_555 1_555
N1 Hg1 1_555 1_555
C1 Hg1 1_555 1_555
C2 C3 1_555 1_555
C3 N1 1_555 1_555
C4 C3 1_555 1_555
C5 C4 1_555 1_555
C6 C5 1_555 1_555
C7 C6 1_555 1_555
C8 C7 1_555 1_555
C9 C8 1_555 1_555
C10 C9 1_555 1_555
C11 C6 1_555 1_555
C2A O2 1_555 1_555
O2A C2 1_555 1_555
O1A C2A 1_555 1_555
C3A C2A 1_555 1_555
Hg1A O2A 1_555 1_555
Hg1A_2 O1A 1_555 1_555
N1A C3A 1_555 1_555
C4A C3A 1_555 1_555
O1A_2 Hg1A 1_555 1_555
N1A_2 Hg1A 1_555 1_555
C1A Hg1A 1_555 1_555
C5A C4A 1_555 1_555
C6A C5A 1_555 1_555
C7A C6A 1_555 1_555
C11A C6A 1_555 1_555
C8A C7A 1_555 1_555
C10A C11A 1_555 1_555
C9A C8A 1_555 1_555
C10 C11 1_555 1_555
Hg1A_2 N1A 1_555 1_555
C10A C9A 1_555 1_555

#END
