
#######################################################################
#
#                 Cambridge Crystallographic Data Centre
#                                CCDC 
#
#######################################################################
#
# If this CIF has been generated from an entry in the Cambridge 
# Structural Database, then it will include bibliographic, chemical, 
# crystal, experimental, refinement or atomic coordinate data resulting 
# from the CCDC's data processing and validation procedures.
#
#######################################################################

data_APEBAZ
_symmetry_cell_setting           orthorhombic
_symmetry_space_group_name_H-M   'P b c a'
_symmetry_Int_Tables_number      61
_space_group_name_Hall           '-P 2ac 2ab'
loop_
_symmetry_equiv_pos_site_id
_symmetry_equiv_pos_as_xyz
1 x,y,z
2 1/2-x,-y,1/2+z
3 -x,1/2+y,1/2-z
4 1/2+x,1/2-y,-z
5 -x,-y,-z
6 1/2+x,y,1/2-z
7 x,1/2-y,1/2+z
8 1/2-x,1/2+y,z
_cell_length_a                   16.054(5)
_cell_length_b                   13.585(5)
_cell_length_c                   21.825(7)
_cell_angle_alpha                90
_cell_angle_beta                 90
_cell_angle_gamma                90
_cell_volume                     4759.89
loop_
_atom_site_label
_atom_site_type_symbol
_atom_site_fract_x
_atom_site_fract_y
_atom_site_fract_z
Zn1 Zn 0.59381(3) 0.29780(4) 0.31903(2)
Zn2 Zn 0.62594(3) 0.10907(4) 0.39747(2)
Zn3 Zn 0.11528(3) 0.12980(5) 0.54032(3)
O1 O 0.4971(2) 0.2128(3) 0.30477(14)
O2 O 0.5006(2) 0.1327(2) 0.39517(14)
O3 O 0.1531(3) 0.1192(3) 0.19295(17)
O4 O 0.2826(3) 0.1201(3) 0.16045(17)
O5 O 0.2076(3) 0.1383(3) 0.48160(17)
O6 O 0.0996(3) 0.1238(3) 0.4225(3)
O7 O 0.5147(2) 0.4068(2) 0.35043(14)
O8 O 0.4938(2) 0.3736(2) 0.44954(14)
O9 O 0.1432(2) 0.3449(3) 0.25404(14)
O10 O 0.2665(2) 0.3633(3) 0.20872(15)
O11 O 0.2079(2) 0.4028(2) 0.53316(13)
O12 O 0.1034(2) 0.3586(3) 0.47387(16)
O13 O 0.64853(19) 0.2700(2) 0.39720(14)
O14 O 0.1544(3) -0.0008(3) 0.57278(18)
N1 N 0.6116(3) -0.0489(3) 0.38878(18)
N2 N 0.5200(3) -0.2310(3) 0.4034(2)
H1 H 0.4730 -0.2064 0.4200
H2 H 0.5139 -0.2966 0.3999
C1 C 0.3747(3) 0.1380(3) 0.3377(2)
C2 C 0.3442(3) 0.1316(3) 0.2784(2)
H3 H 0.3809 0.1340 0.2455
C3 C 0.2600(3) 0.1216(3) 0.2678(2)
C4 C 0.2046(3) 0.1207(3) 0.3167(2)
H4 H 0.1477 0.1159 0.3094
C5 C 0.2338(3) 0.1269(3) 0.3763(2)
C6 C 0.3200(3) 0.1343(3) 0.38639(19)
H5 H 0.3403 0.1368 0.4263
C7 C 0.4643(3) 0.1615(3) 0.3470(2)
C8 C 0.2306(4) 0.1186(3) 0.2025(2)
C9 C 0.1746(4) 0.1298(3) 0.4291(3)
C10 C 0.3752(3) 0.3887(3) 0.3855(2)
C11 C 0.3428(3) 0.3827(3) 0.32711(18)
H6 H 0.3783 0.3840 0.2934
C12 C 0.2578(3) 0.3747(3) 0.31848(18)
C13 C 0.2051(3) 0.3743(3) 0.36868(19)
H7 H 0.1479 0.3690 0.3627
C14 C 0.2362(3) 0.3816(3) 0.42776(19)
C15 C 0.3218(3) 0.3874(3) 0.4359(2)
H8 H 0.3437 0.3904 0.4753
C16 C 0.4677(3) 0.3913(3) 0.3956(2)
C17 C 0.2216(3) 0.3615(3) 0.25482(19)
C18 C 0.1776(3) 0.3799(3) 0.4807(2)
C19 C 0.6033(4) -0.0989(4) 0.4487(2)
H9 H 0.5560 -0.0710 0.4703
H10 H 0.6527 -0.0856 0.4729
C20 C 0.5916(4) -0.2091(4) 0.4441(3)
H11 H 0.6417 -0.2392 0.4278
H12 H 0.5815 -0.2363 0.4845
C21 C 0.5334(4) -0.1866(4) 0.3410(2)
H13 H 0.4864 -0.2017 0.3147
H14 H 0.5832 -0.2140 0.3225
C22 C 0.5425(3) -0.0765(4) 0.3474(2)
H15 H 0.5523 -0.0480 0.3073
H16 H 0.4909 -0.0494 0.3632
H17 H 0.666(4) -0.069(5) 0.371(3)
H18 H 0.6993(14) 0.275(5) 0.391(3)
H19 H 0.191(3) -0.034(4) 0.556(2)
H20 H 0.152(4) -0.018(4) 0.6087(11)
Zn1E Zn 0.09381(3) 0.29780(4) 0.18097(2)
Zn2E Zn 0.12594(3) 0.10907(4) 0.10253(2)
Zn2C Zn 0.12594(3) 0.39093(4) 0.60253(2)
Zn3C Zn 0.61528(3) 0.37020(5) 0.45968(3)
O3E O 0.6531(3) 0.1192(3) 0.30705(17)
O8C O -0.0062(2) 0.1264(2) 0.55046(14)
O9E O 0.6432(2) 0.3449(3) 0.24596(14)
O11C O 0.7079(2) 0.0972(2) 0.46684(13)
O13C O 0.14853(19) 0.2300(2) 0.60280(14)
H18C H 0.1993(14) 0.225(5) 0.609(3)
loop_
_geom_bond_atom_site_label_1
_geom_bond_atom_site_label_2
_geom_bond_site_symmetry_1
_geom_bond_site_symmetry_2
Zn1 O1 1_555 1_555
Zn2 O2 1_555 1_555
Zn3 O5 1_555 1_555
O1 C7 1_555 1_555
O2 C7 1_555 1_555
O3 C8 1_555 1_555
O4 C8 1_555 1_555
O5 C9 1_555 1_555
O6 C9 1_555 1_555
O7 Zn1 1_555 1_555
O8 C16 1_555 1_555
O9 C17 1_555 1_555
O10 C17 1_555 1_555
O11 C18 1_555 1_555
O12 C18 1_555 1_555
O13 Zn1 1_555 1_555
O14 Zn3 1_555 1_555
N1 Zn2 1_555 1_555
N2 H1 1_555 1_555
H2 N2 1_555 1_555
C1 C2 1_555 1_555
C2 H3 1_555 1_555
C3 C2 1_555 1_555
C4 C3 1_555 1_555
H4 C4 1_555 1_555
C5 C4 1_555 1_555
C6 C1 1_555 1_555
H5 C6 1_555 1_555
C7 C1 1_555 1_555
C8 C3 1_555 1_555
C9 C5 1_555 1_555
C10 C11 1_555 1_555
C11 H6 1_555 1_555
C12 C11 1_555 1_555
C13 C12 1_555 1_555
H7 C13 1_555 1_555
C14 C13 1_555 1_555
C15 C10 1_555 1_555
H8 C15 1_555 1_555
C16 O7 1_555 1_555
C17 C12 1_555 1_555
C18 C14 1_555 1_555
C19 N1 1_555 1_555
H9 C19 1_555 1_555
H10 C19 1_555 1_555
C20 N2 1_555 1_555
H11 C20 1_555 1_555
H12 C20 1_555 1_555
C21 N2 1_555 1_555
H13 C21 1_555 1_555
H14 C21 1_555 1_555
C22 N1 1_555 1_555
H15 C22 1_555 1_555
H16 C22 1_555 1_555
H17 N1 1_555 1_555
H18 O13 1_555 1_555
H19 O14 1_555 1_555
H20 O14 1_555 1_555
Zn1E O9 1_555 1_555
Zn2E O3 1_555 1_555
Zn2C O11 1_555 1_555
Zn3C O8 1_555 1_555
O3E Zn2 1_555 1_555
O8C Zn3 1_555 1_555
O9E Zn1 1_555 1_555
O11C Zn2 1_555 1_555
O13C Zn3 1_555 1_555
H18C O13C 1_555 1_555
Zn2 O13 1_555 1_555
O13 Zn3C 1_555 1_555
C5 C6 1_555 1_555
C10 C16 1_555 1_555
C14 C15 1_555 1_555
C19 C20 1_555 1_555
C21 C22 1_555 1_555
Zn2C O13C 1_555 1_555

#END
