
#######################################################################
#
#                 Cambridge Crystallographic Data Centre
#                                CCDC 
#
#######################################################################
#
# If this CIF has been generated from an entry in the Cambridge 
# Structural Database, then it will include bibliographic, chemical, 
# crystal, experimental, refinement or atomic coordinate data resulting 
# from the CCDC's data processing and validation procedures.
#
#######################################################################

data_APEBED
_symmetry_cell_setting           orthorhombic
_symmetry_space_group_name_H-M   'P 21 21 21'
_symmetry_Int_Tables_number      19
_space_group_name_Hall           'P 2ac 2ab'
loop_
_symmetry_equiv_pos_site_id
_symmetry_equiv_pos_as_xyz
1 x,y,z
2 1/2-x,-y,1/2+z
3 -x,1/2+y,1/2-z
4 1/2+x,1/2-y,-z
_cell_length_a                   10.2151(19)
_cell_length_b                   13.117(2)
_cell_length_c                   14.136(3)
_cell_angle_alpha                90
_cell_angle_beta                 90
_cell_angle_gamma                90
_cell_volume                     1894.1
loop_
_atom_site_label
_atom_site_type_symbol
_atom_site_fract_x
_atom_site_fract_y
_atom_site_fract_z
Zn1 Zn 0.88591(5) 1.06923(4) 0.71436(5)
Zn2 Zn 0.90794(5) 0.76643(4) 0.72036(5)
S1 S 0.45852(12) 0.79361(9) 0.76870(13)
S2 S 1.21369(13) 0.98277(11) 0.47785(12)
O1 O 0.7296(3) 0.9892(3) 0.7031(3)
O2 O 0.2056(3) 0.6975(2) 0.7861(3)
O3 O 1.0110(3) 1.0456(3) 0.6136(3)
O4 O 1.5371(3) 0.9696(3) 0.3345(3)
O5 O 0.7419(3) 0.8294(3) 0.7576(3)
O6 O 1.0905(4) 1.1995(3) 0.6442(3)
O7 O 1.3679(4) 0.8628(3) 0.3442(3)
O8 O 0.0830(3) 0.8257(2) 0.7306(3)
O9 O 0.9084(4) 0.8397(3) 0.5839(3)
C1 C 0.5369(4) 0.9049(3) 0.7381(4)
C2 C 0.4514(4) 0.9795(4) 0.7163(5)
H1 H 0.4764 1.0451 0.6994
C3 C 0.3209(5) 0.9475(3) 0.7220(4)
H2 H 0.2500 0.9896 0.7085
C4 C 0.3086(5) 0.8491(4) 0.7491(4)
C5 C 0.6819(5) 0.9069(4) 0.7339(4)
C6 C 0.1891(5) 0.7874(4) 0.7562(4)
C7 C 1.2049(5) 1.0956(4) 0.5387(4)
C8 C 1.3137(5) 1.1529(4) 0.5229(4)
H3 H 1.3265 1.2171 0.5493
C9 C 1.4029(6) 1.1066(4) 0.4637(4)
H4 H 1.4820 1.1363 0.4464
C10 C 1.3641(5) 1.0135(4) 0.4333(4)
C11 C 1.0955(5) 1.1157(4) 0.6032(4)
C12 C 1.4280(6) 0.9430(4) 0.3657(4)
C13 C 0.8386(6) 0.8233(6) 0.4977(5)
H5 H 0.8737 0.7599 0.4713
C14 C 0.8661(7) 0.9028(6) 0.4267(5)
H6 H 0.9591 0.9097 0.4190
H7 H 0.8299 0.9665 0.4475
H8 H 0.8273 0.8839 0.3674
C15 C 0.6995(6) 0.8043(5) 0.5137(5)
H9 H 0.6894 0.7516 0.5603
H10 H 0.6592 0.7831 0.4556
H11 H 0.6583 0.8656 0.5358
H12 H 0.961(4) 0.889(3) 0.579(5)
Zn1B Zn 0.11409(5) 0.56923(4) 0.78564(5)
Zn1A Zn 1.61409(5) 0.93077(4) 0.21436(5)
Zn2B Zn 1.09206(5) 1.26643(4) 0.77964(5)
Zn2C Zn 1.40794(5) 0.73357(4) 0.27964(5)
Zn2_2 Zn -0.09206(5) 0.76643(4) 0.72036(5)
O2B O 0.7944(3) 1.1975(2) 0.7139(3)
O4A O 0.9629(3) 1.0304(3) 0.8345(3)
O6B O 0.9095(4) 0.6995(3) 0.8558(3)
O7C O 0.8679(4) 0.6372(3) 0.6558(3)
O8_2 O 1.0830(3) 0.8257(2) 0.7306(3)
loop_
_geom_bond_atom_site_label_1
_geom_bond_atom_site_label_2
_geom_bond_site_symmetry_1
_geom_bond_site_symmetry_2
Zn1 O1 1_555 1_555
Zn2 O5 1_555 1_555
S1 C1 1_555 1_555
S2 C7 1_555 1_555
O1 C5 1_555 1_555
O2 C6 1_555 1_555
O3 Zn1 1_555 1_555
O4 C12 1_555 1_555
O5 C5 1_555 1_555
O6 C11 1_555 1_555
O7 C12 1_555 1_555
O8 C6 1_555 1_555
O9 Zn2 1_555 1_555
C1 C2 1_555 1_555
C2 H1 1_555 1_555
C3 C2 1_555 1_555
H2 C3 1_555 1_555
C4 S1 1_555 1_555
C5 C1 1_555 1_555
C6 C4 1_555 1_555
C7 C8 1_555 1_555
C8 H3 1_555 1_555
C9 C8 1_555 1_555
H4 C9 1_555 1_555
C10 S2 1_555 1_555
C11 O3 1_555 1_555
C12 C10 1_555 1_555
C13 O9 1_555 1_555
H5 C13 1_555 1_555
C14 C13 1_555 1_555
H6 C14 1_555 1_555
H7 C14 1_555 1_555
H8 C14 1_555 1_555
C15 C13 1_555 1_555
H9 C15 1_555 1_555
H10 C15 1_555 1_555
H11 C15 1_555 1_555
H12 O9 1_555 1_555
Zn1B O2 1_555 1_555
Zn1A O4 1_555 1_555
Zn2B O6 1_555 1_555
Zn2C O7 1_555 1_555
Zn2_2 O8 1_555 1_555
O2B Zn1 1_555 1_555
O4A Zn1 1_555 1_555
O6B Zn2 1_555 1_555
O7C Zn2 1_555 1_555
O8_2 Zn2 1_555 1_555
C3 C4 1_555 1_555
C7 C11 1_555 1_555
C9 C10 1_555 1_555

#END
