
#######################################################################
#
#                 Cambridge Crystallographic Data Centre
#                                CCDC 
#
#######################################################################
#
# If this CIF has been generated from an entry in the Cambridge 
# Structural Database, then it will include bibliographic, chemical, 
# crystal, experimental, refinement or atomic coordinate data resulting 
# from the CCDC's data processing and validation procedures.
#
#######################################################################

data_APETOF
_symmetry_cell_setting           monoclinic
_symmetry_space_group_name_H-M   'P 21/n'
_symmetry_Int_Tables_number      14
_space_group_name_Hall           '-P 2yn'
loop_
_symmetry_equiv_pos_site_id
_symmetry_equiv_pos_as_xyz
1 x,y,z
2 1/2-x,1/2+y,1/2-z
3 -x,-y,-z
4 1/2+x,1/2-y,1/2+z
_cell_length_a                   10.6465(3)
_cell_length_b                   17.1962(5)
_cell_length_c                   16.1035(3)
_cell_angle_alpha                90
_cell_angle_beta                 102.986(2)
_cell_angle_gamma                90
_cell_volume                     2872.82
loop_
_atom_site_label
_atom_site_type_symbol
_atom_site_fract_x
_atom_site_fract_y
_atom_site_fract_z
Co1 Co 0.71196(4) 0.05269(2) 0.84416(3)
Co2 Co 0.64699(4) -0.39845(3) 0.82971(3)
N1 N 0.5582(2) 0.11533(16) 0.88270(17)
N2 N 0.7373(2) 0.02423(15) 0.97351(16)
N3 N 0.7037(3) -0.44697(17) 0.95535(17)
N4 N 0.4948(3) -0.36546(16) 0.88852(19)
O1 O 0.5888(2) -0.04637(13) 0.81425(14)
O2 O 0.5962(2) -0.06156(14) 0.67798(15)
O3 O 0.6928(2) -0.34336(13) 0.62778(15)
O4 O 0.5640(2) -0.33707(13) 0.72028(14)
O5 O 0.7405(2) -0.29417(13) 0.87870(15)
O6 O 0.9377(2) -0.30726(14) 0.85323(16)
O7 O 0.9324(2) -0.00649(13) 0.71086(14)
O8 O 0.8663(2) -0.01688(13) 0.83332(14)
O9 O 0.6839(2) 0.07392(14) 0.71291(14)
H1 H 0.628(5) 0.116(3) 0.688(3)
H2 H 0.649(4) 0.029(3) 0.691(3)
C1 C 0.4781(3) 0.1668(2) 0.8352(2)
H3 H 0.480(3) 0.1720(18) 0.777(2)
C2 C 0.3899(3) 0.2095(2) 0.8672(2)
H4 H 0.339(3) 0.243(2) 0.831(2)
C3 C 0.3821(3) 0.1995(2) 0.9507(2)
H5 H 0.322(4) 0.229(2) 0.977(2)
C4 C 0.4644(3) 0.1470(2) 1.0005(2)
H6 H 0.459(4) 0.140(2) 1.057(3)
C5 C 0.5524(3) 0.10618(19) 0.9650(2)
C6 C 0.6499(3) 0.05249(19) 1.0146(2)
C7 C 0.6537(3) 0.0314(2) 1.0990(2)
H7 H 0.592(4) 0.048(2) 1.127(2)
C8 C 0.7495(4) -0.0177(2) 1.1403(2)
H8 H 0.752(4) -0.036(2) 1.195(3)
C9 C 0.8405(3) -0.0455(2) 1.0984(2)
H9 H 0.908(4) -0.077(2) 1.126(2)
C10 C 0.8298(3) -0.02296(19) 1.0151(2)
H10 H 0.885(3) -0.0394(19) 0.983(2)
C11 C 0.8081(4) -0.4911(2) 0.9836(2)
H11 H 0.859(4) -0.502(2) 0.945(2)
C12 C 0.8433(4) -0.5189(3) 1.0660(2)
H12 H 0.919(4) -0.553(2) 1.083(3)
C13 C 0.7657(4) -0.4999(3) 1.1214(2)
H13 H 0.787(4) -0.520(2) 1.176(3)
C14 C 0.6568(4) -0.4565(3) 1.0934(2)
H14 H 0.607(4) -0.446(2) 1.131(2)
C15 C 0.6270(3) -0.4301(2) 1.0093(2)
C16 C 0.5112(4) -0.3830(2) 0.9721(2)
C17 C 0.4231(4) -0.3587(3) 1.0190(3)
H15 H 0.437(4) -0.369(2) 1.077(3)
C18 C 0.3189(5) -0.3141(3) 0.9787(3)
H16 H 0.261(4) -0.299(3) 1.010(3)
C19 C 0.3020(4) -0.2969(3) 0.8937(3)
H17 H 0.236(4) -0.268(3) 0.864(3)
C20 C 0.3923(4) -0.3238(2) 0.8507(3)
H18 H 0.382(4) -0.315(2) 0.792(3)
C21 C 0.5651(3) -0.08357(18) 0.7447(2)
C22 C 0.4916(3) -0.1599(2) 0.7425(2)
H19 H 0.542(3) -0.193(2) 0.782(2)
H20 H 0.413(4) -0.149(2) 0.765(3)
C23 C 0.4514(3) -0.1971(2) 0.6542(2)
H21 H 0.413(3) -0.155(2) 0.615(2)
H22 H 0.385(4) -0.241(2) 0.657(2)
C24 C 0.5625(3) -0.23197(19) 0.6222(2)
H23 H 0.538(4) -0.240(2) 0.565(3)
H24 H 0.637(4) -0.196(2) 0.633(2)
C25 C 0.6095(3) -0.31051(18) 0.6599(2)
C26 C 0.9229(3) -0.04169(19) 0.7781(2)
C27 C 0.9881(4) -0.1209(2) 0.7942(2)
H25 H 0.939(4) -0.158(2) 0.754(2)
H26 H 1.065(4) -0.118(2) 0.778(2)
C28 C 1.0037(3) -0.1517(2) 0.8859(2)
H27 H 1.071(3) -0.195(2) 0.897(2)
H28 H 1.037(4) -0.105(2) 0.928(3)
C29 C 0.8800(3) -0.18504(19) 0.9045(2)
H29 H 0.882(3) -0.1868(18) 0.966(2)
H30 H 0.809(4) -0.153(2) 0.878(2)
C30 C 0.8513(3) -0.26893(19) 0.8767(2)
Co1A Co 0.78804(4) -0.44731(2) 0.65584(3)
Co2A Co 0.85301(4) 0.10155(3) 0.67029(3)
O3A O 0.8072(2) 0.15664(13) 0.87222(15)
O7A O 0.5676(2) -0.50649(13) 0.78914(14)
O9A O 0.8161(2) -0.42608(14) 0.78709(14)
H1A H 0.872(5) -0.384(3) 0.812(3)
H2A H 0.851(4) -0.471(3) 0.809(3)
loop_
_geom_bond_atom_site_label_1
_geom_bond_atom_site_label_2
_geom_bond_site_symmetry_1
_geom_bond_site_symmetry_2
Co1 N1 1_555 1_555
Co2 N3 1_555 1_555
N1 C1 1_555 1_555
N2 Co1 1_555 1_555
N3 C11 1_555 1_555
N4 Co2 1_555 1_555
O1 Co1 1_555 1_555
O2 C21 1_555 1_555
O3 C25 1_555 1_555
O4 Co2 1_555 1_555
O5 Co2 1_555 1_555
O6 C30 1_555 1_555
O7 C26 1_555 1_555
O8 Co1 1_555 1_555
O9 Co1 1_555 1_555
H1 O9 1_555 1_555
H2 O9 1_555 1_555
C1 H3 1_555 1_555
C2 C1 1_555 1_555
H4 C2 1_555 1_555
C3 C2 1_555 1_555
H5 C3 1_555 1_555
C4 C3 1_555 1_555
H6 C4 1_555 1_555
C5 N1 1_555 1_555
C6 N2 1_555 1_555
C7 C6 1_555 1_555
H7 C7 1_555 1_555
C8 C7 1_555 1_555
H8 C8 1_555 1_555
C9 C8 1_555 1_555
H9 C9 1_555 1_555
C10 N2 1_555 1_555
H10 C10 1_555 1_555
C11 H11 1_555 1_555
C12 C11 1_555 1_555
H12 C12 1_555 1_555
C13 C12 1_555 1_555
H13 C13 1_555 1_555
C14 C13 1_555 1_555
H14 C14 1_555 1_555
C15 N3 1_555 1_555
C16 N4 1_555 1_555
C17 C16 1_555 1_555
H15 C17 1_555 1_555
C18 C17 1_555 1_555
H16 C18 1_555 1_555
C19 C18 1_555 1_555
H17 C19 1_555 1_555
C20 N4 1_555 1_555
H18 C20 1_555 1_555
C21 O1 1_555 1_555
C22 C21 1_555 1_555
H19 C22 1_555 1_555
H20 C22 1_555 1_555
C23 C22 1_555 1_555
H21 C23 1_555 1_555
H22 C23 1_555 1_555
C24 C23 1_555 1_555
H23 C24 1_555 1_555
H24 C24 1_555 1_555
C25 O4 1_555 1_555
C26 O8 1_555 1_555
C27 C26 1_555 1_555
H25 C27 1_555 1_555
H26 C27 1_555 1_555
C28 C27 1_555 1_555
H27 C28 1_555 1_555
H28 C28 1_555 1_555
C29 C28 1_555 1_555
H29 C29 1_555 1_555
H30 C29 1_555 1_555
C30 O5 1_555 1_555
Co1A O3 1_555 1_555
Co2A O7 1_555 1_555
O3A Co1 1_555 1_555
O7A Co2 1_555 1_555
O9A Co2 1_555 1_555
H1A O9A 1_555 1_555
H2A O9A 1_555 1_555
O9 Co2A 1_555 1_555
C4 C5 1_555 1_555
C5 C6 1_555 1_555
C9 C10 1_555 1_555
C14 C15 1_555 1_555
C15 C16 1_555 1_555
C19 C20 1_555 1_555
C24 C25 1_555 1_555
C29 C30 1_555 1_555
Co1A O9A 1_555 1_555

#END
