
#######################################################################
#
#                 Cambridge Crystallographic Data Centre
#                                CCDC 
#
#######################################################################
#
# If this CIF has been generated from an entry in the Cambridge 
# Structural Database, then it will include bibliographic, chemical, 
# crystal, experimental, refinement or atomic coordinate data resulting 
# from the CCDC's data processing and validation procedures.
#
#######################################################################

data_APIROH
_symmetry_cell_setting           orthorhombic
_symmetry_space_group_name_H-M   'I 2 2 2'
_symmetry_Int_Tables_number      23
_space_group_name_Hall           'I 2 2'
loop_
_symmetry_equiv_pos_site_id
_symmetry_equiv_pos_as_xyz
1 x,y,z
2 -x,-y,z
3 -x,y,-z
4 x,-y,-z
5 1/2+x,1/2+y,1/2+z
6 1/2-x,1/2-y,1/2+z
7 1/2-x,1/2+y,1/2-z
8 1/2+x,1/2-y,1/2-z
_cell_length_a                   4.1428(2)
_cell_length_b                   10.7927(8)
_cell_length_c                   11.5519(9)
_cell_angle_alpha                90
_cell_angle_beta                 90
_cell_angle_gamma                90
_cell_volume                     516.509
loop_
_atom_site_label
_atom_site_type_symbol
_atom_site_fract_x
_atom_site_fract_y
_atom_site_fract_z
In1 In 0.0000 0.5000 0.0000
F1 F 0.0000 0.3137(2) 0.0000
F2 F -0.5 0.5000 0.0000
N1 N 0.0000 0.5000 0.1945(3)
C1 C 0.0991(11) 0.5996(4) 0.2546(3)
C2 C 0.1013(11) 0.6040(4) 0.3740(3)
C3 C 0.0000 0.5000 0.4359(3)
H1 H 0.189(13) 0.672(5) 0.214(5)
H2 H 0.190(17) 0.673(7) 0.411(6)
In1_2 In -1.0000 0.5000 0.0000
In1_3 In 0.0000 0.5000 1.0000
F1A F 0.0000 0.6863(2) 0.0000
F2_2 F 0.5 0.5000 0.0000
N1B N 0.0000 0.5000 0.8055(3)
N1B_2 N 0.0000 0.5000 -0.1945(3)
C1A C -0.0991(11) 0.4004(4) 0.2546(3)
C1B C -0.0991(11) 0.5996(4) 0.7454(3)
C1C C 0.0991(11) 0.4004(4) 0.7454(3)
C2A C -0.1013(11) 0.3960(4) 0.3740(3)
C2B C -0.1013(11) 0.6040(4) 0.6260(3)
C2C C 0.1013(11) 0.3960(4) 0.6260(3)
C3B C 0.0000 0.5000 0.5641(3)
H1A H -0.189(13) 0.328(5) 0.214(5)
H1C H 0.189(13) 0.328(5) 0.786(5)
H1B H -0.189(13) 0.672(5) 0.786(5)
H2A H -0.190(17) 0.327(7) 0.411(6)
H2C H 0.190(17) 0.327(7) 0.589(6)
H2B H -0.190(17) 0.673(7) 0.589(6)
loop_
_geom_bond_atom_site_label_1
_geom_bond_atom_site_label_2
_geom_bond_site_symmetry_1
_geom_bond_site_symmetry_2
In1 F1 1_555 1_555
F2 In1 1_555 1_555
N1 In1 1_555 1_555
C1 N1 1_555 1_555
C2 C1 1_555 1_555
C3 C2 1_555 1_555
H1 C1 1_555 1_555
H2 C2 1_555 1_555
In1_2 F2 1_555 1_555
In1_3 N1B 1_555 1_555
F1A In1 1_555 1_555
F2_2 In1 1_555 1_555
N1B C1B 1_555 1_555
N1B_2 In1 1_555 1_555
C1A N1 1_555 1_555
C1B C2B 1_555 1_555
C1C N1B 1_555 1_555
C2A C3 1_555 1_555
C2B C3B 1_555 1_555
C2C C1C 1_555 1_555
C3B C3 1_555 1_555
H1A C1A 1_555 1_555
H1C C1C 1_555 1_555
H1B C1B 1_555 1_555
H2A C2A 1_555 1_555
H2C C2C 1_555 1_555
H2B C2B 1_555 1_555
C1A C2A 1_555 1_555
C2C C3B 1_555 1_555

#END
