
#######################################################################
#
#                 Cambridge Crystallographic Data Centre
#                                CCDC 
#
#######################################################################
#
# If this CIF has been generated from an entry in the Cambridge 
# Structural Database, then it will include bibliographic, chemical, 
# crystal, experimental, refinement or atomic coordinate data resulting 
# from the CCDC's data processing and validation procedures.
#
#######################################################################

data_APIREX
_symmetry_cell_setting           triclinic
_symmetry_space_group_name_H-M   'P -1'
_symmetry_Int_Tables_number      2
_space_group_name_Hall           '-P 1'
loop_
_symmetry_equiv_pos_site_id
_symmetry_equiv_pos_as_xyz
1 x,y,z
2 -x,-y,-z
_cell_length_a                   7.422(4)
_cell_length_b                   10.668(4)
_cell_length_c                   14.342(6)
_cell_angle_alpha                91.31(3)
_cell_angle_beta                 95.81(4)
_cell_angle_gamma                104.08(4)
_cell_volume                     1094.47
loop_
_atom_site_label
_atom_site_type_symbol
_atom_site_fract_x
_atom_site_fract_y
_atom_site_fract_z
Ba1 Ba 0.58459(9) 0.83948(6) -0.19921(4)
O1 O 0.3876(13) 1.0299(8) -0.2264(6)
O2 O 0.7533(14) 0.9645(9) -0.0315(6)
O3 O 0.9552(12) 0.8231(9) -0.1980(8)
Ge1 Ge 0.5000 0.5000 0.0000
O4 O 0.2531(9) 0.4121(7) 0.0175(5)
O5 O 0.0328(9) 0.4350(7) 0.1053(5)
O6 O 0.5161(9) 0.5858(7) 0.1111(5)
O7 O 0.4100(10) 0.6372(7) -0.0631(5)
O8 O 0.3216(12) 0.8178(7) -0.0644(5)
O9 O 0.3311(14) 0.5051(8) 0.3712(6)
O10 O 0.3824(13) 0.4013(8) 0.2469(6)
C1 C 0.1885(13) 0.4715(9) 0.0816(7)
C2 C 0.3314(14) 0.5944(9) 0.1279(7)
C3 C 0.2856(15) 0.7085(10) 0.0770(7)
H1 H 0.1520 0.6997 0.0742
H2 H 0.3469 0.7871 0.1142
C4 C 0.3413(15) 0.7248(10) -0.0225(8)
C5 C 0.3230(17) 0.6087(10) 0.2315(8)
H3 H 0.4200 0.6836 0.2568
H4 H 0.2036 0.6252 0.2419
C6 C 0.3464(15) 0.4947(10) 0.2838(7)
Ge2 Ge 0.5000 1.0000 -0.5000
O11 O 0.6999(8) 0.9849(6) -0.5681(4)
O12 O 0.9836(9) 1.0996(6) -0.5897(5)
O13 O 0.6006(8) 1.1725(6) -0.4890(5)
O14 O 0.6406(9) 0.9802(6) -0.3819(4)
O15 O 0.8277(10) 1.0612(7) -0.2554(5)
O16 O 0.7251(10) 1.2713(7) -0.6775(5)
O17 O 0.8542(15) 1.4751(7) -0.6318(6)
C7 C 0.8393(13) 1.0891(8) -0.5545(6)
C8 C 0.7997(11) 1.1916(8) -0.4904(6)
C9 C 0.8888(12) 1.1777(9) -0.3918(6)
H5 H 1.0123 1.1642 -0.3963
H6 H 0.9045 1.2583 -0.3557
C10 C 0.7803(13) 1.0689(9) -0.3389(7)
C11 C 0.8757(13) 1.3289(9) -0.5198(7)
H7 H 0.8395 1.3886 -0.4777
H8 H 1.0111 1.3480 -0.5129
C12 C 0.8088(13) 1.3515(10) -0.6189(8)
H9 H 0.3446 0.4414 0.4060
H10 H 0.8449 1.5248 -0.6933
H11 H 0.7653 1.0360 -0.0030
H12 H 0.7614 0.9034 -0.0009
Ba1A Ba 0.41541(9) 0.16052(6) 0.19921(4)
Ba1A_2 Ba 0.41541(9) 1.16052(6) -0.80079(4)
O1A O 0.6124(13) -0.0299(8) 0.2264(6)
O2A O 0.2467(14) 0.0355(9) 0.0315(6)
O3A O 0.0448(12) 0.1769(9) 0.1980(8)
O4A O 0.7469(9) 0.5879(7) -0.0175(5)
O5A O 0.9672(9) 0.5650(7) -0.1053(5)
O6A O 0.4839(9) 0.4142(7) -0.1111(5)
O7A O 0.5900(10) 0.3628(7) 0.0631(5)
O8A O 0.6784(12) 0.1822(7) 0.0644(5)
O9A O 0.6689(14) 0.4949(8) -0.3712(6)
O10A O 0.6176(13) 0.5987(8) -0.2469(6)
C1A C 0.8115(13) 0.5285(9) -0.0816(7)
C2A C 0.6686(14) 0.4056(9) -0.1279(7)
C3A C 0.7144(15) 0.2915(10) -0.0770(7)
H1A H 0.8480 0.3003 -0.0742
H2A H 0.6531 0.2129 -0.1142
C4A C 0.6587(15) 0.2752(10) 0.0225(8)
C5A C 0.6770(17) 0.3913(10) -0.2315(8)
H3A H 0.5800 0.3164 -0.2568
H4A H 0.7964 0.3748 -0.2419
C6A C 0.6536(15) 0.5053(10) -0.2838(7)
O11A O 0.3001(8) 1.0151(6) -0.4319(4)
O12A O 0.0164(9) 0.9004(6) -0.4103(5)
O13A O 0.3994(8) 0.8275(6) -0.5110(5)
O14A O 0.3594(9) 1.0198(6) -0.6181(4)
O14A_2 O 0.3594(9) 0.0198(6) 0.3819(4)
O15A O 0.1723(10) 0.9388(7) -0.7446(5)
O15A_2 O 0.1723(10) -0.0612(7) 0.2554(5)
O16A O 0.2749(10) 0.7287(7) -0.3225(5)
O16_2 O 0.7251(10) 0.2713(7) 0.3225(5)
O17A O 0.1458(15) 0.5249(7) -0.3682(6)
C7A C 0.1607(13) 0.9109(8) -0.4455(6)
C8A C 0.2003(11) 0.8084(8) -0.5096(6)
C9A C 0.1112(12) 0.8223(9) -0.6082(6)
H5A H -0.0123 0.8358 -0.6037
H6A H 0.0955 0.7417 -0.6443
C10A C 0.2197(13) 0.9311(9) -0.6611(7)
C11A C 0.1243(13) 0.6711(9) -0.4802(7)
H7A H 0.1605 0.6114 -0.5223
H8A H -0.0111 0.6520 -0.4871
C12A C 0.1912(13) 0.6485(10) -0.3811(8)
H9A H 0.6554 0.5586 -0.4060
H10A H 0.1551 0.4752 -0.3067
H11A H 0.2347 -0.0360 0.0030
H12A H 0.2386 0.0966 0.0009
O18 O 0.8331(11) 0.5647(8) 0.2058(6)
H13 H 0.6779 0.5712 0.2011
O19 O 0.1567(11) 0.1557(8) 0.8619(6)
H14 H 0.1928 0.2585 0.8616
H15 H 0.0459 0.1262 0.8170
O20 O 0.3224(13) 0.2927(9) 0.4557(9)
loop_
_geom_bond_atom_site_label_1
_geom_bond_atom_site_label_2
_geom_bond_site_symmetry_1
_geom_bond_site_symmetry_2
Ba1 O1 1_555 1_555
O2 Ba1 1_555 1_555
O3 Ba1 1_555 1_555
Ge1 O4 1_555 1_555
O4 C1 1_555 1_555
O5 C1 1_555 1_555
O6 Ge1 1_555 1_555
O7 Ba1 1_555 1_555
O8 Ba1 1_555 1_555
O9 C6 1_555 1_555
O10 C6 1_555 1_555
C1 C2 1_555 1_555
C2 O6 1_555 1_555
C3 C2 1_555 1_555
H1 C3 1_555 1_555
H2 C3 1_555 1_555
C4 O7 1_555 1_555
C5 C2 1_555 1_555
H3 C5 1_555 1_555
H4 C5 1_555 1_555
C6 C5 1_555 1_555
Ge2 O11 1_555 1_555
O11 C7 1_555 1_555
O12 C7 1_555 1_555
O13 Ge2 1_555 1_555
O14 Ba1 1_555 1_555
O15 Ba1 1_555 1_555
O16 C12 1_555 1_555
O17 C12 1_555 1_555
C7 C8 1_555 1_555
C8 O13 1_555 1_555
C9 C8 1_555 1_555
H5 C9 1_555 1_555
H6 C9 1_555 1_555
C10 O14 1_555 1_555
C11 C8 1_555 1_555
H7 C11 1_555 1_555
H8 C11 1_555 1_555
C12 C11 1_555 1_555
O18 H13 1_555 1_555
O19 H14 1_555 1_555
H9 O9 1_555 1_555
H10 O17 1_555 1_555
H11 O2 1_555 1_555
H12 O2 1_555 1_555
H15 O19 1_555 1_555
Ba1A O10 1_555 1_555
Ba1A_2 O16 1_555 1_555
O1A Ba1A 1_555 1_555
O2A Ba1A 1_555 1_555
O3A Ba1A 1_555 1_555
O4A Ge1 1_555 1_555
O5A C1A 1_555 1_555
O6A Ge1 1_555 1_555
O7A Ge1 1_555 1_555
O8A Ba1A 1_555 1_555
O9A C6A 1_555 1_555
O10A Ba1 1_555 1_555
C1A O4A 1_555 1_555
C2A O6A 1_555 1_555
C3A C2A 1_555 1_555
H1A C3A 1_555 1_555
H2A C3A 1_555 1_555
C4A O7A 1_555 1_555
C5A C2A 1_555 1_555
H3A C5A 1_555 1_555
H4A C5A 1_555 1_555
C6A O10A 1_555 1_555
O11A Ge2 1_555 1_555
O12A C7A 1_555 1_555
O13A Ge2 1_555 1_555
O14A Ge2 1_555 1_555
O14A_2 Ba1A 1_555 1_555
O15A Ba1A_2 1_555 1_555
O15A_2 Ba1A 1_555 1_555
O16A Ba1 1_555 1_555
O16_2 Ba1A 1_555 1_555
O17A C12A 1_555 1_555
C7A O11A 1_555 1_555
C8A O13A 1_555 1_555
C9A C8A 1_555 1_555
H5A C9A 1_555 1_555
H6A C9A 1_555 1_555
C10A O14A 1_555 1_555
C11A C8A 1_555 1_555
H7A C11A 1_555 1_555
H8A C11A 1_555 1_555
C12A O16A 1_555 1_555
H9A O9A 1_555 1_555
H10A O17A 1_555 1_555
H11A O2A 1_555 1_555
H12A O2A 1_555 1_555
Ge1 O7 1_555 1_555
O8 C4 1_555 1_555
C3 C4 1_555 1_555
Ge2 O14 1_555 1_555
O15 C10 1_555 1_555
C9 C10 1_555 1_555
Ba1A O7A 1_555 1_555
Ba1A_2 O14A 1_555 1_555
O8A C4A 1_555 1_555
C1A C2A 1_555 1_555
C3A C4A 1_555 1_555
C5A C6A 1_555 1_555
O15A C10A 1_555 1_555
C7A C8A 1_555 1_555
C9A C10A 1_555 1_555
C11A C12A 1_555 1_555

#END
