
#######################################################################
#
#                 Cambridge Crystallographic Data Centre
#                                CCDC 
#
#######################################################################
#
# If this CIF has been generated from an entry in the Cambridge 
# Structural Database, then it will include bibliographic, chemical, 
# crystal, experimental, refinement or atomic coordinate data resulting 
# from the CCDC's data processing and validation procedures.
#
#######################################################################

data_APISAU
_symmetry_cell_setting           triclinic
_symmetry_space_group_name_H-M   'P -1'
_symmetry_Int_Tables_number      2
_space_group_name_Hall           '-P 1'
loop_
_symmetry_equiv_pos_site_id
_symmetry_equiv_pos_as_xyz
1 x,y,z
2 -x,-y,-z
_cell_length_a                   10.7477(15)
_cell_length_b                   12.3814(13)
_cell_length_c                   15.8735(15)
_cell_angle_alpha                81.855(8)
_cell_angle_beta                 80.105(9)
_cell_angle_gamma                89.935(10)
_cell_volume                     2059.32
loop_
_atom_site_label
_atom_site_type_symbol
_atom_site_fract_x
_atom_site_fract_y
_atom_site_fract_z
Ag1 Ag 0.86007(7) 0.47780(5) 0.12493(4)
Ag2 Ag 1.06892(7) 0.97925(5) 0.13007(4)
P1 P 0.67613(18) 0.44827(15) 0.23962(11)
P2 P 1.19811(18) 0.95085(15) 0.24318(11)
C1 C 0.6668(7) 0.3160(6) 0.3099(4)
C2 C 0.5504(9) 0.2644(7) 0.3495(6)
H1 H 0.4751 0.2969 0.3398
C3 C 0.5477(11) 0.1633(8) 0.4040(6)
H2 H 0.4713 0.1294 0.4312
C4 C 0.6615(12) 0.1157(9) 0.4161(6)
H3 H 0.6602 0.0489 0.4514
C5 C 0.7774(12) 0.1647(9) 0.3771(7)
H4 H 0.8525 0.1319 0.3867
C6 C 0.7786(8) 0.2644(7) 0.3232(6)
H5 H 0.8555 0.2970 0.2956
C7 C 0.6692(7) 0.5545(6) 0.3117(5)
C8 C 0.6481(9) 0.5288(8) 0.4027(5)
H6 H 0.6364 0.4566 0.4291
C9 C 0.6451(12) 0.6137(10) 0.4523(7)
H7 H 0.6313 0.5979 0.5123
C10 C 0.6627(10) 0.7234(10) 0.4122(7)
H8 H 0.6590 0.7795 0.4458
C11 C 0.6857(11) 0.7472(8) 0.3227(7)
H9 H 0.6984 0.8191 0.2959
C12 C 0.6897(9) 0.6622(7) 0.2732(6)
H10 H 0.7064 0.6782 0.2132
C13 C 0.5250(8) 0.4583(6) 0.2003(5)
C14 C 0.4269(9) 0.5253(8) 0.2318(6)
H11 H 0.4365 0.5671 0.2746
C15 C 0.3136(10) 0.5284(9) 0.1976(8)
H12 H 0.2492 0.5720 0.2200
C16 C 0.2943(10) 0.4733(9) 0.1361(7)
H13 H 0.2194 0.4797 0.1141
C17 C 0.3884(13) 0.4051(13) 0.1047(9)
H14 H 0.3755 0.3616 0.0636
C18 C 0.5039(11) 0.4029(11) 0.1359(7)
H15 H 0.5687 0.3614 0.1112
C19 C 1.1775(7) 0.8180(6) 0.3147(4)
C20 C 1.0640(8) 0.7585(7) 0.3210(5)
H16 H 1.0019 0.7848 0.2898
C21 C 1.0469(11) 0.6568(8) 0.3764(7)
H17 H 0.9728 0.6161 0.3812
C22 C 1.1373(14) 0.6178(9) 0.4228(7)
H18 H 1.1237 0.5517 0.4594
C23 C 1.2491(14) 0.6764(10) 0.4155(7)
H19 H 1.3102 0.6494 0.4474
C24 C 1.2712(10) 0.7766(8) 0.3602(6)
H20 H 1.3475 0.8147 0.3542
C25 C 1.3688(7) 0.9619(6) 0.2008(5)
C26 C 1.4176(11) 0.8998(11) 0.1361(8)
H21 H 1.3643 0.8552 0.1150
C27 C 1.5496(11) 0.9057(14) 0.1030(9)
H22 H 1.5808 0.8617 0.0617
C28 C 1.6324(9) 0.9715(8) 0.1280(7)
H23 H 1.7180 0.9745 0.1046
C29 C 1.5825(10) 1.0334(10) 0.1899(9)
H24 H 1.6368 1.0800 0.2083
C30 C 1.4524(9) 1.0306(8) 0.2277(7)
H25 H 1.4233 1.0739 0.2699
C31 C 1.1713(7) 1.0559(6) 0.3155(5)
C32 C 1.1516(9) 1.0335(8) 0.4060(5)
H26 H 1.1512 0.9616 0.4327
C33 C 1.1325(10) 1.1176(9) 0.4563(6)
H27 H 1.1202 1.1007 0.5162
C34 C 1.1313(11) 1.2265(9) 0.4188(7)
H28 H 1.1194 1.2826 0.4525
C35 C 1.1486(11) 1.2481(8) 0.3294(7)
H29 H 1.1482 1.3201 0.3032
C36 C 1.1668(9) 1.1647(7) 0.2767(6)
H30 H 1.1757 1.1816 0.2170
B1 B 0.9962(8) 0.6574(6) 0.1085(5)
H31 H 0.9784 0.6034 0.1708
B2 B 0.9054(8) 0.6808(6) 0.0284(5)
H32 H 0.8147 0.6358 0.0384
B3 B 1.0715(7) 0.6348(6) 0.0083(5)
H33 H 1.1103 0.5534 0.0026
B4 B 1.1226(8) 0.7436(6) 0.0611(6)
H34 H 1.2007 0.7477 0.0972
B5 B 0.9568(8) 0.7924(6) 0.0811(5)
H35 H 0.9060 0.8354 0.1323
B6 B 1.0011(8) 0.7090(6) -0.0801(5)
H36 H 0.9782 0.6669 -0.1323
B7 B 1.1573(8) 0.7556(6) -0.0578(5)
H37 H 1.2543 0.7503 -0.0927
B8 B 1.0763(8) 0.8650(6) -0.0037(5)
H38 H 1.1124 0.9456 0.0038
B9 B 0.9204(8) 0.8207(6) -0.0282(5)
H39 H 0.8357 0.8662 -0.0403
B10 B 1.0563(8) 0.8430(6) -0.1054(5)
H40 H 1.0736 0.8976 -0.1675
Ag1A Ag 1.13993(7) 0.52220(5) -0.12493(4)
Ag2A Ag 0.93108(7) 1.02075(5) -0.13007(4)
B3A B 0.9285(7) 0.3652(6) -0.0083(5)
H33A H 0.8897 0.4466 -0.0026
B6A B 0.9989(8) 0.2910(6) 0.0801(5)
H36A H 1.0218 0.3331 0.1323
B9A B 1.0796(8) 1.1793(6) 0.0282(5)
H39A H 1.1643 1.1338 0.0403
B10A B 0.9437(8) 1.1570(6) 0.1054(5)
H40A H 0.9264 1.1024 0.1675
loop_
_geom_bond_atom_site_label_1
_geom_bond_atom_site_label_2
_geom_bond_site_symmetry_1
_geom_bond_site_symmetry_2
Ag1 P1 1_555 1_555
Ag2 P2 1_555 1_555
P1 C1 1_555 1_555
P2 C19 1_555 1_555
C1 C2 1_555 1_555
C2 H1 1_555 1_555
C3 C2 1_555 1_555
H2 C3 1_555 1_555
C4 C3 1_555 1_555
H3 C4 1_555 1_555
C5 C4 1_555 1_555
H4 C5 1_555 1_555
C6 C1 1_555 1_555
H5 C6 1_555 1_555
C7 P1 1_555 1_555
C8 C7 1_555 1_555
H6 C8 1_555 1_555
C9 C8 1_555 1_555
H7 C9 1_555 1_555
C10 C9 1_555 1_555
H8 C10 1_555 1_555
C11 C10 1_555 1_555
H9 C11 1_555 1_555
C12 C7 1_555 1_555
H10 C12 1_555 1_555
C13 P1 1_555 1_555
C14 C13 1_555 1_555
H11 C14 1_555 1_555
C15 C14 1_555 1_555
H12 C15 1_555 1_555
C16 C15 1_555 1_555
H13 C16 1_555 1_555
C17 C16 1_555 1_555
H14 C17 1_555 1_555
C18 C13 1_555 1_555
H15 C18 1_555 1_555
C19 C20 1_555 1_555
C20 H16 1_555 1_555
C21 C20 1_555 1_555
H17 C21 1_555 1_555
C22 C21 1_555 1_555
H18 C22 1_555 1_555
C23 C22 1_555 1_555
H19 C23 1_555 1_555
C24 C19 1_555 1_555
H20 C24 1_555 1_555
C25 P2 1_555 1_555
C26 C25 1_555 1_555
H21 C26 1_555 1_555
C27 C26 1_555 1_555
H22 C27 1_555 1_555
C28 C27 1_555 1_555
H23 C28 1_555 1_555
C29 C28 1_555 1_555
H24 C29 1_555 1_555
C30 C25 1_555 1_555
H25 C30 1_555 1_555
C31 P2 1_555 1_555
C32 C31 1_555 1_555
H26 C32 1_555 1_555
C33 C32 1_555 1_555
H27 C33 1_555 1_555
C34 C33 1_555 1_555
H28 C34 1_555 1_555
C35 C34 1_555 1_555
H29 C35 1_555 1_555
C36 C31 1_555 1_555
H30 C36 1_555 1_555
B1 Ag1 1_555 1_555
H31 Ag1 1_555 1_555
B2 Ag1 1_555 1_555
H32 Ag1 1_555 1_555
B3 B1 1_555 1_555
H33 B3 1_555 1_555
B4 B1 1_555 1_555
H34 B4 1_555 1_555
B5 Ag2 1_555 1_555
H35 Ag2 1_555 1_555
B6 B2 1_555 1_555
H36 B6 1_555 1_555
B7 B3 1_555 1_555
H37 B7 1_555 1_555
B8 Ag2 1_555 1_555
H38 Ag2 1_555 1_555
B9 B2 1_555 1_555
H39 B9 1_555 1_555
B10 B6 1_555 1_555
H40 B10 1_555 1_555
Ag1A B3 1_555 1_555
Ag2A B9 1_555 1_555
B3A Ag1 1_555 1_555
H33A Ag1 1_555 1_555
B6A Ag1 1_555 1_555
H36A Ag1 1_555 1_555
B9A Ag2 1_555 1_555
H39A Ag2 1_555 1_555
B10A Ag2 1_555 1_555
H40A Ag2 1_555 1_555
C5 C6 1_555 1_555
C11 C12 1_555 1_555
C17 C18 1_555 1_555
C23 C24 1_555 1_555
C29 C30 1_555 1_555
C35 C36 1_555 1_555
B1 H31 1_555 1_555
B1 B2 1_555 1_555
B1 B5 1_555 1_555
B2 H32 1_555 1_555
B2 B3 1_555 1_555
B2 B5 1_555 1_555
B3 B4 1_555 1_555
B3 B6 1_555 1_555
H33 Ag1A 1_555 1_555
B4 B5 1_555 1_555
B4 B7 1_555 1_555
B4 B8 1_555 1_555
B5 H35 1_555 1_555
B5 B8 1_555 1_555
B5 B9 1_555 1_555
B6 B7 1_555 1_555
B6 B9 1_555 1_555
B6 Ag1A 1_555 1_555
H36 Ag1A 1_555 1_555
B7 B8 1_555 1_555
B7 B10 1_555 1_555
B8 H38 1_555 1_555
B8 B9 1_555 1_555
B8 B10 1_555 1_555
B9 B10 1_555 1_555
H39 Ag2A 1_555 1_555
B10 Ag2A 1_555 1_555
H40 Ag2A 1_555 1_555
B3A H33A 1_555 1_555
B3A B6A 1_555 1_555
B6A H36A 1_555 1_555
B9A H39A 1_555 1_555
B9A B10A 1_555 1_555
B10A H40A 1_555 1_555

#END
