
#######################################################################
#
#                 Cambridge Crystallographic Data Centre
#                                CCDC 
#
#######################################################################
#
# If this CIF has been generated from an entry in the Cambridge 
# Structural Database, then it will include bibliographic, chemical, 
# crystal, experimental, refinement or atomic coordinate data resulting 
# from the CCDC's data processing and validation procedures.
#
#######################################################################

data_APIXIH
_symmetry_cell_setting           triclinic
_symmetry_space_group_name_H-M   'P -1'
_symmetry_Int_Tables_number      2
_space_group_name_Hall           '-P 1'
loop_
_symmetry_equiv_pos_site_id
_symmetry_equiv_pos_as_xyz
1 x,y,z
2 -x,-y,-z
_cell_length_a                   5.0810(10)
_cell_length_b                   8.7960(18)
_cell_length_c                   9.1970(18)
_cell_angle_alpha                81.89(3)
_cell_angle_beta                 77.63(3)
_cell_angle_gamma                82.29(3)
_cell_volume                     395.176
loop_
_atom_site_label
_atom_site_type_symbol
_atom_site_fract_x
_atom_site_fract_y
_atom_site_fract_z
Ag1 Ag 0.25649(9) -0.01235(5) 0.12434(5)
O1 O 0.0294(11) 0.1787(6) 0.0158(6)
N1 N 0.4989(13) -0.1906(7) 0.2386(7)
H1 H 0.3932 -0.2634 0.2878
H2 H 0.6288 -0.2355 0.1701
O2 O -0.1218(11) 0.2345(5) 0.2487(5)
C1 C -0.3172(12) 0.3839(7) 0.0541(7)
C2 C -0.5595(13) 0.4347(7) 0.1495(7)
H3 H -0.5996 0.3914 0.2488
C3 C -0.1223(12) 0.2563(7) 0.1145(7)
C4 C -0.2633(13) 0.4502(7) -0.0935(7)
H4 H -0.1037 0.4163 -0.1565
C5 C 0.6285(13) -0.1321(7) 0.3467(7)
H5 H 0.7805 -0.0779 0.2921
H6 H 0.6981 -0.2189 0.4105
C6 C 0.4330(13) -0.0248(8) 0.4430(7)
H7 H 0.2762 -0.0768 0.4939
H8 H 0.3715 0.0653 0.3803
Ag1A Ag -1.25649(9) 1.01235(5) -0.12434(5)
Ag1A_2 Ag 0.74351(9) 0.01235(5) 0.87566(5)
O1A O -1.0294(11) 0.8213(6) -0.0158(6)
O1A_2 O 0.9706(11) -0.1787(6) 0.9842(6)
N1A N 0.5011(13) 0.1906(7) 0.7614(7)
H1A H 0.6068 0.2634 0.7122
H2A H 0.3712 0.2355 0.8299
O2A O -0.8782(11) 0.7655(5) -0.2487(5)
C1A C -0.6828(12) 0.6161(7) -0.0541(7)
C2A C -0.4405(13) 0.5653(7) -0.1495(7)
H3A H -0.4004 0.6086 -0.2488
C3A C -0.8777(12) 0.7437(7) -0.1145(7)
C4A C -0.7367(13) 0.5498(7) 0.0935(7)
H4A H -0.8963 0.5837 0.1565
C5A C 0.3715(13) 0.1321(7) 0.6533(7)
H5A H 0.2195 0.0779 0.7079
H6A H 0.3019 0.2189 0.5895
C6A C 0.5670(13) 0.0248(8) 0.5570(7)
H7A H 0.7238 0.0768 0.5061
H8A H 0.6285 -0.0653 0.6197
O3 O 0.7743(12) 0.4235(7) 0.4845(7)
H9 H 0.79(2) 0.378(11) 0.407(8)
H10 H 0.648(17) 0.497(9) 0.480(11)
loop_
_geom_bond_atom_site_label_1
_geom_bond_atom_site_label_2
_geom_bond_site_symmetry_1
_geom_bond_site_symmetry_2
Ag1 O1 1_555 1_555
O1 C3 1_555 1_555
N1 Ag1 1_555 1_555
H1 N1 1_555 1_555
H2 N1 1_555 1_555
O2 C3 1_555 1_555
C1 C2 1_555 1_555
C2 H3 1_555 1_555
C3 C1 1_555 1_555
C4 C1 1_555 1_555
H4 C4 1_555 1_555
C5 N1 1_555 1_555
H5 C5 1_555 1_555
H6 C5 1_555 1_555
C6 C5 1_555 1_555
H7 C6 1_555 1_555
H8 C6 1_555 1_555
O3 H9 1_555 1_555
H10 O3 1_555 1_555
Ag1A O1A 1_555 1_555
Ag1A_2 O1A_2 1_555 1_555
O1A C3A 1_555 1_555
N1A Ag1A_2 1_555 1_555
H1A N1A 1_555 1_555
H2A N1A 1_555 1_555
O2A C3A 1_555 1_555
C1A C2A 1_555 1_555
C2A C4 1_555 1_555
H3A C2A 1_555 1_555
C3A C1A 1_555 1_555
C4A C2 1_555 1_555
H4A C4A 1_555 1_555
C5A N1A 1_555 1_555
H5A C5A 1_555 1_555
H6A C5A 1_555 1_555
C6A C6 1_555 1_555
H7A C6A 1_555 1_555
H8A C6A 1_555 1_555
C1A C4A 1_555 1_555
C5A C6A 1_555 1_555

#END
