
#######################################################################
#
#                 Cambridge Crystallographic Data Centre
#                                CCDC 
#
#######################################################################
#
# If this CIF has been generated from an entry in the Cambridge 
# Structural Database, then it will include bibliographic, chemical, 
# crystal, experimental, refinement or atomic coordinate data resulting 
# from the CCDC's data processing and validation procedures.
#
#######################################################################

data_APORUS
_symmetry_cell_setting           monoclinic
_symmetry_space_group_name_H-M   'P c'
_symmetry_Int_Tables_number      7
_space_group_name_Hall           'P -2yc'
loop_
_symmetry_equiv_pos_site_id
_symmetry_equiv_pos_as_xyz
1 x,y,z
2 x,-y,1/2+z
_cell_length_a                   7.683(3)
_cell_length_b                   11.566(3)
_cell_length_c                   16.00(1)
_cell_angle_alpha                90
_cell_angle_beta                 100.32(4)
_cell_angle_gamma                90
_cell_volume                     1398.78
loop_
_atom_site_label
_atom_site_type_symbol
_atom_site_fract_x
_atom_site_fract_y
_atom_site_fract_z
Cd1 Cd 0.863(4) -0.50466(5) 0.021(2)
S1 S 1.009(4) -0.3191(2) -0.012(2)
S2 S 0.921(4) -0.6985(2) -0.044(2)
O1 O 0.551(4) -0.5349(6) 0.021(2)
O2 O 0.615(4) -0.4585(7) -0.096(2)
O3 O 0.058(4) -0.4595(5) -0.349(2)
O4 O -0.173(4) -0.5564(7) -0.337(2)
N1 N 0.906(4) -0.1611(6) 0.088(2)
N2 N 0.694(4) -0.229(1) -0.013(2)
N3 N 0.748(4) -0.8769(6) -0.001(2)
N4 N 0.900(5) -0.7670(7) 0.113(2)
C1 C 0.516(4) -0.5082(9) -0.050(2)
C2 C 0.324(4) -0.5414(9) -0.089(2)
C3 C 0.229(4) -0.4987(7) -0.182(2)
C4 C 0.058(4) -0.528(1) -0.212(2)
C5 C -0.031(4) -0.5126(8) -0.307(2)
C6 C 0.865(4) -0.2224(8) 0.026(2)
C7 C 0.853(4) -0.7934(6) 0.030(2)
H1 H 0.8229 -0.0982 0.1048
H2 H 1.0125 -0.1678 0.1175
H3 H 0.5925 -0.1683 -0.0083
H4 H 0.6370 -0.2794 -0.0652
H5 H 0.7029 -0.9365 0.0390
H6 H 0.6848 -0.8834 -0.0576
H7 H 0.8842 -0.8210 0.1640
H8 H 0.9714 -0.6999 0.1330
H17 H 0.2853 -0.6194 -0.0897
H18 H 0.2312 -0.5046 -0.0513
H19 H 0.1903 -0.4124 -0.1831
H20 H 0.2831 -0.5118 -0.2232
H21 H 0.0583 -0.6336 -0.2078
H22 H -0.0354 -0.5298 -0.1709
O3A O 1.058(4) -0.5405(5) 0.151(2)
O4A O 0.827(4) -0.4436(7) 0.163(2)
Cd1A Cd -0.137(4) -0.49534(5) -0.479(2)
Cd2 Cd 0.468(4) -1.00531(6) -0.298(2)
S3 S 0.318(4) -0.8146(2) -0.266(2)
S4 S 0.412(4) -1.1986(2) -0.232(2)
O5 O 0.752(4) -1.0362(9) -0.300(2)
O6 O 0.734(4) -0.9660(7) -0.171(2)
O7 O 1.250(4) -0.9484(8) 0.069(2)
O8 O 1.490(4) -1.0601(6) 0.059(2)
N5 N 0.635(4) -0.7222(8) -0.266(2)
N6 N 0.405(4) -0.6512(9) -0.371(2)
N7 N 0.433(4) -1.2780(8) -0.388(2)
N8 N 0.572(4) -1.3833(8) -0.281(2)
C8 C 0.823(4) -1.0078(7) -0.217(2)
C9 C 1.023(4) -1.030(2) -0.186(2)
C10 C 1.069(4) -1.0024(7) -0.102(2)
C11 C 1.284(4) -1.0434(7) -0.065(2)
C12 C 1.338(5) -1.0169(9) 0.024(2)
C13 C 0.472(4) -0.7284(8) -0.302(3)
C14 C 0.480(5) -1.285(1) -0.306(2)
H9 H 0.6619 -0.7779 -0.2235
H10 H 0.7017 -0.6825 -0.2940
H11 H 0.2832 -0.6391 -0.4030
H12 H 0.4969 -0.6122 -0.3873
H13 H 0.3560 -1.2180 -0.4112
H14 H 0.4898 -1.3193 -0.4193
H15 H 0.5897 -1.4092 -0.2155
H16 H 0.6237 -1.4330 -0.3127
H23 H 1.0195 -1.1324 -0.1875
H24 H 1.0887 -1.0198 -0.2230
H25 H 1.0338 -0.9212 -0.1041
H26 H 0.9755 -1.0365 -0.0860
H27 H 1.2830 -1.1145 -0.0741
H28 H 1.3373 -0.9892 -0.0928
O7A O 0.250(4) -1.0516(8) -0.431(2)
O8A O 0.490(4) -0.9399(6) -0.441(2)
Cd2A Cd 1.468(4) -0.99469(6) 0.202(2)
loop_
_geom_bond_atom_site_label_1
_geom_bond_atom_site_label_2
_geom_bond_site_symmetry_1
_geom_bond_site_symmetry_2
Cd1 S1 1_555 1_555
Cd2 S3 1_555 1_555
S1 C6 1_555 1_555
S2 Cd1 1_555 1_555
S3 C13 1_555 1_555
S4 Cd2 1_555 1_555
O1 Cd1 1_555 1_555
O2 Cd1 1_555 1_555
O3 C5 1_555 1_555
O4 C5 1_555 1_555
O5 Cd2 1_555 1_555
O6 C8 1_555 1_555
O7 C12 1_555 1_555
O8 C12 1_555 1_555
N1 C6 1_555 1_555
N2 C6 1_555 1_555
N3 C7 1_555 1_555
N4 C7 1_555 1_555
N5 C13 1_555 1_555
N6 C13 1_555 1_555
N7 C14 1_555 1_555
N8 C14 1_555 1_555
C1 O1 1_555 1_555
C2 C1 1_555 1_555
C3 C2 1_555 1_555
C4 C3 1_555 1_555
C5 C4 1_555 1_555
C7 S2 1_555 1_555
C8 O5 1_555 1_555
C9 C8 1_555 1_555
C10 C9 1_555 1_555
C11 C10 1_555 1_555
C12 C11 1_555 1_555
C14 S4 1_555 1_555
H1 N1 1_555 1_555
H2 N1 1_555 1_555
H3 N2 1_555 1_555
H4 N2 1_555 1_555
H5 N3 1_555 1_555
H6 N3 1_555 1_555
H7 N4 1_555 1_555
H8 N4 1_555 1_555
H9 N5 1_555 1_555
H10 N5 1_555 1_555
H11 N6 1_555 1_555
H12 N6 1_555 1_555
H13 N7 1_555 1_555
H14 N7 1_555 1_555
H15 N8 1_555 1_555
H16 N8 1_555 1_555
H17 C2 1_555 1_555
H18 C2 1_555 1_555
H19 C3 1_555 1_555
H20 C3 1_555 1_555
H21 C4 1_555 1_555
H22 C4 1_555 1_555
H23 C9 1_555 1_555
H24 C9 1_555 1_555
H25 C10 1_555 1_555
H26 C10 1_555 1_555
H27 C11 1_555 1_555
H28 C11 1_555 1_555
O3A Cd1 1_555 1_555
O4A Cd1 1_555 1_555
O7A Cd2 1_555 1_555
O8A Cd2 1_555 1_555
Cd1A O3 1_555 1_555
Cd2A O7 1_555 1_555
O2 C1 1_555 1_555
O4 Cd1A 1_555 1_555
O8 Cd2A 1_555 1_555

#END
