
#######################################################################
#
#                 Cambridge Crystallographic Data Centre
#                                CCDC 
#
#######################################################################
#
# If this CIF has been generated from an entry in the Cambridge 
# Structural Database, then it will include bibliographic, chemical, 
# crystal, experimental, refinement or atomic coordinate data resulting 
# from the CCDC's data processing and validation procedures.
#
#######################################################################

data_AQALOU
_symmetry_cell_setting           orthorhombic
_symmetry_space_group_name_H-M   'P n m a'
_symmetry_Int_Tables_number      62
_space_group_name_Hall           '-P 2ac 2n'
loop_
_symmetry_equiv_pos_site_id
_symmetry_equiv_pos_as_xyz
1 x,y,z
2 1/2-x,-y,1/2+z
3 1/2+x,1/2-y,1/2-z
4 -x,1/2+y,-z
5 -x,-y,-z
6 1/2+x,y,1/2-z
7 1/2-x,1/2+y,1/2+z
8 x,1/2-y,z
_cell_length_a                   15.824(3)
_cell_length_b                   11.425(2)
_cell_length_c                   12.649(3)
_cell_angle_alpha                90
_cell_angle_beta                 90
_cell_angle_gamma                90
_cell_volume                     2286.8
loop_
_atom_site_label
_atom_site_type_symbol
_atom_site_fract_x
_atom_site_fract_y
_atom_site_fract_z
Gd1 Gd 0.57706(4) 0.7500 0.47767(5)
Gd2 Gd 0.57378(4) 0.7500 0.97772(5)
Sr1 Sr 0.32755(9) 0.7500 0.87126(11)
O1 O 0.4916(6) 0.7500 0.6395(8)
O2 O 0.6618(6) 0.7500 0.6432(8)
O3 O 0.6578(7) 0.7500 0.8185(8)
O4 O 0.4899(7) 0.7500 0.8155(8)
O5 O 0.4451(5) 0.8678(7) 1.0047(7)
O6 O 0.5937(6) 0.6346(7) 0.1389(6)
O7 O 0.4082(4) 1.0455(6) 1.0652(6)
O8 O 0.6007(5) 0.9491(7) 0.5315(6)
O9 O 0.5921(6) 0.6330(7) 0.3154(6)
C1 C 0.5267(10) 0.7500 0.7282(12)
C2 C 0.6233(9) 0.7500 0.7310(11)
C3 C 0.4578(7) 0.9745(11) 1.0203(8)
C4 C 0.5924(7) 0.6830(9) 0.2270(8)
C5 C 0.5422(6) 1.0229(10) 0.5225(8)
O10 O 0.5466(5) 1.1279(7) 0.5464(7)
O11 O 0.7207(8) 0.7500 0.9984(10)
H1 H 0.7527 0.7500 0.9454
H2 H 0.7483 0.7500 1.0552
O12 O 0.7328(7) 0.7500 0.4433(8)
H3 H 0.7470 0.8061 0.4044
O13 O 0.3418(9) 0.8795(12) 0.6991(10)
H4 H 0.3929 0.8950 0.7103
H5 H 0.3255 0.9051 0.6403
O14 O 0.2704(5) 0.9574(8) 0.9030(7)
H6 H 0.2219 0.9694 0.9278
H7 H 0.3018 1.0159 0.9096
Gd1C Gd 0.42294(4) 1.2500 0.52233(5)
Gd2_2 Gd 0.57378(4) 0.7500 -0.02228(5)
Gd2C Gd 0.42622(4) 1.2500 1.02228(5)
Sr1B Sr 0.82755(9) 0.7500 0.62874(11)
Sr1C Sr 0.67245(9) 1.2500 1.12874(11)
O2B O 0.1618(6) 0.7500 0.8568(8)
O5D O 0.5549(5) 1.1322(7) 0.9953(7)
O5G O 0.4451(5) 0.6322(7) 1.0047(7)
O6G O 0.5937(6) 0.8654(7) 0.1389(6)
O6_2 O 0.5937(6) 0.6346(7) 1.1389(6)
O6G_2 O 0.5937(6) 0.8654(7) 1.1389(6)
O7D O 0.5918(4) 0.9545(6) 0.9348(6)
O7C O 0.5918(4) 0.5455(6) 0.9348(6)
O8D O 0.3993(5) 1.0509(7) 0.4685(6)
O8G O 0.6007(5) 0.5509(7) 0.5315(6)
O9G O 0.5921(6) 0.8670(7) 0.3154(6)
C3D C 0.5422(7) 1.0255(11) 0.9797(8)
C4G C 0.5924(7) 0.8170(9) 0.2270(8)
C5D C 0.4578(6) 0.9771(10) 0.4775(8)
O10D O 0.4534(5) 0.8721(7) 0.4536(7)
O10C O 0.4534(5) 0.6279(7) 0.4536(7)
O12B O 0.2328(7) 0.7500 1.0567(8)
H3G H 0.7470 0.6939 0.4044
H3B H 0.2470 0.6939 1.0956
H3E H 0.2470 0.8061 1.0956
O13G O 0.3418(9) 0.6205(12) 0.6991(10)
H4G H 0.3929 0.6050 0.7103
H5G H 0.3255 0.5949 0.6403
O14G O 0.2704(5) 0.5426(8) 0.9030(7)
H6G H 0.2219 0.5306 0.9278
H7G H 0.3018 0.4841 0.9096
O15 O 0.6554(16) 0.2500 0.7075(19)
H8 H 0.6719 0.3092 0.6743
H8G H 0.6719 0.1908 0.6743
O16 O 0.2853(7) 0.9291(10) 0.1795(9)
H9 H 0.3269 0.9646 0.1537
H10 H 0.2794 0.9431 0.2441
loop_
_geom_bond_atom_site_label_1
_geom_bond_atom_site_label_2
_geom_bond_site_symmetry_1
_geom_bond_site_symmetry_2
Gd1 O1 1_555 1_555
Gd2 O3 1_555 1_555
Sr1 O4 1_555 1_555
O1 C1 1_555 1_555
O2 Gd1 1_555 1_555
O3 C2 1_555 1_555
O4 Gd2 1_555 1_555
O5 Gd2 1_555 1_555
O6 C4 1_555 1_555
O7 C3 1_555 1_555
O8 Gd1 1_555 1_555
O9 Gd1 1_555 1_555
C1 O4 1_555 1_555
C2 O2 1_555 1_555
C3 O5 1_555 1_555
C4 O9 1_555 1_555
C5 O8 1_555 1_555
O10 C5 1_555 1_555
O11 Gd2 1_555 1_555
H1 O11 1_555 1_555
H2 O11 1_555 1_555
O12 Gd1 1_555 1_555
H3 O12 1_555 1_555
O13 Sr1 1_555 1_555
H4 O13 1_555 1_555
H5 O13 1_555 1_555
O14 Sr1 1_555 1_555
H6 O14 1_555 1_555
H7 O14 1_555 1_555
O15 H8 1_555 1_555
O16 H9 1_555 1_555
H10 O16 1_555 1_555
Gd1C O10 1_555 1_555
Gd2_2 O6 1_555 1_555
Gd2C O7 1_555 1_555
Sr1B O2 1_555 1_555
Sr1C O5D 1_555 1_555
O2B Sr1 1_555 1_555
O5D Gd2C 1_555 1_555
O5G Gd2 1_555 1_555
O6G Gd2_2 1_555 1_555
O6_2 Gd2 1_555 1_555
O6G_2 Gd2 1_555 1_555
O7D Gd2 1_555 1_555
O7C Gd2 1_555 1_555
O8D Gd1C 1_555 1_555
O8G Gd1 1_555 1_555
O9G Gd1 1_555 1_555
C3D C3 1_555 1_555
C4G C4 1_555 1_555
C5D C5 1_555 1_555
O10D Gd1 1_555 1_555
O10C Gd1 1_555 1_555
O12B Sr1 1_555 1_555
H3G O12 1_555 1_555
H3B O12B 1_555 1_555
H3E O12B 1_555 1_555
O13G Sr1 1_555 1_555
H4G O13G 1_555 1_555
H5G O13G 1_555 1_555
O14G Sr1 1_555 1_555
H6G O14G 1_555 1_555
H7G O14G 1_555 1_555
H8G O15 1_555 1_555
Sr1 O5 1_555 1_555
Sr1 O5G 1_555 1_555
C1 C2 1_555 1_555
O12 Sr1B 1_555 1_555
O5D C3D 1_555 1_555
O6G C4G 1_555 1_555
O7D C3D 1_555 1_555
O8D C5D 1_555 1_555
O9G C4G 1_555 1_555
C5D O10D 1_555 1_555

#END
