
#######################################################################
#
#                 Cambridge Crystallographic Data Centre
#                                CCDC 
#
#######################################################################
#
# If this CIF has been generated from an entry in the Cambridge 
# Structural Database, then it will include bibliographic, chemical, 
# crystal, experimental, refinement or atomic coordinate data resulting 
# from the CCDC's data processing and validation procedures.
#
#######################################################################

data_AQAMIO01
_symmetry_cell_setting           monoclinic
_symmetry_space_group_name_H-M   'P 21/c'
_symmetry_Int_Tables_number      14
_space_group_name_Hall           '-P 2ybc'
loop_
_symmetry_equiv_pos_site_id
_symmetry_equiv_pos_as_xyz
1 x,y,z
2 -x,1/2+y,1/2-z
3 -x,-y,-z
4 x,1/2-y,1/2+z
_cell_length_a                   16.942(4)
_cell_length_b                   5.461(2)
_cell_length_c                   18.001(5)
_cell_angle_alpha                90
_cell_angle_beta                 106.246(4)
_cell_angle_gamma                90
_cell_volume                     1598.95
loop_
_atom_site_label
_atom_site_type_symbol
_atom_site_fract_x
_atom_site_fract_y
_atom_site_fract_z
Co1 Co 1.5000 -0.5000 1.5000
Co2 Co 1.0000 0.0000 1.0000
O1 O 1.1642(1) 0.0600(4) 1.1546(1)
O2 O 1.0983(1) -0.2089(3) 1.0650(1)
O3 O 1.6008(1) -0.7326(3) 1.5046(1)
O4 O 1.6804(1) -0.4877(4) 1.4567(1)
O5 O 1.4425(1) -0.7894(3) 1.5376(1)
O6 O 0.9581(1) -0.3103(3) 0.9287(1)
N1 N 1.4452(1) -0.5893(4) 1.3763(1)
N2 N 1.9294(1) -1.3928(4) 1.5795(1)
C1 C 1.3860(2) -0.4402(5) 1.3351(2)
C2 C 1.3421(2) -0.4817(5) 1.2579(2)
C3 C 1.3623(2) -0.6853(5) 1.2213(2)
C4 C 1.4254(2) -0.8341(5) 1.2628(2)
C5 C 1.4642(2) -0.7840(5) 1.3394(2)
C6 C 1.2774(2) -0.3061(5) 1.2215(2)
C7 C 1.2191(2) -0.3371(5) 1.1560(1)
C8 C 1.1568(1) -0.1451(5) 1.1241(1)
C9 C 1.8634(2) -1.2516(5) 1.5566(1)
C10 C 1.8149(2) -1.1798(5) 1.6036(2)
C11 C 1.8356(2) -1.2706(6) 1.6782(2)
C12 C 1.9043(2) -1.4179(7) 1.7034(2)
C13 C 1.9489(2) -1.4716(6) 1.6526(2)
C14 C 1.7436(2) -1.0164(5) 1.5733(2)
C15 C 1.7411(2) -0.8382(5) 1.5235(2)
C16 C 1.6690(2) -0.6739(5) 1.4919(1)
H1 H 1.3783 -0.2873 1.3654
H2 H 1.3347 -0.7345 1.1686
H3 H 1.4327 -0.9702 1.2347
H4 H 1.5068 -0.8942 1.3678
H5 H 1.2779 -0.1608 1.2524
H6 H 1.2094 -0.4600 1.1194
H7 H 1.8471 -1.2064 1.5060
H8 H 1.8072 -1.2146 1.7171
H9 H 1.9235 -1.4659 1.7574
H10 H 1.9957 -1.5582 1.6702
H11 H 1.6937 -1.0557 1.5944
H12 H 1.7804 -0.8266 1.4898
H13 H 1.4248 -0.9104 1.5134
H14 H 1.3978 -0.7177 1.5498
H15 H 0.9219 -0.4240 0.9413
H16 H 0.9761 -0.3350 0.8833
Co2C Co 2.0000 -1.5000 1.5000
Co2C_2 Co 1.0000 0.5000 1.5000
Co2_2 Co 2.0000 -1.0000 2.0000
O1B O 1.8358(1) -1.0600(4) 1.8454(1)
O2B O 1.9017(1) -0.7911(3) 1.9350(1)
O2B_2 O 0.9017(1) 0.2089(3) 0.9350(1)
O3B O 1.3992(1) -0.2674(3) 1.4954(1)
O4B O 1.3196(1) -0.5123(4) 1.5433(1)
O5B O 1.5575(1) -0.2106(3) 1.4624(1)
O6B O 1.0419(1) 0.3103(3) 1.0713(1)
N1B N 1.5548(1) -0.4107(4) 1.6237(1)
N2B N 1.0706(1) 0.3928(4) 1.4205(1)
N2C N 0.9294(1) -0.1072(4) 1.0795(1)
N2A N 1.0706(1) 0.1072(4) 0.9205(1)
C1B C 1.6140(2) -0.5598(5) 1.6649(2)
C2B C 1.6579(2) -0.5183(5) 1.7421(2)
C3B C 1.6377(2) -0.3147(5) 1.7787(2)
C4B C 1.5746(2) -0.1659(5) 1.7372(2)
C5B C 1.5358(2) -0.2160(5) 1.6606(2)
C6B C 1.7226(2) -0.6939(5) 1.7785(2)
C7B C 1.7809(2) -0.6629(5) 1.8440(1)
C8B C 1.8432(1) -0.8549(5) 1.8759(1)
C9B C 1.1366(2) 0.2516(5) 1.4434(1)
C10B C 1.1851(2) 0.1798(5) 1.3964(2)
C11B C 1.1644(2) 0.2706(6) 1.3218(2)
C12B C 1.0957(2) 0.4179(7) 1.2966(2)
C13B C 1.0511(2) 0.4716(6) 1.3474(2)
C14B C 1.2564(2) 0.0164(5) 1.4267(2)
C15B C 1.2589(2) -0.1618(5) 1.4765(2)
C16B C 1.3310(2) -0.3261(5) 1.5081(1)
H1B H 1.6217 -0.7127 1.6346
H2B H 1.6653 -0.2655 1.8314
H3B H 1.5673 -0.0298 1.7653
H4B H 1.4932 -0.1058 1.6322
H5B H 1.7221 -0.8392 1.7476
H6B H 1.7906 -0.5400 1.8806
H7B H 1.1529 0.2064 1.4940
H8B H 1.1928 0.2146 1.2829
H9B H 1.0765 0.4659 1.2426
H10B H 1.0043 0.5582 1.3298
H11B H 1.3063 0.0557 1.4056
H12B H 1.2196 -0.1734 1.5102
H13B H 1.5752 -0.0896 1.4866
H14B H 1.6022 -0.2823 1.4502
H15B H 1.0781 0.4240 1.0587
H16B H 1.0239 0.3350 1.1167
loop_
_geom_bond_atom_site_label_1
_geom_bond_atom_site_label_2
_geom_bond_site_symmetry_1
_geom_bond_site_symmetry_2
Co1 O3 1_555 1_555
Co2 O2 1_555 1_555
O1 C8 1_555 1_555
O2 C8 1_555 1_555
O3 C16 1_555 1_555
O4 C16 1_555 1_555
O5 Co1 1_555 1_555
O6 Co2 1_555 1_555
N1 Co1 1_555 1_555
N2 C9 1_555 1_555
C1 N1 1_555 1_555
C2 C1 1_555 1_555
C3 C2 1_555 1_555
C4 C3 1_555 1_555
C5 N1 1_555 1_555
C6 C2 1_555 1_555
C7 C6 1_555 1_555
C8 C7 1_555 1_555
C9 C10 1_555 1_555
C10 C11 1_555 1_555
C11 C12 1_555 1_555
C12 C13 1_555 1_555
C13 N2 1_555 1_555
C14 C10 1_555 1_555
C15 C14 1_555 1_555
C16 C15 1_555 1_555
H1 C1 1_555 1_555
H2 C3 1_555 1_555
H3 C4 1_555 1_555
H4 C5 1_555 1_555
H5 C6 1_555 1_555
H6 C7 1_555 1_555
H7 C9 1_555 1_555
H8 C11 1_555 1_555
H9 C12 1_555 1_555
H10 C13 1_555 1_555
H11 C14 1_555 1_555
H12 C15 1_555 1_555
H13 O5 1_555 1_555
H14 O5 1_555 1_555
H15 O6 1_555 1_555
H16 O6 1_555 1_555
Co2C N2 1_555 1_555
Co2C_2 N2B 1_555 1_555
Co2_2 O2B 1_555 1_555
O1B C8B 1_555 1_555
O2B C8B 1_555 1_555
O2B_2 Co2 1_555 1_555
O3B Co1 1_555 1_555
O4B C16B 1_555 1_555
O5B Co1 1_555 1_555
O6B Co2 1_555 1_555
N1B Co1 1_555 1_555
N2B C9B 1_555 1_555
N2C Co2 1_555 1_555
N2A Co2 1_555 1_555
C1B N1B 1_555 1_555
C2B C1B 1_555 1_555
C3B C2B 1_555 1_555
C4B C3B 1_555 1_555
C5B N1B 1_555 1_555
C6B C2B 1_555 1_555
C7B C6B 1_555 1_555
C8B C7B 1_555 1_555
C9B C10B 1_555 1_555
C10B C11B 1_555 1_555
C11B C12B 1_555 1_555
C12B C13B 1_555 1_555
C13B N2B 1_555 1_555
C14B C10B 1_555 1_555
C15B C14B 1_555 1_555
C16B O3B 1_555 1_555
H1B C1B 1_555 1_555
H2B C3B 1_555 1_555
H3B C4B 1_555 1_555
H4B C5B 1_555 1_555
H5B C6B 1_555 1_555
H6B C7B 1_555 1_555
H7B C9B 1_555 1_555
H8B C11B 1_555 1_555
H9B C12B 1_555 1_555
H10B C13B 1_555 1_555
H11B C14B 1_555 1_555
H12B C15B 1_555 1_555
H13B O5B 1_555 1_555
H14B O5B 1_555 1_555
H15B O6B 1_555 1_555
H16B O6B 1_555 1_555
C4 C5 1_555 1_555
C4B C5B 1_555 1_555
C15B C16B 1_555 1_555

#END
