
#######################################################################
#
#                 Cambridge Crystallographic Data Centre
#                                CCDC 
#
#######################################################################
#
# If this CIF has been generated from an entry in the Cambridge 
# Structural Database, then it will include bibliographic, chemical, 
# crystal, experimental, refinement or atomic coordinate data resulting 
# from the CCDC's data processing and validation procedures.
#
#######################################################################

data_AQAQAL
_symmetry_cell_setting           orthorhombic
_symmetry_space_group_name_H-M   'P n m a'
_symmetry_Int_Tables_number      62
_space_group_name_Hall           '-P 2ac 2n'
loop_
_symmetry_equiv_pos_site_id
_symmetry_equiv_pos_as_xyz
1 x,y,z
2 1/2-x,-y,1/2+z
3 1/2+x,1/2-y,1/2-z
4 -x,1/2+y,-z
5 -x,-y,-z
6 1/2+x,y,1/2-z
7 1/2-x,1/2+y,1/2+z
8 x,1/2-y,z
_cell_length_a                   14.829
_cell_length_b                   18.184
_cell_length_c                   9.493
_cell_angle_alpha                90
_cell_angle_beta                 90
_cell_angle_gamma                90
_cell_volume                     2559.79
loop_
_atom_site_label
_atom_site_type_symbol
_atom_site_fract_x
_atom_site_fract_y
_atom_site_fract_z
Zn1 Zn 0.98206(2) 0.2500 0.24482(4)
O1 O 0.90264(12) 0.2500 0.40716(19)
O2 O 1.01037(13) 0.2500 0.5696(2)
O3 O 0.61152(13) 0.2500 0.6713(2)
H1 H 0.5795 0.2500 0.7416
C1 C 0.76541(18) 0.2500 0.6060(3)
H2 H 0.7487 0.2500 0.5116
N1 N 1.15700(14) 0.42764(13) 0.2594(2)
C2 C 0.72443(19) 0.2500 0.8505(3)
H3 H 0.6800 0.2500 0.9197
C3 C 0.85677(17) 0.2500 0.6441(3)
C4 C 0.92985(18) 0.2500 0.5343(3)
C5 C 0.88007(18) 0.2500 0.7860(3)
H4 H 0.9405 0.2500 0.8119
C6 C 0.81395(19) 0.2500 0.8889(3)
N2 N 1.05889(13) 0.34031(12) 0.2236(2)
C7 C 0.70013(19) 0.2500 0.7109(3)
C8 C 1.34110(16) 0.42104(14) 0.1457(3)
H5 H 1.3120 0.3758 0.1498
C9 C 1.31084(17) 0.47821(15) 0.2265(3)
C10 C 1.1090(2) 0.4469(2) 0.1440(4)
H6 H 1.1161 0.4893 0.0903
C11 C 1.12505(16) 0.36371(15) 0.3034(3)
H7 H 1.1469 0.3384 0.3814
C12 C 1.2307(2) 0.46896(19) 0.3242(3)
H8 H 1.2502 0.4436 0.4088
H9 H 1.2088 0.5171 0.3516
C13 C 1.46065(13) 0.49595(12) 0.0483(3)
O4 O 0.78115(19) 0.2500 1.1317(3)
C14 C 0.8395(2) 0.2500 1.0429(3)
C15 C 1.42892(18) 0.55272(14) 0.1311(3)
H10 H 1.4582 0.5979 0.1281
C16 C 1.35478(19) 0.54435(15) 0.2185(3)
H11 H 1.3347 0.5839 0.2720
C17 C 1.41463(15) 0.43014(12) 0.0581(3)
H12 H 1.4338 0.3906 0.0038
C18 C 1.0497(2) 0.3930(2) 0.1223(3)
H13 H 1.0081 0.3916 0.0490
O5 O 0.91991(15) 0.2500 1.0688(2)
Zn1_2 Zn 0.98206(2) 0.2500 1.24482(4)
Zn1C Zn 2.01794(2) 0.7500 -0.24482(4)
N1D N 1.84300(14) 0.57236(13) -0.2594(2)
N2D N 1.94111(13) 0.65969(12) -0.2236(2)
N2G N 1.05889(13) 0.15969(12) 0.2236(2)
C8D C 1.65890(16) 0.57896(14) -0.1457(3)
H5D H 1.6880 0.6242 -0.1498
C9D C 1.68916(17) 0.52179(15) -0.2265(3)
C10D C 1.8910(2) 0.5531(2) -0.1440(4)
H6D H 1.8839 0.5107 -0.0903
C11D C 1.87495(16) 0.63629(15) -0.3034(3)
H7D H 1.8531 0.6616 -0.3814
C12D C 1.7693(2) 0.53104(19) -0.3242(3)
H8D H 1.7498 0.5564 -0.4088
H9D H 1.7912 0.4829 -0.3516
C13D C 1.53935(13) 0.50405(12) -0.0483(3)
C15D C 1.57108(18) 0.44728(14) -0.1311(3)
H10D H 1.5418 0.4021 -0.1281
C16D C 1.64522(19) 0.45565(15) -0.2185(3)
H11D H 1.6653 0.4161 -0.2720
C17D C 1.58537(15) 0.56986(12) -0.0581(3)
H12D H 1.5662 0.6094 -0.0038
C18D C 1.9503(2) 0.6070(2) -0.1223(3)
H13D H 1.9919 0.6084 -0.0490
O5_2 O 0.91991(15) 0.2500 0.0688(2)
loop_
_geom_bond_atom_site_label_1
_geom_bond_atom_site_label_2
_geom_bond_site_symmetry_1
_geom_bond_site_symmetry_2
Zn1 O1 1_555 1_555
O1 C4 1_555 1_555
O2 C4 1_555 1_555
O3 H1 1_555 1_555
C1 H2 1_555 1_555
N1 C10 1_555 1_555
C2 H3 1_555 1_555
C3 C1 1_555 1_555
C4 C3 1_555 1_555
C5 C3 1_555 1_555
H4 C5 1_555 1_555
C6 C2 1_555 1_555
N2 Zn1 1_555 1_555
C7 O3 1_555 1_555
C8 H5 1_555 1_555
C9 C8 1_555 1_555
C10 H6 1_555 1_555
C11 N1 1_555 1_555
H7 C11 1_555 1_555
C12 N1 1_555 1_555
H8 C12 1_555 1_555
H9 C12 1_555 1_555
C13 C15 1_555 1_555
O4 C14 1_555 1_555
C14 C6 1_555 1_555
C15 H10 1_555 1_555
C16 C9 1_555 1_555
H11 C16 1_555 1_555
C17 C8 1_555 1_555
H12 C17 1_555 1_555
C18 N2 1_555 1_555
H13 C18 1_555 1_555
O5 C14 1_555 1_555
Zn1_2 O5 1_555 1_555
Zn1C N2D 1_555 1_555
N1D C10D 1_555 1_555
N2D C11D 1_555 1_555
N2G Zn1 1_555 1_555
C8D H5D 1_555 1_555
C9D C8D 1_555 1_555
C10D H6D 1_555 1_555
C11D N1D 1_555 1_555
H7D C11D 1_555 1_555
C12D N1D 1_555 1_555
H8D C12D 1_555 1_555
H9D C12D 1_555 1_555
C13D C13 1_555 1_555
C15D C13D 1_555 1_555
H10D C15D 1_555 1_555
C16D C9D 1_555 1_555
H11D C16D 1_555 1_555
C17D C8D 1_555 1_555
H12D C17D 1_555 1_555
C18D N2D 1_555 1_555
H13D C18D 1_555 1_555
O5_2 Zn1 1_555 1_555
C1 C7 1_555 1_555
C2 C7 1_555 1_555
C5 C6 1_555 1_555
N2 C11 1_555 1_555
C9 C12 1_555 1_555
C10 C18 1_555 1_555
C13 C17 1_555 1_555
C15 C16 1_555 1_555
C9D C12D 1_555 1_555
C10D C18D 1_555 1_555
C13D C17D 1_555 1_555
C15D C16D 1_555 1_555

#END
