
#######################################################################
#
#                 Cambridge Crystallographic Data Centre
#                                CCDC 
#
#######################################################################
#
# If this CIF has been generated from an entry in the Cambridge 
# Structural Database, then it will include bibliographic, chemical, 
# crystal, experimental, refinement or atomic coordinate data resulting 
# from the CCDC's data processing and validation procedures.
#
#######################################################################

data_AQAVOD01
_symmetry_cell_setting           monoclinic
_symmetry_space_group_name_H-M   'P 21/m'
_symmetry_Int_Tables_number      11
_space_group_name_Hall           '-P 2yb'
loop_
_symmetry_equiv_pos_site_id
_symmetry_equiv_pos_as_xyz
1 x,y,z
2 -x,1/2+y,-z
3 -x,-y,-z
4 x,1/2-y,z
_cell_length_a                   8.2595(4)
_cell_length_b                   17.3531(8)
_cell_length_c                   9.9267(4)
_cell_angle_alpha                90
_cell_angle_beta                 103.2310(10)
_cell_angle_gamma                90
_cell_volume                     1385.01
loop_
_atom_site_label
_atom_site_type_symbol
_atom_site_fract_x
_atom_site_fract_y
_atom_site_fract_z
C1 C 0.9046(4) 0.7500 0.9999(4)
C2 C 0.7795(4) 0.7500 1.0736(4)
H1 H 0.8082 0.7500 1.1698
C3 C 0.6139(4) 0.7500 1.0056(4)
H2 H 0.5331 0.7500 1.0573
C4 C 0.5645(4) 0.7500 0.8621(3)
C5 C 0.6902(4) 0.7500 0.7886(4)
H3 H 0.6610 0.7500 0.6924
C6 C 0.8556(4) 0.7500 0.8547(4)
H4 H 0.9361 0.7500 0.8027
C7 C 0.3820(4) 0.7500 0.7909(3)
N1 N 1.0689(4) 0.7500 1.0676(4)
O1 O 0.3438(3) 0.7500 0.6599(3)
O2 O 0.2780(3) 0.7500 0.8655(2)
H13 H 1.099(5) 0.7500 1.155(2)
H14 H 1.143(4) 0.7500 1.021(4)
C8 C 0.6051(3) 0.95341(14) 0.7979(2)
H5 H 0.5907 0.9099 0.7417
C9 C 0.7206(3) 0.95076(14) 0.9219(2)
H6 H 0.7822 0.9061 0.9477
C10 C 0.7458(3) 1.01485(13) 1.0091(2)
C11 C 0.6492(3) 1.07948(14) 0.9627(2)
H7 H 0.6611 1.1238 1.0166
C12 C 0.5365(3) 1.07780(14) 0.8371(2)
H8 H 0.4739 1.1218 0.8082
C13 C 1.0736(3) 0.94885(15) 1.3175(2)
H9 H 1.1264 0.9031 1.3512
C14 C 0.9522(3) 0.94648(14) 1.1975(2)
H10 H 0.9241 0.8998 1.1523
C15 C 0.8700(3) 1.01438(13) 1.1424(2)
C16 C 0.9155(3) 1.08119(14) 1.2193(2)
H11 H 0.8627 1.1276 1.1897
C17 C 1.0384(3) 1.07876(14) 1.3392(2)
H12 H 1.0664 1.1243 1.3883
N2 N 0.5122(2) 1.01603(11) 0.7543(2)
N3 N 1.1201(2) 1.01423(11) 1.3889(2)
O3 O 0.4203(2) 0.87162(10) 0.50869(19)
Ag1 Ag 0.32721(2) 1.014048(12) 0.563502(18)
H15 H 0.400(4) 0.8367(16) 0.562(3)
H16 H 0.448(4) 0.8492(18) 0.443(2)
N3_2 N 0.1201(2) 1.01423(11) 0.3889(2)
Ag1_2 Ag 1.32721(2) 1.014048(12) 1.563502(18)
N4 N 0.6731(4) 0.7500 0.3860(3)
O5 O 0.5190(3) 0.7500 0.3396(3)
O6 O 0.7501(3) 0.68814(12) 0.4064(2)
O6C O 0.7501(3) 0.81186(12) 0.4064(2)
O4 O 0.0951(4) 0.7500 0.3901(3)
H17 H 0.154(4) 0.7500 0.472(3)
H18 H -0.004(3) 0.7500 0.404(4)
loop_
_geom_bond_atom_site_label_1
_geom_bond_atom_site_label_2
_geom_bond_site_symmetry_1
_geom_bond_site_symmetry_2
C1 C2 1_555 1_555
C2 H1 1_555 1_555
C3 C2 1_555 1_555
H2 C3 1_555 1_555
C4 C3 1_555 1_555
C5 C4 1_555 1_555
H3 C5 1_555 1_555
C6 C1 1_555 1_555
H4 C6 1_555 1_555
C7 C4 1_555 1_555
C8 H5 1_555 1_555
C9 C8 1_555 1_555
H6 C9 1_555 1_555
C10 C9 1_555 1_555
C11 C10 1_555 1_555
H7 C11 1_555 1_555
C12 C11 1_555 1_555
H8 C12 1_555 1_555
C13 H9 1_555 1_555
C14 C13 1_555 1_555
H10 C14 1_555 1_555
C15 C10 1_555 1_555
C16 C15 1_555 1_555
H11 C16 1_555 1_555
C17 C16 1_555 1_555
H12 C17 1_555 1_555
N1 C1 1_555 1_555
N2 C8 1_555 1_555
N3 C13 1_555 1_555
N4 O5 1_555 1_555
O1 C7 1_555 1_555
O2 C7 1_555 1_555
O3 Ag1 1_555 1_555
O4 H17 1_555 1_555
O6 N4 1_555 1_555
Ag1 N2 1_555 1_555
H13 N1 1_555 1_555
H14 N1 1_555 1_555
H15 O3 1_555 1_555
H16 O3 1_555 1_555
H18 O4 1_555 1_555
N3_2 Ag1 1_555 1_555
O6C N4 1_555 1_555
Ag1_2 N3 1_555 1_555
C5 C6 1_555 1_555
C12 N2 1_555 1_555
C14 C15 1_555 1_555
C17 N3 1_555 1_555

#END
