
#######################################################################
#
#                 Cambridge Crystallographic Data Centre
#                                CCDC 
#
#######################################################################
#
# If this CIF has been generated from an entry in the Cambridge 
# Structural Database, then it will include bibliographic, chemical, 
# crystal, experimental, refinement or atomic coordinate data resulting 
# from the CCDC's data processing and validation procedures.
#
#######################################################################

data_AQAWEU
_symmetry_cell_setting           monoclinic
_symmetry_space_group_name_H-M   'P 21/c'
_symmetry_Int_Tables_number      14
_space_group_name_Hall           '-P 2ybc'
loop_
_symmetry_equiv_pos_site_id
_symmetry_equiv_pos_as_xyz
1 x,y,z
2 x,1/2-y,1/2+z
3 -x,-y,-z
4 -x,1/2+y,1/2-z
_cell_length_a                   11.4328(11)
_cell_length_b                   14.4275(14)
_cell_length_c                   8.5782(9)
_cell_angle_alpha                90
_cell_angle_beta                 108.331(9)
_cell_angle_gamma                90
_cell_volume                     1343.15
loop_
_atom_site_label
_atom_site_type_symbol
_atom_site_fract_x
_atom_site_fract_y
_atom_site_fract_z
Mn1 Mn 0.0000 0.0000 0.0000
O1 O -0.92544(12) 0.12052(10) 0.46033(16)
O2 O -0.93026(12) 0.08764(9) 0.20397(16)
O3 O -0.55609(12) 0.02991(11) 0.09118(17)
O4 O -0.37575(13) 0.05846(12) 0.28000(18)
N1 N -0.67902(14) 0.08746(11) 0.29911(19)
N2 N 0.02234(15) -0.11317(11) 0.1478(2)
C1 C -0.73693(17) 0.12021(13) 0.4023(2)
C2 C -0.67529(18) 0.16508(14) 0.5482(2)
N3 N 0.17191(15) -0.00848(11) -0.02132(19)
C3 C -0.55621(17) 0.09793(13) 0.3437(2)
C4 C -0.87582(17) 0.10775(12) 0.3533(2)
C5 C -0.48855(18) 0.05926(14) 0.2317(2)
C6 C 0.21837(18) -0.16384(14) 0.1087(2)
C7 C 0.21810(19) -0.10321(13) -0.0366(2)
C8 C 0.09176(18) -0.19270(13) 0.1118(3)
C9 C -0.48887(19) 0.14232(15) 0.4876(2)
C10 C -0.17189(19) -0.05230(14) 0.1612(2)
C11 C -0.54937(19) 0.17699(16) 0.5912(3)
C12 C -0.10331(18) -0.14002(14) 0.1484(2)
H1 H -0.1004(19) 0.2373(14) -0.198(3)
H2 H -0.7200(19) 0.1888(14) 0.617(3)
H3 H -0.130(2) -0.0213(15) 0.258(3)
H4 H -0.1006(18) -0.1784(14) 0.239(3)
H5 H -0.143(2) -0.1737(16) 0.048(3)
H6 H -0.2634(19) 0.2209(15) -0.103(2)
H7 H -0.255(2) -0.0634(15) 0.164(2)
H8 H -0.408(2) 0.1487(16) 0.508(3)
H9 H -0.1613(17) 0.1308(13) 0.136(2)
H10 H -0.044(2) 0.2187(15) -0.007(3)
H11 H -0.265(2) 0.1309(15) -0.213(3)
H12 H -0.221(2) -0.0134(17) -0.060(3)
H13 H -0.505(2) 0.2111(15) 0.687(3)
H14 H 0.068(2) -0.0914(15) 0.242(3)
H15 H -0.2995(19) 0.0978(14) 0.045(2)
H18 H -0.5000 0.0000 0.0000
O3B O -0.44391(12) -0.02991(11) -0.09118(17)
C5B C -0.51145(18) -0.05926(14) -0.2317(2)
O4B O -0.62425(13) -0.05846(12) -0.28000(18)
C3B C -0.44379(17) -0.09793(13) -0.3437(2)
N1B N -0.32098(14) -0.08746(11) -0.29911(19)
C1B C -0.26307(17) -0.12021(13) -0.4023(2)
C2B C -0.32471(18) -0.16508(14) -0.5482(2)
C11B C -0.45063(19) -0.17699(16) -0.5912(3)
C9B C -0.51113(19) -0.14232(15) -0.4876(2)
H8B H -0.592(2) -0.1487(16) -0.508(3)
H13B H -0.495(2) -0.2111(15) -0.687(3)
H2B H -0.2800(19) -0.1888(14) -0.617(3)
C4B C -0.12418(17) -0.10775(12) -0.3533(2)
O1B O -0.07456(12) -0.12052(10) -0.46033(16)
O2B O -0.06974(12) -0.08764(9) -0.20397(16)
Mn1_2 Mn -1.0000 0.0000 0.0000
O2_2 O 0.06974(12) 0.08764(9) 0.20397(16)
N2B N -0.02234(15) 0.11317(11) -0.1478(2)
C8B C -0.09176(18) 0.19270(13) -0.1118(3)
C6B C -0.21837(18) 0.16384(14) -0.1087(2)
C7B C -0.21810(19) 0.10321(13) 0.0366(2)
N3B N -0.17191(15) 0.00848(11) 0.02132(19)
C12B C 0.10331(18) 0.14002(14) -0.1484(2)
C10B C 0.17189(19) 0.05230(14) -0.1612(2)
H12B H 0.221(2) 0.0134(17) 0.060(3)
H3B H 0.130(2) 0.0213(15) -0.258(3)
H7B H 0.255(2) 0.0634(15) -0.164(2)
H4B H 0.1006(18) 0.1784(14) -0.239(3)
H5B H 0.143(2) 0.1737(16) -0.048(3)
H14B H -0.068(2) 0.0914(15) -0.242(3)
H9B H 0.1613(17) -0.1308(13) -0.136(2)
H15B H 0.2995(19) -0.0978(14) -0.045(2)
H6B H 0.2634(19) -0.2209(15) 0.103(2)
H11B H 0.265(2) -0.1309(15) 0.213(3)
H1B H 0.1004(19) -0.2373(14) 0.198(3)
H10B H 0.044(2) -0.2187(15) 0.007(3)
O5 O -1.15226(15) 0.10767(10) 0.51457(17)
H16 H -1.220(3) 0.090(2) 0.437(4)
H17 H -1.097(3) 0.1099(18) 0.484(3)
loop_
_geom_bond_atom_site_label_1
_geom_bond_atom_site_label_2
_geom_bond_site_symmetry_1
_geom_bond_site_symmetry_2
Mn1 N2 1_555 1_555
O1 C4 1_555 1_555
O2 C4 1_555 1_555
O3 C5 1_555 1_555
O4 C5 1_555 1_555
N1 C1 1_555 1_555
N2 C8 1_555 1_555
C1 C2 1_555 1_555
C2 C11 1_555 1_555
N3 Mn1 1_555 1_555
C3 N1 1_555 1_555
C4 C1 1_555 1_555
C5 C3 1_555 1_555
C6 C7 1_555 1_555
C7 N3 1_555 1_555
C8 C6 1_555 1_555
C9 C3 1_555 1_555
C10 C12 1_555 1_555
C11 C9 1_555 1_555
C12 N2 1_555 1_555
O5 H16 1_555 1_555
H1 C8B 1_555 1_555
H2 C2 1_555 1_555
H3 C10 1_555 1_555
H4 C12 1_555 1_555
H5 C12 1_555 1_555
H6 C6B 1_555 1_555
H7 C10 1_555 1_555
H8 C9 1_555 1_555
H9 C7B 1_555 1_555
H10 C8B 1_555 1_555
H11 C6B 1_555 1_555
H12 N3B 1_555 1_555
H13 C11 1_555 1_555
H14 N2 1_555 1_555
H15 C7B 1_555 1_555
H17 O5 1_555 1_555
H18 O3 1_555 1_555
O3B H18 1_555 1_555
C5B O3B 1_555 1_555
O4B C5B 1_555 1_555
C3B C5B 1_555 1_555
N1B C3B 1_555 1_555
C1B N1B 1_555 1_555
C2B C1B 1_555 1_555
C11B C2B 1_555 1_555
C9B C3B 1_555 1_555
H8B C9B 1_555 1_555
H13B C11B 1_555 1_555
H2B C2B 1_555 1_555
C4B C1B 1_555 1_555
O1B C4B 1_555 1_555
O2B Mn1 1_555 1_555
Mn1_2 O2 1_555 1_555
O2_2 Mn1 1_555 1_555
N2B Mn1 1_555 1_555
C8B N2B 1_555 1_555
C6B C8B 1_555 1_555
C7B C6B 1_555 1_555
N3B Mn1 1_555 1_555
C12B N2B 1_555 1_555
C10B N3 1_555 1_555
H12B N3 1_555 1_555
H3B C10B 1_555 1_555
H7B C10B 1_555 1_555
H4B C12B 1_555 1_555
H5B C12B 1_555 1_555
H14B N2B 1_555 1_555
H9B C7 1_555 1_555
H15B C7 1_555 1_555
H6B C6 1_555 1_555
H11B C6 1_555 1_555
H1B C8 1_555 1_555
H10B C8 1_555 1_555
C10 N3B 1_555 1_555
C11B C9B 1_555 1_555
C4B O2B 1_555 1_555
C7B N3B 1_555 1_555
C12B C10B 1_555 1_555

#END
