
#######################################################################
#
#                 Cambridge Crystallographic Data Centre
#                                CCDC 
#
#######################################################################
#
# If this CIF has been generated from an entry in the Cambridge 
# Structural Database, then it will include bibliographic, chemical, 
# crystal, experimental, refinement or atomic coordinate data resulting 
# from the CCDC's data processing and validation procedures.
#
#######################################################################

data_AQAZUN
_symmetry_cell_setting           triclinic
_symmetry_space_group_name_H-M   'P -1'
_symmetry_Int_Tables_number      2
_space_group_name_Hall           '-P 1'
loop_
_symmetry_equiv_pos_site_id
_symmetry_equiv_pos_as_xyz
1 x,y,z
2 -x,-y,-z
_cell_length_a                   6.227(1)
_cell_length_b                   8.715(2)
_cell_length_c                   11.106(2)
_cell_angle_alpha                69.86(1)
_cell_angle_beta                 83.45(1)
_cell_angle_gamma                72.33(1)
_cell_volume                     539.124
loop_
_atom_site_label
_atom_site_type_symbol
_atom_site_fract_x
_atom_site_fract_y
_atom_site_fract_z
Co1 Co 0.48774(15) 0.14808(11) 0.68092(9)
Co2 Co 0.5000 0.5000 1.0000
O1 O 0.6256(9) 0.1086(6) 0.8579(6)
O2 O 0.3232(8) 0.3792(6) 0.7099(5)
O3 O 0.6309(8) 0.2512(6) 0.9867(5)
O4 O 0.3354(9) 0.5269(6) 0.8348(5)
O5 O 0.6619(9) -0.0755(7) 0.6375(5)
O6 O 0.3307(9) 0.1943(6) 0.5103(5)
O7 O 0.2446(11) 0.0308(8) 0.7818(6)
O8 O 0.7459(13) 0.2409(10) 0.5861(7)
O9 O 0.7632(11) 0.5615(8) 0.8922(5)
C1 C 0.5666(11) 0.2367(8) 0.8930(7)
C2 C 0.3915(10) 0.3957(8) 0.8043(6)
C3 C 0.5964(11) -0.0783(8) 0.5368(7)
H1 H 0.2536 -0.0191 0.8609
H2 H 0.1957 -0.0338 0.7563
H3 H 0.8369 0.2033 0.5325
H4 H 0.7764 0.3301 0.5869
H5 H 0.8334 0.6178 0.9056
H6 H 0.7955 0.5589 0.8205
O3A O 0.3691(8) 0.7488(6) 1.0133(5)
C1A C 0.4334(11) 0.7633(8) 1.1070(7)
O1A O 0.3744(9) 0.8914(6) 1.1421(6)
Co1A Co 0.51226(15) 0.85192(11) 1.31908(9)
O2A O 0.6768(8) 0.6208(6) 1.2901(5)
C2A C 0.6085(10) 0.6043(8) 1.1957(6)
O4A O 0.6646(9) 0.4731(6) 1.1652(5)
O6A O 0.6693(9) -0.1943(6) 0.4897(5)
Co1A_2 Co 0.51226(15) -0.14808(11) 0.31908(9)
O1A_2 O 0.3744(9) -0.1086(6) 0.1421(6)
O2A_2 O 0.6768(8) -0.3792(6) 0.2901(5)
O5A O 0.3381(9) 0.0755(7) 0.3625(5)
C3A C 0.4036(11) 0.0783(8) 0.4632(7)
O7A O 0.7554(11) -0.0308(8) 0.2182(6)
H1A H 0.7464 0.0191 0.1391
H2A H 0.8043 0.0338 0.2437
O8A O 0.2541(13) -0.2409(10) 0.4139(7)
H3A H 0.1631 -0.2033 0.4675
H4A H 0.2236 -0.3301 0.4131
O9A O 0.2368(11) 0.4385(8) 1.1078(5)
H5A H 0.1666 0.3822 1.0944
H6A H 0.2045 0.4411 1.1795
O10 O 0.8621(9) 0.1693(8) 0.3529(6)
H7 H 0.9924 0.1523 0.3448
H8 H 0.8075 0.2546 0.2978
O11 O 0.8894(11) 0.7825(8) 0.9606(9)
H9 H 0.9956 0.7908 0.9932
H10 H 0.7959 0.8757 0.9440
O12 O 0.8580(9) 0.4829(7) 0.6582(6)
H11 H 1.0121 0.4702 0.6592
H12 H 0.7907 0.5960 0.6084
loop_
_geom_bond_atom_site_label_1
_geom_bond_atom_site_label_2
_geom_bond_site_symmetry_1
_geom_bond_site_symmetry_2
Co1 O1 1_555 1_555
Co2 O3 1_555 1_555
O1 C1 1_555 1_555
O2 Co1 1_555 1_555
O3 C1 1_555 1_555
O4 Co2 1_555 1_555
O5 Co1 1_555 1_555
O6 Co1 1_555 1_555
O7 Co1 1_555 1_555
O8 Co1 1_555 1_555
O9 Co2 1_555 1_555
O10 H7 1_555 1_555
O11 H9 1_555 1_555
O12 H11 1_555 1_555
C1 C2 1_555 1_555
C2 O2 1_555 1_555
C3 O5 1_555 1_555
H1 O7 1_555 1_555
H2 O7 1_555 1_555
H3 O8 1_555 1_555
H4 O8 1_555 1_555
H5 O9 1_555 1_555
H6 O9 1_555 1_555
H8 O10 1_555 1_555
H10 O11 1_555 1_555
H12 O12 1_555 1_555
O3A Co2 1_555 1_555
C1A O3A 1_555 1_555
O1A C1A 1_555 1_555
Co1A O1A 1_555 1_555
O2A Co1A 1_555 1_555
C2A C1A 1_555 1_555
O4A Co2 1_555 1_555
O6A C3 1_555 1_555
Co1A_2 O6A 1_555 1_555
O1A_2 Co1A_2 1_555 1_555
O2A_2 Co1A_2 1_555 1_555
O5A Co1A_2 1_555 1_555
C3A O6 1_555 1_555
O7A Co1A_2 1_555 1_555
H1A O7A 1_555 1_555
H2A O7A 1_555 1_555
O8A Co1A_2 1_555 1_555
H3A O8A 1_555 1_555
H4A O8A 1_555 1_555
O9A Co2 1_555 1_555
H5A O9A 1_555 1_555
H6A O9A 1_555 1_555
O4 C2 1_555 1_555
C3 C3A 1_555 1_555
O2A C2A 1_555 1_555
C2A O4A 1_555 1_555
O5A C3A 1_555 1_555

#END
