
#######################################################################
#
#                 Cambridge Crystallographic Data Centre
#                                CCDC 
#
#######################################################################
#
# If this CIF has been generated from an entry in the Cambridge 
# Structural Database, then it will include bibliographic, chemical, 
# crystal, experimental, refinement or atomic coordinate data resulting 
# from the CCDC's data processing and validation procedures.
#
#######################################################################

data_AQEBII
_symmetry_cell_setting           monoclinic
_symmetry_space_group_name_H-M   'C 2/m'
_symmetry_Int_Tables_number      12
_space_group_name_Hall           '-C 2y'
loop_
_symmetry_equiv_pos_site_id
_symmetry_equiv_pos_as_xyz
1 x,y,z
2 -x,y,-z
3 1/2+x,1/2+y,z
4 1/2-x,1/2+y,-z
5 -x,-y,-z
6 x,-y,z
7 1/2-x,1/2-y,-z
8 1/2+x,1/2-y,z
_cell_length_a                   15.8754(9)
_cell_length_b                   6.5299(4)
_cell_length_c                   8.7428(4)
_cell_angle_alpha                90
_cell_angle_beta                 110.932(5)
_cell_angle_gamma                90
_cell_volume                     846.508
loop_
_atom_site_label
_atom_site_type_symbol
_atom_site_fract_x
_atom_site_fract_y
_atom_site_fract_z
S1 S 0.18138(3) 0.5000 0.32118(6)
Na1 Na 0.0000 0.21874(12) 0.0000
N1 N 0.34397(10) 0.5000 0.34426(19)
N2 N 0.34150(11) 0.5000 0.4961(2)
O1 O 0.09413(8) 0.5000 -0.00612(16)
O2 O 0.13332(9) 0.0000 0.1063(2)
O3 O 0.16418(9) 0.5000 -0.19032(16)
O4 O 0.00921(10) 0.0000 -0.22456(18)
N3 N 0.25005(10) 0.5000 0.07055(19)
N4 N 0.26319(12) 0.5000 0.5078(2)
C1 C 0.26156(12) 0.5000 0.2292(2)
C2 C 0.16466(12) 0.5000 -0.0367(2)
C3 C 0.07798(13) 0.5000 -0.3211(2)
H1 H 0.0868 0.5000 -0.4265
H2 H 0.0442 0.6225 -0.3131
H3 H 0.1596(19) 0.0000 0.048(4)
H4 H -0.0356(18) 0.0000 -0.302(3)
H5 H 0.173(2) 0.0000 0.198(4)
H6 H 0.0511(18) 0.0000 -0.263(3)
S1A S -0.18138(3) 0.5000 -0.32118(6)
Na1D Na 0.0000 -0.21874(12) 0.0000
Na1D_2 Na 0.0000 0.78126(12) 0.0000
N1A N -0.34397(10) 0.5000 -0.34426(19)
N2A N -0.34150(11) 0.5000 -0.4961(2)
O1A O -0.09413(8) 0.5000 0.00612(16)
O1_2 O 0.09413(8) -0.5000 -0.00612(16)
O1A_2 O -0.09413(8) -0.5000 0.00612(16)
O2A O -0.13332(9) 0.0000 -0.1063(2)
O3A O -0.16418(9) 0.5000 0.19032(16)
O4A O -0.00921(10) 0.0000 0.22456(18)
N3A N -0.25005(10) 0.5000 -0.07055(19)
N4A N -0.26319(12) 0.5000 -0.5078(2)
C1A C -0.26156(12) 0.5000 -0.2292(2)
C2A C -0.16466(12) 0.5000 0.0367(2)
C3A C -0.07798(13) 0.5000 0.3211(2)
H1A H -0.0868 0.5000 0.4265
H2E H 0.0442 0.3775 -0.3131
H2A H -0.0442 0.6225 0.3131
H2D H -0.0442 0.3775 0.3131
H3A H -0.1596(19) 0.0000 -0.048(4)
H4A H 0.0356(18) 0.0000 0.302(3)
H5A H -0.173(2) 0.0000 -0.198(4)
H6A H -0.0511(18) 0.0000 0.263(3)
loop_
_geom_bond_atom_site_label_1
_geom_bond_atom_site_label_2
_geom_bond_site_symmetry_1
_geom_bond_site_symmetry_2
S1 N4 1_555 1_555
Na1 O1 1_555 1_555
N1 N2 1_555 1_555
N2 N4 1_555 1_555
O1 C2 1_555 1_555
O2 Na1 1_555 1_555
O3 C2 1_555 1_555
O4 Na1 1_555 1_555
N3 C1 1_555 1_555
C1 S1 1_555 1_555
C2 N3 1_555 1_555
C3 O3 1_555 1_555
H1 C3 1_555 1_555
H2 C3 1_555 1_555
H3 O2 1_555 1_555
H4 O4 1_555 1_555
H5 O2 1_555 1_555
H6 O4 1_555 1_555
S1A N4A 1_555 1_555
Na1D O2 1_555 1_555
Na1D_2 O1 1_555 1_555
N1A N2A 1_555 1_555
N2A N4A 1_555 1_555
O1A Na1 1_555 1_555
O1_2 Na1D 1_555 1_555
O1A_2 Na1D 1_555 1_555
O2A Na1 1_555 1_555
O3A C2A 1_555 1_555
O4A Na1 1_555 1_555
N3A C1A 1_555 1_555
C1A S1A 1_555 1_555
C2A O1A 1_555 1_555
C3A O3A 1_555 1_555
H1A C3A 1_555 1_555
H2E C3 1_555 1_555
H2A C3A 1_555 1_555
H2D C3A 1_555 1_555
H3A O2A 1_555 1_555
H4A O4A 1_555 1_555
H5A O2A 1_555 1_555
H6A O4A 1_555 1_555
N1 C1 1_555 1_555
O4 Na1D 1_555 1_555
Na1D O2A 1_555 1_555
Na1D O4A 1_555 1_555
Na1D_2 O1A 1_555 1_555
N1A C1A 1_555 1_555
N3A C2A 1_555 1_555

#END
