
#######################################################################
#
#                 Cambridge Crystallographic Data Centre
#                                CCDC 
#
#######################################################################
#
# If this CIF has been generated from an entry in the Cambridge 
# Structural Database, then it will include bibliographic, chemical, 
# crystal, experimental, refinement or atomic coordinate data resulting 
# from the CCDC's data processing and validation procedures.
#
#######################################################################

data_AQEFUY
_symmetry_cell_setting           monoclinic
_symmetry_space_group_name_H-M   'C 2/c'
_symmetry_Int_Tables_number      15
_space_group_name_Hall           '-C 2yn'
loop_
_symmetry_equiv_pos_site_id
_symmetry_equiv_pos_as_xyz
1 x,y,z
2 -x,y,1/2-z
3 1/2+x,1/2+y,z
4 1/2-x,1/2+y,1/2-z
5 -x,-y,-z
6 x,-y,1/2+z
7 1/2-x,1/2-y,-z
8 1/2+x,1/2-y,1/2+z
_cell_length_a                   23.3533(7)
_cell_length_b                   20.5379(6)
_cell_length_c                   12.6226(3)
_cell_angle_alpha                90
_cell_angle_beta                 98.320(3)
_cell_angle_gamma                90
_cell_volume                     5990.43
loop_
_atom_site_label
_atom_site_type_symbol
_atom_site_fract_x
_atom_site_fract_y
_atom_site_fract_z
Ag1 Ag 0.5000 0.4130(2) 0.2500
Ag2 Ag 0.5000 0.0544(2) 0.2500
Ag3 Ag 0.26403(14) 0.07676(18) 0.5718(3)
Ag4 Ag 0.0000 0.1867(2) 0.2500
N1 N 0.0000 0.434(3) 0.2500
N2 N 0.5000 0.303(2) 0.2500
N3 N 0.0000 0.299(3) 0.2500
N4 N 0.4221(19) 0.042(2) 0.352(3)
N5 N 0.4984(13) 0.4674(15) 0.407(2)
N6 N 0.5000 0.170(2) 0.2500
N7 N 0.0823(14) 0.1548(18) 0.341(2)
N8 N 0.3370(15) 0.0490(16) 0.482(2)
N9 N 0.1853(14) 0.1162(16) 0.462(3)
C1 C 0.3902(14) 0.0664(17) 0.517(3)
H1 H 0.3990 0.0832 0.5854
C2 C 0.0269(17) 0.402(2) 0.181(3)
H2 H 0.0498 0.4235 0.1377
C3 C 0.1581(18) 0.077(2) 0.388(3)
H3 H 0.1725 0.0359 0.3773
C4 C 0.1666(17) 0.175(2) 0.471(3)
H4 H 0.1873 0.2039 0.5190
C5 C 0.4342(15) 0.061(2) 0.453(3)
H5 H 0.4722 0.0698 0.4824
C6 C 0.1124(18) 0.196(2) 0.406(3)
H6 H 0.0994 0.2380 0.4109
C7 C 0.369(2) 0.0240(18) 0.320(4)
H7 H 0.3596 0.0099 0.2495
C8 C 0.5496(16) 0.4761(18) 0.472(3)
H8 H 0.5838 0.4602 0.4526
C9 C 0.4751(16) 0.1999(19) 0.323(3)
H9 H 0.4577 0.1777 0.3740
C10 C 0.4767(15) 0.273(2) 0.318(3)
H10 H 0.4595 0.2968 0.3674
C11 C 0.1070(15) 0.0994(18) 0.325(3)
H11 H 0.0899 0.0730 0.2693
C12 C 0.326(2) 0.024(2) 0.381(3)
H12 H 0.2892 0.0085 0.3539
C13 C 0.0197(18) 0.3314(18) 0.174(3)
H13 H 0.0293 0.3094 0.1148
C14 C 0.4497(18) 0.4914(19) 0.432(3)
H14 H 0.4153 0.4863 0.3859
Ag1D Ag 0.5000 0.5870(2) 0.7500
Ag3A Ag 0.73597(14) 0.07676(18) -0.0718(3)
Ag4_2 Ag 1.0000 0.1867(2) 0.2500
N4A N 0.5779(19) 0.042(2) 0.148(3)
N5D N 0.5016(13) 0.5326(15) 0.593(2)
N5A N 0.5016(13) 0.4674(15) 0.093(2)
N7A N 0.9177(14) 0.1548(18) 0.159(2)
N7A_2 N -0.0823(14) 0.1548(18) 0.159(2)
N8A N 0.6630(15) 0.0490(16) 0.018(2)
N9A N 0.8147(14) 0.1162(16) 0.038(3)
C1A C 0.6098(14) 0.0664(17) -0.017(3)
H1A H 0.6010 0.0832 -0.0854
C2A C -0.0269(17) 0.402(2) 0.319(3)
H2A H -0.0498 0.4235 0.3623
C3A C 0.8419(18) 0.077(2) 0.112(3)
H3A H 0.8275 0.0359 0.1227
C4A C 0.8334(17) 0.175(2) 0.029(3)
H4A H 0.8127 0.2039 -0.0190
C5A C 0.5658(15) 0.061(2) 0.047(3)
H5A H 0.5278 0.0698 0.0176
C6A C 0.8876(18) 0.196(2) 0.094(3)
H6A H 0.9006 0.2380 0.0891
C7A C 0.631(2) 0.0240(18) 0.180(4)
H7A H 0.6404 0.0099 0.2505
C8D C 0.4504(16) 0.5239(18) 0.528(3)
H8D H 0.4162 0.5398 0.5474
C9A C 0.5249(16) 0.1999(19) 0.177(3)
H9A H 0.5423 0.1777 0.1260
C10A C 0.5233(15) 0.273(2) 0.182(3)
H10A H 0.5405 0.2968 0.1326
C11A C 0.8930(15) 0.0994(18) 0.175(3)
H11A H 0.9101 0.0730 0.2307
C12A C 0.674(2) 0.024(2) 0.119(3)
H12A H 0.7108 0.0085 0.1461
C13A C -0.0197(18) 0.3314(18) 0.326(3)
H13A H -0.0293 0.3094 0.3852
C14D C 0.5503(18) 0.5086(19) 0.568(3)
H14D H 0.5847 0.5137 0.6141
B1 B 0.2500 -0.2500 0.5000
W1 W 0.13516(5) -0.35897(6) 0.45214(11)
W2 W 0.11270(5) -0.20191(6) 0.54312(10)
W3 W 0.30724(5) -0.20875(7) 0.76197(8)
W4 W 0.19033(5) -0.31466(6) 0.71313(8)
W5 W 0.32663(5) -0.36552(5) 0.66827(9)
W6 W 0.22788(6) -0.09479(6) 0.59719(10)
O1 O 0.2625(13) -0.2762(16) 0.616(2)
O2 O 0.1156(14) -0.1638(16) 0.414(3)
O3 O 0.2399(14) -0.2544(16) 0.782(3)
O4 O 0.1950(12) -0.2721(14) 0.541(2)
O5 O 0.1567(13) -0.1316(14) 0.610(2)
O6 O 0.0946(14) -0.2812(15) 0.474(2)
O7 O 0.1337(14) -0.2504(15) 0.673(2)
O8 O 0.2766(13) -0.1943(15) 0.575(2)
O9 O 0.1365(14) -0.3292(17) 0.309(3)
O10 O 0.3421(12) -0.2882(14) 0.748(2)
O12 O 0.1547(15) -0.3674(15) 0.603(3)
O13 O 0.2972(13) -0.4198(15) 0.553(2)
O14 O 0.3664(12) -0.4219(13) 0.744(2)
O15 O 0.2546(13) -0.3706(15) 0.715(3)
O16 O 0.2598(14) -0.1354(17) 0.731(3)
O17 O 0.1974(14) -0.4134(16) 0.436(3)
O18 O 0.0464(11) -0.1798(14) 0.566(2)
O19 O 0.2181(11) -0.0196(13) 0.639(2)
O20 O 0.1634(10) -0.3477(11) 0.8190(19)
O21 O 0.0786(10) -0.4109(11) 0.432(2)
O22 O 0.3347(10) -0.1898(12) 0.888(2)
W1F W 0.36484(5) -0.14103(6) 0.54786(11)
W2F W 0.38730(5) -0.29809(6) 0.45688(10)
W3F W 0.19276(5) -0.29125(7) 0.23803(8)
W4F W 0.30967(5) -0.18534(6) 0.28687(8)
W5F W 0.17337(5) -0.13448(5) 0.33173(9)
W6F W 0.27212(6) -0.40521(6) 0.40281(10)
O1F O 0.2375(13) -0.2238(16) 0.384(2)
O2F O 0.3844(14) -0.3362(16) 0.586(3)
O3F O 0.2601(14) -0.2456(16) 0.218(3)
O4F O 0.3050(12) -0.2279(14) 0.459(2)
O5F O 0.3433(13) -0.3684(14) 0.390(2)
O6F O 0.4054(14) -0.2188(15) 0.526(2)
O7F O 0.3663(14) -0.2496(15) 0.327(2)
O8F O 0.2234(13) -0.3057(15) 0.425(2)
O9F O 0.3635(14) -0.1708(17) 0.691(3)
O10F O 0.1579(12) -0.2118(14) 0.252(2)
O12F O 0.3453(15) -0.1326(15) 0.397(3)
O13F O 0.2028(13) -0.0802(15) 0.447(2)
O14F O 0.1336(12) -0.0781(13) 0.256(2)
O15F O 0.2454(13) -0.1294(15) 0.285(3)
O16F O 0.2402(14) -0.3646(17) 0.269(3)
O17F O 0.3026(14) -0.0866(16) 0.564(3)
O18F O 0.4536(11) -0.3202(14) 0.434(2)
O19F O 0.2819(11) -0.4804(13) 0.361(2)
O20F O 0.3366(10) -0.1523(11) 0.1810(19)
O21F O 0.4214(10) -0.0891(11) 0.568(2)
O22F O 0.1653(10) -0.3102(12) 0.112(2)
O11? O 0.2093(14) -0.1935(16) 0.493(3)
loop_
_geom_bond_atom_site_label_1
_geom_bond_atom_site_label_2
_geom_bond_site_symmetry_1
_geom_bond_site_symmetry_2
B1 O1 1_555 1_555
W1 O4 1_555 1_555
W2 O2 1_555 1_555
W3 O1 1_555 1_555
W4 O1 1_555 1_555
W5 O1 1_555 1_555
W6 O5 1_555 1_555
Ag1 N2 1_555 1_555
Ag2 N4 1_555 1_555
Ag3 N8 1_555 1_555
Ag4 N3 1_555 1_555
N1 C2 1_555 1_555
N2 C10 1_555 1_555
N3 C13 1_555 1_555
N4 C5 1_555 1_555
N5 Ag1 1_555 1_555
N6 Ag2 1_555 1_555
N7 Ag4 1_555 1_555
N8 C1 1_555 1_555
N9 Ag3 1_555 1_555
O1 O4 1_555 1_555
O2 W5F 1_555 1_555
O3 W3 1_555 1_555
O4 B1 1_555 1_555
O5 W2 1_555 1_555
O6 W1 1_555 1_555
O7 W2 1_555 1_555
O8 B1 1_555 1_555
O9 W1 1_555 1_555
O10 W3 1_555 1_555
O12 W1 1_555 1_555
O13 W5 1_555 1_555
O14 W5 1_555 1_555
O15 W4 1_555 1_555
O16 W3 1_555 1_555
O17 W1 1_555 1_555
O18 W2 1_555 1_555
O19 W6 1_555 1_555
O20 W4 1_555 1_555
O21 W1 1_555 1_555
O22 W3 1_555 1_555
C1 H1 1_555 1_555
C2 H2 1_555 1_555
C3 N9 1_555 1_555
H3 C3 1_555 1_555
C4 N9 1_555 1_555
H4 C4 1_555 1_555
C5 C1 1_555 1_555
H5 C5 1_555 1_555
C6 N7 1_555 1_555
H6 C6 1_555 1_555
C7 N4 1_555 1_555
H7 C7 1_555 1_555
C8 N5 1_555 1_555
H8 C8 1_555 1_555
C9 N6 1_555 1_555
H9 C9 1_555 1_555
C10 C9 1_555 1_555
H10 C10 1_555 1_555
C11 N7 1_555 1_555
H11 C11 1_555 1_555
C12 N8 1_555 1_555
H12 C12 1_555 1_555
C13 C2 1_555 1_555
H13 C13 1_555 1_555
C14 N5 1_555 1_555
H14 C14 1_555 1_555
W1F O8 1_555 1_555
W2F O2F 1_555 1_555
W3F O9 1_555 1_555
W4F O1F 1_555 1_555
W5F O1F 1_555 1_555
W6F O13 1_555 1_555
Ag1D N5D 1_555 1_555
Ag3A N8A 1_555 1_555
Ag4_2 N7A 1_555 1_555
N4A Ag2 1_555 1_555
N5D C8D 1_555 1_555
N5A Ag1 1_555 1_555
N7A C6A 1_555 1_555
N7A_2 Ag4 1_555 1_555
N8A C1A 1_555 1_555
N9A Ag3A 1_555 1_555
O1F B1 1_555 1_555
O2F W5 1_555 1_555
O3F W3F 1_555 1_555
O4F B1 1_555 1_555
O5F W2F 1_555 1_555
O6F W1F 1_555 1_555
O7F W2F 1_555 1_555
O8F B1 1_555 1_555
O9F W3 1_555 1_555
O10F W3F 1_555 1_555
O12F W1F 1_555 1_555
O13F W6 1_555 1_555
O14F W5F 1_555 1_555
O15F W4F 1_555 1_555
O16F W3F 1_555 1_555
O17F W6 1_555 1_555
O18F W2F 1_555 1_555
O19F W6F 1_555 1_555
O20F W4F 1_555 1_555
O21F W1F 1_555 1_555
O22F W3F 1_555 1_555
C1A H1A 1_555 1_555
C2A N1 1_555 1_555
H2A C2A 1_555 1_555
C3A N9A 1_555 1_555
H3A C3A 1_555 1_555
C4A N9A 1_555 1_555
H4A C4A 1_555 1_555
C5A N4A 1_555 1_555
H5A C5A 1_555 1_555
C6A C4A 1_555 1_555
H6A C6A 1_555 1_555
C7A N4A 1_555 1_555
H7A C7A 1_555 1_555
C8D C14 1_555 1_555
H8D C8D 1_555 1_555
C9A N6 1_555 1_555
H9A C9A 1_555 1_555
C10A N2 1_555 1_555
H10A C10A 1_555 1_555
C11A N7A 1_555 1_555
H11A C11A 1_555 1_555
C12A N8A 1_555 1_555
H12A C12A 1_555 1_555
C13A N3 1_555 1_555
H13A C13A 1_555 1_555
C14D C8 1_555 1_555
H14D C14D 1_555 1_555
W1 O8F 1_555 1_555
W2 O4 1_555 1_555
W2 O6 1_555 1_555
W3 O8 1_555 1_555
W4 O3 1_555 1_555
W4 O4 1_555 1_555
W4 O7 1_555 1_555
W4 O12 1_555 1_555
W5 O10 1_555 1_555
W5 O15 1_555 1_555
W6 O8 1_555 1_555
W6 O16 1_555 1_555
O17 W6F 1_555 1_555
C3 C11 1_555 1_555
C4 C6 1_555 1_555
C7 C12 1_555 1_555
W1F O4F 1_555 1_555
W1F O9F 1_555 1_555
W1F O17F 1_555 1_555
W2F O4F 1_555 1_555
W2F O6F 1_555 1_555
W3F O1F 1_555 1_555
W3F O8F 1_555 1_555
W4F O3F 1_555 1_555
W4F O4F 1_555 1_555
W4F O7F 1_555 1_555
W4F O12F 1_555 1_555
W5F O10F 1_555 1_555
W5F O13F 1_555 1_555
W5F O15F 1_555 1_555
W6F O5F 1_555 1_555
W6F O8F 1_555 1_555
W6F O16F 1_555 1_555
N5D C14D 1_555 1_555
O1F O4F 1_555 1_555
C1A C5A 1_555 1_555
C2A C13A 1_555 1_555
C3A C11A 1_555 1_555
C7A C12A 1_555 1_555
C9A C10A 1_555 1_555

#END
