
#######################################################################
#
#                 Cambridge Crystallographic Data Centre
#                                CCDC 
#
#######################################################################
#
# If this CIF has been generated from an entry in the Cambridge 
# Structural Database, then it will include bibliographic, chemical, 
# crystal, experimental, refinement or atomic coordinate data resulting 
# from the CCDC's data processing and validation procedures.
#
#######################################################################

data_AQEKUD
_symmetry_cell_setting           monoclinic
_symmetry_space_group_name_H-M   'P 21/c'
_symmetry_Int_Tables_number      14
_space_group_name_Hall           '-P 2ybc'
loop_
_symmetry_equiv_pos_site_id
_symmetry_equiv_pos_as_xyz
1 x,y,z
2 -x,1/2+y,1/2-z
3 -x,-y,-z
4 x,1/2-y,1/2+z
_cell_length_a                   15.0940(18)
_cell_length_b                   8.2257(10)
_cell_length_c                   12.1779(15)
_cell_angle_alpha                90
_cell_angle_beta                 111.782(2)
_cell_angle_gamma                90
_cell_volume                     1404.04
loop_
_atom_site_label
_atom_site_type_symbol
_atom_site_fract_x
_atom_site_fract_y
_atom_site_fract_z
Mn1 Mn 0.0000 0.5000 0.0000
S1 S 0.20270(4) 0.29856(6) 0.05130(5)
O1 O 0.15160(9) 0.44266(16) 0.07914(12)
O2 O 0.02485(10) 0.74343(15) 0.07808(12)
O3 O 0.05687(10) 1.10172(15) 0.18844(11)
O4 O -0.02317(10) 0.40481(15) 0.15223(11)
H1 H -0.0271 0.4650 0.2081
H2 H 0.0114 0.3156 0.1845
C1 C 0.26098(17) 0.3762(3) -0.0399(2)
H3 H 0.2133 0.4089 -0.1164
H4 H 0.3023 0.2921 -0.0522
H5 H 0.2996 0.4708 -0.0015
C2 C 0.30359(16) 0.2656(3) 0.18182(19)
H6 H 0.3373 0.3687 0.2084
H7 H 0.3463 0.1875 0.1659
H8 H 0.2831 0.2225 0.2436
C3 C 0.01075(13) 0.8831(2) 0.03420(17)
C4 C 0.02584(13) 1.0467(2) 0.08492(17)
Mn1_2 Mn 0.0000 1.5000 0.0000
S1B S -0.20270(4) 0.70144(6) -0.05130(5)
O1B O -0.15160(9) 0.55734(16) -0.07914(12)
O2B O -0.02485(10) 1.25657(15) -0.07808(12)
O2B_2 O -0.02485(10) 0.25657(15) -0.07808(12)
O3B O -0.05687(10) 0.89828(15) -0.18844(11)
O4B O 0.02317(10) 0.59519(15) -0.15223(11)
H1B H 0.0271 0.5350 -0.2081
H2B H -0.0114 0.6844 -0.1845
C1B C -0.26098(17) 0.6238(3) 0.0399(2)
H3B H -0.2133 0.5911 0.1164
H4B H -0.3023 0.7079 0.0522
H5B H -0.2996 0.5292 0.0015
C2B C -0.30359(16) 0.7344(3) -0.18182(19)
H6B H -0.3373 0.6313 -0.2084
H7B H -0.3463 0.8125 -0.1659
H8B H -0.2831 0.7775 -0.2436
C3B C -0.01075(13) 1.1169(2) -0.03420(17)
C4B C -0.02584(13) 0.9533(2) -0.08492(17)
Mn2 Mn 0.5000 0.5000 0.5000
S2 S 0.29185(4) 0.65219(6) 0.45347(5)
O5 O 0.35073(10) 0.49665(15) 0.48363(13)
O6 O 0.48853(10) 0.25893(15) 0.42862(12)
O7 O 0.46571(10) -0.09296(16) 0.31185(11)
O8 O 0.45749(10) 0.58417(16) 0.31836(11)
H9 H 0.4663 0.6863 0.3084
H10 H 0.4885 0.5367 0.2777
C5 C 0.18176(15) 0.5957(3) 0.34272(19)
H11 H 0.1921 0.5652 0.2706
H12 H 0.1373 0.6875 0.3258
H13 H 0.1549 0.5030 0.3704
C6 C 0.25239(16) 0.6818(3) 0.57284(19)
H14 H 0.2215 0.5824 0.5852
H15 H 0.2067 0.7719 0.5541
H16 H 0.3072 0.7073 0.6449
C7 C 0.49547(13) 0.1180(2) 0.46915(17)
C8 C 0.48441(14) -0.0424(2) 0.41547(17)
Mn2_2 Mn 0.5000 -0.5000 0.5000
S2B S 0.70815(4) 0.34781(6) 0.54653(5)
O5B O 0.64927(10) 0.50335(15) 0.51637(13)
O6B O 0.51147(10) -0.25893(15) 0.57138(12)
O6B_2 O 0.51147(10) 0.74107(15) 0.57138(12)
O7B O 0.53429(10) 0.09296(16) 0.68815(11)
O8B O 0.54251(10) 0.41583(16) 0.68164(11)
H9B H 0.5337 0.3137 0.6916
H10B H 0.5115 0.4633 0.7223
C5B C 0.81824(15) 0.4043(3) 0.65728(19)
H11B H 0.8079 0.4348 0.7294
H12B H 0.8627 0.3125 0.6742
H13B H 0.8451 0.4970 0.6296
C6B C 0.74761(16) 0.3182(3) 0.42716(19)
H14B H 0.7785 0.4176 0.4148
H15B H 0.7933 0.2281 0.4459
H16B H 0.6928 0.2927 0.3551
C7B C 0.50453(13) -0.1180(2) 0.53085(17)
C8B C 0.51559(14) 0.0424(2) 0.58453(17)
loop_
_geom_bond_atom_site_label_1
_geom_bond_atom_site_label_2
_geom_bond_site_symmetry_1
_geom_bond_site_symmetry_2
Mn1 O1 1_555 1_555
S1 O1 1_555 1_555
O2 Mn1 1_555 1_555
O3 C4 1_555 1_555
O4 Mn1 1_555 1_555
H1 O4 1_555 1_555
H2 O4 1_555 1_555
C1 S1 1_555 1_555
H3 C1 1_555 1_555
H4 C1 1_555 1_555
H5 C1 1_555 1_555
C2 S1 1_555 1_555
H6 C2 1_555 1_555
H7 C2 1_555 1_555
H8 C2 1_555 1_555
C3 O2 1_555 1_555
C4 C3 1_555 1_555
Mn2 O5 1_555 1_555
S2 O5 1_555 1_555
O6 Mn2 1_555 1_555
O7 C8 1_555 1_555
O8 Mn2 1_555 1_555
H9 O8 1_555 1_555
H10 O8 1_555 1_555
C5 S2 1_555 1_555
H11 C5 1_555 1_555
H12 C5 1_555 1_555
H13 C5 1_555 1_555
C6 S2 1_555 1_555
H14 C6 1_555 1_555
H15 C6 1_555 1_555
H16 C6 1_555 1_555
C7 O6 1_555 1_555
C8 C7 1_555 1_555
Mn1_2 O2B 1_555 1_555
S1B O1B 1_555 1_555
O1B Mn1 1_555 1_555
O2B C3B 1_555 1_555
O2B_2 Mn1 1_555 1_555
O3B C4B 1_555 1_555
O4B Mn1 1_555 1_555
H1B O4B 1_555 1_555
H2B O4B 1_555 1_555
C1B S1B 1_555 1_555
H3B C1B 1_555 1_555
H4B C1B 1_555 1_555
H5B C1B 1_555 1_555
C2B S1B 1_555 1_555
H6B C2B 1_555 1_555
H7B C2B 1_555 1_555
H8B C2B 1_555 1_555
C3B C4 1_555 1_555
C4B C3 1_555 1_555
Mn2_2 O6B 1_555 1_555
S2B O5B 1_555 1_555
O5B Mn2 1_555 1_555
O6B C7B 1_555 1_555
O6B_2 Mn2 1_555 1_555
O7B C8B 1_555 1_555
O8B Mn2 1_555 1_555
H9B O8B 1_555 1_555
H10B O8B 1_555 1_555
C5B S2B 1_555 1_555
H11B C5B 1_555 1_555
H12B C5B 1_555 1_555
H13B C5B 1_555 1_555
C6B S2B 1_555 1_555
H14B C6B 1_555 1_555
H15B C6B 1_555 1_555
H16B C6B 1_555 1_555
C7B C8 1_555 1_555
C8B C7 1_555 1_555
C3B C4B 1_555 1_555
C7B C8B 1_555 1_555

#END
