
#######################################################################
#
#                 Cambridge Crystallographic Data Centre
#                                CCDC 
#
#######################################################################
#
# If this CIF has been generated from an entry in the Cambridge 
# Structural Database, then it will include bibliographic, chemical, 
# crystal, experimental, refinement or atomic coordinate data resulting 
# from the CCDC's data processing and validation procedures.
#
#######################################################################

data_AQEKOX
_symmetry_cell_setting           monoclinic
_symmetry_space_group_name_H-M   'P 21/c'
_symmetry_Int_Tables_number      14
_space_group_name_Hall           '-P 2ybc'
loop_
_symmetry_equiv_pos_site_id
_symmetry_equiv_pos_as_xyz
1 x,y,z
2 -x,1/2+y,1/2-z
3 -x,-y,-z
4 x,1/2-y,1/2+z
_cell_length_a                   14.832(2)
_cell_length_b                   8.0900(12)
_cell_length_c                   12.0617(18)
_cell_angle_alpha                90
_cell_angle_beta                 110.907(2)
_cell_angle_gamma                90
_cell_volume                     1352.01
loop_
_atom_site_label
_atom_site_type_symbol
_atom_site_fract_x
_atom_site_fract_y
_atom_site_fract_z
Co1 Co 0.0000 0.5000 0.0000
S1 S 0.19997(4) 0.30182(6) 0.05012(5)
O1 O 0.14786(9) 0.44868(16) 0.07860(12)
O2 O 0.02360(9) 0.73945(15) 0.07893(11)
O3 O 0.05697(9) 1.10432(15) 0.18886(11)
O4 O -0.02347(9) 0.40950(15) 0.14631(11)
H1 H -0.0274 0.4697 0.2022
H2 H 0.0111 0.3203 0.1786
C1 C 0.25844(16) 0.3797(3) -0.0440(2)
H3 H 0.2099 0.4145 -0.1196
H4 H 0.2991 0.2931 -0.0585
H5 H 0.2987 0.4746 -0.0059
C2 C 0.30243(15) 0.2713(3) 0.18014(18)
H6 H 0.3344 0.3776 0.2072
H7 H 0.3474 0.1957 0.1629
H8 H 0.2823 0.2236 0.2423
C3 C 0.01001(13) 0.8811(2) 0.03446(16)
C4 C 0.02598(13) 1.0474(2) 0.08507(17)
Co1_2 Co 0.0000 1.5000 0.0000
S1B S -0.19997(4) 0.69818(6) -0.05012(5)
O1B O -0.14786(9) 0.55132(16) -0.07860(12)
O2B O -0.02360(9) 1.26055(15) -0.07893(11)
O2B_2 O -0.02360(9) 0.26055(15) -0.07893(11)
O3B O -0.05697(9) 0.89568(15) -0.18886(11)
O4B O 0.02347(9) 0.59050(15) -0.14631(11)
H1B H 0.0274 0.5303 -0.2022
H2B H -0.0111 0.6797 -0.1786
C1B C -0.25844(16) 0.6203(3) 0.0440(2)
H3B H -0.2099 0.5855 0.1196
H4B H -0.2991 0.7069 0.0585
H5B H -0.2987 0.5254 0.0059
C2B C -0.30243(15) 0.7287(3) -0.18014(18)
H6B H -0.3344 0.6224 -0.2072
H7B H -0.3474 0.8043 -0.1629
H8B H -0.2823 0.7764 -0.2423
C3B C -0.01001(13) 1.1189(2) -0.03446(16)
C4B C -0.02598(13) 0.9526(2) -0.08507(17)
Co2 Co 0.5000 0.5000 0.5000
S2 S 0.29554(4) 0.65133(6) 0.45527(5)
O5 O 0.35431(9) 0.49252(15) 0.48375(12)
O6 O 0.48953(9) 0.26265(15) 0.42745(11)
O7 O 0.46410(10) -0.09441(16) 0.31048(11)
O8 O 0.46006(9) 0.58125(15) 0.32680(11)
H9 H 0.4689 0.6834 0.3169
H10 H 0.4911 0.5338 0.2862
C5 C 0.18458(14) 0.5955(3) 0.34446(18)
H11 H 0.1956 0.5649 0.2717
H12 H 0.1399 0.6893 0.3282
H13 H 0.1567 0.5013 0.3721
C6 C 0.25499(15) 0.6795(2) 0.57585(18)
H14 H 0.2228 0.5787 0.5873
H15 H 0.2095 0.7722 0.5586
H16 H 0.3103 0.7034 0.6482
C7 C 0.49594(13) 0.1203(2) 0.46869(16)
C8 C 0.48360(14) -0.0434(2) 0.41467(17)
Co2_2 Co 0.5000 -0.5000 0.5000
S2B S 0.70446(4) 0.34867(6) 0.54473(5)
O5B O 0.64569(9) 0.50748(15) 0.51625(12)
O6B O 0.51047(9) -0.26265(15) 0.57255(11)
O6B_2 O 0.51047(9) 0.73735(15) 0.57255(11)
O7B O 0.53590(10) 0.09441(16) 0.68952(11)
O8B O 0.53994(9) 0.41875(15) 0.67320(11)
H9B H 0.5311 0.3166 0.6831
H10B H 0.5089 0.4662 0.7138
C5B C 0.81542(14) 0.4045(3) 0.65554(18)
H11B H 0.8044 0.4351 0.7283
H12B H 0.8601 0.3107 0.6718
H13B H 0.8433 0.4987 0.6279
C6B C 0.74501(15) 0.3205(2) 0.42415(18)
H14B H 0.7772 0.4213 0.4127
H15B H 0.7905 0.2278 0.4414
H16B H 0.6897 0.2966 0.3518
C7B C 0.50406(13) -0.1203(2) 0.53131(16)
C8B C 0.51640(14) 0.0434(2) 0.58533(17)
loop_
_geom_bond_atom_site_label_1
_geom_bond_atom_site_label_2
_geom_bond_site_symmetry_1
_geom_bond_site_symmetry_2
Co1 O1 1_555 1_555
S1 O1 1_555 1_555
O2 Co1 1_555 1_555
O3 C4 1_555 1_555
O4 Co1 1_555 1_555
H1 O4 1_555 1_555
H2 O4 1_555 1_555
C1 S1 1_555 1_555
H3 C1 1_555 1_555
H4 C1 1_555 1_555
H5 C1 1_555 1_555
C2 S1 1_555 1_555
H6 C2 1_555 1_555
H7 C2 1_555 1_555
H8 C2 1_555 1_555
C3 O2 1_555 1_555
C4 C3 1_555 1_555
Co2 O5 1_555 1_555
S2 O5 1_555 1_555
O6 Co2 1_555 1_555
O7 C8 1_555 1_555
O8 Co2 1_555 1_555
H9 O8 1_555 1_555
H10 O8 1_555 1_555
C5 S2 1_555 1_555
H11 C5 1_555 1_555
H12 C5 1_555 1_555
H13 C5 1_555 1_555
C6 S2 1_555 1_555
H14 C6 1_555 1_555
H15 C6 1_555 1_555
H16 C6 1_555 1_555
C7 O6 1_555 1_555
C8 C7 1_555 1_555
Co1_2 O2B 1_555 1_555
S1B O1B 1_555 1_555
O1B Co1 1_555 1_555
O2B C3B 1_555 1_555
O2B_2 Co1 1_555 1_555
O3B C4B 1_555 1_555
O4B Co1 1_555 1_555
H1B O4B 1_555 1_555
H2B O4B 1_555 1_555
C1B S1B 1_555 1_555
H3B C1B 1_555 1_555
H4B C1B 1_555 1_555
H5B C1B 1_555 1_555
C2B S1B 1_555 1_555
H6B C2B 1_555 1_555
H7B C2B 1_555 1_555
H8B C2B 1_555 1_555
C3B C4 1_555 1_555
C4B C3 1_555 1_555
Co2_2 O6B 1_555 1_555
S2B O5B 1_555 1_555
O5B Co2 1_555 1_555
O6B C7B 1_555 1_555
O6B_2 Co2 1_555 1_555
O7B C8B 1_555 1_555
O8B Co2 1_555 1_555
H9B O8B 1_555 1_555
H10B O8B 1_555 1_555
C5B S2B 1_555 1_555
H11B C5B 1_555 1_555
H12B C5B 1_555 1_555
H13B C5B 1_555 1_555
C6B S2B 1_555 1_555
H14B C6B 1_555 1_555
H15B C6B 1_555 1_555
H16B C6B 1_555 1_555
C7B C8 1_555 1_555
C8B C7 1_555 1_555
C3B C4B 1_555 1_555
C7B C8B 1_555 1_555

#END
