
#######################################################################
#
#                 Cambridge Crystallographic Data Centre
#                                CCDC 
#
#######################################################################
#
# If this CIF has been generated from an entry in the Cambridge 
# Structural Database, then it will include bibliographic, chemical, 
# crystal, experimental, refinement or atomic coordinate data resulting 
# from the CCDC's data processing and validation procedures.
#
#######################################################################

data_AQESUK
_symmetry_cell_setting           triclinic
_symmetry_space_group_name_H-M   'P -1'
_symmetry_Int_Tables_number      2
_space_group_name_Hall           '-P 1'
loop_
_symmetry_equiv_pos_site_id
_symmetry_equiv_pos_as_xyz
1 x,y,z
2 -x,-y,-z
_cell_length_a                   7.23570(10)
_cell_length_b                   9.23640(10)
_cell_length_c                   10.44790(10)
_cell_angle_alpha                67.5266(7)
_cell_angle_beta                 78.8543(6)
_cell_angle_gamma                80.0431(6)
_cell_volume                     629.268
loop_
_atom_site_label
_atom_site_type_symbol
_atom_site_fract_x
_atom_site_fract_y
_atom_site_fract_z
Ba1 Ba 0.56132(4) -0.16532(3) 0.81016(3)
N1 N 0.7405(7) 0.4903(6) 0.4739(5)
H1 H 0.840(8) 0.544(7) 0.443(6)
C1 C 0.7815(7) 0.3438(6) 0.5769(6)
N2 N 0.9216(7) 0.3131(5) 0.6513(5)
N3 N 0.9032(7) 0.1633(6) 0.7450(5)
N4 N 0.7589(7) 0.1121(5) 0.7221(5)
N5 N 0.6762(7) 0.2243(6) 0.6158(5)
N6 N 0.6724(7) 0.4820(6) 0.3560(5)
H2 H 0.538(11) 0.470(8) 0.395(7)
C2 C 0.7878(7) 0.3827(6) 0.2944(5)
N7 N 0.9698(6) 0.3374(6) 0.3075(5)
N8 N 1.0274(7) 0.2556(6) 0.2193(5)
N9 N 0.8870(7) 0.2538(6) 0.1584(5)
N10 N 0.7286(7) 0.3350(6) 0.2050(5)
N11 N 0.2529(8) 0.0252(7) 0.9255(6)
H3 H 0.1554 0.0419 0.8749
H4 H 0.2127 -0.0412 1.0145
N12 N 0.2586(8) 0.1741(6) 0.9382(6)
H5 H 0.1365 0.2222 0.9445
H6 H 0.3247 0.2369 0.8571
N13 N 0.2941(8) 0.0195(7) 0.5894(6)
H7 H 0.2838 -0.0486 0.5465
H8 H 0.1770 0.0318 0.6397
N14 N 0.3156(8) 0.1709(6) 0.4771(5)
H9 H 0.4023 0.2189 0.4966
H10 H 0.2015 0.2329 0.4774
N15 N 0.7090(7) -0.5068(6) 0.8712(5)
H11 H 0.7910 -0.5117 0.7935
H12 H 0.7808 -0.5359 0.9426
N16 N 0.5838(7) -0.6283(6) 0.9089(5)
H13 H 0.6434 -0.6950 0.8632
H14 H 0.4782 -0.5783 0.8665
N8A N 0.9726(7) -0.2556(6) 0.7807(5)
N10A N 0.2714(7) -0.3350(6) 0.7950(5)
N12A N 0.7414(8) -0.1741(6) 1.0618(6)
N14A N 0.6844(8) -0.1709(6) 0.5229(5)
N16A N 0.4162(7) -0.3717(6) 1.0911(5)
Ba1A Ba 1.43868(4) 0.16532(3) 0.18984(3)
Ba1A_2 Ba 0.43868(4) 0.16532(3) 0.18984(3)
Ba1A_3 Ba 0.43868(4) 0.16532(3) 1.18984(3)
Ba1A_4 Ba 0.43868(4) -0.83468(3) 1.18984(3)
H5A H 0.8635 -0.2222 1.0555
H6A H 0.6753 -0.2369 1.1429
H9A H 0.5977 -0.2189 0.5034
H10A H 0.7985 -0.2329 0.5226
H13A H 0.3566 -0.3050 1.1368
H14A H 0.5218 -0.4217 1.1335
loop_
_geom_bond_atom_site_label_1
_geom_bond_atom_site_label_2
_geom_bond_site_symmetry_1
_geom_bond_site_symmetry_2
Ba1 N4 1_555 1_555
N1 H1 1_555 1_555
C1 N1 1_555 1_555
N2 C1 1_555 1_555
N3 N2 1_555 1_555
N4 N3 1_555 1_555
N5 C1 1_555 1_555
N6 N1 1_555 1_555
H2 N6 1_555 1_555
C2 N6 1_555 1_555
N7 C2 1_555 1_555
N8 N7 1_555 1_555
N9 N8 1_555 1_555
N10 C2 1_555 1_555
N11 Ba1 1_555 1_555
H3 N11 1_555 1_555
H4 N11 1_555 1_555
N12 N11 1_555 1_555
H5 N12 1_555 1_555
H6 N12 1_555 1_555
N13 Ba1 1_555 1_555
H7 N13 1_555 1_555
H8 N13 1_555 1_555
N14 N13 1_555 1_555
H9 N14 1_555 1_555
H10 N14 1_555 1_555
N15 Ba1 1_555 1_555
H11 N15 1_555 1_555
H12 N15 1_555 1_555
N16 N15 1_555 1_555
H13 N16 1_555 1_555
H14 N16 1_555 1_555
N8A Ba1 1_555 1_555
N10A Ba1 1_555 1_555
N12A Ba1 1_555 1_555
N14A Ba1 1_555 1_555
N16A Ba1 1_555 1_555
Ba1A N8 1_555 1_555
Ba1A_2 N10 1_555 1_555
Ba1A_3 N12 1_555 1_555
Ba1A_4 N16 1_555 1_555
H5A N12A 1_555 1_555
H6A N12A 1_555 1_555
H9A N14A 1_555 1_555
H10A N14A 1_555 1_555
H13A N16A 1_555 1_555
H14A N16A 1_555 1_555
N4 N5 1_555 1_555
N9 N10 1_555 1_555
N14 Ba1A_2 1_555 1_555

#END
