
#######################################################################
#
#                 Cambridge Crystallographic Data Centre
#                                CCDC 
#
#######################################################################
#
# If this CIF has been generated from an entry in the Cambridge 
# Structural Database, then it will include bibliographic, chemical, 
# crystal, experimental, refinement or atomic coordinate data resulting 
# from the CCDC's data processing and validation procedures.
#
#######################################################################

data_AQIDOU
_symmetry_cell_setting           triclinic
_symmetry_space_group_name_H-M   'P -1'
_symmetry_Int_Tables_number      2
_space_group_name_Hall           '-P 1'
loop_
_symmetry_equiv_pos_site_id
_symmetry_equiv_pos_as_xyz
1 x,y,z
2 -x,-y,-z
_cell_length_a                   5.960(2)
_cell_length_b                   7.634(3)
_cell_length_c                   18.603(7)
_cell_angle_alpha                90.145(6)
_cell_angle_beta                 95.804(6)
_cell_angle_gamma                97.105(6)
_cell_volume                     835.509
loop_
_atom_site_label
_atom_site_type_symbol
_atom_site_fract_x
_atom_site_fract_y
_atom_site_fract_z
Ca1 Ca 0.01213(10) 0.26769(7) 1.04132(3)
C1 C 0.6884(5) 0.3306(4) 0.78485(17)
H1 H 0.8315 0.3957 0.7927
C2 C 0.5723(5) 0.2767(3) 0.84306(16)
C3 C 0.3530(5) 0.1825(4) 0.83117(17)
C4 C 0.2585(5) 0.1416(4) 0.76142(17)
H2 H 0.1142 0.0785 0.7536
C5 C 0.3768(5) 0.1938(4) 0.70275(17)
C6 C 0.2704(6) 0.1454(4) 0.62827(18)
C7 C 0.3997(6) 0.2041(4) 0.56716(18)
C8 C 0.3061(6) 0.1657(5) 0.49654(19)
H3 H 0.1591 0.1075 0.4879
C9 C 0.4297(7) 0.2134(5) 0.4390(2)
H4 H 0.3654 0.1874 0.3920
C10 C 0.6455(8) 0.2985(5) 0.4511(2)
H5 H 0.7287 0.3284 0.4123
C11 C 0.7407(7) 0.3403(5) 0.5206(2)
H6 H 0.8872 0.3997 0.5283
C12 C 0.6196(6) 0.2944(4) 0.57910(18)
C13 C 0.7244(6) 0.3457(5) 0.65262(19)
C14 C 0.5935(5) 0.2885(4) 0.71416(17)
C15 C 0.6889(5) 0.3018(4) 0.91869(17)
C16 C 0.2163(5) 0.1346(4) 0.89378(16)
O1 O 0.0841(4) 0.0587(4) 0.61889(14)
O2 O 0.9125(4) 0.4300(4) 0.66229(14)
O3 O 0.6881(3) 0.1670(2) 0.95728(11)
O4 O 0.7935(3) 0.4496(2) 0.93883(11)
O5 O 0.2042(3) 0.2595(3) 0.93706(11)
O6 O 0.1237(3) -0.0191(3) 0.89812(12)
O7 O -0.2439(4) 0.3960(3) 1.10960(14)
H7 H -0.251(5) 0.497(4) 1.0962(17)
H8 H -0.214(5) 0.385(4) 1.1575(19)
O8 O 0.3471(4) 0.1697(3) 1.09909(13)
H9 H 0.472(6) 0.228(4) 1.0913(18)
H10 H 0.350(6) 0.073(4) 1.0879(18)
Ca1_2 Ca 1.01213(10) 0.26769(7) 1.04132(3)
Ca1A Ca 0.98787(10) 0.73231(7) 0.95868(3)
Ca1A_2 Ca -0.01213(10) -0.26769(7) 0.95868(3)
O3_2 O -0.3119(3) 0.1670(2) 0.95728(11)
O4A O 0.2065(3) 0.5504(2) 1.06117(11)
O4_2 O -0.2065(3) 0.4496(2) 0.93883(11)
O6A O -0.1237(3) 0.0191(3) 1.10188(12)
O9 O 0.2223(7) 0.6670(5) 0.7472(2)
H11 H 0.161(9) 0.582(7) 0.716(3)
H12 H 0.348(9) 0.692(8) 0.744(3)
O10 O 0.6948(8) 0.8097(6) 0.7490(2)
H13 H 0.690(10) 0.831(8) 0.790(3)
H14 H 0.825(9) 0.765(8) 0.753(3)
loop_
_geom_bond_atom_site_label_1
_geom_bond_atom_site_label_2
_geom_bond_site_symmetry_1
_geom_bond_site_symmetry_2
Ca1 O5 1_555 1_555
C1 H1 1_555 1_555
C2 C1 1_555 1_555
C3 C2 1_555 1_555
C4 C3 1_555 1_555
H2 C4 1_555 1_555
C5 C4 1_555 1_555
C6 C5 1_555 1_555
C7 C6 1_555 1_555
C8 C7 1_555 1_555
H3 C8 1_555 1_555
C9 C8 1_555 1_555
H4 C9 1_555 1_555
C10 C9 1_555 1_555
H5 C10 1_555 1_555
C11 C10 1_555 1_555
H6 C11 1_555 1_555
C12 C7 1_555 1_555
C13 C12 1_555 1_555
C14 C1 1_555 1_555
C15 C2 1_555 1_555
C16 C3 1_555 1_555
O1 C6 1_555 1_555
O2 C13 1_555 1_555
O3 C15 1_555 1_555
O4 C15 1_555 1_555
O5 C16 1_555 1_555
O6 C16 1_555 1_555
O7 Ca1 1_555 1_555
H7 O7 1_555 1_555
H8 O7 1_555 1_555
O8 Ca1 1_555 1_555
H9 O8 1_555 1_555
H10 O8 1_555 1_555
O9 H11 1_555 1_555
H12 O9 1_555 1_555
O10 H13 1_555 1_555
H14 O10 1_555 1_555
Ca1_2 O3 1_555 1_555
Ca1A O4 1_555 1_555
Ca1A_2 O6 1_555 1_555
O3_2 Ca1 1_555 1_555
O4A Ca1 1_555 1_555
O4_2 Ca1 1_555 1_555
O6A Ca1 1_555 1_555
C5 C14 1_555 1_555
C11 C12 1_555 1_555
C13 C14 1_555 1_555
O4 Ca1_2 1_555 1_555

#END
