
#######################################################################
#
#                 Cambridge Crystallographic Data Centre
#                                CCDC 
#
#######################################################################
#
# If this CIF has been generated from an entry in the Cambridge 
# Structural Database, then it will include bibliographic, chemical, 
# crystal, experimental, refinement or atomic coordinate data resulting 
# from the CCDC's data processing and validation procedures.
#
#######################################################################

data_AQIFOW
_symmetry_cell_setting           triclinic
_symmetry_space_group_name_H-M   'P -1'
_symmetry_Int_Tables_number      2
_space_group_name_Hall           '-P 1'
loop_
_symmetry_equiv_pos_site_id
_symmetry_equiv_pos_as_xyz
1 x,y,z
2 -x,-y,-z
_cell_length_a                   7.629(2)
_cell_length_b                   7.843(2)
_cell_length_c                   15.045(5)
_cell_angle_alpha                91.409(6)
_cell_angle_beta                 95.784(5)
_cell_angle_gamma                115.160(5)
_cell_volume                     808.374
loop_
_atom_site_label
_atom_site_type_symbol
_atom_site_fract_x
_atom_site_fract_y
_atom_site_fract_z
Zn1 Zn 1.00224(13) 0.71567(12) 0.43583(6)
C1 C 0.9008(9) 0.8656(9) 0.8297(4)
H1 H 0.9023 0.9774 0.8528
C2 C 0.9614(9) 0.8605(8) 0.7463(4)
C3 C 0.9515(9) 0.6901(9) 0.7100(4)
C4 C 0.8839(9) 0.5326(8) 0.7589(4)
H2 H 0.8754 0.4186 0.7348
C5 C 0.8286(9) 0.5414(8) 0.8433(4)
C6 C 0.7657(9) 0.3700(9) 0.8928(5)
C7 C 0.7333(9) 0.3876(9) 0.9880(4)
C8 C 0.6905(9) 0.2335(10) 1.0390(5)
H3 H 0.6864 0.1217 1.0144
C9 C 0.6546(10) 0.2457(11) 1.1248(5)
H4 H 0.6227 0.1414 1.1588
C10 C 0.6657(10) 0.4132(11) 1.1617(5)
H5 H 0.6451 0.4215 1.2212
C11 C 0.7061(10) 0.5670(10) 1.1129(4)
H6 H 0.7094 0.6777 1.1385
C12 C 0.7425(9) 0.5566(9) 1.0243(4)
C13 C 0.7850(9) 0.7212(9) 0.9703(4)
C14 C 0.8382(9) 0.7101(9) 0.8794(4)
C15 C 1.0529(11) 1.0406(9) 0.6994(4)
C16 C 1.0076(9) 0.6701(9) 0.6195(4)
O1 O 0.7815(7) 0.8645(6) 1.0010(3)
O2 O 0.7409(7) 0.2174(6) 0.8583(3)
O3 O 1.2329(7) 1.1150(6) 0.7064(3)
O4 O 0.9402(6) 1.1011(6) 0.6594(3)
O5 O 0.9934(8) 0.7791(7) 0.5631(3)
O6 O 1.0715(7) 0.5510(6) 0.6052(3)
O7 O 1.2913(8) 0.7768(8) 0.4467(4)
H7 H 1.368(9) 0.845(8) 0.408(3)
H8 H 1.331(11) 0.884(6) 0.480(4)
O8 O 0.7033(8) 0.6485(7) 0.4203(3)
H9 H 0.628(9) 0.538(4) 0.392(4)
H10 H 0.706(10) 0.698(7) 0.368(2)
Zn1A Zn 0.99776(13) 1.28433(12) 0.56417(6)
Zn1A_2 Zn 0.99776(13) 0.28433(12) 0.56417(6)
O4A O 1.0598(6) 0.8989(6) 0.3406(3)
O6A O 0.9285(7) 0.4490(6) 0.3948(3)
O9 O 0.5294(8) 0.0157(7) 0.6885(3)
H11 H 0.429(6) 0.040(9) 0.697(4)
H12 H 0.587(8) 0.079(9) 0.739(3)
O10 O 0.5388(7) 0.7237(6) 0.5788(4)
H13 H 0.649(6) 0.782(8) 0.556(4)
H14 H 0.579(9) 0.822(6) 0.618(3)
loop_
_geom_bond_atom_site_label_1
_geom_bond_atom_site_label_2
_geom_bond_site_symmetry_1
_geom_bond_site_symmetry_2
Zn1 O5 1_555 1_555
C1 H1 1_555 1_555
C2 C1 1_555 1_555
C3 C2 1_555 1_555
C4 C3 1_555 1_555
H2 C4 1_555 1_555
C5 C4 1_555 1_555
C6 C5 1_555 1_555
C7 C6 1_555 1_555
C8 C7 1_555 1_555
H3 C8 1_555 1_555
C9 C8 1_555 1_555
H4 C9 1_555 1_555
C10 C9 1_555 1_555
H5 C10 1_555 1_555
C11 C10 1_555 1_555
H6 C11 1_555 1_555
C12 C7 1_555 1_555
C13 C12 1_555 1_555
C14 C1 1_555 1_555
C15 C2 1_555 1_555
C16 C3 1_555 1_555
O1 C13 1_555 1_555
O2 C6 1_555 1_555
O3 C15 1_555 1_555
O4 C15 1_555 1_555
O5 C16 1_555 1_555
O6 C16 1_555 1_555
O7 Zn1 1_555 1_555
H7 O7 1_555 1_555
H8 O7 1_555 1_555
O8 Zn1 1_555 1_555
H9 O8 1_555 1_555
H10 O8 1_555 1_555
O9 H11 1_555 1_555
H12 O9 1_555 1_555
O10 H13 1_555 1_555
H14 O10 1_555 1_555
Zn1A O4 1_555 1_555
Zn1A_2 O6 1_555 1_555
O4A Zn1 1_555 1_555
O6A Zn1 1_555 1_555
C5 C14 1_555 1_555
C11 C12 1_555 1_555
C13 C14 1_555 1_555

#END
