
#######################################################################
#
#                 Cambridge Crystallographic Data Centre
#                                CCDC 
#
#######################################################################
#
# If this CIF has been generated from an entry in the Cambridge 
# Structural Database, then it will include bibliographic, chemical, 
# crystal, experimental, refinement or atomic coordinate data resulting 
# from the CCDC's data processing and validation procedures.
#
#######################################################################

data_AQIFEM
_symmetry_cell_setting           triclinic
_symmetry_space_group_name_H-M   'P -1'
_symmetry_Int_Tables_number      2
_space_group_name_Hall           '-P 1'
loop_
_symmetry_equiv_pos_site_id
_symmetry_equiv_pos_as_xyz
1 x,y,z
2 -x,-y,-z
_cell_length_a                   5.799(2)
_cell_length_b                   7.477(3)
_cell_length_c                   18.493(7)
_cell_angle_alpha                89.639(6)
_cell_angle_beta                 85.173(6)
_cell_angle_gamma                83.485(7)
_cell_volume                     793.832
loop_
_atom_site_label
_atom_site_type_symbol
_atom_site_fract_x
_atom_site_fract_y
_atom_site_fract_z
Mn1 Mn 0.48607(17) -0.24632(14) 0.04047(6)
C1 C -0.1858(12) -0.1563(10) -0.2155(4)
H1 H -0.3318 -0.0900 -0.2093
C2 C -0.0732(10) -0.2056(8) -0.1564(3)
C3 C 0.1443(11) -0.3070(9) -0.1645(4)
C4 C 0.2459(12) -0.3539(9) -0.2329(4)
H2 H 0.3920 -0.4203 -0.2383
C5 C 0.1272(12) -0.3008(10) -0.2950(4)
C6 C 0.2343(12) -0.3550(10) -0.3686(4)
C7 C 0.1067(13) -0.2946(10) -0.4318(4)
C8 C 0.2026(15) -0.3369(12) -0.5010(4)
H3 H 0.3522 -0.3969 -0.5081
C9 C 0.0753(17) -0.2898(12) -0.5609(4)
H4 H 0.1408 -0.3171 -0.6078
C10 C -0.1457(16) -0.2036(12) -0.5499(4)
H5 H -0.2318 -0.1743 -0.5894
C11 C -0.2430(15) -0.1592(12) -0.4800(4)
H6 H -0.3932 -0.1002 -0.4729
C12 C -0.1170(14) -0.2025(11) -0.4213(4)
C13 C -0.2257(12) -0.1466(10) -0.3487(4)
C14 C -0.0919(12) -0.2009(10) -0.2852(4)
C15 C -0.1978(11) -0.1692(9) -0.0811(4)
C16 C 0.2806(11) -0.3590(9) -0.0998(4)
O1 O -0.4161(9) -0.0568(9) -0.3407(3)
O2 O 0.4233(9) -0.4463(9) -0.3752(3)
O3 O -0.2845(8) -0.0138(7) -0.0662(3)
O4 O -0.2148(8) -0.3016(6) -0.0423(3)
O5 O 0.2932(8) -0.2314(6) -0.0556(2)
O6 O 0.3677(8) -0.5160(7) -0.0950(3)
H7 H 0.741(14) -0.008(3) 0.095(4)
H8 H 0.718(13) -0.110(9) 0.1482(12)
O7 O 0.7431(9) -0.1251(7) 0.1006(3)
H9 H 0.056(10) -0.301(8) 0.067(3)
H10 H 0.164(12) -0.459(4) 0.077(4)
O8 O 0.1720(8) -0.3488(7) 0.0946(3)
Mn1A Mn -0.48607(17) 0.24632(14) -0.04047(6)
Mn1_2 Mn -0.51393(17) -0.24632(14) 0.04047(6)
Mn1A_2 Mn 0.51393(17) -0.75368(14) -0.04047(6)
O3_2 O 0.7155(8) -0.0138(7) -0.0662(3)
O3A O 0.2845(8) 0.0138(7) 0.0662(3)
O4_2 O 0.7852(8) -0.3016(6) -0.0423(3)
O6A O 0.6323(8) -0.4840(7) 0.0950(3)
H11 H -0.392(16) -0.118(13) -0.719(5)
H12 H -0.363(17) -0.272(9) -0.743(6)
O9 O -0.2859(14) -0.1754(11) -0.7526(4)
H13 H -0.82(2) -0.436(5) -0.758(8)
H14 H -0.960(7) -0.31(2) -0.741(11)
O10 O -0.8067(14) -0.3187(12) -0.7529(4)
loop_
_geom_bond_atom_site_label_1
_geom_bond_atom_site_label_2
_geom_bond_site_symmetry_1
_geom_bond_site_symmetry_2
Mn1 O5 1_555 1_555
C1 H1 1_555 1_555
C2 C1 1_555 1_555
C3 C2 1_555 1_555
C4 C3 1_555 1_555
H2 C4 1_555 1_555
C5 C4 1_555 1_555
C6 C5 1_555 1_555
C7 C6 1_555 1_555
C8 C7 1_555 1_555
H3 C8 1_555 1_555
C9 C8 1_555 1_555
H4 C9 1_555 1_555
C10 C9 1_555 1_555
H5 C10 1_555 1_555
C11 C10 1_555 1_555
H6 C11 1_555 1_555
C12 C7 1_555 1_555
C13 C12 1_555 1_555
C14 C1 1_555 1_555
C15 C2 1_555 1_555
C16 C3 1_555 1_555
O1 C13 1_555 1_555
O2 C6 1_555 1_555
O3 C15 1_555 1_555
O4 C15 1_555 1_555
O5 C16 1_555 1_555
O6 C16 1_555 1_555
H7 O7 1_555 1_555
H8 O7 1_555 1_555
O7 Mn1 1_555 1_555
H9 O8 1_555 1_555
H10 O8 1_555 1_555
O8 Mn1 1_555 1_555
H11 O9 1_555 1_555
H12 O9 1_555 1_555
H13 O10 1_555 1_555
H14 O10 1_555 1_555
Mn1A O3 1_555 1_555
Mn1_2 O3 1_555 1_555
Mn1A_2 O6 1_555 1_555
O3_2 Mn1 1_555 1_555
O3A Mn1 1_555 1_555
O4_2 Mn1 1_555 1_555
O6A Mn1 1_555 1_555
C5 C14 1_555 1_555
C11 C12 1_555 1_555
C13 C14 1_555 1_555
O4 Mn1_2 1_555 1_555

#END
