
#######################################################################
#
#                 Cambridge Crystallographic Data Centre
#                                CCDC 
#
#######################################################################
#
# If this CIF has been generated from an entry in the Cambridge 
# Structural Database, then it will include bibliographic, chemical, 
# crystal, experimental, refinement or atomic coordinate data resulting 
# from the CCDC's data processing and validation procedures.
#
#######################################################################

data_AQIGIR
_symmetry_cell_setting           monoclinic
_symmetry_space_group_name_H-M   'P 21/c'
_symmetry_Int_Tables_number      14
_space_group_name_Hall           '-P 2ybc'
loop_
_symmetry_equiv_pos_site_id
_symmetry_equiv_pos_as_xyz
1 x,y,z
2 -x,1/2+y,1/2-z
3 -x,-y,-z
4 x,1/2-y,1/2+z
_cell_length_a                   8.9247(6)
_cell_length_b                   14.8943(10)
_cell_length_c                   20.3308(14)
_cell_angle_alpha                90
_cell_angle_beta                 98.8090(10)
_cell_angle_gamma                90
_cell_volume                     2670.64
loop_
_atom_site_label
_atom_site_type_symbol
_atom_site_fract_x
_atom_site_fract_y
_atom_site_fract_z
I1 I 0.51845(3) 0.40673(2) 0.267424(18)
I2 I -0.10780(3) 0.48615(2) 0.124398(15)
I3 I 0.21270(3) 0.755814(19) 0.321061(15)
Cd1 Cd 0.75482(3) 0.71652(2) 0.384917(15)
O1 O 0.5671(3) 0.6535(2) 0.31102(14)
O2 O 0.4779(4) 0.5798(2) 0.39195(15)
O3 O 0.1752(3) 0.30911(19) 0.19944(15)
O4 O 0.2525(4) 0.3795(2) 0.11541(15)
O5 O 0.5869(4) 0.7274(2) 0.46195(16)
H1 H 0.5311 0.6819 0.4526
H2 H 0.5337 0.7733 0.4677
N1 N -0.0452(4) 0.6651(2) 0.21357(18)
H3 H -0.0443 0.7163 0.2332
H4 H -0.1233 0.6490 0.1859
N2 N 0.9072(4) 0.5913(2) 0.38023(17)
N3 N 0.9627(4) 0.7277(3) 0.46969(17)
C1 C 0.4715(4) 0.6044(3) 0.3340(2)
C2 C 0.3346(4) 0.5757(3) 0.28413(19)
C3 C 0.3311(4) 0.4931(2) 0.25204(19)
C4 C 0.2048(4) 0.4676(3) 0.20598(18)
C5 C 0.0807(4) 0.5260(3) 0.19324(18)
C6 C 0.0779(4) 0.6091(3) 0.22639(19)
C7 C 0.2089(4) 0.6318(3) 0.27111(19)
C8 C 0.2079(4) 0.3790(3) 0.1708(2)
C9 C 0.8805(5) 0.5258(3) 0.3360(2)
H5 H 0.7956 0.5301 0.3034
C10 C 0.9739(6) 0.4501(3) 0.3362(3)
H6 H 0.9527 0.4060 0.3037
C11 C 1.0966(6) 0.4425(4) 0.3848(3)
H7 H 1.1589 0.3923 0.3863
C12 C 1.1291(5) 0.5106(3) 0.4327(2)
C13 C 1.0301(5) 0.5853(3) 0.4282(2)
C14 C 1.2566(6) 0.5082(4) 0.4847(3)
H8 H 1.3210 0.4588 0.4883
C15 C 1.2849(6) 0.5756(4) 0.5281(3)
H9 H 1.3682 0.5719 0.5617
C16 C 1.1898(5) 0.6531(4) 0.5242(2)
C17 C 1.0603(5) 0.6569(3) 0.4752(2)
C18 C 1.2167(6) 0.7278(4) 0.5674(2)
H10 H 1.3005 0.7283 0.6008
C19 C 1.1207(6) 0.7986(4) 0.5602(3)
H11 H 1.1390 0.8482 0.5881
C20 C 0.9940(6) 0.7966(4) 0.5107(2)
H12 H 0.9288 0.8457 0.5063
Cd1A Cd 0.24518(3) 0.21652(2) 0.115083(15)
O3A O 0.8248(3) 0.80911(19) 0.30056(15)
O4A O 0.7475(4) 0.8795(2) 0.38459(15)
O6 O 0.4058(5) 0.8904(3) 0.46140(19)
H13 H 0.3682 0.8543 0.4309
H14 H 0.4454 0.9355 0.4443
O7 O 0.6838(10) 0.7339(6) 0.5954(4)
H15 H 0.7229 0.7706 0.5704
H16 H 0.6395 0.7644 0.6227
O8 O 0.5763(5) 0.0291(3) 0.41293(19)
H17 H 0.6429 -0.0072 0.4031
H18 H 0.6080 0.0475 0.4525
O9 O 0.4212(6) 0.1569(3) 0.3248(2)
H19 H 0.4492 0.1674 0.2874
H20 H 0.4689 0.1116 0.3428
loop_
_geom_bond_atom_site_label_1
_geom_bond_atom_site_label_2
_geom_bond_site_symmetry_1
_geom_bond_site_symmetry_2
I1 C3 1_555 1_555
I2 C5 1_555 1_555
I3 C7 1_555 1_555
Cd1 O1 1_555 1_555
O1 C1 1_555 1_555
O2 C1 1_555 1_555
O3 C8 1_555 1_555
O4 C8 1_555 1_555
O5 Cd1 1_555 1_555
H1 O5 1_555 1_555
H2 O5 1_555 1_555
N1 H3 1_555 1_555
H4 N1 1_555 1_555
N2 Cd1 1_555 1_555
N3 Cd1 1_555 1_555
C1 C2 1_555 1_555
C2 C3 1_555 1_555
C3 C4 1_555 1_555
C4 C5 1_555 1_555
C5 C6 1_555 1_555
C6 N1 1_555 1_555
C7 C2 1_555 1_555
C8 C4 1_555 1_555
C9 N2 1_555 1_555
H5 C9 1_555 1_555
C10 C9 1_555 1_555
H6 C10 1_555 1_555
C11 C10 1_555 1_555
H7 C11 1_555 1_555
C12 C11 1_555 1_555
C13 N2 1_555 1_555
C14 C12 1_555 1_555
H8 C14 1_555 1_555
C15 C14 1_555 1_555
H9 C15 1_555 1_555
C16 C15 1_555 1_555
C17 N3 1_555 1_555
C18 C16 1_555 1_555
H10 C18 1_555 1_555
C19 C18 1_555 1_555
H11 C19 1_555 1_555
C20 N3 1_555 1_555
H12 C20 1_555 1_555
O6 H13 1_555 1_555
H14 O6 1_555 1_555
O7 H15 1_555 1_555
H16 O7 1_555 1_555
O8 H17 1_555 1_555
H18 O8 1_555 1_555
O9 H19 1_555 1_555
H20 O9 1_555 1_555
Cd1A O3 1_555 1_555
O3A Cd1 1_555 1_555
O4A Cd1 1_555 1_555
O4 Cd1A 1_555 1_555
C6 C7 1_555 1_555
C12 C13 1_555 1_555
C13 C17 1_555 1_555
C16 C17 1_555 1_555
C19 C20 1_555 1_555

#END
