
#######################################################################
#
#                 Cambridge Crystallographic Data Centre
#                                CCDC 
#
#######################################################################
#
# If this CIF has been generated from an entry in the Cambridge 
# Structural Database, then it will include bibliographic, chemical, 
# crystal, experimental, refinement or atomic coordinate data resulting 
# from the CCDC's data processing and validation procedures.
#
#######################################################################

data_AQIPUM
_symmetry_cell_setting           monoclinic
_symmetry_space_group_name_H-M   'C 2/c'
_symmetry_Int_Tables_number      15
_space_group_name_Hall           '-C 2yn'
loop_
_symmetry_equiv_pos_site_id
_symmetry_equiv_pos_as_xyz
1 x,y,z
2 -x,y,1/2-z
3 1/2+x,1/2+y,z
4 1/2-x,1/2+y,1/2-z
5 -x,-y,-z
6 x,-y,1/2+z
7 1/2-x,1/2-y,-z
8 1/2+x,1/2-y,1/2+z
_cell_length_a                   24.70(2)
_cell_length_b                   11.443(5)
_cell_length_c                   7.502(4)
_cell_angle_alpha                90
_cell_angle_beta                 91.259(9)
_cell_angle_gamma                90
_cell_volume                     2119.87
loop_
_atom_site_label
_atom_site_type_symbol
_atom_site_fract_x
_atom_site_fract_y
_atom_site_fract_z
Zn1 Zn 0.2500 0.7500 0.5000
O1 O 0.29695(5) 0.6334(1) 0.6592(1)
O2 O 0.27419(5) 0.6342(1) 0.2864(1)
O3 O 0.29683(7) 0.7733(1) 0.1049(2)
O4 O 0.30902(6) 0.5921(1) 0.0324(2)
N1 N 0.17874(5) 0.6473(1) 0.5219(2)
N2 N 0.04338(5) 0.3368(1) 0.6845(2)
N3 N 0.0000 0.5161(2) 0.7500
N4 N 0.0000 -0.0917(2) 0.7500
N5 N 0.29359(5) 0.6689(1) 0.1398(2)
C1 C 0.13224(6) 0.7012(1) 0.5627(2)
C2 C 0.08671(6) 0.6419(1) 0.6168(2)
C3 C 0.17969(6) 0.5300(1) 0.5262(2)
C4 C 0.13559(6) 0.4634(1) 0.5767(2)
C5 C 0.08850(6) 0.5204(1) 0.6256(2)
C6 C 0.04128(6) 0.4535(1) 0.6892(2)
C7 C 0.0000 0.2827(2) 0.7500
C8 C 0.0000 0.1530(2) 0.7500
C9 C -0.04734(9) 0.0907(2) 0.7742(4)
C10 C -0.0450(1) -0.0302(2) 0.7700(5)
H1 H 0.1308 0.7844 0.5550
H2 H 0.0544 0.6833 0.6469
H3 H 0.2120 0.4908 0.4939
H4 H 0.1377 0.3802 0.5775
H5 H -0.0810 0.1310 0.7938
H6 H -0.0786 -0.0730 0.7824
H7 H 0.2808 0.5649 0.7071
H8 H 0.3341 0.6492 0.6839
Zn1A Zn -0.2500 0.7500 1.0000
O1F O 0.20305(5) 0.8666(1) 0.3408(1)
O2F O 0.22581(5) 0.8658(1) 0.7136(1)
O3F O 0.20317(7) 0.7267(1) 0.8951(2)
O4F O 0.19098(6) 0.9079(1) 0.9676(2)
N1A N -0.17874(5) 0.6473(1) 0.9781(2)
N1F N 0.32126(5) 0.8527(1) 0.4781(2)
N2A N -0.04338(5) 0.3368(1) 0.8155(2)
N5F N 0.20641(5) 0.8311(1) 0.8602(2)
C1A C -0.13224(6) 0.7012(1) 0.9373(2)
C2A C -0.08671(6) 0.6419(1) 0.8832(2)
C3A C -0.17969(6) 0.5300(1) 0.9738(2)
C4A C -0.13559(6) 0.4634(1) 0.9233(2)
C5A C -0.08850(6) 0.5204(1) 0.8744(2)
C6A C -0.04128(6) 0.4535(1) 0.8108(2)
C9A C 0.04734(9) 0.0907(2) 0.7258(4)
C10A C 0.0450(1) -0.0302(2) 0.7300(5)
H1A H -0.1308 0.7844 0.9450
H2A H -0.0544 0.6833 0.8531
H3A H -0.2120 0.4908 1.0061
H4A H -0.1377 0.3802 0.9225
H5A H 0.0810 0.1310 0.7062
H6A H 0.0786 -0.0730 0.7176
H7F H 0.2192 0.9351 0.2929
H8F H 0.1659 0.8508 0.3161
loop_
_geom_bond_atom_site_label_1
_geom_bond_atom_site_label_2
_geom_bond_site_symmetry_1
_geom_bond_site_symmetry_2
Zn1 O1 1_555 1_555
O1 H7 1_555 1_555
O2 Zn1 1_555 1_555
O3 N5 1_555 1_555
O4 N5 1_555 1_555
N1 Zn1 1_555 1_555
N2 C6 1_555 1_555
N3 C6 1_555 1_555
N4 C10 1_555 1_555
N5 O2 1_555 1_555
C1 N1 1_555 1_555
C2 C1 1_555 1_555
C3 N1 1_555 1_555
C4 C3 1_555 1_555
C5 C2 1_555 1_555
C6 C5 1_555 1_555
C7 N2 1_555 1_555
C8 C7 1_555 1_555
C9 C8 1_555 1_555
C10 C9 1_555 1_555
H1 C1 1_555 1_555
H2 C2 1_555 1_555
H3 C3 1_555 1_555
H4 C4 1_555 1_555
H5 C9 1_555 1_555
H6 C10 1_555 1_555
H8 O1 1_555 1_555
Zn1A N1A 1_555 1_555
O1F Zn1 1_555 1_555
O2F Zn1 1_555 1_555
O3F N5F 1_555 1_555
O4F N5F 1_555 1_555
N1A C1A 1_555 1_555
N1F Zn1 1_555 1_555
N2A C7 1_555 1_555
N5F O2F 1_555 1_555
C1A C2A 1_555 1_555
C2A C5A 1_555 1_555
C3A N1A 1_555 1_555
C4A C3A 1_555 1_555
C5A C4A 1_555 1_555
C6A N3 1_555 1_555
C9A C8 1_555 1_555
C10A N4 1_555 1_555
H1A C1A 1_555 1_555
H2A C2A 1_555 1_555
H3A C3A 1_555 1_555
H4A C4A 1_555 1_555
H5A C9A 1_555 1_555
H6A C10A 1_555 1_555
H7F O1F 1_555 1_555
H8F O1F 1_555 1_555
C4 C5 1_555 1_555
N2A C6A 1_555 1_555
C5A C6A 1_555 1_555
C9A C10A 1_555 1_555

#END
