
#######################################################################
#
#                 Cambridge Crystallographic Data Centre
#                                CCDC 
#
#######################################################################
#
# If this CIF has been generated from an entry in the Cambridge 
# Structural Database, then it will include bibliographic, chemical, 
# crystal, experimental, refinement or atomic coordinate data resulting 
# from the CCDC's data processing and validation procedures.
#
#######################################################################

data_AQOFES
_symmetry_cell_setting           monoclinic
_symmetry_space_group_name_H-M   'P 21/n'
_symmetry_Int_Tables_number      14
_space_group_name_Hall           '-P 2yn'
loop_
_symmetry_equiv_pos_site_id
_symmetry_equiv_pos_as_xyz
1 x,y,z
2 1/2-x,1/2+y,1/2-z
3 -x,-y,-z
4 1/2+x,1/2-y,1/2+z
_cell_length_a                   10.59380(42)
_cell_length_b                   13.96953(51)
_cell_length_c                   8.17751(32)
_cell_angle_alpha                90
_cell_angle_beta                 84.1026(25)
_cell_angle_gamma                90
_cell_volume                     1203.79
loop_
_atom_site_label
_atom_site_type_symbol
_atom_site_fract_x
_atom_site_fract_y
_atom_site_fract_z
Co1 Co 0.00000 0.00000 0.00000
O1 O -0.1758(11) 0.01537(81) 0.1695(14)
N1 N 0.116520 0.058410 0.168780
N2 N 0.266600 0.098720 0.312260
N3 N 0.437250 0.207870 0.350390
N4 N 0.469050 0.356810 0.398770
C1 C 0.238800 0.050880 0.180480
C2 C 0.063480 0.113310 0.295760
N5 N 0.156590 0.138880 0.385350
C3 C 0.392070 0.109590 0.369200
C4 C 0.414290 0.277660 0.460530
C5 C 0.529200 0.337070 0.245320
N6 N 0.508940 0.244460 0.214160
H1 H 0.297770 0.016760 0.106700
H2 H -0.023590 0.130240 0.316730
H3 H 0.388120 0.090950 0.486440
H4 H 0.452620 0.066280 0.305680
H5 H 0.366960 0.271710 0.565120
H6 H 0.576340 0.380930 0.174600
Co1C Co 0.50000 0.50000 0.50000
Co1C_2 Co -0.50000 0.50000 -0.50000
O1B O 0.1758(11) -0.01537(81) -0.1695(14)
N1C N -0.383480 0.441590 -0.331220
N1B N -0.116520 -0.058410 -0.168780
N2C N -0.233400 0.401280 -0.187740
N3C N -0.062750 0.292130 -0.149610
N4C N -0.030950 0.143190 -0.101230
N4A N 0.030950 -0.143190 0.101230
C1C C -0.261200 0.449120 -0.319520
C2C C -0.436520 0.386690 -0.204240
N5C N -0.343410 0.361120 -0.114650
C3C C -0.107930 0.390410 -0.130800
C4C C -0.085710 0.222340 -0.039470
C5C C 0.029200 0.162930 -0.254680
N6C N 0.008940 0.255540 -0.285840
H1C H -0.202230 0.483240 -0.393300
H2C H -0.523590 0.369760 -0.183270
H3C H -0.111880 0.409050 -0.013560
H4C H -0.047380 0.433720 -0.194320
H5C H -0.133040 0.228290 0.065120
H6C H 0.076340 0.119070 -0.325400
N7 N -0.72127 -0.15967 0.51532
O2 O -0.780116 -0.192899 0.648072
O3 O -0.705033 -0.212411 0.388234
O4 O -0.678491 -0.079491 0.500665
O5 O 0.0659(12) 0.37402(77) 0.3979(17)
O6 O 0.1543(11) 0.62563(88) 0.6957(14)
loop_
_geom_bond_atom_site_label_1
_geom_bond_atom_site_label_2
_geom_bond_site_symmetry_1
_geom_bond_site_symmetry_2
Co1 O1 1_555 1_555
N1 Co1 1_555 1_555
N2 C1 1_555 1_555
N3 C3 1_555 1_555
N4 C4 1_555 1_555
C1 N1 1_555 1_555
C2 N1 1_555 1_555
N5 N2 1_555 1_555
C3 N2 1_555 1_555
C4 N3 1_555 1_555
C5 N4 1_555 1_555
N6 N3 1_555 1_555
H1 C1 1_555 1_555
H2 C2 1_555 1_555
H3 C3 1_555 1_555
H4 C3 1_555 1_555
H5 C4 1_555 1_555
H6 C5 1_555 1_555
N7 O2 1_555 1_555
O3 N7 1_555 1_555
O4 N7 1_555 1_555
Co1C N4 1_555 1_555
Co1C_2 N1C 1_555 1_555
O1B Co1 1_555 1_555
N1C C1C 1_555 1_555
N1B Co1 1_555 1_555
N2C C1C 1_555 1_555
N3C C3C 1_555 1_555
N4C Co1 1_555 1_555
N4A Co1 1_555 1_555
C1C H1C 1_555 1_555
C2C N1C 1_555 1_555
N5C N2C 1_555 1_555
C3C N2C 1_555 1_555
C4C N3C 1_555 1_555
C5C N4C 1_555 1_555
N6C N3C 1_555 1_555
H2C C2C 1_555 1_555
H3C C3C 1_555 1_555
H4C C3C 1_555 1_555
H5C C4C 1_555 1_555
H6C C5C 1_555 1_555
C2 N5 1_555 1_555
C5 N6 1_555 1_555
N4C C4C 1_555 1_555
C2C N5C 1_555 1_555
C5C N6C 1_555 1_555

#END
