
#######################################################################
#
#                 Cambridge Crystallographic Data Centre
#                                CCDC 
#
#######################################################################
#
# If this CIF has been generated from an entry in the Cambridge 
# Structural Database, then it will include bibliographic, chemical, 
# crystal, experimental, refinement or atomic coordinate data resulting 
# from the CCDC's data processing and validation procedures.
#
#######################################################################

data_AQOGUJ
_symmetry_cell_setting           monoclinic
_symmetry_space_group_name_H-M   'P 21/c'
_symmetry_Int_Tables_number      14
_space_group_name_Hall           '-P 2ybc'
loop_
_symmetry_equiv_pos_site_id
_symmetry_equiv_pos_as_xyz
1 x,y,z
2 -x,1/2+y,1/2-z
3 -x,-y,-z
4 x,1/2-y,1/2+z
_cell_length_a                   7.6915(5)
_cell_length_b                   15.2850(9)
_cell_length_c                   14.2860(9)
_cell_angle_alpha                90
_cell_angle_beta                 98.6400(10)
_cell_angle_gamma                90
_cell_volume                     1660.47
loop_
_atom_site_label
_atom_site_type_symbol
_atom_site_fract_x
_atom_site_fract_y
_atom_site_fract_z
Cu1 Cu 0.03815(11) 0.23273(6) 0.56988(6)
O1 O 0.0713(7) 0.3417(4) 0.6390(4)
N1 N -0.1139(8) 0.2874(4) 0.4649(4)
N2 N 0.0138(9) 0.1240(4) 0.4831(5)
N3 N 0.2540(8) 0.1846(4) 0.6451(5)
N4 N 0.8234(8) 0.1824(4) 0.6484(5)
C1 C -0.0231(10) 0.4127(5) 0.6235(5)
C2 C 0.0019(11) 0.4823(5) 0.6894(5)
H1 H 0.0857 0.4763 0.7431
C3 C -0.0940(11) 0.5590(6) 0.6767(6)
H2 H -0.0773 0.6028 0.7224
C4 C -0.2152(10) 0.5704(5) 0.5954(6)
Br1 Br -0.33769(11) 0.67881(6) 0.57682(8)
C5 C -0.2453(9) 0.5063(5) 0.5291(5)
H3 H -0.3280 0.5151 0.4754
C6 C -0.1526(9) 0.4264(5) 0.5408(5)
C7 C -0.1844(9) 0.3637(5) 0.4646(5)
H4 H -0.2621 0.3797 0.4111
C8 C -0.1493(12) 0.2320(5) 0.3799(6)
H5 H -0.0598 0.2412 0.3398
H6 H -0.2629 0.2464 0.3440
C9 C -0.1476(11) 0.1393(6) 0.4119(6)
H7 H -0.1472 0.1005 0.3582
H8 H -0.2521 0.1272 0.4402
C10 C 0.0057(11) 0.0402(5) 0.5333(6)
H9 H -0.0962 0.0405 0.5659
H10 H 0.1096 0.0346 0.5807
N5 N 0.5544(8) 0.1362(6) 0.7074(6)
C11 C 0.3968(11) 0.1651(5) 0.6705(5)
C12 C 0.6936(10) 0.1636(5) 0.6713(5)
H11 H 0.089(10) 0.124(4) 0.458(5)
Cu1B Cu -0.03815(11) -0.23273(6) 0.43012(6)
Cu1_2 Cu 1.03815(11) 0.23273(6) 0.56988(6)
Cu1B_2 Cu -1.03815(11) -0.23273(6) 0.43012(6)
O1B O -0.0713(7) -0.3417(4) 0.3610(4)
N1B N 0.1139(8) -0.2874(4) 0.5351(4)
N2B N -0.0138(9) -0.1240(4) 0.5169(5)
N3B N -0.2540(8) -0.1846(4) 0.3549(5)
N4_2 N -0.1766(8) 0.1824(4) 0.6484(5)
N4B N 0.1766(8) -0.1824(4) 0.3516(5)
N4B_2 N -0.8234(8) -0.1824(4) 0.3516(5)
C1B C 0.0231(10) -0.4127(5) 0.3765(5)
C2B C -0.0019(11) -0.4823(5) 0.3106(5)
H1B H -0.0857 -0.4763 0.2569
C3B C 0.0940(11) -0.5590(6) 0.3233(6)
H2B H 0.0773 -0.6028 0.2776
C4B C 0.2152(10) -0.5704(5) 0.4046(6)
Br1B Br 0.33769(11) -0.67881(6) 0.42318(8)
C5B C 0.2453(9) -0.5063(5) 0.4709(5)
H3B H 0.3280 -0.5151 0.5246
C6B C 0.1526(9) -0.4264(5) 0.4592(5)
C7B C 0.1844(9) -0.3637(5) 0.5354(5)
H4B H 0.2621 -0.3797 0.5889
C8B C 0.1493(12) -0.2320(5) 0.6201(6)
H5B H 0.0598 -0.2412 0.6602
H6B H 0.2629 -0.2464 0.6560
C9B C 0.1476(11) -0.1393(6) 0.5881(6)
H7B H 0.1472 -0.1005 0.6418
H8B H 0.2521 -0.1272 0.5598
C10B C -0.0057(11) -0.0402(5) 0.4667(6)
H9B H 0.0962 -0.0405 0.4341
H10B H -0.1096 -0.0346 0.4193
N5B N -0.5544(8) -0.1362(6) 0.2926(6)
C11B C -0.3968(11) -0.1651(5) 0.3295(5)
C12B C -0.6936(10) -0.1636(5) 0.3287(5)
H11B H -0.089(10) -0.124(4) 0.542(5)
O2 O 0.4056(9) 0.3577(6) 0.7564(6)
H12 H 0.3029 0.3619 0.7328
C13 C 0.5101(15) 0.4001(10) 0.6969(8)
H13 H 0.4708 0.4594 0.6864
H14 H 0.4996 0.3699 0.6374
H15 H 0.6307 0.3998 0.7264
O3 O 0.359(2) 0.4128(11) 0.9249(12)
H16 H 0.3580 0.4096 0.8584
H17 H 0.3558 0.3556 0.9245
O4? O 0.230(3) 0.3684(15) 0.8181(16)
H18? H 0.1803 0.3556 0.7537
H19? H 0.2721 0.3190 0.8398
loop_
_geom_bond_atom_site_label_1
_geom_bond_atom_site_label_2
_geom_bond_site_symmetry_1
_geom_bond_site_symmetry_2
Cu1 O1 1_555 1_555
O1 C1 1_555 1_555
N1 Cu1 1_555 1_555
N2 Cu1 1_555 1_555
N3 Cu1 1_555 1_555
N4 C12 1_555 1_555
C1 C2 1_555 1_555
C2 H1 1_555 1_555
C3 C2 1_555 1_555
H2 C3 1_555 1_555
C4 C3 1_555 1_555
Br1 C4 1_555 1_555
C5 C4 1_555 1_555
H3 C5 1_555 1_555
C6 C1 1_555 1_555
C7 N1 1_555 1_555
H4 C7 1_555 1_555
C8 N1 1_555 1_555
H5 C8 1_555 1_555
H6 C8 1_555 1_555
C9 N2 1_555 1_555
H7 C9 1_555 1_555
H8 C9 1_555 1_555
C10 N2 1_555 1_555
H9 C10 1_555 1_555
H10 C10 1_555 1_555
N5 C11 1_555 1_555
C11 N3 1_555 1_555
C12 N5 1_555 1_555
H11 N2 1_555 1_555
O2 H12 1_555 1_555
C13 O2 1_555 1_555
H13 C13 1_555 1_555
H14 C13 1_555 1_555
H15 C13 1_555 1_555
O3 H16 1_555 1_555
H17 O3 1_555 1_555
Cu1B O1B 1_555 1_555
Cu1_2 N4 1_555 1_555
Cu1B_2 N4B_2 1_555 1_555
O1B C1B 1_555 1_555
N1B Cu1B 1_555 1_555
N2B Cu1B 1_555 1_555
N3B Cu1B 1_555 1_555
N4_2 Cu1 1_555 1_555
N4B Cu1B 1_555 1_555
N4B_2 C12B 1_555 1_555
C1B C2B 1_555 1_555
C2B H1B 1_555 1_555
C3B C2B 1_555 1_555
H2B C3B 1_555 1_555
C4B C3B 1_555 1_555
Br1B C4B 1_555 1_555
C5B C4B 1_555 1_555
H3B C5B 1_555 1_555
C6B C1B 1_555 1_555
C7B N1B 1_555 1_555
H4B C7B 1_555 1_555
C8B N1B 1_555 1_555
H5B C8B 1_555 1_555
H6B C8B 1_555 1_555
C9B N2B 1_555 1_555
H7B C9B 1_555 1_555
H8B C9B 1_555 1_555
C10B C10 1_555 1_555
H9B C10B 1_555 1_555
H10B C10B 1_555 1_555
N5B C11B 1_555 1_555
C11B N3B 1_555 1_555
C12B N5B 1_555 1_555
H11B N2B 1_555 1_555
C5 C6 1_555 1_555
C6 C7 1_555 1_555
C8 C9 1_555 1_555
N2B C10B 1_555 1_555
C5B C6B 1_555 1_555
C6B C7B 1_555 1_555
C8B C9B 1_555 1_555

#END
