
#######################################################################
#
#                 Cambridge Crystallographic Data Centre
#                                CCDC 
#
#######################################################################
#
# If this CIF has been generated from an entry in the Cambridge 
# Structural Database, then it will include bibliographic, chemical, 
# crystal, experimental, refinement or atomic coordinate data resulting 
# from the CCDC's data processing and validation procedures.
#
#######################################################################

data_AQONEA
_symmetry_cell_setting           monoclinic
_symmetry_space_group_name_H-M   'P 21/c'
_symmetry_Int_Tables_number      14
_space_group_name_Hall           '-P 2ybc'
loop_
_symmetry_equiv_pos_site_id
_symmetry_equiv_pos_as_xyz
1 x,y,z
2 -x,1/2+y,1/2-z
3 -x,-y,-z
4 x,1/2-y,1/2+z
_cell_length_a                   18.510(4)
_cell_length_b                   7.6596(15)
_cell_length_c                   34.645(7)
_cell_angle_alpha                90
_cell_angle_beta                 97.78(3)
_cell_angle_gamma                90
_cell_volume                     4866.73
loop_
_atom_site_label
_atom_site_type_symbol
_atom_site_fract_x
_atom_site_fract_y
_atom_site_fract_z
Mn1 Mn 0.25211(4) 0.89717(8) 0.054419(15)
Mn2 Mn 0.35668(3) 1.04760(7) 0.130595(15)
Mn3 Mn 0.22319(3) 0.78617(7) 0.141364(14)
O1 O 0.23402(19) 0.8745(4) 0.00083(8)
O2 O 0.37071(19) 1.1365(4) 0.08112(8)
O3 O 0.43789(14) 1.1643(3) 0.15559(8)
O4 O 0.28586(13) 0.8547(3) 0.18682(7)
O5 O 0.16196(13) 0.6790(3) 0.17199(6)
O6 O 0.17546(16) 0.7340(3) 0.05885(7)
O7 O 0.27757(13) 0.9113(3) 0.10853(7)
O8 O 0.16849(18) 1.1063(4) 0.05838(8)
H1 H 0.1306 1.0759 0.0721
O9 O 0.33770(19) 0.6710(4) 0.06114(9)
H2 H 0.3660 0.6631 0.0854
O10 O 0.4363(3) 0.8328(6) 0.11368(16)
H3 H 0.4440 0.8221 0.0902
H4 H 0.4577 0.7654 0.1311
O11 O 0.15673(13) 1.0543(3) 0.13971(7)
N1 N 0.3321(2) 1.0639(4) 0.04859(9)
N2 N 0.35142(15) 0.9228(4) 0.17998(8)
N3 N 0.15118(17) 0.7356(4) 0.09465(8)
N4 N 0.27925(17) 1.2576(4) 0.14338(9)
N5 N 0.28397(16) 1.4034(4) 0.13671(8)
N6 N 0.2896(2) 1.5498(4) 0.13040(11)
C1 C 0.2617(3) 0.9460(5) -0.02867(11)
C2 C 0.2307(3) 0.9028(6) -0.06736(12)
C3 C 0.2623(3) 0.9792(6) -0.09760(12)
H5 H 0.2430 0.9523 -0.1231
C4 C 0.3206(3) 1.0922(6) -0.09167(13)
C5 C 0.3496(3) 1.1305(6) -0.05415(13)
H6 H 0.3895 1.2051 -0.0497
C6 C 0.3205(3) 1.0595(5) -0.02213(12)
C7 C 0.3538(3) 1.1090(5) 0.01618(12)
H7 H 0.3948 1.1803 0.0178
C8 C 0.3522(3) 1.1679(7) -0.12631(14)
H8 H 0.3745 1.2785 -0.1192
H9 H 0.3139 1.1836 -0.1477
H10 H 0.3881 1.0894 -0.1339
C9 C 0.1680(3) 0.7780(7) -0.07516(12)
C10 C 0.1418(3) 0.7563(8) -0.11943(12)
H11 H 0.1215 0.8644 -0.1299
H12 H 0.1054 0.6665 -0.1233
H13 H 0.1825 0.7245 -0.1325
C11 C 0.1010(3) 0.8424(12) -0.05690(16)
H14 H 0.1137 0.8529 -0.0292
H15 H 0.0618 0.7601 -0.0625
H16 H 0.0858 0.9541 -0.0677
C12 C 0.1928(4) 0.6009(8) -0.05935(14)
H17 H 0.2323 0.5604 -0.0723
H18 H 0.1529 0.5199 -0.0638
H19 H 0.2088 0.6098 -0.0319
C13 C 0.4914(2) 1.1003(5) 0.18127(11)
C14 C 0.5623(2) 1.1735(5) 0.18528(11)
C15 C 0.6152(2) 1.1012(5) 0.21242(11)
H20 H 0.6618 1.1491 0.2148
C16 C 0.6036(2) 0.9630(5) 0.23613(11)
C17 C 0.5342(2) 0.8974(5) 0.23294(11)
H21 H 0.5243 0.8065 0.2492
C18 C 0.4779(2) 0.9631(5) 0.20593(10)
C19 C 0.4063(2) 0.8913(5) 0.20609(11)
H22 H 0.3990 0.8169 0.2264
C20 C 0.6645(2) 0.8916(7) 0.26485(13)
H23 H 0.6449 0.8136 0.2825
H24 H 0.6893 0.9860 0.2793
H25 H 0.6982 0.8294 0.2512
C21 C 0.5777(2) 1.3313(6) 0.16123(14)
C22 C 0.5306(3) 1.4800(6) 0.17225(16)
H26 H 0.4801 1.4497 0.1657
H27 H 0.5408 1.5834 0.1583
H28 H 0.5409 1.5013 0.1998
C23 C 0.5616(2) 1.2956(6) 0.11716(13)
H29 H 0.5917 1.2014 0.1104
H30 H 0.5718 1.3987 0.1031
H31 H 0.5112 1.2647 0.1105
C24 C 0.6588(2) 1.3844(7) 0.16999(18)
H32 H 0.6696 1.4189 0.1968
H33 H 0.6681 1.4802 0.1535
H34 H 0.6889 1.2870 0.1651
C25 C 0.08920(19) 0.6883(4) 0.16789(9)
C26 C 0.05288(19) 0.6789(5) 0.20131(9)
C27 C -0.02301(19) 0.6828(5) 0.19535(10)
H35 H -0.0475 0.6780 0.2171
C28 C -0.0645(2) 0.6936(5) 0.15854(11)
C29 C -0.0283(2) 0.7017(5) 0.12664(10)
H36 H -0.0550 0.7085 0.1019
C30 C 0.04761(19) 0.7002(5) 0.13026(9)
C31 C 0.0824(2) 0.7084(5) 0.09504(10)
H37 H 0.0531 0.6931 0.0713
C32 C -0.1471(2) 0.6966(6) 0.15529(12)
H38 H -0.1676 0.6953 0.1283
H39 H -0.1623 0.8005 0.1674
H40 H -0.1635 0.5959 0.1681
C33 C 0.09664(19) 0.6641(5) 0.24233(9)
C34 C 0.1412(2) 0.4992(6) 0.24556(11)
H41 H 0.1726 0.4981 0.2257
H42 H 0.1093 0.4000 0.2424
H43 H 0.1701 0.4943 0.2707
C35 C 0.1476(2) 0.8193(6) 0.25103(10)
H44 H 0.1731 0.8090 0.2770
H45 H 0.1197 0.9254 0.2489
H46 H 0.1822 0.8215 0.2327
C36 C 0.0459(2) 0.6593(6) 0.27426(10)
H47 H 0.0129 0.5625 0.2696
H48 H 0.0186 0.7660 0.2737
H49 H 0.0746 0.6463 0.2993
C37 C 0.1013(2) 1.1191(6) 0.16163(12)
H50 H 0.0630 1.0325 0.1615
H51 H 0.1225 1.1385 0.1885
C38 C 0.0708(3) 1.2787(7) 0.14535(15)
H52 H 0.1085 1.3653 0.1460
H53 H 0.0339 1.3188 0.1602
H54 H 0.0495 1.2593 0.1189
C39 C 0.3521(5) 0.5474(8) 0.0341(2)
H55 H 0.3069 0.5152 0.0181
H56 H 0.3720 0.4434 0.0476
C40 C 0.4044(5) 0.6148(9) 0.0089(2)
H57 H 0.3820 0.7075 -0.0072
H58 H 0.4181 0.5223 -0.0074
H59 H 0.4471 0.6584 0.0249
C41 C 0.1651(4) 1.2766(9) 0.0431(2)
H60 H 0.1717 1.3587 0.0646
H61 H 0.2054 1.2924 0.0282
C42 C 0.0999(5) 1.3181(11) 0.0191(3)
H62 H 0.0808 1.2151 0.0056
H63 H 0.1094 1.4053 0.0005
H64 H 0.0650 1.3620 0.0348
Mn3_2 Mn 0.22319(3) 1.78617(7) 0.141364(14)
N6_2 N 0.2896(2) 0.5498(4) 0.13040(11)
loop_
_geom_bond_atom_site_label_1
_geom_bond_atom_site_label_2
_geom_bond_site_symmetry_1
_geom_bond_site_symmetry_2
Mn1 O1 1_555 1_555
Mn2 O2 1_555 1_555
Mn3 O4 1_555 1_555
O1 C1 1_555 1_555
O2 N1 1_555 1_555
O3 Mn2 1_555 1_555
O4 N2 1_555 1_555
O5 Mn3 1_555 1_555
O6 Mn1 1_555 1_555
O7 Mn1 1_555 1_555
O8 Mn1 1_555 1_555
H1 O8 1_555 1_555
O9 Mn1 1_555 1_555
H2 O9 1_555 1_555
O10 Mn2 1_555 1_555
H3 O10 1_555 1_555
H4 O10 1_555 1_555
O11 Mn3 1_555 1_555
N1 Mn1 1_555 1_555
N2 Mn2 1_555 1_555
N3 Mn3 1_555 1_555
N4 Mn2 1_555 1_555
N5 N4 1_555 1_555
N6 N5 1_555 1_555
C1 C2 1_555 1_555
C2 C3 1_555 1_555
C3 H5 1_555 1_555
C4 C3 1_555 1_555
C5 C4 1_555 1_555
H6 C5 1_555 1_555
C6 C1 1_555 1_555
C7 N1 1_555 1_555
H7 C7 1_555 1_555
C8 C4 1_555 1_555
H8 C8 1_555 1_555
H9 C8 1_555 1_555
H10 C8 1_555 1_555
C9 C2 1_555 1_555
C10 C9 1_555 1_555
H11 C10 1_555 1_555
H12 C10 1_555 1_555
H13 C10 1_555 1_555
C11 C9 1_555 1_555
H14 C11 1_555 1_555
H15 C11 1_555 1_555
H16 C11 1_555 1_555
C12 C9 1_555 1_555
H17 C12 1_555 1_555
H18 C12 1_555 1_555
H19 C12 1_555 1_555
C13 O3 1_555 1_555
C14 C13 1_555 1_555
C15 C14 1_555 1_555
H20 C15 1_555 1_555
C16 C15 1_555 1_555
C17 C16 1_555 1_555
H21 C17 1_555 1_555
C18 C13 1_555 1_555
C19 N2 1_555 1_555
H22 C19 1_555 1_555
C20 C16 1_555 1_555
H23 C20 1_555 1_555
H24 C20 1_555 1_555
H25 C20 1_555 1_555
C21 C14 1_555 1_555
C22 C21 1_555 1_555
H26 C22 1_555 1_555
H27 C22 1_555 1_555
H28 C22 1_555 1_555
C23 C21 1_555 1_555
H29 C23 1_555 1_555
H30 C23 1_555 1_555
H31 C23 1_555 1_555
C24 C21 1_555 1_555
H32 C24 1_555 1_555
H33 C24 1_555 1_555
H34 C24 1_555 1_555
C25 O5 1_555 1_555
C26 C25 1_555 1_555
C27 C26 1_555 1_555
H35 C27 1_555 1_555
C28 C27 1_555 1_555
C29 C28 1_555 1_555
H36 C29 1_555 1_555
C30 C25 1_555 1_555
C31 N3 1_555 1_555
H37 C31 1_555 1_555
C32 C28 1_555 1_555
H38 C32 1_555 1_555
H39 C32 1_555 1_555
H40 C32 1_555 1_555
C33 C26 1_555 1_555
C34 C33 1_555 1_555
H41 C34 1_555 1_555
H42 C34 1_555 1_555
H43 C34 1_555 1_555
C35 C33 1_555 1_555
H44 C35 1_555 1_555
H45 C35 1_555 1_555
H46 C35 1_555 1_555
C36 C33 1_555 1_555
H47 C36 1_555 1_555
H48 C36 1_555 1_555
H49 C36 1_555 1_555
C37 O11 1_555 1_555
H50 C37 1_555 1_555
H51 C37 1_555 1_555
C38 C37 1_555 1_555
H52 C38 1_555 1_555
H53 C38 1_555 1_555
H54 C38 1_555 1_555
C39 O9 1_555 1_555
H55 C39 1_555 1_555
H56 C39 1_555 1_555
C40 C39 1_555 1_555
H57 C40 1_555 1_555
H58 C40 1_555 1_555
H59 C40 1_555 1_555
C41 O8 1_555 1_555
H60 C41 1_555 1_555
H61 C41 1_555 1_555
C42 C41 1_555 1_555
H62 C42 1_555 1_555
H63 C42 1_555 1_555
H64 C42 1_555 1_555
Mn3_2 N6 1_555 1_555
N6_2 Mn3 1_555 1_555
Mn2 O7 1_555 1_555
Mn3 O7 1_555 1_555
O6 N3 1_555 1_555
C5 C6 1_555 1_555
C6 C7 1_555 1_555
C17 C18 1_555 1_555
C18 C19 1_555 1_555
C29 C30 1_555 1_555
C30 C31 1_555 1_555

#END
