
#######################################################################
#
#                 Cambridge Crystallographic Data Centre
#                                CCDC 
#
#######################################################################
#
# If this CIF has been generated from an entry in the Cambridge 
# Structural Database, then it will include bibliographic, chemical, 
# crystal, experimental, refinement or atomic coordinate data resulting 
# from the CCDC's data processing and validation procedures.
#
#######################################################################

data_AQONAW
_symmetry_cell_setting           monoclinic
_symmetry_space_group_name_H-M   'P 21/n'
_symmetry_Int_Tables_number      14
_space_group_name_Hall           '-P 2yn'
loop_
_symmetry_equiv_pos_site_id
_symmetry_equiv_pos_as_xyz
1 x,y,z
2 1/2-x,1/2+y,1/2-z
3 -x,-y,-z
4 1/2+x,1/2-y,1/2+z
_cell_length_a                   13.624(3)
_cell_length_b                   14.803(3)
_cell_length_c                   27.041(5)
_cell_angle_alpha                90
_cell_angle_beta                 91.89(3)
_cell_angle_gamma                90
_cell_volume                     5450.56
loop_
_atom_site_label
_atom_site_type_symbol
_atom_site_fract_x
_atom_site_fract_y
_atom_site_fract_z
Mn1 Mn 0.66959(6) 0.20653(5) 0.35112(3)
Mn2 Mn 0.86186(6) 0.24918(5) 0.28601(3)
Mn3 Mn 0.66221(6) 0.17273(5) 0.23193(3)
O1 O 0.7321(3) 0.2069(2) 0.29005(12)
O2 O 0.6152(3) 0.2068(2) 0.41420(12)
O3 O 0.8757(3) 0.2644(3) 0.35645(13)
O4 O 0.9933(3) 0.2799(2) 0.27960(12)
O5 O 0.7762(3) 0.1871(2) 0.19089(12)
O6 O 0.5882(3) 0.1386(2) 0.17602(12)
O7 O 0.5533(3) 0.1519(3) 0.32285(12)
O8 O 0.7432(3) 0.0730(3) 0.37128(16)
H1 H 0.8113 0.0680 0.3731
O9 O 0.6063(3) 0.3460(3) 0.33643(14)
H2 H 0.6499 0.3941 0.3347
O10 O 0.7951(3) 0.3854(2) 0.27146(13)
O11 O 0.8997(3) 0.0971(3) 0.28575(14)
H3 H 0.8610 0.0573 0.3032
O12 O 0.6278(3) 0.3244(2) 0.22197(13)
H4 H 0.6125 0.3594 0.2492
O13 O 0.7860(3) 0.5324(2) 0.25530(13)
N1 N 0.7871(3) 0.2712(3) 0.37992(15)
N2 N 0.8507(3) 0.2390(3) 0.21205(15)
N3 N 0.5423(3) 0.1604(3) 0.27235(15)
C1 C 0.6199(4) 0.2744(4) 0.44704(17)
C2 C 0.5442(4) 0.2860(4) 0.48136(18)
C3 C 0.5530(4) 0.3587(4) 0.51411(18)
H5 H 0.5024 0.3682 0.5358
C4 C 0.6323(4) 0.4176(4) 0.51641(18)
C5 C 0.7072(4) 0.4031(4) 0.48472(18)
H6 H 0.7618 0.4407 0.4863
C6 C 0.7030(4) 0.3320(4) 0.44966(18)
C7 C 0.7874(4) 0.3214(4) 0.41877(17)
H7 H 0.8446 0.3526 0.4275
C8 C 0.4574(4) 0.2198(4) 0.48217(19)
C9 C 0.3976(4) 0.2242(4) 0.43308(19)
H8 H 0.3724 0.2843 0.4283
H9 H 0.3440 0.1823 0.4340
H10 H 0.4391 0.2090 0.4063
C10 C 0.4938(5) 0.1229(4) 0.4925(2)
H11 H 0.5311 0.1022 0.4652
H12 H 0.4384 0.0838 0.4965
H13 H 0.5345 0.1223 0.5221
C11 C 0.3854(5) 0.2435(4) 0.5232(2)
H14 H 0.4199 0.2433 0.5548
H15 H 0.3335 0.1996 0.5233
H16 H 0.3581 0.3024 0.5170
C12 C 0.6355(5) 0.4952(4) 0.5528(2)
H17 H 0.6964 0.5271 0.5503
H18 H 0.6303 0.4721 0.5858
H19 H 0.5818 0.5356 0.5455
C13 C 1.0328(4) 0.3322(4) 0.24526(19)
C14 C 1.1178(4) 0.3838(4) 0.25592(19)
C15 C 1.1531(4) 0.4385(4) 0.2194(2)
H20 H 1.2079 0.4740 0.2269
C16 C 1.1116(4) 0.4439(4) 0.1718(2)
C17 C 1.0308(4) 0.3913(4) 0.16068(18)
H21 H 1.0031 0.3925 0.1288
C18 C 0.9892(4) 0.3357(3) 0.19667(19)
C19 C 0.9055(4) 0.2806(4) 0.18171(18)
H22 H 0.8904 0.2751 0.1481
C20 C 1.1689(4) 0.3777(4) 0.3079(2)
C21 C 1.2004(5) 0.2801(4) 0.3188(2)
H23 H 1.2486 0.2619 0.2957
H24 H 1.1443 0.2410 0.3156
H25 H 1.2280 0.2762 0.3519
C22 C 1.2625(5) 0.4359(5) 0.3114(2)
H26 H 1.2949 0.4271 0.3431
H27 H 1.2452 0.4984 0.3075
H28 H 1.3058 0.4185 0.2857
C23 C 1.0987(4) 0.4106(4) 0.3479(2)
H29 H 1.0405 0.3739 0.3470
H30 H 1.0810 0.4725 0.3416
H31 H 1.1308 0.4060 0.3799
C24 C 1.1515(5) 0.5076(5) 0.1343(2)
H32 H 1.1690 0.4743 0.1054
H33 H 1.2087 0.5374 0.1481
H34 H 1.1025 0.5518 0.1253
C25 C 0.4942(4) 0.1562(3) 0.16482(18)
C26 C 0.4615(4) 0.1594(4) 0.11434(19)
C27 C 0.3623(4) 0.1770(4) 0.1049(2)
H35 H 0.3402 0.1804 0.0720
C28 C 0.2933(4) 0.1900(4) 0.1419(2)
C29 C 0.3272(4) 0.1840(4) 0.1903(2)
H36 H 0.2829 0.1910 0.2155
C30 C 0.4258(4) 0.1677(4) 0.20276(19)
C31 C 0.4535(4) 0.1611(4) 0.25471(19)
H37 H 0.4033 0.1571 0.2771
C32 C 0.5324(4) 0.1417(4) 0.07290(19)
C33 C 0.6152(5) 0.2127(4) 0.0739(2)
H38 H 0.6517 0.2089 0.1048
H39 H 0.5872 0.2719 0.0703
H40 H 0.6582 0.2014 0.0472
C34 C 0.5760(5) 0.0477(4) 0.0775(2)
H41 H 0.6119 0.0424 0.1085
H42 H 0.6195 0.0374 0.0509
H43 H 0.5242 0.0037 0.0760
C35 C 0.4798(5) 0.1477(5) 0.0212(2)
H44 H 0.5267 0.1380 -0.0040
H45 H 0.4508 0.2064 0.0170
H46 H 0.4295 0.1024 0.0186
C36 C 0.1863(5) 0.2116(6) 0.1294(3)
H47 H 0.1464 0.1599 0.1364
H48 H 0.1788 0.2265 0.0950
H49 H 0.1659 0.2619 0.1490
C37 C 0.6827(8) -0.0024(6) 0.3810(4)
H50 H 0.6322 0.0153 0.4030
H51 H 0.7218 -0.0495 0.3961
H52 H 0.6531 -0.0240 0.3506
C38 C 0.5050(4) 0.3650(4) 0.3297(2)
H53 H 0.4675 0.3195 0.3460
H54 H 0.4877 0.3653 0.2950
H55 H 0.4910 0.4230 0.3437
C39 C 0.8301(4) 0.4632(3) 0.27189(18)
H56 H 0.8933 0.4708 0.2854
C40 C 0.9814(5) 0.0624(5) 0.2595(3)
H57 H 0.9696 0.0707 0.2246
H58 H 0.9892 -0.0008 0.2666
H59 H 1.0400 0.0941 0.2698
C41 C 0.6299(8) 0.3644(6) 0.1741(3)
H60 H 0.6616 0.3241 0.1519
H61 H 0.6655 0.4204 0.1761
H62 H 0.5639 0.3758 0.1621
Mn3A Mn 0.83779(6) 0.67273(5) 0.26807(3)
O13A O 0.7140(3) 0.0324(2) 0.24470(13)
O14 O 0.6733(3) 0.5162(3) 0.34962(14)
H63 H 0.6894 0.5551 0.3299
C42 C 0.6281(5) 0.5574(4) 0.38990(19)
H64 H 0.6066 0.5117 0.4123
H65 H 0.5726 0.5921 0.3781
H66 H 0.6744 0.5965 0.4068
O15 O -0.0099(9) 0.1595(10) 0.4223(5)
H67 H -0.0259 0.1212 0.4017
C43 C 0.0897(11) 0.1673(15) 0.4287(7)
H68 H 0.1084 0.2293 0.4246
H69 H 0.1214 0.1307 0.4047
H70 H 0.1091 0.1475 0.4614
O16 O 0.8411(11) 0.0676(10) 0.4641(5)
H71 H 0.8876 0.0992 0.4564
C44 C 0.7981(12) 0.1046(10) 0.5067(4)
H72 H 0.8483 0.1316 0.5276
H73 H 0.7660 0.0576 0.5245
H74 H 0.7508 0.1498 0.4968
loop_
_geom_bond_atom_site_label_1
_geom_bond_atom_site_label_2
_geom_bond_site_symmetry_1
_geom_bond_site_symmetry_2
Mn1 O1 1_555 1_555
Mn2 O1 1_555 1_555
Mn3 O1 1_555 1_555
O2 Mn1 1_555 1_555
O3 Mn2 1_555 1_555
O4 Mn2 1_555 1_555
O5 Mn3 1_555 1_555
O6 Mn3 1_555 1_555
O7 Mn1 1_555 1_555
O8 Mn1 1_555 1_555
H1 O8 1_555 1_555
O9 Mn1 1_555 1_555
H2 O9 1_555 1_555
O10 Mn2 1_555 1_555
O11 Mn2 1_555 1_555
H3 O11 1_555 1_555
O12 Mn3 1_555 1_555
H4 O12 1_555 1_555
O13 C39 1_555 1_555
N1 Mn1 1_555 1_555
N2 Mn2 1_555 1_555
N3 Mn3 1_555 1_555
C1 O2 1_555 1_555
C2 C1 1_555 1_555
C3 C2 1_555 1_555
H5 C3 1_555 1_555
C4 C3 1_555 1_555
C5 C4 1_555 1_555
H6 C5 1_555 1_555
C6 C1 1_555 1_555
C7 N1 1_555 1_555
H7 C7 1_555 1_555
C8 C2 1_555 1_555
C9 C8 1_555 1_555
H8 C9 1_555 1_555
H9 C9 1_555 1_555
H10 C9 1_555 1_555
C10 C8 1_555 1_555
H11 C10 1_555 1_555
H12 C10 1_555 1_555
H13 C10 1_555 1_555
C11 C8 1_555 1_555
H14 C11 1_555 1_555
H15 C11 1_555 1_555
H16 C11 1_555 1_555
C12 C4 1_555 1_555
H17 C12 1_555 1_555
H18 C12 1_555 1_555
H19 C12 1_555 1_555
C13 O4 1_555 1_555
C14 C13 1_555 1_555
C15 C14 1_555 1_555
H20 C15 1_555 1_555
C16 C15 1_555 1_555
C17 C16 1_555 1_555
H21 C17 1_555 1_555
C18 C13 1_555 1_555
C19 N2 1_555 1_555
H22 C19 1_555 1_555
C20 C14 1_555 1_555
C21 C20 1_555 1_555
H23 C21 1_555 1_555
H24 C21 1_555 1_555
H25 C21 1_555 1_555
C22 C20 1_555 1_555
H26 C22 1_555 1_555
H27 C22 1_555 1_555
H28 C22 1_555 1_555
C23 C20 1_555 1_555
H29 C23 1_555 1_555
H30 C23 1_555 1_555
H31 C23 1_555 1_555
C24 C16 1_555 1_555
H32 C24 1_555 1_555
H33 C24 1_555 1_555
H34 C24 1_555 1_555
C25 O6 1_555 1_555
C26 C25 1_555 1_555
C27 C26 1_555 1_555
H35 C27 1_555 1_555
C28 C27 1_555 1_555
C29 C28 1_555 1_555
H36 C29 1_555 1_555
C30 C25 1_555 1_555
C31 N3 1_555 1_555
H37 C31 1_555 1_555
C32 C26 1_555 1_555
C33 C32 1_555 1_555
H38 C33 1_555 1_555
H39 C33 1_555 1_555
H40 C33 1_555 1_555
C34 C32 1_555 1_555
H41 C34 1_555 1_555
H42 C34 1_555 1_555
H43 C34 1_555 1_555
C35 C32 1_555 1_555
H44 C35 1_555 1_555
H45 C35 1_555 1_555
H46 C35 1_555 1_555
C36 C28 1_555 1_555
H47 C36 1_555 1_555
H48 C36 1_555 1_555
H49 C36 1_555 1_555
C37 O8 1_555 1_555
H50 C37 1_555 1_555
H51 C37 1_555 1_555
H52 C37 1_555 1_555
C38 O9 1_555 1_555
H53 C38 1_555 1_555
H54 C38 1_555 1_555
H55 C38 1_555 1_555
C39 O10 1_555 1_555
H56 C39 1_555 1_555
C40 O11 1_555 1_555
H57 C40 1_555 1_555
H58 C40 1_555 1_555
H59 C40 1_555 1_555
C41 O12 1_555 1_555
H60 C41 1_555 1_555
H61 C41 1_555 1_555
H62 C41 1_555 1_555
O14 H63 1_555 1_555
C42 O14 1_555 1_555
H64 C42 1_555 1_555
H65 C42 1_555 1_555
H66 C42 1_555 1_555
O15 H67 1_555 1_555
C43 O15 1_555 1_555
H68 C43 1_555 1_555
H69 C43 1_555 1_555
H70 C43 1_555 1_555
O16 H71 1_555 1_555
C44 O16 1_555 1_555
H72 C44 1_555 1_555
H73 C44 1_555 1_555
H74 C44 1_555 1_555
Mn3A O13 1_555 1_555
O13A Mn3 1_555 1_555
O3 N1 1_555 1_555
O5 N2 1_555 1_555
O7 N3 1_555 1_555
C5 C6 1_555 1_555
C6 C7 1_555 1_555
C17 C18 1_555 1_555
C18 C19 1_555 1_555
C29 C30 1_555 1_555
C30 C31 1_555 1_555

#END
