
#######################################################################
#
#                 Cambridge Crystallographic Data Centre
#                                CCDC 
#
#######################################################################
#
# If this CIF has been generated from an entry in the Cambridge 
# Structural Database, then it will include bibliographic, chemical, 
# crystal, experimental, refinement or atomic coordinate data resulting 
# from the CCDC's data processing and validation procedures.
#
#######################################################################

data_AQOPUR
_symmetry_cell_setting           monoclinic
_symmetry_space_group_name_H-M   'P 21/m'
_symmetry_Int_Tables_number      11
_space_group_name_Hall           '-P 2yb'
loop_
_symmetry_equiv_pos_site_id
_symmetry_equiv_pos_as_xyz
1 x,y,z
2 -x,1/2+y,-z
3 -x,-y,-z
4 x,1/2-y,z
_cell_length_a                   8.9673(18)
_cell_length_b                   6.9752(13)
_cell_length_c                   6.0158(14)
_cell_angle_alpha                90
_cell_angle_beta                 98.502(12)
_cell_angle_gamma                90
_cell_volume                     372.145
loop_
_atom_site_label
_atom_site_type_symbol
_atom_site_fract_x
_atom_site_fract_y
_atom_site_fract_z
Ni1 Ni 0.000000 0.000000 0.000000
N1 N 0.17668(27) 0.15060(14) 0.0495(30)
C1 C 0.32651(28) 0.09041(13) 0.1022(33)
C2 C 0.41520(40) 0.250000 0.1433(31)
N2 N -0.0929(16) 0.15055(14) 0.2009(17)
C3 C -0.1695(13) 0.09069(14) 0.3755(15)
C4 C -0.1924(18) 0.250000 0.5018(15)
N1C N 0.17668(27) 0.34940(14) 0.0495(30)
C1C C 0.32651(28) 0.40959(13) 0.1022(33)
N2C N -0.0929(16) 0.34945(14) 0.2009(17)
C3C C -0.1695(13) 0.40931(14) 0.3755(15)
N1B N -0.17668(27) -0.15060(14) -0.0495(30)
N2B N 0.0929(16) -0.15055(14) -0.2009(17)
Ni1A Ni 0.000000 0.500000 0.000000
loop_
_geom_bond_atom_site_label_1
_geom_bond_atom_site_label_2
_geom_bond_site_symmetry_1
_geom_bond_site_symmetry_2
Ni1 N1 1_555 1_555
N1 C1 1_555 1_555
C1 C2 1_555 1_555
C2 C1C 1_555 1_555
N2 Ni1 1_555 1_555
C3 N2 1_555 1_555
C4 C3 1_555 1_555
N1C N1 1_555 1_555
C1C N1C 1_555 1_555
N2C N2 1_555 1_555
C3C C4 1_555 1_555
N1B Ni1 1_555 1_555
N2B Ni1 1_555 1_555
Ni1A N1C 1_555 1_555
N2C C3C 1_555 1_555
N2C Ni1A 1_555 1_555

#END
