
#######################################################################
#
#                 Cambridge Crystallographic Data Centre
#                                CCDC 
#
#######################################################################
#
# If this CIF has been generated from an entry in the Cambridge 
# Structural Database, then it will include bibliographic, chemical, 
# crystal, experimental, refinement or atomic coordinate data resulting 
# from the CCDC's data processing and validation procedures.
#
#######################################################################

data_AQOPUR01
_symmetry_cell_setting           orthorhombic
_symmetry_space_group_name_H-M   'C m c m'
_symmetry_Int_Tables_number      63
_space_group_name_Hall           '-C 2n 2'
loop_
_symmetry_equiv_pos_site_id
_symmetry_equiv_pos_as_xyz
1 x,y,z
2 -x,-y,1/2+z
3 x,-y,-z
4 -x,y,1/2-z
5 1/2+x,1/2+y,z
6 1/2-x,1/2-y,1/2+z
7 1/2+x,1/2-y,-z
8 1/2-x,1/2+y,1/2-z
9 -x,-y,-z
10 x,y,1/2-z
11 -x,y,z
12 x,-y,1/2+z
13 1/2-x,1/2-y,-z
14 1/2+x,1/2+y,1/2-z
15 1/2-x,1/2+y,z
16 1/2+x,1/2-y,1/2+z
_cell_length_a                   16.6758(11)
_cell_length_b                   6.4872(4)
_cell_length_c                   6.9423(6)
_cell_angle_alpha                90
_cell_angle_beta                 90
_cell_angle_gamma                90
_cell_volume                     751.013
loop_
_atom_site_label
_atom_site_type_symbol
_atom_site_fract_x
_atom_site_fract_y
_atom_site_fract_z
Ni1 Ni 0.000000 0.000000 0.000000
N1 N 0.08011(20) 0.1209(6) 0.15062(8)
C1 C 0.14581(25) 0.2327(6) 0.08947(8)
C2 C 0.18046(36) 0.3213(8) 0.250000
N1I N 0.08011(20) 0.1209(6) 0.34938(8)
C1I C 0.14581(25) 0.2327(6) 0.41053(8)
N1B N 0.08011(20) -0.1209(6) -0.15062(8)
C1B C 0.14581(25) -0.2327(6) -0.08947(8)
C2B C 0.18046(36) -0.3213(8) -0.250000
N1K N 0.08011(20) -0.1209(6) -0.34938(8)
C1K C 0.14581(25) -0.2327(6) -0.41053(8)
N1H N -0.08011(20) -0.1209(6) -0.15062(8)
N1J N -0.08011(20) 0.1209(6) 0.15062(8)
Ni1A Ni 0.000000 0.000000 0.500000
Ni1A_2 Ni 0.000000 0.000000 -0.500000
loop_
_geom_bond_atom_site_label_1
_geom_bond_atom_site_label_2
_geom_bond_site_symmetry_1
_geom_bond_site_symmetry_2
Ni1 N1 1_555 1_555
N1 C1 1_555 1_555
C1 C2 1_555 1_555
C2 C1I 1_555 1_555
N1I N1 1_555 1_555
C1I N1I 1_555 1_555
N1B Ni1 1_555 1_555
C1B N1B 1_555 1_555
C2B C1B 1_555 1_555
N1K N1B 1_555 1_555
C1K C2B 1_555 1_555
N1H Ni1 1_555 1_555
N1J Ni1 1_555 1_555
Ni1A N1I 1_555 1_555
Ni1A_2 N1K 1_555 1_555
N1K C1K 1_555 1_555

#END
