
#######################################################################
#
#                 Cambridge Crystallographic Data Centre
#                                CCDC 
#
#######################################################################
#
# If this CIF has been generated from an entry in the Cambridge 
# Structural Database, then it will include bibliographic, chemical, 
# crystal, experimental, refinement or atomic coordinate data resulting 
# from the CCDC's data processing and validation procedures.
#
#######################################################################

data_AQOWUZ
_symmetry_cell_setting           monoclinic
_symmetry_space_group_name_H-M   'P 21/c'
_symmetry_Int_Tables_number      14
_space_group_name_Hall           '-P 2ybc'
loop_
_symmetry_equiv_pos_site_id
_symmetry_equiv_pos_as_xyz
1 x,y,z
2 -x,1/2+y,1/2-z
3 -x,-y,-z
4 x,1/2-y,1/2+z
_cell_length_a                   8.8901(3)
_cell_length_b                   9.6891(3)
_cell_length_c                   16.3307(5)
_cell_angle_alpha                90
_cell_angle_beta                 106.524(2)
_cell_angle_gamma                90
_cell_volume                     1348.58
loop_
_atom_site_label
_atom_site_type_symbol
_atom_site_fract_x
_atom_site_fract_y
_atom_site_fract_z
Zn1 Zn 0.5000 0.0000 0.0000
S1 S 0.32134(5) 0.25783(4) 0.07181(3)
O1 O 0.42620(15) 0.13960(12) 0.08039(8)
O2 O 0.31754(18) 0.31005(13) 0.15391(9)
O3 O 0.17062(16) 0.23835(14) 0.01096(9)
C1 C 0.4180(2) 0.39214(17) 0.02922(11)
C2 C 0.3528(2) 0.46100(19) -0.04713(12)
F1 F 0.20904(15) 0.43068(14) -0.09719(8)
C3 C 0.5672(2) 0.43483(19) 0.07458(12)
F2 F 0.64095(15) 0.37296(13) 0.14892(8)
O4 O 0.69078(16) -0.04303(13) 0.10387(8)
C4 C 0.8265(2) -0.00664(19) 0.10787(12)
H1 H 0.849(3) 0.050(2) 0.0629(14)
N1 N 0.95223(19) -0.03885(16) 0.17047(10)
C5 C 1.1075(2) 0.0081(2) 0.16988(14)
H2 H 1.1519 0.0666 0.2199
H3 H 1.0993 0.0613 0.1177
H4 H 1.1758 -0.0719 0.1716
C6 C 0.9415(3) -0.1284(2) 0.23997(13)
H5 H 0.9835 -0.0804 0.2945
H6 H 1.0025 -0.2126 0.2396
H7 H 0.8315 -0.1528 0.2327
O5 O 0.37290(16) -0.15699(13) 0.03801(8)
C7 C 0.4095(2) -0.21362(18) 0.10938(12)
H8 H 0.507(2) -0.1935(19) 0.1517(12)
N2 N 0.32165(19) -0.30623(15) 0.13310(10)
C8 C 0.3710(3) -0.3670(2) 0.21884(12)
H9 H 0.2926 -0.3464 0.2488
H10 H 0.4725 -0.3279 0.2508
H11 H 0.3811 -0.4672 0.2142
C9 C 0.1692(2) -0.3468(2) 0.07808(13)
H12 H 0.1605 -0.4476 0.0775
H13 H 0.1575 -0.3134 0.0200
H14 H 0.0866 -0.3067 0.0997
Zn1_2 Zn 0.5000 1.0000 0.0000
S1B S 0.67866(5) 0.74217(4) -0.07181(3)
O1B O 0.57380(15) 0.86040(12) -0.08039(8)
O1B_2 O 0.57380(15) -0.13960(12) -0.08039(8)
O2B O 0.68246(18) 0.68995(13) -0.15391(9)
O3B O 0.82938(16) 0.76165(14) -0.01096(9)
C1B C 0.5820(2) 0.60786(17) -0.02922(11)
C2B C 0.6472(2) 0.53900(19) 0.04713(12)
F1B F 0.79096(15) 0.56932(14) 0.09719(8)
C3B C 0.4328(2) 0.56517(19) -0.07458(12)
F2B F 0.35905(15) 0.62704(13) -0.14892(8)
O4B O 0.30922(16) 0.04303(13) -0.10387(8)
C4B C 0.1735(2) 0.00664(19) -0.10787(12)
H1B H 0.151(3) -0.050(2) -0.0629(14)
N1B N 0.04777(19) 0.03885(16) -0.17047(10)
C5B C -0.1075(2) -0.0081(2) -0.16988(14)
H2B H -0.1519 -0.0666 -0.2199
H3B H -0.0993 -0.0613 -0.1177
H4B H -0.1758 0.0719 -0.1716
C6B C 0.0585(3) 0.1284(2) -0.23997(13)
H5B H 0.0165 0.0804 -0.2945
H6B H -0.0025 0.2126 -0.2396
H7B H 0.1685 0.1528 -0.2327
O5B O 0.62710(16) 0.15699(13) -0.03801(8)
C7B C 0.5905(2) 0.21362(18) -0.10938(12)
H8B H 0.493(2) 0.1935(19) -0.1517(12)
N2B N 0.67835(19) 0.30623(15) -0.13310(10)
C8B C 0.6290(3) 0.3670(2) -0.21884(12)
H9B H 0.7074 0.3464 -0.2488
H10B H 0.5275 0.3279 -0.2508
H11B H 0.6189 0.4672 -0.2142
C9B C 0.8308(2) 0.3468(2) -0.07808(13)
H12B H 0.8395 0.4476 -0.0775
H13B H 0.8425 0.3134 -0.0200
H14B H 0.9134 0.3067 -0.0997
loop_
_geom_bond_atom_site_label_1
_geom_bond_atom_site_label_2
_geom_bond_site_symmetry_1
_geom_bond_site_symmetry_2
Zn1 O1 1_555 1_555
S1 O1 1_555 1_555
O2 S1 1_555 1_555
O3 S1 1_555 1_555
C1 S1 1_555 1_555
C2 C1 1_555 1_555
F1 C2 1_555 1_555
C3 C1 1_555 1_555
F2 C3 1_555 1_555
O4 Zn1 1_555 1_555
C4 O4 1_555 1_555
H1 C4 1_555 1_555
N1 C4 1_555 1_555
C5 N1 1_555 1_555
H2 C5 1_555 1_555
H3 C5 1_555 1_555
H4 C5 1_555 1_555
C6 N1 1_555 1_555
H5 C6 1_555 1_555
H6 C6 1_555 1_555
H7 C6 1_555 1_555
O5 Zn1 1_555 1_555
C7 O5 1_555 1_555
H8 C7 1_555 1_555
N2 C7 1_555 1_555
C8 N2 1_555 1_555
H9 C8 1_555 1_555
H10 C8 1_555 1_555
H11 C8 1_555 1_555
C9 N2 1_555 1_555
H12 C9 1_555 1_555
H13 C9 1_555 1_555
H14 C9 1_555 1_555
Zn1_2 O1B 1_555 1_555
S1B O1B 1_555 1_555
O1B_2 Zn1 1_555 1_555
O2B S1B 1_555 1_555
O3B S1B 1_555 1_555
C1B S1B 1_555 1_555
C2B C3 1_555 1_555
F1B C2B 1_555 1_555
C3B C2 1_555 1_555
F2B C3B 1_555 1_555
O4B Zn1 1_555 1_555
C4B O4B 1_555 1_555
H1B C4B 1_555 1_555
N1B C4B 1_555 1_555
C5B N1B 1_555 1_555
H2B C5B 1_555 1_555
H3B C5B 1_555 1_555
H4B C5B 1_555 1_555
C6B N1B 1_555 1_555
H5B C6B 1_555 1_555
H6B C6B 1_555 1_555
H7B C6B 1_555 1_555
O5B Zn1 1_555 1_555
C7B O5B 1_555 1_555
H8B C7B 1_555 1_555
N2B C7B 1_555 1_555
C8B N2B 1_555 1_555
H9B C8B 1_555 1_555
H10B C8B 1_555 1_555
H11B C8B 1_555 1_555
C9B N2B 1_555 1_555
H12B C9B 1_555 1_555
H13B C9B 1_555 1_555
H14B C9B 1_555 1_555
C1B C2B 1_555 1_555
C1B C3B 1_555 1_555

#END
