
#######################################################################
#
#                 Cambridge Crystallographic Data Centre
#                                CCDC 
#
#######################################################################
#
# If this CIF has been generated from an entry in the Cambridge 
# Structural Database, then it will include bibliographic, chemical, 
# crystal, experimental, refinement or atomic coordinate data resulting 
# from the CCDC's data processing and validation procedures.
#
#######################################################################

data_AQUMIJ
_symmetry_cell_setting           triclinic
_symmetry_space_group_name_H-M   'P -1'
_symmetry_Int_Tables_number      2
_space_group_name_Hall           '-P 1'
loop_
_symmetry_equiv_pos_site_id
_symmetry_equiv_pos_as_xyz
1 x,y,z
2 -x,-y,-z
_cell_length_a                   8.7928(18)
_cell_length_b                   10.996(2)
_cell_length_c                   12.632(3)
_cell_angle_alpha                101.775(2)
_cell_angle_beta                 97.107(2)
_cell_angle_gamma                98.417(3)
_cell_volume                     1167.78
loop_
_atom_site_label
_atom_site_type_symbol
_atom_site_fract_x
_atom_site_fract_y
_atom_site_fract_z
Zn1 Zn 1.0000 1.0000 1.0000
C15 C 1.0635(3) 1.0700(3) 0.7813(2)
H15 H 1.1682 1.0812 0.8164
C16 C 1.0358(4) 1.0895(3) 0.6766(2)
H16 H 1.1201 1.1140 0.6406
C17 C 0.8854(4) 1.0731(3) 0.6252(2)
H17 H 0.8644 1.0845 0.5526
C18 C 0.7632(3) 1.0397(3) 0.6801(2)
C19 C 0.8013(3) 1.0220(3) 0.7847(2)
H18 H 0.7191 0.9988 0.8229
C20 C 0.5985(3) 1.0223(3) 0.6272(2)
C21 C 0.4731(4) 1.0263(4) 0.6943(3)
H19 H 0.3726 0.9909 0.6472
H20 H 0.4731 1.1139 0.7308
H21 H 0.4901 0.9766 0.7495
O5 O 0.9104(2) 0.81244(19) 0.93910(15)
H22 H 0.8832 0.7820 0.8707
H23 H 0.9129 0.7596 0.9796
O6 O 0.7828(2) 1.0336(2) 1.03517(16)
H24 H 0.7688 1.1092 1.0394
H25 H 0.7053 0.9734 1.0176
N1 N 0.9486(3) 1.0358(2) 0.83517(18)
N2 N 0.5781(3) 1.0064(3) 0.5234(2)
Zn1_2 Zn 0.0000 1.0000 0.0000
C15A C -0.0635(3) 0.9300(3) 0.2187(2)
H15A H -0.1682 0.9188 0.1836
C16A C -0.0358(4) 0.9105(3) 0.3234(2)
H16A H -0.1201 0.8860 0.3594
C17A C 0.1146(4) 0.9269(3) 0.3748(2)
H17A H 0.1356 0.9155 0.4474
C18A C 0.2368(3) 0.9603(3) 0.3199(2)
C19A C 0.1987(3) 0.9780(3) 0.2153(2)
H18A H 0.2809 1.0012 0.1771
C20A C 0.4015(3) 0.9777(3) 0.3728(2)
C21A C 0.5269(4) 0.9737(4) 0.3057(3)
H19A H 0.6274 1.0091 0.3528
H20A H 0.5269 0.8861 0.2692
H21A H 0.5099 1.0234 0.2505
O5A O 1.0896(2) 1.18756(19) 1.06090(15)
H22A H 1.1168 1.2180 1.1293
H23A H 1.0871 1.2404 1.0204
O6A O 1.2172(2) 0.9664(2) 0.96483(16)
H24A H 1.2312 0.8908 0.9606
H25A H 1.2947 1.0266 0.9824
N1A N 0.0514(3) 0.9642(2) 0.16483(18)
N1A_2 N 1.0514(3) 0.9642(2) 1.16483(18)
N2A N 0.4219(3) 0.9936(3) 0.4766(2)
Cl1 Cl 0.47806(9) 0.75848(8) 0.94329(6)
O1 O 0.5069(3) 0.8422(3) 0.8724(2)
O2 O 0.3148(3) 0.7371(2) 0.9511(2)
O3 O 0.5235(3) 0.6425(2) 0.9015(2)
O4 O 0.5657(3) 0.8168(3) 1.04960(19)
C1 C 0.9483(4) 0.7283(3) 0.6510(2)
H1 H 1.0551 0.7451 0.6827
C2 C 0.9101(4) 0.7135(4) 0.5392(3)
H2 H 0.9893 0.7182 0.4946
C3 C 0.7561(4) 0.6919(3) 0.4935(3)
H3 H 0.7279 0.6837 0.4170
C4 C 0.6416(4) 0.6821(3) 0.5591(2)
C5 C 0.6922(4) 0.6968(3) 0.6705(2)
H4 H 0.6157 0.6898 0.7168
C6 C 0.4734(4) 0.6596(3) 0.5127(2)
C7 C 0.3556(4) 0.6548(4) 0.5869(3)
H5 H 0.3656 0.7379 0.6361
H6 H 0.3722 0.5920 0.6301
H7 H 0.2511 0.6313 0.5434
C8 C -0.2062(4) 0.5899(3) 0.1169(3)
H8 H -0.3108 0.5853 0.0841
C9 C -0.1789(4) 0.5450(3) 0.2101(3)
H9 H -0.2636 0.5079 0.2397
C10 C -0.0290(4) 0.5539(3) 0.2603(3)
H10 H -0.0091 0.5258 0.3261
C11 C 0.0931(4) 0.6043(3) 0.2137(2)
C12 C 0.0557(4) 0.6448(3) 0.1188(2)
H11 H 0.1385 0.6780 0.0855
C13 C 0.2586(4) 0.6175(3) 0.2641(2)
C14 C 0.3778(4) 0.6189(4) 0.1912(3)
H12 H 0.3859 0.6967 0.1643
H13 H 0.3479 0.5459 0.1290
H14 H 0.4786 0.6149 0.2319
N3 N 0.8410(3) 0.7200(3) 0.71591(19)
N4 N 0.4429(3) 0.6457(3) 0.4094(2)
N5 N 0.2832(3) 0.6296(3) 0.3675(2)
N6 N -0.0906(3) 0.6400(2) 0.07081(19)
loop_
_geom_bond_atom_site_label_1
_geom_bond_atom_site_label_2
_geom_bond_site_symmetry_1
_geom_bond_site_symmetry_2
Zn1 O5 1_555 1_555
Cl1 O1 1_555 1_555
C1 H1 1_555 1_555
C2 C1 1_555 1_555
H2 C2 1_555 1_555
C3 C2 1_555 1_555
H3 C3 1_555 1_555
C4 C3 1_555 1_555
C5 C4 1_555 1_555
H4 C5 1_555 1_555
C6 C4 1_555 1_555
C7 C6 1_555 1_555
H5 C7 1_555 1_555
H6 C7 1_555 1_555
H7 C7 1_555 1_555
C8 H8 1_555 1_555
C9 C8 1_555 1_555
H9 C9 1_555 1_555
C10 C9 1_555 1_555
H10 C10 1_555 1_555
C11 C10 1_555 1_555
C12 C11 1_555 1_555
H11 C12 1_555 1_555
C13 C11 1_555 1_555
C14 C13 1_555 1_555
H12 C14 1_555 1_555
H13 C14 1_555 1_555
H14 C14 1_555 1_555
C15 H15 1_555 1_555
C16 C15 1_555 1_555
H16 C16 1_555 1_555
C17 C16 1_555 1_555
H17 C17 1_555 1_555
C18 C17 1_555 1_555
C19 C18 1_555 1_555
H18 C19 1_555 1_555
C20 C18 1_555 1_555
C21 C20 1_555 1_555
H19 C21 1_555 1_555
H20 C21 1_555 1_555
H21 C21 1_555 1_555
O2 Cl1 1_555 1_555
O3 Cl1 1_555 1_555
O4 Cl1 1_555 1_555
O5 H22 1_555 1_555
H23 O5 1_555 1_555
O6 Zn1 1_555 1_555
H24 O6 1_555 1_555
H25 O6 1_555 1_555
N1 Zn1 1_555 1_555
N2 C20 1_555 1_555
N3 C1 1_555 1_555
N4 C6 1_555 1_555
N5 C13 1_555 1_555
N6 C8 1_555 1_555
Zn1_2 N1A 1_555 1_555
C15A H15A 1_555 1_555
C16A C15A 1_555 1_555
H16A C16A 1_555 1_555
C17A C16A 1_555 1_555
H17A C17A 1_555 1_555
C18A C17A 1_555 1_555
C19A C18A 1_555 1_555
H18A C19A 1_555 1_555
C20A C18A 1_555 1_555
C21A C20A 1_555 1_555
H19A C21A 1_555 1_555
H20A C21A 1_555 1_555
H21A C21A 1_555 1_555
O5A Zn1 1_555 1_555
H22A O5A 1_555 1_555
H23A O5A 1_555 1_555
O6A Zn1 1_555 1_555
H24A O6A 1_555 1_555
H25A O6A 1_555 1_555
N1A C15A 1_555 1_555
N1A_2 Zn1 1_555 1_555
N2A N2 1_555 1_555
C5 N3 1_555 1_555
C12 N6 1_555 1_555
C15 N1 1_555 1_555
C19 N1 1_555 1_555
N4 N5 1_555 1_555
C19A N1A 1_555 1_555
C20A N2A 1_555 1_555

#END
