
#######################################################################
#
#                 Cambridge Crystallographic Data Centre
#                                CCDC 
#
#######################################################################
#
# If this CIF has been generated from an entry in the Cambridge 
# Structural Database, then it will include bibliographic, chemical, 
# crystal, experimental, refinement or atomic coordinate data resulting 
# from the CCDC's data processing and validation procedures.
#
#######################################################################

data_AQUWOZ
_symmetry_cell_setting           monoclinic
_symmetry_space_group_name_H-M   'P 2/c'
_symmetry_Int_Tables_number      13
_space_group_name_Hall           '-P 2yc'
loop_
_symmetry_equiv_pos_site_id
_symmetry_equiv_pos_as_xyz
1 x,y,z
2 -x,y,1/2-z
3 -x,-y,-z
4 x,-y,1/2+z
_cell_length_a                   9.0714(11)
_cell_length_b                   11.4336(14)
_cell_length_c                   9.6453(12)
_cell_angle_alpha                90
_cell_angle_beta                 116.6330(10)
_cell_angle_gamma                90
_cell_volume                     894.252
loop_
_atom_site_label
_atom_site_type_symbol
_atom_site_fract_x
_atom_site_fract_y
_atom_site_fract_z
Co1 Co 1.0000 0.03005(3) 0.2500
O1 O 0.78518(15) -0.04553(10) -0.20970(14)
O2 O 0.85000(15) 0.03841(10) 0.01853(13)
N1 N 1.0000 0.21953(17) 0.2500
N2 N 1.0000 0.83937(18) 0.2500
C1 C 0.5523(2) -0.41235(18) -0.1718(3)
H1 H 0.5875 -0.4827 -0.1186
C2 C 0.6052(2) -0.30655(17) -0.0938(2)
H2 H 0.6760 -0.3070 0.0119
C3 C 0.5543(2) -0.19972(15) -0.17064(19)
C4 C 0.6181(2) -0.08780(16) -0.07983(19)
H3 H 0.6503 -0.1043 0.0286
H4 H 0.5280 -0.0321 -0.1144
C5 C 0.7642(2) -0.02921(13) -0.09131(19)
C6 C 1.1407(2) 0.27989(16) 0.3010(2)
H5 H 1.2395 0.2388 0.3376
C7 C 1.1458(2) 0.40083(16) 0.3016(2)
H6 H 1.2463 0.4395 0.3365
C8 C 1.0000 0.4643(2) 0.2500
C9 C 1.0000 0.5938(2) 0.2500
C10 C 0.9420(2) 0.65704(16) 0.3385(2)
H7 H 0.9004 0.6183 0.3982
C11 C 0.9463(2) 0.77813(16) 0.3373(2)
H8 H 0.9104 0.8189 0.3999
Co1_2 Co 0.0000 0.03005(3) -0.7500
Co1_3 Co 1.0000 1.03005(3) 0.2500
Co1B Co 0.0000 -0.03005(3) -0.2500
Co1B_2 Co 1.0000 -0.03005(3) -0.2500
O1A O 0.21482(15) -0.04553(10) -0.29030(14)
O1B O 1.21482(15) 0.04553(10) 0.20970(14)
O1C O 0.78518(15) 0.04553(10) 0.29030(14)
O2A O 0.15000(15) 0.03841(10) -0.51853(13)
O2A_2 O 1.15000(15) 0.03841(10) 0.48147(13)
N2_2 N 1.0000 -0.16063(18) 0.2500
C1A C 0.4477(2) -0.41235(18) -0.3282(3)
H1A H 0.4125 -0.4827 -0.3814
C2A C 0.3948(2) -0.30655(17) -0.4062(2)
H2A H 0.3240 -0.3070 -0.5119
C3A C 0.4457(2) -0.19972(15) -0.32936(19)
C4A C 0.3819(2) -0.08780(16) -0.42017(19)
H3A H 0.3497 -0.1043 -0.5286
H4A H 0.4720 -0.0321 -0.3856
C5A C 0.2358(2) -0.02921(13) -0.40869(19)
C6A C 0.8593(2) 0.27989(16) 0.1990(2)
H5A H 0.7605 0.2388 0.1624
C7A C 0.8542(2) 0.40083(16) 0.1984(2)
H6A H 0.7537 0.4395 0.1635
C10A C 1.0580(2) 0.65704(16) 0.1615(2)
H7A H 1.0996 0.6183 0.1018
C11A C 1.0537(2) 0.77813(16) 0.1627(2)
H8A H 1.0896 0.8189 0.1001
loop_
_geom_bond_atom_site_label_1
_geom_bond_atom_site_label_2
_geom_bond_site_symmetry_1
_geom_bond_site_symmetry_2
Co1 O2 1_555 1_555
O1 C5 1_555 1_555
O2 C5 1_555 1_555
N1 Co1 1_555 1_555
N2 C11 1_555 1_555
C1 H1 1_555 1_555
C2 C1 1_555 1_555
H2 C2 1_555 1_555
C3 C2 1_555 1_555
C4 C3 1_555 1_555
H3 C4 1_555 1_555
H4 C4 1_555 1_555
C5 C4 1_555 1_555
C6 N1 1_555 1_555
H5 C6 1_555 1_555
C7 C6 1_555 1_555
H6 C7 1_555 1_555
C8 C7 1_555 1_555
C9 C8 1_555 1_555
C10 C9 1_555 1_555
H7 C10 1_555 1_555
C11 C10 1_555 1_555
H8 C11 1_555 1_555
Co1_2 O2A 1_555 1_555
Co1_3 N2 1_555 1_555
Co1B O1A 1_555 1_555
Co1B_2 O1 1_555 1_555
O1A C5A 1_555 1_555
O1B Co1 1_555 1_555
O1C Co1 1_555 1_555
O2A C5A 1_555 1_555
O2A_2 Co1 1_555 1_555
N2_2 Co1 1_555 1_555
C1A C1 1_555 1_555
H1A C1A 1_555 1_555
C2A C1A 1_555 1_555
H2A C2A 1_555 1_555
C3A C3 1_555 1_555
C4A C3A 1_555 1_555
H3A C4A 1_555 1_555
H4A C4A 1_555 1_555
C5A C4A 1_555 1_555
C6A N1 1_555 1_555
H5A C6A 1_555 1_555
C7A C8 1_555 1_555
H6A C7A 1_555 1_555
C10A C9 1_555 1_555
H7A C10A 1_555 1_555
C11A N2 1_555 1_555
H8A C11A 1_555 1_555
C2A C3A 1_555 1_555
C6A C7A 1_555 1_555
C10A C11A 1_555 1_555

#END
