
#######################################################################
#
#                 Cambridge Crystallographic Data Centre
#                                CCDC 
#
#######################################################################
#
# If this CIF has been generated from an entry in the Cambridge 
# Structural Database, then it will include bibliographic, chemical, 
# crystal, experimental, refinement or atomic coordinate data resulting 
# from the CCDC's data processing and validation procedures.
#
#######################################################################

data_AQUYUH
_symmetry_cell_setting           monoclinic
_symmetry_space_group_name_H-M   'P 21/c'
_symmetry_Int_Tables_number      14
_space_group_name_Hall           '-P 2ybc'
loop_
_symmetry_equiv_pos_site_id
_symmetry_equiv_pos_as_xyz
1 x,y,z
2 -x,1/2+y,1/2-z
3 -x,-y,-z
4 x,1/2-y,1/2+z
_cell_length_a                   6.206(4)
_cell_length_b                   17.610(12)
_cell_length_c                   19.563(13)
_cell_angle_alpha                90
_cell_angle_beta                 96.68(2)
_cell_angle_gamma                90
_cell_volume                     2123.48
loop_
_atom_site_label
_atom_site_type_symbol
_atom_site_fract_x
_atom_site_fract_y
_atom_site_fract_z
Ca1 Ca 0.02949(9) 0.26075(3) 0.27588(3)
O1 O -0.3040(4) 0.31444(16) 0.29711(17)
O2 O -0.1156(5) 0.27130(19) 0.15928(15)
O3 O 0.3015(4) 0.20585(16) 0.21694(16)
O4 O 0.3504(5) 0.24574(17) 0.35851(13)
O5 O 0.1658(4) 0.38101(13) 0.26830(17)
O6 O 0.1228(4) 0.64319(13) 0.21406(15)
C1 C 0.2831(5) 0.24767(19) 0.41495(18)
O7 O 0.0813(4) 0.2528(2) 0.41915(15)
C2 C 0.4448(5) 0.24473(18) 0.48066(16)
C3 C 0.3387(6) 0.2414(3) 0.5472(2)
O8 O 0.4517(5) 0.2363(2) 0.60179(14)
O9 O 0.1305(5) 0.2457(3) 0.54293(16)
H1 H 0.0794 0.2448 0.5023
C4 C 0.5883(6) 0.1744(2) 0.4763(2)
C5 C 0.4662(11) 0.1005(3) 0.4739(4)
H2 H 0.3611 0.0995 0.4338
H3 H 0.3936 0.0958 0.5145
H4 H 0.5659 0.0591 0.4720
C6 C 0.5895(7) 0.3163(2) 0.4815(2)
C7 C 0.4644(13) 0.3897(3) 0.4826(4)
H5 H 0.3686 0.3946 0.4407
H6 H 0.5639 0.4317 0.4869
H7 H 0.3812 0.3896 0.5210
C8 C 0.2482(5) 0.44178(18) 0.2562(2)
O10 O 0.4526(4) 0.44924(15) 0.2560(2)
C9 C 0.1021(5) 0.51180(16) 0.24117(18)
C10 C 0.2235(5) 0.58441(17) 0.2273(2)
O11 O 0.4301(4) 0.58227(15) 0.2304(2)
H8 H 0.4737 0.5405 0.2443
C11 C -0.0208(7) 0.5254(2) 0.3043(2)
C12 C 0.1203(11) 0.5479(3) 0.3685(3)
H9 H 0.2309 0.5102 0.3792
H10 H 0.0336 0.5517 0.4060
H11 H 0.1867 0.5961 0.3616
C13 C -0.0605(7) 0.4936(2) 0.1775(2)
C14 C 0.0387(11) 0.4786(4) 0.1128(3)
H12 H 0.1404 0.4375 0.1203
H13 H 0.1125 0.5234 0.1000
H14 H -0.0730 0.4653 0.0767
H15 H -0.411(10) 0.287(4) 0.320(3)
H16 H -0.360(9) 0.344(3) 0.283(3)
H17 H -0.253(9) 0.274(3) 0.143(3)
H18 H -0.053(8) 0.265(3) 0.129(2)
H19 H 0.335(9) 0.220(3) 0.180(3)
H20 H 0.387(9) 0.177(3) 0.238(3)
H21 H 0.697(7) 0.177(3) 0.517(2)
H22 H 0.663(8) 0.181(3) 0.434(3)
H23 H 0.694(7) 0.313(3) 0.526(2)
H24 H 0.675(8) 0.311(3) 0.438(3)
H25 H -0.112(8) 0.478(3) 0.308(2)
H26 H -0.130(8) 0.564(3) 0.288(3)
H27 H -0.151(8) 0.450(3) 0.189(2)
H28 H -0.162(9) 0.536(4) 0.174(3)
Ca1A Ca -0.02949(9) 0.76075(3) 0.22412(3)
O6A O -0.1228(4) 0.14319(13) 0.28594(15)
loop_
_geom_bond_atom_site_label_1
_geom_bond_atom_site_label_2
_geom_bond_site_symmetry_1
_geom_bond_site_symmetry_2
Ca1 O1 1_555 1_555
O1 H15 1_555 1_555
O2 Ca1 1_555 1_555
O3 Ca1 1_555 1_555
O4 Ca1 1_555 1_555
O5 Ca1 1_555 1_555
O6 C10 1_555 1_555
C1 O4 1_555 1_555
O7 Ca1 1_555 1_555
C2 C1 1_555 1_555
C3 C2 1_555 1_555
O8 C3 1_555 1_555
O9 C3 1_555 1_555
H1 O9 1_555 1_555
C4 C2 1_555 1_555
C5 C4 1_555 1_555
H2 C5 1_555 1_555
H3 C5 1_555 1_555
H4 C5 1_555 1_555
C6 C2 1_555 1_555
C7 C6 1_555 1_555
H5 C7 1_555 1_555
H6 C7 1_555 1_555
H7 C7 1_555 1_555
C8 O5 1_555 1_555
O10 C8 1_555 1_555
C9 C8 1_555 1_555
C10 C9 1_555 1_555
O11 C10 1_555 1_555
H8 O11 1_555 1_555
C11 C9 1_555 1_555
C12 C11 1_555 1_555
H9 C12 1_555 1_555
H10 C12 1_555 1_555
H11 C12 1_555 1_555
C13 C9 1_555 1_555
C14 C13 1_555 1_555
H12 C14 1_555 1_555
H13 C14 1_555 1_555
H14 C14 1_555 1_555
H16 O1 1_555 1_555
H17 O2 1_555 1_555
H18 O2 1_555 1_555
H19 O3 1_555 1_555
H20 O3 1_555 1_555
H21 C4 1_555 1_555
H22 C4 1_555 1_555
H23 C6 1_555 1_555
H24 C6 1_555 1_555
H25 C11 1_555 1_555
H26 C11 1_555 1_555
H27 C13 1_555 1_555
H28 C13 1_555 1_555
Ca1A O6 1_555 1_555
O6A Ca1 1_555 1_555
C1 O7 1_555 1_555

#END
