
#######################################################################
#
#                 Cambridge Crystallographic Data Centre
#                                CCDC 
#
#######################################################################
#
# If this CIF has been generated from an entry in the Cambridge 
# Structural Database, then it will include bibliographic, chemical, 
# crystal, experimental, refinement or atomic coordinate data resulting 
# from the CCDC's data processing and validation procedures.
#
#######################################################################

data_AQUZOC
_symmetry_cell_setting           monoclinic
_symmetry_space_group_name_H-M   'P 21/c'
_symmetry_Int_Tables_number      14
_space_group_name_Hall           '-P 2ybc'
loop_
_symmetry_equiv_pos_site_id
_symmetry_equiv_pos_as_xyz
1 x,y,z
2 -x,1/2+y,1/2-z
3 -x,-y,-z
4 x,1/2-y,1/2+z
_cell_length_a                   15.0078(9)
_cell_length_b                   14.1026(8)
_cell_length_c                   6.7001(4)
_cell_angle_alpha                90
_cell_angle_beta                 96.0320(10)
_cell_angle_gamma                90
_cell_volume                     1410.22
loop_
_atom_site_label
_atom_site_type_symbol
_atom_site_fract_x
_atom_site_fract_y
_atom_site_fract_z
Cu1 Cu 0.86984(6) 0.37030(7) -0.13973(14)
Cu2 Cu 0.73151(6) 0.16518(7) -0.10794(18)
Br1 Br 0.73302(4) 0.33970(5) -0.01712(10)
Br2 Br 0.86588(4) 0.41548(5) -0.49462(10)
O1 O 1.2754(4) 0.4036(4) 0.5172(8)
H1 H 1.230(4) 0.440(6) 0.506(14)
O2 O 1.2936(4) 0.2544(4) 0.2645(9)
H2 H 1.280(7) 0.212(6) 0.174(12)
N1 N 0.9962(4) 0.3716(4) -0.0252(9)
N2 N 1.6033(4) 0.3715(4) 0.4034(9)
C1 C 1.0231(5) 0.3274(5) 0.1488(11)
H3 H 0.9794 0.2985 0.2216
C2 C 1.1124(5) 0.3228(6) 0.2253(12)
H4 H 1.1292 0.2903 0.3477
C3 C 1.1772(6) 0.3656(6) 0.1230(12)
C4 C 1.1477(5) 0.4175(5) -0.0465(11)
H5 H 1.1890 0.4541 -0.1124
C5 C 1.0586(5) 0.4158(5) -0.1193(10)
H6 H 1.0405 0.4474 -0.2420
C6 C 1.5505(5) 0.3240(6) 0.5160(11)
H7 H 1.5773 0.2791 0.6095
C7 C 1.4592(6) 0.3366(7) 0.5038(15)
H8 H 1.4241 0.3006 0.5866
C8 C 1.4186(6) 0.4029(7) 0.3686(13)
C9 C 1.4718(5) 0.4491(7) 0.2476(13)
H9 H 1.4464 0.4914 0.1468
C10 C 1.5628(5) 0.4337(6) 0.2735(11)
H10 H 1.5992 0.4696 0.1938
C11 C 1.3159(6) 0.4190(6) 0.3390(13)
H11 H 1.3026 0.4848 0.2888
C12 C 1.2820(7) 0.3481(6) 0.1809(13)
H12 H 1.3152 0.3546 0.0597
Cu2C Cu 0.73151(6) 0.33482(7) 0.39206(18)
Cu2C_2 Cu 0.73151(6) 0.33482(7) -0.60794(18)
Cu2C_3 Cu 1.73151(6) 0.33482(7) 0.39206(18)
Br1C Br 0.73302(4) 0.16030(5) -0.51712(10)
Br2C Br 0.86588(4) 0.08452(5) 0.00538(10)
N2C N 0.6033(4) 0.1285(4) -0.0966(9)
loop_
_geom_bond_atom_site_label_1
_geom_bond_atom_site_label_2
_geom_bond_site_symmetry_1
_geom_bond_site_symmetry_2
Cu1 Br1 1_555 1_555
Cu2 Br1 1_555 1_555
Br1 Cu2C 1_555 1_555
Br2 Cu1 1_555 1_555
O1 H1 1_555 1_555
O2 H2 1_555 1_555
N1 Cu1 1_555 1_555
N2 C6 1_555 1_555
C1 N1 1_555 1_555
H3 C1 1_555 1_555
C2 C1 1_555 1_555
H4 C2 1_555 1_555
C3 C2 1_555 1_555
C4 C3 1_555 1_555
H5 C4 1_555 1_555
C5 N1 1_555 1_555
H6 C5 1_555 1_555
C6 H7 1_555 1_555
C7 C6 1_555 1_555
H8 C7 1_555 1_555
C8 C7 1_555 1_555
C9 C8 1_555 1_555
H9 C9 1_555 1_555
C10 N2 1_555 1_555
H10 C10 1_555 1_555
C11 O1 1_555 1_555
H11 C11 1_555 1_555
C12 O2 1_555 1_555
H12 C12 1_555 1_555
Cu2C_2 Br2 1_555 1_555
Cu2C_3 N2 1_555 1_555
Br1C Cu2 1_555 1_555
Br2C Cu2 1_555 1_555
N2C Cu2 1_555 1_555
C3 C12 1_555 1_555
C4 C5 1_555 1_555
C8 C11 1_555 1_555
C9 C10 1_555 1_555
C11 C12 1_555 1_555
Cu2C_2 Br1C 1_555 1_555

#END
