
#######################################################################
#
#                 Cambridge Crystallographic Data Centre
#                                CCDC 
#
#######################################################################
#
# If this CIF has been generated from an entry in the Cambridge 
# Structural Database, then it will include bibliographic, chemical, 
# crystal, experimental, refinement or atomic coordinate data resulting 
# from the CCDC's data processing and validation procedures.
#
#######################################################################

data_AREGUZ
_symmetry_cell_setting           monoclinic
_symmetry_space_group_name_H-M   'P 21/n'
_symmetry_Int_Tables_number      14
_space_group_name_Hall           '-P 2yn'
loop_
_symmetry_equiv_pos_site_id
_symmetry_equiv_pos_as_xyz
1 x,y,z
2 1/2+x,1/2-y,1/2+z
3 -x,-y,-z
4 1/2-x,1/2+y,1/2-z
_cell_length_a                   12.7270(6)
_cell_length_b                   7.7452(4)
_cell_length_c                   21.1854(10)
_cell_angle_alpha                90
_cell_angle_beta                 100.599(1)
_cell_angle_gamma                90
_cell_volume                     2052.68
loop_
_atom_site_label
_atom_site_type_symbol
_atom_site_fract_x
_atom_site_fract_y
_atom_site_fract_z
Bi1 Bi 0.184044(10) -0.272051(18) 0.217216(7)
Cl1 Cl 0.12076(7) -0.56657(12) 0.28160(5)
S1 S -0.02748(8) -0.21005(13) 0.21497(6)
S2 S 0.11333(7) 0.03612(12) 0.16211(5)
S3 S 0.11282(9) -0.39901(15) 0.10117(6)
S4 S 0.32509(7) -0.52819(13) 0.16764(5)
N1 N -0.0862(3) 0.1026(4) 0.17279(18)
N2 N 0.2125(3) -0.6630(5) 0.06146(17)
C1 C -0.0083(3) -0.0121(5) 0.18283(19)
C2 C -0.0771(4) 0.2765(5) 0.1459(3)
H1 H -0.0826 0.2722 0.0987
H2 H -0.0089 0.3325 0.1654
C3 C -0.1719(5) 0.3692(8) 0.1643(5)
H3 H -0.1513 0.4252 0.2068
H4 H -0.1993 0.4588 0.1321
C4 C -0.2532(5) 0.2369(7) 0.1663(5)
H5 H -0.2973 0.2197 0.1231
H6 H -0.3006 0.2708 0.1963
C5 C -0.1929(3) 0.0738(6) 0.1890(2)
H7 H -0.1879 0.0579 0.2358
H8 H -0.2279 -0.0287 0.1664
C6 C 0.2174(3) -0.5446(5) 0.10625(19)
C7 C 0.2949(4) -0.7963(6) 0.0600(2)
H9 H 0.3174 -0.8493 0.1029
H10 H 0.3583 -0.7470 0.0457
C8 C 0.2397(4) -0.9266(7) 0.0123(3)
H11 H 0.2033 -1.0158 0.0339
H12 H 0.2915 -0.9838 -0.0105
C9 C 0.1605(6) -0.8229(9) -0.0333(3)
H13 H 0.1945 -0.7714 -0.0673
H14 H 0.0998 -0.8958 -0.0536
C10 C 0.1233(4) -0.6836(7) 0.0076(2)
H15 H 0.1089 -0.5745 -0.0168
H16 H 0.0576 -0.7197 0.0228
Cl1C Cl 0.37924(7) -0.06657(12) 0.21840(5)
S4C S 0.17491(7) -0.02819(13) 0.33236(5)
Bi1C Bi 0.315956(10) -0.772051(18) 0.282784(7)
Cl2 Cl 0.46495(10) 0.03863(18) -0.08820(8)
Cl3 Cl 0.58282(13) 0.3258(2) -0.02290(7)
Cl4 Cl 0.40540(13) 0.3888(2) -0.12533(9)
C11 C 0.5118(4) 0.2479(6) -0.0965(3)
H17 H 0.5611 0.2454 -0.1282
loop_
_geom_bond_atom_site_label_1
_geom_bond_atom_site_label_2
_geom_bond_site_symmetry_1
_geom_bond_site_symmetry_2
Bi1 Cl1 1_555 1_555
Cl1 Bi1C 1_555 1_555
Cl2 C11 1_555 1_555
Cl3 C11 1_555 1_555
Cl4 C11 1_555 1_555
S1 Bi1 1_555 1_555
S2 Bi1 1_555 1_555
S3 Bi1 1_555 1_555
S4 Bi1 1_555 1_555
N1 C1 1_555 1_555
N2 C6 1_555 1_555
C1 S1 1_555 1_555
C2 N1 1_555 1_555
H1 C2 1_555 1_555
H2 C2 1_555 1_555
C3 C2 1_555 1_555
H3 C3 1_555 1_555
H4 C3 1_555 1_555
C4 C3 1_555 1_555
H5 C4 1_555 1_555
H6 C4 1_555 1_555
C5 N1 1_555 1_555
H7 C5 1_555 1_555
H8 C5 1_555 1_555
C6 S3 1_555 1_555
C7 N2 1_555 1_555
H9 C7 1_555 1_555
H10 C7 1_555 1_555
C8 C7 1_555 1_555
H11 C8 1_555 1_555
H12 C8 1_555 1_555
C9 C8 1_555 1_555
H13 C9 1_555 1_555
H14 C9 1_555 1_555
C10 N2 1_555 1_555
H15 C10 1_555 1_555
H16 C10 1_555 1_555
C11 H17 1_555 1_555
Cl1C Bi1 1_555 1_555
S4C Bi1 1_555 1_555
Bi1C S4 1_555 1_555
S2 C1 1_555 1_555
S4 C6 1_555 1_555
C4 C5 1_555 1_555
C9 C10 1_555 1_555

#END
