
#######################################################################
#
#                 Cambridge Crystallographic Data Centre
#                                CCDC 
#
#######################################################################
#
# If this CIF has been generated from an entry in the Cambridge 
# Structural Database, then it will include bibliographic, chemical, 
# crystal, experimental, refinement or atomic coordinate data resulting 
# from the CCDC's data processing and validation procedures.
#
#######################################################################

data_AREQUK
_symmetry_cell_setting           monoclinic
_symmetry_space_group_name_H-M   'P 21/c'
_symmetry_Int_Tables_number      14
_space_group_name_Hall           '-P 2ybc'
loop_
_symmetry_equiv_pos_site_id
_symmetry_equiv_pos_as_xyz
1 x,y,z
2 -x,1/2+y,1/2-z
3 -x,-y,-z
4 x,1/2-y,1/2+z
_cell_length_a                   10.562(2)
_cell_length_b                   16.909(4)
_cell_length_c                   25.421(5)
_cell_angle_alpha                90
_cell_angle_beta                 105.468(12)
_cell_angle_gamma                90
_cell_volume                     4375.57
loop_
_atom_site_label
_atom_site_type_symbol
_atom_site_fract_x
_atom_site_fract_y
_atom_site_fract_z
Eu1 Eu 0.29102(3) 0.69065(2) 0.769560(15)
P1 P 0.28901(18) 0.47266(12) 0.79797(9)
P2 P 0.74847(18) 0.31298(14) 1.08943(8)
P3 P 0.2598(2) 0.61115(14) 0.62715(9)
C1 C 0.4700(6) 0.4025(4) 0.8886(3)
C2 C 0.5710(6) 0.3913(4) 1.0025(3)
C3 C 0.5751(6) 0.4533(4) 0.9158(3)
C4 C 0.6329(6) 0.5121(5) 0.8842(3)
H1 H 0.5741 0.5191 0.8485
H2 H 0.7159 0.4929 0.8808
H3 H 0.6455 0.5618 0.9031
C5 C 0.4185(6) 0.3483(4) 0.9182(3)
C6 C 0.7408(6) 0.4996(5) 1.0019(3)
H4 H 0.7679 0.4874 1.0401
H5 H 0.7145 0.5541 0.9970
H6 H 0.8127 0.4906 0.9861
C7 C 0.4665(7) 0.3423(5) 0.9744(3)
C8 C 0.6226(6) 0.4455(4) 0.9731(3)
N1 N 0.3252(7) 0.8589(5) 0.7522(4)
O1 O 0.3005(7) 0.8339(4) 0.7960(3)
O2 O 0.3369(7) 0.8080(4) 0.7180(3)
C9 C 0.0672(7) 0.5167(5) 0.5533(3)
C10 C -0.0477(7) 0.5580(5) 0.5285(3)
C11 C 0.1152(7) 0.4592(5) 0.5252(4)
C12 C 0.2400(8) 0.4129(5) 0.5529(4)
H7 H 0.2720 0.4299 0.5901
H8 H 0.3059 0.4224 0.5339
H9 H 0.2203 0.3574 0.5519
N2 N 0.5750(9) 0.7042(6) 0.8197(4)
O3 O 0.4941(6) 0.7104(4) 0.8454(3)
O4 O 0.5288(5) 0.6836(5) 0.7705(3)
O5 O 0.1930(5) 0.4577(3) 0.8347(2)
O6 O 0.3273(4) 0.5568(3) 0.7974(2)
O7 O 0.2221(5) 0.4443(3) 0.7380(2)
O8 O 0.0706(4) 0.6259(3) 0.7368(2)
O9 O 0.0747(5) 0.7504(4) 0.7243(3)
C13 C 0.4036(7) 0.2839(5) 1.0031(4)
H10 H 0.3098 0.2879 0.9897
H11 H 0.4293 0.2945 1.0416
H12 H 0.4310 0.2315 0.9966
C14 C 0.3093(8) 0.2925(5) 0.8892(4)
H13 H 0.2266 0.3120 0.8926
H14 H 0.3253 0.2409 0.9054
H15 H 0.3072 0.2893 0.8513
C15 C 0.4221(6) 0.4076(4) 0.8276(3)
H16 H 0.3963 0.3548 0.8139
H17 H 0.4960 0.4229 0.8139
C16 C 0.1631(10) 0.3651(6) 0.7261(4)
H18 H 0.2253 0.3300 0.7159
H19 H 0.1445 0.3439 0.7587
C17 C 0.0627(8) 0.4937(6) 0.8253(4)
H20 H 0.0720 0.5479 0.8382
H21 H 0.0205 0.4946 0.7864
O10 O 0.7028(5) 0.2361(3) 1.0567(2)
O11 O 0.8681(5) 0.3431(3) 1.0695(2)
C18 C 0.9950(9) 0.3069(8) 1.0861(5)
H22 H 1.0360 0.3202 1.1239
H23 H 0.9849 0.2499 1.0836
O12 O 0.7815(4) 0.3033(3) 1.14890(19)
O13 O 0.2816(5) 0.6432(3) 0.6829(2)
O14 O 0.2072(5) 0.6727(3) 0.5810(2)
O15 O 0.3881(6) 0.5784(4) 0.6160(3)
C19 C 0.2632(10) 0.7521(6) 0.5833(4)
H24 H 0.3385 0.7566 0.6149
H25 H 0.2924 0.7619 0.5508
C20 C 0.1373(7) 0.5358(5) 0.6140(3)
H26 H 0.1778 0.4874 0.6311
H27 H 0.0706 0.5507 0.6319
C21 C -0.1033(8) 0.6192(6) 0.5595(4)
H28 H -0.0419 0.6286 0.5943
H29 H -0.1846 0.6002 0.5649
H30 H -0.1187 0.6675 0.5390
C22 C 0.6219(6) 0.3847(4) 1.0632(3)
H31 H 0.5483 0.3726 1.0779
H32 H 0.6552 0.4361 1.0773
O16 O 0.6920(6) 0.7148(5) 0.8372(3)
O17 O 0.3365(7) 0.9303(4) 0.7429(4)
C23 C 0.7005(12) 0.1597(7) 1.0757(4)
H33 H 0.6308 0.1561 1.0939
H34 H 0.7827 0.1500 1.1029
C24 C 0.6822(17) 0.1003(7) 1.0370(6)
H35 H 0.6046 0.1111 1.0082
H36 H 0.6723 0.0505 1.0537
H37 H 0.7569 0.0979 1.0223
C25 C 1.0744(10) 0.3304(12) 1.0550(6)
H38 H 1.1423 0.2918 1.0573
H39 H 1.1134 0.3805 1.0680
H40 H 1.0238 0.3356 1.0177
C26 C -0.0158(10) 0.4525(8) 0.8517(6)
H41 H -0.0344 0.4009 0.8358
H42 H -0.0966 0.4807 0.8480
H43 H 0.0293 0.4474 0.8897
C27 C 0.1663(10) 0.8086(6) 0.5870(5)
H44 H 0.1014 0.8122 0.5525
H45 H 0.2070 0.8593 0.5964
H46 H 0.1249 0.7925 0.6146
C28 C 0.4958(11) 0.5477(9) 0.6564(6)
H47 H 0.4958 0.5699 0.6916
H48 H 0.4867 0.4908 0.6584
C29 C 0.0454(10) 0.3674(7) 0.6833(4)
H49 H -0.0192 0.3980 0.6946
H50 H 0.0133 0.3145 0.6748
H51 H 0.0625 0.3911 0.6516
N3 N 0.0113(7) 0.6871(5) 0.7194(3)
O18 O -0.1079(6) 0.6867(4) 0.6981(4)
C30 C 0.6120(12) 0.5651(9) 0.6451(7)
H52 H 0.6035 0.5569 0.6070
H53 H 0.6798 0.5312 0.6662
H54 H 0.6346 0.6193 0.6543
Eu1B Eu 0.70898(3) 0.30935(2) 1.230440(15)
Eu1B_2 Eu -0.29102(3) 0.30935(2) 0.230440(15)
P1B P 0.71099(18) 0.52734(12) 1.20203(9)
P2B P 0.25153(18) 0.68702(14) 0.91057(8)
P3B P -0.2598(2) 0.38885(14) 0.37285(9)
C1B C 0.5300(6) 0.5975(4) 1.1114(3)
C2B C 0.4290(6) 0.6087(4) 0.9975(3)
C3B C 0.4249(6) 0.5467(4) 1.0842(3)
C4B C 0.3671(6) 0.4879(5) 1.1158(3)
H1B H 0.4259 0.4809 1.1515
H2B H 0.2841 0.5071 1.1192
H3B H 0.3545 0.4382 1.0969
C5B C 0.5815(6) 0.6517(4) 1.0818(3)
C6B C 0.2592(6) 0.5004(5) 0.9981(3)
H4B H 0.2321 0.5126 0.9599
H5B H 0.2855 0.4459 1.0030
H6B H 0.1873 0.5094 1.0139
C7B C 0.5335(7) 0.6577(5) 1.0256(3)
C8B C 0.3774(6) 0.5545(4) 1.0269(3)
N1B N 0.6748(7) 0.1411(5) 1.2478(4)
O1B O 0.6995(7) 0.1661(4) 1.2040(3)
O2B O 0.6631(7) 0.1920(4) 1.2820(3)
C9B C -0.0672(7) 0.4833(5) 0.4467(3)
C10B C 0.0477(7) 0.4420(5) 0.4715(3)
C11B C -0.1152(7) 0.5408(5) 0.4748(4)
C12B C -0.2400(8) 0.5871(5) 0.4471(4)
H7B H -0.2720 0.5701 0.4099
H8B H -0.3059 0.5776 0.4661
H9B H -0.2203 0.6426 0.4481
N2B N 0.4250(9) 0.2958(6) 1.1803(4)
O3B O 0.5059(6) 0.2896(4) 1.1546(3)
O4B O 0.4712(5) 0.3164(5) 1.2295(3)
O5B O 0.8070(5) 0.5423(3) 1.1653(2)
O6B O 0.6727(4) 0.4432(3) 1.2026(2)
O7B O 0.7779(5) 0.5557(3) 1.2620(2)
O8B O 0.9294(4) 0.3741(3) 1.2632(2)
O9B O 0.9253(5) 0.2496(4) 1.2757(3)
C13B C 0.5964(7) 0.7161(5) 0.9969(4)
H10B H 0.6902 0.7121 1.0103
H11B H 0.5707 0.7055 0.9584
H12B H 0.5690 0.7685 1.0034
C14B C 0.6907(8) 0.7075(5) 1.1108(4)
H13B H 0.7734 0.6880 1.1074
H14B H 0.6747 0.7591 1.0946
H15B H 0.6928 0.7107 1.1487
C15B C 0.5779(6) 0.5924(4) 1.1724(3)
H16B H 0.6037 0.6452 1.1861
H17B H 0.5040 0.5771 1.1861
C16B C 0.8369(10) 0.6349(6) 1.2739(4)
H18B H 0.7747 0.6700 1.2841
H19B H 0.8555 0.6561 1.2413
C17B C 0.9373(8) 0.5063(6) 1.1747(4)
H20B H 0.9280 0.4521 1.1618
H21B H 0.9795 0.5054 1.2136
O10B O 0.2972(5) 0.7639(3) 0.9433(2)
O11B O 0.1319(5) 0.6569(3) 0.9305(2)
C18B C 0.0050(9) 0.6931(8) 0.9139(5)
H22B H -0.0360 0.6798 0.8761
H23B H 0.0151 0.7501 0.9164
O12B O 0.2185(4) 0.6967(3) 0.85110(19)
O13B O -0.2816(5) 0.3568(3) 0.3171(2)
O13B_2 O 0.7184(5) 0.3568(3) 1.3171(2)
O14B O -0.2072(5) 0.3273(3) 0.4190(2)
O15B O -0.3881(6) 0.4216(4) 0.3840(3)
C19B C -0.2632(10) 0.2479(6) 0.4167(4)
H24B H -0.3385 0.2434 0.3851
H25B H -0.2924 0.2381 0.4492
C20B C -0.1373(7) 0.4642(5) 0.3860(3)
H26B H -0.1778 0.5126 0.3689
H27B H -0.0706 0.4493 0.3681
C21B C 0.1033(8) 0.3808(6) 0.4405(4)
H28B H 0.0419 0.3714 0.4057
H29B H 0.1846 0.3998 0.4351
H30B H 0.1187 0.3325 0.4610
C22B C 0.3781(6) 0.6153(4) 0.9368(3)
H31B H 0.4517 0.6274 0.9221
H32B H 0.3448 0.5639 0.9227
O16B O 0.3080(6) 0.2852(5) 1.1628(3)
O17B O 0.6635(7) 0.0697(4) 1.2571(4)
C23B C 0.2995(12) 0.8403(7) 0.9243(4)
H33B H 0.3692 0.8439 0.9061
H34B H 0.2173 0.8500 0.8971
C24B C 0.3178(17) 0.8997(7) 0.9630(6)
H35B H 0.3954 0.8889 0.9918
H36B H 0.3277 0.9495 0.9463
H37B H 0.2431 0.9021 0.9777
C25B C -0.0744(10) 0.6696(12) 0.9450(6)
H38B H -0.1423 0.7082 0.9427
H39B H -0.1134 0.6195 0.9320
H40B H -0.0238 0.6644 0.9823
C26B C 1.0158(10) 0.5475(8) 1.1483(6)
H41B H 1.0344 0.5991 1.1642
H42B H 1.0966 0.5193 1.1520
H43B H 0.9707 0.5526 1.1103
C27B C -0.1663(10) 0.1914(6) 0.4130(5)
H44B H -0.1014 0.1878 0.4475
H45B H -0.2070 0.1407 0.4036
H46B H -0.1249 0.2075 0.3854
C28B C -0.4958(11) 0.4523(9) 0.3436(6)
H47B H -0.4958 0.4301 0.3084
H48B H -0.4867 0.5092 0.3416
C29B C 0.9546(10) 0.6326(7) 1.3167(4)
H49B H 1.0192 0.6020 1.3054
H50B H 0.9867 0.6855 1.3252
H51B H 0.9375 0.6089 1.3484
N3B N 0.9887(7) 0.3129(5) 1.2806(3)
O18B O 1.1079(6) 0.3133(4) 1.3019(4)
C30B C -0.6120(12) 0.4349(9) 0.3549(7)
H52B H -0.6035 0.4431 0.3930
H53B H -0.6798 0.4688 0.3338
H54B H -0.6346 0.3807 0.3457
loop_
_geom_bond_atom_site_label_1
_geom_bond_atom_site_label_2
_geom_bond_site_symmetry_1
_geom_bond_site_symmetry_2
Eu1 O1 1_555 1_555
P1 O5 1_555 1_555
P2 O10 1_555 1_555
P3 O13 1_555 1_555
C1 C3 1_555 1_555
C2 C7 1_555 1_555
C3 C4 1_555 1_555
C4 H1 1_555 1_555
H2 C4 1_555 1_555
H3 C4 1_555 1_555
C5 C1 1_555 1_555
C6 H4 1_555 1_555
H5 C6 1_555 1_555
H6 C6 1_555 1_555
C7 C5 1_555 1_555
C8 C2 1_555 1_555
N1 O1 1_555 1_555
O2 Eu1 1_555 1_555
C9 C10 1_555 1_555
C10 C21 1_555 1_555
C11 C9 1_555 1_555
C12 C11 1_555 1_555
H7 C12 1_555 1_555
H8 C12 1_555 1_555
H9 C12 1_555 1_555
N2 O3 1_555 1_555
O3 Eu1 1_555 1_555
O4 Eu1 1_555 1_555
O5 C17 1_555 1_555
O6 Eu1 1_555 1_555
O7 P1 1_555 1_555
O8 Eu1 1_555 1_555
O9 Eu1 1_555 1_555
C13 C7 1_555 1_555
H10 C13 1_555 1_555
H11 C13 1_555 1_555
H12 C13 1_555 1_555
C14 C5 1_555 1_555
H13 C14 1_555 1_555
H14 C14 1_555 1_555
H15 C14 1_555 1_555
C15 P1 1_555 1_555
H16 C15 1_555 1_555
H17 C15 1_555 1_555
C16 O7 1_555 1_555
H18 C16 1_555 1_555
H19 C16 1_555 1_555
C17 H20 1_555 1_555
H21 C17 1_555 1_555
O10 C23 1_555 1_555
O11 P2 1_555 1_555
C18 O11 1_555 1_555
H22 C18 1_555 1_555
H23 C18 1_555 1_555
O12 P2 1_555 1_555
O13 Eu1 1_555 1_555
O14 P3 1_555 1_555
O15 P3 1_555 1_555
C19 O14 1_555 1_555
H24 C19 1_555 1_555
H25 C19 1_555 1_555
C20 P3 1_555 1_555
H26 C20 1_555 1_555
H27 C20 1_555 1_555
C21 H28 1_555 1_555
H29 C21 1_555 1_555
H30 C21 1_555 1_555
C22 P2 1_555 1_555
H31 C22 1_555 1_555
H32 C22 1_555 1_555
O16 N2 1_555 1_555
O17 N1 1_555 1_555
C23 H33 1_555 1_555
H34 C23 1_555 1_555
C24 C23 1_555 1_555
H35 C24 1_555 1_555
H36 C24 1_555 1_555
H37 C24 1_555 1_555
C25 C18 1_555 1_555
H38 C25 1_555 1_555
H39 C25 1_555 1_555
H40 C25 1_555 1_555
C26 C17 1_555 1_555
H41 C26 1_555 1_555
H42 C26 1_555 1_555
H43 C26 1_555 1_555
C27 C19 1_555 1_555
H44 C27 1_555 1_555
H45 C27 1_555 1_555
H46 C27 1_555 1_555
C28 O15 1_555 1_555
H47 C28 1_555 1_555
H48 C28 1_555 1_555
C29 C16 1_555 1_555
H49 C29 1_555 1_555
H50 C29 1_555 1_555
H51 C29 1_555 1_555
N3 O8 1_555 1_555
O18 N3 1_555 1_555
C30 C28 1_555 1_555
H52 C30 1_555 1_555
H53 C30 1_555 1_555
H54 C30 1_555 1_555
Eu1B O12 1_555 1_555
Eu1B_2 O13B 1_555 1_555
P1B O5B 1_555 1_555
P2B O10B 1_555 1_555
P3B O13B 1_555 1_555
C1B C3B 1_555 1_555
C2B C7B 1_555 1_555
C3B C4B 1_555 1_555
C4B H1B 1_555 1_555
H2B C4B 1_555 1_555
H3B C4B 1_555 1_555
C5B C1B 1_555 1_555
C6B H4B 1_555 1_555
H5B C6B 1_555 1_555
H6B C6B 1_555 1_555
C7B C5B 1_555 1_555
C8B C2B 1_555 1_555
N1B O1B 1_555 1_555
O1B Eu1B 1_555 1_555
O2B Eu1B 1_555 1_555
C9B C10B 1_555 1_555
C10B C11 1_555 1_555
C11B C10 1_555 1_555
C12B C11B 1_555 1_555
H7B C12B 1_555 1_555
H8B C12B 1_555 1_555
H9B C12B 1_555 1_555
N2B O3B 1_555 1_555
O3B Eu1B 1_555 1_555
O4B Eu1B 1_555 1_555
O5B C17B 1_555 1_555
O6B Eu1B 1_555 1_555
O7B P1B 1_555 1_555
O8B Eu1B 1_555 1_555
O9B Eu1B 1_555 1_555
C13B C7B 1_555 1_555
H10B C13B 1_555 1_555
H11B C13B 1_555 1_555
H12B C13B 1_555 1_555
C14B C5B 1_555 1_555
H13B C14B 1_555 1_555
H14B C14B 1_555 1_555
H15B C14B 1_555 1_555
C15B P1B 1_555 1_555
H16B C15B 1_555 1_555
H17B C15B 1_555 1_555
C16B O7B 1_555 1_555
H18B C16B 1_555 1_555
H19B C16B 1_555 1_555
C17B H20B 1_555 1_555
H21B C17B 1_555 1_555
O10B C23B 1_555 1_555
O11B P2B 1_555 1_555
C18B O11B 1_555 1_555
H22B C18B 1_555 1_555
H23B C18B 1_555 1_555
O12B Eu1 1_555 1_555
O13B_2 Eu1B 1_555 1_555
O14B P3B 1_555 1_555
O15B P3B 1_555 1_555
C19B O14B 1_555 1_555
H24B C19B 1_555 1_555
H25B C19B 1_555 1_555
C20B P3B 1_555 1_555
H26B C20B 1_555 1_555
H27B C20B 1_555 1_555
C21B C10B 1_555 1_555
H28B C21B 1_555 1_555
H29B C21B 1_555 1_555
H30B C21B 1_555 1_555
C22B P2B 1_555 1_555
H31B C22B 1_555 1_555
H32B C22B 1_555 1_555
O16B N2B 1_555 1_555
O17B N1B 1_555 1_555
C23B H33B 1_555 1_555
H34B C23B 1_555 1_555
C24B C23B 1_555 1_555
H35B C24B 1_555 1_555
H36B C24B 1_555 1_555
H37B C24B 1_555 1_555
C25B C18B 1_555 1_555
H38B C25B 1_555 1_555
H39B C25B 1_555 1_555
H40B C25B 1_555 1_555
C26B C17B 1_555 1_555
H41B C26B 1_555 1_555
H42B C26B 1_555 1_555
H43B C26B 1_555 1_555
C27B C19B 1_555 1_555
H44B C27B 1_555 1_555
H45B C27B 1_555 1_555
H46B C27B 1_555 1_555
C28B O15B 1_555 1_555
H47B C28B 1_555 1_555
H48B C28B 1_555 1_555
C29B C16B 1_555 1_555
H49B C29B 1_555 1_555
H50B C29B 1_555 1_555
H51B C29B 1_555 1_555
N3B O8B 1_555 1_555
O18B N3B 1_555 1_555
C30B C28B 1_555 1_555
H52B C30B 1_555 1_555
H53B C30B 1_555 1_555
H54B C30B 1_555 1_555
P1 O6 1_555 1_555
C1 C15 1_555 1_555
C2 C22 1_555 1_555
C3 C8 1_555 1_555
C6 C8 1_555 1_555
N1 O2 1_555 1_555
C9 C20 1_555 1_555
N2 O4 1_555 1_555
O9 N3 1_555 1_555
P1B O6B 1_555 1_555
P2B O12B 1_555 1_555
C1B C15B 1_555 1_555
C2B C22B 1_555 1_555
C3B C8B 1_555 1_555
C6B C8B 1_555 1_555
N1B O2B 1_555 1_555
C9B C11B 1_555 1_555
C9B C20B 1_555 1_555
N2B O4B 1_555 1_555
O9B N3B 1_555 1_555

#END
