
#######################################################################
#
#                 Cambridge Crystallographic Data Centre
#                                CCDC 
#
#######################################################################
#
# If this CIF has been generated from an entry in the Cambridge 
# Structural Database, then it will include bibliographic, chemical, 
# crystal, experimental, refinement or atomic coordinate data resulting 
# from the CCDC's data processing and validation procedures.
#
#######################################################################

data_AREQUJ
_symmetry_cell_setting           monoclinic
_symmetry_space_group_name_H-M   'P 21/c'
_symmetry_Int_Tables_number      14
_space_group_name_Hall           '-P 2ybc'
loop_
_symmetry_equiv_pos_site_id
_symmetry_equiv_pos_as_xyz
1 x,y,z
2 x,1/2-y,1/2+z
3 -x,-y,-z
4 -x,1/2+y,1/2-z
_cell_length_a                   10.9443(9)
_cell_length_b                   15.8253(13)
_cell_length_c                   8.4201(7)
_cell_angle_alpha                90
_cell_angle_beta                 108.898(2)
_cell_angle_gamma                90
_cell_volume                     1379.73
loop_
_atom_site_label
_atom_site_type_symbol
_atom_site_fract_x
_atom_site_fract_y
_atom_site_fract_z
Ga1 Ga 0.66969(10) 0.38539(7) 0.54525(13)
P1 P 0.6442(2) 0.58251(16) 0.6258(3)
P2 P 0.5636(2) 0.21409(16) 0.3132(3)
O1 O 0.6524(6) 0.2745(4) 0.4341(8)
O2 O 0.7112(6) 0.4981(4) 0.6497(8)
O3 O 0.4999(6) 0.5808(4) 0.5868(8)
O4 O 0.6389(7) 0.1520(4) 0.2429(8)
O5 O 0.6818(7) 0.6289(5) 0.4859(10)
H1 H 0.6305 0.6674 0.4476
O6 O 0.7048(7) 0.6322(5) 0.7930(9)
H2 H 0.6527 0.6671 0.8039
O7 O 0.4929(7) 0.1594(4) 0.4129(9)
H3 H 0.4843 0.1873 0.4906
O8 O 0.4586(6) 0.2570(4) 0.1692(8)
N1 N 0.8640(8) 0.3579(5) 0.6507(11)
N2 N 0.7438(7) 0.4264(5) 0.3566(10)
C1 C 0.9199(11) 0.3272(7) 0.8045(15)
H4 H 0.8678 0.3132 0.8686
C2 C 1.0519(12) 0.3150(8) 0.8733(17)
H5 H 1.0878 0.2945 0.9820
C3 C 1.1299(12) 0.3344(8) 0.776(2)
H6 H 1.2187 0.3260 0.8174
C4 C 1.0735(11) 0.3657(8) 0.6184(19)
H7 H 1.1240 0.3803 0.5525
C5 C 0.9403(10) 0.3760(6) 0.5562(14)
C6 C 0.8711(10) 0.4100(6) 0.3889(13)
C7 C 0.9299(13) 0.4259(9) 0.2648(18)
H8 H 1.0175 0.4160 0.2863
C8 C 0.8534(17) 0.4566(8) 0.1104(17)
H9 H 0.8885 0.4653 0.0248
C9 C 0.7265(15) 0.4740(9) 0.0847(16)
H10 H 0.6752 0.4964 -0.0172
C10 C 0.6751(11) 0.4584(7) 0.2098(13)
H11 H 0.5884 0.4707 0.1909
O3B O 0.5001(6) 0.4192(4) 0.4132(8)
O4A O 0.6389(7) 0.3480(4) 0.7429(8)
Ga1B Ga 0.33031(10) 0.61461(7) 0.45475(13)
Ga1A Ga 0.66969(10) 0.11461(7) 0.04525(13)
loop_
_geom_bond_atom_site_label_1
_geom_bond_atom_site_label_2
_geom_bond_site_symmetry_1
_geom_bond_site_symmetry_2
Ga1 O1 1_555 1_555
P1 O2 1_555 1_555
P2 O1 1_555 1_555
O2 Ga1 1_555 1_555
O3 P1 1_555 1_555
O4 P2 1_555 1_555
O5 P1 1_555 1_555
H1 O5 1_555 1_555
O6 P1 1_555 1_555
H2 O6 1_555 1_555
O7 P2 1_555 1_555
H3 O7 1_555 1_555
O8 P2 1_555 1_555
N1 Ga1 1_555 1_555
N2 Ga1 1_555 1_555
C1 N1 1_555 1_555
H4 C1 1_555 1_555
C2 C1 1_555 1_555
H5 C2 1_555 1_555
C3 C2 1_555 1_555
H6 C3 1_555 1_555
C4 C3 1_555 1_555
H7 C4 1_555 1_555
C5 N1 1_555 1_555
C6 N2 1_555 1_555
C7 C6 1_555 1_555
H8 C7 1_555 1_555
C8 C7 1_555 1_555
H9 C8 1_555 1_555
C9 C8 1_555 1_555
H10 C9 1_555 1_555
C10 N2 1_555 1_555
H11 C10 1_555 1_555
O3B Ga1 1_555 1_555
O4A Ga1 1_555 1_555
Ga1B O3 1_555 1_555
Ga1A O4 1_555 1_555
C4 C5 1_555 1_555
C5 C6 1_555 1_555
C9 C10 1_555 1_555

#END
