
#######################################################################
#
#                 Cambridge Crystallographic Data Centre
#                                CCDC 
#
#######################################################################
#
# If this CIF has been generated from an entry in the Cambridge 
# Structural Database, then it will include bibliographic, chemical, 
# crystal, experimental, refinement or atomic coordinate data resulting 
# from the CCDC's data processing and validation procedures.
#
#######################################################################

data_AREQIY
_symmetry_cell_setting           monoclinic
_symmetry_space_group_name_H-M   'P 21/c'
_symmetry_Int_Tables_number      14
_space_group_name_Hall           '-P 2ybc'
loop_
_symmetry_equiv_pos_site_id
_symmetry_equiv_pos_as_xyz
1 x,y,z
2 -x,1/2+y,1/2-z
3 -x,-y,-z
4 x,1/2-y,1/2+z
_cell_length_a                   7.858(6)
_cell_length_b                   23.474(16)
_cell_length_c                   18.026(13)
_cell_angle_alpha                90
_cell_angle_beta                 101.880(8)
_cell_angle_gamma                90
_cell_volume                     3253.83
loop_
_atom_site_label
_atom_site_type_symbol
_atom_site_fract_x
_atom_site_fract_y
_atom_site_fract_z
Dy1 Dy 0.27327(5) 0.569477(14) 0.145648(18)
C1 C 0.0219(9) 0.6198(3) 0.4053(4)
C2 C -0.0347(9) 0.6664(3) 0.3585(4)
C3 C -0.0254(10) 0.7212(3) 0.3891(4)
C4 C 0.0463(10) 0.7297(3) 0.4652(4)
C5 C 0.1032(10) 0.6826(3) 0.5124(4)
C6 C 0.0894(10) 0.6284(3) 0.4824(4)
C7 C 0.0101(10) 0.5604(3) 0.3724(4)
H1 H -0.0907 0.5584 0.3311
H2 H -0.0082 0.5337 0.4111
C8 C -0.1127(10) 0.6589(3) 0.2753(4)
H3 H -0.2366 0.6636 0.2670
H4 H -0.0864 0.6215 0.2596
H5 H -0.0650 0.6869 0.2465
C9 C -0.0913(12) 0.7702(3) 0.3382(5)
H6 H -0.1866 0.7578 0.2993
H7 H 0.0003 0.7844 0.3154
H8 H -0.1301 0.8000 0.3673
C10 C 0.0661(9) 0.7891(3) 0.4989(4)
H9 H 0.0546 0.7863 0.5513
H10 H -0.0305 0.8119 0.4725
C11 C 0.1746(11) 0.6906(3) 0.5965(4)
H11 H 0.1308 0.6611 0.6243
H12 H 0.1390 0.7271 0.6121
H13 H 0.2993 0.6888 0.6064
C12 C 0.1464(13) 0.5779(3) 0.5341(5)
H14 H 0.2524 0.5872 0.5690
H15 H 0.1652 0.5456 0.5043
H16 H 0.0576 0.5691 0.5618
C13 C 0.4742(18) 0.6011(7) 0.3897(6)
H17 H 0.5472 0.5889 0.3553
H18 H 0.4025 0.6320 0.3651
C14 C 0.578(2) 0.6223(9) 0.4515(8)
H19 H 0.5141 0.6270 0.4909
H20 H 0.6226 0.6586 0.4396
H21 H 0.6737 0.5966 0.4683
C15 C 0.3137(14) 0.4352(4) 0.3275(6)
H22 H 0.3521 0.4490 0.2830
H23 H 0.4132 0.4352 0.3695
C16 C 0.2520(17) 0.3794(5) 0.3144(9)
H24 H 0.2370 0.3628 0.3612
H25 H 0.3342 0.3573 0.2939
H26 H 0.1425 0.3799 0.2790
C17 C 0.5875(13) 0.7998(5) 0.5443(7)
H27 H 0.6048 0.8378 0.5658
H28 H 0.6237 0.8000 0.4960
C18 C 0.6904(14) 0.7598(5) 0.5943(7)
H29 H 0.7013 0.7252 0.5673
H30 H 0.8037 0.7755 0.6133
H31 H 0.6350 0.7517 0.6359
C19 C 0.2921(17) 0.8843(4) 0.3759(5)
H32 H 0.1794 0.9029 0.3646
H33 H 0.3730 0.9097 0.4079
C20 C 0.3493(18) 0.8744(5) 0.3079(6)
H34 H 0.2943 0.8407 0.2839
H35 H 0.3193 0.9064 0.2746
H36 H 0.4732 0.8693 0.3188
N1 N 0.1945(9) 0.4580(3) 0.0808(4)
N2 N 0.6281(10) 0.5301(3) 0.1817(4)
N3 N 0.3462(12) 0.6799(3) 0.2099(4)
O1 O 0.2029(6) 0.55958(19) 0.2618(3)
O2 O 0.3621(8) 0.5552(3) 0.3975(3)
O3 O 0.1841(8) 0.4729(2) 0.3445(3)
O4 O 0.2668(6) 0.88143(19) 0.5370(2)
O5 O 0.4054(7) 0.7846(2) 0.5329(3)
O6 O 0.2791(8) 0.8333(2) 0.4150(3)
O7 O -0.0267(6) 0.5728(2) 0.1043(3)
H37 H -0.0885 0.5515 0.1303
H38 H -0.0678 0.5639 0.0625
O8 O 0.2020(9) 0.4678(2) 0.1502(3)
O9 O 0.2224(7) 0.4985(2) 0.0418(3)
O10 O 0.1548(9) 0.4112(2) 0.0533(4)
O11 O 0.5283(7) 0.5226(2) 0.2260(3)
O12 O 0.5638(7) 0.5514(2) 0.1192(3)
O13 O 0.7827(7) 0.5165(2) 0.1986(3)
O14 O 0.1955(8) 0.6676(2) 0.1773(3)
O15 O 0.4620(8) 0.6421(3) 0.2087(3)
O16 O 0.3830(10) 0.7254(3) 0.2408(4)
P1 P 0.2584(3) 0.82646(8) 0.49705(11)
P2 P 0.1958(3) 0.53863(9) 0.33809(11)
Dy1C Dy 0.27327(5) 0.930523(14) 0.645648(18)
O4C O 0.2668(6) 0.61857(19) 0.0370(2)
loop_
_geom_bond_atom_site_label_1
_geom_bond_atom_site_label_2
_geom_bond_site_symmetry_1
_geom_bond_site_symmetry_2
Dy1 O1 1_555 1_555
C1 C2 1_555 1_555
C2 C3 1_555 1_555
C3 C4 1_555 1_555
C4 C5 1_555 1_555
C5 C6 1_555 1_555
C6 C1 1_555 1_555
C7 C1 1_555 1_555
H1 C7 1_555 1_555
H2 C7 1_555 1_555
C8 C2 1_555 1_555
H3 C8 1_555 1_555
H4 C8 1_555 1_555
H5 C8 1_555 1_555
C9 C3 1_555 1_555
H6 C9 1_555 1_555
H7 C9 1_555 1_555
H8 C9 1_555 1_555
C10 C4 1_555 1_555
H9 C10 1_555 1_555
H10 C10 1_555 1_555
C11 C5 1_555 1_555
H11 C11 1_555 1_555
H12 C11 1_555 1_555
H13 C11 1_555 1_555
C12 C6 1_555 1_555
H14 C12 1_555 1_555
H15 C12 1_555 1_555
H16 C12 1_555 1_555
C13 H17 1_555 1_555
H18 C13 1_555 1_555
C14 C13 1_555 1_555
H19 C14 1_555 1_555
H20 C14 1_555 1_555
H21 C14 1_555 1_555
C15 H22 1_555 1_555
H23 C15 1_555 1_555
C16 C15 1_555 1_555
H24 C16 1_555 1_555
H25 C16 1_555 1_555
H26 C16 1_555 1_555
C17 H27 1_555 1_555
H28 C17 1_555 1_555
C18 C17 1_555 1_555
H29 C18 1_555 1_555
H30 C18 1_555 1_555
H31 C18 1_555 1_555
C19 H32 1_555 1_555
H33 C19 1_555 1_555
C20 C19 1_555 1_555
H34 C20 1_555 1_555
H35 C20 1_555 1_555
H36 C20 1_555 1_555
N1 O8 1_555 1_555
N2 O11 1_555 1_555
N3 O14 1_555 1_555
O1 P2 1_555 1_555
O2 C13 1_555 1_555
O3 C15 1_555 1_555
O4 P1 1_555 1_555
O5 C17 1_555 1_555
O6 C19 1_555 1_555
O7 Dy1 1_555 1_555
H37 O7 1_555 1_555
H38 O7 1_555 1_555
O8 Dy1 1_555 1_555
O9 Dy1 1_555 1_555
O10 N1 1_555 1_555
O11 Dy1 1_555 1_555
O12 Dy1 1_555 1_555
O13 N2 1_555 1_555
O14 Dy1 1_555 1_555
O15 Dy1 1_555 1_555
O16 N3 1_555 1_555
P1 C10 1_555 1_555
P2 C7 1_555 1_555
Dy1C O4 1_555 1_555
O4C Dy1 1_555 1_555
N1 O9 1_555 1_555
N2 O12 1_555 1_555
N3 O15 1_555 1_555
O2 P2 1_555 1_555
O3 P2 1_555 1_555
O5 P1 1_555 1_555
O6 P1 1_555 1_555

#END
