
#######################################################################
#
#                 Cambridge Crystallographic Data Centre
#                                CCDC 
#
#######################################################################
#
# If this CIF has been generated from an entry in the Cambridge 
# Structural Database, then it will include bibliographic, chemical, 
# crystal, experimental, refinement or atomic coordinate data resulting 
# from the CCDC's data processing and validation procedures.
#
#######################################################################

data_ARIFAI
_symmetry_cell_setting           monoclinic
_symmetry_space_group_name_H-M   'P n'
_symmetry_Int_Tables_number      7
_space_group_name_Hall           'P -2yac'
loop_
_symmetry_equiv_pos_site_id
_symmetry_equiv_pos_as_xyz
1 x,y,z
2 1/2+x,-y,1/2+z
_cell_length_a                   12.947(3)
_cell_length_b                   13.294(3)
_cell_length_c                   18.977(4)
_cell_angle_alpha                90
_cell_angle_beta                 100.77(3)
_cell_angle_gamma                90
_cell_volume                     3208.74
loop_
_atom_site_label
_atom_site_type_symbol
_atom_site_fract_x
_atom_site_fract_y
_atom_site_fract_z
Pr1 Pr -0.73275(6) -0.74831(5) 0.72827(4)
P1 P -0.9836(3) -1.2519(3) 0.80788(19)
Mo1 Mo -0.91584(9) -1.31685(9) 0.99228(6)
Mo2 Mo -0.72061(8) -1.28659(9) 0.89559(6)
Mo3 Mo -0.85422(8) -1.08220(9) 0.93883(6)
Mo4 Mo -1.11637(8) -1.02358(9) 0.83074(6)
Mo5 Mo -1.25111(8) -1.20862(9) 0.72860(6)
Mo6 Mo -1.18644(9) -1.23788(9) 0.91104(6)
Mo7 Mo -0.78948(8) -1.25528(9) 0.69749(6)
Mo8 Mo -0.88125(8) -1.02998(9) 0.74465(6)
Mo9 Mo -1.03817(8) -1.18018(9) 0.62418(6)
Mo10 Mo -0.86919(7) -1.48469(8) 0.78291(6)
Mo11 Mo -1.08396(8) -1.48238(8) 0.86147(6)
Mo12 Mo -1.10826(7) -1.43273(9) 0.68193(6)
O1 O -0.9122(8) -1.3515(8) 1.0771(5)
O2 O -0.5978(8) -1.3237(8) 0.9220(6)
O3 O -0.8004(8) -0.9842(9) 0.9868(6)
O4 O -1.1530(8) -0.9056(9) 0.8495(5)
O5 O -1.3691(7) -1.1953(8) 0.6761(6)
O6 O -1.2711(9) -1.2534(7) 0.9657(6)
O7 O -0.6805(8) -1.2720(8) 0.6616(5)
O8 O -0.8409(7) -0.9125(8) 0.7278(5)
O9 O -1.0859(7) -1.1642(8) 0.5370(5)
O10 O -0.7878(7) -1.5789(8) 0.7680(5)
O11 O -1.1267(7) -1.5804(7) 0.9019(5)
O12 O -1.1826(7) -1.4995(8) 0.6176(5)
O13 O -0.7230(8) -1.1589(8) 0.9344(5)
O14 O -0.8781(8) -1.1698(7) 1.0076(5)
O15 O -0.8331(7) -1.0464(7) 0.8379(5)
O16 O -0.9897(7) -1.0424(7) 0.9078(5)
O17 O -0.7808(7) -1.3375(7) 0.9789(5)
O18 O -1.0599(8) -1.2549(7) 0.9681(5)
O19 O -1.1807(7) -1.0990(7) 0.9019(5)
O20 O -1.2858(8) -1.2351(7) 0.8167(6)
O21 O -1.1678(7) -1.3784(7) 0.8795(5)
O22 O -1.2264(7) -1.0667(7) 0.7625(5)
O23 O -0.9775(6) -1.4222(7) 0.9414(5)
O24 O -1.2095(6) -1.3332(7) 0.7074(5)
O25 O -1.1447(6) -1.5041(7) 0.7669(5)
O26 O -1.1539(7) -1.1641(7) 0.6643(5)
O27 O -1.0602(7) -1.3270(6) 0.6338(5)
O28 O -0.9857(7) -1.5061(7) 0.6992(5)
O29 O -0.9533(7) -1.5442(7) 0.8372(5)
O30 O -1.0215(7) -1.0038(8) 0.7718(6)
O31 O -0.7885(7) -1.4128(7) 0.8538(5)
O32 O -0.9730(7) -1.0610(7) 0.6500(5)
O33 O -0.8286(6) -1.3829(7) 0.7163(5)
O34 O -0.8925(8) -1.2305(7) 0.6188(5)
O35 O -0.7817(7) -1.1053(7) 0.7134(5)
O36 O -0.7263(7) -1.2508(7) 0.8027(5)
O37 O -0.9036(7) -1.2403(6) 0.8772(5)
O38 O -1.0878(6) -1.2011(7) 0.8150(4)
O39 O -0.9413(6) -1.2002(7) 0.7458(4)
O40 O -1.0008(6) -1.3641(7) 0.7911(4)
N1 N -0.4277(9) -0.5620(10) 0.7689(7)
O41 O -0.5714(6) -0.6596(8) 0.7712(6)
C1 C -0.5263(10) -0.5737(11) 0.7718(7)
C2 C -0.5764(10) -0.4751(12) 0.7768(9)
H1 H -0.6070 -0.4709 0.8196
H2 H -0.6307 -0.4627 0.7351
C3 C -0.4858(11) -0.4002(13) 0.7802(11)
H3 H -0.5049 -0.3468 0.7453
H4 H -0.4680 -0.3705 0.8276
C4 C -0.3985(11) -0.4573(14) 0.7641(12)
H5 H -0.3348 -0.4424 0.7983
H6 H -0.3868 -0.4418 0.7163
C5 C -0.3549(11) -0.6453(13) 0.7622(10)
H7 H -0.3895 -0.7084 0.7664
H8 H -0.2939 -0.6402 0.7995
H9 H -0.3341 -0.6417 0.7163
N2 N -0.7203(10) -0.4931(10) 0.5620(7)
O42 O -0.7249(8) -0.6277(9) 0.6342(6)
C6 C -0.7692(12) -0.5667(11) 0.5894(7)
C7 C -0.8843(11) -0.5702(12) 0.5552(7)
H10 H -0.8988 -0.6239 0.5202
H11 H -0.9284 -0.5787 0.5909
C8 C -0.8998(13) -0.4687(15) 0.5203(10)
H12 H -0.9493 -0.4729 0.4752
H13 H -0.9267 -0.4213 0.5513
C9 C -0.7941(14) -0.4362(15) 0.5078(11)
H14 H -0.7849 -0.4531 0.4597
H15 H -0.7846 -0.3643 0.5150
C10 C -0.6089(14) -0.4758(15) 0.5777(9)
H16 H -0.5768 -0.5209 0.6150
H17 H -0.5953 -0.4076 0.5934
H18 H -0.5800 -0.4875 0.5354
N3 N -0.7742(8) -0.6772(9) 0.9518(6)
O43 O -0.7708(11) -0.7574(8) 0.8472(6)
C11 C -0.8117(13) -0.7383(10) 0.8979(8)
C12 C -0.9159(12) -0.7765(11) 0.9109(8)
H19 H -0.9735 -0.7441 0.8788
H20 H -0.9215 -0.8487 0.9037
C13 C -0.9175(13) -0.7499(11) 0.9874(9)
H21 H -0.9877 -0.7305 0.9931
H22 H -0.8947 -0.8065 1.0187
C14 C -0.8431(12) -0.6640(12) 1.0043(8)
H23 H -0.8797 -0.6001 0.9978
H24 H -0.8038 -0.6682 1.0530
C15 C -0.6784(11) -0.6166(13) 0.9528(8)
H25 H -0.6452 -0.6368 0.9139
H26 H -0.6308 -0.6267 0.9974
H27 H -0.6970 -0.5467 0.9477
N4 N -0.4974(14) -0.9923(15) 0.8395(10)
O44 O -0.6170(8) -0.8821(8) 0.7791(6)
C16 C -0.5497(12) -0.9094(14) 0.8291(9)
C17 C -0.4999(16) -0.834(2) 0.8886(9)
H28 H -0.4827 -0.7704 0.8679
H29 H -0.5470 -0.8203 0.9218
C18 C -0.4049(19) -0.886(2) 0.9244(11)
H30 H -0.3951 -0.8764 0.9760
H31 H -0.3436 -0.8596 0.9079
C19 C -0.4215(13) -0.9983(17) 0.9047(10)
H32 H -0.3568 -1.0296 0.8971
H33 H -0.4487 -1.0351 0.9415
C20 C -0.5283(15) -1.0786(15) 0.7954(13)
H34 H -0.5796 -1.0591 0.7543
H35 H -0.5582 -1.1281 0.8225
H36 H -0.4679 -1.1064 0.7799
N5 N -0.5546(10) -0.9478(12) 0.6143(7)
O45 O -0.6868(10) -0.8403(9) 0.6332(7)
C21 C -0.6524(14) -0.9177(13) 0.6074(9)
C22 C -0.7253(11) -0.9935(14) 0.5612(9)
H37 H -0.7769 -1.0205 0.5872
H38 H -0.7617 -0.9625 0.5172
C23 C -0.6503(15) -1.0756(14) 0.5454(10)
H39 H -0.6568 -1.0851 0.4941
H40 H -0.6654 -1.1388 0.5668
C24 C -0.5386(15) -1.0385(15) 0.5788(10)
H41 H -0.5024 -1.0875 0.6125
H42 H -0.4974 -1.0266 0.5419
C25 C -0.4683(13) -0.893(2) 0.6546(10)
H43 H -0.4940 -0.8336 0.6742
H44 H -0.4205 -0.8745 0.6239
H45 H -0.4324 -0.9346 0.6930
N6 N -1.0432(9) -0.8208(10) 0.6154(6)
O46 O -0.9122(7) -0.7267(8) 0.6807(6)
C26 C -1.0019(9) -0.7642(10) 0.6714(7)
C27 C -1.0794(11) -0.7562(11) 0.7210(8)
H46 H -1.0850 -0.6874 0.7368
H47 H -1.0590 -0.7990 0.7627
C28 C -1.1823(12) -0.7915(14) 0.6756(9)
H48 H -1.2226 -0.7350 0.6527
H49 H -1.2243 -0.8276 0.7046
C29 C -1.1480(11) -0.8619(13) 0.6190(9)
H50 H -1.1437 -0.9314 0.6349
H51 H -1.1954 -0.8570 0.5731
C30 C -0.9879(11) -0.8520(13) 0.5582(8)
H52 H -0.9209 -0.8189 0.5645
H53 H -1.0290 -0.8339 0.5125
H54 H -0.9776 -0.9235 0.5602
O10_2 O -0.7878(7) -0.5789(8) 0.7680(5)
Pr1_2 Pr -0.73275(6) -1.74831(5) 0.72827(4)
loop_
_geom_bond_atom_site_label_1
_geom_bond_atom_site_label_2
_geom_bond_site_symmetry_1
_geom_bond_site_symmetry_2
Pr1 O8 1_555 1_555
P1 O37 1_555 1_555
Mo1 O1 1_555 1_555
Mo2 O2 1_555 1_555
Mo3 O3 1_555 1_555
Mo4 O4 1_555 1_555
Mo5 O5 1_555 1_555
Mo6 O6 1_555 1_555
Mo7 O7 1_555 1_555
Mo8 O8 1_555 1_555
Mo9 O9 1_555 1_555
Mo10 O10 1_555 1_555
Mo11 O11 1_555 1_555
Mo12 O12 1_555 1_555
O10 Pr1_2 1_555 1_555
O13 Mo2 1_555 1_555
O14 Mo1 1_555 1_555
O15 Mo3 1_555 1_555
O16 Mo3 1_555 1_555
O17 Mo1 1_555 1_555
O18 Mo1 1_555 1_555
O19 Mo4 1_555 1_555
O20 Mo5 1_555 1_555
O21 Mo6 1_555 1_555
O22 Mo4 1_555 1_555
O23 Mo1 1_555 1_555
O24 Mo5 1_555 1_555
O25 Mo11 1_555 1_555
O26 Mo5 1_555 1_555
O27 Mo9 1_555 1_555
O28 Mo10 1_555 1_555
O29 Mo10 1_555 1_555
O30 Mo4 1_555 1_555
O31 Mo2 1_555 1_555
O32 Mo8 1_555 1_555
O33 Mo7 1_555 1_555
O34 Mo7 1_555 1_555
O35 Mo7 1_555 1_555
O36 Mo2 1_555 1_555
O37 Mo1 1_555 1_555
O38 P1 1_555 1_555
O39 P1 1_555 1_555
O40 P1 1_555 1_555
N1 C1 1_555 1_555
O41 Pr1 1_555 1_555
C1 O41 1_555 1_555
C2 C1 1_555 1_555
H1 C2 1_555 1_555
H2 C2 1_555 1_555
C3 C2 1_555 1_555
H3 C3 1_555 1_555
H4 C3 1_555 1_555
C4 N1 1_555 1_555
H5 C4 1_555 1_555
H6 C4 1_555 1_555
C5 N1 1_555 1_555
H7 C5 1_555 1_555
H8 C5 1_555 1_555
H9 C5 1_555 1_555
N2 C6 1_555 1_555
O42 Pr1 1_555 1_555
C6 O42 1_555 1_555
C7 C6 1_555 1_555
H10 C7 1_555 1_555
H11 C7 1_555 1_555
C8 C7 1_555 1_555
H12 C8 1_555 1_555
H13 C8 1_555 1_555
C9 N2 1_555 1_555
H14 C9 1_555 1_555
H15 C9 1_555 1_555
C10 N2 1_555 1_555
H16 C10 1_555 1_555
H17 C10 1_555 1_555
H18 C10 1_555 1_555
N3 C11 1_555 1_555
O43 Pr1 1_555 1_555
C11 O43 1_555 1_555
C12 C11 1_555 1_555
H19 C12 1_555 1_555
H20 C12 1_555 1_555
C13 C12 1_555 1_555
H21 C13 1_555 1_555
H22 C13 1_555 1_555
C14 N3 1_555 1_555
H23 C14 1_555 1_555
H24 C14 1_555 1_555
C15 N3 1_555 1_555
H25 C15 1_555 1_555
H26 C15 1_555 1_555
H27 C15 1_555 1_555
N4 C16 1_555 1_555
O44 Pr1 1_555 1_555
C16 O44 1_555 1_555
C17 C16 1_555 1_555
H28 C17 1_555 1_555
H29 C17 1_555 1_555
C18 C17 1_555 1_555
H30 C18 1_555 1_555
H31 C18 1_555 1_555
C19 N4 1_555 1_555
H32 C19 1_555 1_555
H33 C19 1_555 1_555
C20 N4 1_555 1_555
H34 C20 1_555 1_555
H35 C20 1_555 1_555
H36 C20 1_555 1_555
N5 C21 1_555 1_555
O45 Pr1 1_555 1_555
C21 O45 1_555 1_555
C22 C21 1_555 1_555
H37 C22 1_555 1_555
H38 C22 1_555 1_555
C23 C22 1_555 1_555
H39 C23 1_555 1_555
H40 C23 1_555 1_555
C24 N5 1_555 1_555
H41 C24 1_555 1_555
H42 C24 1_555 1_555
C25 N5 1_555 1_555
H43 C25 1_555 1_555
H44 C25 1_555 1_555
H45 C25 1_555 1_555
N6 C26 1_555 1_555
O46 Pr1 1_555 1_555
C26 O46 1_555 1_555
C27 C26 1_555 1_555
H46 C27 1_555 1_555
H47 C27 1_555 1_555
C28 C27 1_555 1_555
H48 C28 1_555 1_555
H49 C28 1_555 1_555
C29 N6 1_555 1_555
H50 C29 1_555 1_555
H51 C29 1_555 1_555
C30 N6 1_555 1_555
H52 C30 1_555 1_555
H53 C30 1_555 1_555
H54 C30 1_555 1_555
O10_2 Pr1 1_555 1_555
Mo2 O17 1_555 1_555
Mo2 O37 1_555 1_555
Mo3 O13 1_555 1_555
Mo3 O37 1_555 1_555
Mo3 O14 1_555 1_555
Mo4 O38 1_555 1_555
Mo4 O16 1_555 1_555
Mo5 O38 1_555 1_555
Mo5 O22 1_555 1_555
Mo6 O38 1_555 1_555
Mo6 O18 1_555 1_555
Mo6 O19 1_555 1_555
Mo6 O20 1_555 1_555
Mo7 O39 1_555 1_555
Mo7 O36 1_555 1_555
Mo8 O15 1_555 1_555
Mo8 O30 1_555 1_555
Mo8 O35 1_555 1_555
Mo8 O39 1_555 1_555
Mo9 O34 1_555 1_555
Mo9 O32 1_555 1_555
Mo9 O39 1_555 1_555
Mo9 O26 1_555 1_555
Mo10 O33 1_555 1_555
Mo10 O40 1_555 1_555
Mo10 O31 1_555 1_555
Mo11 O29 1_555 1_555
Mo11 O40 1_555 1_555
Mo11 O21 1_555 1_555
Mo11 O23 1_555 1_555
Mo12 O40 1_555 1_555
Mo12 O24 1_555 1_555
Mo12 O25 1_555 1_555
Mo12 O27 1_555 1_555
Mo12 O28 1_555 1_555
C3 C4 1_555 1_555
C8 C9 1_555 1_555
C13 C14 1_555 1_555
C18 C19 1_555 1_555
C23 C24 1_555 1_555
C28 C29 1_555 1_555

#END
