
#######################################################################
#
#                 Cambridge Crystallographic Data Centre
#                                CCDC 
#
#######################################################################
#
# If this CIF has been generated from an entry in the Cambridge 
# Structural Database, then it will include bibliographic, chemical, 
# crystal, experimental, refinement or atomic coordinate data resulting 
# from the CCDC's data processing and validation procedures.
#
#######################################################################

data_ARIHIS
_symmetry_cell_setting           tetragonal
_symmetry_space_group_name_H-M   'P 43 21 2'
_symmetry_Int_Tables_number      96
_space_group_name_Hall           'P 4nw 2abw'
loop_
_symmetry_equiv_pos_site_id
_symmetry_equiv_pos_as_xyz
1 x,y,z
2 -x,-y,1/2+z
3 1/2-y,1/2+x,3/4+z
4 1/2+y,1/2-x,1/4+z
5 1/2-x,1/2+y,3/4-z
6 1/2+x,1/2-y,1/4-z
7 y,x,-z
8 -y,-x,1/2-z
_cell_length_a                   8.095(1)
_cell_length_b                   8.095(1)
_cell_length_c                   46.283(6)
_cell_angle_alpha                90
_cell_angle_beta                 90
_cell_angle_gamma                90
_cell_volume                     3032.88
loop_
_atom_site_label
_atom_site_type_symbol
_atom_site_fract_x
_atom_site_fract_y
_atom_site_fract_z
Co1 Co 0.17334(8) -0.82666(8) 0.5000
O1 O 0.3450(5) -0.9864(4) 0.52132(7)
O2 O 0.1007(5) -0.7437(5) 0.54036(7)
N1 N 0.3644(4) -0.6356(4) 0.5000
C1 C 0.4610(7) -0.6122(7) 0.52297(13)
C2 C 0.0516(7) -0.6002(7) 0.54585(11)
C3 C 0.7377(6) -0.2623(6) 0.5000
C4 C 0.6079(6) -0.3921(6) 0.5000
C5 C 0.0567(6) -0.5478(7) 0.57730(10)
O3 O -0.0013(6) -0.4970(5) 0.52817(8)
N2 N -0.0349(8) -0.1736(8) 0.62189(12)
C6 C 0.5827(7) -0.4927(7) 0.52389(12)
O4 O 0.2086(7) -0.8629(8) 0.64192(11)
O5 O -0.0553(7) -0.0740(7) 0.60245(12)
C7 C 0.0125(7) -0.3889(8) 0.58510(13)
C8 C 0.1083(7) -0.6576(8) 0.59864(12)
O6 O 0.1602(8) -0.6801(9) 0.67472(9)
C9 C 0.1066(7) -0.6094(8) 0.62688(11)
O7 O -0.0535(9) -0.1417(7) 0.64724(11)
C10 C 0.0601(8) -0.4534(9) 0.63548(13)
C11 C 0.0153(7) -0.3441(8) 0.61382(11)
N3 N 0.1614(8) -0.7255(8) 0.64964(12)
N4 N 0.9837(5) -0.0163(5) 0.5000
C12 C 0.8814(6) -0.0353(7) 0.52216(12)
C13 C 0.7596(6) -0.1561(7) 0.52366(11)
C14 C 0.2988(10) -1.1248(9) 0.5384(2)
H1 H 0.6738(74) -0.1756(70) 0.5406(11)
H2 H 0.6536(77) -0.4787(73) 0.5429(12)
H3 H 0.2717(51) -1.1842(55) 0.5262(9)
H4 H 0.0693(59) -0.4245(59) 0.6548(10)
H5 H 0.4383(75) -0.6610(76) 0.5363(11)
H6 H -0.0167(57) -0.3164(63) 0.5739(9)
H7 H 0.1306(53) -0.7593(61) 0.5934(9)
H8 H 0.2267(95) -1.0882(93) 0.5541(14)
H9 H 0.9026(64) 0.0350(70) 0.5368(11)
H10 H 0.408(12) -1.183(12) 0.5529(17)
C12F C 0.9647(7) -0.1186(6) 0.47784(12)
C13F C 0.8439(7) -0.2404(6) 0.47634(11)
H1F H 0.8244(70) -0.3262(74) 0.4594(11)
H9F H 1.0350(70) -0.0974(64) 0.4632(11)
C6F C 0.5073(7) -0.4173(7) 0.47611(12)
C1F C 0.3878(7) -0.5390(7) 0.47703(13)
H5F H 0.3390(76) -0.5617(75) 0.4637(11)
H2F H 0.5213(73) -0.3464(77) 0.4571(12)
O1F O 0.0136(4) -0.6550(5) 0.47868(7)
C14F C -0.1248(9) -0.7012(10) 0.4616(2)
H3F H -0.1842(55) -0.7283(51) 0.4738(9)
H8F H -0.0882(93) -0.7733(95) 0.4459(14)
H10F H -0.183(12) -0.592(12) 0.4471(17)
O2F O 0.2563(5) -0.8993(5) 0.45964(7)
C2F C 0.3998(7) -0.9484(7) 0.45415(11)
C5F C 0.4522(7) -0.9433(6) 0.42270(10)
O3F O 0.5030(5) -1.0013(6) 0.47183(8)
N2F N 0.8264(8) -1.0349(8) 0.37811(12)
O4F O 0.1371(8) -0.7914(7) 0.35808(11)
O5F O 0.9260(7) -1.0553(7) 0.39755(12)
C7F C 0.6111(8) -0.9875(7) 0.41490(13)
C8F C 0.3424(8) -0.8917(7) 0.40136(12)
O6F O 0.3199(9) -0.8398(8) 0.32528(9)
C9F C 0.3906(8) -0.8934(7) 0.37312(11)
O7F O 0.8583(7) -1.0535(9) 0.35276(11)
C10F C 0.5466(9) -0.9399(8) 0.36452(13)
C11F C 0.6559(8) -0.9847(7) 0.38618(11)
N3F N 0.2745(8) -0.8386(8) 0.35036(12)
H4F H 0.5755(59) -0.9307(59) 0.3452(10)
H6F H 0.6836(63) -1.0167(57) 0.4261(9)
H7F H 0.2407(61) -0.8694(53) 0.4066(9)
N4_2 N -0.0163(5) -1.0163(5) 0.5000
Co1_2 Co 1.17334(8) 0.17334(8) 0.5000
loop_
_geom_bond_atom_site_label_1
_geom_bond_atom_site_label_2
_geom_bond_site_symmetry_1
_geom_bond_site_symmetry_2
Co1 O1 1_555 1_555
O1 C14 1_555 1_555
O2 Co1 1_555 1_555
N1 Co1 1_555 1_555
C1 N1 1_555 1_555
C2 O2 1_555 1_555
C3 C4 1_555 1_555
C4 C6 1_555 1_555
C5 C2 1_555 1_555
O3 C2 1_555 1_555
N2 O5 1_555 1_555
C6 C1 1_555 1_555
O4 N3 1_555 1_555
C7 C5 1_555 1_555
C8 C5 1_555 1_555
O6 N3 1_555 1_555
C9 C8 1_555 1_555
O7 N2 1_555 1_555
C10 C9 1_555 1_555
C11 N2 1_555 1_555
N3 C9 1_555 1_555
N4 C12 1_555 1_555
C12 C13 1_555 1_555
C13 C3 1_555 1_555
C14 H3 1_555 1_555
H1 C13 1_555 1_555
H2 C6 1_555 1_555
H4 C10 1_555 1_555
H5 C1 1_555 1_555
H6 C7 1_555 1_555
H7 C8 1_555 1_555
H8 C14 1_555 1_555
H9 C12 1_555 1_555
H10 C14 1_555 1_555
C12F N4 1_555 1_555
C13F C3 1_555 1_555
H1F C13F 1_555 1_555
H9F C12F 1_555 1_555
C6F C4 1_555 1_555
C1F N1 1_555 1_555
H5F C1F 1_555 1_555
H2F C6F 1_555 1_555
O1F Co1 1_555 1_555
C14F O1F 1_555 1_555
H3F C14F 1_555 1_555
H8F C14F 1_555 1_555
H10F C14F 1_555 1_555
O2F Co1 1_555 1_555
C2F O2F 1_555 1_555
C5F C2F 1_555 1_555
O3F C2F 1_555 1_555
N2F O5F 1_555 1_555
O4F N3F 1_555 1_555
C7F C5F 1_555 1_555
C8F C5F 1_555 1_555
O6F N3F 1_555 1_555
C9F C8F 1_555 1_555
O7F N2F 1_555 1_555
C10F C9F 1_555 1_555
C11F N2F 1_555 1_555
N3F C9F 1_555 1_555
H4F C10F 1_555 1_555
H6F C7F 1_555 1_555
H7F C8F 1_555 1_555
N4_2 Co1 1_555 1_555
Co1_2 N4 1_555 1_555
C7 C11 1_555 1_555
C10 C11 1_555 1_555
C12F C13F 1_555 1_555
C6F C1F 1_555 1_555
C7F C11F 1_555 1_555
C10F C11F 1_555 1_555

#END
