
#######################################################################
#
#                 Cambridge Crystallographic Data Centre
#                                CCDC 
#
#######################################################################
#
# If this CIF has been generated from an entry in the Cambridge 
# Structural Database, then it will include bibliographic, chemical, 
# crystal, experimental, refinement or atomic coordinate data resulting 
# from the CCDC's data processing and validation procedures.
#
#######################################################################

data_AROBAK
_symmetry_cell_setting           monoclinic
_symmetry_space_group_name_H-M   'P 21/c'
_symmetry_Int_Tables_number      14
_space_group_name_Hall           '-P 2ybc'
loop_
_symmetry_equiv_pos_site_id
_symmetry_equiv_pos_as_xyz
1 x,y,z
2 x,1/2-y,1/2+z
3 -x,-y,-z
4 -x,1/2+y,1/2-z
_cell_length_a                   4.993(1)
_cell_length_b                   14.691(1)
_cell_length_c                   10.194(1)
_cell_angle_alpha                90
_cell_angle_beta                 102.40(1)
_cell_angle_gamma                90
_cell_volume                     730.309
loop_
_atom_site_label
_atom_site_type_symbol
_atom_site_fract_x
_atom_site_fract_y
_atom_site_fract_z
Zn1 Zn 1.0000 0.0000 1.0000
S1 S 0.60428(7) 0.08974(2) 1.15557(4)
O1 O 0.7004(2) 0.09479(8) 1.0293(1)
O2 O 0.7147(3) 0.15861(8) 1.2516(1)
O3 O 0.3057(2) 0.08313(8) 1.1325(1)
N1 N 0.9071(3) -0.06068(9) 1.1679(1)
C1 C 0.7308(3) -0.0172(1) 1.2274(2)
C2 C 0.6437(3) -0.0504(1) 1.3377(2)
C3 C 0.7411(3) -0.1343(1) 1.3910(2)
C4 C 0.9220(4) -0.1805(1) 1.3283(2)
C5 C 1.0015(3) -0.1423(1) 1.2190(2)
C6 C 0.6551(5) -0.1733(2) 1.5116(2)
H1 H 0.504(5) -0.015(1) 1.382(2)
H2 H 0.972(5) -0.238(2) 1.361(2)
H3 H 1.129(4) -0.175(2) 1.179(2)
H4 H 0.475(5) -0.149(2) 1.517(2)
H5 H 0.788(6) -0.152(2) 1.581(3)
H6 H 0.677(7) -0.234(2) 1.517(4)
S1B S 1.39572(7) -0.08974(2) 0.84443(4)
O1B O 1.2996(2) -0.09479(8) 0.9707(1)
O2B O 1.2853(3) -0.15861(8) 0.7484(1)
O3B O 1.6943(2) -0.08313(8) 0.8675(1)
N1B N 1.0929(3) 0.06068(9) 0.8321(1)
C1B C 1.2692(3) 0.0172(1) 0.7726(2)
C2B C 1.3563(3) 0.0504(1) 0.6623(2)
C3B C 1.2589(3) 0.1343(1) 0.6090(2)
C4B C 1.0780(4) 0.1805(1) 0.6717(2)
C5B C 0.9985(3) 0.1423(1) 0.7810(2)
C6B C 1.3449(5) 0.1733(2) 0.4884(2)
H1B H 1.496(5) 0.015(1) 0.618(2)
H2B H 1.028(5) 0.238(2) 0.639(2)
H3B H 0.871(4) 0.175(2) 0.821(2)
H4B H 1.525(5) 0.149(2) 0.483(2)
H5B H 1.212(6) 0.152(2) 0.419(3)
H6B H 1.323(7) 0.234(2) 0.483(4)
O3_2 O 1.3057(2) 0.08313(8) 1.1325(1)
O3B_2 O 0.6943(2) -0.08313(8) 0.8675(1)
Zn1_2 Zn 0.0000 0.0000 1.0000
Zn1_3 Zn 2.0000 0.0000 1.0000
loop_
_geom_bond_atom_site_label_1
_geom_bond_atom_site_label_2
_geom_bond_site_symmetry_1
_geom_bond_site_symmetry_2
Zn1 O1 1_555 1_555
S1 O1 1_555 1_555
O2 S1 1_555 1_555
O3 S1 1_555 1_555
N1 Zn1 1_555 1_555
C1 S1 1_555 1_555
C2 C1 1_555 1_555
C3 C2 1_555 1_555
C4 C3 1_555 1_555
C5 N1 1_555 1_555
C6 C3 1_555 1_555
H1 C2 1_555 1_555
H2 C4 1_555 1_555
H3 C5 1_555 1_555
H4 C6 1_555 1_555
H5 C6 1_555 1_555
H6 C6 1_555 1_555
S1B O1B 1_555 1_555
O1B Zn1 1_555 1_555
O2B S1B 1_555 1_555
O3B S1B 1_555 1_555
N1B Zn1 1_555 1_555
C1B S1B 1_555 1_555
C2B C1B 1_555 1_555
C3B C2B 1_555 1_555
C4B C3B 1_555 1_555
C5B N1B 1_555 1_555
C6B C3B 1_555 1_555
H1B C2B 1_555 1_555
H2B C4B 1_555 1_555
H3B C5B 1_555 1_555
H4B C6B 1_555 1_555
H5B C6B 1_555 1_555
H6B C6B 1_555 1_555
O3_2 Zn1 1_555 1_555
O3B_2 Zn1 1_555 1_555
Zn1_2 O3 1_555 1_555
Zn1_3 O3B 1_555 1_555
N1 C1 1_555 1_555
C4 C5 1_555 1_555
N1B C1B 1_555 1_555
C4B C5B 1_555 1_555

#END
