
#######################################################################
#
#                 Cambridge Crystallographic Data Centre
#                                CCDC 
#
#######################################################################
#
# If this CIF has been generated from an entry in the Cambridge 
# Structural Database, then it will include bibliographic, chemical, 
# crystal, experimental, refinement or atomic coordinate data resulting 
# from the CCDC's data processing and validation procedures.
#
#######################################################################

data_ARODIV
_symmetry_cell_setting           monoclinic
_symmetry_space_group_name_H-M   'P 21/c'
_symmetry_Int_Tables_number      14
_space_group_name_Hall           '-P 2ybc'
loop_
_symmetry_equiv_pos_site_id
_symmetry_equiv_pos_as_xyz
1 x,y,z
2 -x,1/2+y,1/2-z
3 -x,-y,-z
4 x,1/2-y,1/2+z
_cell_length_a                   6.9214(5)
_cell_length_b                   23.6276(19)
_cell_length_c                   12.1972(8)
_cell_angle_alpha                90
_cell_angle_beta                 101.783(4)
_cell_angle_gamma                90
_cell_volume                     1952.65
loop_
_atom_site_label
_atom_site_type_symbol
_atom_site_fract_x
_atom_site_fract_y
_atom_site_fract_z
C1 C 0.3910(4) 0.54861(15) 0.2817(2)
C2 C 0.3259(4) 0.52699(14) 0.1632(2)
C3 C 0.3215(4) 0.56462(14) 0.0749(3)
H1 H 0.3515 0.6034 0.0900
C4 C 0.2739(4) 0.54595(15) -0.0344(3)
H2 H 0.2739 0.5715 -0.0945
C5 C 0.2259(4) 0.48942(15) -0.0559(3)
C6 C 0.2259(4) 0.45135(15) 0.0314(3)
H3 H 0.1913 0.4128 0.0161
C7 C 0.2770(4) 0.47059(15) 0.1408(3)
H4 H 0.2785 0.4450 0.2010
C8 C 0.1776(5) 0.47023(15) -0.1713(3)
C9 C 0.8549(4) 0.42457(14) 0.4833(3)
H5 H 0.8759 0.4261 0.5660
H6 H 0.8345 0.4638 0.4546
C10 C 1.0475(4) 0.32141(14) 0.4856(3)
H7 H 1.1455 0.2973 0.4590
H8 H 1.0745 0.3193 0.5684
C11 C 0.9770(4) 0.38604(15) 0.2921(2)
H9 H 0.9618 0.4237 0.2559
H10 H 1.0716 0.3640 0.2584
C12 C 0.6382(4) 0.38848(15) 0.3158(2)
H11 H 0.5072 0.3710 0.2886
H12 H 0.6324 0.4276 0.2864
C13 C 0.6982(4) 0.33225(14) 0.4827(3)
H13 H 0.7338 0.3335 0.5655
H14 H 0.5694 0.3127 0.4615
C14 C 0.8019(5) 0.30018(15) 0.3176(3)
H15 H 0.9068 0.2796 0.2898
H16 H 0.6763 0.2797 0.2908
N1 N 0.1390(4) 0.45728(15) -0.2632(2)
N2 N 0.6763(3) 0.39093(12) 0.4395(2)
N3 N 0.8479(4) 0.29911(12) 0.4410(2)
N4 N 0.7844(4) 0.35692(12) 0.2698(2)
O1 O 0.4412(3) 0.51252(10) 0.35833(17)
O3 O 0.3958(3) 0.60109(10) 0.29733(18)
P1 P 1.07782(11) 0.39495(4) 0.44316(7)
Ag1 Ag 0.39710(3) 0.430552(11) 0.495129(19)
O1B O 0.5588(3) 0.48748(10) 0.64167(17)
P1_2 P 0.07782(11) 0.39495(4) 0.44316(7)
Ag1B Ag 0.60290(3) 0.569448(11) 0.504871(19)
Ag1_2 Ag 1.39710(3) 0.430552(11) 0.495129(19)
O2 O 0.9032(4) 0.30999(12) 1.0240(2)
H17 H 0.880(5) 0.2775(18) 1.000(3)
H22 H 0.995(4) 0.3088(17) 1.077(2)
O4 O 0.3421(4) 0.31952(12) 0.7841(2)
H25 H 0.405(5) 0.3435(13) 0.759(3)
H26 H 0.241(6) 0.3325(17) 0.790(3)
O5 O 0.7370(4) 0.70938(13) 0.8183(2)
H20 H 0.721(6) 0.7410(18) 0.794(3)
H21 H 0.666(6) 0.7076(18) 0.858(3)
O6 O 0.9557(4) 0.33689(13) 0.8065(2)
H19 H 0.941(5) 0.3340(17) 0.876(3)
H24 H 0.866(4) 0.3591(14) 0.777(3)
O7 O 0.4843(4) 0.30554(16) 0.0211(3)
H18 H 0.603(3) 0.3121(16) 0.042(3)
H23 H 0.446(6) 0.3097(18) -0.041(3)
loop_
_geom_bond_atom_site_label_1
_geom_bond_atom_site_label_2
_geom_bond_site_symmetry_1
_geom_bond_site_symmetry_2
C1 C2 1_555 1_555
C2 C3 1_555 1_555
C3 H1 1_555 1_555
C4 C3 1_555 1_555
H2 C4 1_555 1_555
C5 C4 1_555 1_555
C6 C5 1_555 1_555
H3 C6 1_555 1_555
C7 C2 1_555 1_555
H4 C7 1_555 1_555
C8 C5 1_555 1_555
C9 H5 1_555 1_555
H6 C9 1_555 1_555
C10 H7 1_555 1_555
H8 C10 1_555 1_555
C11 H9 1_555 1_555
H10 C11 1_555 1_555
C12 H11 1_555 1_555
H12 C12 1_555 1_555
C13 H13 1_555 1_555
H14 C13 1_555 1_555
C14 H15 1_555 1_555
H16 C14 1_555 1_555
N1 C8 1_555 1_555
N2 C9 1_555 1_555
N3 C10 1_555 1_555
N4 C11 1_555 1_555
O1 C1 1_555 1_555
O2 H17 1_555 1_555
O3 C1 1_555 1_555
O4 H25 1_555 1_555
O5 H20 1_555 1_555
O6 H19 1_555 1_555
O7 H18 1_555 1_555
P1 C9 1_555 1_555
Ag1 N2 1_555 1_555
H21 O5 1_555 1_555
H22 O2 1_555 1_555
H23 O7 1_555 1_555
H24 O6 1_555 1_555
H26 O4 1_555 1_555
O1B Ag1 1_555 1_555
P1_2 Ag1 1_555 1_555
Ag1B O1 1_555 1_555
Ag1_2 P1 1_555 1_555
C6 C7 1_555 1_555
C10 P1 1_555 1_555
C11 P1 1_555 1_555
C12 N2 1_555 1_555
C12 N4 1_555 1_555
C13 N2 1_555 1_555
C13 N3 1_555 1_555
C14 N3 1_555 1_555
C14 N4 1_555 1_555
O1 Ag1 1_555 1_555
O1B Ag1B 1_555 1_555

#END
