
#######################################################################
#
#                 Cambridge Crystallographic Data Centre
#                                CCDC 
#
#######################################################################
#
# If this CIF has been generated from an entry in the Cambridge 
# Structural Database, then it will include bibliographic, chemical, 
# crystal, experimental, refinement or atomic coordinate data resulting 
# from the CCDC's data processing and validation procedures.
#
#######################################################################

data_AROTUW
_symmetry_cell_setting           monoclinic
_symmetry_space_group_name_H-M   'C 2/c'
_symmetry_Int_Tables_number      15
_space_group_name_Hall           '-C 2yn'
loop_
_symmetry_equiv_pos_site_id
_symmetry_equiv_pos_as_xyz
1 x,y,z
2 1/2+x,1/2+y,z
3 x,-y,1/2+z
4 1/2+x,1/2-y,1/2+z
5 -x,-y,-z
6 1/2-x,1/2-y,-z
7 -x,y,1/2-z
8 1/2-x,1/2+y,1/2-z
_cell_length_a                   23.721(5)
_cell_length_b                   7.1800(10)
_cell_length_c                   13.961(3)
_cell_angle_alpha                90
_cell_angle_beta                 100.45(3)
_cell_angle_gamma                90
_cell_volume                     2338.35
loop_
_atom_site_label
_atom_site_type_symbol
_atom_site_fract_x
_atom_site_fract_y
_atom_site_fract_z
Ag1 Ag 0.210141(14) 0.21391(4) 0.37163(2)
N1 N 0.20777(12) -0.0820(4) 0.3943(2)
H3 H 0.2425 -0.1294 0.3909
H4 H 0.2014 -0.1022 0.4550
N2 N 0.20890(13) -0.5020(4) 0.3239(2)
H5 H 0.2066 -0.5005 0.2588
H6 H 0.2422 -0.4477 0.3508
C8 C 0.16115(16) -0.3896(5) 0.3484(3)
H11 H 0.1608 -0.4038 0.4166
H12 H 0.1257 -0.4384 0.3132
C9 C 0.16419(18) -0.1853(5) 0.3264(3)
H13 H 0.1726 -0.1718 0.2620
H14 H 0.1274 -0.1296 0.3265
N2_2 N 0.20890(13) 0.4980(4) 0.3239(2)
Ag1_2 Ag 0.210141(14) -0.78609(4) 0.37163(2)
H5_2 H 0.2066 0.4995 0.2588
H6_2 H 0.2422 0.5523 0.3508
F1 F 0.52579(13) 0.3821(6) 0.3696(3)
O1 O 0.32941(11) 0.5878(4) 0.4021(2)
O2 O 0.33092(11) 0.8914(4) 0.3819(2)
C1 C 0.5006(2) 0.5516(8) 0.3759(3)
C2 C 0.5327(2) 0.7094(9) 0.3778(4)
H7 H 0.5728 0.7003 0.3755
C3 C 0.5067(2) 0.8789(9) 0.3818(4)
H8 H 0.5288 0.9914 0.3837
C4 C 0.4497(2) 0.8861(7) 0.3848(3)
H9 H 0.4311 1.0046 0.3864
C5 C 0.41715(18) 0.7253(5) 0.3837(3)
C6 C 0.44348(17) 0.5549(6) 0.3786(3)
H10 H 0.4218 0.4416 0.3769
C7 C 0.35481(18) 0.7356(5) 0.3897(3)
O3 O 0.16714(17) 0.2686(4) 0.5287(2)
H1 H 0.1582 0.3780 0.5437
H2 H 0.1621 0.1771 0.5649
loop_
_geom_bond_atom_site_label_1
_geom_bond_atom_site_label_2
_geom_bond_site_symmetry_1
_geom_bond_site_symmetry_2
Ag1 N1 1_555 1_555
F1 C1 1_555 1_555
O1 C7 1_555 1_555
O2 C7 1_555 1_555
O3 H1 1_555 1_555
H2 O3 1_555 1_555
N1 H3 1_555 1_555
H4 N1 1_555 1_555
N2 H5 1_555 1_555
H6 N2 1_555 1_555
C1 C2 1_555 1_555
C2 H7 1_555 1_555
C3 C2 1_555 1_555
H8 C3 1_555 1_555
C4 C3 1_555 1_555
H9 C4 1_555 1_555
C5 C4 1_555 1_555
C6 C1 1_555 1_555
H10 C6 1_555 1_555
C7 C5 1_555 1_555
C8 N2 1_555 1_555
H11 C8 1_555 1_555
H12 C8 1_555 1_555
C9 N1 1_555 1_555
H13 C9 1_555 1_555
H14 C9 1_555 1_555
N2_2 Ag1 1_555 1_555
Ag1_2 N2 1_555 1_555
H5_2 N2_2 1_555 1_555
H6_2 N2_2 1_555 1_555
C5 C6 1_555 1_555
C8 C9 1_555 1_555

#END
