
#######################################################################
#
#                 Cambridge Crystallographic Data Centre
#                                CCDC 
#
#######################################################################
#
# If this CIF has been generated from an entry in the Cambridge 
# Structural Database, then it will include bibliographic, chemical, 
# crystal, experimental, refinement or atomic coordinate data resulting 
# from the CCDC's data processing and validation procedures.
#
#######################################################################

data_ARUKIH01
_symmetry_cell_setting           monoclinic
_symmetry_space_group_name_H-M   'P 21/c'
_symmetry_Int_Tables_number      14
_space_group_name_Hall           '-P 2ybc'
loop_
_symmetry_equiv_pos_site_id
_symmetry_equiv_pos_as_xyz
1 x,y,z
2 -x,1/2+y,1/2-z
3 -x,-y,-z
4 x,1/2-y,1/2+z
_cell_length_a                   14.127(5)
_cell_length_b                   11.308(4)
_cell_length_c                   13.020(5)
_cell_angle_alpha                90
_cell_angle_beta                 101.972(5)
_cell_angle_gamma                90
_cell_volume                     2034.68
loop_
_atom_site_label
_atom_site_type_symbol
_atom_site_fract_x
_atom_site_fract_y
_atom_site_fract_z
Pr1 Pr 0.731014(11) 0.205946(14) 0.851267(12)
O1 O 0.84613(15) 0.0716(2) 0.78257(16)
O2 O 0.92001(17) -0.1046(2) 0.78459(17)
O3 O 0.72804(15) 0.21876(19) 1.04686(15)
O4 O 0.78167(15) 0.1667(2) 1.21573(15)
O5 O 0.64421(15) 0.0086(2) 0.86476(17)
O6 O 0.51321(19) -0.0984(2) 0.8739(2)
O7 O 0.65528(14) 0.40187(19) 0.87085(17)
O8 O 0.53026(16) 0.5208(2) 0.8754(2)
N1 N 0.83238(16) 0.0524(2) 0.98108(18)
N2 N 0.54815(17) 0.2100(2) 0.86761(19)
C1 C 0.7751(2) 0.1536(3) 1.1190(2)
C2 C 0.82688(19) 0.0491(3) 1.0832(2)
C3 C 0.8623(2) -0.0452(3) 1.1479(2)
H1 H 0.8596 -0.0442 1.2187
C4 C 0.9016(2) -0.1407(3) 1.1055(2)
H2 H 0.9239 -0.2061 1.1468
C5 C 0.9073(2) -0.1375(3) 0.9998(2)
H3 H 0.9331 -0.2010 0.9695
C6 C 0.8740(2) -0.0389(3) 0.9407(2)
C7 C 0.8803(2) -0.0242(3) 0.8262(2)
C8 C 0.5582(2) 0.0007(3) 0.8677(2)
C9 C 0.4973(2) 0.1094(3) 0.8657(2)
O9 O 0.87591(16) 0.3164(2) 0.93777(17)
C10 C 0.3989(3) 0.1084(4) 0.8630(3)
H4 H 0.3652 0.0376 0.8616
C11 C 0.3521(3) 0.2162(4) 0.8625(4)
H5 H 0.2857 0.2185 0.8590
C12 C 0.4044(2) 0.3209(4) 0.8674(3)
H6 H 0.3744 0.3937 0.8698
C13 C 0.5034(2) 0.3137(3) 0.8687(2)
C14 C 0.5674(2) 0.4211(3) 0.8718(2)
O10 O 0.63474(17) 0.1539(3) 0.67411(17)
H7 H 0.902(2) 0.312(3) 1.0086(9)
H8 H 0.648(3) 0.185(3) 0.6135(17)
H9 H 0.5854(19) 0.102(3) 0.654(2)
H10 H 0.919(2) 0.364(3) 0.912(2)
H11 H 0.552(3) -0.165(3) 0.872(4)
Pr1C Pr 0.731014(11) 0.294054(14) 1.351267(12)
O4C O 0.78167(15) 0.3333(2) 0.71573(15)
O11 O 0.95928(17) 0.3079(2) 0.14908(17)
H12 H 0.926(2) 0.335(3) 0.197(2)
H13 H 0.994(3) 0.244(3) 0.181(3)
O12 O 0.0308(2) 0.4422(2) 0.9020(2)
H14 H 0.051(3) 0.421(3) 0.842(2)
H15 H 0.016(3) 0.5216(13) 0.893(3)
O13 O 0.6231(2) 0.7273(3) 0.8847(3)
H16 H 0.6887(10) 0.718(4) 0.910(4)
H17 H 0.600(3) 0.6508(18) 0.885(4)
O14 O 0.7979(3) 0.5977(4) 0.9134(4)
H18 H 0.7773(18) 0.597(2) 0.9795(12)
H19 H 0.789(10) 0.518(3) 0.896(6)
loop_
_geom_bond_atom_site_label_1
_geom_bond_atom_site_label_2
_geom_bond_site_symmetry_1
_geom_bond_site_symmetry_2
Pr1 O1 1_555 1_555
O1 C7 1_555 1_555
O2 C7 1_555 1_555
O3 Pr1 1_555 1_555
O4 C1 1_555 1_555
O5 Pr1 1_555 1_555
O6 C8 1_555 1_555
O7 Pr1 1_555 1_555
O8 C14 1_555 1_555
N1 Pr1 1_555 1_555
N2 Pr1 1_555 1_555
C1 O3 1_555 1_555
C2 N1 1_555 1_555
C3 C2 1_555 1_555
H1 C3 1_555 1_555
C4 C3 1_555 1_555
H2 C4 1_555 1_555
C5 C4 1_555 1_555
H3 C5 1_555 1_555
C6 N1 1_555 1_555
C7 C6 1_555 1_555
C8 O5 1_555 1_555
C9 N2 1_555 1_555
O9 Pr1 1_555 1_555
C10 C9 1_555 1_555
H4 C10 1_555 1_555
C11 C10 1_555 1_555
H5 C11 1_555 1_555
C12 C11 1_555 1_555
H6 C12 1_555 1_555
C13 N2 1_555 1_555
C14 O7 1_555 1_555
O10 Pr1 1_555 1_555
H7 O9 1_555 1_555
H8 O10 1_555 1_555
H9 O10 1_555 1_555
H10 O9 1_555 1_555
H11 O6 1_555 1_555
O11 H12 1_555 1_555
H13 O11 1_555 1_555
O12 H14 1_555 1_555
H15 O12 1_555 1_555
O13 H16 1_555 1_555
H17 O13 1_555 1_555
O14 H18 1_555 1_555
H19 O14 1_555 1_555
Pr1C O4 1_555 1_555
O4C Pr1 1_555 1_555
C1 C2 1_555 1_555
C5 C6 1_555 1_555
C8 C9 1_555 1_555
C12 C13 1_555 1_555
C13 C14 1_555 1_555

#END
