
#######################################################################
#
#                 Cambridge Crystallographic Data Centre
#                                CCDC 
#
#######################################################################
#
# If this CIF has been generated from an entry in the Cambridge 
# Structural Database, then it will include bibliographic, chemical, 
# crystal, experimental, refinement or atomic coordinate data resulting 
# from the CCDC's data processing and validation procedures.
#
#######################################################################

data_ARUKIH02
_symmetry_cell_setting           monoclinic
_symmetry_space_group_name_H-M   'P 21/c'
_symmetry_Int_Tables_number      14
_space_group_name_Hall           '-P 2ybc'
loop_
_symmetry_equiv_pos_site_id
_symmetry_equiv_pos_as_xyz
1 x,y,z
2 -x,1/2+y,1/2-z
3 -x,-y,-z
4 x,1/2-y,1/2+z
_cell_length_a                   14.0952(4)
_cell_length_b                   11.2315(3)
_cell_length_c                   12.9431(5)
_cell_angle_alpha                90
_cell_angle_beta                 101.939(3)
_cell_angle_gamma                90
_cell_volume                     2004.7
loop_
_atom_site_label
_atom_site_type_symbol
_atom_site_fract_x
_atom_site_fract_y
_atom_site_fract_z
Pr1 Pr 0.730538(13) 0.705576(15) 0.351360(13)
C1 C 0.5034(3) 0.8139(3) 0.3700(3)
O1 O 0.72747(18) 0.7185(2) 0.54683(18)
O2 O 0.84565(19) 0.5717(2) 0.28213(19)
O3 O 0.78172(19) 0.6671(2) 0.71600(18)
N1 N 0.5482(2) 0.7101(3) 0.3680(2)
O4 O 0.9206(2) 0.3954(2) 0.2849(2)
O5 O 0.5304(2) 1.0212(2) 0.3763(3)
N2 N 0.83201(19) 0.5515(2) 0.4812(2)
C2 C 0.7745(2) 0.6535(3) 0.6187(3)
O6 O 0.65545(18) 0.9021(2) 0.3707(2)
C3 C 0.8806(3) 0.4758(3) 0.3264(3)
C4 C 0.5677(3) 0.9217(3) 0.3725(3)
C5 C 0.8616(3) 0.4543(3) 0.6494(3)
C6 C 0.8266(2) 0.5481(3) 0.5828(2)
O7 O 0.64374(19) 0.5081(2) 0.3647(2)
C7 C 0.8740(2) 0.4607(3) 0.4414(3)
C8 C 0.9018(3) 0.3581(3) 0.6058(3)
C9 C 0.9082(3) 0.3615(3) 0.5002(3)
C10 C 0.4972(3) 0.6094(4) 0.3664(3)
C11 C 0.5585(3) 0.4997(3) 0.3680(3)
C12 C 0.3981(3) 0.6072(4) 0.3629(4)
C13 C 0.4042(3) 0.8222(4) 0.3677(4)
C14 C 0.3513(4) 0.7172(5) 0.3642(5)
O8 O 0.87644(19) 0.8159(2) 0.4381(2)
O9 O 0.5142(2) 0.3997(3) 0.3740(3)
O10 O 0.6334(2) 0.6541(3) 0.1726(2)
Pr1C Pr 0.730538(13) 0.794424(15) 0.851360(13)
O3C O 0.78172(19) 0.8329(2) 0.21600(18)
O11 O 0.9586(2) 0.8071(2) 0.6496(2)
O12 O 0.9695(2) 0.4430(3) 0.0987(2)
O13 O 0.6247(3) 0.2256(3) 0.3850(4)
O14 O 0.7977(3) 0.0963(3) 0.4167(5)
loop_
_geom_bond_atom_site_label_1
_geom_bond_atom_site_label_2
_geom_bond_site_symmetry_1
_geom_bond_site_symmetry_2
Pr1 O1 1_555 1_555
C1 N1 1_555 1_555
O1 C2 1_555 1_555
O2 Pr1 1_555 1_555
O3 C2 1_555 1_555
N1 Pr1 1_555 1_555
O4 C3 1_555 1_555
O5 C4 1_555 1_555
N2 Pr1 1_555 1_555
C2 C6 1_555 1_555
O6 Pr1 1_555 1_555
C3 O2 1_555 1_555
C4 C1 1_555 1_555
C5 C6 1_555 1_555
C6 N2 1_555 1_555
O7 Pr1 1_555 1_555
C7 N2 1_555 1_555
C8 C5 1_555 1_555
C9 C7 1_555 1_555
C10 N1 1_555 1_555
C11 O7 1_555 1_555
C12 C10 1_555 1_555
C13 C1 1_555 1_555
C14 C12 1_555 1_555
O8 Pr1 1_555 1_555
O9 C11 1_555 1_555
O10 Pr1 1_555 1_555
Pr1C O3 1_555 1_555
O3C Pr1 1_555 1_555
O6 C4 1_555 1_555
C3 C7 1_555 1_555
C8 C9 1_555 1_555
C10 C11 1_555 1_555
C13 C14 1_555 1_555

#END
