
#######################################################################
#
#                 Cambridge Crystallographic Data Centre
#                                CCDC 
#
#######################################################################
#
# If this CIF has been generated from an entry in the Cambridge 
# Structural Database, then it will include bibliographic, chemical, 
# crystal, experimental, refinement or atomic coordinate data resulting 
# from the CCDC's data processing and validation procedures.
#
#######################################################################

data_ASACAZ
_symmetry_cell_setting           monoclinic
_symmetry_space_group_name_H-M   'P 21/c'
_symmetry_Int_Tables_number      14
_space_group_name_Hall           '-P 2ybc'
loop_
_symmetry_equiv_pos_site_id
_symmetry_equiv_pos_as_xyz
1 x,y,z
2 -x,1/2+y,1/2-z
3 -x,-y,-z
4 x,1/2-y,1/2+z
_cell_length_a                   12.030(2)
_cell_length_b                   6.5700(13)
_cell_length_c                   18.470(4)
_cell_angle_alpha                90
_cell_angle_beta                 105.20(3)
_cell_angle_gamma                90
_cell_volume                     1408.75
loop_
_atom_site_label
_atom_site_type_symbol
_atom_site_fract_x
_atom_site_fract_y
_atom_site_fract_z
Mn1 Mn 0.00018(5) 0.75226(9) 0.61988(3)
Mn2 Mn 0.32173(4) 1.06745(8) 0.70200(3)
C1 C 0.2551(3) 0.7879(5) 0.48426(17)
C2 C 0.1885(3) 0.7558(5) 0.41032(17)
C3 C 0.2440(3) 0.7400(5) 0.35197(18)
C4 C 0.3624(3) 0.7681(5) 0.36784(18)
C5 C 0.4256(3) 0.7923(6) 0.4418(2)
H1 H 0.5053 0.8036 0.4527
C6 C 0.3726(3) 0.8001(6) 0.4996(2)
H2 H 0.4167 0.8137 0.5489
C7 C 0.2020(3) 0.8131(6) 0.54973(18)
C8 C 0.0580(3) 0.7552(6) 0.39387(17)
C9 C 0.1732(3) 0.6932(5) 0.27284(18)
C10 C 0.4266(3) 0.7901(5) 0.3072(2)
O1 O 0.1236(2) 0.6940(4) 0.55519(14)
O2 O 0.2409(2) 0.9575(4) 0.59352(13)
O3 O 0.00528(19) 0.5929(3) 0.37123(13)
O4 O 0.01050(19) 0.9195(4) 0.40343(12)
O5 O 0.1104(2) 0.8305(4) 0.23662(13)
O6 O 0.1791(2) 0.5159(4) 0.24776(13)
O7 O 0.3777(2) 0.7480(4) 0.23970(13)
O8 O 0.5260(2) 0.8594(5) 0.32982(15)
O9 O -0.1300(3) 0.8114(4) 0.67885(15)
H3 H -0.120(4) 0.917(4) 0.7087(18)
H4 H -0.134(4) 0.700(4) 0.7063(19)
O10 O -0.1310(2) 0.6967(4) 0.51206(14)
H5 H -0.176(3) 0.781(4) 0.4781(18)
H6 H -0.134(3) 0.577(3) 0.491(2)
O11 O 0.4172(3) 1.1842(5) 0.81107(17)
H7 H 0.479(3) 1.256(7) 0.810(2)
H8 H 0.389(3) 1.225(8) 0.847(2)
O12 O 0.2379(2) 1.3574(4) 0.66995(17)
H9 H 0.1656(15) 1.386(6) 0.656(2)
H10 H 0.286(2) 1.456(5) 0.690(2)
Mn1B Mn -0.00018(5) 0.24774(9) 0.38012(3)
Mn1B_2 Mn -0.00018(5) 1.24774(9) 0.38012(3)
Mn1C Mn 0.00018(5) 0.74774(9) 0.11988(3)
Mn2C Mn 0.32173(4) 0.43255(8) 0.20200(3)
Mn2B Mn 0.67827(4) 0.93255(8) 0.29800(3)
O3B O -0.00528(19) 0.4071(3) 0.62877(13)
O4B O -0.01050(19) 1.0805(4) 0.59657(12)
O5C O 0.1104(2) 0.6695(4) 0.73662(13)
O6C O 0.1791(2) 0.9841(4) 0.74776(13)
O7C O 0.3777(2) 0.7520(4) 0.73970(13)
O8B O 0.4740(2) 1.1406(5) 0.67018(15)
O13 O 0.6578(3) 0.7769(8) 0.0675(2)
H11 H 0.741(2) 0.733(10) 0.0919(19)
H12 H 0.685(4) 0.847(9) 0.027(2)
loop_
_geom_bond_atom_site_label_1
_geom_bond_atom_site_label_2
_geom_bond_site_symmetry_1
_geom_bond_site_symmetry_2
Mn1 O1 1_555 1_555
Mn2 O2 1_555 1_555
C1 C2 1_555 1_555
C2 C3 1_555 1_555
C3 C4 1_555 1_555
C4 C5 1_555 1_555
C5 H1 1_555 1_555
C6 C1 1_555 1_555
H2 C6 1_555 1_555
C7 C1 1_555 1_555
C8 C2 1_555 1_555
C9 C3 1_555 1_555
C10 C4 1_555 1_555
O1 C7 1_555 1_555
O2 C7 1_555 1_555
O3 C8 1_555 1_555
O4 C8 1_555 1_555
O5 C9 1_555 1_555
O6 C9 1_555 1_555
O7 C10 1_555 1_555
O8 C10 1_555 1_555
O9 Mn1 1_555 1_555
H3 O9 1_555 1_555
H4 O9 1_555 1_555
O10 Mn1 1_555 1_555
H5 O10 1_555 1_555
H6 O10 1_555 1_555
O11 Mn2 1_555 1_555
H7 O11 1_555 1_555
H8 O11 1_555 1_555
O12 Mn2 1_555 1_555
H9 O12 1_555 1_555
H10 O12 1_555 1_555
O13 H11 1_555 1_555
H12 O13 1_555 1_555
Mn1B O3 1_555 1_555
Mn1B_2 O4 1_555 1_555
Mn1C O5 1_555 1_555
Mn2C O6 1_555 1_555
Mn2B O8 1_555 1_555
O3B Mn1 1_555 1_555
O4B Mn1 1_555 1_555
O5C Mn1 1_555 1_555
O6C Mn2 1_555 1_555
O7C Mn2 1_555 1_555
O8B Mn2 1_555 1_555
C5 C6 1_555 1_555
O7 Mn2C 1_555 1_555

#END
