
#######################################################################
#
#                 Cambridge Crystallographic Data Centre
#                                CCDC 
#
#######################################################################
#
# If this CIF has been generated from an entry in the Cambridge 
# Structural Database, then it will include bibliographic, chemical, 
# crystal, experimental, refinement or atomic coordinate data resulting 
# from the CCDC's data processing and validation procedures.
#
#######################################################################

data_ASAFAB
_symmetry_cell_setting           monoclinic
_symmetry_space_group_name_H-M   'P 21/m'
_symmetry_Int_Tables_number      11
_space_group_name_Hall           '-P 2yb'
loop_
_symmetry_equiv_pos_site_id
_symmetry_equiv_pos_as_xyz
1 x,y,z
2 x,1/2-y,z
3 -x,-y,-z
4 -x,1/2+y,-z
_cell_length_a                   7.5755(4)
_cell_length_b                   28.3120(16)
_cell_length_c                   9.6449(6)
_cell_angle_alpha                90
_cell_angle_beta                 99.9920(10)
_cell_angle_gamma                90
_cell_volume                     2037.24
loop_
_atom_site_label
_atom_site_type_symbol
_atom_site_fract_x
_atom_site_fract_y
_atom_site_fract_z
C7 C 0.5023(5) 0.58196(12) 0.3104(4)
H5 H 0.5201 0.5553 0.2545
C8 C 0.5391(5) 0.62620(12) 0.2615(4)
H6 H 0.5800 0.6300 0.1744
C9 C 0.5136(4) 0.66505(11) 0.3451(3)
C10 C 0.4601(4) 0.65761(12) 0.4731(3)
H7 H 0.4469 0.6834 0.5335
C11 C 0.4263(5) 0.61205(12) 0.5114(4)
H8 H 0.3889 0.6072 0.5994
C12 C 0.5465(4) 0.71254(11) 0.2963(3)
N3 N 0.4433(4) 0.57430(10) 0.4312(3)
N4 N 0.6218(4) 0.72537(9) 0.1919(3)
O2 O 0.4935(4) 0.7500 0.3678(3)
N4A N 0.6218(4) 0.77463(9) 0.1919(3)
C12A C 0.5465(4) 0.78746(11) 0.2963(3)
C9A C 0.5136(4) 0.83495(11) 0.3451(3)
C8A C 0.5391(5) 0.87380(12) 0.2615(4)
C7A C 0.5023(5) 0.91804(12) 0.3104(4)
H5A H 0.5201 0.9447 0.2545
N3A N 0.4433(4) 0.92570(10) 0.4312(3)
C11A C 0.4263(5) 0.88795(12) 0.5114(4)
C10A C 0.4601(4) 0.84239(12) 0.4731(3)
H7A H 0.4469 0.8166 0.5335
H8A H 0.3889 0.8928 0.5994
H6A H 0.5800 0.8700 0.1744
Cl1 Cl 0.29317(18) 0.41576(5) 0.11407(11)
O4 O 0.2475(6) 0.43369(13) -0.0200(3)
O5 O 0.3748(6) 0.45107(16) 0.2077(3)
O6 O 0.4218(6) 0.37881(14) 0.1094(4)
O7 O 0.1422(6) 0.3972(2) 0.1618(5)
N6 N 0.7767(7) 0.7500 0.6335(5)
C15 C 0.7706(8) 0.7500 0.7446(6)
C16 C 0.7636(14) 0.7500 0.8947(8)
H14 H 0.7452 0.7177 0.9256
H14A H 0.7452 0.7823 0.9256
Zn1 Zn 0.0000 0.5000 0.5000
C1 C -0.0181(4) 0.41829(11) 0.7015(3)
H1 H -0.0325 0.4439 0.7621
C2 C -0.0339(4) 0.37301(11) 0.7501(3)
H2 H -0.0591 0.3676 0.8419
C3 C -0.0123(4) 0.33542(10) 0.6621(3)
C4 C 0.0311(4) 0.34465(11) 0.5309(3)
H3 H 0.0520 0.3196 0.4702
C5 C 0.0432(4) 0.39136(11) 0.4905(3)
H4 H 0.0716 0.3978 0.4002
C6 C -0.0403(4) 0.28723(11) 0.7098(3)
N1 N 0.0167(4) 0.42798(8) 0.5729(3)
N2 N -0.1055(4) 0.27474(8) 0.8183(3)
O1 O 0.0026(4) 0.2500 0.6334(3)
N5 N 0.1351(4) 0.52436(10) 0.7055(3)
C13 C 0.1863(5) 0.53569(13) 0.8163(4)
C14 C 0.2483(7) 0.55095(18) 0.9607(4)
H9 H 0.3396 0.5755 0.9621
H10 H 0.2999 0.5240 1.0173
H11 H 0.1470 0.5636 0.9999
O3 O 0.2461(4) 0.49380(8) 0.4368(3)
H12 H 0.314(4) 0.5164(10) 0.434(4)
H13 H 0.264(5) 0.4784(13) 0.368(3)
N2A N -0.1055(4) 0.22526(8) 0.8183(3)
C6A C -0.0403(4) 0.21277(11) 0.7098(3)
C3A C -0.0123(4) 0.16458(10) 0.6621(3)
C2A C -0.0339(4) 0.12699(11) 0.7501(3)
C1A C -0.0181(4) 0.08171(11) 0.7015(3)
H1A H -0.0325 0.0561 0.7621
N1A N 0.0167(4) 0.07202(8) 0.5729(3)
C5A C 0.0432(4) 0.10864(11) 0.4905(3)
C4A C 0.0311(4) 0.15535(11) 0.5309(3)
H3A H 0.0520 0.1804 0.4702
H4A H 0.0716 0.1022 0.4002
H2A H -0.0591 0.1324 0.8419
N5B N -0.1351(4) 0.47564(10) 0.2945(3)
C13B C -0.1863(5) 0.46431(13) 0.1837(4)
C14B C -0.2483(7) 0.44905(18) 0.0393(4)
H9B H -0.3396 0.4245 0.0379
H10B H -0.2999 0.4760 -0.0173
H11B H -0.1470 0.4364 0.0001
O3B O -0.2461(4) 0.50620(8) 0.5632(3)
H12B H -0.314(4) 0.4836(10) 0.566(4)
H13B H -0.264(5) 0.5216(13) 0.632(3)
N1B N -0.0167(4) 0.57202(8) 0.4271(3)
Zn1A Zn 0.0000 0.0000 0.5000
H15? H 0.6643 0.7700 0.9123
H16? H 0.8767 0.7623 0.9471
N7? N 0.724(2) 0.2500 0.3347(16)
C17? C 0.736(3) 0.2715(9) 0.236(2)
C18? C 0.760(5) 0.3055(11) 0.132(3)
H17? H 0.6821 0.3327 0.1388
H18? H 0.7296 0.2913 0.0385
H19? H 0.8855 0.3159 0.1479
C19? C 0.714(2) 0.2855(5) 0.1201(17)
H20? H 0.7420 0.2670 0.0432
H21? H 0.5953 0.2978 0.0931
Cl2? Cl 0.8622(8) 0.33159(17) 0.1501(5)
Cl3? Cl 0.7188(7) 0.2500 0.2611(6)
loop_
_geom_bond_atom_site_label_1
_geom_bond_atom_site_label_2
_geom_bond_site_symmetry_1
_geom_bond_site_symmetry_2
Zn1 N1 1_555 1_555
C1 H1 1_555 1_555
C2 C1 1_555 1_555
H2 C2 1_555 1_555
C3 C2 1_555 1_555
C4 C3 1_555 1_555
H3 C4 1_555 1_555
C5 C4 1_555 1_555
H4 C5 1_555 1_555
C6 C3 1_555 1_555
N1 C1 1_555 1_555
N2 C6 1_555 1_555
O1 C6 1_555 1_555
C7 H5 1_555 1_555
C8 C7 1_555 1_555
H6 C8 1_555 1_555
C9 C8 1_555 1_555
C10 C9 1_555 1_555
H7 C10 1_555 1_555
C11 C10 1_555 1_555
H8 C11 1_555 1_555
C12 C9 1_555 1_555
N3 C7 1_555 1_555
N4 C12 1_555 1_555
O2 C12 1_555 1_555
N5 Zn1 1_555 1_555
C13 N5 1_555 1_555
C14 C13 1_555 1_555
H9 C14 1_555 1_555
H10 C14 1_555 1_555
H11 C14 1_555 1_555
O3 Zn1 1_555 1_555
H12 O3 1_555 1_555
H13 O3 1_555 1_555
Cl1 O4 1_555 1_555
O5 Cl1 1_555 1_555
O6 Cl1 1_555 1_555
O7 Cl1 1_555 1_555
N6 C15 1_555 1_555
C15 C16 1_555 1_555
C16 H14 1_555 1_555
N2A N2 1_555 1_555
C6A O1 1_555 1_555
C3A C6A 1_555 1_555
C2A C3A 1_555 1_555
C1A C2A 1_555 1_555
H1A C1A 1_555 1_555
N1A C1A 1_555 1_555
C5A N1A 1_555 1_555
C4A C3A 1_555 1_555
H3A C4A 1_555 1_555
H4A C5A 1_555 1_555
H2A C2A 1_555 1_555
N4A N4 1_555 1_555
C12A O2 1_555 1_555
C9A C12A 1_555 1_555
C8A C9A 1_555 1_555
C7A C8A 1_555 1_555
H5A C7A 1_555 1_555
N3A C7A 1_555 1_555
C11A N3A 1_555 1_555
C10A C9A 1_555 1_555
H7A C10A 1_555 1_555
H8A C11A 1_555 1_555
H6A C8A 1_555 1_555
H14A C16 1_555 1_555
N5B Zn1 1_555 1_555
C13B N5B 1_555 1_555
C14B C13B 1_555 1_555
H9B C14B 1_555 1_555
H10B C14B 1_555 1_555
H11B C14B 1_555 1_555
O3B Zn1 1_555 1_555
H12B O3B 1_555 1_555
H13B O3B 1_555 1_555
N1B Zn1 1_555 1_555
Zn1A N1A 1_555 1_555
C5 N1 1_555 1_555
C11 N3 1_555 1_555
N2A C6A 1_555 1_555
C5A C4A 1_555 1_555
N4A C12A 1_555 1_555
C11A C10A 1_555 1_555

#END
