
#######################################################################
#
#                 Cambridge Crystallographic Data Centre
#                                CCDC 
#
#######################################################################
#
# If this CIF has been generated from an entry in the Cambridge 
# Structural Database, then it will include bibliographic, chemical, 
# crystal, experimental, refinement or atomic coordinate data resulting 
# from the CCDC's data processing and validation procedures.
#
#######################################################################

data_ASAJIN
_symmetry_cell_setting           monoclinic
_symmetry_space_group_name_H-M   'P 21/n'
_symmetry_Int_Tables_number      14
_space_group_name_Hall           '-P 2yn'
loop_
_symmetry_equiv_pos_site_id
_symmetry_equiv_pos_as_xyz
1 x,y,z
2 1/2+x,1/2-y,1/2+z
3 -x,-y,-z
4 1/2-x,1/2+y,1/2-z
_cell_length_a                   9.4389(11)
_cell_length_b                   18.206(2)
_cell_length_c                   19.514(2)
_cell_angle_alpha                90
_cell_angle_beta                 94.385(2)
_cell_angle_gamma                90
_cell_volume                     3343.56
loop_
_atom_site_label
_atom_site_type_symbol
_atom_site_fract_x
_atom_site_fract_y
_atom_site_fract_z
Bi1 Bi 0.582209(18) 0.793687(8) 0.450230(8)
S1 S 0.53397(12) 0.67594(5) 0.52373(5)
S2 S 0.47020(13) 0.88305(6) 0.53374(5)
S3 S 0.83890(14) 0.80762(7) 0.50653(11)
C1 C 0.8923(5) 0.7213(2) 0.5385(3)
C2 C 0.9728(5) 0.6742(2) 0.5020(2)
C3 C 1.0237(5) 0.6081(2) 0.5273(2)
C4 C 0.9932(5) 0.5871(2) 0.5918(2)
C5 C 0.9143(5) 0.6315(3) 0.6304(2)
C6 C 0.8645(5) 0.6974(3) 0.6037(3)
C7 C 0.4530(4) 0.8291(2) 0.60771(19)
C8 C 0.5498(4) 0.8335(2) 0.6647(2)
C9 C 0.5367(5) 0.7917(2) 0.7220(2)
C10 C 0.4259(5) 0.7429(2) 0.7246(2)
C11 C 0.3259(5) 0.7387(2) 0.6699(2)
C12 C 0.3396(4) 0.7809(2) 0.6129(2)
C13 C 0.5005(4) 0.6103(2) 0.4580(2)
C14 C 0.5955(5) 0.5532(2) 0.4498(2)
C15 C 0.5688(5) 0.4993(2) 0.4011(2)
C16 C 0.4486(6) 0.5005(2) 0.3589(2)
C17 C 0.3520(6) 0.5565(3) 0.3645(3)
C18 C 0.3813(5) 0.6099(2) 0.4137(2)
C19 C 0.7567(5) 0.9735(2) 0.4236(2)
H1 H 0.7688 0.9764 0.4712
C20 C 0.8056(5) 1.0311(2) 0.3855(2)
H2 H 0.8498 1.0714 0.4072
C21 C 0.7874(4) 1.0275(2) 0.3141(2)
C22 C 0.7250(5) 0.9648(2) 0.2850(2)
H3 H 0.7134 0.9597 0.2374
C23 C 0.6808(5) 0.9104(2) 0.3267(2)
H4 H 0.6399 0.8685 0.3063
C24 C 0.7771(5) 1.1649(2) 0.1714(2)
H5 H 0.7175 1.1761 0.1327
C25 C 0.7383(5) 1.1072(2) 0.2114(2)
H6 H 0.6561 1.0804 0.1998
C26 C 0.8261(4) 1.0901(2) 0.26998(19)
C27 C 0.9465(5) 1.1327(2) 0.2842(2)
H7 H 1.0067 1.1236 0.3233
C28 C 0.9761(5) 1.1888(2) 0.2400(2)
H8 H 1.0583 1.2162 0.2498
C29 C 0.2260(6) 0.8439(3) 0.3699(4)
H9 H 0.2295 0.8011 0.3996
H10 H 0.1900 0.8289 0.3241
C30 C 0.1325(6) 0.9014(3) 0.3968(3)
H11 H 0.0338 0.8938 0.3808
H12 H 0.1410 0.9027 0.4467
C31 C 0.1904(5) 0.9693(3) 0.3672(2)
H13 H 0.1790 1.0110 0.3971
H14 H 0.1429 0.9797 0.3224
C32 C 0.3447(5) 0.9528(2) 0.3613(2)
H15 H 0.3735 0.9691 0.3172
H16 H 0.4024 0.9780 0.3973
N1 N 0.6936(4) 0.91438(17) 0.39565(17)
N2 N 0.8925(4) 1.20601(19) 0.18350(18)
F1 F 1.0045(3) 0.69385(16) 0.43844(15)
F2 F 1.1007(3) 0.56531(14) 0.48930(14)
F3 F 1.0423(3) 0.52281(14) 0.61752(14)
F4 F 0.8889(4) 0.6112(2) 0.69432(15)
F5 F 0.7882(3) 0.73981(17) 0.64338(17)
F6 F 0.6601(3) 0.87970(12) 0.66492(12)
F7 F 0.6327(3) 0.79727(14) 0.77632(12)
F8 F 0.4135(3) 0.70134(14) 0.77998(13)
F9 F 0.2163(3) 0.69171(13) 0.67248(14)
F10 F 0.2386(3) 0.77588(13) 0.56069(12)
F11 F 0.7156(3) 0.54951(13) 0.49061(15)
F12 F 0.6643(3) 0.44511(13) 0.39432(15)
F13 F 0.4238(4) 0.44811(15) 0.31110(14)
F14 F 0.2343(4) 0.55862(16) 0.32231(19)
F15 F 0.2866(3) 0.66531(14) 0.41645(17)
O1 O 0.3627(3) 0.87496(16) 0.36812(14)
N2C N 0.6075(4) 0.70601(19) 0.31650(18)
Bi1C Bi 0.917791(18) 1.293687(8) 0.049770(8)
loop_
_geom_bond_atom_site_label_1
_geom_bond_atom_site_label_2
_geom_bond_site_symmetry_1
_geom_bond_site_symmetry_2
Bi1 S1 1_555 1_555
S1 C13 1_555 1_555
S2 Bi1 1_555 1_555
S3 Bi1 1_555 1_555
C1 S3 1_555 1_555
C2 C1 1_555 1_555
C3 C2 1_555 1_555
C4 C3 1_555 1_555
C5 C4 1_555 1_555
C6 C1 1_555 1_555
C7 S2 1_555 1_555
C8 C7 1_555 1_555
C9 C8 1_555 1_555
C10 C9 1_555 1_555
C11 C10 1_555 1_555
C12 C7 1_555 1_555
C13 C14 1_555 1_555
C14 C15 1_555 1_555
C15 C16 1_555 1_555
C16 C17 1_555 1_555
C17 C18 1_555 1_555
C18 C13 1_555 1_555
C19 H1 1_555 1_555
C20 C19 1_555 1_555
H2 C20 1_555 1_555
C21 C20 1_555 1_555
C22 C21 1_555 1_555
H3 C22 1_555 1_555
C23 C22 1_555 1_555
H4 C23 1_555 1_555
C24 H5 1_555 1_555
C25 C24 1_555 1_555
H6 C25 1_555 1_555
C26 C21 1_555 1_555
C27 C26 1_555 1_555
H7 C27 1_555 1_555
C28 C27 1_555 1_555
H8 C28 1_555 1_555
C29 H9 1_555 1_555
H10 C29 1_555 1_555
C30 C29 1_555 1_555
H11 C30 1_555 1_555
H12 C30 1_555 1_555
C31 C30 1_555 1_555
H13 C31 1_555 1_555
H14 C31 1_555 1_555
C32 C31 1_555 1_555
H15 C32 1_555 1_555
H16 C32 1_555 1_555
N1 Bi1 1_555 1_555
N2 C24 1_555 1_555
F1 C2 1_555 1_555
F2 C3 1_555 1_555
F3 C4 1_555 1_555
F4 C5 1_555 1_555
F5 C6 1_555 1_555
F6 C8 1_555 1_555
F7 C9 1_555 1_555
F8 C10 1_555 1_555
F9 C11 1_555 1_555
F10 C12 1_555 1_555
F11 C14 1_555 1_555
F12 C15 1_555 1_555
F13 C16 1_555 1_555
F14 C17 1_555 1_555
F15 C18 1_555 1_555
O1 Bi1 1_555 1_555
N2C Bi1 1_555 1_555
Bi1C N2 1_555 1_555
C5 C6 1_555 1_555
C11 C12 1_555 1_555
C19 N1 1_555 1_555
C23 N1 1_555 1_555
C25 C26 1_555 1_555
C28 N2 1_555 1_555
C29 O1 1_555 1_555
C32 O1 1_555 1_555

#END
