
#######################################################################
#
#                 Cambridge Crystallographic Data Centre
#                                CCDC 
#
#######################################################################
#
# If this CIF has been generated from an entry in the Cambridge 
# Structural Database, then it will include bibliographic, chemical, 
# crystal, experimental, refinement or atomic coordinate data resulting 
# from the CCDC's data processing and validation procedures.
#
#######################################################################

data_ASAJUZ
_symmetry_cell_setting           triclinic
_symmetry_space_group_name_H-M   'P -1'
_symmetry_Int_Tables_number      2
_space_group_name_Hall           '-P 1'
loop_
_symmetry_equiv_pos_site_id
_symmetry_equiv_pos_as_xyz
1 x,y,z
2 -x,-y,-z
_cell_length_a                   9.0368(12)
_cell_length_b                   13.0086(16)
_cell_length_c                   18.530(2)
_cell_angle_alpha                76.225(11)
_cell_angle_beta                 82.026(13)
_cell_angle_gamma                72.273(13)
_cell_volume                     2010.04
loop_
_atom_site_label
_atom_site_type_symbol
_atom_site_fract_x
_atom_site_fract_y
_atom_site_fract_z
Bi1 Bi -0.723629(19) 0.048169(14) 1.244195(9)
S1 S -0.8398(2) 0.20184(16) 1.12798(11)
S2 S -1.00715(14) 0.06811(10) 1.31351(7)
S3 S -0.78229(15) -0.07084(11) 1.16523(6)
C1 C -0.6924(6) 0.2687(4) 1.1033(3)
C2 C -0.5835(7) 0.2483(4) 1.0435(3)
C3 C -0.4695(8) 0.2978(5) 1.0223(3)
C4 C -0.4541(9) 0.3714(5) 1.0600(4)
C5 C -0.5586(10) 0.3961(5) 1.1187(4)
C6 C -0.6755(8) 0.3457(5) 1.1392(3)
C7 C -0.9949(6) 0.1654(4) 1.3631(3)
C8 C -1.0682(7) 0.2779(4) 1.3414(3)
C9 C -1.0595(8) 0.3531(5) 1.3807(4)
C10 C -0.9823(8) 0.3201(6) 1.4435(4)
C11 C -0.9097(8) 0.2105(6) 1.4678(3)
C12 C -0.9179(7) 0.1345(5) 1.4277(3)
C13 C -0.7807(5) -0.1989(4) 1.2247(3)
C14 C -0.9149(6) -0.2201(4) 1.2632(3)
C15 C -0.9150(6) -0.3208(4) 1.3078(3)
C16 C -0.7804(7) -0.4041(4) 1.3145(3)
C17 C -0.6430(6) -0.3887(4) 1.2779(3)
C18 C -0.6452(6) -0.2868(5) 1.2327(3)
C19 C -0.4005(6) -0.0380(5) 1.1123(3)
H1 H -0.4643 -0.0780 1.1047
C20 C -0.2690(6) -0.0355(5) 1.0648(3)
H2 H -0.2458 -0.0736 1.0262
C21 C -0.1715(5) 0.0238(4) 1.0744(2)
C22 C -0.2127(5) 0.0787(4) 1.1335(2)
H3 H -0.1514 0.1196 1.1423
C23 C -0.3455(6) 0.0715(4) 1.1785(2)
H4 H -0.3708 0.1083 1.2178
C24 C -0.0303(5) 0.0309(4) 1.0254(2)
H5 H 0.0197 0.0815 1.0301
C25 C -0.4640(6) -0.2032(4) 1.3459(3)
H6 H -0.3928 -0.1727 1.3135
C26 C -0.4090(6) -0.3071(4) 1.3895(3)
H7 H -0.3032 -0.3439 1.3874
C27 C -0.5141(5) -0.3562(4) 1.4368(2)
C28 C -0.6688(6) -0.2941(4) 1.4389(2)
H8 H -0.7425 -0.3226 1.4707
C29 C -0.7133(6) -0.1916(4) 1.3948(2)
H9 H -0.8180 -0.1522 1.3974
C30 C -0.4564(5) -0.4683(4) 1.4816(3)
H10 H -0.3492 -0.4970 1.4843
N1 N -0.4400(5) 0.0152(3) 1.1693(2)
N2 N -0.6135(5) -0.1441(3) 1.3475(2)
F1 F -0.5914(5) 0.1766(3) 1.0043(2)
F2 F -0.3666(6) 0.2738(4) 0.9640(2)
F3 F -0.3391(6) 0.4205(4) 1.0404(3)
F4 F -0.5473(8) 0.4711(4) 1.1551(3)
F5 F -0.7762(6) 0.3727(4) 1.1970(2)
F6 F -1.1482(5) 0.3140(3) 1.2809(2)
F7 F -1.1354(6) 0.4605(3) 1.3580(3)
F8 F -0.9768(6) 0.3934(4) 1.4825(2)
F9 F -0.8325(6) 0.1759(4) 1.5299(2)
F10 F -0.8453(4) 0.0284(3) 1.4537(2)
F11 F -1.0510(3) -0.1401(3) 1.25759(18)
F12 F -1.0477(4) -0.3363(3) 1.3452(2)
F13 F -0.7790(5) -0.5026(3) 1.3593(2)
F14 F -0.5100(4) -0.4696(3) 1.2862(2)
F15 F -0.5103(3) -0.2732(3) 1.19787(17)
C24A C 0.0303(5) -0.0309(4) 0.9746(2)
C21A C 0.1715(5) -0.0238(4) 0.9256(2)
C20A C 0.2690(6) 0.0355(5) 0.9352(3)
C19A C 0.4005(6) 0.0380(5) 0.8877(3)
H1A H 0.4643 0.0780 0.8953
N1A N 0.4400(5) -0.0152(3) 0.8307(2)
C23A C 0.3455(6) -0.0715(4) 0.8215(2)
C22A C 0.2127(5) -0.0787(4) 0.8665(2)
H3A H 0.1514 -0.1196 0.8577
H4A H 0.3708 -0.1083 0.7822
H2A H 0.2458 0.0736 0.9738
H5A H -0.0197 -0.0815 0.9699
C30A C -0.5436(5) -0.5317(4) 1.5184(3)
C27A C -0.4859(5) -0.6438(4) 1.5632(2)
C26A C -0.5910(6) -0.6929(4) 1.6105(3)
C25A C -0.5360(6) -0.7968(4) 1.6541(3)
H6A H -0.6072 -0.8273 1.6865
N2A N -0.3865(5) -0.8559(3) 1.6525(2)
C29A C -0.2867(6) -0.8084(4) 1.6052(2)
C28A C -0.3312(6) -0.7059(4) 1.5611(2)
H8A H -0.2575 -0.6774 1.5293
H9A H -0.1820 -0.8478 1.6026
H7A H -0.6968 -0.6561 1.6126
H10A H -0.6508 -0.5030 1.5157
Bi1A Bi 0.723629(19) -0.048169(14) 0.755805(9)
S1A S 0.8398(2) -0.20184(16) 0.87202(11)
C1A C 0.6924(6) -0.2687(4) 0.8967(3)
C2A C 0.5835(7) -0.2483(4) 0.9565(3)
C3A C 0.4695(8) -0.2978(5) 0.9777(3)
C4A C 0.4541(9) -0.3714(5) 0.9400(4)
C5A C 0.5586(10) -0.3961(5) 0.8813(4)
C6A C 0.6755(8) -0.3457(5) 0.8608(3)
F1A F 0.5914(5) -0.1766(3) 0.9957(2)
F2A F 0.3666(6) -0.2738(4) 1.0360(2)
F3A F 0.3391(6) -0.4205(4) 0.9596(3)
F4A F 0.5473(8) -0.4711(4) 0.8449(3)
F5A F 0.7762(6) -0.3727(4) 0.8030(2)
S2A S 1.00715(14) -0.06811(10) 0.68649(7)
C7A C 0.9949(6) -0.1654(4) 0.6369(3)
C8A C 1.0682(7) -0.2779(4) 0.6586(3)
C9A C 1.0595(8) -0.3531(5) 0.6193(4)
C10A C 0.9823(8) -0.3201(6) 0.5565(4)
C11A C 0.9097(8) -0.2105(6) 0.5322(3)
C12A C 0.9179(7) -0.1345(5) 0.5723(3)
F6A F 1.1482(5) -0.3140(3) 0.7191(2)
F7A F 1.1354(6) -0.4605(3) 0.6420(3)
F8A F 0.9768(6) -0.3934(4) 0.5175(2)
F9A F 0.8325(6) -0.1759(4) 0.4701(2)
F10A F 0.8453(4) -0.0284(3) 0.5463(2)
S3A S 0.78229(15) 0.07084(11) 0.83477(6)
C13A C 0.7807(5) 0.1989(4) 0.7753(3)
C14A C 0.9149(6) 0.2201(4) 0.7368(3)
C15A C 0.9150(6) 0.3208(4) 0.6922(3)
C16A C 0.7804(7) 0.4041(4) 0.6855(3)
C17A C 0.6430(6) 0.3887(4) 0.7221(3)
C18A C 0.6452(6) 0.2868(5) 0.7673(3)
F11A F 1.0510(3) 0.1401(3) 0.74241(18)
F12A F 1.0477(4) 0.3363(3) 0.6548(2)
F13A F 0.7790(5) 0.5026(3) 0.6407(2)
F14A F 0.5100(4) 0.4696(3) 0.7138(2)
F15A F 0.5103(3) 0.2732(3) 0.80213(17)
Bi1A_2 Bi -0.276371(19) -1.048169(14) 1.755805(9)
N2A_2 N 0.6135(5) 0.1441(3) 0.6525(2)
C31 C -0.4582(8) 0.0750(5) 1.3889(3)
H11 H -0.3652 0.0340 1.3640
H12 H -0.5075 0.0228 1.4217
C32 C -0.4165(8) 0.1435(5) 1.4330(4)
H13 H -0.3048 0.1324 1.4287
H14 H -0.4503 0.1241 1.4852
C33 C -0.4996(9) 0.2610(5) 1.4003(4)
H15 H -0.5884 0.2899 1.4330
H16 H -0.4302 0.3075 1.3917
C34 C -0.5502(10) 0.2546(5) 1.3289(4)
H17 H -0.6503 0.3082 1.3186
H18 H -0.4750 0.2705 1.2883
O1 O -0.5616(5) 0.1468(3) 1.3359(2)
C35 C -1.1354(13) -0.4025(13) 1.1798(7)
H19 H -1.2389 -0.3709 1.2012
H20 H -1.0894 -0.4707 1.2139
C36 C -1.1514(12) -0.4291(9) 1.1111(9)
H21 H -1.2519 -0.3886 1.0917
H22 H -1.1359 -0.5076 1.1163
C37 C -1.0138(13) -0.3893(9) 1.0611(5)
H23 H -0.9277 -0.4508 1.0502
H24 H -1.0490 -0.3393 1.0149
C38 C -0.9731(12) -0.3322(8) 1.1125(5)
H25 H -0.8640 -0.3641 1.1222
H26 H -0.9890 -0.2548 1.0895
O2 O -1.0610(15) -0.3416(13) 1.1768(6)
loop_
_geom_bond_atom_site_label_1
_geom_bond_atom_site_label_2
_geom_bond_site_symmetry_1
_geom_bond_site_symmetry_2
Bi1 S1 1_555 1_555
S1 C1 1_555 1_555
S2 Bi1 1_555 1_555
S3 Bi1 1_555 1_555
C1 C2 1_555 1_555
C2 C3 1_555 1_555
C3 C4 1_555 1_555
C4 C5 1_555 1_555
C5 C6 1_555 1_555
C6 C1 1_555 1_555
C7 S2 1_555 1_555
C8 C7 1_555 1_555
C9 C8 1_555 1_555
C10 C9 1_555 1_555
C11 C10 1_555 1_555
C12 C7 1_555 1_555
C13 S3 1_555 1_555
C14 C13 1_555 1_555
C15 C14 1_555 1_555
C16 C15 1_555 1_555
C17 C16 1_555 1_555
C18 C13 1_555 1_555
C19 H1 1_555 1_555
C20 C19 1_555 1_555
H2 C20 1_555 1_555
C21 C20 1_555 1_555
C22 C21 1_555 1_555
H3 C22 1_555 1_555
C23 C22 1_555 1_555
H4 C23 1_555 1_555
C24 C21 1_555 1_555
H5 C24 1_555 1_555
C25 H6 1_555 1_555
C26 C25 1_555 1_555
H7 C26 1_555 1_555
C27 C26 1_555 1_555
C28 C27 1_555 1_555
H8 C28 1_555 1_555
C29 C28 1_555 1_555
H9 C29 1_555 1_555
C30 C27 1_555 1_555
H10 C30 1_555 1_555
N1 Bi1 1_555 1_555
N2 Bi1 1_555 1_555
F1 C2 1_555 1_555
F2 C3 1_555 1_555
F3 C4 1_555 1_555
F4 C5 1_555 1_555
F5 C6 1_555 1_555
F6 C8 1_555 1_555
F7 C9 1_555 1_555
F8 C10 1_555 1_555
F9 C11 1_555 1_555
F10 C12 1_555 1_555
F11 C14 1_555 1_555
F12 C15 1_555 1_555
F13 C16 1_555 1_555
F14 C17 1_555 1_555
F15 C18 1_555 1_555
C31 H11 1_555 1_555
H12 C31 1_555 1_555
C32 C31 1_555 1_555
H13 C32 1_555 1_555
H14 C32 1_555 1_555
C33 C32 1_555 1_555
H15 C33 1_555 1_555
H16 C33 1_555 1_555
C34 C33 1_555 1_555
H17 C34 1_555 1_555
H18 C34 1_555 1_555
O1 C31 1_555 1_555
C35 H19 1_555 1_555
H20 C35 1_555 1_555
C36 C35 1_555 1_555
H21 C36 1_555 1_555
H22 C36 1_555 1_555
C37 C36 1_555 1_555
H23 C37 1_555 1_555
H24 C37 1_555 1_555
C38 C37 1_555 1_555
H25 C38 1_555 1_555
H26 C38 1_555 1_555
O2 C35 1_555 1_555
C24A C24 1_555 1_555
C21A C24A 1_555 1_555
C20A C21A 1_555 1_555
C19A C20A 1_555 1_555
H1A C19A 1_555 1_555
N1A C19A 1_555 1_555
C23A N1A 1_555 1_555
C22A C21A 1_555 1_555
H3A C22A 1_555 1_555
H4A C23A 1_555 1_555
H2A C20A 1_555 1_555
H5A C24A 1_555 1_555
C30A C30 1_555 1_555
C27A C30A 1_555 1_555
C26A C27A 1_555 1_555
C25A C26A 1_555 1_555
H6A C25A 1_555 1_555
N2A C25A 1_555 1_555
C29A N2A 1_555 1_555
C28A C27A 1_555 1_555
H8A C28A 1_555 1_555
H9A C29A 1_555 1_555
H7A C26A 1_555 1_555
H10A C30A 1_555 1_555
Bi1A N1A 1_555 1_555
S1A Bi1A 1_555 1_555
C1A S1A 1_555 1_555
C2A C1A 1_555 1_555
C3A C2A 1_555 1_555
C4A C3A 1_555 1_555
C5A C4A 1_555 1_555
C6A C1A 1_555 1_555
F1A C2A 1_555 1_555
F2A C3A 1_555 1_555
F3A C4A 1_555 1_555
F4A C5A 1_555 1_555
F5A C6A 1_555 1_555
S2A Bi1A 1_555 1_555
C7A S2A 1_555 1_555
C8A C7A 1_555 1_555
C9A C8A 1_555 1_555
C10A C9A 1_555 1_555
C11A C10A 1_555 1_555
C12A C7A 1_555 1_555
F6A C8A 1_555 1_555
F7A C9A 1_555 1_555
F8A C10A 1_555 1_555
F9A C11A 1_555 1_555
F10A C12A 1_555 1_555
S3A Bi1A 1_555 1_555
C13A S3A 1_555 1_555
C14A C13A 1_555 1_555
C15A C14A 1_555 1_555
C16A C15A 1_555 1_555
C17A C16A 1_555 1_555
C18A C13A 1_555 1_555
F11A C14A 1_555 1_555
F12A C15A 1_555 1_555
F13A C16A 1_555 1_555
F14A C17A 1_555 1_555
F15A C18A 1_555 1_555
Bi1A_2 N2A 1_555 1_555
N2A_2 Bi1A 1_555 1_555
C11 C12 1_555 1_555
C17 C18 1_555 1_555
C19 N1 1_555 1_555
C23 N1 1_555 1_555
C25 N2 1_555 1_555
C29 N2 1_555 1_555
C34 O1 1_555 1_555
C38 O2 1_555 1_555
C23A C22A 1_555 1_555
C29A C28A 1_555 1_555
C5A C6A 1_555 1_555
C11A C12A 1_555 1_555
C17A C18A 1_555 1_555

#END
