
#######################################################################
#
#                 Cambridge Crystallographic Data Centre
#                                CCDC 
#
#######################################################################
#
# If this CIF has been generated from an entry in the Cambridge 
# Structural Database, then it will include bibliographic, chemical, 
# crystal, experimental, refinement or atomic coordinate data resulting 
# from the CCDC's data processing and validation procedures.
#
#######################################################################

data_ASAKAG
_symmetry_cell_setting           triclinic
_symmetry_space_group_name_H-M   'P -1'
_symmetry_Int_Tables_number      2
_space_group_name_Hall           '-P 1'
loop_
_symmetry_equiv_pos_site_id
_symmetry_equiv_pos_as_xyz
1 x,y,z
2 -x,-y,-z
_cell_length_a                   7.5887(18)
_cell_length_b                   14.181(6)
_cell_length_c                   17.931(5)
_cell_angle_alpha                73.275(13)
_cell_angle_beta                 78.66(2)
_cell_angle_gamma                75.19(2)
_cell_volume                     1770.77
loop_
_atom_site_label
_atom_site_type_symbol
_atom_site_fract_x
_atom_site_fract_y
_atom_site_fract_z
Bi1 Bi 0.28521(5) 0.29965(3) 0.29412(2)
S1 S 0.5568(3) 0.37852(18) 0.31067(14)
S2 S 0.4382(4) 0.31739(17) 0.15138(14)
S3 S 0.5120(3) 0.12504(17) 0.33237(13)
C1 C 0.5394(13) 0.3771(7) 0.4096(5)
C2 C 0.6972(15) 0.3669(8) 0.4435(6)
C3 C 0.6926(15) 0.3647(8) 0.5206(6)
C4 C 0.5286(17) 0.3730(9) 0.5691(6)
C5 C 0.3697(14) 0.3827(8) 0.5393(6)
C6 C 0.3744(14) 0.3845(7) 0.4609(5)
C7 C 0.3839(13) 0.4490(7) 0.1104(5)
C8 C 0.2183(13) 0.4961(7) 0.0822(5)
C9 C 0.1807(14) 0.5979(7) 0.0465(5)
C10 C 0.3038(15) 0.6558(7) 0.0409(6)
C11 C 0.4711(15) 0.6107(7) 0.0672(5)
C12 C 0.5099(12) 0.5080(7) 0.1015(5)
C13 C 0.5004(13) 0.1280(6) 0.4309(5)
C14 C 0.6583(14) 0.1233(7) 0.4609(6)
C15 C 0.6518(15) 0.1225(7) 0.5388(6)
C16 C 0.4911(16) 0.1294(8) 0.5871(5)
C17 C 0.3283(15) 0.1342(8) 0.5600(5)
C18 C 0.3396(13) 0.1342(7) 0.4814(5)
C19 C 0.1743(13) -0.4186(7) 0.2609(5)
H1 H 0.2915 -0.4378 0.2759
C20 C 0.0925(13) -0.3186(7) 0.2442(6)
H2 H 0.1521 -0.2715 0.2494
C21 C -0.0793(12) -0.2876(7) 0.2195(5)
C22 C -0.1660(13) -0.3586(7) 0.2146(5)
H3 H -0.2820 -0.3397 0.1985
C23 C -0.0778(13) -0.4598(7) 0.2342(5)
H4 H -0.1381 -0.5080 0.2317
C24 C -0.7966(12) -0.0330(7) 0.0520(5)
H5 H -0.8598 -0.0767 0.0441
C25 C -0.6459(12) -0.0743(7) 0.0941(5)
H6 H -0.6078 -0.1437 0.1124
C26 C -0.5562(12) -0.0095(7) 0.1074(5)
C27 C -0.6175(13) 0.0952(7) 0.0793(6)
H7 H -0.5611 0.1407 0.0889
C28 C -0.7637(14) 0.1274(8) 0.0371(6)
H8 H -0.8026 0.1964 0.0171
C29 C -0.0194(13) 0.2165(7) 0.2029(6)
H9 H -0.0482 0.2856 0.1813
C30 C -0.1088(13) 0.1555(7) 0.1815(5)
H10 H -0.1956 0.1832 0.1468
C31 C -0.0642(13) 0.0523(7) 0.2137(5)
C32 C 0.0641(14) 0.0143(7) 0.2651(6)
H11 H 0.0968 -0.0546 0.2871
C33 C 0.1425(15) 0.0801(7) 0.2833(6)
H12 H 0.2269 0.0538 0.3192
C34 C -0.1544(12) -0.0170(7) 0.1950(5)
C35 C -0.3877(13) -0.0477(7) 0.1480(5)
C36 C -0.1641(13) -0.1766(7) 0.1981(5)
N1 N 0.1058(12) 0.1804(6) 0.2530(5)
N2 N -0.8548(11) 0.0659(6) 0.0227(5)
N3 N 0.0931(11) -0.4908(6) 0.2568(5)
N4 N -0.0783(10) -0.1155(5) 0.2136(4)
N5 N -0.3107(10) 0.0207(6) 0.1613(4)
N6 N -0.3214(10) -0.1491(5) 0.1671(4)
F1 F 0.8619(9) 0.3587(5) 0.3972(4)
F2 F 0.8491(9) 0.3560(6) 0.5491(4)
F3 F 0.5211(10) 0.3706(5) 0.6451(4)
F4 F 0.2067(10) 0.3906(6) 0.5856(4)
F5 F 0.2146(8) 0.3934(5) 0.4354(3)
F6 F 0.0903(8) 0.4438(5) 0.0894(4)
F7 F 0.0144(9) 0.6415(5) 0.0212(4)
F8 F 0.2640(10) 0.7559(4) 0.0068(4)
F9 F 0.5934(10) 0.6672(5) 0.0587(4)
F10 F 0.6774(8) 0.4675(5) 0.1244(3)
F11 F 0.8209(8) 0.1174(5) 0.4157(4)
F12 F 0.8076(9) 0.1200(5) 0.5658(4)
F13 F 0.4850(10) 0.1336(5) 0.6614(3)
F14 F 0.1691(9) 0.1426(6) 0.6064(4)
F15 F 0.1791(8) 0.1384(5) 0.4565(3)
N3_2 N 0.0931(11) 0.5092(6) 0.2568(5)
Bi1_2 Bi 0.28521(5) -0.70035(3) 0.29412(2)
loop_
_geom_bond_atom_site_label_1
_geom_bond_atom_site_label_2
_geom_bond_site_symmetry_1
_geom_bond_site_symmetry_2
Bi1 S1 1_555 1_555
S1 C1 1_555 1_555
S2 Bi1 1_555 1_555
S3 Bi1 1_555 1_555
C1 C2 1_555 1_555
C2 C3 1_555 1_555
C3 C4 1_555 1_555
C4 C5 1_555 1_555
C5 C6 1_555 1_555
C6 C1 1_555 1_555
C7 S2 1_555 1_555
C8 C7 1_555 1_555
C9 C8 1_555 1_555
C10 C9 1_555 1_555
C11 C10 1_555 1_555
C12 C7 1_555 1_555
C13 S3 1_555 1_555
C14 C13 1_555 1_555
C15 C14 1_555 1_555
C16 C15 1_555 1_555
C17 C16 1_555 1_555
C18 C13 1_555 1_555
C19 H1 1_555 1_555
C20 C19 1_555 1_555
H2 C20 1_555 1_555
C21 C20 1_555 1_555
C22 C21 1_555 1_555
H3 C22 1_555 1_555
C23 C22 1_555 1_555
H4 C23 1_555 1_555
C24 H5 1_555 1_555
C25 C24 1_555 1_555
H6 C25 1_555 1_555
C26 C25 1_555 1_555
C27 C26 1_555 1_555
H7 C27 1_555 1_555
C28 C27 1_555 1_555
H8 C28 1_555 1_555
C29 H9 1_555 1_555
C30 C29 1_555 1_555
H10 C30 1_555 1_555
C31 C30 1_555 1_555
C32 C31 1_555 1_555
H11 C32 1_555 1_555
C33 C32 1_555 1_555
H12 C33 1_555 1_555
C34 C31 1_555 1_555
C35 C26 1_555 1_555
C36 C21 1_555 1_555
N1 Bi1 1_555 1_555
N2 C24 1_555 1_555
N3 C19 1_555 1_555
N4 C34 1_555 1_555
N5 C34 1_555 1_555
N6 C35 1_555 1_555
F1 C2 1_555 1_555
F2 C3 1_555 1_555
F3 C4 1_555 1_555
F4 C5 1_555 1_555
F5 C6 1_555 1_555
F6 C8 1_555 1_555
F7 C9 1_555 1_555
F8 C10 1_555 1_555
F9 C11 1_555 1_555
F10 C12 1_555 1_555
F11 C14 1_555 1_555
F12 C15 1_555 1_555
F13 C16 1_555 1_555
F14 C17 1_555 1_555
F15 C18 1_555 1_555
N3_2 Bi1 1_555 1_555
Bi1_2 N3 1_555 1_555
C11 C12 1_555 1_555
C17 C18 1_555 1_555
C23 N3 1_555 1_555
C28 N2 1_555 1_555
C29 N1 1_555 1_555
C33 N1 1_555 1_555
C35 N5 1_555 1_555
C36 N4 1_555 1_555
C36 N6 1_555 1_555

#END
