
#######################################################################
#
#                 Cambridge Crystallographic Data Centre
#                                CCDC 
#
#######################################################################
#
# If this CIF has been generated from an entry in the Cambridge 
# Structural Database, then it will include bibliographic, chemical, 
# crystal, experimental, refinement or atomic coordinate data resulting 
# from the CCDC's data processing and validation procedures.
#
#######################################################################

data_ASAQIU
_symmetry_cell_setting           monoclinic
_symmetry_space_group_name_H-M   'P 21/n'
_symmetry_Int_Tables_number      14
_space_group_name_Hall           '-P 2yn'
loop_
_symmetry_equiv_pos_site_id
_symmetry_equiv_pos_as_xyz
1 x,y,z
2 1/2+x,1/2-y,1/2+z
3 -x,-y,-z
4 1/2-x,1/2+y,1/2-z
_cell_length_a                   7.543(6)
_cell_length_b                   33.05(2)
_cell_length_c                   9.902(5)
_cell_angle_alpha                90
_cell_angle_beta                 103.69(2)
_cell_angle_gamma                90
_cell_volume                     2398.4
loop_
_atom_site_label
_atom_site_type_symbol
_atom_site_fract_x
_atom_site_fract_y
_atom_site_fract_z
Co1 Co 0.12272(9) 0.073106(18) 0.19576(6)
O1 O -0.3438(5) 0.07878(10) 0.1029(4)
O2 O -0.0938(4) 0.10399(10) 0.2529(3)
O3 O -0.4260(6) 0.43125(10) 0.3605(3)
O4 O -0.4229(5) 0.38552(10) 0.5308(3)
O5 O -0.5086(6) 0.26833(11) 0.0045(4)
O6 O -0.0694(5) 0.03043(10) 0.0772(3)
H1 H -0.1856 0.0427 0.0708
H2 H -0.1363 0.0074 0.0837
O7 O 0.3237(4) 0.04461(10) 0.1001(3)
H3 H 0.2708 0.0408 0.0152
H4 H 0.3451 0.0213 0.1368
N1 N 0.3107(5) 0.11006(12) 0.3424(4)
N2 N 0.2000(5) 0.03305(12) 0.3706(4)
C1 C -0.2463(7) 0.10858(14) 0.1637(5)
C2 C -0.3128(7) 0.15100(14) 0.1220(5)
C3 C -0.4753(7) 0.15712(15) 0.0214(5)
H5 H -0.5416 0.1341 -0.0233
C4 C -0.5403(8) 0.19625(16) -0.0168(5)
H6 H -0.6526 0.2004 -0.0851
C5 C -0.4403(8) 0.22901(15) 0.0484(5)
C6 C -0.2738(8) 0.22401(15) 0.1464(6)
H7 H -0.2042 0.2471 0.1877
C7 C -0.2125(7) 0.18507(15) 0.1822(5)
H8 H -0.0991 0.1811 0.2493
C8 C -0.4945(7) 0.29855(15) 0.1055(5)
C9 C -0.4555(7) 0.33759(15) 0.0674(5)
H9 H -0.4354 0.3425 -0.0233
C10 C -0.4431(7) 0.36887(15) 0.1636(5)
H10 H -0.4179 0.3960 0.1385
C11 C -0.4680(6) 0.36145(14) 0.2976(5)
C12 C -0.5145(7) 0.32239(15) 0.3322(5)
H11 H -0.5353 0.3177 0.4228
C13 C -0.5286(8) 0.29077(15) 0.2362(5)
H12 H -0.5635 0.2642 0.2590
C14 C -0.4390(7) 0.39599(15) 0.4034(5)
C15 C 0.3649(8) 0.14806(16) 0.3261(6)
H13 H 0.3230 0.1607 0.2369
C16 C 0.4842(8) 0.16968(18) 0.4337(7)
H14 H 0.5203 0.1968 0.4184
C17 C 0.5450(8) 0.15126(19) 0.5623(6)
H15 H 0.6246 0.1654 0.6374
C18 C 0.4919(7) 0.11123(16) 0.5840(5)
C19 C 0.3746(6) 0.09193(15) 0.4703(5)
C20 C 0.5486(8) 0.09011(19) 0.7158(5)
H16 H 0.6241 0.1038 0.7942
C21 C 0.4928(8) 0.0513(2) 0.7296(5)
H17 H 0.5336 0.0375 0.8168
C22 C 0.3743(7) 0.03051(17) 0.6154(5)
C23 C 0.3135(6) 0.05085(14) 0.4854(5)
C24 C 0.3130(8) -0.00967(17) 0.6227(6)
H18 H 0.3452 -0.0242 0.7090
C25 C 0.2057(7) -0.02802(16) 0.5054(6)
H19 H 0.1690 -0.0558 0.5079
C26 C 0.1499(7) -0.00538(15) 0.3808(5)
H20 H 0.0747 -0.0180 0.3000
O4A O 0.0771(5) 0.11448(10) 0.0308(3)
Co1A Co -0.37728(9) 0.426894(18) 0.69576(6)
loop_
_geom_bond_atom_site_label_1
_geom_bond_atom_site_label_2
_geom_bond_site_symmetry_1
_geom_bond_site_symmetry_2
Co1 O2 1_555 1_555
O1 C1 1_555 1_555
O2 C1 1_555 1_555
O3 C14 1_555 1_555
O4 C14 1_555 1_555
O5 C5 1_555 1_555
O6 Co1 1_555 1_555
H1 O6 1_555 1_555
H2 O6 1_555 1_555
O7 Co1 1_555 1_555
H3 O7 1_555 1_555
H4 O7 1_555 1_555
N1 Co1 1_555 1_555
N2 Co1 1_555 1_555
C1 C2 1_555 1_555
C2 C3 1_555 1_555
C3 H5 1_555 1_555
C4 C3 1_555 1_555
H6 C4 1_555 1_555
C5 C4 1_555 1_555
C6 C5 1_555 1_555
H7 C6 1_555 1_555
C7 C2 1_555 1_555
H8 C7 1_555 1_555
C8 O5 1_555 1_555
C9 C8 1_555 1_555
H9 C9 1_555 1_555
C10 C9 1_555 1_555
H10 C10 1_555 1_555
C11 C10 1_555 1_555
C12 C11 1_555 1_555
H11 C12 1_555 1_555
C13 C8 1_555 1_555
H12 C13 1_555 1_555
C14 C11 1_555 1_555
C15 N1 1_555 1_555
H13 C15 1_555 1_555
C16 C15 1_555 1_555
H14 C16 1_555 1_555
C17 C16 1_555 1_555
H15 C17 1_555 1_555
C18 C17 1_555 1_555
C19 N1 1_555 1_555
C20 C18 1_555 1_555
H16 C20 1_555 1_555
C21 C20 1_555 1_555
H17 C21 1_555 1_555
C22 C21 1_555 1_555
C23 N2 1_555 1_555
C24 C22 1_555 1_555
H18 C24 1_555 1_555
C25 C24 1_555 1_555
H19 C25 1_555 1_555
C26 N2 1_555 1_555
H20 C26 1_555 1_555
O4A Co1 1_555 1_555
Co1A O4 1_555 1_555
C6 C7 1_555 1_555
C12 C13 1_555 1_555
C18 C19 1_555 1_555
C19 C23 1_555 1_555
C22 C23 1_555 1_555
C25 C26 1_555 1_555

#END
