
#######################################################################
#
#                 Cambridge Crystallographic Data Centre
#                                CCDC 
#
#######################################################################
#
# If this CIF has been generated from an entry in the Cambridge 
# Structural Database, then it will include bibliographic, chemical, 
# crystal, experimental, refinement or atomic coordinate data resulting 
# from the CCDC's data processing and validation procedures.
#
#######################################################################

data_ASAYUP
_symmetry_cell_setting           monoclinic
_symmetry_space_group_name_H-M   'C 2/c'
_symmetry_Int_Tables_number      15
_space_group_name_Hall           '-C 2yn'
loop_
_symmetry_equiv_pos_site_id
_symmetry_equiv_pos_as_xyz
1 x,y,z
2 -x,y,1/2-z
3 1/2+x,1/2+y,z
4 1/2-x,1/2+y,1/2-z
5 -x,-y,-z
6 x,-y,1/2+z
7 1/2-x,1/2-y,-z
8 1/2+x,1/2-y,1/2+z
_cell_length_a                   21.391(4)
_cell_length_b                   18.180(4)
_cell_length_c                   14.031(3)
_cell_angle_alpha                90
_cell_angle_beta                 116.50(3)
_cell_angle_gamma                90
_cell_volume                     4883.2
loop_
_atom_site_label
_atom_site_type_symbol
_atom_site_fract_x
_atom_site_fract_y
_atom_site_fract_z
Cd1 Cd 0.453161(9) 0.239750(8) 0.603718(13)
O1 O 0.35254(9) 0.28783(10) 0.45778(13)
O2 O 0.41692(9) 0.21293(10) 0.41666(13)
F1 F 0.36466(9) -0.47481(8) 0.49708(16)
N1 N 0.38162(9) 0.14087(9) 0.59283(14)
N2 N 0.51819(9) 0.12614(10) 0.63348(14)
N3 N 0.36298(9) -0.12854(10) 0.56816(15)
N4 N 0.47655(9) -0.14193(10) 0.60927(14)
H1 H 0.5156 -0.1630 0.6228
C1 C 0.40670(11) 0.07190(11) 0.59691(15)
C2 C 0.48027(11) 0.06388(11) 0.62045(15)
C3 C 0.51015(11) -0.00668(11) 0.62870(15)
C4 C 0.46487(11) -0.06781(12) 0.61143(16)
C5 C 0.40278(12) -0.25481(11) 0.56228(19)
C6 C 0.29363(12) 0.02104(13) 0.55487(18)
H2 H 0.2638 -0.0190 0.5410
C7 C 0.29578(12) 0.34722(12) 0.24472(18)
H3 H 0.2662 0.3510 0.1687
H4 H 0.2685 0.3627 0.2809
C8 C 0.26887(12) 0.09138(13) 0.55140(19)
H5 H 0.2225 0.0996 0.5362
C9 C 0.32193(14) -0.35359(14) 0.4780(2)
H6 H 0.2767 -0.3703 0.4367
C10 C 0.36394(11) 0.01001(12) 0.57930(16)
C11 C 0.31747(14) 0.26694(12) 0.27280(19)
H7 H 0.2759 0.2372 0.2528
H8 H 0.3410 0.2502 0.2315
C12 C 0.61771(12) 0.05259(13) 0.66177(18)
H9 H 0.6643 0.0509 0.6751
C13 C 0.35775(13) 0.39882(12) 0.2753(2)
H10 H 0.3859 0.3970 0.3519
H11 H 0.3865 0.3815 0.2425
C14 C 0.36531(12) 0.25530(11) 0.38985(18)
C15 C 0.39518(11) -0.06087(11) 0.58673(17)
C16 C 0.58097(11) -0.01114(13) 0.64972(17)
H12 H 0.6023 -0.0566 0.6553
C17 C 0.33712(14) 0.47799(13) 0.2423(2)
H13 H 0.3067 0.4945 0.2726
H14 H 0.3107 0.4800 0.1654
C18 C 0.37705(14) -0.40167(13) 0.5181(2)
C19 C 0.58499(12) 0.11996(13) 0.65406(17)
H15 H 0.6110 0.1627 0.6637
C20 C 0.41332(12) -0.17564(12) 0.58120(18)
C21 C 0.31486(12) 0.14950(13) 0.57118(18)
H16 H 0.2982 0.1970 0.5692
C22 C 0.39873(14) 0.53052(13) 0.2768(2)
H17 H 0.4248 0.5291 0.3537
H18 H 0.4295 0.5137 0.2473
C23 C 0.44391(13) -0.37962(14) 0.5785(2)
H19 H 0.4801 -0.4137 0.6042
C24 C 0.33525(13) -0.27979(13) 0.5006(2)
H20 H 0.2985 -0.2463 0.4741
C25 C 0.45735(13) -0.30522(14) 0.6014(2)
H21 H 0.5028 -0.2892 0.6429
C26 C 0.37767(17) 0.60898(15) 0.2422(2)
H22 H 0.3585 0.6110 0.1652
H23 H 0.3405 0.6221 0.2606
C27 C 0.43400(16) 0.66638(14) 0.2881(2)
O3 O 0.42528(12) 0.72692(9) 0.24079(16)
O4 O 0.48739(12) 0.65366(11) 0.37396(16)
Cd1D Cd 0.546839(9) 0.760250(8) 0.396282(13)
Cd1E Cd 0.453161(9) 0.760250(8) 0.103718(13)
O3D O 0.57472(12) 0.27308(9) 0.75921(16)
O3E O 0.42528(12) 0.27308(9) 0.74079(16)
O4D O 0.51261(12) 0.34634(11) 0.62604(16)
loop_
_geom_bond_atom_site_label_1
_geom_bond_atom_site_label_2
_geom_bond_site_symmetry_1
_geom_bond_site_symmetry_2
Cd1 O1 1_555 1_555
O1 C14 1_555 1_555
O2 Cd1 1_555 1_555
F1 C18 1_555 1_555
N1 Cd1 1_555 1_555
N2 Cd1 1_555 1_555
N3 C15 1_555 1_555
N4 H1 1_555 1_555
C1 N1 1_555 1_555
C2 N2 1_555 1_555
C3 C2 1_555 1_555
C4 N4 1_555 1_555
C5 C20 1_555 1_555
C6 H2 1_555 1_555
C7 H3 1_555 1_555
H4 C7 1_555 1_555
C8 C6 1_555 1_555
H5 C8 1_555 1_555
C9 H6 1_555 1_555
C10 C1 1_555 1_555
C11 C7 1_555 1_555
H7 C11 1_555 1_555
H8 C11 1_555 1_555
C12 H9 1_555 1_555
C13 C7 1_555 1_555
H10 C13 1_555 1_555
H11 C13 1_555 1_555
C14 O2 1_555 1_555
C15 C4 1_555 1_555
C16 C3 1_555 1_555
H12 C16 1_555 1_555
C17 C13 1_555 1_555
H13 C17 1_555 1_555
H14 C17 1_555 1_555
C18 C9 1_555 1_555
C19 N2 1_555 1_555
H15 C19 1_555 1_555
C20 N3 1_555 1_555
C21 N1 1_555 1_555
H16 C21 1_555 1_555
C22 C17 1_555 1_555
H17 C22 1_555 1_555
H18 C22 1_555 1_555
C23 C18 1_555 1_555
H19 C23 1_555 1_555
C24 C5 1_555 1_555
H20 C24 1_555 1_555
C25 C5 1_555 1_555
H21 C25 1_555 1_555
C26 C22 1_555 1_555
H22 C26 1_555 1_555
H23 C26 1_555 1_555
C27 C26 1_555 1_555
O3 C27 1_555 1_555
O4 C27 1_555 1_555
Cd1D O3 1_555 1_555
Cd1E O3 1_555 1_555
O3D Cd1 1_555 1_555
O3E Cd1 1_555 1_555
O4D Cd1 1_555 1_555
N4 C20 1_555 1_555
C1 C2 1_555 1_555
C3 C4 1_555 1_555
C6 C10 1_555 1_555
C8 C21 1_555 1_555
C9 C24 1_555 1_555
C10 C15 1_555 1_555
C11 C14 1_555 1_555
C12 C16 1_555 1_555
C12 C19 1_555 1_555
C23 C25 1_555 1_555
O4 Cd1D 1_555 1_555

#END
