
#######################################################################
#
#                 Cambridge Crystallographic Data Centre
#                                CCDC 
#
#######################################################################
#
# If this CIF has been generated from an entry in the Cambridge 
# Structural Database, then it will include bibliographic, chemical, 
# crystal, experimental, refinement or atomic coordinate data resulting 
# from the CCDC's data processing and validation procedures.
#
#######################################################################

data_ASEBEG
_symmetry_cell_setting           monoclinic
_symmetry_space_group_name_H-M   'P 21/c'
_symmetry_Int_Tables_number      14
_space_group_name_Hall           '-P 2ybc'
loop_
_symmetry_equiv_pos_site_id
_symmetry_equiv_pos_as_xyz
1 x,y,z
2 -x,1/2+y,1/2-z
3 -x,-y,-z
4 x,1/2-y,1/2+z
_cell_length_a                   16.854(2)
_cell_length_b                   13.4332(17)
_cell_length_c                   21.843(3)
_cell_angle_alpha                90
_cell_angle_beta                 109.487(2)
_cell_angle_gamma                90
_cell_volume                     4662.04
loop_
_atom_site_label
_atom_site_type_symbol
_atom_site_fract_x
_atom_site_fract_y
_atom_site_fract_z
Os1 Os 0.007028(9) 0.679034(10) 0.304018(7)
Os2 Os -0.424500(10) 0.526280(12) 0.186210(8)
Cu1 Cu -0.13954(3) 0.38043(3) 0.35218(2)
O1 O -0.02029(17) 0.79352(19) 0.35468(13)
O2 O 0.12520(16) 0.6586(2) 0.36658(13)
O3 O -0.37827(19) 0.6585(2) 0.16822(14)
O4 O -0.44579(18) 0.5795(2) 0.26691(15)
N1 N -0.0674(2) 0.5021(2) 0.36493(16)
N2 N 0.0874(2) 0.8191(2) 0.22102(18)
N3 N -0.2417(2) 0.4558(3) 0.27910(19)
N4 N -0.6092(3) 0.5851(4) 0.0914(3)
N5 N -0.1115(2) 0.6789(2) 0.24222(15)
N6 N 0.0202(2) 0.5698(2) 0.24604(15)
N7 N -0.4083(2) 0.4630(3) 0.10822(18)
N8 N -0.4662(2) 0.3902(3) 0.19810(19)
N9 N -0.2158(2) 0.2580(3) 0.35023(17)
N10 N -0.1795(2) 0.4219(3) 0.43530(18)
N11 N -0.0459(2) 0.2935(3) 0.42861(17)
C1 C -0.0381(2) 0.5716(3) 0.35026(17)
C2 C 0.0564(2) 0.7742(3) 0.25207(18)
C3 C -0.3056(3) 0.4842(3) 0.2454(2)
C4 C -0.5435(3) 0.5674(4) 0.1270(2)
C5 C -0.0979(3) 0.8087(3) 0.35635(19)
C6 C -0.1058(3) 0.8737(3) 0.4048(2)
H2 H -0.0580 0.9022 0.4343
C7 C -0.1849(4) 0.8955(4) 0.4087(3)
H3 H -0.1892 0.9386 0.4407
C8 C -0.2571(4) 0.8540(5) 0.3654(3)
H4 H -0.3095 0.8688 0.3685
C9 C -0.2507(3) 0.7918(4) 0.3188(3)
H5 H -0.2995 0.7637 0.2903
C10 C -0.1723(3) 0.7678(3) 0.3117(2)
C11 C -0.1762(3) 0.7103(3) 0.2552(2)
H6 H -0.2292 0.6948 0.2261
C12 C -0.1210(3) 0.6226(3) 0.18204(19)
H7 H -0.1082 0.6651 0.1506
H8 H -0.1784 0.5989 0.1631
C13 C -0.0610(3) 0.5357(3) 0.1994(2)
H9 H -0.0841 0.4830 0.2187
H10 H -0.0525 0.5097 0.1606
C14 C 0.0896(3) 0.5268(3) 0.2497(2)
H11 H 0.0871 0.4762 0.2200
C15 C 0.1710(3) 0.5501(3) 0.2959(2)
C16 C 0.2417(4) 0.5052(4) 0.2860(3)
H12 H 0.2334 0.4623 0.2510
C17 C 0.3216(3) 0.5230(4) 0.3261(3)
H13 H 0.3671 0.4938 0.3180
C18 C 0.3345(3) 0.5848(4) 0.3791(3)
H14 H 0.3890 0.5968 0.4067
C19 C 0.2683(3) 0.6284(4) 0.3915(2)
H15 H 0.2786 0.6687 0.4280
C20 C 0.1852(2) 0.6140(3) 0.3505(2)
C21 C -0.3614(3) 0.6800(3) 0.1148(2)
C22 C -0.3342(3) 0.7766(3) 0.1089(2)
H16 H -0.3330 0.8233 0.1406
C23 C -0.3090(4) 0.8050(4) 0.0577(3)
H17 H -0.2907 0.8698 0.0556
C24 C -0.3109(4) 0.7376(5) 0.0092(3)
H18 H -0.2937 0.7566 -0.0254
C25 C -0.3385(3) 0.6429(4) 0.0129(2)
H19 H -0.3399 0.5981 -0.0199
C26 C -0.3648(3) 0.6102(3) 0.0641(2)
C27 C -0.3874(3) 0.5071(4) 0.0640(2)
H20 H -0.3868 0.4690 0.0286
C28 C -0.4185(4) 0.3536(3) 0.1071(3)
H21 H -0.3646 0.3221 0.1288
H22 H -0.4392 0.3302 0.0626
C29 C -0.4801(3) 0.3262(4) 0.1411(3)
H23 H -0.5372 0.3346 0.1116
H24 H -0.4725 0.2570 0.1545
C30 C -0.4832(3) 0.3599(4) 0.2481(3)
H25 H -0.5039 0.2954 0.2467
C31 C -0.4732(3) 0.4168(4) 0.3061(2)
C32 C -0.4821(3) 0.3652(4) 0.3597(3)
H26 H -0.4972 0.2984 0.3547
C33 C -0.4695(3) 0.4091(5) 0.4183(3)
H27 H -0.4764 0.3729 0.4525
C34 C -0.4464(3) 0.5088(5) 0.4263(3)
H28 H -0.4364 0.5392 0.4664
C35 C -0.4383(3) 0.5629(4) 0.3753(2)
H29 H -0.4231 0.6296 0.3818
C36 C -0.4523(3) 0.5206(3) 0.3132(2)
C37 C -0.2797(3) 0.2956(4) 0.3778(3)
H30 H -0.3182 0.3394 0.3464
H31 H -0.3121 0.2397 0.3849
C38 C -0.2433(3) 0.3497(4) 0.4393(3)
H32 H -0.2176 0.3026 0.4739
H33 H -0.2877 0.3844 0.4496
C39 C -0.1005(3) 0.4137(4) 0.4913(2)
H34 H -0.1134 0.4197 0.5312
H35 H -0.0636 0.4684 0.4898
C40 C -0.0553(3) 0.3178(4) 0.4922(2)
H36 H 0.0000 0.3215 0.5250
H37 H -0.0860 0.2645 0.5043
C41 C -0.0723(3) 0.1909(3) 0.4071(2)
H38 H -0.0427 0.1449 0.4413
H39 H -0.0564 0.1759 0.3693
C42 C -0.1648(3) 0.1758(3) 0.3905(3)
H40 H -0.1805 0.1135 0.3671
H41 H -0.1780 0.1705 0.4304
C43 C -0.2611(3) 0.2227(4) 0.2839(3)
H42 H -0.2926 0.2767 0.2584
H43 H -0.2988 0.1700 0.2855
H44 H -0.2214 0.1984 0.2645
C44 C -0.2112(3) 0.5248(4) 0.4309(3)
H45 H -0.2623 0.5304 0.3946
H46 H -0.1699 0.5696 0.4252
H47 H -0.2221 0.5414 0.4701
C45 C 0.0405(3) 0.3123(4) 0.4298(3)
H48 H 0.0562 0.3795 0.4437
H49 H 0.0435 0.3030 0.3870
H50 H 0.0783 0.2669 0.4594
Cu1A Cu 0.13954(3) 0.88043(3) 0.14782(2)
N2A N -0.0874(2) 0.3191(2) 0.27898(18)
O5 O 0.1166(4) 0.8991(5) 0.4436(3)
H1 H 0.0696 0.8653 0.4129
C46 C 0.1976(4) 0.8953(5) 0.4351(3)
H51 H 0.1913 0.8889 0.3904
H52 H 0.2290 0.8391 0.4590
H53 H 0.2286 0.9553 0.4524
loop_
_geom_bond_atom_site_label_1
_geom_bond_atom_site_label_2
_geom_bond_site_symmetry_1
_geom_bond_site_symmetry_2
Os1 O1 1_555 1_555
Os2 O3 1_555 1_555
Cu1 N1 1_555 1_555
O1 C5 1_555 1_555
O2 Os1 1_555 1_555
O3 C21 1_555 1_555
O4 Os2 1_555 1_555
O5 H1 1_555 1_555
N1 C1 1_555 1_555
N2 C2 1_555 1_555
N3 Cu1 1_555 1_555
N4 C4 1_555 1_555
N5 Os1 1_555 1_555
N6 Os1 1_555 1_555
N7 Os2 1_555 1_555
N8 Os2 1_555 1_555
N9 Cu1 1_555 1_555
N10 Cu1 1_555 1_555
N11 Cu1 1_555 1_555
C1 Os1 1_555 1_555
C2 Os1 1_555 1_555
C3 Os2 1_555 1_555
C4 Os2 1_555 1_555
C5 C6 1_555 1_555
C6 H2 1_555 1_555
C7 C6 1_555 1_555
H3 C7 1_555 1_555
C8 C7 1_555 1_555
H4 C8 1_555 1_555
C9 C8 1_555 1_555
H5 C9 1_555 1_555
C10 C5 1_555 1_555
C11 N5 1_555 1_555
H6 C11 1_555 1_555
C12 N5 1_555 1_555
H7 C12 1_555 1_555
H8 C12 1_555 1_555
C13 N6 1_555 1_555
H9 C13 1_555 1_555
H10 C13 1_555 1_555
C14 N6 1_555 1_555
H11 C14 1_555 1_555
C15 C14 1_555 1_555
C16 C15 1_555 1_555
H12 C16 1_555 1_555
C17 C16 1_555 1_555
H13 C17 1_555 1_555
C18 C17 1_555 1_555
H14 C18 1_555 1_555
C19 C18 1_555 1_555
H15 C19 1_555 1_555
C20 O2 1_555 1_555
C21 C22 1_555 1_555
C22 H16 1_555 1_555
C23 C22 1_555 1_555
H17 C23 1_555 1_555
C24 C23 1_555 1_555
H18 C24 1_555 1_555
C25 C24 1_555 1_555
H19 C25 1_555 1_555
C26 C21 1_555 1_555
C27 N7 1_555 1_555
H20 C27 1_555 1_555
C28 N7 1_555 1_555
H21 C28 1_555 1_555
H22 C28 1_555 1_555
C29 N8 1_555 1_555
H23 C29 1_555 1_555
H24 C29 1_555 1_555
C30 N8 1_555 1_555
H25 C30 1_555 1_555
C31 C30 1_555 1_555
C32 C31 1_555 1_555
H26 C32 1_555 1_555
C33 C32 1_555 1_555
H27 C33 1_555 1_555
C34 C33 1_555 1_555
H28 C34 1_555 1_555
C35 C34 1_555 1_555
H29 C35 1_555 1_555
C36 O4 1_555 1_555
C37 N9 1_555 1_555
H30 C37 1_555 1_555
H31 C37 1_555 1_555
C38 N10 1_555 1_555
H32 C38 1_555 1_555
H33 C38 1_555 1_555
C39 N10 1_555 1_555
H34 C39 1_555 1_555
H35 C39 1_555 1_555
C40 N11 1_555 1_555
H36 C40 1_555 1_555
H37 C40 1_555 1_555
C41 N11 1_555 1_555
H38 C41 1_555 1_555
H39 C41 1_555 1_555
C42 N9 1_555 1_555
H40 C42 1_555 1_555
H41 C42 1_555 1_555
C43 N9 1_555 1_555
H42 C43 1_555 1_555
H43 C43 1_555 1_555
H44 C43 1_555 1_555
C44 N10 1_555 1_555
H45 C44 1_555 1_555
H46 C44 1_555 1_555
H47 C44 1_555 1_555
C45 N11 1_555 1_555
H48 C45 1_555 1_555
H49 C45 1_555 1_555
H50 C45 1_555 1_555
C46 O5 1_555 1_555
H51 C46 1_555 1_555
H52 C46 1_555 1_555
H53 C46 1_555 1_555
Cu1A N2 1_555 1_555
N2A Cu1 1_555 1_555
N3 C3 1_555 1_555
C9 C10 1_555 1_555
C10 C11 1_555 1_555
C12 C13 1_555 1_555
C15 C20 1_555 1_555
C19 C20 1_555 1_555
C25 C26 1_555 1_555
C26 C27 1_555 1_555
C28 C29 1_555 1_555
C31 C36 1_555 1_555
C35 C36 1_555 1_555
C37 C38 1_555 1_555
C39 C40 1_555 1_555
C41 C42 1_555 1_555

#END
