
#######################################################################
#
#                 Cambridge Crystallographic Data Centre
#                                CCDC 
#
#######################################################################
#
# If this CIF has been generated from an entry in the Cambridge 
# Structural Database, then it will include bibliographic, chemical, 
# crystal, experimental, refinement or atomic coordinate data resulting 
# from the CCDC's data processing and validation procedures.
#
#######################################################################

data_ASEFUZ
_symmetry_cell_setting           orthorhombic
_symmetry_space_group_name_H-M   'P m c n'
_symmetry_Int_Tables_number      62
_space_group_name_Hall           '-P 2n 2a'
loop_
_symmetry_equiv_pos_site_id
_symmetry_equiv_pos_as_xyz
1 x,y,z
2 1/2-x,1/2-y,1/2+z
3 1/2+x,-y,-z
4 -x,1/2+y,1/2-z
5 -x,-y,-z
6 1/2+x,1/2+y,1/2-z
7 1/2-x,y,z
8 x,1/2-y,1/2+z
_cell_length_a                   7.3637(3)
_cell_length_b                   8.6292(4)
_cell_length_c                   13.1367(7)
_cell_angle_alpha                90
_cell_angle_beta                 90
_cell_angle_gamma                90
_cell_volume                     834.743
loop_
_atom_site_label
_atom_site_type_symbol
_atom_site_fract_x
_atom_site_fract_y
_atom_site_fract_z
U1 U 0.2500 0.92842(3) 0.48861(2)
F1 F 0.4431(4) 1.1348(4) 0.5224(2)
O1 O 0.2500 0.8764(7) 0.6180(4)
O2 O 0.2500 0.9809(7) 0.3589(4)
O3 O 0.2500 0.6708(7) 0.4258(4)
O4 O 0.2500 0.4832(7) 0.5444(4)
N1 N 0.2500 0.2318(8) 0.2001(5)
C1 C 0.2500 0.5282(9) 0.4555(6)
C2 C 0.2500 0.4144(9) 0.3681(5)
C3 C 0.0867(8) 0.3649(7) 0.3255(4)
C4 C 0.0901(8) 0.2708(7) 0.2407(4)
H1 H 0.2500 0.1714 0.1366
H2 H -0.0100 0.3700 0.3609
H3 H -0.0138 0.2221 0.2098
C4F C 0.4099(8) 0.2708(7) 0.2407(4)
C3F C 0.4133(8) 0.3649(7) 0.3255(4)
H2F H 0.5100 0.3700 0.3609
H3F H 0.5138 0.2221 0.2098
F1B F -0.0569(4) 0.8652(4) 0.4776(2)
F1D F 0.5569(4) 0.8652(4) 0.4776(2)
F1F F 0.0569(4) 1.1348(4) 0.5224(2)
U1B U 0.7500 1.07158(3) 0.51139(2)
U1B_2 U -0.2500 1.07158(3) 0.51139(2)
loop_
_geom_bond_atom_site_label_1
_geom_bond_atom_site_label_2
_geom_bond_site_symmetry_1
_geom_bond_site_symmetry_2
U1 F1 1_555 1_555
F1 U1B 1_555 1_555
O1 U1 1_555 1_555
O2 U1 1_555 1_555
O3 U1 1_555 1_555
O4 C1 1_555 1_555
N1 C4 1_555 1_555
C1 O3 1_555 1_555
C2 C1 1_555 1_555
C3 C2 1_555 1_555
C4 C3 1_555 1_555
H1 N1 1_555 1_555
H2 C3 1_555 1_555
H3 C4 1_555 1_555
C4F N1 1_555 1_555
C3F C2 1_555 1_555
H2F C3F 1_555 1_555
H3F C4F 1_555 1_555
F1B U1 1_555 1_555
F1D U1 1_555 1_555
F1F U1 1_555 1_555
U1B F1D 1_555 1_555
U1B_2 F1B 1_555 1_555
C4F C3F 1_555 1_555
F1F U1B_2 1_555 1_555

#END
