
#######################################################################
#
#                 Cambridge Crystallographic Data Centre
#                                CCDC 
#
#######################################################################
#
# If this CIF has been generated from an entry in the Cambridge 
# Structural Database, then it will include bibliographic, chemical, 
# crystal, experimental, refinement or atomic coordinate data resulting 
# from the CCDC's data processing and validation procedures.
#
#######################################################################

data_ASEKOY
_symmetry_cell_setting           orthorhombic
_symmetry_space_group_name_H-M   'I b a 2'
_symmetry_Int_Tables_number      45
_space_group_name_Hall           'I 2 -2c'
loop_
_symmetry_equiv_pos_site_id
_symmetry_equiv_pos_as_xyz
1 x,y,z
2 -x,-y,z
3 -x,y,1/2+z
4 x,-y,1/2+z
5 1/2+x,1/2+y,1/2+z
6 1/2-x,1/2-y,1/2+z
7 1/2-x,1/2+y,z
8 1/2+x,1/2-y,z
_cell_length_a                   13.782(3)
_cell_length_b                   13.806(3)
_cell_length_c                   16.197(3)
_cell_angle_alpha                90
_cell_angle_beta                 90
_cell_angle_gamma                90
_cell_volume                     3081.87
loop_
_atom_site_label
_atom_site_type_symbol
_atom_site_fract_x
_atom_site_fract_y
_atom_site_fract_z
Co1 Co 0.0000 1.0000 0.44397(11)
N1 N 0.0989(3) 1.0607(3) 0.3706(3)
N2 N 0.1961(4) 1.0414(4) 0.3752(3)
N3 N 0.0613(3) 1.0990(3) 0.0178(3)
N4 N 0.0411(4) 1.1963(3) 0.0128(3)
C1 C 0.0750(7) 1.3543(4) 0.0812(5)
H1 H 0.0322 1.3774 0.0388
H2 H 0.0488 1.3704 0.1344
H3 H 0.1375 1.3840 0.0749
C2 C 0.0851(5) 1.2462(4) 0.0742(4)
C3 C 0.1370(4) 1.1798(4) 0.1202(3)
C4 C 0.1195(4) 1.0890(4) 0.0827(4)
C5 C 0.1601(5) 0.9919(4) 0.1065(4)
H4 H 0.1347 0.9431 0.0703
H5 H 0.2295 0.9934 0.1021
H6 H 0.1420 0.9773 0.1624
C6 C 0.1995(5) 1.2006(5) 0.1939(5)
H7 H 0.2669 1.1926 0.1782
H8 H 0.1904 1.2677 0.2099
C7 C -0.0083(4) 1.1599(5) 0.2823(4)
H9 H -0.0565 1.1341 0.3189
H10 H -0.0236 1.1419 0.2265
H11 H -0.0071 1.2292 0.2868
C8 C 0.0888(4) 1.1202(4) 0.3048(3)
C9 C 0.1790(4) 1.1368(4) 0.2680(3)
C10 C 0.2456(4) 1.0850(5) 0.3137(4)
C11 C 0.3543(4) 1.0736(7) 0.3068(6)
H12 H 0.3769 1.0306 0.3492
H13 H 0.3848 1.1357 0.3132
H14 H 0.3703 1.0474 0.2537
H15 H 0.220(3) 0.997(3) 0.409(3)
H16 H -0.009(3) 1.219(4) -0.017(3)
N1A N -0.0989(3) 0.9393(3) 0.3706(3)
N2A N -0.1961(4) 0.9586(4) 0.3752(3)
N3A N -0.0613(3) 0.9010(3) 0.0178(3)
N4A N -0.0411(4) 0.8037(3) 0.0128(3)
C1A C -0.0750(7) 0.6457(4) 0.0812(5)
H1A H -0.0322 0.6226 0.0388
H2A H -0.0488 0.6296 0.1344
H3A H -0.1375 0.6160 0.0749
C2A C -0.0851(5) 0.7538(4) 0.0742(4)
C3A C -0.1370(4) 0.8202(4) 0.1202(3)
C4A C -0.1195(4) 0.9110(4) 0.0827(4)
C5A C -0.1601(5) 1.0081(4) 0.1065(4)
H4A H -0.1347 1.0569 0.0703
H5A H -0.2295 1.0066 0.1021
H6A H -0.1420 1.0227 0.1624
C6A C -0.1995(5) 0.7994(5) 0.1939(5)
H7A H -0.2669 0.8074 0.1782
H8A H -0.1904 0.7323 0.2099
C7A C 0.0083(4) 0.8401(5) 0.2823(4)
H9A H 0.0565 0.8659 0.3189
H10A H 0.0236 0.8581 0.2265
H11A H 0.0071 0.7708 0.2868
C8A C -0.0888(4) 0.8798(4) 0.3048(3)
C9A C -0.1790(4) 0.8632(4) 0.2680(3)
C10A C -0.2456(4) 0.9150(5) 0.3137(4)
C11A C -0.3543(4) 0.9264(7) 0.3068(6)
H12A H -0.3769 0.9694 0.3492
H13A H -0.3848 0.8643 0.3132
H14A H -0.3703 0.9526 0.2537
H15A H -0.220(3) 1.003(3) 0.409(3)
H16A H 0.009(3) 0.781(4) -0.017(3)
N3B N -0.0613(3) 1.0990(3) 0.5178(3)
N3C N 0.0613(3) 0.9010(3) 0.5178(3)
Co1B Co 0.0000 1.0000 -0.05603(11)
Cl1 Cl 0.17317(12) 0.32676(11) 0.44400(18)
O1 O 0.1769(5) 0.2473(4) 0.5024(5)
O2 O 0.2530(5) 0.3228(5) 0.3862(5)
O3 O 0.0816(4) 0.3201(4) 0.4044(4)
O4 O 0.1795(4) 0.4181(4) 0.4843(4)
loop_
_geom_bond_atom_site_label_1
_geom_bond_atom_site_label_2
_geom_bond_site_symmetry_1
_geom_bond_site_symmetry_2
Co1 N1 1_555 1_555
N1 N2 1_555 1_555
N2 C10 1_555 1_555
N3 N4 1_555 1_555
N4 C2 1_555 1_555
C1 H1 1_555 1_555
H2 C1 1_555 1_555
H3 C1 1_555 1_555
C2 C1 1_555 1_555
C3 C2 1_555 1_555
C4 N3 1_555 1_555
C5 C4 1_555 1_555
H4 C5 1_555 1_555
H5 C5 1_555 1_555
H6 C5 1_555 1_555
C6 C3 1_555 1_555
H7 C6 1_555 1_555
H8 C6 1_555 1_555
C7 H9 1_555 1_555
H10 C7 1_555 1_555
H11 C7 1_555 1_555
C8 N1 1_555 1_555
C9 C6 1_555 1_555
C10 C9 1_555 1_555
C11 C10 1_555 1_555
H12 C11 1_555 1_555
H13 C11 1_555 1_555
H14 C11 1_555 1_555
H15 N2 1_555 1_555
H16 N4 1_555 1_555
Cl1 O1 1_555 1_555
O2 Cl1 1_555 1_555
O3 Cl1 1_555 1_555
O4 Cl1 1_555 1_555
N1A Co1 1_555 1_555
N2A N1A 1_555 1_555
N3A N4A 1_555 1_555
N4A C2A 1_555 1_555
C1A H1A 1_555 1_555
H2A C1A 1_555 1_555
H3A C1A 1_555 1_555
C2A C1A 1_555 1_555
C3A C2A 1_555 1_555
C4A N3A 1_555 1_555
C5A C4A 1_555 1_555
H4A C5A 1_555 1_555
H5A C5A 1_555 1_555
H6A C5A 1_555 1_555
C6A C3A 1_555 1_555
H7A C6A 1_555 1_555
H8A C6A 1_555 1_555
C7A H9A 1_555 1_555
H10A C7A 1_555 1_555
H11A C7A 1_555 1_555
C8A N1A 1_555 1_555
C9A C6A 1_555 1_555
C10A N2A 1_555 1_555
C11A C10A 1_555 1_555
H12A C11A 1_555 1_555
H13A C11A 1_555 1_555
H14A C11A 1_555 1_555
H15A N2A 1_555 1_555
H16A N4A 1_555 1_555
N3B Co1 1_555 1_555
N3C Co1 1_555 1_555
Co1B N3 1_555 1_555
C3 C4 1_555 1_555
C7 C8 1_555 1_555
C8 C9 1_555 1_555
N3A Co1B 1_555 1_555
C3A C4A 1_555 1_555
C7A C8A 1_555 1_555
C8A C9A 1_555 1_555
C9A C10A 1_555 1_555

#END
