
#######################################################################
#
#                 Cambridge Crystallographic Data Centre
#                                CCDC 
#
#######################################################################
#
# If this CIF has been generated from an entry in the Cambridge 
# Structural Database, then it will include bibliographic, chemical, 
# crystal, experimental, refinement or atomic coordinate data resulting 
# from the CCDC's data processing and validation procedures.
#
#######################################################################

data_ASEMEQ01
_symmetry_cell_setting           monoclinic
_symmetry_space_group_name_H-M   'P 21/c'
_symmetry_Int_Tables_number      14
_space_group_name_Hall           '-P 2ybc'
loop_
_symmetry_equiv_pos_site_id
_symmetry_equiv_pos_as_xyz
1 x,y,z
2 -x,1/2+y,1/2-z
3 -x,-y,-z
4 x,1/2-y,1/2+z
_cell_length_a                   9.961(2)
_cell_length_b                   16.251(3)
_cell_length_c                   11.901(2)
_cell_angle_alpha                90
_cell_angle_beta                 117.41(1)
_cell_angle_gamma                90
_cell_volume                     1710.21
loop_
_atom_site_label
_atom_site_type_symbol
_atom_site_fract_x
_atom_site_fract_y
_atom_site_fract_z
Cd1 Cd 0.82482(2) 0.03558(1) 0.62351(1)
O1 O 0.6257(2) 0.1152(1) 0.5174(1)
O2 O 0.6351(2) 0.1159(1) 0.3330(2)
O3 O -0.0171(2) 0.3608(1) 0.2661(1)
O4 O 0.0320(2) 0.4007(1) 0.1115(1)
O5 O 0.7553(2) -0.0285(1) 0.4358(2)
N1 N 0.7342(2) 0.0078(1) 0.7670(2)
N2 N 0.9656(2) -0.0724(1) 0.7543(2)
C1 C 0.6210(3) 0.0513(2) 0.7689(2)
C2 C 0.5860(3) 0.0470(2) 0.8690(3)
C3 C 0.6721(3) -0.0047(2) 0.9691(2)
C4 C 0.7888(3) -0.0496(2) 0.9671(2)
C5 C 0.8171(2) -0.0424(1) 0.8639(2)
C6 C 0.9419(2) -0.0891(1) 0.8546(2)
C7 C 1.0295(3) -0.1472(2) 0.9451(2)
C8 C 1.1413(3) -0.1890(2) 0.9300(2)
C9 C 1.1638(3) -0.1725(2) 0.8259(3)
C10 C 1.0738(3) -0.1135(2) 0.7406(2)
C11 C 0.5796(2) 0.1372(2) 0.4036(2)
C12 C 0.4445(2) 0.1940(1) 0.3512(2)
C13 C 0.4005(2) 0.2345(2) 0.2363(2)
C14 C 0.2777(2) 0.2875(2) 0.1904(2)
C15 C 0.1951(2) 0.2999(1) 0.2574(2)
C16 C 0.2372(3) 0.2577(2) 0.3703(2)
C17 C 0.3614(3) 0.2059(2) 0.4179(2)
C18 C 0.0616(2) 0.3568(1) 0.2087(2)
H1 H 0.5626 0.0863 0.6994
H2 H 0.5056 0.0785 0.8689
H3 H 0.6510 -0.0093 1.0390
H4 H 0.8489 -0.0850 1.0356
H5 H 1.0127 -0.1579 1.0162
H6 H 1.2022 -0.2287 0.9908
H7 H 1.2391 -0.2010 0.8132
H8 H 1.0894 -0.1017 0.6693
H9 H 0.4548 0.2257 0.1894
H10 H 0.2494 0.3157 0.1128
H11 H 0.1800 0.2645 0.4152
H12 H 0.3903 0.1783 0.4962
H13 H 0.7105 0.0175 0.3836
H14 H 0.8251 -0.0528 0.4185
Cd1C Cd -0.17518(2) 0.46442(1) 0.12351(1)
O3C O 0.9829(2) 0.1392(1) 0.7661(1)
O4C O 1.0320(2) 0.0993(1) 0.6115(1)
loop_
_geom_bond_atom_site_label_1
_geom_bond_atom_site_label_2
_geom_bond_site_symmetry_1
_geom_bond_site_symmetry_2
Cd1 O1 1_555 1_555
O1 C11 1_555 1_555
O2 C11 1_555 1_555
O3 C18 1_555 1_555
O4 C18 1_555 1_555
O5 Cd1 1_555 1_555
N1 Cd1 1_555 1_555
N2 Cd1 1_555 1_555
C1 N1 1_555 1_555
C2 C1 1_555 1_555
C3 C2 1_555 1_555
C4 C3 1_555 1_555
C5 N1 1_555 1_555
C6 N2 1_555 1_555
C7 C6 1_555 1_555
C8 C7 1_555 1_555
C9 C8 1_555 1_555
C10 N2 1_555 1_555
C11 C12 1_555 1_555
C12 C13 1_555 1_555
C13 C14 1_555 1_555
C14 C15 1_555 1_555
C15 C16 1_555 1_555
C16 C17 1_555 1_555
C17 C12 1_555 1_555
C18 C15 1_555 1_555
H1 C1 1_555 1_555
H2 C2 1_555 1_555
H3 C3 1_555 1_555
H4 C4 1_555 1_555
H5 C7 1_555 1_555
H6 C8 1_555 1_555
H7 C9 1_555 1_555
H8 C10 1_555 1_555
H9 C13 1_555 1_555
H10 C14 1_555 1_555
H11 C16 1_555 1_555
H12 C17 1_555 1_555
H13 O5 1_555 1_555
H14 O5 1_555 1_555
Cd1C O3 1_555 1_555
O3C Cd1 1_555 1_555
O4C Cd1 1_555 1_555
O4 Cd1C 1_555 1_555
C4 C5 1_555 1_555
C5 C6 1_555 1_555
C9 C10 1_555 1_555

#END
