
#######################################################################
#
#                 Cambridge Crystallographic Data Centre
#                                CCDC 
#
#######################################################################
#
# If this CIF has been generated from an entry in the Cambridge 
# Structural Database, then it will include bibliographic, chemical, 
# crystal, experimental, refinement or atomic coordinate data resulting 
# from the CCDC's data processing and validation procedures.
#
#######################################################################

data_ASIVAZ
_symmetry_cell_setting           triclinic
_symmetry_space_group_name_H-M   'P -1'
_symmetry_Int_Tables_number      2
_space_group_name_Hall           '-P 1'
loop_
_symmetry_equiv_pos_site_id
_symmetry_equiv_pos_as_xyz
1 x,y,z
2 -x,-y,-z
_cell_length_a                   16.1395(3)
_cell_length_b                   17.0626(3)
_cell_length_c                   17.3490(3)
_cell_angle_alpha                102.368(1)
_cell_angle_beta                 96.541(1)
_cell_angle_gamma                96.161(1)
_cell_volume                     4593.44
loop_
_atom_site_label
_atom_site_type_symbol
_atom_site_fract_x
_atom_site_fract_y
_atom_site_fract_z
Na1 Na 0.36269(5) 0.46125(5) 0.37354(5)
Na2 Na 1.11493(5) 0.98629(5) 0.12662(5)
Na3 Na 0.54597(5) 0.60699(5) 0.36347(5)
Na4 Na 0.94978(5) 0.87447(5) 0.15261(5)
Na5 Na 0.19149(5) 0.21904(5) 0.15172(5)
Na6 Na 0.29179(5) 0.25896(5) 0.33242(5)
O1 O 0.30192(11) 0.36162(9) 0.44822(9)
O2 O 0.22335(9) 0.47380(8) 0.30135(9)
O3 O 0.40375(10) 0.57158(10) 0.30193(10)
O4 O 0.35788(10) 0.35360(9) 0.26619(9)
O5 O 0.52291(10) 0.47287(9) 0.37966(10)
O6 O 0.31485(10) 0.16948(9) 0.21037(9)
O7 O 1.26502(9) 1.00377(9) 0.18890(9)
O8 O 0.21903(11) 0.15551(10) 0.02660(9)
O9 O 0.96468(10) 1.00538(9) 0.12904(10)
O10 O 0.57687(9) 0.57173(9) 0.23099(8)
O11 O 0.16648(10) 0.30705(9) 0.27401(9)
O12 O 0.05545(9) 0.71139(9) 0.11199(9)
O13 O 0.91333(9) 0.91601(9) 0.27966(8)
O14 O 0.36713(10) 0.55179(9) 0.49487(9)
O15 O 0.25472(11) 0.34390(10) 0.12223(9)
O16 O 0.23130(10) 0.14025(10) 0.36750(9)
O17 O 0.04433(10) 0.21193(11) 0.09982(10)
O18 O 0.47747(10) 0.66883(9) 0.47298(10)
O19 O 0.19456(10) 0.48707(9) 0.17628(8)
O20 O 1.09119(10) 0.90612(10) 0.22240(10)
N1 N 0.66087(10) 0.61851(10) 0.14850(10)
O21 O 0.13067(10) 0.11661(9) 0.21600(9)
O22 O 0.43714(11) 0.25092(12) 0.37768(11)
O24 O 1.43987(10) 0.78606(9) 0.39533(9)
N2 N 0.83032(10) 0.86674(10) 0.36158(10)
O26 O 1.15044(10) 0.99944(10) 0.00285(9)
N4 N 0.12525(11) 0.61533(10) 0.15551(10)
N5 N 1.36091(11) 0.87282(10) 0.34649(10)
O28 O 1.04365(11) 0.85254(9) 0.05370(10)
N6 N 1.05838(13) 1.01070(12) 0.35954(12)
C1 C 0.73984(12) 0.64060(11) 0.19721(11)
O29 O 1.30242(10) 1.00106(9) 0.31607(9)
C2 C 0.80439(12) 0.68584(11) 0.17037(11)
C3 C 0.88309(13) 0.70649(12) 0.21708(12)
H1 H 0.9273 0.7355 0.1985
C4 C 0.58593(13) 0.59079(12) 0.16704(11)
C5 C 1.33765(12) 0.83456(12) 0.26565(12)
C6 C 0.20470(12) 0.51466(12) 0.25140(12)
C8 C 0.90504(12) 0.89589(12) 0.34306(11)
N8 N 0.43182(13) 0.47730(12) 0.15088(11)
C9 C 0.75157(12) 0.84371(12) 0.31322(11)
C11 C 0.73437(13) 0.86451(12) 0.23986(12)
H3 H 0.7769 0.8951 0.2208
N9 N -0.04726(12) 0.64607(13) -0.03503(13)
C13 C 0.44035(13) 0.52779(12) 0.09772(12)
N10 N 1.55028(12) 0.87387(13) 0.53455(13)
C15 C 0.89840(13) 0.68590(12) 0.28966(12)
H5 H 0.9523 0.7012 0.3210
C16 C 0.15004(12) 0.64890(12) 0.23695(12)
C17 C 0.13377(13) 0.72607(12) 0.27386(13)
H6 H 0.1017 0.7559 0.2441
C18 C 0.22239(13) 0.63792(13) 0.36317(12)
H7 H 0.2515 0.6075 0.3946
C19 C 1.27027(13) 0.83984(13) 0.13561(13)
H8 H 1.2436 0.8688 0.1011
C20 C 0.75573(13) 0.61934(12) 0.27053(12)
H9 H 0.7126 0.5888 0.2889
C21 C 1.40513(12) 0.84833(12) 0.40602(12)
C22 C 1.05042(13) 0.96015(12) 0.41259(12)
C24 C 0.97904(13) 0.85028(13) 0.45841(12)
H10 H 0.9315 0.8107 0.4538
C25 C 1.29805(12) 0.87887(12) 0.21518(12)
C26 C 0.83407(13) 0.64259(12) 0.31632(12)
H11 H 0.8439 0.6288 0.3665
C27 C 0.51302(13) 0.63652(12) 0.05117(12)
H12 H 0.5610 0.6755 0.0556
C28 C 0.65564(13) 0.84075(13) 0.19495(12)
H13 H 0.6449 0.8544 0.1448
C29 C 1.35074(13) 0.75489(12) 0.23420(13)
H14 H 1.3795 0.7258 0.2673
C30 C 0.19276(12) 0.60245(12) 0.28283(11)
C31 C 0.08603(12) 0.64700(12) 0.09816(12)
C32 C 0.97907(12) 0.90213(12) 0.40587(12)
C33 C 1.28758(12) 0.96799(12) 0.24202(13)
C34 C 0.44578(14) 0.63209(13) -0.00739(13)
H15 H 0.4473 0.6680 -0.0423
C35 C 1.48055(13) 0.91505(12) 0.54442(13)
C36 C 0.51226(12) 0.58494(12) 0.10426(11)
C37 C 1.48084(14) 0.97030(13) 0.61728(13)
H16 H 1.5283 0.9787 0.6573
C38 C 0.37615(13) 0.57462(13) -0.01456(13)
H17 H 0.3301 0.5705 -0.0551
C40 C 1.32203(14) 0.71838(13) 0.15536(13)
H19 H 1.3307 0.6641 0.1349
C41 C 0.01678(14) 0.54789(13) -0.12109(13)
H20 H -0.0267 0.5482 -0.1628
C42 C 0.01679(13) 0.59739(12) -0.04529(12)
C43 C 0.16411(14) 0.75893(13) 0.35319(13)
H21 H 0.1532 0.8115 0.3773
C44 C 0.37343(13) 0.52321(13) 0.03702(12)
H22 H 0.3253 0.4840 0.0313
C51 C 1.40925(13) 0.90289(12) 0.48581(12)
C54 C 1.34124(13) 0.94534(12) 0.50358(13)
H28 H 1.2924 0.9362 0.4650
C55 C 0.08251(12) 0.59722(12) 0.01560(12)
C56 C 0.14372(15) 0.49939(13) -0.07722(13)
H29 H 0.1867 0.4663 -0.0879
C57 C 1.34310(14) 0.99968(13) 0.57510(13)
H30 H 1.2965 1.0280 0.5854
C58 C 1.28065(14) 0.75986(13) 0.10565(13)
H31 H 1.2597 0.7339 0.0518
C59 C 1.11754(13) 0.96515(13) 0.47300(13)
H32 H 1.1653 1.0048 0.4787
C60 C 0.21042(14) 0.71617(13) 0.39822(13)
H33 H 0.2335 0.7401 0.4521
C61 C 1.11572(14) 0.91371(14) 0.52437(13)
H34 H 1.1619 0.9183 0.5650
C62 C 0.07830(15) 0.49885(13) -0.13660(13)
H35 H 0.0758 0.4646 -0.1880
C63 C 1.04661(14) 0.85521(14) 0.51704(13)
H36 H 1.0457 0.8191 0.5518
C64 C 1.41419(14) 1.01257(13) 0.63223(13)
H37 H 1.4167 1.0506 0.6815
C65 C 0.14559(14) 0.54843(12) -0.00256(13)
H38 H 0.1909 0.5492 0.0378
O33 O 0.84541(9) 0.76984(9) 0.08466(8)
O34 O 0.73423(9) 0.67540(9) 0.03860(8)
C80 C 0.79342(12) 0.71215(12) 0.09227(11)
C81 C 0.68811(12) 0.79787(11) 0.34118(11)
C82 C 0.59221(13) 0.79717(12) 0.22233(12)
H47 H 0.5380 0.7818 0.1917
C83 C 0.60913(13) 0.77638(12) 0.29494(12)
H48 H 0.5657 0.7466 0.3137
O35 O 0.76043(9) 0.81195(9) 0.47230(8)
O36 O 0.65217(9) 0.71329(9) 0.42777(9)
C84 C 0.70143(12) 0.77200(12) 0.41938(12)
H49 H 0.1808(16) 0.3561(16) 0.2813(15)
H50 H 0.1427(14) 0.5686(14) 0.1412(13)
H51 H 0.0417(16) 0.2601(17) 0.0939(15)
H53 H 0.6628(16) 0.6298(16) 0.1014(16)
H55 H 1.3443(17) 0.9220(17) 0.3569(16)
H56 H 0.8301(17) 0.8570(16) 0.4075(17)
H57 H 0.257(2) 0.383(2) 0.4611(19)
H58 H 0.1608(19) 0.1230(18) 0.2626(19)
H59 H 1.0158(17) 0.8350(17) 0.0045(18)
H60 H 0.369(2) 0.1833(18) 0.2112(17)
H61 H 0.1115(19) 0.3012(17) 0.2812(17)
H62 H 0.2548(18) 0.3345(17) 0.0721(18)
H63 H 0.326(2) 0.5626(18) 0.5182(18)
H64 H 0.2392(19) 0.1561(19) 0.424(2)
H65 H 0.2591(17) 0.1018(17) 0.3556(16)
H66 H 0.273(2) 0.143(2) 0.0246(19)
H67 H 0.2368(18) 0.3894(19) 0.1358(17)
H68 H 1.0535(19) 0.802(2) 0.0610(18)
H69 H 0.969(2) 1.054(2) 0.1630(19)
H70 H 0.507(2) 0.692(2) 0.524(2)
H71 H 0.086(2) 0.1339(18) 0.2263(17)
H72 H 0.312(2) 0.3372(19) 0.4853(19)
H73 H 0.4614(19) 0.7083(19) 0.4544(18)
H74 H 0.445(2) 0.208(2) 0.394(2)
H75 H 0.560(2) 0.4688(19) 0.4203(19)
H76 H 1.092(2) 0.943(2) 0.269(2)
H77 H 0.4035(19) 0.5442(19) 0.2514(19)
H78 H 0.395(2) 0.602(2) 0.492(2)
H79 H 0.302(2) 0.115(2) 0.204(2)
H80 H 0.528(2) 0.431(2) 0.339(2)
H81 H 0.3316(19) 0.3491(18) 0.2223(19)
H82 H 0.363(2) 0.597(2) 0.2950(19)
H83 H 1.133(2) 0.879(2) 0.227(2)
H84 H 0.018(2) 0.211(2) 0.142(2)
H85 H 1.190(2) 0.9705(19) -0.0123(18)
H86 H 0.410(2) 0.3435(19) 0.2598(18)
H87 H 0.201(2) 0.183(2) -0.010(2)
H88 H 0.465(2) 0.254(2) 0.342(2)
H89 H 0.932(2) 1.012(2) 0.084(2)
H91 H 0.4801(17) 0.4667(15) 0.1731(15)
H92 H 1.0945(17) 1.0545(17) 0.3779(15)
H94 H 1.5506(17) 0.8483(17) 0.4853(17)
H95 H -0.096(2) 0.6216(19) -0.0589(19)
H96 H 1.596(2) 0.9043(18) 0.5567(17)
H97 H -0.0517(17) 0.6680(17) 0.0156(18)
H98 H 0.3953(19) 0.4323(18) 0.1310(17)
H99 H 1.0103(19) 1.0214(18) 0.3344(18)
H102 H 1.177(3) 1.063(3) 0.017(3)
O21_2 O 1.13067(10) 1.11661(9) 0.21600(9)
Na2_2 Na 0.11493(5) -0.01371(5) 0.12662(5)
H58_2 H 1.1608(19) 1.1230(18) 0.2626(19)
H71_2 H 1.086(2) 1.1339(18) 0.2263(17)
O23 O -0.00769(9) 0.28630(9) 0.29987(10)
N3 N -0.13639(11) 0.33900(10) 0.36658(10)
O25 O -0.22521(10) 0.40255(9) 0.44414(10)
O27 O -0.02481(10) 0.16144(9) 0.22592(10)
N7 N -0.15595(12) 0.54772(12) 0.54385(11)
C7 C -0.25953(13) 0.23724(13) 0.35843(13)
H2 H -0.2877 0.2768 0.3884
C10 C -0.16072(13) 0.40515(12) 0.41125(12)
C12 C -0.04262(13) 0.61672(13) 0.49570(13)
H4 H -0.0407 0.6608 0.5402
C14 C -0.10150(12) 0.54734(12) 0.48673(12)
C23 C -0.13702(13) 0.19997(12) 0.29633(11)
C39 C -0.25903(14) 0.09950(13) 0.28728(13)
H18 H -0.2863 0.0454 0.2689
C45 C -0.10356(12) 0.48224(12) 0.42055(12)
C46 C 0.01242(14) 0.62219(14) 0.44119(14)
H23 H 0.0527 0.6691 0.4491
C47 C -0.17846(12) 0.25911(12) 0.34170(11)
C48 C -0.04856(13) 0.49036(13) 0.36469(12)
H24 H -0.0510 0.4475 0.3190
C49 C -0.17867(13) 0.12105(13) 0.27029(12)
H25 H -0.1514 0.0809 0.2401
C50 C 0.00892(13) 0.55887(13) 0.37445(13)
H26 H 0.0458 0.5629 0.3361
C52 C -0.05078(13) 0.21769(13) 0.27333(12)
C53 C -0.29870(14) 0.15846(13) 0.33157(13)
H27 H -0.3536 0.1443 0.3435
H52 H -0.0848(17) 0.3427(15) 0.3497(15)
H93 H -0.1854(17) 0.4990(17) 0.5454(16)
H100 H -0.134(2) 0.5768(19) 0.593(2)
O30 O 0.71271(10) 0.07850(9) 0.04946(9)
N11 N 0.63322(13) -0.06987(13) -0.04357(12)
O31 O 0.50063(10) 0.20285(10) 0.19685(11)
N12 N 0.62769(11) 0.14743(11) 0.12807(10)
C66 C 0.58445(13) -0.06423(13) 0.01817(12)
C67 C 0.65023(13) 0.07917(13) 0.08511(12)
C68 C 0.66947(13) 0.22714(12) 0.14872(12)
C69 C 0.54237(13) 0.00068(14) 0.14307(13)
H39 H 0.5487 0.0456 0.1874
C70 C 0.74945(14) 0.24770(13) 0.12892(13)
H40 H 0.7764 0.2074 0.0985
C71 C 0.59234(13) 0.00405(13) 0.08211(12)
C72 C 0.54345(14) 0.27170(15) 0.21873(12)
O32 O 0.51792(11) 0.32928(13) 0.26278(14)
C73 C 0.78916(15) 0.32649(14) 0.15349(14)
H41 H 0.8434 0.3398 0.1398
C74 C 0.48462(14) -0.06563(14) 0.14053(15)
H42 H 0.4513 -0.0662 0.1822
C75 C 0.47569(14) -0.13189(15) 0.07601(15)
H43 H 0.4350 -0.1775 0.0729
C76 C 0.67191(15) 0.36652(14) 0.21692(13)
H44 H 0.6456 0.4076 0.2470
C77 C 0.62945(13) 0.28767(13) 0.19335(12)
C78 C 0.52536(14) -0.13167(14) 0.01690(14)
H45 H 0.5198 -0.1781 -0.0258
C79 C 0.75100(15) 0.38662(14) 0.19782(14)
H46 H 0.7788 0.4406 0.2147
H54 H 0.5796(17) 0.1442(15) 0.1459(15)
H90 H 0.6661(15) -0.0227(15) -0.0466(13)
H101 H 0.6043(19) -0.0986(18) -0.0866(19)
loop_
_geom_bond_atom_site_label_1
_geom_bond_atom_site_label_2
_geom_bond_site_symmetry_1
_geom_bond_site_symmetry_2
Na1 O1 1_555 1_555
Na2 O7 1_555 1_555
Na3 O3 1_555 1_555
Na4 O9 1_555 1_555
Na5 O6 1_555 1_555
Na6 O1 1_555 1_555
O1 H57 1_555 1_555
O2 Na1 1_555 1_555
O3 Na1 1_555 1_555
O4 Na1 1_555 1_555
O5 Na1 1_555 1_555
O6 Na6 1_555 1_555
O7 C33 1_555 1_555
O8 Na5 1_555 1_555
O9 Na2 1_555 1_555
O10 Na3 1_555 1_555
O11 Na5 1_555 1_555
O12 C31 1_555 1_555
O13 Na4 1_555 1_555
O14 Na1 1_555 1_555
O15 Na5 1_555 1_555
O16 Na6 1_555 1_555
O17 Na5 1_555 1_555
O18 Na3 1_555 1_555
O19 C6 1_555 1_555
O20 Na2 1_555 1_555
N1 C1 1_555 1_555
O21 Na5 1_555 1_555
O22 Na6 1_555 1_555
O23 C52 1_555 1_555
O24 C21 1_555 1_555
N2 C8 1_555 1_555
N3 C10 1_555 1_555
O25 C10 1_555 1_555
O26 Na2 1_555 1_555
N4 C16 1_555 1_555
N5 C5 1_555 1_555
O27 C52 1_555 1_555
O28 Na2 1_555 1_555
N6 C22 1_555 1_555
C1 C2 1_555 1_555
O29 C33 1_555 1_555
C2 C3 1_555 1_555
C3 H1 1_555 1_555
C4 O10 1_555 1_555
N7 C14 1_555 1_555
C5 C25 1_555 1_555
C6 O2 1_555 1_555
C7 H2 1_555 1_555
C8 O13 1_555 1_555
N8 C13 1_555 1_555
C9 N2 1_555 1_555
C10 C45 1_555 1_555
C11 C9 1_555 1_555
H3 C11 1_555 1_555
C12 H4 1_555 1_555
N9 C42 1_555 1_555
C13 C36 1_555 1_555
C14 C12 1_555 1_555
N10 C35 1_555 1_555
C15 C3 1_555 1_555
H5 C15 1_555 1_555
C16 C17 1_555 1_555
C17 H6 1_555 1_555
C18 H7 1_555 1_555
C19 H8 1_555 1_555
C20 C1 1_555 1_555
H9 C20 1_555 1_555
C21 N5 1_555 1_555
C22 C32 1_555 1_555
C23 C47 1_555 1_555
C24 H10 1_555 1_555
C25 C19 1_555 1_555
C26 C15 1_555 1_555
H11 C26 1_555 1_555
C27 H12 1_555 1_555
C28 C11 1_555 1_555
H13 C28 1_555 1_555
C29 C5 1_555 1_555
H14 C29 1_555 1_555
C30 C6 1_555 1_555
C31 N4 1_555 1_555
C32 C8 1_555 1_555
C33 C25 1_555 1_555
C34 C27 1_555 1_555
H15 C34 1_555 1_555
C35 C37 1_555 1_555
C36 C4 1_555 1_555
C37 H16 1_555 1_555
C38 C34 1_555 1_555
H17 C38 1_555 1_555
C39 H18 1_555 1_555
C40 C29 1_555 1_555
H19 C40 1_555 1_555
C41 H20 1_555 1_555
C42 C41 1_555 1_555
C43 C17 1_555 1_555
H21 C43 1_555 1_555
C44 C13 1_555 1_555
H22 C44 1_555 1_555
C45 C14 1_555 1_555
C46 C12 1_555 1_555
H23 C46 1_555 1_555
C47 N3 1_555 1_555
C48 C45 1_555 1_555
H24 C48 1_555 1_555
C49 C23 1_555 1_555
H25 C49 1_555 1_555
C50 C46 1_555 1_555
H26 C50 1_555 1_555
C51 C21 1_555 1_555
C52 C23 1_555 1_555
C53 C7 1_555 1_555
H27 C53 1_555 1_555
C54 C51 1_555 1_555
H28 C54 1_555 1_555
C55 C31 1_555 1_555
C56 H29 1_555 1_555
C57 C54 1_555 1_555
H30 C57 1_555 1_555
C58 C19 1_555 1_555
H31 C58 1_555 1_555
C59 C22 1_555 1_555
H32 C59 1_555 1_555
C60 C18 1_555 1_555
H33 C60 1_555 1_555
C61 C59 1_555 1_555
H34 C61 1_555 1_555
C62 C41 1_555 1_555
H35 C62 1_555 1_555
C63 C24 1_555 1_555
H36 C63 1_555 1_555
C64 C37 1_555 1_555
H37 C64 1_555 1_555
C65 C55 1_555 1_555
H38 C65 1_555 1_555
O30 C67 1_555 1_555
N11 C66 1_555 1_555
O31 C72 1_555 1_555
N12 C67 1_555 1_555
C66 C71 1_555 1_555
C67 C71 1_555 1_555
C68 N12 1_555 1_555
C69 H39 1_555 1_555
C70 C68 1_555 1_555
H40 C70 1_555 1_555
C71 C69 1_555 1_555
C72 O32 1_555 1_555
C73 C70 1_555 1_555
H41 C73 1_555 1_555
C74 C69 1_555 1_555
H42 C74 1_555 1_555
C75 C74 1_555 1_555
H43 C75 1_555 1_555
C76 H44 1_555 1_555
C77 C68 1_555 1_555
C78 C66 1_555 1_555
H45 C78 1_555 1_555
C79 C73 1_555 1_555
H46 C79 1_555 1_555
O33 Na4 1_555 1_555
O34 C80 1_555 1_555
C80 C2 1_555 1_555
C81 C9 1_555 1_555
C82 C28 1_555 1_555
H47 C82 1_555 1_555
C83 C81 1_555 1_555
H48 C83 1_555 1_555
O35 C84 1_555 1_555
O36 Na3 1_555 1_555
C84 C81 1_555 1_555
H49 O11 1_555 1_555
H50 N4 1_555 1_555
H51 O17 1_555 1_555
H52 N3 1_555 1_555
H53 N1 1_555 1_555
H54 N12 1_555 1_555
H55 N5 1_555 1_555
H56 N2 1_555 1_555
H58 O21 1_555 1_555
H59 O28 1_555 1_555
H60 O6 1_555 1_555
H61 O11 1_555 1_555
H62 O15 1_555 1_555
H63 O14 1_555 1_555
H64 O16 1_555 1_555
H65 O16 1_555 1_555
H66 O8 1_555 1_555
H67 O15 1_555 1_555
H68 O28 1_555 1_555
H69 O9 1_555 1_555
H70 O18 1_555 1_555
H71 O21 1_555 1_555
H72 O1 1_555 1_555
H73 O18 1_555 1_555
H74 O22 1_555 1_555
H75 O5 1_555 1_555
H76 O20 1_555 1_555
H77 O3 1_555 1_555
H78 O14 1_555 1_555
H79 O6 1_555 1_555
H80 O5 1_555 1_555
H81 O4 1_555 1_555
H82 O3 1_555 1_555
H83 O20 1_555 1_555
H84 O17 1_555 1_555
H85 O26 1_555 1_555
H86 O4 1_555 1_555
H87 O8 1_555 1_555
H88 O22 1_555 1_555
H89 O9 1_555 1_555
H90 N11 1_555 1_555
H91 N8 1_555 1_555
H92 N6 1_555 1_555
H93 N7 1_555 1_555
H94 N10 1_555 1_555
H95 N9 1_555 1_555
H96 N10 1_555 1_555
H97 N9 1_555 1_555
H98 N8 1_555 1_555
H99 N6 1_555 1_555
H100 N7 1_555 1_555
H101 N11 1_555 1_555
H102 O26 1_555 1_555
O21_2 Na2 1_555 1_555
Na2_2 O21 1_555 1_555
H58_2 O21_2 1_555 1_555
H71_2 O21_2 1_555 1_555
Na3 O5 1_555 1_555
Na4 O20 1_555 1_555
Na4 O28 1_555 1_555
Na6 O4 1_555 1_555
Na6 O11 1_555 1_555
N1 C4 1_555 1_555
C7 C47 1_555 1_555
C16 C30 1_555 1_555
C18 C30 1_555 1_555
C20 C26 1_555 1_555
C24 C32 1_555 1_555
C27 C36 1_555 1_555
C35 C51 1_555 1_555
C38 C44 1_555 1_555
C39 C53 1_555 1_555
C39 C49 1_555 1_555
C40 C58 1_555 1_555
C42 C55 1_555 1_555
C43 C60 1_555 1_555
C48 C50 1_555 1_555
C56 C62 1_555 1_555
C56 C65 1_555 1_555
C57 C64 1_555 1_555
C61 C63 1_555 1_555
C72 C77 1_555 1_555
C75 C78 1_555 1_555
C76 C79 1_555 1_555
C76 C77 1_555 1_555
O33 C80 1_555 1_555
C82 C83 1_555 1_555
O36 C84 1_555 1_555

#END
