
#######################################################################
#
#                 Cambridge Crystallographic Data Centre
#                                CCDC 
#
#######################################################################
#
# If this CIF has been generated from an entry in the Cambridge 
# Structural Database, then it will include bibliographic, chemical, 
# crystal, experimental, refinement or atomic coordinate data resulting 
# from the CCDC's data processing and validation procedures.
#
#######################################################################

data_ASUQIO04
_symmetry_cell_setting           orthorhombic
_symmetry_space_group_name_H-M   'I b a 2'
_symmetry_Int_Tables_number      45
_space_group_name_Hall           'I 2 -2c'
loop_
_symmetry_equiv_pos_site_id
_symmetry_equiv_pos_as_xyz
1 x,y,z
2 -x,-y,z
3 1/2+x,1/2-y,z
4 1/2-x,1/2+y,z
5 1/2+x,1/2+y,1/2+z
6 1/2-x,1/2-y,1/2+z
7 x,-y,1/2+z
8 -x,y,1/2+z
_cell_length_a                   8.0423(7)
_cell_length_b                   11.5310(10)
_cell_length_c                   17.3505(16)
_cell_angle_alpha                90
_cell_angle_beta                 90
_cell_angle_gamma                90
_cell_volume                     1609.01
loop_
_atom_site_label
_atom_site_type_symbol
_atom_site_fract_x
_atom_site_fract_y
_atom_site_fract_z
Cu1 Cu 0.81814(5) 0.41603(3) 0.79292(2)
N1 N 0.9289(4) 0.4651(3) 0.69132(17)
N2 N 1.0000 0.5000 0.5685(3)
N3 N 0.7851(4) 0.4253(2) 0.33204(19)
N4 N 0.8710(3) 0.3803(3) 0.39367(19)
N5 N 0.7533(4) 0.2341(2) 0.32957(18)
C1 C 0.8904(4) 0.4494(3) 0.6178(2)
C2 C 0.7389(5) 0.3867(4) 0.5921(3)
H1 H 0.6986 0.3387 0.6332
H2 H 0.6548 0.4418 0.5779
H3 H 0.7655 0.3392 0.5484
C3 C 0.7169(3) 0.3360(3) 0.2953(3)
C4 C 0.8491(4) 0.2657(3) 0.3911(2)
C5 C 0.6118(5) 0.3476(4) 0.2258(2)
H4 H 0.5291 0.4062 0.2344
H5 H 0.5582 0.2749 0.2153
H6 H 0.6798 0.3691 0.1827
C6 C 0.9212(5) 0.1826(3) 0.4469(3)
H7 H 0.9801 0.2243 0.4862
H8 H 0.9966 0.1316 0.4206
H9 H 0.8337 0.1379 0.4700
Cu2 Cu 1.0000 0.5000 0.45514(4)
Cu1A Cu 1.18186(5) 0.58397(3) 0.79292(2)
Cu1F Cu 0.81814(5) 0.58397(3) 0.29292(2)
Cu1E Cu 0.68186(5) 0.08397(3) 0.29292(2)
Cu1G Cu 1.18186(5) 0.41603(3) 0.29292(2)
Cu1D Cu 1.31814(5) 0.91603(3) 0.29292(2)
N1A N 1.0711(4) 0.5349(3) 0.69132(17)
N3A N 1.2149(4) 0.5747(2) 0.33204(19)
N3F N 0.7851(4) 0.5747(2) 0.83204(19)
N3G N 1.2149(4) 0.4253(2) 0.83204(19)
N4A N 1.1290(3) 0.6197(3) 0.39367(19)
N5A N 1.2467(4) 0.7659(2) 0.32957(18)
N5E N 0.7467(4) 0.2659(2) 0.82957(18)
N5D N 1.2533(4) 0.7341(2) 0.82957(18)
C1A C 1.1096(4) 0.5506(3) 0.6178(2)
C2A C 1.2611(5) 0.6133(4) 0.5921(3)
H1A H 1.3014 0.6613 0.6332
H2A H 1.3452 0.5582 0.5779
H3A H 1.2345 0.6608 0.5484
C3A C 1.2831(3) 0.6640(3) 0.2953(3)
C4A C 1.1509(4) 0.7343(3) 0.3911(2)
C5A C 1.3882(5) 0.6524(4) 0.2258(2)
H4A H 1.4709 0.5938 0.2344
H5A H 1.4418 0.7251 0.2153
H6A H 1.3202 0.6309 0.1827
C6A C 1.0788(5) 0.8174(3) 0.4469(3)
H7A H 1.0199 0.7757 0.4862
H8A H 1.0034 0.8684 0.4206
H9A H 1.1663 0.8621 0.4700
loop_
_geom_bond_atom_site_label_1
_geom_bond_atom_site_label_2
_geom_bond_site_symmetry_1
_geom_bond_site_symmetry_2
Cu1 N1 1_555 1_555
N1 C1 1_555 1_555
N2 C1 1_555 1_555
N3 N4 1_555 1_555
N4 C4 1_555 1_555
N5 C3 1_555 1_555
C1 C2 1_555 1_555
C2 H1 1_555 1_555
H2 C2 1_555 1_555
H3 C2 1_555 1_555
C3 N3 1_555 1_555
C4 N5 1_555 1_555
C5 C3 1_555 1_555
H4 C5 1_555 1_555
H5 C5 1_555 1_555
H6 C5 1_555 1_555
C6 C4 1_555 1_555
H7 C6 1_555 1_555
H8 C6 1_555 1_555
H9 C6 1_555 1_555
Cu2 N2 1_555 1_555
Cu1A N1A 1_555 1_555
Cu1F N3 1_555 1_555
Cu1E N5 1_555 1_555
Cu1G N3A 1_555 1_555
Cu1D N5A 1_555 1_555
N1A N1 1_555 1_555
N3A N4A 1_555 1_555
N3F Cu1 1_555 1_555
N3G Cu1A 1_555 1_555
N4A Cu2 1_555 1_555
N5A C3A 1_555 1_555
N5E Cu1 1_555 1_555
N5D Cu1A 1_555 1_555
C1A N2 1_555 1_555
C2A C1A 1_555 1_555
H1A C2A 1_555 1_555
H2A C2A 1_555 1_555
H3A C2A 1_555 1_555
C3A N3A 1_555 1_555
C4A N4A 1_555 1_555
C5A C3A 1_555 1_555
H4A C5A 1_555 1_555
H5A C5A 1_555 1_555
H6A C5A 1_555 1_555
C6A C4A 1_555 1_555
H7A C6A 1_555 1_555
H8A C6A 1_555 1_555
H9A C6A 1_555 1_555
N4 Cu2 1_555 1_555
N1A C1A 1_555 1_555
N5A C4A 1_555 1_555

#END
