
#######################################################################
#
#                 Cambridge Crystallographic Data Centre
#                                CCDC 
#
#######################################################################
#
# If this CIF has been generated from an entry in the Cambridge 
# Structural Database, then it will include bibliographic, chemical, 
# crystal, experimental, refinement or atomic coordinate data resulting 
# from the CCDC's data processing and validation procedures.
#
#######################################################################

data_ASUQIO03
_symmetry_cell_setting           tetragonal
_symmetry_space_group_name_H-M   'I -4 2 d'
_symmetry_Int_Tables_number      122
_space_group_name_Hall           'I -4 2bw'
loop_
_symmetry_equiv_pos_site_id
_symmetry_equiv_pos_as_xyz
1 x,y,z
2 -x,-y,z
3 y,-x,-z
4 -y,x,-z
5 1/2-x,y,3/4-z
6 1/2+x,-y,3/4-z
7 1/2-y,-x,3/4+z
8 1/2+y,x,3/4+z
9 1/2+x,1/2+y,1/2+z
10 1/2-x,1/2-y,1/2+z
11 1/2+y,1/2-x,1/2-z
12 1/2-y,1/2+x,1/2-z
13 -x,1/2+y,1/4-z
14 x,1/2-y,1/4-z
15 -y,1/2-x,1/4+z
16 y,1/2+x,1/4+z
_cell_length_a                   14.0247(5)
_cell_length_b                   14.0247(5)
_cell_length_c                   5.2884(4)
_cell_angle_alpha                90
_cell_angle_beta                 90
_cell_angle_gamma                90
_cell_volume                     1040.19
loop_
_atom_site_label
_atom_site_type_symbol
_atom_site_fract_x
_atom_site_fract_y
_atom_site_fract_z
C1 C 0.45676(15) 0.79771(14) 0.2801(5)
C2 C 0.48668(18) 0.86177(16) 0.4904(5)
H1 H 0.4313 0.8836 0.5801
H2 H 0.5204 0.9155 0.4225
H3 H 0.5276 0.8275 0.6041
N1 N 0.36599(13) 0.78093(13) 0.2273(4)
N2 N 0.51715(16) 0.7500 0.1250
Cu1 Cu 0.2500 0.83515(3) 0.3750
C1M C 0.45676(15) 0.70229(14) -0.0301(5)
C2M C 0.48668(18) 0.63823(16) -0.2404(5)
H1M H 0.4313 0.6164 -0.3301
H2M H 0.5204 0.5845 -0.1725
H3M H 0.5276 0.6725 -0.3541
N1M N 0.36599(13) 0.71907(13) 0.0227(4)
N1D N 0.13401(13) 0.78093(13) 0.5227(4)
N2J N 0.2500 0.98285(16) 0.3750
Cu1F Cu 0.66485(3) 0.7500 0.1250
Cu1I Cu 0.2500 0.66485(3) -0.1250
loop_
_geom_bond_atom_site_label_1
_geom_bond_atom_site_label_2
_geom_bond_site_symmetry_1
_geom_bond_site_symmetry_2
C1 C2 1_555 1_555
C2 H1 1_555 1_555
H2 C2 1_555 1_555
H3 C2 1_555 1_555
N1 C1 1_555 1_555
N2 C1 1_555 1_555
Cu1 N1 1_555 1_555
C1M N2 1_555 1_555
C2M C1M 1_555 1_555
H1M C2M 1_555 1_555
H2M C2M 1_555 1_555
H3M C2M 1_555 1_555
N1M N1 1_555 1_555
N1D Cu1 1_555 1_555
N2J Cu1 1_555 1_555
Cu1F N2 1_555 1_555
Cu1I N1M 1_555 1_555
C1M N1M 1_555 1_555

#END
