
#######################################################################
#
#                 Cambridge Crystallographic Data Centre
#                                CCDC 
#
#######################################################################
#
# If this CIF has been generated from an entry in the Cambridge 
# Structural Database, then it will include bibliographic, chemical, 
# crystal, experimental, refinement or atomic coordinate data resulting 
# from the CCDC's data processing and validation procedures.
#
#######################################################################

data_ASUQIO
_symmetry_cell_setting           tetragonal
_symmetry_space_group_name_H-M   'P 42/n'
_symmetry_Int_Tables_number      86
_space_group_name_Hall           '-P 4bc'
loop_
_symmetry_equiv_pos_site_id
_symmetry_equiv_pos_as_xyz
1 x,y,z
2 -y,1/2+x,1/2+z
3 1/2+y,-x,1/2+z
4 1/2-x,1/2-y,z
5 -x,-y,-z
6 y,1/2-x,1/2-z
7 1/2-y,x,1/2-z
8 1/2+x,1/2+y,-z
_cell_length_a                   13.470(2)
_cell_length_b                   13.470(2)
_cell_length_c                   6.142(2)
_cell_angle_alpha                90
_cell_angle_beta                 90
_cell_angle_gamma                90
_cell_volume                     1114.41
loop_
_atom_site_label
_atom_site_type_symbol
_atom_site_fract_x
_atom_site_fract_y
_atom_site_fract_z
Cu1 Cu 0.600582(15) 0.474451(15) 0.17132(4)
N1 N 0.73504(10) 0.48678(10) 0.2975(2)
N2 N 0.86935(10) 0.46553(10) 0.5039(2)
N3 N 0.89447(10) 0.52839(10) 0.3328(2)
C1 C 0.77407(12) 0.44388(12) 0.4771(3)
C2 C 0.81247(12) 0.53918(12) 0.2145(3)
C3 C 0.71562(17) 0.38337(15) 0.6326(4)
H1 H 0.7582 0.3603 0.7473
H2 H 0.6875 0.3275 0.5579
H3 H 0.6633 0.4231 0.6933
C4 C 0.80632(16) 0.60099(16) 0.0137(4)
H4 H 0.8697 0.6311 -0.0140
H5 H 0.7572 0.6518 0.0332
H6 H 0.7882 0.5598 -0.1075
Cu1B Cu 0.974451(15) 0.399418(15) 0.67132(4)
Cu1F Cu 1.025549(15) 0.600582(15) 0.32868(4)
N2A N 0.53447(10) 0.36935(10) 0.0039(2)
N3E N 0.52839(10) 0.60553(10) 0.1672(2)
loop_
_geom_bond_atom_site_label_1
_geom_bond_atom_site_label_2
_geom_bond_site_symmetry_1
_geom_bond_site_symmetry_2
Cu1 N1 1_555 1_555
N1 C1 1_555 1_555
N2 N3 1_555 1_555
N3 C2 1_555 1_555
C1 N2 1_555 1_555
C2 N1 1_555 1_555
C3 C1 1_555 1_555
H1 C3 1_555 1_555
H2 C3 1_555 1_555
H3 C3 1_555 1_555
C4 C2 1_555 1_555
H4 C4 1_555 1_555
H5 C4 1_555 1_555
H6 C4 1_555 1_555
Cu1B N2 1_555 1_555
Cu1F N3 1_555 1_555
N2A Cu1 1_555 1_555
N3E Cu1 1_555 1_555

#END
