
#######################################################################
#
#                 Cambridge Crystallographic Data Centre
#                                CCDC 
#
#######################################################################
#
# If this CIF has been generated from an entry in the Cambridge 
# Structural Database, then it will include bibliographic, chemical, 
# crystal, experimental, refinement or atomic coordinate data resulting 
# from the CCDC's data processing and validation procedures.
#
#######################################################################

data_ATADUU
_symmetry_cell_setting           monoclinic
_symmetry_space_group_name_H-M   'C 2/c'
_symmetry_Int_Tables_number      15
_space_group_name_Hall           '-C 2yn'
loop_
_symmetry_equiv_pos_site_id
_symmetry_equiv_pos_as_xyz
1 x,y,z
2 1/2+x,1/2+y,z
3 -x,y,1/2-z
4 1/2-x,1/2+y,1/2-z
5 -x,-y,-z
6 1/2-x,1/2-y,-z
7 x,-y,1/2+z
8 1/2+x,1/2-y,1/2+z
_cell_length_a                   19.337(4)
_cell_length_b                   11.491(2)
_cell_length_c                   13.042(3)
_cell_angle_alpha                90
_cell_angle_beta                 106.397(3)
_cell_angle_gamma                90
_cell_volume                     2780.09
loop_
_atom_site_label
_atom_site_type_symbol
_atom_site_fract_x
_atom_site_fract_y
_atom_site_fract_z
Ca1 Ca 0.133740(13) 1.39600(2) 0.02441(2)
Ca2 Ca 0.2500 0.7500 0.0000
O1 O 0.03293(5) 1.29751(9) -0.07459(9)
O2 O -0.08141(5) 1.30367(8) -0.17265(8)
O3 O 0.16894(5) 0.92452(10) -0.05900(11)
O4 O 0.11109(6) 0.76308(9) -0.06548(12)
O5 O -0.15571(5) 0.76329(8) -0.14594(8)
O6 O -0.21838(5) 0.92574(8) -0.19438(8)
O7 O 0.17200(5) 1.32582(9) -0.12588(8)
O8 O 0.19161(5) 0.60782(9) 0.09558(8)
O9 O 0.07865(6) 1.46524(9) 0.16143(9)
O10 O 0.07392(6) 1.54453(10) -0.09911(11)
O11 O 0.25985(5) 1.39090(9) 0.09282(10)
O12 O 0.26912(6) 0.85319(10) 0.16270(9)
C1 C -0.02491(7) 1.11840(11) -0.13414(10)
C2 C 0.03986(6) 1.05663(11) -0.10901(10)
C3 C 0.04022(6) 0.93580(11) -0.10899(10)
C4 C -0.02498(7) 0.87578(11) -0.13046(10)
C5 C -0.09020(6) 0.93635(11) -0.15374(10)
C6 C -0.08989(6) 1.05740(11) -0.15863(10)
C7 C -0.02370(7) 1.24889(11) -0.12658(10)
C8 C 0.11081(7) 0.87031(12) -0.07733(11)
C9 C -0.15944(7) 0.87047(11) -0.16567(10)
H1 H 0.0825 1.0987 -0.0930
H2 H -0.0242 0.7907 -0.1261
H3 H -0.1322 1.0990 -0.1716
H4 H 0.2065 1.3570 -0.1458
H5 H 0.1391 1.3148 -0.1869
H6 H 0.2213 0.5980 0.1599
H7 H 0.1579 0.6498 0.1175
H8 H 0.0761 1.5437 0.1692
H9 H 0.0893 1.4399 0.2376
H10 H 0.0240 1.5382 -0.1156
H11 H 0.0842 1.6222 -0.0876
H12 H 0.2863 1.3212 0.1045
H13 H 0.2904 1.4467 0.0870
H14 H 0.2495 0.9205 0.1720
H15 H 0.2886 0.8246 0.2289
O1E O 0.46707(5) 0.20249(9) 0.07459(9)
O2E O 0.58141(5) 0.19633(8) 0.17265(8)
O3E O 0.33106(5) 0.57548(10) 0.05900(11)
O4E O 0.38891(6) 0.73692(9) 0.06548(12)
O5E O 0.65571(5) 0.73671(8) 0.14594(8)
O6E O 0.71838(5) 0.57426(8) 0.19438(8)
C1E C 0.52491(7) 0.38160(11) 0.13414(10)
C2E C 0.46014(6) 0.44337(11) 0.10901(10)
C3E C 0.45978(6) 0.56420(11) 0.10899(10)
C4E C 0.52498(7) 0.62422(11) 0.13046(10)
C5E C 0.59020(6) 0.56365(11) 0.15374(10)
C6E C 0.58989(6) 0.44260(11) 0.15863(10)
C7E C 0.52370(7) 0.25111(11) 0.12658(10)
C8E C 0.38919(7) 0.62969(12) 0.07733(11)
C9E C 0.65944(7) 0.62953(11) 0.16567(10)
H1E H 0.4175 0.4013 0.0930
H2E H 0.5242 0.7093 0.1261
H3E H 0.6322 0.4010 0.1716
O8E O 0.30839(5) 0.89218(9) -0.09558(8)
H6E H 0.2787 0.9020 -0.1599
H7E H 0.3421 0.8502 -0.1175
O12E O 0.23088(6) 0.64681(10) -0.16270(9)
H14E H 0.2505 0.5795 -0.1720
H15E H 0.2114 0.6754 -0.2289
Ca1E Ca 0.366260(13) 0.10400(2) -0.02441(2)
O7E O 0.32800(5) 0.17418(9) 0.12588(8)
H4E H 0.2935 0.1430 0.1458
H5E H 0.3609 0.1852 0.1869
O9E O 0.42135(6) 0.03476(9) -0.16143(9)
H8E H 0.4239 -0.0437 -0.1692
H9E H 0.4107 0.0601 -0.2376
O10E O 0.42608(6) -0.04453(10) 0.09911(11)
H10E H 0.4760 -0.0382 0.1156
H11E H 0.4158 -0.1222 0.0876
O11E O 0.24015(5) 0.10910(9) -0.09282(10)
H12E H 0.2137 0.1788 -0.1045
H13E H 0.2096 0.0533 -0.0870
O5D O 0.15571(5) 1.23671(8) 0.14594(8)
O8_2 O 0.19161(5) 1.60782(9) 0.09558(8)
Ca1D Ca -0.133740(13) 0.60400(2) -0.02441(2)
Ca1_2 Ca 0.133740(13) 0.39600(2) 0.02441(2)
Ca1A Ca 0.633740(13) 0.89600(2) 0.02441(2)
Ca1E_2 Ca 0.366260(13) 1.10400(2) -0.02441(2)
O5A O 0.34429(5) 0.26329(8) -0.14594(8)
O8E_2 O 0.30839(5) -0.10782(9) -0.09558(8)
H6_2 H 0.2213 1.5980 0.1599
H7_2 H 0.1579 1.6498 0.1175
H6E_2 H 0.2787 -0.0980 -0.1599
H7E_2 H 0.3421 -0.1498 -0.1175
loop_
_geom_bond_atom_site_label_1
_geom_bond_atom_site_label_2
_geom_bond_site_symmetry_1
_geom_bond_site_symmetry_2
Ca1 O1 1_555 1_555
Ca2 O3 1_555 1_555
O1 C7 1_555 1_555
O2 C7 1_555 1_555
O3 C8 1_555 1_555
O4 Ca2 1_555 1_555
O5 C9 1_555 1_555
O6 C9 1_555 1_555
O7 Ca1 1_555 1_555
O8 Ca2 1_555 1_555
O9 Ca1 1_555 1_555
O10 Ca1 1_555 1_555
O11 Ca1 1_555 1_555
O12 Ca2 1_555 1_555
C1 C2 1_555 1_555
C2 C3 1_555 1_555
C3 C4 1_555 1_555
C4 C5 1_555 1_555
C5 C6 1_555 1_555
C6 C1 1_555 1_555
C7 C1 1_555 1_555
C8 O4 1_555 1_555
C9 C5 1_555 1_555
H1 C2 1_555 1_555
H2 C4 1_555 1_555
H3 C6 1_555 1_555
H4 O7 1_555 1_555
H5 O7 1_555 1_555
H6 O8 1_555 1_555
H7 O8 1_555 1_555
H8 O9 1_555 1_555
H9 O9 1_555 1_555
H10 O10 1_555 1_555
H11 O10 1_555 1_555
H12 O11 1_555 1_555
H13 O11 1_555 1_555
H14 O12 1_555 1_555
H15 O12 1_555 1_555
O1E C7E 1_555 1_555
O2E C7E 1_555 1_555
O3E Ca2 1_555 1_555
O4E Ca2 1_555 1_555
O5E C9E 1_555 1_555
O6E C9E 1_555 1_555
C1E C2E 1_555 1_555
C2E C3E 1_555 1_555
C3E C4E 1_555 1_555
C4E C5E 1_555 1_555
C5E C6E 1_555 1_555
C6E C1E 1_555 1_555
C7E C1E 1_555 1_555
C8E O3E 1_555 1_555
C9E C5E 1_555 1_555
H1E C2E 1_555 1_555
H2E C4E 1_555 1_555
H3E C6E 1_555 1_555
O8E Ca2 1_555 1_555
H6E O8E 1_555 1_555
H7E O8E 1_555 1_555
O12E Ca2 1_555 1_555
H14E O12E 1_555 1_555
H15E O12E 1_555 1_555
Ca1E O1E 1_555 1_555
O7E Ca1E 1_555 1_555
H4E O7E 1_555 1_555
H5E O7E 1_555 1_555
O9E Ca1E 1_555 1_555
H8E O9E 1_555 1_555
H9E O9E 1_555 1_555
O10E Ca1E 1_555 1_555
H10E O10E 1_555 1_555
H11E O10E 1_555 1_555
O11E Ca1E 1_555 1_555
H12E O11E 1_555 1_555
H13E O11E 1_555 1_555
O5D Ca1 1_555 1_555
O8_2 Ca1 1_555 1_555
Ca1D O5 1_555 1_555
Ca1_2 O8 1_555 1_555
Ca1A O5E 1_555 1_555
Ca1E_2 O8E 1_555 1_555
O5A Ca1E 1_555 1_555
O8E_2 Ca1E 1_555 1_555
H6_2 O8_2 1_555 1_555
H7_2 O8_2 1_555 1_555
H6E_2 O8E_2 1_555 1_555
H7E_2 O8E_2 1_555 1_555
C3 C8 1_555 1_555
O4E C8E 1_555 1_555
C3E C8E 1_555 1_555

#END
