
#######################################################################
#
#                 Cambridge Crystallographic Data Centre
#                                CCDC 
#
#######################################################################
#
# If this CIF has been generated from an entry in the Cambridge 
# Structural Database, then it will include bibliographic, chemical, 
# crystal, experimental, refinement or atomic coordinate data resulting 
# from the CCDC's data processing and validation procedures.
#
#######################################################################

data_ATAFAC
_symmetry_cell_setting           monoclinic
_symmetry_space_group_name_H-M   'P 21/c'
_symmetry_Int_Tables_number      14
_space_group_name_Hall           '-P 2ybc'
loop_
_symmetry_equiv_pos_site_id
_symmetry_equiv_pos_as_xyz
1 x,y,z
2 x,1/2-y,1/2+z
3 -x,-y,-z
4 -x,1/2+y,1/2-z
_cell_length_a                   12.558(4)
_cell_length_b                   8.958(3)
_cell_length_c                   11.048(3)
_cell_angle_alpha                90
_cell_angle_beta                 110.085(7)
_cell_angle_gamma                90
_cell_volume                     1167.26
loop_
_atom_site_label
_atom_site_type_symbol
_atom_site_fract_x
_atom_site_fract_y
_atom_site_fract_z
Cl1 Cl 0.69560(7) 0.12859(10) 0.25129(8)
O1 O 0.6114(3) 0.0506(4) 0.1536(3)
O2 O 0.8044(2) 0.1124(3) 0.2364(3)
O3 O 0.6649(3) 0.2814(3) 0.2472(4)
O4 O 0.7055(3) 0.0696(5) 0.3744(3)
Li1 Li 0.8112(5) 0.6628(6) 0.4671(5)
O5 O 0.8031(2) 0.4446(3) 0.4757(3)
H1 H 0.799(3) 0.422(5) 0.5483(16)
H2 H 0.756(3) 0.393(4) 0.417(2)
N1 N 0.7082(2) 0.7600(3) 0.5602(2)
N2 N 0.9253(2) 0.6706(3) 0.6691(3)
N3 N 0.7047(2) 0.8277(3) 0.7671(2)
N4 N 0.9171(2) 0.7255(3) 0.8772(2)
C1 C 0.5989(3) 0.7959(4) 0.5099(3)
H3 H 0.5627 0.7870 0.4214
C2 C 0.5374(3) 0.8454(4) 0.5832(3)
H4 H 0.4601 0.8647 0.5470
C3 C 0.5952(3) 0.8651(4) 0.7128(3)
H5 H 0.5572 0.9055 0.7641
C4 C 0.7549(3) 0.7736(3) 0.6881(3)
C5 C 0.8736(3) 0.7214(3) 0.7487(3)
C6 C 1.0209(3) 0.6662(4) 0.9308(3)
H6 H 1.0544 0.6658 1.0200
C7 C 1.0790(3) 0.6060(4) 0.8570(3)
H7 H 1.1497 0.5620 0.8949
C8 C 1.0287(3) 0.6133(4) 0.7257(3)
H8 H 1.0679 0.5770 0.6742
N3A N 0.7047(2) 0.6723(3) 0.2671(2)
N4A N 0.9171(2) 0.7745(3) 0.3772(2)
Li1A Li 0.8112(5) 0.8372(6) 0.9671(5)
loop_
_geom_bond_atom_site_label_1
_geom_bond_atom_site_label_2
_geom_bond_site_symmetry_1
_geom_bond_site_symmetry_2
Cl1 O1 1_555 1_555
Li1 O5 1_555 1_555
O2 Cl1 1_555 1_555
O3 Cl1 1_555 1_555
O4 Cl1 1_555 1_555
O5 H1 1_555 1_555
H2 O5 1_555 1_555
N1 Li1 1_555 1_555
N2 Li1 1_555 1_555
N3 C3 1_555 1_555
N4 C5 1_555 1_555
C1 N1 1_555 1_555
H3 C1 1_555 1_555
C2 C1 1_555 1_555
H4 C2 1_555 1_555
C3 C2 1_555 1_555
H5 C3 1_555 1_555
C4 N1 1_555 1_555
C5 N2 1_555 1_555
C6 N4 1_555 1_555
H6 C6 1_555 1_555
C7 C6 1_555 1_555
H7 C7 1_555 1_555
C8 N2 1_555 1_555
H8 C8 1_555 1_555
N3A Li1 1_555 1_555
N4A Li1 1_555 1_555
Li1A N3 1_555 1_555
N3 C4 1_555 1_555
N4 Li1A 1_555 1_555
C4 C5 1_555 1_555
C7 C8 1_555 1_555

#END
