
#######################################################################
#
#                 Cambridge Crystallographic Data Centre
#                                CCDC 
#
#######################################################################
#
# If this CIF has been generated from an entry in the Cambridge 
# Structural Database, then it will include bibliographic, chemical, 
# crystal, experimental, refinement or atomic coordinate data resulting 
# from the CCDC's data processing and validation procedures.
#
#######################################################################

data_ATARAP
_symmetry_cell_setting           triclinic
_symmetry_space_group_name_H-M   'P -1'
_symmetry_Int_Tables_number      2
_space_group_name_Hall           '-P 1'
loop_
_symmetry_equiv_pos_site_id
_symmetry_equiv_pos_as_xyz
1 x,y,z
2 -x,-y,-z
_cell_length_a                   6.7116(4)
_cell_length_b                   14.4431(10)
_cell_length_c                   15.0108(10)
_cell_angle_alpha                92.697(6)
_cell_angle_beta                 98.606(5)
_cell_angle_gamma                92.980(5)
_cell_volume                     1434.55
loop_
_atom_site_label
_atom_site_type_symbol
_atom_site_fract_x
_atom_site_fract_y
_atom_site_fract_z
Mn1 Mn 0.24096(6) 0.72375(3) 0.44911(2)
N1 N 0.2238(3) 0.67215(15) 0.30300(13)
N2 N 0.2465(4) 0.70334(16) 0.15044(14)
N3 N 0.2005(3) 0.54661(15) 0.19224(13)
N4 N 0.2627(4) 0.82203(15) 0.26067(14)
N5 N 0.2503(3) 0.84308(15) 0.34936(13)
N6 N 0.2067(3) 0.86830(15) 0.52169(14)
N7 N 0.1842(3) 0.52078(15) 0.34192(13)
N8 N 0.2253(3) 0.56042(15) 0.42719(13)
N9 N 0.3196(3) 0.65225(15) 0.58719(13)
N10 N 0.2357(4) 0.58135(16) 0.04576(14)
N11 N 0.2426(4) 0.48681(16) 0.02938(14)
N12 N 0.2490(4) 0.34197(17) -0.16743(15)
N13 N 0.5800(4) 0.74133(18) 0.45987(17)
N14 N 0.7451(4) 0.72346(15) 0.45369(13)
N15 N 0.9098(4) 0.70418(17) 0.44709(17)
C1 C 0.2428(4) 0.72869(19) 0.23617(16)
C2 C 0.2279(4) 0.61146(19) 0.13296(16)
C3 C 0.2024(4) 0.58156(18) 0.27537(16)
C4 C 0.2801(5) 0.8945(2) 0.19724(17)
H1 H 0.1677 0.9331 0.1962
H2 H 0.2804 0.8665 0.1380
H3 H 0.4036 0.9315 0.2158
C5 C 0.2688(4) 0.92816(18) 0.38057(16)
H4 H 0.2945 0.9769 0.3448
C6 C 0.2470(4) 0.94400(18) 0.47599(16)
C7 C 0.2597(4) 1.03366(19) 0.51426(18)
H5 H 0.2890 1.0840 0.4811
C8 C 0.2281(4) 1.0468(2) 0.60269(18)
H6 H 0.2407 1.1061 0.6307
C9 C 0.1774(5) 0.9709(2) 0.64906(18)
H7 H 0.1522 0.9783 0.7082
C10 C 0.1649(4) 0.8831(2) 0.60560(17)
H8 H 0.1256 0.8323 0.6361
C11 C 0.1546(4) 0.42026(18) 0.32452(17)
H9 H 0.2716 0.3911 0.3524
H10 H 0.1344 0.4057 0.2606
H11 H 0.0383 0.3979 0.3491
C12 C 0.2354(4) 0.50992(18) 0.49589(16)
H12 H 0.2075 0.4460 0.4895
C13 C 0.2935(4) 0.55843(18) 0.58487(16)
C14 C 0.3269(4) 0.5084(2) 0.66167(17)
H13 H 0.3058 0.4441 0.6580
C15 C 0.3926(4) 0.5560(2) 0.74430(17)
H14 H 0.4152 0.5242 0.7970
C16 C 0.4235(4) 0.6512(2) 0.74672(17)
H15 H 0.4687 0.6846 0.8011
C17 C 0.3864(4) 0.6964(2) 0.66711(17)
H16 H 0.4091 0.7606 0.6694
C18 C 0.2334(5) 0.6455(2) -0.02655(17)
H17 H 0.2297 0.7079 -0.0021
H18 H 0.1162 0.6308 -0.0710
H19 H 0.3528 0.6400 -0.0541
C19 C 0.2348(4) 0.4574(2) -0.05336(17)
H20 H 0.2235 0.4999 -0.0983
C20 C 0.2433(4) 0.3590(2) -0.07848(17)
C21 C 0.2420(5) 0.2890(2) -0.01791(19)
H21 H 0.2385 0.3031 0.0429
C22 C 0.2461(5) 0.1980(2) -0.0503(2)
H22 H 0.2455 0.1498 -0.0114
C23 C 0.2511(5) 0.1795(2) -0.1412(2)
H23 H 0.2531 0.1188 -0.1645
C24 C 0.2531(5) 0.2534(2) -0.19670(19)
H24 H 0.2575 0.2407 -0.2577
Mn1_2 Mn 1.24096(6) 0.72375(3) 0.44911(2)
N15_2 N -0.0902(4) 0.70418(17) 0.44709(17)
N16 N 0.2177(5) 0.1689(2) 0.22924(19)
O1 O 0.3004(5) 0.1609(2) 0.16033(18)
O2 O 0.0850(5) 0.2256(2) 0.2312(2)
O3 O 0.2700(5) 0.12266(19) 0.29476(19)
O4 O 0.6165(6) 0.0431(2) 0.13820(19)
H25 H 0.5437 0.0797 0.1590
C25 C 0.7239(7) 0.0880(3) 0.0781(3)
H26 H 0.7798 0.1471 0.1048
H27 H 0.6347 0.0969 0.0233
H28 H 0.8311 0.0506 0.0648
loop_
_geom_bond_atom_site_label_1
_geom_bond_atom_site_label_2
_geom_bond_site_symmetry_1
_geom_bond_site_symmetry_2
Mn1 N1 1_555 1_555
N1 C1 1_555 1_555
N2 C1 1_555 1_555
N3 C2 1_555 1_555
N4 N5 1_555 1_555
N5 Mn1 1_555 1_555
N6 Mn1 1_555 1_555
N7 N8 1_555 1_555
N8 Mn1 1_555 1_555
N9 Mn1 1_555 1_555
N10 N11 1_555 1_555
N11 C19 1_555 1_555
N12 C20 1_555 1_555
N13 Mn1 1_555 1_555
N14 N13 1_555 1_555
N15 N14 1_555 1_555
C1 N4 1_555 1_555
C2 N2 1_555 1_555
C3 N1 1_555 1_555
C4 N4 1_555 1_555
H1 C4 1_555 1_555
H2 C4 1_555 1_555
H3 C4 1_555 1_555
C5 N5 1_555 1_555
H4 C5 1_555 1_555
C6 N6 1_555 1_555
C7 C6 1_555 1_555
H5 C7 1_555 1_555
C8 C7 1_555 1_555
H6 C8 1_555 1_555
C9 C8 1_555 1_555
H7 C9 1_555 1_555
C10 N6 1_555 1_555
H8 C10 1_555 1_555
C11 N7 1_555 1_555
H9 C11 1_555 1_555
H10 C11 1_555 1_555
H11 C11 1_555 1_555
C12 N8 1_555 1_555
H12 C12 1_555 1_555
C13 N9 1_555 1_555
C14 C13 1_555 1_555
H13 C14 1_555 1_555
C15 C14 1_555 1_555
H14 C15 1_555 1_555
C16 C15 1_555 1_555
H15 C16 1_555 1_555
C17 N9 1_555 1_555
H16 C17 1_555 1_555
C18 N10 1_555 1_555
H17 C18 1_555 1_555
H18 C18 1_555 1_555
H19 C18 1_555 1_555
C19 H20 1_555 1_555
C20 C19 1_555 1_555
C21 C20 1_555 1_555
H21 C21 1_555 1_555
C22 C21 1_555 1_555
H22 C22 1_555 1_555
C23 C22 1_555 1_555
H23 C23 1_555 1_555
C24 N12 1_555 1_555
H24 C24 1_555 1_555
N16 O1 1_555 1_555
O2 N16 1_555 1_555
O3 N16 1_555 1_555
O4 H25 1_555 1_555
C25 O4 1_555 1_555
H26 C25 1_555 1_555
H27 C25 1_555 1_555
H28 C25 1_555 1_555
Mn1_2 N15 1_555 1_555
N15_2 Mn1 1_555 1_555
N3 C3 1_555 1_555
N7 C3 1_555 1_555
N10 C2 1_555 1_555
C5 C6 1_555 1_555
C9 C10 1_555 1_555
C12 C13 1_555 1_555
C16 C17 1_555 1_555
C23 C24 1_555 1_555

#END
