
#######################################################################
#
#                 Cambridge Crystallographic Data Centre
#                                CCDC 
#
#######################################################################
#
# If this CIF has been generated from an entry in the Cambridge 
# Structural Database, then it will include bibliographic, chemical, 
# crystal, experimental, refinement or atomic coordinate data resulting 
# from the CCDC's data processing and validation procedures.
#
#######################################################################

data_ATERIB
_symmetry_cell_setting           triclinic
_symmetry_space_group_name_H-M   'P 1'
_symmetry_Int_Tables_number      1
_space_group_name_Hall           'P 1'
loop_
_symmetry_equiv_pos_site_id
_symmetry_equiv_pos_as_xyz
1 x,y,z
_cell_length_a                   4.76561(11)
_cell_length_b                   4.78330(8)
_cell_length_c                   31.0851(4)
_cell_angle_alpha                93.281(2)
_cell_angle_beta                 94.570(2)
_cell_angle_gamma                70.9402(19)
_cell_volume                     667.253
loop_
_atom_site_label
_atom_site_type_symbol
_atom_site_fract_x
_atom_site_fract_y
_atom_site_fract_z
Zn1 Zn -0.3333(13) 1.4026(13) 0.00577(20)
O1 O -0.082(3) 1.236(6) -0.0443(6)
O2 O 0.266(2) 1.417(4) -0.0188(7)
O3 O -0.191(6) 2.136(2) 0.0545(5)
O4 O -0.353(4) 1.802(2) 0.0262(7)
C1 C -0.178(6) 1.870(3) 0.0532(6)
C2 C -0.045(7) 1.684(6) 0.0936(8)
C3 C 0.187(8) 1.786(6) 0.1220(9)
C4 C 0.327(8) 1.563(4) 0.1579(8)
C5 C 0.521(9) 1.694(6) 0.1901(8)
C6 C 0.659(9) 1.533(6) 0.2316(8)
C7 C 0.864(8) 1.633(3) 0.2663(11)
C8 C 1.052(7) 1.358(2) 0.2913(4)
C9 C 1.112(4) 1.478(7) 0.3386(6)
C10 C 1.426(3) 1.298(7) 0.3557(11)
C11 C 0.178(3) 1.258(6) -0.0485(7)
C12 C 0.3924(16) 1.058(7) -0.0807(6)
C13 C 0.2418(15) 0.934(7) -0.1217(6)
C14 C 0.4671(16) 0.735(8) -0.1526(8)
C15 C 0.3145(13) 0.614(7) -0.1918(8)
C16 C 0.5713(15) 0.389(7) -0.2148(7)
C17 C 0.4206(14) 0.290(8) -0.2560(7)
C18 C 0.6511(14) 0.075(8) -0.2848(7)
C19 C 0.4870(14) -0.008(7) -0.3253(6)
C20 C 0.7107(18) -0.216(7) -0.3551(5)
C21 C 0.5710(15) -0.286(8) -0.3999(5)
C22 C 0.802(3) -0.467(8) -0.4311(9)
C23 C 0.648(4) -0.638(8) -0.4621(9)
C24 C 0.872(4) -0.810(8) -0.4951(9)
C25 C 0.714(4) -0.974(9) -0.5276(10)
C26 C 0.911(8) -1.148(9) -0.5636(10)
Zn1_2 Zn -0.3333(13) 2.4026(13) 0.00577(20)
Zn1_3 Zn 0.6667(13) 1.4026(13) 0.00577(20)
O2_2 O -0.734(2) 1.417(4) -0.0188(7)
O3_2 O -0.191(6) 1.136(2) 0.0545(5)
loop_
_geom_bond_atom_site_label_1
_geom_bond_atom_site_label_2
_geom_bond_site_symmetry_1
_geom_bond_site_symmetry_2
Zn1 O1 1_555 1_555
O1 C11 1_555 1_555
O2 C11 1_555 1_555
O3 C1 1_555 1_555
O4 Zn1 1_555 1_555
C1 O4 1_555 1_555
C2 C1 1_555 1_555
C3 C2 1_555 1_555
C4 C3 1_555 1_555
C5 C4 1_555 1_555
C6 C5 1_555 1_555
C7 C6 1_555 1_555
C8 C7 1_555 1_555
C9 C8 1_555 1_555
C10 C9 1_555 1_555
C11 C12 1_555 1_555
C12 C13 1_555 1_555
C13 C14 1_555 1_555
C14 C15 1_555 1_555
C15 C16 1_555 1_555
C16 C17 1_555 1_555
C17 C18 1_555 1_555
C18 C19 1_555 1_555
C19 C20 1_555 1_555
C20 C21 1_555 1_555
C21 C22 1_555 1_555
C22 C23 1_555 1_555
C23 C24 1_555 1_555
C24 C25 1_555 1_555
C25 C26 1_555 1_555
Zn1_2 O3 1_555 1_555
Zn1_3 O2 1_555 1_555
O2_2 Zn1 1_555 1_555
O3_2 Zn1 1_555 1_555

#END
