
#######################################################################
#
#                 Cambridge Crystallographic Data Centre
#                                CCDC 
#
#######################################################################
#
# If this CIF has been generated from an entry in the Cambridge 
# Structural Database, then it will include bibliographic, chemical, 
# crystal, experimental, refinement or atomic coordinate data resulting 
# from the CCDC's data processing and validation procedures.
#
#######################################################################

data_ATEVOK
_symmetry_cell_setting           triclinic
_symmetry_space_group_name_H-M   'P -1'
_symmetry_Int_Tables_number      2
_space_group_name_Hall           '-P 1'
loop_
_symmetry_equiv_pos_site_id
_symmetry_equiv_pos_as_xyz
1 x,y,z
2 -x,-y,-z
_cell_length_a                   8.3811(5)
_cell_length_b                   15.5837(10)
_cell_length_c                   16.5921(11)
_cell_angle_alpha                117.5200(10)
_cell_angle_beta                 91.7370(10)
_cell_angle_gamma                98.9500(10)
_cell_volume                     1885.5
loop_
_atom_site_label
_atom_site_type_symbol
_atom_site_fract_x
_atom_site_fract_y
_atom_site_fract_z
Cu1 Cu 0.32592(4) 0.68427(2) 0.35962(2)
O1 O 0.4123(2) 0.59143(15) 0.38992(13)
O2 O 0.3986(2) 0.62496(15) 0.23869(13)
N1 N 0.2202(3) 0.72934(17) 0.47346(16)
N2 N 0.2036(3) 0.75912(17) 0.31945(16)
C1 C 0.0033(3) 0.79535(19) 0.43034(18)
C2 C 0.4547(3) 0.5457(2) 0.20123(19)
C3 C 0.2561(3) 0.7159(2) 0.54499(18)
H1 H 0.3486 0.6909 0.5526
C4 C 0.0256(3) 0.7741(2) 0.57228(19)
H2 H -0.0694 0.7958 0.5981
C5 C 0.4731(3) 0.5180(2) 0.33593(19)
C6 C 0.0765(3) 0.76742(19) 0.48862(18)
C7 C 0.4771(4) 0.5092(2) 0.10228(19)
H3 H 0.3726 0.4979 0.0673
H4 H 0.5177 0.4474 0.0790
H5 H 0.5556 0.5586 0.0957
C8 C 0.0631(3) 0.7935(2) 0.35169(18)
C9 C 0.0009(3) 0.8314(2) 0.29635(19)
H6 H -0.0951 0.8583 0.3027
C10 C 0.1058(4) 0.8216(2) 0.2321(2)
H7 H 0.0976 0.8410 0.1858
C11 C 0.2291(3) 0.7767(2) 0.24847(19)
H8 H 0.3182 0.7612 0.2137
C12 C 0.1403(3) 0.7433(2) 0.60860(19)
H9 H 0.1416 0.7408 0.6647
C13 C 0.5235(4) 0.4557(2) 0.3759(2)
H10 H 0.6028 0.4971 0.4301
H11 H 0.5727 0.4034 0.3303
H12 H 0.4279 0.4262 0.3933
C14 C 0.4935(4) 0.4924(2) 0.2446(2)
H13 H 0.5366 0.4348 0.2101
C34 C -0.2982(3) 0.7737(2) 0.40665(19)
H31 H -0.2971 0.7110 0.3563
C35 C -0.1533(3) 0.9248(2) 0.5278(2)
H32 H -0.0547 0.9672 0.5627
C36 C -0.1506(3) 0.8331(2) 0.45545(19)
N6 N -0.4419(3) 0.80086(18) 0.42737(16)
C37 C -0.4425(3) 0.8897(2) 0.4974(2)
H33 H -0.5441 0.9092 0.5123
C38 C -0.3020(4) 0.9547(2) 0.5492(2)
H34 H -0.3066 1.0179 0.5979
N6_2 N 0.5581(3) 0.80086(18) 0.42737(16)
Cu1_2 Cu -0.67408(4) 0.68427(2) 0.35962(2)
Cu2 Cu 0.15550(4) 0.32015(2) 0.14111(2)
O3 O 0.0693(2) 0.41290(15) 0.11016(13)
O4 O 0.0802(2) 0.37988(15) 0.26164(13)
N3 N 0.2792(3) 0.24686(17) 0.18281(16)
N4 N 0.2615(3) 0.27440(17) 0.02764(15)
N5 N 0.9232(3) 0.20370(17) 0.07455(16)
C15 C 0.4776(3) 0.20780(19) 0.07070(18)
C16 C 0.2252(3) 0.2880(2) -0.04439(18)
H14 H 0.1335 0.3138 -0.0518
C17 C 0.4821(3) 0.1751(2) 0.20709(19)
H15 H 0.5777 0.1480 0.2011
C18 C 0.0238(3) 0.4588(2) 0.29861(19)
C19 C 0.9246(3) 0.1156(2) 0.0040(2)
H16 H 1.0265 0.0962 -0.0104
C20 C 0.0087(3) 0.4862(2) 0.16381(19)
C21 C 0.7790(3) 0.2298(2) 0.09544(19)
H17 H 0.7769 0.2918 0.1466
C22 C 0.3777(4) 0.1870(2) 0.2722(2)
H18 H 0.3863 0.1691 0.3194
C23 C 0.3400(3) 0.2593(2) -0.10787(19)
H19 H 0.3391 0.2616 -0.1641
C24 C 0.4035(3) 0.2353(2) 0.01203(18)
C25 C 0.4194(3) 0.2112(2) 0.15011(18)
C26 C 0.7851(3) 0.0510(2) -0.0493(2)
H20 H 0.7909 -0.0113 -0.0991
C27 C 0.2547(3) 0.2312(2) 0.25480(19)
H21 H 0.1660 0.2477 0.2898
C28 C -0.0018(4) 0.4951(2) 0.39709(19)
H22 H -0.0861 0.4475 0.4026
H23 H -0.0362 0.5589 0.4208
H24 H 0.1001 0.5028 0.4324
C29 C 0.6323(3) 0.1703(2) 0.04552(19)
C30 C 0.6360(3) 0.0794(2) -0.02838(19)
H25 H 0.5380 0.0371 -0.0642
C31 C 0.4540(3) 0.2274(2) -0.07176(19)
H26 H 0.5481 0.2045 -0.0979
C32 C -0.0139(3) 0.5119(2) 0.25482(19)
H27 H -0.0579 0.5693 0.2889
C33 C -0.0413(4) 0.5489(2) 0.1237(2)
H28 H 0.0545 0.5778 0.1059
H29 H -0.0894 0.6017 0.1695
H30 H -0.1213 0.5079 0.0698
N5_2 N -0.0768(3) 0.20370(17) 0.07455(16)
Cu2_2 Cu 1.15550(4) 0.32015(2) 0.14111(2)
Cl1 Cl 0.83702(11) 1.04424(7) 0.16471(6)
Cl2 Cl 0.63987(18) 0.99897(8) 0.28694(8)
C39 C 0.8270(5) 0.9915(3) 0.2348(3)
H35 H 0.9202 1.0249 0.2834
H36 H 0.8358 0.9214 0.1990
loop_
_geom_bond_atom_site_label_1
_geom_bond_atom_site_label_2
_geom_bond_site_symmetry_1
_geom_bond_site_symmetry_2
Cu1 O1 1_555 1_555
O1 C5 1_555 1_555
O2 Cu1 1_555 1_555
N1 Cu1 1_555 1_555
N2 Cu1 1_555 1_555
C1 C6 1_555 1_555
C2 O2 1_555 1_555
C3 N1 1_555 1_555
H1 C3 1_555 1_555
C4 H2 1_555 1_555
C5 C13 1_555 1_555
C6 N1 1_555 1_555
C7 C2 1_555 1_555
H3 C7 1_555 1_555
H4 C7 1_555 1_555
H5 C7 1_555 1_555
C8 N2 1_555 1_555
C9 C8 1_555 1_555
H6 C9 1_555 1_555
C10 C9 1_555 1_555
H7 C10 1_555 1_555
C11 N2 1_555 1_555
H8 C11 1_555 1_555
C12 C3 1_555 1_555
H9 C12 1_555 1_555
C13 H10 1_555 1_555
H11 C13 1_555 1_555
H12 C13 1_555 1_555
C14 C2 1_555 1_555
H13 C14 1_555 1_555
Cu2 O3 1_555 1_555
O3 C20 1_555 1_555
O4 Cu2 1_555 1_555
N3 Cu2 1_555 1_555
N4 Cu2 1_555 1_555
N5 C19 1_555 1_555
C15 C24 1_555 1_555
C16 N4 1_555 1_555
H14 C16 1_555 1_555
C17 H15 1_555 1_555
C18 O4 1_555 1_555
C19 H16 1_555 1_555
C20 C32 1_555 1_555
C21 N5 1_555 1_555
H17 C21 1_555 1_555
C22 C17 1_555 1_555
H18 C22 1_555 1_555
C23 C16 1_555 1_555
H19 C23 1_555 1_555
C24 N4 1_555 1_555
C25 N3 1_555 1_555
C26 C19 1_555 1_555
H20 C26 1_555 1_555
C27 N3 1_555 1_555
H21 C27 1_555 1_555
C28 C18 1_555 1_555
H22 C28 1_555 1_555
H23 C28 1_555 1_555
H24 C28 1_555 1_555
C29 C15 1_555 1_555
C30 C26 1_555 1_555
H25 C30 1_555 1_555
C31 C23 1_555 1_555
H26 C31 1_555 1_555
C32 C18 1_555 1_555
H27 C32 1_555 1_555
C33 C20 1_555 1_555
H28 C33 1_555 1_555
H29 C33 1_555 1_555
H30 C33 1_555 1_555
C34 H31 1_555 1_555
C35 H32 1_555 1_555
C36 C1 1_555 1_555
Cl1 C39 1_555 1_555
N6 C34 1_555 1_555
C37 N6 1_555 1_555
H33 C37 1_555 1_555
C38 C35 1_555 1_555
H34 C38 1_555 1_555
Cl2 C39 1_555 1_555
C39 H35 1_555 1_555
H36 C39 1_555 1_555
N6_2 Cu1 1_555 1_555
N5_2 Cu2 1_555 1_555
Cu2_2 N5 1_555 1_555
Cu1_2 N6 1_555 1_555
C1 C8 1_555 1_555
C4 C12 1_555 1_555
C4 C6 1_555 1_555
C5 C14 1_555 1_555
C10 C11 1_555 1_555
C15 C25 1_555 1_555
C17 C25 1_555 1_555
C21 C29 1_555 1_555
C22 C27 1_555 1_555
C24 C31 1_555 1_555
C29 C30 1_555 1_555
C34 C36 1_555 1_555
C35 C36 1_555 1_555
C37 C38 1_555 1_555

#END
