
#######################################################################
#
#                 Cambridge Crystallographic Data Centre
#                                CCDC 
#
#######################################################################
#
# If this CIF has been generated from an entry in the Cambridge 
# Structural Database, then it will include bibliographic, chemical, 
# crystal, experimental, refinement or atomic coordinate data resulting 
# from the CCDC's data processing and validation procedures.
#
#######################################################################

data_ATEXEC
_symmetry_cell_setting           orthorhombic
_symmetry_space_group_name_H-M   'P b c a'
_symmetry_Int_Tables_number      61
_space_group_name_Hall           '-P 2ac 2ab'
loop_
_symmetry_equiv_pos_site_id
_symmetry_equiv_pos_as_xyz
1 x,y,z
2 1/2+x,y,1/2-z
3 x,1/2-y,1/2+z
4 1/2-x,1/2+y,z
5 -x,-y,-z
6 1/2-x,-y,1/2+z
7 -x,1/2+y,1/2-z
8 1/2+x,1/2-y,-z
_cell_length_a                   9.9608(18)
_cell_length_b                   14.688(3)
_cell_length_c                   14.925(3)
_cell_angle_alpha                90
_cell_angle_beta                 90
_cell_angle_gamma                90
_cell_volume                     2183.59
loop_
_atom_site_label
_atom_site_type_symbol
_atom_site_fract_x
_atom_site_fract_y
_atom_site_fract_z
Co1 Co 0.14550(3) 0.184229(16) 0.556091(17)
Co2 Co 0.0000 0.0000 0.5000
O1 O -0.0842(2) 0.15143(13) 0.71611(14)
O2 O 0.03591(15) 0.07662(9) 0.61606(9)
O3 O -0.1208(2) -0.21599(14) 0.66710(13)
O4 O -0.04658(15) -0.12724(9) 0.55819(9)
O5 O 0.30319(14) 0.09724(10) 0.53150(12)
O6 O 0.20319(14) -0.03400(10) 0.49438(10)
O7 O 0.23894(17) 0.28108(11) 0.47702(13)
H1 H 0.260(4) 0.337(3) 0.489(2)
H2 H 0.205(4) 0.269(3) 0.429(3)
O8 O -0.01005(16) 0.27447(11) 0.59268(14)
H3 H -0.073(4) 0.280(3) 0.554(2)
H4 H -0.034(3) 0.248(2) 0.634(3)
O9 O 0.2364(2) 0.22936(13) 0.67244(12)
H5 H 0.299(4) 0.200(2) 0.698(2)
H6 H 0.201(4) 0.251(2) 0.713(3)
C1 C -0.0393(2) 0.08011(15) 0.68567(14)
C2 C -0.0704(4) -0.00679(17) 0.7339(2)
H7 H -0.1639 -0.0216 0.7232
H8 H -0.0604 0.0040 0.7977
C3 C 0.0150(3) -0.09043(17) 0.70894(16)
H9 H 0.0330 -0.1259 0.7624
H10 H 0.1003 -0.0703 0.6847
C4 C -0.0552(2) -0.14946(14) 0.64093(15)
C5 C 0.3052(2) 0.01598(13) 0.50731(13)
C6 C 0.4402(2) -0.03053(15) 0.49454(17)
H11 H 0.4473 -0.0800 0.5374
H12 H 0.4427 -0.0570 0.4350
C6D C 0.5598(2) 0.03053(15) 0.50546(17)
C5D C 0.6948(2) -0.01598(13) 0.49269(13)
O5D O 0.69681(14) -0.09724(10) 0.46850(12)
O6D O 0.79681(14) 0.03400(10) 0.50562(10)
H11D H 0.5527 0.0800 0.4626
H12D H 0.5573 0.0570 0.5650
O1D O 0.0842(2) -0.15143(13) 0.28389(14)
O2D O -0.03591(15) -0.07662(9) 0.38394(9)
O3D O 0.1208(2) 0.21599(14) 0.33290(13)
O4D O 0.04658(15) 0.12724(9) 0.44181(9)
C1D C 0.0393(2) -0.08011(15) 0.31433(14)
C2D C 0.0704(4) 0.00679(17) 0.2661(2)
H7D H 0.1639 0.0216 0.2768
H8D H 0.0604 -0.0040 0.2023
C3D C -0.0150(3) 0.09043(17) 0.29106(16)
H9D H -0.0330 0.1259 0.2376
H10D H -0.1003 0.0703 0.3153
C4D C 0.0552(2) 0.14946(14) 0.35907(15)
Co1D Co -0.14550(3) -0.184229(16) 0.443909(17)
O7D O -0.23894(17) -0.28108(11) 0.52298(13)
H1D H -0.260(4) -0.337(3) 0.511(2)
H2D H -0.205(4) -0.269(3) 0.571(3)
O8D O 0.01005(16) -0.27447(11) 0.40732(14)
H3D H 0.073(4) -0.280(3) 0.446(2)
H4D H 0.034(3) -0.248(2) 0.366(3)
O9D O -0.2364(2) -0.22936(13) 0.32756(12)
H5D H -0.299(4) -0.200(2) 0.302(2)
H6D H -0.201(4) -0.251(2) 0.287(3)
O6D_2 O -0.20319(14) 0.03400(10) 0.50562(10)
Co1D_2 Co 0.85450(3) -0.184229(16) 0.443909(17)
Co2_2 Co 1.0000 0.0000 0.5000
O5D_2 O -0.30319(14) -0.09724(10) 0.46850(12)
loop_
_geom_bond_atom_site_label_1
_geom_bond_atom_site_label_2
_geom_bond_site_symmetry_1
_geom_bond_site_symmetry_2
Co1 O2 1_555 1_555
Co2 O2 1_555 1_555
O1 C1 1_555 1_555
O2 C1 1_555 1_555
O3 C4 1_555 1_555
O4 Co2 1_555 1_555
O5 Co1 1_555 1_555
O6 Co2 1_555 1_555
O7 Co1 1_555 1_555
H1 O7 1_555 1_555
H2 O7 1_555 1_555
O8 Co1 1_555 1_555
H3 O8 1_555 1_555
H4 O8 1_555 1_555
O9 Co1 1_555 1_555
H5 O9 1_555 1_555
H6 O9 1_555 1_555
C1 C2 1_555 1_555
C2 H7 1_555 1_555
H8 C2 1_555 1_555
C3 C2 1_555 1_555
H9 C3 1_555 1_555
H10 C3 1_555 1_555
C4 O4 1_555 1_555
C5 O5 1_555 1_555
C6 C5 1_555 1_555
H11 C6 1_555 1_555
H12 C6 1_555 1_555
C6D C6 1_555 1_555
C5D C6D 1_555 1_555
O5D C5D 1_555 1_555
O6D C5D 1_555 1_555
H11D C6D 1_555 1_555
H12D C6D 1_555 1_555
O1D C1D 1_555 1_555
O2D Co2 1_555 1_555
O3D C4D 1_555 1_555
O4D Co1 1_555 1_555
C1D O2D 1_555 1_555
C2D C1D 1_555 1_555
H7D C2D 1_555 1_555
H8D C2D 1_555 1_555
C3D C2D 1_555 1_555
H9D C3D 1_555 1_555
H10D C3D 1_555 1_555
C4D O4D 1_555 1_555
Co1D O4 1_555 1_555
O7D Co1D 1_555 1_555
H1D O7D 1_555 1_555
H2D O7D 1_555 1_555
O8D Co1D 1_555 1_555
H3D O8D 1_555 1_555
H4D O8D 1_555 1_555
O9D Co1D 1_555 1_555
H5D O9D 1_555 1_555
H6D O9D 1_555 1_555
O6D_2 Co2 1_555 1_555
Co1D_2 O5D 1_555 1_555
Co2_2 O6D 1_555 1_555
O5D_2 Co1D 1_555 1_555
Co2 O4D 1_555 1_555
O6 C5 1_555 1_555
C3 C4 1_555 1_555
O2D Co1D 1_555 1_555
C3D C4D 1_555 1_555

#END
