
#######################################################################
#
#                 Cambridge Crystallographic Data Centre
#                                CCDC 
#
#######################################################################
#
# If this CIF has been generated from an entry in the Cambridge 
# Structural Database, then it will include bibliographic, chemical, 
# crystal, experimental, refinement or atomic coordinate data resulting 
# from the CCDC's data processing and validation procedures.
#
#######################################################################

data_ATEYAZ
_symmetry_cell_setting           monoclinic
_symmetry_space_group_name_H-M   'C 2/c'
_symmetry_Int_Tables_number      15
_space_group_name_Hall           '-C 2yn'
loop_
_symmetry_equiv_pos_site_id
_symmetry_equiv_pos_as_xyz
1 x,y,z
2 1/2+x,1/2+y,z
3 x,-y,1/2+z
4 1/2+x,1/2-y,1/2+z
5 -x,-y,-z
6 1/2-x,1/2-y,-z
7 -x,y,1/2-z
8 1/2-x,1/2+y,1/2-z
_cell_length_a                   16.069(3)
_cell_length_b                   13.635(3)
_cell_length_c                   11.508(2)
_cell_angle_alpha                90
_cell_angle_beta                 111.60(3)
_cell_angle_gamma                90
_cell_volume                     2344.35
loop_
_atom_site_label
_atom_site_type_symbol
_atom_site_fract_x
_atom_site_fract_y
_atom_site_fract_z
Zn1 Zn 0.396833(16) 0.209235(18) 0.96353(2)
N1 N 0.52688(13) 0.22364(15) 0.98376(19)
N2 N 0.33189(12) 0.12067(14) 0.81228(17)
C1 C 0.54939(17) 0.2935(2) 0.9197(3)
H1 H 0.5051 0.3358 0.8703
C2 C 0.36923(14) 0.05759(17) 0.7563(2)
H2 H 0.4307 0.0611 0.7761
C3 C 0.24214(15) 0.11759(18) 0.7794(2)
H3 H 0.2149 0.1633 0.8137
C4 C 0.18943(14) 0.04922(18) 0.6967(2)
H4 H 0.1279 0.0487 0.6770
C5 C 0.63551(18) 0.3058(2) 0.9235(3)
H6 H 0.6481 0.3553 0.8768
C6 C 0.59144(17) 0.1645(2) 1.0540(3)
H7 H 0.5769 0.1154 1.0992
C7 C 0.67925(17) 0.1727(3) 1.0629(3)
H8 H 0.7223 0.1298 1.1137
C8 C 0.22870(14) -0.01903(15) 0.64297(19)
C9 C 0.32126(14) -0.01268(16) 0.6707(2)
C10 C 0.16945(14) -0.09659(17) 0.5602(2)
O2 O 0.15870(12) -0.16975(13) 0.62136(17)
O3 O 0.13327(15) -0.08272(17) 0.44747(17)
C11 C 0.37006(15) -0.07739(18) 0.6103(2)
O4 O 0.33785(12) -0.16216(13) 0.57535(16)
O5 O 0.43610(14) -0.04495(17) 0.5948(2)
C12 C 0.70307(13) 0.24460(17) 0.99650(19)
C12E C 0.79693(13) 0.25540(17) 1.00350(19)
C5E C 0.86449(18) 0.1942(2) 1.0765(3)
C1E C 0.95061(17) 0.2065(2) 1.0803(3)
N1E N 0.97312(13) 0.27636(15) 1.01624(19)
C6E C 0.90856(17) 0.3355(2) 0.9460(3)
H7E H 0.9231 0.3846 0.9008
C7E C 0.82075(17) 0.3273(3) 0.9371(3)
H8E H 0.7777 0.3702 0.8863
H1E H 0.9949 0.1642 1.1297
H6E H 0.8519 0.1447 1.1232
N2G N 0.16811(12) 0.62067(14) 0.68772(17)
C2G C 0.13077(14) 0.55759(17) 0.7437(2)
H2G H 0.0693 0.5611 0.7239
C3G C 0.25786(15) 0.61759(18) 0.7206(2)
H3G H 0.2851 0.6633 0.6863
C4G C 0.31057(14) 0.54922(18) 0.8033(2)
H4G H 0.3721 0.5487 0.8230
C8G C 0.27130(14) 0.48097(15) 0.85703(19)
C9G C 0.17874(14) 0.48732(16) 0.8293(2)
C10G C 0.33055(14) 0.40341(17) 0.9398(2)
O2G O 0.34130(12) 0.33025(13) 0.87864(17)
O3G O 0.36673(15) 0.41728(17) 1.05253(17)
C11G C 0.12994(15) 0.42261(18) 0.8897(2)
O4G O 0.16215(12) 0.33784(13) 0.92465(16)
O5G O 0.06390(14) 0.45505(17) 0.9052(2)
Zn1E Zn 1.103167(16) 0.290765(18) 1.03647(2)
O4B O 0.33785(12) 0.16216(13) 1.07535(16)
Zn1G Zn 0.103167(16) -0.290765(18) 0.53647(2)
Zn1B Zn 0.396833(16) -0.209235(18) 0.46353(2)
Zn1G_2 Zn 0.103167(16) 0.709235(18) 0.53647(2)
Zn1E_2 Zn 0.103167(16) 0.290765(18) 1.03647(2)
N2E N 1.16811(12) 0.37933(14) 1.18772(17)
O2B O 1.15870(12) 0.16975(13) 1.12136(17)
O4G_2 O 1.16215(12) 0.33784(13) 0.92465(16)
O1 O 0.5000 0.4867(3) 0.7500
H5 H 0.5493 0.5195 0.8201
H5F H 0.4507 0.5195 0.6799
loop_
_geom_bond_atom_site_label_1
_geom_bond_atom_site_label_2
_geom_bond_site_symmetry_1
_geom_bond_site_symmetry_2
Zn1 N1 1_555 1_555
N1 C1 1_555 1_555
N2 Zn1 1_555 1_555
C1 H1 1_555 1_555
C2 N2 1_555 1_555
H2 C2 1_555 1_555
C3 N2 1_555 1_555
H3 C3 1_555 1_555
C4 C3 1_555 1_555
H4 C4 1_555 1_555
O1 H5 1_555 1_555
C5 C1 1_555 1_555
H6 C5 1_555 1_555
C6 N1 1_555 1_555
H7 C6 1_555 1_555
C7 C6 1_555 1_555
H8 C7 1_555 1_555
C8 C4 1_555 1_555
C9 C2 1_555 1_555
C10 C8 1_555 1_555
O2 C10 1_555 1_555
O3 C10 1_555 1_555
C11 C9 1_555 1_555
O4 C11 1_555 1_555
O5 C11 1_555 1_555
C12 C5 1_555 1_555
C12E C12 1_555 1_555
C5E C12E 1_555 1_555
C1E C5E 1_555 1_555
N1E C1E 1_555 1_555
C6E N1E 1_555 1_555
H7E C6E 1_555 1_555
C7E C12E 1_555 1_555
H8E C7E 1_555 1_555
H1E C1E 1_555 1_555
H6E C5E 1_555 1_555
H5F O1 1_555 1_555
N2G C2G 1_555 1_555
C2G H2G 1_555 1_555
C3G N2G 1_555 1_555
H3G C3G 1_555 1_555
C4G C3G 1_555 1_555
H4G C4G 1_555 1_555
C8G C4G 1_555 1_555
C9G C2G 1_555 1_555
C10G C8G 1_555 1_555
O2G Zn1 1_555 1_555
O3G C10G 1_555 1_555
C11G C9G 1_555 1_555
O4G C11G 1_555 1_555
O5G C11G 1_555 1_555
Zn1E N1E 1_555 1_555
O4B Zn1 1_555 1_555
Zn1G O2 1_555 1_555
Zn1B O4 1_555 1_555
Zn1G_2 N2G 1_555 1_555
Zn1E_2 O4G 1_555 1_555
N2E Zn1E 1_555 1_555
O2B Zn1E 1_555 1_555
O4G_2 Zn1E 1_555 1_555
C7 C12 1_555 1_555
C8 C9 1_555 1_555
C6E C7E 1_555 1_555
C8G C9G 1_555 1_555
C10G O2G 1_555 1_555

#END
