
#######################################################################
#
#                 Cambridge Crystallographic Data Centre
#                                CCDC 
#
#######################################################################
#
# If this CIF has been generated from an entry in the Cambridge 
# Structural Database, then it will include bibliographic, chemical, 
# crystal, experimental, refinement or atomic coordinate data resulting 
# from the CCDC's data processing and validation procedures.
#
#######################################################################

data_ATIJUI
_symmetry_cell_setting           triclinic
_symmetry_space_group_name_H-M   'P -1'
_symmetry_Int_Tables_number      2
_space_group_name_Hall           '-P 1'
loop_
_symmetry_equiv_pos_site_id
_symmetry_equiv_pos_as_xyz
1 x,y,z
2 -x,-y,-z
_cell_length_a                   6.2221(4)
_cell_length_b                   8.9189(5)
_cell_length_c                   25.29720(15)
_cell_angle_alpha                88.7300(10)
_cell_angle_beta                 87.0360(10)
_cell_angle_gamma                70.76
_cell_volume                     1323.65
loop_
_atom_site_label
_atom_site_type_symbol
_atom_site_fract_x
_atom_site_fract_y
_atom_site_fract_z
Pr1 Pr 0.42740(5) 0.85125(4) 0.200161(13)
Pr2 Pr 0.67817(5) 0.43377(4) 0.294884(12)
O1 O 0.4911(8) 0.5682(5) 0.19412(18)
O2 O 0.1175(7) 0.8234(5) 0.26201(17)
O3 O 0.6652(8) 1.0229(5) 0.18314(19)
O4 O 0.4242(8) 0.8744(6) 0.10096(18)
O5 O 0.8258(8) 0.6902(5) 0.16640(19)
O6 O 0.1627(7) 0.1288(5) 0.20643(18)
O7 O 0.1010(7) 0.8719(5) 0.13975(16)
O8 O -0.5215(8) 0.9662(5) 0.29047(18)
O9 O -0.3197(7) 0.7149(5) 0.28045(17)
O10 O 0.2936(8) 0.5981(5) 0.30375(19)
O11 O 0.6369(8) 0.5114(6) 0.38932(19)
O12 O 0.9107(8) 0.1486(5) 0.3025(2)
O13 O 0.4401(8) 0.2734(5) 0.33275(18)
O14 O -0.0075(7) 0.3855(5) 0.22627(17)
O15 O 0.9866(8) 0.4137(6) 0.35787(18)
O16 O 0.5342(8) 0.3228(5) 0.21831(17)
C1 C -0.3673(10) 0.8456(7) 0.3055(3)
C2 C -0.2380(11) 0.8553(7) 0.3524(3)
C3 C -0.3554(12) 0.9277(8) 0.3984(3)
H1 H -0.5135 0.9714 0.3994
C4 C -0.2376(13) 0.9345(9) 0.4426(3)
H2 H -0.3164 0.9866 0.4728
C5 C -0.0052(13) 0.8649(9) 0.4424(3)
H3 H 0.0719 0.8658 0.4729
C6 C 0.1135(12) 0.7940(8) 0.3973(3)
H4 H 0.2710 0.7476 0.3974
C7 C 0.0008(10) 0.7908(7) 0.3516(2)
C8 C 0.8458(12) 0.4681(8) 0.3963(3)
C9 C 0.9271(11) 0.4837(8) 0.4498(3)
C10 C 0.7713(12) 0.5521(9) 0.4905(3)
H5 H 0.6166 0.5874 0.4842
C11 C 1.1584(12) 0.4308(8) 0.4592(3)
H6 H 1.2652 0.3845 0.4322
C12 C 0.4636(10) 0.4365(7) 0.1871(2)
C13 C 0.3439(11) 0.4132(7) 0.1392(3)
C14 C 0.3918(13) 0.4709(9) 0.0901(3)
H7 H 0.4916 0.5290 0.0872
C15 C 0.2908(14) 0.4420(10) 0.0454(3)
H8 H 0.3201 0.4827 0.0127
C16 C 0.1481(15) 0.3533(10) 0.0497(3)
H9 H 0.0853 0.3311 0.0195
C17 C 0.0959(12) 0.2965(8) 0.0982(3)
H10 H -0.0047 0.2390 0.1008
C18 C 0.1955(10) 0.3261(7) 0.1434(2)
C19 C 0.2186(12) 0.8915(7) 0.0986(2)
C20 C 0.1037(11) 0.9425(7) 0.0471(2)
C21 C -0.1341(11) 0.9964(8) 0.0452(2)
H11 H -0.2240 0.9936 0.0755
C22 C 0.2346(11) 0.9463(8) 0.0018(3)
H12 H 0.3926 0.9098 0.0029
C23 C 0.1447(10) 0.7323(7) 0.3012(3)
C24 C 0.1133(10) 0.2743(7) 0.1956(2)
C22A C -0.2346(11) 1.0537(8) -0.0018(3)
C20A C -0.1037(11) 1.0575(7) -0.0471(2)
C19A C -0.2186(12) 1.1085(7) -0.0986(2)
O4A O -0.4242(8) 1.1256(6) -0.10096(18)
O7A O -0.1010(7) 1.1281(5) -0.13975(16)
C21A C 0.1341(11) 1.0036(8) -0.0452(2)
H11A H 0.2240 1.0064 -0.0755
H12A H -0.3926 1.0902 -0.0029
C11A C 0.8416(12) 0.5692(8) 0.5408(3)
C9A C 1.0729(11) 0.5163(8) 0.5502(3)
C8A C 1.1542(12) 0.5319(8) 0.6037(3)
O11A O 1.3631(8) 0.4886(6) 0.61068(19)
O15A O 1.0134(8) 0.5863(6) 0.64213(18)
C10A C 1.2287(12) 0.4479(9) 0.5095(3)
H5A H 1.3834 0.4126 0.5158
H6A H 0.7348 0.6155 0.5678
O1_2 O 0.4911(8) 1.5682(5) 0.19412(18)
O6_2 O 0.1627(7) 1.1288(5) 0.20643(18)
O14_2 O -0.0075(7) 1.3855(5) 0.22627(17)
O16_2 O 0.5342(8) 1.3228(5) 0.21831(17)
C12_2 C 0.4636(10) 1.4365(7) 0.1871(2)
C13_2 C 0.3439(11) 1.4132(7) 0.1392(3)
C14_2 C 0.3918(13) 1.4709(9) 0.0901(3)
H7_2 H 0.4916 1.5290 0.0872
C15_2 C 0.2908(14) 1.4420(10) 0.0454(3)
H8_2 H 0.3201 1.4827 0.0127
C16_2 C 0.1481(15) 1.3533(10) 0.0497(3)
H9_2 H 0.0853 1.3311 0.0195
C17_2 C 0.0959(12) 1.2965(8) 0.0982(3)
H10_2 H -0.0047 1.2390 0.1008
C18_2 C 0.1955(10) 1.3261(7) 0.1434(2)
C24_2 C 0.1133(10) 1.2743(7) 0.1956(2)
O2_2 O 1.1175(7) 0.8234(5) 0.26201(17)
O8_2 O 0.4785(8) 0.9662(5) 0.29047(18)
O9_2 O 0.6803(7) 0.7149(5) 0.28045(17)
O10_2 O 1.2936(8) 0.5981(5) 0.30375(19)
C1_2 C 0.6327(10) 0.8456(7) 0.3055(3)
C2_2 C 0.7620(11) 0.8553(7) 0.3524(3)
C3_2 C 0.6446(12) 0.9277(8) 0.3984(3)
H1_2 H 0.4865 0.9714 0.3994
C4_2 C 0.7624(13) 0.9345(9) 0.4426(3)
H2_2 H 0.6836 0.9866 0.4728
C5_2 C 0.9948(13) 0.8649(9) 0.4424(3)
H3_2 H 1.0719 0.8658 0.4729
C6_2 C 1.1135(12) 0.7940(8) 0.3973(3)
H4_2 H 1.2710 0.7476 0.3974
C7_2 C 1.0008(10) 0.7908(7) 0.3516(2)
C23_2 C 1.1447(10) 0.7323(7) 0.3012(3)
Pr1_2 Pr 0.42740(5) 1.85125(4) 0.200161(13)
Pr2_2 Pr 0.67817(5) 1.43377(4) 0.294884(12)
O3_2 O 0.6652(8) 2.0229(5) 0.18314(19)
O5_2 O 0.8258(8) 1.6902(5) 0.16640(19)
O12_2 O 0.9107(8) 1.1486(5) 0.3025(2)
O13_2 O 0.4401(8) 1.2734(5) 0.33275(18)
O14_3 O 0.9925(7) 0.3855(5) 0.22627(17)
Pr1_3 Pr 0.42740(5) -0.14875(4) 0.200161(13)
Pr1_4 Pr -0.57260(5) 0.85125(4) 0.200161(13)
Pr2_3 Pr -0.32183(5) 0.43377(4) 0.294884(12)
Pr1A Pr -0.42740(5) 1.14875(4) -0.200161(13)
Pr2A Pr 1.32183(5) 0.56623(4) 0.705116(12)
Pr2_4 Pr -0.32183(5) 1.43377(4) 0.294884(12)
Pr1_5 Pr 1.42740(5) 0.85125(4) 0.200161(13)
Pr2_5 Pr 1.67817(5) 0.43377(4) 0.294884(12)
O2_3 O 0.1175(7) 1.8234(5) 0.26201(17)
O4_2 O 0.4242(8) 1.8744(6) 0.10096(18)
O6_3 O 0.1627(7) 2.1288(5) 0.20643(18)
O7_2 O 0.1010(7) 1.8719(5) 0.13975(16)
O8_3 O 0.4785(8) 1.9662(5) 0.29047(18)
O9_3 O 0.6803(7) 1.7149(5) 0.28045(17)
O10_3 O 0.2936(8) 1.5981(5) 0.30375(19)
O11_2 O 0.6369(8) 1.5114(6) 0.38932(19)
O14_4 O 0.9925(7) 1.3855(5) 0.22627(17)
O15_2 O 0.9866(8) 1.4137(6) 0.35787(18)
loop_
_geom_bond_atom_site_label_1
_geom_bond_atom_site_label_2
_geom_bond_site_symmetry_1
_geom_bond_site_symmetry_2
Pr1 O1 1_555 1_555
Pr2 O1 1_555 1_555
O1 C12 1_555 1_555
O2 Pr1 1_555 1_555
O3 Pr1 1_555 1_555
O4 Pr1 1_555 1_555
O5 Pr1 1_555 1_555
O6 C24 1_555 1_555
O7 Pr1 1_555 1_555
O8 C1 1_555 1_555
O9 C1 1_555 1_555
O10 Pr2 1_555 1_555
O11 Pr2 1_555 1_555
O12 Pr2 1_555 1_555
O13 Pr2 1_555 1_555
O14 C24 1_555 1_555
O15 Pr2 1_555 1_555
O16 Pr2 1_555 1_555
C1 C2 1_555 1_555
C2 C3 1_555 1_555
C3 H1 1_555 1_555
C4 C3 1_555 1_555
H2 C4 1_555 1_555
C5 C4 1_555 1_555
H3 C5 1_555 1_555
C6 C5 1_555 1_555
H4 C6 1_555 1_555
C7 C2 1_555 1_555
C8 O11 1_555 1_555
C9 C8 1_555 1_555
C10 C9 1_555 1_555
H5 C10 1_555 1_555
C11 C9 1_555 1_555
H6 C11 1_555 1_555
C12 O16 1_555 1_555
C13 C12 1_555 1_555
C14 C13 1_555 1_555
H7 C14 1_555 1_555
C15 C14 1_555 1_555
H8 C15 1_555 1_555
C16 C15 1_555 1_555
H9 C16 1_555 1_555
C17 C16 1_555 1_555
H10 C17 1_555 1_555
C18 C13 1_555 1_555
C19 O4 1_555 1_555
C20 C19 1_555 1_555
C21 C20 1_555 1_555
H11 C21 1_555 1_555
C22 C20 1_555 1_555
H12 C22 1_555 1_555
C23 O2 1_555 1_555
C24 C18 1_555 1_555
C22A C21 1_555 1_555
C20A C22A 1_555 1_555
C19A C20A 1_555 1_555
O4A C19A 1_555 1_555
O7A C19A 1_555 1_555
C21A C22 1_555 1_555
H11A C21A 1_555 1_555
H12A C22A 1_555 1_555
C11A C10 1_555 1_555
C9A C11A 1_555 1_555
C8A C9A 1_555 1_555
O11A C8A 1_555 1_555
O15A C8A 1_555 1_555
C10A C11 1_555 1_555
H5A C10A 1_555 1_555
H6A C11A 1_555 1_555
O1_2 C12_2 1_555 1_555
O6_2 Pr1 1_555 1_555
O14_2 C24_2 1_555 1_555
O16_2 C12_2 1_555 1_555
C12_2 C13_2 1_555 1_555
C13_2 C14_2 1_555 1_555
C14_2 H7_2 1_555 1_555
C15_2 C14_2 1_555 1_555
H8_2 C15_2 1_555 1_555
C16_2 C15_2 1_555 1_555
H9_2 C16_2 1_555 1_555
C17_2 C16_2 1_555 1_555
H10_2 C17_2 1_555 1_555
C18_2 C13_2 1_555 1_555
C24_2 O6_2 1_555 1_555
O2_2 C23_2 1_555 1_555
O8_2 Pr1 1_555 1_555
O9_2 Pr1 1_555 1_555
O10_2 C23_2 1_555 1_555
C1_2 O8_2 1_555 1_555
C2_2 C1_2 1_555 1_555
C3_2 C2_2 1_555 1_555
H1_2 C3_2 1_555 1_555
C4_2 C3_2 1_555 1_555
H2_2 C4_2 1_555 1_555
C5_2 C4_2 1_555 1_555
H3_2 C5_2 1_555 1_555
C6_2 C5_2 1_555 1_555
H4_2 C6_2 1_555 1_555
C7_2 C2_2 1_555 1_555
C23_2 C7_2 1_555 1_555
Pr1_2 O1_2 1_555 1_555
Pr2_2 O1_2 1_555 1_555
O3_2 Pr1_2 1_555 1_555
O5_2 Pr1_2 1_555 1_555
O12_2 Pr2_2 1_555 1_555
O13_2 Pr2_2 1_555 1_555
O14_3 Pr2 1_555 1_555
Pr1_3 O6 1_555 1_555
Pr1_4 O8 1_555 1_555
Pr2_3 O9 1_555 1_555
Pr1A O4A 1_555 1_555
Pr2A O11A 1_555 1_555
Pr2_4 O14_2 1_555 1_555
Pr1_5 O2_2 1_555 1_555
Pr2_5 O10_2 1_555 1_555
O2_3 Pr1_2 1_555 1_555
O4_2 Pr1_2 1_555 1_555
O6_3 Pr1_2 1_555 1_555
O7_2 Pr1_2 1_555 1_555
O8_3 Pr1_2 1_555 1_555
O9_3 Pr1_2 1_555 1_555
O10_3 Pr2_2 1_555 1_555
O11_2 Pr2_2 1_555 1_555
O14_4 Pr2_2 1_555 1_555
O15_2 Pr2_2 1_555 1_555
Pr2 O9_2 1_555 1_555
O7 C19 1_555 1_555
O9 Pr1_4 1_555 1_555
O10 C23 1_555 1_555
O14 Pr2_3 1_555 1_555
O15 C8 1_555 1_555
C6 C7 1_555 1_555
C7 C23 1_555 1_555
C17 C18 1_555 1_555
C20A C21A 1_555 1_555
O7A Pr1A 1_555 1_555
C9A C10A 1_555 1_555
O15A Pr2A 1_555 1_555
O16_2 Pr2_2 1_555 1_555
C17_2 C18_2 1_555 1_555
C18_2 C24_2 1_555 1_555
O9_2 C1_2 1_555 1_555
C6_2 C7_2 1_555 1_555
Pr2_2 O9_3 1_555 1_555

#END
