
#######################################################################
#
#                 Cambridge Crystallographic Data Centre
#                                CCDC 
#
#######################################################################
#
# If this CIF has been generated from an entry in the Cambridge 
# Structural Database, then it will include bibliographic, chemical, 
# crystal, experimental, refinement or atomic coordinate data resulting 
# from the CCDC's data processing and validation procedures.
#
#######################################################################

data_ATIKIX
_symmetry_cell_setting           triclinic
_symmetry_space_group_name_H-M   'P -1'
_symmetry_Int_Tables_number      2
_space_group_name_Hall           '-P 1'
loop_
_symmetry_equiv_pos_site_id
_symmetry_equiv_pos_as_xyz
1 x,y,z
2 -x,-y,-z
_cell_length_a                   6.12720(10)
_cell_length_b                   8.8099(3)
_cell_length_c                   12.8788(4)
_cell_angle_alpha                95.060(2)
_cell_angle_beta                 99.1430(10)
_cell_angle_gamma                110.302(2)
_cell_volume                     635.967
loop_
_atom_site_label
_atom_site_type_symbol
_atom_site_fract_x
_atom_site_fract_y
_atom_site_fract_z
Y1 Y 0.14395(7) 0.77607(5) 0.60053(3)
O1 O -0.0993(7) 0.5142(4) 0.6057(3)
O2 O -0.8247(7) 0.0369(4) 0.5876(3)
O3 O 0.2208(6) 0.8205(5) 0.7911(3)
O4 O 0.3801(6) 0.6121(4) 0.6323(3)
O5 O 0.5542(6) 0.9499(4) 0.6407(3)
O6 O -0.2671(6) 0.2446(4) 0.5629(3)
O7 O -0.7951(6) 0.2763(4) 0.5355(3)
O8 O -0.1205(6) 0.8251(5) 0.7135(3)
C1 C -0.2272(8) 0.3768(6) 0.6224(4)
C2 C -0.3422(9) 0.3661(6) 0.7175(4)
C3 C -0.2041(10) 0.4426(7) 0.8179(4)
H1 H -0.0441 0.5060 0.8248
C4 C -0.3042(12) 0.4244(8) 0.9073(5)
H2 H -0.2106 0.4727 0.9744
C5 C -0.5439(12) 0.3343(7) 0.8965(5)
H3 H -0.6112 0.3236 0.9566
C6 C -0.6846(10) 0.2599(7) 0.7976(4)
H4 H -0.8458 0.2002 0.7911
C7 C -0.5844(9) 0.2745(6) 0.7076(4)
C8 C 0.0378(9) 0.8503(6) 0.7973(4)
C9 C 0.0105(9) 0.9229(6) 0.9020(4)
C10 C -0.1684(9) 0.9840(7) 0.9092(4)
H5 H -0.2819 0.9732 0.8489
C11 C 0.1782(9) 0.9387(7) 0.9935(4)
H6 H 0.2975 0.8973 0.9894
C12 C -0.7455(8) 0.1886(6) 0.6009(4)
C11A C -0.1782(9) 1.0613(7) 1.0065(4)
C9A C -0.0105(9) 1.0771(6) 1.0980(4)
C8A C -0.0378(9) 1.1497(6) 1.2027(4)
O3A O -0.2208(6) 1.1795(5) 1.2089(3)
O8A O 0.1205(6) 1.1749(5) 1.2865(3)
C10A C 0.1684(9) 1.0160(7) 1.0908(4)
H5A H 0.2819 1.0268 1.1511
H6A H -0.2975 1.1027 1.0106
O1_2 O 0.9007(7) 1.5142(4) 0.6057(3)
O2_2 O 0.1753(7) 1.0369(4) 0.5876(3)
O6_2 O 0.7329(6) 1.2446(4) 0.5629(3)
O7_2 O 0.2049(6) 1.2763(4) 0.5355(3)
C1_2 C 0.7728(8) 1.3768(6) 0.6224(4)
C2_2 C 0.6578(9) 1.3661(6) 0.7175(4)
C3_2 C 0.7959(10) 1.4426(7) 0.8179(4)
H1_2 H 0.9559 1.5060 0.8248
C4_2 C 0.6958(12) 1.4244(8) 0.9073(5)
H2_2 H 0.7894 1.4727 0.9744
C5_2 C 0.4561(12) 1.3343(7) 0.8965(5)
H3_2 H 0.3888 1.3236 0.9566
C6_2 C 0.3154(10) 1.2599(7) 0.7976(4)
H4_2 H 0.1542 1.2002 0.7911
C7_2 C 0.4156(9) 1.2745(6) 0.7076(4)
C12_2 C 0.2545(8) 1.1886(6) 0.6009(4)
Y1_2 Y 1.14395(7) 1.77607(5) 0.60053(3)
O4_2 O 1.3801(6) 1.6121(4) 0.6323(3)
O5_2 O 1.5542(6) 1.9499(4) 0.6407(3)
O6A O 0.2671(6) 0.7554(4) 0.4371(3)
O7A O -0.2049(6) 0.7237(4) 0.4645(3)
Y1_3 Y -0.85605(7) -0.22393(5) 0.60053(3)
Y1A Y -0.14395(7) 0.22393(5) 0.39947(3)
Y1A_2 Y -1.14395(7) 0.22393(5) 0.39947(3)
Y1A_3 Y -0.14395(7) 1.22393(5) 1.39947(3)
Y1A_4 Y 0.85605(7) 1.22393(5) 0.39947(3)
Y1A_5 Y -0.14395(7) 1.22393(5) 0.39947(3)
O2_3 O 1.1753(7) 2.0369(4) 0.5876(3)
O3_2 O 1.2208(6) 1.8205(5) 0.7911(3)
O6A_2 O 1.2671(6) 1.7554(4) 0.4371(3)
O7A_2 O 0.7951(6) 1.7237(4) 0.4645(3)
O8_2 O 0.8795(6) 1.8251(5) 0.7135(3)
loop_
_geom_bond_atom_site_label_1
_geom_bond_atom_site_label_2
_geom_bond_site_symmetry_1
_geom_bond_site_symmetry_2
Y1 O1 1_555 1_555
O1 C1 1_555 1_555
O2 C12 1_555 1_555
O3 Y1 1_555 1_555
O4 Y1 1_555 1_555
O5 Y1 1_555 1_555
O6 C1 1_555 1_555
O7 C12 1_555 1_555
O8 Y1 1_555 1_555
C1 C2 1_555 1_555
C2 C3 1_555 1_555
C3 H1 1_555 1_555
C4 C3 1_555 1_555
H2 C4 1_555 1_555
C5 C4 1_555 1_555
H3 C5 1_555 1_555
C6 C5 1_555 1_555
H4 C6 1_555 1_555
C7 C2 1_555 1_555
C8 O3 1_555 1_555
C9 C8 1_555 1_555
C10 C9 1_555 1_555
H5 C10 1_555 1_555
C11 C9 1_555 1_555
H6 C11 1_555 1_555
C12 C7 1_555 1_555
C11A C10 1_555 1_555
C9A C11A 1_555 1_555
C8A C9A 1_555 1_555
O3A C8A 1_555 1_555
O8A C8A 1_555 1_555
C10A C11 1_555 1_555
H5A C10A 1_555 1_555
H6A C11A 1_555 1_555
O1_2 C1_2 1_555 1_555
O2_2 Y1 1_555 1_555
O6_2 C1_2 1_555 1_555
O7_2 C12_2 1_555 1_555
C1_2 C2_2 1_555 1_555
C2_2 C3_2 1_555 1_555
C3_2 H1_2 1_555 1_555
C4_2 C3_2 1_555 1_555
H2_2 C4_2 1_555 1_555
C5_2 C4_2 1_555 1_555
H3_2 C5_2 1_555 1_555
C6_2 C5_2 1_555 1_555
H4_2 C6_2 1_555 1_555
C7_2 C2_2 1_555 1_555
C12_2 O2_2 1_555 1_555
Y1_2 O1_2 1_555 1_555
O4_2 Y1_2 1_555 1_555
O5_2 Y1_2 1_555 1_555
O6A Y1 1_555 1_555
O7A Y1 1_555 1_555
Y1_3 O2 1_555 1_555
Y1A O6 1_555 1_555
Y1A_2 O7 1_555 1_555
Y1A_3 O3A 1_555 1_555
Y1A_4 O6_2 1_555 1_555
Y1A_5 O7_2 1_555 1_555
O2_3 Y1_2 1_555 1_555
O3_2 Y1_2 1_555 1_555
O6A_2 Y1_2 1_555 1_555
O7A_2 Y1_2 1_555 1_555
O8_2 Y1_2 1_555 1_555
O8 C8 1_555 1_555
C6 C7 1_555 1_555
C9A C10A 1_555 1_555
O8A Y1A_3 1_555 1_555
C6_2 C7_2 1_555 1_555
C7_2 C12_2 1_555 1_555

#END
