
#######################################################################
#
#                 Cambridge Crystallographic Data Centre
#                                CCDC 
#
#######################################################################
#
# If this CIF has been generated from an entry in the Cambridge 
# Structural Database, then it will include bibliographic, chemical, 
# crystal, experimental, refinement or atomic coordinate data resulting 
# from the CCDC's data processing and validation procedures.
#
#######################################################################

data_ATIQUP
_symmetry_cell_setting           triclinic
_symmetry_space_group_name_H-M   'P -1'
_symmetry_Int_Tables_number      2
_space_group_name_Hall           '-P 1'
loop_
_symmetry_equiv_pos_site_id
_symmetry_equiv_pos_as_xyz
1 x,y,z
2 -x,-y,-z
_cell_length_a                   10.3818(6)
_cell_length_b                   12.3041(7)
_cell_length_c                   12.3481(7)
_cell_angle_alpha                97.2070(10)
_cell_angle_beta                 109.4110(10)
_cell_angle_gamma                113.0810(10)
_cell_volume                     1307.79
loop_
_atom_site_label
_atom_site_type_symbol
_atom_site_fract_x
_atom_site_fract_y
_atom_site_fract_z
Zn1 Zn 0.42885(5) 0.29792(4) -0.00068(4)
Zn2 Zn -0.03420(5) 0.18954(4) -0.44615(4)
P1 P 0.10513(12) 0.29576(10) -0.16744(10)
P2 P -0.21642(12) -0.09023(9) -0.63010(10)
P3 P 0.45321(13) 0.53394(10) 0.16662(9)
O1 O 0.0539(4) 0.3315(4) -0.0687(3)
O2 O 0.2862(4) 0.4584(3) 0.1347(3)
O3 O 0.1922(4) 0.4178(3) -0.1932(4)
O4 O 0.5422(4) 0.5759(3) 0.3095(3)
O5 O -0.1378(4) -0.0362(3) -0.7131(4)
O6 O -0.1691(4) 0.0138(3) -0.5257(3)
O7 O -0.0294(3) 0.2106(3) -0.2810(3)
O8 O -0.3940(4) -0.1416(3) -0.7030(3)
O9 O 0.2117(3) 0.2408(3) -0.1160(3)
O10 O 0.5210(3) 0.4588(2) 0.1177(3)
O11 O 0.4955(4) 0.6530(3) 0.1299(3)
O12 O -0.1842(3) -0.1962(3) -0.6037(3)
N1 N 0.5866(4) 0.2244(3) 0.0455(3)
N2 N 0.3493(4) 0.1762(3) 0.1004(3)
N3 N 0.0166(4) 0.2929(3) -0.5637(3)
N4 N -0.2047(5) 0.2561(3) -0.4915(3)
C1 C 0.7022(6) 0.2489(5) 0.0102(4)
C2 C 0.8000(6) 0.1972(5) 0.0400(5)
C3 C 0.7806(6) 0.1192(5) 0.1098(5)
C4 C 0.6647(5) 0.0949(4) 0.1486(4)
C5 C 0.5680(5) 0.1479(4) 0.1148(4)
C6 C 0.4373(5) 0.1239(4) 0.1487(4)
C7 C 0.4057(6) 0.0529(4) 0.2233(4)
C8 C 0.2793(7) 0.0332(5) 0.2474(5)
C9 C 0.1891(7) 0.0848(6) 0.1970(6)
C10 C 0.2269(6) 0.1566(5) 0.1246(5)
C11 C 0.1300(6) 0.3069(5) -0.5994(4)
C12 C 0.1625(6) 0.3771(5) -0.6736(5)
C13 C 0.0764(7) 0.4363(5) -0.7140(5)
C14 C -0.0408(6) 0.4221(4) -0.6790(4)
C15 C -0.0702(5) 0.3494(4) -0.6055(4)
C16 C -0.1972(5) 0.3271(4) -0.5659(4)
C17 C -0.2973(6) 0.3764(4) -0.6007(4)
C18 C -0.4092(7) 0.3512(5) -0.5576(5)
C19 C -0.4184(7) 0.2789(6) -0.4818(5)
C20 C -0.3158(6) 0.2330(5) -0.4512(5)
H1 H -0.055(4) 0.298(3) -0.152(3)
H2 H 0.282(8) 0.450(6) -0.167(6)
H3 H 0.619(5) 0.627(4) 0.331(4)
H4 H -0.150(6) -0.084(4) -0.758(4)
H5 H -0.423(7) -0.200(5) -0.748(5)
H6 H 0.707(6) 0.305(5) -0.038(5)
H7 H 0.884(5) 0.223(4) 0.016(4)
H8 H 0.860(6) 0.098(5) 0.140(5)
H9 H 0.651(6) 0.037(5) 0.199(5)
H10 H 0.467(6) 0.021(4) 0.258(4)
H11 H 0.256(5) -0.020(4) 0.286(4)
H12 H 0.116(6) 0.080(5) 0.205(5)
H13 H 0.168(5) 0.195(4) 0.088(4)
H14 H 0.176(6) 0.257(5) -0.576(5)
H15 H 0.247(7) 0.388(6) -0.700(6)
H16 H 0.103(6) 0.487(5) -0.756(5)
H17 H -0.091(6) 0.463(5) -0.696(5)
H18 H -0.291(6) 0.429(4) -0.654(4)
H19 H -0.479(7) 0.382(5) -0.577(5)
H20 H -0.501(7) 0.257(5) -0.448(5)
H21 H -0.321(6) 0.183(5) -0.404(5)
O11A O 0.5045(4) 0.3470(3) -0.1299(3)
O12A O 0.1842(3) 0.1962(3) -0.3963(3)
Zn1A Zn 0.57115(5) 0.70208(4) 0.00068(4)
Zn2A Zn 0.03420(5) -0.18954(4) -0.55385(4)
loop_
_geom_bond_atom_site_label_1
_geom_bond_atom_site_label_2
_geom_bond_site_symmetry_1
_geom_bond_site_symmetry_2
Zn1 O9 1_555 1_555
Zn2 O6 1_555 1_555
P1 O1 1_555 1_555
P2 O5 1_555 1_555
P3 O2 1_555 1_555
O1 H1 1_555 1_555
O3 P1 1_555 1_555
O4 P3 1_555 1_555
O5 H4 1_555 1_555
O6 P2 1_555 1_555
O7 Zn2 1_555 1_555
O8 P2 1_555 1_555
O9 P1 1_555 1_555
O10 Zn1 1_555 1_555
O11 P3 1_555 1_555
O12 P2 1_555 1_555
N1 Zn1 1_555 1_555
N2 Zn1 1_555 1_555
N3 Zn2 1_555 1_555
N4 Zn2 1_555 1_555
C1 N1 1_555 1_555
C2 C1 1_555 1_555
C3 C2 1_555 1_555
C4 C3 1_555 1_555
C5 N1 1_555 1_555
C6 N2 1_555 1_555
C7 C6 1_555 1_555
C8 C7 1_555 1_555
C9 C8 1_555 1_555
C10 N2 1_555 1_555
C11 N3 1_555 1_555
C12 C11 1_555 1_555
C13 C12 1_555 1_555
C14 C13 1_555 1_555
C15 N3 1_555 1_555
C16 N4 1_555 1_555
C17 C16 1_555 1_555
C18 C17 1_555 1_555
C19 C18 1_555 1_555
C20 N4 1_555 1_555
H2 O3 1_555 1_555
H3 O4 1_555 1_555
H5 O8 1_555 1_555
H6 C1 1_555 1_555
H7 C2 1_555 1_555
H8 C3 1_555 1_555
H9 C4 1_555 1_555
H10 C7 1_555 1_555
H11 C8 1_555 1_555
H12 C9 1_555 1_555
H13 C10 1_555 1_555
H14 C11 1_555 1_555
H15 C12 1_555 1_555
H16 C13 1_555 1_555
H17 C14 1_555 1_555
H18 C17 1_555 1_555
H19 C18 1_555 1_555
H20 C19 1_555 1_555
H21 C20 1_555 1_555
O11A Zn1 1_555 1_555
O12A Zn2 1_555 1_555
Zn1A O11 1_555 1_555
Zn2A O12 1_555 1_555
P1 O7 1_555 1_555
P3 O10 1_555 1_555
C4 C5 1_555 1_555
C5 C6 1_555 1_555
C9 C10 1_555 1_555
C14 C15 1_555 1_555
C15 C16 1_555 1_555
C19 C20 1_555 1_555

#END
