
#######################################################################
#
#                 Cambridge Crystallographic Data Centre
#                                CCDC 
#
#######################################################################
#
# If this CIF has been generated from an entry in the Cambridge 
# Structural Database, then it will include bibliographic, chemical, 
# crystal, experimental, refinement or atomic coordinate data resulting 
# from the CCDC's data processing and validation procedures.
#
#######################################################################

data_ATIZEJ
_symmetry_cell_setting           monoclinic
_symmetry_space_group_name_H-M   'C 2/c'
_symmetry_Int_Tables_number      15
_space_group_name_Hall           '-C 2yn'
loop_
_symmetry_equiv_pos_site_id
_symmetry_equiv_pos_as_xyz
1 x,y,z
2 -x,y,1/2-z
3 1/2+x,1/2+y,z
4 1/2-x,1/2+y,1/2-z
5 -x,-y,-z
6 x,-y,1/2+z
7 1/2-x,1/2-y,-z
8 1/2+x,1/2-y,1/2+z
_cell_length_a                   33.907(8)
_cell_length_b                   13.880(4)
_cell_length_c                   12.174(3)
_cell_angle_alpha                90
_cell_angle_beta                 108.761(4)
_cell_angle_gamma                90
_cell_volume                     5425.03
loop_
_atom_site_label
_atom_site_type_symbol
_atom_site_fract_x
_atom_site_fract_y
_atom_site_fract_z
Sm1 Sm 0.0000 0.76181(4) -0.2500
N1 N 0.3356(2) 0.9048(7) 0.3633(7)
N2 N 0.2762(2) 0.8990(5) 0.5586(6)
N3 N 0.1939(2) 0.8517(7) 0.6765(7)
N4 N -0.03465(19) 0.8434(4) -0.1184(5)
N5 N 0.0000 0.9450(6) -0.2500
O1 O 0.07348(19) 0.8060(6) -0.1511(6)
O2 O 0.04511(19) 0.7184(5) -0.0510(5)
O3 O 0.02536(17) 1.6056(4) -0.2882(5)
C1 C 0.1871(3) 0.8435(10) 0.7773(10)
H1 H 0.1598 0.8355 0.7773
C2 C 0.2188(4) 0.8465(10) 0.8828(10)
H2 H 0.2132 0.8360 0.9518
C3 C 0.2592(4) 0.8653(8) 0.8835(8)
H3 H 0.2811 0.8693 0.9529
C4 C 0.2656(3) 0.8776(7) 0.7796(7)
H4 H 0.2921 0.8911 0.7770
C5 C 0.2321(3) 0.8698(7) 0.6770(8)
C6 C 0.2379(3) 0.8755(6) 0.5618(7)
C7 C 0.2052(2) 0.8527(6) 0.4602(7)
H5 H 0.1790 0.8369 0.4636
C8 C 0.2128(2) 0.8541(6) 0.3548(7)
C9 C 0.2523(2) 0.8757(6) 0.3534(7)
H6 H 0.2585 0.8742 0.2844
C10 C 0.2826(2) 0.8998(6) 0.4563(7)
C11 C 0.3258(3) 0.9233(7) 0.4577(9)
C12 C 0.3538(3) 0.9647(9) 0.5565(9)
H7 H 0.3464 0.9741 0.6230
C13 C 0.3924(3) 0.9912(11) 0.5537(13)
H8 H 0.4104 1.0260 0.6145
C14 C 0.4038(3) 0.9656(11) 0.4598(13)
H9 H 0.4309 0.9754 0.4594
C15 C 0.3746(4) 0.9255(9) 0.3671(11)
H10 H 0.3822 0.9114 0.3019
C16 C 0.1779(2) 0.8288(6) 0.2467(7)
C17 C 0.1492(3) 0.7584(7) 0.2489(7)
H11 H 0.1519 0.7261 0.3178
C18 C 0.1162(2) 0.7351(7) 0.1491(7)
H12 H 0.0967 0.6884 0.1510
C19 C 0.1133(2) 0.7839(6) 0.0465(6)
C20 C 0.1427(2) 0.8514(6) 0.0431(7)
H13 H 0.1409 0.8816 -0.0265
C21 C 0.1747(2) 0.8741(7) 0.1424(7)
H14 H 0.1943 0.9201 0.1397
C22 C 0.0749(2) 0.7663(6) -0.0568(7)
C23 C -0.0558(3) 0.7861(6) -0.0667(7)
H15 H -0.0509 0.7200 -0.0639
C24 C -0.0839(3) 0.8214(7) -0.0188(8)
H16 H -0.0976 0.7808 0.0177
C25 C -0.0914(3) 0.9170(8) -0.0255(10)
H17 H -0.1110 0.9424 0.0051
C26 C -0.0704(3) 0.9774(7) -0.0771(9)
H18 H -0.0747 1.0436 -0.0793
C27 C -0.0425(2) 0.9359(6) -0.1259(6)
C28 C -0.0207(2) 0.9951(5) -0.1901(6)
C29 C -0.0215(2) 1.0946(6) -0.1915(7)
H19 H -0.0368 1.1272 -0.1521
C30 C 0.0000 1.1460(8) -0.2500
C31 C 0.0000 1.2527(7) -0.2500
C32 C -0.0129(3) 1.3046(6) -0.1698(8)
H20 H -0.0213 1.2718 -0.1145
C33 C -0.0133(3) 1.4044(6) -0.1709(7)
H21 H -0.0227 1.4376 -0.1178
C34 C 0.0000 1.4550(8) -0.2500
C35 C 0.0000 1.5628(8) -0.2500
Sm1_2 Sm 0.0000 1.76181(4) -0.2500
N1A N -0.3356(2) 0.9048(7) -0.8633(7)
N2A N -0.2762(2) 0.8990(5) -1.0586(6)
N3A N -0.1939(2) 0.8517(7) -1.1765(7)
N4A N 0.03465(19) 0.8434(4) -0.3816(5)
O1A O -0.07348(19) 0.8060(6) -0.3489(6)
O2A O -0.04511(19) 0.7184(5) -0.4490(5)
O3A O -0.02536(17) 1.6056(4) -0.2118(5)
O3_2 O 0.02536(17) 0.6056(4) -0.2882(5)
O3A_2 O -0.02536(17) 0.6056(4) -0.2118(5)
C1A C -0.1871(3) 0.8435(10) -1.2773(10)
H1A H -0.1598 0.8355 -1.2773
C2A C -0.2188(4) 0.8465(10) -1.3828(10)
H2A H -0.2132 0.8360 -1.4518
C3A C -0.2592(4) 0.8653(8) -1.3835(8)
H3A H -0.2811 0.8693 -1.4529
C4A C -0.2656(3) 0.8776(7) -1.2796(7)
H4A H -0.2921 0.8911 -1.2770
C5A C -0.2321(3) 0.8698(7) -1.1770(8)
C6A C -0.2379(3) 0.8755(6) -1.0618(7)
C7A C -0.2052(2) 0.8527(6) -0.9602(7)
H5A H -0.1790 0.8369 -0.9636
C8A C -0.2128(2) 0.8541(6) -0.8548(7)
C9A C -0.2523(2) 0.8757(6) -0.8534(7)
H6A H -0.2585 0.8742 -0.7844
C10A C -0.2826(2) 0.8998(6) -0.9563(7)
C11A C -0.3258(3) 0.9233(7) -0.9577(9)
C12A C -0.3538(3) 0.9647(9) -1.0565(9)
H7A H -0.3464 0.9741 -1.1230
C13A C -0.3924(3) 0.9912(11) -1.0537(13)
H8A H -0.4104 1.0260 -1.1145
C14A C -0.4038(3) 0.9656(11) -0.9598(13)
H9A H -0.4309 0.9754 -0.9594
C15A C -0.3746(4) 0.9255(9) -0.8671(11)
H10A H -0.3822 0.9114 -0.8019
C16A C -0.1779(2) 0.8288(6) -0.7467(7)
C17A C -0.1492(3) 0.7584(7) -0.7489(7)
H11A H -0.1519 0.7261 -0.8178
C18A C -0.1162(2) 0.7351(7) -0.6491(7)
H12A H -0.0967 0.6884 -0.6510
C19A C -0.1133(2) 0.7839(6) -0.5465(6)
C20A C -0.1427(2) 0.8514(6) -0.5431(7)
H13A H -0.1409 0.8816 -0.4735
C21A C -0.1747(2) 0.8741(7) -0.6424(7)
H14A H -0.1943 0.9201 -0.6397
C22A C -0.0749(2) 0.7663(6) -0.4432(7)
C23A C 0.0558(3) 0.7861(6) -0.4333(7)
H15A H 0.0509 0.7200 -0.4361
C24A C 0.0839(3) 0.8214(7) -0.4812(8)
H16A H 0.0976 0.7808 -0.5177
C25A C 0.0914(3) 0.9170(8) -0.4745(10)
H17A H 0.1110 0.9424 -0.5051
C26A C 0.0704(3) 0.9774(7) -0.4229(9)
H18A H 0.0747 1.0436 -0.4207
C27A C 0.0425(2) 0.9359(6) -0.3741(6)
C28A C 0.0207(2) 0.9951(5) -0.3099(6)
C29A C 0.0215(2) 1.0946(6) -0.3085(7)
H19A H 0.0368 1.1272 -0.3479
C32A C 0.0129(3) 1.3046(6) -0.3302(8)
H20A H 0.0213 1.2718 -0.3855
C33A C 0.0133(3) 1.4044(6) -0.3291(7)
H21A H 0.0227 1.4376 -0.3822
loop_
_geom_bond_atom_site_label_1
_geom_bond_atom_site_label_2
_geom_bond_site_symmetry_1
_geom_bond_site_symmetry_2
Sm1 N4 1_555 1_555
N1 C11 1_555 1_555
N2 C6 1_555 1_555
N3 C1 1_555 1_555
N4 C23 1_555 1_555
N5 Sm1 1_555 1_555
O1 Sm1 1_555 1_555
O2 Sm1 1_555 1_555
O3 C35 1_555 1_555
C1 H1 1_555 1_555
C2 C1 1_555 1_555
H2 C2 1_555 1_555
C3 C2 1_555 1_555
H3 C3 1_555 1_555
C4 C3 1_555 1_555
H4 C4 1_555 1_555
C5 N3 1_555 1_555
C6 C5 1_555 1_555
C7 C6 1_555 1_555
H5 C7 1_555 1_555
C8 C7 1_555 1_555
C9 C8 1_555 1_555
H6 C9 1_555 1_555
C10 N2 1_555 1_555
C11 C10 1_555 1_555
C12 C11 1_555 1_555
H7 C12 1_555 1_555
C13 C12 1_555 1_555
H8 C13 1_555 1_555
C14 C13 1_555 1_555
H9 C14 1_555 1_555
C15 N1 1_555 1_555
H10 C15 1_555 1_555
C16 C8 1_555 1_555
C17 C16 1_555 1_555
H11 C17 1_555 1_555
C18 C17 1_555 1_555
H12 C18 1_555 1_555
C19 C18 1_555 1_555
C20 C19 1_555 1_555
H13 C20 1_555 1_555
C21 C16 1_555 1_555
H14 C21 1_555 1_555
C22 O1 1_555 1_555
C23 H15 1_555 1_555
C24 C23 1_555 1_555
H16 C24 1_555 1_555
C25 C24 1_555 1_555
H17 C25 1_555 1_555
C26 C25 1_555 1_555
H18 C26 1_555 1_555
C27 N4 1_555 1_555
C28 N5 1_555 1_555
C29 C28 1_555 1_555
H19 C29 1_555 1_555
C30 C29 1_555 1_555
C31 C30 1_555 1_555
C32 C31 1_555 1_555
H20 C32 1_555 1_555
C33 C32 1_555 1_555
H21 C33 1_555 1_555
C34 C33 1_555 1_555
C35 C34 1_555 1_555
Sm1_2 O3 1_555 1_555
N1A C11A 1_555 1_555
N2A C6A 1_555 1_555
N3A C1A 1_555 1_555
N4A Sm1 1_555 1_555
O1A Sm1 1_555 1_555
O2A Sm1 1_555 1_555
O3A C35 1_555 1_555
O3_2 Sm1 1_555 1_555
O3A_2 Sm1 1_555 1_555
C1A H1A 1_555 1_555
C2A C1A 1_555 1_555
H2A C2A 1_555 1_555
C3A C2A 1_555 1_555
H3A C3A 1_555 1_555
C4A C3A 1_555 1_555
H4A C4A 1_555 1_555
C5A N3A 1_555 1_555
C6A C5A 1_555 1_555
C7A C6A 1_555 1_555
H5A C7A 1_555 1_555
C8A C7A 1_555 1_555
C9A C8A 1_555 1_555
H6A C9A 1_555 1_555
C10A N2A 1_555 1_555
C11A C10A 1_555 1_555
C12A C11A 1_555 1_555
H7A C12A 1_555 1_555
C13A C12A 1_555 1_555
H8A C13A 1_555 1_555
C14A C13A 1_555 1_555
H9A C14A 1_555 1_555
C15A N1A 1_555 1_555
H10A C15A 1_555 1_555
C16A C8A 1_555 1_555
C17A C16A 1_555 1_555
H11A C17A 1_555 1_555
C18A C17A 1_555 1_555
H12A C18A 1_555 1_555
C19A C18A 1_555 1_555
C20A C19A 1_555 1_555
H13A C20A 1_555 1_555
C21A C16A 1_555 1_555
H14A C21A 1_555 1_555
C22A O1A 1_555 1_555
C23A N4A 1_555 1_555
H15A C23A 1_555 1_555
C24A C23A 1_555 1_555
H16A C24A 1_555 1_555
C25A C24A 1_555 1_555
H17A C25A 1_555 1_555
C26A C25A 1_555 1_555
H18A C26A 1_555 1_555
C27A N4A 1_555 1_555
C28A N5 1_555 1_555
C29A C30 1_555 1_555
H19A C29A 1_555 1_555
C32A C31 1_555 1_555
H20A C32A 1_555 1_555
C33A C34 1_555 1_555
H21A C33A 1_555 1_555
O2 C22 1_555 1_555
C4 C5 1_555 1_555
C9 C10 1_555 1_555
C14 C15 1_555 1_555
C19 C22 1_555 1_555
C20 C21 1_555 1_555
C26 C27 1_555 1_555
C27 C28 1_555 1_555
Sm1_2 O3A 1_555 1_555
O2A C22A 1_555 1_555
C4A C5A 1_555 1_555
C9A C10A 1_555 1_555
C14A C15A 1_555 1_555
C19A C22A 1_555 1_555
C20A C21A 1_555 1_555
C26A C27A 1_555 1_555
C27A C28A 1_555 1_555
C28A C29A 1_555 1_555
C32A C33A 1_555 1_555

#END
