
#######################################################################
#
#                 Cambridge Crystallographic Data Centre
#                                CCDC 
#
#######################################################################
#
# If this CIF has been generated from an entry in the Cambridge 
# Structural Database, then it will include bibliographic, chemical, 
# crystal, experimental, refinement or atomic coordinate data resulting 
# from the CCDC's data processing and validation procedures.
#
#######################################################################

data_ATOBER
_symmetry_cell_setting           monoclinic
_symmetry_space_group_name_H-M   'P 21/c'
_symmetry_Int_Tables_number      14
_space_group_name_Hall           '-P 2ybc'
loop_
_symmetry_equiv_pos_site_id
_symmetry_equiv_pos_as_xyz
1 x,y,z
2 -x,1/2+y,1/2-z
3 -x,-y,-z
4 x,1/2-y,1/2+z
_cell_length_a                   7.955(4)
_cell_length_b                   15.701(7)
_cell_length_c                   12.766(5)
_cell_angle_alpha                90
_cell_angle_beta                 115.78(2)
_cell_angle_gamma                90
_cell_volume                     1435.79
loop_
_atom_site_label
_atom_site_type_symbol
_atom_site_fract_x
_atom_site_fract_y
_atom_site_fract_z
Cu1 Cu 0.17896(4) -0.03609(2) 0.53986(3)
O1 O 0.2334(2) 0.07015(12) 0.48072(17)
O2 O -0.0632(3) 0.11852(13) 0.39504(18)
O3 O 0.0158(3) 0.43533(13) 0.11456(17)
O4 O -0.2127(3) 0.34891(15) 0.09896(19)
N1 N 0.4213(3) -0.03662(15) 0.6820(2)
C1 C -0.0470(4) 0.36932(18) 0.1455(2)
C2 C 0.6247(5) 0.3021(3) 0.4057(5)
H1 H 0.6686 0.3376 0.4736
H2 H 0.6421 0.3309 0.3448
H3 H 0.6938 0.2497 0.4241
C3 C 0.1710(4) 0.19762(19) 0.3727(2)
C4 C 0.1089(4) 0.12310(18) 0.4200(2)
C5 C 0.0946(4) 0.31690(19) 0.2413(3)
C6 C 0.0390(4) 0.24918(19) 0.2879(2)
H4 H -0.0874 0.2379 0.2624
C7 C 0.7700(5) -0.0400(2) 0.8760(3)
C8 C 0.3603(4) 0.2153(2) 0.4105(3)
H5 H 0.4488 0.1809 0.4668
C9 C 0.5706(4) 0.0014(2) 0.6815(3)
H6 H 0.5571 0.0303 0.6147
C10 C 0.2837(4) 0.3335(2) 0.2802(3)
H7 H 0.3213 0.3790 0.2487
C11 C 0.4184(4) 0.2831(2) 0.3655(4)
C12 C 0.7431(4) -0.0001(3) 0.7747(3)
H8 H 0.8433 0.0265 0.7689
C13 C 0.6158(6) -0.0796(3) 0.8770(4)
H9 H 0.6260 -0.1083 0.9433
C14 C 0.9558(6) -0.0401(3) 0.9802(4)
H10 H 0.9402 -0.0668 1.0439
H11 H 1.0399 -0.0757 0.9627
C15 C 0.4469(5) -0.0765(3) 0.7801(3)
H12 H 0.3452 -0.1037 0.7831
Cu1B Cu -0.17896(4) 0.03609(2) 0.46014(3)
Cu1A Cu -0.17896(4) 0.46391(2) -0.03986(3)
Cu1B_2 Cu 1.82104(4) 0.03609(2) 1.46014(3)
Cu1C Cu 0.17896(4) -0.46391(2) 1.03986(3)
O1B O -0.2334(2) -0.07015(12) 0.51928(17)
O2B O 0.0632(3) -0.11852(13) 0.60496(18)
O3B O -0.0158(3) -0.43533(13) 0.88544(17)
O3A O -0.0158(3) -0.06467(13) 0.38544(17)
O3C O 0.0158(3) 0.06467(13) 0.61456(17)
O4B O 0.2127(3) -0.34891(15) 0.90104(19)
N1B N 1.5787(3) 0.03662(15) 1.3180(2)
N1B_2 N -0.4213(3) 0.03662(15) 0.3180(2)
C1B C 0.0470(4) -0.36932(18) 0.8545(2)
C2B C -0.6247(5) -0.3021(3) 0.5943(5)
H1B H -0.6686 -0.3376 0.5264
H2B H -0.6421 -0.3309 0.6552
H3B H -0.6938 -0.2497 0.5759
C3B C -0.1710(4) -0.19762(19) 0.6273(2)
C4B C -0.1089(4) -0.12310(18) 0.5800(2)
C5B C -0.0946(4) -0.31690(19) 0.7587(3)
C6B C -0.0390(4) -0.24918(19) 0.7121(2)
H4B H 0.0874 -0.2379 0.7376
C7B C 1.2300(5) 0.0400(2) 1.1240(3)
C8B C -0.3603(4) -0.2153(2) 0.5895(3)
H5B H -0.4488 -0.1809 0.5332
C9B C 1.4294(4) -0.0014(2) 1.3185(3)
H6B H 1.4429 -0.0303 1.3853
C10B C -0.2837(4) -0.3335(2) 0.7198(3)
H7B H -0.3213 -0.3790 0.7513
C11B C -0.4184(4) -0.2831(2) 0.6345(4)
C12B C 1.2569(4) 0.0001(3) 1.2253(3)
H8B H 1.1567 -0.0265 1.2311
C13B C 1.3842(6) 0.0796(3) 1.1230(4)
H9B H 1.3740 0.1083 1.0567
C14B C 1.0442(6) 0.0401(3) 1.0198(4)
H10B H 1.0598 0.0668 0.9561
H11B H 0.9601 0.0757 1.0373
C15B C 1.5531(5) 0.0765(3) 1.2199(3)
H12B H 1.6548 0.1037 1.2169
loop_
_geom_bond_atom_site_label_1
_geom_bond_atom_site_label_2
_geom_bond_site_symmetry_1
_geom_bond_site_symmetry_2
Cu1 O1 1_555 1_555
O1 C4 1_555 1_555
O2 C4 1_555 1_555
O3 C1 1_555 1_555
O4 C1 1_555 1_555
N1 Cu1 1_555 1_555
C1 C5 1_555 1_555
C2 H1 1_555 1_555
H2 C2 1_555 1_555
H3 C2 1_555 1_555
C3 C4 1_555 1_555
C5 C6 1_555 1_555
C6 C3 1_555 1_555
H4 C6 1_555 1_555
C7 C12 1_555 1_555
C8 C3 1_555 1_555
H5 C8 1_555 1_555
C9 N1 1_555 1_555
H6 C9 1_555 1_555
C10 C5 1_555 1_555
H7 C10 1_555 1_555
C11 C2 1_555 1_555
C12 C9 1_555 1_555
H8 C12 1_555 1_555
C13 C7 1_555 1_555
H9 C13 1_555 1_555
C14 C7 1_555 1_555
H10 C14 1_555 1_555
H11 C14 1_555 1_555
C15 N1 1_555 1_555
H12 C15 1_555 1_555
Cu1B O2 1_555 1_555
Cu1A O3 1_555 1_555
Cu1B_2 N1B 1_555 1_555
Cu1C O3B 1_555 1_555
O1B Cu1B 1_555 1_555
O2B Cu1 1_555 1_555
O3B C1B 1_555 1_555
O3A Cu1 1_555 1_555
O3C Cu1B 1_555 1_555
O4B C1B 1_555 1_555
N1B C9B 1_555 1_555
N1B_2 Cu1B 1_555 1_555
C1B C5B 1_555 1_555
C2B H1B 1_555 1_555
H2B C2B 1_555 1_555
H3B C2B 1_555 1_555
C3B C4B 1_555 1_555
C4B O1B 1_555 1_555
C5B C6B 1_555 1_555
C6B C3B 1_555 1_555
H4B C6B 1_555 1_555
C7B C12B 1_555 1_555
C8B C3B 1_555 1_555
H5B C8B 1_555 1_555
C9B H6B 1_555 1_555
C10B C5B 1_555 1_555
H7B C10B 1_555 1_555
C11B C2B 1_555 1_555
C12B C9B 1_555 1_555
H8B C12B 1_555 1_555
C13B C7B 1_555 1_555
H9B C13B 1_555 1_555
C14B C14 1_555 1_555
H10B C14B 1_555 1_555
H11B C14B 1_555 1_555
C15B N1B 1_555 1_555
H12B C15B 1_555 1_555
C8 C11 1_555 1_555
C10 C11 1_555 1_555
C13 C15 1_555 1_555
O2B C4B 1_555 1_555
C7B C14B 1_555 1_555
C8B C11B 1_555 1_555
C10B C11B 1_555 1_555
C13B C15B 1_555 1_555

#END
