
#######################################################################
#
#                 Cambridge Crystallographic Data Centre
#                                CCDC 
#
#######################################################################
#
# If this CIF has been generated from an entry in the Cambridge 
# Structural Database, then it will include bibliographic, chemical, 
# crystal, experimental, refinement or atomic coordinate data resulting 
# from the CCDC's data processing and validation procedures.
#
#######################################################################

data_ATOJID
_symmetry_cell_setting           triclinic
_symmetry_space_group_name_H-M   'P -1'
_symmetry_Int_Tables_number      2
_space_group_name_Hall           '-P 1'
loop_
_symmetry_equiv_pos_site_id
_symmetry_equiv_pos_as_xyz
1 x,y,z
2 -x,-y,-z
_cell_length_a                   11.431(2)
_cell_length_b                   13.858(3)
_cell_length_c                   15.183(3)
_cell_angle_alpha                116.200(3)
_cell_angle_beta                 91.130(3)
_cell_angle_gamma                113.540(3)
_cell_volume                     1921.44
loop_
_atom_site_label
_atom_site_type_symbol
_atom_site_fract_x
_atom_site_fract_y
_atom_site_fract_z
Ag1 Ag 1.46326(9) 1.70136(10) 0.99970(5)
C20 C 1.6804(7) 2.0975(6) 1.5498(5)
H18 H 1.7561 2.1140 1.5256
C21 C 1.5562(6) 2.0120(6) 1.4806(4)
C22 C 1.5426(7) 1.9508(6) 1.3745(5)
H19 H 1.6170 1.9673 1.3488
C23 C 1.4221(7) 1.8678(6) 1.3092(5)
C24 C 1.3102(7) 1.8440(6) 1.3482(5)
H20 H 1.2282 1.7877 1.3042
C25 C 1.4068(9) 1.7975(8) 1.1966(6)
C26 C 1.4303(6) 1.6010(6) 0.7787(5)
C27 C 1.6115(3) 1.6420(3) 0.6855(2)
H21 H 1.6705 1.6992 0.7478
C28 C 1.4768(3) 1.5758(3) 0.6813(2)
C29 C 1.3913(3) 1.4901(3) 0.5893(2)
H22 H 1.3038 1.4461 0.5868
C30 C 1.4326(6) 1.4665(5) 0.4977(4)
C31 C 1.3457(4) 1.3777(4) 0.4005(3)
H23 H 1.2579 1.3323 0.3962
O1 O 1.3038(8) 1.7071(8) 1.1445(5)
O4 O 1.5014(7) 1.8296(7) 1.1624(4)
O8 O 1.3096(4) 1.5690(4) 0.7730(3)
O11 O 1.5174(4) 1.6512(4) 0.8580(3)
Ag1A Ag 1.53674(9) 1.29864(10) 0.00030(5)
Ag1A_2 Ag 1.53674(9) 2.29864(10) 2.00030(5)
C20A C 1.3196(7) 1.9025(6) 1.4502(5)
H18A H 1.2439 1.8860 1.4744
C21A C 1.4438(6) 1.9880(6) 1.5194(4)
C22A C 1.4574(7) 2.0492(6) 1.6255(5)
H19A H 1.3830 2.0327 1.6512
C23A C 1.5779(7) 2.1322(6) 1.6908(5)
C24A C 1.6898(7) 2.1560(6) 1.6518(5)
H20A H 1.7718 2.2123 1.6958
C25A C 1.5932(9) 2.2025(8) 1.8034(6)
C26A C 1.5697(6) 1.3990(6) 0.2213(5)
C27A C 1.3885(3) 1.3580(3) 0.3145(2)
H21A H 1.3295 1.3008 0.2522
C28A C 1.5232(3) 1.4242(3) 0.3187(2)
C29A C 1.6087(3) 1.5099(3) 0.4107(2)
H22A H 1.6962 1.5539 0.4132
C30A C 1.5674(6) 1.5335(5) 0.5023(4)
C31A C 1.6543(4) 1.6223(4) 0.5995(3)
H23A H 1.7421 1.6677 0.6038
O1A O 1.6962(8) 2.2929(8) 1.8555(5)
O4A O 1.4986(7) 2.1704(7) 1.8376(4)
O4A_2 O 1.4986(7) 1.1704(7) -0.1624(4)
O8A O 1.6904(4) 1.4310(4) 0.2270(3)
O11A O 1.4826(4) 1.3488(4) 0.1420(3)
N1 N 1.8684(5) 1.6264(5) 0.8476(4)
N2 N 1.7025(5) 1.4607(5) 0.7371(4)
N3 N 1.5527(5) 1.3125(5) 0.5856(4)
N4 N 1.4170(5) 1.1697(5) 0.4248(4)
N5 N 1.3335(6) 1.0486(5) 0.2650(4)
C1 C 1.7389(7) 1.5647(6) 0.8247(5)
H1 H 1.6828 1.5886 0.8623
C2 C 1.9169(7) 1.5623(7) 0.7729(6)
H2 H 2.0047 1.5856 0.7709
C3 C 1.8130(7) 1.4598(7) 0.7036(6)
H3 H 1.8156 1.3999 0.6441
C4 C 1.5685(6) 1.3719(6) 0.6844(5)
C5 C 1.4707(6) 1.3555(6) 0.7358(5)
H4 H 1.4885 1.3987 0.8059
C6 C 1.3435(7) 1.2710(6) 0.6772(5)
H5 H 1.2734 1.2572 0.7079
C7 C 1.3223(6) 1.2078(6) 0.5732(5)
H6 H 1.2384 1.1516 0.5324
C8 C 1.4297(7) 1.2311(6) 0.5324(5)
C9 C 1.3056(7) 1.0789(6) 0.3554(5)
H7 H 1.2245 1.0438 0.3682
C10 C 1.5163(7) 1.1958(6) 0.3757(5)
H8 H 1.6033 1.2539 0.4062
C11 C 1.4644(7) 1.1223(6) 0.2764(5)
H9 H 1.5077 1.1208 0.2250
C12 C 1.2324(8) 0.9617(7) 0.1686(5)
H10 H 1.1617 0.9008 0.1773
H11 H 1.2708 0.9215 0.1170
C13 C 1.1787(6) 1.0267(6) 0.1358(5)
C14 C 1.0884(7) 1.0609(6) 0.1820(5)
H12 H 1.0560 1.0372 0.2287
C15 C 1.0453(6) 1.1299(7) 0.1601(5)
H13 H 0.9852 1.1532 0.1923
C16 C 1.0933(6) 1.1645(6) 0.0884(4)
C17 C 1.1803(6) 1.1273(6) 0.0398(4)
H14 H 1.2104 1.1479 -0.0089
C18 C 1.2230(7) 1.0584(6) 0.0639(4)
H15 H 1.2819 1.0337 0.0312
C19 C 1.9455(6) 1.7522(6) 0.9307(5)
H16 H 2.0385 1.7771 0.9345
H17 H 1.9289 1.7570 0.9946
N1A N 1.1316(5) 1.3736(5) 0.1524(4)
N2A N 1.2975(5) 1.5393(5) 0.2629(4)
N3A N 1.4473(5) 1.6875(5) 0.4144(4)
N4A N 1.5830(5) 1.8303(5) 0.5752(4)
N5A N 1.6665(6) 1.9514(5) 0.7350(4)
C1A C 1.2611(7) 1.4353(6) 0.1753(5)
H1A H 1.3172 1.4114 0.1377
C2A C 1.0831(7) 1.4377(7) 0.2271(6)
H2A H 0.9953 1.4144 0.2291
C3A C 1.1870(7) 1.5402(7) 0.2964(6)
H3A H 1.1844 1.6001 0.3559
C4A C 1.4315(6) 1.6281(6) 0.3156(5)
C5A C 1.5293(6) 1.6445(6) 0.2642(5)
H4A H 1.5115 1.6013 0.1941
C6A C 1.6565(7) 1.7290(6) 0.3228(5)
H5A H 1.7266 1.7428 0.2921
C7A C 1.6777(6) 1.7922(6) 0.4268(5)
H6A H 1.7616 1.8484 0.4676
C8A C 1.5703(7) 1.7689(6) 0.4676(5)
C9A C 1.6944(7) 1.9211(6) 0.6446(5)
H7A H 1.7755 1.9562 0.6318
C10A C 1.4837(7) 1.8042(6) 0.6243(5)
H8A H 1.3967 1.7461 0.5938
C11A C 1.5356(7) 1.8777(6) 0.7236(5)
H9A H 1.4923 1.8792 0.7750
C12A C 1.7676(8) 2.0383(7) 0.8314(5)
H10A H 1.8383 2.0992 0.8227
H11A H 1.7292 2.0785 0.8830
C13A C 1.8213(6) 1.9733(6) 0.8642(5)
C14A C 1.9116(7) 1.9391(6) 0.8180(5)
H12A H 1.9440 1.9628 0.7713
C15A C 1.9547(6) 1.8701(7) 0.8399(5)
H13A H 2.0148 1.8468 0.8077
C16A C 1.9067(6) 1.8355(6) 0.9116(4)
C17A C 1.8197(6) 1.8727(6) 0.9602(4)
H14A H 1.7896 1.8521 1.0089
C18A C 1.7770(7) 1.9416(6) 0.9361(4)
H15A H 1.7181 1.9663 0.9688
C19A C 1.0545(6) 1.2478(6) 0.0693(5)
H16A H 0.9615 1.2229 0.0655
H17A H 1.0711 1.2430 0.0054
C32 C 0.8772(4) 1.2736(4) 0.3844(3)
H24 H 0.8242 1.1956 0.3321
C33 C 0.9636(6) 1.2924(7) 0.4658(5)
C34 C 1.0418(6) 1.4076(6) 0.5415(5)
H25 H 1.0956 1.4190 0.5956
C35 C 1.0441(6) 1.5092(6) 0.5408(5)
C36 C 1.1281(6) 1.6304(7) 0.6172(5)
H26 H 1.1877 1.6443 0.6692
C37 C 0.9684(7) 1.1853(7) 0.4668(6)
O13 O 1.0347(5) 1.2055(5) 0.5466(4)
O15 O 0.9107(5) 1.0839(5) 0.3882(4)
C32A C 1.1228(4) 1.7264(4) 0.6156(3)
H24A H 1.1758 1.8044 0.6679
C33A C 1.0364(6) 1.7076(7) 0.5342(5)
C34A C 0.9582(6) 1.5924(6) 0.4585(5)
H25A H 0.9044 1.5810 0.4044
C35A C 0.9559(6) 1.4908(6) 0.4592(5)
C36A C 0.8719(6) 1.3696(7) 0.3828(5)
H26A H 0.8123 1.3557 0.3308
C37A C 1.0316(7) 1.8147(7) 0.5332(6)
O13A O 0.9653(5) 1.7945(5) 0.4534(4)
O15A O 1.0893(5) 1.9161(5) 0.6118(4)
O5 O 1.0890(13) 1.6321(13) 1.0232(10)
O9 O 1.6664(14) 1.5029(11) 0.9843(9)
O12 O 1.9078(6) 1.6367(6) 1.2470(5)
O14 O 0.9643(5) 1.0525(5) 0.6271(4)
O16 O 1.4452(16) 1.9580(15) 0.9379(11)
O18 O 1.7487(13) 1.9690(14) 1.1906(9)
O20 O 1.2322(7) 1.7236(7) 0.9116(6)
O2? O 1.803(2) 1.729(2) 1.1243(15)
O3? O 1.891(3) 1.713(2) 1.1248(16)
O6? O 1.028(3) 1.633(3) 1.090(2)
O7? O 1.056(4) 1.570(3) 1.109(3)
O10? O 1.5730(16) 1.5132(12) 0.9967(9)
O17? O 1.3567(13) 1.9119(12) 0.8817(10)
O19? O 1.7785(13) 1.9097(14) 1.1998(9)
loop_
_geom_bond_atom_site_label_1
_geom_bond_atom_site_label_2
_geom_bond_site_symmetry_1
_geom_bond_site_symmetry_2
Ag1 O4 1_555 1_555
N1 C1 1_555 1_555
N2 C1 1_555 1_555
N3 C4 1_555 1_555
N4 C8 1_555 1_555
N5 C9 1_555 1_555
C1 H1 1_555 1_555
C2 N1 1_555 1_555
H2 C2 1_555 1_555
C3 N2 1_555 1_555
H3 C3 1_555 1_555
C4 N2 1_555 1_555
C5 C4 1_555 1_555
H4 C5 1_555 1_555
C6 C5 1_555 1_555
H5 C6 1_555 1_555
C7 C6 1_555 1_555
H6 C7 1_555 1_555
C8 N3 1_555 1_555
C9 N4 1_555 1_555
H7 C9 1_555 1_555
C10 N4 1_555 1_555
H8 C10 1_555 1_555
C11 N5 1_555 1_555
H9 C11 1_555 1_555
C12 N5 1_555 1_555
H10 C12 1_555 1_555
H11 C12 1_555 1_555
C13 C12 1_555 1_555
C14 C13 1_555 1_555
H12 C14 1_555 1_555
C15 C14 1_555 1_555
H13 C15 1_555 1_555
C16 C15 1_555 1_555
C17 C16 1_555 1_555
H14 C17 1_555 1_555
C18 C13 1_555 1_555
H15 C18 1_555 1_555
C19 N1 1_555 1_555
H16 C19 1_555 1_555
H17 C19 1_555 1_555
C20 H18 1_555 1_555
C21 C20 1_555 1_555
C22 C21 1_555 1_555
H19 C22 1_555 1_555
C23 C22 1_555 1_555
C24 C23 1_555 1_555
H20 C24 1_555 1_555
C25 C23 1_555 1_555
C26 C28 1_555 1_555
C27 H21 1_555 1_555
C28 C27 1_555 1_555
C29 C28 1_555 1_555
H22 C29 1_555 1_555
C30 C29 1_555 1_555
C31 C30 1_555 1_555
H23 C31 1_555 1_555
C32 H24 1_555 1_555
C33 C32 1_555 1_555
C34 C33 1_555 1_555
H25 C34 1_555 1_555
C35 C34 1_555 1_555
C36 C35 1_555 1_555
H26 C36 1_555 1_555
C37 C33 1_555 1_555
O1 C25 1_555 1_555
O4 C25 1_555 1_555
O8 C26 1_555 1_555
O11 Ag1 1_555 1_555
O13 C37 1_555 1_555
O15 C37 1_555 1_555
Ag1A O4A_2 1_555 1_555
Ag1A_2 O4A 1_555 1_555
N1A C1A 1_555 1_555
N2A C1A 1_555 1_555
N3A C4A 1_555 1_555
N4A C8A 1_555 1_555
N5A C9A 1_555 1_555
C1A H1A 1_555 1_555
C2A N1A 1_555 1_555
H2A C2A 1_555 1_555
C3A N2A 1_555 1_555
H3A C3A 1_555 1_555
C4A N2A 1_555 1_555
C5A C4A 1_555 1_555
H4A C5A 1_555 1_555
C6A C5A 1_555 1_555
H5A C6A 1_555 1_555
C7A C6A 1_555 1_555
H6A C7A 1_555 1_555
C8A N3A 1_555 1_555
C9A N4A 1_555 1_555
H7A C9A 1_555 1_555
C10A N4A 1_555 1_555
H8A C10A 1_555 1_555
C11A N5A 1_555 1_555
H9A C11A 1_555 1_555
C12A N5A 1_555 1_555
H10A C12A 1_555 1_555
H11A C12A 1_555 1_555
C13A C12A 1_555 1_555
C14A C13A 1_555 1_555
H12A C14A 1_555 1_555
C15A C14A 1_555 1_555
H13A C15A 1_555 1_555
C16A C19 1_555 1_555
C17A C16A 1_555 1_555
H14A C17A 1_555 1_555
C18A C13A 1_555 1_555
H15A C18A 1_555 1_555
C19A C16 1_555 1_555
H16A C19A 1_555 1_555
H17A C19A 1_555 1_555
C20A C24 1_555 1_555
H18A C20A 1_555 1_555
C21A C21 1_555 1_555
C22A C21A 1_555 1_555
H19A C22A 1_555 1_555
C23A C22A 1_555 1_555
C24A C20 1_555 1_555
H20A C24A 1_555 1_555
C25A C23A 1_555 1_555
C26A C28A 1_555 1_555
C27A C31 1_555 1_555
H21A C27A 1_555 1_555
C28A C27A 1_555 1_555
C29A C28A 1_555 1_555
H22A C29A 1_555 1_555
C30A C30 1_555 1_555
C31A C27 1_555 1_555
H23A C31A 1_555 1_555
C32A C36 1_555 1_555
H24A C32A 1_555 1_555
C33A C32A 1_555 1_555
C34A C33A 1_555 1_555
H25A C34A 1_555 1_555
C35A C35 1_555 1_555
C36A C32 1_555 1_555
H26A C36A 1_555 1_555
C37A C33A 1_555 1_555
O1A C25A 1_555 1_555
O4A C25A 1_555 1_555
O8A C26A 1_555 1_555
O11A Ag1A 1_555 1_555
O13A C37A 1_555 1_555
O15A C37A 1_555 1_555
C2 C3 1_555 1_555
C7 C8 1_555 1_555
C10 C11 1_555 1_555
C17 C18 1_555 1_555
C26 O11 1_555 1_555
N1A C19A 1_555 1_555
C2A C3A 1_555 1_555
C7A C8A 1_555 1_555
C10A C11A 1_555 1_555
C15A C16A 1_555 1_555
C17A C18A 1_555 1_555
C20A C21A 1_555 1_555
C23A C24A 1_555 1_555
C26A O11A 1_555 1_555
C29A C30A 1_555 1_555
C30A C31A 1_555 1_555
C34A C35A 1_555 1_555
C35A C36A 1_555 1_555

#END
