
#######################################################################
#
#                 Cambridge Crystallographic Data Centre
#                                CCDC 
#
#######################################################################
#
# If this CIF has been generated from an entry in the Cambridge 
# Structural Database, then it will include bibliographic, chemical, 
# crystal, experimental, refinement or atomic coordinate data resulting 
# from the CCDC's data processing and validation procedures.
#
#######################################################################

data_ATOKOK
_symmetry_cell_setting           triclinic
_symmetry_space_group_name_H-M   'P -1'
_symmetry_Int_Tables_number      2
_space_group_name_Hall           '-P 1'
loop_
_symmetry_equiv_pos_site_id
_symmetry_equiv_pos_as_xyz
1 x,y,z
2 -x,-y,-z
_cell_length_a                   10.056(3)
_cell_length_b                   10.192(3)
_cell_length_c                   10.431(3)
_cell_angle_alpha                110.429(4)
_cell_angle_beta                 91.659(4)
_cell_angle_gamma                110.460(4)
_cell_volume                     924.663
loop_
_atom_site_label
_atom_site_type_symbol
_atom_site_fract_x
_atom_site_fract_y
_atom_site_fract_z
Cd1 Cd 0.37490(6) 0.86221(6) 0.07657(5)
O1 O 0.2538(6) 0.6925(6) 0.1791(5)
O2 O 0.4105(6) 1.1331(6) 0.8172(5)
O3 O 0.3700(6) 1.0037(6) 0.9491(5)
O4 O 0.1177(6) 0.7640(6) 0.0720(5)
N1 N 0.3653(6) 0.6617(6) -0.1255(5)
N2 N 0.3788(6) 0.0672(6) -0.7264(5)
C1 C 0.3339(8) 0.6550(7) -0.2515(7)
H1 H 0.3133 0.7324 -0.2603
C2 C 0.3322(8) 0.5391(7) -0.3698(6)
H2 H 0.3039 0.5375 -0.4561
C3 C 0.3673(8) 0.4241(7) -0.3623(6)
C4 C 0.3970(9) 0.4308(8) -0.2300(7)
H3 H 0.4172 0.3536 -0.2171
C5 C 0.3942(9) 0.5494(8) -0.1167(7)
H4 H 0.4173 0.5524 -0.0286
C6 C 0.3700(8) 0.2982(7) -0.4883(6)
C7 C 0.2982(8) 0.2673(8) -0.6173(7)
H5 H 0.2470 0.3249 -0.6261
C8 C 0.3055(8) 0.1515(8) -0.7320(7)
H6 H 0.2557 0.1327 -0.8169
C9 C 0.4466(9) 0.0977(8) -0.6018(7)
H7 H 0.4996 0.0403 -0.5974
C10 C 0.4452(9) 0.2089(7) -0.4820(7)
H8 H 0.4902 0.2226 -0.3966
C11 C 0.3256(9) 1.0556(8) 0.8724(7)
C12 C 0.1668(9) 1.0279(10) 0.8502(7)
H9 H 0.1138 0.9458 0.8784
H10 H 0.1527 1.1178 0.9089
C13 C 0.1076(10) 0.9864(10) 0.7016(7)
H11 H 0.0097 0.9818 0.6969
H12 H 0.1633 1.0656 0.6713
C14 C 0.1087(9) 0.8381(9) 0.6035(7)
H13 H 0.0465 0.7574 0.6287
H14 H 0.2055 0.8403 0.6146
C15 C 0.0600(9) 0.8013(9) 0.4527(7)
H15 H -0.0322 0.8099 0.4432
H16 H 0.1282 0.8755 0.4243
C16 C 0.0451(9) 0.6443(8) 0.3568(7)
H17 H 0.1364 0.6343 0.3695
H18 H -0.0267 0.5692 0.3820
C17 C 0.0070(9) 0.6165(9) 0.2040(7)
H19 H -0.0668 0.6543 0.1948
H20 H -0.0310 0.5085 0.1496
C18 C 0.1330(10) 0.6956(9) 0.1465(8)
Cd1A Cd 0.62510(6) 1.13779(6) 0.92343(5)
Cd1_2 Cd 0.37490(6) 0.86221(6) 1.07657(5)
Cd1_3 Cd 0.37490(6) -0.13779(6) -0.92343(5)
O2A O 0.5895(6) 0.8669(6) 0.1828(5)
O3_2 O 0.3700(6) 1.0037(6) -0.0509(5)
O3A O 0.6300(6) 0.9963(6) 0.0509(5)
N2_2 N 0.3788(6) 1.0672(6) 0.2736(5)
O5 O 0.1576(11) 0.3567(8) 0.1260(7)
H21 H 0.2234 0.3607 0.1120
H22 H 0.1041 0.3244 0.1471
loop_
_geom_bond_atom_site_label_1
_geom_bond_atom_site_label_2
_geom_bond_site_symmetry_1
_geom_bond_site_symmetry_2
Cd1 O1 1_555 1_555
O1 C18 1_555 1_555
O2 C11 1_555 1_555
O3 C11 1_555 1_555
O4 Cd1 1_555 1_555
N1 Cd1 1_555 1_555
N2 C8 1_555 1_555
C1 N1 1_555 1_555
H1 C1 1_555 1_555
C2 C1 1_555 1_555
H2 C2 1_555 1_555
C3 C2 1_555 1_555
C4 C3 1_555 1_555
H3 C4 1_555 1_555
C5 N1 1_555 1_555
H4 C5 1_555 1_555
C6 C3 1_555 1_555
C7 C6 1_555 1_555
H5 C7 1_555 1_555
C8 C7 1_555 1_555
H6 C8 1_555 1_555
C9 N2 1_555 1_555
H7 C9 1_555 1_555
C10 C6 1_555 1_555
H8 C10 1_555 1_555
C11 C12 1_555 1_555
C12 H9 1_555 1_555
H10 C12 1_555 1_555
C13 C12 1_555 1_555
H11 C13 1_555 1_555
H12 C13 1_555 1_555
C14 C13 1_555 1_555
H13 C14 1_555 1_555
H14 C14 1_555 1_555
C15 C14 1_555 1_555
H15 C15 1_555 1_555
H16 C15 1_555 1_555
C16 C15 1_555 1_555
H17 C16 1_555 1_555
H18 C16 1_555 1_555
C17 C16 1_555 1_555
H19 C17 1_555 1_555
H20 C17 1_555 1_555
C18 O4 1_555 1_555
O5 H21 1_555 1_555
H22 O5 1_555 1_555
Cd1A O2 1_555 1_555
Cd1_2 O3 1_555 1_555
Cd1_3 N2 1_555 1_555
O2A Cd1 1_555 1_555
O3_2 Cd1 1_555 1_555
O3A Cd1 1_555 1_555
N2_2 Cd1 1_555 1_555
O3 Cd1A 1_555 1_555
C4 C5 1_555 1_555
C9 C10 1_555 1_555
C17 C18 1_555 1_555

#END
