
#######################################################################
#
#                 Cambridge Crystallographic Data Centre
#                                CCDC 
#
#######################################################################
#
# If this CIF has been generated from an entry in the Cambridge 
# Structural Database, then it will include bibliographic, chemical, 
# crystal, experimental, refinement or atomic coordinate data resulting 
# from the CCDC's data processing and validation procedures.
#
#######################################################################

data_ATOMAX
_symmetry_cell_setting           monoclinic
_symmetry_space_group_name_H-M   'P 21/n'
_symmetry_Int_Tables_number      14
_space_group_name_Hall           '-P 2yn'
loop_
_symmetry_equiv_pos_site_id
_symmetry_equiv_pos_as_xyz
1 x,y,z
2 1/2-x,1/2+y,1/2-z
3 -x,-y,-z
4 1/2+x,1/2-y,1/2+z
_cell_length_a                   6.2181(3)
_cell_length_b                   26.9750(15)
_cell_length_c                   13.1982(7)
_cell_angle_alpha                90
_cell_angle_beta                 99.648(2)
_cell_angle_gamma                90
_cell_volume                     2182.47
loop_
_atom_site_label
_atom_site_type_symbol
_atom_site_fract_x
_atom_site_fract_y
_atom_site_fract_z
Ag1 Ag 0.16889(3) 0.172472(8) 0.286098(16)
N1 N -0.1403(3) 0.19633(10) 0.20220(18)
N2 N -0.5247(3) 0.14141(8) 0.36292(17)
N3 N -0.7403(4) 0.04386(9) 0.52340(18)
C1 C -0.3198(4) 0.19474(10) 0.2621(2)
C2 C -0.3492(4) 0.14307(9) 0.3010(2)
C3 C -0.5448(4) 0.09191(10) 0.4076(2)
C4 C -0.7261(5) 0.09219(12) 0.4718(3)
H1 H -0.293(4) 0.2175(10) 0.321(2)
H2 H -0.444(5) 0.2040(11) 0.225(2)
H3 H -0.208(5) 0.1324(11) 0.344(2)
H4 H -0.377(4) 0.1219(11) 0.249(2)
H5 H -0.401(5) 0.0823(11) 0.450(2)
H6 H -0.564(5) 0.0688(12) 0.358(3)
H7 H -0.699(6) 0.1180(14) 0.527(3)
H8 H -0.858(7) 0.0997(15) 0.433(3)
H9 H -0.121(5) 0.2267(13) 0.184(2)
H10 H -0.177(6) 0.1811(13) 0.151(3)
H11 H -0.491(5) 0.1582(12) 0.407(2)
H12 H -0.605(8) 0.0388(17) 0.573(4)
H13 H -0.864(6) 0.0429(13) 0.557(3)
H14 H -0.773(5) 0.0182(11) 0.474(2)
N2_2 N 0.4753(3) 0.14141(8) 0.36292(17)
Ag1_2 Ag -0.83111(3) 0.172472(8) 0.286098(16)
H11_2 H 0.509(5) 0.1582(12) 0.407(2)
O1 O -0.7493(5) 0.18669(12) 0.06612(17)
O2 O -0.5175(4) 0.15776(10) -0.02154(18)
O3 O -1.2707(3) 0.18591(9) -0.46450(15)
O4 O -1.5257(3) 0.20515(8) -0.37147(15)
N4 N -0.6953(4) 0.17509(9) -0.01520(18)
C5 C -0.8580(4) 0.18085(9) -0.10927(19)
C6 C -0.8065(4) 0.16419(10) -0.2011(2)
C7 C -0.9631(4) 0.16884(10) -0.2885(2)
C8 C -1.1661(4) 0.18926(9) -0.28417(18)
C9 C -1.2111(4) 0.20565(9) -0.18952(19)
C10 C -1.0572(4) 0.20205(10) -0.10170(19)
C11 C -1.3350(4) 0.19400(10) -0.38103(19)
H15 H -0.667(5) 0.1508(10) -0.209(2)
H16 H -0.933(5) 0.1594(10) -0.349(2)
H17 H -1.346(5) 0.2202(10) -0.185(2)
H18 H -1.089(5) 0.2144(11) -0.035(2)
O5 O 0.9035(4) 0.02770(9) 0.62059(16)
O6 O 0.5926(4) 0.04061(12) 0.67614(17)
O7 O 1.1134(6) 0.07824(11) 1.1678(2)
O8 O 1.4171(6) 0.05264(12) 1.1263(2)
N5 N 1.2240(7) 0.06391(10) 1.1052(2)
C12 C 0.9139(4) 0.04744(9) 0.79731(19)
C13 C 0.8015(5) 0.06772(11) 0.8698(2)
C14 C 0.9021(6) 0.07364(11) 0.9708(2)
C15 C 1.1158(5) 0.05949(10) 0.9963(2)
C16 C 1.2328(5) 0.04014(12) 0.9263(2)
C17 C 1.1303(5) 0.03442(11) 0.8260(2)
C18 C 0.7938(5) 0.03857(11) 0.6892(2)
H19 H 0.661(6) 0.0773(12) 0.851(3)
H20 H 0.821(5) 0.0874(11) 1.015(2)
H21 H 1.368(6) 0.0295(13) 0.947(3)
H22 H 1.207(5) 0.0194(11) 0.779(2)
O9 O 0.1093(4) 0.21591(10) 0.46938(18)
H23 H 0.002(6) 0.2058(13) 0.494(3)
H24 H 0.219(8) 0.2129(17) 0.519(4)
loop_
_geom_bond_atom_site_label_1
_geom_bond_atom_site_label_2
_geom_bond_site_symmetry_1
_geom_bond_site_symmetry_2
Ag1 N1 1_555 1_555
N1 C1 1_555 1_555
N2 C2 1_555 1_555
N3 C4 1_555 1_555
C1 C2 1_555 1_555
C2 H3 1_555 1_555
C3 N2 1_555 1_555
C4 C3 1_555 1_555
H1 C1 1_555 1_555
H2 C1 1_555 1_555
H4 C2 1_555 1_555
H5 C3 1_555 1_555
H6 C3 1_555 1_555
H7 C4 1_555 1_555
H8 C4 1_555 1_555
H9 N1 1_555 1_555
H10 N1 1_555 1_555
H11 N2 1_555 1_555
H12 N3 1_555 1_555
H13 N3 1_555 1_555
H14 N3 1_555 1_555
O1 N4 1_555 1_555
O2 N4 1_555 1_555
O3 C11 1_555 1_555
O4 C11 1_555 1_555
N4 C5 1_555 1_555
C5 C6 1_555 1_555
C6 C7 1_555 1_555
C7 C8 1_555 1_555
C8 C9 1_555 1_555
C9 C10 1_555 1_555
C10 C5 1_555 1_555
C11 C8 1_555 1_555
H15 C6 1_555 1_555
H16 C7 1_555 1_555
H17 C9 1_555 1_555
H18 C10 1_555 1_555
O5 C18 1_555 1_555
O6 C18 1_555 1_555
O7 N5 1_555 1_555
O8 N5 1_555 1_555
N5 C15 1_555 1_555
C12 C13 1_555 1_555
C13 C14 1_555 1_555
C14 C15 1_555 1_555
C15 C16 1_555 1_555
C16 C17 1_555 1_555
C17 C12 1_555 1_555
C18 C12 1_555 1_555
H19 C13 1_555 1_555
H20 C14 1_555 1_555
H21 C16 1_555 1_555
H22 C17 1_555 1_555
O9 H23 1_555 1_555
H24 O9 1_555 1_555
N2_2 Ag1 1_555 1_555
Ag1_2 N2 1_555 1_555
H11_2 N2_2 1_555 1_555

#END
