
#######################################################################
#
#                 Cambridge Crystallographic Data Centre
#                                CCDC 
#
#######################################################################
#
# If this CIF has been generated from an entry in the Cambridge 
# Structural Database, then it will include bibliographic, chemical, 
# crystal, experimental, refinement or atomic coordinate data resulting 
# from the CCDC's data processing and validation procedures.
#
#######################################################################

data_ATUYIY
_symmetry_cell_setting           monoclinic
_symmetry_space_group_name_H-M   'C 2/c'
_symmetry_Int_Tables_number      15
_space_group_name_Hall           '-C 2yn'
loop_
_symmetry_equiv_pos_site_id
_symmetry_equiv_pos_as_xyz
1 x,y,z
2 -x,y,1/2-z
3 1/2+x,1/2+y,z
4 1/2-x,1/2+y,1/2-z
5 -x,-y,-z
6 x,-y,1/2+z
7 1/2-x,1/2-y,-z
8 1/2+x,1/2-y,1/2+z
_cell_length_a                   17.245(5)
_cell_length_b                   15.876(5)
_cell_length_c                   15.436(4)
_cell_angle_alpha                90
_cell_angle_beta                 106.503(4)
_cell_angle_gamma                90
_cell_volume                     4052
loop_
_atom_site_label
_atom_site_type_symbol
_atom_site_fract_x
_atom_site_fract_y
_atom_site_fract_z
O4 O 0.7980(9) 0.2706(12) 0.0698(12)
C21 C 0.7784(14) 0.2048(15) 0.0088(15)
O4F O 0.7020(9) 0.2294(12) -0.0698(12)
C21F C 0.7216(14) 0.2952(15) -0.0088(15)
Co1 Co 1.0000 0.0000 0.0000
N1 N 0.8844(4) 0.1323(4) -0.1392(7)
N2 N 1.0336(3) 0.0848(3) 0.1102(3)
N3 N 1.0599(3) 0.2124(3) 0.1702(3)
N4 N 0.6037(3) 0.5427(3) -0.0350(3)
N5 N 0.7318(3) 0.5733(3) -0.0186(3)
N6 N 1.0623(3) 0.5612(4) 0.1506(4)
O1 O 0.9329(4) 0.1002(4) -0.0860(4)
O2 O 0.8169(4) 0.1181(6) -0.1787(4)
O3 O 0.9124(10) 0.1769(9) -0.1890(11)
C1 C 1.0226(4) 0.1665(4) 0.0966(4)
H1 H 0.9925 0.1899 0.0422
C2 C 1.0978(4) 0.1549(4) 0.2350(4)
H2 H 1.1298 0.1667 0.2931
C3 C 1.0796(4) 0.0778(4) 0.1978(4)
H3 H 1.0960 0.0272 0.2276
C4 C 0.6785(3) 0.5345(4) 0.0170(4)
H4 H 0.6927 0.5054 0.0716
C5 C 0.6876(4) 0.6083(5) -0.0970(4)
H5 H 0.7076 0.6398 -0.1368
C6 C 0.6111(4) 0.5897(4) -0.1069(4)
H6 H 0.5682 0.6061 -0.1557
C7 C 1.0711(3) 0.4746(4) 0.1657(4)
C8 C 1.1420(3) 0.4294(4) 0.2078(4)
H7 H 1.1910 0.4568 0.2323
C9 C 1.1363(4) 0.3438(5) 0.2113(4)
H8 H 1.1820 0.3124 0.2394
C10 C 1.0625(3) 0.3024(4) 0.1730(3)
C11 C 0.9927(3) 0.3473(4) 0.1324(3)
H9 H 0.9438 0.3197 0.1079
C12 C 0.9975(3) 0.4334(4) 0.1292(4)
C13 C 0.9388(3) 0.4997(4) 0.0922(4)
C14 C 0.8566(3) 0.4983(4) 0.0500(4)
H10 H 0.8281 0.4478 0.0408
C15 C 0.8177(3) 0.5742(4) 0.0215(4)
C16 C 0.8607(4) 0.6492(4) 0.0327(4)
H11 H 0.8338 0.6991 0.0115
C17 C 0.9415(4) 0.6509(4) 0.0741(5)
H12 H 0.9699 0.7014 0.0808
C18 C 0.9815(3) 0.5759(4) 0.1064(4)
C19 C 1.1351(7) 0.6235(6) 0.1633(10)
H13 H 1.1831 0.5946 0.1580
H14 H 1.1221 0.6690 0.1195
C20 C 1.1457(11) 0.6533(11) 0.2508(10)
H15 H 1.1032 0.6923 0.2510
H16 H 1.1971 0.6812 0.2714
H17 H 1.1441 0.6069 0.2901
Co1B Co 0.5000 0.5000 0.0000
Co1B_2 Co 1.5000 -0.5000 0.0000
N1D N 1.1156(4) -0.1323(4) 0.1392(7)
N2D N 0.9664(3) -0.0848(3) -0.1102(3)
N3D N 0.9401(3) -0.2124(3) -0.1702(3)
N4D N 1.3963(3) -0.5427(3) 0.0350(3)
N4B N 1.1037(3) 0.0427(3) -0.0350(3)
N4F N 0.8963(3) -0.0427(3) 0.0350(3)
N5D N 1.2682(3) -0.5733(3) 0.0186(3)
N6D N 0.9377(3) -0.5612(4) -0.1506(4)
O1D O 1.0671(4) -0.1002(4) 0.0860(4)
O2D O 1.1831(4) -0.1181(6) 0.1787(4)
O3D O 1.0876(10) -0.1769(9) 0.1890(11)
C1D C 0.9774(4) -0.1665(4) -0.0966(4)
H1D H 1.0075 -0.1899 -0.0422
C2D C 0.9022(4) -0.1549(4) -0.2350(4)
H2D H 0.8702 -0.1667 -0.2931
C3D C 0.9204(4) -0.0778(4) -0.1978(4)
H3D H 0.9040 -0.0272 -0.2276
C4D C 1.3215(3) -0.5345(4) -0.0170(4)
H4D H 1.3073 -0.5054 -0.0716
C5D C 1.3124(4) -0.6083(5) 0.0970(4)
H5D H 1.2924 -0.6398 0.1368
C6D C 1.3889(4) -0.5897(4) 0.1069(4)
H6D H 1.4318 -0.6061 0.1557
C7D C 0.9289(3) -0.4746(4) -0.1657(4)
C8D C 0.8580(3) -0.4294(4) -0.2078(4)
H7D H 0.8090 -0.4568 -0.2323
C9D C 0.8637(4) -0.3438(5) -0.2113(4)
H8D H 0.8180 -0.3124 -0.2394
C10D C 0.9375(3) -0.3024(4) -0.1730(3)
C11D C 1.0073(3) -0.3473(4) -0.1324(3)
H9D H 1.0562 -0.3197 -0.1079
C12D C 1.0025(3) -0.4334(4) -0.1292(4)
C13D C 1.0612(3) -0.4997(4) -0.0922(4)
C14D C 1.1434(3) -0.4983(4) -0.0500(4)
H10D H 1.1719 -0.4478 -0.0408
C15D C 1.1823(3) -0.5742(4) -0.0215(4)
C16D C 1.1393(4) -0.6492(4) -0.0327(4)
H11D H 1.1662 -0.6991 -0.0115
C17D C 1.0585(4) -0.6509(4) -0.0741(5)
H12D H 1.0301 -0.7014 -0.0808
C18D C 1.0185(3) -0.5759(4) -0.1064(4)
C19D C 0.8649(7) -0.6235(6) -0.1633(10)
H13D H 0.8169 -0.5946 -0.1580
H14D H 0.8779 -0.6690 -0.1195
C20D C 0.8543(11) -0.6533(11) -0.2508(10)
H15D H 0.8968 -0.6923 -0.2510
H16D H 0.8029 -0.6812 -0.2714
H17D H 0.8559 -0.6069 -0.2901
loop_
_geom_bond_atom_site_label_1
_geom_bond_atom_site_label_2
_geom_bond_site_symmetry_1
_geom_bond_site_symmetry_2
Co1 N2 1_555 1_555
N1 O1 1_555 1_555
N2 C1 1_555 1_555
N3 C1 1_555 1_555
N4 C4 1_555 1_555
N5 C4 1_555 1_555
N6 C7 1_555 1_555
O1 Co1 1_555 1_555
O2 N1 1_555 1_555
O3 N1 1_555 1_555
O4 C21 1_555 1_555
C1 H1 1_555 1_555
C2 N3 1_555 1_555
H2 C2 1_555 1_555
C3 N2 1_555 1_555
H3 C3 1_555 1_555
C4 H4 1_555 1_555
C5 N5 1_555 1_555
H5 C5 1_555 1_555
C6 N4 1_555 1_555
H6 C6 1_555 1_555
C7 C8 1_555 1_555
C8 H7 1_555 1_555
C9 C8 1_555 1_555
H8 C9 1_555 1_555
C10 N3 1_555 1_555
C11 C10 1_555 1_555
H9 C11 1_555 1_555
C12 C7 1_555 1_555
C13 C12 1_555 1_555
C14 C13 1_555 1_555
H10 C14 1_555 1_555
C15 N5 1_555 1_555
C16 C15 1_555 1_555
H11 C16 1_555 1_555
C17 C16 1_555 1_555
H12 C17 1_555 1_555
C18 N6 1_555 1_555
C19 N6 1_555 1_555
H13 C19 1_555 1_555
H14 C19 1_555 1_555
C20 C19 1_555 1_555
H15 C20 1_555 1_555
H16 C20 1_555 1_555
H17 C20 1_555 1_555
C21 O4F 1_555 1_555
Co1B N4 1_555 1_555
Co1B_2 N4D 1_555 1_555
N1D O1D 1_555 1_555
N2D Co1 1_555 1_555
N3D C1D 1_555 1_555
N4D C4D 1_555 1_555
N4B Co1 1_555 1_555
N4F Co1 1_555 1_555
N5D C4D 1_555 1_555
N6D C7D 1_555 1_555
O1D Co1 1_555 1_555
O2D N1D 1_555 1_555
O3D N1D 1_555 1_555
O4F C21F 1_555 1_555
C1D N2D 1_555 1_555
H1D C1D 1_555 1_555
C2D N3D 1_555 1_555
H2D C2D 1_555 1_555
C3D N2D 1_555 1_555
H3D C3D 1_555 1_555
C4D H4D 1_555 1_555
C5D N5D 1_555 1_555
H5D C5D 1_555 1_555
C6D N4D 1_555 1_555
H6D C6D 1_555 1_555
C7D C8D 1_555 1_555
C8D H7D 1_555 1_555
C9D C8D 1_555 1_555
H8D C9D 1_555 1_555
C10D N3D 1_555 1_555
C11D C10D 1_555 1_555
H9D C11D 1_555 1_555
C12D C7D 1_555 1_555
C13D C12D 1_555 1_555
C14D C13D 1_555 1_555
H10D C14D 1_555 1_555
C15D N5D 1_555 1_555
C16D C15D 1_555 1_555
H11D C16D 1_555 1_555
C17D C16D 1_555 1_555
H12D C17D 1_555 1_555
C18D N6D 1_555 1_555
C19D N6D 1_555 1_555
H13D C19D 1_555 1_555
H14D C19D 1_555 1_555
C20D C19D 1_555 1_555
H15D C20D 1_555 1_555
H16D C20D 1_555 1_555
H17D C20D 1_555 1_555
C21F O4 1_555 1_555
C2 C3 1_555 1_555
C5 C6 1_555 1_555
C9 C10 1_555 1_555
C11 C12 1_555 1_555
C13 C18 1_555 1_555
C14 C15 1_555 1_555
C17 C18 1_555 1_555
C21 C21F 1_555 1_555
C2D C3D 1_555 1_555
C5D C6D 1_555 1_555
C9D C10D 1_555 1_555
C11D C12D 1_555 1_555
C13D C18D 1_555 1_555
C14D C15D 1_555 1_555
C17D C18D 1_555 1_555

#END
