
#######################################################################
#
#                 Cambridge Crystallographic Data Centre
#                                CCDC 
#
#######################################################################
#
# If this CIF has been generated from an entry in the Cambridge 
# Structural Database, then it will include bibliographic, chemical, 
# crystal, experimental, refinement or atomic coordinate data resulting 
# from the CCDC's data processing and validation procedures.
#
#######################################################################

data_AVABUU
_symmetry_cell_setting           monoclinic
_symmetry_space_group_name_H-M   'P 21/m'
_symmetry_Int_Tables_number      11
_space_group_name_Hall           '-P 2yb'
loop_
_symmetry_equiv_pos_site_id
_symmetry_equiv_pos_as_xyz
1 x,y,z
2 x,1/2-y,z
3 -x,-y,-z
4 -x,1/2+y,-z
_cell_length_a                   13.27(1)
_cell_length_b                   17.68(2)
_cell_length_c                   10.09(1)
_cell_angle_alpha                90
_cell_angle_beta                 99.85(9)
_cell_angle_gamma                90
_cell_volume                     2332.36
loop_
_atom_site_label
_atom_site_type_symbol
_atom_site_fract_x
_atom_site_fract_y
_atom_site_fract_z
Yb1 Yb 0.20665(6) 0.35310(5) -0.19320(8)
Na1 Na -0.057(1) 0.390(1) -0.114(2)
Na2 Na -0.248(2) 0.357(1) -0.426(2)
O1 O 0.242(1) 0.2500 -0.071(2)
O2 O 0.112(1) 0.3923(9) -0.034(2)
O3 O 0.098(2) 0.453(2) 0.157(4)
O4 O 0.381(1) 0.3617(9) -0.205(2)
O5 O 0.539(2) 0.397(2) -0.121(2)
O6 O 0.205(1) 0.2500 -0.320(2)
O7 O 0.037(1) 0.353(1) -0.301(2)
O8 O -0.077(2) 0.355(3) -0.485(3)
O9 O 0.216(2) 0.4831(8) -0.231(3)
O10 O 0.282(4) 0.572(1) -0.341(4)
O11 O -0.046(2) 0.2500 -0.101(3)
O12 O -0.196(1) 0.330(1) -0.068(2)
O13 O -0.105(2) 0.410(1) 0.117(3)
O14 O -0.295(2) 0.2500 -0.596(3)
O15 O -0.296(2) 0.2500 -0.259(3)
O16 O -0.400(2) 0.436(1) -0.359(2)
N1 N 0.311(2) 0.390(1) 0.030(2)
N2 N 0.199(2) 0.391(1) -0.431(2)
C1 C 0.320(3) 0.2500 0.039(3)
C2 C 0.317(3) 0.316(2) 0.112(3)
C3 C 0.260(2) 0.447(2) 0.101(4)
C4 C 0.145(3) 0.431(2) 0.067(5)
C5 C 0.416(2) 0.415(2) 0.020(4)
C6 C 0.443(2) 0.392(2) -0.118(3)
C7 C 0.187(2) 0.2500 -0.457(3)
C8 C 0.234(2) 0.320(2) -0.509(2)
C9 C 0.085(2) 0.405(2) -0.496(3)
C10 C 0.014(2) 0.367(3) -0.418(3)
C11 C 0.269(2) 0.456(1) -0.433(3)
C12 C 0.250(4) 0.508(2) -0.340(4)
Yb1A Yb 0.20665(6) 0.14690(5) -0.19320(8)
O2A O 0.112(1) 0.1077(9) -0.034(2)
Na1A Na -0.057(1) 0.110(1) -0.114(2)
O7A O 0.037(1) 0.147(1) -0.301(2)
O4A O 0.381(1) 0.1383(9) -0.205(2)
C6A C 0.443(2) 0.108(2) -0.118(3)
O5A O 0.539(2) 0.103(2) -0.121(2)
C5A C 0.416(2) 0.085(2) 0.020(4)
N1A N 0.311(2) 0.110(1) 0.030(2)
O10B O -0.282(4) 0.428(1) -0.659(4)
Na2B Na 0.248(2) 0.643(1) -0.574(2)
C8A C 0.234(2) 0.180(2) -0.509(2)
N2A N 0.199(2) 0.109(1) -0.431(2)
O9A O 0.216(2) 0.0169(8) -0.231(3)
C12A C 0.250(4) -0.008(2) -0.340(4)
O10A O 0.282(4) -0.072(1) -0.341(4)
Na2C Na 0.248(2) -0.143(1) -0.574(2)
O10C O -0.282(4) 0.072(1) -0.659(4)
Na2A Na -0.248(2) 0.143(1) -0.426(2)
O8A O -0.077(2) 0.145(3) -0.485(3)
C10A C 0.014(2) 0.133(3) -0.418(3)
C9A C 0.085(2) 0.095(2) -0.496(3)
C11A C 0.269(2) 0.044(1) -0.433(3)
O16A O -0.400(2) 0.064(1) -0.359(2)
C2A C 0.317(3) 0.184(2) 0.112(3)
C3A C 0.260(2) 0.053(2) 0.101(4)
C4A C 0.145(3) 0.069(2) 0.067(5)
O3A O 0.098(2) 0.047(2) 0.157(4)
O12A O -0.196(1) 0.170(1) -0.068(2)
O13A O -0.105(2) 0.090(1) 0.117(3)
O17 O -0.514(2) 0.2500 -0.318(2)
O18 O 0.489(2) 0.2500 -0.594(3)
O19 O 0.068(3) 0.2500 -0.819(5)
O20 O -0.182(1) 0.3210(9) -0.724(2)
O21 O 0.499(2) 0.086(2) -0.605(3)
O22 O 0.678(3) 0.332(3) 0.059(3)
loop_
_geom_bond_atom_site_label_1
_geom_bond_atom_site_label_2
_geom_bond_site_symmetry_1
_geom_bond_site_symmetry_2
Yb1 O1 1_555 1_555
Na1 O2 1_555 1_555
Na2 O8 1_555 1_555
O1 C1 1_555 1_555
O2 Yb1 1_555 1_555
O3 C4 1_555 1_555
O4 Yb1 1_555 1_555
O5 C6 1_555 1_555
O6 Yb1 1_555 1_555
O7 Yb1 1_555 1_555
O8 C10 1_555 1_555
O9 Yb1 1_555 1_555
O10 C12 1_555 1_555
O11 Na1 1_555 1_555
O12 Na1 1_555 1_555
O13 Na1 1_555 1_555
O14 Na2 1_555 1_555
O15 Na2 1_555 1_555
O16 Na2 1_555 1_555
N1 Yb1 1_555 1_555
N2 Yb1 1_555 1_555
C1 C2 1_555 1_555
C2 N1 1_555 1_555
C3 N1 1_555 1_555
C4 O2 1_555 1_555
C5 N1 1_555 1_555
C6 O4 1_555 1_555
C7 O6 1_555 1_555
C8 N2 1_555 1_555
C9 N2 1_555 1_555
C10 O7 1_555 1_555
C11 N2 1_555 1_555
C12 O9 1_555 1_555
Yb1A O1 1_555 1_555
O2A Yb1A 1_555 1_555
Na1A O11 1_555 1_555
O7A Yb1A 1_555 1_555
O4A Yb1A 1_555 1_555
C6A O4A 1_555 1_555
O5A C6A 1_555 1_555
C5A C6A 1_555 1_555
N1A Yb1A 1_555 1_555
O10B Na2 1_555 1_555
Na2B O10 1_555 1_555
C8A C7 1_555 1_555
N2A Yb1A 1_555 1_555
O9A Yb1A 1_555 1_555
C12A O9A 1_555 1_555
O10A C12A 1_555 1_555
Na2C O10A 1_555 1_555
O10C Na2A 1_555 1_555
Na2A O14 1_555 1_555
O8A Na2A 1_555 1_555
C10A O7A 1_555 1_555
C9A N2A 1_555 1_555
C11A N2A 1_555 1_555
O16A Na2A 1_555 1_555
C2A C1 1_555 1_555
C3A N1A 1_555 1_555
C4A O2A 1_555 1_555
O3A C4A 1_555 1_555
O12A Na1A 1_555 1_555
O13A Na1A 1_555 1_555
Na1 O7 1_555 1_555
O6 Yb1A 1_555 1_555
O15 Na2A 1_555 1_555
C3 C4 1_555 1_555
C5 C6 1_555 1_555
C7 C8 1_555 1_555
C9 C10 1_555 1_555
C11 C12 1_555 1_555
O2A Na1A 1_555 1_555
Na1A O7A 1_555 1_555
C5A N1A 1_555 1_555
N1A C2A 1_555 1_555
C8A N2A 1_555 1_555
C12A C11A 1_555 1_555
O8A C10A 1_555 1_555
C10A C9A 1_555 1_555
C3A C4A 1_555 1_555

#END
