
#######################################################################
#
#                 Cambridge Crystallographic Data Centre
#                                CCDC 
#
#######################################################################
#
# If this CIF has been generated from an entry in the Cambridge 
# Structural Database, then it will include bibliographic, chemical, 
# crystal, experimental, refinement or atomic coordinate data resulting 
# from the CCDC's data processing and validation procedures.
#
#######################################################################

data_AVAKUE
_symmetry_cell_setting           triclinic
_symmetry_space_group_name_H-M   'P -1'
_symmetry_Int_Tables_number      2
_space_group_name_Hall           '-P 1'
loop_
_symmetry_equiv_pos_site_id
_symmetry_equiv_pos_as_xyz
1 x,y,z
2 -x,-y,-z
_cell_length_a                   10.478(2)
_cell_length_b                   10.795(2)
_cell_length_c                   11.591(2)
_cell_angle_alpha                88.21(3)
_cell_angle_beta                 75.64(3)
_cell_angle_gamma                81.69(3)
_cell_volume                     1256.75
loop_
_atom_site_label
_atom_site_type_symbol
_atom_site_fract_x
_atom_site_fract_y
_atom_site_fract_z
C1 C 0.5836(7) 0.2000(6) 1.1086(6)
C2 C 0.5562(5) 0.2366(5) 1.2364(5)
C3 C 0.4654(7) 0.1811(7) 1.3212(6)
H1 H 0.4208 0.1219 1.2973
C4 C 0.4383(6) 0.2108(7) 1.4408(6)
H2 H 0.3777 0.1711 1.4969
C5 C 0.5028(6) 0.3000(6) 1.4753(5)
C6 C 0.5943(6) 0.3569(6) 1.3919(5)
H3 H 0.6376 0.4174 1.4154
C7 C 0.6214(6) 0.3233(6) 1.2727(6)
H4 H 0.6847 0.3602 1.2169
C8 C 0.3876(6) 0.2902(6) 1.6787(5)
C9 C 0.4250(7) 0.1953(7) 1.7449(6)
H5 H 0.5140 0.1599 1.7285
C10 C 0.3338(6) 0.1483(6) 1.8377(6)
H6 H 0.3614 0.0834 1.8846
C11 C 0.2010(6) 0.1994(5) 1.8594(5)
C12 C 0.1653(6) 0.2965(6) 1.7915(5)
H7 H 0.0767 0.3329 1.8069
C13 C 0.2571(6) 0.3418(6) 1.7009(6)
H8 H 0.2306 0.4077 1.6546
C14 C 0.1013(7) 0.1467(6) 1.9563(5)
C15 C 1.0863(6) -0.0355(6) 0.7174(6)
H9 H 1.0903 -0.0895 0.7809
C16 C 1.1812(6) -0.0585(6) 0.6107(6)
H10 H 1.2476 -0.1271 0.6034
C17 C 1.1776(6) 0.0188(6) 0.5171(6)
H11 H 1.2394 0.0023 0.4446
C18 C 1.0792(5) 0.1240(6) 0.5308(5)
C19 C 0.9884(6) 0.1404(6) 0.6422(6)
C20 C 0.8892(6) 0.2496(6) 0.6626(5)
C21 C 0.7161(7) 0.3648(7) 0.7945(6)
H12 H 0.6586 0.3746 0.8700
C22 C 0.7023(7) 0.4553(7) 0.7111(6)
H13 H 0.6371 0.5248 0.7305
C23 C 0.7837(6) 0.4431(6) 0.6007(6)
H14 H 0.7759 0.5039 0.5433
C24 C 0.8795(6) 0.3376(6) 0.5743(5)
C25 C 0.9695(6) 0.3152(6) 0.4558(6)
C26 C 1.0680(6) 0.2109(6) 0.4369(5)
C27 C 1.1377(8) 0.2701(8) 0.2435(6)
H15 H 1.1954 0.2586 0.1682
C28 C 1.0389(8) 0.3713(8) 0.2632(6)
H16 H 1.0303 0.4241 0.1998
N1 N 0.8076(5) 0.2637(5) 0.7729(4)
N2 N 0.9907(5) 0.0602(5) 0.7320(4)
N3 N 1.1531(5) 0.1891(6) 0.3279(5)
N4 N 0.9547(6) 0.3971(5) 0.3693(5)
O1 O 0.4987(5) 0.1554(5) 1.0716(4)
O2 O 0.6947(4) 0.2190(4) 1.0437(4)
O3 O 0.6535(5) 0.0492(5) 0.8659(5)
H17 H 0.624(7) -0.021(4) 0.888(5)
H18 H 0.709(3) 0.025(5) 0.801(2)
O4 O -0.0206(4) 0.1889(4) 1.9687(4)
O6 O 0.1413(5) 0.0640(5) 2.0206(4)
O8 O 0.4831(4) 0.3390(4) 1.5901(4)
Mn1 Mn 0.83184(9) 0.11129(10) 0.90673(8)
O4_2 O 0.9794(4) 0.1889(4) 0.9687(4)
O6A O 0.8587(5) -0.0640(5) 0.9794(4)
Mn1_2 Mn -0.16816(9) 0.11129(10) 1.90673(8)
Mn1A Mn 0.16816(9) -0.11129(10) 2.09327(8)
O5 O -0.1254(7) 0.4549(6) 2.0116(7)
H19 H -0.123(10) 0.376(2) 2.011(8)
H20 H -0.077(7) 0.512(6) 2.003(9)
O7 O -0.3923(8) 0.5692(7) 2.0132(8)
H21 H -0.412(11) 0.648(2) 2.017(9)
H22 H -0.360(11) 0.519(8) 2.060(8)
loop_
_geom_bond_atom_site_label_1
_geom_bond_atom_site_label_2
_geom_bond_site_symmetry_1
_geom_bond_site_symmetry_2
C1 C2 1_555 1_555
C2 C3 1_555 1_555
C3 H1 1_555 1_555
C4 C3 1_555 1_555
H2 C4 1_555 1_555
C5 C4 1_555 1_555
C6 C5 1_555 1_555
H3 C6 1_555 1_555
C7 C2 1_555 1_555
H4 C7 1_555 1_555
C8 C9 1_555 1_555
C9 H5 1_555 1_555
C10 C9 1_555 1_555
H6 C10 1_555 1_555
C11 C10 1_555 1_555
C12 C11 1_555 1_555
H7 C12 1_555 1_555
C13 C8 1_555 1_555
H8 C13 1_555 1_555
C14 C11 1_555 1_555
C15 H9 1_555 1_555
C16 C15 1_555 1_555
H10 C16 1_555 1_555
C17 C16 1_555 1_555
H11 C17 1_555 1_555
C18 C17 1_555 1_555
C19 C18 1_555 1_555
C20 C19 1_555 1_555
C21 H12 1_555 1_555
C22 C21 1_555 1_555
H13 C22 1_555 1_555
C23 C22 1_555 1_555
H14 C23 1_555 1_555
C24 C20 1_555 1_555
C25 C24 1_555 1_555
C26 C18 1_555 1_555
C27 H15 1_555 1_555
C28 C27 1_555 1_555
H16 C28 1_555 1_555
N1 C20 1_555 1_555
N2 C15 1_555 1_555
N3 C26 1_555 1_555
N4 C25 1_555 1_555
O1 C1 1_555 1_555
O2 C1 1_555 1_555
O3 H17 1_555 1_555
H18 O3 1_555 1_555
O4 C14 1_555 1_555
O5 H19 1_555 1_555
H20 O5 1_555 1_555
O6 C14 1_555 1_555
O7 H21 1_555 1_555
H22 O7 1_555 1_555
O8 C5 1_555 1_555
Mn1 N1 1_555 1_555
O4_2 Mn1 1_555 1_555
O6A Mn1 1_555 1_555
Mn1_2 O4 1_555 1_555
Mn1A O6 1_555 1_555
C6 C7 1_555 1_555
C8 O8 1_555 1_555
C12 C13 1_555 1_555
C19 N2 1_555 1_555
C21 N1 1_555 1_555
C23 C24 1_555 1_555
C25 C26 1_555 1_555
C27 N3 1_555 1_555
C28 N4 1_555 1_555
N2 Mn1 1_555 1_555
O2 Mn1 1_555 1_555
O3 Mn1 1_555 1_555

#END
