
#######################################################################
#
#                 Cambridge Crystallographic Data Centre
#                                CCDC 
#
#######################################################################
#
# If this CIF has been generated from an entry in the Cambridge 
# Structural Database, then it will include bibliographic, chemical, 
# crystal, experimental, refinement or atomic coordinate data resulting 
# from the CCDC's data processing and validation procedures.
#
#######################################################################

data_AVALEO
_symmetry_cell_setting           monoclinic
_symmetry_space_group_name_H-M   'C 2/c'
_symmetry_Int_Tables_number      15
_space_group_name_Hall           '-C 2yn'
loop_
_symmetry_equiv_pos_site_id
_symmetry_equiv_pos_as_xyz
1 x,y,z
2 1/2+x,1/2+y,z
3 x,-y,1/2+z
4 1/2+x,1/2-y,1/2+z
5 -x,-y,-z
6 1/2-x,1/2-y,-z
7 -x,y,1/2-z
8 1/2-x,1/2+y,1/2-z
_cell_length_a                   15.458(3)
_cell_length_b                   14.220(3)
_cell_length_c                   14.245(3)
_cell_angle_alpha                90
_cell_angle_beta                 99.840(10)
_cell_angle_gamma                90
_cell_volume                     3085.17
loop_
_atom_site_label
_atom_site_type_symbol
_atom_site_fract_x
_atom_site_fract_y
_atom_site_fract_z
Na1 Na 0.5000 0.5520(3) 0.7500
Gd1 Gd 0.5000 0.23608(2) 0.7500
O1 O 0.62946(16) 0.31181(16) 0.82349(18)
O2 O 0.75079(18) 0.22824(16) 0.86431(19)
O3 O 0.99836(17) 0.6713(2) 0.90214(18)
O4 O 0.88622(18) 0.5830(2) 0.91335(18)
N1 N 0.72903(17) 0.55350(16) 0.97270(16)
N2 N 0.84681(15) 0.65152(16) 1.11335(16)
C1 C 0.7078(2) 0.3015(2) 0.8648(2)
C2 C 0.7524(2) 0.3856(2) 0.9180(2)
H1 H 0.8051 0.4012 0.8927
H2 H 0.7697 0.3696 0.9847
C3 C 0.6930(2) 0.4709(2) 0.9093(2)
H3 H 0.6371 0.4521 0.9257
H4 H 0.6822 0.4915 0.8434
C4 C 0.7323(2) 0.5278(2) 1.0764(2)
H5 H 0.6732 0.5152 1.0873
H6 H 0.7663 0.4706 1.0901
C5 C 0.7726(2) 0.6043(2) 1.1432(2)
H7 H 0.7276 0.6502 1.1496
H8 H 0.7923 0.5768 1.2055
C6 C 0.8733(2) 0.7334(2) 1.1741(2)
H9 H 0.9330 0.7502 1.1687
H10 H 0.8725 0.7168 1.2400
C7 C 0.8146(2) 0.8192(2) 1.1466(2)
H11 H 0.7537 0.8001 1.1417
H12 H 0.8266 0.8664 1.1962
C8 C 0.6718(2) 0.6406(2) 0.9436(2)
H13 H 0.6850 0.6878 0.9931
H14 H 0.6105 0.6236 0.9388
C9 C 0.9224(2) 0.5876(2) 1.1137(2)
H15 H 0.9520 0.5786 1.1788
H16 H 0.9010 0.5269 1.0890
C10 C 0.9878(2) 0.6232(2) 1.0558(2)
H17 H 1.0396 0.5837 1.0671
H18 H 1.0055 0.6862 1.0774
C11 C 0.9530(2) 0.6255(3) 0.9489(2)
O6 O 0.3830(2) 0.1195(3) 0.7314(2)
H21 H 0.3200 0.1358 0.7059
H22 H 0.3713 0.1070 0.8123
O7 O 0.4594(2) 0.3591(2) 0.8582(2)
H23 H 0.5256 0.3608 0.8840
H24 H 0.4322 0.3447 0.8031
C8E C 0.8282(2) 0.8594(2) 1.0564(2)
N1E N 0.77097(17) 0.94650(16) 1.02730(16)
C3E C 0.8070(2) 1.0291(2) 1.0907(2)
C2E C 0.7476(2) 1.1144(2) 1.0820(2)
C1E C 0.7922(2) 1.1985(2) 1.1352(2)
O1E O 0.87054(16) 1.18819(16) 1.17651(18)
O2E O 0.74921(18) 1.27176(16) 1.13569(19)
H1E H 0.6949 1.0988 1.1073
H2E H 0.7303 1.1304 1.0153
H3E H 0.8629 1.0479 1.0743
H4E H 0.8178 1.0085 1.1566
C4E C 0.7677(2) 0.9722(2) 0.9236(2)
H5E H 0.8268 0.9848 0.9127
H6E H 0.7337 1.0294 0.9099
C5E C 0.7274(2) 0.8957(2) 0.8568(2)
N2E N 0.65319(15) 0.84848(16) 0.88665(16)
C6E C 0.6267(2) 0.7666(2) 0.8259(2)
H9E H 0.5670 0.7498 0.8313
H10E H 0.6275 0.7832 0.7600
C7E C 0.6854(2) 0.6808(2) 0.8534(2)
H11E H 0.7463 0.6999 0.8583
H12E H 0.6734 0.6336 0.8038
C9E C 0.5776(2) 0.9124(2) 0.8863(2)
H15E H 0.5480 0.9214 0.8212
H16E H 0.5990 0.9731 0.9110
C10E C 0.5122(2) 0.8768(2) 0.9442(2)
H17E H 0.4604 0.9163 0.9329
H18E H 0.4945 0.8138 0.9226
C11E C 0.5470(2) 0.8745(3) 1.0511(2)
O3E O 0.50164(17) 0.8287(2) 1.09786(18)
O4E O 0.61378(18) 0.9170(2) 1.08665(18)
H7E H 0.7724 0.8498 0.8504
H8E H 0.7077 0.9232 0.7945
H13E H 0.8150 0.8122 1.0069
H14E H 0.8895 0.8764 1.0612
O6F O 0.6170(2) 0.1195(3) 0.7686(2)
H21F H 0.6800 0.1358 0.7941
H22F H 0.6287 0.1070 0.6877
O7F O 0.5406(2) 0.3591(2) 0.6418(2)
H23F H 0.4744 0.3608 0.6160
H24F H 0.5678 0.3447 0.6969
O1F O 0.37054(16) 0.31181(16) 0.67651(18)
O3A O 0.49836(17) 0.1713(2) 0.90214(18)
O3G O 0.50164(17) 0.1713(2) 0.59786(18)
Gd1A Gd 1.0000 0.73608(2) 0.7500
Gd1C Gd 1.0000 1.26392(2) 1.2500
Gd1B Gd 0.5000 0.76392(2) 1.2500
O5 O 0.9252(3) 0.1573(3) 0.9416(3)
H19 H 0.9132 0.2275 0.9321
H20 H 0.8652 0.1288 0.9444
loop_
_geom_bond_atom_site_label_1
_geom_bond_atom_site_label_2
_geom_bond_site_symmetry_1
_geom_bond_site_symmetry_2
Gd1 O1 1_555 1_555
O1 C1 1_555 1_555
O2 C1 1_555 1_555
O3 C11 1_555 1_555
O4 C11 1_555 1_555
N1 C3 1_555 1_555
N2 C5 1_555 1_555
C1 C2 1_555 1_555
C2 H1 1_555 1_555
H2 C2 1_555 1_555
C3 C2 1_555 1_555
H3 C3 1_555 1_555
H4 C3 1_555 1_555
C4 N1 1_555 1_555
H5 C4 1_555 1_555
H6 C4 1_555 1_555
C5 C4 1_555 1_555
H7 C5 1_555 1_555
H8 C5 1_555 1_555
C6 N2 1_555 1_555
H9 C6 1_555 1_555
H10 C6 1_555 1_555
C7 C6 1_555 1_555
H11 C7 1_555 1_555
H12 C7 1_555 1_555
C8 N1 1_555 1_555
H13 C8 1_555 1_555
H14 C8 1_555 1_555
C9 N2 1_555 1_555
H15 C9 1_555 1_555
H16 C9 1_555 1_555
C10 C9 1_555 1_555
H17 C10 1_555 1_555
H18 C10 1_555 1_555
C11 C10 1_555 1_555
O5 H19 1_555 1_555
H20 O5 1_555 1_555
O6 Gd1 1_555 1_555
H21 O6 1_555 1_555
H22 O6 1_555 1_555
O7 Gd1 1_555 1_555
H23 O7 1_555 1_555
H24 O7 1_555 1_555
C8E C7 1_555 1_555
N1E C8E 1_555 1_555
C3E N1E 1_555 1_555
C2E C3E 1_555 1_555
C1E C2E 1_555 1_555
O1E C1E 1_555 1_555
O2E C1E 1_555 1_555
H1E C2E 1_555 1_555
H2E C2E 1_555 1_555
H3E C3E 1_555 1_555
H4E C3E 1_555 1_555
C4E N1E 1_555 1_555
H5E C4E 1_555 1_555
H6E C4E 1_555 1_555
C5E C4E 1_555 1_555
N2E C5E 1_555 1_555
C6E N2E 1_555 1_555
H9E C6E 1_555 1_555
H10E C6E 1_555 1_555
C7E C8 1_555 1_555
H11E C7E 1_555 1_555
H12E C7E 1_555 1_555
C9E N2E 1_555 1_555
H15E C9E 1_555 1_555
H16E C9E 1_555 1_555
C10E C9E 1_555 1_555
H17E C10E 1_555 1_555
H18E C10E 1_555 1_555
C11E C10E 1_555 1_555
O3E C11E 1_555 1_555
O4E C11E 1_555 1_555
H7E C5E 1_555 1_555
H8E C5E 1_555 1_555
H13E C8E 1_555 1_555
H14E C8E 1_555 1_555
O6F Gd1 1_555 1_555
H21F O6F 1_555 1_555
H22F O6F 1_555 1_555
O7F Gd1 1_555 1_555
H23F O7F 1_555 1_555
H24F O7F 1_555 1_555
O1F Gd1 1_555 1_555
O3A Gd1 1_555 1_555
O3G Gd1 1_555 1_555
Gd1A O3 1_555 1_555
Gd1C O1E 1_555 1_555
Gd1B O3E 1_555 1_555
C6E C7E 1_555 1_555

#END
