
#######################################################################
#
#                 Cambridge Crystallographic Data Centre
#                                CCDC 
#
#######################################################################
#
# If this CIF has been generated from an entry in the Cambridge 
# Structural Database, then it will include bibliographic, chemical, 
# crystal, experimental, refinement or atomic coordinate data resulting 
# from the CCDC's data processing and validation procedures.
#
#######################################################################

data_AVASUM
_symmetry_cell_setting           monoclinic
_symmetry_space_group_name_H-M   'C 2/c'
_symmetry_Int_Tables_number      15
_space_group_name_Hall           '-C 2yn'
loop_
_symmetry_equiv_pos_site_id
_symmetry_equiv_pos_as_xyz
1 x,y,z
2 -x,y,1/2-z
3 1/2+x,1/2+y,z
4 1/2-x,1/2+y,1/2-z
5 -x,-y,-z
6 x,-y,1/2+z
7 1/2-x,1/2-y,-z
8 1/2+x,1/2-y,1/2+z
_cell_length_a                   21.211(7)
_cell_length_b                   8.718(3)
_cell_length_c                   22.820(9)
_cell_angle_alpha                90
_cell_angle_beta                 101.394(8)
_cell_angle_gamma                90
_cell_volume                     4136.65
loop_
_atom_site_label
_atom_site_type_symbol
_atom_site_fract_x
_atom_site_fract_y
_atom_site_fract_z
Co1 Co 0.05250(2) 0.60941(6) 0.01531(2)
O1 O 0.09596(14) 0.4398(3) 0.07162(12)
O2 O 0.01530(13) 0.2729(3) 0.04268(11)
O3 O 0.07473(13) -0.4904(3) 0.44465(11)
O4 O -0.00696(13) -0.3260(3) 0.41855(11)
O5 O 0.18299(14) -0.1099(5) 0.25195(16)
N1 N 0.13273(14) 0.7457(3) 0.02954(13)
N2 N 0.20907(16) 0.9108(4) 0.02096(17)
C1 C 0.0680(2) 0.3140(5) 0.07425(17)
C2 C 0.10023(18) 0.1996(5) 0.12047(16)
C3 C 0.1470(2) 0.2478(6) 0.16835(18)
H1 H 0.1609 0.3492 0.1708
C4 C 0.1729(2) 0.1430(7) 0.2127(2)
H2 H 0.2033 0.1743 0.2456
C5 C 0.1528(2) -0.0080(7) 0.2071(2)
C6 C 0.1089(2) -0.0580(6) 0.1597(2)
H3 H 0.0972 -0.1609 0.1563
C7 C 0.08147(19) 0.0467(5) 0.11632(18)
H4 H 0.0503 0.0142 0.0842
C8 C 0.1452(2) -0.1746(6) 0.2888(2)
C9 C 0.1692(3) -0.3007(8) 0.3193(3)
H5 H 0.2079 -0.3419 0.3136
C10 C 0.1367(2) -0.3686(6) 0.3587(3)
H6 H 0.1539 -0.4552 0.3798
C11 C 0.07943(18) -0.3111(5) 0.36764(17)
C12 C 0.05543(19) -0.1848(5) 0.33470(16)
H7 H 0.0161 -0.1445 0.3393
C13 C 0.0878(2) -0.1166(5) 0.29530(17)
H8 H 0.0706 -0.0314 0.2733
C14 C 0.04627(19) -0.3819(5) 0.41353(16)
C15 C 0.1832(2) 0.7323(5) 0.07843(19)
H9 H 0.1847 0.6642 0.1100
C16 C 0.2297(2) 0.8336(5) 0.0728(2)
H10 H 0.2685 0.8478 0.0994
C17 C 0.1504(2) 0.8562(5) -0.00357(19)
C18 C 0.1113(3) 0.9098(6) -0.0604(2)
H11 H 0.0761 0.8404 -0.0729
H12 H 0.1374 0.9136 -0.0902
H13 H 0.0949 1.0104 -0.0550
C19 C 0.2456(2) 1.0288(5) -0.0038(2)
H14 H 0.2373 1.0189 -0.0469
H15 H 0.2912 1.0113 0.0109
C20 C 0.2291(2) 1.1913(5) 0.0124(2)
H16 H 0.2359 1.2012 0.0555
H17 H 0.1841 1.2116 -0.0039
Co1D Co -0.05250(2) 0.39059(6) -0.01531(2)
Co1E Co 0.05250(2) -0.60941(6) 0.51531(2)
Co1A Co -0.05250(2) -0.39059(6) 0.48469(2)
Co1F Co 0.44750(2) 1.89059(6) -0.01531(2)
Co1A_2 Co -0.05250(2) 1.60941(6) -0.51531(2)
Co1E_2 Co 0.05250(2) 1.39059(6) -0.48469(2)
O1D O -0.09596(14) 0.5602(3) -0.07162(12)
O2D O -0.01530(13) 0.7271(3) -0.04268(11)
O3D O -0.07473(13) 1.4904(3) -0.44465(11)
O3E O 0.07473(13) 0.4904(3) -0.05535(11)
O3A O -0.07473(13) 0.5096(3) 0.05535(11)
O4D O 0.00696(13) 1.3260(3) -0.41855(11)
O4A O 0.00696(13) 0.6740(3) 0.08145(11)
O4E O -0.00696(13) 0.3260(3) -0.08145(11)
O5D O -0.18299(14) 1.1099(5) -0.25195(16)
N1F N 0.36727(14) 1.7543(3) -0.02954(13)
N1D N -0.13273(14) 0.2543(3) -0.02954(13)
N2F N 0.29093(16) 1.5892(4) -0.02096(17)
C1D C -0.0680(2) 0.6860(5) -0.07425(17)
C2D C -0.10023(18) 0.8004(5) -0.12047(16)
C3D C -0.1470(2) 0.7522(6) -0.16835(18)
H1D H -0.1609 0.6508 -0.1708
C4D C -0.1729(2) 0.8570(7) -0.2127(2)
H2D H -0.2033 0.8257 -0.2456
C5D C -0.1528(2) 1.0080(7) -0.2071(2)
C6D C -0.1089(2) 1.0580(6) -0.1597(2)
H3D H -0.0972 1.1609 -0.1563
C7D C -0.08147(19) 0.9533(5) -0.11632(18)
H4D H -0.0503 0.9858 -0.0842
C8D C -0.1452(2) 1.1746(6) -0.2888(2)
C9D C -0.1692(3) 1.3007(8) -0.3193(3)
H5D H -0.2079 1.3419 -0.3136
C10D C -0.1367(2) 1.3686(6) -0.3587(3)
H6D H -0.1539 1.4552 -0.3798
C11D C -0.07943(18) 1.3111(5) -0.36764(17)
C12D C -0.05543(19) 1.1848(5) -0.33470(16)
H7D H -0.0161 1.1445 -0.3393
C13D C -0.0878(2) 1.1166(5) -0.29530(17)
H8D H -0.0706 1.0314 -0.2733
C14D C -0.04627(19) 1.3819(5) -0.41353(16)
C15F C 0.3168(2) 1.7677(5) -0.07843(19)
H9F H 0.3153 1.8358 -0.1100
C16F C 0.2703(2) 1.6664(5) -0.0728(2)
H10F H 0.2315 1.6522 -0.0994
C17F C 0.3496(2) 1.6438(5) 0.00357(19)
C18F C 0.3887(3) 1.5902(6) 0.0604(2)
H11F H 0.4239 1.6596 0.0729
H12F H 0.3626 1.5864 0.0902
H13F H 0.4051 1.4896 0.0550
C19F C 0.2544(2) 1.4712(5) 0.0038(2)
H14F H 0.2627 1.4811 0.0469
H15F H 0.2088 1.4887 -0.0109
C20F C 0.2709(2) 1.3087(5) -0.0124(2)
H16F H 0.2641 1.2988 -0.0555
H17F H 0.3159 1.2884 0.0039
O6 O 0.0000 0.352(2) 0.2500
loop_
_geom_bond_atom_site_label_1
_geom_bond_atom_site_label_2
_geom_bond_site_symmetry_1
_geom_bond_site_symmetry_2
Co1 O1 1_555 1_555
O1 C1 1_555 1_555
O2 C1 1_555 1_555
O3 C14 1_555 1_555
O4 C14 1_555 1_555
O5 C5 1_555 1_555
N1 Co1 1_555 1_555
N2 C16 1_555 1_555
C1 C2 1_555 1_555
C2 C3 1_555 1_555
C3 H1 1_555 1_555
C4 C3 1_555 1_555
H2 C4 1_555 1_555
C5 C4 1_555 1_555
C6 C5 1_555 1_555
H3 C6 1_555 1_555
C7 C2 1_555 1_555
H4 C7 1_555 1_555
C8 O5 1_555 1_555
C9 C8 1_555 1_555
H5 C9 1_555 1_555
C10 C9 1_555 1_555
H6 C10 1_555 1_555
C11 C10 1_555 1_555
C12 C11 1_555 1_555
H7 C12 1_555 1_555
C13 C8 1_555 1_555
H8 C13 1_555 1_555
C14 C11 1_555 1_555
C15 N1 1_555 1_555
H9 C15 1_555 1_555
C16 C15 1_555 1_555
H10 C16 1_555 1_555
C17 N1 1_555 1_555
C18 C17 1_555 1_555
H11 C18 1_555 1_555
H12 C18 1_555 1_555
H13 C18 1_555 1_555
C19 N2 1_555 1_555
H14 C19 1_555 1_555
H15 C19 1_555 1_555
C20 C19 1_555 1_555
H16 C20 1_555 1_555
H17 C20 1_555 1_555
Co1D O2 1_555 1_555
Co1E O3 1_555 1_555
Co1A O4 1_555 1_555
Co1F N1F 1_555 1_555
Co1A_2 O3D 1_555 1_555
Co1E_2 O4D 1_555 1_555
O1D Co1D 1_555 1_555
O2D Co1 1_555 1_555
O3D C14D 1_555 1_555
O3E Co1 1_555 1_555
O3A Co1D 1_555 1_555
O4D C14D 1_555 1_555
O4A Co1 1_555 1_555
O4E Co1D 1_555 1_555
O5D C5D 1_555 1_555
N1F C15F 1_555 1_555
N1D Co1D 1_555 1_555
N2F C16F 1_555 1_555
C1D O1D 1_555 1_555
C2D C1D 1_555 1_555
C3D C2D 1_555 1_555
H1D C3D 1_555 1_555
C4D C3D 1_555 1_555
H2D C4D 1_555 1_555
C5D C4D 1_555 1_555
C6D C5D 1_555 1_555
H3D C6D 1_555 1_555
C7D C2D 1_555 1_555
H4D C7D 1_555 1_555
C8D O5D 1_555 1_555
C9D C8D 1_555 1_555
H5D C9D 1_555 1_555
C10D C9D 1_555 1_555
H6D C10D 1_555 1_555
C11D C10D 1_555 1_555
C12D C11D 1_555 1_555
H7D C12D 1_555 1_555
C13D C8D 1_555 1_555
H8D C13D 1_555 1_555
C14D C11D 1_555 1_555
C15F H9F 1_555 1_555
C16F C15F 1_555 1_555
H10F C16F 1_555 1_555
C17F N1F 1_555 1_555
C18F C17F 1_555 1_555
H11F C18F 1_555 1_555
H12F C18F 1_555 1_555
H13F C18F 1_555 1_555
C19F N2F 1_555 1_555
H14F C19F 1_555 1_555
H15F C19F 1_555 1_555
C20F C20 1_555 1_555
H16F C20F 1_555 1_555
H17F C20F 1_555 1_555
N2 C17 1_555 1_555
C6 C7 1_555 1_555
C12 C13 1_555 1_555
O2D C1D 1_555 1_555
N2F C17F 1_555 1_555
C6D C7D 1_555 1_555
C12D C13D 1_555 1_555
C19F C20F 1_555 1_555

#END
