
#######################################################################
#
#                 Cambridge Crystallographic Data Centre
#                                CCDC 
#
#######################################################################
#
# If this CIF has been generated from an entry in the Cambridge 
# Structural Database, then it will include bibliographic, chemical, 
# crystal, experimental, refinement or atomic coordinate data resulting 
# from the CCDC's data processing and validation procedures.
#
#######################################################################

data_AVAWAW
_symmetry_cell_setting           triclinic
_symmetry_space_group_name_H-M   'P -1'
_symmetry_Int_Tables_number      2
_space_group_name_Hall           '-P 1'
loop_
_symmetry_equiv_pos_site_id
_symmetry_equiv_pos_as_xyz
1 x,y,z
2 -x,-y,-z
_cell_length_a                   9.3980(6)
_cell_length_b                   9.5426(6)
_cell_length_c                   13.7814(9)
_cell_angle_alpha                87.5440(10)
_cell_angle_beta                 72.2920(10)
_cell_angle_gamma                71.3690(10)
_cell_volume                     1113.65
loop_
_atom_site_label
_atom_site_type_symbol
_atom_site_fract_x
_atom_site_fract_y
_atom_site_fract_z
Cd1 Cd 0.543747(13) 0.326588(12) 0.084083(8)
O1 O 0.43464(17) 0.13482(16) 0.11126(12)
O2 O 0.60564(17) 0.11239(15) 0.19544(12)
O3 O 0.6047(3) -0.4384(2) 0.01988(17)
O4 O 0.7222(2) -0.56481(17) 0.12066(14)
N1 N 0.3799(2) 0.4571(2) 0.23505(13)
N2 N 0.2363(2) 0.64025(19) 0.35047(12)
N3 N -0.24035(17) 1.17930(17) 0.96278(11)
N4 N -0.06870(19) 0.97463(18) 0.87852(11)
C1 C 0.5113(2) 0.0677(2) 0.16960(15)
C2 C 0.4801(3) -0.0745(3) 0.2116(2)
H1 H 0.3779 -0.0474 0.2636
H2 H 0.4740 -0.1306 0.1568
C3 C 0.6004(3) -0.1732(2) 0.25661(18)
C4 C 0.5845(3) -0.1462(3) 0.3587(2)
H3 H 0.5020 -0.0661 0.3963
C5 C 0.6884(4) -0.2357(4) 0.4047(2)
H4 H 0.6754 -0.2166 0.4730
C6 C 0.8124(4) -0.3543(3) 0.3494(2)
H5 H 0.8830 -0.4155 0.3802
C7 C 0.8304(3) -0.3809(3) 0.2482(2)
H6 H 0.9142 -0.4604 0.2111
C8 C 0.7266(3) -0.2919(2) 0.20060(16)
C9 C 0.7522(4) -0.3276(3) 0.08935(18)
H7 H 0.8641 -0.3567 0.0528
H8 H 0.6999 -0.2393 0.0601
C10 C 0.6896(2) -0.4508(2) 0.07498(15)
C11 C 0.4030(4) 0.4173(3) 0.32574(19)
H9 H 0.4694 0.3268 0.3372
C12 C 0.3153(4) 0.5290(3) 0.39706(19)
H10 H 0.3102 0.5293 0.4655
C13 C 0.2792(3) 0.5909(2) 0.25328(15)
H11 H 0.2413 0.6461 0.2039
C14 C 0.1264(3) 0.7885(3) 0.39350(16)
H12 H 0.0294 0.8066 0.3766
H13 H 0.1732 0.8634 0.3634
C15 C 0.0895(3) 0.8004(2) 0.50865(15)
C16 C -0.0370(3) 0.7660(3) 0.57239(17)
H14 H -0.1027 0.7369 0.5447
C17 C -0.0684(3) 0.7739(2) 0.67719(16)
H15 H -0.1554 0.7514 0.7193
C18 C 0.0290(2) 0.8150(2) 0.71947(14)
C19 C 0.1563(3) 0.8485(3) 0.65607(19)
H16 H 0.2234 0.8753 0.6836
C20 C 0.1856(3) 0.8428(3) 0.55118(18)
H17 H 0.2710 0.8679 0.5091
C21 C -0.0044(3) 0.8221(2) 0.83411(16)
H18 H -0.0789 0.7700 0.8649
H19 H 0.0925 0.7720 0.8500
C22 C -0.2194(2) 1.0430(2) 0.93247(13)
H20 H -0.2989 0.9999 0.9467
C23 C -0.0950(2) 1.1976(2) 0.92578(15)
H21 H -0.0732 1.2837 0.9349
C24 C 0.0120(2) 1.0717(3) 0.87410(16)
H22 H 0.1191 1.0548 0.8421
Cd1_2 Cd 0.543747(13) -0.673412(12) 0.084083(8)
Cd1A Cd 0.456253(13) -0.326588(12) -0.084083(8)
Cd1_3 Cd -0.456253(13) 1.326588(12) 1.084083(8)
O3_2 O 0.6047(3) 0.5616(2) 0.01988(17)
O3A O 0.3953(3) 0.4384(2) -0.01988(17)
O4_2 O 0.7222(2) 0.43519(17) 0.12066(14)
N3_2 N 0.75965(17) 0.17930(17) -0.03722(11)
loop_
_geom_bond_atom_site_label_1
_geom_bond_atom_site_label_2
_geom_bond_site_symmetry_1
_geom_bond_site_symmetry_2
Cd1 O1 1_555 1_555
O1 C1 1_555 1_555
O2 Cd1 1_555 1_555
O3 C10 1_555 1_555
O4 C10 1_555 1_555
N1 Cd1 1_555 1_555
N2 C12 1_555 1_555
N3 C22 1_555 1_555
N4 C21 1_555 1_555
C1 O2 1_555 1_555
C2 C1 1_555 1_555
H1 C2 1_555 1_555
H2 C2 1_555 1_555
C3 C2 1_555 1_555
C4 C3 1_555 1_555
H3 C4 1_555 1_555
C5 C4 1_555 1_555
H4 C5 1_555 1_555
C6 C5 1_555 1_555
H5 C6 1_555 1_555
C7 C6 1_555 1_555
H6 C7 1_555 1_555
C8 C3 1_555 1_555
C9 C8 1_555 1_555
H7 C9 1_555 1_555
H8 C9 1_555 1_555
C10 C9 1_555 1_555
C11 N1 1_555 1_555
H9 C11 1_555 1_555
C12 C11 1_555 1_555
H10 C12 1_555 1_555
C13 N1 1_555 1_555
H11 C13 1_555 1_555
C14 N2 1_555 1_555
H12 C14 1_555 1_555
H13 C14 1_555 1_555
C15 C14 1_555 1_555
C16 C15 1_555 1_555
H14 C16 1_555 1_555
C17 C16 1_555 1_555
H15 C17 1_555 1_555
C18 C17 1_555 1_555
C19 C18 1_555 1_555
H16 C19 1_555 1_555
C20 C15 1_555 1_555
H17 C20 1_555 1_555
C21 C18 1_555 1_555
H18 C21 1_555 1_555
H19 C21 1_555 1_555
C22 N4 1_555 1_555
H20 C22 1_555 1_555
C23 N3 1_555 1_555
H21 C23 1_555 1_555
C24 N4 1_555 1_555
H22 C24 1_555 1_555
Cd1_2 O3 1_555 1_555
Cd1A O3 1_555 1_555
Cd1_3 N3 1_555 1_555
O3_2 Cd1 1_555 1_555
O3A Cd1 1_555 1_555
O4_2 Cd1 1_555 1_555
N3_2 Cd1 1_555 1_555
O4 Cd1_2 1_555 1_555
N2 C13 1_555 1_555
C7 C8 1_555 1_555
C19 C20 1_555 1_555
C23 C24 1_555 1_555

#END
