
#######################################################################
#
#                 Cambridge Crystallographic Data Centre
#                                CCDC 
#
#######################################################################
#
# If this CIF has been generated from an entry in the Cambridge 
# Structural Database, then it will include bibliographic, chemical, 
# crystal, experimental, refinement or atomic coordinate data resulting 
# from the CCDC's data processing and validation procedures.
#
#######################################################################

data_AVAXIF
_symmetry_cell_setting           orthorhombic
_symmetry_space_group_name_H-M   'P n n a'
_symmetry_Int_Tables_number      52
_space_group_name_Hall           '-P 2a 2bc'
loop_
_symmetry_equiv_pos_site_id
_symmetry_equiv_pos_as_xyz
1 x,y,z
2 1/2-x,-y,z
3 x,1/2-y,1/2-z
4 1/2-x,1/2+y,1/2-z
5 -x,-y,-z
6 1/2+x,y,-z
7 -x,1/2+y,1/2+z
8 1/2+x,1/2-y,1/2+z
_cell_length_a                   6.819(6)
_cell_length_b                   12.828(12)
_cell_length_c                   11.688(10)
_cell_angle_alpha                90
_cell_angle_beta                 90
_cell_angle_gamma                90
_cell_volume                     1022.4
loop_
_atom_site_label
_atom_site_type_symbol
_atom_site_fract_x
_atom_site_fract_y
_atom_site_fract_z
Pb1 Pb 0.15215(11) 0.33589(5) 0.08866(6)
O1 O 0.455(2) 0.4462(13) 0.1113(14)
C1 C 0.583(9) 0.419(5) 0.369(2)
H1 H 0.5489 0.4790 0.4184
H2 H 0.6944 0.3843 0.4071
O2 O 0.736(2) 0.3694(15) 0.1115(14)
C2 C 0.665(4) 0.464(3) 0.2773(19)
H3 H 0.5674 0.5220 0.2753
O3 O 0.281(5) 0.3487(18) 0.321(2)
C3 C 0.614(3) 0.4269(16) 0.1563(17)
O4 O 0.425(2) 0.2818(13) 0.4637(14)
C4 C 0.418(6) 0.3460(19) 0.384(2)
Pb1A Pb 1.34785(11) 0.66411(5) 0.08866(6)
Pb1E Pb 0.65215(11) 0.33589(5) -0.08866(6)
Pb1B Pb 0.15215(11) 0.16411(5) 0.41134(6)
Pb1G Pb 0.65215(11) 0.16411(5) 0.58866(6)
Pb1C Pb 1.34785(11) 0.83589(5) 0.41134(6)
Pb1F Pb 0.84785(11) 0.83589(5) 0.58866(6)
Pb1D Pb 0.84785(11) 0.66411(5) -0.08866(6)
O1A O 1.045(2) 0.5538(13) 0.1113(14)
C1A C 0.917(9) 0.581(5) 0.369(2)
H1A H 0.9511 0.5210 0.4184
H2A H 0.8056 0.6157 0.4071
O2A O 0.764(2) 0.6306(15) 0.1115(14)
O2E O 0.236(2) 0.3694(15) -0.1115(14)
O2D O 1.264(2) 0.6306(15) -0.1115(14)
C2A C 0.835(4) 0.536(3) 0.2773(19)
H3A H 0.9326 0.4780 0.2753
O3A O 1.219(5) 0.6513(18) 0.321(2)
O3B O 0.281(5) 0.1513(18) 0.179(2)
O3C O 1.219(5) 0.8487(18) 0.179(2)
C3A C 0.886(3) 0.5731(16) 0.1563(17)
O4A O 1.075(2) 0.7182(13) 0.4637(14)
O4B O 0.425(2) 0.2182(13) 0.0363(14)
O4G O -0.075(2) 0.2182(13) -0.0363(14)
O4C O 1.075(2) 0.7818(13) 0.0363(14)
O4F O 1.575(2) 0.7818(13) -0.0363(14)
C4A C 1.082(6) 0.6540(19) 0.384(2)
loop_
_geom_bond_atom_site_label_1
_geom_bond_atom_site_label_2
_geom_bond_site_symmetry_1
_geom_bond_site_symmetry_2
Pb1 O1 1_555 1_555
O1 C3 1_555 1_555
C1 H1 1_555 1_555
H2 C1 1_555 1_555
O2 C3 1_555 1_555
C2 C1 1_555 1_555
H3 C2 1_555 1_555
O3 C4 1_555 1_555
C3 C2 1_555 1_555
O4 C4 1_555 1_555
C4 C1 1_555 1_555
Pb1A O1A 1_555 1_555
Pb1E O2 1_555 1_555
Pb1B O3 1_555 1_555
Pb1G O4 1_555 1_555
Pb1C O3A 1_555 1_555
Pb1F O4A 1_555 1_555
Pb1D O2A 1_555 1_555
O1A C3A 1_555 1_555
C1A H1A 1_555 1_555
H2A C1A 1_555 1_555
O2A C3A 1_555 1_555
O2E Pb1 1_555 1_555
O2D Pb1A 1_555 1_555
C2A C2 1_555 1_555
H3A C2A 1_555 1_555
O3A C4A 1_555 1_555
O3B Pb1 1_555 1_555
O3C Pb1A 1_555 1_555
C3A C2A 1_555 1_555
O4A Pb1C 1_555 1_555
O4B Pb1 1_555 1_555
O4G Pb1 1_555 1_555
O4C Pb1A 1_555 1_555
O4F Pb1A 1_555 1_555
C4A C1A 1_555 1_555
O4 Pb1B 1_555 1_555
Pb1E O4B 1_555 1_555
Pb1D O4C 1_555 1_555
C1A C2A 1_555 1_555
O4A C4A 1_555 1_555

#END
