
#######################################################################
#
#                 Cambridge Crystallographic Data Centre
#                                CCDC 
#
#######################################################################
#
# If this CIF has been generated from an entry in the Cambridge 
# Structural Database, then it will include bibliographic, chemical, 
# crystal, experimental, refinement or atomic coordinate data resulting 
# from the CCDC's data processing and validation procedures.
#
#######################################################################

data_AVEMIY
_symmetry_cell_setting           orthorhombic
_symmetry_space_group_name_H-M   'P 21 21 21'
_symmetry_Int_Tables_number      19
_space_group_name_Hall           'P 2ac 2ab'
loop_
_symmetry_equiv_pos_site_id
_symmetry_equiv_pos_as_xyz
1 x,y,z
2 1/2+x,1/2-y,-z
3 -x,1/2+y,1/2-z
4 1/2-x,-y,1/2+z
_cell_length_a                   7.7286(4)
_cell_length_b                   10.0328(6)
_cell_length_c                   13.4998(8)
_cell_angle_alpha                90
_cell_angle_beta                 90
_cell_angle_gamma                90
_cell_volume                     1046.77
loop_
_atom_site_label
_atom_site_type_symbol
_atom_site_fract_x
_atom_site_fract_y
_atom_site_fract_z
C1 C 0.2681(4) 0.5832(3) 0.0802(2)
H1 H 0.2160 0.6663 0.0542
H2 H 0.1766 0.5325 0.1150
C2 C 0.5340(5) 0.5857(4) -0.0612(2)
H3 H 0.6031 0.5368 -0.1112
H4 H 0.4919 0.6694 -0.0917
C3 C 0.4619(4) 0.3530(3) 0.0443(2)
H5 H 0.3757 0.2945 0.0767
H6 H 0.5295 0.2983 -0.0029
C4 C 0.7141(4) 0.4971(3) 0.0727(2)
H7 H 0.7998 0.5246 0.1232
H8 H 0.7759 0.4443 0.0218
C5 C 0.5485(4) 0.6925(3) 0.1007(2)
H9 H 0.4970 0.7719 0.0687
H10 H 0.6319 0.7242 0.1511
C6 C 0.4848(4) 0.4934(3) 0.1937(2)
H11 H 0.5645 0.5181 0.2481
H12 H 0.3905 0.4392 0.2227
N1 N 0.5837(3) 0.2801(3) -0.20724(18)
N2 N 0.4092(3) 0.6170(3) 0.15128(17)
N3 N 0.6422(3) 0.6163(3) 0.02602(18)
N4 N 0.5807(3) 0.4103(3) 0.12097(17)
O1 O 0.2188(3) 0.4459(2) -0.09663(15)
O2 O 0.4950(3) 0.3382(3) -0.27028(19)
O3 O 0.5218(3) 0.1825(3) -0.1622(2)
O4 O 0.7326(3) 0.3202(3) -0.18807(18)
P1 P 0.35167(10) 0.48454(9) -0.02195(6)
Ag1 Ag 0.19480(3) 0.26328(2) -0.212290(15)
N2C N 0.0908(3) 0.3830(3) -0.34872(17)
N4A N 0.0807(3) 0.0897(3) -0.12097(17)
Ag1A Ag 0.69480(3) 0.23672(2) 0.212290(15)
Ag1C Ag 0.30520(3) 0.73672(2) 0.287710(15)
loop_
_geom_bond_atom_site_label_1
_geom_bond_atom_site_label_2
_geom_bond_site_symmetry_1
_geom_bond_site_symmetry_2
C1 H1 1_555 1_555
H2 C1 1_555 1_555
C2 H3 1_555 1_555
H4 C2 1_555 1_555
C3 H5 1_555 1_555
H6 C3 1_555 1_555
C4 H7 1_555 1_555
H8 C4 1_555 1_555
C5 H9 1_555 1_555
H10 C5 1_555 1_555
C6 H11 1_555 1_555
H12 C6 1_555 1_555
N1 O2 1_555 1_555
N2 C1 1_555 1_555
N3 C2 1_555 1_555
N4 C3 1_555 1_555
O1 P1 1_555 1_555
O2 Ag1 1_555 1_555
O3 N1 1_555 1_555
O4 N1 1_555 1_555
P1 C1 1_555 1_555
Ag1 O1 1_555 1_555
N2C Ag1 1_555 1_555
N4A Ag1 1_555 1_555
Ag1A N4 1_555 1_555
Ag1C N2 1_555 1_555
C2 P1 1_555 1_555
C3 P1 1_555 1_555
C4 N3 1_555 1_555
C4 N4 1_555 1_555
C5 N2 1_555 1_555
C5 N3 1_555 1_555
C6 N2 1_555 1_555
C6 N4 1_555 1_555

#END
