
#######################################################################
#
#                 Cambridge Crystallographic Data Centre
#                                CCDC 
#
#######################################################################
#
# If this CIF has been generated from an entry in the Cambridge 
# Structural Database, then it will include bibliographic, chemical, 
# crystal, experimental, refinement or atomic coordinate data resulting 
# from the CCDC's data processing and validation procedures.
#
#######################################################################

data_AVINAV
_symmetry_cell_setting           triclinic
_symmetry_space_group_name_H-M   'P -1'
_symmetry_Int_Tables_number      2
_space_group_name_Hall           '-P 1'
loop_
_symmetry_equiv_pos_site_id
_symmetry_equiv_pos_as_xyz
1 x,y,z
2 -x,-y,-z
_cell_length_a                   10.4542(8)
_cell_length_b                   13.8140(10)
_cell_length_c                   13.9456(11)
_cell_angle_alpha                77.0740(10)
_cell_angle_beta                 78.2320(10)
_cell_angle_gamma                76.9100(10)
_cell_volume                     1886.82
loop_
_atom_site_label
_atom_site_type_symbol
_atom_site_fract_x
_atom_site_fract_y
_atom_site_fract_z
C1 C 1.7790(3) -0.1740(2) 0.1803(2)
C2 C 1.6887(3) -0.0769(3) 0.1431(3)
C3 C 1.7392(3) 0.0015(3) 0.0765(2)
H1 H 1.8304 -0.0051 0.0547
C4 C 1.6537(3) 0.0904(2) 0.0419(2)
C5 C 1.5177(3) 0.0985(3) 0.0779(2)
H2 H 1.4596 0.1573 0.0557
C6 C 1.4678(3) 0.0220(2) 0.1450(2)
C7 C 1.5524(3) -0.0663(2) 0.1775(2)
H3 H 1.5185 -0.1187 0.2224
C8 C 1.7007(3) 0.1793(3) -0.0279(2)
C9 C 1.2798(3) -0.0356(3) 0.2516(3)
H4 H 1.2877 -0.0954 0.2236
H5 H 1.3294 -0.0541 0.3067
C10 C 1.1358(3) 0.0041(2) 0.2879(2)
C11 C 1.0968(3) 0.0711(3) 0.3530(3)
H6 H 1.1613 0.0937 0.3747
C12 C 0.9647(3) 0.1050(3) 0.3864(3)
H7 H 0.9418 0.1516 0.4288
C13 C 0.8647(3) 0.0717(3) 0.3584(2)
C14 C 0.9042(3) 0.0053(3) 0.2917(3)
H8 H 0.8396 -0.0177 0.2705
C15 C 1.0364(3) -0.0274(3) 0.2560(3)
H9 H 1.0596 -0.0707 0.2103
C16 C 0.7213(3) 0.1029(2) 0.3987(2)
C17 C 0.6802(3) 0.1368(3) 0.4876(3)
H10 H 0.7439 0.1417 0.5232
C18 C 0.5483(3) 0.1635(3) 0.5252(3)
H11 H 0.5248 0.1871 0.5850
C19 C 0.4498(3) 0.1561(2) 0.4766(2)
C20 C 0.4901(3) 0.1244(2) 0.3842(2)
H12 H 0.4259 0.1219 0.3480
C21 C 0.6217(3) 0.0972(3) 0.3465(3)
H13 H 0.6457 0.0748 0.2860
C22 C 0.3066(3) 0.1854(3) 0.5168(3)
H14 H 0.2610 0.1297 0.5240
H15 H 0.2960 0.2039 0.5815
C23 C 0.1243(3) 0.3163(2) 0.4635(2)
C24 C 0.0893(3) 0.4018(3) 0.3938(3)
H16 H 0.1532 0.4243 0.3419
C25 C -0.0409(3) 0.4537(2) 0.4013(2)
C26 C -0.1369(3) 0.4213(3) 0.4795(2)
H17 H -0.2252 0.4544 0.4828
C27 C -0.0988(3) 0.3383(2) 0.5531(2)
C28 C 0.0314(3) 0.2857(2) 0.5453(2)
H18 H 0.0565 0.2304 0.5941
C29 C -0.0728(3) 0.5485(3) 0.3259(2)
C30 C -0.1958(3) 0.3092(2) 0.6414(3)
C31 C 2.0247(3) 0.2055(3) 0.0955(3)
H19 H 1.9505 0.1901 0.0750
H20 H 2.0009 0.2155 0.1633
H21 H 2.0991 0.1504 0.0904
C32 C 2.0611(3) 0.2985(3) 0.0304(3)
C33 C 2.1950(4) 0.3101(3) 0.1514(3)
H22 H 2.1309 0.3403 0.2013
H23 H 2.2779 0.3315 0.1452
H24 H 2.2080 0.2378 0.1703
C34 C 2.1903(4) 0.4286(2) -0.0151(2)
H25 H 2.2848 0.4124 -0.0357
H26 H 2.1691 0.4859 0.0175
H27 H 2.1466 0.4444 -0.0724
Mn1 Mn 1.92487(5) 0.28993(4) -0.15125(4)
N1 N 2.1455(3) 0.3423(2) 0.0538(2)
O1 O 1.6120(2) 0.25474(18) -0.05293(18)
O2 O 1.8236(2) 0.17519(17) -0.05528(17)
O3 O 1.9006(2) -0.17537(17) 0.16943(16)
O4 O 1.7238(2) -0.24823(17) 0.22418(17)
O5 O 1.3321(2) 0.04119(18) 0.17740(17)
O6 O 0.2539(2) 0.26979(18) 0.44658(18)
O7 O 0.0133(2) 0.58037(17) 0.26260(17)
O8 O -0.1984(2) 0.58973(18) 0.33678(17)
H37 H -0.2095 0.6420 0.2953
O9 O -0.3192(2) 0.33228(18) 0.62416(17)
H38 H -0.3826 0.3324 0.6732
O10 O -0.1645(2) 0.26546(18) 0.72233(18)
O11 O 2.0138(2) 0.33409(17) -0.04882(17)
O13 O 1.7467(2) 0.40326(17) -0.12272(17)
H39 H 1.7235 0.4360 -0.1777
H40 H 1.6842 0.3743 -0.0882
Mn1A Mn 2.07513(5) -0.28993(4) 0.15125(4)
Mn1A_2 Mn 0.07513(5) 0.71007(4) 0.15125(4)
Mn1_2 Mn -0.07513(5) 0.28993(4) 0.84875(4)
O3A O 2.0994(2) 0.17537(17) -0.16943(16)
O7A O 1.9867(2) 0.41963(17) -0.26260(17)
O10_2 O 1.8355(2) 0.26546(18) -0.27767(18)
C35 C 0.5177(4) 0.4296(3) 0.3737(3)
H28 H 0.5600 0.3641 0.4047
H29 H 0.4367 0.4522 0.4160
H30 H 0.5763 0.4767 0.3633
C36 C 0.4864(4) 0.4228(3) 0.2746(3)
C37 C 0.5372(4) 0.3848(3) 0.1188(3)
H31 H 0.6139 0.3762 0.0681
H32 H 0.4754 0.4445 0.0964
H33 H 0.4954 0.3269 0.1323
C38 C 0.7173(3) 0.3651(3) 0.2179(3)
H34 H 0.7235 0.3430 0.2874
H35 H 0.7603 0.4221 0.1915
H36 H 0.7601 0.3110 0.1827
N2 N 0.5760(3) 0.3944(2) 0.2056(2)
O12 O 0.3677(2) 0.45320(19) 0.25910(18)
O14 O 0.4971(2) 0.68330(17) 0.22087(16)
H41 H 0.4913 0.6451 0.1825
H42 H 0.4860 0.7444 0.1903
loop_
_geom_bond_atom_site_label_1
_geom_bond_atom_site_label_2
_geom_bond_site_symmetry_1
_geom_bond_site_symmetry_2
C1 C2 1_555 1_555
C2 C3 1_555 1_555
C3 H1 1_555 1_555
C4 C3 1_555 1_555
C5 C4 1_555 1_555
H2 C5 1_555 1_555
C6 C5 1_555 1_555
C7 C2 1_555 1_555
H3 C7 1_555 1_555
C8 C4 1_555 1_555
C9 H4 1_555 1_555
H5 C9 1_555 1_555
C10 C9 1_555 1_555
C11 C10 1_555 1_555
H6 C11 1_555 1_555
C12 C11 1_555 1_555
H7 C12 1_555 1_555
C13 C12 1_555 1_555
C14 C13 1_555 1_555
H8 C14 1_555 1_555
C15 C10 1_555 1_555
H9 C15 1_555 1_555
C16 C13 1_555 1_555
C17 C16 1_555 1_555
H10 C17 1_555 1_555
C18 C17 1_555 1_555
H11 C18 1_555 1_555
C19 C18 1_555 1_555
C20 C19 1_555 1_555
H12 C20 1_555 1_555
C21 C16 1_555 1_555
H13 C21 1_555 1_555
C22 C19 1_555 1_555
H14 C22 1_555 1_555
H15 C22 1_555 1_555
C23 C24 1_555 1_555
C24 H16 1_555 1_555
C25 C24 1_555 1_555
C26 C25 1_555 1_555
H17 C26 1_555 1_555
C27 C26 1_555 1_555
C28 C23 1_555 1_555
H18 C28 1_555 1_555
C29 C25 1_555 1_555
C30 C27 1_555 1_555
C31 H19 1_555 1_555
H20 C31 1_555 1_555
H21 C31 1_555 1_555
C32 C31 1_555 1_555
C33 H22 1_555 1_555
H23 C33 1_555 1_555
H24 C33 1_555 1_555
C34 H25 1_555 1_555
H26 C34 1_555 1_555
H27 C34 1_555 1_555
C35 H28 1_555 1_555
H29 C35 1_555 1_555
H30 C35 1_555 1_555
C36 C35 1_555 1_555
C37 H31 1_555 1_555
H32 C37 1_555 1_555
H33 C37 1_555 1_555
C38 H34 1_555 1_555
H35 C38 1_555 1_555
H36 C38 1_555 1_555
Mn1 O2 1_555 1_555
N1 C32 1_555 1_555
N2 C36 1_555 1_555
O1 C8 1_555 1_555
O2 C8 1_555 1_555
O3 C1 1_555 1_555
O4 C1 1_555 1_555
O5 C6 1_555 1_555
O6 C22 1_555 1_555
O7 C29 1_555 1_555
O8 C29 1_555 1_555
H37 O8 1_555 1_555
O9 C30 1_555 1_555
H38 O9 1_555 1_555
O10 C30 1_555 1_555
O11 C32 1_555 1_555
O12 C36 1_555 1_555
O13 Mn1 1_555 1_555
H39 O13 1_555 1_555
H40 O13 1_555 1_555
O14 H41 1_555 1_555
H42 O14 1_555 1_555
Mn1A O3 1_555 1_555
Mn1A_2 O7 1_555 1_555
Mn1_2 O10 1_555 1_555
O3A Mn1 1_555 1_555
O7A Mn1 1_555 1_555
O10_2 Mn1 1_555 1_555
C6 C7 1_555 1_555
C9 O5 1_555 1_555
C14 C15 1_555 1_555
C20 C21 1_555 1_555
C23 O6 1_555 1_555
C27 C28 1_555 1_555
C33 N1 1_555 1_555
C34 N1 1_555 1_555
C37 N2 1_555 1_555
C38 N2 1_555 1_555
Mn1 O11 1_555 1_555

#END
