
#######################################################################
#
#                 Cambridge Crystallographic Data Centre
#                                CCDC 
#
#######################################################################
#
# If this CIF has been generated from an entry in the Cambridge 
# Structural Database, then it will include bibliographic, chemical, 
# crystal, experimental, refinement or atomic coordinate data resulting 
# from the CCDC's data processing and validation procedures.
#
#######################################################################

data_AVIPEB
_symmetry_cell_setting           monoclinic
_symmetry_space_group_name_H-M   'C 2/c'
_symmetry_Int_Tables_number      15
_space_group_name_Hall           '-C 2yn'
loop_
_symmetry_equiv_pos_site_id
_symmetry_equiv_pos_as_xyz
1 x,y,z
2 -x,y,1/2-z
3 1/2+x,1/2+y,z
4 1/2-x,1/2+y,1/2-z
5 -x,-y,-z
6 x,-y,1/2+z
7 1/2-x,1/2-y,-z
8 1/2+x,1/2-y,1/2+z
_cell_length_a                   9.9364(5)
_cell_length_b                   12.0694(6)
_cell_length_c                   7.2763(4)
_cell_angle_alpha                90
_cell_angle_beta                 106.4970(6)
_cell_angle_gamma                90
_cell_volume                     836.699
loop_
_atom_site_label
_atom_site_type_symbol
_atom_site_fract_x
_atom_site_fract_y
_atom_site_fract_z
Mg1 Mg 0.5000 0.15697(5) 0.2500
O1 O 0.25166(11) 0.18195(9) 0.21191(15)
N1 N 0.0000 -0.15322(13) 0.2500
O2 O 0.54535(11) 0.16865(8) 0.53977(15)
H1 H 0.5995(19) 0.2129(16) 0.597(3)
H2 H 0.571(2) 0.1123(15) 0.602(3)
O3 O 0.36056(10) 0.02117(9) 0.25129(15)
C1 C 0.0000 0.07925(15) 0.2500
H3 H 0.0000 0.1580 0.2500
C2 C 0.11813(13) 0.02057(11) 0.23824(18)
C3 C 0.11132(13) -0.09501(11) 0.23205(18)
H4 H 0.1892 -0.1347 0.2142
C4 C 0.25083(13) 0.07834(12) 0.23299(18)
Mg1B Mg 0.0000 -0.34303(5) 0.2500
Mg1_2 Mg -0.5000 0.15697(5) 0.2500
O1A O -0.25166(11) 0.18195(9) 0.28809(15)
O1A_2 O 0.74834(11) 0.18195(9) 0.28809(15)
N1B N 0.5000 0.34678(13) 0.2500
O2A O 0.45465(11) 0.16865(8) -0.03977(15)
H1A H 0.4005(19) 0.2129(16) -0.097(3)
H2A H 0.429(2) 0.1123(15) -0.102(3)
O3A O -0.36056(10) 0.02117(9) 0.24871(15)
O3A_2 O 0.63944(10) 0.02117(9) 0.24871(15)
C2A C -0.11813(13) 0.02057(11) 0.26176(18)
C3A C -0.11132(13) -0.09501(11) 0.26795(18)
H4A H -0.1892 -0.1347 0.2858
C4A C -0.25083(13) 0.07834(12) 0.26701(18)
loop_
_geom_bond_atom_site_label_1
_geom_bond_atom_site_label_2
_geom_bond_site_symmetry_1
_geom_bond_site_symmetry_2
Mg1 O1 1_555 1_555
O1 C4 1_555 1_555
N1 C3 1_555 1_555
O2 Mg1 1_555 1_555
H1 O2 1_555 1_555
H2 O2 1_555 1_555
O3 Mg1 1_555 1_555
C1 H3 1_555 1_555
C2 C1 1_555 1_555
C3 C2 1_555 1_555
H4 C3 1_555 1_555
C4 O3 1_555 1_555
Mg1B N1 1_555 1_555
Mg1_2 O1A 1_555 1_555
O1A C4A 1_555 1_555
O1A_2 Mg1 1_555 1_555
N1B Mg1 1_555 1_555
O2A Mg1 1_555 1_555
H1A O2A 1_555 1_555
H2A O2A 1_555 1_555
O3A Mg1_2 1_555 1_555
O3A_2 Mg1 1_555 1_555
C2A C1 1_555 1_555
C3A N1 1_555 1_555
H4A C3A 1_555 1_555
C4A O3A 1_555 1_555
C2 C4 1_555 1_555
C2A C3A 1_555 1_555
C2A C4A 1_555 1_555

#END
