
#######################################################################
#
#                 Cambridge Crystallographic Data Centre
#                                CCDC 
#
#######################################################################
#
# If this CIF has been generated from an entry in the Cambridge 
# Structural Database, then it will include bibliographic, chemical, 
# crystal, experimental, refinement or atomic coordinate data resulting 
# from the CCDC's data processing and validation procedures.
#
#######################################################################

data_AVIQEC
_symmetry_cell_setting           monoclinic
_symmetry_space_group_name_H-M   'P 21/c'
_symmetry_Int_Tables_number      14
_space_group_name_Hall           '-P 2ybc'
loop_
_symmetry_equiv_pos_site_id
_symmetry_equiv_pos_as_xyz
1 x,y,z
2 -x,1/2+y,1/2-z
3 -x,-y,-z
4 x,1/2-y,1/2+z
_cell_length_a                   20.163(2)
_cell_length_b                   10.1014(12)
_cell_length_c                   27.227(2)
_cell_angle_alpha                90
_cell_angle_beta                 116.002(3)
_cell_angle_gamma                90
_cell_volume                     4984.13
loop_
_atom_site_label
_atom_site_type_symbol
_atom_site_fract_x
_atom_site_fract_y
_atom_site_fract_z
Fe1 Fe 0.01587(3) -0.09123(5) -0.35596(2)
Fe2 Fe 0.53093(3) -0.70807(5) -0.373210(19)
Cu1 Cu 0.38255(2) -0.55242(5) -0.278680(19)
Cu2 Cu 0.20628(2) -0.44642(5) -0.298420(19)
B1 B -0.1366(2) -0.0713(5) -0.4567(2)
H1 H -0.1849 -0.0646 -0.4885
B2 B 0.6570(3) -0.6001(5) -0.3951(2)
H2 H 0.6971 -0.5647 -0.4024
C1 C 0.0838(2) -0.2348(4) -0.33349(16)
C2 C 0.0400(2) -0.0709(5) -0.28017(17)
C3 C 0.0943(2) 0.0269(4) -0.34593(17)
C4 C 0.48141(19) -0.6301(3) -0.33473(15)
C5 C 0.5379(2) -0.8607(4) -0.32763(17)
C6 C 0.4367(2) -0.7608(4) -0.42858(16)
C7 C -0.0491(2) 0.1777(4) -0.35495(19)
H3 H -0.0115 0.2054 -0.3219
C8 C -0.1110(3) 0.2527(5) -0.3879(2)
H4 H -0.1225 0.3382 -0.3815
C9 C -0.1496(2) 0.1759(5) -0.4299(2)
H5 H -0.1941 0.1977 -0.4593
C10 C 0.0357(2) -0.1608(4) -0.45766(17)
H6 H 0.0862 -0.1763 -0.4398
C11 C -0.0083(3) -0.1737(4) -0.51365(18)
H7 H 0.0066 -0.2022 -0.5397
C12 C -0.0758(3) -0.1369(5) -0.52236(17)
H8 H -0.1166 -0.1325 -0.5563
C13 C -0.0865(2) -0.2960(5) -0.34358(18)
H9 H -0.0527 -0.3298 -0.3102
C14 C -0.1581(3) -0.3392(5) -0.3723(2)
H10 H -0.1813 -0.4084 -0.3634
C15 C -0.1877(3) -0.2565(5) -0.41730(19)
H11 H -0.2361 -0.2596 -0.4442
C16 C 0.5720(2) -0.9127(4) -0.43754(17)
H12 H 0.5375 -0.9761 -0.4394
C17 C 0.6197(3) -0.9272(5) -0.45935(19)
H13 H 0.6260 -1.0011 -0.4772
C18 C 0.6565(3) -0.8112(5) -0.44975(19)
H14 H 0.6910 -0.7884 -0.4623
C19 C 0.4790(2) -0.4441(4) -0.43248(17)
H15 H 0.4325 -0.4438 -0.4332
C20 C 0.5057(3) -0.3457(5) -0.45196(19)
H16 H 0.4822 -0.2666 -0.4674
C21 C 0.5733(3) -0.3849(5) -0.44451(19)
H17 H 0.6045 -0.3387 -0.4555
C22 C 0.6602(2) -0.6569(4) -0.26495(17)
H18 H 0.6367 -0.6854 -0.2441
C23 C 0.7320(2) -0.6107(5) -0.24403(19)
H19 H 0.7662 -0.6029 -0.2076
C24 C 0.7405(2) -0.5799(4) -0.28890(18)
H20 H 0.7832 -0.5440 -0.2885
C25 C 0.1214(3) -0.5704(6) -0.2476(2)
H21 H 0.1099 -0.6389 -0.2745
H22 H 0.0851 -0.5013 -0.2616
H23 H 0.1211 -0.6066 -0.2151
C26 C 0.2070(3) -0.4134(6) -0.18925(19)
H24 H 0.1966 -0.3264 -0.2050
H25 H 0.2577 -0.4180 -0.1626
H26 H 0.1755 -0.4319 -0.1720
C27 C 0.2459(3) -0.6178(5) -0.2155(2)
H27 H 0.2239 -0.6907 -0.2046
H28 H 0.2863 -0.5849 -0.1824
C28 C 0.2786(3) -0.6742(5) -0.2499(2)
H29 H 0.2465 -0.7344 -0.2788
C29 C 0.3565(3) -0.7323(6) -0.2101(2)
H30 H 0.3808 -0.6767 -0.1781
H31 H 0.3520 -0.8213 -0.1986
C30 C 0.3768(3) -0.8407(5) -0.2843(2)
H32 H 0.3804 -0.9237 -0.2661
H33 H 0.4095 -0.8411 -0.3014
H34 H 0.3270 -0.8279 -0.3116
C31 C 0.4737(2) -0.7605(5) -0.2024(2)
H35 H 0.5079 -0.7418 -0.2173
H36 H 0.4776 -0.8521 -0.1921
H37 H 0.4850 -0.7061 -0.1709
C32 C 0.2935(2) -0.3355(4) -0.35193(16)
C33 C 0.2983(3) -0.2217(5) -0.3876(2)
F1 F 0.23361(15) -0.1876(3) -0.42659(12)
F2 F 0.33686(15) -0.2414(3) -0.41367(11)
F3 F 0.32501(17) -0.1156(3) -0.36051(13)
N1 N 0.12401(17) -0.3251(3) -0.32032(13)
N2 N 0.0556(2) -0.0612(4) -0.23463(14)
N3 N 0.13904(17) 0.1085(4) -0.34060(15)
N4 N 0.44949(17) -0.5927(3) -0.31067(13)
N5 N 0.5494(2) -0.9425(4) -0.29750(14)
N6 N 0.38053(18) -0.7907(3) -0.46187(14)
N7 N -0.05240(17) 0.0651(3) -0.37733(14)
N8 N -0.11439(19) 0.0635(4) -0.42306(15)
N9 N -0.00660(16) -0.1226(3) -0.43413(13)
N10 N -0.07566(18) -0.1064(4) -0.47297(14)
N11 N -0.07329(17) -0.2010(3) -0.37030(13)
N12 N -0.13673(18) -0.1722(3) -0.41639(14)
N13 N 0.58030(17) -0.7970(3) -0.41308(13)
N14 N 0.63504(17) -0.7342(4) -0.41911(14)
N15 N 0.52889(18) -0.5442(3) -0.41148(14)
N16 N 0.58866(19) -0.5056(3) -0.41782(14)
N17 N 0.63045(17) -0.6547(3) -0.31758(13)
N18 N 0.67984(16) -0.6074(3) -0.33401(13)
N19 N 0.19303(19) -0.5171(3) -0.23494(14)
N20 N 0.39742(18) -0.7322(3) -0.24413(14)
O1 O 0.29385(15) -0.5469(3) -0.26884(12)
O2 O 0.35459(16) -0.3901(3) -0.32551(12)
O3 O 0.23277(15) -0.3536(3) -0.35229(11)
O4 O 0.14307(17) -0.6085(3) -0.35964(13)
H44 H 0.1708 -0.6758 -0.3541
H45 H 0.1314 -0.5805 -0.3918
Cu1A Cu 0.61745(2) -1.05242(5) -0.221320(19)
N5A N 0.4506(2) -0.4425(4) -0.20250(14)
C34 C 0.0146(3) -0.4959(5) -0.5785(2)
H38 H -0.0225 -0.5636 -0.5913
H39 H 0.0449 -0.5026 -0.5975
H40 H -0.0086 -0.4105 -0.5852
C35 C 0.0605(3) -0.5126(5) -0.5198(2)
N21 N 0.0943(2) -0.5222(4) -0.47247(17)
C36 C 0.2677(3) -0.6510(5) -0.4199(2)
H41 H 0.3003 -0.7189 -0.4211
H42 H 0.2208 -0.6893 -0.4270
H43 H 0.2886 -0.6104 -0.3844
C37 C 0.2576(3) -0.5510(6) -0.4614(2)
N22 N 0.25035(19) -0.4714(4) -0.49562(16)
loop_
_geom_bond_atom_site_label_1
_geom_bond_atom_site_label_2
_geom_bond_site_symmetry_1
_geom_bond_site_symmetry_2
Fe1 C1 1_555 1_555
Fe2 C4 1_555 1_555
Cu1 N4 1_555 1_555
Cu2 N1 1_555 1_555
B1 H1 1_555 1_555
B2 H2 1_555 1_555
C1 N1 1_555 1_555
C2 Fe1 1_555 1_555
C3 Fe1 1_555 1_555
C4 N4 1_555 1_555
C5 Fe2 1_555 1_555
C6 Fe2 1_555 1_555
C7 H3 1_555 1_555
C8 C7 1_555 1_555
H4 C8 1_555 1_555
C9 C8 1_555 1_555
H5 C9 1_555 1_555
C10 H6 1_555 1_555
C11 C10 1_555 1_555
H7 C11 1_555 1_555
C12 C11 1_555 1_555
H8 C12 1_555 1_555
C13 H9 1_555 1_555
C14 C13 1_555 1_555
H10 C14 1_555 1_555
C15 C14 1_555 1_555
H11 C15 1_555 1_555
C16 H12 1_555 1_555
C17 C16 1_555 1_555
H13 C17 1_555 1_555
C18 C17 1_555 1_555
H14 C18 1_555 1_555
C19 H15 1_555 1_555
C20 C19 1_555 1_555
H16 C20 1_555 1_555
C21 C20 1_555 1_555
H17 C21 1_555 1_555
C22 H18 1_555 1_555
C23 C22 1_555 1_555
H19 C23 1_555 1_555
C24 C23 1_555 1_555
H20 C24 1_555 1_555
C25 H21 1_555 1_555
H22 C25 1_555 1_555
H23 C25 1_555 1_555
C26 H24 1_555 1_555
H25 C26 1_555 1_555
H26 C26 1_555 1_555
C27 H27 1_555 1_555
H28 C27 1_555 1_555
C28 C27 1_555 1_555
H29 C28 1_555 1_555
C29 C28 1_555 1_555
H30 C29 1_555 1_555
H31 C29 1_555 1_555
C30 H32 1_555 1_555
H33 C30 1_555 1_555
H34 C30 1_555 1_555
C31 H35 1_555 1_555
H36 C31 1_555 1_555
H37 C31 1_555 1_555
C32 C33 1_555 1_555
C33 F1 1_555 1_555
C34 H38 1_555 1_555
H39 C34 1_555 1_555
H40 C34 1_555 1_555
C35 C34 1_555 1_555
C36 H41 1_555 1_555
H42 C36 1_555 1_555
H43 C36 1_555 1_555
C37 C36 1_555 1_555
F2 C33 1_555 1_555
F3 C33 1_555 1_555
N2 C2 1_555 1_555
N3 C3 1_555 1_555
N5 C5 1_555 1_555
N6 C6 1_555 1_555
N7 Fe1 1_555 1_555
N8 B1 1_555 1_555
N9 Fe1 1_555 1_555
N10 B1 1_555 1_555
N11 Fe1 1_555 1_555
N12 B1 1_555 1_555
N13 Fe2 1_555 1_555
N14 B2 1_555 1_555
N15 Fe2 1_555 1_555
N16 B2 1_555 1_555
N17 Fe2 1_555 1_555
N18 B2 1_555 1_555
N19 Cu2 1_555 1_555
N20 Cu1 1_555 1_555
N21 C35 1_555 1_555
N22 C37 1_555 1_555
O1 Cu1 1_555 1_555
O2 Cu1 1_555 1_555
O3 Cu2 1_555 1_555
O4 Cu2 1_555 1_555
H44 O4 1_555 1_555
H45 O4 1_555 1_555
Cu1A N5 1_555 1_555
N5A Cu1 1_555 1_555
Cu2 O1 1_555 1_555
C7 N7 1_555 1_555
C9 N8 1_555 1_555
C10 N9 1_555 1_555
C12 N10 1_555 1_555
C13 N11 1_555 1_555
C15 N12 1_555 1_555
C16 N13 1_555 1_555
C18 N14 1_555 1_555
C19 N15 1_555 1_555
C21 N16 1_555 1_555
C22 N17 1_555 1_555
C24 N18 1_555 1_555
C25 N19 1_555 1_555
C26 N19 1_555 1_555
C27 N19 1_555 1_555
C28 O1 1_555 1_555
C29 N20 1_555 1_555
C30 N20 1_555 1_555
C31 N20 1_555 1_555
C32 O2 1_555 1_555
C32 O3 1_555 1_555
N7 N8 1_555 1_555
N9 N10 1_555 1_555
N11 N12 1_555 1_555
N13 N14 1_555 1_555
N15 N16 1_555 1_555
N17 N18 1_555 1_555

#END
