
#######################################################################
#
#                 Cambridge Crystallographic Data Centre
#                                CCDC 
#
#######################################################################
#
# If this CIF has been generated from an entry in the Cambridge 
# Structural Database, then it will include bibliographic, chemical, 
# crystal, experimental, refinement or atomic coordinate data resulting 
# from the CCDC's data processing and validation procedures.
#
#######################################################################

data_AVIVIK
_symmetry_cell_setting           tetragonal
_symmetry_space_group_name_H-M   'I 41/a m d'
_symmetry_Int_Tables_number      141
_space_group_name_Hall           '-I 4bd 2'
loop_
_symmetry_equiv_pos_site_id
_symmetry_equiv_pos_as_xyz
1 x,y,z
2 1/4-y,3/4+x,1/4+z
3 1/4+y,1/4-x,3/4+z
4 1/4+y,3/4+x,1/4-z
5 1/2+x,1/2+y,1/2+z
6 3/4-y,1/4+x,3/4+z
7 3/4+y,3/4-x,1/4+z
8 3/4+y,1/4+x,3/4-z
9 1/2-x,-y,1/2+z
10 1/2-x,y,1/2-z
11 x,-y,-z
12 1/4-y,1/4-x,3/4-z
13 -x,1/2-y,z
14 -x,1/2+y,-z
15 1/2+x,1/2-y,1/2-z
16 3/4-y,3/4-x,1/4-z
17 -x,-y,-z
18 3/4+y,1/4-x,3/4-z
19 3/4-y,3/4+x,1/4-z
20 3/4-y,1/4-x,3/4+z
21 1/2-x,1/2-y,1/2-z
22 1/4+y,3/4-x,1/4-z
23 1/4-y,1/4+x,3/4-z
24 1/4-y,3/4-x,1/4+z
25 1/2+x,y,1/2-z
26 1/2+x,-y,1/2+z
27 -x,y,z
28 3/4+y,3/4+x,1/4+z
29 x,1/2+y,-z
30 x,1/2-y,z
31 1/2-x,1/2+y,1/2+z
32 1/4+y,1/4+x,3/4+z
_cell_length_a                   22.975(5)
_cell_length_b                   22.975(5)
_cell_length_c                   34.298(7)
_cell_angle_alpha                90
_cell_angle_beta                 90
_cell_angle_gamma                90
_cell_volume                     18104.2
loop_
_atom_site_label
_atom_site_type_symbol
_atom_site_fract_x
_atom_site_fract_y
_atom_site_fract_z
Sb2 Sb 0.0000 0.2500 0.8750
F4 F 0.0822(2) 0.2500 0.87487(17)
F5 F 0.0000 0.2500 0.9291(2)
F4G F 0.0000 0.3322(2) 0.87513(17)
F4Z F -0.0822(2) 0.2500 0.87487(17)
F4Q F 0.0000 0.1678(2) 0.87513(17)
F5G F 0.0000 0.2500 0.8209(2)
Sb3 Sb 0.2500 0.58339(19) 0.7500
F6 F 0.1718(13) 0.5905(10) 0.7655(8)
F7 F 0.2699(10) 0.5192(11) 0.7778(6)
F8 F 0.2615(19) 0.637(2) 0.7819(12)
F6I F 0.3282(13) 0.5905(10) 0.7345(8)
F7I F 0.2301(10) 0.5192(11) 0.7222(6)
F8I F 0.2385(19) 0.637(2) 0.7181(12)
Ag1 Ag 0.33474(2) 0.08474(2) 0.6250
N1 N 0.2326(2) 0.0877(3) 0.63622(17)
C1 C 0.2143(3) 0.1207(4) 0.6653(2)
H1 H 0.2425 0.1436 0.6785
C2 C 0.1585(3) 0.1245(4) 0.6779(2)
H2 H 0.1486 0.1490 0.6992
C3 C 0.1158(3) 0.0917(3) 0.6589(2)
C4 C 0.1347(3) 0.0559(3) 0.6289(2)
H3 H 0.1077 0.0319 0.6155
C5 C 0.1927(3) 0.0551(3) 0.6187(2)
H4 H 0.2048 0.0301 0.5982
C6 C 0.0548(3) 0.0937(3) 0.67088(18)
S1 S 0.0000 0.08912(12) 0.63623(8)
C7 C 0.0321(3) 0.0987(3) 0.70768(19)
C8 C 0.0658(3) 0.0989(3) 0.74514(18)
C9 C 0.0888(4) 0.0490(4) 0.7586(2)
H5 H 0.0848 0.0140 0.7442
C10 C 0.1177(4) 0.0492(4) 0.7931(2)
H6 H 0.1338 0.0134 0.8018
N2 N 0.1254(2) 0.0965(2) 0.81602(15)
C11 C 0.1036(3) 0.1451(3) 0.80152(19)
H7 H 0.1087 0.1801 0.8159
C12 C 0.0738(3) 0.1478(3) 0.7668(2)
H8 H 0.0589 0.1840 0.7578
C6Z C -0.0548(3) 0.0937(3) 0.67088(18)
C3Z C -0.1158(3) 0.0917(3) 0.6589(2)
C2Z C -0.1585(3) 0.1245(4) 0.6779(2)
C1Z C -0.2143(3) 0.1207(4) 0.6653(2)
N1Z N -0.2326(2) 0.0877(3) 0.63622(17)
C5Z C -0.1927(3) 0.0551(3) 0.6187(2)
C4Z C -0.1347(3) 0.0559(3) 0.6289(2)
H3Z H -0.1077 0.0319 0.6155
H4Z H -0.2048 0.0301 0.5982
H1Z H -0.2425 0.1436 0.6785
H2Z H -0.1486 0.1490 0.6992
C7Z C -0.0321(3) 0.0987(3) 0.70768(19)
C8Z C -0.0658(3) 0.0989(3) 0.74514(18)
C9Z C -0.0888(4) 0.0490(4) 0.7586(2)
H5Z H -0.0848 0.0140 0.7442
C10Z C -0.1177(4) 0.0492(4) 0.7931(2)
H6Z H -0.1338 0.0134 0.8018
N2Z N -0.1254(2) 0.0965(2) 0.81602(15)
C11Z C -0.1036(3) 0.1451(3) 0.80152(19)
H7Z H -0.1087 0.1801 0.8159
C12Z C -0.0738(3) 0.1478(3) 0.7668(2)
H8Z H -0.0589 0.1840 0.7578
N1C N 0.3377(3) -0.0174(2) 0.61378(17)
N2B N 0.3465(2) 0.1246(2) 0.56602(15)
N2I N 0.3746(2) 0.0965(2) 0.68398(15)
Ag1Z Ag -0.33474(2) 0.08474(2) 0.6250
Ag1A Ag 0.16526(2) 0.08474(2) 0.8750
Ag1X Ag -0.16526(2) 0.08474(2) 0.8750
Sb1 Sb 0.2500 0.2500 0.7500
F1 F 0.2500 0.3309(2) 0.7500
F2 F 0.2155(4) 0.2500 0.79849(18)
F3 F 0.3216(3) 0.2500 0.7750(2)
F1CA F 0.2500 0.1691(2) 0.7500
F2T F 0.2845(4) 0.2500 0.70151(18)
F3T F 0.1784(3) 0.2500 0.7250(2)
loop_
_geom_bond_atom_site_label_1
_geom_bond_atom_site_label_2
_geom_bond_site_symmetry_1
_geom_bond_site_symmetry_2
Sb1 F1 1_555 1_555
F2 Sb1 1_555 1_555
F3 Sb1 1_555 1_555
Sb2 F4 1_555 1_555
F5 Sb2 1_555 1_555
Sb3 F6 1_555 1_555
F7 Sb3 1_555 1_555
F8 Sb3 1_555 1_555
Ag1 N1 1_555 1_555
N1 C1 1_555 1_555
C1 H1 1_555 1_555
C2 C1 1_555 1_555
H2 C2 1_555 1_555
C3 C2 1_555 1_555
C4 C3 1_555 1_555
H3 C4 1_555 1_555
C5 N1 1_555 1_555
H4 C5 1_555 1_555
C6 C3 1_555 1_555
S1 C6 1_555 1_555
C7 C6 1_555 1_555
C8 C7 1_555 1_555
C9 C8 1_555 1_555
H5 C9 1_555 1_555
C10 C9 1_555 1_555
H6 C10 1_555 1_555
N2 C10 1_555 1_555
C11 N2 1_555 1_555
H7 C11 1_555 1_555
C12 C8 1_555 1_555
H8 C12 1_555 1_555
F1CA Sb1 1_555 1_555
F2T Sb1 1_555 1_555
F3T Sb1 1_555 1_555
F4G Sb2 1_555 1_555
F4Z Sb2 1_555 1_555
F4Q Sb2 1_555 1_555
F5G Sb2 1_555 1_555
F6I Sb3 1_555 1_555
F7I Sb3 1_555 1_555
F8I Sb3 1_555 1_555
C6Z S1 1_555 1_555
C3Z C6Z 1_555 1_555
C2Z C3Z 1_555 1_555
C1Z C2Z 1_555 1_555
N1Z C1Z 1_555 1_555
C5Z N1Z 1_555 1_555
C4Z C3Z 1_555 1_555
H3Z C4Z 1_555 1_555
H4Z C5Z 1_555 1_555
H1Z C1Z 1_555 1_555
H2Z C2Z 1_555 1_555
C7Z C7 1_555 1_555
C8Z C7Z 1_555 1_555
C9Z C8Z 1_555 1_555
H5Z C9Z 1_555 1_555
C10Z C9Z 1_555 1_555
H6Z C10Z 1_555 1_555
N2Z C10Z 1_555 1_555
C11Z N2Z 1_555 1_555
H7Z C11Z 1_555 1_555
C12Z C8Z 1_555 1_555
H8Z C12Z 1_555 1_555
N1C Ag1 1_555 1_555
N2B Ag1 1_555 1_555
N2I Ag1 1_555 1_555
Ag1Z N1Z 1_555 1_555
Ag1A N2 1_555 1_555
Ag1X N2Z 1_555 1_555
C4 C5 1_555 1_555
C11 C12 1_555 1_555
C6Z C7Z 1_555 1_555
C5Z C4Z 1_555 1_555
C11Z C12Z 1_555 1_555

#END
