
#######################################################################
#
#                 Cambridge Crystallographic Data Centre
#                                CCDC 
#
#######################################################################
#
# If this CIF has been generated from an entry in the Cambridge 
# Structural Database, then it will include bibliographic, chemical, 
# crystal, experimental, refinement or atomic coordinate data resulting 
# from the CCDC's data processing and validation procedures.
#
#######################################################################

data_AVIVEG
_symmetry_cell_setting           tetragonal
_symmetry_space_group_name_H-M   'I 41/a m d'
_symmetry_Int_Tables_number      141
_space_group_name_Hall           '-I 4bd 2'
loop_
_symmetry_equiv_pos_site_id
_symmetry_equiv_pos_as_xyz
1 x,y,z
2 1/4+y,3/4+x,1/4-z
3 1/4+y,1/4-x,3/4+z
4 1/4-y,3/4+x,1/4+z
5 1/2+x,1/2+y,1/2+z
6 3/4+y,1/4+x,3/4-z
7 3/4+y,3/4-x,1/4+z
8 3/4-y,1/4+x,3/4+z
9 -x,1/2-y,z
10 x,-y,-z
11 -x,1/2+y,-z
12 1/4-y,1/4-x,3/4-z
13 1/2-x,-y,1/2+z
14 1/2+x,1/2-y,1/2-z
15 1/2-x,y,1/2-z
16 3/4-y,3/4-x,1/4-z
17 -x,-y,-z
18 3/4-y,1/4-x,3/4+z
19 3/4-y,3/4+x,1/4-z
20 3/4+y,1/4-x,3/4-z
21 1/2-x,1/2-y,1/2-z
22 1/4-y,3/4-x,1/4+z
23 1/4-y,1/4+x,3/4-z
24 1/4+y,3/4-x,1/4-z
25 x,1/2+y,-z
26 -x,y,z
27 x,1/2-y,z
28 3/4+y,3/4+x,1/4+z
29 1/2+x,y,1/2-z
30 1/2-x,1/2+y,1/2+z
31 1/2+x,-y,1/2+z
32 1/4+y,1/4+x,3/4+z
_cell_length_a                   22.636(5)
_cell_length_b                   22.636(5)
_cell_length_c                   35.393(5)
_cell_angle_alpha                90
_cell_angle_beta                 90
_cell_angle_gamma                90
_cell_volume                     18135
loop_
_atom_site_label
_atom_site_type_symbol
_atom_site_fract_x
_atom_site_fract_y
_atom_site_fract_z
Ag1 Ag 0.336713(10) 0.086713(10) 0.6250
N1 N 0.23512(12) 0.09194(13) 0.64049(8)
C1 C 0.21733(15) 0.12485(18) 0.66954(10)
H1 H 0.2455 0.1473 0.6822
C2 C 0.16035(15) 0.12773(19) 0.68193(10)
H2 H 0.1505 0.1517 0.7023
C3 C 0.11730(13) 0.09469(14) 0.66391(8)
C4 C 0.13478(14) 0.06016(16) 0.63380(9)
H3 H 0.1074 0.0374 0.6208
C5 C 0.19411(14) 0.05989(17) 0.62317(9)
H4 H 0.2055 0.0361 0.6030
C6 C 0.05478(13) 0.09583(13) 0.67599(8)
S1 S 0.0000 0.09223(5) 0.64206(3)
C7 C 0.03144(12) 0.10007(13) 0.71144(8)
C8 C 0.06519(13) 0.09951(13) 0.74734(8)
C9 C 0.08324(17) 0.04764(16) 0.76305(10)
H5 H 0.0766 0.0121 0.7506
C10 C 0.11162(17) 0.04834(16) 0.79782(10)
H6 H 0.1228 0.0123 0.8082
N2 N 0.12380(11) 0.09621(11) 0.81705(7)
C11 C 0.10759(18) 0.14606(15) 0.80130(10)
H7 H 0.1165 0.1812 0.8137
C12 C 0.07782(19) 0.14906(16) 0.76719(11)
H8 H 0.0663 0.1857 0.7578
C6Y C -0.05478(13) 0.09583(13) 0.67599(8)
C3Y C -0.11730(13) 0.09469(14) 0.66391(8)
C2Y C -0.16035(15) 0.12773(19) 0.68193(10)
C1Y C -0.21733(15) 0.12485(18) 0.66954(10)
N1Y N -0.23512(12) 0.09194(13) 0.64049(8)
C5Y C -0.19411(14) 0.05989(17) 0.62317(9)
C4Y C -0.13478(14) 0.06016(16) 0.63380(9)
H3Y H -0.1074 0.0374 0.6208
H4Y H -0.2055 0.0361 0.6030
H1Y H -0.2455 0.1473 0.6822
H2Y H -0.1505 0.1517 0.7023
C7Y C -0.03144(12) 0.10007(13) 0.71144(8)
C8Y C -0.06519(13) 0.09951(13) 0.74734(8)
C9Y C -0.08324(17) 0.04764(16) 0.76305(10)
H5Y H -0.0766 0.0121 0.7506
C10Y C -0.11162(17) 0.04834(16) 0.79782(10)
H6Y H -0.1228 0.0123 0.8082
N2Y N -0.12380(11) 0.09621(11) 0.81705(7)
C11Y C -0.10759(18) 0.14606(15) 0.80130(10)
H7Y H -0.1165 0.1812 0.8137
C12Y C -0.07782(19) 0.14906(16) 0.76719(11)
H8Y H -0.0663 0.1857 0.7578
N1A N 0.34194(13) -0.01488(12) 0.60951(8)
Ag1Y Ag -0.336713(10) 0.086713(10) 0.6250
N2B N 0.34621(11) 0.12620(11) 0.56705(7)
N2N N 0.37620(11) 0.09621(11) 0.68295(7)
Ag1C Ag 0.163287(10) 0.086713(10) 0.8750
Ag1AA Ag -0.163287(10) 0.086713(10) 0.8750
B1 B 0.2500 0.2500 0.7500
F1 F 0.2500 0.1920(3) 0.7500
F2 F 0.2203(5) 0.2500 0.7863(3)
F1Z F 0.2500 0.3080(3) 0.7500
F2T F 0.2797(5) 0.2500 0.7137(3)
F3? F 0.3069(5) 0.2500 0.7725(3)
loop_
_geom_bond_atom_site_label_1
_geom_bond_atom_site_label_2
_geom_bond_site_symmetry_1
_geom_bond_site_symmetry_2
B1 F1 1_555 1_555
F2 B1 1_555 1_555
Ag1 N1 1_555 1_555
N1 C1 1_555 1_555
C1 H1 1_555 1_555
C2 C1 1_555 1_555
H2 C2 1_555 1_555
C3 C2 1_555 1_555
C4 C3 1_555 1_555
H3 C4 1_555 1_555
C5 N1 1_555 1_555
H4 C5 1_555 1_555
C6 C3 1_555 1_555
S1 C6 1_555 1_555
C7 C6 1_555 1_555
C8 C7 1_555 1_555
C9 C8 1_555 1_555
H5 C9 1_555 1_555
C10 C9 1_555 1_555
H6 C10 1_555 1_555
N2 C10 1_555 1_555
C11 N2 1_555 1_555
H7 C11 1_555 1_555
C12 C8 1_555 1_555
H8 C12 1_555 1_555
F1Z B1 1_555 1_555
F2T B1 1_555 1_555
C6Y S1 1_555 1_555
C3Y C6Y 1_555 1_555
C2Y C3Y 1_555 1_555
C1Y C2Y 1_555 1_555
N1Y C1Y 1_555 1_555
C5Y N1Y 1_555 1_555
C4Y C3Y 1_555 1_555
H3Y C4Y 1_555 1_555
H4Y C5Y 1_555 1_555
H1Y C1Y 1_555 1_555
H2Y C2Y 1_555 1_555
C7Y C7 1_555 1_555
C8Y C7Y 1_555 1_555
C9Y C8Y 1_555 1_555
H5Y C9Y 1_555 1_555
C10Y C9Y 1_555 1_555
H6Y C10Y 1_555 1_555
N2Y C10Y 1_555 1_555
C11Y N2Y 1_555 1_555
H7Y C11Y 1_555 1_555
C12Y C8Y 1_555 1_555
H8Y C12Y 1_555 1_555
N1A Ag1 1_555 1_555
Ag1Y N1Y 1_555 1_555
N2B Ag1 1_555 1_555
N2N Ag1 1_555 1_555
Ag1C N2 1_555 1_555
Ag1AA N2Y 1_555 1_555
C4 C5 1_555 1_555
C11 C12 1_555 1_555
C6Y C7Y 1_555 1_555
C5Y C4Y 1_555 1_555
C11Y C12Y 1_555 1_555

#END
