
#######################################################################
#
#                 Cambridge Crystallographic Data Centre
#                                CCDC 
#
#######################################################################
#
# If this CIF has been generated from an entry in the Cambridge 
# Structural Database, then it will include bibliographic, chemical, 
# crystal, experimental, refinement or atomic coordinate data resulting 
# from the CCDC's data processing and validation procedures.
#
#######################################################################

data_AVODIY
_symmetry_cell_setting           monoclinic
_symmetry_space_group_name_H-M   'P 21/c'
_symmetry_Int_Tables_number      14
_space_group_name_Hall           '-P 2ybc'
loop_
_symmetry_equiv_pos_site_id
_symmetry_equiv_pos_as_xyz
1 x,y,z
2 x,1/2-y,1/2+z
3 -x,-y,-z
4 -x,1/2+y,1/2-z
_cell_length_a                   15.998(3)
_cell_length_b                   14.139(3)
_cell_length_c                   9.0949(12)
_cell_angle_alpha                90
_cell_angle_beta                 92.323(12)
_cell_angle_gamma                90
_cell_volume                     2055.54
loop_
_atom_site_label
_atom_site_type_symbol
_atom_site_fract_x
_atom_site_fract_y
_atom_site_fract_z
N4 N 1.0002(12) 0.5128(11) 0.485(4)
O8 O 1.0741(8) 0.5046(10) 0.4542(14)
O9 O 0.9562(12) 0.4414(12) 0.4927(16)
O10 O 0.9721(8) 0.5916(8) 0.5116(11)
N4B N 0.9998(12) 0.4872(11) 0.515(4)
O8B O 0.9259(8) 0.4954(10) 0.5458(14)
O9B O 1.0438(12) 0.5586(12) 0.5073(16)
O10B O 1.0279(8) 0.4084(8) 0.4884(11)
N5 N 0.5056(11) 0.006(4) 0.503(17)
O11 O 0.5799(9) -0.0116(10) 0.4861(17)
O12 O 0.4514(13) -0.0494(19) 0.4576(18)
O13 O 0.4862(12) 0.0875(13) 0.5369(14)
N5B N 0.4944(11) -0.006(4) 0.497(17)
O11B O 0.4201(9) 0.0116(10) 0.5139(17)
O12B O 0.5486(13) 0.0494(19) 0.5424(18)
O13B O 0.5138(12) -0.0875(13) 0.4631(14)
Mn1 Mn 0.26046(5) 0.22954(6) 0.02952(9)
O1 O 0.3704(2) 0.1667(3) -0.0616(4)
O2 O 1.14854(19) 0.2008(2) 0.6004(4)
O3 O 0.1871(2) 0.1335(3) -0.1192(4)
H1 H 0.178(5) 0.165(5) -0.205(4)
H2 H 0.143(3) 0.100(4) -0.087(7)
O4 O 0.3362(2) 0.3386(3) 0.1360(4)
H3 H 0.356(4) 0.339(5) 0.230(2)
H4 H 0.356(5) 0.388(4) 0.085(9)
O5 O 0.2664(2) 0.3065(3) -0.1899(4)
O6 O 0.2480(3) 0.4180(3) -0.3457(5)
O7 O 0.2338(3) 0.4453(3) -0.1126(5)
N1 N 0.2495(3) 0.3916(4) -0.2149(6)
C1 C 0.4428(3) 0.1444(4) -0.0051(6)
C2 C 0.4615(3) 0.1462(4) 0.1483(6)
H5 H 0.4203 0.1640 0.2123
C3 C 0.5387(3) 0.1223(4) 0.2031(6)
H6 H 0.5502 0.1257 0.3040
N2 N 0.5993(2) 0.0935(3) 0.1136(5)
C4 C 0.5842(3) 0.0896(4) -0.0329(6)
H7 H 0.6261 0.0693 -0.0934
C5 C 0.5086(3) 0.1148(4) -0.0937(6)
H8 H 0.4999 0.1126 -0.1954
C6 C 0.6860(3) 0.0799(4) 0.1751(7)
H9 H 0.7195 0.0486 0.1030
H10 H 0.6852 0.0401 0.2619
C7 C 0.7249(3) 0.1754(4) 0.2157(6)
C8 C 0.6890(3) 0.2585(4) 0.1662(6)
H11 H 0.6419 0.2561 0.1031
C9 C 0.7211(3) 0.3447(4) 0.2075(7)
H12 H 0.6970 0.4001 0.1703
C10 C 0.7897(4) 0.3487(4) 0.3052(7)
H13 H 0.8099 0.4067 0.3396
C11 C 0.8278(3) 0.2654(4) 0.3507(6)
H14 H 0.8749 0.2683 0.4142
C12 C 0.7984(3) 0.1790(4) 0.3053(6)
C13 C 0.8426(3) 0.0878(4) 0.3475(6)
H15 H 0.8097 0.0534 0.4171
H16 H 0.8475 0.0487 0.2607
N3 N 0.9271(2) 0.1069(3) 0.4141(5)
C14 C 0.9421(3) 0.1017(4) 0.5594(6)
H17 H 0.9011 0.0770 0.6180
C15 C 1.0157(3) 0.1314(3) 0.6241(6)
H18 H 1.0243 0.1262 0.7255
C16 C 1.0789(3) 0.1699(3) 0.5392(5)
C17 C 1.0616(3) 0.1711(3) 0.3848(5)
H19 H 1.1019 0.1930 0.3223
C18 C 0.9874(3) 0.1409(4) 0.3282(6)
H20 H 0.9772 0.1435 0.2269
O1A O -0.6296(2) 0.3333(3) -0.5616(4)
O2A O 0.14854(19) 0.2992(2) 0.1004(4)
C1A C -0.5572(3) 0.3556(4) -0.5051(6)
C2A C -0.5385(3) 0.3538(4) -0.3517(6)
H5A H -0.5797 0.3360 -0.2877
C3A C -0.4613(3) 0.3777(4) -0.2969(6)
H6A H -0.4498 0.3743 -0.1960
N2A N -0.4007(2) 0.4065(3) -0.3864(5)
C4A C -0.4158(3) 0.4104(4) -0.5329(6)
H7A H -0.3739 0.4307 -0.5934
C5A C -0.4914(3) 0.3852(4) -0.5937(6)
H8A H -0.5001 0.3874 -0.6954
C6A C -0.3140(3) 0.4201(4) -0.3249(7)
H9A H -0.2805 0.4514 -0.3970
H10A H -0.3148 0.4599 -0.2381
C7A C -0.2751(3) 0.3246(4) -0.2843(6)
C8A C -0.3110(3) 0.2415(4) -0.3338(6)
H11A H -0.3581 0.2439 -0.3969
C9A C -0.2789(3) 0.1553(4) -0.2925(7)
H12A H -0.3030 0.0999 -0.3297
C10A C -0.2103(4) 0.1513(4) -0.1948(7)
H13A H -0.1901 0.0933 -0.1604
C11A C -0.1722(3) 0.2346(4) -0.1493(6)
H14A H -0.1251 0.2317 -0.0858
C12A C -0.2016(3) 0.3210(4) -0.1947(6)
C13A C -0.1574(3) 0.4122(4) -0.1525(6)
H15A H -0.1903 0.4466 -0.0829
H16A H -0.1525 0.4513 -0.2393
N3A N -0.0729(2) 0.3931(3) -0.0859(5)
C14A C -0.0579(3) 0.3983(4) 0.0594(6)
H17A H -0.0989 0.4230 0.1180
C15A C 0.0157(3) 0.3686(3) 0.1241(6)
H18A H 0.0243 0.3738 0.2255
C16A C 0.0789(3) 0.3301(3) 0.0392(5)
C17A C 0.0616(3) 0.3289(3) -0.1152(5)
H19A H 0.1019 0.3070 -0.1777
C18A C -0.0126(3) 0.3591(4) -0.1718(6)
H20A H -0.0228 0.3565 -0.2731
O5A O 0.2664(2) 0.1935(3) 0.3101(4)
O6A O 0.2480(3) 0.0820(3) 0.1543(5)
O7A O 0.2338(3) 0.0547(3) 0.3874(5)
N1A N 0.2495(3) 0.1084(4) 0.2851(6)
Mn1A Mn -0.73954(5) 0.27046(6) -0.47048(9)
O3A O -0.8129(2) 0.3665(3) -0.6192(4)
H1A H -0.822(5) 0.335(5) -0.705(4)
H2A H -0.857(3) 0.400(4) -0.587(7)
O4A O -0.6638(2) 0.1614(3) -0.3640(4)
H3A H -0.644(4) 0.161(5) -0.270(2)
H4A H -0.644(5) 0.112(4) -0.415(9)
Mn1A_2 Mn 1.26046(5) 0.27046(6) 0.52952(9)
Mn1A_3 Mn 0.26046(5) 0.27046(6) -0.47048(9)
Mn1A_4 Mn 0.26046(5) 0.27046(6) 0.52952(9)
O2_2 O -0.85146(19) 0.2008(2) -0.3996(4)
O5A_2 O -0.7336(2) 0.1935(3) -0.6899(4)
O6_2 O -0.7520(3) 0.4180(3) -0.3457(5)
loop_
_geom_bond_atom_site_label_1
_geom_bond_atom_site_label_2
_geom_bond_site_symmetry_1
_geom_bond_site_symmetry_2
Mn1 O1 1_555 1_555
O1 C1 1_555 1_555
O2 C16 1_555 1_555
O3 Mn1 1_555 1_555
H1 O3 1_555 1_555
H2 O3 1_555 1_555
O4 Mn1 1_555 1_555
H3 O4 1_555 1_555
H4 O4 1_555 1_555
O5 Mn1 1_555 1_555
O6 N1 1_555 1_555
O7 N1 1_555 1_555
N1 O5 1_555 1_555
C1 C2 1_555 1_555
C2 H5 1_555 1_555
C3 C2 1_555 1_555
H6 C3 1_555 1_555
N2 C3 1_555 1_555
C4 N2 1_555 1_555
H7 C4 1_555 1_555
C5 C1 1_555 1_555
H8 C5 1_555 1_555
C6 N2 1_555 1_555
H9 C6 1_555 1_555
H10 C6 1_555 1_555
C7 C6 1_555 1_555
C8 C7 1_555 1_555
H11 C8 1_555 1_555
C9 C8 1_555 1_555
H12 C9 1_555 1_555
C10 C9 1_555 1_555
H13 C10 1_555 1_555
C11 C10 1_555 1_555
H14 C11 1_555 1_555
C12 C7 1_555 1_555
C13 C12 1_555 1_555
H15 C13 1_555 1_555
H16 C13 1_555 1_555
N3 C13 1_555 1_555
C14 N3 1_555 1_555
H17 C14 1_555 1_555
C15 C14 1_555 1_555
H18 C15 1_555 1_555
C16 C15 1_555 1_555
C17 C16 1_555 1_555
H19 C17 1_555 1_555
C18 N3 1_555 1_555
H20 C18 1_555 1_555
N4 O8 1_555 1_555
O8 N4B 1_555 1_555
O9 N4 1_555 1_555
O10 N4 1_555 1_555
N5 O11 1_555 1_555
O11 N5B 1_555 1_555
O12 N5 1_555 1_555
O13 N5 1_555 1_555
N4B N4 1_555 1_555
O8B N4 1_555 1_555
O9B N4 1_555 1_555
O10B N4 1_555 1_555
N5B N5 1_555 1_555
O11B N5 1_555 1_555
O12B N5 1_555 1_555
O13B N5 1_555 1_555
O1A C1A 1_555 1_555
O2A Mn1 1_555 1_555
C1A C2A 1_555 1_555
C2A H5A 1_555 1_555
C3A C2A 1_555 1_555
H6A C3A 1_555 1_555
N2A C3A 1_555 1_555
C4A N2A 1_555 1_555
H7A C4A 1_555 1_555
C5A C1A 1_555 1_555
H8A C5A 1_555 1_555
C6A N2A 1_555 1_555
H9A C6A 1_555 1_555
H10A C6A 1_555 1_555
C7A C6A 1_555 1_555
C8A C7A 1_555 1_555
H11A C8A 1_555 1_555
C9A C8A 1_555 1_555
H12A C9A 1_555 1_555
C10A C9A 1_555 1_555
H13A C10A 1_555 1_555
C11A C10A 1_555 1_555
H14A C11A 1_555 1_555
C12A C7A 1_555 1_555
C13A C12A 1_555 1_555
H15A C13A 1_555 1_555
H16A C13A 1_555 1_555
N3A C13A 1_555 1_555
C14A N3A 1_555 1_555
H17A C14A 1_555 1_555
C15A C14A 1_555 1_555
H18A C15A 1_555 1_555
C16A O2A 1_555 1_555
C17A C16A 1_555 1_555
H19A C17A 1_555 1_555
C18A N3A 1_555 1_555
H20A C18A 1_555 1_555
O5A N1A 1_555 1_555
O6A Mn1 1_555 1_555
O7A N1A 1_555 1_555
N1A O6A 1_555 1_555
Mn1A O1A 1_555 1_555
O3A Mn1A 1_555 1_555
H1A O3A 1_555 1_555
H2A O3A 1_555 1_555
O4A Mn1A 1_555 1_555
H3A O4A 1_555 1_555
H4A O4A 1_555 1_555
Mn1A_2 O2 1_555 1_555
Mn1A_3 O6 1_555 1_555
Mn1A_4 O5A 1_555 1_555
O2_2 Mn1A 1_555 1_555
O5A_2 Mn1A 1_555 1_555
O6_2 Mn1A 1_555 1_555
C4 C5 1_555 1_555
C11 C12 1_555 1_555
C17 C18 1_555 1_555
O8 O10B 1_555 1_555
O8 O9B 1_555 1_555
O9 N4B 1_555 1_555
O9 O8B 1_555 1_555
O9 O10B 1_555 1_555
O10 N4B 1_555 1_555
O10 O8B 1_555 1_555
O10 O9B 1_555 1_555
O11 O13B 1_555 1_555
O11 O12B 1_555 1_555
O12 N5B 1_555 1_555
O12 O11B 1_555 1_555
O12 O13B 1_555 1_555
O13 N5B 1_555 1_555
O13 O11B 1_555 1_555
O13 O12B 1_555 1_555
N4B O8B 1_555 1_555
N4B O9B 1_555 1_555
N4B O10B 1_555 1_555
N5B O11B 1_555 1_555
N5B O12B 1_555 1_555
N5B O13B 1_555 1_555
C4A C5A 1_555 1_555
C11A C12A 1_555 1_555
C15A C16A 1_555 1_555
C17A C18A 1_555 1_555

#END
