
#######################################################################
#
#                 Cambridge Crystallographic Data Centre
#                                CCDC 
#
#######################################################################
#
# If this CIF has been generated from an entry in the Cambridge 
# Structural Database, then it will include bibliographic, chemical, 
# crystal, experimental, refinement or atomic coordinate data resulting 
# from the CCDC's data processing and validation procedures.
#
#######################################################################

data_AVOGEX
_symmetry_cell_setting           triclinic
_symmetry_space_group_name_H-M   'P -1'
_symmetry_Int_Tables_number      2
_space_group_name_Hall           '-P 1'
loop_
_symmetry_equiv_pos_site_id
_symmetry_equiv_pos_as_xyz
1 x,y,z
2 -x,-y,-z
_cell_length_a                   7.5090(6)
_cell_length_b                   9.3510(8)
_cell_length_c                   10.3076(9)
_cell_angle_alpha                69.514(2)
_cell_angle_beta                 84.521(2)
_cell_angle_gamma                83.638(2)
_cell_volume                     672.567
loop_
_atom_site_label
_atom_site_type_symbol
_atom_site_fract_x
_atom_site_fract_y
_atom_site_fract_z
Ag1 Ag 0.14656(14) 0.12210(12) 0.88996(11)
Ag2 Ag 0.51853(14) -0.00105(11) 0.20325(9)
Ag3 Ag 0.78421(14) 0.02115(11) 0.41987(12)
Ag4 Ag 0.07320(16) 0.20815(12) 0.23737(13)
O1 O 0.6254(12) 0.2452(10) 0.3318(12)
O2 O 0.3616(13) 0.1513(10) 0.3465(10)
O3 O 0.4014(12) 0.1926(10) 0.6088(9)
O4 O 0.2023(13) 0.3293(10) 0.7011(9)
O5 O 0.0304(13) 0.8590(10) 0.4307(9)
O6 O 0.1696(13) 0.9724(10) 0.2232(10)
O7 O 0.1500(12) 0.8561(10) 0.0030(8)
O8 O 0.4454(12) 0.8352(11) 0.0127(9)
O9 O -0.1212(14) 0.4237(10) 0.2068(10)
O10 O 0.2376(16) 0.3237(15) 0.0159(12)
C1 C 0.3685(15) 0.4079(13) 0.3411(12)
C2 C 0.2911(16) 0.4337(13) 0.4634(12)
C3 C 0.2117(16) 0.5798(13) 0.4480(12)
H1 H 0.1551 0.5972 0.5260
C4 C 0.2121(17) 0.6980(13) 0.3263(12)
C5 C 0.2850(16) 0.6727(13) 0.2044(12)
C6 C 0.3626(17) 0.5293(15) 0.2153(13)
H2 H 0.4133 0.5125 0.1354
C7 C 0.4572(17) 0.2518(14) 0.3443(11)
C8 C 0.2993(17) 0.3088(13) 0.6013(12)
C9 C 0.1275(16) 0.8560(13) 0.3276(12)
C10 C 0.2904(16) 0.7990(14) 0.0630(13)
Ag2A Ag 0.48147(14) 0.00105(11) 0.79675(9)
O7_2 O 0.1500(12) -0.1439(10) 1.0030(8)
O7A O -0.1500(12) 0.1439(10) 0.9970(8)
Ag1A Ag 0.85344(14) -0.12210(12) 0.11004(11)
O3A O 0.5986(12) -0.1926(10) 0.3912(9)
O8A O 0.5546(12) 0.1648(11) -0.0127(9)
Ag4_2 Ag 1.07320(16) 0.20815(12) 0.23737(13)
O5_2 O 1.0304(13) -0.1410(10) 0.4307(9)
Ag3_2 Ag -0.21579(14) 0.02115(11) 0.41987(12)
O6_2 O 0.1696(13) -0.0276(10) 0.2232(10)
Ag3_3 Ag -0.21579(14) 1.02115(11) 0.41987(12)
Ag4_3 Ag 0.07320(16) 1.20815(12) 0.23737(13)
Ag1_2 Ag 0.14656(14) 1.12210(12) -0.11004(11)
Ag1A_2 Ag -0.14656(14) 0.87790(12) 0.11004(11)
Ag2A_2 Ag 0.48147(14) 1.00105(11) -0.20325(9)
loop_
_geom_bond_atom_site_label_1
_geom_bond_atom_site_label_2
_geom_bond_site_symmetry_1
_geom_bond_site_symmetry_2
Ag1 O4 1_555 1_555
Ag2 Ag3 1_555 1_555
Ag3 O1 1_555 1_555
Ag4 O2 1_555 1_555
O1 C7 1_555 1_555
O2 Ag2 1_555 1_555
O3 C8 1_555 1_555
O4 C8 1_555 1_555
O5 C9 1_555 1_555
O6 C9 1_555 1_555
O7 C10 1_555 1_555
O8 C10 1_555 1_555
O9 Ag4 1_555 1_555
O10 Ag4 1_555 1_555
C1 C2 1_555 1_555
C2 C3 1_555 1_555
C3 H1 1_555 1_555
C4 C3 1_555 1_555
C5 C4 1_555 1_555
C6 C1 1_555 1_555
H2 C6 1_555 1_555
C7 O2 1_555 1_555
C8 C2 1_555 1_555
C9 C4 1_555 1_555
C10 C5 1_555 1_555
Ag2A Ag1 1_555 1_555
O7_2 Ag1 1_555 1_555
O7A Ag1 1_555 1_555
Ag1A Ag2 1_555 1_555
O3A Ag2 1_555 1_555
O8A Ag2 1_555 1_555
Ag4_2 Ag3 1_555 1_555
O5_2 Ag3 1_555 1_555
Ag3_2 Ag4 1_555 1_555
O6_2 Ag4 1_555 1_555
Ag3_3 O5 1_555 1_555
Ag4_3 O6 1_555 1_555
Ag1_2 O7 1_555 1_555
Ag1A_2 O7 1_555 1_555
Ag2A_2 O8 1_555 1_555
O3 Ag2A 1_555 1_555
C1 C7 1_555 1_555
C5 C6 1_555 1_555
Ag3_3 Ag4_3 1_555 1_555
Ag1_2 Ag2A_2 1_555 1_555

#END
