
#######################################################################
#
#                 Cambridge Crystallographic Data Centre
#                                CCDC 
#
#######################################################################
#
# If this CIF has been generated from an entry in the Cambridge 
# Structural Database, then it will include bibliographic, chemical, 
# crystal, experimental, refinement or atomic coordinate data resulting 
# from the CCDC's data processing and validation procedures.
#
#######################################################################

data_AVOJAW
_symmetry_cell_setting           orthorhombic
_symmetry_space_group_name_H-M   'C c c 2'
_symmetry_Int_Tables_number      37
_space_group_name_Hall           'C 2 -2c'
loop_
_symmetry_equiv_pos_site_id
_symmetry_equiv_pos_as_xyz
1 x,y,z
2 -x,-y,z
3 -x,y,1/2+z
4 x,-y,1/2+z
5 1/2+x,1/2+y,z
6 1/2-x,1/2-y,z
7 1/2-x,1/2+y,1/2+z
8 1/2+x,1/2-y,1/2+z
_cell_length_a                   14.201(4)
_cell_length_b                   24.198(5)
_cell_length_c                   16.872(4)
_cell_angle_alpha                90
_cell_angle_beta                 90
_cell_angle_gamma                90
_cell_volume                     5797.82
loop_
_atom_site_label
_atom_site_type_symbol
_atom_site_fract_x
_atom_site_fract_y
_atom_site_fract_z
Cu1 Cu 0.55343(3) 0.092603(16) 0.50299(3)
Cu2 Cu 0.19972(2) 0.156631(16) 0.55532(3)
N1 N 0.6275(2) 0.05470(11) 0.59178(19)
H1 H 0.6233 0.0179 0.5812
N2 N 0.6771(2) 0.12207(12) 0.46546(18)
H2 H 0.6881 0.1536 0.4934
N3 N 0.0770(2) 0.12545(12) 0.5926(2)
H3 H 0.0661 0.0945 0.5633
N4 N 0.1241(2) 0.19605(12) 0.4702(2)
H4 H 0.1277 0.2326 0.4824
N5 N 0.5339(3) 0.04400(16) 0.3990(3)
N6 N 0.5000 0.0000 0.4010(3)
N7 N 0.2132(3) 0.20665(16) 0.6599(2)
N8 N 0.2500 0.2500 0.6587(3)
O1 O 0.47020(17) 0.16362(9) 0.49248(19)
O2 O 0.43346(17) 0.06250(10) 0.5477(2)
O3 O 0.28281(16) 0.08565(9) 0.5657(2)
O4 O 0.32020(17) 0.18740(10) 0.5129(2)
C1 C 0.7282(3) 0.06881(17) 0.5797(3)
H5 H 0.7443 0.1011 0.6109
H6 H 0.7675 0.0383 0.5970
C2 C 0.7454(3) 0.08007(17) 0.4948(3)
H7 H 0.7386 0.0462 0.4646
H8 H 0.8091 0.0936 0.4877
C3 C 0.0071(3) 0.16786(17) 0.5657(3)
H9 H -0.0564 0.1538 0.5726
H10 H 0.0136 0.2011 0.5973
C4 C 0.0240(3) 0.1809(2) 0.4807(3)
H11 H 0.0090 0.1490 0.4482
H12 H -0.0160 0.2113 0.4643
C5 C 0.5922(3) 0.06093(19) 0.6740(3)
H13 H 0.5282 0.0458 0.6751
C6 C 0.6917(3) 0.13578(18) 0.3805(3)
H14 H 0.6874 0.1016 0.3496
C7 C 0.0638(3) 0.10949(19) 0.6774(3)
H15 H 0.0680 0.1430 0.7099
C8 C 0.1592(3) 0.19150(18) 0.3870(3)
H16 H 0.2214 0.2090 0.3861
C9 C 0.5853(4) 0.1208(2) 0.6982(4)
H17 H 0.6469 0.1345 0.7110
H18 H 0.5450 0.1240 0.7437
H19 H 0.5595 0.1420 0.6552
C10 C 0.6511(4) 0.0270(2) 0.7333(3)
H20 H 0.6546 -0.0107 0.7158
H21 H 0.6221 0.0284 0.7847
H22 H 0.7135 0.0422 0.7365
C11 C 0.6157(3) 0.1752(2) 0.3519(3)
H23 H 0.5553 0.1577 0.3562
H24 H 0.6274 0.1848 0.2976
H25 H 0.6165 0.2081 0.3838
C12 C 0.7896(3) 0.1613(2) 0.3670(3)
H26 H 0.7977 0.1925 0.4015
H27 H 0.7950 0.1732 0.3129
H28 H 0.8372 0.1342 0.3780
C13 C -0.0333(3) 0.0834(2) 0.6906(4)
H29 H -0.0813 0.1108 0.6830
H30 H -0.0371 0.0692 0.7437
H31 H -0.0424 0.0538 0.6535
C14 C 0.1416(3) 0.07023(19) 0.7027(3)
H32 H 0.1464 0.0406 0.6651
H33 H 0.1273 0.0554 0.7541
H34 H 0.2003 0.0899 0.7049
C15 C 0.1741(4) 0.1317(2) 0.3642(4)
H35 H 0.2190 0.1152 0.3996
H36 H 0.1973 0.1298 0.3109
H37 H 0.1154 0.1122 0.3678
C16 C 0.0977(5) 0.2239(3) 0.3290(3)
H38 H 0.0398 0.2043 0.3204
H39 H 0.1304 0.2279 0.2795
H40 H 0.0842 0.2597 0.3506
C17 C 0.3654(2) 0.09582(13) 0.5450(3)
C18 C 0.3879(2) 0.15396(13) 0.5142(3)
N5A N 0.4661(3) -0.04400(16) 0.3990(3)
N7E N 0.2868(3) 0.29335(16) 0.6599(2)
Cu1A Cu 0.44657(3) -0.092603(16) 0.50299(3)
N1A N 0.3725(2) -0.05470(11) 0.59178(19)
H1A H 0.3767 -0.0179 0.5812
N2A N 0.3229(2) -0.12207(12) 0.46546(18)
H2A H 0.3119 -0.1536 0.4934
C1A C 0.2718(3) -0.06881(17) 0.5797(3)
H5A H 0.2557 -0.1011 0.6109
H6A H 0.2325 -0.0383 0.5970
C2A C 0.2546(3) -0.08007(17) 0.4948(3)
H7A H 0.2614 -0.0462 0.4646
H8A H 0.1909 -0.0936 0.4877
C5A C 0.4078(3) -0.06093(19) 0.6740(3)
H13A H 0.4718 -0.0458 0.6751
C6A C 0.3083(3) -0.13578(18) 0.3805(3)
H14A H 0.3126 -0.1016 0.3496
C9A C 0.4147(4) -0.1208(2) 0.6982(4)
H17A H 0.3531 -0.1345 0.7110
H18A H 0.4550 -0.1240 0.7437
H19A H 0.4405 -0.1420 0.6552
C10A C 0.3489(4) -0.0270(2) 0.7333(3)
H20A H 0.3454 0.0107 0.7158
H21A H 0.3779 -0.0284 0.7847
H22A H 0.2865 -0.0422 0.7365
C11A C 0.3843(3) -0.1752(2) 0.3519(3)
H23A H 0.4447 -0.1577 0.3562
H24A H 0.3726 -0.1848 0.2976
H25A H 0.3835 -0.2081 0.3838
C12A C 0.2104(3) -0.1613(2) 0.3670(3)
H26A H 0.2023 -0.1925 0.4015
H27A H 0.2050 -0.1732 0.3129
H28A H 0.1628 -0.1342 0.3780
O1A O 0.52980(17) -0.16362(9) 0.49248(19)
O2A O 0.56654(17) -0.06250(10) 0.5477(2)
O3A O 0.71719(16) -0.08565(9) 0.5657(2)
O4A O 0.67980(17) -0.18740(10) 0.5129(2)
C17A C 0.6346(2) -0.09582(13) 0.5450(3)
C18A C 0.6121(2) -0.15396(13) 0.5142(3)
Cu2E Cu 0.30028(2) 0.343369(16) 0.55532(3)
N3E N 0.4230(2) 0.37455(12) 0.5926(2)
H3E H 0.4339 0.4055 0.5633
N4E N 0.3759(2) 0.30395(12) 0.4702(2)
H4E H 0.3723 0.2674 0.4824
C3E C 0.4929(3) 0.33214(17) 0.5657(3)
H9E H 0.5564 0.3462 0.5726
H10E H 0.4864 0.2989 0.5973
C4E C 0.4760(3) 0.3191(2) 0.4807(3)
H11E H 0.4910 0.3510 0.4482
H12E H 0.5160 0.2887 0.4643
C7E C 0.4362(3) 0.39051(19) 0.6774(3)
H15E H 0.4320 0.3570 0.7099
C8E C 0.3408(3) 0.30850(18) 0.3870(3)
H16E H 0.2786 0.2910 0.3861
C13E C 0.5333(3) 0.4166(2) 0.6906(4)
H29E H 0.5813 0.3892 0.6830
H30E H 0.5371 0.4308 0.7437
H31E H 0.5424 0.4462 0.6535
C14E C 0.3584(3) 0.42977(19) 0.7027(3)
H32E H 0.3536 0.4594 0.6651
H33E H 0.3727 0.4446 0.7541
H34E H 0.2997 0.4101 0.7049
C15E C 0.3259(4) 0.3683(2) 0.3642(4)
H35E H 0.2810 0.3848 0.3996
H36E H 0.3027 0.3702 0.3109
H37E H 0.3846 0.3878 0.3678
C16E C 0.4023(5) 0.2761(3) 0.3290(3)
H38E H 0.4602 0.2957 0.3204
H39E H 0.3696 0.2721 0.2795
H40E H 0.4158 0.2403 0.3506
Cu2A Cu 0.80028(2) -0.156631(16) 0.55532(3)
O3E O 0.21719(16) 0.41435(9) 0.5657(2)
O4E O 0.17980(17) 0.31260(10) 0.5129(2)
Cl1 Cl 0.7500 0.2500 0.59509(9)
O5 O 0.6717(4) 0.2339(2) 0.5495(5)
O6 O 0.7785(4) 0.2049(2) 0.6395(5)
O5E O 0.8283(4) 0.2661(2) 0.5495(5)
O6E O 0.7215(4) 0.2951(2) 0.6395(5)
Cl2 Cl 0.0000 0.0000 0.45220(9)
O7 O -0.0308(4) 0.0439(2) 0.4090(5)
O8 O 0.0780(4) 0.0172(2) 0.4987(5)
O7A O 0.0308(4) -0.0439(2) 0.4090(5)
O8A O -0.0780(4) -0.0172(2) 0.4987(5)
loop_
_geom_bond_atom_site_label_1
_geom_bond_atom_site_label_2
_geom_bond_site_symmetry_1
_geom_bond_site_symmetry_2
Cu1 N1 1_555 1_555
Cu2 N3 1_555 1_555
N1 H1 1_555 1_555
N2 Cu1 1_555 1_555
H2 N2 1_555 1_555
N3 H3 1_555 1_555
N4 Cu2 1_555 1_555
H4 N4 1_555 1_555
N5 Cu1 1_555 1_555
N6 N5 1_555 1_555
N7 Cu2 1_555 1_555
N8 N7 1_555 1_555
O1 Cu1 1_555 1_555
O2 Cu1 1_555 1_555
O3 Cu2 1_555 1_555
O4 Cu2 1_555 1_555
C1 N1 1_555 1_555
H5 C1 1_555 1_555
H6 C1 1_555 1_555
C2 N2 1_555 1_555
H7 C2 1_555 1_555
H8 C2 1_555 1_555
C3 N3 1_555 1_555
H9 C3 1_555 1_555
H10 C3 1_555 1_555
C4 N4 1_555 1_555
H11 C4 1_555 1_555
H12 C4 1_555 1_555
C5 N1 1_555 1_555
H13 C5 1_555 1_555
C6 N2 1_555 1_555
H14 C6 1_555 1_555
C7 N3 1_555 1_555
H15 C7 1_555 1_555
C8 N4 1_555 1_555
H16 C8 1_555 1_555
C9 C5 1_555 1_555
H17 C9 1_555 1_555
H18 C9 1_555 1_555
H19 C9 1_555 1_555
C10 C5 1_555 1_555
H20 C10 1_555 1_555
H21 C10 1_555 1_555
H22 C10 1_555 1_555
C11 C6 1_555 1_555
H23 C11 1_555 1_555
H24 C11 1_555 1_555
H25 C11 1_555 1_555
C12 C6 1_555 1_555
H26 C12 1_555 1_555
H27 C12 1_555 1_555
H28 C12 1_555 1_555
C13 C7 1_555 1_555
H29 C13 1_555 1_555
H30 C13 1_555 1_555
H31 C13 1_555 1_555
C14 C7 1_555 1_555
H32 C14 1_555 1_555
H33 C14 1_555 1_555
H34 C14 1_555 1_555
C15 C8 1_555 1_555
H35 C15 1_555 1_555
H36 C15 1_555 1_555
H37 C15 1_555 1_555
C16 C8 1_555 1_555
H38 C16 1_555 1_555
H39 C16 1_555 1_555
H40 C16 1_555 1_555
C17 O2 1_555 1_555
C18 O1 1_555 1_555
Cl1 O5 1_555 1_555
O6 Cl1 1_555 1_555
Cl2 O7 1_555 1_555
O8 Cl2 1_555 1_555
N5A N6 1_555 1_555
N7E N8 1_555 1_555
Cu1A N5A 1_555 1_555
N1A Cu1A 1_555 1_555
H1A N1A 1_555 1_555
N2A Cu1A 1_555 1_555
H2A N2A 1_555 1_555
C1A N1A 1_555 1_555
H5A C1A 1_555 1_555
H6A C1A 1_555 1_555
C2A N2A 1_555 1_555
H7A C2A 1_555 1_555
H8A C2A 1_555 1_555
C5A N1A 1_555 1_555
H13A C5A 1_555 1_555
C6A N2A 1_555 1_555
H14A C6A 1_555 1_555
C9A C5A 1_555 1_555
H17A C9A 1_555 1_555
H18A C9A 1_555 1_555
H19A C9A 1_555 1_555
C10A C5A 1_555 1_555
H20A C10A 1_555 1_555
H21A C10A 1_555 1_555
H22A C10A 1_555 1_555
C11A C6A 1_555 1_555
H23A C11A 1_555 1_555
H24A C11A 1_555 1_555
H25A C11A 1_555 1_555
C12A C6A 1_555 1_555
H26A C12A 1_555 1_555
H27A C12A 1_555 1_555
H28A C12A 1_555 1_555
O1A Cu1A 1_555 1_555
O2A Cu1A 1_555 1_555
O3A C17A 1_555 1_555
O4A C18A 1_555 1_555
C17A O2A 1_555 1_555
C18A O1A 1_555 1_555
Cu2E N7E 1_555 1_555
N3E Cu2E 1_555 1_555
H3E N3E 1_555 1_555
N4E Cu2E 1_555 1_555
H4E N4E 1_555 1_555
C3E N3E 1_555 1_555
H9E C3E 1_555 1_555
H10E C3E 1_555 1_555
C4E N4E 1_555 1_555
H11E C4E 1_555 1_555
H12E C4E 1_555 1_555
C7E N3E 1_555 1_555
H15E C7E 1_555 1_555
C8E N4E 1_555 1_555
H16E C8E 1_555 1_555
C13E C7E 1_555 1_555
H29E C13E 1_555 1_555
H30E C13E 1_555 1_555
H31E C13E 1_555 1_555
C14E C7E 1_555 1_555
H32E C14E 1_555 1_555
H33E C14E 1_555 1_555
H34E C14E 1_555 1_555
C15E C8E 1_555 1_555
H35E C15E 1_555 1_555
H36E C15E 1_555 1_555
H37E C15E 1_555 1_555
C16E C8E 1_555 1_555
H38E C16E 1_555 1_555
H39E C16E 1_555 1_555
H40E C16E 1_555 1_555
Cu2A O3A 1_555 1_555
O3E Cu2E 1_555 1_555
O4E Cu2E 1_555 1_555
O5E Cl1 1_555 1_555
O6E Cl1 1_555 1_555
O7A Cl2 1_555 1_555
O8A Cl2 1_555 1_555
O3 C17 1_555 1_555
O4 C18 1_555 1_555
C1 C2 1_555 1_555
C3 C4 1_555 1_555
C17 C18 1_555 1_555
C1A C2A 1_555 1_555
O4A Cu2A 1_555 1_555
C17A C18A 1_555 1_555
C3E C4E 1_555 1_555

#END
