
#######################################################################
#
#                 Cambridge Crystallographic Data Centre
#                                CCDC 
#
#######################################################################
#
# If this CIF has been generated from an entry in the Cambridge 
# Structural Database, then it will include bibliographic, chemical, 
# crystal, experimental, refinement or atomic coordinate data resulting 
# from the CCDC's data processing and validation procedures.
#
#######################################################################

data_AVOLED
_symmetry_cell_setting           monoclinic
_symmetry_space_group_name_H-M   'C 2/c'
_symmetry_Int_Tables_number      15
_space_group_name_Hall           '-C 2yn'
loop_
_symmetry_equiv_pos_site_id
_symmetry_equiv_pos_as_xyz
1 x,y,z
2 -x,y,1/2-z
3 1/2+x,1/2+y,z
4 1/2-x,1/2+y,1/2-z
5 -x,-y,-z
6 x,-y,1/2+z
7 1/2-x,1/2-y,-z
8 1/2+x,1/2-y,1/2+z
_cell_length_a                   7.3529(15)
_cell_length_b                   19.332(4)
_cell_length_c                   16.542(3)
_cell_angle_alpha                90
_cell_angle_beta                 99.00(3)
_cell_angle_gamma                90
_cell_volume                     2322.43
loop_
_atom_site_label
_atom_site_type_symbol
_atom_site_fract_x
_atom_site_fract_y
_atom_site_fract_z
Zn1 Zn -0.3596(3) 0.50798(9) 0.40101(11)
Zn2 Zn -0.5000 0.33572(18) 0.2500
Na1 Na -0.5000 0.1409(5) 0.2500
Na2 Na -0.5000 0.3719(5) 0.7500
O1 O -0.4069(17) 0.4250(6) 0.4643(7)
O2 O -0.5848(19) 0.5461(6) 0.3440(7)
O3 O -0.7158(15) 0.0780(5) 0.4672(7)
O4 O -0.1872(17) 0.4714(6) 0.3314(8)
H1 H -0.1369 0.4343 0.3436
H2 H -0.2011 0.4929 0.3732
O5 O -0.5554(17) 0.3807(5) 0.3508(7)
O6 O -0.262(2) 0.1716(7) 0.6929(8)
O7 O -0.7403(16) 0.1317(5) 0.3503(7)
O8 O -0.222(3) 0.2801(10) 0.7009(11)
O9 O -0.8862(17) 0.5492(7) 0.3294(8)
C1 C -0.5868(19) 0.2526(8) 0.4281(9)
H3 H -0.6502 0.2571 0.3751
C2 C -0.410(2) 0.2381(7) 0.5858(9)
C3 C -0.4949(19) 0.3088(7) 0.4654(8)
C4 C -0.688(2) 0.1300(7) 0.4242(9)
C5 C -0.501(2) 0.1829(8) 0.5456(9)
H4 H -0.5049 0.1406 0.5722
C6 C -0.4113(19) 0.3010(7) 0.5452(8)
H5 H -0.3541 0.3390 0.5728
C7 C -0.5873(18) 0.1902(7) 0.4668(8)
C8 C -0.296(3) 0.2287(10) 0.6663(10)
C9 C -0.488(2) 0.3762(8) 0.4239(10)
C10 C -0.743(2) 0.5255(8) 0.3580(10)
H6 H -0.7440 0.4886 0.3940
Zn1F Zn -0.1404(3) -0.00798(9) 0.59899(11)
Zn1B Zn -0.8596(3) 0.00798(9) 0.40101(11)
Zn1D Zn 0.3596(3) 0.49202(9) 0.59899(11)
Zn1B_2 Zn 0.1404(3) 0.00798(9) 0.40101(11)
Zn2F Zn 0.0000 0.16428(18) 0.7500
Na1F Na -1.0000 0.3591(5) 0.7500
Na1F_2 Na 0.0000 0.3591(5) 0.7500
Na1B Na -1.0000 0.6409(5) 0.2500
Na2F Na -1.0000 0.1281(5) 0.2500
Na2F_2 Na 0.0000 0.1281(5) 0.2500
Na2D Na -0.5000 0.6281(5) 0.2500
Na2_2 Na 0.5000 0.3719(5) 0.7500
O1F O -0.0931(17) 0.0750(6) 0.5357(7)
O2B O -0.0848(19) 0.0461(6) 0.3440(7)
O2D O -0.4152(19) 0.4539(6) 0.6560(7)
O2E O -0.5848(19) 0.4539(6) 0.8440(7)
O2F O 0.0848(19) -0.0461(6) 0.6560(7)
O3F O 0.2158(15) 0.4220(5) 0.5328(7)
O3B O -0.2158(15) 0.5780(5) 0.4672(7)
O3D O -0.2842(15) -0.0780(5) 0.5328(7)
O4F O -0.3128(17) 0.0286(6) 0.6686(8)
H1F H -0.3631 0.0657 0.6564
H2F H -0.2989 0.0071 0.6268
O5F O 0.0554(17) 0.1193(5) 0.6492(7)
O5A O -0.4446(17) 0.3807(5) 0.1492(7)
O6F O -0.238(2) 0.3284(7) 0.3071(8)
O6G O -0.762(2) 0.3284(7) 0.1929(8)
O7F O 0.2403(16) 0.3683(5) 0.6497(7)
O7A O -0.2597(16) 0.1317(5) 0.1497(7)
O7G O -0.2403(16) 0.3683(5) 0.8503(7)
O7F_2 O -0.7597(16) 0.3683(5) 0.6497(7)
O8F O -0.278(3) 0.2199(10) 0.2991(11)
O8G O -0.722(3) 0.2199(10) 0.2009(11)
O8A O -0.778(3) 0.2801(10) 0.7991(11)
O9B O -0.3862(17) 0.0492(7) 0.3294(8)
O9C O -0.6138(17) 0.0492(7) 0.1706(8)
C1F C 0.0868(19) 0.2474(8) 0.5719(9)
H3F H 0.1502 0.2429 0.6249
C2F C -0.090(2) 0.2619(7) 0.4142(9)
C3F C -0.0051(19) 0.1912(7) 0.5346(8)
C4F C 0.188(2) 0.3700(7) 0.5758(9)
C5F C 0.001(2) 0.3171(8) 0.4544(9)
H4F H 0.0049 0.3594 0.4278
C6F C -0.0887(19) 0.1990(7) 0.4548(8)
H5F H -0.1459 0.1610 0.4272
C7F C 0.0873(18) 0.3098(7) 0.5332(8)
C8F C -0.204(3) 0.2713(10) 0.3337(10)
C9F C -0.012(2) 0.1238(8) 0.5761(10)
C10B C -0.243(2) 0.0255(8) 0.3580(10)
H6B H -0.2440 -0.0114 0.3940
loop_
_geom_bond_atom_site_label_1
_geom_bond_atom_site_label_2
_geom_bond_site_symmetry_1
_geom_bond_site_symmetry_2
Zn1 O1 1_555 1_555
Zn2 O5 1_555 1_555
Na1 O7 1_555 1_555
Na2 O8 1_555 1_555
O1 C9 1_555 1_555
O2 Zn1 1_555 1_555
O3 C4 1_555 1_555
O4 Zn1 1_555 1_555
H1 O4 1_555 1_555
H2 O4 1_555 1_555
O5 C9 1_555 1_555
O6 C8 1_555 1_555
O7 C4 1_555 1_555
O8 C8 1_555 1_555
O9 C10 1_555 1_555
C1 H3 1_555 1_555
C2 C5 1_555 1_555
C3 C1 1_555 1_555
C4 C7 1_555 1_555
C5 H4 1_555 1_555
C6 C2 1_555 1_555
H5 C6 1_555 1_555
C7 C1 1_555 1_555
C8 C2 1_555 1_555
C9 C3 1_555 1_555
C10 O2 1_555 1_555
H6 C10 1_555 1_555
Zn1F O1F 1_555 1_555
Zn1B O3 1_555 1_555
Zn1D O3F 1_555 1_555
Zn1B_2 O2B 1_555 1_555
Zn2F O6 1_555 1_555
Na1F O7F_2 1_555 1_555
Na1F_2 O8 1_555 1_555
Na1B O9 1_555 1_555
Na2F O7 1_555 1_555
Na2F_2 O2B 1_555 1_555
Na2D O2 1_555 1_555
Na2_2 O7F 1_555 1_555
O1F C9F 1_555 1_555
O2B C10B 1_555 1_555
O2D Na2 1_555 1_555
O2E Na2 1_555 1_555
O2F Zn1F 1_555 1_555
O3F C4F 1_555 1_555
O3B Zn1 1_555 1_555
O3D Zn1F 1_555 1_555
O4F Zn1F 1_555 1_555
H1F O4F 1_555 1_555
H2F O4F 1_555 1_555
O5F Zn2F 1_555 1_555
O5A Zn2 1_555 1_555
O6F Zn2 1_555 1_555
O6G Zn2 1_555 1_555
O7F Na1F_2 1_555 1_555
O7A Na1 1_555 1_555
O7G Na2 1_555 1_555
O7F_2 Na2 1_555 1_555
O8F Na1 1_555 1_555
O8G Na1 1_555 1_555
O8A Na2 1_555 1_555
O9B Na1 1_555 1_555
O9C Na1 1_555 1_555
C1F H3F 1_555 1_555
C2F C5F 1_555 1_555
C3F C1F 1_555 1_555
C4F O7F 1_555 1_555
C5F H4F 1_555 1_555
C6F C2F 1_555 1_555
H5F C6F 1_555 1_555
C7F C1F 1_555 1_555
C8F O6F 1_555 1_555
C9F O5F 1_555 1_555
C10B O9B 1_555 1_555
H6B C10B 1_555 1_555
C3 C6 1_555 1_555
C5 C7 1_555 1_555
Na1F O8A 1_555 1_555
Na1F_2 O7G 1_555 1_555
Na2F O8G 1_555 1_555
Na2F_2 O7A 1_555 1_555
Na2F_2 O8F 1_555 1_555
O8F C8F 1_555 1_555
C2F C8F 1_555 1_555
C3F C6F 1_555 1_555
C3F C9F 1_555 1_555
C4F C7F 1_555 1_555
C5F C7F 1_555 1_555

#END
