
#######################################################################
#
#                 Cambridge Crystallographic Data Centre
#                                CCDC 
#
#######################################################################
#
# If this CIF has been generated from an entry in the Cambridge 
# Structural Database, then it will include bibliographic, chemical, 
# crystal, experimental, refinement or atomic coordinate data resulting 
# from the CCDC's data processing and validation procedures.
#
#######################################################################

data_AVOMEE
_symmetry_cell_setting           triclinic
_symmetry_space_group_name_H-M   'P -1'
_symmetry_Int_Tables_number      2
_space_group_name_Hall           '-P 1'
loop_
_symmetry_equiv_pos_site_id
_symmetry_equiv_pos_as_xyz
1 x,y,z
2 -x,-y,-z
_cell_length_a                   13.135(3)
_cell_length_b                   13.453(4)
_cell_length_c                   13.510(4)
_cell_angle_alpha                110.197(4)
_cell_angle_beta                 92.133(3)
_cell_angle_gamma                93.261(4)
_cell_volume                     2232.74
loop_
_atom_site_label
_atom_site_type_symbol
_atom_site_fract_x
_atom_site_fract_y
_atom_site_fract_z
Zn1 Zn 0.51258(2) 0.96504(3) 0.30381(3)
Zn2 Zn 0.01396(2) 0.70978(2) 1.03143(3)
O1 O 0.43105(15) 0.87684(18) 0.36590(18)
O2 O 0.30748(17) 0.8908(2) 0.2577(2)
O3 O -0.03399(16) 0.65614(17) 0.88019(17)
O4 O 0.11729(17) 0.72889(18) 0.86405(18)
O5 O 0.46855(16) 1.11202(16) 0.34732(17)
O6 O 0.60851(17) 1.13405(17) 0.26810(19)
O7 O 0.80790(16) 1.7608(2) 0.1161(2)
O8 O 0.92715(15) 1.65094(17) 0.11599(18)
N1 N 0.51874(18) 0.89634(19) 0.14588(19)
N2 N 0.58173(18) 0.8252(2) -0.00884(19)
N3 N 0.96985(18) 1.13102(18) -0.0937(2)
N4 N 0.90601(18) 0.97033(19) -0.1878(2)
N5 N 0.65049(18) 0.95400(19) 0.37146(19)
N6 N 0.81346(18) 0.9318(2) 0.3904(2)
N7 N 0.14078(18) 0.64411(19) 1.0602(2)
N8 N 0.2988(2) 0.6054(2) 1.0768(3)
C1 C 0.3386(2) 0.8600(2) 0.3284(2)
C2 C 0.2661(2) 0.8022(2) 0.3775(2)
C3 C 0.2977(2) 0.7780(3) 0.4652(3)
H1 H 0.3659 0.7919 0.4899
C4 C 0.2300(3) 0.7341(3) 0.5158(3)
H2 H 0.2533 0.7193 0.5747
C5 C 0.1270(2) 0.7109(2) 0.4815(2)
C6 C 0.0979(2) 0.7281(3) 0.3892(2)
H3 H 0.0314 0.7079 0.3603
C7 C 0.1657(2) 0.7747(3) 0.3394(2)
H4 H 0.1433 0.7876 0.2791
C8 C 0.0525(2) 0.6727(2) 0.5428(2)
C9 C -0.0417(2) 0.6192(3) 0.4977(3)
H5 H -0.0593 0.6078 0.4271
C10 C -0.1088(2) 0.5832(3) 0.5563(3)
H6 H -0.1707 0.5473 0.5244
C11 C -0.0855(2) 0.5996(2) 0.6617(3)
H7 H -0.1306 0.5736 0.7000
C12 C 0.0064(2) 0.6556(2) 0.7099(2)
C13 C 0.0735(2) 0.6905(2) 0.6494(2)
H8 H 0.1349 0.7272 0.6816
C14 C 0.0333(2) 0.6822(2) 0.8256(2)
C15 C 0.5323(2) 1.1686(2) 0.3155(2)
C16 C 0.5106(2) 1.2826(2) 0.3372(2)
C17 C 0.4237(2) 1.3253(3) 0.3858(3)
H9 H 0.3785 1.2849 0.4107
C18 C 0.4055(3) 1.4285(3) 0.3967(3)
H10 H 0.3464 1.4566 0.4272
C19 C 0.4731(3) 1.4908(3) 0.3633(3)
H11 H 0.4587 1.5600 0.3713
C20 C 0.5631(2) 1.4513(2) 0.3174(2)
C21 C 0.5788(2) 1.3462(2) 0.3050(2)
H12 H 0.6374 1.3175 0.2738
C22 C 0.6382(2) 1.5171(2) 0.2814(2)
C23 C 0.7302(3) 1.4782(3) 0.2414(3)
H13 H 0.7471 1.4125 0.2428
C24 C 0.7969(2) 1.5342(3) 0.1997(3)
H14 H 0.8578 1.5061 0.1741
C25 C 0.7741(2) 1.6314(2) 0.1956(2)
C26 C 0.6856(2) 1.6735(2) 0.2394(3)
H15 H 0.6703 1.7403 0.2399
C27 C 0.6198(2) 1.6177(2) 0.2823(3)
H16 H 0.5616 1.6485 0.3125
C28 C 0.8403(2) 1.6868(2) 0.1388(2)
C29 C 0.5996(2) 0.8564(2) 0.0959(2)
H17 H 0.6610 0.8506 0.1292
C30 C 0.4462(2) 0.8913(2) 0.0684(2)
H18 H 0.3808 0.9143 0.0802
C31 C 0.4838(2) 0.8481(3) -0.0272(3)
H19 H 0.4502 0.8361 -0.0925
C32 C 0.6570(2) 0.7808(3) -0.0865(3)
H20 H 0.6238 0.7226 -0.1454
H21 H 0.7098 0.7523 -0.0542
C33 C 0.7063(2) 0.8627(2) -0.1280(2)
H22 H 0.6548 0.8875 -0.1654
H23 H 0.7364 0.9231 -0.0693
C34 C 0.7883(2) 0.8132(2) -0.2020(2)
H24 H 0.8421 0.7947 -0.1618
H25 H 0.7588 0.7479 -0.2550
C35 C 0.8353(2) 0.8834(3) -0.2574(3)
H26 H 0.8718 0.8402 -0.3162
H27 H 0.7810 0.9136 -0.2860
C36 C 0.8885(2) 1.0736(2) -0.1492(2)
H28 H 0.8274 1.1011 -0.1601
C37 C 1.0425(2) 1.0602(2) -0.0970(3)
H29 H 1.1080 1.0779 -0.0647
C38 C 1.0037(2) 0.9614(2) -0.1544(3)
H30 H 1.0368 0.8991 -0.1686
C39 C 0.7425(2) 0.9670(2) 0.3395(2)
H31 H 0.7562 0.9967 0.2883
C40 C 0.6636(2) 0.9084(3) 0.4474(2)
H32 H 0.6120 0.8903 0.4847
C41 C 0.7635(2) 0.8943(3) 0.4591(3)
H33 H 0.7930 0.8647 0.5051
C42 C 0.9214(2) 0.9231(3) 0.3658(3)
H34 H 0.9290 0.9297 0.2972
H35 H 0.9401 0.8529 0.3608
C43 C 0.9956(2) 1.0055(3) 0.4461(3)
H36 H 1.0628 1.0006 0.4180
H37 H 0.9742 1.0756 0.4546
C44 C 0.2368(2) 0.6652(2) 1.0445(3)
H38 H 0.2586 0.7150 1.0148
C45 C 0.1419(3) 0.5671(3) 1.1055(3)
H39 H 0.0848 0.5367 1.1260
C46 C 0.2392(3) 0.5427(3) 1.1155(3)
H40 H 0.2612 0.4927 1.1433
C47 C 0.4100(3) 0.6069(3) 1.0696(4)
H41 H 0.4427 0.6327 1.1403
H42 H 0.4313 0.6557 1.0345
C48 C 0.4444(2) 0.4999(3) 1.0106(3)
H43 H 0.4047 0.4704 0.9436
H44 H 0.4304 0.4537 1.0506
Zn1A Zn 1.48742(2) 1.03496(3) 0.69619(3)
Zn1_2 Zn -0.48742(2) -0.03496(3) 1.30381(3)
Zn1A_2 Zn 0.48742(2) 1.03496(3) 0.69619(3)
Zn2_2 Zn 1.01396(2) 1.70978(2) 0.03143(3)
Zn2A Zn 0.98604(2) 1.29022(2) -0.03143(3)
Zn2A_2 Zn 0.98604(2) 0.29022(2) 0.96857(3)
Zn2A_3 Zn 1.98604(2) 1.29022(2) -0.03143(3)
O1A O 1.56895(15) 1.12316(18) 0.63410(18)
O2A O 1.69252(17) 1.1092(2) 0.7423(2)
O3A O 2.03399(16) 1.34386(17) 0.11981(17)
O3_2 O 0.96601(16) 1.65614(17) -0.11981(17)
O4A O 1.88271(17) 1.27111(18) 0.13595(18)
O5_2 O -0.53145(16) 0.11202(16) 1.34732(17)
O5A O 1.53145(16) 0.88798(16) 0.65268(17)
O6_2 O -0.39149(17) 0.13405(17) 1.26810(19)
O7_2 O -0.19210(16) 0.7608(2) 1.1161(2)
O8_2 O -0.07285(15) 0.65094(17) 1.11599(18)
N1A N 0.48126(18) 1.10366(19) 0.85412(19)
N1A_2 N 1.48126(18) 1.10366(19) 0.85412(19)
N2A N 0.41827(18) 1.1748(2) 1.00884(19)
N3A N 0.03015(18) 0.86898(18) 1.0937(2)
N3A_2 N 1.03015(18) 1.86898(18) 0.0937(2)
N4A N 0.09399(18) 1.02967(19) 1.1878(2)
N5A N 1.34951(18) 1.04600(19) 0.62854(19)
N6A N 1.18654(18) 1.0682(2) 0.6096(2)
N7A N 0.85922(18) 0.35589(19) 0.9398(2)
N7_2 N 1.14078(18) 1.64411(19) 0.0602(2)
N8A N 0.7012(2) 0.3946(2) 0.9232(3)
C1A C 1.6614(2) 1.1400(2) 0.6716(2)
C2A C 1.7339(2) 1.1978(2) 0.6225(2)
C3A C 1.7023(2) 1.2220(3) 0.5348(3)
H1A H 1.6341 1.2081 0.5101
C4A C 1.7700(3) 1.2659(3) 0.4842(3)
H2A H 1.7467 1.2807 0.4253
C5A C 1.8730(2) 1.2891(2) 0.5185(2)
C6A C 1.9021(2) 1.2719(3) 0.6108(2)
H3A H 1.9686 1.2921 0.6397
C7A C 1.8343(2) 1.2253(3) 0.6606(2)
H4A H 1.8567 1.2124 0.7209
C8A C 1.9475(2) 1.3273(2) 0.4572(2)
C9A C 2.0417(2) 1.3808(3) 0.5023(3)
H5A H 2.0593 1.3922 0.5729
C10A C 2.1088(2) 1.4168(3) 0.4437(3)
H6A H 2.1707 1.4527 0.4756
C11A C 2.0855(2) 1.4004(2) 0.3383(3)
H7A H 2.1306 1.4264 0.3000
C12A C 1.9936(2) 1.3444(2) 0.2901(2)
C13A C 1.9265(2) 1.3095(2) 0.3506(2)
H8A H 1.8651 1.2728 0.3184
C14A C 1.9667(2) 1.3178(2) 0.1744(2)
C15_2 C -0.4677(2) 0.1686(2) 1.3155(2)
C16_2 C -0.4894(2) 0.2826(2) 1.3372(2)
C17_2 C -0.5763(2) 0.3253(3) 1.3858(3)
H9_2 H -0.6215 0.2849 1.4107
C18_2 C -0.5945(3) 0.4285(3) 1.3967(3)
H10_2 H -0.6536 0.4566 1.4272
C19_2 C -0.5269(3) 0.4908(3) 1.3633(3)
H11_2 H -0.5413 0.5600 1.3713
C20_2 C -0.4369(2) 0.4513(2) 1.3174(2)
C21_2 C -0.4212(2) 0.3462(2) 1.3050(2)
H12_2 H -0.3626 0.3175 1.2738
C22_2 C -0.3618(2) 0.5171(2) 1.2814(2)
C23_2 C -0.2698(3) 0.4782(3) 1.2414(3)
H13_2 H -0.2529 0.4125 1.2428
C24_2 C -0.2031(2) 0.5342(3) 1.1997(3)
H14_2 H -0.1422 0.5061 1.1741
C25_2 C -0.2259(2) 0.6314(2) 1.1956(2)
C26_2 C -0.3144(2) 0.6735(2) 1.2394(3)
H15_2 H -0.3297 0.7403 1.2399
C27_2 C -0.3802(2) 0.6177(2) 1.2823(3)
H16_2 H -0.4384 0.6485 1.3125
C28_2 C -0.1597(2) 0.6868(2) 1.1388(2)
C29A C 0.4004(2) 1.1436(2) 0.9041(2)
H17A H 0.3390 1.1494 0.8708
C30A C 0.5538(2) 1.1087(2) 0.9316(2)
H18A H 0.6192 1.0857 0.9198
C31A C 0.5162(2) 1.1519(3) 1.0272(3)
H19A H 0.5498 1.1639 1.0925
C32A C 0.3430(2) 1.2192(3) 1.0865(3)
H20A H 0.3762 1.2774 1.1454
H21A H 0.2902 1.2477 1.0542
C33A C 0.2937(2) 1.1373(2) 1.1280(2)
H22A H 0.3452 1.1125 1.1654
H23A H 0.2636 1.0769 1.0693
C34A C 0.2117(2) 1.1868(2) 1.2020(2)
H24A H 0.1579 1.2053 1.1618
H25A H 0.2412 1.2521 1.2550
C35A C 0.1647(2) 1.1166(3) 1.2574(3)
H26A H 0.1282 1.1598 1.3162
H27A H 0.2190 1.0864 1.2860
C36A C 0.1115(2) 0.9264(2) 1.1492(2)
H28A H 0.1726 0.8989 1.1601
C37A C -0.0425(2) 0.9398(2) 1.0970(3)
H29A H -0.1080 0.9221 1.0647
C38A C -0.0037(2) 1.0386(2) 1.1544(3)
H30A H -0.0368 1.1009 1.1686
C39A C 1.2575(2) 1.0330(2) 0.6605(2)
H31A H 1.2438 1.0033 0.7117
C40A C 1.3364(2) 1.0916(3) 0.5526(2)
H32A H 1.3880 1.1097 0.5153
C41A C 1.2365(2) 1.1057(3) 0.5409(3)
H33A H 1.2070 1.1353 0.4949
C42A C 1.0786(2) 1.0769(3) 0.6342(3)
H34A H 1.0710 1.0703 0.7028
H35A H 1.0599 1.1471 0.6392
C43A C 1.0044(2) 0.9945(3) 0.5539(3)
H36A H 0.9372 0.9994 0.5820
H37A H 1.0258 0.9244 0.5454
C44A C 0.7632(2) 0.3348(2) 0.9555(3)
H38A H 0.7414 0.2850 0.9852
C45A C 0.8581(3) 0.4329(3) 0.8945(3)
H39A H 0.9152 0.4633 0.8740
C46A C 0.7608(3) 0.4573(3) 0.8845(3)
H40A H 0.7388 0.5073 0.8567
C47A C 0.5900(3) 0.3931(3) 0.9304(4)
H41A H 0.5573 0.3673 0.8597
H42A H 0.5687 0.3443 0.9655
C48A C 0.5556(2) 0.5001(3) 0.9894(3)
H43A H 0.5953 0.5296 1.0564
H44A H 0.5696 0.5463 0.9494
O9 O 0.7526(2) 0.0851(3) 0.1110(3)
H45 H 0.7059 0.1000 0.1545
H46 H 0.7800 0.1425 0.1074
loop_
_geom_bond_atom_site_label_1
_geom_bond_atom_site_label_2
_geom_bond_site_symmetry_1
_geom_bond_site_symmetry_2
Zn1 O1 1_555 1_555
Zn2 O3 1_555 1_555
O1 C1 1_555 1_555
O2 C1 1_555 1_555
O3 C14 1_555 1_555
O4 C14 1_555 1_555
O5 Zn1 1_555 1_555
O6 C15 1_555 1_555
O7 C28 1_555 1_555
O8 C28 1_555 1_555
N1 Zn1 1_555 1_555
N2 C29 1_555 1_555
N3 C36 1_555 1_555
N4 C35 1_555 1_555
N5 Zn1 1_555 1_555
N6 C39 1_555 1_555
N7 Zn2 1_555 1_555
N8 C44 1_555 1_555
C1 C2 1_555 1_555
C2 C3 1_555 1_555
C3 H1 1_555 1_555
C4 C3 1_555 1_555
H2 C4 1_555 1_555
C5 C4 1_555 1_555
C6 C5 1_555 1_555
H3 C6 1_555 1_555
C7 C2 1_555 1_555
H4 C7 1_555 1_555
C8 C5 1_555 1_555
C9 C8 1_555 1_555
H5 C9 1_555 1_555
C10 C9 1_555 1_555
H6 C10 1_555 1_555
C11 C10 1_555 1_555
H7 C11 1_555 1_555
C12 C11 1_555 1_555
C13 C8 1_555 1_555
H8 C13 1_555 1_555
C14 C12 1_555 1_555
C15 O5 1_555 1_555
C16 C15 1_555 1_555
C17 C16 1_555 1_555
H9 C17 1_555 1_555
C18 C17 1_555 1_555
H10 C18 1_555 1_555
C19 C18 1_555 1_555
H11 C19 1_555 1_555
C20 C19 1_555 1_555
C21 C16 1_555 1_555
H12 C21 1_555 1_555
C22 C20 1_555 1_555
C23 C22 1_555 1_555
H13 C23 1_555 1_555
C24 C23 1_555 1_555
H14 C24 1_555 1_555
C25 C24 1_555 1_555
C26 C25 1_555 1_555
H15 C26 1_555 1_555
C27 C22 1_555 1_555
H16 C27 1_555 1_555
C28 C25 1_555 1_555
C29 N1 1_555 1_555
H17 C29 1_555 1_555
C30 N1 1_555 1_555
H18 C30 1_555 1_555
C31 N2 1_555 1_555
H19 C31 1_555 1_555
C32 N2 1_555 1_555
H20 C32 1_555 1_555
H21 C32 1_555 1_555
C33 C32 1_555 1_555
H22 C33 1_555 1_555
H23 C33 1_555 1_555
C34 C33 1_555 1_555
H24 C34 1_555 1_555
H25 C34 1_555 1_555
C35 C34 1_555 1_555
H26 C35 1_555 1_555
H27 C35 1_555 1_555
C36 N4 1_555 1_555
H28 C36 1_555 1_555
C37 N3 1_555 1_555
H29 C37 1_555 1_555
C38 N4 1_555 1_555
H30 C38 1_555 1_555
C39 N5 1_555 1_555
H31 C39 1_555 1_555
C40 N5 1_555 1_555
H32 C40 1_555 1_555
C41 N6 1_555 1_555
H33 C41 1_555 1_555
C42 N6 1_555 1_555
H34 C42 1_555 1_555
H35 C42 1_555 1_555
C43 C42 1_555 1_555
H36 C43 1_555 1_555
H37 C43 1_555 1_555
C44 N7 1_555 1_555
H38 C44 1_555 1_555
C45 N7 1_555 1_555
H39 C45 1_555 1_555
C46 N8 1_555 1_555
H40 C46 1_555 1_555
C47 N8 1_555 1_555
H41 C47 1_555 1_555
H42 C47 1_555 1_555
C48 C47 1_555 1_555
H43 C48 1_555 1_555
H44 C48 1_555 1_555
O9 H45 1_555 1_555
H46 O9 1_555 1_555
Zn1A O1A 1_555 1_555
Zn1_2 O5_2 1_555 1_555
Zn1A_2 N1A 1_555 1_555
Zn2_2 O8 1_555 1_555
Zn2A N3 1_555 1_555
Zn2A_2 N7A 1_555 1_555
Zn2A_3 O3A 1_555 1_555
O1A C1A 1_555 1_555
O2A C1A 1_555 1_555
O3A C14A 1_555 1_555
O3_2 Zn2_2 1_555 1_555
O4A C14A 1_555 1_555
O5_2 C15_2 1_555 1_555
O5A Zn1A 1_555 1_555
O6_2 C15_2 1_555 1_555
O7_2 C28_2 1_555 1_555
O8_2 Zn2 1_555 1_555
N1A C29A 1_555 1_555
N1A_2 Zn1A 1_555 1_555
N2A C29A 1_555 1_555
N3A Zn2 1_555 1_555
N3A_2 Zn2_2 1_555 1_555
N4A C35A 1_555 1_555
N5A Zn1A 1_555 1_555
N6A C39A 1_555 1_555
N7A C44A 1_555 1_555
N7_2 Zn2_2 1_555 1_555
N8A C44A 1_555 1_555
C1A C2A 1_555 1_555
C2A C3A 1_555 1_555
C3A H1A 1_555 1_555
C4A C3A 1_555 1_555
H2A C4A 1_555 1_555
C5A C4A 1_555 1_555
C6A C5A 1_555 1_555
H3A C6A 1_555 1_555
C7A C2A 1_555 1_555
H4A C7A 1_555 1_555
C8A C5A 1_555 1_555
C9A C8A 1_555 1_555
H5A C9A 1_555 1_555
C10A C9A 1_555 1_555
H6A C10A 1_555 1_555
C11A C10A 1_555 1_555
H7A C11A 1_555 1_555
C12A C11A 1_555 1_555
C13A C8A 1_555 1_555
H8A C13A 1_555 1_555
C14A C12A 1_555 1_555
C15_2 C16_2 1_555 1_555
C16_2 C17_2 1_555 1_555
C17_2 H9_2 1_555 1_555
C18_2 C17_2 1_555 1_555
H10_2 C18_2 1_555 1_555
C19_2 C18_2 1_555 1_555
H11_2 C19_2 1_555 1_555
C20_2 C19_2 1_555 1_555
C21_2 C16_2 1_555 1_555
H12_2 C21_2 1_555 1_555
C22_2 C20_2 1_555 1_555
C23_2 C22_2 1_555 1_555
H13_2 C23_2 1_555 1_555
C24_2 C23_2 1_555 1_555
H14_2 C24_2 1_555 1_555
C25_2 C24_2 1_555 1_555
C26_2 C25_2 1_555 1_555
H15_2 C26_2 1_555 1_555
C27_2 C22_2 1_555 1_555
H16_2 C27_2 1_555 1_555
C28_2 O8_2 1_555 1_555
C29A H17A 1_555 1_555
C30A N1A 1_555 1_555
H18A C30A 1_555 1_555
C31A N2A 1_555 1_555
H19A C31A 1_555 1_555
C32A N2A 1_555 1_555
H20A C32A 1_555 1_555
H21A C32A 1_555 1_555
C33A C32A 1_555 1_555
H22A C33A 1_555 1_555
H23A C33A 1_555 1_555
C34A C33A 1_555 1_555
H24A C34A 1_555 1_555
H25A C34A 1_555 1_555
C35A C34A 1_555 1_555
H26A C35A 1_555 1_555
H27A C35A 1_555 1_555
C36A N3A 1_555 1_555
H28A C36A 1_555 1_555
C37A N3A 1_555 1_555
H29A C37A 1_555 1_555
C38A N4A 1_555 1_555
H30A C38A 1_555 1_555
C39A N5A 1_555 1_555
H31A C39A 1_555 1_555
C40A N5A 1_555 1_555
H32A C40A 1_555 1_555
C41A N6A 1_555 1_555
H33A C41A 1_555 1_555
C42A N6A 1_555 1_555
H34A C42A 1_555 1_555
H35A C42A 1_555 1_555
C43A C43 1_555 1_555
H36A C43A 1_555 1_555
H37A C43A 1_555 1_555
C44A H38A 1_555 1_555
C45A N7A 1_555 1_555
H39A C45A 1_555 1_555
C46A N8A 1_555 1_555
H40A C46A 1_555 1_555
C47A N8A 1_555 1_555
H41A C47A 1_555 1_555
H42A C47A 1_555 1_555
C48A C48 1_555 1_555
H43A C48A 1_555 1_555
H44A C48A 1_555 1_555
C6 C7 1_555 1_555
C12 C13 1_555 1_555
C20 C21 1_555 1_555
C26 C27 1_555 1_555
C30 C31 1_555 1_555
C37 C38 1_555 1_555
C40 C41 1_555 1_555
C45 C46 1_555 1_555
N4A C36A 1_555 1_555
C6A C7A 1_555 1_555
C12A C13A 1_555 1_555
C20_2 C21_2 1_555 1_555
C25_2 C28_2 1_555 1_555
C26_2 C27_2 1_555 1_555
C30A C31A 1_555 1_555
C37A C38A 1_555 1_555
C40A C41A 1_555 1_555
C42A C43A 1_555 1_555
C45A C46A 1_555 1_555
C47A C48A 1_555 1_555

#END
