
#######################################################################
#
#                 Cambridge Crystallographic Data Centre
#                                CCDC 
#
#######################################################################
#
# If this CIF has been generated from an entry in the Cambridge 
# Structural Database, then it will include bibliographic, chemical, 
# crystal, experimental, refinement or atomic coordinate data resulting 
# from the CCDC's data processing and validation procedures.
#
#######################################################################

data_AVOMOO
_symmetry_cell_setting           orthorhombic
_symmetry_space_group_name_H-M   'P b c a'
_symmetry_Int_Tables_number      61
_space_group_name_Hall           '-P 2ac 2ab'
loop_
_symmetry_equiv_pos_site_id
_symmetry_equiv_pos_as_xyz
1 x,y,z
2 1/2-x,-y,1/2+z
3 -x,1/2+y,1/2-z
4 1/2+x,1/2-y,-z
5 -x,-y,-z
6 1/2+x,y,1/2-z
7 x,1/2-y,1/2+z
8 1/2-x,1/2+y,z
_cell_length_a                   16.176(12)
_cell_length_b                   14.453(11)
_cell_length_c                   19.137(15)
_cell_angle_alpha                90
_cell_angle_beta                 90
_cell_angle_gamma                90
_cell_volume                     4474.07
loop_
_atom_site_label
_atom_site_type_symbol
_atom_site_fract_x
_atom_site_fract_y
_atom_site_fract_z
Zn1 Zn 0.57536(4) 0.71748(4) 0.54905(3)
N1 N 0.5486(3) 0.5990(3) 0.6061(2)
N2 N 0.4593(3) 0.6855(3) 0.5084(2)
O1 O 0.5769(3) 0.8421(3) 0.5898(2)
O2 O 0.6613(3) 0.7651(3) 0.6601(3)
O3 O 0.8272(3) 1.3233(3) 0.99164(19)
O4 O 0.8883(4) 1.2131(3) 0.9303(3)
C1 C 0.6259(3) 0.8382(4) 0.6417(3)
C2 C 0.6404(3) 0.9269(3) 0.6823(3)
C3 C 0.5987(4) 1.0076(4) 0.6655(3)
H1 H 0.5618 1.0079 0.6282
C4 C 0.6116(4) 1.0886(4) 0.7042(3)
H2 H 0.5831 1.1421 0.6920
C5 C 0.6660(3) 1.0910(3) 0.7603(2)
C6 C 0.7083(3) 1.0095(3) 0.7751(3)
H3 H 0.7463 1.0093 0.8116
C7 C 0.6960(3) 0.9283(4) 0.7374(3)
H4 H 0.7251 0.8751 0.7492
C8 C 0.6770(3) 1.1759(3) 0.8044(2)
C9 C 0.6153(4) 1.2447(4) 0.8074(3)
H5 H 0.5687 1.2394 0.7793
C10 C 0.6232(4) 1.3216(4) 0.8523(3)
H6 H 0.5822 1.3667 0.8535
C11 C 0.6926(4) 1.3297(4) 0.8951(3)
H7 H 0.6977 1.3798 0.9252
C12 C 0.7544(4) 1.2628(4) 0.8925(3)
C13 C 0.7468(4) 1.1873(4) 0.8466(3)
H8 H 0.7892 1.1440 0.8443
C14 C 0.8284(5) 1.2665(4) 0.9409(3)
C15 C 0.5968(4) 0.5590(4) 0.6556(3)
H9 H 0.6449 0.5890 0.6694
C16 C 0.5774(4) 0.4769(4) 0.6859(4)
H10 H 0.6122 0.4509 0.7191
C17 C 0.5056(4) 0.4327(4) 0.6669(3)
H11 H 0.4907 0.3774 0.6883
C18 C 0.4562(4) 0.4703(4) 0.6163(3)
H12 H 0.4088 0.4394 0.6018
C19 C 0.4778(3) 0.5564(3) 0.5861(2)
C20 C 0.4279(3) 0.6040(4) 0.5326(3)
C21 C 0.3525(4) 0.5714(4) 0.5068(3)
H13 H 0.3311 0.5152 0.5222
C22 C 0.3101(4) 0.6238(5) 0.4579(3)
H14 H 0.2597 0.6030 0.4406
C23 C 0.3419(4) 0.7060(5) 0.4350(4)
H15 H 0.3136 0.7418 0.4024
C24 C 0.4160(4) 0.7344(5) 0.4609(3)
H16 H 0.4379 0.7901 0.4450
Zn1A Zn 0.92464(4) 1.28252(4) 1.04905(3)
O3A O 0.6728(3) 0.6767(3) 0.49164(19)
O4A O 0.6117(4) 0.7869(3) 0.4303(3)
O5 O 0.5624(4) 0.7210(5) 0.7887(4)
H17 H 0.5812 0.7037 0.8288
H18 H 0.6070 0.7106 0.7592
O6 O 0.5893(9) 0.9801(7) 0.4584(6)
H19 H 0.5631 0.9660 0.4966
H20 H 0.6027 0.9273 0.4379
loop_
_geom_bond_atom_site_label_1
_geom_bond_atom_site_label_2
_geom_bond_site_symmetry_1
_geom_bond_site_symmetry_2
Zn1 N1 1_555 1_555
N1 C15 1_555 1_555
N2 Zn1 1_555 1_555
O1 Zn1 1_555 1_555
O2 C1 1_555 1_555
O3 C14 1_555 1_555
O4 C14 1_555 1_555
C1 O1 1_555 1_555
C2 C1 1_555 1_555
C3 C2 1_555 1_555
H1 C3 1_555 1_555
C4 C3 1_555 1_555
H2 C4 1_555 1_555
C5 C4 1_555 1_555
C6 C5 1_555 1_555
H3 C6 1_555 1_555
C7 C2 1_555 1_555
H4 C7 1_555 1_555
C8 C5 1_555 1_555
C9 C8 1_555 1_555
H5 C9 1_555 1_555
C10 C9 1_555 1_555
H6 C10 1_555 1_555
C11 C10 1_555 1_555
H7 C11 1_555 1_555
C12 C11 1_555 1_555
C13 C8 1_555 1_555
H8 C13 1_555 1_555
C14 C12 1_555 1_555
C15 H9 1_555 1_555
C16 C15 1_555 1_555
H10 C16 1_555 1_555
C17 C16 1_555 1_555
H11 C17 1_555 1_555
C18 C17 1_555 1_555
H12 C18 1_555 1_555
C19 N1 1_555 1_555
C20 N2 1_555 1_555
C21 C20 1_555 1_555
H13 C21 1_555 1_555
C22 C21 1_555 1_555
H14 C22 1_555 1_555
C23 C22 1_555 1_555
H15 C23 1_555 1_555
C24 N2 1_555 1_555
H16 C24 1_555 1_555
O5 H17 1_555 1_555
H18 O5 1_555 1_555
O6 H19 1_555 1_555
H20 O6 1_555 1_555
Zn1A O3 1_555 1_555
O3A Zn1 1_555 1_555
O4A Zn1 1_555 1_555
O4 Zn1A 1_555 1_555
C6 C7 1_555 1_555
C12 C13 1_555 1_555
C18 C19 1_555 1_555
C19 C20 1_555 1_555
C23 C24 1_555 1_555

#END
