
#######################################################################
#
#                 Cambridge Crystallographic Data Centre
#                                CCDC 
#
#######################################################################
#
# If this CIF has been generated from an entry in the Cambridge 
# Structural Database, then it will include bibliographic, chemical, 
# crystal, experimental, refinement or atomic coordinate data resulting 
# from the CCDC's data processing and validation procedures.
#
#######################################################################

data_AVOMUU01
_symmetry_cell_setting           monoclinic
_symmetry_space_group_name_H-M   'P 21/c'
_symmetry_Int_Tables_number      14
_space_group_name_Hall           '-P 2ybc'
loop_
_symmetry_equiv_pos_site_id
_symmetry_equiv_pos_as_xyz
1 x,y,z
2 -x,1/2+y,1/2-z
3 -x,-y,-z
4 x,1/2-y,1/2+z
_cell_length_a                   13.6875(7)
_cell_length_b                   14.7040(7)
_cell_length_c                   6.0399(3)
_cell_angle_alpha                90
_cell_angle_beta                 97.1030(10)
_cell_angle_gamma                90
_cell_volume                     1206.27
loop_
_atom_site_label
_atom_site_type_symbol
_atom_site_fract_x
_atom_site_fract_y
_atom_site_fract_z
Zn1 Zn 0.888989(15) 0.924981(16) 0.08020(4)
O1 O 0.75436(11) 0.92350(10) 0.1486(3)
O2 O 0.80661(10) 0.83626(11) 0.4383(3)
O3 O 0.10681(11) 0.97057(12) 0.1132(3)
O4 O -0.00240(10) 0.91197(11) 0.3132(3)
O5 O 0.89801(13) 0.82458(13) -0.1412(3)
H1 H 0.879(2) 0.834(2) -0.269(5)
H2 H 0.877(2) 0.774(2) -0.111(5)
C1 C 0.73999(14) 0.87933(13) 0.3217(3)
C2 C 0.63732(13) 0.87865(12) 0.3832(3)
C3 C 0.61669(14) 0.83810(14) 0.5790(3)
H3 H 0.6673 0.8117 0.6745
C4 C 0.52156(14) 0.83647(15) 0.6341(3)
H4 H 0.5095 0.8091 0.7669
C5 C 0.44293(13) 0.87500(12) 0.4952(3)
C6 C 0.46537(15) 0.91540(13) 0.2985(3)
H5 H 0.4151 0.9419 0.2022
C7 C 0.56042(15) 0.91713(13) 0.2430(3)
H6 H 0.5729 0.9444 0.1104
C8 C 0.34060(13) 0.87307(12) 0.5540(3)
C9 C 0.31796(13) 0.83681(13) 0.7557(3)
H7 H 0.3687 0.8153 0.8591
C10 C 0.22257(14) 0.83216(14) 0.8054(3)
H8 H 0.2101 0.8083 0.9418
C11 C 0.14483(14) 0.86269(14) 0.6539(3)
H9 H 0.0803 0.8581 0.6858
C12 C 0.16559(13) 0.90016(13) 0.4537(3)
C13 C 0.26192(14) 0.90551(12) 0.4056(3)
H10 H 0.2744 0.9313 0.2714
C14 C 0.08436(14) 0.93097(13) 0.2823(3)
Zn1B Zn 0.111011(15) 1.075019(16) -0.08020(4)
Zn1_2 Zn -0.111011(15) 0.924981(16) 0.08020(4)
O3B O 0.89319(11) 1.02943(12) -0.1132(3)
O4_2 O 0.99760(10) 0.91197(11) 0.3132(3)
loop_
_geom_bond_atom_site_label_1
_geom_bond_atom_site_label_2
_geom_bond_site_symmetry_1
_geom_bond_site_symmetry_2
Zn1 O1 1_555 1_555
O1 C1 1_555 1_555
O2 C1 1_555 1_555
O3 C14 1_555 1_555
O4 C14 1_555 1_555
O5 Zn1 1_555 1_555
H1 O5 1_555 1_555
H2 O5 1_555 1_555
C1 C2 1_555 1_555
C2 C3 1_555 1_555
C3 H3 1_555 1_555
C4 C3 1_555 1_555
H4 C4 1_555 1_555
C5 C4 1_555 1_555
C6 C5 1_555 1_555
H5 C6 1_555 1_555
C7 C2 1_555 1_555
H6 C7 1_555 1_555
C8 C5 1_555 1_555
C9 C8 1_555 1_555
H7 C9 1_555 1_555
C10 C9 1_555 1_555
H8 C10 1_555 1_555
C11 C10 1_555 1_555
H9 C11 1_555 1_555
C12 C11 1_555 1_555
C13 C8 1_555 1_555
H10 C13 1_555 1_555
C14 C12 1_555 1_555
Zn1B O3 1_555 1_555
Zn1_2 O4 1_555 1_555
O3B Zn1 1_555 1_555
O4_2 Zn1 1_555 1_555
C6 C7 1_555 1_555
C12 C13 1_555 1_555

#END
