
#######################################################################
#
#                 Cambridge Crystallographic Data Centre
#                                CCDC 
#
#######################################################################
#
# If this CIF has been generated from an entry in the Cambridge 
# Structural Database, then it will include bibliographic, chemical, 
# crystal, experimental, refinement or atomic coordinate data resulting 
# from the CCDC's data processing and validation procedures.
#
#######################################################################

data_AVONUV
_symmetry_cell_setting           monoclinic
_symmetry_space_group_name_H-M   'P 21/n'
_symmetry_Int_Tables_number      14
_space_group_name_Hall           '-P 2yn'
loop_
_symmetry_equiv_pos_site_id
_symmetry_equiv_pos_as_xyz
1 x,y,z
2 1/2-x,1/2+y,1/2-z
3 -x,-y,-z
4 1/2+x,1/2-y,1/2+z
_cell_length_a                   10.6936(9)
_cell_length_b                   14.7020(12)
_cell_length_c                   12.9661(11)
_cell_angle_alpha                90
_cell_angle_beta                 106.3130(10)
_cell_angle_gamma                90
_cell_volume                     1956.43
loop_
_atom_site_label
_atom_site_type_symbol
_atom_site_fract_x
_atom_site_fract_y
_atom_site_fract_z
C1 C 0.4917(3) 0.3028(2) 0.1037(3)
C2 C 0.4806(4) 0.3967(3) 0.1450(3)
C3 C 0.4048(4) 0.4619(3) 0.0816(3)
H1 H 0.3501 0.4470 0.0143
C4 C 0.4112(4) 0.5503(3) 0.1193(3)
H2 H 0.3606 0.5941 0.0747
C5 C 0.5523(4) 0.5119(3) 0.2767(3)
H3 H 0.6023 0.5283 0.3451
C6 C 0.5536(4) 0.4220(3) 0.2467(3)
H4 H 0.6027 0.3793 0.2940
C7 C 1.2433(4) 0.7912(2) 0.0023(3)
C8 C 1.1235(4) 0.7526(3) 0.0256(3)
C9 C 1.1331(4) 0.7056(3) 0.1198(3)
H5 H 1.2136 0.6970 0.1700
C10 C 1.0206(4) 0.6716(3) 0.1379(4)
H6 H 1.0286 0.6393 0.2012
C11 C 0.8951(4) 0.7273(3) -0.0194(4)
H7 H 0.8134 0.7351 -0.0681
C12 C 1.0024(4) 0.7634(3) -0.0454(3)
H8 H 0.9923 0.7944 -0.1097
C13 C 0.8755(3) 0.4547(3) 0.2884(3)
C14 C 0.8475(5) 0.4308(3) 0.1720(3)
H9 H 0.8232 0.4848 0.1293
H10 H 0.7774 0.3877 0.1531
H11 H 0.9239 0.4048 0.1589
C15 C 0.3153(4) 0.0422(3) 0.0841(3)
C16 C 0.2077(6) 0.0004(4) 0.1183(5)
H12 H 0.1669 0.0458 0.1512
H13 H 0.2416 -0.0472 0.1690
H14 H 0.1447 -0.0244 0.0568
K1 K 0.70070(8) 0.70073(6) 0.19676(6)
N1 N 0.4842(4) 0.5764(2) 0.2143(3)
N2 N 0.9025(3) 0.6818(3) 0.0715(3)
O1 O 0.4307(2) 0.28176(17) 0.00972(19)
O2 O 0.5691(2) 0.24805(18) 0.16497(19)
O3 O 1.3511(2) 0.78402(18) 0.0712(2)
O4 O 1.2314(2) 0.83010(18) -0.08609(19)
O5 O 0.8790(2) 0.53819(17) 0.31265(18)
O6 O 0.8927(2) 0.38972(17) 0.3555(2)
O7 O 0.3796(2) -0.00620(16) 0.03566(17)
O8 O 0.3435(3) 0.12367(18) 0.1019(2)
Tb1 Tb 0.532444(15) 0.127617(11) 0.031256(12)
K1B K 0.29930(8) 0.29927(6) -0.19676(6)
K1A K 0.79930(8) 0.20073(6) 0.30324(6)
K1C K 1.20070(8) 0.79927(6) -0.30324(6)
O1B O 0.5693(2) 0.71824(17) -0.00972(19)
O2A O 0.9309(2) 0.74805(18) 0.33503(19)
O3B O 0.6489(2) 0.21598(18) -0.0712(2)
O4C O 0.7314(2) 0.66990(18) 0.41391(19)
O4B O 0.7686(2) 0.16990(18) 0.08609(19)
O5A O 0.6210(2) 0.03819(17) 0.18735(18)
O6A O 0.6073(2) 0.88972(17) 0.1445(2)
O6C O 0.3927(2) 0.11028(17) -0.1445(2)
O7B O 0.6204(2) 0.00620(16) -0.03566(17)
Tb1B Tb 1.467556(15) 0.872383(11) -0.031256(12)
Tb1A Tb 0.967556(15) 0.627617(11) 0.468744(12)
Tb1C Tb 1.032444(15) 0.372383(11) 0.531256(12)
Tb1B_2 Tb 0.467556(15) -0.127617(11) -0.031256(12)
loop_
_geom_bond_atom_site_label_1
_geom_bond_atom_site_label_2
_geom_bond_site_symmetry_1
_geom_bond_site_symmetry_2
C1 C2 1_555 1_555
C2 C3 1_555 1_555
C3 H1 1_555 1_555
C4 C3 1_555 1_555
H2 C4 1_555 1_555
C5 H3 1_555 1_555
C6 C2 1_555 1_555
H4 C6 1_555 1_555
C7 C8 1_555 1_555
C8 C9 1_555 1_555
C9 H5 1_555 1_555
C10 C9 1_555 1_555
H6 C10 1_555 1_555
C11 H7 1_555 1_555
C12 C8 1_555 1_555
H8 C12 1_555 1_555
C13 C14 1_555 1_555
C14 H9 1_555 1_555
H10 C14 1_555 1_555
H11 C14 1_555 1_555
C15 C16 1_555 1_555
C16 H12 1_555 1_555
H13 C16 1_555 1_555
H14 C16 1_555 1_555
K1 N1 1_555 1_555
N1 C4 1_555 1_555
N2 C10 1_555 1_555
O1 C1 1_555 1_555
O2 C1 1_555 1_555
O3 C7 1_555 1_555
O4 C7 1_555 1_555
O5 C13 1_555 1_555
O6 C13 1_555 1_555
O7 C15 1_555 1_555
O8 C15 1_555 1_555
Tb1 O1 1_555 1_555
K1B O1 1_555 1_555
K1A O2 1_555 1_555
K1C O4 1_555 1_555
O1B K1 1_555 1_555
O2A K1 1_555 1_555
O3B Tb1 1_555 1_555
O4C K1 1_555 1_555
O4B Tb1 1_555 1_555
O5A Tb1 1_555 1_555
O6A K1 1_555 1_555
O6C Tb1 1_555 1_555
O7B Tb1 1_555 1_555
Tb1B O3 1_555 1_555
Tb1A O5 1_555 1_555
Tb1C O6 1_555 1_555
Tb1B_2 O7 1_555 1_555
C5 C6 1_555 1_555
C5 N1 1_555 1_555
C11 C12 1_555 1_555
C11 N2 1_555 1_555
K1 N2 1_555 1_555
K1 O5 1_555 1_555
O2 Tb1 1_555 1_555
O4 Tb1B 1_555 1_555
O6 K1A 1_555 1_555
O7 Tb1 1_555 1_555
O8 Tb1 1_555 1_555
K1B O6C 1_555 1_555
K1A O4B 1_555 1_555
K1A O5A 1_555 1_555
O2A Tb1A 1_555 1_555
O4C Tb1A 1_555 1_555
O7B Tb1B_2 1_555 1_555

#END
