
#######################################################################
#
#                 Cambridge Crystallographic Data Centre
#                                CCDC 
#
#######################################################################
#
# If this CIF has been generated from an entry in the Cambridge 
# Structural Database, then it will include bibliographic, chemical, 
# crystal, experimental, refinement or atomic coordinate data resulting 
# from the CCDC's data processing and validation procedures.
#
#######################################################################

data_AVOSUA
_symmetry_cell_setting           monoclinic
_symmetry_space_group_name_H-M   'P 21/c'
_symmetry_Int_Tables_number      14
_space_group_name_Hall           '-P 2ybc'
loop_
_symmetry_equiv_pos_site_id
_symmetry_equiv_pos_as_xyz
1 x,y,z
2 -x,1/2+y,1/2-z
3 -x,-y,-z
4 x,1/2-y,1/2+z
_cell_length_a                   19.863(3)
_cell_length_b                   23.410(4)
_cell_length_c                   9.2250(12)
_cell_angle_alpha                90
_cell_angle_beta                 98.163(7)
_cell_angle_gamma                90
_cell_volume                     4246.1
loop_
_atom_site_label
_atom_site_type_symbol
_atom_site_fract_x
_atom_site_fract_y
_atom_site_fract_z
Ag1 Ag 0.55400(2) 0.173268(17) 0.66040(4)
Ag2 Ag 0.121732(19) 0.480138(17) 0.96621(4)
O1 O 0.49428(15) 0.16028(13) 0.8718(3)
O2 O 0.52279(15) 0.26585(13) 0.7994(3)
O3 O 0.29511(15) 0.47793(13) 0.6449(3)
O4 O 0.16554(14) 0.45591(14) 0.6125(3)
O5 O 0.05564(15) 0.16749(14) 0.7401(4)
O6 O 0.15181(14) 0.09140(13) 0.7922(3)
O7 O 0.51354(19) 0.07624(16) 0.5840(4)
O8 O 0.03610(18) 0.43254(16) 1.0582(4)
C1 C 0.3614(2) 0.2389(2) 1.0474(5)
C2 C 0.3991(2) 0.19349(19) 0.9978(5)
H1 H 0.3872 0.1553 1.0181
C3 C 0.4536(2) 0.20302(19) 0.9198(5)
C4 C 0.4707(2) 0.26026(19) 0.8870(5)
C5 C 0.4358(2) 0.30514(19) 0.9393(5)
H2 H 0.4486 0.3432 0.9197
C6 C 0.3810(2) 0.29593(18) 1.0225(4)
C7 C 0.3459(2) 0.34913(19) 1.0772(5)
H3 H 0.3232 0.3382 1.1618
H4 H 0.3810 0.3781 1.1113
C8 C 0.2932(2) 0.37576(18) 0.9582(4)
C9 C 0.3173(2) 0.41604(18) 0.8637(5)
H5 H 0.3640 0.4264 0.8797
C10 C 0.2747(2) 0.44099(19) 0.7477(5)
C11 C 0.2036(2) 0.42852(18) 0.7293(5)
C12 C 0.1794(2) 0.38890(19) 0.8238(5)
H6 H 0.1322 0.3802 0.8110
C13 C 0.2233(2) 0.36119(19) 0.9384(4)
C14 C 0.1921(2) 0.31807(18) 1.0352(5)
H7 H 0.1463 0.3319 1.0488
H8 H 0.2203 0.3177 1.1328
C15 C 0.1851(2) 0.25597(19) 0.9787(5)
C16 C 0.1244(2) 0.24103(19) 0.8872(5)
H9 H 0.0900 0.2691 0.8637
C17 C 0.1139(2) 0.18583(18) 0.8306(5)
C18 C 0.1654(2) 0.14397(18) 0.8621(5)
C19 C 0.2246(2) 0.15829(19) 0.9542(5)
H10 H 0.2591 0.1302 0.9762
C20 C 0.2351(2) 0.21370(19) 1.0164(4)
C21 C 0.3002(2) 0.22359(19) 1.1243(5)
H11 H 0.2923 0.2549 1.1921
H12 H 0.3109 0.1886 1.1833
C22 C 0.4904(3) 0.1041(2) 0.9383(5)
H13 H 0.4962 0.1080 1.0451
H14 H 0.5265 0.0796 0.9103
H15 H 0.4460 0.0869 0.9041
C23 C 0.5626(3) 0.3181(2) 0.8135(5)
C24 C 0.6153(2) 0.3186(2) 0.9505(5)
C25 C 0.6311(3) 0.2711(3) 1.0350(6)
C26 C 0.3671(2) 0.4879(2) 0.6530(6)
H16 H 0.3832 0.5098 0.7417
H17 H 0.3759 0.5095 0.5667
H18 H 0.3910 0.4512 0.6560
C27 C 0.0928(3) 0.4546(2) 0.6062(6)
C28 C 0.0679(3) 0.4985(2) 0.7056(6)
C29 C 0.1029(3) 0.5448(3) 0.7606(6)
C30 C 0.0029(3) 0.2102(3) 0.7003(8)
H19 H -0.0155 0.2225 0.7882
H20 H -0.0336 0.1936 0.6303
H21 H 0.0224 0.2431 0.6554
C31 C 0.2103(2) 0.0543(2) 0.7852(6)
C32 C 0.1863(2) -0.0004(2) 0.7070(5)
C33 C 0.2175(3) -0.0259(2) 0.6045(6)
H28 H 0.646(2) 0.355(2) 0.961(5)
H29 H 0.021(2) 0.4944(19) 0.711(5)
H30 H 0.153(3) -0.018(2) 0.749(6)
H31 H 0.531(2) 0.351(2) 0.800(5)
H32 H 0.611(3) 0.232(2) 1.016(6)
H33 H 0.075(2) 0.416(2) 0.622(5)
H34 H 0.0830(19) 0.5733(17) 0.826(4)
H35 H 0.228(2) 0.044(2) 0.877(6)
H36 H 0.207(2) -0.064(2) 0.576(4)
H37 H 0.5869(19) 0.3181(17) 0.733(5)
H38 H 0.667(3) 0.273(2) 1.098(6)
H39 H 0.075(3) 0.460(2) 0.518(6)
H40 H 0.147(3) 0.548(2) 0.744(6)
H41 H 0.2469(19) 0.0762(17) 0.727(4)
H42 H 0.253(3) -0.011(2) 0.564(6)
H43 H 0.499(3) 0.050(2) 0.640(6)
H44 H 0.052(2) 0.412(2) 1.134(5)
H45 H 0.548(2) 0.059(2) 0.534(6)
H46 H 0.007(3) 0.412(3) 0.992(6)
Ag1C Ag 0.55400(2) 0.326732(17) 1.16040(4)
Ag2C Ag 0.121732(19) 0.019862(17) 0.46621(4)
C24C C 0.6153(2) 0.1814(2) 0.4505(5)
C25C C 0.6311(3) 0.2289(3) 0.5350(6)
C32C C 0.1863(2) 0.5004(2) 1.2070(5)
C33C C 0.2175(3) 0.5259(2) 1.1045(6)
H28C H 0.646(2) 0.145(2) 0.461(5)
H30C H 0.153(3) 0.518(2) 1.249(6)
H32C H 0.611(3) 0.268(2) 0.516(6)
H36C H 0.207(2) 0.564(2) 1.076(4)
H38C H 0.667(3) 0.227(2) 0.598(6)
H42C H 0.253(3) 0.511(2) 1.064(6)
F1 F 0.36707(15) 0.47464(12) 0.2532(4)
F2 F 0.47049(14) 0.51886(13) 0.2541(3)
F3 F 0.38412(15) 0.53654(14) 0.0680(3)
F4 F 0.37735(14) 0.57034(13) 0.2992(3)
B1 B 0.3985(3) 0.5251(2) 0.2213(6)
F5 F 0.07288(17) 0.59054(16) 0.3658(4)
F6 F 0.07819(15) 0.60947(14) 0.1240(4)
F7 F 0.10242(16) 0.68079(15) 0.2950(4)
F8 F -0.00702(14) 0.64827(15) 0.2331(4)
B2 B 0.0610(3) 0.6329(3) 0.2595(8)
O9 O 0.7475(2) 0.1790(2) 0.2992(5)
O10 O 0.7701(3) 0.2691(2) 0.3304(5)
N1 N 0.7770(2) 0.2191(2) 0.3681(5)
C34 C 0.8213(3) 0.2061(3) 0.5072(6)
H22 H 0.8425 0.2415 0.5483
H23 H 0.8567 0.1791 0.4886
H24 H 0.7939 0.1894 0.5768
O11 O 0.7254(2) 0.1106(2) 0.7349(5)
O12 O 0.6508(2) 0.13708(18) 0.8724(5)
N2 N 0.7070(2) 0.1184(2) 0.8603(6)
C35 C 0.7563(3) 0.1030(2) 0.9932(6)
H25 H 0.7914 0.1326 1.0110
H26 H 0.7777 0.0663 0.9770
H27 H 0.7321 0.1001 1.0783
loop_
_geom_bond_atom_site_label_1
_geom_bond_atom_site_label_2
_geom_bond_site_symmetry_1
_geom_bond_site_symmetry_2
Ag1 O1 1_555 1_555
Ag2 O8 1_555 1_555
F1 B1 1_555 1_555
F2 B1 1_555 1_555
F3 B1 1_555 1_555
F4 B1 1_555 1_555
F5 B2 1_555 1_555
F6 B2 1_555 1_555
F7 B2 1_555 1_555
F8 B2 1_555 1_555
O1 C3 1_555 1_555
O2 C4 1_555 1_555
O3 C10 1_555 1_555
O4 C11 1_555 1_555
O5 C17 1_555 1_555
O6 C18 1_555 1_555
O7 Ag1 1_555 1_555
O8 H44 1_555 1_555
O9 N1 1_555 1_555
O10 N1 1_555 1_555
O11 N2 1_555 1_555
O12 N2 1_555 1_555
N1 C34 1_555 1_555
N2 C35 1_555 1_555
C1 C2 1_555 1_555
C2 H1 1_555 1_555
C3 C2 1_555 1_555
C4 C3 1_555 1_555
C5 C4 1_555 1_555
H2 C5 1_555 1_555
C6 C1 1_555 1_555
C7 C6 1_555 1_555
H3 C7 1_555 1_555
H4 C7 1_555 1_555
C8 C7 1_555 1_555
C9 C8 1_555 1_555
H5 C9 1_555 1_555
C10 C9 1_555 1_555
C11 C10 1_555 1_555
C12 C11 1_555 1_555
H6 C12 1_555 1_555
C13 C8 1_555 1_555
C14 C13 1_555 1_555
H7 C14 1_555 1_555
H8 C14 1_555 1_555
C15 C14 1_555 1_555
C16 C15 1_555 1_555
H9 C16 1_555 1_555
C17 C16 1_555 1_555
C18 C17 1_555 1_555
C19 C18 1_555 1_555
H10 C19 1_555 1_555
C20 C15 1_555 1_555
C21 C1 1_555 1_555
H11 C21 1_555 1_555
H12 C21 1_555 1_555
C22 O1 1_555 1_555
H13 C22 1_555 1_555
H14 C22 1_555 1_555
H15 C22 1_555 1_555
C23 O2 1_555 1_555
C24 C23 1_555 1_555
C25 C24 1_555 1_555
C26 O3 1_555 1_555
H16 C26 1_555 1_555
H17 C26 1_555 1_555
H18 C26 1_555 1_555
C27 O4 1_555 1_555
C28 Ag2 1_555 1_555
C29 Ag2 1_555 1_555
C30 O5 1_555 1_555
H19 C30 1_555 1_555
H20 C30 1_555 1_555
H21 C30 1_555 1_555
C31 O6 1_555 1_555
C32 C31 1_555 1_555
C33 C32 1_555 1_555
C34 H22 1_555 1_555
H23 C34 1_555 1_555
H24 C34 1_555 1_555
C35 H25 1_555 1_555
H26 C35 1_555 1_555
H27 C35 1_555 1_555
H28 C24 1_555 1_555
H29 C28 1_555 1_555
H30 C32 1_555 1_555
H31 C23 1_555 1_555
H32 C25 1_555 1_555
H33 C27 1_555 1_555
H34 C29 1_555 1_555
H35 C31 1_555 1_555
H36 C33 1_555 1_555
H37 C23 1_555 1_555
H38 C25 1_555 1_555
H39 C27 1_555 1_555
H40 C29 1_555 1_555
H41 C31 1_555 1_555
H42 C33 1_555 1_555
H43 O7 1_555 1_555
H45 O7 1_555 1_555
H46 O8 1_555 1_555
Ag1C C24 1_555 1_555
Ag2C C32 1_555 1_555
C24C Ag1 1_555 1_555
C25C Ag1 1_555 1_555
C32C Ag2 1_555 1_555
C33C Ag2 1_555 1_555
H28C C24C 1_555 1_555
H30C C32C 1_555 1_555
H32C C25C 1_555 1_555
H36C C33C 1_555 1_555
H38C C25C 1_555 1_555
H42C C33C 1_555 1_555
C5 C6 1_555 1_555
C12 C13 1_555 1_555
C19 C20 1_555 1_555
C20 C21 1_555 1_555
C25 Ag1C 1_555 1_555
C27 C28 1_555 1_555
C28 C29 1_555 1_555
C33 Ag2C 1_555 1_555
C24C C25C 1_555 1_555
C32C C33C 1_555 1_555

#END
