
#######################################################################
#
#                 Cambridge Crystallographic Data Centre
#                                CCDC 
#
#######################################################################
#
# If this CIF has been generated from an entry in the Cambridge 
# Structural Database, then it will include bibliographic, chemical, 
# crystal, experimental, refinement or atomic coordinate data resulting 
# from the CCDC's data processing and validation procedures.
#
#######################################################################

data_AVOXAL
_symmetry_cell_setting           monoclinic
_symmetry_space_group_name_H-M   'P 21/c'
_symmetry_Int_Tables_number      14
_space_group_name_Hall           '-P 2ybc'
loop_
_symmetry_equiv_pos_site_id
_symmetry_equiv_pos_as_xyz
1 x,y,z
2 -x,1/2+y,1/2-z
3 -x,-y,-z
4 x,1/2-y,1/2+z
_cell_length_a                   8.685(3)
_cell_length_b                   15.198(6)
_cell_length_c                   15.769(6)
_cell_angle_alpha                90
_cell_angle_beta                 93.87(1)
_cell_angle_gamma                90
_cell_volume                     2076.68
loop_
_atom_site_label
_atom_site_type_symbol
_atom_site_fract_x
_atom_site_fract_y
_atom_site_fract_z
Cu1 Cu 0.5000 0.0000 0.0000
Cu2 Cu 0.24314(6) 0.24663(4) 0.10067(4)
Cu3 Cu 0.5000 0.5000 0.0000
Cl1 Cl 0.35242(14) 0.38369(7) 0.11818(8)
Cl2 Cl 0.08501(16) 0.25204(9) 0.20737(9)
Cl3 Cl 0.46073(15) 0.17366(8) 0.07594(10)
Cl4 Cl 0.08413(15) 0.20055(8) -0.00556(9)
N1 N 0.6948(4) -0.0013(2) 0.0741(3)
N2 N 0.7154(4) -0.0585(2) 0.1390(3)
N3 N 0.4598(4) -0.1049(2) 0.1558(3)
N4 N 0.5742(5) 0.4048(2) -0.0763(3)
N5 N 0.3887(4) -0.0547(2) 0.0941(3)
N6 N 0.7027(5) 0.4988(3) 0.0647(3)
C1 C 0.8894(5) 0.0434(3) 0.1615(3)
H1 H 0.9721 0.0764 0.1847
C2 C 0.7997(6) 0.0604(3) 0.0886(4)
H2 H 0.8113 0.1091 0.0539
N7 N 0.6876(5) 0.3478(2) -0.0517(3)
C3 C 0.8309(5) -0.0325(3) 0.1926(3)
H3 H 0.8659 -0.0610 0.2424
C4 C 0.3686(6) -0.1180(3) 0.2199(3)
H4 H 0.3940 -0.1506 0.2688
C5 C 0.2510(6) -0.0359(3) 0.1245(4)
H5 H 0.1767 -0.0002 0.0968
N8 N 0.7981(5) 0.4268(3) 0.0672(3)
C6 C 0.5617(6) 0.3960(3) -0.1609(4)
H6 H 0.4912 0.4269 -0.1965
C7 C 0.7923(7) 0.5649(3) 0.0927(3)
H7 H 0.7591 0.6227 0.0979
C8 C 0.7420(6) 0.3055(3) -0.1197(4)
H8 H 0.8191 0.2630 -0.1175
C9 C 0.2338(6) -0.0759(4) 0.2014(4)
H9 H 0.1480 -0.0744 0.2336
C10 C 0.9410(7) 0.5364(4) 0.1132(3)
H10 H 1.0240 0.5700 0.1349
C11 C 0.9411(6) 0.4484(4) 0.0948(3)
H11 H 1.0254 0.4107 0.1006
C12 C 0.6665(7) 0.3351(3) -0.1894(4)
H12 H 0.6802 0.3189 -0.2453
C13 C 0.6154(5) -0.1333(2) 0.1451(3)
H13 H 0.6516 -0.1695 0.1930
H14 H 0.6177 -0.1685 0.0939
C14 C 0.7371(5) 0.3426(3) 0.0372(3)
H15 H 0.8161 0.2978 0.0457
H16 H 0.6506 0.3261 0.0695
Cu2B Cu 0.75686(6) -0.24663(4) -0.10067(4)
Cu3_2 Cu 0.5000 -0.5000 0.0000
Cl1B Cl 0.64758(14) -0.38369(7) -0.11818(8)
Cl1B_2 Cl 0.64758(14) 0.61631(7) -0.11818(8)
Cl2B Cl 0.91499(16) -0.25204(9) -0.20737(9)
Cl3B Cl 0.53927(15) -0.17366(8) -0.07594(10)
Cl4B Cl 0.91587(15) -0.20055(8) 0.00556(9)
N1B N 0.3052(4) 0.0013(2) -0.0741(3)
N2B N 0.2846(4) 0.0585(2) -0.1390(3)
N3B N 0.5402(4) 0.1049(2) -0.1558(3)
N4B N 0.4258(5) 0.5952(2) 0.0763(3)
N5B N 0.6113(4) 0.0547(2) -0.0941(3)
N6B N 0.2973(5) 0.5012(3) -0.0647(3)
C1B C 0.1106(5) -0.0434(3) -0.1615(3)
H1B H 0.0279 -0.0764 -0.1847
C2B C 0.2003(6) -0.0604(3) -0.0886(4)
H2B H 0.1887 -0.1091 -0.0539
N7B N 0.3124(5) 0.6522(2) 0.0517(3)
C3B C 0.1691(5) 0.0325(3) -0.1926(3)
H3B H 0.1341 0.0610 -0.2424
C4B C 0.6314(6) 0.1180(3) -0.2199(3)
H4B H 0.6060 0.1506 -0.2688
C5B C 0.7490(6) 0.0359(3) -0.1245(4)
H5B H 0.8233 0.0002 -0.0968
N8B N 0.2019(5) 0.5732(3) -0.0672(3)
C6B C 0.4383(6) 0.6040(3) 0.1609(4)
H6B H 0.5088 0.5731 0.1965
C7B C 0.2077(7) 0.4351(3) -0.0927(3)
H7B H 0.2409 0.3773 -0.0979
C8B C 0.2580(6) 0.6945(3) 0.1197(4)
H8B H 0.1809 0.7370 0.1175
C9B C 0.7662(6) 0.0759(4) -0.2014(4)
H9B H 0.8520 0.0744 -0.2336
C10B C 0.0590(7) 0.4636(4) -0.1132(3)
H10B H -0.0240 0.4300 -0.1349
C11B C 0.0589(6) 0.5516(4) -0.0948(3)
H11B H -0.0254 0.5893 -0.1006
C12B C 0.3335(7) 0.6649(3) 0.1894(4)
H12B H 0.3198 0.6811 0.2453
C13B C 0.3846(5) 0.1333(2) -0.1451(3)
H13B H 0.3484 0.1695 -0.1930
H14B H 0.3823 0.1685 -0.0939
C14B C 0.2629(5) 0.6574(3) -0.0372(3)
H15B H 0.1839 0.7022 -0.0457
H16B H 0.3494 0.6739 -0.0695
loop_
_geom_bond_atom_site_label_1
_geom_bond_atom_site_label_2
_geom_bond_site_symmetry_1
_geom_bond_site_symmetry_2
Cu1 Cl3 1_555 1_555
Cu2 Cl1 1_555 1_555
Cu3 Cl1 1_555 1_555
Cl2 Cu2 1_555 1_555
Cl3 Cu2 1_555 1_555
Cl4 Cu2 1_555 1_555
N1 Cu1 1_555 1_555
N2 N1 1_555 1_555
N3 N5 1_555 1_555
N4 Cu3 1_555 1_555
N5 Cu1 1_555 1_555
N6 Cu3 1_555 1_555
C1 H1 1_555 1_555
C2 N1 1_555 1_555
H2 C2 1_555 1_555
N7 N4 1_555 1_555
C3 N2 1_555 1_555
H3 C3 1_555 1_555
C4 N3 1_555 1_555
H4 C4 1_555 1_555
C5 N5 1_555 1_555
H5 C5 1_555 1_555
N8 N6 1_555 1_555
C6 N4 1_555 1_555
H6 C6 1_555 1_555
C7 N6 1_555 1_555
H7 C7 1_555 1_555
C8 N7 1_555 1_555
H8 C8 1_555 1_555
C9 C4 1_555 1_555
H9 C9 1_555 1_555
C10 C7 1_555 1_555
H10 C10 1_555 1_555
C11 N8 1_555 1_555
H11 C11 1_555 1_555
C12 C6 1_555 1_555
H12 C12 1_555 1_555
C13 N2 1_555 1_555
H13 C13 1_555 1_555
H14 C13 1_555 1_555
C14 N7 1_555 1_555
H15 C14 1_555 1_555
H16 C14 1_555 1_555
Cu2B Cl1B 1_555 1_555
Cu3_2 Cl1B 1_555 1_555
Cl1B_2 Cu3 1_555 1_555
Cl2B Cu2B 1_555 1_555
Cl3B Cu1 1_555 1_555
Cl4B Cu2B 1_555 1_555
N1B Cu1 1_555 1_555
N2B N1B 1_555 1_555
N3B N5B 1_555 1_555
N4B Cu3 1_555 1_555
N5B Cu1 1_555 1_555
N6B Cu3 1_555 1_555
C1B H1B 1_555 1_555
C2B N1B 1_555 1_555
H2B C2B 1_555 1_555
N7B N4B 1_555 1_555
C3B N2B 1_555 1_555
H3B C3B 1_555 1_555
C4B N3B 1_555 1_555
H4B C4B 1_555 1_555
C5B N5B 1_555 1_555
H5B C5B 1_555 1_555
N8B N6B 1_555 1_555
C6B N4B 1_555 1_555
H6B C6B 1_555 1_555
C7B N6B 1_555 1_555
H7B C7B 1_555 1_555
C8B N7B 1_555 1_555
H8B C8B 1_555 1_555
C9B C4B 1_555 1_555
H9B C9B 1_555 1_555
C10B C7B 1_555 1_555
H10B C10B 1_555 1_555
C11B N8B 1_555 1_555
H11B C11B 1_555 1_555
C12B C6B 1_555 1_555
H12B C12B 1_555 1_555
C13B N2B 1_555 1_555
H13B C13B 1_555 1_555
H14B C13B 1_555 1_555
C14B N7B 1_555 1_555
H15B C14B 1_555 1_555
H16B C14B 1_555 1_555
N3 C13 1_555 1_555
C1 C2 1_555 1_555
C1 C3 1_555 1_555
C5 C9 1_555 1_555
N8 C14 1_555 1_555
C8 C12 1_555 1_555
C10 C11 1_555 1_555
Cu2B Cl3B 1_555 1_555
N3B C13B 1_555 1_555
C1B C2B 1_555 1_555
C1B C3B 1_555 1_555
C5B C9B 1_555 1_555
N8B C14B 1_555 1_555
C8B C12B 1_555 1_555
C10B C11B 1_555 1_555

#END
