
#######################################################################
#
#                 Cambridge Crystallographic Data Centre
#                                CCDC 
#
#######################################################################
#
# If this CIF has been generated from an entry in the Cambridge 
# Structural Database, then it will include bibliographic, chemical, 
# crystal, experimental, refinement or atomic coordinate data resulting 
# from the CCDC's data processing and validation procedures.
#
#######################################################################

data_AVUFED
_symmetry_cell_setting           monoclinic
_symmetry_space_group_name_H-M   'P 21/n'
_symmetry_Int_Tables_number      14
_space_group_name_Hall           '-P 2yn'
loop_
_symmetry_equiv_pos_site_id
_symmetry_equiv_pos_as_xyz
1 x,y,z
2 1/2-x,1/2+y,1/2-z
3 -x,-y,-z
4 1/2+x,1/2-y,1/2+z
_cell_length_a                   11.432(2)
_cell_length_b                   7.1003(9)
_cell_length_c                   13.110(2)
_cell_angle_alpha                90
_cell_angle_beta                 95.88(1)
_cell_angle_gamma                90
_cell_volume                     1058.55
loop_
_atom_site_label
_atom_site_type_symbol
_atom_site_fract_x
_atom_site_fract_y
_atom_site_fract_z
Na1 Na 0.91826(5) 0.47360(10) 0.10194(5)
S1 S 0.76610(3) 0.88068(4) -0.01640(2)
O1 O 0.82945(8) 0.70462(12) -0.01100(7)
O2 O 0.79985(8) 1.00544(12) 0.06986(7)
O3 O 0.76901(8) 0.97790(12) -0.11407(6)
C1 C 0.61712(10) 0.81786(16) -0.00768(9)
C2 C 0.57530(10) 0.80908(16) 0.08772(9)
H1 H 0.6222 0.8489 0.1459
C3 C 0.46263(10) 0.74031(16) 0.09586(9)
C4 C 0.39252(11) 0.68306(16) 0.00869(9)
H2 H 0.3179 0.6345 0.0145
C5 C 0.43342(11) 0.69800(16) -0.08725(9)
C6 C 0.54668(10) 0.76514(16) -0.09580(9)
H3 H 0.5747 0.7745 -0.1597
C7 C 0.42212(11) 0.72911(18) 0.20033(10)
O4 O 0.47039(9) 0.80942(15) 0.27368(7)
O5 O 0.32920(8) 0.61833(13) 0.20475(7)
H4 H 0.3105(14) 0.608(2) 0.2654(13)
C8 C 0.35615(11) 0.63406(17) -0.17941(9)
O6 O 0.25753(8) 0.57548(14) -0.17706(7)
O7 O 0.40908(9) 0.64589(16) -0.26446(7)
H5 H 0.3723(18) 0.601(3) -0.3124(15)
O8 O 0.91029(10) 0.34753(16) -0.07476(10)
H6 H 0.8917(18) 0.238(3) -0.0878(16)
H7 H 0.8452(19) 0.400(3) -0.1137(15)
Na1A Na 0.58174(5) 0.97360(10) 0.39806(5)
Na1B Na 0.08174(5) 0.52640(10) -0.10194(5)
Na1B_2 Na 1.08174(5) 0.52640(10) -0.10194(5)
O4A O 1.02961(9) 0.30942(15) 0.22632(7)
O6B O 0.74247(8) 0.42452(14) 0.17706(7)
O8B O 1.08971(10) 0.65247(16) 0.07476(10)
H6B H 1.1083(18) 0.762(3) 0.0878(16)
H7B H 1.1548(19) 0.600(3) 0.1137(15)
loop_
_geom_bond_atom_site_label_1
_geom_bond_atom_site_label_2
_geom_bond_site_symmetry_1
_geom_bond_site_symmetry_2
Na1 O1 1_555 1_555
S1 O1 1_555 1_555
O2 S1 1_555 1_555
O3 S1 1_555 1_555
C1 S1 1_555 1_555
C2 C1 1_555 1_555
H1 C2 1_555 1_555
C3 C2 1_555 1_555
C4 C3 1_555 1_555
H2 C4 1_555 1_555
C5 C4 1_555 1_555
C6 C1 1_555 1_555
H3 C6 1_555 1_555
C7 C3 1_555 1_555
O4 C7 1_555 1_555
O5 C7 1_555 1_555
H4 O5 1_555 1_555
C8 C5 1_555 1_555
O6 C8 1_555 1_555
O7 C8 1_555 1_555
H5 O7 1_555 1_555
O8 Na1 1_555 1_555
H6 O8 1_555 1_555
H7 O8 1_555 1_555
Na1A O4 1_555 1_555
Na1B O6 1_555 1_555
Na1B_2 O8 1_555 1_555
O4A Na1 1_555 1_555
O6B Na1 1_555 1_555
O8B Na1 1_555 1_555
H6B O8B 1_555 1_555
H7B O8B 1_555 1_555
C5 C6 1_555 1_555
Na1B_2 O8B 1_555 1_555

#END
