
#######################################################################
#
#                 Cambridge Crystallographic Data Centre
#                                CCDC 
#
#######################################################################
#
# If this CIF has been generated from an entry in the Cambridge 
# Structural Database, then it will include bibliographic, chemical, 
# crystal, experimental, refinement or atomic coordinate data resulting 
# from the CCDC's data processing and validation procedures.
#
#######################################################################

data_AVUHOP
_symmetry_cell_setting           monoclinic
_symmetry_space_group_name_H-M   'P 21/c'
_symmetry_Int_Tables_number      14
_space_group_name_Hall           '-P 2ybc'
loop_
_symmetry_equiv_pos_site_id
_symmetry_equiv_pos_as_xyz
1 x,y,z
2 -x,1/2+y,1/2-z
3 -x,-y,-z
4 x,1/2-y,1/2+z
_cell_length_a                   9.5435(19)
_cell_length_b                   14.915(3)
_cell_length_c                   25.142(5)
_cell_angle_alpha                90
_cell_angle_beta                 97.06(3)
_cell_angle_gamma                90
_cell_volume                     3551.61
loop_
_atom_site_label
_atom_site_type_symbol
_atom_site_fract_x
_atom_site_fract_y
_atom_site_fract_z
H1 H 1.092(6) 0.6224(18) 0.556(2)
H2 H 0.924(7) 0.652(2) 0.080(2)
Co1 Co 0.99691(6) 0.67556(3) 0.17273(2)
Co2 Co 1.0000 0.5000 0.5000
N1 N 0.7917(4) 0.6231(2) 0.18178(14)
N2 N 0.6381(6) 0.5392(4) 0.21935(18)
N3 N 0.5946(4) 0.5491(3) 0.16686(15)
N4 N 0.4138(4) -0.2214(3) 0.17314(16)
N5 N 0.3963(4) -0.2583(3) 0.12352(17)
N6 N 0.2005(4) -0.2760(2) 0.16333(13)
N7 N 0.8000(4) 0.5451(2) 0.52053(14)
N8 N 0.6269(5) 0.5979(4) 0.56350(18)
N9 N 0.5953(4) 0.6122(2) 0.51082(14)
C1 C 1.0095(4) 0.7213(2) 0.36362(15)
H3 H 1.0130 0.6598 0.3578
C2 C 1.0027(4) 0.7794(2) 0.32014(14)
C3 C 0.9970(4) 0.8703(2) 0.32904(14)
H4 H 0.9901 0.9094 0.3000
C4 C 1.0013(4) 0.9048(2) 0.38082(15)
C5 C 1.0095(4) 0.8457(2) 0.42393(15)
H5 H 1.0139 0.8680 0.4586
C6 C 1.0110(4) 0.7533(2) 0.41539(14)
C7 C 1.0187(4) 0.6886(2) 0.46206(15)
C8 C 1.0009(4) 1.0042(2) 0.38856(16)
C9 C 1.0040(4) 0.7429(3) 0.26444(15)
C10 C 0.7562(7) 0.5852(5) 0.2267(2)
H6 H 0.8101 0.5910 0.2600
C11 C 0.6876(5) 0.5988(3) 0.14550(18)
H7 H 0.6803 0.6145 0.1095
C12 C 0.4688(5) 0.5019(3) 0.1423(2)
H8 H 0.4535 0.5157 0.1043
H9 H 0.3872 0.5227 0.1583
C13 C 0.4826(5) 0.4015(4) 0.14952(18)
C14 C 0.6079(5) 0.3566(4) 0.1459(2)
H10 H 0.6872 0.3887 0.1390
C15 C 0.6168(5) 0.2651(4) 0.1522(2)
H11 H 0.7021 0.2364 0.1495
C16 C 0.5005(5) 0.2144(3) 0.16261(18)
C17 C 0.3757(5) 0.2604(4) 0.1662(2)
H12 H 0.2959 0.2287 0.1731
C18 C 0.3676(5) 0.3525(4) 0.1598(2)
H13 H 0.2826 0.3816 0.1625
C19 C 0.5103(5) 0.1154(3) 0.16992(17)
C20 C 0.6329(5) 0.0742(4) 0.1938(2)
H14 H 0.7115 0.1092 0.2052
C21 C 0.6406(5) -0.0166(4) 0.2011(2)
H15 H 0.7240 -0.0417 0.2176
C22 C 0.5269(5) -0.0722(3) 0.18429(18)
C23 C 0.4045(5) -0.0314(4) 0.16032(18)
H16 H 0.3266 -0.0667 0.1484
C24 C 0.3960(5) 0.0598(4) 0.15387(17)
H17 H 0.3116 0.0850 0.1384
C25 C 0.5417(5) -0.1716(4) 0.1921(2)
H18 H 0.6182 -0.1929 0.1733
H19 H 0.5671 -0.1839 0.2300
C26 C 0.2966(5) -0.2326(3) 0.19557(18)
H20 H 0.2838 -0.2124 0.2296
C27 C 0.2673(5) -0.2898(3) 0.11994(18)
H21 H 0.2250 -0.3195 0.0896
C28 C 0.7004(5) 0.5798(3) 0.48647(18)
H22 H 0.7028 0.5817 0.4496
C29 C 0.7510(6) 0.5577(4) 0.56757(19)
H23 H 0.7998 0.5398 0.6001
C30 C 0.4688(5) 0.6605(3) 0.4884(2)
H24 H 0.3905 0.6420 0.5071
H25 H 0.4462 0.6438 0.4510
C31 C 0.4838(5) 0.7615(3) 0.49219(17)
C32 C 0.6101(5) 0.8055(3) 0.4946(2)
H26 H 0.6928 0.7727 0.4941
C33 C 0.6170(5) 0.8985(3) 0.4978(2)
H27 H 0.7045 0.9266 0.4998
C34 C 0.4965(4) 0.9504(3) 0.49794(16)
C35 C 0.3685(5) 0.9049(3) 0.49467(19)
H28 H 0.2850 0.9373 0.4940
C36 C 0.3633(5) 0.8123(3) 0.49239(19)
H29 H 0.2764 0.7836 0.4910
O1 O 1.0427(3) 0.66340(17) 0.25847(11)
O2 O 0.9663(3) 0.79250(17) 0.22436(10)
O3 O 1.0067(3) 0.60703(17) 0.44947(10)
O4 O 1.0373(3) 0.71917(17) 0.50840(10)
O5 O 0.9473(3) 1.04987(17) 0.34879(11)
O6 O 1.0576(4) 1.03564(19) 0.43206(12)
O7 O 1.1100(3) 0.5698(2) 0.56779(12)
H30 H 1.0711 0.5598 0.5945
O8 O 0.9143(3) 0.7045(2) 0.09274(12)
H31 H 0.9710 0.7352 0.0788
H1B H 0.908(6) 0.3776(18) 0.444(2)
H2_2 H 1.924(7) 1.652(2) 0.080(2)
Co1_2 Co 1.99691(6) 1.67556(3) 0.17273(2)
Co1_3 Co -0.00309(6) -0.32444(3) 0.17273(2)
Co1A Co 1.00309(6) 1.17556(3) 0.32727(2)
Co1A_2 Co 2.00309(6) 2.17556(3) 0.32727(2)
Co2_2 Co 0.0000 1.5000 0.5000
Co2_3 Co 2.0000 1.5000 0.5000
N1_2 N 1.7917(4) 1.6231(2) 0.18178(14)
N2_2 N 1.6381(6) 1.5392(4) 0.21935(18)
N3_2 N 1.5946(4) 1.5491(3) 0.16686(15)
N4_2 N 1.4138(4) 0.7786(3) 0.17314(16)
N5_2 N 1.3963(4) 0.7417(3) 0.12352(17)
N6_2 N 1.2005(4) 0.7240(2) 0.16333(13)
N6_3 N 2.2005(4) 1.7240(2) 0.16333(13)
N7B N 0.2000(4) 1.4549(2) 0.47947(14)
N7B_2 N 1.2000(4) 0.4549(2) 0.47947(14)
N8B N 0.3731(5) 1.4021(4) 0.43650(18)
N9B N 0.4047(4) 1.3878(2) 0.48918(14)
C1_2 C 2.0095(4) 1.7213(2) 0.36362(15)
H3_2 H 2.0130 1.6598 0.3578
C2_2 C 2.0027(4) 1.7794(2) 0.32014(14)
C3_2 C 1.9970(4) 1.8703(2) 0.32904(14)
H4_2 H 1.9901 1.9094 0.3000
C4_2 C 2.0013(4) 1.9048(2) 0.38082(15)
C5_2 C 2.0095(4) 1.8457(2) 0.42393(15)
H5_2 H 2.0139 1.8680 0.4586
C6_2 C 2.0110(4) 1.7533(2) 0.41539(14)
C7_2 C 2.0187(4) 1.6886(2) 0.46206(15)
C8_2 C 2.0009(4) 2.0042(2) 0.38856(16)
C9_2 C 2.0040(4) 1.7429(3) 0.26444(15)
C10_2 C 1.7562(7) 1.5852(5) 0.2267(2)
H6_2 H 1.8101 1.5910 0.2600
C11_2 C 1.6876(5) 1.5988(3) 0.14550(18)
H7_2 H 1.6803 1.6145 0.1095
C12_2 C 1.4688(5) 1.5019(3) 0.1423(2)
H8_2 H 1.4535 1.5157 0.1043
H9_2 H 1.3872 1.5227 0.1583
C13_2 C 1.4826(5) 1.4015(4) 0.14952(18)
C14_2 C 1.6079(5) 1.3566(4) 0.1459(2)
H10_2 H 1.6872 1.3887 0.1390
C15_2 C 1.6168(5) 1.2651(4) 0.1522(2)
H11_2 H 1.7021 1.2364 0.1495
C16_2 C 1.5005(5) 1.2144(3) 0.16261(18)
C17_2 C 1.3757(5) 1.2604(4) 0.1662(2)
H12_2 H 1.2959 1.2287 0.1731
C18_2 C 1.3676(5) 1.3525(4) 0.1598(2)
H13_2 H 1.2826 1.3816 0.1625
C19_2 C 1.5103(5) 1.1154(3) 0.16992(17)
C20_2 C 1.6329(5) 1.0742(4) 0.1938(2)
H14_2 H 1.7115 1.1092 0.2052
C21_2 C 1.6406(5) 0.9834(4) 0.2011(2)
H15_2 H 1.7240 0.9583 0.2176
C22_2 C 1.5269(5) 0.9278(3) 0.18429(18)
C23_2 C 1.4045(5) 0.9686(4) 0.16032(18)
H16_2 H 1.3266 0.9333 0.1484
C24_2 C 1.3960(5) 1.0598(4) 0.15387(17)
H17_2 H 1.3116 1.0850 0.1384
C25_2 C 1.5417(5) 0.8284(4) 0.1921(2)
H18_2 H 1.6182 0.8071 0.1733
H19_2 H 1.5671 0.8161 0.2300
C26_2 C 1.2966(5) 0.7674(3) 0.19557(18)
H20_2 H 1.2838 0.7876 0.2296
C27_2 C 1.2673(5) 0.7102(3) 0.11994(18)
H21_2 H 1.2250 0.6805 0.0896
C28B C 0.2996(5) 1.4202(3) 0.51353(18)
H22B H 0.2972 1.4183 0.5504
C29B C 0.2490(6) 1.4423(4) 0.43243(19)
H23B H 0.2002 1.4602 0.3999
C30B C 0.5312(5) 1.3395(3) 0.5116(2)
H24B H 0.6095 1.3580 0.4929
H25B H 0.5538 1.3562 0.5490
C31B C 0.5162(5) 1.2385(3) 0.50781(17)
C32B C 0.3899(5) 1.1945(3) 0.5054(2)
H26B H 0.3072 1.2273 0.5059
C33B C 0.3830(5) 1.1015(3) 0.5022(2)
H27B H 0.2955 1.0734 0.5002
C34B C 0.5035(4) 1.0496(3) 0.50206(16)
C35B C 0.6315(5) 1.0951(3) 0.50533(19)
H28B H 0.7150 1.0627 0.5060
C36B C 0.6367(5) 1.1877(3) 0.50761(19)
H29B H 0.7236 1.2164 0.5090
O1_2 O 2.0427(3) 1.66340(17) 0.25847(11)
O2_2 O 1.9663(3) 1.79250(17) 0.22436(10)
O3_2 O 2.0067(3) 1.60703(17) 0.44947(10)
O3B O 0.9933(3) 0.39297(17) 0.55053(10)
O4_2 O 2.0373(3) 1.71917(17) 0.50840(10)
O5_2 O 1.9473(3) 2.04987(17) 0.34879(11)
O5A O 1.0527(3) 0.54987(17) 0.15121(11)
O5A_2 O 2.0527(3) 1.54987(17) 0.15121(11)
O6_2 O 2.0576(4) 2.03564(19) 0.43206(12)
O7B O 0.8900(3) 0.4302(2) 0.43221(12)
H30B H 0.9289 0.4402 0.4055
O8_2 O 1.9143(3) 1.7045(2) 0.09274(12)
H31_2 H 1.9710 1.7352 0.0788
O9 O 0.9884(5) 0.0415(3) 0.82802(17)
H32 H 1.020(5) 0.083(3) 0.809(2)
H33 H 0.8990(12) 0.042(4) 0.821(3)
loop_
_geom_bond_atom_site_label_1
_geom_bond_atom_site_label_2
_geom_bond_site_symmetry_1
_geom_bond_site_symmetry_2
H1 O7 1_555 1_555
H2 O8 1_555 1_555
Co1 N1 1_555 1_555
Co2 N7 1_555 1_555
N1 C10 1_555 1_555
N2 N3 1_555 1_555
N3 C11 1_555 1_555
N4 N5 1_555 1_555
N5 C27 1_555 1_555
N6 C26 1_555 1_555
N7 C28 1_555 1_555
N8 N9 1_555 1_555
N9 C28 1_555 1_555
C1 H3 1_555 1_555
C2 C1 1_555 1_555
C3 C2 1_555 1_555
H4 C3 1_555 1_555
C4 C3 1_555 1_555
C5 C4 1_555 1_555
H5 C5 1_555 1_555
C6 C1 1_555 1_555
C7 C6 1_555 1_555
C8 C4 1_555 1_555
C9 C2 1_555 1_555
C10 N2 1_555 1_555
H6 C10 1_555 1_555
C11 N1 1_555 1_555
H7 C11 1_555 1_555
C12 N3 1_555 1_555
H8 C12 1_555 1_555
H9 C12 1_555 1_555
C13 C12 1_555 1_555
C14 C13 1_555 1_555
H10 C14 1_555 1_555
C15 C14 1_555 1_555
H11 C15 1_555 1_555
C16 C15 1_555 1_555
C17 C16 1_555 1_555
H12 C17 1_555 1_555
C18 C13 1_555 1_555
H13 C18 1_555 1_555
C19 C16 1_555 1_555
C20 C19 1_555 1_555
H14 C20 1_555 1_555
C21 C20 1_555 1_555
H15 C21 1_555 1_555
C22 C21 1_555 1_555
C23 C22 1_555 1_555
H16 C23 1_555 1_555
C24 C19 1_555 1_555
H17 C24 1_555 1_555
C25 N4 1_555 1_555
H18 C25 1_555 1_555
H19 C25 1_555 1_555
C26 N4 1_555 1_555
H20 C26 1_555 1_555
C27 N6 1_555 1_555
H21 C27 1_555 1_555
C28 H22 1_555 1_555
C29 N7 1_555 1_555
H23 C29 1_555 1_555
C30 N9 1_555 1_555
H24 C30 1_555 1_555
H25 C30 1_555 1_555
C31 C30 1_555 1_555
C32 C31 1_555 1_555
H26 C32 1_555 1_555
C33 C32 1_555 1_555
H27 C33 1_555 1_555
C34 C33 1_555 1_555
C35 C34 1_555 1_555
H28 C35 1_555 1_555
C36 C31 1_555 1_555
H29 C36 1_555 1_555
O1 Co1 1_555 1_555
O2 Co1 1_555 1_555
O3 Co2 1_555 1_555
O4 C7 1_555 1_555
O5 C8 1_555 1_555
O6 C8 1_555 1_555
O7 Co2 1_555 1_555
H30 O7 1_555 1_555
O8 Co1 1_555 1_555
H31 O8 1_555 1_555
O9 H32 1_555 1_555
H33 O9 1_555 1_555
H1B O7B 1_555 1_555
H2_2 O8_2 1_555 1_555
Co1_2 N1_2 1_555 1_555
Co1_3 N6 1_555 1_555
Co1A O5 1_555 1_555
Co1A_2 O5_2 1_555 1_555
Co2_2 N7B 1_555 1_555
Co2_3 O3_2 1_555 1_555
N1_2 C10_2 1_555 1_555
N2_2 N3_2 1_555 1_555
N3_2 C11_2 1_555 1_555
N4_2 N5_2 1_555 1_555
N5_2 C27_2 1_555 1_555
N6_2 Co1 1_555 1_555
N6_3 Co1_2 1_555 1_555
N7B C28B 1_555 1_555
N7B_2 Co2 1_555 1_555
N8B N9B 1_555 1_555
N9B C28B 1_555 1_555
C1_2 H3_2 1_555 1_555
C2_2 C1_2 1_555 1_555
C3_2 C2_2 1_555 1_555
H4_2 C3_2 1_555 1_555
C4_2 C3_2 1_555 1_555
C5_2 C4_2 1_555 1_555
H5_2 C5_2 1_555 1_555
C6_2 C1_2 1_555 1_555
C7_2 C6_2 1_555 1_555
C8_2 C4_2 1_555 1_555
C9_2 C2_2 1_555 1_555
C10_2 N2_2 1_555 1_555
H6_2 C10_2 1_555 1_555
C11_2 N1_2 1_555 1_555
H7_2 C11_2 1_555 1_555
C12_2 N3_2 1_555 1_555
H8_2 C12_2 1_555 1_555
H9_2 C12_2 1_555 1_555
C13_2 C12_2 1_555 1_555
C14_2 C13_2 1_555 1_555
H10_2 C14_2 1_555 1_555
C15_2 C14_2 1_555 1_555
H11_2 C15_2 1_555 1_555
C16_2 C15_2 1_555 1_555
C17_2 C16_2 1_555 1_555
H12_2 C17_2 1_555 1_555
C18_2 C13_2 1_555 1_555
H13_2 C18_2 1_555 1_555
C19_2 C16_2 1_555 1_555
C20_2 C19_2 1_555 1_555
H14_2 C20_2 1_555 1_555
C21_2 C20_2 1_555 1_555
H15_2 C21_2 1_555 1_555
C22_2 C21_2 1_555 1_555
C23_2 C22_2 1_555 1_555
H16_2 C23_2 1_555 1_555
C24_2 C19_2 1_555 1_555
H17_2 C24_2 1_555 1_555
C25_2 N4_2 1_555 1_555
H18_2 C25_2 1_555 1_555
H19_2 C25_2 1_555 1_555
C26_2 N4_2 1_555 1_555
H20_2 C26_2 1_555 1_555
C27_2 N6_2 1_555 1_555
H21_2 C27_2 1_555 1_555
C28B H22B 1_555 1_555
C29B N7B 1_555 1_555
H23B C29B 1_555 1_555
C30B N9B 1_555 1_555
H24B C30B 1_555 1_555
H25B C30B 1_555 1_555
C31B C30B 1_555 1_555
C32B C31B 1_555 1_555
H26B C32B 1_555 1_555
C33B C32B 1_555 1_555
H27B C33B 1_555 1_555
C34B C34 1_555 1_555
C35B C34B 1_555 1_555
H28B C35B 1_555 1_555
C36B C31B 1_555 1_555
H29B C36B 1_555 1_555
O1_2 Co1_2 1_555 1_555
O2_2 Co1_2 1_555 1_555
O3_2 C7_2 1_555 1_555
O3B Co2 1_555 1_555
O4_2 C7_2 1_555 1_555
O5_2 C8_2 1_555 1_555
O5A Co1 1_555 1_555
O5A_2 Co1_2 1_555 1_555
O6_2 C8_2 1_555 1_555
O7B Co2 1_555 1_555
H30B O7B 1_555 1_555
O8_2 Co1_2 1_555 1_555
H31_2 O8_2 1_555 1_555
N8 C29 1_555 1_555
C5 C6 1_555 1_555
C7 O3 1_555 1_555
C9 O1 1_555 1_555
C9 O2 1_555 1_555
C17 C18 1_555 1_555
C22 C25 1_555 1_555
C23 C24 1_555 1_555
C35 C36 1_555 1_555
N6_2 C26_2 1_555 1_555
N8B C29B 1_555 1_555
C5_2 C6_2 1_555 1_555
C9_2 O1_2 1_555 1_555
C9_2 O2_2 1_555 1_555
C17_2 C18_2 1_555 1_555
C22_2 C25_2 1_555 1_555
C23_2 C24_2 1_555 1_555
C33B C34B 1_555 1_555
C35B C36B 1_555 1_555

#END
