
#######################################################################
#
#                 Cambridge Crystallographic Data Centre
#                                CCDC 
#
#######################################################################
#
# If this CIF has been generated from an entry in the Cambridge 
# Structural Database, then it will include bibliographic, chemical, 
# crystal, experimental, refinement or atomic coordinate data resulting 
# from the CCDC's data processing and validation procedures.
#
#######################################################################

data_AVUKAE
_symmetry_cell_setting           monoclinic
_symmetry_space_group_name_H-M   'C 2/c'
_symmetry_Int_Tables_number      15
_space_group_name_Hall           '-C 2yn'
loop_
_symmetry_equiv_pos_site_id
_symmetry_equiv_pos_as_xyz
1 x,y,z
2 -x,y,1/2-z
3 1/2+x,1/2+y,z
4 1/2-x,1/2+y,1/2-z
5 -x,-y,-z
6 x,-y,1/2+z
7 1/2-x,1/2-y,-z
8 1/2+x,1/2-y,1/2+z
_cell_length_a                   19.25(2)
_cell_length_b                   9.796(9)
_cell_length_c                   12.388(13)
_cell_angle_alpha                90
_cell_angle_beta                 106.392(17)
_cell_angle_gamma                90
_cell_volume                     2241.09
loop_
_atom_site_label
_atom_site_type_symbol
_atom_site_fract_x
_atom_site_fract_y
_atom_site_fract_z
Er1 Er 0.5000 0.01937(6) 0.7500
Er2 Er 0.0000 0.01857(6) 0.7500
S1 S 0.24062(12) 0.3498(3) 0.7009(2)
O1 O 0.4174(3) 0.1801(7) 0.6697(5)
O2 O 0.3944(3) 0.3932(7) 0.7135(6)
O3 O 0.0525(3) 0.1720(7) 0.6602(6)
O4 O 0.0932(3) 0.3768(7) 0.7299(5)
O5 O 0.4575(3) 0.1184(6) 0.8980(5)
O6 O 0.4497(3) 0.0896(6) 1.0731(5)
O7 O -0.0013(4) -0.1018(6) 0.9156(5)
H1 H 0.0273 -0.0788 0.9787
H2 H -0.0304 -0.1681 0.9118
O8 O 0.0927(3) 0.1295(7) 0.9025(5)
H3 H 0.1008 0.1009 0.9698
H4 H 0.1166 0.1965 0.8880
C1 C 0.2982(5) 0.2367(9) 0.6629(8)
C2 C 0.2641(5) 0.1196(10) 0.6213(8)
H7 H 0.2866 0.0475 0.5958
C3 C 0.1905(4) 0.1180(9) 0.6206(8)
H8 H 0.1590 0.0455 0.5945
C4 C 0.1716(5) 0.2354(9) 0.6630(8)
C5 C 0.3756(5) 0.2723(9) 0.6821(8)
C6 C 0.1008(4) 0.2646(9) 0.6855(7)
C7 C 0.4724(4) 0.0600(8) 0.9915(7)
Er1_2 Er -0.5000 0.01937(6) 0.7500
Er1B Er 0.0000 0.51937(6) 0.7500
Er1D Er 0.5000 -0.01937(6) 1.2500
Er2B Er -0.5000 0.51857(6) 0.7500
Er2B_2 Er 0.5000 0.51857(6) 0.7500
S1A S -0.24062(12) 0.3498(3) 0.7991(2)
O1A O -0.4174(3) 0.1801(7) 0.8303(5)
O1A_2 O 0.5826(3) 0.1801(7) 0.8303(5)
O2A O -0.3944(3) 0.3932(7) 0.7865(6)
O2B O -0.1056(3) -0.1068(7) 0.7135(6)
O2C O 0.1056(3) -0.1068(7) 0.7865(6)
O3A O -0.0525(3) 0.1720(7) 0.8398(6)
O4A O -0.0932(3) 0.3768(7) 0.7701(5)
O4B O 0.5932(3) -0.1232(7) 0.7299(5)
O4C O 0.4068(3) -0.1232(7) 0.7701(5)
O5D O 0.5425(3) -0.1184(6) 1.1020(5)
O5A O 0.5425(3) 0.1184(6) 0.6020(5)
O6D O 0.5503(3) -0.0896(6) 0.9269(5)
O6E O 0.4497(3) -0.0896(6) 0.5731(5)
O7A O 0.0013(4) -0.1018(6) 0.5844(5)
H1A H -0.0273 -0.0788 0.5213
H2A H 0.0304 -0.1681 0.5882
O8A O -0.0927(3) 0.1295(7) 0.5975(5)
H3A H -0.1008 0.1009 0.5302
H4A H -0.1166 0.1965 0.6120
C1A C -0.2982(5) 0.2367(9) 0.8371(8)
C2A C -0.2641(5) 0.1196(10) 0.8787(8)
H7A H -0.2866 0.0475 0.9042
C3A C -0.1905(4) 0.1180(9) 0.8794(8)
H8A H -0.1590 0.0455 0.9055
C4A C -0.1716(5) 0.2354(9) 0.8370(8)
C5A C -0.3756(5) 0.2723(9) 0.8179(8)
C6A C -0.1008(4) 0.2646(9) 0.8145(7)
C7D C 0.5276(4) -0.0600(8) 1.0085(7)
O9 O 0.2503(10) 0.1465(18) 0.9378(15)
H5 H 0.2078 0.1147 0.9125
H6 H 0.2723 0.1342 0.8878
loop_
_geom_bond_atom_site_label_1
_geom_bond_atom_site_label_2
_geom_bond_site_symmetry_1
_geom_bond_site_symmetry_2
Er1 O1 1_555 1_555
Er2 O3 1_555 1_555
S1 C1 1_555 1_555
O1 C5 1_555 1_555
O2 C5 1_555 1_555
O3 C6 1_555 1_555
O4 C6 1_555 1_555
O5 Er1 1_555 1_555
O6 C7 1_555 1_555
O7 Er2 1_555 1_555
H1 O7 1_555 1_555
H2 O7 1_555 1_555
O8 Er2 1_555 1_555
H3 O8 1_555 1_555
H4 O8 1_555 1_555
O9 H5 1_555 1_555
H6 O9 1_555 1_555
C1 C2 1_555 1_555
C2 H7 1_555 1_555
C3 C2 1_555 1_555
H8 C3 1_555 1_555
C4 S1 1_555 1_555
C5 C1 1_555 1_555
C6 C4 1_555 1_555
C7 O5 1_555 1_555
Er1_2 O1A 1_555 1_555
Er1B O4 1_555 1_555
Er1D O6 1_555 1_555
Er2B O2A 1_555 1_555
Er2B_2 O2 1_555 1_555
S1A C1A 1_555 1_555
O1A C5A 1_555 1_555
O1A_2 Er1 1_555 1_555
O2A C5A 1_555 1_555
O2B Er2 1_555 1_555
O2C Er2 1_555 1_555
O3A Er2 1_555 1_555
O4A Er1B 1_555 1_555
O4B Er1 1_555 1_555
O4C Er1 1_555 1_555
O5D Er1D 1_555 1_555
O5A Er1 1_555 1_555
O6D Er1 1_555 1_555
O6E Er1 1_555 1_555
O7A Er2 1_555 1_555
H1A O7A 1_555 1_555
H2A O7A 1_555 1_555
O8A Er2 1_555 1_555
H3A O8A 1_555 1_555
H4A O8A 1_555 1_555
C1A C2A 1_555 1_555
C2A H7A 1_555 1_555
C3A C2A 1_555 1_555
H8A C3A 1_555 1_555
C4A S1A 1_555 1_555
C5A C1A 1_555 1_555
C6A O3A 1_555 1_555
C7D C7 1_555 1_555
C3 C4 1_555 1_555
O4A C6A 1_555 1_555
O5D C7D 1_555 1_555
O6D C7D 1_555 1_555
C3A C4A 1_555 1_555
C4A C6A 1_555 1_555

#END
