
#######################################################################
#
#                 Cambridge Crystallographic Data Centre
#                                CCDC 
#
#######################################################################
#
# If this CIF has been generated from an entry in the Cambridge 
# Structural Database, then it will include bibliographic, chemical, 
# crystal, experimental, refinement or atomic coordinate data resulting 
# from the CCDC's data processing and validation procedures.
#
#######################################################################

data_AVUKEI
_symmetry_cell_setting           monoclinic
_symmetry_space_group_name_H-M   'C 2/c'
_symmetry_Int_Tables_number      15
_space_group_name_Hall           '-C 2yn'
loop_
_symmetry_equiv_pos_site_id
_symmetry_equiv_pos_as_xyz
1 x,y,z
2 -x,y,1/2-z
3 1/2+x,1/2+y,z
4 1/2-x,1/2+y,1/2-z
5 -x,-y,-z
6 x,-y,1/2+z
7 1/2-x,1/2-y,-z
8 1/2+x,1/2-y,1/2+z
_cell_length_a                   19.2794(14)
_cell_length_b                   9.8604(5)
_cell_length_c                   12.4549(10)
_cell_angle_alpha                90
_cell_angle_beta                 106.871(4)
_cell_angle_gamma                90
_cell_volume                     2265.8
loop_
_atom_site_label
_atom_site_type_symbol
_atom_site_fract_x
_atom_site_fract_y
_atom_site_fract_z
Dy1 Dy 0.0000 0.02020(3) 0.7500
Dy2 Dy 0.5000 0.01934(3) 0.7500
S1 S 0.25942(7) 0.35003(14) 0.79906(14)
O1 O 0.0829(2) 0.1824(4) 0.8317(3)
O2 O 0.1066(2) 0.3938(4) 0.7885(4)
O3 O 0.4469(2) 0.1731(4) 0.8395(3)
O4 O 0.4066(2) 0.3770(4) 0.7711(3)
O5 O 0.0419(2) 0.1194(4) 0.6012(3)
O6 O 0.0514(2) 0.0888(4) 0.4280(3)
O7 O 0.4070(2) 0.1317(4) 0.5964(4)
H1 H 0.3733 0.1106 0.5379
H2 H 0.4129 0.2171 0.5955
O8 O 0.5015(2) -0.1019(4) 0.5836(3)
H3 H 0.5060 -0.1871 0.5775
H4 H 0.4629 -0.0776 0.5344
C1 C 0.2025(3) 0.2382(5) 0.8368(5)
C2 C 0.2365(3) 0.1213(6) 0.8779(5)
H7 H 0.2139 0.0499 0.9034
C3 C 0.3096(3) 0.1188(5) 0.8781(5)
H8 H 0.3407 0.0460 0.9037
C4 C 0.3295(3) 0.2362(5) 0.8363(5)
C5 C 0.1246(3) 0.2742(5) 0.8172(5)
C6 C 0.3993(3) 0.2647(5) 0.8138(5)
C7 C 0.0276(3) 0.0602(5) 0.5086(4)
Dy1B Dy -0.5000 0.52020(3) 0.7500
Dy1B_2 Dy 0.5000 0.52020(3) 0.7500
Dy1D Dy 0.0000 -0.02020(3) 0.2500
Dy2_2 Dy -0.5000 0.01934(3) 0.7500
Dy2B Dy 0.0000 0.51934(3) 0.7500
S1A S -0.25942(7) 0.35003(14) 0.70094(14)
O1A O -0.0829(2) 0.1824(4) 0.6683(3)
O2A O -0.1066(2) 0.3938(4) 0.7115(4)
O2B O 0.6066(2) -0.1062(4) 0.7885(4)
O2C O 0.3934(2) -0.1062(4) 0.7115(4)
O3A O -0.4469(2) 0.1731(4) 0.6605(3)
O3A_2 O 0.5531(2) 0.1731(4) 0.6605(3)
O4A O -0.4066(2) 0.3770(4) 0.7289(3)
O4B O -0.0934(2) -0.1230(4) 0.7711(3)
O4C O 0.0934(2) -0.1230(4) 0.7289(3)
O5D O -0.0419(2) -0.1194(4) 0.3988(3)
O5A O -0.0419(2) 0.1194(4) 0.8988(3)
O6D O -0.0514(2) -0.0888(4) 0.5720(3)
O6E O 0.0514(2) -0.0888(4) 0.9280(3)
O7A O 0.5930(2) 0.1317(4) 0.9036(4)
H1A H 0.6267 0.1106 0.9621
H2A H 0.5871 0.2171 0.9045
O8A O 0.4985(2) -0.1019(4) 0.9164(3)
H3A H 0.4940 -0.1871 0.9225
H4A H 0.5371 -0.0776 0.9656
C1A C -0.2025(3) 0.2382(5) 0.6632(5)
C2A C -0.2365(3) 0.1213(6) 0.6221(5)
H7A H -0.2139 0.0499 0.5966
C3A C -0.3096(3) 0.1188(5) 0.6219(5)
H8A H -0.3407 0.0460 0.5963
C4A C -0.3295(3) 0.2362(5) 0.6637(5)
C5A C -0.1246(3) 0.2742(5) 0.6828(5)
C6A C -0.3993(3) 0.2647(5) 0.6862(5)
C7D C -0.0276(3) -0.0602(5) 0.4914(4)
O9 O 0.2518(6) 0.1419(12) 0.5610(10)
H5 H 0.2203 0.0926 0.5779
H6 H 0.2636 0.2048 0.6096
loop_
_geom_bond_atom_site_label_1
_geom_bond_atom_site_label_2
_geom_bond_site_symmetry_1
_geom_bond_site_symmetry_2
Dy1 O1 1_555 1_555
Dy2 O3 1_555 1_555
S1 C1 1_555 1_555
O1 C5 1_555 1_555
O2 C5 1_555 1_555
O3 C6 1_555 1_555
O4 C6 1_555 1_555
O5 Dy1 1_555 1_555
O6 C7 1_555 1_555
O7 Dy2 1_555 1_555
H1 O7 1_555 1_555
H2 O7 1_555 1_555
O8 Dy2 1_555 1_555
H3 O8 1_555 1_555
H4 O8 1_555 1_555
O9 H5 1_555 1_555
H6 O9 1_555 1_555
C1 C2 1_555 1_555
C2 H7 1_555 1_555
C3 C2 1_555 1_555
H8 C3 1_555 1_555
C4 S1 1_555 1_555
C5 C1 1_555 1_555
C6 C4 1_555 1_555
C7 O5 1_555 1_555
Dy1B O4A 1_555 1_555
Dy1B_2 O4 1_555 1_555
Dy1D O6 1_555 1_555
Dy2_2 O3A 1_555 1_555
Dy2B O2 1_555 1_555
S1A C1A 1_555 1_555
O1A Dy1 1_555 1_555
O2A Dy2B 1_555 1_555
O2B Dy2 1_555 1_555
O2C Dy2 1_555 1_555
O3A C6A 1_555 1_555
O3A_2 Dy2 1_555 1_555
O4A C6A 1_555 1_555
O4B Dy1 1_555 1_555
O4C Dy1 1_555 1_555
O5D Dy1D 1_555 1_555
O5A Dy1 1_555 1_555
O6D Dy1 1_555 1_555
O6E Dy1 1_555 1_555
O7A Dy2 1_555 1_555
H1A O7A 1_555 1_555
H2A O7A 1_555 1_555
O8A Dy2 1_555 1_555
H3A O8A 1_555 1_555
H4A O8A 1_555 1_555
C1A C2A 1_555 1_555
C2A H7A 1_555 1_555
C3A C2A 1_555 1_555
H8A C3A 1_555 1_555
C4A S1A 1_555 1_555
C5A O1A 1_555 1_555
C6A C4A 1_555 1_555
C7D C7 1_555 1_555
C3 C4 1_555 1_555
O2A C5A 1_555 1_555
O5D C7D 1_555 1_555
O6D C7D 1_555 1_555
C1A C5A 1_555 1_555
C3A C4A 1_555 1_555

#END
