
#######################################################################
#
#                 Cambridge Crystallographic Data Centre
#                                CCDC 
#
#######################################################################
#
# If this CIF has been generated from an entry in the Cambridge 
# Structural Database, then it will include bibliographic, chemical, 
# crystal, experimental, refinement or atomic coordinate data resulting 
# from the CCDC's data processing and validation procedures.
#
#######################################################################

data_AVUWUJ
_symmetry_cell_setting           monoclinic
_symmetry_space_group_name_H-M   'C 2/c'
_symmetry_Int_Tables_number      15
_space_group_name_Hall           '-C 2yn'
loop_
_symmetry_equiv_pos_site_id
_symmetry_equiv_pos_as_xyz
1 x,y,z
2 1/2+x,1/2+y,z
3 x,-y,1/2+z
4 1/2+x,1/2-y,1/2+z
5 -x,-y,-z
6 1/2-x,1/2-y,-z
7 -x,y,1/2-z
8 1/2-x,1/2+y,1/2-z
_cell_length_a                   13.870(5)
_cell_length_b                   17.564(6)
_cell_length_c                   28.633(10)
_cell_angle_alpha                90
_cell_angle_beta                 91.093(5)
_cell_angle_gamma                90
_cell_volume                     6974.09
loop_
_atom_site_label
_atom_site_type_symbol
_atom_site_fract_x
_atom_site_fract_y
_atom_site_fract_z
Yb1 Yb 0.940357(17) 0.25108(3) 0.517949(8)
O1 O 0.8133(3) 0.2929(3) 0.55527(13)
O2 O 0.6564(3) 0.2772(2) 0.54200(13)
O3 O 0.6587(3) 0.2907(3) 0.76222(13)
O4 O 1.0119(3) 0.2223(2) 0.90224(13)
O5 O 0.9437(3) 0.3188(3) 0.93736(14)
O6 O 1.0391(3) 0.2865(3) 0.45832(14)
O7 O 0.9357(3) 0.3737(3) 0.47990(13)
O8 O 1.1105(4) 0.5264(3) 0.29792(16)
O9 O 1.4785(4) 0.4281(4) 0.18235(19)
O10 O 1.3634(3) 0.3590(3) 0.14950(17)
H1 H 1.4091 0.3351 0.1392
N1 N 0.8873(4) 0.1194(3) 0.53557(16)
N2 N 1.0727(4) 0.1546(3) 0.51712(18)
C1 C 0.7964(5) 0.0995(4) 0.5414(2)
H2 H 0.7483 0.1331 0.5316
C2 C 0.7691(6) 0.0313(5) 0.5613(3)
H3 H 0.7042 0.0197 0.5646
C3 C 0.8386(6) -0.0188(5) 0.5760(3)
H4 H 0.8212 -0.0642 0.5902
C4 C 0.9357(6) -0.0017(4) 0.5696(2)
C5 C 1.0140(7) -0.0514(5) 0.5834(3)
H5 H 1.0006 -0.0981 0.5972
C6 C 1.1052(6) -0.0310(5) 0.5767(3)
H6 H 1.1545 -0.0629 0.5871
C7 C 1.1294(5) 0.0380(4) 0.5540(2)
C8 C 1.2242(5) 0.0593(5) 0.5435(3)
H7 H 1.2756 0.0282 0.5523
C9 C 1.2407(6) 0.1256(5) 0.5204(3)
H8 H 1.3033 0.1402 0.5135
C10 C 1.1630(5) 0.1714(4) 0.5072(3)
H9 H 1.1751 0.2159 0.4906
C11 C 1.0552(5) 0.0884(4) 0.5398(2)
C12 C 0.9576(5) 0.0683(4) 0.54869(19)
C13 C 0.7273(5) 0.2856(3) 0.5692(2)
C14 C 0.7099(4) 0.2891(4) 0.61985(19)
C15 C 0.7843(4) 0.3064(4) 0.65129(19)
H10 H 0.8451 0.3179 0.6401
C16 C 0.7693(5) 0.3068(4) 0.6989(2)
H11 H 0.8195 0.3191 0.7195
C17 C 0.6806(5) 0.2890(4) 0.7154(2)
C18 C 0.6047(4) 0.2738(4) 0.6852(2)
H12 H 0.5439 0.2635 0.6968
C19 C 0.6193(4) 0.2739(3) 0.63768(19)
H13 H 0.5679 0.2637 0.6173
C20 C 0.7337(4) 0.2869(4) 0.7948(2)
C21 C 0.7945(5) 0.2253(4) 0.7968(2)
H14 H 0.7886 0.1866 0.7747
C22 C 0.8645(4) 0.2211(4) 0.8316(2)
H15 H 0.9057 0.1793 0.8331
C23 C 0.8734(4) 0.2784(4) 0.8640(2)
C24 C 0.8137(5) 0.3404(4) 0.8616(2)
H16 H 0.8203 0.3795 0.8833
C25 C 0.7434(5) 0.3447(4) 0.8266(2)
H17 H 0.7028 0.3868 0.8248
C26 C 0.9473(5) 0.2739(4) 0.9034(2)
C27 C 1.0008(4) 0.3519(4) 0.4530(2)
C28 C 1.0329(4) 0.3993(4) 0.4131(2)
C29 C 1.0101(5) 0.4757(4) 0.4091(2)
H18 H 0.9753 0.4991 0.4325
C30 C 1.0380(5) 0.5179(4) 0.3708(2)
H19 H 1.0227 0.5694 0.3686
C31 C 1.0885(5) 0.4827(4) 0.3363(2)
C32 C 1.1125(5) 0.4069(4) 0.3398(2)
H20 H 1.1476 0.3836 0.3164
C33 C 1.0845(5) 0.3657(4) 0.3781(2)
H21 H 1.1006 0.3144 0.3803
C34 C 1.1805(6) 0.4984(4) 0.2685(2)
C35 C 1.2753(6) 0.5059(4) 0.2799(2)
H22 H 1.2938 0.5289 0.3080
C36 C 1.3443(5) 0.4793(4) 0.2498(2)
H23 H 1.4094 0.4865 0.2571
C37 C 1.3174(5) 0.4421(4) 0.2089(2)
C38 C 1.2209(5) 0.4339(4) 0.1976(2)
H24 H 1.2020 0.4088 0.1703
C39 C 1.1528(6) 0.4630(5) 0.2269(3)
H25 H 1.0877 0.4591 0.2189
C40 C 1.3951(6) 0.4095(4) 0.1796(2)
O2E O 0.8436(3) 0.2228(2) 0.45800(13)
O4F O 0.9881(3) 0.2223(2) 0.59776(13)
O5F O 1.0563(3) 0.3188(3) 0.56264(14)
Yb1E Yb 0.559643(17) 0.24892(3) 0.482051(8)
Yb1F Yb 1.059643(17) 0.25108(3) 0.982051(8)
loop_
_geom_bond_atom_site_label_1
_geom_bond_atom_site_label_2
_geom_bond_site_symmetry_1
_geom_bond_site_symmetry_2
Yb1 O1 1_555 1_555
O1 C13 1_555 1_555
O2 C13 1_555 1_555
O3 C17 1_555 1_555
O4 C26 1_555 1_555
O5 C26 1_555 1_555
O6 Yb1 1_555 1_555
O7 Yb1 1_555 1_555
O8 C31 1_555 1_555
O9 C40 1_555 1_555
O10 H1 1_555 1_555
N1 Yb1 1_555 1_555
N2 Yb1 1_555 1_555
C1 N1 1_555 1_555
H2 C1 1_555 1_555
C2 C1 1_555 1_555
H3 C2 1_555 1_555
C3 C2 1_555 1_555
H4 C3 1_555 1_555
C4 C3 1_555 1_555
C5 C4 1_555 1_555
H5 C5 1_555 1_555
C6 C5 1_555 1_555
H6 C6 1_555 1_555
C7 C6 1_555 1_555
C8 C7 1_555 1_555
H7 C8 1_555 1_555
C9 C8 1_555 1_555
H8 C9 1_555 1_555
C10 N2 1_555 1_555
H9 C10 1_555 1_555
C11 N2 1_555 1_555
C12 N1 1_555 1_555
C13 C14 1_555 1_555
C14 C15 1_555 1_555
C15 H10 1_555 1_555
C16 C15 1_555 1_555
H11 C16 1_555 1_555
C17 C16 1_555 1_555
C18 C17 1_555 1_555
H12 C18 1_555 1_555
C19 C14 1_555 1_555
H13 C19 1_555 1_555
C20 O3 1_555 1_555
C21 C20 1_555 1_555
H14 C21 1_555 1_555
C22 C21 1_555 1_555
H15 C22 1_555 1_555
C23 C22 1_555 1_555
C24 C23 1_555 1_555
H16 C24 1_555 1_555
C25 C20 1_555 1_555
H17 C25 1_555 1_555
C26 C23 1_555 1_555
C27 O6 1_555 1_555
C28 C27 1_555 1_555
C29 C28 1_555 1_555
H18 C29 1_555 1_555
C30 C29 1_555 1_555
H19 C30 1_555 1_555
C31 C30 1_555 1_555
C32 C31 1_555 1_555
H20 C32 1_555 1_555
C33 C28 1_555 1_555
H21 C33 1_555 1_555
C34 O8 1_555 1_555
C35 C34 1_555 1_555
H22 C35 1_555 1_555
C36 C35 1_555 1_555
H23 C36 1_555 1_555
C37 C36 1_555 1_555
C38 C37 1_555 1_555
H24 C38 1_555 1_555
C39 C34 1_555 1_555
H25 C39 1_555 1_555
C40 O10 1_555 1_555
O2E Yb1 1_555 1_555
O4F Yb1 1_555 1_555
O5F Yb1 1_555 1_555
Yb1E O2 1_555 1_555
Yb1F O4 1_555 1_555
O5 Yb1F 1_555 1_555
O7 C27 1_555 1_555
C4 C12 1_555 1_555
C7 C11 1_555 1_555
C9 C10 1_555 1_555
C11 C12 1_555 1_555
C18 C19 1_555 1_555
C24 C25 1_555 1_555
C32 C33 1_555 1_555
C37 C40 1_555 1_555
C38 C39 1_555 1_555

#END
