
#######################################################################
#
#                 Cambridge Crystallographic Data Centre
#                                CCDC 
#
#######################################################################
#
# If this CIF has been generated from an entry in the Cambridge 
# Structural Database, then it will include bibliographic, chemical, 
# crystal, experimental, refinement or atomic coordinate data resulting 
# from the CCDC's data processing and validation procedures.
#
#######################################################################

data_AVUWOD
_symmetry_cell_setting           monoclinic
_symmetry_space_group_name_H-M   'C 2/c'
_symmetry_Int_Tables_number      15
_space_group_name_Hall           '-C 2yn'
loop_
_symmetry_equiv_pos_site_id
_symmetry_equiv_pos_as_xyz
1 x,y,z
2 1/2+x,1/2+y,z
3 x,-y,1/2+z
4 1/2+x,1/2-y,1/2+z
5 -x,-y,-z
6 1/2-x,1/2-y,-z
7 -x,y,1/2-z
8 1/2-x,1/2+y,1/2-z
_cell_length_a                   13.8970(2)
_cell_length_b                   17.5455(3)
_cell_length_c                   28.6986(6)
_cell_angle_alpha                90
_cell_angle_beta                 91.0013(7)
_cell_angle_gamma                90
_cell_volume                     6996.51
loop_
_atom_site_label
_atom_site_type_symbol
_atom_site_fract_x
_atom_site_fract_y
_atom_site_fract_z
Er1 Er 0.940600(13) 0.252161(16) 0.518028(7)
O1 O 0.8124(2) 0.2941(2) 0.55546(11)
O2 O 0.6560(2) 0.27665(18) 0.54220(11)
O3 O 0.6588(2) 0.2891(2) 0.76235(11)
O4 O 1.0116(2) 0.22264(19) 0.90188(11)
O5 O 0.9425(2) 0.3190(2) 0.93650(11)
O6 O 1.0406(2) 0.2876(2) 0.45789(11)
O7 O 0.9367(2) 0.37508(19) 0.47932(11)
O8 O 1.1102(3) 0.5271(2) 0.29699(13)
O9 O 1.4787(3) 0.4276(3) 0.18310(15)
O10 O 1.3641(2) 0.3590(2) 0.14915(14)
H1 H 1.4097 0.3381 0.1366
N1 N 0.8882(3) 0.1190(2) 0.53542(13)
N2 N 1.0721(3) 0.1546(2) 0.51747(14)
C1 C 0.7971(4) 0.0992(3) 0.54143(17)
H2 H 0.7489 0.1328 0.5318
C2 C 0.7709(4) 0.0305(4) 0.5614(2)
H3 H 0.7063 0.0184 0.5648
C3 C 0.8407(4) -0.0193(3) 0.5762(2)
H4 H 0.8240 -0.0647 0.5906
C4 C 0.9370(4) -0.0014(3) 0.56949(19)
C5 C 1.0136(5) -0.0505(3) 0.5837(2)
H5 H 0.9995 -0.0966 0.5980
C6 C 1.1046(5) -0.0315(3) 0.5769(2)
H6 H 1.1532 -0.0640 0.5874
C7 C 1.1295(4) 0.0372(3) 0.55397(19)
C8 C 1.2242(4) 0.0594(4) 0.5438(2)
H7 H 1.2758 0.0290 0.5532
C9 C 1.2403(4) 0.1248(4) 0.5204(2)
H8 H 1.3026 0.1391 0.5131
C10 C 1.1623(4) 0.1710(3) 0.5073(2)
H9 H 1.1745 0.2152 0.4906
C11 C 1.0556(3) 0.0877(3) 0.53983(17)
C12 C 0.9571(3) 0.0684(3) 0.54873(16)
C13 C 0.7276(4) 0.2868(3) 0.56940(17)
C14 C 0.7102(3) 0.2891(3) 0.62024(16)
C15 C 0.7842(3) 0.3070(3) 0.65151(16)
H10 H 0.8447 0.3190 0.6402
C16 C 0.7698(3) 0.3072(3) 0.69882(16)
H11 H 0.8199 0.3198 0.7193
C17 C 0.6804(4) 0.2886(3) 0.71561(17)
C18 C 0.6048(4) 0.2720(3) 0.68518(17)
H12 H 0.5443 0.2606 0.6966
C19 C 0.6199(3) 0.2726(3) 0.63782(16)
H13 H 0.5691 0.2618 0.6174
C20 C 0.7330(3) 0.2864(3) 0.79472(16)
C21 C 0.7941(4) 0.2246(3) 0.79677(17)
H14 H 0.7881 0.1854 0.7750
C22 C 0.8641(3) 0.2212(3) 0.83128(17)
H15 H 0.9058 0.1797 0.8325
C23 C 0.8736(3) 0.2782(3) 0.86402(16)
C24 C 0.8121(4) 0.3401(3) 0.86136(17)
H16 H 0.8180 0.3792 0.8831
C25 C 0.7416(3) 0.3443(3) 0.82645(18)
H17 H 0.7006 0.3861 0.8247
C26 C 0.9471(4) 0.2738(3) 0.90267(17)
C27 C 1.0008(3) 0.3526(3) 0.45267(17)
C28 C 1.0323(3) 0.4008(3) 0.41277(16)
C29 C 1.0096(3) 0.4770(3) 0.40851(19)
H18 H 0.9748 0.5007 0.4318
C30 C 1.0378(3) 0.5190(3) 0.37017(18)
H19 H 1.0223 0.5704 0.3677
C31 C 1.0894(4) 0.4832(3) 0.33563(18)
C32 C 1.1138(4) 0.4073(3) 0.33907(18)
H20 H 1.1487 0.3840 0.3157
C33 C 1.0860(3) 0.3660(3) 0.37763(18)
H21 H 1.1030 0.3149 0.3803
C34 C 1.1809(4) 0.4981(3) 0.2675(2)
C35 C 1.2761(4) 0.5067(3) 0.27941(19)
H22 H 1.2945 0.5309 0.3070
C36 C 1.3443(4) 0.4785(3) 0.24941(19)
H23 H 1.4092 0.4844 0.2570
C37 C 1.3184(4) 0.4419(3) 0.20858(18)
C38 C 1.2223(4) 0.4341(3) 0.19750(19)
H24 H 1.2037 0.4090 0.1703
C39 C 1.1527(4) 0.4634(3) 0.2268(2)
H25 H 1.0878 0.4594 0.2188
C40 C 1.3961(4) 0.4087(3) 0.17932(19)
O2E O 0.8440(2) 0.22335(18) 0.45780(11)
O4F O 0.9884(2) 0.22264(19) 0.59812(11)
O5F O 1.0575(2) 0.3190(2) 0.56350(11)
Er1E Er 0.559400(13) 0.247839(16) 0.481972(7)
Er1F Er 1.059400(13) 0.252161(16) 0.981972(7)
loop_
_geom_bond_atom_site_label_1
_geom_bond_atom_site_label_2
_geom_bond_site_symmetry_1
_geom_bond_site_symmetry_2
Er1 O1 1_555 1_555
O1 C13 1_555 1_555
O2 C13 1_555 1_555
O3 C17 1_555 1_555
O4 C26 1_555 1_555
O5 C26 1_555 1_555
O6 Er1 1_555 1_555
O7 Er1 1_555 1_555
O8 C31 1_555 1_555
O9 C40 1_555 1_555
O10 H1 1_555 1_555
N1 Er1 1_555 1_555
N2 Er1 1_555 1_555
C1 N1 1_555 1_555
H2 C1 1_555 1_555
C2 C1 1_555 1_555
H3 C2 1_555 1_555
C3 C2 1_555 1_555
H4 C3 1_555 1_555
C4 C3 1_555 1_555
C5 C4 1_555 1_555
H5 C5 1_555 1_555
C6 C5 1_555 1_555
H6 C6 1_555 1_555
C7 C6 1_555 1_555
C8 C7 1_555 1_555
H7 C8 1_555 1_555
C9 C8 1_555 1_555
H8 C9 1_555 1_555
C10 N2 1_555 1_555
H9 C10 1_555 1_555
C11 N2 1_555 1_555
C12 N1 1_555 1_555
C13 C14 1_555 1_555
C14 C15 1_555 1_555
C15 H10 1_555 1_555
C16 C15 1_555 1_555
H11 C16 1_555 1_555
C17 C16 1_555 1_555
C18 C17 1_555 1_555
H12 C18 1_555 1_555
C19 C14 1_555 1_555
H13 C19 1_555 1_555
C20 O3 1_555 1_555
C21 C20 1_555 1_555
H14 C21 1_555 1_555
C22 C21 1_555 1_555
H15 C22 1_555 1_555
C23 C22 1_555 1_555
C24 C23 1_555 1_555
H16 C24 1_555 1_555
C25 C20 1_555 1_555
H17 C25 1_555 1_555
C26 C23 1_555 1_555
C27 O6 1_555 1_555
C28 C27 1_555 1_555
C29 C28 1_555 1_555
H18 C29 1_555 1_555
C30 C29 1_555 1_555
H19 C30 1_555 1_555
C31 C30 1_555 1_555
C32 C31 1_555 1_555
H20 C32 1_555 1_555
C33 C28 1_555 1_555
H21 C33 1_555 1_555
C34 O8 1_555 1_555
C35 C34 1_555 1_555
H22 C35 1_555 1_555
C36 C35 1_555 1_555
H23 C36 1_555 1_555
C37 C36 1_555 1_555
C38 C37 1_555 1_555
H24 C38 1_555 1_555
C39 C34 1_555 1_555
H25 C39 1_555 1_555
C40 O10 1_555 1_555
O2E Er1 1_555 1_555
O4F Er1 1_555 1_555
O5F Er1 1_555 1_555
Er1E O2 1_555 1_555
Er1F O4 1_555 1_555
O5 Er1F 1_555 1_555
O7 C27 1_555 1_555
C4 C12 1_555 1_555
C7 C11 1_555 1_555
C9 C10 1_555 1_555
C11 C12 1_555 1_555
C18 C19 1_555 1_555
C24 C25 1_555 1_555
C32 C33 1_555 1_555
C37 C40 1_555 1_555
C38 C39 1_555 1_555

#END
