
#######################################################################
#
#                 Cambridge Crystallographic Data Centre
#                                CCDC 
#
#######################################################################
#
# If this CIF has been generated from an entry in the Cambridge 
# Structural Database, then it will include bibliographic, chemical, 
# crystal, experimental, refinement or atomic coordinate data resulting 
# from the CCDC's data processing and validation procedures.
#
#######################################################################

data_AVUXOE
_symmetry_cell_setting           triclinic
_symmetry_space_group_name_H-M   'P -1'
_symmetry_Int_Tables_number      2
_space_group_name_Hall           '-P 1'
loop_
_symmetry_equiv_pos_site_id
_symmetry_equiv_pos_as_xyz
1 x,y,z
2 -x,-y,-z
_cell_length_a                   11.044(6)
_cell_length_b                   11.588(6)
_cell_length_c                   12.608(6)
_cell_angle_alpha                110.474(7)
_cell_angle_beta                 100.420(8)
_cell_angle_gamma                110.389(8)
_cell_volume                     1330.06
loop_
_atom_site_label
_atom_site_type_symbol
_atom_site_fract_x
_atom_site_fract_y
_atom_site_fract_z
Er1 Er -0.09500(7) 0.61289(6) 0.56767(5)
N1 N 0.0270(13) 0.8756(11) 0.6903(10)
N2 N -0.0220(13) 0.7086(12) 0.8019(10)
O1 O -0.2873(12) 0.6338(11) 0.6173(9)
O2 O -0.2244(11) 0.7156(10) 0.4926(9)
O3 O -0.0156(12) 1.3181(9) 0.5525(8)
O4 O -0.1496(11) 1.4217(10) 0.6012(9)
O5 O 0.1136(10) 0.6192(9) 0.6286(9)
O6 O 0.2831(11) 0.5610(10) 0.6151(9)
O7 O 0.502(2) 1.3886(18) 0.8138(17)
H1 H 0.5368 1.4255 0.7749
O8 O 0.682(3) 1.5195(17) 0.961(2)
C1 C -0.3078(15) 0.6884(13) 0.5481(13)
C2 C -0.4245(18) 0.7278(16) 0.5382(16)
H2 H -0.4346 0.7604 0.6166
H3 H -0.5090 0.6460 0.4829
C3 C -0.4065(18) 0.8370(16) 0.4953(15)
H4 H -0.4950 0.8358 0.4675
H5 H -0.3743 0.8159 0.4275
C4 C -0.3057(19) 0.9791(15) 0.5931(14)
H6 H -0.2235 0.9758 0.6318
H7 H -0.3463 1.0075 0.6536
C5 C -0.2659(18) 1.0846(15) 0.5456(14)
H8 H -0.3488 1.0838 0.5029
H9 H -0.2212 1.0583 0.4882
C6 C -0.1683(19) 1.2333(15) 0.6454(14)
H10 H -0.2189 1.2664 0.6938
H11 H -0.0939 1.2313 0.6979
C7 C -0.1080(17) 1.3324(14) 0.5959(12)
C8 C 0.2362(18) 0.6402(15) 0.6700(13)
C9 C 0.3350(16) 0.7715(14) 0.7828(12)
H12 H 0.4144 0.7615 0.8174
H13 H 0.2901 0.7887 0.8419
C10 C 0.3823(18) 0.8948(15) 0.7519(13)
H14 H 0.4342 0.8802 0.6984
H15 H 0.3014 0.8967 0.7086
C11 C 0.4685(19) 1.0313(14) 0.8590(14)
H16 H 0.5536 1.0331 0.8982
H17 H 0.4202 1.0431 0.9161
C12 C 0.5024(18) 1.1522(15) 0.8261(15)
H18 H 0.5643 1.1491 0.7806
H19 H 0.4183 1.1406 0.7743
C13 C 0.567(2) 1.2905(17) 0.9331(17)
H20 H 0.6544 1.3044 0.9822
H21 H 0.5082 1.2914 0.9814
C14 C 0.593(2) 1.4103(17) 0.9009(16)
C15 C 0.0459(17) 0.9560(14) 0.6377(13)
H22 H 0.0077 0.9152 0.5541
C16 C 0.121(2) 1.1023(17) 0.6999(16)
H23 H 0.1328 1.1554 0.6583
C17 C 0.1759(18) 1.1612(16) 0.8214(15)
H24 H 0.2246 1.2565 0.8647
C18 C 0.1599(17) 1.0806(16) 0.8825(14)
C19 C 0.217(2) 1.1355(18) 1.0100(15)
H25 H 0.2689 1.2301 1.0564
C20 C 0.197(2) 1.051(2) 1.0654(14)
H26 H 0.2354 1.0890 1.1489
C21 C 0.122(2) 0.910(2) 0.9991(15)
C22 C 0.091(2) 0.818(2) 1.0532(16)
H27 H 0.1283 0.8519 1.1363
C23 C 0.009(3) 0.682(2) 0.9836(16)
H28 H -0.0112 0.6225 1.0187
C24 C -0.046(2) 0.6319(18) 0.8597(15)
H29 H -0.1025 0.5380 0.8142
C25 C 0.0621(16) 0.8496(17) 0.8728(13)
C26 C 0.0842(15) 0.9361(15) 0.8139(12)
O3A O 0.0156(12) 0.6819(9) 0.4475(8)
O4_2 O -0.1496(11) 0.4217(10) 0.6012(9)
O6A O -0.2831(11) 0.4390(10) 0.3849(9)
Er1A Er 0.09500(7) 1.38711(6) 0.43233(5)
Er1_2 Er -0.09500(7) 1.61289(6) 0.56767(5)
Er1A_2 Er 0.09500(7) 0.38711(6) 0.43233(5)
O9 O 0.4681(12) 0.4215(11) 0.2596(10)
O10 O 0.165(5) 0.455(4) 0.812(3)
loop_
_geom_bond_atom_site_label_1
_geom_bond_atom_site_label_2
_geom_bond_site_symmetry_1
_geom_bond_site_symmetry_2
Er1 N1 1_555 1_555
N1 C15 1_555 1_555
N2 Er1 1_555 1_555
O1 Er1 1_555 1_555
O2 Er1 1_555 1_555
O3 C7 1_555 1_555
O4 C7 1_555 1_555
O5 Er1 1_555 1_555
O6 C8 1_555 1_555
O7 H1 1_555 1_555
O8 C14 1_555 1_555
C1 O1 1_555 1_555
C2 C1 1_555 1_555
H2 C2 1_555 1_555
H3 C2 1_555 1_555
C3 C2 1_555 1_555
H4 C3 1_555 1_555
H5 C3 1_555 1_555
C4 C3 1_555 1_555
H6 C4 1_555 1_555
H7 C4 1_555 1_555
C5 C4 1_555 1_555
H8 C5 1_555 1_555
H9 C5 1_555 1_555
C6 C5 1_555 1_555
H10 C6 1_555 1_555
H11 C6 1_555 1_555
C7 C6 1_555 1_555
C8 O5 1_555 1_555
C9 C8 1_555 1_555
H12 C9 1_555 1_555
H13 C9 1_555 1_555
C10 C9 1_555 1_555
H14 C10 1_555 1_555
H15 C10 1_555 1_555
C11 C10 1_555 1_555
H16 C11 1_555 1_555
H17 C11 1_555 1_555
C12 C11 1_555 1_555
H18 C12 1_555 1_555
H19 C12 1_555 1_555
C13 C12 1_555 1_555
H20 C13 1_555 1_555
H21 C13 1_555 1_555
C14 O7 1_555 1_555
C15 H22 1_555 1_555
C16 C15 1_555 1_555
H23 C16 1_555 1_555
C17 C16 1_555 1_555
H24 C17 1_555 1_555
C18 C17 1_555 1_555
C19 C18 1_555 1_555
H25 C19 1_555 1_555
C20 C19 1_555 1_555
H26 C20 1_555 1_555
C21 C20 1_555 1_555
C22 C21 1_555 1_555
H27 C22 1_555 1_555
C23 C22 1_555 1_555
H28 C23 1_555 1_555
C24 N2 1_555 1_555
H29 C24 1_555 1_555
C25 N2 1_555 1_555
C26 N1 1_555 1_555
O3A Er1 1_555 1_555
O4_2 Er1 1_555 1_555
O6A Er1 1_555 1_555
Er1A O3 1_555 1_555
Er1_2 O4 1_555 1_555
Er1A_2 O6 1_555 1_555
O2 C1 1_555 1_555
C13 C14 1_555 1_555
C18 C26 1_555 1_555
C21 C25 1_555 1_555
C23 C24 1_555 1_555
C25 C26 1_555 1_555

#END
