
#######################################################################
#
#                 Cambridge Crystallographic Data Centre
#                                CCDC 
#
#######################################################################
#
# If this CIF has been generated from an entry in the Cambridge 
# Structural Database, then it will include bibliographic, chemical, 
# crystal, experimental, refinement or atomic coordinate data resulting 
# from the CCDC's data processing and validation procedures.
#
#######################################################################

data_AVUXUL
_symmetry_cell_setting           triclinic
_symmetry_space_group_name_H-M   'P -1'
_symmetry_Int_Tables_number      2
_space_group_name_Hall           '-P 1'
loop_
_symmetry_equiv_pos_site_id
_symmetry_equiv_pos_as_xyz
1 x,y,z
2 -x,-y,-z
_cell_length_a                   9.989(2)
_cell_length_b                   10.545(2)
_cell_length_c                   19.091(4)
_cell_angle_alpha                84.65(3)
_cell_angle_beta                 84.35(3)
_cell_angle_gamma                82.65(3)
_cell_volume                     1978.08
loop_
_atom_site_label
_atom_site_type_symbol
_atom_site_fract_x
_atom_site_fract_y
_atom_site_fract_z
Tb1 Tb 0.26242(5) 0.00128(5) 0.49374(2)
S1 S -0.0701(4) 0.3355(3) 0.05656(17)
S2 S 0.2011(4) 0.5270(3) 0.13450(15)
O1 O 0.5067(10) 0.3044(10) -0.0165(4)
O2 O 0.4429(8) 0.0867(8) 0.4289(4)
O3 O 0.6602(8) 0.1176(8) 0.4064(4)
O4 O 0.1263(7) 0.0379(8) 0.3994(3)
O5 O -0.2541(12) -0.0265(12) 0.0131(5)
O6 O 0.1904(9) 0.2446(9) 0.4837(4)
O7 O 0.3200(8) 0.1675(8) 0.5676(4)
O8 O -0.0614(7) -0.0555(9) 0.4304(4)
O9 O 0.3987(10) -0.1650(9) 0.4324(5)
O10 O 0.1399(8) -0.1874(8) 0.5047(5)
N1 N 0.3118(9) 0.4325(10) 0.0153(4)
H1 H 0.2474 0.4843 -0.0018
N2 N 0.4282(10) 0.3607(10) 0.1125(4)
H2 H 0.4913 0.3358 0.0811
N3 N -0.1283(11) 0.0922(11) 0.0989(5)
H3 H -0.1579 0.0262 0.0857
N4 N -0.1757(11) 0.1713(9) -0.0148(4)
H4 H -0.1904 0.2394 -0.0427
C1 C 0.4040(14) 0.3553(15) -0.2289(7)
H5 H 0.4705 0.3506 -0.2661
C2 C 0.2714(15) 0.3650(16) -0.2424(7)
H6 H 0.2483 0.3641 -0.2883
C3 C 0.1699(15) 0.3711(17) -0.1854(7)
H7 H 0.0789 0.3723 -0.1923
C4 C 0.2081(15) 0.3724(14) -0.1151(7)
H8 H 0.1426 0.3836 -0.0776
C5 C 0.3426(14) 0.3634(12) -0.1035(6)
C6 C 0.4448(14) 0.3551(13) -0.1608(6)
H9 H 0.5360 0.3487 -0.1535
C7 C 0.3953(13) 0.3603(12) -0.0317(6)
C8 C 0.3180(13) 0.4347(11) 0.0881(5)
C9 C 0.4519(11) 0.3205(9) 0.1860(5)
C10 C 0.5846(10) 0.2987(10) 0.2044(5)
H10 H 0.6540 0.3253 0.1730
C11 C 0.6139(10) 0.2388(10) 0.2703(5)
H11 H 0.7015 0.2252 0.2826
C12 C 0.5084(10) 0.2040(9) 0.3196(5)
C13 C 0.3741(12) 0.2281(10) 0.3019(5)
H12 H 0.3053 0.2021 0.3344
C14 C 0.3409(12) 0.2877(11) 0.2356(5)
H13 H 0.2521 0.3214 0.2282
C15 C 0.5368(11) 0.1349(10) 0.3894(5)
C16 C -0.3956(16) 0.0155(14) -0.1127(7)
H14 H -0.4366 -0.0304 -0.0749
C17 C -0.443(2) 0.0165(15) -0.1792(9)
H15 H -0.5191 -0.0184 -0.1858
C18 C -0.371(2) 0.0779(16) -0.2395(8)
H16 H -0.4026 0.0465 -0.2868
C19 C -0.2589(19) 0.1382(16) -0.2299(8)
H17 H -0.2138 0.1785 -0.2689
C20 C -0.2211(15) 0.1389(16) -0.1617(6)
H18 H -0.1496 0.1827 -0.1555
C21 C -0.2820(15) 0.0768(12) -0.1033(6)
C22 C -0.2402(13) 0.0688(13) -0.0291(6)
C23 C -0.1246(11) 0.1923(12) 0.0491(5)
C24 C -0.0890(13) 0.0784(12) 0.1694(6)
C25 C -0.1441(12) -0.0166(10) 0.2141(5)
H19 H -0.2015 -0.0658 0.1964
C26 C -0.1155(11) -0.0400(12) 0.2841(5)
H20 H -0.1538 -0.1039 0.3131
C27 C -0.0289(11) 0.0303(11) 0.3096(5)
C28 C 0.0305(13) 0.1224(12) 0.2642(5)
H21 H 0.0914 0.1688 0.2813
C29 C 0.0013(13) 0.1498(12) 0.1943(6)
H22 H 0.0401 0.2133 0.1654
C30 C 0.0162(10) 0.0022(11) 0.3845(5)
C31 C 0.149(2) -0.3066(17) 0.5474(10)
H23 H 0.0827 -0.3565 0.5360
H24 H 0.1059 -0.2855 0.5960
H25 H 0.2356 -0.3535 0.5404
O12 O 0.2433(15) 0.3714(12) 0.5575(8)
N5 N 0.2512(14) 0.2627(11) 0.5357(6)
Tb1A Tb -0.26242(5) -0.00128(5) 0.50626(2)
Tb1_2 Tb -0.73758(5) 0.00128(5) 0.49374(2)
Tb1A_2 Tb 0.73758(5) -0.00128(5) 0.50626(2)
S1A S 0.0701(4) -0.3355(3) 0.94344(17)
S2A S -0.2011(4) -0.5270(3) 0.86550(15)
O1A O -0.5067(10) -0.3044(10) 1.0165(4)
O2A O -0.4429(8) -0.0867(8) 0.5711(4)
O3A O -0.6602(8) -0.1176(8) 0.5936(4)
O3_2 O -0.3398(8) 0.1176(8) 0.4064(4)
O3A_2 O 0.3398(8) -0.1176(8) 0.5936(4)
O4A O -0.1263(7) -0.0379(8) 0.6006(3)
O5A O 0.2541(12) 0.0265(12) 0.9869(5)
O6A O -0.1904(9) -0.2446(9) 0.5163(4)
O7A O -0.3200(8) -0.1675(8) 0.4324(4)
O8A O 0.0614(7) 0.0555(9) 0.5696(4)
O9A O -0.3987(10) 0.1650(9) 0.5676(5)
O10A O -0.1399(8) 0.1874(8) 0.4953(5)
N1A N -0.3118(9) -0.4325(10) 0.9847(4)
H1A H -0.2474 -0.4843 1.0018
N2A N -0.4282(10) -0.3607(10) 0.8875(4)
H2A H -0.4913 -0.3358 0.9189
N3A N 0.1283(11) -0.0922(11) 0.9011(5)
H3A H 0.1579 -0.0262 0.9143
N4A N 0.1757(11) -0.1713(9) 1.0148(4)
H4A H 0.1904 -0.2394 1.0427
C1A C -0.4040(14) -0.3553(15) 1.2289(7)
H5A H -0.4705 -0.3506 1.2661
C2A C -0.2714(15) -0.3650(16) 1.2424(7)
H6A H -0.2483 -0.3641 1.2883
C3A C -0.1699(15) -0.3711(17) 1.1854(7)
H7A H -0.0789 -0.3723 1.1923
C4A C -0.2081(15) -0.3724(14) 1.1151(7)
H8A H -0.1426 -0.3836 1.0776
C5A C -0.3426(14) -0.3634(12) 1.1035(6)
C6A C -0.4448(14) -0.3551(13) 1.1608(6)
H9A H -0.5360 -0.3487 1.1535
C7A C -0.3953(13) -0.3603(12) 1.0317(6)
C8A C -0.3180(13) -0.4347(11) 0.9119(5)
C9A C -0.4519(11) -0.3205(9) 0.8140(5)
C10A C -0.5846(10) -0.2987(10) 0.7956(5)
H10A H -0.6540 -0.3253 0.8270
C11A C -0.6139(10) -0.2388(10) 0.7297(5)
H11A H -0.7015 -0.2252 0.7174
C12A C -0.5084(10) -0.2040(9) 0.6804(5)
C13A C -0.3741(12) -0.2281(10) 0.6981(5)
H12A H -0.3053 -0.2021 0.6656
C14A C -0.3409(12) -0.2877(11) 0.7644(5)
H13A H -0.2521 -0.3214 0.7718
C15A C -0.5368(11) -0.1349(10) 0.6106(5)
C16A C 0.3956(16) -0.0155(14) 1.1127(7)
H14A H 0.4366 0.0304 1.0749
C17A C 0.443(2) -0.0165(15) 1.1792(9)
H15A H 0.5191 0.0184 1.1858
C18A C 0.371(2) -0.0779(16) 1.2395(8)
H16A H 0.4026 -0.0465 1.2868
C19A C 0.2589(19) -0.1382(16) 1.2299(8)
H17A H 0.2138 -0.1785 1.2689
C20A C 0.2211(15) -0.1389(16) 1.1617(6)
H18A H 0.1496 -0.1827 1.1555
C21A C 0.2820(15) -0.0768(12) 1.1033(6)
C22A C 0.2402(13) -0.0688(13) 1.0291(6)
C23A C 0.1246(11) -0.1923(12) 0.9509(5)
C24A C 0.0890(13) -0.0784(12) 0.8306(6)
C25A C 0.1441(12) 0.0166(10) 0.7859(5)
H19A H 0.2015 0.0658 0.8036
C26A C 0.1155(11) 0.0400(12) 0.7159(5)
H20A H 0.1538 0.1039 0.6869
C27A C 0.0289(11) -0.0303(11) 0.6904(5)
C28A C -0.0305(13) -0.1224(12) 0.7358(5)
H21A H -0.0914 -0.1688 0.7187
C29A C -0.0013(13) -0.1498(12) 0.8057(6)
H22A H -0.0401 -0.2133 0.8346
C30A C -0.0162(10) -0.0022(11) 0.6155(5)
C31A C -0.149(2) 0.3066(17) 0.4526(10)
H23A H -0.0827 0.3565 0.4640
H24A H -0.1059 0.2855 0.4040
H25A H -0.2356 0.3535 0.4596
O12A O -0.2433(15) -0.3714(12) 0.4425(8)
N5A N -0.2512(14) -0.2627(11) 0.4643(6)
O11 O 0.3646(17) 0.6104(15) 0.3942(9)
H26 H 0.2999 0.6091 0.4016
C32 C 0.452(2) 0.501(3) 0.3998(12)
H27 H 0.4987 0.5046 0.4411
H28 H 0.5171 0.4855 0.3601
H29 H 0.3959 0.4328 0.4076
O13 O 0.079(3) 0.508(3) 0.3435(16)
C33 C 0.172(2) 0.575(2) 0.3047(12)
loop_
_geom_bond_atom_site_label_1
_geom_bond_atom_site_label_2
_geom_bond_site_symmetry_1
_geom_bond_site_symmetry_2
Tb1 O2 1_555 1_555
S1 C23 1_555 1_555
S2 C8 1_555 1_555
O1 C7 1_555 1_555
O2 C15 1_555 1_555
O3 C15 1_555 1_555
O4 Tb1 1_555 1_555
O5 C22 1_555 1_555
O6 Tb1 1_555 1_555
O7 Tb1 1_555 1_555
O8 C30 1_555 1_555
O9 Tb1 1_555 1_555
O10 Tb1 1_555 1_555
N1 H1 1_555 1_555
N2 H2 1_555 1_555
N3 H3 1_555 1_555
N4 H4 1_555 1_555
C1 H5 1_555 1_555
C2 C1 1_555 1_555
H6 C2 1_555 1_555
C3 C2 1_555 1_555
H7 C3 1_555 1_555
C4 C3 1_555 1_555
H8 C4 1_555 1_555
C5 C4 1_555 1_555
C6 C1 1_555 1_555
H9 C6 1_555 1_555
C7 N1 1_555 1_555
C8 N1 1_555 1_555
C9 N2 1_555 1_555
C10 C9 1_555 1_555
H10 C10 1_555 1_555
C11 C10 1_555 1_555
H11 C11 1_555 1_555
C12 C11 1_555 1_555
C13 C12 1_555 1_555
H12 C13 1_555 1_555
C14 C9 1_555 1_555
H13 C14 1_555 1_555
C15 C12 1_555 1_555
C16 H14 1_555 1_555
C17 C16 1_555 1_555
H15 C17 1_555 1_555
C18 C17 1_555 1_555
H16 C18 1_555 1_555
C19 C18 1_555 1_555
H17 C19 1_555 1_555
C20 C19 1_555 1_555
H18 C20 1_555 1_555
C21 C16 1_555 1_555
C22 N4 1_555 1_555
C23 N3 1_555 1_555
C24 N3 1_555 1_555
C25 C24 1_555 1_555
H19 C25 1_555 1_555
C26 C25 1_555 1_555
H20 C26 1_555 1_555
C27 C26 1_555 1_555
C28 C27 1_555 1_555
H21 C28 1_555 1_555
C29 C24 1_555 1_555
H22 C29 1_555 1_555
C30 O4 1_555 1_555
C31 O10 1_555 1_555
H23 C31 1_555 1_555
H24 C31 1_555 1_555
H25 C31 1_555 1_555
O11 H26 1_555 1_555
C32 O11 1_555 1_555
H27 C32 1_555 1_555
H28 C32 1_555 1_555
H29 C32 1_555 1_555
O12 N5 1_555 1_555
N5 O6 1_555 1_555
O13 C33 1_555 1_555
Tb1A O8 1_555 1_555
Tb1_2 O3A 1_555 1_555
Tb1A_2 O3 1_555 1_555
S1A C23A 1_555 1_555
S2A C8A 1_555 1_555
O1A C7A 1_555 1_555
O2A Tb1A 1_555 1_555
O3A C15A 1_555 1_555
O3_2 Tb1A 1_555 1_555
O3A_2 Tb1 1_555 1_555
O4A Tb1A 1_555 1_555
O5A C22A 1_555 1_555
O6A Tb1A 1_555 1_555
O7A Tb1A 1_555 1_555
O8A Tb1 1_555 1_555
O9A Tb1A 1_555 1_555
O10A Tb1A 1_555 1_555
N1A H1A 1_555 1_555
N2A H2A 1_555 1_555
N3A H3A 1_555 1_555
N4A H4A 1_555 1_555
C1A H5A 1_555 1_555
C2A C1A 1_555 1_555
H6A C2A 1_555 1_555
C3A C2A 1_555 1_555
H7A C3A 1_555 1_555
C4A C3A 1_555 1_555
H8A C4A 1_555 1_555
C5A C4A 1_555 1_555
C6A C1A 1_555 1_555
H9A C6A 1_555 1_555
C7A N1A 1_555 1_555
C8A N1A 1_555 1_555
C9A N2A 1_555 1_555
C10A C9A 1_555 1_555
H10A C10A 1_555 1_555
C11A C10A 1_555 1_555
H11A C11A 1_555 1_555
C12A C11A 1_555 1_555
C13A C12A 1_555 1_555
H12A C13A 1_555 1_555
C14A C9A 1_555 1_555
H13A C14A 1_555 1_555
C15A O2A 1_555 1_555
C16A H14A 1_555 1_555
C17A C16A 1_555 1_555
H15A C17A 1_555 1_555
C18A C17A 1_555 1_555
H16A C18A 1_555 1_555
C19A C18A 1_555 1_555
H17A C19A 1_555 1_555
C20A C19A 1_555 1_555
H18A C20A 1_555 1_555
C21A C16A 1_555 1_555
C22A N4A 1_555 1_555
C23A N3A 1_555 1_555
C24A N3A 1_555 1_555
C25A C24A 1_555 1_555
H19A C25A 1_555 1_555
C26A C25A 1_555 1_555
H20A C26A 1_555 1_555
C27A C26A 1_555 1_555
C28A C27A 1_555 1_555
H21A C28A 1_555 1_555
C29A C24A 1_555 1_555
H22A C29A 1_555 1_555
C30A O4A 1_555 1_555
C31A O10A 1_555 1_555
H23A C31A 1_555 1_555
H24A C31A 1_555 1_555
H25A C31A 1_555 1_555
O12A N5A 1_555 1_555
N5A O6A 1_555 1_555
O7 N5 1_555 1_555
N2 C8 1_555 1_555
N4 C23 1_555 1_555
C5 C6 1_555 1_555
C5 C7 1_555 1_555
C13 C14 1_555 1_555
C20 C21 1_555 1_555
C21 C22 1_555 1_555
C27 C30 1_555 1_555
C28 C29 1_555 1_555
O7A N5A 1_555 1_555
O8A C30A 1_555 1_555
N2A C8A 1_555 1_555
N4A C23A 1_555 1_555
C5A C6A 1_555 1_555
C5A C7A 1_555 1_555
C12A C15A 1_555 1_555
C13A C14A 1_555 1_555
C20A C21A 1_555 1_555
C21A C22A 1_555 1_555
C27A C30A 1_555 1_555
C28A C29A 1_555 1_555

#END
