
#######################################################################
#
#                 Cambridge Crystallographic Data Centre
#                                CCDC 
#
#######################################################################
#
# If this CIF has been generated from an entry in the Cambridge 
# Structural Database, then it will include bibliographic, chemical, 
# crystal, experimental, refinement or atomic coordinate data resulting 
# from the CCDC's data processing and validation procedures.
#
#######################################################################

data_AVUXEU
_symmetry_cell_setting           triclinic
_symmetry_space_group_name_H-M   'P -1'
_symmetry_Int_Tables_number      2
_space_group_name_Hall           '-P 1'
loop_
_symmetry_equiv_pos_site_id
_symmetry_equiv_pos_as_xyz
1 x,y,z
2 -x,-y,-z
_cell_length_a                   12.267(4)
_cell_length_b                   13.903(5)
_cell_length_c                   15.348(5)
_cell_angle_alpha                89.008(7)
_cell_angle_beta                 86.468(7)
_cell_angle_gamma                64.754(6)
_cell_volume                     2362.94
loop_
_atom_site_label
_atom_site_type_symbol
_atom_site_fract_x
_atom_site_fract_y
_atom_site_fract_z
Pr1 Pr 0.34845(6) 1.13951(5) 0.50643(4)
Pr2 Pr 0.36066(6) 0.60109(6) -0.06836(4)
N1 N 0.2795(9) 1.3499(7) 0.4843(6)
N2 N 0.1603(8) 1.2482(7) 0.4111(6)
N3 N 0.1872(10) 0.7972(8) -0.0837(6)
N4 N 0.1333(10) 0.6262(9) -0.0880(6)
O1 O 0.3267(7) 0.9990(6) 0.4261(5)
O2 O 0.4772(8) 0.8373(6) 0.4427(5)
O3 O 0.2339(8) 0.6334(8) 0.0745(6)
O4 O 0.4205(7) 0.5097(6) 0.0828(5)
O5 O 0.4169(7) 1.1607(6) 0.3485(5)
O6 O 0.5490(7) 1.0178(6) 0.4091(5)
O7 O 0.4529(9) 0.6965(7) 0.0086(6)
O8 O 0.6086(8) 0.5848(7) 0.0819(6)
O9 O 0.1735(8) 1.1232(7) 0.5740(5)
O10 O 0.1144(9) 1.1699(8) 0.7114(6)
O11 O 0.4266(8) 0.6945(7) 0.8129(5)
O12 O 0.3265(8) 0.6076(7) 0.7674(5)
O13 O 0.2888(8) 1.2304(6) 0.6571(5)
H1 H 0.3148 1.1904 0.7071
H2 H 0.2412 1.3032 0.6616
C1 C 0.3777(11) 0.8999(10) 0.4141(7)
C2 C 0.3116(11) 0.8576(9) 0.3551(9)
H3 H 0.2297 0.8801 0.3798
H4 H 0.3065 0.8914 0.2987
C3 C 0.3633(12) 0.7435(10) 0.3408(8)
H5 H 0.3628 0.7097 0.3966
H6 H 0.4469 0.7199 0.3197
C4 C 0.3006(12) 0.7046(10) 0.2771(9)
H7 H 0.2154 0.7327 0.2950
H8 H 0.3078 0.7323 0.2197
C5 C 0.3517(12) 0.5853(10) 0.2714(8)
H9 H 0.3473 0.5579 0.3294
H10 H 0.4363 0.5578 0.2518
C6 C 0.2885(13) 0.5427(10) 0.2104(7)
H11 H 0.3167 0.4667 0.2185
H12 H 0.2022 0.5761 0.2248
C7 C 0.3132(13) 0.5644(11) 0.1161(7)
C8 C 0.5099(11) 1.0732(9) 0.3403(8)
C9 C 0.5737(11) 1.0308(9) 0.2518(7)
H13 H 0.6574 0.9826 0.2590
H14 H 0.5718 1.0891 0.2154
C10 C 0.5099(13) 0.9719(11) 0.2081(8)
H15 H 0.5138 0.9126 0.2440
H16 H 0.4256 1.0197 0.2028
C11 C 0.5694(18) 0.9314(15) 0.1184(12)
H17 H 0.6535 0.8826 0.1230
H18 H 0.5653 0.9902 0.0817
C12 C 0.5003(17) 0.8736(17) 0.0786(17)
H19 H 0.4296 0.8827 0.1157
H20 H 0.4749 0.9010 0.0211
C13 C 0.589(2) 0.7584(14) 0.0730(19)
H21 H 0.6270 0.7394 0.1281
H22 H 0.6515 0.7515 0.0284
C14 C 0.5409(15) 0.6768(12) 0.0527(10)
C15 C 0.1161(11) 1.1206(10) 0.6437(9)
C16 C 0.0443(12) 1.0552(10) 0.6436(9)
H23 H 0.0200 1.0460 0.7033
H24 H -0.0283 1.0937 0.6128
C17 C 0.1142(13) 0.9477(11) 0.6014(8)
H25 H 0.1460 0.9568 0.5440
H26 H 0.0597 0.9149 0.5937
C18 C 0.2183(12) 0.8735(9) 0.6539(8)
H27 H 0.2732 0.9060 0.6606
H28 H 0.1864 0.8658 0.7117
C19 C 0.2889(12) 0.7636(11) 0.6132(8)
H29 H 0.2365 0.7274 0.6138
H30 H 0.3109 0.7717 0.5527
C20 C 0.4023(12) 0.6939(10) 0.6579(7)
H31 H 0.4545 0.7303 0.6573
H32 H 0.4445 0.6289 0.6239
C21 C 0.3829(10) 0.6642(10) 0.7519(8)
C22 C 0.1019(11) 1.2003(10) 0.3728(8)
H33 H 0.1286 1.1275 0.3808
C23 C 0.0058(12) 1.2505(11) 0.3226(8)
H34 H -0.0298 1.2123 0.2962
C24 C -0.0368(11) 1.3571(12) 0.3120(8)
H35 H -0.1031 1.3925 0.2787
C25 C 0.0179(11) 1.4145(9) 0.3505(8)
C26 C -0.0186(13) 1.5268(11) 0.3440(9)
H36 H -0.0831 1.5656 0.3101
C27 C 0.0336(13) 1.5793(10) 0.3832(9)
H37 H 0.0041 1.6527 0.3778
C28 C 0.1356(12) 1.5223(10) 0.4340(8)
C29 C 0.1961(14) 1.5709(11) 0.4762(9)
H38 H 0.1693 1.6443 0.4739
C30 C 0.2957(14) 1.5102(11) 0.5215(9)
H39 H 0.3359 1.5422 0.5509
C31 C 0.3362(13) 1.3983(10) 0.5226(8)
H40 H 0.4053 1.3574 0.5514
C32 C 0.1817(10) 1.4088(8) 0.4407(7)
C33 C 0.1201(10) 1.3553(9) 0.4002(7)
C34 C 0.1038(12) 0.5442(12) -0.0892(7)
H41 H 0.1649 0.4764 -0.0823
C35 C -0.0107(14) 0.5529(15) -0.0999(8)
H42 H -0.0267 0.4933 -0.1011
C36 C -0.1005(13) 0.6539(16) -0.1086(8)
H43 H -0.1786 0.6627 -0.1172
C37 C -0.0770(13) 0.7435(14) -0.1049(9)
C38 C -0.1636(13) 0.8496(17) -0.1165(10)
H44 H -0.2434 0.8619 -0.1227
C39 C -0.1357(19) 0.9323(16) -0.1187(12)
H45 H -0.1954 1.0004 -0.1269
C40 C -0.0181(14) 0.9173(13) -0.1088(9)
C41 C 0.0148(16) 1.0009(13) -0.1095(9)
H46 H -0.0428 1.0699 -0.1179
C42 C 0.1281(16) 0.9829(13) -0.0982(9)
H47 H 0.1505 1.0390 -0.1001
C43 C 0.2130(13) 0.8805(11) -0.0836(8)
H48 H 0.2913 0.8698 -0.0734
C44 C 0.0705(12) 0.8157(12) -0.0963(8)
C45 C 0.0428(12) 0.7250(12) -0.0959(8)
O2A O 0.5228(8) 1.1627(6) 0.5573(5)
O6A O 0.4510(7) 0.9822(6) 0.5909(5)
O4A O 0.5795(7) 0.4903(6) -0.0828(5)
O8A O 0.3914(8) 0.4152(7) -0.0819(6)
O11_2 O 0.4266(8) 0.6945(7) -0.1871(5)
O12_2 O 0.3265(8) 0.6076(7) -0.2326(5)
Pr1A Pr 0.65155(6) 0.86049(5) 0.49357(4)
Pr2A Pr 0.63934(6) 0.39891(6) 0.06836(4)
Pr2_2 Pr 0.36066(6) 0.60109(6) 0.93164(4)
O14 O 0.3144(8) 0.4074(7) 0.7411(6)
O15 O 0.6371(9) 0.7327(8) 0.8155(7)
O16 O 0.0260(11) 0.2594(11) 0.8790(7)
loop_
_geom_bond_atom_site_label_1
_geom_bond_atom_site_label_2
_geom_bond_site_symmetry_1
_geom_bond_site_symmetry_2
Pr1 N1 1_555 1_555
Pr2 N3 1_555 1_555
N1 C31 1_555 1_555
N2 Pr1 1_555 1_555
N3 C43 1_555 1_555
N4 Pr2 1_555 1_555
O1 Pr1 1_555 1_555
O2 C1 1_555 1_555
O3 Pr2 1_555 1_555
O4 Pr2 1_555 1_555
O5 Pr1 1_555 1_555
O6 Pr1 1_555 1_555
O7 Pr2 1_555 1_555
O8 C14 1_555 1_555
O9 Pr1 1_555 1_555
O10 C15 1_555 1_555
O11 C21 1_555 1_555
O12 C21 1_555 1_555
O13 Pr1 1_555 1_555
H1 O13 1_555 1_555
H2 O13 1_555 1_555
C1 O1 1_555 1_555
C2 C1 1_555 1_555
H3 C2 1_555 1_555
H4 C2 1_555 1_555
C3 C2 1_555 1_555
H5 C3 1_555 1_555
H6 C3 1_555 1_555
C4 C3 1_555 1_555
H7 C4 1_555 1_555
H8 C4 1_555 1_555
C5 C4 1_555 1_555
H9 C5 1_555 1_555
H10 C5 1_555 1_555
C6 C5 1_555 1_555
H11 C6 1_555 1_555
H12 C6 1_555 1_555
C7 O3 1_555 1_555
C8 O5 1_555 1_555
C9 C8 1_555 1_555
H13 C9 1_555 1_555
H14 C9 1_555 1_555
C10 C9 1_555 1_555
H15 C10 1_555 1_555
H16 C10 1_555 1_555
C11 C10 1_555 1_555
H17 C11 1_555 1_555
H18 C11 1_555 1_555
C12 C11 1_555 1_555
H19 C12 1_555 1_555
H20 C12 1_555 1_555
C13 C12 1_555 1_555
H21 C13 1_555 1_555
H22 C13 1_555 1_555
C14 O7 1_555 1_555
C15 O9 1_555 1_555
C16 C15 1_555 1_555
H23 C16 1_555 1_555
H24 C16 1_555 1_555
C17 C16 1_555 1_555
H25 C17 1_555 1_555
H26 C17 1_555 1_555
C18 C17 1_555 1_555
H27 C18 1_555 1_555
H28 C18 1_555 1_555
C19 C18 1_555 1_555
H29 C19 1_555 1_555
H30 C19 1_555 1_555
C20 C19 1_555 1_555
H31 C20 1_555 1_555
H32 C20 1_555 1_555
C21 C20 1_555 1_555
C22 N2 1_555 1_555
H33 C22 1_555 1_555
C23 C22 1_555 1_555
H34 C23 1_555 1_555
C24 C23 1_555 1_555
H35 C24 1_555 1_555
C25 C24 1_555 1_555
C26 C25 1_555 1_555
H36 C26 1_555 1_555
C27 C26 1_555 1_555
H37 C27 1_555 1_555
C28 C27 1_555 1_555
C29 C28 1_555 1_555
H38 C29 1_555 1_555
C30 C29 1_555 1_555
H39 C30 1_555 1_555
C31 C30 1_555 1_555
H40 C31 1_555 1_555
C32 N1 1_555 1_555
C33 N2 1_555 1_555
C34 N4 1_555 1_555
H41 C34 1_555 1_555
C35 C34 1_555 1_555
H42 C35 1_555 1_555
C36 C35 1_555 1_555
H43 C36 1_555 1_555
C37 C36 1_555 1_555
C38 C37 1_555 1_555
H44 C38 1_555 1_555
C39 C38 1_555 1_555
H45 C39 1_555 1_555
C40 C39 1_555 1_555
C41 C40 1_555 1_555
H46 C41 1_555 1_555
C42 C41 1_555 1_555
H47 C42 1_555 1_555
C43 C42 1_555 1_555
H48 C43 1_555 1_555
C44 N3 1_555 1_555
C45 N4 1_555 1_555
O2A Pr1 1_555 1_555
O6A Pr1 1_555 1_555
O4A Pr2 1_555 1_555
O8A Pr2 1_555 1_555
O11_2 Pr2 1_555 1_555
O12_2 Pr2 1_555 1_555
Pr1A O2 1_555 1_555
Pr2A O4 1_555 1_555
Pr2_2 O11 1_555 1_555
O4 C7 1_555 1_555
O6 C8 1_555 1_555
O6 Pr1A 1_555 1_555
O8 Pr2A 1_555 1_555
O12 Pr2_2 1_555 1_555
C6 C7 1_555 1_555
C13 C14 1_555 1_555
C25 C33 1_555 1_555
C28 C32 1_555 1_555
C32 C33 1_555 1_555
C37 C45 1_555 1_555
C40 C44 1_555 1_555
C44 C45 1_555 1_555
O6A Pr1A 1_555 1_555
O4A Pr2A 1_555 1_555

#END
