
#######################################################################
#
#                 Cambridge Crystallographic Data Centre
#                                CCDC 
#
#######################################################################
#
# If this CIF has been generated from an entry in the Cambridge 
# Structural Database, then it will include bibliographic, chemical, 
# crystal, experimental, refinement or atomic coordinate data resulting 
# from the CCDC's data processing and validation procedures.
#
#######################################################################

data_AVUYOF
_symmetry_cell_setting           monoclinic
_symmetry_space_group_name_H-M   'C 2/c'
_symmetry_Int_Tables_number      15
_space_group_name_Hall           '-C 2yn'
loop_
_symmetry_equiv_pos_site_id
_symmetry_equiv_pos_as_xyz
1 x,y,z
2 1/2+x,1/2+y,z
3 x,-y,1/2+z
4 1/2+x,1/2-y,1/2+z
5 -x,-y,-z
6 1/2-x,1/2-y,-z
7 -x,y,1/2-z
8 1/2-x,1/2+y,1/2-z
_cell_length_a                   22.962(5)
_cell_length_b                   8.3693(17)
_cell_length_c                   21.005(4)
_cell_angle_alpha                90
_cell_angle_beta                 103.70(3)
_cell_angle_gamma                90
_cell_volume                     3921.81
loop_
_atom_site_label
_atom_site_type_symbol
_atom_site_fract_x
_atom_site_fract_y
_atom_site_fract_z
Cu1 Cu 0.0000 0.19540(3) 0.7500
O1 O 0.0000 -0.0687(2) 0.7500
N1 N 0.09034(7) 0.20601(17) 0.79435(7)
N2 N 0.19049(7) 0.0436(2) 0.94174(8)
N3 N 0.24547(7) 0.0554(2) 0.96775(8)
N4 N 0.35155(9) -0.1280(3) 1.10458(10)
N5 N -0.01856(7) 0.20626(16) 0.84003(7)
N6 N 0.01144(7) 0.48597(19) 0.97643(7)
C1 C 0.17346(8) 0.1338(2) 0.88221(9)
C2 C 0.11301(7) 0.1248(2) 0.84985(8)
H1 H 0.0876 0.0605 0.8673
C3 C 0.12782(8) 0.2977(2) 0.76965(9)
H2 H 0.1122 0.3556 0.7316
C4 C 0.18859(8) 0.3098(2) 0.79824(10)
H3 H 0.2133 0.3721 0.7791
C5 C 0.21191(8) 0.2274(3) 0.85600(10)
H4 H 0.2524 0.2348 0.8767
C6 C 0.26424(9) -0.0336(3) 1.02700(10)
C7 C 0.32631(9) -0.0489(3) 1.04984(10)
H5 H 0.3510 -0.0021 1.0259
C8 C 0.31532(13) -0.1942(3) 1.13845(13)
H6 H 0.3325 -0.2488 1.1769
C9 C 0.25295(13) -0.1855(3) 1.11895(14)
H7 H 0.2293 -0.2338 1.1437
C10 C 0.22702(10) -0.1038(3) 1.06211(12)
H8 H 0.1856 -0.0962 1.0478
C11 C -0.05117(8) 0.0925(2) 0.86060(8)
H9 H -0.0656 0.0075 0.8328
C12 C -0.06414(9) 0.0974(2) 0.92211(9)
H10 H -0.0857 0.0150 0.9354
C13 C -0.04480(10) 0.2251(2) 0.96312(9)
H11 H -0.0536 0.2318 1.0040
C14 C -0.01143(8) 0.3443(2) 0.94129(8)
C15 C 0.00196(8) 0.3284(2) 0.88055(8)
H12 H 0.0260 0.4052 0.8675
H13 H 0.0102(10) -0.121(3) 0.7838(11)
O2 O 0.0000 0.4984(2) 0.7500
H14 H -0.0248(11) 0.544(3) 0.7628(12)
H13F H -0.0102(10) -0.121(3) 0.7162(11)
N6D N -0.01144(7) 0.51403(19) 1.02357(7)
C14D C 0.01143(8) 0.6557(2) 1.05871(8)
C13D C 0.04480(10) 0.7749(2) 1.03688(9)
C12D C 0.06414(9) 0.9026(2) 1.07789(9)
C11D C 0.05117(8) 0.9075(2) 1.13940(8)
N5D N 0.01856(7) 0.79374(16) 1.15997(7)
C15D C -0.00196(8) 0.6716(2) 1.11945(8)
H12D H -0.0260 0.5948 1.1325
H9D H 0.0656 0.9925 1.1672
H10D H 0.0857 0.9850 1.0646
H11D H 0.0536 0.7682 0.9960
H14F H 0.0248(11) 0.544(3) 0.7372(12)
N1F N -0.09034(7) 0.20601(17) 0.70565(7)
N2F N -0.19049(7) 0.0436(2) 0.55826(8)
N3F N -0.24547(7) 0.0554(2) 0.53225(8)
N4F N -0.35155(9) -0.1280(3) 0.39542(10)
C1F C -0.17346(8) 0.1338(2) 0.61779(9)
C2F C -0.11301(7) 0.1248(2) 0.65015(8)
H1F H -0.0876 0.0605 0.6327
C3F C -0.12782(8) 0.2977(2) 0.73035(9)
H2F H -0.1122 0.3556 0.7684
C4F C -0.18859(8) 0.3098(2) 0.70176(10)
H3F H -0.2133 0.3721 0.7209
C5F C -0.21191(8) 0.2274(3) 0.64400(10)
H4F H -0.2524 0.2348 0.6233
C6F C -0.26424(9) -0.0336(3) 0.47300(10)
C7F C -0.32631(9) -0.0489(3) 0.45016(10)
H5F H -0.3510 -0.0021 0.4741
C8F C -0.31532(13) -0.1942(3) 0.36155(13)
H6F H -0.3325 -0.2488 0.3231
C9F C -0.25295(13) -0.1855(3) 0.38105(14)
H7F H -0.2293 -0.2338 0.3563
C10F C -0.22702(10) -0.1038(3) 0.43789(12)
H8F H -0.1856 -0.0962 0.4522
N5F N 0.01856(7) 0.20626(16) 0.65997(7)
Cu1B Cu 0.0000 0.80460(3) 1.2500
O3 O 0.03809(7) -0.21425(18) 0.86817(7)
H15 H 0.0678(14) -0.275(3) 0.8756(14)
H16 H 0.0079(14) -0.255(4) 0.8757(15)
Cl1 Cl -0.12689(2) -0.32517(7) 0.84343(3)
O4 O -0.16120(11) -0.4652(3) 0.84062(15)
O5 O -0.16107(10) -0.1887(3) 0.82187(18)
O6 O -0.1169(2) -0.2834(6) 0.9139(2)
O8 O -0.09436(18) -0.3298(5) 0.7854(2)
O7? O -0.0782(2) -0.2950(5) 0.89907(19)
O9? O -0.07538(17) -0.3632(5) 0.8272(3)
loop_
_geom_bond_atom_site_label_1
_geom_bond_atom_site_label_2
_geom_bond_site_symmetry_1
_geom_bond_site_symmetry_2
Cu1 O1 1_555 1_555
O1 H13 1_555 1_555
N1 Cu1 1_555 1_555
N2 N3 1_555 1_555
N3 C6 1_555 1_555
N4 C7 1_555 1_555
N5 Cu1 1_555 1_555
N6 C14 1_555 1_555
C1 N2 1_555 1_555
C2 N1 1_555 1_555
H1 C2 1_555 1_555
C3 N1 1_555 1_555
H2 C3 1_555 1_555
C4 C3 1_555 1_555
H3 C4 1_555 1_555
C5 C1 1_555 1_555
H4 C5 1_555 1_555
C6 C7 1_555 1_555
C7 H5 1_555 1_555
C8 N4 1_555 1_555
H6 C8 1_555 1_555
C9 C8 1_555 1_555
H7 C9 1_555 1_555
C10 C6 1_555 1_555
H8 C10 1_555 1_555
C11 N5 1_555 1_555
H9 C11 1_555 1_555
C12 C11 1_555 1_555
H10 C12 1_555 1_555
C13 C12 1_555 1_555
H11 C13 1_555 1_555
C14 C13 1_555 1_555
C15 N5 1_555 1_555
H12 C15 1_555 1_555
O2 Cu1 1_555 1_555
H14 O2 1_555 1_555
O3 H15 1_555 1_555
H16 O3 1_555 1_555
Cl1 O4 1_555 1_555
O5 Cl1 1_555 1_555
O6 Cl1 1_555 1_555
O8 Cl1 1_555 1_555
H13F O1 1_555 1_555
N6D N6 1_555 1_555
C14D N6D 1_555 1_555
C13D C14D 1_555 1_555
C12D C13D 1_555 1_555
C11D C12D 1_555 1_555
N5D C11D 1_555 1_555
C15D C14D 1_555 1_555
H12D C15D 1_555 1_555
H9D C11D 1_555 1_555
H10D C12D 1_555 1_555
H11D C13D 1_555 1_555
H14F O2 1_555 1_555
N1F Cu1 1_555 1_555
N2F N3F 1_555 1_555
N3F C6F 1_555 1_555
N4F C7F 1_555 1_555
C1F N2F 1_555 1_555
C2F N1F 1_555 1_555
H1F C2F 1_555 1_555
C3F N1F 1_555 1_555
H2F C3F 1_555 1_555
C4F C3F 1_555 1_555
H3F C4F 1_555 1_555
C5F C1F 1_555 1_555
H4F C5F 1_555 1_555
C6F C7F 1_555 1_555
C7F H5F 1_555 1_555
C8F N4F 1_555 1_555
H6F C8F 1_555 1_555
C9F C8F 1_555 1_555
H7F C9F 1_555 1_555
C10F C6F 1_555 1_555
H8F C10F 1_555 1_555
N5F Cu1 1_555 1_555
Cu1B N5D 1_555 1_555
C1 C2 1_555 1_555
C4 C5 1_555 1_555
C9 C10 1_555 1_555
C14 C15 1_555 1_555
N5D C15D 1_555 1_555
C1F C2F 1_555 1_555
C4F C5F 1_555 1_555
C9F C10F 1_555 1_555

#END
