
#######################################################################
#
#                 Cambridge Crystallographic Data Centre
#                                CCDC 
#
#######################################################################
#
# If this CIF has been generated from an entry in the Cambridge 
# Structural Database, then it will include bibliographic, chemical, 
# crystal, experimental, refinement or atomic coordinate data resulting 
# from the CCDC's data processing and validation procedures.
#
#######################################################################

data_AWAKUF
_symmetry_cell_setting           monoclinic
_symmetry_space_group_name_H-M   'P 21/c'
_symmetry_Int_Tables_number      14
_space_group_name_Hall           '-P 2ybc'
loop_
_symmetry_equiv_pos_site_id
_symmetry_equiv_pos_as_xyz
1 x,y,z
2 -x,1/2+y,1/2-z
3 -x,-y,-z
4 x,1/2-y,1/2+z
_cell_length_a                   10.17350(23)
_cell_length_b                   6.50033(16)
_cell_length_c                   24.44335(50)
_cell_angle_alpha                90
_cell_angle_beta                 91.8446(17)
_cell_angle_gamma                90
_cell_volume                     1615.63
loop_
_atom_site_label
_atom_site_type_symbol
_atom_site_fract_x
_atom_site_fract_y
_atom_site_fract_z
Ni1 Ni 0.84882(30) 0.99914(61) 0.49967(13)
Ni2 Ni 0.47790(31) 0.90589(39) 0.32829(11)
Ni3 Ni 1.00000 1.50000 0.50000
C1 C 0.8680(19) 1.3190(34) 0.34600(95)
C2 C 0.8770(21) 1.1200(32) 0.31200(86)
C3 C 1.0110(18) 1.0110(29) 0.32100(76)
C4 C 1.1240(21) 1.1530(31) 0.31200(84)
C5 C 1.1220(20) 1.3450(32) 0.34800(84)
C6 C 0.9880(21) 1.4560(24) 0.33700(85)
C7 C 0.8472(24) 1.2821(28) 0.40675(94)
C8 C 0.7629(19) 0.9849(35) 0.31626(78)
C9 C 1.2375(21) 1.0371(35) 0.32177(82)
C10 C 1.1492(20) 1.3128(29) 0.40901(88)
O1 O 0.8405(13) 1.1047(21) 0.42377(50)
O2 O 0.8515(11) 1.4452(19) 0.43568(46)
O3 O 0.6575(12) 1.0501(20) 0.31902(49)
O4 O 0.7880(12) 0.7751(21) 0.33414(56)
O5 O 1.3594(12) 1.1454(19) 0.31650(54)
O6 O 1.2609(12) 0.8584(19) 0.32633(56)
O7 O 1.1544(13) 1.1154(19) 0.42719(50)
O8 O 1.1430(11) 1.4611(23) 0.44348(49)
O9 O 0.9998(15) 1.8111(16) 0.47449(63)
O10 O 0.7047(13) 0.7812(20) 0.47419(56)
O11 O 0.7013(14) 1.2239(20) 0.52311(51)
O12 O 0.4888(11) 0.9607(17) 0.41357(45)
O13 O 0.5570(11) 0.6121(17) 0.34683(51)
O14 O 0.4720(14) 0.8464(17) 0.24230(49)
Ni1B Ni 1.15118(30) 2.00086(61) 0.50033(13)
Ni1B_2 Ni 1.15118(30) 1.00086(61) 0.50033(13)
Ni1_2 Ni 0.84882(30) 1.99914(61) 0.49967(13)
Ni2B Ni 1.52210(31) 2.09411(39) 0.67171(11)
Ni2_2 Ni 1.47790(31) 0.90589(39) 0.32829(11)
Ni2B_2 Ni 0.52210(31) 2.09411(39) 0.67171(11)
C1B C 1.1320(19) 1.6810(34) 0.65400(95)
C2B C 1.1230(21) 1.8800(32) 0.68800(86)
C3B C 0.9890(18) 1.9890(29) 0.67900(76)
C4B C 0.8760(21) 1.8470(31) 0.68800(84)
C5B C 0.8780(20) 1.6550(32) 0.65200(84)
C6B C 1.0120(21) 1.5440(24) 0.66300(85)
C7B C 1.1528(24) 1.7179(28) 0.59325(94)
C8B C 1.2371(19) 2.0151(35) 0.68374(78)
C9B C 0.7625(21) 1.9629(35) 0.67823(82)
C10B C 0.8508(20) 1.6872(29) 0.59099(88)
O1B O 1.1595(13) 1.8953(21) 0.57623(50)
O2B O 1.1485(11) 1.5548(19) 0.56432(46)
O3B O 1.3425(12) 1.9499(20) 0.68098(49)
O4B O 1.2120(12) 2.2249(21) 0.66586(56)
O5B O 0.6406(12) 1.8546(19) 0.68350(54)
O5_2 O 0.3594(12) 1.1454(19) 0.31650(54)
O5B_2 O 1.6406(12) 1.8546(19) 0.68350(54)
O6B O 0.7391(12) 2.1416(19) 0.67367(56)
O6_2 O 0.2609(12) 0.8584(19) 0.32633(56)
O6B_2 O 1.7391(12) 2.1416(19) 0.67367(56)
O7B O 0.8456(13) 1.8846(19) 0.57281(50)
O7B_2 O 0.8456(13) 0.8846(19) 0.57281(50)
O7_2 O 1.1544(13) 2.1154(19) 0.42719(50)
O8B O 0.8570(11) 1.5389(23) 0.55652(49)
O9B O 1.0002(15) 1.1889(16) 0.52551(63)
O9_2 O 0.9998(15) 0.8111(16) 0.47449(63)
O9B_2 O 1.0002(15) 2.1889(16) 0.52551(63)
O10B O 1.2953(13) 2.2188(20) 0.52581(56)
O11B O 1.2987(14) 1.7761(20) 0.47689(51)
O12B O 1.5112(11) 2.0393(17) 0.58643(45)
O13B O 1.4430(11) 2.3879(17) 0.65317(51)
O14B O 1.5280(14) 2.1536(17) 0.75770(49)
O15 O 0.5097(12) 0.3611(16) 0.44834(45)
loop_
_geom_bond_atom_site_label_1
_geom_bond_atom_site_label_2
_geom_bond_site_symmetry_1
_geom_bond_site_symmetry_2
Ni1 O1 1_555 1_555
Ni2 O3 1_555 1_555
Ni3 O2 1_555 1_555
C1 C2 1_555 1_555
C2 C3 1_555 1_555
C3 C4 1_555 1_555
C4 C5 1_555 1_555
C5 C6 1_555 1_555
C6 C1 1_555 1_555
C7 C1 1_555 1_555
C8 C2 1_555 1_555
C9 C4 1_555 1_555
C10 C5 1_555 1_555
O1 C7 1_555 1_555
O2 C7 1_555 1_555
O3 C8 1_555 1_555
O4 C8 1_555 1_555
O5 C9 1_555 1_555
O6 C9 1_555 1_555
O7 C10 1_555 1_555
O8 Ni3 1_555 1_555
O9 Ni3 1_555 1_555
O10 Ni1 1_555 1_555
O11 Ni1 1_555 1_555
O12 Ni2 1_555 1_555
O13 Ni2 1_555 1_555
O14 Ni2 1_555 1_555
Ni1B O9 1_555 1_555
Ni1B_2 O7 1_555 1_555
Ni1_2 O9 1_555 1_555
Ni2B O3B 1_555 1_555
Ni2_2 O5 1_555 1_555
Ni2B_2 O5B 1_555 1_555
C1B C2B 1_555 1_555
C2B C3B 1_555 1_555
C3B C4B 1_555 1_555
C4B C5B 1_555 1_555
C5B C6B 1_555 1_555
C6B C1B 1_555 1_555
C7B C1B 1_555 1_555
C8B C2B 1_555 1_555
C9B C4B 1_555 1_555
C10B C5B 1_555 1_555
O1B Ni1B 1_555 1_555
O2B Ni3 1_555 1_555
O3B C8B 1_555 1_555
O4B C8B 1_555 1_555
O5B C9B 1_555 1_555
O5_2 Ni2 1_555 1_555
O5B_2 Ni2B 1_555 1_555
O6B Ni2B_2 1_555 1_555
O6_2 Ni2 1_555 1_555
O6B_2 Ni2B 1_555 1_555
O7B Ni1_2 1_555 1_555
O7B_2 Ni1 1_555 1_555
O7_2 Ni1B 1_555 1_555
O8B Ni3 1_555 1_555
O9B Ni1 1_555 1_555
O9_2 Ni1 1_555 1_555
O9B_2 Ni1B 1_555 1_555
O10B Ni1B 1_555 1_555
O11B Ni1B 1_555 1_555
O12B Ni2B 1_555 1_555
O13B Ni2B 1_555 1_555
O14B Ni2B 1_555 1_555
Ni3 O9B 1_555 1_555
C10 O8 1_555 1_555
O6 Ni2_2 1_555 1_555
Ni1B_2 O9B 1_555 1_555
Ni1B_2 O9_2 1_555 1_555
Ni1_2 O9B_2 1_555 1_555
C7B O1B 1_555 1_555
C7B O2B 1_555 1_555
C9B O6B 1_555 1_555
C10B O7B 1_555 1_555
C10B O8B 1_555 1_555

#END
