
#######################################################################
#
#                 Cambridge Crystallographic Data Centre
#                                CCDC 
#
#######################################################################
#
# If this CIF has been generated from an entry in the Cambridge 
# Structural Database, then it will include bibliographic, chemical, 
# crystal, experimental, refinement or atomic coordinate data resulting 
# from the CCDC's data processing and validation procedures.
#
#######################################################################

data_AWAWUQ
_symmetry_cell_setting           monoclinic
_symmetry_space_group_name_H-M   'P 21/n'
_symmetry_Int_Tables_number      14
_space_group_name_Hall           '-P 2yn'
loop_
_symmetry_equiv_pos_site_id
_symmetry_equiv_pos_as_xyz
1 x,y,z
2 1/2+x,1/2-y,1/2+z
3 -x,-y,-z
4 1/2-x,1/2+y,1/2-z
_cell_length_a                   20.407(6)
_cell_length_b                   10.729(3)
_cell_length_c                   25.126(7)
_cell_angle_alpha                90
_cell_angle_beta                 101.464(5)
_cell_angle_gamma                90
_cell_volume                     5391.5
loop_
_atom_site_label
_atom_site_type_symbol
_atom_site_fract_x
_atom_site_fract_y
_atom_site_fract_z
Cu1 Cu 0.27338(4) 0.64969(9) 0.08667(3)
N1 N 0.3638(3) 0.7859(6) 0.1373(2)
N2 N 0.3152(3) 0.7374(6) 0.0313(2)
N3 N 0.3094(3) 0.7114(6) -0.0234(2)
N4 N 0.3849(3) 0.8594(6) 0.0010(2)
C1 C 0.3808(4) 0.8130(8) 0.1905(3)
H1 H 0.3690 0.7559 0.2160
C2 C 0.4147(4) 0.9205(9) 0.2097(3)
H2 H 0.4275 0.9362 0.2475
C3 C 0.4291(6) 1.0038(11) 0.1722(4)
H3 H 0.4521 1.0789 0.1842
C4 C 0.4106(6) 0.9797(10) 0.1168(4)
H4 H 0.4185 1.0386 0.0905
C5 C 0.3803(4) 0.8666(8) 0.1015(3)
C6 C 0.3601(4) 0.8233(7) 0.0451(3)
C7 C 0.3527(4) 0.7854(8) -0.0405(3)
C8 C 0.3664(4) 0.7809(8) -0.0950(3)
C9 C 0.3760(7) 0.8852(12) -0.1244(4)
H5 H 0.3737 0.9660 -0.1094
C10 C 0.3893(7) 0.8709(14) -0.1770(4)
H6 H 0.3958 0.9431 -0.1972
C11 C 0.3930(6) 0.7588(15) -0.1993(4)
H7 H 0.4016 0.7518 -0.2349
C12 C 0.3844(7) 0.6536(14) -0.1702(4)
H8 H 0.3869 0.5734 -0.1857
C13 C 0.3718(6) 0.6648(11) -0.1179(4)
H9 H 0.3670 0.5918 -0.0976
C14 C 0.5044(4) 0.8744(8) 0.0130(3)
H10 H 0.5071 0.7883 0.0220
C15 C 0.4438(4) 0.9329(7) 0.0004(3)
C16 C 0.4388(4) 1.0580(9) -0.0124(3)
H11 H 0.3962 1.0970 -0.0208
N5 N 0.1774(3) 0.5866(6) 0.0251(2)
N6 N 0.2088(3) 0.7870(5) 0.08550(19)
N7 N 0.2165(3) 0.8993(6) 0.1124(2)
N8 N 0.1191(3) 0.8959(5) 0.05585(19)
C17 C 0.1660(4) 0.4806(7) -0.0036(3)
H12 H 0.1988 0.4166 0.0023
C18 C 0.1076(4) 0.4620(8) -0.0417(3)
H13 H 0.1002 0.3866 -0.0619
C19 C 0.0611(4) 0.5545(8) -0.0496(3)
H14 H 0.0203 0.5431 -0.0750
C20 C 0.0724(4) 0.6645(8) -0.0211(3)
H15 H 0.0406 0.7301 -0.0274
C21 C 0.1306(3) 0.6778(6) 0.0167(2)
C22 C 0.1505(3) 0.7854(7) 0.0508(2)
C23 C 0.1624(3) 0.9651(6) 0.0939(2)
C24 C 0.1478(4) 1.0893(7) 0.1118(3)
C25 C 0.0910(4) 1.1130(7) 0.1325(3)
H16 H 0.0614 1.0472 0.1369
C26 C 0.0777(5) 1.2345(10) 0.1469(3)
H17 H 0.0393 1.2508 0.1618
C27 C 0.1191(5) 1.3309(8) 0.1397(4)
H18 H 0.1086 1.4138 0.1483
C28 C 0.1756(5) 1.3069(9) 0.1203(3)
H19 H 0.2052 1.3731 0.1163
C29 C 0.1900(4) 1.1870(8) 0.1065(3)
H20 H 0.2297 1.1715 0.0931
C30 C -0.0018(3) 0.9030(7) 0.0362(3)
H21 H -0.0025 0.8374 0.0615
C31 C 0.0575(3) 0.9460(6) 0.0259(2)
C32 C 0.0608(3) 1.0435(7) -0.0093(3)
H22 H 0.1027 1.0731 -0.0150
N9 N 0.2625(3) 0.5838(6) 0.1590(2)
N10 N 0.3349(4) 0.5035(7) 0.0920(3)
C33 C 0.2196(5) 0.6277(9) 0.1886(3)
H23 H 0.1884 0.6907 0.1742
C34 C 0.2209(7) 0.5804(12) 0.2409(4)
H24 H 0.1913 0.6102 0.2627
C35 C 0.2691(9) 0.4852(15) 0.2597(4)
H25 H 0.2704 0.4480 0.2942
C36 C 0.3114(8) 0.4486(13) 0.2298(5)
H26 H 0.3444 0.3884 0.2439
C37 C 0.3091(5) 0.4951(9) 0.1788(4)
C38 C 0.3507(6) 0.4527(10) 0.1404(5)
C39 C 0.4022(8) 0.3676(14) 0.1545(8)
H27 H 0.4114 0.3324 0.1899
C40 C 0.4383(9) 0.3353(18) 0.1190(13)
H28 H 0.4756 0.2813 0.1291
C41 C 0.4216(8) 0.3806(14) 0.0668(10)
H29 H 0.4454 0.3544 0.0399
C42 C 0.3680(6) 0.4677(10) 0.0538(6)
H30 H 0.3559 0.5001 0.0180
C16B C 0.5612(4) 0.9420(9) 0.0124(3)
C15B C 0.5562(4) 1.0671(7) -0.0004(3)
N4B N 0.6151(3) 1.1406(6) -0.0010(2)
C6B C 0.6399(4) 1.1767(7) -0.0451(3)
N2B N 0.6848(3) 1.2626(6) -0.0313(2)
N3B N 0.6906(3) 1.2886(6) 0.0234(2)
C7B C 0.6473(4) 1.2146(8) 0.0405(3)
C8B C 0.6336(4) 1.2191(8) 0.0950(3)
C9B C 0.6240(7) 1.1148(12) 0.1244(4)
H5B H 0.6263 1.0340 0.1094
C10B C 0.6107(7) 1.1291(14) 0.1770(4)
H6B H 0.6042 1.0569 0.1972
C11B C 0.6070(6) 1.2412(15) 0.1993(4)
H7B H 0.5984 1.2482 0.2349
C12B C 0.6156(7) 1.3464(14) 0.1702(4)
H8B H 0.6131 1.4266 0.1857
C13B C 0.6282(6) 1.3352(11) 0.1179(4)
H9B H 0.6330 1.4082 0.0976
C5B C 0.6197(4) 1.1334(8) -0.1015(3)
N1B N 0.6362(3) 1.2141(6) -0.1373(2)
C1B C 0.6192(4) 1.1870(8) -0.1905(3)
H1B H 0.6310 1.2441 -0.2160
C2B C 0.5853(4) 1.0795(9) -0.2097(3)
H2B H 0.5725 1.0638 -0.2475
C3B C 0.5709(6) 0.9962(11) -0.1722(4)
H3B H 0.5479 0.9211 -0.1842
C4B C 0.5894(6) 1.0203(10) -0.1168(4)
H4B H 0.5815 0.9614 -0.0905
C14B C 0.4956(4) 1.1256(8) -0.0130(3)
H10B H 0.4929 1.2117 -0.0220
H11B H 0.6038 0.9030 0.0208
C32B C -0.0608(3) 0.9565(7) 0.0093(3)
C31B C -0.0575(3) 1.0540(6) -0.0259(2)
N8B N -0.1191(3) 1.1041(5) -0.05585(19)
C22B C -0.1505(3) 1.2146(7) -0.0508(2)
N6B N -0.2088(3) 1.2130(5) -0.08550(19)
N7B N -0.2165(3) 1.1007(6) -0.1124(2)
C23B C -0.1624(3) 1.0349(6) -0.0939(2)
C24B C -0.1478(4) 0.9107(7) -0.1118(3)
C25B C -0.0910(4) 0.8870(7) -0.1325(3)
H16B H -0.0614 0.9528 -0.1369
C26B C -0.0777(5) 0.7655(10) -0.1469(3)
H17B H -0.0393 0.7492 -0.1618
C27B C -0.1191(5) 0.6691(8) -0.1397(4)
H18B H -0.1086 0.5862 -0.1483
C28B C -0.1756(5) 0.6931(9) -0.1203(3)
H19B H -0.2052 0.6269 -0.1163
C29B C -0.1900(4) 0.8130(8) -0.1065(3)
H20B H -0.2297 0.8285 -0.0931
C21B C -0.1306(3) 1.3222(6) -0.0167(2)
N5B N -0.1774(3) 1.4134(6) -0.0251(2)
C17B C -0.1660(4) 1.5194(7) 0.0036(3)
H12B H -0.1988 1.5834 -0.0023
C18B C -0.1076(4) 1.5380(8) 0.0417(3)
H13B H -0.1002 1.6134 0.0619
C19B C -0.0611(4) 1.4455(8) 0.0496(3)
H14B H -0.0203 1.4569 0.0750
C20B C -0.0724(4) 1.3355(8) 0.0211(3)
H15B H -0.0406 1.2699 0.0274
C30B C 0.0018(3) 1.0970(7) -0.0362(3)
H21B H 0.0025 1.1626 -0.0615
H22B H -0.1027 0.9269 0.0150
Cu1B Cu 0.72662(4) 1.35031(9) -0.08667(3)
N9B N 0.7375(3) 1.4162(6) -0.1590(2)
N10B N 0.6651(4) 1.4965(7) -0.0920(3)
C33B C 0.7804(5) 1.3723(9) -0.1886(3)
H23B H 0.8116 1.3093 -0.1742
C34B C 0.7791(7) 1.4196(12) -0.2409(4)
H24B H 0.8087 1.3898 -0.2627
C35B C 0.7309(9) 1.5148(15) -0.2597(4)
H25B H 0.7296 1.5520 -0.2942
C36B C 0.6886(8) 1.5514(13) -0.2298(5)
H26B H 0.6556 1.6116 -0.2439
C37B C 0.6909(5) 1.5049(9) -0.1788(4)
C38B C 0.6493(6) 1.5473(10) -0.1404(5)
C39B C 0.5978(8) 1.6324(14) -0.1545(8)
H27B H 0.5886 1.6676 -0.1899
C40B C 0.5617(9) 1.6647(18) -0.1190(13)
H28B H 0.5244 1.7187 -0.1291
C41B C 0.5784(8) 1.6194(14) -0.0668(10)
H29B H 0.5546 1.6456 -0.0399
C42B C 0.6320(6) 1.5323(10) -0.0538(6)
H30B H 0.6441 1.4999 -0.0180
Cu1B_2 Cu -0.27338(4) 1.35031(9) -0.08667(3)
N5B_2 N 0.8226(3) 1.4134(6) -0.0251(2)
N6B_2 N 0.7912(3) 1.2130(5) -0.08550(19)
Cl1 Cl 0.03710(12) 1.7203(2) 0.17496(8)
O1 O 0.0824(4) 1.8182(7) 0.1677(3)
O2 O -0.0293(4) 1.7540(8) 0.1510(3)
O3 O 0.0518(5) 1.6164(10) 0.1484(6)
O4 O 0.0423(6) 1.7027(11) 0.2303(3)
Cl2 Cl 0.75007(10) 0.8796(3) 0.02708(9)
O5 O 0.7202(3) 0.9099(8) 0.0720(2)
O6 O 0.8084(3) 0.8075(7) 0.0435(3)
O7 O 0.7680(4) 0.9901(8) 0.0037(3)
O8 O 0.7040(4) 0.8066(12) -0.0106(4)
O9 O 0.9405(5) 0.3542(10) 0.1998(4)
N11 N 0.8492(6) 0.4705(14) 0.1740(4)
C43 C 0.9127(6) 0.4523(14) 0.1900(4)
H31 H 0.9403 0.5244 0.1945
C44 C 0.8048(11) 0.369(3) 0.1658(13)
H32 H 0.8271 0.2967 0.1537
H33 H 0.7655 0.3908 0.1381
H34 H 0.7907 0.3493 0.1999
C45 C 0.8207(9) 0.592(2) 0.1620(6)
H35 H 0.8561 0.6549 0.1693
H36 H 0.7878 0.6081 0.1847
H37 H 0.7986 0.5957 0.1236
O10 O 0.3029(7) 0.4792(15) -0.2671(6)
N12 N 0.3757(14) 0.4520(16) -0.3243(8)
C46 C 0.3161(14) 0.4628(19) -0.3102(10)
H38 H 0.2787 0.4562 -0.3394
C47 C 0.4315(14) 0.4608(19) -0.2847(13)
H39 H 0.4566 0.3824 -0.2826
H40 H 0.4187 0.4770 -0.2498
H41 H 0.4596 0.5292 -0.2932
C48 C 0.3868(18) 0.436(3) -0.3709(12)
H42 H 0.3614 0.3634 -0.3876
H43 H 0.4346 0.4209 -0.3687
H44 H 0.3730 0.5100 -0.3930
O11 O 0.5838(12) 0.6305(14) 0.0727(8)
C49 C 0.6251(12) 0.675(2) 0.1022(11)
H45 H 0.6699 0.6791 0.0969
N13 N 0.6071(11) 0.720(2) 0.1431(8)
C50 C 0.656(2) 0.766(3) 0.1747(13)
H46 H 0.6973 0.7373 0.1647
H47 H 0.6549 0.7398 0.2119
H48 H 0.6534 0.8572 0.1724
C51 C 0.5441(15) 0.705(3) 0.1505(13)
H49 H 0.5240 0.6325 0.1299
H50 H 0.5178 0.7798 0.1376
H51 H 0.5445 0.6930 0.1892
loop_
_geom_bond_atom_site_label_1
_geom_bond_atom_site_label_2
_geom_bond_site_symmetry_1
_geom_bond_site_symmetry_2
Cu1 N1 1_555 1_555
N1 C1 1_555 1_555
N2 Cu1 1_555 1_555
N3 N2 1_555 1_555
N4 C6 1_555 1_555
C1 H1 1_555 1_555
C2 C1 1_555 1_555
H2 C2 1_555 1_555
C3 C2 1_555 1_555
H3 C3 1_555 1_555
C4 C3 1_555 1_555
H4 C4 1_555 1_555
C5 N1 1_555 1_555
C6 N2 1_555 1_555
C7 N3 1_555 1_555
C8 C7 1_555 1_555
C9 C8 1_555 1_555
H5 C9 1_555 1_555
C10 C9 1_555 1_555
H6 C10 1_555 1_555
C11 C10 1_555 1_555
H7 C11 1_555 1_555
C12 C11 1_555 1_555
H8 C12 1_555 1_555
C13 C8 1_555 1_555
H9 C13 1_555 1_555
C14 H10 1_555 1_555
C15 N4 1_555 1_555
C16 C15 1_555 1_555
H11 C16 1_555 1_555
N5 Cu1 1_555 1_555
N6 Cu1 1_555 1_555
N7 N6 1_555 1_555
N8 C22 1_555 1_555
C17 N5 1_555 1_555
H12 C17 1_555 1_555
C18 C17 1_555 1_555
H13 C18 1_555 1_555
C19 C18 1_555 1_555
H14 C19 1_555 1_555
C20 C19 1_555 1_555
H15 C20 1_555 1_555
C21 N5 1_555 1_555
C22 N6 1_555 1_555
C23 N7 1_555 1_555
C24 C23 1_555 1_555
C25 C24 1_555 1_555
H16 C25 1_555 1_555
C26 C25 1_555 1_555
H17 C26 1_555 1_555
C27 C26 1_555 1_555
H18 C27 1_555 1_555
C28 C27 1_555 1_555
H19 C28 1_555 1_555
C29 C24 1_555 1_555
H20 C29 1_555 1_555
C30 H21 1_555 1_555
C31 N8 1_555 1_555
C32 C31 1_555 1_555
H22 C32 1_555 1_555
N9 Cu1 1_555 1_555
N10 Cu1 1_555 1_555
C33 N9 1_555 1_555
H23 C33 1_555 1_555
C34 C33 1_555 1_555
H24 C34 1_555 1_555
C35 C34 1_555 1_555
H25 C35 1_555 1_555
C36 C35 1_555 1_555
H26 C36 1_555 1_555
C37 N9 1_555 1_555
C38 N10 1_555 1_555
C39 C38 1_555 1_555
H27 C39 1_555 1_555
C40 C39 1_555 1_555
H28 C40 1_555 1_555
C41 C40 1_555 1_555
H29 C41 1_555 1_555
C42 N10 1_555 1_555
H30 C42 1_555 1_555
Cl1 O1 1_555 1_555
O2 Cl1 1_555 1_555
O3 Cl1 1_555 1_555
O4 Cl1 1_555 1_555
Cl2 O5 1_555 1_555
O6 Cl2 1_555 1_555
O7 Cl2 1_555 1_555
O8 Cl2 1_555 1_555
O9 C43 1_555 1_555
N11 C43 1_555 1_555
C43 H31 1_555 1_555
C44 N11 1_555 1_555
H32 C44 1_555 1_555
H33 C44 1_555 1_555
H34 C44 1_555 1_555
C45 N11 1_555 1_555
H35 C45 1_555 1_555
H36 C45 1_555 1_555
H37 C45 1_555 1_555
O10 C46 1_555 1_555
N12 C46 1_555 1_555
C46 H38 1_555 1_555
C47 N12 1_555 1_555
H39 C47 1_555 1_555
H40 C47 1_555 1_555
H41 C47 1_555 1_555
C48 N12 1_555 1_555
H42 C48 1_555 1_555
H43 C48 1_555 1_555
H44 C48 1_555 1_555
O11 C49 1_555 1_555
C49 H45 1_555 1_555
N13 C49 1_555 1_555
C50 N13 1_555 1_555
H46 C50 1_555 1_555
H47 C50 1_555 1_555
H48 C50 1_555 1_555
C51 N13 1_555 1_555
H49 C51 1_555 1_555
H50 C51 1_555 1_555
H51 C51 1_555 1_555
C16B C14 1_555 1_555
C15B C16B 1_555 1_555
N4B C15B 1_555 1_555
C6B N4B 1_555 1_555
N2B C6B 1_555 1_555
N3B N2B 1_555 1_555
C7B N4B 1_555 1_555
C8B C7B 1_555 1_555
C9B C8B 1_555 1_555
H5B C9B 1_555 1_555
C10B C9B 1_555 1_555
H6B C10B 1_555 1_555
C11B C10B 1_555 1_555
H7B C11B 1_555 1_555
C12B C11B 1_555 1_555
H8B C12B 1_555 1_555
C13B C8B 1_555 1_555
H9B C13B 1_555 1_555
C5B C6B 1_555 1_555
N1B C5B 1_555 1_555
C1B N1B 1_555 1_555
H1B C1B 1_555 1_555
C2B C1B 1_555 1_555
H2B C2B 1_555 1_555
C3B C2B 1_555 1_555
H3B C3B 1_555 1_555
C4B C5B 1_555 1_555
H4B C4B 1_555 1_555
C14B C16 1_555 1_555
H10B C14B 1_555 1_555
H11B C16B 1_555 1_555
C32B C30 1_555 1_555
C31B C32B 1_555 1_555
N8B C31B 1_555 1_555
C22B N8B 1_555 1_555
N6B C22B 1_555 1_555
N7B N6B 1_555 1_555
C23B N8B 1_555 1_555
C24B C23B 1_555 1_555
C25B C24B 1_555 1_555
H16B C25B 1_555 1_555
C26B C25B 1_555 1_555
H17B C26B 1_555 1_555
C27B C26B 1_555 1_555
H18B C27B 1_555 1_555
C28B C27B 1_555 1_555
H19B C28B 1_555 1_555
C29B C24B 1_555 1_555
H20B C29B 1_555 1_555
C21B C22B 1_555 1_555
N5B C21B 1_555 1_555
C17B N5B 1_555 1_555
H12B C17B 1_555 1_555
C18B C17B 1_555 1_555
H13B C18B 1_555 1_555
C19B C18B 1_555 1_555
H14B C19B 1_555 1_555
C20B C21B 1_555 1_555
H15B C20B 1_555 1_555
C30B C32 1_555 1_555
H21B C30B 1_555 1_555
H22B C32B 1_555 1_555
Cu1B N2B 1_555 1_555
N9B Cu1B 1_555 1_555
N10B Cu1B 1_555 1_555
C33B N9B 1_555 1_555
H23B C33B 1_555 1_555
C34B C33B 1_555 1_555
H24B C34B 1_555 1_555
C35B C34B 1_555 1_555
H25B C35B 1_555 1_555
C36B C35B 1_555 1_555
H26B C36B 1_555 1_555
C37B N9B 1_555 1_555
C38B N10B 1_555 1_555
C39B C38B 1_555 1_555
H27B C39B 1_555 1_555
C40B C39B 1_555 1_555
H28B C40B 1_555 1_555
C41B C40B 1_555 1_555
H29B C41B 1_555 1_555
C42B N10B 1_555 1_555
H30B C42B 1_555 1_555
Cu1B_2 N6B 1_555 1_555
N5B_2 Cu1B 1_555 1_555
N6B_2 Cu1B 1_555 1_555
N4 C7 1_555 1_555
C4 C5 1_555 1_555
C5 C6 1_555 1_555
C12 C13 1_555 1_555
C14 C15 1_555 1_555
N8 C23 1_555 1_555
C20 C21 1_555 1_555
C21 C22 1_555 1_555
C28 C29 1_555 1_555
C30 C31 1_555 1_555
C36 C37 1_555 1_555
C37 C38 1_555 1_555
C41 C42 1_555 1_555
C15B C14B 1_555 1_555
N3B C7B 1_555 1_555
C12B C13B 1_555 1_555
N1B Cu1B 1_555 1_555
C3B C4B 1_555 1_555
C31B C30B 1_555 1_555
N7B C23B 1_555 1_555
C28B C29B 1_555 1_555
N5B Cu1B_2 1_555 1_555
C19B C20B 1_555 1_555
C36B C37B 1_555 1_555
C37B C38B 1_555 1_555
C41B C42B 1_555 1_555

#END
