
#######################################################################
#
#                 Cambridge Crystallographic Data Centre
#                                CCDC 
#
#######################################################################
#
# If this CIF has been generated from an entry in the Cambridge 
# Structural Database, then it will include bibliographic, chemical, 
# crystal, experimental, refinement or atomic coordinate data resulting 
# from the CCDC's data processing and validation procedures.
#
#######################################################################

data_AWECAH
_symmetry_cell_setting           triclinic
_symmetry_space_group_name_H-M   'P -1'
_symmetry_Int_Tables_number      2
_space_group_name_Hall           '-P 1'
loop_
_symmetry_equiv_pos_site_id
_symmetry_equiv_pos_as_xyz
1 x,y,z
2 -x,-y,-z
_cell_length_a                   14.1924(9)
_cell_length_b                   14.4051(10)
_cell_length_c                   17.9721(13)
_cell_angle_alpha                75.762(3)
_cell_angle_beta                 71.555(4)
_cell_angle_gamma                74.542(4)
_cell_volume                     3306.53
loop_
_atom_site_label
_atom_site_type_symbol
_atom_site_fract_x
_atom_site_fract_y
_atom_site_fract_z
U1 U -0.462268(19) 0.55347(2) 1.202516(15)
U2 U -1.25178(2) 0.17427(2) 1.519390(15)
O1 O -0.4577(4) 0.6732(4) 1.2079(3)
O2 O -0.4681(4) 0.4332(4) 1.1982(3)
O3 O -1.2651(4) 0.2959(4) 1.5311(4)
O4 O -1.2391(4) 0.0535(4) 1.5057(3)
O5 O -0.3607(4) 0.5660(4) 1.0633(3)
O6 O -0.5255(4) 0.6160(4) 1.0814(3)
O7 O 0.3746(4) 0.5062(4) 0.6906(3)
O8 O 0.2769(4) 0.5025(4) 0.8124(3)
O9 O -0.6501(4) 0.5967(4) 1.2408(3)
O10 O -0.5781(3) 0.5331(4) 1.3385(3)
O11 O -1.0804(4) 0.1353(5) 1.5378(3)
O12 O -1.0908(4) 0.1816(4) 1.4146(3)
O13 O -1.2807(4) 0.2337(4) 1.3862(3)
O14 O -1.4156(4) 0.2229(4) 1.4861(3)
O15 O -1.5997(4) -0.1584(5) 1.3646(3)
O16 O -1.7472(4) -0.1059(5) 1.3394(3)
C1 C -0.4365(6) 0.6021(6) 1.0338(5)
C2 C -0.4206(6) 0.6197(7) 0.9457(5)
H1 H -0.4426 0.5688 0.9327
H2 H -0.4637 0.6816 0.9304
C3 C -0.3129(6) 0.6219(8) 0.8963(5)
H3 H -0.2686 0.5647 0.9175
H4 H -0.2947 0.6790 0.9031
C4 C -0.2917(6) 0.6242(7) 0.8098(4)
H5 H -0.3012 0.5630 0.8029
H6 H -0.3422 0.6760 0.7902
C5 C -0.1894(6) 0.6393(8) 0.7582(5)
H7 H -0.1899 0.7087 0.7483
H8 H -0.1803 0.6216 0.7073
C6 C -0.0986(5) 0.5857(7) 0.7874(5)
H9 H -0.1022 0.5170 0.8037
H10 H -0.1027 0.6097 0.8345
C7 C 0.0024(5) 0.5928(6) 0.7302(5)
H11 H 0.0099 0.5617 0.6860
H12 H 0.0033 0.6615 0.7091
C8 C 0.0940(5) 0.5475(6) 0.7635(5)
H13 H 0.0934 0.4788 0.7848
H14 H 0.0874 0.5789 0.8073
C9 C 0.1948(5) 0.5554(6) 0.7038(4)
H15 H 0.2041 0.5187 0.6626
H16 H 0.1929 0.6235 0.6788
C10 C 0.2861(5) 0.5188(5) 0.7382(4)
C11 C -0.6577(5) 0.5624(5) 1.3140(4)
C12 C -0.7605(5) 0.5553(6) 1.3714(4)
H17 H -0.7932 0.6193 1.3855
H18 H -0.8014 0.5396 1.3438
C13 C -0.7617(5) 0.4815(6) 1.4475(4)
H19 H -0.7305 0.4167 1.4348
H20 H -0.7225 0.4969 1.4767
C14 C -0.8698(5) 0.4824(6) 1.4991(4)
H21 H -0.8967 0.5448 1.5171
H22 H -0.9106 0.4781 1.4662
C15 C -0.8829(6) 0.4007(6) 1.5722(4)
H23 H -0.8441 0.4061 1.6062
H24 H -0.9538 0.4105 1.6020
C16 C -0.8490(6) 0.2962(6) 1.5526(4)
H25 H -0.8569 0.2496 1.6022
H26 H -0.7774 0.2856 1.5246
C17 C -0.9077(6) 0.2752(6) 1.5017(4)
H27 H -0.8940 0.3163 1.4495
H28 H -0.9800 0.2912 1.5268
C18 C -0.8771(6) 0.1679(6) 1.4925(5)
H29 H -0.8971 0.1276 1.5443
H30 H -0.8039 0.1505 1.4730
C19 C -0.9246(5) 0.1457(6) 1.4360(4)
H31 H -0.8938 0.0794 1.4266
H32 H -0.9082 0.1894 1.3854
C20 C -1.0371(6) 0.1551(6) 1.4640(4)
C21 C -1.3764(6) 0.2426(5) 1.4123(5)
C22 C -1.4415(6) 0.2775(7) 1.3559(5)
H33 H -1.4653 0.3477 1.3520
H34 H -1.4004 0.2649 1.3034
C23 C -1.5328(6) 0.2301(6) 1.3795(5)
H35 H -1.5730 0.2391 1.4330
H36 H -1.5751 0.2606 1.3434
C24 C -1.4959(6) 0.1189(6) 1.3763(6)
H37 H -1.4576 0.0891 1.4153
H38 H -1.4499 0.1116 1.3241
C25 C -1.5773(8) 0.0636(8) 1.3913(6)
H39 H -1.5463 -0.0052 1.3916
H40 H -1.6227 0.0696 1.4439
C26 C -1.6426(7) 0.0989(7) 1.3278(5)
H41 H -1.6795 0.1654 1.3322
H42 H -1.6925 0.0583 1.3425
C27 C -1.5863(11) 0.0969(11) 1.2432(7)
H43 H -1.6341 0.1210 1.2109
H44 H -1.5395 0.1410 1.2267
C28 C -1.5251(9) -0.0073(10) 1.2263(7)
H45 H -1.4858 -0.0377 1.2646
H46 H -1.4789 -0.0021 1.1733
C29 C -1.6001(7) -0.0679(9) 1.2332(5)
H47 H -1.5649 -0.1205 1.2033
H48 H -1.6518 -0.0271 1.2078
C30 C -1.6521(6) -0.1121(7) 1.3159(5)
U1A U 0.462268(19) 0.44653(2) 0.797484(15)
U2A U 1.25178(2) 0.82573(2) 0.480610(15)
U2A_2 U -1.74822(2) -0.17427(2) 1.480610(15)
O1A O 0.4577(4) 0.3268(4) 0.7921(3)
O2A O 0.4681(4) 0.5668(4) 0.8018(3)
O3A O 1.2651(4) 0.7041(4) 0.4689(4)
O4A O 1.2391(4) 0.9465(4) 0.4943(3)
O5A O 0.3607(4) 0.4340(4) 0.9367(3)
O6A O 0.5255(4) 0.3840(4) 0.9186(3)
O7A O -0.3746(4) 0.4938(4) 1.3094(3)
O8A O -0.2769(4) 0.4975(4) 1.1876(3)
O9A O 0.6501(4) 0.4033(4) 0.7592(3)
O10A O 0.5781(3) 0.4669(4) 0.6615(3)
O11A O 1.0804(4) 0.8647(5) 0.4622(3)
O12A O 1.0908(4) 0.8184(4) 0.5854(3)
O13A O -1.7193(4) -0.2337(4) 1.6138(3)
O13A_2 O 1.2807(4) 0.7663(4) 0.6138(3)
O14A O -1.5844(4) -0.2229(4) 1.5139(3)
O14A_2 O 1.4156(4) 0.7771(4) 0.5139(3)
O15A O -1.4003(4) 0.1584(5) 1.6354(3)
O15_2 O 1.4003(4) 0.8416(5) 0.3646(3)
O16A O -1.2528(4) 0.1059(5) 1.6606(3)
O16_2 O 1.2528(4) 0.8941(5) 0.3394(3)
C1A C 0.4365(6) 0.3979(6) 0.9662(5)
C2A C 0.4206(6) 0.3803(7) 1.0543(5)
H1A H 0.4426 0.4312 1.0673
H2A H 0.4637 0.3184 1.0696
C3A C 0.3129(6) 0.3781(8) 1.1037(5)
H3A H 0.2686 0.4353 1.0825
H4A H 0.2947 0.3210 1.0969
C4A C 0.2917(6) 0.3758(7) 1.1902(4)
H5A H 0.3012 0.4370 1.1971
H6A H 0.3422 0.3240 1.2098
C5A C 0.1894(6) 0.3607(8) 1.2418(5)
H7A H 0.1899 0.2913 1.2517
H8A H 0.1803 0.3784 1.2927
C6A C 0.0986(5) 0.4143(7) 1.2126(5)
H9A H 0.1022 0.4830 1.1963
H10A H 0.1027 0.3903 1.1655
C7A C -0.0024(5) 0.4072(6) 1.2698(5)
H11A H -0.0099 0.4383 1.3140
H12A H -0.0033 0.3385 1.2909
C8A C -0.0940(5) 0.4525(6) 1.2365(5)
H13A H -0.0934 0.5212 1.2152
H14A H -0.0874 0.4211 1.1927
C9A C -0.1948(5) 0.4446(6) 1.2962(4)
H15A H -0.2041 0.4813 1.3374
H16A H -0.1929 0.3765 1.3212
C10A C -0.2861(5) 0.4812(5) 1.2618(4)
C11A C 0.6577(5) 0.4376(5) 0.6860(4)
C12A C 0.7605(5) 0.4447(6) 0.6286(4)
H17A H 0.7932 0.3807 0.6145
H18A H 0.8014 0.4604 0.6562
C13A C 0.7617(5) 0.5185(6) 0.5525(4)
H19A H 0.7305 0.5833 0.5652
H20A H 0.7225 0.5031 0.5233
C14A C 0.8698(5) 0.5176(6) 0.5009(4)
H21A H 0.8967 0.4552 0.4829
H22A H 0.9106 0.5219 0.5338
C15A C 0.8829(6) 0.5993(6) 0.4278(4)
H23A H 0.8441 0.5939 0.3938
H24A H 0.9538 0.5895 0.3980
C16A C 0.8490(6) 0.7038(6) 0.4474(4)
H25A H 0.8569 0.7504 0.3978
H26A H 0.7774 0.7144 0.4754
C17A C 0.9077(6) 0.7248(6) 0.4983(4)
H27A H 0.8940 0.6837 0.5505
H28A H 0.9800 0.7088 0.4732
C18A C 0.8771(6) 0.8321(6) 0.5075(5)
H29A H 0.8971 0.8724 0.4557
H30A H 0.8039 0.8495 0.5270
C19A C 0.9246(5) 0.8543(6) 0.5640(4)
H31A H 0.8938 0.9206 0.5734
H32A H 0.9082 0.8106 0.6146
C20A C 1.0371(6) 0.8449(6) 0.5360(4)
C21A C -1.6236(6) -0.2426(5) 1.5877(5)
C22A C -1.5585(6) -0.2775(7) 1.6441(5)
H33A H -1.5347 -0.3477 1.6480
H34A H -1.5996 -0.2649 1.6966
C23A C -1.4672(6) -0.2301(6) 1.6205(5)
H35A H -1.4270 -0.2391 1.5670
H36A H -1.4249 -0.2606 1.6566
C24A C -1.5041(6) -0.1189(6) 1.6237(6)
H37A H -1.5424 -0.0891 1.5847
H38A H -1.5501 -0.1116 1.6759
C25A C -1.4227(8) -0.0636(8) 1.6087(6)
H39A H -1.4537 0.0052 1.6084
H40A H -1.3773 -0.0696 1.5561
C26A C -1.3574(7) -0.0989(7) 1.6722(5)
H41A H -1.3205 -0.1654 1.6678
H42A H -1.3075 -0.0583 1.6575
C27A C -1.4137(11) -0.0969(11) 1.7568(7)
H43A H -1.3659 -0.1210 1.7891
H44A H -1.4605 -0.1410 1.7733
C28A C -1.4749(9) 0.0073(10) 1.7737(7)
H45A H -1.5142 0.0377 1.7354
H46A H -1.5211 0.0021 1.8267
C29A C -1.3999(7) 0.0679(9) 1.7668(5)
H47A H -1.4351 0.1205 1.7967
H48A H -1.3482 0.0271 1.7922
C30A C -1.3479(6) 0.1121(7) 1.6841(5)
O17 O -0.1133(4) 0.8192(4) 1.2462(3)
O18 O 0.2369(4) 1.0287(4) 1.1107(3)
O19 O -0.2811(4) 1.0369(4) 1.2097(3)
O20 O 0.0706(4) 1.2544(4) 1.0763(3)
O21 O -0.3495(4) 1.1171(4) 1.0320(3)
O22 O 0.0069(4) 1.3256(4) 0.8976(3)
N1 N 0.0580(5) 0.7948(5) 1.2339(3)
N2 N -0.0436(5) 0.9284(5) 1.2767(4)
N3 N 0.0956(4) 1.0146(5) 1.2177(4)
N4 N 0.1992(4) 0.8801(5) 1.1796(3)
N5 N -0.1582(5) 1.0820(5) 1.2453(4)
N6 N -0.2445(5) 1.1911(5) 1.1669(4)
N7 N -0.1050(5) 1.2802(5) 1.1143(4)
N8 N -0.0191(5) 1.1699(5) 1.1926(4)
N9 N -0.2918(5) 1.2472(5) 1.0428(4)
N10 N -0.2732(4) 1.2199(5) 0.9226(3)
N11 N -0.1338(4) 1.3072(5) 0.8691(3)
N12 N -0.1500(5) 1.3335(5) 0.9886(4)
C31 C -0.0412(6) 0.8455(6) 1.2505(4)
C32 C 0.1255(5) 0.8443(5) 1.2500(4)
H49 H 0.1578 0.8039 1.2913
C33 C 0.0542(6) 0.9388(6) 1.2770(4)
H50 H 0.0551 0.9434 1.3303
C34 C 0.1818(6) 0.9790(6) 1.1639(4)
C35 C -0.1374(5) 0.9955(6) 1.3041(4)
H51 H -0.1929 0.9612 1.3198
H52 H -0.1354 1.0159 1.3510
C36 C 0.0659(6) 1.1183(6) 1.2241(5)
H53 H 0.1234 1.1491 1.1958
H54 H 0.0487 1.1239 1.2797
C37 C -0.2324(6) 1.0971(6) 1.2067(4)
C38 C -0.1235(6) 1.1708(6) 1.2369(4)
H55 H -0.1379 1.1897 1.2888
C39 C -0.1849(6) 1.2480(6) 1.1831(4)
H56 H -0.2279 1.3022 1.2100
C40 C -0.0093(6) 1.2362(6) 1.1227(5)
C41 C -0.3257(5) 1.2346(6) 1.1290(4)
H57 H -0.3758 1.1936 1.1483
H58 H -0.3586 1.2979 1.1443
C42 C -0.1244(6) 1.3608(6) 1.0514(5)
H59 H -0.1798 1.4105 1.0744
H60 H -0.0647 1.3894 1.0281
C43 C -0.3078(5) 1.1863(6) 1.0015(4)
C44 C -0.2520(5) 1.3295(6) 0.9915(4)
H61 H -0.2993 1.3912 1.0019
C45 C -0.2396(5) 1.3125(5) 0.9063(4)
H62 H -0.2813 1.3658 0.8777
C46 C -0.0820(6) 1.3224(6) 0.9160(4)
C47 C 0.2890(5) 0.8203(6) 1.1376(4)
H63 H 0.3144 0.7669 1.1758
H64 H 0.3407 0.8592 1.1125
C48 C 0.0871(6) 0.6983(6) 1.2150(4)
H65 H 0.0273 0.6698 1.2327
H66 H 0.1344 0.6586 1.2450
O17A O 0.1133(4) 1.1808(4) 0.7538(3)
O18A O -0.2369(4) 0.9713(4) 0.8893(3)
O19A O 0.2811(4) 0.9631(4) 0.7903(3)
O20A O -0.0706(4) 0.7456(4) 0.9237(3)
O21A O 0.3495(4) 0.8829(4) 0.9680(3)
O22A O -0.0069(4) 0.6744(4) 1.1024(3)
N1A N -0.0580(5) 1.2052(5) 0.7661(3)
N2A N 0.0436(5) 1.0716(5) 0.7233(4)
N3A N -0.0956(4) 0.9854(5) 0.7823(4)
N4A N -0.1992(4) 1.1199(5) 0.8204(3)
N5A N 0.1582(5) 0.9180(5) 0.7547(4)
N6A N 0.2445(5) 0.8089(5) 0.8331(4)
N7A N 0.1050(5) 0.7198(5) 0.8857(4)
N8A N 0.0191(5) 0.8301(5) 0.8074(4)
N9A N 0.2918(5) 0.7528(5) 0.9572(4)
N10A N 0.2732(4) 0.7801(5) 1.0774(3)
N11A N 0.1338(4) 0.6928(5) 1.1309(3)
N12A N 0.1500(5) 0.6665(5) 1.0114(4)
C31A C 0.0412(6) 1.1545(6) 0.7495(4)
C32A C -0.1255(5) 1.1557(5) 0.7500(4)
H49A H -0.1578 1.1961 0.7087
C33A C -0.0542(6) 1.0612(6) 0.7230(4)
H50A H -0.0551 1.0566 0.6697
C34A C -0.1818(6) 1.0210(6) 0.8361(4)
C35A C 0.1374(5) 1.0045(6) 0.6959(4)
H51A H 0.1929 1.0388 0.6802
H52A H 0.1354 0.9841 0.6490
C36A C -0.0659(6) 0.8817(6) 0.7759(5)
H53A H -0.1234 0.8509 0.8042
H54A H -0.0487 0.8761 0.7203
C37A C 0.2324(6) 0.9029(6) 0.7933(4)
C38A C 0.1235(6) 0.8292(6) 0.7631(4)
H55A H 0.1379 0.8103 0.7112
C39A C 0.1849(6) 0.7520(6) 0.8169(4)
H56A H 0.2279 0.6978 0.7900
C40A C 0.0093(6) 0.7638(6) 0.8773(5)
C41A C 0.3257(5) 0.7654(6) 0.8710(4)
H57A H 0.3758 0.8064 0.8517
H58A H 0.3586 0.7021 0.8557
C42A C 0.1244(6) 0.6392(6) 0.9486(5)
H59A H 0.1798 0.5895 0.9256
H60A H 0.0647 0.6106 0.9719
C43A C 0.3078(5) 0.8137(6) 0.9985(4)
C44A C 0.2520(5) 0.6705(6) 1.0085(4)
H61A H 0.2993 0.6088 0.9981
C45A C 0.2396(5) 0.6875(5) 1.0937(4)
H62A H 0.2813 0.6342 1.1223
C46A C 0.0820(6) 0.6776(6) 1.0840(4)
C47A C -0.2890(5) 1.1797(6) 0.8624(4)
H63A H -0.3144 1.2331 0.8242
H64A H -0.3407 1.1408 0.8875
C48A C -0.0871(6) 1.3017(6) 0.7850(4)
H65A H -0.0273 1.3302 0.7673
H66A H -0.1344 1.3414 0.7550
N13 N 0.740(2) 1.7653(19) 0.1427(16)
H67 H 0.7773 1.7304 0.1043
H68 H 0.6745 1.7617 0.1513
C49 C 0.748(3) 1.8682(19) 0.1122(18)
H69 H 0.7483 1.8908 0.0573
H70 H 0.7967 1.8940 0.1236
H71 H 0.6817 1.8898 0.1456
C50 C 0.770(3) 1.719(2) 0.2151(18)
H72 H 0.7879 1.6487 0.2196
H73 H 0.7042 1.7368 0.2507
H74 H 0.8193 1.7409 0.2287
O23 O 0.2001(10) 1.3395(11) 0.9356(8)
N14? N 0.4025(10) 1.2413(10) 0.6602(8)
H75? H 0.3664 1.2528 0.7094
H76? H 0.4674 1.2163 0.6613
N15? N 0.4836(10) 1.3698(11) 0.5833(8)
H77? H 0.5387 1.3220 0.5714
H78? H 0.4870 1.3918 0.6249
N16? N -0.4081(16) 0.9394(16) 1.022(2)
H79? H -0.3541 0.9650 0.9909
H80? H -0.4138 0.9410 1.0727
C51? C 0.3978(7) 1.3298(7) 0.6064(6)
H81? H 0.5997 1.7219 0.3484
H82? H 0.3383 1.3797 0.6201
H83? H 0.3952 1.3040 0.5628
H84? H 0.5766 1.6250 0.3777
H85? H 0.5624 1.6817 0.4459
H86? H 0.6716 1.6433 0.3942
C52? C 0.3633(12) 1.1691(13) 0.6399(10)
H87? H 0.3692 1.1104 0.6790
H88? H 0.2934 1.1933 0.6399
H89? H 0.4026 1.1549 0.5882
C53? C 0.4879(15) 1.4540(13) 0.5116(11)
H90? H 0.5496 1.4764 0.5008
H91? H 0.4874 1.4312 0.4659
H92? H 0.4309 1.5069 0.5232
C54? C -0.390(3) 0.8375(13) 1.012(3)
H93? H -0.3293 0.8017 1.0266
H94? H -0.3828 0.8361 0.9575
H95? H -0.4464 0.8082 1.0456
C55? C -0.5000 1.0000 1.0000
H96? H -0.5084 1.0654 1.0082
H97? H -0.5578 0.9733 1.0332
H98? H -0.4942 1.0012 0.9451
loop_
_geom_bond_atom_site_label_1
_geom_bond_atom_site_label_2
_geom_bond_site_symmetry_1
_geom_bond_site_symmetry_2
U1 O1 1_555 1_555
U2 O3 1_555 1_555
O2 U1 1_555 1_555
O4 U2 1_555 1_555
O5 U1 1_555 1_555
O6 U1 1_555 1_555
O7 C10 1_555 1_555
O8 C10 1_555 1_555
O9 U1 1_555 1_555
O10 U1 1_555 1_555
O11 U2 1_555 1_555
O12 U2 1_555 1_555
O13 U2 1_555 1_555
O14 U2 1_555 1_555
O15 C30 1_555 1_555
O16 C30 1_555 1_555
C1 O5 1_555 1_555
C2 C1 1_555 1_555
H1 C2 1_555 1_555
H2 C2 1_555 1_555
C3 C2 1_555 1_555
H3 C3 1_555 1_555
H4 C3 1_555 1_555
C4 C3 1_555 1_555
H5 C4 1_555 1_555
H6 C4 1_555 1_555
C5 C4 1_555 1_555
H7 C5 1_555 1_555
H8 C5 1_555 1_555
C6 C5 1_555 1_555
H9 C6 1_555 1_555
H10 C6 1_555 1_555
C7 C6 1_555 1_555
H11 C7 1_555 1_555
H12 C7 1_555 1_555
C8 C7 1_555 1_555
H13 C8 1_555 1_555
H14 C8 1_555 1_555
C9 C8 1_555 1_555
H15 C9 1_555 1_555
H16 C9 1_555 1_555
C10 C9 1_555 1_555
C11 O9 1_555 1_555
C12 C11 1_555 1_555
H17 C12 1_555 1_555
H18 C12 1_555 1_555
C13 C12 1_555 1_555
H19 C13 1_555 1_555
H20 C13 1_555 1_555
C14 C13 1_555 1_555
H21 C14 1_555 1_555
H22 C14 1_555 1_555
C15 C14 1_555 1_555
H23 C15 1_555 1_555
H24 C15 1_555 1_555
C16 C15 1_555 1_555
H25 C16 1_555 1_555
H26 C16 1_555 1_555
C17 C16 1_555 1_555
H27 C17 1_555 1_555
H28 C17 1_555 1_555
C18 C17 1_555 1_555
H29 C18 1_555 1_555
H30 C18 1_555 1_555
C19 C18 1_555 1_555
H31 C19 1_555 1_555
H32 C19 1_555 1_555
C20 O11 1_555 1_555
C21 O13 1_555 1_555
C22 C21 1_555 1_555
H33 C22 1_555 1_555
H34 C22 1_555 1_555
C23 C22 1_555 1_555
H35 C23 1_555 1_555
H36 C23 1_555 1_555
C24 C23 1_555 1_555
H37 C24 1_555 1_555
H38 C24 1_555 1_555
C25 C24 1_555 1_555
H39 C25 1_555 1_555
H40 C25 1_555 1_555
C26 C25 1_555 1_555
H41 C26 1_555 1_555
H42 C26 1_555 1_555
C27 C26 1_555 1_555
H43 C27 1_555 1_555
H44 C27 1_555 1_555
C28 C27 1_555 1_555
H45 C28 1_555 1_555
H46 C28 1_555 1_555
C29 C28 1_555 1_555
H47 C29 1_555 1_555
H48 C29 1_555 1_555
C30 C29 1_555 1_555
O17 C31 1_555 1_555
O18 C34 1_555 1_555
O19 C37 1_555 1_555
O20 C40 1_555 1_555
O21 C43 1_555 1_555
O22 C46 1_555 1_555
N1 C31 1_555 1_555
N2 C31 1_555 1_555
N3 C33 1_555 1_555
N4 C32 1_555 1_555
N5 C35 1_555 1_555
N6 C37 1_555 1_555
N7 C39 1_555 1_555
N8 C36 1_555 1_555
N9 C41 1_555 1_555
N10 C43 1_555 1_555
N11 C45 1_555 1_555
N12 C42 1_555 1_555
C32 N1 1_555 1_555
H49 C32 1_555 1_555
C33 N2 1_555 1_555
H50 C33 1_555 1_555
C34 N3 1_555 1_555
C35 N2 1_555 1_555
H51 C35 1_555 1_555
H52 C35 1_555 1_555
C36 N3 1_555 1_555
H53 C36 1_555 1_555
H54 C36 1_555 1_555
C37 N5 1_555 1_555
C38 N5 1_555 1_555
H55 C38 1_555 1_555
C39 N6 1_555 1_555
H56 C39 1_555 1_555
C40 N7 1_555 1_555
C41 N6 1_555 1_555
H57 C41 1_555 1_555
H58 C41 1_555 1_555
C42 N7 1_555 1_555
H59 C42 1_555 1_555
H60 C42 1_555 1_555
C43 N9 1_555 1_555
C44 N9 1_555 1_555
H61 C44 1_555 1_555
C45 N10 1_555 1_555
H62 C45 1_555 1_555
C46 N11 1_555 1_555
C47 N4 1_555 1_555
H63 C47 1_555 1_555
H64 C47 1_555 1_555
C48 N1 1_555 1_555
H65 C48 1_555 1_555
H66 C48 1_555 1_555
N13 H67 1_555 1_555
H68 N13 1_555 1_555
C49 N13 1_555 1_555
H69 C49 1_555 1_555
H70 C49 1_555 1_555
H71 C49 1_555 1_555
C50 N13 1_555 1_555
H72 C50 1_555 1_555
H73 C50 1_555 1_555
H74 C50 1_555 1_555
U1A O7 1_555 1_555
U2A O3A 1_555 1_555
U2A_2 O15 1_555 1_555
O1A U1A 1_555 1_555
O2A U1A 1_555 1_555
O4A U2A 1_555 1_555
O5A U1A 1_555 1_555
O6A U1A 1_555 1_555
O7A U1 1_555 1_555
O8A U1 1_555 1_555
O9A U1A 1_555 1_555
O10A U1A 1_555 1_555
O11A U2A 1_555 1_555
O12A U2A 1_555 1_555
O13A U2A_2 1_555 1_555
O13A_2 U2A 1_555 1_555
O14A U2A_2 1_555 1_555
O14A_2 U2A 1_555 1_555
O15A U2 1_555 1_555
O15_2 U2A 1_555 1_555
O16A U2 1_555 1_555
O16_2 U2A 1_555 1_555
C1A O5A 1_555 1_555
C2A C1A 1_555 1_555
H1A C2A 1_555 1_555
H2A C2A 1_555 1_555
C3A C2A 1_555 1_555
H3A C3A 1_555 1_555
H4A C3A 1_555 1_555
C4A C3A 1_555 1_555
H5A C4A 1_555 1_555
H6A C4A 1_555 1_555
C5A C4A 1_555 1_555
H7A C5A 1_555 1_555
H8A C5A 1_555 1_555
C6A C5A 1_555 1_555
H9A C6A 1_555 1_555
H10A C6A 1_555 1_555
C7A C6A 1_555 1_555
H11A C7A 1_555 1_555
H12A C7A 1_555 1_555
C8A C7A 1_555 1_555
H13A C8A 1_555 1_555
H14A C8A 1_555 1_555
C9A C8A 1_555 1_555
H15A C9A 1_555 1_555
H16A C9A 1_555 1_555
C10A O7A 1_555 1_555
C11A O9A 1_555 1_555
C12A C11A 1_555 1_555
H17A C12A 1_555 1_555
H18A C12A 1_555 1_555
C13A C12A 1_555 1_555
H19A C13A 1_555 1_555
H20A C13A 1_555 1_555
C14A C13A 1_555 1_555
H21A C14A 1_555 1_555
H22A C14A 1_555 1_555
C15A C14A 1_555 1_555
H23A C15A 1_555 1_555
H24A C15A 1_555 1_555
C16A C15A 1_555 1_555
H25A C16A 1_555 1_555
H26A C16A 1_555 1_555
C17A C16A 1_555 1_555
H27A C17A 1_555 1_555
H28A C17A 1_555 1_555
C18A C17A 1_555 1_555
H29A C18A 1_555 1_555
H30A C18A 1_555 1_555
C19A C18A 1_555 1_555
H31A C19A 1_555 1_555
H32A C19A 1_555 1_555
C20A O11A 1_555 1_555
C21A O13A 1_555 1_555
C22A C21A 1_555 1_555
H33A C22A 1_555 1_555
H34A C22A 1_555 1_555
C23A C22A 1_555 1_555
H35A C23A 1_555 1_555
H36A C23A 1_555 1_555
C24A C23A 1_555 1_555
H37A C24A 1_555 1_555
H38A C24A 1_555 1_555
C25A C24A 1_555 1_555
H39A C25A 1_555 1_555
H40A C25A 1_555 1_555
C26A C25A 1_555 1_555
H41A C26A 1_555 1_555
H42A C26A 1_555 1_555
C27A C26A 1_555 1_555
H43A C27A 1_555 1_555
H44A C27A 1_555 1_555
C28A C27A 1_555 1_555
H45A C28A 1_555 1_555
H46A C28A 1_555 1_555
C29A C28A 1_555 1_555
H47A C29A 1_555 1_555
H48A C29A 1_555 1_555
C30A O15A 1_555 1_555
O17A C31A 1_555 1_555
O18A C34A 1_555 1_555
O19A C37A 1_555 1_555
O20A C40A 1_555 1_555
O21A C43A 1_555 1_555
O22A C46A 1_555 1_555
N1A C31A 1_555 1_555
N2A C31A 1_555 1_555
N3A C33A 1_555 1_555
N4A C32A 1_555 1_555
N5A C35A 1_555 1_555
N6A C37A 1_555 1_555
N7A C39A 1_555 1_555
N8A C36A 1_555 1_555
N9A C41A 1_555 1_555
N10A C47 1_555 1_555
N11A C48 1_555 1_555
N12A C42A 1_555 1_555
C32A N1A 1_555 1_555
H49A C32A 1_555 1_555
C33A N2A 1_555 1_555
H50A C33A 1_555 1_555
C34A N3A 1_555 1_555
C35A N2A 1_555 1_555
H51A C35A 1_555 1_555
H52A C35A 1_555 1_555
C36A N3A 1_555 1_555
H53A C36A 1_555 1_555
H54A C36A 1_555 1_555
C37A N5A 1_555 1_555
C38A N5A 1_555 1_555
H55A C38A 1_555 1_555
C39A N6A 1_555 1_555
H56A C39A 1_555 1_555
C40A N7A 1_555 1_555
C41A N6A 1_555 1_555
H57A C41A 1_555 1_555
H58A C41A 1_555 1_555
C42A N7A 1_555 1_555
H59A C42A 1_555 1_555
H60A C42A 1_555 1_555
C43A N9A 1_555 1_555
C44A N9A 1_555 1_555
H61A C44A 1_555 1_555
C45A N10A 1_555 1_555
H62A C45A 1_555 1_555
C46A N11A 1_555 1_555
C47A N10 1_555 1_555
H63A C47A 1_555 1_555
H64A C47A 1_555 1_555
C48A N11 1_555 1_555
H65A C48A 1_555 1_555
H66A C48A 1_555 1_555
O6 C1 1_555 1_555
O8 U1A 1_555 1_555
O10 C11 1_555 1_555
O12 C20 1_555 1_555
O14 C21 1_555 1_555
O16 U2A_2 1_555 1_555
C19 C20 1_555 1_555
N4 C34 1_555 1_555
N8 C38 1_555 1_555
N8 C40 1_555 1_555
N12 C44 1_555 1_555
N12 C46 1_555 1_555
C32 C33 1_555 1_555
C38 C39 1_555 1_555
C44 C45 1_555 1_555
O6A C1A 1_555 1_555
O8A C10A 1_555 1_555
O10A C11A 1_555 1_555
O12A C20A 1_555 1_555
O14A C21A 1_555 1_555
O16A C30A 1_555 1_555
C9A C10A 1_555 1_555
C19A C20A 1_555 1_555
C29A C30A 1_555 1_555
N1A C48A 1_555 1_555
N4A C34A 1_555 1_555
N4A C47A 1_555 1_555
N8A C38A 1_555 1_555
N8A C40A 1_555 1_555
N10A C43A 1_555 1_555
N11A C45A 1_555 1_555
N12A C44A 1_555 1_555
N12A C46A 1_555 1_555
C32A C33A 1_555 1_555
C38A C39A 1_555 1_555
C44A C45A 1_555 1_555

#END
