
#######################################################################
#
#                 Cambridge Crystallographic Data Centre
#                                CCDC 
#
#######################################################################
#
# If this CIF has been generated from an entry in the Cambridge 
# Structural Database, then it will include bibliographic, chemical, 
# crystal, experimental, refinement or atomic coordinate data resulting 
# from the CCDC's data processing and validation procedures.
#
#######################################################################

data_AWECUB01
_symmetry_cell_setting           monoclinic
_symmetry_space_group_name_H-M   'C c'
_symmetry_Int_Tables_number      9
_space_group_name_Hall           'C -2yc'
loop_
_symmetry_equiv_pos_site_id
_symmetry_equiv_pos_as_xyz
1 x,y,z
2 x,-y,1/2+z
3 1/2+x,1/2+y,z
4 1/2+x,1/2-y,1/2+z
_cell_length_a                   52.27(3)
_cell_length_b                   5.618(3)
_cell_length_c                   8.091(4)
_cell_angle_alpha                90
_cell_angle_beta                 94.773(6)
_cell_angle_gamma                90
_cell_volume                     2367.71
loop_
_atom_site_label
_atom_site_type_symbol
_atom_site_fract_x
_atom_site_fract_y
_atom_site_fract_z
Zn1 Zn 0.54467(2) 0.45499(13) 0.65249(7)
O1 O 0.51249(12) 0.6451(10) 0.6786(8)
O2 O 0.53680(9) 0.6072(8) 0.9114(7)
O3 O 0.46118(11) 0.4852(10) 0.8769(9)
O4 O 0.58120(11) 0.5249(10) 0.6658(7)
O5 O 0.57228(11) 0.8717(9) 0.5332(7)
O6 O 0.54520(11) 0.1232(9) 0.7399(7)
H1 H 0.5515(12) 0.025(11) 0.676(8)
H2 H 0.5544(14) 0.107(13) 0.830(6)
C1 C 0.51646(16) 0.6874(12) 0.8362(11)
C2 C 0.49800(15) 0.8371(13) 0.9202(10)
H3 H 0.5064 0.9910 0.9497
H4 H 0.4945 0.7577 1.0251
C3 C 0.47226(19) 0.8891(17) 0.8220(13)
H5 H 0.4637 1.0222 0.8758
H6 H 0.4755 0.9410 0.7087
C4 C 0.45422(17) 0.6763(14) 0.8093(11)
C5 C 0.42762(16) 0.7085(13) 0.7378(12)
C6 C 0.41904(18) 0.9020(13) 0.6429(11)
H7 H 0.4307 1.0277 0.6249
C7 C 0.39417(18) 0.9174(14) 0.5739(11)
H8 H 0.3890 1.0553 0.5118
C8 C 0.37601(15) 0.7366(13) 0.5918(10)
C9 C 0.38451(17) 0.5446(15) 0.6862(12)
H9 H 0.3728 0.4192 0.7037
C10 C 0.40958(18) 0.5276(15) 0.7570(12)
H10 H 0.4146 0.3903 0.8200
C11 C 0.34899(17) 0.7519(13) 0.5158(12)
C12 C 0.34089(16) 0.9255(15) 0.4042(12)
H11 H 0.3527 1.0436 0.3752
C13 C 0.31566(18) 0.9332(16) 0.3322(12)
H12 H 0.3105 1.0537 0.2540
C14 C 0.2984(2) 0.7650(19) 0.3754(15)
H13 H 0.2812 0.7703 0.3274
C15 C 0.30564(19) 0.5918(16) 0.4854(14)
H14 H 0.2935 0.4758 0.5140
C16 C 0.33061(16) 0.5832(14) 0.5563(11)
H15 H 0.3355 0.4611 0.6339
C17 C 0.58768(16) 0.7088(14) 0.5846(10)
C18 C 0.61568(16) 0.7281(13) 0.5491(10)
C19 C 0.63262(15) 0.5466(15) 0.5985(11)
H16 H 0.6268 0.4135 0.6574
C20 C 0.65825(17) 0.5599(15) 0.5615(11)
H17 H 0.6698 0.4373 0.5992
C21 C 0.66725(17) 0.7495(13) 0.4704(11)
C22 C 0.64984(18) 0.9288(13) 0.4221(11)
H18 H 0.6555 1.0613 0.3617
C23 C 0.6245(2) 0.9183(18) 0.4601(13)
H19 H 0.6131 1.0429 0.4248
C24 C 0.69487(15) 0.7535(13) 0.4254(11)
C25 C 0.71213(16) 0.5835(14) 0.4833(13)
H20 H 0.7065 0.4605 0.5522
C26 C 0.73726(17) 0.5843(15) 0.4456(12)
H21 H 0.7489 0.4672 0.4912
C27 C 0.74547(17) 0.7585(15) 0.3397(12)
H22 H 0.7626 0.7591 0.3092
C28 C 0.72851(18) 0.9279(17) 0.2806(13)
H23 H 0.7340 1.0487 0.2094
C29 C 0.70331(16) 0.9271(16) 0.3226(12)
H24 H 0.6918 1.0473 0.2801
Zn1A Zn 0.54467(2) 0.54501(13) 1.15249(7)
O2A O 0.53680(9) 0.3928(8) 0.4114(7)
loop_
_geom_bond_atom_site_label_1
_geom_bond_atom_site_label_2
_geom_bond_site_symmetry_1
_geom_bond_site_symmetry_2
Zn1 O1 1_555 1_555
O1 C1 1_555 1_555
O2 Zn1 1_555 1_555
O3 C4 1_555 1_555
O4 Zn1 1_555 1_555
O5 C17 1_555 1_555
O6 Zn1 1_555 1_555
H1 O6 1_555 1_555
H2 O6 1_555 1_555
C1 O2 1_555 1_555
C2 C1 1_555 1_555
H3 C2 1_555 1_555
H4 C2 1_555 1_555
C3 C2 1_555 1_555
H5 C3 1_555 1_555
H6 C3 1_555 1_555
C4 C3 1_555 1_555
C5 C4 1_555 1_555
C6 C5 1_555 1_555
H7 C6 1_555 1_555
C7 C6 1_555 1_555
H8 C7 1_555 1_555
C8 C7 1_555 1_555
C9 C8 1_555 1_555
H9 C9 1_555 1_555
C10 C5 1_555 1_555
H10 C10 1_555 1_555
C11 C8 1_555 1_555
C12 C11 1_555 1_555
H11 C12 1_555 1_555
C13 C12 1_555 1_555
H12 C13 1_555 1_555
C14 C13 1_555 1_555
H13 C14 1_555 1_555
C15 C14 1_555 1_555
H14 C15 1_555 1_555
C16 C11 1_555 1_555
H15 C16 1_555 1_555
C17 O4 1_555 1_555
C18 C17 1_555 1_555
C19 C18 1_555 1_555
H16 C19 1_555 1_555
C20 C19 1_555 1_555
H17 C20 1_555 1_555
C21 C20 1_555 1_555
C22 C21 1_555 1_555
H18 C22 1_555 1_555
C23 C18 1_555 1_555
H19 C23 1_555 1_555
C24 C21 1_555 1_555
C25 C24 1_555 1_555
H20 C25 1_555 1_555
C26 C25 1_555 1_555
H21 C26 1_555 1_555
C27 C26 1_555 1_555
H22 C27 1_555 1_555
C28 C27 1_555 1_555
H23 C28 1_555 1_555
C29 C24 1_555 1_555
H24 C29 1_555 1_555
Zn1A O2 1_555 1_555
O2A Zn1 1_555 1_555
C9 C10 1_555 1_555
C15 C16 1_555 1_555
C22 C23 1_555 1_555
C28 C29 1_555 1_555

#END
