
#######################################################################
#
#                 Cambridge Crystallographic Data Centre
#                                CCDC 
#
#######################################################################
#
# If this CIF has been generated from an entry in the Cambridge 
# Structural Database, then it will include bibliographic, chemical, 
# crystal, experimental, refinement or atomic coordinate data resulting 
# from the CCDC's data processing and validation procedures.
#
#######################################################################

data_AWEDEM
_symmetry_cell_setting           monoclinic
_symmetry_space_group_name_H-M   'C 2/c'
_symmetry_Int_Tables_number      15
_space_group_name_Hall           '-C 2yn'
loop_
_symmetry_equiv_pos_site_id
_symmetry_equiv_pos_as_xyz
1 x,y,z
2 -x,y,1/2-z
3 1/2+x,1/2+y,z
4 1/2-x,1/2+y,1/2-z
5 -x,-y,-z
6 x,-y,1/2+z
7 1/2-x,1/2-y,-z
8 1/2+x,1/2-y,1/2+z
_cell_length_a                   45.229(14)
_cell_length_b                   6.5476(19)
_cell_length_c                   7.2194(18)
_cell_angle_alpha                90
_cell_angle_beta                 90.32(2)
_cell_angle_gamma                90
_cell_volume                     2137.93
loop_
_atom_site_label
_atom_site_type_symbol
_atom_site_fract_x
_atom_site_fract_y
_atom_site_fract_z
Mg1 Mg 0.2500 1.2500 1.0000
O1 O 0.27104(18) 0.9678(12) 0.9905(12)
O2 O 0.22847(19) 1.1693(13) 1.2424(12)
O3 O 0.21547(18) 0.8550(13) 1.3350(11)
C1 C 0.2095(3) 1.027(2) 1.2667(18)
C2 C 0.1772(3) 1.0728(18) 1.2165(16)
C3 C 0.1685(3) 1.278(2) 1.190(2)
H1 H 0.1824 1.3860 1.2048
C4 C 0.1392(3) 1.321(2) 1.142(2)
H2 H 0.1334 1.4577 1.1198
C5 C 0.1184(3) 1.1644(19) 1.1273(16)
C6 C 0.1277(3) 0.963(2) 1.155(2)
H3 H 0.1139 0.8549 1.1399
C7 C 0.1570(3) 0.916(2) 1.2053(18)
H4 H 0.1627 0.7797 1.2310
C8 C 0.0868(3) 1.206(2) 1.071(2)
C9 C 0.0795(3) 1.3757(19) 0.964(2)
H5 H 0.0947 1.4672 0.9263
C10 C 0.0504(3) 1.412(2) 0.9118(19)
H6 H 0.0459 1.5225 0.8306
C11 C 0.0279(3) 1.290(2) 0.9771(19)
H7 H 0.0078 1.3200 0.9479
C12 C 0.0350(3) 1.124(2) 1.085(2)
H8 H 0.0196 1.0353 1.1258
C13 C 0.0643(3) 1.081(2) 1.138(2)
H9 H 0.0686 0.9697 1.2174
Mg1C Mg 0.2500 0.7500 1.5000
Mg1C_2 Mg 0.2500 1.7500 0.5000
O1F O 0.22896(18) 1.5322(12) 1.0095(12)
O2F O 0.27153(19) 1.3307(13) 0.7576(12)
O3F O 0.28453(18) 1.6450(13) 0.6650(11)
O3C O 0.28453(18) 1.3550(13) 1.1650(11)
O3E O 0.21547(18) 1.1450(13) 0.8350(11)
C1F C 0.2905(3) 1.473(2) 0.7333(18)
C2F C 0.3228(3) 1.4272(18) 0.7835(16)
C3F C 0.3315(3) 1.222(2) 0.810(2)
H1F H 0.3176 1.1140 0.7952
C4F C 0.3608(3) 1.179(2) 0.858(2)
H2F H 0.3666 1.0423 0.8802
C5F C 0.3816(3) 1.3356(19) 0.8727(16)
C6F C 0.3723(3) 1.537(2) 0.845(2)
H3F H 0.3861 1.6451 0.8601
C7F C 0.3430(3) 1.584(2) 0.7947(18)
H4F H 0.3373 1.7203 0.7690
C8F C 0.4132(3) 1.294(2) 0.929(2)
C9F C 0.4205(3) 1.1243(19) 1.036(2)
H5F H 0.4053 1.0328 1.0737
C10F C 0.4496(3) 1.088(2) 1.0882(19)
H6F H 0.4541 0.9775 1.1694
C11F C 0.4721(3) 1.210(2) 1.0229(19)
H7F H 0.4922 1.1800 1.0521
C12F C 0.4650(3) 1.376(2) 0.915(2)
H8F H 0.4804 1.4647 0.8742
C13F C 0.4357(3) 1.419(2) 0.862(2)
H9F H 0.4314 1.5303 0.7826
loop_
_geom_bond_atom_site_label_1
_geom_bond_atom_site_label_2
_geom_bond_site_symmetry_1
_geom_bond_site_symmetry_2
Mg1 O1 1_555 1_555
O2 Mg1 1_555 1_555
O3 C1 1_555 1_555
C1 O2 1_555 1_555
C2 C1 1_555 1_555
C3 C2 1_555 1_555
H1 C3 1_555 1_555
C4 C3 1_555 1_555
H2 C4 1_555 1_555
C5 C4 1_555 1_555
C6 C5 1_555 1_555
H3 C6 1_555 1_555
C7 C2 1_555 1_555
H4 C7 1_555 1_555
C8 C5 1_555 1_555
C9 C8 1_555 1_555
H5 C9 1_555 1_555
C10 C9 1_555 1_555
H6 C10 1_555 1_555
C11 C10 1_555 1_555
H7 C11 1_555 1_555
C12 C11 1_555 1_555
H8 C12 1_555 1_555
C13 C8 1_555 1_555
H9 C13 1_555 1_555
Mg1C O3 1_555 1_555
Mg1C_2 O3F 1_555 1_555
O1F Mg1 1_555 1_555
O2F Mg1 1_555 1_555
O3F C1F 1_555 1_555
O3C Mg1 1_555 1_555
O3E Mg1 1_555 1_555
C1F O2F 1_555 1_555
C2F C1F 1_555 1_555
C3F C2F 1_555 1_555
H1F C3F 1_555 1_555
C4F C3F 1_555 1_555
H2F C4F 1_555 1_555
C5F C4F 1_555 1_555
C6F C5F 1_555 1_555
H3F C6F 1_555 1_555
C7F C2F 1_555 1_555
H4F C7F 1_555 1_555
C8F C5F 1_555 1_555
C9F C8F 1_555 1_555
H5F C9F 1_555 1_555
C10F C9F 1_555 1_555
H6F C10F 1_555 1_555
C11F C10F 1_555 1_555
H7F C11F 1_555 1_555
C12F C11F 1_555 1_555
H8F C12F 1_555 1_555
C13F C8F 1_555 1_555
H9F C13F 1_555 1_555
C6 C7 1_555 1_555
C12 C13 1_555 1_555
C6F C7F 1_555 1_555
C12F C13F 1_555 1_555

#END
