
#######################################################################
#
#                 Cambridge Crystallographic Data Centre
#                                CCDC 
#
#######################################################################
#
# If this CIF has been generated from an entry in the Cambridge 
# Structural Database, then it will include bibliographic, chemical, 
# crystal, experimental, refinement or atomic coordinate data resulting 
# from the CCDC's data processing and validation procedures.
#
#######################################################################

data_AWEJAO
_symmetry_cell_setting           monoclinic
_symmetry_space_group_name_H-M   'C 2/c'
_symmetry_Int_Tables_number      15
_space_group_name_Hall           '-C 2yn'
loop_
_symmetry_equiv_pos_site_id
_symmetry_equiv_pos_as_xyz
1 x,y,z
2 -x,y,1/2-z
3 1/2+x,1/2+y,z
4 1/2-x,1/2+y,1/2-z
5 -x,-y,-z
6 x,-y,1/2+z
7 1/2-x,1/2-y,-z
8 1/2+x,1/2-y,1/2+z
_cell_length_a                   8.4020(17)
_cell_length_b                   7.0556(14)
_cell_length_c                   17.699(4)
_cell_angle_alpha                90
_cell_angle_beta                 102.85(3)
_cell_angle_gamma                90
_cell_volume                     1022.94
loop_
_atom_site_label
_atom_site_type_symbol
_atom_site_fract_x
_atom_site_fract_y
_atom_site_fract_z
Ag1 Ag 0.80197(3) 0.50817(3) 0.497022(15)
S1 S 0.56051(9) 0.66617(10) 0.60710(4)
O1 O 0.7143(3) 0.7270(3) 0.58891(13)
O2 O 0.5622(4) 0.4696(3) 0.63065(15)
O3 O 0.4227(3) 0.7103(3) 0.54242(13)
O4 O 0.5636(3) 1.0897(3) 0.62394(13)
H1 H 0.551(5) 1.2089(18) 0.628(3)
C1 C 0.5000 0.7046(6) 0.7500
H2 H 0.5000 0.5728 0.7500
C2 C 0.5322(4) 0.8009(4) 0.68693(16)
C3 C 0.5326(4) 0.9997(4) 0.68684(18)
C4 C 0.5000 1.0979(6) 0.7500
H3 H 0.5000 1.2297 0.7500
Ag1A Ag 0.19803(3) 0.50817(3) 1.002978(15)
Ag1F Ag 0.69803(3) 0.99183(3) 0.502978(15)
Ag1B Ag 0.30197(3) 1.00817(3) 0.497022(15)
Ag1D Ag 0.19803(3) 0.49183(3) 0.502978(15)
Ag1G Ag 0.30197(3) 0.99183(3) 0.997022(15)
Ag1C Ag 0.69803(3) 1.00817(3) 1.002978(15)
Ag1E Ag 0.80197(3) 0.49183(3) 0.997022(15)
S1A S 0.43949(9) 0.66617(10) 0.89290(4)
O1A O 0.2857(3) 0.7270(3) 0.91109(13)
O1F O 0.7857(3) 0.7730(3) 0.41109(13)
O1G O 0.2143(3) 0.7730(3) 1.08891(13)
O2A O 0.4378(4) 0.4696(3) 0.86935(15)
O3A O 0.5773(3) 0.7103(3) 0.95758(13)
O3B O 0.9227(3) 0.2103(3) 0.54242(13)
O3D O 0.5773(3) 0.2897(3) 0.45758(13)
O3C O 0.0773(3) 0.2103(3) 0.95758(13)
O3E O 0.4227(3) 0.2897(3) 1.04242(13)
O4A O 0.4364(3) 1.0897(3) 0.87606(13)
O4F O 0.9364(3) 0.4103(3) 0.37606(13)
O4G O 0.0636(3) 0.4103(3) 1.12394(13)
H1A H 0.449(5) 1.2089(18) 0.872(3)
H1F H 0.949(5) 0.2911(18) 0.372(3)
H1G H 0.051(5) 0.2911(18) 1.128(3)
C2A C 0.4678(4) 0.8009(4) 0.81307(16)
C3A C 0.4674(4) 0.9997(4) 0.81316(18)
loop_
_geom_bond_atom_site_label_1
_geom_bond_atom_site_label_2
_geom_bond_site_symmetry_1
_geom_bond_site_symmetry_2
Ag1 O1 1_555 1_555
S1 O1 1_555 1_555
O1 Ag1F 1_555 1_555
O2 S1 1_555 1_555
O3 S1 1_555 1_555
O4 H1 1_555 1_555
C1 H2 1_555 1_555
C2 S1 1_555 1_555
C3 O4 1_555 1_555
C4 C3 1_555 1_555
H3 C4 1_555 1_555
Ag1A O1A 1_555 1_555
Ag1F O4 1_555 1_555
Ag1B O3 1_555 1_555
Ag1D O3 1_555 1_555
Ag1G O1A 1_555 1_555
Ag1C O3A 1_555 1_555
Ag1E O3A 1_555 1_555
S1A O1A 1_555 1_555
O1F Ag1 1_555 1_555
O1G Ag1A 1_555 1_555
O2A S1A 1_555 1_555
O3A S1A 1_555 1_555
O3B Ag1 1_555 1_555
O3D Ag1 1_555 1_555
O3C Ag1A 1_555 1_555
O3E Ag1A 1_555 1_555
O4A Ag1G 1_555 1_555
O4F Ag1 1_555 1_555
O4G Ag1A 1_555 1_555
H1A O4A 1_555 1_555
H1F O4F 1_555 1_555
H1G O4G 1_555 1_555
C2A C1 1_555 1_555
C3A C4 1_555 1_555
C1 C2 1_555 1_555
C2 C3 1_555 1_555
Ag1F O1F 1_555 1_555
Ag1G O1G 1_555 1_555
S1A C2A 1_555 1_555
O4A C3A 1_555 1_555
C2A C3A 1_555 1_555

#END
