
#######################################################################
#
#                 Cambridge Crystallographic Data Centre
#                                CCDC 
#
#######################################################################
#
# If this CIF has been generated from an entry in the Cambridge 
# Structural Database, then it will include bibliographic, chemical, 
# crystal, experimental, refinement or atomic coordinate data resulting 
# from the CCDC's data processing and validation procedures.
#
#######################################################################

data_AWERIE
_symmetry_cell_setting           triclinic
_symmetry_space_group_name_H-M   'P -1'
_symmetry_Int_Tables_number      2
_space_group_name_Hall           '-P 1'
loop_
_symmetry_equiv_pos_site_id
_symmetry_equiv_pos_as_xyz
1 x,y,z
2 -x,-y,-z
_cell_length_a                   12.757(3)
_cell_length_b                   14.240(3)
_cell_length_c                   16.838(3)
_cell_angle_alpha                89.80(3)
_cell_angle_beta                 82.28(3)
_cell_angle_gamma                82.73(3)
_cell_volume                     3006.41
loop_
_atom_site_label
_atom_site_type_symbol
_atom_site_fract_x
_atom_site_fract_y
_atom_site_fract_z
W1 W 0.75220(7) 1.22195(7) -0.30838(6)
Br4 Br 0.4304(2) 1.2531(2) -0.36123(17)
S4 S 0.7459(5) 1.2226(5) -0.4458(4)
S5 S 0.6533(5) 1.1042(5) -0.2613(4)
S6 S 0.6495(5) 1.3610(5) -0.2618(4)
Cu1 Cu 0.6198(2) 1.1379(2) -0.38627(18)
Cu2 Cu 0.5489(2) 1.2442(2) -0.24181(19)
Cu3 Cu 0.6186(2) 1.3334(2) -0.38732(18)
B1 B 1.007(2) 1.192(2) -0.259(2)
N1 N 0.9822(16) 1.2852(16) -0.3053(14)
N2 N 0.8886(15) 1.3100(16) -0.3338(14)
N3 N 0.9241(16) 1.1971(16) -0.1858(13)
N4 N 0.8187(15) 1.2157(16) -0.1910(13)
N5 N 0.9848(16) 1.1147(16) -0.3119(13)
N6 N 0.8936(16) 1.1041(16) -0.3367(13)
N13 N 0.4212(14) 1.2626(17) -0.1557(12)
N14 N 0.2461(15) 1.2886(18) -0.0407(13)
N15 N 0.5518(16) 1.0530(15) -0.4512(13)
N16 N 0.5503(17) 1.4345(15) -0.4536(11)
C1 C 1.161(2) 1.349(2) -0.3062(19)
H1 H 1.1606 1.3715 -0.2518
H2 H 1.2011 1.3876 -0.3434
H3 H 1.1931 1.2837 -0.3114
C2 C 1.048(2) 1.356(2) -0.3246(18)
C3 C 0.995(2) 1.426(2) -0.3635(17)
H4 H 1.0203 1.4816 -0.3833
C4 C 0.895(2) 1.397(2) -0.3686(17)
C5 C 0.809(2) 1.453(2) -0.4115(18)
H5 H 0.7627 1.4956 -0.3735
H6 H 0.7681 1.4097 -0.4340
H7 H 0.8431 1.4896 -0.4542
C6 C 1.051(2) 1.163(2) -0.0875(16)
H8 H 1.1003 1.1963 -0.1222
H9 H 1.0730 1.0951 -0.0934
H10 H 1.0509 1.1819 -0.0322
C7 C 0.942(2) 1.186(2) -0.1100(17)
C8 C 0.8458(19) 1.197(2) -0.0597(17)
H11 H 0.8334 1.1934 -0.0035
C9 C 0.7720(19) 1.217(2) -0.1140(16)
C10 C 0.6501(18) 1.235(2) -0.0856(15)
H12 H 0.6168 1.1808 -0.0998
H13 H 0.6196 1.2910 -0.1112
H14 H 0.6377 1.2442 -0.0279
C11 C 1.177(2) 1.032(2) -0.3233(18)
H15 H 1.2190 0.9762 -0.3488
H16 H 1.1791 1.0299 -0.2660
H17 H 1.2066 1.0882 -0.3446
C12 C 1.066(2) 1.036(2) -0.3394(17)
C13 C 1.009(2) 0.977(2) -0.3803(17)
H18 H 1.0369 0.9178 -0.4043
C14 C 0.907(2) 1.021(2) -0.3785(17)
C15 C 0.818(2) 0.9806(19) -0.4131(17)
H19 H 0.7661 0.9627 -0.3698
H20 H 0.8472 0.9254 -0.4460
H21 H 0.7826 1.0280 -0.4456
C31 C 0.3838(17) 1.190(2) -0.1188(14)
H43 H 0.4187 1.1290 -0.1309
C32 C 0.2938(17) 1.203(2) -0.0622(15)
H44 H 0.2661 1.1498 -0.0388
C33 C 0.2931(18) 1.358(2) -0.0774(15)
H45 H 0.2650 1.4198 -0.0608
C34 C 0.3711(18) 1.349(2) -0.1320(15)
H46 H 0.3947 1.4034 -0.1566
C35 C 0.4652(19) 1.0158(19) -0.4251(17)
H47 H 0.4361 1.0252 -0.3710
C36 C 0.584(2) 1.0356(19) -0.5276(16)
H48 H 0.6458 1.0605 -0.5510
C37 C 0.458(2) 1.4863(19) -0.4283(14)
H49 H 0.4256 1.4768 -0.3759
C38 C 0.590(2) 1.4509(19) -0.5286(14)
H50 H 0.6545 1.4160 -0.5511
W1A W 0.24780(7) 0.77805(7) -0.69162(6)
W1A_2 W 0.24780(7) 1.77805(7) -0.69162(6)
Br4A Br 0.5696(2) 0.7469(2) -0.63877(17)
Br4A_2 Br 0.5696(2) 1.7469(2) -0.63877(17)
S4A S 0.2541(5) 0.7774(5) -0.5542(4)
S4A_2 S 0.2541(5) 1.7774(5) -0.5542(4)
S5A S 0.3467(5) 0.8958(5) -0.7387(4)
S6A S 0.3505(5) 1.6390(5) -0.7382(4)
S6A_2 S 0.3505(5) 0.6390(5) -0.7382(4)
Cu1A Cu 0.3802(2) 0.8621(2) -0.61373(18)
Cu2A Cu 0.4511(2) 0.7558(2) -0.75819(19)
Cu2A_2 Cu 0.4511(2) 1.7558(2) -0.75819(19)
Cu3A Cu 0.3814(2) 1.6666(2) -0.61268(18)
Cu3A_2 Cu 0.3814(2) 0.6666(2) -0.61268(18)
B1A B -0.007(2) 0.808(2) -0.741(2)
N1A N 0.0178(16) 0.7148(16) -0.6947(14)
N2A N 0.1114(15) 0.6900(16) -0.6662(14)
N3A N 0.0759(16) 0.8029(16) -0.8142(13)
N4A N 0.1813(15) 0.7843(16) -0.8090(13)
N5A N 0.0152(16) 0.8853(16) -0.6881(13)
N6A N 0.1064(16) 0.8959(16) -0.6633(13)
N13A N 0.5788(14) 0.7374(17) -0.8443(12)
N14A N 0.7539(15) 0.7114(18) -0.9593(13)
N15A N 0.4482(16) 0.9470(15) -0.5488(13)
N16A N 0.4497(17) 1.5655(15) -0.5464(11)
C1A C -0.161(2) 0.651(2) -0.6938(19)
H1A H -0.1606 0.6285 -0.7482
H2A H -0.2011 0.6124 -0.6566
H3A H -0.1931 0.7163 -0.6886
C2A C -0.048(2) 0.644(2) -0.6754(18)
C3A C 0.005(2) 0.574(2) -0.6365(17)
H4A H -0.0203 0.5184 -0.6167
C4A C 0.105(2) 0.603(2) -0.6314(17)
C5A C 0.191(2) 0.547(2) -0.5885(18)
H5A H 0.2373 0.5044 -0.6265
H6A H 0.2319 0.5903 -0.5660
H7A H 0.1569 0.5104 -0.5458
C6A C -0.051(2) 0.837(2) -0.9125(16)
H8A H -0.1003 0.8037 -0.8778
H9A H -0.0730 0.9049 -0.9066
H10A H -0.0509 0.8181 -0.9678
C7A C 0.058(2) 0.814(2) -0.8900(17)
C8A C 0.1542(19) 0.803(2) -0.9403(17)
H11A H 0.1666 0.8066 -0.9965
C9A C 0.2280(19) 0.783(2) -0.8860(16)
C10A C 0.3499(18) 0.765(2) -0.9144(15)
H12A H 0.3832 0.8192 -0.9002
H13A H 0.3804 0.7090 -0.8888
H14A H 0.3623 0.7558 -0.9721
C11A C -0.177(2) 0.968(2) -0.6767(18)
H15A H -0.2190 1.0238 -0.6512
H16A H -0.1791 0.9701 -0.7340
H17A H -0.2066 0.9118 -0.6554
C12A C -0.066(2) 0.964(2) -0.6606(17)
C13A C -0.009(2) 1.023(2) -0.6197(17)
H18A H -0.0369 1.0822 -0.5957
C14A C 0.093(2) 0.979(2) -0.6215(17)
C15A C 0.182(2) 1.0194(19) -0.5869(17)
H19A H 0.2339 1.0373 -0.6302
H20A H 0.1528 1.0746 -0.5540
H21A H 0.2174 0.9720 -0.5544
C31A C 0.6162(17) 0.810(2) -0.8812(14)
H43A H 0.5813 0.8710 -0.8691
C32A C 0.7062(17) 0.797(2) -0.9378(15)
H44A H 0.7339 0.8502 -0.9612
C33A C 0.7069(18) 0.642(2) -0.9226(15)
H45A H 0.7350 0.5802 -0.9392
C34A C 0.6289(18) 0.651(2) -0.8680(15)
H46A H 0.6053 0.5966 -0.8434
C35A C 0.5348(19) 0.9842(19) -0.5749(17)
H47A H 0.5639 0.9748 -0.6290
C36A C 0.416(2) 0.9644(19) -0.4724(16)
H48A H 0.3542 0.9395 -0.4490
C37A C 0.542(2) 1.5137(19) -0.5717(14)
H49A H 0.5744 1.5232 -0.6241
C38A C 0.410(2) 1.5491(19) -0.4714(14)
H50A H 0.3455 1.5840 -0.4489
W2 W 0.37094(8) 1.26522(7) 0.20942(6)
Br1 Br 0.7054(2) 1.3885(3) 0.1072(2)
Br2 Br 0.6779(3) 1.2317(2) 0.3582(2)
Br3 Br 0.6969(2) 1.0507(2) 0.11427(19)
S1 S 0.4620(5) 1.2520(5) 0.0816(4)
S2 S 0.4367(5) 1.1295(5) 0.2726(4)
S3 S 0.4428(5) 1.3856(5) 0.2680(4)
Cu4 Cu 0.5446(2) 1.3413(2) 0.15377(19)
Cu5 Cu 0.5409(2) 1.1432(2) 0.15709(19)
Cu6 Cu 0.5265(2) 1.2461(2) 0.30001(19)
B2 B 0.104(2) 1.297(2) 0.2250(17)
N7 N 0.1351(16) 1.2959(15) 0.3067(12)
N8 N 0.2418(16) 1.2853(15) 0.3154(12)
N9 N 0.1466(16) 1.2045(16) 0.1798(12)
N10 N 0.2566(16) 1.1763(16) 0.1636(12)
N11 N 0.1477(16) 1.3765(16) 0.1746(12)
N12 N 0.2579(16) 1.3788(16) 0.1627(12)
C16 C -0.0485(19) 1.311(2) 0.3857(16)
H22 H -0.0717 1.3663 0.3556
H23 H -0.0770 1.3210 0.4419
H24 H -0.0743 1.2559 0.3653
C17 C 0.074(2) 1.2954(19) 0.3768(15)
C18 C 0.1368(19) 1.2923(19) 0.4340(16)
H25 H 0.1141 1.2964 0.4895
C19 C 0.239(2) 1.2824(19) 0.3981(15)
C20 C 0.338(2) 1.274(2) 0.4396(15)
H26 H 0.3267 1.3168 0.4852
H27 H 0.3981 1.2894 0.4022
H28 H 0.3536 1.2092 0.4577
C21 C -0.017(2) 1.135(2) 0.1622(17)
H29 H -0.0454 1.1272 0.2178
H30 H -0.0306 1.0830 0.1302
H31 H -0.0509 1.1943 0.1428
C22 C 0.098(2) 1.138(2) 0.1558(15)
C23 C 0.170(2) 1.065(2) 0.1182(15)
H32 H 0.1544 1.0112 0.0926
C24 C 0.268(2) 1.090(2) 0.1265(15)
C25 C 0.3755(18) 1.0365(19) 0.0889(14)
H33 H 0.4173 1.0804 0.0590
H34 H 0.3632 0.9870 0.0531
H35 H 0.4137 1.0085 0.1310
C26 C -0.020(2) 1.474(2) 0.1439(17)
H36 H -0.0371 1.4906 0.0908
H37 H -0.0465 1.5265 0.1807
H38 H -0.0540 1.4188 0.1620
C27 C 0.098(2) 1.452(2) 0.1414(15)
C28 C 0.176(2) 1.505(2) 0.1059(15)
H39 H 0.1649 1.5636 0.0798
C29 C 0.276(2) 1.455(2) 0.1174(15)
C30 C 0.3778(19) 1.490(2) 0.0878(15)
H40 H 0.4169 1.4974 0.1325
H41 H 0.3636 1.5503 0.0622
H42 H 0.4198 1.4447 0.0494
O1 O 0.743(3) 0.439(2) 0.2911(19)
loop_
_geom_bond_atom_site_label_1
_geom_bond_atom_site_label_2
_geom_bond_site_symmetry_1
_geom_bond_site_symmetry_2
W1 S4 1_555 1_555
W2 S1 1_555 1_555
Br1 Cu4 1_555 1_555
Br2 Cu6 1_555 1_555
Br3 Cu5 1_555 1_555
Br4 Cu1 1_555 1_555
S1 Cu4 1_555 1_555
S2 W2 1_555 1_555
S3 W2 1_555 1_555
S4 Cu1 1_555 1_555
S5 W1 1_555 1_555
S6 W1 1_555 1_555
Cu1 S5 1_555 1_555
Cu2 Br4 1_555 1_555
Cu3 Br4 1_555 1_555
Cu4 S3 1_555 1_555
Cu5 S1 1_555 1_555
Cu6 S2 1_555 1_555
B1 N1 1_555 1_555
B2 N7 1_555 1_555
N1 N2 1_555 1_555
N2 W1 1_555 1_555
N3 B1 1_555 1_555
N4 W1 1_555 1_555
N5 B1 1_555 1_555
N6 W1 1_555 1_555
N7 N8 1_555 1_555
N8 W2 1_555 1_555
N9 B2 1_555 1_555
N10 W2 1_555 1_555
N11 B2 1_555 1_555
N12 W2 1_555 1_555
N13 Cu2 1_555 1_555
N14 C32 1_555 1_555
N15 Cu1 1_555 1_555
N16 Cu3 1_555 1_555
C1 H1 1_555 1_555
H2 C1 1_555 1_555
H3 C1 1_555 1_555
C2 N1 1_555 1_555
C3 C2 1_555 1_555
H4 C3 1_555 1_555
C4 N2 1_555 1_555
C5 C4 1_555 1_555
H5 C5 1_555 1_555
H6 C5 1_555 1_555
H7 C5 1_555 1_555
C6 H8 1_555 1_555
H9 C6 1_555 1_555
H10 C6 1_555 1_555
C7 N3 1_555 1_555
C8 C7 1_555 1_555
H11 C8 1_555 1_555
C9 N4 1_555 1_555
C10 C9 1_555 1_555
H12 C10 1_555 1_555
H13 C10 1_555 1_555
H14 C10 1_555 1_555
C11 H15 1_555 1_555
H16 C11 1_555 1_555
H17 C11 1_555 1_555
C12 N5 1_555 1_555
C13 C12 1_555 1_555
H18 C13 1_555 1_555
C14 N6 1_555 1_555
C15 C14 1_555 1_555
H19 C15 1_555 1_555
H20 C15 1_555 1_555
H21 C15 1_555 1_555
C16 H22 1_555 1_555
H23 C16 1_555 1_555
H24 C16 1_555 1_555
C17 N7 1_555 1_555
C18 C17 1_555 1_555
H25 C18 1_555 1_555
C19 N8 1_555 1_555
C20 C19 1_555 1_555
H26 C20 1_555 1_555
H27 C20 1_555 1_555
H28 C20 1_555 1_555
C21 H29 1_555 1_555
H30 C21 1_555 1_555
H31 C21 1_555 1_555
C22 N9 1_555 1_555
C23 C22 1_555 1_555
H32 C23 1_555 1_555
C24 N10 1_555 1_555
C25 C24 1_555 1_555
H33 C25 1_555 1_555
H34 C25 1_555 1_555
H35 C25 1_555 1_555
C26 H36 1_555 1_555
H37 C26 1_555 1_555
H38 C26 1_555 1_555
C27 N11 1_555 1_555
C28 C27 1_555 1_555
H39 C28 1_555 1_555
C29 N12 1_555 1_555
C30 C29 1_555 1_555
H40 C30 1_555 1_555
H41 C30 1_555 1_555
H42 C30 1_555 1_555
C31 N13 1_555 1_555
H43 C31 1_555 1_555
C32 C31 1_555 1_555
H44 C32 1_555 1_555
C33 N14 1_555 1_555
H45 C33 1_555 1_555
C34 N13 1_555 1_555
H46 C34 1_555 1_555
C35 N15 1_555 1_555
H47 C35 1_555 1_555
C36 N15 1_555 1_555
H48 C36 1_555 1_555
C37 N16 1_555 1_555
H49 C37 1_555 1_555
C38 N16 1_555 1_555
H50 C38 1_555 1_555
W1A S4A 1_555 1_555
W1A_2 S4A_2 1_555 1_555
Br4A Cu1A 1_555 1_555
Br4A_2 Cu2A_2 1_555 1_555
S4A Cu1A 1_555 1_555
S4A_2 Cu3A 1_555 1_555
S5A W1A 1_555 1_555
S6A W1A_2 1_555 1_555
S6A_2 W1A 1_555 1_555
Cu1A S5A 1_555 1_555
Cu2A Br4A 1_555 1_555
Cu2A_2 S6A 1_555 1_555
Cu3A Br4A_2 1_555 1_555
Cu3A_2 Br4A 1_555 1_555
B1A N1A 1_555 1_555
N1A N2A 1_555 1_555
N2A W1A 1_555 1_555
N3A B1A 1_555 1_555
N4A W1A 1_555 1_555
N5A B1A 1_555 1_555
N6A W1A 1_555 1_555
N13A Cu2A 1_555 1_555
N14A C32A 1_555 1_555
N15A Cu1A 1_555 1_555
N16A Cu3A 1_555 1_555
C1A H1A 1_555 1_555
H2A C1A 1_555 1_555
H3A C1A 1_555 1_555
C2A N1A 1_555 1_555
C3A C2A 1_555 1_555
H4A C3A 1_555 1_555
C4A N2A 1_555 1_555
C5A C4A 1_555 1_555
H5A C5A 1_555 1_555
H6A C5A 1_555 1_555
H7A C5A 1_555 1_555
C6A H8A 1_555 1_555
H9A C6A 1_555 1_555
H10A C6A 1_555 1_555
C7A N3A 1_555 1_555
C8A C7A 1_555 1_555
H11A C8A 1_555 1_555
C9A N4A 1_555 1_555
C10A C9A 1_555 1_555
H12A C10A 1_555 1_555
H13A C10A 1_555 1_555
H14A C10A 1_555 1_555
C11A H15A 1_555 1_555
H16A C11A 1_555 1_555
H17A C11A 1_555 1_555
C12A N5A 1_555 1_555
C13A C12A 1_555 1_555
H18A C13A 1_555 1_555
C14A N6A 1_555 1_555
C15A C14A 1_555 1_555
H19A C15A 1_555 1_555
H20A C15A 1_555 1_555
H21A C15A 1_555 1_555
C31A N13A 1_555 1_555
H43A C31A 1_555 1_555
C32A C31A 1_555 1_555
H44A C32A 1_555 1_555
C33A N14A 1_555 1_555
H45A C33A 1_555 1_555
C34A N13A 1_555 1_555
H46A C34A 1_555 1_555
C35A C36 1_555 1_555
H47A C35A 1_555 1_555
C36A C35 1_555 1_555
H48A C36A 1_555 1_555
C37A C38 1_555 1_555
H49A C37A 1_555 1_555
C38A C37 1_555 1_555
H50A C38A 1_555 1_555
S2 Cu5 1_555 1_555
S3 Cu6 1_555 1_555
S4 Cu3 1_555 1_555
S5 Cu2 1_555 1_555
S6 Cu2 1_555 1_555
S6 Cu3 1_555 1_555
N3 N4 1_555 1_555
N5 N6 1_555 1_555
N9 N10 1_555 1_555
N11 N12 1_555 1_555
C1 C2 1_555 1_555
C3 C4 1_555 1_555
C6 C7 1_555 1_555
C8 C9 1_555 1_555
C11 C12 1_555 1_555
C13 C14 1_555 1_555
C16 C17 1_555 1_555
C18 C19 1_555 1_555
C21 C22 1_555 1_555
C23 C24 1_555 1_555
C26 C27 1_555 1_555
C28 C29 1_555 1_555
C33 C34 1_555 1_555
S4A Cu3A_2 1_555 1_555
S5A Cu2A 1_555 1_555
S6A Cu3A 1_555 1_555
S6A_2 Cu2A 1_555 1_555
S6A_2 Cu3A_2 1_555 1_555
N3A N4A 1_555 1_555
N5A N6A 1_555 1_555
N15A C35A 1_555 1_555
N15A C36A 1_555 1_555
N16A C37A 1_555 1_555
N16A C38A 1_555 1_555
C1A C2A 1_555 1_555
C3A C4A 1_555 1_555
C6A C7A 1_555 1_555
C8A C9A 1_555 1_555
C11A C12A 1_555 1_555
C13A C14A 1_555 1_555
C33A C34A 1_555 1_555

#END
