
#######################################################################
#
#                 Cambridge Crystallographic Data Centre
#                                CCDC 
#
#######################################################################
#
# If this CIF has been generated from an entry in the Cambridge 
# Structural Database, then it will include bibliographic, chemical, 
# crystal, experimental, refinement or atomic coordinate data resulting 
# from the CCDC's data processing and validation procedures.
#
#######################################################################

data_AWESAX
_symmetry_cell_setting           triclinic
_symmetry_space_group_name_H-M   'P -1'
_symmetry_Int_Tables_number      2
_space_group_name_Hall           '-P 1'
loop_
_symmetry_equiv_pos_site_id
_symmetry_equiv_pos_as_xyz
1 x,y,z
2 -x,-y,-z
_cell_length_a                   8.2749(17)
_cell_length_b                   11.868(2)
_cell_length_c                   15.649(3)
_cell_angle_alpha                72.52(3)
_cell_angle_beta                 78.69(3)
_cell_angle_gamma                81.16(3)
_cell_volume                     1430
loop_
_atom_site_label
_atom_site_type_symbol
_atom_site_fract_x
_atom_site_fract_y
_atom_site_fract_z
Co1 Co 0.0000 1.0000 0.5000
C1 C 0.3371(4) 0.9609(4) 0.3747(3)
H1 H 0.2904 0.9989 0.3227
N1 N 0.5196(4) 0.8680(3) 0.4603(2)
C2 C 0.6204(4) 0.9056(4) 0.2964(3)
H2 H 0.7158 0.8538 0.3175
H3 H 0.6559 0.9833 0.2634
C3 C 0.5509(4) 0.8562(3) 0.2350(2)
C4 C 0.5197(5) 0.7378(3) 0.2631(3)
H4 H 0.5545 0.6876 0.3158
C5 C 0.4375(5) 0.6947(4) 0.2133(3)
H5 H 0.4187 0.6151 0.2323
C6 C 0.3824(5) 0.7681(3) 0.1353(2)
C7 C 0.4183(5) 0.8836(3) 0.1063(2)
H6 H 0.3851 0.9335 0.0530
C8 C 0.5035(5) 0.9272(3) 0.1554(3)
H7 H 0.5289 1.0055 0.1340
C9 C 0.2804(6) 0.7227(4) 0.0850(3)
H8 H 0.2266 0.7895 0.0437
H9 H 0.3526 0.6751 0.0494
C10 C 0.1473(6) 0.5358(4) 0.1711(3)
H10 H 0.2210 0.4831 0.1454
N2 N 0.0309(4) 0.7018(3) 0.1983(2)
C11 C -0.1546(4) 0.7571(3) 0.5564(2)
H11 H -0.2046 0.7687 0.6122
N3 N -0.0795(4) 0.6745(3) 0.44529(19)
C12 C -0.2463(4) 0.5555(3) 0.5818(2)
H12 H -0.2967 0.5637 0.6413
H13 H -0.1617 0.4885 0.5903
C13 C -0.3772(4) 0.5286(3) 0.5376(2)
C14 C -0.3370(4) 0.4602(3) 0.4775(2)
H14 H -0.2271 0.4324 0.4620
C15 C -0.5413(4) 0.5672(3) 0.5598(2)
H15 H -0.5708 0.6125 0.6008
H21 H 0.068(6) 0.8486(14) 0.649(2)
H23 H 0.002(5) 0.955(3) 0.6762(17)
N5 N 0.2565(3) 0.9468(2) 0.45702(18)
C21 C 0.3743(5) 0.8903(4) 0.5067(3)
H25 H 0.3545 0.8684 0.5698
N6 N 0.4925(3) 0.9150(2) 0.37404(19)
C22 C -0.0448(5) 0.6095(4) 0.2496(3)
H26 H -0.1380 0.6163 0.2926
N7 N 0.0212(5) 0.5050(3) 0.2359(2)
N8 N 0.1553(4) 0.6512(3) 0.1477(2)
N9 N -0.0621(3) 0.8321(2) 0.49301(17)
C23 C -0.0200(4) 0.7770(3) 0.4262(2)
H27 H 0.0458 0.8093 0.3713
N10 N -0.1667(3) 0.6635(2) 0.52990(17)
O1 O 0.0298(3) 0.9217(2) 0.63380(15)
Co1_2 Co -1.0000 0.0000 0.5000
C1A C -0.3371(4) 1.0391(4) 0.6253(3)
H1A H -0.2904 1.0011 0.6773
N1A N -0.5196(4) 1.1320(3) 0.5397(2)
C2A C -0.6204(4) 1.0944(4) 0.7036(3)
H2A H -0.7158 1.1462 0.6825
H3A H -0.6559 1.0167 0.7366
C3A C -0.5509(4) 1.1438(3) 0.7650(2)
C4A C -0.5197(5) 1.2622(3) 0.7369(3)
H4A H -0.5545 1.3124 0.6842
C5A C -0.4375(5) 1.3053(4) 0.7867(3)
H5A H -0.4187 1.3849 0.7677
C6A C -0.3824(5) 1.2319(3) 0.8647(2)
C7A C -0.4183(5) 1.1164(3) 0.8937(2)
H6A H -0.3851 1.0665 0.9470
C8A C -0.5035(5) 1.0728(3) 0.8446(3)
H7A H -0.5289 0.9945 0.8660
C9A C -0.2804(6) 1.2773(4) 0.9150(3)
H8A H -0.2266 1.2105 0.9563
H9A H -0.3526 1.3249 0.9506
C10A C -0.1473(6) 1.4642(4) 0.8289(3)
H10A H -0.2210 1.5169 0.8546
N2A N -0.0309(4) 1.2982(3) 0.8017(2)
C11A C -0.8454(4) 0.2429(3) 0.4436(2)
H11A H -0.7954 0.2313 0.3878
N3A N -0.9205(4) 0.3255(3) 0.55471(19)
C12A C -0.7537(4) 0.4445(3) 0.4182(2)
H12A H -0.7033 0.4363 0.3587
H13A H -0.8383 0.5115 0.4097
C13A C -0.6228(4) 0.4714(3) 0.4624(2)
C14A C -0.6630(4) 0.5398(3) 0.5225(2)
H14A H -0.7729 0.5676 0.5380
C15A C -0.4587(4) 0.4328(3) 0.4402(2)
H15A H -0.4292 0.3875 0.3992
H21A H -0.068(6) 1.1514(14) 0.351(2)
H23A H -0.002(5) 1.045(3) 0.3238(17)
N5A N -0.2565(3) 1.0532(2) 0.54298(18)
C21A C -0.3743(5) 1.1097(4) 0.4933(3)
H25A H -0.3545 1.1316 0.4302
N6A N -0.4925(3) 1.0850(2) 0.62596(19)
C22A C 0.0448(5) 1.3905(4) 0.7504(3)
H26A H 0.1380 1.3837 0.7074
N7A N -0.0212(5) 1.4950(3) 0.7641(2)
N8A N -0.1553(4) 1.3488(3) 0.8523(2)
N9A N -0.9379(3) 0.1679(2) 0.50699(17)
N9A_2 N 0.0621(3) 1.1679(2) 0.50699(17)
C23A C -0.9800(4) 0.2230(3) 0.5738(2)
H27A H -1.0458 0.1907 0.6287
N10A N -0.8333(3) 0.3365(2) 0.47010(17)
O1A O -0.0298(3) 1.0783(2) 0.36620(15)
C16 C 0.1215(5) 0.1405(3) 0.1527(2)
H16 H 0.1670 0.1824 0.1822
N4 N 0.0460(4) 0.0919(3) 0.0440(2)
C17 C 0.1868(5) 0.2732(3) -0.0055(2)
H17 H 0.1872 0.2625 -0.0646
H18 H 0.3004 0.2769 0.0000
C18 C 0.0877(4) 0.3892(3) -0.0003(2)
C19 C -0.0717(4) 0.3973(3) 0.0465(2)
H19 H -0.1213 0.3282 0.0782
C20 C 0.1585(4) 0.4938(3) -0.0470(2)
H20 H 0.2656 0.4905 -0.0789
N11 N 0.0475(4) 0.0436(3) 0.19390(19)
C24 C 0.0045(5) 0.0178(3) 0.1236(3)
H28 H -0.0506 -0.0481 0.1312
N12 N 0.1231(4) 0.1706(2) 0.06448(18)
C16A C -0.1215(5) 0.8595(3) -0.1527(2)
H16A H -0.1670 0.8176 -0.1822
N4A N -0.0460(4) 0.9081(3) -0.0440(2)
C17A C -0.1868(5) 0.7268(3) 0.0055(2)
H17A H -0.1872 0.7375 0.0646
H18A H -0.3004 0.7231 0.0000
C18A C -0.0877(4) 0.6108(3) 0.0003(2)
C19A C 0.0717(4) 0.6027(3) -0.0465(2)
H19A H 0.1213 0.6718 -0.0782
C20A C -0.1585(4) 0.5062(3) 0.0470(2)
H20A H -0.2656 0.5095 0.0789
N11A N -0.0475(4) 0.9564(3) -0.19390(19)
C24A C -0.0045(5) 0.9822(3) -0.1236(3)
H28A H 0.0506 1.0481 -0.1312
N12A N -0.1231(4) 0.8294(2) -0.06448(18)
Cl1 Cl 0.50438(12) 0.28211(10) 0.19426(7)
O2 O 0.5367(5) 0.3775(4) 0.2220(3)
O3 O 0.6492(6) 0.2057(4) 0.1898(4)
O4 O 0.4689(6) 0.3278(6) 0.1062(3)
O5 O 0.3680(5) 0.2302(5) 0.2492(3)
H22 H 0.929(5) 0.354(3) 0.281(3)
H24 H 0.779(4) 0.308(4) 0.277(3)
O6 O 0.8598(4) 0.3027(2) 0.3046(2)
loop_
_geom_bond_atom_site_label_1
_geom_bond_atom_site_label_2
_geom_bond_site_symmetry_1
_geom_bond_site_symmetry_2
Co1 N5 1_555 1_555
C1 H1 1_555 1_555
N1 C21 1_555 1_555
C2 H2 1_555 1_555
H3 C2 1_555 1_555
C3 C2 1_555 1_555
C4 C3 1_555 1_555
H4 C4 1_555 1_555
C5 C4 1_555 1_555
H5 C5 1_555 1_555
C6 C5 1_555 1_555
C7 C6 1_555 1_555
H6 C7 1_555 1_555
C8 C3 1_555 1_555
H7 C8 1_555 1_555
C9 C6 1_555 1_555
H8 C9 1_555 1_555
H9 C9 1_555 1_555
C10 H10 1_555 1_555
N2 C22 1_555 1_555
C11 H11 1_555 1_555
N3 C23 1_555 1_555
C12 H12 1_555 1_555
H13 C12 1_555 1_555
C13 C12 1_555 1_555
C14 C13 1_555 1_555
H14 C14 1_555 1_555
C15 C13 1_555 1_555
H15 C15 1_555 1_555
C16 H16 1_555 1_555
N4 C24 1_555 1_555
C17 H17 1_555 1_555
H18 C17 1_555 1_555
C18 C17 1_555 1_555
C19 C18 1_555 1_555
H19 C19 1_555 1_555
C20 C18 1_555 1_555
H20 C20 1_555 1_555
Cl1 O2 1_555 1_555
H21 O1 1_555 1_555
H22 O6 1_555 1_555
H23 O1 1_555 1_555
H24 O6 1_555 1_555
N5 C1 1_555 1_555
C21 N5 1_555 1_555
H25 C21 1_555 1_555
N6 C1 1_555 1_555
C22 H26 1_555 1_555
N7 C10 1_555 1_555
N8 C9 1_555 1_555
N9 Co1 1_555 1_555
C23 N9 1_555 1_555
H27 C23 1_555 1_555
N10 C11 1_555 1_555
N11 C16 1_555 1_555
C24 N11 1_555 1_555
H28 C24 1_555 1_555
N12 C16 1_555 1_555
O1 Co1 1_555 1_555
O3 Cl1 1_555 1_555
O4 Cl1 1_555 1_555
O5 Cl1 1_555 1_555
Co1_2 N9A 1_555 1_555
C1A H1A 1_555 1_555
N1A C21A 1_555 1_555
C2A H2A 1_555 1_555
H3A C2A 1_555 1_555
C3A C2A 1_555 1_555
C4A C3A 1_555 1_555
H4A C4A 1_555 1_555
C5A C4A 1_555 1_555
H5A C5A 1_555 1_555
C6A C5A 1_555 1_555
C7A C6A 1_555 1_555
H6A C7A 1_555 1_555
C8A C3A 1_555 1_555
H7A C8A 1_555 1_555
C9A C6A 1_555 1_555
H8A C9A 1_555 1_555
H9A C9A 1_555 1_555
C10A H10A 1_555 1_555
N2A C22A 1_555 1_555
C11A H11A 1_555 1_555
N3A C23A 1_555 1_555
C12A H12A 1_555 1_555
H13A C12A 1_555 1_555
C13A C12A 1_555 1_555
C14A C15 1_555 1_555
H14A C14A 1_555 1_555
C15A C14 1_555 1_555
H15A C15A 1_555 1_555
C16A H16A 1_555 1_555
N4A C24A 1_555 1_555
C17A H17A 1_555 1_555
H18A C17A 1_555 1_555
C18A C17A 1_555 1_555
C19A C20 1_555 1_555
H19A C19A 1_555 1_555
C20A C19 1_555 1_555
H20A C20A 1_555 1_555
H21A O1A 1_555 1_555
H23A O1A 1_555 1_555
N5A Co1 1_555 1_555
C21A N5A 1_555 1_555
H25A C21A 1_555 1_555
N6A C1A 1_555 1_555
C22A H26A 1_555 1_555
N7A C10A 1_555 1_555
N8A C9A 1_555 1_555
N9A C11A 1_555 1_555
N9A_2 Co1 1_555 1_555
C23A N9A 1_555 1_555
H27A C23A 1_555 1_555
N10A C11A 1_555 1_555
N11A C16A 1_555 1_555
C24A N11A 1_555 1_555
H28A C24A 1_555 1_555
N12A C16A 1_555 1_555
O1A Co1 1_555 1_555
N1 N6 1_555 1_555
C2 N6 1_555 1_555
C7 C8 1_555 1_555
C10 N8 1_555 1_555
N2 N8 1_555 1_555
C11 N9 1_555 1_555
N3 N10 1_555 1_555
C12 N10 1_555 1_555
N4 N12 1_555 1_555
C17 N12 1_555 1_555
C22 N7 1_555 1_555
C1A N5A 1_555 1_555
N1A N6A 1_555 1_555
C2A N6A 1_555 1_555
C7A C8A 1_555 1_555
C10A N8A 1_555 1_555
N2A N8A 1_555 1_555
N3A N10A 1_555 1_555
C12A N10A 1_555 1_555
C13A C14A 1_555 1_555
C13A C15A 1_555 1_555
N4A N12A 1_555 1_555
C17A N12A 1_555 1_555
C18A C19A 1_555 1_555
C18A C20A 1_555 1_555
C22A N7A 1_555 1_555

#END
