
#######################################################################
#
#                 Cambridge Crystallographic Data Centre
#                                CCDC 
#
#######################################################################
#
# If this CIF has been generated from an entry in the Cambridge 
# Structural Database, then it will include bibliographic, chemical, 
# crystal, experimental, refinement or atomic coordinate data resulting 
# from the CCDC's data processing and validation procedures.
#
#######################################################################

data_AWIQOM
_symmetry_cell_setting           triclinic
_symmetry_space_group_name_H-M   'P -1'
_symmetry_Int_Tables_number      2
_space_group_name_Hall           '-P 1'
loop_
_symmetry_equiv_pos_site_id
_symmetry_equiv_pos_as_xyz
1 x,y,z
2 -x,-y,-z
_cell_length_a                   10.665(7)
_cell_length_b                   12.241(8)
_cell_length_c                   14.105(9)
_cell_angle_alpha                111.958(10)
_cell_angle_beta                 98.060(10)
_cell_angle_gamma                108.151(9)
_cell_volume                     1552.48
loop_
_atom_site_label
_atom_site_type_symbol
_atom_site_fract_x
_atom_site_fract_y
_atom_site_fract_z
Sm1 Sm 0.67825(4) 0.29078(3) 0.34061(3)
Fe1 Fe 0.84783(9) 0.77841(8) 0.64319(7)
N1 N 0.6681(6) 0.1359(5) 0.1522(5)
N2 N 0.5509(6) 0.0470(5) 0.2810(5)
N3 N 0.7228(7) 0.5038(5) 0.4785(5)
N4 N 0.8493(9) 0.6894(6) 0.8169(5)
N5 N 0.8334(5) 0.8463(5) 0.5374(4)
N6 N 0.9259(6) 0.9635(5) 0.7402(4)
O1 O 0.5635(6) 0.3709(5) 0.2333(4)
O2 O 0.6983(5) 0.2815(4) 0.5162(4)
O3 O 0.8528(5) 0.4348(4) 0.3052(4)
O5 O 1.0473(5) 0.6026(5) 0.3417(4)
C1 C 0.7189(8) 0.1761(8) 0.0860(6)
H1 H 0.7449 0.2626 0.1027
C2 C 0.7359(9) 0.0984(9) -0.0062(6)
H2 H 0.7694 0.1305 -0.0519
C3 C 0.7030(9) -0.0248(10) -0.0284(6)
H3 H 0.7189 -0.0777 -0.0886
C4 C 0.6453(8) -0.0769(8) 0.0361(6)
C5 C 0.6050(10) -0.2074(8) 0.0167(7)
H4 H 0.6223 -0.2631 -0.0409
C6 C 0.5437(10) -0.2526(8) 0.0778(8)
H5 H 0.5167 -0.3391 0.0613
C7 C 0.5196(8) -0.1704(7) 0.1673(6)
C8 C 0.4508(10) -0.2120(8) 0.2311(7)
H6 H 0.4173 -0.2986 0.2150
C9 C 0.4315(9) -0.1280(8) 0.3170(7)
H7 H 0.3852 -0.1559 0.3602
C10 C 0.4829(9) 0.0017(7) 0.3392(7)
H8 H 0.4688 0.0592 0.3976
C11 C 0.5652(8) -0.0387(7) 0.1936(6)
C12 C 0.6304(7) 0.0096(7) 0.1270(5)
N7 N 0.9728(10) 0.5133(8) 0.3584(6)
C13 C 0.7719(7) 0.6084(7) 0.5410(5)
C14 C 0.8558(8) 0.7261(7) 0.7534(6)
C15 C 0.7911(8) 0.7779(7) 0.4311(6)
H9 H 0.7728 0.6908 0.4022
C16 C 0.7736(8) 0.8316(8) 0.3626(6)
H10 H 0.7442 0.7811 0.2890
C17 C 0.7996(8) 0.9583(8) 0.4031(7)
H11 H 0.7860 0.9952 0.3578
C18 C 0.8460(8) 1.0312(7) 0.5113(7)
H12 H 0.8662 1.1187 0.5404
C19 C 0.8626(7) 0.9732(6) 0.5774(5)
C20 C 0.9168(7) 1.0401(6) 0.6927(6)
C21 C 0.9625(9) 1.1719(7) 0.7519(7)
H13 H 0.9536 1.2226 0.7182
C22 C 1.0203(9) 1.2263(8) 0.8591(8)
H14 H 1.0503 1.3145 0.8993
C23 C 1.0345(9) 1.1505(7) 0.9086(6)
H15 H 1.0748 1.1861 0.9818
C24 C 0.9867(8) 1.0203(7) 0.8453(6)
H16 H 0.9975 0.9690 0.8779
C25 C 0.3340(7) 0.2360(6) 0.3559(5)
C26 C 0.9771(7) 0.2234(6) 0.3639(5)
N8 N 0.4469(6) 0.2525(5) 0.3591(5)
N9 N 0.8743(6) 0.2325(5) 0.3701(5)
C25A C 0.6660(7) 0.7640(6) 0.6441(5)
C26A C 1.0229(7) 0.7766(6) 0.6361(5)
Fe1A Fe 0.15217(9) 0.22159(8) 0.35681(7)
Fe1A_2 Fe 1.15217(9) 0.22159(8) 0.35681(7)
O4 O 0.7319(8) 0.5242(6) 0.1680(5)
O6 O 0.5717(8) 0.4545(7) 0.6489(6)
O7 O 0.1748(7) 0.5895(6) 0.0017(5)
O8 O 0.9154(8) 0.5084(6) 0.8599(5)
loop_
_geom_bond_atom_site_label_1
_geom_bond_atom_site_label_2
_geom_bond_site_symmetry_1
_geom_bond_site_symmetry_2
Sm1 N1 1_555 1_555
Fe1 N5 1_555 1_555
N1 C1 1_555 1_555
N2 Sm1 1_555 1_555
N3 Sm1 1_555 1_555
N4 C14 1_555 1_555
N5 C15 1_555 1_555
N6 Fe1 1_555 1_555
O1 Sm1 1_555 1_555
O2 Sm1 1_555 1_555
O3 Sm1 1_555 1_555
O5 N7 1_555 1_555
C1 H1 1_555 1_555
C2 C1 1_555 1_555
H2 C2 1_555 1_555
C3 C2 1_555 1_555
H3 C3 1_555 1_555
C4 C3 1_555 1_555
C5 C4 1_555 1_555
H4 C5 1_555 1_555
C6 C5 1_555 1_555
H5 C6 1_555 1_555
C7 C6 1_555 1_555
C8 C7 1_555 1_555
H6 C8 1_555 1_555
C9 C8 1_555 1_555
H7 C9 1_555 1_555
C10 N2 1_555 1_555
H8 C10 1_555 1_555
C11 N2 1_555 1_555
C12 N1 1_555 1_555
N7 O3 1_555 1_555
C13 Fe1 1_555 1_555
C14 Fe1 1_555 1_555
C15 H9 1_555 1_555
C16 C15 1_555 1_555
H10 C16 1_555 1_555
C17 C16 1_555 1_555
H11 C17 1_555 1_555
C18 C17 1_555 1_555
H12 C18 1_555 1_555
C19 N5 1_555 1_555
C20 N6 1_555 1_555
C21 C20 1_555 1_555
H13 C21 1_555 1_555
C22 C21 1_555 1_555
H14 C22 1_555 1_555
C23 C22 1_555 1_555
H15 C23 1_555 1_555
C24 N6 1_555 1_555
H16 C24 1_555 1_555
C25 N8 1_555 1_555
C26 N9 1_555 1_555
N8 Sm1 1_555 1_555
N9 Sm1 1_555 1_555
C25A Fe1 1_555 1_555
C26A Fe1 1_555 1_555
Fe1A C25 1_555 1_555
Fe1A_2 C26 1_555 1_555
N3 C13 1_555 1_555
C4 C12 1_555 1_555
C7 C11 1_555 1_555
C9 C10 1_555 1_555
C11 C12 1_555 1_555
C18 C19 1_555 1_555
C19 C20 1_555 1_555
C23 C24 1_555 1_555

#END
