
#######################################################################
#
#                 Cambridge Crystallographic Data Centre
#                                CCDC 
#
#######################################################################
#
# If this CIF has been generated from an entry in the Cambridge 
# Structural Database, then it will include bibliographic, chemical, 
# crystal, experimental, refinement or atomic coordinate data resulting 
# from the CCDC's data processing and validation procedures.
#
#######################################################################

data_AWOFOI
_symmetry_cell_setting           monoclinic
_symmetry_space_group_name_H-M   'P 21/n'
_symmetry_Int_Tables_number      14
_space_group_name_Hall           '-P 2yn'
loop_
_symmetry_equiv_pos_site_id
_symmetry_equiv_pos_as_xyz
1 x,y,z
2 1/2-x,1/2+y,1/2-z
3 -x,-y,-z
4 1/2+x,1/2-y,1/2+z
_cell_length_a                   10.6994(11)
_cell_length_b                   13.6773(14)
_cell_length_c                   12.1961(13)
_cell_angle_alpha                90
_cell_angle_beta                 101.574(2)
_cell_angle_gamma                90
_cell_volume                     1748.47
loop_
_atom_site_label
_atom_site_type_symbol
_atom_site_fract_x
_atom_site_fract_y
_atom_site_fract_z
Ce1 Ce 0.62306(3) 1.03609(3) 0.39566(3)
C1 C 0.6993(6) 0.9240(4) 0.6584(5)
C2 C 0.8218(6) 0.8724(4) 0.7133(6)
C3 C 0.9313(6) 0.8882(4) 0.6695(5)
H1 H 0.9285 0.9309 0.6096
C4 C 1.0448(6) 0.8403(4) 0.7153(5)
C5 C 1.0469(6) 0.7730(4) 0.7994(5)
H2 H 1.1210 0.7378 0.8264
C6 C 0.9388(6) 0.7571(4) 0.8446(5)
C7 C 0.8280(6) 0.8097(4) 0.8014(5)
H3 H 0.7567 0.8018 0.8334
C8 C 0.9393(6) 0.6846(5) 0.9368(6)
C9 C 1.1614(6) 0.8658(4) 0.6690(6)
C10 C 0.8855(7) 0.8868(5) 0.3589(7)
H4 H 0.9423 0.8752 0.4260
C11 C 0.8492(8) 0.9013(7) 0.1589(7)
H5 H 0.7749 0.9368 0.1690
H6 H 0.8236 0.8408 0.1212
H7 H 0.8959 0.9396 0.1148
C12 C 1.0614(7) 0.8523(6) 0.2683(8)
H8 H 1.1029 0.9018 0.2327
H9 H 1.0622 0.7915 0.2290
H10 H 1.1057 0.8444 0.3445
C13 C 0.4387(8) 0.9287(5) 0.1597(7)
H11 H 0.3729 0.9378 0.1982
C14 C 0.2840(8) 0.8444(6) 0.0187(8)
H12 H 0.2850 0.7743 0.0206
H13 H 0.2575 0.8662 -0.0573
H14 H 0.2255 0.8684 0.0627
C15 C 0.5082(8) 0.8594(6) 0.0012(7)
H15 H 0.5838 0.8965 0.0303
H16 H 0.4775 0.8761 -0.0759
H17 H 0.5278 0.7909 0.0072
N1 N 0.9291(6) 0.8814(4) 0.2665(6)
N2 N 0.4117(6) 0.8815(4) 0.0643(5)
O1 O 0.7104(4) 0.9890(3) 0.5883(4)
O2 O 0.5978(4) 0.9001(3) 0.6867(4)
O3 O 1.1478(4) 0.8991(3) 0.5723(4)
O4 O 1.2711(4) 0.8572(3) 0.7329(4)
O5 O 1.0116(4) 0.6100(3) 0.9415(4)
O6 O 0.8665(4) 0.6973(3) 1.0024(4)
O7 O 0.7738(5) 0.9063(3) 0.3633(4)
O8 O 0.5433(4) 0.9618(4) 0.2023(4)
Ce1B Ce 0.37694(3) 0.96391(3) 0.60434(3)
Ce1B_2 Ce 1.37694(3) 0.96391(3) 0.60434(3)
Ce1C Ce 1.12306(3) 0.46391(3) 0.89566(3)
Ce1A Ce 0.87694(3) 0.53609(3) 1.10434(3)
O2B O 0.4022(4) 1.0999(3) 0.3133(4)
O3B O 0.8522(4) 1.1009(3) 0.4277(4)
O4B O 0.7289(4) 1.1428(3) 0.2671(4)
O5C O 0.5116(4) 0.8900(3) 0.4415(4)
O6A O 0.6335(4) 1.1973(3) 0.4976(4)
loop_
_geom_bond_atom_site_label_1
_geom_bond_atom_site_label_2
_geom_bond_site_symmetry_1
_geom_bond_site_symmetry_2
Ce1 O1 1_555 1_555
C1 C2 1_555 1_555
C2 C3 1_555 1_555
C3 H1 1_555 1_555
C4 C3 1_555 1_555
C5 C4 1_555 1_555
H2 C5 1_555 1_555
C6 C5 1_555 1_555
C7 C2 1_555 1_555
H3 C7 1_555 1_555
C8 C6 1_555 1_555
C9 C4 1_555 1_555
C10 H4 1_555 1_555
C11 H5 1_555 1_555
H6 C11 1_555 1_555
H7 C11 1_555 1_555
C12 H8 1_555 1_555
H9 C12 1_555 1_555
H10 C12 1_555 1_555
C13 H11 1_555 1_555
C14 H12 1_555 1_555
H13 C14 1_555 1_555
H14 C14 1_555 1_555
C15 H15 1_555 1_555
H16 C15 1_555 1_555
H17 C15 1_555 1_555
N1 C10 1_555 1_555
N2 C13 1_555 1_555
O1 C1 1_555 1_555
O2 C1 1_555 1_555
O3 C9 1_555 1_555
O4 C9 1_555 1_555
O5 C8 1_555 1_555
O6 C8 1_555 1_555
O7 Ce1 1_555 1_555
O8 Ce1 1_555 1_555
Ce1B O2 1_555 1_555
Ce1B_2 O3 1_555 1_555
Ce1C O5 1_555 1_555
Ce1A O6 1_555 1_555
O2B Ce1 1_555 1_555
O3B Ce1 1_555 1_555
O4B Ce1 1_555 1_555
O5C Ce1 1_555 1_555
O6A Ce1 1_555 1_555
C6 C7 1_555 1_555
C10 O7 1_555 1_555
C11 N1 1_555 1_555
C12 N1 1_555 1_555
C13 O8 1_555 1_555
C14 N2 1_555 1_555
C15 N2 1_555 1_555
O4 Ce1B_2 1_555 1_555

#END
