
#######################################################################
#
#                 Cambridge Crystallographic Data Centre
#                                CCDC 
#
#######################################################################
#
# If this CIF has been generated from an entry in the Cambridge 
# Structural Database, then it will include bibliographic, chemical, 
# crystal, experimental, refinement or atomic coordinate data resulting 
# from the CCDC's data processing and validation procedures.
#
#######################################################################

data_AWOGOJ
_symmetry_cell_setting           monoclinic
_symmetry_space_group_name_H-M   'C 2/c'
_symmetry_Int_Tables_number      15
_space_group_name_Hall           '-C 2yn'
loop_
_symmetry_equiv_pos_site_id
_symmetry_equiv_pos_as_xyz
1 x,y,z
2 -x,y,1/2-z
3 1/2+x,1/2+y,z
4 1/2-x,1/2+y,1/2-z
5 -x,-y,-z
6 x,-y,1/2+z
7 1/2-x,1/2-y,-z
8 1/2+x,1/2-y,1/2+z
_cell_length_a                   13.1371(12)
_cell_length_b                   10.0847(11)
_cell_length_c                   18.9643(19)
_cell_angle_alpha                90
_cell_angle_beta                 101.8640(10)
_cell_angle_gamma                90
_cell_volume                     2458.79
loop_
_atom_site_label
_atom_site_type_symbol
_atom_site_fract_x
_atom_site_fract_y
_atom_site_fract_z
Sn1 Sn 0.21709(3) -0.11988(3) 0.275296(18)
O1 O 0.1757(3) 0.0218(3) 0.34840(19)
O2 O 0.2446(3) 0.2018(4) 0.3102(2)
F1 F -0.0238(3) 0.1709(4) 0.5259(2)
F2 F 0.1732(3) 0.5409(3) 0.4910(2)
C1 C 0.1945(4) 0.1461(5) 0.3495(3)
C2 C 0.1503(3) 0.2219(5) 0.4043(2)
C3 C 0.0816(4) 0.1598(5) 0.4403(3)
H1 H 0.0613 0.0724 0.4300
C4 C 0.0443(4) 0.2301(6) 0.4913(3)
C5 C 0.0744(4) 0.3574(6) 0.5100(3)
H2 H 0.0497 0.4024 0.5459
C6 C 0.1422(5) 0.4153(5) 0.4736(3)
C7 C 0.1796(4) 0.3514(5) 0.4209(3)
H3 H 0.2243 0.3947 0.3964
C8 C 0.1543(6) -0.2738(6) 0.3291(4)
H4 H 0.1335 -0.3461 0.2964
H5 H 0.0949 -0.2412 0.3459
H6 H 0.2059 -0.3039 0.3693
C9 C 0.1173(4) -0.0367(6) 0.1847(3)
H7 H 0.1543 0.0292 0.1635
H8 H 0.0587 0.0036 0.1994
H9 H 0.0933 -0.1051 0.1501
C10 C 0.3794(4) -0.0930(6) 0.2996(3)
H10 H 0.4073 -0.1137 0.2580
H11 H 0.4098 -0.1505 0.3386
H12 H 0.3951 -0.0025 0.3134
Sn1C Sn 0.28291(3) 0.38012(3) 0.224704(18)
O2C O 0.2554(3) -0.2982(4) 0.1898(2)
loop_
_geom_bond_atom_site_label_1
_geom_bond_atom_site_label_2
_geom_bond_site_symmetry_1
_geom_bond_site_symmetry_2
Sn1 O1 1_555 1_555
O1 C1 1_555 1_555
O2 C1 1_555 1_555
F1 C4 1_555 1_555
F2 C6 1_555 1_555
C1 C2 1_555 1_555
C2 C3 1_555 1_555
C3 H1 1_555 1_555
C4 C3 1_555 1_555
C5 C4 1_555 1_555
H2 C5 1_555 1_555
C6 C5 1_555 1_555
C7 C2 1_555 1_555
H3 C7 1_555 1_555
C8 Sn1 1_555 1_555
H4 C8 1_555 1_555
H5 C8 1_555 1_555
H6 C8 1_555 1_555
C9 Sn1 1_555 1_555
H7 C9 1_555 1_555
H8 C9 1_555 1_555
H9 C9 1_555 1_555
C10 Sn1 1_555 1_555
H10 C10 1_555 1_555
H11 C10 1_555 1_555
H12 C10 1_555 1_555
Sn1C O2 1_555 1_555
O2C Sn1 1_555 1_555
C6 C7 1_555 1_555

#END
