
#######################################################################
#
#                 Cambridge Crystallographic Data Centre
#                                CCDC 
#
#######################################################################
#
# If this CIF has been generated from an entry in the Cambridge 
# Structural Database, then it will include bibliographic, chemical, 
# crystal, experimental, refinement or atomic coordinate data resulting 
# from the CCDC's data processing and validation procedures.
#
#######################################################################

data_AWOGUP
_symmetry_cell_setting           monoclinic
_symmetry_space_group_name_H-M   'P 21/c'
_symmetry_Int_Tables_number      14
_space_group_name_Hall           '-P 2ybc'
loop_
_symmetry_equiv_pos_site_id
_symmetry_equiv_pos_as_xyz
1 x,y,z
2 -x,1/2+y,1/2-z
3 -x,-y,-z
4 x,1/2-y,1/2+z
_cell_length_a                   7.4608(5)
_cell_length_b                   13.8212(10)
_cell_length_c                   17.8629(13)
_cell_angle_alpha                90
_cell_angle_beta                 90.4510(10)
_cell_angle_gamma                90
_cell_volume                     1841.92
loop_
_atom_site_label
_atom_site_type_symbol
_atom_site_fract_x
_atom_site_fract_y
_atom_site_fract_z
Co1 Co 0.54880(4) 0.195950(18) 0.350426(14)
C1 C 0.7795(3) 0.12914(15) 0.66061(11)
H1 H 0.8186 0.1489 0.7078
C2 C 0.6298(3) 0.17243(15) 0.62840(11)
H2 H 0.5685 0.2200 0.6547
C3 C 0.5697(3) 0.14555(14) 0.55695(11)
C4 C 0.6616(3) 0.07175(14) 0.52012(11)
H3 H 0.6235 0.0524 0.4728
C5 C 0.8076(3) 0.02726(14) 0.55266(11)
H4 H 0.8643 -0.0229 0.5275
C6 C 0.8721(3) 0.05623(14) 0.62299(10)
C7 C 0.4104(3) 0.18914(13) 0.52141(11)
C8 C 0.2542(3) 0.21709(16) 0.55384(12)
H5 H 0.2285 0.2165 0.6047
C9 C 0.2298(3) 0.23532(15) 0.43242(11)
H6 H 0.1822 0.2503 0.3856
C10 C 1.0349(3) 0.00981(14) 0.65210(10)
C11 C 1.1089(3) -0.07682(14) 0.63344(11)
H7 H 1.0566 -0.1220 0.6015
C12 C 1.2952(3) -0.00842(15) 0.70919(11)
H8 H 1.3949 0.0041 0.7392
C13 C 0.1442(3) 0.10168(13) 0.19263(10)
C14 C -0.0230(3) 0.11928(14) 0.16014(11)
H9 H -0.0810 0.1775 0.1697
C15 C -0.1051(3) 0.05121(15) 0.11349(11)
C16 C -0.0144(3) -0.03479(15) 0.09966(11)
H10 H -0.0651 -0.0798 0.0671
C17 C 0.1502(3) -0.05523(14) 0.13329(11)
C18 C 0.2293(3) 0.01403(14) 0.17953(11)
H11 H 0.3399 0.0015 0.2018
C19 C -0.2909(3) 0.06834(19) 0.08092(15)
H12 H -0.3309 0.0110 0.0554
H13 H -0.2868 0.1213 0.0462
H14 H -0.3724 0.0835 0.1206
C20 C 0.2386(3) -0.15191(15) 0.12306(11)
C21 C 0.2327(3) 0.17620(14) 0.24256(11)
N1 N 0.3928(2) 0.20055(12) 0.44391(9)
N2 N 0.1423(3) 0.24621(13) 0.49691(10)
H15 H 0.0348 0.2677 0.5018
N3 N 1.1559(2) 0.05179(12) 0.70134(9)
H16 H 1.1438 0.1069 0.7231
N4 N 1.2734(2) -0.08794(12) 0.66891(9)
O1 O 0.3807(2) 0.14966(11) 0.27237(9)
O2 O 0.1604(2) 0.25623(10) 0.25192(9)
O3 O 0.1867(2) -0.21003(11) 0.07470(9)
O4 O 0.3683(2) -0.17173(11) 0.16856(9)
Co1B Co 1.45120(4) -0.195950(18) 0.649574(14)
Co1A Co 0.45120(4) -0.304050(18) 0.149574(14)
Co1C Co 1.54880(4) 0.304050(18) 0.850426(14)
C1B C 1.2205(3) -0.12914(15) 0.33939(11)
H1B H 1.1814 -0.1489 0.2922
C2B C 1.3702(3) -0.17243(15) 0.37160(11)
H2B H 1.4315 -0.2200 0.3453
C3B C 1.4303(3) -0.14555(14) 0.44305(11)
C4B C 1.3384(3) -0.07175(14) 0.47988(11)
H3B H 1.3765 -0.0524 0.5272
C5B C 1.1924(3) -0.02726(14) 0.44734(11)
H4B H 1.1357 0.0229 0.4725
C6B C 1.1279(3) -0.05623(14) 0.37701(10)
C7B C 1.5896(3) -0.18914(13) 0.47859(11)
C8B C 1.7458(3) -0.21709(16) 0.44616(12)
H5B H 1.7715 -0.2165 0.3953
C9B C 1.7702(3) -0.23532(15) 0.56758(11)
H6B H 1.8178 -0.2503 0.6144
C10B C 0.9651(3) -0.00981(14) 0.34790(10)
C11B C 0.8911(3) 0.07682(14) 0.36656(11)
H7B H 0.9434 0.1220 0.3985
C12B C 0.7048(3) 0.00842(15) 0.29081(11)
H8B H 0.6051 -0.0041 0.2608
C13B C 1.8558(3) -0.10168(13) 0.80737(10)
C14B C 2.0230(3) -0.11928(14) 0.83986(11)
H9B H 2.0810 -0.1775 0.8303
C15B C 2.1051(3) -0.05121(15) 0.88651(11)
C16B C 2.0144(3) 0.03479(15) 0.90034(11)
H10B H 2.0651 0.0798 0.9329
C17B C 1.8498(3) 0.05523(14) 0.86671(11)
C18B C 1.7707(3) -0.01403(14) 0.82047(11)
H11B H 1.6601 -0.0015 0.7982
C19B C 2.2909(3) -0.06834(19) 0.91908(15)
H12B H 2.3309 -0.0110 0.9446
H13B H 2.2868 -0.1213 0.9538
H14B H 2.3724 -0.0835 0.8794
C20B C 1.7614(3) 0.15191(15) 0.87694(11)
C21B C 1.7673(3) -0.17620(14) 0.75744(11)
N1B N 1.6072(2) -0.20055(12) 0.55609(9)
N2B N 1.8577(3) -0.24621(13) 0.50309(10)
H15B H 1.9652 -0.2677 0.4982
N3B N 0.8441(2) -0.05179(12) 0.29866(9)
H16B H 0.8562 -0.1069 0.2769
N4B N 0.7266(2) 0.08794(12) 0.33109(9)
O1B O 1.6193(2) -0.14966(11) 0.72763(9)
O2B O 1.8396(2) -0.25623(10) 0.74808(9)
O3B O 1.8133(2) 0.21003(11) 0.92530(9)
O4B O 1.6317(2) 0.17173(11) 0.83144(9)
O4A O 0.6317(2) 0.32827(11) 0.33144(9)
O4C O 1.3683(2) -0.32827(11) 0.66856(9)
loop_
_geom_bond_atom_site_label_1
_geom_bond_atom_site_label_2
_geom_bond_site_symmetry_1
_geom_bond_site_symmetry_2
Co1 N1 1_555 1_555
C1 H1 1_555 1_555
C2 C1 1_555 1_555
H2 C2 1_555 1_555
C3 C2 1_555 1_555
C4 C3 1_555 1_555
H3 C4 1_555 1_555
C5 C4 1_555 1_555
H4 C5 1_555 1_555
C6 C1 1_555 1_555
C7 C3 1_555 1_555
C8 C7 1_555 1_555
H5 C8 1_555 1_555
C9 H6 1_555 1_555
C10 C6 1_555 1_555
C11 C10 1_555 1_555
H7 C11 1_555 1_555
C12 H8 1_555 1_555
C13 C14 1_555 1_555
C14 H9 1_555 1_555
C15 C14 1_555 1_555
C16 C15 1_555 1_555
H10 C16 1_555 1_555
C17 C16 1_555 1_555
C18 C13 1_555 1_555
H11 C18 1_555 1_555
C19 C15 1_555 1_555
H12 C19 1_555 1_555
H13 C19 1_555 1_555
H14 C19 1_555 1_555
C20 C17 1_555 1_555
C21 C13 1_555 1_555
N1 C7 1_555 1_555
N2 C8 1_555 1_555
H15 N2 1_555 1_555
N3 C10 1_555 1_555
H16 N3 1_555 1_555
N4 C11 1_555 1_555
O1 Co1 1_555 1_555
O2 C21 1_555 1_555
O3 C20 1_555 1_555
O4 C20 1_555 1_555
Co1B N4 1_555 1_555
Co1A O4 1_555 1_555
Co1C O4B 1_555 1_555
C1B H1B 1_555 1_555
C2B C1B 1_555 1_555
H2B C2B 1_555 1_555
C3B C2B 1_555 1_555
C4B C3B 1_555 1_555
H3B C4B 1_555 1_555
C5B C4B 1_555 1_555
H4B C5B 1_555 1_555
C6B C1B 1_555 1_555
C7B C3B 1_555 1_555
C8B C7B 1_555 1_555
H5B C8B 1_555 1_555
C9B H6B 1_555 1_555
C10B C6B 1_555 1_555
C11B C10B 1_555 1_555
H7B C11B 1_555 1_555
C12B H8B 1_555 1_555
C13B C14B 1_555 1_555
C14B H9B 1_555 1_555
C15B C14B 1_555 1_555
C16B C15B 1_555 1_555
H10B C16B 1_555 1_555
C17B C16B 1_555 1_555
C18B C13B 1_555 1_555
H11B C18B 1_555 1_555
C19B C15B 1_555 1_555
H12B C19B 1_555 1_555
H13B C19B 1_555 1_555
H14B C19B 1_555 1_555
C20B C17B 1_555 1_555
C21B C13B 1_555 1_555
N1B Co1B 1_555 1_555
N2B C8B 1_555 1_555
H15B N2B 1_555 1_555
N3B C10B 1_555 1_555
H16B N3B 1_555 1_555
N4B Co1 1_555 1_555
O1B Co1B 1_555 1_555
O2B C21B 1_555 1_555
O3B C20B 1_555 1_555
O4B C20B 1_555 1_555
O4A Co1 1_555 1_555
O4C Co1B 1_555 1_555
C5 C6 1_555 1_555
C9 N1 1_555 1_555
C9 N2 1_555 1_555
C12 N3 1_555 1_555
C12 N4 1_555 1_555
C17 C18 1_555 1_555
C21 O1 1_555 1_555
C5B C6B 1_555 1_555
C7B N1B 1_555 1_555
C9B N1B 1_555 1_555
C9B N2B 1_555 1_555
C11B N4B 1_555 1_555
C12B N3B 1_555 1_555
C12B N4B 1_555 1_555
C17B C18B 1_555 1_555
C21B O1B 1_555 1_555

#END
