
#######################################################################
#
#                 Cambridge Crystallographic Data Centre
#                                CCDC 
#
#######################################################################
#
# If this CIF has been generated from an entry in the Cambridge 
# Structural Database, then it will include bibliographic, chemical, 
# crystal, experimental, refinement or atomic coordinate data resulting 
# from the CCDC's data processing and validation procedures.
#
#######################################################################

data_AWOJOM
_symmetry_cell_setting           monoclinic
_symmetry_space_group_name_H-M   'P 21/n'
_symmetry_Int_Tables_number      14
_space_group_name_Hall           '-P 2yn'
loop_
_symmetry_equiv_pos_site_id
_symmetry_equiv_pos_as_xyz
1 x,y,z
2 1/2-x,1/2+y,1/2-z
3 -x,-y,-z
4 1/2+x,1/2-y,1/2+z
_cell_length_a                   15.3615(3)
_cell_length_b                   6.9573(2)
_cell_length_c                   18.3714(4)
_cell_angle_alpha                90
_cell_angle_beta                 97.903(2)
_cell_angle_gamma                90
_cell_volume                     1944.79
loop_
_atom_site_label
_atom_site_type_symbol
_atom_site_fract_x
_atom_site_fract_y
_atom_site_fract_z
Cs1 Cs 0.841710(10) -0.10346(2) 0.720680(10)
Cs2 Cs 0.905290(10) 0.22312(3) 0.536160(10)
O1 O 0.83714(17) 0.3457(3) 0.68930(14)
O2 O 0.8960(2) -0.2190(4) 0.55795(16)
O3 O 0.73665(13) -0.4294(3) 0.52200(11)
O4 O 0.98455(12) -0.4344(3) 0.73556(11)
O5 O 0.70347(13) -0.3889(3) 0.63493(11)
O6 O 1.02270(13) -0.4711(3) 0.62336(11)
O7 O 0.28912(13) -0.0800(3) 0.46952(14)
O8 O 1.45842(14) -0.4375(4) 0.79413(13)
O9 O 0.33076(15) -0.1204(3) 0.36323(13)
O10 O 1.41202(14) -0.4656(4) 0.89839(12)
N1 N 0.54270(19) -0.2618(4) 0.65277(15)
N2 N 1.1923(2) -0.4733(4) 0.60844(14)
N3 N 0.34373(16) -0.1286(3) 0.43089(16)
N4 N 1.39943(15) -0.4527(3) 0.83134(14)
C1 C 0.59310(16) -0.3164(4) 0.53359(14)
C2 C 1.13677(17) -0.4523(4) 0.72575(15)
C3 C 0.52837(18) -0.2593(3) 0.57739(15)
C4 C 1.20638(17) -0.4629(4) 0.68315(15)
C5 C 0.44562(17) -0.2026(4) 0.54144(16)
C6 C 1.29288(18) -0.4587(4) 0.71978(15)
C7 C 0.43031(17) -0.1972(4) 0.46637(16)
C8 C 1.30730(17) -0.4511(4) 0.79487(15)
C9 C 0.49262(18) -0.2486(3) 0.42179(16)
C10 C 1.24048(18) -0.4438(4) 0.83875(15)
C11 C 0.57268(17) -0.3090(4) 0.45752(15)
C12 C 1.15594(17) -0.4416(4) 0.80207(15)
C13 C 0.68447(17) -0.3831(4) 0.56587(15)
C14 C 1.04058(18) -0.4511(4) 0.69248(16)
H1 H 1.34010 -0.46120 0.69310
H2 H 1.25210 -0.44050 0.88980
H3 H 1.236(2) -0.501(4) 0.5825(17)
H4 H 0.40130 -0.16870 0.56870
H5 H 1.143(2) -0.507(4) 0.5899(17)
H6 H 0.48100 -0.24270 0.37080
H7 H 0.61540 -0.34700 0.42920
H8 H 1.10950 -0.43270 0.82950
H9 H 0.888(3) 0.411(6) 0.699(2)
H10 H 0.797(3) 0.425(5) 0.673(2)
H11 H 0.596(3) -0.271(5) 0.674(2)
H12 H 0.849(3) -0.282(5) 0.547(2)
H13 H 0.513(2) -0.182(5) 0.6773(18)
H14 H 0.932(3) -0.289(6) 0.581(2)
Cs1A Cs 0.658290(10) 0.39654(2) 0.779320(10)
Cs1A_2 Cs 0.658290(10) -0.60346(2) 0.779320(10)
Cs1A_3 Cs 1.658290(10) -0.60346(2) 0.779320(10)
Cs1B Cs 0.158290(10) 0.10346(2) 0.279320(10)
Cs1C Cs 0.341710(10) -0.39654(2) 0.220680(10)
Cs2B Cs 1.094710(10) -0.22312(3) 0.463840(10)
Cs2_2 Cs 0.905290(10) -0.77688(3) 0.536160(10)
Cs2B_2 Cs 0.094710(10) -0.22312(3) 0.463840(10)
Cs2C Cs 1.405290(10) -0.72312(3) 1.036160(10)
Cs2A Cs 1.594710(10) -0.27688(3) 0.963840(10)
O1A O 0.66286(17) -0.1543(3) 0.81070(14)
O5A O 0.79653(13) 0.1111(3) 0.86507(11)
O6_2 O 1.02270(13) 0.5289(3) 0.62336(11)
O7B O 0.71088(13) 0.0800(3) 0.53048(14)
O8A O 1.04158(14) 0.0625(4) 0.70587(13)
O9B O 0.66924(15) 0.1204(3) 0.63677(13)
O9C O 0.83076(15) -0.3796(3) 0.86323(13)
O10C O 0.91202(14) -0.0344(4) 0.39839(12)
O10A O 1.08798(14) 0.0344(4) 0.60161(12)
N2B N 0.8077(2) 0.4733(4) 0.39156(14)
H3B H 0.764(2) 0.501(4) 0.4175(17)
H5B H 0.857(2) 0.507(4) 0.4101(17)
H9A H 0.612(3) -0.089(6) 0.801(2)
H10A H 0.703(3) -0.075(5) 0.827(2)
loop_
_geom_bond_atom_site_label_1
_geom_bond_atom_site_label_2
_geom_bond_site_symmetry_1
_geom_bond_site_symmetry_2
Cs1 O1 1_555 1_555
Cs2 O1 1_555 1_555
O1 H9 1_555 1_555
O2 Cs1 1_555 1_555
O3 C13 1_555 1_555
O4 Cs1 1_555 1_555
O5 Cs1 1_555 1_555
O6 C14 1_555 1_555
O7 N3 1_555 1_555
O8 N4 1_555 1_555
O9 N3 1_555 1_555
O10 N4 1_555 1_555
N1 C3 1_555 1_555
N2 C4 1_555 1_555
N3 C7 1_555 1_555
N4 C8 1_555 1_555
C1 C3 1_555 1_555
C2 C4 1_555 1_555
C3 C5 1_555 1_555
C4 C6 1_555 1_555
C5 C7 1_555 1_555
C6 C8 1_555 1_555
C7 C9 1_555 1_555
C8 C10 1_555 1_555
C9 C11 1_555 1_555
C10 C12 1_555 1_555
C11 C1 1_555 1_555
C12 C2 1_555 1_555
C13 O5 1_555 1_555
C14 O4 1_555 1_555
H1 C6 1_555 1_555
H2 C10 1_555 1_555
H3 N2 1_555 1_555
H4 C5 1_555 1_555
H5 N2 1_555 1_555
H6 C9 1_555 1_555
H7 C11 1_555 1_555
H8 C12 1_555 1_555
H10 O1 1_555 1_555
H11 N1 1_555 1_555
H12 O2 1_555 1_555
H13 N1 1_555 1_555
H14 O2 1_555 1_555
Cs1A O5A 1_555 1_555
Cs1A_2 O5 1_555 1_555
Cs1A_3 O8 1_555 1_555
Cs1B O9 1_555 1_555
Cs1C O9 1_555 1_555
Cs2B N2 1_555 1_555
Cs2_2 O6 1_555 1_555
Cs2B_2 O7 1_555 1_555
Cs2C O10 1_555 1_555
Cs2A O10 1_555 1_555
O1A Cs1A_2 1_555 1_555
O5A Cs1 1_555 1_555
O6_2 Cs2 1_555 1_555
O7B Cs2 1_555 1_555
O8A Cs1 1_555 1_555
O9B Cs1 1_555 1_555
O9C Cs1 1_555 1_555
O10C Cs2 1_555 1_555
O10A Cs2 1_555 1_555
N2B Cs2 1_555 1_555
H3B N2B 1_555 1_555
H5B N2B 1_555 1_555
H9A O1A 1_555 1_555
H10A O1A 1_555 1_555
Cs2 O2 1_555 1_555
C1 C13 1_555 1_555
C2 C14 1_555 1_555
Cs1A O9B 1_555 1_555
Cs1A_2 O9C 1_555 1_555
Cs2B O10C 1_555 1_555
Cs2B O10A 1_555 1_555

#END
