
#######################################################################
#
#                 Cambridge Crystallographic Data Centre
#                                CCDC 
#
#######################################################################
#
# If this CIF has been generated from an entry in the Cambridge 
# Structural Database, then it will include bibliographic, chemical, 
# crystal, experimental, refinement or atomic coordinate data resulting 
# from the CCDC's data processing and validation procedures.
#
#######################################################################

data_AWOKON
_symmetry_cell_setting           triclinic
_symmetry_space_group_name_H-M   'P -1'
_symmetry_Int_Tables_number      2
_space_group_name_Hall           '-P 1'
loop_
_symmetry_equiv_pos_site_id
_symmetry_equiv_pos_as_xyz
1 x,y,z
2 -x,-y,-z
_cell_length_a                   7.8093(2)
_cell_length_b                   9.7950(3)
_cell_length_c                   16.9380(5)
_cell_angle_alpha                90.772(2)
_cell_angle_beta                 91.256(2)
_cell_angle_gamma                106.916(4)
_cell_volume                     1239
loop_
_atom_site_label
_atom_site_type_symbol
_atom_site_fract_x
_atom_site_fract_y
_atom_site_fract_z
Pb1 Pb 0.08609(4) 0.15890(3) 0.394120(15)
O1 O 0.2512(8) 0.2967(5) 0.5057(3)
O2 O 0.2289(7) 0.0686(5) 0.5205(3)
O3 O 0.3813(6) 0.2084(5) 0.3496(3)
O4 O 0.1966(7) 0.1944(5) 0.2477(3)
O5 O 0.0783(8) 0.4092(5) 0.3616(3)
N1 N 0.0879(8) 0.8943(6) 0.3322(3)
N2 N 0.2113(10) 0.5633(7) 0.4600(4)
H3 H 0.24(2) 0.509(17) 0.482(10)
H4 H 0.26(2) 0.640(16) 0.482(9)
C1 C 0.2776(9) 0.1960(8) 0.5468(4)
C2 C 0.3632(9) 0.2337(7) 0.6261(4)
C3 C 0.3884(10) 0.1280(8) 0.6761(4)
H5 H 0.3562 0.0336 0.6581
C4 C 0.4593(11) 0.1614(8) 0.7507(4)
H6 H 0.4733 0.0893 0.7832
C5 C 0.5101(11) 0.2995(9) 0.7782(5)
C6 C 0.4914(12) 0.4041(9) 0.7300(5)
H7 H 0.5287 0.4983 0.7483
C7 C 0.4179(10) 0.3741(7) 0.6538(4)
H8 H 0.4055 0.4473 0.6219
C8 C 0.5923(15) 0.3367(12) 0.8615(6)
H9 H 0.6335 0.2584 0.8804
H10 H 0.6954 0.4205 0.8593
C9 C 0.465(2) 0.364(2) 0.9167(8)
H11 H 0.5276 0.4072 0.9644
H12 H 0.3777 0.2761 0.9287
H13 H 0.4062 0.4280 0.8934
C10 C 0.3483(10) 0.2031(7) 0.2747(4)
C11 C 0.4949(9) 0.2061(7) 0.2208(4)
C12 C 0.6732(10) 0.2396(8) 0.2472(4)
H14 H 0.7031 0.2632 0.3001
C13 C 0.8050(11) 0.2375(9) 0.1947(5)
H15 H 0.9236 0.2624 0.2128
C14 C 0.7663(13) 0.1999(12) 0.1170(6)
C15 C 0.5895(13) 0.1637(11) 0.0916(5)
H16 H 0.5603 0.1349 0.0392
C16 C 0.4540(11) 0.1691(9) 0.1423(5)
H17 H 0.3363 0.1479 0.1234
C17 C 0.9025(19) 0.166(2) 0.0606(8)
H18 H 0.9823 0.1221 0.0880
H19 H 0.8430 0.1051 0.0166
C18 C 0.997(3) 0.309(3) 0.0350(13)
H20 H 1.0379 0.3035 -0.0177
H21 H 1.0975 0.3498 0.0700
H22 H 0.9172 0.3673 0.0356
C19 C 0.1215(9) 0.7884(7) 0.3749(4)
H23 H 0.1658 0.8091 0.4264
C20 C 0.0926(9) 0.6504(7) 0.3452(4)
C21 C 0.0247(11) 0.6222(8) 0.2695(4)
H24 H 0.0012 0.5307 0.2478
C22 C -0.0087(12) 0.7296(8) 0.2257(5)
H25 H -0.0530 0.7120 0.1740
C23 C 0.0241(10) 0.8614(8) 0.2593(4)
H26 H 0.0003 0.9329 0.2293
C24 C 0.1279(9) 0.5335(7) 0.3905(4)
Pb1_2 Pb 0.08609(4) 1.15890(3) 0.394120(15)
N1_2 N 0.0879(8) -0.1057(6) 0.3322(3)
O6 O 0.3512(9) 0.8292(6) 0.5453(4)
H1 H 0.347(11) 0.919(4) 0.550(5)
H2 H 0.425(11) 0.808(11) 0.582(5)
loop_
_geom_bond_atom_site_label_1
_geom_bond_atom_site_label_2
_geom_bond_site_symmetry_1
_geom_bond_site_symmetry_2
Pb1 O1 1_555 1_555
O1 C1 1_555 1_555
O2 Pb1 1_555 1_555
O3 Pb1 1_555 1_555
O4 Pb1 1_555 1_555
O5 Pb1 1_555 1_555
O6 H1 1_555 1_555
H2 O6 1_555 1_555
N1 C19 1_555 1_555
N2 H3 1_555 1_555
H4 N2 1_555 1_555
C1 O2 1_555 1_555
C2 C1 1_555 1_555
C3 C2 1_555 1_555
H5 C3 1_555 1_555
C4 C3 1_555 1_555
H6 C4 1_555 1_555
C5 C4 1_555 1_555
C6 C5 1_555 1_555
H7 C6 1_555 1_555
C7 C2 1_555 1_555
H8 C7 1_555 1_555
C8 C5 1_555 1_555
H9 C8 1_555 1_555
H10 C8 1_555 1_555
C9 C8 1_555 1_555
H11 C9 1_555 1_555
H12 C9 1_555 1_555
H13 C9 1_555 1_555
C10 O3 1_555 1_555
C11 C10 1_555 1_555
C12 C11 1_555 1_555
H14 C12 1_555 1_555
C13 C12 1_555 1_555
H15 C13 1_555 1_555
C14 C13 1_555 1_555
C15 C14 1_555 1_555
H16 C15 1_555 1_555
C16 C11 1_555 1_555
H17 C16 1_555 1_555
C17 C14 1_555 1_555
H18 C17 1_555 1_555
H19 C17 1_555 1_555
C18 C17 1_555 1_555
H20 C18 1_555 1_555
H21 C18 1_555 1_555
H22 C18 1_555 1_555
C19 H23 1_555 1_555
C20 C19 1_555 1_555
C21 C20 1_555 1_555
H24 C21 1_555 1_555
C22 C21 1_555 1_555
H25 C22 1_555 1_555
C23 N1 1_555 1_555
H26 C23 1_555 1_555
C24 O5 1_555 1_555
Pb1_2 N1 1_555 1_555
N1_2 Pb1 1_555 1_555
O4 C10 1_555 1_555
N2 C24 1_555 1_555
C6 C7 1_555 1_555
C15 C16 1_555 1_555
C20 C24 1_555 1_555
C22 C23 1_555 1_555

#END
