
#######################################################################
#
#                 Cambridge Crystallographic Data Centre
#                                CCDC 
#
#######################################################################
#
# If this CIF has been generated from an entry in the Cambridge 
# Structural Database, then it will include bibliographic, chemical, 
# crystal, experimental, refinement or atomic coordinate data resulting 
# from the CCDC's data processing and validation procedures.
#
#######################################################################

data_AWOLAA
_symmetry_cell_setting           triclinic
_symmetry_space_group_name_H-M   'P -1'
_symmetry_Int_Tables_number      2
_space_group_name_Hall           '-P 1'
loop_
_symmetry_equiv_pos_site_id
_symmetry_equiv_pos_as_xyz
1 x,y,z
2 -x,-y,-z
_cell_length_a                   6.6246(4)
_cell_length_b                   9.4895(6)
_cell_length_c                   21.5242(14)
_cell_angle_alpha                97.0370(10)
_cell_angle_beta                 94.3650(10)
_cell_angle_gamma                98.1580(10)
_cell_volume                     1323.28
loop_
_atom_site_label
_atom_site_type_symbol
_atom_site_fract_x
_atom_site_fract_y
_atom_site_fract_z
Gd1 Gd 0.32032(4) 0.01920(3) 0.860942(13)
Gd2 Gd 0.06244(4) -0.11452(3) 0.677435(12)
Gd3 Gd -0.65223(4) -0.70746(3) 0.577800(12)
Co1 Co 0.0000 -0.5000 1.0000
O1 O -0.4123(6) -0.4986(4) 0.57821(18)
O2 O -0.2305(6) -0.2685(4) 0.62195(18)
O3 O -0.4951(6) -0.2846(4) 0.53606(19)
O4 O -0.1821(6) -0.3677(4) 0.51665(17)
O5 O -0.0076(6) 0.2064(5) 0.57519(19)
O6 O -0.3600(6) 0.1890(4) 0.59394(18)
O7 O -0.0972(7) 0.2861(5) 0.6784(2)
O8 O -0.1559(6) 0.0343(4) 0.6384(2)
O9 O 0.2770(6) 0.1287(4) 0.66017(17)
O10 O 0.2305(6) 0.0899(4) 0.75724(17)
O11 O 0.4727(6) 0.4993(4) 0.90116(17)
O12 O 0.3876(7) 0.2637(4) 0.87580(18)
O13 O 0.8101(6) -0.1202(4) 0.74975(17)
O14 O 0.6215(7) 0.0358(6) 0.8083(2)
O15 O 0.6829(9) -0.1806(5) 0.8464(2)
O16 O 0.9587(6) 0.0130(5) 0.84923(18)
O17 O 0.0511(6) -0.3579(4) 0.71192(17)
O18 O 0.2061(6) -0.1868(4) 0.78501(17)
O19 O 0.2704(7) -0.1689(4) 0.91713(18)
O20 O 0.1723(6) -0.3106(4) 0.98679(18)
O21 O -0.8394(6) -0.5004(5) 0.60151(19)
O22 O -0.7245(8) -0.9400(4) 0.5129(2)
O23 O 0.1524(7) -0.1827(5) 0.57208(19)
O24 O 0.4233(6) -0.1325(5) 0.6762(2)
O25 O -0.2598(6) -0.3942(5) 0.99898(19)
O26 O 0.1736(8) 0.0987(5) 0.9657(2)
O27 O 0.5970(7) 0.0679(5) 0.9443(2)
S1 S -0.3326(2) -0.35595(14) 0.56437(6)
S2 S -0.1535(2) 0.18259(15) 0.62287(6)
S3 S 0.7695(2) -0.06454(16) 0.81416(7)
C1 C 0.4362(8) 0.3885(6) 0.8621(3)
C2 C 0.4511(8) 0.4082(6) 0.7951(3)
C3 C 0.5229(9) 0.5306(6) 0.7176(3)
H1 H 0.5691 0.6064 0.6962
C4 C 0.3980(8) 0.3219(6) 0.7387(2)
C5 C 0.2976(8) 0.1721(6) 0.7186(3)
C6 C 0.1110(8) -0.3138(6) 0.7687(3)
C7 C 0.0605(8) -0.4112(6) 0.8153(3)
C8 C -0.0768(9) -0.6127(6) 0.8472(3)
H2 H -0.1426 -0.7064 0.8461
C9 C 0.0754(8) -0.3975(6) 0.8805(3)
C10 C 0.1800(9) -0.2830(6) 0.9302(3)
N1 N 0.4447(7) 0.4009(5) 0.6903(2)
N2 N 0.5273(8) 0.5395(5) 0.7805(2)
N3 N -0.0128(7) -0.5241(5) 0.8990(2)
N4 N -0.0344(8) -0.5494(5) 0.7957(2)
H3 H -0.054(9) -0.587(6) 0.7570(12)
H4 H 0.567(9) 0.615(4) 0.808(2)
H5 H -0.931(6) -0.508(7) 0.5738(16)
H6 H -0.890(8) -0.492(7) 0.6344(13)
H7 H -0.690(9) -0.953(5) 0.4774(15)
H8 H -0.767(9) -1.022(3) 0.520(2)
H9 H 0.063(6) -0.233(5) 0.547(2)
H10 H 0.254(5) -0.224(6) 0.565(3)
H11 H 0.498(7) -0.116(7) 0.7088(13)
H12 H 0.500(7) -0.112(7) 0.6495(17)
H13 H -0.343(7) -0.430(6) 0.9692(15)
H14 H -0.313(8) -0.411(6) 1.0303(14)
H15 H 0.049(3) 0.076(5) 0.958(3)
H16 H 0.187(8) 0.183(3) 0.982(3)
H17 H 0.646(8) 0.148(3) 0.960(3)
H18 H 0.655(8) 0.013(4) 0.962(3)
Gd1A Gd -0.32032(4) -1.01920(3) 1.139058(13)
Gd1_2 Gd 1.32032(4) 0.01920(3) 0.860942(13)
Gd1_3 Gd -0.67968(4) 0.01920(3) 0.860942(13)
Gd2A Gd -0.06244(4) -0.88548(3) 1.322565(12)
Gd2_2 Gd 1.06244(4) -0.11452(3) 0.677435(12)
Gd3A Gd 0.65223(4) -0.29254(3) 1.422200(12)
Gd3A_2 Gd -0.34777(4) -0.29254(3) 0.422200(12)
Gd3_2 Gd 0.34777(4) 0.29254(3) 0.577800(12)
Gd3_3 Gd -0.65223(4) 0.29254(3) 0.577800(12)
Gd3A_3 Gd -0.34777(4) -1.29254(3) 1.422200(12)
Gd3_4 Gd 0.34777(4) -0.70746(3) 1.577800(12)
Gd3A_4 Gd 0.65223(4) -1.29254(3) 1.422200(12)
O1A O 0.4123(6) -0.5014(4) 1.42179(18)
O2A O 0.2305(6) -0.7315(4) 1.37805(18)
O3A O 0.4951(6) -0.7154(4) 1.46394(19)
O3A_2 O -0.5049(6) -0.7154(4) 0.46394(19)
O3_2 O 0.5049(6) -0.2846(4) 1.53606(19)
O4A O 0.1821(6) -0.6323(4) 1.48335(17)
O4A_2 O -0.8179(6) -0.6323(4) 0.48335(17)
O4_2 O 0.8179(6) -0.3677(4) 1.51665(17)
O5A O 0.0076(6) -1.2064(5) 1.42481(19)
O5_2 O -1.0076(6) -0.7936(5) 0.57519(19)
O5A_2 O 1.0076(6) -0.2064(5) 1.42481(19)
O6A O 0.3600(6) -1.1890(4) 1.40606(18)
O6_2 O -0.3600(6) -0.8110(4) 0.59394(18)
O6A_2 O 0.3600(6) -0.1890(4) 1.40606(18)
O7A O 0.0972(7) -1.2861(5) 1.3216(2)
O8A O 0.1559(6) -1.0343(4) 1.3616(2)
O9A O -0.2770(6) -1.1287(4) 1.33983(17)
O9_2 O -0.7230(6) -0.8713(4) 0.66017(17)
O9A_2 O 0.7230(6) -0.1287(4) 1.33983(17)
O10A O -0.2305(6) -1.0899(4) 1.24276(17)
O11A O -0.4727(6) -1.4993(4) 1.09884(17)
O12A O -0.3876(7) -1.2637(4) 1.12420(18)
O13_2 O -0.1899(6) -0.1202(4) 0.74975(17)
O13A O 0.1899(6) -0.8798(4) 1.25025(17)
O14_2 O -0.3785(7) 0.0358(6) 0.8083(2)
O14A O -0.6215(7) -1.0358(6) 1.1917(2)
O15_2 O -0.3171(9) -0.1806(5) 0.8464(2)
O16_2 O -0.0413(6) 0.0130(5) 0.84923(18)
O16A O 0.0413(6) -1.0130(5) 1.15077(18)
O17A O -0.0511(6) -0.6421(4) 1.28808(17)
O18A O -0.2061(6) -0.8132(4) 1.21499(17)
O19A O -0.2704(7) -0.8311(4) 1.08287(18)
O20A O -0.1723(6) -0.6894(4) 1.01321(18)
O21A O 0.8394(6) -0.4996(5) 1.39849(19)
O22A O 0.7245(8) -0.0600(4) 1.4871(2)
O23A O -0.1524(7) -0.8173(5) 1.42792(19)
O24A O -0.4233(6) -0.8675(5) 1.3238(2)
O25A O 0.2598(6) -0.6058(5) 1.00102(19)
O26A O -0.1736(8) -1.0987(5) 1.0343(2)
O27A O -0.5970(7) -1.0679(5) 1.0557(2)
S1A S 0.3326(2) -0.64405(14) 1.43563(6)
S2A S 0.1535(2) -1.18259(15) 1.37713(6)
S3_2 S -0.2305(2) -0.06454(16) 0.81416(7)
C1A C -0.4362(8) -1.3885(6) 1.1379(3)
C2A C -0.4511(8) -1.4082(6) 1.2049(3)
C3A C -0.5229(9) -1.5306(6) 1.2824(3)
H1A H -0.5691 -1.6064 1.3038
C4A C -0.3980(8) -1.3219(6) 1.2613(2)
C5A C -0.2976(8) -1.1721(6) 1.2814(3)
C6A C -0.1110(8) -0.6862(6) 1.2313(3)
C7A C -0.0605(8) -0.5888(6) 1.1847(3)
C8A C 0.0768(9) -0.3873(6) 1.1528(3)
H2A H 0.1426 -0.2936 1.1539
C9A C -0.0754(8) -0.6025(6) 1.1195(3)
C10A C -0.1800(9) -0.7170(6) 1.0698(3)
N1A N -0.4447(7) -1.4009(5) 1.3097(2)
N1_2 N -0.5553(7) -0.5991(5) 0.6903(2)
N1A_2 N 0.5553(7) -0.4009(5) 1.3097(2)
N2A N -0.5273(8) -1.5395(5) 1.2195(2)
N3A N 0.0128(7) -0.4759(5) 1.1010(2)
N4A N 0.0344(8) -0.4506(5) 1.2043(2)
H3A H 0.054(9) -0.413(6) 1.2430(12)
H4A H -0.567(9) -1.615(4) 1.192(2)
H5A H 0.931(6) -0.492(7) 1.4262(16)
H6A H 0.890(8) -0.508(7) 1.3656(13)
H7A H 0.690(9) -0.047(5) 1.5226(15)
H8A H 0.767(9) 0.022(3) 1.480(2)
H9A H -0.063(6) -0.767(5) 1.453(2)
H10A H -0.254(5) -0.776(6) 1.435(3)
H11A H -0.498(7) -0.884(7) 1.2912(13)
H12A H -0.500(7) -0.888(7) 1.3505(17)
H13A H 0.343(7) -0.570(6) 1.0308(15)
H14A H 0.313(8) -0.589(6) 0.9697(14)
H15A H -0.049(3) -1.076(5) 1.042(3)
H16A H -0.187(8) -1.183(3) 1.018(3)
H17A H -0.646(8) -1.148(3) 1.040(3)
H18A H -0.655(8) -1.013(4) 1.038(3)
loop_
_geom_bond_atom_site_label_1
_geom_bond_atom_site_label_2
_geom_bond_site_symmetry_1
_geom_bond_site_symmetry_2
Gd1 O10 1_555 1_555
Gd2 O2 1_555 1_555
Gd3 O1 1_555 1_555
Co1 O20 1_555 1_555
O1 S1 1_555 1_555
O2 S1 1_555 1_555
O3 S1 1_555 1_555
O4 S1 1_555 1_555
O5 S2 1_555 1_555
O6 S2 1_555 1_555
O7 S2 1_555 1_555
O8 Gd2 1_555 1_555
O9 Gd2 1_555 1_555
O10 Gd2 1_555 1_555
O11 C1 1_555 1_555
O12 Gd1 1_555 1_555
O13 S3 1_555 1_555
O14 Gd1 1_555 1_555
O15 S3 1_555 1_555
O16 S3 1_555 1_555
O17 Gd2 1_555 1_555
O18 Gd1 1_555 1_555
O19 Gd1 1_555 1_555
O20 C10 1_555 1_555
O21 Gd3 1_555 1_555
O22 Gd3 1_555 1_555
O23 Gd2 1_555 1_555
O24 Gd2 1_555 1_555
O25 Co1 1_555 1_555
O26 Gd1 1_555 1_555
O27 Gd1 1_555 1_555
S2 O8 1_555 1_555
S3 O14 1_555 1_555
C1 O12 1_555 1_555
C2 C1 1_555 1_555
C3 H1 1_555 1_555
C4 C2 1_555 1_555
C5 O9 1_555 1_555
C6 O17 1_555 1_555
C7 C6 1_555 1_555
C8 H2 1_555 1_555
C9 C7 1_555 1_555
C10 O19 1_555 1_555
N1 C3 1_555 1_555
N2 C2 1_555 1_555
N3 Co1 1_555 1_555
N4 C7 1_555 1_555
H3 N4 1_555 1_555
H4 N2 1_555 1_555
H5 O21 1_555 1_555
H6 O21 1_555 1_555
H7 O22 1_555 1_555
H8 O22 1_555 1_555
H9 O23 1_555 1_555
H10 O23 1_555 1_555
H11 O24 1_555 1_555
H12 O24 1_555 1_555
H13 O25 1_555 1_555
H14 O25 1_555 1_555
H15 O26 1_555 1_555
H16 O26 1_555 1_555
H17 O27 1_555 1_555
H18 O27 1_555 1_555
Gd1A O10A 1_555 1_555
Gd1_2 O16 1_555 1_555
Gd1_3 O14_2 1_555 1_555
Gd2A O2A 1_555 1_555
Gd2_2 O13 1_555 1_555
Gd3A O1A 1_555 1_555
Gd3A_2 O3 1_555 1_555
Gd3_2 O5 1_555 1_555
Gd3_3 O6 1_555 1_555
Gd3A_3 O5A 1_555 1_555
Gd3_4 O3A 1_555 1_555
Gd3A_4 O6A 1_555 1_555
O1A S1A 1_555 1_555
O2A S1A 1_555 1_555
O3A S1A 1_555 1_555
O3A_2 Gd3 1_555 1_555
O3_2 Gd3A 1_555 1_555
O4A Gd3_4 1_555 1_555
O4A_2 Gd3 1_555 1_555
O4_2 Gd3A 1_555 1_555
O5A S2A 1_555 1_555
O5_2 Gd3 1_555 1_555
O5A_2 Gd3A 1_555 1_555
O6A S2A 1_555 1_555
O6_2 Gd3 1_555 1_555
O6A_2 Gd3A 1_555 1_555
O7A S2A 1_555 1_555
O8A Gd2A 1_555 1_555
O9A Gd2A 1_555 1_555
O9_2 Gd3 1_555 1_555
O9A_2 Gd3A 1_555 1_555
O10A Gd2A 1_555 1_555
O11A C1A 1_555 1_555
O12A Gd1A 1_555 1_555
O13_2 Gd2 1_555 1_555
O13A Gd2A 1_555 1_555
O14_2 S3_2 1_555 1_555
O14A Gd1A 1_555 1_555
O15_2 S3_2 1_555 1_555
O16_2 Gd1 1_555 1_555
O16A Gd1A 1_555 1_555
O17A Gd2A 1_555 1_555
O18A Gd1A 1_555 1_555
O19A Gd1A 1_555 1_555
O20A Co1 1_555 1_555
O21A Gd3A 1_555 1_555
O22A Gd3A 1_555 1_555
O23A Gd2A 1_555 1_555
O24A Gd2A 1_555 1_555
O25A Co1 1_555 1_555
O26A Gd1A 1_555 1_555
O27A Gd1A 1_555 1_555
S1A O4A 1_555 1_555
S2A O8A 1_555 1_555
S3_2 O13_2 1_555 1_555
C1A O12A 1_555 1_555
C2A C1A 1_555 1_555
C3A H1A 1_555 1_555
C4A C2A 1_555 1_555
C5A O9A 1_555 1_555
C6A O17A 1_555 1_555
C7A C6A 1_555 1_555
C8A H2A 1_555 1_555
C9A C7A 1_555 1_555
C10A O19A 1_555 1_555
N1A Gd3A_3 1_555 1_555
N1_2 Gd3 1_555 1_555
N1A_2 Gd3A 1_555 1_555
N2A C2A 1_555 1_555
N3A Co1 1_555 1_555
N4A C7A 1_555 1_555
H3A N4A 1_555 1_555
H4A N2A 1_555 1_555
H5A O21A 1_555 1_555
H6A O21A 1_555 1_555
H7A O22A 1_555 1_555
H8A O22A 1_555 1_555
H9A O23A 1_555 1_555
H10A O23A 1_555 1_555
H11A O24A 1_555 1_555
H12A O24A 1_555 1_555
H13A O25A 1_555 1_555
H14A O25A 1_555 1_555
H15A O26A 1_555 1_555
H16A O26A 1_555 1_555
H17A O27A 1_555 1_555
H18A O27A 1_555 1_555
Gd2 O18 1_555 1_555
O4 Gd3A_2 1_555 1_555
O9 Gd3_2 1_555 1_555
O10 C5 1_555 1_555
O18 C6 1_555 1_555
C3 N2 1_555 1_555
C4 C5 1_555 1_555
C4 N1 1_555 1_555
C8 N3 1_555 1_555
C8 N4 1_555 1_555
C9 C10 1_555 1_555
C9 N3 1_555 1_555
N1 Gd3_2 1_555 1_555
Gd2A O18A 1_555 1_555
Gd3A_3 O9A 1_555 1_555
O10A C5A 1_555 1_555
O16_2 S3_2 1_555 1_555
O18A C6A 1_555 1_555
O20A C10A 1_555 1_555
C3A N1A 1_555 1_555
C3A N2A 1_555 1_555
C4A C5A 1_555 1_555
C4A N1A 1_555 1_555
C8A N3A 1_555 1_555
C8A N4A 1_555 1_555
C9A C10A 1_555 1_555
C9A N3A 1_555 1_555

#END
