
#######################################################################
#
#                 Cambridge Crystallographic Data Centre
#                                CCDC 
#
#######################################################################
#
# If this CIF has been generated from an entry in the Cambridge 
# Structural Database, then it will include bibliographic, chemical, 
# crystal, experimental, refinement or atomic coordinate data resulting 
# from the CCDC's data processing and validation procedures.
#
#######################################################################

data_AWOVEO
_symmetry_cell_setting           monoclinic
_symmetry_space_group_name_H-M   'C 2/c'
_symmetry_Int_Tables_number      15
_space_group_name_Hall           '-C 2yn'
loop_
_symmetry_equiv_pos_site_id
_symmetry_equiv_pos_as_xyz
1 x,y,z
2 -x,y,1/2-z
3 1/2+x,1/2+y,z
4 1/2-x,1/2+y,1/2-z
5 -x,-y,-z
6 x,-y,1/2+z
7 1/2-x,1/2-y,-z
8 1/2+x,1/2-y,1/2+z
_cell_length_a                   24.885(3)
_cell_length_b                   8.8026(9)
_cell_length_c                   13.8918(17)
_cell_angle_alpha                90
_cell_angle_beta                 119.609(4)
_cell_angle_gamma                90
_cell_volume                     2645.67
loop_
_atom_site_label
_atom_site_type_symbol
_atom_site_fract_x
_atom_site_fract_y
_atom_site_fract_z
Sr1 Sr 0.911042(8) 0.99774(2) 0.338611(16)
O1 O 0.83711(7) 1.00426(19) 0.42892(15)
O2 O 0.98788(9) 0.7809(2) 0.35213(18)
O3 O 1.02876(8) 1.0958(2) 0.44716(15)
O4 O 0.92432(9) 1.2071(3) 0.21578(19)
O5 O 0.88485(10) 0.8965(3) 0.14660(16)
O6 O 0.80135(7) 1.10726(17) 0.20264(13)
O7 O 0.68196(8) 1.24431(17) -0.01295(14)
O8 O 0.63364(7) 0.90554(19) -0.10260(15)
O9 O 0.74969(7) 0.76209(17) 0.11403(15)
H1 H 0.7835 0.763 0.1706
O10 O 0.80095(7) 0.40021(18) 0.20800(14)
H2 H 0.8005 0.3073 0.2116
O11 O 0.84872(7) 0.73793(16) 0.29979(14)
O12 O 0.95937(8) 0.5984(2) 0.52759(16)
O13 O 0.91536(7) 0.25641(17) 0.43112(15)
C1 C 0.75625(10) 1.0501(3) 0.1175(2)
C2 C 0.70216(10) 1.1153(3) 0.0187(2)
C3 C 0.67972(11) 0.9580(3) -0.0218(2)
C4 C 0.73365(10) 0.9012(3) 0.0776(2)
C5 C 0.84871(10) 0.4537(3) 0.2975(2)
C6 C 0.86769(10) 0.6055(3) 0.3350(2)
C7 C 0.91914(11) 0.5446(3) 0.4401(2)
C8 C 0.89846(10) 0.3877(3) 0.3960(2)
H3 H 0.8227(16) 0.926(4) 0.432(3)
H4 H 0.8113(17) 1.062(4) 0.401(3)
H5 H 0.8812(15) 0.796(4) 0.134(3)
H6 H 1.0251(15) 0.776(4) 0.417(3)
H7 H 0.8711(17) 0.934(5) 0.094(3)
H8 H 1.0439(16) 1.072(4) 0.414(3)
H9 H 1.0298(15) 1.201(4) 0.453(3)
H10 H 0.9798(16) 0.719(4) 0.316(3)
H11 H 0.8953(17) 1.219(4) 0.158(3)
H12 H 0.9498(16) 1.284(4) 0.241(3)
Sr1D Sr 1.088958(8) 1.00226(2) 0.661389(16)
Sr1_2 Sr 0.911042(8) -0.00226(2) 0.338611(16)
Sr1_3 Sr 0.911042(8) 1.99774(2) 0.338611(16)
O1D O 1.16289(7) 0.99574(19) 0.57108(15)
O2D O 1.01212(9) 1.2191(2) 0.64787(18)
O3D O 0.97124(8) 0.9042(2) 0.55284(15)
O4D O 1.07568(9) 0.7929(3) 0.78422(19)
O5D O 1.11515(10) 1.1035(3) 0.85340(16)
O6D O 1.19865(7) 0.89274(17) 0.79736(13)
O7D O 1.31804(8) 0.75569(17) 1.01295(14)
O8D O 1.36636(7) 1.09446(19) 1.10260(15)
O9D O 1.25031(7) 1.23791(17) 0.88597(15)
H1D H 1.2165 1.237 0.8294
O10_2 O 0.80095(7) 1.40021(18) 0.20800(14)
H2_2 H 0.8005 1.3073 0.2116
O11_2 O 0.84872(7) 1.73793(16) 0.29979(14)
O11D O 1.15128(7) 1.26207(16) 0.70021(14)
O12_2 O 0.95937(8) 1.5984(2) 0.52759(16)
O13_2 O 0.91536(7) 1.25641(17) 0.43112(15)
O13D O 1.08464(7) 0.74359(17) 0.56888(15)
C1D C 1.24375(10) 0.9499(3) 0.8825(2)
C2D C 1.29784(10) 0.8847(3) 0.9813(2)
C3D C 1.32028(11) 1.0420(3) 1.0218(2)
C4D C 1.26635(10) 1.0988(3) 0.9224(2)
C5_2 C 0.84871(10) 1.4537(3) 0.2975(2)
C6_2 C 0.86769(10) 1.6055(3) 0.3350(2)
C7_2 C 0.91914(11) 1.5446(3) 0.4401(2)
C8_2 C 0.89846(10) 1.3877(3) 0.3960(2)
H3D H 1.1773(16) 1.074(4) 0.568(3)
H4D H 1.1887(17) 0.938(4) 0.599(3)
H5D H 1.1188(15) 1.204(4) 0.866(3)
H6D H 0.9749(15) 1.224(4) 0.583(3)
H7D H 1.1289(17) 1.066(5) 0.906(3)
H8D H 0.9561(16) 0.928(4) 0.586(3)
H9D H 0.9702(15) 0.799(4) 0.547(3)
H10D H 1.0202(16) 1.281(4) 0.684(3)
H11D H 1.1047(17) 0.781(4) 0.842(3)
H12D H 1.0502(16) 0.716(4) 0.759(3)
O14 O 1.00000 1.4700(3) 0.25000
H13 H 1.0225(13) 1.513(3) 0.3020(13)
H13A H 0.9775(13) 1.513(3) 0.1980(13)
loop_
_geom_bond_atom_site_label_1
_geom_bond_atom_site_label_2
_geom_bond_site_symmetry_1
_geom_bond_site_symmetry_2
Sr1 O1 1_555 1_555
O1 H3 1_555 1_555
O2 Sr1 1_555 1_555
O3 Sr1 1_555 1_555
O4 Sr1 1_555 1_555
O5 Sr1 1_555 1_555
O6 Sr1 1_555 1_555
O7 C2 1_555 1_555
O8 C3 1_555 1_555
O9 H1 1_555 1_555
O10 H2 1_555 1_555
O11 Sr1 1_555 1_555
O12 C7 1_555 1_555
O13 C8 1_555 1_555
C1 O6 1_555 1_555
C2 C1 1_555 1_555
C3 C2 1_555 1_555
C4 O9 1_555 1_555
C5 O10 1_555 1_555
C6 O11 1_555 1_555
C7 C6 1_555 1_555
C8 C5 1_555 1_555
O14 H13 1_555 1_555
H4 O1 1_555 1_555
H5 O5 1_555 1_555
H6 O2 1_555 1_555
H7 O5 1_555 1_555
H8 O3 1_555 1_555
H9 O3 1_555 1_555
H10 O2 1_555 1_555
H11 O4 1_555 1_555
H12 O4 1_555 1_555
Sr1D O3 1_555 1_555
Sr1_2 O13 1_555 1_555
Sr1_3 O11_2 1_555 1_555
O1D Sr1D 1_555 1_555
O2D Sr1D 1_555 1_555
O3D Sr1 1_555 1_555
O4D Sr1D 1_555 1_555
O5D Sr1D 1_555 1_555
O6D Sr1D 1_555 1_555
O7D C2D 1_555 1_555
O8D C3D 1_555 1_555
O9D H1D 1_555 1_555
O10_2 H2_2 1_555 1_555
O11_2 C6_2 1_555 1_555
O11D Sr1D 1_555 1_555
O12_2 C7_2 1_555 1_555
O13_2 Sr1 1_555 1_555
O13D Sr1D 1_555 1_555
C1D O6D 1_555 1_555
C2D C1D 1_555 1_555
C3D C2D 1_555 1_555
C4D O9D 1_555 1_555
C5_2 O10_2 1_555 1_555
C6_2 C5_2 1_555 1_555
C7_2 C6_2 1_555 1_555
C8_2 O13_2 1_555 1_555
H3D O1D 1_555 1_555
H4D O1D 1_555 1_555
H5D O5D 1_555 1_555
H6D O2D 1_555 1_555
H7D O5D 1_555 1_555
H8D O3D 1_555 1_555
H9D O3D 1_555 1_555
H10D O2D 1_555 1_555
H11D O4D 1_555 1_555
H12D O4D 1_555 1_555
H13A O14 1_555 1_555
C1 C4 1_555 1_555
C3 C4 1_555 1_555
C5 C6 1_555 1_555
C7 C8 1_555 1_555
Sr1D O3D 1_555 1_555
C1D C4D 1_555 1_555
C3D C4D 1_555 1_555
C5_2 C8_2 1_555 1_555
C7_2 C8_2 1_555 1_555

#END
