
#######################################################################
#
#                 Cambridge Crystallographic Data Centre
#                                CCDC 
#
#######################################################################
#
# If this CIF has been generated from an entry in the Cambridge 
# Structural Database, then it will include bibliographic, chemical, 
# crystal, experimental, refinement or atomic coordinate data resulting 
# from the CCDC's data processing and validation procedures.
#
#######################################################################

data_AWOVUE
_symmetry_cell_setting           monoclinic
_symmetry_space_group_name_H-M   'P 2/n'
_symmetry_Int_Tables_number      13
_space_group_name_Hall           '-P 2yac'
loop_
_symmetry_equiv_pos_site_id
_symmetry_equiv_pos_as_xyz
1 x,y,z
2 1/2-x,y,1/2-z
3 -x,-y,-z
4 1/2+x,-y,1/2+z
_cell_length_a                   4.8645(2)
_cell_length_b                   7.3283(2)
_cell_length_c                   20.7228(6)
_cell_angle_alpha                90
_cell_angle_beta                 93.710(2)
_cell_angle_gamma                90
_cell_volume                     737.189
loop_
_atom_site_label
_atom_site_type_symbol
_atom_site_fract_x
_atom_site_fract_y
_atom_site_fract_z
Ag1 Ag 0.7500 0.19621(3) 0.2500
O1 O 0.7224(4) 0.5063(2) 0.19907(7)
N1 N 0.4040(3) 0.0979(2) 0.18357(7)
N2 N -0.3966(3) 0.0334(2) 0.02212(7)
N3 N 0.7500 0.5978(3) 0.2500
C1 C 0.2330(4) 0.2146(3) 0.15100(9)
H1 H 0.2628 0.3418 0.1570
C2 C 0.0163(4) 0.1591(3) 0.10933(9)
H2 H -0.1003 0.2471 0.0879
C3 C -0.0314(4) -0.0271(3) 0.09871(8)
C4 C 0.1426(4) -0.1477(3) 0.13369(9)
H3 H 0.1156 -0.2756 0.1293
C5 C 0.3544(4) -0.0809(3) 0.17470(9)
H4 H 0.4708 -0.1659 0.1978
C6 C -0.2540(4) -0.0928(3) 0.05205(9)
C7 C -0.2886(5) -0.2950(3) 0.04252(10)
H5 H -0.4465 -0.3183 0.0118
H6 H -0.3202 -0.3528 0.0840
H7 H -0.1216 -0.3458 0.0255
Ag1B Ag -1.7500 -0.19621(3) -0.2500
O1A O 0.7776(4) 0.5063(2) 0.30093(7)
N1B N -1.4040(3) -0.0979(2) -0.18357(7)
N1A N 1.0960(3) 0.0979(2) 0.31643(7)
N2B N -0.6034(3) -0.0334(2) -0.02212(7)
C1B C -1.2330(4) -0.2146(3) -0.15100(9)
H1B H -1.2628 -0.3418 -0.1570
C2B C -1.0163(4) -0.1591(3) -0.10933(9)
H2B H -0.8997 -0.2471 -0.0879
C3B C -0.9686(4) 0.0271(3) -0.09871(8)
C4B C -1.1426(4) 0.1477(3) -0.13369(9)
H3B H -1.1156 0.2756 -0.1293
C5B C -1.3544(4) 0.0809(3) -0.17470(9)
H4B H -1.4708 0.1659 -0.1978
C6B C -0.7460(4) 0.0928(3) -0.05205(9)
C7B C -0.7114(5) 0.2950(3) -0.04252(10)
H5B H -0.5535 0.3183 -0.0118
H6B H -0.6798 0.3528 -0.0840
H7B H -0.8784 0.3458 -0.0255
loop_
_geom_bond_atom_site_label_1
_geom_bond_atom_site_label_2
_geom_bond_site_symmetry_1
_geom_bond_site_symmetry_2
Ag1 O1 1_555 1_555
O1 N3 1_555 1_555
N1 Ag1 1_555 1_555
N2 C6 1_555 1_555
N3 O1A 1_555 1_555
C1 N1 1_555 1_555
H1 C1 1_555 1_555
C2 C1 1_555 1_555
H2 C2 1_555 1_555
C3 C2 1_555 1_555
C4 C3 1_555 1_555
H3 C4 1_555 1_555
C5 N1 1_555 1_555
H4 C5 1_555 1_555
C6 C3 1_555 1_555
C7 C6 1_555 1_555
H5 C7 1_555 1_555
H6 C7 1_555 1_555
H7 C7 1_555 1_555
Ag1B N1B 1_555 1_555
O1A Ag1 1_555 1_555
N1B C1B 1_555 1_555
N1A Ag1 1_555 1_555
N2B N2 1_555 1_555
C1B H1B 1_555 1_555
C2B C1B 1_555 1_555
H2B C2B 1_555 1_555
C3B C2B 1_555 1_555
C4B C3B 1_555 1_555
H3B C4B 1_555 1_555
C5B N1B 1_555 1_555
H4B C5B 1_555 1_555
C6B N2B 1_555 1_555
C7B C6B 1_555 1_555
H5B C7B 1_555 1_555
H6B C7B 1_555 1_555
H7B C7B 1_555 1_555
C4 C5 1_555 1_555
C3B C6B 1_555 1_555
C4B C5B 1_555 1_555

#END
