
#######################################################################
#
#                 Cambridge Crystallographic Data Centre
#                                CCDC 
#
#######################################################################
#
# If this CIF has been generated from an entry in the Cambridge 
# Structural Database, then it will include bibliographic, chemical, 
# crystal, experimental, refinement or atomic coordinate data resulting 
# from the CCDC's data processing and validation procedures.
#
#######################################################################

data_AWOYUH
_symmetry_cell_setting           monoclinic
_symmetry_space_group_name_H-M   'P 21/n'
_symmetry_Int_Tables_number      14
_space_group_name_Hall           '-P 2yn'
loop_
_symmetry_equiv_pos_site_id
_symmetry_equiv_pos_as_xyz
1 x,y,z
2 1/2-x,1/2+y,1/2-z
3 -x,-y,-z
4 1/2+x,1/2-y,1/2+z
_cell_length_a                   7.7033(18)
_cell_length_b                   17.403(4)
_cell_length_c                   16.230(4)
_cell_angle_alpha                90
_cell_angle_beta                 90.184(4)
_cell_angle_gamma                90
_cell_volume                     2175.79
loop_
_atom_site_label
_atom_site_type_symbol
_atom_site_fract_x
_atom_site_fract_y
_atom_site_fract_z
Zn1 Zn 0.13817(6) 0.13631(3) -0.16304(3)
O1 O -0.2343(3) 0.10169(15) -0.57701(15)
O2 O -0.1006(3) 0.32154(16) -0.66045(16)
N1 N 0.2187(4) 0.02020(18) -0.16400(18)
O3 O -0.3157(3) 0.24285(15) -0.63782(17)
O4 O -0.0997(3) 0.14036(15) -0.21424(15)
C1 C 0.2064(5) 0.0400(2) -0.0186(2)
O5 O 0.1008(3) 0.14258(19) -0.30943(16)
N2 N 0.1358(4) 0.1102(2) -0.03489(19)
C2 C 0.3184(5) -0.0821(3) -0.0738(3)
C3 C 0.2485(4) -0.0083(2) -0.0874(2)
C4 C -0.0532(5) 0.1416(2) -0.2890(2)
C5 C 0.2189(6) 0.0738(3) -0.6318(3)
H1 H 0.2996 0.0340 -0.6325
C6 C -0.0274(4) 0.1917(2) -0.6346(2)
C7 C 0.2659(5) 0.1464(3) -0.6574(2)
H2 H 0.3793 0.1561 -0.6738
C8 C -0.4461(5) 0.1157(2) -0.4737(3)
H3 H -0.5305 0.1067 -0.5136
C9 C 0.2411(5) 0.0138(3) 0.0612(3)
C10 C 0.1449(4) 0.2045(2) -0.6587(2)
H4 H 0.1781 0.2533 -0.6758
C11 C -0.1465(4) 0.1308(2) -0.4366(2)
H5 H -0.0304 0.1345 -0.4517
C12 C -0.1562(5) 0.2555(2) -0.6441(2)
C13 C -0.1942(4) 0.1381(2) -0.3546(2)
C14 C -0.2722(5) 0.1181(2) -0.4957(2)
C15 C 0.2555(5) -0.0236(3) -0.2281(3)
H6 H 0.2365 -0.0042 -0.2807
C16 C 0.0534(6) 0.0604(2) -0.6053(2)
H7 H 0.0222 0.0116 -0.5873
C17 C 0.3525(5) -0.1265(3) -0.1444(3)
H8 H 0.3966 -0.1760 -0.1387
C18 C 0.2001(6) 0.0634(4) 0.1255(3)
H9 H 0.2193 0.0482 0.1797
C19 C -0.0682(5) 0.1189(2) -0.6049(2)
C20 C 0.3218(5) -0.0979(3) -0.2201(3)
H10 H 0.3446 -0.1274 -0.2666
C21 C 0.3170(6) -0.0615(3) 0.0716(3)
H11 H 0.3415 -0.0793 0.1244
C22 C 0.0998(6) 0.1566(3) 0.0270(3)
H12 H 0.0525 0.2048 0.0164
C23 C -0.4932(5) 0.1267(3) -0.3934(3)
H13 H -0.6100 0.1275 -0.3792
C24 C 0.1324(7) 0.1338(4) 0.1098(3)
H14 H 0.1073 0.1671 0.1530
C25 C -0.3675(5) 0.1366(2) -0.3331(2)
H15 H -0.3998 0.1422 -0.2782
C26 C 0.3527(6) -0.1059(3) 0.0072(3)
H16 H 0.4017 -0.1541 0.0161
Zn1C Zn -0.36183(6) 0.36369(3) -0.66304(3)
O2C O 0.3994(3) 0.17846(16) -0.16045(16)
O3C O 0.1843(3) 0.25715(15) -0.13782(17)
loop_
_geom_bond_atom_site_label_1
_geom_bond_atom_site_label_2
_geom_bond_site_symmetry_1
_geom_bond_site_symmetry_2
Zn1 N1 1_555 1_555
O1 C14 1_555 1_555
O2 C12 1_555 1_555
N1 C3 1_555 1_555
O3 C12 1_555 1_555
O4 Zn1 1_555 1_555
C1 N2 1_555 1_555
O5 Zn1 1_555 1_555
N2 Zn1 1_555 1_555
C2 C3 1_555 1_555
C3 C1 1_555 1_555
C4 O4 1_555 1_555
C5 H1 1_555 1_555
C6 C10 1_555 1_555
C7 C5 1_555 1_555
H2 C7 1_555 1_555
C8 H3 1_555 1_555
C9 C1 1_555 1_555
C10 C7 1_555 1_555
H4 C10 1_555 1_555
C11 H5 1_555 1_555
C12 C6 1_555 1_555
C13 C4 1_555 1_555
C14 C8 1_555 1_555
C15 N1 1_555 1_555
H6 C15 1_555 1_555
C16 C5 1_555 1_555
H7 C16 1_555 1_555
C17 C2 1_555 1_555
H8 C17 1_555 1_555
C18 C9 1_555 1_555
H9 C18 1_555 1_555
C19 O1 1_555 1_555
C20 C15 1_555 1_555
H10 C20 1_555 1_555
C21 C9 1_555 1_555
H11 C21 1_555 1_555
C22 N2 1_555 1_555
H12 C22 1_555 1_555
C23 C8 1_555 1_555
H13 C23 1_555 1_555
C24 C18 1_555 1_555
H14 C24 1_555 1_555
C25 C13 1_555 1_555
H15 C25 1_555 1_555
C26 C2 1_555 1_555
H16 C26 1_555 1_555
Zn1C O2 1_555 1_555
O2C Zn1 1_555 1_555
O3C Zn1 1_555 1_555
O3 Zn1C 1_555 1_555
O5 C4 1_555 1_555
C6 C19 1_555 1_555
C11 C13 1_555 1_555
C11 C14 1_555 1_555
C16 C19 1_555 1_555
C17 C20 1_555 1_555
C21 C26 1_555 1_555
C22 C24 1_555 1_555
C23 C25 1_555 1_555

#END
