
#######################################################################
#
#                 Cambridge Crystallographic Data Centre
#                                CCDC 
#
#######################################################################
#
# If this CIF has been generated from an entry in the Cambridge 
# Structural Database, then it will include bibliographic, chemical, 
# crystal, experimental, refinement or atomic coordinate data resulting 
# from the CCDC's data processing and validation procedures.
#
#######################################################################

data_AXALOA
_symmetry_cell_setting           monoclinic
_symmetry_space_group_name_H-M   'P 21/c'
_symmetry_Int_Tables_number      14
_space_group_name_Hall           '-P 2ybc'
loop_
_symmetry_equiv_pos_site_id
_symmetry_equiv_pos_as_xyz
1 x,y,z
2 x,1/2-y,1/2+z
3 -x,-y,-z
4 -x,1/2+y,1/2-z
_cell_length_a                   10.6092(12)
_cell_length_b                   12.5876(14)
_cell_length_c                   13.1227(15)
_cell_angle_alpha                90
_cell_angle_beta                 95.758(2)
_cell_angle_gamma                90
_cell_volume                     1743.62
loop_
_atom_site_label
_atom_site_type_symbol
_atom_site_fract_x
_atom_site_fract_y
_atom_site_fract_z
Cu1 Cu 0.87820(5) -0.01132(4) 0.06620(4)
O1 O 0.9664(3) 0.0047(2) 0.2009(2)
O2 O 0.8455(3) -0.1347(3) 0.2286(3)
O3 O 0.9837(3) -0.3775(2) 0.5157(2)
O4 O 1.1159(3) -0.3155(2) 0.6456(2)
O5 O 1.2771(5) 0.1193(4) 0.4789(3)
O6 O 1.3486(5) 0.0099(4) 0.5906(4)
N1 N 0.7579(3) -0.0275(3) -0.0622(3)
N2 N 0.7542(3) 0.1052(2) 0.0918(2)
N3 N 1.2767(4) 0.0336(4) 0.5195(3)
C1 C 0.7636(4) -0.0922(4) -0.1401(3)
H1 H 0.8344 -0.1356 -0.1410
C2 C 0.6690(5) -0.0990(4) -0.2216(3)
H2 H 0.6756 -0.1475 -0.2742
C3 C 0.5673(4) -0.0339(4) -0.2230(3)
H3 H 0.5029 -0.0384 -0.2765
C4 C 0.5585(4) 0.0396(3) -0.1449(3)
C5 C 0.4583(4) 0.1143(4) -0.1400(4)
H4 H 0.3916 0.1149 -0.1917
C6 C 0.4584(4) 0.1834(4) -0.0627(4)
H5 H 0.3913 0.2308 -0.0617
C7 C 0.5599(4) 0.1864(3) 0.0193(3)
C8 C 0.5674(5) 0.2578(4) 0.1016(4)
H6 H 0.5042 0.3082 0.1064
C9 C 0.6684(5) 0.2526(4) 0.1749(4)
H7 H 0.6760 0.3013 0.2285
C10 C 0.7602(4) 0.1739(3) 0.1689(3)
H8 H 0.8272 0.1696 0.2202
C11 C 0.6563(4) 0.1128(3) 0.0184(3)
C12 C 0.6566(4) 0.0388(3) -0.0650(3)
C13 C 0.9348(4) -0.0733(4) 0.2544(3)
C14 C 1.0132(4) -0.0909(3) 0.3550(3)
C15 C 1.1058(4) -0.0192(3) 0.3909(3)
H9 H 1.1188 0.0429 0.3551
C16 C 1.1784(4) -0.0426(4) 0.4815(3)
C17 C 1.1648(4) -0.1343(3) 0.5364(3)
H10 H 1.2179 -0.1481 0.5957
C18 C 1.0707(4) -0.2056(3) 0.5020(3)
C19 C 0.9977(4) -0.1826(3) 0.4114(3)
H11 H 0.9353 -0.2308 0.3870
C20 C 1.0567(4) -0.3063(3) 0.5618(3)
O3A O 0.9837(3) -0.1225(2) 0.0157(2)
O3C O 1.0163(3) 0.1225(2) -0.0157(2)
Cu1A Cu 0.87820(5) -0.48868(4) 0.56620(4)
Cu1C Cu 1.12180(5) -0.51132(4) 0.43380(4)
loop_
_geom_bond_atom_site_label_1
_geom_bond_atom_site_label_2
_geom_bond_site_symmetry_1
_geom_bond_site_symmetry_2
Cu1 O1 1_555 1_555
O1 C13 1_555 1_555
O2 C13 1_555 1_555
O3 C20 1_555 1_555
O4 C20 1_555 1_555
O5 N3 1_555 1_555
O6 N3 1_555 1_555
N1 Cu1 1_555 1_555
N2 Cu1 1_555 1_555
N3 C16 1_555 1_555
C1 N1 1_555 1_555
H1 C1 1_555 1_555
C2 C1 1_555 1_555
H2 C2 1_555 1_555
C3 C2 1_555 1_555
H3 C3 1_555 1_555
C4 C3 1_555 1_555
C5 C4 1_555 1_555
H4 C5 1_555 1_555
C6 C5 1_555 1_555
H5 C6 1_555 1_555
C7 C6 1_555 1_555
C8 C7 1_555 1_555
H6 C8 1_555 1_555
C9 C8 1_555 1_555
H7 C9 1_555 1_555
C10 N2 1_555 1_555
H8 C10 1_555 1_555
C11 N2 1_555 1_555
C12 N1 1_555 1_555
C13 C14 1_555 1_555
C14 C15 1_555 1_555
C15 H9 1_555 1_555
C16 C15 1_555 1_555
C17 C16 1_555 1_555
H10 C17 1_555 1_555
C18 C17 1_555 1_555
C19 C14 1_555 1_555
H11 C19 1_555 1_555
C20 C18 1_555 1_555
O3A Cu1 1_555 1_555
O3C Cu1 1_555 1_555
Cu1A O3 1_555 1_555
Cu1C O3 1_555 1_555
C4 C12 1_555 1_555
C7 C11 1_555 1_555
C9 C10 1_555 1_555
C11 C12 1_555 1_555
C18 C19 1_555 1_555

#END
