
#######################################################################
#
#                 Cambridge Crystallographic Data Centre
#                                CCDC 
#
#######################################################################
#
# If this CIF has been generated from an entry in the Cambridge 
# Structural Database, then it will include bibliographic, chemical, 
# crystal, experimental, refinement or atomic coordinate data resulting 
# from the CCDC's data processing and validation procedures.
#
#######################################################################

data_AXANAO
_symmetry_cell_setting           monoclinic
_symmetry_space_group_name_H-M   'C 2/c'
_symmetry_Int_Tables_number      15
_space_group_name_Hall           '-C 2yn'
loop_
_symmetry_equiv_pos_site_id
_symmetry_equiv_pos_as_xyz
1 x,y,z
2 x,-y,1/2+z
3 1/2+x,1/2+y,z
4 1/2+x,1/2-y,1/2+z
5 -x,-y,-z
6 -x,y,1/2-z
7 1/2-x,1/2-y,-z
8 1/2-x,1/2+y,1/2-z
_cell_length_a                   53.06(1)
_cell_length_b                   6.611(1)
_cell_length_c                   15.030(3)
_cell_angle_alpha                90
_cell_angle_beta                 97.723(9)
_cell_angle_gamma                90
_cell_volume                     5224.4
loop_
_atom_site_label
_atom_site_type_symbol
_atom_site_fract_x
_atom_site_fract_y
_atom_site_fract_z
Br1 Br 0.35384(2) -0.4589(2) 0.24054(7)
Br2 Br 0.30901(2) -0.4700(2) -0.00356(7)
Br3 Br 0.34919(2) -0.9581(2) 0.07582(7)
Cu1 Cu 0.32550(2) -0.6730(2) 0.12841(9)
Cu2 Cu 0.33598(2) -0.2862(2) 0.10795(8)
S1 S 0.29706(5) -0.7940(4) 0.2189(2)
S2 S 0.28558(5) -1.2615(4) 0.3146(2)
S3 S 0.26975(5) -0.9772(4) 0.0520(2)
S4 S 0.25926(5) -1.3584(4) 0.1364(2)
C1 C 0.3186(2) -0.934(2) 0.3039(8)
C2 C 0.3072(2) -1.065(2) 0.3591(9)
C3 C 0.2808(2) -1.000(1) 0.1663(6)
C4 C 0.2758(2) -1.176(1) 0.2044(6)
C5 C 0.2559(2) -1.216(1) 0.0392(6)
H1 H 0.3279 -0.8360 0.3414
H2 H 0.3298 -1.0097 0.2732
H3 H 0.2983 -0.9825 0.3957
H4 H 0.3209 -1.1307 0.3952
C5F C 0.2441(2) -1.284(1) -0.0392(6)
S3F S 0.23025(5) -1.5228(4) -0.0520(2)
C3F C 0.2192(2) -1.500(1) -0.1663(6)
S1F S 0.20294(5) -1.7060(4) -0.2189(2)
C1F C 0.1814(2) -1.566(2) -0.3039(8)
C2F C 0.1928(2) -1.435(2) -0.3591(9)
S2F S 0.21442(5) -1.2385(4) -0.3146(2)
C4F C 0.2242(2) -1.324(1) -0.2044(6)
S4F S 0.24074(5) -1.1416(4) -0.1364(2)
H3F H 0.2017 -1.5175 -0.3957
H4F H 0.1791 -1.3693 -0.3952
H1F H 0.1721 -1.6640 -0.3414
H2F H 0.1702 -1.4903 -0.2732
Cu1F Cu 0.17450(2) -1.8270(2) -0.12841(9)
Cu2_2 Cu 0.33598(2) -1.2862(2) 0.10795(8)
Br3_2 Br 0.34919(2) 0.0419(2) 0.07582(7)
Br1F Br 0.14616(2) -2.0411(2) -0.24054(7)
Br2F Br 0.19099(2) -2.0300(2) 0.00356(7)
Br3F Br 0.15081(2) -1.5419(2) -0.07582(7)
Cu2F Cu 0.16402(2) -2.2138(2) -0.10795(8)
Br1_2 Br 0.35384(2) -1.4589(2) 0.24054(7)
Br2_2 Br 0.30901(2) -1.4700(2) -0.00356(7)
Cu1_2 Cu 0.32550(2) -1.6730(2) 0.12841(9)
Cu1_3 Cu 0.32550(2) 0.3270(2) 0.12841(9)
S5 S 0.55849(5) -0.0981(4) 0.2227(2)
S6 S 0.57557(5) 0.4139(4) 0.2492(2)
S7 S 0.50998(5) 0.0595(4) 0.1331(2)
S8 S 0.52318(4) 0.4891(4) 0.1619(2)
S9 S 0.45471(4) 0.1945(4) 0.0307(2)
S10 S 0.46664(5) 0.6177(4) 0.0775(2)
S11 S 0.40118(4) 0.2748(4) -0.0460(2)
S12 S 0.41611(5) 0.7786(4) 0.0138(2)
C6 C 0.5902(2) 0.008(2) 0.2403(7)
C7 C 0.5917(2) 0.192(2) 0.2971(6)
C8 C 0.5403(2) 0.114(2) 0.1903(7)
C9 C 0.5462(2) 0.311(2) 0.2016(6)
C10 C 0.5004(2) 0.312(1) 0.1211(6)
C11 C 0.4761(2) 0.367(1) 0.0793(6)
C12 C 0.4303(2) 0.372(2) 0.0035(6)
C13 C 0.4358(2) 0.566(2) 0.0245(6)
C14 C 0.3804(2) 0.474(1) -0.0156(6)
C15 C 0.3875(2) 0.680(2) -0.0486(6)
H5 H 0.6016 -0.0912 0.2688
H6 H 0.5951 0.0414 0.1836
H7 H 0.5848 0.1600 0.3505
H8 H 0.6092 0.2257 0.3120
H9 H 0.3635 0.4439 -0.0416
H10 H 0.3814 0.4778 0.0476
H11 H 0.3900 0.6696 -0.1099
H12 H 0.3740 0.7716 -0.0431
loop_
_geom_bond_atom_site_label_1
_geom_bond_atom_site_label_2
_geom_bond_site_symmetry_1
_geom_bond_site_symmetry_2
Br1 Cu1 1_555 1_555
Br2 Cu1 1_555 1_555
Br3 Cu1 1_555 1_555
Cu1 Cu2 1_555 1_555
Cu2 Br1 1_555 1_555
S1 Cu1 1_555 1_555
S2 C2 1_555 1_555
S3 C3 1_555 1_555
S4 C4 1_555 1_555
S5 C6 1_555 1_555
S6 C7 1_555 1_555
S7 C8 1_555 1_555
S8 C9 1_555 1_555
S9 C11 1_555 1_555
S10 C11 1_555 1_555
S11 C12 1_555 1_555
S12 C13 1_555 1_555
C1 S1 1_555 1_555
C2 C1 1_555 1_555
C3 S1 1_555 1_555
C4 S2 1_555 1_555
C5 S3 1_555 1_555
C6 C7 1_555 1_555
C7 H7 1_555 1_555
C8 S5 1_555 1_555
C9 S6 1_555 1_555
C10 S7 1_555 1_555
C11 C10 1_555 1_555
C12 S9 1_555 1_555
C13 S10 1_555 1_555
C14 S11 1_555 1_555
C15 S12 1_555 1_555
H1 C1 1_555 1_555
H2 C1 1_555 1_555
H3 C2 1_555 1_555
H4 C2 1_555 1_555
H5 C6 1_555 1_555
H6 C6 1_555 1_555
H8 C7 1_555 1_555
H9 C14 1_555 1_555
H10 C14 1_555 1_555
H11 C15 1_555 1_555
H12 C15 1_555 1_555
C5F C5 1_555 1_555
S3F C5F 1_555 1_555
C3F S3F 1_555 1_555
S1F C3F 1_555 1_555
C1F S1F 1_555 1_555
C2F C1F 1_555 1_555
S2F C2F 1_555 1_555
C4F C3F 1_555 1_555
S4F C5F 1_555 1_555
H3F C2F 1_555 1_555
H4F C2F 1_555 1_555
H1F C1F 1_555 1_555
H2F C1F 1_555 1_555
Cu1F S1F 1_555 1_555
Cu2_2 Br3 1_555 1_555
Br3_2 Cu2 1_555 1_555
Br1F Cu1F 1_555 1_555
Br2F Cu1F 1_555 1_555
Br3F Cu1F 1_555 1_555
Cu2F Cu1F 1_555 1_555
Br1_2 Cu2_2 1_555 1_555
Br2_2 Cu2_2 1_555 1_555
Cu1_2 Cu2_2 1_555 1_555
Cu1_3 Br3_2 1_555 1_555
Br2 Cu2 1_555 1_555
S4 C5 1_555 1_555
S8 C10 1_555 1_555
C3 C4 1_555 1_555
C8 C9 1_555 1_555
C12 C13 1_555 1_555
C14 C15 1_555 1_555
S2F C4F 1_555 1_555
C4F S4F 1_555 1_555
Br1F Cu2F 1_555 1_555
Br2F Cu2F 1_555 1_555
Br1_2 Cu1_2 1_555 1_555
Br2_2 Cu1_2 1_555 1_555

#END
