
#######################################################################
#
#                 Cambridge Crystallographic Data Centre
#                                CCDC 
#
#######################################################################
#
# If this CIF has been generated from an entry in the Cambridge 
# Structural Database, then it will include bibliographic, chemical, 
# crystal, experimental, refinement or atomic coordinate data resulting 
# from the CCDC's data processing and validation procedures.
#
#######################################################################

data_AXAZUV
_symmetry_cell_setting           monoclinic
_symmetry_space_group_name_H-M   'P 21/n'
_symmetry_Int_Tables_number      14
_space_group_name_Hall           '-P 2yn'
loop_
_symmetry_equiv_pos_site_id
_symmetry_equiv_pos_as_xyz
1 x,y,z
2 1/2-x,1/2+y,1/2-z
3 -x,-y,-z
4 1/2+x,1/2-y,1/2+z
_cell_length_a                   11.530(8)
_cell_length_b                   21.246(11)
_cell_length_c                   21.187(9)
_cell_angle_alpha                90
_cell_angle_beta                 98.81(3)
_cell_angle_gamma                90
_cell_volume                     5128.87
loop_
_atom_site_label
_atom_site_type_symbol
_atom_site_fract_x
_atom_site_fract_y
_atom_site_fract_z
Ga1 Ga -0.89868(7) 0.26657(3) 0.71725(5)
I1 I -1.23109(5) 0.26321(2) 0.60516(3)
I2 I -0.69240(5) 0.26240(2) 0.67779(3)
I3 I -0.84244(5) 0.27504(2) 0.84174(3)
Cr1 Cr -1.05453(10) 0.33743(5) 0.66167(6)
Cr2 Cr -1.05111(10) 0.19177(5) 0.66400(6)
Na1 Na -0.7551(2) 0.51534(11) 0.75489(13)
Na2 Na -0.7692(3) 0.26079(12) 0.52048(18)
O1 O -0.8635(5) 0.4222(2) 0.7237(3)
O2 O -0.9199(5) 0.3367(2) 0.5492(3)
O3 O -1.1766(5) 0.4567(2) 0.6143(3)
O4 O -1.1613(6) 0.3403(3) 0.7858(4)
O5 O -0.8527(5) 0.1117(2) 0.7258(3)
O6 O -0.9255(5) 0.1900(2) 0.5484(3)
O7 O -1.1470(6) 0.1806(3) 0.7902(3)
O8 O -1.1649(5) 0.0691(2) 0.6180(3)
O9 O -0.6847(5) 0.4930(2) 0.8614(3)
O10 O -0.8261(5) 0.5525(2) 0.6519(3)
O11 O -0.9243(5) 0.5483(2) 0.7954(3)
O12 O -0.5875(5) 0.4710(3) 0.7214(4)
O13 O -0.6568(5) 0.3411(2) 0.4912(3)
O14 O -0.8806(6) 0.2512(2) 0.4201(4)
O15 O -0.6384(5) 0.1827(2) 0.5089(3)
C1 C -0.9376(7) 0.3872(3) 0.7003(4)
C2 C -0.9724(8) 0.3354(3) 0.5896(4)
C3 C -1.1323(7) 0.4094(3) 0.6325(4)
C4 C -1.1242(8) 0.3380(3) 0.7387(5)
C5 C -0.9286(7) 0.1446(3) 0.7024(4)
C6 C -0.9765(8) 0.1934(3) 0.5904(4)
C7 C -1.1136(7) 0.1893(3) 0.7429(5)
C8 C -1.1248(7) 0.1167(3) 0.6360(4)
C9 C -0.6770(9) 0.5357(3) 0.9149(4)
H1 H -0.7376 0.5689 0.9066
H2 H -0.5987 0.5558 0.9229
C10 C -0.6970(10) 0.4958(4) 0.9712(5)
H3 H -0.6481 0.5104 1.0110
H4 H -0.7806 0.4965 0.9771
C11 C -0.6606(11) 0.4313(4) 0.9529(5)
H5 H -0.5905 0.4171 0.9824
H6 H -0.7248 0.4007 0.9548
C12 C -0.6335(9) 0.4358(4) 0.8867(5)
H7 H -0.5476 0.4363 0.8869
H8 H -0.6673 0.3996 0.8608
C13 C -0.8884(10) 0.5218(4) 0.5975(5)
H9 H -0.9701 0.5132 0.6041
H10 H -0.8503 0.4813 0.5902
C14 C -0.8876(14) 0.5626(4) 0.5438(6)
H11 H -0.9668 0.5641 0.5180
H12 H -0.8318 0.5465 0.5164
C15 C -0.8529(11) 0.6249(4) 0.5666(5)
H13 H -0.9221 0.6527 0.5647
H14 H -0.7972 0.6437 0.5408
C16 C -0.7960(8) 0.6157(3) 0.6336(4)
H15 H -0.7098 0.6203 0.6370
H16 H -0.8250 0.6473 0.6618
C17 C -1.0066(8) 0.5936(4) 0.7633(5)
H17 H -1.0094 0.5907 0.7165
H18 H -0.9832 0.6368 0.7771
C18 C -1.1220(9) 0.5780(5) 0.7811(7)
H19 H -1.1849 0.5819 0.7438
H20 H -1.1404 0.6059 0.8156
C19 C -1.1087(10) 0.5093(4) 0.8040(6)
H21 H -1.1590 0.5003 0.8368
H22 H -1.1284 0.4795 0.7680
C20 C -0.9851(9) 0.5057(4) 0.8307(5)
H23 H -0.9734 0.5175 0.8764
H24 H -0.9556 0.4623 0.8269
C21 C -0.4729(9) 0.4905(5) 0.7445(6)
H25 H -0.4569 0.4860 0.7915
H26 H -0.4626 0.5352 0.7336
C22 C -0.3916(10) 0.4507(5) 0.7146(6)
H27 H -0.3462 0.4227 0.7467
H28 H -0.3361 0.4769 0.6947
C23 C -0.4689(8) 0.4128(4) 0.6649(5)
H29 H -0.4402 0.4149 0.6232
H30 H -0.4722 0.3682 0.6780
C24 C -0.5841(9) 0.4429(4) 0.6613(5)
H31 H -0.5946 0.4752 0.6272
H32 H -0.6474 0.4113 0.6518
C25 C -0.5390(9) 0.3310(4) 0.4759(6)
H33 H -0.5394 0.2981 0.4428
H34 H -0.4840 0.3184 0.5144
C26 C -0.5057(12) 0.3941(5) 0.4514(7)
H35 H -0.4457 0.4149 0.4830
H36 H -0.4740 0.3892 0.4108
C27 C -0.6112(13) 0.4299(6) 0.4417(10)
H37 H -0.5937 0.4738 0.4556
H38 H -0.6430 0.4306 0.3956
C28 C -0.6954(10) 0.4051(4) 0.4755(6)
H39 H -0.7738 0.4052 0.4488
H40 H -0.6992 0.4298 0.5147
C29 C -0.8470(9) 0.2804(4) 0.3661(5)
H41 H -0.7615 0.2754 0.3664
H42 H -0.8653 0.3259 0.3661
C30 C -0.9134(12) 0.2497(3) 0.3083(5)
H43 H -0.9796 0.2767 0.2891
H44 H -0.8615 0.2420 0.2760
C31 C -0.9573(8) 0.1897(4) 0.3307(5)
H45 H -0.9011 0.1551 0.3274
H46 H -1.0342 0.1785 0.3057
C32 C -0.9691(9) 0.2029(4) 0.4020(5)
H47 H -1.0486 0.2185 0.4059
H48 H -0.9526 0.1646 0.4284
C33 C -0.5412(7) 0.1633(4) 0.5545(5)
H49 H -0.5660 0.1317 0.5841
H50 H -0.5063 0.1997 0.5798
C34 C -0.4524(8) 0.1346(5) 0.5153(5)
H51 H -0.4030 0.1675 0.4997
H52 H -0.4014 0.1032 0.5405
C35 C -0.5291(9) 0.1051(4) 0.4629(6)
H53 H -0.5542 0.0629 0.4752
H54 H -0.4895 0.1010 0.4248
C36 C -0.6333(10) 0.1500(5) 0.4501(5)
H55 H -0.6223 0.1802 0.4159
H56 H -0.7068 0.1263 0.4367
Na1A Na -0.7449(2) 0.01534(11) 0.74511(13)
O5A O -0.6473(5) 0.6117(2) 0.7742(3)
loop_
_geom_bond_atom_site_label_1
_geom_bond_atom_site_label_2
_geom_bond_site_symmetry_1
_geom_bond_site_symmetry_2
Ga1 I2 1_555 1_555
I1 Cr1 1_555 1_555
I2 Na2 1_555 1_555
I3 Ga1 1_555 1_555
Cr1 Ga1 1_555 1_555
Cr2 Ga1 1_555 1_555
Na1 O1 1_555 1_555
Na2 O2 1_555 1_555
O1 C1 1_555 1_555
O2 C2 1_555 1_555
O3 C3 1_555 1_555
O4 C4 1_555 1_555
O5 C5 1_555 1_555
O6 Na2 1_555 1_555
O7 C7 1_555 1_555
O8 C8 1_555 1_555
O9 Na1 1_555 1_555
O10 Na1 1_555 1_555
O11 Na1 1_555 1_555
O12 Na1 1_555 1_555
O13 Na2 1_555 1_555
O14 Na2 1_555 1_555
O15 Na2 1_555 1_555
C1 Cr1 1_555 1_555
C2 Cr1 1_555 1_555
C3 Cr1 1_555 1_555
C4 Cr1 1_555 1_555
C5 Cr2 1_555 1_555
C6 Cr2 1_555 1_555
C7 Cr2 1_555 1_555
C8 Cr2 1_555 1_555
C9 O9 1_555 1_555
H1 C9 1_555 1_555
H2 C9 1_555 1_555
C10 C9 1_555 1_555
H3 C10 1_555 1_555
H4 C10 1_555 1_555
C11 C10 1_555 1_555
H5 C11 1_555 1_555
H6 C11 1_555 1_555
C12 O9 1_555 1_555
H7 C12 1_555 1_555
H8 C12 1_555 1_555
C13 O10 1_555 1_555
H9 C13 1_555 1_555
H10 C13 1_555 1_555
C14 C13 1_555 1_555
H11 C14 1_555 1_555
H12 C14 1_555 1_555
C15 C14 1_555 1_555
H13 C15 1_555 1_555
H14 C15 1_555 1_555
C16 O10 1_555 1_555
H15 C16 1_555 1_555
H16 C16 1_555 1_555
C17 O11 1_555 1_555
H17 C17 1_555 1_555
H18 C17 1_555 1_555
C18 C17 1_555 1_555
H19 C18 1_555 1_555
H20 C18 1_555 1_555
C19 C18 1_555 1_555
H21 C19 1_555 1_555
H22 C19 1_555 1_555
C20 O11 1_555 1_555
H23 C20 1_555 1_555
H24 C20 1_555 1_555
C21 O12 1_555 1_555
H25 C21 1_555 1_555
H26 C21 1_555 1_555
C22 C21 1_555 1_555
H27 C22 1_555 1_555
H28 C22 1_555 1_555
C23 C22 1_555 1_555
H29 C23 1_555 1_555
H30 C23 1_555 1_555
C24 O12 1_555 1_555
H31 C24 1_555 1_555
H32 C24 1_555 1_555
C25 O13 1_555 1_555
H33 C25 1_555 1_555
H34 C25 1_555 1_555
C26 C25 1_555 1_555
H35 C26 1_555 1_555
H36 C26 1_555 1_555
C27 C26 1_555 1_555
H37 C27 1_555 1_555
H38 C27 1_555 1_555
C28 O13 1_555 1_555
H39 C28 1_555 1_555
H40 C28 1_555 1_555
C29 O14 1_555 1_555
H41 C29 1_555 1_555
H42 C29 1_555 1_555
C30 C29 1_555 1_555
H43 C30 1_555 1_555
H44 C30 1_555 1_555
C31 C30 1_555 1_555
H45 C31 1_555 1_555
H46 C31 1_555 1_555
C32 O14 1_555 1_555
H47 C32 1_555 1_555
H48 C32 1_555 1_555
C33 O15 1_555 1_555
H49 C33 1_555 1_555
H50 C33 1_555 1_555
C34 C33 1_555 1_555
H51 C34 1_555 1_555
H52 C34 1_555 1_555
C35 C34 1_555 1_555
H53 C35 1_555 1_555
H54 C35 1_555 1_555
C36 O15 1_555 1_555
H55 C36 1_555 1_555
H56 C36 1_555 1_555
Na1A O5 1_555 1_555
O5A Na1 1_555 1_555
I1 Cr2 1_555 1_555
O6 C6 1_555 1_555
C11 C12 1_555 1_555
C15 C16 1_555 1_555
C19 C20 1_555 1_555
C23 C24 1_555 1_555
C27 C28 1_555 1_555
C31 C32 1_555 1_555
C35 C36 1_555 1_555

#END
