
#######################################################################
#
#                 Cambridge Crystallographic Data Centre
#                                CCDC 
#
#######################################################################
#
# If this CIF has been generated from an entry in the Cambridge 
# Structural Database, then it will include bibliographic, chemical, 
# crystal, experimental, refinement or atomic coordinate data resulting 
# from the CCDC's data processing and validation procedures.
#
#######################################################################

data_AXAZEE
_symmetry_cell_setting           triclinic
_symmetry_space_group_name_H-M   'P -1'
_symmetry_Int_Tables_number      2
_space_group_name_Hall           '-P 1'
loop_
_symmetry_equiv_pos_site_id
_symmetry_equiv_pos_as_xyz
1 x,y,z
2 -x,-y,-z
_cell_length_a                   6.9764(12)
_cell_length_b                   7.4593(13)
_cell_length_c                   11.301(2)
_cell_angle_alpha                79.698(15)
_cell_angle_beta                 72.042(14)
_cell_angle_gamma                62.164(13)
_cell_volume                     494.284
loop_
_atom_site_label
_atom_site_type_symbol
_atom_site_fract_x
_atom_site_fract_y
_atom_site_fract_z
Ho1 Ho 0.85306(9) 0.31699(8) 0.47452(5)
Cl1 Cl 1.2404(6) 0.0015(5) 0.5000(4)
Cl2 Cl 0.4562(6) 0.4528(5) 0.6512(3)
Cl3 Cl 1.0692(6) 0.5420(5) 0.3483(3)
N1 N 1.025(2) 0.184(2) 0.2657(12)
C1 C 1.211(3) 0.031(2) 0.0502(14)
C2 C 1.406(3) -0.132(3) -0.1832(13)
H1 H 1.4696 -0.1887 -0.2608
C3 C 1.102(3) 0.116(2) 0.1687(14)
C4 C 1.288(4) 0.072(3) -0.1741(15)
H2 H 1.2716 0.1565 -0.2454
C5 C 1.433(6) -0.253(3) -0.0767(18)
H3 H 1.5200 -0.3927 -0.0834
C6 C 1.190(4) 0.154(3) -0.0572(17)
H4 H 1.1088 0.2943 -0.0509
C7 C 1.333(5) -0.173(3) 0.0397(16)
H5 H 1.3495 -0.2574 0.1107
Cl1A Cl 0.7596(6) -0.0015(5) 0.5000(4)
Cl2A Cl 0.5438(6) 0.5472(5) 0.3488(3)
Cl3A Cl 0.9308(6) 0.4580(5) 0.6517(3)
Ho1A Ho 1.14694(9) -0.31699(8) 0.52548(5)
Ho1A_2 Ho 0.14694(9) 0.68301(8) 0.52548(5)
Ho1A_3 Ho 1.14694(9) 0.68301(8) 0.52548(5)
loop_
_geom_bond_atom_site_label_1
_geom_bond_atom_site_label_2
_geom_bond_site_symmetry_1
_geom_bond_site_symmetry_2
Ho1 Cl1 1_555 1_555
Cl1 Ho1A 1_555 1_555
Cl2 Ho1 1_555 1_555
Cl3 Ho1 1_555 1_555
N1 Ho1 1_555 1_555
C1 C3 1_555 1_555
C2 H1 1_555 1_555
C3 N1 1_555 1_555
C4 C2 1_555 1_555
H2 C4 1_555 1_555
C5 C2 1_555 1_555
H3 C5 1_555 1_555
C6 C1 1_555 1_555
H4 C6 1_555 1_555
C7 C1 1_555 1_555
H5 C7 1_555 1_555
Cl1A Ho1 1_555 1_555
Cl2A Ho1 1_555 1_555
Cl3A Ho1 1_555 1_555
Ho1A Cl1A 1_555 1_555
Ho1A_2 Cl2 1_555 1_555
Ho1A_3 Cl3 1_555 1_555
C4 C6 1_555 1_555
C5 C7 1_555 1_555
Cl2A Ho1A_2 1_555 1_555
Cl3A Ho1A_3 1_555 1_555

#END
