
#######################################################################
#
#                 Cambridge Crystallographic Data Centre
#                                CCDC 
#
#######################################################################
#
# If this CIF has been generated from an entry in the Cambridge 
# Structural Database, then it will include bibliographic, chemical, 
# crystal, experimental, refinement or atomic coordinate data resulting 
# from the CCDC's data processing and validation procedures.
#
#######################################################################

data_AXIBEP
_symmetry_cell_setting           monoclinic
_symmetry_space_group_name_H-M   'P 21/n'
_symmetry_Int_Tables_number      14
_space_group_name_Hall           '-P 2yn'
loop_
_symmetry_equiv_pos_site_id
_symmetry_equiv_pos_as_xyz
1 x,y,z
2 1/2-x,1/2+y,1/2-z
3 -x,-y,-z
4 1/2+x,1/2-y,1/2+z
_cell_length_a                   7.8567(11)
_cell_length_b                   20.417(3)
_cell_length_c                   10.1979(14)
_cell_angle_alpha                90
_cell_angle_beta                 102.525(10)
_cell_angle_gamma                90
_cell_volume                     1596.92
loop_
_atom_site_label
_atom_site_type_symbol
_atom_site_fract_x
_atom_site_fract_y
_atom_site_fract_z
Co1 Co 0.40465(7) 0.24356(2) 0.71253(5)
O1 O 0.6569(4) 0.21288(15) 0.6893(3)
O2 O -0.0775(4) 0.28328(16) 0.7965(3)
O3 O 0.1476(4) 0.25607(12) 0.7120(3)
O4 O 0.3059(4) 0.20112(14) 0.5246(3)
O5 O 0.4660(3) 0.29074(12) 0.8947(2)
N1 N 0.4045(4) 0.14935(15) 0.8188(3)
N2 N 0.4546(4) 0.33905(15) 0.6231(3)
N3 N 0.0811(4) 0.49910(15) 1.0284(3)
C1 C 0.4120(6) 0.0923(2) 0.7564(4)
H1 H 0.3923 0.0922 0.6631
C2 C 0.4474(6) 0.0336(2) 0.8228(4)
H2 H 0.4523 -0.0046 0.7741
C3 C 0.4757(6) 0.03092(19) 0.9614(4)
C4 C 0.4604(7) 0.0901(2) 1.0245(4)
H3 H 0.4749 0.0914 1.1174
C5 C 0.4239(7) 0.1471(2) 0.9507(4)
H4 H 0.4123 0.1858 0.9962
C6 C 0.3764(6) 0.3568(2) 0.5007(4)
H5 H 0.3062 0.3262 0.4467
C7 C 0.3925(6) 0.4188(2) 0.4473(5)
H6 H 0.3352 0.4283 0.3596
C8 C 0.4931(5) 0.46585(19) 0.5239(4)
C9 C 0.5813(6) 0.4461(2) 0.6508(4)
H7 H 0.6553 0.4752 0.7060
C10 C 0.5591(6) 0.3836(2) 0.6948(4)
H8 H 0.6208 0.3718 0.7799
C11 C 0.0796(5) 0.28908(19) 0.7901(4)
C12 C 0.1839(5) 0.34015(17) 0.8787(4)
C13 C 0.3681(5) 0.33747(17) 0.9257(4)
C14 C 0.4472(6) 0.3891(2) 1.0116(4)
H9 H 0.5666 0.3880 1.0472
C15 C 0.3495(5) 0.4408(2) 1.0428(4)
H10 H 0.4048 0.4742 1.0978
C16 C 0.1702(5) 0.44375(18) 0.9938(4)
C17 C 0.0898(5) 0.39249(17) 0.9134(4)
H11 H -0.0305 0.3934 0.8820
H12 H 0.363(4) 0.209(3) 0.466(3)
H13 H 0.1992(17) 0.208(2) 0.492(4)
Co1B Co -0.40465(7) 0.75644(2) 1.28747(5)
Co1B_2 Co 0.59535(7) -0.24356(2) 1.28747(5)
Co1B_3 Co 0.59535(7) 0.75644(2) 0.28747(5)
O1B O -0.6569(4) 0.78712(15) 1.3107(3)
O2B O 0.0775(4) 0.71672(16) 1.2035(3)
O3B O -0.1476(4) 0.74393(12) 1.2880(3)
O4B O -0.3059(4) 0.79888(14) 1.4754(3)
O5B O -0.4660(3) 0.70926(12) 1.1053(2)
N1B N 0.5955(4) -0.14935(15) 1.1812(3)
N1B_2 N -0.4045(4) 0.85065(15) 1.1812(3)
N2B N 0.5454(4) 0.66095(15) 0.3769(3)
N2B_2 N -0.4546(4) 0.66095(15) 1.3769(3)
N3B N -0.0811(4) 0.50090(15) 0.9716(3)
C1B C 0.5880(6) -0.0923(2) 1.2436(4)
H1B H 0.6077 -0.0922 1.3369
C2B C 0.5526(6) -0.0336(2) 1.1772(4)
H2B H 0.5477 0.0046 1.2259
C3B C 0.5243(6) -0.03092(19) 1.0386(4)
C4B C 0.5396(7) -0.0901(2) 0.9755(4)
H3B H 0.5251 -0.0914 0.8826
C5B C 0.5761(7) -0.1471(2) 1.0493(4)
H4B H 0.5877 -0.1858 1.0038
C6B C 0.6236(6) 0.6432(2) 0.4993(4)
H5B H 0.6938 0.6738 0.5533
C7B C 0.6075(6) 0.5812(2) 0.5527(5)
H6B H 0.6648 0.5717 0.6404
C8B C 0.5069(5) 0.53415(19) 0.4761(4)
C9B C 0.4187(6) 0.5539(2) 0.3492(4)
H7B H 0.3447 0.5248 0.2940
C10B C 0.4409(6) 0.6164(2) 0.3052(4)
H8B H 0.3792 0.6282 0.2201
C11B C -0.0796(5) 0.71092(19) 1.2099(4)
C12B C -0.1839(5) 0.65985(17) 1.1213(4)
C13B C -0.3681(5) 0.66253(17) 1.0743(4)
C14B C -0.4472(6) 0.6109(2) 0.9884(4)
H9B H -0.5666 0.6120 0.9528
C15B C -0.3495(5) 0.5592(2) 0.9572(4)
H10B H -0.4048 0.5258 0.9022
C16B C -0.1702(5) 0.55625(18) 1.0062(4)
C17B C -0.0898(5) 0.60751(17) 1.0866(4)
H11B H 0.0305 0.6066 1.1180
H12B H -0.363(4) 0.791(3) 1.534(3)
H13B H -0.1992(17) 0.792(2) 1.508(4)
loop_
_geom_bond_atom_site_label_1
_geom_bond_atom_site_label_2
_geom_bond_site_symmetry_1
_geom_bond_site_symmetry_2
Co1 O1 1_555 1_555
O2 C11 1_555 1_555
O3 Co1 1_555 1_555
O4 Co1 1_555 1_555
O5 Co1 1_555 1_555
N1 Co1 1_555 1_555
N2 Co1 1_555 1_555
N3 C16 1_555 1_555
C1 N1 1_555 1_555
H1 C1 1_555 1_555
C2 C1 1_555 1_555
H2 C2 1_555 1_555
C3 C2 1_555 1_555
C4 C3 1_555 1_555
H3 C4 1_555 1_555
C5 N1 1_555 1_555
H4 C5 1_555 1_555
C6 N2 1_555 1_555
H5 C6 1_555 1_555
C7 C6 1_555 1_555
H6 C7 1_555 1_555
C8 C7 1_555 1_555
C9 C8 1_555 1_555
H7 C9 1_555 1_555
C10 N2 1_555 1_555
H8 C10 1_555 1_555
C11 O3 1_555 1_555
C12 C11 1_555 1_555
C13 O5 1_555 1_555
C14 C13 1_555 1_555
H9 C14 1_555 1_555
C15 C14 1_555 1_555
H10 C15 1_555 1_555
C16 C15 1_555 1_555
C17 C12 1_555 1_555
H11 C17 1_555 1_555
H12 O4 1_555 1_555
H13 O4 1_555 1_555
Co1B O1B 1_555 1_555
Co1B_2 N1B 1_555 1_555
Co1B_3 N2B 1_555 1_555
O2B C11B 1_555 1_555
O3B Co1B 1_555 1_555
O4B Co1B 1_555 1_555
O5B Co1B 1_555 1_555
N1B C1B 1_555 1_555
N1B_2 Co1B 1_555 1_555
N2B C6B 1_555 1_555
N2B_2 Co1B 1_555 1_555
N3B N3 1_555 1_555
C1B H1B 1_555 1_555
C2B C1B 1_555 1_555
H2B C2B 1_555 1_555
C3B C3 1_555 1_555
C4B C3B 1_555 1_555
H3B C4B 1_555 1_555
C5B N1B 1_555 1_555
H4B C5B 1_555 1_555
C6B H5B 1_555 1_555
C7B C6B 1_555 1_555
H6B C7B 1_555 1_555
C8B C8 1_555 1_555
C9B C8B 1_555 1_555
H7B C9B 1_555 1_555
C10B N2B 1_555 1_555
H8B C10B 1_555 1_555
C11B O3B 1_555 1_555
C12B C11B 1_555 1_555
C13B O5B 1_555 1_555
C14B C13B 1_555 1_555
H9B C14B 1_555 1_555
C15B C14B 1_555 1_555
H10B C15B 1_555 1_555
C16B N3B 1_555 1_555
C17B C12B 1_555 1_555
H11B C17B 1_555 1_555
H12B O4B 1_555 1_555
H13B O4B 1_555 1_555
C4 C5 1_555 1_555
C9 C10 1_555 1_555
C12 C13 1_555 1_555
C16 C17 1_555 1_555
C2B C3B 1_555 1_555
C4B C5B 1_555 1_555
C7B C8B 1_555 1_555
C9B C10B 1_555 1_555
C12B C13B 1_555 1_555
C15B C16B 1_555 1_555
C16B C17B 1_555 1_555

#END
