
#######################################################################
#
#                 Cambridge Crystallographic Data Centre
#                                CCDC 
#
#######################################################################
#
# If this CIF has been generated from an entry in the Cambridge 
# Structural Database, then it will include bibliographic, chemical, 
# crystal, experimental, refinement or atomic coordinate data resulting 
# from the CCDC's data processing and validation procedures.
#
#######################################################################

data_AXILOI
_symmetry_cell_setting           monoclinic
_symmetry_space_group_name_H-M   'P 21/c'
_symmetry_Int_Tables_number      14
_space_group_name_Hall           '-P 2ybc'
loop_
_symmetry_equiv_pos_site_id
_symmetry_equiv_pos_as_xyz
1 x,y,z
2 -x,1/2+y,1/2-z
3 -x,-y,-z
4 x,1/2-y,1/2+z
_cell_length_a                   12.1997(4)
_cell_length_b                   18.1384(7)
_cell_length_c                   16.1534(6)
_cell_angle_alpha                90
_cell_angle_beta                 96.7850(10)
_cell_angle_gamma                90
_cell_volume                     3549.44
loop_
_atom_site_label
_atom_site_type_symbol
_atom_site_fract_x
_atom_site_fract_y
_atom_site_fract_z
Co1 Co 0.26018(3) 0.028500(19) 0.80071(2)
N1 N 0.0159(2) 0.06938(19) 0.8240(2)
O1 O 0.0304(3) 0.0692(3) 0.9008(2)
O2 O 0.08659(19) 0.04482(15) 0.78154(15)
O3 O -0.0643(4) 0.1020(3) 0.7909(3)
N2 N 0.5064(3) -0.0151(2) 0.8309(3)
O4 O 0.4258(2) 0.01077(18) 0.7838(2)
O5 O 0.5130(3) -0.0079(2) 0.9067(2)
O6 O 0.5971(8) -0.0244(7) 0.7993(7)
N3 N 0.2839(2) 0.12015(13) 0.88595(14)
C1 C 0.2261(3) 0.18276(16) 0.87049(18)
H1 H 0.1847 0.1886 0.8173
C2 C 0.2238(3) 0.23908(16) 0.92808(18)
H2 H 0.1823 0.2825 0.9140
C3 C 0.2832(2) 0.23142(15) 1.00710(17)
C4 C 0.3461(2) 0.16744(16) 1.02229(17)
H3 H 0.3891 0.1603 1.0746
C5 C 0.3452(2) 0.11438(15) 0.96035(17)
H4 H 0.3901 0.0719 0.9711
C6 C 0.2784(2) 0.28808(15) 1.07270(17)
C7 C 0.3655(2) 0.29808(17) 1.13561(19)
H5 H 0.4304 0.2689 1.1367
C8 C 0.3570(3) 0.35073(17) 1.19662(19)
H6 H 0.4176 0.3570 1.2387
N4 N 0.2675(2) 0.39332(13) 1.19926(14)
C9 C 0.1835(2) 0.38373(16) 1.13885(18)
H7 H 0.1194 0.4133 1.1397
C10 C 0.1856(2) 0.33275(16) 1.07532(18)
H8 H 0.1242 0.3282 1.0336
N5 N 0.2245(2) -0.05794(13) 0.70980(14)
C11 C 0.1413(3) -0.10514(18) 0.71591(19)
H9 H 0.1049 -0.1037 0.7647
C12 C 0.1058(3) -0.15587(18) 0.6547(2)
H10 H 0.0476 -0.1890 0.6625
C13 C 0.1558(2) -0.15820(16) 0.58151(18)
C14 C 0.2440(3) -0.11039(17) 0.57619(19)
H11 H 0.2823 -0.1109 0.5283
C15 C 0.2757(2) -0.06199(16) 0.64114(18)
H12 H 0.3366 -0.0302 0.6366
C16 C 0.1147(2) -0.20746(17) 0.51129(18)
C17 C 0.0656(3) -0.27525(17) 0.5244(2)
H13 H 0.0605 -0.2925 0.5793
C18 C 0.0244(3) -0.31731(19) 0.4555(2)
H14 H -0.0080 -0.3637 0.4652
N6 N 0.0276(3) -0.29621(17) 0.37692(18)
C19 C 0.0758(3) -0.2314(2) 0.3648(2)
H15 H 0.0795 -0.2157 0.3091
C20 C 0.1205(3) -0.18598(19) 0.4291(2)
H16 H 0.1548 -0.1408 0.4173
N7 N 0.2624(2) -0.04985(13) 0.90106(15)
C21 C 0.2245(3) -0.03526(17) 0.97375(19)
H17 H 0.1756 0.0049 0.9781
C22 C 0.3229(3) -0.11148(17) 0.89782(19)
H18 H 0.3494 -0.1220 0.8461
C23 C 0.2576(5) -0.0798(3) 1.0443(3)
H19 H 0.2358 -0.0661 1.0967
C24 C 0.3214(4) -0.1435(3) 1.0392(3)
C25 C 0.3505(4) -0.1609(3) 0.9613(3)
H20 H 0.3882 -0.2054 0.9520
C26 C 0.3552(3) -0.1906(2) 1.1133(3)
C27 C 0.3019(4) -0.1869(3) 1.1846(3)
H21 H 0.2421 -0.1538 1.1870
C28 C 0.3361(5) -0.2318(3) 1.2525(3)
H22 H 0.2988 -0.2277 1.3007
N8 N 0.4177(3) -0.2798(2) 1.2537(3)
C29 C 0.4697(4) -0.2837(3) 1.1852(3)
H23 H 0.5287 -0.3178 1.1845
C30 C 0.4413(4) -0.2403(2) 1.1154(3)
H24 H 0.4813 -0.2447 1.0687
N4C N 0.2675(2) 0.10668(13) 0.69926(14)
Co1C Co 0.26018(3) 0.471500(19) 1.30071(2)
O7 O 0.1229(3) -0.6592(3) 0.7566(2)
C31 C 0.2123(5) -0.6288(5) 0.7216(5)
O8 O 0.4601(11) -0.1457(7) 0.4698(8)
C32 C 0.5493(18) -0.0999(12) 0.5292(13)
C33 C 0.9269(10) -0.0212(6) 0.5809(7)
O9 O 0.8628(6) -0.0827(5) 0.5993(5)
O10 O 0.673(3) 0.0360(15) 0.6018(18)
C34 C 0.600(3) 0.0427(16) 0.6415(19)
O11? O 0.5474(11) -0.0732(7) 0.7972(8)
N9? N 0.5095(11) -0.0061(8) 0.7861(9)
O12? O 0.4373(7) 0.0250(5) 0.8208(6)
O13? O 0.5091(19) 0.0042(14) 0.7079(10)
O14? O 0.5827(10) -0.0495(8) 0.8149(8)
C35? C 0.2312(12) -0.0719(6) 1.0472(6)
H25? H 0.1891 -0.0602 1.0913
C36? C 0.3068(9) -0.1285(6) 1.0495(6)
C37? C 0.3501(11) -0.1461(8) 0.9759(5)
H26? H 0.4028 -0.1849 0.9785
C38? C 0.3373(9) -0.1682(5) 1.1302(6)
C39? C 0.3157(12) -0.1407(8) 1.2061(7)
H27? H 0.2815 -0.0940 1.2097
C40? C 0.3452(15) -0.1828(8) 1.2775(10)
H28? H 0.3291 -0.1631 1.3291
N10? N 0.3941(11) -0.2485(7) 1.2791(7)
C41? C 0.4191(14) -0.2756(8) 1.2072(7)
H29? H 0.4587 -0.3206 1.2059
C42? C 0.3865(13) -0.2372(6) 1.1339(8)
H30? H 0.3989 -0.2598 1.0827
O15? O 0.8706(17) -0.0206(10) 0.5992(12)
C43? C 0.820(2) 0.0194(14) 0.6332(16)
loop_
_geom_bond_atom_site_label_1
_geom_bond_atom_site_label_2
_geom_bond_site_symmetry_1
_geom_bond_site_symmetry_2
Co1 O2 1_555 1_555
N1 O1 1_555 1_555
O2 N1 1_555 1_555
O3 N1 1_555 1_555
N2 O4 1_555 1_555
O4 Co1 1_555 1_555
O5 N2 1_555 1_555
O6 N2 1_555 1_555
N3 Co1 1_555 1_555
C1 N3 1_555 1_555
H1 C1 1_555 1_555
C2 C1 1_555 1_555
H2 C2 1_555 1_555
C3 C2 1_555 1_555
C4 C3 1_555 1_555
H3 C4 1_555 1_555
C5 N3 1_555 1_555
H4 C5 1_555 1_555
C6 C3 1_555 1_555
C7 C6 1_555 1_555
H5 C7 1_555 1_555
C8 C7 1_555 1_555
H6 C8 1_555 1_555
N4 C8 1_555 1_555
C9 N4 1_555 1_555
H7 C9 1_555 1_555
C10 C6 1_555 1_555
H8 C10 1_555 1_555
N5 Co1 1_555 1_555
C11 N5 1_555 1_555
H9 C11 1_555 1_555
C12 C11 1_555 1_555
H10 C12 1_555 1_555
C13 C12 1_555 1_555
C14 C13 1_555 1_555
H11 C14 1_555 1_555
C15 N5 1_555 1_555
H12 C15 1_555 1_555
C16 C13 1_555 1_555
C17 C16 1_555 1_555
H13 C17 1_555 1_555
C18 C17 1_555 1_555
H14 C18 1_555 1_555
N6 C18 1_555 1_555
C19 N6 1_555 1_555
H15 C19 1_555 1_555
C20 C16 1_555 1_555
H16 C20 1_555 1_555
N7 Co1 1_555 1_555
C21 N7 1_555 1_555
H17 C21 1_555 1_555
C22 N7 1_555 1_555
H18 C22 1_555 1_555
C23 C21 1_555 1_555
H19 C23 1_555 1_555
C24 C23 1_555 1_555
C25 C22 1_555 1_555
H20 C25 1_555 1_555
C26 C24 1_555 1_555
C27 C26 1_555 1_555
H21 C27 1_555 1_555
C28 C27 1_555 1_555
H22 C28 1_555 1_555
N8 C28 1_555 1_555
C29 N8 1_555 1_555
H23 C29 1_555 1_555
C30 C26 1_555 1_555
H24 C30 1_555 1_555
O7 C31 1_555 1_555
O8 C32 1_555 1_555
C33 O9 1_555 1_555
O10 C34 1_555 1_555
N4C Co1 1_555 1_555
Co1C N4 1_555 1_555
C4 C5 1_555 1_555
C9 C10 1_555 1_555
C14 C15 1_555 1_555
C19 C20 1_555 1_555
C24 C25 1_555 1_555
C29 C30 1_555 1_555

#END
