
#######################################################################
#
#                 Cambridge Crystallographic Data Centre
#                                CCDC 
#
#######################################################################
#
# If this CIF has been generated from an entry in the Cambridge 
# Structural Database, then it will include bibliographic, chemical, 
# crystal, experimental, refinement or atomic coordinate data resulting 
# from the CCDC's data processing and validation procedures.
#
#######################################################################

data_AXITEH
_symmetry_cell_setting           orthorhombic
_symmetry_space_group_name_H-M   'P b c a'
_symmetry_Int_Tables_number      61
_space_group_name_Hall           '-P 2ac 2ab'
loop_
_symmetry_equiv_pos_site_id
_symmetry_equiv_pos_as_xyz
1 x,y,z
2 1/2-x,-y,1/2+z
3 -x,1/2+y,1/2-z
4 1/2+x,1/2-y,-z
5 -x,-y,-z
6 1/2+x,y,1/2-z
7 x,1/2-y,1/2+z
8 1/2-x,1/2+y,z
_cell_length_a                   9.2808(3)
_cell_length_b                   15.2263(6)
_cell_length_c                   16.1552(6)
_cell_angle_alpha                90
_cell_angle_beta                 90
_cell_angle_gamma                90
_cell_volume                     2282.93
loop_
_atom_site_label
_atom_site_type_symbol
_atom_site_fract_x
_atom_site_fract_y
_atom_site_fract_z
Co1 Co 0.61224(3) 0.059701(16) 0.551958(15)
S1 S 0.83414(5) -0.11571(3) 0.58224(3)
C1 C 0.9268(2) -0.05659(11) 0.85515(12)
C2 C 1.1474(2) 0.08946(16) 0.67702(13)
C3 C 0.8727(2) -0.09095(13) 0.68641(11)
C4 C 1.0013(2) -0.00827(12) 0.79138(10)
C5 C 0.9750(2) -0.02434(12) 0.70652(11)
C6 C 0.8314(2) -0.12088(13) 0.83198(13)
C7 C 1.1682(2) 0.10018(14) 0.76211(13)
C8 C 1.0529(2) 0.02775(14) 0.64915(12)
C9 C 0.8048(2) -0.13695(13) 0.74779(12)
O1 O 0.95579(16) -0.03475(9) 0.93258(8)
O2 O 0.77887(19) 0.14661(11) 0.54405(12)
O3 O 0.46573(19) 0.16858(11) 0.55403(11)
O4 O 0.78794(16) -0.03495(9) 0.54076(8)
O5 O 0.71992(16) -0.18150(9) 0.58424(8)
O6 O 0.96635(16) -0.14954(10) 0.54532(8)
N1 N 1.09755(17) 0.05343(10) 0.81784(11)
H1 H 0.781(3) 0.201(2) 0.5597(16)
H2 H 0.847(3) 0.1368(19) 0.5207(19)
H3 H 0.487(3) 0.2226(18) 0.5574(13)
H4 H 0.425(3) 0.1648(18) 0.5205(17)
H5 H 1.192(3) 0.1232(15) 0.6432(16)
H6 H 0.777(2) -0.1535(16) 0.8736(15)
H7 H 1.235(2) 0.1420(16) 0.7786(15)
H8 H 1.041(2) 0.0173(14) 0.5909(13)
H9 H 0.736(2) -0.1823(14) 0.7320(14)
Co1A Co 0.88776(3) -0.059701(16) 1.051958(15)
Co1E Co 1.11224(3) 0.059701(16) 0.948042(15)
O1A O 0.54421(16) 0.03475(9) 0.43258(8)
O1E O 0.45579(16) -0.03475(9) 0.56742(8)
N1E N 0.59755(17) 0.05343(10) 0.68216(11)
loop_
_geom_bond_atom_site_label_1
_geom_bond_atom_site_label_2
_geom_bond_site_symmetry_1
_geom_bond_site_symmetry_2
Co1 O2 1_555 1_555
S1 C3 1_555 1_555
C1 C4 1_555 1_555
C2 C7 1_555 1_555
C3 C5 1_555 1_555
C4 C5 1_555 1_555
C5 C8 1_555 1_555
C6 C1 1_555 1_555
C7 N1 1_555 1_555
C8 C2 1_555 1_555
C9 C3 1_555 1_555
O1 C1 1_555 1_555
O2 H1 1_555 1_555
O3 Co1 1_555 1_555
O4 Co1 1_555 1_555
O5 S1 1_555 1_555
O6 S1 1_555 1_555
N1 C4 1_555 1_555
H2 O2 1_555 1_555
H3 O3 1_555 1_555
H4 O3 1_555 1_555
H5 C2 1_555 1_555
H6 C6 1_555 1_555
H7 C7 1_555 1_555
H8 C8 1_555 1_555
H9 C9 1_555 1_555
Co1A O1 1_555 1_555
Co1E O1 1_555 1_555
O1A Co1 1_555 1_555
O1E Co1 1_555 1_555
N1E Co1 1_555 1_555
S1 O4 1_555 1_555
C6 C9 1_555 1_555
N1 Co1E 1_555 1_555

#END
