
#######################################################################
#
#                 Cambridge Crystallographic Data Centre
#                                CCDC 
#
#######################################################################
#
# If this CIF has been generated from an entry in the Cambridge 
# Structural Database, then it will include bibliographic, chemical, 
# crystal, experimental, refinement or atomic coordinate data resulting 
# from the CCDC's data processing and validation procedures.
#
#######################################################################

data_AXIVAF
_symmetry_cell_setting           orthorhombic
_symmetry_space_group_name_H-M   'P b c a'
_symmetry_Int_Tables_number      61
_space_group_name_Hall           '-P 2ac 2ab'
loop_
_symmetry_equiv_pos_site_id
_symmetry_equiv_pos_as_xyz
1 x,y,z
2 1/2-x,-y,1/2+z
3 -x,1/2+y,1/2-z
4 1/2+x,1/2-y,-z
5 -x,-y,-z
6 1/2+x,y,1/2-z
7 x,1/2-y,1/2+z
8 1/2-x,1/2+y,z
_cell_length_a                   9.9377(3)
_cell_length_b                   10.6391(3)
_cell_length_c                   24.0171(8)
_cell_angle_alpha                90
_cell_angle_beta                 90
_cell_angle_gamma                90
_cell_volume                     2539.28
loop_
_atom_site_label
_atom_site_type_symbol
_atom_site_fract_x
_atom_site_fract_y
_atom_site_fract_z
Zn1 Zn 0.15127(3) 0.46583(3) 0.192003(12)
C1 C 0.1994(3) 0.6736(2) 0.10275(11)
C2 C 0.1366(3) 0.6102(3) 0.05360(12)
H1 H 0.0971 0.5310 0.0665
C3 C 0.2409(4) 0.5792(4) 0.01014(14)
H2 H 0.2822 0.6553 -0.0028
H3 H 0.1986 0.5369 -0.0206
H4 H 0.3083 0.5255 0.0261
C4 C 0.0245(4) 0.6900(4) 0.03024(15)
H5 H -0.0431 0.7024 0.0582
H6 H -0.0146 0.6485 -0.0013
H7 H 0.0600 0.7700 0.0189
C5 C 0.2512(3) 0.5308(2) 0.31193(11)
C6 C 0.1238(3) 0.5789(3) 0.33714(13)
H8 H 0.0637 0.6040 0.3068
C7 C 0.0551(3) 0.4742(3) 0.36972(15)
H9 H 0.0423 0.4027 0.3459
H10 H -0.0306 0.5032 0.3829
H11 H 0.1104 0.4509 0.4008
C8 C 0.1501(3) 0.6934(3) 0.37292(16)
H12 H 0.2086 0.6709 0.4032
H13 H 0.0665 0.7244 0.3875
H14 H 0.1920 0.7576 0.3508
N1 N 0.2590(2) 0.47282(18) 0.26236(9)
N2 N 0.3886(2) 0.4405(2) 0.25502(9)
N3 N 0.4533(2) 0.4781(2) 0.29944(9)
N4 N 0.3705(2) 0.5353(2) 0.33621(10)
N5 N 0.2118(2) 0.62235(19) 0.15341(9)
N6 N 0.2705(2) 0.70834(19) 0.18612(9)
N7 N 0.2916(2) 0.80728(19) 0.15509(10)
N8 N 0.2489(2) 0.7900(2) 0.10254(9)
Zn1E Zn 0.65127(3) 0.46583(3) 0.307997(12)
Zn1G Zn 0.34873(3) 0.96583(3) 0.192003(12)
N3E N -0.0467(2) 0.4781(2) 0.20056(9)
N7G N 0.2084(2) 0.30728(19) 0.15509(10)
loop_
_geom_bond_atom_site_label_1
_geom_bond_atom_site_label_2
_geom_bond_site_symmetry_1
_geom_bond_site_symmetry_2
Zn1 N1 1_555 1_555
C1 C2 1_555 1_555
C2 H1 1_555 1_555
C3 C2 1_555 1_555
H2 C3 1_555 1_555
H3 C3 1_555 1_555
H4 C3 1_555 1_555
C4 C2 1_555 1_555
H5 C4 1_555 1_555
H6 C4 1_555 1_555
H7 C4 1_555 1_555
C5 C6 1_555 1_555
C6 H8 1_555 1_555
C7 C6 1_555 1_555
H9 C7 1_555 1_555
H10 C7 1_555 1_555
H11 C7 1_555 1_555
C8 C6 1_555 1_555
H12 C8 1_555 1_555
H13 C8 1_555 1_555
H14 C8 1_555 1_555
N1 C5 1_555 1_555
N2 N1 1_555 1_555
N3 N2 1_555 1_555
N4 C5 1_555 1_555
N5 Zn1 1_555 1_555
N6 N5 1_555 1_555
N7 N6 1_555 1_555
N8 C1 1_555 1_555
Zn1E N3 1_555 1_555
Zn1G N7 1_555 1_555
N3E Zn1 1_555 1_555
N7G Zn1 1_555 1_555
C1 N5 1_555 1_555
N3 N4 1_555 1_555
N7 N8 1_555 1_555

#END
