
#######################################################################
#
#                 Cambridge Crystallographic Data Centre
#                                CCDC 
#
#######################################################################
#
# If this CIF has been generated from an entry in the Cambridge 
# Structural Database, then it will include bibliographic, chemical, 
# crystal, experimental, refinement or atomic coordinate data resulting 
# from the CCDC's data processing and validation procedures.
#
#######################################################################

data_AXIVIM
_symmetry_cell_setting           monoclinic
_symmetry_space_group_name_H-M   'P 21/n'
_symmetry_Int_Tables_number      14
_space_group_name_Hall           '-P 2yn'
loop_
_symmetry_equiv_pos_site_id
_symmetry_equiv_pos_as_xyz
1 x,y,z
2 1/2+x,1/2-y,1/2+z
3 -x,-y,-z
4 1/2-x,1/2+y,1/2-z
_cell_length_a                   7.210(4)
_cell_length_b                   5.962(3)
_cell_length_c                   18.975(10)
_cell_angle_alpha                90
_cell_angle_beta                 99.336(9)
_cell_angle_gamma                90
_cell_volume                     804.855
loop_
_atom_site_label
_atom_site_type_symbol
_atom_site_fract_x
_atom_site_fract_y
_atom_site_fract_z
Cd1 Cd 0.0000 0.0000 0.0000
S1 S 0.38751(8) 0.22852(12) 0.10875(3)
O1 O 0.1970(3) 0.1414(4) 0.09692(10)
O2 O 0.3990(5) 0.4559(5) 0.08275(15)
O3 O 0.5179(3) 0.0813(5) 0.08163(11)
N1 N 0.6520(3) 0.2764(4) 0.42303(10)
H1 H 0.7721 0.3233 0.4279
H2 H 0.6548 0.1351 0.4398
C1 C 0.5819(3) 0.2658(4) 0.34774(12)
C2 C 0.6097(4) 0.4454(5) 0.30443(15)
H3 H 0.6703 0.5736 0.3244
C3 C 0.5475(4) 0.4351(5) 0.23160(14)
H4 H 0.5678 0.5552 0.2025
C4 C 0.4551(3) 0.2455(4) 0.20226(12)
C5 C 0.4222(4) 0.0671(5) 0.24531(14)
H5 H 0.3580 -0.0590 0.2254
C6 C 0.4855(4) 0.0777(5) 0.31823(13)
H6 H 0.4634 -0.0413 0.3474
O4 O -0.2058(3) 0.2838(3) 0.01606(10)
H7 H -0.2616 0.3327 -0.0251
H8 H -0.2893 0.2450 0.0381
S1B S -0.38751(8) -0.22852(12) -0.10875(3)
O1B O -0.1970(3) -0.1414(4) -0.09692(10)
O2B O -0.3990(5) -0.4559(5) -0.08275(15)
O3B O -0.5179(3) -0.0813(5) -0.08163(11)
N1B N -0.6520(3) -0.2764(4) -0.42303(10)
H1B H -0.7721 -0.3233 -0.4279
H2B H -0.6548 -0.1351 -0.4398
C1B C -0.5819(3) -0.2658(4) -0.34774(12)
C2B C -0.6097(4) -0.4454(5) -0.30443(15)
H3B H -0.6703 -0.5736 -0.3244
C3B C -0.5475(4) -0.4351(5) -0.23160(14)
H4B H -0.5678 -0.5552 -0.2025
C4B C -0.4551(3) -0.2455(4) -0.20226(12)
C5B C -0.4222(4) -0.0671(5) -0.24531(14)
H5B H -0.3580 0.0590 -0.2254
C6B C -0.4855(4) -0.0777(5) -0.31823(13)
H6B H -0.4634 0.0413 -0.3474
O4B O 0.2058(3) -0.2838(3) -0.01606(10)
H7B H 0.2616 -0.3327 0.0251
H8B H 0.2893 -0.2450 -0.0381
N1A N 0.1520(3) 0.2236(4) -0.07697(10)
N1C N -0.1520(3) -0.2236(4) 0.07697(10)
Cd1A Cd 0.5000 0.5000 0.5000
Cd1A_2 Cd -0.5000 -0.5000 -0.5000
H1A H 0.2721 0.1767 -0.0721
H2A H 0.1548 0.3649 -0.0602
H1C H -0.2721 -0.1767 0.0721
H2C H -0.1548 -0.3649 0.0602
loop_
_geom_bond_atom_site_label_1
_geom_bond_atom_site_label_2
_geom_bond_site_symmetry_1
_geom_bond_site_symmetry_2
Cd1 O1 1_555 1_555
S1 O1 1_555 1_555
O2 S1 1_555 1_555
O3 S1 1_555 1_555
N1 H1 1_555 1_555
H2 N1 1_555 1_555
C1 N1 1_555 1_555
C2 C1 1_555 1_555
H3 C2 1_555 1_555
C3 C2 1_555 1_555
H4 C3 1_555 1_555
C4 S1 1_555 1_555
C5 C4 1_555 1_555
H5 C5 1_555 1_555
C6 C1 1_555 1_555
H6 C6 1_555 1_555
O4 Cd1 1_555 1_555
H7 O4 1_555 1_555
H8 O4 1_555 1_555
S1B O1B 1_555 1_555
O1B Cd1 1_555 1_555
O2B S1B 1_555 1_555
O3B S1B 1_555 1_555
N1B H1B 1_555 1_555
H2B N1B 1_555 1_555
C1B N1B 1_555 1_555
C2B C1B 1_555 1_555
H3B C2B 1_555 1_555
C3B C2B 1_555 1_555
H4B C3B 1_555 1_555
C4B S1B 1_555 1_555
C5B C4B 1_555 1_555
H5B C5B 1_555 1_555
C6B C1B 1_555 1_555
H6B C6B 1_555 1_555
O4B Cd1 1_555 1_555
H7B O4B 1_555 1_555
H8B O4B 1_555 1_555
N1A Cd1 1_555 1_555
N1C Cd1 1_555 1_555
Cd1A N1 1_555 1_555
Cd1A_2 N1B 1_555 1_555
H1A N1A 1_555 1_555
H2A N1A 1_555 1_555
H1C N1C 1_555 1_555
H2C N1C 1_555 1_555
C3 C4 1_555 1_555
C5 C6 1_555 1_555
C3B C4B 1_555 1_555
C5B C6B 1_555 1_555

#END
