
#######################################################################
#
#                 Cambridge Crystallographic Data Centre
#                                CCDC 
#
#######################################################################
#
# If this CIF has been generated from an entry in the Cambridge 
# Structural Database, then it will include bibliographic, chemical, 
# crystal, experimental, refinement or atomic coordinate data resulting 
# from the CCDC's data processing and validation procedures.
#
#######################################################################

data_AXODOH
_symmetry_cell_setting           monoclinic
_symmetry_space_group_name_H-M   'P 21/c'
_symmetry_Int_Tables_number      14
_space_group_name_Hall           '-P 2ybc'
loop_
_symmetry_equiv_pos_site_id
_symmetry_equiv_pos_as_xyz
1 x,y,z
2 -x,1/2+y,1/2-z
3 -x,-y,-z
4 x,1/2-y,1/2+z
_cell_length_a                   10.810(4)
_cell_length_b                   24.347(6)
_cell_length_c                   17.190(5)
_cell_angle_alpha                90
_cell_angle_beta                 122.205(12)
_cell_angle_gamma                90
_cell_volume                     3828.18
loop_
_atom_site_label
_atom_site_type_symbol
_atom_site_fract_x
_atom_site_fract_y
_atom_site_fract_z
Co1 Co 0.46788(5) 0.30985(2) 0.96670(3)
Co2 Co -0.11441(5) 0.42020(2) 0.65015(3)
O1 O 0.0665(3) 0.08129(11) 0.67345(16)
O2 O 0.3685(3) 0.23822(11) 0.92038(19)
O3 O 0.5566(3) 0.21635(11) 0.90834(19)
O4 O 0.5994(3) 0.14401(12) 1.07530(18)
O5 O 0.6840(3) 0.06971(12) 1.04264(17)
O6 O 0.4042(3) 0.07589(11) 0.52384(19)
O7 O 0.3143(3) 0.16109(11) 0.48305(18)
O8 O 0.1199(3) 0.08556(12) 0.31883(18)
O9 O -0.1189(3) 0.08461(12) 0.26178(17)
N1 N 0.5087(4) 0.42739(14) 0.8078(2)
N2 N 0.4873(3) 0.35378(14) 0.8744(2)
N3 N 0.1298(4) 0.55725(14) 0.6669(2)
N4 N -0.0304(3) 0.49231(14) 0.6409(2)
N5 N -0.1385(3) 0.27351(13) 0.2112(2)
N6 N -0.3336(3) 0.30485(13) 0.0852(2)
N7 N -0.0278(4) 0.27992(16) 0.5483(3)
N8 N -0.0362(4) 0.35642(15) 0.6142(2)
C1 C 0.5063(5) 0.48589(17) 0.7853(3)
H3 H 0.6033 0.4964 0.7971
H4 H 0.4878 0.5082 0.8262
C2 C 0.3904(5) 0.49880(17) 0.6860(3)
H5 H 0.2986 0.4796 0.6690
H6 H 0.4229 0.4851 0.6455
C3 C 0.3612(5) 0.56069(17) 0.6709(3)
H7 H 0.4562 0.5801 0.7001
H8 H 0.3081 0.5683 0.6041
C4 C 0.2736(4) 0.58404(17) 0.7089(3)
H9 H 0.3284 0.5786 0.7763
H10 H 0.2599 0.6240 0.6966
C5 C -0.0322(5) 0.2351(2) 0.2818(3)
H11 H 0.0610 0.2375 0.2840
H12 H -0.0696 0.1971 0.2637
C6 C -0.0022(6) 0.2466(3) 0.3786(4)
H13 H 0.0805 0.2233 0.4235
H14 H 0.0280 0.2854 0.3945
C7 C -0.1238(6) 0.2366(3) 0.3872(4)
H15 H -0.1743 0.2028 0.3525
H16 H -0.1935 0.2675 0.3590
C8 C -0.0801(6) 0.2296(2) 0.4901(4)
H17 H -0.1661 0.2153 0.4898
H18 H -0.0024 0.2014 0.5195
C9 C 0.4706(4) 0.40783(18) 0.8647(3)
H19 H 0.4357 0.4299 0.8946
C10 C 0.5367(5) 0.33826(18) 0.8188(3)
H20 H 0.5584 0.3016 0.8109
C11 C 0.5501(5) 0.38310(18) 0.7769(3)
H21 H 0.5817 0.3838 0.7349
C12 C 0.1004(4) 0.51256(17) 0.7002(3)
H22 H 0.1659 0.4974 0.7593
C13 C -0.0883(5) 0.5267(2) 0.5650(3)
H23 H -0.1824 0.5229 0.5107
C14 C 0.0096(5) 0.56657(19) 0.5801(3)
H24 H -0.0022 0.5952 0.5391
C15 C -0.2700(4) 0.26142(17) 0.1384(3)
H25 H -0.3130 0.2259 0.1262
C16 C -0.2355(4) 0.34693(17) 0.1275(3)
H26 H -0.2495 0.3836 0.1056
C17 C -0.1164(4) 0.32815(17) 0.2050(3)
H27 H -0.0327 0.3490 0.2473
C18 C -0.1135(5) 0.31814(18) 0.5523(3)
H28 H -0.2173 0.3178 0.5152
C19 C 0.1083(5) 0.3414(2) 0.6513(4)
H29 H 0.1908 0.3611 0.6976
C20 C 0.1138(5) 0.2943(2) 0.6115(4)
H30 H 0.1993 0.2750 0.6248
C21 C 0.1989(4) 0.08841(16) 0.7569(2)
C22 C 0.2530(4) 0.14070(16) 0.7888(2)
H31 H 0.2040 0.1719 0.7518
C23 C 0.3790(4) 0.14728(15) 0.8748(2)
C24 C 0.4503(4) 0.10118(15) 0.9294(2)
C25 C 0.3938(4) 0.04933(16) 0.8950(2)
H32 H 0.4427 0.0179 0.9314
C26 C 0.2680(4) 0.04232(16) 0.8090(2)
H33 H 0.2302 0.0067 0.7865
C27 C 0.4421(4) 0.20419(16) 0.9044(2)
C28 C 0.5874(4) 0.10638(16) 1.0235(2)
C29 C 0.0656(4) 0.08197(15) 0.5933(2)
C30 C 0.1861(4) 0.09493(14) 0.5885(2)
H34 H 0.2771 0.1033 0.6429
C31 C 0.1727(4) 0.09553(14) 0.5032(2)
C32 C 0.0383(4) 0.08342(15) 0.4236(2)
C33 C -0.0803(4) 0.07008(16) 0.4313(2)
H35 H -0.1717 0.0616 0.3774
C34 C -0.0678(4) 0.06899(16) 0.5151(2)
H36 H -0.1493 0.0595 0.5194
C35 C 0.3073(4) 0.11105(16) 0.5022(2)
C36 C 0.0168(4) 0.08466(16) 0.3299(2)
Co1_2 Co -0.53212(5) 0.30985(2) -0.03330(3)
Co1C Co 0.46788(5) 0.19015(2) 0.46670(3)
Co2C Co -0.11441(5) 0.07980(2) 0.15015(3)
Co2C_2 Co 0.88559(5) 0.07980(2) 1.15015(3)
O5C O -0.3160(3) 0.43029(12) 0.54264(17)
O7C O 0.3143(3) 0.33891(11) 0.98305(18)
O9C O -0.1189(3) 0.41539(12) 0.76178(17)
N6_2 N 0.6664(3) 0.30485(13) 1.0852(2)
O10 O 0.5064(7) 0.3121(2) 0.2255(4)
O11 O 0.3998(4) 0.2808(2) 0.5953(3)
O12 O 0.6728(4) 0.47567(14) 0.0786(2)
H1 H 0.589(3) 0.4598(19) 0.056(3)
H2 H 0.652(6) 0.5035(15) 0.042(3)
loop_
_geom_bond_atom_site_label_1
_geom_bond_atom_site_label_2
_geom_bond_site_symmetry_1
_geom_bond_site_symmetry_2
Co1 O2 1_555 1_555
Co2 N4 1_555 1_555
O1 C21 1_555 1_555
O2 C27 1_555 1_555
O3 C27 1_555 1_555
O4 C28 1_555 1_555
O5 C28 1_555 1_555
O6 C35 1_555 1_555
O7 C35 1_555 1_555
O8 C36 1_555 1_555
O9 C36 1_555 1_555
O12 H1 1_555 1_555
H2 O12 1_555 1_555
N1 C1 1_555 1_555
N2 Co1 1_555 1_555
N3 C4 1_555 1_555
N4 C12 1_555 1_555
N5 C5 1_555 1_555
N6 C15 1_555 1_555
N7 C8 1_555 1_555
N8 Co2 1_555 1_555
C1 H3 1_555 1_555
H4 C1 1_555 1_555
C2 C1 1_555 1_555
H5 C2 1_555 1_555
H6 C2 1_555 1_555
C3 C2 1_555 1_555
H7 C3 1_555 1_555
H8 C3 1_555 1_555
C4 C3 1_555 1_555
H9 C4 1_555 1_555
H10 C4 1_555 1_555
C5 H11 1_555 1_555
H12 C5 1_555 1_555
C6 C5 1_555 1_555
H13 C6 1_555 1_555
H14 C6 1_555 1_555
C7 C6 1_555 1_555
H15 C7 1_555 1_555
H16 C7 1_555 1_555
C8 C7 1_555 1_555
H17 C8 1_555 1_555
H18 C8 1_555 1_555
C9 N1 1_555 1_555
H19 C9 1_555 1_555
C10 N2 1_555 1_555
H20 C10 1_555 1_555
C11 N1 1_555 1_555
H21 C11 1_555 1_555
C12 N3 1_555 1_555
H22 C12 1_555 1_555
C13 N4 1_555 1_555
H23 C13 1_555 1_555
C14 N3 1_555 1_555
H24 C14 1_555 1_555
C15 N5 1_555 1_555
H25 C15 1_555 1_555
C16 N6 1_555 1_555
H26 C16 1_555 1_555
C17 N5 1_555 1_555
H27 C17 1_555 1_555
C18 N7 1_555 1_555
H28 C18 1_555 1_555
C19 N8 1_555 1_555
H29 C19 1_555 1_555
C20 N7 1_555 1_555
H30 C20 1_555 1_555
C21 C22 1_555 1_555
C22 H31 1_555 1_555
C23 C22 1_555 1_555
C24 C23 1_555 1_555
C25 C24 1_555 1_555
H32 C25 1_555 1_555
C26 C21 1_555 1_555
H33 C26 1_555 1_555
C27 C23 1_555 1_555
C28 C24 1_555 1_555
C29 O1 1_555 1_555
C30 C29 1_555 1_555
H34 C30 1_555 1_555
C31 C30 1_555 1_555
C32 C31 1_555 1_555
C33 C32 1_555 1_555
H35 C33 1_555 1_555
C34 C29 1_555 1_555
H36 C34 1_555 1_555
C35 C31 1_555 1_555
C36 C32 1_555 1_555
Co1_2 N6 1_555 1_555
Co1C O7 1_555 1_555
Co2C O9 1_555 1_555
Co2C_2 O5 1_555 1_555
O5C Co2 1_555 1_555
O7C Co1 1_555 1_555
O9C Co2 1_555 1_555
N6_2 Co1 1_555 1_555
N2 C9 1_555 1_555
N8 C18 1_555 1_555
C10 C11 1_555 1_555
C13 C14 1_555 1_555
C16 C17 1_555 1_555
C19 C20 1_555 1_555
C25 C26 1_555 1_555
C33 C34 1_555 1_555

#END
