
#######################################################################
#
#                 Cambridge Crystallographic Data Centre
#                                CCDC 
#
#######################################################################
#
# If this CIF has been generated from an entry in the Cambridge 
# Structural Database, then it will include bibliographic, chemical, 
# crystal, experimental, refinement or atomic coordinate data resulting 
# from the CCDC's data processing and validation procedures.
#
#######################################################################

data_AXOFEZ01
_symmetry_cell_setting           monoclinic
_symmetry_space_group_name_H-M   'P 21/n'
_symmetry_Int_Tables_number      14
_space_group_name_Hall           '-P 2yn'
loop_
_symmetry_equiv_pos_site_id
_symmetry_equiv_pos_as_xyz
1 x,y,z
2 1/2-x,1/2+y,1/2-z
3 -x,-y,-z
4 1/2+x,1/2-y,1/2+z
_cell_length_a                   14.650(3)
_cell_length_b                   25.263(5)
_cell_length_c                   17.207(3)
_cell_angle_alpha                90
_cell_angle_beta                 106.90(3)
_cell_angle_gamma                90
_cell_volume                     6093.33
loop_
_atom_site_label
_atom_site_type_symbol
_atom_site_fract_x
_atom_site_fract_y
_atom_site_fract_z
C1 C 0.3267(8) 0.0973(3) 0.7626(5)
C2 C 0.3492(15) 0.0864(5) 0.6859(8)
H1 H 0.4085 0.0665 0.6999
H2 H 0.3000 0.0628 0.6544
C3 C 0.359(2) 0.1289(7) 0.6323(13)
H3 H 0.4096 0.1527 0.6610
H4 H 0.3001 0.1489 0.6149
C4 C 0.383(2) 0.1052(10) 0.5574(12)
H5 H 0.3896 0.1333 0.5220
H6 H 0.3322 0.0821 0.5289
H7 H 0.4413 0.0856 0.5750
C5 C 0.4125(6) 0.1875(3) 1.2539(5)
C6 C 0.3900(8) 0.2077(5) 1.3281(7)
H8 H 0.4037 0.2453 1.3325
H9 H 0.4333 0.1908 1.3752
C7 C 0.2932(13) 0.2001(10) 1.3325(10)
H10 H 0.2488 0.2172 1.2864
H11 H 0.2786 0.1625 1.3295
C8 C 0.2793(19) 0.2232(11) 1.4132(14)
H12 H 0.2149 0.2173 1.4140
H13 H 0.3225 0.2060 1.4591
H14 H 0.2921 0.2606 1.4158
C9 C 0.1487(7) 0.0678(4) 1.0471(6)
C10 C 0.0655(13) 0.0560(8) 1.0831(11)
H15 H 0.0183 0.0354 1.0433
H16 H 0.0901 0.0336 1.1303
C11 C 0.017(3) 0.1003(14) 1.107(2)
H17 H 0.0592 0.1289 1.1327
H18 H -0.0245 0.0902 1.1395
C12 C -0.035(3) 0.110(3) 1.019(2)
H19 H -0.0931 0.1292 1.0157
H20 H -0.0501 0.0771 0.9914
H21 H 0.0044 0.1309 0.9952
C13 C 0.2506(6) -0.2280(3) 0.7441(5)
C14 C 0.1660(10) -0.2309(6) 0.7739(12)
H22 H 0.1263 -0.2600 0.7465
H23 H 0.1871 -0.2393 0.8314
C15 C 0.1076(13) -0.1836(6) 0.763(3)
H24 H 0.1356 -0.1571 0.7361
H25 H 0.1100 -0.1699 0.8163
C16 C 0.0048(19) -0.1904(15) 0.715(3)
H26 H -0.0296 -0.1585 0.7184
H27 H -0.0221 -0.2193 0.7374
H28 H 0.0005 -0.1977 0.6596
C17 C 0.4575(7) 0.0377(3) 1.1774(5)
C18 C 0.3702(9) 0.0162(5) 1.1952(9)
H29 H 0.3796 -0.0213 1.2065
H30 H 0.3166 0.0199 1.1466
C19 C 0.344(2) 0.0417(10) 1.2645(15)
H31 H 0.2814 0.0301 1.2662
H32 H 0.3439 0.0799 1.2600
C20 C 0.420(3) 0.023(2) 1.338(2)
H33 H 0.4104 0.0393 1.3859
H34 H 0.4172 -0.0145 1.3425
H35 H 0.4815 0.0334 1.3337
C21 C 0.1127(9) -0.0166(5) 0.7464(9)
C22 C 0.0098(11) -0.0297(8) 0.6963(10)
H36 H -0.0096 -0.0620 0.7175
H37 H -0.0317 -0.0015 0.7040
C23 C -0.0047(14) -0.037(2) 0.6070(11)
H38 H 0.0332 -0.0664 0.5986
H39 H 0.0179 -0.0052 0.5859
C24 C -0.1071(18) -0.0459(19) 0.5603(14)
H40 H -0.1128 -0.0488 0.5035
H41 H -0.1452 -0.0168 0.5690
H42 H -0.1289 -0.0781 0.5787
C25 C 0.0718(6) 0.1515(3) 0.8180(5)
C26 C -0.0085(8) 0.1136(5) 0.8009(10)
H43 H -0.0041 0.0917 0.7558
H44 H 0.0022 0.0906 0.8478
C27 C -0.1052(11) 0.1324(6) 0.7820(17)
H45 H -0.1177 0.1555 0.7350
H46 H -0.1120 0.1533 0.8273
C28 C -0.1786(14) 0.0891(10) 0.765(2)
H47 H -0.2412 0.1044 0.7516
H48 H -0.1685 0.0669 0.8116
H49 H -0.1728 0.0683 0.7196
C29 C 0.1853(7) 0.2313(3) 1.0118(6)
C30 C 0.1766(10) 0.2394(6) 1.0950(7)
H50 H 0.1657 0.2053 1.1166
H51 H 0.2369 0.2528 1.1293
C31 C 0.1011(16) 0.2754(9) 1.1010(11)
H52 H 0.0401 0.2578 1.0796
H53 H 0.1014 0.3061 1.0672
C32 C 0.110(3) 0.294(2) 1.1856(14)
H54 H 0.0588 0.3183 1.1844
H55 H 0.1698 0.3113 1.2077
H56 H 0.1055 0.2641 1.2190
C33 C 0.3356(8) -0.0654(3) 0.9356(6)
C34 C 0.332(2) -0.0808(7) 1.0140(11)
H57 H 0.2657 -0.0863 1.0109
H58 H 0.3545 -0.0510 1.0502
C35 C 0.385(3) -0.1271(11) 1.0521(12)
H59 H 0.4501 -0.1218 1.0517
H60 H 0.3603 -0.1566 1.0158
C36 C 0.390(2) -0.1460(9) 1.1359(10)
H61 H 0.4302 -0.1766 1.1488
H62 H 0.3268 -0.1552 1.1379
H63 H 0.4151 -0.1184 1.1744
C37 C 0.4770(6) 0.2138(3) 1.0206(5)
C38 C 0.5486(9) 0.2578(5) 1.0468(8)
H64 H 0.5987 0.2465 1.0944
H65 H 0.5776 0.2646 1.0038
C39 C 0.5069(17) 0.3064(7) 1.066(2)
H66 H 0.4721 0.2963 1.1034
H67 H 0.4590 0.3164 1.0158
C40 C 0.558(5) 0.3567(13) 1.099(3)
H68 H 0.5232 0.3747 1.1305
H69 H 0.5613 0.3791 1.0545
H70 H 0.6208 0.3487 1.1322
C41 C 0.3227(7) -0.1069(3) 0.6456(5)
C42 C 0.2831(13) -0.0619(5) 0.5864(6)
H71 H 0.2231 -0.0504 0.5942
H72 H 0.3270 -0.0324 0.6000
C43 C 0.267(2) -0.0749(10) 0.4996(10)
H73 H 0.2266 -0.0486 0.4646
H74 H 0.2375 -0.1096 0.4865
C44 C 0.372(3) -0.0741(15) 0.4921(19)
H75 H 0.3703 -0.0821 0.4372
H76 H 0.4097 -0.1000 0.5281
H77 H 0.3990 -0.0396 0.5065
O1 O 0.3005(5) 0.0587(2) 0.7960(4)
O2 O 0.3292(4) 0.10449(17) 0.9620(3)
O3 O 0.3316(6) 0.1433(2) 0.7886(4)
O4 O 0.4998(4) 0.1860(2) 1.2569(3)
O5 O 0.3481(4) 0.1719(2) 1.1950(3)
O6 O 0.1481(6) 0.0448(3) 0.9813(5)
O7 O 0.2078(5) 0.1000(3) 1.0833(4)
O8 O 0.2513(4) -0.2519(2) 0.6803(4)
O9 O 0.3213(4) -0.2036(2) 0.7836(4)
O10 O 0.5297(5) 0.0096(2) 1.1940(4)
O11 O 0.4540(4) 0.08402(19) 1.1484(3)
O12 O 0.1174(5) 0.0098(3) 0.8081(5)
O13 O 0.1798(6) -0.0354(3) 0.7249(6)
O14 O 0.1544(4) 0.13457(18) 0.8491(3)
O15 O 0.0523(5) 0.1986(2) 0.7984(5)
O16 O 0.2518(4) 0.2018(2) 1.0025(3)
O17 O 0.1265(5) 0.2537(3) 0.9551(4)
O18 O 0.3512(5) -0.0964(2) 0.8861(4)
O19 O 0.3149(6) -0.0181(2) 0.9165(5)
O20 O 0.4711(4) 0.17992(19) 1.0736(3)
O21 O 0.4253(4) 0.2143(2) 0.9498(3)
O22 O 0.3282(6) -0.1511(2) 0.6192(4)
O23 O 0.3521(5) -0.0941(2) 0.7198(3)
H78 H 0.3925(6) 0.0927(6) 0.9609(9)
Mn1 Mn 0.21872(9) 0.05485(4) 0.89385(7)
Mn2 Mn 0.33430(9) 0.13675(4) 1.07796(7)
Mn3 Mn 0.43012(8) -0.14385(4) 0.82288(6)
Mn4 Mn 0.29439(8) 0.17660(4) 0.89014(7)
Mn5 Mn 0.11531(9) 0.27287(4) 0.83737(8)
Mn6 Mn 0.32344(11) -0.02534(5) 0.78723(8)
O4B O 0.5002(4) -0.1860(2) 0.7431(3)
O4C O -0.0002(4) 0.3140(2) 0.7569(3)
O8A O 0.2487(4) 0.2481(2) 0.8197(4)
O9A O 0.1787(4) 0.2964(2) 0.7164(4)
O10B O 0.4703(5) -0.0096(2) 0.8060(4)
O11B O 0.5460(4) -0.08402(19) 0.8516(3)
O20B O 0.5289(4) -0.17992(19) 0.9264(3)
O22A O 0.1718(6) 0.3489(2) 0.8808(4)
Mn3B Mn 0.56988(8) 0.14385(4) 1.17712(6)
Mn4A Mn 0.20561(8) -0.32340(4) 0.60986(7)
Mn5C Mn 0.61531(9) 0.22713(4) 1.33737(8)
Mn5A Mn 0.38469(9) -0.22713(4) 0.66263(8)
Mn6B Mn 0.67656(11) 0.02534(5) 1.21277(8)
loop_
_geom_bond_atom_site_label_1
_geom_bond_atom_site_label_2
_geom_bond_site_symmetry_1
_geom_bond_site_symmetry_2
C1 C2 1_555 1_555
C2 H1 1_555 1_555
H2 C2 1_555 1_555
C3 C2 1_555 1_555
H3 C3 1_555 1_555
H4 C3 1_555 1_555
C4 C3 1_555 1_555
H5 C4 1_555 1_555
H6 C4 1_555 1_555
H7 C4 1_555 1_555
C5 C6 1_555 1_555
C6 H8 1_555 1_555
H9 C6 1_555 1_555
C7 C6 1_555 1_555
H10 C7 1_555 1_555
H11 C7 1_555 1_555
C8 C7 1_555 1_555
H12 C8 1_555 1_555
H13 C8 1_555 1_555
H14 C8 1_555 1_555
C9 C10 1_555 1_555
C10 H15 1_555 1_555
H16 C10 1_555 1_555
C11 C10 1_555 1_555
H17 C11 1_555 1_555
H18 C11 1_555 1_555
C12 C11 1_555 1_555
H19 C12 1_555 1_555
H20 C12 1_555 1_555
H21 C12 1_555 1_555
C13 C14 1_555 1_555
C14 H22 1_555 1_555
H23 C14 1_555 1_555
C15 C14 1_555 1_555
H24 C15 1_555 1_555
H25 C15 1_555 1_555
C16 C15 1_555 1_555
H26 C16 1_555 1_555
H27 C16 1_555 1_555
H28 C16 1_555 1_555
C17 C18 1_555 1_555
C18 H29 1_555 1_555
H30 C18 1_555 1_555
C19 C18 1_555 1_555
H31 C19 1_555 1_555
H32 C19 1_555 1_555
C20 C19 1_555 1_555
H33 C20 1_555 1_555
H34 C20 1_555 1_555
H35 C20 1_555 1_555
C21 C22 1_555 1_555
C22 H36 1_555 1_555
H37 C22 1_555 1_555
C23 C22 1_555 1_555
H38 C23 1_555 1_555
H39 C23 1_555 1_555
C24 C23 1_555 1_555
H40 C24 1_555 1_555
H41 C24 1_555 1_555
H42 C24 1_555 1_555
C25 C26 1_555 1_555
C26 H43 1_555 1_555
H44 C26 1_555 1_555
C27 C26 1_555 1_555
H45 C27 1_555 1_555
H46 C27 1_555 1_555
C28 C27 1_555 1_555
H47 C28 1_555 1_555
H48 C28 1_555 1_555
H49 C28 1_555 1_555
C29 C30 1_555 1_555
C30 H50 1_555 1_555
H51 C30 1_555 1_555
C31 C30 1_555 1_555
H52 C31 1_555 1_555
H53 C31 1_555 1_555
C32 C31 1_555 1_555
H54 C32 1_555 1_555
H55 C32 1_555 1_555
H56 C32 1_555 1_555
C33 C34 1_555 1_555
C34 H57 1_555 1_555
H58 C34 1_555 1_555
C35 C34 1_555 1_555
H59 C35 1_555 1_555
H60 C35 1_555 1_555
C36 C35 1_555 1_555
H61 C36 1_555 1_555
H62 C36 1_555 1_555
H63 C36 1_555 1_555
C37 C38 1_555 1_555
C38 H64 1_555 1_555
H65 C38 1_555 1_555
C39 C38 1_555 1_555
H66 C39 1_555 1_555
H67 C39 1_555 1_555
C40 C39 1_555 1_555
H68 C40 1_555 1_555
H69 C40 1_555 1_555
H70 C40 1_555 1_555
C41 C42 1_555 1_555
C42 H71 1_555 1_555
H72 C42 1_555 1_555
C43 C42 1_555 1_555
H73 C43 1_555 1_555
H74 C43 1_555 1_555
C44 C43 1_555 1_555
H75 C44 1_555 1_555
H76 C44 1_555 1_555
H77 C44 1_555 1_555
O1 C1 1_555 1_555
O2 H78 1_555 1_555
O3 C1 1_555 1_555
O4 C5 1_555 1_555
O5 C5 1_555 1_555
O6 C9 1_555 1_555
O7 C9 1_555 1_555
O8 C13 1_555 1_555
O9 C13 1_555 1_555
O10 C17 1_555 1_555
O11 C17 1_555 1_555
O12 C21 1_555 1_555
O13 C21 1_555 1_555
O14 C25 1_555 1_555
O15 C25 1_555 1_555
O16 C29 1_555 1_555
O17 C29 1_555 1_555
O18 C33 1_555 1_555
O19 C33 1_555 1_555
O20 C37 1_555 1_555
O21 C37 1_555 1_555
O22 C41 1_555 1_555
O23 C41 1_555 1_555
Mn1 O1 1_555 1_555
Mn2 O2 1_555 1_555
Mn3 O9 1_555 1_555
Mn4 O2 1_555 1_555
Mn5 O15 1_555 1_555
Mn6 O1 1_555 1_555
O4B Mn3 1_555 1_555
O4C Mn5 1_555 1_555
O8A Mn4 1_555 1_555
O9A Mn5 1_555 1_555
O10B Mn6 1_555 1_555
O11B Mn3 1_555 1_555
O20B Mn3 1_555 1_555
O22A Mn5 1_555 1_555
Mn3B O4 1_555 1_555
Mn4A O8 1_555 1_555
Mn5C O4 1_555 1_555
Mn5A O8 1_555 1_555
Mn6B O10 1_555 1_555
O2 Mn1 1_555 1_555
O3 Mn4 1_555 1_555
O5 Mn2 1_555 1_555
O6 Mn1 1_555 1_555
O7 Mn2 1_555 1_555
O9 Mn5A 1_555 1_555
O11 Mn2 1_555 1_555
O11 Mn3B 1_555 1_555
O12 Mn1 1_555 1_555
O13 Mn6 1_555 1_555
O14 Mn1 1_555 1_555
O14 Mn4 1_555 1_555
O16 Mn2 1_555 1_555
O16 Mn4 1_555 1_555
O17 Mn5 1_555 1_555
O18 Mn3 1_555 1_555
O18 Mn6 1_555 1_555
O19 Mn1 1_555 1_555
O19 Mn6 1_555 1_555
O20 Mn2 1_555 1_555
O20 Mn3B 1_555 1_555
O21 Mn4 1_555 1_555
O22 Mn5A 1_555 1_555
O23 Mn3 1_555 1_555
O23 Mn6 1_555 1_555
Mn5 O8A 1_555 1_555
O4B Mn5A 1_555 1_555

#END
