
#######################################################################
#
#                 Cambridge Crystallographic Data Centre
#                                CCDC 
#
#######################################################################
#
# If this CIF has been generated from an entry in the Cambridge 
# Structural Database, then it will include bibliographic, chemical, 
# crystal, experimental, refinement or atomic coordinate data resulting 
# from the CCDC's data processing and validation procedures.
#
#######################################################################

data_AXOFAV
_symmetry_cell_setting           monoclinic
_symmetry_space_group_name_H-M   'P 21/c'
_symmetry_Int_Tables_number      14
_space_group_name_Hall           '-P 2ybc'
loop_
_symmetry_equiv_pos_site_id
_symmetry_equiv_pos_as_xyz
1 x,y,z
2 -x,1/2+y,1/2-z
3 -x,-y,-z
4 x,1/2-y,1/2+z
_cell_length_a                   11.3653(10)
_cell_length_b                   8.8027(8)
_cell_length_c                   26.090(2)
_cell_angle_alpha                90
_cell_angle_beta                 102.322(2)
_cell_angle_gamma                90
_cell_volume                     2550.05
loop_
_atom_site_label
_atom_site_type_symbol
_atom_site_fract_x
_atom_site_fract_y
_atom_site_fract_z
Co1 Co 0.37585(4) 0.91405(5) 0.241157(16)
Co2 Co 0.12076(4) 0.85916(5) 0.287431(17)
C1 C 0.1689(3) 0.7636(4) 0.70752(13)
C2 C 0.1905(3) 0.8426(4) 0.66017(12)
C3 C 0.1113(3) 0.8213(4) 0.61263(14)
H1 H 0.0489 0.7515 0.6101
C4 C 0.1239(3) 0.9025(4) 0.56887(14)
H2 H 0.0715 0.8872 0.5367
C5 C 0.2164(3) 1.0072(4) 0.57406(13)
C6 C 0.2981(3) 1.0273(4) 0.62047(13)
H3 H 0.3602 1.0974 0.6228
C7 C 0.2873(3) 0.9420(4) 0.66404(12)
C8 C 0.3864(3) 0.9425(4) 0.71275(12)
C9 C 0.3717(3) 0.8582(4) 0.35493(13)
C10 C 0.3303(3) 0.9302(4) 0.40094(13)
C11 C 0.3734(3) 0.8674(4) 0.44954(14)
H4 H 0.4280 0.7876 0.4523
C12 C 0.3393(3) 0.9177(4) 0.49462(14)
H5 H 0.3689 0.8725 0.5270
C13 C 0.2597(3) 1.0372(4) 0.48922(13)
C14 C 0.2165(3) 1.1051(4) 0.44132(12)
H6 H 0.1646 1.1876 0.4391
C15 C 0.2497(3) 1.0517(4) 0.39633(12)
C16 C 0.1933(3) 1.1321(4) 0.34555(13)
C17 C 0.3222(3) 1.0195(4) 0.12894(14)
H7 H 0.2546 1.0598 0.1388
C18 C 0.3368(3) 1.0452(4) 0.07869(14)
H8 H 0.2801 1.1020 0.0555
C19 C 0.4365(3) 0.9861(4) 0.06248(13)
C20 C 0.5163(3) 0.9020(4) 0.09922(15)
H9 H 0.5840 0.8587 0.0904
C21 C 0.4951(3) 0.8829(4) 0.14828(15)
H10 H 0.5505 0.8266 0.1723
C22 C 0.4539(3) 1.0196(4) 0.00982(14)
H11 H 0.3931 1.0743 -0.0120
C23 C 0.0372(3) 0.4829(4) 0.48446(14)
H12 H 0.0822 0.3944 0.4921
C24 C 0.0551(3) 0.5715(4) 0.43924(14)
C25 C -0.0077(3) 0.7026(4) 0.42218(14)
H13 H -0.0647 0.7394 0.4398
C26 C 0.0139(3) 0.7791(4) 0.37905(15)
H14 H -0.0301 0.8668 0.3683
C27 C 0.1554(3) 0.6074(4) 0.36842(15)
H15 H 0.2121 0.5732 0.3501
C28 C 0.1392(3) 0.5251(4) 0.41074(15)
H16 H 0.1845 0.4378 0.4205
N1 N 0.3994(2) 0.9401(3) 0.16408(11)
N2 N 0.0949(2) 0.7334(3) 0.35194(11)
O1 O 0.1432(2) 0.8390(3) 0.74417(9)
O2 O 0.3284(2) 1.1478(3) 0.23943(10)
H17 H 0.3997 1.2074 0.2515
H18 H 0.2731 1.1645 0.2620
O3 O 0.1754(2) 0.6198(3) 0.71068(9)
O4 O -0.0621(2) 0.8699(3) 0.25421(10)
H19 H -0.1036 0.9154 0.2788
H20 H -0.0924 0.7690 0.2459
O5 O 0.40894(19) 0.8224(2) 0.73787(9)
O6 O 0.4454(2) 1.0643(2) 0.72330(9)
O7 O 0.2221(2) 1.1012(3) 0.53159(9)
O8 O 0.31010(19) 0.8961(3) 0.30863(9)
O9 O 0.4570(2) 0.7735(3) 0.36334(10)
O10 O 0.1067(2) 1.0682(3) 0.31516(9)
O11 O 0.2291(3) 1.2592(3) 0.33833(11)
Co1B Co -0.37585(4) 0.08595(5) 0.758843(16)
Co1_2 Co -0.62415(4) -0.08595(5) 0.241157(16)
Co1A Co -0.37585(4) 0.41405(5) 0.258843(16)
Co1B_2 Co 0.62415(4) 1.08595(5) -0.241157(16)
Co1B_3 Co 0.62415(4) 1.08595(5) 0.758843(16)
Co1C Co 0.37585(4) 0.58595(5) 0.741157(16)
Co2B Co -0.12076(4) 0.14084(5) 0.712569(17)
Co2A Co -0.12076(4) 0.35916(5) 0.212569(17)
Co2C Co 0.12076(4) 0.64084(5) 0.787431(17)
C1B C -0.1689(3) 0.2364(4) 0.29248(13)
C2B C -0.1905(3) 0.1574(4) 0.33983(12)
C3B C -0.1113(3) 0.1787(4) 0.38737(14)
H1B H -0.0489 0.2485 0.3899
C4B C -0.1239(3) 0.0975(4) 0.43113(14)
H2B H -0.0715 0.1128 0.4633
C5B C -0.2164(3) -0.0072(4) 0.42594(13)
C6B C -0.2981(3) -0.0273(4) 0.37953(13)
H3B H -0.3602 -0.0974 0.3772
C7B C -0.2873(3) 0.0580(4) 0.33596(12)
C8B C -0.3864(3) 0.0575(4) 0.28725(12)
C9B C -0.3717(3) 0.1418(4) 0.64507(13)
C10B C -0.3303(3) 0.0698(4) 0.59906(13)
C11B C -0.3734(3) 0.1326(4) 0.55046(14)
H4B H -0.4280 0.2124 0.5477
C12B C -0.3393(3) 0.0823(4) 0.50538(14)
H5B H -0.3689 0.1275 0.4730
C13B C -0.2597(3) -0.0372(4) 0.51078(13)
C14B C -0.2165(3) -0.1051(4) 0.55868(12)
H6B H -0.1646 -0.1876 0.5609
C15B C -0.2497(3) -0.0517(4) 0.60367(12)
C16B C -0.1933(3) -0.1321(4) 0.65445(13)
C17B C 0.6778(3) 0.9805(4) -0.12894(14)
H7B H 0.7454 0.9402 -0.1388
C18B C 0.6632(3) 0.9548(4) -0.07869(14)
H8B H 0.7199 0.8980 -0.0555
C19B C 0.5635(3) 1.0139(4) -0.06248(13)
C20B C 0.4837(3) 1.0980(4) -0.09922(15)
H9B H 0.4160 1.1413 -0.0904
C21B C 0.5049(3) 1.1171(4) -0.14828(15)
H10B H 0.4495 1.1734 -0.1723
C22B C 0.5461(3) 0.9804(4) -0.00982(14)
H11B H 0.6069 0.9257 0.0120
C23B C -0.0372(3) 0.5171(4) 0.51554(14)
H12B H -0.0822 0.6056 0.5079
C24B C -0.0551(3) 0.4285(4) 0.56076(14)
C25B C 0.0077(3) 0.2974(4) 0.57782(14)
H13B H 0.0647 0.2606 0.5602
C26B C -0.0139(3) 0.2209(4) 0.62095(15)
H14B H 0.0301 0.1332 0.6317
C27B C -0.1554(3) 0.3926(4) 0.63158(15)
H15B H -0.2121 0.4268 0.6499
C28B C -0.1392(3) 0.4749(4) 0.58926(15)
H16B H -0.1845 0.5622 0.5795
N1B N 0.6006(2) 1.0599(3) -0.16408(11)
N1B_2 N -0.3994(2) 0.0599(3) 0.83592(11)
N2B N -0.0949(2) 0.2666(3) 0.64806(11)
O1B O -0.1432(2) 0.1610(3) 0.25583(9)
O1A O -0.1432(2) 0.3390(3) 0.75583(9)
O1C O 0.1432(2) 0.6610(3) 0.24417(9)
O2B O -0.3284(2) -0.1478(3) 0.76057(10)
H17B H -0.3997 -0.2074 0.7485
H18B H -0.2731 -0.1645 0.7380
O3B O -0.1754(2) 0.3802(3) 0.28932(9)
O3A O -0.1754(2) 0.1198(3) 0.78932(9)
O3C O 0.1754(2) 0.8802(3) 0.21068(9)
O4B O 0.0621(2) 0.1301(3) 0.74579(10)
H19B H 0.1036 0.0846 0.7212
H20B H 0.0924 0.2310 0.7541
O5B O -0.40894(19) 0.1776(2) 0.26213(9)
O5A O -0.40894(19) 0.3224(2) 0.76213(9)
O5C O 0.40894(19) 0.6776(2) 0.23787(9)
O6B O -0.4454(2) -0.0643(2) 0.27670(9)
O6_2 O -0.5546(2) 0.0643(2) 0.72330(9)
O6B_2 O 0.5546(2) 0.9357(2) 0.27670(9)
O7B O -0.2221(2) -0.1012(3) 0.46841(9)
O8B O -0.31010(19) 0.1039(3) 0.69137(9)
O9B O -0.4570(2) 0.2265(3) 0.63666(10)
O10B O -0.1067(2) -0.0682(3) 0.68484(9)
O11B O -0.2291(3) -0.2592(3) 0.66167(11)
loop_
_geom_bond_atom_site_label_1
_geom_bond_atom_site_label_2
_geom_bond_site_symmetry_1
_geom_bond_site_symmetry_2
Co1 N1 1_555 1_555
Co2 N2 1_555 1_555
C1 C2 1_555 1_555
C2 C3 1_555 1_555
C3 H1 1_555 1_555
C4 C3 1_555 1_555
H2 C4 1_555 1_555
C5 C4 1_555 1_555
C6 C5 1_555 1_555
H3 C6 1_555 1_555
C7 C2 1_555 1_555
C8 C7 1_555 1_555
C9 C10 1_555 1_555
C10 C11 1_555 1_555
C11 H4 1_555 1_555
C12 C11 1_555 1_555
H5 C12 1_555 1_555
C13 C12 1_555 1_555
C14 C13 1_555 1_555
H6 C14 1_555 1_555
C15 C10 1_555 1_555
C16 C15 1_555 1_555
C17 H7 1_555 1_555
C18 C17 1_555 1_555
H8 C18 1_555 1_555
C19 C18 1_555 1_555
C20 C19 1_555 1_555
H9 C20 1_555 1_555
C21 C20 1_555 1_555
H10 C21 1_555 1_555
C22 C19 1_555 1_555
H11 C22 1_555 1_555
C23 H12 1_555 1_555
C24 C23 1_555 1_555
C25 C24 1_555 1_555
H13 C25 1_555 1_555
C26 C25 1_555 1_555
H14 C26 1_555 1_555
C27 H15 1_555 1_555
C28 C24 1_555 1_555
H16 C28 1_555 1_555
N1 C17 1_555 1_555
N2 C26 1_555 1_555
O1 C1 1_555 1_555
O2 Co1 1_555 1_555
H17 O2 1_555 1_555
H18 O2 1_555 1_555
O3 C1 1_555 1_555
O4 Co2 1_555 1_555
H19 O4 1_555 1_555
H20 O4 1_555 1_555
O5 C8 1_555 1_555
O6 C8 1_555 1_555
O7 C5 1_555 1_555
O8 Co1 1_555 1_555
O9 C9 1_555 1_555
O10 Co2 1_555 1_555
O11 C16 1_555 1_555
Co1B N1B_2 1_555 1_555
Co1_2 O6B 1_555 1_555
Co1A O3B 1_555 1_555
Co1B_2 N1B 1_555 1_555
Co1B_3 O6 1_555 1_555
Co1C O3 1_555 1_555
Co2B N2B 1_555 1_555
Co2A O1B 1_555 1_555
Co2C O1 1_555 1_555
C1B C2B 1_555 1_555
C2B C3B 1_555 1_555
C3B H1B 1_555 1_555
C4B C3B 1_555 1_555
H2B C4B 1_555 1_555
C5B C4B 1_555 1_555
C6B C5B 1_555 1_555
H3B C6B 1_555 1_555
C7B C2B 1_555 1_555
C8B C7B 1_555 1_555
C9B C10B 1_555 1_555
C10B C11B 1_555 1_555
C11B H4B 1_555 1_555
C12B C11B 1_555 1_555
H5B C12B 1_555 1_555
C13B C12B 1_555 1_555
C14B C13B 1_555 1_555
H6B C14B 1_555 1_555
C15B C10B 1_555 1_555
C16B C15B 1_555 1_555
C17B H7B 1_555 1_555
C18B C17B 1_555 1_555
H8B C18B 1_555 1_555
C19B C18B 1_555 1_555
C20B C19B 1_555 1_555
H9B C20B 1_555 1_555
C21B C20B 1_555 1_555
H10B C21B 1_555 1_555
C22B C22 1_555 1_555
H11B C22B 1_555 1_555
C23B C23 1_555 1_555
H12B C23B 1_555 1_555
C24B C23B 1_555 1_555
C25B C24B 1_555 1_555
H13B C25B 1_555 1_555
C26B C25B 1_555 1_555
H14B C26B 1_555 1_555
C27B H15B 1_555 1_555
C28B C24B 1_555 1_555
H16B C28B 1_555 1_555
N1B C17B 1_555 1_555
N2B C26B 1_555 1_555
O1B C1B 1_555 1_555
O1A Co2B 1_555 1_555
O1C Co2 1_555 1_555
O2B Co1B 1_555 1_555
H17B O2B 1_555 1_555
H18B O2B 1_555 1_555
O3B Co2A 1_555 1_555
O3A Co1B 1_555 1_555
O3C Co1 1_555 1_555
O4B Co2B 1_555 1_555
H19B O4B 1_555 1_555
H20B O4B 1_555 1_555
O5B Co1A 1_555 1_555
O5A Co1B 1_555 1_555
O5C Co1 1_555 1_555
O6B C8B 1_555 1_555
O6_2 Co1B 1_555 1_555
O6B_2 Co1 1_555 1_555
O7B C5B 1_555 1_555
O8B Co1B 1_555 1_555
O9B C9B 1_555 1_555
O10B Co2B 1_555 1_555
O11B C16B 1_555 1_555
Co2 O8 1_555 1_555
Co2 O3C 1_555 1_555
C6 C7 1_555 1_555
C9 O8 1_555 1_555
C13 O7 1_555 1_555
C14 C15 1_555 1_555
C16 O10 1_555 1_555
C21 N1 1_555 1_555
C27 C28 1_555 1_555
C27 N2 1_555 1_555
O3 Co2C 1_555 1_555
O5 Co1C 1_555 1_555
Co2B O3A 1_555 1_555
Co2B O8B 1_555 1_555
C1B O3B 1_555 1_555
C6B C7B 1_555 1_555
C8B O5B 1_555 1_555
C9B O8B 1_555 1_555
C13B O7B 1_555 1_555
C14B C15B 1_555 1_555
C16B O10B 1_555 1_555
C19B C22B 1_555 1_555
C21B N1B 1_555 1_555
C27B C28B 1_555 1_555
C27B N2B 1_555 1_555

#END
