
#######################################################################
#
#                 Cambridge Crystallographic Data Centre
#                                CCDC 
#
#######################################################################
#
# If this CIF has been generated from an entry in the Cambridge 
# Structural Database, then it will include bibliographic, chemical, 
# crystal, experimental, refinement or atomic coordinate data resulting 
# from the CCDC's data processing and validation procedures.
#
#######################################################################

data_AXOHOK
_symmetry_cell_setting           monoclinic
_symmetry_space_group_name_H-M   'P 21/n'
_symmetry_Int_Tables_number      14
_space_group_name_Hall           '-P 2yn'
loop_
_symmetry_equiv_pos_site_id
_symmetry_equiv_pos_as_xyz
1 x,y,z
2 1/2+x,1/2-y,1/2+z
3 -x,-y,-z
4 1/2-x,1/2+y,1/2-z
_cell_length_a                   6.98960(10)
_cell_length_b                   22.62940(10)
_cell_length_c                   19.7738(3)
_cell_angle_alpha                90
_cell_angle_beta                 99.3800(10)
_cell_angle_gamma                90
_cell_volume                     3085.81
loop_
_atom_site_label
_atom_site_type_symbol
_atom_site_fract_x
_atom_site_fract_y
_atom_site_fract_z
Cd1 Cd -0.28162(4) 0.085605(13) 0.771470(15)
Cd2 Cd 0.20572(4) 0.000643(13) 0.753953(15)
O1 O -0.0118(4) 0.03266(12) 0.83326(14)
O2 O -0.0899(5) 0.11593(13) 0.87862(15)
N1 N -0.4784(6) 0.16360(16) 0.7855(2)
C1 C 0.1918(6) -0.00212(17) 0.9662(2)
H1 H 0.1488 -0.0329 0.9364
O3 O -0.6649(6) -0.02470(18) 0.66308(18)
C2 C 0.0095(6) 0.06916(18) 0.8825(2)
O4 O -0.1454(6) 0.14201(17) 0.6977(2)
C3 C 0.1455(6) 0.05627(18) 0.9473(2)
C4 C -0.5243(8) 0.0012(2) 0.6453(2)
C5 C -0.5085(7) -0.00050(19) 0.5699(2)
C6 C 0.2157(7) 0.10184(19) 0.9916(2)
H2 H 0.1849 0.1408 0.9796
C7 C 0.3306(7) 0.08933(19) 1.0532(2)
H3 H 0.3814 0.1201 1.0819
C8 C 0.0859(8) 0.1621(2) 0.6260(2)
C9 C 0.3011(6) -0.01406(18) 1.0292(2)
H4 H 0.3279 -0.0531 1.0423
C10 C -0.5780(8) 0.1665(2) 0.8371(3)
H5 H -0.5701 0.1348 0.8674
C11 C -0.4950(7) 0.2093(2) 0.7424(3)
H6 H -0.4252 0.2086 0.7061
C12 C 0.3397(9) 0.1799(2) 0.5596(3)
H7 H 0.4546 0.1679 0.5457
C13 C -0.3625(8) 0.0295(2) 0.5453(3)
H8 H -0.2692 0.0498 0.5754
O5 O 0.1041(8) 0.08212(18) 0.7015(3)
C14 C 0.0072(8) 0.1257(2) 0.6792(3)
C15 C 0.2560(9) 0.1453(2) 0.6042(3)
H9 H 0.3152 0.1100 0.6199
C16 C -0.6452(8) -0.0294(3) 0.5242(3)
H10 H -0.7452 -0.0493 0.5401
C17 C -0.0036(8) 0.2136(2) 0.6000(3)
H11 H -0.1204 0.2250 0.6128
C18 C 0.0792(9) 0.2486(2) 0.5548(3)
H12 H 0.0175 0.2831 0.5375
O6 O 0.2652(6) 0.31969(17) 0.4707(2)
C19 C 0.3714(6) 0.03123(18) 1.0732(2)
O7 O 0.5082(7) 0.25722(18) 0.4746(3)
C20 C 0.2539(8) 0.2321(2) 0.5356(3)
C21 C -0.7120(8) 0.2608(2) 0.8030(4)
C22 C 0.3553(9) 0.2700(2) 0.4903(3)
C23 C -0.6920(9) 0.2138(3) 0.8481(3)
H13 H -0.7557 0.2142 0.8859
C24 C -0.6108(8) 0.2574(2) 0.7490(4)
H14 H -0.6206 0.2878 0.7170
C25 C -1.0503(9) 0.2906(3) 0.8058(4)
H15 H -1.0633 0.2695 0.8475
H16 H -1.0785 0.2631 0.7677
C26 C -0.8484(9) 0.3123(3) 0.8104(5)
H17 H -0.8085 0.3316 0.8542
H18 H -0.8417 0.3410 0.7744
O8 O -0.3952(6) 0.02934(17) 0.68384(18)
C27 C 0.5049(6) 0.01945(19) 1.1391(2)
O9 O 0.6196(5) 0.05883(14) 1.16365(16)
O10 O 0.5052(4) -0.03195(13) 1.16697(15)
C28 C -1.1945(8) 0.3407(2) 0.7955(3)
C29 C -1.2720(9) 0.3660(3) 0.8482(3)
H19 H -1.2321 0.3533 0.8930
C30 C -1.2523(9) 0.3639(3) 0.7319(3)
H20 H -1.1988 0.3495 0.6951
C31 C -1.3881(9) 0.4083(2) 0.7211(3)
H21 H -1.4256 0.4226 0.6769
N2 N -1.4683(6) 0.43148(16) 0.7718(2)
C32 C -1.4100(8) 0.4107(2) 0.8347(3)
H22 H -1.4631 0.4265 0.8709
C16B C -0.3548(8) 0.0294(3) 0.4758(3)
C5B C -0.4915(7) 0.00050(19) 0.4301(2)
C4B C -0.4757(8) -0.0012(2) 0.3547(2)
O3B O -0.3351(6) 0.02470(18) 0.33692(18)
O8B O -0.6048(6) -0.02934(17) 0.31616(18)
C13B C -0.6375(8) -0.0295(2) 0.4547(3)
H8B H -0.7308 -0.0498 0.4246
H10B H -0.2548 0.0493 0.4599
O1B O 0.0118(4) -0.03266(12) 1.16674(14)
O2B O 0.0899(5) -0.11593(13) 1.12138(15)
C1B C -0.1918(6) 0.00212(17) 1.0338(2)
H1B H -0.1488 0.0329 1.0636
C2B C -0.0095(6) -0.06916(18) 1.1175(2)
C3B C -0.1455(6) -0.05627(18) 1.0527(2)
C6B C -0.2157(7) -0.10184(19) 1.0084(2)
H2B H -0.1849 -0.1408 1.0204
C7B C -0.3306(7) -0.08933(19) 0.9468(2)
H3B H -0.3814 -0.1201 0.9181
C9B C -0.3011(6) 0.01406(18) 0.9708(2)
H4B H -0.3279 0.0531 0.9577
C19B C -0.3714(6) -0.03123(18) 0.9268(2)
C27B C -0.5049(6) -0.01945(19) 0.8609(2)
O9B O -0.6196(5) -0.05883(14) 0.83635(16)
O10B O -0.5052(4) 0.03195(13) 0.83303(15)
Cd1B Cd 0.28162(4) -0.085605(13) 1.228530(15)
Cd2B Cd -0.20572(4) -0.000643(13) 1.246047(15)
N1C N -1.0216(6) -0.33640(16) 0.7145(2)
C10C C -0.9220(8) -0.3335(2) 0.6629(3)
H5C H -0.9299 -0.3652 0.6326
C11C C -1.0050(7) -0.2907(2) 0.7576(3)
H6C H -1.0748 -0.2914 0.7939
C21C C -0.7880(8) -0.2392(2) 0.6970(4)
C23C C -0.8080(9) -0.2862(3) 0.6519(3)
H13C H -0.7443 -0.2858 0.6141
C24C C -0.8892(8) -0.2426(2) 0.7510(4)
H14C H -0.8794 -0.2122 0.7830
C25C C -0.4497(9) -0.2094(3) 0.6942(4)
H15C H -0.4367 -0.2305 0.6525
H16C H -0.4215 -0.2369 0.7323
C26C C -0.6516(9) -0.1877(3) 0.6896(5)
H17C H -0.6915 -0.1684 0.6458
H18C H -0.6583 -0.1590 0.7256
C28C C -0.3055(8) -0.1593(2) 0.7045(3)
C29C C -0.2280(9) -0.1340(3) 0.6518(3)
H19C H -0.2679 -0.1467 0.6070
C30C C -0.2477(9) -0.1361(3) 0.7681(3)
H20C H -0.3012 -0.1505 0.8049
C31C C -0.1119(9) -0.0917(2) 0.7789(3)
H21C H -0.0744 -0.0774 0.8231
N2C N -0.0317(6) -0.06852(16) 0.7282(2)
C32C C -0.0900(8) -0.0893(2) 0.6653(3)
H22C H -0.0369 -0.0735 0.6291
O4B O 0.1454(6) -0.14201(17) 1.3023(2)
C8B C -0.0859(8) -0.1621(2) 1.3740(2)
C12B C -0.3397(9) -0.1799(2) 1.4404(3)
H7B H -0.4546 -0.1679 1.4543
O5B O -0.1041(8) -0.08212(18) 1.2985(3)
C14B C -0.0072(8) -0.1257(2) 1.3208(3)
C15B C -0.2560(9) -0.1453(2) 1.3958(3)
H9B H -0.3152 -0.1100 1.3801
C17B C 0.0036(8) -0.2136(2) 1.4000(3)
H11B H 0.1204 -0.2250 1.3872
C18B C -0.0792(9) -0.2486(2) 1.4452(3)
H12B H -0.0175 -0.2831 1.4625
O6B O -0.2652(6) -0.31969(17) 1.5293(2)
O7B O -0.5082(7) -0.25722(18) 1.5254(3)
C20B C -0.2539(8) -0.2321(2) 1.4644(3)
C22B C -0.3553(9) -0.2700(2) 1.5097(3)
O3_2 O 0.3351(6) -0.02470(18) 0.66308(18)
O9B_2 O 0.3804(5) -0.05883(14) 0.83635(16)
O10B_2 O 0.4948(4) 0.03195(13) 0.83303(15)
Cd2_2 Cd -0.79428(4) 0.000643(13) 0.753953(15)
Cd2B_2 Cd 0.79428(4) -0.000643(13) 1.246047(15)
Cd2C Cd -1.70572(4) 0.500643(13) 0.746047(15)
Cd2B_3 Cd -0.20572(4) -0.000643(13) 0.246047(15)
Cd1B_2 Cd -0.71838(4) -0.085605(13) 0.228530(15)
N1B N 0.4784(6) -0.16360(16) 1.2145(2)
O8B_2 O 0.3952(6) -0.02934(17) 1.31616(18)
O3B_2 O -0.3351(6) 0.02470(18) 1.33692(18)
O9_2 O -0.3804(5) 0.05883(14) 1.16365(16)
O10_2 O -0.4948(4) -0.03195(13) 1.16697(15)
N2A N 0.0317(6) 0.06852(16) 1.2718(2)
Cd1C Cd -1.21838(4) -0.414395(13) 0.728530(15)
loop_
_geom_bond_atom_site_label_1
_geom_bond_atom_site_label_2
_geom_bond_site_symmetry_1
_geom_bond_site_symmetry_2
Cd1 O1 1_555 1_555
Cd2 O1 1_555 1_555
O1 C2 1_555 1_555
O2 Cd1 1_555 1_555
N1 Cd1 1_555 1_555
C1 H1 1_555 1_555
O3 C4 1_555 1_555
C2 O2 1_555 1_555
O4 Cd1 1_555 1_555
C3 C1 1_555 1_555
C4 C5 1_555 1_555
C5 C13 1_555 1_555
C6 C3 1_555 1_555
H2 C6 1_555 1_555
C7 C6 1_555 1_555
H3 C7 1_555 1_555
C8 C14 1_555 1_555
C9 C1 1_555 1_555
H4 C9 1_555 1_555
C10 N1 1_555 1_555
H5 C10 1_555 1_555
C11 N1 1_555 1_555
H6 C11 1_555 1_555
C12 H7 1_555 1_555
C13 H8 1_555 1_555
O5 Cd2 1_555 1_555
C14 O4 1_555 1_555
C15 C8 1_555 1_555
H9 C15 1_555 1_555
C16 C5 1_555 1_555
H10 C16 1_555 1_555
C17 C8 1_555 1_555
H11 C17 1_555 1_555
C18 C17 1_555 1_555
H12 C18 1_555 1_555
O6 C22 1_555 1_555
C19 C7 1_555 1_555
O7 C22 1_555 1_555
C20 C12 1_555 1_555
C21 C23 1_555 1_555
C22 C20 1_555 1_555
C23 C10 1_555 1_555
H13 C23 1_555 1_555
C24 C11 1_555 1_555
H14 C24 1_555 1_555
C25 H15 1_555 1_555
H16 C25 1_555 1_555
C26 C21 1_555 1_555
H17 C26 1_555 1_555
H18 C26 1_555 1_555
O8 Cd1 1_555 1_555
C27 C19 1_555 1_555
O9 C27 1_555 1_555
O10 C27 1_555 1_555
C28 C25 1_555 1_555
C29 C28 1_555 1_555
H19 C29 1_555 1_555
C30 C28 1_555 1_555
H20 C30 1_555 1_555
C31 C30 1_555 1_555
H21 C31 1_555 1_555
N2 C31 1_555 1_555
C32 C29 1_555 1_555
H22 C32 1_555 1_555
C16B C13 1_555 1_555
C5B C16B 1_555 1_555
C4B C5B 1_555 1_555
O3B C4B 1_555 1_555
O8B C4B 1_555 1_555
C13B C16 1_555 1_555
H8B C13B 1_555 1_555
H10B C16B 1_555 1_555
O1B C2B 1_555 1_555
O2B C2B 1_555 1_555
C1B H1B 1_555 1_555
C2B C3B 1_555 1_555
C3B C1B 1_555 1_555
C6B C3B 1_555 1_555
H2B C6B 1_555 1_555
C7B C6B 1_555 1_555
H3B C7B 1_555 1_555
C9B C1B 1_555 1_555
H4B C9B 1_555 1_555
C19B C7B 1_555 1_555
C27B C19B 1_555 1_555
O9B C27B 1_555 1_555
O10B Cd1 1_555 1_555
Cd1B O10 1_555 1_555
Cd2B O1B 1_555 1_555
N1C C10C 1_555 1_555
C10C H5C 1_555 1_555
C11C N1C 1_555 1_555
H6C C11C 1_555 1_555
C21C C23C 1_555 1_555
C23C C10C 1_555 1_555
H13C C23C 1_555 1_555
C24C C11C 1_555 1_555
H14C C24C 1_555 1_555
C25C H15C 1_555 1_555
H16C C25C 1_555 1_555
C26C C21C 1_555 1_555
H17C C26C 1_555 1_555
H18C C26C 1_555 1_555
C28C C25C 1_555 1_555
C29C C28C 1_555 1_555
H19C C29C 1_555 1_555
C30C C28C 1_555 1_555
H20C C30C 1_555 1_555
C31C C30C 1_555 1_555
H21C C31C 1_555 1_555
N2C Cd2 1_555 1_555
C32C C29C 1_555 1_555
H22C C32C 1_555 1_555
O4B Cd1B 1_555 1_555
C8B C14B 1_555 1_555
C12B H7B 1_555 1_555
O5B Cd2B 1_555 1_555
C14B O4B 1_555 1_555
C15B C8B 1_555 1_555
H9B C15B 1_555 1_555
C17B C8B 1_555 1_555
H11B C17B 1_555 1_555
C18B C17B 1_555 1_555
H12B C18B 1_555 1_555
O6B C22B 1_555 1_555
O7B C22B 1_555 1_555
C20B C12B 1_555 1_555
C22B C20B 1_555 1_555
O3_2 Cd2 1_555 1_555
O9B_2 Cd2 1_555 1_555
O10B_2 Cd2 1_555 1_555
Cd2_2 O3 1_555 1_555
Cd2B_2 O9 1_555 1_555
Cd2C N2 1_555 1_555
Cd2B_3 O3B 1_555 1_555
Cd1B_2 O8B 1_555 1_555
N1B Cd1B 1_555 1_555
O8B_2 Cd1B 1_555 1_555
O3B_2 Cd2B 1_555 1_555
O9_2 Cd2B 1_555 1_555
O10_2 Cd2B 1_555 1_555
N2A Cd2B 1_555 1_555
Cd1C N1C 1_555 1_555
C2 C3 1_555 1_555
C4 O8 1_555 1_555
C9 C19 1_555 1_555
C12 C15 1_555 1_555
O5 C14 1_555 1_555
C18 C20 1_555 1_555
C21 C24 1_555 1_555
C25 C26 1_555 1_555
O10 Cd2B_2 1_555 1_555
N2 C32 1_555 1_555
C5B C13B 1_555 1_555
O1B Cd1B 1_555 1_555
O2B Cd1B 1_555 1_555
C9B C19B 1_555 1_555
C27B O10B 1_555 1_555
O9B Cd2_2 1_555 1_555
O10B Cd2_2 1_555 1_555
C21C C24C 1_555 1_555
C25C C26C 1_555 1_555
C31C N2C 1_555 1_555
N2C C32C 1_555 1_555
C12B C15B 1_555 1_555
O5B C14B 1_555 1_555
C18B C20B 1_555 1_555

#END
