
#######################################################################
#
#                 Cambridge Crystallographic Data Centre
#                                CCDC 
#
#######################################################################
#
# If this CIF has been generated from an entry in the Cambridge 
# Structural Database, then it will include bibliographic, chemical, 
# crystal, experimental, refinement or atomic coordinate data resulting 
# from the CCDC's data processing and validation procedures.
#
#######################################################################

data_AXOVIT
_symmetry_cell_setting           monoclinic
_symmetry_space_group_name_H-M   'C 2/c'
_symmetry_Int_Tables_number      15
_space_group_name_Hall           '-C 2yn'
loop_
_symmetry_equiv_pos_site_id
_symmetry_equiv_pos_as_xyz
1 x,y,z
2 -x,y,1/2-z
3 1/2+x,1/2+y,z
4 1/2-x,1/2+y,1/2-z
5 -x,-y,-z
6 x,-y,1/2+z
7 1/2-x,1/2-y,-z
8 1/2+x,1/2-y,1/2+z
_cell_length_a                   26.943(2)
_cell_length_b                   7.2476(6)
_cell_length_c                   6.9261(5)
_cell_angle_alpha                90
_cell_angle_beta                 97.703(2)
_cell_angle_gamma                90
_cell_volume                     1340.27
loop_
_atom_site_label
_atom_site_type_symbol
_atom_site_fract_x
_atom_site_fract_y
_atom_site_fract_z
Mn1 Mn 0.2500 0.7500 0.0000
O1 O 0.0000 0.8255(2) 0.2500
O2 O 0.21209(4) 0.33697(13) 0.21582(17)
O3 O 0.19208(4) 0.63223(14) 0.14824(16)
C1 C 0.09294(5) 0.57709(19) 0.2192(2)
H1 H 0.1034 0.7017 0.2112
C2 C 0.12705(5) 0.43129(18) 0.2148(2)
C3 C 0.11108(5) 0.24814(19) 0.2289(2)
H2 H 0.1348 0.1512 0.2301
C4 C 0.06095(5) 0.2049(2) 0.2411(3)
H3 H 0.0503 0.0804 0.2476
C5 C 0.02732(5) 0.34959(19) 0.2433(2)
C6 C 0.04362(5) 0.53403(18) 0.2356(2)
C7 C 0.0000 0.6581(3) 0.2500
C8 C 0.18054(5) 0.47134(18) 0.1920(2)
O4 O 0.28846(4) 0.48028(14) 0.03761(19)
H4 H 0.2971(8) 0.413(3) -0.048(4)
H5 H 0.2719(9) 0.408(4) 0.104(4)
Mn1B Mn -0.2500 0.2500 0.0000
Mn1C Mn 0.2500 0.2500 0.5000
Mn1A Mn -0.2500 0.7500 0.5000
O2A O -0.21209(4) 0.33697(13) 0.28418(17)
O2C O 0.28791(4) 0.83697(13) 0.28418(17)
O2E O 0.21209(4) 0.66303(13) -0.28418(17)
O3A O -0.19208(4) 0.63223(14) 0.35176(16)
O3F O 0.30792(4) 0.86777(14) -0.14824(16)
C1A C -0.09294(5) 0.57709(19) 0.2808(2)
H1A H -0.1034 0.7017 0.2888
C2A C -0.12705(5) 0.43129(18) 0.2852(2)
C3A C -0.11108(5) 0.24814(19) 0.2711(2)
H2A H -0.1348 0.1512 0.2699
C4A C -0.06095(5) 0.2049(2) 0.2589(3)
H3A H -0.0503 0.0804 0.2524
C5A C -0.02732(5) 0.34959(19) 0.2567(2)
C6A C -0.04362(5) 0.53403(18) 0.2644(2)
C8A C -0.18054(5) 0.47134(18) 0.3080(2)
O4F O 0.21154(4) 1.01972(14) -0.03761(19)
H4F H 0.2029(8) 1.087(3) 0.048(4)
H5F H 0.2281(9) 1.092(4) -0.104(4)
loop_
_geom_bond_atom_site_label_1
_geom_bond_atom_site_label_2
_geom_bond_site_symmetry_1
_geom_bond_site_symmetry_2
Mn1 O3 1_555 1_555
O1 C7 1_555 1_555
O2 C8 1_555 1_555
O3 C8 1_555 1_555
C1 H1 1_555 1_555
C2 C1 1_555 1_555
C3 C2 1_555 1_555
H2 C3 1_555 1_555
C4 C3 1_555 1_555
H3 C4 1_555 1_555
C5 C4 1_555 1_555
C6 C1 1_555 1_555
C7 C6 1_555 1_555
C8 C2 1_555 1_555
O4 Mn1 1_555 1_555
H4 O4 1_555 1_555
H5 O4 1_555 1_555
Mn1B O2A 1_555 1_555
Mn1C O2 1_555 1_555
Mn1A O3A 1_555 1_555
O2A C8A 1_555 1_555
O2C Mn1 1_555 1_555
O2E Mn1 1_555 1_555
O3A C8A 1_555 1_555
O3F Mn1 1_555 1_555
C1A H1A 1_555 1_555
C2A C1A 1_555 1_555
C3A C2A 1_555 1_555
H2A C3A 1_555 1_555
C4A C3A 1_555 1_555
H3A C4A 1_555 1_555
C5A C5 1_555 1_555
C6A C7 1_555 1_555
C8A C2A 1_555 1_555
O4F Mn1 1_555 1_555
H4F O4F 1_555 1_555
H5F O4F 1_555 1_555
C5 C6 1_555 1_555
C1A C6A 1_555 1_555
C4A C5A 1_555 1_555
C5A C6A 1_555 1_555

#END
