
#######################################################################
#
#                 Cambridge Crystallographic Data Centre
#                                CCDC 
#
#######################################################################
#
# If this CIF has been generated from an entry in the Cambridge 
# Structural Database, then it will include bibliographic, chemical, 
# crystal, experimental, refinement or atomic coordinate data resulting 
# from the CCDC's data processing and validation procedures.
#
#######################################################################

data_AXUJIN
_symmetry_cell_setting           orthorhombic
_symmetry_space_group_name_H-M   'P n m a'
_symmetry_Int_Tables_number      62
_space_group_name_Hall           '-P 2ac 2n'
loop_
_symmetry_equiv_pos_site_id
_symmetry_equiv_pos_as_xyz
1 x,y,z
2 1/2-x,-y,1/2+z
3 -x,1/2+y,-z
4 1/2+x,1/2-y,1/2-z
5 -x,-y,-z
6 1/2+x,y,1/2-z
7 x,1/2-y,z
8 1/2-x,1/2+y,1/2+z
_cell_length_a                   22.313(3)
_cell_length_b                   18.798(3)
_cell_length_c                   12.0022(16)
_cell_angle_alpha                90
_cell_angle_beta                 90
_cell_angle_gamma                90
_cell_volume                     5034.2
loop_
_atom_site_label
_atom_site_type_symbol
_atom_site_fract_x
_atom_site_fract_y
_atom_site_fract_z
W1 W 0.50760(4) 0.15963(4) 0.87719(7)
W2 W 0.37831(4) 0.16147(4) 0.67869(7)
W3 W 0.36328(4) 0.06397(4) 0.94626(7)
W4 W 0.35333(4) 0.15117(4) 1.18250(7)
W5 W 0.49618(6) 0.2500 1.11784(10)
Cu1 Cu 0.24433(12) 0.15610(11) 1.0009(2)
Cu2 Cu 0.25563(16) 0.2500 0.7424(3)
Cu3 Cu 0.15429(18) 0.2500 0.8985(3)
Si1 Si 0.3748(4) 0.2500 0.9373(6)
O1 O 0.3610(7) 0.0959(6) 0.7948(11)
O2 O 0.2948(7) 0.1777(6) 0.6508(11)
O3 O 0.3765(6) 0.0659(6) 1.1063(11)
O4 O 0.2828(6) 0.0647(6) 0.9528(12)
O5 O 0.3598(7) 0.1231(7) 1.3185(12)
O6 O 0.5361(7) 0.1803(6) 1.0271(11)
O7 O 0.3955(7) 0.1038(6) 0.5737(11)
O8 O 0.2729(7) 0.1366(7) 1.1560(12)
O9 O 0.3511(6) 0.1805(6) 0.9957(11)
O10 O 0.4405(7) 0.3189(6) 1.1608(11)
O11 O 0.4597(7) 0.1676(6) 0.7474(11)
O12 O 0.5639(7) 0.1007(7) 0.8314(13)
O13 O 0.2170(7) 0.1831(6) 0.8452(11)
O14 O 0.3787(7) -0.0260(6) 0.9207(11)
O15 O 0.3976(10) 0.2500 0.6024(17)
O16 O 0.3432(8) 0.2500 1.2143(15)
O17 O 0.4502(7) 0.0977(6) 0.9354(11)
O18 O 0.4479(10) 0.2500 0.9490(16)
O19 O 0.2200(10) 0.2500 1.0477(15)
O20 O 0.0936(8) 0.1785(7) 0.9349(12)
O21 O 0.5458(10) 0.2500 0.8288(17)
O22 O 0.5463(11) 0.2500 1.2296(18)
O23 O 0.1565(8) 0.1028(9) 1.0248(16)
O24 O 0.3591(9) 0.2500 0.8074(15)
O25 O 0.1686(11) 0.0597(8) 0.7666(18)
N1 N -0.0003(8) 0.0393(9) 1.3362(15)
H1 H 0.0358 0.0316 1.3652
H2 H -0.0259 0.0069 1.3617
H3 H -0.0129 0.0825 1.3556
C1 C 0.1044(12) 0.1247(11) 0.9994(19)
C2 C 0.0527(11) 0.0805(11) 1.032(2)
H4 H 0.0569 0.0328 1.0017
H5 H 0.0159 0.1010 1.0031
C3 C 0.0516(13) 0.0784(15) 1.168(2)
H6 H 0.0896 0.0601 1.1950
H7 H 0.0471 0.1266 1.1963
C4 C 0.0031(12) 0.0345(12) 1.213(2)
H8 H 0.0096 -0.0147 1.1916
H9 H -0.0347 0.0498 1.1812
K1 K 0.1931(3) -0.0304(3) 0.9575(6)
K2 K 0.2955(7) 0.2500 0.4375(8)
Na1 Na 0.5102(6) 0.2500 0.6101(11)
O27 O 0.2250(11) -0.0015(9) 1.1816(17)
O28 O 0.2020(16) 0.1393(17) 0.442(3)
O30 O 0.4760(18) 0.2500 0.429(2)
W1F W 0.50760(4) 0.34037(4) 0.87719(7)
W2F W 0.37831(4) 0.33853(4) 0.67869(7)
W3F W 0.36328(4) 0.43603(4) 0.94626(7)
W4F W 0.35333(4) 0.34883(4) 1.18250(7)
Cu1F Cu 0.24433(12) 0.34390(11) 1.0009(2)
O1F O 0.3610(7) 0.4041(6) 0.7948(11)
O2F O 0.2948(7) 0.3223(6) 0.6508(11)
O3F O 0.3765(6) 0.4341(6) 1.1063(11)
O4F O 0.2828(6) 0.4353(6) 0.9528(12)
O5F O 0.3598(7) 0.3769(7) 1.3185(12)
O5A O 0.1402(7) -0.1231(7) 0.8185(12)
O5G O 0.1402(7) 0.6231(7) 0.8185(12)
O6F O 0.5361(7) 0.3197(6) 1.0271(11)
O7F O 0.3955(7) 0.3962(6) 0.5737(11)
O7A O 0.1045(7) -0.1038(6) 1.0737(11)
O7G O 0.1045(7) 0.6038(6) 1.0737(11)
O8F O 0.2729(7) 0.3634(7) 1.1560(12)
O9F O 0.3511(6) 0.3195(6) 0.9957(11)
O10F O 0.4405(7) 0.1811(6) 1.1608(11)
O11F O 0.4597(7) 0.3324(6) 0.7474(11)
O12F O 0.5639(7) 0.3993(7) 0.8314(13)
O13F O 0.2170(7) 0.3169(6) 0.8452(11)
O14F O 0.3787(7) 0.5260(6) 0.9207(11)
O16_2 O 0.3432(8) 0.2500 0.2143(15)
O17F O 0.4502(7) 0.4023(6) 0.9354(11)
O20F O 0.0936(8) 0.3215(7) 0.9349(12)
O20C O 0.5936(8) 0.3215(7) 0.5651(12)
O20E O 0.5936(8) 0.1785(7) 0.5651(12)
O23F O 0.1565(8) 0.3972(9) 1.0248(16)
O25F O 0.1686(11) 0.4403(8) 0.7666(18)
N1F N -0.0003(8) 0.4607(9) 1.3362(15)
H1F H 0.0358 0.4684 1.3652
H2F H -0.0259 0.4931 1.3617
H3F H -0.0129 0.4175 1.3556
C1F C 0.1044(12) 0.3753(11) 0.9994(19)
C2F C 0.0527(11) 0.4195(11) 1.032(2)
H4F H 0.0569 0.4672 1.0017
H5F H 0.0159 0.3990 1.0031
C3F C 0.0516(13) 0.4216(15) 1.168(2)
H6F H 0.0896 0.4399 1.1950
H7F H 0.0471 0.3734 1.1963
C4F C 0.0031(12) 0.4655(12) 1.213(2)
H8F H 0.0096 0.5147 1.1916
H9F H -0.0347 0.4502 1.1812
K1F K 0.1931(3) 0.5304(3) 0.9575(6)
K1A K 0.3069(3) 0.0304(3) 1.4575(6)
K1A_2 K 0.3069(3) 0.0304(3) 0.4575(6)
K1G K 0.3069(3) 0.4696(3) 0.4575(6)
K1G_2 K 0.3069(3) 0.4696(3) 1.4575(6)
K2_2 K 0.2955(7) 0.2500 1.4375(8)
Na1C Na 0.0102(6) 0.2500 0.8899(11)
O27F O 0.2250(11) 0.5015(9) 1.1816(17)
O28F O 0.2020(16) 0.3607(17) 0.442(3)
O26 O 0.1701(13) 0.2500 0.606(2)
O29 O 0.1744(18) 0.2500 0.263(2)
loop_
_geom_bond_atom_site_label_1
_geom_bond_atom_site_label_2
_geom_bond_site_symmetry_1
_geom_bond_site_symmetry_2
W1 O6 1_555 1_555
W2 O1 1_555 1_555
W3 O1 1_555 1_555
W4 O3 1_555 1_555
W5 O6 1_555 1_555
Cu1 O4 1_555 1_555
Cu2 O2 1_555 1_555
Cu3 O13 1_555 1_555
Si1 O9 1_555 1_555
O2 W2 1_555 1_555
O3 W3 1_555 1_555
O4 W3 1_555 1_555
O5 W4 1_555 1_555
O7 W2 1_555 1_555
O8 W4 1_555 1_555
O9 W3 1_555 1_555
O10 W5 1_555 1_555
O11 W1 1_555 1_555
O12 W1 1_555 1_555
O13 Cu1 1_555 1_555
O14 W3 1_555 1_555
O15 W2 1_555 1_555
O16 W4 1_555 1_555
O17 W1 1_555 1_555
O18 W1 1_555 1_555
O19 Cu1 1_555 1_555
O20 Cu3 1_555 1_555
O21 W1 1_555 1_555
O22 W5 1_555 1_555
O23 Cu1 1_555 1_555
O24 W2 1_555 1_555
O25 K1 1_555 1_555
N1 H1 1_555 1_555
H2 N1 1_555 1_555
H3 N1 1_555 1_555
C1 O20 1_555 1_555
C2 C1 1_555 1_555
H4 C2 1_555 1_555
H5 C2 1_555 1_555
C3 C2 1_555 1_555
H6 C3 1_555 1_555
H7 C3 1_555 1_555
C4 N1 1_555 1_555
H8 C4 1_555 1_555
H9 C4 1_555 1_555
K1 O4 1_555 1_555
K2 O2 1_555 1_555
Na1 O11 1_555 1_555
O27 K1 1_555 1_555
O28 K2 1_555 1_555
O30 Na1 1_555 1_555
W1F O18 1_555 1_555
W2F O15 1_555 1_555
W3F O1F 1_555 1_555
W4F O10 1_555 1_555
Cu1F O19 1_555 1_555
O1F W2F 1_555 1_555
O2F Cu2 1_555 1_555
O3F W3F 1_555 1_555
O4F W3F 1_555 1_555
O5F W4F 1_555 1_555
O5A K1 1_555 1_555
O5G K1F 1_555 1_555
O6F W5 1_555 1_555
O7F W2F 1_555 1_555
O7A K1 1_555 1_555
O7G K1F 1_555 1_555
O8F W4F 1_555 1_555
O9F Si1 1_555 1_555
O10F W4 1_555 1_555
O11F Na1 1_555 1_555
O12F W1F 1_555 1_555
O13F Cu2 1_555 1_555
O14F W3F 1_555 1_555
O16_2 K2 1_555 1_555
O17F W1F 1_555 1_555
O20F Cu3 1_555 1_555
O20C Na1 1_555 1_555
O20E Na1 1_555 1_555
O23F Cu1F 1_555 1_555
O25F K1F 1_555 1_555
N1F H1F 1_555 1_555
H2F N1F 1_555 1_555
H3F N1F 1_555 1_555
C1F O20F 1_555 1_555
C2F C1F 1_555 1_555
H4F C2F 1_555 1_555
H5F C2F 1_555 1_555
C3F C2F 1_555 1_555
H6F C3F 1_555 1_555
H7F C3F 1_555 1_555
C4F N1F 1_555 1_555
H8F C4F 1_555 1_555
H9F C4F 1_555 1_555
K1F O4F 1_555 1_555
K1A O5 1_555 1_555
K1A_2 O7 1_555 1_555
K1G O7F 1_555 1_555
K1G_2 O5F 1_555 1_555
K2_2 O16 1_555 1_555
Na1C O20 1_555 1_555
O27F K1F 1_555 1_555
O28F K2 1_555 1_555
W2 O11 1_555 1_555
W3 O17 1_555 1_555
W4 O9 1_555 1_555
W5 O18 1_555 1_555
W5 O10F 1_555 1_555
Cu1 O8 1_555 1_555
Cu1 O9 1_555 1_555
Cu2 O13 1_555 1_555
Cu2 O24 1_555 1_555
Cu3 O19 1_555 1_555
Cu3 O13F 1_555 1_555
Si1 O18 1_555 1_555
Si1 O24 1_555 1_555
O15 K2 1_555 1_555
O15 Na1 1_555 1_555
O16 W4F 1_555 1_555
O21 Na1 1_555 1_555
O21 W1F 1_555 1_555
O23 C1 1_555 1_555
O23 K1 1_555 1_555
O24 W2F 1_555 1_555
C3 C4 1_555 1_555
K2 O2F 1_555 1_555
W1F O6F 1_555 1_555
W1F O11F 1_555 1_555
W2F O2F 1_555 1_555
W2F O11F 1_555 1_555
W3F O9F 1_555 1_555
W3F O17F 1_555 1_555
W4F O3F 1_555 1_555
W4F O9F 1_555 1_555
Cu1F O4F 1_555 1_555
Cu1F O8F 1_555 1_555
Cu1F O9F 1_555 1_555
Cu1F O13F 1_555 1_555
O20F Na1C 1_555 1_555
O23F C1F 1_555 1_555
O23F K1F 1_555 1_555
C3F C4F 1_555 1_555

#END
