
#######################################################################
#
#                 Cambridge Crystallographic Data Centre
#                                CCDC 
#
#######################################################################
#
# If this CIF has been generated from an entry in the Cambridge 
# Structural Database, then it will include bibliographic, chemical, 
# crystal, experimental, refinement or atomic coordinate data resulting 
# from the CCDC's data processing and validation procedures.
#
#######################################################################

data_AXUWEV
_symmetry_cell_setting           triclinic
_symmetry_space_group_name_H-M   'P -1'
_symmetry_Int_Tables_number      2
_space_group_name_Hall           '-P 1'
loop_
_symmetry_equiv_pos_site_id
_symmetry_equiv_pos_as_xyz
1 x,y,z
2 -x,-y,-z
_cell_length_a                   11.214(1)
_cell_length_b                   12.621(2)
_cell_length_c                   21.007(3)
_cell_angle_alpha                81.09(1)
_cell_angle_beta                 80.71(1)
_cell_angle_gamma                65.88(1)
_cell_volume                     2664.91
loop_
_atom_site_label
_atom_site_type_symbol
_atom_site_fract_x
_atom_site_fract_y
_atom_site_fract_z
Eu1 Eu 0.830754(14) 0.436290(12) 0.279261(8)
O1 O 0.72523(19) 0.52266(18) 0.37401(10)
O2 O 0.47199(18) 0.73656(17) 0.51230(10)
O3 O 0.6002(2) 1.08552(19) 0.71034(12)
O4 O 0.3180(2) 1.38395(18) 0.76258(12)
O5 O 0.9679(2) 0.4296(2) 0.18164(10)
O6 O 1.1566(3) 0.5819(3) 0.03545(12)
O7 O 0.9607(2) 0.55874(19) 0.28478(12)
O8 O 1.0423(2) 0.38014(19) 0.32441(11)
O9 O 1.1491(3) 0.4890(3) 0.32209(17)
O10 O 0.6432(2) 0.3741(2) 0.28892(12)
O11 O 0.7307(2) 0.3924(2) 0.19132(11)
O12 O 0.5525(3) 0.3588(3) 0.20931(15)
O13 O 0.8635(2) 0.27039(18) 0.36500(10)
O14 O 0.9574(2) 0.22545(18) 0.26968(11)
O15 O 0.9836(3) 0.0902(2) 0.34970(14)
N1 N 0.7087(2) 0.6188(2) 0.45789(13)
H1 H 0.6561 0.6638 0.4861
N2 N 0.3630(3) 1.1948(2) 0.77503(15)
H2 H 0.4212 1.1245 0.7784
N3 N 1.1637(3) 0.4179(3) 0.13223(14)
H3 H 1.2056 0.4431 0.0997
N4 N 1.0544(3) 0.4762(2) 0.31085(14)
N5 N 0.6389(3) 0.3745(2) 0.22944(16)
N6 N 0.9357(3) 0.1920(2) 0.32869(15)
C1 C 0.2452(5) 1.0190(4) 0.7601(2)
H4 H 0.2960 1.0275 0.7216
C2 C 0.2190(7) 0.9224(4) 0.7736(3)
H5 H 0.2500 0.8659 0.7446
C3 C 0.1472(7) 0.9088(6) 0.8297(4)
H6 H 0.1281 0.8425 0.8381
C4 C 0.1020(7) 0.9853(7) 0.8739(4)
H7 H 0.0554 0.9722 0.9130
C5 C 0.1293(6) 1.0908(5) 0.8580(3)
H8 H 0.0985 1.1478 0.8868
C6 C 0.2006(4) 1.1045(3) 0.8005(2)
C7 C 0.2250(4) 1.2136(3) 0.7809(3)
H9 H 0.1912 1.2483 0.7396
H10 H 0.1765 1.2686 0.8126
C8 C 0.4014(3) 1.2819(3) 0.76476(15)
C9 C 0.5431(3) 1.2569(2) 0.75906(15)
C10 C 0.5810(4) 1.3364(3) 0.78109(17)
H11 H 0.5168 1.4017 0.7991
C11 C 0.7109(4) 1.3203(4) 0.7768(2)
H12 H 0.7341 1.3736 0.7923
C12 C 0.8057(4) 1.2249(4) 0.7495(2)
H13 H 0.8936 1.2138 0.7464
C13 C 0.7720(3) 1.1452(3) 0.72673(18)
H14 H 0.8370 1.0810 0.7081
C14 C 0.6418(3) 1.1607(3) 0.73156(16)
C15 C 0.6896(3) 1.0000(3) 0.66870(18)
H15 H 0.7564 0.9393 0.6929
H16 H 0.7326 1.0360 0.6337
C16 C 0.6098(3) 0.9496(3) 0.64206(15)
C17 C 0.6301(4) 0.8342(3) 0.65605(18)
H17 H 0.6935 0.7864 0.6830
C18 C 0.5577(4) 0.7876(3) 0.63068(18)
H18 H 0.5732 0.7089 0.6405
C19 C 0.4627(3) 0.8570(3) 0.59091(15)
C20 C 0.4415(3) 0.9734(3) 0.57780(16)
H19 H 0.3772 1.0218 0.5514
C21 C 0.5136(3) 1.0189(3) 0.60308(17)
H20 H 0.4973 1.0978 0.5937
C22 C 0.3854(3) 0.8071(3) 0.56208(17)
H21 H 0.3529 0.7598 0.5952
H22 H 0.3108 0.8694 0.5436
C23 C 0.4237(3) 0.6849(2) 0.47612(14)
C24 C 0.2915(3) 0.7023(3) 0.48379(16)
H23 H 0.2333 0.7490 0.5148
C25 C 0.2470(3) 0.6499(3) 0.44518(17)
H24 H 0.1585 0.6623 0.4502
C26 C 0.3311(3) 0.5800(3) 0.39971(17)
H25 H 0.3002 0.5450 0.3740
C27 C 0.4618(3) 0.5621(3) 0.39255(15)
H26 H 0.5187 0.5146 0.3616
C28 C 0.5116(3) 0.6129(2) 0.43014(13)
C29 C 0.6561(3) 0.5825(2) 0.41866(14)
C30 C 0.8493(3) 0.5889(3) 0.4576(2)
H27 H 0.8965 0.5510 0.4190
H28 H 0.8810 0.5345 0.4950
C31 C 0.8761(3) 0.6965(3) 0.45889(15)
C32 C 0.8964(3) 0.7616(3) 0.40273(17)
H29 H 0.8947 0.7384 0.3631
C33 C 0.9192(4) 0.8599(3) 0.4037(2)
H30 H 0.9320 0.9028 0.3650
C34 C 0.9230(3) 0.8948(3) 0.4604(2)
H31 H 0.9387 0.9616 0.4607
C35 C 0.9041(3) 0.8326(3) 0.5177(2)
H32 H 0.9071 0.8568 0.5568
C36 C 0.8800(3) 0.7318(3) 0.51712(16)
H33 H 0.8668 0.6892 0.5559
C37 C 1.2566(7) 0.1341(5) 0.1566(2)
H34 H 1.1730 0.1521 0.1787
C38 C 1.3196(12) 0.0290(6) 0.1298(3)
H35 H 1.2801 -0.0239 0.1332
C39 C 1.4441(15) 0.0062(9) 0.0979(5)
H36 H 1.4876 -0.0628 0.0783
C40 C 1.5049(12) 0.0794(11) 0.0941(6)
H37 H 1.5902 0.0600 0.0738
C41 C 1.4376(5) 0.1858(6) 0.1212(3)
H38 H 1.4777 0.2381 0.1185
C42 C 1.3144(4) 0.2122(4) 0.15116(19)
C43 C 1.2414(4) 0.3266(3) 0.17898(18)
H39 H 1.1833 0.3167 0.2168
H40 H 1.3038 0.3512 0.1929
C44 C 1.0343(3) 0.4638(3) 0.13661(15)
C45 C 0.9653(3) 0.5581(3) 0.08642(15)
C46 C 0.8312(4) 0.5905(3) 0.08911(17)
H41 H 0.7907 0.5506 0.1197
C47 C 0.7554(4) 0.6804(4) 0.0476(2)
H42 H 0.6652 0.7006 0.0503
C48 C 0.8143(5) 0.7387(4) 0.0027(2)
H43 H 0.7636 0.8003 -0.0247
C49 C 0.9466(5) 0.7081(4) -0.00260(19)
H44 H 0.9856 0.7478 -0.0341
C50 C 1.0237(4) 0.6178(3) 0.03881(17)
C51 C 1.2253(5) 0.6361(4) -0.0129(2)
H45 H 1.2005 0.7167 -0.0056
H46 H 1.2056 0.6338 -0.0559
C52 C 1.3678(5) 0.5675(5) -0.0065(2)
C53 C 1.4484(6) 0.5051(6) -0.0544(2)
H47 H 1.4150 0.5076 -0.0926
C54 C 1.4205(6) 0.5626(6) 0.0481(2)
H48 H 1.3677 0.6053 0.0818
C54A C 1.5795(6) 0.4374(6) -0.0481(2)
C52A C 1.6322(5) 0.4325(5) 0.0065(2)
C51A C 1.7747(5) 0.3639(4) 0.0129(2)
O6A O 1.8434(3) 0.4181(3) -0.03545(12)
C50A C 1.9763(4) 0.3822(3) -0.03881(17)
C45A C 2.0347(3) 0.4419(3) -0.08642(15)
C44A C 1.9657(3) 0.5362(3) -0.13661(15)
O5A O 2.0321(2) 0.5704(2) -0.18164(10)
N3A N 1.8363(3) 0.5821(3) -0.13223(14)
H3A H 1.7944 0.5569 -0.0997
C43A C 1.7586(4) 0.6734(3) -0.17898(18)
C42A C 1.6856(4) 0.7878(4) -0.15116(19)
C37A C 1.7434(7) 0.8659(5) -0.1566(2)
H34A H 1.8270 0.8479 -0.1787
C38A C 1.6804(12) 0.9710(6) -0.1298(3)
H35A H 1.7199 1.0239 -0.1332
C39A C 1.5559(15) 0.9938(9) -0.0979(5)
H36A H 1.5124 1.0628 -0.0783
C40A C 1.4951(12) 0.9206(11) -0.0941(6)
H37A H 1.4098 0.9400 -0.0738
C41A C 1.5624(5) 0.8142(6) -0.1212(3)
H38A H 1.5223 0.7619 -0.1185
H39A H 1.8167 0.6833 -0.2168
H40A H 1.6962 0.6488 -0.1929
C46A C 2.1688(4) 0.4095(3) -0.08911(17)
H41A H 2.2093 0.4494 -0.1197
C47A C 2.2446(4) 0.3196(4) -0.0476(2)
H42A H 2.3348 0.2994 -0.0503
C48A C 2.1857(5) 0.2613(4) -0.0027(2)
H43A H 2.2364 0.1997 0.0247
C49A C 2.0534(5) 0.2919(4) 0.00260(19)
H44A H 2.0144 0.2522 0.0341
H45A H 1.7995 0.2833 0.0056
H46A H 1.7944 0.3662 0.0559
C53A C 1.5516(6) 0.4949(6) 0.0544(2)
H47A H 1.5850 0.4924 0.0926
H48A H 1.6323 0.3947 -0.0818
O1A O 0.27477(19) 1.47734(18) 0.62599(10)
O2A O 0.52801(18) 1.26344(17) 0.48770(10)
O3A O 0.3998(2) 0.91448(19) 0.28966(12)
O4A O 0.6820(2) 0.61605(18) 0.23742(12)
N1A N 0.2913(2) 1.3812(2) 0.54211(13)
H1A H 0.3439 1.3362 0.5139
N2A N 0.6370(3) 0.8052(2) 0.22497(15)
H2A H 0.5788 0.8755 0.2216
C1A C 0.7548(5) 0.9810(4) 0.2399(2)
H4A H 0.7040 0.9725 0.2784
C2A C 0.7810(7) 1.0776(4) 0.2264(3)
H5A H 0.7500 1.1341 0.2554
C3A C 0.8528(7) 1.0912(6) 0.1703(4)
H6A H 0.8719 1.1575 0.1619
C4A C 0.8980(7) 1.0147(7) 0.1261(4)
H7A H 0.9446 1.0278 0.0870
C5A C 0.8707(6) 0.9092(5) 0.1420(3)
H8A H 0.9015 0.8522 0.1132
C6A C 0.7994(4) 0.8955(3) 0.1995(2)
C7A C 0.7750(4) 0.7864(3) 0.2191(3)
H9A H 0.8088 0.7517 0.2604
H10A H 0.8235 0.7314 0.1874
C8A C 0.5986(3) 0.7181(3) 0.23524(15)
C9A C 0.4569(3) 0.7431(2) 0.24094(15)
C10A C 0.4190(4) 0.6636(3) 0.21891(17)
H11A H 0.4832 0.5983 0.2009
C11A C 0.2891(4) 0.6797(4) 0.2232(2)
H12A H 0.2659 0.6264 0.2077
C12A C 0.1943(4) 0.7751(4) 0.2505(2)
H13A H 0.1064 0.7862 0.2536
C13A C 0.2280(3) 0.8548(3) 0.27327(18)
H14A H 0.1630 0.9190 0.2919
C14A C 0.3582(3) 0.8393(3) 0.26844(16)
C15A C 0.3104(3) 1.0000(3) 0.33130(18)
H15A H 0.2436 1.0607 0.3071
H16A H 0.2674 0.9640 0.3663
C16A C 0.3902(3) 1.0504(3) 0.35794(15)
C17A C 0.3699(4) 1.1658(3) 0.34395(18)
H17A H 0.3065 1.2136 0.3170
C18A C 0.4423(4) 1.2124(3) 0.36932(18)
H18A H 0.4268 1.2911 0.3595
C19A C 0.5373(3) 1.1430(3) 0.40909(15)
C20A C 0.5585(3) 1.0266(3) 0.42220(16)
H19A H 0.6228 0.9782 0.4486
C21A C 0.4864(3) 0.9811(3) 0.39692(17)
H20A H 0.5027 0.9022 0.4063
C22A C 0.6146(3) 1.1929(3) 0.43792(17)
H21A H 0.6471 1.2402 0.4048
H22A H 0.6892 1.1306 0.4564
C23A C 0.5763(3) 1.3151(2) 0.52388(14)
C24A C 0.7085(3) 1.2977(3) 0.51621(16)
H23A H 0.7667 1.2510 0.4852
C25A C 0.7530(3) 1.3501(3) 0.55482(17)
H24A H 0.8415 1.3377 0.5498
C26A C 0.6689(3) 1.4200(3) 0.60029(17)
H25A H 0.6998 1.4550 0.6260
C27A C 0.5382(3) 1.4379(3) 0.60745(15)
H26A H 0.4813 1.4854 0.6384
C28A C 0.4884(3) 1.3871(2) 0.56986(13)
C29A C 0.3439(3) 1.4175(2) 0.58134(14)
C30A C 0.1507(3) 1.4111(3) 0.5424(2)
H27A H 0.1035 1.4490 0.5810
H28A H 0.1190 1.4655 0.5050
C31A C 0.1239(3) 1.3035(3) 0.54111(15)
C32A C 0.1036(3) 1.2384(3) 0.59727(17)
H29A H 0.1053 1.2616 0.6369
C33A C 0.0808(4) 1.1401(3) 0.5963(2)
H30A H 0.0680 1.0972 0.6350
C34A C 0.0770(3) 1.1052(3) 0.5396(2)
H31A H 0.0613 1.0384 0.5393
C35A C 0.0959(3) 1.1674(3) 0.4823(2)
H32A H 0.0929 1.1432 0.4432
C36A C 0.1200(3) 1.2682(3) 0.48288(16)
H33A H 0.1332 1.3108 0.4441
Eu1A Eu 0.169246(14) 1.563710(12) 0.720739(8)
O7A O 0.0393(2) 1.44126(19) 0.71522(12)
O8A O -0.0423(2) 1.61986(19) 0.67559(11)
O9A O -0.1491(3) 1.5110(3) 0.67791(17)
N4A N -0.0544(3) 1.5238(2) 0.68915(14)
O10A O 0.3568(2) 1.6259(2) 0.71108(12)
O11A O 0.2693(2) 1.6076(2) 0.80868(11)
O12A O 0.4475(3) 1.6412(3) 0.79069(15)
N5A N 0.3611(3) 1.6255(2) 0.77056(16)
O13A O 0.1365(2) 1.72961(18) 0.63500(10)
O14A O 0.0426(2) 1.77455(18) 0.73032(11)
O15A O 0.0164(3) 1.9098(2) 0.65030(14)
N6A N 0.0643(3) 1.8080(2) 0.67131(15)
Eu1A_2 Eu 2.169246(14) 0.563710(12) -0.279261(8)
O5A_2 O 0.0321(2) 1.5704(2) 0.81836(10)
loop_
_geom_bond_atom_site_label_1
_geom_bond_atom_site_label_2
_geom_bond_site_symmetry_1
_geom_bond_site_symmetry_2
Eu1 O1 1_555 1_555
O1 C29 1_555 1_555
O2 C22 1_555 1_555
O3 C14 1_555 1_555
O4 C8 1_555 1_555
O5 Eu1 1_555 1_555
O6 C50 1_555 1_555
O7 Eu1 1_555 1_555
O8 Eu1 1_555 1_555
O9 N4 1_555 1_555
O10 Eu1 1_555 1_555
O11 Eu1 1_555 1_555
O12 N5 1_555 1_555
O13 Eu1 1_555 1_555
O14 Eu1 1_555 1_555
O15 N6 1_555 1_555
N1 H1 1_555 1_555
N2 H2 1_555 1_555
N3 H3 1_555 1_555
N4 O7 1_555 1_555
N5 O10 1_555 1_555
N6 O13 1_555 1_555
C1 H4 1_555 1_555
C2 C1 1_555 1_555
H5 C2 1_555 1_555
C3 C2 1_555 1_555
H6 C3 1_555 1_555
C4 C3 1_555 1_555
H7 C4 1_555 1_555
C5 C4 1_555 1_555
H8 C5 1_555 1_555
C6 C1 1_555 1_555
C7 N2 1_555 1_555
H9 C7 1_555 1_555
H10 C7 1_555 1_555
C8 N2 1_555 1_555
C9 C8 1_555 1_555
C10 C9 1_555 1_555
H11 C10 1_555 1_555
C11 C10 1_555 1_555
H12 C11 1_555 1_555
C12 C11 1_555 1_555
H13 C12 1_555 1_555
C13 C12 1_555 1_555
H14 C13 1_555 1_555
C14 C9 1_555 1_555
C15 O3 1_555 1_555
H15 C15 1_555 1_555
H16 C15 1_555 1_555
C16 C15 1_555 1_555
C17 C16 1_555 1_555
H17 C17 1_555 1_555
C18 C17 1_555 1_555
H18 C18 1_555 1_555
C19 C18 1_555 1_555
C20 C19 1_555 1_555
H19 C20 1_555 1_555
C21 C16 1_555 1_555
H20 C21 1_555 1_555
C22 C19 1_555 1_555
H21 C22 1_555 1_555
H22 C22 1_555 1_555
C23 O2 1_555 1_555
C24 C23 1_555 1_555
H23 C24 1_555 1_555
C25 C24 1_555 1_555
H24 C25 1_555 1_555
C26 C25 1_555 1_555
H25 C26 1_555 1_555
C27 C26 1_555 1_555
H26 C27 1_555 1_555
C28 C23 1_555 1_555
C29 N1 1_555 1_555
C30 N1 1_555 1_555
H27 C30 1_555 1_555
H28 C30 1_555 1_555
C31 C30 1_555 1_555
C32 C31 1_555 1_555
H29 C32 1_555 1_555
C33 C32 1_555 1_555
H30 C33 1_555 1_555
C34 C33 1_555 1_555
H31 C34 1_555 1_555
C35 C34 1_555 1_555
H32 C35 1_555 1_555
C36 C31 1_555 1_555
H33 C36 1_555 1_555
C37 H34 1_555 1_555
C38 C37 1_555 1_555
H35 C38 1_555 1_555
C39 C38 1_555 1_555
H36 C39 1_555 1_555
C40 C39 1_555 1_555
H37 C40 1_555 1_555
C41 C40 1_555 1_555
H38 C41 1_555 1_555
C42 C37 1_555 1_555
C43 N3 1_555 1_555
H39 C43 1_555 1_555
H40 C43 1_555 1_555
C44 O5 1_555 1_555
C45 C44 1_555 1_555
C46 C45 1_555 1_555
H41 C46 1_555 1_555
C47 C46 1_555 1_555
H42 C47 1_555 1_555
C48 C47 1_555 1_555
H43 C48 1_555 1_555
C49 C48 1_555 1_555
H44 C49 1_555 1_555
C50 C45 1_555 1_555
C51 O6 1_555 1_555
H45 C51 1_555 1_555
H46 C51 1_555 1_555
C52 C51 1_555 1_555
C53 C52 1_555 1_555
H47 C53 1_555 1_555
C54 C52 1_555 1_555
H48 C54 1_555 1_555
C54A C53 1_555 1_555
C52A C54A 1_555 1_555
C51A C52A 1_555 1_555
O6A C51A 1_555 1_555
C50A O6A 1_555 1_555
C45A C50A 1_555 1_555
C44A C45A 1_555 1_555
O5A C44A 1_555 1_555
N3A C44A 1_555 1_555
H3A N3A 1_555 1_555
C43A N3A 1_555 1_555
C42A C43A 1_555 1_555
C37A C42A 1_555 1_555
H34A C37A 1_555 1_555
C38A C37A 1_555 1_555
H35A C38A 1_555 1_555
C39A C38A 1_555 1_555
H36A C39A 1_555 1_555
C40A C39A 1_555 1_555
H37A C40A 1_555 1_555
C41A C42A 1_555 1_555
H38A C41A 1_555 1_555
H39A C43A 1_555 1_555
H40A C43A 1_555 1_555
C46A C45A 1_555 1_555
H41A C46A 1_555 1_555
C47A C46A 1_555 1_555
H42A C47A 1_555 1_555
C48A C47A 1_555 1_555
H43A C48A 1_555 1_555
C49A C50A 1_555 1_555
H44A C49A 1_555 1_555
H45A C51A 1_555 1_555
H46A C51A 1_555 1_555
C53A C54 1_555 1_555
H47A C53A 1_555 1_555
H48A C54A 1_555 1_555
O1A C29A 1_555 1_555
O2A C22A 1_555 1_555
O3A C14A 1_555 1_555
O4A Eu1 1_555 1_555
N1A H1A 1_555 1_555
N2A H2A 1_555 1_555
C1A H4A 1_555 1_555
C2A C1A 1_555 1_555
H5A C2A 1_555 1_555
C3A C2A 1_555 1_555
H6A C3A 1_555 1_555
C4A C3A 1_555 1_555
H7A C4A 1_555 1_555
C5A C4A 1_555 1_555
H8A C5A 1_555 1_555
C6A C1A 1_555 1_555
C7A N2A 1_555 1_555
H9A C7A 1_555 1_555
H10A C7A 1_555 1_555
C8A O4A 1_555 1_555
C9A C8A 1_555 1_555
C10A C9A 1_555 1_555
H11A C10A 1_555 1_555
C11A C10A 1_555 1_555
H12A C11A 1_555 1_555
C12A C11A 1_555 1_555
H13A C12A 1_555 1_555
C13A C12A 1_555 1_555
H14A C13A 1_555 1_555
C14A C9A 1_555 1_555
C15A O3A 1_555 1_555
H15A C15A 1_555 1_555
H16A C15A 1_555 1_555
C16A C15A 1_555 1_555
C17A C16A 1_555 1_555
H17A C17A 1_555 1_555
C18A C17A 1_555 1_555
H18A C18A 1_555 1_555
C19A C18A 1_555 1_555
C20A C19A 1_555 1_555
H19A C20A 1_555 1_555
C21A C16A 1_555 1_555
H20A C21A 1_555 1_555
C22A C19A 1_555 1_555
H21A C22A 1_555 1_555
H22A C22A 1_555 1_555
C23A O2A 1_555 1_555
C24A C23A 1_555 1_555
H23A C24A 1_555 1_555
C25A C24A 1_555 1_555
H24A C25A 1_555 1_555
C26A C25A 1_555 1_555
H25A C26A 1_555 1_555
C27A C26A 1_555 1_555
H26A C27A 1_555 1_555
C28A C23A 1_555 1_555
C29A N1A 1_555 1_555
C30A N1A 1_555 1_555
H27A C30A 1_555 1_555
H28A C30A 1_555 1_555
C31A C30A 1_555 1_555
C32A C31A 1_555 1_555
H29A C32A 1_555 1_555
C33A C32A 1_555 1_555
H30A C33A 1_555 1_555
C34A C33A 1_555 1_555
H31A C34A 1_555 1_555
C35A C34A 1_555 1_555
H32A C35A 1_555 1_555
C36A C31A 1_555 1_555
H33A C36A 1_555 1_555
Eu1A O4 1_555 1_555
O7A Eu1A 1_555 1_555
O8A Eu1A 1_555 1_555
O9A N4A 1_555 1_555
N4A O7A 1_555 1_555
O10A Eu1A 1_555 1_555
O11A Eu1A 1_555 1_555
O12A N5A 1_555 1_555
N5A O10A 1_555 1_555
O13A Eu1A 1_555 1_555
O14A Eu1A 1_555 1_555
O15A N6A 1_555 1_555
N6A O13A 1_555 1_555
Eu1A_2 O5A 1_555 1_555
O5A_2 Eu1A 1_555 1_555
O8 N4 1_555 1_555
O11 N5 1_555 1_555
O14 N6 1_555 1_555
N3 C44 1_555 1_555
C5 C6 1_555 1_555
C6 C7 1_555 1_555
C13 C14 1_555 1_555
C20 C21 1_555 1_555
C27 C28 1_555 1_555
C28 C29 1_555 1_555
C35 C36 1_555 1_555
C41 C42 1_555 1_555
C42 C43 1_555 1_555
C49 C50 1_555 1_555
C52A C53A 1_555 1_555
C40A C41A 1_555 1_555
C48A C49A 1_555 1_555
O1A Eu1A 1_555 1_555
N2A C8A 1_555 1_555
C5A C6A 1_555 1_555
C6A C7A 1_555 1_555
C13A C14A 1_555 1_555
C20A C21A 1_555 1_555
C27A C28A 1_555 1_555
C28A C29A 1_555 1_555
C35A C36A 1_555 1_555
O8A N4A 1_555 1_555
O11A N5A 1_555 1_555
O14A N6A 1_555 1_555

#END
