
#######################################################################
#
#                 Cambridge Crystallographic Data Centre
#                                CCDC 
#
#######################################################################
#
# If this CIF has been generated from an entry in the Cambridge 
# Structural Database, then it will include bibliographic, chemical, 
# crystal, experimental, refinement or atomic coordinate data resulting 
# from the CCDC's data processing and validation procedures.
#
#######################################################################

data_AXUZUO
_symmetry_cell_setting           monoclinic
_symmetry_space_group_name_H-M   'P 21/c'
_symmetry_Int_Tables_number      14
_space_group_name_Hall           '-P 2ybc'
loop_
_symmetry_equiv_pos_site_id
_symmetry_equiv_pos_as_xyz
1 x,y,z
2 x,1/2-y,1/2+z
3 -x,-y,-z
4 -x,1/2+y,1/2-z
_cell_length_a                   12.701(3)
_cell_length_b                   9.979(1)
_cell_length_c                   19.401(4)
_cell_angle_alpha                90
_cell_angle_beta                 97.73(2)
_cell_angle_gamma                90
_cell_volume                     2436.6
loop_
_atom_site_label
_atom_site_type_symbol
_atom_site_fract_x
_atom_site_fract_y
_atom_site_fract_z
Ce1 Ce 0.15148(4) -0.05674(6) 0.56181(3)
Ce2 Ce 0.61585(4) 0.22423(6) 0.70077(3)
O1 O 0.0111(5) -0.0454(7) 0.6428(4)
O2 O -0.0812(6) 0.0945(8) 0.7004(4)
O3 O 0.3329(5) 0.0476(7) 0.5908(3)
O4 O 0.4360(5) 0.2122(7) 0.6398(4)
O5 O 0.0182(5) 0.1267(6) 0.5163(3)
O6 O 0.1632(6) 0.2526(8) 0.5385(4)
O7 O -0.2691(6) 0.4038(7) 0.2891(4)
O8 O -0.2436(5) 0.2063(7) 0.3396(4)
O9 O 0.3200(5) -0.1762(7) 0.4118(4)
O10 O 0.2614(6) -0.2359(8) 0.5104(4)
O11 O 0.5088(5) -0.6521(7) 0.2916(4)
O12 O 0.4494(5) -0.4461(7) 0.2667(3)
O13 O 0.1851(6) 0.0162(7) 0.4417(3)
O14 O 0.5762(5) -0.0167(7) 0.6623(4)
O15 O 0.8082(5) 0.3207(8) 0.7032(4)
N1 N 0.1828(6) 0.1024(8) 0.6694(4)
N2 N -0.0703(6) 0.2953(8) 0.4207(4)
N3 N 0.3876(6) -0.4167(8) 0.3899(4)
C1 C 0.2729(7) 0.1701(9) 0.6820(5)
C2 C 0.2904(8) 0.2666(10) 0.7339(6)
H1 H 0.3527 0.3167 0.7405
C3 C 0.2087(9) 0.2854(10) 0.7767(6)
H2 H 0.2178 0.3448 0.8140
C4 C 0.1164(8) 0.2142(10) 0.7615(5)
H3 H 0.0615 0.2264 0.7882
C5 C 0.1047(7) 0.1257(10) 0.7075(5)
C6 C 0.0028(8) 0.0503(12) 0.6832(5)
C7 C 0.3537(7) 0.1416(10) 0.6340(5)
C8 C 0.0731(8) 0.2302(10) 0.5076(5)
C9 C 0.0243(7) 0.3302(10) 0.4545(5)
C10 C 0.0735(8) 0.4511(11) 0.4417(5)
H4 H 0.1401 0.4732 0.4649
C11 C 0.0204(9) 0.5347(11) 0.3943(6)
H5 H 0.0508 0.6164 0.3849
C12 C -0.0759(8) 0.5017(10) 0.3604(5)
H6 H -0.1128 0.5603 0.3284
C13 C -0.1182(7) 0.3791(10) 0.3742(5)
C14 C -0.2196(8) 0.3275(11) 0.3324(5)
C15 C 0.3071(8) -0.2602(11) 0.4592(5)
C16 C 0.3480(7) -0.3975(10) 0.4492(5)
C17 C 0.3463(8) -0.4995(10) 0.4969(5)
H7 H 0.3207 -0.4843 0.5389
C18 C 0.3830(8) -0.6247(11) 0.4811(6)
H8 H 0.3799 -0.6953 0.5119
C19 C 0.4238(8) -0.6446(11) 0.4203(5)
H9 H 0.4504 -0.7278 0.4096
C20 C 0.4245(7) -0.5393(11) 0.3757(5)
C21 C 0.4649(8) -0.5467(11) 0.3051(5)
O5B O -0.0182(5) -0.1267(6) 0.4837(3)
O8B O 0.2436(5) -0.2063(7) 0.6604(4)
N2B N 0.0703(6) -0.2953(8) 0.5793(4)
O7A O 0.7309(6) 0.0962(7) 0.7891(4)
O9B O 0.6800(5) 0.1762(7) 0.5882(4)
O11A O 0.5088(5) 0.1521(7) 0.7916(4)
O12B O 0.5506(5) 0.4461(7) 0.7333(3)
N3B N 0.6124(6) 0.4167(8) 0.6101(4)
Ce1B Ce -0.15148(4) 0.05674(6) 0.43819(3)
Ce2A Ce -0.38415(4) 0.27577(6) 0.20077(3)
Ce2B Ce 0.38415(4) -0.22423(6) 0.29923(3)
Ce2A_2 Ce 0.61585(4) -0.72423(6) 0.20077(3)
loop_
_geom_bond_atom_site_label_1
_geom_bond_atom_site_label_2
_geom_bond_site_symmetry_1
_geom_bond_site_symmetry_2
Ce1 O1 1_555 1_555
Ce2 O4 1_555 1_555
O1 C6 1_555 1_555
O2 C6 1_555 1_555
O3 Ce1 1_555 1_555
O4 C7 1_555 1_555
O5 Ce1 1_555 1_555
O6 C8 1_555 1_555
O7 C14 1_555 1_555
O8 C14 1_555 1_555
O9 C15 1_555 1_555
O10 Ce1 1_555 1_555
O11 C21 1_555 1_555
O12 C21 1_555 1_555
O13 Ce1 1_555 1_555
O14 Ce2 1_555 1_555
O15 Ce2 1_555 1_555
N1 Ce1 1_555 1_555
N2 C9 1_555 1_555
N3 C16 1_555 1_555
C1 N1 1_555 1_555
C2 C1 1_555 1_555
H1 C2 1_555 1_555
C3 C2 1_555 1_555
H2 C3 1_555 1_555
C4 C3 1_555 1_555
H3 C4 1_555 1_555
C5 N1 1_555 1_555
C6 C5 1_555 1_555
C7 O3 1_555 1_555
C8 O5 1_555 1_555
C9 C8 1_555 1_555
C10 C9 1_555 1_555
H4 C10 1_555 1_555
C11 C10 1_555 1_555
H5 C11 1_555 1_555
C12 C11 1_555 1_555
H6 C12 1_555 1_555
C13 N2 1_555 1_555
C14 C13 1_555 1_555
C15 O10 1_555 1_555
C16 C15 1_555 1_555
C17 C16 1_555 1_555
H7 C17 1_555 1_555
C18 C17 1_555 1_555
H8 C18 1_555 1_555
C19 C18 1_555 1_555
H9 C19 1_555 1_555
C20 N3 1_555 1_555
C21 C20 1_555 1_555
O5B Ce1 1_555 1_555
O8B Ce1 1_555 1_555
N2B Ce1 1_555 1_555
O7A Ce2 1_555 1_555
O9B Ce2 1_555 1_555
O11A Ce2 1_555 1_555
O12B Ce2 1_555 1_555
N3B Ce2 1_555 1_555
Ce1B O5 1_555 1_555
Ce2A O7 1_555 1_555
Ce2B O9 1_555 1_555
Ce2A_2 O11 1_555 1_555
O8 Ce1B 1_555 1_555
O12 Ce2B 1_555 1_555
N2 Ce1B 1_555 1_555
N3 Ce2B 1_555 1_555
C1 C7 1_555 1_555
C4 C5 1_555 1_555
C12 C13 1_555 1_555
C19 C20 1_555 1_555
O5B Ce1B 1_555 1_555

#END
