
#######################################################################
#
#                 Cambridge Crystallographic Data Centre
#                                CCDC 
#
#######################################################################
#
# If this CIF has been generated from an entry in the Cambridge 
# Structural Database, then it will include bibliographic, chemical, 
# crystal, experimental, refinement or atomic coordinate data resulting 
# from the CCDC's data processing and validation procedures.
#
#######################################################################

data_AYABAD
_symmetry_cell_setting           monoclinic
_symmetry_space_group_name_H-M   'P 21/c'
_symmetry_Int_Tables_number      14
_space_group_name_Hall           '-P 2ybc'
loop_
_symmetry_equiv_pos_site_id
_symmetry_equiv_pos_as_xyz
1 x,y,z
2 -x,1/2+y,1/2-z
3 -x,-y,-z
4 x,1/2-y,1/2+z
_cell_length_a                   10.961(5)
_cell_length_b                   17.523(5)
_cell_length_c                   13.505(2)
_cell_angle_alpha                90
_cell_angle_beta                 100.89(3)
_cell_angle_gamma                90
_cell_volume                     2547.19
loop_
_atom_site_label
_atom_site_type_symbol
_atom_site_fract_x
_atom_site_fract_y
_atom_site_fract_z
Ce1 Ce 0.65663(5) 0.73922(3) 0.09280(5)
Ce2 Ce 1.17257(5) 0.95801(3) 0.09243(5)
O1 O 1.2937(7) 0.9868(5) 0.2627(6)
O2 O 1.3558(8) 0.9655(5) 0.4260(6)
O3 O 1.0138(7) 0.8504(4) 0.0592(6)
O4 O 0.8669(7) 0.7839(5) 0.1087(7)
O5 O 0.0494(7) 0.9892(4) -0.0837(6)
O6 O -0.0071(9) 0.9727(6) -0.2480(7)
O7 O 0.3237(7) 0.8494(5) 0.1199(6)
O8 O 0.4378(7) 0.7581(5) 0.0720(7)
O9 O 0.6524(7) 0.9857(4) -0.0255(6)
O10 O 0.6717(8) 0.7381(5) 0.2788(6)
O11 O 0.6289(7) 0.8609(4) -0.0128(6)
O12 O 0.6733(9) 0.7956(5) 0.4270(6)
O13 O 1.1653(7) 1.1064(4) 0.1062(6)
O14 O 0.7964(9) 0.6304(5) 0.1609(8)
O15 O 0.5418(7) 0.6100(4) 0.0698(6)
N1 N 1.1248(8) 0.8784(5) 0.2443(7)
N2 N 0.2118(8) 0.8788(5) -0.0660(7)
N3 N 0.6422(8) 0.8703(5) 0.1825(7)
C1 C 1.2881(10) 0.9528(6) 0.3434(9)
C2 C 1.1878(10) 0.8927(6) 0.3371(8)
C3 C 1.1572(12) 0.8583(7) 0.4203(10)
H1 H 1.2028 0.8694 0.4840
C4 C 1.0581(13) 0.8068(8) 0.4105(11)
H2 H 1.0365 0.7827 0.4660
C5 C 0.9945(11) 0.7939(8) 0.3143(9)
H3 H 0.9267 0.7610 0.3035
C6 C 1.0309(10) 0.8293(6) 0.2337(8)
C7 C 0.9661(10) 0.8206(6) 0.1237(9)
C8 C 0.0577(10) 0.9569(7) -0.1659(9)
C9 C 0.1550(10) 0.8947(7) -0.1597(9)
C10 C 0.1819(11) 0.8592(7) -0.2431(9)
H4 H 0.1382 0.8716 -0.3070
C11 C 0.2729(12) 0.8057(7) -0.2318(11)
H5 H 0.2942 0.7816 -0.2875
C12 C 0.3333(11) 0.7879(7) -0.1347(10)
H6 H 0.3953 0.7510 -0.1234
C13 C 0.2989(10) 0.8266(7) -0.0558(9)
C14 C 0.3587(10) 0.8112(7) 0.0549(10)
C15 C 0.6353(9) 0.9280(6) 0.0211(8)
C16 C 0.6238(10) 0.9354(6) 0.1281(8)
C17 C 0.6028(10) 1.0024(7) 0.1732(8)
H7 H 0.5917 1.0470 0.1352
C18 C 0.5975(12) 1.0049(7) 0.2762(9)
H8 H 0.5805 1.0503 0.3065
C19 C 0.6182(11) 0.9391(7) 0.3307(9)
H9 H 0.6171 0.9390 0.3994
C20 C 0.6409(10) 0.8718(7) 0.2818(8)
C21 C 0.6645(10) 0.7956(7) 0.3327(8)
O12C O 0.6733(9) 0.7044(5) -0.0730(6)
O5_2 O 1.0494(7) 0.9892(4) -0.0837(6)
O5B O 0.9506(7) 1.0108(4) 0.0837(6)
O7_2 O 1.3237(7) 0.8494(5) 0.1199(6)
O9B O 1.3476(7) 1.0143(4) 0.0255(6)
N2_2 N 1.2118(8) 0.8788(5) -0.0660(7)
Ce2_2 Ce 0.17257(5) 0.95801(3) 0.09243(5)
Ce2B Ce -0.17257(5) 1.04199(3) -0.09243(5)
Ce2B_2 Ce 0.82743(5) 1.04199(3) -0.09243(5)
Ce1C Ce 0.65663(5) 0.76078(3) 0.59280(5)
loop_
_geom_bond_atom_site_label_1
_geom_bond_atom_site_label_2
_geom_bond_site_symmetry_1
_geom_bond_site_symmetry_2
Ce1 O4 1_555 1_555
Ce2 O1 1_555 1_555
O1 C1 1_555 1_555
O2 C1 1_555 1_555
O3 Ce2 1_555 1_555
O4 C7 1_555 1_555
O5 C8 1_555 1_555
O6 C8 1_555 1_555
O7 C14 1_555 1_555
O8 Ce1 1_555 1_555
O9 C15 1_555 1_555
O10 Ce1 1_555 1_555
O11 Ce1 1_555 1_555
O12 C21 1_555 1_555
O13 Ce2 1_555 1_555
O14 Ce1 1_555 1_555
O15 Ce1 1_555 1_555
N1 Ce2 1_555 1_555
N2 C9 1_555 1_555
N3 Ce1 1_555 1_555
C1 C2 1_555 1_555
C2 N1 1_555 1_555
C3 C2 1_555 1_555
H1 C3 1_555 1_555
C4 C3 1_555 1_555
H2 C4 1_555 1_555
C5 C4 1_555 1_555
H3 C5 1_555 1_555
C6 N1 1_555 1_555
C7 O3 1_555 1_555
C8 C9 1_555 1_555
C9 C10 1_555 1_555
C10 H4 1_555 1_555
C11 C10 1_555 1_555
H5 C11 1_555 1_555
C12 C11 1_555 1_555
H6 C12 1_555 1_555
C13 N2 1_555 1_555
C14 O8 1_555 1_555
C15 O11 1_555 1_555
C16 N3 1_555 1_555
C17 C16 1_555 1_555
H7 C17 1_555 1_555
C18 C17 1_555 1_555
H8 C18 1_555 1_555
C19 C18 1_555 1_555
H9 C19 1_555 1_555
C20 N3 1_555 1_555
C21 O10 1_555 1_555
O12C Ce1 1_555 1_555
O5_2 Ce2 1_555 1_555
O5B Ce2 1_555 1_555
O7_2 Ce2 1_555 1_555
O9B Ce2 1_555 1_555
N2_2 Ce2 1_555 1_555
Ce2_2 O5 1_555 1_555
Ce2B O5 1_555 1_555
Ce2B_2 O9 1_555 1_555
Ce1C O12 1_555 1_555
O7 Ce2_2 1_555 1_555
N2 Ce2_2 1_555 1_555
C5 C6 1_555 1_555
C6 C7 1_555 1_555
C12 C13 1_555 1_555
C13 C14 1_555 1_555
C15 C16 1_555 1_555
C19 C20 1_555 1_555
C20 C21 1_555 1_555
O5_2 Ce2B_2 1_555 1_555
O5B Ce2B_2 1_555 1_555

#END
