
#######################################################################
#
#                 Cambridge Crystallographic Data Centre
#                                CCDC 
#
#######################################################################
#
# If this CIF has been generated from an entry in the Cambridge 
# Structural Database, then it will include bibliographic, chemical, 
# crystal, experimental, refinement or atomic coordinate data resulting 
# from the CCDC's data processing and validation procedures.
#
#######################################################################

data_AYABIM
_symmetry_cell_setting           monoclinic
_symmetry_space_group_name_H-M   'C 2/c'
_symmetry_Int_Tables_number      15
_space_group_name_Hall           '-C 2yn'
loop_
_symmetry_equiv_pos_site_id
_symmetry_equiv_pos_as_xyz
1 x,y,z
2 -x,y,1/2-z
3 1/2+x,1/2+y,z
4 1/2-x,1/2+y,1/2-z
5 -x,-y,-z
6 x,-y,1/2+z
7 1/2-x,1/2-y,-z
8 1/2+x,1/2-y,1/2+z
_cell_length_a                   15.0444(13)
_cell_length_b                   15.9118(13)
_cell_length_c                   19.0246(16)
_cell_angle_alpha                90
_cell_angle_beta                 110.337(2)
_cell_angle_gamma                90
_cell_volume                     4270.29
loop_
_atom_site_label
_atom_site_type_symbol
_atom_site_fract_x
_atom_site_fract_y
_atom_site_fract_z
Cd1 Cd 0.91448(2) 0.135673(18) 0.310527(15)
C1 C 0.9319(3) 0.6133(3) 0.3117(2)
O1 O 0.7877(2) 0.12825(18) 0.35969(15)
O2 O 0.8372(2) -0.05023(19) 0.71689(15)
N1 N 0.8604(2) 0.2575(2) 0.23640(18)
N2 N 0.9844(2) 0.2565(2) 0.37930(18)
C2 C 0.8584(3) 0.4088(3) 0.2311(2)
C3 C 0.8956(3) 0.4842(3) 0.2716(2)
O3 O 0.9232(2) 0.0695(2) 0.42439(16)
C4 C 0.7662(4) 0.3289(3) 0.1248(3)
H1 H 0.7245 0.3256 0.0756
C5 C 0.9951(3) 0.4078(3) 0.3828(2)
N3 N 0.8783(3) 0.5670(2) 0.2527(2)
C6 C 0.8417(3) 0.0921(3) 0.4183(2)
N4 N 0.9844(3) 0.5657(2) 0.36858(19)
C7 C 0.8905(3) 0.3331(2) 0.2692(2)
C8 C 0.9619(3) 0.4848(3) 0.3439(2)
C9 C 0.8050(3) 0.0768(2) 0.4813(2)
C10 C 0.8502(3) 0.0207(2) 0.5388(2)
H2 H 0.9021 -0.0100 0.5372
C11 C 0.7996(3) 0.2564(3) 0.1659(2)
H3 H 0.7788 0.2047 0.1434
C12 C 0.9588(3) 0.3321(3) 0.3458(2)
C13 C 0.8181(3) 0.0104(2) 0.5989(2)
C14 C 1.0847(4) 0.3267(3) 0.4885(3)
H4 H 1.1277 0.3224 0.5373
C15 C 0.7275(3) 0.1215(3) 0.4834(3)
H5 H 0.6962 0.1581 0.4446
C16 C 1.0458(3) 0.2546(3) 0.4489(2)
H6 H 1.0636 0.2028 0.4720
C17 C 0.7955(3) 0.4055(3) 0.1575(2)
H7 H 0.7737 0.4548 0.1309
C18 C 1.0602(3) 0.4041(3) 0.4563(2)
H8 H 1.0861 0.4528 0.4824
C19 C 0.8777(4) 0.7551(3) 0.2549(3)
H9 H 0.8399 0.7292 0.2109
C20 C 0.6964(4) 0.1121(3) 0.5428(3)
H10 H 0.6450 0.1433 0.5445
C21 C 0.8775(4) 0.8387(3) 0.2589(3)
H11 H 0.8402 0.8711 0.2189
C22 C 0.7408(3) 0.0567(3) 0.6000(2)
H12 H 0.7186 0.0504 0.6396
C23 C 0.9324(3) 0.7054(3) 0.3140(2)
C24 C 0.9894(4) 0.7461(3) 0.3779(3)
H13 H 1.0278 0.7138 0.4176
N5 N 0.9921(4) 0.8310(3) 0.3855(3)
C25 C 0.9335(5) 0.8746(3) 0.3234(4)
H14 H 0.9327 0.9329 0.3266
O4 O 0.9343(2) -0.0915(2) 0.65908(17)
C26 C 0.8674(3) -0.0474(3) 0.6628(2)
H15 H 0.841(3) 0.584(2) 0.221(2)
Cd1E Cd 0.91448(2) -0.135673(18) 0.810527(15)
Cd1D Cd 1.08552(2) -0.135673(18) 0.689473(15)
O2E O 0.8372(2) 0.05023(19) 0.21689(15)
O4D O 1.0657(2) 0.0915(2) 0.34092(17)
loop_
_geom_bond_atom_site_label_1
_geom_bond_atom_site_label_2
_geom_bond_site_symmetry_1
_geom_bond_site_symmetry_2
Cd1 O1 1_555 1_555
C1 N3 1_555 1_555
O1 C6 1_555 1_555
O2 C26 1_555 1_555
N1 Cd1 1_555 1_555
N2 Cd1 1_555 1_555
C2 C3 1_555 1_555
C3 N3 1_555 1_555
O3 Cd1 1_555 1_555
C4 H1 1_555 1_555
C5 C8 1_555 1_555
N3 H15 1_555 1_555
C6 O3 1_555 1_555
N4 C1 1_555 1_555
C7 N1 1_555 1_555
C8 C3 1_555 1_555
C9 C6 1_555 1_555
C10 C9 1_555 1_555
H2 C10 1_555 1_555
C11 N1 1_555 1_555
H3 C11 1_555 1_555
C12 N2 1_555 1_555
C13 C10 1_555 1_555
C14 H4 1_555 1_555
C15 C9 1_555 1_555
H5 C15 1_555 1_555
C16 N2 1_555 1_555
H6 C16 1_555 1_555
C17 C2 1_555 1_555
H7 C17 1_555 1_555
C18 C5 1_555 1_555
H8 C18 1_555 1_555
C19 H9 1_555 1_555
C20 C15 1_555 1_555
H10 C20 1_555 1_555
C21 C19 1_555 1_555
H11 C21 1_555 1_555
C22 C13 1_555 1_555
H12 C22 1_555 1_555
C23 C1 1_555 1_555
C24 C23 1_555 1_555
H13 C24 1_555 1_555
N5 C24 1_555 1_555
C25 C21 1_555 1_555
H14 C25 1_555 1_555
O4 C26 1_555 1_555
C26 C13 1_555 1_555
Cd1E O2 1_555 1_555
Cd1D O4 1_555 1_555
O2E Cd1 1_555 1_555
O4D Cd1 1_555 1_555
C2 C7 1_555 1_555
C4 C11 1_555 1_555
C4 C17 1_555 1_555
C5 C12 1_555 1_555
N4 C8 1_555 1_555
C7 C12 1_555 1_555
C14 C16 1_555 1_555
C14 C18 1_555 1_555
C19 C23 1_555 1_555
C20 C22 1_555 1_555
N5 C25 1_555 1_555

#END
