
#######################################################################
#
#                 Cambridge Crystallographic Data Centre
#                                CCDC 
#
#######################################################################
#
# If this CIF has been generated from an entry in the Cambridge 
# Structural Database, then it will include bibliographic, chemical, 
# crystal, experimental, refinement or atomic coordinate data resulting 
# from the CCDC's data processing and validation procedures.
#
#######################################################################

data_AYALUH
_symmetry_cell_setting           triclinic
_symmetry_space_group_name_H-M   'P -1'
_symmetry_Int_Tables_number      2
_space_group_name_Hall           '-P 1'
loop_
_symmetry_equiv_pos_site_id
_symmetry_equiv_pos_as_xyz
1 x,y,z
2 -x,-y,-z
_cell_length_a                   8.1450(16)
_cell_length_b                   9.5740(19)
_cell_length_c                   10.180(2)
_cell_angle_alpha                108.01(3)
_cell_angle_beta                 93.55(3)
_cell_angle_gamma                105.30(3)
_cell_volume                     719.219
loop_
_atom_site_label
_atom_site_type_symbol
_atom_site_fract_x
_atom_site_fract_y
_atom_site_fract_z
Mn1 Mn 0.65275(4) 0.97027(3) 0.64234(3)
N1 N 0.6500(2) 0.77686(19) 0.44491(18)
C1 C 0.7581(3) 0.7990(2) 0.3565(2)
H1 H 0.8359 0.8964 0.3777
C2 C 0.7623(3) 0.6861(2) 0.2345(2)
H2 H 0.8414 0.7084 0.1762
C3 C 0.6488(3) 0.5401(2) 0.1993(2)
C4 C 0.6465(3) 0.4145(2) 0.0696(2)
C5 C 0.7519(4) 0.4369(3) -0.0275(2)
H3 H 0.8267 0.5341 -0.0133
C6 C 0.7469(4) 0.3155(3) -0.1457(3)
H4 H 0.8193 0.3342 -0.2095
N2 N 0.6445(2) 0.1739(2) -0.17300(18)
C7 C 0.5419(3) 0.1528(3) -0.0798(2)
H5 H 0.4675 0.0547 -0.0971
C8 C 0.5391(3) 0.2673(2) 0.0405(2)
H6 H 0.4649 0.2455 0.1021
C9 C 0.5356(3) 0.5164(3) 0.2921(2)
H7 H 0.4566 0.4201 0.2738
C10 C 0.5406(4) 0.6355(2) 0.4112(2)
H8 H 0.4634 0.6166 0.4717
O1 O 0.7187(3) 1.1271(2) 0.5343(2)
O2 O 0.6042(2) 1.1427(2) 0.33896(17)
C11 C 0.7277(3) 1.1709(2) 0.4312(2)
C12 C 0.9008(3) 1.2719(3) 0.4246(3)
H9 H 0.9165 1.3745 0.4898
H10 H 0.9886 1.2336 0.4571
C13 C 0.9322(4) 1.2852(3) 0.2838(3)
H11 H 0.8364 1.3099 0.2446
H12 H 1.0353 1.3701 0.2971
C14 C 0.9535(3) 1.1417(3) 0.1799(3)
H13 H 0.9699 1.1585 0.0917
H14 H 0.8492 1.0571 0.1632
C15 C 1.1045(3) 1.0986(3) 0.2307(2)
O3 O 1.0763(2) 0.9895(2) 0.2778(2)
O4 O 1.2543(2) 1.1748(2) 0.2331(2)
N2_2 N 0.6445(2) 1.1739(2) 0.82700(18)
O2A O 0.3958(2) 0.8573(2) 0.66104(17)
O3A O 0.9237(2) 1.0105(2) 0.7222(2)
O4A O 0.7457(2) 0.8252(2) 0.7669(2)
Mn1_2 Mn 0.65275(4) -0.02973(3) -0.35766(3)
Mn1A Mn 0.34725(4) 1.02973(3) 0.35766(3)
Mn1A_2 Mn 1.34725(4) 1.02973(3) 0.35766(3)
loop_
_geom_bond_atom_site_label_1
_geom_bond_atom_site_label_2
_geom_bond_site_symmetry_1
_geom_bond_site_symmetry_2
Mn1 N1 1_555 1_555
N1 C1 1_555 1_555
C1 H1 1_555 1_555
C2 C1 1_555 1_555
H2 C2 1_555 1_555
C3 C2 1_555 1_555
C4 C3 1_555 1_555
C5 C4 1_555 1_555
H3 C5 1_555 1_555
C6 C5 1_555 1_555
H4 C6 1_555 1_555
N2 C6 1_555 1_555
C7 N2 1_555 1_555
H5 C7 1_555 1_555
C8 C4 1_555 1_555
H6 C8 1_555 1_555
C9 C3 1_555 1_555
H7 C9 1_555 1_555
C10 N1 1_555 1_555
H8 C10 1_555 1_555
O1 Mn1 1_555 1_555
O2 C11 1_555 1_555
C11 O1 1_555 1_555
C12 C11 1_555 1_555
H9 C12 1_555 1_555
H10 C12 1_555 1_555
C13 C12 1_555 1_555
H11 C13 1_555 1_555
H12 C13 1_555 1_555
C14 C13 1_555 1_555
H13 C14 1_555 1_555
H14 C14 1_555 1_555
C15 C14 1_555 1_555
O3 C15 1_555 1_555
O4 C15 1_555 1_555
N2_2 Mn1 1_555 1_555
O2A Mn1 1_555 1_555
O3A Mn1 1_555 1_555
O4A Mn1 1_555 1_555
Mn1_2 N2 1_555 1_555
Mn1A O2 1_555 1_555
Mn1A_2 O3 1_555 1_555
C7 C8 1_555 1_555
C9 C10 1_555 1_555
O4 Mn1A_2 1_555 1_555

#END
