
#######################################################################
#
#                 Cambridge Crystallographic Data Centre
#                                CCDC 
#
#######################################################################
#
# If this CIF has been generated from an entry in the Cambridge 
# Structural Database, then it will include bibliographic, chemical, 
# crystal, experimental, refinement or atomic coordinate data resulting 
# from the CCDC's data processing and validation procedures.
#
#######################################################################

data_AYAMAO
_symmetry_cell_setting           triclinic
_symmetry_space_group_name_H-M   'P -1'
_symmetry_Int_Tables_number      2
_space_group_name_Hall           '-P 1'
loop_
_symmetry_equiv_pos_site_id
_symmetry_equiv_pos_as_xyz
1 x,y,z
2 -x,-y,-z
_cell_length_a                   8.5440(10)
_cell_length_b                   8.8810(10)
_cell_length_c                   10.949(2)
_cell_angle_alpha                108.810(10)
_cell_angle_beta                 95.400(10)
_cell_angle_gamma                101.940(10)
_cell_volume                     757.728
loop_
_atom_site_label
_atom_site_type_symbol
_atom_site_fract_x
_atom_site_fract_y
_atom_site_fract_z
Mn1 Mn 0.66025(6) 0.98156(6) 0.63869(5)
N1 N 0.6724(4) 0.7827(4) 0.4489(3)
C1 C 0.7831(5) 0.8074(4) 0.3740(4)
H1 H 0.8624 0.9064 0.4040
C2 C 0.7849(5) 0.6932(4) 0.2542(4)
H2 H 0.8632 0.7167 0.2050
C3 C 0.6700(4) 0.5431(4) 0.2072(3)
C4 C 0.6645(4) 0.4181(4) 0.0777(3)
C5 C 0.7644(7) 0.4462(6) -0.0075(5)
H3 H 0.8411 0.5463 0.0166
C6 C 0.7530(6) 0.3282(6) -0.1286(4)
H4 H 0.8224 0.3532 -0.1837
N2 N 0.6511(4) 0.1838(4) -0.1705(3)
C7 C 0.5533(7) 0.1564(5) -0.0898(4)
H5 H 0.4773 0.0554 -0.1170
C8 C 0.5560(6) 0.2683(5) 0.0333(4)
H6 H 0.4836 0.2409 0.0857
C9 C 0.5575(5) 0.5163(5) 0.2865(4)
H7 H 0.4786 0.4173 0.2601
C10 C 0.5639(5) 0.6377(4) 0.4045(4)
H8 H 0.4877 0.6171 0.4562
O1 O 0.7499(4) 1.1689(3) 0.5671(2)
O2 O 0.5899(3) 1.1069(4) 0.3780(3)
C11 C 0.7180(4) 1.1803(4) 0.4580(3)
C12 C 0.8458(5) 1.2889(5) 0.4171(4)
H9 H 0.7954 1.3113 0.3439
H10 H 0.9260 1.2293 0.3863
C13 C 0.9321(5) 1.4504(5) 0.5230(4)
H11 H 0.9779 1.4295 0.5986
H12 H 0.8541 1.5145 0.5497
O3 O 0.7054(3) 0.8257(4) 0.7593(3)
O4 O 0.9120(3) 0.9891(4) 0.7274(3)
C14 C 0.8555(5) 0.8890(4) 0.7802(3)
C15 C 0.9665(6) 0.8471(5) 0.8716(4)
C16 C 0.8988(10) 0.8457(11) 0.9902(8)
C17 C 1.1242(10) 0.9839(11) 0.9284(8)
H13 H 0.9904 0.7435 0.8265
H14 H 1.1557 0.9737 0.8564
H15 H 1.1987 0.9648 0.9821
H16 H 0.9658 0.8008 1.0395
H17 H 0.7935 0.7711 0.9538
C13A C 1.0679(5) 1.5496(5) 0.4770(4)
C12A C 1.1542(5) 1.7111(5) 0.5829(4)
C11A C 1.2820(4) 1.8197(4) 0.5420(3)
O1A O 1.2501(4) 1.8311(3) 0.4329(2)
O2A O 1.4101(3) 1.8931(4) 0.6220(3)
H9A H 1.2046 1.6887 0.6561
H10A H 1.0740 1.7707 0.6137
H11A H 1.0221 1.5705 0.4014
H12A H 1.1459 1.4855 0.4503
C17A C 0.8758(10) 1.0161(11) 1.0716(8)
C15A C 1.0335(6) 1.1529(5) 1.1284(4)
C14A C 1.1445(5) 1.1110(4) 1.2198(3)
O3A O 1.2946(3) 1.1743(4) 1.2407(3)
O4A O 1.0880(3) 1.0109(4) 1.2726(3)
C16A C 1.1012(10) 1.1543(11) 1.0098(8)
H16A H 1.0342 1.1992 0.9605
H17A H 1.2065 1.2289 1.0462
H13A H 1.0096 1.2565 1.1735
H14A H 0.8443 1.0263 1.1436
H15A H 0.8013 1.0352 1.0179
N1_2 N 0.6724(4) 1.7827(4) 1.4489(3)
C1_2 C 0.7831(5) 1.8074(4) 1.3740(4)
H1_2 H 0.8624 1.9064 1.4040
C2_2 C 0.7849(5) 1.6932(4) 1.2542(4)
H2_2 H 0.8632 1.7167 1.2050
C3_2 C 0.6700(4) 1.5431(4) 1.2072(3)
C4_2 C 0.6645(4) 1.4181(4) 1.0777(3)
C5_2 C 0.7644(7) 1.4462(6) 0.9925(5)
H3_2 H 0.8411 1.5463 1.0166
C6_2 C 0.7530(6) 1.3282(6) 0.8714(4)
H4_2 H 0.8224 1.3532 0.8163
N2_2 N 0.6511(4) 1.1838(4) 0.8295(3)
C7_2 C 0.5533(7) 1.1564(5) 0.9102(4)
H5_2 H 0.4773 1.0554 0.8830
C8_2 C 0.5560(6) 1.2683(5) 1.0333(4)
H6_2 H 0.4836 1.2409 1.0857
C9_2 C 0.5575(5) 1.5163(5) 1.2865(4)
H7_2 H 0.4786 1.4173 1.2601
C10_2 C 0.5639(5) 1.6377(4) 1.4045(4)
H8_2 H 0.4877 1.6171 1.4562
Mn1_2 Mn 0.66025(6) 1.98156(6) 1.63869(5)
O2A_2 O 0.4101(3) 0.8931(4) 0.6220(3)
Mn1_3 Mn 0.66025(6) -0.01844(6) -0.36131(5)
Mn1A Mn 0.33975(6) 1.01844(6) 0.36131(5)
Mn1A_2 Mn 1.33975(6) 2.01844(6) 0.36131(5)
Mn1_4 Mn 1.66025(6) 1.98156(6) 0.63869(5)
Mn1A_3 Mn 1.33975(6) 1.01844(6) 1.36131(5)
N2_3 N 0.6511(4) 2.1838(4) 1.8295(3)
O1_2 O 0.7499(4) 2.1689(3) 1.5671(2)
O2A_3 O 0.4101(3) 1.8931(4) 1.6220(3)
O3_2 O 0.7054(3) 1.8257(4) 1.7593(3)
O4_2 O 0.9120(3) 1.9891(4) 1.7274(3)
loop_
_geom_bond_atom_site_label_1
_geom_bond_atom_site_label_2
_geom_bond_site_symmetry_1
_geom_bond_site_symmetry_2
Mn1 N1 1_555 1_555
N1 C1 1_555 1_555
C1 H1 1_555 1_555
C2 C1 1_555 1_555
H2 C2 1_555 1_555
C3 C2 1_555 1_555
C4 C3 1_555 1_555
C5 C4 1_555 1_555
H3 C5 1_555 1_555
C6 C5 1_555 1_555
H4 C6 1_555 1_555
N2 C6 1_555 1_555
C7 N2 1_555 1_555
H5 C7 1_555 1_555
C8 C4 1_555 1_555
H6 C8 1_555 1_555
C9 C3 1_555 1_555
H7 C9 1_555 1_555
C10 N1 1_555 1_555
H8 C10 1_555 1_555
O1 Mn1 1_555 1_555
O2 C11 1_555 1_555
C11 O1 1_555 1_555
C12 C11 1_555 1_555
H9 C12 1_555 1_555
H10 C12 1_555 1_555
C13 C12 1_555 1_555
H11 C13 1_555 1_555
H12 C13 1_555 1_555
O3 Mn1 1_555 1_555
O4 Mn1 1_555 1_555
C14 O3 1_555 1_555
C15 C14 1_555 1_555
C16 C15 1_555 1_555
C17 C15 1_555 1_555
H13 C15 1_555 1_555
H14 C17 1_555 1_555
H15 C17 1_555 1_555
H16 C16 1_555 1_555
H17 C16 1_555 1_555
C13A C13 1_555 1_555
C12A C13A 1_555 1_555
C11A C12A 1_555 1_555
O1A C11A 1_555 1_555
O2A C11A 1_555 1_555
H9A C12A 1_555 1_555
H10A C12A 1_555 1_555
H11A C13A 1_555 1_555
H12A C13A 1_555 1_555
C17A C16 1_555 1_555
C15A C17A 1_555 1_555
C14A C15A 1_555 1_555
O3A C14A 1_555 1_555
O4A C14A 1_555 1_555
C16A C17 1_555 1_555
H16A C16A 1_555 1_555
H17A C16A 1_555 1_555
H13A C15A 1_555 1_555
H14A C17A 1_555 1_555
H15A C17A 1_555 1_555
N1_2 C1_2 1_555 1_555
C1_2 H1_2 1_555 1_555
C2_2 C1_2 1_555 1_555
H2_2 C2_2 1_555 1_555
C3_2 C2_2 1_555 1_555
C4_2 C3_2 1_555 1_555
C5_2 C4_2 1_555 1_555
H3_2 C5_2 1_555 1_555
C6_2 C5_2 1_555 1_555
H4_2 C6_2 1_555 1_555
N2_2 Mn1 1_555 1_555
C7_2 N2_2 1_555 1_555
H5_2 C7_2 1_555 1_555
C8_2 C4_2 1_555 1_555
H6_2 C8_2 1_555 1_555
C9_2 C3_2 1_555 1_555
H7_2 C9_2 1_555 1_555
C10_2 N1_2 1_555 1_555
H8_2 C10_2 1_555 1_555
Mn1_2 N1_2 1_555 1_555
O2A_2 Mn1 1_555 1_555
Mn1_3 N2 1_555 1_555
Mn1A O2 1_555 1_555
Mn1A_2 O1A 1_555 1_555
Mn1_4 O2A 1_555 1_555
Mn1A_3 O3A 1_555 1_555
N2_3 Mn1_2 1_555 1_555
O1_2 Mn1_2 1_555 1_555
O2A_3 Mn1_2 1_555 1_555
O3_2 Mn1_2 1_555 1_555
O4_2 Mn1_2 1_555 1_555
C7 C8 1_555 1_555
C9 C10 1_555 1_555
O4 C14 1_555 1_555
C15A C16A 1_555 1_555
O4A Mn1A_3 1_555 1_555
C6_2 N2_2 1_555 1_555
C7_2 C8_2 1_555 1_555
C9_2 C10_2 1_555 1_555

#END
