
#######################################################################
#
#                 Cambridge Crystallographic Data Centre
#                                CCDC 
#
#######################################################################
#
# If this CIF has been generated from an entry in the Cambridge 
# Structural Database, then it will include bibliographic, chemical, 
# crystal, experimental, refinement or atomic coordinate data resulting 
# from the CCDC's data processing and validation procedures.
#
#######################################################################

data_AYAZIK
_symmetry_cell_setting           monoclinic
_symmetry_space_group_name_H-M   'C 2/c'
_symmetry_Int_Tables_number      15
_space_group_name_Hall           '-C 2yn'
loop_
_symmetry_equiv_pos_site_id
_symmetry_equiv_pos_as_xyz
1 x,y,z
2 -x,y,1/2-z
3 1/2+x,1/2+y,z
4 1/2-x,1/2+y,1/2-z
5 -x,-y,-z
6 x,-y,1/2+z
7 1/2-x,1/2-y,-z
8 1/2+x,1/2-y,1/2+z
_cell_length_a                   16.075(6)
_cell_length_b                   12.960(5)
_cell_length_c                   15.681(7)
_cell_angle_alpha                90
_cell_angle_beta                 126.83(2)
_cell_angle_gamma                90
_cell_volume                     2614.85
loop_
_atom_site_label
_atom_site_type_symbol
_atom_site_fract_x
_atom_site_fract_y
_atom_site_fract_z
Cd1 Cd 0.393937(17) 0.231595(19) 0.108493(17)
N1 N 0.4352(2) 0.3092(2) 0.0090(2)
N2 N 0.5286(2) 0.3844(2) -0.0325(2)
O1 O 0.25569(17) 0.32928(18) 0.06604(18)
O2 O 0.33090(19) 0.4470(2) 0.1943(2)
O3 O 0.0694(2) 0.67593(19) 0.2031(2)
O4 O 0.1390(2) 0.5800(2) 0.3449(2)
O5 O 0.5000 0.3539(3) 0.2500
C1 C 0.2541(3) 0.4100(3) 0.1116(3)
C2 C 0.1495(3) 0.4618(3) 0.0555(3)
H1 H 0.0987 0.4096 0.0396
H2 H 0.1300 0.4886 -0.0119
C3 C 0.1417(3) 0.5492(3) 0.1149(3)
H3 H 0.2028 0.5926 0.1474
H4 H 0.0814 0.5911 0.0643
C4 C 0.1327(3) 0.5122(3) 0.2002(3)
H5 H 0.0767 0.4621 0.1689
H6 H 0.1965 0.4767 0.2545
C5 C 0.1128(3) 0.5944(3) 0.2531(3)
C6 C 0.5287(3) 0.3421(3) 0.0453(3)
H7 H 0.5871 0.3365 0.1158
C7 C 0.3740(3) 0.3306(3) -0.0976(3)
H8 H 0.3035 0.3155 -0.1450
C8 C 0.4303(3) 0.3766(3) -0.1238(3)
H9 H 0.4068 0.3989 -0.1912
C9 C 0.6208(3) 0.4203(3) -0.0226(4)
H10 H 0.6615 0.4650 0.0391
H11 H 0.5988 0.4603 -0.0852
C10 C 0.6457(4) 0.2471(4) -0.0764(5)
H12 H 0.5744 0.2444 -0.1294
C11 C 0.6876(3) 0.3315(3) -0.0111(3)
C12 C 0.7923(3) 0.3346(4) 0.0650(4)
H13 H 0.8226 0.3917 0.1096
H14 H 0.548(2) 0.391(3) 0.258(3)
Cd1F Cd 1.106063(17) 0.268405(19) -0.108493(17)
Cd1F_2 Cd 0.106063(17) 0.268405(19) -0.108493(17)
Cd1B Cd -0.106063(17) 0.731595(19) 0.108493(17)
Cd1C Cd 0.106063(17) 0.731595(19) 0.391507(17)
Cd1A Cd 0.606063(17) 0.231595(19) 0.391507(17)
Cd1D Cd 0.606063(17) -0.231595(19) -0.108493(17)
Cd1E Cd 0.393937(17) -0.231595(19) -0.391507(17)
N1F N 1.0648(2) 0.1908(2) -0.0090(2)
N2F N 0.9714(2) 0.1156(2) 0.0325(2)
O1F O 0.24431(17) 0.17072(18) -0.06604(18)
O1F_2 O 1.24431(17) 0.17072(18) -0.06604(18)
O1_2 O 1.25569(17) 0.32928(18) 0.06604(18)
O2F O 0.16910(19) 0.0530(2) -0.1943(2)
O3F O 0.4306(2) -0.17593(19) -0.2031(2)
O3B O 0.5694(2) 0.17593(19) 0.2031(2)
O3D O 0.9306(2) 0.32407(19) -0.2031(2)
O4F O 0.3610(2) -0.0800(2) -0.3449(2)
O4C O 0.3610(2) 0.0800(2) 0.1551(2)
O4E O 1.1390(2) 0.4200(2) -0.1551(2)
O5F O 1.0000 0.1461(3) -0.2500
C1F C 0.2459(3) 0.0900(3) -0.1116(3)
C2F C 0.3505(3) 0.0382(3) -0.0555(3)
H1F H 0.4013 0.0904 -0.0396
H2F H 0.3700 0.0114 0.0119
C3F C 0.3583(3) -0.0492(3) -0.1149(3)
H3F H 0.2972 -0.0926 -0.1474
H4F H 0.4186 -0.0911 -0.0643
C4F C 0.3673(3) -0.0122(3) -0.2002(3)
H5F H 0.4233 0.0379 -0.1689
H6F H 0.3035 0.0233 -0.2545
C5F C 0.3872(3) -0.0944(3) -0.2531(3)
C6F C 0.9713(3) 0.1579(3) -0.0453(3)
H7F H 0.9129 0.1635 -0.1158
C7F C 1.1260(3) 0.1694(3) 0.0976(3)
H8F H 1.1965 0.1845 0.1450
C8F C 1.0697(3) 0.1234(3) 0.1238(3)
H9F H 1.0932 0.1011 0.1912
C9F C 0.8792(3) 0.0797(3) 0.0226(4)
H10F H 0.8385 0.0350 -0.0391
H11F H 0.9012 0.0397 0.0852
C10F C 0.8543(4) 0.2529(4) 0.0764(5)
H12F H 0.9256 0.2556 0.1294
C11F C 0.8124(3) 0.1685(3) 0.0111(3)
C12F C 0.7077(3) 0.1654(4) -0.0650(4)
H13F H 0.6774 0.1083 -0.1096
H14A H 0.452(2) 0.391(3) 0.242(3)
H14F H 0.952(2) 0.109(3) -0.258(3)
H14G H 1.048(2) 0.109(3) -0.242(3)
loop_
_geom_bond_atom_site_label_1
_geom_bond_atom_site_label_2
_geom_bond_site_symmetry_1
_geom_bond_site_symmetry_2
Cd1 N1 1_555 1_555
N1 C6 1_555 1_555
N2 C6 1_555 1_555
O1 Cd1 1_555 1_555
O2 C1 1_555 1_555
O3 C5 1_555 1_555
O4 C5 1_555 1_555
O5 Cd1 1_555 1_555
C1 O1 1_555 1_555
C2 C1 1_555 1_555
H1 C2 1_555 1_555
H2 C2 1_555 1_555
C3 C2 1_555 1_555
H3 C3 1_555 1_555
H4 C3 1_555 1_555
C4 C3 1_555 1_555
H5 C4 1_555 1_555
H6 C4 1_555 1_555
C5 C4 1_555 1_555
C6 H7 1_555 1_555
C7 N1 1_555 1_555
H8 C7 1_555 1_555
C8 N2 1_555 1_555
H9 C8 1_555 1_555
C9 N2 1_555 1_555
H10 C9 1_555 1_555
H11 C9 1_555 1_555
C10 H12 1_555 1_555
C11 C9 1_555 1_555
C12 C11 1_555 1_555
H13 C12 1_555 1_555
H14 O5 1_555 1_555
Cd1F N1F 1_555 1_555
Cd1F_2 O1 1_555 1_555
Cd1B O3 1_555 1_555
Cd1C O4 1_555 1_555
Cd1A O5 1_555 1_555
Cd1D O3F 1_555 1_555
Cd1E O4F 1_555 1_555
N1F C6F 1_555 1_555
N2F C6F 1_555 1_555
O1F Cd1 1_555 1_555
O1F_2 Cd1F 1_555 1_555
O1_2 Cd1F 1_555 1_555
O2F C1F 1_555 1_555
O3F C5F 1_555 1_555
O3B Cd1 1_555 1_555
O3D Cd1F 1_555 1_555
O4F C5F 1_555 1_555
O4C Cd1 1_555 1_555
O4E Cd1F 1_555 1_555
O5F Cd1F 1_555 1_555
C1F O1F 1_555 1_555
C2F C1F 1_555 1_555
H1F C2F 1_555 1_555
H2F C2F 1_555 1_555
C3F C2F 1_555 1_555
H3F C3F 1_555 1_555
H4F C3F 1_555 1_555
C4F C3F 1_555 1_555
H5F C4F 1_555 1_555
H6F C4F 1_555 1_555
C5F C4F 1_555 1_555
C6F H7F 1_555 1_555
C7F N1F 1_555 1_555
H8F C7F 1_555 1_555
C8F N2F 1_555 1_555
H9F C8F 1_555 1_555
C9F N2F 1_555 1_555
H10F C9F 1_555 1_555
H11F C9F 1_555 1_555
C10F C12 1_555 1_555
H12F C10F 1_555 1_555
C11F C9F 1_555 1_555
C12F C10 1_555 1_555
H13F C12F 1_555 1_555
H14A O5 1_555 1_555
H14F O5F 1_555 1_555
H14G O5F 1_555 1_555
C7 C8 1_555 1_555
C10 C11 1_555 1_555
Cd1F_2 O1F 1_555 1_555
C7F C8F 1_555 1_555
C10F C11F 1_555 1_555
C11F C12F 1_555 1_555

#END
