
#######################################################################
#
#                 Cambridge Crystallographic Data Centre
#                                CCDC 
#
#######################################################################
#
# If this CIF has been generated from an entry in the Cambridge 
# Structural Database, then it will include bibliographic, chemical, 
# crystal, experimental, refinement or atomic coordinate data resulting 
# from the CCDC's data processing and validation procedures.
#
#######################################################################

data_AYEDOY
_symmetry_cell_setting           monoclinic
_symmetry_space_group_name_H-M   'P n'
_symmetry_Int_Tables_number      7
_space_group_name_Hall           'P -2yac'
loop_
_symmetry_equiv_pos_site_id
_symmetry_equiv_pos_as_xyz
1 x,y,z
2 1/2+x,-y,1/2+z
_cell_length_a                   19.929(10)
_cell_length_b                   12.810(7)
_cell_length_c                   19.946(9)
_cell_angle_alpha                90
_cell_angle_beta                 90.00(1)
_cell_angle_gamma                90
_cell_volume                     5092.02
loop_
_atom_site_label
_atom_site_type_symbol
_atom_site_fract_x
_atom_site_fract_y
_atom_site_fract_z
U1 U 0.6952(6) 0.87397(15) 0.6252(7)
O1 O 0.687(2) 0.7390(12) 0.626(2)
O2 O 0.687(3) 1.0084(12) 0.621(3)
O3 O 0.7577(16) 0.878(3) 0.7228(14)
O4 O 0.7867(15) 0.881(3) 0.5532(16)
O5 O 1.0961(13) 0.133(3) 0.1850(14)
O6 O 1.1245(17) 0.128(3) 1.0331(15)
P1 P 0.8196(11) 0.8371(16) 0.7576(10)
C1 C 0.787(2) 0.832(4) 0.8410(14)
C2 C 0.746(2) 0.913(3) 0.8629(17)
H1 H 0.7361 0.9677 0.8342
C3 C 0.7203(17) 0.911(3) 0.9276(19)
H2 H 0.6929 0.9655 0.9422
C4 C 0.7353(18) 0.829(3) 0.9704(13)
H3 H 0.7180 0.8280 1.0137
C5 C 0.7762(19) 0.748(3) 0.9485(18)
H4 H 0.7863 0.6929 0.9772
C6 C 0.8021(18) 0.749(3) 0.884(2)
H5 H 0.8295 0.6951 0.8692
C7 C 0.845(2) 0.708(2) 0.7341(16)
C8 C 0.910(2) 0.702(2) 0.7095(18)
H6 H 0.9376 0.7605 0.7119
C9 C 0.9333(15) 0.610(3) 0.6814(17)
H7 H 0.9769 0.6064 0.6650
C10 C 0.8916(18) 0.523(2) 0.6779(17)
H8 H 0.9074 0.4614 0.6591
C11 C 0.8265(16) 0.529(2) 0.7025(17)
H9 H 0.7986 0.4705 0.7001
C12 C 0.8029(16) 0.621(3) 0.7306(16)
H10 H 0.7593 0.6245 0.7471
C13 C 0.8769(17) 0.946(2) 0.7561(10)
C14 C 0.8659(13) 1.036(2) 0.7186(13)
H11 H 0.8231 1.0513 0.7028
C15 C 0.9189(18) 1.1032(15) 0.7047(13)
H12 H 0.9115 1.1634 0.6796
C16 C 0.9829(16) 1.081(2) 0.7282(12)
H13 H 1.0183 1.1255 0.7189
C17 C 0.9939(15) 0.991(3) 0.7657(13)
H14 H 1.0367 0.9755 0.7815
C18 C 0.941(2) 0.924(2) 0.7797(11)
P2 P 0.8339(11) 0.8354(14) 0.5036(10)
C19 C 0.9179(13) 0.815(3) 0.5296(19)
C20 C 0.9390(19) 0.901(3) 0.567(2)
H15 H 0.9102 0.9575 0.5733
C21 C 1.003(2) 0.903(2) 0.5938(17)
H16 H 1.0174 0.9605 0.6186
C22 C 1.0463(13) 0.819(3) 0.5839(18)
H17 H 1.0893 0.8204 0.6021
C23 C 1.0251(16) 0.733(3) 0.5469(19)
H18 H 1.0539 0.6772 0.5402
C24 C 0.9609(19) 0.732(3) 0.5197(17)
H19 H 0.9467 0.6741 0.4949
C25 C 0.8054(18) 0.713(2) 0.473(2)
C26 C 0.7999(19) 0.629(3) 0.5166(17)
H20 H 0.8149 0.6343 0.5606
C27 C 0.772(2) 0.536(2) 0.4941(18)
H21 H 0.7681 0.4792 0.5230
C28 C 0.7493(19) 0.528(2) 0.4283(19)
H22 H 0.7306 0.4654 0.4132
C29 C 0.7549(19) 0.612(3) 0.3851(16)
H23 H 0.7399 0.6067 0.3411
C30 C 0.7830(19) 0.705(2) 0.408(2)
H24 H 0.7867 0.7619 0.3787
C31 C 0.8318(11) 0.9137(19) 0.4307(11)
C32 C 0.7994(10) 1.0092(16) 0.4373(10)
H25 H 0.7747 1.0238 0.4758
C33 C 0.8038(14) 1.0830(19) 0.3864(13)
H26 H 0.7821 1.1469 0.3908
C34 C 0.8405(12) 1.061(2) 0.3288(11)
H27 H 0.8435 1.1106 0.2948
C35 C 0.8730(12) 0.966(2) 0.3222(11)
H28 H 0.8976 0.9511 0.2837
C36 C 0.8686(14) 0.892(2) 0.3731(13)
P3 P 1.0621(10) 0.1674(13) 0.2481(9)
C37 C 0.9767(14) 0.179(4) 0.220(2)
C38 C 0.9486(18) 0.115(3) 0.171(2)
H29 H 0.9717 0.0565 0.1558
C39 C 0.8861(18) 0.139(3) 0.144(2)
H30 H 0.8673 0.0966 0.1112
C40 C 0.8516(14) 0.227(4) 0.166(2)
H31 H 0.8098 0.2431 0.1481
C41 C 0.8797(18) 0.291(4) 0.215(2)
H32 H 0.8567 0.3497 0.2297
C42 C 0.9422(18) 0.267(4) 0.242(2)
H33 H 0.9610 0.3096 0.2744
C43 C 1.0951(17) 0.291(2) 0.271(2)
C44 C 1.1212(17) 0.316(2) 0.3333(19)
H34 H 1.1228 0.2654 0.3670
C45 C 1.1450(18) 0.416(3) 0.3457(15)
H35 H 1.1625 0.4326 0.3876
C46 C 1.1427(18) 0.4910(19) 0.2955(18)
H36 H 1.1586 0.5580 0.3038
C47 C 1.1166(19) 0.466(2) 0.2329(16)
H37 H 1.1151 0.5162 0.1993
C48 C 1.0928(18) 0.366(3) 0.2205(17)
H38 H 1.0754 0.3490 0.1786
C49 C 1.0707(14) 0.0597(16) 0.3065(10)
C50 C 1.1194(13) -0.0171(19) 0.2989(11)
H39 H 1.1435 -0.0217 0.2591
C51 C 1.1319(17) -0.087(2) 0.3506(12)
H40 H 1.1644 -0.1385 0.3455
C52 C 1.0957(17) -0.080(2) 0.4101(12)
H41 H 1.1041 -0.1270 0.4447
C53 C 1.0471(17) -0.003(3) 0.4177(11)
H42 H 1.0229 0.0012 0.4575
C54 C 1.0345(18) 0.067(3) 0.3660(11)
P4 P 1.0728(11) 0.1725(15) 0.9864(10)
C55 C 1.099(2) 0.191(4) 0.9000(13)
C56 C 1.0832(18) 0.281(3) 0.8646(19)
H43 H 1.0535 0.3293 0.8828
C57 C 1.1115(19) 0.299(3) 0.8019(18)
H44 H 1.1008 0.3590 0.7782
C58 C 1.1558(18) 0.226(3) 0.7747(13)
H45 H 1.1747 0.2384 0.7327
C59 C 1.1718(18) 0.136(3) 0.8101(18)
H46 H 1.2014 0.0881 0.7918
C60 C 1.143(2) 0.119(3) 0.8727(17)
H47 H 1.1542 0.0583 0.8964
C61 C 1.052(2) 0.289(2) 1.0286(18)
C62 C 1.1013(17) 0.366(3) 1.0273(17)
H48 H 1.1438 0.3499 1.0109
C63 C 1.0872(16) 0.466(2) 1.0505(18)
H49 H 1.1203 0.5167 1.0497
C64 C 1.0237(18) 0.4890(19) 1.0750(18)
H50 H 1.0143 0.5559 1.0905
C65 C 0.9742(15) 0.413(3) 1.0763(19)
H51 H 0.9317 0.4282 1.0926
C66 C 0.9883(19) 0.313(2) 1.0531(19)
H52 H 0.9552 0.2614 1.0539
C67 C 0.9972(14) 0.097(2) 0.9858(18)
C68 C 1.0044(14) 0.007(3) 1.0234(16)
H53 H 1.0408 -0.0009 1.0521
C69 C 0.9572(18) -0.073(2) 1.0180(17)
H54 H 0.9620 -0.1334 1.0431
C70 C 0.9027(16) -0.061(2) 0.9751(18)
H55 H 0.8711 -0.1145 0.9715
C71 C 0.8955(14) 0.029(3) 0.9375(16)
H56 H 0.8590 0.0369 0.9088
C72 C 0.9427(17) 0.109(2) 0.9429(16)
O7 O 0.9381 0.8693 0.8249
O8 O 0.8997 0.8232 0.3725
O9 O 0.9866 0.1343 0.3655
O10 O 0.9459 0.1959 0.9119
O11 O 0.9930 0.6717 0.8659
O12 O 0.9345 0.6346 0.3398
O13 O 0.8986 0.3648 0.3894
O14 O 0.9288 0.4170 0.8789
C73 C 1.0019 0.8597 0.8618
H57 H 1.0386 0.8662 0.8301
H58 H 1.0054 0.9172 0.8932
C74 C 0.9459 0.8209 0.3137
H59 H 0.9766 0.8797 0.3146
H60 H 0.9210 0.8219 0.2719
C75 C 0.9762 0.2364 0.3677
H61 H 1.0195 0.2709 0.3689
H62 H 0.9542 0.2572 0.3265
C76 C 0.8977 0.2344 0.8666
H63 H 0.8910 0.1840 0.8309
H64 H 0.8553 0.2434 0.8897
C77 C 1.0096 0.7657 0.8972
H65 H 1.0562 0.7610 0.9110
H66 H 0.9829 0.7708 0.9377
C78 C 0.9839 0.7164 0.3228
H67 H 1.0071 0.6982 0.2817
H68 H 1.0168 0.7228 0.3584
C79 C 0.9343 0.2765 0.4269
H69 H 0.9620 0.3021 0.4633
H70 H 0.9032 0.2243 0.4435
C80 C 0.9195 0.3391 0.8362
H71 H 0.8859 0.3604 0.8039
H72 H 0.9611 0.3281 0.8119
C81 C 0.9880 0.5809 0.9080
H73 H 1.0292 0.5413 0.9034
H74 H 0.9854 0.6042 0.9542
C82 C 0.9626 0.5369 0.3490
H75 H 1.0013 0.5509 0.3770
H76 H 0.9808 0.5204 0.3051
C83 C 0.9399 0.4415 0.3722
H77 H 0.9642 0.4434 0.4143
H78 H 0.9684 0.3993 0.3435
C84 C 0.9353 0.5146 0.8965
H79 H 0.9088 0.5515 0.8632
H80 H 0.9094 0.5189 0.9376
U1A U 1.1952(6) 0.12603(15) 0.1252(7)
U1A_2 U 1.1952(6) 0.12603(15) 1.1252(7)
O5A O 0.5961(13) 0.867(3) 0.6850(14)
O6A O 0.6245(17) 0.872(3) 0.5331(15)
O15 O 0.715(3) 0.347(3) 0.998(3)
O16 O 1.204(5) 1.004(3) 0.620(5)
O17 O 0.837(3) 1.240(5) 0.600(3)
O18 O 0.679(3) 0.251(4) 0.474(3)
loop_
_geom_bond_atom_site_label_1
_geom_bond_atom_site_label_2
_geom_bond_site_symmetry_1
_geom_bond_site_symmetry_2
U1 O1 1_555 1_555
O2 U1 1_555 1_555
O3 U1 1_555 1_555
O4 U1 1_555 1_555
O5 P3 1_555 1_555
O6 P4 1_555 1_555
P1 O3 1_555 1_555
C1 P1 1_555 1_555
C2 C1 1_555 1_555
H1 C2 1_555 1_555
C3 C2 1_555 1_555
H2 C3 1_555 1_555
C4 C3 1_555 1_555
H3 C4 1_555 1_555
C5 C4 1_555 1_555
H4 C5 1_555 1_555
C6 C1 1_555 1_555
H5 C6 1_555 1_555
C7 P1 1_555 1_555
C8 C7 1_555 1_555
H6 C8 1_555 1_555
C9 C8 1_555 1_555
H7 C9 1_555 1_555
C10 C9 1_555 1_555
H8 C10 1_555 1_555
C11 C10 1_555 1_555
H9 C11 1_555 1_555
C12 C7 1_555 1_555
H10 C12 1_555 1_555
C13 P1 1_555 1_555
C14 C13 1_555 1_555
H11 C14 1_555 1_555
C15 C14 1_555 1_555
H12 C15 1_555 1_555
C16 C15 1_555 1_555
H13 C16 1_555 1_555
C17 C16 1_555 1_555
H14 C17 1_555 1_555
C18 C13 1_555 1_555
P2 O4 1_555 1_555
C19 P2 1_555 1_555
C20 C19 1_555 1_555
H15 C20 1_555 1_555
C21 C20 1_555 1_555
H16 C21 1_555 1_555
C22 C21 1_555 1_555
H17 C22 1_555 1_555
C23 C22 1_555 1_555
H18 C23 1_555 1_555
C24 C19 1_555 1_555
H19 C24 1_555 1_555
C25 P2 1_555 1_555
C26 C25 1_555 1_555
H20 C26 1_555 1_555
C27 C26 1_555 1_555
H21 C27 1_555 1_555
C28 C27 1_555 1_555
H22 C28 1_555 1_555
C29 C28 1_555 1_555
H23 C29 1_555 1_555
C30 C25 1_555 1_555
H24 C30 1_555 1_555
C31 P2 1_555 1_555
C32 C31 1_555 1_555
H25 C32 1_555 1_555
C33 C32 1_555 1_555
H26 C33 1_555 1_555
C34 C33 1_555 1_555
H27 C34 1_555 1_555
C35 C34 1_555 1_555
H28 C35 1_555 1_555
C36 C31 1_555 1_555
P3 C37 1_555 1_555
C37 C38 1_555 1_555
C38 H29 1_555 1_555
C39 C38 1_555 1_555
H30 C39 1_555 1_555
C40 C39 1_555 1_555
H31 C40 1_555 1_555
C41 C40 1_555 1_555
H32 C41 1_555 1_555
C42 C37 1_555 1_555
H33 C42 1_555 1_555
C43 P3 1_555 1_555
C44 C43 1_555 1_555
H34 C44 1_555 1_555
C45 C44 1_555 1_555
H35 C45 1_555 1_555
C46 C45 1_555 1_555
H36 C46 1_555 1_555
C47 C46 1_555 1_555
H37 C47 1_555 1_555
C48 C43 1_555 1_555
H38 C48 1_555 1_555
C49 P3 1_555 1_555
C50 C49 1_555 1_555
H39 C50 1_555 1_555
C51 C50 1_555 1_555
H40 C51 1_555 1_555
C52 C51 1_555 1_555
H41 C52 1_555 1_555
C53 C52 1_555 1_555
H42 C53 1_555 1_555
C54 C49 1_555 1_555
P4 C55 1_555 1_555
C55 C56 1_555 1_555
C56 H43 1_555 1_555
C57 C56 1_555 1_555
H44 C57 1_555 1_555
C58 C57 1_555 1_555
H45 C58 1_555 1_555
C59 C58 1_555 1_555
H46 C59 1_555 1_555
C60 C55 1_555 1_555
H47 C60 1_555 1_555
C61 P4 1_555 1_555
C62 C61 1_555 1_555
H48 C62 1_555 1_555
C63 C62 1_555 1_555
H49 C63 1_555 1_555
C64 C63 1_555 1_555
H50 C64 1_555 1_555
C65 C64 1_555 1_555
H51 C65 1_555 1_555
C66 C61 1_555 1_555
H52 C66 1_555 1_555
C67 P4 1_555 1_555
C68 C67 1_555 1_555
H53 C68 1_555 1_555
C69 C68 1_555 1_555
H54 C69 1_555 1_555
C70 C69 1_555 1_555
H55 C70 1_555 1_555
C71 C70 1_555 1_555
H56 C71 1_555 1_555
C72 C67 1_555 1_555
O7 C18 1_555 1_555
O8 C36 1_555 1_555
O9 C54 1_555 1_555
O10 C72 1_555 1_555
O11 C77 1_555 1_555
O12 C78 1_555 1_555
O13 C79 1_555 1_555
O14 C80 1_555 1_555
C73 O7 1_555 1_555
H57 C73 1_555 1_555
H58 C73 1_555 1_555
C74 O8 1_555 1_555
H59 C74 1_555 1_555
H60 C74 1_555 1_555
C75 O9 1_555 1_555
H61 C75 1_555 1_555
H62 C75 1_555 1_555
C76 O10 1_555 1_555
H63 C76 1_555 1_555
H64 C76 1_555 1_555
C77 C73 1_555 1_555
H65 C77 1_555 1_555
H66 C77 1_555 1_555
C78 C74 1_555 1_555
H67 C78 1_555 1_555
H68 C78 1_555 1_555
C79 C75 1_555 1_555
H69 C79 1_555 1_555
H70 C79 1_555 1_555
C80 C76 1_555 1_555
H71 C80 1_555 1_555
H72 C80 1_555 1_555
C81 O11 1_555 1_555
H73 C81 1_555 1_555
H74 C81 1_555 1_555
C82 O12 1_555 1_555
H75 C82 1_555 1_555
H76 C82 1_555 1_555
C83 O13 1_555 1_555
H77 C83 1_555 1_555
H78 C83 1_555 1_555
C84 O14 1_555 1_555
H79 C84 1_555 1_555
H80 C84 1_555 1_555
U1A O5 1_555 1_555
U1A_2 O6 1_555 1_555
O5A U1 1_555 1_555
O6A U1 1_555 1_555
C5 C6 1_555 1_555
C11 C12 1_555 1_555
C17 C18 1_555 1_555
C23 C24 1_555 1_555
C29 C30 1_555 1_555
C35 C36 1_555 1_555
C41 C42 1_555 1_555
C47 C48 1_555 1_555
C53 C54 1_555 1_555
C59 C60 1_555 1_555
C65 C66 1_555 1_555
C71 C72 1_555 1_555
C81 C84 1_555 1_555
C82 C83 1_555 1_555

#END
