
#######################################################################
#
#                 Cambridge Crystallographic Data Centre
#                                CCDC 
#
#######################################################################
#
# If this CIF has been generated from an entry in the Cambridge 
# Structural Database, then it will include bibliographic, chemical, 
# crystal, experimental, refinement or atomic coordinate data resulting 
# from the CCDC's data processing and validation procedures.
#
#######################################################################

data_AYIDAN
_symmetry_cell_setting           monoclinic
_symmetry_space_group_name_H-M   'P 21/n'
_symmetry_Int_Tables_number      14
_space_group_name_Hall           '-P 2yn'
loop_
_symmetry_equiv_pos_site_id
_symmetry_equiv_pos_as_xyz
1 x,y,z
2 1/2+x,1/2-y,1/2+z
3 -x,-y,-z
4 1/2-x,1/2+y,1/2-z
_cell_length_a                   15.021(2)
_cell_length_b                   12.4692(19)
_cell_length_c                   23.851(4)
_cell_angle_alpha                90
_cell_angle_beta                 90.659(3)
_cell_angle_gamma                90
_cell_volume                     4466.99
loop_
_atom_site_label
_atom_site_type_symbol
_atom_site_fract_x
_atom_site_fract_y
_atom_site_fract_z
Ag1 Ag 0.73492(2) 0.39438(2) 0.259276(15)
Ag2 Ag 0.84709(3) 0.10022(3) 0.478331(18)
P1 P 0.79147(7) 0.24714(8) 0.36684(5)
P2 P 0.72319(7) 0.14149(8) 0.26860(5)
P3 P 0.83587(8) 0.02811(8) 0.34609(5)
N1 N 0.7537(2) 0.2469(2) 0.30326(14)
N2 N 0.7785(2) 0.0366(2) 0.28865(14)
N3 N 0.8125(2) 0.1262(2) 0.38777(15)
N4 N 0.7266(2) 0.2979(3) 0.41404(15)
H1 H 0.7419 0.3597 0.4292
N5 N 0.6196(2) 0.1085(3) 0.27330(17)
H2 H 0.6072 0.0484 0.2909
N6 N 0.8165(3) -0.0845(3) 0.37800(17)
H3 H 0.8599 -0.1318 0.3806
N7 N 0.8751(2) 0.3309(2) 0.36684(15)
H4 H 0.8903 0.3617 0.3351
N8 N 0.7374(2) 0.1735(2) 0.20336(15)
H5 H 0.7738 0.2268 0.1960
N9 N 0.9398(3) 0.0160(4) 0.3325(2)
H6 H 0.9670 -0.0417 0.3452
C1 C 0.6449(3) 0.2473(3) 0.4327(2)
H7 H 0.6467 0.1702 0.4228
H8 H 0.5939 0.2798 0.4122
C2 C 0.6293(3) 0.2577(3) 0.4945(2)
C3 C 0.6976(3) 0.2759(4) 0.5325(2)
H9 H 0.7566 0.2850 0.5195
C4 C 0.6809(4) 0.2813(4) 0.5900(2)
H10 H 0.7286 0.2939 0.6157
C5 C 0.5959(4) 0.2684(4) 0.6094(2)
H11 H 0.5844 0.2713 0.6485
C6 C 0.5275(4) 0.2513(4) 0.5718(2)
H12 H 0.4685 0.2429 0.5850
C7 C 0.5433(3) 0.2464(3) 0.5155(2)
H13 H 0.4950 0.2351 0.4901
C8 C 0.5439(3) 0.1711(4) 0.2504(2)
H14 H 0.4998 0.1209 0.2338
H15 H 0.5658 0.2177 0.2199
C9 C 0.4982(3) 0.2397(4) 0.2931(2)
C10 C 0.4484(3) 0.1943(4) 0.3354(2)
H16 H 0.4448 0.1185 0.3387
C11 C 0.4039(3) 0.2588(5) 0.3727(3)
H17 H 0.3696 0.2269 0.4015
C12 C 0.4086(3) 0.3677(5) 0.3688(3)
H18 H 0.3772 0.4113 0.3946
C13 C 0.4584(4) 0.4143(4) 0.3279(3)
H19 H 0.4621 0.4902 0.3253
C14 C 0.5032(3) 0.3507(4) 0.2905(2)
H20 H 0.5382 0.3834 0.2623
C15 C 0.7315(4) -0.1110(4) 0.4023(2)
H21 H 0.7228 -0.1895 0.3997
H22 H 0.6839 -0.0766 0.3795
C16 C 0.7207(3) -0.0771(3) 0.4630(2)
C17 C 0.7899(4) -0.0848(3) 0.5013(2)
H23 H 0.8460 -0.1122 0.4901
C18 C 0.7771(4) -0.0521(4) 0.5561(3)
H24 H 0.8250 -0.0559 0.5824
C19 C 0.6956(5) -0.0142(4) 0.5729(3)
H25 H 0.6872 0.0090 0.6104
C20 C 0.6266(5) -0.0102(5) 0.5349(4)
H26 H 0.5696 0.0138 0.5465
C21 C 0.6392(4) -0.0407(4) 0.4805(3)
H27 H 0.5911 -0.0366 0.4544
C22 C 0.9259(3) 0.3565(4) 0.4183(2)
H28 H 0.9321 0.2913 0.4417
H29 H 0.8936 0.4113 0.4402
C23 C 1.0166(3) 0.3980(3) 0.4032(2)
C24 C 1.0836(4) 0.3308(4) 0.3889(3)
H30 H 1.0754 0.2555 0.3917
C25 C 1.1645(4) 0.3712(6) 0.3701(4)
H31 H 1.2104 0.3235 0.3591
C26 C 1.1775(4) 0.4784(5) 0.3674(3)
H32 H 1.2326 0.5063 0.3548
C27 C 1.1118(3) 0.5450(5) 0.3828(3)
H33 H 1.1214 0.6203 0.3817
C28 C 1.0324(3) 0.5065(4) 0.3997(2)
H34 H 0.9865 0.5554 0.4093
C29 C 0.6936(3) 0.1195(3) 0.1559(2)
H35 H 0.6458 0.1666 0.1410
H36 H 0.6652 0.0529 0.1696
C30 C 0.7547(3) 0.0915(3) 0.1092(2)
C31 C 0.7248(4) 0.1018(4) 0.0543(2)
H37 H 0.6668 0.1294 0.0471
C32 C 0.7779(5) 0.0725(5) 0.0102(2)
H38 H 0.7559 0.0785 -0.0272
C33 C 0.8620(4) 0.0351(4) 0.0199(3)
H39 H 0.8981 0.0140 -0.0107
C34 C 0.8940(4) 0.0280(4) 0.0734(2)
H40 H 0.9533 0.0044 0.0802
C35 C 0.8402(3) 0.0551(3) 0.1179(2)
H41 H 0.8627 0.0485 0.1551
C36 C 0.9874(5) 0.0839(5) 0.3043(4)
H42 H 0.9833 0.1548 0.3227
H43 H 0.9610 0.0910 0.2663
C37 C 1.0885(4) 0.0543(5) 0.2983(3)
C38 C 1.1437(4) 0.1321(5) 0.2777(3)
H44 H 1.1213 0.2026 0.2720
C39 C 1.2304(4) 0.1102(6) 0.2652(3)
H45 H 1.2677 0.1652 0.2510
C40 C 1.2634(4) 0.0090(7) 0.2729(3)
H46 H 1.3233 -0.0062 0.2632
C41 C 1.2112(4) -0.0709(6) 0.2946(3)
H47 H 1.2345 -0.1410 0.3001
C42 C 1.1230(4) -0.0474(6) 0.3084(3)
H48 H 1.0867 -0.1011 0.3248
N10 N 0.9752(3) 0.1762(3) 0.56091(19)
O1 O 0.9100(3) 0.2208(3) 0.54343(19)
O2 O 0.9862(3) 0.0809(3) 0.5469(2)
O3 O 1.0260(2) 0.2188(2) 0.59480(17)
N2C N 0.7215(2) 0.5366(2) 0.21135(14)
Ag1C Ag 0.76508(2) -0.10562(2) 0.240724(15)
N11 N 0.5533(6) 0.8558(6) 0.2891(3)
O4 O 0.5429(4) 0.9241(4) 0.3257(2)
O5 O 0.5797(4) 0.7643(6) 0.3022(3)
O6 O 0.5220(10) 0.8677(11) 0.2415(5)
N12? N 0.5603(11) 0.8073(11) 0.2747(6)
O7? O 0.6142(9) 0.8525(10) 0.3073(5)
O8? O 0.5577(9) 0.7093(10) 0.2778(7)
O9? O 0.544(2) 0.8768(13) 0.2391(6)
loop_
_geom_bond_atom_site_label_1
_geom_bond_atom_site_label_2
_geom_bond_site_symmetry_1
_geom_bond_site_symmetry_2
Ag1 N1 1_555 1_555
Ag2 N3 1_555 1_555
P1 N1 1_555 1_555
P2 N1 1_555 1_555
P3 N2 1_555 1_555
N2 P2 1_555 1_555
N3 P1 1_555 1_555
N4 P1 1_555 1_555
H1 N4 1_555 1_555
N5 P2 1_555 1_555
H2 N5 1_555 1_555
N6 P3 1_555 1_555
H3 N6 1_555 1_555
N7 P1 1_555 1_555
H4 N7 1_555 1_555
N8 P2 1_555 1_555
H5 N8 1_555 1_555
N9 P3 1_555 1_555
H6 N9 1_555 1_555
C1 N4 1_555 1_555
H7 C1 1_555 1_555
H8 C1 1_555 1_555
C2 C1 1_555 1_555
C3 C2 1_555 1_555
H9 C3 1_555 1_555
C4 C3 1_555 1_555
H10 C4 1_555 1_555
C5 C4 1_555 1_555
H11 C5 1_555 1_555
C6 C5 1_555 1_555
H12 C6 1_555 1_555
C7 C2 1_555 1_555
H13 C7 1_555 1_555
C8 N5 1_555 1_555
H14 C8 1_555 1_555
H15 C8 1_555 1_555
C9 C8 1_555 1_555
C10 C9 1_555 1_555
H16 C10 1_555 1_555
C11 C10 1_555 1_555
H17 C11 1_555 1_555
C12 C11 1_555 1_555
H18 C12 1_555 1_555
C13 C12 1_555 1_555
H19 C13 1_555 1_555
C14 C9 1_555 1_555
H20 C14 1_555 1_555
C15 N6 1_555 1_555
H21 C15 1_555 1_555
H22 C15 1_555 1_555
C16 C15 1_555 1_555
C17 Ag2 1_555 1_555
H23 C17 1_555 1_555
C18 C17 1_555 1_555
H24 C18 1_555 1_555
C19 C18 1_555 1_555
H25 C19 1_555 1_555
C20 C19 1_555 1_555
H26 C20 1_555 1_555
C21 C16 1_555 1_555
H27 C21 1_555 1_555
C22 N7 1_555 1_555
H28 C22 1_555 1_555
H29 C22 1_555 1_555
C23 C22 1_555 1_555
C24 C23 1_555 1_555
H30 C24 1_555 1_555
C25 C24 1_555 1_555
H31 C25 1_555 1_555
C26 C25 1_555 1_555
H32 C26 1_555 1_555
C27 C26 1_555 1_555
H33 C27 1_555 1_555
C28 C23 1_555 1_555
H34 C28 1_555 1_555
C29 N8 1_555 1_555
H35 C29 1_555 1_555
H36 C29 1_555 1_555
C30 C29 1_555 1_555
C31 C30 1_555 1_555
H37 C31 1_555 1_555
C32 C31 1_555 1_555
H38 C32 1_555 1_555
C33 C32 1_555 1_555
H39 C33 1_555 1_555
C34 C33 1_555 1_555
H40 C34 1_555 1_555
C35 C30 1_555 1_555
H41 C35 1_555 1_555
C36 N9 1_555 1_555
H42 C36 1_555 1_555
H43 C36 1_555 1_555
C37 C36 1_555 1_555
C38 C37 1_555 1_555
H44 C38 1_555 1_555
C39 C38 1_555 1_555
H45 C39 1_555 1_555
C40 C39 1_555 1_555
H46 C40 1_555 1_555
C41 C40 1_555 1_555
H47 C41 1_555 1_555
C42 C37 1_555 1_555
H48 C42 1_555 1_555
N10 O1 1_555 1_555
O1 Ag2 1_555 1_555
O2 Ag2 1_555 1_555
O3 N10 1_555 1_555
N11 O4 1_555 1_555
O5 N11 1_555 1_555
O6 N11 1_555 1_555
N2C Ag1 1_555 1_555
Ag1C N2 1_555 1_555
P3 N3 1_555 1_555
C6 C7 1_555 1_555
C13 C14 1_555 1_555
C16 C17 1_555 1_555
C20 C21 1_555 1_555
C27 C28 1_555 1_555
C34 C35 1_555 1_555
C41 C42 1_555 1_555
N10 O2 1_555 1_555

#END
