
#######################################################################
#
#                 Cambridge Crystallographic Data Centre
#                                CCDC 
#
#######################################################################
#
# If this CIF has been generated from an entry in the Cambridge 
# Structural Database, then it will include bibliographic, chemical, 
# crystal, experimental, refinement or atomic coordinate data resulting 
# from the CCDC's data processing and validation procedures.
#
#######################################################################

data_AYIDIV
_symmetry_cell_setting           orthorhombic
_symmetry_space_group_name_H-M   'P 21 21 21'
_symmetry_Int_Tables_number      19
_space_group_name_Hall           'P 2ac 2ab'
loop_
_symmetry_equiv_pos_site_id
_symmetry_equiv_pos_as_xyz
1 x,y,z
2 1/2-x,-y,1/2+z
3 -x,1/2+y,1/2-z
4 1/2+x,1/2-y,-z
_cell_length_a                   12.694(3)
_cell_length_b                   13.083(2)
_cell_length_c                   19.418(4)
_cell_angle_alpha                90
_cell_angle_beta                 90
_cell_angle_gamma                90
_cell_volume                     3224.86
loop_
_atom_site_label
_atom_site_type_symbol
_atom_site_fract_x
_atom_site_fract_y
_atom_site_fract_z
Ag1 Ag 0.308092(18) 0.232779(18) 1.014708(12)
P1 P 0.05788(6) 0.24791(7) 0.99301(4)
N1 N 0.16218(18) 0.18101(18) 0.97433(13)
P2 P 0.15488(7) 0.06873(7) 0.93816(5)
N2 N 0.0611(2) 0.0603(2) 0.88468(14)
P3 P -0.03668(7) 0.13568(7) 0.88315(5)
N3 N -0.0448(2) 0.2075(2) 0.95126(12)
N4 N 0.02351(19) 0.24715(19) 1.07416(12)
C1 C 0.0950(3) 0.2882(3) 1.12838(15)
H1 H 0.0642 0.3498 1.1501
H2 H 0.1645 0.3063 1.1086
C2 C 0.1057(3) 0.2037(3) 1.17953(18)
H3 H 0.1206 0.2308 1.2261
H4 H 0.1626 0.1559 1.1662
C3 C -0.0012(3) 0.1514(3) 1.17722(18)
H5 H 0.0030 0.0807 1.1951
H6 H -0.0542 0.1900 1.2041
C4 C -0.0272(3) 0.1523(3) 1.10138(17)
H7 H 0.0016 0.0909 1.0783
H8 H -0.1044 0.1543 1.0942
N5 N 0.1431(2) -0.02084(19) 0.99573(14)
C5 C 0.2163(3) -0.0327(3) 1.05427(18)
H9 H 0.2097 0.0250 1.0870
H10 H 0.2902 -0.0370 1.0382
C6 C 0.1815(4) -0.1322(3) 1.0871(2)
H11 H 0.2418 -0.1678 1.1088
H12 H 0.1267 -0.1199 1.1225
C7 C 0.1383(3) -0.1929(3) 1.0284(2)
H13 H 0.0902 -0.2471 1.0451
H14 H 0.1957 -0.2248 1.0014
C8 C 0.0797(3) -0.1151(2) 0.9859(2)
H15 H 0.0774 -0.1353 0.9368
H16 H 0.0068 -0.1058 1.0030
N6 N -0.1524(2) 0.0794(2) 0.87968(14)
C9 C -0.1826(3) 0.0285(3) 0.81367(18)
H17 H -0.1201 -0.0002 0.7901
H18 H -0.2183 0.0770 0.7823
C10 C -0.2570(3) -0.0554(3) 0.8363(2)
H19 H -0.2544 -0.1141 0.8042
H20 H -0.3303 -0.0300 0.8391
C11 C -0.2161(4) -0.0851(3) 0.9068(2)
H21 H -0.1543 -0.1309 0.9030
H22 H -0.2714 -0.1197 0.9341
C12 C -0.1859(3) 0.0162(2) 0.93888(18)
H23 H -0.2467 0.0475 0.9628
H24 H -0.1275 0.0075 0.9722
N7 N 0.0910(2) 0.36673(18) 0.97824(14)
C13 C 0.0254(3) 0.4530(2) 1.00250(17)
H25 H 0.0443 0.4723 1.0502
H26 H -0.0503 0.4351 1.0010
C14 C 0.0496(4) 0.5380(3) 0.9534(2)
H27 H -0.0133 0.5816 0.9464
H28 H 0.1075 0.5811 0.9715
C15 C 0.0805(4) 0.4897(3) 0.8896(2)
H29 H 0.1290 0.5344 0.8634
H30 H 0.0179 0.4755 0.8607
C16 C 0.1341(3) 0.3924(3) 0.90902(17)
H31 H 0.1179 0.3377 0.8754
H32 H 0.2114 0.4019 0.9111
N8 N 0.2725(2) 0.0531(2) 0.90420(14)
C17 C 0.3069(3) 0.1243(3) 0.84980(16)
H33 H 0.3656 0.1679 0.8660
H34 H 0.2480 0.1685 0.8346
C18 C 0.3427(4) 0.0538(3) 0.79177(19)
H35 H 0.2830 0.0346 0.7617
H36 H 0.3982 0.0865 0.7635
C19 C 0.3849(4) -0.0374(3) 0.8296(2)
H37 H 0.3869 -0.0983 0.7993
H38 H 0.4568 -0.0240 0.8472
C20 C 0.3087(3) -0.0524(3) 0.88771(19)
H39 H 0.2489 -0.0961 0.8733
H40 H 0.3438 -0.0842 0.9279
N9 N -0.0290(2) 0.2029(2) 0.81324(14)
C21 C 0.0408(3) 0.1839(3) 0.75419(18)
H41 H 0.0409 0.1105 0.7416
H42 H 0.1138 0.2055 0.7645
C22 C -0.0058(3) 0.2477(4) 0.69725(17)
H43 H 0.0499 0.2724 0.6656
H44 H -0.0580 0.2080 0.6705
C23 C -0.0570(4) 0.3345(3) 0.7334(2)
H45 H -0.1114 0.3670 0.7041
H46 H -0.0047 0.3868 0.7472
C24 C -0.1061(3) 0.2837(3) 0.79594(17)
H47 H -0.1143 0.3327 0.8344
H48 H -0.1758 0.2540 0.7847
N3C N 0.4552(2) 0.2925(2) 1.04874(12)
Ag1C Ag -0.191908(18) 0.267221(18) 0.985292(12)
Cl1 Cl 0.85347(9) 0.85212(9) 0.13757(6)
O1 O 0.7631(2) 0.8075(2) 0.16729(16)
O2 O 0.8339(11) 0.9304(11) 0.0904(5)
O3 O 0.9089(14) 0.8966(13) 0.1948(6)
O4 O 0.9147(10) 0.7754(7) 0.1127(11)
O5? O 0.8441(13) 0.9503(10) 0.1288(13)
O6? O 0.9438(8) 0.8299(14) 0.1694(7)
O7? O 0.8589(13) 0.8046(15) 0.0691(6)
loop_
_geom_bond_atom_site_label_1
_geom_bond_atom_site_label_2
_geom_bond_site_symmetry_1
_geom_bond_site_symmetry_2
Ag1 N1 1_555 1_555
P1 N1 1_555 1_555
N1 P2 1_555 1_555
P2 N2 1_555 1_555
N2 P3 1_555 1_555
P3 N3 1_555 1_555
N3 P1 1_555 1_555
N4 P1 1_555 1_555
C1 N4 1_555 1_555
H1 C1 1_555 1_555
H2 C1 1_555 1_555
C2 C1 1_555 1_555
H3 C2 1_555 1_555
H4 C2 1_555 1_555
C3 C2 1_555 1_555
H5 C3 1_555 1_555
H6 C3 1_555 1_555
C4 N4 1_555 1_555
H7 C4 1_555 1_555
H8 C4 1_555 1_555
N5 P2 1_555 1_555
C5 N5 1_555 1_555
H9 C5 1_555 1_555
H10 C5 1_555 1_555
C6 C5 1_555 1_555
H11 C6 1_555 1_555
H12 C6 1_555 1_555
C7 C6 1_555 1_555
H13 C7 1_555 1_555
H14 C7 1_555 1_555
C8 N5 1_555 1_555
H15 C8 1_555 1_555
H16 C8 1_555 1_555
N6 P3 1_555 1_555
C9 N6 1_555 1_555
H17 C9 1_555 1_555
H18 C9 1_555 1_555
C10 C9 1_555 1_555
H19 C10 1_555 1_555
H20 C10 1_555 1_555
C11 C10 1_555 1_555
H21 C11 1_555 1_555
H22 C11 1_555 1_555
C12 N6 1_555 1_555
H23 C12 1_555 1_555
H24 C12 1_555 1_555
N7 P1 1_555 1_555
C13 N7 1_555 1_555
H25 C13 1_555 1_555
H26 C13 1_555 1_555
C14 C13 1_555 1_555
H27 C14 1_555 1_555
H28 C14 1_555 1_555
C15 C14 1_555 1_555
H29 C15 1_555 1_555
H30 C15 1_555 1_555
C16 N7 1_555 1_555
H31 C16 1_555 1_555
H32 C16 1_555 1_555
N8 P2 1_555 1_555
C17 N8 1_555 1_555
H33 C17 1_555 1_555
H34 C17 1_555 1_555
C18 C17 1_555 1_555
H35 C18 1_555 1_555
H36 C18 1_555 1_555
C19 C18 1_555 1_555
H37 C19 1_555 1_555
H38 C19 1_555 1_555
C20 N8 1_555 1_555
H39 C20 1_555 1_555
H40 C20 1_555 1_555
N9 P3 1_555 1_555
C21 N9 1_555 1_555
H41 C21 1_555 1_555
H42 C21 1_555 1_555
C22 C21 1_555 1_555
H43 C22 1_555 1_555
H44 C22 1_555 1_555
C23 C22 1_555 1_555
H45 C23 1_555 1_555
H46 C23 1_555 1_555
C24 N9 1_555 1_555
H47 C24 1_555 1_555
H48 C24 1_555 1_555
Cl1 O1 1_555 1_555
O2 Cl1 1_555 1_555
O3 Cl1 1_555 1_555
O4 Cl1 1_555 1_555
N3C Ag1 1_555 1_555
Ag1C N3 1_555 1_555
C3 C4 1_555 1_555
C7 C8 1_555 1_555
C11 C12 1_555 1_555
C15 C16 1_555 1_555
C19 C20 1_555 1_555
C23 C24 1_555 1_555

#END
