
#######################################################################
#
#                 Cambridge Crystallographic Data Centre
#                                CCDC 
#
#######################################################################
#
# If this CIF has been generated from an entry in the Cambridge 
# Structural Database, then it will include bibliographic, chemical, 
# crystal, experimental, refinement or atomic coordinate data resulting 
# from the CCDC's data processing and validation procedures.
#
#######################################################################

data_AYIDER
_symmetry_cell_setting           monoclinic
_symmetry_space_group_name_H-M   'P 21/n'
_symmetry_Int_Tables_number      14
_space_group_name_Hall           '-P 2yn'
loop_
_symmetry_equiv_pos_site_id
_symmetry_equiv_pos_as_xyz
1 x,y,z
2 1/2+x,1/2-y,1/2+z
3 -x,-y,-z
4 1/2-x,1/2+y,1/2-z
_cell_length_a                   15.1730(8)
_cell_length_b                   12.4578(7)
_cell_length_c                   24.0214(13)
_cell_angle_alpha                90
_cell_angle_beta                 92.9330(10)
_cell_angle_gamma                90
_cell_volume                     4534.63
loop_
_atom_site_label
_atom_site_type_symbol
_atom_site_fract_x
_atom_site_fract_y
_atom_site_fract_z
Ag1 Ag 0.843230(17) 0.900597(18) 0.482304(9)
Ag2 Ag 0.741812(13) 0.608918(14) 0.257649(8)
P1 P 0.83232(4) 0.97964(5) 0.35065(3)
N1 N 0.81219(15) 0.87802(17) 0.39001(9)
P2 P 0.79638(4) 0.75639(5) 0.36837(3)
N2 N 0.76146(14) 0.75470(16) 0.30323(8)
P3 P 0.72599(4) 0.86013(5) 0.26988(3)
N3 N 0.77757(14) 0.96791(16) 0.29132(8)
N4 N 0.80901(17) 1.09063(18) 0.38196(10)
H1 H 0.8486(19) 1.128(3) 0.3862(16)
C1 C 0.7239(2) 1.1118(2) 0.40543(12)
H2 H 0.6773 1.0755 0.3820
H3 H 0.7123 1.1899 0.4034
C2 C 0.71626(19) 1.0758(2) 0.46501(12)
C3 C 0.7876(2) 1.0817(2) 0.50433(13)
H4 H 0.8426 1.1098 0.4940
C4 C 0.7772(3) 1.0461(3) 0.55889(13)
H5 H 0.8257 1.0487 0.5855
C5 C 0.6961(3) 1.0070(3) 0.57432(14)
H6 H 0.6894 0.9823 0.6113
C6 C 0.6257(3) 1.0040(3) 0.53606(16)
H7 H 0.5700 0.9787 0.5468
C7 C 0.6359(2) 1.0380(2) 0.48162(14)
H8 H 0.5868 1.0353 0.4554
N5 N 0.73242(15) 0.70268(18) 0.41327(9)
H9 H 0.732(2) 0.6418(16) 0.4136(14)
C8 C 0.64859(18) 0.7505(2) 0.42783(11)
H10 H 0.6000 0.7164 0.4051
H11 H 0.6490 0.8279 0.4185
C9 C 0.63117(18) 0.7376(2) 0.48883(11)
C10 C 0.69852(18) 0.7178(2) 0.52880(12)
H12 H 0.7575 0.7103 0.5179
C11 C 0.6801(2) 0.7088(3) 0.58466(12)
H13 H 0.7266 0.6956 0.6118
C12 C 0.5942(2) 0.7190(3) 0.60094(13)
H14 H 0.5818 0.7126 0.6392
C13 C 0.5270(2) 0.7384(3) 0.56164(14)
H15 H 0.4681 0.7455 0.5727
C14 C 0.54514(19) 0.7475(2) 0.50576(13)
H16 H 0.4984 0.7607 0.4788
N6 N 0.62195(15) 0.88539(18) 0.27321(10)
H17 H 0.607(2) 0.938(2) 0.2851(14)
C15 C 0.54994(18) 0.8175(2) 0.24973(11)
H18 H 0.5745 0.7662 0.2231
H19 H 0.5069 0.8635 0.2286
C16 C 0.50206(17) 0.7553(2) 0.29281(11)
C17 C 0.51099(18) 0.6444(2) 0.29596(11)
H20 H 0.5502 0.6087 0.2726
C18 C 0.4631(2) 0.5854(3) 0.33297(13)
H21 H 0.4688 0.5095 0.3344
C19 C 0.4071(2) 0.6370(3) 0.36779(13)
H22 H 0.3740 0.5966 0.3930
C20 C 0.3991(2) 0.7477(3) 0.36601(14)
H23 H 0.3618 0.7834 0.3907
C21 C 0.44553(19) 0.8066(2) 0.32820(13)
H24 H 0.4388 0.8823 0.3264
N7 N 0.93714(16) 0.9994(2) 0.33971(11)
H25 H 0.963(3) 1.014(4) 0.3665(12)
C22 C 0.98592(19) 0.9268(2) 0.30521(13)
H26 H 0.9550 0.9209 0.2680
H27 H 0.9873 0.8545 0.3224
C23 C 1.07976(19) 0.9649(3) 0.29836(12)
C24 C 1.1406(2) 0.8934(4) 0.27855(16)
H28 H 1.1244 0.8207 0.2717
C25 C 1.2260(3) 0.9282(5) 0.26862(17)
H29 H 1.2674 0.8791 0.2547
C26 C 1.2505(3) 1.0329(5) 0.27885(18)
H30 H 1.3083 1.0565 0.2714
C27 C 1.1921(3) 1.1017(4) 0.29946(16)
H31 H 1.2096 1.1736 0.3071
C28 C 1.1065(2) 1.0695(3) 0.30981(13)
H32 H 1.0664 1.1192 0.3247
N8 N 0.88104(15) 0.67571(18) 0.37077(9)
H33 H 0.9015(18) 0.667(2) 0.3430(9)
C29 C 0.9398(2) 0.6576(3) 0.42083(12)
H34 H 0.9112 0.6083 0.4467
H35 H 0.9514 0.7266 0.4404
C30 C 1.02504(19) 0.6099(2) 0.40356(11)
C31 C 1.0904(2) 0.6754(3) 0.38296(14)
H36 H 1.0831 0.7512 0.3833
C32 C 1.1653(2) 0.6317(3) 0.36205(15)
H37 H 1.2090 0.6773 0.3479
C33 C 1.1768(2) 0.5225(3) 0.36164(13)
H38 H 1.2283 0.4925 0.3470
C34 C 1.1139(2) 0.4566(3) 0.38246(14)
H39 H 1.1225 0.3810 0.3827
C35 C 1.03789(19) 0.4994(2) 0.40315(13)
H40 H 0.9944 0.4531 0.4171
N9 N 0.73942(15) 0.83168(17) 0.20444(9)
H41 H 0.7831(15) 0.808(2) 0.1977(13)
C36 C 0.69076(18) 0.8865(2) 0.15819(11)
H42 H 0.6670 0.9550 0.1720
H43 H 0.6401 0.8414 0.1452
C37 C 0.74713(19) 0.90950(19) 0.10965(11)
C38 C 0.7101(2) 0.8965(2) 0.05554(12)
H44 H 0.6515 0.8702 0.0500
C39 C 0.7585(2) 0.9220(3) 0.00997(12)
H45 H 0.7326 0.9140 -0.0266
C40 C 0.8438(2) 0.9586(3) 0.01723(12)
H46 H 0.8765 0.9760 -0.0142
C41 C 0.8822(2) 0.9701(2) 0.07087(12)
H47 H 0.9415 0.9941 0.0761
C42 C 0.83315(19) 0.9462(2) 0.11676(11)
H48 H 0.8590 0.9552 0.1533
N10 N 0.97733(15) 0.82032(18) 0.56126(9)
O5 O 1.03220(14) 0.77309(16) 0.59279(9)
O6 O 0.90923(14) 0.77297(17) 0.54284(9)
O7 O 0.98798(15) 0.91660(17) 0.54781(10)
N3C N 0.72243(14) 0.46791(16) 0.20868(8)
Ag2C Ag 0.758188(13) 1.108918(14) 0.242351(8)
Cl1 Cl 0.97124(5) 0.65031(6) 0.21228(3)
O1 O 0.92498(15) 0.74447(17) 0.19271(10)
O2 O 1.06248(19) 0.6753(3) 0.22663(13)
O3 O 0.9318(2) 0.6119(2) 0.26045(10)
O4 O 0.96586(16) 0.57054(19) 0.17121(9)
loop_
_geom_bond_atom_site_label_1
_geom_bond_atom_site_label_2
_geom_bond_site_symmetry_1
_geom_bond_site_symmetry_2
Ag1 N1 1_555 1_555
Ag2 N2 1_555 1_555
P1 N1 1_555 1_555
N1 P2 1_555 1_555
P2 N2 1_555 1_555
N2 P3 1_555 1_555
P3 N3 1_555 1_555
N3 P1 1_555 1_555
N4 P1 1_555 1_555
H1 N4 1_555 1_555
C1 N4 1_555 1_555
H2 C1 1_555 1_555
H3 C1 1_555 1_555
C2 C1 1_555 1_555
C3 Ag1 1_555 1_555
H4 C3 1_555 1_555
C4 C3 1_555 1_555
H5 C4 1_555 1_555
C5 C4 1_555 1_555
H6 C5 1_555 1_555
C6 C5 1_555 1_555
H7 C6 1_555 1_555
C7 C2 1_555 1_555
H8 C7 1_555 1_555
N5 P2 1_555 1_555
H9 N5 1_555 1_555
C8 N5 1_555 1_555
H10 C8 1_555 1_555
H11 C8 1_555 1_555
C9 C8 1_555 1_555
C10 C9 1_555 1_555
H12 C10 1_555 1_555
C11 C10 1_555 1_555
H13 C11 1_555 1_555
C12 C11 1_555 1_555
H14 C12 1_555 1_555
C13 C12 1_555 1_555
H15 C13 1_555 1_555
C14 C9 1_555 1_555
H16 C14 1_555 1_555
N6 P3 1_555 1_555
H17 N6 1_555 1_555
C15 N6 1_555 1_555
H18 C15 1_555 1_555
H19 C15 1_555 1_555
C16 C15 1_555 1_555
C17 C16 1_555 1_555
H20 C17 1_555 1_555
C18 C17 1_555 1_555
H21 C18 1_555 1_555
C19 C18 1_555 1_555
H22 C19 1_555 1_555
C20 C19 1_555 1_555
H23 C20 1_555 1_555
C21 C16 1_555 1_555
H24 C21 1_555 1_555
N7 P1 1_555 1_555
H25 N7 1_555 1_555
C22 N7 1_555 1_555
H26 C22 1_555 1_555
H27 C22 1_555 1_555
C23 C22 1_555 1_555
C24 C23 1_555 1_555
H28 C24 1_555 1_555
C25 C24 1_555 1_555
H29 C25 1_555 1_555
C26 C25 1_555 1_555
H30 C26 1_555 1_555
C27 C26 1_555 1_555
H31 C27 1_555 1_555
C28 C23 1_555 1_555
H32 C28 1_555 1_555
N8 P2 1_555 1_555
H33 N8 1_555 1_555
C29 N8 1_555 1_555
H34 C29 1_555 1_555
H35 C29 1_555 1_555
C30 C29 1_555 1_555
C31 C30 1_555 1_555
H36 C31 1_555 1_555
C32 C31 1_555 1_555
H37 C32 1_555 1_555
C33 C32 1_555 1_555
H38 C33 1_555 1_555
C34 C33 1_555 1_555
H39 C34 1_555 1_555
C35 C30 1_555 1_555
H40 C35 1_555 1_555
N9 P3 1_555 1_555
H41 N9 1_555 1_555
C36 N9 1_555 1_555
H42 C36 1_555 1_555
H43 C36 1_555 1_555
C37 C36 1_555 1_555
C38 C37 1_555 1_555
H44 C38 1_555 1_555
C39 C38 1_555 1_555
H45 C39 1_555 1_555
C40 C39 1_555 1_555
H46 C40 1_555 1_555
C41 C40 1_555 1_555
H47 C41 1_555 1_555
C42 C37 1_555 1_555
H48 C42 1_555 1_555
Cl1 O1 1_555 1_555
O2 Cl1 1_555 1_555
O3 Cl1 1_555 1_555
O4 Cl1 1_555 1_555
N10 O5 1_555 1_555
O6 Ag1 1_555 1_555
O7 Ag1 1_555 1_555
N3C Ag2 1_555 1_555
Ag2C N3 1_555 1_555
C2 C3 1_555 1_555
C6 C7 1_555 1_555
C13 C14 1_555 1_555
C20 C21 1_555 1_555
C27 C28 1_555 1_555
C34 C35 1_555 1_555
C41 C42 1_555 1_555
N10 O6 1_555 1_555
N10 O7 1_555 1_555

#END
