
#######################################################################
#
#                 Cambridge Crystallographic Data Centre
#                                CCDC 
#
#######################################################################
#
# If this CIF has been generated from an entry in the Cambridge 
# Structural Database, then it will include bibliographic, chemical, 
# crystal, experimental, refinement or atomic coordinate data resulting 
# from the CCDC's data processing and validation procedures.
#
#######################################################################

data_AYIPOO
_symmetry_cell_setting           triclinic
_symmetry_space_group_name_H-M   'P -1'
_symmetry_Int_Tables_number      2
_space_group_name_Hall           '-P 1'
loop_
_symmetry_equiv_pos_site_id
_symmetry_equiv_pos_as_xyz
1 x,y,z
2 -x,-y,-z
_cell_length_a                   10.4910(2)
_cell_length_b                   10.9197(2)
_cell_length_c                   13.0850(3)
_cell_angle_alpha                77.9150(10)
_cell_angle_beta                 76.7020(10)
_cell_angle_gamma                86.0490(10)
_cell_volume                     1426.14
loop_
_atom_site_label
_atom_site_type_symbol
_atom_site_fract_x
_atom_site_fract_y
_atom_site_fract_z
La1 La 0.44785(3) -0.02327(3) 0.35019(3)
La2 La 0.41829(4) 0.30745(3) 0.02503(3)
O1 O 0.3054(5) -0.1677(5) 0.5004(4)
O2 O 0.1185(5) -0.2630(5) 0.5862(5)
O3 O 0.3593(4) 0.1173(4) 0.1926(4)
O4 O 0.1922(5) 0.2287(5) 0.1428(4)
O5 O 0.6510(6) 0.2726(5) 0.1081(5)
O6 O 0.6152(5) 0.4494(4) 0.0013(4)
O7 O 0.4754(5) -0.3575(5) 0.1722(4)
O8 O 0.4167(5) -0.1871(4) 0.2427(4)
O9 O 0.9032(7) 0.8529(6) 0.0852(8)
O10 O 0.7051(5) 0.8128(5) 0.0666(4)
O11 O 0.6004(4) -0.0804(4) 0.4828(4)
O12 O 0.6906(5) -0.2114(5) 0.6006(4)
O13 O 0.5983(5) 0.1647(5) 0.3240(4)
O14 O 0.6366(5) -0.0113(5) 0.1893(4)
O15 O 0.3833(7) 0.3857(5) 0.2021(4)
O16 O 0.5634(7) 0.1192(5) -0.0243(5)
N1 N 0.1958(5) -0.0293(5) 0.3519(4)
N2 N 0.5671(5) -0.2539(5) 0.3812(4)
N3 N 0.7679(6) 0.5744(5) 0.0726(5)
C1 C 0.1846(7) -0.1889(7) 0.5121(6)
C2 C 0.1188(7) -0.1139(6) 0.4260(6)
C3 C -0.0104(8) -0.1294(8) 0.4229(7)
C4 C -0.0596(8) -0.0556(10) 0.3409(8)
C5 C 0.0167(8) 0.0337(9) 0.2682(7)
C6 C 0.1450(7) 0.0440(7) 0.2754(6)
C7 C 0.2362(7) 0.1378(6) 0.1992(5)
C8 C 0.4751(7) -0.2914(7) 0.2401(6)
C9 C 0.5517(7) -0.3385(7) 0.3250(6)
C10 C 0.6055(8) -0.4592(7) 0.3418(6)
C11 C 0.6752(10) -0.4928(8) 0.4212(8)
C12 C 0.6915(9) -0.4063(7) 0.4800(7)
C13 C 0.6353(7) -0.2886(7) 0.4586(6)
C14 C 0.6455(6) -0.1889(6) 0.5189(5)
C15 C 0.6790(7) 0.3836(6) 0.0665(5)
C16 C 0.7822(7) 0.4492(7) 0.0935(6)
C17 C 0.8816(8) 0.3878(8) 0.1402(7)
C18 C 0.9714(9) 0.4597(9) 0.1617(9)
C19 C 0.9565(8) 0.5869(8) 0.1416(8)
C20 C 0.8519(8) 0.6423(7) 0.0988(6)
C21 C 0.8212(8) 0.7801(8) 0.0811(7)
H1 H -0.06240 -0.18810 0.47480
H2 H -0.14450 -0.06660 0.33500
H3 H -0.01690 0.08680 0.21480
H4 H 0.59480 -0.51580 0.30040
H5 H 0.71100 -0.57330 0.43500
H6 H 0.73940 -0.42700 0.53310
H7 H 0.60750 0.22650 0.27140
H8 H 0.63440 0.18290 0.37070
H9 H 0.67250 0.07070 0.18120
H10 H 0.70090 -0.05880 0.17820
H11 H 0.38940 0.46430 0.19540
H12 H 0.32620 0.35990 0.25900
H13 H 0.55550 0.09510 -0.08010
H14 H 0.64370 0.13440 -0.03160
H15 H 0.88720 0.30080 0.15640
H16 H 1.04150 0.42180 0.18960
H17 H 1.01600 0.63630 0.15650
O11A O 0.3996(4) 0.0804(4) 0.5172(4)
O6A O 0.3848(5) 0.5506(4) -0.0013(4)
O7A O 0.5246(5) 0.3575(5) -0.1722(4)
O10A O 0.2949(5) 0.1872(5) -0.0666(4)
N3A N 0.2321(6) 0.4256(5) -0.0726(5)
La2A La 0.58171(4) 0.69255(3) -0.02503(3)
La2A_2 La 0.58171(4) -0.30745(3) -0.02503(3)
La1A La 0.55215(3) 0.02327(3) 0.64981(3)
O17 O 0.1654(11) 0.9097(12) 0.0235(15)
H18 H 0.15910 0.98620 0.01620
H19 H 0.12280 0.88870 -0.01490
O18 O 0.0497(18) 0.4499(17) 0.4043(14)
H20 H 0.00000 0.44490 0.36500
H21 H 0.01520 0.40770 0.46880
loop_
_geom_bond_atom_site_label_1
_geom_bond_atom_site_label_2
_geom_bond_site_symmetry_1
_geom_bond_site_symmetry_2
La1 O1 1_555 1_555
La2 O3 1_555 1_555
O1 C1 1_555 1_555
O2 C1 1_555 1_555
O3 La1 1_555 1_555
O4 La2 1_555 1_555
O5 La2 1_555 1_555
O6 La2 1_555 1_555
O7 C8 1_555 1_555
O8 La1 1_555 1_555
O9 C21 1_555 1_555
O10 C21 1_555 1_555
O11 La1 1_555 1_555
O12 C14 1_555 1_555
O13 La1 1_555 1_555
O14 La1 1_555 1_555
O15 La2 1_555 1_555
O16 La2 1_555 1_555
N1 La1 1_555 1_555
N2 La1 1_555 1_555
N3 C16 1_555 1_555
C1 C2 1_555 1_555
C2 N1 1_555 1_555
C3 C2 1_555 1_555
C4 C3 1_555 1_555
C5 C4 1_555 1_555
C6 N1 1_555 1_555
C7 O3 1_555 1_555
C8 O8 1_555 1_555
C9 N2 1_555 1_555
C10 C9 1_555 1_555
C11 C10 1_555 1_555
C12 C11 1_555 1_555
C13 N2 1_555 1_555
C14 O11 1_555 1_555
C15 O5 1_555 1_555
C16 C15 1_555 1_555
C17 C16 1_555 1_555
C18 C17 1_555 1_555
C19 C18 1_555 1_555
C20 N3 1_555 1_555
C21 C20 1_555 1_555
O17 H18 1_555 1_555
O18 H20 1_555 1_555
H1 C3 1_555 1_555
H2 C4 1_555 1_555
H3 C5 1_555 1_555
H4 C10 1_555 1_555
H5 C11 1_555 1_555
H6 C12 1_555 1_555
H7 O13 1_555 1_555
H8 O13 1_555 1_555
H9 O14 1_555 1_555
H10 O14 1_555 1_555
H11 O15 1_555 1_555
H12 O15 1_555 1_555
H13 O16 1_555 1_555
H14 O16 1_555 1_555
H15 C17 1_555 1_555
H16 C18 1_555 1_555
H17 C19 1_555 1_555
H19 O17 1_555 1_555
H21 O18 1_555 1_555
O11A La1 1_555 1_555
O6A La2 1_555 1_555
O7A La2 1_555 1_555
O10A La2 1_555 1_555
N3A La2 1_555 1_555
La2A O6 1_555 1_555
La2A_2 O7 1_555 1_555
La1A O11 1_555 1_555
O4 C7 1_555 1_555
O6 C15 1_555 1_555
O10 La2A 1_555 1_555
N3 La2A 1_555 1_555
C5 C6 1_555 1_555
C6 C7 1_555 1_555
C8 C9 1_555 1_555
C12 C13 1_555 1_555
C13 C14 1_555 1_555
C19 C20 1_555 1_555
O11A La1A 1_555 1_555
O6A La2A 1_555 1_555

#END
