
#######################################################################
#
#                 Cambridge Crystallographic Data Centre
#                                CCDC 
#
#######################################################################
#
# If this CIF has been generated from an entry in the Cambridge 
# Structural Database, then it will include bibliographic, chemical, 
# crystal, experimental, refinement or atomic coordinate data resulting 
# from the CCDC's data processing and validation procedures.
#
#######################################################################

data_AZACIN01
_symmetry_cell_setting           triclinic
_symmetry_space_group_name_H-M   'P -1'
_symmetry_Int_Tables_number      2
_space_group_name_Hall           '-P 1'
loop_
_symmetry_equiv_pos_site_id
_symmetry_equiv_pos_as_xyz
1 x,y,z
2 -x,-y,-z
_cell_length_a                   9.4704(2)
_cell_length_b                   10.3376(3)
_cell_length_c                   18.5433(6)
_cell_angle_alpha                74.0790(10)
_cell_angle_beta                 86.539(2)
_cell_angle_gamma                63.5710(10)
_cell_volume                     1559.3
loop_
_atom_site_label
_atom_site_type_symbol
_atom_site_fract_x
_atom_site_fract_y
_atom_site_fract_z
Mn1 Mn 0.75035(11) 0.37885(10) 0.50817(5)
Mn2 Mn 1.08026(11) -0.13499(10) 0.91928(5)
N1 N 0.7182(6) 0.2586(6) 0.4293(3)
N2 N 0.9900(6) 0.2420(6) 0.4731(3)
N3 N 1.2497(6) -0.3165(5) 0.8667(3)
N4 N 1.3392(6) -0.1971(5) 0.9535(3)
O1 O 0.5749(6) 0.3401(6) 0.5719(3)
O2 O 0.3197(6) 0.4246(5) 0.5837(3)
O3 O 0.8393(6) -0.1106(6) 0.8992(3)
O4 O 0.9411(5) -0.0321(5) 0.7979(3)
O5 O 0.7993(6) 0.4921(5) 0.5772(2)
O6 O 0.9055(6) 0.2486(5) 0.6346(2)
O7 O 0.9219(6) 0.2675(5) 0.9711(2)
O8 O 1.0344(6) 0.0843(5) 0.9161(3)
C1 C 0.5793(8) 0.2783(8) 0.4044(4)
H1 H 0.4886 0.3404 0.4232
C2 C 0.5621(10) 0.2133(9) 0.3534(5)
H2 H 0.4622 0.2310 0.3376
C3 C 0.6938(10) 0.1215(9) 0.3256(4)
H3 H 0.6852 0.0747 0.2910
C4 C 0.8388(10) 0.0992(8) 0.3496(4)
H4 H 0.9298 0.0372 0.3311
C5 C 0.8502(8) 0.1690(7) 0.4014(3)
C6 C 1.0000(7) 0.1542(6) 0.4290(3)
C7 C 1.1461(8) 0.0568(8) 0.4109(4)
H5 H 1.1520 -0.0034 0.3806
C8 C 1.2807(9) 0.0498(9) 0.4378(5)
H6 H 1.3789 -0.0166 0.4267
C9 C 1.2706(8) 0.1411(9) 0.4814(4)
H7 H 1.3612 0.1402 0.4989
C10 C 1.1226(8) 0.2346(8) 0.4988(4)
H8 H 1.1154 0.2946 0.5296
C11 C 1.1988(9) -0.3652(8) 0.8197(4)
H9 H 1.0903 -0.3241 0.8091
C12 C 1.2969(9) -0.4732(8) 0.7853(4)
H10 H 1.2564 -0.5058 0.7533
C13 C 1.4565(9) -0.5301(8) 0.8005(5)
H11 H 1.5269 -0.6022 0.7782
C14 C 1.5130(8) -0.4809(8) 0.8487(4)
H12 H 1.6212 -0.5185 0.8589
C15 C 1.4056(7) -0.3738(7) 0.8819(4)
C16 C 1.4551(7) -0.3143(7) 0.9339(4)
C17 C 1.6096(8) -0.3742(7) 0.9623(4)
H13 H 1.6872 -0.4580 0.9500
C18 C 1.6484(9) -0.3102(8) 1.0085(4)
H14 H 1.7531 -0.3459 1.0253
C19 C 1.5298(9) -0.1920(8) 1.0297(4)
H15 H 1.5522 -0.1493 1.0628
C20 C 1.3778(9) -0.1385(8) 1.0009(4)
H16 H 1.2980 -0.0581 1.0148
C21 C 0.4889(7) 0.2209(6) 0.6814(3)
C22 C 0.6388(7) 0.1429(6) 0.7186(3)
H17 H 0.7216 0.1611 0.6968
C23 C 0.6655(7) 0.0372(6) 0.7886(3)
C24 C 0.5408(8) 0.0124(7) 0.8200(4)
H18 H 0.5578 -0.0579 0.8664
C25 C 0.3919(8) 0.0895(7) 0.7838(4)
H19 H 0.3094 0.0708 0.8058
C26 C 0.3648(7) 0.1949(7) 0.7148(3)
H20 H 0.2638 0.2482 0.6907
C27 C 0.4604(8) 0.3374(7) 0.6065(3)
C28 C 0.8237(7) -0.0398(7) 0.8304(4)
C29 C 0.8918(7) 0.4136(7) 0.7055(3)
C30 C 0.9335(7) 0.3024(7) 0.7742(3)
H21 H 0.9541 0.2051 0.7752
C31 C 0.9446(7) 0.3349(6) 0.8404(3)
C32 C 0.9184(7) 0.4798(7) 0.8379(3)
H22 H 0.9268 0.5027 0.8821
C33 C 0.8799(8) 0.5903(7) 0.7697(4)
H23 H 0.8616 0.6872 0.7682
C34 C 0.8689(8) 0.5562(7) 0.7046(4)
H24 H 0.8456 0.6299 0.6590
C35 C 0.8673(8) 0.3812(8) 0.6349(4)
C36 C 0.9690(7) 0.2200(7) 0.9151(3)
O2A O 0.6803(6) 0.5754(5) 0.4163(3)
O7A O 1.0781(6) -0.2675(5) 1.0289(2)
Mn1A Mn 0.24965(11) 0.62115(10) 0.49183(5)
Mn2A Mn 0.91974(11) 0.13499(10) 1.08072(5)
loop_
_geom_bond_atom_site_label_1
_geom_bond_atom_site_label_2
_geom_bond_site_symmetry_1
_geom_bond_site_symmetry_2
Mn1 N1 1_555 1_555
Mn2 N3 1_555 1_555
N1 C1 1_555 1_555
N2 Mn1 1_555 1_555
N3 C11 1_555 1_555
N4 Mn2 1_555 1_555
O1 Mn1 1_555 1_555
O2 C27 1_555 1_555
O3 Mn2 1_555 1_555
O4 Mn2 1_555 1_555
O5 Mn1 1_555 1_555
O6 C35 1_555 1_555
O7 C36 1_555 1_555
O8 Mn2 1_555 1_555
C1 H1 1_555 1_555
C2 C1 1_555 1_555
H2 C2 1_555 1_555
C3 C2 1_555 1_555
H3 C3 1_555 1_555
C4 C3 1_555 1_555
H4 C4 1_555 1_555
C5 N1 1_555 1_555
C6 N2 1_555 1_555
C7 C6 1_555 1_555
H5 C7 1_555 1_555
C8 C7 1_555 1_555
H6 C8 1_555 1_555
C9 C8 1_555 1_555
H7 C9 1_555 1_555
C10 N2 1_555 1_555
H8 C10 1_555 1_555
C11 H9 1_555 1_555
C12 C11 1_555 1_555
H10 C12 1_555 1_555
C13 C12 1_555 1_555
H11 C13 1_555 1_555
C14 C13 1_555 1_555
H12 C14 1_555 1_555
C15 N3 1_555 1_555
C16 N4 1_555 1_555
C17 C16 1_555 1_555
H13 C17 1_555 1_555
C18 C17 1_555 1_555
H14 C18 1_555 1_555
C19 C18 1_555 1_555
H15 C19 1_555 1_555
C20 N4 1_555 1_555
H16 C20 1_555 1_555
C21 C22 1_555 1_555
C22 H17 1_555 1_555
C23 C22 1_555 1_555
C24 C23 1_555 1_555
H18 C24 1_555 1_555
C25 C24 1_555 1_555
H19 C25 1_555 1_555
C26 C21 1_555 1_555
H20 C26 1_555 1_555
C27 O1 1_555 1_555
C28 O3 1_555 1_555
C29 C30 1_555 1_555
C30 H21 1_555 1_555
C31 C30 1_555 1_555
C32 C31 1_555 1_555
H22 C32 1_555 1_555
C33 C32 1_555 1_555
H23 C33 1_555 1_555
C34 C29 1_555 1_555
H24 C34 1_555 1_555
C35 O5 1_555 1_555
C36 O8 1_555 1_555
O2A Mn1 1_555 1_555
O7A Mn2 1_555 1_555
Mn1A O2 1_555 1_555
Mn2A O7 1_555 1_555
O4 C28 1_555 1_555
C4 C5 1_555 1_555
C5 C6 1_555 1_555
C9 C10 1_555 1_555
C14 C15 1_555 1_555
C15 C16 1_555 1_555
C19 C20 1_555 1_555
C21 C27 1_555 1_555
C23 C28 1_555 1_555
C25 C26 1_555 1_555
C29 C35 1_555 1_555
C31 C36 1_555 1_555
C33 C34 1_555 1_555

#END
