
#######################################################################
#
#                 Cambridge Crystallographic Data Centre
#                                CCDC 
#
#######################################################################
#
# If this CIF has been generated from an entry in the Cambridge 
# Structural Database, then it will include bibliographic, chemical, 
# crystal, experimental, refinement or atomic coordinate data resulting 
# from the CCDC's data processing and validation procedures.
#
#######################################################################

data_AZATEA
_symmetry_cell_setting           monoclinic
_symmetry_space_group_name_H-M   'P 21/c'
_symmetry_Int_Tables_number      14
_space_group_name_Hall           '-P 2ybc'
loop_
_symmetry_equiv_pos_site_id
_symmetry_equiv_pos_as_xyz
1 x,y,z
2 x,1/2-y,1/2+z
3 -x,-y,-z
4 -x,1/2+y,1/2-z
_cell_length_a                   12.600(4)
_cell_length_b                   7.093(1)
_cell_length_c                   18.724(6)
_cell_angle_alpha                90.00
_cell_angle_beta                 97.50(3)
_cell_angle_gamma                90.00
_cell_volume                     1659.08
loop_
_atom_site_label
_atom_site_type_symbol
_atom_site_fract_x
_atom_site_fract_y
_atom_site_fract_z
Sr1 Sr 0.42121(4) 0.18399(7) 0.20198(2)
O1 O 0.6117(2) 0.1906(5) 0.15847(15)
O2 O 0.4901(3) 0.1659(6) 0.06188(16)
O3 O 0.5367(3) 0.1605(5) -0.17001(16)
O4 O 0.5349(3) 0.4708(5) -0.18302(17)
O5 O 0.2562(3) 0.2171(6) 0.11492(18)
O6 O 0.1922(3) 0.1480(6) 0.00233(19)
O7 O 0.0792(3) 0.5565(6) 0.27105(19)
O8 O -0.0959(3) 0.6175(6) 0.2535(2)
N1 N 0.6383(4) 0.1721(7) -0.0328(2)
N2 N 0.0827(4) 0.3952(8) 0.1440(2)
C1 C 0.6746(4) 0.1901(9) 0.0456(2)
C2 C 0.5839(3) 0.1824(7) 0.0913(2)
C3 C 0.5934(5) 0.3502(7) -0.0670(3)
C4 C 0.5529(3) 0.3240(9) -0.1465(2)
C5 C 0.0867(4) 0.3348(10) 0.0683(3)
C6 C 0.1874(4) 0.2205(8) 0.0615(3)
C7 C -0.0206(4) 0.4757(9) 0.1584(3)
C8 C -0.0100(4) 0.5560(8) 0.2344(3)
O9 O 0.2836(3) -0.0553(6) 0.2455(2)
O10 O 0.2919(4) 0.3674(7) 0.2818(3)
H1 H 0.686(5) 0.162(10) -0.057(3)
H2 H 0.593(5) 0.092(10) -0.042(3)
H3 H 0.126(4) 0.467(8) 0.151(3)
H4 H 0.110(5) 0.292(10) 0.183(3)
H5 H 0.709(4) 0.335(7) 0.056(2)
H6 H 0.724(4) 0.105(7) 0.059(2)
H7 H 0.646(4) 0.450(8) -0.056(3)
H8 H 0.536(5) 0.393(8) -0.048(3)
H9 H 0.032(4) 0.257(7) 0.053(3)
H10 H 0.080(4) 0.433(7) 0.037(2)
H11 H -0.076(4) 0.374(8) 0.150(3)
H12 H -0.036(5) 0.561(9) 0.131(3)
H13 H 0.211(7) -0.014(13) 0.258(4)
H14 H 0.305(5) -0.094(9) 0.277(3)
H15 H 0.219(8) 0.368(15) 0.275(5)
H16 H 0.317(6) 0.447(11) 0.294(4)
O3A O 0.5367(3) 0.3395(5) 0.32999(16)
O3B O 0.4633(3) -0.1605(5) 0.17001(16)
O4A O 0.5349(3) 0.0292(5) 0.31698(17)
O4B O 0.4651(3) 0.5292(5) 0.18302(17)
Sr1A Sr 0.42121(4) 0.31601(7) -0.29802(2)
Sr1B Sr 0.57879(4) -0.18399(7) -0.20198(2)
Sr1B_2 Sr 0.57879(4) 0.81601(7) -0.20198(2)
O11 O 0.8134(4) 0.2578(7) 0.3793(3)
H17 H 0.866(5) 0.299(10) 0.386(3)
H18 H 0.776(6) 0.302(12) 0.336(4)
O12 O 0.0168(4) 0.0687(8) 0.9056(3)
H19 H 0.076(5) 0.093(9) 0.937(3)
H20 H 0.039(6) 0.034(13) 0.872(4)
O13 O 0.3160(6) 0.1312(9) 0.4146(3)
H21 H 0.283(7) 0.210(12) 0.446(4)
H22 H 0.309(6) 0.177(11) 0.384(3)
loop_
_geom_bond_atom_site_label_1
_geom_bond_atom_site_label_2
_geom_bond_site_symmetry_1
_geom_bond_site_symmetry_2
Sr1 O1 1_555 1_555
O1 C2 1_555 1_555
O2 Sr1 1_555 1_555
O3 C4 1_555 1_555
O4 C4 1_555 1_555
O5 Sr1 1_555 1_555
O6 C6 1_555 1_555
O7 C8 1_555 1_555
O8 C8 1_555 1_555
N1 C1 1_555 1_555
N2 C5 1_555 1_555
C1 C2 1_555 1_555
C2 O2 1_555 1_555
C3 N1 1_555 1_555
C4 C3 1_555 1_555
C5 C6 1_555 1_555
C6 O5 1_555 1_555
C7 N2 1_555 1_555
C8 C7 1_555 1_555
O9 Sr1 1_555 1_555
O10 Sr1 1_555 1_555
O11 H17 1_555 1_555
O12 H19 1_555 1_555
O13 H21 1_555 1_555
H1 N1 1_555 1_555
H2 N1 1_555 1_555
H3 N2 1_555 1_555
H4 N2 1_555 1_555
H5 C1 1_555 1_555
H6 C1 1_555 1_555
H7 C3 1_555 1_555
H8 C3 1_555 1_555
H9 C5 1_555 1_555
H10 C5 1_555 1_555
H11 C7 1_555 1_555
H12 C7 1_555 1_555
H13 O9 1_555 1_555
H14 O9 1_555 1_555
H15 O10 1_555 1_555
H16 O10 1_555 1_555
H18 O11 1_555 1_555
H20 O12 1_555 1_555
H22 O13 1_555 1_555
O3A Sr1 1_555 1_555
O3B Sr1 1_555 1_555
O4A Sr1 1_555 1_555
O4B Sr1 1_555 1_555
Sr1A O3 1_555 1_555
Sr1B O3 1_555 1_555
Sr1B_2 O4 1_555 1_555
O4 Sr1A 1_555 1_555

#END
