
#######################################################################
#
#                 Cambridge Crystallographic Data Centre
#                                CCDC 
#
#######################################################################
#
# If this CIF has been generated from an entry in the Cambridge 
# Structural Database, then it will include bibliographic, chemical, 
# crystal, experimental, refinement or atomic coordinate data resulting 
# from the CCDC's data processing and validation procedures.
#
#######################################################################

data_AZEMAU
_symmetry_cell_setting           monoclinic
_symmetry_space_group_name_H-M   'P 21/n'
_symmetry_Int_Tables_number      14
_space_group_name_Hall           '-P 2yn'
loop_
_symmetry_equiv_pos_site_id
_symmetry_equiv_pos_as_xyz
1 x,y,z
2 1/2-x,1/2+y,1/2-z
3 -x,-y,-z
4 1/2+x,1/2-y,1/2+z
_cell_length_a                   11.060(11)
_cell_length_b                   16.603(17)
_cell_length_c                   13.048(13)
_cell_angle_alpha                90
_cell_angle_beta                 95.832(12)
_cell_angle_gamma                90
_cell_volume                     2383.59
loop_
_atom_site_label
_atom_site_type_symbol
_atom_site_fract_x
_atom_site_fract_y
_atom_site_fract_z
Zn1 Zn 0.59799(3) 0.19833(2) 0.75023(3)
C1 C 0.3931(4) 0.1316(2) 0.8091(4)
C2 C 0.3024(3) 0.0860(3) 0.8651(3)
H1 H 0.3376 0.0350 0.8887
H2 H 0.2848 0.1166 0.9252
C3 C 0.1836(3) 0.0054(2) 0.7391(3)
C4 C 0.2708(3) -0.0542(3) 0.7351(3)
H3 H 0.3458 -0.0492 0.7739
C5 C 0.2461(4) -0.1213(3) 0.6731(4)
H4 H 0.3045 -0.1614 0.6714
C6 C 0.1378(4) -0.1294(3) 0.6150(4)
H5 H 0.1224 -0.1745 0.5733
C7 C 0.0498(3) -0.0696(2) 0.6182(3)
H6 H -0.0248 -0.0751 0.5789
C8 C 0.0720(3) -0.0027(2) 0.6785(3)
C9 C -0.1333(3) 0.0424(2) 0.6638(3)
H7 H -0.1556 -0.0025 0.7056
H8 H -0.1504 0.0278 0.5918
C10 C -0.2052(3) 0.1162(2) 0.6870(3)
C11 C 0.4652(3) 0.3185(2) 0.6107(3)
H9 H 0.4208 0.3365 0.6631
C12 C 0.5327(4) 0.3056(3) 0.4613(3)
H10 H 0.5444 0.3122 0.3922
C13 C 0.5916(4) 0.2538(2) 0.5279(3)
H11 H 0.6517 0.2181 0.5123
C14 C 0.3775(3) 0.4154(2) 0.4781(3)
H12 H 0.3248 0.4304 0.5300
H13 H 0.3266 0.4002 0.4162
C15 C 0.4558(3) 0.4874(2) 0.4549(3)
H14 H 0.5010 0.4741 0.3973
H15 H 0.4032 0.5326 0.4344
C16 C 0.7757(3) 0.3243(2) 0.8252(3)
H16 H 0.7982 0.3314 0.7590
C17 C 0.7690(4) 0.3369(3) 0.9901(3)
H17 H 0.7852 0.3531 1.0583
C18 C 0.6860(4) 0.2820(2) 0.9526(3)
H18 H 0.6335 0.2543 0.9913
C19 C 0.9287(3) 0.4200(2) 0.9082(3)
H19 H 0.9164 0.4546 0.8481
H20 H 1.0022 0.3891 0.9027
C20 C 0.9464(3) 0.4713(2) 1.0022(3)
H21 H 0.9607 0.4372 1.0626
H22 H 0.8731 0.5023 1.0085
N1 N 0.5493(3) 0.26190(18) 0.6222(2)
N2 N 0.4521(3) 0.34669(18) 0.5148(2)
N3 N 0.6908(3) 0.27358(18) 0.8490(2)
N4 N 0.8246(3) 0.36372(17) 0.9075(2)
O1 O 0.4940(3) 0.1424(2) 0.8537(3)
O2 O 0.3634(6) 0.1578(3) 0.7240(3)
O3 O 0.1929(2) 0.07155(19) 0.8022(2)
O4 O -0.0086(2) 0.05983(15) 0.6861(2)
O5 O -0.1613(2) 0.18329(16) 0.6831(3)
O6 O -0.3137(2) 0.10235(15) 0.7083(2)
Zn1B Zn 0.40201(3) 0.80167(2) 0.24977(3)
Zn1_2 Zn -0.40201(3) 0.19833(2) 0.75023(3)
Zn1B_2 Zn 1.40201(3) 0.80167(2) 1.24977(3)
Zn1_3 Zn 1.59799(3) 0.19833(2) 0.75023(3)
C1_2 C 1.3931(4) 0.1316(2) 0.8091(4)
C2_2 C 1.3024(3) 0.0860(3) 0.8651(3)
H1_2 H 1.3376 0.0350 0.8887
H2_2 H 1.2848 0.1166 0.9252
C3_2 C 1.1836(3) 0.0054(2) 0.7391(3)
C4_2 C 1.2708(3) -0.0542(3) 0.7351(3)
H3_2 H 1.3458 -0.0492 0.7739
C5_2 C 1.2461(4) -0.1213(3) 0.6731(4)
H4_2 H 1.3045 -0.1614 0.6714
C6_2 C 1.1378(4) -0.1294(3) 0.6150(4)
H5_2 H 1.1224 -0.1745 0.5733
C7_2 C 1.0498(3) -0.0696(2) 0.6182(3)
H6_2 H 0.9752 -0.0751 0.5789
C8_2 C 1.0720(3) -0.0027(2) 0.6785(3)
C9_2 C 0.8667(3) 0.0424(2) 0.6638(3)
H7_2 H 0.8444 -0.0025 0.7056
H8_2 H 0.8496 0.0278 0.5918
C10_2 C 0.7948(3) 0.1162(2) 0.6870(3)
C11B C 0.5348(3) 0.6815(2) 0.3893(3)
H9B H 0.5792 0.6635 0.3369
C12B C 0.4673(4) 0.6944(3) 0.5387(3)
H10B H 0.4556 0.6878 0.6078
C13B C 0.4084(4) 0.7462(2) 0.4721(3)
H11B H 0.3483 0.7819 0.4877
C14B C 0.6225(3) 0.5846(2) 0.5219(3)
H12B H 0.6752 0.5696 0.4700
H13B H 0.6734 0.5998 0.5838
C15B C 0.5442(3) 0.5126(2) 0.5451(3)
H14B H 0.4990 0.5259 0.6027
H15B H 0.5968 0.4674 0.5656
C16B C 1.2243(3) 0.6757(2) 1.1748(3)
H16B H 1.2018 0.6686 1.2410
C17B C 1.2310(4) 0.6631(3) 1.0099(3)
H17B H 1.2148 0.6469 0.9417
C18B C 1.3140(4) 0.7180(2) 1.0474(3)
H18B H 1.3665 0.7457 1.0087
C19B C 1.0713(3) 0.5800(2) 1.0918(3)
H19B H 1.0836 0.5454 1.1519
H20B H 0.9978 0.6109 1.0973
C20B C 1.0536(3) 0.5287(2) 0.9978(3)
H21B H 1.0393 0.5628 0.9374
H22B H 1.1269 0.4977 0.9915
N1B N 0.4507(3) 0.73810(18) 0.3778(2)
N2B N 0.5479(3) 0.65331(18) 0.4852(2)
N3B N 1.3092(3) 0.72642(18) 1.1510(2)
N3B_2 N 0.3092(3) 0.72642(18) 0.1510(2)
N4B N 1.1754(3) 0.63628(17) 1.0925(2)
O1_2 O 1.4940(3) 0.1424(2) 0.8537(3)
O1B O 0.5060(3) 0.8576(2) 0.1463(3)
O2_2 O 1.3634(6) 0.1578(3) 0.7240(3)
O3_2 O 1.1929(2) 0.07155(19) 0.8022(2)
O4_2 O 0.9914(2) 0.05983(15) 0.6861(2)
O5_2 O 0.8387(2) 0.18329(16) 0.6831(3)
O6_2 O 0.6863(2) 0.10235(15) 0.7083(2)
O6B O 0.3137(2) 0.89765(15) 0.2917(2)
O7 O 0.0772(3) 0.2411(2) 0.6890(3)
H23 H 0.1358 0.2077 0.6938
H24 H 0.0365 0.2075 0.7205
O8 O 0.0373(4) 0.3874(2) 0.5697(3)
H26 H 0.0367 0.3384 0.5889
O9 O 0.6679(4) 0.9603(2) 0.8541(3)
H27 H 0.6015 0.9496 0.8787
H28 H 0.6490 1.0047 0.8807
H25? H -0.0068 0.3788 0.6183
loop_
_geom_bond_atom_site_label_1
_geom_bond_atom_site_label_2
_geom_bond_site_symmetry_1
_geom_bond_site_symmetry_2
Zn1 N1 1_555 1_555
C1 C2 1_555 1_555
C2 H1 1_555 1_555
H2 C2 1_555 1_555
C3 C4 1_555 1_555
C4 H3 1_555 1_555
C5 C4 1_555 1_555
H4 C5 1_555 1_555
C6 C5 1_555 1_555
H5 C6 1_555 1_555
C7 C6 1_555 1_555
H6 C7 1_555 1_555
C8 C3 1_555 1_555
C9 H7 1_555 1_555
H8 C9 1_555 1_555
C10 C9 1_555 1_555
C11 H9 1_555 1_555
C12 H10 1_555 1_555
C13 C12 1_555 1_555
H11 C13 1_555 1_555
C14 H12 1_555 1_555
H13 C14 1_555 1_555
C15 C14 1_555 1_555
H14 C15 1_555 1_555
H15 C15 1_555 1_555
C16 H16 1_555 1_555
C17 H17 1_555 1_555
C18 C17 1_555 1_555
H18 C18 1_555 1_555
C19 H19 1_555 1_555
H20 C19 1_555 1_555
C20 C19 1_555 1_555
H21 C20 1_555 1_555
H22 C20 1_555 1_555
N1 C11 1_555 1_555
N2 C11 1_555 1_555
N3 Zn1 1_555 1_555
N4 C16 1_555 1_555
O1 Zn1 1_555 1_555
O2 C1 1_555 1_555
O3 C2 1_555 1_555
O4 C8 1_555 1_555
O5 C10 1_555 1_555
O6 C10 1_555 1_555
O7 H23 1_555 1_555
H24 O7 1_555 1_555
O8 H26 1_555 1_555
O9 H27 1_555 1_555
H28 O9 1_555 1_555
Zn1B N1B 1_555 1_555
Zn1_2 O6 1_555 1_555
Zn1B_2 N3B 1_555 1_555
Zn1_3 O1_2 1_555 1_555
C1_2 C2_2 1_555 1_555
C2_2 H1_2 1_555 1_555
H2_2 C2_2 1_555 1_555
C3_2 C4_2 1_555 1_555
C4_2 H3_2 1_555 1_555
C5_2 C4_2 1_555 1_555
H4_2 C5_2 1_555 1_555
C6_2 C5_2 1_555 1_555
H5_2 C6_2 1_555 1_555
C7_2 C6_2 1_555 1_555
H6_2 C7_2 1_555 1_555
C8_2 C3_2 1_555 1_555
C9_2 H7_2 1_555 1_555
H8_2 C9_2 1_555 1_555
C10_2 C9_2 1_555 1_555
C11B H9B 1_555 1_555
C12B H10B 1_555 1_555
C13B C12B 1_555 1_555
H11B C13B 1_555 1_555
C14B H12B 1_555 1_555
H13B C14B 1_555 1_555
C15B C15 1_555 1_555
H14B C15B 1_555 1_555
H15B C15B 1_555 1_555
C16B H16B 1_555 1_555
C17B H17B 1_555 1_555
C18B C17B 1_555 1_555
H18B C18B 1_555 1_555
C19B H19B 1_555 1_555
H20B C19B 1_555 1_555
C20B C20 1_555 1_555
H21B C20B 1_555 1_555
H22B C20B 1_555 1_555
N1B C11B 1_555 1_555
N2B C11B 1_555 1_555
N3B C16B 1_555 1_555
N3B_2 Zn1B 1_555 1_555
N4B C16B 1_555 1_555
O1_2 C1_2 1_555 1_555
O1B Zn1B 1_555 1_555
O2_2 C1_2 1_555 1_555
O3_2 C2_2 1_555 1_555
O4_2 C8_2 1_555 1_555
O5_2 C10_2 1_555 1_555
O6_2 Zn1 1_555 1_555
O6B Zn1B 1_555 1_555
C1 O1 1_555 1_555
C3 O3 1_555 1_555
C7 C8 1_555 1_555
C9 O4 1_555 1_555
C12 N2 1_555 1_555
C13 N1 1_555 1_555
C14 N2 1_555 1_555
C16 N3 1_555 1_555
C17 N4 1_555 1_555
C18 N3 1_555 1_555
C19 N4 1_555 1_555
C3_2 O3_2 1_555 1_555
C7_2 C8_2 1_555 1_555
C9_2 O4_2 1_555 1_555
C10_2 O6_2 1_555 1_555
C12B N2B 1_555 1_555
C13B N1B 1_555 1_555
C14B C15B 1_555 1_555
C14B N2B 1_555 1_555
C17B N4B 1_555 1_555
C18B N3B 1_555 1_555
C19B C20B 1_555 1_555
C19B N4B 1_555 1_555

#END
