
#######################################################################
#
#                 Cambridge Crystallographic Data Centre
#                                CCDC 
#
#######################################################################
#
# If this CIF has been generated from an entry in the Cambridge 
# Structural Database, then it will include bibliographic, chemical, 
# crystal, experimental, refinement or atomic coordinate data resulting 
# from the CCDC's data processing and validation procedures.
#
#######################################################################

data_AZIGOF
_symmetry_cell_setting           triclinic
_symmetry_space_group_name_H-M   'P -1'
_symmetry_Int_Tables_number      2
_space_group_name_Hall           '-P 1'
loop_
_symmetry_equiv_pos_site_id
_symmetry_equiv_pos_as_xyz
1 x,y,z
2 -x,-y,-z
_cell_length_a                   5.3010(6)
_cell_length_b                   9.6650(12)
_cell_length_c                   10.3016(14)
_cell_angle_alpha                67.193(3)
_cell_angle_beta                 89.997(4)
_cell_angle_gamma                80.322(4)
_cell_volume                     478.372
loop_
_atom_site_label
_atom_site_type_symbol
_atom_site_fract_x
_atom_site_fract_y
_atom_site_fract_z
Ag1 Ag 0.7348(2) 0.74520(18) 0.71866(13)
N1 N 0.897(2) 0.7388(15) 0.9177(11)
C1 C 0.774(3) 0.8277(17) 0.9778(14)
H1 H 0.6108 0.8827 0.9396
C2 C 1.124(3) 0.6601(17) 0.9742(15)
H2 H 1.2101 0.5953 0.9348
C3 C 0.876(3) 0.8418(17) 1.0935(15)
H3 H 0.7840 0.9050 1.1328
C4 C 1.161(2) 0.6585(15) 1.4133(13)
H4 H 1.2392 0.5568 1.4220
H5 H 0.9763 0.6650 1.4093
C5 C 1.233(3) 0.7741(18) 1.2773(15)
H6 H 1.1744 0.8761 1.2740
H7 H 1.4181 0.7584 1.2749
C6 C 1.116(3) 0.7608(16) 1.1501(14)
C7 C 1.242(3) 0.6690(17) 1.0890(14)
H8 H 1.4052 0.6132 1.1245
S1 S 1.2591(6) 0.6861(4) 1.5659(3)
O2 O 1.5275(15) 0.7034(11) 1.5502(9)
O3 O 1.0996(16) 0.8253(11) 1.5604(10)
O4 O 1.2238(19) 0.5550(11) 1.6870(9)
O2_2 O 0.5275(15) 0.7034(11) 0.5502(9)
O3_2 O 1.0996(16) 0.8253(11) 0.5604(10)
Ag1_2 Ag 1.7348(2) 0.74520(18) 1.71866(13)
Ag1_3 Ag 0.7348(2) 0.74520(18) 1.71866(13)
O1 O 0.3776(19) 0.9956(11) 0.6682(11)
loop_
_geom_bond_atom_site_label_1
_geom_bond_atom_site_label_2
_geom_bond_site_symmetry_1
_geom_bond_site_symmetry_2
Ag1 N1 1_555 1_555
N1 C1 1_555 1_555
C1 H1 1_555 1_555
C2 N1 1_555 1_555
H2 C2 1_555 1_555
C3 C1 1_555 1_555
H3 C3 1_555 1_555
C4 H4 1_555 1_555
H5 C4 1_555 1_555
C5 C4 1_555 1_555
H6 C5 1_555 1_555
H7 C5 1_555 1_555
C6 C3 1_555 1_555
C7 C2 1_555 1_555
H8 C7 1_555 1_555
S1 C4 1_555 1_555
O2 S1 1_555 1_555
O3 S1 1_555 1_555
O4 S1 1_555 1_555
O2_2 Ag1 1_555 1_555
O3_2 Ag1 1_555 1_555
Ag1_2 O2 1_555 1_555
Ag1_3 O3 1_555 1_555
C5 C6 1_555 1_555
C6 C7 1_555 1_555

#END
