
#######################################################################
#
#                 Cambridge Crystallographic Data Centre
#                                CCDC 
#
#######################################################################
#
# If this CIF has been generated from an entry in the Cambridge 
# Structural Database, then it will include bibliographic, chemical, 
# crystal, experimental, refinement or atomic coordinate data resulting 
# from the CCDC's data processing and validation procedures.
#
#######################################################################

data_AZIHIA
_symmetry_cell_setting           triclinic
_symmetry_space_group_name_H-M   'P -1'
_symmetry_Int_Tables_number      2
_space_group_name_Hall           '-P 1'
loop_
_symmetry_equiv_pos_site_id
_symmetry_equiv_pos_as_xyz
1 x,y,z
2 -x,-y,-z
_cell_length_a                   7.4607(15)
_cell_length_b                   10.995(2)
_cell_length_c                   18.615(4)
_cell_angle_alpha                78.49(3)
_cell_angle_beta                 88.01(3)
_cell_angle_gamma                72.81(3)
_cell_volume                     1428.97
loop_
_atom_site_label
_atom_site_type_symbol
_atom_site_fract_x
_atom_site_fract_y
_atom_site_fract_z
Cd1 Cd 0.51872(2) 0.292406(17) 0.089035(10)
Cd2 Cd 1.32117(2) 0.650660(15) 0.457530(9)
O1 O 0.5876(3) 0.4581(2) 0.13451(12)
O2 O 0.7770(3) 0.26316(19) 0.17342(12)
O3 O 1.0371(3) 0.4251(2) 0.09248(11)
O4 O 1.2823(3) 0.3091(2) 0.16728(11)
O5 O 1.2639(3) 0.5720(2) 0.35916(13)
O6 O 1.0215(3) 0.6111(2) 0.43036(11)
O7 O 0.5939(3) 0.71205(18) 0.37130(11)
O8 O 0.6305(3) 0.52061(18) 0.44240(10)
O9 O 0.3191(3) 0.4554(2) 0.00790(11)
N1 N 0.6640(3) 0.2066(2) -0.01061(13)
N2 N 0.5862(4) 0.0675(2) 0.11906(13)
N3 N 1.3596(3) 0.7804(2) 0.53573(12)
N4 N 1.1813(3) 0.8677(2) 0.40149(12)
C1 C 0.8176(3) 0.4344(2) 0.22479(12)
C2 C 1.0077(3) 0.4260(2) 0.21815(13)
C3 C 1.0933(4) 0.4706(2) 0.26810(14)
H1 H 1.2199 0.4650 0.2636
C4 C 0.9942(3) 0.5235(2) 0.32502(13)
C5 C 0.8032(3) 0.5316(2) 0.33179(12)
C6 C 0.7171(3) 0.4877(2) 0.28118(13)
H2 H 0.5902 0.4940 0.2851
C7 C 0.7227(4) 0.3811(2) 0.17413(13)
C8 C 1.1164(4) 0.3828(2) 0.15340(13)
C9 C 1.0974(4) 0.5725(2) 0.37582(14)
C10 C 0.6729(3) 0.5940(2) 0.38724(13)
C11 C 0.6974(5) 0.2748(3) -0.07392(17)
H3 H 0.6618 0.3649 -0.0805
C12 C 0.7843(5) 0.2161(4) -0.13120(18)
H4 H 0.8042 0.2668 -0.1753
C13 C 0.8391(6) 0.0854(4) -0.1221(2)
H5 H 0.8983 0.0457 -0.1598
C14 C 0.8069(4) 0.0095(3) -0.05586(18)
C15 C 0.7149(4) 0.0755(3) -0.00122(15)
C16 C 0.6782(4) 0.0020(2) 0.06806(16)
C17 C 0.7373(5) -0.1339(3) 0.0796(2)
C18 C 0.7022(6) -0.2010(3) 0.1485(2)
H6 H 0.7409 -0.2914 0.1589
C19 C 0.6122(6) -0.1348(4) 0.1999(2)
H7 H 0.5901 -0.1790 0.2458
C20 C 0.5531(6) 0.0015(3) 0.18279(19)
H8 H 0.4884 0.0468 0.2176
C21 C 0.8620(5) -0.1288(3) -0.0421(2)
H9 H 0.9203 -0.1722 -0.0787
C22 C 0.8314(5) -0.1967(3) 0.0220(2)
H10 H 0.8717 -0.2870 0.0300
C23 C 1.4499(4) 0.7380(3) 0.60036(15)
H11 H 1.4992 0.6489 0.6170
C24 C 1.4739(5) 0.8216(3) 0.64459(17)
H12 H 1.5363 0.7887 0.6899
C25 C 1.4038(5) 0.9521(3) 0.61965(17)
H13 H 1.4201 1.0093 0.6478
C26 C 1.3079(4) 1.0006(3) 0.55208(16)
C27 C 1.2904(4) 0.9098(2) 0.51132(14)
C28 C 1.1954(4) 0.9564(2) 0.44016(14)
C29 C 1.1226(4) 1.0906(3) 0.41412(17)
C30 C 1.0345(5) 1.1303(3) 0.34425(18)
H14 H 0.9855 1.2183 0.3243
C31 C 1.0207(5) 1.0401(3) 0.30582(18)
H15 H 0.9612 1.0657 0.2599
C32 C 1.0972(5) 0.9088(3) 0.33649(16)
H16 H 1.0883 0.8476 0.3098
C33 C 1.2307(5) 1.1370(3) 0.52327(19)
H17 H 1.2433 1.1967 0.5503
C34 C 1.1410(5) 1.1791(3) 0.45825(19)
H18 H 1.0892 1.2679 0.4412
O4_2 O 0.2823(3) 0.3091(2) 0.16728(11)
O7_2 O 1.5939(3) 0.71205(18) 0.37130(11)
O8_2 O 1.6305(3) 0.52061(18) 0.44240(10)
O8A O 1.3695(3) 0.47939(18) 0.55760(10)
Cd1_2 Cd 1.51872(2) 0.292406(17) 0.089035(10)
Cd2_2 Cd 0.32117(2) 0.650660(15) 0.457530(9)
Cd2A Cd 0.67883(2) 0.349340(15) 0.542470(9)
loop_
_geom_bond_atom_site_label_1
_geom_bond_atom_site_label_2
_geom_bond_site_symmetry_1
_geom_bond_site_symmetry_2
Cd1 O1 1_555 1_555
Cd2 O5 1_555 1_555
O1 C7 1_555 1_555
O2 Cd1 1_555 1_555
O3 C8 1_555 1_555
O4 C8 1_555 1_555
O5 C9 1_555 1_555
O6 Cd2 1_555 1_555
O7 C10 1_555 1_555
O8 C10 1_555 1_555
O9 Cd1 1_555 1_555
N1 Cd1 1_555 1_555
N2 Cd1 1_555 1_555
N3 Cd2 1_555 1_555
N4 Cd2 1_555 1_555
C1 C2 1_555 1_555
C2 C3 1_555 1_555
C3 H1 1_555 1_555
C4 C3 1_555 1_555
C5 C4 1_555 1_555
C6 C1 1_555 1_555
H2 C6 1_555 1_555
C7 O2 1_555 1_555
C8 C2 1_555 1_555
C9 O6 1_555 1_555
C10 C5 1_555 1_555
C11 N1 1_555 1_555
H3 C11 1_555 1_555
C12 C11 1_555 1_555
H4 C12 1_555 1_555
C13 C12 1_555 1_555
H5 C13 1_555 1_555
C14 C13 1_555 1_555
C15 N1 1_555 1_555
C16 N2 1_555 1_555
C17 C16 1_555 1_555
C18 C17 1_555 1_555
H6 C18 1_555 1_555
C19 C18 1_555 1_555
H7 C19 1_555 1_555
C20 N2 1_555 1_555
H8 C20 1_555 1_555
C21 C14 1_555 1_555
H9 C21 1_555 1_555
C22 C17 1_555 1_555
H10 C22 1_555 1_555
C23 N3 1_555 1_555
H11 C23 1_555 1_555
C24 C23 1_555 1_555
H12 C24 1_555 1_555
C25 C24 1_555 1_555
H13 C25 1_555 1_555
C26 C25 1_555 1_555
C27 N3 1_555 1_555
C28 N4 1_555 1_555
C29 C28 1_555 1_555
C30 C29 1_555 1_555
H14 C30 1_555 1_555
C31 C30 1_555 1_555
H15 C31 1_555 1_555
C32 N4 1_555 1_555
H16 C32 1_555 1_555
C33 C26 1_555 1_555
H17 C33 1_555 1_555
C34 C29 1_555 1_555
H18 C34 1_555 1_555
O4_2 Cd1 1_555 1_555
O7_2 Cd2 1_555 1_555
O8_2 Cd2 1_555 1_555
O8A Cd2 1_555 1_555
Cd1_2 O4 1_555 1_555
Cd2_2 O7 1_555 1_555
Cd2A O8 1_555 1_555
O8 Cd2_2 1_555 1_555
C1 C7 1_555 1_555
C4 C9 1_555 1_555
C5 C6 1_555 1_555
C14 C15 1_555 1_555
C15 C16 1_555 1_555
C19 C20 1_555 1_555
C21 C22 1_555 1_555
C26 C27 1_555 1_555
C27 C28 1_555 1_555
C31 C32 1_555 1_555
C33 C34 1_555 1_555

#END
