
#######################################################################
#
#                 Cambridge Crystallographic Data Centre
#                                CCDC 
#
#######################################################################
#
# If this CIF has been generated from an entry in the Cambridge 
# Structural Database, then it will include bibliographic, chemical, 
# crystal, experimental, refinement or atomic coordinate data resulting 
# from the CCDC's data processing and validation procedures.
#
#######################################################################

data_AZIMUS
_symmetry_cell_setting           monoclinic
_symmetry_space_group_name_H-M   'P 21/c'
_symmetry_Int_Tables_number      14
_space_group_name_Hall           '-P 2ybc'
loop_
_symmetry_equiv_pos_site_id
_symmetry_equiv_pos_as_xyz
1 x,y,z
2 -x,1/2+y,1/2-z
3 -x,-y,-z
4 x,1/2-y,1/2+z
_cell_length_a                   6.838(2)
_cell_length_b                   18.809(5)
_cell_length_c                   10.705(3)
_cell_angle_alpha                90
_cell_angle_beta                 126.901(14)
_cell_angle_gamma                90
_cell_volume                     1101.02
loop_
_atom_site_label
_atom_site_type_symbol
_atom_site_fract_x
_atom_site_fract_y
_atom_site_fract_z
C1 C 0.1199(3) 0.63000(10) 0.3748(2)
C2 C 0.2227(3) 0.56454(10) 0.4747(2)
C3 C 0.3935(3) 0.57173(10) 0.6364(2)
H1 H 0.4431 0.6168 0.6806
C4 C 0.4892(3) 0.51227(11) 0.7312(2)
C5 C 0.4154(3) 0.44487(11) 0.6640(2)
H2 H 0.4805 0.4047 0.7273
C6 C 0.2465(3) 0.43711(10) 0.5040(2)
C7 C 0.1480(3) 0.49745(10) 0.4085(2)
H3 H 0.0327 0.4925 0.3010
C8 C 0.6645(4) 0.51904(11) 0.9031(2)
C9 C 0.1625(3) 0.36441(10) 0.4346(2)
Ni1 Ni 0.11091(4) 0.773616(12) 0.32089(3)
O1 O 0.2116(3) 0.68864(7) 0.44634(16)
O2 O -0.0451(3) 0.62603(8) 0.23299(18)
O3 O 0.7481(3) 0.58432(8) 0.95119(18)
H4 H 0.8391 0.5853 1.0470
O4 O 0.7292(4) 0.47053(9) 0.99436(19)
O5 O 0.2577(3) 0.31100(8) 0.51934(18)
O6 O -0.0066(3) 0.36214(7) 0.28913(17)
O7 O -0.1375(4) 0.78863(9) 0.3587(2)
H5 H -0.0823 0.8266 0.4123
H6 H -0.1097 0.7563 0.4230
O8 O 0.3070(3) 0.74742(11) 0.2478(2)
H7 H 0.4388 0.7241 0.3076
H8 H 0.3268 0.7712 0.1886
O9 O 0.4158(3) 0.82950(8) 0.53994(18)
H9 H 0.4312 0.8744 0.5432
H10 H 0.5507 0.8132 0.5647
Ni1A Ni -0.11091(4) 0.273616(12) 0.17911(3)
O6A O 0.0066(3) 0.86214(7) 0.21087(17)
loop_
_geom_bond_atom_site_label_1
_geom_bond_atom_site_label_2
_geom_bond_site_symmetry_1
_geom_bond_site_symmetry_2
C1 C2 1_555 1_555
C2 C3 1_555 1_555
C3 H1 1_555 1_555
C4 C3 1_555 1_555
C5 C4 1_555 1_555
H2 C5 1_555 1_555
C6 C5 1_555 1_555
C7 C2 1_555 1_555
H3 C7 1_555 1_555
C8 C4 1_555 1_555
C9 C6 1_555 1_555
Ni1 O1 1_555 1_555
O1 C1 1_555 1_555
O2 C1 1_555 1_555
O3 C8 1_555 1_555
H4 O3 1_555 1_555
O4 C8 1_555 1_555
O5 C9 1_555 1_555
O6 C9 1_555 1_555
O7 Ni1 1_555 1_555
H5 O7 1_555 1_555
H6 O7 1_555 1_555
O8 Ni1 1_555 1_555
H7 O8 1_555 1_555
H8 O8 1_555 1_555
O9 Ni1 1_555 1_555
H9 O9 1_555 1_555
H10 O9 1_555 1_555
Ni1A O6 1_555 1_555
O6A Ni1 1_555 1_555
C6 C7 1_555 1_555

#END
