
#######################################################################
#
#                 Cambridge Crystallographic Data Centre
#                                CCDC 
#
#######################################################################
#
# If this CIF has been generated from an entry in the Cambridge 
# Structural Database, then it will include bibliographic, chemical, 
# crystal, experimental, refinement or atomic coordinate data resulting 
# from the CCDC's data processing and validation procedures.
#
#######################################################################

data_AZIPAA
_symmetry_cell_setting           triclinic
_symmetry_space_group_name_H-M   'P -1'
_symmetry_Int_Tables_number      2
_space_group_name_Hall           '-P 1'
loop_
_symmetry_equiv_pos_site_id
_symmetry_equiv_pos_as_xyz
1 x,y,z
2 -x,-y,-z
_cell_length_a                   13.1321(19)
_cell_length_b                   13.3093(18)
_cell_length_c                   13.4611(16)
_cell_angle_alpha                103.780(12)
_cell_angle_beta                 107.349(11)
_cell_angle_gamma                115.764(11)
_cell_volume                     1827.97
loop_
_atom_site_label
_atom_site_type_symbol
_atom_site_fract_x
_atom_site_fract_y
_atom_site_fract_z
P1 P 0.72301(12) 0.23854(11) 0.57754(10)
P2 P 0.57731(12) 0.15454(12) 0.70991(10)
N1 N 0.7868(5) 0.0810(6) 0.2791(5)
N2 N 1.2615(6) 0.1490(6) 0.4735(5)
C1 C 0.7425(7) 0.0680(7) 0.3392(6)
C2 C 0.8453(6) 0.0934(7) 0.2012(6)
C3 C 0.9497(7) 0.2269(8) 0.2484(7)
H1 H 0.9831 0.2381 0.1939
H2 H 0.9143 0.2771 0.2568
C4 C 1.0594(7) 0.2719(7) 0.3655(7)
H3 H 1.0293 0.2723 0.4232
H4 H 1.1272 0.3558 0.3886
C5 C 1.1114(6) 0.1883(6) 0.3592(5)
H5 H 1.1436 0.1924 0.3024
C6 C 1.0038(7) 0.0541(6) 0.3150(7)
H6 H 0.9706 0.0463 0.3701
H7 H 1.0367 0.0017 0.3074
C7 C 0.8964(7) 0.0119(8) 0.1984(6)
H8 H 0.8277 -0.0718 0.1745
H9 H 0.9278 0.0110 0.1416
C8 C 1.2262(7) 0.2392(6) 0.4769(6)
C9 C 1.2936(7) 0.0832(6) 0.4830(5)
C10 C 0.7395(9) 0.0527(12) 0.0841(8)
H10 H 0.6743 -0.0327 0.0552
H11 H 0.7038 0.1017 0.0925
H12 H 0.7741 0.0636 0.0311
C11 C 1.1981(10) 0.2602(9) 0.5797(7)
H13 H 1.1251 0.1853 0.5658
H14 H 1.2703 0.2843 0.6479
H15 H 1.1812 0.3243 0.5899
C12 C 1.3440(8) 0.3557(7) 0.4949(8)
H16 H 1.3584 0.3389 0.4287
H17 H 1.3301 0.4217 0.5053
H18 H 1.4170 0.3790 0.5620
C13 C 0.6494(5) 0.2761(5) 0.6651(4)
H19 H 0.7136 0.3534 0.7328
H20 H 0.5846 0.2867 0.6208
C14 C 0.8909(5) 0.3259(5) 0.6813(4)
C15 C 0.9526(6) 0.2656(6) 0.6936(5)
H21 H 0.9102 0.1825 0.6449
C16 C 1.0780(7) 0.3271(8) 0.7778(6)
H22 H 1.1194 0.2856 0.7850
C17 C 1.1401(6) 0.4498(7) 0.8503(5)
H23 H 1.2229 0.4908 0.9083
C18 C 1.0801(6) 0.5122(7) 0.8372(6)
H24 H 1.1229 0.5956 0.8850
C19 C 0.9556(6) 0.4501(6) 0.7525(5)
H25 H 0.9152 0.4923 0.7434
C20 C 0.7156(5) 0.3169(5) 0.4846(4)
C21 C 0.6026(7) 0.3043(6) 0.4216(5)
H26 H 0.5344 0.2669 0.4370
C22 C 0.5878(8) 0.3457(7) 0.3365(6)
H27 H 0.5108 0.3357 0.2945
C23 C 0.6906(9) 0.4024(7) 0.3157(6)
H28 H 0.6830 0.4322 0.2598
C24 C 0.8020(8) 0.4154(7) 0.3752(6)
H29 H 0.8694 0.4524 0.3588
C25 C 0.8168(6) 0.3736(6) 0.4614(5)
H30 H 0.8941 0.3839 0.5028
C26 C 0.5500(5) 0.2277(5) 0.8236(4)
C27 C 0.5097(8) 0.3060(7) 0.8151(6)
H31 H 0.5045 0.3298 0.7551
C28 C 0.4765(9) 0.3498(9) 0.8968(8)
H32 H 0.4464 0.4006 0.8893
C29 C 0.4876(8) 0.3189(8) 0.9893(6)
H33 H 0.4639 0.3474 1.0427
C30 C 0.5342(9) 0.2455(8) 1.0003(6)
H34 H 0.5447 0.2262 1.0630
C31 C 0.5662(7) 0.1996(6) 0.9177(5)
H35 H 0.5981 0.1504 0.9260
C32 C 0.7066(6) 0.1418(6) 0.7877(5)
C33 C 0.8240(7) 0.2471(8) 0.8775(5)
H36 H 0.8356 0.3246 0.8977
C34 C 0.9206(7) 0.2350(11) 0.9346(7)
H37 H 0.9981 0.3040 0.9932
C35 C 0.9016(10) 0.1213(14) 0.9046(8)
H38 H 0.9683 0.1143 0.9429
C36 C 0.7907(12) 0.0178(11) 0.8217(8)
H39 H 0.7813 -0.0586 0.8046
C37 C 0.6876(8) 0.0265(8) 0.7605(6)
H40 H 0.6098 -0.0437 0.7039
Ag1 Ag 0.63423(3) 0.02378(3) 0.44795(3)
Ag1A Ag 0.36577(3) -0.02378(3) 0.55205(3)
Ag1A_2 Ag 1.36577(3) -0.02378(3) 0.55205(3)
P2A P 0.42269(12) -0.15454(12) 0.29009(10)
C9A C 0.7064(7) -0.0832(6) 0.5170(5)
Cl1 Cl 0.27153(19) 0.3618(2) 0.1607(2)
O1 O 0.2188(14) 0.2442(10) 0.1511(11)
O2 O 0.2095(11) 0.4076(10) 0.1959(13)
O3 O 0.2482(10) 0.3545(16) 0.0496(10)
O4 O 0.4034(8) 0.4326(10) 0.2195(9)
loop_
_geom_bond_atom_site_label_1
_geom_bond_atom_site_label_2
_geom_bond_site_symmetry_1
_geom_bond_site_symmetry_2
P1 C13 1_555 1_555
P2 C13 1_555 1_555
Cl1 O1 1_555 1_555
O2 Cl1 1_555 1_555
O3 Cl1 1_555 1_555
O4 Cl1 1_555 1_555
N1 C1 1_555 1_555
N2 C8 1_555 1_555
C1 Ag1 1_555 1_555
C2 N1 1_555 1_555
C3 C2 1_555 1_555
H1 C3 1_555 1_555
H2 C3 1_555 1_555
C4 C3 1_555 1_555
H3 C4 1_555 1_555
H4 C4 1_555 1_555
C5 C4 1_555 1_555
H5 C5 1_555 1_555
C6 C5 1_555 1_555
H6 C6 1_555 1_555
H7 C6 1_555 1_555
C7 C2 1_555 1_555
H8 C7 1_555 1_555
H9 C7 1_555 1_555
C8 C5 1_555 1_555
C9 N2 1_555 1_555
C10 C2 1_555 1_555
H10 C10 1_555 1_555
H11 C10 1_555 1_555
H12 C10 1_555 1_555
C11 C8 1_555 1_555
H13 C11 1_555 1_555
H14 C11 1_555 1_555
H15 C11 1_555 1_555
C12 C8 1_555 1_555
H16 C12 1_555 1_555
H17 C12 1_555 1_555
H18 C12 1_555 1_555
C13 H19 1_555 1_555
H20 C13 1_555 1_555
C14 P1 1_555 1_555
C15 C14 1_555 1_555
H21 C15 1_555 1_555
C16 C15 1_555 1_555
H22 C16 1_555 1_555
C17 C16 1_555 1_555
H23 C17 1_555 1_555
C18 C17 1_555 1_555
H24 C18 1_555 1_555
C19 C14 1_555 1_555
H25 C19 1_555 1_555
C20 P1 1_555 1_555
C21 C20 1_555 1_555
H26 C21 1_555 1_555
C22 C21 1_555 1_555
H27 C22 1_555 1_555
C23 C22 1_555 1_555
H28 C23 1_555 1_555
C24 C23 1_555 1_555
H29 C24 1_555 1_555
C25 C20 1_555 1_555
H30 C25 1_555 1_555
C26 P2 1_555 1_555
C27 C26 1_555 1_555
H31 C27 1_555 1_555
C28 C27 1_555 1_555
H32 C28 1_555 1_555
C29 C28 1_555 1_555
H33 C29 1_555 1_555
C30 C29 1_555 1_555
H34 C30 1_555 1_555
C31 C26 1_555 1_555
H35 C31 1_555 1_555
C32 P2 1_555 1_555
C33 C32 1_555 1_555
H36 C33 1_555 1_555
C34 C33 1_555 1_555
H37 C34 1_555 1_555
C35 C34 1_555 1_555
H38 C35 1_555 1_555
C36 C35 1_555 1_555
H39 C36 1_555 1_555
C37 C32 1_555 1_555
H40 C37 1_555 1_555
Ag1 P1 1_555 1_555
Ag1A P2 1_555 1_555
Ag1A_2 C9 1_555 1_555
P2A Ag1 1_555 1_555
C9A Ag1 1_555 1_555
C6 C7 1_555 1_555
C18 C19 1_555 1_555
C24 C25 1_555 1_555
C30 C31 1_555 1_555
C36 C37 1_555 1_555

#END
