
#######################################################################
#
#                 Cambridge Crystallographic Data Centre
#                                CCDC 
#
#######################################################################
#
# If this CIF has been generated from an entry in the Cambridge 
# Structural Database, then it will include bibliographic, chemical, 
# crystal, experimental, refinement or atomic coordinate data resulting 
# from the CCDC's data processing and validation procedures.
#
#######################################################################

data_AZIXIR
_symmetry_cell_setting           monoclinic
_symmetry_space_group_name_H-M   'P 21/c'
_symmetry_Int_Tables_number      14
_space_group_name_Hall           '-P 2ybc'
loop_
_symmetry_equiv_pos_site_id
_symmetry_equiv_pos_as_xyz
1 x,y,z
2 -x,1/2+y,1/2-z
3 -x,-y,-z
4 x,1/2-y,1/2+z
_cell_length_a                   11.9738(5)
_cell_length_b                   12.0230(4)
_cell_length_c                   6.9571(3)
_cell_angle_alpha                90
_cell_angle_beta                 105.401(4)
_cell_angle_gamma                90
_cell_volume                     965.586
loop_
_atom_site_label
_atom_site_type_symbol
_atom_site_fract_x
_atom_site_fract_y
_atom_site_fract_z
Rb1 Rb 0.11224(4) -0.11709(4) 0.23072(7)
O1 O 0.0713(6) -0.1033(5) -0.2300(10)
O2 O 0.1661(5) 0.3786(4) 0.5968(10)
O3 O 0.2015(5) 0.0401(5) 0.5983(9)
O4 O 0.0880(4) 0.1881(5) 0.5829(8)
O5 O 0.6650(5) 0.2709(6) 0.5398(9)
O6 O 0.6074(6) 0.1054(5) 0.5877(13)
N1 N 0.5896(5) 0.2061(6) 0.5701(9)
C1 C 0.2840(6) 0.2186(6) 0.5897(9)
C2 C 0.2690(6) 0.3339(6) 0.5920(10)
C3 C 0.3609(7) 0.4063(7) 0.5906(11)
C4 C 0.4652(7) 0.3660(6) 0.5873(12)
C5 C 0.4801(6) 0.2488(6) 0.5818(9)
C6 C 0.3918(6) 0.1769(6) 0.5851(10)
C7 C 0.1863(7) 0.1422(6) 0.5922(11)
H1 H 0.10940 0.32000 0.58910
H2 H 0.34960 0.48270 0.59180
H3 H 0.52640 0.41390 0.58870
H4 H 0.40380 0.10050 0.58420
H5 H 0.11310 -0.05780 -0.28540
H6 H 0.02110 -0.12980 -0.34140
Rb1B Rb -0.11224(4) 0.11709(4) -0.23072(7)
Rb1C Rb 0.11224(4) -0.38291(4) -0.26928(7)
Rb1C_2 Rb 0.11224(4) 0.61709(4) 0.73072(7)
Rb1B_2 Rb -0.11224(4) 0.11709(4) 0.76928(7)
Rb1B_3 Rb 0.88776(4) 0.11709(4) 0.76928(7)
O1B O -0.0713(6) 0.1033(5) 0.2300(10)
O1C O 0.0713(6) -0.3967(5) 0.2700(10)
O2C O 0.1661(5) 0.1214(4) 0.0968(10)
O4B O -0.0880(4) -0.1881(5) 0.4171(8)
O5B O 0.3350(5) -0.2709(6) 0.4602(9)
O6B O 0.3926(6) -0.1054(5) 0.4123(13)
H1C H 0.10940 0.18000 0.08910
H5B H -0.11310 0.05780 0.28540
H5C H 0.11310 -0.44220 0.21460
H6B H -0.02110 0.12980 0.34140
H6C H 0.02110 -0.37020 0.15860
loop_
_geom_bond_atom_site_label_1
_geom_bond_atom_site_label_2
_geom_bond_site_symmetry_1
_geom_bond_site_symmetry_2
Rb1 O1 1_555 1_555
O1 H5 1_555 1_555
O2 C2 1_555 1_555
O3 Rb1 1_555 1_555
O4 C7 1_555 1_555
O5 N1 1_555 1_555
O6 N1 1_555 1_555
N1 C5 1_555 1_555
C1 C2 1_555 1_555
C2 C3 1_555 1_555
C3 C4 1_555 1_555
C4 C5 1_555 1_555
C5 C6 1_555 1_555
C6 C1 1_555 1_555
C7 O3 1_555 1_555
H1 O2 1_555 1_555
H2 C3 1_555 1_555
H3 C4 1_555 1_555
H4 C6 1_555 1_555
H6 O1 1_555 1_555
Rb1B O1 1_555 1_555
Rb1C O1 1_555 1_555
Rb1C_2 O2 1_555 1_555
Rb1B_2 O4 1_555 1_555
Rb1B_3 O5 1_555 1_555
O1B Rb1 1_555 1_555
O1C Rb1 1_555 1_555
O2C Rb1 1_555 1_555
O4B Rb1 1_555 1_555
O5B Rb1 1_555 1_555
O6B Rb1 1_555 1_555
H1C O2C 1_555 1_555
H5B O1B 1_555 1_555
H5C O1C 1_555 1_555
H6B O1B 1_555 1_555
H6C O1C 1_555 1_555
O6 Rb1B_3 1_555 1_555
C1 C7 1_555 1_555
Rb1B O1B 1_555 1_555

#END
