
#######################################################################
#
#                 Cambridge Crystallographic Data Centre
#                                CCDC 
#
#######################################################################
#
# If this CIF has been generated from an entry in the Cambridge 
# Structural Database, then it will include bibliographic, chemical, 
# crystal, experimental, refinement or atomic coordinate data resulting 
# from the CCDC's data processing and validation procedures.
#
#######################################################################

data_AZIYOX01
_symmetry_cell_setting           monoclinic
_symmetry_space_group_name_H-M   'C 2/c'
_symmetry_Int_Tables_number      15
_space_group_name_Hall           '-C 2yn'
loop_
_symmetry_equiv_pos_site_id
_symmetry_equiv_pos_as_xyz
1 x,y,z
2 1/2+x,1/2+y,z
3 -x,y,1/2-z
4 1/2-x,1/2+y,1/2-z
5 -x,-y,-z
6 1/2-x,1/2-y,-z
7 x,-y,1/2+z
8 1/2+x,1/2-y,1/2+z
_cell_length_a                   17.8706(4)
_cell_length_b                   7.8010(2)
_cell_length_c                   18.8326(4)
_cell_angle_alpha                90
_cell_angle_beta                 111.990(1)
_cell_angle_gamma                90
_cell_volume                     2434.42
loop_
_atom_site_label
_atom_site_type_symbol
_atom_site_fract_x
_atom_site_fract_y
_atom_site_fract_z
Nd1 Nd 0.975746(9) 0.756278(17) 0.462496(8)
O1 O 1.05407(12) 0.8331(3) 0.37618(11)
O2 O 1.06243(12) 1.0154(3) 0.46733(11)
O3 O 1.07647(13) 1.2375(2) 0.09765(13)
O4 O 1.10766(12) 0.9606(3) 0.12788(11)
O5 O 0.83907(12) 0.6860(3) 0.46293(12)
O6 O 0.93514(12) 0.5007(3) 0.52197(11)
C1 C 1.07362(17) 0.9794(4) 0.40538(16)
C2 C 1.10942(19) 1.1152(4) 0.37096(17)
H1 H 1.1607 1.1539 0.4109
H2 H 1.0723 1.2146 0.3575
C3 C 1.12646(18) 1.0653(4) 0.30035(16)
H3 H 1.0752 1.0367 0.2578
H4 H 1.1616 0.9628 0.3117
C4 C 1.16813(19) 1.2146(4) 0.27645(17)
H5 H 1.1311 1.3143 0.2627
H6 H 1.2169 1.2482 0.3208
C5 C 1.19276(17) 1.1725(4) 0.20892(16)
H7 H 1.2183 1.2746 0.1962
H8 H 1.2332 1.0790 0.2238
C6 C 1.12096(18) 1.1182(4) 0.13871(16)
C7 C 0.86269(17) 0.5580(4) 0.50496(16)
C8 C 0.80818(18) 0.4633(4) 0.53526(17)
H9 H 0.7635 0.5387 0.5349
H10 H 0.8386 0.4264 0.5886
C9 C 0.77438(18) 0.3065(4) 0.48423(17)
H11 H 0.7398 0.3453 0.4322
H12 H 0.8196 0.2394 0.4801
O7 O 0.91343(14) 0.5672(3) 0.34934(13)
H14 H 0.906(2) 0.455(5) 0.366(2)
H15 H 0.930(3) 0.571(6) 0.321(2)
Nd1D Nd 1.024254(9) 1.243722(17) 0.537504(8)
Nd1F Nd 0.975746(9) 1.243722(17) -0.037504(8)
Nd1B Nd 1.024254(9) 0.756278(17) 0.037504(8)
Nd1D_2 Nd 1.024254(9) 0.243722(17) 0.537504(8)
Nd1E Nd 0.524254(9) -0.256278(17) 0.537504(8)
Nd1A Nd 0.475746(9) 0.256278(17) 0.462496(8)
Nd1B_2 Nd 1.024254(9) 0.756278(17) 1.037504(8)
Nd1F_2 Nd 0.975746(9) 1.243722(17) 0.962496(8)
O1D O 0.94593(12) 1.1669(3) 0.62382(11)
O2D O 0.93757(12) 0.9846(3) 0.53267(11)
O3D O 0.92353(13) 0.7625(2) 0.90235(13)
O3F O 1.07647(13) 0.7625(2) 0.59765(13)
O3B O 0.92353(13) 1.2375(2) 0.40235(13)
O4D O 0.89234(12) 1.0394(3) 0.87212(11)
O4B O 0.89234(12) 0.9606(3) 0.37212(11)
O4F O 1.10766(12) 1.0394(3) 0.62788(11)
O5E O 0.66093(12) -0.1860(3) 0.53707(12)
O5D O 1.16093(12) 1.3140(3) 0.53707(12)
O6E O 0.56486(12) -0.0007(3) 0.47803(11)
O6D O 1.06486(12) 0.4993(3) 0.47803(11)
O6_2 O 0.93514(12) 1.5007(3) 0.52197(11)
O6D_2 O 1.06486(12) 1.4993(3) 0.47803(11)
C1D C 0.92638(17) 1.0206(4) 0.59462(16)
C2D C 0.89058(19) 0.8848(4) 0.62904(17)
H1D H 0.8393 0.8461 0.5891
H2D H 0.9277 0.7854 0.6425
C3D C 0.87354(18) 0.9347(4) 0.69965(16)
H3D H 0.9248 0.9633 0.7422
H4D H 0.8384 1.0372 0.6883
C4D C 0.83187(19) 0.7854(4) 0.72355(17)
H5D H 0.8689 0.6857 0.7373
H6D H 0.7831 0.7518 0.6792
C5D C 0.80724(17) 0.8275(4) 0.79108(16)
H7D H 0.7817 0.7254 0.8038
H8D H 0.7668 0.9210 0.7762
C6D C 0.87904(18) 0.8818(4) 0.86129(16)
C7E C 0.63731(17) -0.0580(4) 0.49504(16)
C8E C 0.69182(18) 0.0367(4) 0.46474(17)
H9E H 0.7365 -0.0387 0.4651
H10E H 0.6614 0.0736 0.4114
C9E C 0.72562(18) 0.1935(4) 0.51577(17)
H11E H 0.7602 0.1547 0.5678
H12E H 0.6804 0.2606 0.5199
O7D O 1.08657(14) 1.4328(3) 0.65066(13)
H14D H 1.094(2) 1.545(5) 0.634(2)
H15D H 1.070(3) 1.429(6) 0.679(2)
O8 O 1.0000 0.3737(4) 0.7500
H13 H 0.9777 0.2998 0.7115
H13B H 1.0223 0.2998 0.7885
loop_
_geom_bond_atom_site_label_1
_geom_bond_atom_site_label_2
_geom_bond_site_symmetry_1
_geom_bond_site_symmetry_2
Nd1 O1 1_555 1_555
O1 C1 1_555 1_555
O2 Nd1 1_555 1_555
O3 C6 1_555 1_555
O4 C6 1_555 1_555
O5 Nd1 1_555 1_555
O6 Nd1 1_555 1_555
C1 O2 1_555 1_555
C2 C1 1_555 1_555
H1 C2 1_555 1_555
H2 C2 1_555 1_555
C3 C2 1_555 1_555
H3 C3 1_555 1_555
H4 C3 1_555 1_555
C4 C3 1_555 1_555
H5 C4 1_555 1_555
H6 C4 1_555 1_555
C5 C4 1_555 1_555
H7 C5 1_555 1_555
H8 C5 1_555 1_555
C6 C5 1_555 1_555
C7 O5 1_555 1_555
C8 C7 1_555 1_555
H9 C8 1_555 1_555
H10 C8 1_555 1_555
C9 C8 1_555 1_555
H11 C9 1_555 1_555
H12 C9 1_555 1_555
O7 Nd1 1_555 1_555
O8 H13 1_555 1_555
H14 O7 1_555 1_555
H15 O7 1_555 1_555
Nd1D O2 1_555 1_555
Nd1F O3 1_555 1_555
Nd1B O4 1_555 1_555
Nd1D_2 O6 1_555 1_555
Nd1E O5E 1_555 1_555
Nd1A O6E 1_555 1_555
Nd1B_2 O3D 1_555 1_555
Nd1F_2 O4D 1_555 1_555
O1D Nd1D 1_555 1_555
O2D Nd1 1_555 1_555
O3D C6D 1_555 1_555
O3F Nd1 1_555 1_555
O3B Nd1D 1_555 1_555
O4D C6D 1_555 1_555
O4B Nd1 1_555 1_555
O4F Nd1D 1_555 1_555
O5E C7E 1_555 1_555
O5D Nd1D 1_555 1_555
O6E Nd1E 1_555 1_555
O6D Nd1 1_555 1_555
O6_2 Nd1D 1_555 1_555
O6D_2 Nd1D 1_555 1_555
C1D O1D 1_555 1_555
C2D C1D 1_555 1_555
H1D C2D 1_555 1_555
H2D C2D 1_555 1_555
C3D C2D 1_555 1_555
H3D C3D 1_555 1_555
H4D C3D 1_555 1_555
C4D C3D 1_555 1_555
H5D C4D 1_555 1_555
H6D C4D 1_555 1_555
C5D C4D 1_555 1_555
H7D C5D 1_555 1_555
H8D C5D 1_555 1_555
C6D C5D 1_555 1_555
C7E O6E 1_555 1_555
C8E C7E 1_555 1_555
H9E C8E 1_555 1_555
H10E C8E 1_555 1_555
C9E C9 1_555 1_555
H11E C9E 1_555 1_555
H12E C9E 1_555 1_555
O7D Nd1D 1_555 1_555
H13B O8 1_555 1_555
H14D O7D 1_555 1_555
H15D O7D 1_555 1_555
O6 C7 1_555 1_555
Nd1D O2D 1_555 1_555
Nd1D_2 O6D 1_555 1_555
O2D C1D 1_555 1_555
C8E C9E 1_555 1_555

#END
