
#######################################################################
#
#                 Cambridge Crystallographic Data Centre
#                                CCDC 
#
#######################################################################
#
# If this CIF has been generated from an entry in the Cambridge 
# Structural Database, then it will include bibliographic, chemical, 
# crystal, experimental, refinement or atomic coordinate data resulting 
# from the CCDC's data processing and validation procedures.
#
#######################################################################

data_AZOHED
_symmetry_cell_setting           triclinic
_symmetry_space_group_name_H-M   'P -1'
_symmetry_Int_Tables_number      2
_space_group_name_Hall           '-P 1'
loop_
_symmetry_equiv_pos_site_id
_symmetry_equiv_pos_as_xyz
1 x,y,z
2 -x,-y,-z
_cell_length_a                   11.4196(13)
_cell_length_b                   12.0357(14)
_cell_length_c                   17.886(2)
_cell_angle_alpha                91.0080(10)
_cell_angle_beta                 103.2040(10)
_cell_angle_gamma                106.6480(10)
_cell_volume                     2283.89
loop_
_atom_site_label
_atom_site_type_symbol
_atom_site_fract_x
_atom_site_fract_y
_atom_site_fract_z
C1 C 0.4825(5) 0.0836(4) 0.3988(3)
C2 C 0.4122(5) 0.0772(4) 0.4536(3)
H1 H 0.3348 0.0203 0.4466
C3 C 0.4574(4) 0.1555(4) 0.5186(3)
C4 C 0.5716(4) 0.2425(4) 0.5289(3)
H2 H 0.5995 0.2978 0.5711
C5 C 0.6437(4) 0.2460(4) 0.4755(3)
C6 C 0.5988(5) 0.1667(4) 0.4108(3)
H3 H 0.6473 0.1694 0.3752
C7 C 0.4287(5) 0.0026(4) 0.3266(3)
C8 C 0.7700(4) 0.3348(4) 0.4872(3)
C9 C 1.0118(5) 0.3921(4) 0.1825(3)
C10 C 0.9050(5) 0.3313(4) 0.1278(3)
H4 H 0.8312 0.2947 0.1424
C11 C 0.9081(5) 0.3250(4) 0.0505(3)
C12 C 1.0187(5) 0.3779(4) 0.0290(3)
H5 H 1.0210 0.3726 -0.0225
C13 C 1.1264(5) 0.4389(4) 0.0845(3)
C14 C 1.1241(5) 0.4465(4) 0.1617(3)
H6 H 1.1959 0.4871 0.1990
C15 C 1.0120(5) 0.4014(4) 0.2666(3)
C16 C 0.7912(5) 0.2616(5) -0.0098(3)
C17 C 1.4248(5) 0.3885(4) 0.7493(3)
C18 C 1.3265(4) 0.3617(4) 0.6837(3)
H7 H 1.3124 0.2962 0.6506
C19 C 1.2487(5) 0.4335(4) 0.6674(3)
C20 C 1.2713(5) 0.5311(5) 0.7164(3)
H8 H 1.2205 0.5797 0.7048
C21 C 1.3683(5) 0.5578(5) 0.7823(3)
C22 C 1.4454(5) 0.4859(5) 0.7985(3)
H9 H 1.5112 0.5034 0.8426
C23 C 1.5154(5) 0.3179(4) 0.7640(3)
C24 C 1.1469(5) 0.4071(4) 0.5945(3)
C25 C 0.3528(7) 0.0870(6) 0.1175(4)
H10 H 0.4352 0.0835 0.1307
C26 C 0.3300(8) 0.1788(6) 0.0774(4)
H11 H 0.3937 0.2330 0.0616
C27 C 0.2111(8) 0.1865(7) 0.0623(5)
H12 H 0.1921 0.2473 0.0356
C28 C 0.1188(8) 0.1057(7) 0.0858(4)
H13 H 0.0378 0.1127 0.0769
C29 C 0.1472(7) 0.0119(6) 0.1236(4)
C30 C 0.0507(7) -0.0824(7) 0.1467(4)
C31 C -0.0743(7) -0.0819(8) 0.1332(5)
H14 H -0.0981 -0.0185 0.1134
C32 C -0.1609(8) -0.1762(8) 0.1496(5)
H15 H -0.2445 -0.1768 0.1413
C33 C -0.1269(7) -0.2695(9) 0.1779(5)
H16 H -0.1863 -0.3357 0.1869
C34 C -0.0001(6) -0.2620(8) 0.1928(4)
H17 H 0.0251 -0.3241 0.2138
C35 C 0.9127(5) 0.0884(5) 0.4210(4)
H18 H 0.8578 0.1117 0.4445
C36 C 0.8929(6) -0.0290(5) 0.4063(4)
H19 H 0.8266 -0.0834 0.4197
C37 C 0.9721(6) -0.0639(5) 0.3717(4)
H20 H 0.9609 -0.1427 0.3612
C38 C 1.0695(6) 0.0190(5) 0.3523(4)
H21 H 1.1241 -0.0033 0.3280
C39 C 1.0849(5) 0.1352(5) 0.3693(3)
C40 C 1.1930(5) 0.2272(5) 0.3551(3)
C41 C 1.2673(5) 0.2066(5) 0.3085(3)
H22 H 1.2436 0.1354 0.2794
C42 C 1.3754(6) 0.2904(5) 0.3048(4)
H23 H 1.4249 0.2773 0.2729
C43 C 1.4093(6) 0.3935(5) 0.3490(4)
H24 H 1.4856 0.4497 0.3512
C44 C 1.3265(6) 0.4121(5) 0.3904(4)
H25 H 1.3466 0.4842 0.4177
Gd1 Gd 1.04200(2) 0.394578(19) 0.429399(12)
Gd2 Gd 0.32468(2) -0.17119(2) 0.199574(13)
N1 N 0.2649(5) 0.0030(4) 0.1387(3)
N2 N 0.0875(4) -0.1705(5) 0.1784(3)
N3 N 1.0066(4) 0.1707(4) 0.4034(2)
N4 N 1.2204(4) 0.3324(4) 0.3931(3)
O1 O 0.4872(3) 0.0106(3) 0.27407(19)
O2 O 0.3229(3) -0.0732(3) 0.31882(19)
O3 O 0.8478(3) 0.3098(3) 0.4555(2)
O4 O 0.7914(3) 0.4286(3) 0.52814(19)
O5 O 0.3858(3) 0.1410(4) 0.5713(2)
H26 H 0.4290 0.1759 0.6128
O6 O 0.9359(3) 0.3244(3) 0.29311(18)
O7 O 1.0911(3) 0.4849(3) 0.31090(18)
O8 O 0.7983(3) 0.2599(3) -0.07886(18)
O9 O 0.6932(4) 0.2138(5) 0.0118(2)
O10 O 1.2346(3) 0.4877(3) 0.0613(2)
H27 H 1.2891 0.5270 0.0979
O11 O 1.6123(3) 0.3498(3) 0.81993(19)
O12 O 1.4960(3) 0.2276(3) 0.72044(19)
O13 O 1.1447(4) 0.3317(3) 0.5450(2)
O14 O 1.0674(3) 0.4648(3) 0.5820(2)
O15 O 1.3939(5) 0.6548(4) 0.8305(3)
H28 H 1.3645 0.7026 0.8072
O16 O 0.4679(3) -0.1230(3) 0.1195(2)
H29 H 0.5434 -0.1102 0.1158
H30 H 0.4230 -0.1193 0.0752
O17 O 0.2359(3) -0.3061(3) 0.2883(2)
H31 H 0.2351 -0.2565 0.3225
H32 H 0.2019 -0.3734 0.3007
Gd1A Gd 0.95800(2) 0.605422(19) 0.570601(12)
Gd2A Gd 0.67532(2) 0.17119(2) -0.199574(13)
Gd2A_2 Gd 1.67532(2) 0.17119(2) 0.800426(13)
O4A O 1.2086(3) 0.5714(3) 0.47186(19)
O8A O 0.2017(3) -0.2599(3) 0.07886(18)
O11A O 0.3877(3) -0.3498(3) 0.18007(19)
O12A O 0.5040(3) -0.2276(3) 0.27956(19)
O14A O 0.9326(3) 0.5352(3) 0.4180(2)
O18 O 0.6877(4) 0.0285(4) 0.1066(3)
H33 H 0.7145 0.0524 0.0674
H34 H 0.6482 0.0736 0.1183
O19 O 0.7005(6) 0.1565(6) 0.2362(3)
H35 H 0.7746 0.2012 0.2552
H36 H 0.6638 0.1415 0.2728
O20 O 0.5593(16) 0.4214(15) 0.0206(8)
H37 H 0.5768 0.4043 0.0669
H38 H 0.6263 0.4357 0.0046
loop_
_geom_bond_atom_site_label_1
_geom_bond_atom_site_label_2
_geom_bond_site_symmetry_1
_geom_bond_site_symmetry_2
C1 C2 1_555 1_555
C2 H1 1_555 1_555
C3 C2 1_555 1_555
C4 C3 1_555 1_555
H2 C4 1_555 1_555
C5 C4 1_555 1_555
C6 C1 1_555 1_555
H3 C6 1_555 1_555
C7 C1 1_555 1_555
C8 C5 1_555 1_555
C9 C10 1_555 1_555
C10 H4 1_555 1_555
C11 C10 1_555 1_555
C12 C11 1_555 1_555
H5 C12 1_555 1_555
C13 C12 1_555 1_555
C14 C9 1_555 1_555
H6 C14 1_555 1_555
C15 C9 1_555 1_555
C16 C11 1_555 1_555
C17 C18 1_555 1_555
C18 H7 1_555 1_555
C19 C18 1_555 1_555
C20 C19 1_555 1_555
H8 C20 1_555 1_555
C21 C20 1_555 1_555
C22 C17 1_555 1_555
H9 C22 1_555 1_555
C23 C17 1_555 1_555
C24 C19 1_555 1_555
C25 H10 1_555 1_555
C26 C25 1_555 1_555
H11 C26 1_555 1_555
C27 C26 1_555 1_555
H12 C27 1_555 1_555
C28 C27 1_555 1_555
H13 C28 1_555 1_555
C29 C28 1_555 1_555
C30 C29 1_555 1_555
C31 C30 1_555 1_555
H14 C31 1_555 1_555
C32 C31 1_555 1_555
H15 C32 1_555 1_555
C33 C32 1_555 1_555
H16 C33 1_555 1_555
C34 C33 1_555 1_555
H17 C34 1_555 1_555
C35 H18 1_555 1_555
C36 C35 1_555 1_555
H19 C36 1_555 1_555
C37 C36 1_555 1_555
H20 C37 1_555 1_555
C38 C37 1_555 1_555
H21 C38 1_555 1_555
C39 C38 1_555 1_555
C40 C39 1_555 1_555
C41 C40 1_555 1_555
H22 C41 1_555 1_555
C42 C41 1_555 1_555
H23 C42 1_555 1_555
C43 C42 1_555 1_555
H24 C43 1_555 1_555
C44 C43 1_555 1_555
H25 C44 1_555 1_555
Gd1 N3 1_555 1_555
Gd2 N1 1_555 1_555
N1 C25 1_555 1_555
N2 C30 1_555 1_555
N3 C35 1_555 1_555
N4 C40 1_555 1_555
O1 C7 1_555 1_555
O2 C7 1_555 1_555
O3 C8 1_555 1_555
O4 C8 1_555 1_555
O5 C3 1_555 1_555
H26 O5 1_555 1_555
O6 C15 1_555 1_555
O7 C15 1_555 1_555
O8 C16 1_555 1_555
O9 C16 1_555 1_555
O10 C13 1_555 1_555
H27 O10 1_555 1_555
O11 C23 1_555 1_555
O12 C23 1_555 1_555
O13 C24 1_555 1_555
O14 C24 1_555 1_555
O15 C21 1_555 1_555
H28 O15 1_555 1_555
O16 Gd2 1_555 1_555
H29 O16 1_555 1_555
H30 O16 1_555 1_555
O17 Gd2 1_555 1_555
H31 O17 1_555 1_555
H32 O17 1_555 1_555
O18 H33 1_555 1_555
H34 O18 1_555 1_555
O19 H35 1_555 1_555
H36 O19 1_555 1_555
O20 H37 1_555 1_555
H38 O20 1_555 1_555
Gd1A O4 1_555 1_555
Gd2A O8 1_555 1_555
Gd2A_2 O11 1_555 1_555
O4A Gd1 1_555 1_555
O8A Gd2 1_555 1_555
O11A Gd2 1_555 1_555
O12A Gd2 1_555 1_555
O14A Gd1 1_555 1_555
C5 C6 1_555 1_555
C13 C14 1_555 1_555
C21 C22 1_555 1_555
C29 N1 1_555 1_555
C34 N2 1_555 1_555
C39 N3 1_555 1_555
C44 N4 1_555 1_555
Gd1 N4 1_555 1_555
Gd1 O3 1_555 1_555
Gd1 O6 1_555 1_555
Gd1 O7 1_555 1_555
Gd1 O13 1_555 1_555
Gd1 O14 1_555 1_555
Gd2 N2 1_555 1_555
Gd2 O1 1_555 1_555
Gd2 O2 1_555 1_555
O12 Gd2A_2 1_555 1_555
O14 Gd1A 1_555 1_555
Gd1A O14A 1_555 1_555

#END
