
#######################################################################
#
#                 Cambridge Crystallographic Data Centre
#                                CCDC 
#
#######################################################################
#
# If this CIF has been generated from an entry in the Cambridge 
# Structural Database, then it will include bibliographic, chemical, 
# crystal, experimental, refinement or atomic coordinate data resulting 
# from the CCDC's data processing and validation procedures.
#
#######################################################################

data_AZPOCU10
_symmetry_cell_setting           triclinic
_symmetry_space_group_name_H-M   'P -1'
_symmetry_Int_Tables_number      2
_space_group_name_Hall           '-P 1'
loop_
_symmetry_equiv_pos_site_id
_symmetry_equiv_pos_as_xyz
1 x,y,z
2 -x,-y,-z
_cell_length_a                   11.185(5)
_cell_length_b                   10.410(5)
_cell_length_c                   7.862(8)
_cell_angle_alpha                97.8(1)
_cell_angle_beta                 81.6(1)
_cell_angle_gamma                103.7(1)
_cell_volume                     874.95
loop_
_atom_site_label
_atom_site_type_symbol
_atom_site_fract_x
_atom_site_fract_y
_atom_site_fract_z
Cl1 Cl 0.19350 0.08410 0.32270
Cl2 Cl 0.10300 0.32300 0.14400
Cu1 Cu 0.10210 0.11010 0.10360
C1 C 0.13270 -0.23490 0.13420
C2 C 0.13820 -0.33140 0.24280
C3 C 0.04240 -0.36700 0.36350
C4 C -0.05860 -0.30870 0.39820
C5 C -0.06270 -0.20800 0.28780
C6 C 0.43530 0.03630 -0.20440
C7 C 0.48910 -0.05880 -0.30230
C8 C 0.41850 -0.16250 -0.40010
C9 C 0.29240 -0.17600 -0.37790
C10 C 0.24120 -0.07840 -0.27560
C11 C 0.65430 -0.50750 -0.83250
C12 C 0.60610 -0.41530 -0.71940
C13 C 0.47510 -0.43510 -0.67300
C14 C 0.39280 -0.54940 -0.74420
C15 C 0.44500 -0.64490 -0.85460
N1 N 0.03130 -0.17800 0.16530
N2 N 0.05020 -0.46710 0.46720
N3 N 0.31220 0.02360 -0.20130
N4 N 0.48440 -0.24900 -0.49590
N5 N 0.57180 -0.62170 -0.89530
N6 N 0.41270 -0.34500 -0.56350
O1 O 0.02860 -0.08320 0.05950
O2 O 0.26250 0.11860 -0.11110
O3 O 0.61700 -0.70860 -0.99560
O1A O -0.02860 0.08320 -0.05950
Cu1A Cu -0.10210 -0.11010 -0.10360
N2A N -0.05020 -0.53290 0.53280
Cl1A Cl -0.19350 -0.08410 -0.32270
Cl2A Cl -0.10300 -0.32300 -0.14400
O2A O -0.26250 -0.11860 0.11110
C3A C -0.04240 -0.63300 0.63650
N3A N -0.31220 -0.02360 0.20130
C2A C -0.13820 -0.66860 0.75720
C4A C 0.05860 -0.69130 0.60180
C6A C -0.43530 -0.03630 0.20440
C10A C -0.24120 0.07840 0.27560
C1A C -0.13270 -0.76510 0.86580
C5A C 0.06270 -0.79200 0.71220
C7A C -0.48910 0.05880 0.30230
C9A C -0.29240 0.17600 0.37790
C8A C -0.41850 0.16250 0.40010
N4A N -0.48440 0.24900 0.49590
N6A N -0.41270 0.34500 0.56350
C13A C -0.47510 0.43510 0.67300
C12A C -0.60610 0.41530 0.71940
C14A C -0.39280 0.54940 0.74420
C11A C -0.65430 0.50750 0.83250
C15A C -0.44500 0.64490 0.85460
N5A N -0.57180 0.62170 0.89530
O3A O -0.61700 0.70860 0.99560
N1A N -0.03130 -0.82200 0.83470
O1A_2 O -0.02860 -0.91680 0.94050
Cu1_2 Cu 0.10210 -0.88990 1.10360
Cu1A_2 Cu -0.10210 -1.11010 0.89640
loop_
_geom_bond_atom_site_label_1
_geom_bond_atom_site_label_2
_geom_bond_site_symmetry_1
_geom_bond_site_symmetry_2
Cl1 Cu1 1_555 1_555
Cl2 Cu1 1_555 1_555
Cu1 O1 1_555 1_555
C1 C2 1_555 1_555
C2 C3 1_555 1_555
C3 C4 1_555 1_555
C4 C5 1_555 1_555
C5 N1 1_555 1_555
C6 C7 1_555 1_555
C7 C8 1_555 1_555
C8 C9 1_555 1_555
C9 C10 1_555 1_555
C10 N3 1_555 1_555
C11 C12 1_555 1_555
C12 C13 1_555 1_555
C13 C14 1_555 1_555
C14 C15 1_555 1_555
C15 N5 1_555 1_555
N1 C1 1_555 1_555
N2 C3 1_555 1_555
N3 C6 1_555 1_555
N4 C8 1_555 1_555
N5 C11 1_555 1_555
N6 C13 1_555 1_555
O1 N1 1_555 1_555
O2 Cu1 1_555 1_555
O3 N5 1_555 1_555
O1A Cu1 1_555 1_555
Cu1A O1 1_555 1_555
N2A N2 1_555 1_555
Cl1A Cu1A 1_555 1_555
Cl2A Cu1A 1_555 1_555
O2A Cu1A 1_555 1_555
C3A N2A 1_555 1_555
N3A O2A 1_555 1_555
C2A C3A 1_555 1_555
C4A C3A 1_555 1_555
C6A N3A 1_555 1_555
C10A N3A 1_555 1_555
C1A C2A 1_555 1_555
C5A C4A 1_555 1_555
C7A C6A 1_555 1_555
C9A C10A 1_555 1_555
C8A C7A 1_555 1_555
N4A C8A 1_555 1_555
N6A N4A 1_555 1_555
C13A N6A 1_555 1_555
C12A C13A 1_555 1_555
C14A C13A 1_555 1_555
C11A C12A 1_555 1_555
C15A C14A 1_555 1_555
N5A C11A 1_555 1_555
O3A N5A 1_555 1_555
N1A C1A 1_555 1_555
O1A_2 N1A 1_555 1_555
Cu1_2 O1A_2 1_555 1_555
Cu1A_2 O1A_2 1_555 1_555
N3 O2 1_555 1_555
N4 N6 1_555 1_555
O1A Cu1A 1_555 1_555
C5A N1A 1_555 1_555
C9A C8A 1_555 1_555
C15A N5A 1_555 1_555

#END
