
#######################################################################
#
#                 Cambridge Crystallographic Data Centre
#                                CCDC 
#
#######################################################################
#
# If this CIF has been generated from an entry in the Cambridge 
# Structural Database, then it will include bibliographic, chemical, 
# crystal, experimental, refinement or atomic coordinate data resulting 
# from the CCDC's data processing and validation procedures.
#
#######################################################################

data_AZUBOM
_symmetry_cell_setting           orthorhombic
_symmetry_space_group_name_H-M   'P b c a'
_symmetry_Int_Tables_number      61
_space_group_name_Hall           '-P 2ac 2ab'
loop_
_symmetry_equiv_pos_site_id
_symmetry_equiv_pos_as_xyz
1 x,y,z
2 1/2+x,y,1/2-z
3 x,1/2-y,1/2+z
4 1/2-x,1/2+y,z
5 -x,-y,-z
6 1/2-x,-y,1/2+z
7 -x,1/2+y,1/2-z
8 1/2+x,1/2-y,-z
_cell_length_a                   12.021(4)
_cell_length_b                   18.256(6)
_cell_length_c                   20.857(7)
_cell_angle_alpha                90
_cell_angle_beta                 90
_cell_angle_gamma                90
_cell_volume                     4577.18
loop_
_atom_site_label
_atom_site_type_symbol
_atom_site_fract_x
_atom_site_fract_y
_atom_site_fract_z
Sn1 Sn 0.32005(3) 0.14091(2) 0.72584(2)
N1 N 0.2455(4) 0.0156(3) 0.7711(3)
N2 N 0.1336(5) -0.1053(3) 0.8192(4)
N3 N 0.2509(5) 0.2540(3) 0.6800(3)
N4 N 0.2025(7) 0.3907(4) 0.6247(4)
O1 O 0.1284(4) 0.1254(2) 0.7179(2)
O2 O -0.0306(3) 0.0699(2) 0.7424(2)
O3 O 0.4593(4) 0.2138(3) 0.7031(2)
O4 O 0.5230(5) 0.3230(3) 0.6718(3)
C1 C 0.0713(6) 0.0729(3) 0.7412(3)
C2 C 0.1347(5) 0.0098(3) 0.7689(3)
C3 C 0.0811(6) -0.0493(4) 0.7925(4)
H1 H 0.0039 -0.0508 0.7898
C4 C 0.2441(6) -0.0986(4) 0.8216(4)
H2 H 0.2854 -0.1364 0.8396
C5 C 0.2995(5) -0.0384(4) 0.7987(3)
H3 H 0.3764 -0.0358 0.8028
C6 C 0.4495(6) 0.2800(4) 0.6813(4)
C7 C 0.3319(6) 0.3027(4) 0.6665(3)
C8 C 0.3065(8) 0.3711(4) 0.6396(4)
H4 H 0.3640 0.4040 0.6320
C9 C 0.1265(8) 0.3425(4) 0.6380(4)
H5 H 0.0533 0.3546 0.6282
C10 C 0.1458(6) 0.2735(4) 0.6660(4)
H6 H 0.0870 0.2419 0.6745
C11 C 0.3341(6) 0.0855(4) 0.6359(3)
H7 H 0.4120 0.0758 0.6274
H8 H 0.2963 0.0386 0.6390
C12 C 0.2868(6) 0.1270(4) 0.5812(3)
C13 C 0.1768(7) 0.1169(4) 0.5626(4)
H9 H 0.1337 0.0835 0.5854
C14 C 0.1286(9) 0.1538(6) 0.5124(5)
H10 H 0.0544 0.1462 0.5017
C15 C 0.1924(12) 0.2017(7) 0.4788(5)
H11 H 0.1606 0.2271 0.4447
C16 C 0.3041(11) 0.2140(5) 0.4937(5)
H12 H 0.3467 0.2469 0.4701
C17 C 0.3492(8) 0.1760(5) 0.5444(4)
H13 H 0.4238 0.1832 0.5545
C18 C 0.2970(6) 0.1863(4) 0.8189(3)
H14 H 0.3626 0.2149 0.8292
H15 H 0.2348 0.2200 0.8168
C19 C 0.2763(6) 0.1348(4) 0.8736(3)
C20 C 0.3623(7) 0.0987(5) 0.9043(4)
H16 H 0.4355 0.1073 0.8919
C21 C 0.3400(10) 0.0500(6) 0.9530(5)
H17 H 0.3985 0.0268 0.9740
C22 C 0.2352(11) 0.0358(6) 0.9706(5)
H18 H 0.2213 0.0026 1.0034
C23 C 0.1493(8) 0.0695(5) 0.9409(4)
H19 H 0.0766 0.0589 0.9531
C24 C 0.1692(6) 0.1197(4) 0.8923(4)
H20 H 0.1099 0.1431 0.8724
O2A O 0.4694(3) 0.0699(2) 0.7576(2)
Sn1A Sn -0.17995(3) 0.14091(2) 0.77416(2)
loop_
_geom_bond_atom_site_label_1
_geom_bond_atom_site_label_2
_geom_bond_site_symmetry_1
_geom_bond_site_symmetry_2
Sn1 N1 1_555 1_555
N1 C2 1_555 1_555
N2 C3 1_555 1_555
N3 Sn1 1_555 1_555
N4 C8 1_555 1_555
O1 Sn1 1_555 1_555
O2 C1 1_555 1_555
O3 Sn1 1_555 1_555
O4 C6 1_555 1_555
C1 O1 1_555 1_555
C2 C1 1_555 1_555
C3 C2 1_555 1_555
H1 C3 1_555 1_555
C4 N2 1_555 1_555
H2 C4 1_555 1_555
C5 N1 1_555 1_555
H3 C5 1_555 1_555
C6 O3 1_555 1_555
C7 N3 1_555 1_555
C8 C7 1_555 1_555
H4 C8 1_555 1_555
C9 N4 1_555 1_555
H5 C9 1_555 1_555
C10 N3 1_555 1_555
H6 C10 1_555 1_555
C11 Sn1 1_555 1_555
H7 C11 1_555 1_555
H8 C11 1_555 1_555
C12 C11 1_555 1_555
C13 C12 1_555 1_555
H9 C13 1_555 1_555
C14 C13 1_555 1_555
H10 C14 1_555 1_555
C15 C14 1_555 1_555
H11 C15 1_555 1_555
C16 C15 1_555 1_555
H12 C16 1_555 1_555
C17 C12 1_555 1_555
H13 C17 1_555 1_555
C18 Sn1 1_555 1_555
H14 C18 1_555 1_555
H15 C18 1_555 1_555
C19 C18 1_555 1_555
C20 C19 1_555 1_555
H16 C20 1_555 1_555
C21 C20 1_555 1_555
H17 C21 1_555 1_555
C22 C21 1_555 1_555
H18 C22 1_555 1_555
C23 C22 1_555 1_555
H19 C23 1_555 1_555
C24 C19 1_555 1_555
H20 C24 1_555 1_555
O2A Sn1 1_555 1_555
Sn1A O2 1_555 1_555
C4 C5 1_555 1_555
C6 C7 1_555 1_555
C9 C10 1_555 1_555
C16 C17 1_555 1_555
C23 C24 1_555 1_555

#END
