
#######################################################################
#
#                 Cambridge Crystallographic Data Centre
#                                CCDC 
#
#######################################################################
#
# If this CIF has been generated from an entry in the Cambridge 
# Structural Database, then it will include bibliographic, chemical, 
# crystal, experimental, refinement or atomic coordinate data resulting 
# from the CCDC's data processing and validation procedures.
#
#######################################################################

data_BABBUC
_symmetry_cell_setting           triclinic
_symmetry_space_group_name_H-M   'P 1'
_symmetry_Int_Tables_number      1
_space_group_name_Hall           'P 1'
loop_
_symmetry_equiv_pos_site_id
_symmetry_equiv_pos_as_xyz
1 x,y,z
_cell_length_a                   11.0070(4)
_cell_length_b                   11.3980(4)
_cell_length_c                   14.2290(5)
_cell_angle_alpha                112.870(2)
_cell_angle_beta                 97.8770(14)
_cell_angle_gamma                96.6580(15)
_cell_volume                     1601.04
loop_
_atom_site_label
_atom_site_type_symbol
_atom_site_fract_x
_atom_site_fract_y
_atom_site_fract_z
N1 N 0.1006(4) 0.2242(3) 0.8970(3)
N2 N 0.0349(4) 0.3930(3) 0.8034(3)
N3 N 0.2255(3) 0.3298(3) 0.6851(3)
N4 N 0.2932(4) 0.1632(3) 0.7809(3)
C1 C 0.3077(4) 0.0820(4) 0.8307(3)
C2 C 0.2362(4) 0.0656(4) 0.8994(3)
C3 C 0.1416(4) 0.1344(4) 0.9310(3)
C4 C 0.0762(4) 0.1274(4) 1.0102(3)
H1 H 0.0872 0.0737 1.0466
C5 C -0.0033(5) 0.2108(4) 1.0231(4)
H2 H -0.0584 0.2274 1.0707
C6 C 0.0099(4) 0.2703(4) 0.9520(3)
C7 C -0.0606(4) 0.3599(4) 0.9400(3)
C8 C -0.0489(4) 0.4152(4) 0.8694(3)
C9 C -0.1234(5) 0.5032(4) 0.8537(4)
H3 H -0.1874 0.5343 0.8899
C10 C -0.0861(5) 0.5343(5) 0.7776(4)
H4 H -0.1190 0.5909 0.7507
C11 C 0.0129(4) 0.4650(4) 0.7459(4)
C12 C 0.0783(4) 0.4739(4) 0.6708(4)
C13 C 0.1766(4) 0.4095(4) 0.6434(3)
C14 C 0.2447(4) 0.4181(4) 0.5656(4)
H5 H 0.2295 0.4658 0.5247
C15 C 0.3343(4) 0.3453(4) 0.5620(3)
H6 H 0.3940 0.3331 0.5185
C16 C 0.3227(4) 0.2901(4) 0.6355(3)
C17 C 0.3992(4) 0.2090(4) 0.6528(3)
C18 C 0.3840(4) 0.1501(4) 0.7216(3)
C19 C 0.4580(5) 0.0603(5) 0.7362(4)
H7 H 0.5275 0.0358 0.7053
C20 C 0.4103(5) 0.0171(5) 0.8023(4)
H8 H 0.4390 -0.0444 0.8255
C21 C 0.2583(4) -0.0310(4) 0.9441(3)
C22 C 0.3611(5) -0.0070(5) 1.0208(4)
H9 H 0.4244 0.0669 1.0402
C23 C 0.3724(5) -0.0914(5) 1.0699(4)
H10 H 0.4427 -0.0742 1.1234
C24 C 0.2824(5) -0.1983(5) 1.0410(4)
H11 H 0.2890 -0.2536 1.0763
C25 C 0.1828(5) -0.2274(5) 0.9620(4)
H12 H 0.1231 -0.3048 0.9401
C26 C 0.1689(5) -0.1424(5) 0.9135(4)
H13 H 0.0986 -0.1609 0.8598
C27 C -0.1536(4) 0.3951(4) 1.0094(4)
C28 C -0.2747(5) 0.3243(5) 0.9788(4)
H14 H -0.3031 0.2606 0.9096
C29 C -0.3533(5) 0.3462(5) 1.0486(5)
H15 H -0.4351 0.2958 1.0278
C30 C -0.3145(6) 0.4406(6) 1.1485(5)
H16 H -0.3691 0.4545 1.1965
C31 C -0.1969(6) 0.5144(6) 1.1784(4)
H17 H -0.1712 0.5813 1.2466
C32 C -0.1149(5) 0.4921(5) 1.1099(4)
H18 H -0.0331 0.5426 1.1313
C33 C 0.0408(5) 0.5537(5) 0.6137(4)
C34 C 0.1187(5) 0.6703(5) 0.6327(4)
H19 H 0.1890 0.7043 0.6885
C35 C 0.0936(6) 0.7364(5) 0.5705(5)
H20 H 0.1468 0.8152 0.5835
C36 C -0.0094(6) 0.6868(6) 0.4891(5)
H21 H -0.0244 0.7296 0.4443
C37 C -0.0893(5) 0.5766(7) 0.4731(5)
H22 H -0.1619 0.5454 0.4195
C38 C -0.0643(5) 0.5102(6) 0.5354(4)
H23 H -0.1203 0.4338 0.5239
C39 C 0.5014(5) 0.1832(5) 0.5926(3)
C40 C 0.4732(5) 0.0964(5) 0.4874(4)
H24 H 0.3916 0.0465 0.4565
C41 C 0.5658(5) 0.0840(5) 0.4287(4)
H25 H 0.5468 0.0260 0.3572
C42 C 0.6843(5) 0.1546(5) 0.4729(4)
H26 H 0.7461 0.1473 0.4314
C43 C 0.7139(5) 0.2359(5) 0.5770(4)
H27 H 0.7972 0.2808 0.6082
C44 C 0.6214(4) 0.2528(5) 0.6374(4)
H28 H 0.6411 0.3117 0.7086
Mn1 Mn 0.1640 0.2780 0.7920
N5 N 0.3089(4) 0.4453(3) 0.9269(3)
C45 C 0.3051(4) 0.4752(4) 1.0276(3)
H29 H 0.2354 0.4344 1.0435
C46 C 0.3968(4) 0.5617(4) 1.1088(3)
H30 H 0.3895 0.5809 1.1788
C47 C 0.5011(4) 0.6210(4) 1.0868(4)
C48 C 0.5046(5) 0.5929(5) 0.9838(4)
H31 H 0.5729 0.6330 0.9659
C49 C 0.4068(5) 0.5052(5) 0.9062(4)
H32 H 0.4100 0.4873 0.8356
C50 C 0.6052(5) 0.7093(4) 1.1690(4)
H33 H 0.6735 0.7489 1.1508
N6 N 0.6061(4) 0.7342(4) 1.2639(3)
N7 N 0.7177(4) 0.8174(4) 1.3280(3)
C51 C 0.7190(4) 0.8440(4) 1.4242(3)
H34 H 0.6501 0.8071 1.4436
C52 C 0.8251(5) 0.9305(4) 1.5047(4)
C53 C 0.9318(5) 0.9794(4) 1.4812(3)
H35 H 0.9408 0.9534 1.4109
C54 C 1.0247(4) 1.0658(4) 1.5606(3)
H36 H 1.0977 1.0985 1.5433
N8 N 1.0180(4) 1.1068(4) 1.6619(3)
C55 C 0.9161(4) 1.0560(5) 1.6836(4)
H37 H 0.9103 1.0819 1.7546
C56 C 0.8184(5) 0.9676(5) 1.6086(4)
H38 H 0.7481 0.9330 1.6278
N8_2 N 0.0180(4) 0.1068(4) 0.6619(3)
Mn1_2 Mn 1.1640 1.2780 1.7920
Cl1 Cl 0.18673(15) -0.20718(13) 0.31220(10)
O1 O 0.2047(4) -0.1359(4) 0.4229(3)
O2 O 0.0650(5) -0.2008(5) 0.2676(4)
O3 O 0.1949(4) -0.3394(4) 0.2876(4)
O4 O 0.2814(5) -0.1508(5) 0.2759(3)
C57 C 0.5913(5) -0.4510(6) 0.5634(4)
H39 H 0.6475 -0.4959 0.5866
C58 C 0.5644(6) -0.4705(7) 0.4593(5)
H40 H 0.6027 -0.5302 0.4105
C59 C 0.4843(6) -0.4056(7) 0.4260(5)
H41 H 0.4668 -0.4204 0.3546
C60 C 0.4285(6) -0.3177(6) 0.4970(5)
H42 H 0.3732 -0.2719 0.4739
C61 C 0.4525(5) -0.2958(5) 0.6018(5)
H43 H 0.4147 -0.2361 0.6510
C62 C 0.5336(5) -0.3648(5) 0.6310(4)
N9 N 0.5556(5) -0.3478(5) 0.7404(4)
O5 O 0.6206(4) -0.4140(5) 0.7656(4)
O6 O 0.5060(5) -0.2703(4) 0.8007(4)
C63 C 0.8577(5) -0.1316(5) 1.0047(5)
H44 H 0.9039 -0.1896 0.9629
C64 C 0.8651(6) -0.1061(6) 1.1101(5)
H45 H 0.9173 -0.1471 1.1416
C65 C 0.7970(6) -0.0218(6) 1.1681(5)
H46 H 0.8026 -0.0065 1.2392
C66 C 0.7220(6) 0.0403(6) 1.1276(5)
H47 H 0.6765 0.0987 1.1698
C67 C 0.7128(5) 0.0170(6) 1.0231(5)
H48 H 0.6608 0.0592 0.9928
C68 C 0.7800(5) -0.0683(5) 0.9643(4)
N10 N 0.7724(4) -0.0880(5) 0.8552(4)
O7 O 0.8307(5) -0.1638(5) 0.8026(4)
O8 O 0.7104(4) -0.0243(5) 0.8228(4)
C69 C 0.2281(5) -0.8507(5) 0.2846(4)
H49 H 0.2766 -0.9162 0.2775
C70 C 0.1126(6) -0.8592(6) 0.3117(4)
H50 H 0.0808 -0.9325 0.3231
C71 C 0.0427(6) -0.7638(7) 0.3225(5)
H51 H -0.0360 -0.7713 0.3420
C72 C 0.0871(6) -0.6561(6) 0.3047(4)
H52 H 0.0385 -0.5905 0.3120
C73 C 0.2007(5) -0.6446(5) 0.2768(4)
H53 H 0.2315 -0.5723 0.2636
C74 C 0.2697(5) -0.7418(5) 0.2683(4)
N11 N 0.3896(4) -0.7314(4) 0.2379(3)
O9 O 0.4667(4) -0.7908(4) 0.2601(3)
O10 O 0.4096(4) -0.6636(4) 0.1902(3)
loop_
_geom_bond_atom_site_label_1
_geom_bond_atom_site_label_2
_geom_bond_site_symmetry_1
_geom_bond_site_symmetry_2
N1 C3 1_555 1_555
N2 C8 1_555 1_555
N3 C13 1_555 1_555
N4 C1 1_555 1_555
C1 C2 1_555 1_555
C2 C3 1_555 1_555
C3 C4 1_555 1_555
C4 H1 1_555 1_555
C5 C4 1_555 1_555
H2 C5 1_555 1_555
C6 N1 1_555 1_555
C7 C6 1_555 1_555
C8 C7 1_555 1_555
C9 C8 1_555 1_555
H3 C9 1_555 1_555
C10 C9 1_555 1_555
H4 C10 1_555 1_555
C11 N2 1_555 1_555
C12 C11 1_555 1_555
C13 C12 1_555 1_555
C14 C13 1_555 1_555
H5 C14 1_555 1_555
C15 C14 1_555 1_555
H6 C15 1_555 1_555
C16 N3 1_555 1_555
C17 C16 1_555 1_555
C18 N4 1_555 1_555
C19 C18 1_555 1_555
H7 C19 1_555 1_555
C20 C1 1_555 1_555
H8 C20 1_555 1_555
C21 C2 1_555 1_555
C22 C21 1_555 1_555
H9 C22 1_555 1_555
C23 C22 1_555 1_555
H10 C23 1_555 1_555
C24 C23 1_555 1_555
H11 C24 1_555 1_555
C25 C24 1_555 1_555
H12 C25 1_555 1_555
C26 C21 1_555 1_555
H13 C26 1_555 1_555
C27 C7 1_555 1_555
C28 C27 1_555 1_555
H14 C28 1_555 1_555
C29 C28 1_555 1_555
H15 C29 1_555 1_555
C30 C29 1_555 1_555
H16 C30 1_555 1_555
C31 C30 1_555 1_555
H17 C31 1_555 1_555
C32 C27 1_555 1_555
H18 C32 1_555 1_555
C33 C12 1_555 1_555
C34 C33 1_555 1_555
H19 C34 1_555 1_555
C35 C34 1_555 1_555
H20 C35 1_555 1_555
C36 C35 1_555 1_555
H21 C36 1_555 1_555
C37 C36 1_555 1_555
H22 C37 1_555 1_555
C38 C33 1_555 1_555
H23 C38 1_555 1_555
C39 C17 1_555 1_555
C40 C39 1_555 1_555
H24 C40 1_555 1_555
C41 C40 1_555 1_555
H25 C41 1_555 1_555
C42 C41 1_555 1_555
H26 C42 1_555 1_555
C43 C42 1_555 1_555
H27 C43 1_555 1_555
C44 C39 1_555 1_555
H28 C44 1_555 1_555
Mn1 N1 1_555 1_555
N5 Mn1 1_555 1_555
C45 N5 1_555 1_555
H29 C45 1_555 1_555
C46 C45 1_555 1_555
H30 C46 1_555 1_555
C47 C46 1_555 1_555
C48 C47 1_555 1_555
H31 C48 1_555 1_555
C49 N5 1_555 1_555
H32 C49 1_555 1_555
C50 C47 1_555 1_555
H33 C50 1_555 1_555
N6 C50 1_555 1_555
N7 N6 1_555 1_555
C51 N7 1_555 1_555
H34 C51 1_555 1_555
C52 C51 1_555 1_555
C53 C52 1_555 1_555
H35 C53 1_555 1_555
C54 C53 1_555 1_555
H36 C54 1_555 1_555
N8 C54 1_555 1_555
C55 N8 1_555 1_555
H37 C55 1_555 1_555
C56 C52 1_555 1_555
H38 C56 1_555 1_555
Cl1 O1 1_555 1_555
O2 Cl1 1_555 1_555
O3 Cl1 1_555 1_555
O4 Cl1 1_555 1_555
C57 H39 1_555 1_555
C58 C57 1_555 1_555
H40 C58 1_555 1_555
C59 C58 1_555 1_555
H41 C59 1_555 1_555
C60 C59 1_555 1_555
H42 C60 1_555 1_555
C61 C60 1_555 1_555
H43 C61 1_555 1_555
C62 C57 1_555 1_555
N9 C62 1_555 1_555
O5 N9 1_555 1_555
O6 N9 1_555 1_555
C63 H44 1_555 1_555
C64 C63 1_555 1_555
H45 C64 1_555 1_555
C65 C64 1_555 1_555
H46 C65 1_555 1_555
C66 C65 1_555 1_555
H47 C66 1_555 1_555
C67 C66 1_555 1_555
H48 C67 1_555 1_555
C68 C63 1_555 1_555
N10 C68 1_555 1_555
O7 N10 1_555 1_555
O8 N10 1_555 1_555
C69 H49 1_555 1_555
C70 C69 1_555 1_555
H50 C70 1_555 1_555
C71 C70 1_555 1_555
H51 C71 1_555 1_555
C72 C71 1_555 1_555
H52 C72 1_555 1_555
C73 C72 1_555 1_555
H53 C73 1_555 1_555
C74 C69 1_555 1_555
N11 C74 1_555 1_555
O9 N11 1_555 1_555
O10 N11 1_555 1_555
N8_2 Mn1 1_555 1_555
Mn1_2 N8 1_555 1_555
N2 Mn1 1_555 1_555
N3 Mn1 1_555 1_555
N4 Mn1 1_555 1_555
C5 C6 1_555 1_555
C10 C11 1_555 1_555
C15 C16 1_555 1_555
C17 C18 1_555 1_555
C19 C20 1_555 1_555
C25 C26 1_555 1_555
C31 C32 1_555 1_555
C37 C38 1_555 1_555
C43 C44 1_555 1_555
C48 C49 1_555 1_555
C55 C56 1_555 1_555
C61 C62 1_555 1_555
C67 C68 1_555 1_555
C73 C74 1_555 1_555

#END
