
#######################################################################
#
#                 Cambridge Crystallographic Data Centre
#                                CCDC 
#
#######################################################################
#
# If this CIF has been generated from an entry in the Cambridge 
# Structural Database, then it will include bibliographic, chemical, 
# crystal, experimental, refinement or atomic coordinate data resulting 
# from the CCDC's data processing and validation procedures.
#
#######################################################################

data_BABCEN
_symmetry_cell_setting           triclinic
_symmetry_space_group_name_H-M   'P -1'
_symmetry_Int_Tables_number      2
_space_group_name_Hall           '-P 1'
loop_
_symmetry_equiv_pos_site_id
_symmetry_equiv_pos_as_xyz
1 x,y,z
2 -x,-y,-z
_cell_length_a                   14.8180(8)
_cell_length_b                   17.0760(7)
_cell_length_c                   20.1350(11)
_cell_angle_alpha                103.4860(19)
_cell_angle_beta                 98.214(2)
_cell_angle_gamma                106.036(5)
_cell_volume                     4642.94
loop_
_atom_site_label
_atom_site_type_symbol
_atom_site_fract_x
_atom_site_fract_y
_atom_site_fract_z
N1 N 0.3730(4) -0.1143(4) -0.1433(3)
N2 N 0.2560(5) -0.2946(4) -0.2024(3)
N3 N 0.0823(5) -0.2480(4) -0.1942(3)
N4 N 0.1991(5) -0.0669(4) -0.1362(3)
C1 C 0.2644(6) 0.0108(5) -0.1074(4)
C2 C 0.3664(6) 0.0316(5) -0.1000(4)
C3 C 0.4138(6) -0.0287(5) -0.1183(4)
C4 C 0.5153(6) -0.0064(6) -0.1190(5)
H1 H 0.5606 0.0493 -0.1039
C5 C 0.5334(6) -0.0786(6) -0.1450(5)
H2 H 0.5940 -0.0835 -0.1518
C6 C 0.4443(6) -0.1475(6) -0.1607(4)
C7 C 0.4290(6) -0.2346(6) -0.1905(5)
C8 C 0.3440(6) -0.3022(6) -0.2073(4)
C9 C 0.3341(6) -0.3904(6) -0.2337(6)
H3 H 0.3843 -0.4131 -0.2426
C10 C 0.2401(7) -0.4351(6) -0.2435(5)
H4 H 0.2120 -0.4952 -0.2594
C11 C 0.1913(6) -0.3750(6) -0.2254(4)
C12 C 0.0905(6) -0.3942(5) -0.2325(4)
C13 C 0.0406(6) -0.3336(6) -0.2202(5)
C14 C -0.0629(6) -0.3549(7) -0.2347(5)
H5 H -0.1087 -0.4102 -0.2540
C15 C -0.0820(7) -0.2815(6) -0.2157(5)
H6 H -0.1441 -0.2751 -0.2189
C16 C 0.0090(6) -0.2141(5) -0.1895(4)
C17 C 0.0224(5) -0.1274(6) -0.1613(4)
C18 C 0.1096(5) -0.0609(5) -0.1334(4)
C19 C 0.1198(6) 0.0259(6) -0.1009(4)
H7 H 0.0689 0.0480 -0.0926
C20 C 0.2145(6) 0.0710(5) -0.0840(4)
H8 H 0.2429 0.1302 -0.0614
C21 C 0.4234(5) 0.1227(6) -0.0729(4)
C22 C 0.4075(6) 0.1825(6) -0.1052(5)
H9 H 0.3606 0.1646 -0.1478
C23 C 0.4592(7) 0.2681(7) -0.0763(5)
H10 H 0.4446 0.3076 -0.0988
N5 N 0.5292(6) 0.2976(5) -0.0177(5)
C24 C 0.5468(6) 0.2402(7) 0.0129(5)
H11 H 0.5967 0.2595 0.0539
C25 C 0.4961(6) 0.1542(6) -0.0120(5)
H12 H 0.5108 0.1164 0.0125
C26 C 0.5174(6) -0.2565(6) -0.2094(5)
C27 C 0.5247(9) -0.2773(11) -0.2763(7)
H13 H 0.4747 -0.2793 -0.3125
C28 C 0.6072(11) -0.2963(13) -0.2927(8)
H14 H 0.6117 -0.3099 -0.3404
N6 N 0.6761(7) -0.2959(7) -0.2463(8)
C29 C 0.6694(9) -0.2764(10) -0.1815(9)
H15 H 0.7203 -0.2756 -0.1466
C30 C 0.5911(8) -0.2568(8) -0.1611(7)
H16 H 0.5889 -0.2435 -0.1130
C31 C 0.0308(5) -0.4846(5) -0.2539(4)
C32 C 0.0188(9) -0.5410(8) -0.3163(6)
H17 H 0.0533 -0.5237 -0.3495
C33 C -0.0416(8) -0.6221(7) -0.3328(6)
H18 H -0.0485 -0.6588 -0.3780
N7 N -0.0911(5) -0.6530(5) -0.2901(4)
C34 C -0.0800(8) -0.5981(7) -0.2266(6)
H19 H -0.1141 -0.6178 -0.1940
C35 C -0.0210(8) -0.5148(7) -0.2076(6)
H20 H -0.0156 -0.4780 -0.1628
C36 C -0.0678(6) -0.1031(6) -0.1575(5)
C37 C -0.1229(7) -0.0992(7) -0.2192(6)
H21 H -0.1041 -0.1122 -0.2626
C38 C -0.2042(7) -0.0760(7) -0.2153(6)
H22 H -0.2402 -0.0732 -0.2572
N8 N -0.2352(5) -0.0578(5) -0.1582(5)
C39 C -0.1838(7) -0.0626(7) -0.1009(6)
H23 H -0.2052 -0.0499 -0.0586
C40 C -0.1012(7) -0.0851(7) -0.0988(5)
H24 H -0.0677 -0.0878 -0.0560
Zn1 Zn 0.22761(6) -0.18183(6) -0.16812(5)
N9 N 0.2863(5) -0.2383(5) -0.6005(3)
N10 N 0.2819(5) -0.2478(5) -0.7470(4)
N11 N 0.1270(5) -0.1745(4) -0.7512(3)
N12 N 0.1332(5) -0.1644(5) -0.6054(4)
C41 C 0.1518(7) -0.1570(6) -0.5353(4)
C42 C 0.2182(6) -0.1871(6) -0.5009(4)
C43 C 0.2790(6) -0.2262(6) -0.5323(5)
C44 C 0.3422(7) -0.2626(7) -0.4980(5)
H25 H 0.3516 -0.2620 -0.4501
C45 C 0.3857(7) -0.2978(7) -0.5460(5)
H26 H 0.4300 -0.3275 -0.5384
C46 C 0.3523(7) -0.2819(7) -0.6104(5)
C47 C 0.3819(7) -0.3041(7) -0.6736(5)
C48 C 0.3540(7) -0.2830(6) -0.7339(5)
C49 C 0.3973(7) -0.2922(7) -0.7940(5)
H27 H 0.4499 -0.3131 -0.7986
C50 C 0.3503(7) -0.2661(7) -0.8423(5)
H28 H 0.3629 -0.2657 -0.8872
C51 C 0.2769(6) -0.2386(6) -0.8125(4)
C52 C 0.2093(6) -0.2097(5) -0.8468(4)
C53 C 0.1389(6) -0.1817(5) -0.8182(4)
C54 C 0.0633(6) -0.1610(6) -0.8570(4)
H29 H 0.0544 -0.1610 -0.9047
C55 C 0.0079(6) -0.1417(6) -0.8122(4)
H30 H -0.0482 -0.1263 -0.8229
C56 C 0.0485(6) -0.1484(5) -0.7459(4)
C57 C 0.0151(6) -0.1288(6) -0.6847(5)
C58 C 0.0589(7) -0.1313(6) -0.6183(5)
C59 C 0.0318(8) -0.1011(7) -0.5531(5)
H31 H -0.0172 -0.0757 -0.5473
C60 C 0.0889(8) -0.1156(7) -0.5024(5)
H32 H 0.0884 -0.1016 -0.4539
C61 C 0.2209(6) -0.1813(6) -0.4257(4)
C62 C 0.3005(7) -0.1315(6) -0.3735(4)
H33 H 0.3561 -0.0987 -0.3848
C63 C 0.2998(7) -0.1291(6) -0.3041(5)
H34 H 0.3559 -0.0948 -0.2690
N13 N 0.2235(5) -0.1732(5) -0.2846(3)
C64 C 0.1475(6) -0.2211(7) -0.3354(5)
H35 H 0.0928 -0.2535 -0.3229
C65 C 0.1433(7) -0.2269(7) -0.4048(5)
H36 H 0.0866 -0.2625 -0.4387
C66 C 0.4526(8) -0.3527(7) -0.6747(5)
C67 C 0.4254(10) -0.4342(10) -0.7122(10)
H37 H 0.3608 -0.4608 -0.7383
C68 C 0.4884(12) -0.4815(11) -0.7144(12)
H38 H 0.4637 -0.5403 -0.7393
N14 N 0.5767(10) -0.4504(10) -0.6850(7)
C69 C 0.6065(13) -0.3714(14) -0.6536(13)
H39 H 0.6732 -0.3456 -0.6329
C70 C 0.5464(11) -0.3185(11) -0.6472(11)
H40 H 0.5735 -0.2595 -0.6234
C71 C 0.2146(6) -0.2055(6) -0.9197(4)
C72 C 0.1878(7) -0.2790(6) -0.9768(5)
H41 H 0.1633 -0.3338 -0.9706
C73 C 0.1975(7) -0.2702(6) -1.0413(4)
H42 H 0.1816 -0.3206 -1.0789
N15 N 0.2278(5) -0.1957(5) -1.0554(3)
C74 C 0.2528(6) -0.1263(6) -1.0012(4)
H43 H 0.2760 -0.0724 -1.0094
C75 C 0.2467(6) -0.1281(6) -0.9333(4)
H44 H 0.2644 -0.0767 -0.8965
C76 C -0.0749(7) -0.1059(6) -0.6896(5)
C77 C -0.0823(8) -0.0342(7) -0.7068(5)
H45 H -0.0269 0.0053 -0.7127
C78 C -0.1710(8) -0.0191(7) -0.7156(5)
H46 H -0.1744 0.0298 -0.7293
N16 N -0.2505(7) -0.0701(7) -0.7056(5)
C79 C -0.2427(9) -0.1386(9) -0.6882(8)
H47 H -0.2987 -0.1767 -0.6816
C80 C -0.1584(8) -0.1576(8) -0.6791(7)
H48 H -0.1574 -0.2070 -0.6653
Zn2 Zn -0.19299(7) -0.77688(7) -0.32008(5)
N15_2 N 0.2278(5) -0.1957(5) -0.0554(3)
Zn2A Zn 0.19299(7) -0.22312(7) -0.67992(5)
Zn1_2 Zn 0.22761(6) -0.18183(6) -1.16812(5)
N9A N -0.2863(5) -0.7617(5) -0.3995(3)
N10A N -0.2819(5) -0.7522(5) -0.2530(4)
N11A N -0.1270(5) -0.8255(4) -0.2488(3)
N12A N -0.1332(5) -0.8356(5) -0.3946(4)
C81 C 0.6136(10) 0.0484(8) 0.6111(7)
H49 H 0.6417 0.0495 0.5716
C82 C 0.6556(9) 0.0246(8) 0.6655(7)
H50 H 0.7111 0.0073 0.6639
C83 C 0.6135(9) 0.0271(8) 0.7220(7)
H51 H 0.6409 0.0110 0.7602
C84 C 0.5338(8) 0.0518(8) 0.7258(7)
H52 H 0.5086 0.0536 0.7667
C85 C 0.4891(9) 0.0743(7) 0.6718(7)
H53 H 0.4335 0.0914 0.6737
C86 C 0.5320(9) 0.0702(8) 0.6134(7)
N17 N 0.4858(10) 0.0944(8) 0.5565(7)
O1 O 0.5262(8) 0.0937(7) 0.5050(6)
O2 O 0.4103(9) 0.1121(8) 0.5593(7)
C87 C 0.1560(12) 0.2833(10) 0.4302(9)
H54 H 0.1224 0.3201 0.4188
C88 C 0.2045(14) 0.2483(12) 0.3834(7)
H55 H 0.2041 0.2612 0.3399
C89 C 0.2536(14) 0.1945(13) 0.4001(8)
H56 H 0.2868 0.1706 0.3681
C90 C 0.2542(14) 0.1757(12) 0.4637(9)
H57 H 0.2878 0.1389 0.4752
C91 C 0.2057(14) 0.2107(12) 0.5105(7)
H58 H 0.2061 0.1978 0.5540
C92 C 0.1566(11) 0.2645(11) 0.4938(8)
N18 N 0.1176(13) 0.3184(10) 0.5496(10)
O3 O 0.0671(8) 0.3538(10) 0.5260(7)
O4 O 0.1450(10) 0.3230(10) 0.6115(8)
C93 C 0.2834(14) 0.3460(9) 1.0304(7)
H59 H 0.2839 0.2940 1.0009
C94 C 0.3668(11) 0.4160(12) 1.0534(9)
H60 H 0.4243 0.4118 1.0395
C95 C 0.3659(14) 0.4922(10) 1.0966(11)
H61 H 0.4229 0.5400 1.1123
C96 C 0.2817(18) 0.4984(11) 1.1168(11)
H62 H 0.2811 0.5504 1.1463
C97 C 0.1983(14) 0.4284(15) 1.0938(11)
H63 H 0.1408 0.4326 1.1076
C98 C 0.1991(11) 0.3522(11) 1.0506(9)
N19 N 0.101(2) 0.2775(12) 1.0264(8)
O5 O 0.0408(18) 0.295(3) 1.0390(12)
O6 O 0.1258(8) 0.2135(9) 0.9866(7)
C99 C 0.7499(17) 0.4952(18) 0.5427(16)
C100 C 0.702(2) 0.5250(19) 0.5928(12)
C101 C 0.617(2) 0.5408(19) 0.5722(18)
C102 C 0.579(2) 0.527(3) 0.502(2)
C103 C 0.627(3) 0.497(3) 0.4515(14)
C104 C 0.712(2) 0.4813(19) 0.4721(14)
N20 N 0.724(3) 0.457(3) 0.422(2)
O7 O 0.8055(19) 0.4295(16) 0.4147(13)
O8 O 0.804(7) 0.547(6) 0.422(5)
C105 C 0.708(2) 0.5022(16) 0.0872(17)
H64 H 0.6477 0.4584 0.0743
C106 C 0.783(3) 0.4900(15) 0.0564(17)
H65 H 0.7742 0.4379 0.0224
C107 C 0.872(2) 0.554(2) 0.075(2)
C108 C 0.885(2) 0.6304(18) 0.125(2)
H66 H 0.9457 0.6742 0.1379
C109 C 0.810(3) 0.6426(16) 0.1558(15)
H67 H 0.8193 0.6948 0.1898
C110 C 0.722(3) 0.579(2) 0.1369(16)
N21 N 0.656(3) 0.591(3) 0.1594(19)
O9 O 0.557(4) 0.550(3) 0.140(2)
O10 O 0.647(3) 0.669(3) 0.205(2)
C111? C 0.648(4) 0.487(3) 0.462(3)
C112? C 0.745(5) 0.514(4) 0.632(3)
C113? C 0.816(3) 0.472(3) 0.554(2)
C114? C 0.874(5) 0.448(4) 0.516(3)
C115? C 0.147(4) 0.554(3) 0.513(3)
C116? C 0.693(6) 0.554(5) 0.586(4)
C117? C 0.784(4) 0.472(3) 0.483(3)
C118? C 0.866(5) 0.431(4) 0.426(4)
C119? C 0.920(9) 0.526(8) 0.534(6)
C120? C 0.769(2) 0.4874(13) 0.0539(15)
H68? H 0.7546 0.4354 0.0184
C121? C 0.6978(19) 0.5035(16) 0.0882(16)
H69? H 0.6354 0.4625 0.0761
C122? C 0.718(3) 0.5796(19) 0.1401(15)
C123? C 0.810(3) 0.6396(15) 0.1577(13)
H70? H 0.8235 0.6916 0.1932
C124? C 0.880(2) 0.6235(17) 0.1234(19)
H71? H 0.9427 0.6645 0.1354
C125? C 0.860(2) 0.5474(19) 0.0715(19)
N22? N 0.9172(19) 0.4822(18) 0.0470(14)
O11? O 0.895(4) 0.498(3) -0.029(3)
O12? O 0.999(2) 0.591(2) 0.0667(17)
loop_
_geom_bond_atom_site_label_1
_geom_bond_atom_site_label_2
_geom_bond_site_symmetry_1
_geom_bond_site_symmetry_2
N1 C3 1_555 1_555
N2 C8 1_555 1_555
N3 C13 1_555 1_555
N4 C1 1_555 1_555
C1 C2 1_555 1_555
C2 C3 1_555 1_555
C3 C4 1_555 1_555
C4 H1 1_555 1_555
C5 C4 1_555 1_555
H2 C5 1_555 1_555
C6 N1 1_555 1_555
C7 C6 1_555 1_555
C8 C7 1_555 1_555
C9 C8 1_555 1_555
H3 C9 1_555 1_555
C10 C9 1_555 1_555
H4 C10 1_555 1_555
C11 N2 1_555 1_555
C12 C11 1_555 1_555
C13 C12 1_555 1_555
C14 C13 1_555 1_555
H5 C14 1_555 1_555
C15 C14 1_555 1_555
H6 C15 1_555 1_555
C16 N3 1_555 1_555
C17 C16 1_555 1_555
C18 N4 1_555 1_555
C19 C18 1_555 1_555
H7 C19 1_555 1_555
C20 C1 1_555 1_555
H8 C20 1_555 1_555
C21 C2 1_555 1_555
C22 C21 1_555 1_555
H9 C22 1_555 1_555
C23 C22 1_555 1_555
H10 C23 1_555 1_555
N5 C23 1_555 1_555
C24 N5 1_555 1_555
H11 C24 1_555 1_555
C25 C21 1_555 1_555
H12 C25 1_555 1_555
C26 C7 1_555 1_555
C27 C26 1_555 1_555
H13 C27 1_555 1_555
C28 C27 1_555 1_555
H14 C28 1_555 1_555
N6 C28 1_555 1_555
C29 N6 1_555 1_555
H15 C29 1_555 1_555
C30 C26 1_555 1_555
H16 C30 1_555 1_555
C31 C12 1_555 1_555
C32 C31 1_555 1_555
H17 C32 1_555 1_555
C33 C32 1_555 1_555
H18 C33 1_555 1_555
N7 C33 1_555 1_555
C34 N7 1_555 1_555
H19 C34 1_555 1_555
C35 C31 1_555 1_555
H20 C35 1_555 1_555
C36 C17 1_555 1_555
C37 C36 1_555 1_555
H21 C37 1_555 1_555
C38 C37 1_555 1_555
H22 C38 1_555 1_555
N8 C38 1_555 1_555
C39 N8 1_555 1_555
H23 C39 1_555 1_555
C40 C36 1_555 1_555
H24 C40 1_555 1_555
Zn1 N1 1_555 1_555
N9 C43 1_555 1_555
N10 C48 1_555 1_555
N11 C53 1_555 1_555
N12 C41 1_555 1_555
C41 C42 1_555 1_555
C42 C43 1_555 1_555
C43 C44 1_555 1_555
C44 H25 1_555 1_555
C45 C44 1_555 1_555
H26 C45 1_555 1_555
C46 N9 1_555 1_555
C47 C46 1_555 1_555
C48 C47 1_555 1_555
C49 C48 1_555 1_555
H27 C49 1_555 1_555
C50 C49 1_555 1_555
H28 C50 1_555 1_555
C51 N10 1_555 1_555
C52 C51 1_555 1_555
C53 C52 1_555 1_555
C54 C53 1_555 1_555
H29 C54 1_555 1_555
C55 C54 1_555 1_555
H30 C55 1_555 1_555
C56 N11 1_555 1_555
C57 C56 1_555 1_555
C58 N12 1_555 1_555
C59 C58 1_555 1_555
H31 C59 1_555 1_555
C60 C41 1_555 1_555
H32 C60 1_555 1_555
C61 C42 1_555 1_555
C62 C61 1_555 1_555
H33 C62 1_555 1_555
C63 C62 1_555 1_555
H34 C63 1_555 1_555
N13 Zn1 1_555 1_555
C64 N13 1_555 1_555
H35 C64 1_555 1_555
C65 C61 1_555 1_555
H36 C65 1_555 1_555
C66 C47 1_555 1_555
C67 C66 1_555 1_555
H37 C67 1_555 1_555
C68 C67 1_555 1_555
H38 C68 1_555 1_555
N14 C68 1_555 1_555
C69 N14 1_555 1_555
H39 C69 1_555 1_555
C70 C66 1_555 1_555
H40 C70 1_555 1_555
C71 C52 1_555 1_555
C72 C71 1_555 1_555
H41 C72 1_555 1_555
C73 C72 1_555 1_555
H42 C73 1_555 1_555
N15 C73 1_555 1_555
C74 N15 1_555 1_555
H43 C74 1_555 1_555
C75 C71 1_555 1_555
H44 C75 1_555 1_555
C76 C57 1_555 1_555
C77 C76 1_555 1_555
H45 C77 1_555 1_555
C78 C77 1_555 1_555
H46 C78 1_555 1_555
N16 C78 1_555 1_555
C79 N16 1_555 1_555
H47 C79 1_555 1_555
C80 C76 1_555 1_555
H48 C80 1_555 1_555
Zn2 N7 1_555 1_555
C81 H49 1_555 1_555
C82 C81 1_555 1_555
H50 C82 1_555 1_555
C83 C82 1_555 1_555
H51 C83 1_555 1_555
C84 C83 1_555 1_555
H52 C84 1_555 1_555
C85 C84 1_555 1_555
H53 C85 1_555 1_555
C86 C81 1_555 1_555
N17 C86 1_555 1_555
O1 N17 1_555 1_555
O2 N17 1_555 1_555
C87 H54 1_555 1_555
C88 C87 1_555 1_555
H55 C88 1_555 1_555
C89 C88 1_555 1_555
H56 C89 1_555 1_555
C90 C89 1_555 1_555
H57 C90 1_555 1_555
C91 C90 1_555 1_555
H58 C91 1_555 1_555
C92 C87 1_555 1_555
N18 C92 1_555 1_555
O3 N18 1_555 1_555
O4 N18 1_555 1_555
C93 H59 1_555 1_555
C94 C93 1_555 1_555
H60 C94 1_555 1_555
C95 C94 1_555 1_555
H61 C95 1_555 1_555
C96 C95 1_555 1_555
H62 C96 1_555 1_555
C97 C96 1_555 1_555
H63 C97 1_555 1_555
C98 C93 1_555 1_555
N19 C98 1_555 1_555
O5 N19 1_555 1_555
O6 N19 1_555 1_555
C99 C100 1_555 1_555
C100 C101 1_555 1_555
C101 C102 1_555 1_555
C102 C103 1_555 1_555
C103 C104 1_555 1_555
C104 C99 1_555 1_555
N20 C104 1_555 1_555
O7 N20 1_555 1_555
O8 N20 1_555 1_555
C105 H64 1_555 1_555
C106 C105 1_555 1_555
H65 C106 1_555 1_555
C107 C106 1_555 1_555
C108 C107 1_555 1_555
H66 C108 1_555 1_555
C109 C108 1_555 1_555
H67 C109 1_555 1_555
C110 C105 1_555 1_555
N21 C110 1_555 1_555
O9 N21 1_555 1_555
O10 N21 1_555 1_555
N15_2 Zn1 1_555 1_555
Zn2A N9 1_555 1_555
Zn1_2 N15 1_555 1_555
N9A Zn2 1_555 1_555
N10A Zn2 1_555 1_555
N11A Zn2 1_555 1_555
N12A Zn2 1_555 1_555
N2 Zn1 1_555 1_555
N3 Zn1 1_555 1_555
N4 Zn1 1_555 1_555
C5 C6 1_555 1_555
C10 C11 1_555 1_555
C15 C16 1_555 1_555
C17 C18 1_555 1_555
C19 C20 1_555 1_555
C24 C25 1_555 1_555
C29 C30 1_555 1_555
C34 C35 1_555 1_555
C39 C40 1_555 1_555
N10 Zn2A 1_555 1_555
N11 Zn2A 1_555 1_555
N12 Zn2A 1_555 1_555
C45 C46 1_555 1_555
C50 C51 1_555 1_555
C55 C56 1_555 1_555
C57 C58 1_555 1_555
C59 C60 1_555 1_555
C63 N13 1_555 1_555
C64 C65 1_555 1_555
C69 C70 1_555 1_555
C74 C75 1_555 1_555
C79 C80 1_555 1_555
C85 C86 1_555 1_555
C91 C92 1_555 1_555
C97 C98 1_555 1_555
C109 C110 1_555 1_555

#END
