
#######################################################################
#
#                 Cambridge Crystallographic Data Centre
#                                CCDC 
#
#######################################################################
#
# If this CIF has been generated from an entry in the Cambridge 
# Structural Database, then it will include bibliographic, chemical, 
# crystal, experimental, refinement or atomic coordinate data resulting 
# from the CCDC's data processing and validation procedures.
#
#######################################################################

data_BABCUE
_symmetry_cell_setting           monoclinic
_symmetry_space_group_name_H-M   'P 21/n'
_symmetry_Int_Tables_number      14
_space_group_name_Hall           '-P 2yn'
loop_
_symmetry_equiv_pos_site_id
_symmetry_equiv_pos_as_xyz
1 x,y,z
2 1/2-x,1/2+y,1/2-z
3 -x,-y,-z
4 1/2+x,1/2-y,1/2+z
_cell_length_a                   6.4311(7)
_cell_length_b                   30.353(3)
_cell_length_c                   7.2962(8)
_cell_angle_alpha                90
_cell_angle_beta                 92.134(2)
_cell_angle_gamma                90
_cell_volume                     1423.25
loop_
_atom_site_label
_atom_site_type_symbol
_atom_site_fract_x
_atom_site_fract_y
_atom_site_fract_z
Mn1 Mn 0.73047(5) 0.464273(10) -0.22971(4)
C1 C 0.7381(3) 0.09636(7) -0.6181(3)
C2 C 0.7449(3) 0.13065(8) -0.7431(3)
H1 H 0.7478 0.1245 -0.8679
C3 C 0.7473(4) 0.17358(7) -0.6839(3)
H2 H 0.7493 0.1964 -0.7686
C4 C 0.7466(4) 0.18286(7) -0.4986(3)
C5 C 0.7323(4) 0.14911(7) -0.3711(3)
H3 H 0.7262 0.1556 -0.2468
C6 C 0.7270(3) 0.10559(7) -0.4309(3)
C7 C 0.7091(3) 0.06887(7) -0.2920(3)
C8 C 0.7310(3) 0.05055(7) -0.6932(3)
C9 C 0.6798(4) 0.24830(8) -0.3057(4)
C10 C 0.7172(4) 0.29697(8) -0.2946(4)
C11 C 0.7163(4) 0.32380(8) -0.4482(4)
H4 H 0.7072 0.3116 -0.5652
C12 C 0.7291(4) 0.36878(8) -0.4256(3)
H5 H 0.7271 0.3865 -0.5297
C13 C 0.7503(4) 0.36187(8) -0.1144(3)
H6 H 0.7650 0.3748 0.0009
C14 C 0.7359(4) 0.31671(8) -0.1250(3)
H7 H 0.7388 0.2997 -0.0188
N1 N 0.7440(3) 0.38816(6) -0.2619(2)
N2 N 0.7676(3) 0.22779(6) -0.4473(3)
H8 H 0.8453 0.2437 -0.5141
O1 O 0.8908(2) 0.03620(5) -0.7689(2)
O2 O 0.5656(2) 0.02872(5) -0.6844(2)
O3 O 0.8103(3) 0.03401(4) -0.3242(2)
O4 O 0.5987(3) 0.07522(5) -0.1601(2)
O5 O 0.5716(4) 0.22978(6) -0.1959(3)
O6 O 0.7711(3) 0.46867(5) -0.5146(2)
H9 H 0.8925 0.4610 -0.5440
H10 H 0.7430 0.4942 -0.5567
O7 O 0.7045(3) 0.45185(5) 0.0595(2)
H11 H 0.5764 0.4521 0.0844
H12 H 0.7636 0.4727 0.1192
Mn1C Mn 1.23047(5) 0.035727(10) -0.72971(4)
Mn1C_2 Mn 0.23047(5) 0.035727(10) -0.72971(4)
Mn1A Mn 0.76953(5) -0.035727(10) -0.27029(4)
O1C O 0.3908(2) 0.46380(5) -0.2689(2)
O2C O 1.0656(2) 0.47128(5) -0.1844(2)
O3A O 0.6897(3) 0.53401(4) -0.1758(2)
loop_
_geom_bond_atom_site_label_1
_geom_bond_atom_site_label_2
_geom_bond_site_symmetry_1
_geom_bond_site_symmetry_2
Mn1 N1 1_555 1_555
C1 C2 1_555 1_555
C2 H1 1_555 1_555
C3 C2 1_555 1_555
H2 C3 1_555 1_555
C4 C3 1_555 1_555
C5 C4 1_555 1_555
H3 C5 1_555 1_555
C6 C1 1_555 1_555
C7 C6 1_555 1_555
C8 C1 1_555 1_555
C9 C10 1_555 1_555
C10 C11 1_555 1_555
C11 H4 1_555 1_555
C12 C11 1_555 1_555
H5 C12 1_555 1_555
C13 H6 1_555 1_555
C14 C10 1_555 1_555
H7 C14 1_555 1_555
N1 C12 1_555 1_555
N2 C4 1_555 1_555
H8 N2 1_555 1_555
O1 C8 1_555 1_555
O2 C8 1_555 1_555
O3 C7 1_555 1_555
O4 C7 1_555 1_555
O5 C9 1_555 1_555
O6 Mn1 1_555 1_555
H9 O6 1_555 1_555
H10 O6 1_555 1_555
O7 Mn1 1_555 1_555
H11 O7 1_555 1_555
H12 O7 1_555 1_555
Mn1C O1 1_555 1_555
Mn1C_2 O2 1_555 1_555
Mn1A O3 1_555 1_555
O1C Mn1 1_555 1_555
O2C Mn1 1_555 1_555
O3A Mn1 1_555 1_555
C5 C6 1_555 1_555
C9 N2 1_555 1_555
C13 C14 1_555 1_555
C13 N1 1_555 1_555

#END
