
#######################################################################
#
#                 Cambridge Crystallographic Data Centre
#                                CCDC 
#
#######################################################################
#
# If this CIF has been generated from an entry in the Cambridge 
# Structural Database, then it will include bibliographic, chemical, 
# crystal, experimental, refinement or atomic coordinate data resulting 
# from the CCDC's data processing and validation procedures.
#
#######################################################################

data_BABRAZ
_symmetry_cell_setting           monoclinic
_symmetry_space_group_name_H-M   'P 21/c'
_symmetry_Int_Tables_number      14
_space_group_name_Hall           '-P 2ybc'
loop_
_symmetry_equiv_pos_site_id
_symmetry_equiv_pos_as_xyz
1 x,y,z
2 -x,1/2+y,1/2-z
3 -x,-y,-z
4 x,1/2-y,1/2+z
_cell_length_a                   10.557(2)
_cell_length_b                   14.823(2)
_cell_length_c                   14.084(2)
_cell_angle_alpha                90
_cell_angle_beta                 107.73(5)
_cell_angle_gamma                90
_cell_volume                     2099.27
loop_
_atom_site_label
_atom_site_type_symbol
_atom_site_fract_x
_atom_site_fract_y
_atom_site_fract_z
Cd1 Cd 0.23108(2) 0.166522(17) 0.142516(18)
I1 I 0.32512(3) -0.006236(17) 0.13924(2)
I2 I -0.00554(2) 0.23333(2) 0.018173(19)
P1 P 0.41743(9) 0.21948(6) 0.38235(6)
P2 P 0.00838(9) 0.08732(6) 0.26239(6)
O1 O 0.3791(2) 0.23796(17) 0.27233(17)
N1 N 0.6044(3) 0.2372(2) 0.5602(2)
N2 N 0.3693(3) 0.25439(19) 0.5574(2)
N3 N 0.4580(3) 0.1042(2) 0.5357(2)
N4 N -0.1183(3) -0.0222(2) 0.3580(2)
N5 N -0.2519(3) 0.0959(2) 0.2470(2)
N6 N -0.1742(3) -0.0376(2) 0.1747(2)
C1 C 0.5826(4) 0.2562(3) 0.4526(3)
H1 H 0.6476 0.2247 0.4301
H2 H 0.5919 0.3196 0.4428
C2 C 0.3172(3) 0.2747(2) 0.4485(2)
H3 H 0.3183 0.3386 0.4383
H4 H 0.2269 0.2542 0.4229
C3 C 0.4173(4) 0.1037(2) 0.4247(2)
H5 H 0.3300 0.0781 0.3984
H6 H 0.4783 0.0680 0.4020
C4 C 0.5934(4) 0.1406(3) 0.5778(3)
H7 H 0.6224 0.1299 0.6484
H8 H 0.6522 0.1084 0.5496
C5 C 0.3680(3) 0.1557(2) 0.5747(2)
H9 H 0.3907 0.1451 0.6451
H10 H 0.2793 0.1337 0.5447
C6 C 0.5089(3) 0.2862(3) 0.5976(2)
H11 H 0.5121 0.3489 0.5815
H12 H 0.5360 0.2811 0.6689
C7 C 0.0110(4) 0.0215(3) 0.3720(3)
H13 H 0.0794 -0.0235 0.3837
H14 H 0.0310 0.0603 0.4293
C8 C -0.1396(4) 0.1552(3) 0.2469(3)
H15 H -0.1242 0.1981 0.3003
H16 H -0.1603 0.1878 0.1852
C9 C -0.0510(4) 0.0035(3) 0.1643(3)
H17 H -0.0690 0.0316 0.1001
H18 H 0.0155 -0.0421 0.1701
C10 C -0.2243(4) 0.0457(3) 0.3407(3)
H19 H -0.3046 0.0161 0.3421
H20 H -0.2007 0.0881 0.3949
C11 C -0.2776(4) 0.0305(3) 0.1649(3)
H21 H -0.3599 0.0003 0.1594
H22 H -0.2889 0.0630 0.1039
C12 C -0.1500(4) -0.0832(3) 0.2707(3)
H23 H -0.0776 -0.1247 0.2792
H24 H -0.2275 -0.1177 0.2693
O2 O 0.1350(3) 0.1371(2) 0.26908(19)
Cd1C Cd 0.23108(2) 0.333478(17) 0.642516(18)
N2C N 0.3693(3) 0.24561(19) 0.0574(2)
loop_
_geom_bond_atom_site_label_1
_geom_bond_atom_site_label_2
_geom_bond_site_symmetry_1
_geom_bond_site_symmetry_2
Cd1 I1 1_555 1_555
I2 Cd1 1_555 1_555
P1 O1 1_555 1_555
P2 C7 1_555 1_555
O1 Cd1 1_555 1_555
N1 C1 1_555 1_555
N2 C2 1_555 1_555
N3 C3 1_555 1_555
N4 C7 1_555 1_555
N5 C8 1_555 1_555
N6 C9 1_555 1_555
C1 P1 1_555 1_555
H1 C1 1_555 1_555
H2 C1 1_555 1_555
C2 P1 1_555 1_555
H3 C2 1_555 1_555
H4 C2 1_555 1_555
C3 P1 1_555 1_555
H5 C3 1_555 1_555
H6 C3 1_555 1_555
C4 N1 1_555 1_555
H7 C4 1_555 1_555
H8 C4 1_555 1_555
C5 N2 1_555 1_555
H9 C5 1_555 1_555
H10 C5 1_555 1_555
C6 N1 1_555 1_555
H11 C6 1_555 1_555
H12 C6 1_555 1_555
C7 H13 1_555 1_555
H14 C7 1_555 1_555
C8 P2 1_555 1_555
H15 C8 1_555 1_555
H16 C8 1_555 1_555
C9 P2 1_555 1_555
H17 C9 1_555 1_555
H18 C9 1_555 1_555
C10 N4 1_555 1_555
H19 C10 1_555 1_555
H20 C10 1_555 1_555
C11 N5 1_555 1_555
H21 C11 1_555 1_555
H22 C11 1_555 1_555
C12 N4 1_555 1_555
H23 C12 1_555 1_555
H24 C12 1_555 1_555
O2 Cd1 1_555 1_555
Cd1C N2 1_555 1_555
N2C Cd1 1_555 1_555
P2 O2 1_555 1_555
N2 C6 1_555 1_555
N3 C4 1_555 1_555
N3 C5 1_555 1_555
N5 C10 1_555 1_555
N6 C11 1_555 1_555
N6 C12 1_555 1_555

#END
