
#######################################################################
#
#                 Cambridge Crystallographic Data Centre
#                                CCDC 
#
#######################################################################
#
# If this CIF has been generated from an entry in the Cambridge 
# Structural Database, then it will include bibliographic, chemical, 
# crystal, experimental, refinement or atomic coordinate data resulting 
# from the CCDC's data processing and validation procedures.
#
#######################################################################

data_BACKIB
_symmetry_cell_setting           triclinic
_symmetry_space_group_name_H-M   'P -1'
_symmetry_Int_Tables_number      2
_space_group_name_Hall           '-P 1'
loop_
_symmetry_equiv_pos_site_id
_symmetry_equiv_pos_as_xyz
1 x,y,z
2 -x,-y,-z
_cell_length_a                   12.256(3)
_cell_length_b                   15.377(3)
_cell_length_c                   15.735(3)
_cell_angle_alpha                103.16(3)
_cell_angle_beta                 109.93(3)
_cell_angle_gamma                98.85(3)
_cell_volume                     2626.41
loop_
_atom_site_label
_atom_site_type_symbol
_atom_site_fract_x
_atom_site_fract_y
_atom_site_fract_z
Cu1 Cu 0.84268(5) 0.88555(3) 0.09042(3)
O1 O 0.6911(18) 0.9209(10) 0.1362(10)
N1 N 0.7748(2) 0.75301(17) 0.07837(16)
N2 N 0.7631(3) 0.8339(2) -0.0473(2)
N3 N 0.9030(5) 1.0050(3) 0.0748(3)
N4 N 0.9628(3) 0.9248(3) 0.2236(3)
C1 C 0.7669(2) 0.69714(17) 0.13018(17)
N5 N 0.7040(3) 0.7029(2) -0.0142(2)
C2 C 0.7029(4) 0.7484(3) -0.0833(3)
H1 H 0.7680 0.8683 -0.0843
C3 C 0.9233(4) 1.0704(3) 0.0529(3)
C4 C 0.6904(3) 0.61031(19) 0.0711(2)
C5 C 0.8304(5) 0.7268(4) 0.2353(4)
C6 C 0.6504(4) 0.6148(3) -0.0203(3)
N6 N 0.6433(4) 0.6949(3) -0.1734(2)
N7 N 0.9447(4) 1.1425(2) 0.0240(3)
H2 H 0.6702 0.5582 0.0907
H3 H 0.9134 0.7608 0.2532
H4 H 0.8302 0.6723 0.2577
H5 H 0.7895 0.7668 0.2642
C7 C 0.5623(5) 0.5440(3) -0.1090(4)
C8 C 0.6450(4) 0.7314(3) -0.2399(3)
C9 C 0.9997(4) 1.2218(3) 0.0947(3)
H6 H 0.5465 0.4846 -0.0967
H7 H 0.5951 0.5378 -0.1582
H8 H 0.4873 0.5631 -0.1304
N8 N 0.6431(4) 0.7575(3) -0.3033(3)
N9 N 1.0278(3) 1.3011(2) 0.0680(2)
N10 N 1.0337(4) 1.2371(2) 0.1855(3)
Cu2 Cu 0.61835(5) 0.78974(4) -0.42226(3)
N11 N 1.0993(3) 1.3791(2) 0.1413(3)
C10 C 1.0027(4) 1.3170(3) -0.0188(3)
Cu3 Cu 1.11659(5) 1.36261(3) 0.26861(3)
H9 H 1.0197 1.1919 0.2091
O2 O 0.4608(17) 0.8473(10) -0.4173(18)
N12 N 0.6278(3) 0.8250(2) -0.5355(2)
N13 N 0.7590(3) 0.8937(2) -0.3599(2)
N14 N 0.5051(4) 0.6674(3) -0.4910(3)
C11 C 1.1202(4) 1.4439(3) 0.1007(3)
C12 C 1.0614(4) 1.4069(3) 0.0006(3)
C13 C 0.9213(5) 1.2488(3) -0.1126(3)
O3 O 0.955(2) 1.4139(15) 0.2631(11)
N15 N 1.1371(3) 1.3363(2) 0.3912(2)
N16 N 1.2463(4) 1.4706(3) 0.3576(3)
C14 C 0.451(2) 0.9329(14) -0.4343(19)
C15 C 0.5712(4) 0.8027(3) -0.6293(3)
N17 N 0.7280(3) 0.8944(2) -0.5107(2)
C16 C 0.7983(4) 0.9326(3) -0.4119(3)
H10 H 0.7950 0.9137 -0.2977
C17 C 1.1947(5) 1.5394(3) 0.1575(4)
H11 H 1.0625 1.4385 -0.0444
H12 H 0.8408 1.2310 -0.1131
H13 H 0.9523 1.1940 -0.1229
H14 H 0.9175 1.2769 -0.1632
C18 C 0.8833(11) 1.4542(12) 0.2037(11)
C19 C 1.0892(4) 1.2779(3) 0.4275(3)
N18 N 1.2338(3) 1.3983(2) 0.4664(2)
C20 C 1.2903(4) 1.4727(3) 0.4452(3)
H15 H 1.2733 1.5156 0.3384
C21 C 0.6355(4) 0.8577(3) -0.6651(3)
C22 C 0.4550(6) 0.7307(4) -0.6838(5)
C23 C 0.7348(4) 0.9159(3) -0.5890(3)
N19 N 0.8942(3) 1.0018(2) -0.3893(2)
H16 H 1.2730 1.5367 0.2003
H17 H 1.1541 1.5702 0.1948
H18 H 1.2060 1.5741 0.1148
C24 C 1.1565(4) 1.3019(3) 0.5259(3)
C25 C 0.9781(4) 1.2020(3) 0.3681(3)
C26 C 1.2463(4) 1.3784(3) 0.5495(3)
N20 N 1.3812(4) 1.5333(3) 0.5214(3)
H19 H 0.6144 0.8553 -0.7297
H20 H 0.3907 0.7535 -0.6699
H21 H 0.4368 0.7170 -0.7518
H22 H 0.4615 0.6744 -0.6653
C27 C 0.8310(5) 0.9887(4) -0.5880(3)
C28 C 0.9661(4) 1.0387(3) -0.2994(3)
H23 H 1.1419 1.2706 0.5680
H24 H 0.9267 1.2212 0.3165
H25 H 0.9346 1.1884 0.4074
H26 H 1.0000 1.1465 0.3413
C29 C 1.3404(6) 1.4335(5) 0.6454(4)
C30 C 1.4426(4) 1.6036(3) 0.5100(3)
H27 H 0.8160 0.9898 -0.6530
H28 H 0.8315 1.0489 -0.5499
H29 H 0.9090 0.9754 -0.5605
H30 H 1.4193 1.4441 0.6416
H31 H 1.3405 1.3994 0.6910
H32 H 1.3229 1.4929 0.6662
N4A N 1.0372(3) 1.0752(3) -0.2236(3)
N14_2 N 1.5051(4) 1.6674(3) 0.5090(3)
Cu1A Cu 1.15732(5) 1.11445(3) -0.09042(3)
Cu2_2 Cu 1.61835(5) 1.78974(4) 0.57774(3)
Cl1 Cl 0.6063(2) 1.2642(2) -0.02516(18)
O4 O 0.7133(5) 1.2349(6) 0.0123(7)
O5 O 0.6369(7) 1.3544(4) -0.0338(8)
O6 O 0.5307(9) 1.2010(6) -0.1164(4)
O7 O 0.5444(9) 1.2664(9) 0.0373(7)
Cl2 Cl 1.1304(5) 1.6897(4) 0.4050(4)
O8 O 1.2287(11) 1.6888(10) 0.3757(13)
O9 O 1.0247(9) 1.6253(9) 0.3324(12)
O10 O 1.157(2) 1.6645(14) 0.4905(9)
O11 O 1.1108(13) 1.7803(5) 0.4212(13)
O12 O 1.1977(5) 1.0237(3) 0.1603(3)
C31 C 1.3191(10) 0.9798(10) 0.1695(10)
O13 O 0.6541(14) 1.263(2) 0.2753(16)
C32 C 0.7363(18) 1.2589(16) 0.2181(14)
O14? O 0.698(3) 0.9403(16) 0.1216(17)
C33? C 0.6636(7) 1.0098(3) 0.1452(5)
H33? H 0.7304 1.0569 0.1976
H34? H 0.5980 0.9941 0.1655
H35? H 0.6354 1.0338 0.0911
O15? O 0.938(3) 1.4103(18) 0.263(2)
H36? H 0.8240 1.4726 0.2280
H37? H 0.8420 1.4098 0.1401
H38? H 0.9332 1.5087 0.2006
O16? O 1.513(2) 1.1194(13) 0.411(2)
H39? H 1.5800 1.0329 0.3909
H40? H 1.4701 1.0310 0.4240
H41? H 1.6044 1.0782 0.4999
Cl3? Cl 0.6749(7) 1.3105(5) -0.0001(5)
O17? O 0.6093(11) 1.3393(9) 0.0562(9)
O18? O 0.7743(12) 1.3849(8) 0.0196(15)
O19? O 0.7176(15) 1.2336(11) 0.0217(18)
O20? O 0.5981(15) 1.2836(17) -0.0983(5)
Cl4? Cl 1.1681(3) 1.7412(3) 0.4066(3)
O21? O 1.2346(8) 1.8158(5) 0.3899(8)
O22? O 1.1202(10) 1.6629(6) 0.3235(6)
O23? O 1.0720(7) 1.7685(6) 0.4285(8)
O24? O 1.2455(8) 1.7176(9) 0.4844(7)
O25? O 0.7106(16) 1.1237(12) 0.1494(14)
O26? O 0.9493(14) 1.4690(10) 0.4688(16)
loop_
_geom_bond_atom_site_label_1
_geom_bond_atom_site_label_2
_geom_bond_site_symmetry_1
_geom_bond_site_symmetry_2
Cu1 O1 1_555 1_555
N1 Cu1 1_555 1_555
N2 Cu1 1_555 1_555
N3 Cu1 1_555 1_555
N4 Cu1 1_555 1_555
C1 N1 1_555 1_555
N5 N1 1_555 1_555
C2 N2 1_555 1_555
H1 N2 1_555 1_555
C3 N3 1_555 1_555
C4 C1 1_555 1_555
C5 C1 1_555 1_555
C6 N5 1_555 1_555
N6 C2 1_555 1_555
N7 C3 1_555 1_555
H2 C4 1_555 1_555
H3 C5 1_555 1_555
H4 C5 1_555 1_555
H5 C5 1_555 1_555
C7 C6 1_555 1_555
C8 N6 1_555 1_555
C9 N7 1_555 1_555
H6 C7 1_555 1_555
H7 C7 1_555 1_555
H8 C7 1_555 1_555
N8 C8 1_555 1_555
N9 C9 1_555 1_555
N10 C9 1_555 1_555
Cu2 N8 1_555 1_555
N11 N9 1_555 1_555
C10 N9 1_555 1_555
Cu3 N10 1_555 1_555
H9 N10 1_555 1_555
O2 Cu2 1_555 1_555
N12 Cu2 1_555 1_555
N13 Cu2 1_555 1_555
N14 Cu2 1_555 1_555
C11 N11 1_555 1_555
C12 C10 1_555 1_555
C13 C10 1_555 1_555
O3 Cu3 1_555 1_555
N15 Cu3 1_555 1_555
N16 Cu3 1_555 1_555
C14 O2 1_555 1_555
C15 N12 1_555 1_555
N17 N12 1_555 1_555
C16 N13 1_555 1_555
H10 N13 1_555 1_555
C17 C11 1_555 1_555
H11 C12 1_555 1_555
H12 C13 1_555 1_555
H13 C13 1_555 1_555
H14 C13 1_555 1_555
C18 O3 1_555 1_555
C19 N15 1_555 1_555
N18 N15 1_555 1_555
C20 N16 1_555 1_555
H15 N16 1_555 1_555
C21 C15 1_555 1_555
C22 C15 1_555 1_555
C23 N17 1_555 1_555
N19 C16 1_555 1_555
H16 C17 1_555 1_555
H17 C17 1_555 1_555
H18 C17 1_555 1_555
C24 C19 1_555 1_555
C25 C19 1_555 1_555
C26 N18 1_555 1_555
N20 C20 1_555 1_555
H19 C21 1_555 1_555
H20 C22 1_555 1_555
H21 C22 1_555 1_555
H22 C22 1_555 1_555
C27 C23 1_555 1_555
C28 N19 1_555 1_555
H23 C24 1_555 1_555
H24 C25 1_555 1_555
H25 C25 1_555 1_555
H26 C25 1_555 1_555
C29 C26 1_555 1_555
C30 N20 1_555 1_555
H27 C27 1_555 1_555
H28 C27 1_555 1_555
H29 C27 1_555 1_555
H30 C29 1_555 1_555
H31 C29 1_555 1_555
H32 C29 1_555 1_555
Cl1 O4 1_555 1_555
O5 Cl1 1_555 1_555
O6 Cl1 1_555 1_555
O7 Cl1 1_555 1_555
Cl2 O8 1_555 1_555
O9 Cl2 1_555 1_555
O10 Cl2 1_555 1_555
O11 Cl2 1_555 1_555
O12 C31 1_555 1_555
O13 C32 1_555 1_555
N4A C28 1_555 1_555
N14_2 C30 1_555 1_555
Cu1A N4A 1_555 1_555
Cu2_2 N14_2 1_555 1_555
N5 C2 1_555 1_555
C4 C6 1_555 1_555
N11 Cu3 1_555 1_555
C11 C12 1_555 1_555
N17 C16 1_555 1_555
N18 C20 1_555 1_555
C21 C23 1_555 1_555
C24 C26 1_555 1_555

#END
