
#######################################################################
#
#                 Cambridge Crystallographic Data Centre
#                                CCDC 
#
#######################################################################
#
# If this CIF has been generated from an entry in the Cambridge 
# Structural Database, then it will include bibliographic, chemical, 
# crystal, experimental, refinement or atomic coordinate data resulting 
# from the CCDC's data processing and validation procedures.
#
#######################################################################

data_BACNAV
_symmetry_cell_setting           orthorhombic
_symmetry_space_group_name_H-M   'P c 21 b'
_symmetry_Int_Tables_number      29
_space_group_name_Hall           'P -2bc -2c'
loop_
_symmetry_equiv_pos_site_id
_symmetry_equiv_pos_as_xyz
1 x,y,z
2 -x,1/2+y,-z
3 -x,y,1/2+z
4 x,1/2+y,1/2-z
_cell_length_a                   9.6630(2)
_cell_length_b                   13.3680(4)
_cell_length_c                   20.3340(6)
_cell_angle_alpha                90
_cell_angle_beta                 90
_cell_angle_gamma                90
_cell_volume                     2626.64
loop_
_atom_site_label
_atom_site_type_symbol
_atom_site_fract_x
_atom_site_fract_y
_atom_site_fract_z
Cu1 Cu -0.46806(7) 0.9170 -0.99484(4)
O1 O -0.4963(5) 0.9117(5) -1.0944(2)
O2 O -0.6638(4) 0.8942(4) -1.0266(2)
O3 O -0.7062(6) 0.8945(5) -1.1322(3)
O4 O -0.5389(9) 1.0821(4) -1.0112(3)
O5 O -0.4106(5) 1.1612(4) -0.9425(2)
O6 O -0.5637(7) 1.2364(5) -1.0040(4)
N1 N -0.2667(5) 0.9292(5) -0.9897(2)
N2 N -0.4975(5) 0.9152(5) -0.8998(3)
N3 N -0.2623(5) 0.9429(4) -0.8733(3)
H1 H -0.2073 0.9562 -0.8399
N4 N -0.6279(6) 0.9001(5) -1.0865(3)
N5 N -0.5034(8) 1.1615(5) -0.9840(2)
C1 C -0.1944(7) 0.9273(6) -1.0469(3)
H3 H -0.2437 0.9165 -1.0867
C2 C -0.0542(7) 0.9403(6) -1.0503(4)
H4 H -0.0066 0.9380 -1.0911
C3 C 0.0170(7) 0.9573(6) -0.9910(4)
H5 H 0.1143 0.9675 -0.9912
C4 C -0.0535(7) 0.9590(5) -0.9337(3)
H6 H -0.0057 0.9705 -0.8936
C5 C -0.1949(7) 0.9442(5) -0.9333(3)
C6 C -0.3969(6) 0.9254(5) -0.8545(3)
C7 C -0.4255(6) 0.9191(6) -0.7873(3)
H7 H -0.3527 0.9243 -0.7560
C8 C -0.5582(7) 0.9056(6) -0.7669(3)
H8 H -0.5794 0.9038 -0.7213
C9 C -0.6624(7) 0.8943(6) -0.8135(3)
H9 H -0.7557 0.8837 -0.8005
C10 C -0.6268(7) 0.8989(6) -0.8782(3)
H10 H -0.6978 0.8902 -0.9100
O6A O -0.4363(7) 0.7364(5) -0.9960(4)
Cu1A Cu -0.53194(7) 1.4170 -1.00516(4)
Cu2 Cu -0.05180(7) 0.68196(9) -0.76480(3)
O7 O 0.1445(5) 0.6825(6) -0.73326(19)
O8 O -0.0228(5) 0.7034(4) -0.6648(2)
O9 O 0.1892(5) 0.7035(6) -0.6286(2)
O10 O -0.0826(6) 0.5147(4) -0.7357(3)
O11 O 0.0793(6) 0.4465(5) -0.7942(3)
O12 O -0.0309(8) 0.3631(4) -0.7209(3)
N6 N -0.0188(5) 0.6805(5) -0.8591(2)
N7 N -0.2521(5) 0.6812(5) -0.7706(2)
N8 N -0.2556(5) 0.6711(5) -0.8874(2)
H2 H -0.3116 0.6643 -0.9213
N9 N 0.1089(6) 0.6980(5) -0.6731(3)
N10 N -0.0094(5) 0.4408(5) -0.7532(3)
C11 C 0.1126(7) 0.6906(6) -0.8806(3)
H11 H 0.1849 0.6909 -0.8490
C12 C 0.1477(7) 0.7007(5) -0.9460(3)
H12 H 0.2418 0.7057 -0.9590
C13 C 0.0434(8) 0.7033(5) -0.9921(3)
H13 H 0.0649 0.7118 -1.0373
C14 C -0.0905(7) 0.6936(5) -0.9726(3)
H14 H -0.1639 0.6942 -1.0037
C15 C -0.1171(6) 0.6827(5) -0.9045(3)
C16 C -0.3212(6) 0.6684(6) -0.8275(3)
C17 C -0.4651(7) 0.6494(5) -0.8272(3)
H15 H -0.5125 0.6361 -0.8672
C18 C -0.5354(6) 0.6504(6) -0.7690(3)
H16 H -0.6324 0.6389 -0.7683
C19 C -0.4643(7) 0.6683(7) -0.7110(3)
H17 H -0.5120 0.6701 -0.6701
C20 C -0.3239(6) 0.6834(6) -0.7136(3)
H18 H -0.2754 0.6959 -0.6738
O12C O -0.0309(8) 0.8631(4) -0.7791(3)
Cu2C Cu -0.05180(7) 0.18196(9) -0.73520(3)
loop_
_geom_bond_atom_site_label_1
_geom_bond_atom_site_label_2
_geom_bond_site_symmetry_1
_geom_bond_site_symmetry_2
Cu1 O1 1_555 1_555
Cu2 O7 1_555 1_555
O1 N4 1_555 1_555
O2 Cu1 1_555 1_555
O3 N4 1_555 1_555
O4 Cu1 1_555 1_555
O5 N5 1_555 1_555
O6 N5 1_555 1_555
O7 N9 1_555 1_555
O8 Cu2 1_555 1_555
O9 N9 1_555 1_555
O10 Cu2 1_555 1_555
O11 N10 1_555 1_555
O12 N10 1_555 1_555
N1 Cu1 1_555 1_555
N2 Cu1 1_555 1_555
N3 H1 1_555 1_555
N4 O2 1_555 1_555
N5 O4 1_555 1_555
N6 Cu2 1_555 1_555
N7 Cu2 1_555 1_555
N8 H2 1_555 1_555
N9 O8 1_555 1_555
N10 O10 1_555 1_555
C1 N1 1_555 1_555
H3 C1 1_555 1_555
C2 C1 1_555 1_555
H4 C2 1_555 1_555
C3 C2 1_555 1_555
H5 C3 1_555 1_555
C4 C3 1_555 1_555
H6 C4 1_555 1_555
C5 N1 1_555 1_555
C6 N2 1_555 1_555
C7 C6 1_555 1_555
H7 C7 1_555 1_555
C8 C7 1_555 1_555
H8 C8 1_555 1_555
C9 C8 1_555 1_555
H9 C9 1_555 1_555
C10 N2 1_555 1_555
H10 C10 1_555 1_555
C11 N6 1_555 1_555
H11 C11 1_555 1_555
C12 C11 1_555 1_555
H12 C12 1_555 1_555
C13 C12 1_555 1_555
H13 C13 1_555 1_555
C14 C13 1_555 1_555
H14 C14 1_555 1_555
C15 N6 1_555 1_555
C16 N7 1_555 1_555
C17 C16 1_555 1_555
H15 C17 1_555 1_555
C18 C17 1_555 1_555
H16 C18 1_555 1_555
C19 C18 1_555 1_555
H17 C19 1_555 1_555
C20 N7 1_555 1_555
H18 C20 1_555 1_555
O6A Cu1 1_555 1_555
O12C Cu2 1_555 1_555
Cu1A O6 1_555 1_555
Cu2C O12 1_555 1_555
N3 C5 1_555 1_555
N3 C6 1_555 1_555
N8 C15 1_555 1_555
N8 C16 1_555 1_555
C4 C5 1_555 1_555
C9 C10 1_555 1_555
C14 C15 1_555 1_555
C19 C20 1_555 1_555

#END
