
#######################################################################
#
#                 Cambridge Crystallographic Data Centre
#                                CCDC 
#
#######################################################################
#
# If this CIF has been generated from an entry in the Cambridge 
# Structural Database, then it will include bibliographic, chemical, 
# crystal, experimental, refinement or atomic coordinate data resulting 
# from the CCDC's data processing and validation procedures.
#
#######################################################################

data_BACQEB06
_symmetry_cell_setting           orthorhombic
_symmetry_space_group_name_H-M   'P 21 21 21'
_symmetry_Int_Tables_number      19
_space_group_name_Hall           'P 2ac 2ab'
loop_
_symmetry_equiv_pos_site_id
_symmetry_equiv_pos_as_xyz
1 x,y,z
2 1/2-x,-y,1/2+z
3 -x,1/2+y,1/2-z
4 1/2+x,1/2-y,-z
_cell_length_a                   7.3484(9)
_cell_length_b                   9.4370(12)
_cell_length_c                   13.8804(17)
_cell_angle_alpha                90
_cell_angle_beta                 90
_cell_angle_gamma                90
_cell_volume                     962.562
loop_
_atom_site_label
_atom_site_type_symbol
_atom_site_fract_x
_atom_site_fract_y
_atom_site_fract_z
Co1 Co 0.09581(7) 0.89001(6) 0.23312(4)
N1 N 0.3457(5) 0.8613(4) 0.1567(3)
O1 O 0.0773(5) 1.0420(4) 0.1255(3)
O2 O 0.2398(5) 1.1692(4) 0.0214(3)
O3 O 0.7478(5) 0.5525(4) 0.1815(3)
O4 O 0.1613(5) 0.7536(4) 0.3419(3)
H1 H 0.2240 0.7824 0.3894
H2 H 0.1259 0.6679 0.3395
O5 O 0.9601(5) 0.7197(4) 0.1639(3)
O6 O -0.1355(5) 0.9770(4) 0.2907(3)
H3 H -0.1278 1.0463 0.3296
H4 H -0.2391 0.9437 0.2757
C1 C 0.2208(7) 1.0683(5) 0.0779(3)
C2 C 0.3781(6) 0.9670(5) 0.0937(3)
C3 C 0.5443(7) 0.9847(6) 0.0488(4)
H5 H 0.5624 1.0582 0.0052
C4 C 0.6843(6) 0.8901(6) 0.0700(4)
H6 H 0.7987 0.9011 0.0424
C5 C 0.6502(6) 0.7789(5) 0.1333(4)
C6 C 0.4779(6) 0.7681(5) 0.1751(4)
H7 H 0.4544 0.6936 0.2172
C7 C 0.7958(6) 0.6751(5) 0.1618(4)
Co1_2 Co 1.09581(7) 0.89001(6) 0.23312(4)
Co1B Co 0.90419(7) 0.39001(6) 0.26688(4)
O3B O 0.2522(5) 1.0525(4) 0.3185(3)
O5_2 O -0.0399(5) 0.7197(4) 0.1639(3)
O7 O 0.4288(6) 0.4174(5) 0.1108(4)
H8 H 0.5405 0.4036 0.1236
H9 H 0.3696 0.3562 0.0786
loop_
_geom_bond_atom_site_label_1
_geom_bond_atom_site_label_2
_geom_bond_site_symmetry_1
_geom_bond_site_symmetry_2
Co1 N1 1_555 1_555
N1 C2 1_555 1_555
O1 Co1 1_555 1_555
O2 C1 1_555 1_555
O3 C7 1_555 1_555
O4 Co1 1_555 1_555
H1 O4 1_555 1_555
H2 O4 1_555 1_555
O5 C7 1_555 1_555
O6 Co1 1_555 1_555
H3 O6 1_555 1_555
H4 O6 1_555 1_555
C1 O1 1_555 1_555
C2 C1 1_555 1_555
C3 C2 1_555 1_555
H5 C3 1_555 1_555
C4 C3 1_555 1_555
H6 C4 1_555 1_555
C5 C4 1_555 1_555
C6 N1 1_555 1_555
H7 C6 1_555 1_555
C7 C5 1_555 1_555
O7 H8 1_555 1_555
H9 O7 1_555 1_555
Co1_2 O5 1_555 1_555
Co1B O3 1_555 1_555
O3B Co1 1_555 1_555
O5_2 Co1 1_555 1_555
C5 C6 1_555 1_555

#END
