
#######################################################################
#
#                 Cambridge Crystallographic Data Centre
#                                CCDC 
#
#######################################################################
#
# If this CIF has been generated from an entry in the Cambridge 
# Structural Database, then it will include bibliographic, chemical, 
# crystal, experimental, refinement or atomic coordinate data resulting 
# from the CCDC's data processing and validation procedures.
#
#######################################################################

data_BACQEB01
_symmetry_cell_setting           orthorhombic
_symmetry_space_group_name_H-M   'P 21 21 21'
_symmetry_Int_Tables_number      19
_space_group_name_Hall           'P 2ac 2ab'
loop_
_symmetry_equiv_pos_site_id
_symmetry_equiv_pos_as_xyz
1 x,y,z
2 1/2-x,-y,1/2+z
3 -x,1/2+y,1/2-z
4 1/2+x,1/2-y,-z
_cell_length_a                   7.361
_cell_length_b                   9.4082(3)
_cell_length_c                   13.96950(10)
_cell_angle_alpha                90
_cell_angle_beta                 90
_cell_angle_gamma                90
_cell_volume                     967.44
loop_
_atom_site_label
_atom_site_type_symbol
_atom_site_fract_x
_atom_site_fract_y
_atom_site_fract_z
Co1 Co 0.90177(4) 0.39470(3) 0.26466(3)
O1 O 1.0398(2) 0.2214(2) 0.33439(15)
O2 O 1.2504(3) 0.0528(2) 0.3157(2)
O3 O 1.9216(2) 0.5413(2) 0.37427(14)
O4 O 1.7633(3) 0.6673(2) 0.4795(2)
O5 O 1.1369(3) 0.4777(2) 0.2086(2)
H1 H 1.1072(46) 0.5517(37) 0.1862(25)
H2 H 1.2266(60) 0.4382(43) 0.1791(33)
O6 O 0.8403(3) 0.2549(2) 0.1580(2)
H3 H 0.8976(44) 0.1828(36) 0.1503(22)
H4 H 0.8110(53) 0.2901(41) 0.1029(32)
N1 N 1.6539(3) 0.3617(2) 0.3427(2)
C1 C 1.2022(4) 0.1780(3) 0.3365(2)
C2 C 1.3489(3) 0.2798(3) 0.3652(2)
C3 C 1.5208(4) 0.2691(3) 0.3243(2)
H5 H 1.5447(38) 0.2040(29) 0.2761(24)
C4 C 1.6220(4) 0.4668(3) 0.4065(2)
C5 C 1.4552(4) 0.4834(3) 0.4517(2)
H6 H 1.4374(39) 0.5561(29) 0.4967(22)
C6 C 1.3171(4) 0.3900(4) 0.4295(2)
H7 H 1.2154(45) 0.4037(36) 0.4547(26)
C7 C 1.7793(4) 0.5675(3) 0.4226(2)
O2B O 0.7496(3) 0.5528(2) 0.1843(2)
O3_2 O 0.9216(2) 0.5413(2) 0.37427(14)
N1_2 N 0.6539(3) 0.3617(2) 0.3427(2)
Co1B Co 1.09823(4) -0.10530(3) 0.23534(3)
Co1_2 Co 1.90177(4) 0.39470(3) 0.26466(3)
O7 O 0.0691(4) 0.5844(3) 0.6112(2)
H8 H -0.0332(66) 0.5452(46) 0.6324(38)
H9 H 0.0929(96) 0.6555(66) 0.5780(48)
loop_
_geom_bond_atom_site_label_1
_geom_bond_atom_site_label_2
_geom_bond_site_symmetry_1
_geom_bond_site_symmetry_2
Co1 O1 1_555 1_555
O1 C1 1_555 1_555
O2 C1 1_555 1_555
O3 C7 1_555 1_555
O4 C7 1_555 1_555
O5 Co1 1_555 1_555
H1 O5 1_555 1_555
H2 O5 1_555 1_555
O6 Co1 1_555 1_555
H3 O6 1_555 1_555
H4 O6 1_555 1_555
N1 C3 1_555 1_555
C1 C2 1_555 1_555
C2 C3 1_555 1_555
C3 H5 1_555 1_555
C4 N1 1_555 1_555
C5 C4 1_555 1_555
H6 C5 1_555 1_555
C6 C2 1_555 1_555
H7 C6 1_555 1_555
C7 C4 1_555 1_555
O7 H8 1_555 1_555
H9 O7 1_555 1_555
O2B Co1 1_555 1_555
O3_2 Co1 1_555 1_555
N1_2 Co1 1_555 1_555
Co1B O2 1_555 1_555
Co1_2 O3 1_555 1_555
N1 Co1_2 1_555 1_555
C5 C6 1_555 1_555

#END
