
#######################################################################
#
#                 Cambridge Crystallographic Data Centre
#                                CCDC 
#
#######################################################################
#
# If this CIF has been generated from an entry in the Cambridge 
# Structural Database, then it will include bibliographic, chemical, 
# crystal, experimental, refinement or atomic coordinate data resulting 
# from the CCDC's data processing and validation procedures.
#
#######################################################################

data_BACQEB02
_symmetry_cell_setting           orthorhombic
_symmetry_space_group_name_H-M   'P 21 21 21'
_symmetry_Int_Tables_number      19
_space_group_name_Hall           'P 2ac 2ab'
loop_
_symmetry_equiv_pos_site_id
_symmetry_equiv_pos_as_xyz
1 x,y,z
2 1/2-x,-y,1/2+z
3 -x,1/2+y,1/2-z
4 1/2+x,1/2-y,-z
_cell_length_a                   7.363(2)
_cell_length_b                   9.422(3)
_cell_length_c                   13.976(4)
_cell_angle_alpha                90
_cell_angle_beta                 90
_cell_angle_gamma                90
_cell_volume                     969.574
loop_
_atom_site_label
_atom_site_type_symbol
_atom_site_fract_x
_atom_site_fract_y
_atom_site_fract_z
C1 C 0.4792(6) 0.7310(5) 0.6754(3)
H1 H 0.4558 0.8056 0.7172
C2 C 0.6510(7) 0.7209(5) 0.6349(3)
C3 C 0.6834(7) 0.6098(6) 0.5716(3)
H2 H 0.7977 0.5986 0.5442
C4 C 0.5441(7) 0.5154(5) 0.5493(4)
H3 H 0.5623 0.4426 0.5054
C5 C 0.3797(7) 0.5325(5) 0.5937(3)
C6 C 0.2209(7) 0.4325(5) 0.5782(3)
C7 C 0.7978(7) 0.8225(5) 0.6636(3)
N1 N 0.3455(6) 0.6382(4) 0.6571(3)
O1 O -0.1377(5) 0.5214(4) 0.7926(3)
O2 O 0.1585(5) 0.7462(3) 0.8439(2)
O3 O 0.7505(5) 0.9470(3) 0.6833(3)
O4 O 0.0794(5) 0.4584(3) 0.6257(2)
O5 O 0.2379(5) 0.3320(3) 0.5205(2)
O6 O 0.9599(5) 0.7793(3) 0.6658(2)
Co1 Co 0.09791(8) 0.60542(6) 0.73554(4)
O3B O 0.2495(5) 0.4470(3) 0.8167(3)
O6_2 O -0.0401(5) 0.7793(3) 0.6658(2)
Co1B Co 0.90209(8) 1.10542(6) 0.76446(4)
Co1_2 Co 1.09791(8) 0.60542(6) 0.73554(4)
O7 O 0.4317(6) 0.0848(5) 0.6105(3)
loop_
_geom_bond_atom_site_label_1
_geom_bond_atom_site_label_2
_geom_bond_site_symmetry_1
_geom_bond_site_symmetry_2
C1 H1 1_555 1_555
C2 C1 1_555 1_555
C3 C2 1_555 1_555
H2 C3 1_555 1_555
C4 C3 1_555 1_555
H3 C4 1_555 1_555
C5 C4 1_555 1_555
C6 C5 1_555 1_555
C7 C2 1_555 1_555
N1 C1 1_555 1_555
O1 Co1 1_555 1_555
O2 Co1 1_555 1_555
O3 C7 1_555 1_555
O4 C6 1_555 1_555
O5 C6 1_555 1_555
O6 C7 1_555 1_555
Co1 N1 1_555 1_555
O3B Co1 1_555 1_555
O6_2 Co1 1_555 1_555
Co1B O3 1_555 1_555
Co1_2 O6 1_555 1_555
C5 N1 1_555 1_555
O4 Co1 1_555 1_555

#END
