
#######################################################################
#
#                 Cambridge Crystallographic Data Centre
#                                CCDC 
#
#######################################################################
#
# If this CIF has been generated from an entry in the Cambridge 
# Structural Database, then it will include bibliographic, chemical, 
# crystal, experimental, refinement or atomic coordinate data resulting 
# from the CCDC's data processing and validation procedures.
#
#######################################################################

data_BADFIX
_symmetry_cell_setting           monoclinic
_symmetry_space_group_name_H-M   'P 21/n'
_symmetry_Int_Tables_number      14
_space_group_name_Hall           '-P 2yn'
loop_
_symmetry_equiv_pos_site_id
_symmetry_equiv_pos_as_xyz
1 x,y,z
2 1/2-x,1/2+y,1/2-z
3 -x,-y,-z
4 1/2+x,1/2-y,1/2+z
_cell_length_a                   9.942(2)
_cell_length_b                   7.5576(15)
_cell_length_c                   15.465(3)
_cell_angle_alpha                90
_cell_angle_beta                 105.26(3)
_cell_angle_gamma                90
_cell_volume                     1121.03
loop_
_atom_site_label
_atom_site_type_symbol
_atom_site_fract_x
_atom_site_fract_y
_atom_site_fract_z
La1 La -0.001272(17) 0.82193(3) 0.253046(11)
O1 O 0.1359(4) 0.5625(5) 0.2595(2)
H1 H 0.182(5) 0.527(8) 0.219(2)
H2 H 0.193(6) 0.506(7) 0.308(2)
O2 O 0.0043(4) 0.6635(5) 0.3884(2)
H3 H 0.023(6) 0.556(4) 0.407(3)
H4 H -0.037(5) 0.703(7) 0.429(3)
O3 O -0.1029(4) 1.0735(5) 0.1711(2)
H5 H -0.126(6) 1.087(9) 0.1129(16)
H6 H -0.178(3) 1.104(9) 0.188(3)
O4 O 0.1311(3) 0.8719(5) 0.1448(2)
O5 O 0.1578(3) 0.8607(5) 0.0064(2)
O6 O -0.2202(4) 0.6726(5) 0.2331(2)
O7 O -0.3900(3) 0.4983(5) 0.1544(2)
O8 O -0.3039(3) 0.5508(5) -0.1568(2)
N1 N -0.1018(5) 0.7014(5) 0.1019(3)
C1 C -0.0465(5) 0.7336(6) 0.0339(3)
C2 C -0.1086(5) 0.6832(6) -0.0541(3)
H7 H -0.0649 0.7074 -0.0991
C3 C -0.2381(5) 0.5954(6) -0.0747(3)
C4 C -0.2940(5) 0.5610(6) -0.0013(3)
H8 H -0.3776 0.4996 -0.0103
C5 C -0.2265(4) 0.6170(6) 0.0825(3)
C6 C 0.0910(5) 0.8303(6) 0.0624(3)
C7 C -0.2826(5) 0.5918(7) 0.1628(3)
La1A La -0.498728(17) 0.32193(3) 0.246954(11)
La1C La -0.501272(17) 0.67807(3) -0.246954(11)
O7A O -0.1100(3) 0.9983(5) 0.3456(2)
O8C O 0.1961(3) 0.9492(5) 0.3432(2)
O9 O 0.4370(4) 0.8217(5) 0.0677(3)
loop_
_geom_bond_atom_site_label_1
_geom_bond_atom_site_label_2
_geom_bond_site_symmetry_1
_geom_bond_site_symmetry_2
La1 O1 1_555 1_555
O1 H1 1_555 1_555
H2 O1 1_555 1_555
O2 La1 1_555 1_555
H3 O2 1_555 1_555
H4 O2 1_555 1_555
O3 La1 1_555 1_555
H5 O3 1_555 1_555
H6 O3 1_555 1_555
O4 La1 1_555 1_555
O5 C6 1_555 1_555
O6 La1 1_555 1_555
O7 C7 1_555 1_555
O8 C3 1_555 1_555
N1 La1 1_555 1_555
C1 N1 1_555 1_555
C2 C1 1_555 1_555
H7 C2 1_555 1_555
C3 C2 1_555 1_555
C4 C3 1_555 1_555
H8 C4 1_555 1_555
C5 N1 1_555 1_555
C6 O4 1_555 1_555
C7 O6 1_555 1_555
La1A O7 1_555 1_555
La1C O8 1_555 1_555
O7A La1 1_555 1_555
O8C La1 1_555 1_555
C1 C6 1_555 1_555
C4 C5 1_555 1_555
C5 C7 1_555 1_555

#END
