
#######################################################################
#
#                 Cambridge Crystallographic Data Centre
#                                CCDC 
#
#######################################################################
#
# If this CIF has been generated from an entry in the Cambridge 
# Structural Database, then it will include bibliographic, chemical, 
# crystal, experimental, refinement or atomic coordinate data resulting 
# from the CCDC's data processing and validation procedures.
#
#######################################################################

data_BADHEV
_symmetry_cell_setting           triclinic
_symmetry_space_group_name_H-M   'P -1'
_symmetry_Int_Tables_number      2
_space_group_name_Hall           '-P 1'
loop_
_symmetry_equiv_pos_site_id
_symmetry_equiv_pos_as_xyz
1 x,y,z
2 -x,-y,-z
_cell_length_a                   7.0447(8)
_cell_length_b                   13.5017(15)
_cell_length_c                   13.9819(16)
_cell_angle_alpha                65.005(6)
_cell_angle_beta                 88.326(6)
_cell_angle_gamma                89.161(6)
_cell_volume                     1204.82
loop_
_atom_site_label
_atom_site_type_symbol
_atom_site_fract_x
_atom_site_fract_y
_atom_site_fract_z
C1 C 0.7763(3) 0.54651(18) 0.53538(17)
C2 C 0.7406(3) 0.47496(19) 0.40133(18)
C3 C 0.6668(3) 0.37763(18) 0.48441(18)
H1 H 0.6257 0.3201 0.4703
C4 C 0.6576(3) 0.37059(17) 0.58351(17)
C5 C 0.5738(3) 0.27103(18) 0.67366(18)
C6 C 0.8005(5) 0.5162(3) 0.8862(2)
H2 H 0.6909 0.5632 0.8778
H3 H 0.9046 0.5451 0.9105
C7 C 0.7554(5) 0.4031(3) 0.9649(2)
H4 H 0.8711 0.3602 0.9847
H5 H 0.6973 0.4051 1.0279
C8 C 0.4222(5) 0.3729(3) 0.9322(3)
H6 H 0.3472 0.3376 0.8995
H7 H 0.3974 0.4501 0.9001
H8 H 0.3898 0.3440 1.0062
C9 C 1.2950(3) -0.04184(18) 0.97305(18)
C10 C 1.2129(4) 0.0341(2) 1.10118(19)
C11 C 1.1387(3) 0.12701(19) 1.01475(18)
H9 H 1.0822 0.1842 1.0257
C12 C 1.1521(3) 0.13028(17) 0.91711(17)
C13 C 1.0700(3) 0.22505(18) 0.82305(18)
C14 C 1.3910(7) -0.0192(3) 0.6264(3)
H10 H 1.5048 0.0221 0.5933
H11 H 1.4036 -0.0904 0.6254
C15 C 1.2341(7) 0.0347(4) 0.5669(3)
H12 H 1.1342 -0.0182 0.5788
H13 H 1.2705 0.0648 0.4926
C16 C 0.9580(5) 0.1418(3) 0.5661(3)
H14 H 0.9105 0.1999 0.5826
H15 H 0.8877 0.0762 0.6066
H16 H 0.9438 0.1614 0.4922
N1 N 0.7150(3) 0.44993(15) 0.61233(15)
N2 N 0.7913(3) 0.55392(16) 0.43357(16)
N3 N 0.8533(4) 0.51409(19) 0.78479(19)
N4 N 0.6245(3) 0.35318(18) 0.91831(17)
N5 N 1.1582(3) 0.12326(18) 0.59178(17)
N6 N 1.2849(3) -0.04569(16) 1.07389(16)
N7 N 1.2310(3) 0.05111(15) 0.89292(15)
N8 N 1.3781(4) -0.03350(19) 0.73512(19)
O1 O 0.5033(3) 0.19892(14) 0.65438(14)
O2 O 0.5830(3) 0.27037(14) 0.76471(13)
O3 O 0.7578(3) 0.49167(16) 0.30747(14)
O4 O 0.8169(3) 0.62652(13) 0.55200(14)
O5 O 1.0959(3) 0.22155(14) 0.73424(13)
O6 O 0.9846(3) 0.29734(14) 0.83790(14)
O7 O 1.2140(3) 0.02260(17) 1.19391(15)
O8 O 1.3599(3) -0.12034(13) 0.95986(14)
Cu1 Cu 0.70672(4) 0.39818(2) 0.76742(2)
Cu2 Cu 1.23015(4) 0.09075(2) 0.74029(2)
H17 H 0.826(5) 0.609(3) 0.389(3)
H18 H 0.962(7) 0.490(3) 0.786(3)
H19 H 0.847(5) 0.570(3) 0.743(3)
H20 H 0.644(5) 0.287(3) 0.948(3)
H21 H 1.219(6) 0.168(4) 0.561(4)
H22 H 1.324(5) -0.104(3) 1.122(3)
H23 H 1.324(5) -0.091(3) 0.773(3)
H24 H 1.502(6) -0.031(3) 0.759(3)
O1_2 O 1.5033(3) 0.19892(14) 0.65438(14)
Cu2_2 Cu 0.23015(4) 0.09075(2) 0.74029(2)
O9 O -0.0648(5) -0.1971(3) 0.7579(3)
H25 H -0.101(8) -0.156(4) 0.774(4)
H26 H -0.160(8) -0.213(4) 0.732(4)
O10 O 0.2806(5) 0.6801(3) 0.7521(3)
H27 H 0.189(10) 0.722(6) 0.745(5)
H28 H 0.254(7) 0.634(4) 0.729(4)
O11 O 0.6406(5) 0.7397(2) 0.6595(3)
H29 H 0.517(8) 0.720(4) 0.697(4)
H30 H 0.657(7) 0.705(4) 0.627(4)
loop_
_geom_bond_atom_site_label_1
_geom_bond_atom_site_label_2
_geom_bond_site_symmetry_1
_geom_bond_site_symmetry_2
C1 N1 1_555 1_555
C2 C3 1_555 1_555
C3 H1 1_555 1_555
C4 C3 1_555 1_555
C5 C4 1_555 1_555
C6 H2 1_555 1_555
H3 C6 1_555 1_555
C7 C6 1_555 1_555
H4 C7 1_555 1_555
H5 C7 1_555 1_555
C8 H6 1_555 1_555
H7 C8 1_555 1_555
H8 C8 1_555 1_555
C9 N6 1_555 1_555
C10 C11 1_555 1_555
C11 H9 1_555 1_555
C12 C11 1_555 1_555
C13 C12 1_555 1_555
C14 H10 1_555 1_555
H11 C14 1_555 1_555
C15 C14 1_555 1_555
H12 C15 1_555 1_555
H13 C15 1_555 1_555
C16 H14 1_555 1_555
H15 C16 1_555 1_555
H16 C16 1_555 1_555
N1 C4 1_555 1_555
N2 C1 1_555 1_555
N3 C6 1_555 1_555
N4 C7 1_555 1_555
N5 C15 1_555 1_555
N6 C10 1_555 1_555
N7 C9 1_555 1_555
N8 C14 1_555 1_555
O1 C5 1_555 1_555
O2 C5 1_555 1_555
O3 C2 1_555 1_555
O4 C1 1_555 1_555
O5 C13 1_555 1_555
O6 C13 1_555 1_555
O7 C10 1_555 1_555
O8 C9 1_555 1_555
Cu1 N1 1_555 1_555
Cu2 N5 1_555 1_555
H17 N2 1_555 1_555
H18 N3 1_555 1_555
H19 N3 1_555 1_555
H20 N4 1_555 1_555
H21 N5 1_555 1_555
H22 N6 1_555 1_555
H23 N8 1_555 1_555
H24 N8 1_555 1_555
O9 H25 1_555 1_555
H26 O9 1_555 1_555
O10 H27 1_555 1_555
H28 O10 1_555 1_555
O11 H29 1_555 1_555
H30 O11 1_555 1_555
O1_2 Cu2 1_555 1_555
Cu2_2 O1 1_555 1_555
C2 N2 1_555 1_555
C8 N4 1_555 1_555
C12 N7 1_555 1_555
C16 N5 1_555 1_555
N3 Cu1 1_555 1_555
N4 Cu1 1_555 1_555
N7 Cu2 1_555 1_555
N8 Cu2 1_555 1_555
O2 Cu1 1_555 1_555
O5 Cu2 1_555 1_555
O6 Cu1 1_555 1_555

#END
