
#######################################################################
#
#                 Cambridge Crystallographic Data Centre
#                                CCDC 
#
#######################################################################
#
# If this CIF has been generated from an entry in the Cambridge 
# Structural Database, then it will include bibliographic, chemical, 
# crystal, experimental, refinement or atomic coordinate data resulting 
# from the CCDC's data processing and validation procedures.
#
#######################################################################

data_BADXEJ02
_symmetry_cell_setting           monoclinic
_symmetry_space_group_name_H-M   'P 21/m'
_symmetry_Int_Tables_number      11
_space_group_name_Hall           '-P 2yb'
loop_
_symmetry_equiv_pos_site_id
_symmetry_equiv_pos_as_xyz
1 x,y,z
2 -x,1/2+y,-z
3 -x,-y,-z
4 x,1/2-y,z
_cell_length_a                   3.8773(8)
_cell_length_b                   12.384(2)
_cell_length_c                   7.0277(16)
_cell_angle_alpha                90
_cell_angle_beta                 90.270(9)
_cell_angle_gamma                90
_cell_volume                     337.442
loop_
_atom_site_label
_atom_site_type_symbol
_atom_site_fract_x
_atom_site_fract_y
_atom_site_fract_z
Cu1 Cu 0.5000 0.5000 0.5000
Cl1 Cl 0.86798(17) 0.54919(5) 0.73453(10)
N1 N 0.5244(6) 0.65309(18) 0.3778(3)
N2 N 0.3479(10) 0.7500 0.6415(5)
H1 H 0.267(17) 0.691(3) 0.683(10)
C1 C 0.4673(10) 0.7500 0.4647(6)
C2 C 0.6206(7) 0.6551(2) 0.1946(4)
H2 H 0.6556 0.5885 0.1304
C3 C 0.6705(11) 0.7500 0.0962(6)
H3 H 0.7365 0.7500 -0.0339
N1C N 0.5244(6) 0.84691(18) 0.3778(3)
H1C H 0.267(17) 0.809(3) 0.683(10)
C2C C 0.6206(7) 0.8449(2) 0.1946(4)
H2C H 0.6556 0.9115 0.1304
Cl1B Cl 0.13202(17) 0.45081(5) 0.26547(10)
Cu1A Cu 0.5000 1.0000 0.5000
N1B N 0.4756(6) 0.34691(18) 0.6222(3)
loop_
_geom_bond_atom_site_label_1
_geom_bond_atom_site_label_2
_geom_bond_site_symmetry_1
_geom_bond_site_symmetry_2
Cu1 Cl1 1_555 1_555
N1 Cu1 1_555 1_555
N2 H1 1_555 1_555
C1 N1 1_555 1_555
C2 N1 1_555 1_555
H2 C2 1_555 1_555
C3 C2 1_555 1_555
H3 C3 1_555 1_555
N1C C1 1_555 1_555
H1C N2 1_555 1_555
C2C C3 1_555 1_555
H2C C2C 1_555 1_555
Cl1B Cu1 1_555 1_555
Cu1A N1C 1_555 1_555
N1B Cu1 1_555 1_555
N2 C1 1_555 1_555
N1C C2C 1_555 1_555

#END
