
#######################################################################
#
#                 Cambridge Crystallographic Data Centre
#                                CCDC 
#
#######################################################################
#
# If this CIF has been generated from an entry in the Cambridge 
# Structural Database, then it will include bibliographic, chemical, 
# crystal, experimental, refinement or atomic coordinate data resulting 
# from the CCDC's data processing and validation procedures.
#
#######################################################################

data_BAFCOB
_symmetry_cell_setting           orthorhombic
_symmetry_space_group_name_H-M   'P n a 21'
_symmetry_Int_Tables_number      33
_space_group_name_Hall           'P 2c -2n'
loop_
_symmetry_equiv_pos_site_id
_symmetry_equiv_pos_as_xyz
1 x,y,z
2 -x,-y,1/2+z
3 1/2-x,1/2+y,1/2+z
4 1/2+x,1/2-y,z
_cell_length_a                   15.08(2)
_cell_length_b                   9.895(14)
_cell_length_c                   8.700(14)
_cell_angle_alpha                90
_cell_angle_beta                 90
_cell_angle_gamma                90
_cell_volume                     1298.18
loop_
_atom_site_label
_atom_site_type_symbol
_atom_site_fract_x
_atom_site_fract_y
_atom_site_fract_z
Cu1 Cu 0.73333(8) 0.23546(14) 0.2496(2)
C1 C 0.6881(7) -0.0186(13) 0.3848(13)
N1 N 0.7486(5) 0.0766(11) 0.3730(11)
C2 C 0.8248(6) 0.0653(10) 0.4647(10)
C3 C 0.8920(8) 0.1624(15) 0.4546(13)
H1 H 0.8871 0.2338 0.3855
C4 C 0.9653(8) 0.1512(14) 0.5478(15)
H2 H 1.0094 0.2168 0.5443
C5 C 0.9735(7) 0.0413(17) 0.6479(16)
H3 H 1.0249 0.0327 0.7063
C6 C 0.9094(7) -0.0522(14) 0.6620(15)
H4 H 0.9163 -0.1225 0.7319
C7 C 0.8323(7) -0.0452(10) 0.5729(10)
N2 N 0.7629(6) -0.1351(11) 0.5894(10)
C8 C 0.6090(9) -0.0101(17) 0.2828(17)
H5 H 0.6032 -0.0927 0.2257
H6 H 0.6160 0.0642 0.2129
H7 H 0.5568 0.0035 0.3441
C9 C 0.6957(6) -0.1293(12) 0.4919(12)
C10 C 0.6221(10) -0.2319(15) 0.506(2)
H8 H 0.6091 -0.2687 0.4060
H9 H 0.5700 -0.1890 0.5463
H10 H 0.6404 -0.3033 0.5733
O1 O 0.7068(8) 0.3680(15) 0.4629(13)
N2B N 0.7371(6) 0.3649(11) 0.0894(10)
Cu1B Cu 0.76667(8) -0.26454(14) 0.7496(2)
B1 B 0.6401(11) 0.143(3) 0.806(2)
F1 F 0.6043(8) 0.0745(15) 0.6845(16)
F2 F 0.6982(18) 0.079(2) 0.892(3)
F3 F 0.5837(8) 0.2066(18) 0.888(2)
F4 F 0.6952(17) 0.227(3) 0.740(3)
loop_
_geom_bond_atom_site_label_1
_geom_bond_atom_site_label_2
_geom_bond_site_symmetry_1
_geom_bond_site_symmetry_2
Cu1 N1 1_555 1_555
C1 N1 1_555 1_555
N1 C2 1_555 1_555
C2 C3 1_555 1_555
C3 H1 1_555 1_555
C4 C3 1_555 1_555
H2 C4 1_555 1_555
C5 C4 1_555 1_555
H3 C5 1_555 1_555
C6 C5 1_555 1_555
H4 C6 1_555 1_555
C7 C2 1_555 1_555
N2 C7 1_555 1_555
C8 C1 1_555 1_555
H5 C8 1_555 1_555
H6 C8 1_555 1_555
H7 C8 1_555 1_555
C9 C1 1_555 1_555
C10 C9 1_555 1_555
H8 C10 1_555 1_555
H9 C10 1_555 1_555
H10 C10 1_555 1_555
O1 Cu1 1_555 1_555
B1 F1 1_555 1_555
F2 B1 1_555 1_555
F3 B1 1_555 1_555
F4 B1 1_555 1_555
N2B Cu1 1_555 1_555
Cu1B N2 1_555 1_555
C6 C7 1_555 1_555
N2 C9 1_555 1_555

#END
