
#######################################################################
#
#                 Cambridge Crystallographic Data Centre
#                                CCDC 
#
#######################################################################
#
# If this CIF has been generated from an entry in the Cambridge 
# Structural Database, then it will include bibliographic, chemical, 
# crystal, experimental, refinement or atomic coordinate data resulting 
# from the CCDC's data processing and validation procedures.
#
#######################################################################

data_BAFCUI
_symmetry_cell_setting           monoclinic
_symmetry_space_group_name_H-M   'P 21/n'
_symmetry_Int_Tables_number      14
_space_group_name_Hall           '-P 2yn'
loop_
_symmetry_equiv_pos_site_id
_symmetry_equiv_pos_as_xyz
1 x,y,z
2 1/2-x,1/2+y,1/2-z
3 -x,-y,-z
4 1/2+x,1/2-y,1/2+z
_cell_length_a                   14.9761(10)
_cell_length_b                   24.2529(16)
_cell_length_c                   25.2135(18)
_cell_angle_alpha                90
_cell_angle_beta                 100.939(1)
_cell_angle_gamma                90
_cell_volume                     8991.49
loop_
_atom_site_label
_atom_site_type_symbol
_atom_site_fract_x
_atom_site_fract_y
_atom_site_fract_z
Co1 Co 0.13533(3) 0.770428(15) 0.191798(15)
Co2 Co -0.11528(2) 0.728496(15) 0.133803(15)
Co3 Co 0.22297(3) 0.770410(16) 0.091955(15)
Co4 Co 0.07909(3) 0.682064(16) 0.061399(15)
Co5 Co -0.03035(3) 0.668762(16) 0.249272(16)
Co6 Co -0.00890(3) 0.822707(16) 0.083899(16)
Co7 Co -0.09137(3) 0.597544(16) 0.133885(16)
Li1 Li 0.4098(4) 0.7518(2) 0.0943(2)
Li2 Li -0.2896(4) 0.7108(3) 0.1387(3)
N1 N 0.05371(17) 0.90001(10) 0.11950(11)
N2 N 0.02543(17) 0.83278(10) 0.00576(10)
N3 N 0.06902(16) 0.83101(10) 0.23116(10)
N4 N 0.01790(17) 0.54476(10) 0.14862(10)
N5 N 0.09001(17) 0.64479(11) 0.29845(10)
N6 N -0.03596(16) 0.68141(10) -0.00035(10)
N7 N -0.17530(17) 0.59352(10) 0.06013(10)
N8 N -0.09692(18) 0.73209(11) 0.27956(10)
N9 N 0.55114(18) 0.68576(11) 0.13365(10)
O1 O 0.15306(13) 0.71257(8) 0.13413(7)
H1 H 0.1969 0.6838 0.1514
O2 O -0.03236(13) 0.66558(8) 0.16953(7)
H2 H 0.0305 0.6698 0.1620
O3 O 0.27095(13) 0.78319(9) 0.22355(8)
O4 O 0.33881(13) 0.77363(8) 0.15268(8)
O5 O 0.29649(13) 0.71169(8) 0.05835(8)
O6 O 0.18866(13) 0.64759(8) 0.03443(8)
O7 O 0.26280(14) 0.83470(9) 0.05177(9)
O8 O 0.40892(15) 0.81799(10) 0.05247(10)
O9 O -0.14121(13) 0.84969(8) 0.07169(8)
O10 O -0.21604(13) 0.78436(8) 0.10772(8)
O11 O -0.11265(15) 0.60751(10) 0.26021(9)
O12 O -0.17994(14) 0.57297(9) 0.18040(9)
O13 O 0.13620(13) 0.82368(8) 0.12405(8)
O14 O 0.11210(13) 0.75715(8) 0.03154(8)
O15 O -0.01769(13) 0.78827(8) 0.16193(7)
O16 O 0.03500(13) 0.61051(8) 0.08994(8)
O17 O 0.10315(13) 0.71596(8) 0.24607(8)
O18 O -0.05043(13) 0.73871(8) 0.06717(7)
O19 O -0.21407(14) 0.66990(8) 0.10036(8)
O20 O -0.18704(13) 0.71622(8) 0.19804(8)
O21 O 0.61154(16) 0.65309(11) 0.15308(11)
O22 O 0.5738(2) 0.73228(10) 0.11870(12)
O23 O 0.47009(16) 0.67499(12) 0.12803(11)
C1 C 0.3402(2) 0.78226(12) 0.20181(12)
C2 C 0.4335(2) 0.79258(14) 0.23823(13)
C3 C 0.4229(2) 0.82039(17) 0.29080(14)
H3 H 0.4830 0.8264 0.3133
H4 H 0.3866 0.7968 0.3101
H5 H 0.3921 0.8559 0.2828
C4 C 0.4916(2) 0.82808(15) 0.20824(15)
H6 H 0.5510 0.8346 0.2315
H7 H 0.4611 0.8634 0.1987
H8 H 0.5001 0.8090 0.1753
C5 C 0.4795(2) 0.73603(15) 0.25155(15)
H9 H 0.5392 0.7413 0.2748
H10 H 0.4872 0.7178 0.2180
H11 H 0.4415 0.7131 0.2703
C6 C 0.2651(2) 0.66842(12) 0.03329(12)
C7 C 0.3246(2) 0.63775(13) -0.00053(12)
C8 C 0.4066(2) 0.67273(15) -0.00818(14)
H12 H 0.4432 0.6521 -0.0298
H13 H 0.4438 0.6813 0.0272
H14 H 0.3852 0.7071 -0.0268
C9 C 0.3564(3) 0.58428(15) 0.02896(15)
H15 H 0.3948 0.5638 0.0084
H16 H 0.3035 0.5619 0.0325
H17 H 0.3914 0.5929 0.0649
C10 C 0.2661(2) 0.62464(16) -0.05578(13)
H18 H 0.3029 0.6051 -0.0780
H19 H 0.2431 0.6590 -0.0737
H20 H 0.2147 0.6014 -0.0509
C11 C 0.3370(3) 0.84522(17) 0.03827(17)
C12 C 0.3391(3) 0.89599(18) 0.00206(19)
C13 C 0.2482(3) 0.92533(18) -0.0103(2)
H21 H 0.2334 0.9400 0.0232
H22 H 0.2009 0.8993 -0.0267
H23 H 0.2515 0.9557 -0.0355
C14 C 0.4139(3) 0.93405(19) 0.0277(2)
H24 H 0.4003 0.9485 0.0616
H25 H 0.4187 0.9647 0.0031
H26 H 0.4716 0.9138 0.0352
C15 C 0.3624(3) 0.8737(2) -0.0519(2)
H27 H 0.3646 0.9046 -0.0767
H28 H 0.3155 0.8475 -0.0684
H29 H 0.4216 0.8552 -0.0444
C16 C -0.2124(2) 0.82921(12) 0.08270(12)
C17 C -0.3038(2) 0.85960(14) 0.06497(14)
C18 C -0.3459(2) 0.86758(15) 0.11521(16)
H30 H -0.4042 0.8869 0.1052
H31 H -0.3046 0.8895 0.1420
H32 H -0.3558 0.8315 0.1307
C19 C -0.3654(2) 0.82271(16) 0.02424(16)
H33 H -0.4241 0.8410 0.0122
H34 H -0.3750 0.7875 0.0414
H35 H -0.3366 0.8160 -0.0070
C20 C -0.2911(3) 0.91506(17) 0.0399(2)
H36 H -0.3503 0.9331 0.0292
H37 H -0.2635 0.9098 0.0080
H38 H -0.2513 0.9382 0.0662
C21 C -0.1752(2) 0.58138(12) 0.23008(13)
C22 C -0.2485(2) 0.55699(14) 0.25848(14)
C23 C -0.2902(3) 0.60458(17) 0.28583(17)
H39 H -0.3373 0.5901 0.3042
H40 H -0.3173 0.6315 0.2585
H41 H -0.2426 0.6225 0.3122
C24 C -0.3232(3) 0.52853(15) 0.21836(16)
H42 H -0.3689 0.5135 0.2376
H43 H -0.2968 0.4985 0.2004
H44 H -0.3521 0.5553 0.1913
C25 C -0.2032(3) 0.51608(18) 0.30095(17)
H45 H -0.2490 0.5002 0.3195
H46 H -0.1568 0.5351 0.3272
H47 H -0.1746 0.4866 0.2835
C26 C 0.1373(2) 0.87794(12) 0.13252(12)
C27 C 0.2141(2) 0.90880(13) 0.15325(14)
H48 H 0.2729 0.8925 0.1602
C28 C 0.2020(2) 0.96342(14) 0.16327(15)
H49 H 0.2530 0.9859 0.1773
C29 C 0.1159(3) 0.98592(14) 0.15296(15)
H50 H 0.1073 1.0236 0.1608
C30 C 0.0424(2) 0.95373(13) 0.13130(13)
C31 C -0.0530(2) 0.97541(14) 0.11981(17)
H51 H -0.0947 0.9459 0.1045
H52 H -0.0572 1.0059 0.0940
H53 H -0.0694 0.9886 0.1535
C32 C 0.0782(2) 0.79160(13) -0.00682(12)
C33 C 0.0968(2) 0.78544(15) -0.05887(13)
H54 H 0.1324 0.7553 -0.0671
C34 C 0.0633(3) 0.82319(16) -0.09752(14)
H55 H 0.0745 0.8194 -0.1332
C35 C 0.0134(2) 0.86676(15) -0.08436(14)
H56 H -0.0083 0.8940 -0.1108
C36 C -0.0057(2) 0.87148(13) -0.03334(13)
C37 C -0.0561(3) 0.91920(16) -0.01662(17)
H57 H -0.0626 0.9145 0.0211
H58 H -0.1165 0.9213 -0.0397
H59 H -0.0225 0.9533 -0.0202
C38 C -0.0150(2) 0.82462(11) 0.20200(12)
C39 C -0.0896(2) 0.85282(14) 0.21361(13)
H60 H -0.1486 0.8479 0.1923
C40 C -0.0751(3) 0.88794(15) 0.25680(15)
H61 H -0.1248 0.9077 0.2660
C41 C 0.0117(3) 0.89516(15) 0.28745(15)
H62 H 0.0217 0.9197 0.3174
C42 C 0.0825(2) 0.86612(13) 0.27354(13)
C43 C 0.1787(2) 0.86944(17) 0.30438(15)
H63 H 0.2178 0.8456 0.2872
H64 H 0.1808 0.8572 0.3417
H65 H 0.2002 0.9076 0.3044
C44 C 0.0738(2) 0.56987(12) 0.11922(11)
C45 C 0.1624(2) 0.55099(13) 0.12130(13)
H66 H 0.2008 0.5678 0.1000
C46 C 0.1930(2) 0.50752(14) 0.15486(15)
H67 H 0.2537 0.4947 0.1576
C47 C 0.1354(3) 0.48226(15) 0.18481(15)
H68 H 0.1562 0.4520 0.2077
C48 C 0.0487(2) 0.50135(13) 0.18100(14)
C49 C -0.0191(3) 0.47624(16) 0.21115(18)
H69 H -0.0767 0.4964 0.2024
H70 H 0.0045 0.4785 0.2501
H71 H -0.0292 0.4375 0.2006
C50 C 0.1452(2) 0.68316(12) 0.28309(11)
C51 C 0.2369(2) 0.68695(15) 0.30846(13)
H72 H 0.2756 0.7141 0.2978
C52 C 0.2690(3) 0.65059(17) 0.34894(15)
H73 H 0.3309 0.6523 0.3666
C53 C 0.2119(3) 0.61112(16) 0.36450(15)
H74 H 0.2346 0.5857 0.3925
C54 C 0.1228(2) 0.60906(15) 0.33934(14)
C55 C 0.0558(3) 0.56827(19) 0.35415(18)
H75 H 0.0863 0.5449 0.3839
H76 H 0.0319 0.5452 0.3228
H77 H 0.0056 0.5881 0.3655
C56 C -0.08468(19) 0.72207(12) 0.01715(11)
C57 C -0.1614(2) 0.74351(14) -0.01617(13)
H78 H -0.1938 0.7734 -0.0046
C58 C -0.1890(2) 0.72047(15) -0.06610(13)
H79 H -0.2411 0.7346 -0.0896
C59 C -0.1412(2) 0.67648(14) -0.08263(13)
H80 H -0.1619 0.6592 -0.1165
C60 C -0.0637(2) 0.65858(13) -0.04909(12)
C61 C -0.0062(3) 0.61287(16) -0.06394(14)
H81 H 0.0456 0.6067 -0.0344
H82 H 0.0162 0.6229 -0.0968
H83 H -0.0425 0.5791 -0.0704
C62 C -0.2314(2) 0.63756(12) 0.05857(12)
C63 C -0.3147(2) 0.60875(14) -0.02693(13)
H84 H -0.3632 0.6136 -0.0569
C64 C -0.2556(2) 0.56437(14) -0.02589(13)
H85 H -0.2628 0.5390 -0.0551
C65 C -0.1869(2) 0.55786(13) 0.01792(13)
C66 C -0.1193(3) 0.51094(14) 0.02353(15)
H86 H -0.0762 0.5145 0.0578
H87 H -0.0863 0.5121 -0.0065
H88 H -0.1518 0.4758 0.0229
C67 C -0.1773(2) 0.73961(13) 0.24496(12)
C68 C -0.2470(2) 0.77165(16) 0.26073(14)
H89 H -0.3046 0.7753 0.2375
C69 C -0.2301(3) 0.7969(2) 0.30940(16)
H90 H -0.2760 0.8189 0.3203
C70 C -0.1464(3) 0.7911(2) 0.34363(16)
H91 H -0.1343 0.8096 0.3775
C71 C -0.0814(3) 0.75848(17) 0.32797(14)
C72 C 0.0110(3) 0.7495(2) 0.36332(15)
H92 H 0.0472 0.7251 0.3448
H93 H 0.0034 0.7327 0.3975
H94 H 0.0421 0.7851 0.3705
C73 C -0.3033(2) 0.64539(13) 0.01504(13)
H95 H -0.3436 0.6757 0.0146
Li2_2 Li 0.7104(4) 0.7108(3) 0.1387(3)
O21_2 O -0.38846(16) 0.65309(11) 0.15308(11)
O22_2 O -0.4262(2) 0.73228(10) 0.11870(12)
N10 N 0.2966(2) 0.63910(15) 0.19203(15)
C74 C 0.3581(3) 0.61184(17) 0.20155(18)
C75 C 0.4378(3) 0.5761(2) 0.2127(2)
H96 H 0.4753 0.5861 0.2475
H97 H 0.4734 0.5805 0.1841
H98 H 0.4182 0.5376 0.2139
N11 N -0.5089(4) 0.4677(2) 0.09702(17)
C76 C -0.4581(3) 0.49741(18) 0.08730(16)
C77 C -0.3953(3) 0.5359(2) 0.07298(19)
H99 H -0.3336 0.5263 0.0914
H100 H -0.4104 0.5730 0.0839
H101 H -0.3985 0.5350 0.0338
loop_
_geom_bond_atom_site_label_1
_geom_bond_atom_site_label_2
_geom_bond_site_symmetry_1
_geom_bond_site_symmetry_2
Co1 N3 1_555 1_555
Co2 O2 1_555 1_555
Co3 O1 1_555 1_555
Co4 N6 1_555 1_555
Co5 N5 1_555 1_555
Co6 N1 1_555 1_555
Co7 N4 1_555 1_555
Li1 O4 1_555 1_555
Li2 O10 1_555 1_555
N1 C26 1_555 1_555
N2 Co6 1_555 1_555
N3 C38 1_555 1_555
N4 C44 1_555 1_555
N5 C50 1_555 1_555
N6 C56 1_555 1_555
N7 Co7 1_555 1_555
N8 Co5 1_555 1_555
N9 O21 1_555 1_555
O1 Co1 1_555 1_555
H1 O1 1_555 1_555
O2 Co5 1_555 1_555
H2 O2 1_555 1_555
O3 Co1 1_555 1_555
O4 Co3 1_555 1_555
O5 Co3 1_555 1_555
O6 Co4 1_555 1_555
O7 Co3 1_555 1_555
O8 Li1 1_555 1_555
O9 Co6 1_555 1_555
O10 Co2 1_555 1_555
O11 Co5 1_555 1_555
O12 Co7 1_555 1_555
O13 Co1 1_555 1_555
O14 Co3 1_555 1_555
O15 Co1 1_555 1_555
O16 Co4 1_555 1_555
O17 Co1 1_555 1_555
O18 Co2 1_555 1_555
O19 Co2 1_555 1_555
O20 Co2 1_555 1_555
O21 Li2_2 1_555 1_555
O22 Li1 1_555 1_555
O23 Li1 1_555 1_555
C1 O3 1_555 1_555
C2 C1 1_555 1_555
C3 C2 1_555 1_555
H3 C3 1_555 1_555
H4 C3 1_555 1_555
H5 C3 1_555 1_555
C4 C2 1_555 1_555
H6 C4 1_555 1_555
H7 C4 1_555 1_555
H8 C4 1_555 1_555
C5 C2 1_555 1_555
H9 C5 1_555 1_555
H10 C5 1_555 1_555
H11 C5 1_555 1_555
C6 O5 1_555 1_555
C7 C6 1_555 1_555
C8 C7 1_555 1_555
H12 C8 1_555 1_555
H13 C8 1_555 1_555
H14 C8 1_555 1_555
C9 C7 1_555 1_555
H15 C9 1_555 1_555
H16 C9 1_555 1_555
H17 C9 1_555 1_555
C10 C7 1_555 1_555
H18 C10 1_555 1_555
H19 C10 1_555 1_555
H20 C10 1_555 1_555
C11 O7 1_555 1_555
C12 C11 1_555 1_555
C13 C12 1_555 1_555
H21 C13 1_555 1_555
H22 C13 1_555 1_555
H23 C13 1_555 1_555
C14 C12 1_555 1_555
H24 C14 1_555 1_555
H25 C14 1_555 1_555
H26 C14 1_555 1_555
C15 C12 1_555 1_555
H27 C15 1_555 1_555
H28 C15 1_555 1_555
H29 C15 1_555 1_555
C16 O9 1_555 1_555
C17 C16 1_555 1_555
C18 C17 1_555 1_555
H30 C18 1_555 1_555
H31 C18 1_555 1_555
H32 C18 1_555 1_555
C19 C17 1_555 1_555
H33 C19 1_555 1_555
H34 C19 1_555 1_555
H35 C19 1_555 1_555
C20 C17 1_555 1_555
H36 C20 1_555 1_555
H37 C20 1_555 1_555
H38 C20 1_555 1_555
C21 O11 1_555 1_555
C22 C21 1_555 1_555
C23 C22 1_555 1_555
H39 C23 1_555 1_555
H40 C23 1_555 1_555
H41 C23 1_555 1_555
C24 C22 1_555 1_555
H42 C24 1_555 1_555
H43 C24 1_555 1_555
H44 C24 1_555 1_555
C25 C22 1_555 1_555
H45 C25 1_555 1_555
H46 C25 1_555 1_555
H47 C25 1_555 1_555
C26 O13 1_555 1_555
C27 C26 1_555 1_555
H48 C27 1_555 1_555
C28 C27 1_555 1_555
H49 C28 1_555 1_555
C29 C28 1_555 1_555
H50 C29 1_555 1_555
C30 N1 1_555 1_555
C31 C30 1_555 1_555
H51 C31 1_555 1_555
H52 C31 1_555 1_555
H53 C31 1_555 1_555
C32 N2 1_555 1_555
C33 C32 1_555 1_555
H54 C33 1_555 1_555
C34 C33 1_555 1_555
H55 C34 1_555 1_555
C35 C34 1_555 1_555
H56 C35 1_555 1_555
C36 N2 1_555 1_555
C37 C36 1_555 1_555
H57 C37 1_555 1_555
H58 C37 1_555 1_555
H59 C37 1_555 1_555
C38 O15 1_555 1_555
C39 C38 1_555 1_555
H60 C39 1_555 1_555
C40 C39 1_555 1_555
H61 C40 1_555 1_555
C41 C40 1_555 1_555
H62 C41 1_555 1_555
C42 N3 1_555 1_555
C43 C42 1_555 1_555
H63 C43 1_555 1_555
H64 C43 1_555 1_555
H65 C43 1_555 1_555
C44 O16 1_555 1_555
C45 C44 1_555 1_555
H66 C45 1_555 1_555
C46 C45 1_555 1_555
H67 C46 1_555 1_555
C47 C46 1_555 1_555
H68 C47 1_555 1_555
C48 N4 1_555 1_555
C49 C48 1_555 1_555
H69 C49 1_555 1_555
H70 C49 1_555 1_555
H71 C49 1_555 1_555
C50 O17 1_555 1_555
C51 C50 1_555 1_555
H72 C51 1_555 1_555
C52 C51 1_555 1_555
H73 C52 1_555 1_555
C53 C52 1_555 1_555
H74 C53 1_555 1_555
C54 N5 1_555 1_555
C55 C54 1_555 1_555
H75 C55 1_555 1_555
H76 C55 1_555 1_555
H77 C55 1_555 1_555
C56 O18 1_555 1_555
C57 C56 1_555 1_555
H78 C57 1_555 1_555
C58 C57 1_555 1_555
H79 C58 1_555 1_555
C59 C58 1_555 1_555
H80 C59 1_555 1_555
C60 N6 1_555 1_555
C61 C60 1_555 1_555
H81 C61 1_555 1_555
H82 C61 1_555 1_555
H83 C61 1_555 1_555
C62 N7 1_555 1_555
C63 H84 1_555 1_555
C64 C63 1_555 1_555
H85 C64 1_555 1_555
C65 N7 1_555 1_555
C66 C65 1_555 1_555
H86 C66 1_555 1_555
H87 C66 1_555 1_555
H88 C66 1_555 1_555
C67 N8 1_555 1_555
C68 C67 1_555 1_555
H89 C68 1_555 1_555
C69 C68 1_555 1_555
H90 C69 1_555 1_555
C70 C69 1_555 1_555
H91 C70 1_555 1_555
C71 N8 1_555 1_555
C72 C71 1_555 1_555
H92 C72 1_555 1_555
H93 C72 1_555 1_555
H94 C72 1_555 1_555
C73 C62 1_555 1_555
H95 C73 1_555 1_555
N10 C74 1_555 1_555
N11 C76 1_555 1_555
C74 C75 1_555 1_555
C75 H96 1_555 1_555
H97 C75 1_555 1_555
H98 C75 1_555 1_555
C76 C77 1_555 1_555
C77 H99 1_555 1_555
H100 C77 1_555 1_555
H101 C77 1_555 1_555
Li2_2 O22 1_555 1_555
O21_2 Li2 1_555 1_555
O22_2 Li2 1_555 1_555
Co2 O15 1_555 1_555
Co3 O13 1_555 1_555
Co4 O1 1_555 1_555
Co4 O14 1_555 1_555
Co4 O18 1_555 1_555
Co5 O17 1_555 1_555
Co6 O13 1_555 1_555
Co6 O15 1_555 1_555
Co6 O18 1_555 1_555
Co7 O2 1_555 1_555
Co7 O16 1_555 1_555
Li1 O5 1_555 1_555
Li2 O19 1_555 1_555
Li2 O20 1_555 1_555
N9 O22 1_555 1_555
N9 O23 1_555 1_555
O4 C1 1_555 1_555
O6 C6 1_555 1_555
O8 C11 1_555 1_555
O10 C16 1_555 1_555
O12 C21 1_555 1_555
O14 C32 1_555 1_555
O19 C62 1_555 1_555
O20 C67 1_555 1_555
C29 C30 1_555 1_555
C35 C36 1_555 1_555
C41 C42 1_555 1_555
C47 C48 1_555 1_555
C53 C54 1_555 1_555
C59 C60 1_555 1_555
C63 C73 1_555 1_555
C64 C65 1_555 1_555
C70 C71 1_555 1_555

#END
