
#######################################################################
#
#                 Cambridge Crystallographic Data Centre
#                                CCDC 
#
#######################################################################
#
# If this CIF has been generated from an entry in the Cambridge 
# Structural Database, then it will include bibliographic, chemical, 
# crystal, experimental, refinement or atomic coordinate data resulting 
# from the CCDC's data processing and validation procedures.
#
#######################################################################

data_BAFCES
_symmetry_cell_setting           orthorhombic
_symmetry_space_group_name_H-M   'P b c a'
_symmetry_Int_Tables_number      61
_space_group_name_Hall           '-P 2ac 2ab'
loop_
_symmetry_equiv_pos_site_id
_symmetry_equiv_pos_as_xyz
1 x,y,z
2 1/2-x,-y,1/2+z
3 1/2+x,1/2-y,-z
4 -x,1/2+y,1/2-z
5 -x,-y,-z
6 1/2+x,y,1/2-z
7 1/2-x,1/2+y,z
8 x,1/2-y,1/2+z
_cell_length_a                   9.2322(18)
_cell_length_b                   11.802(2)
_cell_length_c                   12.311(3)
_cell_angle_alpha                90
_cell_angle_beta                 90
_cell_angle_gamma                90
_cell_volume                     1341.39
loop_
_atom_site_label
_atom_site_type_symbol
_atom_site_fract_x
_atom_site_fract_y
_atom_site_fract_z
Cd1 Cd 0.08578(18) 0.23781(13) 0.72460(12)
O1 O 0.2171(19) 0.2980(15) 0.5540(15)
O2 O 0.025(2) 0.3344(17) 0.8791(15)
H1 H 0.0933 0.3444 0.9338
H2 H -0.0678 0.3637 0.8872
O3 O 0.1000(19) 0.4166(15) 0.6526(14)
O4 O 0.3150(16) 0.2933(13) 0.2839(13)
O5 O 0.4668(18) 0.3936(16) 0.3843(15)
O6 O 0.088(2) 0.4140(15) 0.3464(14)
H3 H 0.0274 0.4650 0.3460
C1 C 0.174(2) 0.3969(15) 0.5726(14)
C2 C 0.2207(18) 0.4915(15) 0.4977(10)
H4 H 0.3165 0.5168 0.5189
H5 H 0.1548 0.5549 0.5066
C3 C 0.2239(17) 0.4583(16) 0.3792(11)
H6 H 0.2416 0.5272 0.3369
C4 C 0.3395(18) 0.3733(16) 0.3488(15)
Cd1B Cd 0.58578(18) 0.26219(13) 0.27540(12)
Cd1G Cd 0.08578(18) 0.26219(13) 0.22460(12)
O4B O -0.1850(16) 0.2067(13) 0.7161(13)
O4G O 0.3150(16) 0.2067(13) 0.7839(13)
O5B O -0.0332(18) 0.1064(16) 0.6157(15)
O6G O 0.088(2) 0.0860(15) 0.8464(14)
H3G H 0.0274 0.0350 0.8460
loop_
_geom_bond_atom_site_label_1
_geom_bond_atom_site_label_2
_geom_bond_site_symmetry_1
_geom_bond_site_symmetry_2
Cd1 O1 1_555 1_555
O1 C1 1_555 1_555
O2 Cd1 1_555 1_555
H1 O2 1_555 1_555
H2 O2 1_555 1_555
O3 Cd1 1_555 1_555
O4 C4 1_555 1_555
O5 C4 1_555 1_555
O6 H3 1_555 1_555
C1 O3 1_555 1_555
C2 C1 1_555 1_555
H4 C2 1_555 1_555
H5 C2 1_555 1_555
C3 O6 1_555 1_555
H6 C3 1_555 1_555
C4 C3 1_555 1_555
Cd1B O4 1_555 1_555
Cd1G O4 1_555 1_555
O4B Cd1 1_555 1_555
O4G Cd1 1_555 1_555
O5B Cd1 1_555 1_555
O6G Cd1 1_555 1_555
H3G O6G 1_555 1_555
O5 Cd1B 1_555 1_555
O6 Cd1G 1_555 1_555
C2 C3 1_555 1_555

#END
