
#######################################################################
#
#                 Cambridge Crystallographic Data Centre
#                                CCDC 
#
#######################################################################
#
# If this CIF has been generated from an entry in the Cambridge 
# Structural Database, then it will include bibliographic, chemical, 
# crystal, experimental, refinement or atomic coordinate data resulting 
# from the CCDC's data processing and validation procedures.
#
#######################################################################

data_BAFSAE
_symmetry_cell_setting           monoclinic
_symmetry_space_group_name_H-M   'P 21/n'
_symmetry_Int_Tables_number      14
_space_group_name_Hall           '-P 2yn'
loop_
_symmetry_equiv_pos_site_id
_symmetry_equiv_pos_as_xyz
1 x,y,z
2 1/2-x,1/2+y,1/2-z
3 -x,-y,-z
4 1/2+x,1/2-y,1/2+z
_cell_length_a                   3.73390(10)
_cell_length_b                   19.4125(7)
_cell_length_c                   16.7908(5)
_cell_angle_alpha                90
_cell_angle_beta                 95.211(1)
_cell_angle_gamma                90
_cell_volume                     1212.04
loop_
_atom_site_label
_atom_site_type_symbol
_atom_site_fract_x
_atom_site_fract_y
_atom_site_fract_z
C1 C 0.8211(10) 0.2111(2) 0.2269(2)
H1 H 0.7421 0.2484 0.2553
C2 C 0.8927(11) 0.2212(2) 0.1473(2)
H2 H 0.8624 0.2644 0.1237
C3 C 1.0080(11) 0.1666(2) 0.1051(2)
H3 H 1.0583 0.1726 0.0523
C4 C 1.0502(9) 0.10223(19) 0.1410(2)
C5 C 1.1683(9) 0.0420(2) 0.1011(2)
H4 H 1.2209 0.0454 0.0481
C6 C 1.2046(9) -0.0189(2) 0.1384(2)
H5 H 1.2823 -0.0569 0.1109
C7 C 1.1262(8) -0.02678(19) 0.2197(2)
C8 C 1.0100(8) 0.03087(17) 0.26128(19)
C9 C 0.9720(8) 0.09660(18) 0.22171(19)
C10 C 1.1630(10) -0.0891(2) 0.2614(3)
H6 H 1.2389 -0.1285 0.2363
C11 C 1.0867(11) -0.0916(2) 0.3393(3)
H7 H 1.1129 -0.1326 0.3680
C12 C 0.9696(11) -0.0325(2) 0.3751(2)
H8 H 0.9154 -0.0352 0.4280
Cl1 Cl 0.8333(2) 0.31422(5) 0.40312(6)
Cu1 Cu 0.78628(16) 0.12544(3) 0.37844(3)
Cu2 Cu 0.32413(16) 0.24857(3) 0.42128(3)
N1 N 0.9306(8) 0.02748(15) 0.33830(17)
N2 N 0.8602(7) 0.15108(15) 0.26367(16)
S1 S 0.4054(2) 0.14301(5) 0.47064(5)
Cl1_2 Cl -0.1667(2) 0.31422(5) 0.40312(6)
Cu1_2 Cu -0.21372(16) 0.12544(3) 0.37844(3)
Cu2_2 Cu 1.32413(16) 0.24857(3) 0.42128(3)
S1_2 S 1.4054(2) 0.14301(5) 0.47064(5)
loop_
_geom_bond_atom_site_label_1
_geom_bond_atom_site_label_2
_geom_bond_site_symmetry_1
_geom_bond_site_symmetry_2
C1 H1 1_555 1_555
C2 C1 1_555 1_555
H2 C2 1_555 1_555
C3 C2 1_555 1_555
H3 C3 1_555 1_555
C4 C3 1_555 1_555
C5 C4 1_555 1_555
H4 C5 1_555 1_555
C6 C5 1_555 1_555
H5 C6 1_555 1_555
C7 C6 1_555 1_555
C8 C7 1_555 1_555
C9 C4 1_555 1_555
C10 C7 1_555 1_555
H6 C10 1_555 1_555
C11 C10 1_555 1_555
H7 C11 1_555 1_555
C12 C11 1_555 1_555
H8 C12 1_555 1_555
Cl1 Cu2 1_555 1_555
Cu1 N1 1_555 1_555
Cu2 S1 1_555 1_555
N1 C8 1_555 1_555
N2 C1 1_555 1_555
S1 Cu1 1_555 1_555
Cl1_2 Cu2 1_555 1_555
Cu1_2 S1 1_555 1_555
Cu2_2 Cl1 1_555 1_555
S1_2 Cu1 1_555 1_555
C8 C9 1_555 1_555
C9 N2 1_555 1_555
C12 N1 1_555 1_555
Cu1 N2 1_555 1_555
Cu2_2 S1_2 1_555 1_555

#END
