
#######################################################################
#
#                 Cambridge Crystallographic Data Centre
#                                CCDC 
#
#######################################################################
#
# If this CIF has been generated from an entry in the Cambridge 
# Structural Database, then it will include bibliographic, chemical, 
# crystal, experimental, refinement or atomic coordinate data resulting 
# from the CCDC's data processing and validation procedures.
#
#######################################################################

data_BAGPOP
_symmetry_cell_setting           monoclinic
_symmetry_space_group_name_H-M   'C c'
_symmetry_Int_Tables_number      9
_space_group_name_Hall           'C -2yc'
loop_
_symmetry_equiv_pos_site_id
_symmetry_equiv_pos_as_xyz
1 x,y,z
2 x,-y,1/2+z
3 1/2+x,1/2+y,z
4 1/2+x,1/2-y,1/2+z
_cell_length_a                   8.6391(10)
_cell_length_b                   17.165(2)
_cell_length_c                   10.4638(13)
_cell_angle_alpha                90
_cell_angle_beta                 114.307(2)
_cell_angle_gamma                90
_cell_volume                     1414.13
loop_
_atom_site_label
_atom_site_type_symbol
_atom_site_fract_x
_atom_site_fract_y
_atom_site_fract_z
Cu1 Cu 0.02749(2) 0.183924(9) 0.51052(2)
N1 N -0.2267(3) 0.18705(8) 0.4306(2)
N2 N -0.0077(2) 0.30056(8) 0.5014(2)
N3 N 0.2757(3) 0.19158(11) 0.6078(3)
N4 N 0.5828(3) 0.17499(11) 0.6889(3)
N5 N 0.7627(3) 0.06135(10) 0.7956(2)
N6 N 0.0339(2) 0.07805(10) 0.5915(2)
N7 N 0.0963(4) -0.05789(13) 0.6585(3)
N8 N 0.0253(2) -0.14122(9) 0.8149(2)
C1 C -0.3269(2) 0.12514(10) 0.3875(2)
H1 H -0.2768 0.07494 0.3981
C2 C -0.5029(3) 0.13153(13) 0.3274(2)
H2 H -0.5721 0.08638 0.2974
C3 C -0.5756(3) 0.20472(15) 0.3123(2)
H3 H -0.6956 0.21038 0.2732
C4 C -0.4711(2) 0.26976(11) 0.3550(2)
H4 H -0.5182 0.32060 0.3446
C5 C -0.2968(2) 0.25927(10) 0.4130(2)
C6 C -0.1714(2) 0.32357(9) 0.4568(2)
C7 C -0.2155(3) 0.40181(11) 0.4530(2)
H5 H -0.3308 0.41715 0.4228
C8 C -0.0859(3) 0.45705(11) 0.4950(2)
H6 H -0.1122 0.51087 0.4936
C9 C 0.0789(3) 0.43375(12) 0.5377(2)
H7 H 0.1679 0.47113 0.5657
C10 C 0.1153(3) 0.35421(11) 0.5403(2)
H8 H 0.2300 0.33792 0.5703
C11 C 0.4201(3) 0.17973(10) 0.6480(2)
C12 C 0.6702(2) 0.11206(11) 0.7450(2)
C13 C 0.0570(3) 0.01453(12) 0.6268(2)
C14 C 0.0524(2) -0.09828(9) 0.7437(2)
N8A N 0.0253(2) 0.14122(9) 0.3149(2)
Cu1A Cu 0.02749(2) -0.183924(9) 1.01052(2)
loop_
_geom_bond_atom_site_label_1
_geom_bond_atom_site_label_2
_geom_bond_site_symmetry_1
_geom_bond_site_symmetry_2
Cu1 N1 1_555 1_555
N1 C1 1_555 1_555
N2 Cu1 1_555 1_555
N3 Cu1 1_555 1_555
N4 C11 1_555 1_555
N5 C12 1_555 1_555
N6 Cu1 1_555 1_555
N7 C13 1_555 1_555
N8 C14 1_555 1_555
C1 H1 1_555 1_555
C2 C1 1_555 1_555
H2 C2 1_555 1_555
C3 C2 1_555 1_555
H3 C3 1_555 1_555
C4 C3 1_555 1_555
H4 C4 1_555 1_555
C5 N1 1_555 1_555
C6 N2 1_555 1_555
C7 C6 1_555 1_555
H5 C7 1_555 1_555
C8 C7 1_555 1_555
H6 C8 1_555 1_555
C9 C8 1_555 1_555
H7 C9 1_555 1_555
C10 N2 1_555 1_555
H8 C10 1_555 1_555
C11 N3 1_555 1_555
C12 N4 1_555 1_555
C13 N6 1_555 1_555
C14 N7 1_555 1_555
N8A Cu1 1_555 1_555
Cu1A N8 1_555 1_555
C4 C5 1_555 1_555
C5 C6 1_555 1_555
C9 C10 1_555 1_555

#END
