
#######################################################################
#
#                 Cambridge Crystallographic Data Centre
#                                CCDC 
#
#######################################################################
#
# If this CIF has been generated from an entry in the Cambridge 
# Structural Database, then it will include bibliographic, chemical, 
# crystal, experimental, refinement or atomic coordinate data resulting 
# from the CCDC's data processing and validation procedures.
#
#######################################################################

data_BAGQIK01
_symmetry_cell_setting           orthorhombic
_symmetry_space_group_name_H-M   'P c a 21'
_symmetry_Int_Tables_number      29
_space_group_name_Hall           'P 2c -2ac'
loop_
_symmetry_equiv_pos_site_id
_symmetry_equiv_pos_as_xyz
1 x,y,z
2 -x,-y,1/2+z
3 1/2+x,-y,z
4 1/2-x,y,1/2+z
_cell_length_a                   9.1870(4)
_cell_length_b                   10.5451(5)
_cell_length_c                   14.3487(6)
_cell_angle_alpha                90
_cell_angle_beta                 90
_cell_angle_gamma                90
_cell_volume                     1390.07
loop_
_atom_site_label
_atom_site_type_symbol
_atom_site_fract_x
_atom_site_fract_y
_atom_site_fract_z
Co1 Co -0.43944(2) 0.360050(19) 0.238760(16)
V1 V -0.17060(3) 0.46940(3) 0.08414(2)
V2 V -0.38393(3) 0.66582(2) -0.03262(2)
O1 O -0.43950(14) 0.64105(13) -0.14113(10)
O2 O -0.31000(13) 0.38500(12) 0.12180(9)
O3 O -0.11805(14) 0.56296(12) 0.17143(9)
O4 O -0.36495(14) 0.54159(12) 0.28644(9)
H1 H -0.3577 0.5407 0.3434
H2 H -0.2841 0.5617 0.2618
O5 O -0.22510(13) 0.56437(12) -0.01365(9)
O6 O -0.02524(15) 0.36800(12) 0.04971(9)
O7 O -0.33547(15) 0.81232(12) -0.01913(10)
N1 N -0.49449(17) 0.17251(13) 0.20293(10)
N2 N -0.27698(15) 0.25418(14) 0.30898(10)
C1 C -0.5947(2) 0.13840(18) 0.14007(13)
H3 H -0.6504 0.2013 0.1119
C2 C -0.6190(2) 0.0124(2) 0.11509(14)
H4 H -0.6891 -0.0083 0.0708
C3 C -0.5363(2) -0.08148(19) 0.15775(13)
H5 H -0.5496 -0.1664 0.1424
C4 C -0.4336(2) -0.04622(17) 0.22370(14)
H6 H -0.3778 -0.1075 0.2536
C5 C -0.41457(18) 0.08142(16) 0.24488(14)
C6 C -0.30156(19) 0.12753(17) 0.31111(13)
C7 C -0.2247(2) 0.04820(18) 0.36935(14)
H7 H -0.2455 -0.0381 0.3711
C8 C -0.1156(2) 0.0984(2) 0.42545(14)
H8 H -0.0637 0.0463 0.4658
C9 C -0.0852(2) 0.2269(2) 0.42056(14)
H9 H -0.0106 0.2621 0.4559
C10 C -0.16885(19) 0.30199(18) 0.36144(14)
H10 H -0.1492 0.3884 0.3581
Co1A Co -0.56056(2) 0.639950(19) -0.261240(16)
O1A O -0.56050(14) 0.35895(13) 0.35887(10)
O3B O -0.61805(14) 0.43704(12) 0.17143(9)
O6B O -0.52524(15) 0.63200(12) 0.04971(9)
Co1B Co 0.06056(2) 0.639950(19) 0.238760(16)
V2B V 0.11607(3) 0.33418(2) -0.03262(2)
loop_
_geom_bond_atom_site_label_1
_geom_bond_atom_site_label_2
_geom_bond_site_symmetry_1
_geom_bond_site_symmetry_2
Co1 O2 1_555 1_555
V1 O2 1_555 1_555
V2 O1 1_555 1_555
O1 Co1A 1_555 1_555
O3 V1 1_555 1_555
O4 Co1 1_555 1_555
H1 O4 1_555 1_555
H2 O4 1_555 1_555
O5 V1 1_555 1_555
O6 V1 1_555 1_555
O7 V2 1_555 1_555
N1 Co1 1_555 1_555
N2 Co1 1_555 1_555
C1 N1 1_555 1_555
H3 C1 1_555 1_555
C2 C1 1_555 1_555
H4 C2 1_555 1_555
C3 C2 1_555 1_555
H5 C3 1_555 1_555
C4 C3 1_555 1_555
H6 C4 1_555 1_555
C5 N1 1_555 1_555
C6 N2 1_555 1_555
C7 C6 1_555 1_555
H7 C7 1_555 1_555
C8 C7 1_555 1_555
H8 C8 1_555 1_555
C9 C8 1_555 1_555
H9 C9 1_555 1_555
C10 N2 1_555 1_555
H10 C10 1_555 1_555
O1A Co1 1_555 1_555
O3B Co1 1_555 1_555
O6B V2 1_555 1_555
Co1B O3 1_555 1_555
V2B O6 1_555 1_555
V2 O5 1_555 1_555
C4 C5 1_555 1_555
C5 C6 1_555 1_555
C9 C10 1_555 1_555

#END
