
#######################################################################
#
#                 Cambridge Crystallographic Data Centre
#                                CCDC 
#
#######################################################################
#
# If this CIF has been generated from an entry in the Cambridge 
# Structural Database, then it will include bibliographic, chemical, 
# crystal, experimental, refinement or atomic coordinate data resulting 
# from the CCDC's data processing and validation procedures.
#
#######################################################################

data_BAHLIH
_symmetry_cell_setting           triclinic
_symmetry_space_group_name_H-M   'P -1'
_symmetry_Int_Tables_number      2
_space_group_name_Hall           '-P 1'
loop_
_symmetry_equiv_pos_site_id
_symmetry_equiv_pos_as_xyz
1 x,y,z
2 -x,-y,-z
_cell_length_a                   13.952(3)
_cell_length_b                   14.145(3)
_cell_length_c                   15.738(3)
_cell_angle_alpha                87.5440(10)
_cell_angle_beta                 85.015(2)
_cell_angle_gamma                60.45
_cell_volume                     2691.69
loop_
_atom_site_label
_atom_site_type_symbol
_atom_site_fract_x
_atom_site_fract_y
_atom_site_fract_z
N1 N 0.631(2) 1.689(2) 0.6532(17)
H1 H 0.5947 1.7302 0.6100
H2 H 0.5828 1.6952 0.6965
H3 H 0.6764 1.7108 0.6697
N2 N 1.265(2) 0.749(2) -0.0205(14)
H4 H 1.2928 0.6912 0.0130
H5 H 1.2308 0.7391 -0.0615
H6 H 1.3190 0.7603 -0.0439
W1 W 0.52766(7) 0.98769(7) 0.35388(5)
W2 W 0.49989(7) 0.75053(8) 0.42786(5)
W3 W 0.81306(7) 0.72678(8) 0.04284(5)
W4 W 0.40716(7) 0.74256(8) 0.23903(5)
W5 W 0.76650(7) 0.74361(8) 0.43292(5)
W6 W 0.43388(7) 0.98080(7) 0.16480(5)
W7 W 0.67526(7) 0.97792(7) 0.16986(5)
W8 W 0.91539(7) 0.73460(8) 0.24932(6)
W9 W 0.78938(7) 0.50723(7) 0.11096(5)
W10 W 0.56952(7) 0.72998(7) 0.03725(5)
W11 W 0.89348(7) 0.51434(8) 0.31696(6)
W12 W 0.62692(8) 0.52068(8) 0.31305(5)
O1 O 0.6430(12) 0.7209(13) 0.4525(10)
O2 O 0.3172(12) 1.0755(13) 0.1254(9)
O3 O 0.8765(12) 0.4984(13) 0.2012(9)
O4 O 0.5970(11) 0.8758(12) 0.2334(9)
O5 O 0.8639(12) 0.5905(13) 0.4216(10)
O6 O 0.4835(12) 0.5926(13) 0.2697(9)
O7 O 0.3875(12) 0.8870(13) 0.2218(9)
O8 O 0.6631(12) 0.8925(13) 0.3994(9)
O9 O 0.9969(14) 0.3882(15) 0.3440(11)
O10 O 0.6871(11) 0.7452(12) -0.0162(9)
O11 O 0.9815(12) 0.5820(13) 0.2741(9)
O12 O 0.5738(12) 0.7115(13) 0.2867(9)
O13 O 0.8980(12) 0.7058(13) 0.1349(9)
O14 O 0.4748(12) 0.8910(13) 0.3994(9)
O15 O 0.7913(13) 0.7602(13) 0.5349(10)
O16 O 0.3859(12) 0.7704(13) 0.3632(10)
O17 O 0.4949(12) 0.7410(14) -0.0506(9)
O18 O 0.4999(12) 0.8771(13) 0.0781(9)
O19 O 0.6939(11) 0.6955(12) 0.1424(8)
O20 O 0.8803(12) 0.7664(12) 0.3670(9)
O21 O 0.7696(12) 0.6994(13) 0.2902(9)
O22 O 0.5630(13) 1.2335(14) 0.4712(10)
O23 O 0.6400(14) 1.3976(14) 0.3362(11)
O24 O 0.2782(13) 0.7620(15) 0.2211(11)
O25 O 0.4104(11) 1.0525(14) 0.2725(9)
O26 O 0.6675(12) 0.5771(13) 0.0397(9)
O27 O 0.5315(12) 1.0388(13) 0.1283(9)
O28 O 0.8603(12) 0.5696(13) 0.0423(9)
O29 O 0.8958(13) 0.7354(15) -0.0406(10)
O30 O 0.4815(12) 0.7085(13) 0.1297(9)
O31 O 0.6876(12) 0.5014(13) 0.1974(9)
O32 O 0.7282(12) 0.8744(13) 0.0820(9)
O33 O 0.5519(13) 0.6018(15) 0.4170(10)
O34 O 0.7113(13) 1.0750(14) 0.1308(11)
Si1 Si 0.6591(4) 0.7438(5) 0.2383(3)
O35 O 0.8037(12) 0.8790(13) 0.2250(9)
O36 O 0.4682(13) 1.0907(14) 0.4243(9)
O37 O 1.0355(12) 0.7402(14) 0.2390(10)
O38 O 0.6064(12) 1.0413(14) 0.2787(9)
O39 O 0.8487(13) 0.3852(13) 0.0673(10)
O40 O 0.7633(13) 0.5041(14) 0.3460(10)
K1 K 0.7194(5) 1.1776(5) 0.3369(4)
S1 S 0.9550(6) 1.1262(6) 0.2059(4)
S2 S 0.8779(6) 1.2391(6) 0.5228(5)
O41 O 0.8463(14) 1.1771(17) 0.1767(12)
O42 O 0.9642(16) 1.0830(18) 0.2897(13)
N3 N 0.9938(17) 1.217(2) 0.2022(14)
H7 H 1.0248 1.2145 0.2500
H8 H 1.0426 1.2041 0.1577
H9 H 0.9353 1.2828 0.1969
C1 C 1.147(2) 1.005(2) 0.1037(16)
H10 H 1.1671 1.0549 0.1188
O43 O 0.8089(17) 1.2213(19) 0.4710(15)
C2 C 0.808(2) 1.372(2) 0.5571(16)
C3 C 0.6915(19) 1.423(2) 0.5743(16)
H11 H 0.6539 1.3867 0.5621
C4 C 1.0433(19) 1.015(2) 0.1355(15)
C5 C 1.012(2) 0.943(2) 0.1179(17)
H12 H 0.9475 0.9470 0.1433
O44 O 0.915(2) 1.172(2) 0.5993(16)
N4 N 0.986(3) 1.208(3) 0.477(2)
H13 H 0.9787 1.2177 0.4215
H14 H 1.0128 1.2482 0.4955
H15 H 1.0328 1.1378 0.4873
O45 O 0.5409(14) 1.2860(15) 0.2272(11)
H16 H 0.5353 1.2406 0.2005
C6 C 1.213(2) 0.922(2) 0.0516(16)
H17 H 1.2802 0.9158 0.0293
C7 C 1.0821(19) 0.861(2) 0.0583(15)
H18 H 1.0576 0.8170 0.0375
C8 C 1.186(2) 0.844(2) 0.0300(15)
C9 C 0.807(2) 1.528(2) 0.6114(16)
H19 H 0.8432 1.5660 0.6212
C10 C 0.696(2) 1.573(2) 0.6252(16)
C11 C 0.635(2) 1.524(2) 0.6086(16)
H20 H 0.5585 1.5589 0.6203
C12 C 0.864(2) 1.421(2) 0.5818(17)
H21 H 0.9406 1.3826 0.5789
W2A W 0.50011(7) 1.24947(8) 0.57214(5)
W12_2 W 0.62692(8) 1.52068(8) 0.31305(5)
O22A O 0.4370(13) 0.7665(14) 0.5288(10)
O23_2 O 0.6400(14) 0.3976(14) 0.3362(11)
O46 O 0.1685(16) 0.9788(16) 0.3994(12)
H22 H 0.2157 0.9775 0.3608
H23 H 0.1007 1.0085 0.3895
O47 O 0.8348(16) 0.8437(19) 0.6818(13)
H24 H 0.8639 0.8773 0.7024
H25 H 0.8721 0.7933 0.6455
O48 O 0.7396(18) 0.7087(18) 0.7890(13)
H26 H 0.7482 0.7048 0.8421
H27 H 0.7933 0.6972 0.7530
O49 O 0.8646(18) 0.5120(18) 0.8721(13)
H28 H 0.9044 0.5164 0.8297
H29 H 0.8749 0.5232 0.9222
O50 O 0.4628(17) 0.5595(17) 0.8891(13)
H30 H 0.5294 0.5399 0.8978
H31 H 0.4279 0.5336 0.9196
O51 O 0.719(2) 0.409(2) 0.8924(16)
H32 H 0.7339 0.4389 0.8493
H33 H 0.7390 0.4129 0.9410
loop_
_geom_bond_atom_site_label_1
_geom_bond_atom_site_label_2
_geom_bond_site_symmetry_1
_geom_bond_site_symmetry_2
N1 H1 1_555 1_555
H2 N1 1_555 1_555
H3 N1 1_555 1_555
N2 H4 1_555 1_555
H5 N2 1_555 1_555
H6 N2 1_555 1_555
W1 O4 1_555 1_555
W2 O1 1_555 1_555
W3 O10 1_555 1_555
W4 O6 1_555 1_555
W5 O1 1_555 1_555
W6 O2 1_555 1_555
W7 O4 1_555 1_555
W8 O11 1_555 1_555
W9 O3 1_555 1_555
W10 O10 1_555 1_555
W11 O3 1_555 1_555
W12 O6 1_555 1_555
O4 W6 1_555 1_555
O5 W5 1_555 1_555
O7 W4 1_555 1_555
O8 W1 1_555 1_555
O9 W11 1_555 1_555
O11 W11 1_555 1_555
O12 W2 1_555 1_555
O13 W3 1_555 1_555
O14 W1 1_555 1_555
O15 W5 1_555 1_555
O16 W2 1_555 1_555
O17 W10 1_555 1_555
O18 W6 1_555 1_555
O19 W3 1_555 1_555
O20 W5 1_555 1_555
O21 W5 1_555 1_555
O22 K1 1_555 1_555
O23 K1 1_555 1_555
O24 W4 1_555 1_555
O25 W1 1_555 1_555
O26 W9 1_555 1_555
O27 W6 1_555 1_555
O28 W3 1_555 1_555
O29 W3 1_555 1_555
O30 W4 1_555 1_555
O31 W9 1_555 1_555
O32 W3 1_555 1_555
O33 W2 1_555 1_555
O34 W7 1_555 1_555
Si1 O4 1_555 1_555
O35 W7 1_555 1_555
O36 W1 1_555 1_555
O37 W8 1_555 1_555
O38 W1 1_555 1_555
O39 W9 1_555 1_555
O40 W11 1_555 1_555
K1 O38 1_555 1_555
S1 O41 1_555 1_555
S2 O43 1_555 1_555
O41 K1 1_555 1_555
O42 K1 1_555 1_555
N3 S1 1_555 1_555
H7 N3 1_555 1_555
H8 N3 1_555 1_555
H9 N3 1_555 1_555
C1 H10 1_555 1_555
O43 K1 1_555 1_555
C2 S2 1_555 1_555
C3 C2 1_555 1_555
H11 C3 1_555 1_555
C4 S1 1_555 1_555
C5 C4 1_555 1_555
H12 C5 1_555 1_555
O44 S2 1_555 1_555
N4 S2 1_555 1_555
H13 N4 1_555 1_555
H14 N4 1_555 1_555
H15 N4 1_555 1_555
O45 K1 1_555 1_555
H16 O45 1_555 1_555
C6 C1 1_555 1_555
H17 C6 1_555 1_555
C7 C5 1_555 1_555
H18 C7 1_555 1_555
C8 N2 1_555 1_555
C9 H19 1_555 1_555
C10 N1 1_555 1_555
C11 C3 1_555 1_555
H20 C11 1_555 1_555
C12 C2 1_555 1_555
H21 C12 1_555 1_555
O46 H22 1_555 1_555
H23 O46 1_555 1_555
O47 H24 1_555 1_555
H25 O47 1_555 1_555
O48 H26 1_555 1_555
H27 O48 1_555 1_555
O49 H28 1_555 1_555
H29 O49 1_555 1_555
O50 H30 1_555 1_555
H31 O50 1_555 1_555
O51 H32 1_555 1_555
H33 O51 1_555 1_555
W2A O22 1_555 1_555
W12_2 O23 1_555 1_555
O22A W2 1_555 1_555
O23_2 W12 1_555 1_555
W2 O14 1_555 1_555
W4 O12 1_555 1_555
W4 O16 1_555 1_555
W5 O8 1_555 1_555
W6 O7 1_555 1_555
W6 O25 1_555 1_555
W7 O27 1_555 1_555
W7 O32 1_555 1_555
W7 O38 1_555 1_555
W8 O13 1_555 1_555
W8 O20 1_555 1_555
W8 O21 1_555 1_555
W8 O35 1_555 1_555
W9 O19 1_555 1_555
W9 O28 1_555 1_555
W10 O18 1_555 1_555
W10 O19 1_555 1_555
W10 O26 1_555 1_555
W10 O30 1_555 1_555
W11 O5 1_555 1_555
W11 O21 1_555 1_555
W12 O12 1_555 1_555
W12 O31 1_555 1_555
W12 O33 1_555 1_555
W12 O40 1_555 1_555
O12 Si1 1_555 1_555
O19 Si1 1_555 1_555
O21 Si1 1_555 1_555
S1 O42 1_555 1_555
C1 C4 1_555 1_555
C6 C8 1_555 1_555
C7 C8 1_555 1_555
C9 C10 1_555 1_555
C9 C12 1_555 1_555
C10 C11 1_555 1_555

#END
