
#######################################################################
#
#                 Cambridge Crystallographic Data Centre
#                                CCDC 
#
#######################################################################
#
# If this CIF has been generated from an entry in the Cambridge 
# Structural Database, then it will include bibliographic, chemical, 
# crystal, experimental, refinement or atomic coordinate data resulting 
# from the CCDC's data processing and validation procedures.
#
#######################################################################

data_BAHLED
_symmetry_cell_setting           trigonal
_symmetry_space_group_name_H-M   'P -3'
_symmetry_Int_Tables_number      147
_space_group_name_Hall           '-P 3'
loop_
_symmetry_equiv_pos_site_id
_symmetry_equiv_pos_as_xyz
1 x,y,z
2 -y,x-y,z
3 -x+y,-x,z
4 -x,-y,-z
5 y,-x+y,-z
6 x-y,x,-z
_cell_length_a                   14.049(2)
_cell_length_b                   14.049(2)
_cell_length_c                   8.1607(16)
_cell_angle_alpha                90
_cell_angle_beta                 90
_cell_angle_gamma                120
_cell_volume                     1394.92
loop_
_atom_site_label
_atom_site_type_symbol
_atom_site_fract_x
_atom_site_fract_y
_atom_site_fract_z
Fe1 Fe 0.013268(19) -0.22146(2) -0.10168(3)
O1 O 0.13484(12) -0.04948(11) -0.11885(17)
O2 O -0.25299(11) -0.37718(12) -0.0150(2)
O3 O -0.10319(11) -0.38751(11) -0.0752(2)
O4 O 0.19174(12) 0.10417(13) -0.26477(17)
O5 O 0.07458(14) -0.25625(14) -0.32659(18)
C1 C 0.14832(16) 0.00334(16) -0.2509(2)
C2 C -0.20277(14) -0.42871(14) -0.0394(2)
C3 C -0.27006(14) -0.55209(13) -0.0298(2)
C4 C -0.38478(14) -0.60377(14) -0.0296(2)
C5 C 0.0112(2) -0.31389(19) -0.4357(3)
N1 N 0.03921(19) -0.35833(17) -0.5564(2)
C6 C -0.0363(3) -0.4185(3) -0.6897(3)
H1 H -0.1069 -0.4262 -0.6672
H2 H -0.0436 -0.4899 -0.6994
H3 H -0.0081 -0.3789 -0.7905
C7 C 0.1505(3) -0.3382(3) -0.5672(4)
H4 H 0.1911 -0.2982 -0.4722
H5 H 0.1850 -0.2959 -0.6639
H6 H 0.1493 -0.4070 -0.5727
Fe1D Fe -0.22146(2) -0.234728(28) 0.10168(3)
Fe1B Fe -0.234728(28) -0.013268(19) -0.10168(3)
Fe1E Fe 0.234728(28) 0.013268(19) 0.10168(3)
Fe1A Fe 0.22146(2) 0.234728(28) -0.10168(3)
Fe1E_2 Fe -0.765272(28) -0.986732(19) 0.10168(3)
Fe1A_2 Fe -0.77854(2) -0.765272(28) -0.10168(3)
Fe1C Fe -0.013268(19) -0.77854(2) 0.10168(3)
Fe1B_2 Fe -0.234728(28) -1.013268(19) -0.10168(3)
O1D O -0.04948(11) -0.18432(16) 0.11885(17)
O1B O -0.18432(16) -0.13484(12) -0.11885(17)
O1C O -0.13484(12) 0.04948(11) 0.11885(17)
O2A O -0.62282(12) -0.87581(16) -0.0150(2)
O2B O -0.12419(16) -0.74701(11) -0.0150(2)
O2E O 0.12419(16) -0.25299(11) 0.0150(2)
O2D O -0.37718(12) -0.12419(16) 0.0150(2)
O3A O -0.61249(11) -0.71568(16) -0.0752(2)
O3B O -0.28432(16) -0.89681(11) -0.0752(2)
O3D O -0.38751(11) -0.28432(16) 0.0752(2)
O3B_2 O -0.28432(16) 0.10319(11) -0.0752(2)
O4D O 0.10417(13) -0.08757(18) 0.26477(17)
O4B O -0.08757(18) -0.19174(12) -0.26477(17)
O4C O -0.19174(12) -0.10417(13) 0.26477(17)
O4A O -0.10417(13) 0.08757(18) -0.26477(17)
O5D O -0.25625(14) -0.33083(20) 0.32659(18)
O5B O -0.33083(20) -0.07458(14) -0.32659(18)
C1D C 0.00334(16) -0.14498(23) 0.2509(2)
C1B C -0.14498(23) -0.14832(16) -0.2509(2)
C2A C -0.57129(14) -0.77406(20) -0.0394(2)
C2B C -0.22594(20) -0.79723(14) -0.0394(2)
C3A C -0.44791(13) -0.71797(19) -0.0298(2)
C3B C -0.28203(19) -0.72994(14) -0.0298(2)
C4A C -0.39623(14) -0.78101(20) -0.0296(2)
C4B C -0.21899(20) -0.61522(14) -0.0296(2)
C5D C -0.31389(19) -0.32509(28) 0.4357(3)
C5B C -0.32509(28) -0.0112(2) -0.4357(3)
N1D N -0.35833(17) -0.39754(25) 0.5564(2)
N1B N -0.39754(25) -0.03921(19) -0.5564(2)
C6D C -0.4185(3) -0.3822(4) 0.6897(3)
C6B C -0.3822(4) 0.0363(3) -0.6897(3)
H1D H -0.4262 -0.3193 0.6672
H1B H -0.3193 0.1069 -0.6672
H2D H -0.4899 -0.4463 0.6994
H2B H -0.4463 0.0436 -0.6994
H3D H -0.3789 -0.3708 0.7905
H3B H -0.3708 0.0081 -0.7905
C7D C -0.3382(3) -0.4887(4) 0.5672(4)
C7B C -0.4887(4) -0.1505(3) -0.5672(4)
H4D H -0.2982 -0.4893 0.4722
H4B H -0.4893 -0.1911 -0.4722
H5D H -0.2959 -0.4809 0.6639
H5B H -0.4809 -0.1850 -0.6639
H6D H -0.4070 -0.5563 0.5727
H6B H -0.5563 -0.1493 -0.5727
loop_
_geom_bond_atom_site_label_1
_geom_bond_atom_site_label_2
_geom_bond_site_symmetry_1
_geom_bond_site_symmetry_2
Fe1 O1 1_555 1_555
O1 C1 1_555 1_555
O2 C2 1_555 1_555
O3 Fe1 1_555 1_555
O4 C1 1_555 1_555
O5 Fe1 1_555 1_555
C2 O3 1_555 1_555
C3 C2 1_555 1_555
C4 C3 1_555 1_555
C5 O5 1_555 1_555
N1 C5 1_555 1_555
C6 N1 1_555 1_555
H1 C6 1_555 1_555
H2 C6 1_555 1_555
H3 C6 1_555 1_555
C7 N1 1_555 1_555
H4 C7 1_555 1_555
H5 C7 1_555 1_555
H6 C7 1_555 1_555
Fe1D O2 1_555 1_555
Fe1B O1B 1_555 1_555
Fe1E O1 1_555 1_555
Fe1A O4 1_555 1_555
Fe1E_2 O2A 1_555 1_555
Fe1A_2 O3A 1_555 1_555
Fe1C O2B 1_555 1_555
Fe1B_2 O3B 1_555 1_555
O1D Fe1 1_555 1_555
O1B Fe1D 1_555 1_555
O1C Fe1B 1_555 1_555
O2A C2A 1_555 1_555
O2B C2B 1_555 1_555
O2E Fe1 1_555 1_555
O2D Fe1B 1_555 1_555
O3A C2A 1_555 1_555
O3B C2B 1_555 1_555
O3D Fe1D 1_555 1_555
O3B_2 Fe1B 1_555 1_555
O4D Fe1E 1_555 1_555
O4B Fe1 1_555 1_555
O4C Fe1D 1_555 1_555
O4A Fe1B 1_555 1_555
O5D Fe1D 1_555 1_555
O5B Fe1B 1_555 1_555
C1D O1D 1_555 1_555
C1B O1B 1_555 1_555
C2A C3A 1_555 1_555
C2B C3B 1_555 1_555
C3A C4 1_555 1_555
C3B C4A 1_555 1_555
C4A C3A 1_555 1_555
C4B C3 1_555 1_555
C5D O5D 1_555 1_555
C5B O5B 1_555 1_555
N1D C5D 1_555 1_555
N1B C5B 1_555 1_555
C6D N1D 1_555 1_555
C6B N1B 1_555 1_555
H1D C6D 1_555 1_555
H1B C6B 1_555 1_555
H2D C6D 1_555 1_555
H2B C6B 1_555 1_555
H3D C6D 1_555 1_555
H3B C6B 1_555 1_555
C7D N1D 1_555 1_555
C7B N1B 1_555 1_555
H4D C7D 1_555 1_555
H4B C7B 1_555 1_555
H5D C7D 1_555 1_555
H5B C7B 1_555 1_555
H6D C7D 1_555 1_555
H6B C7B 1_555 1_555
Fe1D O1D 1_555 1_555
O4D C1D 1_555 1_555
O4B C1B 1_555 1_555
C3B C4B 1_555 1_555

#END
