
#######################################################################
#
#                 Cambridge Crystallographic Data Centre
#                                CCDC 
#
#######################################################################
#
# If this CIF has been generated from an entry in the Cambridge 
# Structural Database, then it will include bibliographic, chemical, 
# crystal, experimental, refinement or atomic coordinate data resulting 
# from the CCDC's data processing and validation procedures.
#
#######################################################################

data_BAHNEF
_symmetry_cell_setting           monoclinic
_symmetry_space_group_name_H-M   'C 2/c'
_symmetry_Int_Tables_number      15
_space_group_name_Hall           '-C 2yn'
loop_
_symmetry_equiv_pos_site_id
_symmetry_equiv_pos_as_xyz
1 x,y,z
2 -x,y,1/2-z
3 1/2+x,1/2+y,z
4 1/2-x,1/2+y,1/2-z
5 -x,-y,-z
6 x,-y,1/2+z
7 1/2-x,1/2-y,-z
8 1/2+x,1/2-y,1/2+z
_cell_length_a                   30.936(6)
_cell_length_b                   10.389(2)
_cell_length_c                   18.022(4)
_cell_angle_alpha                90
_cell_angle_beta                 125.57(3)
_cell_angle_gamma                90
_cell_volume                     4711.38
loop_
_atom_site_label
_atom_site_type_symbol
_atom_site_fract_x
_atom_site_fract_y
_atom_site_fract_z
Cd1 Cd 0.298552(12) 0.17578(3) 0.40566(2)
O1 O 0.32408(14) 0.3043(3) 0.3222(2)
O2 O 0.30047(14) 0.1037(3) 0.2817(2)
O3 O 0.28488(13) -0.0748(3) 0.0093(2)
O4 O 0.30574(13) 0.0486(3) -0.0645(2)
O5 O 0.38892(13) 0.1761(4) 0.5165(2)
H1 H 0.3645 0.2266 0.5060
H2 H 0.4095 0.2091 0.5048
O6 O 0.29805(13) 0.3655(3) 0.4766(2)
H3 H 0.2983 0.4302 0.4478
H4 H 0.2695 0.3684 0.4739
N1 N 0.20986(14) 0.2338(4) 0.2986(2)
N2 N 0.12537(16) 0.2827(5) 0.2426(3)
N3 N 0.13789(14) 0.3212(4) 0.1845(3)
N4 N 0.05066(15) 0.3211(4) 0.0455(3)
N5 N 0.00821(18) 0.3601(5) 0.0434(3)
N6 N -0.03118(18) 0.2844(6) -0.0108(4)
C1 C 0.18778(17) 0.2927(4) 0.2196(3)
H5 H 0.2050 0.3115 0.1924
C2 C 0.16979(19) 0.2308(5) 0.3089(3)
H6 H 0.1737 0.1944 0.3597
C3 C 0.09973(18) 0.3916(5) 0.1013(3)
H7 H 0.0928 0.4747 0.1168
H8 H 0.1146 0.4063 0.0672
C4 C 0.0383(2) 0.2168(6) -0.0090(4)
C5 C 0.0662(3) 0.1396(7) -0.0300(5)
H9 H 0.1020 0.1543 -0.0046
C6 C 0.0390(3) 0.0409(8) -0.0897(6)
H10 H 0.0565 -0.0140 -0.1048
C7 C -0.0158(3) 0.0209(9) -0.1289(5)
H11 H -0.0337 -0.0450 -0.1712
C8 C -0.0425(3) 0.0950(8) -0.1066(5)
H12 H -0.0781 0.0799 -0.1314
C9 C -0.0148(2) 0.1940(6) -0.0453(4)
C10 C 0.31428(17) 0.2111(4) 0.2702(3)
C11 C 0.29905(16) 0.0334(4) -0.0025(3)
C12 C 0.31790(16) 0.2289(4) 0.1914(3)
C13 C 0.32945(18) 0.3485(4) 0.1736(3)
H13 H 0.3356 0.4178 0.2112
C14 C 0.33186(19) 0.3654(5) 0.0994(3)
H14 H 0.3408 0.4452 0.0885
C15 C 0.32104(18) 0.2639(5) 0.0425(3)
H15 H 0.3214 0.2763 -0.0082
C16 C 0.30942(16) 0.1424(4) 0.0593(3)
C17 C 0.30816(16) 0.1261(4) 0.1342(3)
H16 H 0.3007 0.0454 0.1465
Cd1E Cd 0.298552(12) -0.17578(3) -0.09434(2)
O3E O 0.28488(13) 0.0748(3) 0.5093(2)
O4E O 0.30574(13) -0.0486(3) 0.4355(2)
O7 O 0.19574(14) 0.0390(3) 0.1325(2)
H17 H 0.2278 0.0587 0.1779
H18 H 0.1899 -0.0336 0.1468
O8 O 0.05417(18) 0.2392(7) 0.2987(3)
H19 H 0.0557 0.2676 0.2561
H20 H 0.0643 0.2856 0.3450
loop_
_geom_bond_atom_site_label_1
_geom_bond_atom_site_label_2
_geom_bond_site_symmetry_1
_geom_bond_site_symmetry_2
Cd1 O1 1_555 1_555
O1 C10 1_555 1_555
O2 Cd1 1_555 1_555
O3 C11 1_555 1_555
O4 C11 1_555 1_555
O5 Cd1 1_555 1_555
H1 O5 1_555 1_555
H2 O5 1_555 1_555
O6 Cd1 1_555 1_555
H3 O6 1_555 1_555
H4 O6 1_555 1_555
N1 Cd1 1_555 1_555
N2 N3 1_555 1_555
N3 C1 1_555 1_555
N4 N5 1_555 1_555
N5 N6 1_555 1_555
N6 C9 1_555 1_555
C1 N1 1_555 1_555
H5 C1 1_555 1_555
C2 N1 1_555 1_555
H6 C2 1_555 1_555
C3 N3 1_555 1_555
H7 C3 1_555 1_555
H8 C3 1_555 1_555
C4 N4 1_555 1_555
C5 C4 1_555 1_555
H9 C5 1_555 1_555
C6 C5 1_555 1_555
H10 C6 1_555 1_555
C7 C6 1_555 1_555
H11 C7 1_555 1_555
C8 C7 1_555 1_555
H12 C8 1_555 1_555
C9 C4 1_555 1_555
C10 O2 1_555 1_555
C11 C16 1_555 1_555
C12 C10 1_555 1_555
C13 C12 1_555 1_555
H13 C13 1_555 1_555
C14 C13 1_555 1_555
H14 C14 1_555 1_555
C15 C14 1_555 1_555
H15 C15 1_555 1_555
C16 C15 1_555 1_555
C17 C12 1_555 1_555
H16 C17 1_555 1_555
O7 H17 1_555 1_555
H18 O7 1_555 1_555
O8 H19 1_555 1_555
H20 O8 1_555 1_555
Cd1E O3 1_555 1_555
O3E Cd1 1_555 1_555
O4E Cd1 1_555 1_555
O4 Cd1E 1_555 1_555
N2 C2 1_555 1_555
N4 C3 1_555 1_555
C8 C9 1_555 1_555
C16 C17 1_555 1_555

#END
