
#######################################################################
#
#                 Cambridge Crystallographic Data Centre
#                                CCDC 
#
#######################################################################
#
# If this CIF has been generated from an entry in the Cambridge 
# Structural Database, then it will include bibliographic, chemical, 
# crystal, experimental, refinement or atomic coordinate data resulting 
# from the CCDC's data processing and validation procedures.
#
#######################################################################

data_BAJPUY
_symmetry_cell_setting           monoclinic
_symmetry_space_group_name_H-M   'P 21/n'
_symmetry_Int_Tables_number      14
_space_group_name_Hall           '-P 2yn'
loop_
_symmetry_equiv_pos_site_id
_symmetry_equiv_pos_as_xyz
1 x,y,z
2 1/2+x,1/2-y,1/2+z
3 -x,-y,-z
4 1/2-x,1/2+y,1/2-z
_cell_length_a                   12.5989(4)
_cell_length_b                   19.9199(7)
_cell_length_c                   20.6430(8)
_cell_angle_alpha                90
_cell_angle_beta                 100.614(2)
_cell_angle_gamma                90
_cell_volume                     5092.11
loop_
_atom_site_label
_atom_site_type_symbol
_atom_site_fract_x
_atom_site_fract_y
_atom_site_fract_z
Ce1 Ce 0.88638(3) 0.274604(18) 0.245908(18)
Fe1 Fe 0.71336(8) 0.35747(5) -0.01103(4)
O1 O 1.0994(4) 0.2796(3) 0.2632(2)
N1 N 1.1049(6) 0.3436(3) 0.2675(3)
C1 C 0.9064(6) 0.3133(4) 0.0850(3)
Fe2 Fe 0.82659(8) 0.53562(4) 0.33020(4)
O2 O 1.0192(4) 0.3736(2) 0.2745(2)
N2 N 0.7430(4) 0.4542(3) -0.0528(3)
C2 C 0.9375(6) 0.2682(3) 0.0338(3)
O3 O 1.1898(5) 0.3732(3) 0.2650(3)
N3 N 0.6384(4) 0.4344(3) 0.0431(3)
C3 C 0.8895(6) 0.2722(3) -0.0338(3)
O4 O 0.9547(4) 0.3073(2) 0.1441(2)
N4 N 0.8389(5) 0.5806(2) 0.4269(2)
C4 C 0.9293(6) 0.2280(4) -0.0765(3)
H1 H 0.9016 0.2310 -0.1224
O5 O 0.8314(4) 0.3571(2) 0.0684(2)
N5 N 0.9979(5) 0.5395(2) 0.3708(3)
C5 C 1.0073(7) 0.1801(4) -0.0545(4)
H2 H 1.0326 0.1515 -0.0852
O6 O 0.8123(4) 0.3139(2) -0.0571(2)
C6 C 1.0487(7) 0.1739(4) 0.0123(4)
H3 H 1.0990 0.1394 0.0279
O7 O 0.9703(4) 0.2143(2) 0.3455(2)
C7 C 1.0162(6) 0.2179(4) 0.0552(4)
H4 H 1.0470 0.2148 0.1007
O8 O 1.0980(4) 0.1572(2) 0.4102(2)
C8 C 1.0155(6) 0.1961(3) 0.4021(4)
O9 O 1.1425(4) 0.2103(2) 0.53426(19)
C9 C 0.9712(6) 0.2209(3) 0.4598(3)
O10 O 0.8079(4) 0.3376(2) 0.32737(19)
C10 C 1.0365(6) 0.2255(3) 0.5230(3)
O11 O 0.8342(3) 0.44265(19) 0.3623(2)
C11 C 0.9871(7) 0.2469(3) 0.5753(4)
H5 H 1.0292 0.2505 0.6183
O12 O 0.6705(3) 0.5312(2) 0.3210(2)
C12 C 0.8791(7) 0.2628(3) 0.5652(4)
H6 H 0.8473 0.2769 0.6013
O13 O 0.7398(4) 0.2055(2) 0.2815(2)
C13 C 0.8159(7) 0.2583(3) 0.5023(4)
H7 H 0.7411 0.2690 0.4953
O14 O 0.6836(4) 0.12927(19) 0.2039(2)
C14 C 0.8633(6) 0.2381(3) 0.4506(4)
H8 H 0.8208 0.2360 0.4076
O15 O 0.6492(3) 0.0063(2) 0.2551(2)
C15 C 0.7911(5) 0.4594(3) -0.1055(3)
H9 H 0.8186 0.4198 -0.1221
O16 O 0.7900(3) 0.37970(19) 0.19491(19)
C16 C 0.8024(6) 0.5198(4) -0.1369(3)
H10 H 0.8367 0.5217 -0.1742
O17 O 0.7514(4) 0.2390(2) 0.14638(19)
C17 C 0.7625(6) 0.5771(4) -0.1124(3)
H11 H 0.7676 0.6191 -0.1333
O18 O 0.9406(4) 0.1569(2) 0.2116(2)
C18 C 0.7156(6) 0.5728(4) -0.0578(3)
H12 H 0.6904 0.6121 -0.0395
C19 C 0.7053(5) 0.5108(3) -0.0295(3)
C20 C 0.6550(6) 0.4994(3) 0.0285(3)
C21 C 0.6259(6) 0.5517(3) 0.0671(3)
H14 H 0.6384 0.5971 0.0567
C22 C 0.5784(6) 0.5361(4) 0.1209(3)
H15 H 0.5587 0.5709 0.1478
C23 C 0.5602(5) 0.4702(4) 0.1348(3)
H16 H 0.5263 0.4586 0.1707
C24 C 0.5922(6) 0.4212(3) 0.0953(3)
H17 H 0.5810 0.3756 0.1057
C25 C 0.7717(6) 0.3945(4) 0.3339(3)
C26 C 0.6558(6) 0.4097(3) 0.3106(3)
C27 C 0.6112(6) 0.4757(3) 0.3096(3)
C28 C 0.4981(6) 0.4815(3) 0.2941(3)
H18 H 0.4666 0.5247 0.2955
C29 C 0.4308(6) 0.4270(4) 0.2769(3)
H19 H 0.3546 0.4326 0.2677
C30 C 0.4765(6) 0.3633(4) 0.2733(3)
H20 H 0.4318 0.3256 0.2594
C31 C 0.5857(6) 0.3557(3) 0.2900(3)
H21 H 0.6157 0.3122 0.2877
C32 C 0.6936(6) 0.1510(3) 0.2636(3)
C33 C 0.6459(5) 0.1118(3) 0.3131(3)
C34 C 0.6264(5) 0.0421(3) 0.3056(3)
C35 C 0.5821(5) 0.0105(3) 0.3557(3)
H22 H 0.5642 -0.0358 0.3509
C36 C 0.5642(6) 0.0424(3) 0.4092(3)
H23 H 0.5383 0.0181 0.4427
C37 C 0.5835(6) 0.1119(4) 0.4165(4)
H24 H 0.5687 0.1350 0.4541
C38 C 0.6239(5) 0.1455(3) 0.3686(3)
H25 H 0.6373 0.1924 0.3730
C39 C 0.7537(6) 0.6025(3) 0.4505(3)
H26 H 0.6840 0.5988 0.4238
C40 C 0.7633(7) 0.6304(3) 0.5127(3)
H27 H 0.7013 0.6457 0.5284
C41 C 0.8646(8) 0.6356(3) 0.5515(3)
H28 H 0.8725 0.6544 0.5944
C42 C 0.9543(7) 0.6136(3) 0.5281(4)
H29 H 1.0244 0.6168 0.5544
C43 C 0.9391(6) 0.5864(3) 0.4647(3)
C44 C 1.0287(6) 0.5614(3) 0.4332(3)
C45 C 1.1357(6) 0.5599(3) 0.4654(4)
H30 H 1.1556 0.5762 0.5092
C46 C 1.2100(7) 0.5350(4) 0.4331(4)
H31 H 1.2836 0.5333 0.4543
C47 C 1.1798(7) 0.5115(3) 0.3687(4)
H32 H 1.2320 0.4939 0.3454
C48 C 1.0716(6) 0.5146(3) 0.3394(4)
H33 H 1.0499 0.4985 0.2957
O8A O 0.5980(4) 0.3428(2) -0.0898(2)
O9A O 0.6425(4) 0.2897(2) 0.03426(19)
O14C O 0.8164(4) 0.62927(19) 0.2961(2)
O15C O 0.8508(3) 0.5063(2) 0.2449(2)
Fe1A Fe 1.21336(8) 0.14253(5) 0.48897(4)
Fe2C Fe 0.67341(8) 0.03562(4) 0.16980(4)
O19 O 1.1524(5) 0.1300(3) 0.2729(3)
H13 H 1.0875 0.1301 0.2538
C49 C 1.2251(8) 0.1557(6) 0.2241(6)
H34 H 1.2160 0.1264 0.1848
H35 H 1.2035 0.2019 0.2094
C50 C 1.3375(10) 0.1552(6) 0.2575(5)
H36 H 1.3453 0.1826 0.2975
H37 H 1.3830 0.1736 0.2281
H38 H 1.3597 0.1090 0.2694
loop_
_geom_bond_atom_site_label_1
_geom_bond_atom_site_label_2
_geom_bond_site_symmetry_1
_geom_bond_site_symmetry_2
Ce1 O1 1_555 1_555
Fe1 N2 1_555 1_555
O1 N1 1_555 1_555
N1 O2 1_555 1_555
C1 C2 1_555 1_555
Fe2 N4 1_555 1_555
O2 Ce1 1_555 1_555
N2 C15 1_555 1_555
C2 C3 1_555 1_555
O3 N1 1_555 1_555
N3 Fe1 1_555 1_555
C3 C4 1_555 1_555
O4 Ce1 1_555 1_555
N4 C39 1_555 1_555
C4 H1 1_555 1_555
O5 Fe1 1_555 1_555
N5 Fe2 1_555 1_555
C5 C4 1_555 1_555
H2 C5 1_555 1_555
O6 Fe1 1_555 1_555
C6 C5 1_555 1_555
H3 C6 1_555 1_555
O7 Ce1 1_555 1_555
C7 C2 1_555 1_555
H4 C7 1_555 1_555
O8 C8 1_555 1_555
C8 O7 1_555 1_555
O9 C10 1_555 1_555
C9 C8 1_555 1_555
O10 Ce1 1_555 1_555
C10 C9 1_555 1_555
O11 Fe2 1_555 1_555
C11 C10 1_555 1_555
H5 C11 1_555 1_555
O12 Fe2 1_555 1_555
C12 C11 1_555 1_555
H6 C12 1_555 1_555
O13 Ce1 1_555 1_555
C13 C12 1_555 1_555
H7 C13 1_555 1_555
O14 C32 1_555 1_555
C14 C9 1_555 1_555
H8 C14 1_555 1_555
O15 C34 1_555 1_555
C15 H9 1_555 1_555
O16 Ce1 1_555 1_555
C16 C15 1_555 1_555
H10 C16 1_555 1_555
O17 Ce1 1_555 1_555
C17 C16 1_555 1_555
H11 C17 1_555 1_555
O18 Ce1 1_555 1_555
C18 C17 1_555 1_555
H12 C18 1_555 1_555
O19 H13 1_555 1_555
C19 N2 1_555 1_555
C20 N3 1_555 1_555
C21 C20 1_555 1_555
H14 C21 1_555 1_555
C22 C21 1_555 1_555
H15 C22 1_555 1_555
C23 C22 1_555 1_555
H16 C23 1_555 1_555
C24 N3 1_555 1_555
H17 C24 1_555 1_555
C25 O10 1_555 1_555
C26 C25 1_555 1_555
C27 O12 1_555 1_555
C28 C27 1_555 1_555
H18 C28 1_555 1_555
C29 C28 1_555 1_555
H19 C29 1_555 1_555
C30 C29 1_555 1_555
H20 C30 1_555 1_555
C31 C26 1_555 1_555
H21 C31 1_555 1_555
C32 O13 1_555 1_555
C33 C32 1_555 1_555
C34 C33 1_555 1_555
C35 C34 1_555 1_555
H22 C35 1_555 1_555
C36 C35 1_555 1_555
H23 C36 1_555 1_555
C37 C36 1_555 1_555
H24 C37 1_555 1_555
C38 C33 1_555 1_555
H25 C38 1_555 1_555
C39 H26 1_555 1_555
C40 C39 1_555 1_555
H27 C40 1_555 1_555
C41 C40 1_555 1_555
H28 C41 1_555 1_555
C42 C41 1_555 1_555
H29 C42 1_555 1_555
C43 N4 1_555 1_555
C44 N5 1_555 1_555
C45 C44 1_555 1_555
H30 C45 1_555 1_555
C46 C45 1_555 1_555
H31 C46 1_555 1_555
C47 C46 1_555 1_555
H32 C47 1_555 1_555
C48 N5 1_555 1_555
H33 C48 1_555 1_555
C49 O19 1_555 1_555
H34 C49 1_555 1_555
H35 C49 1_555 1_555
C50 C49 1_555 1_555
H36 C50 1_555 1_555
H37 C50 1_555 1_555
H38 C50 1_555 1_555
O8A Fe1 1_555 1_555
O9A Fe1 1_555 1_555
O14C Fe2 1_555 1_555
O15C Fe2 1_555 1_555
Fe1A O8 1_555 1_555
Fe2C O14 1_555 1_555
C1 O4 1_555 1_555
C1 O5 1_555 1_555
C3 O6 1_555 1_555
C6 C7 1_555 1_555
O9 Fe1A 1_555 1_555
O11 C25 1_555 1_555
C13 C14 1_555 1_555
O15 Fe2C 1_555 1_555
C18 C19 1_555 1_555
C19 C20 1_555 1_555
C23 C24 1_555 1_555
C26 C27 1_555 1_555
C30 C31 1_555 1_555
C37 C38 1_555 1_555
C42 C43 1_555 1_555
C43 C44 1_555 1_555
C47 C48 1_555 1_555

#END
