
#######################################################################
#
#                 Cambridge Crystallographic Data Centre
#                                CCDC 
#
#######################################################################
#
# If this CIF has been generated from an entry in the Cambridge 
# Structural Database, then it will include bibliographic, chemical, 
# crystal, experimental, refinement or atomic coordinate data resulting 
# from the CCDC's data processing and validation procedures.
#
#######################################################################

data_BAJQAF
_symmetry_cell_setting           triclinic
_symmetry_space_group_name_H-M   'P -1'
_symmetry_Int_Tables_number      2
_space_group_name_Hall           '-P 1'
loop_
_symmetry_equiv_pos_site_id
_symmetry_equiv_pos_as_xyz
1 x,y,z
2 -x,-y,-z
_cell_length_a                   13.8916(3)
_cell_length_b                   19.8401(5)
_cell_length_c                   22.2319(5)
_cell_angle_alpha                86.592(1)
_cell_angle_beta                 78.871(1)
_cell_angle_gamma                83.810(1)
_cell_volume                     5972.38
loop_
_atom_site_label
_atom_site_type_symbol
_atom_site_fract_x
_atom_site_fract_y
_atom_site_fract_z
Ce1 Ce 1.04068(4) 0.26030(3) 0.19026(2)
Fe1 Fe 1.19071(11) 0.14125(7) -0.05650(6)
O1 O 1.3998(5) 0.1327(4) -0.2179(3)
N1 N 1.1054(6) 0.0630(4) -0.0817(4)
C1 C 1.3641(8) 0.1429(5) -0.1625(5)
Ce2 Ce 0.81431(4) 0.75662(3) 0.32367(2)
Fe2 Fe 0.92080(10) 0.53310(7) 0.18389(6)
O2 O 1.2735(5) 0.1317(3) -0.1400(3)
N2 N 1.2346(7) 0.0463(5) -0.0090(4)
C2 C 1.4217(8) 0.1711(5) -0.1223(5)
Fe3 Fe 1.15744(11) 0.32211(7) 0.40908(6)
O3 O 1.2971(6) 0.1793(4) -0.0317(3)
N3 N 1.0199(6) 0.5491(4) 0.0979(3)
C3 C 1.3884(9) 0.1849(6) -0.0611(5)
Fe4 Fe 0.90413(13) 0.02720(7) 0.32581(7)
O4 O 1.0014(5) 0.2222(4) 0.0949(3)
N4 N 0.8312(6) 0.5921(4) 0.1245(3)
C4 C 1.4536(9) 0.2096(6) -0.0280(5)
H1 H 1.4318 0.2168 0.0145
O5 O 1.1112(5) 0.1672(3) 0.0258(3)
N5 N 1.2469(6) 0.4061(4) 0.4094(4)
C5 C 1.5458(10) 0.2235(7) -0.0545(6)
H2 H 1.5871 0.2398 -0.0304
O6 O 1.1073(5) 0.2104(3) -0.0920(3)
N6 N 1.0555(6) 0.4144(4) 0.4109(4)
C6 C 1.5808(11) 0.2142(7) -0.1164(6)
H3 H 1.6440 0.2263 -0.1360
O7 O 0.8839(5) 0.3343(3) 0.1731(3)
C7 C 1.5190(9) 0.1862(6) -0.1490(6)
H4 H 1.5432 0.1769 -0.1909
O8 O 0.9155(5) 0.4412(3) 0.1567(3)
C8 C 1.0308(8) 0.2052(5) 0.0402(5)
O9 O 0.8032(5) 0.5228(3) 0.2434(3)
C9 C 0.9722(7) 0.2301(5) -0.0073(4)
O10 O 0.9779(5) 0.6931(3) 0.2761(3)
C10 C 1.0139(8) 0.2309(5) -0.0696(4)
O11 O 0.9343(5) 0.6216(3) 0.2166(3)
C11 C 0.9515(8) 0.2559(5) -0.1112(5)
H5 H 0.9785 0.2583 -0.1538
O12 O 1.0267(5) 0.4944(3) 0.2240(3)
C12 C 0.8528(8) 0.2769(5) -0.0917(5)
H6 H 0.8125 0.2920 -0.1208
O13 O 1.1918(5) 0.2797(3) 0.2268(3)
C13 C 0.8131(9) 0.2756(6) -0.0295(5)
H7 H 0.7454 0.2900 -0.0156
O14 O 1.1584(5) 0.3229(3) 0.3197(3)
C14 C 0.8737(7) 0.2530(5) 0.0126(5)
H8 H 0.8471 0.2533 0.0553
O15 O 1.2731(5) 0.2576(4) 0.3953(3)
C15 C 1.0475(8) 0.0752(6) -0.1211(5)
H9 H 1.0403 0.1194 -0.1396
O16 O 1.1006(5) 0.2945(3) 0.5970(3)
C16 C 0.9949(9) 0.0238(6) -0.1370(6)
H10 H 0.9527 0.0328 -0.1660
O17 O 1.1554(5) 0.3132(3) 0.4990(3)
C17 C 1.0062(9) -0.0363(7) -0.1104(6)
H11 H 0.9682 -0.0705 -0.1186
O18 O 1.0460(5) 0.2695(3) 0.4214(3)
C18 C 1.0701(8) -0.0516(6) -0.0715(5)
H12 H 1.0807 -0.0965 -0.0551
O19 O 0.9586(6) -0.1773(3) 0.3227(4)
C19 C 1.1188(8) -0.0006(5) -0.0567(5)
O20 O 0.9168(6) -0.0707(3) 0.3500(3)
C20 C 1.1886(8) -0.0096(6) -0.0153(5)
O21 O 1.0378(6) 0.0186(4) 0.2803(4)
C21 C 1.2070(10) -0.0705(7) 0.0187(6)
H13 H 1.1750 -0.1093 0.0139
O22 O 0.8937(5) 0.2029(3) 0.2223(3)
C22 C 1.2706(11) -0.0731(8) 0.0582(7)
H14 H 1.2836 -0.1140 0.0810
O23 O 0.8944(5) 0.1215(3) 0.2949(3)
C23 C 1.3155(12) -0.0182(8) 0.0652(7)
H15 H 1.3597 -0.0200 0.0931
O24 O 0.8204(5) 0.0071(3) 0.2699(3)
C24 C 1.2956(10) 0.0443(7) 0.0295(6)
C25 C 0.8565(7) 0.3964(5) 0.1782(4)
C26 C 0.7576(7) 0.4197(5) 0.2107(4)
C27 C 0.7332(7) 0.4823(5) 0.2413(4)
C28 C 0.6375(8) 0.4990(6) 0.2715(5)
H16 H 0.6221 0.5395 0.2936
C29 C 0.5637(9) 0.4579(6) 0.2702(5)
H17 H 0.4974 0.4718 0.2884
C30 C 0.5869(9) 0.3960(6) 0.2420(5)
H18 H 0.5360 0.3675 0.2425
O31 O 0.9993(5) 0.3618(3) 0.2625(3)
C31 C 0.6826(8) 0.3744(6) 0.2131(5)
H19 H 0.6979 0.3312 0.1956
O32 O 1.0874(5) 0.3608(3) 0.1253(3)
C32 C 0.9955(7) 0.6383(5) 0.2487(4)
O33 O 1.2057(5) 0.2268(3) 0.1117(3)
C33 C 1.0874(7) 0.5955(5) 0.2511(4)
O34 O 1.1012(5) 0.1318(3) 0.2014(3)
C34 C 1.0996(7) 0.5264(5) 0.2392(4)
O35 O 1.0207(5) 0.2202(3) 0.3069(3)
C35 C 1.1877(7) 0.4887(5) 0.2445(4)
H20 H 1.1954 0.4414 0.2379
O36 O 0.6968(5) 0.7195(3) 0.4228(3)
C36 C 1.2625(9) 0.5183(6) 0.2588(5)
H21 H 1.3227 0.4912 0.2605
O37 O 0.7606(6) 0.8554(4) 0.3967(3)
C37 C 1.2560(8) 0.5855(6) 0.2709(5)
H22 H 1.3097 0.6052 0.2814
O38 O 0.8032(6) 0.8673(4) 0.2559(3)
C38 C 1.1679(8) 0.6236(6) 0.2673(5)
H23 H 1.1611 0.6704 0.2759
O39 O 0.8112(5) 0.7353(3) 0.2112(3)
C39 C 1.1162(7) 0.5243(5) 0.0878(4)
H24 H 1.1434 0.5027 0.1208
O40 O 0.7722(5) 0.6357(3) 0.3205(3)
C40 C 1.1759(8) 0.5296(5) 0.0306(4)
H25 H 1.2428 0.5107 0.0243
O41 O 0.6361(5) 0.7842(5) 0.3122(3)
C41 C 1.1370(7) 0.5630(5) -0.0179(5)
H26 H 1.1767 0.5673 -0.0576
C42 C 1.0405(7) 0.5891(5) -0.0068(4)
H27 H 1.0130 0.6128 -0.0389
C43 C 0.9820(7) 0.5815(5) 0.0510(4)
C44 C 0.8765(7) 0.6069(5) 0.0669(4)
C45 C 0.8248(7) 0.6407(4) 0.0251(4)
H28 H 0.8570 0.6499 -0.0158
C46 C 0.7269(8) 0.6609(5) 0.0432(5)
H29 H 0.6907 0.6832 0.0144
C47 C 0.6809(8) 0.6495(5) 0.1014(5)
H30 H 0.6136 0.6651 0.1150
C48 C 0.7373(7) 0.6135(5) 0.1413(5)
H31 H 0.7060 0.6042 0.1824
C49 C 1.0876(8) 0.2941(5) 0.5428(5)
C50 C 0.9925(7) 0.2774(5) 0.5313(4)
C51 C 0.9750(7) 0.2652(5) 0.4725(4)
C52 C 0.8822(8) 0.2494(5) 0.4671(5)
H32 H 0.8696 0.2410 0.4279
C53 C 0.8088(9) 0.2458(6) 0.5176(5)
H33 H 0.7455 0.2354 0.5131
C54 C 0.8265(9) 0.2576(6) 0.5764(5)
H34 H 0.7754 0.2550 0.6114
C55 C 0.9158(8) 0.2724(5) 0.5823(5)
H35 H 0.9277 0.2798 0.6220
C56 C 1.2174(7) 0.2885(5) 0.2773(5)
C57 C 1.3157(7) 0.2640(5) 0.2852(4)
C58 C 1.3377(8) 0.2487(5) 0.3447(5)
C59 C 1.4359(9) 0.2228(6) 0.3491(5)
H36 H 1.4524 0.2130 0.3885
C60 C 1.5089(10) 0.2116(6) 0.2962(6)
H37 H 1.5737 0.1933 0.3000
C61 C 1.4864(9) 0.2270(6) 0.2393(6)
H38 H 1.5357 0.2200 0.2035
C62 C 1.3897(8) 0.2533(5) 0.2340(5)
H39 H 1.3749 0.2640 0.1943
C63 C 1.3431(9) 0.3985(6) 0.4088(5)
H40 H 1.3770 0.3543 0.4057
C64 C 1.3962(10) 0.4539(6) 0.4128(5)
H41 H 1.4655 0.4474 0.4107
C65 C 1.3490(9) 0.5149(6) 0.4194(5)
H42 H 1.3851 0.5522 0.4223
C66 C 1.2489(9) 0.5261(6) 0.4221(5)
H43 H 1.2153 0.5702 0.4279
C67 C 1.1970(8) 0.4695(5) 0.4161(5)
C68 C 1.0912(8) 0.4762(5) 0.4132(5)
C69 C 1.0314(9) 0.5360(6) 0.4147(5)
H44 H 1.0583 0.5776 0.4168
C70 C 0.9354(9) 0.5364(6) 0.4132(5)
H45 H 0.8943 0.5779 0.4143
C71 C 0.8957(9) 0.4739(6) 0.4099(5)
H46 H 0.8282 0.4718 0.4084
C72 C 0.9616(8) 0.4163(5) 0.4089(5)
H47 H 0.9363 0.3741 0.4066
C73 C 0.9787(8) -0.1187(6) 0.3232(5)
C74 C 1.0731(8) -0.1014(6) 0.2940(5)
C75 C 1.1034(10) -0.0364(6) 0.2764(5)
C76 C 1.2003(12) -0.0283(9) 0.2517(7)
H48 H 1.2192 0.0165 0.2436
C77 C 1.2742(13) -0.0846(9) 0.2375(7)
H49 H 1.3399 -0.0775 0.2186
C78 C 1.2456(12) -0.1515(9) 0.2526(7)
H50 H 1.2920 -0.1901 0.2439
C79 C 1.1466(10) -0.1589(7) 0.2806(6)
H51 H 1.1275 -0.2033 0.2911
C80 C 0.8657(7) 0.1480(5) 0.2452(4)
C81 C 0.7966(7) 0.1130(5) 0.2173(4)
C82 C 0.7763(8) 0.0476(5) 0.2313(5)
C83 C 0.7096(9) 0.0221(6) 0.2021(5)
H52 H 0.6932 -0.0230 0.2123
C84 C 0.6660(10) 0.0599(7) 0.1586(6)
H53 H 0.6210 0.0406 0.1390
C85 C 0.6874(9) 0.1239(6) 0.1441(5)
H54 H 0.6578 0.1503 0.1141
C86 C 0.7524(8) 0.1510(6) 0.1729(5)
H55 H 0.7678 0.1963 0.1625
N7 N 0.7688(8) 0.0375(5) 0.3988(5)
C87 C 0.6771(11) 0.0309(7) 0.3847(6)
H56 H 0.6727 0.0171 0.3452
C88 C 0.5920(8) 0.0445(9) 0.4283(9)
H57 H 0.5293 0.0401 0.4186
C89 C 0.5984(11) 0.0648(8) 0.4860(7)
H58 H 0.5402 0.0741 0.5159
C90 C 0.6901(14) 0.0713(7) 0.5002(5)
H59 H 0.6945 0.0851 0.5397
C91 C 0.7752(10) 0.0577(7) 0.4566(7)
N8 N 0.9477(4) 0.0602(2) 0.4041(3)
C92 C 0.8790(4) 0.0684(2) 0.4582(3)
C93 C 0.9078(4) 0.0879(2) 0.5106(3)
H60 H 0.8608 0.0936 0.5476
C94 C 1.0054(4) 0.0993(2) 0.5088(3)
H61 H 1.0251 0.1126 0.5445
C95 C 1.0741(4) 0.0910(2) 0.4546(3)
H62 H 1.1407 0.0988 0.4534
C96 C 1.0452(4) 0.0715(2) 0.4023(3)
H63 H 1.0922 0.0659 0.3653
O16A O 0.8994(5) 0.7055(3) 0.4030(3)
O19_2 O 0.9586(6) 0.8227(3) 0.3227(4)
Ce2A Ce 1.18569(4) 0.24338(3) 0.67633(2)
Ce2_2 Ce 0.81431(4) -0.24338(3) 0.32367(2)
O25 O 0.5059(6) 0.7371(4) 0.4798(3)
O26 O 0.4820(6) 0.6282(4) 0.4762(3)
O27 O 0.3600(6) 0.5753(4) 0.5580(3)
C97 C 0.4641(3) 0.6854(2) 0.50010(19)
C98 C 0.3846(3) 0.6930(2) 0.55788(19)
C99 C 0.3361(3) 0.6374(2) 0.5845(2)
C100 C 0.2658(3) 0.6415(2) 0.6381(2)
H64 H 0.2352 0.6030 0.6567
C101 C 0.2432(8) 0.7034(6) 0.6622(5)
H65 H 0.1953 0.7076 0.6989
C102 C 0.2867(3) 0.7628(2) 0.6361(2)
H66 H 0.2661 0.8057 0.6535
C103 C 0.3610(8) 0.7556(5) 0.5836(5)
H67 H 0.3946 0.7934 0.5660
O28 O 1.2617(5) 0.4041(4) 0.1112(3)
O29 O 1.3548(5) 0.3075(3) 0.0921(3)
O30 O 1.5393(6) 0.3050(4) 0.0747(4)
C104 C 1.3417(8) 0.3703(6) 0.0998(5)
C105 C 1.4305(8) 0.4086(5) 0.0952(5)
C106 C 1.5253(8) 0.3726(6) 0.0816(5)
C107 C 1.6083(5) 0.4083(4) 0.0763(4)
H68 H 1.6728 0.3855 0.0667
C108 C 1.5945(10) 0.4791(7) 0.0854(6)
H69 H 1.6504 0.5033 0.0839
C109 C 1.5042(9) 0.5126(6) 0.0961(5)
H70 H 1.4965 0.5605 0.0993
C110 C 1.4208(9) 0.4763(6) 0.1025(5)
H71 H 1.3568 0.4998 0.1121
O42 O 0.4735(14) 0.7420(7) 0.3468(7)
C111 C 0.4775(19) 0.6733(14) 0.3303(11)
H72 H 0.4188 0.6523 0.3529
H73 H 0.5372 0.6469 0.3405
C112 C 0.4801(4) 0.6738(3) 0.2569(2)
H74 H 0.4868 0.6270 0.2437
H75 H 0.5363 0.6970 0.2352
H76 H 0.4189 0.6976 0.2477
O43 O 0.6603(6) 0.5674(4) 0.4164(4)
O44 O 0.7093(14) 0.8501(5) 0.5192(5)
O45 O 1.3066(8) 0.1164(5) 0.1744(6)
loop_
_geom_bond_atom_site_label_1
_geom_bond_atom_site_label_2
_geom_bond_site_symmetry_1
_geom_bond_site_symmetry_2
Ce1 O4 1_555 1_555
Fe1 N1 1_555 1_555
O1 C1 1_555 1_555
N1 C15 1_555 1_555
C1 O2 1_555 1_555
Ce2 O10 1_555 1_555
Fe2 N3 1_555 1_555
O2 Fe1 1_555 1_555
N2 Fe1 1_555 1_555
C2 C1 1_555 1_555
Fe3 N5 1_555 1_555
O3 Fe1 1_555 1_555
N3 C39 1_555 1_555
C3 C2 1_555 1_555
Fe4 O20 1_555 1_555
O4 C8 1_555 1_555
N4 Fe2 1_555 1_555
C4 C3 1_555 1_555
H1 C4 1_555 1_555
O5 Fe1 1_555 1_555
N5 C63 1_555 1_555
C5 C4 1_555 1_555
H2 C5 1_555 1_555
O6 Fe1 1_555 1_555
N6 Fe3 1_555 1_555
C6 C5 1_555 1_555
H3 C6 1_555 1_555
O7 Ce1 1_555 1_555
C7 C2 1_555 1_555
H4 C7 1_555 1_555
O8 Fe2 1_555 1_555
C8 O5 1_555 1_555
O9 Fe2 1_555 1_555
C9 C8 1_555 1_555
O10 C32 1_555 1_555
C10 O6 1_555 1_555
O11 Fe2 1_555 1_555
C11 C10 1_555 1_555
H5 C11 1_555 1_555
O12 Fe2 1_555 1_555
C12 C11 1_555 1_555
H6 C12 1_555 1_555
O13 Ce1 1_555 1_555
C13 C12 1_555 1_555
H7 C13 1_555 1_555
O14 Fe3 1_555 1_555
C14 C9 1_555 1_555
H8 C14 1_555 1_555
O15 Fe3 1_555 1_555
C15 H9 1_555 1_555
O16 C49 1_555 1_555
C16 C15 1_555 1_555
H10 C16 1_555 1_555
O17 Fe3 1_555 1_555
C17 C16 1_555 1_555
H11 C17 1_555 1_555
O18 Fe3 1_555 1_555
C18 C17 1_555 1_555
H12 C18 1_555 1_555
O19 C73 1_555 1_555
C19 N1 1_555 1_555
O20 C73 1_555 1_555
C20 N2 1_555 1_555
O21 Fe4 1_555 1_555
C21 C20 1_555 1_555
H13 C21 1_555 1_555
O22 Ce1 1_555 1_555
C22 C21 1_555 1_555
H14 C22 1_555 1_555
O23 Fe4 1_555 1_555
C23 C22 1_555 1_555
H15 C23 1_555 1_555
O24 Fe4 1_555 1_555
C24 N2 1_555 1_555
O25 C97 1_555 1_555
C25 O7 1_555 1_555
O26 C97 1_555 1_555
C26 C25 1_555 1_555
O27 C99 1_555 1_555
C27 O9 1_555 1_555
O28 C104 1_555 1_555
C28 C27 1_555 1_555
H16 C28 1_555 1_555
O29 C104 1_555 1_555
C29 C28 1_555 1_555
H17 C29 1_555 1_555
O30 C106 1_555 1_555
C30 C29 1_555 1_555
H18 C30 1_555 1_555
O31 Ce1 1_555 1_555
C31 C26 1_555 1_555
H19 C31 1_555 1_555
O32 Ce1 1_555 1_555
C32 O11 1_555 1_555
O33 Ce1 1_555 1_555
C33 C32 1_555 1_555
O34 Ce1 1_555 1_555
C34 O12 1_555 1_555
O35 Ce1 1_555 1_555
C35 C34 1_555 1_555
H20 C35 1_555 1_555
O36 Ce2 1_555 1_555
C36 C35 1_555 1_555
H21 C36 1_555 1_555
O37 Ce2 1_555 1_555
C37 C36 1_555 1_555
H22 C37 1_555 1_555
O38 Ce2 1_555 1_555
C38 C33 1_555 1_555
H23 C38 1_555 1_555
O39 Ce2 1_555 1_555
C39 H24 1_555 1_555
O40 Ce2 1_555 1_555
C40 C39 1_555 1_555
H25 C40 1_555 1_555
O41 Ce2 1_555 1_555
C41 C40 1_555 1_555
H26 C41 1_555 1_555
O42 C111 1_555 1_555
C42 C41 1_555 1_555
H27 C42 1_555 1_555
C43 N3 1_555 1_555
C44 N4 1_555 1_555
C45 C44 1_555 1_555
H28 C45 1_555 1_555
C46 C45 1_555 1_555
H29 C46 1_555 1_555
C47 C46 1_555 1_555
H30 C47 1_555 1_555
C48 N4 1_555 1_555
H31 C48 1_555 1_555
C49 O17 1_555 1_555
C50 C49 1_555 1_555
C51 O18 1_555 1_555
C52 C51 1_555 1_555
H32 C52 1_555 1_555
C53 C52 1_555 1_555
H33 C53 1_555 1_555
C54 C53 1_555 1_555
H34 C54 1_555 1_555
C55 C50 1_555 1_555
H35 C55 1_555 1_555
C56 O13 1_555 1_555
C57 C56 1_555 1_555
C58 O15 1_555 1_555
C59 C58 1_555 1_555
H36 C59 1_555 1_555
C60 C59 1_555 1_555
H37 C60 1_555 1_555
C61 C60 1_555 1_555
H38 C61 1_555 1_555
C62 C57 1_555 1_555
H39 C62 1_555 1_555
C63 H40 1_555 1_555
C64 C63 1_555 1_555
H41 C64 1_555 1_555
C65 C64 1_555 1_555
H42 C65 1_555 1_555
C66 C65 1_555 1_555
H43 C66 1_555 1_555
C67 N5 1_555 1_555
C68 N6 1_555 1_555
C69 C68 1_555 1_555
H44 C69 1_555 1_555
C70 C69 1_555 1_555
H45 C70 1_555 1_555
C71 C70 1_555 1_555
H46 C71 1_555 1_555
C72 N6 1_555 1_555
H47 C72 1_555 1_555
C73 C74 1_555 1_555
C74 C75 1_555 1_555
C75 O21 1_555 1_555
C76 C75 1_555 1_555
H48 C76 1_555 1_555
C77 C76 1_555 1_555
H49 C77 1_555 1_555
C78 C77 1_555 1_555
H50 C78 1_555 1_555
C79 C74 1_555 1_555
H51 C79 1_555 1_555
C80 O22 1_555 1_555
C81 C80 1_555 1_555
C82 O24 1_555 1_555
C83 C82 1_555 1_555
H52 C83 1_555 1_555
C84 C83 1_555 1_555
H53 C84 1_555 1_555
C85 C84 1_555 1_555
H54 C85 1_555 1_555
C86 C81 1_555 1_555
H55 C86 1_555 1_555
N7 Fe4 1_555 1_555
C87 N7 1_555 1_555
H56 C87 1_555 1_555
C88 C87 1_555 1_555
H57 C88 1_555 1_555
C89 C88 1_555 1_555
H58 C89 1_555 1_555
C90 C89 1_555 1_555
H59 C90 1_555 1_555
C91 N7 1_555 1_555
N8 Fe4 1_555 1_555
C92 C91 1_555 1_555
C93 C92 1_555 1_555
H60 C93 1_555 1_555
C94 C93 1_555 1_555
H61 C94 1_555 1_555
C95 C94 1_555 1_555
H62 C95 1_555 1_555
C96 N8 1_555 1_555
H63 C96 1_555 1_555
C97 C98 1_555 1_555
C98 C99 1_555 1_555
C99 C100 1_555 1_555
C100 H64 1_555 1_555
C101 C100 1_555 1_555
H65 C101 1_555 1_555
C102 C101 1_555 1_555
H66 C102 1_555 1_555
C103 C98 1_555 1_555
H67 C103 1_555 1_555
C104 C105 1_555 1_555
C105 C106 1_555 1_555
C106 C107 1_555 1_555
C107 H68 1_555 1_555
C108 C107 1_555 1_555
H69 C108 1_555 1_555
C109 C108 1_555 1_555
H70 C109 1_555 1_555
C110 C105 1_555 1_555
H71 C110 1_555 1_555
C111 H72 1_555 1_555
H73 C111 1_555 1_555
C112 C111 1_555 1_555
H74 C112 1_555 1_555
H75 C112 1_555 1_555
H76 C112 1_555 1_555
O16A Ce2 1_555 1_555
O19_2 Ce2 1_555 1_555
Ce2A O16 1_555 1_555
Ce2_2 O19 1_555 1_555
O3 C3 1_555 1_555
C6 C7 1_555 1_555
O8 C25 1_555 1_555
C9 C10 1_555 1_555
C13 C14 1_555 1_555
O14 C56 1_555 1_555
C18 C19 1_555 1_555
C19 C20 1_555 1_555
O23 C80 1_555 1_555
C23 C24 1_555 1_555
C26 C27 1_555 1_555
C30 C31 1_555 1_555
C33 C34 1_555 1_555
C37 C38 1_555 1_555
C42 C43 1_555 1_555
C43 C44 1_555 1_555
C47 C48 1_555 1_555
C50 C51 1_555 1_555
C54 C55 1_555 1_555
C57 C58 1_555 1_555
C61 C62 1_555 1_555
C66 C67 1_555 1_555
C67 C68 1_555 1_555
C71 C72 1_555 1_555
C78 C79 1_555 1_555
C81 C82 1_555 1_555
C85 C86 1_555 1_555
C90 C91 1_555 1_555
N8 C92 1_555 1_555
C95 C96 1_555 1_555
C102 C103 1_555 1_555
C109 C110 1_555 1_555

#END
