
#######################################################################
#
#                 Cambridge Crystallographic Data Centre
#                                CCDC 
#
#######################################################################
#
# If this CIF has been generated from an entry in the Cambridge 
# Structural Database, then it will include bibliographic, chemical, 
# crystal, experimental, refinement or atomic coordinate data resulting 
# from the CCDC's data processing and validation procedures.
#
#######################################################################

data_BAJWUG
_symmetry_cell_setting           triclinic
_symmetry_space_group_name_H-M   'P -1'
_symmetry_Int_Tables_number      2
_space_group_name_Hall           '-P 1'
loop_
_symmetry_equiv_pos_site_id
_symmetry_equiv_pos_as_xyz
1 x,y,z
2 -x,-y,-z
_cell_length_a                   12.8576(3)
_cell_length_b                   14.5491(3)
_cell_length_c                   14.8713(3)
_cell_angle_alpha                76.2500(10)
_cell_angle_beta                 68.6450(10)
_cell_angle_gamma                84.7590(10)
_cell_volume                     2516.64
loop_
_atom_site_label
_atom_site_type_symbol
_atom_site_fract_x
_atom_site_fract_y
_atom_site_fract_z
Mn1 Mn 0.22466(3) 0.24067(3) 0.40448(3)
Mn2 Mn 0.13909(3) 0.03377(3) 0.41928(2)
Mn3 Mn -0.04177(3) 0.19182(3) 0.53816(3)
Mn4 Mn -0.27176(3) 0.11086(3) 0.71951(3)
Na1 Na 0.40435(8) 0.08494(8) 0.27764(7)
O1 O 0.19149(15) 0.36991(13) 0.36688(13)
O2 O 0.34286(15) 0.24635(14) 0.27707(13)
O3 O 0.4787(2) 0.31139(18) 0.13937(18)
O4 O 0.11399(14) 0.23542(13) 0.53363(12)
O5 O 0.27006(13) 0.10844(12) 0.43456(12)
O6 O 0.5570(2) 0.43199(18) 0.4466(2)
H1 H 0.5887 0.4361 0.3854
O7 O -0.19535(14) 0.11127(12) 0.56265(12)
O8 O 0.24241(14) 0.02436(13) 0.26711(12)
O9 O 0.08685(14) 0.17825(12) 0.38774(12)
O10 O -0.11179(17) 0.32995(14) 0.58889(14)
O11 O 0.12461(14) -0.14250(13) 0.29904(12)
O12 O -0.42277(14) 0.08297(13) 0.73510(13)
O13 O -0.30847(14) 0.24173(13) 0.70799(13)
O14 O -0.60044(16) 0.10286(15) 0.75167(16)
O15 O 0.49359(18) -0.13649(17) -0.11080(14)
O16 O 0.56355(18) 0.05488(17) 0.32163(17)
N1 N 0.33478(18) 0.25820(17) 0.49467(16)
N2 N -0.02348(17) -0.02654(16) 0.42446(14)
N3 N -0.05044(17) -0.01163(16) 0.35240(16)
N4 N -0.0752(2) 0.0023(2) 0.28289(17)
N5 N 0.28039(17) -0.07482(16) 0.11704(15)
N6 N -0.11659(17) 0.27867(15) 0.41899(15)
C1 C 0.2276(3) 0.4267(2) 0.2764(2)
C2 C 0.1686(3) 0.5109(2) 0.2594(2)
H2 H 0.1039 0.5250 0.3110
C3 C 0.2035(4) 0.5737(2) 0.1685(3)
H3 H 0.1621 0.6303 0.1583
C4 C 0.2976(4) 0.5554(3) 0.0923(3)
H4 H 0.3218 0.5999 0.0307
C5 C 0.3549(4) 0.4741(3) 0.1055(3)
H5 H 0.4185 0.4613 0.0522
C6 C 0.3225(3) 0.4074(2) 0.1974(2)
C7 C 0.3863(3) 0.3182(2) 0.2044(2)
C8 C 0.2527(2) 0.2657(2) 0.5934(2)
H6 H 0.2785 0.3129 0.6188
H7 H 0.2460 0.2038 0.6407
C9 C 0.1405(2) 0.2954(2) 0.58437(19)
H8 H 0.0825 0.2904 0.6510
H9 H 0.1434 0.3620 0.5474
C10 C 0.3965(2) 0.1681(2) 0.4956(2)
H10 H 0.4259 0.1549 0.5504
H11 H 0.4608 0.1728 0.4326
C11 C 0.3210(2) 0.0870(2) 0.50867(19)
H12 H 0.3655 0.0280 0.5032
H13 H 0.2622 0.0768 0.5753
C12 C 0.4080(2) 0.3418(2) 0.4463(2)
H14 H 0.3610 0.3996 0.4512
H15 H 0.4449 0.3417 0.3751
C13 C 0.4978(3) 0.3471(2) 0.4895(3)
H16 H 0.4623 0.3417 0.5618
H17 H 0.5503 0.2933 0.4783
C14 C 0.2966(2) 0.0287(2) 0.09219(18)
H18 H 0.2765 0.0573 0.0333
H19 H 0.3762 0.0424 0.0758
C15 C 0.2250(2) 0.0726(2) 0.17831(18)
H20 H 0.2444 0.1402 0.1635
H21 H 0.1452 0.0689 0.1873
C16 C 0.1684(2) -0.1007(2) 0.12357(18)
H22 H 0.1754 -0.1268 0.0659
H23 H 0.1200 -0.0438 0.1229
C17 C 0.1165(2) -0.1742(2) 0.21889(18)
H24 H 0.0371 -0.1835 0.2299
H25 H 0.1561 -0.2354 0.2139
C18 C 0.3720(2) -0.1255(2) 0.05496(19)
H26 H 0.3556 -0.1941 0.0772
H27 H 0.4414 -0.1154 0.0655
C19 C 0.3925(3) -0.0959(2) -0.0553(2)
H28 H 0.3292 -0.1166 -0.0685
H29 H 0.3969 -0.0260 -0.0765
C20 C -0.4091(2) 0.2823(2) 0.7335(2)
C21 C -0.4142(3) 0.3762(2) 0.7406(3)
H30 H -0.3472 0.4084 0.7269
C22 C -0.5140(3) 0.4231(3) 0.7669(5)
H31 H -0.5163 0.4876 0.7703
C23 C -0.6131(4) 0.3755(4) 0.7887(6)
H32 H -0.6826 0.4079 0.8071
C24 C -0.6104(3) 0.2827(3) 0.7837(3)
H33 H -0.6782 0.2510 0.7992
C25 C -0.5093(2) 0.2341(2) 0.7560(2)
C26 C -0.5125(2) 0.1357(2) 0.74729(18)
C27 C -0.2629(2) 0.15740(19) 0.50768(18)
H34 H -0.3056 0.1096 0.4981
H35 H -0.3170 0.1999 0.5452
C28 C -0.1918(2) 0.21428(19) 0.40799(18)
H36 H -0.2408 0.2518 0.3744
H37 H -0.1468 0.1707 0.3663
C29 C -0.0216(2) 0.30608(19) 0.32568(18)
H38 H -0.0499 0.3287 0.2706
H39 H 0.0189 0.3589 0.3296
C30 C 0.0584(2) 0.22438(19) 0.30439(18)
H40 H 0.1272 0.2482 0.2483
H41 H 0.0237 0.1782 0.2847
C31 C -0.1215(2) 0.4022(2) 0.5078(2)
H42 H -0.1663 0.4558 0.5332
H43 H -0.0464 0.4262 0.4630
C32 C -0.1767(2) 0.36293(19) 0.4516(2)
H44 H -0.1783 0.4119 0.3931
H45 H -0.2548 0.3458 0.4944
C33 C 0.6578(3) 0.1133(2) 0.2829(2)
H46 H 0.6707 0.1424 0.2132
H47 H 0.7232 0.0754 0.2882
H48 H 0.6452 0.1630 0.3202
H49 H 0.485(3) -0.195(3) -0.102(3)
H50 H 0.581(3) 0.017(3) 0.299(3)
H51 H -0.165(3) 0.313(2) 0.627(2)
Mn2A Mn -0.13909(3) -0.03377(3) 0.58072(2)
Mn3A Mn 0.04177(3) -0.19182(3) 0.46184(3)
Mn4A Mn 0.27176(3) -0.11086(3) 0.28049(3)
Na1A Na -0.40435(8) -0.08494(8) 0.72236(7)
Na1A_2 Na 0.59565(8) -0.08494(8) -0.27764(7)
O7A O 0.19535(14) -0.11127(12) 0.43735(12)
O8A O -0.24241(14) -0.02436(13) 0.73289(12)
O11A O -0.12461(14) 0.14250(13) 0.70096(12)
O12A O 0.42277(14) -0.08297(13) 0.26490(13)
O15A O 0.50641(18) 0.13649(17) 0.11080(14)
N2A N 0.02348(17) 0.02654(16) 0.57554(14)
N5A N -0.28039(17) 0.07482(16) 0.88296(15)
H49A H 0.515(3) 0.195(3) 0.102(3)
loop_
_geom_bond_atom_site_label_1
_geom_bond_atom_site_label_2
_geom_bond_site_symmetry_1
_geom_bond_site_symmetry_2
Mn1 O1 1_555 1_555
Mn2 O5 1_555 1_555
Mn3 O4 1_555 1_555
Mn4 O7 1_555 1_555
Na1 O2 1_555 1_555
O1 C1 1_555 1_555
O2 Mn1 1_555 1_555
O3 C7 1_555 1_555
O4 Mn1 1_555 1_555
O5 Mn1 1_555 1_555
O6 H1 1_555 1_555
O7 Mn3 1_555 1_555
O8 Mn2 1_555 1_555
O9 Mn1 1_555 1_555
O10 Mn3 1_555 1_555
O11 C17 1_555 1_555
O12 Mn4 1_555 1_555
O13 Mn4 1_555 1_555
O14 C26 1_555 1_555
O15 C19 1_555 1_555
O16 Na1 1_555 1_555
N1 Mn1 1_555 1_555
N2 Mn2 1_555 1_555
N3 N2 1_555 1_555
N4 N3 1_555 1_555
N5 C14 1_555 1_555
N6 Mn3 1_555 1_555
C1 C2 1_555 1_555
C2 H2 1_555 1_555
C3 C2 1_555 1_555
H3 C3 1_555 1_555
C4 C3 1_555 1_555
H4 C4 1_555 1_555
C5 C4 1_555 1_555
H5 C5 1_555 1_555
C6 C1 1_555 1_555
C7 O2 1_555 1_555
C8 N1 1_555 1_555
H6 C8 1_555 1_555
H7 C8 1_555 1_555
C9 O4 1_555 1_555
H8 C9 1_555 1_555
H9 C9 1_555 1_555
C10 N1 1_555 1_555
H10 C10 1_555 1_555
H11 C10 1_555 1_555
C11 O5 1_555 1_555
H12 C11 1_555 1_555
H13 C11 1_555 1_555
C12 N1 1_555 1_555
H14 C12 1_555 1_555
H15 C12 1_555 1_555
C13 O6 1_555 1_555
H16 C13 1_555 1_555
H17 C13 1_555 1_555
C14 H18 1_555 1_555
H19 C14 1_555 1_555
C15 O8 1_555 1_555
H20 C15 1_555 1_555
H21 C15 1_555 1_555
C16 N5 1_555 1_555
H22 C16 1_555 1_555
H23 C16 1_555 1_555
C17 C16 1_555 1_555
H24 C17 1_555 1_555
H25 C17 1_555 1_555
C18 N5 1_555 1_555
H26 C18 1_555 1_555
H27 C18 1_555 1_555
C19 C18 1_555 1_555
H28 C19 1_555 1_555
H29 C19 1_555 1_555
C20 O13 1_555 1_555
C21 C20 1_555 1_555
H30 C21 1_555 1_555
C22 C21 1_555 1_555
H31 C22 1_555 1_555
C23 C22 1_555 1_555
H32 C23 1_555 1_555
C24 C23 1_555 1_555
H33 C24 1_555 1_555
C25 C20 1_555 1_555
C26 O12 1_555 1_555
C27 O7 1_555 1_555
H34 C27 1_555 1_555
H35 C27 1_555 1_555
C28 N6 1_555 1_555
H36 C28 1_555 1_555
H37 C28 1_555 1_555
C29 N6 1_555 1_555
H38 C29 1_555 1_555
H39 C29 1_555 1_555
C30 O9 1_555 1_555
H40 C30 1_555 1_555
H41 C30 1_555 1_555
C31 O10 1_555 1_555
H42 C31 1_555 1_555
H43 C31 1_555 1_555
C32 N6 1_555 1_555
H44 C32 1_555 1_555
H45 C32 1_555 1_555
C33 O16 1_555 1_555
H46 C33 1_555 1_555
H47 C33 1_555 1_555
H48 C33 1_555 1_555
H49 O15 1_555 1_555
H50 O16 1_555 1_555
H51 O10 1_555 1_555
Mn2A O7 1_555 1_555
Mn3A O11 1_555 1_555
Mn4A O8 1_555 1_555
Na1A O12 1_555 1_555
Na1A_2 O15 1_555 1_555
O7A Mn2 1_555 1_555
O8A Mn4 1_555 1_555
O11A Mn3 1_555 1_555
O12A Na1 1_555 1_555
O15A Na1 1_555 1_555
N2A Mn2 1_555 1_555
N5A Mn4 1_555 1_555
H49A O15A 1_555 1_555
Mn2 O9 1_555 1_555
Mn3 O9 1_555 1_555
Mn3 N2A 1_555 1_555
Mn4 O11A 1_555 1_555
Na1 O5 1_555 1_555
Na1 O8 1_555 1_555
O11 Mn4A 1_555 1_555
N2 Mn2A 1_555 1_555
N2 Mn3A 1_555 1_555
N5 Mn4A 1_555 1_555
C5 C6 1_555 1_555
C6 C7 1_555 1_555
C8 C9 1_555 1_555
C10 C11 1_555 1_555
C12 C13 1_555 1_555
C14 C15 1_555 1_555
C24 C25 1_555 1_555
C25 C26 1_555 1_555
C27 C28 1_555 1_555
C29 C30 1_555 1_555
C31 C32 1_555 1_555
Mn2A O8A 1_555 1_555
Mn2A N2A 1_555 1_555
Mn3A O7A 1_555 1_555
Mn4A O7A 1_555 1_555
Mn4A O12A 1_555 1_555
Na1A O8A 1_555 1_555

#END
