
#######################################################################
#
#                 Cambridge Crystallographic Data Centre
#                                CCDC 
#
#######################################################################
#
# If this CIF has been generated from an entry in the Cambridge 
# Structural Database, then it will include bibliographic, chemical, 
# crystal, experimental, refinement or atomic coordinate data resulting 
# from the CCDC's data processing and validation procedures.
#
#######################################################################

data_BAKFOJ
_symmetry_cell_setting           orthorhombic
_symmetry_space_group_name_H-M   'P b c a'
_symmetry_Int_Tables_number      61
_space_group_name_Hall           '-P 2ac 2ab'
loop_
_symmetry_equiv_pos_site_id
_symmetry_equiv_pos_as_xyz
1 x,y,z
2 1/2-x,-y,1/2+z
3 -x,1/2+y,1/2-z
4 1/2+x,1/2-y,-z
5 -x,-y,-z
6 1/2+x,y,1/2-z
7 x,1/2-y,1/2+z
8 1/2-x,1/2+y,z
_cell_length_a                   12.06000(10)
_cell_length_b                   10.7599(2)
_cell_length_c                   15.79050(10)
_cell_angle_alpha                90
_cell_angle_beta                 90
_cell_angle_gamma                90
_cell_volume                     2049.04
loop_
_atom_site_label
_atom_site_type_symbol
_atom_site_fract_x
_atom_site_fract_y
_atom_site_fract_z
Cd1 Cd 0.06916(3) 0.15685(4) 0.74103(2)
Rb1 Rb -0.14328(5) -0.04640(5) 0.61394(3)
Rb2 Rb 0.32959(5) -0.03477(5) 0.62141(4)
Cl1 Cl 0.08227(12) 0.1452(2) 0.58256(9)
C1 C 0.1019(4) -0.1265(5) 0.7598(3)
C2 C 0.1721(4) -0.2462(5) 0.7595(3)
O1 O 0.1543(3) -0.0265(4) 0.7617(2)
O2 O 0.2736(3) -0.2313(3) 0.7601(2)
O3 O 0.1223(3) -0.3493(3) 0.7567(2)
O4 O -0.0024(3) -0.1358(3) 0.7556(2)
O5 O 0.0470(3) 0.1550(4) 0.8894(2)
N1 N -0.3204(4) -0.2562(5) 0.4987(3)
O6 O -0.3615(4) -0.2872(4) 0.4305(3)
O7 O -0.3398(4) -0.1519(4) 0.5281(3)
O8 O -0.2572(3) -0.3297(4) 0.5368(3)
O2G O 0.2264(3) 0.2687(3) 0.7601(2)
O3B O -0.1223(3) 0.1507(3) 0.7433(2)
O4B O 0.0024(3) 0.3642(3) 0.7444(2)
Rb2E Rb -0.17041(5) -0.03477(5) 0.87859(4)
Cl1D Cl -0.08227(12) -0.1452(2) 0.41744(9)
O2E O -0.2264(3) -0.2313(3) 0.7399(2)
O8G O -0.2428(3) 0.1703(4) 0.5368(3)
Rb1E Rb 0.35672(5) -0.04640(5) 0.88606(3)
Cl1G Cl 0.41773(12) -0.3548(2) 0.58256(9)
O3G O 0.3777(3) 0.1507(3) 0.7567(2)
O4E O 0.4976(3) -0.1358(3) 0.7444(2)
O6C O 0.1385(4) -0.2128(4) 0.5695(3)
O7D O 0.3398(4) 0.1519(4) 0.4719(3)
O8C O 0.2428(3) -0.1703(4) 0.4632(3)
Rb1D Rb 0.14328(5) 0.04640(5) 0.38606(3)
Rb2G Rb 0.17041(5) 0.46523(5) 0.62141(4)
Cd1G Cd 0.43084(3) -0.34315(4) 0.74103(2)
Cd1B Cd -0.06916(3) -0.34315(4) 0.75897(2)
Rb1B Rb 0.14328(5) -0.54640(5) 0.88606(3)
Rb2G_2 Rb 0.17041(5) -0.53477(5) 0.62141(4)
Rb2C Rb -0.17041(5) -0.46523(5) 0.37859(4)
Rb2D Rb -0.32959(5) 0.03477(5) 0.37859(4)
Rb1G Rb -0.35672(5) -0.54640(5) 0.61394(3)
loop_
_geom_bond_atom_site_label_1
_geom_bond_atom_site_label_2
_geom_bond_site_symmetry_1
_geom_bond_site_symmetry_2
Cd1 Cl1 1_555 1_555
Rb1 Cl1 1_555 1_555
Rb2 Cl1 1_555 1_555
Cl1 Rb1D 1_555 1_555
C1 C2 1_555 1_555
C2 O2 1_555 1_555
O1 Cd1 1_555 1_555
O2 Rb1E 1_555 1_555
O3 C2 1_555 1_555
O4 Rb1 1_555 1_555
O5 Cd1 1_555 1_555
N1 O6 1_555 1_555
O6 Rb2C 1_555 1_555
O7 Rb1 1_555 1_555
O8 N1 1_555 1_555
O2G Cd1 1_555 1_555
O3B Cd1 1_555 1_555
O4B Cd1 1_555 1_555
Rb2E O4 1_555 1_555
Cl1D Rb1 1_555 1_555
O2E Rb1 1_555 1_555
O8G Rb1 1_555 1_555
Rb1E O3G 1_555 1_555
Cl1G Rb2 1_555 1_555
O3G Rb2 1_555 1_555
O4E Rb2 1_555 1_555
O6C Rb2 1_555 1_555
O7D Rb2 1_555 1_555
O8C Rb2 1_555 1_555
Rb1D Cl1D 1_555 1_555
Rb2G Cl1 1_555 1_555
Cd1G O2 1_555 1_555
Cd1B O3 1_555 1_555
Rb1B O3 1_555 1_555
Rb2G_2 O3 1_555 1_555
Rb2C O8 1_555 1_555
Rb2D O7 1_555 1_555
Rb1G O8 1_555 1_555
Rb1 O3B 1_555 1_555
Rb2 O1 1_555 1_555
C1 O1 1_555 1_555
C1 O4 1_555 1_555
O4 Cd1B 1_555 1_555
N1 O7 1_555 1_555
O3B Rb2E 1_555 1_555
O4B Rb2G 1_555 1_555
Cl1D Rb2C 1_555 1_555
Cl1D Rb2D 1_555 1_555
O2E Cd1B 1_555 1_555
O8G Rb2D 1_555 1_555
Rb1E O4E 1_555 1_555
Cl1G Cd1G 1_555 1_555
Cl1G Rb2G_2 1_555 1_555
O4E Cd1G 1_555 1_555
O7D Rb1D 1_555 1_555
O8C Rb1D 1_555 1_555

#END
