
#######################################################################
#
#                 Cambridge Crystallographic Data Centre
#                                CCDC 
#
#######################################################################
#
# If this CIF has been generated from an entry in the Cambridge 
# Structural Database, then it will include bibliographic, chemical, 
# crystal, experimental, refinement or atomic coordinate data resulting 
# from the CCDC's data processing and validation procedures.
#
#######################################################################

data_BAKHOM
_symmetry_cell_setting           monoclinic
_symmetry_space_group_name_H-M   'C 2/c'
_symmetry_Int_Tables_number      15
_space_group_name_Hall           '-C 2yn'
loop_
_symmetry_equiv_pos_site_id
_symmetry_equiv_pos_as_xyz
1 x,y,z
2 -x,y,1/2-z
3 1/2+x,1/2+y,z
4 1/2-x,1/2+y,1/2-z
5 -x,-y,-z
6 x,-y,1/2+z
7 1/2-x,1/2-y,-z
8 1/2+x,1/2-y,1/2+z
_cell_length_a                   26.688(3)
_cell_length_b                   6.4934(8)
_cell_length_c                   11.1130(13)
_cell_angle_alpha                90
_cell_angle_beta                 103.873(7)
_cell_angle_gamma                90
_cell_volume                     1869.66
loop_
_atom_site_label
_atom_site_type_symbol
_atom_site_fract_x
_atom_site_fract_y
_atom_site_fract_z
S1 S 0.38558(2) 0.32458(7) 0.21132(4)
Na1 Na 0.51082(3) -0.23947(12) 0.43765(7)
O1 O 0.43254(5) -0.0437(2) 0.14959(12)
C1 C 0.35996(7) -0.1076(3) 0.26486(17)
S2 S 0.413828(18) 0.04457(7) 0.25152(4)
O2 O 0.45070(5) 0.0386(2) 0.37305(12)
C2 C 0.34792(8) -0.1251(3) 0.37970(18)
H1 H 0.3693(9) -0.064(4) 0.450(2)
C3 C 0.30443(8) -0.2374(3) 0.3893(2)
H2 H 0.2963(9) -0.250(4) 0.469(2)
C4 C 0.27359(9) -0.3289(3) 0.2836(2)
H3 H 0.2440(10) -0.404(4) 0.290(2)
C5 C 0.28670(8) -0.3136(3) 0.17006(19)
H4 H 0.2664(9) -0.385(4) 0.098(2)
C6 C 0.32999(8) -0.2033(3) 0.15943(18)
H5 H 0.3401(8) -0.194(3) 0.086(2)
O3 O 0.44060(6) -0.4613(2) 0.47744(14)
H6 H 0.4235(12) -0.412(5) 0.524(3)
O4 O 0.50000 -0.4418(3) 0.25000
H7 H 0.4216(11) -0.503(4) 0.413(3)
H8 H 0.4747(10) -0.525(4) 0.237(3)
S1D S 0.61442(2) -0.32458(7) 0.78868(4)
Na1D Na 0.48918(3) 0.23947(12) 0.56235(7)
Na1A Na 0.48918(3) -0.23947(12) 0.06235(7)
Na1D_2 Na 0.48918(3) -0.76053(12) 0.56235(7)
Na1E Na 0.51082(3) 0.23947(12) 0.93765(7)
O1D O 0.56746(5) 0.0437(2) 0.85041(12)
O1A O 0.56746(5) -0.0437(2) 0.35041(12)
O1E O 0.43254(5) 0.0437(2) 0.64959(12)
C1D C 0.64004(7) 0.1076(3) 0.73514(17)
S2D S 0.586172(18) -0.04457(7) 0.74848(4)
O2D O 0.54930(5) -0.0386(2) 0.62695(12)
C2D C 0.65208(8) 0.1251(3) 0.62030(18)
H1D H 0.6307(9) 0.064(4) 0.550(2)
C3D C 0.69557(8) 0.2374(3) 0.6107(2)
H2D H 0.7037(9) 0.250(4) 0.531(2)
C4D C 0.72641(9) 0.3289(3) 0.7164(2)
H3D H 0.7560(10) 0.404(4) 0.710(2)
C5D C 0.71330(8) 0.3136(3) 0.82994(19)
H4D H 0.7336(9) 0.385(4) 0.902(2)
C6D C 0.67001(8) 0.2033(3) 0.84057(18)
H5D H 0.6599(8) 0.194(3) 0.914(2)
O3D O 0.55940(6) -0.5387(2) 0.52256(14)
O3D_2 O 0.55940(6) 0.4613(2) 0.52256(14)
O3_2 O 0.44060(6) 0.5387(2) 0.47744(14)
H6D H 0.5765(12) -0.588(5) 0.476(3)
H6D_2 H 0.5765(12) 0.412(5) 0.476(3)
H6_2 H 0.4235(12) 0.588(5) 0.524(3)
O4D O 0.50000 0.4418(3) 0.75000
H7D H 0.5784(11) -0.497(4) 0.587(3)
H7D_2 H 0.5784(11) 0.503(4) 0.587(3)
H7_2 H 0.4216(11) 0.497(4) 0.413(3)
H8A H 0.5253(10) -0.525(4) 0.263(3)
H8D H 0.5253(10) 0.525(4) 0.763(3)
H8E H 0.4747(10) 0.525(4) 0.737(3)
loop_
_geom_bond_atom_site_label_1
_geom_bond_atom_site_label_2
_geom_bond_site_symmetry_1
_geom_bond_site_symmetry_2
S1 S2 1_555 1_555
Na1 O2 1_555 1_555
O1 S2 1_555 1_555
C1 S2 1_555 1_555
S2 O2 1_555 1_555
O2 Na1D 1_555 1_555
C2 C1 1_555 1_555
H1 C2 1_555 1_555
C3 C2 1_555 1_555
H2 C3 1_555 1_555
C4 C3 1_555 1_555
H3 C4 1_555 1_555
C5 C4 1_555 1_555
H4 C5 1_555 1_555
C6 C1 1_555 1_555
H5 C6 1_555 1_555
O3 Na1 1_555 1_555
H6 O3 1_555 1_555
O4 Na1 1_555 1_555
H7 O3 1_555 1_555
H8 O4 1_555 1_555
S1D S2D 1_555 1_555
Na1D O1E 1_555 1_555
Na1A O1 1_555 1_555
Na1D_2 O3 1_555 1_555
Na1E O1D 1_555 1_555
O1D S2D 1_555 1_555
O1A Na1 1_555 1_555
C1D S2D 1_555 1_555
S2D O2D 1_555 1_555
O2D Na1 1_555 1_555
C2D C1D 1_555 1_555
H1D C2D 1_555 1_555
C3D C2D 1_555 1_555
H2D C3D 1_555 1_555
C4D C3D 1_555 1_555
H3D C4D 1_555 1_555
C5D C4D 1_555 1_555
H4D C5D 1_555 1_555
C6D C1D 1_555 1_555
H5D C6D 1_555 1_555
O3D Na1 1_555 1_555
O3D_2 Na1D 1_555 1_555
O3_2 Na1D 1_555 1_555
H6D O3D 1_555 1_555
H6D_2 O3D_2 1_555 1_555
H6_2 O3_2 1_555 1_555
O4D Na1D 1_555 1_555
H7D O3D 1_555 1_555
H7D_2 O3D_2 1_555 1_555
H7_2 O3_2 1_555 1_555
H8A O4 1_555 1_555
H8D O4D 1_555 1_555
H8E O4D 1_555 1_555
C5 C6 1_555 1_555
O4 Na1A 1_555 1_555
Na1D O2D 1_555 1_555
Na1D_2 O3D 1_555 1_555
Na1E O4D 1_555 1_555
C5D C6D 1_555 1_555

#END
