
#######################################################################
#
#                 Cambridge Crystallographic Data Centre
#                                CCDC 
#
#######################################################################
#
# If this CIF has been generated from an entry in the Cambridge 
# Structural Database, then it will include bibliographic, chemical, 
# crystal, experimental, refinement or atomic coordinate data resulting 
# from the CCDC's data processing and validation procedures.
#
#######################################################################

data_BAKJAZ
_symmetry_cell_setting           monoclinic
_symmetry_space_group_name_H-M   'P 2/c'
_symmetry_Int_Tables_number      13
_space_group_name_Hall           '-P 2yc'
loop_
_symmetry_equiv_pos_site_id
_symmetry_equiv_pos_as_xyz
1 x,y,z
2 -x,y,1/2-z
3 -x,-y,-z
4 x,-y,1/2+z
_cell_length_a                   8.345(2)
_cell_length_b                   10.427(1)
_cell_length_c                   18.756(2)
_cell_angle_alpha                90
_cell_angle_beta                 100.19(1)
_cell_angle_gamma                90
_cell_volume                     1606.28
loop_
_atom_site_label
_atom_site_type_symbol
_atom_site_fract_x
_atom_site_fract_y
_atom_site_fract_z
Mn1 Mn 0.13657(6) 0.17529(5) 0.67264(3)
O1 O 0.2615(3) 0.0466(3) 0.7509(1)
O2 O 0.1015(3) 0.1103(3) 0.8258(1)
O3 O 0.3438(3) -0.2225(3) 1.1058(1)
O4 O 0.1510(3) -0.0831(3) 1.0698(1)
N1 N -0.0022(3) 0.3463(3) 0.6152(2)
N2 N 0.2279(4) 0.3547(3) 0.7356(1)
C1 C -0.1196(4) 0.3379(4) 0.5573(2)
C2 C -0.1951(5) 0.4460(5) 0.5229(2)
C3 C -0.1470(5) 0.5649(5) 0.5484(2)
C4 C -0.0216(5) 0.5770(4) 0.6094(2)
C5 C 0.0386(6) 0.6974(4) 0.6389(3)
C6 C 0.1582(6) 0.7026(4) 0.6994(3)
C7 C 0.2236(5) 0.5880(4) 0.7344(2)
C8 C 0.3446(5) 0.5866(4) 0.7974(2)
C9 C 0.4035(5) 0.4735(5) 0.8269(2)
C10 C 0.3440(5) 0.3578(4) 0.7945(2)
C11 C 0.1700(4) 0.4674(4) 0.7056(2)
C12 C 0.0448(4) 0.4632(4) 0.6414(2)
C13 C 0.2181(4) 0.0458(3) 0.8119(2)
C14 C 0.3137(4) -0.0326(3) 0.8716(2)
C15 C 0.4638(4) -0.0843(3) 0.8644(2)
C16 C 0.5499(4) -0.1560(4) 0.9206(2)
C17 C 0.4885(4) -0.1779(4) 0.9833(2)
C18 C 0.3402(4) -0.1241(3) 0.9913(2)
C19 C 0.2533(4) -0.0508(3) 0.9354(2)
C20 C 0.2752(4) -0.1436(3) 1.0602(2)
H1 H -0.1544 0.2500 0.53810
H2 H -0.2854 0.4367 0.47920
H3 H -0.2002 0.6446 0.52420
H4 H -0.0073 0.7795 0.61510
H5 H 0.2003 0.7889 0.71940
H6 H 0.3868 0.6714 0.82000
H7 H 0.4907 0.4724 0.87220
H8 H 0.3901 0.2741 0.81610
H9 H 0.5092 -0.0696 0.81820
H10 H 0.6609 -0.1930 0.91570
H11 H 0.5513 -0.2331 1.02350
H12 H 0.1452 -0.0104 0.94130
O2A O -0.1015(3) 0.1103(3) 0.6742(1)
O3C O 0.3438(3) 0.2225(3) 0.6058(1)
O4C O 0.1510(3) 0.0831(3) 0.5698(1)
Mn1A Mn -0.13657(6) 0.17529(5) 0.82736(3)
Mn1C Mn 0.13657(6) -0.17529(5) 1.17264(3)
loop_
_geom_bond_atom_site_label_1
_geom_bond_atom_site_label_2
_geom_bond_site_symmetry_1
_geom_bond_site_symmetry_2
Mn1 O1 1_555 1_555
O1 C13 1_555 1_555
O2 C13 1_555 1_555
O3 C20 1_555 1_555
O4 C20 1_555 1_555
N1 Mn1 1_555 1_555
N2 Mn1 1_555 1_555
C1 N1 1_555 1_555
C2 C1 1_555 1_555
C3 C2 1_555 1_555
C4 C3 1_555 1_555
C5 C4 1_555 1_555
C6 C5 1_555 1_555
C7 C6 1_555 1_555
C8 C7 1_555 1_555
C9 C8 1_555 1_555
C10 N2 1_555 1_555
C11 N2 1_555 1_555
C12 N1 1_555 1_555
C13 C14 1_555 1_555
C14 C15 1_555 1_555
C15 C16 1_555 1_555
C16 C17 1_555 1_555
C17 C18 1_555 1_555
C18 C19 1_555 1_555
C19 C14 1_555 1_555
C20 C18 1_555 1_555
H1 C1 1_555 1_555
H2 C2 1_555 1_555
H3 C3 1_555 1_555
H4 C5 1_555 1_555
H5 C6 1_555 1_555
H6 C8 1_555 1_555
H7 C9 1_555 1_555
H8 C10 1_555 1_555
H9 C15 1_555 1_555
H10 C16 1_555 1_555
H11 C17 1_555 1_555
H12 C19 1_555 1_555
O2A Mn1 1_555 1_555
O3C Mn1 1_555 1_555
O4C Mn1 1_555 1_555
Mn1A O2 1_555 1_555
Mn1C O3 1_555 1_555
O4 Mn1C 1_555 1_555
C4 C12 1_555 1_555
C7 C11 1_555 1_555
C9 C10 1_555 1_555
C11 C12 1_555 1_555

#END
