
#######################################################################
#
#                 Cambridge Crystallographic Data Centre
#                                CCDC 
#
#######################################################################
#
# If this CIF has been generated from an entry in the Cambridge 
# Structural Database, then it will include bibliographic, chemical, 
# crystal, experimental, refinement or atomic coordinate data resulting 
# from the CCDC's data processing and validation procedures.
#
#######################################################################

data_BAKVIU
_symmetry_cell_setting           monoclinic
_symmetry_space_group_name_H-M   'P 21/n'
_symmetry_Int_Tables_number      14
_space_group_name_Hall           '-P 2yn'
loop_
_symmetry_equiv_pos_site_id
_symmetry_equiv_pos_as_xyz
1 x,y,z
2 1/2-x,1/2+y,1/2-z
3 -x,-y,-z
4 1/2+x,1/2-y,1/2+z
_cell_length_a                   10.8653(10)
_cell_length_b                   19.4100(17)
_cell_length_c                   17.4414(17)
_cell_angle_alpha                90
_cell_angle_beta                 91.944(2)
_cell_angle_gamma                90
_cell_volume                     3676.2
loop_
_atom_site_label
_atom_site_type_symbol
_atom_site_fract_x
_atom_site_fract_y
_atom_site_fract_z
Cd1 Cd 0.14034(3) 0.310665(15) 0.375081(17)
S1 S -0.03805(11) 0.42832(6) 0.24485(7)
O4 O -0.0554(3) 0.3238(2) -0.07029(18)
H7 H -0.1101 0.2950 -0.0764
O5 O 0.0255(3) 0.49410(17) 0.24555(19)
O6 O 0.0369(4) 0.37559(18) 0.2814(2)
O7 O -0.1600(3) 0.4319(2) 0.2731(2)
O8 O -0.3189(3) 0.25859(17) 0.07664(19)
O9 O -0.2372(3) 0.25296(16) -0.03818(18)
N1 N 0.1370(3) 0.40619(18) 0.4529(2)
N2 N 0.1608(3) 0.51593(17) 0.4808(2)
N3 N 0.1914(3) 0.73914(17) 0.5027(2)
N4 N 0.0479(3) 0.72989(18) 0.5876(2)
N5 N 0.3251(3) 0.35061(18) 0.3290(2)
N6 N 0.4679(3) 0.38366(18) 0.2498(2)
N7 N 0.3543(3) 0.60150(17) 0.2194(2)
N8 N 0.3399(3) 0.71323(18) 0.2000(2)
C1 C -0.1457(4) 0.3281(2) 0.0525(2)
C2 C -0.0581(4) 0.3495(2) 0.0016(3)
C3 C 0.0301(5) 0.3977(3) 0.0229(3)
H8 H 0.0871 0.4124 -0.0122
C4 C 0.0334(4) 0.4237(3) 0.0960(3)
H9 H 0.0928 0.4560 0.1107
C5 C -0.0525(4) 0.4016(2) 0.1483(2)
C6 C -0.1398(4) 0.3549(2) 0.1258(2)
H10 H -0.1972 0.3406 0.1609
C7 C -0.2423(4) 0.2757(2) 0.0299(3)
C8 C 0.1424(4) 0.4688(2) 0.4259(3)
H11 H 0.1343 0.4794 0.3740
C9 C 0.1512(4) 0.4141(2) 0.5309(3)
H12 H 0.1506 0.3784 0.5664
C10 C 0.1662(4) 0.4813(2) 0.5481(3)
H13 H 0.1779 0.5002 0.5968
C11 C 0.1816(4) 0.5894(2) 0.4699(3)
H14 H 0.1684 0.6129 0.5180
H15 H 0.1211 0.6066 0.4325
C12 C 0.3081(4) 0.6074(2) 0.4435(2)
C13 C 0.3970(4) 0.5564(3) 0.4352(3)
H16 H 0.3783 0.5112 0.4483
C14 C 0.5117(5) 0.5711(3) 0.4082(3)
H17 H 0.5698 0.5362 0.4036
C15 C 0.5396(5) 0.6373(3) 0.3880(3)
H18 H 0.6161 0.6475 0.3686
C16 C 0.4524(4) 0.6892(3) 0.3966(3)
H19 H 0.4722 0.7343 0.3838
C17 C 0.3380(4) 0.6751(2) 0.4236(2)
C18 C 0.2494(4) 0.7335(2) 0.4290(3)
H20 H 0.2926 0.7762 0.4191
H21 H 0.1856 0.7281 0.3892
C19 C 0.0714(4) 0.7331(2) 0.5151(3)
H22 H 0.0110 0.7315 0.4760
C20 C 0.2488(4) 0.7406(2) 0.5730(3)
H23 H 0.3330 0.7450 0.5833
C21 C 0.1615(4) 0.7344(3) 0.6248(3)
H24 H 0.1753 0.7334 0.6777
C22 C 0.3506(4) 0.3652(2) 0.2576(3)
H25 H 0.2931 0.3629 0.2169
C23 C 0.4349(5) 0.3600(2) 0.3682(3)
H26 H 0.4473 0.3535 0.4208
C24 C 0.5222(5) 0.3800(3) 0.3205(3)
H27 H 0.6042 0.3894 0.3335
C25 C 0.5281(4) 0.4028(2) 0.1786(3)
H28 H 0.5605 0.3614 0.1555
H29 H 0.5971 0.4328 0.1913
C26 C 0.4453(4) 0.4382(2) 0.1209(3)
C27 C 0.4314(5) 0.4090(2) 0.0483(3)
H30 H 0.4700 0.3674 0.0380
C28 C 0.3603(5) 0.4413(3) -0.0087(3)
H31 H 0.3526 0.4218 -0.0573
C29 C 0.3017(5) 0.5019(3) 0.0066(3)
H32 H 0.2532 0.5233 -0.0314
C30 C 0.3147(4) 0.5312(2) 0.0784(3)
H33 H 0.2750 0.5726 0.0882
C31 C 0.3854(4) 0.5006(2) 0.1363(2)
C32 C 0.4031(5) 0.5320(2) 0.2155(3)
H34 H 0.3623 0.5032 0.2525
H35 H 0.4903 0.5328 0.2295
C33 C 0.2408(4) 0.6212(2) 0.2405(3)
H36 H 0.1802 0.5930 0.2602
C34 C 0.2328(4) 0.6890(2) 0.2277(2)
H37 H 0.1637 0.7158 0.2364
C35 C 0.4112(4) 0.6585(2) 0.1953(3)
H38 H 0.4909 0.6593 0.1775
Cd1C Cd -0.35966(3) 0.189335(15) -0.124919(17)
Cd1B Cd -0.14034(3) 0.689335(15) 0.624919(17)
Cd1A Cd 0.35966(3) 0.810665(15) 0.124919(17)
O9C O 0.2628(3) 0.24704(16) 0.46182(18)
N4B N -0.0479(3) 0.27011(18) 0.4124(2)
N8A N 0.1601(3) 0.21323(18) 0.3000(2)
O1 O 0.2027(4) 0.9429(3) 0.7307(4)
H1 H 0.2512 0.9277 0.6975
H2 H 0.2444 0.9476 0.7725
O2 O 0.4247(3) 0.88116(19) 0.6925(2)
H3 H 0.4575 0.8808 0.7374
H4 H 0.4619 0.8617 0.6563
O3 O 0.0248(4) 0.2882(3) 0.6849(3)
H5 H 0.0678 0.3161 0.6595
H6 H 0.0009 0.2616 0.6487
loop_
_geom_bond_atom_site_label_1
_geom_bond_atom_site_label_2
_geom_bond_site_symmetry_1
_geom_bond_site_symmetry_2
Cd1 O6 1_555 1_555
S1 O5 1_555 1_555
O1 H1 1_555 1_555
H2 O1 1_555 1_555
O2 H3 1_555 1_555
H4 O2 1_555 1_555
O3 H5 1_555 1_555
H6 O3 1_555 1_555
O4 H7 1_555 1_555
O6 S1 1_555 1_555
O7 S1 1_555 1_555
O8 C7 1_555 1_555
O9 C7 1_555 1_555
N1 Cd1 1_555 1_555
N2 C8 1_555 1_555
N3 C18 1_555 1_555
N4 C19 1_555 1_555
N5 Cd1 1_555 1_555
N6 C22 1_555 1_555
N7 C32 1_555 1_555
N8 C34 1_555 1_555
C1 C2 1_555 1_555
C2 O4 1_555 1_555
C3 C2 1_555 1_555
H8 C3 1_555 1_555
C4 C3 1_555 1_555
H9 C4 1_555 1_555
C5 S1 1_555 1_555
C6 C1 1_555 1_555
H10 C6 1_555 1_555
C7 C1 1_555 1_555
C8 N1 1_555 1_555
H11 C8 1_555 1_555
C9 N1 1_555 1_555
H12 C9 1_555 1_555
C10 N2 1_555 1_555
H13 C10 1_555 1_555
C11 N2 1_555 1_555
H14 C11 1_555 1_555
H15 C11 1_555 1_555
C12 C11 1_555 1_555
C13 C12 1_555 1_555
H16 C13 1_555 1_555
C14 C13 1_555 1_555
H17 C14 1_555 1_555
C15 C14 1_555 1_555
H18 C15 1_555 1_555
C16 C15 1_555 1_555
H19 C16 1_555 1_555
C17 C12 1_555 1_555
C18 C17 1_555 1_555
H20 C18 1_555 1_555
H21 C18 1_555 1_555
C19 N3 1_555 1_555
H22 C19 1_555 1_555
C20 N3 1_555 1_555
H23 C20 1_555 1_555
C21 N4 1_555 1_555
H24 C21 1_555 1_555
C22 N5 1_555 1_555
H25 C22 1_555 1_555
C23 N5 1_555 1_555
H26 C23 1_555 1_555
C24 N6 1_555 1_555
H27 C24 1_555 1_555
C25 N6 1_555 1_555
H28 C25 1_555 1_555
H29 C25 1_555 1_555
C26 C25 1_555 1_555
C27 C26 1_555 1_555
H30 C27 1_555 1_555
C28 C27 1_555 1_555
H31 C28 1_555 1_555
C29 C28 1_555 1_555
H32 C29 1_555 1_555
C30 C29 1_555 1_555
H33 C30 1_555 1_555
C31 C26 1_555 1_555
C32 C31 1_555 1_555
H34 C32 1_555 1_555
H35 C32 1_555 1_555
C33 N7 1_555 1_555
H36 C33 1_555 1_555
C34 C33 1_555 1_555
H37 C34 1_555 1_555
C35 N7 1_555 1_555
H38 C35 1_555 1_555
Cd1C O9 1_555 1_555
Cd1B N4 1_555 1_555
Cd1A N8 1_555 1_555
O9C Cd1 1_555 1_555
N4B Cd1 1_555 1_555
N8A Cd1 1_555 1_555
N8 C35 1_555 1_555
C4 C5 1_555 1_555
C5 C6 1_555 1_555
C9 C10 1_555 1_555
C16 C17 1_555 1_555
C20 C21 1_555 1_555
C23 C24 1_555 1_555
C30 C31 1_555 1_555

#END
