
#######################################################################
#
#                 Cambridge Crystallographic Data Centre
#                                CCDC 
#
#######################################################################
#
# If this CIF has been generated from an entry in the Cambridge 
# Structural Database, then it will include bibliographic, chemical, 
# crystal, experimental, refinement or atomic coordinate data resulting 
# from the CCDC's data processing and validation procedures.
#
#######################################################################

data_BAKWER
_symmetry_cell_setting           monoclinic
_symmetry_space_group_name_H-M   'P 21/c'
_symmetry_Int_Tables_number      14
_space_group_name_Hall           '-P 2ybc'
loop_
_symmetry_equiv_pos_site_id
_symmetry_equiv_pos_as_xyz
1 x,y,z
2 -x,1/2+y,1/2-z
3 -x,-y,-z
4 x,1/2-y,1/2+z
_cell_length_a                   8.5329(16)
_cell_length_b                   17.922(3)
_cell_length_c                   16.035(3)
_cell_angle_alpha                90
_cell_angle_beta                 103.585(3)
_cell_angle_gamma                90
_cell_volume                     2383.57
loop_
_atom_site_label
_atom_site_type_symbol
_atom_site_fract_x
_atom_site_fract_y
_atom_site_fract_z
Ni1 Ni 0.38221(4) 0.245013(16) 0.355665(19)
O1 O 0.1645(2) 0.19014(9) 0.36093(11)
O2 O 0.1765(2) 0.26212(9) 0.25213(11)
O3 O -0.3398(2) 0.03562(10) 0.26141(12)
O4 O -0.5449(2) 0.14023(9) 0.30988(11)
O5 O -0.4604(2) 0.17807(9) 0.44310(10)
N1 N 0.3353(2) 0.33270(10) 0.42872(12)
N2 N 0.2484(2) 0.39827(11) 0.52443(12)
N3 N 0.4549(2) 0.69656(11) 0.69364(12)
N4 N 0.2589(3) 0.63136(12) 0.72493(14)
C1 C 0.1020(3) 0.21547(14) 0.28709(16)
C2 C -0.0611(3) 0.18792(13) 0.24084(15)
C3 C -0.1413(3) 0.21794(17) 0.16309(17)
H1 H -0.0979 0.2582 0.1396
C4 C -0.2883(4) 0.1870(2) 0.12024(18)
H2 H -0.3439 0.2073 0.0683
C5 C -0.3514(3) 0.12685(18) 0.15433(18)
H3 H -0.4477 0.1056 0.1245
C6 C -0.2722(3) 0.09781(14) 0.23286(16)
C7 C -0.1275(3) 0.12830(13) 0.27662(15)
H4 H -0.0747 0.1092 0.3297
C8 C -0.2979(3) 0.02030(14) 0.34898(18)
C9 C -0.2007(4) -0.04132(16) 0.3760(2)
H5 H -0.1587 -0.0683 0.3367
C10 C -0.1666(4) -0.06251(17) 0.4605(3)
H6 H -0.1027 -0.1042 0.4782
C11 C -0.2255(4) -0.02303(19) 0.5183(2)
H7 H -0.2041 -0.0381 0.5754
C12 C -0.3171(4) 0.03954(16) 0.4922(2)
H8 H -0.3539 0.0673 0.5327
C13 C -0.3564(3) 0.06242(14) 0.40729(16)
C14 C -0.4607(3) 0.13029(13) 0.38436(17)
C15 C 0.3366(3) 0.40723(13) 0.40803(16)
H9 H 0.3688 0.4263 0.3608
C16 C 0.2843(3) 0.44827(14) 0.46626(16)
H10 H 0.2744 0.4999 0.4671
C17 C 0.2809(3) 0.32941(12) 0.49960(15)
C18 C 0.2623(4) 0.26107(13) 0.54799(17)
H11 H 0.3208 0.2209 0.5298
H12 H 0.1502 0.2481 0.5374
H13 H 0.3037 0.2698 0.6082
C19 C 0.1877(4) 0.41453(14) 0.60174(17)
H14 H 0.2578 0.3908 0.6510
H15 H 0.0810 0.3930 0.5945
C20 C 0.1788(4) 0.49617(14) 0.61943(17)
H16 H 0.1068 0.5201 0.5710
H17 H 0.2850 0.5181 0.6261
C21 C 0.1188(4) 0.51038(14) 0.70004(18)
H18 H 0.1920 0.4871 0.7485
H19 H 0.0138 0.4873 0.6937
C22 C 0.1055(4) 0.59341(15) 0.7183(2)
H20 H 0.0243 0.6159 0.6726
H21 H 0.0715 0.5996 0.7715
C23 C 0.3957(4) 0.61852(15) 0.78879(18)
H22 H 0.4039 0.5876 0.8362
C24 C 0.5136(4) 0.65866(15) 0.76980(16)
H23 H 0.6190 0.6609 0.8025
C25 C 0.3014(3) 0.67875(13) 0.66821(16)
C26 C 0.1882(3) 0.70611(17) 0.58936(17)
H24 H 0.2412 0.7427 0.5619
H25 H 0.0959 0.7283 0.6042
H26 H 0.1540 0.6651 0.5509
Ni1_2 Ni -0.61779(4) 0.245013(16) 0.355665(19)
Ni1B Ni 0.61779(4) 0.754987(16) 0.644335(19)
O4_2 O 0.4551(2) 0.14023(9) 0.30988(11)
O5_2 O 0.5396(2) 0.17807(9) 0.44310(10)
N3B N 0.5451(2) 0.30344(11) 0.30636(12)
loop_
_geom_bond_atom_site_label_1
_geom_bond_atom_site_label_2
_geom_bond_site_symmetry_1
_geom_bond_site_symmetry_2
Ni1 O1 1_555 1_555
O1 C1 1_555 1_555
O2 Ni1 1_555 1_555
O3 C6 1_555 1_555
O4 C14 1_555 1_555
O5 C14 1_555 1_555
N1 Ni1 1_555 1_555
N2 C16 1_555 1_555
N3 C24 1_555 1_555
N4 C22 1_555 1_555
C1 O2 1_555 1_555
C2 C1 1_555 1_555
C3 C2 1_555 1_555
H1 C3 1_555 1_555
C4 C3 1_555 1_555
H2 C4 1_555 1_555
C5 C4 1_555 1_555
H3 C5 1_555 1_555
C6 C5 1_555 1_555
C7 C2 1_555 1_555
H4 C7 1_555 1_555
C8 O3 1_555 1_555
C9 C8 1_555 1_555
H5 C9 1_555 1_555
C10 C9 1_555 1_555
H6 C10 1_555 1_555
C11 C10 1_555 1_555
H7 C11 1_555 1_555
C12 C11 1_555 1_555
H8 C12 1_555 1_555
C13 C8 1_555 1_555
C14 C13 1_555 1_555
C15 N1 1_555 1_555
H9 C15 1_555 1_555
C16 C15 1_555 1_555
H10 C16 1_555 1_555
C17 N1 1_555 1_555
C18 C17 1_555 1_555
H11 C18 1_555 1_555
H12 C18 1_555 1_555
H13 C18 1_555 1_555
C19 N2 1_555 1_555
H14 C19 1_555 1_555
H15 C19 1_555 1_555
C20 C19 1_555 1_555
H16 C20 1_555 1_555
H17 C20 1_555 1_555
C21 C20 1_555 1_555
H18 C21 1_555 1_555
H19 C21 1_555 1_555
C22 C21 1_555 1_555
H20 C22 1_555 1_555
H21 C22 1_555 1_555
C23 N4 1_555 1_555
H22 C23 1_555 1_555
C24 C23 1_555 1_555
H23 C24 1_555 1_555
C25 N3 1_555 1_555
C26 C25 1_555 1_555
H24 C26 1_555 1_555
H25 C26 1_555 1_555
H26 C26 1_555 1_555
Ni1_2 O4 1_555 1_555
Ni1B N3 1_555 1_555
O4_2 Ni1 1_555 1_555
O5_2 Ni1 1_555 1_555
N3B Ni1 1_555 1_555
O5 Ni1_2 1_555 1_555
N2 C17 1_555 1_555
N4 C25 1_555 1_555
C6 C7 1_555 1_555
C12 C13 1_555 1_555

#END
