
#######################################################################
#
#                 Cambridge Crystallographic Data Centre
#                                CCDC 
#
#######################################################################
#
# If this CIF has been generated from an entry in the Cambridge 
# Structural Database, then it will include bibliographic, chemical, 
# crystal, experimental, refinement or atomic coordinate data resulting 
# from the CCDC's data processing and validation procedures.
#
#######################################################################

data_BAKXAO
_symmetry_cell_setting           monoclinic
_symmetry_space_group_name_H-M   'P 21/c'
_symmetry_Int_Tables_number      14
_space_group_name_Hall           '-P 2ybc'
loop_
_symmetry_equiv_pos_site_id
_symmetry_equiv_pos_as_xyz
1 x,y,z
2 -x,1/2+y,1/2-z
3 -x,-y,-z
4 x,1/2-y,1/2+z
_cell_length_a                   8.2929(9)
_cell_length_b                   21.668(2)
_cell_length_c                   10.9940(11)
_cell_angle_alpha                90
_cell_angle_beta                 90.242(2)
_cell_angle_gamma                90
_cell_volume                     1975.5
loop_
_atom_site_label
_atom_site_type_symbol
_atom_site_fract_x
_atom_site_fract_y
_atom_site_fract_z
C1 C 0.1638(5) 0.50907(19) 0.3716(4)
H1 H 0.1801 0.5515 0.3727
C2 C 0.0260(5) 0.4837(2) 0.3117(4)
H2 H -0.0475 0.5097 0.2731
C3 C 0.0020(5) 0.4216(2) 0.3108(4)
H3 H -0.0893 0.4049 0.2741
C4 C 0.1181(5) 0.3826(2) 0.3666(4)
H4 H 0.1104 0.3399 0.3620
C5 C 0.2433(5) 0.41109(19) 0.4281(4)
C6 C 0.3682(5) 0.3774(2) 0.4975(4)
C7 C 0.5073(5) 0.3145(2) 0.6093(4)
C8 C 0.5551(5) 0.26411(19) 0.6855(4)
C9 C 0.6590(5) 0.2718(2) 0.7948(4)
H5 H 0.6948 0.3094 0.8256
C10 C 0.6965(6) 0.2111(2) 0.8468(4)
H6 H 0.7633 0.2041 0.9135
C11 C 0.6148(5) 0.1649(2) 0.7793(4)
H7 H 0.6190 0.1235 0.8013
C12 C 0.2403(5) 0.2726(2) 0.5321(4)
C13 C 0.2562(5) 0.22845(19) 0.4429(4)
H8 H 0.3423 0.2291 0.3891
C14 C 0.1390(5) 0.1831(2) 0.4366(4)
H9 H 0.1486 0.1510 0.3809
C15 C 0.0083(5) 0.1856(2) 0.5129(4)
C16 C -0.0050(5) 0.23061(19) 0.6027(4)
H10 H -0.0918 0.2309 0.6559
C17 C 0.1156(5) 0.2750(2) 0.6103(4)
H11 H 0.1103 0.3061 0.6686
C18 C -0.1050(6) 0.0912(2) 0.4345(4)
H12 H -0.0906 0.1051 0.3524
H13 H -0.2027 0.0676 0.4399
H14 H -0.0151 0.0658 0.4579
C19 C 0.3715(5) 0.4723(2) 0.7598(4)
C20 C 0.4395(5) 0.48702(19) 0.8844(4)
C21 C 0.3845(5) 0.4552(2) 0.9845(4)
H15 H 0.3045 0.4254 0.9756
C22 C 0.5511(5) 0.5323(2) 0.9013(4)
H16 H 0.5851 0.5554 0.8349
Cd1 Cd 0.5000 0.5000 0.5000
N1 N 0.5922(4) 0.36627(16) 0.6009(3)
N2 N 0.5010(4) 0.40563(17) 0.5286(3)
N3 N 0.2710(4) 0.47085(16) 0.4269(3)
N4 N 0.3690(4) 0.31905(16) 0.5413(3)
O1 O -0.1146(4) 0.14360(14) 0.5145(3)
O2 O 0.4104(3) 0.51171(12) 0.6762(3)
O3 O 0.2836(4) 0.42654(14) 0.7457(3)
S1 S 0.51019(13) 0.18921(5) 0.65782(10)
C1B C 0.8362(5) 0.49093(19) 0.6284(4)
H1B H 0.8199 0.4485 0.6273
C2B C 0.9740(5) 0.5163(2) 0.6883(4)
H2B H 1.0475 0.4903 0.7269
C3B C 0.9980(5) 0.5784(2) 0.6892(4)
H3B H 1.0893 0.5951 0.7259
C4B C 0.8819(5) 0.6174(2) 0.6334(4)
H4B H 0.8896 0.6601 0.6380
C5B C 0.7567(5) 0.58891(19) 0.5719(4)
C6B C 0.6318(5) 0.6226(2) 0.5025(4)
C7B C 0.4927(5) 0.6855(2) 0.3907(4)
C8B C 0.4449(5) 0.73589(19) 0.3145(4)
C9B C 0.3410(5) 0.7282(2) 0.2052(4)
H5B H 0.3052 0.6906 0.1744
C10B C 0.3035(6) 0.7889(2) 0.1532(4)
H6B H 0.2367 0.7959 0.0865
C11B C 0.3852(5) 0.8351(2) 0.2207(4)
H7B H 0.3810 0.8765 0.1987
C12B C 0.7597(5) 0.7274(2) 0.4679(4)
C13B C 0.7438(5) 0.77155(19) 0.5571(4)
H8B H 0.6577 0.7709 0.6109
C14B C 0.8610(5) 0.8169(2) 0.5634(4)
H9B H 0.8514 0.8490 0.6191
C15B C 0.9917(5) 0.8144(2) 0.4871(4)
C16B C 1.0050(5) 0.76939(19) 0.3973(4)
H10B H 1.0918 0.7691 0.3441
C17B C 0.8844(5) 0.7250(2) 0.3897(4)
H11B H 0.8897 0.6939 0.3314
C18B C 1.1050(6) 0.9088(2) 0.5655(4)
H12B H 1.0906 0.8949 0.6476
H13B H 1.2027 0.9324 0.5601
H14B H 1.0151 0.9342 0.5421
C19B C 0.6285(5) 0.5277(2) 1.2402(4)
C20B C 0.5605(5) 0.51298(19) 1.1156(4)
C21B C 0.6155(5) 0.5448(2) 1.0155(4)
H15B H 0.6955 0.5746 1.0244
C22B C 0.4489(5) 0.4677(2) 1.0987(4)
H16B H 0.4149 0.4446 1.1651
Cd1_2 Cd 0.5000 0.5000 1.5000
N1B N 0.4078(4) 0.63373(16) 0.3991(3)
N2B N 0.4990(4) 0.59437(17) 0.4714(3)
N3B N 0.7290(4) 0.52915(16) 0.5731(3)
N4B N 0.6310(4) 0.68095(16) 0.4587(3)
O1B O 1.1146(4) 0.85640(14) 0.4855(3)
O2B O 0.5896(3) 0.48829(12) 1.3238(3)
O2B_2 O 0.5896(3) 0.48829(12) 0.3238(3)
O3B O 0.7164(4) 0.57346(14) 1.2543(3)
S1B S 0.48981(13) 0.81079(5) 0.34218(10)
loop_
_geom_bond_atom_site_label_1
_geom_bond_atom_site_label_2
_geom_bond_site_symmetry_1
_geom_bond_site_symmetry_2
C1 H1 1_555 1_555
C2 C1 1_555 1_555
H2 C2 1_555 1_555
C3 C2 1_555 1_555
H3 C3 1_555 1_555
C4 C3 1_555 1_555
H4 C4 1_555 1_555
C5 C4 1_555 1_555
C6 C5 1_555 1_555
C7 C8 1_555 1_555
C8 C9 1_555 1_555
C9 H5 1_555 1_555
C10 C9 1_555 1_555
H6 C10 1_555 1_555
C11 C10 1_555 1_555
H7 C11 1_555 1_555
C12 C13 1_555 1_555
C13 H8 1_555 1_555
C14 C13 1_555 1_555
H9 C14 1_555 1_555
C15 C14 1_555 1_555
C16 C15 1_555 1_555
H10 C16 1_555 1_555
C17 C12 1_555 1_555
H11 C17 1_555 1_555
C18 H12 1_555 1_555
H13 C18 1_555 1_555
H14 C18 1_555 1_555
C19 C20 1_555 1_555
C20 C21 1_555 1_555
C21 H15 1_555 1_555
C22 C20 1_555 1_555
H16 C22 1_555 1_555
Cd1 N2 1_555 1_555
N1 C7 1_555 1_555
N2 C6 1_555 1_555
N3 C1 1_555 1_555
N4 C6 1_555 1_555
O1 C15 1_555 1_555
O2 C19 1_555 1_555
O3 C19 1_555 1_555
S1 C8 1_555 1_555
C1B H1B 1_555 1_555
C2B C1B 1_555 1_555
H2B C2B 1_555 1_555
C3B C2B 1_555 1_555
H3B C3B 1_555 1_555
C4B C3B 1_555 1_555
H4B C4B 1_555 1_555
C5B C4B 1_555 1_555
C6B C5B 1_555 1_555
C7B C8B 1_555 1_555
C8B C9B 1_555 1_555
C9B H5B 1_555 1_555
C10B C9B 1_555 1_555
H6B C10B 1_555 1_555
C11B C10B 1_555 1_555
H7B C11B 1_555 1_555
C12B C13B 1_555 1_555
C13B H8B 1_555 1_555
C14B C13B 1_555 1_555
H9B C14B 1_555 1_555
C15B C14B 1_555 1_555
C16B C15B 1_555 1_555
H10B C16B 1_555 1_555
C17B C12B 1_555 1_555
H11B C17B 1_555 1_555
C18B H12B 1_555 1_555
H13B C18B 1_555 1_555
H14B C18B 1_555 1_555
C19B C20B 1_555 1_555
C20B C21B 1_555 1_555
C21B C22 1_555 1_555
H15B C21B 1_555 1_555
C22B C21 1_555 1_555
H16B C22B 1_555 1_555
Cd1_2 O2B 1_555 1_555
N1B C7B 1_555 1_555
N2B Cd1 1_555 1_555
N3B Cd1 1_555 1_555
N4B C6B 1_555 1_555
O1B C15B 1_555 1_555
O2B C19B 1_555 1_555
O2B_2 Cd1 1_555 1_555
O3B C19B 1_555 1_555
S1B C8B 1_555 1_555
C5 N3 1_555 1_555
C7 N4 1_555 1_555
C11 S1 1_555 1_555
C12 N4 1_555 1_555
C16 C17 1_555 1_555
C18 O1 1_555 1_555
Cd1 N3 1_555 1_555
Cd1 O2 1_555 1_555
N1 N2 1_555 1_555
C1B N3B 1_555 1_555
C5B N3B 1_555 1_555
C6B N2B 1_555 1_555
C7B N4B 1_555 1_555
C11B S1B 1_555 1_555
C12B N4B 1_555 1_555
C16B C17B 1_555 1_555
C18B O1B 1_555 1_555
C20B C22B 1_555 1_555
N1B N2B 1_555 1_555

#END
