
#######################################################################
#
#                 Cambridge Crystallographic Data Centre
#                                CCDC 
#
#######################################################################
#
# If this CIF has been generated from an entry in the Cambridge 
# Structural Database, then it will include bibliographic, chemical, 
# crystal, experimental, refinement or atomic coordinate data resulting 
# from the CCDC's data processing and validation procedures.
#
#######################################################################

data_BAKXUI
_symmetry_cell_setting           monoclinic
_symmetry_space_group_name_H-M   'P 21/c'
_symmetry_Int_Tables_number      14
_space_group_name_Hall           '-P 2ybc'
loop_
_symmetry_equiv_pos_site_id
_symmetry_equiv_pos_as_xyz
1 x,y,z
2 -x,1/2+y,1/2-z
3 -x,-y,-z
4 x,1/2-y,1/2+z
_cell_length_a                   7.8466(10)
_cell_length_b                   27.483(4)
_cell_length_c                   9.6583(13)
_cell_angle_alpha                90
_cell_angle_beta                 96.663(3)
_cell_angle_gamma                90
_cell_volume                     2068.73
loop_
_atom_site_label
_atom_site_type_symbol
_atom_site_fract_x
_atom_site_fract_y
_atom_site_fract_z
Br1 Br 0.12605(6) 0.751005(18) 0.17570(5)
C1 C 0.2022(5) 0.60236(16) 0.1547(4)
C2 C 0.2024(5) 0.58772(15) 0.2920(4)
H1 H 0.2198 0.5552 0.3158
C3 C 0.1764(5) 0.62173(16) 0.3942(4)
C4 C 0.1495(5) 0.67009(15) 0.3565(4)
H2 H 0.1282 0.6929 0.4236
C5 C 0.1539(5) 0.68448(15) 0.2225(4)
C6 C 0.1796(5) 0.65101(16) 0.1205(4)
H3 H 0.1817 0.6611 0.0288
C7 C 0.2155(6) 0.56492(18) 0.0403(5)
C8 C 0.1677(6) 0.60720(18) 0.5450(5)
C9 C 0.2303(6) 0.45248(17) 0.6156(4)
H4 H 0.2047 0.4727 0.5388
C10 C 0.2678(6) 0.40459(17) 0.5920(5)
H5 H 0.2663 0.3932 0.5011
C11 C 0.3071(6) 0.37368(17) 0.7011(5)
C12 C 0.3017(6) 0.39255(18) 0.8305(5)
H6 H 0.3236 0.3728 0.9087
C13 C 0.2636(6) 0.44116(18) 0.8455(5)
H7 H 0.2628 0.4532 0.9354
C14 C 0.3548(6) 0.32060(16) 0.6869(5)
H8 H 0.4635 0.3153 0.7437
H9 H 0.2696 0.3012 0.7269
C15 C 0.3704(6) 0.30135(16) 0.5466(5)
H10 H 0.4331 0.3249 0.4975
H11 H 0.2561 0.2988 0.4969
C16 C 0.4574(5) 0.25275(17) 0.5393(4)
H12 H 0.4598 0.2452 0.4414
H13 H 0.5757 0.2568 0.5795
C17 C 0.3885(6) 0.20902(16) 0.6062(4)
C18 C 0.4930(6) 0.17214(18) 0.6591(5)
H14 H 0.6112 0.1749 0.6599
C19 C 0.4239(7) 0.13082(17) 0.7115(4)
H15 H 0.4987 0.1063 0.7465
C20 C 0.1576(6) 0.16041(18) 0.6677(5)
H16 H 0.0403 0.1575 0.6724
C21 C 0.2154(6) 0.20222(17) 0.6121(4)
H17 H 0.1377 0.2261 0.5782
N1 N 0.2285(4) 0.47155(12) 0.7413(4)
N2 N 0.2565(6) 0.12392(14) 0.7149(4)
O1 O 0.2259(4) 0.58183(10) -0.0805(3)
O2 O 0.2082(4) 0.52163(12) 0.0679(3)
O3 O 0.2102(4) 0.56328(11) 0.5758(3)
O4 O 0.1233(4) 0.63734(11) 0.6265(3)
O5 O -0.0978(3) 0.53879(10) 0.7466(2)
H18 H -0.1258 0.5158 0.7930
H19 H -0.1553 0.5648 0.7511
Zn1 Zn 0.15817(7) 0.541741(19) 0.75772(5)
O1_2 O 0.2259(4) 0.58183(10) 0.9195(3)
Zn1_2 Zn 0.15817(7) 0.541741(19) -0.24228(5)
loop_
_geom_bond_atom_site_label_1
_geom_bond_atom_site_label_2
_geom_bond_site_symmetry_1
_geom_bond_site_symmetry_2
Br1 C5 1_555 1_555
C1 C2 1_555 1_555
C2 H1 1_555 1_555
C3 C2 1_555 1_555
C4 C3 1_555 1_555
H2 C4 1_555 1_555
C5 C4 1_555 1_555
C6 C1 1_555 1_555
H3 C6 1_555 1_555
C7 C1 1_555 1_555
C8 C3 1_555 1_555
C9 H4 1_555 1_555
C10 C9 1_555 1_555
H5 C10 1_555 1_555
C11 C10 1_555 1_555
C12 C11 1_555 1_555
H6 C12 1_555 1_555
C13 C12 1_555 1_555
H7 C13 1_555 1_555
C14 C11 1_555 1_555
H8 C14 1_555 1_555
H9 C14 1_555 1_555
C15 C14 1_555 1_555
H10 C15 1_555 1_555
H11 C15 1_555 1_555
C16 C15 1_555 1_555
H12 C16 1_555 1_555
H13 C16 1_555 1_555
C17 C16 1_555 1_555
C18 C17 1_555 1_555
H14 C18 1_555 1_555
C19 C18 1_555 1_555
H15 C19 1_555 1_555
C20 H16 1_555 1_555
C21 C17 1_555 1_555
H17 C21 1_555 1_555
N1 C9 1_555 1_555
N2 C19 1_555 1_555
O1 C7 1_555 1_555
O2 C7 1_555 1_555
O3 C8 1_555 1_555
O4 C8 1_555 1_555
O5 H18 1_555 1_555
H19 O5 1_555 1_555
Zn1 N1 1_555 1_555
O1_2 Zn1 1_555 1_555
Zn1_2 O1 1_555 1_555
C5 C6 1_555 1_555
C13 N1 1_555 1_555
C20 C21 1_555 1_555
C20 N2 1_555 1_555
O3 Zn1 1_555 1_555
O5 Zn1 1_555 1_555

#END
