
#######################################################################
#
#                 Cambridge Crystallographic Data Centre
#                                CCDC 
#
#######################################################################
#
# If this CIF has been generated from an entry in the Cambridge 
# Structural Database, then it will include bibliographic, chemical, 
# crystal, experimental, refinement or atomic coordinate data resulting 
# from the CCDC's data processing and validation procedures.
#
#######################################################################

data_BALFAV01
_symmetry_cell_setting           monoclinic
_symmetry_space_group_name_H-M   'C 2'
_symmetry_Int_Tables_number      5
_space_group_name_Hall           'C 2y'
loop_
_symmetry_equiv_pos_site_id
_symmetry_equiv_pos_as_xyz
1 x,y,z
2 -x,y,-z
3 1/2+x,1/2+y,z
4 1/2-x,1/2+y,-z
_cell_length_a                   7.447(4)
_cell_length_b                   7.460(5)
_cell_length_c                   11.945(6)
_cell_angle_alpha                90.00
_cell_angle_beta                 108.07(4)
_cell_angle_gamma                90.00
_cell_volume                     630.87
loop_
_atom_site_label
_atom_site_type_symbol
_atom_site_fract_x
_atom_site_fract_y
_atom_site_fract_z
Mo1 Mo 0.23614(8) 0.1308(3) 0.47218(5)
O1 O 0.1608(7) 0.132(4) 0.3225(4)
O2 O 0.2959(8) 0.3802(12) 0.5001(8)
O3 O 0.5000 0.0863(10) 0.5000
O4 O 0.0000 0.1763(9) 0.5000
N1 N 0.3443(8) 0.130(4) 0.6888(5)
C1 C 0.2669(18) 0.0244(17) 0.7478(10)
H1 H 0.1669 -0.0482 0.7062
C2 C 0.3267(19) 0.0156(19) 0.8692(10)
H2 H 0.2742 -0.0680 0.9077
C3 C 0.4668(10) 0.133(2) 0.9340(6)
C4 C 0.5416(19) 0.2469(18) 0.8693(10)
H3 H 0.6333 0.3298 0.9076
C5 C 0.4810(18) 0.2385(17) 0.7475(10)
H4 H 0.5385 0.3118 0.7056
C3A C 0.5332(10) 0.133(2) 1.0660(6)
C2A C 0.6733(19) 0.0156(19) 1.1308(10)
C1A C 0.7331(18) 0.0244(17) 1.2522(10)
N1A N 0.6557(8) 0.130(4) 1.3112(5)
C5A C 0.5190(18) 0.2385(17) 1.2525(10)
C4A C 0.4584(19) 0.2469(18) 1.1307(10)
H3A H 0.3667 0.3298 1.0924
H4A H 0.4615 0.3118 1.2944
H1A H 0.8331 -0.0482 1.2938
H2A H 0.7258 -0.0680 1.0923
O2C O 0.2041(8) -0.1198(12) 0.4999(8)
Mo1C Mo 0.26386(8) -0.3692(3) 0.52782(5)
O1C O 0.3392(7) -0.368(4) 0.6775(4)
Mo1C_2 Mo 0.26386(8) 0.6308(3) 0.52782(5)
Mo1A Mo 0.76386(8) 0.1308(3) 0.52782(5)
Mo1A_2 Mo -0.23614(8) 0.1308(3) 0.52782(5)
Mo1A_3 Mo 0.76386(8) 0.1308(3) 1.52782(5)
O2_2 O 0.2959(8) -0.6198(12) 0.5001(8)
O3B O 0.0000 -0.4137(10) 0.5000
O4B O 0.5000 -0.3237(9) 0.5000
N1C N 0.1557(8) -0.370(4) 0.3112(5)
loop_
_geom_bond_atom_site_label_1
_geom_bond_atom_site_label_2
_geom_bond_site_symmetry_1
_geom_bond_site_symmetry_2
Mo1 O1 1_555 1_555
O2 Mo1 1_555 1_555
O3 Mo1 1_555 1_555
O4 Mo1 1_555 1_555
N1 Mo1 1_555 1_555
C1 N1 1_555 1_555
H1 C1 1_555 1_555
C2 C1 1_555 1_555
H2 C2 1_555 1_555
C3 C2 1_555 1_555
C4 C3 1_555 1_555
H3 C4 1_555 1_555
C5 N1 1_555 1_555
H4 C5 1_555 1_555
C3A C3 1_555 1_555
C2A C3A 1_555 1_555
C1A C2A 1_555 1_555
N1A C1A 1_555 1_555
C5A N1A 1_555 1_555
C4A C3A 1_555 1_555
H3A C4A 1_555 1_555
H4A C5A 1_555 1_555
H1A C1A 1_555 1_555
H2A C2A 1_555 1_555
O2C Mo1 1_555 1_555
Mo1C O2C 1_555 1_555
O1C Mo1C 1_555 1_555
Mo1C_2 O2 1_555 1_555
Mo1A O3 1_555 1_555
Mo1A_2 O4 1_555 1_555
Mo1A_3 N1A 1_555 1_555
O2_2 Mo1C 1_555 1_555
O3B Mo1C 1_555 1_555
O4B Mo1C 1_555 1_555
N1C Mo1C 1_555 1_555
C4 C5 1_555 1_555
C5A C4A 1_555 1_555

#END
