
#######################################################################
#
#                 Cambridge Crystallographic Data Centre
#                                CCDC 
#
#######################################################################
#
# If this CIF has been generated from an entry in the Cambridge 
# Structural Database, then it will include bibliographic, chemical, 
# crystal, experimental, refinement or atomic coordinate data resulting 
# from the CCDC's data processing and validation procedures.
#
#######################################################################

data_BALFAV03
_symmetry_cell_setting           monoclinic
_symmetry_space_group_name_H-M   'P 21/c'
_symmetry_Int_Tables_number      14
_space_group_name_Hall           '-P 2ybc'
loop_
_symmetry_equiv_pos_site_id
_symmetry_equiv_pos_as_xyz
1 x,y,z
2 -x,1/2+y,1/2-z
3 -x,-y,-z
4 x,1/2-y,1/2+z
_cell_length_a                   7.5727(6)
_cell_length_b                   7.3675(7)
_cell_length_c                   22.433(3)
_cell_angle_alpha                90
_cell_angle_beta                 90.396(8)
_cell_angle_gamma                90
_cell_volume                     1251.55
loop_
_atom_site_label
_atom_site_type_symbol
_atom_site_fract_x
_atom_site_fract_y
_atom_site_fract_z
Mo1 Mo 0.46750(8) 0.4032(1) 0.23632(2)
Mo2 Mo -0.03634(8) 0.4078(1) 0.26356(3)
O1 O 0.5372(6) 0.1702(7) 0.2520(2)
O2 O 0.2378(6) 0.3828(6) 0.2468(2)
O3 O 0.4849(7) 0.4137(9) 0.1609(2)
O4 O 0.7378(6) 0.4586(7) 0.2536(2)
O5 O -0.0112(7) 0.4151(9) 0.3387(2)
O6 O -0.0382(6) 0.1664(7) 0.2485(2)
N1 N 0.4760(8) 0.4309(9) 0.3435(3)
N2 N -0.0258(8) 0.4338(9) 0.1565(3)
C1 C 0.590(1) 0.337(1) 0.3774(4)
C2 C 0.604(1) 0.359(1) 0.4387(4)
C3 C 0.495(1) 0.485(1) 0.4663(3)
C4 C 0.374(1) 0.578(1) 0.4318(3)
C5 C 0.369(1) 0.548(1) 0.3708(3)
C6 C 0.085(1) 0.336(1) 0.1230(3)
C7 C 0.099(1) 0.360(1) 0.0620(3)
C8 C -0.007(1) 0.485(1) 0.0336(3)
C9 C -0.123(1) 0.581(1) 0.0677(4)
C10 C -0.129(1) 0.552(1) 0.1288(3)
H1 H 0.6662 0.2478 0.3582
H2 H 0.6900 0.2894 0.4617
H3 H 0.2934 0.6636 0.4498
H4 H 0.2830 0.6155 0.3465
H5 H 0.1603 0.2440 0.1425
H6 H 0.1847 0.2887 0.0393
H7 H -0.2030 0.6684 0.0495
H8 H -0.2141 0.6199 0.1524
C3B C 0.505(1) 0.515(1) 0.5337(3)
C2B C 0.396(1) 0.641(1) 0.5613(4)
C1B C 0.410(1) 0.663(1) 0.6226(4)
N1B N 0.5240(8) 0.5691(9) 0.6565(3)
C5B C 0.631(1) 0.452(1) 0.6292(3)
C4B C 0.626(1) 0.422(1) 0.5682(3)
H3B H 0.7066 0.3364 0.5502
H4B H 0.7170 0.3845 0.6535
H1B H 0.3338 0.7522 0.6418
H2B H 0.3100 0.7106 0.5383
C8B C 0.007(1) 0.515(1) -0.0336(3)
C7B C -0.099(1) 0.640(1) -0.0620(3)
C6B C -0.085(1) 0.664(1) -0.1230(3)
N2B N 0.0258(8) 0.5662(9) -0.1565(3)
C10B C 0.129(1) 0.448(1) -0.1288(3)
C9B C 0.123(1) 0.419(1) -0.0677(4)
H7B H 0.2030 0.3316 -0.0495
H8B H 0.2141 0.3801 -0.1524
H5B H -0.1603 0.7560 -0.1425
H6B H -0.1847 0.7113 -0.0393
O1A O 0.4628(6) 0.6702(7) 0.2480(2)
Mo1A Mo 0.53250(8) 0.9032(1) 0.26368(2)
Mo2_2 Mo 0.96366(8) 0.4078(1) 0.26356(3)
O4_2 O -0.2622(6) 0.4586(7) 0.2536(2)
O6A O 0.0382(6) 0.6664(7) 0.2515(2)
Mo1A_2 Mo 0.53250(8) -0.0968(1) 0.26368(2)
Mo2A Mo 0.03634(8) -0.0922(1) 0.23644(3)
Mo1B Mo 0.53250(8) 0.5968(1) 0.76368(2)
Mo2B Mo 0.03634(8) 0.5922(1) -0.26356(3)
Mo1_2 Mo -0.53250(8) 0.4032(1) 0.23632(2)
Mo2A_2 Mo 0.03634(8) 0.9078(1) 0.23644(3)
O1A_2 O 0.4628(6) -0.3298(7) 0.2480(2)
O2A O 0.7622(6) -0.1172(6) 0.2532(2)
O3A O 0.5151(7) -0.0863(9) 0.3391(2)
O4A O 0.2622(6) -0.0414(7) 0.2464(2)
N1A N 0.5240(8) -0.0691(9) 0.1565(3)
O2_2 O 1.2378(6) 0.3828(6) 0.2468(2)
O5_2 O 0.9888(7) 0.4151(9) 0.3387(2)
O6_2 O 0.9618(6) 0.1664(7) 0.2485(2)
O6A_2 O 1.0382(6) 0.6664(7) 0.2515(2)
N2_2 N 0.9742(8) 0.4338(9) 0.1565(3)
loop_
_geom_bond_atom_site_label_1
_geom_bond_atom_site_label_2
_geom_bond_site_symmetry_1
_geom_bond_site_symmetry_2
Mo1 O1 1_555 1_555
Mo2 O2 1_555 1_555
O1 Mo1A_2 1_555 1_555
O2 Mo1 1_555 1_555
O3 Mo1 1_555 1_555
O4 Mo1 1_555 1_555
O5 Mo2 1_555 1_555
O6 Mo2 1_555 1_555
N1 Mo1 1_555 1_555
N2 Mo2 1_555 1_555
C1 N1 1_555 1_555
C2 C1 1_555 1_555
C3 C2 1_555 1_555
C4 C3 1_555 1_555
C5 N1 1_555 1_555
C6 N2 1_555 1_555
C7 C6 1_555 1_555
C8 C7 1_555 1_555
C9 C8 1_555 1_555
C10 N2 1_555 1_555
H1 C1 1_555 1_555
H2 C2 1_555 1_555
H3 C4 1_555 1_555
H4 C5 1_555 1_555
H5 C6 1_555 1_555
H6 C7 1_555 1_555
H7 C9 1_555 1_555
H8 C10 1_555 1_555
C3B C3 1_555 1_555
C2B C3B 1_555 1_555
C1B C2B 1_555 1_555
N1B C1B 1_555 1_555
C5B N1B 1_555 1_555
C4B C3B 1_555 1_555
H3B C4B 1_555 1_555
H4B C5B 1_555 1_555
H1B C1B 1_555 1_555
H2B C2B 1_555 1_555
C8B C8 1_555 1_555
C7B C8B 1_555 1_555
C6B C7B 1_555 1_555
N2B C6B 1_555 1_555
C10B N2B 1_555 1_555
C9B C8B 1_555 1_555
H7B C9B 1_555 1_555
H8B C10B 1_555 1_555
H5B C6B 1_555 1_555
H6B C7B 1_555 1_555
O1A Mo1 1_555 1_555
Mo1A O1A 1_555 1_555
Mo2_2 O4 1_555 1_555
O4_2 Mo2 1_555 1_555
O6A Mo2 1_555 1_555
Mo1A_2 O1A_2 1_555 1_555
Mo2A O6 1_555 1_555
Mo1B N1B 1_555 1_555
Mo2B N2B 1_555 1_555
Mo1_2 O4_2 1_555 1_555
Mo2A_2 O6A 1_555 1_555
O2A Mo1A_2 1_555 1_555
O3A Mo1A_2 1_555 1_555
O4A Mo1A_2 1_555 1_555
N1A Mo1A_2 1_555 1_555
O2_2 Mo2_2 1_555 1_555
O5_2 Mo2_2 1_555 1_555
O6_2 Mo2_2 1_555 1_555
O6A_2 Mo2_2 1_555 1_555
N2_2 Mo2_2 1_555 1_555
C4 C5 1_555 1_555
C9 C10 1_555 1_555
C5B C4B 1_555 1_555
C10B C9B 1_555 1_555
Mo2A O4A 1_555 1_555

#END
