
#######################################################################
#
#                 Cambridge Crystallographic Data Centre
#                                CCDC 
#
#######################################################################
#
# If this CIF has been generated from an entry in the Cambridge 
# Structural Database, then it will include bibliographic, chemical, 
# crystal, experimental, refinement or atomic coordinate data resulting 
# from the CCDC's data processing and validation procedures.
#
#######################################################################

data_BALKUV02
_symmetry_cell_setting           monoclinic
_symmetry_space_group_name_H-M   'P 21/c'
_symmetry_Int_Tables_number      14
_space_group_name_Hall           '-P 2ybc'
loop_
_symmetry_equiv_pos_site_id
_symmetry_equiv_pos_as_xyz
1 x,y,z
2 -x,1/2+y,1/2-z
3 -x,-y,-z
4 x,1/2-y,1/2+z
_cell_length_a                   8.7020(2)
_cell_length_b                   14.7281(3)
_cell_length_c                   13.0362(2)
_cell_angle_alpha                90
_cell_angle_beta                 113.930(1)
_cell_angle_gamma                90
_cell_volume                     1527.15
loop_
_atom_site_label
_atom_site_type_symbol
_atom_site_fract_x
_atom_site_fract_y
_atom_site_fract_z
Ni1 Ni -0.437660(13) -0.140896(7) 0.293685(8)
N1 N -0.18445(10) -0.13859(5) 0.31119(7)
H1 H -0.1674 -0.0918 0.2727
H2 H -0.1680 -0.1871 0.2752
N2 N -0.36577(10) -0.23902(5) 0.42367(6)
H3 H -0.3555 -0.2891 0.3922
H4 H -0.4487 -0.2464 0.4442
N3 N -0.68728(10) -0.14883(5) 0.28037(6)
H5 H -0.7290 -0.1950 0.2388
H6 H -0.6855 -0.1636 0.3439
N4 N -0.51758(10) -0.05371(5) 0.15158(6)
H7 H -0.5546 -0.0888 0.0927
H8 H -0.4294 -0.0277 0.1484
N5 N -0.48253(10) -0.24831(5) 0.17884(6)
N6 N -0.60834(10) -0.53061(5) 0.09882(6)
N7 N -0.60475(11) -0.37118(5) 0.04113(6)
C1 C -0.05074(13) -0.13647(8) 0.42673(9)
H9 H -0.0638 -0.0822 0.4646
H10 H 0.0582 -0.1334 0.4229
C2 C -0.05627(13) -0.21940(8) 0.49434(9)
H11 H 0.0449 -0.2201 0.5633
H12 H -0.0546 -0.2733 0.4520
C3 C -0.20768(13) -0.22500(7) 0.52434(8)
H13 H -0.1921 -0.2748 0.5763
H14 H -0.2159 -0.1693 0.5615
C4 C -0.79897(13) -0.06876(7) 0.24325(8)
H15 H -0.7568 -0.0216 0.2998
H16 H -0.9104 -0.0855 0.2366
C5 C -0.81155(13) -0.03128(7) 0.13132(8)
H17 H -0.8417 -0.0805 0.0773
H18 H -0.9020 0.0129 0.1048
C6 C -0.65259(13) 0.01334(6) 0.13436(7)
H19 H -0.6779 0.0453 0.0643
H20 H -0.6135 0.0576 0.1946
C7 C -0.54015(11) -0.30855(5) 0.11762(7)
C8 C -0.60425(11) -0.45492(6) 0.07545(7)
Ni1A Ni -0.562340(13) -0.640896(7) 0.206315(8)
N6A N -0.39166(10) -0.03061(5) 0.40118(6)
Cl1 Cl 0.18744(3) -0.376896(14) 0.327718(17)
O1 O 0.28925(12) -0.32837(6) 0.42896(6)
O2 O 0.25945(13) -0.36677(6) 0.24653(8)
O3 O 0.01953(11) -0.34124(7) 0.28414(7)
O4 O 0.18518(10) -0.47235(5) 0.35421(6)
loop_
_geom_bond_atom_site_label_1
_geom_bond_atom_site_label_2
_geom_bond_site_symmetry_1
_geom_bond_site_symmetry_2
Ni1 N1 1_555 1_555
N1 H1 1_555 1_555
H2 N1 1_555 1_555
N2 Ni1 1_555 1_555
H3 N2 1_555 1_555
H4 N2 1_555 1_555
N3 Ni1 1_555 1_555
H5 N3 1_555 1_555
H6 N3 1_555 1_555
N4 Ni1 1_555 1_555
H7 N4 1_555 1_555
H8 N4 1_555 1_555
N5 Ni1 1_555 1_555
N6 C8 1_555 1_555
N7 C7 1_555 1_555
C1 N1 1_555 1_555
H9 C1 1_555 1_555
H10 C1 1_555 1_555
C2 C1 1_555 1_555
H11 C2 1_555 1_555
H12 C2 1_555 1_555
C3 N2 1_555 1_555
H13 C3 1_555 1_555
H14 C3 1_555 1_555
C4 N3 1_555 1_555
H15 C4 1_555 1_555
H16 C4 1_555 1_555
C5 C4 1_555 1_555
H17 C5 1_555 1_555
H18 C5 1_555 1_555
C6 N4 1_555 1_555
H19 C6 1_555 1_555
H20 C6 1_555 1_555
C7 N5 1_555 1_555
C8 N7 1_555 1_555
Cl1 O1 1_555 1_555
O2 Cl1 1_555 1_555
O3 Cl1 1_555 1_555
O4 Cl1 1_555 1_555
Ni1A N6 1_555 1_555
N6A Ni1 1_555 1_555
C2 C3 1_555 1_555
C5 C6 1_555 1_555

#END
