
#######################################################################
#
#                 Cambridge Crystallographic Data Centre
#                                CCDC 
#
#######################################################################
#
# If this CIF has been generated from an entry in the Cambridge 
# Structural Database, then it will include bibliographic, chemical, 
# crystal, experimental, refinement or atomic coordinate data resulting 
# from the CCDC's data processing and validation procedures.
#
#######################################################################

data_BALKUV
_symmetry_cell_setting           monoclinic
_symmetry_space_group_name_H-M   'P 21/n'
_symmetry_Int_Tables_number      14
_space_group_name_Hall           '-P 2yn'
loop_
_symmetry_equiv_pos_site_id
_symmetry_equiv_pos_as_xyz
1 x,y,z
2 1/2+x,1/2-y,1/2+z
3 -x,-y,-z
4 1/2-x,1/2+y,1/2-z
_cell_length_a                   8.8465(7)
_cell_length_b                   14.8208(11)
_cell_length_c                   12.4168(10)
_cell_angle_alpha                90
_cell_angle_beta                 104.0700(10)
_cell_angle_gamma                90
_cell_volume                     1579.15
loop_
_atom_site_label
_atom_site_type_symbol
_atom_site_fract_x
_atom_site_fract_y
_atom_site_fract_z
Ni1 Ni 0.76275(7) -0.13595(4) 0.70259(4)
N1 N 0.7104(5) -0.2291(3) 0.5705(3)
H1 H 0.7340 -0.2843 0.6000
H2 H 0.6065 -0.2279 0.5429
N2 N 0.9951(5) -0.1309(3) 0.6867(4)
H3 H 1.0380 -0.0795 0.7187
H4 H 1.0474 -0.1769 0.7264
N3 N 0.5305(5) -0.1478(3) 0.7154(4)
H5 H 0.4722 -0.1614 0.6473
H6 H 0.5264 -0.1959 0.7589
N4 N 0.8154(5) -0.0502(3) 0.8438(3)
H7 H 0.8455 -0.0856 0.9041
H8 H 0.8984 -0.0166 0.8394
N5 N 0.6413(6) 0.1333(3) 0.5485(3)
N6 N 0.7035(5) -0.0239(3) 0.5980(3)
N7 N 0.6726(5) 0.2551(3) 0.6856(3)
C1 C 0.7811(8) -0.2216(5) 0.4771(5)
H9 H 0.7401 -0.1684 0.4344
H10 H 0.7516 -0.2737 0.4293
C2 C 0.9561(8) -0.2153(5) 0.5104(6)
H11 H 0.9956 -0.2685 0.5537
H12 H 0.9941 -0.2172 0.4435
C3 C 1.0230(8) -0.1351(5) 0.5749(6)
H13 H 1.1345 -0.1344 0.5815
H14 H 0.9793 -0.0815 0.5342
C4 C 0.4531(7) -0.0726(5) 0.7578(5)
H15 H 0.3524 -0.0927 0.7664
H16 H 0.4353 -0.0240 0.7037
C5 C 0.5471(7) -0.0367(5) 0.8679(5)
H17 H 0.4818 0.0042 0.8976
H18 H 0.5732 -0.0869 0.9193
C6 C 0.6953(7) 0.0118(4) 0.8644(4)
H19 H 0.6727 0.0570 0.8062
H20 H 0.7352 0.0426 0.9344
C7 C 0.6767(6) 0.0503(3) 0.5788(4)
C8 C 0.6607(6) 0.1958(3) 0.6242(4)
N7C N 0.8274(5) -0.2449(3) 0.8144(3)
Ni1C Ni 0.73725(7) 0.36405(4) 0.79741(4)
Cl1 Cl 0.86515(16) -0.12021(9) 1.17067(11)
O1 O 0.8355(6) -0.0275(3) 1.1428(5)
O2 O 0.8783(10) -0.1650(4) 1.0734(5)
O3 O 1.0073(7) -0.1291(4) 1.2488(6)
O4 O 0.7450(8) -0.1590(5) 1.2080(6)
loop_
_geom_bond_atom_site_label_1
_geom_bond_atom_site_label_2
_geom_bond_site_symmetry_1
_geom_bond_site_symmetry_2
Ni1 N1 1_555 1_555
N1 H1 1_555 1_555
H2 N1 1_555 1_555
N2 Ni1 1_555 1_555
H3 N2 1_555 1_555
H4 N2 1_555 1_555
N3 Ni1 1_555 1_555
H5 N3 1_555 1_555
H6 N3 1_555 1_555
N4 Ni1 1_555 1_555
H7 N4 1_555 1_555
H8 N4 1_555 1_555
N5 C7 1_555 1_555
N6 Ni1 1_555 1_555
N7 C8 1_555 1_555
C1 N1 1_555 1_555
H9 C1 1_555 1_555
H10 C1 1_555 1_555
C2 C1 1_555 1_555
H11 C2 1_555 1_555
H12 C2 1_555 1_555
C3 N2 1_555 1_555
H13 C3 1_555 1_555
H14 C3 1_555 1_555
C4 N3 1_555 1_555
H15 C4 1_555 1_555
H16 C4 1_555 1_555
C5 C4 1_555 1_555
H17 C5 1_555 1_555
H18 C5 1_555 1_555
C6 N4 1_555 1_555
H19 C6 1_555 1_555
H20 C6 1_555 1_555
C7 N6 1_555 1_555
C8 N5 1_555 1_555
Cl1 O1 1_555 1_555
O2 Cl1 1_555 1_555
O3 Cl1 1_555 1_555
O4 Cl1 1_555 1_555
N7C Ni1 1_555 1_555
Ni1C N7 1_555 1_555
C2 C3 1_555 1_555
C5 C6 1_555 1_555

#END
