
#######################################################################
#
#                 Cambridge Crystallographic Data Centre
#                                CCDC 
#
#######################################################################
#
# If this CIF has been generated from an entry in the Cambridge 
# Structural Database, then it will include bibliographic, chemical, 
# crystal, experimental, refinement or atomic coordinate data resulting 
# from the CCDC's data processing and validation procedures.
#
#######################################################################

data_BALXAO
_symmetry_cell_setting           triclinic
_symmetry_space_group_name_H-M   'P -1'
_symmetry_Int_Tables_number      2
_space_group_name_Hall           '-P 1'
loop_
_symmetry_equiv_pos_site_id
_symmetry_equiv_pos_as_xyz
1 x,y,z
2 -x,-y,-z
_cell_length_a                   8.872(3)
_cell_length_b                   9.422(3)
_cell_length_c                   9.545(3)
_cell_angle_alpha                103.520(4)
_cell_angle_beta                 101.355(4)
_cell_angle_gamma                94.076(5)
_cell_volume                     754.828
loop_
_atom_site_label
_atom_site_type_symbol
_atom_site_fract_x
_atom_site_fract_y
_atom_site_fract_z
Eu1 Eu 0.20369(4) 0.02892(5) 0.14493(4)
Cl1 Cl 0.1733(6) 0.2743(4) 0.7037(3)
O1 O 0.1371(7) 0.2541(7) 0.0928(6)
O2 O -0.0978(7) 0.2251(7) -0.0472(7)
O3 O 0.1783(7) 0.1856(7) 0.3930(6)
O4 O 0.2178(7) -0.0396(8) 0.3788(6)
O5 O 0.3194(6) 0.0378(8) 0.9257(6)
O6 O 0.0699(6) -0.0162(7) 0.8667(5)
O7 O 0.4109(7) -0.1269(9) 0.1476(7)
O8 O 0.4469(7) 0.1845(9) 0.2553(7)
C1 C 0.0230(9) 0.3022(9) 0.0244(8)
C2 C 0.0460(14) 0.4633(10) 0.0331(10)
C3 C 0.1975(9) 0.0811(10) 0.4494(8)
C4 C 0.1926(10) 0.1034(11) 0.6076(9)
C5 C 0.1963(8) -0.0119(10) 0.6732(8)
C6 C 0.1953(9) 0.0057(9) 0.8346(8)
C2A C -0.0460(14) 0.5367(10) -0.0331(10)
C1A C -0.0230(9) 0.6978(9) -0.0244(8)
O1A O -0.1371(7) 0.7459(7) -0.0928(6)
O2A O 0.0978(7) 0.7749(7) 0.0472(7)
Cl1_2 Cl 0.1733(6) 0.2743(4) -0.2963(3)
O3_2 O 0.1783(7) 0.1856(7) -0.6070(6)
O4_2 O 0.2178(7) -0.0396(8) -0.6212(6)
O5_2 O 0.3194(6) 0.0378(8) -0.0743(6)
O6_2 O 0.0699(6) -0.0162(7) -0.1333(5)
C3_2 C 0.1975(9) 0.0811(10) -0.5506(8)
C4_2 C 0.1926(10) 0.1034(11) -0.3924(9)
C5_2 C 0.1963(8) -0.0119(10) -0.3268(8)
C6_2 C 0.1953(9) 0.0057(9) -0.1654(8)
Eu1A Eu -0.20369(4) 0.97108(5) -0.14493(4)
O7A O -0.4109(7) 1.1269(9) -0.1476(7)
O8A O -0.4469(7) 0.8155(9) -0.2553(7)
O2A_2 O 0.0978(7) -0.2251(7) 0.0472(7)
O6A O -0.0699(6) 0.0162(7) 0.1333(5)
Eu1A_2 Eu -0.20369(4) -0.02892(5) -0.14493(4)
Eu1_2 Eu 0.20369(4) 0.02892(5) 1.14493(4)
Eu1A_3 Eu -0.20369(4) -0.02892(5) 0.85507(4)
Eu1_3 Eu 0.20369(4) 1.02892(5) 0.14493(4)
Eu1_4 Eu 0.20369(4) 0.02892(5) -0.85507(4)
O2_2 O -0.0978(7) 1.2251(7) -0.0472(7)
O3A O -0.1783(7) 0.8144(7) -0.3930(6)
O4A O -0.2178(7) 1.0396(8) -0.3788(6)
O5A O -0.3194(6) 0.9622(8) 0.0743(6)
O6_3 O 0.0699(6) 0.9838(7) -0.1333(5)
O6A_2 O -0.0699(6) 1.0162(7) 0.1333(5)
O9 O 0.5727(15) 0.244(2) 0.5569(15)
O10 O 0.6654(18) 0.3460(18) 0.1667(19)
loop_
_geom_bond_atom_site_label_1
_geom_bond_atom_site_label_2
_geom_bond_site_symmetry_1
_geom_bond_site_symmetry_2
Eu1 O1 1_555 1_555
Cl1 C4 1_555 1_555
O1 C1 1_555 1_555
O2 C1 1_555 1_555
O3 Eu1 1_555 1_555
O4 Eu1 1_555 1_555
O5 C6 1_555 1_555
O6 C6 1_555 1_555
O7 Eu1 1_555 1_555
O8 Eu1 1_555 1_555
C1 C2 1_555 1_555
C2 C2A 1_555 1_555
C3 O3 1_555 1_555
C4 C3 1_555 1_555
C5 C4 1_555 1_555
C6 C5 1_555 1_555
C2A C1A 1_555 1_555
C1A O1A 1_555 1_555
O1A Eu1A 1_555 1_555
O2A C1A 1_555 1_555
Cl1_2 C4_2 1_555 1_555
O3_2 C3_2 1_555 1_555
O4_2 C3_2 1_555 1_555
O5_2 Eu1 1_555 1_555
O6_2 Eu1 1_555 1_555
C3_2 C4_2 1_555 1_555
C4_2 C5_2 1_555 1_555
C5_2 C6_2 1_555 1_555
C6_2 O5_2 1_555 1_555
Eu1A O7A 1_555 1_555
O8A Eu1A 1_555 1_555
O2A_2 Eu1 1_555 1_555
O6A Eu1 1_555 1_555
Eu1A_2 O2 1_555 1_555
Eu1_2 O5 1_555 1_555
Eu1A_3 O6 1_555 1_555
Eu1_3 O2A 1_555 1_555
Eu1_4 O3_2 1_555 1_555
O2_2 Eu1A 1_555 1_555
O3A Eu1A 1_555 1_555
O4A Eu1A 1_555 1_555
O5A Eu1A 1_555 1_555
O6_3 Eu1A 1_555 1_555
O6A_2 Eu1A 1_555 1_555
O4 C3 1_555 1_555
O6 Eu1_2 1_555 1_555
O4_2 Eu1_4 1_555 1_555
O6_2 C6_2 1_555 1_555
O6_2 Eu1A_2 1_555 1_555
O6A Eu1A_2 1_555 1_555
Eu1_3 O6_3 1_555 1_555
Eu1_3 O6A_2 1_555 1_555

#END
