
#######################################################################
#
#                 Cambridge Crystallographic Data Centre
#                                CCDC 
#
#######################################################################
#
# If this CIF has been generated from an entry in the Cambridge 
# Structural Database, then it will include bibliographic, chemical, 
# crystal, experimental, refinement or atomic coordinate data resulting 
# from the CCDC's data processing and validation procedures.
#
#######################################################################

data_BAMRAK
_symmetry_cell_setting           triclinic
_symmetry_space_group_name_H-M   'P -1'
_symmetry_Int_Tables_number      2
_space_group_name_Hall           '-P 1'
loop_
_symmetry_equiv_pos_site_id
_symmetry_equiv_pos_as_xyz
1 x,y,z
2 -x,-y,-z
_cell_length_a                   13.6654(16)
_cell_length_b                   13.9585(17)
_cell_length_c                   18.037(2)
_cell_angle_alpha                95.714(2)
_cell_angle_beta                 109.601(2)
_cell_angle_gamma                115.410(2)
_cell_volume                     2805.17
loop_
_atom_site_label
_atom_site_type_symbol
_atom_site_fract_x
_atom_site_fract_y
_atom_site_fract_z
C1 C 0.1497(2) -0.0139(2) 0.47246(17)
C2 C 0.2004(3) -0.0431(2) 0.42476(18)
H1 H 0.2175 -0.1005 0.4299
C3 C 0.2242(3) 0.0152(2) 0.37010(17)
H2 H 0.2584 -0.0034 0.3386
C4 C 0.1989(2) 0.1015(2) 0.35990(16)
C5 C 0.1456(2) 0.1291(2) 0.40764(15)
C6 C 0.1221(2) 0.0702(2) 0.46384(16)
H3 H 0.0876 0.0878 0.4957
C7 C 0.1541(3) -0.1498(3) 0.54250(19)
H4 H 0.1245 -0.2015 0.4906
H5 H 0.1189 -0.1878 0.5761
H6 H 0.2393 -0.1171 0.5696
C8 C -0.1108(2) 0.5792(2) 0.42098(16)
H7 H -0.1218 0.5450 0.4614
C9 C -0.0790(2) 0.6805(2) 0.29986(16)
H8 H -0.0682 0.7155 0.2597
C10 C -0.0706(2) 0.5409(2) 0.36799(16)
C11 C -0.0557(2) 0.5921(2) 0.30587(16)
C12 C -0.1341(3) 0.6653(2) 0.41471(17)
H9 H -0.1601 0.6894 0.4504
C13 C -0.1179(2) 0.7160(2) 0.35301(17)
C14 C 0.3222(2) 0.4142(2) -0.06073(16)
C15 C 0.2875(2) 0.4274(2) 0.06200(16)
C16 C 0.2224(2) 0.4812(2) 0.03150(16)
C17 C 0.1622(2) 0.5123(2) 0.07343(16)
H10 H 0.1301 0.5559 0.0529
C18 C -0.1266(3) 0.8576(2) 0.29104(18)
H11 H -0.0451 0.8879 0.2986
H12 H -0.1445 0.9164 0.2978
H13 H -0.1785 0.8075 0.2368
C19 C 0.2320(2) 0.1603(2) 0.30333(16)
H14 H 0.2747 0.1425 0.2792
C20 C 0.2598(2) 0.6495(2) 0.42892(17)
H15 H 0.2308 0.5908 0.4503
C21 C 0.2617(3) 0.7162(2) 0.31867(18)
H16 H 0.2330 0.7040 0.2621
C22 C 0.3473(2) 0.8221(2) 0.36810(18)
H17 H 0.3760 0.8789 0.3450
C23 C 0.3448(3) 0.7532(2) 0.48318(18)
H18 H 0.3715 0.7628 0.5395
C24 C 0.3904(2) 0.8430(2) 0.45352(17)
C25 C 0.4790(2) 0.9536(2) 0.51090(19)
H19 H 0.5081 0.9593 0.5667
C26 C -0.0433(2) 0.4537(2) 0.38143(16)
H20 H -0.0634 0.4191 0.4197
C27 C -0.8353(3) -0.2680(2) -0.09007(17)
H21 H -0.9013 -0.2741 -0.0821
C28 C -0.7558(3) -0.3122(2) -0.17145(17)
H22 H -0.7662 -0.3507 -0.2211
C29 C -0.6404(3) -0.2445(2) -0.11196(18)
H23 H -0.5755 -0.2373 -0.1221
C30 C 0.0507(3) 0.2035(2) 0.00758(18)
H24 H 0.0946 0.1667 0.0163
C31 C 0.4326(3) 0.6246(2) 0.28901(18)
H25 H 0.4126 0.6320 0.2361
C32 C -0.1787(3) 0.0110(2) 0.09227(18)
H26 H -0.1810 -0.0225 0.0440
C33 C -0.0700(3) 0.0866(2) 0.15698(17)
H27 H -0.0005 0.1033 0.1502
C34 C -0.2838(2) -0.0141(2) 0.10016(17)
C35 C -0.2733(3) 0.0355(2) 0.17572(18)
H28 H -0.3411 0.0188 0.1849
C36 C -0.1617(3) 0.1093(2) 0.23634(18)
H29 H -0.1567 0.1422 0.2859
C37 C -0.7236(3) -0.1999(2) -0.02694(18)
H30 H -0.7158 -0.1625 0.0221
C38 C -0.6228(2) -0.1875(2) -0.03681(17)
C39 C -0.5047(2) -0.1146(2) 0.03140(17)
H31 H -0.5033 -0.0837 0.0801
C40 C -0.4004(3) -0.0890(2) 0.03024(17)
H32 H -0.4003 -0.1202 -0.0178
C41 C 0.2577(3) 0.4673(2) -0.09106(17)
H33 H 0.2482 0.4808 -0.1418
C42 C 0.2081(3) 0.4995(2) -0.04563(17)
H34 H 0.1643 0.5340 -0.0664
C43 C 0.4243(3) 0.3216(3) -0.08622(19)
H35 H 0.4923 0.3636 -0.0344
H36 H 0.4500 0.3048 -0.1268
H37 H 0.3694 0.2540 -0.0809
C44 C -0.0061(4) 0.1366(4) -0.1378(2)
H38 H 0.0507 0.1119 -0.1173
H39 H 0.0167 0.1838 -0.1712
H40 H -0.0838 0.0737 -0.1703
C45 C -0.0754(3) 0.2563(3) -0.0899(2)
H41 H -0.0644 0.3001 -0.0402
H42 H -0.1587 0.2041 -0.1212
H43 H -0.0468 0.3038 -0.1216
C46 C 0.5952(3) 0.8143(3) 0.3330(2)
H44 H 0.5605 0.8073 0.2755
H45 H 0.6762 0.8299 0.3496
H46 H 0.5938 0.8736 0.3638
C47 C 0.5654(3) 0.7099(3) 0.43449(19)
H47 H 0.5105 0.6412 0.4386
H48 H 0.5673 0.7703 0.4667
H49 H 0.6437 0.7177 0.4545
C48 C 0.3368(2) 0.3936(2) 0.01471(16)
H50 H 0.3792 0.3574 0.0342
Mn1 Mn 0.11676(3) 0.29100(3) 0.32667(2)
Mn2 Mn 0.04658(3) 0.46774(3) 0.25145(2)
Mn3 Mn 0.20658(3) 0.38728(3) 0.19031(2)
N1 N 0.20677(19) 0.23546(18) 0.28375(13)
N2 N 0.1498(2) 0.48451(18) 0.13656(13)
N3 N 0.00720(19) 0.41970(17) 0.34420(13)
N4 N 0.2173(2) 0.62957(18) 0.34751(14)
N5 N -0.8543(2) -0.32558(18) -0.16171(14)
N6 N -0.0092(2) 0.1974(2) -0.06961(15)
N7 N 0.5266(2) 0.7107(2) 0.34867(16)
N8 N -0.0597(2) 0.13665(18) 0.22850(14)
O1 O 0.11396(16) 0.37475(14) 0.24979(10)
O2 O 0.12347(18) -0.06488(16) 0.52939(12)
O3 O -0.02533(16) 0.55769(15) 0.25056(11)
O4 O 0.02789(17) 0.33763(15) 0.36873(11)
O5 O 0.12122(17) 0.21089(15) 0.40374(11)
O6 O 0.30477(17) 0.40802(16) 0.13436(11)
O7 O 0.25103(17) 0.28387(16) 0.23041(12)
O8 O 0.08404(16) 0.51890(15) 0.16427(11)
O9 O -0.14411(19) 0.79967(16) 0.35015(12)
O10 O 0.05245(17) 0.25416(16) 0.06844(12)
O11 O 0.36854(17) 0.53475(16) 0.29698(12)
O12 O 0.36672(18) 0.38475(17) -0.11092(12)
O13 O 0.30026(19) 0.43179(17) 0.41096(13)
H51 H 0.333(3) 0.472(3) 0.464(2)
H52 H 0.339(4) 0.477(3) 0.383(3)
C1A C -1.1497(2) 0.0139(2) -0.47246(17)
C2A C -1.2004(3) 0.0431(2) -0.42476(18)
H1A H -1.2175 0.1005 -0.4299
C3A C -1.2242(3) -0.0152(2) -0.37010(17)
H2A H -1.2584 0.0034 -0.3386
C4A C -1.1989(2) -0.1015(2) -0.35990(16)
C5A C -1.1456(2) -0.1291(2) -0.40764(15)
C6A C -1.1221(2) -0.0702(2) -0.46384(16)
H3A H -1.0876 -0.0878 -0.4957
C7A C -1.1541(3) 0.1498(3) -0.54250(19)
H4A H -1.1245 0.2015 -0.4906
H5A H -1.1189 0.1878 -0.5761
H6A H -1.2393 0.1171 -0.5696
C8A C -0.8892(2) -0.5792(2) -0.42098(16)
H7A H -0.8782 -0.5450 -0.4614
C9A C -0.9210(2) -0.6805(2) -0.29986(16)
H8A H -0.9318 -0.7155 -0.2597
C10A C -0.9294(2) -0.5409(2) -0.36799(16)
C11A C -0.9443(2) -0.5921(2) -0.30587(16)
C12A C -0.8659(3) -0.6653(2) -0.41471(17)
H9A H -0.8399 -0.6894 -0.4504
C13A C -0.8821(2) -0.7160(2) -0.35301(17)
C14A C -1.3222(2) -0.4142(2) 0.06073(16)
C15A C -1.2875(2) -0.4274(2) -0.06200(16)
C16A C -1.2224(2) -0.4812(2) -0.03150(16)
C17A C -1.1622(2) -0.5123(2) -0.07343(16)
H10A H -1.1301 -0.5559 -0.0529
C18A C -0.8734(3) -0.8576(2) -0.29104(18)
H11A H -0.9549 -0.8879 -0.2986
H12A H -0.8555 -0.9164 -0.2978
H13A H -0.8215 -0.8075 -0.2368
C19A C -1.2320(2) -0.1603(2) -0.30333(16)
H14A H -1.2747 -0.1425 -0.2792
C20A C 0.7402(2) 1.3505(2) 0.57108(17)
H15A H 0.7692 1.4092 0.5497
C21A C 0.7383(3) 1.2838(2) 0.68133(18)
H16A H 0.7670 1.2960 0.7379
C22A C 0.6527(2) 1.1779(2) 0.63190(18)
H17A H 0.6240 1.1211 0.6550
C23A C 0.6552(3) 1.2468(2) 0.51682(18)
H18A H 0.6285 1.2372 0.4605
C24A C 0.6096(2) 1.1570(2) 0.54648(17)
C25A C 0.5210(2) 1.0464(2) 0.48910(19)
H19A H 0.4919 1.0407 0.4333
C26A C -0.9567(2) -0.4537(2) -0.38143(16)
H20A H -0.9366 -0.4191 -0.4197
C27A C -0.1647(3) 0.2680(2) 0.09007(17)
H21A H -0.0987 0.2741 0.0821
C28A C -0.2442(3) 0.3122(2) 0.17145(17)
H22A H -0.2338 0.3507 0.2211
C29A C -0.3596(3) 0.2445(2) 0.11196(18)
H23A H -0.4245 0.2373 0.1221
C30A C -1.0507(3) -0.2035(2) -0.00758(18)
H24A H -1.0946 -0.1667 -0.0163
C31A C -1.4326(3) -0.6246(2) -0.28901(18)
H25A H -1.4126 -0.6320 -0.2361
C32A C -0.8213(3) -0.0110(2) -0.09227(18)
H26A H -0.8190 0.0225 -0.0440
C33A C -0.9300(3) -0.0866(2) -0.15698(17)
H27A H -0.9995 -0.1033 -0.1502
C34A C -0.7162(2) 0.0141(2) -0.10016(17)
C35A C -0.7267(3) -0.0355(2) -0.17572(18)
H28A H -0.6589 -0.0188 -0.1849
C36A C -0.8383(3) -0.1093(2) -0.23634(18)
H29A H -0.8433 -0.1422 -0.2859
C37A C -0.2764(3) 0.1999(2) 0.02694(18)
H30A H -0.2842 0.1625 -0.0221
C38A C -0.3772(2) 0.1875(2) 0.03681(17)
C39A C -0.4953(2) 0.1146(2) -0.03140(17)
H31A H -0.4967 0.0837 -0.0801
C40A C -0.5996(3) 0.0890(2) -0.03024(17)
H32A H -0.5997 0.1202 0.0178
C41A C -1.2577(3) -0.4673(2) 0.09106(17)
H33A H -1.2482 -0.4808 0.1418
C42A C -1.2081(3) -0.4995(2) 0.04563(17)
H34A H -1.1643 -0.5340 0.0664
C43A C -1.4243(3) -0.3216(3) 0.08622(19)
H35A H -1.4923 -0.3636 0.0344
H36A H -1.4500 -0.3048 0.1268
H37A H -1.3694 -0.2540 0.0809
C44A C -0.9939(4) -0.1366(4) 0.1378(2)
H38A H -1.0507 -0.1119 0.1173
H39A H -1.0167 -0.1838 0.1712
H40A H -0.9162 -0.0737 0.1703
C45A C -0.9246(3) -0.2563(3) 0.0899(2)
H41A H -0.9356 -0.3001 0.0402
H42A H -0.8413 -0.2041 0.1212
H43A H -0.9532 -0.3038 0.1216
C46A C -1.5952(3) -0.8143(3) -0.3330(2)
H44A H -1.5605 -0.8073 -0.2755
H45A H -1.6762 -0.8299 -0.3496
H46A H -1.5938 -0.8736 -0.3638
C47A C -1.5654(3) -0.7099(3) -0.43449(19)
H47A H -1.5105 -0.6412 -0.4386
H48A H -1.5673 -0.7703 -0.4667
H49A H -1.6437 -0.7177 -0.4545
C48A C -1.3368(2) -0.3936(2) -0.01471(16)
H50A H -1.3792 -0.3574 -0.0342
Mn1A Mn -1.11676(3) -0.29100(3) -0.32667(2)
Mn2A Mn -1.04658(3) -0.46774(3) -0.25145(2)
Mn2A_2 Mn 0.95342(3) 1.53226(3) 0.74855(2)
Mn3A Mn -1.20658(3) -0.38728(3) -0.19031(2)
N1A N -1.20677(19) -0.23546(18) -0.28375(13)
N2A N -1.1498(2) -0.48451(18) -0.13656(13)
N3A N -1.00720(19) -0.41970(17) -0.34420(13)
N4A N 0.7827(2) 1.37043(18) 0.65249(14)
N4A_2 N -1.2173(2) -0.62957(18) -0.34751(14)
N5A N -0.1457(2) 0.32558(18) 0.16171(14)
N6A N -0.9908(2) -0.1974(2) 0.06961(15)
N7A N -1.5266(2) -0.7107(2) -0.34867(16)
N8A N -0.9403(2) -0.13665(18) -0.22850(14)
O1A O -1.11396(16) -0.37475(14) -0.24979(10)
O2A O -1.12347(18) 0.06488(16) -0.52939(12)
O3A O -0.97467(16) -0.55769(15) -0.25056(11)
O4A O -1.02789(17) -0.33763(15) -0.36873(11)
O5A O -1.12122(17) -0.21089(15) -0.40374(11)
O6A O -1.30477(17) -0.40802(16) -0.13436(11)
O7A O -1.25103(17) -0.28387(16) -0.23041(12)
O8A O -1.08404(16) -0.51890(15) -0.16427(11)
O9A O -0.85589(19) -0.79967(16) -0.35015(12)
O10A O -1.05245(17) -0.25416(16) -0.06844(12)
O11A O -1.36854(17) -0.53475(16) -0.29698(12)
O12A O -1.36672(18) -0.38475(17) 0.11092(12)
O13A O -1.30026(19) -0.43179(17) -0.41096(13)
H51A H -1.333(3) -0.472(3) -0.464(2)
H52A H -1.339(4) -0.477(3) -0.383(3)
C49 C 0.5839(3) 0.4664(4) 0.2407(2)
H53 H 0.6002 0.5408 0.2586
H54 H 0.5108 0.4262 0.1917
H55 H 0.6482 0.4675 0.2295
C50 C 0.5513(5) 0.3018(3) 0.2912(3)
H56 H 0.6253 0.3020 0.3030
H57 H 0.4972 0.2607 0.2349
H58 H 0.5170 0.2680 0.3266
C51 C 0.5925(3) 0.4680(3) 0.3765(2)
H59 H 0.6049 0.5398 0.3824
N9 N 0.5728(2) 0.4129(2) 0.30454(16)
O14 O 0.5957(2) 0.4326(2) 0.43624(14)
Cl1 Cl 0.43104(8) 0.00108(7) 0.21944(5)
O15 O 0.3981(2) -0.1139(2) 0.19639(15)
O16 O 0.3431(5) 0.0118(3) 0.2332(4)
O17 O 0.4531(4) 0.0507(2) 0.16052(19)
O18 O 0.5311(5) 0.0553(3) 0.2923(3)
O19 O 0.2515(5) 0.1343(5) 0.1036(2)
H60 H 0.278(7) 0.078(7) 0.129(5)
H61 H 0.280(7) 0.191(6) 0.132(4)
loop_
_geom_bond_atom_site_label_1
_geom_bond_atom_site_label_2
_geom_bond_site_symmetry_1
_geom_bond_site_symmetry_2
C1 C2 1_555 1_555
C2 H1 1_555 1_555
C3 C2 1_555 1_555
H2 C3 1_555 1_555
C4 C3 1_555 1_555
C5 C4 1_555 1_555
C6 C1 1_555 1_555
H3 C6 1_555 1_555
C7 H4 1_555 1_555
H5 C7 1_555 1_555
H6 C7 1_555 1_555
C8 H7 1_555 1_555
C9 H8 1_555 1_555
C10 C8 1_555 1_555
C11 C9 1_555 1_555
C12 C8 1_555 1_555
H9 C12 1_555 1_555
C13 C9 1_555 1_555
C14 C41 1_555 1_555
C15 C16 1_555 1_555
C16 C17 1_555 1_555
C17 H10 1_555 1_555
C18 H11 1_555 1_555
H12 C18 1_555 1_555
H13 C18 1_555 1_555
C19 C4 1_555 1_555
H14 C19 1_555 1_555
C20 H15 1_555 1_555
C21 H16 1_555 1_555
C22 C21 1_555 1_555
H17 C22 1_555 1_555
C23 C20 1_555 1_555
H18 C23 1_555 1_555
C24 C22 1_555 1_555
C25 C24 1_555 1_555
H19 C25 1_555 1_555
C26 C10 1_555 1_555
H20 C26 1_555 1_555
C27 H21 1_555 1_555
C28 H22 1_555 1_555
C29 C28 1_555 1_555
H23 C29 1_555 1_555
C30 H24 1_555 1_555
C31 H25 1_555 1_555
C32 H26 1_555 1_555
C33 C32 1_555 1_555
H27 C33 1_555 1_555
C34 C32 1_555 1_555
C35 C34 1_555 1_555
H28 C35 1_555 1_555
C36 C35 1_555 1_555
H29 C36 1_555 1_555
C37 C27 1_555 1_555
H30 C37 1_555 1_555
C38 C29 1_555 1_555
C39 C38 1_555 1_555
H31 C39 1_555 1_555
C40 C34 1_555 1_555
H32 C40 1_555 1_555
C41 H33 1_555 1_555
C42 C16 1_555 1_555
H34 C42 1_555 1_555
C43 H35 1_555 1_555
H36 C43 1_555 1_555
H37 C43 1_555 1_555
C44 H38 1_555 1_555
H39 C44 1_555 1_555
H40 C44 1_555 1_555
C45 H41 1_555 1_555
H42 C45 1_555 1_555
H43 C45 1_555 1_555
C46 H44 1_555 1_555
H45 C46 1_555 1_555
H46 C46 1_555 1_555
C47 H47 1_555 1_555
H48 C47 1_555 1_555
H49 C47 1_555 1_555
C48 C14 1_555 1_555
H50 C48 1_555 1_555
Mn1 N1 1_555 1_555
Mn2 N3 1_555 1_555
Mn3 N2 1_555 1_555
N1 C19 1_555 1_555
N2 C17 1_555 1_555
N3 C26 1_555 1_555
N4 C20 1_555 1_555
N5 C27 1_555 1_555
N6 C30 1_555 1_555
N7 C31 1_555 1_555
N8 C33 1_555 1_555
O1 Mn1 1_555 1_555
O2 C1 1_555 1_555
O3 C11 1_555 1_555
O4 Mn1 1_555 1_555
O5 C5 1_555 1_555
O6 C15 1_555 1_555
O7 Mn3 1_555 1_555
O8 Mn2 1_555 1_555
O9 C13 1_555 1_555
O10 C30 1_555 1_555
O11 C31 1_555 1_555
O12 C14 1_555 1_555
O13 Mn1 1_555 1_555
H51 O13 1_555 1_555
H52 O13 1_555 1_555
C49 H53 1_555 1_555
H54 C49 1_555 1_555
H55 C49 1_555 1_555
C50 H56 1_555 1_555
H57 C50 1_555 1_555
H58 C50 1_555 1_555
C51 H59 1_555 1_555
N9 C49 1_555 1_555
O14 C51 1_555 1_555
Cl1 O15 1_555 1_555
O16 Cl1 1_555 1_555
O17 Cl1 1_555 1_555
O18 Cl1 1_555 1_555
O19 H60 1_555 1_555
H61 O19 1_555 1_555
C1A C2A 1_555 1_555
C2A H1A 1_555 1_555
C3A C2A 1_555 1_555
H2A C3A 1_555 1_555
C4A C3A 1_555 1_555
C5A C4A 1_555 1_555
C6A C1A 1_555 1_555
H3A C6A 1_555 1_555
C7A H4A 1_555 1_555
H5A C7A 1_555 1_555
H6A C7A 1_555 1_555
C8A H7A 1_555 1_555
C9A H8A 1_555 1_555
C10A C8A 1_555 1_555
C11A C9A 1_555 1_555
C12A C8A 1_555 1_555
H9A C12A 1_555 1_555
C13A C9A 1_555 1_555
C14A C41A 1_555 1_555
C15A C16A 1_555 1_555
C16A C17A 1_555 1_555
C17A H10A 1_555 1_555
C18A H11A 1_555 1_555
H12A C18A 1_555 1_555
H13A C18A 1_555 1_555
C19A C4A 1_555 1_555
H14A C19A 1_555 1_555
C20A H15A 1_555 1_555
C21A H16A 1_555 1_555
C22A C21A 1_555 1_555
H17A C22A 1_555 1_555
C23A C20A 1_555 1_555
H18A C23A 1_555 1_555
C24A C22A 1_555 1_555
C25A C25 1_555 1_555
H19A C25A 1_555 1_555
C26A C10A 1_555 1_555
H20A C26A 1_555 1_555
C27A H21A 1_555 1_555
C28A H22A 1_555 1_555
C29A C28A 1_555 1_555
H23A C29A 1_555 1_555
C30A H24A 1_555 1_555
C31A H25A 1_555 1_555
C32A H26A 1_555 1_555
C33A C32A 1_555 1_555
H27A C33A 1_555 1_555
C34A C32A 1_555 1_555
C35A C34A 1_555 1_555
H28A C35A 1_555 1_555
C36A C35A 1_555 1_555
H29A C36A 1_555 1_555
C37A C27A 1_555 1_555
H30A C37A 1_555 1_555
C38A C29A 1_555 1_555
C39A C38A 1_555 1_555
H31A C39A 1_555 1_555
C40A C34A 1_555 1_555
H32A C40A 1_555 1_555
C41A H33A 1_555 1_555
C42A C16A 1_555 1_555
H34A C42A 1_555 1_555
C43A H35A 1_555 1_555
H36A C43A 1_555 1_555
H37A C43A 1_555 1_555
C44A H38A 1_555 1_555
H39A C44A 1_555 1_555
H40A C44A 1_555 1_555
C45A H41A 1_555 1_555
H42A C45A 1_555 1_555
H43A C45A 1_555 1_555
C46A H44A 1_555 1_555
H45A C46A 1_555 1_555
H46A C46A 1_555 1_555
C47A H47A 1_555 1_555
H48A C47A 1_555 1_555
H49A C47A 1_555 1_555
C48A C14A 1_555 1_555
H50A C48A 1_555 1_555
Mn1A N1A 1_555 1_555
Mn2A N5 1_555 1_555
Mn2A_2 N4A 1_555 1_555
Mn3A N2A 1_555 1_555
N1A C19A 1_555 1_555
N2A C17A 1_555 1_555
N3A C26A 1_555 1_555
N4A C20A 1_555 1_555
N4A_2 Mn2A 1_555 1_555
N5A Mn2 1_555 1_555
N6A C30A 1_555 1_555
N7A C31A 1_555 1_555
N8A C33A 1_555 1_555
O1A Mn1A 1_555 1_555
O2A C1A 1_555 1_555
O3A C11A 1_555 1_555
O4A Mn1A 1_555 1_555
O5A C5A 1_555 1_555
O6A C15A 1_555 1_555
O7A Mn3A 1_555 1_555
O8A Mn2A 1_555 1_555
O9A C13A 1_555 1_555
O10A C30A 1_555 1_555
O11A C31A 1_555 1_555
O12A C14A 1_555 1_555
O13A Mn1A 1_555 1_555
H51A O13A 1_555 1_555
H52A O13A 1_555 1_555
C5 C6 1_555 1_555
C7 O2 1_555 1_555
C10 C11 1_555 1_555
C12 C13 1_555 1_555
C15 C48 1_555 1_555
C18 O9 1_555 1_555
C21 N4 1_555 1_555
C23 C24 1_555 1_555
C28 N5 1_555 1_555
C36 N8 1_555 1_555
C37 C38 1_555 1_555
C39 C40 1_555 1_555
C41 C42 1_555 1_555
C43 O12 1_555 1_555
C44 N6 1_555 1_555
C45 N6 1_555 1_555
C46 N7 1_555 1_555
C47 N7 1_555 1_555
Mn1 N8 1_555 1_555
Mn1 O5 1_555 1_555
Mn2 N4 1_555 1_555
Mn2 O1 1_555 1_555
Mn2 O3 1_555 1_555
Mn3 O1 1_555 1_555
Mn3 O6 1_555 1_555
Mn3 O10 1_555 1_555
Mn3 O11 1_555 1_555
N1 O7 1_555 1_555
N2 O8 1_555 1_555
N3 O4 1_555 1_555
C50 N9 1_555 1_555
C51 N9 1_555 1_555
C5A C6A 1_555 1_555
C7A O2A 1_555 1_555
C10A C11A 1_555 1_555
C12A C13A 1_555 1_555
C15A C48A 1_555 1_555
C18A O9A 1_555 1_555
C21A N4A 1_555 1_555
C23A C24A 1_555 1_555
C24A C25A 1_555 1_555
C27A N5A 1_555 1_555
C28A N5A 1_555 1_555
C36A N8A 1_555 1_555
C37A C38A 1_555 1_555
C39A C40A 1_555 1_555
C41A C42A 1_555 1_555
C43A O12A 1_555 1_555
C44A N6A 1_555 1_555
C45A N6A 1_555 1_555
C46A N7A 1_555 1_555
C47A N7A 1_555 1_555
Mn1A N8A 1_555 1_555
Mn1A O5A 1_555 1_555
Mn2A N3A 1_555 1_555
Mn2A O1A 1_555 1_555
Mn2A O3A 1_555 1_555
Mn3A O1A 1_555 1_555
Mn3A O6A 1_555 1_555
Mn3A O10A 1_555 1_555
Mn3A O11A 1_555 1_555
N1A O7A 1_555 1_555
N2A O8A 1_555 1_555
N3A O4A 1_555 1_555

#END
