
#######################################################################
#
#                 Cambridge Crystallographic Data Centre
#                                CCDC 
#
#######################################################################
#
# If this CIF has been generated from an entry in the Cambridge 
# Structural Database, then it will include bibliographic, chemical, 
# crystal, experimental, refinement or atomic coordinate data resulting 
# from the CCDC's data processing and validation procedures.
#
#######################################################################

data_BANHAA
_symmetry_cell_setting           triclinic
_symmetry_space_group_name_H-M   'P -1'
_symmetry_Int_Tables_number      2
_space_group_name_Hall           '-P 1'
loop_
_symmetry_equiv_pos_site_id
_symmetry_equiv_pos_as_xyz
1 x,y,z
2 -x,-y,-z
_cell_length_a                   8.6006(4)
_cell_length_b                   12.3644(6)
_cell_length_c                   14.2236(7)
_cell_angle_alpha                72.6870(10)
_cell_angle_beta                 88.1180(10)
_cell_angle_gamma                71.6790(10)
_cell_volume                     1367.75
loop_
_atom_site_label
_atom_site_type_symbol
_atom_site_fract_x
_atom_site_fract_y
_atom_site_fract_z
C29 C -0.3592(17) 0.0888(11) 0.0600(13)
C30 C -0.3830(18) 0.1275(15) -0.0373(14)
C31 C -0.359(2) 0.2290(17) -0.0875(10)
C32 C -0.3107(18) 0.2917(12) -0.0405(7)
C33 C -0.2868(9) 0.2529(7) 0.0568(6)
C34 C -0.3111(13) 0.1515(9) 0.1070(7)
Zn1 Zn 0.09966(4) 0.20087(3) 0.27699(2)
O1 O -0.0299(3) 0.3312(2) 0.34345(16)
O2 O 0.0499(3) 0.0401(2) 0.37997(16)
O3 O 0.1082(3) 0.05807(19) 0.22537(16)
O4 O -0.1740(3) 0.2896(2) 0.24199(18)
C1 C 0.0651(3) 0.0021(3) 0.3070(2)
C2 C -0.1655(4) 0.3464(3) 0.3003(2)
C3 C -0.3170(3) 0.4378(3) 0.3168(2)
C4 C 0.0291(3) -0.1114(2) 0.3139(2)
C5 C 0.0116(4) -0.1402(3) 0.2280(2)
H1 H 0.0284 -0.0899 0.1662
C6 C 0.0083(3) -0.1855(3) 0.4055(2)
H2 H 0.0179 -0.1653 0.4640
C7 C -0.3107(3) 0.4997(3) 0.3831(2)
H3 H -0.2111 0.4794 0.4211
C8 C -0.0268(4) -0.2893(3) 0.4100(2)
H4 H -0.0381 -0.3414 0.4722
C9 C -0.0303(4) -0.2417(3) 0.2313(2)
C10 C -0.0456(4) -0.3175(3) 0.3243(2)
H5 H -0.0690 -0.3889 0.3287
C11 C -0.0562(4) -0.2645(3) 0.1385(2)
H6 H -0.0136 -0.2232 0.0816
C12 C -0.4473(3) 0.5908(3) 0.3951(2)
C13 C -0.6015(4) 0.5530(3) 0.2762(3)
H7 H -0.7024 0.5705 0.2406
C14 C -0.1338(4) -0.3375(3) 0.1267(2)
H8 H -0.1746 -0.3801 0.1837
C15 C -0.5936(4) 0.6166(3) 0.3406(3)
H9 H -0.6883 0.6781 0.3476
N1 N -0.3306(3) 0.8433(2) 0.65478(18)
C16 C -0.3597(4) 0.7873(3) 0.5935(2)
H10 H -0.2705 0.7262 0.5805
C17 C -0.5389(4) 0.7504(3) 0.4795(2)
H11 H -0.6423 0.7807 0.4433
C18 C -0.6420(4) 0.9042(3) 0.5668(2)
H12 H -0.7490 0.9255 0.5369
C19 C -0.5131(3) 0.8132(3) 0.5478(2)
C20 C -0.4299(4) 0.6550(3) 0.4641(2)
H13 H -0.3283 0.6244 0.5024
C21 C -0.4560(4) 0.9313(3) 0.6719(2)
H14 H -0.4365 0.9729 0.7143
C22 C -0.6120(4) 0.9628(3) 0.6297(3)
H15 H -0.6987 1.0246 0.6437
C23 C -0.4637(4) 0.4640(3) 0.2633(2)
H16 H -0.4696 0.4217 0.2184
C24 C -0.1618(4) -0.3581(3) 0.0333(2)
C25 C -0.2246(5) -0.4494(3) 0.0322(3)
H17 H -0.2508 -0.4978 0.0921
C26 C -0.2485(5) -0.4692(3) -0.0563(3)
H18 H -0.2903 -0.5312 -0.0577
C27 C -0.2105(4) -0.3972(3) -0.1422(2)
H19 H -0.2261 -0.4112 -0.2029
N2 N -0.1521(3) -0.3080(2) -0.14318(19)
C28 C -0.1296(4) -0.2889(3) -0.0579(2)
H20 H -0.0895 -0.2252 -0.0591
N1A N 0.3306(3) 0.1567(2) 0.34522(18)
N2A N 0.1521(3) 0.3080(2) 0.14318(19)
Zn1A Zn -0.09966(4) 0.79913(3) 0.72301(2)
Zn1A_2 Zn -0.09966(4) -0.20087(3) -0.27699(2)
loop_
_geom_bond_atom_site_label_1
_geom_bond_atom_site_label_2
_geom_bond_site_symmetry_1
_geom_bond_site_symmetry_2
Zn1 O1 1_555 1_555
O1 C2 1_555 1_555
O2 Zn1 1_555 1_555
O3 Zn1 1_555 1_555
O4 Zn1 1_555 1_555
C1 O2 1_555 1_555
C2 O4 1_555 1_555
C3 C2 1_555 1_555
C4 C1 1_555 1_555
C5 C4 1_555 1_555
H1 C5 1_555 1_555
C6 C4 1_555 1_555
H2 C6 1_555 1_555
C7 C3 1_555 1_555
H3 C7 1_555 1_555
C8 C6 1_555 1_555
H4 C8 1_555 1_555
C9 C5 1_555 1_555
C10 C8 1_555 1_555
H5 C10 1_555 1_555
C11 C9 1_555 1_555
H6 C11 1_555 1_555
C12 C7 1_555 1_555
C13 H7 1_555 1_555
C14 C11 1_555 1_555
H8 C14 1_555 1_555
C15 C12 1_555 1_555
H9 C15 1_555 1_555
N1 C16 1_555 1_555
C16 H10 1_555 1_555
C17 H11 1_555 1_555
C18 H12 1_555 1_555
C19 C16 1_555 1_555
C20 C12 1_555 1_555
H13 C20 1_555 1_555
C21 N1 1_555 1_555
H14 C21 1_555 1_555
C22 C18 1_555 1_555
H15 C22 1_555 1_555
C23 C3 1_555 1_555
H16 C23 1_555 1_555
C24 C14 1_555 1_555
C25 C24 1_555 1_555
H17 C25 1_555 1_555
C26 C25 1_555 1_555
H18 C26 1_555 1_555
C27 C26 1_555 1_555
H19 C27 1_555 1_555
N2 C27 1_555 1_555
C28 C24 1_555 1_555
H20 C28 1_555 1_555
C29 C30 1_555 1_555
C30 C31 1_555 1_555
C31 C32 1_555 1_555
C32 C33 1_555 1_555
C33 C34 1_555 1_555
C34 C29 1_555 1_555
N1A Zn1 1_555 1_555
N2A Zn1 1_555 1_555
Zn1A N1 1_555 1_555
Zn1A_2 N2 1_555 1_555
O3 C1 1_555 1_555
C9 C10 1_555 1_555
C13 C15 1_555 1_555
C13 C23 1_555 1_555
C17 C20 1_555 1_555
C17 C19 1_555 1_555
C18 C19 1_555 1_555
C21 C22 1_555 1_555
N2 C28 1_555 1_555

#END
