
#######################################################################
#
#                 Cambridge Crystallographic Data Centre
#                                CCDC 
#
#######################################################################
#
# If this CIF has been generated from an entry in the Cambridge 
# Structural Database, then it will include bibliographic, chemical, 
# crystal, experimental, refinement or atomic coordinate data resulting 
# from the CCDC's data processing and validation procedures.
#
#######################################################################

data_BANTIV01
_symmetry_cell_setting           triclinic
_symmetry_space_group_name_H-M   'P -1'
_symmetry_Int_Tables_number      2
_space_group_name_Hall           '-P 1'
loop_
_symmetry_equiv_pos_site_id
_symmetry_equiv_pos_as_xyz
1 x,y,z
2 -x,-y,-z
_cell_length_a                   9.1020(18)
_cell_length_b                   10.564(2)
_cell_length_c                   13.555(3)
_cell_angle_alpha                103.32(3)
_cell_angle_beta                 100.17(3)
_cell_angle_gamma                99.76(3)
_cell_volume                     1217.94
loop_
_atom_site_label
_atom_site_type_symbol
_atom_site_fract_x
_atom_site_fract_y
_atom_site_fract_z
Fe1 Fe 0.0000 0.5000 0.5000
N1 N -0.1760(8) 0.3308(7) 0.4101(6)
N2 N 0.1708(7) 0.3709(7) 0.4918(5)
N3 N 0.0336(7) 0.5488(7) 0.3556(5)
C1 C -0.2717(10) 0.2458(10) 0.3535(6)
C2 C 0.1583(9) 0.2410(10) 0.4716(6)
C3 C 0.3273(9) 0.4168(9) 0.5048(6)
C4 C 0.1526(9) 0.6342(9) 0.3369(6)
C5 C -0.0697(9) 0.5170(9) 0.2656(6)
S1 S -0.4084(3) 0.1263(3) 0.27160(18)
N4 N 0.2943(8) 0.2079(7) 0.4727(5)
H1 H 0.0661 0.1796 0.4583
N5 N 0.4045(8) 0.3225(8) 0.4946(6)
H2 H 0.3732 0.5067 0.5195
N6 N 0.1270(8) 0.6564(8) 0.2449(5)
H3 H 0.2438 0.6730 0.3861
N7 N -0.0193(8) 0.5788(8) 0.1996(5)
H4 H -0.1645 0.4590 0.2513
C6 C 0.3333(9) 0.0745(8) 0.4461(6)
C7 C -0.1035(10) 0.5893(10) 0.1004(6)
C8 C 0.4792(10) 0.0679(8) 0.5169(6)
H5 H 0.3449 0.0535 0.3747
H6 H 0.2495 0.0075 0.4508
C9 C -0.0194(10) 0.5674(8) 0.0147(6)
H7 H -0.1265 0.6771 0.1104
H8 H -0.2000 0.5243 0.0793
H9 H 0.4657 0.0828 0.5878
H10 H 0.5622 0.1379 0.5155
H11 H 0.0750 0.6349 0.0352
H12 H -0.0808 0.5808 -0.0466
N1A N 0.1760(8) 0.6692(7) 0.5899(6)
N2A N -0.1708(7) 0.6291(7) 0.5082(5)
N3A N -0.0336(7) 0.4512(7) 0.6444(5)
C1A C 0.2717(10) 0.7542(10) 0.6465(6)
S1A S 0.4084(3) 0.8737(3) 0.72840(18)
C8A C 0.5208(10) -0.0679(8) 0.4831(6)
C9A C 0.0194(10) 0.4326(8) -0.0147(6)
H9A H 0.5343 -0.0828 0.4122
H10A H 0.4378 -0.1379 0.4845
C6A C 0.6667(9) -0.0745(8) 0.5539(6)
H11A H -0.0750 0.3651 -0.0352
H12A H 0.0808 0.4192 0.0466
C7A C 0.1035(10) 0.4107(10) -0.1004(6)
N4A N 0.7057(8) -0.2079(7) 0.5273(5)
H5A H 0.6551 -0.0535 0.6253
H6A H 0.7505 -0.0075 0.5492
N7A N 0.0193(8) 0.4212(8) -0.1996(5)
H7A H 0.1265 0.3229 -0.1104
H8A H 0.2000 0.4757 -0.0793
N5A N 0.5955(8) -0.3225(8) 0.5054(6)
C2A C 0.8417(9) -0.2410(10) 0.5284(6)
N6A N -0.1270(8) 0.3436(8) -0.2449(5)
C5A C 0.0697(9) 0.4830(9) -0.2656(6)
C3A C 0.6727(9) -0.4168(9) 0.4952(6)
N2A_2 N 0.8292(7) -0.3709(7) 0.5082(5)
H1A H 0.9339 -0.1796 0.5417
C4A C -0.1526(9) 0.3658(9) -0.3369(6)
N3A_2 N -0.0336(7) 0.4512(7) -0.3556(5)
H4A H 0.1645 0.5410 -0.2513
H2A H 0.6268 -0.5067 0.4805
Fe1_2 Fe 1.0000 -0.5000 0.5000
H3A H -0.2438 0.3270 -0.3861
Fe1_3 Fe 0.0000 0.5000 -0.5000
Fe2 Fe 0.0000 0.0000 0.0000
N8 N 0.3718(7) -0.1800(7) 0.1041(5)
N9 N 0.3948(9) -0.1917(9) 0.0077(6)
N10 N 0.1971(8) -0.0929(7) 0.0286(5)
N11 N 0.1510(8) -0.8147(7) 0.1051(5)
N12 N 0.3569(8) -0.6573(7) 0.1781(5)
N13 N 0.2612(9) -0.6386(8) 0.2451(5)
C10 C 0.2548(9) -0.1215(8) 0.1165(6)
H13 H 0.2188 -0.1034 0.1772
C11 C 0.5152(9) -0.5765(9) 0.2066(7)
H14 H 0.5641 -0.6003 0.1490
H15 H 0.5720 -0.5980 0.2659
C12 C 0.4481(10) -0.3780(8) 0.1441(6)
H16 H 0.4967 -0.3991 0.0860
H17 H 0.3407 -0.4219 0.1207
C13 C 0.2910(10) -0.7610(9) 0.0958(7)
H18 H 0.3352 -0.7914 0.0405
C14 C 0.4635(10) -0.2296(8) 0.1799(7)
H19 H 0.4318 -0.2076 0.2453
H20 H 0.5701 -0.1854 0.1920
C15 C 0.5230(9) -0.4293(8) 0.2332(6)
H21 H 0.6296 -0.3831 0.2567
H22 H 0.4741 -0.4063 0.2909
C16 C 0.1390(10) -0.7374(9) 0.1974(6)
H23 H 0.0530 -0.7521 0.2250
C17 C 0.2852(11) -0.1395(9) -0.0355(7)
H24 H 0.2704 -0.1355 -0.1043
S2 S 0.1037(3) -0.8966(3) -0.31992(17)
C18 C 0.0863(9) -0.9327(9) -0.2112(7)
N14 N 0.0714(8) -0.9552(8) -0.1339(5)
N10A N -0.1971(8) -0.9071(7) -0.0286(5)
Fe2_2 Fe 0.0000 -1.0000 0.0000
C14A C -0.4635(10) -1.7704(8) -0.1799(7)
H19A H -0.4318 -1.7924 -0.2453
N8A N -0.3718(7) -1.8200(7) -0.1041(5)
C10A C -0.2548(9) -1.8785(8) -0.1165(6)
N10_2 N 0.1971(8) -1.0929(7) 0.0286(5)
C16A C -0.1390(10) -1.2626(9) -0.1974(6)
H23A H -0.0530 -1.2479 -0.2250
H20A H -0.5701 -1.8146 -0.1920
N12A N -0.3569(8) -1.3427(7) -0.1781(5)
N13A N -0.2612(9) -1.3614(8) -0.2451(5)
C17A C -0.2852(11) -1.8605(9) 0.0355(7)
H24A H -0.2704 -1.8645 0.1043
C13A C -0.2910(10) -1.2390(9) -0.0958(7)
H18A H -0.3352 -1.2086 -0.0405
C15A C -0.5230(9) -1.5707(8) -0.2332(6)
H22A H -0.4741 -1.5937 -0.2909
H21A H -0.6296 -1.6169 -0.2567
C12A C -0.4481(10) -1.6220(8) -0.1441(6)
N11A N -0.1510(8) -1.1853(7) -0.1051(5)
N10A_2 N -0.1971(8) -1.9071(7) -0.0286(5)
Fe2_3 Fe 0.0000 -2.0000 0.0000
N9A N -0.3948(9) -1.8083(9) -0.0077(6)
H17A H -0.3407 -1.5781 -0.1207
S2A S -0.1037(3) -1.1034(3) 0.31992(17)
C18A C -0.0863(9) -1.0673(9) 0.2112(7)
C11A C -0.5152(9) -1.4235(9) -0.2066(7)
N14A N -0.0714(8) -1.0448(8) 0.1339(5)
H15A H -0.5720 -1.4020 -0.2659
H14A H -0.5641 -1.3997 -0.1490
H13A H -0.2188 -1.8966 -0.1772
H16A H -0.4967 -1.6009 -0.0860
loop_
_geom_bond_atom_site_label_1
_geom_bond_atom_site_label_2
_geom_bond_site_symmetry_1
_geom_bond_site_symmetry_2
Fe1 N1 1_555 1_555
N1 C1 1_555 1_555
N2 Fe1 1_555 1_555
N3 Fe1 1_555 1_555
C1 S1 1_555 1_555
C2 N2 1_555 1_555
C3 N2 1_555 1_555
C4 N3 1_555 1_555
C5 N3 1_555 1_555
N4 C2 1_555 1_555
H1 C2 1_555 1_555
N5 C3 1_555 1_555
H2 C3 1_555 1_555
N6 C4 1_555 1_555
H3 C4 1_555 1_555
N7 C5 1_555 1_555
H4 C5 1_555 1_555
C6 N4 1_555 1_555
C7 N7 1_555 1_555
C8 C6 1_555 1_555
H5 C6 1_555 1_555
H6 C6 1_555 1_555
C9 C7 1_555 1_555
H7 C7 1_555 1_555
H8 C7 1_555 1_555
H9 C8 1_555 1_555
H10 C8 1_555 1_555
H11 C9 1_555 1_555
H12 C9 1_555 1_555
Fe2 N10 1_555 1_555
N8 N9 1_555 1_555
N9 C17 1_555 1_555
N10 C10 1_555 1_555
N11 C13 1_555 1_555
N12 N13 1_555 1_555
N13 C16 1_555 1_555
C10 N8 1_555 1_555
H13 C10 1_555 1_555
C11 N12 1_555 1_555
H14 C11 1_555 1_555
H15 C11 1_555 1_555
C12 H16 1_555 1_555
H17 C12 1_555 1_555
C13 N12 1_555 1_555
H18 C13 1_555 1_555
C14 N8 1_555 1_555
H19 C14 1_555 1_555
H20 C14 1_555 1_555
C15 C11 1_555 1_555
H21 C15 1_555 1_555
H22 C15 1_555 1_555
C16 N11 1_555 1_555
H23 C16 1_555 1_555
C17 N10 1_555 1_555
H24 C17 1_555 1_555
S2 C18 1_555 1_555
C18 N14 1_555 1_555
N14 Fe2_2 1_555 1_555
N1A Fe1 1_555 1_555
N2A Fe1 1_555 1_555
N3A Fe1 1_555 1_555
C1A N1A 1_555 1_555
S1A C1A 1_555 1_555
C8A C8 1_555 1_555
C9A C9 1_555 1_555
H9A C8A 1_555 1_555
H10A C8A 1_555 1_555
C6A C8A 1_555 1_555
H11A C9A 1_555 1_555
H12A C9A 1_555 1_555
C7A C9A 1_555 1_555
N4A C6A 1_555 1_555
H5A C6A 1_555 1_555
H6A C6A 1_555 1_555
N7A C7A 1_555 1_555
H7A C7A 1_555 1_555
H8A C7A 1_555 1_555
N5A N4A 1_555 1_555
C2A N4A 1_555 1_555
N6A N7A 1_555 1_555
C5A N7A 1_555 1_555
C3A N5A 1_555 1_555
N2A_2 C2A 1_555 1_555
H1A C2A 1_555 1_555
C4A N6A 1_555 1_555
N3A_2 C5A 1_555 1_555
H4A C5A 1_555 1_555
H2A C3A 1_555 1_555
Fe1_2 N2A_2 1_555 1_555
H3A C4A 1_555 1_555
Fe1_3 N3A_2 1_555 1_555
N10A Fe2_2 1_555 1_555
Fe2_2 N11 1_555 1_555
C14A H19A 1_555 1_555
N8A C14A 1_555 1_555
C10A N8A 1_555 1_555
N10_2 Fe2_2 1_555 1_555
C16A H23A 1_555 1_555
H20A C14A 1_555 1_555
N12A N13A 1_555 1_555
N13A C16A 1_555 1_555
C17A H24A 1_555 1_555
C13A N12A 1_555 1_555
H18A C13A 1_555 1_555
C15A H22A 1_555 1_555
H21A C15A 1_555 1_555
C12A C14A 1_555 1_555
N11A Fe2_2 1_555 1_555
N10A_2 C10A 1_555 1_555
Fe2_3 N10A_2 1_555 1_555
N9A N8A 1_555 1_555
H17A C12A 1_555 1_555
S2A C18A 1_555 1_555
C18A N14A 1_555 1_555
C11A N12A 1_555 1_555
N14A Fe2_2 1_555 1_555
H15A C11A 1_555 1_555
H14A C11A 1_555 1_555
H13A C10A 1_555 1_555
H16A C12A 1_555 1_555
N4 N5 1_555 1_555
N6 N7 1_555 1_555
C12 C14 1_555 1_555
C12 C15 1_555 1_555
C3A N2A_2 1_555 1_555
C4A N3A_2 1_555 1_555
C16A N11A 1_555 1_555
C17A N10A_2 1_555 1_555
C17A N9A 1_555 1_555
C13A N11A 1_555 1_555
C15A C12A 1_555 1_555
C15A C11A 1_555 1_555

#END
