
#######################################################################
#
#                 Cambridge Crystallographic Data Centre
#                                CCDC 
#
#######################################################################
#
# If this CIF has been generated from an entry in the Cambridge 
# Structural Database, then it will include bibliographic, chemical, 
# crystal, experimental, refinement or atomic coordinate data resulting 
# from the CCDC's data processing and validation procedures.
#
#######################################################################

data_BANTIV02
_symmetry_cell_setting           triclinic
_symmetry_space_group_name_H-M   'P -1'
_symmetry_Int_Tables_number      2
_space_group_name_Hall           '-P 1'
loop_
_symmetry_equiv_pos_site_id
_symmetry_equiv_pos_as_xyz
1 x,y,z
2 -x,-y,-z
_cell_length_a                   9.0052(5)
_cell_length_b                   10.5215(3)
_cell_length_c                   13.4705(3)
_cell_angle_alpha                103.625(1)
_cell_angle_beta                 99.901(2)
_cell_angle_gamma                99.760(2)
_cell_volume                     1192.15
loop_
_atom_site_label
_atom_site_type_symbol
_atom_site_fract_x
_atom_site_fract_y
_atom_site_fract_z
Fe1 Fe 0.0000 0.5000 0.5000
N1 N -0.07349(16) 0.45623(14) 0.63482(11)
N2 N 0.19548(15) 0.40631(13) 0.52890(10)
N3 N -0.15064(16) 0.31439(13) 0.39520(10)
C1 C -0.08709(18) 0.43344(16) 0.71382(13)
C2 C 0.25265(18) 0.37860(15) 0.61690(13)
C3 C 0.2870(2) 0.36131(18) 0.46424(14)
S1 S -0.10630(5) 0.39651(5) 0.82293(3)
N4 N 0.37030(15) 0.32010(13) 0.60545(11)
H1 H 0.2148 0.3979 0.6792
N5 N 0.39489(18) 0.30754(16) 0.50707(12)
H2 H 0.2744 0.3679 0.3943
C4 C 0.46402(19) 0.27084(16) 0.68117(13)
H3 H 0.4318 0.2933 0.7487
H4 H 0.5737 0.3165 0.6931
C5 C 0.44908(19) 0.12021(16) 0.64449(13)
H5 H 0.5005 0.0984 0.5853
H6 H 0.3386 0.0744 0.6201
C6 C 0.5240(2) 0.07230(16) 0.73505(14)
H7 H 0.6338 0.1199 0.7590
H8 H 0.4728 0.0967 0.7941
C7 C 0.51538(19) -0.07762(16) 0.70768(15)
N6 N 0.35695(16) -0.15634(13) 0.67914(11)
H9 H 0.5661 -0.1026 0.6485
H10 H 0.5730 -0.0998 0.7685
N7 N 0.25961(18) -0.13825(14) 0.74518(11)
C8 C 0.29158(19) -0.26150(16) 0.59712(13)
C9 C 0.1377(2) -0.23556(16) 0.69726(13)
H11 H 0.3388 -0.2940 0.5413
H12 H 0.0481 -0.2495 0.7250
N1A N 0.07349(16) 0.54377(14) 0.36518(11)
N2A N -0.19548(15) 0.59369(13) 0.47110(10)
N3A N 0.15064(16) 0.68561(13) 0.60480(10)
C1A C 0.08709(18) 0.56656(16) 0.28618(13)
C2A C -0.25265(18) 0.62140(15) 0.38310(13)
C3A C -0.2870(2) 0.63869(18) 0.53576(14)
S1A S 0.10630(5) 0.60349(5) 0.17707(3)
N4A N -0.37030(15) 0.67990(13) 0.39455(11)
H1A H -0.2148 0.6021 0.3208
N5A N -0.39489(18) 0.69246(16) 0.49293(12)
H2A H -0.2744 0.6321 0.6057
C4A C -0.46402(19) 0.72916(16) 0.31883(13)
C5A C -0.44908(19) 0.87979(16) 0.35551(13)
H3A H -0.4318 0.7067 0.2513
H4A H -0.5737 0.6835 0.3069
C6A C -0.5240(2) 0.92770(16) 0.26495(14)
H5A H -0.5005 0.9016 0.4147
H6A H -0.3386 0.9256 0.3799
H7A H -0.6338 0.8801 0.2410
H8A H -0.4728 0.9033 0.2059
C7A C -0.51538(19) 1.07762(16) 0.29232(15)
N6A N -0.35695(16) 1.15634(13) 0.32086(11)
H9A H -0.5661 1.1026 0.3515
H10A H -0.5730 1.0998 0.2315
C8A C -0.29158(19) 1.26150(16) 0.40288(13)
N7A N -0.25961(18) 1.13825(14) 0.25482(11)
N3A_2 N 0.15064(16) -0.31439(13) 0.60480(10)
N3_2 N -0.15064(16) 1.31439(13) 0.39520(10)
H11A H -0.3388 1.2940 0.4587
C9A C -0.1377(2) 1.23556(16) 0.30274(13)
Fe1_2 Fe 0.0000 -0.5000 0.5000
Fe1_3 Fe 0.0000 1.5000 0.5000
H12A H -0.0481 1.2495 0.2750
Fe2 Fe 0.0000 1.0000 0.0000
S2 S -0.41198(5) 0.62377(4) -0.22953(3)
N8 N -0.17750(16) 0.83036(14) -0.09063(11)
N9 N -0.03667(15) 0.94991(13) 0.14450(10)
N10 N 0.01921(16) 0.91802(14) 0.29991(10)
N11 N -0.12630(17) 0.84185(15) 0.25574(11)
N12 N 0.17072(15) 0.87038(13) -0.00968(10)
N13 N 0.29375(15) 0.70725(13) -0.02948(10)
N14 N 0.40520(15) 0.82134(13) -0.00781(11)
C10 C -0.27415(19) 0.74287(16) -0.14748(12)
C11 C 0.06953(19) 0.98058(16) 0.23332(13)
H13 H 0.1678 1.0392 0.2471
C12 C -0.1536(2) 0.86560(17) 0.16307(13)
H14 H -0.2483 0.8265 0.1131
C13 C 0.1067(2) 0.90983(18) 0.40009(13)
H15 H 0.2047 0.9782 0.4216
H16 H 0.1327 0.8206 0.3902
C14 C 0.0185(2) 0.93127(15) 0.48682(12)
H17 H -0.0792 0.8625 0.4654
H18 H 0.0805 0.9186 0.5505
C15 C 0.15583(18) 0.73816(16) -0.03082(12)
H19 H 0.0608 0.6750 -0.0448
C16 C 0.32530(18) 0.91607(16) 0.00348(13)
H20 H 0.3720 1.0086 0.0195
C17 C 0.33144(18) 0.57393(15) -0.05562(13)
H21 H 0.3450 0.5517 -0.1287
H22 H 0.2440 0.5059 -0.0512
C18 C 0.47731(19) 0.56730(15) 0.01694(13)
H23 H 0.4606 0.5812 0.0891
H24 H 0.5629 0.6403 0.0174
N9A N 0.03667(15) 1.05009(13) 0.85550(10)
N10A N -0.01921(16) 1.08198(14) 0.70009(10)
N11A N 0.12630(17) 1.15815(15) 0.74426(11)
C11A C -0.06953(19) 1.01942(16) 0.76668(13)
H13A H -0.1678 0.9608 0.7529
C12A C 0.1536(2) 1.13440(17) 0.83693(13)
H14A H 0.2483 1.1735 0.8869
C13A C -0.1067(2) 1.09017(18) 0.59991(13)
H15A H -0.2047 1.0218 0.5784
H16A H -0.1327 1.1794 0.6098
C14A C -0.0185(2) 1.06873(15) 0.51318(12)
H17A H 0.0792 1.1375 0.5346
H18A H -0.0805 1.0814 0.4495
N12A N 0.82928(15) 0.12962(13) 0.00968(10)
N13A N 0.70625(15) 0.29275(13) 0.02948(10)
N14A N 0.59480(15) 0.17866(13) 0.00781(11)
C15A C 0.84417(18) 0.26184(16) 0.03082(12)
H19A H 0.9392 0.3250 0.0448
C16A C 0.67470(18) 0.08393(16) -0.00348(13)
H20A H 0.6280 -0.0086 -0.0195
C17A C 0.66856(18) 0.42607(15) 0.05562(13)
H21A H 0.6550 0.4483 0.1287
H22A H 0.7560 0.4941 0.0512
C18A C 0.52269(19) 0.43270(15) -0.01694(13)
H23A H 0.5394 0.4188 -0.0891
H24A H 0.4371 0.3597 -0.0174
S2A S 0.41198(5) 1.37623(4) 0.22953(3)
N8A N 0.17750(16) 1.16964(14) 0.09063(11)
C10A C 0.27415(19) 1.25713(16) 0.14748(12)
Fe2_2 Fe 0.0000 1.0000 1.0000
Fe2_3 Fe 1.0000 0.0000 0.0000
N9A_2 N 0.03667(15) 1.05009(13) -0.14450(10)
N12A_2 N -0.17072(15) 1.12962(13) 0.00968(10)
loop_
_geom_bond_atom_site_label_1
_geom_bond_atom_site_label_2
_geom_bond_site_symmetry_1
_geom_bond_site_symmetry_2
Fe1 N1 1_555 1_555
N1 C1 1_555 1_555
N2 Fe1 1_555 1_555
N3 Fe1 1_555 1_555
C1 S1 1_555 1_555
C2 N2 1_555 1_555
C3 N2 1_555 1_555
N4 C2 1_555 1_555
H1 C2 1_555 1_555
N5 C3 1_555 1_555
H2 C3 1_555 1_555
C4 N4 1_555 1_555
H3 C4 1_555 1_555
H4 C4 1_555 1_555
C5 C4 1_555 1_555
H5 C5 1_555 1_555
H6 C5 1_555 1_555
C6 C5 1_555 1_555
H7 C6 1_555 1_555
H8 C6 1_555 1_555
C7 C6 1_555 1_555
N6 C7 1_555 1_555
H9 C7 1_555 1_555
H10 C7 1_555 1_555
N7 N6 1_555 1_555
C8 N6 1_555 1_555
C9 N7 1_555 1_555
H11 C8 1_555 1_555
H12 C9 1_555 1_555
Fe2 N8 1_555 1_555
S2 C10 1_555 1_555
N8 C10 1_555 1_555
N9 Fe2 1_555 1_555
N10 N11 1_555 1_555
N11 C12 1_555 1_555
N12 Fe2 1_555 1_555
N13 N14 1_555 1_555
N14 C16 1_555 1_555
C11 N9 1_555 1_555
H13 C11 1_555 1_555
C12 N9 1_555 1_555
H14 C12 1_555 1_555
C13 N10 1_555 1_555
H15 C13 1_555 1_555
H16 C13 1_555 1_555
C14 C13 1_555 1_555
H17 C14 1_555 1_555
H18 C14 1_555 1_555
C15 N12 1_555 1_555
H19 C15 1_555 1_555
C16 N12 1_555 1_555
H20 C16 1_555 1_555
C17 N13 1_555 1_555
H21 C17 1_555 1_555
H22 C17 1_555 1_555
C18 C17 1_555 1_555
H23 C18 1_555 1_555
H24 C18 1_555 1_555
N1A Fe1 1_555 1_555
N2A Fe1 1_555 1_555
N3A Fe1 1_555 1_555
C1A N1A 1_555 1_555
C2A N2A 1_555 1_555
C3A N2A 1_555 1_555
S1A C1A 1_555 1_555
N4A C2A 1_555 1_555
H1A C2A 1_555 1_555
N5A C3A 1_555 1_555
H2A C3A 1_555 1_555
C4A N4A 1_555 1_555
C5A C4A 1_555 1_555
H3A C4A 1_555 1_555
H4A C4A 1_555 1_555
C6A C5A 1_555 1_555
H5A C5A 1_555 1_555
H6A C5A 1_555 1_555
H7A C6A 1_555 1_555
H8A C6A 1_555 1_555
C7A C6A 1_555 1_555
N6A C7A 1_555 1_555
H9A C7A 1_555 1_555
H10A C7A 1_555 1_555
C8A N6A 1_555 1_555
N7A N6A 1_555 1_555
N3A_2 C8 1_555 1_555
N3_2 C8A 1_555 1_555
H11A C8A 1_555 1_555
C9A N7A 1_555 1_555
Fe1_2 N3A_2 1_555 1_555
Fe1_3 N3_2 1_555 1_555
H12A C9A 1_555 1_555
N9A C11A 1_555 1_555
N10A N11A 1_555 1_555
N11A C12A 1_555 1_555
C11A N10A 1_555 1_555
H13A C11A 1_555 1_555
C12A N9A 1_555 1_555
H14A C12A 1_555 1_555
C13A N10A 1_555 1_555
H15A C13A 1_555 1_555
H16A C13A 1_555 1_555
C14A C14 1_555 1_555
H17A C14A 1_555 1_555
H18A C14A 1_555 1_555
N12A C15A 1_555 1_555
N13A N14A 1_555 1_555
N14A C16A 1_555 1_555
C15A N13A 1_555 1_555
H19A C15A 1_555 1_555
C16A N12A 1_555 1_555
H20A C16A 1_555 1_555
C17A N13A 1_555 1_555
H21A C17A 1_555 1_555
H22A C17A 1_555 1_555
C18A C18 1_555 1_555
H23A C18A 1_555 1_555
H24A C18A 1_555 1_555
S2A C10A 1_555 1_555
N8A Fe2 1_555 1_555
C10A N8A 1_555 1_555
Fe2_2 N9A 1_555 1_555
Fe2_3 N12A 1_555 1_555
N9A_2 Fe2 1_555 1_555
N12A_2 Fe2 1_555 1_555
N4 N5 1_555 1_555
C9 N3A_2 1_555 1_555
N10 C11 1_555 1_555
N13 C15 1_555 1_555
N4A N5A 1_555 1_555
N3_2 C9A 1_555 1_555
C13A C14A 1_555 1_555
C17A C18A 1_555 1_555

#END
