
#######################################################################
#
#                 Cambridge Crystallographic Data Centre
#                                CCDC 
#
#######################################################################
#
# If this CIF has been generated from an entry in the Cambridge 
# Structural Database, then it will include bibliographic, chemical, 
# crystal, experimental, refinement or atomic coordinate data resulting 
# from the CCDC's data processing and validation procedures.
#
#######################################################################

data_BAOXAL01
_symmetry_cell_setting           monoclinic
_symmetry_space_group_name_H-M   'P 21'
_symmetry_Int_Tables_number      4
_space_group_name_Hall           'P 2yb'
loop_
_symmetry_equiv_pos_site_id
_symmetry_equiv_pos_as_xyz
1 x,y,z
2 -x,1/2+y,-z
_cell_length_a                   7.525(1)
_cell_length_b                   11.048(1)
_cell_length_c                   7.092(1)
_cell_angle_alpha                90
_cell_angle_beta                 105.42(1)
_cell_angle_gamma                90
_cell_volume                     568.378
loop_
_atom_site_label
_atom_site_type_symbol
_atom_site_fract_x
_atom_site_fract_y
_atom_site_fract_z
Ba1 Ba 0.1933(2) 0.0073(3) 0.2895(3)
C1 C 0.244(3) -0.148(3) 0.419(5)
O1 O 0.240(2) -0.076(2) 0.458(3)
O2 O 0.322(2) -0.268(2) 0.357(3)
O3 O 0.418(1) 0.023(2) 0.721(2)
O4 O 0.379(1) 0.223(2) 0.325(3)
C2 C 0.036(3) -0.265(3) 0.510(6)
O5 O 0.018(2) -0.358(2) 0.521(4)
O6 O -0.085(2) -0.169(2) 0.559(3)
Ba1A Ba -0.1933(2) -0.4927(3) 0.7105(3)
O5A O -0.018(2) 0.142(2) 0.479(4)
O6A O 0.085(2) 0.331(2) 0.441(3)
loop_
_geom_bond_atom_site_label_1
_geom_bond_atom_site_label_2
_geom_bond_site_symmetry_1
_geom_bond_site_symmetry_2
Ba1 O1 1_555 1_555
C1 O1 1_555 1_555
O2 Ba1 1_555 1_555
O3 Ba1 1_555 1_555
O4 Ba1 1_555 1_555
C2 C1 1_555 1_555
O5 C2 1_555 1_555
O6 Ba1 1_555 1_555
Ba1A O5 1_555 1_555
O5A Ba1 1_555 1_555
O6A Ba1 1_555 1_555
C1 O2 1_555 1_555
C2 O6 1_555 1_555
O6 Ba1A 1_555 1_555

#END
