
#######################################################################
#
#                 Cambridge Crystallographic Data Centre
#                                CCDC 
#
#######################################################################
#
# If this CIF has been generated from an entry in the Cambridge 
# Structural Database, then it will include bibliographic, chemical, 
# crystal, experimental, refinement or atomic coordinate data resulting 
# from the CCDC's data processing and validation procedures.
#
#######################################################################

data_BAPMIP
_symmetry_cell_setting           monoclinic
_symmetry_space_group_name_H-M   'P 21/c'
_symmetry_Int_Tables_number      14
_space_group_name_Hall           '-P 2ybc'
loop_
_symmetry_equiv_pos_site_id
_symmetry_equiv_pos_as_xyz
1 x,y,z
2 x,1/2-y,1/2+z
3 -x,-y,-z
4 -x,1/2+y,1/2-z
_cell_length_a                   8.74560(10)
_cell_length_b                   11.1479(2)
_cell_length_c                   21.9376(4)
_cell_angle_alpha                90
_cell_angle_beta                 112.2200(10)
_cell_angle_gamma                90
_cell_volume                     1979.98
loop_
_atom_site_label
_atom_site_type_symbol
_atom_site_fract_x
_atom_site_fract_y
_atom_site_fract_z
In1 In 1.10150(3) -0.249309(17) -0.010332(12)
In2 In 0.76084(3) -0.23855(2) -0.298776(13)
O1 O 1.1442(3) -0.2271(2) -0.10824(13)
O2 O 1.3709(3) -0.2777(2) 0.01278(13)
O3 O 0.7296(4) -0.2720(3) -0.20407(14)
O4 O 0.8576(4) -0.2670(2) -0.09502(14)
O5 O 1.4906(4) -0.2165(3) 0.17942(14)
O6 O 0.9145(3) -0.13322(19) 0.01342(13)
O7 O 1.0116(4) -0.2226(3) -0.21745(14)
O8 O 1.6194(3) -0.2886(2) 0.09342(13)
O9 O 0.9647(3) -0.36918(19) 0.03622(12)
O10 O 0.8331(3) 0.05526(19) 0.01604(13)
O11 O 1.2393(3) -0.2142(2) 0.09966(12)
O12 O 0.8824(3) -0.5573(2) 0.04212(14)
C1 C 1.4663(5) -0.2691(3) 0.07153(18)
C2 C 1.0204(5) -0.2333(3) -0.16049(19)
C3 C 0.8555(5) -0.2580(3) -0.15242(19)
C4 C 1.3917(5) -0.2298(3) 0.12093(19)
C5 C 0.9551(4) -0.4792(3) 0.02238(17)
C6 C 0.9273(4) -0.0225(3) 0.00883(17)
O13 O 0.8015(4) -0.4247(2) -0.30923(15)
H1 H 0.787(5) -0.468(3) -0.2742(12)
H2 H 0.723(4) -0.460(3) -0.3485(10)
O14 O 0.9409(4) -0.2014(3) -0.34433(14)
H3 H 0.935(5) -0.169(4) -0.3852(9)
H4 H 1.029(4) -0.160(4) -0.3112(13)
O15 O 0.7125(4) -0.0553(2) -0.28503(16)
H5 H 0.791(5) -0.023(4) -0.2447(11)
H6 H 0.719(6) -0.004(3) -0.3187(13)
C6B C 1.0727(4) 0.0225(3) -0.00883(17)
O6B O 1.0855(3) 0.13322(19) -0.01342(13)
O10B O 1.1669(3) -0.05526(19) -0.01604(13)
C5B C 1.0449(4) -0.5208(3) -0.02238(17)
O9B O 1.0353(3) -0.63082(19) -0.03622(12)
O12B O 1.1176(3) -0.4427(2) -0.04212(14)
In1B In 0.89850(3) 0.249309(17) 0.010332(12)
In2A In 1.76084(3) -0.26145(2) 0.201224(13)
O2A O 0.3709(3) -0.2223(2) -0.48722(13)
O5A O 0.4906(4) -0.2835(3) -0.32058(14)
O8A O 0.6194(3) -0.2114(2) -0.40658(13)
O11A O 0.2393(3) -0.2858(2) -0.40034(12)
C1A C 0.4663(5) -0.2309(3) -0.42847(18)
C4A C 0.3917(5) -0.2702(3) -0.37907(19)
O1B O 0.8558(3) 0.2271(2) 0.10824(13)
O3B O 1.2704(4) 0.2720(3) 0.20407(14)
O4B O 1.1424(4) 0.2670(2) 0.09502(14)
O7B O 0.9884(4) 0.2226(3) 0.21745(14)
C2B C 0.9796(5) 0.2333(3) 0.16049(19)
C3B C 1.1445(5) 0.2580(3) 0.15242(19)
O13A O 1.8015(4) -0.0753(2) 0.19077(15)
H1A H 1.787(5) -0.032(3) 0.2258(12)
H2A H 1.723(4) -0.040(3) 0.1515(10)
O14A O 1.9409(4) -0.2986(3) 0.15567(14)
H3A H 1.935(5) -0.331(4) 0.1148(9)
H4A H 2.029(4) -0.340(4) 0.1888(13)
O15A O 1.7125(4) -0.4447(2) 0.21497(16)
H5A H 1.791(5) -0.477(4) 0.2553(11)
H6A H 1.719(6) -0.496(3) 0.1813(13)
In1B_2 In 0.89850(3) -0.750691(17) 0.010332(12)
O2B O 0.6291(3) 0.2777(2) -0.01278(13)
O9B_2 O 1.0353(3) 0.36918(19) -0.03622(12)
O11B O 0.7607(3) 0.2142(2) -0.09966(12)
O12_2 O 0.8824(3) 0.4427(2) 0.04212(14)
O3A O 1.7296(4) -0.2280(3) 0.29593(14)
O7A O 2.0116(4) -0.2774(3) 0.28255(14)
In1A In 0.10150(3) -0.250691(17) -0.510332(12)
In2B In 1.23916(3) 0.23855(2) 0.298776(13)
O16 O 0.2251(4) -0.0773(3) -0.28122(16)
H7 H 0.281(5) -0.144(3) -0.2548(19)
H8 H 0.285(5) -0.060(4) -0.3086(19)
O17 O 0.1190(4) -0.4651(3) -0.33226(17)
H9 H 0.166(5) -0.391(2) -0.337(2)
H10 H 0.027(4) -0.445(3) -0.321(3)
O18 O -0.3957(4) -0.4903(3) -0.42308(16)
H11 H -0.428(6) -0.567(2) -0.412(2)
H12 H -0.323(5) -0.507(3) -0.445(2)
O19 O 0.3496(5) -0.4372(3) -0.1067(2)
H13 H 0.376(7) -0.3537(15) -0.108(3)
H14 H 0.285(6) -0.441(4) -0.080(2)
O20 O 0.5673(4) -0.2038(3) -0.06022(17)
H15 H 0.674(3) -0.205(5) -0.063(2)
H16 H 0.491(4) -0.216(5) -0.1049(10)
O21 O 0.4041(6) -0.2508(3) -0.2008(2)
H17 H 0.468(6) -0.298(4) -0.219(3)
H18 H 0.455(6) -0.173(2) -0.193(3)
O22 O 0.6673(4) -0.4913(3) -0.1160(2)
H19 H 0.717(5) -0.415(2) -0.119(3)
H20 H 0.5506(15) -0.474(4) -0.134(3)
loop_
_geom_bond_atom_site_label_1
_geom_bond_atom_site_label_2
_geom_bond_site_symmetry_1
_geom_bond_site_symmetry_2
In1 O1 1_555 1_555
In2 O3 1_555 1_555
O1 C2 1_555 1_555
O2 In1 1_555 1_555
O3 C3 1_555 1_555
O4 In1 1_555 1_555
O5 C4 1_555 1_555
O6 In1 1_555 1_555
O7 In2 1_555 1_555
O8 C1 1_555 1_555
O9 In1 1_555 1_555
O10 C6 1_555 1_555
O11 In1 1_555 1_555
O12 C5 1_555 1_555
C1 O2 1_555 1_555
C2 O7 1_555 1_555
C3 O4 1_555 1_555
C4 O11 1_555 1_555
C5 O9 1_555 1_555
C6 O6 1_555 1_555
O13 In2 1_555 1_555
H1 O13 1_555 1_555
H2 O13 1_555 1_555
O14 In2 1_555 1_555
H3 O14 1_555 1_555
H4 O14 1_555 1_555
O15 In2 1_555 1_555
H5 O15 1_555 1_555
H6 O15 1_555 1_555
O16 H7 1_555 1_555
H8 O16 1_555 1_555
O17 H9 1_555 1_555
H10 O17 1_555 1_555
O18 H11 1_555 1_555
H12 O18 1_555 1_555
O19 H13 1_555 1_555
H14 O19 1_555 1_555
O20 H15 1_555 1_555
H16 O20 1_555 1_555
O21 H17 1_555 1_555
H18 O21 1_555 1_555
O22 H19 1_555 1_555
H20 O22 1_555 1_555
C6B C6 1_555 1_555
O6B C6B 1_555 1_555
O10B In1 1_555 1_555
C5B C5 1_555 1_555
O9B C5B 1_555 1_555
O12B In1 1_555 1_555
In1B O10 1_555 1_555
In2A O5 1_555 1_555
O2A C1A 1_555 1_555
O5A In2 1_555 1_555
O8A In2 1_555 1_555
O11A C4A 1_555 1_555
C1A O8A 1_555 1_555
C4A O5A 1_555 1_555
O1B In1B 1_555 1_555
O3B C3B 1_555 1_555
O4B In1B 1_555 1_555
O7B C2B 1_555 1_555
C2B O1B 1_555 1_555
C3B O4B 1_555 1_555
O13A In2A 1_555 1_555
H1A O13A 1_555 1_555
H2A O13A 1_555 1_555
O14A In2A 1_555 1_555
H3A O14A 1_555 1_555
H4A O14A 1_555 1_555
O15A In2A 1_555 1_555
H5A O15A 1_555 1_555
H6A O15A 1_555 1_555
In1B_2 O12 1_555 1_555
O2B In1B 1_555 1_555
O9B_2 In1B 1_555 1_555
O11B In1B 1_555 1_555
O12_2 In1B 1_555 1_555
O3A In2A 1_555 1_555
O7A In2A 1_555 1_555
In1A O2A 1_555 1_555
In2B O3B 1_555 1_555
O8 In2A 1_555 1_555
C1 C4 1_555 1_555
C2 C3 1_555 1_555
C6B O10B 1_555 1_555
O6B In1B 1_555 1_555
C5B O12B 1_555 1_555
O9B In1B_2 1_555 1_555
O11A In1A 1_555 1_555
C1A C4A 1_555 1_555
O7B In2B 1_555 1_555
C2B C3B 1_555 1_555

#END
