
#######################################################################
#
#                 Cambridge Crystallographic Data Centre
#                                CCDC 
#
#######################################################################
#
# If this CIF has been generated from an entry in the Cambridge 
# Structural Database, then it will include bibliographic, chemical, 
# crystal, experimental, refinement or atomic coordinate data resulting 
# from the CCDC's data processing and validation procedures.
#
#######################################################################

data_BAPSUH01
_symmetry_cell_setting           monoclinic
_symmetry_space_group_name_H-M   'P 21/n'
_symmetry_Int_Tables_number      14
_space_group_name_Hall           '-P 2yn'
loop_
_symmetry_equiv_pos_site_id
_symmetry_equiv_pos_as_xyz
1 x,y,z
2 1/2+x,1/2-y,1/2+z
3 -x,-y,-z
4 1/2-x,1/2+y,1/2-z
_cell_length_a                   13.5700(19)
_cell_length_b                   19.874(3)
_cell_length_c                   49.646(7)
_cell_angle_alpha                90
_cell_angle_beta                 96.815(3)
_cell_angle_gamma                90
_cell_volume                     13294.4
loop_
_atom_site_label
_atom_site_type_symbol
_atom_site_fract_x
_atom_site_fract_y
_atom_site_fract_z
Ni1 Ni 0.07159(8) 0.68470(5) 0.06238(2)
Ni2 Ni -1.18204(7) 0.82808(5) -0.18400(2)
N1 N -0.0741(6) 0.6670(6) 0.10532(18)
O1 O 0.0078(4) 0.6835(3) 0.09911(13)
O2 O -0.1295(11) 0.6469(19) 0.0892(3)
O3 O -0.0945(6) 0.6618(6) 0.12741(17)
N2 N 0.1610(6) 0.7053(5) 0.00867(18)
O4 O 0.1552(5) 0.6768(3) 0.02941(15)
O5 O 0.1952(7) 0.6771(5) -0.01048(17)
O6 O 0.1278(7) 0.7651(4) 0.00495(18)
N3 N -1.3317(6) 0.8424(4) -0.13934(18)
O7 O -1.2687(4) 0.8125(3) -0.15103(13)
O8 O -1.3404(6) 0.9060(4) -0.14284(18)
O9 O -1.3757(5) 0.8150(4) -0.12271(16)
N4 N -1.0479(6) 0.8549(4) -0.23000(19)
O10 O -1.0979(5) 0.8185(3) -0.21745(14)
O11 O -1.0087(6) 0.9081(4) -0.21799(17)
O12 O -1.0344(6) 0.8432(4) -0.25371(16)
C1 C -1.1566(7) 0.9674(4) -0.1594(2)
H1 H -1.1452 0.9440 -0.1426
C2 C -1.1536(7) 1.0373(4) -0.1588(2)
H2 H -1.1324 1.0594 -0.1422
C3 C -1.1812(6) 1.0762(4) -0.18221(18)
C4 C -1.1993(7) 1.0376(4) -0.2056(2)
H3 H -1.2149 1.0604 -0.2224
C5 C -1.1962(6) 0.9682(4) -0.20603(19)
H4 H -1.2087 0.9445 -0.2227
N5 N -1.1737(5) 0.9328(3) -0.18109(16)
C6 C -1.1146(6) 1.1885(4) -0.16664(19)
H5 H -1.0638 1.1672 -0.1548
C7 C -1.1171(6) 1.2552(4) -0.16714(17)
H6 H -1.0686 1.2796 -0.1557
C8 C -1.1909(7) 1.2917(4) -0.18440(18)
C9 C -1.2602(7) 1.2519(4) -0.19981(19)
H7 H -1.3117 1.2735 -0.2113
C10 C -1.2580(7) 1.1830(4) -0.19932(19)
H8 H -1.3080 1.1590 -0.2104
C11 C -1.1852(6) 1.1464(4) -0.18317(17)
C12 C -1.1902(6) 1.3660(4) -0.18580(18)
C13 C -1.2656(7) 1.4004(4) -0.2021(2)
H9 H -1.3169 1.3758 -0.2125
C14 C -1.2655(7) 1.4690(5) -0.2032(2)
H10 H -1.3165 1.4917 -0.2144
C15 C -1.1943(8) 1.5048(5) -0.1886(3)
C16 C -1.1195(8) 1.4740(5) -0.1715(3)
H11 H -1.0700 1.5003 -0.1613
C17 C -1.1177(8) 1.4047(5) -0.1697(3)
H12 H -1.0680 1.3830 -0.1576
C18 C -1.1054(7) 1.6858(4) -0.1870(2)
H13 H -1.0436 1.7088 -0.1859
C19 C -1.1013(6) 1.6172(4) -0.18804(18)
H14 H -1.0400 1.5943 -0.1884
C20 C -1.1886(6) 1.5829(4) -0.18856(17)
C21 C -1.2786(6) 1.6199(5) -0.1898(2)
H15 H -1.3411 1.5978 -0.1914
C22 C -1.2719(7) 1.6891(4) -0.1887(2)
H16 H -1.3316 1.7141 -0.1887
N6 N -1.1852(4) 1.7237(3) -0.18741(11)
C23 C -1.0541(7) 0.7754(4) -0.13430(19)
H17 H -1.1136 0.7525 -0.1316
C24 C -0.9702(6) 0.7620(5) -0.11634(19)
H18 H -0.9727 0.7298 -0.1023
C25 C -0.8819(7) 0.7964(5) -0.11900(19)
C26 C -0.8845(7) 0.8419(5) -0.1405(2)
H19 H -0.8264 0.8666 -0.1432
C27 C -0.9713(7) 0.8516(5) -0.1582(2)
H20 H -0.9698 0.8823 -0.1728
N7 N -1.0572(5) 0.8193(3) -0.15551(15)
C28 C -0.6993(7) 0.7393(6) -0.0598(2)
H21 H -0.7018 0.7196 -0.0425
C29 C -0.7873(7) 0.7531(5) -0.0758(2)
H22 H -0.8484 0.7430 -0.0692
C30 C -0.6095(7) 0.7528(6) -0.0680(2)
C31 C -0.6117(8) 0.7818(8) -0.0943(2)
H23 H -0.5503 0.7918 -0.1008
C32 C -0.6957(8) 0.7957(7) -0.1104(2)
H24 H -0.6929 0.8150 -0.1278
C33 C -0.7884(7) 0.7815(5) -0.1013(2)
C34 C -0.5018(8) 0.6892(6) -0.0331(3)
H25 H -0.5556 0.6593 -0.0319
C35 C -0.4137(8) 0.6785(6) -0.0163(2)
H26 H -0.4094 0.6421 -0.0038
C36 C -0.3328(7) 0.7195(6) -0.0175(2)
C37 C -0.3438(8) 0.7690(8) -0.0361(3)
H27 H -0.2878 0.7960 -0.0386
C38 C -0.4310(8) 0.7823(9) -0.0517(3)
H28 H -0.4358 0.8207 -0.0632
C39 C -0.5142(8) 0.7404(7) -0.0512(2)
C40 C -0.1282(7) 0.6424(5) 0.0316(2)
H29 H -0.1149 0.6011 0.0410
C41 C -0.2137(7) 0.6485(6) 0.0144(2)
H30 H -0.2569 0.6108 0.0117
C42 C -0.2398(7) 0.7079(5) 0.0007(2)
C43 C -0.1703(7) 0.7602(6) 0.0049(2)
H31 H -0.1823 0.8020 -0.0041
C44 C -0.0837(7) 0.7503(5) 0.0225(2)
H32 H -0.0380 0.7865 0.0251
N8 N -0.0608(5) 0.6935(4) 0.03577(16)
C45 C 1.1817(7) 0.6991(5) 0.26464(19)
H33 H 1.2366 0.7252 0.2606
C46 C 1.0975(7) 0.6981(5) 0.24589(18)
H34 H 1.0942 0.7247 0.2299
C47 C 1.0181(6) 0.6576(5) 0.25074(17)
C48 C 1.0265(7) 0.6214(5) 0.27473(18)
H35 H 0.9739 0.5932 0.2789
C49 C 1.1129(7) 0.6271(4) 0.2926(2)
H36 H 1.1174 0.6021 0.3090
N9 N 1.1902(5) 0.6654(4) 0.28817(14)
C50 C 0.9232(7) 0.6768(6) 0.20464(19)
H37 H 0.9826 0.6930 0.1985
C51 C 0.8389(7) 0.6752(6) 0.18699(18)
H38 H 0.8412 0.6881 0.1686
C52 C 0.7496(7) 0.6550(5) 0.19531(19)
C53 C 0.7502(7) 0.6331(5) 0.22167(19)
H39 H 0.6904 0.6175 0.2277
C54 C 0.8366(7) 0.6335(5) 0.2395(2)
H40 H 0.8345 0.6184 0.2575
C55 C 0.9257(6) 0.6550(5) 0.23186(18)
C56 C 0.5653(6) 0.6630(5) 0.18539(19)
H41 H 0.5622 0.6659 0.2044
C57 C 0.4782(7) 0.6658(6) 0.16769(18)
H42 H 0.4163 0.6700 0.1747
C58 C 0.4807(7) 0.6627(5) 0.14013(18)
C59 C 0.5717(6) 0.6560(5) 0.13076(19)
H43 H 0.5747 0.6540 0.1118
C60 C 0.6575(7) 0.6521(5) 0.14790(18)
H44 H 0.7189 0.6469 0.1407
C61 C 0.6562(6) 0.6559(5) 0.17596(17)
C62 C 0.2224(7) 0.7128(5) 0.11030(19)
H45 H 0.1704 0.7406 0.1152
C63 C 0.3102(7) 0.7109(5) 0.12727(18)
H46 H 0.3188 0.7390 0.1429
C64 C 0.3869(6) 0.6680(5) 0.12173(17)
C65 C 0.3692(7) 0.6308(5) 0.0979(2)
H47 H 0.4188 0.6007 0.0932
C66 C 0.2838(7) 0.6363(5) 0.0813(2)
H48 H 0.2757 0.6113 0.0648
N10 N 0.2066(5) 0.6777(4) 0.08745(14)
C67 C 0.0842(7) 0.5430(5) 0.08446(18)
H49 H 0.0820 0.5668 0.1010
C68 C 0.0995(7) 0.4749(4) 0.08562(18)
H50 H 0.1138 0.4533 0.1027
C69 C 0.0942(7) 0.4374(5) 0.06186(18)
C70 C 0.0820(7) 0.4724(5) 0.03810(19)
H51 H 0.0800 0.4491 0.0213
C71 C 0.0725(7) 0.5424(4) 0.03821(19)
H52 H 0.0659 0.5658 0.0214
N11 N 0.0723(6) 0.5775(3) 0.06125(17)
C72 C 0.0389(7) 0.3218(5) 0.0464(2)
H53 H -0.0092 0.3415 0.0333
C73 C 0.0415(7) 0.2543(5) 0.04784(19)
H54 H -0.0030 0.2280 0.0359
C74 C 0.1131(7) 0.2219(4) 0.0679(2)
C75 C 0.1788(8) 0.2622(5) 0.0828(2)
H55 H 0.2287 0.2418 0.0952
C76 C 0.1770(7) 0.3313(5) 0.0810(2)
H56 H 0.2254 0.3574 0.0918
C77 C 0.1004(8) 0.3646(5) 0.06235(17)
C78 C 0.0256(8) 0.1116(5) 0.0660(2)
H57 H -0.0353 0.1352 0.0621
C79 C 0.0197(8) 0.0435(5) 0.0673(2)
H58 H -0.0429 0.0218 0.0639
C80 C 0.1073(7) 0.0047(5) 0.07380(19)
C81 C 0.1939(8) 0.0411(5) 0.0784(2)
H59 H 0.2544 0.0172 0.0825
C82 C 0.1977(8) 0.1092(5) 0.0774(2)
H60 H 0.2595 0.1313 0.0819
C83 C 0.1084(8) 0.1491(5) 0.0696(2)
C84 C 0.0145(8) -0.1738(5) 0.0777(2)
H61 H -0.0387 -0.1970 0.0844
C85 C 0.0198(8) -0.1034(5) 0.0811(2)
H62 H -0.0317 -0.0800 0.0885
C86 C 0.1011(7) -0.0685(4) 0.07357(19)
C87 C 0.1753(7) -0.1080(5) 0.06426(19)
H63 H 0.2339 -0.0872 0.0595
C88 C 0.1646(7) -0.1758(5) 0.0619(2)
H64 H 0.2192 -0.2015 0.0573
N12 N 0.0783(5) -0.2091(4) 0.06586(14)
N12_2 N 0.0783(5) 0.7909(4) 0.06586(14)
N6_2 N -1.1852(4) 0.7237(3) -0.18741(11)
N9A N -1.3098(5) 0.8346(4) -0.21183(14)
Ni2_2 Ni -1.18204(7) 1.82808(5) -0.18400(2)
Ni2A Ni 1.31796(7) 0.67192(5) 0.31600(2)
Ni1_2 Ni 0.07159(8) -0.31530(5) 0.06238(2)
C89 C 0.6168(8) 0.1884(6) 0.1766(2)
H65 H 0.5667 0.2197 0.1700
C90 C 0.6059(6) 0.1206(7) 0.1699(2)
H66 H 0.5483 0.1056 0.1588
C91 C 0.6791(8) 0.0749(5) 0.1796(2)
H67 H 0.6716 0.0286 0.1751
C92 C 0.7633(7) 0.0969(6) 0.1959(2)
H68 H 0.8134 0.0656 0.2025
C93 C 0.7742(7) 0.1646(6) 0.2026(2)
H69 H 0.8318 0.1797 0.2137
C94 C 0.7010(10) 0.2104(4) 0.1929(3)
H70 H 0.7085 0.2567 0.1974
C95 C 0.8539(7) 0.3977(4) 0.13256(15)
H71 H 0.8612 0.3722 0.1167
C96 C 0.8614(7) 0.4675(4) 0.13196(15)
H72 H 0.8738 0.4896 0.1157
C97 C 0.8507(6) 0.5048(3) 0.15510(19)
H73 H 0.8559 0.5525 0.1547
C98 C 0.8325(6) 0.4725(4) 0.17884(15)
H74 H 0.8253 0.4980 0.1947
C99 C 0.8250(6) 0.4028(4) 0.17944(14)
H75 H 0.8126 0.3807 0.1957
C100 C 0.8357(6) 0.3654(3) 0.15630(18)
H76 H 0.8306 0.3177 0.1567
C101 C 0.6966(10) 0.9026(11) 0.2408(2)
H77 H 0.7588 0.9215 0.2380
C102 C 0.6829(11) 0.8333(10) 0.2395(2)
H78 H 0.7358 0.8048 0.2358
C103 C 0.5917(16) 0.8058(5) 0.2437(2)
H79 H 0.5824 0.7584 0.2428
C104 C 0.5143(9) 0.8475(11) 0.2491(2)
H80 H 0.4520 0.8287 0.2520
C105 C 0.5280(13) 0.9168(10) 0.2504(2)
H81 H 0.4751 0.9453 0.2542
C106 C 0.6191(18) 0.9444(5) 0.2463(2)
H82 H 0.6285 0.9917 0.2472
C107 C 0.5102(7) 0.4389(5) 0.25564(18)
H83 H 0.4919 0.4577 0.2719
C108 C 0.5381(7) 0.4809(3) 0.2355(2)
H84 H 0.5390 0.5282 0.2380
C109 C 0.5649(7) 0.4534(4) 0.21162(18)
H85 H 0.5840 0.4821 0.1978
C110 C 0.5637(7) 0.3841(4) 0.20796(17)
H86 H 0.5820 0.3653 0.1917
C111 C 0.5357(7) 0.3422(3) 0.2281(2)
H87 H 0.5349 0.2948 0.2256
C112 C 0.5089(7) 0.3696(4) 0.25198(19)
H88 H 0.4898 0.3409 0.2658
C113 C -0.1963(14) 1.0846(6) 0.0171(4)
H89 H -0.1917 1.1315 0.0136
C114 C -0.2576(12) 1.0615(7) 0.0356(4)
H90 H -0.2949 1.0926 0.0448
C115 C -0.2643(11) 0.9930(8) 0.0407(3)
H91 H -0.3061 0.9772 0.0533
C116 C -0.2097(12) 0.9475(5) 0.0271(3)
H92 H -0.2143 0.9007 0.0306
C117 C -0.1484(12) 0.9706(9) 0.0086(3)
H93 H -0.1111 0.9396 -0.0006
C118 C -0.1417(13) 1.0392(10) 0.0036(3)
H94 H -0.0998 1.0550 -0.0091
C119 C -0.2130(12) 0.8416(6) 0.1328(5)
H95 H -0.2397 0.7986 0.1278
C120 C -0.2218(12) 0.8940(11) 0.1141(3)
H96 H -0.2545 0.8868 0.0964
C121 C -0.1828(12) 0.9570(8) 0.1215(4)
H97 H -0.1889 0.9928 0.1087
C122 C -0.1350(10) 0.9676(6) 0.1474(4)
H98 H -0.1083 1.0106 0.1524
C123 C -0.1262(10) 0.9152(11) 0.1661(3)
H99 H -0.0935 0.9224 0.1839
C124 C -0.1652(13) 0.8522(8) 0.1588(4)
H100 H -0.1592 0.8164 0.1716
C125 C 0.4225(10) 0.9328(6) 0.1614(3)
H101 H 0.3936 0.9657 0.1719
C126 C 0.5044(10) 0.8962(8) 0.1727(2)
H102 H 0.5315 0.9042 0.1910
C127 C 0.5467(7) 0.8480(7) 0.1574(4)
H103 H 0.6027 0.8231 0.1651
C128 C 0.5071(11) 0.8364(5) 0.1306(4)
H104 H 0.5359 0.8034 0.1202
C129 C 0.4251(11) 0.8729(7) 0.1193(2)
H105 H 0.3980 0.8649 0.1010
C130 C 0.3829(7) 0.9211(6) 0.1347(3)
H106 H 0.3269 0.9461 0.1269
C131 C 0.5402(10) 0.5416(12) 0.0384(4)
H107 H 0.5990 0.5634 0.0343
C132 C 0.4523(14) 0.5490(11) 0.0212(3)
H108 H 0.4510 0.5759 0.0054
C133 C 0.3664(10) 0.5172(9) 0.0273(3)
H109 H 0.3063 0.5223 0.0155
C134 C 0.3684(10) 0.4779(7) 0.0505(3)
H110 H 0.3097 0.4562 0.0546
C135 C 0.4564(12) 0.4705(6) 0.0677(2)
H111 H 0.4577 0.4437 0.0836
C136 C 0.5423(9) 0.5024(9) 0.0617(3)
H112 H 0.6023 0.4973 0.0734
C137 C 0.3773(7) 0.4006(9) 0.1338(2)
H113 H 0.3092 0.3888 0.1334
C138 C 0.4459(13) 0.3525(5) 0.1279(2)
H114 H 0.4248 0.3078 0.1235
C139 C 0.5455(11) 0.3697(6) 0.1286(2)
H115 H 0.5924 0.3368 0.1245
C140 C 0.5763(6) 0.4350(7) 0.1351(2)
H116 H 0.6444 0.4467 0.1355
C141 C 0.5077(10) 0.4831(4) 0.1409(2)
H117 H 0.5288 0.5277 0.1454
C142 C 0.4081(8) 0.4659(8) 0.1403(2)
H118 H 0.3612 0.4988 0.1443
C143 C 0.4621(18) 0.8235(12) 0.0279(6)
H119 H 0.4217 0.8547 0.0171
C144 C 0.560(2) 0.8398(9) 0.0373(7)
H120 H 0.5862 0.8822 0.0329
C145 C 0.6189(11) 0.7941(14) 0.0530(5)
H121 H 0.6857 0.8053 0.0594
C146 C 0.5804(19) 0.7322(13) 0.0595(3)
H122 H 0.6208 0.7009 0.0702
C147 C 0.483(2) 0.7159(12) 0.0501(5)
H123 H 0.4563 0.6735 0.0545
C148 C 0.4236(10) 0.7615(15) 0.0343(5)
H124 H 0.3568 0.7504 0.0279
O13 O 0.4680(13) 0.0534(8) 0.0954(4)
C149 C 0.552(3) 0.0214(17) 0.0997(10)
H125 H 0.6066 0.0536 0.1006
H126 H 0.5569 -0.0103 0.0848
H127 H 0.5545 -0.0033 0.1168
O14 O 0.4172(13) -0.0268(8) 0.0546(4)
C150 C 0.427(2) 0.0218(17) 0.0323(5)
H128 H 0.3615 0.0404 0.0258
H129 H 0.4539 -0.0014 0.0174
H130 H 0.4718 0.0583 0.0390
O15 O 0.8290(9) 0.4581(7) 0.0229(2)
C151 C 0.8165(12) 0.4546(8) 0.0510(3)
H131 H 0.8789 0.4667 0.0619
H132 H 0.7977 0.4087 0.0556
H133 H 0.7643 0.4859 0.0549
loop_
_geom_bond_atom_site_label_1
_geom_bond_atom_site_label_2
_geom_bond_site_symmetry_1
_geom_bond_site_symmetry_2
Ni1 O1 1_555 1_555
Ni2 O7 1_555 1_555
N1 O1 1_555 1_555
O2 N1 1_555 1_555
O3 N1 1_555 1_555
N2 O4 1_555 1_555
O4 Ni1 1_555 1_555
O5 N2 1_555 1_555
O6 N2 1_555 1_555
N3 O7 1_555 1_555
O8 N3 1_555 1_555
O9 N3 1_555 1_555
N4 O10 1_555 1_555
O10 Ni2 1_555 1_555
O11 N4 1_555 1_555
O12 N4 1_555 1_555
C1 H1 1_555 1_555
C2 C1 1_555 1_555
H2 C2 1_555 1_555
C3 C2 1_555 1_555
C4 C3 1_555 1_555
H3 C4 1_555 1_555
C5 C4 1_555 1_555
H4 C5 1_555 1_555
N5 Ni2 1_555 1_555
C6 H5 1_555 1_555
C7 C6 1_555 1_555
H6 C7 1_555 1_555
C8 C7 1_555 1_555
C9 C8 1_555 1_555
H7 C9 1_555 1_555
C10 C9 1_555 1_555
H8 C10 1_555 1_555
C11 C3 1_555 1_555
C12 C8 1_555 1_555
C13 C12 1_555 1_555
H9 C13 1_555 1_555
C14 C13 1_555 1_555
H10 C14 1_555 1_555
C15 C14 1_555 1_555
C16 C15 1_555 1_555
H11 C16 1_555 1_555
C17 C12 1_555 1_555
H12 C17 1_555 1_555
C18 H13 1_555 1_555
C19 C18 1_555 1_555
H14 C19 1_555 1_555
C20 C15 1_555 1_555
C21 C20 1_555 1_555
H15 C21 1_555 1_555
C22 C21 1_555 1_555
H16 C22 1_555 1_555
N6 C18 1_555 1_555
C23 H17 1_555 1_555
C24 C23 1_555 1_555
H18 C24 1_555 1_555
C25 C24 1_555 1_555
C26 C25 1_555 1_555
H19 C26 1_555 1_555
C27 C26 1_555 1_555
H20 C27 1_555 1_555
N7 Ni2 1_555 1_555
C28 H21 1_555 1_555
C29 C28 1_555 1_555
H22 C29 1_555 1_555
C30 C28 1_555 1_555
C31 C30 1_555 1_555
H23 C31 1_555 1_555
C32 C31 1_555 1_555
H24 C32 1_555 1_555
C33 C25 1_555 1_555
C34 H25 1_555 1_555
C35 C34 1_555 1_555
H26 C35 1_555 1_555
C36 C35 1_555 1_555
C37 C36 1_555 1_555
H27 C37 1_555 1_555
C38 C37 1_555 1_555
H28 C38 1_555 1_555
C39 C30 1_555 1_555
C40 H29 1_555 1_555
C41 C40 1_555 1_555
H30 C41 1_555 1_555
C42 C36 1_555 1_555
C43 C42 1_555 1_555
H31 C43 1_555 1_555
C44 C43 1_555 1_555
H32 C44 1_555 1_555
N8 Ni1 1_555 1_555
C45 H33 1_555 1_555
C46 C45 1_555 1_555
H34 C46 1_555 1_555
C47 C46 1_555 1_555
C48 C47 1_555 1_555
H35 C48 1_555 1_555
C49 C48 1_555 1_555
H36 C49 1_555 1_555
N9 C45 1_555 1_555
C50 H37 1_555 1_555
C51 C50 1_555 1_555
H38 C51 1_555 1_555
C52 C51 1_555 1_555
C53 C52 1_555 1_555
H39 C53 1_555 1_555
C54 C53 1_555 1_555
H40 C54 1_555 1_555
C55 C47 1_555 1_555
C56 H41 1_555 1_555
C57 C56 1_555 1_555
H42 C57 1_555 1_555
C58 C57 1_555 1_555
C59 C58 1_555 1_555
H43 C59 1_555 1_555
C60 C59 1_555 1_555
H44 C60 1_555 1_555
C61 C52 1_555 1_555
C62 H45 1_555 1_555
C63 C62 1_555 1_555
H46 C63 1_555 1_555
C64 C58 1_555 1_555
C65 C64 1_555 1_555
H47 C65 1_555 1_555
C66 C65 1_555 1_555
H48 C66 1_555 1_555
N10 Ni1 1_555 1_555
C67 H49 1_555 1_555
C68 C67 1_555 1_555
H50 C68 1_555 1_555
C69 C68 1_555 1_555
C70 C69 1_555 1_555
H51 C70 1_555 1_555
C71 C70 1_555 1_555
H52 C71 1_555 1_555
N11 Ni1 1_555 1_555
C72 H53 1_555 1_555
C73 C72 1_555 1_555
H54 C73 1_555 1_555
C74 C73 1_555 1_555
C75 C74 1_555 1_555
H55 C75 1_555 1_555
C76 C75 1_555 1_555
H56 C76 1_555 1_555
C77 C69 1_555 1_555
C78 H57 1_555 1_555
C79 C78 1_555 1_555
H58 C79 1_555 1_555
C80 C79 1_555 1_555
C81 C80 1_555 1_555
H59 C81 1_555 1_555
C82 C81 1_555 1_555
H60 C82 1_555 1_555
C83 C74 1_555 1_555
C84 H61 1_555 1_555
C85 C84 1_555 1_555
H62 C85 1_555 1_555
C86 C80 1_555 1_555
C87 C86 1_555 1_555
H63 C87 1_555 1_555
C88 C87 1_555 1_555
H64 C88 1_555 1_555
N12 C84 1_555 1_555
C89 H65 1_555 1_555
C90 C89 1_555 1_555
H66 C90 1_555 1_555
C91 C90 1_555 1_555
H67 C91 1_555 1_555
C92 C91 1_555 1_555
H68 C92 1_555 1_555
C93 C92 1_555 1_555
H69 C93 1_555 1_555
C94 C89 1_555 1_555
H70 C94 1_555 1_555
C95 H71 1_555 1_555
C96 C95 1_555 1_555
H72 C96 1_555 1_555
C97 C96 1_555 1_555
H73 C97 1_555 1_555
C98 C97 1_555 1_555
H74 C98 1_555 1_555
C99 C98 1_555 1_555
H75 C99 1_555 1_555
C100 C95 1_555 1_555
H76 C100 1_555 1_555
C101 H77 1_555 1_555
C102 C101 1_555 1_555
H78 C102 1_555 1_555
C103 C102 1_555 1_555
H79 C103 1_555 1_555
C104 C103 1_555 1_555
H80 C104 1_555 1_555
C105 C104 1_555 1_555
H81 C105 1_555 1_555
C106 C101 1_555 1_555
H82 C106 1_555 1_555
C107 H83 1_555 1_555
C108 C107 1_555 1_555
H84 C108 1_555 1_555
C109 C108 1_555 1_555
H85 C109 1_555 1_555
C110 C109 1_555 1_555
H86 C110 1_555 1_555
C111 C110 1_555 1_555
H87 C111 1_555 1_555
C112 C107 1_555 1_555
H88 C112 1_555 1_555
C113 H89 1_555 1_555
C114 C113 1_555 1_555
H90 C114 1_555 1_555
C115 C114 1_555 1_555
H91 C115 1_555 1_555
C116 C115 1_555 1_555
H92 C116 1_555 1_555
C117 C116 1_555 1_555
H93 C117 1_555 1_555
C118 C113 1_555 1_555
H94 C118 1_555 1_555
C119 H95 1_555 1_555
C120 C119 1_555 1_555
H96 C120 1_555 1_555
C121 C120 1_555 1_555
H97 C121 1_555 1_555
C122 C121 1_555 1_555
H98 C122 1_555 1_555
C123 C122 1_555 1_555
H99 C123 1_555 1_555
C124 C119 1_555 1_555
H100 C124 1_555 1_555
C125 H101 1_555 1_555
C126 C125 1_555 1_555
H102 C126 1_555 1_555
C127 C126 1_555 1_555
H103 C127 1_555 1_555
C128 C127 1_555 1_555
H104 C128 1_555 1_555
C129 C128 1_555 1_555
H105 C129 1_555 1_555
C130 C125 1_555 1_555
H106 C130 1_555 1_555
C131 H107 1_555 1_555
C132 C131 1_555 1_555
H108 C132 1_555 1_555
C133 C132 1_555 1_555
H109 C133 1_555 1_555
C134 C133 1_555 1_555
H110 C134 1_555 1_555
C135 C134 1_555 1_555
H111 C135 1_555 1_555
C136 C131 1_555 1_555
H112 C136 1_555 1_555
C137 H113 1_555 1_555
C138 C137 1_555 1_555
H114 C138 1_555 1_555
C139 C138 1_555 1_555
H115 C139 1_555 1_555
C140 C139 1_555 1_555
H116 C140 1_555 1_555
C141 C140 1_555 1_555
H117 C141 1_555 1_555
C142 C137 1_555 1_555
H118 C142 1_555 1_555
C143 H119 1_555 1_555
C144 C143 1_555 1_555
H120 C144 1_555 1_555
C145 C144 1_555 1_555
H121 C145 1_555 1_555
C146 C145 1_555 1_555
H122 C146 1_555 1_555
C147 C146 1_555 1_555
H123 C147 1_555 1_555
C148 C143 1_555 1_555
H124 C148 1_555 1_555
O13 C149 1_555 1_555
C149 H125 1_555 1_555
H126 C149 1_555 1_555
H127 C149 1_555 1_555
O14 C150 1_555 1_555
C150 H128 1_555 1_555
H129 C150 1_555 1_555
H130 C150 1_555 1_555
O15 C151 1_555 1_555
C151 H131 1_555 1_555
H132 C151 1_555 1_555
H133 C151 1_555 1_555
N12_2 Ni1 1_555 1_555
N6_2 Ni2 1_555 1_555
N9A Ni2 1_555 1_555
Ni2_2 N6 1_555 1_555
Ni2A N9 1_555 1_555
Ni1_2 N12 1_555 1_555
C1 N5 1_555 1_555
C5 N5 1_555 1_555
C6 C11 1_555 1_555
C10 C11 1_555 1_555
C16 C17 1_555 1_555
C19 C20 1_555 1_555
C22 N6 1_555 1_555
C23 N7 1_555 1_555
C27 N7 1_555 1_555
C29 C33 1_555 1_555
C32 C33 1_555 1_555
C34 C39 1_555 1_555
C38 C39 1_555 1_555
C40 N8 1_555 1_555
C41 C42 1_555 1_555
C44 N8 1_555 1_555
C49 N9 1_555 1_555
C50 C55 1_555 1_555
C54 C55 1_555 1_555
C56 C61 1_555 1_555
C60 C61 1_555 1_555
C62 N10 1_555 1_555
C63 C64 1_555 1_555
C66 N10 1_555 1_555
C67 N11 1_555 1_555
C71 N11 1_555 1_555
C72 C77 1_555 1_555
C76 C77 1_555 1_555
C78 C83 1_555 1_555
C82 C83 1_555 1_555
C85 C86 1_555 1_555
C88 N12 1_555 1_555
C93 C94 1_555 1_555
C99 C100 1_555 1_555
C105 C106 1_555 1_555
C111 C112 1_555 1_555
C117 C118 1_555 1_555
C123 C124 1_555 1_555
C129 C130 1_555 1_555
C135 C136 1_555 1_555
C141 C142 1_555 1_555
C147 C148 1_555 1_555

#END
