
#######################################################################
#
#                 Cambridge Crystallographic Data Centre
#                                CCDC 
#
#######################################################################
#
# If this CIF has been generated from an entry in the Cambridge 
# Structural Database, then it will include bibliographic, chemical, 
# crystal, experimental, refinement or atomic coordinate data resulting 
# from the CCDC's data processing and validation procedures.
#
#######################################################################

data_BAPWEU
_symmetry_cell_setting           orthorhombic
_symmetry_space_group_name_H-M   'P 21 21 21'
_symmetry_Int_Tables_number      19
_space_group_name_Hall           'P 2ac 2ab'
loop_
_symmetry_equiv_pos_site_id
_symmetry_equiv_pos_as_xyz
1 x,y,z
2 1/2-x,-y,1/2+z
3 1/2+x,1/2-y,-z
4 -x,1/2+y,1/2-z
_cell_length_a                   14.78(2)
_cell_length_b                   12.44(2)
_cell_length_c                   6.61(1)
_cell_angle_alpha                90
_cell_angle_beta                 90
_cell_angle_gamma                90
_cell_volume                     1215.34
loop_
_atom_site_label
_atom_site_type_symbol
_atom_site_fract_x
_atom_site_fract_y
_atom_site_fract_z
Hg1 Hg 0.32900 0.06380 0.24490
Cl1 Cl 0.47030 -0.02320 0.21640
Cl2 Cl 0.20400 -0.07090 0.34370
S1 S 0.28920 0.24670 0.16070
N1 N 0.12700 0.24590 0.36660
N2 N 0.24380 0.32740 0.50680
C1 C 0.21600 0.27430 0.34890
C2 C 0.07510 0.28570 0.55790
C3 C 0.16110 0.32470 0.66550
C4 C 0.07180 0.17890 0.20720
C5 C 0.01790 0.27790 0.09010
C6 C 0.33850 0.34340 0.56640
C7 C 0.33710 0.46050 0.67220
Cl2A Cl 0.29600 0.07090 -0.15630
Hg1A Hg 0.17100 -0.06380 0.74490
Hg1A_2 Hg 0.17100 -0.06380 -0.25510
Cl1A Cl 0.02970 0.02320 0.71640
Cl2A_2 Cl 0.29600 0.07090 0.84370
S1A S 0.21080 -0.24670 0.66070
C1A C 0.28400 -0.27430 0.84890
N1A N 0.37300 -0.24590 0.86660
N2A N 0.25620 -0.32740 1.00680
C2A C 0.42490 -0.28570 1.05790
C4A C 0.42820 -0.17890 0.70720
C3A C 0.33890 -0.32470 1.16550
C6A C 0.16150 -0.34340 1.06640
C5A C 0.48210 -0.27790 0.59010
C7A C 0.16290 -0.46050 1.17220
loop_
_geom_bond_atom_site_label_1
_geom_bond_atom_site_label_2
_geom_bond_site_symmetry_1
_geom_bond_site_symmetry_2
Hg1 Cl1 1_555 1_555
Cl2 Hg1 1_555 1_555
S1 Hg1 1_555 1_555
N1 C1 1_555 1_555
N2 C1 1_555 1_555
C1 S1 1_555 1_555
C2 N1 1_555 1_555
C3 N2 1_555 1_555
C4 N1 1_555 1_555
C5 C4 1_555 1_555
C6 N2 1_555 1_555
C7 C6 1_555 1_555
Cl2A Hg1 1_555 1_555
Hg1A Cl2 1_555 1_555
Hg1A_2 Cl2A 1_555 1_555
Cl1A Hg1A 1_555 1_555
Cl2A_2 Hg1A 1_555 1_555
S1A Hg1A 1_555 1_555
C1A S1A 1_555 1_555
N1A C1A 1_555 1_555
N2A C1A 1_555 1_555
C2A N1A 1_555 1_555
C4A N1A 1_555 1_555
C3A N2A 1_555 1_555
C6A N2A 1_555 1_555
C5A C4A 1_555 1_555
C7A C6A 1_555 1_555
C2 C3 1_555 1_555
C2A C3A 1_555 1_555

#END
