
#######################################################################
#
#                 Cambridge Crystallographic Data Centre
#                                CCDC 
#
#######################################################################
#
# If this CIF has been generated from an entry in the Cambridge 
# Structural Database, then it will include bibliographic, chemical, 
# crystal, experimental, refinement or atomic coordinate data resulting 
# from the CCDC's data processing and validation procedures.
#
#######################################################################

data_BAQCOL
_symmetry_cell_setting           monoclinic
_symmetry_space_group_name_H-M   'C 2/m'
_symmetry_Int_Tables_number      12
_space_group_name_Hall           '-C 2y'
loop_
_symmetry_equiv_pos_site_id
_symmetry_equiv_pos_as_xyz
1 x,y,z
2 x,-y,z
3 1/2+x,1/2+y,z
4 1/2+x,1/2-y,z
5 -x,-y,-z
6 -x,y,-z
7 1/2-x,1/2-y,-z
8 1/2-x,1/2+y,-z
_cell_length_a                   25.774(3)
_cell_length_b                   15.870(5)
_cell_length_c                   9.657(1)
_cell_angle_alpha                90
_cell_angle_beta                 98.00(1)
_cell_angle_gamma                90
_cell_volume                     3911.59
loop_
_atom_site_label
_atom_site_type_symbol
_atom_site_fract_x
_atom_site_fract_y
_atom_site_fract_z
O1 O 0.43049(6) 0.00000 0.07727(16)
O2 O 0.34777(6) 0.00000 -0.03147(17)
O3 O 0.41458(7) 0.00000 -0.15358(17)
O4 O 0.31470(6) 0.00000 0.41325(19)
O5 O 0.24985(6) 0.00000 0.23461(15)
O6 O 0.23156(6) 0.00000 0.45119(15)
O7 O 0.00855(6) 0.00000 0.23612(18)
O8 O 0.06775(6) 0.00000 0.42694(16)
O9 O 0.09376(6) 0.00000 0.21780(16)
N1 N 0.50000 0.12362(11) 0.00000
N2 N 0.50000 0.38445(14) 0.00000
N3 N 0.31154(5) 0.12607(9) 0.13776(14)
N4 N 0.31898(8) 0.38741(11) 0.1612(3)
N5 N 0.16023(5) 0.12618(9) 0.34224(14)
N6 N 0.14355(8) 0.38664(10) 0.36234(18)
N7 N 0.00000 0.12615(12) 0.50000
N8 N 0.00000 0.38806(15) 0.50000
C1 C 0.39759(8) 0.00000 -0.0371(2)
C2 C 0.26638(8) 0.00000 0.3677(2)
C3 C 0.05596(8) 0.00000 0.2928(2)
C4 C 0.50115(7) 0.16748(10) 0.11920(16)
C5 C 0.50142(6) 0.25359(10) 0.12449(16)
C6 C 0.50000 0.30002(13) 0.00000
C7 C 0.26982(6) 0.17301(11) 0.16001(17)
C8 C 0.27068(7) 0.25882(11) 0.17021(18)
C9 C 0.31667(7) 0.30331(11) 0.15594(17)
C10 C 0.36031(7) 0.25428(11) 0.13446(19)
C11 C 0.35603(7) 0.16858(11) 0.12589(19)
C12 C 0.18180(7) 0.17078(11) 0.45454(16)
C13 C 0.17795(7) 0.25666(11) 0.46501(17)
C14 C 0.15057(6) 0.30323(10) 0.35441(16)
C15 C 0.13039(7) 0.25692(11) 0.23496(16)
C16 C 0.13542(7) 0.17099(11) 0.23411(16)
C17 C 0.04439(6) 0.17042(11) 0.53529(18)
C18 C 0.04618(6) 0.25687(11) 0.53825(17)
C19 C 0.00000 0.30354(14) 0.50000
Cu1 Cu 0.50000 0.00000 0.00000
Cu2 Cu 0.30796(1) 0.00000 0.12501(3)
Cu3 Cu 0.16172(1) 0.00000 0.33873(2)
Cu4 Cu 0.00000 0.00000 0.50000
H1 H 0.502(1) 0.135(2) 0.203(3)
H2 H 0.503(1) 0.283(2) 0.210(3)
H3 H 0.239(1) 0.141(2) 0.169(3)
H4 H 0.240(1) 0.288(2) 0.182(3)
H5 H 0.393(1) 0.281(2) 0.128(3)
H6 H 0.384(1) 0.136(2) 0.106(3)
H7 H 0.199(1) 0.140(2) 0.528(3)
H8 H 0.194(1) 0.284(2) 0.544(3)
H9 H 0.112(1) 0.284(2) 0.154(3)
H10 H 0.118(1) 0.139(2) 0.158(3)
H11 H 0.075(1) 0.139(2) 0.562(3)
H12 H 0.079(1) 0.288(2) 0.564(4)
H13 H 0.503(1) 0.410(2) 0.073(3)
H14 H 0.294(1) 0.417(2) 0.179(3)
H15 H 0.347(1) 0.419(2) 0.148(3)
H16 H 0.159(1) 0.418(2) 0.433(4)
H17 H 0.125(1) 0.415(2) 0.290(4)
H18 H 0.029(1) 0.418(2) 0.525(3)
O8D O -0.06775(6) 0.00000 0.57306(16)
C3D C -0.05596(8) 0.00000 0.7072(2)
O7D O -0.00855(6) 0.00000 0.76388(18)
O9D O -0.09376(6) 0.00000 0.78220(16)
Cu3D Cu -0.16172(1) 0.00000 0.66127(2)
H18E H -0.029(1) 0.418(2) 0.475(3)
C18E C -0.04618(6) 0.25687(11) 0.46175(17)
C17E C -0.04439(6) 0.17042(11) 0.46471(18)
H11E H -0.075(1) 0.139(2) 0.438(3)
H12E H -0.079(1) 0.288(2) 0.436(4)
N7A N 0.00000 -0.12615(12) 0.50000
C17A C 0.04439(6) -0.17042(11) 0.53529(18)
C18A C 0.04618(6) -0.25687(11) 0.53825(17)
C19A C 0.00000 -0.30354(14) 0.50000
N8A N 0.00000 -0.38806(15) 0.50000
H18A H 0.029(1) -0.418(2) 0.525(3)
H18D H -0.029(1) -0.418(2) 0.475(3)
C18D C -0.04618(6) -0.25687(11) 0.46175(17)
C17D C -0.04439(6) -0.17042(11) 0.46471(18)
H11D H -0.075(1) -0.139(2) 0.438(3)
H12D H -0.079(1) -0.288(2) 0.436(4)
H12A H 0.079(1) -0.288(2) 0.564(4)
H11A H 0.075(1) -0.139(2) 0.562(3)
N5A N 0.16023(5) -0.12618(9) 0.34224(14)
C12A C 0.18180(7) -0.17078(11) 0.45454(16)
C13A C 0.17795(7) -0.25666(11) 0.46501(17)
C14A C 0.15057(6) -0.30323(10) 0.35441(16)
N6A N 0.14355(8) -0.38664(10) 0.36234(18)
H16A H 0.159(1) -0.418(2) 0.433(4)
H17A H 0.125(1) -0.415(2) 0.290(4)
C15A C 0.13039(7) -0.25692(11) 0.23496(16)
C16A C 0.13542(7) -0.17099(11) 0.23411(16)
H10A H 0.118(1) -0.139(2) 0.158(3)
H9A H 0.112(1) -0.284(2) 0.154(3)
H8A H 0.194(1) -0.284(2) 0.544(3)
H7A H 0.199(1) -0.140(2) 0.528(3)
H13E H 0.497(1) 0.410(2) -0.073(3)
C5E C 0.49858(6) 0.25359(10) -0.12449(16)
C4E C 0.49885(7) 0.16748(10) -0.11920(16)
H1E H 0.498(1) 0.135(2) -0.203(3)
H2E H 0.497(1) 0.283(2) -0.210(3)
O1D O 0.56951(6) 0.00000 -0.07727(16)
N1A N 0.50000 -0.12362(11) 0.00000
N2A N 0.50000 -0.38445(14) 0.00000
C4A C 0.50115(7) -0.16748(10) 0.11920(16)
C5A C 0.50142(6) -0.25359(10) 0.12449(16)
C6A C 0.50000 -0.30002(13) 0.00000
H1A H 0.502(1) -0.135(2) 0.203(3)
H2A H 0.503(1) -0.283(2) 0.210(3)
H13A H 0.503(1) -0.410(2) 0.073(3)
H13D H 0.497(1) -0.410(2) -0.073(3)
C5D C 0.49858(6) -0.25359(10) -0.12449(16)
C4D C 0.49885(7) -0.16748(10) -0.11920(16)
H1D H 0.498(1) -0.135(2) -0.203(3)
H2D H 0.497(1) -0.283(2) -0.210(3)
N3A N 0.31154(5) -0.12607(9) 0.13776(14)
N4A N 0.31898(8) -0.38741(11) 0.1612(3)
C7A C 0.26982(6) -0.17301(11) 0.16001(17)
C8A C 0.27068(7) -0.25882(11) 0.17021(18)
C9A C 0.31667(7) -0.30331(11) 0.15594(17)
C10A C 0.36031(7) -0.25428(11) 0.13446(19)
C11A C 0.35603(7) -0.16858(11) 0.12589(19)
H3A H 0.239(1) -0.141(2) 0.169(3)
H4A H 0.240(1) -0.288(2) 0.182(3)
H5A H 0.393(1) -0.281(2) 0.128(3)
H6A H 0.384(1) -0.136(2) 0.106(3)
H14A H 0.294(1) -0.417(2) 0.179(3)
H15A H 0.347(1) -0.419(2) 0.148(3)
O10 O 0.23993(8) 0.50000 0.2465(2)
H19 H 0.242(3) 0.50000 0.339(7)
H20 H 0.210(3) 0.50000 0.203(6)
O11 O 0.91723(8) 0.50000 0.3583(2)
H21 H 0.887(3) 0.50000 0.370(6)
H22 H 0.922(3) 0.50000 0.267(8)
O12 O 0.40339(9) 0.50000 0.0855(3)
H23 H 0.411(3) 0.50000 -0.009(7)
H24 H 0.440(3) 0.50000 0.130(7)
loop_
_geom_bond_atom_site_label_1
_geom_bond_atom_site_label_2
_geom_bond_site_symmetry_1
_geom_bond_site_symmetry_2
O1 C1 1_555 1_555
O2 C1 1_555 1_555
O3 C1 1_555 1_555
O4 C2 1_555 1_555
O5 C2 1_555 1_555
O6 C2 1_555 1_555
O7 C3 1_555 1_555
O8 C3 1_555 1_555
O9 C3 1_555 1_555
N1 C4 1_555 1_555
N2 C6 1_555 1_555
N3 C7 1_555 1_555
N4 C9 1_555 1_555
N5 C12 1_555 1_555
N6 C14 1_555 1_555
N7 C17 1_555 1_555
N8 C19 1_555 1_555
C4 C5 1_555 1_555
C5 C6 1_555 1_555
C6 C5E 1_555 1_555
C7 C8 1_555 1_555
C8 C9 1_555 1_555
C9 C10 1_555 1_555
C10 C11 1_555 1_555
C11 N3 1_555 1_555
C12 C13 1_555 1_555
C13 C14 1_555 1_555
C14 C15 1_555 1_555
C15 C16 1_555 1_555
C16 N5 1_555 1_555
C17 C18 1_555 1_555
C18 C19 1_555 1_555
C19 C18E 1_555 1_555
O10 H19 1_555 1_555
O11 H21 1_555 1_555
O12 H23 1_555 1_555
Cu1 O1 1_555 1_555
Cu2 O2 1_555 1_555
Cu3 O6 1_555 1_555
Cu4 O8 1_555 1_555
H1 C4 1_555 1_555
H2 C5 1_555 1_555
H3 C7 1_555 1_555
H4 C8 1_555 1_555
H5 C10 1_555 1_555
H6 C11 1_555 1_555
H7 C12 1_555 1_555
H8 C13 1_555 1_555
H9 C15 1_555 1_555
H10 C16 1_555 1_555
H11 C17 1_555 1_555
H12 C18 1_555 1_555
H13 N2 1_555 1_555
H14 N4 1_555 1_555
H15 N4 1_555 1_555
H16 N6 1_555 1_555
H17 N6 1_555 1_555
H18 N8 1_555 1_555
H20 O10 1_555 1_555
H22 O11 1_555 1_555
H24 O12 1_555 1_555
O8D Cu4 1_555 1_555
C3D O8D 1_555 1_555
O7D C3D 1_555 1_555
O9D C3D 1_555 1_555
Cu3D O9D 1_555 1_555
H18E N8 1_555 1_555
C18E C17E 1_555 1_555
C17E N7 1_555 1_555
H11E C17E 1_555 1_555
H12E C18E 1_555 1_555
N7A Cu4 1_555 1_555
C17A N7A 1_555 1_555
C18A C17A 1_555 1_555
C19A C18A 1_555 1_555
N8A C19A 1_555 1_555
H18A N8A 1_555 1_555
H18D N8A 1_555 1_555
C18D C19A 1_555 1_555
C17D N7A 1_555 1_555
H11D C17D 1_555 1_555
H12D C18D 1_555 1_555
H12A C18A 1_555 1_555
H11A C17A 1_555 1_555
N5A Cu3 1_555 1_555
C12A N5A 1_555 1_555
C13A C12A 1_555 1_555
C14A C13A 1_555 1_555
N6A C14A 1_555 1_555
H16A N6A 1_555 1_555
H17A N6A 1_555 1_555
C15A C14A 1_555 1_555
C16A N5A 1_555 1_555
H10A C16A 1_555 1_555
H9A C15A 1_555 1_555
H8A C13A 1_555 1_555
H7A C12A 1_555 1_555
H13E N2 1_555 1_555
C5E C4E 1_555 1_555
C4E N1 1_555 1_555
H1E C4E 1_555 1_555
H2E C5E 1_555 1_555
O1D Cu1 1_555 1_555
N1A Cu1 1_555 1_555
N2A C6A 1_555 1_555
C4A N1A 1_555 1_555
C5A C4A 1_555 1_555
C6A C5A 1_555 1_555
H1A C4A 1_555 1_555
H2A C5A 1_555 1_555
H13A N2A 1_555 1_555
H13D N2A 1_555 1_555
C5D C6A 1_555 1_555
C4D N1A 1_555 1_555
H1D C4D 1_555 1_555
H2D C5D 1_555 1_555
N3A Cu2 1_555 1_555
N4A C9A 1_555 1_555
C7A N3A 1_555 1_555
C8A C7A 1_555 1_555
C9A C8A 1_555 1_555
C10A C9A 1_555 1_555
C11A N3A 1_555 1_555
H3A C7A 1_555 1_555
H4A C8A 1_555 1_555
H5A C10A 1_555 1_555
H6A C11A 1_555 1_555
H14A N4A 1_555 1_555
H15A N4A 1_555 1_555
O5 Cu2 1_555 1_555
O9 Cu3 1_555 1_555
N1 Cu1 1_555 1_555
N3 Cu2 1_555 1_555
N5 Cu3 1_555 1_555
N7 Cu4 1_555 1_555
C18D C17D 1_555 1_555
C15A C16A 1_555 1_555
C5D C4D 1_555 1_555
C10A C11A 1_555 1_555

#END
