
#######################################################################
#
#                 Cambridge Crystallographic Data Centre
#                                CCDC 
#
#######################################################################
#
# If this CIF has been generated from an entry in the Cambridge 
# Structural Database, then it will include bibliographic, chemical, 
# crystal, experimental, refinement or atomic coordinate data resulting 
# from the CCDC's data processing and validation procedures.
#
#######################################################################

data_BAQCEB
_symmetry_cell_setting           monoclinic
_symmetry_space_group_name_H-M   'I 2/a'
_symmetry_Int_Tables_number      15
_space_group_name_Hall           '-I 2ya'
loop_
_symmetry_equiv_pos_site_id
_symmetry_equiv_pos_as_xyz
1 x,y,z
2 1/2-x,y,-z
3 1/2+x,1/2+y,1/2+z
4 -x,1/2+y,1/2-z
5 -x,-y,-z
6 1/2+x,-y,z
7 1/2-x,1/2-y,1/2-z
8 x,1/2-y,1/2+z
_cell_length_a                   14.516(3)
_cell_length_b                   11.525(3)
_cell_length_c                   15.822(2)
_cell_angle_alpha                90
_cell_angle_beta                 107.627(14)
_cell_angle_gamma                90
_cell_volume                     2522.69
loop_
_atom_site_label
_atom_site_type_symbol
_atom_site_fract_x
_atom_site_fract_y
_atom_site_fract_z
Se1 Se 0.5998(1) 0.6106(1) 0.6872(1)
Fe1 Fe 0.2500 0.6037(1) 0.5000
N1 N 0.2500 0.7949(6) 0.5000
N2 N 0.2500 1.4107(6) 0.5000
N3 N 0.4007(4) 0.6063(5) 0.5677(4)
O1 O 0.2216(6) 0.6030(5) 0.6226(4)
C1 C 0.2972(5) 0.8559(6) 0.5721(5)
C2 C 0.2990(6) 0.9746(6) 0.5743(5)
C3 C 0.2500 1.0361(8) 0.5000
C4 C 0.1837(6) 1.3501(6) 0.4390(5)
C5 C 0.1828(6) 1.2292(6) 0.4356(5)
C6 C 0.2500 1.1659(8) 0.5000
C7 C 0.4785(6) 0.6063(6) 0.6146(5)
H1 H 0.2607(64) 0.5927(75) 0.6632(62)
H2 H 0.1768(63) 0.5699(81) 0.6188(61)
H3 H 0.3279(51) 0.8144(66) 0.6232(49)
H4 H 0.3314(52) 1.0023(65) 0.6193(49)
H5 H 0.1423(56) 1.3914(67) 0.3974(53)
H6 H 0.1231(44) 1.1987(53) 0.3896(39)
C2A C 0.2010(6) 0.9746(6) 0.4257(5)
C1A C 0.2028(5) 0.8559(6) 0.4279(5)
H3A H 0.1721(51) 0.8144(66) 0.3768(49)
H4A H 0.1686(52) 1.0023(65) 0.3807(49)
C4A C 0.3163(6) 1.3501(6) 0.5610(5)
C5A C 0.3172(6) 1.2292(6) 0.5644(5)
H6A H 0.3769(44) 1.1987(53) 0.6104(39)
H5A H 0.3577(56) 1.3914(67) 0.6026(53)
N2_2 N 0.2500 0.4107(6) 0.5000
Se1A Se -0.0998(1) 0.6106(1) 0.3128(1)
N3A N 0.0993(4) 0.6063(5) 0.4323(4)
C7A C 0.0215(6) 0.6063(6) 0.3854(5)
Fe1_2 Fe 0.2500 1.6037(1) 0.5000
O1A O 0.2784(6) 0.6030(5) 0.3774(4)
H1A H 0.2393(64) 0.5927(75) 0.3368(62)
H2A H 0.3232(63) 0.5699(81) 0.3812(61)
N4 N 0.1440(6) 0.9382(7) 0.7195(4)
C8 C 0.1207(7) 1.0461(10) 0.6926(6)
C9 C 0.0634(7) 1.0736(8) 0.6078(5)
C10 C 0.0296(5) 0.9862(7) 0.5468(5)
C11 C 0.0527(6) 0.8751(8) 0.5746(5)
C12 C 0.1080(7) 0.8552(9) 0.6605(6)
H7 H 0.1439(7) 1.1062(10) 0.7326(6)
H8 H 0.0479(7) 1.1505(8) 0.5921(5)
H9 H 0.0312(6) 0.8134(8) 0.5357(5)
H10 H 0.1210(7) 0.7785(9) 0.6786(6)
C10D C -0.0296(5) 1.0138(7) 0.4532(5)
C9D C -0.0634(7) 0.9264(8) 0.3922(5)
C8D C -0.1207(7) 0.9539(10) 0.3074(6)
N4D N -0.1440(6) 1.0618(7) 0.2805(4)
C12D C -0.1080(7) 1.1448(9) 0.3395(6)
C11D C -0.0527(6) 1.1249(8) 0.4254(5)
H9D H -0.0312(6) 1.1866(8) 0.4643(5)
H10D H -0.1210(7) 1.2215(9) 0.3214(6)
H7D H -0.1439(7) 0.8938(10) 0.2674(6)
H8D H -0.0479(7) 0.8495(8) 0.4079(5)
loop_
_geom_bond_atom_site_label_1
_geom_bond_atom_site_label_2
_geom_bond_site_symmetry_1
_geom_bond_site_symmetry_2
Se1 C7 1_555 1_555
Fe1 N1 1_555 1_555
N1 C1 1_555 1_555
N2 C4 1_555 1_555
N3 Fe1 1_555 1_555
N4 C8 1_555 1_555
O1 Fe1 1_555 1_555
C1 C2 1_555 1_555
C2 C3 1_555 1_555
C3 C6 1_555 1_555
C4 C5 1_555 1_555
C5 C6 1_555 1_555
C6 C5A 1_555 1_555
C7 N3 1_555 1_555
C8 C9 1_555 1_555
C9 C10 1_555 1_555
C10 C11 1_555 1_555
C11 C12 1_555 1_555
C12 N4 1_555 1_555
H1 O1 1_555 1_555
H2 O1 1_555 1_555
H3 C1 1_555 1_555
H4 C2 1_555 1_555
H5 C4 1_555 1_555
H6 C5 1_555 1_555
H7 C8 1_555 1_555
H8 C9 1_555 1_555
H9 C11 1_555 1_555
H10 C12 1_555 1_555
C2A C3 1_555 1_555
C1A N1 1_555 1_555
H3A C1A 1_555 1_555
H4A C2A 1_555 1_555
C4A N2 1_555 1_555
C5A C4A 1_555 1_555
H6A C5A 1_555 1_555
H5A C4A 1_555 1_555
C10D C10 1_555 1_555
C9D C10D 1_555 1_555
C8D C9D 1_555 1_555
N4D C8D 1_555 1_555
C12D N4D 1_555 1_555
C11D C10D 1_555 1_555
H9D C11D 1_555 1_555
H10D C12D 1_555 1_555
H7D C8D 1_555 1_555
H8D C9D 1_555 1_555
N2_2 Fe1 1_555 1_555
Se1A C7A 1_555 1_555
N3A Fe1 1_555 1_555
C7A N3A 1_555 1_555
Fe1_2 N2 1_555 1_555
O1A Fe1 1_555 1_555
H1A O1A 1_555 1_555
H2A O1A 1_555 1_555
C2A C1A 1_555 1_555
C12D C11D 1_555 1_555

#END
