
#######################################################################
#
#                 Cambridge Crystallographic Data Centre
#                                CCDC 
#
#######################################################################
#
# If this CIF has been generated from an entry in the Cambridge 
# Structural Database, then it will include bibliographic, chemical, 
# crystal, experimental, refinement or atomic coordinate data resulting 
# from the CCDC's data processing and validation procedures.
#
#######################################################################

data_BAQMUC
_symmetry_cell_setting           cubic
_symmetry_space_group_name_H-M   'P n -3 n'
_symmetry_Int_Tables_number      222
_space_group_name_Hall           '-P 4a 2bc 3'
loop_
_symmetry_equiv_pos_site_id
_symmetry_equiv_pos_as_xyz
1 x,y,z
2 1/2-y,x,z
3 x,1/2-y,1/2-z
4 z,x,y
5 1/2-x,1/2-y,z
6 y,x,1/2-z
7 1/2-x,z,y
8 y,1/2-x,z
9 1/2-x,y,1/2-z
10 1/2-z,1/2-x,y
11 1/2-y,1/2-x,1/2-z
12 x,1/2-z,y
13 z,1/2-x,1/2-y
14 1/2-x,1/2-z,1/2-y
15 1/2-z,x,1/2-y
16 x,z,1/2-y
17 y,z,x
18 z,1/2-y,x
19 1/2-z,y,x
20 z,y,1/2-x
21 y,1/2-z,1/2-x
22 1/2-z,1/2-y,1/2-x
23 1/2-y,z,1/2-x
24 1/2-y,1/2-z,x
25 -x,-y,-z
26 1/2+y,-x,-z
27 -x,1/2+y,1/2+z
28 -z,-x,-y
29 1/2+x,1/2+y,-z
30 -y,-x,1/2+z
31 1/2+x,-z,-y
32 -y,1/2+x,-z
33 1/2+x,-y,1/2+z
34 1/2+z,1/2+x,-y
35 1/2+y,1/2+x,1/2+z
36 -x,1/2+z,-y
37 -z,1/2+x,1/2+y
38 1/2+x,1/2+z,1/2+y
39 1/2+z,-x,1/2+y
40 -x,-z,1/2+y
41 -y,-z,-x
42 -z,1/2+y,-x
43 1/2+z,-y,-x
44 -z,-y,1/2+x
45 -y,1/2+z,1/2+x
46 1/2+z,1/2+y,1/2+x
47 1/2+y,-z,1/2+x
48 1/2+y,1/2+z,-x
_cell_length_a                   16.256(3)
_cell_length_b                   16.256(3)
_cell_length_c                   16.256(3)
_cell_angle_alpha                90
_cell_angle_beta                 90
_cell_angle_gamma                90
_cell_volume                     4295.77
loop_
_atom_site_label
_atom_site_type_symbol
_atom_site_fract_x
_atom_site_fract_y
_atom_site_fract_z
Zn1 Zn 0.498139(18) 0.498139(18) 0.2500
O1 O 0.46149(15) 0.53699(14) 0.36320(13)
O2 O 0.38025(12) 0.48714(15) 0.19766(13)
O3 O 0.50391(15) 0.61897(13) 0.19982(13)
C1 C 0.30923(19) 0.48473(18) 0.22709(18)
C2 C 0.50090(19) 0.6906(2) 0.22808(19)
H1 H 0.466(4) 0.606(3) 0.380(3)
H2 H 0.417(2) 0.528(2) 0.373(2)
C1R C 0.27291(18) 0.48473(18) 0.30923(19)
O2R O 0.30234(13) 0.48714(15) 0.38025(12)
C1H C 0.19077(19) 0.48473(18) 0.27291(18)
O2H O 0.11975(12) 0.48714(15) 0.30234(13)
C1S C 0.22709(18) 0.48473(18) 0.19077(19)
O2S O 0.19766(13) 0.48714(15) 0.11975(12)
C2IA C 0.49910(19) 0.72808(19) 0.3094(2)
O3IA O 0.49609(15) 0.69982(13) 0.38103(13)
C2B C 0.50090(19) 0.8094(2) 0.27192(19)
O3B O 0.50391(15) 0.88103(13) 0.30018(13)
C2MA C 0.49910(19) 0.77192(19) 0.1906(2)
O3MA O 0.49609(15) 0.80018(13) 0.11897(13)
O1E O 0.53699(14) 0.46149(15) 0.13680(13)
H1E H 0.606(3) 0.466(4) 0.120(3)
H2E H 0.528(2) 0.417(2) 0.127(2)
Zn1R Zn 0.2500 0.498139(18) 0.498139(18)
O1R O 0.13680(13) 0.53699(14) 0.46149(15)
H1R H 0.120(3) 0.606(3) 0.466(4)
H2R H 0.127(2) 0.528(2) 0.417(2)
O1C O 0.36320(13) 0.46149(15) 0.53699(14)
H1C H 0.380(3) 0.466(4) 0.606(3)
H2C H 0.373(2) 0.417(2) 0.528(2)
O2E O 0.48714(15) 0.38025(12) 0.30234(13)
O3E O 0.61897(13) 0.50391(15) 0.30018(13)
Zn1A Zn 0.001861(18) 0.498139(18) 0.2500
Zn1N Zn 0.2500 0.498139(18) 0.001861(18)
Zn1IA Zn 0.501861(18) 0.7500 0.501861(18)
Zn1B Zn 0.498139(18) 1.001861(18) 0.2500
Zn1MA Zn 0.501861(18) 0.7500 -0.001861(18)
O2C O 0.19766(13) 0.38025(12) 0.48714(15)
O3C O 0.19982(13) 0.50391(15) 0.61897(13)
O3R O 0.30018(13) 0.61897(13) 0.50391(15)
loop_
_geom_bond_atom_site_label_1
_geom_bond_atom_site_label_2
_geom_bond_site_symmetry_1
_geom_bond_site_symmetry_2
Zn1 O1 1_555 1_555
O1 H1 1_555 1_555
O2 Zn1 1_555 1_555
O3 Zn1 1_555 1_555
C1 O2 1_555 1_555
C2 O3 1_555 1_555
H2 O1 1_555 1_555
C1R C1 1_555 1_555
O2R C1R 1_555 1_555
C1H C1R 1_555 1_555
O2H C1H 1_555 1_555
C1S C1 1_555 1_555
O2S C1S 1_555 1_555
C2IA C2 1_555 1_555
O3IA C2IA 1_555 1_555
C2B C2IA 1_555 1_555
O3B C2B 1_555 1_555
C2MA C2 1_555 1_555
O3MA C2MA 1_555 1_555
O1E Zn1 1_555 1_555
H1E O1E 1_555 1_555
H2E O1E 1_555 1_555
Zn1R O2R 1_555 1_555
O1R Zn1R 1_555 1_555
H1R O1R 1_555 1_555
H2R O1R 1_555 1_555
O1C Zn1R 1_555 1_555
H1C O1C 1_555 1_555
H2C O1C 1_555 1_555
O2E Zn1 1_555 1_555
O3E Zn1 1_555 1_555
Zn1A O2H 1_555 1_555
Zn1N O2S 1_555 1_555
Zn1IA O3IA 1_555 1_555
Zn1B O3B 1_555 1_555
Zn1MA O3MA 1_555 1_555
O2C Zn1R 1_555 1_555
O3C Zn1R 1_555 1_555
O3R Zn1R 1_555 1_555
C1H C1S 1_555 1_555
C2B C2MA 1_555 1_555

#END
