
#######################################################################
#
#                 Cambridge Crystallographic Data Centre
#                                CCDC 
#
#######################################################################
#
# If this CIF has been generated from an entry in the Cambridge 
# Structural Database, then it will include bibliographic, chemical, 
# crystal, experimental, refinement or atomic coordinate data resulting 
# from the CCDC's data processing and validation procedures.
#
#######################################################################

data_BAQXOG
_symmetry_cell_setting           monoclinic
_symmetry_space_group_name_H-M   'P 21/c'
_symmetry_Int_Tables_number      14
_space_group_name_Hall           '-P 2ybc'
loop_
_symmetry_equiv_pos_site_id
_symmetry_equiv_pos_as_xyz
1 x,y,z
2 x,1/2-y,1/2+z
3 -x,-y,-z
4 -x,1/2+y,1/2-z
_cell_length_a                   3.3770(7)
_cell_length_b                   10.269(2)
_cell_length_c                   8.573(2)
_cell_angle_alpha                90
_cell_angle_beta                 99.80(3)
_cell_angle_gamma                90
_cell_volume                     292.96
loop_
_atom_site_label
_atom_site_type_symbol
_atom_site_fract_x
_atom_site_fract_y
_atom_site_fract_z
Mn1 Mn 0.28885(8) -0.38407(3) 0.08019(3)
O1 O -0.1494(4) -0.38585(13) 0.2674(2)
O2 O 0.3237(4) -0.32114(13) 0.6212(2)
O3 O 0.2727(4) -0.59614(13) 0.0699(2)
C1 C 0.1440(6) -0.4187(2) 0.5544(2)
C2 C -0.0686(6) -0.4486(2) 0.3953(2)
H1 H 0.3283(80) -0.6341(26) 0.1563(35)
O1_2 O 0.8506(4) -0.38585(13) 0.2674(2)
O3B O -0.2727(4) -0.40386(13) -0.0699(2)
O3B_2 O 0.7273(4) -0.40386(13) -0.0699(2)
Mn1_2 Mn -0.71115(8) -0.38407(3) 0.08019(3)
Mn1B Mn -0.28885(8) -0.61593(3) -0.08019(3)
Mn1B_2 Mn 0.71115(8) -0.61593(3) -0.08019(3)
C1B C -0.1440(6) -0.5813(2) 0.4456(2)
H1B H -0.3283(80) -0.3659(26) -0.1563(35)
H1B_2 H 0.6717(80) -0.3659(26) -0.1563(35)
O2A O 0.3237(4) -0.17886(13) 0.1212(2)
C2B C 0.0686(6) -0.5514(2) 0.6047(2)
O2B O -0.3237(4) -0.67886(13) 0.3788(2)
Mn1A Mn 0.28885(8) -0.11593(3) 0.58019(3)
O1B O 0.1494(4) -0.61415(13) 0.7326(2)
Mn1C Mn -0.28885(8) -0.88407(3) 0.41981(3)
Mn1B_3 Mn -0.28885(8) -0.61593(3) 0.91981(3)
Mn1B_4 Mn 0.71115(8) -0.61593(3) 0.91981(3)
O1C O -0.8506(4) -0.88585(13) 0.2326(2)
O1C_2 O 0.1494(4) -0.88585(13) 0.2326(2)
O3A O -0.7273(4) -0.90386(13) 0.5699(2)
O3A_2 O 0.2727(4) -0.90386(13) 0.5699(2)
O3C O -0.2727(4) -1.09614(13) 0.4301(2)
H1A H -0.6717(80) -0.8659(26) 0.6563(35)
H1A_2 H 0.3283(80) -0.8659(26) 0.6563(35)
H1C H -0.3283(80) -1.1341(26) 0.3437(35)
loop_
_geom_bond_atom_site_label_1
_geom_bond_atom_site_label_2
_geom_bond_site_symmetry_1
_geom_bond_site_symmetry_2
Mn1 O1 1_555 1_555
O1 C2 1_555 1_555
O2 C1 1_555 1_555
O3 Mn1 1_555 1_555
C1 C2 1_555 1_555
C2 C1B 1_555 1_555
H1 O3 1_555 1_555
O1_2 Mn1 1_555 1_555
O3B Mn1 1_555 1_555
O3B_2 Mn1 1_555 1_555
Mn1_2 O1 1_555 1_555
Mn1B O3 1_555 1_555
Mn1B_2 O3 1_555 1_555
C1B C2B 1_555 1_555
H1B O3B 1_555 1_555
H1B_2 O3B_2 1_555 1_555
O2A Mn1 1_555 1_555
C2B C1 1_555 1_555
O2B C1B 1_555 1_555
Mn1A O2 1_555 1_555
O1B C2B 1_555 1_555
Mn1C O2B 1_555 1_555
Mn1B_3 O1B 1_555 1_555
Mn1B_4 O1B 1_555 1_555
O1C Mn1C 1_555 1_555
O1C_2 Mn1C 1_555 1_555
O3A Mn1C 1_555 1_555
O3A_2 Mn1C 1_555 1_555
O3C Mn1C 1_555 1_555
H1A O3A 1_555 1_555
H1A_2 O3A_2 1_555 1_555
H1C O3C 1_555 1_555
O3B Mn1B 1_555 1_555
O3B Mn1_2 1_555 1_555
O3B_2 Mn1B_2 1_555 1_555

#END
