
#######################################################################
#
#                 Cambridge Crystallographic Data Centre
#                                CCDC 
#
#######################################################################
#
# If this CIF has been generated from an entry in the Cambridge 
# Structural Database, then it will include bibliographic, chemical, 
# crystal, experimental, refinement or atomic coordinate data resulting 
# from the CCDC's data processing and validation procedures.
#
#######################################################################

data_BARHUY
_symmetry_cell_setting           orthorhombic
_symmetry_space_group_name_H-M   'P b c n'
_symmetry_Int_Tables_number      60
_space_group_name_Hall           '-P 2n 2ab'
loop_
_symmetry_equiv_pos_site_id
_symmetry_equiv_pos_as_xyz
1 x,y,z
2 1/2+x,1/2+y,1/2-z
3 1/2-x,1/2+y,z
4 x,-y,1/2+z
5 -x,-y,-z
6 1/2-x,1/2-y,1/2+z
7 1/2+x,1/2-y,-z
8 -x,y,1/2-z
_cell_length_a                   11.0514(6)
_cell_length_b                   6.5630(4)
_cell_length_c                   19.1323(10)
_cell_angle_alpha                90
_cell_angle_beta                 90
_cell_angle_gamma                90
_cell_volume                     1387.67
loop_
_atom_site_label
_atom_site_type_symbol
_atom_site_fract_x
_atom_site_fract_y
_atom_site_fract_z
Na1 Na 0.65492(4) 0.50397(6) 0.51457(2)
N1 N 0.61371(7) 0.65486(11) 0.81272(4)
C1 C 0.56731(7) 0.72402(12) 0.75200(4)
C2 C 0.64161(7) 0.78247(12) 0.69562(4)
C3 C 0.59775(7) 0.87945(12) 0.62822(4)
O1 O 0.65579(6) 0.83326(11) 0.57335(3)
O2 O 0.51215(6) 1.00527(10) 0.63109(3)
C4 C 0.76668(7) 0.76514(13) 0.70400(4)
C5 C 0.81434(8) 0.70121(13) 0.76744(4)
C6 C 0.73434(8) 0.64847(13) 0.82024(4)
O3 O 0.85001(6) 0.64338(12) 0.47455(4)
O4 O 0.48106(6) 0.40675(11) 0.57938(4)
H1 H 0.8198(11) 0.801(2) 0.6683(6)
H2 H 0.9000(13) 0.688(2) 0.7760(7)
H3 H 0.7620(12) 0.601(2) 0.8644(6)
H4 H 0.8953(14) 0.614(2) 0.4424(9)
H5 H 0.8694(16) 0.555(3) 0.5049(10)
H6 H 0.4609(16) 0.477(3) 0.6136(9)
H7 H 0.4876(14) 0.279(3) 0.5922(8)
C1G C 0.43269(7) 0.72402(12) 0.74800(4)
N1G N 0.38629(7) 0.65486(11) 0.68728(4)
C6G C 0.26566(8) 0.64847(13) 0.67976(4)
C5G C 0.18566(8) 0.70121(13) 0.73256(4)
C4G C 0.23332(7) 0.76514(13) 0.79600(4)
C2G C 0.35839(7) 0.78247(12) 0.80438(4)
C3G C 0.40225(7) 0.87945(12) 0.87178(4)
O1G O 0.34421(6) 0.83326(11) 0.92665(3)
O2G O 0.48785(6) 1.00527(10) 0.86891(3)
H1G H 0.1802(11) 0.801(2) 0.8317(6)
H2G H 0.1000(13) 0.688(2) 0.7240(7)
H3G H 0.2380(12) 0.601(2) 0.6356(6)
O3B O 0.64999(6) 0.14338(12) 0.47455(4)
H4B H 0.6047(14) 0.114(2) 0.4424(9)
H5B H 0.6306(16) 0.055(3) 0.5049(10)
O4D O 0.51894(6) 0.59325(11) 0.42062(4)
H6D H 0.5391(16) 0.523(3) 0.3864(9)
H7D H 0.5124(14) 0.721(3) 0.4078(8)
Na1G Na 0.34508(4) 0.50397(6) 0.98543(2)
O1B O 0.84421(6) 0.33326(11) 0.57335(3)
Na1B Na 0.84508(4) 1.00397(6) 0.51457(2)
Na1D Na 0.34508(4) 0.49603(6) 0.48543(2)
Na1A Na 0.15492(4) 1.00397(6) 0.98543(2)
Na1B_2 Na 0.84508(4) 0.00397(6) 0.51457(2)
O1A O 0.15579(6) 0.33326(11) 0.92665(3)
O3A O 0.35001(6) 0.14338(12) 1.02545(4)
O3G O 0.14999(6) 0.64338(12) 1.02545(4)
O4C O 0.48106(6) 0.59325(11) 1.07938(4)
O4G O 0.51894(6) 0.40675(11) 0.92062(4)
H4A H 0.3953(14) 0.114(2) 1.0576(9)
H5A H 0.3694(16) 0.055(3) 0.9951(10)
H4G H 0.1047(14) 0.614(2) 1.0576(9)
H5G H 0.1306(16) 0.555(3) 0.9951(10)
H6C H 0.4609(16) 0.523(3) 1.1136(9)
H7C H 0.4876(14) 0.721(3) 1.0922(8)
H6G H 0.5391(16) 0.477(3) 0.8864(9)
H7G H 0.5124(14) 0.279(3) 0.9078(8)
loop_
_geom_bond_atom_site_label_1
_geom_bond_atom_site_label_2
_geom_bond_site_symmetry_1
_geom_bond_site_symmetry_2
Na1 O1 1_555 1_555
N1 C1 1_555 1_555
C1 C2 1_555 1_555
C2 C3 1_555 1_555
C3 O1 1_555 1_555
O1 Na1B 1_555 1_555
O2 C3 1_555 1_555
C4 C2 1_555 1_555
C5 C4 1_555 1_555
C6 N1 1_555 1_555
O3 Na1 1_555 1_555
O4 Na1 1_555 1_555
H1 C4 1_555 1_555
H2 C5 1_555 1_555
H3 C6 1_555 1_555
H4 O3 1_555 1_555
H5 O3 1_555 1_555
H6 O4 1_555 1_555
H7 O4 1_555 1_555
C1G C1 1_555 1_555
N1G C1G 1_555 1_555
C6G N1G 1_555 1_555
C5G C6G 1_555 1_555
C4G C5G 1_555 1_555
C2G C1G 1_555 1_555
C3G C2G 1_555 1_555
O1G C3G 1_555 1_555
O2G C3G 1_555 1_555
H1G C4G 1_555 1_555
H2G C5G 1_555 1_555
H3G C6G 1_555 1_555
O3B Na1 1_555 1_555
H4B O3B 1_555 1_555
H5B O3B 1_555 1_555
O4D Na1 1_555 1_555
H6D O4D 1_555 1_555
H7D O4D 1_555 1_555
Na1G O1G 1_555 1_555
O1B Na1 1_555 1_555
Na1B O3 1_555 1_555
Na1D O4 1_555 1_555
Na1A O1G 1_555 1_555
Na1B_2 O3B 1_555 1_555
O1A Na1G 1_555 1_555
O3A Na1G 1_555 1_555
O3G Na1G 1_555 1_555
O4C Na1G 1_555 1_555
O4G Na1G 1_555 1_555
H4A O3A 1_555 1_555
H5A O3A 1_555 1_555
H4G O3G 1_555 1_555
H5G O3G 1_555 1_555
H6C O4C 1_555 1_555
H7C O4C 1_555 1_555
H6G O4G 1_555 1_555
H7G O4G 1_555 1_555
C5 C6 1_555 1_555
C4G C2G 1_555 1_555
O4D Na1D 1_555 1_555
O1B Na1B_2 1_555 1_555
Na1A O3G 1_555 1_555

#END
