
#######################################################################
#
#                 Cambridge Crystallographic Data Centre
#                                CCDC 
#
#######################################################################
#
# If this CIF has been generated from an entry in the Cambridge 
# Structural Database, then it will include bibliographic, chemical, 
# crystal, experimental, refinement or atomic coordinate data resulting 
# from the CCDC's data processing and validation procedures.
#
#######################################################################

data_BARJOV
_symmetry_cell_setting           monoclinic
_symmetry_space_group_name_H-M   'P n'
_symmetry_Int_Tables_number      7
_space_group_name_Hall           'P -2yac'
loop_
_symmetry_equiv_pos_site_id
_symmetry_equiv_pos_as_xyz
1 x,y,z
2 1/2+x,-y,1/2+z
_cell_length_a                   5.9522(8)
_cell_length_b                   13.3808(17)
_cell_length_c                   7.9745(10)
_cell_angle_alpha                90
_cell_angle_beta                 110.252(2)
_cell_angle_gamma                90
_cell_volume                     595.866
loop_
_atom_site_label
_atom_site_type_symbol
_atom_site_fract_x
_atom_site_fract_y
_atom_site_fract_z
Co1 Co 0.26583(7) 0.47503(3) 0.57678(7)
O1 O 0.3759(6) 0.6234(2) 0.5618(4)
O2 O 0.5303(5) 0.5482(2) 0.8174(4)
O3 O 1.0575(5) 0.5814(2) 1.0210(4)
O4 O 1.2046(6) 0.7262(3) 0.9663(6)
C1 C 0.5093(7) 0.6267(3) 0.7230(5)
C2 C 0.6294(8) 0.7256(3) 0.7952(6)
H1 H 0.7075 0.7493 0.7143
H2 H 0.5044 0.7733 0.7900
C3 C 0.8142(7) 0.7284(3) 0.9851(5)
H3 H 0.8498 0.7984 1.0201
C4 C 1.0473(7) 0.6769(3) 0.9921(5)
N1 N 0.7223(6) 0.6799(2) 1.1150(5)
H4 H 0.5635 0.6937 1.0845
C5 C 0.8482(10) 0.7111(4) 1.3031(6)
H5 H 0.7878 0.6715 1.3801
H6 H 1.0172 0.6960 1.3346
C6 C 0.8225(12) 0.8207(4) 1.3411(7)
C7 C 0.625(2) 0.8543(6) 1.3721(16)
H7 H 0.5033 0.8099 1.3687
C8 C 0.996(3) 0.8880(7) 1.348(2)
H8 H 1.1359 0.8680 1.3312
C9 C 0.604(3) 0.9554(7) 1.409(3)
H9 H 0.4684 0.9770 1.4310
C10 C 0.959(3) 0.9877(9) 1.382(4)
H10 H 1.0770 1.0333 1.3812
C11 C 0.775(3) 1.0219(6) 1.414(2)
H11 H 0.7619 1.0891 1.4396
O5 O -0.0062(6) 0.5119(3) 0.6689(5)
Co1A Co 0.76583(7) 0.52497(3) 1.07678(7)
O2A O 0.0303(5) 0.4518(2) 0.3174(4)
O3A O 0.5575(5) 0.4186(2) 0.5210(4)
N1A N 0.2223(6) 0.3201(2) 0.6150(5)
H4A H 0.0635 0.3063 0.5845
loop_
_geom_bond_atom_site_label_1
_geom_bond_atom_site_label_2
_geom_bond_site_symmetry_1
_geom_bond_site_symmetry_2
Co1 O1 1_555 1_555
O1 C1 1_555 1_555
O2 Co1 1_555 1_555
O3 C4 1_555 1_555
O4 C4 1_555 1_555
C1 O2 1_555 1_555
C2 C1 1_555 1_555
H1 C2 1_555 1_555
H2 C2 1_555 1_555
C3 C2 1_555 1_555
H3 C3 1_555 1_555
C4 C3 1_555 1_555
N1 C3 1_555 1_555
H4 N1 1_555 1_555
C5 N1 1_555 1_555
H5 C5 1_555 1_555
H6 C5 1_555 1_555
C6 C5 1_555 1_555
C7 C6 1_555 1_555
H7 C7 1_555 1_555
C8 C6 1_555 1_555
H8 C8 1_555 1_555
C9 C7 1_555 1_555
H9 C9 1_555 1_555
C10 C8 1_555 1_555
H10 C10 1_555 1_555
C11 C9 1_555 1_555
H11 C11 1_555 1_555
O5 Co1 1_555 1_555
Co1A O2 1_555 1_555
O2A Co1 1_555 1_555
O3A Co1 1_555 1_555
N1A Co1 1_555 1_555
H4A N1A 1_555 1_555
O3 Co1A 1_555 1_555
N1 Co1A 1_555 1_555
C10 C11 1_555 1_555

#END
