
#######################################################################
#
#                 Cambridge Crystallographic Data Centre
#                                CCDC 
#
#######################################################################
#
# If this CIF has been generated from an entry in the Cambridge 
# Structural Database, then it will include bibliographic, chemical, 
# crystal, experimental, refinement or atomic coordinate data resulting 
# from the CCDC's data processing and validation procedures.
#
#######################################################################

data_BARPOZ
_symmetry_cell_setting           monoclinic
_symmetry_space_group_name_H-M   'P 21/c'
_symmetry_Int_Tables_number      14
_space_group_name_Hall           '-P 2ybc'
loop_
_symmetry_equiv_pos_site_id
_symmetry_equiv_pos_as_xyz
1 x,y,z
2 -x,1/2+y,1/2-z
3 -x,-y,-z
4 x,1/2-y,1/2+z
_cell_length_a                   18.199(6)
_cell_length_b                   11.991(14)
_cell_length_c                   17.923(8)
_cell_angle_alpha                90
_cell_angle_beta                 119.98(2)
_cell_angle_gamma                90
_cell_volume                     3387.91
loop_
_atom_site_label
_atom_site_type_symbol
_atom_site_fract_x
_atom_site_fract_y
_atom_site_fract_z
Cu1 Cu -0.31650 0.62370 0.25810
Cu2 Cu -0.17480 0.11850 0.33720
O1 O -0.41280 0.52540 0.18970
O2 O -0.29150 0.45390 0.21720
O3 O -0.23500 0.20590 0.17180
O4 O -0.27750 0.20110 0.26820
O5 O -0.08160 0.01020 0.37570
O6 O -0.19560 -0.04400 0.25920
O7 O -0.24920 -0.30360 0.16330
O8 O -0.21080 -0.29810 0.30120
N1 N -0.39260 0.75810 0.23480
N2 N -0.28300 0.56420 0.38640
N3 N -0.09140 0.24530 0.38710
N4 N -0.22060 0.06010 0.41840
C1 C -0.41770 0.35220 0.12230
C2 C -0.37880 0.24950 0.12590
C3 C -0.42440 0.16710 0.06430
C4 C -0.50880 0.18630 0.00390
C5 C -0.54800 0.28670 0.00050
C6 C -0.50240 0.36940 0.06000
C7 C -0.37020 0.44700 0.18100
C8 C -0.28970 0.21990 0.19190
C9 C -0.06890 -0.15030 0.30550
C10 C -0.10670 -0.25140 0.26390
C11 C -0.05840 -0.33040 0.24930
C12 C 0.02700 -0.31060 0.27840
C13 C 0.06540 -0.21060 0.32190
C14 C 0.01670 -0.13160 0.33470
C15 C -0.11970 -0.05750 0.31310
C16 C -0.19560 -0.28370 0.23870
C17 C -0.36340 0.86400 0.24320
C18 C -0.41440 0.95650 0.22710
C19 C -0.49860 0.94180 0.20090
C20 C -0.52900 0.83250 0.19590
C21 C -0.47440 0.74320 0.21150
C22 C -0.25770 0.46090 0.41370
C23 C -0.23310 0.42380 0.49670
C24 C -0.23670 0.50100 0.55340
C25 C -0.26180 0.60750 0.52670
C26 C -0.28600 0.63840 0.44190
C27 C -0.01660 0.22550 0.46090
C28 C 0.04660 0.30390 0.49640
C29 C 0.03590 0.40580 0.45600
C30 C -0.04210 0.42740 0.38090
C31 C -0.10400 0.34560 0.34850
C32 C -0.19150 -0.03360 0.46510
C33 C -0.21520 -0.06560 0.52530
C34 C -0.27040 0.00310 0.53670
C35 C -0.30160 0.09980 0.48840
C36 C -0.27540 0.12460 0.42880
H1 H -0.39700 0.09800 0.06200
H2 H -0.53800 0.13500 -0.04300
H3 H -0.60800 0.30300 -0.04300
H4 H -0.53400 0.45400 0.05800
H5 H -0.08500 -0.40400 0.22400
H6 H 0.05900 -0.36100 0.26700
H7 H 0.13800 -0.19900 0.35500
H8 H 0.04500 -0.05100 0.36700
H9 H -0.30200 0.87500 0.26000
H10 H -0.39100 1.03600 0.23200
H11 H -0.54000 1.00900 0.18700
H12 H -0.59400 0.81800 0.18000
H13 H -0.49700 0.66400 0.20400
H14 H -0.25100 0.41400 0.37800
H15 H -0.21200 0.33900 0.51700
H16 H -0.22400 0.48100 0.60800
H17 H -0.26300 0.66800 0.57100
H18 H -0.30400 0.71900 0.42300
H19 H -0.00700 0.14600 0.49200
H20 H 0.10300 0.29100 0.55600
H21 H 0.08600 0.46700 0.48100
H22 H -0.05300 0.50700 0.34900
H23 H -0.15900 0.36300 0.30100
H24 H -0.15100 -0.08700 0.45500
H25 H -0.18700 -0.13400 0.56300
H26 H -0.28900 -0.01900 0.58300
H27 H -0.35900 0.13700 0.48100
H28 H -0.30000 0.19900 0.39000
O8_2 O -0.21080 0.70190 0.30120
Cu1_2 Cu -0.31650 -0.37630 0.25810
loop_
_geom_bond_atom_site_label_1
_geom_bond_atom_site_label_2
_geom_bond_site_symmetry_1
_geom_bond_site_symmetry_2
Cu1 O1 1_555 1_555
Cu2 O4 1_555 1_555
O1 C7 1_555 1_555
O2 Cu1 1_555 1_555
O3 C8 1_555 1_555
O4 C8 1_555 1_555
O5 Cu2 1_555 1_555
O6 Cu2 1_555 1_555
O7 C16 1_555 1_555
O8 C16 1_555 1_555
N1 Cu1 1_555 1_555
N2 Cu1 1_555 1_555
N3 Cu2 1_555 1_555
N4 Cu2 1_555 1_555
C1 C2 1_555 1_555
C2 C3 1_555 1_555
C3 C4 1_555 1_555
C4 C5 1_555 1_555
C5 C6 1_555 1_555
C6 C1 1_555 1_555
C7 O2 1_555 1_555
C8 C2 1_555 1_555
C9 C10 1_555 1_555
C10 C11 1_555 1_555
C11 C12 1_555 1_555
C12 C13 1_555 1_555
C13 C14 1_555 1_555
C14 C9 1_555 1_555
C15 O5 1_555 1_555
C16 C10 1_555 1_555
C17 N1 1_555 1_555
C18 C17 1_555 1_555
C19 C18 1_555 1_555
C20 C19 1_555 1_555
C21 N1 1_555 1_555
C22 N2 1_555 1_555
C23 C22 1_555 1_555
C24 C23 1_555 1_555
C25 C24 1_555 1_555
C26 N2 1_555 1_555
C27 N3 1_555 1_555
C28 C27 1_555 1_555
C29 C28 1_555 1_555
C30 C29 1_555 1_555
C31 N3 1_555 1_555
C32 N4 1_555 1_555
C33 C32 1_555 1_555
C34 C33 1_555 1_555
C35 C34 1_555 1_555
C36 N4 1_555 1_555
H1 C3 1_555 1_555
H2 C4 1_555 1_555
H3 C5 1_555 1_555
H4 C6 1_555 1_555
H5 C11 1_555 1_555
H6 C12 1_555 1_555
H7 C13 1_555 1_555
H8 C14 1_555 1_555
H9 C17 1_555 1_555
H10 C18 1_555 1_555
H11 C19 1_555 1_555
H12 C20 1_555 1_555
H13 C21 1_555 1_555
H14 C22 1_555 1_555
H15 C23 1_555 1_555
H16 C24 1_555 1_555
H17 C25 1_555 1_555
H18 C26 1_555 1_555
H19 C27 1_555 1_555
H20 C28 1_555 1_555
H21 C29 1_555 1_555
H22 C30 1_555 1_555
H23 C31 1_555 1_555
H24 C32 1_555 1_555
H25 C33 1_555 1_555
H26 C34 1_555 1_555
H27 C35 1_555 1_555
H28 C36 1_555 1_555
O8_2 Cu1 1_555 1_555
Cu1_2 O8 1_555 1_555
O6 C15 1_555 1_555
C1 C7 1_555 1_555
C9 C15 1_555 1_555
C20 C21 1_555 1_555
C25 C26 1_555 1_555
C30 C31 1_555 1_555
C35 C36 1_555 1_555

#END
