
#######################################################################
#
#                 Cambridge Crystallographic Data Centre
#                                CCDC 
#
#######################################################################
#
# If this CIF has been generated from an entry in the Cambridge 
# Structural Database, then it will include bibliographic, chemical, 
# crystal, experimental, refinement or atomic coordinate data resulting 
# from the CCDC's data processing and validation procedures.
#
#######################################################################

data_BARVEX
_symmetry_cell_setting           monoclinic
_symmetry_space_group_name_H-M   'P 21/c'
_symmetry_Int_Tables_number      14
_space_group_name_Hall           '-P 2ybc'
loop_
_symmetry_equiv_pos_site_id
_symmetry_equiv_pos_as_xyz
1 x,y,z
2 -x,1/2+y,1/2-z
3 -x,-y,-z
4 x,1/2-y,1/2+z
_cell_length_a                   10.348(5)
_cell_length_b                   23.946(5)
_cell_length_c                   13.121(4)
_cell_angle_alpha                90
_cell_angle_beta                 116.64(3)
_cell_angle_gamma                90
_cell_volume                     2906.14
loop_
_atom_site_label
_atom_site_type_symbol
_atom_site_fract_x
_atom_site_fract_y
_atom_site_fract_z
Fe1 Fe -0.25470(3) -0.099002(14) -0.73832(3)
Mn1 Mn -0.74956(3) -0.089990(15) -0.73415(3)
O1 O -0.5426(2) -0.19332(8) -0.98716(16)
O2 O -0.45929(19) -0.09790(7) -1.07924(15)
O3 O -0.83426(16) -0.03216(6) -0.83957(13)
O4 O -0.76181(17) -0.13923(7) -0.85102(13)
N1 N -0.29497(19) -0.17421(8) -0.69680(16)
N2 N -0.37965(19) -0.12277(8) -0.88804(15)
N3 N -0.24974(18) -0.02983(7) -0.81652(15)
N4 N -0.5178(2) -0.05921(9) -0.70241(17)
N5 N -0.0437(2) -0.06994(9) -0.48863(17)
N6 N 0.0319(2) -0.12484(8) -0.75140(17)
N7 N -0.74441(19) -0.04196(8) -0.60701(15)
N8 N -0.64692(19) -0.14979(8) -0.61848(16)
C1 C -0.2424(2) -0.19837(10) -0.5937(2)
H1 H -0.1705 -0.1801 -0.5316
C2 C -0.2921(3) -0.24975(10) -0.5768(2)
H2 H -0.2528 -0.2657 -0.5045
C3 C -0.3999(3) -0.27702(10) -0.6677(2)
H3 H -0.4348 -0.3113 -0.6577
C4 C -0.4553(3) -0.25214(10) -0.7749(2)
H4 H -0.5288 -0.2694 -0.8376
C5 C -0.3998(2) -0.20140(9) -0.7870(2)
C6 C -0.4503(2) -0.17273(9) -0.90013(19)
C7 C -0.3967(2) -0.08779(9) -0.97788(19)
C8 C -0.3219(2) -0.03318(9) -0.93100(18)
C9 C -0.3263(2) 0.01058(9) -1.00181(19)
H5 H -0.3771 0.0072 -1.0806
C10 C -0.2531(2) 0.05943(10) -0.9522(2)
H6 H -0.2536 0.0895 -0.9972
C11 C -0.1794(2) 0.06266(10) -0.8349(2)
H7 H -0.1304 0.0952 -0.8003
C12 C -0.1784(2) 0.01740(9) -0.76851(19)
H8 H -0.1276 0.0198 -0.6895
C13 C -0.4159(2) -0.07102(9) -0.71191(18)
C14 C -0.1228(2) -0.07836(9) -0.58220(19)
C15 C -0.0767(2) -0.11960(9) -0.74741(18)
C16 C -0.8367(2) 0.02203(9) -0.82192(19)
C17 C -0.8843(2) 0.05844(10) -0.9172(2)
H9 H -0.9118 0.0438 -0.9896
C18 C -0.8902(3) 0.11550(10) -0.9034(2)
H10 H -0.9192 0.1389 -0.9664
C19 C -0.8530(3) 0.13847(10) -0.7958(2)
H11 H -0.8570 0.1769 -0.7871
C20 C -0.8102(2) 0.10364(10) -0.7026(2)
H12 H -0.7887 0.1188 -0.6316
C21 C -0.7985(2) 0.04557(9) -0.71290(19)
C22 C -0.7638(2) 0.01154(10) -0.61411(19)
H13 H -0.7543 0.0298 -0.5485
C23 C -0.7321(2) -0.07020(10) -0.50322(19)
H14 H -0.8072 -0.0984 -0.5248
H15 H -0.7486 -0.0431 -0.4554
C24 C -0.5858(3) -0.09791(12) -0.4341(2)
H16 H -0.5921 -0.1214 -0.3763
H17 H -0.5146 -0.0691 -0.3952
C25 C -0.5330(2) -0.13352(10) -0.50523(19)
H18 H -0.4591 -0.1128 -0.5155
H19 H -0.4884 -0.1671 -0.4627
C26 C -0.6717(2) -0.20208(9) -0.64243(19)
H20 H -0.6320 -0.2271 -0.5820
C27 C -0.7554(2) -0.22515(10) -0.75420(19)
C28 C -0.7832(3) -0.28332(10) -0.7635(2)
H21 H -0.7599 -0.3042 -0.6978
C29 C -0.8441(3) -0.30949(10) -0.8681(2)
H22 H -0.8656 -0.3474 -0.8735
C30 C -0.8731(3) -0.27832(10) -0.9659(2)
H23 H -0.9115 -0.2959 -1.0366
C31 C -0.8455(2) -0.22136(10) -0.9591(2)
H24 H -0.8647 -0.2015 -1.0253
C32 C -0.7890(2) -0.19337(9) -0.85420(19)
Mn1_2 Mn 0.25044(3) -0.089990(15) -0.73415(3)
N6_2 N -0.9681(2) -0.12484(8) -0.75140(17)
loop_
_geom_bond_atom_site_label_1
_geom_bond_atom_site_label_2
_geom_bond_site_symmetry_1
_geom_bond_site_symmetry_2
Fe1 N1 1_555 1_555
Mn1 O3 1_555 1_555
O1 C6 1_555 1_555
O2 C7 1_555 1_555
O3 C16 1_555 1_555
O4 Mn1 1_555 1_555
N1 C1 1_555 1_555
N2 Fe1 1_555 1_555
N3 Fe1 1_555 1_555
N4 Mn1 1_555 1_555
N5 C14 1_555 1_555
N6 C15 1_555 1_555
N7 Mn1 1_555 1_555
N8 Mn1 1_555 1_555
C1 H1 1_555 1_555
C2 C1 1_555 1_555
H2 C2 1_555 1_555
C3 C2 1_555 1_555
H3 C3 1_555 1_555
C4 C3 1_555 1_555
H4 C4 1_555 1_555
C5 N1 1_555 1_555
C6 N2 1_555 1_555
C7 N2 1_555 1_555
C8 N3 1_555 1_555
C9 C8 1_555 1_555
H5 C9 1_555 1_555
C10 C9 1_555 1_555
H6 C10 1_555 1_555
C11 C10 1_555 1_555
H7 C11 1_555 1_555
C12 N3 1_555 1_555
H8 C12 1_555 1_555
C13 Fe1 1_555 1_555
C14 Fe1 1_555 1_555
C15 Fe1 1_555 1_555
C16 C17 1_555 1_555
C17 H9 1_555 1_555
C18 C17 1_555 1_555
H10 C18 1_555 1_555
C19 C18 1_555 1_555
H11 C19 1_555 1_555
C20 C19 1_555 1_555
H12 C20 1_555 1_555
C21 C16 1_555 1_555
C22 N7 1_555 1_555
H13 C22 1_555 1_555
C23 N7 1_555 1_555
H14 C23 1_555 1_555
H15 C23 1_555 1_555
C24 C23 1_555 1_555
H16 C24 1_555 1_555
H17 C24 1_555 1_555
C25 N8 1_555 1_555
H18 C25 1_555 1_555
H19 C25 1_555 1_555
C26 N8 1_555 1_555
H20 C26 1_555 1_555
C27 C26 1_555 1_555
C28 C27 1_555 1_555
H21 C28 1_555 1_555
C29 C28 1_555 1_555
H22 C29 1_555 1_555
C30 C29 1_555 1_555
H23 C30 1_555 1_555
C31 C30 1_555 1_555
H24 C31 1_555 1_555
C32 O4 1_555 1_555
Mn1_2 N6 1_555 1_555
N6_2 Mn1 1_555 1_555
N4 C13 1_555 1_555
C4 C5 1_555 1_555
C5 C6 1_555 1_555
C7 C8 1_555 1_555
C11 C12 1_555 1_555
C20 C21 1_555 1_555
C21 C22 1_555 1_555
C24 C25 1_555 1_555
C27 C32 1_555 1_555
C31 C32 1_555 1_555

#END
