
#######################################################################
#
#                 Cambridge Crystallographic Data Centre
#                                CCDC 
#
#######################################################################
#
# If this CIF has been generated from an entry in the Cambridge 
# Structural Database, then it will include bibliographic, chemical, 
# crystal, experimental, refinement or atomic coordinate data resulting 
# from the CCDC's data processing and validation procedures.
#
#######################################################################

data_BARVIB
_symmetry_cell_setting           orthorhombic
_symmetry_space_group_name_H-M   'P 21 21 21'
_symmetry_Int_Tables_number      19
_space_group_name_Hall           'P 2ac 2ab'
loop_
_symmetry_equiv_pos_site_id
_symmetry_equiv_pos_as_xyz
1 x,y,z
2 1/2-x,-y,1/2+z
3 1/2+x,1/2-y,-z
4 -x,1/2+y,1/2-z
_cell_length_a                   10.467(5)
_cell_length_b                   12.780(5)
_cell_length_c                   24.077(5)
_cell_angle_alpha                90
_cell_angle_beta                 90
_cell_angle_gamma                90
_cell_volume                     3220.74
loop_
_atom_site_label
_atom_site_type_symbol
_atom_site_fract_x
_atom_site_fract_y
_atom_site_fract_z
Mn1 Mn 0.13417(10) -0.01102(9) -0.36191(5)
Fe1 Fe 0.63664(10) -0.03415(9) -0.34407(5)
O1 O 0.0888(5) -0.0342(4) -0.2867(2)
O2 O 0.1660(5) -0.1539(4) -0.3762(2)
O3 O 0.6557(7) -0.2008(5) -0.2036(3)
O4 O 0.7297(7) 0.0097(7) -0.1843(3)
N1 N 0.0987(6) 0.1427(5) -0.3563(3)
N2 N 0.2019(6) 0.0339(6) -0.4358(3)
N3 N 0.9207(6) -0.0424(6) -0.3779(3)
N4 N 0.3454(6) 0.0002(5) -0.3311(3)
N5 N 0.5894(7) 0.0243(6) -0.4672(3)
N6 N 0.6153(6) -0.1856(5) -0.3502(3)
N7 N 0.6666(6) -0.0654(6) -0.2682(3)
N8 N 0.6665(5) 0.1107(6) -0.3188(3)
C1 C 0.0805(6) 0.0353(6) -0.2466(3)
C2 C 0.0708(7) -0.0012(7) -0.1918(3)
H1 H 0.0716 -0.0727 -0.1847
C3 C 0.0600(7) 0.0695(7) -0.1482(3)
H2 H 0.0544 0.0446 -0.1120
C4 C 0.0576(7) 0.1792(7) -0.1579(4)
H3 H 0.0518 0.2256 -0.1283
C5 C 0.0637(8) 0.2160(7) -0.2114(3)
H4 H 0.0600 0.2877 -0.2180
C6 C 0.0756(7) 0.1466(6) -0.2562(3)
C7 C 0.0822(7) 0.1920(7) -0.3109(3)
H5 H 0.0736 0.2643 -0.3132
C8 C 0.0932(8) 0.1981(7) -0.4122(4)
C9 C 0.1058(9) 0.3178(7) -0.4066(4)
H6 H 0.0305 0.3454 -0.3892
H7 H 0.1157 0.3484 -0.4427
H8 H 0.1792 0.3340 -0.3843
C10 C -0.0380(8) 0.1708(8) -0.4387(4)
H9 H -0.0383 0.0986 -0.4498
H10 H -0.0520 0.2143 -0.4706
H11 H -0.1047 0.1825 -0.4121
C11 C 0.2062(8) 0.1523(7) -0.4473(4)
C12 C 0.3368(8) 0.1966(7) -0.4259(4)
H12 H 0.3425 0.1869 -0.3864
H13 H 0.3422 0.2699 -0.4344
H14 H 0.4057 0.1602 -0.4437
C13 C 0.1907(8) 0.1762(8) -0.5094(4)
H15 H 0.2672 0.1564 -0.5288
H16 H 0.1757 0.2497 -0.5144
H17 H 0.1197 0.1374 -0.5239
C14 C 0.2711(7) -0.0284(8) -0.4667(4)
H18 H 0.3189 0.0033 -0.4945
C15 C 0.2821(8) -0.1405(7) -0.4625(4)
C16 C 0.3529(11) -0.1929(8) -0.5040(4)
H19 H 0.3967 -0.1544 -0.5307
C17 C 0.3573(11) -0.2978(8) -0.5052(4)
H20 H 0.4030 -0.3312 -0.5331
C18 C 0.2956(9) -0.3562(8) -0.4659(4)
H21 H 0.2962 -0.4288 -0.4682
C19 C 0.2332(7) -0.3079(7) -0.4234(4)
H22 H 0.1950 -0.3487 -0.3960
C20 C 0.2246(7) -0.1976(7) -0.4195(4)
C21 C 0.4545(7) -0.0152(6) -0.3355(3)
C22 C 0.5928(8) -0.2427(8) -0.3963(5)
H23 H 0.5889 -0.2095 -0.4306
C23 C 0.5751(9) -0.3515(8) -0.3933(5)
H24 H 0.5602 -0.3899 -0.4254
C24 C 0.5799(8) -0.4017(8) -0.3419(5)
H25 H 0.5670 -0.4735 -0.3393
C25 C 0.6038(8) -0.3438(8) -0.2959(5)
H26 H 0.6089 -0.3769 -0.2616
C26 C 0.6215(8) -0.2319(7) -0.2990(4)
C27 C 0.6507(8) -0.1667(7) -0.2512(4)
C28 C 0.7016(8) 0.0158(8) -0.2338(4)
C29 C 0.6986(8) 0.1188(8) -0.2652(4)
C30 C 0.7220(8) 0.2136(9) -0.2403(4)
H27 H 0.7449 0.2168 -0.2030
C31 C 0.7113(9) 0.3026(9) -0.2709(4)
H28 H 0.7263 0.3674 -0.2546
C32 C 0.6782(9) 0.2960(8) -0.3260(4)
H29 H 0.6710 0.3559 -0.3477
C33 C 0.6561(7) 0.1997(7) -0.3480(4)
H30 H 0.6327 0.1953 -0.3852
C34 C 0.6078(6) 0.0001(7) -0.4223(4)
C35 C 0.8145(7) -0.0431(7) -0.3657(4)
Mn1_2 Mn 1.13417(10) -0.01102(9) -0.36191(5)
N3_2 N -0.0793(6) -0.0424(6) -0.3779(3)
loop_
_geom_bond_atom_site_label_1
_geom_bond_atom_site_label_2
_geom_bond_site_symmetry_1
_geom_bond_site_symmetry_2
Mn1 O1 1_555 1_555
Fe1 N6 1_555 1_555
O1 C1 1_555 1_555
O2 Mn1 1_555 1_555
O3 C27 1_555 1_555
O4 C28 1_555 1_555
N1 Mn1 1_555 1_555
N2 Mn1 1_555 1_555
N3 C35 1_555 1_555
N4 Mn1 1_555 1_555
N5 C34 1_555 1_555
N6 C22 1_555 1_555
N7 Fe1 1_555 1_555
N8 Fe1 1_555 1_555
C1 C2 1_555 1_555
C2 H1 1_555 1_555
C3 C2 1_555 1_555
H2 C3 1_555 1_555
C4 C3 1_555 1_555
H3 C4 1_555 1_555
C5 C4 1_555 1_555
H4 C5 1_555 1_555
C6 C1 1_555 1_555
C7 N1 1_555 1_555
H5 C7 1_555 1_555
C8 N1 1_555 1_555
C9 C8 1_555 1_555
H6 C9 1_555 1_555
H7 C9 1_555 1_555
H8 C9 1_555 1_555
C10 C8 1_555 1_555
H9 C10 1_555 1_555
H10 C10 1_555 1_555
H11 C10 1_555 1_555
C11 N2 1_555 1_555
C12 C11 1_555 1_555
H12 C12 1_555 1_555
H13 C12 1_555 1_555
H14 C12 1_555 1_555
C13 C11 1_555 1_555
H15 C13 1_555 1_555
H16 C13 1_555 1_555
H17 C13 1_555 1_555
C14 N2 1_555 1_555
H18 C14 1_555 1_555
C15 C14 1_555 1_555
C16 C15 1_555 1_555
H19 C16 1_555 1_555
C17 C16 1_555 1_555
H20 C17 1_555 1_555
C18 C17 1_555 1_555
H21 C18 1_555 1_555
C19 C18 1_555 1_555
H22 C19 1_555 1_555
C20 O2 1_555 1_555
C21 Fe1 1_555 1_555
C22 H23 1_555 1_555
C23 C22 1_555 1_555
H24 C23 1_555 1_555
C24 C23 1_555 1_555
H25 C24 1_555 1_555
C25 C24 1_555 1_555
H26 C25 1_555 1_555
C26 N6 1_555 1_555
C27 N7 1_555 1_555
C28 N7 1_555 1_555
C29 N8 1_555 1_555
C30 C29 1_555 1_555
H27 C30 1_555 1_555
C31 C30 1_555 1_555
H28 C31 1_555 1_555
C32 C31 1_555 1_555
H29 C32 1_555 1_555
C33 N8 1_555 1_555
H30 C33 1_555 1_555
C34 Fe1 1_555 1_555
C35 Fe1 1_555 1_555
Mn1_2 N3 1_555 1_555
N3_2 Mn1 1_555 1_555
N4 C21 1_555 1_555
C5 C6 1_555 1_555
C6 C7 1_555 1_555
C8 C11 1_555 1_555
C15 C20 1_555 1_555
C19 C20 1_555 1_555
C25 C26 1_555 1_555
C26 C27 1_555 1_555
C28 C29 1_555 1_555
C32 C33 1_555 1_555

#END
