
#######################################################################
#
#                 Cambridge Crystallographic Data Centre
#                                CCDC 
#
#######################################################################
#
# If this CIF has been generated from an entry in the Cambridge 
# Structural Database, then it will include bibliographic, chemical, 
# crystal, experimental, refinement or atomic coordinate data resulting 
# from the CCDC's data processing and validation procedures.
#
#######################################################################

data_BARXIC
_symmetry_cell_setting           monoclinic
_symmetry_space_group_name_H-M   'C 2/c'
_symmetry_Int_Tables_number      15
_space_group_name_Hall           '-C 2yn'
loop_
_symmetry_equiv_pos_site_id
_symmetry_equiv_pos_as_xyz
1 x,y,z
2 x,-y,1/2+z
3 1/2+x,1/2+y,z
4 1/2+x,1/2-y,1/2+z
5 -x,-y,-z
6 -x,y,1/2-z
7 1/2-x,1/2-y,-z
8 1/2-x,1/2+y,1/2-z
_cell_length_a                   20.198(4)
_cell_length_b                   11.456(3)
_cell_length_c                   8.099(2)
_cell_angle_alpha                90
_cell_angle_beta                 109.07(2)
_cell_angle_gamma                90
_cell_volume                     1771.17
loop_
_atom_site_label
_atom_site_type_symbol
_atom_site_fract_x
_atom_site_fract_y
_atom_site_fract_z
Fe1 Fe -0.2500 -0.2500 0.0000
N1 N -0.65182(15) 0.1556(3) 0.0058(4)
C1 C -0.5920(2) 0.2075(4) 0.0231(7)
H1 H -0.5898 0.2881 0.0380
C2 C -0.5319(2) 0.1497(4) 0.0204(7)
H2 H -0.4913 0.1920 0.0322
C3 C -0.53184(18) 0.0326(3) 0.0008(5)
C4 C -0.5936(3) -0.0215(5) -0.0175(14)
H3 H -0.5968 -0.1021 -0.0303
C5 C -0.6518(3) 0.0425(5) -0.0173(13)
H4 H -0.6936 0.0025 -0.0348
C6 C -0.26754(17) -0.2673(3) -0.3966(4)
C7 C -0.28139(17) -0.3162(3) -0.5708(4)
O1 O -0.29056(14) -0.2908(2) -0.2731(3)
O2 O -0.18091(14) -0.1023(2) -0.3442(3)
O3 O -0.20370(14) -0.0948(2) -0.0416(3)
H5 H -0.193(3) -0.028(3) 0.019(5)
H6 H -0.193(3) -0.094(4) -0.141(4)
C3D C -0.46816(18) -0.0326(3) -0.0008(5)
C2D C -0.4681(2) -0.1497(4) -0.0204(7)
C1D C -0.4080(2) -0.2075(4) -0.0231(7)
N1D N -0.34818(15) -0.1556(3) -0.0058(4)
Fe1B Fe -0.7500 0.2500 0.0000
N1B N -0.15182(15) -0.3444(3) 0.0058(4)
C6F C -0.23246(17) -0.2327(3) -0.6034(4)
C7F C -0.21861(17) -0.1838(3) -0.4292(4)
O1F O -0.20944(14) -0.2092(2) -0.7269(3)
Fe1_2 Fe -0.2500 -0.2500 -1.0000
O2F O -0.31909(14) -0.3977(2) -0.6558(3)
O1F_2 O -0.20944(14) -0.2092(2) 0.2731(3)
O3F O -0.29630(14) -0.4052(2) 0.0416(3)
C5D C -0.3482(3) -0.0425(5) 0.0173(13)
C4D C -0.4064(3) 0.0215(5) 0.0175(14)
H3D H -0.4032 0.1021 0.0303
H4D H -0.3064 -0.0025 0.0348
H1D H -0.4102 -0.2881 -0.0380
H2D H -0.5087 -0.1920 -0.0322
H5F H -0.307(3) -0.472(3) -0.019(5)
H6F H -0.307(3) -0.406(4) 0.141(4)
O4 O -1.0000 0.0257(7) 0.2500
H7 H -0.966(3) -0.019(6) 0.235(11)
H7E H -1.034(3) -0.019(6) 0.265(11)
O5 O -0.4294(2) 0.3843(4) 0.0835(6)
H8 H -0.3845(15) 0.365(7) 0.122(8)
H9 H -0.450(3) 0.399(7) -0.029(4)
loop_
_geom_bond_atom_site_label_1
_geom_bond_atom_site_label_2
_geom_bond_site_symmetry_1
_geom_bond_site_symmetry_2
Fe1 O1 1_555 1_555
N1 C1 1_555 1_555
C1 H1 1_555 1_555
C2 C1 1_555 1_555
H2 C2 1_555 1_555
C3 C2 1_555 1_555
C4 C3 1_555 1_555
H3 C4 1_555 1_555
C5 N1 1_555 1_555
H4 C5 1_555 1_555
C6 C7 1_555 1_555
C7 C6F 1_555 1_555
O1 C6 1_555 1_555
O2 C7F 1_555 1_555
O3 Fe1 1_555 1_555
H5 O3 1_555 1_555
H6 O3 1_555 1_555
O4 H7 1_555 1_555
O5 H8 1_555 1_555
H9 O5 1_555 1_555
C3D C3 1_555 1_555
C2D C3D 1_555 1_555
C1D C2D 1_555 1_555
N1D Fe1 1_555 1_555
Fe1B N1 1_555 1_555
N1B Fe1 1_555 1_555
C6F C7F 1_555 1_555
C7F C6 1_555 1_555
O1F C6F 1_555 1_555
Fe1_2 O1F 1_555 1_555
O2F C7 1_555 1_555
O1F_2 Fe1 1_555 1_555
O3F Fe1 1_555 1_555
C5D N1D 1_555 1_555
C4D C3D 1_555 1_555
H3D C4D 1_555 1_555
H4D C5D 1_555 1_555
H1D C1D 1_555 1_555
H2D C2D 1_555 1_555
H7E O4 1_555 1_555
H5F O3F 1_555 1_555
H6F O3F 1_555 1_555
C4 C5 1_555 1_555
C1D N1D 1_555 1_555
C5D C4D 1_555 1_555

#END
