
#######################################################################
#
#                 Cambridge Crystallographic Data Centre
#                                CCDC 
#
#######################################################################
#
# If this CIF has been generated from an entry in the Cambridge 
# Structural Database, then it will include bibliographic, chemical, 
# crystal, experimental, refinement or atomic coordinate data resulting 
# from the CCDC's data processing and validation procedures.
#
#######################################################################

data_BASJOV
_symmetry_cell_setting           monoclinic
_symmetry_space_group_name_H-M   'P 21/n'
_symmetry_Int_Tables_number      14
_space_group_name_Hall           '-P 2yn'
loop_
_symmetry_equiv_pos_site_id
_symmetry_equiv_pos_as_xyz
1 x,y,z
2 1/2+x,1/2-y,1/2+z
3 -x,-y,-z
4 1/2-x,1/2+y,1/2-z
_cell_length_a                   14.7630(3)
_cell_length_b                   13.2294(3)
_cell_length_c                   20.6902(4)
_cell_angle_alpha                90
_cell_angle_beta                 91.285(5)
_cell_angle_gamma                90
_cell_volume                     4039.9
loop_
_atom_site_label
_atom_site_type_symbol
_atom_site_fract_x
_atom_site_fract_y
_atom_site_fract_z
Hg1 Hg 1.06455(3) 0.32421(4) 0.87019(3)
Hg2 Hg 2.04554(3) 0.26584(4) 0.32414(3)
Cl1 Cl 1.1245(2) 0.1590(3) 0.8873(2)
Cl2 Cl 1.0142(3) 0.4797(3) 0.9089(2)
Cl3 Cl 1.9893(3) 0.1005(3) 0.3092(2)
Cl4 Cl 2.0917(3) 0.4254(3) 0.2883(2)
C1 C 1.5520(7) 0.3015(9) 0.5959(5)
C2 C 1.4857(8) 0.2394(9) 0.6358(6)
O1 O 1.4139(5) 0.3073(6) 0.6548(4)
C3 C 1.3624(8) 0.2742(9) 0.7037(6)
O2 O 1.3748(6) 0.1965(7) 0.7317(5)
C4 C 1.2897(8) 0.3470(9) 0.7184(6)
C5 C 1.2777(8) 0.440(1) 0.6886(6)
C6 C 1.2064(9) 0.501(1) 0.7074(7)
C7 C 1.1510(8) 0.4663(9) 0.7553(6)
N1 N 1.1628(6) 0.3773(8) 0.7862(5)
C8 C 1.2310(8) 0.320(1) 0.7679(6)
C9 C 1.6171(8) 0.2248(9) 0.5647(6)
O3 O 1.6911(5) 0.2845(6) 0.5400(4)
C10 C 1.7466(8) 0.236(1) 0.5016(7)
O4 O 1.7419(7) 0.1486(7) 0.4878(6)
C11 C 1.8163(7) 0.3071(9) 0.4751(6)
C12 C 1.820(1) 0.409(1) 0.4921(7)
C13 C 1.886(1) 0.467(1) 0.4659(8)
C14 C 1.946(1) 0.425(1) 0.4237(7)
N2 N 1.9451(7) 0.3273(8) 0.4088(5)
C15 C 1.8799(8) 0.2684(9) 0.4339(6)
C16 C 1.5036(8) 0.3665(9) 0.5451(6)
O5 O 1.4450(6) 0.2982(6) 0.5096(4)
C17 C 1.3757(9) 0.338(1) 0.4744(6)
O6 O 1.3631(7) 0.4260(7) 0.4671(5)
C18 C 1.3169(9) 0.2576(9) 0.4482(6)
C19 C 1.3313(9) 0.1557(9) 0.4626(6)
C20 C 1.268(1) 0.086(1) 0.4374(8)
C21 C 1.197(1) 0.119(1) 0.3995(8)
N3 N 1.1841(7) 0.2163(9) 0.3852(6)
C22 C 1.2432(8) 0.284(1) 0.4079(6)
C23 C 1.6061(9) 0.371(1) 0.6414(6)
O7 O 1.6694(6) 0.3089(7) 0.6784(4)
C24 C 1.731(1) 0.350(1) 0.716(1)
O8 O 1.7236(9) 0.436(1) 0.7351(9)
C25 C 1.8023(8) 0.283(1) 0.7406(8)
C26 C 1.802(1) 0.180(1) 0.7275(8)
C27 C 1.873(1) 0.121(1) 0.7488(9)
C28 C 1.938(1) 0.166(1) 0.7871(9)
N4 N 1.9390(8) 0.2619(9) 0.8031(6)
C29 C 1.8711(9) 0.321(1) 0.7781(8)
H1 H 1.5159 0.2127 0.6731
H2 H 1.4613 0.1856 0.6105
H3 H 1.3174 0.4613 0.6558
H4 H 1.1961 0.5645 0.6877
H5 H 1.1015 0.5076 0.7672
H6 H 1.2405 0.2567 0.7892
H7 H 1.5870 0.1894 0.5305
H8 H 1.6390 0.1778 0.5960
H9 H 1.7775 0.4367 0.5209
H10 H 1.8908 0.5368 0.4769
H11 H 1.9902 0.4674 0.4044
H12 H 1.8778 0.1987 0.4229
H13 H 1.5462 0.3965 0.5172
H14 H 1.4692 0.4179 0.5652
H15 H 1.3818 0.1345 0.4884
H16 H 1.2741 0.0155 0.4468
H17 H 1.1551 0.0703 0.3825
H18 H 1.2351 0.3525 0.3962
H19 H 1.5663 0.4049 0.6697
H20 H 1.6382 0.4197 0.6170
H21 H 1.7524 0.1499 0.7042
H22 H 1.8774 0.0516 0.7373
H23 H 1.9867 0.1249 0.8031
H24 H 1.8720 0.3918 0.7870
N4_2 N 0.9390(8) 0.2619(9) 0.8031(6)
N3_2 N 2.1841(7) 0.2163(9) 0.3852(6)
Hg2_2 Hg 1.04554(3) 0.26584(4) 0.32414(3)
Hg1_2 Hg 2.06455(3) 0.32421(4) 0.87019(3)
C30 C 0.0762(5) 0.1265(5) 0.6198(3)
Cl5 Cl 0.1892(5) 0.0832(5) 0.6245(3)
Cl6 Cl 0.0227(5) 0.0947(5) 0.5401(3)
C31 C 0.0845(5) 0.2332(5) 0.6199(3)
Cl7 Cl 0.0121(5) 0.2913(5) 0.6426(3)
Cl8 Cl 0.1680(5) 0.2678(5) 0.5657(3)
O9 O -0.085(1) 0.137(1) 0.5867(7)
O10? O 0.098(1) 0.218(1) 0.5199(9)
loop_
_geom_bond_atom_site_label_1
_geom_bond_atom_site_label_2
_geom_bond_site_symmetry_1
_geom_bond_site_symmetry_2
Hg1 Cl1 1_555 1_555
Hg2 Cl3 1_555 1_555
Cl2 Hg1 1_555 1_555
Cl4 Hg2 1_555 1_555
C1 C2 1_555 1_555
C2 O1 1_555 1_555
O1 C3 1_555 1_555
C3 O2 1_555 1_555
C4 C3 1_555 1_555
C5 C4 1_555 1_555
C6 C5 1_555 1_555
C7 C6 1_555 1_555
N1 Hg1 1_555 1_555
C8 C4 1_555 1_555
C9 C1 1_555 1_555
O3 C9 1_555 1_555
C10 O3 1_555 1_555
O4 C10 1_555 1_555
C11 C10 1_555 1_555
C12 C11 1_555 1_555
C13 C12 1_555 1_555
C14 C13 1_555 1_555
N2 Hg2 1_555 1_555
C15 C11 1_555 1_555
C16 C1 1_555 1_555
O5 C16 1_555 1_555
C17 O5 1_555 1_555
O6 C17 1_555 1_555
C18 C17 1_555 1_555
C19 C18 1_555 1_555
C20 C19 1_555 1_555
C21 C20 1_555 1_555
N3 C21 1_555 1_555
C22 C18 1_555 1_555
C23 C1 1_555 1_555
O7 C23 1_555 1_555
C24 O7 1_555 1_555
O8 C24 1_555 1_555
C25 C24 1_555 1_555
C26 C25 1_555 1_555
C27 C26 1_555 1_555
C28 C27 1_555 1_555
N4 C28 1_555 1_555
C29 C25 1_555 1_555
C30 Cl5 1_555 1_555
Cl6 C30 1_555 1_555
C31 C30 1_555 1_555
Cl7 C31 1_555 1_555
Cl8 C31 1_555 1_555
H1 C2 1_555 1_555
H2 C2 1_555 1_555
H3 C5 1_555 1_555
H4 C6 1_555 1_555
H5 C7 1_555 1_555
H6 C8 1_555 1_555
H7 C9 1_555 1_555
H8 C9 1_555 1_555
H9 C12 1_555 1_555
H10 C13 1_555 1_555
H11 C14 1_555 1_555
H12 C15 1_555 1_555
H13 C16 1_555 1_555
H14 C16 1_555 1_555
H15 C19 1_555 1_555
H16 C20 1_555 1_555
H17 C21 1_555 1_555
H18 C22 1_555 1_555
H19 C23 1_555 1_555
H20 C23 1_555 1_555
H21 C26 1_555 1_555
H22 C27 1_555 1_555
H23 C28 1_555 1_555
H24 C29 1_555 1_555
N4_2 Hg1 1_555 1_555
N3_2 Hg2 1_555 1_555
Hg2_2 N3 1_555 1_555
Hg1_2 N4 1_555 1_555
C7 N1 1_555 1_555
N1 C8 1_555 1_555
C14 N2 1_555 1_555
N2 C15 1_555 1_555
N3 C22 1_555 1_555
N4 C29 1_555 1_555

#END
