
#######################################################################
#
#                 Cambridge Crystallographic Data Centre
#                                CCDC 
#
#######################################################################
#
# If this CIF has been generated from an entry in the Cambridge 
# Structural Database, then it will include bibliographic, chemical, 
# crystal, experimental, refinement or atomic coordinate data resulting 
# from the CCDC's data processing and validation procedures.
#
#######################################################################

data_BASJIP
_symmetry_cell_setting           monoclinic
_symmetry_space_group_name_H-M   'C 2/c'
_symmetry_Int_Tables_number      15
_space_group_name_Hall           '-C 2yn'
loop_
_symmetry_equiv_pos_site_id
_symmetry_equiv_pos_as_xyz
1 x,y,z
2 x,-y,1/2+z
3 1/2+x,1/2+y,z
4 1/2+x,1/2-y,1/2+z
5 -x,-y,-z
6 -x,y,1/2-z
7 1/2-x,1/2-y,-z
8 1/2-x,1/2+y,1/2-z
_cell_length_a                   24.2740(6)
_cell_length_b                   10.8173(3)
_cell_length_c                   20.6707(6)
_cell_angle_alpha                90
_cell_angle_beta                 123.094(5)
_cell_angle_gamma                90
_cell_volume                     4547.19
loop_
_atom_site_label
_atom_site_type_symbol
_atom_site_fract_x
_atom_site_fract_y
_atom_site_fract_z
Hg1 Hg 1.44685(1) 0.60036(2) 0.64409(1)
Cl1 Cl 1.52027(8) 0.4427(2) 0.6630(1)
Cl2 Cl 1.39583(9) 0.7364(2) 0.6834(1)
N1 N 1.3479(2) 0.5159(5) 0.5285(3)
C1 C 1.3496(3) 0.3980(7) 0.5112(5)
C2 C 1.2932(3) 0.3347(6) 0.4568(5)
C3 C 1.2342(3) 0.3952(6) 0.4182(4)
C4 C 1.2322(3) 0.5181(6) 0.4347(4)
C5 C 1.2885(3) 0.5730(6) 0.4903(4)
C6 C 1.1740(3) 0.3241(6) 0.3608(4)
O1 O 1.1758(2) 0.2155(5) 0.3466(4)
O2 O 1.1187(2) 0.3893(4) 0.3305(2)
C7 C 1.0594(3) 0.3185(5) 0.2876(4)
C8 C 1.0000 0.4047(7) 0.2500
C9 C 0.9987(3) 0.4910(6) 0.3078(4)
O3 O 0.9837(2) 0.4269(4) 0.3580(2)
C10 C 1.0322(3) 0.3976(6) 0.4284(4)
O4 O 1.0901(2) 0.4161(6) 0.4533(3)
C11 C 1.0102(3) 0.3405(6) 0.4755(3)
C12 C 1.0555(3) 0.3118(8) 0.5512(4)
C13 C 1.0352(3) 0.2576(9) 0.5944(4)
N2 N 0.9729(3) 0.2298(5) 0.5675(3)
C14 C 0.9291(3) 0.2602(7) 0.4940(5)
C15 C 0.9452(3) 0.3144(8) 0.4460(4)
H1 H 1.3906 0.3559 0.5369
H2 H 1.2956 0.2500 0.4464
H3 H 1.1921 0.5631 0.4075
H4 H 1.2863 0.6563 0.5034
H5 H 1.0566 0.2634 0.3215
H6 H 1.0598 0.2726 0.2487
H7 H 0.9662 0.5526 0.2799
H8 H 1.0406 0.5290 0.3387
H9 H 1.1007 0.3294 0.5735
H10 H 1.0675 0.2387 0.6468
H11 H 0.8840 0.2437 0.4735
H12 H 0.9123 0.3330 0.3938
C7E C 0.9406(3) 0.3185(5) 0.2124(4)
O2E O 0.8813(2) 0.3893(4) 0.1695(2)
C6E C 0.8260(3) 0.3241(6) 0.1392(4)
C3E C 0.7658(3) 0.3952(6) 0.0818(4)
C2E C 0.7068(3) 0.3347(6) 0.0432(5)
C1E C 0.6504(3) 0.3980(7) -0.0112(5)
N1E N 0.6521(2) 0.5159(5) -0.0285(3)
C5E C 0.7115(3) 0.5730(6) 0.0097(4)
C4E C 0.7678(3) 0.5181(6) 0.0653(4)
H3E H 0.8079 0.5631 0.0925
H4E H 0.7137 0.6563 -0.0034
H1E H 0.6094 0.3559 -0.0369
H2E H 0.7044 0.2500 0.0536
O1E O 0.8242(2) 0.2155(5) 0.1534(4)
H5E H 0.9434 0.2634 0.1785
H6E H 0.9402 0.2726 0.2513
C9E C 1.0013(3) 0.4910(6) 0.1922(4)
O3E O 1.0163(2) 0.4269(4) 0.1420(2)
C10E C 0.9678(3) 0.3976(6) 0.0716(4)
O4E O 0.9099(2) 0.4161(6) 0.0467(3)
C11E C 0.9898(3) 0.3405(6) 0.0245(3)
C12E C 0.9445(3) 0.3118(8) -0.0512(4)
C13E C 0.9648(3) 0.2576(9) -0.0944(4)
N2E N 1.0271(3) 0.2298(5) -0.0675(3)
C14E C 1.0709(3) 0.2602(7) 0.0060(5)
C15E C 1.0548(3) 0.3144(8) 0.0540(4)
H12E H 1.0877 0.3330 0.1062
H11E H 1.1160 0.2437 0.0265
H10E H 0.9325 0.2387 -0.1468
H9E H 0.8993 0.3294 -0.0735
H7E H 1.0338 0.5526 0.2201
H8E H 0.9594 0.5290 0.1613
Hg1E Hg 0.55315(1) 0.60036(2) -0.14409(1)
Cl1E Cl 0.47973(8) 0.4427(2) -0.1630(1)
Cl2E Cl 0.60417(9) 0.7364(2) -0.1834(1)
N2B N 1.4729(3) 0.7298(5) 0.5675(3)
Hg1B Hg 0.94685(1) 0.10036(2) 0.64409(1)
Hg1G Hg 1.05315(1) 0.10036(2) -0.14409(1)
N2G N 0.5271(3) 0.7298(5) -0.0675(3)
C16 C 1.2852(5) 0.455(1) 0.2105(9)
Cl3 Cl 1.2805(2) 0.3023(4) 0.2286(3)
Cl4 Cl 1.2184(1) 0.4712(3) 0.0993(2)
C17 C 1.2618(4) 0.538(2) 0.2299(7)
Cl5 Cl 1.3320(1) 0.5315(7) 0.3387(2)
Cl6 Cl 1.1874(1) 0.5092(3) 0.2258(1)
H13 H 1.3312 0.4675 0.2355
H14 H 1.2506 0.6088 0.1982
loop_
_geom_bond_atom_site_label_1
_geom_bond_atom_site_label_2
_geom_bond_site_symmetry_1
_geom_bond_site_symmetry_2
Hg1 Cl1 1_555 1_555
Cl2 Hg1 1_555 1_555
N1 Hg1 1_555 1_555
C1 N1 1_555 1_555
C2 C1 1_555 1_555
C3 C2 1_555 1_555
C4 C3 1_555 1_555
C5 N1 1_555 1_555
C6 C3 1_555 1_555
O1 C6 1_555 1_555
O2 C6 1_555 1_555
C7 O2 1_555 1_555
C8 C7 1_555 1_555
C9 C8 1_555 1_555
O3 C9 1_555 1_555
C10 O3 1_555 1_555
O4 C10 1_555 1_555
C11 C10 1_555 1_555
C12 C11 1_555 1_555
C13 C12 1_555 1_555
N2 C13 1_555 1_555
C14 N2 1_555 1_555
C15 C11 1_555 1_555
C16 Cl3 1_555 1_555
Cl4 C16 1_555 1_555
C17 C16 1_555 1_555
Cl5 C17 1_555 1_555
Cl6 C17 1_555 1_555
H1 C1 1_555 1_555
H2 C2 1_555 1_555
H3 C4 1_555 1_555
H4 C5 1_555 1_555
H5 C7 1_555 1_555
H6 C7 1_555 1_555
H7 C9 1_555 1_555
H8 C9 1_555 1_555
H9 C12 1_555 1_555
H10 C13 1_555 1_555
H11 C14 1_555 1_555
H12 C15 1_555 1_555
H13 C16 1_555 1_555
H14 C17 1_555 1_555
C7E C8 1_555 1_555
O2E C7E 1_555 1_555
C6E O2E 1_555 1_555
C3E C6E 1_555 1_555
C2E C3E 1_555 1_555
C1E C2E 1_555 1_555
N1E C1E 1_555 1_555
C5E N1E 1_555 1_555
C4E C3E 1_555 1_555
H3E C4E 1_555 1_555
H4E C5E 1_555 1_555
H1E C1E 1_555 1_555
H2E C2E 1_555 1_555
O1E C6E 1_555 1_555
H5E C7E 1_555 1_555
H6E C7E 1_555 1_555
C9E C8 1_555 1_555
O3E C9E 1_555 1_555
C10E O3E 1_555 1_555
O4E C10E 1_555 1_555
C11E C10E 1_555 1_555
C12E C11E 1_555 1_555
C13E C12E 1_555 1_555
N2E C13E 1_555 1_555
C14E N2E 1_555 1_555
C15E C11E 1_555 1_555
H12E C15E 1_555 1_555
H11E C14E 1_555 1_555
H10E C13E 1_555 1_555
H9E C12E 1_555 1_555
H7E C9E 1_555 1_555
H8E C9E 1_555 1_555
Hg1E N1E 1_555 1_555
Cl1E Hg1E 1_555 1_555
Cl2E Hg1E 1_555 1_555
N2B Hg1 1_555 1_555
Hg1B N2 1_555 1_555
Hg1G N2E 1_555 1_555
N2G Hg1E 1_555 1_555
C4 C5 1_555 1_555
C14 C15 1_555 1_555
C5E C4E 1_555 1_555
C14E C15E 1_555 1_555

#END
