
#######################################################################
#
#                 Cambridge Crystallographic Data Centre
#                                CCDC 
#
#######################################################################
#
# If this CIF has been generated from an entry in the Cambridge 
# Structural Database, then it will include bibliographic, chemical, 
# crystal, experimental, refinement or atomic coordinate data resulting 
# from the CCDC's data processing and validation procedures.
#
#######################################################################

data_BASMIS
_symmetry_cell_setting           monoclinic
_symmetry_space_group_name_H-M   'P 2/n'
_symmetry_Int_Tables_number      13
_space_group_name_Hall           '-P 2yac'
loop_
_symmetry_equiv_pos_site_id
_symmetry_equiv_pos_as_xyz
1 x,y,z
2 1/2+x,-y,1/2+z
3 -x,-y,-z
4 1/2-x,y,1/2-z
_cell_length_a                   7.7038(9)
_cell_length_b                   11.5864(13)
_cell_length_c                   10.7693(12)
_cell_angle_alpha                90
_cell_angle_beta                 92.691(2)
_cell_angle_gamma                90
_cell_volume                     960.2
loop_
_atom_site_label
_atom_site_type_symbol
_atom_site_fract_x
_atom_site_fract_y
_atom_site_fract_z
Mn1 Mn 0.7500 0.71869(5) 0.7500
O1 O 0.5311(3) 0.70667(19) 0.8728(2)
O2 O 0.2575(3) 0.6562(2) 0.9002(3)
O3 O 0.9214(3) 0.71612(19) 0.9195(2)
H1 H 1.0197 0.6971 0.9017
H2 H 0.881(5) 0.671(3) 0.974(3)
N1 N 0.7500 0.9131(3) 0.7500
N2 N 0.7500 1.5230(3) 0.7500
C1 C 0.8187(4) 0.9740(3) 0.8464(3)
H5 H 0.8663 0.9338 0.9146
C2 C 0.8224(4) 1.0924(3) 0.8497(3)
H6 H 0.8730 1.1305 0.9183
C3 C 0.7500 1.1552(4) 0.7500
C4 C 0.7500 1.2819(4) 0.7500
C5 C 0.9022(4) 1.3445(3) 0.7719(3)
H7 H 1.0071 1.3064 0.7879
C6 C 0.8969(4) 1.4626(3) 0.7697(3)
H8 H 1.0006 1.5030 0.7826
C7 C 0.3692(4) 0.7236(3) 0.8622(3)
C8 C 0.3068(4) 0.8352(3) 0.8019(3)
C9 C 0.3597(4) 0.9399(3) 0.8542(3)
H9 H 0.4340 0.9403 0.9248
C10 C 0.3040(5) 1.0430(3) 0.8031(4)
H10 H 0.341(4) 1.112(2) 0.844(3)
C8C C 0.1932(4) 0.8352(3) 0.6981(3)
C7C C 0.1308(4) 0.7236(3) 0.6378(3)
O1C O -0.0311(3) 0.70667(19) 0.6272(2)
O2C O 0.2425(3) 0.6562(2) 0.5998(3)
C9C C 0.1403(4) 0.9399(3) 0.6458(3)
H9C H 0.0660 0.9403 0.5752
C10C C 0.1960(5) 1.0430(3) 0.6969(4)
H10C H 0.159(4) 1.112(2) 0.656(3)
C2C C 0.6776(4) 1.0924(3) 0.6503(3)
C1C C 0.6813(4) 0.9740(3) 0.6536(3)
H5C H 0.6337 0.9338 0.5854
H6C H 0.6270 1.1305 0.5817
C6C C 0.6031(4) 1.4626(3) 0.7303(3)
C5C C 0.5978(4) 1.3445(3) 0.7281(3)
H7C H 0.4929 1.3064 0.7121
H8C H 0.4994 1.5030 0.7174
O3C O 0.5786(3) 0.71612(19) 0.5805(2)
H1C H 0.4803 0.6971 0.5983
H2C H 0.619(5) 0.671(3) 0.526(3)
O1C_2 O 0.9689(3) 0.70667(19) 0.6272(2)
N2_2 N 0.7500 0.5230(3) 0.7500
Mn1_2 Mn 0.7500 1.71869(5) 0.7500
Mn1_3 Mn -0.2500 0.71869(5) 0.7500
O4 O 0.7174(4) 0.5865(3) 1.0650(3)
H3 H 0.629(4) 0.605(4) 1.019(4)
H4 H 0.708(6) 0.5151(17) 1.071(5)
loop_
_geom_bond_atom_site_label_1
_geom_bond_atom_site_label_2
_geom_bond_site_symmetry_1
_geom_bond_site_symmetry_2
Mn1 O1 1_555 1_555
O1 C7 1_555 1_555
O2 C7 1_555 1_555
O3 Mn1 1_555 1_555
H1 O3 1_555 1_555
H2 O3 1_555 1_555
O4 H3 1_555 1_555
H4 O4 1_555 1_555
N1 Mn1 1_555 1_555
N2 C6 1_555 1_555
C1 N1 1_555 1_555
H5 C1 1_555 1_555
C2 C1 1_555 1_555
H6 C2 1_555 1_555
C3 C2 1_555 1_555
C4 C3 1_555 1_555
C5 C4 1_555 1_555
H7 C5 1_555 1_555
C6 C5 1_555 1_555
H8 C6 1_555 1_555
C7 C8 1_555 1_555
C8 C9 1_555 1_555
C9 H9 1_555 1_555
C10 C9 1_555 1_555
H10 C10 1_555 1_555
C8C C8 1_555 1_555
C7C C8C 1_555 1_555
O1C C7C 1_555 1_555
O2C C7C 1_555 1_555
C9C C8C 1_555 1_555
H9C C9C 1_555 1_555
C10C C10 1_555 1_555
H10C C10C 1_555 1_555
C2C C3 1_555 1_555
C1C N1 1_555 1_555
H5C C1C 1_555 1_555
H6C C2C 1_555 1_555
C6C N2 1_555 1_555
C5C C4 1_555 1_555
H7C C5C 1_555 1_555
H8C C6C 1_555 1_555
O3C Mn1 1_555 1_555
H1C O3C 1_555 1_555
H2C O3C 1_555 1_555
O1C_2 Mn1 1_555 1_555
N2_2 Mn1 1_555 1_555
Mn1_2 N2 1_555 1_555
Mn1_3 O1C 1_555 1_555
C9C C10C 1_555 1_555
C2C C1C 1_555 1_555
C6C C5C 1_555 1_555

#END
