
#######################################################################
#
#                 Cambridge Crystallographic Data Centre
#                                CCDC 
#
#######################################################################
#
# If this CIF has been generated from an entry in the Cambridge 
# Structural Database, then it will include bibliographic, chemical, 
# crystal, experimental, refinement or atomic coordinate data resulting 
# from the CCDC's data processing and validation procedures.
#
#######################################################################

data_BASTOF
_symmetry_cell_setting           monoclinic
_symmetry_space_group_name_H-M   'P 21/c'
_symmetry_Int_Tables_number      14
_space_group_name_Hall           '-P 2ybc'
loop_
_symmetry_equiv_pos_site_id
_symmetry_equiv_pos_as_xyz
1 x,y,z
2 x,1/2-y,1/2+z
3 -x,-y,-z
4 -x,1/2+y,1/2-z
_cell_length_a                   7.4016(7)
_cell_length_b                   19.4783(17)
_cell_length_c                   18.4508(16)
_cell_angle_alpha                90
_cell_angle_beta                 97.882(2)
_cell_angle_gamma                90
_cell_volume                     2634.93
loop_
_atom_site_label
_atom_site_type_symbol
_atom_site_fract_x
_atom_site_fract_y
_atom_site_fract_z
Cs1 Cs -0.28245(3) 0.758943(11) 0.366627(11)
O1 O 0.2658(4) 0.6301(2) 0.38015(11)
O2 O 0.4667(3) 0.65031(12) 0.50533(12)
O3 O 0.3628(4) 0.77374(14) 0.52028(18)
O4 O 0.1401(4) 0.76324(12) 0.38665(15)
O5 O -0.1763(4) 0.87890(17) 0.2836(2)
C1 C 0.3761(4) 0.62081(16) 0.32785(14)
C2 C 0.3317(4) 0.65400(15) 0.26003(15)
C3 C 0.4434(5) 0.64371(17) 0.20609(17)
H1 H 0.4129 0.6647 0.1595
C4 C 0.5991(6) 0.60311(18) 0.21955(19)
H2 H 0.6774 0.5979 0.1832
C5 C 0.6389(5) 0.57010(16) 0.28705(17)
H3 H 0.7438 0.5416 0.2959
C6 C 0.5284(4) 0.57810(14) 0.34132(15)
C7 C 0.5774(4) 0.54349(15) 0.41521(15)
H4 H 0.4650 0.5361 0.4377
H5 H 0.6322 0.4980 0.4082
C8 C 0.6490(3) 0.63902(15) 0.50870(14)
C9 C 0.7097(4) 0.58600(15) 0.46603(15)
C10 C 0.8983(4) 0.57721(18) 0.46840(17)
H6 H 0.9423 0.5420 0.4397
C11 C 1.0215(4) 0.6181(2) 0.51113(18)
H7 H 1.1488 0.6109 0.5122
C12 C 0.9593(4) 0.66948(19) 0.55228(17)
H8 H 1.0448 0.6981 0.5812
C13 C 0.7736(4) 0.68053(16) 0.55261(15)
C14 C 0.7109(4) 0.73711(16) 0.59940(17)
H9 H 0.8050 0.7449 0.6422
H10 H 0.5973 0.7227 0.6178
C15 C 0.5028(4) 0.81835(16) 0.51866(16)
C16 C 0.6764(4) 0.80396(16) 0.55671(14)
C17 C 0.8191(4) 0.85003(17) 0.55207(16)
H11 H 0.9373 0.8398 0.5767
C18 C 0.7921(4) 0.90975(17) 0.51276(16)
H12 H 0.8905 0.9405 0.5102
C19 C 0.6173(5) 0.92498(17) 0.47634(17)
H13 H 0.5972 0.9668 0.4499
C20 C 0.4743(4) 0.87972(16) 0.47863(15)
C21 C 0.2886(4) 0.89463(18) 0.43416(17)
H14 H 0.2658 0.9447 0.4329
H15 H 0.1912 0.8723 0.4575
C22 C 0.2183(3) 0.80142(16) 0.33664(15)
C23 C 0.2854(4) 0.86731(16) 0.35585(18)
C24 C 0.3568(4) 0.90580(17) 0.30378(18)
H16 H 0.4010 0.9507 0.3161
C25 C 0.3661(5) 0.88117(19) 0.23461(19)
H17 H 0.4147 0.9090 0.1997
C26 C 0.3047(4) 0.81619(17) 0.21615(16)
H18 H 0.3134 0.7988 0.1687
C27 C 0.2293(4) 0.77522(17) 0.26686(16)
C28 C 0.1710(4) 0.70210(18) 0.24662(18)
H19 H 0.0759 0.6874 0.2762
H20 H 0.1181 0.7002 0.1944
C29 C -0.1307(5) 0.9537(2) 0.18870(19)
H21 H -0.1609 0.9129 0.1583
H22 H -0.0074 0.9692 0.1831
H23 H -0.2184 0.9903 0.1733
C30 C -0.1387(4) 0.93650(18) 0.2659(2)
C31 C -0.0989(6) 0.9927(2) 0.3210(2)
H24 H -0.1092 0.9749 0.3699
H25 H -0.1866 1.0302 0.3093
H26 H 0.0250 1.0100 0.3197
C8_2 C -0.3510(3) 0.63902(15) 0.50870(14)
C15_2 C -0.4972(4) 0.81835(16) 0.51866(16)
Cs1_2 Cs 0.71755(3) 0.758943(11) 0.366627(11)
loop_
_geom_bond_atom_site_label_1
_geom_bond_atom_site_label_2
_geom_bond_site_symmetry_1
_geom_bond_site_symmetry_2
Cs1 O4 1_555 1_555
O1 C1 1_555 1_555
O2 C8 1_555 1_555
O3 C15 1_555 1_555
O4 C22 1_555 1_555
O5 Cs1 1_555 1_555
C1 C2 1_555 1_555
C2 C3 1_555 1_555
C3 H1 1_555 1_555
C4 C3 1_555 1_555
H2 C4 1_555 1_555
C5 C4 1_555 1_555
H3 C5 1_555 1_555
C6 C1 1_555 1_555
C7 C6 1_555 1_555
H4 C7 1_555 1_555
H5 C7 1_555 1_555
C8 C9 1_555 1_555
C9 C7 1_555 1_555
C10 C9 1_555 1_555
H6 C10 1_555 1_555
C11 C10 1_555 1_555
H7 C11 1_555 1_555
C12 C11 1_555 1_555
H8 C12 1_555 1_555
C13 C8 1_555 1_555
C14 C13 1_555 1_555
H9 C14 1_555 1_555
H10 C14 1_555 1_555
C15 C16 1_555 1_555
C16 C14 1_555 1_555
C17 C16 1_555 1_555
H11 C17 1_555 1_555
C18 C17 1_555 1_555
H12 C18 1_555 1_555
C19 C18 1_555 1_555
H13 C19 1_555 1_555
C20 C15 1_555 1_555
C21 C20 1_555 1_555
H14 C21 1_555 1_555
H15 C21 1_555 1_555
C22 C23 1_555 1_555
C23 C21 1_555 1_555
C24 C23 1_555 1_555
H16 C24 1_555 1_555
C25 C24 1_555 1_555
H17 C25 1_555 1_555
C26 C25 1_555 1_555
H18 C26 1_555 1_555
C27 C22 1_555 1_555
C28 C2 1_555 1_555
H19 C28 1_555 1_555
H20 C28 1_555 1_555
C29 H21 1_555 1_555
H22 C29 1_555 1_555
H23 C29 1_555 1_555
C30 O5 1_555 1_555
C31 C30 1_555 1_555
H24 C31 1_555 1_555
H25 C31 1_555 1_555
H26 C31 1_555 1_555
C8_2 Cs1 1_555 1_555
C15_2 Cs1 1_555 1_555
Cs1_2 C8 1_555 1_555
C5 C6 1_555 1_555
C12 C13 1_555 1_555
C15 Cs1_2 1_555 1_555
C19 C20 1_555 1_555
C26 C27 1_555 1_555
C27 C28 1_555 1_555
C29 C30 1_555 1_555

#END
