
#######################################################################
#
#                 Cambridge Crystallographic Data Centre
#                                CCDC 
#
#######################################################################
#
# If this CIF has been generated from an entry in the Cambridge 
# Structural Database, then it will include bibliographic, chemical, 
# crystal, experimental, refinement or atomic coordinate data resulting 
# from the CCDC's data processing and validation procedures.
#
#######################################################################

data_BATMUG01
_symmetry_cell_setting           orthorhombic
_symmetry_space_group_name_H-M   'P 21 21 21'
_symmetry_Int_Tables_number      19
_space_group_name_Hall           'P 2ac 2ab'
loop_
_symmetry_equiv_pos_site_id
_symmetry_equiv_pos_as_xyz
1 x,y,z
2 1/2+x,1/2-y,-z
3 -x,1/2+y,1/2-z
4 1/2-x,-y,1/2+z
_cell_length_a                   8.5749(13)
_cell_length_b                   11.4845(18)
_cell_length_c                   19.715(4)
_cell_angle_alpha                90
_cell_angle_beta                 90
_cell_angle_gamma                90
_cell_volume                     1941.5
loop_
_atom_site_label
_atom_site_type_symbol
_atom_site_fract_x
_atom_site_fract_y
_atom_site_fract_z
V1 V 0.03955(10) 0.58940(7) 0.79011(4)
O1 O 0.1178(4) 0.5701(3) 0.70571(18)
O2 O 0.1245(4) 0.7113(3) 0.83575(18)
O3 O -0.1652(4) 0.5618(3) 0.80598(18)
N1 N 0.1203(5) 0.4767(4) 0.8301(3)
N2 N 0.0863(5) 0.2496(4) 0.76339(19)
C1 C 0.1921(6) 0.3739(4) 0.8589(3)
C2 C 0.1093(6) 0.2600(4) 0.8378(3)
C3 C 0.1993(7) 0.1563(5) 0.8649(3)
C4 C 0.2177(7) 0.1604(5) 0.9409(3)
C5 C 0.2943(7) 0.2746(5) 0.9640(3)
C6 C 0.2047(7) 0.3797(5) 0.9364(3)
C7 C 0.2378(6) 0.4982(5) 0.6793(3)
C8 C 0.1765(8) 0.4307(5) 0.6181(3)
C9 C 0.3757(7) 0.5718(5) 0.6610(4)
C10 C 0.2254(7) 0.7121(5) 0.8933(3)
C11 C 0.3331(9) 0.8134(5) 0.8871(4)
C12 C 0.1277(9) 0.7137(6) 0.9579(3)
C13 C -0.2434(7) 0.4805(5) 0.8480(3)
C14 C -0.3493(8) 0.5462(6) 0.8952(4)
C15 C -0.3349(8) 0.3981(6) 0.8047(4)
H1 H 0.2986 0.3700 0.8411
H2 H 0.0061 0.2596 0.8592
H3 H 0.1451 0.0853 0.8525
H4 H 0.3016 0.1543 0.8440
H5 H 0.2812 0.0952 0.9555
H6 H 0.1161 0.1530 0.9620
H7 H 0.2960 0.2776 1.0132
H8 H 0.4012 0.2772 0.9480
H9 H 0.2578 0.4508 0.9495
H10 H 0.1009 0.3812 0.9560
H11 H 0.2693 0.4425 0.7144
H12 H 0.1439 0.4845 0.5837
H13 H 0.0894 0.3837 0.6317
H14 H 0.2576 0.3816 0.6006
H15 H 0.4117 0.6125 0.7005
H16 H 0.3461 0.6270 0.6268
H17 H 0.4577 0.5229 0.6440
H18 H 0.2876 0.6406 0.8929
H19 H 0.2736 0.8842 0.8861
H20 H 0.3921 0.8066 0.8459
H21 H 0.4029 0.8147 0.9251
H22 H 0.0605 0.6468 0.9586
H23 H 0.0656 0.7833 0.9590
H24 H 0.1952 0.7120 0.9967
H25 H -0.1666 0.4368 0.8746
H26 H -0.4256 0.5881 0.8692
H27 H -0.2890 0.6001 0.9216
H28 H -0.4011 0.4924 0.9249
H29 H -0.2658 0.3586 0.7741
H30 H -0.4113 0.4408 0.7792
H31 H -0.3865 0.3421 0.8330
V1B V -0.03955(10) 0.08940(7) 0.70989(4)
N2B N -0.0863(5) 0.7496(4) 0.73661(19)
loop_
_geom_bond_atom_site_label_1
_geom_bond_atom_site_label_2
_geom_bond_site_symmetry_1
_geom_bond_site_symmetry_2
V1 O1 1_555 1_555
O1 C7 1_555 1_555
O2 V1 1_555 1_555
O3 V1 1_555 1_555
N1 V1 1_555 1_555
N2 C2 1_555 1_555
C1 N1 1_555 1_555
C2 C1 1_555 1_555
C3 C2 1_555 1_555
C4 C3 1_555 1_555
C5 C4 1_555 1_555
C6 C1 1_555 1_555
C7 C8 1_555 1_555
C8 H12 1_555 1_555
C9 C7 1_555 1_555
C10 O2 1_555 1_555
C11 C10 1_555 1_555
C12 C10 1_555 1_555
C13 O3 1_555 1_555
C14 C13 1_555 1_555
C15 C13 1_555 1_555
H1 C1 1_555 1_555
H2 C2 1_555 1_555
H3 C3 1_555 1_555
H4 C3 1_555 1_555
H5 C4 1_555 1_555
H6 C4 1_555 1_555
H7 C5 1_555 1_555
H8 C5 1_555 1_555
H9 C6 1_555 1_555
H10 C6 1_555 1_555
H11 C7 1_555 1_555
H13 C8 1_555 1_555
H14 C8 1_555 1_555
H15 C9 1_555 1_555
H16 C9 1_555 1_555
H17 C9 1_555 1_555
H18 C10 1_555 1_555
H19 C11 1_555 1_555
H20 C11 1_555 1_555
H21 C11 1_555 1_555
H22 C12 1_555 1_555
H23 C12 1_555 1_555
H24 C12 1_555 1_555
H25 C13 1_555 1_555
H26 C14 1_555 1_555
H27 C14 1_555 1_555
H28 C14 1_555 1_555
H29 C15 1_555 1_555
H30 C15 1_555 1_555
H31 C15 1_555 1_555
V1B N2 1_555 1_555
N2B V1 1_555 1_555
C5 C6 1_555 1_555

#END
