
#######################################################################
#
#                 Cambridge Crystallographic Data Centre
#                                CCDC 
#
#######################################################################
#
# If this CIF has been generated from an entry in the Cambridge 
# Structural Database, then it will include bibliographic, chemical, 
# crystal, experimental, refinement or atomic coordinate data resulting 
# from the CCDC's data processing and validation procedures.
#
#######################################################################

data_BAVFIP
_symmetry_cell_setting           monoclinic
_symmetry_space_group_name_H-M   'P 21'
_symmetry_Int_Tables_number      4
_space_group_name_Hall           'P 2yb'
loop_
_symmetry_equiv_pos_site_id
_symmetry_equiv_pos_as_xyz
1 x,y,z
2 -x,1/2+y,-z
_cell_length_a                   12.996(1)
_cell_length_b                   13.425(1)
_cell_length_c                   18.890(1)
_cell_angle_alpha                90
_cell_angle_beta                 95.79(1)
_cell_angle_gamma                90
_cell_volume                     3278.95
loop_
_atom_site_label
_atom_site_type_symbol
_atom_site_fract_x
_atom_site_fract_y
_atom_site_fract_z
Cu1 Cu 0.26799(4) 0.65183(3) 0.73448(2)
Cu2 Cu 0.27957(4) 0.84696(3) 0.74486(2)
S1 S 0.67409(7) 0.97324(7) 0.93436(5)
S2 S 0.17212(8) 0.52004(7) 0.42295(5)
O1 O 0.6123(2) 0.7974(2) 0.85203(13)
O2 O 0.2634(2) 0.6974(2) 0.49012(14)
O3 O 0.4221(2) 0.8173(2) 0.78368(13)
O4 O 0.4198(2) 0.6573(2) 0.74769(12)
O5 O 0.2322(3) 0.4962(2) 0.72159(16)
O6 O -0.1323(2) 0.3456(2) 0.29612(13)
O7 O 0.2715(2) 0.6789(2) 0.63295(13)
O8 O 0.3204(2) 0.8400(2) 0.64756(12)
N1 N 0.1924(3) 1.1491(3) 0.76476(19)
O9 O -0.1188(2) 0.18093(19) 0.27470(14)
C1 C 1.0044(3) 0.8069(3) 1.0658(2)
H1 H 1.0625 0.8085 1.1007
C2 C 0.6054(3) 0.8703(3) 0.96465(19)
C3 C 0.5709(3) 0.8673(3) 1.03477(19)
O10 O 0.2837(2) 1.0046(2) 0.75850(15)
C4 C 0.3203(4) 0.7705(3) 0.5329(2)
H2 H 0.2998 0.8377 0.5152
H3 H 0.3950 0.7620 0.5282
C5 C 0.1760(3) 0.5963(3) 0.28470(19)
N2 N 0.0646(3) 0.4609(3) 0.6797(2)
C6 C 0.1022(3) 0.6253(3) 0.45067(18)
C7 C 0.5932(3) 0.9456(3) 1.0861(2)
H4 H 0.6319 1.0019 1.0737
C8 C 0.0811(3) 0.4235(3) 0.2227(2)
H5 H 0.0482 0.3659 0.2018
C9 C 0.5769(3) 0.7233(3) 0.8018(2)
H6 H 0.5888 0.6568 0.8238
H7 H 0.6179 0.7272 0.7605
C10 C 0.1438(3) 0.5166(3) 0.32853(18)
C11 C 0.5754(3) 0.7936(3) 0.91808(19)
C12 C 0.5112(3) 0.7870(3) 1.0550(2)
C13 C 0.8546(3) 0.8897(3) 1.00282(19)
C14 C 0.9638(3) 0.9804(3) 1.09332(19)
H8 H 1.0230 0.9828 1.1272
C15 C -0.0718(4) 0.5473(3) 0.4139(2)
H9 H -0.0396 0.4924 0.3934
C16 C 0.9031(3) 1.0633(3) 1.08341(19)
H10 H 0.9196 1.1221 1.1101
C17 C -0.1746(4) 0.5486(3) 0.4128(2)
H11 H -0.2141 0.4942 0.3928
C18 C 0.8397(3) 0.8027(3) 0.96004(19)
H12 H 0.7852 0.8015 0.9225
C19 C 0.1565(3) 0.7028(3) 0.48530(19)
C20 C 0.1441(4) 0.4637(3) 0.7296(2)
H13 H 0.1330 0.4388 0.7753
C21 C 0.9016(3) 0.7211(3) 0.9714(2)
H14 H 0.8898 0.6638 0.9423
C22 C 0.0991(3) 0.4321(3) 0.29751(19)
C23 C 0.0007(4) 0.7872(3) 0.5056(2)
H15 H -0.0327 0.8435 0.5234
C24 C 0.1113(3) 0.4985(3) 0.18068(19)
H16 H 0.0996 0.4916 0.1305
C25 C 0.4834(3) 0.7110(3) 1.0050(2)
H17 H 0.4427 0.6565 1.0182
C26 C 0.1918(3) 0.6631(3) 0.16578(19)
H18 H 0.1831 0.6556 0.1155
C27 C 0.9416(3) 0.8914(3) 1.05508(19)
C28 C 0.1588(3) 0.5850(3) 0.20914(18)
C29 C 0.8151(3) 1.0603(3) 1.03270(18)
C30 C 0.5007(3) 0.8589(3) 1.1715(2)
H19 H 0.4777 0.8556 1.2176
C31 C -0.0090(3) 0.6260(3) 0.44506(18)
C32 C 0.4764(3) 0.7841(3) 1.1236(2)
H20 H 0.4357 0.7295 1.1365
C33 C 0.0920(4) 1.1952(4) 0.7585(3)
H21 H 0.0385 1.1435 0.7567
H22 H 0.0831 1.2351 0.7149
H23 H 0.0860 1.2382 0.7998
C34 C 0.2524(3) 0.7584(4) 0.2688(2)
H24 H 0.2829 0.8176 0.2889
C35 C 0.2352(3) 0.7476(4) 0.1939(2)
H25 H 0.2540 0.7996 0.1636
C36 C 0.5596(3) 0.9405(3) 1.1526(2)
H26 H 0.5764 0.9924 1.1860
C37 C 0.9836(3) 0.7221(3) 1.0269(2)
H27 H 1.0241 0.6640 1.0371
C38 C 0.2253(3) 0.6838(3) 0.3119(2)
H28 H 0.2399 0.6909 0.3620
C39 C 0.3022(3) 0.7626(3) 0.61076(19)
C40 C -0.0602(4) 0.7097(4) 0.4733(2)
C41 C 0.2008(4) 1.0503(3) 0.7584(2)
H29 H 0.1387 1.0123 0.7534
C42 C 0.1045(4) 0.7841(3) 0.5122(2)
H30 H 0.1430 0.8372 0.5351
C43 C -0.1699(4) 0.7087(4) 0.4703(3)
H31 H -0.2044 0.7637 0.4890
C44 C -0.0823(3) 0.2660(3) 0.29339(19)
C45 C 0.4632(3) 0.7338(3) 0.77590(17)
C46 C 0.5141(3) 0.7145(3) 0.9385(2)
H32 H 0.4939 0.6631 0.9054
C47 C 0.2817(4) 1.2127(4) 0.7718(4)
H33 H 0.3437 1.1731 0.7663
H34 H 0.2882 1.2440 0.8190
H35 H 0.2742 1.2645 0.7351
C48 C -0.0369(4) 0.4245(5) 0.6954(4)
H36 H -0.0295 0.3875 0.7403
H37 H -0.0655 0.3805 0.6569
H38 H -0.0835 0.4811 0.6994
C49 C -0.2259(4) 0.6321(4) 0.4417(3)
H39 H -0.2991 0.6329 0.4406
C50 C 0.0716(5) 0.5035(4) 0.6096(3)
H40 H 0.0252 0.5611 0.6029
H41 H 0.0515 0.4534 0.5731
H42 H 0.1429 0.5249 0.6055
O11 O 0.7304(2) 1.1552(2) 1.16103(12)
O12 O 0.7505(2) 1.14039(19) 1.01889(12)
O13 O 0.0739(2) 0.3582(2) 0.34250(13)
O14 O 0.7667(2) 1.31841(19) 1.16096(13)
C51 C 0.7741(3) 1.2321(3) 1.05427(19)
H43 H 0.7326 1.2854 1.0289
H44 H 0.8480 1.2476 1.0509
C52 C 0.7545(3) 1.2345(3) 1.13181(18)
C53 C 0.0343(3) 0.2676(3) 0.3147(2)
H45 H 0.0512 0.2148 0.3506
H46 H 0.0699 0.2507 0.2724
C57 C 0.7895(3) 0.9746(3) 0.99465(18)
Cu1A Cu -0.26799(4) 0.15183(3) 0.26552(2)
Cu1A_2 Cu 0.73201(4) 1.15183(3) 1.26552(2)
Cu2A Cu -0.27957(4) 0.34696(3) 0.25514(2)
Cu2A_2 Cu 0.72043(4) 1.34696(3) 1.25514(2)
O6A O 0.1323(2) 0.8456(2) 0.70388(13)
O9A O 0.1188(2) 0.68093(19) 0.72530(14)
O11A O 0.2696(2) 0.6552(2) 0.83897(12)
O14A O 0.2333(2) 0.81841(19) 0.83904(13)
N3 N 0.2718(3) 0.9967(3) 0.98242(18)
O15 O 0.2268(3) 0.9813(3) 1.09455(18)
C54 C 0.1670(4) 0.9999(4) 0.9486(2)
H48 H 0.1187 0.9857 0.9839
H49 H 0.1586 0.9499 0.9106
H50 H 0.1527 1.0663 0.9283
C55 C 0.2927(4) 0.9891(4) 1.0516(2)
H51 H 0.3634 0.9898 1.0703
C56 C 0.3555(4) 1.0077(4) 0.9370(2)
H52 H 0.3498 1.0727 0.9132
H53 H 0.3507 0.9547 0.9012
H54 H 0.4222 1.0032 0.9661
O16 O 0.8330(6) 0.6160(5) 0.7958(4)
O17 O 0.7358(6) 0.6447(6) 0.6595(4)
O18 O 0.4586(8) 0.4156(7) 0.6000(5)
H55 H 0.4912 0.4697 0.6028
C58 C 0.3541(10) 0.4343(10) 0.5805(7)
H56 H 0.3134 0.4108 0.6181
H57 H 0.3320 0.3992 0.5361
H58 H 0.3434 0.5060 0.5736
H47? H 0.2559 0.9841 1.1363
loop_
_geom_bond_atom_site_label_1
_geom_bond_atom_site_label_2
_geom_bond_site_symmetry_1
_geom_bond_site_symmetry_2
Cu1 Cu2 1_555 1_555
Cu2 O3 1_555 1_555
S1 C2 1_555 1_555
S2 C6 1_555 1_555
O1 C9 1_555 1_555
O2 C4 1_555 1_555
O3 C45 1_555 1_555
O4 Cu1 1_555 1_555
O5 Cu1 1_555 1_555
O6 C44 1_555 1_555
O7 Cu1 1_555 1_555
O8 Cu2 1_555 1_555
N1 C33 1_555 1_555
O9 C44 1_555 1_555
C1 H1 1_555 1_555
C2 C3 1_555 1_555
C3 C7 1_555 1_555
O10 Cu2 1_555 1_555
C4 H2 1_555 1_555
H3 C4 1_555 1_555
C5 C10 1_555 1_555
N2 C20 1_555 1_555
C6 C19 1_555 1_555
C7 H4 1_555 1_555
C8 H5 1_555 1_555
C9 H6 1_555 1_555
H7 C9 1_555 1_555
C10 S2 1_555 1_555
C11 O1 1_555 1_555
C12 C3 1_555 1_555
C13 C18 1_555 1_555
C14 H8 1_555 1_555
C15 H9 1_555 1_555
C16 C14 1_555 1_555
H10 C16 1_555 1_555
C17 C15 1_555 1_555
H11 C17 1_555 1_555
C18 H12 1_555 1_555
C19 O2 1_555 1_555
C20 O5 1_555 1_555
H13 C20 1_555 1_555
C21 C18 1_555 1_555
H14 C21 1_555 1_555
C22 C8 1_555 1_555
C23 H15 1_555 1_555
C24 C8 1_555 1_555
H16 C24 1_555 1_555
C25 C12 1_555 1_555
H17 C25 1_555 1_555
C26 H18 1_555 1_555
C27 C1 1_555 1_555
C28 C5 1_555 1_555
C29 C16 1_555 1_555
C30 H19 1_555 1_555
C31 C6 1_555 1_555
C32 C12 1_555 1_555
H20 C32 1_555 1_555
C33 H21 1_555 1_555
H22 C33 1_555 1_555
H23 C33 1_555 1_555
C34 H24 1_555 1_555
C35 C26 1_555 1_555
H25 C35 1_555 1_555
C36 C7 1_555 1_555
H26 C36 1_555 1_555
C37 C1 1_555 1_555
H27 C37 1_555 1_555
C38 C5 1_555 1_555
H28 C38 1_555 1_555
C39 O7 1_555 1_555
C40 C23 1_555 1_555
C41 N1 1_555 1_555
H29 C41 1_555 1_555
C42 C19 1_555 1_555
H30 C42 1_555 1_555
C43 C40 1_555 1_555
H31 C43 1_555 1_555
C44 C53 1_555 1_555
C45 O4 1_555 1_555
C46 C11 1_555 1_555
H32 C46 1_555 1_555
C47 N1 1_555 1_555
H33 C47 1_555 1_555
H34 C47 1_555 1_555
H35 C47 1_555 1_555
C48 N2 1_555 1_555
H36 C48 1_555 1_555
H37 C48 1_555 1_555
H38 C48 1_555 1_555
C49 C17 1_555 1_555
H39 C49 1_555 1_555
C50 N2 1_555 1_555
H40 C50 1_555 1_555
H41 C50 1_555 1_555
H42 C50 1_555 1_555
O11 C52 1_555 1_555
O12 C29 1_555 1_555
O13 C22 1_555 1_555
O14 C52 1_555 1_555
C51 O12 1_555 1_555
H43 C51 1_555 1_555
H44 C51 1_555 1_555
C52 C51 1_555 1_555
C53 O13 1_555 1_555
H45 C53 1_555 1_555
H46 C53 1_555 1_555
N3 C54 1_555 1_555
O15 C55 1_555 1_555
C54 H48 1_555 1_555
H49 C54 1_555 1_555
H50 C54 1_555 1_555
C55 N3 1_555 1_555
H51 C55 1_555 1_555
C56 N3 1_555 1_555
H52 C56 1_555 1_555
H53 C56 1_555 1_555
H54 C56 1_555 1_555
C57 S1 1_555 1_555
O18 H55 1_555 1_555
C58 O18 1_555 1_555
H56 C58 1_555 1_555
H57 C58 1_555 1_555
H58 C58 1_555 1_555
Cu1A O9 1_555 1_555
Cu1A_2 O11 1_555 1_555
Cu2A O6 1_555 1_555
Cu2A_2 O14 1_555 1_555
O6A Cu2 1_555 1_555
O9A Cu1 1_555 1_555
O11A Cu1 1_555 1_555
O14A Cu2 1_555 1_555
O8 C39 1_555 1_555
C2 C11 1_555 1_555
O10 C41 1_555 1_555
C4 C39 1_555 1_555
C9 C45 1_555 1_555
C10 C22 1_555 1_555
C13 C27 1_555 1_555
C13 C57 1_555 1_555
C14 C27 1_555 1_555
C15 C31 1_555 1_555
C21 C37 1_555 1_555
C23 C42 1_555 1_555
C24 C28 1_555 1_555
C25 C46 1_555 1_555
C26 C28 1_555 1_555
C29 C57 1_555 1_555
C30 C32 1_555 1_555
C30 C36 1_555 1_555
C31 C40 1_555 1_555
C34 C35 1_555 1_555
C34 C38 1_555 1_555
C43 C49 1_555 1_555
Cu1A Cu2A 1_555 1_555
Cu1A_2 Cu2A_2 1_555 1_555

#END
