
#######################################################################
#
#                 Cambridge Crystallographic Data Centre
#                                CCDC 
#
#######################################################################
#
# If this CIF has been generated from an entry in the Cambridge 
# Structural Database, then it will include bibliographic, chemical, 
# crystal, experimental, refinement or atomic coordinate data resulting 
# from the CCDC's data processing and validation procedures.
#
#######################################################################

data_BAVFEL
_symmetry_cell_setting           orthorhombic
_symmetry_space_group_name_H-M   'P b c a'
_symmetry_Int_Tables_number      61
_space_group_name_Hall           '-P 2ac 2ab'
loop_
_symmetry_equiv_pos_site_id
_symmetry_equiv_pos_as_xyz
1 x,y,z
2 1/2-x,-y,1/2+z
3 1/2+x,1/2-y,-z
4 -x,1/2+y,1/2-z
5 -x,-y,-z
6 1/2+x,y,1/2-z
7 1/2-x,1/2+y,z
8 x,1/2-y,1/2+z
_cell_length_a                   11.359(2)
_cell_length_b                   18.258(2)
_cell_length_c                   29.443(5)
_cell_angle_alpha                90
_cell_angle_beta                 90
_cell_angle_gamma                90
_cell_volume                     6106.26
loop_
_atom_site_label
_atom_site_type_symbol
_atom_site_fract_x
_atom_site_fract_y
_atom_site_fract_z
Cu1 Cu 0.10645(2) 0.010072(12) 0.124339(8)
O1 O 0.18863(13) -0.09477(7) 0.28546(4)
O2 O 0.50812(11) -0.23712(7) 0.40142(5)
O3 O 0.75669(12) -0.11854(8) 0.41983(5)
O4 O 0.57745(11) -0.09312(7) 0.39122(5)
O5 O 0.21158(12) -0.01752(8) 0.17404(5)
O6 O 0.05187(13) -0.03560(8) 0.21732(5)
O7 O 0.25789(14) 0.02789(9) 0.07504(5)
N1 N 0.10838(14) 0.11747(9) 0.14001(6)
C1 C 0.13954(18) -0.32063(11) 0.29019(7)
N2 N -0.01908(14) 0.04508(9) 0.08158(5)
C2 C 0.33746(17) -0.17168(10) 0.34548(6)
H1 H 0.3391 -0.1193 0.3368
H2 H 0.4148 -0.1929 0.3373
C3 C 0.13621(17) -0.10439(10) 0.39614(7)
H3 H 0.1436 -0.0968 0.3643
C4 C 0.22361(16) -0.14530(10) 0.41946(6)
C5 C 0.02759(18) -0.08651(12) 0.46572(7)
H4 H -0.0401 -0.0680 0.4808
C6 C 0.41002(16) -0.20741(10) 0.42307(7)
C7 C -0.03660(17) 0.11865(10) 0.08161(6)
C8 C 0.24332(19) -0.07017(11) 0.24460(7)
H5 H 0.2861 -0.1117 0.2306
H6 H 0.3019 -0.0320 0.2522
C9 C 0.17477(18) -0.17027(11) 0.28730(6)
C10 C 0.22623(17) -0.28739(10) 0.31861(7)
C11 C 0.62068(18) -0.21405(11) 0.41805(8)
C12 C 0.11010(19) 0.26829(12) 0.14953(7)
H7 H 0.1112 0.3201 0.1527
C13 C 0.24345(17) -0.20960(10) 0.31717(6)
C14 C 0.15765(18) -0.03941(10) 0.21021(7)
C15 C 0.08913(18) -0.20257(11) 0.25900(7)
H8 H 0.0433 -0.1731 0.2392
C16 C 0.21231(17) -0.15260(10) 0.46759(7)
C17 C -0.17105(19) 0.03161(12) 0.02628(7)
H9 H -0.2162 0.0005 0.0072
C18 C 0.11131(18) -0.12343(11) 0.48959(7)
H10 H 0.1021 -0.1298 0.5214
C19 C 0.07263(19) -0.27673(12) 0.26034(7)
H11 H 0.0158 -0.2988 0.2411
C20 C 0.32366(17) -0.17627(10) 0.39681(7)
C21 C 0.39960(18) -0.21441(11) 0.47060(7)
H12 H 0.4602 -0.2377 0.4875
C22 C 0.03863(17) 0.15981(11) 0.11357(6)
C23 C 0.30300(18) -0.18785(11) 0.49213(7)
H13 H 0.2962 -0.1930 0.5241
C24 C -0.12224(18) 0.15047(12) 0.05444(7)
H14 H -0.1342 0.2020 0.0550
C25 C 0.17925(19) 0.22480(12) 0.17702(8)
H15 H 0.2278 0.2462 0.1997
C26 C -0.08467(18) 0.00277(11) 0.05451(7)
H16 H -0.0718 -0.0486 0.0546
C27 C 0.03868(18) 0.23519(11) 0.11712(7)
H17 H -0.0094 0.2640 0.0977
C28 C 0.1207(2) -0.39734(11) 0.29342(8)
H18 H 0.0626 -0.4198 0.2748
C29 C 0.29365(18) -0.33344(11) 0.34729(7)
H19 H 0.3541 -0.3128 0.3656
C30 C 0.1842(2) -0.43919(12) 0.32255(8)
H20 H 0.1684 -0.4901 0.3250
C31 C 0.17708(18) 0.14965(12) 0.17113(7)
H21 H 0.2259 0.1199 0.1897
C32 C 0.2731(2) -0.40740(11) 0.34912(8)
H22 H 0.3195 -0.4373 0.3685
C33 C 0.65481(18) -0.13481(11) 0.40863(7)
C34 C 0.04130(18) -0.07571(11) 0.41870(7)
H23 H -0.0158 -0.0482 0.4024
C35 C -0.19012(19) 0.10633(12) 0.02652(7)
H24 H -0.2492 0.1273 0.0077
H28 H 0.6748(17) -0.2451(11) 0.4034(6)
H29 H 0.6280(18) -0.2212(12) 0.4514(8)
H31 H 0.309(2) 0.0503(14) 0.0859(8)
H32 H 0.277(3) -0.0211(17) 0.0744(9)
Cu1E Cu 0.60645(2) 0.010072(12) 0.375661(8)
O4E O 0.07745(11) -0.09312(7) 0.10878(5)
O8 O 0.46308(17) 0.00578(11) 0.18238(6)
H25 H 0.5024(19) -0.0186(11) 0.2048(7)
H30 H 0.3830(15) -0.0064(12) 0.1816(8)
O9 O 0.43084(18) 0.10970(10) 0.11646(8)
H26 H 0.4466(19) 0.0868(11) 0.1460(6)
H27 H 0.4650(18) 0.1571(9) 0.1168(7)
loop_
_geom_bond_atom_site_label_1
_geom_bond_atom_site_label_2
_geom_bond_site_symmetry_1
_geom_bond_site_symmetry_2
Cu1 O5 1_555 1_555
O1 C8 1_555 1_555
O2 C6 1_555 1_555
O3 C33 1_555 1_555
O4 C33 1_555 1_555
O5 C14 1_555 1_555
O6 C14 1_555 1_555
O7 Cu1 1_555 1_555
N1 Cu1 1_555 1_555
C1 C10 1_555 1_555
N2 Cu1 1_555 1_555
C2 H1 1_555 1_555
H2 C2 1_555 1_555
C3 H3 1_555 1_555
C4 C3 1_555 1_555
C5 H4 1_555 1_555
C6 C20 1_555 1_555
C7 N2 1_555 1_555
C8 H5 1_555 1_555
H6 C8 1_555 1_555
C9 O1 1_555 1_555
C10 C13 1_555 1_555
C11 O2 1_555 1_555
C12 H7 1_555 1_555
C13 C2 1_555 1_555
C14 C8 1_555 1_555
C15 C9 1_555 1_555
H8 C15 1_555 1_555
C16 C4 1_555 1_555
C17 H9 1_555 1_555
C18 C5 1_555 1_555
H10 C18 1_555 1_555
C19 C1 1_555 1_555
H11 C19 1_555 1_555
C20 C2 1_555 1_555
C21 C6 1_555 1_555
H12 C21 1_555 1_555
C22 N1 1_555 1_555
C23 C16 1_555 1_555
H13 C23 1_555 1_555
C24 C7 1_555 1_555
H14 C24 1_555 1_555
C25 C12 1_555 1_555
H15 C25 1_555 1_555
C26 N2 1_555 1_555
H16 C26 1_555 1_555
C27 C12 1_555 1_555
H17 C27 1_555 1_555
C28 C1 1_555 1_555
H18 C28 1_555 1_555
C29 C10 1_555 1_555
H19 C29 1_555 1_555
C30 C28 1_555 1_555
H20 C30 1_555 1_555
C31 N1 1_555 1_555
H21 C31 1_555 1_555
C32 C29 1_555 1_555
H22 C32 1_555 1_555
C33 C11 1_555 1_555
C34 C3 1_555 1_555
H23 C34 1_555 1_555
C35 C17 1_555 1_555
H24 C35 1_555 1_555
O8 H25 1_555 1_555
O9 H26 1_555 1_555
H27 O9 1_555 1_555
H28 C11 1_555 1_555
H29 C11 1_555 1_555
H30 O8 1_555 1_555
H31 O7 1_555 1_555
H32 O7 1_555 1_555
Cu1E O4 1_555 1_555
O4E Cu1 1_555 1_555
C4 C20 1_555 1_555
C5 C34 1_555 1_555
C7 C22 1_555 1_555
C9 C13 1_555 1_555
C15 C19 1_555 1_555
C16 C18 1_555 1_555
C17 C26 1_555 1_555
C21 C23 1_555 1_555
C22 C27 1_555 1_555
C24 C35 1_555 1_555
C25 C31 1_555 1_555
C30 C32 1_555 1_555

#END
