
#######################################################################
#
#                 Cambridge Crystallographic Data Centre
#                                CCDC 
#
#######################################################################
#
# If this CIF has been generated from an entry in the Cambridge 
# Structural Database, then it will include bibliographic, chemical, 
# crystal, experimental, refinement or atomic coordinate data resulting 
# from the CCDC's data processing and validation procedures.
#
#######################################################################

data_BAVKOA
_symmetry_cell_setting           hexagonal
_symmetry_space_group_name_H-M   'P 61'
_symmetry_Int_Tables_number      169
_space_group_name_Hall           'P 61'
loop_
_symmetry_equiv_pos_site_id
_symmetry_equiv_pos_as_xyz
1 x,y,z
2 -x,-y,1/2+z
3 -y,x-y,1/3+z
4 -x+y,-x,2/3+z
5 x-y,x,1/6+z
6 y,-x+y,5/6+z
_cell_length_a                   14.4478(18)
_cell_length_b                   14.4478(18)
_cell_length_c                   46.109(12)
_cell_angle_alpha                90
_cell_angle_beta                 90
_cell_angle_gamma                120
_cell_volume                     8335.27
loop_
_atom_site_label
_atom_site_type_symbol
_atom_site_fract_x
_atom_site_fract_y
_atom_site_fract_z
Dy1 Dy 0.331105(10) 0.540121(11) 0.597170(4)
O1 O 0.31084(18) 0.68304(18) 0.58032(6)
H1 H 0.2639 0.6900 0.5897
H2 H 0.3453 0.7374 0.5695
O2 O 0.15005(17) 0.48820(17) 0.59671(7)
H3 H 0.1393 0.5363 0.6039
H4 H 0.0998 0.4274 0.6021
O3 O 0.44315(17) 0.46692(18) 0.59960(6)
H5 H 0.4235 0.4026 0.5952
H6 H 0.4999 0.5080 0.5903
O4 O 0.50590(19) 0.6790(2) 0.60771(6)
H7 H 0.5545 0.6779 0.5976
H8 H 0.5308 0.7407 0.6152
C7 C 0.4158(2) 0.6176(2) 0.52686(7)
C8 C 0.4817(2) 0.7005(2) 0.48227(8)
H29 H 0.5026 0.7759 0.4784
C9 C 0.3565(2) 0.6237(2) 0.47969(8)
H30 H 0.3192 0.6625 0.4739
C10 C 0.4445(2) 0.5678(2) 0.44689(7)
C11 C 0.2226(2) 0.5134(2) 0.51978(8)
H31 H 0.1731 0.5227 0.5072
H32 H 0.2163 0.5359 0.5394
C12 C 0.2497(2) 0.4496(2) 0.45110(7)
H33 H 0.2557 0.4276 0.4314
H34 H 0.1904 0.4643 0.4512
C13 C 0.2083(2) 0.3508(2) 0.54270(8)
C14 C 0.1480(2) 0.3325(2) 0.49472(8)
H35 H 0.0796 0.3259 0.4883
C15 C 0.1332(2) 0.2256(3) 0.50560(8)
H36 H 0.0566 0.1702 0.5063
C16 C 0.2369(2) 0.2789(3) 0.46352(7)
C17 C 0.1704(3) 0.1688(3) 0.55487(8)
H37 H 0.1669 0.1920 0.5746
H38 H 0.1034 0.1023 0.5511
C18 C 0.1986(3) 0.1056(3) 0.48381(8)
H39 H 0.1300 0.0445 0.4897
H40 H 0.2129 0.0929 0.4639
C19 C 0.3441(3) 0.1961(3) 0.57116(8)
C20 C 0.2659(2) 0.0755(2) 0.53197(8)
H41 H 0.2056 0.0014 0.5340
C21 C 0.3731(3) 0.0838(3) 0.54091(8)
H42 H 0.3625 0.0150 0.5485
C22 C 0.3759(2) 0.1251(2) 0.49161(8)
C23 C 0.5087(3) 0.1920(3) 0.58019(9)
H43 H 0.5173 0.1289 0.5814
H44 H 0.4968 0.2094 0.5999
C24 C 0.5376(2) 0.1280(2) 0.51138(9)
H45 H 0.5448 0.0793 0.5248
H46 H 0.5488 0.1103 0.4916
C25 C 0.6431(2) 0.3845(3) 0.57642(7)
C26 C 0.6717(2) 0.2731(2) 0.54570(7)
H47 H 0.7055 0.2314 0.5520
C27 C 0.7567(2) 0.3918(2) 0.53928(7)
H48 H 0.8303 0.4048 0.5420
C28 C 0.6565(2) 0.3141(2) 0.49747(7)
C29 C 0.7843(2) 0.5651(3) 0.56154(7)
H49 H 0.8608 0.5940 0.5581
H50 H 0.7761 0.5866 0.5811
C30 C 0.8035(2) 0.4966(2) 0.49153(8)
H51 H 0.8034 0.4720 0.4717
H52 H 0.8768 0.5289 0.4989
C31 C 0.6810(2) 0.6523(2) 0.54911(8)
C32 C 0.7968(2) 0.6557(3) 0.51295(8)
H53 H 0.8748 0.7031 0.5153
C33 C 0.7419(2) 0.7185(2) 0.50220(7)
H54 H 0.7949 0.7928 0.4968
C34 C 0.7042(2) 0.5795(2) 0.46986(7)
C35 C 0.6060(2) 0.7551(2) 0.52621(8)
H55 H 0.6410 0.8246 0.5164
H56 H 0.5907 0.7666 0.5462
C36 C 0.6338(2) 0.6952(2) 0.45591(8)
H57 H 0.6729 0.7735 0.4567
H58 H 0.6439 0.6743 0.4365
N1 N 0.5057(2) 0.6856(2) 0.51161(6)
N2 N 0.32884(19) 0.5809(2) 0.50963(6)
N3 N 0.52183(19) 0.6579(2) 0.46003(6)
N4 N 0.3472(2) 0.5471(2) 0.45800(7)
N5 N 0.19109(19) 0.4013(2) 0.52044(6)
N6 N 0.1798(2) 0.2498(2) 0.53455(6)
N7 N 0.2243(2) 0.3620(2) 0.47072(7)
N8 N 0.1897(2) 0.2004(2) 0.48433(7)
N9 N 0.2570(2) 0.1481(2) 0.55314(7)
N10 N 0.4166(2) 0.1664(2) 0.56270(7)
N11 N 0.2805(2) 0.1104(2) 0.50223(6)
N12 N 0.4308(2) 0.1125(2) 0.51368(6)
N13 N 0.6075(2) 0.2819(2) 0.56871(7)
N14 N 0.7313(2) 0.4502(2) 0.56034(6)
N15 N 0.6171(2) 0.2350(2) 0.51788(7)
N16 N 0.7365(2) 0.4072(2) 0.50893(6)
N17 N 0.74449(19) 0.61193(19) 0.54075(6)
N18 N 0.67874(19) 0.71492(18) 0.52697(6)
N19 N 0.77247(19) 0.57808(19) 0.49059(6)
N20 N 0.67966(19) 0.65549(19) 0.47683(6)
O14 O 0.41626(16) 0.59403(18) 0.55265(5)
O15 O 0.24236(17) 0.38844(18) 0.56729(5)
O16 O 0.35346(18) 0.25369(18) 0.59167(6)
O17 O 0.60695(17) 0.41398(18) 0.59604(6)
O18 O 0.63650(17) 0.63713(18) 0.57249(5)
O19 O 0.45729(16) 0.51787(17) 0.42831(6)
O20 O 0.28155(17) 0.27182(18) 0.44136(6)
O21 O 0.40454(17) 0.14560(17) 0.46637(5)
O22 O 0.62606(17) 0.30370(17) 0.47200(5)
O23 O 0.67103(17) 0.52194(18) 0.44821(5)
Dy1E Dy 0.540121(11) 0.209016(15) 0.430503(4)
O21D O 0.25894(24) 0.40454(17) 0.63304(5)
O22D O 0.32236(24) 0.62606(17) 0.63867(5)
O5 O 1.0420(3) 0.4844(4) 0.46316(17)
H9 H 1.0114 0.5161 0.4559
H10 H 1.0907 0.5281 0.4745
O6 O -0.0354(4) -0.0533(4) 0.51983(10)
H11 H -0.0631 -0.0189 0.5124
H12 H -0.0678 -0.0824 0.5355
O7 O 1.0166(3) 0.5877(4) 0.54115(13)
H13 H 1.0172 0.5540 0.5562
H14 H 1.0773 0.6147 0.5329
O8 O 0.6836(6) 0.9470(4) 0.46923(16)
H15 H 0.6712 0.9599 0.4521
H16 H 0.6979 0.8967 0.4684
O9 O 0.4366(3) 0.8347(3) 0.54375(10)
H17 H 0.4023 0.8505 0.5316
H18 H 0.4903 0.8923 0.5496
O10 O 0.9541(4) 0.2130(8) 0.54971(14)
H19 H 0.9706 0.2386 0.5667
H20 H 0.9491 0.2580 0.5389
O11 O 0.0171(4) 0.4029(4) 0.39654(16)
H21 H 0.0232 0.4412 0.4112
H22 H 0.0171 0.3473 0.4026
C1 C -0.0454(4) 0.7342(4) 0.44130(16)
C2 C -0.0200(4) 0.8309(4) 0.45385(15)
H23 H 0.0274 0.8578 0.4696
C3 C -0.0666(4) 0.8882(4) 0.44255(13)
H24 H -0.0518 0.9528 0.4514
C4 C -0.1347(4) 0.8517(4) 0.41843(13)
C5 C -0.1583(4) 0.7554(5) 0.40659(15)
H25 H -0.2040 0.7289 0.3904
C6 C -0.1143(4) 0.6954(4) 0.41857(15)
H26 H -0.1330 0.6282 0.4107
O12 O -0.0060(4) 0.6729(4) 0.45147(15)
H27 H 0.0343 0.7034 0.4654
O13 O -0.1796(3) 0.9062(3) 0.40654(10)
H28 H -0.1588 0.9632 0.4154
N21 N -0.0552(3) 0.1568(3) 0.44092(8)
O24 O -0.1209(4) 0.1072(4) 0.42095(10)
O25 O 0.0242(3) 0.2478(4) 0.43743(15)
O26 O -0.0765(5) 0.1170(5) 0.46611(10)
N22 N 0.8623(3) 0.2823(4) 0.49467(9)
O27 O 0.8606(4) 0.3109(4) 0.46845(11)
O28 O 0.9348(4) 0.3413(4) 0.51193(15)
O29 O 0.7854(5) 0.1882(5) 0.50328(19)
O30 O 0.1907(5) 0.7080(3) 0.4976(2)
N23 N 0.2194(3) 0.8051(4) 0.5044(3)
O31 O 0.1416(4) 0.8203(5) 0.5007(3)
O32 O 0.3186(4) 0.8761(7) 0.5005(4)
loop_
_geom_bond_atom_site_label_1
_geom_bond_atom_site_label_2
_geom_bond_site_symmetry_1
_geom_bond_site_symmetry_2
Dy1 O1 1_555 1_555
O1 H1 1_555 1_555
H2 O1 1_555 1_555
O2 Dy1 1_555 1_555
H3 O2 1_555 1_555
H4 O2 1_555 1_555
O3 Dy1 1_555 1_555
H5 O3 1_555 1_555
H6 O3 1_555 1_555
O4 Dy1 1_555 1_555
H7 O4 1_555 1_555
H8 O4 1_555 1_555
O5 H9 1_555 1_555
H10 O5 1_555 1_555
O6 H11 1_555 1_555
H12 O6 1_555 1_555
O7 H13 1_555 1_555
H14 O7 1_555 1_555
O8 H15 1_555 1_555
H16 O8 1_555 1_555
O9 H17 1_555 1_555
H18 O9 1_555 1_555
O10 H19 1_555 1_555
H20 O10 1_555 1_555
O11 H21 1_555 1_555
H22 O11 1_555 1_555
C1 C2 1_555 1_555
C2 H23 1_555 1_555
C3 C2 1_555 1_555
H24 C3 1_555 1_555
C4 C3 1_555 1_555
C5 C4 1_555 1_555
H25 C5 1_555 1_555
C6 C1 1_555 1_555
H26 C6 1_555 1_555
O12 C1 1_555 1_555
H27 O12 1_555 1_555
O13 C4 1_555 1_555
H28 O13 1_555 1_555
C7 N1 1_555 1_555
C8 H29 1_555 1_555
C9 C8 1_555 1_555
H30 C9 1_555 1_555
C10 N3 1_555 1_555
C11 H31 1_555 1_555
H32 C11 1_555 1_555
C12 H33 1_555 1_555
H34 C12 1_555 1_555
C13 N5 1_555 1_555
C14 H35 1_555 1_555
C15 C14 1_555 1_555
H36 C15 1_555 1_555
C16 N7 1_555 1_555
C17 H37 1_555 1_555
H38 C17 1_555 1_555
C18 H39 1_555 1_555
H40 C18 1_555 1_555
C19 N9 1_555 1_555
C20 H41 1_555 1_555
C21 C20 1_555 1_555
H42 C21 1_555 1_555
C22 N11 1_555 1_555
C23 H43 1_555 1_555
H44 C23 1_555 1_555
C24 H45 1_555 1_555
H46 C24 1_555 1_555
C25 N13 1_555 1_555
C26 H47 1_555 1_555
C27 C26 1_555 1_555
H48 C27 1_555 1_555
C28 N15 1_555 1_555
C29 H49 1_555 1_555
H50 C29 1_555 1_555
C30 H51 1_555 1_555
H52 C30 1_555 1_555
C31 N17 1_555 1_555
C32 H53 1_555 1_555
C33 C32 1_555 1_555
H54 C33 1_555 1_555
C34 N19 1_555 1_555
C35 H55 1_555 1_555
H56 C35 1_555 1_555
C36 H57 1_555 1_555
H58 C36 1_555 1_555
N1 C8 1_555 1_555
N2 C7 1_555 1_555
N3 C8 1_555 1_555
N4 C9 1_555 1_555
N5 C11 1_555 1_555
N6 C13 1_555 1_555
N7 C12 1_555 1_555
N8 C15 1_555 1_555
N9 C17 1_555 1_555
N10 C19 1_555 1_555
N11 C18 1_555 1_555
N12 C21 1_555 1_555
N13 C23 1_555 1_555
N14 C25 1_555 1_555
N15 C24 1_555 1_555
N16 C27 1_555 1_555
N17 C29 1_555 1_555
N18 C31 1_555 1_555
N19 C30 1_555 1_555
N20 C33 1_555 1_555
O14 Dy1 1_555 1_555
O15 Dy1 1_555 1_555
O16 C19 1_555 1_555
O17 C25 1_555 1_555
O18 C31 1_555 1_555
O19 C10 1_555 1_555
O20 C16 1_555 1_555
O21 C22 1_555 1_555
O22 C28 1_555 1_555
O23 C34 1_555 1_555
N21 O24 1_555 1_555
O25 N21 1_555 1_555
O26 N21 1_555 1_555
N22 O27 1_555 1_555
O28 N22 1_555 1_555
O29 N22 1_555 1_555
O30 N23 1_555 1_555
N23 O31 1_555 1_555
O32 N23 1_555 1_555
Dy1E O21 1_555 1_555
O21D Dy1 1_555 1_555
O22D Dy1 1_555 1_555
C5 C6 1_555 1_555
C7 O14 1_555 1_555
C9 N2 1_555 1_555
C10 N4 1_555 1_555
C11 N2 1_555 1_555
C12 N4 1_555 1_555
C13 O15 1_555 1_555
C14 N5 1_555 1_555
C14 N7 1_555 1_555
C15 N6 1_555 1_555
C16 N8 1_555 1_555
C17 N6 1_555 1_555
C18 N8 1_555 1_555
C20 N9 1_555 1_555
C20 N11 1_555 1_555
C21 N10 1_555 1_555
C22 N12 1_555 1_555
C23 N10 1_555 1_555
C24 N12 1_555 1_555
C26 N13 1_555 1_555
C26 N15 1_555 1_555
C27 N14 1_555 1_555
C28 N16 1_555 1_555
C29 N14 1_555 1_555
C30 N16 1_555 1_555
C32 N17 1_555 1_555
C32 N19 1_555 1_555
C33 N18 1_555 1_555
C34 N20 1_555 1_555
C35 N1 1_555 1_555
C35 N18 1_555 1_555
C36 N3 1_555 1_555
C36 N20 1_555 1_555
O22 Dy1E 1_555 1_555

#END
