
#######################################################################
#
#                 Cambridge Crystallographic Data Centre
#                                CCDC 
#
#######################################################################
#
# If this CIF has been generated from an entry in the Cambridge 
# Structural Database, then it will include bibliographic, chemical, 
# crystal, experimental, refinement or atomic coordinate data resulting 
# from the CCDC's data processing and validation procedures.
#
#######################################################################

data_BAVLAN
_symmetry_cell_setting           hexagonal
_symmetry_space_group_name_H-M   'P 65'
_symmetry_Int_Tables_number      170
_space_group_name_Hall           'P 65'
loop_
_symmetry_equiv_pos_site_id
_symmetry_equiv_pos_as_xyz
1 x,y,z
2 -y,x-y,2/3+z
3 -x+y,-x,1/3+z
4 -x,-y,1/2+z
5 y,-x+y,1/6+z
6 x-y,x,5/6+z
_cell_length_a                   14.5310(10)
_cell_length_b                   14.5310(10)
_cell_length_c                   46.070(7)
_cell_angle_alpha                90
_cell_angle_beta                 90
_cell_angle_gamma                120
_cell_volume                     8424.42
loop_
_atom_site_label
_atom_site_type_symbol
_atom_site_fract_x
_atom_site_fract_y
_atom_site_fract_z
O11 O -0.1015(6) 0.0751(8) 0.0656(2)
O12 O 0.3033(6) 0.3375(8) 0.1041(3)
C31 C -0.0030(4) 0.1336(5) 0.07702(18)
C32 C 0.0609(5) 0.2276(5) 0.0621(2)
H31 H 0.0342 0.2450 0.0457
C33 C 0.1642(5) 0.2958(5) 0.0715(3)
H32 H 0.2073 0.3594 0.0614
C34 C 0.2036(5) 0.2700(7) 0.0957(3)
C35 C 0.1397(6) 0.1760(8) 0.1106(2)
H33 H 0.1663 0.1585 0.1270
C36 C 0.0364(6) 0.1078(6) 0.10128(19)
H34 H -0.0068 0.0442 0.1114
O17 O 0.6022(6) 0.9790(6) 0.2309(2)
O18 O 0.4250(6) 0.5856(6) 0.0355(2)
O19 O 0.4268(10) 0.3254(10) 0.1495(3)
O20 O -0.0160(10) 0.0425(6) 0.1810(2)
O21 O -0.4606(6) 0.5154(10) 0.1251(2)
O22 O 0.4474(9) 0.4317(9) 0.2020(3)
O23 O 0.3716(9) 0.4951(10) -0.0149(3)
Dy1 Dy 0.32330(2) 0.78623(2) 0.090163(8)
O1 O 0.3137(3) 0.6956(3) 0.13185(10)
O2 O 0.2505(3) 0.8507(3) 0.12452(10)
O3 O -0.0006(4) 0.7180(4) 0.10029(11)
O4 O 0.1411(3) 0.4739(3) 0.10862(10)
O5 O -0.0660(3) 0.4783(3) 0.08933(11)
O6 O -0.1523(3) 0.6107(3) 0.22601(10)
O7 O -0.1848(3) 0.4039(3) 0.21349(10)
O8 O 0.0924(4) 0.7499(4) 0.25003(11)
O9 O -0.0038(3) 0.3661(4) 0.23401(11)
O10 O 0.1872(3) 0.5920(4) 0.25574(12)
N1 N 0.3753(4) 0.7657(4) 0.17689(12)
N2 N 0.3100(4) 0.8904(4) 0.17254(12)
N3 N 0.2417(5) 0.8359(5) 0.22162(14)
N4 N 0.3181(5) 0.7240(4) 0.22778(13)
N5 N -0.0400(4) 0.2862(4) 0.18829(12)
N6 N 0.1273(4) 0.3906(4) 0.20184(12)
N7 N 0.3223(4) 0.5966(4) 0.16887(12)
N8 N -0.1502(4) 0.6317(5) 0.12919(13)
N9 N 0.0192(4) 0.3418(4) 0.13815(12)
N10 N 0.1002(4) 0.8506(4) 0.21065(14)
N11 N 0.1600(4) 0.8855(4) 0.16030(13)
N12 N -0.0191(4) 0.7920(4) 0.14289(14)
N13 N -0.1860(4) 0.3116(4) 0.17309(12)
N14 N -0.2595(4) 0.4136(4) 0.17009(12)
N15 N -0.2048(4) 0.4494(5) 0.11916(15)
N16 N -0.2144(4) 0.5933(4) 0.17943(12)
N17 N -0.1412(4) 0.3378(4) 0.12139(12)
N18 N -0.0787(4) 0.7475(4) 0.19296(13)
N19 N 0.1888(4) 0.4265(4) 0.15157(12)
N20 N 0.2744(4) 0.5551(4) 0.22069(12)
O13 O 0.3053(4) 0.6243(4) 0.07412(12)
O14 O 0.4967(4) 0.8251(4) 0.10177(12)
O15 O 0.4340(4) 0.9712(4) 0.09150(13)
O16 O 0.1452(3) 0.6590(3) 0.09022(13)
C1 C 0.3919(5) 0.7296(5) 0.20511(14)
H1 H 0.4668 0.7718 0.2115
C2 C 0.2805(5) 0.9187(5) 0.19854(15)
H2 H 0.3368 0.9885 0.2058
C3 C -0.2104(5) 0.5410(5) 0.11027(15)
H3 H -0.2849 0.5234 0.1101
H4 H -0.1830 0.5602 0.0904
C4 C 0.1785(6) 0.9208(6) 0.19039(16)
H5 H 0.1896 0.9936 0.1921
C5 C -0.2242(4) 0.2968(5) 0.14359(14)
H6 H -0.2789 0.2220 0.1398
C6 C -0.1929(5) 0.6600(5) 0.15370(15)
H7 H -0.2567 0.6638 0.1480
C7 C -0.0494(5) 0.7150(5) 0.12191(17)
C8 C 0.2163(5) 0.4431(5) 0.22252(15)
H8 H 0.1882 0.4231 0.2423
H9 H 0.2652 0.4160 0.2193
C9 C 0.4010(5) 0.8737(5) 0.16991(18)
H10 H 0.4282 0.8901 0.1500
H11 H 0.4576 0.9231 0.1829
C10 C 0.0843(6) 0.8900(5) 0.14090(18)
H12 H 0.1107 0.8996 0.1209
H13 H 0.0761 0.9511 0.1460
C11 C 0.3098(6) 0.8113(6) 0.23854(17)
H14 H 0.3809 0.8742 0.2392
H15 H 0.2827 0.7956 0.2585
C12 C -0.1022(5) 0.7702(5) 0.16334(16)
H16 H -0.1235 0.8251 0.1632
C13 C 0.3011(5) 0.5061(5) 0.15211(15)
H17 H 0.3412 0.4743 0.1601
H18 H 0.3257 0.5285 0.1322
C14 C 0.2524(5) 0.6208(6) 0.23634(14)
C15 C 0.0202(5) 0.2833(5) 0.16331(14)
H19 H 0.0011 0.2096 0.1583
C16 C 0.1195(5) 0.4214(4) 0.13036(14)
C17 C 0.1385(5) 0.8049(5) 0.22933(14)
C18 C 0.2417(5) 0.8719(5) 0.15020(16)
C19 C -0.1277(5) 0.4279(5) 0.10761(15)
C20 C -0.1499(5) 0.6460(5) 0.20122(15)
C21 C -0.0086(5) 0.8281(6) 0.21314(17)
H20 H -0.0107 0.8935 0.2096
H21 H -0.0339 0.8045 0.2330
C22 C 0.3595(5) 0.6138(6) 0.19961(16)
H22 H 0.4197 0.6010 0.2024
C23 C -0.1520(5) 0.2459(5) 0.18784(15)
H23 H -0.1775 0.2356 0.2079
H24 H -0.1863 0.1759 0.1785
C24 C 0.0272(5) 0.3522(5) 0.21032(15)
C25 C -0.2698(5) 0.3726(5) 0.14026(15)
H25 H -0.3451 0.3335 0.1340
C26 C 0.1348(5) 0.3475(5) 0.17438(15)
H26 H 0.1668 0.3016 0.1767
C27 C -0.0654(5) 0.3008(5) 0.11726(15)
H27 H -0.1037 0.2230 0.1182
H28 H -0.0346 0.3214 0.0978
C28 C -0.2077(5) 0.3790(6) 0.18722(15)
C29 C 0.3356(4) 0.6875(5) 0.15784(14)
C30 C -0.2959(5) 0.4847(5) 0.17941(16)
H29 H -0.3533 0.4762 0.1666
H30 H -0.3251 0.4648 0.1991
Dy1D Dy -0.21377(2) 0.46293(3) 0.256830(8)
O6E O 0.2370(4) 0.8477(3) 0.05934(10)
O7E O 0.4113(4) 0.8152(3) 0.04682(10)
loop_
_geom_bond_atom_site_label_1
_geom_bond_atom_site_label_2
_geom_bond_site_symmetry_1
_geom_bond_site_symmetry_2
Dy1 O1 1_555 1_555
O1 C29 1_555 1_555
O2 Dy1 1_555 1_555
O3 C7 1_555 1_555
O4 C16 1_555 1_555
O5 C19 1_555 1_555
O6 C20 1_555 1_555
O7 C28 1_555 1_555
O8 C17 1_555 1_555
O9 C24 1_555 1_555
O10 C14 1_555 1_555
O11 C31 1_555 1_555
O12 C34 1_555 1_555
N1 C1 1_555 1_555
N2 C2 1_555 1_555
N3 C2 1_555 1_555
N4 C1 1_555 1_555
N5 C15 1_555 1_555
N6 C8 1_555 1_555
N7 C13 1_555 1_555
N8 C3 1_555 1_555
N9 C15 1_555 1_555
N10 C4 1_555 1_555
N11 C4 1_555 1_555
N12 C7 1_555 1_555
N13 C5 1_555 1_555
N14 C25 1_555 1_555
N15 C3 1_555 1_555
N16 C6 1_555 1_555
N17 C5 1_555 1_555
N18 C12 1_555 1_555
N19 C13 1_555 1_555
N20 C8 1_555 1_555
O13 Dy1 1_555 1_555
O14 Dy1 1_555 1_555
O15 Dy1 1_555 1_555
O16 Dy1 1_555 1_555
C1 H1 1_555 1_555
C2 H2 1_555 1_555
C3 H3 1_555 1_555
H4 C3 1_555 1_555
C4 C2 1_555 1_555
H5 C4 1_555 1_555
C5 H6 1_555 1_555
C6 N8 1_555 1_555
H7 C6 1_555 1_555
C7 N8 1_555 1_555
C8 H8 1_555 1_555
H9 C8 1_555 1_555
C9 N1 1_555 1_555
H10 C9 1_555 1_555
H11 C9 1_555 1_555
C10 N11 1_555 1_555
H12 C10 1_555 1_555
H13 C10 1_555 1_555
C11 N3 1_555 1_555
H14 C11 1_555 1_555
H15 C11 1_555 1_555
C12 N12 1_555 1_555
H16 C12 1_555 1_555
C13 H17 1_555 1_555
H18 C13 1_555 1_555
C14 N4 1_555 1_555
C15 H19 1_555 1_555
C16 N9 1_555 1_555
C17 N3 1_555 1_555
C18 O2 1_555 1_555
C19 N15 1_555 1_555
C20 N16 1_555 1_555
C21 N10 1_555 1_555
H20 C21 1_555 1_555
H21 C21 1_555 1_555
C22 N7 1_555 1_555
H22 C22 1_555 1_555
C23 N5 1_555 1_555
H23 C23 1_555 1_555
H24 C23 1_555 1_555
C24 N5 1_555 1_555
C25 N15 1_555 1_555
H25 C25 1_555 1_555
C26 N6 1_555 1_555
H26 C26 1_555 1_555
C27 N9 1_555 1_555
H27 C27 1_555 1_555
H28 C27 1_555 1_555
C28 N13 1_555 1_555
C29 N1 1_555 1_555
C30 N14 1_555 1_555
H29 C30 1_555 1_555
H30 C30 1_555 1_555
C31 C32 1_555 1_555
C32 H31 1_555 1_555
C33 C32 1_555 1_555
H32 C33 1_555 1_555
C34 C33 1_555 1_555
C35 C34 1_555 1_555
H33 C35 1_555 1_555
C36 C31 1_555 1_555
H34 C36 1_555 1_555
Dy1D O6 1_555 1_555
O6E Dy1 1_555 1_555
O7E Dy1 1_555 1_555
O7 Dy1D 1_555 1_555
N2 C9 1_555 1_555
N2 C18 1_555 1_555
N4 C11 1_555 1_555
N6 C24 1_555 1_555
N7 C29 1_555 1_555
N10 C17 1_555 1_555
N11 C18 1_555 1_555
N12 C10 1_555 1_555
N13 C23 1_555 1_555
N14 C28 1_555 1_555
N16 C30 1_555 1_555
N17 C19 1_555 1_555
N17 C27 1_555 1_555
N18 C20 1_555 1_555
N18 C21 1_555 1_555
N19 C16 1_555 1_555
N19 C26 1_555 1_555
N20 C14 1_555 1_555
N20 C22 1_555 1_555
C1 C22 1_555 1_555
C5 C25 1_555 1_555
C6 C12 1_555 1_555
C15 C26 1_555 1_555
C35 C36 1_555 1_555

#END
