
#######################################################################
#
#                 Cambridge Crystallographic Data Centre
#                                CCDC 
#
#######################################################################
#
# If this CIF has been generated from an entry in the Cambridge 
# Structural Database, then it will include bibliographic, chemical, 
# crystal, experimental, refinement or atomic coordinate data resulting 
# from the CCDC's data processing and validation procedures.
#
#######################################################################

data_BAVNAO
_symmetry_cell_setting           triclinic
_symmetry_space_group_name_H-M   'P -1'
_symmetry_Int_Tables_number      2
_space_group_name_Hall           '-P 1'
loop_
_symmetry_equiv_pos_site_id
_symmetry_equiv_pos_as_xyz
1 x,y,z
2 -x,-y,-z
_cell_length_a                   5.1723(5)
_cell_length_b                   7.9587(9)
_cell_length_c                   8.2298(11)
_cell_angle_alpha                118.221(6)
_cell_angle_beta                 91.520(9)
_cell_angle_gamma                100.148(8)
_cell_volume                     291.472
loop_
_atom_site_label
_atom_site_type_symbol
_atom_site_fract_x
_atom_site_fract_y
_atom_site_fract_z
Cu1 Cu 0.5000 0.5000 0.5000
O1 O 0.4639(3) 0.3582(3) 0.6191(2)
C1 C 0.4745(2) 0.4248(3) 0.7975(2)
C2 C 0.6702(2) 0.5825(2) 0.9217(2)
N1 N 0.8462(2) 0.6693(2) 0.8605(3)
N2 N 0.8050(4) 0.6631(3) 0.7001(2)
C3 C 1.0268(4) 0.7687(4) 0.6827(3)
C4 C 1.2079(3) 0.8401(3) 0.8401(4)
C5 C 1.0868(4) 0.7735(4) 0.9513(3)
H1 H 1.1590 0.7966 1.0693
H2 H 1.3803 0.9189 0.8655
H3 H 1.0542 0.7903 0.5799
C6 C 0.3127 0.3464 0.8873
H4 H 0.1744 0.2398 0.8061
C6A C 0.6873 0.6536 1.1127
C1A C 0.5255(2) 0.5752(3) 1.2025(2)
O1A O 0.5361(3) 0.6418(3) 1.3809(2)
C2A C 0.3298(2) 0.4175(2) 1.0783(2)
N1A N 0.1538(2) 0.3307(2) 1.1395(3)
N2A N 0.1950(4) 0.3369(3) 1.2999(2)
C3A C -0.0268(4) 0.2313(4) 1.3173(3)
C4A C -0.2079(3) 0.1599(3) 1.1599(4)
C5A C -0.0868(4) 0.2265(4) 1.0487(3)
H1A H -0.1590 0.2034 0.9307
H2A H -0.3803 0.0811 1.1345
H3A H -0.0542 0.2097 1.4201
H4A H 0.8256 0.7602 1.1939
O1A_2 O 0.5361(3) 0.6418(3) 0.3809(2)
N2A_2 N 0.1950(4) 0.3369(3) 0.2999(2)
Cu1_2 Cu 0.5000 0.5000 1.5000
loop_
_geom_bond_atom_site_label_1
_geom_bond_atom_site_label_2
_geom_bond_site_symmetry_1
_geom_bond_site_symmetry_2
Cu1 O1 1_555 1_555
O1 C1 1_555 1_555
C1 C2 1_555 1_555
C2 N1 1_555 1_555
N1 N2 1_555 1_555
N2 Cu1 1_555 1_555
C3 N2 1_555 1_555
C4 C3 1_555 1_555
C5 N1 1_555 1_555
H1 C5 1_555 1_555
H2 C4 1_555 1_555
H3 C3 1_555 1_555
C6 C1 1_555 1_555
H4 C6 1_555 1_555
C6A C2 1_555 1_555
C1A C6A 1_555 1_555
O1A C1A 1_555 1_555
C2A C6 1_555 1_555
N1A C2A 1_555 1_555
N2A N1A 1_555 1_555
C3A N2A 1_555 1_555
C4A C3A 1_555 1_555
C5A N1A 1_555 1_555
H1A C5A 1_555 1_555
H2A C4A 1_555 1_555
H3A C3A 1_555 1_555
H4A C6A 1_555 1_555
O1A_2 Cu1 1_555 1_555
N2A_2 Cu1 1_555 1_555
Cu1_2 O1A 1_555 1_555
C4 C5 1_555 1_555
C1A C2A 1_555 1_555
N2A Cu1_2 1_555 1_555
C4A C5A 1_555 1_555

#END
