
#######################################################################
#
#                 Cambridge Crystallographic Data Centre
#                                CCDC 
#
#######################################################################
#
# If this CIF has been generated from an entry in the Cambridge 
# Structural Database, then it will include bibliographic, chemical, 
# crystal, experimental, refinement or atomic coordinate data resulting 
# from the CCDC's data processing and validation procedures.
#
#######################################################################

data_BAVWEC
_symmetry_cell_setting           triclinic
_symmetry_space_group_name_H-M   'P -1'
_symmetry_Int_Tables_number      2
_space_group_name_Hall           '-P 1'
loop_
_symmetry_equiv_pos_site_id
_symmetry_equiv_pos_as_xyz
1 x,y,z
2 -x,-y,-z
_cell_length_a                   6.4835(2)
_cell_length_b                   14.2176(5)
_cell_length_c                   14.3398(5)
_cell_angle_alpha                66.044(4)
_cell_angle_beta                 87.183(3)
_cell_angle_gamma                89.303(3)
_cell_volume                     1206.47
loop_
_atom_site_label
_atom_site_type_symbol
_atom_site_fract_x
_atom_site_fract_y
_atom_site_fract_z
Tc1 Tc -0.06978(4) 0.24469(3) 0.26863(2)
O1 O -0.1344(4) 0.11748(19) 0.32840(19)
O2 O -0.2269(3) 0.3077(2) 0.32338(19)
O3 O -0.1400(3) 0.2845(2) 0.14522(19)
N1 N 0.1366(4) 0.3896(2) 0.2082(2)
N2 N 0.2327(4) 0.1913(2) 0.2188(2)
N3 N 0.1394(4) 0.2192(2) 0.4010(2)
C1 C 0.2695(6) 0.3789(3) 0.1249(3)
H1 H 0.1832 0.3870 0.0671
H2 H 0.3750 0.4345 0.1000
C2 C 0.3725(6) 0.2795(3) 0.1590(3)
H3 H 0.4881 0.2798 0.2015
H4 H 0.4317 0.2700 0.0985
C3 C 0.3229(6) 0.1193(3) 0.3155(3)
H5 H 0.2389 0.0552 0.3443
H6 H 0.4641 0.1009 0.2997
C4 C 0.3326(6) 0.1627(3) 0.3935(3)
H7 H 0.4521 0.2104 0.3761
H8 H 0.3547 0.1061 0.4609
C5 C 0.1873(6) 0.3257(3) 0.3927(3)
H9 H 0.0617 0.3539 0.4137
H10 H 0.2951 0.3210 0.4410
C6 C 0.2585(6) 0.3974(3) 0.2895(3)
H11 H 0.4052 0.3834 0.2777
H12 H 0.2500 0.4687 0.2852
C7 C -0.0006(6) 0.4810(3) 0.1655(3)
H13 H -0.0985 0.4801 0.2211
H14 H -0.0830 0.4728 0.1129
C8 C 0.1041(7) 0.5874(3) 0.1175(3)
C9 C 0.1823(5) 0.1334(3) 0.1559(3)
H15 H 0.1091 0.1804 0.0958
H16 H 0.0854 0.0768 0.1969
C10 C 0.3657(5) 0.0874(3) 0.1180(3)
C11 C 0.0168(6) 0.1622(4) 0.4974(3)
H17 H -0.0139 0.0927 0.5013
H18 H -0.1167 0.1978 0.4941
C12 C 0.1169(7) 0.1504(4) 0.5962(3)
O4 O -0.0171(4) 0.6602(2) 0.0984(3)
O5 O 0.2941(4) 0.5939(2) 0.1006(3)
O6 O 0.3188(4) 0.04283(18) 0.06234(18)
O7 O 0.5433(4) 0.0981(2) 0.14263(19)
O8 O -0.0061(4) 0.1278(3) 0.6705(2)
O9 O 0.3036(5) 0.1643(4) 0.5952(2)
O10 O -0.2002(4) -0.0617(2) 0.15378(19)
H19 H -0.140(6) -0.085(3) 0.207(2)
H20 H -0.264(6) -0.013(2) 0.158(3)
O11 O 0.5858(5) -0.2959(3) 0.1430(3)
H21 H 0.700(5) -0.318(4) 0.131(4)
H22 H 0.508(7) -0.333(4) 0.128(4)
O12 O 0.3952(5) -0.1719(3) 0.2834(2)
H23 H 0.284(5) -0.146(4) 0.297(4)
H24 H 0.484(6) -0.162(4) 0.320(3)
O13 O -0.1900(4) 0.1554(2) -0.0318(2)
H25 H -0.258(6) 0.146(3) 0.023(2)
H26 H -0.133(6) 0.2124(19) -0.057(3)
Na1 Na 0.4917(2) -0.12158(11) 0.10631(10)
Na2 Na 0.0000 0.0000 0.0000
Tc1A Tc 0.06978(4) -0.24469(3) -0.26863(2)
O1A O 0.1344(4) -0.11748(19) -0.32840(19)
O2A O 0.2269(3) -0.3077(2) -0.32338(19)
O3A O 0.1400(3) -0.2845(2) -0.14522(19)
N1A N -0.1366(4) -0.3896(2) -0.2082(2)
N2A N -0.2327(4) -0.1913(2) -0.2188(2)
N3A N -0.1394(4) -0.2192(2) -0.4010(2)
C1A C -0.2695(6) -0.3789(3) -0.1249(3)
H1A H -0.1832 -0.3870 -0.0671
H2A H -0.3750 -0.4345 -0.1000
C2A C -0.3725(6) -0.2795(3) -0.1590(3)
H3A H -0.4881 -0.2798 -0.2015
H4A H -0.4317 -0.2700 -0.0985
C3A C -0.3229(6) -0.1193(3) -0.3155(3)
H5A H -0.2389 -0.0552 -0.3443
H6A H -0.4641 -0.1009 -0.2997
C4A C -0.3326(6) -0.1627(3) -0.3935(3)
H7A H -0.4521 -0.2104 -0.3761
H8A H -0.3547 -0.1061 -0.4609
C5A C -0.1873(6) -0.3257(3) -0.3927(3)
H9A H -0.0617 -0.3539 -0.4137
H10A H -0.2951 -0.3210 -0.4410
C6A C -0.2585(6) -0.3974(3) -0.2895(3)
H11A H -0.4052 -0.3834 -0.2777
H12A H -0.2500 -0.4687 -0.2852
C7A C 0.0006(6) -0.4810(3) -0.1655(3)
H13A H 0.0985 -0.4801 -0.2211
H14A H 0.0830 -0.4728 -0.1129
C8A C -0.1041(7) -0.5874(3) -0.1175(3)
C9A C -0.1823(5) -0.1334(3) -0.1559(3)
H15A H -0.1091 -0.1804 -0.0958
H16A H -0.0854 -0.0768 -0.1969
C10A C -0.3657(5) -0.0874(3) -0.1180(3)
C11A C -0.0168(6) -0.1622(4) -0.4974(3)
H17A H 0.0139 -0.0927 -0.5013
H18A H 0.1167 -0.1978 -0.4941
C12A C -0.1169(7) -0.1504(4) -0.5962(3)
O4A O 0.0171(4) -0.6602(2) -0.0984(3)
O5A O -0.2941(4) -0.5939(2) -0.1006(3)
O6A O -0.3188(4) -0.04283(18) -0.06234(18)
O6A_2 O 0.6812(4) -0.04283(18) -0.06234(18)
O6_2 O -0.6812(4) 0.04283(18) 0.06234(18)
O7A O -0.5433(4) -0.0981(2) -0.14263(19)
O8A O 0.0061(4) -0.1278(3) -0.6705(2)
O9A O -0.3036(5) -0.1643(4) -0.5952(2)
O10A O 0.2002(4) 0.0617(2) -0.15378(19)
O10_2 O 0.7998(4) -0.0617(2) 0.15378(19)
O10A_2 O -0.7998(4) 0.0617(2) -0.15378(19)
H19A H 0.140(6) 0.085(3) -0.207(2)
H19_2 H 0.860(6) -0.085(3) 0.207(2)
H19A_2 H -0.860(6) 0.085(3) -0.207(2)
H20A H 0.264(6) 0.013(2) -0.158(3)
H20_2 H 0.736(6) -0.013(2) 0.158(3)
H20A_2 H -0.736(6) 0.013(2) -0.158(3)
O11A O -0.5858(5) 0.2959(3) -0.1430(3)
H21A H -0.700(5) 0.318(4) -0.131(4)
H22A H -0.508(7) 0.333(4) -0.128(4)
O12A O -0.3952(5) 0.1719(3) -0.2834(2)
H23A H -0.284(5) 0.146(4) -0.297(4)
H24A H -0.484(6) 0.162(4) -0.320(3)
O13A O 0.1900(4) -0.1554(2) 0.0318(2)
H25A H 0.258(6) -0.146(3) -0.023(2)
H26A H 0.133(6) -0.2124(19) 0.057(3)
Na1A Na -0.4917(2) 0.12158(11) -0.10631(10)
Na1A_2 Na 0.5083(2) 0.12158(11) -0.10631(10)
Na1_2 Na -0.5083(2) -0.12158(11) 0.10631(10)
loop_
_geom_bond_atom_site_label_1
_geom_bond_atom_site_label_2
_geom_bond_site_symmetry_1
_geom_bond_site_symmetry_2
Tc1 O1 1_555 1_555
O2 Tc1 1_555 1_555
O3 Tc1 1_555 1_555
N1 Tc1 1_555 1_555
N2 Tc1 1_555 1_555
N3 Tc1 1_555 1_555
C1 N1 1_555 1_555
H1 C1 1_555 1_555
H2 C1 1_555 1_555
C2 N2 1_555 1_555
H3 C2 1_555 1_555
H4 C2 1_555 1_555
C3 N2 1_555 1_555
H5 C3 1_555 1_555
H6 C3 1_555 1_555
C4 N3 1_555 1_555
H7 C4 1_555 1_555
H8 C4 1_555 1_555
C5 N3 1_555 1_555
H9 C5 1_555 1_555
H10 C5 1_555 1_555
C6 N1 1_555 1_555
H11 C6 1_555 1_555
H12 C6 1_555 1_555
C7 N1 1_555 1_555
H13 C7 1_555 1_555
H14 C7 1_555 1_555
C8 C7 1_555 1_555
C9 N2 1_555 1_555
H15 C9 1_555 1_555
H16 C9 1_555 1_555
C10 C9 1_555 1_555
C11 N3 1_555 1_555
H17 C11 1_555 1_555
H18 C11 1_555 1_555
C12 C11 1_555 1_555
O4 C8 1_555 1_555
O5 C8 1_555 1_555
O6 C10 1_555 1_555
O7 C10 1_555 1_555
O8 C12 1_555 1_555
O9 C12 1_555 1_555
O10 H19 1_555 1_555
H20 O10 1_555 1_555
O11 H21 1_555 1_555
H22 O11 1_555 1_555
O12 H23 1_555 1_555
H24 O12 1_555 1_555
O13 H25 1_555 1_555
H26 O13 1_555 1_555
Na1 O6 1_555 1_555
Na2 O6 1_555 1_555
Tc1A O1A 1_555 1_555
O2A Tc1A 1_555 1_555
O3A Tc1A 1_555 1_555
N1A Tc1A 1_555 1_555
N2A Tc1A 1_555 1_555
N3A Tc1A 1_555 1_555
C1A N1A 1_555 1_555
H1A C1A 1_555 1_555
H2A C1A 1_555 1_555
C2A N2A 1_555 1_555
H3A C2A 1_555 1_555
H4A C2A 1_555 1_555
C3A N2A 1_555 1_555
H5A C3A 1_555 1_555
H6A C3A 1_555 1_555
C4A N3A 1_555 1_555
H7A C4A 1_555 1_555
H8A C4A 1_555 1_555
C5A N3A 1_555 1_555
H9A C5A 1_555 1_555
H10A C5A 1_555 1_555
C6A N1A 1_555 1_555
H11A C6A 1_555 1_555
H12A C6A 1_555 1_555
C7A N1A 1_555 1_555
H13A C7A 1_555 1_555
H14A C7A 1_555 1_555
C8A C7A 1_555 1_555
C9A N2A 1_555 1_555
H15A C9A 1_555 1_555
H16A C9A 1_555 1_555
C10A C9A 1_555 1_555
C11A N3A 1_555 1_555
H17A C11A 1_555 1_555
H18A C11A 1_555 1_555
C12A C11A 1_555 1_555
O4A C8A 1_555 1_555
O5A C8A 1_555 1_555
O6A Na2 1_555 1_555
O6A_2 Na1 1_555 1_555
O6_2 Na1A 1_555 1_555
O7A C10A 1_555 1_555
O8A C12A 1_555 1_555
O9A C12A 1_555 1_555
O10A Na2 1_555 1_555
O10_2 Na1 1_555 1_555
O10A_2 H19A_2 1_555 1_555
H19A O10A 1_555 1_555
H19_2 O10_2 1_555 1_555
H20A O10A 1_555 1_555
H20_2 O10_2 1_555 1_555
H20A_2 O10A_2 1_555 1_555
O11A H21A 1_555 1_555
H22A O11A 1_555 1_555
O12A H23A 1_555 1_555
H24A O12A 1_555 1_555
O13A Na1 1_555 1_555
H25A O13A 1_555 1_555
H26A O13A 1_555 1_555
Na1A O13 1_555 1_555
Na1A_2 O6 1_555 1_555
Na1_2 O10 1_555 1_555
C1 C2 1_555 1_555
C3 C4 1_555 1_555
C5 C6 1_555 1_555
O10 Na2 1_555 1_555
O11 Na1 1_555 1_555
O12 Na1 1_555 1_555
O13 Na2 1_555 1_555
Na2 O13A 1_555 1_555
C1A C2A 1_555 1_555
C3A C4A 1_555 1_555
C5A C6A 1_555 1_555
C10A O6A 1_555 1_555
O6A Na1A 1_555 1_555
O6A Na1_2 1_555 1_555
O6A_2 Na1A_2 1_555 1_555
O6_2 Na1_2 1_555 1_555
O10A Na1A_2 1_555 1_555
O10A_2 Na1A 1_555 1_555
O11A Na1A 1_555 1_555
O12A Na1A 1_555 1_555

#END
