
#######################################################################
#
#                 Cambridge Crystallographic Data Centre
#                                CCDC 
#
#######################################################################
#
# If this CIF has been generated from an entry in the Cambridge 
# Structural Database, then it will include bibliographic, chemical, 
# crystal, experimental, refinement or atomic coordinate data resulting 
# from the CCDC's data processing and validation procedures.
#
#######################################################################

data_BAVYON
_symmetry_cell_setting           monoclinic
_symmetry_space_group_name_H-M   'P 2/c'
_symmetry_Int_Tables_number      13
_space_group_name_Hall           '-P 2yc'
loop_
_symmetry_equiv_pos_site_id
_symmetry_equiv_pos_as_xyz
1 x,y,z
2 x,-y,1/2+z
3 -x,-y,-z
4 -x,y,1/2-z
_cell_length_a                   8.6504(6)
_cell_length_b                   10.2398(7)
_cell_length_c                   18.3801(13)
_cell_angle_alpha                90
_cell_angle_beta                 99.65
_cell_angle_gamma                90
_cell_volume                     1605.04
loop_
_atom_site_label
_atom_site_type_symbol
_atom_site_fract_x
_atom_site_fract_y
_atom_site_fract_z
Zn1 Zn -0.13011(4) 0.32252(3) -0.173214(17)
C1 C 0.1183(4) 0.1710(4) -0.0563(2)
H1 H 0.151(5) 0.267(4) -0.041(2)
C2 C 0.1927(5) 0.0619(5) -0.0219(2)
H2 H 0.273(6) 0.078(5) 0.015(3)
C3 C 0.1478(5) -0.0583(5) -0.0468(2)
H3 H 0.196(6) -0.131(5) -0.024(3)
C4 C 0.0261(5) -0.0730(4) -0.1077(2)
C5 C -0.0337(6) -0.1956(4) -0.1376(3)
H4 H 0.006(5) -0.274(5) -0.118(3)
C6 C -0.1502(7) -0.2020(4) -0.1963(3)
H5 H -0.190(5) -0.276(5) -0.219(2)
C7 C -0.2188(5) -0.0855(4) -0.2323(2)
C8 C -0.3370(5) -0.0844(5) -0.2946(2)
H6 H -0.379(5) -0.158(5) -0.316(3)
C9 C -0.3947(5) 0.0299(5) -0.3234(2)
H7 H -0.473(5) 0.042(4) -0.364(2)
C10 C -0.3347(4) 0.1470(4) -0.29181(19)
H8 H -0.377(4) 0.224(4) -0.312(2)
C11 C -0.1629(4) 0.0361(3) -0.20346(18)
C12 C -0.0400(4) 0.0420(3) -0.13989(17)
C13 C -0.2947(4) 0.3370(4) -0.06397(18)
C14 C -0.3478(4) 0.3692(3) 0.00783(17)
C15 C -0.4920(4) 0.3227(3) 0.02024(18)
H9 H -0.551(4) 0.270(4) -0.017(2)
C16 C -0.5458(4) 0.3519(4) 0.08507(19)
H10 H -0.637(4) 0.326(3) 0.0891(19)
C17 C -0.4538(4) 0.4240(3) 0.13962(17)
H11 H -0.484(4) 0.445(3) 0.1833(19)
C18 C -0.3074(3) 0.4676(3) 0.12877(15)
C19 C -0.2564(4) 0.4424(3) 0.06203(16)
H12 H -0.159(4) 0.476(3) 0.0547(17)
C20 C -0.2037(4) 0.5448(3) 0.18744(16)
N1 N -0.2199(3) 0.1513(3) -0.23371(14)
N2 N 0.0047(3) 0.1620(3) -0.11461(14)
O1 O -0.3625(3) 0.2518(3) -0.10418(14)
O2 O -0.1780(3) 0.4008(3) -0.07943(13)
O3 O -0.0860(3) 0.5968(3) 0.16974(13)
O4 O -0.2448(3) 0.5543(2) 0.24989(12)
O3B O 0.0860(3) 0.4032(3) -0.16974(13)
O4A O -0.2448(3) 0.4457(2) -0.25011(12)
Zn1B Zn 0.13011(4) 0.67748(3) 0.173214(17)
Zn1A Zn -0.13011(4) 0.67748(3) 0.326786(17)
loop_
_geom_bond_atom_site_label_1
_geom_bond_atom_site_label_2
_geom_bond_site_symmetry_1
_geom_bond_site_symmetry_2
Zn1 N1 1_555 1_555
C1 H1 1_555 1_555
C2 C1 1_555 1_555
H2 C2 1_555 1_555
C3 C2 1_555 1_555
H3 C3 1_555 1_555
C4 C3 1_555 1_555
C5 C4 1_555 1_555
H4 C5 1_555 1_555
C6 C5 1_555 1_555
H5 C6 1_555 1_555
C7 C6 1_555 1_555
C8 C7 1_555 1_555
H6 C8 1_555 1_555
C9 C8 1_555 1_555
H7 C9 1_555 1_555
C10 C9 1_555 1_555
H8 C10 1_555 1_555
C11 C7 1_555 1_555
C12 C4 1_555 1_555
C13 C14 1_555 1_555
C14 C15 1_555 1_555
C15 H9 1_555 1_555
C16 C15 1_555 1_555
H10 C16 1_555 1_555
C17 C16 1_555 1_555
H11 C17 1_555 1_555
C18 C17 1_555 1_555
C19 C14 1_555 1_555
H12 C19 1_555 1_555
C20 C18 1_555 1_555
N1 C10 1_555 1_555
N2 Zn1 1_555 1_555
O1 C13 1_555 1_555
O2 Zn1 1_555 1_555
O3 C20 1_555 1_555
O4 C20 1_555 1_555
O3B Zn1 1_555 1_555
O4A Zn1 1_555 1_555
Zn1B O3 1_555 1_555
Zn1A O4 1_555 1_555
C1 N2 1_555 1_555
C11 N1 1_555 1_555
C11 C12 1_555 1_555
C12 N2 1_555 1_555
C13 O2 1_555 1_555
C18 C19 1_555 1_555

#END
