
#######################################################################
#
#                 Cambridge Crystallographic Data Centre
#                                CCDC 
#
#######################################################################
#
# If this CIF has been generated from an entry in the Cambridge 
# Structural Database, then it will include bibliographic, chemical, 
# crystal, experimental, refinement or atomic coordinate data resulting 
# from the CCDC's data processing and validation procedures.
#
#######################################################################

data_BAWKOB
_symmetry_cell_setting           monoclinic
_symmetry_space_group_name_H-M   'C 2/c'
_symmetry_Int_Tables_number      15
_space_group_name_Hall           '-C 2yn'
loop_
_symmetry_equiv_pos_site_id
_symmetry_equiv_pos_as_xyz
1 x,y,z
2 -x,y,1/2-z
3 1/2+x,1/2+y,z
4 1/2-x,1/2+y,1/2-z
5 -x,-y,-z
6 x,-y,1/2+z
7 1/2-x,1/2-y,-z
8 1/2+x,1/2-y,1/2+z
_cell_length_a                   13.3364(8)
_cell_length_b                   8.2735(8)
_cell_length_c                   14.9996(13)
_cell_angle_alpha                90
_cell_angle_beta                 97.258(5)
_cell_angle_gamma                90
_cell_volume                     1641.78
loop_
_atom_site_label
_atom_site_type_symbol
_atom_site_fract_x
_atom_site_fract_y
_atom_site_fract_z
Cu1 Cu 0.5000 -0.41369(2) -0.2500
Cu2 Cu 0.5000 -0.07229(2) -0.2500
O1 O 0.48035(8) -0.24305(8) -0.16729(7)
H1 H 0.4152(11) -0.2397(15) -0.1473(17)
N1 N 0.46490(8) -0.59996(12) -0.17072(7)
N2 N 0.46598(7) -0.88611(13) -0.17018(7)
C1 C 0.42954(10) -0.59948(15) -0.09054(8)
H2 H 0.4172 -0.5016 -0.0634
C2 C 0.41137(13) -0.74306(12) -0.04809(10)
H3 H 0.3868 -0.7431 0.0072
C3 C 0.43079(10) -0.88684(16) -0.09017(8)
H4 H 0.4193 -0.9847 -0.0627
C4 C 0.48122(9) -0.74293(10) -0.20601(8)
Cu2_2 Cu 0.5000 -1.07229(2) -0.2500
O1A O 0.51965(8) -0.24305(8) -0.33271(7)
H1A H 0.5848(11) -0.2397(15) -0.3527(17)
N1A N 0.53510(8) -0.59996(12) -0.32928(7)
N2A N 0.53402(7) -0.88611(13) -0.32982(7)
N2_2 N 0.46598(7) 0.11389(13) -0.17018(7)
N2A_2 N 0.53402(7) 0.11389(13) -0.32982(7)
C1A C 0.57046(10) -0.59948(15) -0.40946(8)
H2A H 0.5828 -0.5016 -0.4366
C2A C 0.58863(13) -0.74306(12) -0.45191(10)
H3A H 0.6132 -0.7431 -0.5072
C3A C 0.56921(10) -0.88684(16) -0.40983(8)
H4A H 0.5807 -0.9847 -0.4373
C4A C 0.51878(9) -0.74293(10) -0.29399(8)
O2 O 0.31066(10) -0.41914(13) -0.31330(9)
H5 H 0.3068(17) -0.484(2) -0.3641(10)
H6 H 0.2674(10) -0.4640(18) -0.2756(9)
O3 O 0.31088(10) -0.07135(13) -0.30631(8)
H7 H 0.3048(14) -0.1850(12) -0.3154(12)
H8 H 0.3051(17) -0.017(2) -0.3615(9)
Si1 Si 0.2500 -0.2500 0.0000
F1 F 0.29830(10) -0.24701(9) -0.09822(8)
F2 F 0.16078(18) -0.1215(3) -0.04398(11)
F3 F 0.1760(2) -0.4040(4) -0.03852(12)
F1F F 0.20170(10) -0.25299(9) 0.09822(8)
F2F F 0.33922(18) -0.3785(3) 0.04398(11)
F3F F 0.3240(2) -0.0960(4) 0.03852(12)
F4? F 0.1338(6) -0.240(2) -0.0370(9)
F5? F 0.2462(10) -0.4513(8) -0.0042(7)
loop_
_geom_bond_atom_site_label_1
_geom_bond_atom_site_label_2
_geom_bond_site_symmetry_1
_geom_bond_site_symmetry_2
Cu1 O1 1_555 1_555
Cu2 O1 1_555 1_555
O1 H1 1_555 1_555
N1 Cu1 1_555 1_555
N2 C3 1_555 1_555
C1 N1 1_555 1_555
H2 C1 1_555 1_555
C2 C1 1_555 1_555
H3 C2 1_555 1_555
C3 C2 1_555 1_555
H4 C3 1_555 1_555
C4 N1 1_555 1_555
O2 H5 1_555 1_555
H6 O2 1_555 1_555
O3 H7 1_555 1_555
H8 O3 1_555 1_555
Si1 F1 1_555 1_555
F2 Si1 1_555 1_555
F3 Si1 1_555 1_555
Cu2_2 N2 1_555 1_555
O1A Cu1 1_555 1_555
H1A O1A 1_555 1_555
N1A Cu1 1_555 1_555
N2A Cu2_2 1_555 1_555
N2_2 Cu2 1_555 1_555
N2A_2 Cu2 1_555 1_555
C1A N1A 1_555 1_555
H2A C1A 1_555 1_555
C2A C1A 1_555 1_555
H3A C2A 1_555 1_555
C3A N2A 1_555 1_555
H4A C3A 1_555 1_555
C4A C4 1_555 1_555
F1F Si1 1_555 1_555
F2F Si1 1_555 1_555
F3F Si1 1_555 1_555
Cu2 O1A 1_555 1_555
N2 C4 1_555 1_555
N1A C4A 1_555 1_555
N2A C4A 1_555 1_555
C2A C3A 1_555 1_555

#END
