
#######################################################################
#
#                 Cambridge Crystallographic Data Centre
#                                CCDC 
#
#######################################################################
#
# If this CIF has been generated from an entry in the Cambridge 
# Structural Database, then it will include bibliographic, chemical, 
# crystal, experimental, refinement or atomic coordinate data resulting 
# from the CCDC's data processing and validation procedures.
#
#######################################################################

data_BAWSUO
_symmetry_cell_setting           monoclinic
_symmetry_space_group_name_H-M   'C 2/c'
_symmetry_Int_Tables_number      15
_space_group_name_Hall           '-C 2yn'
loop_
_symmetry_equiv_pos_site_id
_symmetry_equiv_pos_as_xyz
1 x,y,z
2 1/2+x,1/2+y,z
3 x,-y,1/2+z
4 1/2+x,1/2-y,1/2+z
5 -x,-y,-z
6 1/2-x,1/2-y,-z
7 -x,y,1/2-z
8 1/2-x,1/2+y,1/2-z
_cell_length_a                   19.661(4)
_cell_length_b                   8.112(2)
_cell_length_c                   10.062(2)
_cell_angle_alpha                90.00
_cell_angle_beta                 98.23(3)
_cell_angle_gamma                90.00
_cell_volume                     1588.26
loop_
_atom_site_label
_atom_site_type_symbol
_atom_site_fract_x
_atom_site_fract_y
_atom_site_fract_z
Mn1 Mn 0.023705(12) 0.18461(3) 0.42863(2)
O1 O -0.06467(7) 0.31300(15) 0.49021(14)
O2 O 0.0000 0.3522(2) 0.2500
O3 O 0.08988(6) 0.35646(15) 0.54586(12)
O4 O 0.09568(6) 0.41940(15) 0.76209(12)
O5 O 0.04361(6) 0.02574(14) 0.61374(12)
O6 O 0.09398(6) -0.05858(15) 0.81554(12)
C1 C 0.14584(8) 0.16500(19) 0.70895(17)
C2 C 0.20031(8) 0.1182(2) 0.61637(17)
C3 C 0.25636(9) 0.1890(2) 0.7244(2)
C4 C 0.20474(9) 0.18115(19) 0.82726(18)
C5 C 0.10822(8) 0.32652(18) 0.66961(18)
C6 C 0.09089(8) 0.03377(19) 0.71628(16)
H1 H -0.0704(13) 0.413(4) 0.471(3)
H2 H -0.0753(13) 0.308(3) 0.563(3)
H3 H 0.0350(13) 0.419(3) 0.251(3)
H4 H 0.1918(11) 0.170(2) 0.528(2)
H5 H 0.2017(11) -0.003(3) 0.605(2)
H6 H 0.2691(14) 0.301(3) 0.704(3)
H7 H 0.2984(15) 0.134(4) 0.746(3)
H8 H 0.2092(12) 0.083(3) 0.878(3)
H9 H 0.2004(12) 0.270(3) 0.885(3)
H3F H -0.0350(13) 0.419(3) 0.249(3)
O3D O -0.08988(6) -0.35646(15) 0.45414(12)
O4D O -0.09568(6) -0.41940(15) 0.23791(12)
O5D O -0.04361(6) -0.02574(14) 0.38626(12)
O6D O -0.09398(6) 0.05858(15) 0.18446(12)
C1D C -0.14584(8) -0.16500(19) 0.29105(17)
C2D C -0.20031(8) -0.1182(2) 0.38363(17)
C3D C -0.25636(9) -0.1890(2) 0.2756(2)
C4D C -0.20474(9) -0.18115(19) 0.17274(18)
C5D C -0.10822(8) -0.32652(18) 0.33039(18)
C6D C -0.09089(8) -0.03377(19) 0.28372(16)
H4D H -0.1918(11) -0.170(2) 0.472(2)
H5D H -0.2017(11) 0.003(3) 0.395(2)
H6D H -0.2691(14) -0.301(3) 0.296(3)
H7D H -0.2984(15) -0.134(4) 0.254(3)
H8D H -0.2092(12) -0.083(3) 0.122(3)
H9D H -0.2004(12) -0.270(3) 0.115(3)
Mn1F Mn -0.023705(12) 0.18461(3) 0.07137(2)
O1F O 0.06467(7) 0.31300(15) 0.00979(14)
H1F H 0.0704(13) 0.413(4) 0.029(3)
H2F H 0.0753(13) 0.308(3) -0.063(3)
O6B O 0.09398(6) 0.05858(15) 0.31554(12)
Mn1D Mn -0.023705(12) -0.18461(3) 0.57137(2)
Mn1B Mn 0.023705(12) -0.18461(3) 0.92863(2)
O3F O -0.08988(6) 0.35646(15) -0.04586(12)
O5B O 0.04361(6) -0.02574(14) 0.11374(12)
O5F O -0.04361(6) 0.02574(14) -0.11374(12)
loop_
_geom_bond_atom_site_label_1
_geom_bond_atom_site_label_2
_geom_bond_site_symmetry_1
_geom_bond_site_symmetry_2
Mn1 O1 1_555 1_555
O1 H1 1_555 1_555
O2 Mn1 1_555 1_555
O3 Mn1 1_555 1_555
O4 C5 1_555 1_555
O5 Mn1 1_555 1_555
O6 C6 1_555 1_555
C1 C2 1_555 1_555
C2 C3 1_555 1_555
C3 C4 1_555 1_555
C4 C1 1_555 1_555
C5 O3 1_555 1_555
C6 O5 1_555 1_555
H2 O1 1_555 1_555
H3 O2 1_555 1_555
H4 C2 1_555 1_555
H5 C2 1_555 1_555
H6 C3 1_555 1_555
H7 C3 1_555 1_555
H8 C4 1_555 1_555
H9 C4 1_555 1_555
H3F O2 1_555 1_555
O3D C5D 1_555 1_555
O4D C5D 1_555 1_555
O5D Mn1 1_555 1_555
O6D C6D 1_555 1_555
C1D C2D 1_555 1_555
C2D C3D 1_555 1_555
C3D C4D 1_555 1_555
C4D C1D 1_555 1_555
C5D C1D 1_555 1_555
C6D O5D 1_555 1_555
H4D C2D 1_555 1_555
H5D C2D 1_555 1_555
H6D C3D 1_555 1_555
H7D C3D 1_555 1_555
H8D C4D 1_555 1_555
H9D C4D 1_555 1_555
Mn1F O2 1_555 1_555
O1F Mn1F 1_555 1_555
H1F O1F 1_555 1_555
H2F O1F 1_555 1_555
O6B Mn1 1_555 1_555
Mn1D O5 1_555 1_555
Mn1B O6 1_555 1_555
O3F Mn1F 1_555 1_555
O5B Mn1F 1_555 1_555
O5F Mn1F 1_555 1_555
C1 C5 1_555 1_555
C1 C6 1_555 1_555
O3D Mn1D 1_555 1_555
O5D Mn1D 1_555 1_555
O6D Mn1F 1_555 1_555
C1D C6D 1_555 1_555

#END
