
#######################################################################
#
#                 Cambridge Crystallographic Data Centre
#                                CCDC 
#
#######################################################################
#
# If this CIF has been generated from an entry in the Cambridge 
# Structural Database, then it will include bibliographic, chemical, 
# crystal, experimental, refinement or atomic coordinate data resulting 
# from the CCDC's data processing and validation procedures.
#
#######################################################################

data_BAWSEZ
_symmetry_cell_setting           monoclinic
_symmetry_space_group_name_H-M   'P 21/c'
_symmetry_Int_Tables_number      14
_space_group_name_Hall           '-P 2ybc'
loop_
_symmetry_equiv_pos_site_id
_symmetry_equiv_pos_as_xyz
1 x,y,z
2 -x,1/2+y,1/2-z
3 -x,-y,-z
4 x,1/2-y,1/2+z
_cell_length_a                   28.5598(19)
_cell_length_b                   14.0774(9)
_cell_length_c                   10.7417(6)
_cell_angle_alpha                90
_cell_angle_beta                 91.123(3)
_cell_angle_gamma                90
_cell_volume                     4317.85
loop_
_atom_site_label
_atom_site_type_symbol
_atom_site_fract_x
_atom_site_fract_y
_atom_site_fract_z
Co1 Co 0.96964(3) 0.40331(6) 0.49322(8)
Co2 Co 0.53063(3) 0.59607(6) 0.50311(8)
Co3 Co 1.47468(3) 0.50661(6) 0.17229(8)
Co4 Co 0.97818(3) 0.50813(6) 0.82358(8)
O1 O 0.92323(17) 0.4017(3) 0.3592(4)
O2 O 1.03855(15) 0.4346(3) 0.5046(4)
O3 O 0.94678(15) 0.4111(3) 0.6708(4)
O4 O 0.57497(16) 0.6008(3) 0.3652(4)
O5 O 0.53724(15) 0.4364(3) 0.5091(4)
O6 O 1.44285(15) 0.4082(3) 0.3205(4)
O7 O 0.54051(16) 0.4945(3) 0.2394(4)
O8 O 1.40076(17) 0.4775(4) 0.1755(5)
O9 O 0.54536(17) 0.3817(3) 0.7032(4)
O10 O 0.95400(16) 0.5020(3) 0.2192(5)
O11 O 0.90370(16) 0.4877(3) 0.8055(4)
O12 O 1.03582(17) 0.3792(3) 0.3113(4)
O13 O 0.74434(19) 0.4882(5) 0.0209(5)
O14 O 1.24181(18) 0.2534(4) 0.4668(6)
O15 O 0.74473(17) 0.2840(4) 0.4782(5)
N1 N 0.9817(2) 0.2604(4) 0.4964(5)
N2 N 0.5173(2) 0.7391(4) 0.5024(5)
N3 N 0.51594(19) 0.8902(4) 0.4429(5)
N4 N 0.49227(18) 0.8836(4) 0.5522(5)
N5 N 0.98426(18) 0.1096(4) 0.4384(5)
N6 N 1.00728(19) 0.1170(4) 0.5522(5)
C1 C 0.9208(2) 0.4552(5) 0.2625(6)
C2 C 0.8739(2) 0.4628(5) 0.1992(6)
C3 C 0.8346(2) 0.4230(5) 0.2538(7)
H1 H 0.8379 0.3899 0.3283
C4 C 0.7907(3) 0.4323(5) 0.1982(7)
H2 H 0.7643 0.4071 0.2356
C5 C 0.7868(3) 0.4800(6) 0.0855(7)
C6 C 0.8250(3) 0.5178(6) 0.0277(6)
H3 H 0.8216 0.5489 -0.0484
C7 C 0.8693(2) 0.5088(6) 0.0850(7)
H4 H 0.8956 0.5335 0.0467
C8 C 0.7041(3) 0.5001(6) 0.0897(6)
C9 C 0.7027(3) 0.5617(6) 0.1908(7)
H5 H 0.7298 0.5925 0.2185
C10 C 0.6611(2) 0.5768(5) 0.2495(7)
H6 H 0.6600 0.6185 0.3165
C11 C 0.6200(2) 0.5298(5) 0.2094(6)
C12 C 0.6227(2) 0.4679(6) 0.1084(6)
H7 H 0.5960 0.4359 0.0807
C13 C 0.6643(3) 0.4533(6) 0.0491(7)
H8 H 0.6656 0.4119 -0.0182
C14 C 0.5750(2) 0.5425(5) 0.2762(7)
C15 C 1.0574(2) 0.3925(5) 0.4101(6)
C16 C 1.1063(2) 0.3564(5) 0.4253(7)
C17 C 1.1337(3) 0.3834(6) 0.5260(7)
H9 H 1.1215 0.4227 0.5869
C18 C 1.1797(3) 0.3518(6) 0.5361(8)
H10 H 1.1987 0.3712 0.6027
C19 C 1.1970(2) 0.2917(6) 0.4475(7)
C20 C 1.1695(3) 0.2610(7) 0.3495(9)
H11 H 1.1809 0.2171 0.2929
C21 C 1.1245(3) 0.2961(6) 0.3363(8)
H12 H 1.1063 0.2792 0.2671
C22 C 1.2796(3) 0.2983(6) 0.4135(7)
C23 C 1.2753(3) 0.3668(6) 0.3205(8)
H13 H 1.2460 0.3850 0.2898
C24 C 1.3152(3) 0.4069(6) 0.2750(7)
H14 H 1.3127 0.4534 0.2136
C25 C 1.3597(2) 0.3796(5) 0.3188(6)
C26 C 1.3628(2) 0.3074(5) 0.4068(6)
H15 H 1.3921 0.2857 0.4333
C27 C 1.3229(2) 0.2673(5) 0.4557(7)
H16 H 1.3252 0.2201 0.5161
C28 C 1.4025(2) 0.4252(5) 0.2682(6)
C29 C 0.9065(2) 0.4326(5) 0.7153(6)
C30 C 0.8634(2) 0.3905(5) 0.6560(6)
C31 C 0.8214(3) 0.4397(6) 0.6648(7)
H17 H 0.8204 0.4955 0.7110
C32 C 0.7811(3) 0.4067(6) 0.6058(8)
H18 H 0.7534 0.4416 0.6086
C33 C 0.7824(2) 0.3206(5) 0.5423(7)
C34 C 0.8240(2) 0.2695(5) 0.5349(7)
H19 H 0.8248 0.2116 0.4932
C35 C 0.8643(2) 0.3064(5) 0.5908(7)
H20 H 0.8925 0.2737 0.5840
C36 C 0.6994(2) 0.3113(5) 0.5099(7)
C37 C 0.6856(3) 0.3083(6) 0.6322(7)
H21 H 0.7065 0.2888 0.6947
C38 C 0.6402(3) 0.3349(5) 0.6606(7)
H22 H 0.6308 0.3345 0.7430
C39 C 0.6087(2) 0.3621(5) 0.5667(6)
C40 C 0.6241(3) 0.3633(5) 0.4438(7)
H23 H 0.6035 0.3817 0.3802
C41 C 0.6693(3) 0.3375(5) 0.4148(7)
H24 H 0.6791 0.3380 0.3327
C42 C 0.5605(2) 0.3946(4) 0.5976(6)
C43 C 0.9695(2) 0.1962(5) 0.4096(6)
H25 H 0.9526 0.2108 0.3372
C44 C 1.0049(2) 0.2075(5) 0.5834(6)
H26 H 1.0177 0.2323 0.6567
C45 C 0.5301(2) 0.8030(5) 0.4173(6)
H27 H 0.5472 0.7877 0.3473
C46 C 0.4937(2) 0.7929(5) 0.5841(6)
H28 H 0.4799 0.7688 0.6552
Co1B Co 1.03036(3) 0.59669(6) 0.50678(8)
Co2B Co 0.46937(3) 0.40393(6) 0.49689(8)
Co2B_2 Co 1.46937(3) 0.40393(6) 0.49689(8)
Co3_2 Co 0.47468(3) 0.50661(6) 0.17229(8)
Co3B Co 0.52532(3) 0.49339(6) 0.82771(8)
Co3A Co 0.52532(3) 1.00661(6) 0.32771(8)
Co3C Co 0.47468(3) 0.99339(6) 0.67229(8)
Co4B Co 1.02182(3) 0.49187(6) 0.17642(8)
Co4C Co 0.97818(3) -0.00813(6) 0.32358(8)
Co4A Co 1.02182(3) 0.00813(6) 0.67642(8)
O2B O 0.96145(15) 0.5654(3) 0.4954(4)
O5B O 0.46276(15) 0.5636(3) 0.4909(4)
O6B O 0.55715(15) 0.5918(3) 0.6795(4)
O7_2 O 1.54051(16) 0.4945(3) 0.2394(4)
O9B O 1.45464(17) 0.6183(3) 0.2968(4)
O10B O 1.04600(16) 0.4980(3) 0.7808(5)
O12B O 0.96418(17) 0.6208(3) 0.6887(4)
N3A N 1.48406(19) 0.3902(4) 0.0571(5)
N4C N 1.49227(18) 0.6164(4) 0.0522(5)
N5C N 0.98426(18) 0.3904(4) 0.9384(5)
N6A N 0.99272(19) 0.6170(4) 0.9478(5)
loop_
_geom_bond_atom_site_label_1
_geom_bond_atom_site_label_2
_geom_bond_site_symmetry_1
_geom_bond_site_symmetry_2
Co1 O1 1_555 1_555
Co2 O4 1_555 1_555
Co3 O6 1_555 1_555
Co4 O3 1_555 1_555
O1 C1 1_555 1_555
O2 Co1 1_555 1_555
O3 Co1 1_555 1_555
O4 C14 1_555 1_555
O5 Co2 1_555 1_555
O6 C28 1_555 1_555
O7 C14 1_555 1_555
O8 Co3 1_555 1_555
O9 C42 1_555 1_555
O10 C1 1_555 1_555
O11 Co4 1_555 1_555
O12 C15 1_555 1_555
O13 C5 1_555 1_555
O14 C19 1_555 1_555
O15 C33 1_555 1_555
N1 Co1 1_555 1_555
N2 Co2 1_555 1_555
N3 N4 1_555 1_555
N4 C46 1_555 1_555
N5 N6 1_555 1_555
N6 C44 1_555 1_555
C1 C2 1_555 1_555
C2 C3 1_555 1_555
C3 H1 1_555 1_555
C4 C3 1_555 1_555
H2 C4 1_555 1_555
C5 C4 1_555 1_555
C6 C5 1_555 1_555
H3 C6 1_555 1_555
C7 C2 1_555 1_555
H4 C7 1_555 1_555
C8 O13 1_555 1_555
C9 C8 1_555 1_555
H5 C9 1_555 1_555
C10 C9 1_555 1_555
H6 C10 1_555 1_555
C11 C10 1_555 1_555
C12 C11 1_555 1_555
H7 C12 1_555 1_555
C13 C8 1_555 1_555
H8 C13 1_555 1_555
C14 C11 1_555 1_555
C15 O2 1_555 1_555
C16 C15 1_555 1_555
C17 C16 1_555 1_555
H9 C17 1_555 1_555
C18 C17 1_555 1_555
H10 C18 1_555 1_555
C19 C18 1_555 1_555
C20 C19 1_555 1_555
H11 C20 1_555 1_555
C21 C16 1_555 1_555
H12 C21 1_555 1_555
C22 O14 1_555 1_555
C23 C22 1_555 1_555
H13 C23 1_555 1_555
C24 C23 1_555 1_555
H14 C24 1_555 1_555
C25 C24 1_555 1_555
C26 C25 1_555 1_555
H15 C26 1_555 1_555
C27 C22 1_555 1_555
H16 C27 1_555 1_555
C28 O8 1_555 1_555
C29 O3 1_555 1_555
C30 C29 1_555 1_555
C31 C30 1_555 1_555
H17 C31 1_555 1_555
C32 C31 1_555 1_555
H18 C32 1_555 1_555
C33 C32 1_555 1_555
C34 C33 1_555 1_555
H19 C34 1_555 1_555
C35 C30 1_555 1_555
H20 C35 1_555 1_555
C36 O15 1_555 1_555
C37 C36 1_555 1_555
H21 C37 1_555 1_555
C38 C37 1_555 1_555
H22 C38 1_555 1_555
C39 C38 1_555 1_555
C40 C39 1_555 1_555
H23 C40 1_555 1_555
C41 C36 1_555 1_555
H24 C41 1_555 1_555
C42 O5 1_555 1_555
C43 N1 1_555 1_555
H25 C43 1_555 1_555
C44 N1 1_555 1_555
H26 C44 1_555 1_555
C45 N2 1_555 1_555
H27 C45 1_555 1_555
C46 N2 1_555 1_555
H28 C46 1_555 1_555
Co1B O2 1_555 1_555
Co2B O5 1_555 1_555
Co2B_2 O6 1_555 1_555
Co3_2 O7 1_555 1_555
Co3B O9 1_555 1_555
Co3A N3 1_555 1_555
Co3C N4 1_555 1_555
Co4B O10 1_555 1_555
Co4C N5 1_555 1_555
Co4A N6 1_555 1_555
O2B Co1 1_555 1_555
O5B Co2 1_555 1_555
O6B Co2 1_555 1_555
O7_2 Co3 1_555 1_555
O9B Co3 1_555 1_555
O10B Co4 1_555 1_555
O12B Co4 1_555 1_555
N3A Co3 1_555 1_555
N4C Co3 1_555 1_555
N5C Co4 1_555 1_555
N6A Co4 1_555 1_555
O11 C29 1_555 1_555
O12 Co4B 1_555 1_555
N3 C45 1_555 1_555
N5 C43 1_555 1_555
C6 C7 1_555 1_555
C12 C13 1_555 1_555
C20 C21 1_555 1_555
C25 C28 1_555 1_555
C26 C27 1_555 1_555
C34 C35 1_555 1_555
C39 C42 1_555 1_555
C40 C41 1_555 1_555
Co1B O2B 1_555 1_555
Co2B O5B 1_555 1_555
Co3B O6B 1_555 1_555

#END
