
#######################################################################
#
#                 Cambridge Crystallographic Data Centre
#                                CCDC 
#
#######################################################################
#
# If this CIF has been generated from an entry in the Cambridge 
# Structural Database, then it will include bibliographic, chemical, 
# crystal, experimental, refinement or atomic coordinate data resulting 
# from the CCDC's data processing and validation procedures.
#
#######################################################################

data_BAXFEN
_symmetry_cell_setting           orthorhombic
_symmetry_space_group_name_H-M   'C 2 2 21'
_symmetry_Int_Tables_number      20
_space_group_name_Hall           'C 2n 2'
loop_
_symmetry_equiv_pos_site_id
_symmetry_equiv_pos_as_xyz
1 x,y,z
2 x,-y,-z
3 -x,y,1/2-z
4 -x,-y,1/2+z
5 1/2+x,1/2+y,z
6 1/2+x,1/2-y,-z
7 1/2-x,1/2+y,1/2-z
8 1/2-x,1/2-y,1/2+z
_cell_length_a                   7.3160(5)
_cell_length_b                   26.4953(19)
_cell_length_c                   24.2927(17)
_cell_angle_alpha                90
_cell_angle_beta                 90
_cell_angle_gamma                90
_cell_volume                     4708.89
loop_
_atom_site_label
_atom_site_type_symbol
_atom_site_fract_x
_atom_site_fract_y
_atom_site_fract_z
C1 C 0.1697(12) 0.1731(3) 0.3315(3)
C2 C 0.1934(12) 0.2154(3) 0.3713(3)
C3 C 0.3488(11) 0.2178(3) 0.4048(4)
H1 H 0.4385 0.1930 0.4018
C4 C 0.3698(13) 0.2567(3) 0.4421(4)
H2 H 0.4699 0.2568 0.4657
C5 C 0.2436(9) 0.2955(3) 0.4448(4)
C6 C 0.0862(13) 0.2940(4) 0.4112(4)
H3 H -0.0002 0.3197 0.4125
C7 C 0.0641(12) 0.2536(3) 0.3767(4)
H4 H -0.0423 0.2517 0.3559
C8 C 0.3853(13) 0.3378(3) 0.5205(4)
H5 H 0.3912 0.3057 0.5404
C9 C 0.3383(13) 0.3810(3) 0.5584(3)
H6 H 0.2069 0.3845 0.5620
H7 H 0.3908 0.3757 0.5946
C10 C 0.5885(14) 0.4099(4) 0.5161(4)
H8 H 0.6796 0.4149 0.5451
C11 C 0.5755(12) 0.3537(3) 0.4983(3)
H9 H 0.6718 0.3339 0.5162
C12 C 0.5673(14) 0.4021(3) 0.4190(3)
H10 H 0.4382 0.4079 0.4123
H11 H 0.6336 0.4071 0.3848
C13 C 0.6392(12) 0.4378(3) 0.4640(3)
H12 H 0.5835 0.4713 0.4620
C14 C 0.9211(15) 0.4694(4) 0.4258(4)
C15 C 0.8408(10) 0.4985(4) 0.3850(3)
H13 H 0.7142 0.4994 0.3818
C16 C 0.9496(9) 0.5268(3) 0.3484(3)
H14 H 0.8952 0.5465 0.3213
C17 C 1.1361(10) 0.5249(3) 0.3530(3)
C18 C 1.2164(11) 0.4965(4) 0.3950(4)
H15 H 1.3426 0.4965 0.3996
C19 C 1.1084(16) 0.4687(5) 0.4293(5)
H16 H 1.1633 0.4486 0.4560
C20 C 1.2608(9) 0.5532(3) 0.3152(3)
Cd1 Cd 0.5000 0.14417(2) 0.2500
Cd2 Cd 0.0000 0.10321(2) 0.2500
O1 O 0.3018(9) 0.1450(2) 0.3213(3)
O2 O 0.0133(11) 0.1677(2) 0.3107(2)
O3 O 0.2523(7) 0.3365(2) 0.4782(3)
O4 O 0.4151(10) 0.4245(2) 0.5329(3)
O5 O 0.5975(9) 0.3524(2) 0.4402(2)
O6 O 0.8360(8) 0.4397(3) 0.4629(3)
O7 O 1.1919(7) 0.5847(2) 0.2811(2)
O8 O 1.4310(8) 0.5447(2) 0.3176(3)
O9 O 0.3276(9) 0.2040(3) 0.2073(4)
C1B C 0.8303(12) 0.1731(3) 0.1685(3)
C2B C 0.8066(12) 0.2154(3) 0.1287(3)
C3B C 0.6512(11) 0.2178(3) 0.0952(4)
H1B H 0.5615 0.1930 0.0982
C4B C 0.6302(13) 0.2567(3) 0.0579(4)
H2B H 0.5301 0.2568 0.0343
C5B C 0.7564(9) 0.2955(3) 0.0552(4)
C6B C 0.9138(13) 0.2940(4) 0.0888(4)
H3B H 1.0002 0.3197 0.0875
C7B C 0.9359(12) 0.2536(3) 0.1233(4)
H4B H 1.0423 0.2517 0.1441
C8B C 0.6147(13) 0.3378(3) -0.0205(4)
H5B H 0.6088 0.3057 -0.0404
C9B C 0.6617(13) 0.3810(3) -0.0584(3)
H6B H 0.7931 0.3845 -0.0620
H7B H 0.6092 0.3757 -0.0946
C10B C 0.4115(14) 0.4099(4) -0.0161(4)
H8B H 0.3204 0.4149 -0.0451
C11B C 0.4245(12) 0.3537(3) 0.0017(3)
H9B H 0.3282 0.3339 -0.0162
C12B C 0.4327(14) 0.4021(3) 0.0810(3)
H10B H 0.5618 0.4079 0.0877
H11B H 0.3664 0.4071 0.1152
C13B C 0.3608(12) 0.4378(3) 0.0360(3)
H12B H 0.4165 0.4713 0.0380
C14B C 0.0789(15) 0.4694(4) 0.0742(4)
C15B C 0.1592(10) 0.4985(4) 0.1150(3)
H13B H 0.2858 0.4994 0.1182
C16B C 0.0504(9) 0.5268(3) 0.1516(3)
H14B H 0.1048 0.5465 0.1787
C17B C -0.1361(10) 0.5249(3) 0.1470(3)
C18B C -0.2164(11) 0.4965(4) 0.1050(4)
H15B H -0.3426 0.4965 0.1004
C19B C -0.1084(16) 0.4687(5) 0.0707(5)
H16B H -0.1633 0.4486 0.0440
C20B C -0.2608(9) 0.5532(3) 0.1848(3)
Cd1D Cd 1.0000 0.64417(2) 0.2500
Cd1D_2 Cd 0.0000 0.64417(2) 0.2500
Cd2D Cd 1.5000 0.60321(2) 0.2500
Cd2_2 Cd 1.0000 0.10321(2) 0.2500
Cd2D_2 Cd -0.5000 0.60321(2) 0.2500
O1B O 0.6982(9) 0.1450(2) 0.1787(3)
O2B O 0.9867(11) 0.1677(2) 0.1893(2)
O2B_2 O -0.0133(11) 0.1677(2) 0.1893(2)
O3B O 0.7477(7) 0.3365(2) 0.0218(3)
O4B O 0.5849(10) 0.4245(2) -0.0329(3)
O5B O 0.4025(9) 0.3524(2) 0.0598(2)
O6B O 0.1640(8) 0.4397(3) 0.0371(3)
O7B O -0.1919(7) 0.5847(2) 0.2189(2)
O7D O 0.6919(7) 0.0847(2) 0.2811(2)
O7F O 0.3081(7) 0.0847(2) 0.2189(2)
O7D_2 O -0.3081(7) 0.0847(2) 0.2811(2)
O8B O -0.4310(8) 0.5447(2) 0.1824(3)
O8D O -0.0690(8) 0.0447(2) 0.3176(3)
O8F O 0.0690(8) 0.0447(2) 0.1824(3)
O9B O 0.6724(9) 0.2040(3) 0.2927(4)
O10 O 0.3874(16) 0.2972(3) 0.1670(4)
O11 O 0.136(9) 0.4097(11) 0.2295(15)
O12 O 0.737(8) 0.3551(17) 0.226(3)
loop_
_geom_bond_atom_site_label_1
_geom_bond_atom_site_label_2
_geom_bond_site_symmetry_1
_geom_bond_site_symmetry_2
C1 C2 1_555 1_555
C2 C3 1_555 1_555
C3 H1 1_555 1_555
C4 C3 1_555 1_555
H2 C4 1_555 1_555
C5 C4 1_555 1_555
C6 C5 1_555 1_555
H3 C6 1_555 1_555
C7 C2 1_555 1_555
H4 C7 1_555 1_555
C8 H5 1_555 1_555
C9 C8 1_555 1_555
H6 C9 1_555 1_555
H7 C9 1_555 1_555
C10 H8 1_555 1_555
C11 C8 1_555 1_555
H9 C11 1_555 1_555
C12 H10 1_555 1_555
H11 C12 1_555 1_555
C13 C10 1_555 1_555
H12 C13 1_555 1_555
C14 C15 1_555 1_555
C15 H13 1_555 1_555
C16 C15 1_555 1_555
H14 C16 1_555 1_555
C17 C16 1_555 1_555
C18 C17 1_555 1_555
H15 C18 1_555 1_555
C19 C14 1_555 1_555
H16 C19 1_555 1_555
C20 C17 1_555 1_555
Cd1 O1 1_555 1_555
Cd2 O2 1_555 1_555
O1 C1 1_555 1_555
O2 C1 1_555 1_555
O3 C5 1_555 1_555
O4 C9 1_555 1_555
O5 C11 1_555 1_555
O6 C13 1_555 1_555
O7 C20 1_555 1_555
O8 C20 1_555 1_555
O9 Cd1 1_555 1_555
C1B C2B 1_555 1_555
C2B C3B 1_555 1_555
C3B H1B 1_555 1_555
C4B C3B 1_555 1_555
H2B C4B 1_555 1_555
C5B C4B 1_555 1_555
C6B C5B 1_555 1_555
H3B C6B 1_555 1_555
C7B C2B 1_555 1_555
H4B C7B 1_555 1_555
C8B H5B 1_555 1_555
C9B C8B 1_555 1_555
H6B C9B 1_555 1_555
H7B C9B 1_555 1_555
C10B H8B 1_555 1_555
C11B C8B 1_555 1_555
H9B C11B 1_555 1_555
C12B H10B 1_555 1_555
H11B C12B 1_555 1_555
C13B C10B 1_555 1_555
H12B C13B 1_555 1_555
C14B C15B 1_555 1_555
C15B H13B 1_555 1_555
C16B C15B 1_555 1_555
H14B C16B 1_555 1_555
C17B C16B 1_555 1_555
C18B C17B 1_555 1_555
H15B C18B 1_555 1_555
C19B C14B 1_555 1_555
H16B C19B 1_555 1_555
C20B C17B 1_555 1_555
Cd1D O7 1_555 1_555
Cd1D_2 O7B 1_555 1_555
Cd2D O7 1_555 1_555
Cd2_2 O2B 1_555 1_555
Cd2D_2 O7B 1_555 1_555
O1B Cd1 1_555 1_555
O2B C1B 1_555 1_555
O2B_2 Cd2 1_555 1_555
O3B C5B 1_555 1_555
O4B C9B 1_555 1_555
O5B C11B 1_555 1_555
O6B C13B 1_555 1_555
O7B C20B 1_555 1_555
O7D Cd1 1_555 1_555
O7F Cd1 1_555 1_555
O7D_2 Cd2 1_555 1_555
O8B C20B 1_555 1_555
O8D Cd2 1_555 1_555
O8F Cd2 1_555 1_555
O9B Cd1 1_555 1_555
C6 C7 1_555 1_555
C8 O3 1_555 1_555
C10 C11 1_555 1_555
C10 O4 1_555 1_555
C12 C13 1_555 1_555
C12 O5 1_555 1_555
C14 O6 1_555 1_555
C18 C19 1_555 1_555
Cd2 O7F 1_555 1_555
O8 Cd2D 1_555 1_555
C1B O1B 1_555 1_555
C6B C7B 1_555 1_555
C8B O3B 1_555 1_555
C10B C11B 1_555 1_555
C10B O4B 1_555 1_555
C12B C13B 1_555 1_555
C12B O5B 1_555 1_555
C14B O6B 1_555 1_555
C18B C19B 1_555 1_555
Cd2_2 O7D 1_555 1_555
Cd2D_2 O8B 1_555 1_555

#END
