
#######################################################################
#
#                 Cambridge Crystallographic Data Centre
#                                CCDC 
#
#######################################################################
#
# If this CIF has been generated from an entry in the Cambridge 
# Structural Database, then it will include bibliographic, chemical, 
# crystal, experimental, refinement or atomic coordinate data resulting 
# from the CCDC's data processing and validation procedures.
#
#######################################################################

data_BAXHUF
_symmetry_cell_setting           monoclinic
_symmetry_space_group_name_H-M   'C 2/c'
_symmetry_Int_Tables_number      15
_space_group_name_Hall           '-C 2yn'
loop_
_symmetry_equiv_pos_site_id
_symmetry_equiv_pos_as_xyz
1 x,y,z
2 -x,y,1/2-z
3 1/2+x,1/2+y,z
4 1/2-x,1/2+y,1/2-z
5 -x,-y,-z
6 x,-y,1/2+z
7 1/2-x,1/2-y,-z
8 1/2+x,1/2-y,1/2+z
_cell_length_a                   22.1698(7)
_cell_length_b                   11.4936(4)
_cell_length_c                   20.6786(7)
_cell_angle_alpha                90
_cell_angle_beta                 111.053(2)
_cell_angle_gamma                90
_cell_volume                     4917.41
loop_
_atom_site_label
_atom_site_type_symbol
_atom_site_fract_x
_atom_site_fract_y
_atom_site_fract_z
Pr1 Pr 0.401037(6) 0.459553(12) 0.695792(7)
F1 F 0.42288(10) 0.07429(16) 0.80442(11)
F2 F 0.42200(9) -0.15523(16) 0.80277(11)
F3 F 0.50105(10) 0.68453(17) 0.58186(8)
F4 F 0.45905(9) 0.71201(16) 0.44403(8)
O1 O 0.44600(9) 0.26345(16) 0.72646(10)
O2 O 0.44586(9) -0.34398(16) 0.72335(11)
O3 O 0.50536(9) 0.46199(16) 0.67931(9)
O4 O 0.60526(10) 0.4657(2) 0.68284(10)
O5 O 0.30633(9) 0.58430(19) 0.67019(11)
O6 O 0.30920(9) 0.33268(19) 0.68436(12)
O8 O 0.37826(13) 0.3472(2) 0.58312(11)
O9 O 0.35425(13) 0.4207(3) 0.48060(11)
O10 O 0.36934(12) 0.5305(2) 0.56990(12)
N1 N 0.22357(12) 0.7001(2) 0.60781(12)
N2 N 0.25243(11) 0.1683(2) 0.68171(12)
N4 N 0.36652(12) 0.4329(3) 0.54283(13)
C1 C 0.5000 0.2155(3) 0.7500
C2 C 0.5000 0.0837(3) 0.7500
C3 C 0.46087(14) 0.0185(2) 0.77574(16)
C4 C 0.46071(13) -0.1006(2) 0.77544(15)
C5 C 0.5000 -0.1650(3) 0.7500
C6 C 0.5000 -0.2969(3) 0.7500
C7 C 0.54652(13) 0.4704(2) 0.65041(13)
C8 C 0.52193(13) 0.4860(3) 0.57249(13)
C9 C 0.50041(13) 0.5919(3) 0.54159(14)
C10 C 0.47941(13) 0.6058(3) 0.47159(13)
C11 C 0.28458(15) 0.6670(3) 0.63049(16)
H1 H 0.3131 0.7087 0.6156
C12 C 0.17642(16) 0.6407(4) 0.62933(19)
H2 H 0.1943 0.5686 0.6514
H3 H 0.1384 0.6253 0.5895
H4 H 0.1653 0.6888 0.6614
C13 C 0.19933(17) 0.7949(3) 0.5586(2)
H5 H 0.2350 0.8352 0.5529
H6 H 0.1751 0.8480 0.5757
H7 H 0.1718 0.7641 0.5148
C14 C 0.30367(14) 0.2250(3) 0.68225(16)
H8 H 0.3386 0.1815 0.6810
C15 C 0.24990(18) 0.0419(3) 0.6811(2)
H9 H 0.2905 0.0112 0.6821
H10 H 0.2160 0.0159 0.6398
H11 H 0.2415 0.0150 0.7210
C16 C 0.19558(16) 0.2308(3) 0.68182(19)
H12 H 0.1776 0.1919 0.7118
H13 H 0.1641 0.2331 0.6356
H14 H 0.2075 0.3087 0.6981
Pr1A Pr 0.598963(6) 0.459553(12) 0.804208(7)
Pr1_2 Pr 0.401037(6) -0.540447(12) 0.695792(7)
Pr1A_2 Pr 0.598963(6) -0.540447(12) 0.804208(7)
Pr1D Pr 0.598963(6) 0.540447(12) 0.304208(7)
Pr1E Pr 0.401037(6) 0.540447(12) 0.195792(7)
F1A F 0.57712(10) 0.07429(16) 0.69558(11)
F2A F 0.57800(9) -0.15523(16) 0.69723(11)
F3D F 0.49895(10) 0.31547(17) 0.41814(8)
F4D F 0.54095(9) 0.28799(16) 0.55597(8)
O1A O 0.55400(9) 0.26345(16) 0.77354(10)
O2A O 0.55414(9) -0.34398(16) 0.77665(11)
O2_2 O 0.44586(9) 0.65602(16) 0.72335(11)
O2A_2 O 0.55414(9) 0.65602(16) 0.77665(11)
O3D O 0.49464(9) 0.53801(16) 0.32069(9)
O3A O 0.49464(9) 0.46199(16) 0.82069(9)
O4D O 0.39474(10) 0.5343(2) 0.31716(10)
O4A O 0.39474(10) 0.4657(2) 0.81716(10)
O5A O 0.69367(9) 0.58430(19) 0.82981(11)
O6A O 0.69080(9) 0.33268(19) 0.81564(12)
O8A O 0.62174(13) 0.3472(2) 0.91688(11)
O9A O 0.64575(13) 0.4207(3) 1.01940(11)
O10A O 0.63066(12) 0.5305(2) 0.93010(12)
N1A N 0.77643(12) 0.7001(2) 0.89219(12)
N2A N 0.74757(11) 0.1683(2) 0.81829(12)
N4A N 0.63348(12) 0.4329(3) 0.95717(13)
C3A C 0.53913(14) 0.0185(2) 0.72426(16)
C4A C 0.53929(13) -0.1006(2) 0.72456(15)
C7D C 0.45348(13) 0.5296(2) 0.34959(13)
C8D C 0.47807(13) 0.5140(3) 0.42751(13)
C9D C 0.49959(13) 0.4081(3) 0.45841(14)
C10D C 0.52059(13) 0.3942(3) 0.52841(13)
C11A C 0.71542(15) 0.6670(3) 0.86951(16)
H1A H 0.6869 0.7087 0.8844
C12A C 0.82358(16) 0.6407(4) 0.87067(19)
H2A H 0.8057 0.5686 0.8486
H3A H 0.8616 0.6253 0.9105
H4A H 0.8347 0.6888 0.8386
C13A C 0.80067(17) 0.7949(3) 0.9414(2)
H5A H 0.7650 0.8352 0.9471
H6A H 0.8249 0.8480 0.9243
H7A H 0.8282 0.7641 0.9852
C14A C 0.69633(14) 0.2250(3) 0.81775(16)
H8A H 0.6614 0.1815 0.8190
C15A C 0.75010(18) 0.0419(3) 0.8189(2)
H9A H 0.7095 0.0112 0.8179
H10A H 0.7840 0.0159 0.8602
H11A H 0.7585 0.0150 0.7790
C16A C 0.80442(16) 0.2308(3) 0.81818(19)
H12A H 0.8224 0.1919 0.7882
H13A H 0.8359 0.2331 0.8644
H14A H 0.7925 0.3087 0.8019
O7 O 0.3478(2) -0.0827(4) 0.5943(2)
N3 N 0.37008(19) 0.0501(3) 0.5267(2)
C17 C 0.3846(3) -0.0344(5) 0.5721(3)
H15 H 0.4274 -0.0596 0.5888
C18 C 0.4187(3) 0.1051(6) 0.5058(3)
H16 H 0.4598 0.0689 0.5294
H17 H 0.4212 0.1862 0.5175
H18 H 0.4073 0.0967 0.4567
C19 C 0.3053(2) 0.0933(5) 0.4989(3)
H19 H 0.2783 0.0489 0.5172
H20 H 0.2892 0.0866 0.4494
H21 H 0.3047 0.1736 0.5116
loop_
_geom_bond_atom_site_label_1
_geom_bond_atom_site_label_2
_geom_bond_site_symmetry_1
_geom_bond_site_symmetry_2
Pr1 O1 1_555 1_555
F1 C3 1_555 1_555
F2 C4 1_555 1_555
F3 C9 1_555 1_555
F4 C10 1_555 1_555
O1 C1 1_555 1_555
O2 C6 1_555 1_555
O3 Pr1 1_555 1_555
O4 C7 1_555 1_555
O5 Pr1 1_555 1_555
O6 Pr1 1_555 1_555
O7 C17 1_555 1_555
O8 Pr1 1_555 1_555
O9 N4 1_555 1_555
O10 Pr1 1_555 1_555
N1 C11 1_555 1_555
N2 C14 1_555 1_555
N3 C17 1_555 1_555
N4 O8 1_555 1_555
C1 C2 1_555 1_555
C2 C3 1_555 1_555
C3 C4 1_555 1_555
C4 C5 1_555 1_555
C5 C6 1_555 1_555
C6 O2A 1_555 1_555
C7 O3 1_555 1_555
C8 C7 1_555 1_555
C9 C8 1_555 1_555
C10 C9 1_555 1_555
C11 O5 1_555 1_555
H1 C11 1_555 1_555
C12 N1 1_555 1_555
H2 C12 1_555 1_555
H3 C12 1_555 1_555
H4 C12 1_555 1_555
C13 N1 1_555 1_555
H5 C13 1_555 1_555
H6 C13 1_555 1_555
H7 C13 1_555 1_555
C14 O6 1_555 1_555
H8 C14 1_555 1_555
C15 N2 1_555 1_555
H9 C15 1_555 1_555
H10 C15 1_555 1_555
H11 C15 1_555 1_555
C16 N2 1_555 1_555
H12 C16 1_555 1_555
H13 C16 1_555 1_555
H14 C16 1_555 1_555
C17 H15 1_555 1_555
C18 N3 1_555 1_555
H16 C18 1_555 1_555
H17 C18 1_555 1_555
H18 C18 1_555 1_555
C19 N3 1_555 1_555
H19 C19 1_555 1_555
H20 C19 1_555 1_555
H21 C19 1_555 1_555
Pr1A O3 1_555 1_555
Pr1_2 O2 1_555 1_555
Pr1A_2 O2A 1_555 1_555
Pr1D O3D 1_555 1_555
Pr1E O3D 1_555 1_555
F1A C3A 1_555 1_555
F2A C4A 1_555 1_555
F3D C9D 1_555 1_555
F4D C10D 1_555 1_555
O1A C1 1_555 1_555
O2_2 Pr1 1_555 1_555
O2A_2 Pr1A 1_555 1_555
O3D C7D 1_555 1_555
O3A Pr1 1_555 1_555
O4D Pr1E 1_555 1_555
O4A Pr1 1_555 1_555
O5A Pr1A 1_555 1_555
O6A Pr1A 1_555 1_555
O8A Pr1A 1_555 1_555
O9A N4A 1_555 1_555
O10A Pr1A 1_555 1_555
N1A C11A 1_555 1_555
N2A C14A 1_555 1_555
N4A O8A 1_555 1_555
C3A C2 1_555 1_555
C4A C5 1_555 1_555
C7D O4D 1_555 1_555
C8D C10 1_555 1_555
C9D C8D 1_555 1_555
C10D C8 1_555 1_555
C11A O5A 1_555 1_555
H1A C11A 1_555 1_555
C12A N1A 1_555 1_555
H2A C12A 1_555 1_555
H3A C12A 1_555 1_555
H4A C12A 1_555 1_555
C13A N1A 1_555 1_555
H5A C13A 1_555 1_555
H6A C13A 1_555 1_555
H7A C13A 1_555 1_555
C14A O6A 1_555 1_555
H8A C14A 1_555 1_555
C15A N2A 1_555 1_555
H9A C15A 1_555 1_555
H10A C15A 1_555 1_555
H11A C15A 1_555 1_555
C16A N2A 1_555 1_555
H12A C16A 1_555 1_555
H13A C16A 1_555 1_555
H14A C16A 1_555 1_555
O4 Pr1A 1_555 1_555
O10 N4 1_555 1_555
Pr1A O1A 1_555 1_555
Pr1A O3A 1_555 1_555
O10A N4A 1_555 1_555
C3A C4A 1_555 1_555
C7D C8D 1_555 1_555
C9D C10D 1_555 1_555

#END
