
#######################################################################
#
#                 Cambridge Crystallographic Data Centre
#                                CCDC 
#
#######################################################################
#
# If this CIF has been generated from an entry in the Cambridge 
# Structural Database, then it will include bibliographic, chemical, 
# crystal, experimental, refinement or atomic coordinate data resulting 
# from the CCDC's data processing and validation procedures.
#
#######################################################################

data_BAXQAU
_symmetry_cell_setting           monoclinic
_symmetry_space_group_name_H-M   'C 2/c'
_symmetry_Int_Tables_number      15
_space_group_name_Hall           '-C 2yn'
loop_
_symmetry_equiv_pos_site_id
_symmetry_equiv_pos_as_xyz
1 x,y,z
2 -x,y,1/2-z
3 1/2+x,1/2+y,z
4 1/2-x,1/2+y,1/2-z
5 -x,-y,-z
6 x,-y,1/2+z
7 1/2-x,1/2-y,-z
8 1/2+x,1/2-y,1/2+z
_cell_length_a                   22.3558(15)
_cell_length_b                   16.8627(11)
_cell_length_c                   16.4080(11)
_cell_angle_alpha                90
_cell_angle_beta                 92.8000(10)
_cell_angle_gamma                90
_cell_volume                     6178.09
loop_
_atom_site_label
_atom_site_type_symbol
_atom_site_fract_x
_atom_site_fract_y
_atom_site_fract_z
Rh1 Rh 0.726015(9) 0.723025(12) 0.439875(13)
O1 O 0.65084(9) 0.78314(12) 0.46720(12)
O2 O 0.69630(9) 0.83510(12) 0.58185(12)
O3 O 0.75614(9) 0.81884(12) 0.37755(12)
O4 O 0.80225(9) 0.86925(11) 0.49194(12)
O5 O 0.41526(11) 1.00324(17) 0.66498(16)
O6 O 0.38276(10) 0.94969(15) 0.54572(16)
O7 O 0.82133(9) 1.16568(12) 0.17078(12)
O8 O 0.86234(10) 1.21646(12) 0.28686(13)
C1 C 0.65124(13) 0.82453(17) 0.53241(18)
C2 C 0.59363(14) 0.86345(18) 0.55107(18)
C3 C 0.54399(15) 0.8549(2) 0.4966(2)
H1 H 0.5479 0.8260 0.4474
C4 C 0.48986(16) 0.8876(2) 0.5132(2)
H2 H 0.4565 0.8811 0.4757
C5 C 0.48360(15) 0.9303(2) 0.5850(2)
C6 C 0.53327(15) 0.9399(2) 0.6392(2)
H3 H 0.5294 0.9695 0.6880
C7 C 0.58767(14) 0.90717(19) 0.62285(19)
H4 H 0.6211 0.9141 0.6601
C8 C 0.42465(15) 0.9662(2) 0.6049(2)
C9 C 0.32282(15) 0.9818(2) 0.5541(2)
H5 H 0.3031 0.9555 0.5997
H6 H 0.3247 1.0395 0.5649
C10 C 0.28891(15) 0.9654(2) 0.4745(2)
H7 H 0.2840 0.9081 0.4674
H8 H 0.2494 0.9907 0.4747
H9 H 0.3112 0.9869 0.4295
C11 C 0.78698(12) 0.87105(17) 0.41680(17)
C12 C 0.80393(13) 0.94380(17) 0.36982(17)
C13 C 0.83992(14) 1.00158(18) 0.40764(18)
H10 H 0.8565 0.9929 0.4613
C14 C 0.85184(14) 1.07205(18) 0.36726(18)
H11 H 0.8760 1.1118 0.3934
C15 C 0.82795(13) 1.08374(17) 0.28802(18)
C16 C 0.79341(14) 1.02472(19) 0.24895(19)
H12 H 0.7782 1.0323 0.1944
C17 C 0.78133(14) 0.95486(18) 0.28984(18)
H13 H 0.7577 0.9147 0.2634
C18 C 0.83677(13) 1.15890(17) 0.24227(18)
C19 C 0.86959(17) 1.29277(18) 0.2457(2)
H14 H 0.8960 1.2866 0.1994
H15 H 0.8302 1.3127 0.2243
C20 C 0.8969(2) 1.3499(2) 0.3073(2)
H16 H 0.9368 1.3311 0.3256
H17 H 0.9003 1.4024 0.2823
H18 H 0.8715 1.3534 0.3541
Rh1F Rh 0.773985(9) 0.776975(12) 0.560125(13)
Rh1C Rh 0.773985(9) 1.223025(12) 0.060125(13)
O2F O 0.80370(9) 0.66490(12) 0.41815(12)
O4F O 0.69775(9) 0.63075(11) 0.50806(12)
O7C O 0.67867(9) 0.66568(12) 0.32922(12)
C21 C 0.55627(17) 0.3725(2) 0.9260(2)
H19 H 0.5947 0.3421 0.9292
Cl1 Cl 0.52993(7) 0.37658(11) 1.02373(9)
Cl2 Cl 0.50574(6) 0.32068(8) 0.85985(9)
Cl3 Cl 0.57173(18) 0.4696(2) 0.88268(19)
Cl4? Cl 0.5577(5) 0.4658(6) 0.9072(5)
loop_
_geom_bond_atom_site_label_1
_geom_bond_atom_site_label_2
_geom_bond_site_symmetry_1
_geom_bond_site_symmetry_2
Rh1 O1 1_555 1_555
O1 C1 1_555 1_555
O2 C1 1_555 1_555
O3 Rh1 1_555 1_555
O4 C11 1_555 1_555
O5 C8 1_555 1_555
O6 C8 1_555 1_555
O7 C18 1_555 1_555
O8 C18 1_555 1_555
C1 C2 1_555 1_555
C2 C3 1_555 1_555
C3 H1 1_555 1_555
C4 C3 1_555 1_555
H2 C4 1_555 1_555
C5 C4 1_555 1_555
C6 C5 1_555 1_555
H3 C6 1_555 1_555
C7 C2 1_555 1_555
H4 C7 1_555 1_555
C8 C5 1_555 1_555
C9 O6 1_555 1_555
H5 C9 1_555 1_555
H6 C9 1_555 1_555
C10 C9 1_555 1_555
H7 C10 1_555 1_555
H8 C10 1_555 1_555
H9 C10 1_555 1_555
C11 O3 1_555 1_555
C12 C11 1_555 1_555
C13 C12 1_555 1_555
H10 C13 1_555 1_555
C14 C13 1_555 1_555
H11 C14 1_555 1_555
C15 C14 1_555 1_555
C16 C15 1_555 1_555
H12 C16 1_555 1_555
C17 C12 1_555 1_555
H13 C17 1_555 1_555
C18 C15 1_555 1_555
C19 O8 1_555 1_555
H14 C19 1_555 1_555
H15 C19 1_555 1_555
C20 C19 1_555 1_555
H16 C20 1_555 1_555
H17 C20 1_555 1_555
H18 C20 1_555 1_555
C21 H19 1_555 1_555
Cl1 C21 1_555 1_555
Cl2 C21 1_555 1_555
Cl3 C21 1_555 1_555
Rh1F Rh1 1_555 1_555
Rh1C O7 1_555 1_555
O2F Rh1 1_555 1_555
O4F Rh1 1_555 1_555
O7C Rh1 1_555 1_555
O2 Rh1F 1_555 1_555
O4 Rh1F 1_555 1_555
C6 C7 1_555 1_555
C16 C17 1_555 1_555

#END
