
#######################################################################
#
#                 Cambridge Crystallographic Data Centre
#                                CCDC 
#
#######################################################################
#
# If this CIF has been generated from an entry in the Cambridge 
# Structural Database, then it will include bibliographic, chemical, 
# crystal, experimental, refinement or atomic coordinate data resulting 
# from the CCDC's data processing and validation procedures.
#
#######################################################################

data_BAXTEA
_symmetry_cell_setting           monoclinic
_symmetry_space_group_name_H-M   'P 21/c'
_symmetry_Int_Tables_number      14
_space_group_name_Hall           '-P 2ybc'
loop_
_symmetry_equiv_pos_site_id
_symmetry_equiv_pos_as_xyz
1 x,y,z
2 x,1/2-y,1/2+z
3 -x,-y,-z
4 -x,1/2+y,1/2-z
_cell_length_a                   5.8411(12)
_cell_length_b                   21.685(4)
_cell_length_c                   13.265(3)
_cell_angle_alpha                90
_cell_angle_beta                 99.20(3)
_cell_angle_gamma                90
_cell_volume                     1658.59
loop_
_atom_site_label
_atom_site_type_symbol
_atom_site_fract_x
_atom_site_fract_y
_atom_site_fract_z
Fe1 Fe 0.5000 0.5000 0.0000
O1 O 0.3394(4) 0.57109(10) -0.09373(17)
N1 N 0.5224(5) 0.65809(12) -0.34404(19)
F1 F -0.1929(4) 0.74676(10) -0.16281(18)
C1 C 0.2816(5) 0.65077(14) -0.2136(2)
C2 C 0.5815(5) 0.57388(15) -0.2237(2)
C3 C 0.3466(6) 0.68270(15) -0.2975(2)
C4 C 0.0570(6) 0.76273(14) -0.2867(2)
C5 C -0.0087(6) 0.72807(15) -0.2050(3)
C6 C 0.3985(6) 0.59573(14) -0.1723(2)
N2 N -0.0681(5) 0.81441(12) -0.3253(2)
C7 C 0.6279(6) 0.60607(15) -0.3072(3)
H1 H 0.7426 0.5904 -0.3411
C8 C 0.2370(6) 0.73818(15) -0.3301(2)
H2 H 0.2874 0.7595 -0.3832
C9 C 0.1008(6) 0.67575(15) -0.1696(2)
H3 H 0.0543 0.6557 -0.1142
C10 C -0.0081(8) 0.83932(18) -0.4198(3)
H4 H 0.0103 0.8059 -0.4664
H5 H 0.1378 0.8614 -0.4053
C11 C 0.5858(6) 0.68553(18) -0.4380(3)
H6 H 0.7360 0.6697 -0.4478
H7 H 0.6001 0.7298 -0.4291
C12 C -0.1116(7) 0.86484(16) -0.2560(3)
H8 H 0.0301 0.8881 -0.2355
H9 H -0.1593 0.8477 -0.1951
C13 C -0.2983(7) 0.90713(16) -0.3086(3)
H10 H -0.4429 0.8844 -0.3227
H11 H -0.3201 0.9406 -0.2626
C14 C -0.1967(8) 0.88247(19) -0.4689(3)
H12 H -0.1515 0.8994 -0.5305
H13 H -0.3376 0.8588 -0.4889
N3 N -0.2469(5) 0.93311(12) -0.4043(2)
H14 H -0.2464 0.9716 -0.4195
C15 C 0.7303(6) 0.51850(15) -0.1915(3)
O2 O 0.7229(4) 0.49416(10) -0.10602(18)
O3 O 0.8603(6) 0.50021(12) -0.2512(2)
C16 C 0.4142(9) 0.6724(3) -0.5310(3)
H15 H 0.4637 0.6915 -0.5891
H16 H 0.2655 0.6885 -0.5223
H17 H 0.4026 0.6286 -0.5416
O1B O 0.6606(4) 0.42891(10) 0.09373(17)
N1B N 0.4776(5) 0.34191(12) 0.34404(19)
F1B F 1.1929(4) 0.25324(10) 0.16281(18)
C1B C 0.7184(5) 0.34923(14) 0.2136(2)
C2B C 0.4185(5) 0.42612(15) 0.2237(2)
C3B C 0.6534(6) 0.31730(15) 0.2975(2)
C4B C 0.9430(6) 0.23727(14) 0.2867(2)
C5B C 1.0087(6) 0.27193(15) 0.2050(3)
C6B C 0.6015(6) 0.40427(14) 0.1723(2)
N2B N 1.0681(5) 0.18559(12) 0.3253(2)
C7B C 0.3721(6) 0.39393(15) 0.3072(3)
H1B H 0.2574 0.4096 0.3411
C8B C 0.7630(6) 0.26182(15) 0.3301(2)
H2B H 0.7126 0.2405 0.3832
C9B C 0.8992(6) 0.32425(15) 0.1696(2)
H3B H 0.9457 0.3443 0.1142
C10B C 1.0081(8) 0.16068(18) 0.4198(3)
H4B H 0.9897 0.1941 0.4664
H5B H 0.8622 0.1386 0.4053
C11B C 0.4142(6) 0.31447(18) 0.4380(3)
H6B H 0.2640 0.3303 0.4478
H7B H 0.3999 0.2702 0.4291
C12B C 1.1116(7) 0.13516(16) 0.2560(3)
H8B H 0.9699 0.1119 0.2355
H9B H 1.1593 0.1523 0.1951
C13B C 1.2983(7) 0.09287(16) 0.3086(3)
H10B H 1.4429 0.1156 0.3227
H11B H 1.3201 0.0594 0.2626
C14B C 1.1967(8) 0.11753(19) 0.4689(3)
H12B H 1.1515 0.1006 0.5305
H13B H 1.3376 0.1412 0.4889
N3B N 1.2469(5) 0.06689(12) 0.4043(2)
H14B H 1.2464 0.0284 0.4195
C15B C 0.2697(6) 0.48150(15) 0.1915(3)
O2B O 0.2771(4) 0.50584(10) 0.10602(18)
O3B O 0.1397(6) 0.49979(12) 0.2512(2)
C16B C 0.5858(9) 0.3276(3) 0.5310(3)
H15B H 0.5363 0.3085 0.5891
H16B H 0.7345 0.3115 0.5223
H17B H 0.5974 0.3714 0.5416
N3A N 0.7531(5) 0.56689(12) 0.0957(2)
N3C N 0.2469(5) 0.43311(12) -0.0957(2)
Fe1A Fe -0.5000 1.0000 -0.5000
Fe1A_2 Fe 1.5000 0.0000 0.5000
H14A H 0.7536 0.5284 0.0805
H14C H 0.2464 0.4716 -0.0805
O4 O 1.1006(15) 0.5300(6) -0.4133(7)
O5 O 1.376(4) 0.5153(5) -0.5460(8)
loop_
_geom_bond_atom_site_label_1
_geom_bond_atom_site_label_2
_geom_bond_site_symmetry_1
_geom_bond_site_symmetry_2
Fe1 O1 1_555 1_555
O1 C6 1_555 1_555
N1 C3 1_555 1_555
F1 C5 1_555 1_555
C1 C3 1_555 1_555
C2 C6 1_555 1_555
C3 C8 1_555 1_555
C4 C5 1_555 1_555
C5 C9 1_555 1_555
C6 C1 1_555 1_555
N2 C4 1_555 1_555
C7 N1 1_555 1_555
H1 C7 1_555 1_555
C8 C4 1_555 1_555
H2 C8 1_555 1_555
C9 C1 1_555 1_555
H3 C9 1_555 1_555
C10 N2 1_555 1_555
H4 C10 1_555 1_555
H5 C10 1_555 1_555
C11 N1 1_555 1_555
H6 C11 1_555 1_555
H7 C11 1_555 1_555
C12 N2 1_555 1_555
H8 C12 1_555 1_555
H9 C12 1_555 1_555
C13 C12 1_555 1_555
H10 C13 1_555 1_555
H11 C13 1_555 1_555
C14 C10 1_555 1_555
H12 C14 1_555 1_555
H13 C14 1_555 1_555
N3 C13 1_555 1_555
H14 N3 1_555 1_555
C15 C2 1_555 1_555
O2 Fe1 1_555 1_555
O3 C15 1_555 1_555
C16 C11 1_555 1_555
H15 C16 1_555 1_555
H16 C16 1_555 1_555
H17 C16 1_555 1_555
O1B Fe1 1_555 1_555
N1B C3B 1_555 1_555
F1B C5B 1_555 1_555
C1B C3B 1_555 1_555
C2B C6B 1_555 1_555
C3B C8B 1_555 1_555
C4B C5B 1_555 1_555
C5B C9B 1_555 1_555
C6B O1B 1_555 1_555
N2B C4B 1_555 1_555
C7B N1B 1_555 1_555
H1B C7B 1_555 1_555
C8B C4B 1_555 1_555
H2B C8B 1_555 1_555
C9B C1B 1_555 1_555
H3B C9B 1_555 1_555
C10B N2B 1_555 1_555
H4B C10B 1_555 1_555
H5B C10B 1_555 1_555
C11B N1B 1_555 1_555
H6B C11B 1_555 1_555
H7B C11B 1_555 1_555
C12B N2B 1_555 1_555
H8B C12B 1_555 1_555
H9B C12B 1_555 1_555
C13B C12B 1_555 1_555
H10B C13B 1_555 1_555
H11B C13B 1_555 1_555
C14B C10B 1_555 1_555
H12B C14B 1_555 1_555
H13B C14B 1_555 1_555
N3B C13B 1_555 1_555
H14B N3B 1_555 1_555
C15B C2B 1_555 1_555
O2B Fe1 1_555 1_555
O3B C15B 1_555 1_555
C16B C11B 1_555 1_555
H15B C16B 1_555 1_555
H16B C16B 1_555 1_555
H17B C16B 1_555 1_555
N3A Fe1 1_555 1_555
N3C Fe1 1_555 1_555
Fe1A N3 1_555 1_555
Fe1A_2 N3B 1_555 1_555
H14A N3A 1_555 1_555
H14C N3C 1_555 1_555
C2 C7 1_555 1_555
C14 N3 1_555 1_555
C15 O2 1_555 1_555
C1B C6B 1_555 1_555
C2B C7B 1_555 1_555
C14B N3B 1_555 1_555
C15B O2B 1_555 1_555

#END
