
#######################################################################
#
#                 Cambridge Crystallographic Data Centre
#                                CCDC 
#
#######################################################################
#
# If this CIF has been generated from an entry in the Cambridge 
# Structural Database, then it will include bibliographic, chemical, 
# crystal, experimental, refinement or atomic coordinate data resulting 
# from the CCDC's data processing and validation procedures.
#
#######################################################################

data_BAXXAA
_symmetry_cell_setting           triclinic
_symmetry_space_group_name_H-M   'P -1'
_symmetry_Int_Tables_number      2
_space_group_name_Hall           '-P 1'
loop_
_symmetry_equiv_pos_site_id
_symmetry_equiv_pos_as_xyz
1 x,y,z
2 -x,-y,-z
_cell_length_a                   8.2620(11)
_cell_length_b                   10.4409(12)
_cell_length_c                   11.0840(10)
_cell_angle_alpha                111.332(8)
_cell_angle_beta                 91.394(10)
_cell_angle_gamma                91.638(10)
_cell_volume                     889.646
loop_
_atom_site_label
_atom_site_type_symbol
_atom_site_fract_x
_atom_site_fract_y
_atom_site_fract_z
Co1 Co 0.5000 1.0000 0.5000
Co2 Co 0.73353(5) 0.76176(4) 0.50440(3)
N1 N 0.8992(3) 0.8480(3) 0.6518(2)
N2 N 0.7813(3) 0.5918(3) 0.5451(2)
O1 O 0.5148(3) 1.0340(2) 0.68543(19)
O2 O 0.5348(3) 0.8105(2) 0.65228(18)
O3 O 0.6135(3) 0.6519(2) 0.34485(18)
O4 O 0.8040(3) 0.7185(2) 0.2389(2)
O5 O 0.7144(3) 0.9339(2) 0.4782(2)
H1 H 0.756(6) 0.895(4) 0.384(4)
C1 C 0.9580(4) 0.9762(3) 0.7006(3)
H2 H 0.9282 1.0371 0.6610
C2 C 1.0639(4) 1.0239(3) 0.8102(3)
H3 H 1.1042 1.1145 0.8414
C3 C 1.1072(4) 0.9364(3) 0.8707(3)
H4 H 1.1756 0.9676 0.9444
C4 C 1.0477(4) 0.7982(3) 0.8208(3)
C5 C 1.0854(4) 0.6973(4) 0.8751(3)
H5 H 1.1515 0.7224 0.9499
C6 C 1.0273(4) 0.5664(4) 0.8200(3)
H6 H 1.0540 0.5030 0.8576
C7 C 0.9251(4) 0.5227(3) 0.7048(3)
C8 C 0.8647(4) 0.3873(3) 0.6398(3)
H7 H 0.8926 0.3179 0.6694
C9 C 0.7643(4) 0.3583(3) 0.5324(3)
H8 H 0.7232 0.2689 0.4891
C10 C 0.7233(4) 0.4619(3) 0.4875(3)
H9 H 0.6535 0.4403 0.4151
C11 C 0.9441(4) 0.7595(3) 0.7104(3)
C12 C 0.8818(4) 0.6209(3) 0.6523(3)
C13 C 0.4980(4) 1.1032(3) 0.9495(3)
H10 H 0.4968 1.1729 0.9160
C14 C 0.5143(3) 0.9684(3) 0.8677(2)
C15 C 0.5168(4) 0.8652(3) 0.9180(3)
H11 H 0.5283 0.7745 0.8633
C16 C 0.5228(4) 0.9336(3) 0.7234(3)
C17 C 0.6482(4) 0.5656(3) -0.0003(3)
H12 H 0.7478 0.6089 -0.0015
C18 C 0.5847(4) 0.5734(3) 0.1172(3)
C19 C 0.4369(4) 0.5067(3) 0.1157(3)
H13 H 0.3939 0.5104 0.1936
C20 C 0.6756(4) 0.6545(3) 0.2418(3)
C15A C 0.4832(4) 1.1348(3) 1.0820(3)
C14A C 0.4857(3) 1.0316(3) 1.1323(2)
C13A C 0.5020(4) 0.8968(3) 1.0505(3)
H10A H 0.5032 0.8271 1.0840
C16A C 0.4772(4) 1.0664(3) 1.2766(3)
O1A O 0.4852(3) 0.9660(2) 1.31457(19)
O2A O 0.4652(3) 1.1895(2) 1.34772(18)
H11A H 0.4717 1.2255 1.1367
C19A C 0.5631(4) 0.4933(3) -0.1157(3)
C18A C 0.4153(4) 0.4266(3) -0.1172(3)
C17A C 0.3518(4) 0.4344(3) 0.0003(3)
H12A H 0.2522 0.3911 0.0015
C20A C 0.3244(4) 0.3455(3) -0.2418(3)
O3A O 0.3865(3) 0.3481(2) -0.34485(18)
O4A O 0.1960(3) 0.2815(2) -0.2389(2)
H13A H 0.6061 0.4896 -0.1936
O5A O 0.2856(3) 1.0661(2) 0.5218(2)
H1A H 0.244(6) 1.105(4) 0.616(4)
Co2A Co 0.26647(5) 1.23824(4) 1.49560(3)
N1A N 0.1008(3) 1.1520(3) 1.3482(2)
N2A N 0.2187(3) 1.4082(3) 1.4549(2)
C1A C 0.0420(4) 1.0238(3) 1.2994(3)
H2A H 0.0718 0.9629 1.3390
C2A C -0.0639(4) 0.9761(3) 1.1898(3)
H3A H -0.1042 0.8855 1.1586
C3A C -0.1072(4) 1.0636(3) 1.1293(3)
H4A H -0.1756 1.0324 1.0556
C4A C -0.0477(4) 1.2018(3) 1.1792(3)
C5A C -0.0854(4) 1.3027(4) 1.1249(3)
H5A H -0.1515 1.2776 1.0501
C6A C -0.0273(4) 1.4336(4) 1.1800(3)
H6A H -0.0540 1.4970 1.1424
C7A C 0.0749(4) 1.4773(3) 1.2952(3)
C8A C 0.1353(4) 1.6127(3) 1.3602(3)
H7A H 0.1074 1.6821 1.3306
C9A C 0.2357(4) 1.6417(3) 1.4676(3)
H8A H 0.2768 1.7311 1.5109
C10A C 0.2767(4) 1.5381(3) 1.5125(3)
H9A H 0.3465 1.5597 1.5849
C11A C 0.0559(4) 1.2405(3) 1.2896(3)
C12A C 0.1182(4) 1.3791(3) 1.3477(3)
O1A_2 O 0.4852(3) 0.9660(2) 0.31457(19)
Co1_2 Co 0.5000 1.0000 1.5000
Co2A_2 Co 0.26647(5) 0.23824(4) -0.50440(3)
Co2A_3 Co 0.26647(5) 1.23824(4) 0.49560(3)
O3A_2 O 0.3865(3) 1.3481(2) 1.65515(18)
O5A_2 O 0.2856(3) 1.0661(2) 1.5218(2)
H1A_2 H 0.244(6) 1.105(4) 1.616(4)
loop_
_geom_bond_atom_site_label_1
_geom_bond_atom_site_label_2
_geom_bond_site_symmetry_1
_geom_bond_site_symmetry_2
Co1 O1 1_555 1_555
Co2 N1 1_555 1_555
N1 C1 1_555 1_555
N2 Co2 1_555 1_555
O1 C16 1_555 1_555
O2 Co2 1_555 1_555
O3 Co2 1_555 1_555
O4 C20 1_555 1_555
O5 Co1 1_555 1_555
H1 O5 1_555 1_555
C1 H2 1_555 1_555
C2 C1 1_555 1_555
H3 C2 1_555 1_555
C3 C2 1_555 1_555
H4 C3 1_555 1_555
C4 C3 1_555 1_555
C5 C4 1_555 1_555
H5 C5 1_555 1_555
C6 C5 1_555 1_555
H6 C6 1_555 1_555
C7 C6 1_555 1_555
C8 C7 1_555 1_555
H7 C8 1_555 1_555
C9 C8 1_555 1_555
H8 C9 1_555 1_555
C10 N2 1_555 1_555
H9 C10 1_555 1_555
C11 N1 1_555 1_555
C12 N2 1_555 1_555
C13 H10 1_555 1_555
C14 C13 1_555 1_555
C15 C14 1_555 1_555
H11 C15 1_555 1_555
C16 O2 1_555 1_555
C17 H12 1_555 1_555
C18 C17 1_555 1_555
C19 C18 1_555 1_555
H13 C19 1_555 1_555
C20 O3 1_555 1_555
C15A C13 1_555 1_555
C14A C15A 1_555 1_555
C13A C15 1_555 1_555
H10A C13A 1_555 1_555
C16A C14A 1_555 1_555
O1A C16A 1_555 1_555
O2A C16A 1_555 1_555
H11A C15A 1_555 1_555
C19A C17 1_555 1_555
C18A C19A 1_555 1_555
C17A C19 1_555 1_555
H12A C17A 1_555 1_555
C20A C18A 1_555 1_555
O3A C20A 1_555 1_555
O4A C20A 1_555 1_555
H13A C19A 1_555 1_555
O5A Co1 1_555 1_555
H1A O5A 1_555 1_555
Co2A O2A 1_555 1_555
N1A Co2A 1_555 1_555
N2A Co2A 1_555 1_555
C1A N1A 1_555 1_555
H2A C1A 1_555 1_555
C2A C1A 1_555 1_555
H3A C2A 1_555 1_555
C3A C2A 1_555 1_555
H4A C3A 1_555 1_555
C4A C3A 1_555 1_555
C5A C4A 1_555 1_555
H5A C5A 1_555 1_555
C6A C5A 1_555 1_555
H6A C6A 1_555 1_555
C7A C6A 1_555 1_555
C8A C7A 1_555 1_555
H7A C8A 1_555 1_555
C9A C8A 1_555 1_555
H8A C9A 1_555 1_555
C10A N2A 1_555 1_555
H9A C10A 1_555 1_555
C11A N1A 1_555 1_555
C12A N2A 1_555 1_555
O1A_2 Co1 1_555 1_555
Co1_2 O1A 1_555 1_555
Co2A_2 O3A 1_555 1_555
Co2A_3 O5A 1_555 1_555
O3A_2 Co2A 1_555 1_555
O5A_2 Co2A 1_555 1_555
H1A_2 O5A_2 1_555 1_555
Co2 O5 1_555 1_555
C4 C11 1_555 1_555
C7 C12 1_555 1_555
C9 C10 1_555 1_555
C11 C12 1_555 1_555
C14 C16 1_555 1_555
C18 C20 1_555 1_555
C14A C13A 1_555 1_555
C18A C17A 1_555 1_555
C4A C11A 1_555 1_555
C7A C12A 1_555 1_555
C9A C10A 1_555 1_555
C11A C12A 1_555 1_555
Co1_2 O5A_2 1_555 1_555

#END
