
#######################################################################
#
#                 Cambridge Crystallographic Data Centre
#                                CCDC 
#
#######################################################################
#
# If this CIF has been generated from an entry in the Cambridge 
# Structural Database, then it will include bibliographic, chemical, 
# crystal, experimental, refinement or atomic coordinate data resulting 
# from the CCDC's data processing and validation procedures.
#
#######################################################################

data_BAYPOH
_symmetry_cell_setting           hexagonal
_symmetry_space_group_name_H-M   'P -6 2 c'
_symmetry_Int_Tables_number      190
_space_group_name_Hall           "P -6c -2'c"
loop_
_symmetry_equiv_pos_site_id
_symmetry_equiv_pos_as_xyz
1 x,y,z
2 -x+y,-x,1/2-z
3 y,x,1/2+z
4 -y,x-y,z
5 x-y,-y,-z
6 x,y,1/2-z
7 -x,-x+y,1/2+z
8 -x+y,-x,z
9 y,x,-z
10 -y,x-y,1/2-z
11 x-y,-y,1/2+z
12 -x,-x+y,-z
_cell_length_a                   9.5488(2)
_cell_length_b                   9.5488(2)
_cell_length_c                   12.1150(3)
_cell_angle_alpha                90
_cell_angle_beta                 90
_cell_angle_gamma                120
_cell_volume                     956.647
loop_
_atom_site_label
_atom_site_type_symbol
_atom_site_fract_x
_atom_site_fract_y
_atom_site_fract_z
Hg1 Hg 0.33235 0.00000 0.00000
N1 N 0.34724 0.07176 0.15918
C1 C 0.32166 -0.02176 0.25000
C2 C 0.38863 0.22308 0.19387
H1 H 0.29031 -0.13641 0.25000
H2 H 0.41400 0.31584 0.14632
N1E N 0.34724 0.07176 0.34082
C2E C 0.38863 0.22308 0.30613
H2E H 0.41400 0.31584 0.35368
N1D N 0.27548 -0.07176 -0.15918
C1D C 0.34342 0.02176 -0.25000
C2D C 0.16555 -0.22308 -0.19387
H1D H 0.42672 0.13641 -0.25000
H2D H 0.09816 -0.31584 -0.14632
N1J N 0.27548 -0.07176 -0.34082
C2J C 0.16555 -0.22308 -0.30613
H2J H 0.09816 -0.31584 -0.35368
Hg1E Hg 0.33235 0.00000 0.50000
Hg1J Hg 0.33235 0.00000 -0.50000
N1J_2 N 0.27548 -0.07176 0.65918
C1J C 0.34342 0.02176 0.75000
C2J_2 C 0.16555 -0.22308 0.69387
H1J H 0.42672 0.13641 0.75000
H2J_2 H 0.09816 -0.31584 0.64632
N1D_2 N 0.27548 -0.07176 0.84082
C2D_2 C 0.16555 -0.22308 0.80613
H2D_2 H 0.09816 -0.31584 0.85368
N1E_2 N 0.34724 0.07176 -0.65918
Hg1_2 Hg 0.33235 0.00000 1.00000
N2 N 0.66667 0.33333 0.93022
O1 O 0.66302 0.20325 0.93022
O1C O 0.79675 0.45977 0.93022
O1G O 0.54023 0.33698 0.93022
N3 N 0.00000 0.00000 0.00000
O2 O -0.13267 0.00000 0.00000
O2C O 0.00000 -0.13267 0.00000
O2G O 0.13267 0.13267 0.00000
loop_
_geom_bond_atom_site_label_1
_geom_bond_atom_site_label_2
_geom_bond_site_symmetry_1
_geom_bond_site_symmetry_2
Hg1 N1 1_555 1_555
N1 C1 1_555 1_555
C1 H1 1_555 1_555
C2 N1 1_555 1_555
H2 C2 1_555 1_555
N2 O1 1_555 1_555
N3 O2 1_555 1_555
N1E C1 1_555 1_555
C2E C2 1_555 1_555
H2E C2E 1_555 1_555
O1C N2 1_555 1_555
O1G N2 1_555 1_555
O2C N3 1_555 1_555
O2G N3 1_555 1_555
N1D Hg1 1_555 1_555
C1D N1D 1_555 1_555
C2D N1D 1_555 1_555
H1D C1D 1_555 1_555
H2D C2D 1_555 1_555
N1J C1D 1_555 1_555
C2J C2D 1_555 1_555
H2J C2J 1_555 1_555
Hg1E N1E 1_555 1_555
Hg1J N1J 1_555 1_555
N1J_2 Hg1E 1_555 1_555
C1J N1J_2 1_555 1_555
C2J_2 N1J_2 1_555 1_555
H1J C1J 1_555 1_555
H2J_2 C2J_2 1_555 1_555
N1D_2 C1J 1_555 1_555
C2D_2 C2J_2 1_555 1_555
H2D_2 C2D_2 1_555 1_555
N1E_2 Hg1J 1_555 1_555
Hg1_2 N1D_2 1_555 1_555
N1E C2E 1_555 1_555
N1J C2J 1_555 1_555
N1D_2 C2D_2 1_555 1_555

#END
