
#######################################################################
#
#                 Cambridge Crystallographic Data Centre
#                                CCDC 
#
#######################################################################
#
# If this CIF has been generated from an entry in the Cambridge 
# Structural Database, then it will include bibliographic, chemical, 
# crystal, experimental, refinement or atomic coordinate data resulting 
# from the CCDC's data processing and validation procedures.
#
#######################################################################

data_BAYQAU08
_symmetry_cell_setting           orthorhombic
_symmetry_space_group_name_H-M   'P b c a'
_symmetry_Int_Tables_number      61
_space_group_name_Hall           '-P 2ac 2ab'
loop_
_symmetry_equiv_pos_site_id
_symmetry_equiv_pos_as_xyz
1 x,y,z
2 1/2+x,1/2-y,-z
3 -x,1/2+y,1/2-z
4 1/2-x,-y,1/2+z
5 -x,-y,-z
6 1/2-x,1/2+y,z
7 x,1/2-y,1/2+z
8 1/2+x,y,1/2-z
_cell_length_a                   14.3999(5)
_cell_length_b                   10.7847(3)
_cell_length_c                   9.8963(3)
_cell_angle_alpha                90
_cell_angle_beta                 90
_cell_angle_gamma                90
_cell_volume                     1536.88
loop_
_atom_site_label
_atom_site_type_symbol
_atom_site_fract_x
_atom_site_fract_y
_atom_site_fract_z
Cd1 Cd 0.110280(19) 0.03473(2) 0.80628(3)
N1 N 0.2306(2) 0.0519(3) 0.6679(3)
C1 C 0.2605(3) -0.0176(4) 0.5651(4)
N2 N 0.3327(2) 0.0306(3) 0.4983(3)
C2 C 0.3502(3) 0.1404(4) 0.5651(4)
C3 C 0.2881(3) 0.1534(4) 0.6666(4)
H1 H 0.2340 -0.0937 0.5424
H2 H 0.3970 0.1955 0.5422
H3 H 0.2836 0.2192 0.7259
N3 N 0.0703(2) 0.2306(3) 0.8137(4)
C4 C 0.0055(3) 0.2875(4) 0.7403(5)
N4 N -0.0041(2) 0.4075(3) 0.7680(4)
C5 C 0.0608(3) 0.4288(4) 0.8661(5)
C6 C 0.1048(4) 0.3216(4) 0.8950(5)
H4 H -0.0304 0.2474 0.6750
H5 H 0.0715 0.5050 0.9051
H6 H 0.1519 0.3104 0.9599
Cd1B Cd -0.110280(19) 0.53473(2) 0.69372(3)
Cd1C Cd 0.389720(19) -0.03473(2) 0.30628(3)
N2C N 0.1673(2) -0.0306(3) 0.9983(3)
N4B N 0.0041(2) -0.0925(3) 0.7320(4)
loop_
_geom_bond_atom_site_label_1
_geom_bond_atom_site_label_2
_geom_bond_site_symmetry_1
_geom_bond_site_symmetry_2
Cd1 N1 1_555 1_555
N1 C1 1_555 1_555
C1 N2 1_555 1_555
N2 C2 1_555 1_555
C2 C3 1_555 1_555
C3 N1 1_555 1_555
H1 C1 1_555 1_555
H2 C2 1_555 1_555
H3 C3 1_555 1_555
N3 Cd1 1_555 1_555
C4 N3 1_555 1_555
N4 C4 1_555 1_555
C5 N4 1_555 1_555
C6 N3 1_555 1_555
H4 C4 1_555 1_555
H5 C5 1_555 1_555
H6 C6 1_555 1_555
Cd1B N4 1_555 1_555
Cd1C N2 1_555 1_555
N2C Cd1 1_555 1_555
N4B Cd1 1_555 1_555
C5 C6 1_555 1_555

#END
