
#######################################################################
#
#                 Cambridge Crystallographic Data Centre
#                                CCDC 
#
#######################################################################
#
# If this CIF has been generated from an entry in the Cambridge 
# Structural Database, then it will include bibliographic, chemical, 
# crystal, experimental, refinement or atomic coordinate data resulting 
# from the CCDC's data processing and validation procedures.
#
#######################################################################

data_BAYQAU01
_symmetry_cell_setting           orthorhombic
_symmetry_space_group_name_H-M   'P c a b'
_symmetry_Int_Tables_number      61
_space_group_name_Hall           '-P 2bc 2ac'
loop_
_symmetry_equiv_pos_site_id
_symmetry_equiv_pos_as_xyz
1 x,y,z
2 -x,1/2-y,1/2+z
3 1/2+x,-y,1/2-z
4 1/2-x,1/2+y,-z
5 -x,-y,-z
6 x,1/2+y,1/2-z
7 1/2-x,y,1/2+z
8 1/2+x,1/2-y,z
_cell_length_a                   9.931(2)
_cell_length_b                   10.739(2)
_cell_length_c                   14.622(3)
_cell_angle_alpha                90
_cell_angle_beta                 90
_cell_angle_gamma                90
_cell_volume                     1559.42
loop_
_atom_site_label
_atom_site_type_symbol
_atom_site_fract_x
_atom_site_fract_y
_atom_site_fract_z
Cd1 Cd 0.19920(4) 0.46814(4) 0.61239(3)
N1 N 0.1892(5) 0.2736(4) 0.5680(3)
N2 N 0.2292(5) 0.0979(5) 0.4933(3)
N3 N 0.3403(5) 0.4494(4) 0.7293(3)
N4 N 0.5080(5) 0.4688(4) 0.8294(3)
C1 C 0.2581(6) 0.2160(6) 0.5027(4)
H1 H 0.3216 0.2564 0.4666
C2 C 0.1106(8) 0.1828(6) 0.6016(5)
H2 H 0.0492 0.1919 0.6491
C3 C 0.1343(9) 0.0770(7) 0.5560(6)
H3 H 0.0917 0.0012 0.5664
C4 C 0.4425(6) 0.5163(5) 0.7580(4)
H4 H 0.4673 0.5910 0.7306
C5 C 0.4410(6) 0.3609(6) 0.8474(4)
H5 H 0.4620 0.3050 0.8938
C6 C 0.3392(6) 0.3482(6) 0.7871(5)
H6 H 0.2785 0.2823 0.7849
N2C N 0.2708(5) 0.5979(5) 0.5067(3)
N4B N 0.0080(5) 0.5312(4) 0.6706(3)
Cd1C Cd 0.30080(4) -0.03186(4) 0.38761(3)
Cd1B Cd 0.69920(4) 0.53186(4) 0.88761(3)
loop_
_geom_bond_atom_site_label_1
_geom_bond_atom_site_label_2
_geom_bond_site_symmetry_1
_geom_bond_site_symmetry_2
Cd1 N1 1_555 1_555
N1 C1 1_555 1_555
N2 C1 1_555 1_555
N3 Cd1 1_555 1_555
N4 C4 1_555 1_555
C1 H1 1_555 1_555
C2 N1 1_555 1_555
H2 C2 1_555 1_555
C3 N2 1_555 1_555
H3 C3 1_555 1_555
C4 N3 1_555 1_555
H4 C4 1_555 1_555
C5 N4 1_555 1_555
H5 C5 1_555 1_555
C6 N3 1_555 1_555
H6 C6 1_555 1_555
N2C Cd1 1_555 1_555
N4B Cd1 1_555 1_555
Cd1C N2 1_555 1_555
Cd1B N4 1_555 1_555
C2 C3 1_555 1_555
C5 C6 1_555 1_555

#END
