
#######################################################################
#
#                 Cambridge Crystallographic Data Centre
#                                CCDC 
#
#######################################################################
#
# If this CIF has been generated from an entry in the Cambridge 
# Structural Database, then it will include bibliographic, chemical, 
# crystal, experimental, refinement or atomic coordinate data resulting 
# from the CCDC's data processing and validation procedures.
#
#######################################################################

data_BAYQAU10
_symmetry_cell_setting           orthorhombic
_symmetry_space_group_name_H-M   'P b c a'
_symmetry_Int_Tables_number      61
_space_group_name_Hall           '-P 2ac 2ab'
loop_
_symmetry_equiv_pos_site_id
_symmetry_equiv_pos_as_xyz
1 x,y,z
2 1/2+x,1/2-y,-z
3 -x,1/2+y,1/2-z
4 1/2-x,-y,1/2+z
5 -x,-y,-z
6 1/2-x,1/2+y,z
7 x,1/2-y,1/2+z
8 1/2+x,y,1/2-z
_cell_length_a                   14.5094(5)
_cell_length_b                   10.7659(4)
_cell_length_c                   9.9113(3)
_cell_angle_alpha                90
_cell_angle_beta                 90
_cell_angle_gamma                90
_cell_volume                     1548.21
loop_
_atom_site_label
_atom_site_type_symbol
_atom_site_fract_x
_atom_site_fract_y
_atom_site_fract_z
Cd1 Cd 0.11123(2) 0.03331(3) 0.80384(3)
N1 N 0.2302(3) 0.0512(4) 0.6640(4)
C1 C 0.2593(4) -0.0165(4) 0.5613(5)
N2 N 0.3312(3) 0.0316(4) 0.4958(4)
C2 C 0.3491(4) 0.1399(5) 0.5627(5)
C3 C 0.2874(3) 0.1525(5) 0.6641(5)
H1 H 0.2328 -0.0927 0.5386
H2 H 0.3959 0.1949 0.5398
H3 H 0.2829 0.2183 0.7234
N3 N 0.0695(2) 0.2287(3) 0.8129(4)
C4 C 0.0047(4) 0.2855(4) 0.7409(6)
N4 N -0.0057(3) 0.4050(3) 0.7689(4)
C5 C 0.0588(4) 0.4262(5) 0.8657(7)
C6 C 0.1041(4) 0.3194(4) 0.8925(6)
H4 H -0.0311 0.2454 0.6757
H5 H 0.0695 0.5024 0.9046
H6 H 0.1512 0.3082 0.9574
Cd1B Cd -0.11123(2) 0.53331(3) 0.69616(3)
Cd1C Cd 0.38877(2) -0.03331(3) 0.30384(3)
N2C N 0.1688(3) -0.0316(4) 0.9958(4)
N4B N 0.0057(3) -0.0950(3) 0.7311(4)
loop_
_geom_bond_atom_site_label_1
_geom_bond_atom_site_label_2
_geom_bond_site_symmetry_1
_geom_bond_site_symmetry_2
Cd1 N1 1_555 1_555
N1 C1 1_555 1_555
C1 N2 1_555 1_555
N2 C2 1_555 1_555
C2 C3 1_555 1_555
C3 N1 1_555 1_555
H1 C1 1_555 1_555
H2 C2 1_555 1_555
H3 C3 1_555 1_555
N3 Cd1 1_555 1_555
C4 N3 1_555 1_555
N4 C4 1_555 1_555
C5 N4 1_555 1_555
C6 N3 1_555 1_555
H4 C4 1_555 1_555
H5 C5 1_555 1_555
H6 C6 1_555 1_555
Cd1B N4 1_555 1_555
Cd1C N2 1_555 1_555
N2C Cd1 1_555 1_555
N4B Cd1 1_555 1_555
C5 C6 1_555 1_555

#END
