
#######################################################################
#
#                 Cambridge Crystallographic Data Centre
#                                CCDC 
#
#######################################################################
#
# If this CIF has been generated from an entry in the Cambridge 
# Structural Database, then it will include bibliographic, chemical, 
# crystal, experimental, refinement or atomic coordinate data resulting 
# from the CCDC's data processing and validation procedures.
#
#######################################################################

data_BAYQAU06
_symmetry_cell_setting           orthorhombic
_symmetry_space_group_name_H-M   'P b c a'
_symmetry_Int_Tables_number      61
_space_group_name_Hall           '-P 2ac 2ab'
loop_
_symmetry_equiv_pos_site_id
_symmetry_equiv_pos_as_xyz
1 x,y,z
2 1/2+x,1/2-y,-z
3 -x,1/2+y,1/2-z
4 1/2-x,-y,1/2+z
5 -x,-y,-z
6 1/2-x,1/2+y,z
7 x,1/2-y,1/2+z
8 1/2+x,y,1/2-z
_cell_length_a                   15.1437(8)
_cell_length_b                   10.5693(5)
_cell_length_c                   10.0807(6)
_cell_angle_alpha                90
_cell_angle_beta                 90
_cell_angle_gamma                90
_cell_volume                     1613.5
loop_
_atom_site_label
_atom_site_type_symbol
_atom_site_fract_x
_atom_site_fract_y
_atom_site_fract_z
Cd1 Cd 0.11837(4) 0.02439(6) 0.78276(7)
N1 N 0.2277(5) 0.0481(9) 0.6401(9)
C1 C 0.2522(9) -0.0098(12) 0.5332(12)
N2 N 0.3219(5) 0.0337(9) 0.4703(9)
C2 C 0.3396(10) 0.1352(15) 0.5438(15)
C3 C 0.2835(10) 0.1420(15) 0.6440(15)
H1 H 0.2257 -0.0860 0.5106
H2 H 0.3864 0.1903 0.5209
H3 H 0.2790 0.2078 0.7032
N3 N 0.0659(5) 0.2154(7) 0.8006(10)
C4 C -0.0003(8) 0.2741(10) 0.7461(14)
N4 N -0.0162(6) 0.3899(8) 0.7771(10)
C5 C 0.0452(13) 0.4055(15) 0.862(2)
C6 C 0.0944(11) 0.3044(13) 0.875(2)
H4 H -0.0362 0.2340 0.6808
H5 H 0.0559 0.4817 0.9006
H6 H 0.1414 0.2932 0.9401
Cd1B Cd -0.11837(4) 0.52439(6) 0.71724(7)
Cd1C Cd 0.38163(4) -0.02439(6) 0.28276(7)
N2C N 0.1781(5) -0.0337(9) 0.9703(9)
N4B N 0.0162(6) -0.1101(8) 0.7229(10)
loop_
_geom_bond_atom_site_label_1
_geom_bond_atom_site_label_2
_geom_bond_site_symmetry_1
_geom_bond_site_symmetry_2
Cd1 N1 1_555 1_555
N1 C1 1_555 1_555
C1 N2 1_555 1_555
N2 C2 1_555 1_555
C2 C3 1_555 1_555
C3 N1 1_555 1_555
H1 C1 1_555 1_555
H2 C2 1_555 1_555
H3 C3 1_555 1_555
N3 Cd1 1_555 1_555
C4 N3 1_555 1_555
N4 C4 1_555 1_555
C5 N4 1_555 1_555
C6 N3 1_555 1_555
H4 C4 1_555 1_555
H5 C5 1_555 1_555
H6 C6 1_555 1_555
Cd1B N4 1_555 1_555
Cd1C N2 1_555 1_555
N2C Cd1 1_555 1_555
N4B Cd1 1_555 1_555
C5 C6 1_555 1_555

#END
