
#######################################################################
#
#                 Cambridge Crystallographic Data Centre
#                                CCDC 
#
#######################################################################
#
# If this CIF has been generated from an entry in the Cambridge 
# Structural Database, then it will include bibliographic, chemical, 
# crystal, experimental, refinement or atomic coordinate data resulting 
# from the CCDC's data processing and validation procedures.
#
#######################################################################

data_BAYTIF
_symmetry_cell_setting           triclinic
_symmetry_space_group_name_H-M   'P -1'
_symmetry_Int_Tables_number      2
_space_group_name_Hall           '-P 1'
loop_
_symmetry_equiv_pos_site_id
_symmetry_equiv_pos_as_xyz
1 x,y,z
2 -x,-y,-z
_cell_length_a                   8.1199(4)
_cell_length_b                   8.6389(5)
_cell_length_c                   9.1507(6)
_cell_angle_alpha                82.509(5)
_cell_angle_beta                 69.453(5)
_cell_angle_gamma                65.958(5)
_cell_volume                     548.856
loop_
_atom_site_label
_atom_site_type_symbol
_atom_site_fract_x
_atom_site_fract_y
_atom_site_fract_z
Cu1 Cu 0.0000 0.0000 0.0000
N1 N -0.2710(2) 0.0370(2) 0.1204(2)
N2 N -0.7686(3) 0.0219(3) 0.5252(3)
N3 N -0.8900(3) 0.7003(3) 0.0285(3)
N4 N -0.4359(3) 0.2218(3) -0.1602(3)
C1 C -0.4313(3) 0.0905(3) 0.1896(2)
C2 C -0.7037(3) 0.0818(3) 0.4126(3)
C3 C -0.8108(3) 0.5603(3) 0.0531(3)
C4 C -0.5577(3) 0.2950(3) -0.0522(3)
C5 C -0.6296(2) 0.1614(3) 0.2724(3)
C6 C -0.7108(3) 0.3880(3) 0.0794(3)
C7 C -0.7536(2) 0.3124(3) 0.2264(3)
C8 C -1.0968(3) 0.4864(4) 0.3106(4)
C9 C -1.2542(4) 0.4560(5) 0.4325(5)
O1 O 0.0469(2) 0.0139(2) 0.1969(2)
O2 O -0.9197(2) 0.3831(2) 0.3412(2)
H1 H -0.018(3) 0.003(3) 0.269(3)
H2 H 0.168(4) -0.051(4) 0.198(4)
H3 H -1.1176 0.6028 0.3114
H4 H -1.0894 0.4563 0.2115
H5 H -1.3708 0.5229 0.4138
H6 H -1.2328 0.3395 0.4316
H7 H -1.2610 0.4860 0.5314
N1A N 0.2710(2) -0.0370(2) -0.1204(2)
N2A N 0.7686(3) -0.0219(3) -0.5252(3)
N3A N 0.8900(3) -0.7003(3) -0.0285(3)
N4A N 0.4359(3) -0.2218(3) 0.1602(3)
C1A C 0.4313(3) -0.0905(3) -0.1896(2)
C2A C 0.7037(3) -0.0818(3) -0.4126(3)
C3A C 0.8108(3) -0.5603(3) -0.0531(3)
C4A C 0.5577(3) -0.2950(3) 0.0522(3)
C5A C 0.6296(2) -0.1614(3) -0.2724(3)
C6A C 0.7108(3) -0.3880(3) -0.0794(3)
C7A C 0.7536(2) -0.3124(3) -0.2264(3)
C8A C 1.0968(3) -0.4864(4) -0.3106(4)
C9A C 1.2542(4) -0.4560(5) -0.4325(5)
O2A O 0.9197(2) -0.3831(2) -0.3412(2)
H3A H 1.1176 -0.6028 -0.3114
H4A H 1.0894 -0.4563 -0.2115
H5A H 1.3708 -0.5229 -0.4138
H6A H 1.2328 -0.3395 -0.4316
H7A H 1.2610 -0.4860 -0.5314
O1A O -0.0469(2) -0.0139(2) -0.1969(2)
H1A H 0.018(3) -0.003(3) -0.269(3)
H2A H -0.168(4) 0.051(4) -0.198(4)
N3_2 N 0.1100(3) -0.2997(3) 0.0285(3)
N3A_2 N -0.1100(3) 0.2997(3) -0.0285(3)
Cu1_2 Cu -1.0000 1.0000 0.0000
Cu1_3 Cu 1.0000 -1.0000 0.0000
loop_
_geom_bond_atom_site_label_1
_geom_bond_atom_site_label_2
_geom_bond_site_symmetry_1
_geom_bond_site_symmetry_2
Cu1 N1 1_555 1_555
N1 C1 1_555 1_555
N2 C2 1_555 1_555
N3 C3 1_555 1_555
N4 C4 1_555 1_555
C1 C5 1_555 1_555
C2 C5 1_555 1_555
C3 C6 1_555 1_555
C4 C6 1_555 1_555
C5 C7 1_555 1_555
C6 C7 1_555 1_555
C7 O2 1_555 1_555
C8 C9 1_555 1_555
C9 H5 1_555 1_555
O1 Cu1 1_555 1_555
O2 C8 1_555 1_555
H1 O1 1_555 1_555
H2 O1 1_555 1_555
H3 C8 1_555 1_555
H4 C8 1_555 1_555
H6 C9 1_555 1_555
H7 C9 1_555 1_555
N1A Cu1 1_555 1_555
N2A C2A 1_555 1_555
N3A C3A 1_555 1_555
N4A C4A 1_555 1_555
C1A N1A 1_555 1_555
C2A C5A 1_555 1_555
C3A C6A 1_555 1_555
C4A C6A 1_555 1_555
C5A C1A 1_555 1_555
C6A C7A 1_555 1_555
C7A C5A 1_555 1_555
C8A C9A 1_555 1_555
C9A H5A 1_555 1_555
O2A C7A 1_555 1_555
H3A C8A 1_555 1_555
H4A C8A 1_555 1_555
H6A C9A 1_555 1_555
H7A C9A 1_555 1_555
O1A Cu1 1_555 1_555
H1A O1A 1_555 1_555
H2A O1A 1_555 1_555
N3_2 Cu1 1_555 1_555
N3A_2 Cu1 1_555 1_555
Cu1_2 N3 1_555 1_555
Cu1_3 N3A 1_555 1_555
C8A O2A 1_555 1_555

#END
