
#######################################################################
#
#                 Cambridge Crystallographic Data Centre
#                                CCDC 
#
#######################################################################
#
# If this CIF has been generated from an entry in the Cambridge 
# Structural Database, then it will include bibliographic, chemical, 
# crystal, experimental, refinement or atomic coordinate data resulting 
# from the CCDC's data processing and validation procedures.
#
#######################################################################

data_BAYTEB
_symmetry_cell_setting           triclinic
_symmetry_space_group_name_H-M   'P -1'
_symmetry_Int_Tables_number      2
_space_group_name_Hall           '-P 1'
loop_
_symmetry_equiv_pos_site_id
_symmetry_equiv_pos_as_xyz
1 x,y,z
2 -x,-y,-z
_cell_length_a                   8.2454(8)
_cell_length_b                   8.4727(7)
_cell_length_c                   9.286(1)
_cell_angle_alpha                80.854(5)
_cell_angle_beta                 69.441(5)
_cell_angle_gamma                64.206(5)
_cell_volume                     546.876
loop_
_atom_site_label
_atom_site_type_symbol
_atom_site_fract_x
_atom_site_fract_y
_atom_site_fract_z
Co1 Co 0.0000 0.0000 0.0000
N1 N -0.2792(4) 0.0325(4) 0.1295(3)
N2 N -0.7729(5) 0.0109(5) 0.5203(4)
N3 N -0.8901(4) 0.7254(4) 0.0275(3)
N4 N -0.4452(4) 0.2291(4) -0.1550(3)
C1 C -0.4408(4) 0.0878(4) 0.1945(4)
C2 C -0.7104(5) 0.0761(5) 0.4112(4)
C3 C -0.8144(4) 0.5786(4) 0.0526(4)
C4 C -0.5660(5) 0.3024(4) -0.0486(4)
C5 C -0.6389(4) 0.1612(4) 0.2742(4)
C6 C -0.7182(5) 0.3981(4) 0.0802(4)
C7 C -0.7631(4) 0.3191(4) 0.2256(3)
C8 C -1.1044(5) 0.5048(6) 0.3027(5)
C9 C -1.2640(6) 0.4819(7) 0.4252(6)
O1 O 0.0493(3) 0.0180(3) 0.2008(3)
O2 O -0.9304(3) 0.3917(3) 0.3356(3)
H1 H 0.181(6) -0.069(6) 0.208(5)
H2 H -0.034(6) 0.013(6) 0.285(5)
H3 H -1.1219 0.6246 0.2991
H4 H -1.0978 0.4763 0.2041
H5 H -1.3812 0.5538 0.4042
H6 H -1.2471 0.3614 0.4260
H7 H -1.2712 0.5096 0.5210
N1A N 0.2792(4) -0.0325(4) -0.1295(3)
N2A N 0.7729(5) -0.0109(5) -0.5203(4)
N3A N 0.8901(4) -0.7254(4) -0.0275(3)
N4A N 0.4452(4) -0.2291(4) 0.1550(3)
C1A C 0.4408(4) -0.0878(4) -0.1945(4)
C2A C 0.7104(5) -0.0761(5) -0.4112(4)
C3A C 0.8144(4) -0.5786(4) -0.0526(4)
C4A C 0.5660(5) -0.3024(4) 0.0486(4)
C5A C 0.6389(4) -0.1612(4) -0.2742(4)
C6A C 0.7182(5) -0.3981(4) -0.0802(4)
C7A C 0.7631(4) -0.3191(4) -0.2256(3)
C8A C 1.1044(5) -0.5048(6) -0.3027(5)
C9A C 1.2640(6) -0.4819(7) -0.4252(6)
O2A O 0.9304(3) -0.3917(3) -0.3356(3)
H3A H 1.1219 -0.6246 -0.2991
H4A H 1.0978 -0.4763 -0.2041
H5A H 1.3812 -0.5538 -0.4042
H6A H 1.2471 -0.3614 -0.4260
H7A H 1.2712 -0.5096 -0.5210
O1A O -0.0493(3) -0.0180(3) -0.2008(3)
H1A H -0.181(6) 0.069(6) -0.208(5)
H2A H 0.034(6) -0.013(6) -0.285(5)
N3_2 N 0.1099(4) -0.2746(4) 0.0275(3)
N3A_2 N -0.1099(4) 0.2746(4) -0.0275(3)
Co1_2 Co -1.0000 1.0000 0.0000
Co1_3 Co 1.0000 -1.0000 0.0000
loop_
_geom_bond_atom_site_label_1
_geom_bond_atom_site_label_2
_geom_bond_site_symmetry_1
_geom_bond_site_symmetry_2
Co1 N1 1_555 1_555
N1 C1 1_555 1_555
N2 C2 1_555 1_555
N3 C3 1_555 1_555
N4 C4 1_555 1_555
C1 C5 1_555 1_555
C2 C5 1_555 1_555
C3 C6 1_555 1_555
C4 C6 1_555 1_555
C5 C7 1_555 1_555
C6 C7 1_555 1_555
C7 O2 1_555 1_555
C8 C9 1_555 1_555
C9 H5 1_555 1_555
O1 Co1 1_555 1_555
O2 C8 1_555 1_555
H1 O1 1_555 1_555
H2 O1 1_555 1_555
H3 C8 1_555 1_555
H4 C8 1_555 1_555
H6 C9 1_555 1_555
H7 C9 1_555 1_555
N1A Co1 1_555 1_555
N2A C2A 1_555 1_555
N3A C3A 1_555 1_555
N4A C4A 1_555 1_555
C1A N1A 1_555 1_555
C2A C5A 1_555 1_555
C3A C6A 1_555 1_555
C4A C6A 1_555 1_555
C5A C1A 1_555 1_555
C6A C7A 1_555 1_555
C7A C5A 1_555 1_555
C8A C9A 1_555 1_555
C9A H5A 1_555 1_555
O2A C7A 1_555 1_555
H3A C8A 1_555 1_555
H4A C8A 1_555 1_555
H6A C9A 1_555 1_555
H7A C9A 1_555 1_555
O1A Co1 1_555 1_555
H1A O1A 1_555 1_555
H2A O1A 1_555 1_555
N3_2 Co1 1_555 1_555
N3A_2 Co1 1_555 1_555
Co1_2 N3 1_555 1_555
Co1_3 N3A 1_555 1_555
C8A O2A 1_555 1_555

#END
