
#######################################################################
#
#                 Cambridge Crystallographic Data Centre
#                                CCDC 
#
#######################################################################
#
# If this CIF has been generated from an entry in the Cambridge 
# Structural Database, then it will include bibliographic, chemical, 
# crystal, experimental, refinement or atomic coordinate data resulting 
# from the CCDC's data processing and validation procedures.
#
#######################################################################

data_BAYXUW
_symmetry_cell_setting           orthorhombic
_symmetry_space_group_name_H-M   'P 21 21 21'
_symmetry_Int_Tables_number      19
_space_group_name_Hall           'P 2ac 2ab'
loop_
_symmetry_equiv_pos_site_id
_symmetry_equiv_pos_as_xyz
1 x,y,z
2 1/2-x,-y,1/2+z
3 1/2+x,1/2-y,-z
4 -x,1/2+y,1/2-z
_cell_length_a                   10.2617(10)
_cell_length_b                   11.2688(11)
_cell_length_c                   16.7347(16)
_cell_angle_alpha                90
_cell_angle_beta                 90
_cell_angle_gamma                90
_cell_volume                     1935.15
loop_
_atom_site_label
_atom_site_type_symbol
_atom_site_fract_x
_atom_site_fract_y
_atom_site_fract_z
Er1 Er 0.62110(3) 0.33782(2) 0.710594(14)
Sb1 Sb 0.39892(4) 0.50363(3) 0.38361(2)
Sb2 Sb 0.02381(4) 0.61965(3) 0.57462(2)
O1 O 0.4744(5) 0.4172(4) 0.6198(3)
O2 O 0.4894(5) 0.5041(4) 0.5016(3)
O3 O 0.2669(5) 0.4159(4) 0.4479(2)
O4 O 0.1943(5) 0.5403(4) 0.5963(3)
O5 O -0.0194(5) 0.4359(4) 0.5427(3)
O6 O 0.0590(6) 0.2526(4) 0.5612(3)
O7 O 0.2438(5) 0.0998(4) 0.9936(3)
O8 O 0.3507(5) 0.2228(4) 1.0742(3)
O9 O 0.4482(5) 0.3525(4) 0.9584(2)
O10 O 0.4171(5) 0.3287(4) 0.7706(3)
O11 O 0.2730(5) 0.4677(4) 0.8054(3)
O12 O 0.1632(5) 0.3373(3) 0.9163(2)
O13 O 0.8297(6) 0.2248(5) 0.7063(4)
O14 O 0.8477(7) 0.4033(6) 0.7447(4)
O15 O 1.0199(7) 0.2869(9) 0.7469(4)
O16 O 0.7284(5) 0.3807(4) 0.5890(3)
O17 O 0.5551(5) 0.1744(4) 0.6336(3)
O18 O 0.6287(6) 0.5449(4) 0.7264(3)
O19 O 0.6432(5) 0.3751(5) 0.8478(3)
O20 O 0.6229(5) 0.1444(4) 0.7915(3)
N1 N 0.9051(7) 0.3034(6) 0.7328(4)
C1 C 0.4328(6) 0.4374(5) 0.5521(3)
C2 C 0.3036(6) 0.3820(5) 0.5266(3)
H1 H 0.3138 0.2955 0.5275
C3 C 0.2020(7) 0.4153(5) 0.5879(3)
H2 H 0.2273 0.3812 0.6395
C4 C 0.0736(7) 0.3613(5) 0.5629(4)
C5 C 0.3178(6) 0.1832(5) 1.0039(4)
C6 C 0.3762(6) 0.2508(4) 0.9344(3)
H3 H 0.4358 0.1973 0.9062
C7 C 0.2669(6) 0.2847(5) 0.8766(3)
H4 H 0.2353 0.2121 0.8508
C8 C 0.3237(6) 0.3656(5) 0.8119(3)
Sb1A Sb 0.10108(4) 0.49637(3) 0.88361(2)
Sb2A Sb 0.47619(4) 0.38035(3) 1.07462(2)
O8A O 0.1493(5) 0.7772(4) 0.5742(3)
O9A O 0.0518(5) 0.6475(4) 0.4584(2)
O11A O 0.2270(5) 0.5323(4) 0.3054(3)
O12A O 0.3368(5) 0.6627(3) 0.4163(2)
O21 O 0.2789(7) 0.1167(5) 0.6210(4)
loop_
_geom_bond_atom_site_label_1
_geom_bond_atom_site_label_2
_geom_bond_site_symmetry_1
_geom_bond_site_symmetry_2
Er1 O1 1_555 1_555
Sb1 O2 1_555 1_555
Sb2 O4 1_555 1_555
O1 C1 1_555 1_555
O2 C1 1_555 1_555
O3 Sb1 1_555 1_555
O4 C3 1_555 1_555
O5 Sb2 1_555 1_555
O6 C4 1_555 1_555
O7 C5 1_555 1_555
O8 C5 1_555 1_555
O9 C6 1_555 1_555
O10 Er1 1_555 1_555
O11 C8 1_555 1_555
O12 C7 1_555 1_555
O13 Er1 1_555 1_555
O14 Er1 1_555 1_555
O15 N1 1_555 1_555
O16 Er1 1_555 1_555
O17 Er1 1_555 1_555
O18 Er1 1_555 1_555
O19 Er1 1_555 1_555
O20 Er1 1_555 1_555
N1 O13 1_555 1_555
C1 C2 1_555 1_555
C2 O3 1_555 1_555
H1 C2 1_555 1_555
C3 C2 1_555 1_555
H2 C3 1_555 1_555
C4 O5 1_555 1_555
C5 C6 1_555 1_555
C6 H3 1_555 1_555
C7 C6 1_555 1_555
H4 C7 1_555 1_555
C8 O10 1_555 1_555
Sb1A O11 1_555 1_555
Sb2A O8 1_555 1_555
O8A Sb2 1_555 1_555
O9A Sb2 1_555 1_555
O11A Sb1 1_555 1_555
O12A Sb1 1_555 1_555
O9 Sb2A 1_555 1_555
O12 Sb1A 1_555 1_555
O14 N1 1_555 1_555
C3 C4 1_555 1_555
C7 C8 1_555 1_555

#END
