
#######################################################################
#
#                 Cambridge Crystallographic Data Centre
#                                CCDC 
#
#######################################################################
#
# If this CIF has been generated from an entry in the Cambridge 
# Structural Database, then it will include bibliographic, chemical, 
# crystal, experimental, refinement or atomic coordinate data resulting 
# from the CCDC's data processing and validation procedures.
#
#######################################################################

data_BAYXAC
_symmetry_cell_setting           orthorhombic
_symmetry_space_group_name_H-M   'P 21 21 21'
_symmetry_Int_Tables_number      19
_space_group_name_Hall           'P 2ac 2ab'
loop_
_symmetry_equiv_pos_site_id
_symmetry_equiv_pos_as_xyz
1 x,y,z
2 1/2-x,-y,1/2+z
3 1/2+x,1/2-y,-z
4 -x,1/2+y,1/2-z
_cell_length_a                   10.2741(4)
_cell_length_b                   11.3121(4)
_cell_length_c                   16.8856(6)
_cell_angle_alpha                90
_cell_angle_beta                 90
_cell_angle_gamma                90
_cell_volume                     1962.47
loop_
_atom_site_label
_atom_site_type_symbol
_atom_site_fract_x
_atom_site_fract_y
_atom_site_fract_z
Gd1 Gd 0.623306(18) 0.336976(17) 0.710532(12)
Sb1 Sb 0.40141(2) 0.50372(2) 0.383650(17)
Sb2 Sb 0.02767(3) 0.62001(2) 0.573465(17)
O1 O 0.4781(3) 0.4201(3) 0.61806(19)
O2 O 0.4927(3) 0.5042(3) 0.50017(19)
O3 O 0.2706(3) 0.4167(2) 0.44803(18)
O4 O 0.1981(3) 0.5413(3) 0.59479(19)
O5 O -0.0141(3) 0.4376(3) 0.5422(2)
O6 O 0.0618(3) 0.2547(3) 0.5618(2)
O7 O 0.2404(3) 0.1001(3) 0.9922(2)
O8 O 0.3472(3) 0.2228(3) 1.07179(19)
O9 O 0.4462(3) 0.3524(3) 0.95775(17)
O10 O 0.4127(3) 0.3309(3) 0.77042(18)
O11 O 0.2691(3) 0.4684(2) 0.80570(18)
O12 O 0.1596(3) 0.3375(2) 0.91643(18)
O13 O 0.8350(3) 0.2225(3) 0.7067(3)
O14 O 0.8525(4) 0.4002(4) 0.7463(3)
O15 O 1.0229(4) 0.2853(5) 0.7469(3)
O16 O 0.7335(3) 0.3822(3) 0.5875(2)
O17 O 0.5545(3) 0.1715(3) 0.63101(19)
O18 O 0.6315(3) 0.5479(3) 0.7280(2)
O19 O 0.6412(3) 0.3742(3) 0.84916(18)
O20 O 0.6218(3) 0.1408(2) 0.78920(19)
N1 N 0.9081(4) 0.3032(4) 0.7338(3)
C1 C 0.4359(4) 0.4391(3) 0.5502(3)
C2 C 0.3085(4) 0.3833(4) 0.5256(3)
H1 H 0.3192 0.2972 0.5266
C3 C 0.2052(4) 0.4171(4) 0.5873(3)
H2 H 0.2306 0.3835 0.6385
C4 C 0.0772(4) 0.3625(4) 0.5622(3)
C5 C 0.3150(4) 0.1849(3) 1.0027(3)
C6 C 0.3753(4) 0.2517(3) 0.9331(3)
H3 H 0.4350 0.1982 0.9054
C7 C 0.2647(4) 0.2854(4) 0.8756(2)
H4 H 0.2333 0.2131 0.8499
C8 C 0.3213(4) 0.3665(3) 0.8118(2)
Sb1A Sb 0.09859(2) 0.49628(2) 0.883650(17)
Sb2A Sb 0.47233(3) 0.37999(2) 1.073465(17)
O8A O 0.1528(3) 0.7772(3) 0.57179(19)
O9A O 0.0538(3) 0.6476(3) 0.45775(17)
O11A O 0.2309(3) 0.5316(2) 0.30570(18)
O12A O 0.3404(3) 0.6625(2) 0.41643(18)
O21 O 0.2764(4) 0.1172(3) 0.6191(3)
loop_
_geom_bond_atom_site_label_1
_geom_bond_atom_site_label_2
_geom_bond_site_symmetry_1
_geom_bond_site_symmetry_2
Gd1 O1 1_555 1_555
Sb1 O2 1_555 1_555
Sb2 O4 1_555 1_555
O1 C1 1_555 1_555
O2 C1 1_555 1_555
O3 Sb1 1_555 1_555
O4 C3 1_555 1_555
O5 Sb2 1_555 1_555
O6 C4 1_555 1_555
O7 C5 1_555 1_555
O8 C5 1_555 1_555
O9 C6 1_555 1_555
O10 Gd1 1_555 1_555
O11 C8 1_555 1_555
O12 C7 1_555 1_555
O13 Gd1 1_555 1_555
O14 Gd1 1_555 1_555
O15 N1 1_555 1_555
O16 Gd1 1_555 1_555
O17 Gd1 1_555 1_555
O18 Gd1 1_555 1_555
O19 Gd1 1_555 1_555
O20 Gd1 1_555 1_555
N1 O13 1_555 1_555
C1 C2 1_555 1_555
C2 O3 1_555 1_555
H1 C2 1_555 1_555
C3 C2 1_555 1_555
H2 C3 1_555 1_555
C4 O5 1_555 1_555
C5 C6 1_555 1_555
C6 H3 1_555 1_555
C7 C6 1_555 1_555
H4 C7 1_555 1_555
C8 O10 1_555 1_555
Sb1A O11 1_555 1_555
Sb2A O8 1_555 1_555
O8A Sb2 1_555 1_555
O9A Sb2 1_555 1_555
O11A Sb1 1_555 1_555
O12A Sb1 1_555 1_555
O9 Sb2A 1_555 1_555
O12 Sb1A 1_555 1_555
O14 N1 1_555 1_555
C3 C4 1_555 1_555
C7 C8 1_555 1_555

#END
