
#######################################################################
#
#                 Cambridge Crystallographic Data Centre
#                                CCDC 
#
#######################################################################
#
# If this CIF has been generated from an entry in the Cambridge 
# Structural Database, then it will include bibliographic, chemical, 
# crystal, experimental, refinement or atomic coordinate data resulting 
# from the CCDC's data processing and validation procedures.
#
#######################################################################

data_BAYYUX
_symmetry_cell_setting           monoclinic
_symmetry_space_group_name_H-M   'P 21'
_symmetry_Int_Tables_number      4
_space_group_name_Hall           'P 2yb'
loop_
_symmetry_equiv_pos_site_id
_symmetry_equiv_pos_as_xyz
1 x,y,z
2 -x,1/2+y,-z
_cell_length_a                   8.4771(2)
_cell_length_b                   26.3184(6)
_cell_length_c                   12.1893(3)
_cell_angle_alpha                90
_cell_angle_beta                 109.68
_cell_angle_gamma                90
_cell_volume                     2560.63
loop_
_atom_site_label
_atom_site_type_symbol
_atom_site_fract_x
_atom_site_fract_y
_atom_site_fract_z
La1 La 0.94971(3) 0.419228(9) 0.319415(19)
La2 La 0.79755(3) 0.705390(9) -0.002809(19)
Sb1 Sb 0.95097(4) 0.359417(12) 0.83142(2)
Sb2 Sb 0.49933(4) 0.491429(12) 0.72464(3)
Sb3 Sb 0.33317(4) 0.766713(12) -0.52363(2)
Sb4 Sb -0.00708(4) 0.623886(15) -0.42801(3)
Sb5 Sb 0.30859(4) 0.508057(12) -0.03415(2)
Sb6 Sb 0.49947(4) 0.617996(12) 0.33560(2)
O1 O 0.8610(5) 0.41211(16) 0.4949(3)
O2 O 0.8623(4) 0.36149(14) 0.6405(3)
O3 O 0.9722(4) 0.43210(14) 0.8018(3)
O4 O 0.6386(4) 0.46378(14) 0.6366(3)
O5 O 0.9699(6) 0.55067(18) 0.7783(4)
O6 O 0.7179(6) 0.53569(16) 0.7954(3)
O7 O 0.9548(4) 0.38616(15) 1.0008(3)
O8 O 0.7904(4) 0.39558(16) 1.1085(3)
O9 O 0.7095(4) 0.35540(14) 0.8149(3)
O10 O 0.5925(5) 0.45407(13) 0.8741(3)
O11 O 0.3639(4) 0.41673(16) 0.6858(3)
O12 O 0.3065(5) 0.35059(17) 0.7796(4)
O13 O 1.1755(4) 0.47623(15) 0.4555(3)
O14 O 1.1824(5) 0.36926(16) 0.4716(3)
O15 O 0.8588(5) 0.32757(15) 0.3095(3)
O16 O 1.1438(5) 0.36525(19) 0.2294(4)
O17 O 0.6254(4) 0.43065(13) 0.2550(3)
O18 O 0.5437(4) 0.71168(15) -0.1841(3)
O19 O 0.4279(4) 0.76392(14) -0.3327(3)
O20 O 0.3833(4) 0.69402(13) -0.4941(3)
O21 O 0.2101(4) 0.65414(15) -0.3340(3)
O22 O 0.4402(6) 0.57351(17) -0.4635(3)
O23 O 0.1665(6) 0.58533(17) -0.4983(4)
O24 O 0.1595(4) 0.74495(15) -0.6921(3)
O25 O -0.1141(5) 0.73738(15) -0.7911(3)
O26 O 0.1168(4) 0.76535(14) -0.4935(3)
O27 O -0.1073(5) 0.6912(2) -0.3700(3)
O28 O -0.2314(6) 0.7649(2) -0.4344(4)
O29 O -0.0635(5) 0.66704(14) -0.5673(3)
O30 O 0.8555(4) 0.51115(15) 0.3251(3)
O31 O 0.6739(4) 0.55457(15) 0.3832(3)
O32 O 0.5781(4) 0.61418(13) 0.1993(3)
O33 O 0.4340(4) 0.57167(15) -0.0833(3)
O34 O 0.6668(5) 0.61764(14) -0.0216(3)
O35 O 0.5272(4) 0.50927(13) 0.0962(3)
O36 O 0.2024(4) 0.56129(13) 0.0297(3)
O37 O 0.2352(4) 0.46429(14) 0.0919(3)
O38 O 0.0665(5) 0.47040(17) 0.1957(4)
O39 O 0.3353(4) 0.56270(13) 0.2823(3)
O40 O 0.2880(4) 0.65736(13) 0.2107(3)
O41 O 0.0134(4) 0.64823(16) 0.1271(4)
O42 O 1.0937(5) 0.74772(19) 0.0547(3)
O43 O 0.8875(7) 0.64868(18) -0.1374(4)
O44 O 0.8628(5) 0.75599(17) -0.1681(4)
O45 O 0.5502(5) 0.70036(16) 0.0732(3)
O46 O 0.6876(5) 0.79479(15) 0.0107(3)
C1 C 0.8819(5) 0.40472(19) 0.5985(4)
C2 C 0.9366(6) 0.44807(19) 0.6854(4)
H1 H 1.0374 0.4637 0.6779
C3 C 0.7957(6) 0.48783(19) 0.6539(4)
H2 H 0.7916 0.5046 0.5812
C4 C 0.8354(8) 0.5276(2) 0.7501(4)
C5 C 0.6654(5) 0.36610(18) 0.9142(4)
H3 H 0.6221 0.3349 0.9375
C6 C 0.8132(6) 0.38482(19) 1.0171(4)
C7 C 0.5271(5) 0.40683(18) 0.8861(4)
H4 H 0.4834 0.4085 0.9509
C8 C 0.3862(6) 0.3894(2) 0.7770(4)
C9 C 0.4798(5) 0.7198(2) -0.2896(4)
C10 C 0.4596(6) 0.67749(18) -0.3781(4)
H5 H 0.5710 0.6642 -0.3698
C11 C 0.3582(6) 0.63496(19) -0.3476(4)
H6 H 0.4269 0.6194 -0.2739
C12 C 0.3227(7) 0.59490(19) -0.4440(4)
C13 C -0.1622(6) 0.7259(2) -0.4493(5)
C14 C -0.1366(6) 0.71473(19) -0.5647(4)
H7 H -0.2467 0.7151 -0.6261
C15 C -0.0320(5) 0.75795(18) -0.5895(4)
H8 H -0.0981 0.7893 -0.6023
C16 C 0.0040(6) 0.74521(18) -0.7011(4)
C17 C 0.7500(5) 0.54495(18) 0.3108(4)
C18 C 0.7044(5) 0.57800(17) 0.2024(4)
H9 H 0.8050 0.5967 0.2038
C19 C 0.6485(5) 0.54555(18) 0.0927(4)
H10 H 0.7463 0.5276 0.0861
C20 C 0.5807(6) 0.58132(18) -0.0111(4)
C21 C 0.1382(6) 0.4891(2) 0.1328(4)
C22 C 0.1129(5) 0.54563(19) 0.1009(4)
H11 H -0.0066 0.5519 0.0604
C23 C 0.1698(5) 0.57611(18) 0.2154(4)
H12 H 0.0953 0.5685 0.2597
C24 C 0.1534(6) 0.63148(19) 0.1816(4)
La1_2 La -0.05029(3) 0.419228(9) 0.319415(19)
La1_3 La 0.94971(3) 0.419228(9) 1.319415(19)
La2_2 La -0.20245(3) 0.705390(9) -1.002809(19)
La2_3 La -0.20245(3) 0.705390(9) -0.002809(19)
O8_2 O 0.7904(4) 0.39558(16) 0.1085(3)
O25_2 O 0.8859(5) 0.73738(15) 0.2089(3)
O38_2 O 1.0665(5) 0.47040(17) 0.1957(4)
O41_2 O 1.0134(4) 0.64823(16) 0.1271(4)
O47 O 0.2595(8) 0.7634(3) 0.8885(6)
O48 O 0.2076(9) 0.6625(3) 0.8889(6)
O49 O 0.4963(6) 0.7628(2) 0.2465(5)
O50 O 0.5558(6) 0.84458(16) 0.8115(4)
O51 O 0.4609(5) 0.46516(17) 0.3998(3)
loop_
_geom_bond_atom_site_label_1
_geom_bond_atom_site_label_2
_geom_bond_site_symmetry_1
_geom_bond_site_symmetry_2
La1 O1 1_555 1_555
La2 O18 1_555 1_555
Sb1 O2 1_555 1_555
Sb2 O4 1_555 1_555
Sb3 O19 1_555 1_555
Sb4 O21 1_555 1_555
Sb5 O33 1_555 1_555
Sb6 O31 1_555 1_555
O1 C1 1_555 1_555
O2 C1 1_555 1_555
O3 Sb1 1_555 1_555
O4 C3 1_555 1_555
O5 C4 1_555 1_555
O6 Sb2 1_555 1_555
O7 Sb1 1_555 1_555
O8 C6 1_555 1_555
O9 Sb1 1_555 1_555
O10 Sb2 1_555 1_555
O11 Sb2 1_555 1_555
O12 C8 1_555 1_555
O13 La1 1_555 1_555
O14 La1 1_555 1_555
O15 La1 1_555 1_555
O16 La1 1_555 1_555
O17 La1 1_555 1_555
O18 C9 1_555 1_555
O19 C9 1_555 1_555
O20 Sb3 1_555 1_555
O21 C11 1_555 1_555
O22 C12 1_555 1_555
O23 Sb4 1_555 1_555
O24 Sb3 1_555 1_555
O25 C16 1_555 1_555
O26 Sb3 1_555 1_555
O27 Sb4 1_555 1_555
O28 C13 1_555 1_555
O29 Sb4 1_555 1_555
O30 La1 1_555 1_555
O31 C17 1_555 1_555
O32 Sb6 1_555 1_555
O33 C20 1_555 1_555
O34 La2 1_555 1_555
O35 Sb5 1_555 1_555
O36 Sb5 1_555 1_555
O37 Sb5 1_555 1_555
O38 C21 1_555 1_555
O39 Sb6 1_555 1_555
O40 Sb6 1_555 1_555
O41 C24 1_555 1_555
O42 La2 1_555 1_555
O43 La2 1_555 1_555
O44 La2 1_555 1_555
O45 La2 1_555 1_555
O46 La2 1_555 1_555
C1 C2 1_555 1_555
C2 O3 1_555 1_555
H1 C2 1_555 1_555
C3 C2 1_555 1_555
H2 C3 1_555 1_555
C4 O6 1_555 1_555
C5 O9 1_555 1_555
H3 C5 1_555 1_555
C6 O7 1_555 1_555
C7 O10 1_555 1_555
H4 C7 1_555 1_555
C8 O11 1_555 1_555
C9 C10 1_555 1_555
C10 O20 1_555 1_555
H5 C10 1_555 1_555
C11 C10 1_555 1_555
H6 C11 1_555 1_555
C12 O23 1_555 1_555
C13 O27 1_555 1_555
C14 O29 1_555 1_555
H7 C14 1_555 1_555
C15 O26 1_555 1_555
H8 C15 1_555 1_555
C16 O24 1_555 1_555
C17 O30 1_555 1_555
C18 O32 1_555 1_555
H9 C18 1_555 1_555
C19 O35 1_555 1_555
H10 C19 1_555 1_555
C20 O34 1_555 1_555
C21 O37 1_555 1_555
C22 O36 1_555 1_555
H11 C22 1_555 1_555
C23 O39 1_555 1_555
H12 C23 1_555 1_555
C24 O40 1_555 1_555
La1_2 O38 1_555 1_555
La1_3 O8 1_555 1_555
La2_2 O25 1_555 1_555
La2_3 O41 1_555 1_555
O8_2 La1 1_555 1_555
O25_2 La2 1_555 1_555
O38_2 La1 1_555 1_555
O41_2 La2 1_555 1_555
C3 C4 1_555 1_555
C5 C6 1_555 1_555
C5 C7 1_555 1_555
C7 C8 1_555 1_555
C11 C12 1_555 1_555
C13 C14 1_555 1_555
C14 C15 1_555 1_555
C15 C16 1_555 1_555
C17 C18 1_555 1_555
C18 C19 1_555 1_555
C19 C20 1_555 1_555
C21 C22 1_555 1_555
C22 C23 1_555 1_555
C23 C24 1_555 1_555

#END
