
#######################################################################
#
#                 Cambridge Crystallographic Data Centre
#                                CCDC 
#
#######################################################################
#
# If this CIF has been generated from an entry in the Cambridge 
# Structural Database, then it will include bibliographic, chemical, 
# crystal, experimental, refinement or atomic coordinate data resulting 
# from the CCDC's data processing and validation procedures.
#
#######################################################################

data_BAZBUA
_symmetry_cell_setting           triclinic
_symmetry_space_group_name_H-M   'P -1'
_symmetry_Int_Tables_number      2
_space_group_name_Hall           '-P 1'
loop_
_symmetry_equiv_pos_site_id
_symmetry_equiv_pos_as_xyz
1 x,y,z
2 -x,-y,-z
_cell_length_a                   9.729(2)
_cell_length_b                   10.0671(13)
_cell_length_c                   10.3410(14)
_cell_angle_alpha                80.133(13)
_cell_angle_beta                 85.982(19)
_cell_angle_gamma                68.587(13)
_cell_volume                     928.936
loop_
_atom_site_label
_atom_site_type_symbol
_atom_site_fract_x
_atom_site_fract_y
_atom_site_fract_z
Co1 Co 0.44975(6) 0.36569(5) 0.87984(5)
O1 O 0.3643(3) 0.5813(2) 0.8097(2)
O2 O 0.4040(3) 0.6752(3) 0.9766(2)
O3 O 0.3352(3) 1.3097(3) 0.7292(3)
O4 O 0.4829(3) 1.1444(3) 0.8747(2)
N1 N 0.6321(4) 0.3487(3) 0.7423(3)
N2 N 1.2759(4) 0.3749(3) 0.0252(3)
C1 C 0.3552(4) 0.8230(4) 0.7670(3)
C2 C 0.3764(4) 0.9363(4) 0.8129(3)
H1 H 0.3984 0.9272 0.9008
C3 C 0.3651(4) 1.0636(4) 0.7278(3)
C4 C 0.3313(5) 1.0774(4) 0.5981(4)
H2 H 0.3238 1.1618 0.5409
C5 C 0.3086(5) 0.9647(4) 0.5527(4)
H3 H 0.2847 0.9743 0.4652
C6 C 0.3214(5) 0.8387(4) 0.6368(4)
H4 H 0.3071 0.7636 0.6053
C7 C 0.3766(4) 0.6837(4) 0.8587(3)
C8 C 0.3956(4) 1.1795(4) 0.7802(3)
C9 C 0.7547(5) 0.2323(4) 0.7496(4)
H5 H 0.7651 0.1586 0.8203
C10 C 0.8675(5) 0.2149(5) 0.6579(4)
H6 H 0.9513 0.1313 0.6680
C11 C 0.8562(4) 0.3226(4) 0.5499(4)
C12 C 0.7298(5) 0.4451(4) 0.5453(4)
H7 H 0.7177 0.5223 0.4777
C13 C 0.6230(5) 0.4528(4) 0.6395(4)
H8 H 0.5384 0.5356 0.6319
C14 C 1.1810(5) 0.5004(4) 0.0552(4)
H9 H 1.1834 0.5854 0.0047
C15 C 1.0800(5) 0.5110(4) 0.1568(4)
H10 H 1.0154 0.6014 0.1719
C16 C 1.0739(5) 0.3875(4) 0.2368(4)
C17 C 1.1709(5) 0.2569(5) 0.2044(4)
H11 H 1.1704 0.1705 0.2534
C18 C 1.2680(5) 0.2545(5) 0.0998(4)
H12 H 1.3309 0.1654 0.0802
C19 C 0.9686(5) 0.3033(5) 0.4462(4)
H13 H 1.0466 0.2149 0.4525
C20 C 0.9672(5) 0.4021(5) 0.3446(4)
H14 H 0.8900 0.4907 0.3411
O2A O 0.5960(3) 0.3248(3) 1.0234(2)
O3_2 O 0.3352(3) 0.3097(3) 0.7292(3)
O4_2 O 0.4829(3) 0.1444(3) 0.8747(2)
N2_2 N 0.2759(4) 0.3749(3) 1.0252(3)
Co1A Co 0.55025(6) 0.63431(5) 1.12016(5)
Co1_2 Co 0.44975(6) 1.36569(5) 0.87984(5)
Co1_3 Co 1.44975(6) 0.36569(5) -0.12016(5)
loop_
_geom_bond_atom_site_label_1
_geom_bond_atom_site_label_2
_geom_bond_site_symmetry_1
_geom_bond_site_symmetry_2
Co1 O1 1_555 1_555
O1 C7 1_555 1_555
O2 C7 1_555 1_555
O3 C8 1_555 1_555
O4 C8 1_555 1_555
N1 Co1 1_555 1_555
N2 C14 1_555 1_555
C1 C2 1_555 1_555
C2 H1 1_555 1_555
C3 C2 1_555 1_555
C4 C3 1_555 1_555
H2 C4 1_555 1_555
C5 C4 1_555 1_555
H3 C5 1_555 1_555
C6 C1 1_555 1_555
H4 C6 1_555 1_555
C7 C1 1_555 1_555
C8 C3 1_555 1_555
C9 N1 1_555 1_555
H5 C9 1_555 1_555
C10 C9 1_555 1_555
H6 C10 1_555 1_555
C11 C10 1_555 1_555
C12 C11 1_555 1_555
H7 C12 1_555 1_555
C13 N1 1_555 1_555
H8 C13 1_555 1_555
C14 H9 1_555 1_555
C15 C14 1_555 1_555
H10 C15 1_555 1_555
C16 C15 1_555 1_555
C17 C16 1_555 1_555
H11 C17 1_555 1_555
C18 N2 1_555 1_555
H12 C18 1_555 1_555
C19 C11 1_555 1_555
H13 C19 1_555 1_555
C20 C16 1_555 1_555
H14 C20 1_555 1_555
O2A Co1 1_555 1_555
O3_2 Co1 1_555 1_555
O4_2 Co1 1_555 1_555
N2_2 Co1 1_555 1_555
Co1A O2 1_555 1_555
Co1_2 O3 1_555 1_555
Co1_3 N2 1_555 1_555
O4 Co1_2 1_555 1_555
C5 C6 1_555 1_555
C12 C13 1_555 1_555
C17 C18 1_555 1_555
C19 C20 1_555 1_555

#END
