
#######################################################################
#
#                 Cambridge Crystallographic Data Centre
#                                CCDC 
#
#######################################################################
#
# If this CIF has been generated from an entry in the Cambridge 
# Structural Database, then it will include bibliographic, chemical, 
# crystal, experimental, refinement or atomic coordinate data resulting 
# from the CCDC's data processing and validation procedures.
#
#######################################################################

data_BAZVED
_symmetry_cell_setting           tetragonal
_symmetry_space_group_name_H-M   'P 42/n'
_symmetry_Int_Tables_number      86
_space_group_name_Hall           '-P 4bc'
loop_
_symmetry_equiv_pos_site_id
_symmetry_equiv_pos_as_xyz
1 x,y,z
2 -y,1/2+x,1/2+z
3 1/2+y,-x,1/2+z
4 1/2+x,1/2+y,-z
5 -x,-y,-z
6 y,1/2-x,1/2-z
7 1/2-y,x,1/2-z
8 1/2-x,1/2-y,z
_cell_length_a                   12.291(1)
_cell_length_b                   12.291(1)
_cell_length_c                   14.574(2)
_cell_angle_alpha                90
_cell_angle_beta                 90
_cell_angle_gamma                90
_cell_volume                     2201.67
loop_
_atom_site_label
_atom_site_type_symbol
_atom_site_fract_x
_atom_site_fract_y
_atom_site_fract_z
Cu1 Cu -0.7500 0.2500 0.2500
O1 O -0.7500 0.2500 0.0865(3)
H1 H -0.673(3) 0.242(3) 0.053(3)
N1 N -0.6203(3) 0.3459(3) 0.2387(2)
C1 C -0.6241(4) 0.4428(3) 0.1838(3)
C2 C -0.5337(4) 0.4836(4) 0.1393(3)
H2 H -0.4671 0.4483 0.1454
C3 C -0.5409(4) 0.5762(3) 0.0860(3)
H3 H -0.4790 0.6041 0.0578
C4 C -0.6395(4) 0.6268(3) 0.0745(3)
H4 H -0.6447 0.6884 0.0378
C5 C -0.7298(4) 0.5867(3) 0.1172(3)
H5 H -0.7962 0.6217 0.1090
C6 C -0.7253(3) 0.4949(3) 0.1724(3)
C7 C -0.5328(3) 0.3279(3) 0.2801(3)
H6 H -0.4813 0.3833 0.2810
H1G H -0.827(3) 0.258(3) 0.053(3)
O1E O -0.7500 0.2500 0.4135(3)
H1E H -0.758(3) 0.173(3) 0.447(3)
H1F H -0.742(3) 0.327(3) 0.447(3)
C7F C -0.8279(3) 0.4672(3) 0.2199(3)
N1F N -0.8459(3) 0.3797(3) 0.2613(2)
N1E N -0.6541(3) 0.1203(3) 0.2613(2)
C1E C -0.5572(3) 0.1241(4) 0.3162(3)
C2E C -0.5164(4) 0.0337(4) 0.3607(3)
H2E H -0.5517 -0.0329 0.3546
C3E C -0.4238(3) 0.0409(4) 0.4140(3)
H3E H -0.3959 -0.0210 0.4422
C4E C -0.3732(3) 0.1395(4) 0.4255(3)
H4E H -0.3116 0.1447 0.4622
C5E C -0.4133(3) 0.2298(4) 0.3828(3)
H5E H -0.3783 0.2962 0.3910
C6E C -0.5051(3) 0.2253(3) 0.3276(3)
C7E C -0.6721(3) 0.0328(3) 0.2199(3)
C6G C -0.7747(3) 0.0051(3) 0.1724(3)
C1G C -0.8759(4) 0.0572(3) 0.1838(3)
N1G N -0.8797(3) 0.1541(3) 0.2387(2)
C7G C -0.9672(3) 0.1721(3) 0.2801(3)
C6F C -0.9949(3) 0.2747(3) 0.3276(3)
C1F C -0.9428(3) 0.3759(4) 0.3162(3)
C2F C -0.9836(4) 0.4663(4) 0.3607(3)
H2F H -0.9483 0.5329 0.3546
C3F C -1.0762(3) 0.4591(4) 0.4140(3)
H3F H -1.1041 0.5210 0.4422
C4F C -1.1268(3) 0.3605(4) 0.4255(3)
H4F H -1.1884 0.3553 0.4622
C5F C -1.0867(3) 0.2702(4) 0.3828(3)
H5F H -1.1217 0.2038 0.3910
H6G H -1.0187 0.1167 0.2810
C2G C -0.9663(4) 0.0164(4) 0.1393(3)
H2G H -1.0329 0.0517 0.1454
C3G C -0.9591(4) -0.0762(3) 0.0860(3)
H3G H -1.0210 -0.1041 0.0578
C4G C -0.8605(4) -0.1268(3) 0.0745(3)
H4G H -0.8553 -0.1884 0.0378
C5G C -0.7702(4) -0.0867(3) 0.1172(3)
H5G H -0.7038 -0.1217 0.1090
H6E H -0.6167 -0.0187 0.2190
H6F H -0.8833 0.5187 0.2190
O2 O 0.0472(2) 0.2869(2) 0.0160(2)
O3 O -0.2742(2) 0.3482(2) 0.2225(2)
H7 H -0.2500 0.2500 0.227(4)
C8 C -0.1259(3) 0.3680(3) 0.1183(3)
H8 H -0.1104 0.2941 0.1214
C9 C -0.2113(3) 0.4097(3) 0.1714(3)
C10 C 0.2286(4) 0.4770(4) -0.1687(3)
H9 H -0.2822 0.5538 0.2055
C11 C 0.1675(3) 0.4116(3) -0.1125(3)
H10 H -0.1813 0.6628 0.1114
C12 C 0.0253(3) 0.3844(3) 0.0065(3)
C13 C -0.0639(3) 0.4335(3) 0.0614(3)
C14 C 0.0852(3) 0.4541(3) -0.0570(3)
C9D C 0.2113(3) 0.5903(3) -0.1714(3)
O3D O 0.2742(2) 0.6518(2) -0.2225(2)
H7C H 0.2500 0.7500 -0.227(4)
O3C O 0.2258(2) 0.8482(2) -0.2225(2)
C8D C 0.1259(3) 0.6320(3) -0.1183(3)
H8D H 0.1104 0.7059 -0.1214
C13D C 0.0639(3) 0.5665(3) -0.0614(3)
C12D C -0.0253(3) 0.6156(3) -0.0065(3)
O2D O -0.0472(2) 0.7131(2) -0.0160(2)
C14D C -0.0852(3) 0.5459(3) 0.0570(3)
C11D C -0.1675(3) 0.5884(3) 0.1125(3)
C10D C -0.2286(4) 0.5230(4) 0.1687(3)
H9D H 0.2822 0.4462 -0.2055
H10D H 0.1813 0.3372 -0.1114
loop_
_geom_bond_atom_site_label_1
_geom_bond_atom_site_label_2
_geom_bond_site_symmetry_1
_geom_bond_site_symmetry_2
Cu1 O1 1_555 1_555
O1 H1 1_555 1_555
N1 Cu1 1_555 1_555
C1 N1 1_555 1_555
C2 C1 1_555 1_555
H2 C2 1_555 1_555
C3 C2 1_555 1_555
H3 C3 1_555 1_555
C4 C3 1_555 1_555
H4 C4 1_555 1_555
C5 C4 1_555 1_555
H5 C5 1_555 1_555
C6 C1 1_555 1_555
C7 N1 1_555 1_555
H6 C7 1_555 1_555
O2 C12 1_555 1_555
O3 H7 1_555 1_555
C8 H8 1_555 1_555
C9 O3 1_555 1_555
C10 C11 1_555 1_555
H9 C10D 1_555 1_555
C11 C14 1_555 1_555
H10 C11D 1_555 1_555
C12 C13 1_555 1_555
C13 C8 1_555 1_555
C14 C12 1_555 1_555
H1G O1 1_555 1_555
O1E Cu1 1_555 1_555
H1E O1E 1_555 1_555
H1F O1E 1_555 1_555
C7F C6 1_555 1_555
N1F Cu1 1_555 1_555
N1E Cu1 1_555 1_555
C1E N1E 1_555 1_555
C2E C1E 1_555 1_555
H2E C2E 1_555 1_555
C3E C2E 1_555 1_555
H3E C3E 1_555 1_555
C4E C3E 1_555 1_555
H4E C4E 1_555 1_555
C5E C4E 1_555 1_555
H5E C5E 1_555 1_555
C6E C7 1_555 1_555
C7E N1E 1_555 1_555
C6G C7E 1_555 1_555
C1G C6G 1_555 1_555
N1G Cu1 1_555 1_555
C7G N1G 1_555 1_555
C6F C7G 1_555 1_555
C1F N1F 1_555 1_555
C2F C1F 1_555 1_555
H2F C2F 1_555 1_555
C3F C2F 1_555 1_555
H3F C3F 1_555 1_555
C4F C3F 1_555 1_555
H4F C4F 1_555 1_555
C5F C6F 1_555 1_555
H5F C5F 1_555 1_555
H6G C7G 1_555 1_555
C2G C1G 1_555 1_555
H2G C2G 1_555 1_555
C3G C2G 1_555 1_555
H3G C3G 1_555 1_555
C4G C3G 1_555 1_555
H4G C4G 1_555 1_555
C5G C6G 1_555 1_555
H5G C5G 1_555 1_555
H6E C7E 1_555 1_555
H6F C7F 1_555 1_555
C9D C10 1_555 1_555
O3D C9D 1_555 1_555
H7C O3D 1_555 1_555
O3C H7C 1_555 1_555
C8D C9D 1_555 1_555
H8D C8D 1_555 1_555
C13D C14 1_555 1_555
C12D C13D 1_555 1_555
O2D C12D 1_555 1_555
C14D C13 1_555 1_555
C11D C14D 1_555 1_555
C10D C9 1_555 1_555
H9D C10 1_555 1_555
H10D C11 1_555 1_555
C5 C6 1_555 1_555
C8 C9 1_555 1_555
C7F N1F 1_555 1_555
C1E C6E 1_555 1_555
C5E C6E 1_555 1_555
C1G N1G 1_555 1_555
C6F C1F 1_555 1_555
C4F C5F 1_555 1_555
C4G C5G 1_555 1_555
C8D C13D 1_555 1_555
C12D C14D 1_555 1_555
C11D C10D 1_555 1_555

#END
