
#######################################################################
#
#                 Cambridge Crystallographic Data Centre
#                                CCDC 
#
#######################################################################
#
# If this CIF has been generated from an entry in the Cambridge 
# Structural Database, then it will include bibliographic, chemical, 
# crystal, experimental, refinement or atomic coordinate data resulting 
# from the CCDC's data processing and validation procedures.
#
#######################################################################

data_BCETPN
_symmetry_cell_setting           monoclinic
_symmetry_space_group_name_H-M   'B 21/c'
_symmetry_Int_Tables_number      14
_space_group_name_Hall           '-B 2yab'
loop_
_symmetry_equiv_pos_site_id
_symmetry_equiv_pos_as_xyz
1 x,y,z
2 1/2+x,y,1/2+z
3 -x,1/2+y,1/2-z
4 1/2-x,1/2+y,-z
5 -x,-y,-z
6 1/2-x,-y,1/2-z
7 x,1/2-y,1/2+z
8 1/2+x,1/2-y,z
_cell_length_a                   13.907
_cell_length_b                   21.055
_cell_length_c                   8.496
_cell_angle_alpha                90
_cell_angle_beta                 97.46
_cell_angle_gamma                90
_cell_volume                     2466.67
loop_
_atom_site_label
_atom_site_type_symbol
_atom_site_fract_x
_atom_site_fract_y
_atom_site_fract_z
Ni1 Ni 0.00000 0.00000 0.00000
Br1 Br -0.10540 0.06163 0.17294
P1 P 0.09509 0.09505 -0.03924
C1 C 0.04826 0.17207 0.01872
C2 C -0.04890 0.19022 -0.07604
C3 C -0.07884 0.25307 -0.02711
N1 N -0.10046 0.30171 0.01442
C4 C 0.11931 0.10745 -0.24486
C5 C 0.18089 0.16507 -0.27496
C6 C 0.18506 0.17427 -0.44539
N2 N 0.18609 0.18239 -0.57686
C7 C 0.21403 0.09803 0.08263
C8 C 0.28301 0.04543 0.04653
C9 C 0.35554 0.03350 0.18393
N3 N 0.40739 0.02346 0.29565
H1 H 0.09560 0.20560 0.00440
H2 H 0.04080 0.16580 0.12170
H3 H -0.09670 0.15900 -0.05790
H4 H -0.04330 0.19110 -0.18360
H5 H 0.05490 0.11000 -0.31220
H6 H 0.14730 0.07070 -0.26420
H7 H 0.24530 0.16060 -0.22720
H8 H 0.15190 0.20050 -0.24560
H9 H 0.20000 0.09440 0.18720
H10 H 0.24350 0.14070 0.07710
H11 H 0.31110 0.05610 -0.03110
H12 H 0.25160 0.00280 0.02160
Br1D Br 0.10540 -0.06163 -0.17294
P1D P -0.09509 -0.09505 0.03924
N3E N 0.09261 -0.02346 0.20435
N3A N -0.09261 0.02346 -0.20435
C1D C -0.04826 -0.17207 -0.01872
C4D C -0.11931 -0.10745 0.24486
C7D C -0.21403 -0.09803 -0.08263
Ni1A Ni 0.50000 0.00000 0.50000
C2D C 0.04890 -0.19022 0.07604
H1D H -0.09560 -0.20560 -0.00440
H2D H -0.04080 -0.16580 -0.12170
C5D C -0.18089 -0.16507 0.27496
H5D H -0.05490 -0.11000 0.31220
H6D H -0.14730 -0.07070 0.26420
C8D C -0.28301 -0.04543 -0.04653
H9D H -0.20000 -0.09440 -0.18720
H10D H -0.24350 -0.14070 -0.07710
C3D C 0.07884 -0.25307 0.02711
H3D H 0.09670 -0.15900 0.05790
H4D H 0.04330 -0.19110 0.18360
C6D C -0.18506 -0.17427 0.44539
H7D H -0.24530 -0.16060 0.22720
H8D H -0.15190 -0.20050 0.24560
C9D C -0.35554 -0.03350 -0.18393
H11D H -0.31110 -0.05610 0.03110
H12D H -0.25160 -0.00280 -0.02160
N1D N 0.10046 -0.30171 -0.01442
N2D N -0.18609 -0.18239 0.57686
N3D N -0.40739 -0.02346 -0.29565
Ni1A_2 Ni -0.50000 0.00000 -0.50000
loop_
_geom_bond_atom_site_label_1
_geom_bond_atom_site_label_2
_geom_bond_site_symmetry_1
_geom_bond_site_symmetry_2
Ni1 Br1 1_555 1_555
P1 Ni1 1_555 1_555
C1 P1 1_555 1_555
C2 C1 1_555 1_555
C3 C2 1_555 1_555
N1 C3 1_555 1_555
C4 P1 1_555 1_555
C5 C4 1_555 1_555
C6 C5 1_555 1_555
N2 C6 1_555 1_555
C7 P1 1_555 1_555
C8 C7 1_555 1_555
C9 C8 1_555 1_555
N3 C9 1_555 1_555
H1 C1 1_555 1_555
H2 C1 1_555 1_555
H3 C2 1_555 1_555
H4 C2 1_555 1_555
H5 C4 1_555 1_555
H6 C4 1_555 1_555
H7 C5 1_555 1_555
H8 C5 1_555 1_555
H9 C7 1_555 1_555
H10 C7 1_555 1_555
H11 C8 1_555 1_555
H12 C8 1_555 1_555
Br1D Ni1 1_555 1_555
P1D Ni1 1_555 1_555
N3E Ni1 1_555 1_555
N3A Ni1 1_555 1_555
C1D P1D 1_555 1_555
C4D P1D 1_555 1_555
C7D P1D 1_555 1_555
Ni1A N3 1_555 1_555
C2D C1D 1_555 1_555
H1D C1D 1_555 1_555
H2D C1D 1_555 1_555
C5D C4D 1_555 1_555
H5D C4D 1_555 1_555
H6D C4D 1_555 1_555
C8D C7D 1_555 1_555
H9D C7D 1_555 1_555
H10D C7D 1_555 1_555
C3D C2D 1_555 1_555
H3D C2D 1_555 1_555
H4D C2D 1_555 1_555
C6D C5D 1_555 1_555
H7D C5D 1_555 1_555
H8D C5D 1_555 1_555
C9D C8D 1_555 1_555
H11D C8D 1_555 1_555
H12D C8D 1_555 1_555
N1D C3D 1_555 1_555
N2D C6D 1_555 1_555
N3D C9D 1_555 1_555
Ni1A_2 N3D 1_555 1_555

#END
