
#######################################################################
#
#                 Cambridge Crystallographic Data Centre
#                                CCDC 
#
#######################################################################
#
# If this CIF has been generated from an entry in the Cambridge 
# Structural Database, then it will include bibliographic, chemical, 
# crystal, experimental, refinement or atomic coordinate data resulting 
# from the CCDC's data processing and validation procedures.
#
#######################################################################

data_BEBGEV01
_symmetry_cell_setting           monoclinic
_symmetry_space_group_name_H-M   'P 21/n'
_symmetry_Int_Tables_number      14
_space_group_name_Hall           '-P 2yn'
loop_
_symmetry_equiv_pos_site_id
_symmetry_equiv_pos_as_xyz
1 x,y,z
2 1/2-x,1/2+y,1/2-z
3 -x,-y,-z
4 1/2+x,1/2-y,1/2+z
_cell_length_a                   7.6812(15)
_cell_length_b                   18.708(4)
_cell_length_c                   8.7170(17)
_cell_angle_alpha                90
_cell_angle_beta                 112.40(3)
_cell_angle_gamma                90
_cell_volume                     1158.12
loop_
_atom_site_label
_atom_site_type_symbol
_atom_site_fract_x
_atom_site_fract_y
_atom_site_fract_z
Cd1 Cd 1.0000 0.0000 0.5000
N1 N 0.7605(3) 0.04612(12) 0.2648(3)
N2 N 0.4820(3) 0.08563(13) 0.1010(3)
N3 N -0.1191(3) 0.30699(13) 0.1167(3)
N4 N -0.3426(3) 0.38816(13) 0.0481(3)
C1 C 0.5889(4) 0.06224(17) 0.2529(3)
H1 H 0.5472 0.0579 0.3396
C2 C 0.0740(4) 0.21016(16) 0.0662(4)
H2 H 0.0267 0.2211 -0.0514
H3 H -0.0085 0.1746 0.0836
C3 C 0.5924(5) 0.08462(15) 0.0098(4)
H4 H 0.5573 0.0983 -0.1005
C4 C -0.1678(4) 0.37469(15) 0.0684(4)
H5 H -0.0872 0.4080 0.0513
C5 C 0.2694(4) 0.17956(16) 0.1183(4)
H6 H 0.3462 0.2131 0.0866
H7 H 0.3227 0.1761 0.2384
C6 C 0.0691(4) 0.2761(2) 0.1599(5)
H8 H 0.1205 0.2651 0.2775
H9 H 0.1501 0.3116 0.1402
C7 C -0.2734(5) 0.27555(18) 0.1289(5)
H10 H -0.2830 0.2287 0.1602
C8 C -0.4090(5) 0.32568(17) 0.0869(5)
H11 H -0.5300 0.3189 0.0845
C9 C 0.2845(4) 0.10865(18) 0.0492(5)
H12 H 0.2156 0.0738 0.0863
H13 H 0.2277 0.1107 -0.0709
Cl1 Cl 0.80399(9) 0.04188(4) 0.68158(8)
C10 C 0.7631(4) 0.05986(14) 0.1114(4)
H14 H 0.8661 0.0532 0.0817
Cd1A Cd -0.5000 0.5000 0.0000
Cd1A_2 Cd 2.5000 -0.5000 1.0000
N1B N 1.2395(3) -0.04612(12) 0.7352(3)
N2B N 1.5180(3) -0.08563(13) 0.8990(3)
N3B N 2.1191(3) -0.30699(13) 0.8833(3)
N4B N 2.3426(3) -0.38816(13) 0.9519(3)
N4A N 0.8426(3) -0.11184(13) 0.4519(3)
N4C N 1.1574(3) 0.11184(13) 0.5481(3)
C1B C 1.4111(4) -0.06224(17) 0.7471(3)
H1B H 1.4528 -0.0579 0.6604
C2B C 1.9260(4) -0.21016(16) 0.9338(4)
H2B H 1.9733 -0.2211 1.0514
H3B H 2.0085 -0.1746 0.9164
C3B C 1.4076(5) -0.08462(15) 0.9902(4)
H4B H 1.4427 -0.0983 1.1005
C4B C 2.1678(4) -0.37469(15) 0.9316(4)
H5B H 2.0872 -0.4080 0.9487
C5B C 1.7306(4) -0.17956(16) 0.8817(4)
H6B H 1.6538 -0.2131 0.9134
H7B H 1.6773 -0.1761 0.7616
C6B C 1.9309(4) -0.2761(2) 0.8401(5)
H8B H 1.8795 -0.2651 0.7225
H9B H 1.8499 -0.3116 0.8598
C7B C 2.2734(5) -0.27555(18) 0.8711(5)
H10B H 2.2830 -0.2287 0.8398
C8B C 2.4090(5) -0.32568(17) 0.9131(5)
H11B H 2.5300 -0.3189 0.9155
C9B C 1.7155(4) -0.10865(18) 0.9508(5)
H12B H 1.7844 -0.0738 0.9137
H13B H 1.7723 -0.1107 1.0709
Cl1B Cl 1.19601(9) -0.04188(4) 0.31842(8)
C10B C 1.2369(4) -0.05986(14) 0.8886(4)
H14B H 1.1339 -0.0532 0.9183
loop_
_geom_bond_atom_site_label_1
_geom_bond_atom_site_label_2
_geom_bond_site_symmetry_1
_geom_bond_site_symmetry_2
Cd1 N1 1_555 1_555
N1 C1 1_555 1_555
N2 C1 1_555 1_555
N3 C4 1_555 1_555
N4 C4 1_555 1_555
C1 H1 1_555 1_555
C2 H2 1_555 1_555
H3 C2 1_555 1_555
C3 N2 1_555 1_555
H4 C3 1_555 1_555
C4 H5 1_555 1_555
C5 C2 1_555 1_555
H6 C5 1_555 1_555
H7 C5 1_555 1_555
C6 N3 1_555 1_555
H8 C6 1_555 1_555
H9 C6 1_555 1_555
C7 N3 1_555 1_555
H10 C7 1_555 1_555
C8 N4 1_555 1_555
H11 C8 1_555 1_555
C9 N2 1_555 1_555
H12 C9 1_555 1_555
H13 C9 1_555 1_555
Cl1 Cd1 1_555 1_555
C10 N1 1_555 1_555
H14 C10 1_555 1_555
Cd1A N4 1_555 1_555
Cd1A_2 N4B 1_555 1_555
N1B Cd1 1_555 1_555
N2B C1B 1_555 1_555
N3B C4B 1_555 1_555
N4B C4B 1_555 1_555
N4A Cd1 1_555 1_555
N4C Cd1 1_555 1_555
C1B N1B 1_555 1_555
H1B C1B 1_555 1_555
C2B H2B 1_555 1_555
H3B C2B 1_555 1_555
C3B N2B 1_555 1_555
H4B C3B 1_555 1_555
C4B H5B 1_555 1_555
C5B C2B 1_555 1_555
H6B C5B 1_555 1_555
H7B C5B 1_555 1_555
C6B N3B 1_555 1_555
H8B C6B 1_555 1_555
H9B C6B 1_555 1_555
C7B N3B 1_555 1_555
H10B C7B 1_555 1_555
C8B N4B 1_555 1_555
H11B C8B 1_555 1_555
C9B N2B 1_555 1_555
H12B C9B 1_555 1_555
H13B C9B 1_555 1_555
Cl1B Cd1 1_555 1_555
C10B N1B 1_555 1_555
H14B C10B 1_555 1_555
C2 C6 1_555 1_555
C3 C10 1_555 1_555
C5 C9 1_555 1_555
C7 C8 1_555 1_555
C2B C6B 1_555 1_555
C3B C10B 1_555 1_555
C5B C9B 1_555 1_555
C7B C8B 1_555 1_555

#END
