
#######################################################################
#
#                 Cambridge Crystallographic Data Centre
#                                CCDC 
#
#######################################################################
#
# If this CIF has been generated from an entry in the Cambridge 
# Structural Database, then it will include bibliographic, chemical, 
# crystal, experimental, refinement or atomic coordinate data resulting 
# from the CCDC's data processing and validation procedures.
#
#######################################################################

data_BEBNUT
_symmetry_cell_setting           triclinic
_symmetry_space_group_name_H-M   'P -1'
_symmetry_Int_Tables_number      2
_space_group_name_Hall           '-P 1'
loop_
_symmetry_equiv_pos_site_id
_symmetry_equiv_pos_as_xyz
1 x,y,z
2 -x,-y,-z
_cell_length_a                   9.8189(7)
_cell_length_b                   11.2637(8)
_cell_length_c                   28.516(2)
_cell_angle_alpha                93.974(6)
_cell_angle_beta                 99.267(6)
_cell_angle_gamma                112.061(7)
_cell_volume                     2855.55
loop_
_atom_site_label
_atom_site_type_symbol
_atom_site_fract_x
_atom_site_fract_y
_atom_site_fract_z
Cl1 Cl 0.88727(16) 0.59320(14) 0.61116(5)
Na1 Na 1.1965(2) 0.5307(2) 0.72833(8)
O1 O 0.9821(4) 0.5537(4) 0.74040(13)
O2 O 1.0730(5) 0.3237(4) 0.76205(15)
O3 O 0.4206(5) 0.1767(4) 0.50267(15)
O4 O 0.9735(4) 0.7361(4) 0.43504(14)
O5 O 1.2696(4) 0.7912(4) 0.74792(14)
O6 O 0.4262(5) 0.5445(5) 0.71793(17)
O7 O 1.3040(5) 0.5830(5) 0.81103(15)
O8 O 1.5689(6) 0.6934(5) 0.99727(16)
O9 O 1.0719(6) 0.4356(5) 0.65144(16)
C1 C 0.8529(6) 0.5507(5) 0.73294(18)
C2 C 0.7208(6) 0.4237(5) 0.72943(19)
C3 C 0.7607(6) 0.3052(5) 0.7350(2)
C4 C 0.8390(6) 0.3118(5) 0.7868(2)
C5 C 0.7626(7) 0.3115(6) 0.8246(2)
C6 C 0.8294(8) 0.3279(6) 0.8736(2)
C7 C 0.9825(9) 0.3446(6) 0.8837(2)
C8 C 1.0643(7) 0.3442(6) 0.8473(2)
C9 C 0.9909(7) 0.3239(5) 0.7986(2)
C10 C 1.0725(8) 0.1955(7) 0.7458(3)
C11 C 0.9275(7) 0.1123(6) 0.7108(2)
C12 C 0.8901(8) 0.1123(6) 0.6622(2)
C13 C 0.6248(12) -0.0227(7) 0.6071(3)
C14 C 0.6431(12) 0.0808(6) 0.5745(3)
C15 C 0.6016(9) 0.2014(6) 0.5927(2)
C16 C 0.5401(6) 0.2754(5) 0.5152(2)
C17 C 0.5837(6) 0.3784(5) 0.48248(19)
C18 C 0.7321(6) 0.4721(5) 0.48912(19)
C19 C 0.7674(6) 0.5701(5) 0.45983(19)
C20 C 0.6563(6) 0.5729(6) 0.4218(2)
C21 C 0.5094(6) 0.4774(6) 0.4145(2)
C22 C 0.4742(6) 0.3823(6) 0.4449(2)
C23 C 0.9239(6) 0.6780(5) 0.4688(2)
C24 C 1.1563(6) 0.8101(6) 0.5285(2)
C25 C 1.1525(8) 0.9455(6) 0.5371(2)
C26 C 1.0835(7) 0.9698(6) 0.5798(2)
C27 C 1.3126(7) 0.9505(7) 0.6913(2)
C28 C 1.2115(7) 0.8898(6) 0.6490(2)
C29 C 1.3854(8) 0.8941(9) 0.7298(3)
C30 C 1.2166(6) 0.8334(5) 0.78610(19)
C31 C 1.0709(6) 0.8341(5) 0.7784(2)
C32 C 0.9667(7) 0.7940(6) 0.7281(2)
C33 C 0.8265(6) 0.6725(5) 0.72699(19)
C34 C 0.6853(6) 0.6673(6) 0.7211(2)
C35 C 0.5540(6) 0.5432(6) 0.7199(2)
C36 C 0.5806(6) 0.4237(6) 0.7223(2)
C37 C 1.0169(7) 0.8718(6) 0.8173(2)
C38 C 1.1015(7) 0.9029(6) 0.8655(2)
C39 C 1.2457(7) 0.8995(6) 0.8714(2)
C40 C 1.3036(6) 0.8639(6) 0.8333(2)
C41 C 1.4575(7) 0.8511(7) 0.8440(2)
C42 C 1.4489(6) 0.7475(6) 0.8771(2)
C43 C 1.3569(6) 0.6084(6) 0.8547(2)
C44 C 1.3325(7) 0.5026(7) 0.8854(2)
C45 C 1.2320(8) 0.3645(7) 0.8611(3)
C46 C 1.4024(8) 0.5328(7) 0.9324(2)
C47 C 1.5020(7) 0.6675(7) 0.9544(2)
C48 C 1.5186(7) 0.7726(7) 0.9240(2)
C49 C 1.0343(9) 0.9312(7) 0.9083(3)
C50 C 0.9170(14) 0.9964(11) 0.8924(4)
C52 C 1.1559(16) 1.0001(16) 0.9539(5)
C54 C 0.9366(13) 0.8029(10) 0.9219(4)
C56 C 0.7404(9) 0.3245(7) 0.9139(2)
C57 C 0.5558(12) 0.2681(12) 0.8924(4)
C59 C 0.7545(17) 0.2330(15) 0.9505(5)
C61 C 0.7757(18) 0.4596(12) 0.9383(5)
N1 N 0.8052(7) 0.0299(5) 0.7263(2)
N2 N 0.6941(8) -0.0197(6) 0.6902(3)
N3 N 0.7383(8) 0.0266(7) 0.6508(3)
N4 N 0.6342(5) 0.2922(4) 0.55815(17)
N5 N 1.0028(5) 0.7063(4) 0.51434(16)
N6 N 1.1818(6) 0.9818(5) 0.62723(17)
N7 N 1.2649(7) 1.1010(5) 0.6534(2)
N8 N 1.3433(7) 1.0810(6) 0.6931(2)
H1 H 0.8261 0.3026 0.7131
H2 H 0.6682 0.2282 0.7265
H3 H 0.6627 0.3010 0.8168
H4 H 1.0318 0.3573 0.9158
H5 H 1.0826 0.1510 0.7736
H6 H 1.1564 0.2088 0.7299
H7 H 0.9496 0.1574 0.6419
H8 H 0.5313 -0.0490 0.6103
H9 H 0.6510 -0.0813 0.5864
H10 H 0.7408 0.1146 0.5700
H11 H 0.5703 0.0369 0.5449
H12 H 0.4984 0.1749 0.5956
H13 H 0.6661 0.2441 0.6239
H14 H 0.7002 0.3697 0.5687
H15 H 0.8059 0.4685 0.5133
H16 H 0.6799 0.6372 0.4017
H17 H 0.4364 0.4776 0.3895
H18 H 0.3763 0.3204 0.4402
H19 H 0.9590 0.6714 0.5367
H20 H 1.2086 0.7950 0.5580
H21 H 1.2110 0.8088 0.5030
H22 H 1.2555 1.0091 0.5421
H23 H 1.0934 0.9579 0.5084
H24 H 1.0653 1.0485 0.5779
H25 H 0.9882 0.8967 0.5781
H26 H 1.1697 0.8009 0.6374
H27 H 1.4456 0.9625 0.7566
H28 H 1.4490 0.8579 0.7163
H29 H 0.9367 0.8642 0.7201
H30 H 1.0210 0.7774 0.7046
H31 H 0.6683 0.7427 0.7175
H32 H 0.4989 0.3449 0.7190
H33 H 0.9228 0.8767 0.8116
H34 H 1.3056 0.9219 0.9022
H35 H 1.4808 0.8255 0.8141
H36 H 1.5350 0.9340 0.8594
H37 H 1.2663 0.3486 0.8320
H38 H 1.2426 0.3054 0.8832
H39 H 1.3884 0.4674 0.9514
H40 H 1.5781 0.8585 0.9377
H41 H 0.9616 1.0708 0.8768
H42 H 0.8312 0.9325 0.8705
H43 H 0.8858 1.0217 0.9204
H47 H 1.1120 1.0168 0.9792
H48 H 1.2180 0.9543 0.9645
H49 H 1.2183 1.0797 0.9450
H53 H 0.8578 0.7525 0.8949
H54 H 0.8929 0.8188 0.9483
H55 H 0.9990 0.7569 0.9312
H59 H 0.5045 0.2593 0.9188
H60 H 0.5329 0.3271 0.8729
H61 H 0.5239 0.1852 0.8733
H65 H 0.7354 0.1490 0.9339
H66 H 0.6828 0.2234 0.9708
H67 H 0.8540 0.2678 0.9700
H71 H 0.7180 0.4550 0.9628
H72 H 0.7519 0.5111 0.9152
H73 H 0.8809 0.4999 0.9527
H77 H 1.0180 0.4747 0.6425
H78 H 1.0633 0.3880 0.6269
Na1_2 Na 0.1965(2) 0.5307(2) 0.72833(8)
O6_2 O 1.4262(5) 0.5445(5) 0.71793(17)
C51? C 1.113(3) 1.0758(19) 0.9268(11)
C53? C 1.070(4) 0.855(3) 0.9473(10)
C55? C 0.866(2) 0.894(3) 0.8954(12)
C58? C 0.653(3) 0.195(2) 0.9152(9)
C60? C 0.876(3) 0.381(3) 0.9660(8)
C62? C 0.675(3) 0.418(3) 0.9063(10)
H44? H 1.0805 1.1069 0.8970
H45? H 1.2220 1.1277 0.9366
H46? H 1.0680 1.1061 0.9513
H50? H 1.0330 0.8720 0.9749
H51? H 1.1743 0.9053 0.9525
H52? H 1.0526 0.7654 0.9426
H56? H 0.8195 0.8639 0.8620
H57? H 0.8454 0.8232 0.9131
H58? H 0.8248 0.9534 0.9075
H62? H 0.5849 0.1905 0.9363
H63? H 0.5955 0.1556 0.8831
H64? H 0.7146 0.1499 0.9258
H68? H 0.9355 0.3293 0.9680
H69? H 0.8280 0.3729 0.9931
H70? H 0.9393 0.4693 0.9662
H74? H 0.6240 0.4238 0.9318
H75? H 0.7524 0.5004 0.9058
H76? H 0.6043 0.3911 0.8761
loop_
_geom_bond_atom_site_label_1
_geom_bond_atom_site_label_2
_geom_bond_site_symmetry_1
_geom_bond_site_symmetry_2
Na1 O1 1_555 1_555
O1 C1 1_555 1_555
O2 Na1 1_555 1_555
O3 C16 1_555 1_555
O4 C23 1_555 1_555
O5 Na1 1_555 1_555
O6 C35 1_555 1_555
O7 Na1 1_555 1_555
O8 C47 1_555 1_555
O9 Na1 1_555 1_555
C1 C2 1_555 1_555
C2 C3 1_555 1_555
C3 C4 1_555 1_555
C4 C5 1_555 1_555
C5 C6 1_555 1_555
C6 C7 1_555 1_555
C7 C8 1_555 1_555
C8 C9 1_555 1_555
C9 O2 1_555 1_555
C10 O2 1_555 1_555
C11 C10 1_555 1_555
C12 C11 1_555 1_555
C13 C14 1_555 1_555
C14 C15 1_555 1_555
C15 N4 1_555 1_555
C16 C17 1_555 1_555
C17 C18 1_555 1_555
C18 C19 1_555 1_555
C19 C20 1_555 1_555
C20 C21 1_555 1_555
C21 C22 1_555 1_555
C22 C17 1_555 1_555
C23 C19 1_555 1_555
C24 C25 1_555 1_555
C25 C26 1_555 1_555
C26 N6 1_555 1_555
C27 C28 1_555 1_555
C28 N6 1_555 1_555
C29 O5 1_555 1_555
C30 O5 1_555 1_555
C31 C30 1_555 1_555
C32 C31 1_555 1_555
C33 C1 1_555 1_555
C34 C33 1_555 1_555
C35 C34 1_555 1_555
C36 C2 1_555 1_555
C37 C31 1_555 1_555
C38 C37 1_555 1_555
C39 C38 1_555 1_555
C40 C30 1_555 1_555
C41 C40 1_555 1_555
C42 C41 1_555 1_555
C43 O7 1_555 1_555
C44 C43 1_555 1_555
C45 C8 1_555 1_555
C46 C44 1_555 1_555
C47 C46 1_555 1_555
C48 C42 1_555 1_555
C49 C38 1_555 1_555
C50 C49 1_555 1_555
C52 C49 1_555 1_555
C54 C49 1_555 1_555
C56 C6 1_555 1_555
C57 C56 1_555 1_555
C59 C56 1_555 1_555
C61 C56 1_555 1_555
N1 C11 1_555 1_555
N2 N1 1_555 1_555
N3 C12 1_555 1_555
N4 C16 1_555 1_555
N5 C23 1_555 1_555
N6 N7 1_555 1_555
N7 N8 1_555 1_555
N8 C27 1_555 1_555
H1 C3 1_555 1_555
H2 C3 1_555 1_555
H3 C5 1_555 1_555
H4 C7 1_555 1_555
H5 C10 1_555 1_555
H6 C10 1_555 1_555
H7 C12 1_555 1_555
H8 C13 1_555 1_555
H9 C13 1_555 1_555
H10 C14 1_555 1_555
H11 C14 1_555 1_555
H12 C15 1_555 1_555
H13 C15 1_555 1_555
H14 N4 1_555 1_555
H15 C18 1_555 1_555
H16 C20 1_555 1_555
H17 C21 1_555 1_555
H18 C22 1_555 1_555
H19 N5 1_555 1_555
H20 C24 1_555 1_555
H21 C24 1_555 1_555
H22 C25 1_555 1_555
H23 C25 1_555 1_555
H24 C26 1_555 1_555
H25 C26 1_555 1_555
H26 C28 1_555 1_555
H27 C29 1_555 1_555
H28 C29 1_555 1_555
H29 C32 1_555 1_555
H30 C32 1_555 1_555
H31 C34 1_555 1_555
H32 C36 1_555 1_555
H33 C37 1_555 1_555
H34 C39 1_555 1_555
H35 C41 1_555 1_555
H36 C41 1_555 1_555
H37 C45 1_555 1_555
H38 C45 1_555 1_555
H39 C46 1_555 1_555
H40 C48 1_555 1_555
H41 C50 1_555 1_555
H42 C50 1_555 1_555
H43 C50 1_555 1_555
H47 C52 1_555 1_555
H48 C52 1_555 1_555
H49 C52 1_555 1_555
H53 C54 1_555 1_555
H54 C54 1_555 1_555
H55 C54 1_555 1_555
H59 C57 1_555 1_555
H60 C57 1_555 1_555
H61 C57 1_555 1_555
H65 C59 1_555 1_555
H66 C59 1_555 1_555
H67 C59 1_555 1_555
H71 C61 1_555 1_555
H72 C61 1_555 1_555
H73 C61 1_555 1_555
H77 O9 1_555 1_555
H78 O9 1_555 1_555
Na1_2 O6 1_555 1_555
O6_2 Na1 1_555 1_555
C4 C9 1_555 1_555
C13 N3 1_555 1_555
C24 N5 1_555 1_555
C27 C29 1_555 1_555
C32 C33 1_555 1_555
C35 C36 1_555 1_555
C39 C40 1_555 1_555
C42 C43 1_555 1_555
C44 C45 1_555 1_555
C47 C48 1_555 1_555
N2 N3 1_555 1_555

#END
