
#######################################################################
#
#                 Cambridge Crystallographic Data Centre
#                                CCDC 
#
#######################################################################
#
# If this CIF has been generated from an entry in the Cambridge 
# Structural Database, then it will include bibliographic, chemical, 
# crystal, experimental, refinement or atomic coordinate data resulting 
# from the CCDC's data processing and validation procedures.
#
#######################################################################

data_BEBSEI
_symmetry_cell_setting           monoclinic
_symmetry_space_group_name_H-M   'P 21/m'
_symmetry_Int_Tables_number      11
_space_group_name_Hall           '-P 2yb'
loop_
_symmetry_equiv_pos_site_id
_symmetry_equiv_pos_as_xyz
1 x,y,z
2 -x,1/2+y,-z
3 -x,-y,-z
4 x,1/2-y,z
_cell_length_a                   9.5490(7)
_cell_length_b                   13.6792(10)
_cell_length_c                   11.2541(9)
_cell_angle_alpha                90
_cell_angle_beta                 91.402(4)
_cell_angle_gamma                90
_cell_volume                     1469.6
loop_
_atom_site_label
_atom_site_type_symbol
_atom_site_fract_x
_atom_site_fract_y
_atom_site_fract_z
C16 C 1.0883(4) 0.9967(3) 1.6401(4)
C17 C 1.2222(5) 0.9770(4) 1.6782(4)
H13 H 1.2909 0.9615 1.6242
C18 C 1.2535(6) 0.9807(5) 1.7984(5)
H14 H 1.3450 0.9668 1.8233
C19 C 1.0324(5) 1.0196(4) 1.8413(4)
H15 H 0.9651 1.0339 1.8971
C20 C 0.9907(5) 1.0176(4) 1.7244(4)
H16 H 0.8980 1.0302 1.7021
N6 N 1.0613(4) 0.9930(3) 1.5144(3)
N7 N 1.1619(5) 1.0026(4) 1.8806(4)
C16B C 0.9117(4) 1.0033(3) 1.3599(4)
C17B C 0.7778(5) 1.0230(4) 1.3218(4)
H13B H 0.7091 1.0385 1.3758
C18B C 0.7465(6) 1.0193(5) 1.2016(5)
H14B H 0.6550 1.0332 1.1767
C19B C 0.9676(5) 0.9804(4) 1.1587(4)
H15B H 1.0349 0.9661 1.1029
C20B C 1.0093(5) 0.9824(4) 1.2756(4)
H16B H 1.1020 0.9698 1.2979
N6B N 0.9387(4) 1.0070(3) 1.4856(3)
N7B N 0.8381(5) 0.9974(4) 1.1194(4)
C1 C 0.7459(7) 1.7500 0.4816(5)
H1 H 0.6513 1.7500 0.4598
C2 C 0.8441(9) 1.7500 0.3929(6)
H2 H 0.8163 1.7500 0.3131
C3 C 0.9840(9) 1.7500 0.4260(7)
H3 H 1.0521 1.7500 0.3683
C4 C 1.0222(7) 1.7500 0.5426(7)
H4 H 1.1163 1.7500 0.5659
C5 C 1.0901(7) 1.7500 0.8032(7)
H5 H 1.1648 1.7500 0.7517
C6 C 1.1159(8) 1.7500 0.9223(8)
H6 H 1.2073 1.7500 0.9528
C7 C 1.0057(8) 1.7500 0.9955(7)
H7 H 1.0206 1.7500 1.0775
C8 C 0.8717(7) 1.7500 0.9484(6)
H8 H 0.7972 1.7500 1.0001
C9 C 0.9532(6) 1.7500 0.7567(6)
C10 C 0.9167(6) 1.7500 0.6282(5)
C11 C 0.6508(5) 1.5310(3) 0.8547(4)
H9 H 0.6652 1.5668 0.9241
C12 C 0.6497(6) 1.4296(4) 0.8620(5)
H10 H 0.6643 1.3978 0.9343
C13 C 0.6263(7) 1.3779(3) 0.7588(6)
C14 C 0.6049(6) 1.4254(3) 0.6520(5)
H11 H 0.5876 1.3912 0.5818
C15 C 0.6105(5) 1.5269(3) 0.6541(4)
H12 H 0.5985 1.5602 0.5825
N1 N 0.7824(5) 1.7500 0.5988(4)
N2 N 0.8435(5) 1.7500 0.8310(4)
N3 N 0.6321(3) 1.5793(2) 0.7524(3)
N4 N 0.6634(7) 1.2737(4) 0.7925(5)
N5 N 0.5848(7) 1.2748(4) 0.7258(6)
Cl1 Cl 0.50699(17) 1.7500 0.94209(14)
Cl2 Cl 0.42131(15) 1.7500 0.60744(14)
Mn1 Mn 0.62083(9) 1.7500 0.75073(7)
C11C C 0.6508(5) 0.9690(3) 0.8547(4)
H9C H 0.6652 0.9332 0.9241
C12C C 0.6497(6) 1.0704(4) 0.8620(5)
H10C H 0.6643 1.1022 0.9343
C13C C 0.6263(7) 1.1221(3) 0.7588(6)
C14C C 0.6049(6) 1.0746(3) 0.6520(5)
H11C H 0.5876 1.1088 0.5818
C15C C 0.6105(5) 0.9731(3) 0.6541(4)
H12C H 0.5985 0.9398 0.5825
N3C N 0.6321(3) 0.9207(2) 0.7524(3)
N3C_2 N 0.6321(3) 1.9207(2) 0.7524(3)
N4C N 0.6634(7) 1.2263(4) 0.7925(5)
N5C N 0.5848(7) 1.2252(4) 0.7258(6)
Mn1_2 Mn 0.62083(9) 0.7500 0.75073(7)
loop_
_geom_bond_atom_site_label_1
_geom_bond_atom_site_label_2
_geom_bond_site_symmetry_1
_geom_bond_site_symmetry_2
C1 H1 1_555 1_555
C2 C1 1_555 1_555
H2 C2 1_555 1_555
C3 C2 1_555 1_555
H3 C3 1_555 1_555
C4 C3 1_555 1_555
H4 C4 1_555 1_555
C5 H5 1_555 1_555
C6 C5 1_555 1_555
H6 C6 1_555 1_555
C7 C6 1_555 1_555
H7 C7 1_555 1_555
C8 C7 1_555 1_555
H8 C8 1_555 1_555
C9 C5 1_555 1_555
C10 C4 1_555 1_555
C11 H9 1_555 1_555
C12 C11 1_555 1_555
H10 C12 1_555 1_555
C13 C12 1_555 1_555
C14 C13 1_555 1_555
H11 C14 1_555 1_555
C15 C14 1_555 1_555
H12 C15 1_555 1_555
C16 C17 1_555 1_555
C17 H13 1_555 1_555
C18 C17 1_555 1_555
H14 C18 1_555 1_555
C19 H15 1_555 1_555
C20 C16 1_555 1_555
H16 C20 1_555 1_555
N1 C1 1_555 1_555
N2 C8 1_555 1_555
N3 C11 1_555 1_555
N4 C13 1_555 1_555
N5 C13 1_555 1_555
N6 C16 1_555 1_555
N7 C18 1_555 1_555
Cl1 Mn1 1_555 1_555
Cl2 Mn1 1_555 1_555
Mn1 N1 1_555 1_555
C11C H9C 1_555 1_555
C12C C11C 1_555 1_555
H10C C12C 1_555 1_555
C13C C12C 1_555 1_555
C14C C13C 1_555 1_555
H11C C14C 1_555 1_555
C15C C14C 1_555 1_555
H12C C15C 1_555 1_555
C16B C17B 1_555 1_555
C17B H13B 1_555 1_555
C18B C17B 1_555 1_555
H14B C18B 1_555 1_555
C19B H15B 1_555 1_555
C20B C16B 1_555 1_555
H16B C20B 1_555 1_555
N3C C11C 1_555 1_555
N3C_2 Mn1 1_555 1_555
N4C N4 1_555 1_555
N5C N4 1_555 1_555
N6B N6 1_555 1_555
N7B C18B 1_555 1_555
Mn1_2 N3C 1_555 1_555
C9 C10 1_555 1_555
C9 N2 1_555 1_555
C10 N1 1_555 1_555
C15 N3 1_555 1_555
C19 C20 1_555 1_555
C19 N7 1_555 1_555
N2 Mn1 1_555 1_555
N3 Mn1 1_555 1_555
N4 N5 1_555 1_555
N5 N4C 1_555 1_555
N5 N5C 1_555 1_555
C13C N4C 1_555 1_555
C13C N5C 1_555 1_555
C15C N3C 1_555 1_555
C16B N6B 1_555 1_555
C19B C20B 1_555 1_555
C19B N7B 1_555 1_555
N4C N5C 1_555 1_555

#END
