
#######################################################################
#
#                 Cambridge Crystallographic Data Centre
#                                CCDC 
#
#######################################################################
#
# If this CIF has been generated from an entry in the Cambridge 
# Structural Database, then it will include bibliographic, chemical, 
# crystal, experimental, refinement or atomic coordinate data resulting 
# from the CCDC's data processing and validation procedures.
#
#######################################################################

data_BECDAP
_symmetry_cell_setting           monoclinic
_symmetry_space_group_name_H-M   'P 21/c'
_symmetry_Int_Tables_number      14
_space_group_name_Hall           '-P 2ybc'
loop_
_symmetry_equiv_pos_site_id
_symmetry_equiv_pos_as_xyz
1 x,y,z
2 -x,1/2+y,1/2-z
3 -x,-y,-z
4 x,1/2-y,1/2+z
_cell_length_a                   7.888(1)
_cell_length_b                   13.800(2)
_cell_length_c                   9.520(1)
_cell_angle_alpha                90
_cell_angle_beta                 98.91(1)
_cell_angle_gamma                90
_cell_volume                     1023.79
loop_
_atom_site_label
_atom_site_type_symbol
_atom_site_fract_x
_atom_site_fract_y
_atom_site_fract_z
K1 K 0.9462(1) 0.8765(1) 0.1162(1)
O1 O 0.4324(1) 1.1243(1) -0.2314(1)
O2 O 0.6487(2) 1.0136(1) -0.0774(2)
O3 O 0.6373(2) 0.8588(1) -0.1051(1)
O4 O 0.2955(2) 0.7130(1) -0.4968(1)
O5 O 0.2199(2) 0.7956(1) -0.6864(1)
O6 O 0.1233(2) 0.9782(1) -0.6389(1)
O7 O 0.2041(2) 1.1729(1) -0.5953(1)
O8 O 0.1319(2) 1.1879(1) -0.3877(1)
O9 O 0.9494(2) 1.0770(1) 0.1404(2)
N1 N 0.5906(2) 0.9401(1) -0.1444(1)
N2 N 0.2724(2) 0.7911(1) -0.5590(1)
N3 N 0.2009(2) 1.1434(1) -0.4746(1)
C1 C 0.3947(2) 1.0442(1) -0.3086(2)
C2 C 0.4665(2) 0.9520(1) -0.2692(2)
C3 C 0.4199(2) 0.8710(1) -0.3517(2)
C4 C 0.3089(2) 0.8790(1) -0.4768(2)
C5 C 0.2293(2) 0.9699(1) -0.5291(2)
C6 C 0.2797(2) 1.0500(1) -0.4343(2)
O5_2 O 1.2199(2) 0.7956(1) 0.3136(1)
O6_2 O 1.1233(2) 0.9782(1) 0.3611(1)
O7A O 0.7959(2) 0.6729(1) 0.0953(1)
O8B O 0.8681(2) 0.8121(1) 0.3877(1)
O9B O 1.0506(2) 0.9230(1) -0.1404(2)
K1_2 K -0.0538(1) 0.8765(1) -0.8838(1)
K1A K 0.0538(1) 1.3765(1) -0.6162(1)
K1B K 0.0538(1) 1.1235(1) -0.1162(1)
K1B_2 K 1.0538(1) 1.1235(1) -0.1162(1)
loop_
_geom_bond_atom_site_label_1
_geom_bond_atom_site_label_2
_geom_bond_site_symmetry_1
_geom_bond_site_symmetry_2
K1 O3 1_555 1_555
O1 C1 1_555 1_555
O2 N1 1_555 1_555
O3 N1 1_555 1_555
O4 N2 1_555 1_555
O5 N2 1_555 1_555
O6 C5 1_555 1_555
O7 N3 1_555 1_555
O8 N3 1_555 1_555
O9 K1 1_555 1_555
N1 C2 1_555 1_555
N2 C4 1_555 1_555
N3 C6 1_555 1_555
C1 C2 1_555 1_555
C2 C3 1_555 1_555
C3 C4 1_555 1_555
C4 C5 1_555 1_555
C5 C6 1_555 1_555
C6 C1 1_555 1_555
O5_2 K1 1_555 1_555
O6_2 K1 1_555 1_555
O7A K1 1_555 1_555
O8B K1 1_555 1_555
O9B K1 1_555 1_555
K1_2 O5 1_555 1_555
K1A O7 1_555 1_555
K1B O8 1_555 1_555
K1B_2 O9 1_555 1_555
O6 K1_2 1_555 1_555
O9B K1B_2 1_555 1_555

#END
