
#######################################################################
#
#                 Cambridge Crystallographic Data Centre
#                                CCDC 
#
#######################################################################
#
# If this CIF has been generated from an entry in the Cambridge 
# Structural Database, then it will include bibliographic, chemical, 
# crystal, experimental, refinement or atomic coordinate data resulting 
# from the CCDC's data processing and validation procedures.
#
#######################################################################

data_BECROR
_symmetry_cell_setting           triclinic
_symmetry_space_group_name_H-M   'P -1'
_symmetry_Int_Tables_number      2
_space_group_name_Hall           '-P 1'
loop_
_symmetry_equiv_pos_site_id
_symmetry_equiv_pos_as_xyz
1 x,y,z
2 -x,-y,-z
_cell_length_a                   4.6067(5)
_cell_length_b                   5.5119(6)
_cell_length_c                   10.6260(12)
_cell_angle_alpha                102.892(3)
_cell_angle_beta                 94.792(2)
_cell_angle_gamma                101.704(2)
_cell_volume                     255.187
loop_
_atom_site_label
_atom_site_type_symbol
_atom_site_fract_x
_atom_site_fract_y
_atom_site_fract_z
Cu1 Cu 0.0000 0.0000 0.0000
P1 P -0.5458(2) -0.2365(2) -0.22296(11)
O1 O -0.3256(7) -0.0069(6) -0.1323(3)
O2 O -0.8186(7) -0.3387(6) -0.1631(3)
O3 O -0.3847(11) -0.4578(8) -0.2695(4)
H1 H -0.266(12) -0.435(11) -0.253(5)
O4 O -0.2556(8) -0.2747(7) 0.0531(4)
H2 H -0.210(12) -0.370(11) 0.092(6)
H3 H -0.424(17) -0.218(13) 0.086(7)
C1 C -0.6742(11) -0.1452(10) -0.3653(5)
H4 H -0.784(14) -0.028(12) -0.342(6)
H5 H -0.827(14) -0.318(12) -0.433(7)
C2 C -0.4368(11) -0.0513(10) -0.4453(5)
H6 H -0.312(14) 0.076(12) -0.400(5)
H7 H -0.365(12) -0.198(11) -0.481(5)
C2A C -0.5632(11) 0.0513(10) -0.5547(5)
C1A C -0.3258(11) 0.1452(10) -0.6347(5)
P1A P -0.4542(2) 0.2365(2) -0.77704(11)
O1A O -0.6744(7) 0.0069(6) -0.8677(3)
O2A O -0.1814(7) 0.3387(6) -0.8369(3)
O3A O -0.6153(11) 0.4578(8) -0.7305(4)
H1A H -0.734(12) 0.435(11) -0.747(5)
H4A H -0.216(14) 0.028(12) -0.658(6)
H5A H -0.173(14) 0.318(12) -0.567(7)
H6A H -0.688(14) -0.076(12) -0.600(5)
H7A H -0.635(12) 0.198(11) -0.519(5)
O4A O 0.2556(8) 0.2747(7) -0.0531(4)
H2A H 0.210(12) 0.370(11) -0.092(6)
H3A H 0.424(17) 0.218(13) -0.086(7)
O1A_2 O 0.3256(7) 0.0069(6) 0.1323(3)
Cu1_2 Cu -1.0000 0.0000 -1.0000
loop_
_geom_bond_atom_site_label_1
_geom_bond_atom_site_label_2
_geom_bond_site_symmetry_1
_geom_bond_site_symmetry_2
Cu1 O1 1_555 1_555
P1 O1 1_555 1_555
O2 P1 1_555 1_555
O3 P1 1_555 1_555
H1 O3 1_555 1_555
O4 Cu1 1_555 1_555
H2 O4 1_555 1_555
H3 O4 1_555 1_555
C1 P1 1_555 1_555
H4 C1 1_555 1_555
H5 C1 1_555 1_555
C2 C1 1_555 1_555
H6 C2 1_555 1_555
H7 C2 1_555 1_555
C2A C2 1_555 1_555
C1A C2A 1_555 1_555
P1A C1A 1_555 1_555
O1A P1A 1_555 1_555
O2A P1A 1_555 1_555
O3A P1A 1_555 1_555
H1A O3A 1_555 1_555
H4A C1A 1_555 1_555
H5A C1A 1_555 1_555
H6A C2A 1_555 1_555
H7A C2A 1_555 1_555
O4A Cu1 1_555 1_555
H2A O4A 1_555 1_555
H3A O4A 1_555 1_555
O1A_2 Cu1 1_555 1_555
Cu1_2 O1A 1_555 1_555

#END
