
#######################################################################
#
#                 Cambridge Crystallographic Data Centre
#                                CCDC 
#
#######################################################################
#
# If this CIF has been generated from an entry in the Cambridge 
# Structural Database, then it will include bibliographic, chemical, 
# crystal, experimental, refinement or atomic coordinate data resulting 
# from the CCDC's data processing and validation procedures.
#
#######################################################################

data_BECRUX01
_symmetry_cell_setting           monoclinic
_symmetry_space_group_name_H-M   'C 2/c'
_symmetry_Int_Tables_number      15
_space_group_name_Hall           '-C 2yn'
loop_
_symmetry_equiv_pos_site_id
_symmetry_equiv_pos_as_xyz
1 x,y,z
2 -x,y,1/2-z
3 1/2+x,1/2+y,z
4 1/2-x,1/2+y,1/2-z
5 -x,-y,-z
6 x,-y,1/2+z
7 1/2-x,1/2-y,-z
8 1/2+x,1/2-y,1/2+z
_cell_length_a                   18.485(3)
_cell_length_b                   8.2738(15)
_cell_length_c                   8.2600(15)
_cell_angle_alpha                90
_cell_angle_beta                 114.461(2)
_cell_angle_gamma                90
_cell_volume                     1149.91
loop_
_atom_site_label
_atom_site_type_symbol
_atom_site_fract_x
_atom_site_fract_y
_atom_site_fract_z
Zn1 Zn 0.5000 0.55849(3) 0.7500
P1 P 0.60202(3) 0.31185(6) 0.64400(6)
O1 O 0.59108(7) 0.43297(15) 0.76793(16)
O2 O 0.53396(7) 0.30412(15) 0.45970(16)
O3 O 0.60937(8) 0.14148(16) 0.73366(16)
H1 H 0.6024 0.0688 0.6576
C1 C 0.71148(11) 0.2302(2) 0.5078(2)
H2 H 0.7151 0.1201 0.5573
H3 H 0.6672 0.2312 0.3878
C2 C 0.69359(10) 0.3510(2) 0.6272(2)
H4 H 0.6919 0.4614 0.5794
H5 H 0.7374 0.3477 0.7477
P1F P 0.89798(3) 0.18815(6) 0.35600(6)
O1F O 0.90892(7) 0.06703(15) 0.23207(16)
O3F O 0.89063(8) 0.35852(16) 0.26634(16)
H1F H 0.8976 0.4312 0.3424
C1F C 0.78852(11) 0.2698(2) 0.4922(2)
H2F H 0.7849 0.3799 0.4427
H3F H 0.8328 0.2688 0.6122
C2F C 0.80641(10) 0.1490(2) 0.3728(2)
H4F H 0.8081 0.0386 0.4206
H5F H 0.7626 0.1523 0.2523
O2F O 0.96604(7) 0.19588(15) 0.54030(16)
Zn1B Zn 1.0000 0.05849(3) 0.7500
Zn1D Zn 0.5000 0.44151(3) 0.2500
Zn1F Zn 1.0000 -0.05849(3) 0.2500
O1A O 0.40892(7) 0.43297(15) 0.73207(16)
O2D O 0.46604(7) 0.69588(15) 0.54030(16)
O2E O 0.53396(7) 0.69588(15) 0.95970(16)
O4 O 0.59574(8) 0.88191(17) 0.55818(18)
H6 H 0.6003 0.8773 0.4600
H7 H 0.5597 0.8171 0.5564
loop_
_geom_bond_atom_site_label_1
_geom_bond_atom_site_label_2
_geom_bond_site_symmetry_1
_geom_bond_site_symmetry_2
Zn1 O1 1_555 1_555
P1 O1 1_555 1_555
O2 P1 1_555 1_555
O3 P1 1_555 1_555
H1 O3 1_555 1_555
C1 H2 1_555 1_555
H3 C1 1_555 1_555
C2 P1 1_555 1_555
H4 C2 1_555 1_555
H5 C2 1_555 1_555
O4 H6 1_555 1_555
H7 O4 1_555 1_555
P1F O1F 1_555 1_555
O1F Zn1F 1_555 1_555
O3F P1F 1_555 1_555
H1F O3F 1_555 1_555
C1F C1 1_555 1_555
H2F C1F 1_555 1_555
H3F C1F 1_555 1_555
C2F P1F 1_555 1_555
H4F C2F 1_555 1_555
H5F C2F 1_555 1_555
O2F P1F 1_555 1_555
Zn1B O2F 1_555 1_555
Zn1D O2 1_555 1_555
O1A Zn1 1_555 1_555
O2D Zn1 1_555 1_555
O2E Zn1 1_555 1_555
C1 C2 1_555 1_555
C1F C2F 1_555 1_555

#END
