
#######################################################################
#
#                 Cambridge Crystallographic Data Centre
#                                CCDC 
#
#######################################################################
#
# If this CIF has been generated from an entry in the Cambridge 
# Structural Database, then it will include bibliographic, chemical, 
# crystal, experimental, refinement or atomic coordinate data resulting 
# from the CCDC's data processing and validation procedures.
#
#######################################################################

data_BEDJOL
_symmetry_cell_setting           orthorhombic
_symmetry_space_group_name_H-M   'P 21 21 21'
_symmetry_Int_Tables_number      19
_space_group_name_Hall           'P 2ac 2ab'
loop_
_symmetry_equiv_pos_site_id
_symmetry_equiv_pos_as_xyz
1 x,y,z
2 1/2-x,-y,1/2+z
3 1/2+x,1/2-y,-z
4 -x,1/2+y,1/2-z
_cell_length_a                   6.056(5)
_cell_length_b                   8.123(5)
_cell_length_c                   30.747(5)
_cell_angle_alpha                90
_cell_angle_beta                 90
_cell_angle_gamma                90
_cell_volume                     1512.53
loop_
_atom_site_label
_atom_site_type_symbol
_atom_site_fract_x
_atom_site_fract_y
_atom_site_fract_z
Ba1 Ba 0.97142(4) 0.40459(3) 0.273114(7)
C1 C 1.1358(7) 0.5576(5) 0.15324(13)
C2 C 1.3371(7) 0.4741(6) 0.13639(14)
C3 C 1.4055(7) 0.4968(5) 0.09366(14)
H1 H 1.3220 0.5614 0.0749
C4 C 1.5972(7) 0.4235(6) 0.07911(12)
C5 C 1.7219(8) 0.3275(6) 0.10687(14)
H2 H 1.8501 0.2772 0.0968
C6 C 1.6556(7) 0.3059(5) 0.14984(14)
C7 C 1.4626(7) 0.3796(5) 0.16458(12)
H3 H 1.4178 0.3655 0.1933
C8 C 1.7983(7) 0.2075(5) 0.17982(14)
C9 C 1.8700(7) 0.4137(8) 0.02362(13)
H4 H 1.8853 0.2949 0.0236
H5 H 1.9766 0.4589 0.0439
C10 C 1.9129(8) 0.4805(6) -0.02138(14)
C11 C 1.7560(8) 0.4639(7) -0.05385(15)
H6 H 1.6200 0.4166 -0.0474
C12 C 1.7991(8) 0.5164(6) -0.09544(15)
H7 H 1.6916 0.5045 -0.1168
C13 C 1.9987(7) 0.5863(5) -0.10590(11)
C14 C 2.0398(8) 0.6423(5) -0.15239(12)
C15 C 2.1572(8) 0.6021(7) -0.07407(13)
H8 H 2.2939 0.6477 -0.0808
C16 C 2.1132(8) 0.5499(7) -0.03192(15)
H9 H 2.2206 0.5620 -0.0105
O1 O 1.0828(5) 0.5547(4) 0.19196(9)
O2 O 1.0254(5) 0.6384(4) 0.12356(8)
H10 H 0.9169 0.6817 0.1347
O3 O 0.6812(5) 0.6520(4) 0.24489(9)
O4 O 1.7401(5) 0.1909(4) 0.21950(9)
O5 O 1.9711(6) 0.1482(4) 0.16570(10)
O6 O 1.6539(5) 0.4576(4) 0.03652(10)
O7 O 1.8882(5) 0.6270(4) -0.17937(10)
O8 O 2.2260(5) 0.7014(4) -0.16230(9)
Ba1C Ba 1.02858(4) 0.90459(3) 0.226886(7)
Ba1_2 Ba 1.97142(4) 0.40459(3) 0.273114(7)
Ba1C_2 Ba 2.02858(4) -0.09541(3) 0.226886(7)
Ba1A Ba 1.52858(4) 0.59541(3) -0.226886(7)
Ba1A_2 Ba 2.52858(4) 0.59541(3) -0.226886(7)
O1C O 0.9172(5) 0.0547(4) 0.30804(9)
O3C O 1.3188(5) 0.1520(4) 0.25511(9)
O4_2 O 0.7401(5) 0.1909(4) 0.21950(9)
O4C O 1.2599(5) 0.6909(4) 0.28050(9)
O5C O 1.0289(6) 0.6482(4) 0.33430(10)
O7A O 0.6118(5) 0.3730(4) 0.32063(10)
O8A O 1.2740(5) 0.2986(4) 0.33770(9)
loop_
_geom_bond_atom_site_label_1
_geom_bond_atom_site_label_2
_geom_bond_site_symmetry_1
_geom_bond_site_symmetry_2
Ba1 O1 1_555 1_555
C1 C2 1_555 1_555
C2 C3 1_555 1_555
C3 H1 1_555 1_555
C4 C3 1_555 1_555
C5 C4 1_555 1_555
H2 C5 1_555 1_555
C6 C5 1_555 1_555
C7 C2 1_555 1_555
H3 C7 1_555 1_555
C8 C6 1_555 1_555
C9 H4 1_555 1_555
H5 C9 1_555 1_555
C10 C9 1_555 1_555
C11 C10 1_555 1_555
H6 C11 1_555 1_555
C12 C11 1_555 1_555
H7 C12 1_555 1_555
C13 C12 1_555 1_555
C14 C13 1_555 1_555
C15 C13 1_555 1_555
H8 C15 1_555 1_555
C16 C10 1_555 1_555
H9 C16 1_555 1_555
O1 C1 1_555 1_555
O2 C1 1_555 1_555
H10 O2 1_555 1_555
O3 Ba1 1_555 1_555
O4 C8 1_555 1_555
O5 C8 1_555 1_555
O6 C4 1_555 1_555
O7 C14 1_555 1_555
O8 C14 1_555 1_555
Ba1C O1 1_555 1_555
Ba1_2 O4 1_555 1_555
Ba1C_2 O4 1_555 1_555
Ba1A O7 1_555 1_555
Ba1A_2 O8 1_555 1_555
O1C Ba1 1_555 1_555
O3C Ba1 1_555 1_555
O4_2 Ba1 1_555 1_555
O4C Ba1 1_555 1_555
O5C Ba1 1_555 1_555
O7A Ba1 1_555 1_555
O8A Ba1 1_555 1_555
C6 C7 1_555 1_555
C9 O6 1_555 1_555
C15 C16 1_555 1_555
O3 Ba1C 1_555 1_555
O5 Ba1C_2 1_555 1_555
Ba1C O4C 1_555 1_555

#END
