
#######################################################################
#
#                 Cambridge Crystallographic Data Centre
#                                CCDC 
#
#######################################################################
#
# If this CIF has been generated from an entry in the Cambridge 
# Structural Database, then it will include bibliographic, chemical, 
# crystal, experimental, refinement or atomic coordinate data resulting 
# from the CCDC's data processing and validation procedures.
#
#######################################################################

data_BEDMOO
_symmetry_cell_setting           orthorhombic
_symmetry_space_group_name_H-M   'P n a 21'
_symmetry_Int_Tables_number      33
_space_group_name_Hall           'P 2c -2n'
loop_
_symmetry_equiv_pos_site_id
_symmetry_equiv_pos_as_xyz
1 x,y,z
2 -x,-y,1/2+z
3 1/2+x,1/2-y,z
4 1/2-x,1/2+y,1/2+z
_cell_length_a                   21.3188(14)
_cell_length_b                   17.1245(11)
_cell_length_c                   21.1963(13)
_cell_angle_alpha                90
_cell_angle_beta                 90
_cell_angle_gamma                90
_cell_volume                     7738.21
loop_
_atom_site_label
_atom_site_type_symbol
_atom_site_fract_x
_atom_site_fract_y
_atom_site_fract_z
Zn1 Zn 0.716572(19) -0.00007(2) 0.15277(3)
N1 N 0.64643(14) 0.09229(18) 0.14966(16)
N2 N 0.28969(14) 0.41084(18) 0.15021(19)
N3 N 0.79002(15) -0.08713(19) 0.1554(2)
N4 N 1.14522(14) -0.41006(17) 0.15316(18)
C1 C 0.59520(18) 0.0873(2) 0.1114(2)
H1 H 0.5924 0.0449 0.0834
C2 C 0.54895(19) 0.1395(2) 0.1116(2)
H2 H 0.5150 0.1332 0.0837
C3 C 0.54975(18) 0.2032(2) 0.1522(2)
C4 C 0.60248(18) 0.2100(2) 0.1906(2)
H3 H 0.6063 0.2521 0.2187
C5 C 0.64946(17) 0.1536(2) 0.1868(2)
H4 H 0.6852 0.1598 0.2123
C6 C 0.49858(17) 0.2602(2) 0.1595(2)
H5 H 0.5054 0.3035 0.1859
C7 C 0.44319(18) 0.2540(2) 0.1308(3)
H6 H 0.4377 0.2119 0.1028
C8 C 0.29142(18) 0.3592(2) 0.1043(3)
H7 H 0.2579 0.3576 0.0755
C9 C 0.3413(2) 0.3063(2) 0.0965(3)
H8 H 0.3413 0.2708 0.0628
C10 C 0.3902(2) 0.3073(2) 0.1391(2)
C11 C 0.38607(18) 0.3603(2) 0.1889(2)
H9 H 0.4178 0.3628 0.2196
C12 C 0.3347(2) 0.4092(2) 0.1922(2)
H10 H 0.3318 0.4434 0.2268
C13 C 0.83616(18) -0.0855(2) 0.1139(2)
H11 H 0.8352 -0.0465 0.0827
C14 C 0.8862(2) -0.1376(2) 0.1132(3)
H12 H 0.9171 -0.1343 0.0818
C15 C 0.88970(17) -0.1949(2) 0.1602(2)
C16 C 0.83982(18) -0.1987(2) 0.2030(2)
H13 H 0.8386 -0.2381 0.2339
C17 C 0.79164(19) -0.1429(2) 0.1993(2)
H14 H 0.7591 -0.1449 0.2291
C18 C 0.9394(2) -0.2508(2) 0.1653(3)
H15 H 0.9322 -0.2958 0.1895
C19 C 0.99609(19) -0.2431(3) 0.1375(3)
H16 H 1.0036 -0.1987 0.1126
C20 C 1.09229(18) -0.4174(2) 0.1867(2)
H17 H 1.0890 -0.4596 0.2148
C21 C 1.04272(19) -0.3671(2) 0.1823(3)
H18 H 1.0057 -0.3772 0.2050
C22 C 1.0468(2) -0.3011(2) 0.1445(3)
C23 C 1.10404(18) -0.2891(2) 0.1132(2)
H19 H 1.1108 -0.2438 0.0892
C24 C 1.15061(18) -0.3457(2) 0.1185(2)
H20 H 1.1882 -0.3379 0.0961
C25 C 0.6902(2) -0.0258(3) 0.2967(2)
C26 C 0.6621(3) 0.0239(4) 0.3459(3)
C27 C 0.6953(2) 0.0166(3) 0.0051(2)
C28 C 0.6732(3) -0.0397(3) -0.0430(3)
F1 F 0.6013(3) 0.0198(4) 0.3453(4)
F2 F 0.6721(5) 0.0076(4) 0.3998(3)
F3 F 0.6623(4) 0.0966(3) 0.3425(3)
F4 F 0.6462(3) -0.1008(3) -0.0256(3)
F5 F 0.6442(4) -0.0106(3) -0.0910(4)
F6 F 0.7230(5) -0.0700(5) -0.0723(4)
O1 O 0.71385(18) 0.01205(18) 0.2510(2)
O2 O 0.68456(19) -0.0937(2) 0.3043(2)
O3 O 0.71567(15) -0.01481(17) 0.0531(2)
O4 O 0.68607(19) 0.0850(2) -0.00721(18)
Zn1B Zn 0.216572(19) 0.50007(2) 0.15277(3)
Zn1B_2 Zn 1.216572(19) -0.49993(2) 0.15277(3)
N2B N 0.78969(14) 0.08916(18) 0.15021(19)
N4B N 0.64522(14) -0.08994(17) 0.15316(18)
Zn2 Zn 0.76993(3) 0.99740(2) 0.66787(3)
N5 N 0.76479(18) 0.91317(18) 0.59222(15)
N6 N 0.72692(17) 0.58323(19) 0.24233(16)
N7 N 0.77552(18) 0.89956(19) 0.73480(18)
N8 N 0.7394(2) 0.58791(19) 1.09723(17)
C29 C 0.8070(2) 0.8557(2) 0.5867(2)
H21 H 0.8382 0.8520 0.6179
C30 C 0.8081(2) 0.8021(2) 0.5387(2)
H22 H 0.8393 0.7633 0.5373
C31 C 0.7612(2) 0.8062(2) 0.4912(2)
C32 C 0.7166(2) 0.8674(2) 0.4986(2)
H23 H 0.6851 0.8744 0.4681
C33 C 0.7192(2) 0.9153(2) 0.5486(2)
H24 H 0.6871 0.9525 0.5534
C34 C 0.7601(2) 0.7496(2) 0.4422(2)
H25 H 0.7841 0.7042 0.4481
C35 C 0.7270(2) 0.7555(2) 0.3870(2)
H26 H 0.7018 0.7999 0.3805
C36 C 0.7605(2) 0.5736(2) 0.2955(2)
H27 H 0.7833 0.5271 0.3003
C37 C 0.7632(2) 0.6274(2) 0.3427(2)
H28 H 0.7881 0.6182 0.3785
C38 C 0.7292(2) 0.6954(2) 0.3374(2)
C39 C 0.6927(2) 0.7063(2) 0.2838(2)
H29 H 0.6676 0.7511 0.2793
C40 C 0.6943(2) 0.6490(2) 0.2369(2)
H30 H 0.6711 0.6573 0.1998
C41 C 0.8149(2) 0.9002(3) 0.7847(2)
H31 H 0.8476 0.9370 0.7856
C42 C 0.8090(2) 0.8492(3) 0.8343(2)
H32 H 0.8364 0.8529 0.8688
C43 C 0.7634(3) 0.7927(3) 0.8338(2)
C44 C 0.7261(3) 0.7889(3) 0.7810(2)
H33 H 0.6951 0.7501 0.7776
C45 C 0.7343(2) 0.8417(2) 0.7335(2)
H34 H 0.7090 0.8366 0.6974
C46 C 0.7493(3) 0.7387(3) 0.8877(3)
H35 H 0.7209 0.6978 0.8800
C47 C 0.7729(3) 0.7434(3) 0.9440(2)
H36 H 0.8008 0.7847 0.9519
C48 C 0.7013(3) 0.5903(3) 1.0462(2)
H37 H 0.6671 0.5557 1.0445
C49 C 0.7102(3) 0.6398(3) 0.9980(2)
H38 H 0.6812 0.6397 0.9646
C50 C 0.7600(3) 0.6904(3) 0.9957(2)
C51 C 0.7989(3) 0.6906(3) 1.0484(2)
H39 H 0.8332 0.7250 1.0504
C52 C 0.7868(3) 0.6389(3) 1.0989(2)
H40 H 0.8128 0.6404 1.1347
C53 C 0.6263(2) 1.0176(3) 0.7055(2)
C54 C 0.5806(2) 0.9641(3) 0.7363(2)
F7 F 0.6013(3) 0.9329(4) 0.7881(3)
F8 F 0.5745(3) 0.8954(3) 0.7078(4)
F9 F 0.5274(2) 0.9845(3) 0.7461(4)
O5 O 0.66973(18) 0.98484(17) 0.67834(18)
O6 O 0.61534(19) 1.0878(2) 0.71385(19)
O7 O 0.86603(18) 1.0003(2) 0.6610(3)
C55 C 0.9176(4) 1.0309(6) 0.6563(5)
C56 C 0.9687(5) 1.0155(6) 0.7033(5)
O8 O 0.9191(6) 1.0925(6) 0.6242(6)
F10 F 0.9685(4) 0.9506(4) 0.7340(4)
F11 F 1.0256(4) 1.0184(5) 0.6769(5)
F12 F 0.9654(7) 1.0771(6) 0.7416(7)
Zn2C Zn 0.73007(3) 0.49740(2) 0.16787(3)
Zn2C_2 Zn 0.73007(3) 0.49740(2) 1.16787(3)
N6C N 0.77308(17) 1.08323(19) 0.74233(16)
N8C N 0.7606(2) 1.08791(19) 0.59723(17)
O9 O 0.9336(4) 0.4295(5) 0.0106(4)
O10 O 0.3885(9) 0.4656(11) 0.3617(10)
O11 O 0.9132(10) 0.9692(13) 0.9559(11)
O12 O 0.9638(9) 0.3212(11) -0.0669(9)
C57? C 0.9155(4) 0.9760(5) 0.6756(5)
C58? C 0.9684(5) 1.0210(6) 0.6485(6)
F13? F 0.9887(8) 1.0830(7) 0.6854(6)
F14? F 1.0165(6) 0.9762(7) 0.6411(7)
F15? F 0.9525(6) 1.0561(6) 0.5950(5)
O13? O 0.9234(4) 0.9093(4) 0.6964(4)
loop_
_geom_bond_atom_site_label_1
_geom_bond_atom_site_label_2
_geom_bond_site_symmetry_1
_geom_bond_site_symmetry_2
Zn1 N1 1_555 1_555
Zn2 N5 1_555 1_555
N1 C1 1_555 1_555
N2 C8 1_555 1_555
N3 Zn1 1_555 1_555
N4 C20 1_555 1_555
N5 C29 1_555 1_555
N6 C36 1_555 1_555
N7 Zn2 1_555 1_555
N8 C48 1_555 1_555
C1 H1 1_555 1_555
C2 C1 1_555 1_555
H2 C2 1_555 1_555
C3 C2 1_555 1_555
C4 C3 1_555 1_555
H3 C4 1_555 1_555
C5 N1 1_555 1_555
H4 C5 1_555 1_555
C6 C3 1_555 1_555
H5 C6 1_555 1_555
C7 C6 1_555 1_555
H6 C7 1_555 1_555
C8 H7 1_555 1_555
C9 C8 1_555 1_555
H8 C9 1_555 1_555
C10 C7 1_555 1_555
C11 C10 1_555 1_555
H9 C11 1_555 1_555
C12 N2 1_555 1_555
H10 C12 1_555 1_555
C13 N3 1_555 1_555
H11 C13 1_555 1_555
C14 C13 1_555 1_555
H12 C14 1_555 1_555
C15 C14 1_555 1_555
C16 C15 1_555 1_555
H13 C16 1_555 1_555
C17 N3 1_555 1_555
H14 C17 1_555 1_555
C18 C15 1_555 1_555
H15 C18 1_555 1_555
C19 C18 1_555 1_555
H16 C19 1_555 1_555
C20 H17 1_555 1_555
C21 C20 1_555 1_555
H18 C21 1_555 1_555
C22 C19 1_555 1_555
C23 C22 1_555 1_555
H19 C23 1_555 1_555
C24 N4 1_555 1_555
H20 C24 1_555 1_555
C25 C26 1_555 1_555
C26 F1 1_555 1_555
C27 C28 1_555 1_555
C28 F4 1_555 1_555
C29 H21 1_555 1_555
C30 C29 1_555 1_555
H22 C30 1_555 1_555
C31 C30 1_555 1_555
C32 C31 1_555 1_555
H23 C32 1_555 1_555
C33 N5 1_555 1_555
H24 C33 1_555 1_555
C34 C31 1_555 1_555
H25 C34 1_555 1_555
C35 C34 1_555 1_555
H26 C35 1_555 1_555
C36 H27 1_555 1_555
C37 C36 1_555 1_555
H28 C37 1_555 1_555
C38 C35 1_555 1_555
C39 C38 1_555 1_555
H29 C39 1_555 1_555
C40 N6 1_555 1_555
H30 C40 1_555 1_555
C41 N7 1_555 1_555
H31 C41 1_555 1_555
C42 C41 1_555 1_555
H32 C42 1_555 1_555
C43 C42 1_555 1_555
C44 C43 1_555 1_555
H33 C44 1_555 1_555
C45 N7 1_555 1_555
H34 C45 1_555 1_555
C46 C43 1_555 1_555
H35 C46 1_555 1_555
C47 C46 1_555 1_555
H36 C47 1_555 1_555
C48 H37 1_555 1_555
C49 C48 1_555 1_555
H38 C49 1_555 1_555
C50 C47 1_555 1_555
C51 C50 1_555 1_555
H39 C51 1_555 1_555
C52 N8 1_555 1_555
H40 C52 1_555 1_555
C53 C54 1_555 1_555
C54 F7 1_555 1_555
F2 C26 1_555 1_555
F3 C26 1_555 1_555
F5 C28 1_555 1_555
F6 C28 1_555 1_555
F8 C54 1_555 1_555
F9 C54 1_555 1_555
O1 Zn1 1_555 1_555
O2 C25 1_555 1_555
O3 Zn1 1_555 1_555
O4 C27 1_555 1_555
O5 Zn2 1_555 1_555
O6 C53 1_555 1_555
O7 Zn2 1_555 1_555
C55 O7 1_555 1_555
C56 C55 1_555 1_555
O8 C55 1_555 1_555
F10 C56 1_555 1_555
F11 C56 1_555 1_555
F12 C56 1_555 1_555
Zn1B N2 1_555 1_555
Zn1B_2 N4 1_555 1_555
Zn2C N6 1_555 1_555
Zn2C_2 N8 1_555 1_555
N2B Zn1 1_555 1_555
N4B Zn1 1_555 1_555
N6C Zn2 1_555 1_555
N8C Zn2 1_555 1_555
C4 C5 1_555 1_555
C9 C10 1_555 1_555
C11 C12 1_555 1_555
C16 C17 1_555 1_555
C21 C22 1_555 1_555
C23 C24 1_555 1_555
C25 O1 1_555 1_555
C27 O3 1_555 1_555
C32 C33 1_555 1_555
C37 C38 1_555 1_555
C39 C40 1_555 1_555
C44 C45 1_555 1_555
C49 C50 1_555 1_555
C51 C52 1_555 1_555
C53 O5 1_555 1_555

#END
