
#######################################################################
#
#                 Cambridge Crystallographic Data Centre
#                                CCDC 
#
#######################################################################
#
# If this CIF has been generated from an entry in the Cambridge 
# Structural Database, then it will include bibliographic, chemical, 
# crystal, experimental, refinement or atomic coordinate data resulting 
# from the CCDC's data processing and validation procedures.
#
#######################################################################

data_BEDMUT
_symmetry_cell_setting           triclinic
_symmetry_space_group_name_H-M   'P -1'
_symmetry_Int_Tables_number      2
_space_group_name_Hall           '-P 1'
loop_
_symmetry_equiv_pos_site_id
_symmetry_equiv_pos_as_xyz
1 x,y,z
2 -x,-y,-z
_cell_length_a                   8.0888(5)
_cell_length_b                   10.5501(7)
_cell_length_c                   13.2798(9)
_cell_angle_alpha                106.028(2)
_cell_angle_beta                 103.547(2)
_cell_angle_gamma                93.244(2)
_cell_volume                     1049.95
loop_
_atom_site_label
_atom_site_type_symbol
_atom_site_fract_x
_atom_site_fract_y
_atom_site_fract_z
Na1 Na 0.7407(3) -0.15406(19) 0.65752(15)
Na2 Na 0.2517(4) 0.4655(3) 0.4709(2)
O1 O 0.8101(4) -0.0104(3) 0.8346(2)
O2 O 0.9919(5) 0.3087(4) 1.1533(3)
O3 O 1.1227(5) 0.4032(3) 0.8695(3)
O4 O 1.1868(4) 0.0454(3) 0.9256(2)
O5 O 1.4467(4) -0.0883(3) 0.6526(2)
O6 O 1.0689(4) 0.2115(3) 0.6252(3)
O7 O 0.7753(4) 0.0184(3) 0.5926(2)
O8 O 0.4280(5) 0.3247(4) 0.5303(3)
O9 O 0.7495(4) 0.3959(3) 0.8771(2)
O10 O 0.6778(6) -0.3388(5) 0.7146(4)
H1 H 0.609(9) -0.298(7) 0.766(5)
H2 H 0.792(8) -0.342(7) 0.769(5)
O11 O 0.9451(6) -0.2633(4) 0.5748(3)
H3 H 0.945(12) -0.247(9) 0.505(5)
H4 H 1.063(7) -0.282(9) 0.593(7)
O12 O 0.0514(6) 0.5406(4) 0.3535(3)
H5 H 0.014(9) 0.491(7) 0.273(4)
H6 H 0.016(10) 0.626(6) 0.354(6)
O13 O 0.2740(6) 0.6485(5) 0.6231(4)
H7 H 0.282(11) 0.626(8) 0.693(5)
H8 H 0.389(10) 0.703(11) 0.654(10)
C1 C 0.9553(5) 0.1898(4) 0.8236(3)
C2 C 0.8819(6) 0.1029(4) 0.8820(3)
C3 C 0.9823(6) 0.2740(5) 1.0560(3)
C4 C 1.0526(6) 0.3233(4) 0.9018(4)
C5 C 1.0905(6) 0.1206(4) 0.7732(3)
C6 C 1.1956(6) 0.0505(4) 0.8336(3)
C7 C 1.3383(5) -0.0152(4) 0.6935(3)
C8 C 1.1292(6) 0.1370(5) 0.6788(3)
C9 C 0.8011(6) 0.2146(4) 0.7428(3)
C10 C 0.7350(6) 0.1288(4) 0.6353(3)
C11 C 0.5394(6) 0.2861(5) 0.6016(3)
C12 C 0.7159(6) 0.3224(4) 0.7795(4)
N1 N 0.8827(5) 0.1585(4) 0.9888(3)
N2 N 1.0713(5) 0.3459(4) 1.0104(3)
N3 N 1.3183(5) -0.0152(4) 0.7898(3)
N4 N 1.2485(5) 0.0576(4) 0.6395(3)
N5 N 0.6086(5) 0.1759(4) 0.5680(3)
N6 N 0.5824(5) 0.3524(4) 0.7059(3)
H14 H 0.848(6) 0.098(4) 1.026(4)
H15 H 1.250(7) 0.045(5) 0.565(2)
H16 H 1.125(8) 0.434(3) 1.057(4)
H17 H 0.516(7) 0.421(5) 0.734(5)
O5_2 O 0.4467(4) -0.0883(3) 0.6526(2)
O8A O 0.5720(5) -0.3247(4) 0.4697(3)
O10A O 0.3222(6) 0.3388(5) 0.2854(4)
O11A O 0.0549(6) 0.2633(4) 0.4252(3)
Na1_2 Na 1.7407(3) -0.15406(19) 0.65752(15)
Na1A Na 0.2593(3) 0.15406(19) 0.34248(15)
Na2A Na 0.7483(4) -0.4655(3) 0.5291(2)
H1A H 0.391(9) 0.298(7) 0.234(5)
H2A H 0.208(8) 0.342(7) 0.231(5)
H3A H 0.055(12) 0.247(9) 0.495(5)
H4A H -0.063(7) 0.282(9) 0.407(7)
O14 O 1.5404(5) -0.1757(4) 0.8886(4)
H9 H 1.515(12) -0.197(9) 0.946(6)
H10 H 1.53(3) -0.088(12) 0.865(15)
O15 O 1.3547(6) 0.5282(5) 0.7897(4)
H11 H 1.246(10) 0.459(9) 0.777(9)
H12 H 1.366(19) 0.578(13) 0.875(6)
O16 O 0.5104(7) 0.3419(6) 0.9830(4)
H13 H 0.590(8) 0.368(7) 0.948(5)
H18 H 0.383(10) 0.356(17) 0.971(16)
loop_
_geom_bond_atom_site_label_1
_geom_bond_atom_site_label_2
_geom_bond_site_symmetry_1
_geom_bond_site_symmetry_2
Na1 O1 1_555 1_555
Na2 O8 1_555 1_555
O1 C2 1_555 1_555
O2 C3 1_555 1_555
O3 C4 1_555 1_555
O4 C6 1_555 1_555
O5 C7 1_555 1_555
O6 C8 1_555 1_555
O7 Na1 1_555 1_555
O8 C11 1_555 1_555
O9 C12 1_555 1_555
O10 Na1 1_555 1_555
H1 O10 1_555 1_555
H2 O10 1_555 1_555
O11 Na1 1_555 1_555
H3 O11 1_555 1_555
H4 O11 1_555 1_555
O12 Na2 1_555 1_555
H5 O12 1_555 1_555
H6 O12 1_555 1_555
O13 Na2 1_555 1_555
H7 O13 1_555 1_555
H8 O13 1_555 1_555
O14 H9 1_555 1_555
H10 O14 1_555 1_555
O15 H11 1_555 1_555
H12 O15 1_555 1_555
O16 H13 1_555 1_555
C1 C2 1_555 1_555
C2 N1 1_555 1_555
C3 N1 1_555 1_555
C4 C1 1_555 1_555
C5 C1 1_555 1_555
C6 C5 1_555 1_555
C7 N3 1_555 1_555
C8 C5 1_555 1_555
C9 C1 1_555 1_555
C10 O7 1_555 1_555
C11 N5 1_555 1_555
C12 C9 1_555 1_555
N1 H14 1_555 1_555
N2 C3 1_555 1_555
N3 C6 1_555 1_555
N4 C7 1_555 1_555
N5 C10 1_555 1_555
N6 C11 1_555 1_555
H15 N4 1_555 1_555
H16 N2 1_555 1_555
H17 N6 1_555 1_555
H18 O16 1_555 1_555
O5_2 Na1 1_555 1_555
O8A Na1 1_555 1_555
O10A Na2 1_555 1_555
O11A Na2 1_555 1_555
Na1_2 O5 1_555 1_555
Na1A O8 1_555 1_555
Na2A O10 1_555 1_555
H1A O10A 1_555 1_555
H2A O10A 1_555 1_555
H3A O11A 1_555 1_555
H4A O11A 1_555 1_555
O11 Na2A 1_555 1_555
C4 N2 1_555 1_555
C8 N4 1_555 1_555
C9 C10 1_555 1_555
C12 N6 1_555 1_555
O8A Na2A 1_555 1_555
O10A Na1A 1_555 1_555
O11A Na1A 1_555 1_555

#END
