
#######################################################################
#
#                 Cambridge Crystallographic Data Centre
#                                CCDC 
#
#######################################################################
#
# If this CIF has been generated from an entry in the Cambridge 
# Structural Database, then it will include bibliographic, chemical, 
# crystal, experimental, refinement or atomic coordinate data resulting 
# from the CCDC's data processing and validation procedures.
#
#######################################################################

data_BEDPEH
_symmetry_cell_setting           tetragonal
_symmetry_space_group_name_H-M   'P 41 21 2'
_symmetry_Int_Tables_number      92
_space_group_name_Hall           'P 4abw 2nw'
loop_
_symmetry_equiv_pos_site_id
_symmetry_equiv_pos_as_xyz
1 x,y,z
2 -x,-y,1/2+z
3 1/2-y,1/2+x,1/4+z
4 1/2+y,1/2-x,3/4+z
5 1/2-x,1/2+y,1/4-z
6 1/2+x,1/2-y,3/4-z
7 y,x,-z
8 -y,-x,1/2-z
_cell_length_a                   10.6865(3)
_cell_length_b                   10.6865(3)
_cell_length_c                   41.652(3)
_cell_angle_alpha                90
_cell_angle_beta                 90
_cell_angle_gamma                90
_cell_volume                     4756.71
loop_
_atom_site_label
_atom_site_type_symbol
_atom_site_fract_x
_atom_site_fract_y
_atom_site_fract_z
Co1 Co 0.94511(5) 0.38651(5) 0.065070(13)
C1 C 0.9796(4) 0.3377(4) 0.13201(10)
C2 C 0.9194(4) 0.3194(4) 0.16492(9)
C3 C 0.8133(4) 0.2175(4) 0.16335(10)
C4 C 0.8055(4) 0.1755(4) 0.19924(10)
H1 H 0.7514 0.2374 0.2107
C5 C 0.9371(6) 0.1889(6) 0.21261(13)
H2 H 0.9345 0.2304 0.2339
H3 H 0.9760 0.1055 0.2152
C6 C 1.0117(4) 0.2661(5) 0.18951(10)
H4 H 1.0753 0.2137 0.1787
H5 H 1.0550 0.3348 0.2010
C7 C 0.7462(4) 0.0481(4) 0.20356(9)
C8 C 0.8706(5) 0.4471(4) 0.17621(10)
H6 H 0.9399 0.5072 0.1767
H7 H 0.8349 0.4389 0.1978
H8 H 0.8060 0.4768 0.1614
C9 C 0.8534(5) 0.1092(5) 0.14216(10)
H9 H 0.7866 0.0465 0.1414
H10 H 0.9295 0.0712 0.1509
H11 H 0.8700 0.1399 0.1204
C10 C 0.6859(4) 0.2667(5) 0.15158(13)
H12 H 0.6251 0.1981 0.1514
H13 H 0.6949 0.3003 0.1298
H14 H 0.6567 0.3330 0.1660
C11 C 1.4459(4) 0.3293(5) 0.07662(10)
H15 H 1.4241 0.3153 0.0992
H16 H 1.5066 0.3978 0.0751
H17 H 1.4826 0.2528 0.0677
C12 C 1.3325(4) 0.3623(4) 0.05847(9)
C13 C 1.3104(4) 0.3907(4) 0.02679(9)
C14 C 1.1808(4) 0.4075(4) 0.02391(9)
C15 C 1.1051(5) 0.4353(5) -0.00537(10)
H18 H 1.0166 0.4418 0.0005
H19 H 1.1161 0.3679 -0.0211
H20 H 1.1331 0.5146 -0.0148
C16 C 1.4043(4) 0.4043(4) 0.0000
H21 H 1.490(4) 0.402(4) 0.0098(10)
C17 C 1.0463(5) 0.0774(5) 0.05964(12)
H22 H 1.0618 0.1425 0.0757
H23 H 1.1236 0.0610 0.0477
H24 H 1.0190 0.0005 0.0704
C18 C 0.9479(4) 0.1199(4) 0.03725(11)
C19 C 0.8990(4) 0.0569(4) 0.01066(12)
C20 C 0.8115(4) 0.1393(5) -0.00258(12)
C21 C 0.7331(5) 0.1312(6) -0.03236(13)
H25 H 0.6814 0.2066 -0.0342
H26 H 0.6790 0.0574 -0.0312
H27 H 0.7878 0.1245 -0.0512
C22 C 0.9266(5) -0.0734(5) 0.0000
H28 H 0.924(5) -0.124(5) 0.0164(13)
N1 N 1.2192(3) 0.3652(3) 0.07329(7)
H29 H 1.2078 0.3509 0.0939
N2 N 1.1261(3) 0.3928(3) 0.05250(8)
N3 N 0.8945(4) 0.2327(3) 0.04069(9)
N4 N 0.8117(3) 0.2420(4) 0.01622(9)
H30 H 0.7636 0.3076 0.0130
O1 O 1.0904(3) 0.3086(4) 0.12767(8)
O2 O 0.9075(3) 0.3802(3) 0.11004(7)
O3 O 0.6268(3) 0.0435(3) 0.19956(7)
O4 O 0.8096(3) -0.0454(3) 0.21041(7)
Co1F Co 1.38651(5) -0.05489(5) -0.065070(13)
Co1D Co 0.55489(5) -0.11349(5) 0.184930(13)
Co1C Co 0.88651(5) -0.44511(5) -0.184930(13)
C1F C 1.3377(4) -0.0204(4) -0.13201(10)
C2F C 1.3194(4) -0.0806(4) -0.16492(9)
C3F C 1.2175(4) -0.1867(4) -0.16335(10)
C4F C 1.1755(4) -0.1945(4) -0.19924(10)
H1F H 1.2374 -0.2486 -0.2107
C5F C 1.1889(6) -0.0629(6) -0.21261(13)
H2F H 1.2304 -0.0655 -0.2339
H3F H 1.1055 -0.0240 -0.2152
C6F C 1.2661(5) 0.0117(4) -0.18951(10)
H4F H 1.2137 0.0753 -0.1787
H5F H 1.3348 0.0550 -0.2010
C7F C 1.0481(4) -0.2538(4) -0.20356(9)
C8F C 1.4471(4) -0.1294(5) -0.17621(10)
H6F H 1.5072 -0.0601 -0.1767
H7F H 1.4389 -0.1651 -0.1978
H8F H 1.4768 -0.1940 -0.1614
C9F C 1.1092(5) -0.1466(5) -0.14216(10)
H9F H 1.0465 -0.2134 -0.1414
H10F H 1.0712 -0.0705 -0.1509
H11F H 1.1399 -0.1300 -0.1204
C10F C 1.2667(5) -0.3141(4) -0.15158(13)
H12F H 1.1981 -0.3749 -0.1514
H13F H 1.3003 -0.3051 -0.1298
H14F H 1.3330 -0.3433 -0.1660
C11F C 1.3293(5) 0.4459(4) -0.07662(10)
H15F H 1.3153 0.4241 -0.0992
H16F H 1.3978 0.5066 -0.0751
H17F H 1.2528 0.4826 -0.0677
C12F C 1.3623(4) 0.3325(4) -0.05847(9)
C13F C 1.3907(4) 0.3104(4) -0.02679(9)
C14F C 1.4075(4) 0.1808(4) -0.02391(9)
C15F C 1.4353(5) 0.1051(5) 0.00537(10)
H18F H 1.4418 0.0166 -0.0005
H19F H 1.3679 0.1161 0.0211
H20F H 1.5146 0.1331 0.0148
H21F H 1.402(4) 0.490(4) -0.0098(10)
C17F C 1.0774(5) 0.0463(5) -0.05964(12)
H22F H 1.1425 0.0618 -0.0757
H23F H 1.0610 0.1236 -0.0477
H24F H 1.0005 0.0190 -0.0704
C18F C 1.1199(4) -0.0521(4) -0.03725(11)
C19F C 1.0569(4) -0.1010(4) -0.01066(12)
C20F C 1.1393(5) -0.1885(4) 0.00258(12)
C21F C 1.1312(6) -0.2669(5) 0.03236(13)
H25F H 1.2066 -0.3186 0.0342
H26F H 1.0574 -0.3210 0.0312
H27F H 1.1245 -0.2122 0.0512
H28F H 0.876(5) -0.076(5) -0.0164(13)
N1F N 1.3652(3) 0.2192(3) -0.07329(7)
H29F H 1.3509 0.2078 -0.0939
N2F N 1.3928(3) 0.1261(3) -0.05250(8)
N3F N 1.2327(3) -0.1055(4) -0.04069(9)
N4F N 1.2420(4) -0.1883(3) -0.01622(9)
H30F H 1.3076 -0.2364 -0.0130
O1F O 1.3086(4) 0.0904(3) -0.12767(8)
O2F O 1.3802(3) -0.0925(3) -0.11004(7)
O3D O 0.8732(3) 0.5435(3) 0.05044(7)
O3C O 1.5435(3) -0.1268(3) -0.05044(7)
O3F O 1.0435(3) -0.3732(3) -0.19956(7)
O4F O 0.9546(3) -0.1904(3) -0.21041(7)
loop_
_geom_bond_atom_site_label_1
_geom_bond_atom_site_label_2
_geom_bond_site_symmetry_1
_geom_bond_site_symmetry_2
Co1 N2 1_555 1_555
C1 C2 1_555 1_555
C2 C3 1_555 1_555
C3 C4 1_555 1_555
C4 H1 1_555 1_555
C5 C4 1_555 1_555
H2 C5 1_555 1_555
H3 C5 1_555 1_555
C6 C2 1_555 1_555
H4 C6 1_555 1_555
H5 C6 1_555 1_555
C7 C4 1_555 1_555
C8 C2 1_555 1_555
H6 C8 1_555 1_555
H7 C8 1_555 1_555
H8 C8 1_555 1_555
C9 C3 1_555 1_555
H9 C9 1_555 1_555
H10 C9 1_555 1_555
H11 C9 1_555 1_555
C10 C3 1_555 1_555
H12 C10 1_555 1_555
H13 C10 1_555 1_555
H14 C10 1_555 1_555
C11 H15 1_555 1_555
H16 C11 1_555 1_555
H17 C11 1_555 1_555
C12 C11 1_555 1_555
C13 C12 1_555 1_555
C14 C13 1_555 1_555
C15 C14 1_555 1_555
H18 C15 1_555 1_555
H19 C15 1_555 1_555
H20 C15 1_555 1_555
C16 C13 1_555 1_555
H21 C16 1_555 1_555
C17 H22 1_555 1_555
H23 C17 1_555 1_555
H24 C17 1_555 1_555
C18 C17 1_555 1_555
C19 C18 1_555 1_555
C20 C19 1_555 1_555
C21 C20 1_555 1_555
H25 C21 1_555 1_555
H26 C21 1_555 1_555
H27 C21 1_555 1_555
C22 C19 1_555 1_555
H28 C22 1_555 1_555
N1 C12 1_555 1_555
H29 N1 1_555 1_555
N2 C14 1_555 1_555
N3 Co1 1_555 1_555
N4 C20 1_555 1_555
H30 N4 1_555 1_555
O1 C1 1_555 1_555
O2 Co1 1_555 1_555
O3 C7 1_555 1_555
O4 C7 1_555 1_555
Co1F N2F 1_555 1_555
Co1D O3 1_555 1_555
Co1C O3F 1_555 1_555
C1F C2F 1_555 1_555
C2F C3F 1_555 1_555
C3F C4F 1_555 1_555
C4F H1F 1_555 1_555
C5F C4F 1_555 1_555
H2F C5F 1_555 1_555
H3F C5F 1_555 1_555
C6F C2F 1_555 1_555
H4F C6F 1_555 1_555
H5F C6F 1_555 1_555
C7F C4F 1_555 1_555
C8F C2F 1_555 1_555
H6F C8F 1_555 1_555
H7F C8F 1_555 1_555
H8F C8F 1_555 1_555
C9F C3F 1_555 1_555
H9F C9F 1_555 1_555
H10F C9F 1_555 1_555
H11F C9F 1_555 1_555
C10F C3F 1_555 1_555
H12F C10F 1_555 1_555
H13F C10F 1_555 1_555
H14F C10F 1_555 1_555
C11F H15F 1_555 1_555
H16F C11F 1_555 1_555
H17F C11F 1_555 1_555
C12F C11F 1_555 1_555
C13F C16 1_555 1_555
C14F C13F 1_555 1_555
C15F C14F 1_555 1_555
H18F C15F 1_555 1_555
H19F C15F 1_555 1_555
H20F C15F 1_555 1_555
H21F C16 1_555 1_555
C17F H22F 1_555 1_555
H23F C17F 1_555 1_555
H24F C17F 1_555 1_555
C18F C17F 1_555 1_555
C19F C22 1_555 1_555
C20F C19F 1_555 1_555
C21F C20F 1_555 1_555
H25F C21F 1_555 1_555
H26F C21F 1_555 1_555
H27F C21F 1_555 1_555
H28F C22 1_555 1_555
N1F C12F 1_555 1_555
H29F N1F 1_555 1_555
N2F C14F 1_555 1_555
N3F Co1F 1_555 1_555
N4F C20F 1_555 1_555
H30F N4F 1_555 1_555
O1F C1F 1_555 1_555
O2F Co1F 1_555 1_555
O3D Co1 1_555 1_555
O3C Co1F 1_555 1_555
O3F C7F 1_555 1_555
O4F C7F 1_555 1_555
C1 O2 1_555 1_555
C5 C6 1_555 1_555
C18 N3 1_555 1_555
N1 N2 1_555 1_555
N3 N4 1_555 1_555
C1F O2F 1_555 1_555
C5F C6F 1_555 1_555
C12F C13F 1_555 1_555
C18F C19F 1_555 1_555
C18F N3F 1_555 1_555
N1F N2F 1_555 1_555
N3F N4F 1_555 1_555

#END
