
#######################################################################
#
#                 Cambridge Crystallographic Data Centre
#                                CCDC 
#
#######################################################################
#
# If this CIF has been generated from an entry in the Cambridge 
# Structural Database, then it will include bibliographic, chemical, 
# crystal, experimental, refinement or atomic coordinate data resulting 
# from the CCDC's data processing and validation procedures.
#
#######################################################################

data_BEDWEN
_symmetry_cell_setting           orthorhombic
_symmetry_space_group_name_H-M   'P 21 21 21'
_symmetry_Int_Tables_number      19
_space_group_name_Hall           'P 2ac 2ab'
loop_
_symmetry_equiv_pos_site_id
_symmetry_equiv_pos_as_xyz
1 x,y,z
2 1/2-x,-y,1/2+z
3 -x,1/2+y,1/2-z
4 1/2+x,1/2-y,-z
_cell_length_a                   8.845(3)
_cell_length_b                   10.909(4)
_cell_length_c                   15.841(5)
_cell_angle_alpha                90
_cell_angle_beta                 90
_cell_angle_gamma                90
_cell_volume                     1528.5
loop_
_atom_site_label
_atom_site_type_symbol
_atom_site_fract_x
_atom_site_fract_y
_atom_site_fract_z
Sn1 Sn 0.98007(5) 0.97032(4) 0.17244(3)
S1 S 0.7596(2) 1.0371(2) 0.09563(15)
O1 O 0.9146(6) 0.6341(4) 0.3744(3)
O2 O 0.7128(6) 0.5622(4) 0.3068(3)
O3 O 0.8135(5) 0.8041(4) 0.2151(3)
N1 N 0.6093(7) 0.8088(5) 0.2973(4)
C1 C 0.7796(9) 0.6423(6) 0.3475(4)
C2 C 0.6950(9) 0.7629(6) 0.3698(4)
H1 H 0.7680(9) 0.8251(6) 0.3881(4)
C3 C 0.5756(9) 0.7455(7) 0.4376(5)
H2 H 0.5362(9) 0.6625(7) 0.4370(5)
H3 H 0.6162(9) 0.7630(7) 0.4932(5)
C4 C 0.4546(10) 0.8369(7) 0.4137(5)
H4 H 0.3579(10) 0.8145(7) 0.4381(5)
H5 H 0.4814(10) 0.9187(7) 0.4324(5)
C5 C 0.4494(8) 0.8302(7) 0.3193(6)
H6 H 0.3859(8) 0.7631(7) 0.3004(6)
H7 H 0.4126(8) 0.9062(7) 0.2951(6)
C6 C 0.6724(9) 0.8186(5) 0.2225(4)
C7 C 0.5741(9) 0.8394(6) 0.1471(4)
H8 H 0.4933(9) 0.8971(6) 0.1618(4)
C8 C 0.6660(10) 0.8913(7) 0.0752(5)
H9 H 0.5999(10) 0.9015(7) 0.0268(5)
H10 H 0.7425(10) 0.8316(7) 0.0598(5)
C9 C 0.5042(12) 0.7156(6) 0.1228(5)
H11 H 0.4482(61) 0.7243(15) 0.0713(22)
H12 H 0.4377(57) 0.6887(29) 0.1670(19)
H13 H 0.5831(13) 0.6562(16) 0.1150(39)
C10 C 0.9865(12) 1.0060(6) 0.3028(4)
H14 H 0.8883(21) 1.0318(52) 0.3216(8)
H15 H 1.0588(51) 1.0696(39) 0.3140(6)
H16 H 1.0154(65) 0.9329(16) 0.3324(5)
C11 C 1.1063(11) 0.8326(8) 0.1112(6)
H17 H 1.1723(52) 0.8696(9) 0.0704(28)
H18 H 1.0387(12) 0.7770(33) 0.0833(32)
H19 H 1.1653(53) 0.7887(38) 0.1521(8)
O1B O 1.0854(6) 1.1341(4) 0.1256(3)
Sn1B Sn 1.01993(5) 0.47032(4) 0.32756(3)
loop_
_geom_bond_atom_site_label_1
_geom_bond_atom_site_label_2
_geom_bond_site_symmetry_1
_geom_bond_site_symmetry_2
Sn1 S1 1_555 1_555
S1 C8 1_555 1_555
O1 C1 1_555 1_555
O2 C1 1_555 1_555
O3 Sn1 1_555 1_555
N1 C2 1_555 1_555
C1 C2 1_555 1_555
C2 H1 1_555 1_555
C3 C2 1_555 1_555
H2 C3 1_555 1_555
H3 C3 1_555 1_555
C4 C3 1_555 1_555
H4 C4 1_555 1_555
H5 C4 1_555 1_555
C5 N1 1_555 1_555
H6 C5 1_555 1_555
H7 C5 1_555 1_555
C6 O3 1_555 1_555
C7 C6 1_555 1_555
H8 C7 1_555 1_555
C8 C7 1_555 1_555
H9 C8 1_555 1_555
H10 C8 1_555 1_555
C9 C7 1_555 1_555
H11 C9 1_555 1_555
H12 C9 1_555 1_555
H13 C9 1_555 1_555
C10 Sn1 1_555 1_555
H14 C10 1_555 1_555
H15 C10 1_555 1_555
H16 C10 1_555 1_555
C11 Sn1 1_555 1_555
H17 C11 1_555 1_555
H18 C11 1_555 1_555
H19 C11 1_555 1_555
O1B Sn1 1_555 1_555
Sn1B O1 1_555 1_555
N1 C6 1_555 1_555
C4 C5 1_555 1_555

#END
