
#######################################################################
#
#                 Cambridge Crystallographic Data Centre
#                                CCDC 
#
#######################################################################
#
# If this CIF has been generated from an entry in the Cambridge 
# Structural Database, then it will include bibliographic, chemical, 
# crystal, experimental, refinement or atomic coordinate data resulting 
# from the CCDC's data processing and validation procedures.
#
#######################################################################

data_BEFQIO
_symmetry_cell_setting           monoclinic
_symmetry_space_group_name_H-M   'P 21/c'
_symmetry_Int_Tables_number      14
_space_group_name_Hall           '-P 2ybc'
loop_
_symmetry_equiv_pos_site_id
_symmetry_equiv_pos_as_xyz
1 x,y,z
2 -x,1/2+y,1/2-z
3 -x,-y,-z
4 x,1/2-y,1/2+z
_cell_length_a                   11.0696(13)
_cell_length_b                   9.3150(11)
_cell_length_c                   15.1284(18)
_cell_angle_alpha                90
_cell_angle_beta                 93.2560(10)
_cell_angle_gamma                90
_cell_volume                     1557.42
loop_
_atom_site_label
_atom_site_type_symbol
_atom_site_fract_x
_atom_site_fract_y
_atom_site_fract_z
Ce1 Ce 1.59784(2) 0.76397(3) 0.387760(18)
P1 P 1.35507(12) 0.83754(14) 0.54820(8)
P2 P 0.94393(11) 0.80315(14) 0.39756(8)
O1 O 1.4557(3) 0.7653(4) 0.5048(2)
O2 O 1.3490(3) 0.7642(4) 0.6436(2)
O3 O 1.3544(3) 0.9958(4) 0.5564(3)
O4 O 0.9804(3) 0.9577(4) 0.3977(2)
O5 O 0.8131(3) 0.7661(4) 0.3853(2)
O6 O 1.0181(3) 0.7200(4) 0.3290(3)
H1 H 0.9726 0.6679 0.2988
O7 O 1.4411(3) 0.5715(4) 0.3475(2)
O8 O 1.3761(3) 0.3973(4) 0.2566(2)
O9 O 1.6491(3) 0.5828(4) 0.2673(2)
O10 O 1.5825(3) 0.4126(4) 0.1725(2)
O11 O 1.6565(4) 0.5436(5) 0.4829(3)
H2 H 1.6495 0.5672 0.5365
H3 H 1.6101 0.4724 0.4701
N1 N 1.1069(3) 0.7910(4) 0.5480(3)
H10 H 1.0932 0.8855 0.5588
C1 C 1.2141(4) 0.7813(5) 0.4913(3)
H11 H 1.1991 0.8407 0.4392
H12 H 1.2225 0.6829 0.4716
C2 C 0.9939(5) 0.7295(6) 0.5039(4)
H13 H 0.9290 0.7415 0.5437
H14 H 1.0060 0.6271 0.4966
C3 C 1.1340(5) 0.7187(6) 0.6350(3)
H15 H 1.0625 0.7220 0.6692
H16 H 1.1529 0.6186 0.6247
C4 C 1.2366(5) 0.7861(6) 0.6871(4)
H17 H 1.2217 0.8882 0.6931
H18 H 1.2434 0.7445 0.7459
C5 C 1.4514(5) 0.4870(5) 0.2845(3)
C6 C 1.5722(5) 0.4944(5) 0.2366(3)
Ce1B Ce 1.40216(2) 1.23603(3) 0.612240(18)
Ce1_2 Ce 0.59784(2) 0.76397(3) 0.387760(18)
Ce1A Ce 1.40216(2) 0.26397(3) 0.112240(18)
Ce1B_2 Ce 2.40216(2) 1.23603(3) 0.612240(18)
Ce1C Ce 1.59784(2) 1.73603(3) 0.887760(18)
P1B P 1.64493(12) 1.16246(14) 0.45180(8)
P2B P 2.05607(11) 1.19685(14) 0.60244(8)
O1B O 1.5443(3) 1.2347(4) 0.4952(2)
O2B O 1.6510(3) 1.2358(4) 0.3564(2)
O3B O 1.6456(3) 1.0042(4) 0.4436(3)
O4B O 2.0196(3) 1.0423(4) 0.6023(2)
O5B O 2.1869(3) 1.2339(4) 0.6147(2)
O5_2 O 1.8131(3) 0.7661(4) 0.3853(2)
O5B_2 O 1.1869(3) 1.2339(4) 0.6147(2)
O6B O 1.9819(3) 1.2800(4) 0.6710(3)
H1B H 2.0274 1.3321 0.7012
O7B O 1.5589(3) 1.4285(4) 0.6525(2)
O8B O 1.6239(3) 1.6027(4) 0.7434(2)
O8A O 1.6239(3) 0.8973(4) 0.2434(2)
O8C O 1.3761(3) 1.1027(4) 0.7566(2)
O9B O 1.3509(3) 1.4172(4) 0.7327(2)
O10B O 1.4175(3) 1.5874(4) 0.8275(2)
O10A O 1.4175(3) 0.9126(4) 0.3275(2)
O10C O 1.5825(3) 1.0874(4) 0.6725(2)
O11B O 1.3435(4) 1.4564(5) 0.5171(3)
H2B H 1.3505 1.4328 0.4635
H3B H 1.3899 1.5276 0.5299
N1B N 1.8931(3) 1.2090(4) 0.4520(3)
H10B H 1.9068 1.1145 0.4412
C1B C 1.7859(4) 1.2187(5) 0.5087(3)
H11B H 1.8009 1.1593 0.5608
H12B H 1.7775 1.3171 0.5284
C2B C 2.0061(5) 1.2705(6) 0.4961(4)
H13B H 2.0710 1.2585 0.4563
H14B H 1.9940 1.3729 0.5034
C3B C 1.8660(5) 1.2813(6) 0.3650(3)
H15B H 1.9375 1.2780 0.3308
H16B H 1.8471 1.3814 0.3753
C4B C 1.7634(5) 1.2139(6) 0.3129(4)
H17B H 1.7783 1.1118 0.3069
H18B H 1.7566 1.2555 0.2541
C5B C 1.5486(5) 1.5130(5) 0.7155(3)
C6B C 1.4278(5) 1.5056(5) 0.7634(3)
O12 O 0.8902(4) 0.5559(5) 0.2351(3)
H4 H 0.8610 0.6215 0.2011
H5 H 0.8885 0.4754 0.2081
O13 O 1.1722(7) 0.4419(10) 0.3597(5)
H6 H 1.1192 0.4838 0.3260
H7 H 1.1880 0.3592 0.3389
O14 O 1.7108(6) 0.7972(8) 0.5735(5)
H8 H 1.7187 0.8863 0.5865
H9 H 1.6650 0.7569 0.6095
loop_
_geom_bond_atom_site_label_1
_geom_bond_atom_site_label_2
_geom_bond_site_symmetry_1
_geom_bond_site_symmetry_2
Ce1 O1 1_555 1_555
P1 O1 1_555 1_555
P2 O4 1_555 1_555
O2 P1 1_555 1_555
O3 P1 1_555 1_555
O5 P2 1_555 1_555
O6 P2 1_555 1_555
H1 O6 1_555 1_555
O7 Ce1 1_555 1_555
O8 C5 1_555 1_555
O9 Ce1 1_555 1_555
O10 C6 1_555 1_555
O11 Ce1 1_555 1_555
H2 O11 1_555 1_555
H3 O11 1_555 1_555
O12 H4 1_555 1_555
H5 O12 1_555 1_555
O13 H6 1_555 1_555
H7 O13 1_555 1_555
O14 H8 1_555 1_555
H9 O14 1_555 1_555
N1 H10 1_555 1_555
C1 P1 1_555 1_555
H11 C1 1_555 1_555
H12 C1 1_555 1_555
C2 P2 1_555 1_555
H13 C2 1_555 1_555
H14 C2 1_555 1_555
C3 N1 1_555 1_555
H15 C3 1_555 1_555
H16 C3 1_555 1_555
C4 O2 1_555 1_555
H17 C4 1_555 1_555
H18 C4 1_555 1_555
C5 O7 1_555 1_555
C6 O9 1_555 1_555
Ce1B O3 1_555 1_555
Ce1_2 O5 1_555 1_555
Ce1A O8 1_555 1_555
Ce1B_2 O5B 1_555 1_555
Ce1C O8B 1_555 1_555
P1B O1B 1_555 1_555
P2B O4B 1_555 1_555
O1B Ce1B 1_555 1_555
O2B P1B 1_555 1_555
O3B Ce1 1_555 1_555
O5B P2B 1_555 1_555
O5_2 Ce1 1_555 1_555
O5B_2 Ce1B 1_555 1_555
O6B P2B 1_555 1_555
H1B O6B 1_555 1_555
O7B Ce1B 1_555 1_555
O8B C5B 1_555 1_555
O8A Ce1 1_555 1_555
O8C Ce1B 1_555 1_555
O9B Ce1B 1_555 1_555
O10B Ce1C 1_555 1_555
O10A Ce1 1_555 1_555
O10C Ce1B 1_555 1_555
O11B Ce1B 1_555 1_555
H2B O11B 1_555 1_555
H3B O11B 1_555 1_555
N1B H10B 1_555 1_555
C1B P1B 1_555 1_555
H11B C1B 1_555 1_555
H12B C1B 1_555 1_555
C2B P2B 1_555 1_555
H13B C2B 1_555 1_555
H14B C2B 1_555 1_555
C3B N1B 1_555 1_555
H15B C3B 1_555 1_555
H16B C3B 1_555 1_555
C4B O2B 1_555 1_555
H17B C4B 1_555 1_555
H18B C4B 1_555 1_555
C5B O7B 1_555 1_555
C6B O9B 1_555 1_555
O10 Ce1A 1_555 1_555
N1 C1 1_555 1_555
N1 C2 1_555 1_555
C3 C4 1_555 1_555
C5 C6 1_555 1_555
P1B O3B 1_555 1_555
O10B C6B 1_555 1_555
N1B C1B 1_555 1_555
N1B C2B 1_555 1_555
C3B C4B 1_555 1_555
C5B C6B 1_555 1_555

#END
