
#######################################################################
#
#                 Cambridge Crystallographic Data Centre
#                                CCDC 
#
#######################################################################
#
# If this CIF has been generated from an entry in the Cambridge 
# Structural Database, then it will include bibliographic, chemical, 
# crystal, experimental, refinement or atomic coordinate data resulting 
# from the CCDC's data processing and validation procedures.
#
#######################################################################

data_BEFQUA
_symmetry_cell_setting           monoclinic
_symmetry_space_group_name_H-M   'P 21/c'
_symmetry_Int_Tables_number      14
_space_group_name_Hall           '-P 2ybc'
loop_
_symmetry_equiv_pos_site_id
_symmetry_equiv_pos_as_xyz
1 x,y,z
2 -x,1/2+y,1/2-z
3 -x,-y,-z
4 x,1/2-y,1/2+z
_cell_length_a                   10.9897(9)
_cell_length_b                   9.1988(8)
_cell_length_c                   15.2172(12)
_cell_angle_alpha                90
_cell_angle_beta                 93.0370(10)
_cell_angle_gamma                90
_cell_volume                     1536.18
loop_
_atom_site_label
_atom_site_type_symbol
_atom_site_fract_x
_atom_site_fract_y
_atom_site_fract_z
Nd1 Nd 1.59725(2) 0.76559(3) 0.383399(17)
P1 P 1.36063(11) 0.84056(14) 0.54545(8)
P2 P 0.94393(12) 0.80556(15) 0.39550(9)
O1 O 1.4650(3) 0.7716(4) 0.5031(2)
O2 O 1.3537(3) 0.7637(4) 0.6396(2)
O3 O 1.3546(3) 1.0003(4) 0.5553(3)
O4 O 0.9785(3) 0.9630(4) 0.3992(2)
O5 O 0.8125(3) 0.7660(4) 0.3865(3)
O6 O 1.0163(4) 0.7296(5) 0.3225(3)
H1 H 0.9700 0.6776 0.2924
O7 O 1.4406(3) 0.5737(4) 0.3488(3)
O8 O 1.3713(3) 0.4022(4) 0.2553(3)
O9 O 1.6497(3) 0.5838(4) 0.2674(3)
O10 O 1.5828(3) 0.4091(4) 0.1753(2)
O11 O 1.6619(4) 0.5585(6) 0.4854(3)
H2 H 1.6550 0.5821 0.5389
H3 H 1.6155 0.4872 0.4726
N1 N 1.1114(4) 0.7867(5) 0.5427(3)
H10 H 1.0954 0.8815 0.5546
C1 C 1.2202(5) 0.7812(6) 0.4864(3)
H11 H 1.2048 0.8427 0.4352
H12 H 1.2307 0.6824 0.4658
C2 C 0.9999(5) 0.7218(7) 0.4977(4)
H13 H 0.9349 0.7244 0.5384
H14 H 1.0167 0.6203 0.4859
C3 C 1.1378(5) 0.7090(7) 0.6288(4)
H15 H 1.0650 0.7079 0.6622
H16 H 1.1603 0.6091 0.6174
C4 C 1.2393(5) 0.7823(7) 0.6818(4)
H17 H 1.2215 0.8851 0.6872
H18 H 1.2460 0.7409 0.7405
C5 C 1.4502(5) 0.4899(6) 0.2847(3)
C6 C 1.5713(5) 0.4938(5) 0.2374(3)
Nd1B Nd 1.40275(2) 1.23441(3) 0.616601(17)
Nd1_2 Nd 0.59725(2) 0.76559(3) 0.383399(17)
Nd1A Nd 1.40275(2) 0.26559(3) 0.116601(17)
Nd1B_2 Nd 2.40275(2) 1.23441(3) 0.616601(17)
Nd1C Nd 1.59725(2) 1.73441(3) 0.883399(17)
P1B P 1.63937(11) 1.15944(14) 0.45455(8)
P2B P 2.05607(12) 1.19444(15) 0.60450(9)
O1B O 1.5350(3) 1.2284(4) 0.4969(2)
O2B O 1.6463(3) 1.2363(4) 0.3604(2)
O3B O 1.6454(3) 0.9997(4) 0.4447(3)
O4B O 2.0215(3) 1.0370(4) 0.6008(2)
O5B O 2.1875(3) 1.2340(4) 0.6135(3)
O5_2 O 1.8125(3) 0.7660(4) 0.3865(3)
O5B_2 O 1.1875(3) 1.2340(4) 0.6135(3)
O6B O 1.9837(4) 1.2704(5) 0.6775(3)
H1B H 2.0300 1.3224 0.7076
O7B O 1.5594(3) 1.4263(4) 0.6512(3)
O8B O 1.6287(3) 1.5978(4) 0.7447(3)
O8A O 1.6287(3) 0.9022(4) 0.2447(3)
O8C O 1.3713(3) 1.0978(4) 0.7553(3)
O9B O 1.3503(3) 1.4162(4) 0.7326(3)
O10B O 1.4172(3) 1.5909(4) 0.8247(2)
O10A O 1.4172(3) 0.9091(4) 0.3247(2)
O10C O 1.5828(3) 1.0909(4) 0.6753(2)
O11B O 1.3381(4) 1.4415(6) 0.5146(3)
H2B H 1.3450 1.4179 0.4611
H3B H 1.3845 1.5128 0.5274
N1B N 1.8886(4) 1.2133(5) 0.4573(3)
H10B H 1.9046 1.1185 0.4454
C1B C 1.7798(5) 1.2188(6) 0.5136(3)
H11B H 1.7952 1.1573 0.5648
H12B H 1.7693 1.3176 0.5342
C2B C 2.0001(5) 1.2782(7) 0.5023(4)
H13B H 2.0651 1.2756 0.4616
H14B H 1.9833 1.3797 0.5141
C3B C 1.8622(5) 1.2910(7) 0.3712(4)
H15B H 1.9350 1.2921 0.3378
H16B H 1.8397 1.3909 0.3826
C4B C 1.7607(5) 1.2177(7) 0.3182(4)
H17B H 1.7785 1.1149 0.3128
H18B H 1.7540 1.2591 0.2595
C5B C 1.5498(5) 1.5101(6) 0.7153(3)
C6B C 1.4287(5) 1.5062(5) 0.7626(3)
O12 O 0.8877(7) 0.5653(9) 0.2286(5)
H4 H 0.8584 0.6309 0.1946
H5 H 0.8860 0.4848 0.2016
O13 O 1.1721(8) 0.4322(12) 0.3619(5)
H6 H 1.1190 0.4740 0.3281
H7 H 1.1879 0.3494 0.3411
O14 O 1.7294(19) 0.787(2) 0.5890(14)
H8 H 1.7373 0.8756 0.6020
H9 H 1.6836 0.7462 0.6250
loop_
_geom_bond_atom_site_label_1
_geom_bond_atom_site_label_2
_geom_bond_site_symmetry_1
_geom_bond_site_symmetry_2
Nd1 O1 1_555 1_555
P1 O1 1_555 1_555
P2 O4 1_555 1_555
O2 P1 1_555 1_555
O3 P1 1_555 1_555
O5 P2 1_555 1_555
O6 P2 1_555 1_555
H1 O6 1_555 1_555
O7 Nd1 1_555 1_555
O8 C5 1_555 1_555
O9 Nd1 1_555 1_555
O10 C6 1_555 1_555
O11 Nd1 1_555 1_555
H2 O11 1_555 1_555
H3 O11 1_555 1_555
O12 H4 1_555 1_555
H5 O12 1_555 1_555
O13 H6 1_555 1_555
H7 O13 1_555 1_555
O14 H8 1_555 1_555
H9 O14 1_555 1_555
N1 H10 1_555 1_555
C1 P1 1_555 1_555
H11 C1 1_555 1_555
H12 C1 1_555 1_555
C2 P2 1_555 1_555
H13 C2 1_555 1_555
H14 C2 1_555 1_555
C3 N1 1_555 1_555
H15 C3 1_555 1_555
H16 C3 1_555 1_555
C4 O2 1_555 1_555
H17 C4 1_555 1_555
H18 C4 1_555 1_555
C5 O7 1_555 1_555
C6 O9 1_555 1_555
Nd1B O3 1_555 1_555
Nd1_2 O5 1_555 1_555
Nd1A O8 1_555 1_555
Nd1B_2 O5B 1_555 1_555
Nd1C O8B 1_555 1_555
P1B O1B 1_555 1_555
P2B O4B 1_555 1_555
O1B Nd1B 1_555 1_555
O2B P1B 1_555 1_555
O3B Nd1 1_555 1_555
O5B P2B 1_555 1_555
O5_2 Nd1 1_555 1_555
O5B_2 Nd1B 1_555 1_555
O6B P2B 1_555 1_555
H1B O6B 1_555 1_555
O7B Nd1B 1_555 1_555
O8B C5B 1_555 1_555
O8A Nd1 1_555 1_555
O8C Nd1B 1_555 1_555
O9B Nd1B 1_555 1_555
O10B Nd1C 1_555 1_555
O10A Nd1 1_555 1_555
O10C Nd1B 1_555 1_555
O11B Nd1B 1_555 1_555
H2B O11B 1_555 1_555
H3B O11B 1_555 1_555
N1B H10B 1_555 1_555
C1B P1B 1_555 1_555
H11B C1B 1_555 1_555
H12B C1B 1_555 1_555
C2B P2B 1_555 1_555
H13B C2B 1_555 1_555
H14B C2B 1_555 1_555
C3B N1B 1_555 1_555
H15B C3B 1_555 1_555
H16B C3B 1_555 1_555
C4B O2B 1_555 1_555
H17B C4B 1_555 1_555
H18B C4B 1_555 1_555
C5B O7B 1_555 1_555
C6B O9B 1_555 1_555
O10 Nd1A 1_555 1_555
N1 C1 1_555 1_555
N1 C2 1_555 1_555
C3 C4 1_555 1_555
C5 C6 1_555 1_555
P1B O3B 1_555 1_555
O10B C6B 1_555 1_555
N1B C1B 1_555 1_555
N1B C2B 1_555 1_555
C3B C4B 1_555 1_555
C5B C6B 1_555 1_555

#END
