
#######################################################################
#
#                 Cambridge Crystallographic Data Centre
#                                CCDC 
#
#######################################################################
#
# If this CIF has been generated from an entry in the Cambridge 
# Structural Database, then it will include bibliographic, chemical, 
# crystal, experimental, refinement or atomic coordinate data resulting 
# from the CCDC's data processing and validation procedures.
#
#######################################################################

data_BEFQEK
_symmetry_cell_setting           monoclinic
_symmetry_space_group_name_H-M   'C 2/c'
_symmetry_Int_Tables_number      15
_space_group_name_Hall           '-C 2yn'
loop_
_symmetry_equiv_pos_site_id
_symmetry_equiv_pos_as_xyz
1 x,y,z
2 -x,y,1/2-z
3 1/2+x,1/2+y,z
4 1/2-x,1/2+y,1/2-z
5 -x,-y,-z
6 x,-y,1/2+z
7 1/2-x,1/2-y,-z
8 1/2+x,1/2-y,1/2+z
_cell_length_a                   9.0952(11)
_cell_length_b                   13.9939(17)
_cell_length_c                   13.4964(17)
_cell_angle_alpha                90
_cell_angle_beta                 95.2200(10)
_cell_angle_gamma                90
_cell_volume                     1710.66
loop_
_atom_site_label
_atom_site_type_symbol
_atom_site_fract_x
_atom_site_fract_y
_atom_site_fract_z
Zn1 Zn 0.5000 0.476134(17) 0.2500
C1 C 0.45485(18) 0.61582(11) 0.41749(11)
C2 C 0.34913(18) 0.68559(11) 0.45955(11)
C3 C 0.20394(18) 0.66061(11) 0.47004(12)
C4 C 0.10743(18) 0.72317(12) 0.50948(12)
C5 C 0.1629(2) 0.49731(19) 0.18000(19)
H1 H 0.1628 0.4898 0.2507
H2 H 0.0919 0.4546 0.1469
H3 H 0.1376 0.5620 0.1619
C6 C 0.6799(4) 0.28950(19) 0.19813(19)
H4 H 0.7785 0.2973 0.1792
H5 H 0.6373 0.2326 0.1680
H6 H 0.6828 0.2842 0.2692
F1 F 0.15493(12) 0.57272(7) 0.44368(9)
F2 F -0.03117(12) 0.69293(8) 0.51984(10)
O1 O 0.41017(14) 0.57960(10) 0.33584(9)
O2 O 0.57542(14) 0.60054(10) 0.46743(9)
O3 O 0.30678(14) 0.47568(8) 0.15090(9)
H7 H 0.3255 0.5122 0.1063
O4 O 0.59392(16) 0.36912(10) 0.16591(9)
H8 H 0.5900 0.3782 0.1057
Zn1F Zn 0.0000 1.023866(17) 0.7500
C1F C 0.04515(18) 0.88418(11) 0.58251(11)
C2F C 0.15087(18) 0.81441(11) 0.54045(11)
C3F C 0.29606(18) 0.83939(11) 0.52996(12)
C4F C 0.39257(18) 0.77683(12) 0.49052(12)
C5A C 0.8371(2) 0.49731(19) 0.32000(19)
H1A H 0.8372 0.4898 0.2493
H2A H 0.9081 0.4546 0.3531
H3A H 0.8624 0.5620 0.3381
C6A C 0.3201(4) 0.28950(19) 0.30187(19)
H4A H 0.2215 0.2973 0.3208
H5A H 0.3627 0.2326 0.3320
H6A H 0.3172 0.2842 0.2308
F1F F 0.34507(12) 0.92728(7) 0.55632(9)
F2F F 0.53117(12) 0.80707(8) 0.48016(10)
O1F O 0.08983(14) 0.92040(10) 0.66416(9)
O1A O 0.58983(14) 0.57960(10) 0.16416(9)
O2F O -0.07542(14) 0.89946(10) 0.53257(9)
O3A O 0.69322(14) 0.47568(8) 0.34910(9)
H7A H 0.6745 0.5122 0.3937
O4A O 0.40608(16) 0.36912(10) 0.33409(9)
H8A H 0.4100 0.3782 0.3943
loop_
_geom_bond_atom_site_label_1
_geom_bond_atom_site_label_2
_geom_bond_site_symmetry_1
_geom_bond_site_symmetry_2
Zn1 O1 1_555 1_555
C1 C2 1_555 1_555
C2 C3 1_555 1_555
C3 C4 1_555 1_555
C4 F2 1_555 1_555
C5 H1 1_555 1_555
H2 C5 1_555 1_555
H3 C5 1_555 1_555
C6 H4 1_555 1_555
H5 C6 1_555 1_555
H6 C6 1_555 1_555
F1 C3 1_555 1_555
O1 C1 1_555 1_555
O2 C1 1_555 1_555
O3 Zn1 1_555 1_555
H7 O3 1_555 1_555
O4 Zn1 1_555 1_555
H8 O4 1_555 1_555
Zn1F O1F 1_555 1_555
C1F C2F 1_555 1_555
C2F C4 1_555 1_555
C3F C2F 1_555 1_555
C4F C2 1_555 1_555
C5A H1A 1_555 1_555
H2A C5A 1_555 1_555
H3A C5A 1_555 1_555
C6A H4A 1_555 1_555
H5A C6A 1_555 1_555
H6A C6A 1_555 1_555
F1F C3F 1_555 1_555
F2F C4F 1_555 1_555
O1F C1F 1_555 1_555
O1A Zn1 1_555 1_555
O2F C1F 1_555 1_555
O3A Zn1 1_555 1_555
H7A O3A 1_555 1_555
O4A Zn1 1_555 1_555
H8A O4A 1_555 1_555
C5 O3 1_555 1_555
C6 O4 1_555 1_555
C3F C4F 1_555 1_555
C5A O3A 1_555 1_555
C6A O4A 1_555 1_555

#END
