
#######################################################################
#
#                 Cambridge Crystallographic Data Centre
#                                CCDC 
#
#######################################################################
#
# If this CIF has been generated from an entry in the Cambridge 
# Structural Database, then it will include bibliographic, chemical, 
# crystal, experimental, refinement or atomic coordinate data resulting 
# from the CCDC's data processing and validation procedures.
#
#######################################################################

data_BEFRAH
_symmetry_cell_setting           monoclinic
_symmetry_space_group_name_H-M   'P 21/c'
_symmetry_Int_Tables_number      14
_space_group_name_Hall           '-P 2ybc'
loop_
_symmetry_equiv_pos_site_id
_symmetry_equiv_pos_as_xyz
1 x,y,z
2 -x,1/2+y,1/2-z
3 -x,-y,-z
4 x,1/2-y,1/2+z
_cell_length_a                   10.9144(6)
_cell_length_b                   9.1007(5)
_cell_length_c                   15.2336(9)
_cell_angle_alpha                90
_cell_angle_beta                 92.9630(10)
_cell_angle_gamma                90
_cell_volume                     1511.11
loop_
_atom_site_label
_atom_site_type_symbol
_atom_site_fract_x
_atom_site_fract_y
_atom_site_fract_z
Eu1 Eu 0.596800(15) -0.229260(19) 0.380260(11)
P1 P 0.36380(8) -0.15897(10) 0.54304(6)
P2 P -0.05737(8) -0.18988(11) 0.39182(6)
O1 O 0.4714(2) -0.2232(3) 0.50076(19)
O2 O 0.3564(3) -0.2415(3) 0.63494(19)
O3 O 0.6461(2) -0.0023(3) 0.44404(19)
O4 O -0.0231(2) -0.0311(3) 0.40117(18)
O5 O -0.1897(3) -0.2313(3) 0.3849(2)
O6 O 0.0123(3) -0.2562(4) 0.3138(2)
H1 H -0.0346 -0.3085 0.2838
O7 O 0.4391(3) -0.4163(3) 0.3470(2)
O8 O 0.3683(2) -0.5894(3) 0.25314(18)
O9 O 0.6501(2) -0.4103(3) 0.26725(19)
O10 O 0.5823(2) -0.5883(3) 0.17568(18)
O11 O 0.6617(3) -0.4334(4) 0.4807(2)
H2 H 0.6548 -0.4098 0.5343
H3 H 0.6153 -0.5047 0.4679
N1 N 0.1145(3) -0.2194(3) 0.5359(2)
H10 H 0.0963 -0.1246 0.5489
C1 C 0.2258(3) -0.2193(4) 0.4815(3)
H11 H 0.2107 -0.1550 0.4313
H12 H 0.2387 -0.3178 0.4594
C2 C 0.0049(4) -0.2859(5) 0.4885(3)
H13 H -0.0596 -0.2944 0.5297
H14 H 0.0263 -0.3847 0.4711
C3 C 0.1399(4) -0.3009(5) 0.6213(3)
H15 H 0.0658 -0.3044 0.6537
H16 H 0.1640 -0.4011 0.6089
C4 C 0.2405(4) -0.2268(5) 0.6766(3)
H17 H 0.2211 -0.1235 0.6834
H18 H 0.2468 -0.2712 0.7345
C5 C 0.4492(3) -0.5019(4) 0.2838(2)
C6 C 0.5707(3) -0.5002(4) 0.2374(2)
Eu1B Eu 0.403200(15) 0.229260(19) 0.619740(11)
Eu1A Eu 0.403200(15) -0.729260(19) 0.119740(11)
Eu1_2 Eu -0.403200(15) -0.229260(19) 0.380260(11)
Eu1B_2 Eu 1.403200(15) 0.229260(19) 0.619740(11)
Eu1C Eu 0.596800(15) 0.729260(19) 0.880260(11)
P1B P 0.63620(8) 0.15897(10) 0.45696(6)
P2B P 1.05737(8) 0.18988(11) 0.60818(6)
O1B O 0.5286(2) 0.2232(3) 0.49924(19)
O2B O 0.6436(3) 0.2415(3) 0.36506(19)
O3B O 0.3539(2) 0.0023(3) 0.55596(19)
O4B O 1.0231(2) 0.0311(3) 0.59883(18)
O5B O 0.1897(3) 0.2313(3) 0.6151(2)
O5_2 O 0.8103(3) -0.2313(3) 0.3849(2)
O5B_2 O 1.1897(3) 0.2313(3) 0.6151(2)
O6B O 0.9877(3) 0.2562(4) 0.6862(2)
H1B H 1.0346 0.3085 0.7162
O7B O 0.5609(3) 0.4163(3) 0.6530(2)
O8A O 0.6317(2) -0.0894(3) 0.24686(18)
O8C O 0.3683(2) 0.0894(3) 0.75314(18)
O8B O 0.6317(2) 0.5894(3) 0.74686(18)
O9B O 0.3499(2) 0.4103(3) 0.73275(19)
O10A O 0.4177(2) -0.0883(3) 0.32432(18)
O10C O 0.5823(2) 0.0883(3) 0.67568(18)
O10B O 0.4177(2) 0.5883(3) 0.82432(18)
O11B O 0.3383(3) 0.4334(4) 0.5193(2)
H2B H 0.3452 0.4098 0.4657
H3B H 0.3847 0.5047 0.5321
N1B N 0.8855(3) 0.2194(3) 0.4641(2)
H10B H 0.9037 0.1246 0.4511
C1B C 0.7742(3) 0.2193(4) 0.5185(3)
H11B H 0.7893 0.1550 0.5687
H12B H 0.7613 0.3178 0.5406
C2B C 0.9951(4) 0.2859(5) 0.5115(3)
H13B H 1.0596 0.2944 0.4703
H14B H 0.9737 0.3847 0.5289
C3B C 0.8601(4) 0.3009(5) 0.3787(3)
H15B H 0.9342 0.3044 0.3463
H16B H 0.8360 0.4011 0.3911
C4B C 0.7595(4) 0.2268(5) 0.3234(3)
H17B H 0.7789 0.1235 0.3166
H18B H 0.7532 0.2712 0.2655
C5B C 0.5508(3) 0.5019(4) 0.7162(2)
C6B C 0.4293(3) 0.5002(4) 0.7626(2)
O12 O -0.1240(4) -0.3938(7) 0.2055(4)
H4 H -0.1533 -0.3282 0.1714
H5 H -0.1257 -0.4743 0.1785
O13 O 0.1828(6) -0.5822(8) 0.3721(4)
O14 O 0.271(2) -0.753(6) 0.389(3)
H8 H 0.2631 -0.8422 0.3760
H9 H 0.3168 -0.7128 0.3530
H6? H 0.1298 -0.5403 0.3383
H7? H 0.1986 -0.6649 0.3512
loop_
_geom_bond_atom_site_label_1
_geom_bond_atom_site_label_2
_geom_bond_site_symmetry_1
_geom_bond_site_symmetry_2
Eu1 O1 1_555 1_555
P1 O1 1_555 1_555
P2 O4 1_555 1_555
O2 P1 1_555 1_555
O3 Eu1 1_555 1_555
O5 P2 1_555 1_555
O6 P2 1_555 1_555
H1 O6 1_555 1_555
O7 Eu1 1_555 1_555
O8 C5 1_555 1_555
O9 Eu1 1_555 1_555
O10 C6 1_555 1_555
O11 Eu1 1_555 1_555
H2 O11 1_555 1_555
H3 O11 1_555 1_555
O12 H4 1_555 1_555
H5 O12 1_555 1_555
O14 H8 1_555 1_555
H9 O14 1_555 1_555
N1 H10 1_555 1_555
C1 P1 1_555 1_555
H11 C1 1_555 1_555
H12 C1 1_555 1_555
C2 P2 1_555 1_555
H13 C2 1_555 1_555
H14 C2 1_555 1_555
C3 N1 1_555 1_555
H15 C3 1_555 1_555
H16 C3 1_555 1_555
C4 O2 1_555 1_555
H17 C4 1_555 1_555
H18 C4 1_555 1_555
C5 O7 1_555 1_555
C6 O9 1_555 1_555
Eu1B O1B 1_555 1_555
Eu1A O8 1_555 1_555
Eu1_2 O5 1_555 1_555
Eu1B_2 O5B_2 1_555 1_555
Eu1C O8B 1_555 1_555
P1B O3 1_555 1_555
P2B O4B 1_555 1_555
O1B P1B 1_555 1_555
O2B P1B 1_555 1_555
O3B P1 1_555 1_555
O5B Eu1B 1_555 1_555
O5_2 Eu1 1_555 1_555
O5B_2 P2B 1_555 1_555
O6B P2B 1_555 1_555
H1B O6B 1_555 1_555
O7B Eu1B 1_555 1_555
O8A Eu1 1_555 1_555
O8C Eu1B 1_555 1_555
O8B C5B 1_555 1_555
O9B Eu1B 1_555 1_555
O10A Eu1 1_555 1_555
O10C Eu1B 1_555 1_555
O10B Eu1C 1_555 1_555
O11B Eu1B 1_555 1_555
H2B O11B 1_555 1_555
H3B O11B 1_555 1_555
N1B H10B 1_555 1_555
C1B P1B 1_555 1_555
H11B C1B 1_555 1_555
H12B C1B 1_555 1_555
C2B P2B 1_555 1_555
H13B C2B 1_555 1_555
H14B C2B 1_555 1_555
C3B N1B 1_555 1_555
H15B C3B 1_555 1_555
H16B C3B 1_555 1_555
C4B O2B 1_555 1_555
H17B C4B 1_555 1_555
H18B C4B 1_555 1_555
C5B O7B 1_555 1_555
C6B O9B 1_555 1_555
O10 Eu1A 1_555 1_555
N1 C1 1_555 1_555
N1 C2 1_555 1_555
C3 C4 1_555 1_555
C5 C6 1_555 1_555
Eu1B O3B 1_555 1_555
O10B C6B 1_555 1_555
N1B C1B 1_555 1_555
N1B C2B 1_555 1_555
C3B C4B 1_555 1_555
C5B C6B 1_555 1_555

#END
