
#######################################################################
#
#                 Cambridge Crystallographic Data Centre
#                                CCDC 
#
#######################################################################
#
# If this CIF has been generated from an entry in the Cambridge 
# Structural Database, then it will include bibliographic, chemical, 
# crystal, experimental, refinement or atomic coordinate data resulting 
# from the CCDC's data processing and validation procedures.
#
#######################################################################

data_BEGJUT
_symmetry_cell_setting           monoclinic
_symmetry_space_group_name_H-M   'C 2/c'
_symmetry_Int_Tables_number      15
_space_group_name_Hall           '-C 2yn'
loop_
_symmetry_equiv_pos_site_id
_symmetry_equiv_pos_as_xyz
1 x,y,z
2 1/2+x,1/2+y,z
3 x,-y,1/2+z
4 1/2+x,1/2-y,1/2+z
5 -x,-y,-z
6 1/2-x,1/2-y,-z
7 -x,y,1/2-z
8 1/2-x,1/2+y,1/2-z
_cell_length_a                   13.319(11)
_cell_length_b                   18.247(15)
_cell_length_c                   9.232(8)
_cell_angle_alpha                90
_cell_angle_beta                 115.517(14)
_cell_angle_gamma                90
_cell_volume                     2024.82
loop_
_atom_site_label
_atom_site_type_symbol
_atom_site_fract_x
_atom_site_fract_y
_atom_site_fract_z
Ag1 Ag 0.0000 1.06135(4) 0.7500
S1 S 0.09050(17) 0.92968(9) 0.6201(2)
N1 N 0.1714(4) 1.0535(3) 0.7667(6)
C1 C 0.2495(6) 1.1043(4) 0.8377(8)
H1 H 0.2291 1.1485 0.8674
C2 C 0.3582(6) 1.0936(6) 0.8681(9)
H2 H 0.4112 1.1294 0.9207
C3 C 0.3875(7) 1.0303(8) 0.8208(12)
H3 H 0.4613 1.0223 0.8411
C4 C 0.3092(7) 0.9779(6) 0.7431(9)
H4 H 0.3281 0.9346 0.7077
C5 C 0.2006(5) 0.9917(4) 0.7189(7)
C6 C 0.1524(8) 0.8414(4) 0.6992(11)
H5 H 0.0986 0.8031 0.6460
H6 H 0.2159 0.8337 0.6756
C7 C 0.1891(9) 0.8358(4) 0.8749(12)
H7 H 0.1290 0.8499 0.9018
H8 H 0.2516 0.8683 0.9308
C8 C 0.2234(13) 0.7557(7) 0.9255(12)
H9 H 0.1567 0.7259 0.8856
H10 H 0.2687 0.7390 0.8732
C8E C 0.2766(13) 0.7443(7) 1.0745(12)
C7E C 0.3109(9) 0.6642(4) 1.1251(12)
C6E C 0.3476(8) 0.6586(4) 1.3008(11)
S1E S 0.40950(17) 0.57032(9) 1.3799(2)
C5E C 0.2994(5) 0.5083(4) 1.2811(7)
N1E N 0.3286(4) 0.4465(3) 1.2333(6)
C1E C 0.2505(6) 0.3957(4) 1.1623(8)
H1E H 0.2709 0.3515 1.1326
C2E C 0.1418(6) 0.4064(6) 1.1319(9)
H2E H 0.0888 0.3706 1.0793
C3E C 0.1125(7) 0.4697(8) 1.1792(12)
H3E H 0.0387 0.4777 1.1589
C4E C 0.1908(7) 0.5221(6) 1.2569(9)
H4E H 0.1719 0.5654 1.2923
H5E H 0.4014 0.6969 1.3540
H6E H 0.2841 0.6663 1.3244
H7E H 0.3710 0.6501 1.0982
H8E H 0.2484 0.6317 1.0692
H9E H 0.3433 0.7741 1.1144
H10E H 0.2313 0.7610 1.1268
N1F N -0.1714(4) 1.0535(3) 0.7333(6)
Ag1C Ag 0.5000 0.43865(4) 1.2500
Cl1 Cl 0.0000 0.26922(17) 0.7500
O2 O 0.1240(8) 0.2718(7) 0.8582(15)
O4 O 0.0342(16) 0.2753(17) 0.617(3)
O2F O -0.1240(8) 0.2718(7) 0.6418(15)
O4F O -0.0342(16) 0.2753(17) 0.883(3)
O1? O 0.0000 0.3355(7) 0.7500
O3? O 0.019(2) 0.2119(6) 0.830(2)
loop_
_geom_bond_atom_site_label_1
_geom_bond_atom_site_label_2
_geom_bond_site_symmetry_1
_geom_bond_site_symmetry_2
Ag1 N1 1_555 1_555
S1 C5 1_555 1_555
N1 C1 1_555 1_555
C1 H1 1_555 1_555
C2 C1 1_555 1_555
H2 C2 1_555 1_555
C3 C2 1_555 1_555
H3 C3 1_555 1_555
C4 C3 1_555 1_555
H4 C4 1_555 1_555
C5 N1 1_555 1_555
C6 S1 1_555 1_555
H5 C6 1_555 1_555
H6 C6 1_555 1_555
C7 C6 1_555 1_555
H7 C7 1_555 1_555
H8 C7 1_555 1_555
C8 C7 1_555 1_555
H9 C8 1_555 1_555
H10 C8 1_555 1_555
Cl1 O2 1_555 1_555
O4 Cl1 1_555 1_555
C8E C8 1_555 1_555
C7E C8E 1_555 1_555
C6E C7E 1_555 1_555
S1E C6E 1_555 1_555
C5E S1E 1_555 1_555
N1E C5E 1_555 1_555
C1E N1E 1_555 1_555
H1E C1E 1_555 1_555
C2E C1E 1_555 1_555
H2E C2E 1_555 1_555
C3E C2E 1_555 1_555
H3E C3E 1_555 1_555
C4E C5E 1_555 1_555
H4E C4E 1_555 1_555
H5E C6E 1_555 1_555
H6E C6E 1_555 1_555
H7E C7E 1_555 1_555
H8E C7E 1_555 1_555
H9E C8E 1_555 1_555
H10E C8E 1_555 1_555
O2F Cl1 1_555 1_555
O4F Cl1 1_555 1_555
N1F Ag1 1_555 1_555
Ag1C N1E 1_555 1_555
C4 C5 1_555 1_555
C3E C4E 1_555 1_555

#END
