
#######################################################################
#
#                 Cambridge Crystallographic Data Centre
#                                CCDC 
#
#######################################################################
#
# If this CIF has been generated from an entry in the Cambridge 
# Structural Database, then it will include bibliographic, chemical, 
# crystal, experimental, refinement or atomic coordinate data resulting 
# from the CCDC's data processing and validation procedures.
#
#######################################################################

data_BEGKAA
_symmetry_cell_setting           monoclinic
_symmetry_space_group_name_H-M   'C 2/c'
_symmetry_Int_Tables_number      15
_space_group_name_Hall           '-C 2yn'
loop_
_symmetry_equiv_pos_site_id
_symmetry_equiv_pos_as_xyz
1 x,y,z
2 1/2+x,1/2+y,z
3 x,-y,1/2+z
4 1/2+x,1/2-y,1/2+z
5 -x,-y,-z
6 1/2-x,1/2-y,-z
7 -x,y,1/2-z
8 1/2-x,1/2+y,1/2-z
_cell_length_a                   27.413(8)
_cell_length_b                   10.130(3)
_cell_length_c                   19.067(5)
_cell_angle_alpha                90
_cell_angle_beta                 129.810(4)
_cell_angle_gamma                90
_cell_volume                     4067.3
loop_
_atom_site_label
_atom_site_type_symbol
_atom_site_fract_x
_atom_site_fract_y
_atom_site_fract_z
Gd1 Gd 0.0000 0.92398(4) 0.2500
Co1 Co 0.2500 0.7500 0.5000
Cu1 Cu 0.11588(4) 0.77239(8) 0.60944(5)
N1 N 0.0823(2) 0.9357(5) 0.5387(3)
C1 C 0.1362(4) 0.4848(8) 0.6384(5)
H1 H 0.1704 0.4219 0.6768
H2 H 0.1021 0.4594 0.6384
C2 C 0.2230(2) 0.5711(7) 0.4817(3)
C3 C 0.1646(3) 0.8078(6) 0.4080(4)
N2 N 0.0674(2) 0.6862(5) 0.4901(3)
O1 O 0.0269(2) 1.0013(4) 0.3897(2)
C4 C 0.0499(3) 0.9151(6) 0.4522(4)
N3 N 0.1141(2) 0.8456(5) 0.3542(3)
N4 N 0.2083(3) 0.4627(6) 0.4713(4)
C5 C 0.2604(3) 0.7265(6) 0.4109(4)
O2 O 0.00472(18) 0.7483(4) 0.3372(2)
N5 N 0.1630(3) 0.8588(6) 0.7303(3)
H3 H 0.1314 0.8574 0.7338
C6 C 0.0398(3) 0.7710(6) 0.4238(4)
N6 N 0.2665(3) 0.7112(6) 0.3576(4)
C7 C 0.1894(4) 0.6305(8) 0.7743(4)
H4 H 0.2284 0.5794 0.8110
H5 H 0.1625 0.5981 0.7870
C8 C 0.1737(4) 0.9950(7) 0.7400(5)
H6 H 0.2136 1.0094 0.7524
H7 H 0.1804 1.0212 0.7945
N7 N 0.1587(3) 0.6088(6) 0.6820(4)
H8 H 0.1935 0.6135 0.6859
C9 C 0.0635(3) 0.5461(6) 0.4693(4)
H9 H 0.0662 0.5359 0.4213
H10 H 0.0225 0.5125 0.4464
C10 C 0.2048(4) 0.7681(8) 0.8022(4)
H11 H 0.2034 0.7833 0.8512
H12 H 0.2478 0.7852 0.8260
C11 C 0.1138(5) 0.4670(9) 0.5486(5)
H13 H 0.0999 0.3758 0.5329
H14 H 0.1506 0.4745 0.5523
O3 O 0.06769(19) 1.1136(4) 0.2926(3)
C12 C 0.0985(4) 1.0721(7) 0.5740(5)
H15 H 0.1264 1.1089 0.5642
H16 H 0.0599 1.1244 0.5387
C13 C 0.1290(5) 1.0849(9) 0.6698(5)
H17 H 0.1499 1.1703 0.6886
H18 H 0.0950 1.0916 0.6724
H22 H 0.0997 1.1368 0.3496
H23 H 0.0488 1.1880 0.2667
N1F N -0.0823(2) 0.9357(5) -0.0387(3)
C1F C -0.1362(4) 0.4848(8) -0.1384(5)
H1F H -0.1704 0.4219 -0.1768
H2F H -0.1021 0.4594 -0.1384
N2F N -0.0674(2) 0.6862(5) 0.0099(3)
O1F O -0.0269(2) 1.0013(4) 0.1103(2)
C4F C -0.0499(3) 0.9151(6) 0.0478(4)
O2F O -0.00472(18) 0.7483(4) 0.1628(2)
N5F N -0.1630(3) 0.8588(6) -0.2303(3)
H3F H -0.1314 0.8574 -0.2338
C6F C -0.0398(3) 0.7710(6) 0.0762(4)
C7F C -0.1894(4) 0.6305(8) -0.2743(4)
H4F H -0.2284 0.5794 -0.3110
H5F H -0.1625 0.5981 -0.2870
C8F C -0.1737(4) 0.9950(7) -0.2400(5)
H6F H -0.2136 1.0094 -0.2524
H7F H -0.1804 1.0212 -0.2945
N7F N -0.1587(3) 0.6088(6) -0.1820(4)
H8F H -0.1935 0.6135 -0.1859
C9F C -0.0635(3) 0.5461(6) 0.0307(4)
H9F H -0.0662 0.5359 0.0787
H10F H -0.0225 0.5125 0.0536
C10F C -0.2048(4) 0.7681(8) -0.3022(4)
H11F H -0.2034 0.7833 -0.3512
H12F H -0.2478 0.7852 -0.3260
C11F C -0.1138(5) 0.4670(9) -0.0486(5)
H13F H -0.0999 0.3758 -0.0329
H14F H -0.1506 0.4745 -0.0523
C12F C -0.0985(4) 1.0721(7) -0.0740(5)
H15F H -0.1264 1.1089 -0.0642
H16F H -0.0599 1.1244 -0.0387
C13F C -0.1290(5) 1.0849(9) -0.1698(5)
H17F H -0.1499 1.1703 -0.1886
H18F H -0.0950 1.0916 -0.1724
C3F C -0.1646(3) 0.8078(6) 0.0920(4)
N3F N -0.1141(2) 0.8456(5) 0.1458(3)
O3F O -0.06769(19) 1.1136(4) 0.2074(3)
H22F H -0.0997 1.1368 0.1504
H23F H -0.0488 1.1880 0.2333
Cu1F Cu -0.11588(4) 0.77239(8) -0.10944(5)
C2E C 0.2770(2) 0.9289(7) 0.5183(3)
N4E N 0.2917(3) 1.0373(6) 0.5287(4)
C5E C 0.2396(3) 0.7735(6) 0.5891(4)
N6E N 0.2335(3) 0.7888(6) 0.6424(4)
C3E C 0.3354(3) 0.6922(6) 0.5920(4)
Co1C Co -0.2500 0.7500 0.0000
O4 O 0.1685(2) 0.1901(5) 0.4627(3)
H19 H 0.1791 0.2692 0.4701
H20 H 0.2036 0.1473 0.4884
O5 O 0.0234(3) 0.7449(6) 0.6251(4)
H26 H 0.0084 0.6798 0.6381
H27 H 0.0081 0.8071 0.6358
O6 O -0.0785(3) 0.5396(7) 0.2382(4)
H24 H -0.0529 0.6087 0.2679
H25 H -0.1031 0.5635 0.1817
O7 O 0.0000 1.3660(12) 0.2500
H21 H 0.0308 1.4197 0.2646
H21F H -0.0308 1.4197 0.2354
loop_
_geom_bond_atom_site_label_1
_geom_bond_atom_site_label_2
_geom_bond_site_symmetry_1
_geom_bond_site_symmetry_2
Gd1 O1 1_555 1_555
Co1 C2 1_555 1_555
Cu1 N1 1_555 1_555
N1 C4 1_555 1_555
C1 H1 1_555 1_555
H2 C1 1_555 1_555
C2 N4 1_555 1_555
C3 Co1 1_555 1_555
N2 Cu1 1_555 1_555
O1 C4 1_555 1_555
C4 C6 1_555 1_555
N3 Gd1 1_555 1_555
C5 Co1 1_555 1_555
O2 Gd1 1_555 1_555
N5 Cu1 1_555 1_555
H3 N5 1_555 1_555
C6 N2 1_555 1_555
N6 C5 1_555 1_555
C7 H4 1_555 1_555
H5 C7 1_555 1_555
C8 N5 1_555 1_555
H6 C8 1_555 1_555
H7 C8 1_555 1_555
N7 Cu1 1_555 1_555
H8 N7 1_555 1_555
C9 N2 1_555 1_555
H9 C9 1_555 1_555
H10 C9 1_555 1_555
C10 N5 1_555 1_555
H11 C10 1_555 1_555
H12 C10 1_555 1_555
C11 C1 1_555 1_555
H13 C11 1_555 1_555
H14 C11 1_555 1_555
O3 Gd1 1_555 1_555
O4 H19 1_555 1_555
C12 N1 1_555 1_555
H15 C12 1_555 1_555
H16 C12 1_555 1_555
O5 H26 1_555 1_555
O6 H24 1_555 1_555
C13 C8 1_555 1_555
H17 C13 1_555 1_555
H18 C13 1_555 1_555
O7 H21 1_555 1_555
H20 O4 1_555 1_555
H22 O3 1_555 1_555
H23 O3 1_555 1_555
H25 O6 1_555 1_555
H27 O5 1_555 1_555
H21F O7 1_555 1_555
N1F C4F 1_555 1_555
C1F H1F 1_555 1_555
H2F C1F 1_555 1_555
N2F C6F 1_555 1_555
O1F Gd1 1_555 1_555
C4F O1F 1_555 1_555
O2F Gd1 1_555 1_555
N5F H3F 1_555 1_555
C6F C4F 1_555 1_555
C7F H4F 1_555 1_555
H5F C7F 1_555 1_555
C8F N5F 1_555 1_555
H6F C8F 1_555 1_555
H7F C8F 1_555 1_555
N7F C1F 1_555 1_555
H8F N7F 1_555 1_555
C9F N2F 1_555 1_555
H9F C9F 1_555 1_555
H10F C9F 1_555 1_555
C10F N5F 1_555 1_555
H11F C10F 1_555 1_555
H12F C10F 1_555 1_555
C11F C1F 1_555 1_555
H13F C11F 1_555 1_555
H14F C11F 1_555 1_555
C12F N1F 1_555 1_555
H15F C12F 1_555 1_555
H16F C12F 1_555 1_555
C13F C8F 1_555 1_555
H17F C13F 1_555 1_555
H18F C13F 1_555 1_555
C3F N3F 1_555 1_555
N3F Gd1 1_555 1_555
O3F Gd1 1_555 1_555
H22F O3F 1_555 1_555
H23F O3F 1_555 1_555
Cu1F N1F 1_555 1_555
C2E Co1 1_555 1_555
N4E C2E 1_555 1_555
C5E Co1 1_555 1_555
N6E C5E 1_555 1_555
C3E Co1 1_555 1_555
Co1C C3F 1_555 1_555
C1 N7 1_555 1_555
C3 N3 1_555 1_555
O2 C6 1_555 1_555
C7 N7 1_555 1_555
C7 C10 1_555 1_555
C9 C11 1_555 1_555
C12 C13 1_555 1_555
N2F Cu1F 1_555 1_555
O2F C6F 1_555 1_555
N5F Cu1F 1_555 1_555
C7F N7F 1_555 1_555
C7F C10F 1_555 1_555
N7F Cu1F 1_555 1_555
C9F C11F 1_555 1_555
C12F C13F 1_555 1_555

#END
