
#######################################################################
#
#                 Cambridge Crystallographic Data Centre
#                                CCDC 
#
#######################################################################
#
# If this CIF has been generated from an entry in the Cambridge 
# Structural Database, then it will include bibliographic, chemical, 
# crystal, experimental, refinement or atomic coordinate data resulting 
# from the CCDC's data processing and validation procedures.
#
#######################################################################

data_BEHBIZ
_symmetry_cell_setting           orthorhombic
_symmetry_space_group_name_H-M   'P n a 21'
_symmetry_Int_Tables_number      33
_space_group_name_Hall           'P 2c -2n'
loop_
_symmetry_equiv_pos_site_id
_symmetry_equiv_pos_as_xyz
1 x,y,z
2 -x,-y,1/2+z
3 1/2-x,1/2+y,1/2+z
4 1/2+x,1/2-y,z
_cell_length_a                   9.552(2)
_cell_length_b                   10.888(2)
_cell_length_c                   7.719(1)
_cell_angle_alpha                90
_cell_angle_beta                 90
_cell_angle_gamma                90
_cell_volume                     802.793
loop_
_atom_site_label
_atom_site_type_symbol
_atom_site_fract_x
_atom_site_fract_y
_atom_site_fract_z
Cu1 Cu 0.23750 0.22310 0.25000
Cl1 Cl 0.19750 0.33050 0.00950
O1 O 0.36650 0.17080 0.43800
O2 O 0.47910 0.22990 0.67160
O3 O -0.02470 -0.07910 0.32190
O4 O 0.06420 0.10590 0.33620
N1 N 0.26560 0.06610 0.11770
N2 N 0.22180 0.36790 0.40850
C1 C 0.35480 0.06350 -0.01020
C2 C 0.13660 0.46220 0.37750
C3 C 0.30950 0.36980 0.54140
C4 C 0.17620 -0.02750 0.14350
C5 C 0.06620 0.00360 0.28020
C6 C 0.39420 0.24650 0.55260
H1 H 0.42110 0.13320 -0.03410
H2 H 0.06970 0.46150 0.27450
H3 H 0.48500 0.32000 0.72000
C2B C 0.36340 -0.03780 -0.12250
C1B C 0.14520 0.56350 0.48980
C4B C 0.32380 0.47250 0.64350
C3B C 0.19050 -0.13020 0.04140
N2B N 0.27820 -0.13210 -0.09150
H2B H 0.43030 -0.03850 -0.22550
N1B N 0.23440 0.56610 0.61770
H1B H 0.07890 0.63320 0.46590
C5B C 0.43380 0.50360 0.78020
C6B C 0.10580 -0.25350 0.05260
Cu1B Cu 0.26250 -0.27690 -0.25000
Cu1B_2 Cu 0.26250 0.72310 0.75000
O3B O 0.52470 0.42090 0.82190
O4B O 0.43580 0.60590 0.83620
O1B O 0.13350 -0.32920 -0.06200
O2B O 0.02090 -0.27010 0.17160
Cl1B Cl 0.30250 -0.16950 -0.49050
O4B_2 O 0.43580 -0.39410 -0.16380
N1B_2 N 0.23440 -0.43390 -0.38230
H3B H 0.01500 -0.18000 0.22000
loop_
_geom_bond_atom_site_label_1
_geom_bond_atom_site_label_2
_geom_bond_site_symmetry_1
_geom_bond_site_symmetry_2
Cu1 Cl1 1_555 1_555
O1 Cu1 1_555 1_555
O2 C6 1_555 1_555
O3 C5 1_555 1_555
O4 Cu1 1_555 1_555
N1 Cu1 1_555 1_555
N2 Cu1 1_555 1_555
C1 N1 1_555 1_555
C2 N2 1_555 1_555
C3 N2 1_555 1_555
C4 N1 1_555 1_555
C5 O4 1_555 1_555
C6 O1 1_555 1_555
H1 C1 1_555 1_555
H2 C2 1_555 1_555
H3 O2 1_555 1_555
C2B C1 1_555 1_555
C1B C2 1_555 1_555
C4B C3 1_555 1_555
C3B C4 1_555 1_555
N2B C2B 1_555 1_555
H2B C2B 1_555 1_555
N1B C1B 1_555 1_555
H1B C1B 1_555 1_555
C5B C4B 1_555 1_555
C6B C3B 1_555 1_555
Cu1B N2B 1_555 1_555
Cu1B_2 N1B 1_555 1_555
O3B C5B 1_555 1_555
O4B C5B 1_555 1_555
O1B C6B 1_555 1_555
O2B C6B 1_555 1_555
Cl1B Cu1B 1_555 1_555
O4B_2 Cu1B 1_555 1_555
N1B_2 Cu1B 1_555 1_555
H3B O2B 1_555 1_555
C3 C6 1_555 1_555
C4 C5 1_555 1_555
C4B N1B 1_555 1_555
C3B N2B 1_555 1_555
Cu1B O1B 1_555 1_555
Cu1B_2 O4B 1_555 1_555

#END
