
#######################################################################
#
#                 Cambridge Crystallographic Data Centre
#                                CCDC 
#
#######################################################################
#
# If this CIF has been generated from an entry in the Cambridge 
# Structural Database, then it will include bibliographic, chemical, 
# crystal, experimental, refinement or atomic coordinate data resulting 
# from the CCDC's data processing and validation procedures.
#
#######################################################################

data_BEHHUR01
_symmetry_cell_setting           monoclinic
_symmetry_space_group_name_H-M   'C 2/c'
_symmetry_Int_Tables_number      15
_space_group_name_Hall           '-C 2yn'
loop_
_symmetry_equiv_pos_site_id
_symmetry_equiv_pos_as_xyz
1 x,y,z
2 1/2+x,1/2+y,z
3 x,-y,1/2+z
4 1/2+x,1/2-y,1/2+z
5 -x,-y,-z
6 1/2-x,1/2-y,-z
7 -x,y,1/2-z
8 1/2-x,1/2+y,1/2-z
_cell_length_a                   19.702(5)
_cell_length_b                   11.386(5)
_cell_length_c                   7.491(5)
_cell_angle_alpha                90
_cell_angle_beta                 93.892(5)
_cell_angle_gamma                90
_cell_volume                     1676.56
loop_
_atom_site_label
_atom_site_type_symbol
_atom_site_fract_x
_atom_site_fract_y
_atom_site_fract_z
Mn1 Mn 1.0000 0.11192(3) 0.7500
Cl1 Cl 0.77924(3) -0.11522(7) 0.67395(10)
O1 O 0.91122(7) 0.01053(12) 0.6781(2)
O2 O 0.96092(7) -0.12407(11) 0.51517(18)
N1 N 1.06196(7) 0.27588(13) 0.8398(2)
C1 C 0.91062(9) -0.07714(15) 0.5779(2)
C2 C 0.84269(11) -0.1320(2) 0.5184(3)
H1 H 0.8495 -0.2151 0.4976
H2 H 0.8263 -0.0969 0.4056
C3 C 1.12221(10) 0.27522(19) 0.9318(3)
H3 H 1.1421 0.2033 0.9624
C4 C 1.15682(12) 0.3781(2) 0.9841(3)
H4 H 1.1990 0.3743 1.0478
C5 C 1.12818(12) 0.4838(2) 0.9409(3)
H5 H 1.1509 0.5528 0.9744
C6 C 1.06423(11) 0.48901(16) 0.8457(3)
C7 C 1.03306(9) 0.38101(14) 0.7983(2)
C8 C 1.03036(13) 0.59667(17) 0.7966(3)
H6 H 1.0507 0.6678 0.8297
C7F C 0.96694(9) 0.38101(14) 0.7017(2)
N1F N 0.93804(7) 0.27588(13) 0.6602(2)
C3F C 0.87779(10) 0.27522(19) 0.5682(3)
H3F H 0.8579 0.2033 0.5376
C4F C 0.84318(12) 0.3781(2) 0.5159(3)
H4F H 0.8010 0.3743 0.4522
C5F C 0.87182(12) 0.4838(2) 0.5591(3)
H5F H 0.8491 0.5528 0.5256
C6F C 0.93577(11) 0.48901(16) 0.6543(3)
C8F C 0.96964(13) 0.59667(17) 0.7034(3)
H6F H 0.9493 0.6678 0.6703
Cl1F Cl 1.22076(3) -0.11522(7) 0.82605(10)
O1F O 1.08878(7) 0.01053(12) 0.8219(2)
O2F O 1.03908(7) -0.12407(11) 0.98483(18)
C1F C 1.08938(9) -0.07714(15) 0.9221(2)
C2F C 1.15731(11) -0.1320(2) 0.9816(3)
H1F H 1.1505 -0.2151 1.0024
H2F H 1.1737 -0.0969 1.0944
O2B O 0.96092(7) 0.12407(11) 1.01517(18)
O2D O 1.03908(7) 0.12407(11) 0.48483(18)
Mn1B Mn 1.0000 -0.11192(3) 0.2500
Mn1B_2 Mn 1.0000 -0.11192(3) 1.2500
loop_
_geom_bond_atom_site_label_1
_geom_bond_atom_site_label_2
_geom_bond_site_symmetry_1
_geom_bond_site_symmetry_2
Mn1 O1 1_555 1_555
Cl1 C2 1_555 1_555
O1 C1 1_555 1_555
O2 C1 1_555 1_555
N1 Mn1 1_555 1_555
C1 C2 1_555 1_555
C2 H1 1_555 1_555
H2 C2 1_555 1_555
C3 N1 1_555 1_555
H3 C3 1_555 1_555
C4 C3 1_555 1_555
H4 C4 1_555 1_555
C5 C4 1_555 1_555
H5 C5 1_555 1_555
C6 C5 1_555 1_555
C7 N1 1_555 1_555
C8 C6 1_555 1_555
H6 C8 1_555 1_555
C7F C7 1_555 1_555
N1F Mn1 1_555 1_555
C3F N1F 1_555 1_555
H3F C3F 1_555 1_555
C4F C3F 1_555 1_555
H4F C4F 1_555 1_555
C5F C4F 1_555 1_555
H5F C5F 1_555 1_555
C6F C7F 1_555 1_555
C8F C8 1_555 1_555
H6F C8F 1_555 1_555
Cl1F C2F 1_555 1_555
O1F Mn1 1_555 1_555
O2F C1F 1_555 1_555
C1F O1F 1_555 1_555
C2F C1F 1_555 1_555
H1F C2F 1_555 1_555
H2F C2F 1_555 1_555
O2B Mn1 1_555 1_555
O2D Mn1 1_555 1_555
Mn1B O2 1_555 1_555
Mn1B_2 O2F 1_555 1_555
C6 C7 1_555 1_555
C7F N1F 1_555 1_555
C5F C6F 1_555 1_555
C6F C8F 1_555 1_555

#END
