
#######################################################################
#
#                 Cambridge Crystallographic Data Centre
#                                CCDC 
#
#######################################################################
#
# If this CIF has been generated from an entry in the Cambridge 
# Structural Database, then it will include bibliographic, chemical, 
# crystal, experimental, refinement or atomic coordinate data resulting 
# from the CCDC's data processing and validation procedures.
#
#######################################################################

data_BEHKAC
_symmetry_cell_setting           monoclinic
_symmetry_space_group_name_H-M   'P 21/c'
_symmetry_Int_Tables_number      14
_space_group_name_Hall           '-P 2ybc'
loop_
_symmetry_equiv_pos_site_id
_symmetry_equiv_pos_as_xyz
1 x,y,z
2 -x,1/2+y,1/2-z
3 -x,-y,-z
4 x,1/2-y,1/2+z
_cell_length_a                   14.6531(7)
_cell_length_b                   13.9482(5)
_cell_length_c                   24.6888(11)
_cell_angle_alpha                90
_cell_angle_beta                 119.116(3)
_cell_angle_gamma                90
_cell_volume                     4408.37
loop_
_atom_site_label
_atom_site_type_symbol
_atom_site_fract_x
_atom_site_fract_y
_atom_site_fract_z
C1 C 0.8766(4) 0.3194(4) 0.8614(2)
H1 H 0.8132 0.3146 0.8613
C2 C 0.9681(6) 0.3201(4) 0.9179(3)
H2 H 0.9664 0.3156 0.9550
C3 C 1.0613(5) 0.3277(4) 0.9175(3)
H3 H 1.1239 0.3294 0.9547
C4 C 1.0620(4) 0.3328(4) 0.8629(3)
H4 H 1.1247 0.3373 0.8622
C5 C 0.9670(3) 0.3313(3) 0.8076(2)
C6 C 0.9609(3) 0.3327(3) 0.7460(2)
C7 C 1.0490(4) 0.3324(3) 0.7381(3)
H5 H 1.1156 0.3326 0.7724
C8 C 1.0363(4) 0.3320(4) 0.6792(3)
H6 H 1.0942 0.3316 0.6732
C9 C 0.9376(5) 0.3320(3) 0.6295(3)
H7 H 0.9272 0.3312 0.5892
C10 C 0.8547(4) 0.3333(3) 0.6405(2)
H8 H 0.7877 0.3345 0.6066
C11 C 0.6271(3) 0.6003(3) 0.75053(18)
C12 C 0.5427(3) 0.5887(2) 0.7605(2)
H9 H 0.5209 0.5273 0.7637
C13 C 0.4906(3) 0.6672(3) 0.76589(18)
C14 C 0.5256(3) 0.7590(3) 0.7636(2)
H10 H 0.4904 0.8121 0.7672
C15 C 0.6123(3) 0.7721(3) 0.75597(19)
C16 C 0.6619(3) 0.6919(3) 0.74885(19)
H11 H 0.7194 0.7000 0.7429
C17 C 0.6791(3) 0.5139(3) 0.74106(19)
C18 C 0.3974(3) 0.6534(3) 0.77500(19)
C19 C 0.1289(4) 0.5765(3) 0.6956(2)
H12 H 0.1890 0.5750 0.6918
C20 C 0.0331(4) 0.5782(3) 0.6421(2)
H13 H 0.0285 0.5786 0.6031
C21 C -0.0544(4) 0.5793(3) 0.6484(2)
H14 H -0.1200 0.5800 0.6133
C22 C -0.0463(3) 0.5794(3) 0.7055(2)
H15 H -0.1061 0.5803 0.7097
C23 C 0.0515(3) 0.5781(2) 0.75758(19)
C24 C 0.0682(3) 0.5793(3) 0.8213(2)
C25 C -0.0141(4) 0.5815(3) 0.8351(3)
H16 H -0.0831 0.5800 0.8034
C26 C 0.0086(5) 0.5859(4) 0.8955(3)
H17 H -0.0449 0.5874 0.9055
C27 C 0.1111(5) 0.5880(4) 0.9416(3)
H18 H 0.1279 0.5914 0.9830
C28 C 0.1881(4) 0.5851(3) 0.9252(2)
H19 H 0.2574 0.5866 0.9564
C29 C 0.3937(3) 0.1908(3) 0.42962(18)
C30 C 0.4761(3) 0.1886(3) 0.48924(18)
H20 H 0.5106 0.1313 0.5062
C31 C 0.5077(3) 0.2729(2) 0.52417(18)
C32 C 0.4557(3) 0.3584(3) 0.49744(19)
H21 H 0.4756 0.4143 0.5210
C33 C 0.3758(3) 0.3623(3) 0.43697(19)
C34 C 0.3441(3) 0.2771(3) 0.40348(19)
H22 H 0.2890 0.2779 0.3630
C35 C 0.3543(3) 0.0993(3) 0.3931(2)
C36 C 0.5948(3) 0.2711(3) 0.58919(19)
N1 N 0.8757(3) 0.3254(2) 0.80770(17)
N2 N 0.8646(3) 0.3330(2) 0.69738(17)
N3 N 0.6544(3) 0.8632(2) 0.7588(2)
H23 H 0.6264 0.9128 0.7654
H24 H 0.7083 0.8696 0.7539
N4 N 0.1394(3) 0.5770(2) 0.75238(16)
N5 N 0.1678(3) 0.5801(2) 0.86655(16)
N6 N 0.3244(3) 0.4479(2) 0.41023(17)
H25 H 0.3423 0.5000 0.4315
H26 H 0.2747 0.4486 0.3724
O1 O 0.6510(2) 0.43260(19) 0.75001(15)
O2 O 0.7452(2) 0.5226(2) 0.72351(14)
O3 O 0.3862(2) 0.57335(18) 0.79437(14)
O4 O 0.3344(2) 0.72134(18) 0.76207(14)
O5 O 0.3944(2) 0.02133(19) 0.41918(14)
O6 O 0.2821(2) 0.10148(19) 0.33788(13)
O7 O 0.6440(2) 0.19500(19) 0.60988(13)
O8 O 0.6175(2) 0.34850(18) 0.62030(13)
Mn1 Mn 0.72838(4) 0.34030(4) 0.71632(3)
Mn2 Mn 0.29368(4) 0.56841(4) 0.83947(3)
O4A O 0.6656(2) 0.22134(18) 0.73793(14)
O5C O 0.3944(2) 0.47867(19) 0.91918(14)
O6C O 0.2821(2) 0.39852(19) 0.83788(13)
O7A O 0.3560(2) 0.69500(19) 0.89012(13)
Mn1A Mn 0.27162(4) 0.84030(4) 0.78368(3)
Mn2C Mn 0.29368(4) -0.06841(4) 0.33947(3)
Mn2A Mn 0.70632(4) 0.06841(4) 0.66053(3)
C37 C 0.6308(6) 0.5795(6) 0.9391(4)
H27 H 0.6480 0.6445 0.9349
H28 H 0.6594 0.5643 0.9823
H29 H 0.5563 0.5722 0.9186
C38 C 0.6160(7) 0.4272(6) 0.8893(4)
H30 H 0.5471 0.4398 0.8559
H31 H 0.6113 0.3948 0.9221
H32 H 0.6530 0.3875 0.8746
C39 C 0.7604(6) 0.5361(7) 0.9069(4)
H33 H 0.7840 0.4898 0.8895
N7 N 0.6724(5) 0.5182(5) 0.9126(3)
O9 O 0.8081(5) 0.6136(5) 0.9248(3)
C40 C 0.6403(18) -0.4849(12) 0.4056(11)
H34 H 0.6110 -0.4783 0.3615
H35 H 0.6947 -0.4383 0.4262
H36 H 0.5867 -0.4748 0.4167
C41 C 0.6023(14) -0.6485(15) 0.4121(9)
H37 H 0.5447 -0.6378 0.3713
H38 H 0.5792 -0.6410 0.4422
H39 H 0.6287 -0.7123 0.4147
C42 C 0.7922(19) -0.6038(17) 0.4511(16)
H40 H 0.8430 -0.5567 0.4619
N8 N 0.6833(11) -0.5805(9) 0.4243(5)
O10 O 0.8146(14) -0.6904(17) 0.4588(11)
O11 O 1.0232(9) 0.0968(8) 1.0159(5)
O12 O 0.8168(8) 0.8104(7) 0.9008(4)
loop_
_geom_bond_atom_site_label_1
_geom_bond_atom_site_label_2
_geom_bond_site_symmetry_1
_geom_bond_site_symmetry_2
C1 H1 1_555 1_555
C2 C1 1_555 1_555
H2 C2 1_555 1_555
C3 C2 1_555 1_555
H3 C3 1_555 1_555
C4 C3 1_555 1_555
H4 C4 1_555 1_555
C5 C4 1_555 1_555
C6 C5 1_555 1_555
C7 C6 1_555 1_555
H5 C7 1_555 1_555
C8 C7 1_555 1_555
H6 C8 1_555 1_555
C9 C8 1_555 1_555
H7 C9 1_555 1_555
C10 C9 1_555 1_555
H8 C10 1_555 1_555
C11 C12 1_555 1_555
C12 H9 1_555 1_555
C13 C12 1_555 1_555
C14 C13 1_555 1_555
H10 C14 1_555 1_555
C15 C14 1_555 1_555
C16 C11 1_555 1_555
H11 C16 1_555 1_555
C17 C11 1_555 1_555
C18 C13 1_555 1_555
C19 H12 1_555 1_555
C20 C19 1_555 1_555
H13 C20 1_555 1_555
C21 C20 1_555 1_555
H14 C21 1_555 1_555
C22 C21 1_555 1_555
H15 C22 1_555 1_555
C23 C22 1_555 1_555
C24 C23 1_555 1_555
C25 C24 1_555 1_555
H16 C25 1_555 1_555
C26 C25 1_555 1_555
H17 C26 1_555 1_555
C27 C26 1_555 1_555
H18 C27 1_555 1_555
C28 C27 1_555 1_555
H19 C28 1_555 1_555
C29 C30 1_555 1_555
C30 H20 1_555 1_555
C31 C30 1_555 1_555
C32 C31 1_555 1_555
H21 C32 1_555 1_555
C33 C32 1_555 1_555
C34 C29 1_555 1_555
H22 C34 1_555 1_555
C35 C29 1_555 1_555
C36 C31 1_555 1_555
N1 C1 1_555 1_555
N2 C6 1_555 1_555
N3 C15 1_555 1_555
H23 N3 1_555 1_555
H24 N3 1_555 1_555
N4 C19 1_555 1_555
N5 C24 1_555 1_555
N6 C33 1_555 1_555
H25 N6 1_555 1_555
H26 N6 1_555 1_555
O1 C17 1_555 1_555
O2 C17 1_555 1_555
O3 C18 1_555 1_555
O4 C18 1_555 1_555
O5 C35 1_555 1_555
O6 C35 1_555 1_555
O7 C36 1_555 1_555
O8 C36 1_555 1_555
Mn1 N1 1_555 1_555
Mn2 N4 1_555 1_555
C37 H27 1_555 1_555
H28 C37 1_555 1_555
H29 C37 1_555 1_555
C38 H30 1_555 1_555
H31 C38 1_555 1_555
H32 C38 1_555 1_555
C39 H33 1_555 1_555
N7 C37 1_555 1_555
O9 C39 1_555 1_555
C40 H34 1_555 1_555
H35 C40 1_555 1_555
H36 C40 1_555 1_555
C41 H37 1_555 1_555
H38 C41 1_555 1_555
H39 C41 1_555 1_555
C42 H40 1_555 1_555
N8 C40 1_555 1_555
O10 C42 1_555 1_555
O4A Mn1 1_555 1_555
O5C Mn2 1_555 1_555
O6C Mn2 1_555 1_555
O7A Mn2 1_555 1_555
Mn1A O4 1_555 1_555
Mn2C O5 1_555 1_555
Mn2A O7 1_555 1_555
C5 N1 1_555 1_555
C10 N2 1_555 1_555
C15 C16 1_555 1_555
C23 N4 1_555 1_555
C28 N5 1_555 1_555
C33 C34 1_555 1_555
N2 Mn1 1_555 1_555
N5 Mn2 1_555 1_555
O1 Mn1 1_555 1_555
O2 Mn1 1_555 1_555
O3 Mn2 1_555 1_555
O6 Mn2C 1_555 1_555
O8 Mn1 1_555 1_555
C38 N7 1_555 1_555
C39 N7 1_555 1_555
C41 N8 1_555 1_555
C42 N8 1_555 1_555

#END
