
#######################################################################
#
#                 Cambridge Crystallographic Data Centre
#                                CCDC 
#
#######################################################################
#
# If this CIF has been generated from an entry in the Cambridge 
# Structural Database, then it will include bibliographic, chemical, 
# crystal, experimental, refinement or atomic coordinate data resulting 
# from the CCDC's data processing and validation procedures.
#
#######################################################################

data_BEHKIK
_symmetry_cell_setting           monoclinic
_symmetry_space_group_name_H-M   'P 21/c'
_symmetry_Int_Tables_number      14
_space_group_name_Hall           '-P 2ybc'
loop_
_symmetry_equiv_pos_site_id
_symmetry_equiv_pos_as_xyz
1 x,y,z
2 -x,1/2+y,1/2-z
3 -x,-y,-z
4 x,1/2-y,1/2+z
_cell_length_a                   7.9819(3)
_cell_length_b                   14.2417(6)
_cell_length_c                   14.2967(5)
_cell_angle_alpha                90
_cell_angle_beta                 118.002(2)
_cell_angle_gamma                90
_cell_volume                     1434.93
loop_
_atom_site_label
_atom_site_type_symbol
_atom_site_fract_x
_atom_site_fract_y
_atom_site_fract_z
C1 C 0.7604(7) 0.5745(4) 0.4267(4)
C2 C 0.9093(7) 0.6246(4) 0.5038(4)
H1 H 0.9575 0.6768 0.4853
C3 C 0.9874(7) 0.5967(4) 0.6097(4)
C4 C 0.9116(8) 0.5211(4) 0.6384(4)
H2 H 0.9624 0.5034 0.7092
C5 C 0.7590(7) 0.4718(4) 0.5606(4)
C6 C 0.6858(7) 0.4970(3) 0.4546(4)
H3 H 0.5876 0.4624 0.4024
C7 C 1.1656(8) 0.6434(4) 0.6911(5)
C8 C 0.6752(7) 0.3901(4) 0.5915(4)
C9 C 0.297(3) 0.6174(10) 0.0246(10)
H4 H 0.3197 0.6764 0.0052
C10 C 0.229(2) 0.4698(9) 0.0232(12)
H5 H 0.1958 0.4076 0.0033
C11 C 0.2820(18) 0.5065(10) 0.1236(10)
H6 H 0.2896 0.4743 0.1820
N1 N 0.6812(7) 0.6015(4) 0.3176(4)
H7 H 0.665(10) 0.555(6) 0.282(6)
H8 H 0.760(11) 0.630(5) 0.304(6)
N2 N 0.3206(8) 0.6004(4) 0.1188(4)
N3 N 0.235(2) 0.5436(8) -0.0457(9)
H9 H 0.2077 0.5416 -0.1114
O1 O 1.1941(6) 0.7277(3) 0.6710(4)
O2 O 1.2768(7) 0.5980(3) 0.7705(4)
O3 O 0.6999(5) 0.3898(3) 0.6846(3)
O4 O 0.5865(7) 0.3289(3) 0.5232(4)
Ni1 Ni 0.43235(10) 0.68958(5) 0.24831(5)
O5 O 0.5555(6) 0.7790(3) 0.3796(4)
H10 H 0.521(10) 0.745(5) 0.414(6)
H11 H 0.474(8) 0.819(4) 0.352(6)
O6 O 0.5694(7) 0.7738(4) 0.1827(4)
H12 H 0.472(5) 0.778(5) 0.127(2)
H13 H 0.566(10) 0.819(2) 0.217(5)
O1C O 0.1941(6) 0.7723(3) 0.1710(4)
O3B O 0.3001(5) 0.6102(3) 0.3154(3)
Ni1C Ni 1.43235(10) 0.81042(5) 0.74831(5)
Ni1B Ni 0.56765(10) 0.31042(5) 0.75169(5)
loop_
_geom_bond_atom_site_label_1
_geom_bond_atom_site_label_2
_geom_bond_site_symmetry_1
_geom_bond_site_symmetry_2
C1 C2 1_555 1_555
C2 H1 1_555 1_555
C3 C2 1_555 1_555
C4 C3 1_555 1_555
H2 C4 1_555 1_555
C5 C4 1_555 1_555
C6 C1 1_555 1_555
H3 C6 1_555 1_555
C7 C3 1_555 1_555
C8 C5 1_555 1_555
C9 H4 1_555 1_555
C10 H5 1_555 1_555
C11 C10 1_555 1_555
H6 C11 1_555 1_555
N1 C1 1_555 1_555
H7 N1 1_555 1_555
H8 N1 1_555 1_555
N2 C9 1_555 1_555
N3 C9 1_555 1_555
H9 N3 1_555 1_555
O1 C7 1_555 1_555
O2 C7 1_555 1_555
O3 C8 1_555 1_555
O4 C8 1_555 1_555
Ni1 N1 1_555 1_555
O5 Ni1 1_555 1_555
H10 O5 1_555 1_555
H11 O5 1_555 1_555
O6 Ni1 1_555 1_555
H12 O6 1_555 1_555
H13 O6 1_555 1_555
O1C Ni1 1_555 1_555
O3B Ni1 1_555 1_555
Ni1C O1 1_555 1_555
Ni1B O3 1_555 1_555
C5 C6 1_555 1_555
C10 N3 1_555 1_555
C11 N2 1_555 1_555
N2 Ni1 1_555 1_555

#END
