
#######################################################################
#
#                 Cambridge Crystallographic Data Centre
#                                CCDC 
#
#######################################################################
#
# If this CIF has been generated from an entry in the Cambridge 
# Structural Database, then it will include bibliographic, chemical, 
# crystal, experimental, refinement or atomic coordinate data resulting 
# from the CCDC's data processing and validation procedures.
#
#######################################################################

data_BEHNEJ
_symmetry_cell_setting           monoclinic
_symmetry_space_group_name_H-M   'C 2/c'
_symmetry_Int_Tables_number      15
_space_group_name_Hall           '-C 2yn'
loop_
_symmetry_equiv_pos_site_id
_symmetry_equiv_pos_as_xyz
1 x,y,z
2 -x,y,1/2-z
3 1/2+x,1/2+y,z
4 1/2-x,1/2+y,1/2-z
5 -x,-y,-z
6 x,-y,1/2+z
7 1/2-x,1/2-y,-z
8 1/2+x,1/2-y,1/2+z
_cell_length_a                   24.1784(8)
_cell_length_b                   9.3562(2)
_cell_length_c                   15.6129(5)
_cell_angle_alpha                90
_cell_angle_beta                 97.021(1)
_cell_angle_gamma                90
_cell_volume                     3505.43
loop_
_atom_site_label
_atom_site_type_symbol
_atom_site_fract_x
_atom_site_fract_y
_atom_site_fract_z
Cu1 Cu 0.116550(10) 0.44138(2) -0.001032(16)
O1 O 0.05138(9) 0.4684(3) -0.10560(14)
H1 H 0.0219(14) 0.458(4) -0.102(2)
H2 H 0.0569(13) 0.456(3) -0.152(2)
N1 N 0.14712(7) 0.64505(16) -0.00322(11)
N2 N 0.15203(7) 0.71759(16) 0.06861(11)
N3 N 0.17981(7) 0.83847(16) 0.05610(11)
N4 N 0.14310(7) 1.05288(16) 0.10643(11)
N5 N 0.15528(7) 1.17195(17) 0.06478(12)
N6 N 0.10888(7) 1.24244(17) 0.04506(12)
C1 C 0.18618(9) 0.9452(2) 0.12425(14)
H3 H 0.1831 0.9003 0.1795
H4 H 0.2226 0.9894 0.1270
C2 C 0.17094(8) 0.7213(2) -0.06498(13)
C3 C 0.17533(9) 0.6920(2) -0.15190(13)
H5 H 0.1606 0.6092 -0.1786
C4 C 0.20250(10) 0.7919(3) -0.19530(15)
H6 H 0.2064 0.7762 -0.2531
C5 C 0.22466(10) 0.9175(2) -0.15533(16)
H7 H 0.2433 0.9812 -0.1874
C6 C 0.21984(9) 0.9498(2) -0.07102(16)
H8 H 0.2340 1.0337 -0.0450
C7 C 0.19217(8) 0.84744(19) -0.02684(13)
C8 C 0.08714(9) 1.0433(2) 0.11242(14)
C9 C 0.05457(11) 0.9398(2) 0.14641(16)
H9 H 0.0698 0.8572 0.1727
C10 C -0.00145(12) 0.9680(3) 0.13840(18)
H10 H -0.0252 0.9021 0.1595
C11 C -0.02396(11) 1.0939(3) 0.09920(19)
H11 H -0.0622 1.1086 0.0956
C12 C 0.00794(10) 1.1954(3) 0.06617(17)
H12 H -0.0075 1.2783 0.0405
C13 C 0.06530(9) 1.1678(2) 0.07308(14)
N7 N 0.16899(9) 0.29457(19) -0.13231(13)
N8 N 0.08838(8) 0.5147(2) 0.15893(12)
O2 O 0.12667(8) 0.22402(19) -0.14273(12)
O3 O 0.20737(9) 0.2807(2) -0.17541(14)
O4 O 0.17521(6) 0.39186(16) -0.07186(10)
O5 O 0.06115(9) 0.5674(2) 0.21222(12)
O6 O 0.13579(8) 0.46840(19) 0.17513(12)
O7 O 0.06466(6) 0.51069(15) 0.07955(9)
Cu1_2 Cu 0.116550(10) 1.44138(2) -0.001032(16)
N6_2 N 0.10888(7) 0.24244(17) 0.04506(12)
loop_
_geom_bond_atom_site_label_1
_geom_bond_atom_site_label_2
_geom_bond_site_symmetry_1
_geom_bond_site_symmetry_2
Cu1 O1 1_555 1_555
O1 H1 1_555 1_555
H2 O1 1_555 1_555
N1 Cu1 1_555 1_555
N2 N1 1_555 1_555
N3 N2 1_555 1_555
N4 N5 1_555 1_555
N5 N6 1_555 1_555
N6 C13 1_555 1_555
C1 N3 1_555 1_555
H3 C1 1_555 1_555
H4 C1 1_555 1_555
C2 N1 1_555 1_555
C3 C2 1_555 1_555
H5 C3 1_555 1_555
C4 C3 1_555 1_555
H6 C4 1_555 1_555
C5 C4 1_555 1_555
H7 C5 1_555 1_555
C6 C5 1_555 1_555
H8 C6 1_555 1_555
C7 N3 1_555 1_555
C8 N4 1_555 1_555
C9 C8 1_555 1_555
H9 C9 1_555 1_555
C10 C9 1_555 1_555
H10 C10 1_555 1_555
C11 C10 1_555 1_555
H11 C11 1_555 1_555
C12 C11 1_555 1_555
H12 C12 1_555 1_555
C13 C8 1_555 1_555
N7 O2 1_555 1_555
N8 O5 1_555 1_555
O3 N7 1_555 1_555
O4 Cu1 1_555 1_555
O6 Cu1 1_555 1_555
O7 Cu1 1_555 1_555
Cu1_2 N6 1_555 1_555
N6_2 Cu1 1_555 1_555
N4 C1 1_555 1_555
C2 C7 1_555 1_555
C6 C7 1_555 1_555
C12 C13 1_555 1_555
N7 O4 1_555 1_555
N8 O6 1_555 1_555
N8 O7 1_555 1_555

#END
