
#######################################################################
#
#                 Cambridge Crystallographic Data Centre
#                                CCDC 
#
#######################################################################
#
# If this CIF has been generated from an entry in the Cambridge 
# Structural Database, then it will include bibliographic, chemical, 
# crystal, experimental, refinement or atomic coordinate data resulting 
# from the CCDC's data processing and validation procedures.
#
#######################################################################

data_BEHNOT
_symmetry_cell_setting           monoclinic
_symmetry_space_group_name_H-M   'P 21/n'
_symmetry_Int_Tables_number      14
_space_group_name_Hall           '-P 2yn'
loop_
_symmetry_equiv_pos_site_id
_symmetry_equiv_pos_as_xyz
1 x,y,z
2 1/2-x,1/2+y,1/2-z
3 -x,-y,-z
4 1/2+x,1/2-y,1/2+z
_cell_length_a                   8.5290(3)
_cell_length_b                   38.4315(10)
_cell_length_c                   11.0350(4)
_cell_angle_alpha                90
_cell_angle_beta                 99.6720(10)
_cell_angle_gamma                90
_cell_volume                     3565.66
loop_
_atom_site_label
_atom_site_type_symbol
_atom_site_fract_x
_atom_site_fract_y
_atom_site_fract_z
Cu1 Cu 0.63299(4) 0.168226(9) 0.80746(3)
Cu2 Cu 0.0000 0.0000 0.5000
O1 O 0.7383(3) 0.21038(6) 0.7503(2)
H1 H 0.679(5) 0.2243(10) 0.713(3)
H2 H 0.806(4) 0.2182(9) 0.796(3)
O2 O 0.8499(3) 0.14735(7) 0.8612(3)
H3 H 0.883(5) 0.1351(11) 0.821(4)
H4 H 0.919(4) 0.1580(9) 0.895(3)
O3 O -0.0520(3) 0.04338(6) 0.4057(2)
H5 H -0.121(6) 0.0469(11) 0.339(4)
H6 H -0.048(5) 0.0600(10) 0.440(4)
O4 O -0.0628(3) 0.02503(7) 0.6897(2)
H7 H -0.046(4) 0.0434(9) 0.704(3)
H8 H -0.010(6) 0.0141(11) 0.754(4)
N1 N 0.5368(3) 0.12345(6) 0.8415(2)
N2 N 0.5901(3) 0.09521(6) 0.7946(2)
N3 N 0.5076(3) 0.06844(6) 0.8287(2)
N4 N 0.4376(3) 0.02920(6) 0.6625(2)
N5 N 0.2935(3) 0.01456(6) 0.6549(2)
N6 N 0.2221(3) 0.01728(6) 0.5400(2)
C1 C 0.4164(4) 0.11492(7) 0.9057(3)
C2 C 0.3203(4) 0.13535(8) 0.9692(3)
H9 H 0.3315 0.1599 0.9751
C3 C 0.2088(4) 0.11776(8) 1.0224(3)
H10 H 0.1426 0.1306 1.0674
C4 C 0.1894(4) 0.08126(8) 1.0127(3)
H11 H 0.1094 0.0704 1.0500
C5 C 0.2825(4) 0.06101(8) 0.9511(3)
H12 H 0.2704 0.0365 0.9450
C6 C 0.3964(4) 0.07892(7) 0.8977(3)
C7 C 0.4593(4) 0.04280(7) 0.5517(3)
C8 C 0.5840(4) 0.06119(8) 0.5151(3)
H13 H 0.6781 0.0669 0.5707
C9 C 0.5352(4) 0.03393(7) 0.7825(3)
H14 H 0.6489 0.0312 0.7759
H15 H 0.5079 0.0160 0.8401
C10 C 0.5618(4) 0.07057(8) 0.3931(3)
H16 H 0.6427 0.0834 0.3634
C11 C 0.4227(4) 0.06171(8) 0.3110(3)
H17 H 0.4140 0.0684 0.2273
C12 C 0.2995(4) 0.04389(8) 0.3471(3)
H18 H 0.2058 0.0382 0.2911
C13 C 0.3197(4) 0.03448(7) 0.4727(3)
N7 N 0.4417(3) 0.18146(6) 0.6883(2)
N8 N 0.3331(3) 0.20077(6) 0.7251(2)
N9 N 0.2277(3) 0.20965(6) 0.6258(2)
N10 N 0.1204(3) 0.26700(6) 0.6101(2)
N11 N 0.0880(3) 0.27692(6) 0.4913(2)
N12 N 0.1323(3) 0.30914(6) 0.4849(2)
C14 C 0.4059(4) 0.17707(8) 0.5615(3)
C15 C 0.4833(4) 0.15819(8) 0.4809(3)
H19 H 0.5772 0.1452 0.5087
C16 C 0.4152(4) 0.15962(8) 0.3587(3)
H20 H 0.4628 0.1470 0.3005
C17 C 0.2772(4) 0.17925(8) 0.3173(3)
H21 H 0.2358 0.1797 0.2318
C18 C 0.2003(4) 0.19777(8) 0.3964(3)
H22 H 0.1073 0.2110 0.3684
C19 C 0.2682(4) 0.19580(7) 0.5208(3)
C20 C 0.1919(4) 0.29345(8) 0.6828(3)
C21 C 0.2538(4) 0.29621(8) 0.8083(3)
H23 H 0.2505 0.2774 0.8636
C22 C 0.0935(4) 0.23123(7) 0.6414(3)
H24 H -0.0035 0.2224 0.5883
H25 H 0.0764 0.2299 0.7279
C23 C 0.3188(4) 0.32754(8) 0.8465(3)
H26 H 0.3619 0.3306 0.9309
C24 C 0.3245(4) 0.35575(8) 0.7644(3)
H27 H 0.3718 0.3770 0.7953
C25 C 0.2631(4) 0.35309(8) 0.6413(3)
H28 H 0.2655 0.3721 0.5864
C26 C 0.1972(4) 0.32094(7) 0.6012(3)
Cu1B Cu -0.63299(4) -0.168226(9) 0.19254(3)
Cu1C Cu 0.13299(4) 0.331774(9) 0.30746(3)
Cu1C_2 Cu 1.13299(4) 0.331774(9) 1.30746(3)
O1B O -0.7383(3) -0.21038(6) 0.2497(2)
H1B H -0.679(5) -0.2243(10) 0.287(3)
H2B H -0.806(4) -0.2182(9) 0.204(3)
O2B O -0.8499(3) -0.14735(7) 0.1388(3)
H3B H -0.883(5) -0.1351(11) 0.179(4)
H4B H -0.919(4) -0.1580(9) 0.105(3)
O3B O 0.0520(3) -0.04338(6) 0.5943(2)
H5B H 0.121(6) -0.0469(11) 0.661(4)
H6B H 0.048(5) -0.0600(10) 0.560(4)
O4B O 0.0628(3) -0.02503(7) 0.3103(2)
H7B H 0.046(4) -0.0434(9) 0.296(3)
H8B H 0.010(6) -0.0141(11) 0.246(4)
N1B N -0.5368(3) -0.12345(6) 0.1585(2)
N2B N -0.5901(3) -0.09521(6) 0.2054(2)
N3B N -0.5076(3) -0.06844(6) 0.1713(2)
N4B N -0.4376(3) -0.02920(6) 0.3375(2)
N5B N -0.2935(3) -0.01456(6) 0.3451(2)
N6B N -0.2221(3) -0.01728(6) 0.4600(2)
C1B C -0.4164(4) -0.11492(7) 0.0943(3)
C2B C -0.3203(4) -0.13535(8) 0.0308(3)
H9B H -0.3315 -0.1599 0.0249
C3B C -0.2088(4) -0.11776(8) -0.0224(3)
H10B H -0.1426 -0.1306 -0.0674
C4B C -0.1894(4) -0.08126(8) -0.0127(3)
H11B H -0.1094 -0.0704 -0.0500
C5B C -0.2825(4) -0.06101(8) 0.0489(3)
H12B H -0.2704 -0.0365 0.0550
C6B C -0.3964(4) -0.07892(7) 0.1023(3)
C7B C -0.4593(4) -0.04280(7) 0.4483(3)
C8B C -0.5840(4) -0.06119(8) 0.4849(3)
H13B H -0.6781 -0.0669 0.4293
C9B C -0.5352(4) -0.03393(7) 0.2175(3)
H14B H -0.6489 -0.0312 0.2241
H15B H -0.5079 -0.0160 0.1599
C10B C -0.5618(4) -0.07057(8) 0.6069(3)
H16B H -0.6427 -0.0834 0.6366
C11B C -0.4227(4) -0.06171(8) 0.6890(3)
H17B H -0.4140 -0.0684 0.7727
C12B C -0.2995(4) -0.04389(8) 0.6529(3)
H18B H -0.2058 -0.0382 0.7089
C13B C -0.3197(4) -0.03448(7) 0.5273(3)
N7C N 0.9417(3) 0.31854(6) 1.1883(2)
N7B N -0.4417(3) -0.18146(6) 0.3117(2)
N8C N 0.8331(3) 0.29923(6) 1.2251(2)
N9C N 0.7277(3) 0.29035(6) 1.1258(2)
N10C N 0.6204(3) 0.23300(6) 1.1101(2)
N11C N 0.5880(3) 0.22308(6) 0.9913(2)
N12C N 0.6323(3) 0.19086(6) 0.9849(2)
N12A N -0.6323(3) -0.19086(6) 0.0151(2)
C14C C 0.9059(4) 0.32293(8) 1.0615(3)
C15C C 0.9833(4) 0.34181(8) 0.9809(3)
H19C H 1.0772 0.3548 1.0087
C16C C 0.9152(4) 0.34038(8) 0.8587(3)
H20C H 0.9628 0.3530 0.8005
C17C C 0.7772(4) 0.32075(8) 0.8173(3)
H21C H 0.7358 0.3203 0.7318
C18C C 0.7003(4) 0.30223(8) 0.8964(3)
H22C H 0.6073 0.2890 0.8684
C19C C 0.7682(4) 0.30420(7) 1.0208(3)
C20C C 0.6919(4) 0.20655(8) 1.1828(3)
C21C C 0.7538(4) 0.20379(8) 1.3083(3)
H23C H 0.7505 0.2226 1.3636
C22C C 0.5935(4) 0.26877(7) 1.1414(3)
H24C H 0.4965 0.2776 1.0883
H25C H 0.5764 0.2701 1.2279
C23C C 0.8188(4) 0.17246(8) 1.3465(3)
H26C H 0.8619 0.1694 1.4309
C24C C 0.8245(4) 0.14425(8) 1.2644(3)
H27C H 0.8718 0.1230 1.2953
C25C C 0.7631(4) 0.14691(8) 1.1413(3)
H28C H 0.7655 0.1279 1.0864
C26C C 0.6972(4) 0.17906(7) 1.1012(3)
B1 B 0.0493(5) 0.11407(10) 0.6309(4)
F1 F 0.2009(3) 0.10191(6) 0.6364(2)
F2 F -0.0428(3) 0.10458(5) 0.51810(18)
F3 F 0.0431(3) 0.14958(5) 0.64528(18)
F4 F -0.0210(2) 0.09826(5) 0.72471(17)
B2 B -0.2134(5) 0.04156(9) 0.0878(3)
F5 F -0.2284(3) 0.06167(5) 0.19159(17)
F6 F -0.0839(2) 0.01911(5) 0.12162(17)
F7 F -0.1869(2) 0.06325(5) -0.00551(17)
F8 F -0.3513(2) 0.02280(4) 0.05405(16)
B3 B 1.0722(4) 0.22736(9) 1.0203(3)
F9 F 1.0453(2) 0.19153(4) 1.02101(17)
F10 F 0.9799(2) 0.24091(4) 0.91258(16)
F11 F 1.0239(2) 0.24234(4) 1.12304(16)
F12 F 1.2306(2) 0.23422(5) 1.02193(17)
loop_
_geom_bond_atom_site_label_1
_geom_bond_atom_site_label_2
_geom_bond_site_symmetry_1
_geom_bond_site_symmetry_2
Cu1 O1 1_555 1_555
Cu2 O3 1_555 1_555
O1 H1 1_555 1_555
H2 O1 1_555 1_555
O2 Cu1 1_555 1_555
H3 O2 1_555 1_555
H4 O2 1_555 1_555
O3 H5 1_555 1_555
H6 O3 1_555 1_555
O4 Cu2 1_555 1_555
H7 O4 1_555 1_555
H8 O4 1_555 1_555
N1 Cu1 1_555 1_555
N2 N1 1_555 1_555
N3 N2 1_555 1_555
N4 N5 1_555 1_555
N5 N6 1_555 1_555
N6 Cu2 1_555 1_555
C1 N1 1_555 1_555
C2 C1 1_555 1_555
H9 C2 1_555 1_555
C3 C2 1_555 1_555
H10 C3 1_555 1_555
C4 C3 1_555 1_555
H11 C4 1_555 1_555
C5 C4 1_555 1_555
H12 C5 1_555 1_555
C6 N3 1_555 1_555
C7 N4 1_555 1_555
C8 C7 1_555 1_555
H13 C8 1_555 1_555
C9 N3 1_555 1_555
H14 C9 1_555 1_555
H15 C9 1_555 1_555
C10 C8 1_555 1_555
H16 C10 1_555 1_555
C11 C10 1_555 1_555
H17 C11 1_555 1_555
C12 C11 1_555 1_555
H18 C12 1_555 1_555
C13 N6 1_555 1_555
N7 Cu1 1_555 1_555
N8 N7 1_555 1_555
N9 N8 1_555 1_555
N10 N11 1_555 1_555
N11 N12 1_555 1_555
N12 C26 1_555 1_555
C14 N7 1_555 1_555
C15 C14 1_555 1_555
H19 C15 1_555 1_555
C16 C15 1_555 1_555
H20 C16 1_555 1_555
C17 C16 1_555 1_555
H21 C17 1_555 1_555
C18 C17 1_555 1_555
H22 C18 1_555 1_555
C19 N9 1_555 1_555
C20 N10 1_555 1_555
C21 C20 1_555 1_555
H23 C21 1_555 1_555
C22 N9 1_555 1_555
H24 C22 1_555 1_555
H25 C22 1_555 1_555
C23 C21 1_555 1_555
H26 C23 1_555 1_555
C24 C23 1_555 1_555
H27 C24 1_555 1_555
C25 C24 1_555 1_555
H28 C25 1_555 1_555
C26 C20 1_555 1_555
B1 F1 1_555 1_555
F2 B1 1_555 1_555
F3 B1 1_555 1_555
F4 B1 1_555 1_555
B2 F5 1_555 1_555
F6 B2 1_555 1_555
F7 B2 1_555 1_555
F8 B2 1_555 1_555
B3 F9 1_555 1_555
F10 B3 1_555 1_555
F11 B3 1_555 1_555
F12 B3 1_555 1_555
Cu1B O1B 1_555 1_555
Cu1C N12 1_555 1_555
Cu1C_2 N7C 1_555 1_555
O1B H1B 1_555 1_555
H2B O1B 1_555 1_555
O2B Cu1B 1_555 1_555
H3B O2B 1_555 1_555
H4B O2B 1_555 1_555
O3B Cu2 1_555 1_555
H5B O3B 1_555 1_555
H6B O3B 1_555 1_555
O4B Cu2 1_555 1_555
H7B O4B 1_555 1_555
H8B O4B 1_555 1_555
N1B Cu1B 1_555 1_555
N2B N1B 1_555 1_555
N3B N2B 1_555 1_555
N4B N5B 1_555 1_555
N5B N6B 1_555 1_555
N6B Cu2 1_555 1_555
C1B N1B 1_555 1_555
C2B C1B 1_555 1_555
H9B C2B 1_555 1_555
C3B C2B 1_555 1_555
H10B C3B 1_555 1_555
C4B C3B 1_555 1_555
H11B C4B 1_555 1_555
C5B C4B 1_555 1_555
H12B C5B 1_555 1_555
C6B N3B 1_555 1_555
C7B N4B 1_555 1_555
C8B C7B 1_555 1_555
H13B C8B 1_555 1_555
C9B N3B 1_555 1_555
H14B C9B 1_555 1_555
H15B C9B 1_555 1_555
C10B C8B 1_555 1_555
H16B C10B 1_555 1_555
C11B C10B 1_555 1_555
H17B C11B 1_555 1_555
C12B C11B 1_555 1_555
H18B C12B 1_555 1_555
C13B N6B 1_555 1_555
N7C N8C 1_555 1_555
N7B Cu1B 1_555 1_555
N8C N9C 1_555 1_555
N9C C19C 1_555 1_555
N10C N11C 1_555 1_555
N11C N12C 1_555 1_555
N12C Cu1 1_555 1_555
N12A Cu1B 1_555 1_555
C14C N7C 1_555 1_555
C15C C14C 1_555 1_555
H19C C15C 1_555 1_555
C16C C15C 1_555 1_555
H20C C16C 1_555 1_555
C17C C16C 1_555 1_555
H21C C17C 1_555 1_555
C18C C17C 1_555 1_555
H22C C18C 1_555 1_555
C19C C14C 1_555 1_555
C20C N10C 1_555 1_555
C21C C20C 1_555 1_555
H23C C21C 1_555 1_555
C22C N9C 1_555 1_555
H24C C22C 1_555 1_555
H25C C22C 1_555 1_555
C23C C21C 1_555 1_555
H26C C23C 1_555 1_555
C24C C23C 1_555 1_555
H27C C24C 1_555 1_555
C25C C24C 1_555 1_555
H28C C25C 1_555 1_555
C26C N12C 1_555 1_555
N4 C9 1_555 1_555
C1 C6 1_555 1_555
C5 C6 1_555 1_555
C7 C13 1_555 1_555
C12 C13 1_555 1_555
N10 C22 1_555 1_555
C14 C19 1_555 1_555
C18 C19 1_555 1_555
C25 C26 1_555 1_555
N4B C9B 1_555 1_555
C1B C6B 1_555 1_555
C5B C6B 1_555 1_555
C7B C13B 1_555 1_555
C12B C13B 1_555 1_555
N10C C22C 1_555 1_555
C18C C19C 1_555 1_555
C20C C26C 1_555 1_555
C25C C26C 1_555 1_555

#END
