
#######################################################################
#
#                 Cambridge Crystallographic Data Centre
#                                CCDC 
#
#######################################################################
#
# If this CIF has been generated from an entry in the Cambridge 
# Structural Database, then it will include bibliographic, chemical, 
# crystal, experimental, refinement or atomic coordinate data resulting 
# from the CCDC's data processing and validation procedures.
#
#######################################################################

data_BEHPIO
_symmetry_cell_setting           triclinic
_symmetry_space_group_name_H-M   'P -1'
_symmetry_Int_Tables_number      2
_space_group_name_Hall           '-P 1'
loop_
_symmetry_equiv_pos_site_id
_symmetry_equiv_pos_as_xyz
1 x,y,z
2 -x,-y,-z
_cell_length_a                   8.209(3)
_cell_length_b                   11.951(4)
_cell_length_c                   15.384(5)
_cell_angle_alpha                103.007(6)
_cell_angle_beta                 94.673(6)
_cell_angle_gamma                94.643(6)
_cell_volume                     1457.97
loop_
_atom_site_label
_atom_site_type_symbol
_atom_site_fract_x
_atom_site_fract_y
_atom_site_fract_z
Ag1 Ag 1.0000 0.0000 1.0000
N1 N 0.9964(5) 0.0830(3) 0.8864(2)
N2 N 0.2889(5) -0.0726(4) -0.0265(3)
O1 O 0.7245(4) -0.0769(3) 0.51254(18)
H1 H 0.7137 -0.1191 0.4620
O2 O 0.6802(4) -0.1919(2) 0.35599(18)
C1 C 0.7571(5) 0.0291(4) 0.5076(3)
C2 C 0.7694(5) 0.0626(3) 0.4266(3)
C3 C 0.8315(5) 0.1761(3) 0.4217(3)
H2 H 0.8659 0.2372 0.4708
C4 C 0.8326(5) 0.1811(3) 0.3328(3)
C5 C 0.7717(5) 0.0714(4) 0.2801(3)
H3 H 0.7599 0.0522 0.2178
C6 C 0.7312(5) -0.0054(4) 0.3334(3)
C7 C 0.6786(5) -0.1242(4) 0.3035(3)
C8 C 0.7784(5) 0.1110(4) 0.5961(3)
C9 C 0.8565(5) 0.0791(4) 0.6678(3)
H4 H 0.8983 0.0078 0.6596
C10 C 0.8732(5) 0.1517(4) 0.7514(3)
C11 C 0.8117(6) 0.2581(4) 0.7655(3)
H5 H 0.8257 0.3076 0.8222
C12 C 0.7301(6) 0.2895(4) 0.6950(3)
H6 H 0.6870 0.3603 0.7040
C13 C 0.7116(5) 0.2169(5) 0.6109(3)
H7 H 0.6543 0.2384 0.5636
C14 C 0.9447(6) 0.1153(4) 0.8265(3)
C15 C 0.6205(5) -0.1771(4) 0.2086(3)
C16 C 0.5245(5) -0.1209(4) 0.1568(3)
H8 H 0.5014 -0.0457 0.1801
C17 C 0.4636(5) -0.1780(4) 0.0701(3)
C18 C 0.4970(6) -0.2890(5) 0.0340(3)
H9 H 0.4565 -0.3259 -0.0245
C19 C 0.5917(7) -0.3446(4) 0.0861(4)
H10 H 0.6149 -0.4198 0.0629
C20 C 0.6508(6) -0.2888(4) 0.1716(3)
H11 H 0.7137 -0.3273 0.2062
C21 C 0.3639(6) -0.1194(4) 0.0166(3)
C22 C 0.8990(5) 0.2816(3) 0.2962(3)
C23 C 1.0451(5) 0.2451(3) 0.2456(3)
C24 C 1.1731(6) 0.2005(3) 0.2876(3)
H12 H 1.1667 0.1934 0.3462
C25 C 1.3085(6) 0.1666(4) 0.2455(4)
H13 H 1.3920 0.1372 0.2755
C26 C 1.3195(6) 0.1764(4) 0.1596(4)
H14 H 1.4097 0.1526 0.1302
C27 C 1.1973(8) 0.2213(4) 0.1170(3)
H15 H 1.2063 0.2297 0.0589
C28 C 1.0606(6) 0.2546(4) 0.1588(3)
H16 H 0.9780 0.2839 0.1281
C29 C 0.7574(5) 0.3091(4) 0.2344(3)
H17 H 0.7943 0.3729 0.2102
H18 H 0.6665 0.3287 0.2684
H19 H 0.7233 0.2427 0.1863
C30 C 0.9540(6) 0.3870(3) 0.3742(3)
H20 H 0.8626 0.4042 0.4095
H21 H 1.0417 0.3678 0.4128
C31 C 1.0129(8) 0.4922(5) 0.3437(4)
H22 H 1.0459 0.5548 0.3949
H23 H 0.9257 0.5131 0.3068
H24 H 1.1047 0.4763 0.3096
N1A N 1.0036(5) -0.0830(3) 1.1136(2)
N2A N 1.7111(5) 0.0726(4) 2.0265(3)
O1A O 1.2755(4) 0.0769(3) 1.48746(18)
H1A H 1.2863 0.1191 1.5380
O2A O 1.3198(4) 0.1919(2) 1.64401(18)
C1A C 1.2429(5) -0.0291(4) 1.4924(3)
C2A C 1.2306(5) -0.0626(3) 1.5734(3)
C3A C 1.1685(5) -0.1761(3) 1.5783(3)
H2A H 1.1341 -0.2372 1.5292
C4A C 1.1674(5) -0.1811(3) 1.6672(3)
C5A C 1.2283(5) -0.0714(4) 1.7199(3)
H3A H 1.2401 -0.0522 1.7822
C6A C 1.2688(5) 0.0054(4) 1.6666(3)
C7A C 1.3214(5) 0.1242(4) 1.6965(3)
C8A C 1.2216(5) -0.1110(4) 1.4039(3)
C9A C 1.1435(5) -0.0791(4) 1.3322(3)
H4A H 1.1017 -0.0078 1.3404
C10A C 1.1268(5) -0.1517(4) 1.2486(3)
C11A C 1.1883(6) -0.2581(4) 1.2345(3)
H5A H 1.1743 -0.3076 1.1778
C12A C 1.2699(6) -0.2895(4) 1.3050(3)
H6A H 1.3130 -0.3603 1.2960
C13A C 1.2884(5) -0.2169(5) 1.3891(3)
H7A H 1.3457 -0.2384 1.4364
C14A C 1.0553(6) -0.1153(4) 1.1735(3)
C15A C 1.3795(5) 0.1771(4) 1.7914(3)
C16A C 1.4755(5) 0.1209(4) 1.8432(3)
H8A H 1.4986 0.0457 1.8199
C17A C 1.5364(5) 0.1780(4) 1.9299(3)
C18A C 1.5030(6) 0.2890(5) 1.9660(3)
H9A H 1.5435 0.3259 2.0245
C19A C 1.4083(7) 0.3446(4) 1.9139(4)
H10A H 1.3851 0.4198 1.9371
C20A C 1.3492(6) 0.2888(4) 1.8284(3)
H11A H 1.2863 0.3273 1.7938
C21A C 1.6361(6) 0.1194(4) 1.9834(3)
C22A C 1.1010(5) -0.2816(3) 1.7038(3)
C23A C 0.9549(5) -0.2451(3) 1.7544(3)
C24A C 0.8269(6) -0.2005(3) 1.7124(3)
H12A H 0.8333 -0.1934 1.6538
C25A C 0.6915(6) -0.1666(4) 1.7545(4)
H13A H 0.6080 -0.1372 1.7245
C26A C 0.6805(6) -0.1764(4) 1.8404(4)
H14A H 0.5903 -0.1526 1.8698
C27A C 0.8027(8) -0.2213(4) 1.8830(3)
H15A H 0.7937 -0.2297 1.9411
C28A C 0.9394(6) -0.2546(4) 1.8412(3)
H16A H 1.0220 -0.2839 1.8719
C29A C 1.2426(5) -0.3091(4) 1.7656(3)
H17A H 1.2057 -0.3729 1.7898
H18A H 1.3335 -0.3287 1.7316
H19A H 1.2767 -0.2427 1.8137
C30A C 1.0460(6) -0.3870(3) 1.6258(3)
H20A H 1.1374 -0.4042 1.5905
H21A H 0.9583 -0.3678 1.5872
C31A C 0.9871(8) -0.4922(5) 1.6563(4)
H22A H 0.9541 -0.5548 1.6051
H23A H 1.0743 -0.5131 1.6932
H24A H 0.8953 -0.4763 1.6904
N2_2 N 1.2889(5) -0.0726(4) 0.9735(3)
N2A_2 N 0.7111(5) 0.0726(4) 1.0265(3)
Ag1_2 Ag 0.0000 0.0000 0.0000
Ag1_3 Ag 2.0000 0.0000 2.0000
F1 F 0.0137(5) 0.6330(3) 0.0252(2)
F2 F 0.0965(5) 0.5018(4) -0.0822(3)
F3 F 0.1599(4) 0.4977(3) 0.0608(2)
P1 P 0.0000 0.5000 0.0000
F1A F -0.0137(5) 0.3670(3) -0.0252(2)
F2A F -0.0965(5) 0.4982(4) 0.0822(3)
F3A F -0.1599(4) 0.5023(3) -0.0608(2)
C32 C 0.5407(8) 0.5497(8) 0.4313(6)
H25 H 0.5673 0.5829 0.3844
C33 C 0.4576(9) 0.4426(8) 0.4141(5)
H26 H 0.4284 0.4022 0.3550
C34 C 0.5839(8) 0.6072(5) 0.5168(8)
H27 H 0.6415 0.6802 0.5295
C34A C 0.4161(8) 0.3928(5) 0.4832(8)
C32A C 0.4593(8) 0.4503(8) 0.5687(6)
H25A H 0.4327 0.4171 0.6156
C33A C 0.5424(9) 0.5574(8) 0.5859(5)
H26A H 0.5716 0.5978 0.6450
H27A H 0.3585 0.3198 0.4705
loop_
_geom_bond_atom_site_label_1
_geom_bond_atom_site_label_2
_geom_bond_site_symmetry_1
_geom_bond_site_symmetry_2
Ag1 N1 1_555 1_555
F1 P1 1_555 1_555
F2 P1 1_555 1_555
F3 P1 1_555 1_555
N1 C14 1_555 1_555
N2 C21 1_555 1_555
O1 H1 1_555 1_555
O2 C7 1_555 1_555
P1 F1A 1_555 1_555
C1 O1 1_555 1_555
C2 C1 1_555 1_555
C3 C2 1_555 1_555
H2 C3 1_555 1_555
C4 C3 1_555 1_555
C5 C4 1_555 1_555
H3 C5 1_555 1_555
C6 C2 1_555 1_555
C7 C6 1_555 1_555
C8 C1 1_555 1_555
C9 C8 1_555 1_555
H4 C9 1_555 1_555
C10 C9 1_555 1_555
C11 C10 1_555 1_555
H5 C11 1_555 1_555
C12 C11 1_555 1_555
H6 C12 1_555 1_555
C13 C8 1_555 1_555
H7 C13 1_555 1_555
C14 C10 1_555 1_555
C15 C7 1_555 1_555
C16 C15 1_555 1_555
H8 C16 1_555 1_555
C17 C16 1_555 1_555
C18 C17 1_555 1_555
H9 C18 1_555 1_555
C19 C18 1_555 1_555
H10 C19 1_555 1_555
C20 C15 1_555 1_555
H11 C20 1_555 1_555
C21 C17 1_555 1_555
C22 C4 1_555 1_555
C23 C22 1_555 1_555
C24 C23 1_555 1_555
H12 C24 1_555 1_555
C25 C24 1_555 1_555
H13 C25 1_555 1_555
C26 C25 1_555 1_555
H14 C26 1_555 1_555
C27 C26 1_555 1_555
H15 C27 1_555 1_555
C28 C23 1_555 1_555
H16 C28 1_555 1_555
C29 C22 1_555 1_555
H17 C29 1_555 1_555
H18 C29 1_555 1_555
H19 C29 1_555 1_555
C30 C22 1_555 1_555
H20 C30 1_555 1_555
H21 C30 1_555 1_555
C31 C30 1_555 1_555
H22 C31 1_555 1_555
H23 C31 1_555 1_555
H24 C31 1_555 1_555
C32 H25 1_555 1_555
C33 C32 1_555 1_555
H26 C33 1_555 1_555
C34 C32 1_555 1_555
H27 C34 1_555 1_555
F2A P1 1_555 1_555
F3A P1 1_555 1_555
C34A C33 1_555 1_555
C32A C34A 1_555 1_555
H25A C32A 1_555 1_555
C33A C34 1_555 1_555
H26A C33A 1_555 1_555
H27A C34A 1_555 1_555
N1A Ag1 1_555 1_555
N2A C21A 1_555 1_555
O1A H1A 1_555 1_555
O2A C7A 1_555 1_555
C1A O1A 1_555 1_555
C2A C1A 1_555 1_555
C3A C2A 1_555 1_555
H2A C3A 1_555 1_555
C4A C3A 1_555 1_555
C5A C4A 1_555 1_555
H3A C5A 1_555 1_555
C6A C2A 1_555 1_555
C7A C6A 1_555 1_555
C8A C1A 1_555 1_555
C9A C8A 1_555 1_555
H4A C9A 1_555 1_555
C10A C9A 1_555 1_555
C11A C10A 1_555 1_555
H5A C11A 1_555 1_555
C12A C11A 1_555 1_555
H6A C12A 1_555 1_555
C13A C8A 1_555 1_555
H7A C13A 1_555 1_555
C14A N1A 1_555 1_555
C15A C7A 1_555 1_555
C16A C15A 1_555 1_555
H8A C16A 1_555 1_555
C17A C16A 1_555 1_555
C18A C17A 1_555 1_555
H9A C18A 1_555 1_555
C19A C18A 1_555 1_555
H10A C19A 1_555 1_555
C20A C15A 1_555 1_555
H11A C20A 1_555 1_555
C21A C17A 1_555 1_555
C22A C4A 1_555 1_555
C23A C22A 1_555 1_555
C24A C23A 1_555 1_555
H12A C24A 1_555 1_555
C25A C24A 1_555 1_555
H13A C25A 1_555 1_555
C26A C25A 1_555 1_555
H14A C26A 1_555 1_555
C27A C26A 1_555 1_555
H15A C27A 1_555 1_555
C28A C23A 1_555 1_555
H16A C28A 1_555 1_555
C29A C22A 1_555 1_555
H17A C29A 1_555 1_555
H18A C29A 1_555 1_555
H19A C29A 1_555 1_555
C30A C22A 1_555 1_555
H20A C30A 1_555 1_555
H21A C30A 1_555 1_555
C31A C30A 1_555 1_555
H22A C31A 1_555 1_555
H23A C31A 1_555 1_555
H24A C31A 1_555 1_555
N2_2 Ag1 1_555 1_555
N2A_2 Ag1 1_555 1_555
Ag1_2 N2 1_555 1_555
Ag1_3 N2A 1_555 1_555
C5 C6 1_555 1_555
C12 C13 1_555 1_555
C19 C20 1_555 1_555
C27 C28 1_555 1_555
C32A C33A 1_555 1_555
C5A C6A 1_555 1_555
C10A C14A 1_555 1_555
C12A C13A 1_555 1_555
C19A C20A 1_555 1_555
C27A C28A 1_555 1_555

#END
