
#######################################################################
#
#                 Cambridge Crystallographic Data Centre
#                                CCDC 
#
#######################################################################
#
# If this CIF has been generated from an entry in the Cambridge 
# Structural Database, then it will include bibliographic, chemical, 
# crystal, experimental, refinement or atomic coordinate data resulting 
# from the CCDC's data processing and validation procedures.
#
#######################################################################

data_BEJNEL
_symmetry_cell_setting           monoclinic
_symmetry_space_group_name_H-M   'P 21/c'
_symmetry_Int_Tables_number      14
_space_group_name_Hall           '-P 2ybc'
loop_
_symmetry_equiv_pos_site_id
_symmetry_equiv_pos_as_xyz
1 x,y,z
2 -x,1/2+y,1/2-z
3 -x,-y,-z
4 x,1/2-y,1/2+z
_cell_length_a                   8.3096(9)
_cell_length_b                   12.7502(14)
_cell_length_c                   20.107(2)
_cell_angle_alpha                90
_cell_angle_beta                 99.447(2)
_cell_angle_gamma                90
_cell_volume                     2101.43
loop_
_atom_site_label
_atom_site_type_symbol
_atom_site_fract_x
_atom_site_fract_y
_atom_site_fract_z
Rh1 Rh 0.08420(2) 0.725035(15) 0.135413(10)
Cl1 Cl -0.13080(8) 0.84375(5) 0.11039(3)
Cl2 Cl 0.16809(8) 0.76487(5) 0.03433(3)
Cl3 Cl 0.24689(8) 0.86069(5) 0.18816(3)
O1 O -0.0197(3) 0.58183(16) 0.30381(10)
O2 O 0.0092(2) 0.69801(14) 0.22513(9)
N1 N 0.2643(3) 0.61660(17) 0.16175(11)
N2 N 0.2167(3) 0.52525(17) 0.18941(11)
N3 N -0.0597(3) 0.60305(17) 0.09609(11)
N4 N -0.0589(3) 0.51730(17) 0.13728(11)
C1 C 0.4194(3) 0.6022(2) 0.15433(14)
C2 C 0.4688(3) 0.5012(2) 0.17685(14)
H1 H 0.5739 0.4716 0.1775
C3 C 0.3390(3) 0.4533(2) 0.19768(13)
C4 C 0.0507(3) 0.5158(2) 0.20116(13)
H2 H 0.0385 0.4471 0.2238
C5 C 0.0094(3) 0.6053(2) 0.24781(13)
C6 C -0.1504(3) 0.4382(2) 0.10551(14)
C7 C -0.2157(3) 0.4766(2) 0.04337(14)
H3 H -0.2877 0.4403 0.0095
C8 C -0.1574(3) 0.5785(2) 0.03881(13)
C9 C 0.5194(3) 0.6827(2) 0.12641(15)
H4 H 0.4704 0.7520 0.1297
H5 H 0.5233 0.6667 0.0790
H6 H 0.6303 0.6824 0.1521
C10 C 0.3187(3) 0.3457(2) 0.22338(15)
H7 H 0.2642 0.3493 0.2630
H8 H 0.4260 0.3129 0.2359
H9 H 0.2524 0.3039 0.1882
C11 C -0.1634(4) 0.3333(2) 0.13642(14)
H10 H -0.1865 0.3419 0.1824
H11 H -0.0604 0.2953 0.1378
H12 H -0.2520 0.2936 0.1095
C12 C -0.1931(4) 0.6513(2) -0.01973(14)
H13 H -0.2021 0.7231 -0.0034
H14 H -0.2960 0.6310 -0.0479
H15 H -0.1045 0.6477 -0.0464
Li1 Li 0.0560(6) 0.9861(4) 0.1290(3)
O3 O 0.1059(3) 1.06641(17) 0.05614(11)
H16 H 0.0424 1.0976 0.0206
H17 H 0.2189 1.1004 0.0730
O1A O 0.0197(3) 1.08183(16) 0.19619(10)
Li1A Li -0.0560(6) 0.4861(4) 0.3710(3)
O4 O -0.4015(3) 0.66830(18) 0.40278(11)
C13 C -0.4728(4) 0.6058(2) 0.34615(15)
H18 H -0.3876 0.5770 0.3222
H19 H -0.5504 0.6477 0.3141
C14 C -0.5601(4) 0.5190(3) 0.37674(16)
H20 H -0.4833 0.4636 0.3965
H21 H -0.6466 0.4872 0.3431
C15 C -0.6315(4) 0.5776(2) 0.43083(15)
H22 H -0.6484 0.5302 0.4681
H23 H -0.7366 0.6111 0.4120
C16 C -0.5011(3) 0.6594(2) 0.45469(15)
H24 H -0.5523 0.7277 0.4618
H25 H -0.4341 0.6371 0.4977
loop_
_geom_bond_atom_site_label_1
_geom_bond_atom_site_label_2
_geom_bond_site_symmetry_1
_geom_bond_site_symmetry_2
Rh1 Cl1 1_555 1_555
Cl1 Li1 1_555 1_555
Cl2 Rh1 1_555 1_555
Cl3 Rh1 1_555 1_555
O1 C5 1_555 1_555
O2 Rh1 1_555 1_555
N1 Rh1 1_555 1_555
N2 N1 1_555 1_555
N3 Rh1 1_555 1_555
N4 N3 1_555 1_555
C1 N1 1_555 1_555
C2 C1 1_555 1_555
H1 C2 1_555 1_555
C3 N2 1_555 1_555
C4 N2 1_555 1_555
H2 C4 1_555 1_555
C5 O2 1_555 1_555
C6 N4 1_555 1_555
C7 C6 1_555 1_555
H3 C7 1_555 1_555
C8 N3 1_555 1_555
C9 C1 1_555 1_555
H4 C9 1_555 1_555
H5 C9 1_555 1_555
H6 C9 1_555 1_555
C10 C3 1_555 1_555
H7 C10 1_555 1_555
H8 C10 1_555 1_555
H9 C10 1_555 1_555
C11 C6 1_555 1_555
H10 C11 1_555 1_555
H11 C11 1_555 1_555
H12 C11 1_555 1_555
C12 C8 1_555 1_555
H13 C12 1_555 1_555
H14 C12 1_555 1_555
H15 C12 1_555 1_555
Li1 Cl3 1_555 1_555
O3 Li1 1_555 1_555
H16 O3 1_555 1_555
H17 O3 1_555 1_555
O4 C13 1_555 1_555
C13 H18 1_555 1_555
H19 C13 1_555 1_555
C14 C13 1_555 1_555
H20 C14 1_555 1_555
H21 C14 1_555 1_555
C15 C14 1_555 1_555
H22 C15 1_555 1_555
H23 C15 1_555 1_555
C16 O4 1_555 1_555
H24 C16 1_555 1_555
H25 C16 1_555 1_555
O1A Li1 1_555 1_555
Li1A O1 1_555 1_555
N4 C4 1_555 1_555
C2 C3 1_555 1_555
C4 C5 1_555 1_555
C7 C8 1_555 1_555
C15 C16 1_555 1_555

#END
