
#######################################################################
#
#                 Cambridge Crystallographic Data Centre
#                                CCDC 
#
#######################################################################
#
# If this CIF has been generated from an entry in the Cambridge 
# Structural Database, then it will include bibliographic, chemical, 
# crystal, experimental, refinement or atomic coordinate data resulting 
# from the CCDC's data processing and validation procedures.
#
#######################################################################

data_BEKBID
_symmetry_cell_setting           monoclinic
_symmetry_space_group_name_H-M   'P 21/n'
_symmetry_Int_Tables_number      14
_space_group_name_Hall           '-P 2yn'
loop_
_symmetry_equiv_pos_site_id
_symmetry_equiv_pos_as_xyz
1 x,y,z
2 1/2-x,1/2+y,1/2-z
3 -x,-y,-z
4 1/2+x,1/2-y,1/2+z
_cell_length_a                   11.252(2)
_cell_length_b                   8.475(2)
_cell_length_c                   15.633(3)
_cell_angle_alpha                90
_cell_angle_beta                 90.25(3)
_cell_angle_gamma                90
_cell_volume                     1490.76
loop_
_atom_site_label
_atom_site_type_symbol
_atom_site_fract_x
_atom_site_fract_y
_atom_site_fract_z
Ca1 Ca 0.5385(1) 0.1565(1) 0.6624(1)
N1 N 0.3420(3) 0.2801(5) 0.3958(2)
C1 C 0.2899(5) 0.1932(6) 0.4720(3)
C2 C 0.2552(4) 0.3915(6) 0.3567(3)
C3 C 0.4569(4) 0.3581(6) 0.4162(3)
P1 P 0.2648(1) 0.3004(2) 0.5727(1)
O1 O 0.3745(3) 0.3032(4) 0.6256(2)
O2 O 0.2150(3) 0.4591(4) 0.5530(2)
O3 O 0.1662(3) 0.1962(5) 0.6153(2)
P2 P 0.3034(1) 0.4865(2) 0.2573(1)
O4 O 0.3669(3) 0.6333(4) 0.2792(2)
O5 O 0.1964(3) 0.5049(4) 0.2020(2)
O6 O 0.3925(3) 0.3644(4) 0.2194(2)
P3 P 0.5790(1) 0.2196(2) 0.4333(1)
O7 O 0.6121(3) 0.2194(4) 0.5265(2)
O8 O 0.5455(3) 0.0678(4) 0.3926(2)
O9 O 0.6823(3) 0.2932(4) 0.3797(2)
O10 O 0.4472(4) 0.1086(6) 0.7974(3)
H1 H 0.3640(3) 0.1994(5) 0.3550(2)
H2 H 0.3419(5) 0.1049(6) 0.4847(3)
H3 H 0.2142(5) 0.1493(6) 0.4540(3)
H4 H 0.2374(4) 0.4733(6) 0.3982(3)
H5 H 0.1820(4) 0.3347(6) 0.3453(3)
H6 H 0.4473(4) 0.4217(6) 0.4673(3)
H7 H 0.4774(4) 0.4285(6) 0.3696(3)
H8 H 0.2014(3) 0.1068(5) 0.6645(2)
H9 H 0.3633(3) 0.3440(4) 0.1671(2)
H10 H 0.7212(3) 0.3901(4) 0.3941(2)
H11 H 0.4622(4) 0.0309(6) 0.8391(3)
H12 H 0.3435(4) 0.0910(6) 0.7826(3)
O4B O 0.6331(3) 0.3667(4) 0.7208(2)
O5C O 0.6964(3) -0.0049(4) 0.7020(2)
O8B O 0.4545(3) -0.0678(4) 0.6074(2)
Ca1B Ca 0.4615(1) 0.8435(1) 0.3376(1)
Ca1C Ca 0.0385(1) 0.3435(1) 0.1624(1)
Ca1B_2 Ca 0.4615(1) -0.1565(1) 0.3376(1)
O11 O 0.4902(4) 0.3758(7) 0.9188(3)
O12 O 0.2231(4) -0.0342(5) 0.7243(3)
H13 H 0.1591(4) -0.0946(5) 0.7574(3)
H14 H 0.1981(4) -0.1289(5) 0.6810(3)
O13 O 0.8569(3) 0.2252(6) 0.5618(3)
H15 H 0.9014(3) 0.2854(6) 0.5756(3)
H16 H 0.7827(3) 0.2182(6) 0.5604(3)
O14? O 0.0170(7) 0.5115(11) 0.4563(5)
H17? H -0.0418(7) 0.5559(11) 0.4920(5)
loop_
_geom_bond_atom_site_label_1
_geom_bond_atom_site_label_2
_geom_bond_site_symmetry_1
_geom_bond_site_symmetry_2
Ca1 O1 1_555 1_555
N1 C1 1_555 1_555
C1 P1 1_555 1_555
C2 N1 1_555 1_555
C3 N1 1_555 1_555
P1 O1 1_555 1_555
O2 P1 1_555 1_555
O3 P1 1_555 1_555
P2 C2 1_555 1_555
O4 P2 1_555 1_555
O5 P2 1_555 1_555
O6 P2 1_555 1_555
P3 C3 1_555 1_555
O7 Ca1 1_555 1_555
O8 P3 1_555 1_555
O9 P3 1_555 1_555
O10 Ca1 1_555 1_555
H1 N1 1_555 1_555
H2 C1 1_555 1_555
H3 C1 1_555 1_555
H4 C2 1_555 1_555
H5 C2 1_555 1_555
H6 C3 1_555 1_555
H7 C3 1_555 1_555
H8 O3 1_555 1_555
H9 O6 1_555 1_555
H10 O9 1_555 1_555
H11 O10 1_555 1_555
H12 O10 1_555 1_555
O12 H13 1_555 1_555
H14 O12 1_555 1_555
O13 H15 1_555 1_555
H16 O13 1_555 1_555
O4B Ca1 1_555 1_555
O5C Ca1 1_555 1_555
O8B Ca1 1_555 1_555
Ca1B O4 1_555 1_555
Ca1C O5 1_555 1_555
Ca1B_2 O8 1_555 1_555
P3 O7 1_555 1_555

#END
