
#######################################################################
#
#                 Cambridge Crystallographic Data Centre
#                                CCDC 
#
#######################################################################
#
# If this CIF has been generated from an entry in the Cambridge 
# Structural Database, then it will include bibliographic, chemical, 
# crystal, experimental, refinement or atomic coordinate data resulting 
# from the CCDC's data processing and validation procedures.
#
#######################################################################

data_BEKVOD
_symmetry_cell_setting           rhombohedral
_symmetry_space_group_name_H-M   'R 3 c'
_symmetry_Int_Tables_number      161
_space_group_name_Hall           'R 3 -2"c'
loop_
_symmetry_equiv_pos_site_id
_symmetry_equiv_pos_as_xyz
1 x,y,z
2 -y,-x,1/2+z
3 -y,x-y,z
4 -x+y,-x,z
5 1/3+x,2/3+y,2/3+z
6 1/3-y,2/3+x-y,2/3+z
7 1/3-x+y,2/3-x,2/3+z
8 2/3+x,1/3+y,1/3+z
9 2/3-y,1/3+x-y,1/3+z
10 2/3-x+y,1/3-x,1/3+z
11 x,x-y,1/2+z
12 -x+y,y,1/2+z
13 1/3-y,2/3-x,1/6+z
14 1/3+x,2/3+x-y,1/6+z
15 1/3-x+y,2/3+y,1/6+z
16 2/3-y,1/3-x,5/6+z
17 2/3+x,1/3+x-y,5/6+z
18 2/3-x+y,1/3+y,5/6+z
_cell_length_a                   21.04152(35)
_cell_length_b                   21.04152(35)
_cell_length_c                   11.42935(22)
_cell_angle_alpha                90
_cell_angle_beta                 90
_cell_angle_gamma                120
_cell_volume                     4382.34
loop_
_atom_site_label
_atom_site_type_symbol
_atom_site_fract_x
_atom_site_fract_y
_atom_site_fract_z
Zn1 Zn 0.543390(95) 0.45010(11) 0.33333
C1 C 0.527990 0.293250 0.572260
H1 H 0.518650 0.244330 0.565210
C2 C 0.52986 0.332530 0.472250
N1 N 0.543620 0.404630 0.482630
C3 C 0.555510 0.437440 0.593040
H2 H 0.564850 0.486360 0.600090
N2 N 0.553640 0.398160 0.693060
C4 C 0.539880 0.326060 0.682670
H3 H 0.538610 0.29941 0.750590
O1 O 0.519240 0.303230 0.373590
C5 C 0.314720 0.310900 0.237260
H4 H 0.280600 0.260040 0.228580
C6 C 0.291440 0.362280 0.224610
N3 N 0.341720 0.437240 0.237410
C7 C 0.415290 0.460830 0.262850
H5 H 0.449420 0.511700 0.271530
N4 N 0.438580 0.409460 0.275490
C8 C 0.388290 0.334500 0.262700
H6 H 0.404120 0.299630 0.271290
O2 O 0.225710 0.341220 0.201890
Zn1A Zn 0.54990(11) 0.456610(95) 0.83333
Zn1P Zn 0.210057(95) 0.42662(15) 0.16666
N2A N 0.601840 0.446360 0.193060
O2M O 0.559043 0.551157 0.368557
loop_
_geom_bond_atom_site_label_1
_geom_bond_atom_site_label_2
_geom_bond_site_symmetry_1
_geom_bond_site_symmetry_2
Zn1 N1 1_555 1_555
C1 H1 1_555 1_555
C2 C1 1_555 1_555
N1 C2 1_555 1_555
C3 N1 1_555 1_555
H2 C3 1_555 1_555
N2 C3 1_555 1_555
C4 C1 1_555 1_555
H3 C4 1_555 1_555
O1 C2 1_555 1_555
C5 H4 1_555 1_555
C6 C5 1_555 1_555
N3 C6 1_555 1_555
C7 N3 1_555 1_555
H5 C7 1_555 1_555
N4 Zn1 1_555 1_555
C8 C5 1_555 1_555
H6 C8 1_555 1_555
O2 C6 1_555 1_555
Zn1A N2 1_555 1_555
Zn1P O2 1_555 1_555
N2A Zn1 1_555 1_555
O2M Zn1 1_555 1_555
N2 C4 1_555 1_555
C7 N4 1_555 1_555
N4 C8 1_555 1_555

#END
