
#######################################################################
#
#                 Cambridge Crystallographic Data Centre
#                                CCDC 
#
#######################################################################
#
# If this CIF has been generated from an entry in the Cambridge 
# Structural Database, then it will include bibliographic, chemical, 
# crystal, experimental, refinement or atomic coordinate data resulting 
# from the CCDC's data processing and validation procedures.
#
#######################################################################

data_BEKZEX
_symmetry_cell_setting           monoclinic
_symmetry_space_group_name_H-M   'C 2/c'
_symmetry_Int_Tables_number      15
_space_group_name_Hall           '-C 2yn'
loop_
_symmetry_equiv_pos_site_id
_symmetry_equiv_pos_as_xyz
1 x,y,z
2 x,-y,1/2+z
3 1/2+x,1/2+y,z
4 1/2+x,1/2-y,1/2+z
5 -x,-y,-z
6 -x,y,1/2-z
7 1/2-x,1/2-y,-z
8 1/2-x,1/2+y,1/2-z
_cell_length_a                   18.335(6)
_cell_length_b                   14.628(2)
_cell_length_c                   12.383(4)
_cell_angle_alpha                90
_cell_angle_beta                 113.00(1)
_cell_angle_gamma                90
_cell_volume                     3057.16
loop_
_atom_site_label
_atom_site_type_symbol
_atom_site_fract_x
_atom_site_fract_y
_atom_site_fract_z
Ag1 Ag 0.50000 0.46413(8) 0.75000
Ag2 Ag 0.24823(5) 0.19769(5) 0.74440(6)
Ag3 Ag 0.57796(6) 0.69009(6) 0.87602(9)
Cr1 Cr 0.29060(7) 0.49561(8) 0.47630(10)
O1 O 0.3519(3) 0.4212(4) 0.6135(5)
O2 O 0.2072(3) 0.4091(4) 0.4655(5)
O3 O 0.3416(4) 0.3002(5) 0.7169(6)
O4 O 0.1836(4) 0.2876(4) 0.5593(6)
C1 C 0.3149(5) 0.3554(5) 0.6332(7)
C2 C 0.2274(5) 0.3480(6) 0.5457(7)
O5 O 0.2193(4) 0.5697(4) 0.3436(5)
O6 O 0.2581(3) 0.5855(4) 0.5672(5)
O7 O 0.6481(5) 0.8040(4) 0.8055(6)
O8 O 0.6844(4) 0.7898(4) 1.0452(5)
C3 C 0.1889(4) 0.6401(6) 0.3713(7)
C4 C 0.2105(4) 0.6474(5) 0.5060(7)
O9 O 0.6168(3) 0.5708(4) 1.0105(5)
O10 O 0.3264(3) 0.4219(4) 0.3720(5)
O11 O 0.5257(3) 0.4136(4) 0.5863(5)
O12 O 0.5790(4) 0.5814(5) 0.6989(5)
C5 C 0.5814(4) 0.5455(5) 1.0756(6)
C6 C 0.3877(5) 0.4530(5) 0.3587(6)
O13 O 0.4965(6) 0.7942(11) 0.9049(12)
Ag3E Ag 0.42204(6) 0.69009(6) 0.62398(9)
O1E O 0.6481(3) 0.4212(4) 0.8865(5)
O11E O 0.4743(3) 0.4136(4) 0.9137(5)
O12E O 0.4210(4) 0.5814(5) 0.8011(5)
O7B O 0.1481(5) 0.3040(4) 0.8055(6)
O8D O 0.3156(4) 0.2102(4) 0.9548(5)
O10F O 0.1736(3) 0.0781(4) 0.6280(5)
O9E O 0.3832(3) 0.5708(4) 0.4895(5)
C3C C 0.6889(4) 0.8599(6) 0.8713(7)
Ag2B Ag 0.74823(5) 0.69769(5) 0.74440(6)
C4C C 0.7105(4) 0.8526(5) 1.0060(7)
Ag2D Ag 0.75177(5) 0.80231(5) 1.25560(6)
O7C O 0.1481(5) 0.6960(4) 0.3055(6)
O8C O 0.1844(4) 0.7102(4) 0.5452(5)
Cr1E Cr 0.70940(7) 0.49561(8) 1.02370(10)
Ag2F Ag 0.25177(5) 0.30231(5) 0.25560(6)
C5A C 0.5814(4) 0.4545(5) 0.5756(6)
C6D C 0.6123(5) 0.5470(5) 0.6413(6)
C6E C 0.6123(5) 0.4530(5) 1.1413(6)
O11A O 0.5257(3) 0.5864(4) 1.0863(5)
O12D O 0.4210(4) 0.4186(5) 0.3011(5)
C5E C 0.4186(4) 0.5455(5) 0.4244(6)
Cs1 Cs 0.5088(1) 0.2154(1) 0.8608(2)
Cs1E Cs 0.4912(1) 0.2154(1) 0.6392(2)
O14 O 0.1051(9) 0.4508(16) 0.1642(16)
O15 O 0.0610(9) 0.4844(11) -0.0792(23)
Ag4? Ag 0.5771(20) 0.1571(23) 0.8034(31)
Ag5? Ag 0.5410(17) 0.2343(18) 0.9383(28)
loop_
_geom_bond_atom_site_label_1
_geom_bond_atom_site_label_2
_geom_bond_site_symmetry_1
_geom_bond_site_symmetry_2
Ag1 Ag3 1_555 1_555
Ag2 O3 1_555 1_555
Ag3 O7 1_555 1_555
Cr1 O1 1_555 1_555
O1 Ag1 1_555 1_555
O2 Cr1 1_555 1_555
O3 C1 1_555 1_555
O4 Ag2 1_555 1_555
C1 O1 1_555 1_555
C2 O2 1_555 1_555
O5 Cr1 1_555 1_555
O6 Cr1 1_555 1_555
O7 C3C 1_555 1_555
O8 Ag3 1_555 1_555
C3 O5 1_555 1_555
C4 O6 1_555 1_555
O9 Ag3 1_555 1_555
O10 Cr1 1_555 1_555
O11 Ag1 1_555 1_555
O12 Ag1 1_555 1_555
C5 O9 1_555 1_555
C6 O10 1_555 1_555
Cs1 Cs1E 1_555 1_555
O13 Ag3 1_555 1_555
Ag3E Ag1 1_555 1_555
O1E Ag1 1_555 1_555
O11E Ag1 1_555 1_555
O12E Ag1 1_555 1_555
O7B Ag2 1_555 1_555
O8D Ag2 1_555 1_555
O10F Ag2 1_555 1_555
O9E Cr1 1_555 1_555
C3C C4C 1_555 1_555
Ag2B O7 1_555 1_555
C4C O8 1_555 1_555
Ag2D O8 1_555 1_555
O7C C3 1_555 1_555
O8C C4 1_555 1_555
Cr1E O9 1_555 1_555
Ag2F O10 1_555 1_555
C5A O11 1_555 1_555
C6D O12 1_555 1_555
C6E C5 1_555 1_555
O11A C5 1_555 1_555
O12D C6 1_555 1_555
C5E C6 1_555 1_555
Ag3 Ag3E 1_555 1_555
Ag3 O12 1_555 1_555
O4 C2 1_555 1_555
C1 C2 1_555 1_555
C3 C4 1_555 1_555
Ag3E O9E 1_555 1_555
Ag3E O12E 1_555 1_555
O1E Cr1E 1_555 1_555
O9E C5E 1_555 1_555
C5A C6D 1_555 1_555

#END
