
#######################################################################
#
#                 Cambridge Crystallographic Data Centre
#                                CCDC 
#
#######################################################################
#
# If this CIF has been generated from an entry in the Cambridge 
# Structural Database, then it will include bibliographic, chemical, 
# crystal, experimental, refinement or atomic coordinate data resulting 
# from the CCDC's data processing and validation procedures.
#
#######################################################################

data_BELTUJ
_symmetry_cell_setting           orthorhombic
_symmetry_space_group_name_H-M   'P b c a'
_symmetry_Int_Tables_number      61
_space_group_name_Hall           '-P 2ac 2ab'
loop_
_symmetry_equiv_pos_site_id
_symmetry_equiv_pos_as_xyz
1 x,y,z
2 1/2-x,-y,1/2+z
3 1/2+x,1/2-y,-z
4 -x,1/2+y,1/2-z
5 -x,-y,-z
6 1/2+x,y,1/2-z
7 1/2-x,1/2+y,z
8 x,1/2-y,1/2+z
_cell_length_a                   24.9627(18)
_cell_length_b                   24.875(3)
_cell_length_c                   19.5360(14)
_cell_angle_alpha                90
_cell_angle_beta                 90
_cell_angle_gamma                90
_cell_volume                     12130.8
loop_
_atom_site_label
_atom_site_type_symbol
_atom_site_fract_x
_atom_site_fract_y
_atom_site_fract_z
Co1 Co 0.07798(3) 0.09344(2) 0.08280(4)
Co2 Co 0.12444(2) 0.05961(3) 0.24948(4)
Co3 Co 0.08235(3) 0.47281(2) -0.08054(3)
P1 P 0.40296(5) 0.23733(5) 0.08323(8)
P2 P 0.09590(5) 0.11814(5) -0.08934(6)
C1 C 0.3372(2) 0.2076(2) 0.1022(3)
C2 C 0.3019(2) 0.1995(3) 0.0493(3)
H1 H 0.3110 0.2109 0.0044
C3 C 0.2521(2) 0.1740(2) 0.0613(3)
H2 H 0.2277 0.1692 0.0245
C4 C 0.2386(2) 0.15624(19) 0.1261(2)
C5 C 0.1870(2) 0.1260(2) 0.1390(3)
C6 C 0.2737(2) 0.1660(3) 0.1800(3)
H3 H 0.2645 0.1550 0.2251
C7 C 0.3226(2) 0.1921(2) 0.1676(3)
H4 H 0.3461 0.1992 0.2048
C8 C 0.3975(2) 0.30968(19) 0.0931(3)
C9 C 0.4300(2) 0.3425(2) 0.0548(3)
H5 H 0.4532 0.3270 0.0216
C10 C 0.4296(2) 0.3989(2) 0.0637(3)
H6 H 0.4528 0.4210 0.0372
C11 C 0.3949(2) 0.42218(19) 0.1118(2)
C12 C 0.3949(2) 0.4819(2) 0.1245(3)
C13 C 0.3617(2) 0.3887(2) 0.1509(3)
H7 H 0.3384 0.4040 0.1841
C14 C 0.3626(2) 0.3331(2) 0.1413(3)
H8 H 0.3395 0.3108 0.1676
C15 C 0.4459(2) 0.2142(2) 0.1523(3)
C16 C 0.4653(2) 0.1612(2) 0.1473(3)
H9 H 0.4577 0.1406 0.1075
C17 C 0.4957(2) 0.13815(19) 0.2005(3)
H10 H 0.5080 0.1021 0.1971
C18 C 0.5077(2) 0.1690(2) 0.2585(3)
C19 C 0.5371(2) 0.1437(2) 0.3167(3)
C20 C 0.4890(3) 0.2219(3) 0.2628(4)
H11 H 0.4975 0.2429 0.3019
C21 C 0.4585(3) 0.2439(2) 0.2114(4)
H12 H 0.4456 0.2797 0.2158
C22 C 0.10448(19) 0.18982(17) -0.0978(2)
C23 C 0.1348(2) 0.21288(19) -0.1504(3)
H13 H 0.1541 0.1904 -0.1810
C24 C 0.1370(2) 0.26830(19) -0.1585(3)
H14 H 0.1570 0.2834 -0.1950
C25 C 0.1093(2) 0.30233(18) -0.1122(2)
C26 C 0.1109(2) 0.3627(2) -0.1226(3)
C27 C 0.0804(2) 0.27993(19) -0.0589(2)
H15 H 0.0628 0.3027 -0.0269
C28 C 0.0769(2) 0.22409(19) -0.0517(2)
H16 H 0.0560 0.2091 -0.0159
C29 C 0.15921(19) 0.08599(18) -0.1062(2)
C30 C 0.1776(2) 0.0781(2) -0.1731(3)
H17 H 0.1568 0.0903 -0.2108
C31 C 0.2268(2) 0.0520(2) -0.1847(3)
H18 H 0.2389 0.0466 -0.2303
C32 C 0.2578(2) 0.0342(2) -0.1303(3)
C33 C 0.3098(2) 0.0043(2) -0.1436(3)
C34 C 0.2399(2) 0.0430(3) -0.0638(3)
H19 H 0.2609 0.0313 -0.0261
C35 C 0.1909(2) 0.0692(3) -0.0523(3)
H20 H 0.1793 0.0754 -0.0066
C36 C 0.05292(19) 0.09523(19) -0.1576(2)
C37 C 0.0334(2) 0.1274(2) -0.2105(3)
H21 H 0.0413 0.1648 -0.2111
C38 C 0.0022(3) 0.1051(2) -0.2626(3)
H22 H -0.0101 0.1274 -0.2988
C39 C -0.01115(19) 0.05092(19) -0.2625(2)
C40 C -0.04222(18) 0.02646(19) -0.3199(2)
C41 C 0.0077(2) 0.0186(2) -0.2102(3)
H23 H -0.0008 -0.0186 -0.2097
C42 C 0.0390(2) 0.0404(2) -0.1583(3)
H24 H 0.0514 0.0177 -0.1225
C43 C 0.1386(3) 0.4901(4) 0.0499(3)
H25 H 0.1658 0.4749 0.0219
C44 C 0.1144(6) 0.5273(6) 0.1563(5)
H26 H 0.0806 0.5326 0.1318
H27 H 0.1091 0.5011 0.1933
H28 H 0.1264 0.5615 0.1758
C45 C 0.2144(5) 0.5007(6) 0.1337(5)
H29 H 0.2369 0.5269 0.1095
H30 H 0.2172 0.5067 0.1832
H31 H 0.2266 0.4642 0.1229
N1 N 0.1538(3) 0.5077(3) 0.1103(3)
O1 O 0.15302(13) 0.12510(14) 0.09067(17)
O2 O 0.18250(14) 0.10307(15) 0.19620(17)
O3 O 0.41380(16) 0.51206(14) 0.07731(17)
O4 O 0.37693(16) 0.49695(14) 0.18148(17)
O5 O 0.56156(13) 0.09842(13) 0.30793(16)
O6 O 0.5377(2) 0.1644(2) 0.3758(2)
O7 O 0.42294(15) 0.22116(15) 0.01388(17)
O8 O 0.12588(15) 0.37803(13) -0.18195(17)
O9 O 0.09797(15) 0.39246(13) -0.07330(17)
O10 O 0.31572(14) -0.01503(15) -0.20304(17)
O11 O 0.34178(14) 0.00013(14) -0.09314(16)
O12 O -0.04607(14) 0.04981(14) -0.37744(16)
O13 O -0.06263(13) -0.02125(12) -0.31268(16)
O14 O 0.07364(13) 0.10312(13) -0.02067(15)
O15 O 0.00271(15) 0.45071(14) -0.05531(17)
O16 O -0.0077(3) 0.0713(3) 0.0743(3)
O17 O 0.09262(15) 0.49108(15) 0.02520(17)
Co1F Co 0.42202(3) 0.59344(2) 0.08280(4)
Co1E Co 0.57798(3) 0.09344(2) 0.41720(4)
Co2F Co 0.37556(2) 0.55961(3) 0.24948(4)
Co2E Co 0.62444(2) 0.05961(3) 0.25052(4)
Co2G Co 0.12444(2) 0.44039(3) -0.25052(4)
Co2A Co 0.37556(2) -0.05961(3) -0.25052(4)
Co2D Co -0.12444(2) -0.05961(3) -0.24948(4)
Co3F Co 0.41765(3) -0.02719(2) -0.08054(3)
Co3C Co -0.08235(3) -0.02719(2) -0.41946(3)
O3F O 0.08620(16) 0.01206(14) 0.07731(17)
O4F O 0.12307(16) -0.00305(14) 0.18148(17)
O5E O 0.06156(13) 0.09842(13) 0.19207(16)
O6E O 0.0377(2) 0.1644(2) 0.1242(2)
O8G O 0.12588(15) 0.12197(13) 0.31805(17)
O10A O 0.18428(14) 0.01503(15) 0.29696(17)
O11F O 0.15822(14) 0.50013(14) -0.09314(16)
O12C O 0.04607(14) 0.54981(14) -0.12256(16)
O13D O 0.06263(13) 0.02125(12) 0.31268(16)
O13C O 0.06263(13) 0.47875(12) -0.18732(16)
loop_
_geom_bond_atom_site_label_1
_geom_bond_atom_site_label_2
_geom_bond_site_symmetry_1
_geom_bond_site_symmetry_2
Co1 O1 1_555 1_555
Co2 O2 1_555 1_555
Co3 O9 1_555 1_555
P1 C1 1_555 1_555
P2 C22 1_555 1_555
C1 C2 1_555 1_555
C2 H1 1_555 1_555
C3 C2 1_555 1_555
H2 C3 1_555 1_555
C4 C3 1_555 1_555
C5 C4 1_555 1_555
C6 C4 1_555 1_555
H3 C6 1_555 1_555
C7 C1 1_555 1_555
H4 C7 1_555 1_555
C8 P1 1_555 1_555
C9 C8 1_555 1_555
H5 C9 1_555 1_555
C10 C9 1_555 1_555
H6 C10 1_555 1_555
C11 C10 1_555 1_555
C12 C11 1_555 1_555
C13 C11 1_555 1_555
H7 C13 1_555 1_555
C14 C8 1_555 1_555
H8 C14 1_555 1_555
C15 P1 1_555 1_555
C16 C15 1_555 1_555
H9 C16 1_555 1_555
C17 C16 1_555 1_555
H10 C17 1_555 1_555
C18 C17 1_555 1_555
C19 C18 1_555 1_555
C20 C18 1_555 1_555
H11 C20 1_555 1_555
C21 C15 1_555 1_555
H12 C21 1_555 1_555
C22 C23 1_555 1_555
C23 H13 1_555 1_555
C24 C23 1_555 1_555
H14 C24 1_555 1_555
C25 C24 1_555 1_555
C26 C25 1_555 1_555
C27 C25 1_555 1_555
H15 C27 1_555 1_555
C28 C22 1_555 1_555
H16 C28 1_555 1_555
C29 P2 1_555 1_555
C30 C29 1_555 1_555
H17 C30 1_555 1_555
C31 C30 1_555 1_555
H18 C31 1_555 1_555
C32 C31 1_555 1_555
C33 C32 1_555 1_555
C34 C32 1_555 1_555
H19 C34 1_555 1_555
C35 C29 1_555 1_555
H20 C35 1_555 1_555
C36 P2 1_555 1_555
C37 C36 1_555 1_555
H21 C37 1_555 1_555
C38 C37 1_555 1_555
H22 C38 1_555 1_555
C39 C38 1_555 1_555
C40 C39 1_555 1_555
C41 C39 1_555 1_555
H23 C41 1_555 1_555
C42 C36 1_555 1_555
H24 C42 1_555 1_555
C43 H25 1_555 1_555
C44 H26 1_555 1_555
H27 C44 1_555 1_555
H28 C44 1_555 1_555
C45 H29 1_555 1_555
H30 C45 1_555 1_555
H31 C45 1_555 1_555
N1 C43 1_555 1_555
O1 C5 1_555 1_555
O2 C5 1_555 1_555
O3 C12 1_555 1_555
O4 C12 1_555 1_555
O5 C19 1_555 1_555
O6 C19 1_555 1_555
O7 P1 1_555 1_555
O8 C26 1_555 1_555
O9 C26 1_555 1_555
O10 C33 1_555 1_555
O11 C33 1_555 1_555
O12 C40 1_555 1_555
O13 C40 1_555 1_555
O14 Co1 1_555 1_555
O15 Co3 1_555 1_555
O16 Co1 1_555 1_555
O17 Co3 1_555 1_555
Co1F O3 1_555 1_555
Co1E O5 1_555 1_555
Co2F O4 1_555 1_555
Co2E O5 1_555 1_555
Co2G O8 1_555 1_555
Co2A O10 1_555 1_555
Co2D O13 1_555 1_555
Co3F O11 1_555 1_555
Co3C O12 1_555 1_555
O3F Co1 1_555 1_555
O4F Co2 1_555 1_555
O5E Co1 1_555 1_555
O6E Co1 1_555 1_555
O8G Co2 1_555 1_555
O10A Co2 1_555 1_555
O11F Co3 1_555 1_555
O12C Co3 1_555 1_555
O13D Co2 1_555 1_555
O13C Co3 1_555 1_555
Co2 O5E 1_555 1_555
P2 O14 1_555 1_555
C6 C7 1_555 1_555
C13 C14 1_555 1_555
C20 C21 1_555 1_555
C27 C28 1_555 1_555
C34 C35 1_555 1_555
C41 C42 1_555 1_555
C43 O17 1_555 1_555
C44 N1 1_555 1_555
C45 N1 1_555 1_555
O6 Co1E 1_555 1_555
O13 Co3C 1_555 1_555
Co2G O13C 1_555 1_555

#END
