
#######################################################################
#
#                 Cambridge Crystallographic Data Centre
#                                CCDC 
#
#######################################################################
#
# If this CIF has been generated from an entry in the Cambridge 
# Structural Database, then it will include bibliographic, chemical, 
# crystal, experimental, refinement or atomic coordinate data resulting 
# from the CCDC's data processing and validation procedures.
#
#######################################################################

data_BEMBIF
_symmetry_cell_setting           monoclinic
_symmetry_space_group_name_H-M   'P 21/c'
_symmetry_Int_Tables_number      14
_space_group_name_Hall           '-P 2ybc'
loop_
_symmetry_equiv_pos_site_id
_symmetry_equiv_pos_as_xyz
1 x,y,z
2 x,1/2-y,1/2+z
3 -x,-y,-z
4 -x,1/2+y,1/2-z
_cell_length_a                   13.2660(4)
_cell_length_b                   9.1170(3)
_cell_length_c                   18.5140(5)
_cell_angle_alpha                90
_cell_angle_beta                 122.382(2)
_cell_angle_gamma                90
_cell_volume                     1890.99
loop_
_atom_site_label
_atom_site_type_symbol
_atom_site_fract_x
_atom_site_fract_y
_atom_site_fract_z
Co1 Co -0.00499(2) -0.38999(3) 0.092280(18)
S1 S 0.22873(5) -0.67420(7) 0.46330(4)
S2 S 0.48252(5) -0.04505(7) 0.22349(4)
S3 S -0.23514(6) -0.09068(7) -0.27458(4)
S4 S -0.48731(7) -0.74481(10) -0.04378(5)
N1 N 0.06576(16) -0.48712(19) 0.20245(12)
N2 N 0.26538(17) -0.3826(2) 0.27478(12)
C1 C 0.18032(19) -0.4627(2) 0.27083(14)
C2 C 0.00982(19) -0.5871(2) 0.22594(14)
N3 N -0.09911(17) -0.6397(2) 0.17893(12)
C3 C -0.17023(19) -0.6030(2) 0.09747(14)
N4 N -0.14613(16) -0.51183(19) 0.04902(11)
C4 C -0.24492(19) -0.5103(2) -0.03409(14)
N5 N -0.26111(17) -0.4355(2) -0.10035(12)
C5 C -0.3369(2) -0.6012(3) -0.03829(16)
C6 C -0.2916(2) -0.6571(3) 0.04378(15)
N6 N -0.3668(2) -0.7394(3) 0.05228(15)
N7 N -0.4480(2) -0.6401(3) -0.09650(15)
C7 C 0.3377(2) -0.2054(2) 0.21504(15)
C8 C 0.2842(2) -0.1282(2) 0.13816(15)
N8 N 0.35377(18) -0.0315(2) 0.13173(13)
N9 N 0.45119(18) -0.1717(2) 0.27113(13)
C9 C 0.16195(19) -0.1822(2) 0.08489(14)
N10 N 0.14225(16) -0.2848(2) 0.13124(12)
N11 N 0.08803(17) -0.1396(2) 0.00525(12)
C10 C -0.0176(2) -0.1996(2) -0.04268(14)
C11 C -0.0994(2) -0.1603(2) -0.13167(14)
N12 N -0.10390(19) -0.0633(2) -0.18682(13)
N13 N -0.28618(19) -0.2260(2) -0.24467(13)
C12 C -0.2002(2) -0.2500(2) -0.16387(14)
C13 C -0.18034(19) -0.3437(2) -0.09378(14)
N14 N -0.06982(16) -0.3097(2) -0.02189(12)
C14 C 0.09211(19) -0.6253(2) 0.31566(14)
C15 C 0.19721(19) -0.5454(2) 0.34340(14)
N15 N 0.09558(17) -0.7075(2) 0.37658(12)
N16 N 0.28298(18) -0.5616(2) 0.42476(13)
C16 C 0.24669(19) -0.3010(2) 0.21050(14)
N15C N -0.09558(17) -0.2075(2) 0.12342(12)
Co1C Co 0.00499(2) -0.88999(3) 0.407720(18)
loop_
_geom_bond_atom_site_label_1
_geom_bond_atom_site_label_2
_geom_bond_site_symmetry_1
_geom_bond_site_symmetry_2
Co1 N1 1_555 1_555
S1 N15 1_555 1_555
S2 N8 1_555 1_555
S3 N12 1_555 1_555
S4 N6 1_555 1_555
N1 C1 1_555 1_555
N2 C1 1_555 1_555
C1 C15 1_555 1_555
C2 N1 1_555 1_555
N3 C2 1_555 1_555
C3 N3 1_555 1_555
N4 Co1 1_555 1_555
C4 N4 1_555 1_555
N5 C4 1_555 1_555
C5 C4 1_555 1_555
C6 C3 1_555 1_555
N6 C6 1_555 1_555
N7 S4 1_555 1_555
C7 C8 1_555 1_555
C8 N8 1_555 1_555
N9 S2 1_555 1_555
C9 C8 1_555 1_555
N10 Co1 1_555 1_555
N11 C9 1_555 1_555
C10 N11 1_555 1_555
C11 C10 1_555 1_555
N12 C11 1_555 1_555
N13 S3 1_555 1_555
C12 C11 1_555 1_555
C13 N5 1_555 1_555
N14 Co1 1_555 1_555
C14 C2 1_555 1_555
C15 C14 1_555 1_555
N15 C14 1_555 1_555
N16 S1 1_555 1_555
C16 N2 1_555 1_555
N15C Co1 1_555 1_555
Co1C N15 1_555 1_555
C3 N4 1_555 1_555
C5 C6 1_555 1_555
C5 N7 1_555 1_555
C7 N9 1_555 1_555
C7 C16 1_555 1_555
C9 N10 1_555 1_555
N10 C16 1_555 1_555
C10 N14 1_555 1_555
N13 C12 1_555 1_555
C12 C13 1_555 1_555
C13 N14 1_555 1_555
C15 N16 1_555 1_555

#END
