
#######################################################################
#
#                 Cambridge Crystallographic Data Centre
#                                CCDC 
#
#######################################################################
#
# If this CIF has been generated from an entry in the Cambridge 
# Structural Database, then it will include bibliographic, chemical, 
# crystal, experimental, refinement or atomic coordinate data resulting 
# from the CCDC's data processing and validation procedures.
#
#######################################################################

data_BEMPAM
_symmetry_cell_setting           monoclinic
_symmetry_space_group_name_H-M   'P 21/c'
_symmetry_Int_Tables_number      14
_space_group_name_Hall           '-P 2ybc'
loop_
_symmetry_equiv_pos_site_id
_symmetry_equiv_pos_as_xyz
1 x,y,z
2 -x,1/2+y,1/2-z
3 -x,-y,-z
4 x,1/2-y,1/2+z
_cell_length_a                   14.840(5)
_cell_length_b                   6.985(5)
_cell_length_c                   20.744(5)
_cell_angle_alpha                90
_cell_angle_beta                 133.244(14)
_cell_angle_gamma                90
_cell_volume                     1566.35
loop_
_atom_site_label
_atom_site_type_symbol
_atom_site_fract_x
_atom_site_fract_y
_atom_site_fract_z
Cu1 Cu 0.00161(7) -0.21017(10) 0.25127(5)
Cu2 Cu -0.5000 0.5000 0.0000
O1 O -0.2990(6) 0.5132(7) 0.2006(5)
O2 O -0.4505(5) 0.3240(7) 0.0914(3)
O3 O -0.1130(5) -0.1154(6) 0.2606(4)
O4 O -0.1489(4) 0.1932(6) 0.2219(3)
O5 O 0.0546(4) 0.0405(5) 0.2550(3)
O6 O -0.8712(5) 1.2071(7) -0.0761(3)
N1 N -0.6026(5) 0.6587(8) 0.0098(3)
N2 N -0.9250(6) 1.0326(10) -0.0158(5)
C1 C -0.1657(5) 0.0427(8) 0.2445(4)
C2 C -0.2499(5) 0.0505(7) 0.2608(4)
C3 C -0.2444(6) -0.0945(10) 0.3092(5)
H1 H -0.1967 -0.2026 0.3242
C4 C -0.3088(7) -0.0814(11) 0.3356(5)
H2 H -0.3032 -0.1794 0.3685
C5 C -0.3790(6) 0.0731(10) 0.3133(4)
H3 H -0.4189 0.0850 0.3334
C6 C -0.3919(6) 0.2123(10) 0.2614(4)
H4 H -0.4446 0.3147 0.2438
C7 C -0.3285(5) 0.2059(8) 0.2340(4)
C8 C -0.3572(6) 0.3623(9) 0.1721(5)
C9 C -0.5696(6) 0.8389(11) 0.0395(5)
H5 H -0.4898 0.8784 0.0682
C10 C -0.6485(7) 0.9687(10) 0.0292(5)
H6 H -0.6220 1.0928 0.0507
C11 C -0.7664(5) 0.9134(9) -0.0128(4)
C12 C -0.7982(6) 0.7254(10) -0.0388(4)
H7 H -0.8757 0.6807 -0.0644
C13 C -0.7149(6) 0.6035(9) -0.0268(4)
H8 H -0.7381 0.4770 -0.0451
C14 C -0.8582(6) 1.0639(10) -0.0364(5)
C15 C -0.8932(10) 0.8978(17) 0.0512(8)
H9 H -0.8304 0.9582 0.1085
H10 H -0.8549 0.7874 0.0499
C16 C -1.0243(9) 1.1637(16) -0.0481(8)
H11 H -1.0637 1.2040 -0.1072
H12 H -0.9878 1.2766 -0.0107
Cu1B Cu -1.00161(7) 1.21017(10) -0.25127(5)
Cu1A Cu -0.00161(7) 0.28983(10) 0.24873(5)
Cu1C Cu -0.99839(7) 0.71017(10) -0.24873(5)
Cu2_2 Cu -1.5000 1.5000 0.0000
O1B O -0.7010(6) 0.4868(7) -0.2006(5)
O2B O -0.5495(5) 0.6760(7) -0.0914(3)
O3B O -0.8870(5) 1.1154(6) -0.2606(4)
O4B O -0.8511(4) 0.8068(6) -0.2219(3)
O4A O 0.1489(4) -0.3068(6) 0.2781(3)
O4C O -1.1489(4) 1.3068(6) -0.2781(3)
O5A O -0.0546(4) -0.4595(5) 0.2450(3)
O5C O -0.9454(4) 1.4595(5) -0.2450(3)
O5B O -1.0546(4) 0.9595(5) -0.2550(3)
O6B O -1.1288(5) 0.7929(7) 0.0761(3)
N1B N -1.3974(5) 1.3413(8) -0.0098(3)
N1B_2 N -0.3974(5) 0.3413(8) -0.0098(3)
N2B N -1.0750(6) 0.9674(10) 0.0158(5)
C1B C -0.8343(5) 0.9573(8) -0.2445(4)
C2B C -0.7501(5) 0.9495(7) -0.2608(4)
C3B C -0.7556(6) 1.0945(10) -0.3092(5)
H1B H -0.8033 1.2026 -0.3242
C4B C -0.6912(7) 1.0814(11) -0.3356(5)
H2B H -0.6968 1.1794 -0.3685
C5B C -0.6210(6) 0.9269(10) -0.3133(4)
H3B H -0.5811 0.9150 -0.3334
C6B C -0.6081(6) 0.7877(10) -0.2614(4)
H4B H -0.5554 0.6853 -0.2438
C7B C -0.6715(5) 0.7941(8) -0.2340(4)
C8B C -0.6428(6) 0.6377(9) -0.1721(5)
C9B C -1.4304(6) 1.1611(11) -0.0395(5)
H5B H -1.5102 1.1216 -0.0682
C10B C -1.3515(7) 1.0313(10) -0.0292(5)
H6B H -1.3780 0.9072 -0.0507
C11B C -1.2336(5) 1.0866(9) 0.0128(4)
C12B C -1.2018(6) 1.2746(10) 0.0388(4)
H7B H -1.1243 1.3193 0.0644
C13B C -1.2851(6) 1.3965(9) 0.0268(4)
H8B H -1.2619 1.5230 0.0451
C14B C -1.1418(6) 0.9361(10) 0.0364(5)
C15B C -1.1068(10) 1.1022(17) -0.0512(8)
H9B H -1.1696 1.0418 -0.1085
H10B H -1.1451 1.2126 -0.0499
C16B C -0.9757(9) 0.8363(16) 0.0481(8)
H11B H -0.9363 0.7960 0.1072
H12B H -1.0122 0.7234 0.0107
O7 O -0.6765(12) 0.2524(19) -0.0957(8)
loop_
_geom_bond_atom_site_label_1
_geom_bond_atom_site_label_2
_geom_bond_site_symmetry_1
_geom_bond_site_symmetry_2
Cu1 O3 1_555 1_555
Cu2 O2 1_555 1_555
O1 C8 1_555 1_555
O2 C8 1_555 1_555
O3 C1 1_555 1_555
O4 C1 1_555 1_555
O5 Cu1 1_555 1_555
O6 C14 1_555 1_555
N1 Cu2 1_555 1_555
N2 C14 1_555 1_555
C1 C2 1_555 1_555
C2 C3 1_555 1_555
C3 H1 1_555 1_555
C4 C3 1_555 1_555
H2 C4 1_555 1_555
C5 C4 1_555 1_555
H3 C5 1_555 1_555
C6 C5 1_555 1_555
H4 C6 1_555 1_555
C7 C2 1_555 1_555
C8 C7 1_555 1_555
C9 N1 1_555 1_555
H5 C9 1_555 1_555
C10 C9 1_555 1_555
H6 C10 1_555 1_555
C11 C10 1_555 1_555
C12 C11 1_555 1_555
H7 C12 1_555 1_555
C13 N1 1_555 1_555
H8 C13 1_555 1_555
C14 C11 1_555 1_555
C15 N2 1_555 1_555
H9 C15 1_555 1_555
H10 C15 1_555 1_555
C16 N2 1_555 1_555
H11 C16 1_555 1_555
H12 C16 1_555 1_555
Cu1B O3B 1_555 1_555
Cu1A O4 1_555 1_555
Cu1C O4B 1_555 1_555
Cu2_2 N1B 1_555 1_555
O1B C8B 1_555 1_555
O2B Cu2 1_555 1_555
O3B C1B 1_555 1_555
O4B C1B 1_555 1_555
O4A Cu1 1_555 1_555
O4C Cu1B 1_555 1_555
O5A Cu1 1_555 1_555
O5C Cu1B 1_555 1_555
O5B Cu1B 1_555 1_555
O6B C14B 1_555 1_555
N1B C9B 1_555 1_555
N1B_2 Cu2 1_555 1_555
N2B C14B 1_555 1_555
C1B C2B 1_555 1_555
C2B C3B 1_555 1_555
C3B H1B 1_555 1_555
C4B C3B 1_555 1_555
H2B C4B 1_555 1_555
C5B C4B 1_555 1_555
H3B C5B 1_555 1_555
C6B C5B 1_555 1_555
H4B C6B 1_555 1_555
C7B C2B 1_555 1_555
C8B O2B 1_555 1_555
C9B H5B 1_555 1_555
C10B C9B 1_555 1_555
H6B C10B 1_555 1_555
C11B C10B 1_555 1_555
C12B C11B 1_555 1_555
H7B C12B 1_555 1_555
C13B N1B 1_555 1_555
H8B C13B 1_555 1_555
C14B C11B 1_555 1_555
C15B C16 1_555 1_555
H9B C15B 1_555 1_555
H10B C15B 1_555 1_555
C16B C15 1_555 1_555
H11B C16B 1_555 1_555
H12B C16B 1_555 1_555
O5 Cu1A 1_555 1_555
C6 C7 1_555 1_555
C12 C13 1_555 1_555
Cu1C O5B 1_555 1_555
N2B C15B 1_555 1_555
N2B C16B 1_555 1_555
C6B C7B 1_555 1_555
C7B C8B 1_555 1_555
C12B C13B 1_555 1_555

#END
