
#######################################################################
#
#                 Cambridge Crystallographic Data Centre
#                                CCDC 
#
#######################################################################
#
# If this CIF has been generated from an entry in the Cambridge 
# Structural Database, then it will include bibliographic, chemical, 
# crystal, experimental, refinement or atomic coordinate data resulting 
# from the CCDC's data processing and validation procedures.
#
#######################################################################

data_BEMPEQ
_symmetry_cell_setting           monoclinic
_symmetry_space_group_name_H-M   'P 21/c'
_symmetry_Int_Tables_number      14
_space_group_name_Hall           '-P 2ybc'
loop_
_symmetry_equiv_pos_site_id
_symmetry_equiv_pos_as_xyz
1 x,y,z
2 -x,1/2+y,1/2-z
3 -x,-y,-z
4 x,1/2-y,1/2+z
_cell_length_a                   11.505(7)
_cell_length_b                   9.076(6)
_cell_length_c                   24.058(14)
_cell_angle_alpha                90
_cell_angle_beta                 115.839(13)
_cell_angle_gamma                90
_cell_volume                     2260.97
loop_
_atom_site_label
_atom_site_type_symbol
_atom_site_fract_x
_atom_site_fract_y
_atom_site_fract_z
Zn1 Zn 0.370074(18) 0.61531(2) 0.937098(9)
O1 O 0.21038(12) 0.60476(16) 0.86268(6)
O2 O 0.16168(14) 0.79673(18) 0.90454(6)
O3 O -0.40842(14) 0.60885(16) 0.62127(6)
O4 O -0.43806(12) 0.92464(15) 0.57851(6)
O5 O -0.64394(12) 0.87813(16) 0.51518(6)
N1 N 0.50683(14) 0.75701(17) 0.93953(7)
N2 N 0.83447(17) 1.04151(19) 0.89431(8)
N3 N 0.87058(15) 1.13688(17) 0.98622(7)
H1 H 0.8631 1.1511 1.0199
C1 C 0.13135(17) 0.7016(2) 0.86402(8)
C2 C -0.00397(16) 0.6949(2) 0.81293(8)
C3 C -0.03971(18) 0.5867(2) 0.76733(8)
H2 H 0.0202 0.5167 0.7684
C4 C -0.16403(18) 0.5835(2) 0.72056(8)
H3 H -0.1874 0.5116 0.6900
C5 C -0.25472(16) 0.6875(2) 0.71903(8)
C6 C -0.21841(18) 0.7942(2) 0.76491(9)
H4 H -0.2783 0.8638 0.7643
C7 C -0.09369(18) 0.7978(2) 0.81157(8)
H5 H -0.0702 0.8698 0.8420
C8 C -0.38679(17) 0.6821(2) 0.66687(8)
C9 C -0.49610(17) 0.7654(2) 0.67115(8)
C10 C -0.5250(2) 0.7440(3) 0.72079(9)
H6 H -0.4713 0.6853 0.7537
C11 C -0.6328(2) 0.8089(4) 0.72199(10)
H7 H -0.6508 0.7940 0.7557
C12 C -0.7129(2) 0.8959(3) 0.67375(10)
H8 H -0.7845 0.9408 0.6749
C13 C -0.68687(18) 0.9161(3) 0.62347(9)
H9 H -0.7421 0.9732 0.5904
C14 C -0.57888(16) 0.8525(2) 0.62168(8)
C15 C -0.55041(16) 0.88697(19) 0.56795(8)
C16 C 0.57157(18) 0.8460(2) 0.98755(9)
H10 H 0.5500 0.8443 1.0206
C17 C 0.66781(18) 0.9399(2) 0.99047(8)
H11 H 0.7107 0.9991 1.0250
C18 C 0.70048(17) 0.9449(2) 0.94132(8)
C19 C 0.6333(2) 0.8524(2) 0.89132(9)
H12 H 0.6523 0.8525 0.8575
C20 C 0.5395(2) 0.7614(2) 0.89220(9)
H13 H 0.4962 0.6997 0.8586
C21 C 0.80125(18) 1.0406(2) 0.94010(9)
C22 C 0.95505(18) 1.2068(2) 0.96844(9)
C23 C 0.9319(2) 1.1454(2) 0.91121(10)
C24 C 1.0024(2) 1.1940(3) 0.87990(12)
H14 H 0.9892 1.1533 0.8421
C25 C 1.0916(2) 1.3031(3) 0.90640(13)
H15 H 1.1393 1.3372 0.8863
C26 C 1.1121(2) 1.3643(3) 0.96309(13)
H16 H 1.1729 1.4389 0.9798
C27 C 1.0452(2) 1.3177(3) 0.99537(11)
H17 H 1.0597 1.3584 1.0333
Zn1A Zn -0.370074(18) 1.11531(2) 0.562902(9)
Zn1C Zn -0.629926(18) 0.88469(2) 0.437098(9)
O4A O 0.43806(12) 0.42464(15) 0.92149(6)
O5C O 0.35606(12) 0.62187(16) 1.01518(6)
loop_
_geom_bond_atom_site_label_1
_geom_bond_atom_site_label_2
_geom_bond_site_symmetry_1
_geom_bond_site_symmetry_2
Zn1 O1 1_555 1_555
O1 C1 1_555 1_555
O2 C1 1_555 1_555
O3 C8 1_555 1_555
O4 C15 1_555 1_555
O5 C15 1_555 1_555
N1 Zn1 1_555 1_555
N2 C21 1_555 1_555
N3 H1 1_555 1_555
C1 C2 1_555 1_555
C2 C3 1_555 1_555
C3 H2 1_555 1_555
C4 C3 1_555 1_555
H3 C4 1_555 1_555
C5 C4 1_555 1_555
C6 C5 1_555 1_555
H4 C6 1_555 1_555
C7 C2 1_555 1_555
H5 C7 1_555 1_555
C8 C5 1_555 1_555
C9 C8 1_555 1_555
C10 C9 1_555 1_555
H6 C10 1_555 1_555
C11 C10 1_555 1_555
H7 C11 1_555 1_555
C12 C11 1_555 1_555
H8 C12 1_555 1_555
C13 C12 1_555 1_555
H9 C13 1_555 1_555
C14 C9 1_555 1_555
C15 C14 1_555 1_555
C16 N1 1_555 1_555
H10 C16 1_555 1_555
C17 C16 1_555 1_555
H11 C17 1_555 1_555
C18 C17 1_555 1_555
C19 C18 1_555 1_555
H12 C19 1_555 1_555
C20 N1 1_555 1_555
H13 C20 1_555 1_555
C21 N3 1_555 1_555
C22 N3 1_555 1_555
C23 N2 1_555 1_555
C24 C23 1_555 1_555
H14 C24 1_555 1_555
C25 C24 1_555 1_555
H15 C25 1_555 1_555
C26 C25 1_555 1_555
H16 C26 1_555 1_555
C27 C22 1_555 1_555
H17 C27 1_555 1_555
Zn1A O4 1_555 1_555
Zn1C O5 1_555 1_555
O4A Zn1 1_555 1_555
O5C Zn1 1_555 1_555
C6 C7 1_555 1_555
C13 C14 1_555 1_555
C18 C21 1_555 1_555
C19 C20 1_555 1_555
C22 C23 1_555 1_555
C26 C27 1_555 1_555

#END
