
#######################################################################
#
#                 Cambridge Crystallographic Data Centre
#                                CCDC 
#
#######################################################################
#
# If this CIF has been generated from an entry in the Cambridge 
# Structural Database, then it will include bibliographic, chemical, 
# crystal, experimental, refinement or atomic coordinate data resulting 
# from the CCDC's data processing and validation procedures.
#
#######################################################################

data_BEMPOZ
_symmetry_cell_setting           monoclinic
_symmetry_space_group_name_H-M   'P 2/c'
_symmetry_Int_Tables_number      13
_space_group_name_Hall           '-P 2yc'
loop_
_symmetry_equiv_pos_site_id
_symmetry_equiv_pos_as_xyz
1 x,y,z
2 -x,y,1/2-z
3 -x,-y,-z
4 x,-y,1/2+z
_cell_length_a                   8.4509(2)
_cell_length_b                   6.9067(2)
_cell_length_c                   14.6553(4)
_cell_angle_alpha                90
_cell_angle_beta                 93.3596(8)
_cell_angle_gamma                90
_cell_volume                     853.928
loop_
_atom_site_label
_atom_site_type_symbol
_atom_site_fract_x
_atom_site_fract_y
_atom_site_fract_z
Co1 Co 1.23792(8) 0.59733(10) -0.11246(4)
K1 K 0.75009(13) 0.05648(17) 0.50059(7)
K2 K 1.0000 0.7881(2) 0.2500
K3 K 0.5000 0.7579(2) 0.2500
O1 O 0.7384(4) 0.3751(5) 0.3873(2)
O2 O 1.0848(4) 0.7249(5) -0.0183(2)
O3 O 0.7570(4) 0.4923(5) 0.2462(2)
O4 O 0.7443(4) 0.0044(5) 0.3151(2)
O5 O 1.4116(4) 0.7246(5) -0.0209(2)
O6 O 0.9193(4) 0.6323(5) 0.0872(2)
O7 O 1.5984(4) 0.6372(5) 0.0856(2)
O8 O 0.7782(4) 0.1378(5) 0.1788(2)
C1 C 0.7504(5) 0.3553(7) 0.3050(3)
C2 C 0.7577(6) 0.1464(8) 0.2640(3)
C3 C 1.0020(5) 0.6021(7) 0.0200(3)
C4 C 1.5020(6) 0.6036(7) 0.0184(3)
C3B C 0.9980(5) 0.3979(7) -0.0200(3)
O2B O 0.9152(4) 0.2751(5) 0.0183(2)
O6B O 1.0807(4) 0.3677(5) -0.0872(2)
C4B C 1.4980(6) 0.3964(7) -0.0184(3)
O5B O 1.5884(4) 0.2754(5) 0.0209(2)
O7B O 1.4016(4) 0.3628(5) -0.0856(2)
O1A O 1.2616(4) 0.3751(5) 0.1127(2)
O3A O 1.2430(4) 0.4923(5) 0.2538(2)
O4A O 1.2557(4) 0.0044(5) 0.1849(2)
O8A O 1.2218(4) 0.1378(5) 0.3212(2)
C1A C 1.2496(5) 0.3553(7) 0.1950(3)
C2A C 1.2423(6) 0.1464(8) 0.2360(3)
Co1B Co 0.76208(8) 0.40267(10) 0.11246(4)
K1A K 1.24991(13) 0.05648(17) -0.00059(7)
O3B O 1.2430(4) 0.5077(5) -0.2462(2)
O8B O 1.2218(4) 0.8622(5) -0.1788(2)
K2C K 1.0000 0.2119(2) 0.7500
O2C O 1.0848(4) 0.2751(5) 0.4817(2)
O2A O 0.9152(4) -0.2751(5) 0.5183(2)
O5C O 0.4116(4) 0.2754(5) 0.4791(2)
O5A O 0.5884(4) -0.2754(5) 0.5209(2)
O6C O 0.9193(4) 0.3677(5) 0.5872(2)
O7C O 0.5984(4) 0.3628(5) 0.5856(2)
O8C O 0.7782(4) -0.1378(5) 0.6788(2)
K1C K 0.75009(13) 0.94352(17) 0.00059(7)
K1B K 1.24991(13) 0.94352(17) 0.49941(7)
K3_2 K 1.5000 0.7579(2) 0.2500
O4_2 O 0.7443(4) 1.0044(5) 0.3151(2)
O4A_2 O 1.2557(4) 1.0044(5) 0.1849(2)
O6A O 1.0807(4) 0.6323(5) 0.4128(2)
O8_2 O 0.7782(4) 1.1378(5) 0.1788(2)
O8A_2 O 1.2218(4) 1.1378(5) 0.3212(2)
K2_2 K 0.0000 0.7881(2) 0.2500
O3A_2 O 0.2430(4) 0.4923(5) 0.2538(2)
O4A_3 O 0.2557(4) 1.0044(5) 0.1849(2)
O7_2 O 0.5984(4) 0.6372(5) 0.0856(2)
O7A O 0.4016(4) 0.6372(5) 0.4144(2)
K1A_2 K 1.24991(13) 1.05648(17) -0.00059(7)
K2_3 K 1.0000 -0.2119(2) 0.2500
K3_3 K 0.5000 -0.2421(2) 0.2500
K1C_2 K 1.75009(13) 0.94352(17) 0.00059(7)
Co1B_2 Co 1.76208(8) 0.40267(10) 0.11246(4)
K1C_3 K 0.75009(13) -0.05648(17) 0.00059(7)
K2C_2 K 1.0000 0.2119(2) -0.2500
K1C_4 K 1.75009(13) -0.05648(17) 0.00059(7)
K3C K 1.5000 0.2421(2) -0.2500
Co1C Co 1.23792(8) 0.40267(10) 0.38754(4)
K3_4 K 1.5000 -0.2421(2) 0.2500
K1B_2 K 1.24991(13) -0.05648(17) 0.49941(7)
O5B_2 O 0.5884(4) 0.2754(5) 0.0209(2)
O2_2 O 1.0848(4) -0.2751(5) -0.0183(2)
O5_2 O 1.4116(4) -0.2754(5) -0.0209(2)
O8B_2 O 1.2218(4) -0.1378(5) -0.1788(2)
loop_
_geom_bond_atom_site_label_1
_geom_bond_atom_site_label_2
_geom_bond_site_symmetry_1
_geom_bond_site_symmetry_2
Co1 O2 1_555 1_555
K1 O1 1_555 1_555
K2 O3 1_555 1_555
K3 O3 1_555 1_555
O1 C1 1_555 1_555
O2 C3 1_555 1_555
O3 C1 1_555 1_555
O4 K1 1_555 1_555
O5 Co1 1_555 1_555
O6 K2 1_555 1_555
O7 C4 1_555 1_555
O8 C2 1_555 1_555
C1 C2 1_555 1_555
C2 O4 1_555 1_555
C3 O6 1_555 1_555
C4 O5 1_555 1_555
C3B C3 1_555 1_555
O2B C3B 1_555 1_555
O6B Co1 1_555 1_555
C4B C4 1_555 1_555
O5B C4B 1_555 1_555
O7B Co1 1_555 1_555
O1A C1A 1_555 1_555
O3A K2 1_555 1_555
O4A C2A 1_555 1_555
O8A C2A 1_555 1_555
C1A O3A 1_555 1_555
C2A C1A 1_555 1_555
Co1B O3 1_555 1_555
K1A O2B 1_555 1_555
O3B Co1 1_555 1_555
O8B Co1 1_555 1_555
K2C O6C 1_555 1_555
O2C K1 1_555 1_555
O2A K1 1_555 1_555
O5C K1 1_555 1_555
O5A K1 1_555 1_555
O6C K1 1_555 1_555
O7C K1 1_555 1_555
O8C K1 1_555 1_555
K1C O2 1_555 1_555
K1B O6A 1_555 1_555
K3_2 O7 1_555 1_555
O4_2 K2 1_555 1_555
O4A_2 K2 1_555 1_555
O6A K2 1_555 1_555
O8_2 K2 1_555 1_555
O8A_2 K2 1_555 1_555
K2_2 O3A_2 1_555 1_555
O3A_2 K3 1_555 1_555
O4A_3 K3 1_555 1_555
O7_2 K3 1_555 1_555
O7A K3 1_555 1_555
K1A_2 O2 1_555 1_555
K2_3 O4 1_555 1_555
K3_3 O4 1_555 1_555
K1C_2 O5 1_555 1_555
Co1B_2 O7 1_555 1_555
K1C_3 O8 1_555 1_555
K2C_2 O6B 1_555 1_555
K1C_4 O5B 1_555 1_555
K3C O7B 1_555 1_555
Co1C O3A 1_555 1_555
K3_4 O4A 1_555 1_555
K1B_2 O8A 1_555 1_555
O5B_2 Co1B 1_555 1_555
O2_2 K1A 1_555 1_555
O5_2 K1A 1_555 1_555
O8B_2 K1A 1_555 1_555
K3 O4_2 1_555 1_555
O5 K1A_2 1_555 1_555
O6 Co1B 1_555 1_555
O6 K1C 1_555 1_555
O7 K1C_2 1_555 1_555
O8 Co1B 1_555 1_555
O8 K2_3 1_555 1_555
C3B O6B 1_555 1_555
O2B Co1B 1_555 1_555
O2B K1C_3 1_555 1_555
O6B K1A 1_555 1_555
C4B O7B 1_555 1_555
O5B K1A 1_555 1_555
O5B Co1B_2 1_555 1_555
O7B K1A 1_555 1_555
O1A K1A 1_555 1_555
O3A K3_2 1_555 1_555
O4A K1A 1_555 1_555
O4A K2_3 1_555 1_555
O8A K2_3 1_555 1_555
O8A Co1C 1_555 1_555
Co1B O7_2 1_555 1_555
O3B K2C_2 1_555 1_555
O3B K3C 1_555 1_555
O8B K1A_2 1_555 1_555
K2C O8C 1_555 1_555
O2C Co1C 1_555 1_555
O2C K1B_2 1_555 1_555
O2A K1B_2 1_555 1_555
K1C O8_2 1_555 1_555
K1C O7_2 1_555 1_555
K1B O8A_2 1_555 1_555
K3_2 O4A_2 1_555 1_555
O4A_2 K1A_2 1_555 1_555
O6A Co1C 1_555 1_555
K2_2 O4A_3 1_555 1_555
K1C_3 O5B_2 1_555 1_555
K1C_3 O2_2 1_555 1_555
K2C_2 O8B_2 1_555 1_555
K1C_4 O5_2 1_555 1_555

#END
