
#######################################################################
#
#                 Cambridge Crystallographic Data Centre
#                                CCDC 
#
#######################################################################
#
# If this CIF has been generated from an entry in the Cambridge 
# Structural Database, then it will include bibliographic, chemical, 
# crystal, experimental, refinement or atomic coordinate data resulting 
# from the CCDC's data processing and validation procedures.
#
#######################################################################

data_BEMSAO02
_symmetry_cell_setting           triclinic
_symmetry_space_group_name_H-M   'P -1'
_symmetry_Int_Tables_number      2
_space_group_name_Hall           '-P 1'
loop_
_symmetry_equiv_pos_site_id
_symmetry_equiv_pos_as_xyz
1 x,y,z
2 -x,-y,-z
_cell_length_a                   10.190(12)
_cell_length_b                   10.848(6)
_cell_length_c                   13.395(6)
_cell_angle_alpha                102.56(2)
_cell_angle_beta                 96.54(5)
_cell_angle_gamma                102.59(6)
_cell_volume                     1390.14
loop_
_atom_site_label
_atom_site_type_symbol
_atom_site_fract_x
_atom_site_fract_y
_atom_site_fract_z
Cu1 Cu 0.5000 0.5000 0.5000
O1 O 0.3310(10) 0.5508(6) 0.5078(5)
C1 C 0.1692(17) 0.6690(10) 0.4915(8)
F1 F 0.1473(9) 0.7875(6) 0.4935(6)
F2 F 0.1113(8) 0.5955(6) 0.3948(4)
F3 F 0.0941(8) 0.6198(6) 0.5559(4)
C2 C 0.3109(15) 0.6662(9) 0.5170(7)
C3 C 0.4187(16) 0.7832(9) 0.5532(7)
H1 H 0.3948 0.8622 0.5594
C4 C 0.5511(15) 0.7881(10) 0.5788(7)
C5 C 0.6470(18) 0.9212(12) 0.6235(9)
F4 F 0.6881(12) 0.9411(8) 0.7210(6)
F5 F 0.7504(17) 0.9347(11) 0.5811(14)
F6 F 0.5958(10) 1.0200(7) 0.6134(7)
O2 O 0.6077(8) 0.6964(7) 0.5744(5)
Cu2 Cu 0.0000 0.0000 0.0000
O3 O 0.1502(7) -0.0117(5) -0.0749(4)
C6 C 0.3418(12) -0.0630(8) -0.1308(7)
F7 F 0.2863(7) -0.0876(6) -0.2292(4)
F8 F 0.4281(8) -0.1405(6) -0.1252(5)
F9 F 0.4237(7) 0.0590(5) -0.1071(4)
C7 C 0.2369(10) -0.0735(7) -0.0608(6)
C8 C 0.2505(13) -0.1487(8) 0.0115(7)
H2 H 0.3228 -0.1879 0.0159
C9 C 0.1521(13) -0.1633(8) 0.0770(7)
C10 C 0.1658(15) -0.2537(9) 0.1486(8)
F10 F 0.2934(9) -0.2521(6) 0.1783(5)
F11 F 0.1131(8) -0.2231(6) 0.2337(4)
F12 F 0.1028(8) -0.3766(5) 0.1000(5)
O4 O 0.0484(8) -0.1186(5) 0.0822(4)
O5 O 0.4928(8) 0.5711(6) 0.3602(5)
N1 N 0.5499(10) 0.5392(7) 0.2796(6)
C11 C 0.6722(11) 0.6248(8) 0.2614(8)
C12 C 0.7843(14) 0.6733(10) 0.3584(8)
H3 H 0.7436 0.6684 0.4191
H4 H 0.8313 0.7620 0.3639
H5 H 0.8479 0.6196 0.3527
C13 C 0.6308(17) 0.7426(9) 0.2316(10)
H6 H 0.5400 0.7424 0.2446
H7 H 0.6335 0.7365 0.1593
H8 H 0.6931 0.8220 0.2724
C14 C 0.7095(12) 0.5335(8) 0.1668(7)
C15 C 0.7593(13) 0.5967(10) 0.0841(8)
H9 H 0.7740 0.5317 0.0282
H10 H 0.8434 0.6616 0.1128
H11 H 0.6923 0.6372 0.0583
C16 C 0.8016(13) 0.4518(9) 0.2000(8)
H12 H 0.8027 0.3829 0.1416
H13 H 0.7680 0.4151 0.2540
H14 H 0.8925 0.5058 0.2253
N2 N 0.5747(9) 0.4396(6) 0.1257(6)
O6 O 0.5463(9) 0.3600(5) 0.0345(5)
C17 C 0.4832(12) 0.4403(8) 0.1942(7)
C18 C 0.3564(11) 0.3561(7) 0.1841(6)
C19 C 0.2883(13) 0.2409(8) 0.1037(7)
H15 H 0.371(11) 0.205(10) 0.052(8)
N3 N 0.1682(11) 0.1864(7) 0.1223(5)
N4 N 0.1530(9) 0.2653(7) 0.2131(5)
C20 C 0.0398(14) 0.2304(10) 0.2611(7)
H16 H 0.0688 0.2505 0.3348
H17 H -0.0011 0.1386 0.2355
H18 H -0.0256 0.2782 0.2459
C21 C 0.2652(11) 0.3661(8) 0.2513(7)
H19 H 0.279(9) 0.449(8) 0.311(6)
O1A O 0.6690(10) 0.4492(6) 0.4922(5)
C1A C 0.8308(17) 0.3310(10) 0.5085(8)
F1A F 0.8527(9) 0.2125(6) 0.5065(6)
F2A F 0.8887(8) 0.4045(6) 0.6052(4)
F3A F 0.9059(8) 0.3802(6) 0.4441(4)
C2A C 0.6891(15) 0.3338(9) 0.4830(7)
C3A C 0.5813(16) 0.2168(9) 0.4468(7)
H1A H 0.6052 0.1378 0.4406
C4A C 0.4489(15) 0.2119(10) 0.4212(7)
C5A C 0.3530(18) 0.0788(12) 0.3765(9)
F4A F 0.3119(12) 0.0589(8) 0.2790(6)
F5A F 0.2496(17) 0.0653(11) 0.4189(14)
F6A F 0.4042(10) -0.0200(7) 0.3866(7)
O2A O 0.3923(8) 0.3036(7) 0.4256(5)
O5A O 0.5072(8) 0.4289(6) 0.6398(5)
N1A N 0.4501(10) 0.4608(7) 0.7204(6)
C11A C 0.3278(11) 0.3752(8) 0.7386(8)
C12A C 0.2157(14) 0.3267(10) 0.6416(8)
H3A H 0.2564 0.3316 0.5809
H4A H 0.1687 0.2380 0.6361
H5A H 0.1521 0.3804 0.6473
C13A C 0.3692(17) 0.2574(9) 0.7684(10)
H6A H 0.4600 0.2576 0.7554
H7A H 0.3665 0.2635 0.8407
H8A H 0.3069 0.1780 0.7276
C14A C 0.2905(12) 0.4665(8) 0.8332(7)
C15A C 0.2407(13) 0.4033(10) 0.9159(8)
H9A H 0.2260 0.4683 0.9718
H10A H 0.1566 0.3384 0.8872
H11A H 0.3077 0.3628 0.9417
C16A C 0.1984(13) 0.5482(9) 0.8000(8)
H12A H 0.1973 0.6171 0.8584
H13A H 0.2320 0.5849 0.7460
H14A H 0.1075 0.4942 0.7747
N2A N 0.4253(9) 0.5604(6) 0.8743(6)
O6A O 0.4537(9) 0.6400(5) 0.9655(5)
C17A C 0.5168(12) 0.5597(8) 0.8058(7)
C18A C 0.6436(11) 0.6439(7) 0.8159(6)
C19A C 0.7117(13) 0.7591(8) 0.8963(7)
H15A H 0.629(11) 0.795(10) 0.948(8)
N3A N 0.8318(11) 0.8136(7) 0.8777(5)
N4A N 0.8470(9) 0.7347(7) 0.7869(5)
C20A C 0.9602(14) 0.7696(10) 0.7389(7)
H16A H 0.9312 0.7495 0.6652
H17A H 1.0011 0.8614 0.7645
H18A H 1.0256 0.7218 0.7541
C21A C 0.7348(11) 0.6339(8) 0.7487(7)
H19A H 0.721(9) 0.551(8) 0.689(6)
O3A O -0.1502(7) 0.0117(5) 0.0749(4)
C6A C -0.3418(12) 0.0630(8) 0.1308(7)
F7A F -0.2863(7) 0.0876(6) 0.2292(4)
F8A F -0.4281(8) 0.1405(6) 0.1252(5)
F9A F -0.4237(7) -0.0590(5) 0.1071(4)
C7A C -0.2369(10) 0.0735(7) 0.0608(6)
C8A C -0.2505(13) 0.1487(8) -0.0115(7)
H2A H -0.3228 0.1879 -0.0159
C9A C -0.1521(13) 0.1633(8) -0.0770(7)
C10A C -0.1658(15) 0.2537(9) -0.1486(8)
F10A F -0.2934(9) 0.2521(6) -0.1783(5)
F11A F -0.1131(8) 0.2231(6) -0.2337(4)
F12A F -0.1028(8) 0.3766(5) -0.1000(5)
O4A O -0.0484(8) 0.1186(5) -0.0822(4)
N3A_2 N -0.1682(11) -0.1864(7) -0.1223(5)
Cu2_2 Cu 1.0000 1.0000 1.0000
loop_
_geom_bond_atom_site_label_1
_geom_bond_atom_site_label_2
_geom_bond_site_symmetry_1
_geom_bond_site_symmetry_2
Cu1 O1 1_555 1_555
O1 C2 1_555 1_555
C1 F1 1_555 1_555
F2 C1 1_555 1_555
F3 C1 1_555 1_555
C2 C1 1_555 1_555
C3 C2 1_555 1_555
H1 C3 1_555 1_555
C4 C3 1_555 1_555
C5 C4 1_555 1_555
F4 C5 1_555 1_555
F5 C5 1_555 1_555
F6 C5 1_555 1_555
O2 Cu1 1_555 1_555
Cu2 O3 1_555 1_555
O3 C7 1_555 1_555
C6 F7 1_555 1_555
F8 C6 1_555 1_555
F9 C6 1_555 1_555
C7 C6 1_555 1_555
C8 C7 1_555 1_555
H2 C8 1_555 1_555
C9 C8 1_555 1_555
C10 C9 1_555 1_555
F10 C10 1_555 1_555
F11 C10 1_555 1_555
F12 C10 1_555 1_555
O4 Cu2 1_555 1_555
O5 Cu1 1_555 1_555
N1 O5 1_555 1_555
C11 N1 1_555 1_555
C12 C11 1_555 1_555
H3 C12 1_555 1_555
H4 C12 1_555 1_555
H5 C12 1_555 1_555
C13 C11 1_555 1_555
H6 C13 1_555 1_555
H7 C13 1_555 1_555
H8 C13 1_555 1_555
C14 C11 1_555 1_555
C15 C14 1_555 1_555
H9 C15 1_555 1_555
H10 C15 1_555 1_555
H11 C15 1_555 1_555
C16 C14 1_555 1_555
H12 C16 1_555 1_555
H13 C16 1_555 1_555
H14 C16 1_555 1_555
N2 C14 1_555 1_555
O6 N2 1_555 1_555
C17 N1 1_555 1_555
C18 C17 1_555 1_555
C19 C18 1_555 1_555
H15 C19 1_555 1_555
N3 Cu2 1_555 1_555
N4 N3 1_555 1_555
C20 N4 1_555 1_555
H16 C20 1_555 1_555
H17 C20 1_555 1_555
H18 C20 1_555 1_555
C21 C18 1_555 1_555
H19 C21 1_555 1_555
O1A Cu1 1_555 1_555
C1A F1A 1_555 1_555
F2A C1A 1_555 1_555
F3A C1A 1_555 1_555
C2A O1A 1_555 1_555
C3A C2A 1_555 1_555
H1A C3A 1_555 1_555
C4A C3A 1_555 1_555
C5A C4A 1_555 1_555
F4A C5A 1_555 1_555
F5A C5A 1_555 1_555
F6A C5A 1_555 1_555
O2A Cu1 1_555 1_555
O5A Cu1 1_555 1_555
N1A O5A 1_555 1_555
C11A N1A 1_555 1_555
C12A C11A 1_555 1_555
H3A C12A 1_555 1_555
H4A C12A 1_555 1_555
H5A C12A 1_555 1_555
C13A C11A 1_555 1_555
H6A C13A 1_555 1_555
H7A C13A 1_555 1_555
H8A C13A 1_555 1_555
C14A C11A 1_555 1_555
C15A C14A 1_555 1_555
H9A C15A 1_555 1_555
H10A C15A 1_555 1_555
H11A C15A 1_555 1_555
C16A C14A 1_555 1_555
H12A C16A 1_555 1_555
H13A C16A 1_555 1_555
H14A C16A 1_555 1_555
N2A C14A 1_555 1_555
O6A N2A 1_555 1_555
C17A N1A 1_555 1_555
C18A C17A 1_555 1_555
C19A C18A 1_555 1_555
H15A C19A 1_555 1_555
N3A C19A 1_555 1_555
N4A N3A 1_555 1_555
C20A N4A 1_555 1_555
H16A C20A 1_555 1_555
H17A C20A 1_555 1_555
H18A C20A 1_555 1_555
C21A C18A 1_555 1_555
H19A C21A 1_555 1_555
O3A Cu2 1_555 1_555
C6A F7A 1_555 1_555
F8A C6A 1_555 1_555
F9A C6A 1_555 1_555
C7A O3A 1_555 1_555
C8A C7A 1_555 1_555
H2A C8A 1_555 1_555
C9A C8A 1_555 1_555
C10A C9A 1_555 1_555
F10A C10A 1_555 1_555
F11A C10A 1_555 1_555
F12A C10A 1_555 1_555
O4A Cu2 1_555 1_555
N3A_2 Cu2 1_555 1_555
Cu2_2 N3A 1_555 1_555
C4 O2 1_555 1_555
C9 O4 1_555 1_555
N2 C17 1_555 1_555
C19 N3 1_555 1_555
N4 C21 1_555 1_555
C1A C2A 1_555 1_555
C4A O2A 1_555 1_555
N2A C17A 1_555 1_555
N4A C21A 1_555 1_555
C6A C7A 1_555 1_555
C9A O4A 1_555 1_555

#END
