
#######################################################################
#
#                 Cambridge Crystallographic Data Centre
#                                CCDC 
#
#######################################################################
#
# If this CIF has been generated from an entry in the Cambridge 
# Structural Database, then it will include bibliographic, chemical, 
# crystal, experimental, refinement or atomic coordinate data resulting 
# from the CCDC's data processing and validation procedures.
#
#######################################################################

data_BEMWAS
_symmetry_cell_setting           monoclinic
_symmetry_space_group_name_H-M   'P 21/c'
_symmetry_Int_Tables_number      14
_space_group_name_Hall           '-P 2ybc'
loop_
_symmetry_equiv_pos_site_id
_symmetry_equiv_pos_as_xyz
1 x,y,z
2 x,1/2-y,1/2+z
3 -x,-y,-z
4 -x,1/2+y,1/2-z
_cell_length_a                   9.7529(15)
_cell_length_b                   11.3372(12)
_cell_length_c                   9.0443(10)
_cell_angle_alpha                90
_cell_angle_beta                 97.506(4)
_cell_angle_gamma                90
_cell_volume                     991.464
loop_
_atom_site_label
_atom_site_type_symbol
_atom_site_fract_x
_atom_site_fract_y
_atom_site_fract_z
Co1 Co 0.0000 0.0000 0.0000
O1 O -0.0415(3) 0.1180(2) 0.1609(3)
C1 C 0.0249(5) 0.1489(3) 0.2835(5)
O2 O -0.0141(3) 0.3596(2) 0.3465(3)
C2 C 0.0398(5) 0.2592(4) 0.3667(4)
O3 O 0.2174(3) 0.2367(3) 0.5932(3)
C3 C 0.1420(5) 0.2020(4) 0.4794(5)
C4 C 0.1218(5) 0.0926(3) 0.3960(5)
N1 N 0.1653(4) -0.0187(3) 0.4056(4)
H1 H 0.1191(39) -0.0717(27) 0.3439(36)
C5 C 0.2672(3) -0.1910(2) 0.5294(3)
H2 H 0.1971(3) -0.2366(2) 0.4732(3)
C6 C 0.3678(4) -0.2460(2) 0.6290(4)
H3 H 0.3664(5) -0.3292(2) 0.6410(6)
C7 C 0.4703(4) -0.1792(2) 0.7112(4)
H4 H 0.5391(5) -0.2168(3) 0.7793(6)
C8 C 0.4724(4) -0.0575(2) 0.6936(5)
H5 H 0.5425(5) -0.0118(3) 0.7498(7)
C9 C 0.3718(4) -0.0025(2) 0.5940(5)
H6 H 0.3732(6) 0.0808(2) 0.5820(7)
C10 C 0.2692(3) -0.0692(2) 0.5119(4)
O4 O 0.2117(4) 0.0324(3) 0.0547(4)
H7 H 0.2280(73) 0.1089(16) 0.0771(70)
C11 C 0.2917(7) 0.0288(5) -0.0577(9)
H8 H 0.3880(7) 0.0453(5) -0.0176(9)
H9 H 0.2591(7) 0.0882(5) -0.1329(9)
H10 H 0.2855(7) -0.0497(5) -0.1035(9)
O1B O 0.0415(3) -0.1180(2) -0.1609(3)
C1B C -0.0249(5) -0.1489(3) -0.2835(5)
O2B O 0.0141(3) -0.3596(2) -0.3465(3)
C2B C -0.0398(5) -0.2592(4) -0.3667(4)
O3B O -0.2174(3) -0.2367(3) -0.5932(3)
C3B C -0.1420(5) -0.2020(4) -0.4794(5)
C4B C -0.1218(5) -0.0926(3) -0.3960(5)
N1B N -0.1653(4) 0.0187(3) -0.4056(4)
H1B H -0.1191(39) 0.0717(27) -0.3439(36)
C5B C -0.2672(3) 0.1910(2) -0.5294(3)
H2B H -0.1971(3) 0.2366(2) -0.4732(3)
C6B C -0.3678(4) 0.2460(2) -0.6290(4)
H3B H -0.3664(5) 0.3292(2) -0.6410(6)
C7B C -0.4703(4) 0.1792(2) -0.7112(4)
H4B H -0.5391(5) 0.2168(3) -0.7793(6)
C8B C -0.4724(4) 0.0575(2) -0.6936(5)
H5B H -0.5425(5) 0.0118(3) -0.7498(7)
C9B C -0.3718(4) 0.0025(2) -0.5940(5)
H6B H -0.3732(6) -0.0808(2) -0.5820(7)
C10B C -0.2692(3) 0.0692(2) -0.5119(4)
O4B O -0.2117(4) -0.0324(3) -0.0547(4)
H7B H -0.2280(73) -0.1089(16) -0.0771(70)
C11B C -0.2917(7) -0.0288(5) 0.0577(9)
H8B H -0.3880(7) -0.0453(5) 0.0176(9)
H9B H -0.2591(7) -0.0882(5) 0.1329(9)
H10B H -0.2855(7) 0.0497(5) 0.1035(9)
O2A O -0.0141(3) 0.1404(2) -0.1535(3)
O2C O 0.0141(3) -0.1404(2) 0.1535(3)
Co1A Co 0.0000 0.5000 0.5000
Co1A_2 Co 0.0000 -0.5000 -0.5000
loop_
_geom_bond_atom_site_label_1
_geom_bond_atom_site_label_2
_geom_bond_site_symmetry_1
_geom_bond_site_symmetry_2
Co1 O1 1_555 1_555
O1 C1 1_555 1_555
C1 C2 1_555 1_555
O2 C2 1_555 1_555
C2 C3 1_555 1_555
O3 C3 1_555 1_555
C3 C4 1_555 1_555
C4 C1 1_555 1_555
N1 C4 1_555 1_555
H1 N1 1_555 1_555
C5 H2 1_555 1_555
C6 C5 1_555 1_555
H3 C6 1_555 1_555
C7 C6 1_555 1_555
H4 C7 1_555 1_555
C8 C7 1_555 1_555
H5 C8 1_555 1_555
C9 C8 1_555 1_555
H6 C9 1_555 1_555
C10 N1 1_555 1_555
O4 Co1 1_555 1_555
H7 O4 1_555 1_555
C11 O4 1_555 1_555
H8 C11 1_555 1_555
H9 C11 1_555 1_555
H10 C11 1_555 1_555
O1B Co1 1_555 1_555
C1B O1B 1_555 1_555
O2B C2B 1_555 1_555
C2B C1B 1_555 1_555
O3B C3B 1_555 1_555
C3B C2B 1_555 1_555
C4B C1B 1_555 1_555
N1B C4B 1_555 1_555
H1B N1B 1_555 1_555
C5B H2B 1_555 1_555
C6B C5B 1_555 1_555
H3B C6B 1_555 1_555
C7B C6B 1_555 1_555
H4B C7B 1_555 1_555
C8B C7B 1_555 1_555
H5B C8B 1_555 1_555
C9B C8B 1_555 1_555
H6B C9B 1_555 1_555
C10B N1B 1_555 1_555
O4B Co1 1_555 1_555
H7B O4B 1_555 1_555
C11B O4B 1_555 1_555
H8B C11B 1_555 1_555
H9B C11B 1_555 1_555
H10B C11B 1_555 1_555
O2A Co1 1_555 1_555
O2C Co1 1_555 1_555
Co1A O2 1_555 1_555
Co1A_2 O2B 1_555 1_555
C5 C10 1_555 1_555
C9 C10 1_555 1_555
C3B C4B 1_555 1_555
C5B C10B 1_555 1_555
C9B C10B 1_555 1_555

#END
