
#######################################################################
#
#                 Cambridge Crystallographic Data Centre
#                                CCDC 
#
#######################################################################
#
# If this CIF has been generated from an entry in the Cambridge 
# Structural Database, then it will include bibliographic, chemical, 
# crystal, experimental, refinement or atomic coordinate data resulting 
# from the CCDC's data processing and validation procedures.
#
#######################################################################

data_BENBUS
_symmetry_cell_setting           triclinic
_symmetry_space_group_name_H-M   'P -1'
_symmetry_Int_Tables_number      2
_space_group_name_Hall           '-P 1'
loop_
_symmetry_equiv_pos_site_id
_symmetry_equiv_pos_as_xyz
1 x,y,z
2 -x,-y,-z
_cell_length_a                   10.0921(7)
_cell_length_b                   10.3318(8)
_cell_length_c                   11.3161(8)
_cell_angle_alpha                83.2080(10)
_cell_angle_beta                 82.490(2)
_cell_angle_gamma                69.9470(10)
_cell_volume                     1095.46
loop_
_atom_site_label
_atom_site_type_symbol
_atom_site_fract_x
_atom_site_fract_y
_atom_site_fract_z
Ce1 Ce 0.66103(3) 0.04651(2) 0.09336(2)
O1 O 0.5246(4) -0.1148(4) 0.0670(3)
N1 N 0.5219(5) -0.2125(4) 0.1566(4)
C1 C 0.5943(6) -0.3461(5) 0.1413(5)
H1 H 0.6437 -0.3718 0.0678
C2 C 0.5956(6) -0.4448(5) 0.2338(5)
H2 H 0.6460 -0.5371 0.2222
C3 C 0.5227(6) -0.4088(5) 0.3450(5)
C4 C 0.4458(7) -0.2687(6) 0.3559(5)
H3 H 0.3939 -0.2402 0.4279
C5 C 0.4467(6) -0.1726(6) 0.2599(5)
H4 H 0.3947 -0.0797 0.2674
C6 C 0.5275(6) -0.5132(6) 0.4437(5)
H5 H 0.5722 -0.6052 0.4277
N2 N 0.7491(5) 0.2996(5) 0.0151(4)
O2 O 0.8394(5) 0.1865(5) 0.0407(5)
O3 O 0.6222(5) 0.3016(5) 0.0204(5)
O4 O 0.7812(6) 0.4043(5) -0.0129(5)
N3 N 0.9059(5) -0.1895(5) 0.1951(5)
O5 O 0.9075(4) -0.0688(4) 0.1734(4)
O6 O 0.8065(5) -0.2166(5) 0.1558(4)
O7 O 0.9936(6) -0.2769(6) 0.2531(6)
O8 O 0.7928(5) -0.0287(5) -0.0898(4)
O9 O 1.4225(4) -0.8415(4) -0.8085(4)
N4 N 0.8735(5) -0.1247(6) -0.1599(5)
N5 N 1.3649(5) -0.7489(5) -0.7294(4)
C7 C 0.9227(9) -0.0869(10) -0.2688(7)
H6 H 0.9059 0.0060 -0.2934
C8 C 1.0004(9) -0.1900(12) -0.3456(7)
H7 H 1.0337 -0.1643 -0.4222
C9 C 1.0283(7) -0.3283(10) -0.3103(9)
C10 C 0.9803(8) -0.3630(10) -0.1945(8)
H8 H 0.9999 -0.4552 -0.1661
C11 C 0.9037(8) -0.2599(8) -0.1225(7)
H9 H 0.8713 -0.2837 -0.0450
C12 C 1.1070(9) -0.4458(9) -0.3868(8)
H10 H 1.1268 -0.5343 -0.3488
C13 C 1.1476(8) -0.4387(10) -0.4920(8)
H11 H 1.1275 -0.3497 -0.5289
C14 C 1.2234(6) -0.5499(7) -0.5691(6)
C15 C 1.2590(7) -0.5151(7) -0.6868(7)
H12 H 1.2331 -0.4222 -0.7144
C16 C 1.3315(6) -0.6129(6) -0.7649(5)
H13 H 1.3581 -0.5856 -0.8431
C17 C 1.2640(7) -0.6924(8) -0.5340(5)
H14 H 1.2431 -0.7217 -0.4550
C18 C 1.3336(6) -0.7885(7) -0.6142(5)
H15 H 1.3597 -0.8821 -0.5890
N6 N 0.6884(6) 0.0685(6) 0.3580(4)
O10 O 0.6546(5) -0.0288(5) 0.3277(4)
O11 O 0.6823(5) 0.1688(5) 0.2818(4)
O12 O 0.7248(7) 0.0646(7) 0.4570(4)
C6A C 0.4725(6) -0.4868(6) 0.5563(5)
C3A C 0.4773(6) -0.5912(5) 0.6550(5)
C2A C 0.4044(6) -0.5552(5) 0.7662(5)
C1A C 0.4057(6) -0.6539(5) 0.8587(5)
N1A N 0.4781(5) -0.7875(4) 0.8434(4)
O1A O 0.4754(4) -0.8852(4) 0.9330(3)
C5A C 0.5533(6) -0.8274(6) 0.7401(5)
C4A C 0.5542(7) -0.7313(6) 0.6441(5)
H3A H 0.6061 -0.7598 0.5721
H4A H 0.6053 -0.9203 0.7326
H1A H 0.3563 -0.6282 0.9322
H2A H 0.3540 -0.4629 0.7778
H5A H 0.4278 -0.3948 0.5723
O8_2 O -0.2072(5) 0.9713(5) 0.9102(4)
O9_2 O 0.4225(4) 0.1585(4) 0.1915(4)
N4_2 N -0.1265(5) 0.8753(6) 0.8401(5)
N5_2 N 0.3649(5) 0.2511(5) 0.2706(4)
C7_2 C -0.0773(9) 0.9131(10) 0.7312(7)
H6_2 H -0.0941 1.0060 0.7066
C8_2 C 0.0004(9) 0.8100(12) 0.6544(7)
H7_2 H 0.0337 0.8357 0.5778
C9_2 C 0.0283(7) 0.6717(10) 0.6897(9)
C10_2 C -0.0197(8) 0.6370(10) 0.8055(8)
H8_2 H -0.0001 0.5448 0.8339
C11_2 C -0.0963(8) 0.7401(8) 0.8775(7)
H9_2 H -0.1287 0.7163 0.9550
C12_2 C 0.1070(9) 0.5542(9) 0.6132(8)
H10_2 H 0.1268 0.4657 0.6512
C13_2 C 0.1476(8) 0.5613(10) 0.5080(8)
H11_2 H 0.1275 0.6503 0.4711
C14_2 C 0.2234(6) 0.4501(7) 0.4309(6)
C15_2 C 0.2590(7) 0.4849(7) 0.3132(7)
H12_2 H 0.2331 0.5778 0.2856
C16_2 C 0.3315(6) 0.3871(6) 0.2351(5)
H13_2 H 0.3581 0.4144 0.1569
C17_2 C 0.2640(7) 0.3076(8) 0.4660(5)
H14_2 H 0.2431 0.2783 0.5450
C18_2 C 0.3336(6) 0.2115(7) 0.3858(5)
H15_2 H 0.3597 0.1179 0.4110
Ce1A Ce 0.33897(3) -1.04651(2) 0.90664(2)
O1A_2 O 0.4754(4) 0.1148(4) -0.0670(3)
Ce1A_2 Ce 0.33897(3) -0.04651(2) -0.09336(2)
Ce1_2 Ce 1.66103(3) -0.95349(2) -0.90664(2)
Ce1_3 Ce 0.66103(3) -0.95349(2) 1.09336(2)
Ce1_4 Ce -0.33897(3) 1.04651(2) 1.09336(2)
O1_2 O 1.5246(4) -1.1148(4) -0.9330(3)
O1A_3 O 1.4754(4) -0.8852(4) -1.0670(3)
O2_2 O 1.8394(5) -0.8135(5) -0.9593(5)
O3_2 O 1.6222(5) -0.6984(5) -0.9796(5)
O5_2 O 1.9075(4) -1.0688(4) -0.8266(4)
O6_2 O 1.8065(5) -1.2166(5) -0.8442(4)
O8_3 O 1.7928(5) -1.0287(5) -1.0898(4)
O10_2 O 1.6546(5) -1.0288(5) -0.6723(4)
O11_2 O 1.6823(5) -0.8312(5) -0.7182(4)
N2_2 N 1.7491(5) -0.7004(5) -0.9849(4)
N3_2 N 1.9059(5) -1.1895(5) -0.8049(5)
N6_2 N 1.6884(6) -0.9315(6) -0.6420(4)
O7_2 O 1.9936(6) -1.2769(6) -0.7469(6)
O12_2 O 1.7248(7) -0.9354(7) -0.5430(4)
O4_2 O 1.7812(6) -0.5957(5) -1.0129(5)
loop_
_geom_bond_atom_site_label_1
_geom_bond_atom_site_label_2
_geom_bond_site_symmetry_1
_geom_bond_site_symmetry_2
Ce1 O1 1_555 1_555
O1 N1 1_555 1_555
N1 C1 1_555 1_555
C1 H1 1_555 1_555
C2 C1 1_555 1_555
H2 C2 1_555 1_555
C3 C2 1_555 1_555
C4 C3 1_555 1_555
H3 C4 1_555 1_555
C5 N1 1_555 1_555
H4 C5 1_555 1_555
C6 C3 1_555 1_555
H5 C6 1_555 1_555
N2 O2 1_555 1_555
O2 Ce1 1_555 1_555
O3 Ce1 1_555 1_555
O4 N2 1_555 1_555
N3 O5 1_555 1_555
O5 Ce1 1_555 1_555
O6 Ce1 1_555 1_555
O7 N3 1_555 1_555
O8 Ce1 1_555 1_555
O9 N5 1_555 1_555
N4 O8 1_555 1_555
N5 C16 1_555 1_555
C7 N4 1_555 1_555
H6 C7 1_555 1_555
C8 C7 1_555 1_555
H7 C8 1_555 1_555
C9 C8 1_555 1_555
C10 C9 1_555 1_555
H8 C10 1_555 1_555
C11 N4 1_555 1_555
H9 C11 1_555 1_555
C12 C9 1_555 1_555
H10 C12 1_555 1_555
C13 C12 1_555 1_555
H11 C13 1_555 1_555
C14 C13 1_555 1_555
C15 C14 1_555 1_555
H12 C15 1_555 1_555
C16 C15 1_555 1_555
H13 C16 1_555 1_555
C17 C14 1_555 1_555
H14 C17 1_555 1_555
C18 N5 1_555 1_555
H15 C18 1_555 1_555
N6 O10 1_555 1_555
O10 Ce1 1_555 1_555
O11 Ce1 1_555 1_555
O12 N6 1_555 1_555
C6A C6 1_555 1_555
C3A C6A 1_555 1_555
C2A C3A 1_555 1_555
C1A C2A 1_555 1_555
N1A C1A 1_555 1_555
O1A N1A 1_555 1_555
C5A N1A 1_555 1_555
C4A C3A 1_555 1_555
H3A C4A 1_555 1_555
H4A C5A 1_555 1_555
H1A C1A 1_555 1_555
H2A C2A 1_555 1_555
H5A C6A 1_555 1_555
O8_2 N4_2 1_555 1_555
O9_2 Ce1 1_555 1_555
N4_2 C7_2 1_555 1_555
N5_2 O9_2 1_555 1_555
C7_2 H6_2 1_555 1_555
C8_2 C7_2 1_555 1_555
H7_2 C8_2 1_555 1_555
C9_2 C8_2 1_555 1_555
C10_2 C9_2 1_555 1_555
H8_2 C10_2 1_555 1_555
C11_2 N4_2 1_555 1_555
H9_2 C11_2 1_555 1_555
C12_2 C9_2 1_555 1_555
H10_2 C12_2 1_555 1_555
C13_2 C12_2 1_555 1_555
H11_2 C13_2 1_555 1_555
C14_2 C13_2 1_555 1_555
C15_2 C14_2 1_555 1_555
H12_2 C15_2 1_555 1_555
C16_2 N5_2 1_555 1_555
H13_2 C16_2 1_555 1_555
C17_2 C14_2 1_555 1_555
H14_2 C17_2 1_555 1_555
C18_2 N5_2 1_555 1_555
H15_2 C18_2 1_555 1_555
Ce1A O1A 1_555 1_555
O1A_2 Ce1 1_555 1_555
Ce1A_2 O1 1_555 1_555
Ce1_2 O9 1_555 1_555
Ce1_3 O1A 1_555 1_555
Ce1_4 O8_2 1_555 1_555
O1_2 Ce1_2 1_555 1_555
O1A_3 Ce1_2 1_555 1_555
O2_2 Ce1_2 1_555 1_555
O3_2 Ce1_2 1_555 1_555
O5_2 Ce1_2 1_555 1_555
O6_2 Ce1_2 1_555 1_555
O8_3 Ce1_2 1_555 1_555
O10_2 Ce1_2 1_555 1_555
O11_2 Ce1_2 1_555 1_555
N2_2 O2_2 1_555 1_555
N3_2 O5_2 1_555 1_555
N6_2 O10_2 1_555 1_555
O7_2 N3_2 1_555 1_555
O12_2 N6_2 1_555 1_555
O4_2 N2_2 1_555 1_555
C4 C5 1_555 1_555
N2 O3 1_555 1_555
N3 O6 1_555 1_555
C10 C11 1_555 1_555
C17 C18 1_555 1_555
N6 O11 1_555 1_555
C5A C4A 1_555 1_555
C10_2 C11_2 1_555 1_555
C15_2 C16_2 1_555 1_555
C17_2 C18_2 1_555 1_555
O1A_2 Ce1A_2 1_555 1_555
O3_2 N2_2 1_555 1_555
O6_2 N3_2 1_555 1_555
O11_2 N6_2 1_555 1_555

#END
