
#######################################################################
#
#                 Cambridge Crystallographic Data Centre
#                                CCDC 
#
#######################################################################
#
# If this CIF has been generated from an entry in the Cambridge 
# Structural Database, then it will include bibliographic, chemical, 
# crystal, experimental, refinement or atomic coordinate data resulting 
# from the CCDC's data processing and validation procedures.
#
#######################################################################

data_BENCAZ
_symmetry_cell_setting           triclinic
_symmetry_space_group_name_H-M   'P -1'
_symmetry_Int_Tables_number      2
_space_group_name_Hall           '-P 1'
loop_
_symmetry_equiv_pos_site_id
_symmetry_equiv_pos_as_xyz
1 x,y,z
2 -x,-y,-z
_cell_length_a                   10.1026(11)
_cell_length_b                   10.3118(11)
_cell_length_c                   11.3539(12)
_cell_angle_alpha                83.131(2)
_cell_angle_beta                 82.398(2)
_cell_angle_gamma                70.108(2)
_cell_volume                     1098.92
loop_
_atom_site_label
_atom_site_type_symbol
_atom_site_fract_x
_atom_site_fract_y
_atom_site_fract_z
Gd1 Gd 0.66199(4) 0.04751(4) 0.09308(3)
O1 O 0.5244(6) -0.1162(5) 0.0672(4)
N1 N 0.5226(7) -0.2133(6) 0.1565(5)
C1 C 0.5948(9) -0.3472(8) 0.1428(7)
H1 H 0.6447 -0.3736 0.0698
C2 C 0.5955(9) -0.4447(8) 0.2348(7)
H2 H 0.6460 -0.5370 0.2234
C3 C 0.5231(9) -0.4098(8) 0.3449(7)
C4 C 0.4458(10) -0.2687(9) 0.3541(7)
H3 H 0.3934 -0.2401 0.4257
C5 C 0.4460(9) -0.1734(8) 0.2606(7)
H4 H 0.3936 -0.0807 0.2683
C6 C 0.5270(9) -0.5132(8) 0.4453(7)
H5 H 0.5716 -0.6056 0.4303
N2 N 0.7504(8) 0.3025(7) 0.0139(6)
O2 O 0.8408(7) 0.1889(6) 0.0415(7)
O3 O 0.6256(8) 0.3040(7) 0.0186(8)
O4 O 0.7851(8) 0.4059(7) -0.0136(7)
N3 N 0.9064(8) -0.1896(8) 0.1957(7)
O5 O 0.9080(7) -0.0691(7) 0.1734(6)
O6 O 0.8085(7) -0.2168(6) 0.1571(6)
O7 O 0.9933(9) -0.2768(8) 0.2536(8)
O8 O 0.7948(7) -0.0299(6) -0.0900(5)
O9 O 1.4214(6) -0.8397(6) -0.8071(5)
N4 N 0.8724(8) -0.1259(9) -0.1600(7)
N5 N 1.3638(7) -0.7480(7) -0.7285(6)
C7 C 0.9248(13) -0.0894(14) -0.2685(10)
H6 H 0.9103 0.0036 -0.2918
C8 C 1.0004(12) -0.1887(16) -0.3465(10)
H7 H 1.0332 -0.1626 -0.4229
C9 C 1.0270(11) -0.3303(13) -0.3081(14)
C10 C 0.9812(12) -0.3609(14) -0.1979(12)
H8 H 1.0002 -0.4528 -0.1684
C11 C 0.9061(11) -0.2575(12) -0.1273(10)
H9 H 0.8766 -0.2828 -0.0496
C12 C 1.1055(12) -0.4479(15) -0.3854(11)
H10 H 1.1239 -0.5368 -0.3484
C13 C 1.1472(11) -0.4393(15) -0.4899(13)
H11 H 1.1288 -0.3498 -0.5256
C14 C 1.2228(9) -0.5505(10) -0.5682(9)
C15 C 1.2597(10) -0.5139(9) -0.6872(9)
H12 H 1.2364 -0.4210 -0.7147
C16 C 1.3297(9) -0.6131(10) -0.7631(8)
H13 H 1.3547 -0.5863 -0.8417
C17 C 1.2646(9) -0.6932(10) -0.5347(8)
H14 H 1.2446 -0.7230 -0.4559
C18 C 1.3328(9) -0.7881(10) -0.6132(7)
H15 H 1.3587 -0.8818 -0.5880
N6 N 0.6883(8) 0.0691(8) 0.3588(6)
O10 O 0.6554(7) -0.0290(7) 0.3286(5)
O11 O 0.6841(7) 0.1700(7) 0.2825(6)
O12 O 0.7256(9) 0.0651(9) 0.4573(6)
C6A C 0.4730(9) -0.4868(8) 0.5547(7)
C3A C 0.4769(9) -0.5902(8) 0.6551(7)
C2A C 0.4045(9) -0.5553(8) 0.7652(7)
C1A C 0.4052(9) -0.6528(8) 0.8572(7)
N1A N 0.4774(7) -0.7867(6) 0.8435(5)
O1A O 0.4756(6) -0.8838(5) 0.9328(4)
C5A C 0.5540(9) -0.8266(8) 0.7394(7)
C4A C 0.5542(10) -0.7313(9) 0.6459(7)
H3A H 0.6066 -0.7599 0.5743
H4A H 0.6064 -0.9193 0.7317
H1A H 0.3553 -0.6264 0.9302
H2A H 0.3540 -0.4630 0.7766
H5A H 0.4284 -0.3944 0.5697
O8_2 O -0.2052(7) 0.9701(6) 0.9100(5)
O9_2 O 0.4214(6) 0.1603(6) 0.1929(5)
N4_2 N -0.1276(8) 0.8741(9) 0.8400(7)
N5_2 N 0.3638(7) 0.2520(7) 0.2715(6)
C7_2 C -0.0752(13) 0.9106(14) 0.7315(10)
H6_2 H -0.0897 1.0036 0.7082
C8_2 C 0.0004(12) 0.8113(16) 0.6535(10)
H7_2 H 0.0332 0.8374 0.5771
C9_2 C 0.0270(11) 0.6697(13) 0.6919(14)
C10_2 C -0.0188(12) 0.6391(14) 0.8021(12)
H8_2 H 0.0002 0.5472 0.8316
C11_2 C -0.0939(11) 0.7425(12) 0.8727(10)
H9_2 H -0.1234 0.7172 0.9504
C12_2 C 0.1055(12) 0.5521(15) 0.6146(11)
H10_2 H 0.1239 0.4632 0.6516
C13_2 C 0.1472(11) 0.5607(15) 0.5101(13)
H11_2 H 0.1288 0.6502 0.4744
C14_2 C 0.2228(9) 0.4495(10) 0.4318(9)
C15_2 C 0.2597(10) 0.4861(9) 0.3128(9)
H12_2 H 0.2364 0.5790 0.2853
C16_2 C 0.3297(9) 0.3869(10) 0.2369(8)
H13_2 H 0.3547 0.4137 0.1583
C17_2 C 0.2646(9) 0.3068(10) 0.4653(8)
H14_2 H 0.2446 0.2770 0.5441
C18_2 C 0.3328(9) 0.2119(10) 0.3868(7)
H15_2 H 0.3587 0.1182 0.4120
Gd1A Gd 0.33801(4) -1.04751(4) 0.90692(3)
O1A_2 O 0.4756(6) 0.1162(5) -0.0672(4)
Gd1A_2 Gd 0.33801(4) -0.04751(4) -0.09308(3)
Gd1_2 Gd 1.66199(4) -0.95249(4) -0.90692(3)
Gd1_3 Gd 0.66199(4) -0.95249(4) 1.09308(3)
Gd1_4 Gd -0.33801(4) 1.04751(4) 1.09308(3)
O1_2 O 1.5244(6) -1.1162(5) -0.9328(4)
O1A_3 O 1.4756(6) -0.8838(5) -1.0672(4)
O2_2 O 1.8408(7) -0.8111(6) -0.9585(7)
O3_2 O 1.6256(8) -0.6960(7) -0.9814(8)
O5_2 O 1.9080(7) -1.0691(7) -0.8266(6)
O6_2 O 1.8085(7) -1.2168(6) -0.8429(6)
O8_3 O 1.7948(7) -1.0299(6) -1.0900(5)
O10_2 O 1.6554(7) -1.0290(7) -0.6714(5)
O11_2 O 1.6841(7) -0.8300(7) -0.7175(6)
N2_2 N 1.7504(8) -0.6975(7) -0.9861(6)
N6_2 N 1.6883(8) -0.9309(8) -0.6412(6)
N3_2 N 1.9064(8) -1.1896(8) -0.8043(7)
O7_2 O 1.9933(9) -1.2768(8) -0.7464(8)
O12_2 O 1.7256(9) -0.9349(9) -0.5427(6)
O4_2 O 1.7851(8) -0.5941(7) -1.0136(7)
loop_
_geom_bond_atom_site_label_1
_geom_bond_atom_site_label_2
_geom_bond_site_symmetry_1
_geom_bond_site_symmetry_2
Gd1 O1 1_555 1_555
O1 N1 1_555 1_555
N1 C1 1_555 1_555
C1 H1 1_555 1_555
C2 C1 1_555 1_555
H2 C2 1_555 1_555
C3 C2 1_555 1_555
C4 C3 1_555 1_555
H3 C4 1_555 1_555
C5 N1 1_555 1_555
H4 C5 1_555 1_555
C6 C3 1_555 1_555
H5 C6 1_555 1_555
N2 O2 1_555 1_555
O2 Gd1 1_555 1_555
O3 Gd1 1_555 1_555
O4 N2 1_555 1_555
N3 O5 1_555 1_555
O5 Gd1 1_555 1_555
O6 Gd1 1_555 1_555
O7 N3 1_555 1_555
O8 Gd1 1_555 1_555
O9 N5 1_555 1_555
N4 O8 1_555 1_555
N5 C16 1_555 1_555
C7 N4 1_555 1_555
H6 C7 1_555 1_555
C8 C7 1_555 1_555
H7 C8 1_555 1_555
C9 C8 1_555 1_555
C10 C9 1_555 1_555
H8 C10 1_555 1_555
C11 N4 1_555 1_555
H9 C11 1_555 1_555
C12 C9 1_555 1_555
H10 C12 1_555 1_555
C13 C12 1_555 1_555
H11 C13 1_555 1_555
C14 C13 1_555 1_555
C15 C14 1_555 1_555
H12 C15 1_555 1_555
C16 C15 1_555 1_555
H13 C16 1_555 1_555
C17 C14 1_555 1_555
H14 C17 1_555 1_555
C18 N5 1_555 1_555
H15 C18 1_555 1_555
N6 O10 1_555 1_555
O10 Gd1 1_555 1_555
O11 Gd1 1_555 1_555
O12 N6 1_555 1_555
C6A C6 1_555 1_555
C3A C6A 1_555 1_555
C2A C3A 1_555 1_555
C1A C2A 1_555 1_555
N1A C1A 1_555 1_555
O1A N1A 1_555 1_555
C5A N1A 1_555 1_555
C4A C3A 1_555 1_555
H3A C4A 1_555 1_555
H4A C5A 1_555 1_555
H1A C1A 1_555 1_555
H2A C2A 1_555 1_555
H5A C6A 1_555 1_555
O8_2 N4_2 1_555 1_555
O9_2 Gd1 1_555 1_555
N4_2 C7_2 1_555 1_555
N5_2 O9_2 1_555 1_555
C7_2 H6_2 1_555 1_555
C8_2 C7_2 1_555 1_555
H7_2 C8_2 1_555 1_555
C9_2 C8_2 1_555 1_555
C10_2 C9_2 1_555 1_555
H8_2 C10_2 1_555 1_555
C11_2 N4_2 1_555 1_555
H9_2 C11_2 1_555 1_555
C12_2 C9_2 1_555 1_555
H10_2 C12_2 1_555 1_555
C13_2 C12_2 1_555 1_555
H11_2 C13_2 1_555 1_555
C14_2 C13_2 1_555 1_555
C15_2 C14_2 1_555 1_555
H12_2 C15_2 1_555 1_555
C16_2 N5_2 1_555 1_555
H13_2 C16_2 1_555 1_555
C17_2 C14_2 1_555 1_555
H14_2 C17_2 1_555 1_555
C18_2 N5_2 1_555 1_555
H15_2 C18_2 1_555 1_555
Gd1A O1A 1_555 1_555
O1A_2 Gd1 1_555 1_555
Gd1A_2 O1 1_555 1_555
Gd1_2 O9 1_555 1_555
Gd1_3 O1A 1_555 1_555
Gd1_4 O8_2 1_555 1_555
O1_2 Gd1_2 1_555 1_555
O1A_3 Gd1_2 1_555 1_555
O2_2 Gd1_2 1_555 1_555
O3_2 Gd1_2 1_555 1_555
O5_2 Gd1_2 1_555 1_555
O6_2 Gd1_2 1_555 1_555
O8_3 Gd1_2 1_555 1_555
O10_2 Gd1_2 1_555 1_555
O11_2 Gd1_2 1_555 1_555
N2_2 O2_2 1_555 1_555
N6_2 O10_2 1_555 1_555
N3_2 O5_2 1_555 1_555
O7_2 N3_2 1_555 1_555
O12_2 N6_2 1_555 1_555
O4_2 N2_2 1_555 1_555
C4 C5 1_555 1_555
N2 O3 1_555 1_555
N3 O6 1_555 1_555
C10 C11 1_555 1_555
C17 C18 1_555 1_555
N6 O11 1_555 1_555
C5A C4A 1_555 1_555
C10_2 C11_2 1_555 1_555
C15_2 C16_2 1_555 1_555
C17_2 C18_2 1_555 1_555
O1A_2 Gd1A_2 1_555 1_555
O3_2 N2_2 1_555 1_555
O6_2 N3_2 1_555 1_555
O11_2 N6_2 1_555 1_555

#END
