
#######################################################################
#
#                 Cambridge Crystallographic Data Centre
#                                CCDC 
#
#######################################################################
#
# If this CIF has been generated from an entry in the Cambridge 
# Structural Database, then it will include bibliographic, chemical, 
# crystal, experimental, refinement or atomic coordinate data resulting 
# from the CCDC's data processing and validation procedures.
#
#######################################################################

data_BENHEJ
_symmetry_cell_setting           monoclinic
_symmetry_space_group_name_H-M   'C 2/c'
_symmetry_Int_Tables_number      15
_space_group_name_Hall           '-C 2yn'
loop_
_symmetry_equiv_pos_site_id
_symmetry_equiv_pos_as_xyz
1 x,y,z
2 -x,y,1/2-z
3 1/2+x,1/2+y,z
4 1/2-x,1/2+y,1/2-z
5 -x,-y,-z
6 x,-y,1/2+z
7 1/2-x,1/2-y,-z
8 1/2+x,1/2-y,1/2+z
_cell_length_a                   20.7264(15)
_cell_length_b                   8.9791(7)
_cell_length_c                   13.9745(19)
_cell_angle_alpha                90
_cell_angle_beta                 127.200(4)
_cell_angle_gamma                90
_cell_volume                     2071.55
loop_
_atom_site_label
_atom_site_type_symbol
_atom_site_fract_x
_atom_site_fract_y
_atom_site_fract_z
Zn1 Zn 0.00000 0.05167(4) 0.25000
O1 O 0.07654(9) 0.18185(17) 0.24895(14)
O2 O -0.00673(9) 0.3592(2) 0.11945(15)
O3 O 0.44379(9) 0.63747(19) 0.78678(13)
N1 N 0.39893(11) 0.5343(2) 0.56752(16)
C1 C 0.06066(13) 0.3070(3) 0.19486(19)
C2 C 0.13504(13) 0.3887(2) 0.22567(19)
C3 C 0.21035(13) 0.3696(2) 0.33678(19)
C4 C 0.28068(13) 0.4328(2) 0.36223(19)
C5 C 0.36142(13) 0.4041(2) 0.48377(19)
C6 C 0.33847(13) 0.5969(3) 0.58104(19)
C7 C 0.37416(14) 0.7072(3) 0.6834(2)
C8 C 0.42804(14) 0.6450(3) 0.52237(19)
C9 C 0.50015(14) 0.7382(3) 0.8805(2)
C10 C 0.27460(13) 0.5139(3) 0.2717(2)
C11 C 0.19960(14) 0.5358(3) 0.1619(2)
C12 C 0.12995(13) 0.4758(2) 0.13890(19)
H1 H 0.21390 0.31190 0.39680
H2 H 0.35370 0.32330 0.52420
H3 H 0.40020 0.36750 0.46990
H4 H 0.31330 0.51420 0.59450
H5 H 0.29520 0.64700 0.50520
H6 H 0.38980 0.80030 0.66420
H7 H 0.33420 0.73180 0.69810
H8 H 0.38270 0.71270 0.46570
H9 H 0.44340 0.59150 0.47690
H10 H 0.47490 0.78940 0.91310
H11 H 0.51780 0.81430 0.84950
H12 H 0.32190 0.55410 0.28530
H13 H 0.19600 0.59300 0.10160
H14 H 0.07880 0.49400 0.06410
Zn1F Zn 0.50000 0.44833(4) 0.75000
Zn1_2 Zn 1.00000 0.05167(4) 1.25000
O1A O 0.92346(9) 0.18185(17) 1.25105(14)
O1A_2 O -0.07654(9) 0.18185(17) 0.25105(14)
O2A O 1.00673(9) 0.3592(2) 1.38055(15)
O3A O 0.55621(9) 0.63747(19) 0.71322(13)
O3G O -0.05621(9) -0.13747(19) 0.28678(13)
O3F O 0.05621(9) -0.13747(19) 0.21322(13)
N1A N 0.60107(11) 0.5343(2) 0.93248(16)
N1F N 0.10107(11) -0.0343(2) 0.43248(16)
N1G N -0.10107(11) -0.0343(2) 0.06752(16)
C1A C 0.93934(13) 0.3070(3) 1.30514(19)
C2A C 0.86496(13) 0.3887(2) 1.27433(19)
C3A C 0.78965(13) 0.3696(2) 1.16322(19)
C4A C 0.71932(13) 0.4328(2) 1.13777(19)
C5A C 0.63858(13) 0.4041(2) 1.01623(19)
C6A C 0.66153(13) 0.5969(3) 0.91896(19)
C7A C 0.62584(14) 0.7072(3) 0.8166(2)
C8A C 0.57196(14) 0.6450(3) 0.97763(19)
C9A C 0.49985(14) 0.7382(3) 0.6195(2)
C10A C 0.72540(13) 0.5139(3) 1.2283(2)
C11A C 0.80040(14) 0.5358(3) 1.3381(2)
C12A C 0.87005(13) 0.4758(2) 1.36110(19)
H1A H 0.78610 0.31190 1.10320
H2A H 0.64630 0.32330 0.97580
H3A H 0.59980 0.36750 1.03010
H4A H 0.68670 0.51420 0.90550
H5A H 0.70480 0.64700 0.99480
H6A H 0.61020 0.80030 0.83580
H7A H 0.66580 0.73180 0.80190
H8A H 0.61730 0.71270 1.03430
H9A H 0.55660 0.59150 1.02310
H10A H 0.52510 0.78940 0.58690
H11A H 0.48220 0.81430 0.65050
H12A H 0.67810 0.55410 1.21470
H13A H 0.80400 0.59300 1.39840
H14A H 0.92120 0.49400 1.43590
loop_
_geom_bond_atom_site_label_1
_geom_bond_atom_site_label_2
_geom_bond_site_symmetry_1
_geom_bond_site_symmetry_2
Zn1 O1 1_555 1_555
O1 C1 1_555 1_555
O2 C1 1_555 1_555
O3 C7 1_555 1_555
N1 C5 1_555 1_555
C1 C2 1_555 1_555
C2 C3 1_555 1_555
C3 C4 1_555 1_555
C4 C5 1_555 1_555
C5 H2 1_555 1_555
C6 N1 1_555 1_555
C7 C6 1_555 1_555
C8 N1 1_555 1_555
C9 O3 1_555 1_555
C10 C4 1_555 1_555
C11 C10 1_555 1_555
C12 C2 1_555 1_555
H1 C3 1_555 1_555
H3 C5 1_555 1_555
H4 C6 1_555 1_555
H5 C6 1_555 1_555
H6 C7 1_555 1_555
H7 C7 1_555 1_555
H8 C8 1_555 1_555
H9 C8 1_555 1_555
H10 C9 1_555 1_555
H11 C9 1_555 1_555
H12 C10 1_555 1_555
H13 C11 1_555 1_555
H14 C12 1_555 1_555
Zn1F O3 1_555 1_555
Zn1_2 O1A 1_555 1_555
O1A C1A 1_555 1_555
O1A_2 Zn1 1_555 1_555
O2A C1A 1_555 1_555
O3A Zn1F 1_555 1_555
O3G Zn1 1_555 1_555
O3F Zn1 1_555 1_555
N1A Zn1F 1_555 1_555
N1F Zn1 1_555 1_555
N1G Zn1 1_555 1_555
C1A C2A 1_555 1_555
C2A C3A 1_555 1_555
C3A C4A 1_555 1_555
C4A C5A 1_555 1_555
C5A N1A 1_555 1_555
C6A N1A 1_555 1_555
C7A O3A 1_555 1_555
C8A C9 1_555 1_555
C9A C8 1_555 1_555
C10A C4A 1_555 1_555
C11A C10A 1_555 1_555
C12A C2A 1_555 1_555
H1A C3A 1_555 1_555
H2A C5A 1_555 1_555
H3A C5A 1_555 1_555
H4A C6A 1_555 1_555
H5A C6A 1_555 1_555
H6A C7A 1_555 1_555
H7A C7A 1_555 1_555
H8A C8A 1_555 1_555
H9A C8A 1_555 1_555
H10A C9A 1_555 1_555
H11A C9A 1_555 1_555
H12A C10A 1_555 1_555
H13A C11A 1_555 1_555
H14A C12A 1_555 1_555
N1 Zn1F 1_555 1_555
C11 C12 1_555 1_555
O3A C9A 1_555 1_555
N1A C8A 1_555 1_555
C6A C7A 1_555 1_555
C11A C12A 1_555 1_555

#END
