
#######################################################################
#
#                 Cambridge Crystallographic Data Centre
#                                CCDC 
#
#######################################################################
#
# If this CIF has been generated from an entry in the Cambridge 
# Structural Database, then it will include bibliographic, chemical, 
# crystal, experimental, refinement or atomic coordinate data resulting 
# from the CCDC's data processing and validation procedures.
#
#######################################################################

data_BENJUB
_symmetry_cell_setting           monoclinic
_symmetry_space_group_name_H-M   'C 2/c'
_symmetry_Int_Tables_number      15
_space_group_name_Hall           '-C 2yn'
loop_
_symmetry_equiv_pos_site_id
_symmetry_equiv_pos_as_xyz
1 x,y,z
2 1/2+x,1/2+y,z
3 -x,y,1/2-z
4 1/2-x,1/2+y,1/2-z
5 -x,-y,-z
6 1/2-x,1/2-y,-z
7 x,-y,1/2+z
8 1/2+x,1/2-y,1/2+z
_cell_length_a                   29.6255(8)
_cell_length_b                   6.8582(2)
_cell_length_c                   14.8264(4)
_cell_angle_alpha                90
_cell_angle_beta                 94.728(3)
_cell_angle_gamma                90
_cell_volume                     3002.14
loop_
_atom_site_label
_atom_site_type_symbol
_atom_site_fract_x
_atom_site_fract_y
_atom_site_fract_z
Cu1 Cu 0.5000 0.15958(7) 0.7500
O1 O 0.43940(5) 0.1123(3) 0.69567(11)
O2 O 0.43602(6) -0.1766(3) 0.76371(12)
O3 O 0.14263(6) 0.0207(3) 0.50325(12)
O4 O 0.5000 0.5226(5) 0.7500
N1 N 0.15983(7) -0.2657(4) 0.57653(15)
N2 N 0.02186(6) -0.2919(3) 0.62447(13)
C1 C 0.41869(8) -0.0433(4) 0.71535(16)
C2 C 0.36998(8) -0.0565(4) 0.67842(16)
C3 C 0.34545(8) -0.2230(4) 0.69110(17)
H1 H 0.3597 -0.3288 0.7207
C4 C 0.29901(8) -0.2372(4) 0.66017(16)
C5 C 0.27238(8) -0.4042(4) 0.67428(18)
H2 H 0.2857 -0.5120 0.7037
C6 C 0.22799(8) -0.4089(4) 0.64557(17)
H3 H 0.2111 -0.5201 0.6555
C7 C 0.20668(8) -0.2475(4) 0.60056(16)
C8 C 0.23130(8) -0.0832(4) 0.58502(16)
H4 H 0.2174 0.0225 0.5550
C9 C 0.27774(8) -0.0746(4) 0.61459(16)
C10 C 0.30397(8) 0.0933(4) 0.60178(18)
H5 H 0.2906 0.2001 0.5716
C11 C 0.34869(8) 0.1023(4) 0.63273(17)
H6 H 0.3652 0.2148 0.6234
C12 C 0.13114(8) -0.1337(4) 0.53628(16)
C13 C 0.08218(8) -0.1870(4) 0.53737(16)
C14 C 0.05252(8) -0.1765(4) 0.45994(16)
H7 H 0.0624 -0.1341 0.4053
C15 C 0.00809(9) -0.2305(4) 0.46597(17)
H8 H -0.0123 -0.2295 0.4147
C16 C -0.00604(8) -0.2859(4) 0.54859(16)
H9 H -0.0362 -0.3207 0.5518
C17 C 0.06539(8) -0.2429(4) 0.61731(16)
H10 H 0.0852 -0.2471 0.6692
H11 H 0.1478(10) -0.368(5) 0.588(2)
H12 H 0.4757(10) 0.599(6) 0.754(3)
Cu1A Cu 0.0000 -0.34042(7) 0.7500
Cu1A_2 Cu 1.0000 -0.34042(7) 0.7500
O1B O 0.56060(5) 0.1123(3) 0.80433(11)
O2B O 0.56398(6) -0.1766(3) 0.73629(12)
O3B O 0.85737(6) 0.0207(3) 0.99675(12)
N1B N 0.84017(7) -0.2657(4) 0.92347(15)
N2B N 0.97814(6) -0.2919(3) 0.87553(13)
N2A N 0.52186(6) 0.2081(3) 0.62447(13)
N2C N 0.47814(6) 0.2081(3) 0.87553(13)
C1B C 0.58131(8) -0.0433(4) 0.78465(16)
C2B C 0.63002(8) -0.0565(4) 0.82158(16)
C3B C 0.65455(8) -0.2230(4) 0.80890(17)
H1B H 0.6403 -0.3288 0.7793
C4B C 0.70099(8) -0.2372(4) 0.83983(16)
C5B C 0.72762(8) -0.4042(4) 0.82572(18)
H2B H 0.7143 -0.5120 0.7963
C6B C 0.77201(8) -0.4089(4) 0.85443(17)
H3B H 0.7889 -0.5201 0.8445
C7B C 0.79332(8) -0.2475(4) 0.89944(16)
C8B C 0.76870(8) -0.0832(4) 0.91498(16)
H4B H 0.7826 0.0225 0.9450
C9B C 0.72226(8) -0.0746(4) 0.88541(16)
C10B C 0.69603(8) 0.0933(4) 0.89822(18)
H5B H 0.7094 0.2001 0.9284
C11B C 0.65131(8) 0.1023(4) 0.86727(17)
H6B H 0.6348 0.2148 0.8766
C12B C 0.86886(8) -0.1337(4) 0.96372(16)
C13B C 0.91782(8) -0.1870(4) 0.96263(16)
C14B C 0.94748(8) -0.1765(4) 1.04006(16)
H7B H 0.9376 -0.1341 1.0947
C15B C 0.99191(9) -0.2305(4) 1.03403(17)
H8B H 1.0123 -0.2295 1.0853
C16B C 1.00604(8) -0.2859(4) 0.95141(16)
H9B H 1.0362 -0.3207 0.9482
C17B C 0.93461(8) -0.2429(4) 0.88269(16)
H10B H 0.9148 -0.2471 0.8308
H11B H 0.8522(10) -0.368(5) 0.912(2)
H12B H 0.5243(10) 0.599(6) 0.746(3)
O5 O 0.11363(10) 0.3690(4) 0.58013(19)
H13 H 0.1036(13) 0.338(6) 0.623(2)
H14 H 0.1223(14) 0.273(7) 0.561(3)
loop_
_geom_bond_atom_site_label_1
_geom_bond_atom_site_label_2
_geom_bond_site_symmetry_1
_geom_bond_site_symmetry_2
Cu1 O1 1_555 1_555
O1 C1 1_555 1_555
O2 C1 1_555 1_555
O3 C12 1_555 1_555
O4 Cu1 1_555 1_555
O5 H13 1_555 1_555
N1 C7 1_555 1_555
N2 C16 1_555 1_555
C1 C2 1_555 1_555
C2 C3 1_555 1_555
C3 H1 1_555 1_555
C4 C3 1_555 1_555
C5 C4 1_555 1_555
H2 C5 1_555 1_555
C6 C5 1_555 1_555
H3 C6 1_555 1_555
C7 C6 1_555 1_555
C8 C7 1_555 1_555
H4 C8 1_555 1_555
C9 C4 1_555 1_555
C10 C9 1_555 1_555
H5 C10 1_555 1_555
C11 C2 1_555 1_555
H6 C11 1_555 1_555
C12 N1 1_555 1_555
C13 C12 1_555 1_555
C14 C13 1_555 1_555
H7 C14 1_555 1_555
C15 C14 1_555 1_555
H8 C15 1_555 1_555
C16 C15 1_555 1_555
H9 C16 1_555 1_555
C17 N2 1_555 1_555
H10 C17 1_555 1_555
H11 N1 1_555 1_555
H12 O4 1_555 1_555
H14 O5 1_555 1_555
Cu1A N2 1_555 1_555
Cu1A_2 N2B 1_555 1_555
O1B Cu1 1_555 1_555
O2B C1B 1_555 1_555
O3B C12B 1_555 1_555
N1B C7B 1_555 1_555
N2B C16B 1_555 1_555
N2A Cu1 1_555 1_555
N2C Cu1 1_555 1_555
C1B O1B 1_555 1_555
C2B C1B 1_555 1_555
C3B C2B 1_555 1_555
H1B C3B 1_555 1_555
C4B C3B 1_555 1_555
C5B C4B 1_555 1_555
H2B C5B 1_555 1_555
C6B C5B 1_555 1_555
H3B C6B 1_555 1_555
C7B C6B 1_555 1_555
C8B C7B 1_555 1_555
H4B C8B 1_555 1_555
C9B C4B 1_555 1_555
C10B C9B 1_555 1_555
H5B C10B 1_555 1_555
C11B C2B 1_555 1_555
H6B C11B 1_555 1_555
C12B N1B 1_555 1_555
C13B C12B 1_555 1_555
C14B C13B 1_555 1_555
H7B C14B 1_555 1_555
C15B C14B 1_555 1_555
H8B C15B 1_555 1_555
C16B C15B 1_555 1_555
H9B C16B 1_555 1_555
C17B N2B 1_555 1_555
H10B C17B 1_555 1_555
H11B N1B 1_555 1_555
H12B O4 1_555 1_555
C8 C9 1_555 1_555
C10 C11 1_555 1_555
C13 C17 1_555 1_555
C8B C9B 1_555 1_555
C10B C11B 1_555 1_555
C13B C17B 1_555 1_555

#END
