
#######################################################################
#
#                 Cambridge Crystallographic Data Centre
#                                CCDC 
#
#######################################################################
#
# If this CIF has been generated from an entry in the Cambridge 
# Structural Database, then it will include bibliographic, chemical, 
# crystal, experimental, refinement or atomic coordinate data resulting 
# from the CCDC's data processing and validation procedures.
#
#######################################################################

data_BENNEO
_symmetry_cell_setting           triclinic
_symmetry_space_group_name_H-M   'P -1'
_symmetry_Int_Tables_number      2
_space_group_name_Hall           '-P 1'
loop_
_symmetry_equiv_pos_site_id
_symmetry_equiv_pos_as_xyz
1 x,y,z
2 -x,-y,-z
_cell_length_a                   9.2146(9)
_cell_length_b                   12.9421(10)
_cell_length_c                   19.7750(16)
_cell_angle_alpha                102.920(7)
_cell_angle_beta                 92.385(7)
_cell_angle_gamma                94.828(7)
_cell_volume                     2285.99
loop_
_atom_site_label
_atom_site_type_symbol
_atom_site_fract_x
_atom_site_fract_y
_atom_site_fract_z
Sn1 Sn 0.90170(4) 0.42364(3) 0.738486(19)
Sn2 Sn 0.72405(4) 0.23641(3) 0.69623(2)
Rh1 Rh 1.38518(5) 0.45684(4) 1.05088(2)
Rh2 Rh 1.40240(5) 0.41320(4) 0.44168(2)
Rh3 Rh 0.46924(5) 0.88918(4) 0.79192(3)
Rh4 Rh 0.92288(5) -0.11935(4) 0.93529(3)
Cl1 Cl 1.35799(17) 0.61637(13) 1.13062(8)
Cl2 Cl 1.31733(16) 0.56382(12) 0.41049(8)
Cl3 Cl 0.47548(17) 0.92421(13) 0.68142(8)
Cl4 Cl 1.09516(17) -0.20916(13) 0.86690(9)
O1 O 1.6055(5) 0.4143(4) 1.1539(2)
O2 O 1.3957(5) 0.2457(4) 0.9510(2)
O3 O 1.6096(5) 0.4036(4) 0.3295(2)
O4 O 1.4894(5) 0.2144(4) 0.4790(2)
O5 O 0.2439(5) 1.0420(4) 0.8289(2)
O6 O 0.4614(6) 0.8235(4) 0.9272(2)
O7 O 0.6891(6) -0.0142(4) 1.0191(3)
O8 O 0.9827(6) -0.2466(5) 1.0391(3)
N1 N 1.2265(5) 0.4922(4) 0.9852(3)
N2 N 1.2433(6) 0.4131(4) 0.5128(3)
N3 N 0.6298(6) 0.7896(4) 0.7652(3)
N4 N 0.8905(6) -0.0351(4) 0.8598(3)
N5 N 0.1195(6) 0.2245(5) 0.7098(3)
N6 N 0.7376(7) -0.0488(5) 0.4423(3)
C1 C 1.5215(7) 0.4276(5) 1.1140(3)
C2 C 1.3964(7) 0.3268(6) 0.9887(3)
C3 C 1.5338(6) 0.4049(5) 0.3727(3)
C4 C 1.4594(7) 0.2894(5) 0.4634(3)
C5 C 0.3277(7) 0.9829(5) 0.8153(3)
C6 C 0.4630(7) 0.8531(5) 0.8763(3)
C7 C 0.7805(8) -0.0532(6) 0.9874(4)
C8 C 0.9582(7) -0.1978(6) 1.0004(4)
C10 C 1.0399(6) 0.4204(5) 0.8299(3)
C11 C 1.0387(6) 0.5174(5) 0.8895(3)
C12 C 1.1419(7) 0.5075(5) 0.9455(3)
C13 C 1.0578(6) 0.4601(5) 0.6663(3)
C14 C 1.0453(7) 0.3763(5) 0.5964(3)
C15 C 1.1559(7) 0.3972(5) 0.5493(3)
C16 C 0.7741(6) 0.5592(5) 0.7678(3)
C17 C 0.8202(6) 0.6511(5) 0.7347(3)
C18 C 0.7169(6) 0.7310(5) 0.7504(3)
C19 C 0.7511(6) 0.1446(5) 0.7751(3)
C20 C 0.8470(7) 0.0544(6) 0.7560(3)
C21 C 0.8729(7) 0.0035(5) 0.8132(3)
C22 C 0.4938(6) 0.2626(5) 0.6856(3)
C23 C 0.3968(6) 0.1991(5) 0.7264(3)
C24 C 0.2399(6) 0.2133(5) 0.7168(3)
C25 C 0.7824(6) 0.1449(5) 0.5968(3)
C26 C 0.6745(7) 0.0473(5) 0.5659(3)
C27 C 0.7099(7) -0.0074(5) 0.4959(3)
H2 H 1.0084 0.3572 0.8463
H3 H 1.1393 0.4140 0.8164
H4 H 1.0670 0.5815 0.8738
H5 H 0.9416 0.5219 0.9062
H6 H 1.0429 0.5292 0.6572
H7 H 1.1556 0.4645 0.6875
H8 H 1.0543 0.3066 0.6057
H9 H 0.9496 0.3751 0.5739
H10 H 0.6721 0.5357 0.7545
H11 H 0.7832 0.5843 0.8180
H12 H 0.9174 0.6824 0.7528
H13 H 0.8219 0.6258 0.6848
H14 H 0.7925 0.1926 0.8177
H15 H 0.6556 0.1153 0.7844
H16 H 0.8009 0.0018 0.7166
H17 H 0.9398 0.0818 0.7426
H18 H 0.4833 0.3377 0.7017
H19 H 0.4609 0.2418 0.6366
H20 H 0.4102 0.1241 0.7115
H21 H 0.4270 0.2218 0.7754
H22 H 0.7880 0.1910 0.5643
H23 H 0.8783 0.1215 0.6027
H24 H 0.6752 -0.0018 0.5962
H25 H 0.5771 0.0699 0.5634
Rh1A Rh 1.61482(5) 0.54316(4) 0.94912(2)
Rh2A Rh 1.59760(5) 0.58680(4) 0.55832(2)
Cl5 Cl 1.0453(2) 0.13346(18) 0.43514(13)
Cl6 Cl 0.8389(2) 0.28687(15) 0.43017(9)
Cl7 Cl 0.9266(2) 0.15979(18) 0.30272(11)
C9 C 0.8906(7) 0.1629(6) 0.3880(4)
H1 H 0.8102 0.1086 0.3885
loop_
_geom_bond_atom_site_label_1
_geom_bond_atom_site_label_2
_geom_bond_site_symmetry_1
_geom_bond_site_symmetry_2
Sn1 Sn2 1_555 1_555
Sn2 C19 1_555 1_555
Rh1 Cl1 1_555 1_555
Rh2 Cl2 1_555 1_555
Rh3 Cl3 1_555 1_555
Rh4 Cl4 1_555 1_555
Cl5 C9 1_555 1_555
Cl6 C9 1_555 1_555
Cl7 C9 1_555 1_555
O1 C1 1_555 1_555
O2 C2 1_555 1_555
O3 C3 1_555 1_555
O4 C4 1_555 1_555
O5 C5 1_555 1_555
O6 C6 1_555 1_555
O7 C7 1_555 1_555
O8 C8 1_555 1_555
N1 Rh1 1_555 1_555
N2 Rh2 1_555 1_555
N3 Rh3 1_555 1_555
N4 Rh4 1_555 1_555
N5 C24 1_555 1_555
N6 C27 1_555 1_555
C1 Rh1 1_555 1_555
C2 Rh1 1_555 1_555
C3 Rh2 1_555 1_555
C4 Rh2 1_555 1_555
C5 Rh3 1_555 1_555
C6 Rh3 1_555 1_555
C7 Rh4 1_555 1_555
C8 Rh4 1_555 1_555
C9 H1 1_555 1_555
C10 Sn1 1_555 1_555
C11 C10 1_555 1_555
C12 N1 1_555 1_555
C13 Sn1 1_555 1_555
C14 C13 1_555 1_555
C15 N2 1_555 1_555
C16 Sn1 1_555 1_555
C17 C16 1_555 1_555
C18 N3 1_555 1_555
C19 C20 1_555 1_555
C20 C21 1_555 1_555
C21 N4 1_555 1_555
C22 Sn2 1_555 1_555
C23 C22 1_555 1_555
C24 C23 1_555 1_555
C25 Sn2 1_555 1_555
C26 C25 1_555 1_555
C27 C26 1_555 1_555
H2 C10 1_555 1_555
H3 C10 1_555 1_555
H4 C11 1_555 1_555
H5 C11 1_555 1_555
H6 C13 1_555 1_555
H7 C13 1_555 1_555
H8 C14 1_555 1_555
H9 C14 1_555 1_555
H10 C16 1_555 1_555
H11 C16 1_555 1_555
H12 C17 1_555 1_555
H13 C17 1_555 1_555
H14 C19 1_555 1_555
H15 C19 1_555 1_555
H16 C20 1_555 1_555
H17 C20 1_555 1_555
H18 C22 1_555 1_555
H19 C22 1_555 1_555
H20 C23 1_555 1_555
H21 C23 1_555 1_555
H22 C25 1_555 1_555
H23 C25 1_555 1_555
H24 C26 1_555 1_555
H25 C26 1_555 1_555
Rh1A Rh1 1_555 1_555
Rh2A Rh2 1_555 1_555
C11 C12 1_555 1_555
C14 C15 1_555 1_555
C17 C18 1_555 1_555

#END
