
#######################################################################
#
#                 Cambridge Crystallographic Data Centre
#                                CCDC 
#
#######################################################################
#
# If this CIF has been generated from an entry in the Cambridge 
# Structural Database, then it will include bibliographic, chemical, 
# crystal, experimental, refinement or atomic coordinate data resulting 
# from the CCDC's data processing and validation procedures.
#
#######################################################################

data_BENXEZ
_symmetry_cell_setting           monoclinic
_symmetry_space_group_name_H-M   'P 21/c'
_symmetry_Int_Tables_number      14
_space_group_name_Hall           '-P 2ybc'
loop_
_symmetry_equiv_pos_site_id
_symmetry_equiv_pos_as_xyz
1 x,y,z
2 -x,1/2+y,1/2-z
3 -x,-y,-z
4 x,1/2-y,1/2+z
_cell_length_a                   15.637(5)
_cell_length_b                   5.627(5)
_cell_length_c                   16.468(5)
_cell_angle_alpha                90
_cell_angle_beta                 116.561(5)
_cell_angle_gamma                90
_cell_volume                     1296.08
loop_
_atom_site_label
_atom_site_type_symbol
_atom_site_fract_x
_atom_site_fract_y
_atom_site_fract_z
Mn1 Mn 0.5000 0.0000 0.5000
O1 O 0.44339(8) 0.21531(19) 0.37865(7)
O2 O 0.50376(9) 0.3130(2) 0.58062(9)
N1 N -0.02656(9) -0.1829(2) 0.53798(9)
O3 O 0.42987(11) -0.0436(2) 0.27124(9)
N2 N 0.34805(9) -0.0441(2) 0.48703(9)
N3 N 0.05605(9) -0.1956(2) 0.53429(9)
C1 C 0.35330(12) 0.3327(3) 0.22401(11)
C2 C 0.25863(11) 0.3689(3) 0.22657(10)
C3 C 0.18693(13) 0.1992(3) 0.19058(11)
H1 H 0.1971 0.0639 0.1636
C4 C 0.41422(10) 0.1518(3) 0.29582(10)
C5 C 0.17223(10) -0.0266(3) 0.49218(10)
C6 C 0.32142(12) -0.2149(3) 0.52688(12)
H2 H 0.3631 -0.3410 0.5535
C7 C 0.19940(11) 0.1511(3) 0.45062(11)
H3 H 0.1593 0.2798 0.4238
C8 C 0.23453(12) -0.2141(3) 0.53058(13)
H4 H 0.2184 -0.3379 0.5585
C9 C 0.07980(10) -0.0124(3) 0.49662(9)
C10 C 0.10081(13) 0.2271(4) 0.19398(12)
H5 H 0.0535 0.1119 0.1690
C11 C 0.24141(13) 0.5691(3) 0.26671(12)
H6 H 0.2881 0.6859 0.2911
C12 C 0.08490(13) 0.4254(4) 0.23440(13)
H7 H 0.0272 0.4441 0.2372
C13 C 0.28689(11) 0.1346(3) 0.44951(11)
H8 H 0.3042 0.2549 0.4210
C14 C 0.15534(14) 0.5959(4) 0.27064(13)
H9 H 0.1449 0.7301 0.2980
H10 H 0.3431(13) 0.271(3) 0.1656(13)
H11 H 0.3891(16) 0.486(4) 0.2338(14)
H12 H 0.5267(17) 0.460(4) 0.5899(16)
H13 H 0.5187(19) 0.256(5) 0.6287(18)
N1B N 0.02656(9) 0.1829(2) 0.46202(9)
N2B N -0.34805(9) 0.0441(2) 0.51297(9)
N3B N -0.05605(9) 0.1956(2) 0.46571(9)
C5B C -0.17223(10) 0.0266(3) 0.50782(10)
C6B C -0.32142(12) 0.2149(3) 0.47312(12)
H2B H -0.3631 0.3410 0.4465
C7B C -0.19940(11) -0.1511(3) 0.54938(11)
H3B H -0.1593 -0.2798 0.5762
C8B C -0.23453(12) 0.2141(3) 0.46942(13)
H4B H -0.2184 0.3379 0.4415
C9B C -0.07980(10) 0.0124(3) 0.50338(9)
C13B C -0.28689(11) -0.1346(3) 0.55049(11)
H8B H -0.3042 -0.2549 0.5790
O1B O 0.55661(8) -0.21531(19) 0.62135(7)
O3B O 0.57013(11) 0.0436(2) 0.72876(9)
C1B C 0.64670(12) -0.3327(3) 0.77599(11)
C2B C 0.74137(11) -0.3689(3) 0.77343(10)
C3B C 0.81307(13) -0.1992(3) 0.80942(11)
H1B H 0.8029 -0.0639 0.8364
C4B C 0.58578(10) -0.1518(3) 0.70418(10)
C10B C 0.89919(13) -0.2271(4) 0.80602(12)
H5B H 0.9465 -0.1119 0.8310
C11B C 0.75859(13) -0.5691(3) 0.73329(12)
H6B H 0.7119 -0.6859 0.7089
C12B C 0.91510(13) -0.4254(4) 0.76560(13)
H7B H 0.9728 -0.4441 0.7628
C14B C 0.84466(14) -0.5959(4) 0.72936(13)
H9B H 0.8551 -0.7301 0.7020
H10B H 0.6569(13) -0.271(3) 0.8344(13)
H11B H 0.6109(16) -0.486(4) 0.7662(14)
O2B O 0.49624(9) -0.3130(2) 0.41938(9)
H12B H 0.4733(17) -0.460(4) 0.4101(16)
H13B H 0.4813(19) -0.256(5) 0.3713(18)
Mn1_2 Mn -0.5000 0.0000 0.5000
N2B_2 N 0.65195(9) 0.0441(2) 0.51297(9)
loop_
_geom_bond_atom_site_label_1
_geom_bond_atom_site_label_2
_geom_bond_site_symmetry_1
_geom_bond_site_symmetry_2
Mn1 O1 1_555 1_555
O1 C4 1_555 1_555
O2 Mn1 1_555 1_555
N1 N3 1_555 1_555
O3 C4 1_555 1_555
N2 Mn1 1_555 1_555
N3 C9 1_555 1_555
C1 C2 1_555 1_555
C2 C3 1_555 1_555
C3 H1 1_555 1_555
C4 C1 1_555 1_555
C5 C7 1_555 1_555
C6 N2 1_555 1_555
H2 C6 1_555 1_555
C7 H3 1_555 1_555
C8 C5 1_555 1_555
H4 C8 1_555 1_555
C9 C5 1_555 1_555
C10 C3 1_555 1_555
H5 C10 1_555 1_555
C11 C2 1_555 1_555
H6 C11 1_555 1_555
C12 C10 1_555 1_555
H7 C12 1_555 1_555
C13 N2 1_555 1_555
H8 C13 1_555 1_555
C14 C11 1_555 1_555
H9 C14 1_555 1_555
H10 C1 1_555 1_555
H11 C1 1_555 1_555
H12 O2 1_555 1_555
H13 O2 1_555 1_555
N1B C9 1_555 1_555
N2B C6B 1_555 1_555
N3B N1B 1_555 1_555
C5B C7B 1_555 1_555
C6B H2B 1_555 1_555
C7B H3B 1_555 1_555
C8B C5B 1_555 1_555
H4B C8B 1_555 1_555
C9B N1 1_555 1_555
C13B N2B 1_555 1_555
H8B C13B 1_555 1_555
O1B Mn1 1_555 1_555
O3B C4B 1_555 1_555
C1B C2B 1_555 1_555
C2B C3B 1_555 1_555
C3B H1B 1_555 1_555
C4B O1B 1_555 1_555
C10B C3B 1_555 1_555
H5B C10B 1_555 1_555
C11B C2B 1_555 1_555
H6B C11B 1_555 1_555
C12B C10B 1_555 1_555
H7B C12B 1_555 1_555
C14B C11B 1_555 1_555
H9B C14B 1_555 1_555
H10B C1B 1_555 1_555
H11B C1B 1_555 1_555
O2B Mn1 1_555 1_555
H12B O2B 1_555 1_555
H13B O2B 1_555 1_555
Mn1_2 N2B 1_555 1_555
N2B_2 Mn1 1_555 1_555
C6 C8 1_555 1_555
C7 C13 1_555 1_555
C12 C14 1_555 1_555
N3B C9B 1_555 1_555
C5B C9B 1_555 1_555
C6B C8B 1_555 1_555
C7B C13B 1_555 1_555
C1B C4B 1_555 1_555
C12B C14B 1_555 1_555

#END
