
#######################################################################
#
#                 Cambridge Crystallographic Data Centre
#                                CCDC 
#
#######################################################################
#
# If this CIF has been generated from an entry in the Cambridge 
# Structural Database, then it will include bibliographic, chemical, 
# crystal, experimental, refinement or atomic coordinate data resulting 
# from the CCDC's data processing and validation procedures.
#
#######################################################################

data_BENXUP
_symmetry_cell_setting           monoclinic
_symmetry_space_group_name_H-M   'C 2/c'
_symmetry_Int_Tables_number      15
_space_group_name_Hall           '-C 2yn'
loop_
_symmetry_equiv_pos_site_id
_symmetry_equiv_pos_as_xyz
1 x,y,z
2 -x,y,1/2-z
3 1/2+x,1/2+y,z
4 1/2-x,1/2+y,1/2-z
5 -x,-y,-z
6 x,-y,1/2+z
7 1/2-x,1/2-y,-z
8 1/2+x,1/2-y,1/2+z
_cell_length_a                   20.436(4)
_cell_length_b                   9.0050(17)
_cell_length_c                   16.672(3)
_cell_angle_alpha                90
_cell_angle_beta                 110.230(3)
_cell_angle_gamma                90
_cell_volume                     2878.82
loop_
_atom_site_label
_atom_site_type_symbol
_atom_site_fract_x
_atom_site_fract_y
_atom_site_fract_z
Zn1 Zn 0.16081(4) 0.30529(9) 0.26751(4)
Zn2 Zn 0.0000 0.24815(13) 0.2500
O1 O 0.0553(2) 0.1111(6) 0.3380(3)
O2 O 0.0647(3) 0.3654(7) 0.2192(4)
O3 O 0.1574(2) 0.2275(6) 0.3812(3)
N1 N 0.2651(3) 0.0414(7) 0.6961(3)
N2 N 0.1910(3) -0.1296(7) 0.7165(3)
C1 C 0.1955(3) 0.0939(8) 0.5416(4)
H1 H 0.2280 0.1609 0.5321
C2 C 0.1147(3) 0.1386(7) 0.3932(4)
C3 C 0.1322(3) 0.0614(7) 0.4773(4)
C4 C 0.1004(4) -0.1142(8) 0.5675(4)
H2 H 0.0690 -0.1849 0.5764
C5 C 0.2088(3) 0.0249(7) 0.6193(4)
C6 C 0.2505(4) -0.0521(9) 0.7502(4)
C7 C 0.1630(3) -0.0788(7) 0.6319(4)
C8 C 0.0861(3) -0.0419(8) 0.4903(4)
H3 H 0.0438 -0.0630 0.4450
O4 O 0.3369(5) 0.0486(9) 0.8712(4)
H4 H 0.3121 0.1077 0.8872
C9 C 0.2989(6) -0.0816(11) 0.8391(6)
H5 H 0.2752 -0.1239 0.8773
C10 C 0.3677(8) -0.1786(18) 0.8388(10)
H6 H 0.3985 -0.1962 0.8978
H7 H 0.3930 -0.1230 0.8082
H8 H 0.3523 -0.2740 0.8102
H9 H 0.065(7) 0.397(15) 0.185(8)
Zn1A Zn -0.16081(4) 0.30529(9) 0.23249(4)
O1A O -0.0553(2) 0.1111(6) 0.1620(3)
O2A O -0.0647(3) 0.3654(7) 0.2808(4)
O3A O -0.1574(2) 0.2275(6) 0.1188(3)
N1A N -0.2651(3) 0.0414(7) -0.1961(3)
N2A N -0.1910(3) -0.1296(7) -0.2165(3)
C1A C -0.1955(3) 0.0939(8) -0.0416(4)
H1A H -0.2280 0.1609 -0.0321
C2A C -0.1147(3) 0.1386(7) 0.1068(4)
C3A C -0.1322(3) 0.0614(7) 0.0227(4)
C4A C -0.1004(4) -0.1142(8) -0.0675(4)
H2A H -0.0690 -0.1849 -0.0764
C5A C -0.2088(3) 0.0249(7) -0.1193(4)
C6A C -0.2505(4) -0.0521(9) -0.2502(4)
C7A C -0.1630(3) -0.0788(7) -0.1319(4)
C8A C -0.0861(3) -0.0419(8) 0.0097(4)
H3A H -0.0438 -0.0630 0.0550
O4A O -0.3369(5) 0.0486(9) -0.3712(4)
H4A H -0.3121 0.1077 -0.3872
C9A C -0.2989(6) -0.0816(11) -0.3391(6)
H5A H -0.2752 -0.1239 -0.3773
C10A C -0.3677(8) -0.1786(18) -0.3388(10)
H6A H -0.3985 -0.1962 -0.3978
H7A H -0.3930 -0.1230 -0.3082
H8A H -0.3523 -0.2740 -0.3102
H9A H -0.065(7) 0.397(15) 0.315(8)
Zn1D Zn -0.16081(4) -0.30529(9) -0.26751(4)
Zn1E Zn 0.16081(4) -0.30529(9) 0.76751(4)
Zn1F Zn 0.33919(4) 0.19471(9) 0.73249(4)
Zn1G Zn -0.33919(4) 0.19471(9) -0.23249(4)
N1F N 0.2349(3) 0.4586(7) 0.3039(3)
N1G N -0.2349(3) 0.4586(7) 0.1961(3)
N2D N -0.1910(3) 0.1296(7) 0.2835(3)
N2E N 0.1910(3) 0.1296(7) 0.2165(3)
O5 O 0.2288(13) 0.163(3) 0.8996(15)
O6 O 0.0850(11) 0.620(2) 0.3462(13)
O7 O -0.0392(9) 0.467(2) 0.0426(10)
O8 O 0.0000 0.809(5) 0.2500
loop_
_geom_bond_atom_site_label_1
_geom_bond_atom_site_label_2
_geom_bond_site_symmetry_1
_geom_bond_site_symmetry_2
Zn1 O2 1_555 1_555
Zn2 O1 1_555 1_555
O1 C2 1_555 1_555
O2 Zn2 1_555 1_555
O3 Zn1 1_555 1_555
N1 C5 1_555 1_555
N2 C6 1_555 1_555
C1 H1 1_555 1_555
C2 O3 1_555 1_555
C3 C1 1_555 1_555
C4 H2 1_555 1_555
C5 C1 1_555 1_555
C6 N1 1_555 1_555
C7 N2 1_555 1_555
C8 C3 1_555 1_555
H3 C8 1_555 1_555
O4 H4 1_555 1_555
C9 C6 1_555 1_555
H5 C9 1_555 1_555
C10 C9 1_555 1_555
H6 C10 1_555 1_555
H7 C10 1_555 1_555
H8 C10 1_555 1_555
H9 O2 1_555 1_555
Zn1A O2A 1_555 1_555
O1A Zn2 1_555 1_555
O2A Zn2 1_555 1_555
O3A Zn1A 1_555 1_555
N1A C5A 1_555 1_555
N2A C6A 1_555 1_555
C1A H1A 1_555 1_555
C2A O1A 1_555 1_555
C3A C1A 1_555 1_555
C4A H2A 1_555 1_555
C5A C1A 1_555 1_555
C6A N1A 1_555 1_555
C7A N2A 1_555 1_555
C8A C3A 1_555 1_555
H3A C8A 1_555 1_555
O4A H4A 1_555 1_555
C9A C6A 1_555 1_555
H5A C9A 1_555 1_555
C10A C9A 1_555 1_555
H6A C10A 1_555 1_555
H7A C10A 1_555 1_555
H8A C10A 1_555 1_555
H9A O2A 1_555 1_555
Zn1D N2A 1_555 1_555
Zn1E N2 1_555 1_555
Zn1F N1 1_555 1_555
Zn1G N1A 1_555 1_555
N1F Zn1 1_555 1_555
N1G Zn1A 1_555 1_555
N2D Zn1A 1_555 1_555
N2E Zn1 1_555 1_555
C2 C3 1_555 1_555
C4 C7 1_555 1_555
C4 C8 1_555 1_555
C5 C7 1_555 1_555
O4 C9 1_555 1_555
O3A C2A 1_555 1_555
C2A C3A 1_555 1_555
C4A C7A 1_555 1_555
C4A C8A 1_555 1_555
C5A C7A 1_555 1_555
O4A C9A 1_555 1_555

#END
