
#######################################################################
#
#                 Cambridge Crystallographic Data Centre
#                                CCDC 
#
#######################################################################
#
# If this CIF has been generated from an entry in the Cambridge 
# Structural Database, then it will include bibliographic, chemical, 
# crystal, experimental, refinement or atomic coordinate data resulting 
# from the CCDC's data processing and validation procedures.
#
#######################################################################

data_BEPDIK
_symmetry_cell_setting           triclinic
_symmetry_space_group_name_H-M   'P -1'
_symmetry_Int_Tables_number      2
_space_group_name_Hall           '-P 1'
loop_
_symmetry_equiv_pos_site_id
_symmetry_equiv_pos_as_xyz
1 x,y,z
2 -x,-y,-z
_cell_length_a                   9.0567(18)
_cell_length_b                   10.072(2)
_cell_length_c                   10.610(2)
_cell_angle_alpha                72.54(3)
_cell_angle_beta                 77.83(3)
_cell_angle_gamma                70.02(3)
_cell_volume                     861.322
loop_
_atom_site_label
_atom_site_type_symbol
_atom_site_fract_x
_atom_site_fract_y
_atom_site_fract_z
La1 La 0.41649(3) 0.08844(2) 0.16501(2)
O1 O 0.5338(4) 0.2103(3) 0.2631(3)
O2 O 0.4759(5) 0.3091(4) 0.4367(3)
O3 O 0.5383(4) 0.7320(3) 0.0451(3)
O4 O 0.4140(4) 0.8311(3) 0.2154(3)
O5 O 0.1435(4) 0.0958(4) 0.1177(3)
O6 O 0.3251(3) 0.0267(3) -0.0441(3)
O7 O 0.5804(5) -0.0887(4) 0.3561(4)
N1 N 0.1920(4) 0.3489(4) 0.1827(4)
N2 N 0.2118(4) 0.1042(4) 0.3889(4)
C1 C 0.1780(6) 0.4677(5) 0.0826(5)
H1 H 0.2512 0.4631 0.0068
C2 C 0.0590(7) 0.5993(6) 0.0853(6)
H2 H 0.0537 0.6798 0.0128
C3 C -0.0484(7) 0.6080(6) 0.1949(7)
H3 H -0.1283 0.6948 0.1980
C4 C -0.0393(6) 0.4860(6) 0.3041(6)
C5 C 0.0842(5) 0.3579(5) 0.2931(5)
C6 C 0.0975(5) 0.2302(5) 0.4037(5)
C7 C -0.0098(6) 0.2393(6) 0.5206(5)
C8 C 0.0062(7) 0.1122(7) 0.6251(5)
H4 H -0.0608 0.1141 0.7046
C9 C 0.1186(6) -0.0125(6) 0.6101(5)
H5 H 0.1297 -0.0967 0.6790
C10 C 0.2183(6) -0.0140(6) 0.4903(5)
H6 H 0.2929 -0.1017 0.4805
C11 C -0.1475(7) 0.4899(7) 0.4232(7)
H7 H -0.2301 0.5745 0.4287
C12 C -0.1313(6) 0.3731(7) 0.5269(6)
H8 H -0.2006 0.3791 0.6047
C13 C 0.5048(5) 0.3171(5) 0.3158(5)
C14 C 0.5060(5) 0.4607(5) 0.2206(4)
H9 H 0.5154 0.4678 0.1300
C15 C 0.4943(5) 0.5773(4) 0.2584(4)
H10 H 0.4937 0.5678 0.3484
C16 C 0.4821(5) 0.7242(4) 0.1649(4)
C17 C 0.1865(5) 0.0411(4) 0.0196(4)
C18 C 0.0746(5) -0.0098(5) -0.0261(4)
H11 H 0.117(6) -0.060(6) -0.095(5)
H12 H 0.558(10) -0.152(9) 0.419(8)
H13 H 0.611(6) -0.042(6) 0.371(5)
C18A C -0.0746(5) 0.0098(5) 0.0261(4)
C17A C -0.1865(5) -0.0411(4) -0.0196(4)
O5A O -0.1435(4) -0.0958(4) -0.1177(3)
O6A O -0.3251(3) -0.0267(3) 0.0441(3)
H11A H -0.117(6) 0.060(6) 0.095(5)
O1A O 0.4662(4) 0.7897(3) -0.2631(3)
O2A O 0.5241(5) 0.6909(4) -0.4367(3)
O3A O 0.4617(4) 0.2680(3) -0.0451(3)
O4A O 0.5860(4) 0.1689(3) -0.2154(3)
C13A C 0.4952(5) 0.6829(5) -0.3158(5)
C14A C 0.4940(5) 0.5393(5) -0.2206(4)
H9A H 0.4846 0.5322 -0.1300
C15A C 0.5057(5) 0.4227(4) -0.2584(4)
H10A H 0.5063 0.4322 -0.3484
C16A C 0.5179(5) 0.2758(4) -0.1649(4)
La1A La 0.58351(3) 0.91156(2) -0.16501(2)
O7A O 0.4196(5) 1.0887(4) -0.3561(4)
H12A H 0.442(10) 1.152(9) -0.419(8)
H13A H 0.389(6) 1.042(6) -0.371(5)
N1A N 0.8080(4) 0.6511(4) -0.1827(4)
N2A N 0.7882(4) 0.8958(4) -0.3889(4)
C1A C 0.8220(6) 0.5323(5) -0.0826(5)
H1A H 0.7488 0.5369 -0.0068
C2A C 0.9410(7) 0.4007(6) -0.0853(6)
H2A H 0.9463 0.3202 -0.0128
C3A C 1.0484(7) 0.3920(6) -0.1949(7)
H3A H 1.1283 0.3052 -0.1980
C4A C 1.0393(6) 0.5140(6) -0.3041(6)
C5A C 0.9158(5) 0.6421(5) -0.2931(5)
C6A C 0.9025(5) 0.7698(5) -0.4037(5)
C7A C 1.0098(6) 0.7607(6) -0.5206(5)
C8A C 0.9938(7) 0.8878(7) -0.6251(5)
H4A H 1.0608 0.8859 -0.7046
C9A C 0.8814(6) 1.0125(6) -0.6101(5)
H5A H 0.8703 1.0967 -0.6790
C10A C 0.7817(6) 1.0140(6) -0.4903(5)
H6A H 0.7071 1.1017 -0.4805
C11A C 1.1475(7) 0.5101(7) -0.4232(7)
H7A H 1.2301 0.4255 -0.4287
C12A C 1.1313(6) 0.6269(7) -0.5269(6)
H8A H 1.2006 0.6209 -0.6047
O4_2 O 0.4140(4) -0.1689(3) 0.2154(3)
O6A_2 O 0.6749(3) -0.0267(3) 0.0441(3)
La1_2 La 0.41649(3) 1.08844(2) 0.16501(2)
La1A_2 La 0.58351(3) -0.08844(2) -0.16501(2)
La1A_3 La -0.41649(3) -0.08844(2) -0.16501(2)
La1_3 La -0.58351(3) 0.08844(2) 0.16501(2)
O4A_2 O 0.5860(4) 1.1689(3) -0.2154(3)
O5A_2 O 0.8565(4) 0.9042(4) -0.1177(3)
O6_2 O 0.3251(3) 1.0267(3) -0.0441(3)
O6A_3 O 0.6749(3) 0.9733(3) 0.0441(3)
loop_
_geom_bond_atom_site_label_1
_geom_bond_atom_site_label_2
_geom_bond_site_symmetry_1
_geom_bond_site_symmetry_2
La1 O1 1_555 1_555
O1 C13 1_555 1_555
O2 C13 1_555 1_555
O3 C16 1_555 1_555
O4 C16 1_555 1_555
O5 La1 1_555 1_555
O6 La1 1_555 1_555
O7 La1 1_555 1_555
N1 La1 1_555 1_555
N2 La1 1_555 1_555
C1 N1 1_555 1_555
H1 C1 1_555 1_555
C2 C1 1_555 1_555
H2 C2 1_555 1_555
C3 C2 1_555 1_555
H3 C3 1_555 1_555
C4 C3 1_555 1_555
C5 N1 1_555 1_555
C6 N2 1_555 1_555
C7 C6 1_555 1_555
C8 C7 1_555 1_555
H4 C8 1_555 1_555
C9 C8 1_555 1_555
H5 C9 1_555 1_555
C10 N2 1_555 1_555
H6 C10 1_555 1_555
C11 C4 1_555 1_555
H7 C11 1_555 1_555
C12 C7 1_555 1_555
H8 C12 1_555 1_555
C13 C14 1_555 1_555
C14 H9 1_555 1_555
C15 C14 1_555 1_555
H10 C15 1_555 1_555
C16 C15 1_555 1_555
C17 O5 1_555 1_555
C18 C17 1_555 1_555
H11 C18 1_555 1_555
H12 O7 1_555 1_555
H13 O7 1_555 1_555
C18A C18 1_555 1_555
C17A C18A 1_555 1_555
O5A C17A 1_555 1_555
O6A C17A 1_555 1_555
H11A C18A 1_555 1_555
O1A C13A 1_555 1_555
O2A C13A 1_555 1_555
O3A La1 1_555 1_555
O4A C16A 1_555 1_555
C13A C14A 1_555 1_555
C14A H9A 1_555 1_555
C15A C14A 1_555 1_555
H10A C15A 1_555 1_555
C16A O3A 1_555 1_555
La1A O3 1_555 1_555
O7A La1A 1_555 1_555
H12A O7A 1_555 1_555
H13A O7A 1_555 1_555
N1A La1A 1_555 1_555
N2A La1A 1_555 1_555
C1A N1A 1_555 1_555
H1A C1A 1_555 1_555
C2A C1A 1_555 1_555
H2A C2A 1_555 1_555
C3A C2A 1_555 1_555
H3A C3A 1_555 1_555
C4A C3A 1_555 1_555
C5A N1A 1_555 1_555
C6A N2A 1_555 1_555
C7A C6A 1_555 1_555
C8A C7A 1_555 1_555
H4A C8A 1_555 1_555
C9A C8A 1_555 1_555
H5A C9A 1_555 1_555
C10A N2A 1_555 1_555
H6A C10A 1_555 1_555
C11A C4A 1_555 1_555
H7A C11A 1_555 1_555
C12A C7A 1_555 1_555
H8A C12A 1_555 1_555
O4_2 La1 1_555 1_555
O6A_2 La1 1_555 1_555
La1_2 O4 1_555 1_555
La1A_2 O6 1_555 1_555
La1A_3 O5A 1_555 1_555
La1_3 O6A 1_555 1_555
O4A_2 La1A 1_555 1_555
O5A_2 La1A 1_555 1_555
O6_2 La1A 1_555 1_555
O6A_3 La1A 1_555 1_555
O6 C17 1_555 1_555
C4 C5 1_555 1_555
C5 C6 1_555 1_555
C9 C10 1_555 1_555
C11 C12 1_555 1_555
O6A La1A_3 1_555 1_555
O1A La1A 1_555 1_555
O4A La1A_2 1_555 1_555
C15A C16A 1_555 1_555
C4A C5A 1_555 1_555
C5A C6A 1_555 1_555
C9A C10A 1_555 1_555
C11A C12A 1_555 1_555
O6A_2 La1A_2 1_555 1_555
La1_2 O6_2 1_555 1_555
La1_2 O6A_3 1_555 1_555

#END
