
#######################################################################
#
#                 Cambridge Crystallographic Data Centre
#                                CCDC 
#
#######################################################################
#
# If this CIF has been generated from an entry in the Cambridge 
# Structural Database, then it will include bibliographic, chemical, 
# crystal, experimental, refinement or atomic coordinate data resulting 
# from the CCDC's data processing and validation procedures.
#
#######################################################################

data_BEPTUM01
_symmetry_cell_setting           monoclinic
_symmetry_space_group_name_H-M   'P 21/c'
_symmetry_Int_Tables_number      14
_space_group_name_Hall           '-P 2ybc'
loop_
_symmetry_equiv_pos_site_id
_symmetry_equiv_pos_as_xyz
1 x,y,z
2 -x,1/2+y,1/2-z
3 -x,-y,-z
4 x,1/2-y,1/2+z
_cell_length_a                   10.4086(6)
_cell_length_b                   10.9524(6)
_cell_length_c                   10.3570(6)
_cell_angle_alpha                90
_cell_angle_beta                 107.904(4)
_cell_angle_gamma                90
_cell_volume                     1123.51
loop_
_atom_site_label
_atom_site_type_symbol
_atom_site_fract_x
_atom_site_fract_y
_atom_site_fract_z
C1 C 0.24397(16) 0.51226(14) 0.95809(17)
C2 C 0.18106(16) 0.61383(14) 0.85942(17)
C3 C 0.04369(18) 0.63644(15) 0.82014(19)
H1 H -0.0127 0.5923 0.8572
C4 C -0.00765(18) 0.72632(17) 0.72434(19)
H2 H -0.0996 0.7433 0.6961
C5 C 0.07767(18) 0.79048(16) 0.67089(18)
H3 H 0.0446 0.8511 0.6063
C6 C 0.21391(18) 0.76266(15) 0.71558(17)
H4 H 0.2719 0.8056 0.6794
C7 C 0.52519(17) 0.83436(15) 1.12493(17)
C8 C 0.62091(17) 0.87477(14) 1.04978(17)
C9 C 0.7005(2) 0.97738(17) 1.0895(2)
H5 H 0.6937 1.0252 1.1613
C10 C 0.7903(2) 1.00755(18) 1.0205(2)
H6 H 0.8441 1.0768 1.0442
C11 C 0.7987(2) 0.93376(18) 0.9164(2)
H7 H 0.8592 0.9516 0.8690
C12 C 0.7161(2) 0.83272(19) 0.8833(2)
H8 H 0.7226 0.7827 0.8130
N1 N 0.26559(14) 0.67666(12) 0.80858(14)
N2 N 0.62723(14) 0.80346(13) 0.94759(14)
O1 O 0.17515(13) 0.45757(12) 1.01537(15)
O2 O 0.36823(11) 0.49157(10) 0.97032(12)
O3 O 0.52233(14) 0.89804(12) 1.22421(12)
O4 O 0.45941(13) 0.73884(11) 1.08440(13)
Mn1 Mn 0.48775(2) 0.63701(2) 0.91094(2)
O2B O 0.63177(11) 0.50843(10) 1.02968(12)
O3C O 0.52233(14) 0.60196(12) 0.72421(12)
Mn1B Mn 0.51225(2) 0.36299(2) 1.08906(2)
Mn1C Mn 0.48775(2) 0.86299(2) 1.41094(2)
loop_
_geom_bond_atom_site_label_1
_geom_bond_atom_site_label_2
_geom_bond_site_symmetry_1
_geom_bond_site_symmetry_2
C1 C2 1_555 1_555
C2 C3 1_555 1_555
C3 H1 1_555 1_555
C4 C3 1_555 1_555
H2 C4 1_555 1_555
C5 C4 1_555 1_555
H3 C5 1_555 1_555
C6 C5 1_555 1_555
H4 C6 1_555 1_555
C7 C8 1_555 1_555
C8 C9 1_555 1_555
C9 H5 1_555 1_555
C10 C9 1_555 1_555
H6 C10 1_555 1_555
C11 C10 1_555 1_555
H7 C11 1_555 1_555
C12 C11 1_555 1_555
H8 C12 1_555 1_555
N1 C2 1_555 1_555
N2 C8 1_555 1_555
O1 C1 1_555 1_555
O2 C1 1_555 1_555
O3 C7 1_555 1_555
O4 C7 1_555 1_555
Mn1 N1 1_555 1_555
O2B Mn1 1_555 1_555
O3C Mn1 1_555 1_555
Mn1B O2 1_555 1_555
Mn1C O3 1_555 1_555
C6 N1 1_555 1_555
C12 N2 1_555 1_555
N2 Mn1 1_555 1_555
O2 Mn1 1_555 1_555
O4 Mn1 1_555 1_555
O2B Mn1B 1_555 1_555

#END
