
#######################################################################
#
#                 Cambridge Crystallographic Data Centre
#                                CCDC 
#
#######################################################################
#
# If this CIF has been generated from an entry in the Cambridge 
# Structural Database, then it will include bibliographic, chemical, 
# crystal, experimental, refinement or atomic coordinate data resulting 
# from the CCDC's data processing and validation procedures.
#
#######################################################################

data_BEPVEY
_symmetry_cell_setting           monoclinic
_symmetry_space_group_name_H-M   'C 2/c'
_symmetry_Int_Tables_number      15
_space_group_name_Hall           '-C 2yn'
loop_
_symmetry_equiv_pos_site_id
_symmetry_equiv_pos_as_xyz
1 x,y,z
2 1/2+x,1/2+y,z
3 x,-y,1/2+z
4 1/2+x,1/2-y,1/2+z
5 -x,-y,-z
6 1/2-x,1/2-y,-z
7 -x,y,1/2-z
8 1/2-x,1/2+y,1/2-z
_cell_length_a                   11.956(4)
_cell_length_b                   10.403(4)
_cell_length_c                   7.242(3)
_cell_angle_alpha                90
_cell_angle_beta                 103.463(5)
_cell_angle_gamma                90
_cell_volume                     875.995
loop_
_atom_site_label
_atom_site_type_symbol
_atom_site_fract_x
_atom_site_fract_y
_atom_site_fract_z
Mn1 Mn 0.5000 0.5000 0.0000
O1 O 0.49603(15) 0.69329(15) 0.0935(2)
Cl1 Cl 0.35317(4) 0.43366(6) 0.19105(7)
N1 N 0.5000 1.1500(3) 0.2500
C1 C 0.4052(2) 1.0896(2) 0.1578(3)
H1 H 0.3410 1.1363 0.0963
C2 C 0.4035(2) 0.9583(2) 0.1547(3)
H2 H 0.3383 0.9147 0.0894
C3 C 0.5000 0.8902(3) 0.2500
C4 C 0.5000 0.7457(3) 0.2500
H3 H 0.5000 1.221(5) 0.2500
O1F O 0.50397(15) 0.69329(15) 0.4065(2)
Mn1F Mn 0.5000 0.5000 0.5000
Cl1F Cl 0.64683(4) 0.43366(6) 0.30895(7)
O1D O 0.50397(15) 0.30671(15) -0.0935(2)
Cl1B Cl 0.35317(4) 0.56634(6) -0.30895(7)
Cl1D Cl 0.64683(4) 0.56634(6) -0.19105(7)
C1F C 0.5948(2) 1.0896(2) 0.3422(3)
H1F H 0.6590 1.1363 0.4037
C2F C 0.5965(2) 0.9583(2) 0.3453(3)
H2F H 0.6617 0.9147 0.4106
loop_
_geom_bond_atom_site_label_1
_geom_bond_atom_site_label_2
_geom_bond_site_symmetry_1
_geom_bond_site_symmetry_2
Mn1 O1 1_555 1_555
O1 C4 1_555 1_555
Cl1 Mn1 1_555 1_555
N1 C1 1_555 1_555
C1 H1 1_555 1_555
C2 C1 1_555 1_555
H2 C2 1_555 1_555
C3 C2 1_555 1_555
C4 C3 1_555 1_555
H3 N1 1_555 1_555
O1F C4 1_555 1_555
Mn1F Cl1 1_555 1_555
Cl1F Mn1 1_555 1_555
O1D Mn1 1_555 1_555
Cl1B Mn1 1_555 1_555
Cl1D Mn1 1_555 1_555
C1F N1 1_555 1_555
H1F C1F 1_555 1_555
C2F C3 1_555 1_555
H2F C2F 1_555 1_555
O1F Mn1F 1_555 1_555
Mn1F Cl1F 1_555 1_555
C1F C2F 1_555 1_555

#END
