
#######################################################################
#
#                 Cambridge Crystallographic Data Centre
#                                CCDC 
#
#######################################################################
#
# If this CIF has been generated from an entry in the Cambridge 
# Structural Database, then it will include bibliographic, chemical, 
# crystal, experimental, refinement or atomic coordinate data resulting 
# from the CCDC's data processing and validation procedures.
#
#######################################################################

data_BEPVUO
_symmetry_cell_setting           triclinic
_symmetry_space_group_name_H-M   'P -1'
_symmetry_Int_Tables_number      2
_space_group_name_Hall           '-P 1'
loop_
_symmetry_equiv_pos_site_id
_symmetry_equiv_pos_as_xyz
1 x,y,z
2 -x,-y,-z
_cell_length_a                   9.6191(15)
_cell_length_b                   11.3789(15)
_cell_length_c                   12.1015(14)
_cell_angle_alpha                72.260(5)
_cell_angle_beta                 83.813(7)
_cell_angle_gamma                71.706(9)
_cell_volume                     1197.71
loop_
_atom_site_label
_atom_site_type_symbol
_atom_site_fract_x
_atom_site_fract_y
_atom_site_fract_z
Ag1 Ag 0.18682(3) 0.26524(2) -0.39690(2)
N1 N 0.0262(3) 0.1667(2) -0.2845(2)
H3 H 0.0421 0.1647 -0.2094
N2 N -0.1773(3) 0.5959(2) -0.4277(2)
N3 N 0.3926(3) 0.1831(2) -0.2823(2)
H4 H 0.3891 0.1033 -0.2333
N4 N 0.3846(4) 0.5990(3) -0.3957(3)
C1 C 0.0269(3) 0.0134(2) -0.3939(3)
C2 C -0.0886(3) -0.0308(3) -0.4054(3)
H5 H -0.1495 -0.0528 -0.3401
C3 C 0.1159(3) 0.0431(3) -0.4895(3)
H6 H 0.1962 0.0721 -0.4828
C4 C 0.0550(4) 0.0280(3) -0.2792(3)
H7 H -0.0087 -0.0104 -0.2186
H8 H 0.1581 -0.0198 -0.2571
C5 C -0.1294(3) 0.2394(3) -0.3051(3)
H9 H -0.1898 0.2005 -0.2417
H10 H -0.1592 0.2344 -0.3789
C6 C -0.1574(3) 0.4703(3) -0.4167(3)
H11 H -0.1440 0.4435 -0.4852
C7 C -0.1553(3) 0.3782(3) -0.3108(3)
C8 C -0.1747(4) 0.4182(3) -0.2116(3)
H12 H -0.1739 0.3579 -0.1372
C9 C -0.1954(4) 0.5469(3) -0.2220(3)
H13 H -0.2091 0.5764 -0.1550
C10 C -0.1959(4) 0.6308(3) -0.3300(3)
H14 H -0.2103 0.7190 -0.3361
C13 C 0.5115(3) 0.0753(3) -0.4312(3)
C14 C 0.5135(3) -0.0516(3) -0.3823(3)
H15 H 0.5225 -0.0880 -0.3006
C15 C 0.4972(3) 0.1266(3) -0.5505(3)
H16 H 0.4949 0.2140 -0.5860
C16 C 0.5240(4) 0.1579(3) -0.3580(3)
H17 H 0.6124 0.1133 -0.3095
H18 H 0.5349 0.2410 -0.4092
C17 C 0.4044(4) 0.2609(3) -0.2069(3)
H19 H 0.5083 0.2387 -0.1866
H20 H 0.3485 0.2381 -0.1340
C18 C 0.4294(4) 0.4716(3) -0.3435(3)
H21 H 0.5246 0.4241 -0.3624
C19 C 0.3471(4) 0.4049(3) -0.2644(3)
C20 C 0.2107(4) 0.4754(3) -0.2368(3)
H22 H 0.1488 0.4337 -0.1837
C21 C 0.1638(4) 0.6083(3) -0.2873(4)
H23 H 0.0711 0.6593 -0.2677
C22 C 0.2544(4) 0.6635(3) -0.3656(3)
H24 H 0.2215 0.7542 -0.4006
C3A C -0.1159(3) -0.0431(3) -0.5105(3)
C1A C -0.0269(3) -0.0134(2) -0.6061(3)
C2A C 0.0886(3) 0.0308(3) -0.5946(3)
H5A H 0.1495 0.0528 -0.6599
C4A C -0.0550(4) -0.0280(3) -0.7208(3)
N1A N -0.0262(3) -0.1667(2) -0.7155(2)
Ag1A Ag -0.18682(3) -0.26524(2) -0.60310(2)
N2_2 N -0.1773(3) -0.4041(2) -0.4277(2)
Ag1_2 Ag 0.18682(3) -0.73476(2) -0.39690(2)
N3A N -0.3926(3) -0.1831(2) -0.7177(2)
H4A H -0.3891 -0.1033 -0.7667
H3A H -0.0421 -0.1647 -0.7906
C5A C 0.1294(3) -0.2394(3) -0.6949(3)
H7A H 0.0087 0.0104 -0.7814
H8A H -0.1581 0.0198 -0.7429
H6A H -0.1962 -0.0721 -0.5172
C15A C 0.5028(3) -0.1266(3) -0.4495(3)
C14A C 0.4865(3) 0.0516(3) -0.6177(3)
H9A H 0.1898 -0.2005 -0.7583
H10A H 0.1592 -0.2344 -0.6211
C7A C 0.1553(3) -0.3782(3) -0.6892(3)
N2A N 0.1773(3) 0.4041(2) -0.5723(2)
C13A C 0.4885(3) -0.0753(3) -0.5688(3)
H16A H 0.5051 -0.2140 -0.4140
H15A H 0.4775 0.0880 -0.6994
C6A C 0.1574(3) -0.4703(3) -0.5833(3)
C8A C 0.1747(4) -0.4182(3) -0.7884(3)
Ag1A_2 Ag -0.18682(3) 0.73476(2) -0.60310(2)
C16A C 0.4760(4) -0.1579(3) -0.6420(3)
N2A_2 N 0.1773(3) -0.5959(2) -0.5723(2)
H11A H 0.1440 -0.4435 -0.5148
H12A H 0.1739 -0.3579 -0.8628
C9A C 0.1954(4) -0.5469(3) -0.7780(3)
N3A_2 N 0.6074(3) -0.1831(2) -0.7177(2)
H17A H 0.3876 -0.1133 -0.6905
H18A H 0.4651 -0.2410 -0.5908
C10A C 0.1959(4) -0.6308(3) -0.6700(3)
H13A H 0.2091 -0.5764 -0.8450
Ag1A_3 Ag 0.81318(3) -0.26524(2) -0.60310(2)
H4A_2 H 0.6109 -0.1033 -0.7667
C17A C 0.5956(4) -0.2609(3) -0.7931(3)
H14A H 0.2103 -0.7190 -0.6639
H19A H 0.4917 -0.2387 -0.8134
H20A H 0.6515 -0.2381 -0.8660
C19A C 0.6529(4) -0.4049(3) -0.7356(3)
C18A C 0.5706(4) -0.4716(3) -0.6565(3)
C20A C 0.7893(4) -0.4754(3) -0.7632(3)
N4A N 0.6154(4) -0.5990(3) -0.6043(3)
H21A H 0.4754 -0.4241 -0.6376
H22A H 0.8512 -0.4337 -0.8163
C21A C 0.8362(4) -0.6083(3) -0.7127(4)
C22A C 0.7456(4) -0.6635(3) -0.6344(3)
H23A H 0.9289 -0.6593 -0.7323
H24A H 0.7785 -0.7542 -0.5994
F1 F 0.7143(6) 0.3391(5) 0.0659(4)
F3 F 0.5266(9) 0.3653(6) -0.0237(6)
F5 F 0.5371(7) 0.2923(4) 0.1638(4)
O1 O 0.5881(5) 0.0772(3) 0.0954(3)
O2 O 0.7806(5) 0.1294(3) -0.0015(3)
C11 C 0.6657(6) 0.1498(4) 0.0511(3)
C12 C 0.6057(6) 0.2880(5) 0.0652(4)
O3 O 0.0760(6) 0.1371(4) -0.0327(3)
H1 H 0.0638 0.2315 -0.0448
H2 H -0.0063 0.1110 -0.0418
O5 O 0.3323(17) 0.0591(10) -0.8970(8)
O6 O 0.148(4) 0.238(3) -0.902(2)
F2? F 0.596(4) 0.375(2) -0.013(3)
F4? F 0.452(2) 0.296(2) 0.066(3)
F6? F 0.641(4) 0.282(3) 0.150(3)
O4? O 0.2537(10) 0.1777(9) -0.8626(8)
loop_
_geom_bond_atom_site_label_1
_geom_bond_atom_site_label_2
_geom_bond_site_symmetry_1
_geom_bond_site_symmetry_2
Ag1 N1 1_555 1_555
F1 C12 1_555 1_555
F3 C12 1_555 1_555
F5 C12 1_555 1_555
O1 C11 1_555 1_555
O2 C11 1_555 1_555
O3 H1 1_555 1_555
H2 O3 1_555 1_555
N1 H3 1_555 1_555
N2 C6 1_555 1_555
N3 Ag1 1_555 1_555
H4 N3 1_555 1_555
N4 C18 1_555 1_555
C1 C2 1_555 1_555
C2 H5 1_555 1_555
C3 C1 1_555 1_555
H6 C3 1_555 1_555
C4 N1 1_555 1_555
H7 C4 1_555 1_555
H8 C4 1_555 1_555
C5 N1 1_555 1_555
H9 C5 1_555 1_555
H10 C5 1_555 1_555
C6 H11 1_555 1_555
C7 C5 1_555 1_555
C8 C7 1_555 1_555
H12 C8 1_555 1_555
C9 C8 1_555 1_555
H13 C9 1_555 1_555
C10 N2 1_555 1_555
H14 C10 1_555 1_555
C11 C12 1_555 1_555
C13 C14 1_555 1_555
C14 H15 1_555 1_555
C15 C13 1_555 1_555
H16 C15 1_555 1_555
C16 N3 1_555 1_555
H17 C16 1_555 1_555
H18 C16 1_555 1_555
C17 N3 1_555 1_555
H19 C17 1_555 1_555
H20 C17 1_555 1_555
C18 H21 1_555 1_555
C19 C17 1_555 1_555
C20 C19 1_555 1_555
H22 C20 1_555 1_555
C21 C20 1_555 1_555
H23 C21 1_555 1_555
C22 N4 1_555 1_555
H24 C22 1_555 1_555
C3A C2 1_555 1_555
C1A C3A 1_555 1_555
C2A C3 1_555 1_555
H5A C2A 1_555 1_555
C4A C1A 1_555 1_555
N1A C4A 1_555 1_555
Ag1A N1A 1_555 1_555
N2_2 Ag1A 1_555 1_555
Ag1_2 N2A_2 1_555 1_555
N3A Ag1A 1_555 1_555
H4A N3A 1_555 1_555
H3A N1A 1_555 1_555
C5A N1A 1_555 1_555
H7A C4A 1_555 1_555
H8A C4A 1_555 1_555
H6A C3A 1_555 1_555
C15A C14 1_555 1_555
C14A C15 1_555 1_555
H9A C5A 1_555 1_555
H10A C5A 1_555 1_555
C7A C5A 1_555 1_555
N2A Ag1 1_555 1_555
C13A C15A 1_555 1_555
H16A C15A 1_555 1_555
H15A C14A 1_555 1_555
C6A C7A 1_555 1_555
C8A C7A 1_555 1_555
Ag1A_2 N2 1_555 1_555
C16A C13A 1_555 1_555
N2A_2 C6A 1_555 1_555
H11A C6A 1_555 1_555
H12A C8A 1_555 1_555
C9A C8A 1_555 1_555
N3A_2 C16A 1_555 1_555
H17A C16A 1_555 1_555
H18A C16A 1_555 1_555
C10A N2A_2 1_555 1_555
H13A C9A 1_555 1_555
Ag1A_3 N3A_2 1_555 1_555
H4A_2 N3A_2 1_555 1_555
C17A N3A_2 1_555 1_555
H14A C10A 1_555 1_555
H19A C17A 1_555 1_555
H20A C17A 1_555 1_555
C19A C17A 1_555 1_555
C18A C19A 1_555 1_555
C20A C19A 1_555 1_555
N4A C18A 1_555 1_555
H21A C18A 1_555 1_555
H22A C20A 1_555 1_555
C21A C20A 1_555 1_555
C22A N4A 1_555 1_555
H23A C21A 1_555 1_555
H24A C22A 1_555 1_555
C1 C4 1_555 1_555
C6 C7 1_555 1_555
C9 C10 1_555 1_555
C13 C16 1_555 1_555
C18 C19 1_555 1_555
C21 C22 1_555 1_555
C1A C2A 1_555 1_555
C14A C13A 1_555 1_555
C9A C10A 1_555 1_555
C21A C22A 1_555 1_555

#END
