
#######################################################################
#
#                 Cambridge Crystallographic Data Centre
#                                CCDC 
#
#######################################################################
#
# If this CIF has been generated from an entry in the Cambridge 
# Structural Database, then it will include bibliographic, chemical, 
# crystal, experimental, refinement or atomic coordinate data resulting 
# from the CCDC's data processing and validation procedures.
#
#######################################################################

data_BEPWIE
_symmetry_cell_setting           monoclinic
_symmetry_space_group_name_H-M   'P 21/n'
_symmetry_Int_Tables_number      14
_space_group_name_Hall           '-P 2yn'
loop_
_symmetry_equiv_pos_site_id
_symmetry_equiv_pos_as_xyz
1 x,y,z
2 1/2-x,1/2+y,1/2-z
3 -x,-y,-z
4 1/2+x,1/2-y,1/2+z
_cell_length_a                   10.2462(4)
_cell_length_b                   9.7235(4)
_cell_length_c                   13.8793(6)
_cell_angle_alpha                90
_cell_angle_beta                 101.760(4)
_cell_angle_gamma                90
_cell_volume                     1353.76
loop_
_atom_site_label
_atom_site_type_symbol
_atom_site_fract_x
_atom_site_fract_y
_atom_site_fract_z
Cu1 Cu 0.0000 0.0000 0.0000
Na1 Na 0.44926(8) 0.17337(8) -0.01033(6)
Na2 Na 0.23115(7) -0.16718(8) -0.06812(5)
Na3 Na 0.14634(8) 0.48937(8) -0.03046(6)
O1 O 0.12480(12) -0.13706(12) 0.06545(9)
O2 O 0.09004(13) 0.12787(13) 0.10097(9)
O3 O 0.37191(13) -0.03678(14) 0.05332(9)
O4 O 0.42516(13) 0.00673(13) 0.21463(9)
O5 O -0.10280(14) -0.00645(14) 0.16998(12)
O6 O 0.03550(14) -0.06585(15) 0.30878(10)
O7 O 0.59351(14) 0.19093(14) 0.15025(10)
H1 H 0.568(2) 0.2640(13) 0.1693(17)
H2 H 0.556(2) 0.1298(17) 0.1751(16)
O8 O 0.06324(14) -0.32421(14) -0.14486(12)
H3 H 0.011(2) -0.270(2) -0.1266(18)
H4 H 0.016(2) -0.375(2) -0.1852(15)
O9 O 0.27250(14) 0.29979(14) 0.05091(10)
H5 H 0.312(2) 0.333(2) 0.1034(11)
H6 H 0.2202(19) 0.244(2) 0.0679(16)
O10 O 0.06362(15) 0.60660(14) 0.09208(10)
H7 H 0.080(2) 0.591(2) 0.1521(8)
H8 H 0.082(3) 0.6890(12) 0.0867(16)
O11 O 0.31800(15) 0.17332(16) -0.16681(10)
H9 H 0.2509(17) 0.125(2) -0.1707(18)
H10 H 0.341(2) 0.169(3) -0.2202(11)
O12 O 0.28609(17) 0.45356(18) -0.14300(12)
H11 H 0.286(3) 0.3686(10) -0.150(2)
H12 H 0.318(3) 0.484(2) -0.1885(16)
O13 O 0.61055(17) 0.37495(16) -0.02267(12)
H13 H 0.595(3) 0.421(2) -0.0737(11)
H14 H 0.618(3) 0.432(2) 0.0226(13)
C1 C 0.34429(18) -0.03299(19) 0.13732(13)
C2 C 0.20510(18) -0.08159(18) 0.15104(13)
H15 H 0.2175 -0.1529 0.2040
C3 C 0.13058(18) 0.04249(19) 0.18397(13)
H16 H 0.1916 0.0944 0.2370
C4 C 0.01168(19) -0.01369(18) 0.22357(14)
Na1B Na -0.44926(8) -0.17337(8) 0.01033(6)
Na2B Na -0.23115(7) 0.16718(8) 0.06812(5)
Na3B Na -0.14634(8) -0.48937(8) 0.03046(6)
O1B O -0.12480(12) 0.13706(12) -0.06545(9)
O2B O -0.09004(13) -0.12787(13) -0.10097(9)
O3B O -0.37191(13) 0.03678(14) -0.05332(9)
O4B O -0.42516(13) -0.00673(13) -0.21463(9)
O5B O 0.10280(14) 0.00645(14) -0.16998(12)
O6B O -0.03550(14) 0.06585(15) -0.30878(10)
O7B O -0.59351(14) -0.19093(14) -0.15025(10)
H1B H -0.568(2) -0.2640(13) -0.1693(17)
H2B H -0.556(2) -0.1298(17) -0.1751(16)
O8B O -0.06324(14) 0.32421(14) 0.14486(12)
H3B H -0.011(2) 0.270(2) 0.1266(18)
H4B H -0.016(2) 0.375(2) 0.1852(15)
O9B O -0.27250(14) -0.29979(14) -0.05091(10)
H5B H -0.312(2) -0.333(2) -0.1034(11)
H6B H -0.2202(19) -0.244(2) -0.0679(16)
O10B O -0.06362(15) -0.60660(14) -0.09208(10)
H7B H -0.080(2) -0.591(2) -0.1521(8)
H8B H -0.082(3) -0.6890(12) -0.0867(16)
O11B O -0.31800(15) -0.17332(16) 0.16681(10)
H9B H -0.2509(17) -0.125(2) 0.1707(18)
H10B H -0.341(2) -0.169(3) 0.2202(11)
O12B O -0.28609(17) -0.45356(18) 0.14300(12)
H11B H -0.286(3) -0.3686(10) 0.150(2)
H12B H -0.318(3) -0.484(2) 0.1885(16)
O13B O -0.61055(17) -0.37495(16) 0.02267(12)
H13B H -0.595(3) -0.421(2) 0.0737(11)
H14B H -0.618(3) -0.432(2) -0.0226(13)
C1B C -0.34429(18) 0.03299(19) -0.13732(13)
C2B C -0.20510(18) 0.08159(18) -0.15104(13)
H15B H -0.2175 0.1529 -0.2040
C3B C -0.13058(18) -0.04249(19) -0.18397(13)
H16B H -0.1916 -0.0944 -0.2370
C4B C -0.01168(19) 0.01369(18) -0.22357(14)
Na1_2 Na -0.55074(8) 0.17337(8) -0.01033(6)
Na1B_2 Na 0.55074(8) -0.17337(8) 0.01033(6)
Na2_2 Na -0.76885(7) -0.16718(8) -0.06812(5)
Na2B_2 Na 0.76885(7) 0.16718(8) 0.06812(5)
Na3_2 Na -0.85366(8) -0.51063(8) -0.03046(6)
Na3_3 Na 0.14634(8) -0.51063(8) -0.03046(6)
Na3B_2 Na -0.14634(8) 0.51063(8) 0.03046(6)
Na3B_3 Na 0.85366(8) 0.51063(8) 0.03046(6)
O3_2 O -0.62809(13) -0.03678(14) 0.05332(9)
O3B_2 O 0.62809(13) 0.03678(14) -0.05332(9)
O7_2 O -0.40649(14) 0.19093(14) 0.15025(10)
O7B_2 O 0.40649(14) -0.19093(14) -0.15025(10)
O8_2 O 0.06324(14) 0.67579(14) -0.14486(12)
O8B_2 O -0.06324(14) -0.67579(14) 0.14486(12)
O10_2 O 0.06362(15) -0.39340(14) 0.09208(10)
O10B_2 O -0.06362(15) 0.39340(14) -0.09208(10)
O13_2 O -0.38945(17) -0.62505(16) -0.02267(12)
O13_3 O -0.38945(17) 0.37495(16) -0.02267(12)
O13B_2 O 0.38945(17) -0.37495(16) 0.02267(12)
O13B_3 O 0.38945(17) 0.62505(16) 0.02267(12)
loop_
_geom_bond_atom_site_label_1
_geom_bond_atom_site_label_2
_geom_bond_site_symmetry_1
_geom_bond_site_symmetry_2
Cu1 O1 1_555 1_555
Na1 O3 1_555 1_555
Na2 O1 1_555 1_555
Na3 O9 1_555 1_555
O1 C2 1_555 1_555
O2 Cu1 1_555 1_555
O3 Na2 1_555 1_555
O4 C1 1_555 1_555
O5 Cu1 1_555 1_555
O6 C4 1_555 1_555
O7 Na1 1_555 1_555
H1 O7 1_555 1_555
H2 O7 1_555 1_555
O8 Na2 1_555 1_555
H3 O8 1_555 1_555
H4 O8 1_555 1_555
O9 Na1 1_555 1_555
H5 O9 1_555 1_555
H6 O9 1_555 1_555
O10 Na3 1_555 1_555
H7 O10 1_555 1_555
H8 O10 1_555 1_555
O11 Na1 1_555 1_555
H9 O11 1_555 1_555
H10 O11 1_555 1_555
O12 Na3 1_555 1_555
H11 O12 1_555 1_555
H12 O12 1_555 1_555
O13 Na1 1_555 1_555
H13 O13 1_555 1_555
H14 O13 1_555 1_555
C1 O3 1_555 1_555
C2 C1 1_555 1_555
H15 C2 1_555 1_555
C3 O2 1_555 1_555
H16 C3 1_555 1_555
C4 O5 1_555 1_555
Na1B O3B 1_555 1_555
Na2B O5 1_555 1_555
Na3B O9B 1_555 1_555
O1B Cu1 1_555 1_555
O2B Cu1 1_555 1_555
O3B Na2B 1_555 1_555
O4B C1B 1_555 1_555
O5B Cu1 1_555 1_555
O6B C4B 1_555 1_555
O7B Na1B 1_555 1_555
H1B O7B 1_555 1_555
H2B O7B 1_555 1_555
O8B Na2B 1_555 1_555
H3B O8B 1_555 1_555
H4B O8B 1_555 1_555
O9B Na1B 1_555 1_555
H5B O9B 1_555 1_555
H6B O9B 1_555 1_555
O10B Na3B 1_555 1_555
H7B O10B 1_555 1_555
H8B O10B 1_555 1_555
O11B Na1B 1_555 1_555
H9B O11B 1_555 1_555
H10B O11B 1_555 1_555
O12B Na3B 1_555 1_555
H11B O12B 1_555 1_555
H12B O12B 1_555 1_555
O13B Na1B 1_555 1_555
H13B O13B 1_555 1_555
H14B O13B 1_555 1_555
C1B O3B 1_555 1_555
C2B O1B 1_555 1_555
H15B C2B 1_555 1_555
C3B O2B 1_555 1_555
H16B C3B 1_555 1_555
C4B O5B 1_555 1_555
Na1_2 O3B 1_555 1_555
Na1B_2 O3 1_555 1_555
Na2_2 O7B 1_555 1_555
Na2B_2 O7 1_555 1_555
Na3_2 O13B 1_555 1_555
Na3_3 O8 1_555 1_555
Na3B_2 O10 1_555 1_555
Na3B_3 O13 1_555 1_555
O3_2 Na1B 1_555 1_555
O3B_2 Na1 1_555 1_555
O7_2 Na2B 1_555 1_555
O7B_2 Na2 1_555 1_555
O8_2 Na3 1_555 1_555
O8B_2 Na3B 1_555 1_555
O10_2 Na3B 1_555 1_555
O10B_2 Na3 1_555 1_555
O13_2 Na3B 1_555 1_555
O13_3 Na2B 1_555 1_555
O13B_2 Na2 1_555 1_555
O13B_3 Na3 1_555 1_555
Na2 O5B 1_555 1_555
O13 Na2B_2 1_555 1_555
C2 C3 1_555 1_555
C3 C4 1_555 1_555
Na2B O1B 1_555 1_555
O8B Na3B_2 1_555 1_555
O10B Na3_3 1_555 1_555
O13B Na2_2 1_555 1_555
C1B C2B 1_555 1_555
C2B C3B 1_555 1_555
C3B C4B 1_555 1_555
Na1_2 O3_2 1_555 1_555
Na1_2 O7_2 1_555 1_555
Na1_2 O13_3 1_555 1_555
Na1B_2 O3B_2 1_555 1_555
Na1B_2 O7B_2 1_555 1_555
Na1B_2 O13B_2 1_555 1_555
Na2_2 O3_2 1_555 1_555
Na2B_2 O3B_2 1_555 1_555
Na3_3 O10_2 1_555 1_555
Na3_3 O13B_2 1_555 1_555
Na3B_2 O10B_2 1_555 1_555
Na3B_2 O13_3 1_555 1_555

#END
