
#######################################################################
#
#                 Cambridge Crystallographic Data Centre
#                                CCDC 
#
#######################################################################
#
# If this CIF has been generated from an entry in the Cambridge 
# Structural Database, then it will include bibliographic, chemical, 
# crystal, experimental, refinement or atomic coordinate data resulting 
# from the CCDC's data processing and validation procedures.
#
#######################################################################

data_BEPXEB
_symmetry_cell_setting           monoclinic
_symmetry_space_group_name_H-M   'C 2/c'
_symmetry_Int_Tables_number      15
_space_group_name_Hall           '-C 2yn'
loop_
_symmetry_equiv_pos_site_id
_symmetry_equiv_pos_as_xyz
1 x,y,z
2 -x,y,1/2-z
3 1/2+x,1/2+y,z
4 1/2-x,1/2+y,1/2-z
5 -x,-y,-z
6 x,-y,1/2+z
7 1/2-x,1/2-y,-z
8 1/2+x,1/2-y,1/2+z
_cell_length_a                   42.5453(5)
_cell_length_b                   15.8928(3)
_cell_length_c                   30.3631(5)
_cell_angle_alpha                90
_cell_angle_beta                 129.3139(9)
_cell_angle_gamma                90
_cell_volume                     15884.1
loop_
_atom_site_label
_atom_site_type_symbol
_atom_site_fract_x
_atom_site_fract_y
_atom_site_fract_z
Zn1 Zn -0.062510(15) 0.45807(3) 0.31846(2)
C1 C 0.01527(13) 0.4216(3) 0.3335(2)
C2 C 0.03836(15) 0.3524(3) 0.3357(2)
H1 H 0.0648 0.3558 0.3468
C3 C 0.01573(14) 0.2828(3) 0.3194(2)
H2 H 0.0227 0.2279 0.3158
C4 C -0.02167(14) 0.3075(3) 0.3081(2)
C5 C -0.05342(14) 0.2516(3) 0.2898(2)
C6 C -0.09077(14) 0.2752(3) 0.2762(2)
C7 C -0.12256(15) 0.2178(3) 0.2593(2)
H3 H -0.1222 0.1585 0.2558
C8 C -0.15330(14) 0.2641(3) 0.2493(2)
H4 H -0.1786 0.2436 0.2374
C9 C -0.14009(13) 0.3505(3) 0.26018(19)
C10 C -0.16312(13) 0.4194(3) 0.25539(19)
C11 C -0.15014(13) 0.5026(3) 0.26909(18)
C12 C -0.17412(15) 0.5729(3) 0.2635(2)
H5 H -0.2011 0.5700 0.2506
C13 C -0.15163(15) 0.6427(3) 0.2798(2)
H6 H -0.1597 0.6982 0.2803
C14 C -0.11245(14) 0.6174(3) 0.2966(2)
C15 C -0.07964(15) 0.6721(3) 0.3172(2)
C16 C -0.04230(13) 0.6484(3) 0.33238(18)
C17 C -0.01075(13) 0.7057(3) 0.34772(18)
H7 H -0.0110 0.7651 0.3514
C18 C 0.01937(15) 0.6601(3) 0.3560(2)
H8 H 0.0442 0.6812 0.3665
C19 C 0.00665(14) 0.5731(3) 0.34577(18)
C20 C 0.02847(13) 0.5048(3) 0.34638(19)
N1 N -0.02106(11) 0.3921(2) 0.31737(16)
N2 N -0.10195(11) 0.3558(2) 0.27680(17)
N3 N -0.11256(10) 0.5316(2) 0.28959(15)
N4 N -0.03075(11) 0.5675(2) 0.33259(15)
C21 C -0.04688(14) 0.1610(3) 0.2852(2)
C22 C -0.02613(16) 0.1105(3) 0.3333(2)
H9 H -0.0163 0.1341 0.3688
C23 C -0.01951(15) 0.0246(3) 0.3303(2)
C24 C -0.03438(16) -0.0088(4) 0.2784(3)
H10 H -0.0301 -0.0667 0.2759
C25 C -0.05528(17) 0.0403(4) 0.2302(3)
H11 H -0.0654 0.0164 0.1947
C26 C -0.06154(16) 0.1257(3) 0.2337(2)
H12 H -0.0759 0.1597 0.2004
C27 C 0.00360(17) -0.0280(4) 0.3826(3)
O1 O 0.01207(14) 0.0069(3) 0.42731(19)
O2 O 0.01447(12) -0.0996(2) 0.38229(18)
C28 C -0.20508(14) 0.3991(3) 0.2360(2)
C29 C -0.21082(14) 0.3989(3) 0.2759(2)
H13 H -0.1890 0.4138 0.3142
C30 C -0.24808(15) 0.3774(3) 0.2606(2)
C31 C -0.28011(15) 0.3558(4) 0.2038(2)
H14 H -0.3057 0.3405 0.1931
C32 C -0.27489(16) 0.3567(4) 0.1640(2)
H15 H -0.2967 0.3425 0.1255
C33 C -0.23724(16) 0.3785(4) 0.1802(2)
H16 H -0.2335 0.3792 0.1524
C34 C -0.25286(15) 0.3707(4) 0.3052(2)
O3 O -0.22135(10) 0.3894(3) 0.35607(14)
O4 O -0.28511(11) 0.3447(3) 0.29288(16)
C35 C -0.08624(14) 0.7635(3) 0.3203(2)
C36 C -0.06540(16) 0.8048(3) 0.3725(2)
H17 H -0.0458 0.7747 0.4066
C37 C -0.07263(17) 0.8895(3) 0.3759(2)
C38 C -0.10034(15) 0.9339(3) 0.3263(2)
H18 H -0.1055 0.9913 0.3283
C39 C -0.12069(14) 0.8956(3) 0.2738(2)
H19 H -0.1391 0.9269 0.2399
C40 C -0.11399(15) 0.8107(3) 0.2712(2)
H20 H -0.1286 0.7843 0.2351
C41 C -0.0503(2) 0.9313(4) 0.4319(2)
O5 O -0.06595(13) 0.9972(2) 0.43447(17)
O6 O -0.01616(12) 0.9007(3) 0.47574(16)
C42 C 0.06766(13) 0.5243(3) 0.3582(2)
C43 C 0.10193(13) 0.5527(3) 0.41098(19)
H21 H 0.1002 0.5637 0.4401
C44 C 0.13828(14) 0.5652(3) 0.4219(2)
C45 C 0.14102(15) 0.5476(4) 0.3798(2)
H22 H 0.1663 0.5548 0.3877
C46 C 0.10820(17) 0.5202(5) 0.3273(2)
H23 H 0.1107 0.5081 0.2990
C47 C 0.07076(17) 0.5101(4) 0.3154(2)
H24 H 0.0475 0.4936 0.2784
C48 C 0.17574(15) 0.5957(4) 0.4787(2)
O7 O 0.17298(9) 0.6033(2) 0.51847(14)
O8 O 0.20686(10) 0.6136(3) 0.48543(15)
N5 N -0.04353(11) 0.4274(3) 0.40095(16)
C49 C -0.05723(15) 0.4695(4) 0.4240(2)
H25 H -0.0748 0.5161 0.4039
C50 C -0.04665(18) 0.4474(4) 0.4768(2)
H26 H -0.0569 0.4785 0.4920
C51 C -0.02110(17) 0.3799(4) 0.5061(2)
H27 H -0.0135 0.3634 0.5418
C52 C -0.0069(2) 0.3372(4) 0.4828(3)
H28 H 0.0110 0.2907 0.5023
C53 C -0.01869(17) 0.3622(4) 0.4308(2)
H29 H -0.0087 0.3315 0.4151
Zn2 Zn 0.03637(3) -0.06002(5) 0.49334(3)
N6 N 0.24025(13) 0.7543(3) 0.58497(18)
C54 C 0.27405(16) 0.7952(4) 0.6285(2)
H30 H 0.2941 0.7646 0.6620
C55 C 0.2806(2) 0.8796(5) 0.6262(3)
H31 H 0.3048 0.9060 0.6578
C56 C 0.2526(2) 0.9240(5) 0.5789(3)
H32 H 0.2566 0.9819 0.5761
C57 C 0.2172(2) 0.8824(5) 0.5340(3)
H33 H 0.1966 0.9123 0.5003
C58 C 0.21246(18) 0.7994(4) 0.5386(3)
H34 H 0.1884 0.7721 0.5076
Zn3 Zn 0.228537(16) 0.63261(4) 0.58745(2)
N7 N 0.27139(13) 0.5478(3) 0.60674(18)
C59 C 0.27354(18) 0.4773(5) 0.6307(2)
H35 H 0.2554 0.4685 0.6385
C60 C 0.3020(2) 0.4140(5) 0.6454(3)
H36 H 0.3027 0.3627 0.6621
C61 C 0.3291(2) 0.4286(5) 0.6349(3)
H37 H 0.3488 0.3877 0.6444
C62 C 0.32634(19) 0.5038(5) 0.6103(3)
H38 H 0.3444 0.5161 0.6029
C63 C 0.29680(17) 0.5618(4) 0.5964(3)
H39 H 0.2948 0.6132 0.5788
N8 N 0.07173(14) -0.1641(3) 0.5223(2)
C64 C 0.08827(17) -0.1934(4) 0.5746(2)
H40 H 0.0809 -0.1674 0.5951
C65 C 0.11546(17) -0.2597(4) 0.5996(2)
H41 H 0.1265 -0.2789 0.6366
C66 C 0.12619(16) -0.2973(4) 0.5701(3)
H42 H 0.1450 -0.3426 0.5866
C67 C 0.10939(15) -0.2687(3) 0.5161(2)
H43 H 0.1164 -0.2943 0.4951
C68 C 0.08231(16) -0.2023(3) 0.4934(2)
H44 H 0.0707 -0.1827 0.4563
O3D O 0.22135(10) 0.6106(3) 0.64393(14)
O5D O 0.06595(13) 0.0028(2) 0.56553(17)
O6_2 O -0.01616(12) -0.0993(3) 0.47574(16)
Zn2_2 Zn 0.03637(3) 0.93998(5) 0.49334(3)
Zn2D Zn -0.03637(3) 1.06002(5) 0.50666(3)
Zn3D Zn -0.228537(16) 0.36739(4) 0.41255(2)
loop_
_geom_bond_atom_site_label_1
_geom_bond_atom_site_label_2
_geom_bond_site_symmetry_1
_geom_bond_site_symmetry_2
Zn1 N1 1_555 1_555
C1 C2 1_555 1_555
C2 H1 1_555 1_555
C3 C2 1_555 1_555
H2 C3 1_555 1_555
C4 C3 1_555 1_555
C5 C4 1_555 1_555
C6 C5 1_555 1_555
C7 C6 1_555 1_555
H3 C7 1_555 1_555
C8 C7 1_555 1_555
H4 C8 1_555 1_555
C9 C8 1_555 1_555
C10 C9 1_555 1_555
C11 C10 1_555 1_555
C12 C11 1_555 1_555
H5 C12 1_555 1_555
C13 C12 1_555 1_555
H6 C13 1_555 1_555
C14 C13 1_555 1_555
C15 C14 1_555 1_555
C16 C15 1_555 1_555
C17 C16 1_555 1_555
H7 C17 1_555 1_555
C18 C17 1_555 1_555
H8 C18 1_555 1_555
C19 C18 1_555 1_555
C20 C1 1_555 1_555
N1 C1 1_555 1_555
N2 Zn1 1_555 1_555
N3 Zn1 1_555 1_555
N4 Zn1 1_555 1_555
C21 C5 1_555 1_555
C22 C21 1_555 1_555
H9 C22 1_555 1_555
C23 C22 1_555 1_555
C24 C23 1_555 1_555
H10 C24 1_555 1_555
C25 C24 1_555 1_555
H11 C25 1_555 1_555
C26 C21 1_555 1_555
H12 C26 1_555 1_555
C27 C23 1_555 1_555
O1 C27 1_555 1_555
O2 C27 1_555 1_555
C28 C10 1_555 1_555
C29 C28 1_555 1_555
H13 C29 1_555 1_555
C30 C29 1_555 1_555
C31 C30 1_555 1_555
H14 C31 1_555 1_555
C32 C31 1_555 1_555
H15 C32 1_555 1_555
C33 C28 1_555 1_555
H16 C33 1_555 1_555
C34 C30 1_555 1_555
O3 C34 1_555 1_555
O4 C34 1_555 1_555
C35 C15 1_555 1_555
C36 C35 1_555 1_555
H17 C36 1_555 1_555
C37 C36 1_555 1_555
C38 C37 1_555 1_555
H18 C38 1_555 1_555
C39 C38 1_555 1_555
H19 C39 1_555 1_555
C40 C35 1_555 1_555
H20 C40 1_555 1_555
C41 C37 1_555 1_555
O5 C41 1_555 1_555
O6 C41 1_555 1_555
C42 C20 1_555 1_555
C43 C42 1_555 1_555
H21 C43 1_555 1_555
C44 C43 1_555 1_555
C45 C44 1_555 1_555
H22 C45 1_555 1_555
C46 C45 1_555 1_555
H23 C46 1_555 1_555
C47 C42 1_555 1_555
H24 C47 1_555 1_555
C48 C44 1_555 1_555
O7 C48 1_555 1_555
O8 C48 1_555 1_555
N5 Zn1 1_555 1_555
C49 N5 1_555 1_555
H25 C49 1_555 1_555
C50 C49 1_555 1_555
H26 C50 1_555 1_555
C51 C50 1_555 1_555
H27 C51 1_555 1_555
C52 C51 1_555 1_555
H28 C52 1_555 1_555
C53 N5 1_555 1_555
H29 C53 1_555 1_555
Zn2 O1 1_555 1_555
N6 C54 1_555 1_555
C54 H30 1_555 1_555
C55 C54 1_555 1_555
H31 C55 1_555 1_555
C56 C55 1_555 1_555
H32 C56 1_555 1_555
C57 C56 1_555 1_555
H33 C57 1_555 1_555
C58 N6 1_555 1_555
H34 C58 1_555 1_555
Zn3 O7 1_555 1_555
N7 Zn3 1_555 1_555
C59 N7 1_555 1_555
H35 C59 1_555 1_555
C60 C59 1_555 1_555
H36 C60 1_555 1_555
C61 C60 1_555 1_555
H37 C61 1_555 1_555
C62 C61 1_555 1_555
H38 C62 1_555 1_555
C63 N7 1_555 1_555
H39 C63 1_555 1_555
N8 Zn2 1_555 1_555
C64 N8 1_555 1_555
H40 C64 1_555 1_555
C65 C64 1_555 1_555
H41 C65 1_555 1_555
C66 C65 1_555 1_555
H42 C66 1_555 1_555
C67 C66 1_555 1_555
H43 C67 1_555 1_555
C68 N8 1_555 1_555
H44 C68 1_555 1_555
O3D Zn3 1_555 1_555
O5D Zn2 1_555 1_555
O6_2 Zn2 1_555 1_555
Zn2_2 O6 1_555 1_555
Zn2D O5 1_555 1_555
Zn3D O3 1_555 1_555
C4 N1 1_555 1_555
C6 N2 1_555 1_555
C9 N2 1_555 1_555
C11 N3 1_555 1_555
C14 N3 1_555 1_555
C16 N4 1_555 1_555
C19 C20 1_555 1_555
C19 N4 1_555 1_555
C25 C26 1_555 1_555
C32 C33 1_555 1_555
C39 C40 1_555 1_555
C46 C47 1_555 1_555
C52 C53 1_555 1_555
N6 Zn3 1_555 1_555
C57 C58 1_555 1_555
C62 C63 1_555 1_555
C67 C68 1_555 1_555

#END
