
#######################################################################
#
#                 Cambridge Crystallographic Data Centre
#                                CCDC 
#
#######################################################################
#
# If this CIF has been generated from an entry in the Cambridge 
# Structural Database, then it will include bibliographic, chemical, 
# crystal, experimental, refinement or atomic coordinate data resulting 
# from the CCDC's data processing and validation procedures.
#
#######################################################################

data_BEPZIG
_symmetry_cell_setting           monoclinic
_symmetry_space_group_name_H-M   'P 21/c'
_symmetry_Int_Tables_number      14
_space_group_name_Hall           '-P 2ybc'
loop_
_symmetry_equiv_pos_site_id
_symmetry_equiv_pos_as_xyz
1 x,y,z
2 x,1/2-y,1/2+z
3 -x,-y,-z
4 -x,1/2+y,1/2-z
_cell_length_a                   15.0687(9)
_cell_length_b                   23.3079(14)
_cell_length_c                   13.4082(8)
_cell_angle_alpha                90
_cell_angle_beta                 116.0440(10)
_cell_angle_gamma                90
_cell_volume                     4231.04
loop_
_atom_site_label
_atom_site_type_symbol
_atom_site_fract_x
_atom_site_fract_y
_atom_site_fract_z
Pb1 Pb -0.63222(4) -0.24582(2) 0.30189(4)
Pb2 Pb -0.39112(3) -0.06717(2) 0.21460(4)
Pb3 Pb -0.40805(3) -0.06714(2) 0.72498(4)
S1 S -0.5196(3) -0.16843(19) 0.2038(4)
S2 S -0.5132(3) -0.43990(17) 0.4347(3)
S3 S -0.5288(3) -0.12362(17) 0.4802(3)
B1 B -0.8991(10) -0.2510(6) 0.1397(10)
H1 H -0.9724 -0.2525 0.0944
B2 B -0.1302(10) -0.0883(5) 0.3509(11)
H2 H -0.0572 -0.0948 0.3885
B3 B -0.1480(12) -0.0818(6) 0.8476(12)
H3 H -0.0745 -0.0858 0.8812
C1 C -0.5216(10) -0.2047(6) 0.1026(12)
C2 C -0.5267(9) -0.3824(6) 0.3574(12)
C3 C -0.5158(9) -0.0735(5) 0.4013(11)
C4 C -0.9245(10) -0.3089(5) 0.2892(10)
H4 H -0.9946 -0.3087 0.2531
C5 C -0.8679(10) -0.3357(6) 0.3893(10)
H5 H -0.8897 -0.3579 0.4338
C6 C -0.7721(10) -0.3226(5) 0.4092(9)
H6 H -0.7151 -0.3346 0.4729
C7 C -0.8891(11) -0.3062(5) -0.0239(10)
H7 H -0.9580 -0.3079 -0.0711
C8 C -0.8150(12) -0.3291(6) -0.0458(11)
H8 H -0.8217 -0.3489 -0.1106
C9 C -0.7311(12) -0.3171(5) 0.0449(11)
H9 H -0.6675 -0.3284 0.0540
C10 C -0.9204(9) -0.1401(5) 0.1260(9)
H10 H -0.9905 -0.1395 0.0875
C11 C -0.8603(9) -0.0935(5) 0.1542(10)
H11 H -0.8794 -0.0544 0.1390
C12 C -0.7625(10) -0.1155(5) 0.2114(10)
H12 H -0.7037 -0.0933 0.2434
C13 C -0.0862(9) 0.0210(5) 0.3698(9)
H13 H -0.0164 0.0170 0.4035
C14 C -0.1376(10) 0.0721(5) 0.3453(10)
H14 H -0.1113 0.1099 0.3584
C15 C -0.2382(9) 0.0557(5) 0.2964(10)
H15 H -0.2928 0.0813 0.2695
C16 C -0.1258(9) -0.1502(5) 0.1930(10)
H16 H -0.0565 -0.1564 0.2252
C17 C -0.1956(11) -0.1731(5) 0.0925(10)
H17 H -0.1840 -0.1979 0.0433
C18 C -0.2855(10) -0.1512(5) 0.0808(10)
H18 H -0.3472 -0.1587 0.0193
C19 C -0.1327(9) -0.1423(5) 0.5178(9)
H19 H -0.0635 -0.1475 0.5591
C20 C -0.2032(11) -0.1625(5) 0.5480(10)
H20 H -0.1934 -0.1841 0.6121
C21 C -0.2929(10) -0.1439(5) 0.4628(10)
H21 H -0.3560 -0.1510 0.4599
C22 C -0.1297(10) -0.0288(5) 0.6894(10)
H22 H -0.0603 -0.0338 0.7175
C23 C -0.1886(11) 0.0005(5) 0.5943(11)
H23 H -0.1684 0.0213 0.5467
C24 C -0.2862(11) -0.0071(5) 0.5828(11)
H24 H -0.3449 0.0068 0.5233
C25 C -0.1215(10) -0.0250(5) 1.0265(10)
H25 H -0.0521 -0.0301 1.0660
C26 C -0.1785(11) 0.0058(6) 1.0638(11)
H26 H -0.1576 0.0265 1.1313
C27 C -0.2759(11) -0.0005(6) 0.9786(11)
H27 H -0.3337 0.0149 0.9798
C28 C -0.1532(10) -0.1943(5) 0.8449(10)
H28 H -0.0843 -0.2012 0.8740
C29 C -0.2246(12) -0.2346(5) 0.8141(11)
H29 H -0.2158 -0.2750 0.8180
C30 C -0.3137(11) -0.2051(6) 0.7756(11)
H30 H -0.3769 -0.2226 0.7495
N1 N -0.5245(10) -0.2336(6) 0.0291(11)
N2 N -0.5325(8) -0.3468(5) 0.3002(9)
N3 N -0.5063(8) -0.0413(5) 0.3432(9)
N4 N -0.7702(8) -0.2909(4) 0.3276(8)
N5 N -0.8681(7) -0.2840(4) 0.2515(8)
N6 N -0.7466(8) -0.2883(5) 0.1197(9)
N7 N -0.8456(7) -0.2810(4) 0.0773(8)
N8 N -0.7676(7) -0.1725(4) 0.2123(8)
N9 N -0.8628(7) -0.1878(4) 0.1626(7)
N10 N -0.2443(7) -0.0017(4) 0.2939(8)
N11 N -0.1517(7) -0.0223(4) 0.3378(8)
N12 N -0.2738(7) -0.1189(4) 0.1666(7)
N13 N -0.1746(7) -0.1179(4) 0.2358(8)
N14 N -0.2773(7) -0.1150(4) 0.3872(8)
N15 N -0.1770(7) -0.1142(4) 0.4210(7)
N16 N -0.2810(8) -0.0375(4) 0.6715(8)
N17 N -0.1851(7) -0.0493(4) 0.7363(7)
N18 N -0.2732(8) -0.0314(4) 0.8970(8)
N19 N -0.1783(7) -0.0468(4) 0.9262(8)
N20 N -0.2973(8) -0.1481(4) 0.7806(9)
N21 N -0.1970(8) -0.1423(4) 0.8272(8)
Pb1A Pb -0.63222(4) -0.25418(2) -0.19811(4)
N1A N -0.5245(10) -0.2664(6) 0.5291(11)
Pb3B Pb -0.59195(3) 0.06714(2) 0.27502(4)
N3B N -0.4937(8) 0.0413(5) 0.6568(9)
loop_
_geom_bond_atom_site_label_1
_geom_bond_atom_site_label_2
_geom_bond_site_symmetry_1
_geom_bond_site_symmetry_2
Pb1 S1 1_555 1_555
Pb2 S1 1_555 1_555
Pb3 S3 1_555 1_555
S1 C1 1_555 1_555
S2 C2 1_555 1_555
S3 C3 1_555 1_555
B1 H1 1_555 1_555
B2 H2 1_555 1_555
B3 H3 1_555 1_555
C1 N1 1_555 1_555
C2 N2 1_555 1_555
C3 N3 1_555 1_555
C4 H4 1_555 1_555
C5 C4 1_555 1_555
H5 C5 1_555 1_555
C6 C5 1_555 1_555
H6 C6 1_555 1_555
C7 H7 1_555 1_555
C8 C7 1_555 1_555
H8 C8 1_555 1_555
C9 C8 1_555 1_555
H9 C9 1_555 1_555
C10 H10 1_555 1_555
C11 C10 1_555 1_555
H11 C11 1_555 1_555
C12 C11 1_555 1_555
H12 C12 1_555 1_555
C13 H13 1_555 1_555
C14 C13 1_555 1_555
H14 C14 1_555 1_555
C15 C14 1_555 1_555
H15 C15 1_555 1_555
C16 H16 1_555 1_555
C17 C16 1_555 1_555
H17 C17 1_555 1_555
C18 C17 1_555 1_555
H18 C18 1_555 1_555
C19 H19 1_555 1_555
C20 C19 1_555 1_555
H20 C20 1_555 1_555
C21 C20 1_555 1_555
H21 C21 1_555 1_555
C22 H22 1_555 1_555
C23 C22 1_555 1_555
H23 C23 1_555 1_555
C24 C23 1_555 1_555
H24 C24 1_555 1_555
C25 H25 1_555 1_555
C26 C25 1_555 1_555
H26 C26 1_555 1_555
C27 C26 1_555 1_555
H27 C27 1_555 1_555
C28 H28 1_555 1_555
C29 C28 1_555 1_555
H29 C29 1_555 1_555
C30 C29 1_555 1_555
H30 C30 1_555 1_555
N1 Pb1A 1_555 1_555
N2 Pb1 1_555 1_555
N3 Pb2 1_555 1_555
N4 Pb1 1_555 1_555
N5 B1 1_555 1_555
N6 Pb1 1_555 1_555
N7 B1 1_555 1_555
N8 Pb1 1_555 1_555
N9 B1 1_555 1_555
N10 Pb2 1_555 1_555
N11 B2 1_555 1_555
N12 Pb2 1_555 1_555
N13 B2 1_555 1_555
N14 Pb2 1_555 1_555
N15 B2 1_555 1_555
N16 Pb3 1_555 1_555
N17 B3 1_555 1_555
N18 Pb3 1_555 1_555
N19 B3 1_555 1_555
N20 Pb3 1_555 1_555
N21 B3 1_555 1_555
N1A Pb1 1_555 1_555
Pb3B N3 1_555 1_555
N3B Pb3 1_555 1_555
C4 N5 1_555 1_555
C6 N4 1_555 1_555
C7 N7 1_555 1_555
C9 N6 1_555 1_555
C10 N9 1_555 1_555
C12 N8 1_555 1_555
C13 N11 1_555 1_555
C15 N10 1_555 1_555
C16 N13 1_555 1_555
C18 N12 1_555 1_555
C19 N15 1_555 1_555
C21 N14 1_555 1_555
C22 N17 1_555 1_555
C24 N16 1_555 1_555
C25 N19 1_555 1_555
C27 N18 1_555 1_555
C28 N21 1_555 1_555
C30 N20 1_555 1_555
N4 N5 1_555 1_555
N6 N7 1_555 1_555
N8 N9 1_555 1_555
N10 N11 1_555 1_555
N12 N13 1_555 1_555
N14 N15 1_555 1_555
N16 N17 1_555 1_555
N18 N19 1_555 1_555
N20 N21 1_555 1_555

#END
