
#######################################################################
#
#                 Cambridge Crystallographic Data Centre
#                                CCDC 
#
#######################################################################
#
# If this CIF has been generated from an entry in the Cambridge 
# Structural Database, then it will include bibliographic, chemical, 
# crystal, experimental, refinement or atomic coordinate data resulting 
# from the CCDC's data processing and validation procedures.
#
#######################################################################

data_BEQBUW
_symmetry_cell_setting           triclinic
_symmetry_space_group_name_H-M   'P -1'
_symmetry_Int_Tables_number      2
_space_group_name_Hall           '-P 1'
loop_
_symmetry_equiv_pos_site_id
_symmetry_equiv_pos_as_xyz
1 x,y,z
2 -x,-y,-z
_cell_length_a                   7.679(2)
_cell_length_b                   8.747(2)
_cell_length_c                   15.342(4)
_cell_angle_alpha                97.427(3)
_cell_angle_beta                 97.273(3)
_cell_angle_gamma                106.380(3)
_cell_volume                     965.869
loop_
_atom_site_label
_atom_site_type_symbol
_atom_site_fract_x
_atom_site_fract_y
_atom_site_fract_z
Zn1 Zn 0.95620(4) 0.72269(4) 0.681843(19)
C1 C 0.6626(4) 0.8216(4) 0.75878(19)
H1 H 0.6417 0.7204 0.7756
C2 C 0.5491(4) 0.9119(4) 0.78006(18)
H2 H 0.4523 0.8709 0.8097
C3 C 0.5789(3) 1.0632(3) 0.75751(16)
C4 C 0.7250(3) 1.1176(4) 0.71232(17)
H3 H 0.7497 1.2191 0.6957
C5 C 0.8323(4) 1.0200(4) 0.69258(18)
H4 H 0.9296 1.0580 0.6626
C6 C 0.4671(3) 1.1747(3) 0.77987(17)
C7 C 0.2444(3) 1.2401(3) 0.86429(18)
H5 H 0.1418 1.1821 0.8901
H6 H 0.1957 1.2849 0.8155
C8 C 0.3731(3) 1.3755(3) 0.93400(17)
C9 C 0.4374(3) 1.5331(3) 0.92004(17)
C10 C 0.4389(4) 1.3475(3) 1.01669(18)
C11 C 1.2271(3) 0.7928(4) 0.58215(17)
C12 C 1.3668(3) 0.9000(3) 0.53843(16)
C13 C 1.5021(3) 0.8436(3) 0.50598(17)
H7 H 1.5042 0.7391 0.5102
C14 C 1.3655(3) 1.0570(3) 0.53289(17)
H8 H 1.2759 1.0956 0.5552
C15 C 1.0466(4) 0.6812(4) 0.85426(18)
C16 C 1.0218(3) 0.5883(3) 0.93049(17)
C17 C 0.9056(4) 0.4297(3) 0.91526(17)
H9 H 0.8420 0.3817 0.8581
C18 C 1.1159(4) 0.6574(4) 1.01542(18)
H10 H 1.1943 0.7630 1.0263
F1 F 0.3781(2) 1.5725(2) 0.84155(10)
F2 F 0.3829(3) 1.1962(2) 1.03487(11)
N1 N 0.8027(3) 0.8732(3) 0.71458(14)
N2 N 0.3388(3) 1.1287(3) 0.83017(14)
H11 H 0.3117 1.0324 0.8425
O1 O 0.5032(3) 1.3075(3) 0.75656(14)
O2 O 1.1440(3) 0.8646(2) 0.63228(13)
O3 O 1.1973(3) 0.6436(3) 0.56930(15)
O4 O 0.9650(3) 0.6020(3) 0.77709(13)
O5 O 1.1422(3) 0.8242(3) 0.86900(14)
O6 O 0.7801(3) 0.5612(3) 0.58462(14)
H12 H 0.6754 0.5318 0.5959
H13 H 0.8122 0.5091 0.5447
C1A C 0.3374(4) 2.1784(4) 1.24122(19)
H1A H 0.3583 2.2796 1.2244
C2A C 0.4509(4) 2.0881(4) 1.21994(18)
H2A H 0.5477 2.1291 1.1903
C3A C 0.4211(3) 1.9368(3) 1.24249(16)
C4A C 0.2750(3) 1.8824(4) 1.28768(17)
H3A H 0.2503 1.7809 1.3043
C5A C 0.1677(4) 1.9800(4) 1.30742(18)
H4A H 0.0704 1.9420 1.3374
C6A C 0.5329(3) 1.8253(3) 1.22013(17)
C7A C 0.7556(3) 1.7599(3) 1.13571(18)
H5A H 0.8582 1.8179 1.1099
H6A H 0.8043 1.7151 1.1845
C8A C 0.6269(3) 1.6245(3) 1.06600(17)
C9A C 0.5626(3) 1.4669(3) 1.07996(17)
C10A C 0.5611(4) 1.6525(3) 0.98331(18)
F1A F 0.6219(2) 1.4275(2) 1.15845(10)
F2A F 0.6171(3) 1.8038(2) 0.96513(11)
N1A N 0.1973(3) 2.1268(3) 1.28542(14)
N2A N 0.6612(3) 1.8713(3) 1.16983(14)
H11A H 0.6883 1.9676 1.1575
O1A O 0.4968(3) 1.6925(3) 1.24344(14)
C11A C 1.7729(3) 1.2072(4) 0.41785(17)
C12A C 1.6332(3) 1.1000(3) 0.46157(16)
C13A C 1.4979(3) 1.1564(3) 0.49402(17)
H7A H 1.4958 1.2609 0.4898
C14A C 1.6345(3) 0.9430(3) 0.46711(17)
H8A H 1.7241 0.9044 0.4448
O2A O 1.8560(3) 1.1354(2) 0.36772(13)
O3A O 1.8027(3) 1.3564(3) 0.43070(15)
C15A C 0.9534(4) 0.3188(4) 1.14574(18)
C16A C 0.9782(3) 0.4117(3) 1.06951(17)
C17A C 1.0944(4) 0.5703(3) 1.08474(17)
H9A H 1.1580 0.6183 1.1419
C18A C 0.8841(4) 0.3426(4) 0.98458(18)
H10A H 0.8057 0.2370 0.9737
O4A O 1.0350(3) 0.3980(3) 1.22291(13)
O5A O 0.8578(3) 0.1758(3) 1.13100(14)
Zn1A Zn 0.04380(4) 2.27731(4) 1.318157(19)
O6A O 0.2199(3) 2.4388(3) 1.41538(14)
H12A H 0.3246 2.4682 1.4041
H13A H 0.1878 2.4909 1.4553
Zn1A_2 Zn 1.04380(4) 0.27731(4) 1.318157(19)
Zn1A_3 Zn 2.04380(4) 1.27731(4) 0.318157(19)
O2A_2 O -0.1440(3) 2.1354(2) 1.36772(13)
O4A_2 O 0.0350(3) 2.3980(3) 1.22291(13)
O7 O 0.4434(3) 0.4711(3) 0.62111(15)
H14 H 0.3700 0.5224 0.6135
H15 H 0.4473 0.4230 0.6635
loop_
_geom_bond_atom_site_label_1
_geom_bond_atom_site_label_2
_geom_bond_site_symmetry_1
_geom_bond_site_symmetry_2
Zn1 N1 1_555 1_555
C1 H1 1_555 1_555
C2 C1 1_555 1_555
H2 C2 1_555 1_555
C3 C2 1_555 1_555
C4 C3 1_555 1_555
H3 C4 1_555 1_555
C5 C4 1_555 1_555
H4 C5 1_555 1_555
C6 C3 1_555 1_555
C7 H5 1_555 1_555
H6 C7 1_555 1_555
C8 C7 1_555 1_555
C9 C8 1_555 1_555
C10 C8 1_555 1_555
C11 C12 1_555 1_555
C12 C13 1_555 1_555
C13 H7 1_555 1_555
C14 C12 1_555 1_555
H8 C14 1_555 1_555
C15 C16 1_555 1_555
C16 C17 1_555 1_555
C17 H9 1_555 1_555
C18 C16 1_555 1_555
H10 C18 1_555 1_555
F1 C9 1_555 1_555
F2 C10 1_555 1_555
N1 C1 1_555 1_555
N2 C6 1_555 1_555
H11 N2 1_555 1_555
O1 C6 1_555 1_555
O2 Zn1 1_555 1_555
O3 C11 1_555 1_555
O4 Zn1 1_555 1_555
O5 C15 1_555 1_555
O6 Zn1 1_555 1_555
H12 O6 1_555 1_555
H13 O6 1_555 1_555
O7 H14 1_555 1_555
H15 O7 1_555 1_555
C1A H1A 1_555 1_555
C2A C1A 1_555 1_555
H2A C2A 1_555 1_555
C3A C2A 1_555 1_555
C4A C3A 1_555 1_555
H3A C4A 1_555 1_555
C5A C4A 1_555 1_555
H4A C5A 1_555 1_555
C6A C3A 1_555 1_555
C7A H5A 1_555 1_555
H6A C7A 1_555 1_555
C8A C7A 1_555 1_555
C9A C10 1_555 1_555
C10A C9 1_555 1_555
F1A C9A 1_555 1_555
F2A C10A 1_555 1_555
N1A C1A 1_555 1_555
N2A C6A 1_555 1_555
H11A N2A 1_555 1_555
O1A C6A 1_555 1_555
C11A C12A 1_555 1_555
C12A C13A 1_555 1_555
C13A C14 1_555 1_555
H7A C13A 1_555 1_555
C14A C13 1_555 1_555
H8A C14A 1_555 1_555
O2A C11A 1_555 1_555
O3A C11A 1_555 1_555
C15A C16A 1_555 1_555
C16A C17A 1_555 1_555
C17A C18 1_555 1_555
H9A C17A 1_555 1_555
C18A C17 1_555 1_555
H10A C18A 1_555 1_555
O4A C15A 1_555 1_555
O5A C15A 1_555 1_555
Zn1A N1A 1_555 1_555
O6A Zn1A 1_555 1_555
H12A O6A 1_555 1_555
H13A O6A 1_555 1_555
Zn1A_2 O4A 1_555 1_555
Zn1A_3 O2A 1_555 1_555
O2A_2 Zn1A 1_555 1_555
O4A_2 Zn1A 1_555 1_555
C5 N1 1_555 1_555
C7 N2 1_555 1_555
C11 O2 1_555 1_555
C15 O4 1_555 1_555
C5A N1A 1_555 1_555
C7A N2A 1_555 1_555
C8A C9A 1_555 1_555
C8A C10A 1_555 1_555
C12A C14A 1_555 1_555
C16A C18A 1_555 1_555

#END
