
#######################################################################
#
#                 Cambridge Crystallographic Data Centre
#                                CCDC 
#
#######################################################################
#
# If this CIF has been generated from an entry in the Cambridge 
# Structural Database, then it will include bibliographic, chemical, 
# crystal, experimental, refinement or atomic coordinate data resulting 
# from the CCDC's data processing and validation procedures.
#
#######################################################################

data_BEQJIS
_symmetry_cell_setting           orthorhombic
_symmetry_space_group_name_H-M   'P b c n'
_symmetry_Int_Tables_number      60
_space_group_name_Hall           '-P 2n 2ab'
loop_
_symmetry_equiv_pos_site_id
_symmetry_equiv_pos_as_xyz
1 x,y,z
2 1/2-x,1/2-y,1/2+z
3 1/2+x,1/2-y,-z
4 -x,y,1/2-z
5 -x,-y,-z
6 1/2+x,1/2+y,1/2-z
7 1/2-x,1/2+y,z
8 x,-y,1/2+z
_cell_length_a                   16.2118(4)
_cell_length_b                   16.2381(3)
_cell_length_c                   22.4507(5)
_cell_angle_alpha                90
_cell_angle_beta                 90
_cell_angle_gamma                90
_cell_volume                     5910.12
loop_
_atom_site_label
_atom_site_type_symbol
_atom_site_fract_x
_atom_site_fract_y
_atom_site_fract_z
Cu1 Cu -0.01340(2) 0.319403(19) 0.121284(17)
Cu2 Cu 0.15726(2) 0.192760(19) 0.234438(15)
C1 C -0.2021(2) 0.33271(18) 0.11372(14)
H1 H -0.2121 0.2865 0.1371
C2 C -0.1387(2) 0.42323(18) 0.06575(14)
H2 H -0.0978 0.4550 0.0480
C3 C -0.26280(18) 0.50423(18) 0.03182(13)
H3 H -0.2914 0.5376 0.0611
H4 H -0.3038 0.4805 0.0054
C4 C -0.2053(2) 0.55808(18) -0.00378(15)
H5 H -0.1726 0.5237 -0.0301
H6 H -0.1677 0.5859 0.0232
C5 C -0.2512(2) 0.62235(19) -0.04077(14)
H7 H -0.2128 0.6476 -0.0684
H8 H -0.2935 0.5950 -0.0640
C6 C -0.2909(2) 0.68917(19) -0.00359(14)
H9 H -0.2482 0.7201 0.0168
H10 H -0.3257 0.6638 0.0265
C7 C -0.3430(2) 0.74843(18) -0.04079(14)
H11 H -0.3857 0.7177 -0.0613
H12 H -0.3698 0.7877 -0.0146
C8 C -0.2146(2) 0.88156(19) -0.11907(17)
H13 H -0.1825 0.9286 -0.1234
C9 C -0.27225(19) 0.76988(18) -0.13810(14)
H14 H -0.2905 0.7220 -0.1566
C10 C 0.11054(18) 0.43352(16) 0.20422(14)
C11 C 0.05971(19) 0.47295(17) 0.16142(14)
C12 C 0.05796(19) 0.56056(16) 0.16539(14)
C13 C 0.09598(18) 0.60487(16) 0.20933(14)
H15 H 0.0909 0.6619 0.2110
C14 C 0.14236(19) 0.56261(16) 0.25132(13)
C15 C 0.14967(18) 0.47854(16) 0.24830(13)
H16 H 0.1816 0.4512 0.2765
C16 C 0.1230(2) 0.34274(16) 0.20383(14)
C17 C 0.06953(18) 0.07694(16) 0.33516(13)
C18 C 0.10237(18) 0.03889(16) 0.28252(14)
C19 C 0.09874(18) -0.04950(16) 0.28187(13)
C20 C 0.07233(19) -0.09497(17) 0.32897(15)
H17 H 0.0739 -0.1522 0.3277
C21 C 0.04335(19) -0.05474(17) 0.37847(15)
C22 C 0.04069(19) 0.02983(17) 0.38152(14)
H18 H 0.0192 0.0553 0.4152
C23 C 0.06443(19) 0.16827(17) 0.34201(15)
N1 N -0.12539(16) 0.35673(14) 0.09820(11)
N2 N -0.26141(17) 0.37970(17) 0.09314(12)
N3 N -0.21841(17) 0.43795(14) 0.06220(11)
N4 N -0.29323(16) 0.79303(15) -0.08454(12)
N5 N -0.2563(2) 0.86605(17) -0.07112(13)
N6 N -0.22161(15) 0.82388(14) -0.16229(10)
N7 N 0.01054(18) 0.60642(15) 0.12083(16)
N8 N 0.18628(17) 0.60795(16) 0.29691(13)
N9 N 0.12416(17) -0.09537(15) 0.22855(13)
N10 N 0.0166(2) -0.10330(19) 0.42950(16)
O1 O 0.18087(12) 0.31336(10) 0.23505(8)
O2 O 0.07770(13) 0.29539(11) 0.17323(9)
O3 O 0.01753(13) 0.43508(11) 0.12216(10)
O4 O 0.01326(18) 0.58475(14) 0.06911(13)
O5 O -0.02644(19) 0.66657(17) 0.13711(13)
O6 O 0.19529(14) 0.68261(13) 0.29047(9)
O7 O 0.21377(16) 0.56984(14) 0.33906(11)
O8 O 0.03076(12) 0.19802(11) 0.38741(9)
O9 O 0.09271(13) 0.21613(11) 0.30236(9)
O10 O 0.13206(14) 0.07841(10) 0.23828(9)
O11 O 0.16658(19) -0.06375(14) 0.19096(11)
O12 O 0.10014(16) -0.16618(13) 0.22398(11)
O13 O 0.03376(18) -0.17554(16) 0.43150(12)
O14 O -0.0267(3) -0.06952(17) 0.46662(15)
O15 O 0.04360(16) 0.30248(14) 0.02791(9)
H19 H 0.052(2) 0.2540(11) 0.0172(14)
H20 H 0.041(2) 0.3356(15) -0.0008(12)
Cu1C Cu 0.01340(2) 0.319403(19) 0.378716(17)
Cu2D Cu -0.15726(2) 0.807240(19) -0.234438(15)
Cu2F Cu 0.34274(2) 0.692760(19) 0.234438(15)
N6D N 0.22161(15) 0.17612(14) 0.16229(10)
O6F O 0.30471(14) 0.18261(13) 0.29047(9)
O8C O -0.03076(12) 0.19802(11) 0.11259(9)
O9C O -0.09271(13) 0.21613(11) 0.19764(9)
loop_
_geom_bond_atom_site_label_1
_geom_bond_atom_site_label_2
_geom_bond_site_symmetry_1
_geom_bond_site_symmetry_2
Cu1 N1 1_555 1_555
Cu2 O1 1_555 1_555
C1 H1 1_555 1_555
C2 H2 1_555 1_555
C3 H3 1_555 1_555
H4 C3 1_555 1_555
C4 C3 1_555 1_555
H5 C4 1_555 1_555
H6 C4 1_555 1_555
C5 C4 1_555 1_555
H7 C5 1_555 1_555
H8 C5 1_555 1_555
C6 C5 1_555 1_555
H9 C6 1_555 1_555
H10 C6 1_555 1_555
C7 C6 1_555 1_555
H11 C7 1_555 1_555
H12 C7 1_555 1_555
C8 H13 1_555 1_555
C9 H14 1_555 1_555
C10 C11 1_555 1_555
C11 C12 1_555 1_555
C12 C13 1_555 1_555
C13 H15 1_555 1_555
C14 C13 1_555 1_555
C15 C10 1_555 1_555
H16 C15 1_555 1_555
C16 C10 1_555 1_555
C17 C18 1_555 1_555
C18 C19 1_555 1_555
C19 C20 1_555 1_555
C20 H17 1_555 1_555
C21 C20 1_555 1_555
C22 C17 1_555 1_555
H18 C22 1_555 1_555
C23 C17 1_555 1_555
N1 C1 1_555 1_555
N2 C1 1_555 1_555
N3 C2 1_555 1_555
N4 C7 1_555 1_555
N5 C8 1_555 1_555
N6 C8 1_555 1_555
N7 C12 1_555 1_555
N8 C14 1_555 1_555
N9 C19 1_555 1_555
N10 C21 1_555 1_555
O1 C16 1_555 1_555
O2 Cu1 1_555 1_555
O3 Cu1 1_555 1_555
O4 N7 1_555 1_555
O5 N7 1_555 1_555
O6 N8 1_555 1_555
O7 N8 1_555 1_555
O8 C23 1_555 1_555
O9 Cu2 1_555 1_555
O10 Cu2 1_555 1_555
O11 N9 1_555 1_555
O12 N9 1_555 1_555
O13 N10 1_555 1_555
O14 N10 1_555 1_555
O15 Cu1 1_555 1_555
H19 O15 1_555 1_555
H20 O15 1_555 1_555
Cu1C O8 1_555 1_555
Cu2D N6 1_555 1_555
Cu2F O6 1_555 1_555
N6D Cu2 1_555 1_555
O6F Cu2 1_555 1_555
O8C Cu1 1_555 1_555
O9C Cu1 1_555 1_555
Cu2 O2 1_555 1_555
C2 N1 1_555 1_555
C3 N3 1_555 1_555
C9 N4 1_555 1_555
C9 N6 1_555 1_555
C11 O3 1_555 1_555
C14 C15 1_555 1_555
C16 O2 1_555 1_555
C18 O10 1_555 1_555
C21 C22 1_555 1_555
C23 O9 1_555 1_555
N2 N3 1_555 1_555
N4 N5 1_555 1_555
O9 Cu1C 1_555 1_555

#END
