
#######################################################################
#
#                 Cambridge Crystallographic Data Centre
#                                CCDC 
#
#######################################################################
#
# If this CIF has been generated from an entry in the Cambridge 
# Structural Database, then it will include bibliographic, chemical, 
# crystal, experimental, refinement or atomic coordinate data resulting 
# from the CCDC's data processing and validation procedures.
#
#######################################################################

data_BEQNIU
_symmetry_cell_setting           monoclinic
_symmetry_space_group_name_H-M   'C 2/c'
_symmetry_Int_Tables_number      15
_space_group_name_Hall           '-C 2yn'
loop_
_symmetry_equiv_pos_site_id
_symmetry_equiv_pos_as_xyz
1 x,y,z
2 1/2+x,1/2+y,z
3 -x,y,1/2-z
4 1/2-x,1/2+y,1/2-z
5 -x,-y,-z
6 1/2-x,1/2-y,-z
7 x,-y,1/2+z
8 1/2+x,1/2-y,1/2+z
_cell_length_a                   22.8378(14)
_cell_length_b                   12.0426(5)
_cell_length_c                   9.5835(4)
_cell_angle_alpha                90
_cell_angle_beta                 107.358(4)
_cell_angle_gamma                90
_cell_volume                     2515.68
loop_
_atom_site_label
_atom_site_type_symbol
_atom_site_fract_x
_atom_site_fract_y
_atom_site_fract_z
O1 O 0.56702(9) 0.46522(18) 0.9647(2)
O2 O 0.46523(9) 0.34097(17) 0.8086(2)
O3 O 0.58625(8) 0.42206(19) 1.1975(2)
O4 O 0.53501(9) 0.68217(17) 0.9027(2)
N1 N 0.83637(17) 0.2443(5) 1.4600(5)
N2 N 0.3868(4) -0.1176(8) 0.9039(11)
C1 C 0.60188(11) 0.4326(2) 1.0835(3)
C2 C 0.66728(12) 0.4057(2) 1.0934(3)
C3 C 0.70490(13) 0.3566(3) 1.2181(3)
C4 C 0.76599(14) 0.3358(3) 1.2287(4)
C5 C 0.80512(16) 0.2841(4) 1.3580(5)
C6 C 0.78943(16) 0.3633(4) 1.1153(5)
C7 C 0.75127(17) 0.4116(4) 0.9902(5)
C8 C 0.69056(15) 0.4332(4) 0.9791(4)
C9 C 0.5000 0.2893(3) 0.7500
C10 C 0.5000 0.1651(4) 0.7500
C11 C 0.46048(16) 0.1079(3) 0.8081(4)
C12 C 0.4600(2) -0.0074(3) 0.8063(5)
C13 C 0.4211(4) -0.0680(7) 0.8592(9)
C14 C 0.5000 -0.0653(5) 0.7500
Er1 Er 0.5000 0.521683(15) 0.7500
H1 H 0.4367(16) 0.146(3) 0.840(4)
H2 H 0.6888(14) 0.341(3) 1.290(4)
H3 H 0.5000 -0.142(8) 0.7500
H4 H 0.8300(17) 0.347(3) 1.114(4)
H5 H 0.6651(18) 0.461(3) 0.889(5)
H6 H 0.766(2) 0.434(4) 0.911(5)
H7 H 0.5258(17) 0.681(4) 0.988(3)
H8 H 0.5754(10) 0.699(4) 0.914(4)
Er1F Er 0.5000 0.478317(15) 1.2500
O2B O 0.53477(9) 0.34097(17) 0.6914(2)
C11B C 0.53952(16) 0.1079(3) 0.6919(4)
C12B C 0.5400(2) -0.0074(3) 0.6937(5)
O1B O 0.43298(9) 0.46522(18) 0.5353(2)
O3F O 0.58625(8) 0.57794(19) 0.6975(2)
O3D O 0.41375(8) 0.57794(19) 0.8025(2)
O4B O 0.46499(9) 0.68217(17) 0.5973(2)
O1F O 0.56702(9) 0.53478(18) 1.4647(2)
O1D O 0.43298(9) 0.53478(18) 1.0353(2)
O2F O 0.46523(9) 0.65903(17) 1.3086(2)
O2D O 0.53477(9) 0.65903(17) 1.1914(2)
O3B O 0.41375(8) 0.42206(19) 1.3025(2)
O4F O 0.53501(9) 0.31783(17) 1.4027(2)
O4D O 0.46499(9) 0.31783(17) 1.0973(2)
H1B H 0.5633(16) 0.146(3) 0.660(4)
C13B C 0.5789(4) -0.0680(7) 0.6408(9)
C1B C 0.39812(11) 0.4326(2) 0.4165(3)
C1F C 0.60188(11) 0.5674(2) 0.5835(3)
C1D C 0.39812(11) 0.5674(2) 0.9165(3)
H7B H 0.4742(17) 0.681(4) 0.512(3)
H8B H 0.4246(10) 0.699(4) 0.586(4)
C1F_2 C 0.60188(11) 0.5674(2) 1.5835(3)
C9F C 0.5000 0.7107(3) 1.2500
C1B_2 C 0.39812(11) 0.4326(2) 1.4165(3)
H7F H 0.5258(17) 0.319(4) 1.488(3)
H8F H 0.5754(10) 0.301(4) 1.414(4)
H7D H 0.4742(17) 0.319(4) 1.012(3)
H8D H 0.4246(10) 0.301(4) 1.086(4)
N2B N 0.6132(4) -0.1176(8) 0.5961(11)
O3B_2 O 0.41375(8) 0.42206(19) 0.3025(2)
C2B C 0.33272(12) 0.4057(2) 0.4066(3)
O1F_2 O 0.56702(9) 0.53478(18) 0.4647(2)
C2F C 0.66728(12) 0.5943(2) 0.5934(3)
C2D C 0.33272(12) 0.5943(2) 0.9066(3)
loop_
_geom_bond_atom_site_label_1
_geom_bond_atom_site_label_2
_geom_bond_site_symmetry_1
_geom_bond_site_symmetry_2
O1 C1 1_555 1_555
O2 C9 1_555 1_555
O3 C1 1_555 1_555
O4 Er1 1_555 1_555
N1 C5 1_555 1_555
N2 C13 1_555 1_555
C1 C2 1_555 1_555
C2 C3 1_555 1_555
C3 C4 1_555 1_555
C4 C5 1_555 1_555
C6 C4 1_555 1_555
C7 C6 1_555 1_555
C8 C2 1_555 1_555
C9 C10 1_555 1_555
C10 C11 1_555 1_555
C11 C12 1_555 1_555
C12 C13 1_555 1_555
C14 C12 1_555 1_555
Er1 O1 1_555 1_555
H1 C11 1_555 1_555
H2 C3 1_555 1_555
H3 C14 1_555 1_555
H4 C6 1_555 1_555
H5 C8 1_555 1_555
H6 C7 1_555 1_555
H7 O4 1_555 1_555
H8 O4 1_555 1_555
Er1F O3 1_555 1_555
O2B C9 1_555 1_555
C11B C10 1_555 1_555
C12B C14 1_555 1_555
O1B Er1 1_555 1_555
O3F Er1 1_555 1_555
O3D Er1 1_555 1_555
O4B Er1 1_555 1_555
O1F Er1F 1_555 1_555
O1D Er1F 1_555 1_555
O2F Er1F 1_555 1_555
O2D Er1F 1_555 1_555
O3B Er1F 1_555 1_555
O4F Er1F 1_555 1_555
O4D Er1F 1_555 1_555
H1B C11B 1_555 1_555
C13B C12B 1_555 1_555
C1B O1B 1_555 1_555
C1F O3F 1_555 1_555
C1D O3D 1_555 1_555
H7B O4B 1_555 1_555
H8B O4B 1_555 1_555
C1F_2 O1F 1_555 1_555
C9F O2F 1_555 1_555
C1B_2 O3B 1_555 1_555
H7F O4F 1_555 1_555
H8F O4F 1_555 1_555
H7D O4D 1_555 1_555
H8D O4D 1_555 1_555
N2B C13B 1_555 1_555
O3B_2 C1B 1_555 1_555
C2B C1B 1_555 1_555
O1F_2 C1F 1_555 1_555
C2F C1F 1_555 1_555
C2D C1D 1_555 1_555
O2 Er1 1_555 1_555
C7 C8 1_555 1_555
Er1 O2B 1_555 1_555
C11B C12B 1_555 1_555
O1D C1D 1_555 1_555
O2D C9F 1_555 1_555

#END
