
#######################################################################
#
#                 Cambridge Crystallographic Data Centre
#                                CCDC 
#
#######################################################################
#
# If this CIF has been generated from an entry in the Cambridge 
# Structural Database, then it will include bibliographic, chemical, 
# crystal, experimental, refinement or atomic coordinate data resulting 
# from the CCDC's data processing and validation procedures.
#
#######################################################################

data_BEQSAR
_symmetry_cell_setting           monoclinic
_symmetry_space_group_name_H-M   'P 21/c'
_symmetry_Int_Tables_number      14
_space_group_name_Hall           '-P 2ybc'
loop_
_symmetry_equiv_pos_site_id
_symmetry_equiv_pos_as_xyz
1 x,y,z
2 -x,1/2+y,1/2-z
3 -x,-y,-z
4 x,1/2-y,1/2+z
_cell_length_a                   20.998(4)
_cell_length_b                   6.823(1)
_cell_length_c                   20.001(4)
_cell_angle_alpha                90
_cell_angle_beta                 94.88(3)
_cell_angle_gamma                90
_cell_volume                     2855.14
loop_
_atom_site_label
_atom_site_type_symbol
_atom_site_fract_x
_atom_site_fract_y
_atom_site_fract_z
Cd1 Cd 0.13388(2) -0.13654(6) 0.37737(2)
S1 S 0.16656(7) -0.6375(2) 0.41054(7)
O1 O 0.1471(3) -0.4739(6) 0.3662(2)
O2 O 0.1249(2) -0.8057(6) 0.3942(3)
O3 O 0.2334(2) -0.6873(7) 0.4001(3)
O4 O 0.1638(2) -0.5806(7) 0.4812(2)
O5 O 0.2389(2) -0.0793(8) 0.3640(3)
O6 O 0.1449(2) -0.1977(8) 0.4903(2)
N1 N 0.1003(2) -0.1275(7) 0.2656(2)
N2 N 0.0241(2) -0.1495(7) 0.3676(2)
C1 C 0.1405(3) -0.1297(10) 0.2176(3)
H1 H 0.1842(3) -0.1283(10) 0.2301(3)
C2 C 0.1204(4) -0.1344(11) 0.1499(4)
H2 H 0.1494(4) -0.1333(11) 0.1173(4)
C3 C 0.0554(4) -0.1397(10) 0.1327(3)
H3 H 0.0401(4) -0.1420(10) 0.0877(3)
C4 C 0.0133(3) -0.1416(9) 0.1809(3)
H4 H -0.0304(3) -0.1471(9) 0.1690(3)
C5 C 0.0368(3) -0.1355(8) 0.2491(3)
C6 C -0.0054(3) -0.1387(8) 0.3042(3)
C7 C -0.0716(3) -0.1326(10) 0.2938(4)
H5 H -0.0915(3) -0.1235(10) 0.2505(4)
C8 C -0.1082(3) -0.1393(10) 0.3485(4)
H6 H -0.1526(3) -0.1370(10) 0.3423(4)
C9 C -0.0777(4) -0.1504(11) 0.4120(4)
H7 H -0.1013(4) -0.1545(11) 0.4493(4)
C10 C -0.0122(3) -0.1555(10) 0.4198(3)
H8 H 0.0079(3) -0.1630(10) 0.4630(3)
H17 H 0.2498(27) 0.0181(53) 0.3720(28)
H18 H 0.1480(48) -0.3039(51) 0.4874(51)
H19 H 0.1681(30) -0.1495(96) 0.5134(33)
O2_2 O 0.1249(2) 0.1943(6) 0.3942(3)
Cd1_2 Cd 0.13388(2) -1.13654(6) 0.37737(2)
Cd2 Cd 0.35411(2) -0.82675(6) 0.11508(2)
S2 S 0.30924(7) -0.3210(2) 0.12160(8)
O7 O 0.3538(2) -0.4870(6) 0.1328(2)
O8 O 0.2553(3) -0.3823(7) 0.0754(3)
O9 O 0.2870(2) -0.2579(7) 0.1855(2)
O10 O 0.3419(3) -0.1570(6) 0.0909(3)
O11 O 0.3292(3) -0.8860(9) 0.2220(3)
O12 O 0.2542(2) -0.7731(8) 0.0726(3)
N3 N 0.4611(2) -0.8523(7) 0.1499(3)
N4 N 0.4130(2) -0.7618(7) 0.0239(3)
C11 C 0.4826(3) -0.8967(12) 0.2133(4)
H9 H 0.4534(3) -0.9253(12) 0.2444(4)
C12 C 0.5474(4) -0.9026(13) 0.2334(5)
H10 H 0.5615(4) -0.9360(13) 0.2773(5)
C13 C 0.5903(4) -0.8575(13) 0.1883(6)
H11 H 0.6339(4) -0.8572(13) 0.2013(6)
C14 C 0.5681(3) -0.8130(11) 0.1235(5)
H12 H 0.5970(3) -0.7835(11) 0.0921(5)
C15 C 0.5032(3) -0.8111(9) 0.1045(4)
C16 C 0.4773(3) -0.7686(9) 0.0350(3)
C17 C 0.5165(4) -0.7406(10) -0.0168(4)
H13 H 0.5607(4) -0.7477(10) -0.0084(4)
C18 C 0.4893(5) -0.7008(11) -0.0805(4)
H14 H 0.5150(5) -0.6833(11) -0.1157(4)
C19 C 0.4240(5) -0.6886(11) -0.0921(4)
H15 H 0.4046(5) -0.6594(11) -0.1344(4)
C20 C 0.3875(4) -0.7210(10) -0.0376(3)
H16 H 0.3433(4) -0.7139(10) -0.0450(3)
H20 H 0.3145(33) -0.8183(87) 0.2430(37)
H21 H 0.3115(30) -0.9702(78) 0.2095(36)
H22 H 0.2475(41) -0.6720(62) 0.0626(41)
O10_2 O 0.3419(3) -1.1570(6) 0.0909(3)
Cd2_2 Cd 0.35411(2) 0.17325(6) 0.11508(2)
O13 O 0.3018(3) -0.3366(8) 0.4473(3)
H23 H 0.3044(35) -0.4387(51) 0.4415(36)
O14 O 0.2512(3) -0.5938(9) 0.2567(3)
loop_
_geom_bond_atom_site_label_1
_geom_bond_atom_site_label_2
_geom_bond_site_symmetry_1
_geom_bond_site_symmetry_2
Cd1 O1 1_555 1_555
S1 O1 1_555 1_555
O2 S1 1_555 1_555
O3 S1 1_555 1_555
O4 S1 1_555 1_555
O5 Cd1 1_555 1_555
O6 Cd1 1_555 1_555
N1 Cd1 1_555 1_555
N2 Cd1 1_555 1_555
C1 N1 1_555 1_555
H1 C1 1_555 1_555
C2 C1 1_555 1_555
H2 C2 1_555 1_555
C3 C2 1_555 1_555
H3 C3 1_555 1_555
C4 C3 1_555 1_555
H4 C4 1_555 1_555
C5 N1 1_555 1_555
C6 N2 1_555 1_555
C7 C6 1_555 1_555
H5 C7 1_555 1_555
C8 C7 1_555 1_555
H6 C8 1_555 1_555
C9 C8 1_555 1_555
H7 C9 1_555 1_555
C10 N2 1_555 1_555
H8 C10 1_555 1_555
Cd2 O7 1_555 1_555
S2 O7 1_555 1_555
O8 S2 1_555 1_555
O9 S2 1_555 1_555
O10 S2 1_555 1_555
O11 Cd2 1_555 1_555
O12 Cd2 1_555 1_555
N3 Cd2 1_555 1_555
N4 Cd2 1_555 1_555
C11 N3 1_555 1_555
H9 C11 1_555 1_555
C12 C11 1_555 1_555
H10 C12 1_555 1_555
C13 C12 1_555 1_555
H11 C13 1_555 1_555
C14 C13 1_555 1_555
H12 C14 1_555 1_555
C15 N3 1_555 1_555
C16 N4 1_555 1_555
C17 C16 1_555 1_555
H13 C17 1_555 1_555
C18 C17 1_555 1_555
H14 C18 1_555 1_555
C19 C18 1_555 1_555
H15 C19 1_555 1_555
C20 N4 1_555 1_555
H16 C20 1_555 1_555
O13 H23 1_555 1_555
H17 O5 1_555 1_555
H18 O6 1_555 1_555
H19 O6 1_555 1_555
H20 O11 1_555 1_555
H21 O11 1_555 1_555
H22 O12 1_555 1_555
O2_2 Cd1 1_555 1_555
Cd1_2 O2 1_555 1_555
O10_2 Cd2 1_555 1_555
Cd2_2 O10 1_555 1_555
C4 C5 1_555 1_555
C5 C6 1_555 1_555
C9 C10 1_555 1_555
C14 C15 1_555 1_555
C15 C16 1_555 1_555
C19 C20 1_555 1_555

#END
