
#######################################################################
#
#                 Cambridge Crystallographic Data Centre
#                                CCDC 
#
#######################################################################
#
# If this CIF has been generated from an entry in the Cambridge 
# Structural Database, then it will include bibliographic, chemical, 
# crystal, experimental, refinement or atomic coordinate data resulting 
# from the CCDC's data processing and validation procedures.
#
#######################################################################

data_BEQXUS
_symmetry_cell_setting           triclinic
_symmetry_space_group_name_H-M   'P -1'
_symmetry_Int_Tables_number      2
_space_group_name_Hall           '-P 1'
loop_
_symmetry_equiv_pos_site_id
_symmetry_equiv_pos_as_xyz
1 x,y,z
2 -x,-y,-z
_cell_length_a                   10.1259(11)
_cell_length_b                   11.6606(13)
_cell_length_c                   13.7407(13)
_cell_angle_alpha                91.410(3)
_cell_angle_beta                 94.187(3)
_cell_angle_gamma                109.446(3)
_cell_volume                     1523.72
loop_
_atom_site_label
_atom_site_type_symbol
_atom_site_fract_x
_atom_site_fract_y
_atom_site_fract_z
Mn1 Mn 0.16452(5) 0.28098(5) 0.47681(4)
O1 O -0.0388(3) 0.1778(3) 0.4146(2)
O2 O -0.0881(3) 0.3142(3) 0.5054(2)
O3 O -0.5993(3) 0.2849(2) 0.5038(2)
O4 O -0.7543(2) 0.1492(2) 0.40207(19)
N1 N 0.2556(3) 0.5767(3) 0.6945(2)
N2 N 0.3902(3) 0.5770(3) 0.6922(2)
N3 N 0.2467(3) 0.4521(3) 0.5721(2)
N4 N 0.3240(3) 0.4772(3) 1.2208(2)
N5 N 0.2982(4) 0.5743(3) 1.2622(2)
N6 N 0.2196(3) 0.4067(3) 1.3507(2)
N7 N 0.0424(4) 0.0661(3) 0.7352(2)
N8 N 0.1665(4) 0.1488(3) 0.7752(3)
N9 N 0.1248(3) 0.1841(3) 0.6180(2)
C1 C 0.2611(4) 0.6154(3) 0.8707(3)
C2 C 0.3835(4) 0.6885(3) 0.9244(3)
C3 C 0.4207(4) 0.6528(3) 1.0163(3)
C4 C 0.3450(4) 0.5376(3) 1.0469(3)
C5 C 0.2229(4) 0.4644(3) 0.9923(3)
C6 C 0.1769(4) 0.5051(3) 0.9063(3)
C7 C 0.2206(4) 0.6498(3) 0.7700(3)
H1 H 0.1195 0.6364 0.7628
H2 H 0.2707 0.7364 0.7622
C8 C 0.4810(5) 0.8025(4) 0.8844(3)
H3 H 0.4747 0.7932 0.8137
H4 H 0.5768 0.8157 0.9105
H5 H 0.4541 0.8718 0.9033
C9 C 0.5425(5) 0.7380(4) 1.0817(3)
H6 H 0.6266 0.7178 1.0732
H7 H 0.5210 0.7294 1.1493
H8 H 0.5579 0.8213 1.0644
C10 C 0.4031(5) 0.4881(4) 1.1344(3)
H9 H 0.4060 0.4074 1.1153
H10 H 0.5000 0.5412 1.1522
C11 C 0.1376(6) 0.3401(4) 1.0248(4)
H11 H 0.1821 0.3237 1.0853
H12 H 0.1327 0.2783 0.9748
H13 H 0.0434 0.3388 1.0351
C12 C 0.0387(5) 0.4287(4) 0.8506(3)
H14 H -0.0051 0.3569 0.8861
H15 H 0.0567 0.4042 0.7863
H16 H -0.0234 0.4764 0.8439
C13 C 0.3792(4) 0.5014(3) 0.6174(3)
H17 H 0.4564 0.4827 0.5966
C14 C 0.1728(4) 0.5029(3) 0.6235(3)
H18 H 0.0759 0.4887 0.6112
C15 C 0.2353(4) 0.5268(4) 1.3401(3)
H19 H 0.2039 0.5721 1.3849
C16 C 0.2784(4) 0.3804(4) 1.2742(3)
H20 H 0.2867 0.3040 1.2597
C17 C -0.0157(4) -0.0138(3) 0.8988(3)
C18 C -0.1006(4) 0.0369(3) 0.9472(3)
C19 C -0.0866(4) 0.0488(3) 1.0490(3)
C20 C -0.0383(6) -0.0380(4) 0.7886(3)
H21 H -0.0112 -0.1086 0.7714
H22 H -0.1385 -0.0582 0.7681
C21 C -0.2041(5) 0.0834(5) 0.8894(5)
H23 H -0.2004 0.0681 0.8201
H24 H -0.1799 0.1702 0.9036
H25 H -0.2984 0.0415 0.9074
C22 C -0.1860(7) 0.0959(5) 1.1005(5)
H26 H -0.1636 0.0989 1.1706
H27 H -0.2818 0.0421 1.0841
H28 H -0.1768 0.1770 1.0800
C23 C 0.2099(5) 0.2166(4) 0.7013(3)
H29 H 0.2943 0.2831 0.7061
C24 C 0.0220(4) 0.0881(3) 0.6426(3)
H30 H -0.0551 0.0417 0.5999
C25 C -0.2790(3) 0.1527(3) 0.4236(2)
C26 C -0.3802(3) 0.2008(3) 0.4491(2)
H31 H -0.3532 0.2753 0.4858
C27 C -0.5220(3) 0.1396(3) 0.4207(2)
C28 C -0.5624(4) 0.0278(3) 0.3688(3)
H32 H -0.6578 -0.0137 0.3496
C29 C -0.4617(4) -0.0225(3) 0.3452(3)
H33 H -0.4889 -0.0990 0.3115
C30 C -0.3202(4) 0.0409(3) 0.3718(3)
H34 H -0.2518 0.0077 0.3544
C31 C -0.1256(4) 0.2208(4) 0.4509(3)
C32 C -0.6309(3) 0.1955(3) 0.4444(3)
N7A N -0.0424(4) -0.0661(3) 1.2648(2)
N8A N -0.1665(4) -0.1488(3) 1.2248(3)
N9A N -0.1248(3) -0.1841(3) 1.3820(2)
C17A C 0.0157(4) 0.0138(3) 1.1012(3)
C18A C 0.1006(4) -0.0369(3) 1.0528(3)
C19A C 0.0866(4) -0.0488(3) 0.9510(3)
C20A C 0.0383(6) 0.0380(4) 1.2114(3)
H21A H 0.0112 0.1086 1.2286
H22A H 0.1385 0.0582 1.2319
C21A C 0.2041(5) -0.0834(5) 1.1106(5)
H23A H 0.2004 -0.0681 1.1799
H24A H 0.1799 -0.1702 1.0964
H25A H 0.2984 -0.0415 1.0926
C22A C 0.1860(7) -0.0959(5) 0.8995(5)
H26A H 0.1636 -0.0989 0.8294
H27A H 0.2818 -0.0421 0.9159
H28A H 0.1768 -0.1770 0.9200
C23A C -0.2099(5) -0.2166(4) 1.2987(3)
H29A H -0.2943 -0.2831 1.2939
C24A C -0.0220(4) -0.0881(3) 1.3574(3)
H30A H 0.0551 -0.0417 1.4001
Mn1A Mn -0.16452(5) -0.28098(5) 1.52319(4)
O1A O 0.0388(3) -0.1778(3) 1.5854(2)
O2A O 0.0881(3) -0.3142(3) 1.4946(2)
O3A O 0.5993(3) -0.2849(2) 1.4962(2)
O4A O 0.7543(2) -0.1492(2) 1.59793(19)
N1A N -0.2556(3) -0.5767(3) 1.3055(2)
N2A N -0.3902(3) -0.5770(3) 1.3078(2)
N3A N -0.2467(3) -0.4521(3) 1.4279(2)
N4A N -0.3240(3) -0.4772(3) 0.7792(2)
N5A N -0.2982(4) -0.5743(3) 0.7378(2)
N6A N -0.2196(3) -0.4067(3) 0.6493(2)
C1A C -0.2611(4) -0.6154(3) 1.1293(3)
C2A C -0.3835(4) -0.6885(3) 1.0756(3)
C3A C -0.4207(4) -0.6528(3) 0.9837(3)
C4A C -0.3450(4) -0.5376(3) 0.9531(3)
C5A C -0.2229(4) -0.4644(3) 1.0077(3)
C6A C -0.1769(4) -0.5051(3) 1.0937(3)
C7A C -0.2206(4) -0.6498(3) 1.2300(3)
H1A H -0.1195 -0.6364 1.2372
H2A H -0.2707 -0.7364 1.2378
C8A C -0.4810(5) -0.8025(4) 1.1156(3)
H3A H -0.4747 -0.7932 1.1863
H4A H -0.5768 -0.8157 1.0895
H5A H -0.4541 -0.8718 1.0967
C9A C -0.5425(5) -0.7380(4) 0.9183(3)
H6A H -0.6266 -0.7178 0.9268
H7A H -0.5210 -0.7294 0.8507
H8A H -0.5579 -0.8213 0.9356
C10A C -0.4031(5) -0.4881(4) 0.8656(3)
H9A H -0.4060 -0.4074 0.8847
H10A H -0.5000 -0.5412 0.8478
C11A C -0.1376(6) -0.3401(4) 0.9752(4)
H11A H -0.1821 -0.3237 0.9147
H12A H -0.1327 -0.2783 1.0252
H13A H -0.0434 -0.3388 0.9649
C12A C -0.0387(5) -0.4287(4) 1.1494(3)
H14A H 0.0051 -0.3569 1.1139
H15A H -0.0567 -0.4042 1.2137
H16A H 0.0234 -0.4764 1.1561
C13A C -0.3792(4) -0.5014(3) 1.3826(3)
H17A H -0.4564 -0.4827 1.4034
C14A C -0.1728(4) -0.5029(3) 1.3765(3)
H18A H -0.0759 -0.4887 1.3888
C15A C -0.2353(4) -0.5268(4) 0.6599(3)
H19A H -0.2039 -0.5721 0.6151
C16A C -0.2784(4) -0.3804(4) 0.7258(3)
H20A H -0.2867 -0.3040 0.7403
C25A C 0.2790(3) -0.1527(3) 1.5764(2)
C26A C 0.3802(3) -0.2008(3) 1.5509(2)
H31A H 0.3532 -0.2753 1.5142
C27A C 0.5220(3) -0.1396(3) 1.5793(2)
C28A C 0.5624(4) -0.0278(3) 1.6312(3)
H32A H 0.6578 0.0137 1.6504
C29A C 0.4617(4) 0.0225(3) 1.6548(3)
H33A H 0.4889 0.0990 1.6885
C30A C 0.3202(4) -0.0409(3) 1.6282(3)
H34A H 0.2518 -0.0077 1.6456
C31A C 0.1256(4) -0.2208(4) 1.5491(3)
C32A C 0.6309(3) -0.1955(3) 1.5556(3)
Mn1_2 Mn -0.83548(5) 0.28098(5) 0.47681(4)
Mn1_3 Mn 0.16452(5) 0.28098(5) 1.47681(4)
Mn1A_2 Mn -0.16452(5) -0.28098(5) 0.52319(4)
Mn1A_3 Mn 0.83548(5) -0.28098(5) 1.52319(4)
O3_2 O 0.4007(3) 0.2849(2) 0.5038(2)
O3A_2 O -0.4007(3) -0.2849(2) 1.4962(2)
O4_2 O 0.2457(2) 0.1492(2) 0.40207(19)
O4A_2 O -0.2457(2) -0.1492(2) 1.59793(19)
N6_2 N 0.2196(3) 0.4067(3) 0.3507(2)
N6A_2 N -0.2196(3) -0.4067(3) 1.6493(2)
loop_
_geom_bond_atom_site_label_1
_geom_bond_atom_site_label_2
_geom_bond_site_symmetry_1
_geom_bond_site_symmetry_2
Mn1 O1 1_555 1_555
O1 C31 1_555 1_555
O2 C31 1_555 1_555
O3 C32 1_555 1_555
O4 C32 1_555 1_555
N1 N2 1_555 1_555
N2 C13 1_555 1_555
N3 Mn1 1_555 1_555
N4 N5 1_555 1_555
N5 C15 1_555 1_555
N6 C15 1_555 1_555
N7 N8 1_555 1_555
N8 C23 1_555 1_555
N9 Mn1 1_555 1_555
C1 C2 1_555 1_555
C2 C3 1_555 1_555
C3 C4 1_555 1_555
C4 C5 1_555 1_555
C5 C6 1_555 1_555
C6 C1 1_555 1_555
C7 N1 1_555 1_555
H1 C7 1_555 1_555
H2 C7 1_555 1_555
C8 C2 1_555 1_555
H3 C8 1_555 1_555
H4 C8 1_555 1_555
H5 C8 1_555 1_555
C9 C3 1_555 1_555
H6 C9 1_555 1_555
H7 C9 1_555 1_555
H8 C9 1_555 1_555
C10 N4 1_555 1_555
H9 C10 1_555 1_555
H10 C10 1_555 1_555
C11 C5 1_555 1_555
H11 C11 1_555 1_555
H12 C11 1_555 1_555
H13 C11 1_555 1_555
C12 C6 1_555 1_555
H14 C12 1_555 1_555
H15 C12 1_555 1_555
H16 C12 1_555 1_555
C13 N3 1_555 1_555
H17 C13 1_555 1_555
C14 N1 1_555 1_555
H18 C14 1_555 1_555
C15 H19 1_555 1_555
C16 N4 1_555 1_555
H20 C16 1_555 1_555
C17 C18 1_555 1_555
C18 C19 1_555 1_555
C19 C22 1_555 1_555
C20 N7 1_555 1_555
H21 C20 1_555 1_555
H22 C20 1_555 1_555
C21 C18 1_555 1_555
H23 C21 1_555 1_555
H24 C21 1_555 1_555
H25 C21 1_555 1_555
C22 H26 1_555 1_555
H27 C22 1_555 1_555
H28 C22 1_555 1_555
C23 N9 1_555 1_555
H29 C23 1_555 1_555
C24 N7 1_555 1_555
H30 C24 1_555 1_555
C25 C26 1_555 1_555
C26 H31 1_555 1_555
C27 C26 1_555 1_555
C28 C27 1_555 1_555
H32 C28 1_555 1_555
C29 C28 1_555 1_555
H33 C29 1_555 1_555
C30 C25 1_555 1_555
H34 C30 1_555 1_555
C31 C25 1_555 1_555
C32 C27 1_555 1_555
N7A N8A 1_555 1_555
N8A C23A 1_555 1_555
N9A C23A 1_555 1_555
C17A C19 1_555 1_555
C18A C17A 1_555 1_555
C19A C17 1_555 1_555
C20A N7A 1_555 1_555
H21A C20A 1_555 1_555
H22A C20A 1_555 1_555
C21A C18A 1_555 1_555
H23A C21A 1_555 1_555
H24A C21A 1_555 1_555
H25A C21A 1_555 1_555
C22A C19A 1_555 1_555
H26A C22A 1_555 1_555
H27A C22A 1_555 1_555
H28A C22A 1_555 1_555
C23A H29A 1_555 1_555
C24A N7A 1_555 1_555
H30A C24A 1_555 1_555
Mn1A N9A 1_555 1_555
O1A Mn1A 1_555 1_555
O2A C31A 1_555 1_555
O3A C32A 1_555 1_555
O4A C32A 1_555 1_555
N1A N2A 1_555 1_555
N2A C13A 1_555 1_555
N3A Mn1A 1_555 1_555
N4A N5A 1_555 1_555
N5A C15A 1_555 1_555
N6A C15A 1_555 1_555
C1A C2A 1_555 1_555
C2A C3A 1_555 1_555
C3A C4A 1_555 1_555
C4A C5A 1_555 1_555
C5A C6A 1_555 1_555
C6A C1A 1_555 1_555
C7A N1A 1_555 1_555
H1A C7A 1_555 1_555
H2A C7A 1_555 1_555
C8A C2A 1_555 1_555
H3A C8A 1_555 1_555
H4A C8A 1_555 1_555
H5A C8A 1_555 1_555
C9A C3A 1_555 1_555
H6A C9A 1_555 1_555
H7A C9A 1_555 1_555
H8A C9A 1_555 1_555
C10A N4A 1_555 1_555
H9A C10A 1_555 1_555
H10A C10A 1_555 1_555
C11A C5A 1_555 1_555
H11A C11A 1_555 1_555
H12A C11A 1_555 1_555
H13A C11A 1_555 1_555
C12A C6A 1_555 1_555
H14A C12A 1_555 1_555
H15A C12A 1_555 1_555
H16A C12A 1_555 1_555
C13A N3A 1_555 1_555
H17A C13A 1_555 1_555
C14A N1A 1_555 1_555
H18A C14A 1_555 1_555
C15A H19A 1_555 1_555
C16A N4A 1_555 1_555
H20A C16A 1_555 1_555
C25A C26A 1_555 1_555
C26A H31A 1_555 1_555
C27A C26A 1_555 1_555
C28A C27A 1_555 1_555
H32A C28A 1_555 1_555
C29A C28A 1_555 1_555
H33A C29A 1_555 1_555
C30A C25A 1_555 1_555
H34A C30A 1_555 1_555
C31A O1A 1_555 1_555
C32A C27A 1_555 1_555
Mn1_2 O3 1_555 1_555
Mn1_3 N6 1_555 1_555
Mn1A_2 N6A 1_555 1_555
Mn1A_3 O3A 1_555 1_555
O3_2 Mn1 1_555 1_555
O3A_2 Mn1A 1_555 1_555
O4_2 Mn1 1_555 1_555
O4A_2 Mn1A 1_555 1_555
N6_2 Mn1 1_555 1_555
N6A_2 Mn1A 1_555 1_555
O4 Mn1_2 1_555 1_555
N3 C14 1_555 1_555
N6 C16 1_555 1_555
N9 C24 1_555 1_555
C1 C7 1_555 1_555
C4 C10 1_555 1_555
C17 C20 1_555 1_555
C29 C30 1_555 1_555
N9A C24A 1_555 1_555
C17A C20A 1_555 1_555
C18A C19A 1_555 1_555
O4A Mn1A_3 1_555 1_555
N3A C14A 1_555 1_555
N6A C16A 1_555 1_555
C1A C7A 1_555 1_555
C4A C10A 1_555 1_555
C25A C31A 1_555 1_555
C29A C30A 1_555 1_555

#END
