
#######################################################################
#
#                 Cambridge Crystallographic Data Centre
#                                CCDC 
#
#######################################################################
#
# If this CIF has been generated from an entry in the Cambridge 
# Structural Database, then it will include bibliographic, chemical, 
# crystal, experimental, refinement or atomic coordinate data resulting 
# from the CCDC's data processing and validation procedures.
#
#######################################################################

data_BERFOV
_symmetry_cell_setting           monoclinic
_symmetry_space_group_name_H-M   'C 2/c'
_symmetry_Int_Tables_number      15
_space_group_name_Hall           '-C 2yn'
loop_
_symmetry_equiv_pos_site_id
_symmetry_equiv_pos_as_xyz
1 x,y,z
2 -x,y,1/2-z
3 1/2+x,1/2+y,z
4 1/2-x,1/2+y,1/2-z
5 -x,-y,-z
6 x,-y,1/2+z
7 1/2-x,1/2-y,-z
8 1/2+x,1/2-y,1/2+z
_cell_length_a                   22.579(3)
_cell_length_b                   18.542(3)
_cell_length_c                   13.6018(19)
_cell_angle_alpha                90
_cell_angle_beta                 92.614(2)
_cell_angle_gamma                90
_cell_volume                     5688.6
loop_
_atom_site_label
_atom_site_type_symbol
_atom_site_fract_x
_atom_site_fract_y
_atom_site_fract_z
Zn1 Zn 0.22577(2) 0.10637(3) 0.43341(4)
Zn2 Zn 0.06608(2) 0.10167(3) 0.40870(5)
Zn3 Zn 0.13506(2) 0.40624(3) 0.33395(5)
Zn4 Zn 0.15303(2) -0.19857(3) 0.33865(5)
N1 N 0.11514(16) 0.1900(2) 0.3903(3)
N2 N 0.14217(16) 0.30475(18) 0.3779(3)
N3 N 0.17671(15) 0.19404(19) 0.4036(3)
N4 N 0.04005(17) 0.2760(2) 0.3552(3)
H1 H 0.0129 0.2435 0.3524
H2 H 0.0308 0.3205 0.3457
C1 C 0.0967(2) 0.2574(2) 0.3745(4)
C2 C 0.3388(2) 0.1291(3) 0.3995(4)
C3 C 0.4041(2) 0.1219(2) 0.3913(4)
C4 C 0.4914(2) 0.0470(2) 0.3788(3)
C5 C 0.4303(2) 0.0537(2) 0.3881(3)
H3 H 0.4070 0.0126 0.3923
C6 C 0.5261(2) 0.1089(2) 0.3753(3)
H4 H 0.5669 0.1046 0.3700
C7 C 0.4397(2) 0.1827(2) 0.3882(4)
H5 H 0.4226 0.2282 0.3920
O1 O 0.31356(14) 0.18933(18) 0.3930(3)
O2 O 0.30839(14) 0.07365(18) 0.4167(3)
N5 N 0.15103(17) -0.09422(19) 0.3681(3)
N6 N 0.11673(17) 0.0166(2) 0.3823(3)
N7 N 0.17828(16) 0.02036(19) 0.3891(3)
C8 C 0.1966(2) -0.0474(2) 0.3810(4)
C9 C 0.1030(2) -0.0516(3) 0.3697(4)
H6 H 0.0642 -0.0686 0.3628
O3 O 0.22632(14) 0.08975(16) 0.5843(3)
C10 C 0.2474(2) 0.0323(2) 0.6234(4)
C11 C 0.2091(2) -0.0330(2) 0.6293(4)
C12 C 0.1482(2) -0.0271(2) 0.6279(4)
H7 H 0.1307 0.0183 0.6236
C13 C 0.2350(2) -0.1020(2) 0.6327(4)
H8 H 0.2760 -0.1065 0.6337
C14 C 0.1998(2) -0.1637(2) 0.6346(4)
C15 C 0.5208(2) -0.0259(3) 0.3728(3)
O4 O 0.49112(14) -0.08186(16) 0.3700(3)
O5 O 0.29890(14) 0.02672(17) 0.6607(3)
C16 C 0.5390(2) 0.2430(3) 0.3740(4)
C17 C 0.5006(2) 0.1768(2) 0.3797(4)
O6 O 0.57726(14) -0.02402(17) 0.3704(3)
O7 O 0.51867(17) 0.30405(19) 0.3830(4)
N8 N 0.25346(19) -0.0669(2) 0.3797(4)
H9 H 0.2809 -0.0347 0.3842
H10 H 0.2627 -0.1117 0.3743
C18 C 0.1902(2) 0.2622(2) 0.3956(4)
H11 H 0.2288 0.2797 0.4014
C19 C 0.1385(2) -0.1565(3) 0.6358(4)
H12 H 0.1149 -0.1975 0.6387
C20 C 0.2283(2) -0.2374(3) 0.6354(4)
O8 O 0.19812(16) -0.29095(18) 0.6507(3)
O9 O 0.59273(15) 0.23122(18) 0.3577(3)
O10 O 0.28328(15) -0.23770(18) 0.6216(3)
C21 C 0.0461(2) -0.0800(3) 0.6294(4)
C22 C 0.1120(2) -0.0886(2) 0.6327(4)
O11 O 0.01466(15) -0.13654(18) 0.6360(3)
O12 O 0.02230(7) -0.02003(9) 0.61629(13)
O13 O 0.05892(7) 0.10555(9) 0.55499(13)
H13 H 0.0444 0.0659 0.5738
H14 H 0.0344 0.1377 0.5707
O14 O 0.11847(7) 0.39077(9) 0.18963(13)
H15 H 0.0833 0.4037 0.1731
H16 H 0.1269 0.3546 0.1533
O15 O 0.15944(7) -0.19012(9) 0.19227(13)
H17 H 0.1844 -0.1619 0.1675
H18 H 0.1698 -0.2325 0.1759
Zn2D Zn -0.06608(2) -0.10167(3) 0.59130(5)
Zn3B Zn 0.63506(2) -0.09376(3) 0.33395(5)
Zn3F Zn 0.36494(2) 0.09376(3) 0.66605(5)
Zn4B Zn 0.65303(2) 0.30143(3) 0.33865(5)
Zn4F Zn 0.34697(2) -0.30143(3) 0.66135(5)
O5F O 0.20110(14) 0.47328(17) 0.3393(3)
O6B O 0.07726(14) 0.47598(17) 0.3704(3)
O9B O 0.09273(15) -0.26878(18) 0.3577(3)
O10F O 0.21672(15) -0.26230(18) 0.3784(3)
O11D O -0.01466(15) 0.13654(18) 0.3640(3)
loop_
_geom_bond_atom_site_label_1
_geom_bond_atom_site_label_2
_geom_bond_site_symmetry_1
_geom_bond_site_symmetry_2
Zn1 N3 1_555 1_555
Zn2 N1 1_555 1_555
Zn3 N2 1_555 1_555
Zn4 N5 1_555 1_555
N1 N3 1_555 1_555
N2 C1 1_555 1_555
N3 C18 1_555 1_555
N4 H1 1_555 1_555
H2 N4 1_555 1_555
C1 N1 1_555 1_555
C2 C3 1_555 1_555
C3 C5 1_555 1_555
C4 C5 1_555 1_555
C5 H3 1_555 1_555
C6 C4 1_555 1_555
H4 C6 1_555 1_555
C7 C3 1_555 1_555
H5 C7 1_555 1_555
O1 C2 1_555 1_555
O2 Zn1 1_555 1_555
N5 C8 1_555 1_555
N6 Zn2 1_555 1_555
N7 Zn1 1_555 1_555
C8 N7 1_555 1_555
C9 N5 1_555 1_555
H6 C9 1_555 1_555
O3 Zn1 1_555 1_555
C10 O3 1_555 1_555
C11 C10 1_555 1_555
C12 C11 1_555 1_555
H7 C12 1_555 1_555
C13 C11 1_555 1_555
H8 C13 1_555 1_555
C14 C13 1_555 1_555
C15 C4 1_555 1_555
O4 C15 1_555 1_555
O5 C10 1_555 1_555
C16 C17 1_555 1_555
C17 C6 1_555 1_555
O6 C15 1_555 1_555
O7 C16 1_555 1_555
N8 C8 1_555 1_555
H9 N8 1_555 1_555
H10 N8 1_555 1_555
C18 N2 1_555 1_555
H11 C18 1_555 1_555
C19 C14 1_555 1_555
H12 C19 1_555 1_555
C20 C14 1_555 1_555
O8 C20 1_555 1_555
O9 C16 1_555 1_555
O10 C20 1_555 1_555
C21 C22 1_555 1_555
C22 C12 1_555 1_555
O11 C21 1_555 1_555
O12 C21 1_555 1_555
O13 Zn2 1_555 1_555
H13 O13 1_555 1_555
H14 O13 1_555 1_555
O14 Zn3 1_555 1_555
H15 O14 1_555 1_555
H16 O14 1_555 1_555
O15 Zn4 1_555 1_555
H17 O15 1_555 1_555
H18 O15 1_555 1_555
Zn2D O11 1_555 1_555
Zn3B O6 1_555 1_555
Zn3F O5 1_555 1_555
Zn4B O9 1_555 1_555
Zn4F O10 1_555 1_555
O5F Zn3 1_555 1_555
O6B Zn3 1_555 1_555
O9B Zn4 1_555 1_555
O10F Zn4 1_555 1_555
O11D Zn2 1_555 1_555
N4 C1 1_555 1_555
C2 O2 1_555 1_555
C7 C17 1_555 1_555
N6 N7 1_555 1_555
N6 C9 1_555 1_555
C19 C22 1_555 1_555

#END
