
#######################################################################
#
#                 Cambridge Crystallographic Data Centre
#                                CCDC 
#
#######################################################################
#
# If this CIF has been generated from an entry in the Cambridge 
# Structural Database, then it will include bibliographic, chemical, 
# crystal, experimental, refinement or atomic coordinate data resulting 
# from the CCDC's data processing and validation procedures.
#
#######################################################################

data_BERGAI
_symmetry_cell_setting           tetragonal
_symmetry_space_group_name_H-M   'P 4/n n c'
_symmetry_Int_Tables_number      126
_space_group_name_Hall           '-P 4a 2bc'
loop_
_symmetry_equiv_pos_site_id
_symmetry_equiv_pos_as_xyz
1 x,y,z
2 1/2-x,1/2-y,z
3 1/2-y,x,z
4 y,1/2-x,z
5 1/2-x,y,1/2-z
6 x,1/2-y,1/2-z
7 y,x,1/2-z
8 1/2-y,1/2-x,1/2-z
9 -x,-y,-z
10 1/2+x,1/2+y,-z
11 1/2+y,-x,-z
12 -y,1/2+x,-z
13 1/2+x,-y,1/2+z
14 -x,1/2+y,1/2+z
15 -y,-x,1/2+z
16 1/2+y,1/2+x,1/2+z
_cell_length_a                   12.700(3)
_cell_length_b                   12.700(3)
_cell_length_c                   25.364(5)
_cell_angle_alpha                90
_cell_angle_beta                 90
_cell_angle_gamma                90
_cell_volume                     4090.96
loop_
_atom_site_label
_atom_site_type_symbol
_atom_site_fract_x
_atom_site_fract_y
_atom_site_fract_z
C1 C 0.8096(3) -0.0046(4) 0.41755(12)
N1 N 0.9026(2) -0.0016(4) 0.44860(15)
N2 N 0.8738(3) 0.0268(4) 0.50079(13)
C2 C 0.7630(3) 0.0414(4) 0.50199(14)
H1 H 0.7233 0.0603 0.5313
N3 N 0.7233(2) 0.0220(4) 0.45055(16)
Zn1 Zn 0.96145(6) 0.06926(6) 0.56247(3)
O1 O 0.8536(5) 0.0505(6) 0.6162(2)
C3 C 0.8180(7) 0.0694(7) 0.7073(3)
O2 O 0.9875(5) 0.0881(5) 0.6671(3)
C4 C 0.8563(7) 0.0709(9) 0.7572(4)
H2 H 0.9287 0.0730 0.7626
C5 C 0.7890(8) 0.0693(10) 0.8004(3)
H3 H 0.8164 0.0683 0.8344
N4 N 0.8041(5) -0.0299(7) 0.3698(2)
H4 H 0.7440 -0.0323 0.3543
H5 H 0.8605 -0.0449 0.3526
C6 C 0.8925(8) 0.0689(7) 0.6612(4)
O1D O 0.6464(5) 0.0505(6) 0.8838(2)
C3D C 0.6820(7) 0.0694(7) 0.7927(3)
O2D O 0.5125(5) 0.0881(5) 0.8329(3)
C4D C 0.6437(7) 0.0709(9) 0.7428(4)
H2D H 0.5713 0.0730 0.7374
C5D C 0.7110(8) 0.0693(10) 0.6996(3)
H3D H 0.6836 0.0683 0.6656
C6D C 0.6075(8) 0.0689(7) 0.8388(4)
C1D C 0.6904(3) -0.0046(4) 1.08245(12)
N1D N 0.5974(2) -0.0016(4) 1.05140(15)
N2D N 0.6262(3) 0.0268(4) 0.99921(13)
C2D C 0.7370(3) 0.0414(4) 0.99801(14)
H1D H 0.7767 0.0603 0.9687
N3D N 0.7767(2) 0.0220(4) 1.04945(16)
Zn1D Zn 0.53855(6) 0.06926(6) 0.93753(3)
N4D N 0.6959(5) -0.0299(7) 1.1302(2)
H4D H 0.7560 -0.0323 1.1457
H5D H 0.6395 -0.0449 1.1474
N1H N 1.0974(2) 0.0016(4) 0.55140(15)
N1L N 0.4026(2) 0.0016(4) 0.94860(15)
N3K N 0.9780(4) 0.2233(2) 0.54945(16)
N3O N 0.5220(4) 0.2233(2) 0.95055(16)
Zn1H Zn 1.03855(6) -0.06926(6) 0.43753(3)
Zn1J Zn 0.56926(6) 0.03855(6) 0.43753(3)
Zn1L Zn 0.46145(6) -0.06926(6) 1.06247(3)
Zn1N Zn 0.93074(6) 0.03855(6) 1.06247(3)
O3 O 0.7500 0.7500 0.696(3)
O4 O 0.7500 0.7500 0.478(4)
loop_
_geom_bond_atom_site_label_1
_geom_bond_atom_site_label_2
_geom_bond_site_symmetry_1
_geom_bond_site_symmetry_2
C1 N1 1_555 1_555
N1 N2 1_555 1_555
N2 C2 1_555 1_555
C2 H1 1_555 1_555
N3 C1 1_555 1_555
Zn1 N2 1_555 1_555
O1 Zn1 1_555 1_555
C3 C4 1_555 1_555
O2 C6 1_555 1_555
C4 H2 1_555 1_555
C5 C4 1_555 1_555
H3 C5 1_555 1_555
N4 C1 1_555 1_555
H4 N4 1_555 1_555
H5 N4 1_555 1_555
C6 O1 1_555 1_555
O1D C6D 1_555 1_555
C3D C5 1_555 1_555
O2D C6D 1_555 1_555
C4D C3D 1_555 1_555
H2D C4D 1_555 1_555
C5D C3 1_555 1_555
H3D C5D 1_555 1_555
C6D C3D 1_555 1_555
C1D N1D 1_555 1_555
N1D N2D 1_555 1_555
N2D C2D 1_555 1_555
C2D H1D 1_555 1_555
N3D C1D 1_555 1_555
Zn1D O1D 1_555 1_555
N4D C1D 1_555 1_555
H4D N4D 1_555 1_555
H5D N4D 1_555 1_555
N1H Zn1 1_555 1_555
N1L Zn1D 1_555 1_555
N3K Zn1 1_555 1_555
N3O Zn1D 1_555 1_555
Zn1H N1 1_555 1_555
Zn1J N3 1_555 1_555
Zn1L N1D 1_555 1_555
Zn1N N3D 1_555 1_555
C2 N3 1_555 1_555
C3 C6 1_555 1_555
C4D C5D 1_555 1_555
N2D Zn1D 1_555 1_555
C2D N3D 1_555 1_555

#END
