
#######################################################################
#
#                 Cambridge Crystallographic Data Centre
#                                CCDC 
#
#######################################################################
#
# If this CIF has been generated from an entry in the Cambridge 
# Structural Database, then it will include bibliographic, chemical, 
# crystal, experimental, refinement or atomic coordinate data resulting 
# from the CCDC's data processing and validation procedures.
#
#######################################################################

data_BERNUI
_symmetry_cell_setting           monoclinic
_symmetry_space_group_name_H-M   'P 21/n'
_symmetry_Int_Tables_number      14
_space_group_name_Hall           '-P 2yn'
loop_
_symmetry_equiv_pos_site_id
_symmetry_equiv_pos_as_xyz
1 x,y,z
2 1/2-x,1/2+y,1/2-z
3 -x,-y,-z
4 1/2+x,1/2-y,1/2+z
_cell_length_a                   13.347(5)
_cell_length_b                   15.344(5)
_cell_length_c                   17.930(5)
_cell_angle_alpha                90
_cell_angle_beta                 93.316(5)
_cell_angle_gamma                90
_cell_volume                     3665.85
loop_
_atom_site_label
_atom_site_type_symbol
_atom_site_fract_x
_atom_site_fract_y
_atom_site_fract_z
Gd1 Gd 0.163157(16) 0.555952(14) 0.777243(12)
Cu1 Cu 0.39567(4) 0.87310(3) 0.62113(3)
S1 S 0.31364(15) 0.46989(10) 0.53046(8)
S2 S -0.18932(11) 0.69087(13) 0.76251(11)
S3 S 0.19437(10) 0.83687(9) 0.62170(9)
N1 N 0.1019(3) 0.3481(3) 0.9867(2)
N2 N 0.0563(3) 0.2578(3) 0.8444(3)
N3 N 0.2565(3) 0.4958(3) 0.6752(2)
N4 N 0.0021(3) 0.6263(3) 0.7925(2)
N5 N 0.1934(3) 0.6895(3) 0.7113(2)
O1 O 0.1397(2) 0.49559(19) 0.89607(16)
O2 O 0.0844(2) 0.42033(19) 0.77724(17)
O3 O 0.1898(2) 0.65890(19) 0.88963(17)
O4 O 0.0430(2) 0.5249(2) 0.66436(17)
O5 O 0.3354(2) 0.5535(2) 0.8201(2)
H1 H 0.349(4) 0.546(4) 0.866(3)
H2 H 0.379(4) 0.536(4) 0.793(3)
C1 C 0.1068(4) 0.4074(4) 1.0365(3)
H3 H 0.0970 0.3882 1.0859
C2 C 0.1249(3) 0.4996(3) 1.0289(3)
C3 C 0.1312(4) 0.5505(4) 1.0940(3)
H4 H 0.1163 0.5248 1.1403
C4 C 0.1583(4) 0.6359(4) 1.0921(3)
H5 H 0.1629 0.6690 1.1369
C5 C 0.1796(3) 0.6752(3) 1.0243(3)
H6 H 0.1997 0.7345 1.0232
C6 C 0.1712(3) 0.6277(3) 0.9596(3)
C7 C 0.1439(3) 0.5384(3) 0.9601(2)
C8 C -0.0087(3) 0.4461(4) 0.6638(3)
C9 C -0.0797(4) 0.4214(4) 0.6091(3)
H7 H -0.0994 0.4603 0.5697
C10 C -0.1224(4) 0.3389(5) 0.6121(4)
H8 H -0.1709 0.3212 0.5744
C11 C -0.0950(4) 0.2835(4) 0.6689(3)
H9 H -0.1237 0.2269 0.6695
C12 C -0.0249(4) 0.3084(3) 0.7265(3)
C13 C 0.0180(3) 0.3913(3) 0.7248(3)
C14 C 0.0039(4) 0.2453(3) 0.7837(3)
H10 H -0.0192 0.1875 0.7749
C15 C 0.0780(4) 0.1806(3) 0.8922(3)
H11 H 0.1512 0.1699 0.8960
H12 H 0.0450 0.1288 0.8689
C16 C 0.0418(5) 0.1932(4) 0.9681(4)
H13 H 0.0438 0.1364 0.9943
H14 H -0.0291 0.2123 0.9633
C17 C 0.1004(5) 0.2581(4) 1.0153(3)
H15 H 0.0726 0.2591 1.0653
H16 H 0.1706 0.2372 1.0219
C18 C 0.2211(4) 0.7499(3) 0.8839(3)
H17 H 0.1831 0.7859 0.9183
H18 H 0.2051 0.7710 0.8324
C19 C 0.3310(4) 0.7606(4) 0.9027(4)
H19 H 0.3465 0.7426 0.9545
H20 H 0.3497 0.8218 0.8966
H21 H 0.3688 0.7243 0.8692
C20 C 0.0457(4) 0.5716(4) 0.5939(3)
H22 H 0.0381 0.5295 0.5521
H23 H 0.1119 0.6003 0.5912
C21 C -0.0352(6) 0.6392(5) 0.5847(4)
H24 H -0.1008 0.6113 0.5879
H25 H -0.0317 0.6674 0.5359
H26 H -0.0258 0.6829 0.6243
C22 C 0.2800(4) 0.4849(3) 0.6158(3)
C23 C -0.0773(4) 0.6531(3) 0.7780(3)
C24 C 0.1944(3) 0.7505(3) 0.6739(3)
N1A N 0.3981(3) 0.8481(3) 0.5133(2)
N2A N 0.4437(3) 0.7578(3) 0.6556(3)
O1A O 0.3603(2) 0.99559(19) 0.60393(16)
O2A O 0.4156(2) 0.92033(19) 0.72276(17)
Cu1A Cu 0.10433(4) 0.37310(3) 0.87887(3)
O6 O 0.5110(3) 0.5241(2) 0.7479(2)
C25 C 0.4916(5) 0.3791(4) 0.7044(4)
H27 H 0.5345 0.3322 0.7252
H28 H 0.4761 0.3683 0.6511
H29 H 0.4291 0.3809 0.7305
C26 C 0.5442(4) 0.4631(4) 0.7139(3)
C27 C 0.6431(6) 0.4711(6) 0.6783(6)
H30 H 0.6315 0.4733 0.6239
H31 H 0.6852 0.4206 0.6921
H32 H 0.6770 0.5246 0.6959
O7 O 0.3819(3) 0.5289(3) 0.9704(2)
C28 C 0.4227(5) 0.5964(4) 1.0863(4)
H33 H 0.4906 0.5871 1.1087
H34 H 0.3756 0.6022 1.1260
H35 H 0.4214 0.6496 1.0561
C29 C 0.3931(4) 0.5211(4) 1.0384(3)
C30 C 0.3800(5) 0.4353(4) 1.0748(4)
H36 H 0.3524 0.3934 1.0378
H37 H 0.3338 0.4415 1.1150
H38 H 0.4451 0.4144 1.0956
loop_
_geom_bond_atom_site_label_1
_geom_bond_atom_site_label_2
_geom_bond_site_symmetry_1
_geom_bond_site_symmetry_2
Gd1 N3 1_555 1_555
Cu1 S3 1_555 1_555
S1 C22 1_555 1_555
S2 C23 1_555 1_555
S3 C24 1_555 1_555
N1 C1 1_555 1_555
N2 C14 1_555 1_555
N3 C22 1_555 1_555
N4 Gd1 1_555 1_555
N5 Gd1 1_555 1_555
O1 Gd1 1_555 1_555
O2 Gd1 1_555 1_555
O3 Gd1 1_555 1_555
O4 Gd1 1_555 1_555
O5 Gd1 1_555 1_555
H1 O5 1_555 1_555
H2 O5 1_555 1_555
C1 H3 1_555 1_555
C2 C1 1_555 1_555
C3 C2 1_555 1_555
H4 C3 1_555 1_555
C4 C3 1_555 1_555
H5 C4 1_555 1_555
C5 C4 1_555 1_555
H6 C5 1_555 1_555
C6 O3 1_555 1_555
C7 O1 1_555 1_555
C8 O4 1_555 1_555
C9 C8 1_555 1_555
H7 C9 1_555 1_555
C10 C9 1_555 1_555
H8 C10 1_555 1_555
C11 C10 1_555 1_555
H9 C11 1_555 1_555
C12 C11 1_555 1_555
C13 O2 1_555 1_555
C14 C12 1_555 1_555
H10 C14 1_555 1_555
C15 N2 1_555 1_555
H11 C15 1_555 1_555
H12 C15 1_555 1_555
C16 C15 1_555 1_555
H13 C16 1_555 1_555
H14 C16 1_555 1_555
C17 N1 1_555 1_555
H15 C17 1_555 1_555
H16 C17 1_555 1_555
C18 O3 1_555 1_555
H17 C18 1_555 1_555
H18 C18 1_555 1_555
C19 C18 1_555 1_555
H19 C19 1_555 1_555
H20 C19 1_555 1_555
H21 C19 1_555 1_555
C20 O4 1_555 1_555
H22 C20 1_555 1_555
H23 C20 1_555 1_555
C21 C20 1_555 1_555
H24 C21 1_555 1_555
H25 C21 1_555 1_555
H26 C21 1_555 1_555
C23 N4 1_555 1_555
C24 N5 1_555 1_555
O6 C26 1_555 1_555
C25 H27 1_555 1_555
H28 C25 1_555 1_555
H29 C25 1_555 1_555
C26 C25 1_555 1_555
C27 C26 1_555 1_555
H30 C27 1_555 1_555
H31 C27 1_555 1_555
H32 C27 1_555 1_555
O7 C29 1_555 1_555
C28 H33 1_555 1_555
H34 C28 1_555 1_555
H35 C28 1_555 1_555
C29 C28 1_555 1_555
C30 C29 1_555 1_555
H36 C30 1_555 1_555
H37 C30 1_555 1_555
H38 C30 1_555 1_555
N1A Cu1 1_555 1_555
N2A Cu1 1_555 1_555
O1A Cu1 1_555 1_555
O2A Cu1 1_555 1_555
Cu1A N1 1_555 1_555
N2 Cu1A 1_555 1_555
O1 Cu1A 1_555 1_555
O2 Cu1A 1_555 1_555
C2 C7 1_555 1_555
C5 C6 1_555 1_555
C6 C7 1_555 1_555
C8 C13 1_555 1_555
C12 C13 1_555 1_555
C16 C17 1_555 1_555

#END
