
#######################################################################
#
#                 Cambridge Crystallographic Data Centre
#                                CCDC 
#
#######################################################################
#
# If this CIF has been generated from an entry in the Cambridge 
# Structural Database, then it will include bibliographic, chemical, 
# crystal, experimental, refinement or atomic coordinate data resulting 
# from the CCDC's data processing and validation procedures.
#
#######################################################################

data_BERROH
_symmetry_cell_setting           monoclinic
_symmetry_space_group_name_H-M   'C c'
_symmetry_Int_Tables_number      9
_space_group_name_Hall           'C -2yc'
loop_
_symmetry_equiv_pos_site_id
_symmetry_equiv_pos_as_xyz
1 x,y,z
2 x,-y,1/2+z
3 1/2+x,1/2+y,z
4 1/2+x,1/2-y,1/2+z
_cell_length_a                   9.811(2)
_cell_length_b                   18.035(4)
_cell_length_c                   8.8072(18)
_cell_angle_alpha                90
_cell_angle_beta                 117.44(3)
_cell_angle_gamma                90
_cell_volume                     1383.03
loop_
_atom_site_label
_atom_site_type_symbol
_atom_site_fract_x
_atom_site_fract_y
_atom_site_fract_z
Mn1 Mn -0.86350(12) -0.36926(5) -0.40975(12)
N1 N -0.9986(7) -0.2934(3) -0.6218(7)
O1 O -1.0646(7) -0.4466(3) -0.5149(8)
O2 O -0.9698(7) -0.2956(3) -0.2908(7)
N2 N -1.0383(9) -0.3018(3) -0.7893(8)
N3 N -1.1287(8) -0.2508(4) -0.8804(8)
N4 N -1.1570(7) -0.2041(3) -0.7770(7)
N5 N -1.0679(8) -0.1996(3) -0.4736(7)
H1 H -1.0953 -0.1538 -0.4822
N6 N -0.7980(7) -0.4518(3) -0.2009(8)
N7 N -0.6843(8) -0.4464(4) -0.0416(8)
N8 N -0.9790(9) -0.5499(4) -0.3513(8)
H2 H -0.9942 -0.5968 -0.3490
N9 N -0.6756(8) -0.5064(4) 0.0418(9)
C1 C -1.0742(8) -0.2329(4) -0.6194(9)
C2 C -1.0226(10) -0.2325(4) -0.3192(11)
C3 C -1.0402(12) -0.1870(5) -0.1883(12)
H3 H -1.1112 -0.2117 -0.1566
H4 H -1.0844 -0.1394 -0.2380
C4 C -0.8893(17) -0.1741(10) -0.0281(17)
H5 H -0.9076 -0.1447 0.0516
H6 H -0.8193 -0.1485 -0.0580
H7 H -0.8458 -0.2209 0.0231
C5 C -0.8575(8) -0.5186(4) -0.2097(9)
C6 C -1.0750(9) -0.5121(4) -0.4923(10)
C7 C -1.2053(13) -0.5591(6) -0.6217(12)
H8 H -1.1679 -0.6088 -0.6230
H9 H -1.2409 -0.5380 -0.7350
C8 C -1.3378(14) -0.5631(9) -0.5785(17)
H10 H -1.4184 -0.5930 -0.6620
H11 H -1.3759 -0.5140 -0.5788
H12 H -1.3030 -0.5847 -0.4672
N10 N -0.7842(8) -0.5551(3) -0.0601(8)
Mn1A Mn -0.86350(12) -0.63074(5) 0.09025(12)
Mn1C Mn -1.36350(12) -0.13074(5) -0.90975(12)
N4C N -0.6570(7) -0.2959(3) -0.2770(7)
N10A N -0.7842(8) -0.4449(3) -0.5601(8)
loop_
_geom_bond_atom_site_label_1
_geom_bond_atom_site_label_2
_geom_bond_site_symmetry_1
_geom_bond_site_symmetry_2
Mn1 N1 1_555 1_555
N1 N2 1_555 1_555
O1 Mn1 1_555 1_555
O2 Mn1 1_555 1_555
N2 N3 1_555 1_555
N3 N4 1_555 1_555
N4 C1 1_555 1_555
N5 H1 1_555 1_555
N6 Mn1 1_555 1_555
N7 N6 1_555 1_555
N8 H2 1_555 1_555
N9 N7 1_555 1_555
C1 N1 1_555 1_555
C2 O2 1_555 1_555
C3 C2 1_555 1_555
H3 C3 1_555 1_555
H4 C3 1_555 1_555
C4 C3 1_555 1_555
H5 C4 1_555 1_555
H6 C4 1_555 1_555
H7 C4 1_555 1_555
C5 N6 1_555 1_555
C6 O1 1_555 1_555
C7 C6 1_555 1_555
H8 C7 1_555 1_555
H9 C7 1_555 1_555
C8 C7 1_555 1_555
H10 C8 1_555 1_555
H11 C8 1_555 1_555
H12 C8 1_555 1_555
N10 N9 1_555 1_555
Mn1A N10 1_555 1_555
Mn1C N4 1_555 1_555
N4C Mn1 1_555 1_555
N10A Mn1 1_555 1_555
N5 C1 1_555 1_555
N5 C2 1_555 1_555
N8 C5 1_555 1_555
N8 C6 1_555 1_555
C5 N10 1_555 1_555

#END
