
#######################################################################
#
#                 Cambridge Crystallographic Data Centre
#                                CCDC 
#
#######################################################################
#
# If this CIF has been generated from an entry in the Cambridge 
# Structural Database, then it will include bibliographic, chemical, 
# crystal, experimental, refinement or atomic coordinate data resulting 
# from the CCDC's data processing and validation procedures.
#
#######################################################################

data_BESJEP
_symmetry_cell_setting           monoclinic
_symmetry_space_group_name_H-M   'P 21/c'
_symmetry_Int_Tables_number      14
_space_group_name_Hall           '-P 2ybc'
loop_
_symmetry_equiv_pos_site_id
_symmetry_equiv_pos_as_xyz
1 x,y,z
2 x,1/2-y,1/2+z
3 -x,-y,-z
4 -x,1/2+y,1/2-z
_cell_length_a                   11.389(2)
_cell_length_b                   11.392(2)
_cell_length_c                   24.216(5)
_cell_angle_alpha                90
_cell_angle_beta                 102.21(3)
_cell_angle_gamma                90
_cell_volume                     3070.8
loop_
_atom_site_label
_atom_site_type_symbol
_atom_site_fract_x
_atom_site_fract_y
_atom_site_fract_z
Hg1 Hg 0.02927(4) 0.87104(4) 0.23123(3)
I1 I -0.16447(7) 0.90440(7) 0.27252(5)
I2 I 0.20058(7) 0.96588(7) 0.18816(5)
N1 N 0.1452(8) 0.7446(7) 0.3059(5)
N2 N 0.4368(7) 0.4527(7) 0.4215(5)
H1 H 0.4759 0.5051 0.4073
N3 N 0.7166(8) 0.1054(7) 0.5518(4)
H2 H 0.6795 0.0676 0.5737
N4 N 0.9675(8) -0.2072(8) 0.6679(5)
O1 O 0.2462(7) 0.3920(8) 0.4248(5)
O2 O 0.8958(7) 0.1174(7) 0.5257(4)
C1 C 0.2595(10) 0.7243(9) 0.3094(6)
H3 H 0.3000 0.7693 0.2873
C2 C 0.3240(9) 0.6384(9) 0.3444(6)
H4 H 0.4061 0.6295 0.3471
C3 C 0.2633(11) 0.5669(9) 0.3751(6)
C4 C 0.1444(10) 0.5902(10) 0.3711(6)
H5 H 0.0999 0.5462 0.3917
C5 C 0.0890(10) 0.6817(10) 0.3353(7)
H6 H 0.0079 0.6967 0.3332
C6 C 0.3132(10) 0.4638(9) 0.4103(6)
C7 C 0.5056(10) 0.3633(10) 0.4543(6)
C8 C 0.6283(9) 0.3610(9) 0.4574(6)
H7 H 0.6621 0.4155 0.4367
C9 C 0.7026(10) 0.2798(11) 0.4906(6)
H8 H 0.7854 0.2826 0.4940
C10 C 0.6517(10) 0.1963(10) 0.5179(6)
C11 C 0.5305(11) 0.1943(10) 0.5139(6)
H9 H 0.4984 0.1366 0.5335
C12 C 0.4521(11) 0.2755(11) 0.4816(7)
H10 H 0.3694 0.2716 0.4785
C13 C 0.8309(10) 0.0738(10) 0.5526(6)
C14 C 0.8763(9) -0.0215(9) 0.5963(6)
C15 C 0.8362(9) -0.0437(9) 0.6445(6)
H11 H 0.7762 0.0029 0.6539
C16 C 0.8829(10) -0.1325(10) 0.6783(5)
H12 H 0.8550 -0.1434 0.7114
C17 C 1.0071(10) -0.1864(9) 0.6207(7)
H13 H 1.0658 -0.2361 0.6123
C18 C 0.9668(10) -0.0962(9) 0.5834(6)
H14 H 0.9976 -0.0848 0.5512
N4A N -0.0325(8) 0.7072(8) 0.1679(5)
Hg1A Hg 1.02927(4) -0.37104(4) 0.73123(3)
N5 N 0.7491(10) 0.7557(9) 0.4229(5)
O3 O 0.6145(6) 0.6146(7) 0.3870(4)
C19 C 0.8395(10) 0.6733(11) 0.4498(7)
H15 H 0.8112 0.5947 0.4411
H16 H 0.8556 0.6849 0.4900
H17 H 0.9119 0.6856 0.4362
C20 C 0.7706(13) 0.8780(11) 0.4307(8)
H18 H 0.7020 0.9208 0.4108
H19 H 0.8399 0.8994 0.4163
H20 H 0.7844 0.8964 0.4702
C21 C 0.6484(12) 0.7172(12) 0.3934(6)
H21 H 0.5954 0.7737 0.3748
N6 N 0.5041(13) -0.1258(12) 0.6817(7)
O4 O 0.5532(9) 0.0129(9) 0.6220(6)
C22 C 0.501(2) -0.2483(15) 0.6980(10)
H22 H 0.5320 -0.2961 0.6716
H23 H 0.4202 -0.2709 0.6980
H24 H 0.5502 -0.2588 0.7351
C23 C 0.456(2) -0.046(2) 0.7152(11)
H25 H 0.4612 0.0319 0.7010
H26 H 0.5011 -0.0506 0.7534
H27 H 0.3738 -0.0656 0.7140
C24 C 0.541(2) -0.086(2) 0.6357(9)
H28 H 0.5602 -0.1432 0.6116
loop_
_geom_bond_atom_site_label_1
_geom_bond_atom_site_label_2
_geom_bond_site_symmetry_1
_geom_bond_site_symmetry_2
Hg1 I1 1_555 1_555
I2 Hg1 1_555 1_555
N1 Hg1 1_555 1_555
N2 H1 1_555 1_555
N3 H2 1_555 1_555
N4 C16 1_555 1_555
N5 C19 1_555 1_555
N6 C22 1_555 1_555
O1 C6 1_555 1_555
O2 C13 1_555 1_555
O3 C21 1_555 1_555
O4 C24 1_555 1_555
C1 N1 1_555 1_555
H3 C1 1_555 1_555
C2 C1 1_555 1_555
H4 C2 1_555 1_555
C3 C2 1_555 1_555
C4 C3 1_555 1_555
H5 C4 1_555 1_555
C5 N1 1_555 1_555
H6 C5 1_555 1_555
C6 N2 1_555 1_555
C7 N2 1_555 1_555
C8 C7 1_555 1_555
H7 C8 1_555 1_555
C9 C8 1_555 1_555
H8 C9 1_555 1_555
C10 N3 1_555 1_555
C11 C10 1_555 1_555
H9 C11 1_555 1_555
C12 C7 1_555 1_555
H10 C12 1_555 1_555
C13 N3 1_555 1_555
C14 C13 1_555 1_555
C15 C14 1_555 1_555
H11 C15 1_555 1_555
C16 C15 1_555 1_555
H12 C16 1_555 1_555
C17 N4 1_555 1_555
H13 C17 1_555 1_555
C18 C14 1_555 1_555
H14 C18 1_555 1_555
C19 H15 1_555 1_555
H16 C19 1_555 1_555
H17 C19 1_555 1_555
C20 N5 1_555 1_555
H18 C20 1_555 1_555
H19 C20 1_555 1_555
H20 C20 1_555 1_555
C21 N5 1_555 1_555
H21 C21 1_555 1_555
C22 H22 1_555 1_555
H23 C22 1_555 1_555
H24 C22 1_555 1_555
C23 N6 1_555 1_555
H25 C23 1_555 1_555
H26 C23 1_555 1_555
H27 C23 1_555 1_555
C24 N6 1_555 1_555
H28 C24 1_555 1_555
N4A Hg1 1_555 1_555
Hg1A N4 1_555 1_555
C3 C6 1_555 1_555
C4 C5 1_555 1_555
C9 C10 1_555 1_555
C11 C12 1_555 1_555
C17 C18 1_555 1_555

#END
