
#######################################################################
#
#                 Cambridge Crystallographic Data Centre
#                                CCDC 
#
#######################################################################
#
# If this CIF has been generated from an entry in the Cambridge 
# Structural Database, then it will include bibliographic, chemical, 
# crystal, experimental, refinement or atomic coordinate data resulting 
# from the CCDC's data processing and validation procedures.
#
#######################################################################

data_BESPIZ
_symmetry_cell_setting           triclinic
_symmetry_space_group_name_H-M   'P -1'
_symmetry_Int_Tables_number      2
_space_group_name_Hall           '-P 1'
loop_
_symmetry_equiv_pos_site_id
_symmetry_equiv_pos_as_xyz
1 x,y,z
2 -x,-y,-z
_cell_length_a                   10.760(2)
_cell_length_b                   10.771(2)
_cell_length_c                   13.108(3)
_cell_angle_alpha                111.335(6)
_cell_angle_beta                 107.991(5)
_cell_angle_gamma                91.492(6)
_cell_volume                     1329.34
loop_
_atom_site_label
_atom_site_type_symbol
_atom_site_fract_x
_atom_site_fract_y
_atom_site_fract_z
Cu1 Cu 0.5000 -0.5000 0.0000
Cu2 Cu 0.5000 0.0000 0.5000
O1 O 0.6152(3) -0.0860(3) 0.4090(3)
O2 O 0.5555(4) -0.3034(3) 0.3671(3)
O3 O 0.5983(4) -0.3293(3) 0.1241(3)
O4 O 0.5658(4) -0.2774(4) -0.0290(3)
N1 N 0.3302(4) -0.4328(4) 0.0034(4)
N2 N -0.3880(4) -0.0394(4) -0.3659(3)
C1 C 0.6353(5) -0.2070(5) 0.3809(4)
C2 C 0.7668(4) -0.2349(5) 0.3688(4)
C3 C 0.8310(4) -0.1735(5) 0.3177(4)
C4 C 0.9550(5) -0.2043(6) 0.3157(4)
H1 H 1.0005 -0.1624 0.2822
C5 C 1.0140(5) -0.2937(6) 0.3609(5)
H2 H 1.0985 -0.3134 0.3576
C6 C 0.9506(6) -0.3541(6) 0.4105(5)
H3 H 0.9911 -0.4150 0.4428
C7 C 0.8277(5) -0.3256(5) 0.4128(4)
H4 H 0.7829 -0.3693 0.4456
C8 C 0.6112(5) -0.2476(5) 0.0775(4)
C9 C 0.6836(5) -0.1070(5) 0.1564(4)
C10 C 0.7788(5) -0.0740(4) 0.2682(4)
C11 C 0.8385(6) 0.0602(5) 0.3309(5)
H5 H 0.9040 0.0841 0.4056
C12 C 0.8067(7) 0.1599(6) 0.2892(6)
H6 H 0.8466 0.2511 0.3360
C13 C 0.7173(7) 0.1260(6) 0.1803(6)
H7 H 0.6965 0.1933 0.1496
C14 C 0.6568(6) -0.0058(6) 0.1145(5)
H8 H 0.5951 -0.0280 0.0384
C15 C 0.3105(6) -0.3576(6) 0.1011(5)
H9 H 0.3806 -0.3355 0.1730
C16 C 0.1950(7) -0.3107(6) 0.1033(5)
H10 H 0.1855 -0.2591 0.1758
C17 C 0.0914(7) -0.3372(5) 0.0011(5)
C18 C -0.0361(9) -0.2875(8) 0.0006(6)
H11 H -0.0204 -0.2087 0.0745
H12 H -0.0976 -0.3591 -0.0016
C19 C -0.1025(15) -0.2467(13) -0.1004(7)
H13 H -0.0345 -0.2366 -0.1346
H14 H -0.1700 -0.3243 -0.1602
C20 C -0.1558(11) -0.1472(8) -0.0874(6)
H15 H -0.0851 -0.0690 -0.0356
H16 H -0.2139 -0.1515 -0.0427
C21 C -0.2377(8) -0.1111(6) -0.1868(5)
C22 C -0.3713(8) -0.1110(7) -0.2122(5)
H17 H -0.4147 -0.1357 -0.1677
C23 C -0.4418(6) -0.0761(5) -0.2997(5)
H18 H -0.5342 -0.0777 -0.3151
C24 C -0.2574(5) -0.0382(5) -0.3426(5)
H19 H -0.2173 -0.0130 -0.3888
C25 C -0.1797(6) -0.0715(6) -0.2553(5)
H20 H -0.0872 -0.0682 -0.2408
C26 C 0.1122(7) -0.4127(6) -0.1007(5)
H21 H 0.0446 -0.4326 -0.1737
C27 C 0.2298(4) -0.4588(4) -0.0967(3)
H22 H 0.2413 -0.5117 -0.1681
O6 O 0.3455(4) -0.2128(4) 0.4205(3)
O1A O 0.3848(3) -0.9140(3) -0.4090(3)
O2A O 0.4445(4) -0.6966(3) -0.3671(3)
O3A O 0.4017(4) -0.6707(3) -0.1241(3)
O4A O 0.4342(4) -0.7226(4) 0.0290(3)
C1A C 0.3647(5) -0.7930(5) -0.3809(4)
C2A C 0.2332(4) -0.7651(5) -0.3688(4)
C3A C 0.1690(4) -0.8265(5) -0.3177(4)
C4A C 0.0450(5) -0.7957(6) -0.3157(4)
H1A H -0.0005 -0.8376 -0.2822
C5A C -0.0140(5) -0.7063(6) -0.3609(5)
H2A H -0.0985 -0.6866 -0.3576
C6A C 0.0494(6) -0.6459(6) -0.4105(5)
H3A H 0.0089 -0.5850 -0.4428
C7A C 0.1723(5) -0.6744(5) -0.4128(4)
H4A H 0.2171 -0.6307 -0.4456
C8A C 0.3888(5) -0.7524(5) -0.0775(4)
C9A C 0.3164(5) -0.8930(5) -0.1564(4)
C10A C 0.2212(5) -0.9260(4) -0.2682(4)
C11A C 0.1615(6) -1.0602(5) -0.3309(5)
H5A H 0.0960 -1.0841 -0.4056
C12A C 0.1933(7) -1.1599(6) -0.2892(6)
H6A H 0.1534 -1.2511 -0.3360
C13A C 0.2827(7) -1.1260(6) -0.1803(6)
H7A H 0.3035 -1.1933 -0.1496
C14A C 0.3432(6) -0.9942(6) -0.1145(5)
H8A H 0.4049 -0.9720 -0.0384
N1A N 0.6698(4) -0.5672(4) -0.0034(4)
N2A N 1.3880(4) -0.9606(4) 0.3659(3)
C15A C 0.6895(6) -0.6424(6) -0.1011(5)
H9A H 0.6194 -0.6645 -0.1730
C16A C 0.8050(7) -0.6893(6) -0.1033(5)
H10A H 0.8145 -0.7409 -0.1758
C17A C 0.9086(7) -0.6628(5) -0.0011(5)
C18A C 1.0361(9) -0.7125(8) -0.0006(6)
H11A H 1.0204 -0.7913 -0.0745
H12A H 1.0976 -0.6409 0.0016
C19A C 1.1025(15) -0.7533(13) 0.1004(7)
H13A H 1.0345 -0.7634 0.1346
H14A H 1.1700 -0.6757 0.1602
C20A C 1.1558(11) -0.8528(8) 0.0874(6)
H15A H 1.0851 -0.9310 0.0356
H16A H 1.2139 -0.8485 0.0427
C21A C 1.2377(8) -0.8889(6) 0.1868(5)
C22A C 1.3713(8) -0.8890(7) 0.2122(5)
H17A H 1.4147 -0.8643 0.1677
C23A C 1.4418(6) -0.9239(5) 0.2997(5)
H18A H 1.5342 -0.9223 0.3151
C24A C 1.2574(5) -0.9618(5) 0.3426(5)
H19A H 1.2173 -0.9870 0.3888
C25A C 1.1797(6) -0.9285(6) 0.2553(5)
H20A H 1.0872 -0.9318 0.2408
C26A C 0.8878(7) -0.5873(6) 0.1007(5)
H21A H 0.9554 -0.5674 0.1737
C27A C 0.7702(4) -0.5412(4) 0.0967(3)
H22A H 0.7587 -0.4883 0.1681
O6A O 0.6545(4) 0.2128(4) 0.5795(3)
O1A_2 O 0.3848(3) 0.0860(3) 0.5910(3)
N2_2 N 0.6120(4) -0.0394(4) 0.6341(3)
N2A_2 N 0.3880(4) 0.0394(4) 0.3659(3)
Cu2_2 Cu -0.5000 0.0000 -0.5000
Cu2_3 Cu 0.5000 -1.0000 -0.5000
Cu2_4 Cu 1.5000 -1.0000 0.5000
O5 O 0.3056(4) -0.3930(4) 0.5246(3)
C28 C 0.3230(4) -0.5237(4) 0.4282(3)
H23 H 0.3498 -0.4989 0.3724
H24 H 0.2389 -0.5857 0.3874
H25 H 0.3910 -0.5680 0.4648
O7 O 0.5574(7) -0.5764(5) 0.2700(4)
loop_
_geom_bond_atom_site_label_1
_geom_bond_atom_site_label_2
_geom_bond_site_symmetry_1
_geom_bond_site_symmetry_2
Cu1 O3 1_555 1_555
Cu2 O1 1_555 1_555
O1 C1 1_555 1_555
O2 C1 1_555 1_555
O3 C8 1_555 1_555
O4 C8 1_555 1_555
N1 Cu1 1_555 1_555
N2 C23 1_555 1_555
C1 C2 1_555 1_555
C2 C3 1_555 1_555
C3 C4 1_555 1_555
C4 H1 1_555 1_555
C5 C4 1_555 1_555
H2 C5 1_555 1_555
C6 C5 1_555 1_555
H3 C6 1_555 1_555
C7 C2 1_555 1_555
H4 C7 1_555 1_555
C8 C9 1_555 1_555
C9 C10 1_555 1_555
C10 C3 1_555 1_555
C11 C10 1_555 1_555
H5 C11 1_555 1_555
C12 C11 1_555 1_555
H6 C12 1_555 1_555
C13 C12 1_555 1_555
H7 C13 1_555 1_555
C14 C9 1_555 1_555
H8 C14 1_555 1_555
C15 N1 1_555 1_555
H9 C15 1_555 1_555
C16 C15 1_555 1_555
H10 C16 1_555 1_555
C17 C16 1_555 1_555
C18 C17 1_555 1_555
H11 C18 1_555 1_555
H12 C18 1_555 1_555
C19 C18 1_555 1_555
H13 C19 1_555 1_555
H14 C19 1_555 1_555
C20 C19 1_555 1_555
H15 C20 1_555 1_555
H16 C20 1_555 1_555
C21 C20 1_555 1_555
C22 C21 1_555 1_555
H17 C22 1_555 1_555
C23 C22 1_555 1_555
H18 C23 1_555 1_555
C24 N2 1_555 1_555
H19 C24 1_555 1_555
C25 C21 1_555 1_555
H20 C25 1_555 1_555
C26 C17 1_555 1_555
H21 C26 1_555 1_555
C27 N1 1_555 1_555
H22 C27 1_555 1_555
O5 C28 1_555 1_555
C28 H23 1_555 1_555
H24 C28 1_555 1_555
H25 C28 1_555 1_555
O6 Cu2 1_555 1_555
O1A C1A 1_555 1_555
O2A C1A 1_555 1_555
O3A Cu1 1_555 1_555
O4A C8A 1_555 1_555
C1A C2A 1_555 1_555
C2A C3A 1_555 1_555
C3A C4A 1_555 1_555
C4A H1A 1_555 1_555
C5A C4A 1_555 1_555
H2A C5A 1_555 1_555
C6A C5A 1_555 1_555
H3A C6A 1_555 1_555
C7A C2A 1_555 1_555
H4A C7A 1_555 1_555
C8A O3A 1_555 1_555
C9A C8A 1_555 1_555
C10A C3A 1_555 1_555
C11A C10A 1_555 1_555
H5A C11A 1_555 1_555
C12A C11A 1_555 1_555
H6A C12A 1_555 1_555
C13A C12A 1_555 1_555
H7A C13A 1_555 1_555
C14A C9A 1_555 1_555
H8A C14A 1_555 1_555
N1A Cu1 1_555 1_555
N2A C23A 1_555 1_555
C15A N1A 1_555 1_555
H9A C15A 1_555 1_555
C16A C15A 1_555 1_555
H10A C16A 1_555 1_555
C17A C16A 1_555 1_555
C18A C17A 1_555 1_555
H11A C18A 1_555 1_555
H12A C18A 1_555 1_555
C19A C18A 1_555 1_555
H13A C19A 1_555 1_555
H14A C19A 1_555 1_555
C20A C19A 1_555 1_555
H15A C20A 1_555 1_555
H16A C20A 1_555 1_555
C21A C20A 1_555 1_555
C22A C21A 1_555 1_555
H17A C22A 1_555 1_555
C23A C22A 1_555 1_555
H18A C23A 1_555 1_555
C24A N2A 1_555 1_555
H19A C24A 1_555 1_555
C25A C21A 1_555 1_555
H20A C25A 1_555 1_555
C26A C17A 1_555 1_555
H21A C26A 1_555 1_555
C27A N1A 1_555 1_555
H22A C27A 1_555 1_555
O6A Cu2 1_555 1_555
O1A_2 Cu2 1_555 1_555
N2_2 Cu2 1_555 1_555
N2A_2 Cu2 1_555 1_555
Cu2_2 N2 1_555 1_555
Cu2_3 O1A 1_555 1_555
Cu2_4 N2A 1_555 1_555
C6 C7 1_555 1_555
C13 C14 1_555 1_555
C24 C25 1_555 1_555
C26 C27 1_555 1_555
C6A C7A 1_555 1_555
C9A C10A 1_555 1_555
C13A C14A 1_555 1_555
C24A C25A 1_555 1_555
C26A C27A 1_555 1_555

#END
