
#######################################################################
#
#                 Cambridge Crystallographic Data Centre
#                                CCDC 
#
#######################################################################
#
# If this CIF has been generated from an entry in the Cambridge 
# Structural Database, then it will include bibliographic, chemical, 
# crystal, experimental, refinement or atomic coordinate data resulting 
# from the CCDC's data processing and validation procedures.
#
#######################################################################

data_BESSUP
_symmetry_cell_setting           monoclinic
_symmetry_space_group_name_H-M   'C 2/c'
_symmetry_Int_Tables_number      15
_space_group_name_Hall           '-C 2yn'
loop_
_symmetry_equiv_pos_site_id
_symmetry_equiv_pos_as_xyz
1 x,y,z
2 -x,y,1/2-z
3 1/2+x,1/2+y,z
4 1/2-x,1/2+y,1/2-z
5 -x,-y,-z
6 x,-y,1/2+z
7 1/2-x,1/2-y,-z
8 1/2+x,1/2-y,1/2+z
_cell_length_a                   21.2896(14)
_cell_length_b                   21.0207(9)
_cell_length_c                   20.8609(13)
_cell_angle_alpha                90
_cell_angle_beta                 98.673(7)
_cell_angle_gamma                90
_cell_volume                     9228.96
loop_
_atom_site_label
_atom_site_type_symbol
_atom_site_fract_x
_atom_site_fract_y
_atom_site_fract_z
Sb1 Sb 0.49384(2) 0.47217(3) 0.58768(2)
Sb2 Sb 0.61030(3) 0.58962(3) 0.56616(3)
Sb3 Sb 0.47481(3) 0.85315(3) 0.66542(3)
V1 V 0.62485(6) 0.50835(6) 0.72364(6)
V2 V 0.62356(6) 0.77126(6) 0.72756(6)
V3 V 0.67334(6) 0.64479(6) 0.71968(6)
V4 V 0.5000 0.45966(9) 0.7500
V5 V 0.62720(6) 0.72592(6) 0.86513(6)
V6 V 0.63082(6) 0.54979(6) 0.85714(6)
V7 V 0.55881(6) 0.63635(6) 0.93833(6)
V8 V 0.45650(6) 0.72896(7) 0.89651(6)
Fe1 Fe 0.74981(5) 0.38956(5) 0.75399(5)
Fe2 Fe 0.7500 0.7500 1.0000
O1 O 0.6353(2) 0.5753(3) 0.6594(2)
O2 O 0.6214(3) 0.7059(3) 0.6625(2)
O3 O 0.6834(2) 0.7617(3) 0.9140(2)
O4 O 0.6732(3) 0.8282(3) 0.7150(3)
O5 O 0.4364(3) 0.7702(3) 0.9552(3)
O6 O 0.5597(3) 0.5140(3) 0.5449(3)
O7 O 0.5413(2) 0.7896(3) 0.6761(3)
O8 O 0.7463(3) 0.6518(3) 0.7090(3)
O9 O 0.6631(2) 0.5755(3) 0.7786(2)
O10 O 0.6740(2) 0.4497(3) 0.7167(3)
O11 O 0.6881(2) 0.5121(3) 0.9016(3)
O12 O 0.5813(2) 0.4912(3) 0.7965(2)
O13 O 0.5000 0.3845(4) 0.7500
O14 O 0.5491(3) 0.7227(3) 0.9048(3)
O15 O 0.6290(2) 0.6371(3) 0.8882(2)
O16 O 0.4651(2) 0.6402(3) 0.9235(3)
O17 O 0.5417(2) 0.4874(3) 0.6761(2)
O18 O 0.4423(3) 0.5484(3) 0.5932(2)
O19 O 0.6593(3) 0.7069(3) 0.7854(3)
O20 O 0.5836(3) 0.6356(3) 1.0157(2)
O21 O 0.5000 0.8925(4) 0.7500
O22 O 0.5881(2) 0.7947(3) 0.8066(3)
N1 N 0.7175(3) 0.3799(4) 0.8474(3)
H1 H 0.7482 0.3607 0.8767
H2 H 0.7085 0.4192 0.8632
N2 N 0.6878(4) 0.3051(4) 0.7348(4)
H3 H 0.6539 0.3141 0.7033
H4 H 0.7102 0.2718 0.7206
C1 C 0.6606(7) 0.3409(8) 0.8368(6)
H5 H 0.6282 0.3686 0.8105
C2 C 0.6318(5) 0.3268(6) 0.8989(5)
H6 H 0.6617 0.2997 0.9280
H7 H 0.6268 0.3673 0.9218
C3 C 0.5681(7) 0.2937(10) 0.8858(7)
H8 H 0.5525 0.2842 0.9271
H9 H 0.5366 0.3214 0.8594
C4 C 0.5764(11) 0.2355(10) 0.8514(12)
H10 H 0.5353 0.2127 0.8429
H11 H 0.6070 0.2079 0.8790
C5 C 0.6021(5) 0.2481(5) 0.7829(6)
H12 H 0.6104 0.2072 0.7623
H13 H 0.5700 0.2720 0.7529
C6 C 0.6645(7) 0.2874(7) 0.7981(6)
H14 H 0.6972 0.2587 0.8223
N3 N 0.7845(4) 0.4050(4) 0.6607(4)
H15 H 0.7973 0.3672 0.6446
H16 H 0.7531 0.4224 0.6308
N4 N 0.8056(4) 0.4767(4) 0.7764(4)
H17 H 0.7793 0.5117 0.7730
H18 H 0.8274 0.4750 0.8179
C7 C 0.8386(8) 0.4491(8) 0.6751(7)
H19 H 0.8736 0.4170 0.6827
C8 C 0.8547(7) 0.4787(7) 0.6084(7)
H20 H 0.8620 0.4441 0.5782
H21 H 0.8186 0.5048 0.5876
C9 C 0.9155(14) 0.5206(14) 0.6240(14)
H22 H 0.9294 0.5363 0.5836
H23 H 0.9507 0.4964 0.6493
C10 C 0.8940(13) 0.5768(13) 0.6646(12)
H24 H 0.9280 0.6093 0.6724
H25 H 0.8554 0.5971 0.6409
C11 C 0.8800(8) 0.5499(7) 0.7296(8)
H26 H 0.8494 0.5786 0.7466
H27 H 0.9198 0.5505 0.7610
C12 C 0.8523(10) 0.4807(11) 0.7265(10)
H28 H 0.8894 0.4561 0.7492
N5 N 0.8266(3) 0.7597(4) 0.9426(3)
H29 H 0.8118 0.7809 0.9047
H30 H 0.8588 0.7836 0.9652
N6 N 0.7642(3) 0.6495(3) 0.9723(3)
H31 H 0.7558 0.6224 1.0046
H32 H 0.7378 0.6395 0.9346
C13 C 0.8518(6) 0.6977(5) 0.9270(9)
H33 H 0.8287 0.6899 0.8822
C14 C 0.9195(5) 0.6977(6) 0.9162(6)
H34 H 0.9235 0.7253 0.8786
H35 H 0.9458 0.7167 0.9547
C15 C 0.9457(7) 0.6339(7) 0.9044(10)
H36 H 0.9353 0.6247 0.8574
H37 H 0.9926 0.6364 0.9147
C16 C 0.9253(9) 0.5808(9) 0.9389(10)
H38 H 0.9466 0.5822 0.9844
H39 H 0.9382 0.5408 0.9193
C17 C 0.8491(4) 0.5807(4) 0.9374(5)
H40 H 0.8273 0.5743 0.8925
H41 H 0.8367 0.5458 0.9648
C18 C 0.8306(4) 0.6446(4) 0.9631(5)
H42 H 0.8556 0.6480 1.0076
Sb1A Sb 0.50616(2) 0.47217(3) 0.91232(2)
Sb2A Sb 0.38970(3) 0.58962(3) 0.93384(3)
Sb3A Sb 0.52519(3) 0.85315(3) 0.83458(3)
V1A V 0.37515(6) 0.50835(6) 0.77636(6)
V2A V 0.37644(6) 0.77126(6) 0.77244(6)
V3A V 0.32666(6) 0.64479(6) 0.78032(6)
V5A V 0.37280(6) 0.72592(6) 0.63487(6)
V6A V 0.36918(6) 0.54979(6) 0.64286(6)
V7A V 0.44119(6) 0.63635(6) 0.56167(6)
V8A V 0.54350(6) 0.72896(7) 0.60349(6)
Fe1A Fe 0.25019(5) 0.38956(5) 0.74601(5)
O1A O 0.3647(2) 0.5753(3) 0.8406(2)
O2A O 0.3786(3) 0.7059(3) 0.8375(2)
O3A O 0.3166(2) 0.7617(3) 0.5860(2)
O4A O 0.3268(3) 0.8282(3) 0.7850(3)
O5A O 0.5636(3) 0.7702(3) 0.5448(3)
O6A O 0.4403(3) 0.5140(3) 0.9551(3)
O7A O 0.4587(2) 0.7896(3) 0.8239(3)
O8A O 0.2537(3) 0.6518(3) 0.7910(3)
O9A O 0.3369(2) 0.5755(3) 0.7214(2)
O10A O 0.3260(2) 0.4497(3) 0.7833(3)
O11A O 0.3119(2) 0.5121(3) 0.5984(3)
O12A O 0.4187(2) 0.4912(3) 0.7035(2)
O14A O 0.4509(3) 0.7227(3) 0.5952(3)
O15A O 0.3710(2) 0.6371(3) 0.6118(2)
O16A O 0.5349(2) 0.6402(3) 0.5765(3)
O17A O 0.4583(2) 0.4874(3) 0.8239(2)
O18A O 0.5577(3) 0.5484(3) 0.9068(2)
O19A O 0.3407(3) 0.7069(3) 0.7146(3)
O20A O 0.4164(3) 0.6356(3) 0.4843(2)
O22A O 0.4119(2) 0.7947(3) 0.6934(3)
N1A N 0.2825(3) 0.3799(4) 0.6526(3)
H1A H 0.2518 0.3607 0.6233
H2A H 0.2915 0.4192 0.6368
N2A N 0.3122(4) 0.3051(4) 0.7652(4)
H3A H 0.3461 0.3141 0.7967
H4A H 0.2898 0.2718 0.7794
C1A C 0.3394(7) 0.3409(8) 0.6632(6)
H5A H 0.3718 0.3686 0.6895
C2A C 0.3682(5) 0.3268(6) 0.6011(5)
H6A H 0.3383 0.2997 0.5720
H7A H 0.3732 0.3673 0.5782
C3A C 0.4319(7) 0.2937(10) 0.6142(7)
H8A H 0.4475 0.2842 0.5729
H9A H 0.4634 0.3214 0.6406
C4A C 0.4236(11) 0.2355(10) 0.6486(12)
H10A H 0.4647 0.2127 0.6571
H11A H 0.3930 0.2079 0.6210
C5A C 0.3979(5) 0.2481(5) 0.7171(6)
H12A H 0.3896 0.2072 0.7377
H13A H 0.4300 0.2720 0.7471
C6A C 0.3355(7) 0.2874(7) 0.7019(6)
H14A H 0.3028 0.2587 0.6777
N3A N 0.2155(4) 0.4050(4) 0.8393(4)
H15A H 0.2027 0.3672 0.8554
H16A H 0.2469 0.4224 0.8692
N4A N 0.1944(4) 0.4767(4) 0.7236(4)
H17A H 0.2207 0.5117 0.7270
H18A H 0.1726 0.4750 0.6821
C7A C 0.1614(8) 0.4491(8) 0.8249(7)
H19A H 0.1264 0.4170 0.8173
C8A C 0.1453(7) 0.4787(7) 0.8916(7)
H20A H 0.1380 0.4441 0.9218
H21A H 0.1814 0.5048 0.9124
C9A C 0.0845(14) 0.5206(14) 0.8760(14)
H22A H 0.0706 0.5363 0.9164
H23A H 0.0493 0.4964 0.8507
C10A C 0.1060(13) 0.5768(13) 0.8354(12)
H24A H 0.0720 0.6093 0.8276
H25A H 0.1446 0.5971 0.8591
C11A C 0.1200(8) 0.5499(7) 0.7704(8)
H26A H 0.1506 0.5786 0.7534
H27A H 0.0802 0.5505 0.7390
C12A C 0.1477(10) 0.4807(11) 0.7735(10)
H28A H 0.1106 0.4561 0.7508
N5F N 0.6734(3) 0.7403(4) 1.0574(3)
H29F H 0.6882 0.7191 1.0953
H30F H 0.6412 0.7164 1.0348
N6F N 0.7358(3) 0.8505(3) 1.0277(3)
H31F H 0.7442 0.8776 0.9954
H32F H 0.7622 0.8605 1.0654
C13F C 0.6482(6) 0.8023(5) 1.0730(9)
H33F H 0.6713 0.8101 1.1178
C14F C 0.5805(5) 0.8023(6) 1.0838(6)
H34F H 0.5765 0.7747 1.1214
H35F H 0.5542 0.7833 1.0453
C15F C 0.5543(7) 0.8661(7) 1.0956(10)
H36F H 0.5647 0.8753 1.1426
H37F H 0.5074 0.8636 1.0853
C16F C 0.5747(9) 0.9192(9) 1.0611(10)
H38F H 0.5534 0.9178 1.0156
H39F H 0.5618 0.9592 1.0807
C17F C 0.6509(4) 0.9193(4) 1.0626(5)
H40F H 0.6727 0.9257 1.1075
H41F H 0.6633 0.9542 1.0352
C18F C 0.6694(4) 0.8554(4) 1.0369(5)
H42F H 0.6444 0.8520 0.9924
Fe1B Fe 0.24981(5) 0.88956(5) 0.75399(5)
Fe1C Fe 0.75019(5) 0.88956(5) 0.74601(5)
Fe2A Fe 0.2500 0.7500 0.5000
O3F O 0.8166(2) 0.7383(3) 1.0860(2)
O4B O 0.1732(3) 0.3282(3) 0.7150(3)
O4C O 0.8268(3) 0.3282(3) 0.7850(3)
O23 O 0.5000 0.6370(11) 0.7500
O24 O 0.3105(3) 0.5364(5) 0.4593(4)
O25 O 0.5969(5) 0.9109(5) 0.6171(7)
O26 O 0.6920(5) 0.8049(8) 0.5397(5)
O27 O 0.7507(5) 0.8213(7) 0.4296(4)
Sb4? Sb 0.4999(3) 0.8110(3) 0.9101(3)
Sb5? Sb 0.3856(3) 0.6927(3) 0.9302(3)
Sb6? Sb 0.4779(3) 0.4294(3) 0.6650(3)
V9? V 0.5000 0.8194(7) 0.7500
V10? V 0.5491(7) 0.5535(7) 0.6062(7)
H43? H 0.6318 0.3779 0.8242
C19? C 0.5955(17) 0.2539(19) 0.8957(18)
H44? H 0.6277 0.2197 0.9039
H45? H 0.5670 0.2511 0.9289
C20? C 0.557(2) 0.247(2) 0.828(2)
H46? H 0.5337 0.2058 0.8242
H47? H 0.5262 0.2818 0.8187
C21? C 0.6397(15) 0.3075(15) 0.7804(15)
H48? H 0.6073 0.3372 0.7572
H49? H 0.7830 0.5050 0.7978
H50? H 0.8429 0.4672 0.8030
C22? C 0.8091(10) 0.4737(11) 0.6620(10)
H51? H 0.7706 0.4962 0.6394
H52? H 0.8885 0.4460 0.6159
H53? H 0.8303 0.4724 0.5646
C23? C 0.8843(18) 0.5477(18) 0.6152(18)
H54? H 0.9071 0.5569 0.5782
H55? H 0.8503 0.5798 0.6155
C24? C 0.9271(14) 0.5502(15) 0.6743(13)
H56? H 0.9531 0.5895 0.6770
H57? H 0.9557 0.5128 0.6790
C25? C 0.8199(9) 0.5060(9) 0.7148(9)
H58? H 0.7853 0.5386 0.7068
H59? H 0.8366 0.7040 0.8796
H60? H 0.9603 0.6354 0.8615
H61? H 0.9839 0.6274 0.9372
C26? C 0.9065(15) 0.5783(16) 0.9051(17)
H62? H 0.9339 0.5436 0.9258
H63? H 0.8926 0.5655 0.8595
C27? C 0.8147(16) 0.6461(17) 0.9285(19)
H64? H 0.7900 0.6440 0.8838
loop_
_geom_bond_atom_site_label_1
_geom_bond_atom_site_label_2
_geom_bond_site_symmetry_1
_geom_bond_site_symmetry_2
Sb1 O6 1_555 1_555
Sb2 O1 1_555 1_555
Sb3 O7 1_555 1_555
V1 O1 1_555 1_555
V2 O2 1_555 1_555
V3 O1 1_555 1_555
V4 O12 1_555 1_555
V5 O3 1_555 1_555
V6 O9 1_555 1_555
V7 O14 1_555 1_555
V8 O5 1_555 1_555
Fe1 O10 1_555 1_555
Fe2 O3 1_555 1_555
O2 V3 1_555 1_555
O4 V2 1_555 1_555
O6 Sb2 1_555 1_555
O7 V2 1_555 1_555
O8 V3 1_555 1_555
O9 V1 1_555 1_555
O10 V1 1_555 1_555
O11 V6 1_555 1_555
O12 V1 1_555 1_555
O13 V4 1_555 1_555
O14 V5 1_555 1_555
O15 V5 1_555 1_555
O16 V7 1_555 1_555
O17 Sb1 1_555 1_555
O18 Sb1 1_555 1_555
O19 V2 1_555 1_555
O20 V7 1_555 1_555
O21 Sb3 1_555 1_555
O22 V2 1_555 1_555
N1 Fe1 1_555 1_555
H1 N1 1_555 1_555
H2 N1 1_555 1_555
N2 Fe1 1_555 1_555
H3 N2 1_555 1_555
H4 N2 1_555 1_555
C1 N1 1_555 1_555
H5 C1 1_555 1_555
C2 C1 1_555 1_555
H6 C2 1_555 1_555
H7 C2 1_555 1_555
C3 C2 1_555 1_555
H8 C3 1_555 1_555
H9 C3 1_555 1_555
C4 C3 1_555 1_555
H10 C4 1_555 1_555
H11 C4 1_555 1_555
C5 C4 1_555 1_555
H12 C5 1_555 1_555
H13 C5 1_555 1_555
C6 N2 1_555 1_555
H14 C6 1_555 1_555
N3 Fe1 1_555 1_555
H15 N3 1_555 1_555
H16 N3 1_555 1_555
N4 Fe1 1_555 1_555
H17 N4 1_555 1_555
H18 N4 1_555 1_555
C7 N3 1_555 1_555
H19 C7 1_555 1_555
C8 C7 1_555 1_555
H20 C8 1_555 1_555
H21 C8 1_555 1_555
C9 C8 1_555 1_555
H22 C9 1_555 1_555
H23 C9 1_555 1_555
C10 C9 1_555 1_555
H24 C10 1_555 1_555
H25 C10 1_555 1_555
C11 C10 1_555 1_555
H26 C11 1_555 1_555
H27 C11 1_555 1_555
C12 N4 1_555 1_555
H28 C12 1_555 1_555
N5 Fe2 1_555 1_555
H29 N5 1_555 1_555
H30 N5 1_555 1_555
N6 Fe2 1_555 1_555
H31 N6 1_555 1_555
H32 N6 1_555 1_555
C13 N5 1_555 1_555
H33 C13 1_555 1_555
C14 C13 1_555 1_555
H34 C14 1_555 1_555
H35 C14 1_555 1_555
C15 C14 1_555 1_555
H36 C15 1_555 1_555
H37 C15 1_555 1_555
C16 C15 1_555 1_555
H38 C16 1_555 1_555
H39 C16 1_555 1_555
C17 C16 1_555 1_555
H40 C17 1_555 1_555
H41 C17 1_555 1_555
C18 N6 1_555 1_555
H42 C18 1_555 1_555
Sb1A O6A 1_555 1_555
Sb2A O16 1_555 1_555
Sb3A O21 1_555 1_555
V1A O1A 1_555 1_555
V2A O2A 1_555 1_555
V3A O1A 1_555 1_555
V5A O3A 1_555 1_555
V6A O18 1_555 1_555
V7A O18 1_555 1_555
V8A O2 1_555 1_555
Fe1A O10A 1_555 1_555
O1A Sb2A 1_555 1_555
O2A V8 1_555 1_555
O3A Fe2A 1_555 1_555
O4A V2A 1_555 1_555
O5A V8A 1_555 1_555
O6A Sb2A 1_555 1_555
O7A V8 1_555 1_555
O8A V3A 1_555 1_555
O9A V1A 1_555 1_555
O10A V1A 1_555 1_555
O11A V6A 1_555 1_555
O12A V4 1_555 1_555
O14A V5A 1_555 1_555
O15A V5A 1_555 1_555
O16A Sb2 1_555 1_555
O17A V4 1_555 1_555
O18A V6 1_555 1_555
O19A V2A 1_555 1_555
O20A V7A 1_555 1_555
O22A Sb3 1_555 1_555
N1A Fe1A 1_555 1_555
H1A N1A 1_555 1_555
H2A N1A 1_555 1_555
N2A Fe1A 1_555 1_555
H3A N2A 1_555 1_555
H4A N2A 1_555 1_555
C1A N1A 1_555 1_555
H5A C1A 1_555 1_555
C2A C1A 1_555 1_555
H6A C2A 1_555 1_555
H7A C2A 1_555 1_555
C3A C2A 1_555 1_555
H8A C3A 1_555 1_555
H9A C3A 1_555 1_555
C4A C3A 1_555 1_555
H10A C4A 1_555 1_555
H11A C4A 1_555 1_555
C5A C4A 1_555 1_555
H12A C5A 1_555 1_555
H13A C5A 1_555 1_555
C6A N2A 1_555 1_555
H14A C6A 1_555 1_555
N3A Fe1A 1_555 1_555
H15A N3A 1_555 1_555
H16A N3A 1_555 1_555
N4A Fe1A 1_555 1_555
H17A N4A 1_555 1_555
H18A N4A 1_555 1_555
C7A N3A 1_555 1_555
H19A C7A 1_555 1_555
C8A C7A 1_555 1_555
H20A C8A 1_555 1_555
H21A C8A 1_555 1_555
C9A C8A 1_555 1_555
H22A C9A 1_555 1_555
H23A C9A 1_555 1_555
C10A C9A 1_555 1_555
H24A C10A 1_555 1_555
H25A C10A 1_555 1_555
C11A C10A 1_555 1_555
H26A C11A 1_555 1_555
H27A C11A 1_555 1_555
C12A N4A 1_555 1_555
H28A C12A 1_555 1_555
N5F Fe2 1_555 1_555
H29F N5F 1_555 1_555
H30F N5F 1_555 1_555
N6F Fe2 1_555 1_555
H31F N6F 1_555 1_555
H32F N6F 1_555 1_555
C13F N5F 1_555 1_555
H33F C13F 1_555 1_555
C14F C13F 1_555 1_555
H34F C14F 1_555 1_555
H35F C14F 1_555 1_555
C15F C14F 1_555 1_555
H36F C15F 1_555 1_555
H37F C15F 1_555 1_555
C16F C15F 1_555 1_555
H38F C16F 1_555 1_555
H39F C16F 1_555 1_555
C17F C16F 1_555 1_555
H40F C17F 1_555 1_555
H41F C17F 1_555 1_555
C18F N6F 1_555 1_555
H42F C18F 1_555 1_555
Fe1B O4A 1_555 1_555
Fe1C O4 1_555 1_555
O3F Fe2 1_555 1_555
O4B Fe1A 1_555 1_555
O4C Fe1 1_555 1_555
V1 O17 1_555 1_555
V3 O9 1_555 1_555
V3 O19 1_555 1_555
V4 O17 1_555 1_555
V5 O19 1_555 1_555
V5 O22 1_555 1_555
V6 O12 1_555 1_555
V6 O15 1_555 1_555
V7 O15 1_555 1_555
V7 O18A 1_555 1_555
V8 O14 1_555 1_555
V8 O16 1_555 1_555
O7 V8A 1_555 1_555
O22 Sb3A 1_555 1_555
C1 C6 1_555 1_555
C5 C6 1_555 1_555
C7 C12 1_555 1_555
C11 C12 1_555 1_555
C13 C18 1_555 1_555
C17 C18 1_555 1_555
Sb1A O17A 1_555 1_555
Sb1A O18A 1_555 1_555
Sb3A O7A 1_555 1_555
V1A O12A 1_555 1_555
V1A O17A 1_555 1_555
V2A O7A 1_555 1_555
V2A O22A 1_555 1_555
V3A O2A 1_555 1_555
V3A O9A 1_555 1_555
V3A O19A 1_555 1_555
V5A O19A 1_555 1_555
V5A O22A 1_555 1_555
V6A O9A 1_555 1_555
V6A O12A 1_555 1_555
V6A O15A 1_555 1_555
V7A O14A 1_555 1_555
V7A O15A 1_555 1_555
V7A O16A 1_555 1_555
V8A O14A 1_555 1_555
V8A O16A 1_555 1_555
C1A C6A 1_555 1_555
C5A C6A 1_555 1_555
C7A C12A 1_555 1_555
C11A C12A 1_555 1_555
C13F C18F 1_555 1_555
C17F C18F 1_555 1_555

#END
