
#######################################################################
#
#                 Cambridge Crystallographic Data Centre
#                                CCDC 
#
#######################################################################
#
# If this CIF has been generated from an entry in the Cambridge 
# Structural Database, then it will include bibliographic, chemical, 
# crystal, experimental, refinement or atomic coordinate data resulting 
# from the CCDC's data processing and validation procedures.
#
#######################################################################

data_BESXIH
_symmetry_cell_setting           monoclinic
_symmetry_space_group_name_H-M   'P 21'
_symmetry_Int_Tables_number      4
_space_group_name_Hall           'P 2yb'
loop_
_symmetry_equiv_pos_site_id
_symmetry_equiv_pos_as_xyz
1 x,y,z
2 -x,1/2+y,-z
_cell_length_a                   9.911(1)
_cell_length_b                   5.271(1)
_cell_length_c                   11.510(1)
_cell_angle_alpha                90
_cell_angle_beta                 109.33(1)
_cell_angle_gamma                90
_cell_volume                     567.396
loop_
_atom_site_label
_atom_site_type_symbol
_atom_site_fract_x
_atom_site_fract_y
_atom_site_fract_z
Cu1 Cu 0.32247(3) 0.89080(5) 0.54984(3)
O1 O 0.0179(2) 1.0947(5) 0.6846(3)
O2 O 0.1828(2) 1.0903(4) 0.5929(2)
C1 C 0.1088(3) 0.9835(6) 0.6512(3)
C2 C 0.1298(3) 0.7003(6) 0.6804(3)
H1 H 0.037(3) 0.616(6) 0.636(3)
O3 O 0.2354(3) 0.6068(4) 0.6317(2)
H2 H 0.218(3) 0.477(6) 0.616(3)
C3 C 0.1692(3) 0.6401(6) 0.8161(3)
H3 H 0.101(4) 0.722(7) 0.847(3)
H4 H 0.166(4) 0.470(7) 0.832(3)
C4 C 0.3159(4) 0.7322(8) 0.8929(4)
O4 O 0.4033(3) 0.5962(7) 0.9604(3)
O5 O 0.3328(4) 0.9748(6) 0.8821(3)
H5 H 0.409(4) 0.996(8) 0.936(4)
O6 O 0.4471(2) 0.6739(4) 0.49749(19)
O7 O 0.5146(2) 0.5752(5) 0.3373(2)
C5 C 0.4278(3) 0.6698(5) 0.3843(3)
C6 C 0.2906(3) 0.7791(6) 0.2942(3)
H6 H 0.240(3) 0.633(7) 0.250(3)
O8 O 0.20656(17) 0.8850(6) 0.36355(17)
H7 H 0.147(4) 0.793(7) 0.350(3)
C7 C 0.3198(3) 0.9817(6) 0.2130(3)
H8 H 0.387(3) 0.903(11) 0.166(3)
H9 H 0.356(4) 1.132(8) 0.257(4)
C8 C 0.1815(3) 1.0581(6) 0.1154(3)
O9 O 0.0899(2) 0.9045(7) 0.06591(19)
O10 O 0.1713(3) 1.3019(4) 0.0927(2)
H10 H 0.090(4) 1.366(10) 0.041(3)
O7A O 0.4854(2) 1.0752(5) 0.6627(2)
Cu1A Cu 0.67753(3) 0.39080(5) 0.45016(3)
loop_
_geom_bond_atom_site_label_1
_geom_bond_atom_site_label_2
_geom_bond_site_symmetry_1
_geom_bond_site_symmetry_2
Cu1 O2 1_555 1_555
O1 C1 1_555 1_555
O2 C1 1_555 1_555
C1 C2 1_555 1_555
C2 H1 1_555 1_555
O3 Cu1 1_555 1_555
H2 O3 1_555 1_555
C3 C2 1_555 1_555
H3 C3 1_555 1_555
H4 C3 1_555 1_555
C4 C3 1_555 1_555
O4 C4 1_555 1_555
O5 C4 1_555 1_555
H5 O5 1_555 1_555
O6 Cu1 1_555 1_555
O7 C5 1_555 1_555
C5 O6 1_555 1_555
C6 C5 1_555 1_555
H6 C6 1_555 1_555
O8 Cu1 1_555 1_555
H7 O8 1_555 1_555
C7 C6 1_555 1_555
H8 C7 1_555 1_555
H9 C7 1_555 1_555
C8 C7 1_555 1_555
O9 C8 1_555 1_555
O10 C8 1_555 1_555
H10 O10 1_555 1_555
O7A Cu1 1_555 1_555
Cu1A O7 1_555 1_555
C2 O3 1_555 1_555
C6 O8 1_555 1_555

#END
