
#######################################################################
#
#                 Cambridge Crystallographic Data Centre
#                                CCDC 
#
#######################################################################
#
# If this CIF has been generated from an entry in the Cambridge 
# Structural Database, then it will include bibliographic, chemical, 
# crystal, experimental, refinement or atomic coordinate data resulting 
# from the CCDC's data processing and validation procedures.
#
#######################################################################

data_BETDUB
_symmetry_cell_setting           monoclinic
_symmetry_space_group_name_H-M   'C 2/c'
_symmetry_Int_Tables_number      15
_space_group_name_Hall           '-C 2yn'
loop_
_symmetry_equiv_pos_site_id
_symmetry_equiv_pos_as_xyz
1 x,y,z
2 -x,y,1/2-z
3 1/2+x,1/2+y,z
4 1/2-x,1/2+y,1/2-z
5 -x,-y,-z
6 x,-y,1/2+z
7 1/2-x,1/2-y,-z
8 1/2+x,1/2-y,1/2+z
_cell_length_a                   29.255(2)
_cell_length_b                   12.6990(19)
_cell_length_c                   14.2602(10)
_cell_angle_alpha                90
_cell_angle_beta                 97.522(8)
_cell_angle_gamma                90
_cell_volume                     5252.21
loop_
_atom_site_label
_atom_site_type_symbol
_atom_site_fract_x
_atom_site_fract_y
_atom_site_fract_z
Eu1 Eu 0.814484(15) 0.19936(4) 0.54244(3)
O1 O 0.8858(2) 0.1486(7) 0.4800(6)
O2 O 0.8767(3) 0.3181(6) 0.4996(6)
O3 O 1.2298(2) 0.6440(5) 0.4710(5)
O4 O 1.2880(2) 0.5413(6) 0.4551(5)
O5 O 1.2664(3) 0.3225(7) 0.1621(5)
O6 O 1.1986(2) 0.2427(8) 0.1231(5)
O7 O 0.8464(3) 0.0471(8) 0.6307(7)
O8 O 0.8588(3) 0.2704(8) 0.6826(7)
N1 N 1.0953(3) 0.3990(8) 0.3499(5)
N2 N 0.8863(7) 0.3558(17) 0.8183(14)
C1 C 0.8999(3) 0.2442(10) 0.4761(7)
C2 C 0.9445(3) 0.2615(10) 0.4352(8)
C3 C 0.9697(4) 0.1776(12) 0.4061(11)
H1 H 0.9582 0.1095 0.4067
C4 C 1.0119(5) 0.1960(10) 0.3765(12)
H2 H 1.0288 0.1395 0.3577
C5 C 1.0296(4) 0.2953(10) 0.3739(8)
C6 C 1.0036(4) 0.3785(11) 0.4034(8)
H3 H 1.0147 0.4470 0.4015
C7 C 0.9619(4) 0.3601(11) 0.4353(9)
H4 H 0.9456 0.4159 0.4571
C8 C 1.0764(4) 0.3126(11) 0.3460(8)
H5 H 1.088(4) 0.245(4) 0.336(9)
C9 C 1.2461(3) 0.5620(8) 0.4351(7)
C10 C 1.2158(3) 0.4902(8) 0.3749(6)
C11 C 1.1694(3) 0.4816(9) 0.3845(6)
H6 H 1.1569 0.5246 0.4274
C12 C 1.1414(3) 0.4099(8) 0.3311(6)
C13 C 1.1593(3) 0.3503(9) 0.2617(6)
H7 H 1.1410 0.3019 0.2252
C14 C 1.2058(3) 0.3652(9) 0.2485(6)
C15 C 1.2342(3) 0.4301(8) 0.3068(6)
H8 H 1.2654 0.4341 0.3011
C16 C 1.2256(3) 0.3055(9) 0.1721(7)
C17 C 0.8481(10) 0.3107(19) 0.758(2)
C18 C 0.8656(9) 0.411(2) 0.8927(18)
H9 H 0.8894 0.4440 0.9357
H10 H 0.8490 0.3620 0.9266
H11 H 0.8447 0.4643 0.8645
C19 C 0.9340(8) 0.372(2) 0.8023(18)
H12 H 0.9510 0.4038 0.8573
H13 H 0.9348 0.4174 0.7487
H14 H 0.9477 0.3054 0.7903
Eu1A Eu 1.185516(15) 0.19936(4) -0.04244(3)
Eu1B Eu 1.314484(15) 0.69936(4) 0.54244(3)
Eu1D Eu 1.185516(15) 0.80064(4) 0.45756(3)
Eu1G Eu 1.314484(15) 0.30064(4) 0.04244(3)
O3B O 0.7298(2) 0.1440(5) 0.4710(5)
O3D O 0.7702(2) 0.3560(5) 0.5290(5)
O4B O 0.7880(2) 0.0413(6) 0.4551(5)
O5G O 0.7664(3) 0.1775(7) 0.6621(5)
O6A O 0.8014(2) 0.2427(8) 0.3769(5)
loop_
_geom_bond_atom_site_label_1
_geom_bond_atom_site_label_2
_geom_bond_site_symmetry_1
_geom_bond_site_symmetry_2
Eu1 O1 1_555 1_555
O1 C1 1_555 1_555
O2 Eu1 1_555 1_555
O3 C9 1_555 1_555
O4 C9 1_555 1_555
O5 C16 1_555 1_555
O6 C16 1_555 1_555
O7 Eu1 1_555 1_555
O8 Eu1 1_555 1_555
N1 C8 1_555 1_555
N2 C17 1_555 1_555
C1 O2 1_555 1_555
C2 C1 1_555 1_555
C3 C2 1_555 1_555
H1 C3 1_555 1_555
C4 C3 1_555 1_555
H2 C4 1_555 1_555
C5 C4 1_555 1_555
C6 C5 1_555 1_555
H3 C6 1_555 1_555
C7 C2 1_555 1_555
H4 C7 1_555 1_555
C8 C5 1_555 1_555
H5 C8 1_555 1_555
C9 C10 1_555 1_555
C10 C11 1_555 1_555
C11 H6 1_555 1_555
C12 N1 1_555 1_555
C13 C12 1_555 1_555
H7 C13 1_555 1_555
C14 C13 1_555 1_555
C15 C10 1_555 1_555
H8 C15 1_555 1_555
C16 C14 1_555 1_555
C17 O8 1_555 1_555
C18 N2 1_555 1_555
H9 C18 1_555 1_555
H10 C18 1_555 1_555
H11 C18 1_555 1_555
C19 N2 1_555 1_555
H12 C19 1_555 1_555
H13 C19 1_555 1_555
H14 C19 1_555 1_555
Eu1A O6 1_555 1_555
Eu1B O3 1_555 1_555
Eu1D O3 1_555 1_555
Eu1G O5 1_555 1_555
O3B Eu1 1_555 1_555
O3D Eu1 1_555 1_555
O4B Eu1 1_555 1_555
O5G Eu1 1_555 1_555
O6A Eu1 1_555 1_555
O4 Eu1B 1_555 1_555
C6 C7 1_555 1_555
C11 C12 1_555 1_555
C14 C15 1_555 1_555

#END
