
#######################################################################
#
#                 Cambridge Crystallographic Data Centre
#                                CCDC 
#
#######################################################################
#
# If this CIF has been generated from an entry in the Cambridge 
# Structural Database, then it will include bibliographic, chemical, 
# crystal, experimental, refinement or atomic coordinate data resulting 
# from the CCDC's data processing and validation procedures.
#
#######################################################################

data_BETHUF
_symmetry_cell_setting           tetragonal
_symmetry_space_group_name_H-M   'P 41'
_symmetry_Int_Tables_number      76
_space_group_name_Hall           'P 4w'
loop_
_symmetry_equiv_pos_site_id
_symmetry_equiv_pos_as_xyz
1 x,y,z
2 -y,x,1/4+z
3 -x,-y,1/2+z
4 y,-x,3/4+z
_cell_length_a                   7.53850(1)
_cell_length_b                   7.53850(1)
_cell_length_c                   22.7308(1)
_cell_angle_alpha                90
_cell_angle_beta                 90
_cell_angle_gamma                90
_cell_volume                     1291.77
loop_
_atom_site_label
_atom_site_type_symbol
_atom_site_fract_x
_atom_site_fract_y
_atom_site_fract_z
Cu1 Cu 0.80916(5) 0.65734(6) 0.171310(18)
O1 O 0.3317(3) -0.0201(3) 0.35701(12)
O2 O 0.6224(4) -0.0039(4) 0.36991(11)
O3 O 0.6296(3) 0.6997(3) 0.22976(11)
O4 O 0.3379(3) 0.7028(4) 0.24212(12)
O5 O 0.9872(4) 0.7225(6) 0.22784(15)
H1 H 1.0991 0.7168 0.2322
H2 H 0.9394 0.7720 0.2575
N1 N 0.6047(4) 0.5830(4) 0.11968(13)
H3 H 0.6262 0.6228 0.0826
C1 C 0.4880(5) 0.0271(4) 0.34037(17)
C2 C 0.5019(5) 0.1264(4) 0.28346(16)
C3 C 0.3552(5) 0.1710(5) 0.25003(18)
H4 H 0.2422 0.1420 0.2633
C4 C 0.3756(5) 0.2584(5) 0.19700(18)
H5 H 0.2755 0.2889 0.1754
C5 C 0.5429(5) 0.3018(4) 0.17526(19)
C6 C 0.6896(5) 0.2583(5) 0.21007(18)
H6 H 0.8029 0.2874 0.1971
C7 C 0.6689(5) 0.1730(5) 0.26314(19)
H7 H 0.7683 0.1463 0.2857
C8 C 0.5676(5) 0.3876(4) 0.11643(16)
H8 H 0.4613 0.3691 0.0932
H9 H 0.6651 0.3298 0.0963
C9 C 0.4710(5) 0.6935(5) 0.21054(17)
C10 C 0.4497(5) 0.6819(5) 0.14351(17)
H10 H 0.3405 0.6173 0.1342
C11 C 0.4414(6) 0.8654(5) 0.11656(18)
H11 H 0.4296 0.8554 0.0746
H12 H 0.5481 0.9290 0.1258
H13 H 0.3411 0.9282 0.1322
Cu1A Cu 0.34266(6) -0.19084(5) 0.421310(18)
O1C O 0.9799(3) 0.6683(3) 0.10701(12)
O6 O 0.9706(4) 0.8823(4) 0.33389(15)
H14 H 1.0778 0.9108 0.3406
H15 H 0.8720 0.9310 0.3421
loop_
_geom_bond_atom_site_label_1
_geom_bond_atom_site_label_2
_geom_bond_site_symmetry_1
_geom_bond_site_symmetry_2
Cu1 O3 1_555 1_555
O1 C1 1_555 1_555
O2 C1 1_555 1_555
O3 C9 1_555 1_555
O4 C9 1_555 1_555
O5 Cu1 1_555 1_555
H1 O5 1_555 1_555
H2 O5 1_555 1_555
N1 Cu1 1_555 1_555
H3 N1 1_555 1_555
C1 C2 1_555 1_555
C2 C3 1_555 1_555
C3 H4 1_555 1_555
C4 C3 1_555 1_555
H5 C4 1_555 1_555
C5 C4 1_555 1_555
C6 C5 1_555 1_555
H6 C6 1_555 1_555
C7 C2 1_555 1_555
H7 C7 1_555 1_555
C8 N1 1_555 1_555
H8 C8 1_555 1_555
H9 C8 1_555 1_555
C9 C10 1_555 1_555
C10 N1 1_555 1_555
H10 C10 1_555 1_555
C11 C10 1_555 1_555
H11 C11 1_555 1_555
H12 C11 1_555 1_555
H13 C11 1_555 1_555
O6 H14 1_555 1_555
H15 O6 1_555 1_555
Cu1A O1 1_555 1_555
O1C Cu1 1_555 1_555
C5 C8 1_555 1_555
C6 C7 1_555 1_555

#END
