
#######################################################################
#
#                 Cambridge Crystallographic Data Centre
#                                CCDC 
#
#######################################################################
#
# If this CIF has been generated from an entry in the Cambridge 
# Structural Database, then it will include bibliographic, chemical, 
# crystal, experimental, refinement or atomic coordinate data resulting 
# from the CCDC's data processing and validation procedures.
#
#######################################################################

data_BETJAN
_symmetry_cell_setting           tetragonal
_symmetry_space_group_name_H-M   'P 43'
_symmetry_Int_Tables_number      78
_space_group_name_Hall           'P 4cw'
loop_
_symmetry_equiv_pos_site_id
_symmetry_equiv_pos_as_xyz
1 x,y,z
2 -y,x,3/4+z
3 -x,-y,1/2+z
4 y,-x,1/4+z
_cell_length_a                   7.5402(2)
_cell_length_b                   7.5402(2)
_cell_length_c                   22.7232(1)
_cell_angle_alpha                90
_cell_angle_beta                 90
_cell_angle_gamma                90
_cell_volume                     1291.92
loop_
_atom_site_label
_atom_site_type_symbol
_atom_site_fract_x
_atom_site_fract_y
_atom_site_fract_z
Cu1 Cu 0.34321(5) 0.19118(4) 0.102059(18)
O1 O 0.3316(3) 0.0208(3) 0.03759(12)
O2 O 0.6227(3) 0.0041(3) 0.05046(12)
O3 O 0.6298(3) -0.6989(3) -0.08953(11)
O4 O 0.3376(3) -0.7017(4) -0.07677(11)
O5 O 0.2796(6) 0.0130(4) 0.15871(15)
H1 H 0.2856 -0.0987 0.1632
H2 H 0.2285 0.0407 0.1908
N1 N 0.6048(3) -0.5822(3) -0.19928(12)
H3 H 0.6264 -0.6221 -0.2364
C1 C 0.4877(5) -0.0267(4) 0.02104(16)
C2 C 0.5014(5) -0.1261(4) -0.03554(16)
C3 C 0.3551(5) -0.1701(4) -0.06931(17)
H4 H 0.2421 -0.1402 -0.0562
C4 C 0.3749(4) -0.2583(4) -0.12235(16)
H5 H 0.2748 -0.2890 -0.1439
C5 C 0.5423(4) -0.3016(4) -0.14391(16)
C6 C 0.6891(4) -0.2581(5) -0.10935(17)
H6 H 0.8022 -0.2875 -0.1224
C7 C 0.6693(5) -0.1724(5) -0.05622(18)
H7 H 0.7690 -0.1451 -0.0339
C8 C 0.5679(4) -0.3870(4) -0.20285(15)
H8 H 0.6658 -0.3293 -0.2228
H9 H 0.4620 -0.3684 -0.2263
C9 C 0.4704(4) -0.6933(4) -0.10902(15)
C10 C 0.4493(4) -0.6808(4) -0.17583(15)
H10 H 0.3402 -0.6162 -0.1853
C11 C 0.4410(5) -0.8655(5) -0.20227(18)
H11 H 0.4335 -0.8567 -0.2443
H12 H 0.3384 -0.9263 -0.1875
H13 H 0.5459 -0.9302 -0.1917
Cu1A Cu 0.80882(4) -0.65679(5) -0.147941(18)
O3C O 0.3011(3) 0.3702(3) 0.16047(11)
N1C N 0.4178(3) 0.3952(3) 0.05072(12)
O6 O -0.0299(4) 0.1160(5) 0.01442(16)
H14 H -0.1148 0.0957 0.0381
H15 H 0.0774 0.0881 0.0211
loop_
_geom_bond_atom_site_label_1
_geom_bond_atom_site_label_2
_geom_bond_site_symmetry_1
_geom_bond_site_symmetry_2
Cu1 O1 1_555 1_555
O1 C1 1_555 1_555
O2 C1 1_555 1_555
O3 C9 1_555 1_555
O4 C9 1_555 1_555
O5 Cu1 1_555 1_555
H1 O5 1_555 1_555
H2 O5 1_555 1_555
N1 H3 1_555 1_555
C1 C2 1_555 1_555
C2 C3 1_555 1_555
C3 H4 1_555 1_555
C4 C3 1_555 1_555
H5 C4 1_555 1_555
C5 C4 1_555 1_555
C6 C5 1_555 1_555
H6 C6 1_555 1_555
C7 C2 1_555 1_555
H7 C7 1_555 1_555
C8 N1 1_555 1_555
H8 C8 1_555 1_555
H9 C8 1_555 1_555
C9 C10 1_555 1_555
C10 N1 1_555 1_555
H10 C10 1_555 1_555
C11 C10 1_555 1_555
H11 C11 1_555 1_555
H12 C11 1_555 1_555
H13 C11 1_555 1_555
O6 H14 1_555 1_555
H15 O6 1_555 1_555
Cu1A O3 1_555 1_555
O3C Cu1 1_555 1_555
N1C Cu1 1_555 1_555
N1 Cu1A 1_555 1_555
C5 C8 1_555 1_555
C6 C7 1_555 1_555

#END
