
#######################################################################
#
#                 Cambridge Crystallographic Data Centre
#                                CCDC 
#
#######################################################################
#
# If this CIF has been generated from an entry in the Cambridge 
# Structural Database, then it will include bibliographic, chemical, 
# crystal, experimental, refinement or atomic coordinate data resulting 
# from the CCDC's data processing and validation procedures.
#
#######################################################################

data_BETTAV
_symmetry_cell_setting           orthorhombic
_symmetry_space_group_name_H-M   'P n m a'
_symmetry_Int_Tables_number      62
_space_group_name_Hall           '-P 2ac 2n'
loop_
_symmetry_equiv_pos_site_id
_symmetry_equiv_pos_as_xyz
1 x,y,z
2 1/2-x,-y,1/2+z
3 1/2+x,1/2-y,1/2-z
4 -x,1/2+y,-z
5 -x,-y,-z
6 1/2+x,y,1/2-z
7 1/2-x,1/2+y,1/2+z
8 x,1/2-y,z
_cell_length_a                   10.898(1)
_cell_length_b                   14.413(2)
_cell_length_c                   21.402(2)
_cell_angle_alpha                90
_cell_angle_beta                 90
_cell_angle_gamma                90
_cell_volume                     3361.67
loop_
_atom_site_label
_atom_site_type_symbol
_atom_site_fract_x
_atom_site_fract_y
_atom_site_fract_z
Cd1 Cd 0.04264 0.10794 0.04100
N1 N -0.11530 -0.00320 0.04040
C1 C -0.18390 -0.02740 0.07770
S1 S -0.27624 -0.06197 0.13155
N2 N 0.14910 0.03540 0.11610
C2 C 0.24670 0.02010 0.13330
S2 S 0.38574 -0.00080 0.15536
N3 N -0.06430 0.20240 0.11310
C3 C -0.13930 0.17680 0.15670
N4 N -0.18910 0.25000 0.18580
N5 N 0.21850 0.20240 0.02780
C4 C 0.33200 0.17660 0.01950
N6 N 0.40710 0.25000 0.01410
N7 N -0.03910 0.20240 -0.03820
C5 C -0.05920 0.17630 -0.09640
N8 N -0.07340 0.25000 -0.13400
C6 C -0.27850 0.25000 0.24020
C7 C -0.20510 0.25000 0.29960
C8 C -0.35570 0.33630 0.23530
C9 C 0.54210 0.25000 0.00190
C10 C 0.55990 0.25000 -0.06780
C11 C 0.59580 0.33640 0.02870
C12 C -0.09720 0.25000 -0.20360
C13 C -0.23530 0.25000 -0.21330
C14 C -0.03960 0.16310 -0.23070
H1 H -0.15100 0.11700 0.16800
H2 H 0.35500 0.11000 0.02500
H3 H -0.07300 0.12000 -0.10500
H4 H -0.25400 0.25000 0.33700
H5 H -0.15300 0.19700 0.30100
H6 H -0.42100 0.32300 0.26400
H7 H -0.30800 0.39100 0.24200
H8 H -0.40000 0.34000 0.19700
H9 H 0.64500 0.25000 -0.07700
H10 H 0.51000 0.21200 -0.09400
H11 H 0.58800 0.34900 0.07200
H12 H 0.67600 0.33400 0.01200
H13 H 0.57400 0.34800 -0.01400
H14 H -0.25700 0.25000 -0.25600
H15 H -0.26800 0.30400 -0.19300
H16 H 0.04400 0.16000 -0.22000
H17 H -0.07200 0.10600 -0.21600
H18 H -0.05200 0.17400 -0.27400
Cd1D Cd -0.04264 -0.10794 -0.04100
N1D N 0.11530 0.00320 -0.04040
N3G N -0.06430 0.29760 0.11310
C3G C -0.13930 0.32320 0.15670
N5G N 0.21850 0.29760 0.02780
C4G C 0.33200 0.32340 0.01950
N7G N -0.03910 0.29760 -0.03820
C5G C -0.05920 0.32370 -0.09640
C8G C -0.35570 0.16370 0.23530
H5G H -0.15300 0.30300 0.30100
C11G C 0.59580 0.16360 0.02870
H10G H 0.51000 0.28800 -0.09400
C14G C -0.03960 0.33690 -0.23070
H15G H -0.26800 0.19600 -0.19300
C1D C 0.18390 0.02740 -0.07770
Cd1G Cd 0.04264 0.39206 0.04100
H1G H -0.15100 0.38300 0.16800
H2G H 0.35500 0.39000 0.02500
H3G H -0.07300 0.38000 -0.10500
H6G H -0.42100 0.17700 0.26400
H7G H -0.30800 0.10900 0.24200
H8G H -0.40000 0.16000 0.19700
H11G H 0.58800 0.15100 0.07200
H12G H 0.67600 0.16600 0.01200
H13G H 0.57400 0.15200 -0.01400
H16G H 0.04400 0.34000 -0.22000
H17G H -0.07200 0.39400 -0.21600
H18G H -0.05200 0.32600 -0.27400
S1D S 0.27624 0.06197 -0.13155
N1G N -0.11530 0.50320 0.04040
N1C N 0.11530 0.49680 -0.04040
N2G N 0.14910 0.46460 0.11610
C2G C 0.24670 0.47990 0.13330
S2G S 0.38574 0.50080 0.15536
loop_
_geom_bond_atom_site_label_1
_geom_bond_atom_site_label_2
_geom_bond_site_symmetry_1
_geom_bond_site_symmetry_2
Cd1 N1 1_555 1_555
N1 C1 1_555 1_555
C1 S1 1_555 1_555
N2 Cd1 1_555 1_555
C2 N2 1_555 1_555
S2 C2 1_555 1_555
N3 Cd1 1_555 1_555
C3 N3 1_555 1_555
N4 C3 1_555 1_555
N5 Cd1 1_555 1_555
C4 N5 1_555 1_555
N6 C4 1_555 1_555
N7 Cd1 1_555 1_555
C5 N7 1_555 1_555
N8 C5 1_555 1_555
C6 N4 1_555 1_555
C7 C6 1_555 1_555
C8 C6 1_555 1_555
C9 N6 1_555 1_555
C10 C9 1_555 1_555
C11 C9 1_555 1_555
C12 N8 1_555 1_555
C13 C12 1_555 1_555
C14 C12 1_555 1_555
H1 C3 1_555 1_555
H2 C4 1_555 1_555
H3 C5 1_555 1_555
H4 C7 1_555 1_555
H5 C7 1_555 1_555
H6 C8 1_555 1_555
H7 C8 1_555 1_555
H8 C8 1_555 1_555
H9 C10 1_555 1_555
H10 C10 1_555 1_555
H11 C11 1_555 1_555
H12 C11 1_555 1_555
H13 C11 1_555 1_555
H14 C13 1_555 1_555
H15 C13 1_555 1_555
H16 C14 1_555 1_555
H17 C14 1_555 1_555
H18 C14 1_555 1_555
Cd1D N1 1_555 1_555
N1D Cd1 1_555 1_555
N3G N3 1_555 1_555
C3G N4 1_555 1_555
N5G N5 1_555 1_555
C4G N6 1_555 1_555
N7G N7 1_555 1_555
C5G N8 1_555 1_555
C8G C6 1_555 1_555
H5G C7 1_555 1_555
C11G C9 1_555 1_555
H10G C10 1_555 1_555
C14G C12 1_555 1_555
H15G C13 1_555 1_555
C1D N1D 1_555 1_555
Cd1G N3G 1_555 1_555
H1G C3G 1_555 1_555
H2G C4G 1_555 1_555
H3G C5G 1_555 1_555
H6G C8G 1_555 1_555
H7G C8G 1_555 1_555
H8G C8G 1_555 1_555
H11G C11G 1_555 1_555
H12G C11G 1_555 1_555
H13G C11G 1_555 1_555
H16G C14G 1_555 1_555
H17G C14G 1_555 1_555
H18G C14G 1_555 1_555
S1D C1D 1_555 1_555
N1G Cd1G 1_555 1_555
N1C Cd1G 1_555 1_555
N2G Cd1G 1_555 1_555
C2G N2G 1_555 1_555
S2G C2G 1_555 1_555
Cd1D N1D 1_555 1_555
N3G C3G 1_555 1_555
N5G C4G 1_555 1_555
N5G Cd1G 1_555 1_555
N7G C5G 1_555 1_555
N7G Cd1G 1_555 1_555

#END
