
#######################################################################
#
#                 Cambridge Crystallographic Data Centre
#                                CCDC 
#
#######################################################################
#
# If this CIF has been generated from an entry in the Cambridge 
# Structural Database, then it will include bibliographic, chemical, 
# crystal, experimental, refinement or atomic coordinate data resulting 
# from the CCDC's data processing and validation procedures.
#
#######################################################################

data_BEVGEQ
_symmetry_cell_setting           monoclinic
_symmetry_space_group_name_H-M   'P 21/c'
_symmetry_Int_Tables_number      14
_space_group_name_Hall           '-P 2ybc'
loop_
_symmetry_equiv_pos_site_id
_symmetry_equiv_pos_as_xyz
1 x,y,z
2 -x,1/2+y,1/2-z
3 -x,-y,-z
4 x,1/2-y,1/2+z
_cell_length_a                   6.915(3)
_cell_length_b                   20.208(3)
_cell_length_c                   15.138(5)
_cell_angle_alpha                90
_cell_angle_beta                 107.36(4)
_cell_angle_gamma                90
_cell_volume                     2019
loop_
_atom_site_label
_atom_site_type_symbol
_atom_site_fract_x
_atom_site_fract_y
_atom_site_fract_z
Ag1 Ag 1.29933(4) 0.068764(13) 0.244547(18)
P1 P 0.96232(12) 0.09741(4) 0.17111(6)
N1 N 1.4537(4) -0.03296(14) 0.29171(19)
N2 N 1.5342(4) 0.08131(13) 0.38999(19)
C1 C 1.4038(5) -0.08870(18) 0.2430(2)
H1 H 1.3089 -0.0862 0.1830
C2 C 1.4831(5) -0.14986(18) 0.2754(3)
H2 H 1.4432 -0.1885 0.2388
C3 C 1.6213(6) -0.15314(19) 0.3620(3)
H3 H 1.6794 -0.1944 0.3862
C4 C 1.6749(5) -0.09629(19) 0.4133(3)
H4 H 1.7706 -0.0980 0.4732
C5 C 1.7823(5) 0.0304(2) 0.5167(2)
H5 H 1.8514 -0.0083 0.5452
C6 C 1.8230(6) 0.0913(2) 0.5606(3)
H6 H 1.9226 0.0947 0.6193
C7 C 1.7195(6) 0.1467(2) 0.5195(3)
H7 H 1.7458 0.1888 0.5485
C8 C 1.5757(6) 0.13897(19) 0.4342(3)
H8 H 1.5023 0.1769 0.4056
C9 C 1.5886(5) -0.03632(17) 0.3774(2)
C10 C 1.6378(5) 0.02696(17) 0.4298(2)
N3 N 0.6222(4) 0.08702(14) 0.0188(2)
N4 N 0.5592(4) 0.10032(13) 0.17032(18)
N5 N 0.6802(4) 0.19508(14) 0.09776(19)
C11 C 0.7643(4) 0.07855(17) 0.2265(2)
H9 H 0.7621 0.0302 0.2370
H10 H 0.7991 0.1006 0.2876
C12 C 0.4998(5) 0.06772(18) 0.0786(2)
H11 H 0.5101 0.0192 0.0878
H12 H 0.3562 0.0783 0.0465
C13 C 0.8330(5) 0.06250(18) 0.0557(2)
H13 H 0.9097 0.0745 0.0123
H14 H 0.8315 0.0136 0.0601
C14 C 0.8984(5) 0.18534(17) 0.1451(2)
H15 H 0.9373 0.2109 0.2035
H16 H 0.9776 0.2026 0.1053
C15 C 0.5566(5) 0.17262(16) 0.1550(2)
H17 H 0.4148 0.1867 0.1254
H18 H 0.6045 0.1949 0.2159
C16 C 0.6173(5) 0.15890(17) 0.0092(2)
H19 H 0.4778 0.1726 -0.0254
H20 H 0.7071 0.1719 -0.0279
Ag1_2 Ag 0.29933(4) 0.068764(13) 0.244547(18)
N4_2 N 1.5592(4) 0.10032(13) 0.17032(18)
O1 O 0.1230(4) 0.25898(14) 0.47248(19)
O2 O -0.1466(4) 0.24725(13) 0.35634(19)
O3 O 0.0698(4) 0.16721(14) 0.39441(19)
N6 N 0.0156(5) 0.22364(16) 0.4074(2)
O4 O 0.0628(4) 0.38776(15) 0.40616(19)
H21 H 0.057(6) 0.349(2) 0.421(3)
C17 C 0.1167(7) 0.3854(2) 0.3240(3)
H22 H 0.0603 0.4240 0.2857
H23 H 0.0628 0.3448 0.2901
H24 H 0.2647 0.3857 0.3387
loop_
_geom_bond_atom_site_label_1
_geom_bond_atom_site_label_2
_geom_bond_site_symmetry_1
_geom_bond_site_symmetry_2
Ag1 P1 1_555 1_555
P1 C11 1_555 1_555
N1 Ag1 1_555 1_555
N2 Ag1 1_555 1_555
C1 N1 1_555 1_555
H1 C1 1_555 1_555
C2 C1 1_555 1_555
H2 C2 1_555 1_555
C3 C2 1_555 1_555
H3 C3 1_555 1_555
C4 C3 1_555 1_555
H4 C4 1_555 1_555
C5 H5 1_555 1_555
C6 C5 1_555 1_555
H6 C6 1_555 1_555
C7 C6 1_555 1_555
H7 C7 1_555 1_555
C8 N2 1_555 1_555
H8 C8 1_555 1_555
C9 N1 1_555 1_555
C10 N2 1_555 1_555
N3 C12 1_555 1_555
N4 C11 1_555 1_555
N5 C14 1_555 1_555
C11 H9 1_555 1_555
H10 C11 1_555 1_555
C12 N4 1_555 1_555
H11 C12 1_555 1_555
H12 C12 1_555 1_555
C13 P1 1_555 1_555
H13 C13 1_555 1_555
H14 C13 1_555 1_555
C14 P1 1_555 1_555
H15 C14 1_555 1_555
H16 C14 1_555 1_555
C15 N4 1_555 1_555
H17 C15 1_555 1_555
H18 C15 1_555 1_555
C16 N3 1_555 1_555
H19 C16 1_555 1_555
H20 C16 1_555 1_555
O1 N6 1_555 1_555
O2 N6 1_555 1_555
O3 N6 1_555 1_555
O4 H21 1_555 1_555
C17 O4 1_555 1_555
H22 C17 1_555 1_555
H23 C17 1_555 1_555
H24 C17 1_555 1_555
Ag1_2 N4 1_555 1_555
N4_2 Ag1 1_555 1_555
C4 C9 1_555 1_555
C5 C10 1_555 1_555
C7 C8 1_555 1_555
C9 C10 1_555 1_555
N3 C13 1_555 1_555
N5 C15 1_555 1_555
N5 C16 1_555 1_555

#END
