
#######################################################################
#
#                 Cambridge Crystallographic Data Centre
#                                CCDC 
#
#######################################################################
#
# If this CIF has been generated from an entry in the Cambridge 
# Structural Database, then it will include bibliographic, chemical, 
# crystal, experimental, refinement or atomic coordinate data resulting 
# from the CCDC's data processing and validation procedures.
#
#######################################################################

data_BEVRIF
_symmetry_cell_setting           monoclinic
_symmetry_space_group_name_H-M   'P 21/c'
_symmetry_Int_Tables_number      14
_space_group_name_Hall           '-P 2ybc'
loop_
_symmetry_equiv_pos_site_id
_symmetry_equiv_pos_as_xyz
1 x,y,z
2 -x,1/2+y,1/2-z
3 -x,-y,-z
4 x,1/2-y,1/2+z
_cell_length_a                   10.0978(2)
_cell_length_b                   14.3912(2)
_cell_length_c                   9.6585(1)
_cell_angle_alpha                90
_cell_angle_beta                 105.855(1)
_cell_angle_gamma                90
_cell_volume                     1350.17
loop_
_atom_site_label
_atom_site_type_symbol
_atom_site_fract_x
_atom_site_fract_y
_atom_site_fract_z
Pb1 Pb 0.51738(2) 0.36038(1) 0.43342(2)
O1 O 0.6131(4) 0.5298(2) 0.4385(3)
O2 O 0.7779(4) 0.5302(2) 0.3226(3)
O3 O 0.5990(4) 0.7207(2) 0.3984(4)
O4 O 0.9032(4) 0.3863(3) 0.8195(4)
O5 O 0.6833(4) 0.3757(2) 0.6903(4)
O6 O 0.9926(4) 0.3531(2) 0.5978(4)
O7 O 0.7794(4) 0.3323(3) 0.4560(3)
C1 C 0.6885(5) 0.5680(3) 0.3727(4)
C2 C 0.6746(5) 0.6736(3) 0.3471(5)
C3 C 0.8085(5) 0.3728(3) 0.7048(5)
C4 C 0.8617(5) 0.3515(3) 0.5722(5)
O8 O 0.5788(5) 0.1687(3) 0.4285(1)
Zr1 Zr 0.12161(4) 0.38666(3) -0.18303(4)
O9 O 0.1182(4) 0.3916(3) 0.0464(4)
O10 O 0.2423(4) 0.3986(2) 0.2762(3)
O11 O 0.4707(4) 0.4320(3) 0.1702(4)
O12 O 0.3279(4) 0.4147(3) -0.0490(4)
C5 C 0.2310(5) 0.4021(3) 0.1464(5)
C6 C 0.3570(5) 0.4182(3) 0.0882(5)
H1 H 0.500(5) 0.129(4) 0.407(8)
H2 H 0.629(6) 0.150(4) 0.362(7)
O13 O 0.0710(4) 0.5297(2) -0.1682(4)
H3 H 0.138(5) 0.571(3) -0.188(7)
H4 H 0.029(6) 0.565(3) -0.107(6)
O14 O 0.7484(4) 0.7048(2) 0.2681(4)
O15 O 0.0943(4) 0.2394(2) -0.1246(1)
H5 H 0.130(6) 0.186(2) -0.161(6)
H6 H 0.044(6) 0.216(3) -0.062(5)
Pb1B Pb 0.48262(2) 0.63962(1) 0.56658(2)
O1B O 0.3869(4) 0.4702(2) 0.5615(3)
O2B O 0.2221(4) 0.4698(2) -0.3226(3)
O3B O 0.4010(4) 0.2793(2) 0.6016(4)
O4_2 O -0.0968(4) 0.3863(3) -0.1805(4)
O6_2 O -0.0074(4) 0.3531(2) -0.4022(4)
Zr1_2 Zr 1.12161(4) 0.38666(3) 0.81697(4)
Zr1B Zr 0.87839(4) 0.61334(3) 0.18303(4)
O14B O 0.2516(4) 0.2952(2) -0.2681(4)
O16 O 0.7899(5) 0.1720(3) 0.6769(2)
H7 H 0.777(6) 0.170(5) 0.771(3)
H8 H 0.699(3) 0.170(5) 0.612(5)
loop_
_geom_bond_atom_site_label_1
_geom_bond_atom_site_label_2
_geom_bond_site_symmetry_1
_geom_bond_site_symmetry_2
Pb1 O1 1_555 1_555
O1 C1 1_555 1_555
O2 C1 1_555 1_555
O3 C2 1_555 1_555
O4 C3 1_555 1_555
O5 Pb1 1_555 1_555
O6 C4 1_555 1_555
O7 Pb1 1_555 1_555
C1 C2 1_555 1_555
C2 O14 1_555 1_555
C3 O5 1_555 1_555
C4 O7 1_555 1_555
O8 Pb1 1_555 1_555
Zr1 O9 1_555 1_555
O9 C5 1_555 1_555
O10 Pb1 1_555 1_555
O11 Pb1 1_555 1_555
O12 Zr1 1_555 1_555
C5 O10 1_555 1_555
C6 O11 1_555 1_555
H1 O8 1_555 1_555
H2 O8 1_555 1_555
O13 Zr1 1_555 1_555
H3 O13 1_555 1_555
H4 O13 1_555 1_555
O14 Zr1B 1_555 1_555
O15 Zr1 1_555 1_555
H5 O15 1_555 1_555
H6 O15 1_555 1_555
O16 H7 1_555 1_555
H8 O16 1_555 1_555
Pb1B O1 1_555 1_555
O1B Pb1 1_555 1_555
O2B Zr1 1_555 1_555
O3B Pb1 1_555 1_555
O4_2 Zr1 1_555 1_555
O6_2 Zr1 1_555 1_555
Zr1_2 O4 1_555 1_555
Zr1B O2 1_555 1_555
O14B Zr1 1_555 1_555
O3 Pb1B 1_555 1_555
O6 Zr1_2 1_555 1_555
C3 C4 1_555 1_555
O12 C6 1_555 1_555
C5 C6 1_555 1_555
Pb1B O1B 1_555 1_555

#END
