
#######################################################################
#
#                 Cambridge Crystallographic Data Centre
#                                CCDC 
#
#######################################################################
#
# If this CIF has been generated from an entry in the Cambridge 
# Structural Database, then it will include bibliographic, chemical, 
# crystal, experimental, refinement or atomic coordinate data resulting 
# from the CCDC's data processing and validation procedures.
#
#######################################################################

data_BEVSUR
_symmetry_cell_setting           monoclinic
_symmetry_space_group_name_H-M   'C 2/m'
_symmetry_Int_Tables_number      12
_space_group_name_Hall           '-C 2y'
loop_
_symmetry_equiv_pos_site_id
_symmetry_equiv_pos_as_xyz
1 x,y,z
2 -x,y,-z
3 1/2+x,1/2+y,z
4 1/2-x,1/2+y,-z
5 -x,-y,-z
6 x,-y,z
7 1/2-x,1/2-y,-z
8 1/2+x,1/2-y,z
_cell_length_a                   6.941(1)
_cell_length_b                   14.700(1)
_cell_length_c                   8.488(1)
_cell_angle_alpha                90
_cell_angle_beta                 107.73(1)
_cell_angle_gamma                90
_cell_volume                     824.918
loop_
_atom_site_label
_atom_site_type_symbol
_atom_site_fract_x
_atom_site_fract_y
_atom_site_fract_z
Y1 Y 0.000 0.3150(2) 0.000
O1 O -0.211(1) 0.172(2) -0.063(1)
O2 O -0.350(1) -0.072(1) -0.831(1)
O3 O -0.078(2) 0.230(1) -0.254(1)
C1 C -0.238(2) 0.078(1) -0.469(1)
C2 C -0.170(3) 0.0000 -0.197(2)
C3 C -0.334(3) 0.0000 -0.749(2)
C4 C -0.272(3) 0.0000 -0.564(2)
C5 C -0.187(2) 0.075(1) -0.287(2)
C6 C -0.164(2) 0.164(1) -0.189(2)
C1E C -0.238(2) -0.078(1) -0.469(1)
C5E C -0.187(2) -0.075(1) -0.287(2)
C6E C -0.164(2) -0.164(1) -0.189(2)
O1E O -0.211(1) -0.172(2) -0.063(1)
O3E O -0.078(2) -0.230(1) -0.254(1)
O2E O -0.350(1) 0.072(1) -0.831(1)
O1A O 0.211(1) 0.172(2) 0.063(1)
O1F O -0.289(1) 0.328(2) 0.063(1)
O1G O 0.289(1) 0.328(2) -0.063(1)
O2B O 0.150(1) 0.428(1) 0.169(1)
O2C O -0.150(1) 0.428(1) -0.169(1)
O3A O 0.078(2) 0.230(1) 0.254(1)
Y1F Y -0.500 0.1850(2) 0.000
Y1B Y -0.500 -0.1850(2) -1.000
Y1B_2 Y -0.500 -0.1850(2) 0.000
Y1D Y 0.000 -0.3150(2) 0.000
Y1F_2 Y -0.500 0.1850(2) -1.000
loop_
_geom_bond_atom_site_label_1
_geom_bond_atom_site_label_2
_geom_bond_site_symmetry_1
_geom_bond_site_symmetry_2
Y1 O1 1_555 1_555
O1 C6 1_555 1_555
O2 C3 1_555 1_555
O3 Y1 1_555 1_555
C1 C4 1_555 1_555
C2 C5 1_555 1_555
C3 C4 1_555 1_555
C4 C1E 1_555 1_555
C5 C1 1_555 1_555
C6 O3 1_555 1_555
C1E C5E 1_555 1_555
C5E C2 1_555 1_555
C6E C5E 1_555 1_555
O1E C6E 1_555 1_555
O3E C6E 1_555 1_555
O2E C3 1_555 1_555
O1A Y1 1_555 1_555
O1F Y1 1_555 1_555
O1G Y1 1_555 1_555
O2B Y1 1_555 1_555
O2C Y1 1_555 1_555
O3A Y1 1_555 1_555
Y1F O1 1_555 1_555
Y1B O2 1_555 1_555
Y1B_2 O1E 1_555 1_555
Y1D O1E 1_555 1_555
Y1F_2 O2E 1_555 1_555
C5 C6 1_555 1_555
O3E Y1D 1_555 1_555
O1F Y1F 1_555 1_555

#END
