
#######################################################################
#
#                 Cambridge Crystallographic Data Centre
#                                CCDC 
#
#######################################################################
#
# If this CIF has been generated from an entry in the Cambridge 
# Structural Database, then it will include bibliographic, chemical, 
# crystal, experimental, refinement or atomic coordinate data resulting 
# from the CCDC's data processing and validation procedures.
#
#######################################################################

data_BEVZUZ
_symmetry_cell_setting           monoclinic
_symmetry_space_group_name_H-M   'P 21/n'
_symmetry_Int_Tables_number      14
_space_group_name_Hall           '-P 2yn'
loop_
_symmetry_equiv_pos_site_id
_symmetry_equiv_pos_as_xyz
1 x,y,z
2 1/2-x,1/2+y,1/2-z
3 -x,-y,-z
4 1/2+x,1/2-y,1/2+z
_cell_length_a                   22.1947(6)
_cell_length_b                   12.6975(3)
_cell_length_c                   28.1501(6)
_cell_angle_alpha                90
_cell_angle_beta                 112.1040(10)
_cell_angle_gamma                90
_cell_volume                     7350.11
loop_
_atom_site_label
_atom_site_type_symbol
_atom_site_fract_x
_atom_site_fract_y
_atom_site_fract_z
Zn1 Zn 0.82707(3) 0.38515(5) 0.59148(2)
Zn2 Zn 0.83938(3) 0.13983(4) 0.60910(2)
Zn3 Zn 1.05125(3) 0.57654(4) 0.868507(19)
C1 C 0.9439(3) 0.6664(5) 0.6960(2)
H1 H 0.9456 0.5919 0.6933
C2 C 1.0006(3) 0.7254(5) 0.7078(2)
H2 H 1.0409 0.6917 0.7132
C3 C 0.9974(4) 0.8342(5) 0.7114(2)
H3 H 1.0357 0.8752 0.7190
C4 C 0.9399(4) 0.8825(5) 0.7040(2)
H4 H 0.9385 0.9569 0.7066
C5 C 0.8831(3) 0.8240(4) 0.6928(2)
H5 H 0.8432 0.8580 0.6881
C6 C 0.8859(3) 0.7143(4) 0.68840(18)
C7 C 0.8107(3) 0.5651(4) 0.64559(18)
C8 C 0.7448(2) 0.5463(4) 0.63590(18)
C9 C 0.7263(3) 0.6299(4) 0.66097(19)
C10 C 0.6638(3) 0.6578(4) 0.6651(2)
C11 C 0.6287(4) 0.7409(6) 0.6358(3)
H6 H 0.6451 0.7757 0.6133
C12 C 0.5721(4) 0.7744(8) 0.6381(3)
H7 H 0.5498 0.8333 0.6184
C13 C 0.5476(4) 0.7227(7) 0.6688(3)
H8 H 0.5064 0.7433 0.6687
C14 C 0.5802(4) 0.6416(6) 0.7001(3)
H9 H 0.5633 0.6088 0.7228
C15 C 0.6402(4) 0.6081(5) 0.6977(3)
H10 H 0.6638 0.5516 0.7186
C16 C 0.7052(2) 0.4649(4) 0.60240(17)
C17 C 0.6347(2) 0.4577(4) 0.59035(17)
H11 H 0.6242 0.4907 0.6182
H12 H 0.6214 0.3828 0.5878
C18 C 0.5972(3) 0.5135(5) 0.5396(2)
H13 H 0.5504 0.5084 0.5320
H14 H 0.6071 0.4802 0.5121
H15 H 0.6099 0.5879 0.5424
C19 C 0.7240(2) 0.2532(4) 0.53320(17)
C20 C 0.6840(2) 0.1728(4) 0.49641(16)
C21 C 0.6166(2) 0.1736(4) 0.47885(18)
H16 H 0.5947 0.2264 0.4901
C22 C 0.5819(2) 0.0973(4) 0.44497(18)
H17 H 0.5359 0.0977 0.4341
C23 C 0.6746(2) 0.0206(4) 0.44438(17)
H18 H 0.6954 -0.0329 0.4325
C24 C 0.7123(2) 0.0921(4) 0.47902(17)
H19 H 0.7583 0.0865 0.4913
C25 C 0.7809(3) -0.2145(4) 0.55076(18)
H20 H 0.7899 -0.1826 0.5832
C26 C 0.7262(3) -0.2766(5) 0.5290(2)
H21 H 0.6978 -0.2875 0.5468
C27 C 0.7126(3) -0.3224(5) 0.4819(2)
H22 H 0.6747 -0.3643 0.4668
C28 C 0.7547(3) -0.3072(5) 0.4567(2)
H23 H 0.7460 -0.3395 0.4243
C29 C 0.8091(3) -0.2456(4) 0.4782(2)
H24 H 0.8377 -0.2349 0.4607
C30 C 0.8219(2) -0.1993(4) 0.52540(17)
C31 C 0.8837(2) -0.0419(4) 0.57188(17)
C32 C 0.9499(2) -0.0138(4) 0.58871(17)
C33 C 0.9800(2) -0.0981(4) 0.57154(17)
C34 C 1.0479(3) -0.1166(4) 0.57616(19)
C35 C 1.0806(3) -0.2061(4) 0.6028(2)
H25 H 1.0602 -0.2511 0.6192
C36 C 1.1429(3) -0.2287(5) 0.6051(2)
H26 H 1.1652 -0.2890 0.6232
C37 C 1.1725(3) -0.1638(5) 0.5811(2)
H27 H 1.2151 -0.1793 0.5827
C38 C 1.1402(3) -0.0770(5) 0.5549(2)
H28 H 1.1608 -0.0323 0.5385
C39 C 1.0786(3) -0.0534(4) 0.55208(19)
H29 H 1.0569 0.0068 0.5334
C40 C 0.9789(2) 0.0740(4) 0.62115(17)
C41 C 1.0507(2) 0.0921(4) 0.64241(19)
H30 H 1.0729 0.0261 0.6396
H31 H 1.0650 0.1100 0.6792
C42 C 1.0709(3) 0.1800(4) 0.6147(2)
H32 H 1.1182 0.1889 0.6300
H33 H 1.0497 0.2458 0.6180
H34 H 1.0578 0.1619 0.5784
C43 C 0.9312(2) 0.2831(4) 0.67449(17)
C44 C 0.9580(2) 0.3629(4) 0.71571(17)
C45 C 1.0213(2) 0.3963(4) 0.73186(18)
H35 H 1.0481 0.3751 0.7140
C46 C 1.0459(2) 0.4609(4) 0.77433(18)
H36 H 1.0898 0.4838 0.7851
C47 C 0.9471(3) 0.4644(4) 0.78281(18)
H37 H 0.9205 0.4886 0.8003
C48 C 0.9189(2) 0.4023(4) 0.74010(17)
H38 H 0.8738 0.3867 0.7276
C49 C 1.2435(3) 0.5877(4) 0.8292(2)
H39 H 1.2350 0.5645 0.8582
C50 C 1.2771(3) 0.5234(4) 0.8077(2)
H40 H 1.2912 0.4556 0.8218
C51 C 1.2899(3) 0.5568(5) 0.7664(2)
H41 H 1.3123 0.5121 0.7515
C52 C 1.2703(3) 0.6557(5) 0.7463(2)
H42 H 1.2799 0.6797 0.7180
C53 C 1.2366(3) 0.7200(5) 0.7673(2)
H43 H 1.2231 0.7881 0.7534
C54 C 1.2226(2) 0.6851(4) 0.80840(18)
C55 C 1.1357(2) 0.7176(4) 0.84280(16)
C56 C 1.1017(2) 0.8108(4) 0.84571(17)
C57 C 1.1377(2) 0.8939(4) 0.83484(17)
C58 C 1.1333(2) 1.0094(4) 0.83804(18)
C59 C 1.1702(3) 1.0608(4) 0.8833(2)
H44 H 1.1962 1.0215 0.9126
C60 C 1.1688(3) 1.1707(5) 0.8854(2)
H45 H 1.1932 1.2056 0.9166
C61 C 1.1332(3) 1.2286(4) 0.8437(3)
H46 H 1.1335 1.3033 0.8456
C62 C 1.0971(3) 1.1793(4) 0.7994(2)
H47 H 1.0718 1.2197 0.7703
C63 C 1.0969(3) 1.0702(4) 0.7962(2)
H48 H 1.0715 1.0367 0.7649
C64 C 1.0406(2) 0.8145(4) 0.85210(16)
C65 C 1.0054(2) 0.9160(4) 0.84912(18)
H49 H 0.9579 0.9034 0.8342
H50 H 1.0163 0.9657 0.8265
C66 C 1.0241(3) 0.9639(4) 0.90215(19)
H51 H 1.0009 1.0306 0.8996
H52 H 1.0711 0.9769 0.9167
H53 H 1.0124 0.9152 0.9243
C67 C 0.9360(2) 0.6395(4) 0.87547(16)
C68 C 0.8687(2) 0.6325(4) 0.87312(16)
C69 C 0.8200(2) 0.7021(4) 0.84423(17)
H54 H 0.8294 0.7559 0.8246
C70 C 0.7589(2) 0.6926(4) 0.84427(17)
H55 H 0.7267 0.7411 0.8244
C71 C 0.7880(2) 0.5490(4) 0.89732(17)
H56 H 0.7767 0.4942 0.9154
C72 C 0.8506(2) 0.5532(4) 0.89946(17)
H57 H 0.8815 0.5024 0.9188
C73 C 0.9145(3) 0.3520(4) 0.5335(2)
H58 H 0.9035 0.2798 0.5338
C74 C 0.9588(3) 0.3792(4) 0.5126(2)
H59 H 0.9780 0.3262 0.4990
C75 C 0.9757(3) 0.4835(4) 0.5111(2)
C76 C 0.9444(3) 0.5575(5) 0.5302(3)
H60 H 0.9533 0.6304 0.5291
C77 C 0.9010(3) 0.5241(5) 0.5504(3)
H61 H 0.8799 0.5757 0.5631
N1 N 0.8278(2) 0.6546(3) 0.67512(15)
N2 N 0.7753(2) 0.6959(3) 0.68369(16)
N3 N 0.7339(2) 0.3990(3) 0.58093(14)
N4 N 0.69219(19) 0.3260(3) 0.54656(14)
N5 N 0.6096(2) 0.0224(3) 0.42648(13)
N6 N 0.8787(2) -0.1374(3) 0.54779(15)
N7 N 0.9371(2) -0.1716(3) 0.54681(15)
N8 N 0.93954(19) 0.1389(3) 0.63225(14)
N9 N 0.97224(19) 0.2174(3) 0.66824(14)
N10 N 1.00999(19) 0.4928(3) 0.80112(14)
N11 N 1.18480(19) 0.7496(3) 0.82799(14)
N12 N 1.1869(2) 0.8582(3) 0.82315(15)
N13 N 1.01588(19) 0.7246(3) 0.86086(14)
N14 N 0.95271(19) 0.7305(3) 0.86063(14)
N15 N 0.74153(19) 0.6185(3) 0.87078(14)
N16 N 0.8860(2) 0.4225(3) 0.55355(16)
O1 O 0.85207(17) 0.5172(3) 0.63186(13)
O2 O 0.78802(16) 0.2440(2) 0.54901(11)
O3 O 0.83424(16) 0.0024(3) 0.57614(12)
O4 O 0.86764(15) 0.2811(3) 0.64971(11)
O5 O 1.12674(15) 0.6217(2) 0.85017(12)
O6 O 0.97286(16) 0.5579(2) 0.89102(11)
C73B C 1.0855(3) 0.6480(4) 0.4665(2)
H58B H 1.0965 0.7202 0.4662
C74B C 1.0412(3) 0.6208(4) 0.4874(2)
H59B H 1.0220 0.6738 0.5010
C75B C 1.0243(3) 0.5165(4) 0.4889(2)
C76B C 1.0556(3) 0.4425(5) 0.4698(3)
H60B H 1.0467 0.3696 0.4709
C77B C 1.0990(3) 0.4759(5) 0.4496(3)
H61B H 1.1201 0.4243 0.4369
N16B N 1.1140(2) 0.5775(3) 0.44645(16)
Zn1B Zn 1.17293(3) 0.61485(5) 0.40852(2)
Zn2B Zn 1.16062(3) 0.86017(4) 0.39090(2)
Zn3B Zn 0.94875(3) 0.42346(4) 0.131493(19)
C1B C 1.0561(3) 0.3336(5) 0.3040(2)
H1B H 1.0544 0.4081 0.3067
C2B C 0.9994(3) 0.2746(5) 0.2922(2)
H2B H 0.9591 0.3083 0.2868
C3B C 1.0026(4) 0.1658(5) 0.2886(2)
H3B H 0.9643 0.1248 0.2810
C4B C 1.0601(4) 0.1175(5) 0.2960(2)
H4B H 1.0615 0.0431 0.2934
C5B C 1.1169(3) 0.1760(4) 0.3072(2)
H5B H 1.1568 0.1420 0.3119
C6B C 1.1141(3) 0.2857(4) 0.31160(18)
C7B C 1.1893(3) 0.4349(4) 0.35441(18)
C8B C 1.2552(2) 0.4537(4) 0.36410(18)
C9B C 1.2737(3) 0.3701(4) 0.33903(19)
C10B C 1.3362(3) 0.3422(4) 0.3349(2)
C11B C 1.3713(4) 0.2591(6) 0.3642(3)
H6B H 1.3549 0.2243 0.3867
C12B C 1.4279(4) 0.2256(8) 0.3619(3)
H7B H 1.4502 0.1667 0.3816
C13B C 1.4524(4) 0.2773(7) 0.3312(3)
H8B H 1.4936 0.2567 0.3313
C14B C 1.4198(4) 0.3584(6) 0.2999(3)
H9B H 1.4367 0.3912 0.2772
C15B C 1.3598(4) 0.3919(5) 0.3023(3)
H10B H 1.3362 0.4484 0.2814
C16B C 1.2948(2) 0.5351(4) 0.39760(17)
C17B C 1.3653(2) 0.5423(4) 0.40965(17)
H11B H 1.3758 0.5093 0.3818
H12B H 1.3786 0.6172 0.4122
C18B C 1.4028(3) 0.4865(5) 0.4604(2)
H13B H 1.4496 0.4916 0.4680
H14B H 1.3929 0.5198 0.4879
H15B H 1.3901 0.4121 0.4576
C19B C 1.2760(2) 0.7468(4) 0.46680(17)
C20B C 1.3160(2) 0.8272(4) 0.50359(16)
C21B C 1.3834(2) 0.8264(4) 0.52115(18)
H16B H 1.4053 0.7736 0.5099
C22B C 1.4181(2) 0.9027(4) 0.55503(18)
H17B H 1.4641 0.9023 0.5659
C23B C 1.3254(2) 0.9794(4) 0.55562(17)
H18B H 1.3046 1.0329 0.5675
C24B C 1.2877(2) 0.9079(4) 0.52098(17)
H19B H 1.2417 0.9135 0.5087
C25B C 1.2191(3) 1.2145(4) 0.44924(18)
H20B H 1.2101 1.1826 0.4168
C26B C 1.2738(3) 1.2766(5) 0.4710(2)
H21B H 1.3022 1.2875 0.4532
C27B C 1.2874(3) 1.3224(5) 0.5181(2)
H22B H 1.3253 1.3643 0.5332
C28B C 1.2453(3) 1.3072(5) 0.5433(2)
H23B H 1.2540 1.3395 0.5757
C29B C 1.1909(3) 1.2456(4) 0.5218(2)
H24B H 1.1623 1.2349 0.5393
C30B C 1.1781(2) 1.1993(4) 0.47460(17)
C31B C 1.1163(2) 1.0419(4) 0.42812(17)
C32B C 1.0501(2) 1.0138(4) 0.41129(17)
C33B C 1.0200(2) 1.0981(4) 0.42846(17)
C34B C 0.9521(3) 1.1166(4) 0.42384(19)
C35B C 0.9194(3) 1.2061(4) 0.3972(2)
H25B H 0.9398 1.2511 0.3808
C36B C 0.8571(3) 1.2287(5) 0.3949(2)
H26B H 0.8348 1.2890 0.3768
C37B C 0.8275(3) 1.1638(5) 0.4189(2)
H27B H 0.7849 1.1793 0.4173
C38B C 0.8598(3) 1.0770(5) 0.4451(2)
H28B H 0.8392 1.0323 0.4615
C39B C 0.9214(3) 1.0534(4) 0.44792(19)
H29B H 0.9431 0.9932 0.4666
C40B C 1.0211(2) 0.9260(4) 0.37885(17)
C41B C 0.9493(2) 0.9079(4) 0.35759(19)
H30B H 0.9271 0.9739 0.3604
H31B H 0.9350 0.8900 0.3208
C42B C 0.9291(3) 0.8200(4) 0.3853(2)
H32B H 0.8818 0.8111 0.3700
H33B H 0.9503 0.7542 0.3820
H34B H 0.9422 0.8381 0.4216
C43B C 1.0688(2) 0.7169(4) 0.32551(17)
C44B C 1.0420(2) 0.6371(4) 0.28429(17)
C45B C 0.9787(2) 0.6037(4) 0.26814(18)
H35B H 0.9519 0.6249 0.2860
C46B C 0.9541(2) 0.5391(4) 0.22567(18)
H36B H 0.9102 0.5162 0.2149
C47B C 1.0529(3) 0.5356(4) 0.21719(18)
H37B H 1.0795 0.5114 0.1997
C48B C 1.0811(2) 0.5977(4) 0.25990(17)
H38B H 1.1262 0.6133 0.2724
C49B C 0.7565(3) 0.4123(4) 0.1708(2)
H39B H 0.7650 0.4355 0.1418
C50B C 0.7229(3) 0.4766(4) 0.1923(2)
H40B H 0.7088 0.5444 0.1782
C51B C 0.7101(3) 0.4432(5) 0.2336(2)
H41B H 0.6877 0.4879 0.2485
C52B C 0.7297(3) 0.3443(5) 0.2537(2)
H42B H 0.7201 0.3203 0.2820
C53B C 0.7634(3) 0.2800(5) 0.2327(2)
H43B H 0.7769 0.2119 0.2466
C54B C 0.7774(2) 0.3149(4) 0.19160(18)
C55B C 0.8643(2) 0.2824(4) 0.15720(16)
C56B C 0.8983(2) 0.1892(4) 0.15429(17)
C57B C 0.8623(2) 0.1061(4) 0.16516(17)
C58B C 0.8667(2) -0.0094(4) 0.16196(18)
C59B C 0.8298(3) -0.0608(4) 0.1167(2)
H44B H 0.8038 -0.0215 0.0874
C60B C 0.8312(3) -0.1707(5) 0.1146(2)
H45B H 0.8068 -0.2056 0.0834
C61B C 0.8668(3) -0.2286(4) 0.1563(3)
H46B H 0.8665 -0.3033 0.1544
C62B C 0.9029(3) -0.1793(4) 0.2006(2)
H47B H 0.9282 -0.2197 0.2297
C63B C 0.9031(3) -0.0702(4) 0.2038(2)
H48B H 0.9285 -0.0367 0.2351
C64B C 0.9594(2) 0.1855(4) 0.14790(16)
C65B C 0.9946(2) 0.0840(4) 0.15088(18)
H49B H 1.0421 0.0966 0.1658
H50B H 0.9837 0.0343 0.1735
C66B C 0.9759(3) 0.0361(4) 0.09785(19)
H51B H 0.9991 -0.0306 0.1004
H52B H 0.9289 0.0231 0.0833
H53B H 0.9876 0.0848 0.0757
C67B C 1.0640(2) 0.3605(4) 0.12453(16)
C68B C 1.1313(2) 0.3675(4) 0.12688(16)
C69B C 1.1800(2) 0.2979(4) 0.15577(17)
H54B H 1.1706 0.2441 0.1754
C70B C 1.2411(2) 0.3074(4) 0.15573(17)
H55B H 1.2733 0.2589 0.1756
C71B C 1.2120(2) 0.4510(4) 0.10268(17)
H56B H 1.2233 0.5058 0.0846
C72B C 1.1494(2) 0.4468(4) 0.10054(17)
H57B H 1.1185 0.4976 0.0812
N1B N 1.1722(2) 0.3454(3) 0.32488(15)
N2B N 1.2247(2) 0.3041(3) 0.31631(16)
N3B N 1.2661(2) 0.6010(3) 0.41907(14)
N4B N 1.30781(19) 0.6740(3) 0.45344(14)
N5B N 1.3904(2) 0.9776(3) 0.57352(13)
N6B N 1.1213(2) 1.1374(3) 0.45221(15)
N7B N 1.0629(2) 1.1716(3) 0.45319(15)
N8B N 1.06046(19) 0.8611(3) 0.36775(14)
N9B N 1.02776(19) 0.7826(3) 0.33176(14)
N10B N 0.99001(19) 0.5072(3) 0.19888(14)
N11B N 0.81520(19) 0.2504(3) 0.17201(14)
N12B N 0.8131(2) 0.1418(3) 0.17685(15)
N13B N 0.98412(19) 0.2754(3) 0.13914(14)
N14B N 1.04729(19) 0.2695(3) 0.13937(14)
N15B N 1.25847(19) 0.3815(3) 0.12922(14)
O1B O 1.14793(17) 0.4828(3) 0.36814(13)
O2B O 1.21198(16) 0.7560(2) 0.45099(11)
O3B O 1.16576(16) 0.9976(3) 0.42386(12)
O4B O 1.13236(15) 0.7189(3) 0.35029(11)
O5B O 0.87326(15) 0.3783(2) 0.14983(12)
O6B O 1.02714(16) 0.4421(2) 0.10898(11)
Zn2A Zn 0.66062(3) 0.63983(4) 0.89090(2)
Zn2C Zn 1.33938(3) 0.36017(4) 0.10910(2)
Zn3A Zn 1.44875(3) 1.07654(4) 0.631493(19)
Zn3C Zn 0.55125(3) -0.07654(4) 0.368507(19)
N5A N 0.8904(2) 0.5224(3) 0.07352(13)
N5C N 1.1096(2) 0.4776(3) 0.92648(13)
N15A N 0.75847(19) 0.1185(3) 0.62922(14)
N15C N 1.24153(19) 0.8815(3) 0.37078(14)
O7 O 0.7584(3) 0.8589(4) 0.75292(17)
C78 C 0.7208(3) 0.9426(5) 0.7227(2)
C79 C 0.0438(5) 0.7078(4) 0.9944(3)
O8 O 0.0286(2) 0.6028(3) 1.00312(16)
C80 C 0.3583(6) 0.9617(10) 0.8422(5)
O9 O 0.3119(4) 0.9716(7) 0.8655(3)
loop_
_geom_bond_atom_site_label_1
_geom_bond_atom_site_label_2
_geom_bond_site_symmetry_1
_geom_bond_site_symmetry_2
Zn1 N3 1_555 1_555
Zn2 N8 1_555 1_555
Zn3 N10 1_555 1_555
C1 H1 1_555 1_555
C2 C1 1_555 1_555
H2 C2 1_555 1_555
C3 C2 1_555 1_555
H3 C3 1_555 1_555
C4 C3 1_555 1_555
H4 C4 1_555 1_555
C5 C4 1_555 1_555
H5 C5 1_555 1_555
C6 C1 1_555 1_555
C7 C8 1_555 1_555
C8 C9 1_555 1_555
C9 C10 1_555 1_555
C10 C11 1_555 1_555
C11 H6 1_555 1_555
C12 C11 1_555 1_555
H7 C12 1_555 1_555
C13 C12 1_555 1_555
H8 C13 1_555 1_555
C14 C13 1_555 1_555
H9 C14 1_555 1_555
C15 C10 1_555 1_555
H10 C15 1_555 1_555
C16 C8 1_555 1_555
C17 C16 1_555 1_555
H11 C17 1_555 1_555
H12 C17 1_555 1_555
C18 C17 1_555 1_555
H13 C18 1_555 1_555
H14 C18 1_555 1_555
H15 C18 1_555 1_555
C19 C20 1_555 1_555
C20 C21 1_555 1_555
C21 H16 1_555 1_555
C22 C21 1_555 1_555
H17 C22 1_555 1_555
C23 H18 1_555 1_555
C24 C20 1_555 1_555
H19 C24 1_555 1_555
C25 H20 1_555 1_555
C26 C25 1_555 1_555
H21 C26 1_555 1_555
C27 C26 1_555 1_555
H22 C27 1_555 1_555
C28 C27 1_555 1_555
H23 C28 1_555 1_555
C29 C28 1_555 1_555
H24 C29 1_555 1_555
C30 C25 1_555 1_555
C31 C32 1_555 1_555
C32 C33 1_555 1_555
C33 C34 1_555 1_555
C34 C35 1_555 1_555
C35 H25 1_555 1_555
C36 C35 1_555 1_555
H26 C36 1_555 1_555
C37 C36 1_555 1_555
H27 C37 1_555 1_555
C38 C37 1_555 1_555
H28 C38 1_555 1_555
C39 C34 1_555 1_555
H29 C39 1_555 1_555
C40 C32 1_555 1_555
C41 C40 1_555 1_555
H30 C41 1_555 1_555
H31 C41 1_555 1_555
C42 C41 1_555 1_555
H32 C42 1_555 1_555
H33 C42 1_555 1_555
H34 C42 1_555 1_555
C43 C44 1_555 1_555
C44 C45 1_555 1_555
C45 H35 1_555 1_555
C46 C45 1_555 1_555
H36 C46 1_555 1_555
C47 H37 1_555 1_555
C48 C44 1_555 1_555
H38 C48 1_555 1_555
C49 H39 1_555 1_555
C50 C49 1_555 1_555
H40 C50 1_555 1_555
C51 C50 1_555 1_555
H41 C51 1_555 1_555
C52 C51 1_555 1_555
H42 C52 1_555 1_555
C53 C52 1_555 1_555
H43 C53 1_555 1_555
C54 C49 1_555 1_555
C55 C56 1_555 1_555
C56 C57 1_555 1_555
C57 C58 1_555 1_555
C58 C59 1_555 1_555
C59 H44 1_555 1_555
C60 C59 1_555 1_555
H45 C60 1_555 1_555
C61 C60 1_555 1_555
H46 C61 1_555 1_555
C62 C61 1_555 1_555
H47 C62 1_555 1_555
C63 C58 1_555 1_555
H48 C63 1_555 1_555
C64 C56 1_555 1_555
C65 C64 1_555 1_555
H49 C65 1_555 1_555
H50 C65 1_555 1_555
C66 C65 1_555 1_555
H51 C66 1_555 1_555
H52 C66 1_555 1_555
H53 C66 1_555 1_555
C67 C68 1_555 1_555
C68 C69 1_555 1_555
C69 H54 1_555 1_555
C70 C69 1_555 1_555
H55 C70 1_555 1_555
C71 H56 1_555 1_555
C72 C68 1_555 1_555
H57 C72 1_555 1_555
C73 H58 1_555 1_555
C74 C73 1_555 1_555
H59 C74 1_555 1_555
C75 C74 1_555 1_555
C76 C75 1_555 1_555
H60 C76 1_555 1_555
C77 C76 1_555 1_555
H61 C77 1_555 1_555
N1 C6 1_555 1_555
N2 C9 1_555 1_555
N3 C16 1_555 1_555
N4 C19 1_555 1_555
N5 C22 1_555 1_555
N6 C30 1_555 1_555
N7 C33 1_555 1_555
N8 C40 1_555 1_555
N9 C43 1_555 1_555
N10 C46 1_555 1_555
N11 C54 1_555 1_555
N12 C57 1_555 1_555
N13 Zn3 1_555 1_555
N14 C67 1_555 1_555
N15 C70 1_555 1_555
N16 Zn1 1_555 1_555
O1 Zn1 1_555 1_555
O2 Zn1 1_555 1_555
O3 Zn2 1_555 1_555
O4 Zn1 1_555 1_555
O5 Zn3 1_555 1_555
O6 Zn3 1_555 1_555
O7 C78 1_555 1_555
C79 O8 1_555 1_555
C80 O9 1_555 1_555
C73B H58B 1_555 1_555
C74B C73B 1_555 1_555
H59B C74B 1_555 1_555
C75B C75 1_555 1_555
C76B C75B 1_555 1_555
H60B C76B 1_555 1_555
C77B C76B 1_555 1_555
H61B C77B 1_555 1_555
N16B C73B 1_555 1_555
Zn1B N16B 1_555 1_555
Zn2B N8B 1_555 1_555
Zn3B N10B 1_555 1_555
C1B H1B 1_555 1_555
C2B C1B 1_555 1_555
H2B C2B 1_555 1_555
C3B C2B 1_555 1_555
H3B C3B 1_555 1_555
C4B C3B 1_555 1_555
H4B C4B 1_555 1_555
C5B C4B 1_555 1_555
H5B C5B 1_555 1_555
C6B C1B 1_555 1_555
C7B C8B 1_555 1_555
C8B C9B 1_555 1_555
C9B C10B 1_555 1_555
C10B C11B 1_555 1_555
C11B H6B 1_555 1_555
C12B C11B 1_555 1_555
H7B C12B 1_555 1_555
C13B C12B 1_555 1_555
H8B C13B 1_555 1_555
C14B C13B 1_555 1_555
H9B C14B 1_555 1_555
C15B C10B 1_555 1_555
H10B C15B 1_555 1_555
C16B C8B 1_555 1_555
C17B C16B 1_555 1_555
H11B C17B 1_555 1_555
H12B C17B 1_555 1_555
C18B C17B 1_555 1_555
H13B C18B 1_555 1_555
H14B C18B 1_555 1_555
H15B C18B 1_555 1_555
C19B C20B 1_555 1_555
C20B C21B 1_555 1_555
C21B H16B 1_555 1_555
C22B C21B 1_555 1_555
H17B C22B 1_555 1_555
C23B H18B 1_555 1_555
C24B C20B 1_555 1_555
H19B C24B 1_555 1_555
C25B H20B 1_555 1_555
C26B C25B 1_555 1_555
H21B C26B 1_555 1_555
C27B C26B 1_555 1_555
H22B C27B 1_555 1_555
C28B C27B 1_555 1_555
H23B C28B 1_555 1_555
C29B C28B 1_555 1_555
H24B C29B 1_555 1_555
C30B C25B 1_555 1_555
C31B C32B 1_555 1_555
C32B C33B 1_555 1_555
C33B C34B 1_555 1_555
C34B C35B 1_555 1_555
C35B H25B 1_555 1_555
C36B C35B 1_555 1_555
H26B C36B 1_555 1_555
C37B C36B 1_555 1_555
H27B C37B 1_555 1_555
C38B C37B 1_555 1_555
H28B C38B 1_555 1_555
C39B C34B 1_555 1_555
H29B C39B 1_555 1_555
C40B C32B 1_555 1_555
C41B C40B 1_555 1_555
H30B C41B 1_555 1_555
H31B C41B 1_555 1_555
C42B C41B 1_555 1_555
H32B C42B 1_555 1_555
H33B C42B 1_555 1_555
H34B C42B 1_555 1_555
C43B C44B 1_555 1_555
C44B C45B 1_555 1_555
C45B H35B 1_555 1_555
C46B C45B 1_555 1_555
H36B C46B 1_555 1_555
C47B H37B 1_555 1_555
C48B C44B 1_555 1_555
H38B C48B 1_555 1_555
C49B H39B 1_555 1_555
C50B C49B 1_555 1_555
H40B C50B 1_555 1_555
C51B C50B 1_555 1_555
H41B C51B 1_555 1_555
C52B C51B 1_555 1_555
H42B C52B 1_555 1_555
C53B C52B 1_555 1_555
H43B C53B 1_555 1_555
C54B C49B 1_555 1_555
C55B C56B 1_555 1_555
C56B C57B 1_555 1_555
C57B C58B 1_555 1_555
C58B C59B 1_555 1_555
C59B H44B 1_555 1_555
C60B C59B 1_555 1_555
H45B C60B 1_555 1_555
C61B C60B 1_555 1_555
H46B C61B 1_555 1_555
C62B C61B 1_555 1_555
H47B C62B 1_555 1_555
C63B C58B 1_555 1_555
H48B C63B 1_555 1_555
C64B C56B 1_555 1_555
C65B C64B 1_555 1_555
H49B C65B 1_555 1_555
H50B C65B 1_555 1_555
C66B C65B 1_555 1_555
H51B C66B 1_555 1_555
H52B C66B 1_555 1_555
H53B C66B 1_555 1_555
C67B C68B 1_555 1_555
C68B C69B 1_555 1_555
C69B H54B 1_555 1_555
C70B C69B 1_555 1_555
H55B C70B 1_555 1_555
C71B H56B 1_555 1_555
C72B C68B 1_555 1_555
H57B C72B 1_555 1_555
N1B C6B 1_555 1_555
N2B C9B 1_555 1_555
N3B Zn1B 1_555 1_555
N4B C19B 1_555 1_555
N5B C22B 1_555 1_555
N6B C30B 1_555 1_555
N7B C33B 1_555 1_555
N8B C40B 1_555 1_555
N9B C43B 1_555 1_555
N10B C46B 1_555 1_555
N11B C54B 1_555 1_555
N12B C57B 1_555 1_555
N13B Zn3B 1_555 1_555
N14B C67B 1_555 1_555
N15B C70B 1_555 1_555
O1B Zn1B 1_555 1_555
O2B Zn1B 1_555 1_555
O3B Zn2B 1_555 1_555
O4B Zn1B 1_555 1_555
O5B Zn3B 1_555 1_555
O6B Zn3B 1_555 1_555
Zn2A N15 1_555 1_555
Zn2C N15B 1_555 1_555
Zn3A N5B 1_555 1_555
Zn3C N5 1_555 1_555
N5A Zn3B 1_555 1_555
N5C Zn3 1_555 1_555
N15A Zn2 1_555 1_555
N15C Zn2B 1_555 1_555
Zn2 O2 1_555 1_555
Zn2 O4 1_555 1_555
C5 C6 1_555 1_555
C7 N1 1_555 1_555
C7 O1 1_555 1_555
C14 C15 1_555 1_555
C19 O2 1_555 1_555
C23 C24 1_555 1_555
C23 N5 1_555 1_555
C29 C30 1_555 1_555
C31 N6 1_555 1_555
C31 O3 1_555 1_555
C38 C39 1_555 1_555
C43 O4 1_555 1_555
C47 C48 1_555 1_555
C47 N10 1_555 1_555
C53 C54 1_555 1_555
C55 N11 1_555 1_555
C55 O5 1_555 1_555
C62 C63 1_555 1_555
C64 N13 1_555 1_555
C67 O6 1_555 1_555
C71 C72 1_555 1_555
C71 N15 1_555 1_555
C73 N16 1_555 1_555
C77 N16 1_555 1_555
N1 N2 1_555 1_555
N3 N4 1_555 1_555
N6 N7 1_555 1_555
N8 N9 1_555 1_555
N11 N12 1_555 1_555
N13 N14 1_555 1_555
C74B C75B 1_555 1_555
C77B N16B 1_555 1_555
Zn2B O2B 1_555 1_555
Zn2B O4B 1_555 1_555
C5B C6B 1_555 1_555
C7B N1B 1_555 1_555
C7B O1B 1_555 1_555
C14B C15B 1_555 1_555
C16B N3B 1_555 1_555
C19B O2B 1_555 1_555
C23B C24B 1_555 1_555
C23B N5B 1_555 1_555
C29B C30B 1_555 1_555
C31B N6B 1_555 1_555
C31B O3B 1_555 1_555
C38B C39B 1_555 1_555
C43B O4B 1_555 1_555
C47B C48B 1_555 1_555
C47B N10B 1_555 1_555
C53B C54B 1_555 1_555
C55B N11B 1_555 1_555
C55B O5B 1_555 1_555
C62B C63B 1_555 1_555
C64B N13B 1_555 1_555
C67B O6B 1_555 1_555
C71B C72B 1_555 1_555
C71B N15B 1_555 1_555
N1B N2B 1_555 1_555
N3B N4B 1_555 1_555
N6B N7B 1_555 1_555
N8B N9B 1_555 1_555
N11B N12B 1_555 1_555
N13B N14B 1_555 1_555

#END
