
#######################################################################
#
#                 Cambridge Crystallographic Data Centre
#                                CCDC 
#
#######################################################################
#
# If this CIF has been generated from an entry in the Cambridge 
# Structural Database, then it will include bibliographic, chemical, 
# crystal, experimental, refinement or atomic coordinate data resulting 
# from the CCDC's data processing and validation procedures.
#
#######################################################################

data_BEWWUW
_symmetry_cell_setting           rhombohedral
_symmetry_space_group_name_H-M   'R -3'
_symmetry_Int_Tables_number      148
_space_group_name_Hall           '-R 3'
loop_
_symmetry_equiv_pos_site_id
_symmetry_equiv_pos_as_xyz
1 x,y,z
2 -y,x-y,z
3 -x+y,-x,z
4 2/3+x,1/3+y,1/3+z
5 2/3-y,1/3+x-y,1/3+z
6 2/3-x+y,1/3-x,1/3+z
7 1/3+x,2/3+y,2/3+z
8 1/3-y,2/3+x-y,2/3+z
9 1/3-x+y,2/3-x,2/3+z
10 -x,-y,-z
11 y,-x+y,-z
12 x-y,x,-z
13 1/3-x,2/3-y,2/3-z
14 1/3+y,2/3-x+y,2/3-z
15 1/3+x-y,2/3+x,2/3-z
16 2/3-x,1/3-y,1/3-z
17 2/3+y,1/3-x+y,1/3-z
18 2/3+x-y,1/3+x,1/3-z
_cell_length_a                   21.063(4)
_cell_length_b                   21.063(4)
_cell_length_c                   46.848(13)
_cell_angle_alpha                90
_cell_angle_beta                 90
_cell_angle_gamma                120
_cell_volume                     17999.6
loop_
_atom_site_label
_atom_site_type_symbol
_atom_site_fract_x
_atom_site_fract_y
_atom_site_fract_z
S1 S 0.96463(9) 0.36550(8) 0.09753(4)
F1 F 0.9238(2) 0.4639(2) 0.10084(10)
F2 F 0.9574(2) 0.4419(2) 0.13969(8)
F3 F 1.0368(2) 0.5056(2) 0.10814(9)
O1 O 1.0258(2) 0.3653(3) 0.10963(10)
O2 O 0.9702(2) 0.3802(2) 0.06756(9)
O3 O 0.8954(2) 0.3096(2) 0.10763(10)
C1 C 0.9719(3) 0.4483(4) 0.11240(15)
Ag1 Ag 0.65960(2) 0.78828(2) 0.085111(11)
N1 N 0.7564(2) 0.8476(2) 0.11174(9)
N2 N 0.5690(2) 0.7457(2) 0.05572(9)
N3 N 0.6164(2) 0.8586(2) 0.03281(10)
N4 N 0.7148(2) 0.9231(2) 0.13022(9)
N5 N 0.7931(2) 1.0485(2) 0.12136(10)
N6 N 0.5484(2) 0.9169(2) 0.04165(10)
C2 C 0.9555(3) 0.9250(3) 0.04101(10)
H1 H 0.9254 0.8744 0.0415
C3 C 0.9233(2) 0.9686(3) 0.04069(10)
C4 C 0.8433(3) 0.9363(2) 0.04043(11)
C5 C 0.7982(3) 0.8718(3) 0.02463(11)
H2 H 0.8188 0.8474 0.0153
C6 C 0.7234(3) 0.8452(3) 0.02306(11)
H3 H 0.6939 0.8026 0.0128
C7 C 0.6920(2) 0.8814(3) 0.03657(11)
C8 C 0.7358(3) 0.9441(3) 0.05244(11)
H4 H 0.7149 0.9681 0.0618
C9 C 0.8099(2) 0.9706(3) 0.05435(11)
H5 H 0.8385 1.0124 0.0652
C10 C 0.5998(3) 0.9155(3) 0.02623(11)
C11 C 0.6402(3) 0.9654(3) 0.00537(12)
H6 H 0.6747 0.9605 -0.0053
C12 C 0.6278(3) 1.0224(3) 0.00084(14)
H7 H 0.6543 1.0573 -0.0130
C13 C 0.5760(3) 1.0281(3) 0.01689(13)
H8 H 0.5670 1.0667 0.0144
C14 C 0.5384(3) 0.9741(3) 0.03665(13)
H9 H 0.5031 0.9774 0.0475
C15 C 0.5606(3) 0.7866(3) 0.03633(12)
C16 C 0.4973(3) 0.7596(3) 0.01953(11)
H10 H 0.4914 0.7892 0.0063
C17 C 0.4435(3) 0.6868(3) 0.02337(13)
H11 H 0.4013 0.6668 0.0123
C18 C 0.4520(3) 0.6443(3) 0.04324(13)
H12 H 0.4157 0.5958 0.0462
C19 C 0.5148(3) 0.6749(3) 0.05860(12)
H13 H 0.5213 0.6458 0.0719
C20 C 0.3814(2) 0.6403(2) 0.12565(10)
H14 H 0.4137 0.6224 0.1264
C21 C 0.4086(2) 0.7150(3) 0.12513(10)
C22 C 0.4887(2) 0.7681(2) 0.12568(11)
C23 C 0.5184(3) 0.8332(3) 0.11009(12)
H15 H 0.4881 0.8433 0.0989
C24 C 0.5928(3) 0.8828(3) 0.11125(11)
H16 H 0.6120 0.9258 0.1007
C25 C 0.6390(3) 0.8693(2) 0.12795(11)
C26 C 0.6112(3) 0.8050(3) 0.14305(11)
H17 H 0.6418 0.7956 0.1544
C27 C 0.5365(3) 0.7539(3) 0.14132(11)
H18 H 0.5182 0.7094 0.1508
C28 C 0.7338(3) 0.9975(3) 0.13466(11)
C29 C 0.6896(3) 1.0124(3) 0.15195(12)
H19 H 0.6495 0.9754 0.1615
C30 C 0.7079(3) 1.0850(3) 0.15437(14)
H20 H 0.6794 1.0976 0.1655
C31 C 0.7686(3) 1.1386(3) 0.14026(15)
H21 H 0.7809 1.1876 0.1411
C32 C 0.8093(3) 1.1175(3) 0.12526(13)
H22 H 0.8521 1.1541 0.1169
C33 C 0.8081(3) 0.8281(3) 0.10966(13)
H23 H 0.7988 0.7887 0.0980
C34 C 0.8732(3) 0.8630(3) 0.12374(13)
H24 H 0.9084 0.8490 0.1214
C35 C 0.8849(3) 0.9193(3) 0.14146(13)
H25 H 0.9283 0.9436 0.1518
C36 C 0.8334(3) 0.9403(3) 0.14407(12)
H26 H 0.8412 0.9783 0.1563
C37 C 0.7694(3) 0.9040(3) 0.12819(12)
C21B C 0.3064(4) 0.5914(2) 0.12513(10)
C20B C 0.2589(3) 0.6186(2) 0.12565(10)
H14B H 0.2087 0.5863 0.1264
C21A C 0.2850(3) 0.6936(4) 0.12513(10)
C20A C 0.3597(2) 0.7411(3) 0.12565(10)
H14A H 0.3776 0.7913 0.1264
C22A C 0.2319(2) 0.7206(3) 0.12568(11)
C23A C 0.1668(3) 0.6852(4) 0.11009(12)
H15A H 0.1567 0.6448 0.0989
C24A C 0.1172(3) 0.7100(4) 0.11125(11)
H16A H 0.0742 0.6862 0.1007
C25A C 0.1307(2) 0.7697(4) 0.12795(11)
N4A N 0.0769(2) 0.7917(3) 0.13022(9)
C28A C 0.0025(3) 0.7363(4) 0.13466(11)
N5A N -0.0485(2) 0.7446(3) 0.12136(10)
C32A C -0.1175(3) 0.6918(4) 0.12526(13)
C31A C -0.1386(3) 0.6300(4) 0.14026(15)
C30A C -0.0850(3) 0.6229(4) 0.15437(14)
C29A C -0.0124(3) 0.6772(4) 0.15195(12)
H19A H 0.0246 0.6741 0.1615
H20A H -0.0976 0.5818 0.1655
H21A H -0.1876 0.5933 0.1411
H22A H -0.1541 0.6980 0.1169
C37A C 0.0960(3) 0.8654(4) 0.12819(12)
N1A N 0.1524(2) 0.9088(3) 0.11174(9)
C33A C 0.1719(3) 0.9800(4) 0.10966(13)
H23A H 0.2113 1.0101 0.0980
C34A C 0.1370(3) 1.0102(4) 0.12374(13)
H24A H 0.1510 1.0594 0.1214
C35A C 0.0807(3) 0.9656(4) 0.14146(13)
H25A H 0.0564 0.9847 0.1518
C36A C 0.0597(3) 0.8931(4) 0.14407(12)
H26A H 0.0217 0.8629 0.1563
C26A C 0.1950(3) 0.8062(4) 0.14305(11)
H17A H 0.2044 0.8462 0.1544
C27A C 0.2461(3) 0.7826(4) 0.14132(11)
H18A H 0.2906 0.8088 0.1508
C22B C 0.2794(3) 0.5113(2) 0.12568(11)
C23B C 0.3148(4) 0.4816(3) 0.11009(12)
H15B H 0.3552 0.5119 0.0989
C24B C 0.2900(4) 0.4072(3) 0.11125(11)
H16B H 0.3138 0.3880 0.1007
C25B C 0.2303(4) 0.3610(3) 0.12795(11)
N4B N 0.2083(3) 0.2852(2) 0.13022(9)
C28B C 0.2637(4) 0.2662(3) 0.13466(11)
N5B N 0.2554(3) 0.2069(2) 0.12136(10)
C32B C 0.3082(4) 0.1907(3) 0.12526(13)
C31B C 0.3700(4) 0.2314(3) 0.14026(15)
C30B C 0.3771(4) 0.2921(3) 0.15437(14)
C29B C 0.3228(4) 0.3104(3) 0.15195(12)
H19B H 0.3259 0.3505 0.1615
H20B H 0.4182 0.3206 0.1655
H21B H 0.4067 0.2191 0.1411
H22B H 0.3020 0.1479 0.1169
C37B C 0.1346(4) 0.2306(3) 0.12819(12)
N1B N 0.0912(3) 0.2436(2) 0.11174(9)
C33B C 0.0200(4) 0.1919(3) 0.10966(13)
H23B H -0.0101 0.2012 0.0980
C34B C -0.0102(4) 0.1268(3) 0.12374(13)
H24B H -0.0594 0.0916 0.1214
C35B C 0.0344(4) 0.1151(3) 0.14146(13)
H25B H 0.0153 0.0717 0.1518
C36B C 0.1069(4) 0.1666(3) 0.14407(12)
H26B H 0.1371 0.1588 0.1563
C26B C 0.1938(4) 0.3888(3) 0.14305(11)
H17B H 0.1538 0.3582 0.1544
C27B C 0.2174(4) 0.4635(3) 0.14132(11)
H18B H 0.1912 0.4818 0.1508
C3A C 1.0314(3) 0.9547(4) 0.04069(10)
C2A C 1.0750(3) 1.0305(4) 0.04101(10)
H1A H 1.1256 1.0510 0.0415
C3B C 1.0453(4) 1.0767(2) 0.04069(10)
C2B C 0.9695(4) 1.0445(3) 0.04101(10)
H1B H 0.9490 1.0746 0.0415
C4B C 1.0930(4) 1.1567(3) 0.04043(11)
C5B C 1.0736(4) 1.2018(3) 0.02463(11)
H2B H 1.0286 1.1812 0.0153
C6B C 1.1218(4) 1.2766(3) 0.02306(11)
H3B H 1.1087 1.3061 0.0128
C7B C 1.1894(4) 1.3080(2) 0.03657(11)
N3B N 1.2422(3) 1.3836(2) 0.03281(10)
C10B C 1.3157(4) 1.4002(3) 0.02623(11)
N6B N 1.3685(3) 1.4516(2) 0.04165(10)
C14B C 1.4357(4) 1.4616(3) 0.03665(13)
C13B C 1.4521(4) 1.4240(3) 0.01689(13)
C12B C 1.3946(4) 1.3722(3) 0.00084(14)
C11B C 1.3252(4) 1.3598(3) 0.00537(12)
H6B H 1.2858 1.3253 -0.0053
H7B H 1.4030 1.3457 -0.0130
H8B H 1.4997 1.4330 0.0144
H9B H 1.4743 1.4969 0.0475
C15B C 1.2260(4) 1.4394(3) 0.03633(12)
N2B N 1.1767(3) 1.4310(2) 0.05572(9)
C19B C 1.1601(4) 1.4852(3) 0.05860(12)
C18B C 1.1923(4) 1.5480(3) 0.04324(13)
C17B C 1.2433(4) 1.5565(3) 0.02337(13)
C16B C 1.2623(4) 1.5027(3) 0.01953(11)
H10B H 1.2978 1.5086 0.0063
H11B H 1.2655 1.5987 0.0123
H12B H 1.1801 1.5843 0.0462
H13B H 1.1245 1.4787 0.0719
C8B C 1.2083(4) 1.2642(3) 0.05244(11)
H4B H 1.2532 1.2851 0.0618
C9B C 1.1607(4) 1.1901(2) 0.05435(11)
H5B H 1.1739 1.1615 0.0652
C4A C 1.0637(2) 0.9070(4) 0.04043(11)
C5A C 1.1282(3) 0.9264(4) 0.02463(11)
H2A H 1.1526 0.9714 0.0153
C6A C 1.1548(3) 0.8782(4) 0.02306(11)
H3A H 1.1974 0.8913 0.0128
C7A C 1.1186(3) 0.8106(4) 0.03657(11)
N3A N 1.1414(2) 0.7578(3) 0.03281(10)
C10A C 1.0845(3) 0.6843(4) 0.02623(11)
N6A N 1.0831(2) 0.6315(3) 0.04165(10)
C14A C 1.0259(3) 0.5643(4) 0.03665(13)
C13A C 0.9719(3) 0.5479(4) 0.01689(13)
C12A C 0.9776(3) 0.6054(4) 0.00084(14)
C11A C 1.0346(3) 0.6748(4) 0.00537(12)
H6A H 1.0395 0.7142 -0.0053
H7A H 0.9427 0.5970 -0.0130
H8A H 0.9333 0.5003 0.0144
H9A H 1.0226 0.5257 0.0475
C15A C 1.2134(3) 0.7740(4) 0.03633(12)
N2A N 1.2543(2) 0.8233(3) 0.05572(9)
C19A C 1.3251(3) 0.8399(4) 0.05860(12)
C18A C 1.3557(3) 0.8077(4) 0.04324(13)
C17A C 1.3132(3) 0.7567(4) 0.02337(13)
C16A C 1.2404(3) 0.7377(4) 0.01953(11)
H10A H 1.2108 0.7022 0.0063
H11A H 1.3332 0.7345 0.0123
H12A H 1.4042 0.8199 0.0462
H13A H 1.3542 0.8755 0.0719
C8A C 1.0559(3) 0.7917(4) 0.05244(11)
H4A H 1.0319 0.7468 0.0618
C9A C 1.0294(3) 0.8393(4) 0.05435(11)
H5A H 0.9876 0.8261 0.0652
Ag1A Ag 0.21172(2) 0.87132(3) 0.085111(11)
Ag1B Ag 0.12868(3) 0.34040(2) 0.085111(11)
Ag1B_2 Ag 1.12868(3) 1.34040(2) 0.085111(11)
Ag1A_2 Ag 1.21172(2) 0.87132(3) 0.085111(11)
N2A_2 N 0.2543(2) 0.8233(3) 0.05572(9)
N2B_2 N 0.1767(3) 0.4310(2) 0.05572(9)
O4 O 0.4834(3) 0.8541(3) -0.03224(10)
C38 C 0.4249(5) 0.7984(5) -0.05003(17)
Cl1 Cl 0.73798(16) 0.13555(16) 0.05070(8)
Cl2 Cl 0.89027(15) 0.17787(14) 0.05138(5)
C39 C 0.8249(4) 0.2036(5) 0.05303(17)
H27 H 0.8308 0.2292 0.0709
H28 H 0.8340 0.2381 0.0377
C40 C 0.7334(5) 0.3964(5) 0.11971(17)
H29 H 0.7791 0.4390 0.1195
C41 C 0.7280(5) 0.3278(5) 0.11988(16)
H30 H 0.7705 0.3247 0.1201
C40B C 0.6630(7) 0.2666(5) 0.11971(17)
H29B H 0.6599 0.2209 0.1195
C41B C 0.5998(7) 0.2720(5) 0.11988(16)
C40A C 0.6036(5) 0.3370(7) 0.11971(17)
H29A H 0.5610 0.3401 0.1195
C41A C 0.6722(5) 0.4002(7) 0.11988(16)
H30A H 0.6753 0.4458 0.1201
H30B H 0.5542 0.2295 0.1201
loop_
_geom_bond_atom_site_label_1
_geom_bond_atom_site_label_2
_geom_bond_site_symmetry_1
_geom_bond_site_symmetry_2
S1 O1 1_555 1_555
F1 C1 1_555 1_555
F2 C1 1_555 1_555
F3 C1 1_555 1_555
O2 S1 1_555 1_555
O3 S1 1_555 1_555
C1 S1 1_555 1_555
Ag1 N1 1_555 1_555
N1 C33 1_555 1_555
N2 Ag1 1_555 1_555
N3 C7 1_555 1_555
N4 C25 1_555 1_555
N5 C28 1_555 1_555
N6 C10 1_555 1_555
C2 H1 1_555 1_555
C3 C2 1_555 1_555
C4 C3 1_555 1_555
C5 C4 1_555 1_555
H2 C5 1_555 1_555
C6 C5 1_555 1_555
H3 C6 1_555 1_555
C7 C6 1_555 1_555
C8 C7 1_555 1_555
H4 C8 1_555 1_555
C9 C4 1_555 1_555
H5 C9 1_555 1_555
C10 N3 1_555 1_555
C11 C10 1_555 1_555
H6 C11 1_555 1_555
C12 C11 1_555 1_555
H7 C12 1_555 1_555
C13 C12 1_555 1_555
H8 C13 1_555 1_555
C14 N6 1_555 1_555
H9 C14 1_555 1_555
C15 N2 1_555 1_555
C16 C15 1_555 1_555
H10 C16 1_555 1_555
C17 C16 1_555 1_555
H11 C17 1_555 1_555
C18 C17 1_555 1_555
H12 C18 1_555 1_555
C19 N2 1_555 1_555
H13 C19 1_555 1_555
C20 H14 1_555 1_555
C21 C20 1_555 1_555
C22 C21 1_555 1_555
C23 C22 1_555 1_555
H15 C23 1_555 1_555
C24 C23 1_555 1_555
H16 C24 1_555 1_555
C25 C24 1_555 1_555
C26 C25 1_555 1_555
H17 C26 1_555 1_555
C27 C22 1_555 1_555
H18 C27 1_555 1_555
C28 N4 1_555 1_555
C29 C28 1_555 1_555
H19 C29 1_555 1_555
C30 C29 1_555 1_555
H20 C30 1_555 1_555
C31 C30 1_555 1_555
H21 C31 1_555 1_555
C32 N5 1_555 1_555
H22 C32 1_555 1_555
C33 H23 1_555 1_555
C34 C33 1_555 1_555
H24 C34 1_555 1_555
C35 C34 1_555 1_555
H25 C35 1_555 1_555
C36 C35 1_555 1_555
H26 C36 1_555 1_555
C37 N1 1_555 1_555
O4 C38 1_555 1_555
Cl1 C39 1_555 1_555
Cl2 C39 1_555 1_555
C39 H27 1_555 1_555
H28 C39 1_555 1_555
C40 H29 1_555 1_555
C41 C40 1_555 1_555
H30 C41 1_555 1_555
C21B C20 1_555 1_555
C20B C21B 1_555 1_555
H14B C20B 1_555 1_555
C21A C20B 1_555 1_555
C20A C21 1_555 1_555
H14A C20A 1_555 1_555
C22A C21A 1_555 1_555
C23A C22A 1_555 1_555
H15A C23A 1_555 1_555
C24A C23A 1_555 1_555
H16A C24A 1_555 1_555
C25A C24A 1_555 1_555
N4A C25A 1_555 1_555
C28A N4A 1_555 1_555
N5A C28A 1_555 1_555
C32A N5A 1_555 1_555
C31A C32A 1_555 1_555
C30A C31A 1_555 1_555
C29A C28A 1_555 1_555
H19A C29A 1_555 1_555
H20A C30A 1_555 1_555
H21A C31A 1_555 1_555
H22A C32A 1_555 1_555
C37A N4A 1_555 1_555
N1A C37A 1_555 1_555
C33A N1A 1_555 1_555
H23A C33A 1_555 1_555
C34A C33A 1_555 1_555
H24A C34A 1_555 1_555
C35A C34A 1_555 1_555
H25A C35A 1_555 1_555
C36A C37A 1_555 1_555
H26A C36A 1_555 1_555
C26A C25A 1_555 1_555
H17A C26A 1_555 1_555
C27A C22A 1_555 1_555
H18A C27A 1_555 1_555
C22B C21B 1_555 1_555
C23B C22B 1_555 1_555
H15B C23B 1_555 1_555
C24B C23B 1_555 1_555
H16B C24B 1_555 1_555
C25B C24B 1_555 1_555
N4B C25B 1_555 1_555
C28B N4B 1_555 1_555
N5B C28B 1_555 1_555
C32B N5B 1_555 1_555
C31B C32B 1_555 1_555
C30B C31B 1_555 1_555
C29B C28B 1_555 1_555
H19B C29B 1_555 1_555
H20B C30B 1_555 1_555
H21B C31B 1_555 1_555
H22B C32B 1_555 1_555
C37B N4B 1_555 1_555
N1B C37B 1_555 1_555
C33B N1B 1_555 1_555
H23B C33B 1_555 1_555
C34B C33B 1_555 1_555
H24B C34B 1_555 1_555
C35B C34B 1_555 1_555
H25B C35B 1_555 1_555
C36B C37B 1_555 1_555
H26B C36B 1_555 1_555
C26B C25B 1_555 1_555
H17B C26B 1_555 1_555
C27B C22B 1_555 1_555
H18B C27B 1_555 1_555
C3A C2 1_555 1_555
C2A C3A 1_555 1_555
H1A C2A 1_555 1_555
C3B C2A 1_555 1_555
C2B C3 1_555 1_555
H1B C2B 1_555 1_555
C4B C3B 1_555 1_555
C5B C4B 1_555 1_555
H2B C5B 1_555 1_555
C6B C5B 1_555 1_555
H3B C6B 1_555 1_555
C7B C6B 1_555 1_555
N3B C7B 1_555 1_555
C10B N3B 1_555 1_555
N6B C10B 1_555 1_555
C14B N6B 1_555 1_555
C13B C14B 1_555 1_555
C12B C13B 1_555 1_555
C11B C10B 1_555 1_555
H6B C11B 1_555 1_555
H7B C12B 1_555 1_555
H8B C13B 1_555 1_555
H9B C14B 1_555 1_555
C15B N3B 1_555 1_555
N2B C15B 1_555 1_555
C19B N2B 1_555 1_555
C18B C19B 1_555 1_555
C17B C18B 1_555 1_555
C16B C15B 1_555 1_555
H10B C16B 1_555 1_555
H11B C17B 1_555 1_555
H12B C18B 1_555 1_555
H13B C19B 1_555 1_555
C8B C7B 1_555 1_555
H4B C8B 1_555 1_555
C9B C4B 1_555 1_555
H5B C9B 1_555 1_555
C4A C3A 1_555 1_555
C5A C4A 1_555 1_555
H2A C5A 1_555 1_555
C6A C5A 1_555 1_555
H3A C6A 1_555 1_555
C7A C6A 1_555 1_555
N3A C7A 1_555 1_555
C10A N3A 1_555 1_555
N6A C10A 1_555 1_555
C14A N6A 1_555 1_555
C13A C14A 1_555 1_555
C12A C13A 1_555 1_555
C11A C10A 1_555 1_555
H6A C11A 1_555 1_555
H7A C12A 1_555 1_555
H8A C13A 1_555 1_555
H9A C14A 1_555 1_555
C15A N3A 1_555 1_555
N2A C15A 1_555 1_555
C19A N2A 1_555 1_555
C18A C19A 1_555 1_555
C17A C18A 1_555 1_555
C16A C15A 1_555 1_555
H10A C16A 1_555 1_555
H11A C17A 1_555 1_555
H12A C18A 1_555 1_555
H13A C19A 1_555 1_555
C8A C7A 1_555 1_555
H4A C8A 1_555 1_555
C9A C4A 1_555 1_555
H5A C9A 1_555 1_555
Ag1A N1A 1_555 1_555
Ag1B N1B 1_555 1_555
Ag1B_2 N2B 1_555 1_555
Ag1A_2 N2A 1_555 1_555
N2A_2 Ag1A 1_555 1_555
N2B_2 Ag1B 1_555 1_555
C40B C41 1_555 1_555
H29B C40B 1_555 1_555
C41B C40B 1_555 1_555
C40A C41B 1_555 1_555
H29A C40A 1_555 1_555
C41A C40 1_555 1_555
H30A C41A 1_555 1_555
H30B C41B 1_555 1_555
N3 C15 1_555 1_555
N4 C37 1_555 1_555
C8 C9 1_555 1_555
C13 C14 1_555 1_555
C18 C19 1_555 1_555
C26 C27 1_555 1_555
C31 C32 1_555 1_555
C36 C37 1_555 1_555
C21A C20A 1_555 1_555
C30A C29A 1_555 1_555
C35A C36A 1_555 1_555
C26A C27A 1_555 1_555
C30B C29B 1_555 1_555
C35B C36B 1_555 1_555
C26B C27B 1_555 1_555
C3B C2B 1_555 1_555
C12B C11B 1_555 1_555
C17B C16B 1_555 1_555
C8B C9B 1_555 1_555
C12A C11A 1_555 1_555
C17A C16A 1_555 1_555
C8A C9A 1_555 1_555
C40A C41A 1_555 1_555

#END
