
#######################################################################
#
#                 Cambridge Crystallographic Data Centre
#                                CCDC 
#
#######################################################################
#
# If this CIF has been generated from an entry in the Cambridge 
# Structural Database, then it will include bibliographic, chemical, 
# crystal, experimental, refinement or atomic coordinate data resulting 
# from the CCDC's data processing and validation procedures.
#
#######################################################################

data_BEXDUE
_symmetry_cell_setting           monoclinic
_symmetry_space_group_name_H-M   'P 21/a'
_symmetry_Int_Tables_number      14
_space_group_name_Hall           '-P 2yab'
loop_
_symmetry_equiv_pos_site_id
_symmetry_equiv_pos_as_xyz
1 x,y,z
2 1/2+x,1/2-y,z
3 -x,-y,-z
4 1/2-x,1/2+y,-z
_cell_length_a                   9.6779(10)
_cell_length_b                   9.1718(10)
_cell_length_c                   12.9144(12)
_cell_angle_alpha                90
_cell_angle_beta                 102.796(8)
_cell_angle_gamma                90
_cell_volume                     1117.86
loop_
_atom_site_label
_atom_site_type_symbol
_atom_site_fract_x
_atom_site_fract_y
_atom_site_fract_z
Cu1 Cu 0.56180(3) -0.41378(3) -0.19938(3)
O1 O 0.4082(2) -0.3049(2) -0.2906(2)
O2 O 0.2369(2) -0.1516(3) -0.2773(2)
O3 O 0.6657(2) -0.5163(2) -0.0718(2)
O4 O 0.7289(3) -0.4996(2) 0.1027(2)
N1 N 0.5699(2) -0.2442(2) -0.1009(2)
N2 N 0.0260(3) 0.0920(3) -0.2882(2)
C1 C 0.4313(3) -0.1710(4) -0.1294(3)
C2 C 0.3512(3) -0.2111(3) -0.2415(2)
C3 C 0.6105(3) -0.2971(3) 0.0093(2)
C4 C 0.6749(3) -0.4488(3) 0.0153(2)
C5 C 0.0805(7) 0.2184(5) -0.2581(3)
C6 C 0.0602(8) 0.3422(5) -0.3190(4)
C7 C -0.0286(5) 0.3405(5) -0.4138(4)
C8 C -0.0789(8) 0.2088(7) -0.4498(6)
C9 C -0.0525(7) 0.0891(6) -0.3864(5)
C10 C -0.0602(6) 0.4783(7) -0.4820(5)
H1 H 0.6406 -0.1785 -0.1129
H2 H 0.3762 -0.1993 -0.0803
H3 H 0.4456 -0.0685 -0.1256
H4 H 0.6780 -0.2318 0.0494
H5 H 0.5286 -0.2998 0.0384
H6 H 0.1389 0.2256 -0.1887
H7 H 0.1095 0.4292 -0.2936
H8 H -0.1336 0.1995 -0.5203
H9 H -0.0923 -0.0013 -0.4139
H10 H -0.0872 0.5545 -0.4407
H11 H -0.1355 0.4590 -0.5414
O2A O 0.7369(2) -0.3484(3) -0.2773(2)
Cu1A Cu 0.06180(3) -0.08622(3) -0.19938(3)
O1A O -0.0918(2) -0.1951(2) -0.2906(2)
C2A C -0.1488(3) -0.2889(3) -0.2415(2)
O2A_2 O -0.2631(2) -0.3484(3) -0.2773(2)
Cu1_2 Cu -0.43820(3) -0.41378(3) -0.19938(3)
C1A C -0.0687(3) -0.3290(4) -0.1294(3)
O3A O 0.1657(2) 0.0163(2) -0.0718(2)
N1A N 0.0699(2) -0.2558(2) -0.1009(2)
N2A N 0.5260(3) -0.5920(3) -0.2882(2)
C3A C 0.1105(3) -0.2029(3) 0.0093(2)
H1A H 0.1406 -0.3215 -0.1129
H2A H -0.1238 -0.3007 -0.0803
H3A H -0.0544 -0.4315 -0.1256
C4A C 0.1749(3) -0.0512(3) 0.0153(2)
H4A H 0.1780 -0.2682 0.0494
H5A H 0.0286 -0.2002 0.0384
O4A O 0.2289(3) -0.0004(2) 0.1027(2)
C10B C 0.0602(6) 0.5217(7) -0.5180(5)
C7B C 0.0286(5) 0.6595(5) -0.5862(4)
H10B H 0.0872 0.4455 -0.5593
H11B H 0.1355 0.5410 -0.4586
C6B C -0.0602(8) 0.6578(5) -0.6810(4)
C8B C 0.0789(8) 0.7912(7) -0.5502(6)
C5B C -0.0805(7) 0.7816(5) -0.7419(3)
H7B H -0.1095 0.5708 -0.7064
C9B C 0.0525(7) 0.9109(6) -0.6136(5)
H8B H 0.1336 0.8005 -0.4797
N2B N -0.0260(3) 0.9080(3) -0.7118(2)
H6B H -0.1389 0.7744 -0.8113
H9B H 0.0923 1.0013 -0.5861
Cu1C Cu -0.06180(3) 1.08622(3) -0.80062(3)
loop_
_geom_bond_atom_site_label_1
_geom_bond_atom_site_label_2
_geom_bond_site_symmetry_1
_geom_bond_site_symmetry_2
Cu1 O1 1_555 1_555
O1 C2 1_555 1_555
O2 C2 1_555 1_555
O3 Cu1 1_555 1_555
O4 C4 1_555 1_555
N1 Cu1 1_555 1_555
N2 C5 1_555 1_555
C1 N1 1_555 1_555
C2 C1 1_555 1_555
C3 N1 1_555 1_555
C4 O3 1_555 1_555
C5 C6 1_555 1_555
C6 C7 1_555 1_555
C7 C8 1_555 1_555
C8 C9 1_555 1_555
C9 N2 1_555 1_555
C10 C7 1_555 1_555
H1 N1 1_555 1_555
H2 C1 1_555 1_555
H3 C1 1_555 1_555
H4 C3 1_555 1_555
H5 C3 1_555 1_555
H6 C5 1_555 1_555
H7 C6 1_555 1_555
H8 C8 1_555 1_555
H9 C9 1_555 1_555
H10 C10 1_555 1_555
H11 C10 1_555 1_555
O2A Cu1 1_555 1_555
Cu1A O2 1_555 1_555
O1A Cu1A 1_555 1_555
C2A O1A 1_555 1_555
O2A_2 C2A 1_555 1_555
Cu1_2 O2A_2 1_555 1_555
C1A C2A 1_555 1_555
O3A Cu1A 1_555 1_555
N1A Cu1A 1_555 1_555
N2A Cu1 1_555 1_555
C3A N1A 1_555 1_555
H1A N1A 1_555 1_555
H2A C1A 1_555 1_555
H3A C1A 1_555 1_555
C4A O3A 1_555 1_555
H4A C3A 1_555 1_555
H5A C3A 1_555 1_555
O4A C4A 1_555 1_555
C10B C10 1_555 1_555
C7B C10B 1_555 1_555
H10B C10B 1_555 1_555
H11B C10B 1_555 1_555
C6B C7B 1_555 1_555
C8B C7B 1_555 1_555
C5B C6B 1_555 1_555
H7B C6B 1_555 1_555
C9B C8B 1_555 1_555
H8B C8B 1_555 1_555
N2B C5B 1_555 1_555
H6B C5B 1_555 1_555
H9B C9B 1_555 1_555
Cu1C N2B 1_555 1_555
N2 Cu1A 1_555 1_555
C3 C4 1_555 1_555
C1A N1A 1_555 1_555
C3A C4A 1_555 1_555
C9B N2B 1_555 1_555

#END
