
#######################################################################
#
#                 Cambridge Crystallographic Data Centre
#                                CCDC 
#
#######################################################################
#
# If this CIF has been generated from an entry in the Cambridge 
# Structural Database, then it will include bibliographic, chemical, 
# crystal, experimental, refinement or atomic coordinate data resulting 
# from the CCDC's data processing and validation procedures.
#
#######################################################################

data_BEXTEF
_symmetry_cell_setting           triclinic
_symmetry_space_group_name_H-M   'P -1'
_symmetry_Int_Tables_number      2
_space_group_name_Hall           '-P 1'
loop_
_symmetry_equiv_pos_site_id
_symmetry_equiv_pos_as_xyz
1 x,y,z
2 -x,-y,-z
_cell_length_a                   9.504(3)
_cell_length_b                   11.959(4)
_cell_length_c                   11.974(4)
_cell_angle_alpha                115.662(4)
_cell_angle_beta                 90.210(5)
_cell_angle_gamma                102.430(4)
_cell_volume                     1190.68
loop_
_atom_site_label
_atom_site_type_symbol
_atom_site_fract_x
_atom_site_fract_y
_atom_site_fract_z
C1 C 0.6908(5) 0.7201(5) 0.2232(5)
C2 C 0.8330(5) 0.8198(4) 0.2652(4)
C3 C 0.9629(5) 0.7825(4) 0.2590(4)
H1 H 0.9629 0.6962 0.2232
C4 C 1.0920(5) 0.8750(4) 0.3065(5)
C5 C 1.2333(5) 0.8351(5) 0.3038(5)
C6 C 1.0933(5) 1.0041(4) 0.3599(5)
H2 H 1.1805 1.0654 0.3924
C7 C 0.9642(6) 1.0413(5) 0.3648(5)
C8 C 0.8331(5) 0.9476(4) 0.3160(5)
H3 H 0.7462 0.9720 0.3180
C9 C 1.0801(6) 1.2636(5) 0.4543(6)
H4 H 1.1481 1.2457 0.3922
H5 H 1.1255 1.2703 0.5304
C10 C 1.0386(5) 1.3878(5) 0.4786(5)
C11 C 0.9312(7) 1.4251(6) 0.5526(7)
H6 H 0.8852 1.3755 0.5902
C12 C 1.1090(7) 1.4640(5) 0.4285(6)
H7 H 1.1846 1.4413 0.3812
C13 C 0.4239(5) 0.3930(4) 0.1213(5)
H8 H 0.5246 0.4130 0.1332
C14 C 0.1991(5) 0.2803(4) 0.0670(5)
H9 H 0.1179 0.2120 0.0364
C15 C 0.3808(6) 0.1525(4) 0.0140(5)
H10 H 0.3727 0.1207 -0.0759
H11 H 0.3150 0.0906 0.0331
C16 C 0.5341(6) 0.1667(4) 0.0613(5)
C17 C 0.6448(7) 0.1933(6) -0.0057(5)
H12 H 0.6218 0.2003 -0.0776
C18 C 0.7879(7) 0.2096(7) 0.0325(6)
H13 H 0.8607 0.2254 -0.0142
C19 C 0.8221(7) 0.2021(7) 0.1413(7)
H14 H 0.9185 0.2154 0.1693
C20 C 0.7133(7) 0.1749(6) 0.2081(6)
H15 H 0.7372 0.1691 0.2805
C21 C 0.5684(6) 0.1561(5) 0.1690(5)
C22 C 0.4537(6) 0.1194(5) 0.2412(5)
H16 H 0.3598 0.1183 0.2082
H17 H 0.4514 0.0339 0.2308
C23 C 0.5256(6) 0.1920(5) 0.4706(5)
H18 H 0.5453 0.1168 0.4646
C24 C 0.4620(6) 0.3282(5) 0.4153(4)
H19 H 0.4325 0.3652 0.3680
N1 N 0.3425(4) 0.4777(4) 0.1522(4)
N2 N 0.2023(6) 0.4015(6) 0.1153(6)
N3 N 0.3389(4) 0.2755(4) 0.0710(4)
N4 N 0.4811(5) 0.2097(4) 0.3760(4)
N5 N 0.4942(7) 0.3788(5) 0.5346(6)
N6 N 0.5376(4) 0.2971(4) 0.5739(4)
O1 O 0.6877(4) 0.6145(4) 0.2142(5)
O2 O 0.5793(3) 0.7585(3) 0.2088(3)
O3 O 1.2260(4) 0.7165(3) 0.2375(3)
O4 O 1.3460(4) 0.9150(3) 0.3619(4)
O5 O 0.9505(4) 1.1643(3) 0.4108(4)
Zn1 Zn 0.40711(6) 0.66956(5) 0.24837(5)
C1A C 1.3092(5) 2.2799(5) 0.7768(5)
C2A C 1.1670(5) 2.1802(4) 0.7348(4)
C3A C 1.0371(5) 2.2175(4) 0.7410(4)
H1A H 1.0371 2.3038 0.7768
C4A C 0.9080(5) 2.1250(4) 0.6935(5)
C5A C 0.7667(5) 2.1649(5) 0.6962(5)
C6A C 0.9067(5) 1.9959(4) 0.6401(5)
H2A H 0.8195 1.9346 0.6076
C7A C 1.0358(6) 1.9587(5) 0.6352(5)
C8A C 1.1669(5) 2.0524(4) 0.6840(5)
H3A H 1.2538 2.0280 0.6820
C9A C 0.9199(6) 1.7364(5) 0.5457(6)
H4A H 0.8519 1.7543 0.6078
H5A H 0.8745 1.7297 0.4696
C10A C 0.9614(5) 1.6122(5) 0.5214(5)
C11A C 1.0688(7) 1.5749(6) 0.4474(7)
H6A H 1.1148 1.6245 0.4098
C12A C 0.8910(7) 1.5360(5) 0.5715(6)
H7A H 0.8154 1.5587 0.6188
O1A O 1.3123(4) 2.3855(4) 0.7858(5)
O2A O 1.4207(3) 2.2415(3) 0.7912(3)
O3A O 0.7740(4) 2.2835(3) 0.7625(3)
O4A O 0.6540(4) 2.0850(3) 0.6381(4)
O5A O 1.0495(4) 1.8357(3) 0.5892(4)
C13A C 0.5761(5) 0.6070(4) 0.8787(5)
H8A H 0.4754 0.5870 0.8668
C14A C 0.8009(5) 0.7197(4) 0.9330(5)
H9A H 0.8821 0.7880 0.9636
C15A C 0.6192(6) 0.8475(4) 0.9860(5)
H10A H 0.6273 0.8793 1.0759
H11A H 0.6850 0.9094 0.9669
C16A C 0.4659(6) 0.8333(4) 0.9387(5)
C17A C 0.3552(7) 0.8067(6) 1.0057(5)
H12A H 0.3782 0.7997 1.0776
C18A C 0.2121(7) 0.7904(7) 0.9675(6)
H13A H 0.1393 0.7746 1.0142
C19A C 0.1779(7) 0.7979(7) 0.8587(7)
H14A H 0.0815 0.7846 0.8307
C20A C 0.2867(7) 0.8251(6) 0.7919(6)
H15A H 0.2628 0.8309 0.7195
C21A C 0.4316(6) 0.8439(5) 0.8310(5)
C22A C 0.5463(6) 0.8806(5) 0.7588(5)
H16A H 0.6402 0.8817 0.7918
H17A H 0.5486 0.9661 0.7692
C23A C 0.4744(6) 0.8080(5) 0.5294(5)
H18A H 0.4547 0.8832 0.5354
C24A C 0.5380(6) 0.6718(5) 0.5847(4)
H19A H 0.5675 0.6348 0.6320
N1A N 0.6575(4) 0.5223(4) 0.8478(4)
N2A N 0.7977(6) 0.5985(6) 0.8847(6)
N3A N 0.6611(4) 0.7245(4) 0.9290(4)
N4A N 0.5189(5) 0.7903(4) 0.6240(4)
N5A N 0.5058(7) 0.6212(5) 0.4654(6)
N6A N 0.4624(4) 0.7029(4) 0.4261(4)
Zn1A Zn 0.59289(6) 0.33044(5) 0.75163(5)
O2A_2 O 0.4207(3) 0.2415(3) 0.7912(3)
O3_2 O 0.2260(4) 0.7165(3) 0.2375(3)
O3A_2 O 0.7740(4) 0.2835(3) 0.7625(3)
Zn1_2 Zn 1.40711(6) 0.66956(5) 0.24837(5)
Zn1A_2 Zn 0.59289(6) 2.33044(5) 0.75163(5)
Zn1A_3 Zn 1.59289(6) 2.33044(5) 0.75163(5)
loop_
_geom_bond_atom_site_label_1
_geom_bond_atom_site_label_2
_geom_bond_site_symmetry_1
_geom_bond_site_symmetry_2
C1 C2 1_555 1_555
C2 C3 1_555 1_555
C3 H1 1_555 1_555
C4 C3 1_555 1_555
C5 C4 1_555 1_555
C6 C4 1_555 1_555
H2 C6 1_555 1_555
C7 C6 1_555 1_555
C8 C2 1_555 1_555
H3 C8 1_555 1_555
C9 H4 1_555 1_555
H5 C9 1_555 1_555
C10 C9 1_555 1_555
C11 C10 1_555 1_555
H6 C11 1_555 1_555
C12 C10 1_555 1_555
H7 C12 1_555 1_555
C13 H8 1_555 1_555
C14 H9 1_555 1_555
C15 H10 1_555 1_555
H11 C15 1_555 1_555
C16 C15 1_555 1_555
C17 C16 1_555 1_555
H12 C17 1_555 1_555
C18 C17 1_555 1_555
H13 C18 1_555 1_555
C19 C18 1_555 1_555
H14 C19 1_555 1_555
C20 C19 1_555 1_555
H15 C20 1_555 1_555
C21 C16 1_555 1_555
C22 C21 1_555 1_555
H16 C22 1_555 1_555
H17 C22 1_555 1_555
C23 H18 1_555 1_555
C24 H19 1_555 1_555
N1 C13 1_555 1_555
N2 C14 1_555 1_555
N3 C13 1_555 1_555
N4 C22 1_555 1_555
N5 C24 1_555 1_555
N6 C23 1_555 1_555
O1 C1 1_555 1_555
O2 C1 1_555 1_555
O3 C5 1_555 1_555
O4 C5 1_555 1_555
O5 C7 1_555 1_555
Zn1 N1 1_555 1_555
C1A C2A 1_555 1_555
C2A C3A 1_555 1_555
C3A H1A 1_555 1_555
C4A C3A 1_555 1_555
C5A C4A 1_555 1_555
C6A C4A 1_555 1_555
H2A C6A 1_555 1_555
C7A C6A 1_555 1_555
C8A C2A 1_555 1_555
H3A C8A 1_555 1_555
C9A H4A 1_555 1_555
H5A C9A 1_555 1_555
C10A C9A 1_555 1_555
C11A C12 1_555 1_555
H6A C11A 1_555 1_555
C12A C11 1_555 1_555
H7A C12A 1_555 1_555
O1A C1A 1_555 1_555
O2A C1A 1_555 1_555
O3A C5A 1_555 1_555
O4A C5A 1_555 1_555
O5A C7A 1_555 1_555
C13A H8A 1_555 1_555
C14A H9A 1_555 1_555
C15A H10A 1_555 1_555
H11A C15A 1_555 1_555
C16A C15A 1_555 1_555
C17A C16A 1_555 1_555
H12A C17A 1_555 1_555
C18A C17A 1_555 1_555
H13A C18A 1_555 1_555
C19A C18A 1_555 1_555
H14A C19A 1_555 1_555
C20A C19A 1_555 1_555
H15A C20A 1_555 1_555
C21A C16A 1_555 1_555
C22A C21A 1_555 1_555
H16A C22A 1_555 1_555
H17A C22A 1_555 1_555
C23A H18A 1_555 1_555
C24A H19A 1_555 1_555
N1A C13A 1_555 1_555
N2A C14A 1_555 1_555
N3A C13A 1_555 1_555
N4A C22A 1_555 1_555
N5A C24A 1_555 1_555
N6A Zn1 1_555 1_555
Zn1A N6 1_555 1_555
O2A_2 Zn1A 1_555 1_555
O3_2 Zn1 1_555 1_555
O3A_2 Zn1A 1_555 1_555
Zn1_2 O3 1_555 1_555
Zn1A_2 O3A 1_555 1_555
Zn1A_3 O2A 1_555 1_555
C7 C8 1_555 1_555
C9 O5 1_555 1_555
C14 N3 1_555 1_555
C15 N3 1_555 1_555
C20 C21 1_555 1_555
C23 N4 1_555 1_555
C24 N4 1_555 1_555
N1 N2 1_555 1_555
N5 N6 1_555 1_555
O2 Zn1 1_555 1_555
C7A C8A 1_555 1_555
C9A O5A 1_555 1_555
C10A C11A 1_555 1_555
C10A C12A 1_555 1_555
C14A N3A 1_555 1_555
C15A N3A 1_555 1_555
C20A C21A 1_555 1_555
C23A N4A 1_555 1_555
C23A N6A 1_555 1_555
C24A N4A 1_555 1_555
N1A N2A 1_555 1_555
N1A Zn1A 1_555 1_555
N5A N6A 1_555 1_555

#END
