
#######################################################################
#
#                 Cambridge Crystallographic Data Centre
#                                CCDC 
#
#######################################################################
#
# If this CIF has been generated from an entry in the Cambridge 
# Structural Database, then it will include bibliographic, chemical, 
# crystal, experimental, refinement or atomic coordinate data resulting 
# from the CCDC's data processing and validation procedures.
#
#######################################################################

data_BEYKOG
_symmetry_cell_setting           monoclinic
_symmetry_space_group_name_H-M   'P 21/c'
_symmetry_Int_Tables_number      14
_space_group_name_Hall           '-P 2ybc'
loop_
_symmetry_equiv_pos_site_id
_symmetry_equiv_pos_as_xyz
1 x,y,z
2 x,1/2-y,1/2+z
3 -x,-y,-z
4 -x,1/2+y,1/2-z
_cell_length_a                   10.636(3)
_cell_length_b                   13.317(3)
_cell_length_c                   20.713(5)
_cell_angle_alpha                90
_cell_angle_beta                 91.174(5)
_cell_angle_gamma                90
_cell_volume                     2933.17
loop_
_atom_site_label
_atom_site_type_symbol
_atom_site_fract_x
_atom_site_fract_y
_atom_site_fract_z
Cd1 Cd 0.12172(3) 0.81112(3) 0.181024(18)
C1 C -0.1082(4) 0.9699(4) 0.2075(2)
C2 C -0.1129(7) 0.8205(7) -0.0086(4)
H1 H -0.1720 0.8186 0.0258
H2 H -0.0993 0.7537 -0.0243
H3 H -0.1455 0.8618 -0.0430
C3 C 0.1880(4) 1.0663(4) 0.1761(2)
C4 C 0.1133(8) 0.8630(9) -0.0548(4)
H4 H 0.1976 0.8876 -0.0490
H5 H 0.0698 0.9026 -0.0869
H6 H 0.1156 0.7942 -0.0686
C6 C 0.0178(5) 1.1294(4) 0.2223(2)
C8 C 0.3162(5) 1.0521(4) 0.1505(2)
C9 C 0.4138(5) 1.1126(4) 0.1739(3)
H13 H 0.3975 1.1629 0.2038
C10 C 0.5348(5) 1.0980(5) 0.1529(3)
H14 H 0.5997 1.1388 0.1684
C11 C 0.5596(5) 1.0230(5) 0.1090(3)
H15 H 0.6416 1.0124 0.0958
C12 C 0.4640(5) 0.9640(5) 0.0849(3)
H16 H 0.4807 0.9141 0.0548
C13 C 0.3428(5) 0.9791(4) 0.1055(2)
H17 H 0.2780 0.9394 0.0887
C14 C 0.4279(5) 0.7678(4) 0.1907(2)
C15 C 0.2882(5) 0.9162(4) 0.3052(2)
C16 C 0.4884(5) 0.8907(4) 0.2780(3)
C17 C 0.1746(5) 0.9518(4) 0.3372(2)
C18 C 0.0679(5) 0.8936(5) 0.3405(3)
H18 H 0.0671 0.8297 0.3223
C19 C -0.0386(6) 0.9294(6) 0.3707(3)
H19 H -0.1109 0.8902 0.3717
C20 C -0.0374(7) 1.0229(6) 0.3993(3)
H20 H -0.1080 1.0458 0.4206
C21 C 0.0672(8) 1.0819(6) 0.3962(3)
H21 H 0.0669 1.1455 0.4148
C22 C 0.1735(6) 1.0478(5) 0.3658(3)
H22 H 0.2445 1.0884 0.3643
N1 N -0.2026(4) 1.0124(3) 0.2368(2)
H23 H -0.1959 1.0731 0.2506
H24 H -0.2713 0.9796 0.2421
N2 N -0.0019(3) 1.0289(3) 0.20125(19)
N3 N 0.1060(3) 0.9898(3) 0.17238(18)
N4 N 0.5478(4) 0.7581(4) 0.1759(2)
H25 H 0.6047 0.7896 0.1980
H26 H 0.5688 0.7202 0.1443
N5 N 0.4022(3) 0.8291(3) 0.24154(19)
N6 N 0.2788(4) 0.8462(3) 0.25960(19)
O1 O -0.0702(3) 1.1773(3) 0.2486(2)
O2 O 0.0935(4) 0.7932(3) 0.06152(18)
O4 O 0.6062(3) 0.8831(3) 0.27124(19)
S1 S -0.11673(13) 0.85102(11) 0.17959(7)
S2 S 0.03204(19) 0.87140(15) 0.02076(9)
S4 S 0.31435(13) 0.70507(11) 0.14814(7)
C23 C 0.1392(5) 1.1518(4) 0.2049(3)
H27 H 0.1806 1.2126 0.2113
C24 C 0.4121(5) 0.9466(4) 0.3171(2)
H28 H 0.4384 0.9958 0.3463
O1C O 0.0702(3) 0.6773(3) 0.2514(2)
Cd1C Cd -0.12172(3) 1.31112(3) 0.318976(18)
C5 C 0.6460(8) 0.6178(10) -0.0572(4)
H7 H 0.7260 0.5918 -0.0428
H8 H 0.6585 0.6789 -0.0809
H9 H 0.6047 0.5694 -0.0847
C7 C 0.4173(9) 0.6862(8) -0.0265(4)
H10 H 0.3571 0.7032 0.0056
H11 H 0.3830 0.6351 -0.0544
H12 H 0.4365 0.7447 -0.0515
O3 O 0.6093(6) 0.7009(6) 0.0530(3)
S3 S 0.5516(2) 0.6425(3) 0.01051(14)
loop_
_geom_bond_atom_site_label_1
_geom_bond_atom_site_label_2
_geom_bond_site_symmetry_1
_geom_bond_site_symmetry_2
Cd1 N3 1_555 1_555
C1 N1 1_555 1_555
C2 H1 1_555 1_555
H2 C2 1_555 1_555
H3 C2 1_555 1_555
C3 C8 1_555 1_555
C4 H4 1_555 1_555
H5 C4 1_555 1_555
H6 C4 1_555 1_555
C5 H7 1_555 1_555
H8 C5 1_555 1_555
H9 C5 1_555 1_555
C6 N2 1_555 1_555
C7 H10 1_555 1_555
H11 C7 1_555 1_555
H12 C7 1_555 1_555
C8 C9 1_555 1_555
C9 H13 1_555 1_555
C10 C9 1_555 1_555
H14 C10 1_555 1_555
C11 C10 1_555 1_555
H15 C11 1_555 1_555
C12 C11 1_555 1_555
H16 C12 1_555 1_555
C13 C8 1_555 1_555
H17 C13 1_555 1_555
C14 N4 1_555 1_555
C15 C17 1_555 1_555
C16 N5 1_555 1_555
C17 C18 1_555 1_555
C18 H18 1_555 1_555
C19 C18 1_555 1_555
H19 C19 1_555 1_555
C20 C19 1_555 1_555
H20 C20 1_555 1_555
C21 C20 1_555 1_555
H21 C21 1_555 1_555
C22 C17 1_555 1_555
H22 C22 1_555 1_555
N1 H23 1_555 1_555
H24 N1 1_555 1_555
N2 C1 1_555 1_555
N3 C3 1_555 1_555
N4 H25 1_555 1_555
H26 N4 1_555 1_555
N5 C14 1_555 1_555
N6 Cd1 1_555 1_555
O1 C6 1_555 1_555
O2 Cd1 1_555 1_555
O3 S3 1_555 1_555
O4 C16 1_555 1_555
S1 Cd1 1_555 1_555
S2 C2 1_555 1_555
S3 C5 1_555 1_555
S4 Cd1 1_555 1_555
C23 C3 1_555 1_555
H27 C23 1_555 1_555
C24 C15 1_555 1_555
H28 C24 1_555 1_555
O1C Cd1 1_555 1_555
Cd1C O1 1_555 1_555
C1 S1 1_555 1_555
C4 S2 1_555 1_555
C6 C23 1_555 1_555
C7 S3 1_555 1_555
C12 C13 1_555 1_555
C14 S4 1_555 1_555
C15 N6 1_555 1_555
C16 C24 1_555 1_555
C21 C22 1_555 1_555
N2 N3 1_555 1_555
N5 N6 1_555 1_555
O2 S2 1_555 1_555

#END
