
#######################################################################
#
#                 Cambridge Crystallographic Data Centre
#                                CCDC 
#
#######################################################################
#
# If this CIF has been generated from an entry in the Cambridge 
# Structural Database, then it will include bibliographic, chemical, 
# crystal, experimental, refinement or atomic coordinate data resulting 
# from the CCDC's data processing and validation procedures.
#
#######################################################################

data_BEZKOI
_symmetry_cell_setting           monoclinic
_symmetry_space_group_name_H-M   'P 21/c'
_symmetry_Int_Tables_number      14
_space_group_name_Hall           '-P 2ybc'
loop_
_symmetry_equiv_pos_site_id
_symmetry_equiv_pos_as_xyz
1 x,y,z
2 -x,1/2+y,1/2-z
3 -x,-y,-z
4 x,1/2-y,1/2+z
_cell_length_a                   5.1990(7)
_cell_length_b                   8.7856(12)
_cell_length_c                   20.404(3)
_cell_angle_alpha                90
_cell_angle_beta                 96.560(2)
_cell_angle_gamma                90
_cell_volume                     925.878
loop_
_atom_site_label
_atom_site_type_symbol
_atom_site_fract_x
_atom_site_fract_y
_atom_site_fract_z
Cd1 Cd 0.5000 0.5000 0.0000
O1 O 0.20294(18) 0.60347(11) 0.06738(4)
O2 O -0.1755(2) 0.49947(13) 0.08587(5)
N1 N 0.5317(2) 0.54328(13) 0.41367(5)
N2 N 0.7805(2) 0.54410(15) 0.44304(6)
N3 N 0.5807(2) 0.76314(12) 0.46232(5)
C1 C 0.1622(2) 0.49327(13) 0.17273(6)
C2 C 0.0205(3) 0.40145(16) 0.21108(6)
H1 H -0.1368 0.3568 0.1920
C3 C 0.1070(3) 0.37440(16) 0.27714(6)
H2 H 0.0100 0.3099 0.3025
C4 C 0.3344(3) 0.44112(14) 0.30626(6)
C5 C 0.4781(3) 0.53151(16) 0.26797(7)
H3 H 0.6342 0.5772 0.2873
C6 C 0.3950(3) 0.55555(16) 0.20157(6)
H4 H 0.4976 0.6149 0.1756
C7 C 0.4213(3) 0.40920(15) 0.37827(6)
H5 H 0.2713 0.3728 0.3997
H6 H 0.5524 0.3270 0.3815
C8 C 0.8002(3) 0.67887(16) 0.47173(7)
H7 H 0.9543 0.7137 0.4967
C9 C 0.4171(3) 0.67361(15) 0.42546(6)
H8 H 0.2433 0.6992 0.4098
C10 C 0.0574(2) 0.53422(14) 0.10252(6)
O1B O -0.20294(18) 0.39653(11) -0.06738(4)
O2B O 0.1755(2) 0.50053(13) -0.08587(5)
N1B N -0.5317(2) 0.45672(13) -0.41367(5)
N2B N -0.7805(2) 0.45590(15) -0.44304(6)
N3B N -0.5807(2) 0.23686(12) -0.46232(5)
C1B C -0.1622(2) 0.50673(13) -0.17273(6)
C2B C -0.0205(3) 0.59855(16) -0.21108(6)
H1B H 0.1368 0.6432 -0.1920
C3B C -0.1070(3) 0.62560(16) -0.27714(6)
H2B H -0.0100 0.6901 -0.3025
C4B C -0.3344(3) 0.55888(14) -0.30626(6)
C5B C -0.4781(3) 0.46849(16) -0.26797(7)
H3B H -0.6342 0.4228 -0.2873
C6B C -0.3950(3) 0.44445(16) -0.20157(6)
H4B H -0.4976 0.3851 -0.1756
C7B C -0.4213(3) 0.59080(15) -0.37827(6)
H5B H -0.2713 0.6272 -0.3997
H6B H -0.5524 0.6730 -0.3815
C8B C -0.8002(3) 0.32113(16) -0.47173(7)
H7B H -0.9543 0.2863 -0.4967
C9B C -0.4171(3) 0.32639(15) -0.42546(6)
H8B H -0.2433 0.3008 -0.4098
C10B C -0.0574(2) 0.46578(14) -0.10252(6)
Cd1_2 Cd -0.5000 0.5000 0.0000
Cd1A Cd -0.5000 0.0000 -0.5000
Cd1A_2 Cd 0.5000 1.0000 0.5000
O1B_2 O 0.79706(18) 0.39653(11) -0.06738(4)
O2_2 O 0.8245(2) 0.49947(13) 0.08587(5)
N3A N 0.4193(2) 0.26314(12) 0.03768(5)
N3C N 0.5807(2) 0.73686(12) -0.03768(5)
loop_
_geom_bond_atom_site_label_1
_geom_bond_atom_site_label_2
_geom_bond_site_symmetry_1
_geom_bond_site_symmetry_2
Cd1 O1 1_555 1_555
O1 C10 1_555 1_555
O2 C10 1_555 1_555
N1 N2 1_555 1_555
N2 C8 1_555 1_555
N3 C8 1_555 1_555
C1 C2 1_555 1_555
C2 H1 1_555 1_555
C3 C2 1_555 1_555
H2 C3 1_555 1_555
C4 C3 1_555 1_555
C5 C4 1_555 1_555
H3 C5 1_555 1_555
C6 C1 1_555 1_555
H4 C6 1_555 1_555
C7 N1 1_555 1_555
H5 C7 1_555 1_555
H6 C7 1_555 1_555
C8 H7 1_555 1_555
C9 N1 1_555 1_555
H8 C9 1_555 1_555
C10 C1 1_555 1_555
O1B C10B 1_555 1_555
O2B Cd1 1_555 1_555
N1B N2B 1_555 1_555
N2B C8B 1_555 1_555
N3B C8B 1_555 1_555
C1B C2B 1_555 1_555
C2B H1B 1_555 1_555
C3B C2B 1_555 1_555
H2B C3B 1_555 1_555
C4B C3B 1_555 1_555
C5B C4B 1_555 1_555
H3B C5B 1_555 1_555
C6B C1B 1_555 1_555
H4B C6B 1_555 1_555
C7B N1B 1_555 1_555
H5B C7B 1_555 1_555
H6B C7B 1_555 1_555
C8B H7B 1_555 1_555
C9B N1B 1_555 1_555
H8B C9B 1_555 1_555
C10B O2B 1_555 1_555
Cd1_2 O2 1_555 1_555
Cd1A N3B 1_555 1_555
Cd1A_2 N3 1_555 1_555
O1B_2 Cd1 1_555 1_555
O2_2 Cd1 1_555 1_555
N3A Cd1 1_555 1_555
N3C Cd1 1_555 1_555
N3 C9 1_555 1_555
C4 C7 1_555 1_555
C5 C6 1_555 1_555
O1B Cd1_2 1_555 1_555
N3B C9B 1_555 1_555
C1B C10B 1_555 1_555
C4B C7B 1_555 1_555
C5B C6B 1_555 1_555

#END
