
#######################################################################
#
#                 Cambridge Crystallographic Data Centre
#                                CCDC 
#
#######################################################################
#
# If this CIF has been generated from an entry in the Cambridge 
# Structural Database, then it will include bibliographic, chemical, 
# crystal, experimental, refinement or atomic coordinate data resulting 
# from the CCDC's data processing and validation procedures.
#
#######################################################################

data_BEZMIE
_symmetry_cell_setting           triclinic
_symmetry_space_group_name_H-M   'P -1'
_symmetry_Int_Tables_number      2
_space_group_name_Hall           '-P 1'
loop_
_symmetry_equiv_pos_site_id
_symmetry_equiv_pos_as_xyz
1 x,y,z
2 -x,-y,-z
_cell_length_a                   13.3351(17)
_cell_length_b                   15.512(2)
_cell_length_c                   15.867(2)
_cell_angle_alpha                88.714(2)
_cell_angle_beta                 85.286(2)
_cell_angle_gamma                79.792(2)
_cell_volume                     3219.17
loop_
_atom_site_label
_atom_site_type_symbol
_atom_site_fract_x
_atom_site_fract_y
_atom_site_fract_z
Co1 Co 0.171827(18) 0.415991(16) 0.265016(15)
N1 N 0.37561(13) 0.41520(11) 0.70576(11)
C1 C 0.37296(15) 0.46386(14) 1.18656(12)
O1 O 0.47606(16) 0.07207(13) 0.66563(13)
Co2 Co 0.413313(19) 0.143775(17) 0.762131(17)
N2 N 0.41801(14) 0.27152(12) 0.72577(12)
C2 C 0.09493(15) 0.56757(13) 0.48914(12)
O2 O 0.27792(14) 0.12576(16) 0.80865(14)
N3 N 0.14431(13) 0.47505(11) 0.37922(10)
C3 C 0.39364(15) 0.32976(14) 1.23128(13)
H1 H 0.3811 0.2776 1.2564
O3 O 0.11682(12) 0.49169(11) 0.17377(10)
N4 N 0.15301(13) 0.49108(11) 0.51712(10)
C4 C 0.09007(14) 0.55735(13) 0.40242(12)
O4 O -0.04932(14) 0.49629(13) 0.21089(10)
N5 N 0.32392(13) 0.40139(11) 1.22893(11)
C5 C 0.47407(15) 0.42578(14) 1.16326(12)
O5 O 0.11006(14) 0.31173(11) 0.27058(11)
N6 N 0.48521(12) 0.34018(12) 1.19341(11)
O6 O 0.43349(17) -0.03883(14) 0.74344(12)
N7 N 0.50126(13) 0.12539(12) 0.86412(12)
C6 C 0.17952(15) 0.43895(13) 0.44945(12)
H2 H 0.2187 0.3832 0.4519
O7 O 0.1755(2) 0.25351(18) 0.7978(3)
N8 N 0.52194(13) 0.13863(12) 1.00076(11)
C7 C 0.18735(17) 0.47359(15) 0.60224(13)
H3 H 0.2136 0.4115 0.6084
H4 H 0.1297 0.4891 0.6437
O8 O -0.1840(2) 0.27215(18) 0.8519(4)
C8 C 0.03673(18) 0.62399(14) 0.35478(14)
H5 H 0.0333 0.6180 0.2969
O9 O -0.0327(2) -0.12083(15) 0.9157(2)
N9 N 0.1226(4) -0.0656(2) 0.3696(4)
C9 C 0.54249(17) 0.47251(17) 1.11993(15)
H6 H 0.6096 0.4466 1.1041
O10 O 0.22474(16) 0.6439(3) -0.0744(2)
N10 N -0.1850(2) 0.1515(3) 0.3172(2)
C10 C 0.50301(17) 0.30243(15) 0.68661(15)
O11 O -0.29223(14) 0.64565(18) 0.01695(18)
N11 N -0.17879(19) 0.19678(17) 0.8707(3)
C11 C 0.04694(19) 0.64299(16) 0.53145(15)
H7 H 0.0501 0.6493 0.5893
O12 O 0.4566(3) -0.3178(2) 0.5947(3)
N12 N 0.0420(2) -0.08794(15) 0.90179(19)
C12 C 0.6005(2) 0.25774(19) 0.6616(2)
H8 H 0.6186 0.1977 0.6700
O13 O 0.5888(3) -0.35727(19) 0.5060(2)
N13 N -0.22586(14) 0.67179(13) -0.02837(14)
C13 C 0.47652(16) 0.39263(14) 0.67379(13)
O14 O 0.23621(17) 0.23264(17) 0.33408(17)
N14 N 0.14055(15) 0.65978(16) -0.09843(15)
O15 O 0.1277(2) -0.12751(17) 0.9087(3)
N15 N 0.5302(3) -0.30313(19) 0.5497(2)
C14 C 0.51060(16) 0.17750(16) 1.08483(14)
H9 H 0.5143 0.1313 1.1272
H10 H 0.4439 0.2145 1.0932
O16 O -0.2250(2) 0.2272(3) 0.3300(2)
N16 N 0.7421(4) -0.0899(5) 0.4461(3)
C15 C 0.58923(14) 0.06421(13) 0.97354(13)
O17 O 0.2140(4) -0.0825(2) 0.3655(4)
C16 C 0.27041(17) 0.52558(14) 0.61883(14)
H11 H 0.3258 0.5134 0.5748
H12 H 0.2426 0.5877 0.6168
O18 O -0.25191(18) 0.16557(18) 0.8930(3)
C17 C 0.63689(16) -0.01055(15) 0.84021(15)
H13 H 0.6307 -0.0157 0.7827
O19 O -0.24332(14) 0.71863(14) -0.08918(14)
C18 C 0.31206(19) 0.50263(14) 0.70460(14)
H14 H 0.3524 0.5458 0.7187
H15 H 0.2554 0.5051 0.7474
O20 O 0.12344(18) 0.69206(18) -0.16568(14)
C19 C 0.33721(17) 0.55126(15) 1.16822(16)
H16 H 0.2701 0.5774 1.1838
O21 O 0.7815(3) -0.1394(3) 0.3904(2)
C20 C 0.57653(14) 0.05713(13) 0.88758(13)
O22 O 0.7714(5) -0.0213(5) 0.4595(4)
C21 C 0.34565(16) 0.34080(14) 0.73536(13)
H17 H 0.2804 0.3388 0.7601
O23 O -0.2298(3) 0.0942(3) 0.3006(4)
C22 C 0.57788(16) 0.27322(16) 1.18342(14)
H18 H 0.5738 0.2280 1.2262
H19 H 0.6368 0.2997 1.1924
O24 O 0.0688(5) -0.1157(3) 0.3924(7)
C23 C 0.5454(2) 0.44155(18) 0.63498(17)
H20 H 0.5276 0.5016 0.6259
C24 C 0.65708(16) 0.00415(15) 1.01683(15)
H21 H 0.6631 0.0088 1.0745
C25 C 0.71503(18) -0.06295(15) 0.96901(17)
H22 H 0.7613 -0.1049 0.9952
C26 C 0.59263(15) 0.23167(15) 1.09654(14)
H23 H 0.5901 0.2772 1.0535
H24 H 0.6594 0.1945 1.0898
C27 C -0.0058(2) 0.70821(17) 0.48285(18)
H25 H -0.0390 0.7598 0.5088
C28 C -0.0107(2) 0.69892(16) 0.39631(17)
H26 H -0.0468 0.7444 0.3659
C29 C 0.6412(2) 0.3965(2) 0.6108(2)
H27 H 0.6894 0.4271 0.5846
C30 C 0.4054(2) 0.59801(18) 1.12587(19)
H28 H 0.3839 0.6569 1.1132
C31 C 0.5059(2) 0.55863(19) 1.10179(18)
H29 H 0.5492 0.5918 1.0726
C32 C 0.47280(16) 0.17138(14) 0.93329(15)
H30 H 0.4233 0.2219 0.9353
C33 C 0.70582(18) -0.06934(15) 0.88212(17)
H31 H 0.7475 -0.1146 0.8519
C34 C 0.02121(16) 0.51505(14) 0.16445(12)
C35 C 0.4722(2) -0.00906(16) 0.67943(16)
C36 C 0.1931(2) 0.1749(2) 0.81298(19)
C37 C 0.11470(17) 0.04230(16) 0.85594(16)
H32 H 0.1794 0.0077 0.8528
C38 C 0.10283(17) 0.13093(16) 0.83745(16)
C39 C 0.02908(19) 0.00599(15) 0.87916(17)
C40 C 0.00614(19) 0.18102(17) 0.8420(2)
H33 H -0.0027 0.2407 0.8298
C41 C 0.6689(2) 0.3063(2) 0.6240(2)
H34 H 0.7349 0.2786 0.6070
C42 C -0.10066(14) 0.59781(13) 0.06662(12)
H35 H -0.1545 0.5839 0.1023
C43 C -0.00059(14) 0.57118(12) 0.08651(12)
C44 C 0.07873(14) 0.59336(13) 0.03280(13)
H36 H 0.1463 0.5767 0.0457
C45 C 0.52560(19) -0.07113(17) 0.61064(15)
C46 C 0.4990(2) -0.15291(17) 0.60546(15)
H37 H 0.4448 -0.1674 0.6404
C47 C 0.6043(2) -0.0495(2) 0.55689(18)
H38 H 0.6221 0.0056 0.5588
C48 C 0.5533(2) -0.21298(19) 0.54812(17)
C49 C 0.05564(15) 0.64054(13) -0.04003(13)
C50 C -0.11931(14) 0.64522(13) -0.00687(13)
C51 C -0.04274(15) 0.66740(13) -0.06280(13)
H39 H -0.0566 0.6984 -0.1126
C52 C 0.6560(2) -0.1114(3) 0.50016(19)
C53 C 0.6320(3) -0.1940(3) 0.49429(19)
H40 H 0.6676 -0.2347 0.4556
C54 C 0.15265(18) 0.24271(16) 0.30672(14)
C55 C 0.08861(17) 0.17167(14) 0.31726(13)
C56 C -0.01596(17) 0.19187(16) 0.31007(14)
H41 H -0.0465 0.2484 0.2959
C57 C 0.1329(2) 0.08726(17) 0.33731(19)
H42 H 0.2029 0.0730 0.3425
C58 C -0.0736(2) 0.1271(2) 0.32424(18)
C59 C -0.0324(3) 0.0425(2) 0.3438(2)
H43 H -0.0725 -0.0007 0.3527
C60 C 0.0719(3) 0.02474(19) 0.3495(3)
C61 C -0.07716(18) 0.14193(16) 0.8650(2)
C62 C -0.06891(19) 0.05392(16) 0.88390(19)
H44 H -0.1259 0.0284 0.8990
Co1_2 Co 0.171827(18) 0.415991(16) 1.265016(15)
N5_2 N 0.32392(13) 0.40139(11) 0.22893(11)
loop_
_geom_bond_atom_site_label_1
_geom_bond_atom_site_label_2
_geom_bond_site_symmetry_1
_geom_bond_site_symmetry_2
Co1 N3 1_555 1_555
N1 C13 1_555 1_555
C1 N5 1_555 1_555
O1 Co2 1_555 1_555
Co2 N2 1_555 1_555
N2 C10 1_555 1_555
C2 N4 1_555 1_555
O2 Co2 1_555 1_555
N3 C4 1_555 1_555
C3 H1 1_555 1_555
O3 Co1 1_555 1_555
N4 C6 1_555 1_555
C4 C2 1_555 1_555
O4 C34 1_555 1_555
N5 C3 1_555 1_555
C5 C1 1_555 1_555
O5 Co1 1_555 1_555
N6 C3 1_555 1_555
O6 C35 1_555 1_555
N7 Co2 1_555 1_555
C6 N3 1_555 1_555
H2 C6 1_555 1_555
O7 C36 1_555 1_555
N8 C14 1_555 1_555
C7 N4 1_555 1_555
H3 C7 1_555 1_555
H4 C7 1_555 1_555
O8 N11 1_555 1_555
C8 C4 1_555 1_555
H5 C8 1_555 1_555
O9 N12 1_555 1_555
N9 O17 1_555 1_555
C9 C5 1_555 1_555
H6 C9 1_555 1_555
O10 N14 1_555 1_555
N10 O16 1_555 1_555
C10 C12 1_555 1_555
O11 N13 1_555 1_555
N11 O18 1_555 1_555
C11 C2 1_555 1_555
H7 C11 1_555 1_555
O12 N15 1_555 1_555
N12 O15 1_555 1_555
C12 H8 1_555 1_555
O13 N15 1_555 1_555
N13 O19 1_555 1_555
C13 C10 1_555 1_555
O14 C54 1_555 1_555
N14 O20 1_555 1_555
N15 C48 1_555 1_555
C14 H9 1_555 1_555
H10 C14 1_555 1_555
N16 O21 1_555 1_555
C15 N8 1_555 1_555
C16 C7 1_555 1_555
H11 C16 1_555 1_555
H12 C16 1_555 1_555
C17 H13 1_555 1_555
C18 N1 1_555 1_555
H14 C18 1_555 1_555
H15 C18 1_555 1_555
C19 C1 1_555 1_555
H16 C19 1_555 1_555
C20 N7 1_555 1_555
O22 N16 1_555 1_555
C21 N1 1_555 1_555
H17 C21 1_555 1_555
O23 N10 1_555 1_555
C22 N6 1_555 1_555
H18 C22 1_555 1_555
H19 C22 1_555 1_555
O24 N9 1_555 1_555
C23 C13 1_555 1_555
H20 C23 1_555 1_555
C24 C15 1_555 1_555
H21 C24 1_555 1_555
C25 C24 1_555 1_555
H22 C25 1_555 1_555
C26 C14 1_555 1_555
H23 C26 1_555 1_555
H24 C26 1_555 1_555
C27 C11 1_555 1_555
H25 C27 1_555 1_555
C28 C8 1_555 1_555
H26 C28 1_555 1_555
C29 C23 1_555 1_555
H27 C29 1_555 1_555
C30 C19 1_555 1_555
H28 C30 1_555 1_555
C31 C9 1_555 1_555
H29 C31 1_555 1_555
C32 N7 1_555 1_555
H30 C32 1_555 1_555
C33 C17 1_555 1_555
H31 C33 1_555 1_555
C34 O3 1_555 1_555
C35 O1 1_555 1_555
C36 O2 1_555 1_555
C37 H32 1_555 1_555
C38 C36 1_555 1_555
C39 N12 1_555 1_555
C40 C38 1_555 1_555
H33 C40 1_555 1_555
C41 C12 1_555 1_555
H34 C41 1_555 1_555
C42 H35 1_555 1_555
C43 C34 1_555 1_555
C44 C43 1_555 1_555
H36 C44 1_555 1_555
C45 C35 1_555 1_555
C46 C45 1_555 1_555
H37 C46 1_555 1_555
C47 C45 1_555 1_555
H38 C47 1_555 1_555
C48 C46 1_555 1_555
C49 N14 1_555 1_555
C50 N13 1_555 1_555
C51 C49 1_555 1_555
H39 C51 1_555 1_555
C52 N16 1_555 1_555
C53 C48 1_555 1_555
H40 C53 1_555 1_555
C54 O5 1_555 1_555
C55 C54 1_555 1_555
C56 C55 1_555 1_555
H41 C56 1_555 1_555
C57 C55 1_555 1_555
H42 C57 1_555 1_555
C58 N10 1_555 1_555
C59 C58 1_555 1_555
H43 C59 1_555 1_555
C60 N9 1_555 1_555
C61 N11 1_555 1_555
C62 C39 1_555 1_555
H44 C62 1_555 1_555
Co1_2 N5 1_555 1_555
N5_2 Co1 1_555 1_555
N2 C21 1_555 1_555
C5 N6 1_555 1_555
N8 C32 1_555 1_555
C15 C20 1_555 1_555
C16 C18 1_555 1_555
C17 C20 1_555 1_555
C22 C26 1_555 1_555
C25 C33 1_555 1_555
C27 C28 1_555 1_555
C29 C41 1_555 1_555
C30 C31 1_555 1_555
C37 C38 1_555 1_555
C37 C39 1_555 1_555
C40 C61 1_555 1_555
C42 C43 1_555 1_555
C42 C50 1_555 1_555
C44 C49 1_555 1_555
C47 C52 1_555 1_555
C50 C51 1_555 1_555
C52 C53 1_555 1_555
C56 C58 1_555 1_555
C57 C60 1_555 1_555
C59 C60 1_555 1_555
C61 C62 1_555 1_555

#END
