
#######################################################################
#
#                 Cambridge Crystallographic Data Centre
#                                CCDC 
#
#######################################################################
#
# If this CIF has been generated from an entry in the Cambridge 
# Structural Database, then it will include bibliographic, chemical, 
# crystal, experimental, refinement or atomic coordinate data resulting 
# from the CCDC's data processing and validation procedures.
#
#######################################################################

data_BEZSIK
_symmetry_cell_setting           monoclinic
_symmetry_space_group_name_H-M   'P 21/c'
_symmetry_Int_Tables_number      14
_space_group_name_Hall           '-P 2ybc'
loop_
_symmetry_equiv_pos_site_id
_symmetry_equiv_pos_as_xyz
1 x,y,z
2 -x,1/2+y,1/2-z
3 -x,-y,-z
4 x,1/2-y,1/2+z
_cell_length_a                   11.601(2)
_cell_length_b                   10.390(2)
_cell_length_c                   10.498(2)
_cell_angle_alpha                90
_cell_angle_beta                 115.15(3)
_cell_angle_gamma                90
_cell_volume                     1145.41
loop_
_atom_site_label
_atom_site_type_symbol
_atom_site_fract_x
_atom_site_fract_y
_atom_site_fract_z
Bi1 Bi 0.27752(3) 0.65404(4) 0.24784(4)
C1 C 0.0494(9) 0.5111(10) 0.4718(12)
H1 H 0.0250 0.4646 0.3841
H2 H 0.1310 0.4780 0.5385
C2 C 0.3356(10) 1.1247(10) 0.4137(12)
H3 H 0.4271 1.1168 0.4471
H4 H 0.3004 1.1516 0.3160
C3 C 0.3058(11) 1.2250(10) 0.5003(13)
H5 H 0.3335 1.1938 0.5959
H6 H 0.2144 1.2383 0.4611
O1 O -0.0574(8) 0.7266(8) 0.3485(10)
O2 O 0.1645(9) 0.6848(8) 0.3942(10)
O3 O 0.5148(6) 1.3420(8) 0.5363(8)
O4 O 0.3186(8) 0.8832(7) 0.3551(10)
O5 O 0.3268(7) 0.9482(8) 0.5803(8)
O6 O 0.1347(7) 0.9862(8) 0.3661(9)
O7 O 0.4151 0.7917 0.1866
O8 O 0.1044(7) 0.5018(8) 0.1456(10)
O9 O 0.3694(8) 1.4502(8) 0.6111(10)
O10 O 0.3198(8) 1.4274(8) 0.3616(9)
O11 O 0.1087(7) 0.7365(8) 0.5843(9)
S1 S 0.0643(2) 0.6769(2) 0.4430(3)
S2 S 0.2707(2) 0.9742(2) 0.4266(3)
S3 S 0.3820(2) 1.3738(2) 0.5030(3)
H7 H 0.4005 0.8637 0.1860
H8 H 0.434(15) 0.774(16) 0.120(12)
H9 H 0.029(6) 0.526(18) 0.118(19)
H10 H 0.119(15) 0.425(5) 0.170(18)
C1B C -0.0494(9) 0.4889(10) 0.5282(12)
H1B H -0.0250 0.5354 0.6159
H2B H -0.1310 0.5220 0.4615
O1B O 0.0574(8) 0.2734(8) 0.6515(10)
O2B O -0.1645(9) 0.3152(8) 0.6058(10)
O11B O -0.1087(7) 0.2635(8) 0.4157(9)
S1B S -0.0643(2) 0.3231(2) 0.5570(3)
Bi1B Bi -0.27752(3) 0.34596(4) 0.75216(4)
C2B C -0.3356(10) -0.1247(10) 0.5863(12)
H3B H -0.4271 -0.1168 0.5529
H4B H -0.3004 -0.1516 0.6840
C3B C -0.3058(11) -0.2250(10) 0.4997(13)
H5B H -0.3335 -0.1938 0.4041
H6B H -0.2144 -0.2383 0.5389
O3B O -0.5148(6) -0.3420(8) 0.4637(8)
O4B O -0.3186(8) 0.1168(7) 0.6449(10)
O5B O -0.3268(7) 0.0518(8) 0.4197(8)
O6B O -0.1347(7) 0.0138(8) 0.6339(9)
O7B O -0.4151 0.2083 0.8134
O8B O -0.1044(7) 0.4982(8) 0.8544(10)
O9B O -0.3694(8) -0.4502(8) 0.3889(10)
O10B O -0.3198(8) -0.4274(8) 0.6384(9)
S2B S -0.2707(2) 0.0258(2) 0.5734(3)
S3B S -0.3820(2) -0.3738(2) 0.4970(3)
H7B H -0.4005 0.1363 0.8140
H8B H -0.434(15) 0.226(16) 0.880(12)
H9B H -0.029(6) 0.474(18) 0.882(19)
H10B H -0.119(15) 0.575(5) 0.830(18)
Bi1_2 Bi -0.72248(3) -0.34596(4) 0.24784(4)
Bi1_3 Bi 0.27752(3) 1.65404(4) 0.24784(4)
Bi1A Bi -0.27752(3) 0.15404(4) 0.25216(4)
Bi1B_2 Bi -0.27752(3) -0.65404(4) 0.75216(4)
Bi1B_3 Bi 0.72248(3) 1.34596(4) 0.75216(4)
Bi1C Bi 0.27752(3) 0.84596(4) 0.74784(4)
O3_2 O -0.4852(6) 0.3420(8) 0.5363(8)
O3B_2 O 0.4852(6) 0.6580(8) 0.4637(8)
O5A O -0.3268(7) 0.4482(8) 0.9197(8)
O5C O 0.3268(7) 0.5518(8) 0.0803(8)
O10_2 O 0.3198(8) 0.4274(8) 0.3616(9)
O10B_2 O -0.3198(8) 0.5726(8) 0.6384(9)
O11A O -0.1087(7) 0.2365(8) 0.9157(9)
O11C O 0.1087(7) 0.7635(8) 0.0843(9)
loop_
_geom_bond_atom_site_label_1
_geom_bond_atom_site_label_2
_geom_bond_site_symmetry_1
_geom_bond_site_symmetry_2
Bi1 O2 1_555 1_555
C1 H1 1_555 1_555
H2 C1 1_555 1_555
C2 H3 1_555 1_555
H4 C2 1_555 1_555
C3 C2 1_555 1_555
H5 C3 1_555 1_555
H6 C3 1_555 1_555
O1 S1 1_555 1_555
O2 S1 1_555 1_555
O3 S3 1_555 1_555
O4 Bi1 1_555 1_555
O5 S2 1_555 1_555
O6 S2 1_555 1_555
O7 Bi1 1_555 1_555
O8 Bi1 1_555 1_555
O9 S3 1_555 1_555
O10 S3 1_555 1_555
O11 S1 1_555 1_555
S1 C1 1_555 1_555
S2 C2 1_555 1_555
S3 C3 1_555 1_555
H7 O7 1_555 1_555
H8 O7 1_555 1_555
H9 O8 1_555 1_555
H10 O8 1_555 1_555
C1B C1 1_555 1_555
H1B C1B 1_555 1_555
H2B C1B 1_555 1_555
O1B S1B 1_555 1_555
O2B S1B 1_555 1_555
O11B S1B 1_555 1_555
S1B C1B 1_555 1_555
Bi1B O2B 1_555 1_555
C2B H3B 1_555 1_555
H4B C2B 1_555 1_555
C3B C2B 1_555 1_555
H5B C3B 1_555 1_555
H6B C3B 1_555 1_555
O3B S3B 1_555 1_555
O4B Bi1B 1_555 1_555
O5B S2B 1_555 1_555
O6B S2B 1_555 1_555
O7B Bi1B 1_555 1_555
O8B Bi1B 1_555 1_555
O9B S3B 1_555 1_555
O10B S3B 1_555 1_555
S2B C2B 1_555 1_555
S3B C3B 1_555 1_555
H7B O7B 1_555 1_555
H8B O7B 1_555 1_555
H9B O8B 1_555 1_555
H10B O8B 1_555 1_555
Bi1_2 O3B 1_555 1_555
Bi1_3 O10 1_555 1_555
Bi1A O11B 1_555 1_555
Bi1B_2 O10B 1_555 1_555
Bi1B_3 O3 1_555 1_555
Bi1C O5 1_555 1_555
O3_2 Bi1B 1_555 1_555
O3B_2 Bi1 1_555 1_555
O5A Bi1B 1_555 1_555
O5C Bi1 1_555 1_555
O10_2 Bi1 1_555 1_555
O10B_2 Bi1B 1_555 1_555
O11A Bi1B 1_555 1_555
O11C Bi1 1_555 1_555
O4 S2 1_555 1_555
O11 Bi1C 1_555 1_555
O4B S2B 1_555 1_555
O5B Bi1A 1_555 1_555

#END
