
#######################################################################
#
#                 Cambridge Crystallographic Data Centre
#                                CCDC 
#
#######################################################################
#
# If this CIF has been generated from an entry in the Cambridge 
# Structural Database, then it will include bibliographic, chemical, 
# crystal, experimental, refinement or atomic coordinate data resulting 
# from the CCDC's data processing and validation procedures.
#
#######################################################################

data_BEZXOU
_symmetry_cell_setting           monoclinic
_symmetry_space_group_name_H-M   'P 21/c'
_symmetry_Int_Tables_number      14
_space_group_name_Hall           '-P 2ybc'
loop_
_symmetry_equiv_pos_site_id
_symmetry_equiv_pos_as_xyz
1 x,y,z
2 x,1/2-y,1/2+z
3 -x,-y,-z
4 -x,1/2+y,1/2-z
_cell_length_a                   8.2139(10)
_cell_length_b                   16.622(2)
_cell_length_c                   11.5642(14)
_cell_angle_alpha                90
_cell_angle_beta                 100.349(2)
_cell_angle_gamma                90
_cell_volume                     1553.19
loop_
_atom_site_label
_atom_site_type_symbol
_atom_site_fract_x
_atom_site_fract_y
_atom_site_fract_z
Zn1 Zn 0.64546(6) 0.70267(3) 1.07786(4)
C1 C 0.6469(5) 0.6478(3) 1.3287(3)
H1 H 0.6845 0.6965 1.3629
C2 C 0.6057(6) 0.5827(3) 1.3894(4)
H2 H 0.6097 0.5786 1.4700
C3 C 0.5584(6) 0.5259(3) 1.3080(4)
H3 H 0.5232 0.4742 1.3220
C4 C 0.2836(5) 0.7497(3) 1.0313(4)
H4 H 0.2849 0.7733 1.1044
C5 C 0.1457(6) 0.7370(3) 0.9484(4)
H5 H 0.0372 0.7468 0.9575
C6 C 0.1902(6) 0.7098(3) 0.8571(4)
H6 H 0.1227 0.6988 0.7853
C7 C 0.8068(5) 0.5491(2) 0.8392(3)
C8 C 0.8726(5) 0.4746(3) 0.8675(4)
H7 H 0.8582 0.4500 0.9371
C9 C 0.9605(6) 0.4360(3) 0.7928(4)
H8 H 1.0020 0.3846 0.8112
C10 C 0.9865(6) 0.4720(3) 0.6937(4)
H9 H 1.0502 0.4466 0.6458
C11 C 0.9193(6) 0.5464(3) 0.6628(4)
H10 H 0.9351 0.5703 0.5929
C12 C 0.8278(5) 0.5861(2) 0.7356(3)
C13 C 0.7169(5) 0.5914(2) 0.9251(3)
C14 C 0.7354(5) 0.6604(2) 0.6927(3)
N1 N 0.6261(4) 0.63227(18) 1.2146(3)
N2 N 0.5705(4) 0.5564(2) 1.2041(3)
H11 H 0.5460 0.5309 1.1386
N3 N 0.4143(5) 0.7236(2) 0.9924(3)
N4 N 0.3561(5) 0.6998(2) 0.8849(3)
H12 H 0.4160 0.6802 0.8378
O1 O 0.7667(3) 0.66056(16) 0.9591(2)
O2 O 0.6059(4) 0.55448(18) 0.9618(3)
O3 O 0.8016(4) 0.70891(18) 0.6337(3)
O4 O 0.5916(4) 0.66974(18) 0.7118(3)
O3A O 0.8016(4) 0.79109(18) 1.1337(3)
Zn1A Zn 0.64546(6) 0.79733(3) 0.57786(4)
loop_
_geom_bond_atom_site_label_1
_geom_bond_atom_site_label_2
_geom_bond_site_symmetry_1
_geom_bond_site_symmetry_2
Zn1 N1 1_555 1_555
C1 H1 1_555 1_555
C2 C1 1_555 1_555
H2 C2 1_555 1_555
C3 C2 1_555 1_555
H3 C3 1_555 1_555
C4 H4 1_555 1_555
C5 C4 1_555 1_555
H5 C5 1_555 1_555
C6 C5 1_555 1_555
H6 C6 1_555 1_555
C7 C8 1_555 1_555
C8 H7 1_555 1_555
C9 C8 1_555 1_555
H8 C9 1_555 1_555
C10 C9 1_555 1_555
H9 C10 1_555 1_555
C11 C10 1_555 1_555
H10 C11 1_555 1_555
C12 C7 1_555 1_555
C13 C7 1_555 1_555
C14 C12 1_555 1_555
N1 C1 1_555 1_555
N2 C3 1_555 1_555
H11 N2 1_555 1_555
N3 Zn1 1_555 1_555
N4 C6 1_555 1_555
H12 N4 1_555 1_555
O1 Zn1 1_555 1_555
O2 C13 1_555 1_555
O3 C14 1_555 1_555
O4 C14 1_555 1_555
O3A Zn1 1_555 1_555
Zn1A O3 1_555 1_555
C4 N3 1_555 1_555
C11 C12 1_555 1_555
C13 O1 1_555 1_555
N1 N2 1_555 1_555
N3 N4 1_555 1_555

#END
