
#######################################################################
#
#                 Cambridge Crystallographic Data Centre
#                                CCDC 
#
#######################################################################
#
# If this CIF has been generated from an entry in the Cambridge 
# Structural Database, then it will include bibliographic, chemical, 
# crystal, experimental, refinement or atomic coordinate data resulting 
# from the CCDC's data processing and validation procedures.
#
#######################################################################

data_BIBBAR
_symmetry_cell_setting           monoclinic
_symmetry_space_group_name_H-M   'P 21/c'
_symmetry_Int_Tables_number      14
_space_group_name_Hall           '-P 2ybc'
loop_
_symmetry_equiv_pos_site_id
_symmetry_equiv_pos_as_xyz
1 x,y,z
2 -x,1/2+y,1/2-z
3 -x,-y,-z
4 x,1/2-y,1/2+z
_cell_length_a                   16.327(4)
_cell_length_b                   8.4927(19)
_cell_length_c                   19.725(4)
_cell_angle_alpha                90
_cell_angle_beta                 98.869(3)
_cell_angle_gamma                90
_cell_volume                     2702.37
loop_
_atom_site_label
_atom_site_type_symbol
_atom_site_fract_x
_atom_site_fract_y
_atom_site_fract_z
H1 H 0.587(3) 0.946(6) 0.287(2)
C1 C 0.6304(6) 0.6563(15) 0.2891(8)
H2 H 0.6219 0.5517 0.2710
H3 H 0.6481 0.6511 0.3378
H4 H 0.6721 0.7082 0.2678
O1 O 0.5486(3) 0.8801(5) 0.2956(2)
C2 C 0.5667(6) 0.7290(10) 0.2775(5)
H5 H 0.5262 0.6636 0.2953
H6 H 0.5517 0.7260 0.2279
H7 H 0.493(3) 0.907(7) 0.366(3)
H8 H 0.297(6) 0.863(12) 0.443(5)
H9 H 0.369(3) 0.718(7) 0.500(3)
H10 H 0.448(3) 0.822(6) 0.529(3)
H11 H 0.268(4) 0.850(6) 0.562(3)
H12 H 0.341(3) 0.972(7) 0.586(3)
H13 H 0.361(5) 1.007(10) 0.471(4)
H14 H 0.0921(18) 1.001(4) 0.9282(15)
Ni1 Ni 0.25436(3) 0.83665(5) 0.80140(2)
B1 B 0.1362(3) 0.9537(6) 0.8971(2)
C3 C 0.1486(3) 1.0456(6) 0.65020(19)
H15 H 0.2006 0.9907 0.6572
H16 H 0.1568 1.1506 0.6345
H17 H 0.1102 0.9910 0.6165
C4 C 0.1147(2) 1.0527(5) 0.71611(18)
C5 C 0.0425(2) 1.1215(5) 0.7297(2)
H18 H 0.0038 1.1757 0.6987
C6 C 0.0385(2) 1.0948(5) 0.79728(19)
C7 C -0.0278(3) 1.1411(6) 0.8382(2)
H19 H -0.0126 1.1061 0.8847
H20 H -0.0793 1.0933 0.8187
H21 H -0.0338 1.2535 0.8375
C8 C 0.4365(2) 1.0305(6) 0.8917(2)
H22 H 0.4288 0.9692 0.8503
H23 H 0.4758 0.9790 0.9258
H24 H 0.4569 1.1331 0.8824
C9 C 0.3556(2) 1.0465(5) 0.91750(18)
C10 C 0.3388(3) 1.1252(5) 0.9750(2)
H25 H 0.3761 1.1824 1.0059
C11 C 0.2558(3) 1.1023(5) 0.97756(18)
C12 C 0.2050(3) 1.1580(7) 1.0294(2)
H26 H 0.1488 1.1231 1.0167
H27 H 0.2063 1.2709 1.0314
H28 H 0.2272 1.1158 1.0736
C13 C 0.1988(3) 0.4243(5) 0.8127(2)
H29 H 0.2286 0.4766 0.7809
H30 H 0.1538 0.3652 0.7879
H31 H 0.2355 0.3544 0.8411
C14 C 0.1656(2) 0.5429(5) 0.8564(2)
C15 C 0.1188(3) 0.5202(6) 0.9091(2)
H32 H 0.1021 0.4242 0.9251
C16 C 0.1023(2) 0.6655(6) 0.9326(2)
C17 C 0.0547(3) 0.7117(7) 0.9886(2)
H33 H 0.0542 0.8244 0.9926
H34 H 0.0805 0.6667 1.0312
H35 H -0.0012 0.6738 0.9779
C18 C 0.3100(3) 0.7976(6) 0.6939(2)
C19 C 0.3518(4) 0.7584(7) 0.6323(2)
H36 H 0.4114 0.7611 0.6467
H37 H 0.3370 0.6515 0.6180
C20 C 0.3311(3) 0.8634(7) 0.5723(2)
C21 C 0.3776(3) 0.8222(7) 0.5130(2)
N1 N 0.15430(16) 0.9850(4) 0.77311(14)
N2 N 0.10665(17) 1.0129(4) 0.82347(14)
N3 N 0.28655(17) 0.9793(4) 0.88506(14)
N4 N 0.22457(17) 1.0149(4) 0.92219(14)
N5 N 0.17799(17) 0.6971(4) 0.84906(15)
N6 N 0.13808(17) 0.7729(4) 0.89646(14)
O2 O 0.33401(15) 0.9163(3) 0.72992(13)
O3 O 0.25340(17) 0.7118(3) 0.70949(13)
C22 C 0.3536(4) 0.9186(11) 0.4522(3)
C23 C 0.3947(3) 0.8789(5) 0.3918(2)
O4 O 0.36270(15) 0.8127(3) 0.34033(13)
O5 O 0.4709(2) 0.9289(6) 0.3982(2)
Ni1C Ni 0.25436(3) 0.66335(5) 0.30140(2)
O4C O 0.36270(15) 0.6873(3) 0.84033(13)
loop_
_geom_bond_atom_site_label_1
_geom_bond_atom_site_label_2
_geom_bond_site_symmetry_1
_geom_bond_site_symmetry_2
H1 O1 1_555 1_555
C1 H2 1_555 1_555
H3 C1 1_555 1_555
H4 C1 1_555 1_555
O1 C2 1_555 1_555
C2 C1 1_555 1_555
H5 C2 1_555 1_555
H6 C2 1_555 1_555
H7 O5 1_555 1_555
H8 C22 1_555 1_555
H9 C21 1_555 1_555
H10 C21 1_555 1_555
H11 C20 1_555 1_555
H12 C20 1_555 1_555
H13 C22 1_555 1_555
H14 B1 1_555 1_555
Ni1 N1 1_555 1_555
B1 N2 1_555 1_555
C3 H15 1_555 1_555
H16 C3 1_555 1_555
H17 C3 1_555 1_555
C4 C3 1_555 1_555
C5 C4 1_555 1_555
H18 C5 1_555 1_555
C6 C5 1_555 1_555
C7 C6 1_555 1_555
H19 C7 1_555 1_555
H20 C7 1_555 1_555
H21 C7 1_555 1_555
C8 H22 1_555 1_555
H23 C8 1_555 1_555
H24 C8 1_555 1_555
C9 C8 1_555 1_555
C10 C9 1_555 1_555
H25 C10 1_555 1_555
C11 C10 1_555 1_555
C12 C11 1_555 1_555
H26 C12 1_555 1_555
H27 C12 1_555 1_555
H28 C12 1_555 1_555
C13 H29 1_555 1_555
H30 C13 1_555 1_555
H31 C13 1_555 1_555
C14 C13 1_555 1_555
C15 C14 1_555 1_555
H32 C15 1_555 1_555
C16 C15 1_555 1_555
C17 C16 1_555 1_555
H33 C17 1_555 1_555
H34 C17 1_555 1_555
H35 C17 1_555 1_555
C18 C19 1_555 1_555
C19 H36 1_555 1_555
H37 C19 1_555 1_555
C20 C19 1_555 1_555
C21 C20 1_555 1_555
N1 C4 1_555 1_555
N2 C6 1_555 1_555
N3 Ni1 1_555 1_555
N4 B1 1_555 1_555
N5 Ni1 1_555 1_555
N6 B1 1_555 1_555
O2 Ni1 1_555 1_555
O3 Ni1 1_555 1_555
C22 C21 1_555 1_555
C23 C22 1_555 1_555
O4 C23 1_555 1_555
O5 C23 1_555 1_555
Ni1C O4 1_555 1_555
O4C Ni1 1_555 1_555
C9 N3 1_555 1_555
C11 N4 1_555 1_555
C14 N5 1_555 1_555
C16 N6 1_555 1_555
C18 O2 1_555 1_555
C18 O3 1_555 1_555
N1 N2 1_555 1_555
N3 N4 1_555 1_555
N5 N6 1_555 1_555

#END
