
#######################################################################
#
#                 Cambridge Crystallographic Data Centre
#                                CCDC 
#
#######################################################################
#
# If this CIF has been generated from an entry in the Cambridge 
# Structural Database, then it will include bibliographic, chemical, 
# crystal, experimental, refinement or atomic coordinate data resulting 
# from the CCDC's data processing and validation procedures.
#
#######################################################################

data_BIBDEX
_symmetry_cell_setting           monoclinic
_symmetry_space_group_name_H-M   'P 21'
_symmetry_Int_Tables_number      4
_space_group_name_Hall           'P 2yb'
loop_
_symmetry_equiv_pos_site_id
_symmetry_equiv_pos_as_xyz
1 x,y,z
2 -x,1/2+y,-z
_cell_length_a                   8.9744(7)
_cell_length_b                   13.3520(10)
_cell_length_c                   15.3503(11)
_cell_angle_alpha                90
_cell_angle_beta                 92.5450(10)
_cell_angle_gamma                90
_cell_volume                     1837.55
loop_
_atom_site_label
_atom_site_type_symbol
_atom_site_fract_x
_atom_site_fract_y
_atom_site_fract_z
O1 O -0.3198(3) 0.4649(2) 0.1946(2)
C1 C -0.3078(5) 0.3764(4) 0.2244(3)
O2 O -0.1888(4) 0.3377(3) 0.2447(3)
O3 O 1.3697(4) 0.3852(3) 0.6310(2)
O4 O 1.2423(3) 0.3721(2) 0.7496(2)
C2 C 1.3448(5) 0.3431(4) 0.7002(3)
Zn1 Zn -0.15342(5) -0.00140(3) 0.29639(3)
Zn2 Zn 1.13011(5) 0.03333(4) 0.81513(3)
N1 N -0.0324(4) -0.0247(3) 0.4078(2)
N2 N 0.1435(4) -0.0103(3) 0.5093(2)
N3 N 0.8167(4) 0.0492(3) 0.6083(2)
N4 N 0.9927(4) 0.0598(3) 0.7127(2)
N5 N 1.0013(4) -0.0182(3) 0.9083(2)
N6 N 0.8295(4) -0.0261(3) 1.0039(2)
N7 N 0.1831(5) 0.0372(4) 1.1185(3)
N8 N 0.0041(4) 0.0381(3) 1.2097(2)
O5 O -0.3046(5) 0.1926(3) 0.3958(2)
O6 O -0.2919(4) 0.1070(2) 0.2716(2)
O7 O 1.3659(5) 0.2439(3) 0.9329(3)
O8 O 1.1917(4) 0.1671(3) 0.8565(2)
C3 C -0.3414(5) 0.1760(4) 0.3198(3)
C4 C -0.4627(5) 0.2371(4) 0.2753(3)
H1 H -0.5587 0.2112 0.2773
C5 C -0.4502(5) 0.3219(4) 0.2340(3)
H2 H -0.5365 0.3502 0.2089
C6 C 0.1006(6) 0.1391(4) 0.4112(3)
H3 H 0.1827 0.1384 0.3732
H4 H 0.1247 0.1812 0.4605
H5 H 0.0134 0.1647 0.3802
C7 C 0.0709(4) 0.0350(4) 0.4417(2)
C8 C -0.0249(5) -0.1126(4) 0.4540(3)
H6 H -0.0848 -0.1685 0.4435
C9 C 0.0825(5) -0.1046(4) 0.5165(3)
H7 H 0.1109 -0.1534 0.5572
C10 C 0.2686(4) 0.0300(4) 0.5638(3)
H8 H 0.2608 0.0068 0.6233
H9 H 0.2635 0.1026 0.5641
C11 C 0.4162(4) -0.0026(5) 0.5301(3)
H10 H 0.4269 0.0247 0.4721
H11 H 0.4182 -0.0750 0.5257
C12 C 0.5451(4) 0.0321(4) 0.5891(3)
H12 H 0.5356 0.1035 0.5991
H13 H 0.5403 -0.0015 0.6449
C13 C 0.6936(4) 0.0117(4) 0.5524(3)
H14 H 0.7052 -0.0599 0.5447
H15 H 0.6972 0.0429 0.4955
C14 C 0.8742(5) 0.1441(4) 0.6041(3)
H16 H 0.8448 0.1941 0.5648
C15 C 0.9820(5) 0.1509(4) 0.6680(3)
H17 H 1.0399 0.2073 0.6804
C16 C 0.8892(4) 0.0013(4) 0.6744(3)
C17 C 0.8535(5) -0.1016(4) 0.7027(3)
H18 H 0.8097 -0.0992 0.7586
H19 H 0.9433 -0.1408 0.7069
H20 H 0.7844 -0.1317 0.6609
C18 C 1.4375(6) 0.2574(4) 0.7255(3)
H21 H 1.5153 0.2428 0.6895
C19 C 1.4241(6) 0.1975(4) 0.7943(3)
H22 H 1.4893 0.1434 0.7976
C20 C 1.3206(5) 0.2052(3) 0.8654(3)
C21 C 0.8496(6) 0.1361(4) 0.9238(4)
H23 H 0.9342 0.1726 0.9046
H24 H 0.8133 0.1673 0.9751
H25 H 0.7723 0.1361 0.8785
C22 C 0.8940(5) 0.0322(4) 0.9442(3)
C23 C 1.0049(6) -0.1125(4) 0.9459(3)
H26 H 1.0698 -0.1641 0.9327
C24 C 0.8992(6) -0.1167(4) 1.0045(3)
H27 H 0.8773 -0.1714 1.0392
C25 C 0.7096(5) 0.0039(5) 1.0610(3)
H28 H 0.7248 0.0732 1.0781
H29 H 0.7162 -0.0366 1.1135
C26 C 0.5583(5) -0.0069(5) 1.0197(4)
H30 H 0.5425 -0.0748 0.9989
H31 H 0.5451 0.0387 0.9707
C27 C 0.4432(6) 0.0197(6) 1.0937(4)
H32 H 0.4621 -0.0219 1.1449
H33 H 0.4526 0.0894 1.1108
C28 C 0.2982(7) 0.0003(7) 1.0558(4)
H34 H 0.2856 -0.0709 1.0454
H35 H 0.2854 0.0350 1.0004
C29 C 0.1259(6) 0.1332(5) 1.1178(4)
H36 H 0.1584 0.1877 1.0860
C30 C 0.0147(6) 0.1311(4) 1.1721(3)
H37 H -0.0472 0.1851 1.1831
C31 C 0.1078(6) -0.0173(4) 1.1781(4)
C32 C 0.1397(8) -0.1226(5) 1.2014(5)
H38 H 0.2051 -0.1248 1.2526
H39 H 0.1867 -0.1551 1.1541
H40 H 0.0482 -0.1564 1.2128
O1A O 1.3198(3) -0.0351(2) 0.8054(2)
O4A O -0.2423(3) -0.1279(2) 0.2504(2)
Zn1_2 Zn -0.15342(5) -0.00140(3) 1.29639(3)
Zn1A Zn 1.15342(5) 0.49860(3) 0.70361(3)
Zn2A Zn -0.13011(5) 0.53333(4) 0.18487(3)
N8_2 N 0.0041(4) 0.0381(3) 0.2097(2)
O9 O 0.6223(9) 0.2654(7) 0.0315(6)
O10 O 0.5844(6) 0.7555(4) 0.5153(3)
H41 H 0.496(2) 0.745(4) 0.529(3)
H42 H 0.600(6) 0.792(4) 0.472(3)
loop_
_geom_bond_atom_site_label_1
_geom_bond_atom_site_label_2
_geom_bond_site_symmetry_1
_geom_bond_site_symmetry_2
O1 C1 1_555 1_555
C1 O2 1_555 1_555
O3 C2 1_555 1_555
O4 C2 1_555 1_555
C2 C18 1_555 1_555
Zn1 N1 1_555 1_555
Zn2 N4 1_555 1_555
N1 C7 1_555 1_555
N2 C7 1_555 1_555
N3 C13 1_555 1_555
N4 C15 1_555 1_555
N5 Zn2 1_555 1_555
N6 C22 1_555 1_555
N7 C28 1_555 1_555
N8 C30 1_555 1_555
O5 C3 1_555 1_555
O6 Zn1 1_555 1_555
O7 C20 1_555 1_555
O8 Zn2 1_555 1_555
C3 O6 1_555 1_555
C4 C3 1_555 1_555
H1 C4 1_555 1_555
C5 C1 1_555 1_555
H2 C5 1_555 1_555
C6 H3 1_555 1_555
H4 C6 1_555 1_555
H5 C6 1_555 1_555
C7 C6 1_555 1_555
C8 N1 1_555 1_555
H6 C8 1_555 1_555
C9 N2 1_555 1_555
H7 C9 1_555 1_555
C10 N2 1_555 1_555
H8 C10 1_555 1_555
H9 C10 1_555 1_555
C11 C10 1_555 1_555
H10 C11 1_555 1_555
H11 C11 1_555 1_555
C12 C11 1_555 1_555
H12 C12 1_555 1_555
H13 C12 1_555 1_555
C13 C12 1_555 1_555
H14 C13 1_555 1_555
H15 C13 1_555 1_555
C14 N3 1_555 1_555
H16 C14 1_555 1_555
C15 C14 1_555 1_555
H17 C15 1_555 1_555
C16 N3 1_555 1_555
C17 C16 1_555 1_555
H18 C17 1_555 1_555
H19 C17 1_555 1_555
H20 C17 1_555 1_555
C18 H21 1_555 1_555
C19 C18 1_555 1_555
H22 C19 1_555 1_555
C20 O8 1_555 1_555
C21 H23 1_555 1_555
H24 C21 1_555 1_555
H25 C21 1_555 1_555
C22 N5 1_555 1_555
C23 N5 1_555 1_555
H26 C23 1_555 1_555
C24 N6 1_555 1_555
H27 C24 1_555 1_555
C25 N6 1_555 1_555
H28 C25 1_555 1_555
H29 C25 1_555 1_555
C26 C25 1_555 1_555
H30 C26 1_555 1_555
H31 C26 1_555 1_555
C27 C26 1_555 1_555
H32 C27 1_555 1_555
H33 C27 1_555 1_555
C28 C27 1_555 1_555
H34 C28 1_555 1_555
H35 C28 1_555 1_555
C29 N7 1_555 1_555
H36 C29 1_555 1_555
C30 C29 1_555 1_555
H37 C30 1_555 1_555
C31 N7 1_555 1_555
C32 C31 1_555 1_555
H38 C32 1_555 1_555
H39 C32 1_555 1_555
H40 C32 1_555 1_555
O10 H41 1_555 1_555
H42 O10 1_555 1_555
O1A Zn2 1_555 1_555
O4A Zn1 1_555 1_555
Zn1_2 N8 1_555 1_555
Zn1A O4 1_555 1_555
Zn2A O1 1_555 1_555
N8_2 Zn1 1_555 1_555
N4 C16 1_555 1_555
N8 C31 1_555 1_555
C4 C5 1_555 1_555
C8 C9 1_555 1_555
C19 C20 1_555 1_555
C21 C22 1_555 1_555
C23 C24 1_555 1_555

#END
