
#######################################################################
#
#                 Cambridge Crystallographic Data Centre
#                                CCDC 
#
#######################################################################
#
# If this CIF has been generated from an entry in the Cambridge 
# Structural Database, then it will include bibliographic, chemical, 
# crystal, experimental, refinement or atomic coordinate data resulting 
# from the CCDC's data processing and validation procedures.
#
#######################################################################

data_BICHOM
_symmetry_cell_setting           triclinic
_symmetry_space_group_name_H-M   'P -1'
_symmetry_Int_Tables_number      2
_space_group_name_Hall           '-P 1'
loop_
_symmetry_equiv_pos_site_id
_symmetry_equiv_pos_as_xyz
1 x,y,z
2 -x,-y,-z
_cell_length_a                   13.094(3)
_cell_length_b                   14.061(3)
_cell_length_c                   23.454(5)
_cell_angle_alpha                94.2350(10)
_cell_angle_beta                 97.134(3)
_cell_angle_gamma                113.480(3)
_cell_volume                     3893.76
loop_
_atom_site_label
_atom_site_type_symbol
_atom_site_fract_x
_atom_site_fract_y
_atom_site_fract_z
O17 O 0.2901(11) 0.2781(11) 0.9352(7)
H54 H 0.228(2) 0.255(6) 0.948(2)
H55 H 0.330(5) 0.338(3) 0.955(3)
O18 O 0.2401(8) 1.2848(9) 1.1935(5)
H56 H 0.2762(19) 1.250(3) 1.182(2)
H57 H 0.199(3) 1.289(5) 1.1636(16)
O19 O 0.2169(8) 0.2032(7) 0.2973(6)
H58 H 0.151(2) 0.156(2) 0.296(5)
H59 H 0.208(3) 0.2601(14) 0.301(6)
Eu1 Eu 0.411920(18) 0.445740(17) 0.789315(10)
O1 O 0.4968(3) 0.3520(3) 0.85449(18)
H1 H 0.532(3) 0.359(3) 0.8887(7)
H2 H 0.544(2) 0.397(3) 0.8382(13)
O2 O 0.5296(4) 0.5655(4) 0.8744(2)
H3 H 0.508(3) 0.5051(13) 0.8842(17)
H4 H 0.5913(15) 0.583(4) 0.8619(15)
Eu2 Eu 0.446255(18) 0.492787(16) 0.594593(9)
Zn1 Zn -0.29674(4) 0.30114(4) 0.01177(2)
O3 O 0.2428(3) 0.4577(3) 0.59325(15)
O4 O 0.2851(3) 0.3997(3) 0.51378(14)
N1 N -0.2238(3) 0.3130(3) 0.14183(17)
N2 N -0.2281(3) 0.2758(3) 0.08673(17)
N3 N -0.1730(4) 0.2154(4) 0.08451(19)
N4 N -0.1283(4) 0.2141(4) 0.13915(19)
C1 C -0.1616(4) 0.2736(4) 0.1728(2)
C2 C -0.1304(4) 0.2923(4) 0.2367(2)
C3 C -0.0514(4) 0.2608(4) 0.2641(2)
H5 H -0.0176 0.2278 0.2421
C4 C -0.0234(4) 0.2772(4) 0.3234(2)
H6 H 0.0307 0.2563 0.3409
C5 C -0.0726(4) 0.3252(4) 0.3584(2)
C6 C -0.1522(4) 0.3576(4) 0.3307(2)
H7 H -0.1863 0.3906 0.3525
C7 C -0.1797(4) 0.3418(4) 0.2709(2)
H8 H -0.2324 0.3639 0.2532
C8 C -0.0418(4) 0.3432(3) 0.4230(2)
C9 C 0.0668(4) 0.3648(4) 0.4508(2)
H9 H 0.1214 0.3660 0.4287
C10 C 0.0950(4) 0.3854(4) 0.51095(19)
C11 C 0.0140(4) 0.3840(4) 0.5442(2)
H10 H 0.0323 0.3988 0.5844
C12 C -0.0947(4) 0.3599(4) 0.5170(2)
H11 H -0.1502 0.3566 0.5389
C13 C -0.1231(4) 0.3395(4) 0.4570(2)
H12 H -0.1965 0.3242 0.4393
C14 C 0.2144(4) 0.4157(4) 0.54036(19)
O5 O -0.5614(3) -0.3925(3) -0.23521(16)
O6 O -0.5529(4) -0.3976(3) -0.32713(17)
N5 N -0.4623(3) 0.2313(3) 0.01360(18)
N6 N -0.5007(4) 0.2682(4) 0.0575(2)
N7 N -0.6071(4) 0.2109(4) 0.0532(2)
N8 N -0.6421(4) 0.1358(4) 0.0071(2)
C15 C -0.5506(4) 0.1508(4) -0.0164(2)
C16 C -0.5520(4) 0.0855(4) -0.0685(2)
C17 C -0.4758(4) 0.0384(4) -0.0685(2)
H13 H -0.4250 0.0469 -0.0350
C18 C -0.4766(4) -0.0216(4) -0.1189(2)
H14 H -0.4269 -0.0539 -0.1185
C19 C -0.5491(4) -0.0328(4) -0.1691(2)
C20 C -0.6265(5) 0.0127(4) -0.1677(2)
H15 H -0.6787 0.0032 -0.2007
C21 C -0.6274(5) 0.0702(4) -0.1186(2)
H16 H -0.6795 0.0999 -0.1187
C22 C -0.5435(5) -0.0900(4) -0.2237(2)
C23 C -0.5402(4) -0.1878(3) -0.2251(2)
H17 H -0.5397 -0.2179 -0.1912
C24 C -0.5383(4) -0.2410(3) -0.27722(19)
C25 C -0.5359(6) -0.1958(4) -0.3280(2)
H18 H -0.5331 -0.2305 -0.3626
C26 C -0.5380(7) -0.0987(5) -0.3266(3)
H19 H -0.5342 -0.0671 -0.3602
C27 C -0.5453(6) -0.0474(4) -0.2753(3)
H20 H -0.5512 0.0163 -0.2758
C28 C -0.5492(4) -0.3499(4) -0.2795(2)
O7 O -0.4819(3) 0.4020(3) -0.46277(14)
O8 O -0.4305(3) 0.3708(3) -0.54516(15)
N9 N -0.2029(4) 0.1568(4) -0.11746(18)
N10 N -0.1964(4) 0.1856(4) -0.06092(18)
N11 N -0.2565(4) 0.2406(3) -0.05691(18)
N12 N -0.3023(3) 0.2497(3) -0.10993(17)
C29 C -0.2681(4) 0.1964(4) -0.1464(2)
C30 C -0.2963(4) 0.1869(4) -0.2088(2)
C31 C -0.3746(4) 0.2217(4) -0.2332(2)
H21 H -0.4107 0.2485 -0.2090
C32 C -0.4004(4) 0.2177(4) -0.2928(2)
H22 H -0.4540 0.2412 -0.3077
C33 C -0.3478(4) 0.1799(4) -0.3304(2)
C34 C -0.2691(4) 0.1447(4) -0.3059(2)
H23 H -0.2321 0.1190 -0.3301
C35 C -0.2450(4) 0.1468(4) -0.2466(2)
H24 H -0.1939 0.1204 -0.2318
C36 C -0.3715(4) 0.1814(3) -0.3935(2)
C37 C -0.4071(4) 0.2569(3) -0.41480(19)
H25 H -0.4211 0.3021 -0.3891
C38 C -0.4468(4) 0.3511(3) -0.4950(2)
C39 C -0.4203(3) 0.2647(3) -0.47379(18)
C40 C -0.4053(4) 0.1941(4) -0.5125(2)
H26 H -0.4146 0.1990 -0.5520
C41 C -0.3752(4) 0.1160(4) -0.4926(2)
H27 H -0.3679 0.0669 -0.5187
C42 C -0.3570(4) 0.1118(4) -0.4338(2)
H28 H -0.3342 0.0613 -0.4208
O9 O 0.4150(3) 0.5110(4) 0.33186(19)
O10 O 0.4090(3) 0.5052(3) 0.23731(16)
N13 N -0.1841(4) 0.6131(4) -0.0152(2)
N14 N -0.2779(4) 0.5629(4) -0.0562(3)
N15 N -0.3214(4) 0.4649(4) -0.0510(2)
N16 N -0.2570(3) 0.4474(3) -0.00686(19)
C43 C -0.1739(4) 0.5388(4) 0.0135(2)
C44 C -0.0867(4) 0.5531(4) 0.0640(2)
C45 C -0.0364(4) 0.4823(4) 0.0675(2)
H29 H -0.0483 0.4335 0.0355
C46 C 0.0314(4) 0.4857(4) 0.1184(2)
H30 H 0.0665 0.4399 0.1199
C47 C 0.0481(4) 0.5557(4) 0.1669(2)
C48 C 0.0027(4) 0.6295(4) 0.1618(3)
H31 H 0.0160 0.6798 0.1931
C49 C -0.0635(4) 0.6283(4) 0.1101(3)
H32 H -0.0916 0.6793 0.1065
C50 C 0.1094(4) 0.5497(4) 0.2231(2)
C51 C 0.2052(4) 0.5297(4) 0.2261(2)
H33 H 0.2334 0.5223 0.1923
C52 C 0.2602(4) 0.5214(4) 0.2786(2)
C53 C 0.2157(4) 0.5288(4) 0.3285(2)
H34 H 0.2501 0.5205 0.3637
C54 C 0.1203(4) 0.5495(5) 0.3260(2)
H35 H 0.0915 0.5558 0.3597
C55 C 0.0679(4) 0.5602(4) 0.2736(3)
H36 H 0.0040 0.5741 0.2722
C56 C 0.3696(4) 0.5113(4) 0.2829(2)
O11 O 0.2669(3) 0.3088(3) 0.82885(18)
H37 H 0.2019(15) 0.268(2) 0.8104(16)
H38 H 0.289(2) 0.270(2) 0.8487(18)
O12 O 0.3008(3) 0.5185(3) 0.8452(2)
H39 H 0.2386(17) 0.4710(18) 0.849(2)
H40 H 0.293(2) 0.5756(11) 0.850(3)
O13 O 0.2302(3) 0.4059(3) 0.71941(17)
H41 H 0.234(5) 0.424(2) 0.6858(7)
H42 H 0.187(4) 0.3408(11) 0.7136(16)
O14 O 0.6441(3) 0.6304(3) 0.58995(18)
H43 H 0.697(2) 0.683(2) 0.6121(13)
H44 H 0.676(2) 0.628(4) 0.5606(10)
O15 O 0.3783(3) 0.2983(3) 0.72492(15)
O16 O 0.3597(3) 0.3421(3) 0.63672(16)
N17 N -0.0612(4) -0.1706(4) 0.2918(2)
N18 N -0.0803(5) -0.1575(5) 0.2363(3)
N19 N -0.0177(5) -0.0610(6) 0.2300(3)
H45 H -0.0180 -0.0345 0.1981
N20 N 0.0475(5) -0.0090(5) 0.2815(3)
C57 C 0.0171(5) -0.0789(5) 0.3178(3)
C58 C 0.0649(5) -0.0535(5) 0.3808(3)
C59 C 0.1550(8) 0.0402(6) 0.4022(3)
H46 H 0.1850 0.0881 0.3769
C60 C 0.2007(7) 0.0651(6) 0.4607(3)
H47 H 0.2640 0.1278 0.4737
C61 C 0.1542(5) -0.0009(4) 0.4999(2)
C62 C 0.0683(6) -0.0974(5) 0.4766(3)
H48 H 0.0385 -0.1463 0.5013
C63 C 0.0260(6) -0.1246(5) 0.4190(3)
H49 H -0.0292 -0.1914 0.4056
C64 C 0.1975(5) 0.0297(4) 0.5630(2)
C65 C 0.2543(4) 0.1344(4) 0.5874(2)
H50 H 0.2687 0.1862 0.5632
C66 C 0.2908(4) 0.1630(3) 0.6465(2)
C67 C 0.2713(5) 0.0874(4) 0.6824(3)
H51 H 0.2918 0.1060 0.7224
C68 C 0.2169(7) -0.0183(5) 0.6584(3)
H52 H 0.2063 -0.0702 0.6823
C69 C 0.1806(6) -0.0459(5) 0.6000(3)
H53 H 0.1443 -0.1164 0.5849
C70 C 0.3475(4) 0.2756(4) 0.6710(2)
Eu1_2 Eu -0.588080(18) -0.554260(17) -0.210685(10)
Eu1A Eu 0.588080(18) 0.554260(17) 0.210685(10)
Eu2_2 Eu -0.553745(18) -0.507213(16) -0.405407(9)
Eu2_3 Eu -0.553745(18) 0.492787(16) -0.405407(9)
Eu2A Eu -0.446255(18) 0.507213(16) -0.594593(9)
Eu2A_2 Eu 0.553745(18) 0.507213(16) 0.405407(9)
O5_2 O 0.4386(3) 0.6075(3) 0.76479(16)
O6_2 O 0.4471(4) 0.6024(3) 0.67287(17)
O7_2 O 0.5181(3) 0.4020(3) 0.53723(14)
O8A O 0.4305(3) 0.6292(3) 0.54516(15)
O9A O 0.5850(3) 0.4890(4) 0.66814(19)
O10A O 0.5910(3) 0.4948(3) 0.76269(16)
O20? O 0.0151(7) 1.2000(7) 1.0298(4)
H60? H 0.035(3) 1.175(5) 1.0014(13)
H61? H 0.062(3) 1.204(6) 1.0595(11)
Eu3? Eu 0.01844(4) 1.02670(4) 1.04565(2)
O21? O -0.1546(4) 1.0262(4) 1.0003(2)
H62? H -0.176(3) 1.023(3) 1.0335(8)
H63? H -0.128(6) 1.0910(11) 0.9967(19)
O22? O 0.1944(6) 1.1615(6) 1.0960(4)
H64? H 0.222(3) 1.130(2) 1.120(2)
H65? H 0.253(2) 1.216(3) 1.093(3)
O23? O 0.0465(7) 0.9193(7) 1.1166(4)
H66? H 0.011(3) 0.931(6) 1.086(2)
O24? O -0.0437(5) 1.0655(5) 1.1366(3)
H67? H -0.1077(12) 1.065(3) 1.123(3)
H68? H 0.006(2) 1.124(2) 1.130(3)
O25? O 0.0981(8) 1.1486(7) 1.0008(4)
H69? H 0.097(9) 1.112(3) 1.0282(11)
H70? H 0.084(8) 1.105(3) 0.9702(11)
loop_
_geom_bond_atom_site_label_1
_geom_bond_atom_site_label_2
_geom_bond_site_symmetry_1
_geom_bond_site_symmetry_2
Eu1 O1 1_555 1_555
O1 H1 1_555 1_555
H2 O1 1_555 1_555
O2 Eu1 1_555 1_555
H3 O2 1_555 1_555
H4 O2 1_555 1_555
Eu2 O3 1_555 1_555
Zn1 N2 1_555 1_555
O3 C14 1_555 1_555
O4 Eu2 1_555 1_555
N1 N2 1_555 1_555
N2 N3 1_555 1_555
N3 N4 1_555 1_555
N4 C1 1_555 1_555
C1 N1 1_555 1_555
C2 C1 1_555 1_555
C3 C2 1_555 1_555
H5 C3 1_555 1_555
C4 C3 1_555 1_555
H6 C4 1_555 1_555
C5 C4 1_555 1_555
C6 C5 1_555 1_555
H7 C6 1_555 1_555
C7 C2 1_555 1_555
H8 C7 1_555 1_555
C8 C5 1_555 1_555
C9 C8 1_555 1_555
H9 C9 1_555 1_555
C10 C9 1_555 1_555
C11 C10 1_555 1_555
H10 C11 1_555 1_555
C12 C11 1_555 1_555
H11 C12 1_555 1_555
C13 C8 1_555 1_555
H12 C13 1_555 1_555
C14 O4 1_555 1_555
O5 C28 1_555 1_555
O6 C28 1_555 1_555
N5 Zn1 1_555 1_555
N6 N5 1_555 1_555
N7 N6 1_555 1_555
N8 N7 1_555 1_555
C15 N5 1_555 1_555
C16 C15 1_555 1_555
C17 C16 1_555 1_555
H13 C17 1_555 1_555
C18 C17 1_555 1_555
H14 C18 1_555 1_555
C19 C18 1_555 1_555
C20 C19 1_555 1_555
H15 C20 1_555 1_555
C21 C16 1_555 1_555
H16 C21 1_555 1_555
C22 C19 1_555 1_555
C23 C22 1_555 1_555
H17 C23 1_555 1_555
C24 C23 1_555 1_555
C25 C24 1_555 1_555
H18 C25 1_555 1_555
C26 C25 1_555 1_555
H19 C26 1_555 1_555
C27 C22 1_555 1_555
H20 C27 1_555 1_555
C28 C24 1_555 1_555
O7 C38 1_555 1_555
O8 C38 1_555 1_555
N9 N10 1_555 1_555
N10 N11 1_555 1_555
N11 Zn1 1_555 1_555
N12 N11 1_555 1_555
C29 N9 1_555 1_555
C30 C29 1_555 1_555
C31 C30 1_555 1_555
H21 C31 1_555 1_555
C32 C31 1_555 1_555
H22 C32 1_555 1_555
C33 C32 1_555 1_555
C34 C33 1_555 1_555
H23 C34 1_555 1_555
C35 C30 1_555 1_555
H24 C35 1_555 1_555
C36 C33 1_555 1_555
C37 C36 1_555 1_555
H25 C37 1_555 1_555
C38 C39 1_555 1_555
C39 C37 1_555 1_555
C40 C39 1_555 1_555
H26 C40 1_555 1_555
C41 C40 1_555 1_555
H27 C41 1_555 1_555
C42 C36 1_555 1_555
H28 C42 1_555 1_555
O9 C56 1_555 1_555
O10 C56 1_555 1_555
N13 N14 1_555 1_555
N14 N15 1_555 1_555
N15 N16 1_555 1_555
N16 Zn1 1_555 1_555
C43 N13 1_555 1_555
C44 C43 1_555 1_555
C45 C44 1_555 1_555
H29 C45 1_555 1_555
C46 C45 1_555 1_555
H30 C46 1_555 1_555
C47 C46 1_555 1_555
C48 C47 1_555 1_555
H31 C48 1_555 1_555
C49 C44 1_555 1_555
H32 C49 1_555 1_555
C50 C47 1_555 1_555
C51 C50 1_555 1_555
H33 C51 1_555 1_555
C52 C51 1_555 1_555
C53 C52 1_555 1_555
H34 C53 1_555 1_555
C54 C53 1_555 1_555
H35 C54 1_555 1_555
C55 C50 1_555 1_555
H36 C55 1_555 1_555
C56 C52 1_555 1_555
O11 Eu1 1_555 1_555
H37 O11 1_555 1_555
H38 O11 1_555 1_555
O12 Eu1 1_555 1_555
H39 O12 1_555 1_555
H40 O12 1_555 1_555
O13 Eu1 1_555 1_555
H41 O13 1_555 1_555
H42 O13 1_555 1_555
O14 Eu2 1_555 1_555
H43 O14 1_555 1_555
H44 O14 1_555 1_555
O15 Eu1 1_555 1_555
O16 Eu2 1_555 1_555
N17 N18 1_555 1_555
N18 N19 1_555 1_555
N19 H45 1_555 1_555
N20 N19 1_555 1_555
C57 N17 1_555 1_555
C58 C57 1_555 1_555
C59 C58 1_555 1_555
H46 C59 1_555 1_555
C60 C59 1_555 1_555
H47 C60 1_555 1_555
C61 C60 1_555 1_555
C62 C61 1_555 1_555
H48 C62 1_555 1_555
C63 C58 1_555 1_555
H49 C63 1_555 1_555
C64 C61 1_555 1_555
C65 C64 1_555 1_555
H50 C65 1_555 1_555
C66 C65 1_555 1_555
C67 C66 1_555 1_555
H51 C67 1_555 1_555
C68 C67 1_555 1_555
H52 C68 1_555 1_555
C69 C64 1_555 1_555
H53 C69 1_555 1_555
C70 O15 1_555 1_555
O17 H54 1_555 1_555
H55 O17 1_555 1_555
O18 H56 1_555 1_555
H57 O18 1_555 1_555
O19 H58 1_555 1_555
H59 O19 1_555 1_555
Eu1_2 O5 1_555 1_555
Eu1A O10 1_555 1_555
Eu2_2 O6 1_555 1_555
Eu2_3 O7 1_555 1_555
Eu2A O8 1_555 1_555
Eu2A_2 O9 1_555 1_555
O5_2 Eu1 1_555 1_555
O6_2 Eu2 1_555 1_555
O7_2 Eu2 1_555 1_555
O8A Eu2 1_555 1_555
O9A Eu2 1_555 1_555
O10A Eu1 1_555 1_555
C6 C7 1_555 1_555
C10 C14 1_555 1_555
C12 C13 1_555 1_555
N8 C15 1_555 1_555
C20 C21 1_555 1_555
C26 C27 1_555 1_555
N12 C29 1_555 1_555
C34 C35 1_555 1_555
C41 C42 1_555 1_555
N16 C43 1_555 1_555
C48 C49 1_555 1_555
C54 C55 1_555 1_555
O16 C70 1_555 1_555
N20 C57 1_555 1_555
C62 C63 1_555 1_555
C66 C70 1_555 1_555
C68 C69 1_555 1_555

#END
