
#######################################################################
#
#                 Cambridge Crystallographic Data Centre
#                                CCDC 
#
#######################################################################
#
# If this CIF has been generated from an entry in the Cambridge 
# Structural Database, then it will include bibliographic, chemical, 
# crystal, experimental, refinement or atomic coordinate data resulting 
# from the CCDC's data processing and validation procedures.
#
#######################################################################

data_BICNEH
_symmetry_cell_setting           monoclinic
_symmetry_space_group_name_H-M   'P 21/c'
_symmetry_Int_Tables_number      14
_space_group_name_Hall           '-P 2ybc'
loop_
_symmetry_equiv_pos_site_id
_symmetry_equiv_pos_as_xyz
1 x,y,z
2 x,1/2-y,1/2+z
3 -x,-y,-z
4 -x,1/2+y,1/2-z
_cell_length_a                   8.0638(16)
_cell_length_b                   14.039(3)
_cell_length_c                   11.281(2)
_cell_angle_alpha                90
_cell_angle_beta                 91.26(3)
_cell_angle_gamma                90
_cell_volume                     1276.79
loop_
_atom_site_label
_atom_site_type_symbol
_atom_site_fract_x
_atom_site_fract_y
_atom_site_fract_z
Co1 Co 0.0000 0.0000 1.0000
O1 O -0.1155(3) 0.49226(17) 1.1390(2)
O2 O 0.0842(4) 0.0325(2) 0.8313(3)
H1 H 0.174(6) 0.047(3) 0.820(4)
H2 H 0.045(8) 0.027(4) 0.775(6)
O3 O 0.2394(3) 0.0209(2) 1.0706(3)
H3 H 0.280(6) -0.022(3) 1.084(5)
N1 N -0.0639(4) 0.1491(2) 1.0255(3)
N3 N -0.3313(4) 0.47564(19) 1.0106(3)
C1 C -0.0154(5) 0.2171(2) 0.9520(4)
H4 H 0.0512 0.2000 0.8892
C2 C -0.0586(5) 0.3117(3) 0.9637(4)
H5 H -0.0216 0.3565 0.9097
C3 C -0.1564(4) 0.3390(2) 1.0557(3)
C4 C -0.2062(6) 0.2697(3) 1.1330(4)
H6 H -0.2713 0.2854 1.1972
C5 C -0.1588(5) 0.1767(3) 1.1145(4)
H7 H -0.1951 0.1305 1.1671
C6 C -0.2003(4) 0.4420(2) 1.0717(3)
C7 C -0.3828(5) 0.5755(3) 1.0202(5)
H8 H -0.302(4) 0.604(2) 1.068(3)
H9 H -0.388(5) 0.600(3) 0.949(4)
C8 C -0.4453(5) 0.4186(3) 0.9356(4)
H10 H -0.425(4) 0.357(3) 0.934(3)
H11 H -0.448(4) 0.444(2) 0.856(4)
C9 C 0.3138(5) 0.1048(3) 1.1199(4)
H12 H 0.4260 0.0912 1.1445
H13 H 0.2520 0.1253 1.1871
H14 H 0.3133 0.1544 1.0612
C8B C -0.5547(5) 0.5814(3) 1.0644(4)
N3B N -0.6687(4) 0.52436(19) 0.9894(3)
C6B C -0.7997(4) 0.5580(2) 0.9283(3)
O1B O -0.8845(3) 0.50774(17) 0.8610(2)
C3B C -0.8436(4) 0.6610(2) 0.9443(3)
C2B C -0.9414(5) 0.6883(3) 1.0363(4)
C1B C -0.9846(5) 0.7829(2) 1.0480(4)
N1B N -0.9361(4) 0.8509(2) 0.9745(3)
C5B C -0.8412(5) 0.8233(3) 0.8855(4)
C4B C -0.7938(6) 0.7303(3) 0.8670(4)
H6B H -0.7287 0.7146 0.8028
H7B H -0.8049 0.8695 0.8329
H4B H -1.0512 0.8000 1.1108
H5B H -0.9784 0.6435 1.0903
C7B C -0.6172(5) 0.4245(3) 0.9798(5)
H8B H -0.698(4) 0.396(2) 0.932(3)
H9B H -0.612(5) 0.400(3) 1.051(4)
H10B H -0.575(4) 0.643(3) 1.066(3)
H11B H -0.552(4) 0.556(2) 1.144(4)
O2B O -0.0842(4) -0.0325(2) 1.1687(3)
H1B H -0.174(6) -0.047(3) 1.180(4)
H2B H -0.045(8) -0.027(4) 1.225(6)
O3B O -0.2394(3) -0.0209(2) 0.9294(3)
H3B H -0.280(6) 0.022(3) 0.916(5)
C9B C -0.3138(5) -0.1048(3) 0.8801(4)
H12B H -0.4260 -0.0912 0.8555
H13B H -0.2520 -0.1253 0.8129
H14B H -0.3133 -0.1544 0.9388
N1B_2 N 0.0639(4) -0.1491(2) 0.9745(3)
Co1_2 Co -1.0000 1.0000 1.0000
O4 O 0.3703(4) 0.2127(3) 0.8169(4)
O5 O 0.6020(4) 0.1567(2) 0.8775(3)
O6 O 0.4147(4) 0.0642(2) 0.8050(3)
N2 N 0.4623(4) 0.1453(3) 0.8327(3)
loop_
_geom_bond_atom_site_label_1
_geom_bond_atom_site_label_2
_geom_bond_site_symmetry_1
_geom_bond_site_symmetry_2
Co1 O2 1_555 1_555
O1 C6 1_555 1_555
O2 H1 1_555 1_555
H2 O2 1_555 1_555
O3 Co1 1_555 1_555
H3 O3 1_555 1_555
O4 N2 1_555 1_555
O5 N2 1_555 1_555
O6 N2 1_555 1_555
N1 Co1 1_555 1_555
N3 C6 1_555 1_555
C1 N1 1_555 1_555
H4 C1 1_555 1_555
C2 C1 1_555 1_555
H5 C2 1_555 1_555
C3 C2 1_555 1_555
C4 C3 1_555 1_555
H6 C4 1_555 1_555
C5 N1 1_555 1_555
H7 C5 1_555 1_555
C6 C3 1_555 1_555
C7 N3 1_555 1_555
H8 C7 1_555 1_555
H9 C7 1_555 1_555
C8 N3 1_555 1_555
H10 C8 1_555 1_555
H11 C8 1_555 1_555
C9 O3 1_555 1_555
H12 C9 1_555 1_555
H13 C9 1_555 1_555
H14 C9 1_555 1_555
C8B C7 1_555 1_555
N3B C8B 1_555 1_555
C6B N3B 1_555 1_555
O1B C6B 1_555 1_555
C3B C6B 1_555 1_555
C2B C3B 1_555 1_555
C1B C2B 1_555 1_555
N1B C1B 1_555 1_555
C5B N1B 1_555 1_555
C4B C3B 1_555 1_555
H6B C4B 1_555 1_555
H7B C5B 1_555 1_555
H4B C1B 1_555 1_555
H5B C2B 1_555 1_555
C7B C8 1_555 1_555
H8B C7B 1_555 1_555
H9B C7B 1_555 1_555
H10B C8B 1_555 1_555
H11B C8B 1_555 1_555
O2B Co1 1_555 1_555
H1B O2B 1_555 1_555
H2B O2B 1_555 1_555
O3B Co1 1_555 1_555
H3B O3B 1_555 1_555
C9B O3B 1_555 1_555
H12B C9B 1_555 1_555
H13B C9B 1_555 1_555
H14B C9B 1_555 1_555
N1B_2 Co1 1_555 1_555
Co1_2 N1B 1_555 1_555
C4 C5 1_555 1_555
N3B C7B 1_555 1_555
C5B C4B 1_555 1_555

#END
