
#######################################################################
#
#                 Cambridge Crystallographic Data Centre
#                                CCDC 
#
#######################################################################
#
# If this CIF has been generated from an entry in the Cambridge 
# Structural Database, then it will include bibliographic, chemical, 
# crystal, experimental, refinement or atomic coordinate data resulting 
# from the CCDC's data processing and validation procedures.
#
#######################################################################

data_BICVEP
_symmetry_cell_setting           monoclinic
_symmetry_space_group_name_H-M   'C 2/c'
_symmetry_Int_Tables_number      15
_space_group_name_Hall           '-C 2yn'
loop_
_symmetry_equiv_pos_site_id
_symmetry_equiv_pos_as_xyz
1 x,y,z
2 1/2+x,1/2+y,z
3 x,-y,1/2+z
4 1/2+x,1/2-y,1/2+z
5 -x,-y,-z
6 1/2-x,1/2-y,-z
7 -x,y,1/2-z
8 1/2-x,1/2+y,1/2-z
_cell_length_a                   27.008(8)
_cell_length_b                   13.389(4)
_cell_length_c                   13.982(3)
_cell_angle_alpha                90
_cell_angle_beta                 106.29(2)
_cell_angle_gamma                90
_cell_volume                     4853.05
loop_
_atom_site_label
_atom_site_type_symbol
_atom_site_fract_x
_atom_site_fract_y
_atom_site_fract_z
La1 La -0.373880(7) -0.224250(13) -0.336620(13)
O1 O -0.35053(9) 0.62767(16) -0.21501(18)
O2 O -0.45772(8) -0.28295(18) -0.31427(17)
O3 O -0.42455(10) -0.08036(16) -0.2910(2)
O4 O -0.81871(8) -0.33348(18) -0.67149(17)
O5 O -0.30753(15) -0.0852(3) -0.3495(3)
O6 O -0.37936(16) -0.0713(2) -0.4634(3)
O7 O -0.31215(18) 0.0098(2) -0.4770(3)
O8 O -0.28740(11) -0.3137(3) -0.3395(2)
O9 O -0.33082(10) -0.2594(2) -0.48239(19)
O10 O -0.26464(12) -0.3560(2) -0.4703(2)
O11 O -0.44322(10) -0.24857(19) -0.51206(19)
O12 O -0.40657(10) -0.38593(19) -0.44730(18)
O13 O -0.46522(11) -0.3894(2) -0.5894(2)
N1 N -0.3323(2) -0.0478(2) -0.4306(3)
N2 N -0.29350(12) -0.3107(2) -0.4327(2)
N3 N -0.43874(11) -0.3413(2) -0.5177(2)
N4 N -0.35978(11) 0.5304(2) -0.2245(2)
N5 N -0.50605(10) -0.2869(2) -0.3714(2)
N6 N -0.41345(11) 0.0167(2) -0.2803(2)
N7 N -0.76829(10) -0.3269(2) -0.62962(19)
C1 C -0.32038(13) 0.4644(3) -0.2011(3)
H1 H -0.2866 0.4872 -0.1791
C2 C -0.33005(14) 0.3638(3) -0.2096(3)
H2 H -0.3026 0.3191 -0.1922
C3 C -0.38003(13) 0.3271(2) -0.2436(2)
C4 C -0.41927(13) 0.3976(2) -0.2659(3)
H3 H -0.4534 0.3765 -0.2886
C5 C -0.40866(13) 0.4976(3) -0.2549(3)
H4 H -0.4356 0.5433 -0.2687
C6 C -0.52494(13) -0.3741(3) -0.4137(3)
H5 H -0.5033 -0.4293 -0.4064
C7 C -0.57578(13) -0.3827(3) -0.4677(3)
H6 H -0.5882 -0.4435 -0.4968
C8 C -0.60872(12) -0.3015(2) -0.4790(2)
C9 C -0.58774(12) -0.2114(3) -0.4364(2)
H7 H -0.6084 -0.1548 -0.4441
C10 C -0.53646(12) -0.2056(2) -0.3827(3)
H8 H -0.5229 -0.1453 -0.3542
C11 C -0.44640(15) 0.0837(3) -0.3357(3)
H9 H -0.4762 0.0617 -0.3824
C12 C -0.43643(14) 0.1837(3) -0.3239(3)
H10 H -0.4600 0.2289 -0.3620
C13 C -0.39158(13) 0.2196(2) -0.2556(2)
C14 C -0.35896(15) 0.1480(3) -0.2003(3)
H11 H -0.3287 0.1678 -0.1537
C15 C -0.37056(15) 0.0475(3) -0.2131(3)
H12 H -0.3482 0.0008 -0.1744
C16 C -0.74112(13) -0.4099(2) -0.5941(3)
H13 H -0.7574 -0.4718 -0.6027
C17 C -0.68940(13) -0.4034(3) -0.5451(3)
H14 H -0.6712 -0.4609 -0.5195
C18 C -0.66400(12) -0.3120(3) -0.5333(2)
C19 C -0.69332(13) -0.2288(2) -0.5738(3)
H15 H -0.6776 -0.1665 -0.5690
C20 C -0.74499(13) -0.2373(2) -0.6206(3)
H16 H -0.7641 -0.1807 -0.6464
La1_2 La -0.373880(7) 0.775750(13) -0.336620(13)
O1_2 O -0.35053(9) -0.37233(16) -0.21501(18)
La1C La -0.873880(7) -0.275750(13) -0.836620(13)
O4C O -0.31871(8) -0.16652(18) -0.17149(17)
loop_
_geom_bond_atom_site_label_1
_geom_bond_atom_site_label_2
_geom_bond_site_symmetry_1
_geom_bond_site_symmetry_2
La1 O2 1_555 1_555
O1 N4 1_555 1_555
O2 N5 1_555 1_555
O3 La1 1_555 1_555
O4 N7 1_555 1_555
O5 La1 1_555 1_555
O6 La1 1_555 1_555
O7 N1 1_555 1_555
O8 La1 1_555 1_555
O9 La1 1_555 1_555
O10 N2 1_555 1_555
O11 La1 1_555 1_555
O12 La1 1_555 1_555
O13 N3 1_555 1_555
N1 O5 1_555 1_555
N2 O8 1_555 1_555
N3 O11 1_555 1_555
N4 C1 1_555 1_555
N5 C6 1_555 1_555
N6 O3 1_555 1_555
N7 C16 1_555 1_555
C1 H1 1_555 1_555
C2 C1 1_555 1_555
H2 C2 1_555 1_555
C3 C2 1_555 1_555
C4 C3 1_555 1_555
H3 C4 1_555 1_555
C5 N4 1_555 1_555
H4 C5 1_555 1_555
C6 H5 1_555 1_555
C7 C6 1_555 1_555
H6 C7 1_555 1_555
C8 C7 1_555 1_555
C9 C8 1_555 1_555
H7 C9 1_555 1_555
C10 N5 1_555 1_555
H8 C10 1_555 1_555
C11 N6 1_555 1_555
H9 C11 1_555 1_555
C12 C11 1_555 1_555
H10 C12 1_555 1_555
C13 C3 1_555 1_555
C14 C13 1_555 1_555
H11 C14 1_555 1_555
C15 N6 1_555 1_555
H12 C15 1_555 1_555
C16 H13 1_555 1_555
C17 C16 1_555 1_555
H14 C17 1_555 1_555
C18 C8 1_555 1_555
C19 C18 1_555 1_555
H15 C19 1_555 1_555
C20 N7 1_555 1_555
H16 C20 1_555 1_555
La1_2 O1 1_555 1_555
O1_2 La1 1_555 1_555
La1C O4 1_555 1_555
O4C La1 1_555 1_555
O6 N1 1_555 1_555
O9 N2 1_555 1_555
O12 N3 1_555 1_555
C4 C5 1_555 1_555
C9 C10 1_555 1_555
C12 C13 1_555 1_555
C14 C15 1_555 1_555
C17 C18 1_555 1_555
C19 C20 1_555 1_555

#END
