
#######################################################################
#
#                 Cambridge Crystallographic Data Centre
#                                CCDC 
#
#######################################################################
#
# If this CIF has been generated from an entry in the Cambridge 
# Structural Database, then it will include bibliographic, chemical, 
# crystal, experimental, refinement or atomic coordinate data resulting 
# from the CCDC's data processing and validation procedures.
#
#######################################################################

data_BIDBEW01
_symmetry_cell_setting           monoclinic
_symmetry_space_group_name_H-M   'P 21/n'
_symmetry_Int_Tables_number      14
_space_group_name_Hall           '-P 2yn'
loop_
_symmetry_equiv_pos_site_id
_symmetry_equiv_pos_as_xyz
1 x,y,z
2 1/2-x,1/2+y,1/2-z
3 -x,-y,-z
4 1/2+x,1/2-y,1/2+z
_cell_length_a                   9.910(5)
_cell_length_b                   16.796(8)
_cell_length_c                   11.333(5)
_cell_angle_alpha                90
_cell_angle_beta                 99.994(7)
_cell_angle_gamma                90
_cell_volume                     1857.74
loop_
_atom_site_label
_atom_site_type_symbol
_atom_site_fract_x
_atom_site_fract_y
_atom_site_fract_z
Zn1 Zn 0.39029(5) -0.00149(3) -0.42457(5)
N1 N 0.2461(4) -0.0198(2) -0.3208(4)
N2 N -0.2476(6) -0.1353(4) 0.0264(5)
O1 O 0.9855(4) 0.4045(2) -0.1328(4)
O2 O 0.8171(4) 0.4069(2) -0.0261(4)
O3 O 0.4234(5) 0.1961(3) -0.1564(5)
H1 H 0.3651 0.1731 -0.1258
O4 O 0.5596(5) 0.1020(3) -0.0648(4)
O5 O 0.5270(4) 0.0734(2) -0.3295(4)
O6 O 0.6957(4) 0.0715(2) -0.4343(4)
C1 C 0.8790(5) 0.3778(3) -0.1037(5)
C2 C 0.8196(5) 0.3027(3) -0.1648(5)
C3 C 0.8754(6) 0.2693(3) -0.2568(5)
H2 H 0.9519 0.2924 -0.2800
C4 C 0.8182(5) 0.2019(3) -0.3144(5)
H3 H 0.8558 0.1803 -0.3770
C5 C 0.7051(5) 0.1661(3) -0.2799(5)
C6 C 0.6512(5) 0.1978(3) -0.1844(5)
C7 C 0.7073(5) 0.2664(3) -0.1293(5)
H4 H 0.6692 0.2886 -0.0674
C8 C 0.6379(5) 0.0977(3) -0.3533(5)
C9 C 0.5382(7) 0.1587(4) -0.1304(6)
C10 C 0.2769(7) -0.0600(5) -0.2192(7)
H5 H 0.3682 -0.0726 -0.1910
C11 C 0.1795(8) -0.0839(5) -0.1535(7)
H6 H 0.2059 -0.1150 -0.0855
C12 C 0.0460(5) -0.0632(3) -0.1858(5)
C13 C 0.0198(8) -0.0166(6) -0.2820(9)
H7 H -0.0685 0.0027 -0.3069
C14 C 0.1227(7) 0.0037(5) -0.3459(8)
H8 H 0.0993 0.0369 -0.4119
C15 C -0.0578(6) -0.0868(4) -0.1138(5)
C16 C -0.0385(7) -0.1531(5) -0.0412(7)
H9 H 0.0409 -0.1832 -0.0376
C17 C -0.1353(8) -0.1753(6) 0.0259(7)
H10 H -0.1198 -0.2208 0.0730
C18 C -0.2708(7) -0.0725(5) -0.0427(7)
H11 H -0.3520 -0.0445 -0.0439
C19 C -0.1778(6) -0.0455(4) -0.1158(6)
H12 H -0.1975 -0.0007 -0.1640
Zn1B Zn 0.60971(5) 0.00149(3) -0.57543(5)
Zn1A Zn 1.10971(5) 0.49851(3) -0.07543(5)
Zn1C Zn 0.89029(5) 0.50149(3) 0.07543(5)
O1A O 0.5145(4) -0.0955(2) -0.3672(4)
O2C O 0.3171(4) 0.0931(2) -0.5261(4)
O6B O 0.3043(4) -0.0715(2) -0.5657(4)
loop_
_geom_bond_atom_site_label_1
_geom_bond_atom_site_label_2
_geom_bond_site_symmetry_1
_geom_bond_site_symmetry_2
Zn1 N1 1_555 1_555
N1 C10 1_555 1_555
N2 C17 1_555 1_555
O1 C1 1_555 1_555
O2 C1 1_555 1_555
O3 H1 1_555 1_555
O4 C9 1_555 1_555
O5 Zn1 1_555 1_555
O6 C8 1_555 1_555
C1 C2 1_555 1_555
C2 C3 1_555 1_555
C3 H2 1_555 1_555
C4 C3 1_555 1_555
H3 C4 1_555 1_555
C5 C4 1_555 1_555
C6 C5 1_555 1_555
C7 C2 1_555 1_555
H4 C7 1_555 1_555
C8 O5 1_555 1_555
C9 O3 1_555 1_555
C10 H5 1_555 1_555
C11 C10 1_555 1_555
H6 C11 1_555 1_555
C12 C11 1_555 1_555
C13 C12 1_555 1_555
H7 C13 1_555 1_555
C14 N1 1_555 1_555
H8 C14 1_555 1_555
C15 C12 1_555 1_555
C16 C15 1_555 1_555
H9 C16 1_555 1_555
C17 C16 1_555 1_555
H10 C17 1_555 1_555
C18 N2 1_555 1_555
H11 C18 1_555 1_555
C19 C15 1_555 1_555
H12 C19 1_555 1_555
Zn1B O6 1_555 1_555
Zn1A O1 1_555 1_555
Zn1C O2 1_555 1_555
O1A Zn1 1_555 1_555
O2C Zn1 1_555 1_555
O6B Zn1 1_555 1_555
C5 C8 1_555 1_555
C6 C7 1_555 1_555
C6 C9 1_555 1_555
C13 C14 1_555 1_555
C18 C19 1_555 1_555

#END
