
#######################################################################
#
#                 Cambridge Crystallographic Data Centre
#                                CCDC 
#
#######################################################################
#
# If this CIF has been generated from an entry in the Cambridge 
# Structural Database, then it will include bibliographic, chemical, 
# crystal, experimental, refinement or atomic coordinate data resulting 
# from the CCDC's data processing and validation procedures.
#
#######################################################################

data_BIDFEB
_symmetry_cell_setting           triclinic
_symmetry_space_group_name_H-M   'P -1'
_symmetry_Int_Tables_number      2
_space_group_name_Hall           '-P 1'
loop_
_symmetry_equiv_pos_site_id
_symmetry_equiv_pos_as_xyz
1 x,y,z
2 -x,-y,-z
_cell_length_a                   10.3248(19)
_cell_length_b                   11.3302(18)
_cell_length_c                   14.087(3)
_cell_angle_alpha                102.938(14)
_cell_angle_beta                 111.170(17)
_cell_angle_gamma                100.561(14)
_cell_volume                     1433.05
loop_
_atom_site_label
_atom_site_type_symbol
_atom_site_fract_x
_atom_site_fract_y
_atom_site_fract_z
Tb1 Tb 0.112647(19) 0.063955(17) 0.657762(15)
C1 C -0.0159(4) 0.2393(4) 0.4954(3)
C2 C -0.0123(4) 0.3737(4) 0.4975(3)
C3 C 0.1061(4) 0.4713(4) 0.5765(3)
H1 H 0.1773 0.4524 0.6287
C4 C -0.1209(4) 0.4037(4) 0.4207(3)
C5 C -0.2575(4) 0.3065(4) 0.3410(3)
C6 C -0.2931(5) 0.2791(4) 0.2249(4)
C7 C -0.1894(5) 0.3215(5) 0.1907(4)
H2 H -0.0971 0.3719 0.2403
C8 C -0.2234(7) 0.2888(7) 0.0824(5)
H3 H -0.1527 0.3163 0.0596
C9 C -0.3589(7) 0.2169(7) 0.0083(5)
H4 H -0.3807 0.1964 -0.0646
C10 C -0.4631(6) 0.1749(6) 0.0416(5)
H5 H -0.5553 0.1245 -0.0084
C11 C -0.4304(5) 0.2075(5) 0.1488(4)
H6 H -0.5022 0.1810 0.1709
C12 C 0.2000(4) -0.0066(4) 0.4333(4)
C13 C 0.3562(4) 0.0020(4) 0.4675(3)
C14 C 0.4272(4) 0.0185(4) 0.4016(4)
C15 C 0.4307(4) -0.0158(4) 0.5640(4)
H7 H 0.3830 -0.0265 0.6076
C16 C 0.3593(5) 0.0396(5) 0.2954(4)
C17 C 0.2972(5) 0.1464(5) 0.2876(4)
C18 C 0.3158(6) 0.2371(5) 0.3780(5)
H8 H 0.3673 0.2320 0.4457
C19 C 0.2560(8) 0.3382(7) 0.3671(6)
H9 H 0.2675 0.4014 0.4270
C20 C 0.1804(7) 0.3406(7) 0.2656(7)
H10 H 0.1406 0.4070 0.2580
C21 C 0.1608(7) 0.2527(7) 0.1771(6)
H11 H 0.1077 0.2576 0.1096
C22 C 0.2201(5) 0.1550(7) 0.1869(5)
H12 H 0.2088 0.0940 0.1257
C23 C 0.2975(4) 0.2861(4) 0.8189(4)
C24 C 0.4008(4) 0.3984(4) 0.9108(4)
C25 C 0.3912(5) 0.4219(4) 1.0091(4)
H13 H 0.3159 0.3687 1.0145
C26 C 0.5120(4) 0.4801(4) 0.9022(4)
C27 C 0.5217(5) 0.4633(4) 0.7959(4)
C28 C 0.6367(5) 0.4141(4) 0.7788(4)
C29 C 0.6245(6) 0.3694(5) 0.6746(4)
H14 H 0.5415 0.3665 0.6173
C30 C 0.7331(7) 0.3294(6) 0.6548(5)
H15 H 0.7219 0.2970 0.5846
C31 C 0.8568(7) 0.3375(6) 0.7385(6)
H16 H 0.9320 0.3136 0.7256
C32 C 0.8709(7) 0.3806(6) 0.8412(6)
H17 H 0.9557 0.3855 0.8980
C33 C 0.7610(6) 0.4170(5) 0.8622(5)
H18 H 0.7707 0.4436 0.9325
O1 O 0.0395(3) 0.2221(3) 0.5853(2)
O2 O -0.0692(3) 0.1577(3) 0.4061(2)
O3 O -0.3388(3) 0.2507(3) 0.3715(3)
O4 O 0.1551(3) 0.0286(3) 0.5045(2)
O5 O 0.1170(3) -0.0493(3) 0.3364(2)
O6 O 0.3655(4) -0.0278(4) 0.2185(3)
O7 O 0.3268(3) 0.2453(3) 0.7416(3)
O8 O 0.1820(3) 0.2312(3) 0.8209(2)
O9 O 0.4397(4) 0.4986(4) 0.7281(3)
O10 O 0.3380(4) 0.0220(3) 0.7625(3)
H19 H 0.4252 0.0574 0.7752
H20 H 0.3382 -0.0413 0.7855
O11 O 0.0985(4) -0.0344(4) 0.7963(3)
H21 H 0.0563 -0.1130 0.7641
H22 H 0.0808 -0.0143 0.8512
C1A C 0.0159(4) 0.7607(4) 0.5046(3)
C2A C 0.0123(4) 0.6263(4) 0.5025(3)
C3A C -0.1061(4) 0.5287(4) 0.4235(3)
H1A H -0.1773 0.5476 0.3713
C4A C 0.1209(4) 0.5963(4) 0.5793(3)
C5A C 0.2575(4) 0.6935(4) 0.6590(3)
C6A C 0.2931(5) 0.7209(4) 0.7751(4)
C7A C 0.1894(5) 0.6785(5) 0.8093(4)
H2A H 0.0971 0.6281 0.7597
C8A C 0.2234(7) 0.7112(7) 0.9176(5)
H3A H 0.1527 0.6837 0.9404
C9A C 0.3589(7) 0.7831(7) 0.9917(5)
H4A H 0.3807 0.8036 1.0646
C10A C 0.4631(6) 0.8251(6) 0.9584(5)
H5A H 0.5553 0.8755 1.0084
C11A C 0.4304(5) 0.7925(5) 0.8512(4)
H6A H 0.5022 0.8190 0.8291
O1A O -0.0395(3) 0.7779(3) 0.4147(2)
O2A O 0.0692(3) 0.8423(3) 0.5939(2)
O3A O 0.3388(3) 0.7493(3) 0.6285(3)
C12A C 0.8000(4) 0.0066(4) 0.5667(4)
C13A C 0.6438(4) -0.0020(4) 0.5325(3)
C14A C 0.5728(4) -0.0185(4) 0.5984(4)
C15A C 0.5693(4) 0.0158(4) 0.4360(4)
H7A H 0.6170 0.0265 0.3924
C16A C 0.6407(5) -0.0396(5) 0.7046(4)
C17A C 0.7028(5) -0.1464(5) 0.7124(4)
C18A C 0.6842(6) -0.2371(5) 0.6220(5)
H8A H 0.6327 -0.2320 0.5543
C19A C 0.7440(8) -0.3382(7) 0.6329(6)
H9A H 0.7325 -0.4014 0.5730
C20A C 0.8196(7) -0.3406(7) 0.7344(7)
H10A H 0.8594 -0.4070 0.7420
C21A C 0.8392(7) -0.2527(7) 0.8229(6)
H11A H 0.8923 -0.2576 0.8904
C22A C 0.7799(5) -0.1550(7) 0.8131(5)
H12A H 0.7912 -0.0940 0.8743
O4A O 0.8449(3) -0.0286(3) 0.4955(2)
O5A O 0.8830(3) 0.0493(3) 0.6636(2)
O6A O 0.6345(4) 0.0278(4) 0.7815(3)
C23A C 0.7025(4) 0.7139(4) 1.1811(4)
C24A C 0.5992(4) 0.6016(4) 1.0892(4)
C25A C 0.6088(5) 0.5781(4) 0.9909(4)
H13A H 0.6841 0.6313 0.9855
C26A C 0.4880(4) 0.5199(4) 1.0978(4)
C27A C 0.4783(5) 0.5367(4) 1.2041(4)
C28A C 0.3633(5) 0.5859(4) 1.2212(4)
C29A C 0.3755(6) 0.6306(5) 1.3254(4)
H14A H 0.4585 0.6335 1.3827
C30A C 0.2669(7) 0.6706(6) 1.3452(5)
H15A H 0.2781 0.7030 1.4154
C31A C 0.1432(7) 0.6625(6) 1.2615(6)
H16A H 0.0680 0.6864 1.2744
C32A C 0.1291(7) 0.6194(6) 1.1588(6)
H17A H 0.0443 0.6145 1.1020
C33A C 0.2390(6) 0.5830(5) 1.1378(5)
H18A H 0.2293 0.5564 1.0675
O7A O 0.6732(3) 0.7547(3) 1.2584(3)
O8A O 0.8180(3) 0.7688(3) 1.1791(2)
O9A O 0.5603(4) 0.5014(4) 1.2719(3)
Tb1A Tb -0.112647(19) -0.063955(17) 0.342238(15)
O10A O -0.3380(4) -0.0220(3) 0.2375(3)
H19A H -0.4252 -0.0574 0.2248
H20A H -0.3382 0.0413 0.2145
O11A O -0.0985(4) 0.0344(4) 0.2037(3)
H21A H -0.0563 0.1130 0.2359
H22A H -0.0808 0.0143 0.1488
Tb1_2 Tb 0.112647(19) 1.063955(17) 0.657762(15)
Tb1_3 Tb 1.112647(19) 0.063955(17) 0.657762(15)
Tb1A_2 Tb -0.112647(19) 0.936045(17) 0.342238(15)
Tb1A_3 Tb 0.887353(19) -0.063955(17) 0.342238(15)
Tb1A_4 Tb 0.887353(19) 0.936045(17) 1.342238(15)
O1A_2 O -0.0395(3) -0.2221(3) 0.4147(2)
O2A_2 O 0.0692(3) -0.1577(3) 0.5939(2)
O4A_2 O -0.1551(3) -0.0286(3) 0.4955(2)
O5A_2 O -0.1170(3) 0.0493(3) 0.6636(2)
O7A_2 O -0.3268(3) -0.2453(3) 0.2584(3)
O8A_2 O -0.1820(3) -0.2312(3) 0.1791(2)
O12 O 0.9975(6) 0.8584(5) 0.0861(4)
H23 H 1.0581 0.8987 0.1505
H24 H 0.9216 0.8167 0.0879
loop_
_geom_bond_atom_site_label_1
_geom_bond_atom_site_label_2
_geom_bond_site_symmetry_1
_geom_bond_site_symmetry_2
Tb1 O1 1_555 1_555
C1 C2 1_555 1_555
C2 C3 1_555 1_555
C3 H1 1_555 1_555
C4 C2 1_555 1_555
C5 C4 1_555 1_555
C6 C5 1_555 1_555
C7 C6 1_555 1_555
H2 C7 1_555 1_555
C8 C7 1_555 1_555
H3 C8 1_555 1_555
C9 C8 1_555 1_555
H4 C9 1_555 1_555
C10 C9 1_555 1_555
H5 C10 1_555 1_555
C11 C6 1_555 1_555
H6 C11 1_555 1_555
C12 C13 1_555 1_555
C13 C14 1_555 1_555
C14 C16 1_555 1_555
C15 C13 1_555 1_555
H7 C15 1_555 1_555
C16 C17 1_555 1_555
C17 C18 1_555 1_555
C18 H8 1_555 1_555
C19 C18 1_555 1_555
H9 C19 1_555 1_555
C20 C19 1_555 1_555
H10 C20 1_555 1_555
C21 C20 1_555 1_555
H11 C21 1_555 1_555
C22 C17 1_555 1_555
H12 C22 1_555 1_555
C23 C24 1_555 1_555
C24 C25 1_555 1_555
C25 H13 1_555 1_555
C26 C24 1_555 1_555
C27 C26 1_555 1_555
C28 C27 1_555 1_555
C29 C28 1_555 1_555
H14 C29 1_555 1_555
C30 C29 1_555 1_555
H15 C30 1_555 1_555
C31 C30 1_555 1_555
H16 C31 1_555 1_555
C32 C31 1_555 1_555
H17 C32 1_555 1_555
C33 C28 1_555 1_555
H18 C33 1_555 1_555
O1 C1 1_555 1_555
O2 C1 1_555 1_555
O3 C5 1_555 1_555
O4 Tb1 1_555 1_555
O5 C12 1_555 1_555
O6 C16 1_555 1_555
O7 Tb1 1_555 1_555
O8 Tb1 1_555 1_555
O9 C27 1_555 1_555
O10 Tb1 1_555 1_555
H19 O10 1_555 1_555
H20 O10 1_555 1_555
O11 Tb1 1_555 1_555
H21 O11 1_555 1_555
H22 O11 1_555 1_555
O12 H23 1_555 1_555
H24 O12 1_555 1_555
C1A C2A 1_555 1_555
C2A C3A 1_555 1_555
C3A C4 1_555 1_555
H1A C3A 1_555 1_555
C4A C3 1_555 1_555
C5A C4A 1_555 1_555
C6A C5A 1_555 1_555
C7A C6A 1_555 1_555
H2A C7A 1_555 1_555
C8A C7A 1_555 1_555
H3A C8A 1_555 1_555
C9A C8A 1_555 1_555
H4A C9A 1_555 1_555
C10A C9A 1_555 1_555
H5A C10A 1_555 1_555
C11A C6A 1_555 1_555
H6A C11A 1_555 1_555
O1A C1A 1_555 1_555
O2A C1A 1_555 1_555
O3A C5A 1_555 1_555
C12A C13A 1_555 1_555
C13A C14A 1_555 1_555
C14A C15 1_555 1_555
C15A C14 1_555 1_555
H7A C15A 1_555 1_555
C16A C14A 1_555 1_555
C17A C16A 1_555 1_555
C18A C17A 1_555 1_555
H8A C18A 1_555 1_555
C19A C18A 1_555 1_555
H9A C19A 1_555 1_555
C20A C19A 1_555 1_555
H10A C20A 1_555 1_555
C21A C20A 1_555 1_555
H11A C21A 1_555 1_555
C22A C17A 1_555 1_555
H12A C22A 1_555 1_555
O4A C12A 1_555 1_555
O5A C12A 1_555 1_555
O6A C16A 1_555 1_555
C23A C24A 1_555 1_555
C24A C25A 1_555 1_555
C25A C26 1_555 1_555
H13A C25A 1_555 1_555
C26A C25 1_555 1_555
C27A C26A 1_555 1_555
C28A C27A 1_555 1_555
C29A C28A 1_555 1_555
H14A C29A 1_555 1_555
C30A C29A 1_555 1_555
H15A C30A 1_555 1_555
C31A C30A 1_555 1_555
H16A C31A 1_555 1_555
C32A C31A 1_555 1_555
H17A C32A 1_555 1_555
C33A C28A 1_555 1_555
H18A C33A 1_555 1_555
O7A C23A 1_555 1_555
O8A C23A 1_555 1_555
O9A C27A 1_555 1_555
Tb1A O2 1_555 1_555
O10A Tb1A 1_555 1_555
H19A O10A 1_555 1_555
H20A O10A 1_555 1_555
O11A Tb1A 1_555 1_555
H21A O11A 1_555 1_555
H22A O11A 1_555 1_555
Tb1_2 O2A 1_555 1_555
Tb1_3 O4A 1_555 1_555
Tb1A_2 O1A 1_555 1_555
Tb1A_3 O4A 1_555 1_555
Tb1A_4 O7A 1_555 1_555
O1A_2 Tb1A 1_555 1_555
O2A_2 Tb1 1_555 1_555
O4A_2 Tb1 1_555 1_555
O5A_2 Tb1 1_555 1_555
O7A_2 Tb1A 1_555 1_555
O8A_2 Tb1A 1_555 1_555
C10 C11 1_555 1_555
C12 O4 1_555 1_555
C21 C22 1_555 1_555
C23 O7 1_555 1_555
C23 O8 1_555 1_555
C32 C33 1_555 1_555
O4 Tb1A 1_555 1_555
O5 Tb1A 1_555 1_555
C2A C4A 1_555 1_555
C10A C11A 1_555 1_555
C13A C15A 1_555 1_555
C21A C22A 1_555 1_555
O5A Tb1_3 1_555 1_555
C24A C26A 1_555 1_555
C32A C33A 1_555 1_555
O8A Tb1A_4 1_555 1_555
Tb1A O4A_2 1_555 1_555

#END
