
#######################################################################
#
#                 Cambridge Crystallographic Data Centre
#                                CCDC 
#
#######################################################################
#
# If this CIF has been generated from an entry in the Cambridge 
# Structural Database, then it will include bibliographic, chemical, 
# crystal, experimental, refinement or atomic coordinate data resulting 
# from the CCDC's data processing and validation procedures.
#
#######################################################################

data_BIFDIE
_symmetry_cell_setting           monoclinic
_symmetry_space_group_name_H-M   'P 21/c'
_symmetry_Int_Tables_number      14
_space_group_name_Hall           '-P 2ybc'
loop_
_symmetry_equiv_pos_site_id
_symmetry_equiv_pos_as_xyz
1 x,y,z
2 -x,1/2+y,1/2-z
3 -x,-y,-z
4 x,1/2-y,1/2+z
_cell_length_a                   6.671(1)
_cell_length_b                   20.708(2)
_cell_length_c                   7.220(1)
_cell_angle_alpha                90
_cell_angle_beta                 111.567(2)
_cell_angle_gamma                90
_cell_volume                     927.564
loop_
_atom_site_label
_atom_site_type_symbol
_atom_site_fract_x
_atom_site_fract_y
_atom_site_fract_z
Rb1 Rb 0.22487(5) 0.057327(15) 0.89147(4)
S1 S -0.26684(13) 0.09537(4) 0.90652(11)
N1 N -0.4861(3) 0.10457(10) 0.5046(3)
N2 N -0.4830(4) 0.07843(11) 0.3326(3)
N3 N -0.3226(4) 0.03848(11) 0.3841(4)
N4 N -0.2192(4) 0.03708(11) 0.5859(4)
C1 C -0.3225(4) 0.07871(12) 0.6612(4)
C2 C -0.6450(5) 0.15123(14) 0.5005(4)
C3 C -0.8589(5) 0.13467(17) 0.4194(5)
H1 H -0.893(4) 0.0958(12) 0.371(4)
C4 C -1.0130(6) 0.1803(2) 0.4096(6)
H2 H -1.150(5) 0.1710(14) 0.355(5)
C5 C -0.9525(7) 0.2417(2) 0.4785(5)
H3 H -1.064(4) 0.2707(13) 0.457(4)
C6 C -0.7384(8) 0.25710(19) 0.5596(5)
H4 H -0.694(4) 0.2948(12) 0.603(4)
C7 C -0.5818(6) 0.21223(17) 0.5704(5)
H5 H -0.446(4) 0.2197(13) 0.620(4)
Rb1B Rb -0.22487(5) -0.057327(15) 1.10853(4)
Rb1B_2 Rb 0.77513(5) -0.057327(15) 1.10853(4)
S1_2 S 0.73316(13) 0.09537(4) 0.90652(11)
S1B S 0.26684(13) -0.09537(4) 1.09348(11)
N2_2 N 0.5170(4) 0.07843(11) 1.3326(3)
N3B N 0.3226(4) -0.03848(11) 0.6159(4)
C3_2 C 0.1411(5) 0.13467(17) 0.4194(5)
Rb1_2 Rb -0.77513(5) 0.057327(15) 0.89147(4)
Rb1_3 Rb -0.77513(5) 0.057327(15) -0.10853(4)
Rb1B_3 Rb -0.22487(5) -0.057327(15) 0.10853(4)
H1_2 H 0.107(4) 0.0958(12) 0.371(4)
loop_
_geom_bond_atom_site_label_1
_geom_bond_atom_site_label_2
_geom_bond_site_symmetry_1
_geom_bond_site_symmetry_2
Rb1 S1 1_555 1_555
S1 C1 1_555 1_555
N1 N2 1_555 1_555
N2 N3 1_555 1_555
N3 N4 1_555 1_555
N4 Rb1 1_555 1_555
C1 N1 1_555 1_555
C2 N1 1_555 1_555
C3 C2 1_555 1_555
H1 C3 1_555 1_555
C4 C3 1_555 1_555
H2 C4 1_555 1_555
C5 C4 1_555 1_555
H3 C5 1_555 1_555
C6 C5 1_555 1_555
H4 C6 1_555 1_555
C7 C2 1_555 1_555
H5 C7 1_555 1_555
Rb1B S1 1_555 1_555
Rb1B_2 S1_2 1_555 1_555
S1_2 Rb1 1_555 1_555
S1B Rb1 1_555 1_555
N2_2 Rb1 1_555 1_555
N3B Rb1 1_555 1_555
C3_2 Rb1 1_555 1_555
Rb1_2 S1 1_555 1_555
Rb1_3 N2 1_555 1_555
Rb1B_3 N3 1_555 1_555
H1_2 C3_2 1_555 1_555
N4 C1 1_555 1_555
C3 Rb1_2 1_555 1_555
C6 C7 1_555 1_555
Rb1B S1B 1_555 1_555
Rb1B_2 S1B 1_555 1_555

#END
