
#######################################################################
#
#                 Cambridge Crystallographic Data Centre
#                                CCDC 
#
#######################################################################
#
# If this CIF has been generated from an entry in the Cambridge 
# Structural Database, then it will include bibliographic, chemical, 
# crystal, experimental, refinement or atomic coordinate data resulting 
# from the CCDC's data processing and validation procedures.
#
#######################################################################

data_BIFWOE
_symmetry_cell_setting           monoclinic
_symmetry_space_group_name_H-M   'P 21/n'
_symmetry_Int_Tables_number      14
_space_group_name_Hall           '-P 2yn'
loop_
_symmetry_equiv_pos_site_id
_symmetry_equiv_pos_as_xyz
1 x,y,z
2 1/2-x,1/2+y,1/2-z
3 -x,-y,-z
4 1/2+x,1/2-y,1/2+z
_cell_length_a                   10.5123(7)
_cell_length_b                   14.6743(9)
_cell_length_c                   12.6219(8)
_cell_angle_alpha                90
_cell_angle_beta                 104.6010(10)
_cell_angle_gamma                90
_cell_volume                     1884.18
loop_
_atom_site_label
_atom_site_type_symbol
_atom_site_fract_x
_atom_site_fract_y
_atom_site_fract_z
Mn1 Mn -0.06680(3) -0.020714(18) 0.66839(2)
P1 P 0.16536(5) 0.10477(3) 0.58374(4)
P2 P 0.35099(5) 0.30704(3) 0.83819(4)
O1 O 0.18365(13) 0.06416(10) 0.47940(12)
O2 O 0.43109(13) 0.37736(9) 0.79646(12)
O3 O 0.03248(13) 0.08377(9) 0.60643(11)
O4 O 0.21876(13) 0.28682(10) 0.76329(12)
O5 O 0.32530(14) 0.33745(10) 0.95175(13)
H1 H 0.3925 0.3600 0.9904
O6 O 0.18273(14) 0.21077(9) 0.57760(12)
H2 H 0.1910 0.2330 0.6386
N1 N -0.23748(15) -0.06085(10) 0.73856(13)
N2 N -0.04994(15) 0.06319(10) 0.82149(14)
C1 C -0.33500(19) -0.11718(13) 0.69235(18)
H3 H -0.3360 -0.1423 0.6245
C2 C -0.43611(19) -0.14013(14) 0.74156(18)
H4 H -0.5033 -0.1791 0.7063
C3 C -0.43499(19) -0.10442(14) 0.84249(17)
H5 H -0.4997 -0.1207 0.8773
C4 C -0.33462(18) -0.04277(13) 0.89283(16)
C5 C -0.23908(18) -0.02282(12) 0.83592(16)
C6 C -0.3278(2) 0.00118(14) 0.99579(17)
H6 H -0.3895 -0.0137 1.0344
C7 C -0.23426(19) 0.06353(14) 1.03792(17)
H7 H -0.2328 0.0912 1.1045
C8 C -0.13657(19) 0.08748(13) 0.98032(17)
C9 C -0.13733(18) 0.04378(13) 0.88134(16)
C10 C -0.03912(19) 0.15414(14) 1.01886(17)
H8 H -0.0344 0.1842 1.0846
C11 C 0.0485(2) 0.17395(14) 0.95798(18)
H9 H 0.1135 0.2177 0.9818
C12 C 0.03887(19) 0.12735(13) 0.85947(17)
H10 H 0.0980 0.1422 0.8184
C13 C 0.29648(18) 0.06526(13) 0.69659(16)
H11 H 0.2757 0.0811 0.7649
H12 H 0.3017 -0.0006 0.6933
C14 C 0.42951(18) 0.10557(13) 0.69580(17)
C15 C 0.4866(2) 0.08024(13) 0.61154(17)
H13 H 0.4432 0.0387 0.5592
C16 C 0.60649(19) 0.11543(14) 0.60391(18)
H14 H 0.6420 0.0981 0.5466
C17 C 0.6730(2) 0.17656(14) 0.68208(19)
H15 H 0.7534 0.2004 0.6777
C18 C 0.6187(2) 0.20161(13) 0.76629(18)
H16 H 0.6643 0.2421 0.8190
C19 C 0.49663(19) 0.16798(13) 0.77516(17)
C20 C 0.4454(2) 0.20285(13) 0.86923(17)
H17 H 0.5192 0.2135 0.9318
H18 H 0.3906 0.1562 0.8896
Mn1A Mn 0.56680(3) 0.479286(18) 0.83161(2)
Mn1B Mn 0.06680(3) 0.020714(18) 0.33161(2)
O1B O -0.18365(13) -0.06416(10) 0.52060(12)
O2A O 0.06891(13) -0.12264(9) 0.70354(12)
loop_
_geom_bond_atom_site_label_1
_geom_bond_atom_site_label_2
_geom_bond_site_symmetry_1
_geom_bond_site_symmetry_2
Mn1 O3 1_555 1_555
P1 O1 1_555 1_555
P2 O2 1_555 1_555
O1 Mn1B 1_555 1_555
O2 Mn1A 1_555 1_555
O3 P1 1_555 1_555
O4 P2 1_555 1_555
O5 P2 1_555 1_555
H1 O5 1_555 1_555
O6 P1 1_555 1_555
H2 O6 1_555 1_555
N1 Mn1 1_555 1_555
N2 Mn1 1_555 1_555
C1 N1 1_555 1_555
H3 C1 1_555 1_555
C2 C1 1_555 1_555
H4 C2 1_555 1_555
C3 C2 1_555 1_555
H5 C3 1_555 1_555
C4 C3 1_555 1_555
C5 N1 1_555 1_555
C6 C4 1_555 1_555
H6 C6 1_555 1_555
C7 C6 1_555 1_555
H7 C7 1_555 1_555
C8 C7 1_555 1_555
C9 N2 1_555 1_555
C10 C8 1_555 1_555
H8 C10 1_555 1_555
C11 C10 1_555 1_555
H9 C11 1_555 1_555
C12 N2 1_555 1_555
H10 C12 1_555 1_555
C13 P1 1_555 1_555
H11 C13 1_555 1_555
H12 C13 1_555 1_555
C14 C13 1_555 1_555
C15 C14 1_555 1_555
H13 C15 1_555 1_555
C16 C15 1_555 1_555
H14 C16 1_555 1_555
C17 C16 1_555 1_555
H15 C17 1_555 1_555
C18 C17 1_555 1_555
H16 C18 1_555 1_555
C19 C14 1_555 1_555
C20 P2 1_555 1_555
H17 C20 1_555 1_555
H18 C20 1_555 1_555
O1B Mn1 1_555 1_555
O2A Mn1 1_555 1_555
C4 C5 1_555 1_555
C5 C9 1_555 1_555
C8 C9 1_555 1_555
C11 C12 1_555 1_555
C18 C19 1_555 1_555
C19 C20 1_555 1_555

#END
