
#######################################################################
#
#                 Cambridge Crystallographic Data Centre
#                                CCDC 
#
#######################################################################
#
# If this CIF has been generated from an entry in the Cambridge 
# Structural Database, then it will include bibliographic, chemical, 
# crystal, experimental, refinement or atomic coordinate data resulting 
# from the CCDC's data processing and validation procedures.
#
#######################################################################

data_BIFWUK
_symmetry_cell_setting           monoclinic
_symmetry_space_group_name_H-M   'P 21/c'
_symmetry_Int_Tables_number      14
_space_group_name_Hall           '-P 2ybc'
loop_
_symmetry_equiv_pos_site_id
_symmetry_equiv_pos_as_xyz
1 x,y,z
2 -x,1/2+y,1/2-z
3 -x,-y,-z
4 x,1/2-y,1/2+z
_cell_length_a                   10.8871(11)
_cell_length_b                   23.673(3)
_cell_length_c                   7.6062(8)
_cell_angle_alpha                90
_cell_angle_beta                 95.014(2)
_cell_angle_gamma                90
_cell_volume                     1952.85
loop_
_atom_site_label
_atom_site_type_symbol
_atom_site_fract_x
_atom_site_fract_y
_atom_site_fract_z
Mn1 Mn 0.45141(3) 0.570368(12) 0.23676(4)
P1 P 0.31736(4) 0.52037(2) -0.14490(7)
P2 P -0.36429(4) 0.55762(2) -0.35060(7)
O1 O 0.39042(12) 0.46536(6) -0.12374(18)
O2 O -0.47313(12) 0.56834(6) -0.48395(18)
O3 O 0.35933(12) 0.56789(6) -0.02380(18)
O4 O -0.33763(12) 0.49772(6) -0.29710(18)
O5 O 0.31031(12) 0.54015(6) -0.34318(18)
H1 H 0.3793 0.5494 -0.3683
O6 O -0.38375(13) 0.59381(6) -0.18063(18)
H2 H -0.3882 0.5727 -0.0960
N1 N 0.52919(15) 0.65992(7) 0.2108(2)
N2 N 0.30686(15) 0.63383(7) 0.3273(2)
C1 C 0.63876(18) 0.67265(9) 0.1576(3)
H3 H 0.6918 0.6433 0.1346
C2 C 0.67841(19) 0.72844(9) 0.1343(3)
H4 H 0.7559 0.7357 0.0968
C3 C 0.60084(19) 0.77189(9) 0.1680(3)
H5 H 0.6251 0.8091 0.1517
C4 C 0.48491(19) 0.76045(8) 0.2270(3)
C5 C 0.45265(18) 0.70319(8) 0.2463(3)
C6 C 0.4012(2) 0.80416(9) 0.2707(3)
H6 H 0.4230 0.8418 0.2586
C7 C 0.2912(2) 0.79105(9) 0.3292(3)
H7 H 0.2383 0.8199 0.3574
C8 C 0.25456(19) 0.73342(9) 0.3484(3)
C9 C 0.33484(18) 0.68958(8) 0.3085(3)
C10 C 0.20026(18) 0.62086(9) 0.3889(3)
H8 H 0.1814 0.5829 0.4039
C11 C 0.11439(19) 0.66170(9) 0.4327(3)
H9 H 0.0404 0.6509 0.4754
C12 C 0.14139(19) 0.71775(9) 0.4114(3)
H10 H 0.0852 0.7453 0.4384
C13 C 0.15834(17) 0.50170(9) -0.1213(3)
H11 H 0.1343 0.4724 -0.2067
H12 H 0.1538 0.4856 -0.0048
C14 C 0.06555(17) 0.54897(8) -0.1446(3)
C15 C 0.07198(18) 0.59386(9) -0.0256(3)
H13 H 0.1357 0.5953 0.0640
C16 C -0.01593(19) 0.63635(9) -0.0398(3)
H14 H -0.0112 0.6659 0.0412
C17 C -0.11056(18) 0.63519(8) -0.1734(3)
H15 H -0.1687 0.6641 -0.1822
C18 C -0.11948(17) 0.59094(8) -0.2952(3)
C19 C -0.03075(17) 0.54818(9) -0.2788(3)
H16 H -0.0359 0.5185 -0.3591
C20 C -0.22757(17) 0.58781(8) -0.4337(3)
H17 H -0.2045 0.5652 -0.5319
H18 H -0.2466 0.6255 -0.4777
Mn1_2 Mn -0.54859(3) 0.570368(12) -0.76324(4)
Mn1B Mn -0.45141(3) 0.429632(12) -0.23676(4)
Mn1B_2 Mn 0.54859(3) 0.429632(12) -0.23676(4)
O1B O 0.60958(12) 0.53464(6) 0.12374(18)
O2_2 O 0.52687(12) 0.56834(6) 0.51605(18)
O4B O 0.33763(12) 0.50228(6) 0.29710(18)
loop_
_geom_bond_atom_site_label_1
_geom_bond_atom_site_label_2
_geom_bond_site_symmetry_1
_geom_bond_site_symmetry_2
Mn1 O3 1_555 1_555
P1 O1 1_555 1_555
P2 O2 1_555 1_555
O1 Mn1B_2 1_555 1_555
O2 Mn1_2 1_555 1_555
O3 P1 1_555 1_555
O4 P2 1_555 1_555
O5 P1 1_555 1_555
H1 O5 1_555 1_555
O6 P2 1_555 1_555
H2 O6 1_555 1_555
N1 Mn1 1_555 1_555
N2 Mn1 1_555 1_555
C1 N1 1_555 1_555
H3 C1 1_555 1_555
C2 C1 1_555 1_555
H4 C2 1_555 1_555
C3 C2 1_555 1_555
H5 C3 1_555 1_555
C4 C3 1_555 1_555
C5 N1 1_555 1_555
C6 C4 1_555 1_555
H6 C6 1_555 1_555
C7 C6 1_555 1_555
H7 C7 1_555 1_555
C8 C7 1_555 1_555
C9 N2 1_555 1_555
C10 N2 1_555 1_555
H8 C10 1_555 1_555
C11 C10 1_555 1_555
H9 C11 1_555 1_555
C12 C8 1_555 1_555
H10 C12 1_555 1_555
C13 P1 1_555 1_555
H11 C13 1_555 1_555
H12 C13 1_555 1_555
C14 C13 1_555 1_555
C15 C14 1_555 1_555
H13 C15 1_555 1_555
C16 C15 1_555 1_555
H14 C16 1_555 1_555
C17 C16 1_555 1_555
H15 C17 1_555 1_555
C18 C17 1_555 1_555
C19 C14 1_555 1_555
H16 C19 1_555 1_555
C20 P2 1_555 1_555
H17 C20 1_555 1_555
H18 C20 1_555 1_555
Mn1B O4 1_555 1_555
O1B Mn1 1_555 1_555
O2_2 Mn1 1_555 1_555
O4B Mn1 1_555 1_555
C4 C5 1_555 1_555
C5 C9 1_555 1_555
C8 C9 1_555 1_555
C11 C12 1_555 1_555
C18 C19 1_555 1_555
C18 C20 1_555 1_555

#END
