
#######################################################################
#
#                 Cambridge Crystallographic Data Centre
#                                CCDC 
#
#######################################################################
#
# If this CIF has been generated from an entry in the Cambridge 
# Structural Database, then it will include bibliographic, chemical, 
# crystal, experimental, refinement or atomic coordinate data resulting 
# from the CCDC's data processing and validation procedures.
#
#######################################################################

data_BIFXIZ
_symmetry_cell_setting           monoclinic
_symmetry_space_group_name_H-M   'P 21/c'
_symmetry_Int_Tables_number      14
_space_group_name_Hall           '-P 2ybc'
loop_
_symmetry_equiv_pos_site_id
_symmetry_equiv_pos_as_xyz
1 x,y,z
2 -x,1/2+y,1/2-z
3 -x,-y,-z
4 x,1/2-y,1/2+z
_cell_length_a                   10.8283(8)
_cell_length_b                   23.3785(18)
_cell_length_c                   7.5532(6)
_cell_angle_alpha                90
_cell_angle_beta                 94.518(2)
_cell_angle_gamma                90
_cell_volume                     1906.15
loop_
_atom_site_label
_atom_site_type_symbol
_atom_site_fract_x
_atom_site_fract_y
_atom_site_fract_z
Co1 Co 0.45118(4) 0.571888(17) 0.23772(5)
P1 P 0.32261(7) 0.52249(3) -0.13946(10)
P2 P -0.36600(7) 0.55690(3) -0.35503(10)
O1 O 0.39676(19) 0.46719(9) -0.1226(3)
O2 O -0.34341(19) 0.49597(9) -0.2999(3)
O3 O 0.36248(19) 0.57042(9) -0.0154(3)
O4 O 0.31356(19) 0.54390(10) -0.3378(3)
H1 H 0.3849 0.5511 -0.3681
O5 O -0.38616(19) 0.59397(9) -0.1836(3)
H2 H -0.3920 0.5722 -0.0962
O6 O -0.47265(19) 0.56937(9) -0.4905(3)
N1 N 0.3105(2) 0.63020(11) 0.3236(3)
N2 N 0.5326(2) 0.65517(11) 0.2070(3)
C1 C 0.2027(3) 0.61664(14) 0.3851(4)
H3 H 0.1834 0.5774 0.4005
C2 C 0.1160(3) 0.65819(14) 0.4281(4)
H4 H 0.0400 0.6471 0.4726
C3 C 0.1426(3) 0.71480(15) 0.4049(4)
H5 H 0.0842 0.7433 0.4310
C4 C 0.2571(3) 0.73090(14) 0.3420(4)
C5 C 0.2946(3) 0.78950(14) 0.3213(4)
H6 H 0.2404 0.8196 0.3486
C6 C 0.4066(3) 0.80183(13) 0.2633(4)
H7 H 0.4301 0.8407 0.2506
C7 C 0.4903(3) 0.75740(14) 0.2206(4)
C8 C 0.4572(3) 0.69931(14) 0.2411(4)
C9 C 0.3385(3) 0.68637(13) 0.3030(4)
C10 C 0.6083(3) 0.76845(14) 0.1622(4)
H8 H 0.6345 0.8067 0.1446
C11 C 0.6853(3) 0.72344(15) 0.1309(4)
H9 H 0.7658 0.7303 0.0936
C12 C 0.6440(3) 0.66748(14) 0.1544(4)
H10 H 0.6980 0.6368 0.1317
C13 C 0.1637(3) 0.50268(14) -0.1147(4)
H11 H 0.1409 0.4716 -0.2002
H12 H 0.1588 0.4869 0.0061
C14 C 0.0681(3) 0.54985(13) -0.1421(4)
C15 C 0.0729(3) 0.59614(14) -0.0272(4)
H13 H 0.1380 0.5988 0.0643
C16 C -0.0170(3) 0.63886(14) -0.0447(4)
H14 H -0.0133 0.6702 0.0355
C17 C -0.1120(3) 0.63574(13) -0.1790(4)
H15 H -0.1728 0.6651 -0.1908
C18 C -0.1184(3) 0.58947(14) -0.2970(4)
C19 C -0.0278(3) 0.54713(13) -0.2761(4)
H16 H -0.0316 0.5155 -0.3555
C20 C -0.2256(3) 0.58526(13) -0.4368(4)
H17 H -0.2011 0.5605 -0.5344
H18 H -0.2433 0.6238 -0.4868
Co1_2 Co -0.54882(4) 0.571888(17) -0.76228(5)
Co1B Co -0.45118(4) 0.428112(17) -0.23772(5)
Co1B_2 Co 0.54882(4) 0.428112(17) -0.23772(5)
O1B O 0.60324(19) 0.53281(9) 0.1226(3)
O2B O 0.34341(19) 0.50403(9) 0.2999(3)
O6_2 O 0.52735(19) 0.56937(9) 0.5095(3)
loop_
_geom_bond_atom_site_label_1
_geom_bond_atom_site_label_2
_geom_bond_site_symmetry_1
_geom_bond_site_symmetry_2
Co1 O3 1_555 1_555
P1 O1 1_555 1_555
P2 O2 1_555 1_555
O1 Co1B_2 1_555 1_555
O2 Co1B 1_555 1_555
O3 P1 1_555 1_555
O4 P1 1_555 1_555
H1 O4 1_555 1_555
O5 P2 1_555 1_555
H2 O5 1_555 1_555
O6 P2 1_555 1_555
N1 Co1 1_555 1_555
N2 Co1 1_555 1_555
C1 N1 1_555 1_555
H3 C1 1_555 1_555
C2 C1 1_555 1_555
H4 C2 1_555 1_555
C3 C2 1_555 1_555
H5 C3 1_555 1_555
C4 C3 1_555 1_555
C5 C4 1_555 1_555
H6 C5 1_555 1_555
C6 C5 1_555 1_555
H7 C6 1_555 1_555
C7 C6 1_555 1_555
C8 N2 1_555 1_555
C9 N1 1_555 1_555
C10 C7 1_555 1_555
H8 C10 1_555 1_555
C11 C10 1_555 1_555
H9 C11 1_555 1_555
C12 N2 1_555 1_555
H10 C12 1_555 1_555
C13 P1 1_555 1_555
H11 C13 1_555 1_555
H12 C13 1_555 1_555
C14 C13 1_555 1_555
C15 C14 1_555 1_555
H13 C15 1_555 1_555
C16 C15 1_555 1_555
H14 C16 1_555 1_555
C17 C16 1_555 1_555
H15 C17 1_555 1_555
C18 C17 1_555 1_555
C19 C14 1_555 1_555
H16 C19 1_555 1_555
C20 P2 1_555 1_555
H17 C20 1_555 1_555
H18 C20 1_555 1_555
Co1_2 O6 1_555 1_555
O1B Co1 1_555 1_555
O2B Co1 1_555 1_555
O6_2 Co1 1_555 1_555
C4 C9 1_555 1_555
C7 C8 1_555 1_555
C8 C9 1_555 1_555
C11 C12 1_555 1_555
C18 C19 1_555 1_555
C18 C20 1_555 1_555

#END
