
#######################################################################
#
#                 Cambridge Crystallographic Data Centre
#                                CCDC 
#
#######################################################################
#
# If this CIF has been generated from an entry in the Cambridge 
# Structural Database, then it will include bibliographic, chemical, 
# crystal, experimental, refinement or atomic coordinate data resulting 
# from the CCDC's data processing and validation procedures.
#
#######################################################################

data_BIFYUM
_symmetry_cell_setting           triclinic
_symmetry_space_group_name_H-M   'P -1'
_symmetry_Int_Tables_number      2
_space_group_name_Hall           '-P 1'
loop_
_symmetry_equiv_pos_site_id
_symmetry_equiv_pos_as_xyz
1 x,y,z
2 -x,-y,-z
_cell_length_a                   10.0453(9)
_cell_length_b                   10.7094(10)
_cell_length_c                   15.4596(14)
_cell_angle_alpha                72.1320(10)
_cell_angle_beta                 72.7960(10)
_cell_angle_gamma                76.9610(10)
_cell_volume                     1495.36
loop_
_atom_site_label
_atom_site_type_symbol
_atom_site_fract_x
_atom_site_fract_y
_atom_site_fract_z
Ni1 Ni 0.44391(3) 0.19650(3) 0.369917(19)
P1 P -0.12948(6) -0.37197(6) 0.58727(4)
P2 P 0.27475(6) 0.02516(6) 0.58187(4)
O1 O 0.38421(15) -0.05017(14) 0.63430(10)
O2 O 0.32172(15) 0.08357(14) 0.47767(10)
O3 O -0.27773(15) -0.35244(14) 0.64533(10)
O4 O -0.11221(15) -0.35676(14) 0.48379(10)
O5 O -0.05876(16) -0.51517(14) 0.63228(10)
H1 H -0.0060 -0.5481 0.5907
O6 O 0.18916(16) 0.13711(15) 0.63245(10)
H2 H 0.1641 0.2031 0.5936
N1 N 0.40451(18) 0.13756(17) 0.26340(13)
N2 N 0.55627(18) 0.30956(17) 0.25350(12)
N3 N 0.53236(18) 0.30343(17) 0.42575(12)
N4 N 0.6084(2) 0.69656(18) 0.23261(13)
N5 N 0.69471(19) 0.47023(18) 0.09668(13)
N6 N 0.7622(2) 0.20734(18) -0.00211(13)
C1 C 0.3132(2) 0.0563(2) 0.27620(16)
H3 H 0.2689 0.0149 0.3371
C2 C 0.2820(2) 0.0313(2) 0.20227(16)
H4 H 0.2183 -0.0260 0.2132
C3 C 0.3471(2) 0.0931(2) 0.11190(17)
H5 H 0.3272 0.0785 0.0611
C4 C 0.4425(2) 0.1773(2) 0.09774(16)
H6 H 0.4870 0.2201 0.0373
C5 C 0.4710(2) 0.1970(2) 0.17514(15)
C6 C 0.5644(2) 0.2902(2) 0.17049(16)
C7 C 0.6151(2) 0.4034(2) 0.26243(16)
C8 C 0.6713(2) 0.4969(2) 0.17945(15)
C9 C 0.6519(2) 0.3635(2) 0.09131(15)
C10 C 0.7002(2) 0.3331(2) -0.00186(16)
C11 C 0.6815(2) 0.4305(2) -0.08183(16)
H7 H 0.6400 0.5162 -0.0782
C12 C 0.7252(3) 0.3991(2) -0.16745(16)
H8 H 0.7106 0.4619 -0.2220
C13 C 0.7910(3) 0.2716(2) -0.16930(17)
H9 H 0.8238 0.2473 -0.2256
C14 C 0.8075(3) 0.1806(2) -0.08612(17)
H10 H 0.8528 0.0954 -0.0887
C15 C 0.7014(2) 0.6289(2) 0.17400(15)
C16 C 0.8170(2) 0.6808(2) 0.10788(16)
H11 H 0.8804 0.6309 0.0693
C17 C 0.8354(3) 0.8083(2) 0.10083(17)
H12 H 0.9109 0.8458 0.0567
C18 C 0.7409(3) 0.8786(2) 0.15988(17)
H13 H 0.7509 0.9643 0.1564
C19 C 0.6307(3) 0.8187(2) 0.22452(17)
H14 H 0.5680 0.8663 0.2650
C20 C 0.6141(2) 0.3917(2) 0.36108(15)
C21 C 0.6958(2) 0.4556(2) 0.38731(16)
H15 H 0.7533 0.5137 0.3422
C22 C 0.6906(2) 0.4321(2) 0.48141(16)
H16 H 0.7443 0.4747 0.5001
C23 C 0.6051(2) 0.3449(2) 0.54735(16)
H17 H 0.5990 0.3287 0.6109
C24 C 0.5283(2) 0.2819(2) 0.51627(15)
H18 H 0.4717 0.2222 0.5604
C25 C 0.1483(2) -0.0787(2) 0.59153(15)
H19 H 0.0730 -0.0206 0.5651
H20 H 0.1950 -0.1367 0.5506
C26 C 0.0790(2) -0.1653(2) 0.68453(15)
C27 C 0.0963(2) -0.1600(2) 0.76961(15)
H21 H 0.1511 -0.1008 0.7699
C28 C 0.0330(2) -0.2417(2) 0.85391(16)
H22 H 0.0439 -0.2361 0.9102
C29 C -0.0466(2) -0.3317(2) 0.85352(16)
H23 H -0.0879 -0.3880 0.9095
C30 C -0.0644(2) -0.3372(2) 0.76950(16)
H24 H -0.1178 -0.3979 0.7699
C31 C -0.0049(2) -0.2546(2) 0.68478(15)
C32 C -0.0291(2) -0.2556(2) 0.59266(15)
H25 H 0.0630 -0.2684 0.5504
H26 H -0.0743 -0.1674 0.5667
Ni1A Ni -0.44391(3) -0.19650(3) 0.630083(19)
Ni1A_2 Ni 0.55609(3) -0.19650(3) 0.630083(19)
O1A O 0.61579(15) 0.05017(14) 0.36570(10)
O3A O 0.27773(15) 0.35244(14) 0.35467(10)
loop_
_geom_bond_atom_site_label_1
_geom_bond_atom_site_label_2
_geom_bond_site_symmetry_1
_geom_bond_site_symmetry_2
Ni1 O2 1_555 1_555
P1 O3 1_555 1_555
P2 O1 1_555 1_555
O1 Ni1A_2 1_555 1_555
O2 P2 1_555 1_555
O3 Ni1A 1_555 1_555
O4 P1 1_555 1_555
O5 P1 1_555 1_555
H1 O5 1_555 1_555
O6 P2 1_555 1_555
H2 O6 1_555 1_555
N1 Ni1 1_555 1_555
N2 Ni1 1_555 1_555
N3 Ni1 1_555 1_555
N4 C15 1_555 1_555
N5 C8 1_555 1_555
N6 C10 1_555 1_555
C1 N1 1_555 1_555
H3 C1 1_555 1_555
C2 C1 1_555 1_555
H4 C2 1_555 1_555
C3 C2 1_555 1_555
H5 C3 1_555 1_555
C4 C3 1_555 1_555
H6 C4 1_555 1_555
C5 N1 1_555 1_555
C6 N2 1_555 1_555
C7 N2 1_555 1_555
C8 C7 1_555 1_555
C9 N5 1_555 1_555
C10 C9 1_555 1_555
C11 C10 1_555 1_555
H7 C11 1_555 1_555
C12 C11 1_555 1_555
H8 C12 1_555 1_555
C13 C12 1_555 1_555
H9 C13 1_555 1_555
C14 N6 1_555 1_555
H10 C14 1_555 1_555
C15 C8 1_555 1_555
C16 C15 1_555 1_555
H11 C16 1_555 1_555
C17 C16 1_555 1_555
H12 C17 1_555 1_555
C18 C17 1_555 1_555
H13 C18 1_555 1_555
C19 N4 1_555 1_555
H14 C19 1_555 1_555
C20 N3 1_555 1_555
C21 C20 1_555 1_555
H15 C21 1_555 1_555
C22 C21 1_555 1_555
H16 C22 1_555 1_555
C23 C22 1_555 1_555
H17 C23 1_555 1_555
C24 N3 1_555 1_555
H18 C24 1_555 1_555
C25 P2 1_555 1_555
H19 C25 1_555 1_555
H20 C25 1_555 1_555
C26 C25 1_555 1_555
C27 C26 1_555 1_555
H21 C27 1_555 1_555
C28 C27 1_555 1_555
H22 C28 1_555 1_555
C29 C28 1_555 1_555
H23 C29 1_555 1_555
C30 C29 1_555 1_555
H24 C30 1_555 1_555
C31 C26 1_555 1_555
C32 P1 1_555 1_555
H25 C32 1_555 1_555
H26 C32 1_555 1_555
O1A Ni1 1_555 1_555
O3A Ni1 1_555 1_555
C4 C5 1_555 1_555
C5 C6 1_555 1_555
C6 C9 1_555 1_555
C7 C20 1_555 1_555
C13 C14 1_555 1_555
C18 C19 1_555 1_555
C23 C24 1_555 1_555
C30 C31 1_555 1_555
C31 C32 1_555 1_555

#END
