
#######################################################################
#
#                 Cambridge Crystallographic Data Centre
#                                CCDC 
#
#######################################################################
#
# If this CIF has been generated from an entry in the Cambridge 
# Structural Database, then it will include bibliographic, chemical, 
# crystal, experimental, refinement or atomic coordinate data resulting 
# from the CCDC's data processing and validation procedures.
#
#######################################################################

data_BIGDEB
_symmetry_cell_setting           orthorhombic
_symmetry_space_group_name_H-M   'C m c m'
_symmetry_Int_Tables_number      63
_space_group_name_Hall           '-C 2n 2'
loop_
_symmetry_equiv_pos_site_id
_symmetry_equiv_pos_as_xyz
1 x,y,z
2 1/2+x,1/2+y,z
3 x,y,1/2-z
4 -x,y,z
5 x,-y,1/2+z
6 1/2+x,1/2+y,1/2-z
7 1/2-x,1/2+y,z
8 1/2+x,1/2-y,1/2+z
9 -x,-y,-z
10 1/2-x,1/2-y,-z
11 -x,-y,1/2+z
12 x,-y,-z
13 -x,y,1/2-z
14 1/2-x,1/2-y,1/2+z
15 1/2+x,1/2-y,-z
16 1/2-x,1/2+y,1/2-z
_cell_length_a                   10.931(7)
_cell_length_b                   5.565(3)
_cell_length_c                   16.112(10)
_cell_angle_alpha                90
_cell_angle_beta                 90
_cell_angle_gamma                90
_cell_volume                     980.109
loop_
_atom_site_label
_atom_site_type_symbol
_atom_site_fract_x
_atom_site_fract_y
_atom_site_fract_z
Cd1 Cd 0.0000 0.70354(6) 0.2500
O1 O 0.0998(2) 0.4559(4) 0.14996(12)
N1 N 0.1573(3) 0.9647(6) 0.2500
H1 H 0.205(3) 0.944(5) 0.294(2)
H2 H 0.139(5) 1.086(10) 0.2500
C1 C 0.0000 0.3798(7) 0.1228(2)
C2 C 0.0000 0.1826(6) 0.0587(2)
C3 C -0.1094(2) 0.0910(5) 0.02961(15)
H3 H -0.1839 0.1516 0.0499
O1C O -0.0998(2) 0.4559(4) 0.14996(12)
C3K C -0.1094(2) -0.0910(5) -0.02961(15)
C2K C 0.0000 -0.1826(6) -0.0587(2)
C1K C 0.0000 -0.3798(7) -0.1228(2)
O1K O 0.0998(2) -0.4559(4) -0.14996(12)
O1H O -0.0998(2) -0.4559(4) -0.14996(12)
C3H C 0.1094(2) -0.0910(5) -0.02961(15)
C3C C 0.1094(2) 0.0910(5) 0.02961(15)
H3C H 0.1839 0.1516 0.0499
H3H H 0.1839 -0.1516 -0.0499
H3K H -0.1839 -0.1516 -0.0499
H1B H 0.205(3) 0.944(5) 0.206(2)
N1C N -0.1573(3) 0.9647(6) 0.2500
H1C H -0.205(3) 0.944(5) 0.294(2)
H2C H -0.139(5) 1.086(10) 0.2500
H1L H -0.205(3) 0.944(5) 0.206(2)
O1B O 0.0998(2) 0.4559(4) 0.35004(12)
O1L O -0.0998(2) 0.4559(4) 0.35004(12)
Cd1D Cd 0.0000 -0.70354(6) -0.2500
loop_
_geom_bond_atom_site_label_1
_geom_bond_atom_site_label_2
_geom_bond_site_symmetry_1
_geom_bond_site_symmetry_2
Cd1 O1 1_555 1_555
O1 C1 1_555 1_555
N1 Cd1 1_555 1_555
H1 N1 1_555 1_555
H2 N1 1_555 1_555
C1 C2 1_555 1_555
C2 C3 1_555 1_555
C3 H3 1_555 1_555
O1C Cd1 1_555 1_555
C3K C3 1_555 1_555
C2K C3K 1_555 1_555
C1K C2K 1_555 1_555
O1K C1K 1_555 1_555
O1H C1K 1_555 1_555
C3H C2K 1_555 1_555
C3C C2 1_555 1_555
H3C C3C 1_555 1_555
H3H C3H 1_555 1_555
H3K C3K 1_555 1_555
H1B N1 1_555 1_555
N1C Cd1 1_555 1_555
H1C N1C 1_555 1_555
H2C N1C 1_555 1_555
H1L N1C 1_555 1_555
O1B Cd1 1_555 1_555
O1L Cd1 1_555 1_555
Cd1D O1K 1_555 1_555
C1 O1C 1_555 1_555
O1H Cd1D 1_555 1_555
C3H C3C 1_555 1_555

#END
