
#######################################################################
#
#                 Cambridge Crystallographic Data Centre
#                                CCDC 
#
#######################################################################
#
# If this CIF has been generated from an entry in the Cambridge 
# Structural Database, then it will include bibliographic, chemical, 
# crystal, experimental, refinement or atomic coordinate data resulting 
# from the CCDC's data processing and validation procedures.
#
#######################################################################

data_BIGDIF
_symmetry_cell_setting           triclinic
_symmetry_space_group_name_H-M   'P -1'
_symmetry_Int_Tables_number      2
_space_group_name_Hall           '-P 1'
loop_
_symmetry_equiv_pos_site_id
_symmetry_equiv_pos_as_xyz
1 x,y,z
2 -x,-y,-z
_cell_length_a                   4.090(3)
_cell_length_b                   6.037(4)
_cell_length_c                   9.822(7)
_cell_angle_alpha                93.567(11)
_cell_angle_beta                 99.188(11)
_cell_angle_gamma                100.163(11)
_cell_volume                     234.628
loop_
_atom_site_label
_atom_site_type_symbol
_atom_site_fract_x
_atom_site_fract_y
_atom_site_fract_z
Cu1 Cu 0.5000 0.5000 0.0000
O1 O 0.7350(4) 0.6029(3) 0.18943(16)
O2 O 0.4863(4) 0.8959(3) 0.14901(16)
N1 N 0.1675(5) 0.2890(4) 0.0805(2)
H1 H 0.273(7) 0.179(5) 0.111(3)
H2 H 0.009(8) 0.230(5) 0.028(3)
H3 H 0.100(7) 0.359(5) 0.133(3)
C1 C 0.6755(5) 0.7979(4) 0.2254(2)
C2 C 0.8462(5) 0.9042(3) 0.3667(2)
C3 C 1.0415(6) 0.7865(4) 0.4551(2)
H4 H 1.0708 0.6418 0.4245
C4 C 0.8079(6) 1.1198(4) 0.4130(2)
H5 H 0.6792 1.2016 0.3542
C4A C 1.1921(6) 0.8802(4) 0.5870(2)
C2A C 1.1538(5) 1.0958(3) 0.6333(2)
C1A C 1.3245(5) 1.2021(4) 0.7746(2)
O1A O 1.2650(4) 1.3971(3) 0.81057(16)
O2A O 1.5137(4) 1.1041(3) 0.85099(16)
C3A C 0.9585(6) 1.2135(4) 0.5449(2)
H4A H 0.9292 1.3582 0.5755
H5A H 1.3208 0.7984 0.6458
N1A N 0.8325(5) 0.7110(4) -0.0805(2)
H1A H 0.727(7) 0.821(5) -0.111(3)
H2A H 0.991(8) 0.770(5) -0.028(3)
H3A H 0.900(7) 0.641(5) -0.133(3)
O1A_2 O 0.2650(4) 0.3971(3) -0.18943(16)
O2A_2 O 0.5137(4) 0.1041(3) -0.14901(16)
Cu1_2 Cu 1.5000 1.5000 1.0000
loop_
_geom_bond_atom_site_label_1
_geom_bond_atom_site_label_2
_geom_bond_site_symmetry_1
_geom_bond_site_symmetry_2
Cu1 O1 1_555 1_555
O1 C1 1_555 1_555
O2 Cu1 1_555 1_555
N1 Cu1 1_555 1_555
H1 N1 1_555 1_555
H2 N1 1_555 1_555
H3 N1 1_555 1_555
C1 O2 1_555 1_555
C2 C1 1_555 1_555
C3 C2 1_555 1_555
H4 C3 1_555 1_555
C4 C2 1_555 1_555
H5 C4 1_555 1_555
C4A C3 1_555 1_555
C2A C4A 1_555 1_555
C1A C2A 1_555 1_555
O1A C1A 1_555 1_555
O2A C1A 1_555 1_555
C3A C4 1_555 1_555
H4A C3A 1_555 1_555
H5A C4A 1_555 1_555
N1A Cu1 1_555 1_555
H1A N1A 1_555 1_555
H2A N1A 1_555 1_555
H3A N1A 1_555 1_555
O1A_2 Cu1 1_555 1_555
O2A_2 Cu1 1_555 1_555
Cu1_2 O1A 1_555 1_555
C2A C3A 1_555 1_555
O2A Cu1_2 1_555 1_555

#END
