
#######################################################################
#
#                 Cambridge Crystallographic Data Centre
#                                CCDC 
#
#######################################################################
#
# If this CIF has been generated from an entry in the Cambridge 
# Structural Database, then it will include bibliographic, chemical, 
# crystal, experimental, refinement or atomic coordinate data resulting 
# from the CCDC's data processing and validation procedures.
#
#######################################################################

data_BIGWIY
_symmetry_cell_setting           triclinic
_symmetry_space_group_name_H-M   'P -1'
_symmetry_Int_Tables_number      2
_space_group_name_Hall           '-P 1'
loop_
_symmetry_equiv_pos_site_id
_symmetry_equiv_pos_as_xyz
1 x,y,z
2 -x,-y,-z
_cell_length_a                   8.116(2)
_cell_length_b                   10.432(3)
_cell_length_c                   13.291(5)
_cell_angle_alpha                72.201(12)
_cell_angle_beta                 79.818(12)
_cell_angle_gamma                74.23(2)
_cell_volume                     1025.7
loop_
_atom_site_label
_atom_site_type_symbol
_atom_site_fract_x
_atom_site_fract_y
_atom_site_fract_z
Mn1 Mn 0.63341(5) 0.83911(4) 0.48978(3)
Cr1 Cr 0.75231(5) 0.30919(4) 0.73711(4)
O1 O 0.7969(4) 0.8567(3) 0.6019(2)
N1 N 0.6633(3) 0.6221(3) 0.5894(2)
N2 N 0.9778(4) 0.4160(3) 0.8550(3)
N3 N 0.8830(3) 0.7909(3) 0.3902(2)
N4 N 0.4759(4) 0.7958(3) 0.3850(2)
N5 N 0.5482(3) 0.3542(3) 0.8496(2)
N6 N 0.7901(3) 0.1211(2) 0.8538(2)
N7 N 0.4044(3) 0.9320(3) 0.5881(2)
N8 N 0.3294(3) 0.8733(3) 0.6664(2)
N9 N 0.2579(4) 0.8166(3) 0.7415(3)
C1 C 0.6965(4) 0.5081(3) 0.6382(2)
C2 C 0.8970(4) 0.3775(3) 0.8137(3)
C3 C 1.0172(4) 0.7540(3) 0.3511(2)
C4 C 0.3936(4) 0.7596(3) 0.3424(2)
C5 C 0.4283(4) 0.4704(3) 0.8460(3)
H2 H 0.4234 0.5417 0.7833
C6 C 0.3088(5) 0.4897(4) 0.9329(4)
H3 H 0.2257 0.5723 0.9275
C7 C 0.3149(5) 0.3878(5) 1.0249(3)
H4 H 0.2358 0.4004 1.0829
C8 C 0.4396(4) 0.2634(4) 1.0335(3)
C9 C 0.5532(4) 0.2521(3) 0.9423(2)
C10 C 0.6817(4) 0.1261(3) 0.9444(2)
C11 C 0.9079(4) 0.0042(3) 0.8536(3)
H5 H 0.9827 -0.0017 0.7927
C12 C 0.9213(5) -0.1101(4) 0.9432(3)
H6 H 1.0040 -0.1909 0.9404
C13 C 0.8170(5) -0.1053(4) 1.0332(3)
H7 H 0.8283 -0.1816 1.0924
C14 C 0.6929(4) 0.0140(4) 1.0367(3)
C15 C 0.5762(5) 0.0303(5) 1.1285(3)
H8 H 0.5833 -0.0421 1.1904
C16 C 0.4559(5) 0.1493(5) 1.1268(3)
H9 H 0.3820 0.1571 1.1877
C17 C 0.9060(14) 0.9496(12) 0.5717(9)
H10 H 0.9867 0.9307 0.5128
H11 H 0.9674 0.9385 0.6304
H12 H 0.8384 1.0428 0.5512
H16 H 0.8929 0.7705 0.6450
N7A N 0.5956(3) 1.0680(3) 0.4119(2)
C3A C 0.9828(4) 0.2460(3) 0.6489(2)
C4A C 0.6064(4) 0.2404(3) 0.6576(2)
Mn1A Mn 0.36659(5) 1.16089(4) 0.51022(3)
Cr1A Cr 1.24769(5) 0.69081(4) 0.26289(4)
Cr1A_2 Cr 0.24769(5) 0.69081(4) 0.26289(4)
O2 O 1.0609(6) 0.6443(6) 0.6758(5)
H1 H 1.1008 0.7042 0.6842
C18 C 1.1816(9) 0.5718(7) 0.6059(5)
H13 H 1.2480 0.6330 0.5579
H14 H 1.1196 0.5411 0.5661
H15 H 1.2572 0.4933 0.6474
loop_
_geom_bond_atom_site_label_1
_geom_bond_atom_site_label_2
_geom_bond_site_symmetry_1
_geom_bond_site_symmetry_2
Mn1 O1 1_555 1_555
Cr1 N5 1_555 1_555
O1 C17 1_555 1_555
O2 H1 1_555 1_555
N1 Mn1 1_555 1_555
N2 C2 1_555 1_555
N3 Mn1 1_555 1_555
N4 Mn1 1_555 1_555
N5 C5 1_555 1_555
N6 Cr1 1_555 1_555
N7 Mn1 1_555 1_555
N8 N7 1_555 1_555
N9 N8 1_555 1_555
C1 Cr1 1_555 1_555
C2 Cr1 1_555 1_555
C3 N3 1_555 1_555
C4 N4 1_555 1_555
C5 H2 1_555 1_555
C6 C5 1_555 1_555
H3 C6 1_555 1_555
C7 C6 1_555 1_555
H4 C7 1_555 1_555
C8 C7 1_555 1_555
C9 N5 1_555 1_555
C10 N6 1_555 1_555
C11 N6 1_555 1_555
H5 C11 1_555 1_555
C12 C11 1_555 1_555
H6 C12 1_555 1_555
C13 C12 1_555 1_555
H7 C13 1_555 1_555
C14 C10 1_555 1_555
C15 C14 1_555 1_555
H8 C15 1_555 1_555
C16 C8 1_555 1_555
H9 C16 1_555 1_555
C17 H10 1_555 1_555
H11 C17 1_555 1_555
H12 C17 1_555 1_555
C18 O2 1_555 1_555
H13 C18 1_555 1_555
H14 C18 1_555 1_555
H15 C18 1_555 1_555
H16 O1 1_555 1_555
N7A Mn1 1_555 1_555
C3A Cr1 1_555 1_555
C4A Cr1 1_555 1_555
Mn1A N7 1_555 1_555
Cr1A C3 1_555 1_555
Cr1A_2 C4 1_555 1_555
N1 C1 1_555 1_555
C8 C9 1_555 1_555
C9 C10 1_555 1_555
C13 C14 1_555 1_555
C15 C16 1_555 1_555
N7A Mn1A 1_555 1_555

#END
