
#######################################################################
#
#                 Cambridge Crystallographic Data Centre
#                                CCDC 
#
#######################################################################
#
# If this CIF has been generated from an entry in the Cambridge 
# Structural Database, then it will include bibliographic, chemical, 
# crystal, experimental, refinement or atomic coordinate data resulting 
# from the CCDC's data processing and validation procedures.
#
#######################################################################

data_BIGYAR
_symmetry_cell_setting           triclinic
_symmetry_space_group_name_H-M   'P -1'
_symmetry_Int_Tables_number      2
_space_group_name_Hall           '-P 1'
loop_
_symmetry_equiv_pos_site_id
_symmetry_equiv_pos_as_xyz
1 x,y,z
2 -x,-y,-z
_cell_length_a                   14.140(11)
_cell_length_b                   10.025(3)
_cell_length_c                   12.173(3)
_cell_angle_alpha                95.59(2)
_cell_angle_beta                 102.06(5)
_cell_angle_gamma                85.50(5)
_cell_volume                     1676.46
loop_
_atom_site_label
_atom_site_type_symbol
_atom_site_fract_x
_atom_site_fract_y
_atom_site_fract_z
Cd1 Cd 0.34930 0.16900 0.15840
Cd2 Cd 0.36820 -0.52670 0.02300
Cl1 Cl 0.31920 0.42120 0.21040
Cl2 Cl 0.45600 -0.48590 -0.13720
Cl3 Cl 0.21170 0.06300 0.19500
Cl4 Cl 0.34000 0.21270 -0.04260
S1 S 0.19120 -0.48620 -0.08870
O1 O 0.30860 -0.28210 0.06770
C1 C 0.31270 -0.18520 -0.01610
C2 C 0.21360 -0.28930 0.08760
C3 C 0.14630 -0.35520 -0.01540
N1 N 0.05550 -0.30690 -0.04200
C4 C 0.01470 -0.18400 0.01650
C5 C -0.02220 -0.21440 0.11600
C6 C -0.06590 -0.09180 0.17180
C7 C -0.10730 -0.10900 0.26360
C8 C -0.01300 -0.36950 -0.13620
C9 C -0.00920 -0.30860 -0.24540
C10 C -0.07610 -0.38180 -0.34790
C11 C -0.06680 -0.31090 -0.45010
S2 S 0.50810 0.14040 0.29800
O2 O 0.43430 -0.05210 0.11090
C12 C 0.41190 -0.13710 0.00710
C13 C 0.47380 -0.12100 0.20750
C14 C 0.52710 -0.02880 0.29860
N2 N 0.58940 -0.08030 0.38070
C15 C 0.64060 0.00370 0.48140
C16 C 0.72730 0.05030 0.45400
C17 C 0.79360 0.12880 0.54650
C18 C 0.74110 0.24680 0.59040
H1 H 0.29600 -0.23400 -0.10000
H2 H 0.26100 -0.10100 -0.00800
H3 H 0.21800 -0.34800 0.15900
H4 H 0.18400 -0.18900 0.10700
H5 H -0.04400 -0.13900 -0.04200
H6 H 0.07100 -0.11400 0.04400
H7 H -0.07800 -0.28600 0.08900
H8 H 0.03700 -0.25800 0.17600
H9 H -0.12100 -0.04700 0.10900
H10 H -0.00900 -0.02400 0.20100
H11 H -0.13300 -0.01500 0.30200
H12 H -0.04600 -0.15100 0.32000
H13 H -0.16500 -0.17800 0.24600
H14 H 0.00600 -0.47600 -0.14500
H15 H -0.08500 -0.35300 -0.11900
H16 H -0.03400 -0.20400 -0.23900
H17 H 0.06500 -0.31700 -0.25800
H18 H -0.15000 -0.37400 -0.33700
H19 H -0.05200 -0.48600 -0.35700
H20 H -0.11500 -0.36600 -0.51700
H21 H 0.00300 -0.31000 -0.47200
H22 H -0.09700 -0.20900 -0.43900
H23 H 0.41900 -0.08100 -0.06200
H24 H 0.46300 -0.22300 0.01200
H25 H 0.41600 -0.16100 0.23700
H26 H 0.52300 -0.20300 0.18600
H27 H 0.66100 -0.05700 0.55200
H28 H 0.59400 0.08900 0.50200
H29 H 0.76900 -0.03700 0.42800
H30 H 0.70400 0.11300 0.38500
H31 H 0.85200 0.16100 0.51300
H32 H 0.82300 0.06600 0.61500
H33 H 0.78800 0.31800 0.64300
H34 H 0.68600 0.22400 0.63400
H35 H 0.70700 0.29000 0.51300
C19 C 0.59700 -0.22440 0.41890
C20 C 0.68880 -0.29620 0.38910
C21 C 0.69160 -0.44380 0.41600
C22 C 0.77350 -0.52400 0.37590
H36 H 0.60100 -0.22000 0.50900
H37 H 0.53400 -0.27700 0.37600
H38 H 0.75200 -0.24900 0.43900
H39 H 0.68800 -0.29200 0.30100
H40 H 0.70100 -0.44800 0.50600
H41 H 0.62400 -0.48600 0.37500
H42 H 0.77600 -0.62400 0.40300
H43 H 0.84300 -0.48100 0.40700
H44 H 0.75700 -0.52900 0.28500
Cd2_2 Cd 0.36820 0.47330 0.02300
Cl1_2 Cl 0.31920 -0.57880 0.21040
Cl2A Cl 0.54400 -0.51410 0.13720
Cl4_2 Cl 0.34000 -0.78730 -0.04260
Cd2A Cd 0.63180 -0.47330 -0.02300
loop_
_geom_bond_atom_site_label_1
_geom_bond_atom_site_label_2
_geom_bond_site_symmetry_1
_geom_bond_site_symmetry_2
Cd1 Cl1 1_555 1_555
Cd2 Cl2 1_555 1_555
Cl1 Cd2_2 1_555 1_555
Cl2 Cd2A 1_555 1_555
Cl3 Cd1 1_555 1_555
Cl4 Cd1 1_555 1_555
S1 Cd2 1_555 1_555
O1 Cd2 1_555 1_555
C1 O1 1_555 1_555
C2 O1 1_555 1_555
C3 S1 1_555 1_555
N1 C3 1_555 1_555
C4 N1 1_555 1_555
C5 C4 1_555 1_555
C6 C5 1_555 1_555
C7 C6 1_555 1_555
C8 N1 1_555 1_555
C9 C8 1_555 1_555
C10 C9 1_555 1_555
C11 C10 1_555 1_555
S2 Cd1 1_555 1_555
O2 Cd1 1_555 1_555
C12 C1 1_555 1_555
C13 O2 1_555 1_555
C14 S2 1_555 1_555
N2 C14 1_555 1_555
C15 N2 1_555 1_555
C16 C15 1_555 1_555
C17 C16 1_555 1_555
C18 C17 1_555 1_555
H1 C1 1_555 1_555
H2 C1 1_555 1_555
H3 C2 1_555 1_555
H4 C2 1_555 1_555
H5 C4 1_555 1_555
H6 C4 1_555 1_555
H7 C5 1_555 1_555
H8 C5 1_555 1_555
H9 C6 1_555 1_555
H10 C6 1_555 1_555
H11 C7 1_555 1_555
H12 C7 1_555 1_555
H13 C7 1_555 1_555
H14 C8 1_555 1_555
H15 C8 1_555 1_555
H16 C9 1_555 1_555
H17 C9 1_555 1_555
H18 C10 1_555 1_555
H19 C10 1_555 1_555
H20 C11 1_555 1_555
H21 C11 1_555 1_555
H22 C11 1_555 1_555
H23 C12 1_555 1_555
H24 C12 1_555 1_555
H25 C13 1_555 1_555
H26 C13 1_555 1_555
H27 C15 1_555 1_555
H28 C15 1_555 1_555
H29 C16 1_555 1_555
H30 C16 1_555 1_555
H31 C17 1_555 1_555
H32 C17 1_555 1_555
H33 C18 1_555 1_555
H34 C18 1_555 1_555
H35 C18 1_555 1_555
C19 N2 1_555 1_555
C20 C19 1_555 1_555
C21 C20 1_555 1_555
C22 C21 1_555 1_555
H36 C19 1_555 1_555
H37 C19 1_555 1_555
H38 C20 1_555 1_555
H39 C20 1_555 1_555
H40 C21 1_555 1_555
H41 C21 1_555 1_555
H42 C22 1_555 1_555
H43 C22 1_555 1_555
H44 C22 1_555 1_555
Cd2_2 Cl4 1_555 1_555
Cl1_2 Cd2 1_555 1_555
Cl2A Cd2 1_555 1_555
Cl4_2 Cd2 1_555 1_555
Cd2A Cl2A 1_555 1_555
C2 C3 1_555 1_555
O2 C12 1_555 1_555
C13 C14 1_555 1_555

#END
