
#######################################################################
#
#                 Cambridge Crystallographic Data Centre
#                                CCDC 
#
#######################################################################
#
# If this CIF has been generated from an entry in the Cambridge 
# Structural Database, then it will include bibliographic, chemical, 
# crystal, experimental, refinement or atomic coordinate data resulting 
# from the CCDC's data processing and validation procedures.
#
#######################################################################

data_BIHLUA
_symmetry_cell_setting           triclinic
_symmetry_space_group_name_H-M   'P -1'
_symmetry_Int_Tables_number      2
_space_group_name_Hall           '-P 1'
loop_
_symmetry_equiv_pos_site_id
_symmetry_equiv_pos_as_xyz
1 x,y,z
2 -x,-y,-z
_cell_length_a                   8.1774(6)
_cell_length_b                   10.5289(8)
_cell_length_c                   17.4832(13)
_cell_angle_alpha                89.820(2)
_cell_angle_beta                 85.488(2)
_cell_angle_gamma                86.811(2)
_cell_volume                     1498.3
loop_
_atom_site_label
_atom_site_type_symbol
_atom_site_fract_x
_atom_site_fract_y
_atom_site_fract_z
K1 K -0.39831(7) 0.23536(6) 0.03630(3)
K2 K 0.07443(6) 0.32464(5) 0.03210(3)
S1 S -0.11732(7) 0.12750(6) -0.11351(3)
S2 S -0.35366(7) 0.54749(6) 0.09940(3)
O1 O -0.1064(2) 0.25766(16) -0.08638(9)
O2 O -0.2473(2) 0.06468(17) -0.06964(9)
O3 O 0.0403(2) 0.05510(18) -0.11580(10)
O4 O -0.5125(2) 0.08865(18) -0.76798(10)
O5 O -0.5129(2) 0.26804(17) -0.52343(10)
O6 O -0.4955(2) 0.47069(17) 0.09549(9)
O7 O -0.20550(19) 0.48672(16) 0.06047(9)
O8 O -0.3831(2) 0.67809(16) 0.07282(9)
O9 O -0.0172(2) 0.65487(18) 0.76065(9)
O10 O -0.2875(2) 0.46333(16) 0.56353(10)
O11 O 0.1729(3) 0.4936(2) 0.13847(11)
O12 O -0.7000(2) 0.18316(19) 0.10844(12)
O13 O -0.1489(2) 0.2015(2) 0.13078(12)
O14 O -0.3772(3) -0.0576(2) 0.11813(13)
N1 N -0.3375(2) 0.15028(18) -0.42996(11)
N2 N -0.2836(2) 0.06376(18) -0.47785(11)
N3 N -0.2330(2) 0.56230(19) 0.43084(11)
N4 N -0.1389(2) 0.64309(19) 0.45323(11)
C1 C -0.1730(3) 0.1357(2) -0.20897(12)
C2 C -0.1005(3) 0.0507(2) -0.26408(13)
H1 H -0.0158 -0.0090 -0.2510
C3 C -0.1509(3) 0.0526(2) -0.33786(13)
H2 H -0.1018 -0.0059 -0.3753
C4 C -0.2745(3) 0.1411(2) -0.35663(13)
C5 C -0.3456(3) 0.2271(2) -0.30191(13)
H3 H -0.4286 0.2881 -0.3152
C6 C -0.2958(3) 0.2240(2) -0.22811(13)
H4 H -0.3454 0.2821 -0.1906
C7 C -0.3458(3) 0.0749(2) -0.54986(12)
C8 C -0.2911(3) -0.0193(2) -0.60420(13)
H5 H -0.2172 -0.0866 -0.5902
C9 C -0.3424(3) -0.0160(2) -0.67737(13)
H6 H -0.3016 -0.0789 -0.7139
C10 C -0.4553(3) 0.0809(2) -0.69745(13)
C11 C -0.5144(3) 0.1731(2) -0.64458(13)
H7 H -0.5934 0.2370 -0.6584
C12 C -0.4592(3) 0.1730(2) -0.57170(13)
C13 C -0.3187(3) 0.5570(2) 0.19782(12)
C14 C -0.2103(3) 0.6436(2) 0.22170(13)
H8 H -0.1585 0.6990 0.1855
C15 C -0.1782(3) 0.6490(2) 0.29811(13)
H9 H -0.1039 0.7074 0.3147
C16 C -0.2568(3) 0.5671(2) 0.35072(13)
C17 C -0.3641(3) 0.4820(2) 0.32685(13)
H10 H -0.4171 0.4273 0.3631
C18 C -0.3952(3) 0.4756(2) 0.25010(13)
H11 H -0.4683 0.4162 0.2335
C19 C -0.1155(3) 0.6370(2) 0.53215(13)
C20 C -0.0110(3) 0.7254(2) 0.55803(14)
H12 H 0.0377 0.7834 0.5226
C21 C 0.0229(3) 0.7303(2) 0.63428(13)
H13 H 0.0957 0.7897 0.6511
C22 C -0.0520(3) 0.6459(2) 0.68600(13)
C23 C -0.1555(3) 0.5568(2) 0.66225(13)
H14 H -0.2046 0.4999 0.6983
C24 C -0.1876(3) 0.5507(2) 0.58501(13)
H15 H -0.463(4) 0.029(3) -0.7990(18)
H16 H -0.474(4) 0.249(3) -0.4790(18)
H17 H -0.067(4) 0.593(3) 0.7870(19)
H18 H -0.291(5) 0.483(4) 0.505(2)
H19 H 0.260(5) 0.499(4) 0.127(2)
H20 H 0.157(5) 0.562(4) 0.121(2)
H21 H -0.689(4) 0.179(3) 0.1576(19)
H22 H -0.719(5) 0.100(4) 0.091(2)
H23 H -0.114(4) 0.128(3) 0.1300(19)
H24 H -0.133(4) 0.235(3) 0.172(2)
H25 H -0.408(5) -0.134(4) 0.108(2)
H26 H -0.276(5) -0.066(3) 0.1131(19)
K2_2 K -0.92557(6) 0.32464(5) 0.03210(3)
O8A O -0.6169(2) 0.32191(16) -0.07282(9)
K1_2 K 0.60169(7) 0.23536(6) 0.03630(3)
K2A K -0.07443(6) 0.67536(5) -0.03210(3)
O7A O 0.20550(19) 0.51328(16) -0.06047(9)
O8A_2 O 0.3831(2) 0.32191(16) -0.07282(9)
O12_2 O 0.3000(2) 0.18316(19) 0.10844(12)
K1A K -0.60169(7) 0.76464(6) -0.03630(3)
H21_2 H 0.311(4) 0.179(3) 0.1576(19)
H22_2 H 0.281(5) 0.100(4) 0.091(2)
loop_
_geom_bond_atom_site_label_1
_geom_bond_atom_site_label_2
_geom_bond_site_symmetry_1
_geom_bond_site_symmetry_2
K1 O1 1_555 1_555
K2 O1 1_555 1_555
S1 O1 1_555 1_555
S2 O6 1_555 1_555
O2 K1 1_555 1_555
O3 S1 1_555 1_555
O4 C10 1_555 1_555
O5 C12 1_555 1_555
O6 K1 1_555 1_555
O7 K1 1_555 1_555
O8 S2 1_555 1_555
O9 C22 1_555 1_555
O10 C24 1_555 1_555
O11 K2 1_555 1_555
O12 K1 1_555 1_555
O13 K1 1_555 1_555
O14 K1 1_555 1_555
N1 N2 1_555 1_555
N2 C7 1_555 1_555
N3 N4 1_555 1_555
N4 C19 1_555 1_555
C1 S1 1_555 1_555
C2 C1 1_555 1_555
H1 C2 1_555 1_555
C3 C2 1_555 1_555
H2 C3 1_555 1_555
C4 N1 1_555 1_555
C5 C4 1_555 1_555
H3 C5 1_555 1_555
C6 C1 1_555 1_555
H4 C6 1_555 1_555
C7 C8 1_555 1_555
C8 H5 1_555 1_555
C9 C8 1_555 1_555
H6 C9 1_555 1_555
C10 C9 1_555 1_555
C11 C10 1_555 1_555
H7 C11 1_555 1_555
C12 C7 1_555 1_555
C13 S2 1_555 1_555
C14 C13 1_555 1_555
H8 C14 1_555 1_555
C15 C14 1_555 1_555
H9 C15 1_555 1_555
C16 N3 1_555 1_555
C17 C16 1_555 1_555
H10 C17 1_555 1_555
C18 C13 1_555 1_555
H11 C18 1_555 1_555
C19 C20 1_555 1_555
C20 H12 1_555 1_555
C21 C20 1_555 1_555
H13 C21 1_555 1_555
C22 C21 1_555 1_555
C23 C22 1_555 1_555
H14 C23 1_555 1_555
C24 C19 1_555 1_555
H15 O4 1_555 1_555
H16 O5 1_555 1_555
H17 O9 1_555 1_555
H18 O10 1_555 1_555
H19 O11 1_555 1_555
H20 O11 1_555 1_555
H21 O12 1_555 1_555
H22 O12 1_555 1_555
H23 O13 1_555 1_555
H24 O13 1_555 1_555
H25 O14 1_555 1_555
H26 O14 1_555 1_555
K2_2 O12 1_555 1_555
O8A K1 1_555 1_555
K1_2 O8A_2 1_555 1_555
K2A O7 1_555 1_555
O7A K2 1_555 1_555
O8A_2 K2 1_555 1_555
O12_2 K2 1_555 1_555
K1A O8 1_555 1_555
H21_2 O12_2 1_555 1_555
H22_2 O12_2 1_555 1_555
K2 O7 1_555 1_555
K2 O13 1_555 1_555
S1 O2 1_555 1_555
S2 O7 1_555 1_555
O8 K2A 1_555 1_555
C3 C4 1_555 1_555
C5 C6 1_555 1_555
C11 C12 1_555 1_555
C15 C16 1_555 1_555
C17 C18 1_555 1_555
C23 C24 1_555 1_555
K2_2 O8A 1_555 1_555
K1_2 O12_2 1_555 1_555
K2A O7A 1_555 1_555

#END
