
#######################################################################
#
#                 Cambridge Crystallographic Data Centre
#                                CCDC 
#
#######################################################################
#
# If this CIF has been generated from an entry in the Cambridge 
# Structural Database, then it will include bibliographic, chemical, 
# crystal, experimental, refinement or atomic coordinate data resulting 
# from the CCDC's data processing and validation procedures.
#
#######################################################################

data_BIHMIP
_symmetry_cell_setting           monoclinic
_symmetry_space_group_name_H-M   'C 2/c'
_symmetry_Int_Tables_number      15
_space_group_name_Hall           '-C 2yn'
loop_
_symmetry_equiv_pos_site_id
_symmetry_equiv_pos_as_xyz
1 x,y,z
2 1/2+x,1/2+y,z
3 x,-y,1/2+z
4 1/2+x,1/2-y,1/2+z
5 -x,-y,-z
6 1/2-x,1/2-y,-z
7 -x,y,1/2-z
8 1/2-x,1/2+y,1/2-z
_cell_length_a                   35.2556(1)
_cell_length_b                   7.7380(2)
_cell_length_c                   10.6741(4)
_cell_angle_alpha                90
_cell_angle_beta                 99.8830(1)
_cell_angle_gamma                90
_cell_volume                     2868.77
loop_
_atom_site_label
_atom_site_type_symbol
_atom_site_fract_x
_atom_site_fract_y
_atom_site_fract_z
Rb1 Rb 0.989552(14) 0.23144(6) 1.05245(4)
S1 S 0.93809(3) 0.10132(15) 0.70738(11)
O1 O 0.95431(10) 0.2371(5) 0.7948(3)
O2 O 0.95078(10) -0.0707(4) 0.7532(3)
O3 O 1.0000 0.4842(7) 1.2500
O4 O 0.94458(10) 0.1264(5) 0.5770(3)
O5 O 0.93701(11) 0.5291(5) 0.9728(4)
N1 N 0.76819(12) 0.1174(5) 0.6939(4)
N2 N 0.75803(12) 0.1037(5) 0.8011(4)
N3 N 0.59881(13) 0.1174(6) 0.7964(4)
C1 C 0.88755(14) 0.1114(6) 0.7036(4)
C2 C 0.86288(14) 0.0432(6) 0.6001(4)
H1 H 0.8729 -0.0055 0.5309
C3 C 0.82308(14) 0.0466(6) 0.5987(5)
H2 H 0.8058 0.0019 0.5279
C4 C 0.80915(14) 0.1163(6) 0.7019(4)
C5 C 0.83366(14) 0.1874(6) 0.8030(5)
H3 H 0.8236 0.2372 0.8717
C6 C 0.87348(14) 0.1863(6) 0.8046(5)
H4 H 0.8906 0.2361 0.8736
C7 C 0.71772(14) 0.1141(6) 0.7966(5)
C8 C 0.70298(15) 0.0428(6) 0.8988(5)
H5 H 0.7200 -0.0061 0.9683
C9 C 0.66384(15) 0.0430(7) 0.8995(5)
H6 H 0.6541 -0.0097 0.9678
C10 C 0.63849(14) 0.1207(6) 0.7996(5)
C11 C 0.65330(15) 0.1973(6) 0.6997(5)
H7 H 0.6364 0.2534 0.6330
C12 C 0.69253(15) 0.1919(6) 0.6971(5)
H8 H 0.7023 0.2412 0.6276
H9 H 0.9812(17) 0.543(8) 1.271(6)
H10 H 0.595(2) 0.067(9) 0.861(7)
H11 H 0.9358(19) 0.636(10) 1.018(6)
H12 H 0.9279(19) 0.540(9) 0.889(7)
H13 H 0.582(3) 0.221(12) 0.786(9)
H9F H 1.0188(17) 0.543(8) 1.229(6)
S1B S 0.93809(3) -0.10132(15) 1.20738(11)
O1B O 0.95431(10) -0.2371(5) 1.2948(3)
O2B O 0.95078(10) 0.0707(4) 1.2532(3)
O4B O 0.94458(10) -0.1264(5) 1.0770(3)
N1B N 0.76819(12) -0.1174(5) 1.1939(4)
N2B N 0.75803(12) -0.1037(5) 1.3011(4)
N3B N 0.59881(13) -0.1174(6) 1.2964(4)
C1B C 0.88755(14) -0.1114(6) 1.2036(4)
C2B C 0.86288(14) -0.0432(6) 1.1001(4)
H1B H 0.8729 0.0055 1.0309
C3B C 0.82308(14) -0.0466(6) 1.0987(5)
H2B H 0.8058 -0.0019 1.0279
C4B C 0.80915(14) -0.1163(6) 1.2019(4)
C5B C 0.83366(14) -0.1874(6) 1.3030(5)
H3B H 0.8236 -0.2372 1.3717
C6B C 0.87348(14) -0.1863(6) 1.3046(5)
H4B H 0.8906 -0.2361 1.3736
C7B C 0.71772(14) -0.1141(6) 1.2966(5)
C8B C 0.70298(15) -0.0428(6) 1.3988(5)
H5B H 0.7200 0.0061 1.4683
C9B C 0.66384(15) -0.0430(7) 1.3995(5)
H6B H 0.6541 0.0097 1.4678
C10B C 0.63849(14) -0.1207(6) 1.2996(5)
C11B C 0.65330(15) -0.1973(6) 1.1997(5)
H7B H 0.6364 -0.2534 1.1330
C12B C 0.69253(15) -0.1919(6) 1.1971(5)
H8B H 0.7023 -0.2412 1.1276
H10B H 0.595(2) -0.067(9) 1.361(7)
H13B H 0.582(3) -0.221(12) 1.286(9)
O5D O 1.06299(11) 0.4709(5) 1.0272(4)
H11D H 1.0642(19) 0.364(10) 0.982(6)
H12D H 1.0721(19) 0.460(9) 1.111(7)
Rb1B Rb 0.989552(14) -0.23144(6) 1.55245(4)
Rb1D Rb 1.010448(14) -0.23144(6) 0.94755(4)
Rb1D_2 Rb 1.010448(14) 0.76856(6) 0.94755(4)
Rb1F Rb 1.010448(14) 0.23144(6) 1.44755(4)
O2D O 1.04922(10) 0.0707(4) 1.2468(3)
O4F O 1.05542(10) 0.1264(5) 0.9230(3)
Rb1B_2 Rb 0.989552(14) -0.23144(6) 0.55245(4)
Rb1F_2 Rb 1.010448(14) 0.23144(6) 0.44755(4)
Rb1D_3 Rb 1.010448(14) -0.23144(6) 1.94755(4)
Rb1F_3 Rb 1.010448(14) -0.76856(6) 1.44755(4)
O2_2 O 0.95078(10) -0.0707(4) 1.7532(3)
O2F O 1.04922(10) -0.0707(4) 1.7468(3)
O3B O 1.0000 -0.4842(7) 1.7500
O4_2 O 0.94458(10) 0.1264(5) 1.5770(3)
O4D O 1.05542(10) -0.1264(5) 1.4230(3)
O5B O 0.93701(11) -0.5291(5) 1.4728(4)
O5F O 1.06299(11) -0.4709(5) 1.5272(4)
H9B H 0.9812(17) -0.543(8) 1.771(6)
H9D H 1.0188(17) -0.543(8) 1.729(6)
H11B H 0.9358(19) -0.636(10) 1.518(6)
H12B H 0.9279(19) -0.540(9) 1.389(7)
H11F H 1.0642(19) -0.364(10) 1.482(6)
H12F H 1.0721(19) -0.460(9) 1.611(7)
loop_
_geom_bond_atom_site_label_1
_geom_bond_atom_site_label_2
_geom_bond_site_symmetry_1
_geom_bond_site_symmetry_2
Rb1 O1 1_555 1_555
S1 O1 1_555 1_555
O2 S1 1_555 1_555
O3 Rb1 1_555 1_555
O4 S1 1_555 1_555
O5 Rb1 1_555 1_555
N1 N2 1_555 1_555
N2 C7 1_555 1_555
N3 C10 1_555 1_555
C1 S1 1_555 1_555
C2 C1 1_555 1_555
H1 C2 1_555 1_555
C3 C2 1_555 1_555
H2 C3 1_555 1_555
C4 N1 1_555 1_555
C5 C4 1_555 1_555
H3 C5 1_555 1_555
C6 C1 1_555 1_555
H4 C6 1_555 1_555
C7 C8 1_555 1_555
C8 H5 1_555 1_555
C9 C8 1_555 1_555
H6 C9 1_555 1_555
C10 C9 1_555 1_555
C11 C10 1_555 1_555
H7 C11 1_555 1_555
C12 C7 1_555 1_555
H8 C12 1_555 1_555
H9 O3 1_555 1_555
H10 N3 1_555 1_555
H11 O5 1_555 1_555
H12 O5 1_555 1_555
H13 N3 1_555 1_555
H9F O3 1_555 1_555
S1B O1B 1_555 1_555
O1B Rb1B 1_555 1_555
O2B Rb1 1_555 1_555
O4B Rb1 1_555 1_555
N1B N2B 1_555 1_555
N2B C7B 1_555 1_555
N3B C10B 1_555 1_555
C1B S1B 1_555 1_555
C2B C1B 1_555 1_555
H1B C2B 1_555 1_555
C3B C2B 1_555 1_555
H2B C3B 1_555 1_555
C4B N1B 1_555 1_555
C5B C4B 1_555 1_555
H3B C5B 1_555 1_555
C6B C1B 1_555 1_555
H4B C6B 1_555 1_555
C7B C8B 1_555 1_555
C8B H5B 1_555 1_555
C9B C8B 1_555 1_555
H6B C9B 1_555 1_555
C10B C9B 1_555 1_555
C11B C10B 1_555 1_555
H7B C11B 1_555 1_555
C12B C7B 1_555 1_555
H8B C12B 1_555 1_555
H10B N3B 1_555 1_555
H13B N3B 1_555 1_555
O5D Rb1 1_555 1_555
H11D O5D 1_555 1_555
H12D O5D 1_555 1_555
Rb1B O2_2 1_555 1_555
Rb1D O2 1_555 1_555
Rb1D_2 O5 1_555 1_555
Rb1F O3 1_555 1_555
O2D Rb1 1_555 1_555
O4F Rb1 1_555 1_555
Rb1B_2 O2 1_555 1_555
Rb1F_2 O4 1_555 1_555
Rb1D_3 O2_2 1_555 1_555
Rb1F_3 O5B 1_555 1_555
O2F Rb1B 1_555 1_555
O3B Rb1B 1_555 1_555
O4_2 Rb1B 1_555 1_555
O4D Rb1B 1_555 1_555
O5B Rb1B 1_555 1_555
O5F Rb1B 1_555 1_555
H9B O3B 1_555 1_555
H9D O3B 1_555 1_555
H11B O5B 1_555 1_555
H12B O5B 1_555 1_555
H11F O5F 1_555 1_555
H12F O5F 1_555 1_555
O4 Rb1B_2 1_555 1_555
C3 C4 1_555 1_555
C5 C6 1_555 1_555
C11 C12 1_555 1_555
S1B O2B 1_555 1_555
S1B O4B 1_555 1_555
O2B Rb1F 1_555 1_555
O4B Rb1D 1_555 1_555
C3B C4B 1_555 1_555
C5B C6B 1_555 1_555
C11B C12B 1_555 1_555
O5D Rb1D_2 1_555 1_555
Rb1D O4F 1_555 1_555
Rb1F O2D 1_555 1_555
Rb1F O4_2 1_555 1_555
Rb1F O4D 1_555 1_555
Rb1D_3 O2F 1_555 1_555
Rb1D_3 O3B 1_555 1_555
Rb1F_3 O5F 1_555 1_555

#END
