
#######################################################################
#
#                 Cambridge Crystallographic Data Centre
#                                CCDC 
#
#######################################################################
#
# If this CIF has been generated from an entry in the Cambridge 
# Structural Database, then it will include bibliographic, chemical, 
# crystal, experimental, refinement or atomic coordinate data resulting 
# from the CCDC's data processing and validation procedures.
#
#######################################################################

data_BIHPAJ
_symmetry_cell_setting           monoclinic
_symmetry_space_group_name_H-M   'P 21/a'
_symmetry_Int_Tables_number      14
_space_group_name_Hall           '-P 2yab'
loop_
_symmetry_equiv_pos_site_id
_symmetry_equiv_pos_as_xyz
1 x,y,z
2 1/2-x,1/2+y,-z
3 -x,-y,-z
4 1/2+x,1/2-y,z
_cell_length_a                   14.188(13)
_cell_length_b                   9.711(6)
_cell_length_c                   17.357(17)
_cell_angle_alpha                90
_cell_angle_beta                 98.492(8)
_cell_angle_gamma                90
_cell_volume                     2365.22
loop_
_atom_site_label
_atom_site_type_symbol
_atom_site_fract_x
_atom_site_fract_y
_atom_site_fract_z
Dy1 Dy 0.23480 0.18960 0.42010
O1 O -0.00580 0.03840 0.34670
O2 O 0.11080 0.17360 0.31870
O3 O 0.31970 0.16840 0.31410
O4 O 0.44390 0.02840 0.34190
O5 O 0.26060 0.24090 0.54840
O6 O 0.26650 0.45630 0.59360
O8 O 0.10080 0.10250 0.48290
O9 O 0.39540 0.10320 0.48270
O10 O 0.34340 0.38160 0.42030
O11 O 0.11740 0.36880 0.42060
C1 C 0.27310 0.32220 0.60530
C2 C 0.29160 0.27190 0.68480
C3 C 0.31540 0.36120 0.74920
C4 C 0.34090 0.31490 0.83050
C5 C 0.33330 0.16030 0.83470
C6 C 0.32090 0.07560 0.77780
C7 C 0.29920 0.12740 0.70240
C8 C 0.03450 0.10650 0.29600
C9 C -0.00410 0.09860 0.21550
C10 C -0.08100 0.00840 0.19100
C11 C -0.11850 -0.00460 0.10930
C12 C -0.07730 0.08280 0.05530
C13 C -0.00320 0.16600 0.08030
C14 C 0.03380 0.17930 0.16070
C15 C 0.38280 0.08060 0.29540
C16 C 0.37210 0.05140 0.21040
C17 C 0.30950 0.12090 0.15680
C18 C 0.29840 0.08980 0.07520
C19 C 0.34990 -0.02370 0.05160
C20 C 0.41260 -0.09690 0.10790
C21 C 0.42380 -0.06140 0.18720
O6A O 0.23350 -0.04370 0.40640
Dy1A Dy 0.26520 0.68960 0.57990
O7 O 0.01830 0.24940 0.59420
loop_
_geom_bond_atom_site_label_1
_geom_bond_atom_site_label_2
_geom_bond_site_symmetry_1
_geom_bond_site_symmetry_2
Dy1 O2 1_555 1_555
O1 C8 1_555 1_555
O2 C8 1_555 1_555
O3 Dy1 1_555 1_555
O4 C15 1_555 1_555
O5 Dy1 1_555 1_555
O6 C1 1_555 1_555
O8 Dy1 1_555 1_555
O9 Dy1 1_555 1_555
O10 Dy1 1_555 1_555
O11 Dy1 1_555 1_555
C1 O5 1_555 1_555
C2 C1 1_555 1_555
C3 C2 1_555 1_555
C4 C3 1_555 1_555
C5 C4 1_555 1_555
C6 C5 1_555 1_555
C7 C2 1_555 1_555
C8 C9 1_555 1_555
C9 C10 1_555 1_555
C10 C11 1_555 1_555
C11 C12 1_555 1_555
C12 C13 1_555 1_555
C13 C14 1_555 1_555
C14 C9 1_555 1_555
C15 O3 1_555 1_555
C16 C15 1_555 1_555
C17 C16 1_555 1_555
C18 C17 1_555 1_555
C19 C18 1_555 1_555
C20 C19 1_555 1_555
C21 C16 1_555 1_555
O6A Dy1 1_555 1_555
Dy1A O6 1_555 1_555
C6 C7 1_555 1_555
C20 C21 1_555 1_555

#END
