
#######################################################################
#
#                 Cambridge Crystallographic Data Centre
#                                CCDC 
#
#######################################################################
#
# If this CIF has been generated from an entry in the Cambridge 
# Structural Database, then it will include bibliographic, chemical, 
# crystal, experimental, refinement or atomic coordinate data resulting 
# from the CCDC's data processing and validation procedures.
#
#######################################################################

data_BIHQAM
_symmetry_cell_setting           tetragonal
_symmetry_space_group_name_H-M   'I -4 2 m'
_symmetry_Int_Tables_number      121
_space_group_name_Hall           'I -4 2'
loop_
_symmetry_equiv_pos_site_id
_symmetry_equiv_pos_as_xyz
1 x,y,z
2 y,-x,-z
3 -x,-y,z
4 -y,x,-z
5 x,-y,-z
6 -y,-x,z
7 -x,y,-z
8 y,x,z
9 1/2+x,1/2+y,1/2+z
10 1/2+y,1/2-x,1/2-z
11 1/2-x,1/2-y,1/2+z
12 1/2-y,1/2+x,1/2-z
13 1/2+x,1/2-y,1/2-z
14 1/2-y,1/2-x,1/2+z
15 1/2-x,1/2+y,1/2-z
16 1/2+y,1/2+x,1/2+z
_cell_length_a                   13.6272(2)
_cell_length_b                   13.6272(2)
_cell_length_c                   10.0246(3)
_cell_angle_alpha                90
_cell_angle_beta                 90
_cell_angle_gamma                90
_cell_volume                     1861.57
loop_
_atom_site_label
_atom_site_type_symbol
_atom_site_fract_x
_atom_site_fract_y
_atom_site_fract_z
Mo1 Mo 0.5000 0.0000 0.2500
Zn1 Zn 0.5000 0.18884(5) 0.0000
O1 O 0.4527(4) 0.3411(4) -0.1759(6)
O2 O 0.5195(4) 0.1049(3) 0.1530(5)
N1 N 0.3801(5) 0.3801(5) -0.1309(8)
N2 N 0.3734(4) 0.2564(4) 0.0403(5)
C1 C 0.3361(4) 0.3361(4) -0.0109(19)
C2 C 0.3113(5) 0.2401(6) 0.1428(9)
H1 H 0.3160 0.1888 0.2037
O1G O 0.3411(4) 0.4527(4) -0.1759(6)
N2G N 0.2564(4) 0.3734(4) 0.0403(5)
C2G C 0.2401(6) 0.3113(5) 0.1428(9)
H1G H 0.1888 0.3160 0.2037
Zn1A Zn 0.18884(5) 0.5000 0.0000
O1A O 0.3411(4) 0.5473(4) 0.1759(6)
O2A O 0.1049(3) 0.4805(4) -0.1530(5)
N1A N 0.3801(5) 0.6199(5) 0.1309(8)
N2A N 0.2564(4) 0.6266(4) -0.0403(5)
C1A C 0.3361(4) 0.6639(4) 0.0109(19)
C2A C 0.2401(6) 0.6887(5) -0.1428(9)
H1A H 0.1888 0.6840 -0.2037
O1D O 0.4527(4) 0.6589(4) 0.1759(6)
N2D N 0.3734(4) 0.7436(4) -0.0403(5)
C2D C 0.3113(5) 0.7599(6) -0.1428(9)
H1D H 0.3160 0.8112 -0.2037
O2B O 0.4805(4) -0.1049(3) 0.1530(5)
O2K O 0.3951(3) 0.0195(4) 0.3470(5)
Mo1A Mo 0.0000 0.5000 -0.2500
Zn1B Zn 0.5000 -0.18884(5) 0.0000
Zn1B_2 Zn 0.5000 0.81116(5) 0.0000
Zn1K Zn 0.31116(5) 0.0000 0.5000
O2F O 0.4805(4) 0.1049(3) -0.1530(5)
O2G O 0.1049(3) 0.5195(4) 0.1530(5)
O2I O 0.6049(3) -0.0195(4) 0.3470(5)
N2F N 0.6266(4) 0.2564(4) -0.0403(5)
loop_
_geom_bond_atom_site_label_1
_geom_bond_atom_site_label_2
_geom_bond_site_symmetry_1
_geom_bond_site_symmetry_2
Mo1 O2 1_555 1_555
Zn1 O2 1_555 1_555
O1 N1 1_555 1_555
N1 C1 1_555 1_555
N2 Zn1 1_555 1_555
C1 N2 1_555 1_555
C2 N2 1_555 1_555
H1 C2 1_555 1_555
O1G N1 1_555 1_555
N2G C1 1_555 1_555
C2G C2 1_555 1_555
H1G C2G 1_555 1_555
Zn1A N2G 1_555 1_555
O1A N1A 1_555 1_555
O2A Zn1A 1_555 1_555
N1A C1A 1_555 1_555
N2A Zn1A 1_555 1_555
C1A N2A 1_555 1_555
C2A N2A 1_555 1_555
H1A C2A 1_555 1_555
O1D N1A 1_555 1_555
N2D C1A 1_555 1_555
C2D C2A 1_555 1_555
H1D C2D 1_555 1_555
O2B Mo1 1_555 1_555
O2K Mo1 1_555 1_555
Mo1A O2A 1_555 1_555
Zn1B O2B 1_555 1_555
Zn1B_2 N2D 1_555 1_555
Zn1K O2K 1_555 1_555
O2F Zn1 1_555 1_555
O2G Zn1A 1_555 1_555
O2I Mo1 1_555 1_555
N2F Zn1 1_555 1_555
N2G C2G 1_555 1_555
N2D C2D 1_555 1_555

#END
