
#######################################################################
#
#                 Cambridge Crystallographic Data Centre
#                                CCDC 
#
#######################################################################
#
# If this CIF has been generated from an entry in the Cambridge 
# Structural Database, then it will include bibliographic, chemical, 
# crystal, experimental, refinement or atomic coordinate data resulting 
# from the CCDC's data processing and validation procedures.
#
#######################################################################

data_BIHVOF
_symmetry_cell_setting           monoclinic
_symmetry_space_group_name_H-M   'P 21/n'
_symmetry_Int_Tables_number      14
_space_group_name_Hall           '-P 2yn'
loop_
_symmetry_equiv_pos_site_id
_symmetry_equiv_pos_as_xyz
1 x,y,z
2 1/2-x,1/2+y,1/2-z
3 -x,-y,-z
4 1/2+x,1/2-y,1/2+z
_cell_length_a                   10.1130(12)
_cell_length_b                   13.3230(16)
_cell_length_c                   15.4730(18)
_cell_angle_alpha                90
_cell_angle_beta                 104.2000(13)
_cell_angle_gamma                90
_cell_volume                     2021.06
loop_
_atom_site_label
_atom_site_type_symbol
_atom_site_fract_x
_atom_site_fract_y
_atom_site_fract_z
Ni1 Ni 0.754731(17) 0.166598(13) 0.922851(13)
O1 O 1.54893(11) 0.15322(8) 0.93845(8)
O2 O 0.88314(13) 0.10381(9) 1.03927(8)
H1 H 0.873(2) 0.0463(18) 1.0507(15)
H2 H 0.956(2) 0.1049(17) 1.0210(14)
O3 O 1.59592(10) 0.22973(8) 0.82366(7)
O4 O 1.06929(11) 0.10798(9) 0.94363(9)
N1 N 0.76360(15) 0.46940(10) 0.98987(10)
O5 O 0.90896(10) 0.21182(8) 0.86799(8)
N2 N 0.74767(14) 0.86300(10) 0.85850(9)
N3 N 0.73977(13) 1.02830(9) 0.86174(9)
C1 C 1.26631(15) 0.19169(11) 0.87027(11)
H3 H 1.2913(19) 0.1399(15) 0.9093(12)
C2 C 1.13223(14) 0.22603(11) 0.84667(10)
C3 C 1.19715(16) 0.35293(12) 0.75223(12)
C4 C 1.09879(15) 0.30680(12) 0.78835(11)
H4 H 1.006(2) 0.3309(13) 0.7732(13)
C5 C 1.51162(14) 0.20379(11) 0.86773(10)
C6 C 0.80107(18) 0.99844(12) 0.79533(11)
H5 H 0.8299(19) 1.0476(15) 0.7603(13)
N4 N 0.77204(14) 0.30404(10) 0.98839(10)
C7 C 1.36575(14) 0.23735(11) 0.83626(10)
C8 C 0.80743(18) 0.89711(12) 0.79299(11)
H6 H 0.8446 0.8583 0.7549
C9 C 1.02887(15) 0.17749(11) 0.88898(11)
C10 C 1.1608(2) 0.44010(18) 0.68843(17)
H7 H 1.142(3) 0.424(2) 0.626(2)
H8 H 1.234(3) 0.483(2) 0.6949(17)
H9 H 1.083(3) 0.477(2) 0.6945(18)
C11 C 0.85797(19) 0.70076(13) 0.88679(13)
H10 H 0.930(2) 0.7249(16) 0.8634(13)
C12 C 0.75952(17) 0.57010(11) 0.95711(12)
C13 C 0.6495(2) 0.63090(13) 0.95915(14)
H11 H 0.579(2) 0.6075(16) 0.9814(14)
C14 C 0.64404(19) 0.72780(13) 0.92536(13)
H12 H 0.574(2) 0.7674(16) 0.9267(14)
C15 C 1.33067(16) 0.31727(12) 0.77701(11)
H13 H 1.399(2) 0.3462(14) 0.7551(13)
C16 C 0.70856(16) 0.94514(11) 0.89747(11)
H14 H 0.6650 0.9428 0.9438
C17 C 0.74833(16) 0.76196(11) 0.88946(11)
C18 C 0.86298(18) 0.60402(12) 0.92065(13)
H15 H 0.939(2) 0.5630(16) 0.9217(13)
C19 C 0.7411(2) 0.33497(14) 1.06552(13)
H16 H 0.728(2) 0.2894(18) 1.1090(15)
C20 C 0.78600(18) 0.38676(12) 0.94528(12)
H17 H 0.8016(19) 0.3893(15) 0.8889(14)
C21 C 0.7343(2) 0.43633(15) 1.06736(14)
H18 H 0.722(2) 0.4780(18) 1.1068(16)
Ni1_2 Ni 0.754731(17) 1.166598(13) 0.922851(13)
Ni1_3 Ni 1.754731(17) 0.166598(13) 0.922851(13)
O1_2 O 0.54893(11) 0.15322(8) 0.93845(8)
O3_2 O 0.59592(10) 0.22973(8) 0.82366(7)
N3_2 N 0.73977(13) 0.02830(9) 0.86174(9)
loop_
_geom_bond_atom_site_label_1
_geom_bond_atom_site_label_2
_geom_bond_site_symmetry_1
_geom_bond_site_symmetry_2
Ni1 O2 1_555 1_555
O1 C5 1_555 1_555
O2 H1 1_555 1_555
H2 O2 1_555 1_555
O3 C5 1_555 1_555
O4 C9 1_555 1_555
N1 C12 1_555 1_555
O5 Ni1 1_555 1_555
N2 C8 1_555 1_555
N3 C6 1_555 1_555
C1 H3 1_555 1_555
C2 C1 1_555 1_555
C3 C4 1_555 1_555
C4 C2 1_555 1_555
H4 C4 1_555 1_555
C5 C7 1_555 1_555
C6 H5 1_555 1_555
N4 Ni1 1_555 1_555
C7 C1 1_555 1_555
C8 C6 1_555 1_555
H6 C8 1_555 1_555
C9 O5 1_555 1_555
C10 C3 1_555 1_555
H7 C10 1_555 1_555
H8 C10 1_555 1_555
H9 C10 1_555 1_555
C11 H10 1_555 1_555
C12 C13 1_555 1_555
C13 H11 1_555 1_555
C14 C13 1_555 1_555
H12 C14 1_555 1_555
C15 C3 1_555 1_555
H13 C15 1_555 1_555
C16 N2 1_555 1_555
H14 C16 1_555 1_555
C17 N2 1_555 1_555
C18 C11 1_555 1_555
H15 C18 1_555 1_555
C19 N4 1_555 1_555
H16 C19 1_555 1_555
C20 N1 1_555 1_555
H17 C20 1_555 1_555
C21 N1 1_555 1_555
H18 C21 1_555 1_555
Ni1_2 N3 1_555 1_555
Ni1_3 O1 1_555 1_555
O1_2 Ni1 1_555 1_555
O3_2 Ni1 1_555 1_555
N3_2 Ni1 1_555 1_555
O3 Ni1_3 1_555 1_555
N3 C16 1_555 1_555
C2 C9 1_555 1_555
N4 C20 1_555 1_555
C7 C15 1_555 1_555
C11 C17 1_555 1_555
C12 C18 1_555 1_555
C14 C17 1_555 1_555
C19 C21 1_555 1_555

#END
