
#######################################################################
#
#                 Cambridge Crystallographic Data Centre
#                                CCDC 
#
#######################################################################
#
# If this CIF has been generated from an entry in the Cambridge 
# Structural Database, then it will include bibliographic, chemical, 
# crystal, experimental, refinement or atomic coordinate data resulting 
# from the CCDC's data processing and validation procedures.
#
#######################################################################

data_BIHWAS
_symmetry_cell_setting           monoclinic
_symmetry_space_group_name_H-M   'C 2/c'
_symmetry_Int_Tables_number      15
_space_group_name_Hall           '-C 2yn'
loop_
_symmetry_equiv_pos_site_id
_symmetry_equiv_pos_as_xyz
1 x,y,z
2 -x,y,1/2-z
3 1/2+x,1/2+y,z
4 1/2-x,1/2+y,1/2-z
5 -x,-y,-z
6 x,-y,1/2+z
7 1/2-x,1/2-y,-z
8 1/2+x,1/2-y,1/2+z
_cell_length_a                   17.3102(7)
_cell_length_b                   10.8871(4)
_cell_length_c                   30.2298(12)
_cell_angle_alpha                90
_cell_angle_beta                 100.4120(5)
_cell_angle_gamma                90
_cell_volume                     5603.23
loop_
_atom_site_label
_atom_site_type_symbol
_atom_site_fract_x
_atom_site_fract_y
_atom_site_fract_z
Ni1 Ni 0.020811(12) 0.996289(18) 0.137626(7)
O1 O 0.42482(7) 1.36950(11) 0.14138(4)
O2 O 0.16649(8) 1.20457(13) 0.17538(5)
O3 O 0.41219(8) 1.50599(11) 0.08703(5)
O4 O 0.08656(7) 1.12830(12) 0.11493(4)
N1 N 0.12720(9) 0.75700(13) 0.23736(5)
N2 N 0.08266(9) 0.27651(13) 0.29616(5)
N3 N 0.12914(10) 0.78650(15) 0.04860(6)
C1 C 0.09603(11) 0.49967(16) 0.31378(7)
N4 N 0.03211(8) 0.11317(13) 0.32329(5)
N5 N 0.06022(9) 0.87240(14) 0.09458(5)
C2 C 0.38410(10) 1.42039(16) 0.10723(6)
C3 C 0.09672(10) 0.40108(15) 0.28415(6)
C4 C 0.18555(10) 1.26718(16) 0.10297(6)
C5 C 0.26146(10) 1.31055(16) 0.11873(6)
H1 H 0.2855 1.2947 0.1482
C6 C 0.10691(10) 0.61640(16) 0.29712(6)
H2 H 0.1045 0.6843 0.3155
C7 C 0.30137(10) 1.37710(16) 0.09079(6)
C8 C 0.12760(11) 0.53573(17) 0.22547(7)
C9 C 0.11318(10) 0.41932(16) 0.24123(6)
H3 H 0.1146 0.3518 0.2225
C10 C 0.14354(10) 1.19432(16) 0.13429(6)
N6 N 0.09453(8) 0.91432(13) 0.19175(5)
C11 C 0.19172(11) 0.76754(17) 0.02366(7)
C12 C 0.18837(12) 1.36257(19) 0.03070(6)
C13 C 0.11457(12) 0.17437(17) 0.27892(7)
H4 H 0.1505 0.1739 0.2594
C14 C 0.12120(10) 0.63412(16) 0.25399(6)
C15 C 0.32391(12) 0.7184(2) 0.02255(7)
H5 H 0.3742 0.6970 0.0370
C16 C 0.03245(10) 0.23336(16) 0.32225(6)
H6 H 0.0021 0.2830 0.3375
C17 C 0.19162(11) 0.83282(17) 0.24271(7)
H7 H 0.2396 0.8208 0.2618
C18 C 0.07106(11) 0.80993(17) 0.20664(7)
H8 H 0.0214 0.7765 0.1971
C19 C 0.15057(11) 1.29271(18) 0.05889(7)
H9 H 0.1006 1.2623 0.0479
C20 C 0.11675(12) 0.88788(18) 0.07177(7)
H10 H 0.1451 0.9604 0.0716
C21 C 0.14952(15) 1.3940(3) -0.01691(8)
H11 H 0.0964 1.3645 -0.0223
H12 H 0.1780 1.3560 -0.0377
H13 H 0.1496 1.4815 -0.0209
C22 C 0.26435(11) 1.40427(18) 0.04716(6)
H14 H 0.2905 1.4508 0.0287
C23 C 0.17079(10) 0.92916(17) 0.21434(7)
H15 H 0.2031 0.9952 0.2107
C24 C 0.08321(12) 0.07612(18) 0.29600(7)
H16 H 0.0945 -0.0052 0.2902
C25 C 0.26484(12) 0.73601(19) 0.04752(7)
C26 C 0.07734(14) 0.6998(2) 0.05788(9)
H17 H 0.0720 0.6199 0.0469
C27 C 0.15086(15) 0.5506(2) 0.18013(7)
H18 H 0.2012 0.5901 0.1837
H19 H 0.1124 0.5999 0.1612
H20 H 0.1538 0.4714 0.1666
C28 C 0.03556(13) 0.7536(2) 0.08610(8)
H21 H -0.0042 0.7156 0.0981
C29 C 0.08485(18) 0.4888(2) 0.36200(8)
H22 H 0.1064 0.5599 0.3785
H23 H 0.1112 0.4165 0.3752
H24 H 0.0298 0.4830 0.3629
C30 C 0.27706(15) 0.7131(3) 0.09734(8)
H25 H 0.3312 0.6931 0.1082
H26 H 0.2445 0.6459 0.1033
H27 H 0.2633 0.7855 0.1123
N3F N 0.37086(10) 0.71350(15) -0.04860(6)
N5F N 0.43978(9) 0.62760(14) -0.09458(5)
C11F C 0.30828(11) 0.73246(17) -0.02366(7)
C15F C 0.17609(12) 0.7816(2) -0.02255(7)
H5F H 0.1258 0.8030 -0.0370
C20F C 0.38325(12) 0.61212(18) -0.07177(7)
H10F H 0.3549 0.5396 -0.0716
C25F C 0.23516(12) 0.76399(19) -0.04752(7)
C26F C 0.42266(14) 0.8002(2) -0.05788(9)
H17F H 0.4280 0.8801 -0.0469
C28F C 0.46444(13) 0.7464(2) -0.08610(8)
H21F H 0.5042 0.7844 -0.0981
C30F C 0.22294(15) 0.7869(3) -0.09734(8)
H25F H 0.1688 0.8069 -0.1082
H26F H 0.2555 0.8541 -0.1033
H27F H 0.2367 0.7145 -0.1123
Ni1F Ni 0.479189(12) 0.503711(18) -0.137626(7)
O1F O 0.07518(7) 0.13050(11) -0.14138(4)
O2F O 0.33351(8) 0.29543(13) -0.17538(5)
O3F O 0.08781(8) -0.00599(11) -0.08703(5)
O4F O 0.41344(7) 0.37170(12) -0.11493(4)
N1F N 0.37280(9) 0.74300(13) -0.23736(5)
N2F N 0.41734(9) 1.22349(13) -0.29616(5)
C1F C 0.40397(11) 1.00033(16) -0.31378(7)
N4F N 0.46789(8) 1.38683(13) -0.32329(5)
C2F C 0.11590(10) 0.07961(16) -0.10723(6)
C3F C 0.40328(10) 1.09892(15) -0.28415(6)
C4F C 0.31445(10) 0.23282(16) -0.10297(6)
C5F C 0.23854(10) 0.18945(16) -0.11873(6)
H1F H 0.2145 0.2053 -0.1482
C6F C 0.39309(10) 0.88360(16) -0.29712(6)
H2F H 0.3955 0.8157 -0.3155
C7F C 0.19863(10) 0.12290(16) -0.09079(6)
C8F C 0.37240(11) 0.96427(17) -0.22547(7)
C9F C 0.38682(10) 1.08068(16) -0.24123(6)
H3F H 0.3854 1.1482 -0.2225
C10F C 0.35646(10) 0.30568(16) -0.13429(6)
N6F N 0.40547(8) 0.58568(13) -0.19175(5)
C12F C 0.31163(12) 0.13743(19) -0.03070(6)
C13F C 0.38543(12) 1.32563(17) -0.27892(7)
H4F H 0.3495 1.3261 -0.2594
C14F C 0.37880(10) 0.86588(16) -0.25399(6)
C16F C 0.46755(10) 1.26664(16) -0.32225(6)
H6F H 0.4979 1.2170 -0.3375
C17F C 0.30838(11) 0.66718(17) -0.24271(7)
H7F H 0.2604 0.6792 -0.2618
C18F C 0.42894(11) 0.69007(17) -0.20664(7)
H8F H 0.4786 0.7235 -0.1971
C19F C 0.34943(11) 0.20729(18) -0.05889(7)
H9F H 0.3994 0.2377 -0.0479
C21F C 0.35048(15) 0.1060(3) 0.01691(8)
H11F H 0.4036 0.1355 0.0223
H12F H 0.3220 0.1440 0.0377
H13F H 0.3504 0.0185 0.0209
C22F C 0.23565(11) 0.09573(18) -0.04716(6)
H14F H 0.2095 0.0492 -0.0287
C23F C 0.32921(10) 0.57084(17) -0.21434(7)
H15F H 0.2969 0.5048 -0.2107
C24F C 0.41679(12) 1.42388(18) -0.29600(7)
H16F H 0.4055 1.5052 -0.2902
C27F C 0.34914(15) 0.9494(2) -0.18013(7)
H18F H 0.2988 0.9099 -0.1837
H19F H 0.3876 0.9001 -0.1612
H20F H 0.3462 1.0286 -0.1666
C29F C 0.41515(18) 1.0112(2) -0.36200(8)
H22F H 0.3936 0.9401 -0.3785
H23F H 0.3888 1.0835 -0.3752
H24F H 0.4702 1.0170 -0.3629
Ni1A Ni -0.020811(12) -0.003711(18) 0.362374(7)
Ni1B Ni 0.520811(12) 1.496289(18) 0.137626(7)
Ni1D Ni -0.020811(12) 0.003711(18) -0.137626(7)
Ni1G Ni 0.520811(12) 1.503711(18) -0.362374(7)
O1B O -0.07518(7) 0.86950(11) 0.14138(4)
O1D O 0.57518(7) 0.63050(11) -0.14138(4)
O3B O -0.08781(8) 1.00599(11) 0.08703(5)
O3D O 0.58781(8) 0.49401(11) -0.08703(5)
N4A N -0.03211(8) 1.11317(13) 0.17671(5)
N4G N 0.53211(8) 0.38683(13) -0.17671(5)
loop_
_geom_bond_atom_site_label_1
_geom_bond_atom_site_label_2
_geom_bond_site_symmetry_1
_geom_bond_site_symmetry_2
Ni1 O4 1_555 1_555
O1 C2 1_555 1_555
O2 C10 1_555 1_555
O3 C2 1_555 1_555
O4 C10 1_555 1_555
N1 C14 1_555 1_555
N2 C3 1_555 1_555
N3 C11 1_555 1_555
C1 C3 1_555 1_555
N4 C16 1_555 1_555
N5 Ni1 1_555 1_555
C2 C7 1_555 1_555
C3 C9 1_555 1_555
C4 C5 1_555 1_555
C5 H1 1_555 1_555
C6 C1 1_555 1_555
H2 C6 1_555 1_555
C7 C5 1_555 1_555
C8 C9 1_555 1_555
C9 H3 1_555 1_555
C10 C4 1_555 1_555
N6 Ni1 1_555 1_555
C11 C25 1_555 1_555
C12 C19 1_555 1_555
C13 N2 1_555 1_555
H4 C13 1_555 1_555
C14 C6 1_555 1_555
C15 H5 1_555 1_555
C16 N2 1_555 1_555
H6 C16 1_555 1_555
C17 N1 1_555 1_555
H7 C17 1_555 1_555
C18 N1 1_555 1_555
H8 C18 1_555 1_555
C19 C4 1_555 1_555
H9 C19 1_555 1_555
C20 N3 1_555 1_555
H10 C20 1_555 1_555
C21 C12 1_555 1_555
H11 C21 1_555 1_555
H12 C21 1_555 1_555
H13 C21 1_555 1_555
C22 C7 1_555 1_555
H14 C22 1_555 1_555
C23 N6 1_555 1_555
H15 C23 1_555 1_555
C24 N4 1_555 1_555
H16 C24 1_555 1_555
C25 C15 1_555 1_555
C26 N3 1_555 1_555
H17 C26 1_555 1_555
C27 C8 1_555 1_555
H18 C27 1_555 1_555
H19 C27 1_555 1_555
H20 C27 1_555 1_555
C28 N5 1_555 1_555
H21 C28 1_555 1_555
C29 C1 1_555 1_555
H22 C29 1_555 1_555
H23 C29 1_555 1_555
H24 C29 1_555 1_555
C30 C25 1_555 1_555
H25 C30 1_555 1_555
H26 C30 1_555 1_555
H27 C30 1_555 1_555
N3F C11F 1_555 1_555
N5F C20F 1_555 1_555
C11F C15 1_555 1_555
C15F C11 1_555 1_555
H5F C15F 1_555 1_555
C20F N3F 1_555 1_555
H10F C20F 1_555 1_555
C25F C11F 1_555 1_555
C26F N3F 1_555 1_555
H17F C26F 1_555 1_555
C28F N5F 1_555 1_555
H21F C28F 1_555 1_555
C30F C25F 1_555 1_555
H25F C30F 1_555 1_555
H26F C30F 1_555 1_555
H27F C30F 1_555 1_555
Ni1F N5F 1_555 1_555
O1F C2F 1_555 1_555
O2F C10F 1_555 1_555
O3F C2F 1_555 1_555
O4F Ni1F 1_555 1_555
N1F C14F 1_555 1_555
N2F C3F 1_555 1_555
C1F C3F 1_555 1_555
N4F C16F 1_555 1_555
C2F C7F 1_555 1_555
C3F C9F 1_555 1_555
C4F C5F 1_555 1_555
C5F H1F 1_555 1_555
C6F C1F 1_555 1_555
H2F C6F 1_555 1_555
C7F C5F 1_555 1_555
C8F C9F 1_555 1_555
C9F H3F 1_555 1_555
C10F O4F 1_555 1_555
N6F Ni1F 1_555 1_555
C12F C19F 1_555 1_555
C13F N2F 1_555 1_555
H4F C13F 1_555 1_555
C14F C6F 1_555 1_555
C16F N2F 1_555 1_555
H6F C16F 1_555 1_555
C17F N1F 1_555 1_555
H7F C17F 1_555 1_555
C18F N1F 1_555 1_555
H8F C18F 1_555 1_555
C19F C4F 1_555 1_555
H9F C19F 1_555 1_555
C21F C12F 1_555 1_555
H11F C21F 1_555 1_555
H12F C21F 1_555 1_555
H13F C21F 1_555 1_555
C22F C7F 1_555 1_555
H14F C22F 1_555 1_555
C23F N6F 1_555 1_555
H15F C23F 1_555 1_555
C24F N4F 1_555 1_555
H16F C24F 1_555 1_555
C27F C8F 1_555 1_555
H18F C27F 1_555 1_555
H19F C27F 1_555 1_555
H20F C27F 1_555 1_555
C29F C1F 1_555 1_555
H22F C29F 1_555 1_555
H23F C29F 1_555 1_555
H24F C29F 1_555 1_555
Ni1A N4 1_555 1_555
Ni1B O1 1_555 1_555
Ni1D O1F 1_555 1_555
Ni1G N4F 1_555 1_555
O1B Ni1 1_555 1_555
O1D Ni1F 1_555 1_555
O3B Ni1 1_555 1_555
O3D Ni1F 1_555 1_555
N4A Ni1 1_555 1_555
N4G Ni1F 1_555 1_555
O3 Ni1B 1_555 1_555
N5 C20 1_555 1_555
C8 C14 1_555 1_555
N6 C18 1_555 1_555
C12 C22 1_555 1_555
C13 C24 1_555 1_555
C17 C23 1_555 1_555
C26 C28 1_555 1_555
C15F C25F 1_555 1_555
C26F C28F 1_555 1_555
O3F Ni1D 1_555 1_555
C4F C10F 1_555 1_555
C8F C14F 1_555 1_555
N6F C18F 1_555 1_555
C12F C22F 1_555 1_555
C13F C24F 1_555 1_555
C17F C23F 1_555 1_555

#END
