
#######################################################################
#
#                 Cambridge Crystallographic Data Centre
#                                CCDC 
#
#######################################################################
#
# If this CIF has been generated from an entry in the Cambridge 
# Structural Database, then it will include bibliographic, chemical, 
# crystal, experimental, refinement or atomic coordinate data resulting 
# from the CCDC's data processing and validation procedures.
#
#######################################################################

data_BIHXAT
_symmetry_cell_setting           monoclinic
_symmetry_space_group_name_H-M   'P 21'
_symmetry_Int_Tables_number      4
_space_group_name_Hall           'P 2yb'
loop_
_symmetry_equiv_pos_site_id
_symmetry_equiv_pos_as_xyz
1 x,y,z
2 -x,1/2+y,-z
_cell_length_a                   12.950(5)
_cell_length_b                   13.276(5)
_cell_length_c                   13.810(5)
_cell_angle_alpha                90
_cell_angle_beta                 112.258(5)
_cell_angle_gamma                90
_cell_volume                     2197.36
loop_
_atom_site_label
_atom_site_type_symbol
_atom_site_fract_x
_atom_site_fract_y
_atom_site_fract_z
Nb1 Nb -0.011149(15) 0.484284(15) 0.240274(14)
Mn1 Mn 0.19399(3) 0.17798(3) 0.13221(3)
Mn2 Mn 0.18364(3) 0.67283(3) 0.61758(3)
N1 N -0.07580(19) 0.29572(18) 0.37391(18)
C1 C 0.1286(2) 0.5627(2) 0.2096(2)
N2 N -0.1213(2) 0.63966(19) 0.03229(19)
C2 C 0.0397(2) 0.3636(2) 0.15295(19)
N3 N 0.07421(19) 0.29713(18) 0.12133(18)
N4 N 0.0901(2) 0.63654(18) 0.45367(18)
C3 C -0.1600(2) 0.5520(2) 0.2630(2)
C4 C -0.0501(2) 0.36247(19) 0.33457(19)
N5 N 0.2322(2) 0.3762(2) 0.40050(19)
C5 C -0.0840(2) 0.5908(2) 0.1053(2)
C6 C 0.0529(2) 0.59079(19) 0.3778(2)
N6 N 0.1961(2) 0.6047(2) 0.1910(2)
C7 C 0.1518(2) 0.41669(19) 0.3490(2)
N7 N -0.2424(2) 0.3577(2) 0.0784(2)
C8 C -0.1665(2) 0.40457(19) 0.1304(2)
N8 N -0.2368(2) 0.5891(2) 0.2724(2)
O1 O 0.24424(18) 0.67738(15) 0.79599(16)
O2 O 0.2399(2) 0.18378(16) 0.30634(16)
N9 N 0.31353(19) 0.78577(18) 0.61149(18)
N10 N 0.32177(19) 0.29246(19) 0.12706(18)
N11 N 0.1472(2) 0.52153(17) 0.6750(2)
O3 O 0.33482(19) 0.58961(16) 0.6227(2)
N12 N 0.1470(2) 0.02949(18) 0.18617(19)
O4 O 0.35259(19) 0.09991(17) 0.1600(2)
C9 C 0.2247(3) 0.5930(2) 0.8513(2)
H1 H 0.2945 0.5761 0.9093
C10 C 0.2265(3) 0.0983(2) 0.3634(2)
H2 H 0.3004 0.0776 0.4127
C11 C 0.4188(2) 0.2563(3) 0.1252(2)
C12 C 0.4057(2) 0.7492(2) 0.6021(2)
C13 C 0.1891(3) 0.5039(2) 0.7781(2)
C14 C 0.5008(3) 0.3205(3) 0.1203(3)
H3 H 0.5659 0.2941 0.1171
C15 C 0.1035(3) -0.0482(2) 0.1197(3)
H4 H 0.0820 -0.0367 0.0483
C16 C 0.4104(3) 0.6389(2) 0.5843(3)
H5 H 0.4863 0.6141 0.6223
C17 C 0.1087(3) 0.4425(2) 0.6104(3)
H6 H 0.0802 0.4542 0.5387
C18 C 0.1361(3) 0.6171(3) 0.8955(3)
H7 H 0.1590 0.6746 0.9407
H8 H 0.1269 0.5603 0.9345
H9 H 0.0666 0.6314 0.8391
C19 C 0.0895(4) -0.1429(3) 0.1520(3)
H10 H 0.0596 -0.1945 0.1039
C20 C 0.3872(3) 0.4600(3) 0.1221(3)
H11 H 0.3747 0.5290 0.1218
C21 C 0.3886(3) 0.9516(3) 0.6243(3)
H12 H 0.3801 1.0206 0.6305
C22 C 0.1091(4) 0.3463(2) 0.6444(3)
H13 H 0.0797 0.2939 0.5972
C23 C 0.4336(3) 0.1443(3) 0.1267(3)
H14 H 0.5079 0.1279 0.1780
C24 C 0.4866(3) 0.4225(4) 0.1203(3)
H15 H 0.5424 0.4659 0.1190
C25 C 0.1210(4) -0.1597(3) 0.2577(3)
H16 H 0.1123 -0.2230 0.2824
C26 C 0.3080(3) 0.3924(2) 0.1244(3)
H17 H 0.2408 0.4176 0.1240
C27 C 0.1655(4) -0.0816(3) 0.3259(3)
H18 H 0.1879 -0.0920 0.3976
C28 C 0.1940(4) 0.4073(3) 0.8184(3)
H19 H 0.2239 0.3967 0.8903
C29 C 0.3062(3) 0.8853(2) 0.6218(2)
H20 H 0.2419 0.9111 0.6275
C30 C 0.4853(3) 0.9126(3) 0.6173(4)
H21 H 0.5436 0.9551 0.6203
C31 C 0.1553(4) 0.1249(3) 0.4256(3)
H22 H 0.1925 0.1754 0.4766
H23 H 0.1441 0.0658 0.4605
H24 H 0.0845 0.1501 0.3791
C32 C 0.1544(4) 0.3282(3) 0.7514(4)
H25 H 0.1578 0.2630 0.7770
C33 C 0.1769(3) 0.0124(2) 0.2883(2)
C34 C 0.4236(4) 0.1032(5) 0.0222(4)
H26 H 0.4304 0.0311 0.0263
H27 H 0.4819 0.1308 0.0032
H28 H 0.3524 0.1213 -0.0296
C35 C 0.4936(3) 0.8105(3) 0.6059(3)
H29 H 0.5573 0.7829 0.6009
C36 C 0.3762(4) 0.6193(4) 0.4666(4)
H30 H 0.3715 0.5481 0.4538
H31 H 0.4310 0.6481 0.4434
H32 H 0.3049 0.6497 0.4290
Mn1A Mn -0.19399(3) 0.67798(3) -0.13221(3)
Mn2A Mn -0.18364(3) 0.17283(3) 0.38242(3)
N1A N 0.07580(19) 0.79572(18) 0.62609(18)
N2A N 0.1213(2) 0.13966(19) -0.03229(19)
O5 O 0.3754(2) 0.39188(19) 0.6126(2)
O6 O 0.3462(2) 0.7405(3) 0.1353(3)
O7 O 0.4002(3) -0.0761(2) 0.2534(3)
O8 O 0.4127(3) 0.2217(3) 0.7287(4)
loop_
_geom_bond_atom_site_label_1
_geom_bond_atom_site_label_2
_geom_bond_site_symmetry_1
_geom_bond_site_symmetry_2
Nb1 C1 1_555 1_555
Mn1 N3 1_555 1_555
Mn2 N4 1_555 1_555
N1 C4 1_555 1_555
C1 N6 1_555 1_555
N2 C5 1_555 1_555
C2 Nb1 1_555 1_555
N3 C2 1_555 1_555
N4 C6 1_555 1_555
C3 Nb1 1_555 1_555
C4 Nb1 1_555 1_555
N5 C7 1_555 1_555
C5 Nb1 1_555 1_555
C6 Nb1 1_555 1_555
C7 Nb1 1_555 1_555
N7 C8 1_555 1_555
C8 Nb1 1_555 1_555
N8 C3 1_555 1_555
O1 Mn2 1_555 1_555
O2 Mn1 1_555 1_555
N9 Mn2 1_555 1_555
N10 Mn1 1_555 1_555
N11 Mn2 1_555 1_555
O3 Mn2 1_555 1_555
N12 Mn1 1_555 1_555
O4 Mn1 1_555 1_555
C9 O1 1_555 1_555
H1 C9 1_555 1_555
C10 O2 1_555 1_555
H2 C10 1_555 1_555
C11 N10 1_555 1_555
C12 N9 1_555 1_555
C13 N11 1_555 1_555
C14 C11 1_555 1_555
H3 C14 1_555 1_555
C15 N12 1_555 1_555
H4 C15 1_555 1_555
C16 O3 1_555 1_555
H5 C16 1_555 1_555
C17 N11 1_555 1_555
H6 C17 1_555 1_555
C18 C9 1_555 1_555
H7 C18 1_555 1_555
H8 C18 1_555 1_555
H9 C18 1_555 1_555
C19 C15 1_555 1_555
H10 C19 1_555 1_555
C20 H11 1_555 1_555
C21 H12 1_555 1_555
C22 C17 1_555 1_555
H13 C22 1_555 1_555
C23 O4 1_555 1_555
H14 C23 1_555 1_555
C24 C14 1_555 1_555
H15 C24 1_555 1_555
C25 C19 1_555 1_555
H16 C25 1_555 1_555
C26 N10 1_555 1_555
H17 C26 1_555 1_555
C27 C25 1_555 1_555
H18 C27 1_555 1_555
C28 C13 1_555 1_555
H19 C28 1_555 1_555
C29 N9 1_555 1_555
H20 C29 1_555 1_555
C30 C21 1_555 1_555
H21 C30 1_555 1_555
C31 C10 1_555 1_555
H22 C31 1_555 1_555
H23 C31 1_555 1_555
H24 C31 1_555 1_555
C32 C22 1_555 1_555
H25 C32 1_555 1_555
C33 N12 1_555 1_555
C34 C23 1_555 1_555
H26 C34 1_555 1_555
H27 C34 1_555 1_555
H28 C34 1_555 1_555
C35 C12 1_555 1_555
H29 C35 1_555 1_555
C36 C16 1_555 1_555
H30 C36 1_555 1_555
H31 C36 1_555 1_555
H32 C36 1_555 1_555
Mn1A N2 1_555 1_555
Mn2A N1 1_555 1_555
N1A Mn2 1_555 1_555
N2A Mn1 1_555 1_555
C9 C13 1_555 1_555
C10 C33 1_555 1_555
C11 C23 1_555 1_555
C12 C16 1_555 1_555
C20 C24 1_555 1_555
C20 C26 1_555 1_555
C21 C29 1_555 1_555
C27 C33 1_555 1_555
C28 C32 1_555 1_555
C30 C35 1_555 1_555

#END
