
#######################################################################
#
#                 Cambridge Crystallographic Data Centre
#                                CCDC 
#
#######################################################################
#
# If this CIF has been generated from an entry in the Cambridge 
# Structural Database, then it will include bibliographic, chemical, 
# crystal, experimental, refinement or atomic coordinate data resulting 
# from the CCDC's data processing and validation procedures.
#
#######################################################################

data_BIHZID
_symmetry_cell_setting           triclinic
_symmetry_space_group_name_H-M   'P -1'
_symmetry_Int_Tables_number      2
_space_group_name_Hall           '-P 1'
loop_
_symmetry_equiv_pos_site_id
_symmetry_equiv_pos_as_xyz
1 x,y,z
2 -x,-y,-z
_cell_length_a                   7.2128(4)
_cell_length_b                   7.3831(4)
_cell_length_c                   9.4670(4)
_cell_angle_alpha                107.164(4)
_cell_angle_beta                 92.654(4)
_cell_angle_gamma                112.675(5)
_cell_volume                     437.073
loop_
_atom_site_label
_atom_site_type_symbol
_atom_site_fract_x
_atom_site_fract_y
_atom_site_fract_z
Hg1 Hg 0.79657(3) 0.22240(2) 0.489957(17)
Cl1 Cl 0.7886(2) 0.0177(2) 0.24477(14)
Cl2 Cl 0.77828(19) 0.55676(18) 0.42540(13)
O1 O 0.6320(6) -0.0971(6) 0.5810(4)
N1 N 0.7582(6) 0.3226(6) 0.7233(5)
C1 C 0.7805(9) 0.5204(8) 0.7867(6)
H1 H 0.8037 0.6063 0.7259
C2 C 0.7713(9) 0.6037(9) 0.9346(6)
H2 H 0.7862 0.7435 0.9755
C3 C 0.7400(9) 0.4791(9) 1.0227(6)
H3 H 0.7350 0.5329 1.1261
C4 C 0.7162(8) 0.2773(9) 0.9600(6)
H4 H 0.6937 0.1903 1.0197
C5 C 0.7249(7) 0.2001(8) 0.8092(5)
C6 C 0.7003(9) -0.0214(8) 0.7398(6)
H5 H 0.8328 -0.0279 0.7612
H6 H 0.6004 -0.1117 0.7855
Hg1A Hg 0.20343(3) -0.22240(2) 0.510043(17)
Hg1A_2 Hg 1.20343(3) 0.77760(2) 0.510043(17)
Cl2A Cl 1.22172(19) 0.44324(18) 0.57460(13)
O1A O 0.3680(6) 0.0971(6) 0.4190(4)
loop_
_geom_bond_atom_site_label_1
_geom_bond_atom_site_label_2
_geom_bond_site_symmetry_1
_geom_bond_site_symmetry_2
Hg1 Cl1 1_555 1_555
Cl2 Hg1 1_555 1_555
O1 Hg1 1_555 1_555
N1 Hg1 1_555 1_555
C1 N1 1_555 1_555
H1 C1 1_555 1_555
C2 C1 1_555 1_555
H2 C2 1_555 1_555
C3 C2 1_555 1_555
H3 C3 1_555 1_555
C4 C3 1_555 1_555
H4 C4 1_555 1_555
C5 N1 1_555 1_555
C6 O1 1_555 1_555
H5 C6 1_555 1_555
H6 C6 1_555 1_555
Hg1A O1 1_555 1_555
Hg1A_2 Cl2 1_555 1_555
Cl2A Hg1 1_555 1_555
O1A Hg1 1_555 1_555
C4 C5 1_555 1_555
C5 C6 1_555 1_555
Hg1A O1A 1_555 1_555
Hg1A_2 Cl2A 1_555 1_555

#END
