
#######################################################################
#
#                 Cambridge Crystallographic Data Centre
#                                CCDC 
#
#######################################################################
#
# If this CIF has been generated from an entry in the Cambridge 
# Structural Database, then it will include bibliographic, chemical, 
# crystal, experimental, refinement or atomic coordinate data resulting 
# from the CCDC's data processing and validation procedures.
#
#######################################################################

data_BIHZEZ
_symmetry_cell_setting           monoclinic
_symmetry_space_group_name_H-M   'C 2/c'
_symmetry_Int_Tables_number      15
_space_group_name_Hall           '-C 2yn'
loop_
_symmetry_equiv_pos_site_id
_symmetry_equiv_pos_as_xyz
1 x,y,z
2 -x,y,1/2-z
3 1/2+x,1/2+y,z
4 1/2-x,1/2+y,1/2-z
5 -x,-y,-z
6 x,-y,1/2+z
7 1/2-x,1/2-y,-z
8 1/2+x,1/2-y,1/2+z
_cell_length_a                   11.6344(5)
_cell_length_b                   11.0503(5)
_cell_length_c                   15.0011(14)
_cell_angle_alpha                90
_cell_angle_beta                 96.075(6)
_cell_angle_gamma                90
_cell_volume                     1917.76
loop_
_atom_site_label
_atom_site_type_symbol
_atom_site_fract_x
_atom_site_fract_y
_atom_site_fract_z
Hg1 Hg 0.94245(4) 0.06419(4) 0.12065(4)
Cl1 Cl 0.8950(3) -0.1210(3) 0.04895(19)
Cl2 Cl 1.1468(2) 0.0292(3) 0.21776(18)
O1 O 0.7283(7) 0.1698(8) 0.0989(5)
N1 N 0.9530(6) 0.2634(7) 0.1154(5)
C1 C 1.0548(9) 0.3154(10) 0.1412(7)
H1 H 1.1191 0.2657 0.1610
C2 C 1.0688(10) 0.4377(11) 0.1398(8)
H2 H 1.1419 0.4730 0.1582
C3 C 0.9754(10) 0.5092(11) 0.1113(7)
H3 H 0.9829 0.5948 0.1107
C4 C 0.8715(10) 0.4558(10) 0.0840(7)
H4 H 0.8064 0.5042 0.0638
C5 C 0.8616(8) 0.3325(9) 0.0857(6)
C6 C 0.7486(9) 0.2698(10) 0.0503(6)
H5 H 0.6833 0.3279 0.0536
O1F O 0.7717(7) 0.3302(8) -0.0989(5)
N1F N 0.5470(6) 0.2366(7) -0.1154(5)
C1F C 0.4452(9) 0.1846(10) -0.1412(7)
H1F H 0.3809 0.2343 -0.1610
C2F C 0.4312(10) 0.0623(11) -0.1398(8)
H2F H 0.3581 0.0270 -0.1582
C3F C 0.5246(10) -0.0092(11) -0.1113(7)
H3F H 0.5171 -0.0948 -0.1107
C4F C 0.6285(10) 0.0442(10) -0.0840(7)
H4F H 0.6936 -0.0042 -0.0638
C5F C 0.6384(8) 0.1675(9) -0.0857(6)
C6F C 0.7514(9) 0.2302(10) -0.0503(6)
H5F H 0.8167 0.1721 -0.0536
Hg1A Hg 1.05755(4) 0.06419(4) 0.37935(4)
Cl1A Cl 1.1050(3) -0.1210(3) 0.45105(19)
Cl2A Cl 0.8532(2) 0.0292(3) 0.28224(18)
Hg1F Hg 0.55755(4) 0.43581(4) -0.12065(4)
O1A O 1.2717(7) 0.1698(8) 0.4011(5)
N1A N 1.0470(6) 0.2634(7) 0.3846(5)
O2 O 0.6301(13) 0.2382(13) 0.2438(9)
H6 H 0.68(4) 0.24(6) 0.20(3)
H7 H 0.63(4) 0.23(4) 0.298(6)
loop_
_geom_bond_atom_site_label_1
_geom_bond_atom_site_label_2
_geom_bond_site_symmetry_1
_geom_bond_site_symmetry_2
Hg1 Cl1 1_555 1_555
Cl2 Hg1 1_555 1_555
O1 Hg1 1_555 1_555
N1 Hg1 1_555 1_555
C1 N1 1_555 1_555
H1 C1 1_555 1_555
C2 C1 1_555 1_555
H2 C2 1_555 1_555
C3 C2 1_555 1_555
H3 C3 1_555 1_555
C4 C3 1_555 1_555
H4 C4 1_555 1_555
C5 N1 1_555 1_555
C6 O1 1_555 1_555
H5 C6 1_555 1_555
O2 H6 1_555 1_555
H7 O2 1_555 1_555
O1F C6F 1_555 1_555
N1F C1F 1_555 1_555
C1F H1F 1_555 1_555
C2F C1F 1_555 1_555
H2F C2F 1_555 1_555
C3F C2F 1_555 1_555
H3F C3F 1_555 1_555
C4F C3F 1_555 1_555
H4F C4F 1_555 1_555
C5F N1F 1_555 1_555
C6F C6 1_555 1_555
H5F C6F 1_555 1_555
Hg1A Cl2 1_555 1_555
Cl1A Hg1A 1_555 1_555
Cl2A Hg1 1_555 1_555
Hg1F O1F 1_555 1_555
O1A Hg1A 1_555 1_555
N1A Hg1A 1_555 1_555
C4 C5 1_555 1_555
C5 C6 1_555 1_555
N1F Hg1F 1_555 1_555
C4F C5F 1_555 1_555
C5F C6F 1_555 1_555
Hg1A Cl2A 1_555 1_555

#END
