
#######################################################################
#
#                 Cambridge Crystallographic Data Centre
#                                CCDC 
#
#######################################################################
#
# If this CIF has been generated from an entry in the Cambridge 
# Structural Database, then it will include bibliographic, chemical, 
# crystal, experimental, refinement or atomic coordinate data resulting 
# from the CCDC's data processing and validation procedures.
#
#######################################################################

data_BIJROD
_symmetry_cell_setting           orthorhombic
_symmetry_space_group_name_H-M   'P b c n'
_symmetry_Int_Tables_number      60
_space_group_name_Hall           '-P 2n 2ab'
loop_
_symmetry_equiv_pos_site_id
_symmetry_equiv_pos_as_xyz
1 x,y,z
2 1/2-x,1/2-y,1/2+z
3 -x,y,1/2-z
4 1/2+x,1/2-y,-z
5 -x,-y,-z
6 1/2+x,1/2+y,1/2-z
7 x,-y,1/2+z
8 1/2-x,1/2+y,z
_cell_length_a                   7.4378(5)
_cell_length_b                   20.8710(14)
_cell_length_c                   33.529(2)
_cell_angle_alpha                90
_cell_angle_beta                 90
_cell_angle_gamma                90
_cell_volume                     5204.85
loop_
_atom_site_label
_atom_site_type_symbol
_atom_site_fract_x
_atom_site_fract_y
_atom_site_fract_z
Cd1 Cd 0.17197(3) 0.019284(12) 0.042181(7)
Cd2 Cd 0.46477(4) -0.001615(13) 0.130952(8)
O1 O -0.1312(4) 0.19275(13) 0.20363(8)
O2 O -0.2311(3) -0.02326(12) 0.14599(8)
O3 O 0.2094(3) -0.03515(12) 0.10319(7)
O4 O -0.0335(4) -0.07100(13) 0.07407(8)
O5 O 0.2790(3) 0.08357(12) -0.00796(7)
H1 H 0.390(3) 0.0745(18) -0.0126(11)
H2 H 0.223(4) 0.0769(18) -0.0296(8)
O6 O 0.5095(3) 0.04819(12) 0.06838(7)
O7 O 0.8862(3) 0.05118(12) 0.01383(7)
O8 O 0.6383(3) 0.06423(12) -0.02053(7)
O9 O 0.5386(4) 0.10665(13) 0.12286(7)
N1 N -0.3439(4) 0.02777(15) 0.30912(9)
N2 N -0.1594(4) 0.08494(14) 0.19645(9)
H3 H -0.160(5) 0.0521(14) 0.1796(10)
N3 N 0.1030(4) 0.10395(14) 0.08418(8)
C1 C -0.2649(5) -0.0816(2) 0.14551(13)
C2 C -0.1152(5) -0.12788(18) 0.15375(12)
C3 C 0.1693(6) -0.20730(19) 0.17471(12)
H4 H 0.2670 -0.2336 0.1827
C4 C 0.1264(5) 0.16321(18) 0.07008(11)
H5 H 0.1819 0.1681 0.0447
C5 C 0.7700(5) 0.25942(18) 0.02202(11)
H6 H 0.8226 0.2949 0.0087
C6 C -0.0093(5) 0.21060(18) 0.12669(11)
H7 H -0.0495 0.2472 0.1409
C7 C -0.3307(5) 0.08997(19) 0.29962(11)
H8 H -0.3664 0.1206 0.3190
C8 C 0.7140(5) 0.14576(16) 0.02605(10)
C9 C 0.1939(5) -0.16000(18) 0.14595(11)
H9 H 0.3080 -0.1548 0.1336
C10 C 0.0746(5) 0.21743(18) 0.09029(11)
H10 H 0.0962 0.2587 0.0794
C11 C -0.2326(5) 0.00375(18) 0.24409(11)
H11 H -0.1996 -0.0278 0.2250
C12 C 0.6039(5) 0.21701(18) 0.07709(11)
H12 H 0.5407 0.2237 0.1014
C13 C 0.7875(5) 0.19836(17) 0.00643(11)
H13 H 0.8503 0.1923 -0.0179
C14 C -0.0345(5) 0.14981(17) 0.14230(10)
C15 C 0.0227(5) 0.09763(17) 0.11978(10)
H14 H 0.0042 0.0557 0.1301
C16 C -0.2689(5) 0.11229(18) 0.26353(11)
C17 C 0.0527(5) -0.12075(16) 0.13539(10)
C18 C -0.2202(5) 0.06846(18) 0.23446(10)
C19 C 0.6759(5) 0.26856(18) 0.05706(12)
H15 H 0.6608 0.3106 0.0674
C20 C 0.0740(5) -0.07312(16) 0.10206(10)
C21 C -0.1157(5) 0.14524(18) 0.18321(11)
C22 C 0.6233(5) 0.15482(17) 0.06197(10)
C23 C 0.7449(5) 0.08196(17) 0.00632(10)
C24 C -0.2925(5) -0.01434(19) 0.28111(11)
H16 H -0.2979 -0.0588 0.2872
C25 C 0.5523(5) 0.09989(17) 0.08577(11)
C26 C -0.0002(6) -0.2157(2) 0.19161(14)
H17 H -0.0190 -0.2488 0.2106
C27 C -0.1409(6) -0.1761(2) 0.18101(13)
H18 H -0.2561 -0.1823 0.1926
H19 H -0.2599 0.1571 0.2586
O10 O -0.4224(10) -0.1029(4) 0.13588(16)
Cd1_2 Cd 1.17197(3) 0.019284(12) 0.042181(7)
Cd1D Cd 0.82803(3) -0.019284(12) -0.042181(7)
Cd2_2 Cd -0.53523(4) -0.001615(13) 0.130952(8)
Cd2B Cd -0.46477(4) -0.001615(13) 0.369048(8)
O2_2 O 0.7689(3) -0.02326(12) 0.14599(8)
O7_2 O -0.1138(3) 0.05118(12) 0.01383(7)
O7D O 0.1138(3) -0.05118(12) -0.01383(7)
O8D O 0.3617(3) -0.06423(12) 0.02053(7)
N1B N 0.3439(4) 0.02777(15) 0.19088(9)
O10_2 O 0.5776(10) -0.1029(4) 0.13588(16)
O12 O -0.5000 -0.1790(11) 0.2500
O11? O -0.413(4) -0.0992(14) 0.1518(6)
loop_
_geom_bond_atom_site_label_1
_geom_bond_atom_site_label_2
_geom_bond_site_symmetry_1
_geom_bond_site_symmetry_2
Cd1 O3 1_555 1_555
Cd2 O3 1_555 1_555
O1 C21 1_555 1_555
O2 C1 1_555 1_555
O3 C20 1_555 1_555
O4 Cd1 1_555 1_555
O5 Cd1 1_555 1_555
H1 O5 1_555 1_555
H2 O5 1_555 1_555
O6 Cd1 1_555 1_555
O7 C23 1_555 1_555
O8 C23 1_555 1_555
O9 Cd2 1_555 1_555
N1 C7 1_555 1_555
N2 H3 1_555 1_555
N3 Cd1 1_555 1_555
C1 C2 1_555 1_555
C2 C17 1_555 1_555
C3 H4 1_555 1_555
C4 N3 1_555 1_555
H5 C4 1_555 1_555
C5 H6 1_555 1_555
C6 H7 1_555 1_555
C7 H8 1_555 1_555
C8 C13 1_555 1_555
C9 C3 1_555 1_555
H9 C9 1_555 1_555
C10 C4 1_555 1_555
H10 C10 1_555 1_555
C11 H11 1_555 1_555
C12 H12 1_555 1_555
C13 C5 1_555 1_555
H13 C13 1_555 1_555
C14 C6 1_555 1_555
C15 N3 1_555 1_555
H14 C15 1_555 1_555
C16 C7 1_555 1_555
C17 C9 1_555 1_555
C18 N2 1_555 1_555
C19 C5 1_555 1_555
H15 C19 1_555 1_555
C20 O4 1_555 1_555
C21 N2 1_555 1_555
C22 C8 1_555 1_555
C23 C8 1_555 1_555
C24 N1 1_555 1_555
H16 C24 1_555 1_555
C25 O6 1_555 1_555
C26 C3 1_555 1_555
H17 C26 1_555 1_555
C27 C2 1_555 1_555
H18 C27 1_555 1_555
H19 C16 1_555 1_555
O10 C1 1_555 1_555
Cd1_2 O7 1_555 1_555
Cd1D O7 1_555 1_555
Cd2_2 O2 1_555 1_555
Cd2B N1 1_555 1_555
O2_2 Cd2 1_555 1_555
O7_2 Cd1 1_555 1_555
O7D Cd1 1_555 1_555
O8D Cd1 1_555 1_555
N1B Cd2 1_555 1_555
O10_2 Cd2 1_555 1_555
Cd2 O6 1_555 1_555
O8 Cd1D 1_555 1_555
O9 C25 1_555 1_555
C6 C10 1_555 1_555
C11 C18 1_555 1_555
C11 C24 1_555 1_555
C12 C19 1_555 1_555
C12 C22 1_555 1_555
C14 C15 1_555 1_555
C14 C21 1_555 1_555
C16 C18 1_555 1_555
C17 C20 1_555 1_555
C22 C25 1_555 1_555
C26 C27 1_555 1_555
O10 Cd2_2 1_555 1_555

#END
