
#######################################################################
#
#                 Cambridge Crystallographic Data Centre
#                                CCDC 
#
#######################################################################
#
# If this CIF has been generated from an entry in the Cambridge 
# Structural Database, then it will include bibliographic, chemical, 
# crystal, experimental, refinement or atomic coordinate data resulting 
# from the CCDC's data processing and validation procedures.
#
#######################################################################

data_BIJSAP
_symmetry_cell_setting           triclinic
_symmetry_space_group_name_H-M   'P -1'
_symmetry_Int_Tables_number      2
_space_group_name_Hall           '-P 1'
loop_
_symmetry_equiv_pos_site_id
_symmetry_equiv_pos_as_xyz
1 x,y,z
2 -x,-y,-z
_cell_length_a                   11.7984(5)
_cell_length_b                   14.7047(6)
_cell_length_c                   16.5434(7)
_cell_angle_alpha                90.1680(10)
_cell_angle_beta                 104.6650(10)
_cell_angle_gamma                98.7190(10)
_cell_volume                     2741.99
loop_
_atom_site_label
_atom_site_type_symbol
_atom_site_fract_x
_atom_site_fract_y
_atom_site_fract_z
Co1 Co 0.0000 0.0000 0.0000
Co2 Co 0.39242(3) 0.56431(2) 0.35722(2)
N1 N -0.03975(18) -0.04537(14) 0.10497(13)
N2 N 0.13334(19) -0.07030(14) 0.02206(13)
N3 N 0.28691(19) 0.45112(14) 0.36917(13)
N4 N 0.40720(19) 0.60274(14) 0.47431(13)
N5 N 0.50198(19) 0.67604(14) 0.34562(13)
N6 N 0.40073(19) 0.51665(14) 0.24784(13)
C1 C -0.1249(2) -0.01966(18) 0.14042(16)
C2 C -0.1208(2) -0.06202(18) 0.21897(16)
H1 H -0.1689 -0.0537 0.2557
C3 C -0.0361(2) -0.11556(17) 0.23057(16)
H2 H -0.0141 -0.1534 0.2766
C4 C 0.0154(2) -0.10502(16) 0.16041(15)
C5 C 0.1082(2) -0.14778(17) 0.14945(15)
C6 C 0.1660(2) -0.12763(18) 0.08682(16)
C7 C 0.2694(3) -0.1648(2) 0.08085(19)
H3 H 0.3098 -0.2050 0.1185
C8 C 0.2983(3) -0.1318(2) 0.0117(2)
H4 H 0.3634 -0.1439 -0.0084
C9 C 0.2119(3) -0.0750(2) -0.02598(18)
C10 C -0.2076(3) 0.03572(19) 0.10296(17)
C11 C 0.1490(2) -0.22228(17) 0.20604(16)
C12 C 0.1365(2) -0.31166(17) 0.17260(16)
H5 H 0.0934 -0.3270 0.1163
C13 C 0.1876(2) -0.37765(17) 0.22248(16)
H6 H 0.1788 -0.4380 0.1988
N7 N 0.24862(19) -0.36067(14) 0.30237(13)
C14 C 0.2531(2) -0.27641(17) 0.33559(16)
H7 H 0.2912 -0.2644 0.3933
C15 C 0.2054(2) -0.20589(17) 0.29030(16)
H8 H 0.2111 -0.1472 0.3166
C16 C -0.2969(3) 0.0581(2) 0.14760(19)
C17 C -0.2765(4) 0.1389(3) 0.1939(3)
H9 H -0.2029 0.1787 0.2018
C18 C -0.3637(5) 0.1631(4) 0.2296(3)
H10 H -0.3491 0.2198 0.2608
C19 C -0.4684(4) 0.1071(5) 0.2204(3)
H11 H -0.5264 0.1230 0.2463
C20 C -0.4888(4) 0.0289(5) 0.1740(3)
H12 H -0.5632 -0.0099 0.1659
C21 C -0.4042(3) 0.0028(4) 0.1375(2)
H13 H -0.4209 -0.0536 0.1055
C22 C 0.2368(2) 0.38027(17) 0.31001(16)
C23 C 0.1428(2) 0.32182(18) 0.33434(17)
H14 H 0.0935 0.2695 0.3035
C24 C 0.1380(2) 0.35527(18) 0.40893(17)
H15 H 0.0841 0.3313 0.4405
C25 C 0.2297(2) 0.43414(17) 0.43185(16)
C26 C 0.2602(2) 0.48236(17) 0.50882(16)
C27 C 0.3498(2) 0.55786(17) 0.52953(16)
C28 C 0.3931(2) 0.60249(18) 0.61160(16)
H16 H 0.3687 0.5840 0.6604
C29 C 0.4745(2) 0.67532(18) 0.60598(16)
H17 H 0.5193 0.7175 0.6502
C30 C 0.4810(2) 0.67717(17) 0.52020(16)
C31 C 0.5442(2) 0.74829(17) 0.48665(16)
C32 C 0.5466(2) 0.74890(17) 0.40292(16)
C33 C 0.5943(3) 0.82768(19) 0.36407(18)
H18 H 0.6290 0.8864 0.3903
C34 C 0.5804(3) 0.8024(2) 0.28348(18)
H19 H 0.6020 0.8404 0.2417
C35 C 0.5270(2) 0.70742(18) 0.27233(17)
C36 C 0.5100(2) 0.65325(18) 0.19970(16)
C37 C 0.4590(2) 0.56086(17) 0.19296(16)
C38 C 0.4551(3) 0.49911(19) 0.12441(17)
H20 H 0.4905 0.5126 0.0794
C39 C 0.3916(3) 0.41844(19) 0.13630(18)
H21 H 0.3750 0.3638 0.1018
C40 C 0.3540(2) 0.43055(17) 0.21089(16)
C41 C 0.2726(2) 0.36720(17) 0.23782(16)
C42 C 0.1942(2) 0.44858(18) 0.57197(16)
C43 C 0.2084(3) 0.3635(2) 0.60707(19)
H22 H 0.2634 0.3291 0.5933
C44 C 0.1429(3) 0.3291(2) 0.6618(2)
H23 H 0.1535 0.2712 0.6854
C45 C 0.0625(3) 0.3778(2) 0.6826(2)
H24 H 0.0180 0.3539 0.7205
C46 C 0.0474(3) 0.4616(2) 0.6479(2)
H25 H -0.0086 0.4952 0.6612
C47 C 0.1137(3) 0.4970(2) 0.59357(19)
H26 H 0.1036 0.5554 0.5709
C48 C 0.6085(3) 0.83128(18) 0.54063(16)
C49 C 0.5488(3) 0.8895(2) 0.5742(2)
H27 H 0.4652 0.8760 0.5657
C50 C 0.6132(4) 0.9682(2) 0.6206(2)
H28 H 0.5705 1.0080 0.6422
N8 N 0.7295(3) 0.99110(19) 0.63666(18)
C51 C 0.7861(3) 0.9351(2) 0.6046(2)
H29 H 0.8699 0.9502 0.6151
C52 C 0.7307(3) 0.8558(2) 0.55641(19)
H30 H 0.7759 0.8186 0.5344
C53 C 0.5472(3) 0.69470(19) 0.12623(17)
C54 C 0.6625(4) 0.7369(3) 0.1331(2)
H31 H 0.7204 0.7372 0.1849
C55 C 0.6950(4) 0.7788(3) 0.0653(3)
H32 H 0.7744 0.8079 0.0712
C56 C 0.6125(4) 0.7782(2) -0.0102(2)
H33 H 0.6343 0.8080 -0.0561
C57 C 0.4986(4) 0.7343(2) -0.0189(2)
H34 H 0.4420 0.7322 -0.0715
C58 C 0.4655(3) 0.69279(19) 0.04894(18)
H35 H 0.3862 0.6629 0.0424
C59 C 0.2171(2) 0.28264(18) 0.18331(17)
C60 C 0.1487(3) 0.28898(18) 0.10203(17)
H36 H 0.1368 0.3475 0.0803
C61 C 0.0985(3) 0.20963(18) 0.05327(17)
H37 H 0.0516 0.2156 -0.0017
N9 N 0.1121(2) 0.12460(15) 0.07897(14)
C62 C 0.1779(2) 0.11854(17) 0.15709(16)
H38 H 0.1888 0.0591 0.1768
C63 C 0.2312(2) 0.19449(17) 0.21081(16)
H39 H 0.2769 0.1865 0.2658
N1A N 0.03975(18) 0.04537(14) -0.10497(13)
C1A C 0.1249(2) 0.01966(18) -0.14042(16)
C2A C 0.1208(2) 0.06202(18) -0.21897(16)
H1A H 0.1689 0.0537 -0.2557
C3A C 0.0361(2) 0.11556(17) -0.23057(16)
H2A H 0.0141 0.1534 -0.2766
C4A C -0.0154(2) 0.10502(16) -0.16041(15)
C5A C -0.1082(2) 0.14778(17) -0.14945(15)
C6A C -0.1660(2) 0.12763(18) -0.08682(16)
N2A N -0.13334(19) 0.07030(14) -0.02206(13)
Co2_2 Co 0.39242(3) -0.43569(2) 0.35722(2)
N7_2 N 0.24862(19) 0.63933(14) 0.30237(13)
N9A N -0.1121(2) -0.12460(15) -0.07897(14)
C61A C -0.0985(3) -0.20963(18) -0.05327(17)
C60A C -0.1487(3) -0.28898(18) -0.10203(17)
C59A C -0.2171(2) -0.28264(18) -0.18331(17)
C41A C -0.2726(2) -0.36720(17) -0.23782(16)
C22A C -0.2368(2) -0.38027(17) -0.31001(16)
N3A N -0.28691(19) -0.45112(14) -0.36917(13)
Co2A Co -0.39242(3) -0.56431(2) -0.35722(2)
N4A N -0.40720(19) -0.60274(14) -0.47431(13)
C27A C -0.3498(2) -0.55786(17) -0.52953(16)
C26A C -0.2602(2) -0.48236(17) -0.50882(16)
C25A C -0.2297(2) -0.43414(17) -0.43185(16)
C24A C -0.1380(2) -0.35527(18) -0.40893(17)
C23A C -0.1428(2) -0.32182(18) -0.33434(17)
H14A H -0.0935 -0.2695 -0.3035
H15A H -0.0841 -0.3313 -0.4405
C42A C -0.1942(2) -0.44858(18) -0.57197(16)
C43A C -0.2084(3) -0.3635(2) -0.60707(19)
H22A H -0.2634 -0.3291 -0.5933
C44A C -0.1429(3) -0.3291(2) -0.6618(2)
H23A H -0.1535 -0.2712 -0.6854
C45A C -0.0625(3) -0.3778(2) -0.6826(2)
H24A H -0.0180 -0.3539 -0.7205
C46A C -0.0474(3) -0.4616(2) -0.6479(2)
H25A H 0.0086 -0.4952 -0.6612
C47A C -0.1137(3) -0.4970(2) -0.59357(19)
H26A H -0.1036 -0.5554 -0.5709
C28A C -0.3931(2) -0.60249(18) -0.61160(16)
H16A H -0.3687 -0.5840 -0.6604
C29A C -0.4745(2) -0.67532(18) -0.60598(16)
H17A H -0.5193 -0.7175 -0.6502
C30A C -0.4810(2) -0.67717(17) -0.52020(16)
C31A C -0.5442(2) -0.74829(17) -0.48665(16)
C32A C -0.5466(2) -0.74890(17) -0.40292(16)
N5A N -0.50198(19) -0.67604(14) -0.34562(13)
N6A N -0.40073(19) -0.51665(14) -0.24784(13)
C37A C -0.4590(2) -0.56086(17) -0.19296(16)
C36A C -0.5100(2) -0.65325(18) -0.19970(16)
C35A C -0.5270(2) -0.70742(18) -0.27233(17)
C34A C -0.5804(3) -0.8024(2) -0.28348(18)
C33A C -0.5943(3) -0.82768(19) -0.36407(18)
H18A H -0.6290 -0.8864 -0.3903
H19A H -0.6020 -0.8404 -0.2417
C53A C -0.5472(3) -0.69470(19) -0.12623(17)
C54A C -0.6625(4) -0.7369(3) -0.1331(2)
H31A H -0.7204 -0.7372 -0.1849
C55A C -0.6950(4) -0.7788(3) -0.0653(3)
H32A H -0.7744 -0.8079 -0.0712
C56A C -0.6125(4) -0.7782(2) 0.0102(2)
H33A H -0.6343 -0.8080 0.0561
C57A C -0.4986(4) -0.7343(2) 0.0189(2)
H34A H -0.4420 -0.7322 0.0715
C58A C -0.4655(3) -0.69279(19) -0.04894(18)
H35A H -0.3862 -0.6629 -0.0424
C38A C -0.4551(3) -0.49911(19) -0.12441(17)
H20A H -0.4905 -0.5126 -0.0794
C39A C -0.3916(3) -0.41844(19) -0.13630(18)
H21A H -0.3750 -0.3638 -0.1018
C40A C -0.3540(2) -0.43055(17) -0.21089(16)
N7A N -0.24862(19) -0.63933(14) -0.30237(13)
C48A C -0.6085(3) -0.83128(18) -0.54063(16)
C49A C -0.5488(3) -0.8895(2) -0.5742(2)
H27A H -0.4652 -0.8760 -0.5657
C50A C -0.6132(4) -0.9682(2) -0.6206(2)
H28A H -0.5705 -1.0080 -0.6422
N8A N -0.7295(3) -0.99110(19) -0.63666(18)
C51A C -0.7861(3) -0.9351(2) -0.6046(2)
H29A H -0.8699 -0.9502 -0.6151
C52A C -0.7307(3) -0.8558(2) -0.55641(19)
H30A H -0.7759 -0.8186 -0.5344
C63A C -0.2312(2) -0.19449(17) -0.21081(16)
C62A C -0.1779(2) -0.11854(17) -0.15709(16)
H38A H -0.1888 -0.0591 -0.1768
H39A H -0.2769 -0.1865 -0.2658
H36A H -0.1368 -0.3475 -0.0803
H37A H -0.0516 -0.2156 0.0017
C9A C -0.2119(3) 0.0750(2) 0.02598(18)
C8A C -0.2983(3) 0.1318(2) -0.0117(2)
C7A C -0.2694(3) 0.1648(2) -0.08085(19)
H3A H -0.3098 0.2050 -0.1185
H4A H -0.3634 0.1439 0.0084
C11A C -0.1490(2) 0.22228(17) -0.20604(16)
C10A C 0.2076(3) -0.03572(19) -0.10296(17)
C16A C 0.2969(3) -0.0581(2) -0.14760(19)
C17A C 0.2765(4) -0.1389(3) -0.1939(3)
H9A H 0.2029 -0.1787 -0.2018
C18A C 0.3637(5) -0.1631(4) -0.2296(3)
H10A H 0.3491 -0.2198 -0.2608
C19A C 0.4684(4) -0.1071(5) -0.2204(3)
H11A H 0.5264 -0.1230 -0.2463
C20A C 0.4888(4) -0.0289(5) -0.1740(3)
H12A H 0.5632 0.0099 -0.1659
C21A C 0.4042(3) -0.0028(4) -0.1375(2)
H13A H 0.4209 0.0536 -0.1055
C12A C -0.1365(2) 0.31166(17) -0.17260(16)
C15A C -0.2054(2) 0.20589(17) -0.29030(16)
H5A H -0.0934 0.3270 -0.1163
C13A C -0.1876(2) 0.37765(17) -0.22248(16)
C14A C -0.2531(2) 0.27641(17) -0.33559(16)
H8A H -0.2111 0.1472 -0.3166
H6A H -0.1788 0.4380 -0.1988
N7A_2 N -0.24862(19) 0.36067(14) -0.30237(13)
H7A H -0.2912 0.2644 -0.3933
Co2A_2 Co -0.39242(3) 0.43569(2) -0.35722(2)
O1 O -0.3131(11) -0.9501(6) 0.4320(7)
N10 N -0.1279(3) -0.8513(3) 0.4581(2)
C64 C -0.2149(8) -0.9456(6) 0.4304(7)
C65 C -0.1752(5) -0.7694(4) 0.4539(5)
H40 H -0.1111 -0.7176 0.4743
H41 H -0.2317 -0.7728 0.4886
H42 H -0.2161 -0.7603 0.3957
C66 C -0.0137(11) -0.8764(10) 0.4698(15)
O2 O 0.2421(6) -0.3569(4) -0.2316(4)
N11 N 0.1778(5) -0.4532(4) -0.1157(5)
C67 C 0.2500(6) -0.4323(6) -0.1897(6)
C68 C 0.1145(6) -0.3859(4) -0.1147(4)
H43 H 0.1302 -0.3405 -0.1554
H44 H 0.1369 -0.3561 -0.0587
H45 H 0.0299 -0.4116 -0.1294
C69 C 0.2038(7) -0.5392(5) -0.0920(5)
O3? O 0.0216(6) -0.8921(5) 0.5530(4)
C70? C -0.0392(7) -0.8372(6) 0.5299(5)
C71? C -0.1427(12) -0.9132(8) 0.3962(7)
O4? O 0.0532(10) -0.5011(10) -0.0094(8)
C72? C 0.1263(15) -0.5186(12) -0.0440(10)
C73? C 0.2493(16) -0.4675(10) -0.1319(7)
loop_
_geom_bond_atom_site_label_1
_geom_bond_atom_site_label_2
_geom_bond_site_symmetry_1
_geom_bond_site_symmetry_2
Co1 N1 1_555 1_555
Co2 N3 1_555 1_555
N1 C1 1_555 1_555
N2 Co1 1_555 1_555
N3 C22 1_555 1_555
N4 Co2 1_555 1_555
N5 Co2 1_555 1_555
N6 Co2 1_555 1_555
C1 C2 1_555 1_555
C2 H1 1_555 1_555
C3 C2 1_555 1_555
H2 C3 1_555 1_555
C4 N1 1_555 1_555
C5 C4 1_555 1_555
C6 N2 1_555 1_555
C7 C6 1_555 1_555
H3 C7 1_555 1_555
C8 C7 1_555 1_555
H4 C8 1_555 1_555
C9 N2 1_555 1_555
C10 C1 1_555 1_555
C11 C5 1_555 1_555
C12 C11 1_555 1_555
H5 C12 1_555 1_555
C13 C12 1_555 1_555
H6 C13 1_555 1_555
N7 C13 1_555 1_555
C14 N7 1_555 1_555
H7 C14 1_555 1_555
C15 C11 1_555 1_555
H8 C15 1_555 1_555
C16 C10 1_555 1_555
C17 C16 1_555 1_555
H9 C17 1_555 1_555
C18 C17 1_555 1_555
H10 C18 1_555 1_555
C19 C18 1_555 1_555
H11 C19 1_555 1_555
C20 C19 1_555 1_555
H12 C20 1_555 1_555
C21 C16 1_555 1_555
H13 C21 1_555 1_555
C22 C23 1_555 1_555
C23 H14 1_555 1_555
C24 C23 1_555 1_555
H15 C24 1_555 1_555
C25 N3 1_555 1_555
C26 C25 1_555 1_555
C27 N4 1_555 1_555
C28 C27 1_555 1_555
H16 C28 1_555 1_555
C29 C28 1_555 1_555
H17 C29 1_555 1_555
C30 N4 1_555 1_555
C31 C30 1_555 1_555
C32 N5 1_555 1_555
C33 C32 1_555 1_555
H18 C33 1_555 1_555
C34 C33 1_555 1_555
H19 C34 1_555 1_555
C35 N5 1_555 1_555
C36 C35 1_555 1_555
C37 N6 1_555 1_555
C38 C37 1_555 1_555
H20 C38 1_555 1_555
C39 C38 1_555 1_555
H21 C39 1_555 1_555
C40 N6 1_555 1_555
C41 C22 1_555 1_555
C42 C26 1_555 1_555
C43 C42 1_555 1_555
H22 C43 1_555 1_555
C44 C43 1_555 1_555
H23 C44 1_555 1_555
C45 C44 1_555 1_555
H24 C45 1_555 1_555
C46 C45 1_555 1_555
H25 C46 1_555 1_555
C47 C42 1_555 1_555
H26 C47 1_555 1_555
C48 C31 1_555 1_555
C49 C48 1_555 1_555
H27 C49 1_555 1_555
C50 C49 1_555 1_555
H28 C50 1_555 1_555
N8 C50 1_555 1_555
C51 N8 1_555 1_555
H29 C51 1_555 1_555
C52 C48 1_555 1_555
H30 C52 1_555 1_555
C53 C36 1_555 1_555
C54 C53 1_555 1_555
H31 C54 1_555 1_555
C55 C54 1_555 1_555
H32 C55 1_555 1_555
C56 C55 1_555 1_555
H33 C56 1_555 1_555
C57 C56 1_555 1_555
H34 C57 1_555 1_555
C58 C53 1_555 1_555
H35 C58 1_555 1_555
C59 C41 1_555 1_555
C60 C59 1_555 1_555
H36 C60 1_555 1_555
C61 C60 1_555 1_555
H37 C61 1_555 1_555
N9 Co1 1_555 1_555
C62 N9 1_555 1_555
H38 C62 1_555 1_555
C63 C59 1_555 1_555
H39 C63 1_555 1_555
O1 C64 1_555 1_555
N10 C64 1_555 1_555
C65 N10 1_555 1_555
H40 C65 1_555 1_555
H41 C65 1_555 1_555
H42 C65 1_555 1_555
C66 N10 1_555 1_555
O2 C67 1_555 1_555
N11 C67 1_555 1_555
C68 N11 1_555 1_555
H43 C68 1_555 1_555
H44 C68 1_555 1_555
H45 C68 1_555 1_555
C69 N11 1_555 1_555
N1A Co1 1_555 1_555
C1A N1A 1_555 1_555
C2A C1A 1_555 1_555
H1A C2A 1_555 1_555
C3A C2A 1_555 1_555
H2A C3A 1_555 1_555
C4A N1A 1_555 1_555
C5A C4A 1_555 1_555
C6A C5A 1_555 1_555
N2A Co1 1_555 1_555
Co2_2 N7 1_555 1_555
N7_2 Co2 1_555 1_555
N9A Co1 1_555 1_555
C61A N9A 1_555 1_555
C60A C61A 1_555 1_555
C59A C60A 1_555 1_555
C41A C59A 1_555 1_555
C22A C41A 1_555 1_555
N3A C22A 1_555 1_555
Co2A N3A 1_555 1_555
N4A Co2A 1_555 1_555
C27A N4A 1_555 1_555
C26A C27A 1_555 1_555
C25A N3A 1_555 1_555
C24A C25A 1_555 1_555
C23A C22A 1_555 1_555
H14A C23A 1_555 1_555
H15A C24A 1_555 1_555
C42A C26A 1_555 1_555
C43A C42A 1_555 1_555
H22A C43A 1_555 1_555
C44A C43A 1_555 1_555
H23A C44A 1_555 1_555
C45A C44A 1_555 1_555
H24A C45A 1_555 1_555
C46A C45A 1_555 1_555
H25A C46A 1_555 1_555
C47A C42A 1_555 1_555
H26A C47A 1_555 1_555
C28A C27A 1_555 1_555
H16A C28A 1_555 1_555
C29A C28A 1_555 1_555
H17A C29A 1_555 1_555
C30A N4A 1_555 1_555
C31A C30A 1_555 1_555
C32A C31A 1_555 1_555
N5A Co2A 1_555 1_555
N6A Co2A 1_555 1_555
C37A N6A 1_555 1_555
C36A C37A 1_555 1_555
C35A N5A 1_555 1_555
C34A C35A 1_555 1_555
C33A C32A 1_555 1_555
H18A C33A 1_555 1_555
H19A C34A 1_555 1_555
C53A C36A 1_555 1_555
C54A C53A 1_555 1_555
H31A C54A 1_555 1_555
C55A C54A 1_555 1_555
H32A C55A 1_555 1_555
C56A C55A 1_555 1_555
H33A C56A 1_555 1_555
C57A C56A 1_555 1_555
H34A C57A 1_555 1_555
C58A C53A 1_555 1_555
H35A C58A 1_555 1_555
C38A C37A 1_555 1_555
H20A C38A 1_555 1_555
C39A C38A 1_555 1_555
H21A C39A 1_555 1_555
C40A C41A 1_555 1_555
N7A Co2A 1_555 1_555
C48A C31A 1_555 1_555
C49A C48A 1_555 1_555
H27A C49A 1_555 1_555
C50A C49A 1_555 1_555
H28A C50A 1_555 1_555
N8A C50A 1_555 1_555
C51A N8A 1_555 1_555
H29A C51A 1_555 1_555
C52A C48A 1_555 1_555
H30A C52A 1_555 1_555
C63A C59A 1_555 1_555
C62A N9A 1_555 1_555
H38A C62A 1_555 1_555
H39A C63A 1_555 1_555
H36A C60A 1_555 1_555
H37A C61A 1_555 1_555
C9A C10 1_555 1_555
C8A C9A 1_555 1_555
C7A C6A 1_555 1_555
H3A C7A 1_555 1_555
H4A C8A 1_555 1_555
C11A C5A 1_555 1_555
C10A C9 1_555 1_555
C16A C10A 1_555 1_555
C17A C16A 1_555 1_555
H9A C17A 1_555 1_555
C18A C17A 1_555 1_555
H10A C18A 1_555 1_555
C19A C18A 1_555 1_555
H11A C19A 1_555 1_555
C20A C19A 1_555 1_555
H12A C20A 1_555 1_555
C21A C16A 1_555 1_555
H13A C21A 1_555 1_555
C12A C11A 1_555 1_555
C15A C11A 1_555 1_555
H5A C12A 1_555 1_555
C13A C12A 1_555 1_555
C14A C15A 1_555 1_555
H8A C15A 1_555 1_555
H6A C13A 1_555 1_555
N7A_2 C13A 1_555 1_555
H7A C14A 1_555 1_555
Co2A_2 N7A_2 1_555 1_555
C3 C4 1_555 1_555
C5 C6 1_555 1_555
C8 C9 1_555 1_555
C14 C15 1_555 1_555
C20 C21 1_555 1_555
C24 C25 1_555 1_555
C26 C27 1_555 1_555
C29 C30 1_555 1_555
C31 C32 1_555 1_555
C34 C35 1_555 1_555
C36 C37 1_555 1_555
C39 C40 1_555 1_555
C40 C41 1_555 1_555
C46 C47 1_555 1_555
C51 C52 1_555 1_555
C57 C58 1_555 1_555
C61 N9 1_555 1_555
C62 C63 1_555 1_555
C1A C10A 1_555 1_555
C3A C4A 1_555 1_555
C6A N2A 1_555 1_555
N2A C9A 1_555 1_555
C26A C25A 1_555 1_555
C24A C23A 1_555 1_555
C46A C47A 1_555 1_555
C29A C30A 1_555 1_555
C32A N5A 1_555 1_555
N6A C40A 1_555 1_555
C36A C35A 1_555 1_555
C34A C33A 1_555 1_555
C57A C58A 1_555 1_555
C39A C40A 1_555 1_555
C51A C52A 1_555 1_555
C63A C62A 1_555 1_555
C8A C7A 1_555 1_555
C20A C21A 1_555 1_555
C14A N7A_2 1_555 1_555

#END
