
#######################################################################
#
#                 Cambridge Crystallographic Data Centre
#                                CCDC 
#
#######################################################################
#
# If this CIF has been generated from an entry in the Cambridge 
# Structural Database, then it will include bibliographic, chemical, 
# crystal, experimental, refinement or atomic coordinate data resulting 
# from the CCDC's data processing and validation procedures.
#
#######################################################################

data_BIJYEA
_symmetry_cell_setting           triclinic
_symmetry_space_group_name_H-M   'P -1'
_symmetry_Int_Tables_number      2
_space_group_name_Hall           '-P 1'
loop_
_symmetry_equiv_pos_site_id
_symmetry_equiv_pos_as_xyz
1 x,y,z
2 -x,-y,-z
_cell_length_a                   12.5891(19)
_cell_length_b                   12.5922(18)
_cell_length_c                   21.591(3)
_cell_angle_alpha                92.809(3)
_cell_angle_beta                 95.080(3)
_cell_angle_gamma                112.417(3)
_cell_volume                     3138.87
loop_
_atom_site_label
_atom_site_type_symbol
_atom_site_fract_x
_atom_site_fract_y
_atom_site_fract_z
Ag1 Ag 1.17065(3) 0.23730(3) 0.275498(13)
N1 N 0.9866(3) 0.1554(3) 0.23047(13)
C1 C 0.9085(3) 0.2001(3) 0.24205(18)
H1 H 0.9322 0.2660 0.2697
C2 C 0.7951(3) 0.1539(3) 0.21518(17)
H2 H 0.7440 0.1876 0.2252
C3 C 0.7580(3) 0.0571(3) 0.17316(16)
C4 C 0.8383(3) 0.0103(3) 0.16022(17)
H3 H 0.8174 -0.0541 0.1318
C5 C 0.9492(3) 0.0609(3) 0.19017(18)
H4 H 1.0013 0.0274 0.1819
C6 C 0.6367(3) 0.0039(3) 0.14187(16)
C7 C 0.5495(3) 0.0494(4) 0.16187(19)
H5 H 0.4736 -0.0001 0.1428
H6 H 0.5679 0.1258 0.1491
H7 H 0.5511 0.0517 0.2065
N2 N 0.6190(3) -0.0778(3) 0.09930(14)
N3 N 0.5069(3) -0.1271(3) 0.06711(14)
C8 C 0.5020(3) -0.2048(3) 0.02395(16)
C9 C 0.3953(3) -0.2629(3) -0.01884(16)
C10 C 0.3109(3) -0.2163(3) -0.02586(18)
H8 H 0.3212 -0.1485 -0.0022
C11 C 0.2123(3) -0.2696(4) -0.06749(19)
H9 H 0.1570 -0.2375 -0.0719
C12 C 0.1958(4) -0.3698(4) -0.10229(19)
H10 H 0.1293 -0.4055 -0.1302
C13 C 0.2773(4) -0.4175(4) -0.0960(2)
H11 H 0.2657 -0.4856 -0.1196
C14 C 0.3768(3) -0.3646(4) -0.05456(18)
H12 H 0.4317 -0.3974 -0.0506
C15 C 0.6076(3) -0.2308(3) 0.01440(16)
C16 C 0.6963(3) -0.1526(3) -0.02059(16)
C17 C 0.6768(4) -0.0679(3) -0.05207(18)
H13 H 0.6054 -0.0618 -0.0524
C18 C 0.7611(4) 0.0080(4) -0.0830(2)
H14 H 0.7463 0.0649 -0.1036
C19 C 0.8668(4) 0.0000(4) -0.0835(2)
H15 H 0.9237 0.0511 -0.1044
C20 C 0.8876(4) -0.0843(4) -0.0529(2)
H16 H 0.9588 -0.0906 -0.0535
C21 C 0.8043(3) -0.1599(4) -0.02128(19)
H17 H 0.8200 -0.2159 -0.0003
N4 N 0.6242(3) -0.3163(3) 0.03632(13)
N5 N 0.5381(3) -0.3896(3) 0.06828(14)
C22 C 0.5655(3) -0.3886(3) 0.12672(17)
C23 C 0.6769(3) -0.3083(3) 0.16250(18)
H18 H 0.7354 -0.2832 0.1348
H19 H 0.7002 -0.3474 0.1947
H20 H 0.6664 -0.2425 0.1810
C24 C 0.4776(3) -0.4750(3) 0.15976(16)
C25 C 0.4780(3) -0.4619(3) 0.22413(17)
H21 H 0.5345 -0.3983 0.2476
C26 C 0.3950(3) -0.5431(4) 0.25312(18)
H22 H 0.3958 -0.5316 0.2961
N6 N 0.3134(3) -0.6376(3) 0.22244(14)
C27 C 0.3133(4) -0.6508(4) 0.16052(18)
H23 H 0.2572 -0.7164 0.1385
C28 C 0.3913(3) -0.5728(4) 0.12777(18)
H24 H 0.3867 -0.5853 0.0846
N7 N 1.1484(3) 0.3910(3) 0.33628(14)
C29 C 1.1362(3) 0.3917(3) 0.39722(17)
H25 H 1.1412 0.3310 0.4185
C30 C 1.1166(3) 0.4773(3) 0.43001(17)
H26 H 1.1094 0.4742 0.4725
C31 C 1.1075(3) 0.5686(3) 0.39946(17)
C32 C 1.1191(3) 0.5678(3) 0.33641(18)
H27 H 1.1130 0.6267 0.3138
C33 C 1.1400(3) 0.4790(3) 0.30728(18)
H28 H 1.1486 0.4805 0.2650
C34 C 1.0854(3) 0.6622(3) 0.43332(17)
C35 C 1.0315(4) 0.7310(4) 0.3980(2)
H29 H 0.9937 0.7634 0.4257
H30 H 0.9757 0.6821 0.3649
H31 H 1.0902 0.7921 0.3807
N8 N 1.1174(3) 0.6785(3) 0.49261(14)
N9 N 1.0894(3) 0.7620(3) 0.52379(14)
C36 C 1.1686(3) 0.8272(3) 0.56620(16)
C37 C 1.1480(3) 0.9169(3) 0.60378(17)
C38 C 1.2314(4) 0.9897(4) 0.64874(18)
H32 H 1.3028 0.9836 0.6551
C39 C 1.2104(6) 1.0722(4) 0.6846(2)
H33 H 1.2673 1.1210 0.7151
C40 C 1.1046(6) 1.0815(5) 0.6749(3)
H34 H 1.0899 1.1361 0.6994
C41 C 1.0215(5) 1.0112(4) 0.6296(3)
H35 H 0.9510 1.0191 0.6228
C42 C 1.0417(4) 0.9286(4) 0.5939(2)
H36 H 0.9847 0.8806 0.5633
C43 C 1.2841(3) 0.8174(3) 0.57922(16)
C44 C 1.2993(3) 0.7475(3) 0.62973(16)
C45 C 1.2043(3) 0.6582(3) 0.64760(17)
H37 H 1.1309 0.6413 0.6270
C46 C 1.2185(4) 0.5948(3) 0.69560(18)
H38 H 1.1546 0.5353 0.7072
C47 C 1.3271(4) 0.6191(4) 0.72644(19)
H39 H 1.3364 0.5760 0.7587
C48 C 1.4229(4) 0.7086(4) 0.70907(18)
H40 H 1.4961 0.7252 0.7299
C49 C 1.4092(3) 0.7726(3) 0.66112(17)
H41 H 1.4731 0.8323 0.6497
N10 N 1.3690(3) 0.8691(3) 0.54775(14)
N11 N 1.3432(3) 0.9385(3) 0.50573(14)
C50 C 1.4071(4) 0.8390(4) 0.42445(19)
H42 H 1.4521 0.8217 0.4577
H43 H 1.4548 0.8707 0.3922
H44 H 1.3434 0.7696 0.4076
C51 C 1.3620(3) 0.9246(3) 0.44903(17)
C52 C 1.3314(3) 1.0004(3) 0.40664(16)
C53 C 1.3246(3) 1.1022(3) 0.43011(17)
H45 H 1.3420 1.1252 0.4726
C54 C 1.2921(3) 1.1683(3) 0.39009(18)
H46 H 1.2908 1.2375 0.4063
N12 N 1.2621(3) 1.1383(3) 0.32841(14)
C55 C 1.2682(3) 1.0408(3) 0.30603(18)
H47 H 1.2476 1.0186 0.2635
C56 C 1.3036(3) 0.9709(3) 0.34273(17)
H48 H 1.3089 0.9046 0.3248
Ag1_2 Ag 0.17065(3) -0.76270(3) 0.275498(13)
Ag1_3 Ag 1.17065(3) 1.23730(3) 0.275498(13)
N6_2 N 1.3134(3) 0.3624(3) 0.22244(14)
N12_2 N 1.2621(3) 0.1383(3) 0.32841(14)
Cl1 Cl 0.00121(10) 0.28171(10) 0.80027(6)
O1 O 0.0383(4) 0.2064(5) 0.8295(3)
O2 O -0.1047(3) 0.2218(4) 0.7626(2)
O3 O 0.0896(4) 0.3448(4) 0.7637(2)
O4 O -0.0153(5) 0.3558(7) 0.8408(5)
N13 N 0.4339(4) 0.5277(6) 0.4166(2)
C57 C 0.4160(5) 0.5605(5) 0.4638(3)
C58 C 0.3929(5) 0.6004(5) 0.5229(2)
H49 H 0.3848 0.5431 0.5518
H50 H 0.3227 0.6138 0.5172
H51 H 0.4559 0.6709 0.5390
N14 N 0.7630(6) 0.7190(6) 0.4781(3)
C59 C 0.7294(5) 0.6904(5) 0.4273(3)
C60 C 0.6865(7) 0.6530(6) 0.3619(3)
H52 H 0.6359 0.5729 0.3579
H53 H 0.7505 0.6634 0.3384
H54 H 0.6448 0.6978 0.3462
N15 N 0.5351(7) 0.1852(6) 0.7450(3)
C61 C 0.6045(7) 0.2335(6) 0.7841(4)
C62 C 0.6956(5) 0.2983(6) 0.8359(3)
H55 H 0.6717 0.2684 0.8746
H56 H 0.7075 0.3784 0.8376
H57 H 0.7664 0.2900 0.8289
N16 N 0.9133(7) 0.6111(10) 0.8821(7)
C63 C 0.9021(12) 0.5870(13) 0.9350(9)
C64 C 0.903(2) 0.580(2) 0.9943(10)
loop_
_geom_bond_atom_site_label_1
_geom_bond_atom_site_label_2
_geom_bond_site_symmetry_1
_geom_bond_site_symmetry_2
Ag1 N1 1_555 1_555
N1 C1 1_555 1_555
C1 H1 1_555 1_555
C2 C1 1_555 1_555
H2 C2 1_555 1_555
C3 C2 1_555 1_555
C4 C3 1_555 1_555
H3 C4 1_555 1_555
C5 N1 1_555 1_555
H4 C5 1_555 1_555
C6 C3 1_555 1_555
C7 C6 1_555 1_555
H5 C7 1_555 1_555
H6 C7 1_555 1_555
H7 C7 1_555 1_555
N2 C6 1_555 1_555
N3 N2 1_555 1_555
C8 N3 1_555 1_555
C9 C8 1_555 1_555
C10 C9 1_555 1_555
H8 C10 1_555 1_555
C11 C10 1_555 1_555
H9 C11 1_555 1_555
C12 C11 1_555 1_555
H10 C12 1_555 1_555
C13 C12 1_555 1_555
H11 C13 1_555 1_555
C14 C9 1_555 1_555
H12 C14 1_555 1_555
C15 C8 1_555 1_555
C16 C15 1_555 1_555
C17 C16 1_555 1_555
H13 C17 1_555 1_555
C18 C17 1_555 1_555
H14 C18 1_555 1_555
C19 C18 1_555 1_555
H15 C19 1_555 1_555
C20 C19 1_555 1_555
H16 C20 1_555 1_555
C21 C16 1_555 1_555
H17 C21 1_555 1_555
N4 C15 1_555 1_555
N5 N4 1_555 1_555
C22 N5 1_555 1_555
C23 C22 1_555 1_555
H18 C23 1_555 1_555
H19 C23 1_555 1_555
H20 C23 1_555 1_555
C24 C22 1_555 1_555
C25 C24 1_555 1_555
H21 C25 1_555 1_555
C26 C25 1_555 1_555
H22 C26 1_555 1_555
N6 C26 1_555 1_555
C27 N6 1_555 1_555
H23 C27 1_555 1_555
C28 C24 1_555 1_555
H24 C28 1_555 1_555
N7 Ag1 1_555 1_555
C29 N7 1_555 1_555
H25 C29 1_555 1_555
C30 C29 1_555 1_555
H26 C30 1_555 1_555
C31 C30 1_555 1_555
C32 C31 1_555 1_555
H27 C32 1_555 1_555
C33 N7 1_555 1_555
H28 C33 1_555 1_555
C34 C31 1_555 1_555
C35 C34 1_555 1_555
H29 C35 1_555 1_555
H30 C35 1_555 1_555
H31 C35 1_555 1_555
N8 C34 1_555 1_555
N9 N8 1_555 1_555
C36 N9 1_555 1_555
C37 C36 1_555 1_555
C38 C37 1_555 1_555
H32 C38 1_555 1_555
C39 C38 1_555 1_555
H33 C39 1_555 1_555
C40 C39 1_555 1_555
H34 C40 1_555 1_555
C41 C40 1_555 1_555
H35 C41 1_555 1_555
C42 C37 1_555 1_555
H36 C42 1_555 1_555
C43 C36 1_555 1_555
C44 C43 1_555 1_555
C45 C44 1_555 1_555
H37 C45 1_555 1_555
C46 C45 1_555 1_555
H38 C46 1_555 1_555
C47 C46 1_555 1_555
H39 C47 1_555 1_555
C48 C47 1_555 1_555
H40 C48 1_555 1_555
C49 C44 1_555 1_555
H41 C49 1_555 1_555
N10 C43 1_555 1_555
N11 N10 1_555 1_555
C50 H42 1_555 1_555
H43 C50 1_555 1_555
H44 C50 1_555 1_555
C51 N11 1_555 1_555
C52 C51 1_555 1_555
C53 C52 1_555 1_555
H45 C53 1_555 1_555
C54 C53 1_555 1_555
H46 C54 1_555 1_555
N12 C54 1_555 1_555
C55 N12 1_555 1_555
H47 C55 1_555 1_555
C56 C52 1_555 1_555
H48 C56 1_555 1_555
Cl1 O1 1_555 1_555
O2 Cl1 1_555 1_555
O3 Cl1 1_555 1_555
O4 Cl1 1_555 1_555
N13 C57 1_555 1_555
C57 C58 1_555 1_555
C58 H49 1_555 1_555
H50 C58 1_555 1_555
H51 C58 1_555 1_555
N14 C59 1_555 1_555
C59 C60 1_555 1_555
C60 H52 1_555 1_555
H53 C60 1_555 1_555
H54 C60 1_555 1_555
N15 C61 1_555 1_555
C61 C62 1_555 1_555
C62 H55 1_555 1_555
H56 C62 1_555 1_555
H57 C62 1_555 1_555
N16 C63 1_555 1_555
C63 C64 1_555 1_555
Ag1_2 N6 1_555 1_555
Ag1_3 N12 1_555 1_555
N6_2 Ag1 1_555 1_555
N12_2 Ag1 1_555 1_555
C4 C5 1_555 1_555
C13 C14 1_555 1_555
C20 C21 1_555 1_555
C27 C28 1_555 1_555
C32 C33 1_555 1_555
C41 C42 1_555 1_555
C48 C49 1_555 1_555
C50 C51 1_555 1_555
C55 C56 1_555 1_555

#END
