
#######################################################################
#
#                 Cambridge Crystallographic Data Centre
#                                CCDC 
#
#######################################################################
#
# If this CIF has been generated from an entry in the Cambridge 
# Structural Database, then it will include bibliographic, chemical, 
# crystal, experimental, refinement or atomic coordinate data resulting 
# from the CCDC's data processing and validation procedures.
#
#######################################################################

data_BIKJIO
_symmetry_cell_setting           orthorhombic
_symmetry_space_group_name_H-M   'P b c a'
_symmetry_Int_Tables_number      61
_space_group_name_Hall           '-P 2ac 2ab'
loop_
_symmetry_equiv_pos_site_id
_symmetry_equiv_pos_as_xyz
1 x,y,z
2 1/2-x,1/2+y,z
3 x,1/2-y,1/2+z
4 1/2-x,-y,1/2+z
5 -x,-y,-z
6 1/2+x,1/2-y,-z
7 -x,1/2+y,1/2-z
8 1/2+x,y,1/2-z
_cell_length_a                   11.912(5)
_cell_length_b                   17.828(2)
_cell_length_c                   12.673(2)
_cell_angle_alpha                90
_cell_angle_beta                 90
_cell_angle_gamma                90
_cell_volume                     2691.33
loop_
_atom_site_label
_atom_site_type_symbol
_atom_site_fract_x
_atom_site_fract_y
_atom_site_fract_z
S1 S 0.37190 0.12980 0.26370
O5 O 0.37630 0.21140 0.27380
O8 O 0.42260 0.09890 0.15760
O9 O 0.43140 0.09310 0.34090
O10 O 0.25040 0.11090 0.25830
O6 O 0.49070 0.46240 0.39200
O7 O 0.27160 0.45050 0.38650
Cu1 Cu 0.11988 0.25067 -0.00166
O1 O 0.10860 0.34750 -0.08290
O2 O 0.19710 0.19530 -0.16480
O3 O 0.14240 0.15270 0.07490
O4 O 0.04810 0.30190 0.16240
N1 N 0.43370 0.46710 0.13430
N2 N 0.25560 0.40970 0.10270
N3 N -0.02800 0.21840 -0.03600
N4 N 0.27940 0.28140 0.03630
C1 C 0.31790 0.46960 0.13550
C2 C 0.31540 0.34960 0.07120
C3 C -0.06500 0.15070 -0.07510
C4 C 0.49310 0.41120 0.11090
C5 C -0.12900 0.25680 -0.01390
H1 H 0.50000 0.50000 0.15000
H2 H 0.26000 0.50000 0.15000
H3 H 0.55000 0.41000 0.08000
H4 H -0.13000 0.31000 -0.01000
H5 H 0.26000 0.24000 -0.17000
H6 H 0.23000 0.15000 -0.14000
H7 H 0.05000 0.13000 0.08000
H8 H 0.01000 0.35000 0.15000
H9 H -0.01000 0.26000 0.19000
C5E C 0.37100 0.24320 0.01390
C3E C 0.43500 0.34930 0.07510
C2E C -0.18460 0.15040 -0.07120
C4E C -0.00690 0.08880 -0.11090
N4E N -0.22060 0.21860 -0.03630
N3E N 0.47200 0.28160 0.03600
H4E H 0.37000 0.19000 0.01000
N2E N -0.24440 0.09030 -0.10270
N1E N -0.06630 0.03290 -0.13430
H3E H 0.05000 0.09000 -0.08000
Cu1E Cu -0.38012 0.24933 0.00166
Cu1E_2 Cu 0.61988 0.24933 0.00166
C1E C -0.18210 0.03040 -0.13550
H1E H 0.00000 0.00000 -0.15000
O1E O -0.39140 0.15250 0.08290
O2E O -0.30290 0.30470 0.16480
O3E O -0.35760 0.34730 -0.07490
O4E O -0.45190 0.19810 -0.16240
N3E_2 N -0.52800 0.28160 0.03600
H2E H -0.24000 0.00000 -0.15000
H5E H -0.24000 0.26000 0.17000
H6E H -0.27000 0.35000 0.14000
H7E H -0.45000 0.37000 -0.08000
H8E H -0.49000 0.15000 -0.15000
H9E H -0.51000 0.24000 -0.19000
loop_
_geom_bond_atom_site_label_1
_geom_bond_atom_site_label_2
_geom_bond_site_symmetry_1
_geom_bond_site_symmetry_2
Cu1 O1 1_555 1_555
S1 O5 1_555 1_555
O2 Cu1 1_555 1_555
O3 Cu1 1_555 1_555
O4 Cu1 1_555 1_555
N1 C1 1_555 1_555
N2 C1 1_555 1_555
N3 Cu1 1_555 1_555
N4 Cu1 1_555 1_555
C1 H2 1_555 1_555
C2 N2 1_555 1_555
C3 N3 1_555 1_555
C4 N1 1_555 1_555
C5 N3 1_555 1_555
O8 S1 1_555 1_555
O9 S1 1_555 1_555
O10 S1 1_555 1_555
H1 N1 1_555 1_555
H3 C4 1_555 1_555
H4 C5 1_555 1_555
H5 O2 1_555 1_555
H6 O2 1_555 1_555
H7 O3 1_555 1_555
H8 O4 1_555 1_555
H9 O4 1_555 1_555
C5E N4 1_555 1_555
C3E C2 1_555 1_555
C2E C3 1_555 1_555
C4E C3 1_555 1_555
N4E C5 1_555 1_555
N3E C5E 1_555 1_555
H4E C5E 1_555 1_555
N2E C2E 1_555 1_555
N1E C4E 1_555 1_555
H3E C4E 1_555 1_555
Cu1E N4E 1_555 1_555
Cu1E_2 N3E 1_555 1_555
C1E N2E 1_555 1_555
H1E N1E 1_555 1_555
O1E Cu1E 1_555 1_555
O2E Cu1E 1_555 1_555
O3E Cu1E 1_555 1_555
O4E Cu1E 1_555 1_555
N3E_2 Cu1E 1_555 1_555
H2E C1E 1_555 1_555
H5E O2E 1_555 1_555
H6E O2E 1_555 1_555
H7E O3E 1_555 1_555
H8E O4E 1_555 1_555
H9E O4E 1_555 1_555
N4 C2 1_555 1_555
C4 C3E 1_555 1_555
C3E N3E 1_555 1_555
C2E N4E 1_555 1_555
N1E C1E 1_555 1_555

#END
