
#######################################################################
#
#                 Cambridge Crystallographic Data Centre
#                                CCDC 
#
#######################################################################
#
# If this CIF has been generated from an entry in the Cambridge 
# Structural Database, then it will include bibliographic, chemical, 
# crystal, experimental, refinement or atomic coordinate data resulting 
# from the CCDC's data processing and validation procedures.
#
#######################################################################

data_BIKMEP01
_symmetry_cell_setting           hexagonal
_symmetry_space_group_name_H-M   'P 65'
_symmetry_Int_Tables_number      170
_space_group_name_Hall           'P 65'
loop_
_symmetry_equiv_pos_site_id
_symmetry_equiv_pos_as_xyz
1 x,y,z
2 -y,x-y,2/3+z
3 -x+y,-x,1/3+z
4 -x,-y,1/2+z
5 y,-x+y,1/6+z
6 x-y,x,5/6+z
_cell_length_a                   10.1834(9)
_cell_length_b                   10.1834(9)
_cell_length_c                   20.333(4)
_cell_angle_alpha                90
_cell_angle_beta                 90
_cell_angle_gamma                120
_cell_volume                     1826.07
loop_
_atom_site_label
_atom_site_type_symbol
_atom_site_fract_x
_atom_site_fract_y
_atom_site_fract_z
Ni1 Ni -0.44505(5) -0.23271(5) 0.09218(2)
O1 O -0.2167(3) -0.1394(3) 0.06136(16)
O2 O -0.3116(3) 0.0105(3) 0.07443(14)
O3 O -0.0653(3) 0.4803(3) -0.06286(17)
O4 O 0.1865(3) 0.6271(3) -0.05298(15)
O5 O -0.3755(3) -0.1943(3) 0.18756(16)
H1 H -0.2949 -0.1114 0.1958
H2 H -0.4432 -0.2039 0.2147
O6 O -0.5112(4) -0.2623(4) -0.00693(15)
H3 H -0.4585 -0.2797 -0.0342
H4 H -0.5999 -0.2971 -0.0226
N1 N 0.6014(4) 0.3476(4) -0.05173(17)
C1 C 0.5968(5) 0.2131(5) -0.0566(2)
H5 H 0.6846 0.2123 -0.0686
C2 C 0.4666(5) 0.0769(5) -0.0446(2)
H6 H 0.4687 -0.0134 -0.0460
C3 C 0.3326(5) 0.0753(5) -0.0304(2)
H7 H 0.2431 -0.0161 -0.0242
C4 C 0.4725(4) 0.3453(5) -0.0356(2)
H8 H 0.4758 0.4378 -0.0309
C5 C 0.3341(4) 0.2134(4) -0.0255(2)
C6 C 0.1961(4) 0.2246(4) -0.01180(19)
C7 C 0.1931(4) 0.3544(4) -0.0297(2)
H9 H 0.2786 0.4341 -0.0490
C8 C 0.0673(4) 0.1052(4) 0.01759(19)
H10 H 0.0665 0.0166 0.0295
C9 C 0.0664(4) 0.3690(4) -0.01953(19)
C10 C -0.0608(4) 0.1200(4) 0.02899(19)
C11 C -0.0601(4) 0.2520(4) 0.0106(2)
H11 H -0.1448 0.2617 0.0186
C12 C 0.0630(4) 0.5061(4) -0.04628(19)
C13 C -0.2031(5) -0.0089(4) 0.0576(2)
Ni1E Ni -0.21234(7) 0.55495(5) -0.07449(2)
Ni1E_2 Ni 0.78766(7) 0.55495(5) -0.07449(2)
O3D O -0.5197(3) -0.4544(4) 0.10381(17)
N1D N -0.6524(4) -0.2538(6) 0.11494(17)
loop_
_geom_bond_atom_site_label_1
_geom_bond_atom_site_label_2
_geom_bond_site_symmetry_1
_geom_bond_site_symmetry_2
Ni1 O1 1_555 1_555
O1 C13 1_555 1_555
O2 Ni1 1_555 1_555
O3 C12 1_555 1_555
O4 C12 1_555 1_555
O5 Ni1 1_555 1_555
H1 O5 1_555 1_555
H2 O5 1_555 1_555
O6 Ni1 1_555 1_555
H3 O6 1_555 1_555
H4 O6 1_555 1_555
N1 C1 1_555 1_555
C1 H5 1_555 1_555
C2 C1 1_555 1_555
H6 C2 1_555 1_555
C3 C2 1_555 1_555
H7 C3 1_555 1_555
C4 N1 1_555 1_555
H8 C4 1_555 1_555
C5 C3 1_555 1_555
C6 C5 1_555 1_555
C7 C6 1_555 1_555
H9 C7 1_555 1_555
C8 C6 1_555 1_555
H10 C8 1_555 1_555
C9 C7 1_555 1_555
C10 C8 1_555 1_555
C11 C9 1_555 1_555
H11 C11 1_555 1_555
C12 C9 1_555 1_555
C13 O2 1_555 1_555
Ni1E O3 1_555 1_555
Ni1E_2 N1 1_555 1_555
O3D Ni1 1_555 1_555
N1D Ni1 1_555 1_555
C4 C5 1_555 1_555
C10 C11 1_555 1_555
C10 C13 1_555 1_555

#END
