
#######################################################################
#
#                 Cambridge Crystallographic Data Centre
#                                CCDC 
#
#######################################################################
#
# If this CIF has been generated from an entry in the Cambridge 
# Structural Database, then it will include bibliographic, chemical, 
# crystal, experimental, refinement or atomic coordinate data resulting 
# from the CCDC's data processing and validation procedures.
#
#######################################################################

data_BIKMAL01
_symmetry_cell_setting           hexagonal
_symmetry_space_group_name_H-M   'P 65'
_symmetry_Int_Tables_number      170
_space_group_name_Hall           'P 65'
loop_
_symmetry_equiv_pos_site_id
_symmetry_equiv_pos_as_xyz
1 x,y,z
2 -y,x-y,2/3+z
3 -x+y,-x,1/3+z
4 -x,-y,1/2+z
5 y,-x+y,1/6+z
6 x-y,x,5/6+z
_cell_length_a                   10.236(3)
_cell_length_b                   10.236(3)
_cell_length_c                   20.361(11)
_cell_angle_alpha                90
_cell_angle_beta                 90
_cell_angle_gamma                120
_cell_volume                     1847.52
loop_
_atom_site_label
_atom_site_type_symbol
_atom_site_fract_x
_atom_site_fract_y
_atom_site_fract_z
Co1 Co 0.55457(11) 0.76410(10) 0.13071(5)
O1 O 0.7862(6) 0.8627(6) 0.1003(3)
O2 O 0.6921(5) 1.0115(5) 0.1130(3)
O3 O 1.1909(8) 1.6235(6) -0.0138(3)
O4 O 0.9398(8) 1.4833(6) -0.0215(3)
O5 O 0.6239(6) 0.8116(6) 0.2280(3)
H1 H 0.7044 0.8934 0.2369
H2 H 0.5563 0.8013 0.2551
O6 O 0.4888(7) 0.7309(6) 0.0328(3)
H3 H 0.5425 0.7169 0.0050
H4 H 0.4010 0.6973 0.0168
N1 N 1.5998(9) 1.3431(7) -0.0122(3)
C1 C 1.5932(8) 1.2079(9) -0.0166(4)
H5 H 1.6800 1.2060 -0.0285
C2 C 1.4651(9) 1.0747(9) -0.0045(5)
H6 H 1.4665 0.9846 -0.0053
C3 C 1.3320(9) 1.0750(9) 0.0092(4)
H7 H 1.2427 0.9845 0.0156
C4 C 1.3330(8) 1.2101(8) 0.0132(4)
C5 C 1.1960(8) 1.2222(8) 0.0278(4)
C6 C 1.1947(8) 1.3528(8) 0.0091(4)
H8 H 1.2793 1.4309 -0.0110
C7 C 1.0673(8) 1.1050(8) 0.0563(4)
H9 H 1.0652 1.0161 0.0679
C8 C 1.0691(8) 1.3674(8) 0.0201(4)
C9 C 0.9411(8) 1.2513(8) 0.0494(4)
H10 H 0.8566 1.2609 0.0567
C10 C 0.9411(8) 1.1203(8) 0.0677(4)
C11 C 0.8003(8) 0.9929(8) 0.0967(4)
C12 C 1.4718(11) 1.3411(8) 0.0034(4)
H11 H 1.4755 1.4333 0.0080
C13 C 1.0667(11) 1.5037(8) -0.0063(4)
Co1E Co 0.79047(15) 1.55457(11) -0.03596(5)
Co1E_2 Co 1.79047(15) 1.55457(11) -0.03596(5)
O4D O 0.4833(6) 0.5435(10) 0.1452(3)
N1D N 0.3431(7) 0.7433(11) 0.1545(3)
loop_
_geom_bond_atom_site_label_1
_geom_bond_atom_site_label_2
_geom_bond_site_symmetry_1
_geom_bond_site_symmetry_2
Co1 O1 1_555 1_555
O1 C11 1_555 1_555
O2 Co1 1_555 1_555
O3 C13 1_555 1_555
O4 C13 1_555 1_555
O5 Co1 1_555 1_555
H1 O5 1_555 1_555
H2 O5 1_555 1_555
O6 Co1 1_555 1_555
H3 O6 1_555 1_555
H4 O6 1_555 1_555
N1 C1 1_555 1_555
C1 H5 1_555 1_555
C2 C1 1_555 1_555
H6 C2 1_555 1_555
C3 C2 1_555 1_555
H7 C3 1_555 1_555
C4 C3 1_555 1_555
C5 C4 1_555 1_555
C6 C5 1_555 1_555
H8 C6 1_555 1_555
C7 C5 1_555 1_555
H9 C7 1_555 1_555
C8 C6 1_555 1_555
C9 C8 1_555 1_555
H10 C9 1_555 1_555
C10 C7 1_555 1_555
C11 O2 1_555 1_555
C12 N1 1_555 1_555
H11 C12 1_555 1_555
C13 C8 1_555 1_555
Co1E O4 1_555 1_555
Co1E_2 N1 1_555 1_555
O4D Co1 1_555 1_555
N1D Co1 1_555 1_555
C4 C12 1_555 1_555
C9 C10 1_555 1_555
C10 C11 1_555 1_555

#END
