
#######################################################################
#
#                 Cambridge Crystallographic Data Centre
#                                CCDC 
#
#######################################################################
#
# If this CIF has been generated from an entry in the Cambridge 
# Structural Database, then it will include bibliographic, chemical, 
# crystal, experimental, refinement or atomic coordinate data resulting 
# from the CCDC's data processing and validation procedures.
#
#######################################################################

data_BIKYAX
_symmetry_cell_setting           monoclinic
_symmetry_space_group_name_H-M   'P 21/c'
_symmetry_Int_Tables_number      14
_space_group_name_Hall           '-P 2ybc'
loop_
_symmetry_equiv_pos_site_id
_symmetry_equiv_pos_as_xyz
1 x,y,z
2 -x,1/2+y,1/2-z
3 -x,-y,-z
4 x,1/2-y,1/2+z
_cell_length_a                   16.3958(6)
_cell_length_b                   8.6857(3)
_cell_length_c                   10.6190(4)
_cell_angle_alpha                90
_cell_angle_beta                 102.96
_cell_angle_gamma                90
_cell_volume                     1473.72
loop_
_atom_site_label
_atom_site_type_symbol
_atom_site_fract_x
_atom_site_fract_y
_atom_site_fract_z
U1 U 0.421283(7) 0.443935(14) 0.189059(12)
O1 O 0.40021(15) 0.5805(3) -0.0034(2)
O2 O 0.43652(15) 0.5192(3) -0.1868(2)
O3 O 0.03389(15) 0.6879(3) -0.5255(2)
O4 O -0.32937(14) 0.6695(3) -0.3114(2)
O5 O -0.26937(15) 0.5470(3) -0.1332(2)
O6 O 0.42162(15) 0.2686(3) 0.1034(2)
O7 O 0.41903(15) 0.6231(3) 0.2674(2)
O8 O 0.49971(18) 0.3538(3) 0.4030(3)
H1 H 0.534(3) 0.300(5) 0.414(4)
H2 H 0.475(3) 0.346(6) 0.465(5)
C1 C 0.3832(2) 0.5587(4) -0.1250(3)
C2 C 0.2946(2) 0.5815(4) -0.1976(3)
C3 C 0.2356(2) 0.6392(4) -0.1345(3)
H3 H 0.2517 0.6646 -0.0453
C4 C 0.1531(2) 0.6601(4) -0.2010(3)
H4 H 0.1127 0.6986 -0.1574
C5 C 0.1300(2) 0.6241(4) -0.3320(3)
C6 C 0.0440(2) 0.6580(4) -0.4112(3)
C7 C -0.0316(2) 0.6532(4) -0.3529(3)
C8 C 0.1898(2) 0.5672(4) -0.3959(3)
H5 H 0.1741 0.5447 -0.4857
C9 C 0.2715(2) 0.5437(4) -0.3292(3)
H6 H 0.3116 0.5022 -0.3720
C10 C -0.2638(2) 0.6172(4) -0.2363(3)
C11 C -0.1812(2) 0.6337(4) -0.2721(3)
C12 C -0.1748(2) 0.7354(4) -0.3712(3)
H7 H -0.2210 0.7977 -0.4110
C13 C -0.0999(2) 0.7440(4) -0.4107(3)
H8 H -0.0949 0.8128 -0.4781
C14 C -0.0380(2) 0.5544(4) -0.2518(3)
H9 H 0.0088 0.4943 -0.2104
C15 C -0.1132(2) 0.5442(4) -0.2115(3)
H10 H -0.1179 0.4765 -0.1432
U1B U -0.421283(7) 0.556065(14) -0.189059(12)
U1B_2 U 0.578717(7) 0.556065(14) -0.189059(12)
O2B O 0.56348(15) 0.4808(3) 0.1868(2)
O4B O 0.32937(14) 0.3305(3) 0.3114(2)
O5B O 0.26937(15) 0.4530(3) 0.1332(2)
loop_
_geom_bond_atom_site_label_1
_geom_bond_atom_site_label_2
_geom_bond_site_symmetry_1
_geom_bond_site_symmetry_2
U1 O1 1_555 1_555
O1 C1 1_555 1_555
O2 C1 1_555 1_555
O3 C6 1_555 1_555
O4 C10 1_555 1_555
O5 C10 1_555 1_555
O6 U1 1_555 1_555
O7 U1 1_555 1_555
O8 U1 1_555 1_555
H1 O8 1_555 1_555
H2 O8 1_555 1_555
C1 C2 1_555 1_555
C2 C3 1_555 1_555
C3 H3 1_555 1_555
C4 C3 1_555 1_555
H4 C4 1_555 1_555
C5 C4 1_555 1_555
C6 C5 1_555 1_555
C7 C6 1_555 1_555
C8 C5 1_555 1_555
H5 C8 1_555 1_555
C9 C2 1_555 1_555
H6 C9 1_555 1_555
C10 C11 1_555 1_555
C11 C12 1_555 1_555
C12 H7 1_555 1_555
C13 C7 1_555 1_555
H8 C13 1_555 1_555
C14 C7 1_555 1_555
H9 C14 1_555 1_555
C15 C11 1_555 1_555
H10 C15 1_555 1_555
U1B O4 1_555 1_555
U1B_2 O2 1_555 1_555
O2B U1 1_555 1_555
O4B U1 1_555 1_555
O5B U1 1_555 1_555
O5 U1B 1_555 1_555
C8 C9 1_555 1_555
C12 C13 1_555 1_555
C14 C15 1_555 1_555

#END
