
#######################################################################
#
#                 Cambridge Crystallographic Data Centre
#                                CCDC 
#
#######################################################################
#
# If this CIF has been generated from an entry in the Cambridge 
# Structural Database, then it will include bibliographic, chemical, 
# crystal, experimental, refinement or atomic coordinate data resulting 
# from the CCDC's data processing and validation procedures.
#
#######################################################################

data_BILCIJ
_symmetry_cell_setting           monoclinic
_symmetry_space_group_name_H-M   'C 2/c'
_symmetry_Int_Tables_number      15
_space_group_name_Hall           '-C 2yn'
loop_
_symmetry_equiv_pos_site_id
_symmetry_equiv_pos_as_xyz
1 x,y,z
2 1/2+x,1/2+y,z
3 -x,y,1/2-z
4 1/2-x,1/2+y,1/2-z
5 -x,-y,-z
6 1/2-x,1/2-y,-z
7 x,-y,1/2+z
8 1/2+x,1/2-y,1/2+z
_cell_length_a                   30.631(2)
_cell_length_b                   11.9547(8)
_cell_length_c                   11.1569(8)
_cell_angle_alpha                90
_cell_angle_beta                 104.983(3)
_cell_angle_gamma                90
_cell_volume                     3946.59
loop_
_atom_site_label
_atom_site_type_symbol
_atom_site_fract_x
_atom_site_fract_y
_atom_site_fract_z
Cd1 Cd 0.0000 0.182558(19) 0.2500
S1 S 0.06320(2) 0.18302(5) 0.46552(6)
S2 S 0.07694(2) 0.18341(5) 0.17695(6)
P1 P 0.10559(2) 0.19862(5) 0.35717(6)
N1 N 0.0000 0.3886(2) 0.2500
N2 N 0.0000 0.9794(2) 0.2500
O1 O 0.14736(6) 0.11751(15) 0.40281(17)
O2 O 0.13026(7) 0.31623(14) 0.37599(17)
C1 C 0.14354(9) -0.0016(2) 0.4284(3)
H1 H 0.1193 -0.0122 0.4711
C2 C 0.18818(11) -0.0347(2) 0.5149(3)
H2 H 0.1924 0.0057 0.5936
H3 H 0.2128 -0.0135 0.4782
C3 C 0.19015(13) -0.1599(3) 0.5397(3)
H4 H 0.2201 -0.1796 0.5919
H5 H 0.1677 -0.1797 0.5848
C4 C 0.18097(11) -0.2255(3) 0.4202(3)
H6 H 0.1816 -0.3058 0.4383
H7 H 0.2044 -0.2095 0.3772
C5 C 0.13518(15) -0.1936(3) 0.3383(4)
H8 H 0.1295 -0.2355 0.2603
H9 H 0.1117 -0.2139 0.3797
C6 C 0.13263(14) -0.0687(3) 0.3107(3)
H10 H 0.1540 -0.0497 0.2619
H11 H 0.1022 -0.0497 0.2612
C7 C 0.15026(10) 0.3580(2) 0.5007(2)
H12 H 0.1411 0.3088 0.5613
C8 C 0.20112(11) 0.3570(3) 0.5266(3)
H13 H 0.2118 0.2801 0.5226
H14 H 0.2105 0.4014 0.4637
C9 C 0.22171(14) 0.4053(4) 0.6541(3)
H15 H 0.2142 0.3570 0.7169
H16 H 0.2547 0.4068 0.6692
C10 C 0.20501(16) 0.5214(4) 0.6670(4)
H17 H 0.2153 0.5718 0.6107
H18 H 0.2176 0.5479 0.7520
C11 C 0.15342(17) 0.5237(4) 0.6368(4)
H19 H 0.1432 0.6012 0.6388
H20 H 0.1434 0.4815 0.7002
C12 C 0.13222(12) 0.4737(3) 0.5100(3)
H21 H 0.0993 0.4704 0.4964
H22 H 0.1389 0.5214 0.4456
C13 C -0.02031(11) 0.4464(2) 0.3227(3)
H23 H -0.0352 0.4068 0.3734
C14 C -0.02043(11) 0.5619(2) 0.3266(3)
H24 H -0.0343 0.5995 0.3810
C15 C 0.0000 0.6216(3) 0.2500
C16 C 0.0000 0.7461(3) 0.2500
C17 C -0.01273(10) 0.80603(19) 0.1405(2)
H25 H -0.0213 0.7686 0.0639
C18 C -0.01278(9) 0.9213(2) 0.1449(2)
H26 H -0.0223 0.9609 0.0698
C14B C 0.02043(11) 0.5619(2) 0.1734(3)
C13B C 0.02031(11) 0.4464(2) 0.1773(3)
H23B H 0.0352 0.4068 0.1266
H24B H 0.0343 0.5995 0.1190
C18B C 0.01278(9) 0.9213(2) 0.3551(2)
C17B C 0.01273(10) 0.80603(19) 0.3595(2)
H25B H 0.0213 0.7686 0.4361
H26B H 0.0223 0.9609 0.4302
S1B S -0.06320(2) 0.18302(5) 0.03448(6)
S2B S -0.07694(2) 0.18341(5) 0.32305(6)
P1B P -0.10559(2) 0.19862(5) 0.14283(6)
O1B O -0.14736(6) 0.11751(15) 0.09719(17)
O2B O -0.13026(7) 0.31623(14) 0.12401(17)
C1B C -0.14354(9) -0.0016(2) 0.0716(3)
H1B H -0.1193 -0.0122 0.0289
C2B C -0.18818(11) -0.0347(2) -0.0149(3)
H2B H -0.1924 0.0057 -0.0936
H3B H -0.2128 -0.0135 0.0218
C3B C -0.19015(13) -0.1599(3) -0.0397(3)
H4B H -0.2201 -0.1796 -0.0919
H5B H -0.1677 -0.1797 -0.0848
C4B C -0.18097(11) -0.2255(3) 0.0798(3)
H6B H -0.1816 -0.3058 0.0617
H7B H -0.2044 -0.2095 0.1228
C5B C -0.13518(15) -0.1936(3) 0.1617(4)
H8B H -0.1295 -0.2355 0.2397
H9B H -0.1117 -0.2139 0.1203
C6B C -0.13263(14) -0.0687(3) 0.1893(3)
H10B H -0.1540 -0.0497 0.2381
H11B H -0.1022 -0.0497 0.2388
C7B C -0.15026(10) 0.3580(2) -0.0007(2)
H12B H -0.1411 0.3088 -0.0613
C8B C -0.20112(11) 0.3570(3) -0.0266(3)
H13B H -0.2118 0.2801 -0.0226
H14B H -0.2105 0.4014 0.0363
C9B C -0.22171(14) 0.4053(4) -0.1541(3)
H15B H -0.2142 0.3570 -0.2169
H16B H -0.2547 0.4068 -0.1692
C10B C -0.20501(16) 0.5214(4) -0.1670(4)
H17B H -0.2153 0.5718 -0.1107
H18B H -0.2176 0.5479 -0.2520
C11B C -0.15342(17) 0.5237(4) -0.1368(4)
H19B H -0.1432 0.6012 -0.1388
H20B H -0.1434 0.4815 -0.2002
C12B C -0.13222(12) 0.4737(3) -0.0100(3)
H21B H -0.0993 0.4704 0.0036
H22B H -0.1389 0.5214 0.0544
N2_2 N 0.0000 -0.0206(2) 0.2500
Cd1_2 Cd 0.0000 1.182558(19) 0.2500
loop_
_geom_bond_atom_site_label_1
_geom_bond_atom_site_label_2
_geom_bond_site_symmetry_1
_geom_bond_site_symmetry_2
Cd1 S1 1_555 1_555
S1 P1 1_555 1_555
S2 Cd1 1_555 1_555
P1 S2 1_555 1_555
N1 Cd1 1_555 1_555
N2 C18 1_555 1_555
O1 P1 1_555 1_555
O2 P1 1_555 1_555
C1 O1 1_555 1_555
H1 C1 1_555 1_555
C2 C1 1_555 1_555
H2 C2 1_555 1_555
H3 C2 1_555 1_555
C3 C2 1_555 1_555
H4 C3 1_555 1_555
H5 C3 1_555 1_555
C4 C3 1_555 1_555
H6 C4 1_555 1_555
H7 C4 1_555 1_555
C5 C4 1_555 1_555
H8 C5 1_555 1_555
H9 C5 1_555 1_555
C6 C1 1_555 1_555
H10 C6 1_555 1_555
H11 C6 1_555 1_555
C7 O2 1_555 1_555
H12 C7 1_555 1_555
C8 C7 1_555 1_555
H13 C8 1_555 1_555
H14 C8 1_555 1_555
C9 C8 1_555 1_555
H15 C9 1_555 1_555
H16 C9 1_555 1_555
C10 C9 1_555 1_555
H17 C10 1_555 1_555
H18 C10 1_555 1_555
C11 C10 1_555 1_555
H19 C11 1_555 1_555
H20 C11 1_555 1_555
C12 C7 1_555 1_555
H21 C12 1_555 1_555
H22 C12 1_555 1_555
C13 N1 1_555 1_555
H23 C13 1_555 1_555
C14 C13 1_555 1_555
H24 C14 1_555 1_555
C15 C14 1_555 1_555
C16 C15 1_555 1_555
C17 C16 1_555 1_555
H25 C17 1_555 1_555
C18 C17 1_555 1_555
H26 C18 1_555 1_555
C14B C15 1_555 1_555
C13B N1 1_555 1_555
H23B C13B 1_555 1_555
H24B C14B 1_555 1_555
C18B N2 1_555 1_555
C17B C16 1_555 1_555
H25B C17B 1_555 1_555
H26B C18B 1_555 1_555
S1B Cd1 1_555 1_555
S2B Cd1 1_555 1_555
P1B S1B 1_555 1_555
O1B P1B 1_555 1_555
O2B P1B 1_555 1_555
C1B O1B 1_555 1_555
H1B C1B 1_555 1_555
C2B C1B 1_555 1_555
H2B C2B 1_555 1_555
H3B C2B 1_555 1_555
C3B C2B 1_555 1_555
H4B C3B 1_555 1_555
H5B C3B 1_555 1_555
C4B C3B 1_555 1_555
H6B C4B 1_555 1_555
H7B C4B 1_555 1_555
C5B C4B 1_555 1_555
H8B C5B 1_555 1_555
H9B C5B 1_555 1_555
C6B C1B 1_555 1_555
H10B C6B 1_555 1_555
H11B C6B 1_555 1_555
C7B O2B 1_555 1_555
H12B C7B 1_555 1_555
C8B C7B 1_555 1_555
H13B C8B 1_555 1_555
H14B C8B 1_555 1_555
C9B C8B 1_555 1_555
H15B C9B 1_555 1_555
H16B C9B 1_555 1_555
C10B C9B 1_555 1_555
H17B C10B 1_555 1_555
H18B C10B 1_555 1_555
C11B C10B 1_555 1_555
H19B C11B 1_555 1_555
H20B C11B 1_555 1_555
C12B C7B 1_555 1_555
H21B C12B 1_555 1_555
H22B C12B 1_555 1_555
N2_2 Cd1 1_555 1_555
Cd1_2 N2 1_555 1_555
C5 C6 1_555 1_555
C11 C12 1_555 1_555
C14B C13B 1_555 1_555
C18B C17B 1_555 1_555
S2B P1B 1_555 1_555
C5B C6B 1_555 1_555
C11B C12B 1_555 1_555

#END
