
#######################################################################
#
#                 Cambridge Crystallographic Data Centre
#                                CCDC 
#
#######################################################################
#
# If this CIF has been generated from an entry in the Cambridge 
# Structural Database, then it will include bibliographic, chemical, 
# crystal, experimental, refinement or atomic coordinate data resulting 
# from the CCDC's data processing and validation procedures.
#
#######################################################################

data_BILCUV
_symmetry_cell_setting           triclinic
_symmetry_space_group_name_H-M   'P -1'
_symmetry_Int_Tables_number      2
_space_group_name_Hall           '-P 1'
loop_
_symmetry_equiv_pos_site_id
_symmetry_equiv_pos_as_xyz
1 x,y,z
2 -x,-y,-z
_cell_length_a                   12.3015(11)
_cell_length_b                   12.9651(11)
_cell_length_c                   14.1770(12)
_cell_angle_alpha                103.761(2)
_cell_angle_beta                 90.158(2)
_cell_angle_gamma                111.701(2)
_cell_volume                     2030.2
loop_
_atom_site_label
_atom_site_type_symbol
_atom_site_fract_x
_atom_site_fract_y
_atom_site_fract_z
Cd1 Cd 0.0000 0.0000 -0.5000
S1 S -0.12735(8) 0.12932(9) -0.45138(7)
S2 S 0.16189(8) 0.21675(9) -0.44887(7)
P1 P 0.02625(9) 0.26443(9) -0.42283(7)
O1 O 0.0402(3) 0.3455(2) -0.31735(19)
O2 O 0.0258(2) 0.3562(2) -0.47882(18)
N1 N -0.0139(3) 0.0068(3) -0.6668(2)
C1 C 0.0580(3) 0.3105(3) -0.2297(3)
H1 H 0.0548 0.2308 -0.2481
C2 C 0.1770(3) 0.3909(4) -0.1780(3)
H2 H 0.1833 0.4705 -0.1674
H3 H 0.2384 0.3811 -0.2189
C3 C 0.1957(4) 0.3673(4) -0.0803(3)
H4 H 0.1983 0.2907 -0.0915
H5 H 0.2714 0.4236 -0.0462
C4 C 0.0989(4) 0.3737(5) -0.0171(3)
H6 H 0.1021 0.4527 0.0006
H7 H 0.1107 0.3531 0.0432
C5 C -0.0214(4) 0.2931(4) -0.0699(3)
H8 H -0.0827 0.3029 -0.0290
H9 H -0.0280 0.2134 -0.0806
C6 C -0.0402(4) 0.3167(4) -0.1678(3)
H10 H -0.1155 0.2601 -0.2023
H11 H -0.0430 0.3932 -0.1567
C7 C 0.0056(3) 0.3207(3) -0.5853(3)
H12 H -0.0007 0.2402 -0.6085
C8 C 0.1092(4) 0.3975(4) -0.6261(3)
H13 H 0.1815 0.3901 -0.6053
H14 H 0.1184 0.4779 -0.6012
C9 C 0.0888(4) 0.3631(4) -0.7368(3)
H15 H 0.1545 0.4145 -0.7633
H16 H 0.0856 0.2847 -0.7616
C10 C -0.0254(4) 0.3694(4) -0.7705(3)
H17 H -0.0197 0.4492 -0.7504
H18 H -0.0387 0.3439 -0.8419
C11 C -0.1278(4) 0.2944(4) -0.7271(3)
H19 H -0.1373 0.2139 -0.7515
H20 H -0.2002 0.3016 -0.7476
C12 C -0.1081(4) 0.3286(4) -0.6163(3)
H21 H -0.1041 0.4073 -0.5911
H22 H -0.1737 0.2772 -0.5897
C13 C 0.0824(3) 0.0371(3) -0.7146(3)
H23 H 0.1563 0.0615 -0.6795
C14 C 0.0786(3) 0.0343(4) -0.8123(3)
H24 H 0.1487 0.0566 -0.8422
C15 C -0.0290(3) -0.0016(3) -0.8664(3)
C16 C -0.1282(3) -0.0318(4) -0.8164(3)
H25 H -0.2033 -0.0562 -0.8495
C17 C -0.1171(3) -0.0261(4) -0.7188(3)
H26 H -0.1858 -0.0465 -0.6868
C18 C -0.0421(3) -0.0102(4) -0.9714(3)
H27 H -0.1189 -0.0327 -1.0004
C18A C 0.0421(3) 0.0102(4) -1.0286(3)
C15A C 0.0290(3) 0.0016(3) -1.1336(3)
C14A C -0.0786(3) -0.0343(4) -1.1877(3)
C13A C -0.0824(3) -0.0371(3) -1.2854(3)
N1A N 0.0139(3) -0.0068(3) -1.3332(2)
C17A C 0.1171(3) 0.0261(4) -1.2812(3)
C16A C 0.1282(3) 0.0318(4) -1.1836(3)
H25A H 0.2033 0.0562 -1.1505
H26A H 0.1858 0.0465 -1.3132
H23A H -0.1563 -0.0615 -1.3205
H24A H -0.1487 -0.0566 -1.1578
H27A H 0.1189 0.0327 -0.9996
S1A S 0.12735(8) -0.12932(9) -0.54862(7)
S2A S -0.16189(8) -0.21675(9) -0.55113(7)
P1A P -0.02625(9) -0.26443(9) -0.57717(7)
O1A O -0.0402(3) -0.3455(2) -0.68265(19)
O2A O -0.0258(2) -0.3562(2) -0.52118(18)
C1A C -0.0580(3) -0.3105(3) -0.7703(3)
H1A H -0.0548 -0.2308 -0.7519
C2A C -0.1770(3) -0.3909(4) -0.8220(3)
H2A H -0.1833 -0.4705 -0.8326
H3A H -0.2384 -0.3811 -0.7811
C3A C -0.1957(4) -0.3673(4) -0.9197(3)
H4A H -0.1983 -0.2907 -0.9085
H5A H -0.2714 -0.4236 -0.9538
C4A C -0.0989(4) -0.3737(5) -0.9829(3)
H6A H -0.1021 -0.4527 -1.0006
H7A H -0.1107 -0.3531 -1.0432
C5A C 0.0214(4) -0.2931(4) -0.9301(3)
H8A H 0.0827 -0.3029 -0.9710
H9A H 0.0280 -0.2134 -0.9194
C6A C 0.0402(4) -0.3167(4) -0.8322(3)
H10A H 0.1155 -0.2601 -0.7977
H11A H 0.0430 -0.3932 -0.8433
C7A C -0.0056(3) -0.3207(3) -0.4147(3)
H12A H 0.0007 -0.2402 -0.3915
C8A C -0.1092(4) -0.3975(4) -0.3739(3)
H13A H -0.1815 -0.3901 -0.3947
H14A H -0.1184 -0.4779 -0.3988
C9A C -0.0888(4) -0.3631(4) -0.2632(3)
H15A H -0.1545 -0.4145 -0.2367
H16A H -0.0856 -0.2847 -0.2384
C10A C 0.0254(4) -0.3694(4) -0.2295(3)
H17A H 0.0197 -0.4492 -0.2496
H18A H 0.0387 -0.3439 -0.1581
C11A C 0.1278(4) -0.2944(4) -0.2729(3)
H19A H 0.1373 -0.2139 -0.2485
H20A H 0.2002 -0.3016 -0.2524
C12A C 0.1081(4) -0.3286(4) -0.3837(3)
H21A H 0.1041 -0.4073 -0.4089
H22A H 0.1737 -0.2772 -0.4103
N1A_2 N 0.0139(3) -0.0068(3) -0.3332(2)
Cd1_2 Cd 0.0000 0.0000 -1.5000
Cd2 Cd -0.5000 0.0000 0.0000
S3 S -0.62382(8) 0.13020(9) 0.00219(7)
S4 S -0.33495(8) 0.21545(9) 0.03869(7)
P2 P -0.46998(9) 0.26466(9) 0.03357(7)
O3 O -0.4699(2) 0.3570(2) 0.13027(19)
O4 O -0.4555(3) 0.3452(2) -0.03713(19)
N2 N -0.4890(3) -0.0148(3) -0.1719(2)
C19 C -0.4905(3) 0.3212(4) 0.2207(3)
H28 H -0.4809 0.2472 0.2124
C20 C -0.3998(4) 0.4117(4) 0.3002(3)
H29 H -0.3207 0.4182 0.2836
H30 H -0.4054 0.4864 0.3062
C21 C -0.4210(4) 0.3788(4) 0.3963(3)
H31 H -0.3643 0.4391 0.4482
H32 H -0.4084 0.3074 0.3916
C22 C -0.5447(4) 0.3621(4) 0.4222(3)
H33 H -0.5551 0.4353 0.4330
H34 H -0.5569 0.3373 0.4828
C23 C -0.6346(4) 0.2728(4) 0.3408(3)
H35 H -0.6292 0.1979 0.3341
H36 H -0.7139 0.2660 0.3571
C24 C -0.6135(4) 0.3063(4) 0.2447(3)
H37 H -0.6702 0.2466 0.1924
H38 H -0.6248 0.3783 0.2496
C25 C -0.4474(3) 0.3034(3) -0.1411(3)
H39 H -0.4601 0.2210 -0.1559
C26 C -0.3268(4) 0.3702(4) -0.1647(3)
H40 H -0.2679 0.3567 -0.1280
H41 H -0.3114 0.4525 -0.1449
C27 C -0.3164(4) 0.3344(4) -0.2733(3)
H42 H -0.2391 0.3828 -0.2877
H43 H -0.3221 0.2546 -0.2910
C28 C -0.4103(4) 0.3446(4) -0.3338(3)
H44 H -0.4054 0.3131 -0.4030
H45 H -0.3971 0.4259 -0.3240
C29 C -0.5328(4) 0.2809(4) -0.3072(3)
H46 H -0.5909 0.2960 -0.3434
H47 H -0.5509 0.1981 -0.3267
C30 C -0.5423(4) 0.3177(4) -0.1980(3)
H48 H -0.5341 0.3982 -0.1795
H49 H -0.6197 0.2708 -0.1826
C31 C -0.3864(3) 0.0221(3) -0.2092(3)
H50 H -0.3169 0.0467 -0.1677
C32 C -0.3766(4) 0.0262(4) -0.3047(3)
H51 H -0.3020 0.0518 -0.3274
C33 C -0.4762(4) -0.0072(4) -0.3676(3)
C34 C -0.5837(4) -0.0473(4) -0.3299(3)
H52 H -0.6542 -0.0722 -0.3701
C35 C -0.5866(4) -0.0504(4) -0.2328(3)
H53 H -0.6601 -0.0786 -0.2087
C36 C -0.4586(4) 0.0067(4) -0.4684(3)
H54 H -0.3819 0.0265 -0.4872
C36A C -0.5414(4) -0.0067(4) -0.5316(3)
C33A C -0.5238(4) 0.0072(4) -0.6324(3)
C32A C -0.6234(4) -0.0262(4) -0.6953(3)
C31A C -0.6136(3) -0.0221(3) -0.7908(3)
N2A N -0.5110(3) 0.0148(3) -0.8281(2)
C35A C -0.4134(4) 0.0504(4) -0.7672(3)
C34A C -0.4163(4) 0.0473(4) -0.6701(3)
H52A H -0.3458 0.0722 -0.6299
H53A H -0.3399 0.0786 -0.7913
H50A H -0.6831 -0.0467 -0.8323
H51A H -0.6980 -0.0518 -0.6726
H54A H -0.6181 -0.0265 -0.5128
S3A S -0.37618(8) -0.13020(9) -0.00219(7)
S4A S -0.66505(8) -0.21545(9) -0.03869(7)
P2A P -0.53002(9) -0.26466(9) -0.03357(7)
O3A O -0.5301(2) -0.3570(2) -0.13027(19)
O4A O -0.5445(3) -0.3452(2) 0.03713(19)
C19A C -0.5095(3) -0.3212(4) -0.2207(3)
H28A H -0.5191 -0.2472 -0.2124
C20A C -0.6002(4) -0.4117(4) -0.3002(3)
H29A H -0.6793 -0.4182 -0.2836
H30A H -0.5946 -0.4864 -0.3062
C21A C -0.5790(4) -0.3788(4) -0.3963(3)
H31A H -0.6357 -0.4391 -0.4482
H32A H -0.5916 -0.3074 -0.3916
C22A C -0.4553(4) -0.3621(4) -0.4222(3)
H33A H -0.4449 -0.4353 -0.4330
H34A H -0.4431 -0.3373 -0.4828
C23A C -0.3654(4) -0.2728(4) -0.3408(3)
H35A H -0.3708 -0.1979 -0.3341
H36A H -0.2861 -0.2660 -0.3571
C24A C -0.3865(4) -0.3063(4) -0.2447(3)
H37A H -0.3298 -0.2466 -0.1924
H38A H -0.3752 -0.3783 -0.2496
C25A C -0.5526(3) -0.3034(3) 0.1411(3)
H39A H -0.5399 -0.2210 0.1559
C26A C -0.6732(4) -0.3702(4) 0.1647(3)
H40A H -0.7321 -0.3567 0.1280
H41A H -0.6886 -0.4525 0.1449
C27A C -0.6836(4) -0.3344(4) 0.2733(3)
H42A H -0.7609 -0.3828 0.2877
H43A H -0.6779 -0.2546 0.2910
C28A C -0.5897(4) -0.3446(4) 0.3338(3)
H44A H -0.5946 -0.3131 0.4030
H45A H -0.6029 -0.4259 0.3240
C29A C -0.4672(4) -0.2809(4) 0.3072(3)
H46A H -0.4091 -0.2960 0.3434
H47A H -0.4491 -0.1981 0.3267
C30A C -0.4577(4) -0.3177(4) 0.1980(3)
H48A H -0.4659 -0.3982 0.1795
H49A H -0.3803 -0.2708 0.1826
N2A_2 N -0.5110(3) 0.0148(3) 0.1719(2)
Cd2_2 Cd -0.5000 0.0000 -1.0000
loop_
_geom_bond_atom_site_label_1
_geom_bond_atom_site_label_2
_geom_bond_site_symmetry_1
_geom_bond_site_symmetry_2
Cd1 S1 1_555 1_555
Cd2 S3 1_555 1_555
S1 P1 1_555 1_555
S2 Cd1 1_555 1_555
S3 P2 1_555 1_555
S4 Cd2 1_555 1_555
P1 S2 1_555 1_555
P2 S4 1_555 1_555
O1 P1 1_555 1_555
O2 P1 1_555 1_555
O3 P2 1_555 1_555
O4 P2 1_555 1_555
N1 Cd1 1_555 1_555
N2 Cd2 1_555 1_555
C1 O1 1_555 1_555
H1 C1 1_555 1_555
C2 C1 1_555 1_555
H2 C2 1_555 1_555
H3 C2 1_555 1_555
C3 C2 1_555 1_555
H4 C3 1_555 1_555
H5 C3 1_555 1_555
C4 C3 1_555 1_555
H6 C4 1_555 1_555
H7 C4 1_555 1_555
C5 C4 1_555 1_555
H8 C5 1_555 1_555
H9 C5 1_555 1_555
C6 C1 1_555 1_555
H10 C6 1_555 1_555
H11 C6 1_555 1_555
C7 O2 1_555 1_555
H12 C7 1_555 1_555
C8 C7 1_555 1_555
H13 C8 1_555 1_555
H14 C8 1_555 1_555
C9 C8 1_555 1_555
H15 C9 1_555 1_555
H16 C9 1_555 1_555
C10 C9 1_555 1_555
H17 C10 1_555 1_555
H18 C10 1_555 1_555
C11 C10 1_555 1_555
H19 C11 1_555 1_555
H20 C11 1_555 1_555
C12 C7 1_555 1_555
H21 C12 1_555 1_555
H22 C12 1_555 1_555
C13 N1 1_555 1_555
H23 C13 1_555 1_555
C14 C13 1_555 1_555
H24 C14 1_555 1_555
C15 C14 1_555 1_555
C16 C15 1_555 1_555
H25 C16 1_555 1_555
C17 N1 1_555 1_555
H26 C17 1_555 1_555
C18 C15 1_555 1_555
H27 C18 1_555 1_555
C19 O3 1_555 1_555
H28 C19 1_555 1_555
C20 C19 1_555 1_555
H29 C20 1_555 1_555
H30 C20 1_555 1_555
C21 C20 1_555 1_555
H31 C21 1_555 1_555
H32 C21 1_555 1_555
C22 C21 1_555 1_555
H33 C22 1_555 1_555
H34 C22 1_555 1_555
C23 C22 1_555 1_555
H35 C23 1_555 1_555
H36 C23 1_555 1_555
C24 C19 1_555 1_555
H37 C24 1_555 1_555
H38 C24 1_555 1_555
C25 O4 1_555 1_555
H39 C25 1_555 1_555
C26 C25 1_555 1_555
H40 C26 1_555 1_555
H41 C26 1_555 1_555
C27 C26 1_555 1_555
H42 C27 1_555 1_555
H43 C27 1_555 1_555
C28 C27 1_555 1_555
H44 C28 1_555 1_555
H45 C28 1_555 1_555
C29 C28 1_555 1_555
H46 C29 1_555 1_555
H47 C29 1_555 1_555
C30 C25 1_555 1_555
H48 C30 1_555 1_555
H49 C30 1_555 1_555
C31 N2 1_555 1_555
H50 C31 1_555 1_555
C32 C31 1_555 1_555
H51 C32 1_555 1_555
C33 C32 1_555 1_555
C34 C33 1_555 1_555
H52 C34 1_555 1_555
C35 N2 1_555 1_555
H53 C35 1_555 1_555
C36 C33 1_555 1_555
H54 C36 1_555 1_555
C18A C18 1_555 1_555
C15A C18A 1_555 1_555
C14A C15A 1_555 1_555
C13A C14A 1_555 1_555
N1A C13A 1_555 1_555
C17A N1A 1_555 1_555
C16A C15A 1_555 1_555
H25A C16A 1_555 1_555
H26A C17A 1_555 1_555
H23A C13A 1_555 1_555
H24A C14A 1_555 1_555
H27A C18A 1_555 1_555
C36A C36 1_555 1_555
C33A C36A 1_555 1_555
C32A C33A 1_555 1_555
C31A C32A 1_555 1_555
N2A C31A 1_555 1_555
C35A N2A 1_555 1_555
C34A C33A 1_555 1_555
H52A C34A 1_555 1_555
H53A C35A 1_555 1_555
H50A C31A 1_555 1_555
H51A C32A 1_555 1_555
H54A C36A 1_555 1_555
S1A Cd1 1_555 1_555
S2A Cd1 1_555 1_555
P1A S1A 1_555 1_555
O1A P1A 1_555 1_555
O2A P1A 1_555 1_555
C1A O1A 1_555 1_555
H1A C1A 1_555 1_555
C2A C1A 1_555 1_555
H2A C2A 1_555 1_555
H3A C2A 1_555 1_555
C3A C2A 1_555 1_555
H4A C3A 1_555 1_555
H5A C3A 1_555 1_555
C4A C3A 1_555 1_555
H6A C4A 1_555 1_555
H7A C4A 1_555 1_555
C5A C4A 1_555 1_555
H8A C5A 1_555 1_555
H9A C5A 1_555 1_555
C6A C1A 1_555 1_555
H10A C6A 1_555 1_555
H11A C6A 1_555 1_555
C7A O2A 1_555 1_555
H12A C7A 1_555 1_555
C8A C7A 1_555 1_555
H13A C8A 1_555 1_555
H14A C8A 1_555 1_555
C9A C8A 1_555 1_555
H15A C9A 1_555 1_555
H16A C9A 1_555 1_555
C10A C9A 1_555 1_555
H17A C10A 1_555 1_555
H18A C10A 1_555 1_555
C11A C10A 1_555 1_555
H19A C11A 1_555 1_555
H20A C11A 1_555 1_555
C12A C7A 1_555 1_555
H21A C12A 1_555 1_555
H22A C12A 1_555 1_555
S3A Cd2 1_555 1_555
S4A Cd2 1_555 1_555
P2A S3A 1_555 1_555
O3A P2A 1_555 1_555
O4A P2A 1_555 1_555
C19A O3A 1_555 1_555
H28A C19A 1_555 1_555
C20A C19A 1_555 1_555
H29A C20A 1_555 1_555
H30A C20A 1_555 1_555
C21A C20A 1_555 1_555
H31A C21A 1_555 1_555
H32A C21A 1_555 1_555
C22A C21A 1_555 1_555
H33A C22A 1_555 1_555
H34A C22A 1_555 1_555
C23A C22A 1_555 1_555
H35A C23A 1_555 1_555
H36A C23A 1_555 1_555
C24A C19A 1_555 1_555
H37A C24A 1_555 1_555
H38A C24A 1_555 1_555
C25A O4A 1_555 1_555
H39A C25A 1_555 1_555
C26A C25A 1_555 1_555
H40A C26A 1_555 1_555
H41A C26A 1_555 1_555
C27A C26A 1_555 1_555
H42A C27A 1_555 1_555
H43A C27A 1_555 1_555
C28A C27A 1_555 1_555
H44A C28A 1_555 1_555
H45A C28A 1_555 1_555
C29A C28A 1_555 1_555
H46A C29A 1_555 1_555
H47A C29A 1_555 1_555
C30A C25A 1_555 1_555
H48A C30A 1_555 1_555
H49A C30A 1_555 1_555
N1A_2 Cd1 1_555 1_555
N2A_2 Cd2 1_555 1_555
Cd1_2 N1A 1_555 1_555
Cd2_2 N2A 1_555 1_555
C5 C6 1_555 1_555
C11 C12 1_555 1_555
C16 C17 1_555 1_555
C23 C24 1_555 1_555
C29 C30 1_555 1_555
C34 C35 1_555 1_555
C17A C16A 1_555 1_555
C35A C34A 1_555 1_555
S2A P1A 1_555 1_555
C5A C6A 1_555 1_555
C11A C12A 1_555 1_555
S4A P2A 1_555 1_555
C23A C24A 1_555 1_555
C29A C30A 1_555 1_555

#END
