
#######################################################################
#
#                 Cambridge Crystallographic Data Centre
#                                CCDC 
#
#######################################################################
#
# If this CIF has been generated from an entry in the Cambridge 
# Structural Database, then it will include bibliographic, chemical, 
# crystal, experimental, refinement or atomic coordinate data resulting 
# from the CCDC's data processing and validation procedures.
#
#######################################################################

data_BILCOP
_symmetry_cell_setting           orthorhombic
_symmetry_space_group_name_H-M   'P c a 21'
_symmetry_Int_Tables_number      29
_space_group_name_Hall           'P 2c -2ac'
loop_
_symmetry_equiv_pos_site_id
_symmetry_equiv_pos_as_xyz
1 x,y,z
2 -x,-y,1/2+z
3 1/2-x,y,1/2+z
4 1/2+x,-y,z
_cell_length_a                   14.1812(16)
_cell_length_b                   9.6260(11)
_cell_length_c                   23.073(3)
_cell_angle_alpha                90
_cell_angle_beta                 90
_cell_angle_gamma                90
_cell_volume                     3149.65
loop_
_atom_site_label
_atom_site_type_symbol
_atom_site_fract_x
_atom_site_fract_y
_atom_site_fract_z
Cd1 Cd 0.039759(17) 0.24865(5) 0.08694(4)
S1 S 0.04254(8) 0.38507(16) -0.01490(7)
S2 S 0.03856(8) 0.04305(16) 0.00500(7)
S3 S 0.05776(9) 0.11221(16) 0.18797(7)
S4 S 0.04278(8) 0.45491(17) 0.16816(7)
P1 P 0.04773(8) 0.19701(18) -0.05180(7)
P2 P 0.05950(9) 0.30177(17) 0.22462(7)
O1 O 0.1387(2) 0.1820(4) -0.09174(17)
O2 O -0.0328(2) 0.1771(4) -0.0983(2)
O3 O 0.1518(2) 0.3213(4) 0.26289(17)
O4 O -0.0191(2) 0.3178(4) 0.2724(2)
N1 N -0.1298(2) 0.2410(5) 0.0904(5)
N2 N -0.7908(2) 0.2586(4) 0.0840(4)
C1 C 0.2324(4) 0.1840(6) -0.0665(3)
H1 H 0.2256 0.1846 -0.0238
C2 C 0.2830(4) 0.0547(7) -0.0833(3)
H2 H 0.2489 -0.0254 -0.0687
H3 H 0.3460 0.0559 -0.0669
H4 H 0.2872 0.0493 -0.1252
C3 C 0.2807(4) 0.3151(7) -0.0841(3)
H5 H 0.2456 0.3942 -0.0694
H6 H 0.2837 0.3199 -0.1261
H7 H 0.3440 0.3164 -0.0683
C4 C -0.0503(4) 0.2806(9) -0.1445(4)
H8 H 0.0036 0.3458 -0.1462
C5 C -0.0554(5) 0.2016(10) -0.2008(3)
H9 H 0.0050 0.1580 -0.2085
H10 H -0.0706 0.2651 -0.2321
H11 H -0.1039 0.1308 -0.1981
C6 C -0.1366(5) 0.3592(7) -0.1306(3)
H12 H -0.1267 0.4127 -0.0955
H13 H -0.1885 0.2950 -0.1248
H14 H -0.1515 0.4215 -0.1624
C7 C 0.2448(3) 0.3236(6) 0.2338(3)
H15 H 0.2361 0.3282 0.1912
C8 C 0.2968(4) 0.1921(8) 0.2496(3)
H16 H 0.2623 0.1123 0.2351
H17 H 0.3023 0.1857 0.2915
H18 H 0.3592 0.1938 0.2325
C9 C 0.2943(4) 0.4536(7) 0.2548(3)
H19 H 0.2596 0.5349 0.2421
H20 H 0.3578 0.4565 0.2391
H21 H 0.2973 0.4527 0.2968
C10 C -0.0303(4) 0.2174(8) 0.3198(3)
H22 H 0.0264 0.1579 0.3228
C11 C -0.0428(5) 0.3008(10) 0.3746(4)
H23 H 0.0130 0.3568 0.3813
H24 H -0.0522 0.2384 0.4070
H25 H -0.0973 0.3611 0.3706
C12 C -0.1164(4) 0.1295(7) 0.3057(3)
H26 H -0.1063 0.0814 0.2693
H27 H -0.1714 0.1889 0.3025
H28 H -0.1263 0.0621 0.3364
C13 C -0.1745(4) 0.2391(5) 0.1418(3)
H29 H -0.1381 0.2437 0.1758
C14 C -0.2717(4) 0.2305(5) 0.1469(3)
H30 H -0.2993 0.2257 0.1839
C15 C -0.3274(3) 0.2291(5) 0.0994(2)
C16 C -0.2813(4) 0.2326(5) 0.0462(3)
H31 H -0.3166 0.2309 0.0117
C17 C -0.1832(4) 0.2385(5) 0.0437(3)
H32 H -0.1539 0.2407 0.0071
C18 C -0.4301(3) 0.2210(5) 0.1046(2)
H33 H -0.4547 0.1716 0.1363
C19 C -0.4905(4) 0.2767(4) 0.0687(2)
H34 H -0.4662 0.3248 0.0365
C20 C -0.5941(3) 0.2698(5) 0.07482(19)
C21 C -0.6499(3) 0.3839(5) 0.0635(2)
H35 H -0.6221 0.4684 0.0523
C22 C -0.7451(3) 0.3745(5) 0.0686(2)
H36 H -0.7811 0.4543 0.0609
C23 C -0.7374(3) 0.1470(5) 0.0956(2)
H37 H -0.7676 0.0640 0.1064
C24 C -0.6398(3) 0.1484(5) 0.0925(3)
H38 H -0.6048 0.0687 0.1021
N2_2 N 0.2092(2) 0.2586(4) 0.0840(4)
Cd1_2 Cd -0.960241(17) 0.24865(5) 0.08694(4)
loop_
_geom_bond_atom_site_label_1
_geom_bond_atom_site_label_2
_geom_bond_site_symmetry_1
_geom_bond_site_symmetry_2
Cd1 S1 1_555 1_555
S1 P1 1_555 1_555
S2 Cd1 1_555 1_555
S3 Cd1 1_555 1_555
S4 Cd1 1_555 1_555
P1 S2 1_555 1_555
P2 S3 1_555 1_555
O1 P1 1_555 1_555
O2 P1 1_555 1_555
O3 P2 1_555 1_555
O4 P2 1_555 1_555
N1 Cd1 1_555 1_555
N2 C22 1_555 1_555
C1 O1 1_555 1_555
H1 C1 1_555 1_555
C2 C1 1_555 1_555
H2 C2 1_555 1_555
H3 C2 1_555 1_555
H4 C2 1_555 1_555
C3 C1 1_555 1_555
H5 C3 1_555 1_555
H6 C3 1_555 1_555
H7 C3 1_555 1_555
C4 O2 1_555 1_555
H8 C4 1_555 1_555
C5 C4 1_555 1_555
H9 C5 1_555 1_555
H10 C5 1_555 1_555
H11 C5 1_555 1_555
C6 C4 1_555 1_555
H12 C6 1_555 1_555
H13 C6 1_555 1_555
H14 C6 1_555 1_555
C7 O3 1_555 1_555
H15 C7 1_555 1_555
C8 C7 1_555 1_555
H16 C8 1_555 1_555
H17 C8 1_555 1_555
H18 C8 1_555 1_555
C9 C7 1_555 1_555
H19 C9 1_555 1_555
H20 C9 1_555 1_555
H21 C9 1_555 1_555
C10 O4 1_555 1_555
H22 C10 1_555 1_555
C11 C10 1_555 1_555
H23 C11 1_555 1_555
H24 C11 1_555 1_555
H25 C11 1_555 1_555
C12 C10 1_555 1_555
H26 C12 1_555 1_555
H27 C12 1_555 1_555
H28 C12 1_555 1_555
C13 N1 1_555 1_555
H29 C13 1_555 1_555
C14 C13 1_555 1_555
H30 C14 1_555 1_555
C15 C14 1_555 1_555
C16 C15 1_555 1_555
H31 C16 1_555 1_555
C17 N1 1_555 1_555
H32 C17 1_555 1_555
C18 C15 1_555 1_555
H33 C18 1_555 1_555
C19 C18 1_555 1_555
H34 C19 1_555 1_555
C20 C19 1_555 1_555
C21 C20 1_555 1_555
H35 C21 1_555 1_555
C22 C21 1_555 1_555
H36 C22 1_555 1_555
C23 N2 1_555 1_555
H37 C23 1_555 1_555
C24 C20 1_555 1_555
H38 C24 1_555 1_555
N2_2 Cd1 1_555 1_555
Cd1_2 N2 1_555 1_555
S4 P2 1_555 1_555
C16 C17 1_555 1_555
C23 C24 1_555 1_555

#END
