
#######################################################################
#
#                 Cambridge Crystallographic Data Centre
#                                CCDC 
#
#######################################################################
#
# If this CIF has been generated from an entry in the Cambridge 
# Structural Database, then it will include bibliographic, chemical, 
# crystal, experimental, refinement or atomic coordinate data resulting 
# from the CCDC's data processing and validation procedures.
#
#######################################################################

data_BILCEF
_symmetry_cell_setting           monoclinic
_symmetry_space_group_name_H-M   'C 2/c'
_symmetry_Int_Tables_number      15
_space_group_name_Hall           '-C 2yn'
loop_
_symmetry_equiv_pos_site_id
_symmetry_equiv_pos_as_xyz
1 x,y,z
2 1/2+x,1/2+y,z
3 -x,y,1/2-z
4 1/2-x,1/2+y,1/2-z
5 -x,-y,-z
6 1/2-x,1/2-y,-z
7 x,-y,1/2+z
8 1/2+x,1/2-y,1/2+z
_cell_length_a                   19.8648(10)
_cell_length_b                   12.4997(6)
_cell_length_c                   15.7057(8)
_cell_angle_alpha                90
_cell_angle_beta                 123.010(1)
_cell_angle_gamma                90
_cell_volume                     3270.27
loop_
_atom_site_label
_atom_site_type_symbol
_atom_site_fract_x
_atom_site_fract_y
_atom_site_fract_z
Cd1 Cd 0.2500 0.2500 0.5000
S1 S 0.30930(4) 0.17977(6) 0.68983(5)
S2 S 0.15941(4) 0.07436(6) 0.47186(5)
P1 P 0.22132(5) 0.07299(6) 0.62313(6)
O1 O 0.25175(16) -0.04442(18) 0.66415(17)
O2 O 0.16753(13) 0.0953(2) 0.66731(17)
N1 N 0.34737(13) 0.1478(2) 0.49802(19)
C1 C 0.2865(3) -0.1159(3) 0.6236(3)
H1 H 0.2663 -0.0948 0.5528
C2 C 0.3764(4) -0.1062(5) 0.6865(6)
H2 H 0.3916 -0.0336 0.6821
H3 H 0.3993 -0.1556 0.6614
H4 H 0.3963 -0.1229 0.7567
C3 C 0.2561(4) -0.2247(4) 0.6235(5)
H5 H 0.1980 -0.2254 0.5793
H6 H 0.2721 -0.2436 0.6919
H7 H 0.2784 -0.2761 0.5990
C4 C 0.08806(19) 0.0478(3) 0.6250(3)
H8 H 0.0680 0.0214 0.5557
C5 C 0.0942(3) -0.0441(5) 0.6891(4)
H9 H 0.1290 -0.0984 0.6888
H10 H 0.0413 -0.0741 0.6622
H11 H 0.1164 -0.0197 0.7581
C6 C 0.0343(3) 0.1351(4) 0.6182(5)
H12 H 0.0327 0.1918 0.5750
H13 H 0.0545 0.1634 0.6855
H14 H -0.0194 0.1071 0.5897
C7 C 0.42456(17) 0.1607(3) 0.5709(3)
H15 H 0.4380 0.2106 0.6226
C8 C 0.48559(17) 0.1046(3) 0.5742(3)
H16 H 0.5392 0.1168 0.6272
C9 C 0.46791(15) 0.0306(2) 0.4997(2)
C10 C 0.38785(17) 0.0167(3) 0.4252(3)
H17 H 0.3726 -0.0336 0.3732
C11 C 0.33006(17) 0.0763(3) 0.4268(2)
H18 H 0.2759 0.0656 0.3749
C9D C 0.53209(15) -0.0306(2) 0.5003(2)
C8D C 0.51441(17) -0.1046(3) 0.4258(3)
C7D C 0.57544(17) -0.1607(3) 0.4291(3)
N1D N 0.65263(13) -0.1478(2) 0.50198(19)
C11D C 0.66994(17) -0.0763(3) 0.5732(2)
C10D C 0.61215(17) -0.0167(3) 0.5748(3)
H17D H 0.6274 0.0336 0.6268
H18D H 0.7241 -0.0656 0.6251
H15D H 0.5620 -0.2106 0.3774
H16D H 0.4608 -0.1168 0.3728
S1E S 0.19070(4) 0.32023(6) 0.31017(5)
S2E S 0.34059(4) 0.42564(6) 0.52814(5)
P1E P 0.27868(5) 0.42701(6) 0.37687(6)
O1E O 0.24825(16) 0.54442(18) 0.33585(17)
O2E O 0.33247(13) 0.4047(2) 0.33269(17)
C1E C 0.2135(3) 0.6159(3) 0.3764(3)
H1E H 0.2337 0.5948 0.4472
C2E C 0.1236(4) 0.6062(5) 0.3135(6)
H2E H 0.1084 0.5336 0.3179
H3E H 0.1007 0.6556 0.3386
H4E H 0.1037 0.6229 0.2433
C3E C 0.2439(4) 0.7247(4) 0.3765(5)
H5E H 0.3020 0.7254 0.4207
H6E H 0.2279 0.7436 0.3081
H7E H 0.2216 0.7761 0.4010
C4E C 0.41194(19) 0.4522(3) 0.3750(3)
H8E H 0.4320 0.4786 0.4443
C5E C 0.4058(3) 0.5441(5) 0.3109(4)
H9E H 0.3710 0.5984 0.3112
H10E H 0.4587 0.5741 0.3378
H11E H 0.3836 0.5197 0.2419
C6E C 0.4657(3) 0.3649(4) 0.3818(5)
H12E H 0.4673 0.3082 0.4250
H13E H 0.4455 0.3366 0.3145
H14E H 0.5194 0.3929 0.4103
N1E N 0.15263(13) 0.3522(2) 0.50198(19)
Cd1A Cd 0.7500 -0.2500 0.5000
loop_
_geom_bond_atom_site_label_1
_geom_bond_atom_site_label_2
_geom_bond_site_symmetry_1
_geom_bond_site_symmetry_2
Cd1 S1 1_555 1_555
S1 P1 1_555 1_555
S2 Cd1 1_555 1_555
P1 S2 1_555 1_555
O1 P1 1_555 1_555
O2 P1 1_555 1_555
N1 Cd1 1_555 1_555
C1 O1 1_555 1_555
H1 C1 1_555 1_555
C2 C1 1_555 1_555
H2 C2 1_555 1_555
H3 C2 1_555 1_555
H4 C2 1_555 1_555
C3 C1 1_555 1_555
H5 C3 1_555 1_555
H6 C3 1_555 1_555
H7 C3 1_555 1_555
C4 O2 1_555 1_555
H8 C4 1_555 1_555
C5 C4 1_555 1_555
H9 C5 1_555 1_555
H10 C5 1_555 1_555
H11 C5 1_555 1_555
C6 C4 1_555 1_555
H12 C6 1_555 1_555
H13 C6 1_555 1_555
H14 C6 1_555 1_555
C7 N1 1_555 1_555
H15 C7 1_555 1_555
C8 C7 1_555 1_555
H16 C8 1_555 1_555
C9 C8 1_555 1_555
C10 C9 1_555 1_555
H17 C10 1_555 1_555
C11 N1 1_555 1_555
H18 C11 1_555 1_555
C9D C9 1_555 1_555
C8D C9D 1_555 1_555
C7D C8D 1_555 1_555
N1D C7D 1_555 1_555
C11D N1D 1_555 1_555
C10D C9D 1_555 1_555
H17D C10D 1_555 1_555
H18D C11D 1_555 1_555
H15D C7D 1_555 1_555
H16D C8D 1_555 1_555
S1E Cd1 1_555 1_555
S2E Cd1 1_555 1_555
P1E S1E 1_555 1_555
O1E P1E 1_555 1_555
O2E P1E 1_555 1_555
C1E O1E 1_555 1_555
H1E C1E 1_555 1_555
C2E C1E 1_555 1_555
H2E C2E 1_555 1_555
H3E C2E 1_555 1_555
H4E C2E 1_555 1_555
C3E C1E 1_555 1_555
H5E C3E 1_555 1_555
H6E C3E 1_555 1_555
H7E C3E 1_555 1_555
C4E O2E 1_555 1_555
H8E C4E 1_555 1_555
C5E C4E 1_555 1_555
H9E C5E 1_555 1_555
H10E C5E 1_555 1_555
H11E C5E 1_555 1_555
C6E C4E 1_555 1_555
H12E C6E 1_555 1_555
H13E C6E 1_555 1_555
H14E C6E 1_555 1_555
N1E Cd1 1_555 1_555
Cd1A N1D 1_555 1_555
C10 C11 1_555 1_555
C11D C10D 1_555 1_555
S2E P1E 1_555 1_555

#END
