
#######################################################################
#
#                 Cambridge Crystallographic Data Centre
#                                CCDC 
#
#######################################################################
#
# If this CIF has been generated from an entry in the Cambridge 
# Structural Database, then it will include bibliographic, chemical, 
# crystal, experimental, refinement or atomic coordinate data resulting 
# from the CCDC's data processing and validation procedures.
#
#######################################################################

data_BILDAC
_symmetry_cell_setting           orthorhombic
_symmetry_space_group_name_H-M   'P c a 21'
_symmetry_Int_Tables_number      29
_space_group_name_Hall           'P 2c -2ac'
loop_
_symmetry_equiv_pos_site_id
_symmetry_equiv_pos_as_xyz
1 x,y,z
2 -x,-y,1/2+z
3 1/2-x,y,1/2+z
4 1/2+x,-y,z
_cell_length_a                   14.1473(7)
_cell_length_b                   9.8274(5)
_cell_length_c                   23.0799(11)
_cell_angle_alpha                90
_cell_angle_beta                 90
_cell_angle_gamma                90
_cell_volume                     3208.83
loop_
_atom_site_label
_atom_site_type_symbol
_atom_site_fract_x
_atom_site_fract_y
_atom_site_fract_z
Cd1 Cd 0.039032(12) 0.25100(4) 0.00024(3)
S1 S 0.04086(6) 0.38525(12) -0.10195(5)
S2 S 0.03970(6) 0.05057(12) -0.08201(5)
S3 S 0.04403(6) 0.45031(12) 0.08188(5)
S4 S 0.05810(6) 0.11498(12) 0.10134(5)
P1 P 0.04731(6) 0.20176(13) -0.13873(5)
P2 P 0.06093(6) 0.29946(12) 0.13811(5)
O1 O 0.13821(17) 0.1873(3) -0.17886(12)
O2 O -0.03359(16) 0.1794(3) -0.18486(14)
O3 O 0.15348(16) 0.3176(3) 0.17616(12)
O4 O -0.01813(16) 0.3166(3) 0.18586(13)
N1 N -0.12934(17) 0.2427(4) 0.0047(3)
N2 N -0.79228(16) 0.2608(3) -0.0028(2)
C1 C 0.2321(2) 0.1920(5) -0.15265(18)
H1 H 0.2251 0.1916 -0.1100
C2 C 0.2840(3) 0.0649(6) -0.1708(3)
H2 H 0.2503 -0.0144 -0.1568
H3 H 0.3473 0.0659 -0.1545
H4 H 0.2880 0.0615 -0.2127
C3 C 0.2804(3) 0.3206(6) -0.1704(2)
H5 H 0.2448 0.3981 -0.1561
H6 H 0.2840 0.3248 -0.2123
H7 H 0.3437 0.3226 -0.1543
C4 C -0.0524(3) 0.2806(7) -0.2305(3)
H8 H 0.0003 0.3468 -0.2323
C5 C -0.1407(4) 0.3517(7) -0.2153(3)
H9 H -0.1319 0.4015 -0.1794
H10 H -0.1911 0.2857 -0.2105
H11 H -0.1573 0.4147 -0.2460
C6 C -0.0573(4) 0.2017(9) -0.2867(3)
H12 H 0.0039 0.1613 -0.2948
H13 H -0.0745 0.2627 -0.3180
H14 H -0.1045 0.1305 -0.2834
C7 C 0.2462(2) 0.3181(5) 0.14797(18)
H15 H 0.2371 0.3230 0.1055
C8 C 0.2966(3) 0.1878(6) 0.1625(2)
H16 H 0.2592 0.1110 0.1493
H17 H 0.3054 0.1818 0.2041
H18 H 0.3577 0.1864 0.1435
C9 C 0.2982(3) 0.4430(6) 0.1677(2)
H19 H 0.2628 0.5235 0.1567
H20 H 0.3601 0.4456 0.1498
H21 H 0.3053 0.4407 0.2095
C10 C -0.0293(3) 0.2186(6) 0.2339(2)
H22 H 0.0279 0.1611 0.2374
C11 C -0.1149(3) 0.1312(6) 0.2196(3)
H23 H -0.1022 0.0785 0.1849
H24 H -0.1693 0.1893 0.2131
H25 H -0.1278 0.0701 0.2516
C12 C -0.0429(4) 0.3016(8) 0.2881(3)
H26 H 0.0138 0.3542 0.2958
H27 H -0.0552 0.2414 0.3206
H28 H -0.0961 0.3627 0.2830
C13 C -0.1841(3) 0.2271(4) -0.0409(2)
H29 H -0.1553 0.2207 -0.0775
C14 C -0.2811(3) 0.2198(4) -0.03792(19)
H30 H -0.3166 0.2103 -0.0721
C15 C -0.3270(2) 0.2263(3) 0.01529(15)
C16 C -0.2706(3) 0.2427(4) 0.0627(2)
H31 H -0.2978 0.2489 0.0997
C17 C -0.1731(3) 0.2501(4) 0.0563(2)
H32 H -0.1359 0.2608 0.0897
C18 C -0.4330(2) 0.2120(4) 0.02256(15)
H33 H -0.4512 0.2499 0.0602
H34 H -0.4492 0.1150 0.0228
C19 C -0.4900(2) 0.2823(3) -0.02455(16)
H35 H -0.4750 0.2404 -0.0620
H36 H -0.4711 0.3781 -0.0265
C20 C -0.5951(2) 0.2749(3) -0.01497(14)
C21 C -0.6514(2) 0.3895(4) -0.01959(16)
H37 H -0.6240 0.4750 -0.0268
C22 C -0.7474(2) 0.3777(4) -0.01364(16)
H38 H -0.7841 0.4570 -0.0174
C23 C -0.7390(2) 0.1505(4) 0.00403(18)
H39 H -0.7686 0.0675 0.0130
C24 C -0.6416(2) 0.1531(4) -0.00166(18)
H40 H -0.6065 0.0728 0.0034
N2_2 N 0.20772(16) 0.2608(3) -0.0028(2)
Cd1_2 Cd -0.960968(12) 0.25100(4) 0.00024(3)
loop_
_geom_bond_atom_site_label_1
_geom_bond_atom_site_label_2
_geom_bond_site_symmetry_1
_geom_bond_site_symmetry_2
Cd1 S1 1_555 1_555
S1 P1 1_555 1_555
S2 Cd1 1_555 1_555
S3 Cd1 1_555 1_555
S4 Cd1 1_555 1_555
P1 S2 1_555 1_555
P2 S3 1_555 1_555
O1 P1 1_555 1_555
O2 P1 1_555 1_555
O3 P2 1_555 1_555
O4 P2 1_555 1_555
N1 Cd1 1_555 1_555
N2 C22 1_555 1_555
C1 O1 1_555 1_555
H1 C1 1_555 1_555
C2 C1 1_555 1_555
H2 C2 1_555 1_555
H3 C2 1_555 1_555
H4 C2 1_555 1_555
C3 C1 1_555 1_555
H5 C3 1_555 1_555
H6 C3 1_555 1_555
H7 C3 1_555 1_555
C4 O2 1_555 1_555
H8 C4 1_555 1_555
C5 C4 1_555 1_555
H9 C5 1_555 1_555
H10 C5 1_555 1_555
H11 C5 1_555 1_555
C6 C4 1_555 1_555
H12 C6 1_555 1_555
H13 C6 1_555 1_555
H14 C6 1_555 1_555
C7 O3 1_555 1_555
H15 C7 1_555 1_555
C8 C7 1_555 1_555
H16 C8 1_555 1_555
H17 C8 1_555 1_555
H18 C8 1_555 1_555
C9 C7 1_555 1_555
H19 C9 1_555 1_555
H20 C9 1_555 1_555
H21 C9 1_555 1_555
C10 O4 1_555 1_555
H22 C10 1_555 1_555
C11 C10 1_555 1_555
H23 C11 1_555 1_555
H24 C11 1_555 1_555
H25 C11 1_555 1_555
C12 C10 1_555 1_555
H26 C12 1_555 1_555
H27 C12 1_555 1_555
H28 C12 1_555 1_555
C13 N1 1_555 1_555
H29 C13 1_555 1_555
C14 C13 1_555 1_555
H30 C14 1_555 1_555
C15 C14 1_555 1_555
C16 C15 1_555 1_555
H31 C16 1_555 1_555
C17 N1 1_555 1_555
H32 C17 1_555 1_555
C18 C15 1_555 1_555
H33 C18 1_555 1_555
H34 C18 1_555 1_555
C19 C18 1_555 1_555
H35 C19 1_555 1_555
H36 C19 1_555 1_555
C20 C19 1_555 1_555
C21 C20 1_555 1_555
H37 C21 1_555 1_555
C22 C21 1_555 1_555
H38 C22 1_555 1_555
C23 N2 1_555 1_555
H39 C23 1_555 1_555
C24 C20 1_555 1_555
H40 C24 1_555 1_555
N2_2 Cd1 1_555 1_555
Cd1_2 N2 1_555 1_555
S4 P2 1_555 1_555
C16 C17 1_555 1_555
C23 C24 1_555 1_555

#END
