
#######################################################################
#
#                 Cambridge Crystallographic Data Centre
#                                CCDC 
#
#######################################################################
#
# If this CIF has been generated from an entry in the Cambridge 
# Structural Database, then it will include bibliographic, chemical, 
# crystal, experimental, refinement or atomic coordinate data resulting 
# from the CCDC's data processing and validation procedures.
#
#######################################################################

data_BILKUD
_symmetry_cell_setting           orthorhombic
_symmetry_space_group_name_H-M   'P 21 21 21'
_symmetry_Int_Tables_number      19
_space_group_name_Hall           'P 2ac 2ab'
loop_
_symmetry_equiv_pos_site_id
_symmetry_equiv_pos_as_xyz
1 x,y,z
2 1/2-x,-y,1/2+z
3 -x,1/2+y,1/2-z
4 1/2+x,1/2-y,-z
_cell_length_a                   6.7147(12)
_cell_length_b                   11.0599(19)
_cell_length_c                   27.396(5)
_cell_angle_alpha                90
_cell_angle_beta                 90
_cell_angle_gamma                90
_cell_volume                     2034.53
loop_
_atom_site_label
_atom_site_type_symbol
_atom_site_fract_x
_atom_site_fract_y
_atom_site_fract_z
C1 C 0.2683(7) 0.5283(4) 0.35362(17)
C2 C 0.3217(8) 0.3932(4) 0.29345(18)
C3 C 0.4744(8) 0.4946(4) 0.29091(18)
C4 C 0.3446(8) 0.6039(4) 0.27425(19)
H1 H 0.4286 0.6755 0.2674
H2 H 0.2672 0.5836 0.2446
C5 C 0.2051(8) 0.6275(4) 0.31816(17)
H3 H 0.2272 0.7089 0.3322
H4 H 0.0634 0.6191 0.3088
C6 C 0.4975(7) 0.5205(4) 0.34696(17)
C7 C 0.1924(7) 0.5408(4) 0.40525(17)
C8 C 0.5910(8) 0.4151(4) 0.37428(19)
H5 H 0.5191 0.3405 0.3664
H6 H 0.5834 0.4301 0.4095
H7 H 0.7308 0.4068 0.3646
C9 C 0.6098(8) 0.6347(4) 0.35944(19)
H8 H 0.5512 0.7031 0.3418
H9 H 0.7497 0.6257 0.3500
H10 H 0.6012 0.6496 0.3946
C10 C 0.6548(8) 0.4696(4) 0.2602(2)
H11 H 0.7439 0.5398 0.2611
H12 H 0.6137 0.4542 0.2265
H13 H 0.7247 0.3986 0.2730
C11 C 0.5870(7) 0.4706(3) 0.53402(15)
C12 C 0.3060(7) 0.5440(3) 0.56819(16)
C13 C 0.3830(6) 0.4392(3) 0.59733(17)
C14 C 0.3475(7) 0.3290(4) 0.56297(17)
H14 H 0.3799 0.2523 0.5798
H15 H 0.2073 0.3261 0.5519
C15 C 0.4889(6) 0.3506(3) 0.51977(17)
H16 H 0.5885 0.2850 0.5169
H17 H 0.4148 0.3578 0.4887
C16 C 0.6104(7) 0.4625(3) 0.59012(16)
C17 C 0.7677(6) 0.5120(3) 0.50532(19)
C18 C 0.7434(7) 0.3602(4) 0.60742(17)
H18 H 0.6989 0.2841 0.5927
H19 H 0.7360 0.3540 0.6431
H20 H 0.8812 0.3765 0.5976
C19 C 0.6810(7) 0.5807(4) 0.61360(17)
H21 H 0.5955 0.6473 0.6028
H22 H 0.8188 0.5968 0.6038
H23 H 0.6738 0.5735 0.6492
C20 C 0.3057(7) 0.4289(4) 0.64871(16)
H24 H 0.3646 0.3578 0.6644
H25 H 0.1604 0.4205 0.6481
H26 H 0.3418 0.5017 0.6671
O1 O 0.2149(6) 0.6355(3) 0.42635(13)
O2 O 0.1987(5) 0.4150(3) 0.33172(12)
O3 O 0.3002(6) 0.3070(3) 0.26711(14)
O4 O 0.1079(5) 0.4438(2) 0.42272(12)
H27 H 0.0691 0.4571 0.4514
O5 O 0.9020(4) 0.43553(19) 0.50039(15)
O6 O 0.4255(5) 0.5607(2) 0.52916(11)
O7 O 0.1577(5) 0.6050(3) 0.57398(13)
O8 O 0.7741(4) 0.6182(2) 0.48890(10)
Ag1 Ag 0.06575(4) 0.72137(2) 0.499324(18)
Ag1_2 Ag 1.06575(4) 0.72137(2) 0.499324(18)
Ag1C Ag 0.56575(4) 0.77863(2) 0.500676(18)
O8_2 O -0.2259(4) 0.6182(2) 0.48890(10)
O8C O 0.2741(4) 0.8818(2) 0.51110(10)
loop_
_geom_bond_atom_site_label_1
_geom_bond_atom_site_label_2
_geom_bond_site_symmetry_1
_geom_bond_site_symmetry_2
C1 C5 1_555 1_555
C2 C3 1_555 1_555
C3 C4 1_555 1_555
C4 H1 1_555 1_555
H2 C4 1_555 1_555
C5 C4 1_555 1_555
H3 C5 1_555 1_555
H4 C5 1_555 1_555
C6 C1 1_555 1_555
C7 C1 1_555 1_555
C8 C6 1_555 1_555
H5 C8 1_555 1_555
H6 C8 1_555 1_555
H7 C8 1_555 1_555
C9 C6 1_555 1_555
H8 C9 1_555 1_555
H9 C9 1_555 1_555
H10 C9 1_555 1_555
C10 C3 1_555 1_555
H11 C10 1_555 1_555
H12 C10 1_555 1_555
H13 C10 1_555 1_555
C11 C15 1_555 1_555
C12 C13 1_555 1_555
C13 C14 1_555 1_555
C14 H14 1_555 1_555
H15 C14 1_555 1_555
C15 C14 1_555 1_555
H16 C15 1_555 1_555
H17 C15 1_555 1_555
C16 C11 1_555 1_555
C17 C11 1_555 1_555
C18 C16 1_555 1_555
H18 C18 1_555 1_555
H19 C18 1_555 1_555
H20 C18 1_555 1_555
C19 C16 1_555 1_555
H21 C19 1_555 1_555
H22 C19 1_555 1_555
H23 C19 1_555 1_555
C20 C13 1_555 1_555
H24 C20 1_555 1_555
H25 C20 1_555 1_555
H26 C20 1_555 1_555
O1 C7 1_555 1_555
O2 C1 1_555 1_555
O3 C2 1_555 1_555
O4 C7 1_555 1_555
H27 O4 1_555 1_555
O5 C17 1_555 1_555
O6 C11 1_555 1_555
O7 C12 1_555 1_555
O8 C17 1_555 1_555
Ag1 O1 1_555 1_555
Ag1_2 O8 1_555 1_555
Ag1C O8 1_555 1_555
O8_2 Ag1 1_555 1_555
O8C Ag1 1_555 1_555
C2 O2 1_555 1_555
C3 C6 1_555 1_555
C12 O6 1_555 1_555
C13 C16 1_555 1_555
O7 Ag1 1_555 1_555
Ag1C O8C 1_555 1_555

#END
