
#######################################################################
#
#                 Cambridge Crystallographic Data Centre
#                                CCDC 
#
#######################################################################
#
# If this CIF has been generated from an entry in the Cambridge 
# Structural Database, then it will include bibliographic, chemical, 
# crystal, experimental, refinement or atomic coordinate data resulting 
# from the CCDC's data processing and validation procedures.
#
#######################################################################

data_BILKOX
_symmetry_cell_setting           orthorhombic
_symmetry_space_group_name_H-M   'P 21 21 21'
_symmetry_Int_Tables_number      19
_space_group_name_Hall           'P 2ac 2ab'
loop_
_symmetry_equiv_pos_site_id
_symmetry_equiv_pos_as_xyz
1 x,y,z
2 1/2-x,-y,1/2+z
3 1/2+x,1/2-y,-z
4 -x,1/2+y,1/2-z
_cell_length_a                   11.1831(3)
_cell_length_b                   27.1341(5)
_cell_length_c                   7.0358(14)
_cell_angle_alpha                90
_cell_angle_beta                 90
_cell_angle_gamma                90
_cell_volume                     2134.97
loop_
_atom_site_label
_atom_site_type_symbol
_atom_site_fract_x
_atom_site_fract_y
_atom_site_fract_z
Ag1 Ag -0.75067(5) -0.03794(2) -0.03974(8)
Ag2 Ag -0.92362(11) -0.05039(3) 0.43041(11)
O1 O -0.5964(4) -0.08623(19) -0.1795(6)
O2 O -0.7939(5) -0.1390(3) -0.4661(8)
O3 O -0.5776(3) -0.03833(14) -0.4354(5)
O4 O -0.8852(4) -0.11723(17) -0.1950(7)
O5 O -0.8905(5) -0.07954(19) 0.1502(8)
O6 O -0.4546(5) 0.0083(2) -0.8665(8)
O7 O -1.0345(5) -0.1289(3) 0.2484(10)
O8 O -0.6414(4) -0.00384(18) -0.7753(7)
C1 C -0.4787(4) -0.0324(2) -0.5782(8)
C2 C -0.9545(5) -0.1442(2) -0.0533(10)
C3 C -1.0287(8) -0.1966(4) -0.3005(14)
H1 H -1.0437 -0.1855 -0.4293
H2 H -1.0688 -0.2279 -0.2805
C4 C -0.5404(5) -0.0750(2) -0.3164(9)
C5 C -0.8483(6) -0.1509(3) -0.3256(10)
C6 C -0.4225(5) -0.0942(2) -0.3908(8)
C7 C -0.8915(7) -0.2009(3) -0.2600(11)
C8 C -0.3387(6) -0.0506(3) -0.3357(9)
H3 H -0.3495 -0.0415 -0.2036
H4 H -0.2555 -0.0592 -0.3565
C9 C -0.3776(5) -0.0083(2) -0.4689(11)
H5 H -0.4053 0.0201 -0.3976
H6 H -0.3131 0.0016 -0.5527
C10 C -1.0697(6) -0.1580(4) -0.1543(13)
H7 H -1.1049 -0.1296 -0.2165
H8 H -1.1273 -0.1718 -0.0662
C11 C -0.4410(5) -0.0871(2) -0.6067(8)
C12 C -0.8861(6) -0.1932(2) -0.0409(10)
C13 C -0.9602(6) -0.1152(3) 0.1298(11)
C14 C -0.5296(6) -0.0069(2) -0.7509(9)
C15 C -0.3910(7) -0.1449(3) -0.3180(11)
H9 H -0.3155 -0.1549 -0.3700
H10 H -0.4518 -0.1678 -0.3558
H11 H -0.3858 -0.1441 -0.1819
C16 C -0.3256(6) -0.0932(3) -0.7224(11)
H12 H -0.2639 -0.0729 -0.6686
H13 H -0.3398 -0.0834 -0.8515
H14 H -0.3009 -0.1270 -0.7194
C17 C -0.7590(6) -0.1876(3) 0.0311(12)
H15 H -0.7192 -0.1621 -0.0393
H16 H -0.7169 -0.2182 0.0147
H17 H -0.7603 -0.1791 0.1634
C18 C -0.5370(6) -0.1194(2) -0.6945(10)
H18 H -0.6100 -0.1158 -0.6239
H19 H -0.5118 -0.1532 -0.6910
H20 H -0.5501 -0.1096 -0.8239
C19 C -0.9475(10) -0.2335(3) 0.0733(13)
H21 H -1.0284 -0.2372 0.0300
H22 H -0.9475 -0.2247 0.2054
H23 H -0.9054 -0.2640 0.0564
C20 C -0.8293(11) -0.2440(4) -0.3505(17)
H24 H -0.8626 -0.2741 -0.3022
H25 H -0.7455 -0.2427 -0.3214
H26 H -0.8402 -0.2427 -0.4858
O8_2 O -0.6414(4) -0.00384(18) 0.2247(7)
O8A O -0.8586(4) 0.00384(18) -0.2753(7)
O6A O -1.0454(5) -0.0083(2) 0.6335(8)
Ag2A Ag -0.57638(11) 0.05039(3) -1.06959(11)
Ag1_2 Ag -0.75067(5) -0.03794(2) -1.03974(8)
Ag1A Ag -0.74933(5) 0.03794(2) -0.53974(8)
loop_
_geom_bond_atom_site_label_1
_geom_bond_atom_site_label_2
_geom_bond_site_symmetry_1
_geom_bond_site_symmetry_2
Ag1 O1 1_555 1_555
Ag2 O5 1_555 1_555
O1 C4 1_555 1_555
O2 C5 1_555 1_555
O3 C1 1_555 1_555
O4 C2 1_555 1_555
O5 Ag1 1_555 1_555
O6 C14 1_555 1_555
O7 C13 1_555 1_555
O8 C14 1_555 1_555
C1 C9 1_555 1_555
C2 C10 1_555 1_555
C3 H1 1_555 1_555
H2 C3 1_555 1_555
C4 O3 1_555 1_555
C5 O4 1_555 1_555
C6 C4 1_555 1_555
C7 C3 1_555 1_555
C8 C6 1_555 1_555
H3 C8 1_555 1_555
H4 C8 1_555 1_555
C9 C8 1_555 1_555
H5 C9 1_555 1_555
H6 C9 1_555 1_555
C10 C3 1_555 1_555
H7 C10 1_555 1_555
H8 C10 1_555 1_555
C11 C1 1_555 1_555
C12 C2 1_555 1_555
C13 O5 1_555 1_555
C14 C1 1_555 1_555
C15 C6 1_555 1_555
H9 C15 1_555 1_555
H10 C15 1_555 1_555
H11 C15 1_555 1_555
C16 C11 1_555 1_555
H12 C16 1_555 1_555
H13 C16 1_555 1_555
H14 C16 1_555 1_555
C17 C12 1_555 1_555
H15 C17 1_555 1_555
H16 C17 1_555 1_555
H17 C17 1_555 1_555
C18 C11 1_555 1_555
H18 C18 1_555 1_555
H19 C18 1_555 1_555
H20 C18 1_555 1_555
C19 C12 1_555 1_555
H21 C19 1_555 1_555
H22 C19 1_555 1_555
H23 C19 1_555 1_555
C20 C7 1_555 1_555
H24 C20 1_555 1_555
H25 C20 1_555 1_555
H26 C20 1_555 1_555
O8_2 Ag1 1_555 1_555
O8A Ag1 1_555 1_555
O6A Ag2 1_555 1_555
Ag2A O6 1_555 1_555
Ag1_2 O8 1_555 1_555
Ag1A O8 1_555 1_555
C2 C13 1_555 1_555
C5 C7 1_555 1_555
C6 C11 1_555 1_555
C7 C12 1_555 1_555
O8A Ag1A 1_555 1_555

#END
