
#######################################################################
#
#                 Cambridge Crystallographic Data Centre
#                                CCDC 
#
#######################################################################
#
# If this CIF has been generated from an entry in the Cambridge 
# Structural Database, then it will include bibliographic, chemical, 
# crystal, experimental, refinement or atomic coordinate data resulting 
# from the CCDC's data processing and validation procedures.
#
#######################################################################

data_BILLAK
_symmetry_cell_setting           orthorhombic
_symmetry_space_group_name_H-M   'P 21 21 21'
_symmetry_Int_Tables_number      19
_space_group_name_Hall           'P 2ac 2ab'
loop_
_symmetry_equiv_pos_site_id
_symmetry_equiv_pos_as_xyz
1 x,y,z
2 1/2+x,1/2-y,-z
3 -x,1/2+y,1/2-z
4 1/2-x,-y,1/2+z
_cell_length_a                   6.7568(2)
_cell_length_b                   11.1287(5)
_cell_length_c                   27.4890(11)
_cell_angle_alpha                90
_cell_angle_beta                 90
_cell_angle_gamma                90
_cell_volume                     2067.02
loop_
_atom_site_label
_atom_site_type_symbol
_atom_site_fract_x
_atom_site_fract_y
_atom_site_fract_z
C1 C 1.2703(6) 0.9731(3) 0.35358(13)
C2 C 1.3249(7) 1.1067(4) 0.29361(15)
C3 C 1.4729(6) 1.0057(4) 0.29133(13)
C4 C 1.3451(6) 0.8972(3) 0.27460(14)
H1 H 1.2699 0.9169 0.2456
H2 H 1.4273 0.8276 0.2679
C5 C 1.2060(6) 0.8736(4) 0.31835(13)
H3 H 1.0680 0.8818 0.3092
H4 H 1.2275 0.7944 0.3321
C6 C 1.4972(5) 0.9807(3) 0.34653(13)
C7 C 1.1929(6) 0.9592(4) 0.40466(14)
C8 C 1.6543(6) 1.0304(4) 0.26055(15)
H5 H 1.7405 0.9618 0.2614
H6 H 1.7228 1.0993 0.2732
H7 H 1.6146 1.0457 0.2276
C9 C 1.6076(6) 0.8657(4) 0.35880(14)
H8 H 1.5501 0.7998 0.3413
H9 H 1.5984 0.8507 0.3931
H10 H 1.7442 0.8741 0.3498
C10 C 1.5904(6) 1.0855(4) 0.37405(14)
H11 H 1.5208 1.1583 0.3664
H12 H 1.7266 1.0935 0.3647
H13 H 1.5825 1.0707 0.4084
C11 C 1.5898(5) 1.0287(3) 0.53392(12)
C12 C 1.3072(6) 0.9555(3) 0.56818(13)
C13 C 1.3877(5) 1.0603(3) 0.59714(12)
C14 C 1.3500(5) 1.1694(3) 0.56309(12)
H14 H 1.2138 1.1709 0.5520
H15 H 1.3793 1.2444 0.5795
C15 C 1.4934(5) 1.1484(3) 0.52018(13)
H16 H 1.4227 1.1423 0.4896
H17 H 1.5908 1.2122 0.5179
C16 C 1.6142(5) 1.0372(3) 0.59018(12)
C17 C 1.7695(5) 0.9873(3) 0.50494(16)
C18 C 1.3082(6) 1.0706(4) 0.64829(12)
H18 H 1.3660 1.1393 0.6639
H19 H 1.3411 0.9993 0.6662
H20 H 1.1670 1.0797 0.6472
C19 C 1.6848(5) 0.9188(3) 0.61336(12)
H21 H 1.6004 0.8542 0.6030
H22 H 1.6796 0.9256 0.6481
H23 H 1.8183 0.9026 0.6034
C20 C 1.7460(5) 1.1392(3) 0.60674(12)
H24 H 1.7006 1.2132 0.5926
H25 H 1.8796 1.1241 0.5966
H26 H 1.7414 1.1453 0.6416
Ag1 Ag 1.06917(4) 0.77913(2) 0.499341(13)
O1 O 1.2153(5) 0.8657(3) 0.42630(9)
O2 O 1.2001(4) 1.0852(2) 0.33182(9)
O3 O 1.3012(5) 1.1923(3) 0.26744(11)
O4 O 1.1090(4) 1.0557(2) 0.42261(9)
O5 O 1.9046(3) 1.06376(18) 0.49951(11)
O6 O 1.4302(3) 0.9382(2) 0.52929(8)
O7 O 1.1625(4) 0.8947(3) 0.57396(9)
O8 O 1.7754(3) 0.8801(2) 0.49005(9)
H27 H 1.056(6) 1.044(4) 0.4508(9)
O8_2 O 0.7754(3) 0.8801(2) 0.49005(9)
O8A O 1.2754(3) 0.6199(2) 0.50995(9)
Ag1_2 Ag 2.06917(4) 0.77913(2) 0.499341(13)
Ag1A Ag 1.56917(4) 0.72087(2) 0.500659(13)
loop_
_geom_bond_atom_site_label_1
_geom_bond_atom_site_label_2
_geom_bond_site_symmetry_1
_geom_bond_site_symmetry_2
C1 C5 1_555 1_555
C2 C3 1_555 1_555
C3 C4 1_555 1_555
C4 H1 1_555 1_555
H2 C4 1_555 1_555
C5 C4 1_555 1_555
H3 C5 1_555 1_555
H4 C5 1_555 1_555
C6 C1 1_555 1_555
C7 C1 1_555 1_555
C8 C3 1_555 1_555
H5 C8 1_555 1_555
H6 C8 1_555 1_555
H7 C8 1_555 1_555
C9 C6 1_555 1_555
H8 C9 1_555 1_555
H9 C9 1_555 1_555
H10 C9 1_555 1_555
C10 C6 1_555 1_555
H11 C10 1_555 1_555
H12 C10 1_555 1_555
H13 C10 1_555 1_555
C11 C15 1_555 1_555
C12 C13 1_555 1_555
C13 C14 1_555 1_555
C14 H14 1_555 1_555
H15 C14 1_555 1_555
C15 C14 1_555 1_555
H16 C15 1_555 1_555
H17 C15 1_555 1_555
C16 C11 1_555 1_555
C17 C11 1_555 1_555
C18 C13 1_555 1_555
H18 C18 1_555 1_555
H19 C18 1_555 1_555
H20 C18 1_555 1_555
C19 C16 1_555 1_555
H21 C19 1_555 1_555
H22 C19 1_555 1_555
H23 C19 1_555 1_555
C20 C16 1_555 1_555
H24 C20 1_555 1_555
H25 C20 1_555 1_555
H26 C20 1_555 1_555
Ag1 O1 1_555 1_555
O1 C7 1_555 1_555
O2 C1 1_555 1_555
O3 C2 1_555 1_555
O4 C7 1_555 1_555
O5 C17 1_555 1_555
O6 C11 1_555 1_555
O7 C12 1_555 1_555
O8 C17 1_555 1_555
H27 O4 1_555 1_555
O8_2 Ag1 1_555 1_555
O8A Ag1 1_555 1_555
Ag1_2 O8 1_555 1_555
Ag1A O8 1_555 1_555
C2 O2 1_555 1_555
C3 C6 1_555 1_555
C12 O6 1_555 1_555
C13 C16 1_555 1_555
Ag1 O7 1_555 1_555
O8A Ag1A 1_555 1_555

#END
