
#######################################################################
#
#                 Cambridge Crystallographic Data Centre
#                                CCDC 
#
#######################################################################
#
# If this CIF has been generated from an entry in the Cambridge 
# Structural Database, then it will include bibliographic, chemical, 
# crystal, experimental, refinement or atomic coordinate data resulting 
# from the CCDC's data processing and validation procedures.
#
#######################################################################

data_BILLEO
_symmetry_cell_setting           monoclinic
_symmetry_space_group_name_H-M   'P 21/n'
_symmetry_Int_Tables_number      14
_space_group_name_Hall           '-P 2yn'
loop_
_symmetry_equiv_pos_site_id
_symmetry_equiv_pos_as_xyz
1 x,y,z
2 1/2+x,1/2-y,1/2+z
3 -x,-y,-z
4 1/2-x,1/2+y,1/2-z
_cell_length_a                   6.8075(3)
_cell_length_b                   11.1170(7)
_cell_length_c                   26.7400(11)
_cell_angle_alpha                90
_cell_angle_beta                 94.9330(10)
_cell_angle_gamma                90
_cell_volume                     2016.16
loop_
_atom_site_label
_atom_site_type_symbol
_atom_site_fract_x
_atom_site_fract_y
_atom_site_fract_z
Ag1 Ag 0.27708(5) 0.02206(4) 0.505018(16)
C1 C 0.4278(9) 0.2045(6) 0.3540(2)
C2 C 0.4580(11) 0.3350(7) 0.2897(2)
C3 C 0.6151(9) 0.2382(6) 0.2907(2)
C4 C 0.4852(11) 0.1190(8) 0.2744(3)
H1 H 0.4025 0.1334 0.2436
H2 H 0.5704 0.0509 0.2695
C5 C 0.3622(10) 0.0966(7) 0.3172(3)
H3 H 0.3922 0.0193 0.3328
H4 H 0.2225 0.1005 0.3065
C6 C 0.6452(8) 0.2181(6) 0.3471(2)
C7 C 0.3646(7) 0.1969(6) 0.4067(2)
C8 C 0.7721(11) 0.2585(7) 0.2574(3)
H5 H 0.8629 0.1922 0.2601
H6 H 0.8407 0.3315 0.2669
H7 H 0.7155 0.2649 0.2233
C9 C 0.7323(9) 0.3266(6) 0.3751(2)
H8 H 0.8700 0.3325 0.3702
H9 H 0.7165 0.3180 0.4103
H10 H 0.6655 0.3979 0.3626
C10 C 0.7676(9) 0.1039(7) 0.3613(2)
H11 H 0.9033 0.1182 0.3561
H12 H 0.7186 0.0379 0.3407
H13 H 0.7566 0.0848 0.3960
C11 C 0.8029(6) 0.2779(4) 0.53615(17)
C12 C 0.5342(6) 0.2034(4) 0.57115(17)
C13 C 0.6265(6) 0.3058(4) 0.60184(17)
C14 C 0.5756(7) 0.4161(4) 0.56824(19)
H14 H 0.4359 0.4185 0.5575
H15 H 0.6126 0.4902 0.5857
C15 C 0.7001(7) 0.3966(5) 0.52272(18)
H16 H 0.7945 0.4612 0.5200
H17 H 0.6167 0.3905 0.4915
C16 C 0.8487(6) 0.2825(4) 0.59390(17)
C17 C 0.9670(6) 0.2354(5) 0.50500(17)
C18 C 0.5645(8) 0.3130(6) 0.65506(19)
H18 H 0.6296 0.3797 0.6722
H19 H 0.4243 0.3239 0.6540
H20 H 0.6004 0.2398 0.6726
C19 C 0.9279(7) 0.1635(5) 0.61665(19)
H21 H 0.8410 0.0991 0.6055
H22 H 1.0570 0.1485 0.6061
H23 H 0.9353 0.1686 0.6526
C20 C 0.9861(7) 0.3864(5) 0.6116(2)
H24 H 0.9355 0.4604 0.5972
H25 H 0.9933 0.3919 0.6475
H26 H 1.1154 0.3719 0.6011
O1 O 0.3908(6) 0.1018(4) 0.42892(14)
O2 O 0.3474(7) 0.3134(4) 0.32870(16)
O3 O 0.4204(9) 0.4134(6) 0.26002(19)
O4 O 0.2822(6) 0.2922(4) 0.42228(16)
O5 O 1.0976(5) 0.3123(3) 0.49854(14)
O6 O 0.6420(4) 0.1869(3) 0.53146(12)
O7 O 0.3890(4) 0.1450(3) 0.57624(13)
O8 O 0.9644(5) 0.1308(3) 0.48878(13)
H27 H 0.249(8) 0.287(5) 0.4505(11)
Ag1B Ag 0.72292(5) -0.02206(4) 0.494982(16)
O8_2 O -0.0356(5) 0.1308(3) 0.48878(13)
O8B O 0.0356(5) -0.1308(3) 0.51122(13)
Ag1_2 Ag 1.27708(5) 0.02206(4) 0.505018(16)
loop_
_geom_bond_atom_site_label_1
_geom_bond_atom_site_label_2
_geom_bond_site_symmetry_1
_geom_bond_site_symmetry_2
Ag1 O1 1_555 1_555
C1 C5 1_555 1_555
C2 C3 1_555 1_555
C3 C4 1_555 1_555
C4 H1 1_555 1_555
H2 C4 1_555 1_555
C5 C4 1_555 1_555
H3 C5 1_555 1_555
H4 C5 1_555 1_555
C6 C1 1_555 1_555
C7 C1 1_555 1_555
C8 C3 1_555 1_555
H5 C8 1_555 1_555
H6 C8 1_555 1_555
H7 C8 1_555 1_555
C9 C6 1_555 1_555
H8 C9 1_555 1_555
H9 C9 1_555 1_555
H10 C9 1_555 1_555
C10 C6 1_555 1_555
H11 C10 1_555 1_555
H12 C10 1_555 1_555
H13 C10 1_555 1_555
C11 C15 1_555 1_555
C12 C13 1_555 1_555
C13 C14 1_555 1_555
C14 H14 1_555 1_555
H15 C14 1_555 1_555
C15 C14 1_555 1_555
H16 C15 1_555 1_555
H17 C15 1_555 1_555
C16 C11 1_555 1_555
C17 C11 1_555 1_555
C18 C13 1_555 1_555
H18 C18 1_555 1_555
H19 C18 1_555 1_555
H20 C18 1_555 1_555
C19 C16 1_555 1_555
H21 C19 1_555 1_555
H22 C19 1_555 1_555
H23 C19 1_555 1_555
C20 C16 1_555 1_555
H24 C20 1_555 1_555
H25 C20 1_555 1_555
H26 C20 1_555 1_555
O1 C7 1_555 1_555
O2 C1 1_555 1_555
O3 C2 1_555 1_555
O4 C7 1_555 1_555
O5 C17 1_555 1_555
O6 C11 1_555 1_555
O7 Ag1 1_555 1_555
O8 C17 1_555 1_555
H27 O4 1_555 1_555
Ag1B Ag1 1_555 1_555
O8_2 Ag1 1_555 1_555
O8B Ag1 1_555 1_555
Ag1_2 O8 1_555 1_555
C2 O2 1_555 1_555
C3 C6 1_555 1_555
C12 O6 1_555 1_555
C12 O7 1_555 1_555
C13 C16 1_555 1_555
O8 Ag1B 1_555 1_555

#END
