
#######################################################################
#
#                 Cambridge Crystallographic Data Centre
#                                CCDC 
#
#######################################################################
#
# If this CIF has been generated from an entry in the Cambridge 
# Structural Database, then it will include bibliographic, chemical, 
# crystal, experimental, refinement or atomic coordinate data resulting 
# from the CCDC's data processing and validation procedures.
#
#######################################################################

data_BILVID
_symmetry_cell_setting           monoclinic
_symmetry_space_group_name_H-M   'P 21/c'
_symmetry_Int_Tables_number      14
_space_group_name_Hall           '-P 2ybc'
loop_
_symmetry_equiv_pos_site_id
_symmetry_equiv_pos_as_xyz
1 x,y,z
2 -x,1/2+y,1/2-z
3 -x,-y,-z
4 x,1/2-y,1/2+z
_cell_length_a                   16.7322(10)
_cell_length_b                   16.3332(10)
_cell_length_c                   8.9388(6)
_cell_angle_alpha                90
_cell_angle_beta                 96.4400(10)
_cell_angle_gamma                90
_cell_volume                     2427.47
loop_
_atom_site_label
_atom_site_type_symbol
_atom_site_fract_x
_atom_site_fract_y
_atom_site_fract_z
Cd1 Cd 0.249369(7) 0.274161(7) 0.413587(14)
F1 F 0.56211(7) 0.43551(10) 0.86595(13)
O1 O 0.16853(8) 0.16964(9) 0.34276(17)
O2 O 0.35902(8) 0.31326(10) -0.00747(15)
O3 O 0.29116(8) 0.27667(8) 0.17826(16)
O4 O 0.34939(8) 0.36901(9) 0.45055(15)
O5 O -0.06001(10) 0.32281(9) 0.26423(18)
O6 O -0.02753(9) 0.42233(9) 0.11206(15)
O7 O 0.13381(8) 0.37126(9) 0.30142(15)
O8 O 0.16817(9) 0.35304(10) 0.54248(16)
N1 N 0.86584(9) 0.48705(10) 0.88815(18)
H1 H 0.8741 0.5332 0.8369
H2 H 0.9086 0.4793 0.9573
N2 N 0.71125(9) 0.43385(9) 0.74686(17)
N3 N 0.56298(9) 0.36623(10) 0.26464(17)
C1 C 0.35269(11) 0.30909(11) 0.1306(2)
C2 C 0.42064(11) 0.34031(11) 0.2386(2)
C3 C 0.41429(10) 0.36381(11) 0.3915(2)
C4 C 0.49013(10) 0.38486(11) 0.4798(2)
C5 C 0.49227(11) 0.40378(12) 0.6338(2)
H3 H 0.4449 0.4044 0.6791
C6 C 0.56352(12) 0.42109(13) 0.7167(2)
C7 C 0.63818(11) 0.42326(11) 0.6558(2)
C8 C 0.63493(10) 0.40718(11) 0.5033(2)
H4 H 0.6820 0.4102 0.4573
C9 C 0.56295(11) 0.38640(11) 0.4158(2)
C10 C 0.49362(11) 0.34550(12) 0.1832(2)
H5 H 0.4952 0.3338 0.0818
C11 C 0.63760(11) 0.37052(12) 0.1940(2)
H6 H 0.6576 0.4258 0.1776
C12 C 0.70049(14) 0.30686(17) 0.2306(3)
H7 H 0.6891 0.2633 0.2989
H8 H 0.7563 0.3239 0.2384
C13 C 0.65328(13) 0.30881(15) 0.0786(3)
H9 H 0.6806 0.3270 -0.0056
H10 H 0.6133 0.2664 0.0548
C14 C 0.71918(11) 0.50503(12) 0.8489(2)
H11 H 0.6711 0.5101 0.8996
H12 H 0.7245 0.5545 0.7908
C15 C 0.79179(12) 0.49578(13) 0.9645(2)
H13 H 0.7965 0.5434 1.0297
H14 H 0.7853 0.4479 1.0262
C16 C 0.85759(11) 0.41622(13) 0.7827(2)
H15 H 0.8542 0.3660 0.8396
H16 H 0.9049 0.4129 0.7295
C17 C 0.78337(11) 0.42438(13) 0.6699(2)
H17 H 0.7891 0.4716 0.6061
H18 H 0.7780 0.3761 0.6064
C18 C -0.01463(11) 0.44854(11) 0.37413(19)
C19 C 0.05723(10) 0.44170(11) 0.47037(19)
C20 C 0.07068(11) 0.49288(11) 0.5949(2)
H19 H 0.1182 0.4878 0.6589
C21 C -0.03502(11) 0.39294(11) 0.2394(2)
C22 C 0.12308(10) 0.38420(11) 0.4347(2)
H20 H 0.1252(9) 0.1798(15) 0.375(2)
H21 H 0.1623(15) 0.163(2) 0.2496(12)
O5B O 0.06001(10) 0.67719(9) 0.73577(18)
O6B O 0.02753(9) 0.57767(9) 0.88794(15)
O7B O -0.13381(8) 0.62874(9) 0.69858(15)
O8B O -0.16817(9) 0.64696(10) 0.45752(16)
C18B C 0.01463(11) 0.55146(11) 0.62587(19)
C19B C -0.05723(10) 0.55830(11) 0.52963(19)
C20B C -0.07068(11) 0.50712(11) 0.4051(2)
H19B H -0.1182 0.5122 0.3411
C21B C 0.03502(11) 0.60706(11) 0.7606(2)
C22B C -0.12308(10) 0.61580(11) 0.5653(2)
Cd1B Cd -0.249369(7) 0.725839(7) 0.586413(14)
F1B F -0.56211(7) 0.56449(10) 0.13405(13)
O1B O -0.16853(8) 0.83036(9) 0.65724(17)
O2B O -0.35902(8) 0.68674(10) 1.00747(15)
O3B O -0.29116(8) 0.72333(8) 0.82174(16)
O4B O -0.34939(8) 0.63099(9) 0.54945(15)
N1B N -0.86584(9) 0.51295(10) 0.11185(18)
H1B H -0.8741 0.4668 0.1631
H2B H -0.9086 0.5207 0.0427
N2B N -0.71125(9) 0.56615(9) 0.25314(17)
N3B N -0.56298(9) 0.63377(10) 0.73536(17)
C1B C -0.35269(11) 0.69091(11) 0.8694(2)
C2B C -0.42064(11) 0.65969(11) 0.7614(2)
C3B C -0.41429(10) 0.63619(11) 0.6085(2)
C4B C -0.49013(10) 0.61514(11) 0.5202(2)
C5B C -0.49227(11) 0.59622(12) 0.3662(2)
H3B H -0.4449 0.5956 0.3209
C6B C -0.56352(12) 0.57891(13) 0.2833(2)
C7B C -0.63818(11) 0.57674(11) 0.3442(2)
C8B C -0.63493(10) 0.59282(11) 0.4967(2)
H4B H -0.6820 0.5898 0.5427
C9B C -0.56295(11) 0.61360(11) 0.5842(2)
C10B C -0.49362(11) 0.65450(12) 0.8168(2)
H5B H -0.4952 0.6662 0.9182
C11B C -0.63760(11) 0.62948(12) 0.8060(2)
H6B H -0.6576 0.5742 0.8224
C12B C -0.70049(14) 0.69314(17) 0.7694(3)
H7B H -0.6891 0.7367 0.7011
H8B H -0.7563 0.6761 0.7616
C13B C -0.65328(13) 0.69119(15) 0.9214(3)
H9B H -0.6806 0.6730 1.0056
H10B H -0.6133 0.7336 0.9452
C14B C -0.71918(11) 0.49497(12) 0.1511(2)
H11B H -0.6711 0.4899 0.1004
H12B H -0.7245 0.4455 0.2092
C15B C -0.79179(12) 0.50422(13) 0.0355(2)
H13B H -0.7965 0.4566 -0.0297
H14B H -0.7853 0.5521 -0.0262
C16B C -0.85759(11) 0.58378(13) 0.2173(2)
H15B H -0.8542 0.6340 0.1604
H16B H -0.9049 0.5871 0.2705
C17B C -0.78337(11) 0.57562(13) 0.3301(2)
H17B H -0.7891 0.5284 0.3939
H18B H -0.7780 0.6239 0.3936
H20B H -0.1252(9) 0.8202(15) 0.625(2)
H21B H -0.1623(15) 0.837(2) 0.7504(12)
Cd1A Cd -0.249369(7) 0.774161(7) 1.086413(14)
Cd1C Cd 0.249369(7) 0.225839(7) -0.086413(14)
O2A O -0.35902(8) 0.81326(10) 0.50747(15)
O2C O 0.35902(8) 0.18674(10) 0.49253(15)
O3A O -0.29116(8) 0.77667(8) 0.32174(16)
O3C O 0.29116(8) 0.22333(8) 0.67826(16)
O9 O 0.02467(14) 0.3099(2) -0.0913(3)
H22 H 0.006(2) 0.333(2) -0.018(3)
H23 H 0.008(4) 0.2609(16) -0.096(7)
O10 O 0.31227(15) 0.44036(13) 0.7575(3)
H24 H 0.321(2) 0.3985(15) 0.811(4)
H25 H 0.282(3) 0.429(3) 0.679(3)
O11 O -0.14758(13) 0.23777(14) 0.0138(3)
H26 H -0.1169(16) 0.263(2) 0.082(3)
H27 H -0.1165(16) 0.2142(18) -0.042(3)
loop_
_geom_bond_atom_site_label_1
_geom_bond_atom_site_label_2
_geom_bond_site_symmetry_1
_geom_bond_site_symmetry_2
Cd1 O1 1_555 1_555
F1 C6 1_555 1_555
O1 H20 1_555 1_555
O2 C1 1_555 1_555
O3 Cd1 1_555 1_555
O4 Cd1 1_555 1_555
O5 C21 1_555 1_555
O6 C21 1_555 1_555
O7 Cd1 1_555 1_555
O8 Cd1 1_555 1_555
N1 H1 1_555 1_555
H2 N1 1_555 1_555
N2 C7 1_555 1_555
N3 C9 1_555 1_555
C1 O3 1_555 1_555
C2 C1 1_555 1_555
C3 O4 1_555 1_555
C4 C3 1_555 1_555
C5 C4 1_555 1_555
H3 C5 1_555 1_555
C6 C5 1_555 1_555
C7 C6 1_555 1_555
C8 C7 1_555 1_555
H4 C8 1_555 1_555
C9 C4 1_555 1_555
C10 N3 1_555 1_555
H5 C10 1_555 1_555
C11 N3 1_555 1_555
H6 C11 1_555 1_555
C12 C11 1_555 1_555
H7 C12 1_555 1_555
H8 C12 1_555 1_555
C13 C11 1_555 1_555
H9 C13 1_555 1_555
H10 C13 1_555 1_555
C14 N2 1_555 1_555
H11 C14 1_555 1_555
H12 C14 1_555 1_555
C15 N1 1_555 1_555
H13 C15 1_555 1_555
H14 C15 1_555 1_555
C16 N1 1_555 1_555
H15 C16 1_555 1_555
H16 C16 1_555 1_555
C17 N2 1_555 1_555
H17 C17 1_555 1_555
H18 C17 1_555 1_555
C18 C19 1_555 1_555
C19 C20 1_555 1_555
C20 H19 1_555 1_555
C21 C18 1_555 1_555
C22 O7 1_555 1_555
H21 O1 1_555 1_555
O9 H22 1_555 1_555
H23 O9 1_555 1_555
O10 H24 1_555 1_555
H25 O10 1_555 1_555
O11 H26 1_555 1_555
H27 O11 1_555 1_555
O5B C21B 1_555 1_555
O6B C21B 1_555 1_555
O7B C22B 1_555 1_555
O8B C22B 1_555 1_555
C18B C20 1_555 1_555
C19B C18B 1_555 1_555
C20B C18 1_555 1_555
H19B C20B 1_555 1_555
C21B C18B 1_555 1_555
C22B C19B 1_555 1_555
Cd1B O7B 1_555 1_555
F1B C6B 1_555 1_555
O1B Cd1B 1_555 1_555
O2B C1B 1_555 1_555
O3B Cd1B 1_555 1_555
O4B Cd1B 1_555 1_555
N1B H1B 1_555 1_555
H2B N1B 1_555 1_555
N2B C7B 1_555 1_555
N3B C9B 1_555 1_555
C1B O3B 1_555 1_555
C2B C1B 1_555 1_555
C3B O4B 1_555 1_555
C4B C3B 1_555 1_555
C5B C4B 1_555 1_555
H3B C5B 1_555 1_555
C6B C5B 1_555 1_555
C7B C6B 1_555 1_555
C8B C7B 1_555 1_555
H4B C8B 1_555 1_555
C9B C4B 1_555 1_555
C10B N3B 1_555 1_555
H5B C10B 1_555 1_555
C11B N3B 1_555 1_555
H6B C11B 1_555 1_555
C12B C11B 1_555 1_555
H7B C12B 1_555 1_555
H8B C12B 1_555 1_555
C13B C11B 1_555 1_555
H9B C13B 1_555 1_555
H10B C13B 1_555 1_555
C14B N2B 1_555 1_555
H11B C14B 1_555 1_555
H12B C14B 1_555 1_555
C15B N1B 1_555 1_555
H13B C15B 1_555 1_555
H14B C15B 1_555 1_555
C16B N1B 1_555 1_555
H15B C16B 1_555 1_555
H16B C16B 1_555 1_555
C17B N2B 1_555 1_555
H17B C17B 1_555 1_555
H18B C17B 1_555 1_555
H20B O1B 1_555 1_555
H21B O1B 1_555 1_555
Cd1A O2B 1_555 1_555
Cd1C O2 1_555 1_555
O2A Cd1B 1_555 1_555
O2C Cd1 1_555 1_555
O3A Cd1B 1_555 1_555
O3C Cd1 1_555 1_555
O3 Cd1C 1_555 1_555
O8 C22 1_555 1_555
C2 C3 1_555 1_555
C2 C10 1_555 1_555
C8 C9 1_555 1_555
C12 C13 1_555 1_555
C14 C15 1_555 1_555
C16 C17 1_555 1_555
C19 C22 1_555 1_555
O8B Cd1B 1_555 1_555
C19B C20B 1_555 1_555
O3B Cd1A 1_555 1_555
C2B C3B 1_555 1_555
C2B C10B 1_555 1_555
C8B C9B 1_555 1_555
C12B C13B 1_555 1_555
C14B C15B 1_555 1_555
C16B C17B 1_555 1_555

#END
