
#######################################################################
#
#                 Cambridge Crystallographic Data Centre
#                                CCDC 
#
#######################################################################
#
# If this CIF has been generated from an entry in the Cambridge 
# Structural Database, then it will include bibliographic, chemical, 
# crystal, experimental, refinement or atomic coordinate data resulting 
# from the CCDC's data processing and validation procedures.
#
#######################################################################

data_BINNOC
_symmetry_cell_setting           triclinic
_symmetry_space_group_name_H-M   'P -1'
_symmetry_Int_Tables_number      2
_space_group_name_Hall           '-P 1'
loop_
_symmetry_equiv_pos_site_id
_symmetry_equiv_pos_as_xyz
1 x,y,z
2 -x,-y,-z
_cell_length_a                   4.805(2)
_cell_length_b                   6.650(3)
_cell_length_c                   12.960(6)
_cell_angle_alpha                98.285(7)
_cell_angle_beta                 98.986(7)
_cell_angle_gamma                95.689(7)
_cell_volume                     401.616
loop_
_atom_site_label
_atom_site_type_symbol
_atom_site_fract_x
_atom_site_fract_y
_atom_site_fract_z
Co1 Co 0.24196(6) 0.29746(4) 0.42041(2)
O1 O -0.1713(3) 0.2385(3) 0.38915(15)
O2 O -0.6007(3) 0.0814(3) 0.34031(16)
O3 O -0.3003(4) -0.2755(3) 0.43327(15)
O4 O -0.6903(4) -0.4724(3) 0.35105(16)
C1 C -0.3403(5) 0.0916(4) 0.33871(18)
C2 C -0.2463(5) -0.0767(4) 0.2680(2)
H1 H -0.0568 -0.1011 0.3002
C3 C -0.2275(7) -0.0092(5) 0.1617(2)
H2 H -0.3991 0.0480 0.1372
H3 H -0.0681 0.0969 0.1702
C4 C -0.1912(8) -0.1830(6) 0.0816(3)
H4 H -0.1339 -0.1533 0.0196
C5 C -0.2342(7) -0.3736(6) 0.0925(3)
H5 H -0.2019 -0.4725 0.0386
C6 C -0.3317(6) -0.4429(4) 0.1857(2)
H6 H -0.1749 -0.4897 0.2287
H7 H -0.4803 -0.5575 0.1622
C7 C -0.4439(5) -0.2735(4) 0.25221(19)
H8 H -0.6297 -0.2522 0.2150
C8 C -0.4824(5) -0.3444(4) 0.35414(19)
O2_2 O 0.3993(3) 0.0814(3) 0.34031(16)
O3A O 0.3003(4) 0.2755(3) 0.56673(15)
O4_2 O 0.3097(4) 0.5276(3) 0.35105(16)
Co1_2 Co -0.75804(6) 0.29746(4) 0.42041(2)
Co1A Co -0.24196(6) -0.29746(4) 0.57959(2)
Co1_3 Co -0.75804(6) -0.70254(4) 0.42041(2)
loop_
_geom_bond_atom_site_label_1
_geom_bond_atom_site_label_2
_geom_bond_site_symmetry_1
_geom_bond_site_symmetry_2
Co1 O1 1_555 1_555
O1 C1 1_555 1_555
O2 C1 1_555 1_555
O3 C8 1_555 1_555
O4 C8 1_555 1_555
C1 C2 1_555 1_555
C2 H1 1_555 1_555
C3 C2 1_555 1_555
H2 C3 1_555 1_555
H3 C3 1_555 1_555
C4 C3 1_555 1_555
H4 C4 1_555 1_555
C5 C4 1_555 1_555
H5 C5 1_555 1_555
C6 C5 1_555 1_555
H6 C6 1_555 1_555
H7 C6 1_555 1_555
C7 C2 1_555 1_555
H8 C7 1_555 1_555
C8 C7 1_555 1_555
O2_2 Co1 1_555 1_555
O3A Co1 1_555 1_555
O4_2 Co1 1_555 1_555
Co1_2 O2 1_555 1_555
Co1A O3 1_555 1_555
Co1_3 O4 1_555 1_555
C6 C7 1_555 1_555

#END
