
#######################################################################
#
#                 Cambridge Crystallographic Data Centre
#                                CCDC 
#
#######################################################################
#
# If this CIF has been generated from an entry in the Cambridge 
# Structural Database, then it will include bibliographic, chemical, 
# crystal, experimental, refinement or atomic coordinate data resulting 
# from the CCDC's data processing and validation procedures.
#
#######################################################################

data_BINRUN
_symmetry_cell_setting           cubic
_symmetry_space_group_name_H-M   'P n -3 n'
_symmetry_Int_Tables_number      222
_space_group_name_Hall           '-P 4a 2bc 3'
loop_
_symmetry_equiv_pos_site_id
_symmetry_equiv_pos_as_xyz
1 x,y,z
2 1/2-x,1/2-y,z
3 1/2-x,y,1/2-z
4 x,1/2-y,1/2-z
5 z,x,y
6 z,1/2-x,1/2-y
7 1/2-z,1/2-x,y
8 1/2-z,x,1/2-y
9 y,z,x
10 1/2-y,z,1/2-x
11 y,1/2-z,1/2-x
12 1/2-y,1/2-z,x
13 y,x,1/2-z
14 1/2-y,1/2-x,1/2-z
15 y,1/2-x,z
16 1/2-y,x,z
17 x,z,1/2-y
18 1/2-x,z,y
19 1/2-x,1/2-z,1/2-y
20 x,1/2-z,y
21 z,y,1/2-x
22 z,1/2-y,x
23 1/2-z,y,x
24 1/2-z,1/2-y,1/2-x
25 -x,-y,-z
26 1/2+x,1/2+y,-z
27 1/2+x,-y,1/2+z
28 -x,1/2+y,1/2+z
29 -z,-x,-y
30 -z,1/2+x,1/2+y
31 1/2+z,1/2+x,-y
32 1/2+z,-x,1/2+y
33 -y,-z,-x
34 1/2+y,-z,1/2+x
35 -y,1/2+z,1/2+x
36 1/2+y,1/2+z,-x
37 -y,-x,1/2+z
38 1/2+y,1/2+x,1/2+z
39 -y,1/2+x,-z
40 1/2+y,-x,-z
41 -x,-z,1/2+y
42 1/2+x,-z,-y
43 1/2+x,1/2+z,1/2+y
44 -x,1/2+z,-y
45 -z,-y,1/2+x
46 -z,1/2+y,-x
47 1/2+z,-y,-x
48 1/2+z,1/2+y,1/2+x
_cell_length_a                   32.8643(15)
_cell_length_b                   32.8643(15)
_cell_length_c                   32.8643(15)
_cell_angle_alpha                90
_cell_angle_beta                 90
_cell_angle_gamma                90
_cell_volume                     35495.5
loop_
_atom_site_label
_atom_site_type_symbol
_atom_site_fract_x
_atom_site_fract_y
_atom_site_fract_z
Zn1 Zn 0.2500 0.7500 0.045884(13)
O1 O 0.21607(6) 0.79849(5) 0.02870(6)
O2 O 0.21549(6) 0.79970(5) -0.03962(6)
O3 O 0.2500 0.7500 0.10704(10)
C1 C 0.20583(8) 0.81293(8) -0.00526(10)
C2 C 0.17987(8) 0.85059(8) -0.00396(8)
C3 C 0.16978(7) 0.86765(8) 0.03249(8)
H1 H 0.1790 0.8553 0.0570
C4 C 0.14619(7) 0.90287(8) 0.03439(9)
C5 C 0.13501(8) 0.92109(9) 0.07061(9)
H2 H 0.1451 0.9105 0.0955
C6 C 0.10931(9) 0.95451(9) 0.07115(10)
H3 H 0.1020 0.9664 0.0965
C7 C 0.09426(10) 0.97080(10) 0.03561(11)
C8 C 0.10429(10) 0.95316(10) -0.00077(9)
H4 H 0.0931 0.9640 -0.0251
C9 C 0.13049(8) 0.91963(9) -0.00330(9)
C10 C 0.14229(9) 0.90115(10) -0.03978(9)
H5 H 0.1338 0.9130 -0.0647
C11 C 0.16523(8) 0.86720(9) -0.04095(8)
H6 H 0.1715 0.8546 -0.0662
C12 C 0.06463(11) 1.00506(11) 0.03571(11)
C13 C 0.06556(11) 1.03488(11) 0.00614(12)
H7 H 0.0867 1.0350 -0.0135
O1D O 0.02870(6) 1.21607(6) -0.20151(5)
O2D O -0.03962(6) 1.21549(6) -0.20030(5)
C1D C -0.00526(10) 1.20583(8) -0.18707(8)
C2D C -0.00396(8) 1.17987(8) -0.14941(8)
C3D C 0.03249(8) 1.16978(7) -0.13235(8)
H1D H 0.0570 1.1790 -0.1447
C4D C 0.03439(9) 1.14619(7) -0.09713(8)
C5D C 0.07061(9) 1.13501(8) -0.07891(9)
H2D H 0.0955 1.1451 -0.0895
C6D C 0.07115(10) 1.10931(9) -0.04549(9)
H3D H 0.0965 1.1020 -0.0336
C7D C 0.03561(11) 1.09426(10) -0.02920(10)
C8D C -0.00077(9) 1.10429(10) -0.04684(10)
H4D H -0.0251 1.0931 -0.0360
C9D C -0.00330(9) 1.13049(8) -0.08037(9)
C10D C -0.03978(9) 1.14229(9) -0.09885(10)
H5D H -0.0647 1.1338 -0.0870
C11D C -0.04095(8) 1.16523(8) -0.13280(9)
H6D H -0.0662 1.1715 -0.1454
C12D C 0.03571(11) 1.06463(11) 0.00506(11)
C13D C 0.00614(12) 1.06556(11) 0.03488(11)
H7D H -0.0135 1.0867 0.0350
O1H O -0.20151(5) 1.02870(6) 0.21607(6)
O2H O -0.20030(5) 0.96038(6) 0.21549(6)
C1H C -0.18707(8) 0.99474(10) 0.20583(8)
C2H C -0.14941(8) 0.99604(8) 0.17987(8)
C3H C -0.13235(8) 1.03249(8) 0.16978(7)
H1H H -0.1447 1.0570 0.1790
C4H C -0.09713(8) 1.03439(9) 0.14619(7)
C5H C -0.07891(9) 1.07061(9) 0.13501(8)
H2H H -0.0895 1.0955 0.1451
C6H C -0.04549(9) 1.07115(10) 0.10931(9)
H3H H -0.0336 1.0965 0.1020
C7H C -0.02920(10) 1.03561(11) 0.09426(10)
C8H C -0.04684(10) 0.99923(9) 0.10429(10)
H4H H -0.0360 0.9749 0.0931
C9H C -0.08037(9) 0.99670(9) 0.13049(8)
C10H C -0.09885(10) 0.96022(9) 0.14229(9)
H5H H -0.0870 0.9353 0.1338
C11H C -0.13280(9) 0.95905(8) 0.16523(8)
H6H H -0.1454 0.9338 0.1715
C12H C 0.00506(11) 1.03571(11) 0.06463(11)
C13H C 0.03488(11) 1.00614(12) 0.06556(11)
H7H H 0.0350 0.9865 0.0867
O1A O 0.28393(6) 0.70151(5) 0.02870(6)
O2A O 0.28451(6) 0.70030(5) -0.03962(6)
C1A C 0.29417(8) 0.68707(8) -0.00526(10)
C2A C 0.32013(8) 0.64941(8) -0.00396(8)
C3A C 0.33022(7) 0.63235(8) 0.03249(8)
H1A H 0.3210 0.6447 0.0570
C4A C 0.35381(7) 0.59713(8) 0.03439(9)
C5A C 0.36499(8) 0.57891(9) 0.07061(9)
H2A H 0.3549 0.5895 0.0955
C6A C 0.39069(9) 0.54549(9) 0.07115(10)
H3A H 0.3980 0.5336 0.0965
C7A C 0.40574(10) 0.52920(10) 0.03561(11)
C8A C 0.39571(10) 0.54684(10) -0.00077(9)
H4A H 0.4069 0.5360 -0.0251
C9A C 0.36951(8) 0.58037(9) -0.00330(9)
C10A C 0.35771(9) 0.59885(10) -0.03978(9)
H5A H 0.3662 0.5870 -0.0647
C11A C 0.33477(8) 0.63280(9) -0.04095(8)
H6A H 0.3285 0.6454 -0.0662
C12A C 0.43537(11) 0.49494(11) 0.03571(11)
C13A C 0.43444(11) 0.46512(11) 0.00614(12)
H7A H 0.4133 0.4650 -0.0135
O1F O 0.47130(6) 0.28393(6) -0.20151(5)
O2F O 0.53962(6) 0.28451(6) -0.20030(5)
C1F C 0.50526(10) 0.29417(8) -0.18707(8)
C2F C 0.50396(8) 0.32013(8) -0.14941(8)
C3F C 0.46751(8) 0.33022(7) -0.13235(8)
H1F H 0.4430 0.3210 -0.1447
C4F C 0.46561(9) 0.35381(7) -0.09713(8)
C5F C 0.42939(9) 0.36499(8) -0.07891(9)
H2F H 0.4045 0.3549 -0.0895
C6F C 0.42885(10) 0.39069(9) -0.04549(9)
H3F H 0.4035 0.3980 -0.0336
C7F C 0.46439(11) 0.40574(10) -0.02920(10)
C8F C 0.50077(9) 0.39571(10) -0.04684(10)
H4F H 0.5251 0.4069 -0.0360
C9F C 0.50330(9) 0.36951(8) -0.08037(9)
C10F C 0.53978(9) 0.35771(9) -0.09885(10)
H5F H 0.5647 0.3662 -0.0870
C11F C 0.54095(8) 0.33477(8) -0.13280(9)
H6F H 0.5662 0.3285 -0.1454
C12F C 0.46429(11) 0.43537(11) 0.00506(11)
C13F C 0.49386(12) 0.43444(11) 0.03488(11)
H7F H 0.5135 0.4133 0.0350
O1K O 0.70151(5) 0.47130(6) 0.21607(6)
O2K O 0.70030(5) 0.53962(6) 0.21549(6)
C1K C 0.68707(8) 0.50526(10) 0.20583(8)
C2K C 0.64941(8) 0.50396(8) 0.17987(8)
C3K C 0.63235(8) 0.46751(8) 0.16978(7)
H1K H 0.6447 0.4430 0.1790
C4K C 0.59713(8) 0.46561(9) 0.14619(7)
C5K C 0.57891(9) 0.42939(9) 0.13501(8)
H2K H 0.5895 0.4045 0.1451
C6K C 0.54549(9) 0.42885(10) 0.10931(9)
H3K H 0.5336 0.4035 0.1020
C7K C 0.52920(10) 0.46439(11) 0.09426(10)
C8K C 0.54684(10) 0.50077(9) 0.10429(10)
H4K H 0.5360 0.5251 0.0931
C9K C 0.58037(9) 0.50330(9) 0.13049(8)
C10K C 0.59885(10) 0.53978(9) 0.14229(9)
H5K H 0.5870 0.5647 0.1338
C11K C 0.63280(9) 0.54095(8) 0.16523(8)
H6K H 0.6454 0.5662 0.1715
C12K C 0.49494(11) 0.46429(11) 0.06463(11)
C13K C 0.46512(11) 0.49386(12) 0.06556(11)
H7K H 0.4650 0.5135 0.0867
Zn1LA Zn 0.2500 0.7500 -0.045884(13)
O3LA O 0.2500 0.7500 -0.10704(10)
Zn1D Zn 0.045884(13) 1.2500 -0.2500
O3D O 0.10704(10) 1.2500 -0.2500
Zn1F Zn 0.454116(13) 0.2500 -0.2500
Zn1H Zn -0.2500 1.045884(13) 0.2500
Zn1J Zn 0.7500 0.454116(13) 0.2500
Zn1NA Zn -0.2500 0.954116(13) 0.2500
Zn1PA Zn 0.7500 0.545884(13) 0.2500
Zn1RA Zn -0.045884(13) 1.2500 -0.2500
Zn1TA Zn 0.545884(13) 0.2500 -0.2500
O1E O 0.02870(6) 1.28393(6) -0.29849(5)
O1LA O 0.20151(5) 0.71607(6) -0.02870(6)
O1MA O 0.29849(5) 0.78393(6) -0.02870(6)
O2LA O 0.20030(5) 0.71549(6) 0.03962(6)
O2MA O 0.29970(5) 0.78451(6) 0.03962(6)
O2RA O 0.03962(6) 1.20030(5) -0.28451(6)
O2SA O 0.03962(6) 1.29970(5) -0.21549(6)
loop_
_geom_bond_atom_site_label_1
_geom_bond_atom_site_label_2
_geom_bond_site_symmetry_1
_geom_bond_site_symmetry_2
Zn1 O1 1_555 1_555
O1 C1 1_555 1_555
O2 C1 1_555 1_555
O3 Zn1 1_555 1_555
C1 C2 1_555 1_555
C2 C3 1_555 1_555
C3 H1 1_555 1_555
C4 C3 1_555 1_555
C5 C4 1_555 1_555
H2 C5 1_555 1_555
C6 C5 1_555 1_555
H3 C6 1_555 1_555
C7 C6 1_555 1_555
C8 C7 1_555 1_555
H4 C8 1_555 1_555
C9 C4 1_555 1_555
C10 C9 1_555 1_555
H5 C10 1_555 1_555
C11 C2 1_555 1_555
H6 C11 1_555 1_555
C12 C7 1_555 1_555
C13 C12 1_555 1_555
H7 C13 1_555 1_555
O1D C1D 1_555 1_555
O2D C1D 1_555 1_555
C1D C2D 1_555 1_555
C2D C3D 1_555 1_555
C3D H1D 1_555 1_555
C4D C3D 1_555 1_555
C5D C4D 1_555 1_555
H2D C5D 1_555 1_555
C6D C5D 1_555 1_555
H3D C6D 1_555 1_555
C7D C6D 1_555 1_555
C8D C7D 1_555 1_555
H4D C8D 1_555 1_555
C9D C4D 1_555 1_555
C10D C9D 1_555 1_555
H5D C10D 1_555 1_555
C11D C2D 1_555 1_555
H6D C11D 1_555 1_555
C12D C13 1_555 1_555
C13D C12D 1_555 1_555
H7D C13D 1_555 1_555
O1H C1H 1_555 1_555
O2H C1H 1_555 1_555
C1H C2H 1_555 1_555
C2H C3H 1_555 1_555
C3H H1H 1_555 1_555
C4H C3H 1_555 1_555
C5H C4H 1_555 1_555
H2H C5H 1_555 1_555
C6H C5H 1_555 1_555
H3H C6H 1_555 1_555
C7H C6H 1_555 1_555
C8H C7H 1_555 1_555
H4H C8H 1_555 1_555
C9H C4H 1_555 1_555
C10H C9H 1_555 1_555
H5H C10H 1_555 1_555
C11H C2H 1_555 1_555
H6H C11H 1_555 1_555
C12H C13D 1_555 1_555
C13H C12 1_555 1_555
H7H C13H 1_555 1_555
O1A Zn1 1_555 1_555
O2A C1A 1_555 1_555
C1A O1A 1_555 1_555
C2A C1A 1_555 1_555
C3A C2A 1_555 1_555
H1A C3A 1_555 1_555
C4A C3A 1_555 1_555
C5A C4A 1_555 1_555
H2A C5A 1_555 1_555
C6A C5A 1_555 1_555
H3A C6A 1_555 1_555
C7A C6A 1_555 1_555
C8A C7A 1_555 1_555
H4A C8A 1_555 1_555
C9A C4A 1_555 1_555
C10A C9A 1_555 1_555
H5A C10A 1_555 1_555
C11A C2A 1_555 1_555
H6A C11A 1_555 1_555
C12A C7A 1_555 1_555
C13A C12A 1_555 1_555
H7A C13A 1_555 1_555
O1F C1F 1_555 1_555
O2F C1F 1_555 1_555
C1F C2F 1_555 1_555
C2F C3F 1_555 1_555
C3F H1F 1_555 1_555
C4F C3F 1_555 1_555
C5F C4F 1_555 1_555
H2F C5F 1_555 1_555
C6F C5F 1_555 1_555
H3F C6F 1_555 1_555
C7F C6F 1_555 1_555
C8F C7F 1_555 1_555
H4F C8F 1_555 1_555
C9F C4F 1_555 1_555
C10F C9F 1_555 1_555
H5F C10F 1_555 1_555
C11F C2F 1_555 1_555
H6F C11F 1_555 1_555
C12F C13A 1_555 1_555
C13F C12F 1_555 1_555
H7F C13F 1_555 1_555
O1K C1K 1_555 1_555
O2K C1K 1_555 1_555
C1K C2K 1_555 1_555
C2K C3K 1_555 1_555
C3K H1K 1_555 1_555
C4K C3K 1_555 1_555
C5K C4K 1_555 1_555
H2K C5K 1_555 1_555
C6K C5K 1_555 1_555
H3K C6K 1_555 1_555
C7K C6K 1_555 1_555
C8K C7K 1_555 1_555
H4K C8K 1_555 1_555
C9K C4K 1_555 1_555
C10K C9K 1_555 1_555
H5K C10K 1_555 1_555
C11K C2K 1_555 1_555
H6K C11K 1_555 1_555
C12K C13F 1_555 1_555
C13K C12A 1_555 1_555
H7K C13K 1_555 1_555
Zn1LA O2 1_555 1_555
O3LA Zn1LA 1_555 1_555
Zn1D O1D 1_555 1_555
O3D Zn1D 1_555 1_555
Zn1F O1F 1_555 1_555
Zn1H O1H 1_555 1_555
Zn1J O1K 1_555 1_555
Zn1NA O2H 1_555 1_555
Zn1PA O2K 1_555 1_555
Zn1RA O2D 1_555 1_555
Zn1TA O2F 1_555 1_555
O1E Zn1D 1_555 1_555
O1LA Zn1LA 1_555 1_555
O1MA Zn1LA 1_555 1_555
O2LA Zn1 1_555 1_555
O2MA Zn1 1_555 1_555
O2RA Zn1D 1_555 1_555
O2SA Zn1D 1_555 1_555
C8 C9 1_555 1_555
C10 C11 1_555 1_555
C7D C12D 1_555 1_555
C8D C9D 1_555 1_555
C10D C11D 1_555 1_555
C7H C12H 1_555 1_555
C8H C9H 1_555 1_555
C10H C11H 1_555 1_555
C12H C13H 1_555 1_555
O2A Zn1LA 1_555 1_555
C8A C9A 1_555 1_555
C10A C11A 1_555 1_555
C7F C12F 1_555 1_555
C8F C9F 1_555 1_555
C10F C11F 1_555 1_555
C7K C12K 1_555 1_555
C8K C9K 1_555 1_555
C10K C11K 1_555 1_555
C12K C13K 1_555 1_555

#END
