
#######################################################################
#
#                 Cambridge Crystallographic Data Centre
#                                CCDC 
#
#######################################################################
#
# If this CIF has been generated from an entry in the Cambridge 
# Structural Database, then it will include bibliographic, chemical, 
# crystal, experimental, refinement or atomic coordinate data resulting 
# from the CCDC's data processing and validation procedures.
#
#######################################################################

data_BIPDAG
_symmetry_cell_setting           orthorhombic
_symmetry_space_group_name_H-M   'P m m n'
_symmetry_Int_Tables_number      59
_space_group_name_Hall           '-P 2ab 2a'
loop_
_symmetry_equiv_pos_site_id
_symmetry_equiv_pos_as_xyz
1 x,y,z
2 1/2+x,1/2+y,-z
3 x,1/2-y,z
4 1/2-x,y,z
5 -x,-y,-z
6 1/2-x,1/2-y,z
7 -x,1/2+y,-z
8 1/2+x,-y,-z
_cell_length_a                   6.8202(14)
_cell_length_b                   25.024(5)
_cell_length_c                   6.1958(12)
_cell_angle_alpha                90
_cell_angle_beta                 90
_cell_angle_gamma                90
_cell_volume                     1057.43
loop_
_atom_site_label
_atom_site_type_symbol
_atom_site_fract_x
_atom_site_fract_y
_atom_site_fract_z
Cu1 Cu 0.2500 0.7500 0.2341(2)
C1 C -0.1373(8) 0.7019(2) 0.3560(11)
H1 H -0.0900 0.7021 0.5036
H2 H -0.0900 0.6696 0.2870
C2 C 0.2500 0.5834(3) 0.0675(15)
C3 C 0.2500 0.5666(3) 0.2823(17)
H3 H 0.2500 0.5923 0.3971
C4 C 0.2500 0.6428(3) 0.0155(19)
C5 C 0.2500 0.5462(3) -0.0936(16)
H4 H 0.2500 0.5581 -0.2410
C6 C -0.1376(11) 0.7500 0.0177(13)
H5 H -0.0906 0.7186 -0.0585
H6 H -0.0906 0.7814 -0.0585
C7 C 0.2500 0.4920(3) -0.0488(16)
H7 H 0.2500 0.4662 -0.1634
C8 C 0.2500 0.4756(3) 0.1603(16)
C9 C 0.2500 0.5118(4) 0.3258(16)
H8 H 0.2500 0.4994 0.4725
N1 N -0.0581(9) 0.7500 0.2380(11)
N2 N 0.2500 0.4185(3) 0.2125(17)
O1 O 0.2500 0.6727(2) 0.1808(10)
O2 O 0.2500 0.7500 0.5969(15)
O3 O 0.2500 0.6574(3) -0.1725(12)
O4 O 0.2500 0.4055(3) 0.4022(18)
O5 O 0.2500 0.3862(3) 0.0653(15)
H9 H 0.2500 0.722(4) 0.657(17)
C1C C -0.3627(8) 0.7019(2) 0.3560(11)
H1C H -0.4100 0.7021 0.5036
H2C H -0.4100 0.6696 0.2870
N1C N -0.4419(9) 0.7500 0.2380(11)
C1E C -0.3627(8) 0.7981(2) 0.3560(11)
C1B C -0.1373(8) 0.7981(2) 0.3560(11)
H1B H -0.0900 0.7979 0.5036
H2B H -0.0900 0.8304 0.2870
C6C C -0.3624(11) 0.7500 0.0177(13)
H5C H -0.4094 0.7186 -0.0585
H5E H -0.4094 0.7814 -0.0585
H1E H -0.4100 0.7979 0.5036
H2E H -0.4100 0.8304 0.2870
H9B H 0.2500 0.778(4) 0.657(17)
C2B C 0.2500 0.9166(3) 0.0675(15)
C3B C 0.2500 0.9334(3) 0.2823(17)
H3B H 0.2500 0.9077 0.3971
C4B C 0.2500 0.8572(3) 0.0155(19)
C5B C 0.2500 0.9538(3) -0.0936(16)
H4B H 0.2500 0.9419 -0.2410
C7B C 0.2500 1.0080(3) -0.0488(16)
H7B H 0.2500 1.0338 -0.1634
C8B C 0.2500 1.0244(3) 0.1603(16)
C9B C 0.2500 0.9882(4) 0.3258(16)
H8B H 0.2500 1.0006 0.4725
N2B N 0.2500 1.0815(3) 0.2125(17)
O1B O 0.2500 0.8273(2) 0.1808(10)
O3B O 0.2500 0.8426(3) -0.1725(12)
O4B O 0.2500 1.0945(3) 0.4022(18)
O5B O 0.2500 1.1138(3) 0.0653(15)
N1C_2 N 0.5581(9) 0.7500 0.2380(11)
Cu1_2 Cu -0.7500 0.7500 0.2341(2)
loop_
_geom_bond_atom_site_label_1
_geom_bond_atom_site_label_2
_geom_bond_site_symmetry_1
_geom_bond_site_symmetry_2
Cu1 N1 1_555 1_555
C1 H1 1_555 1_555
H2 C1 1_555 1_555
C2 C3 1_555 1_555
C3 H3 1_555 1_555
C4 C2 1_555 1_555
C5 C2 1_555 1_555
H4 C5 1_555 1_555
C6 H5 1_555 1_555
H6 C6 1_555 1_555
C7 C5 1_555 1_555
H7 C7 1_555 1_555
C8 C7 1_555 1_555
C9 C3 1_555 1_555
H8 C9 1_555 1_555
N1 C1 1_555 1_555
N2 C8 1_555 1_555
O1 Cu1 1_555 1_555
O2 Cu1 1_555 1_555
O3 C4 1_555 1_555
O4 N2 1_555 1_555
O5 N2 1_555 1_555
H9 O2 1_555 1_555
C1C C1 1_555 1_555
H1C C1C 1_555 1_555
H2C C1C 1_555 1_555
N1C C1C 1_555 1_555
C1E N1C 1_555 1_555
C1B N1 1_555 1_555
H1B C1B 1_555 1_555
H2B C1B 1_555 1_555
C6C C6 1_555 1_555
H5C C6C 1_555 1_555
H5E C6C 1_555 1_555
H1E C1E 1_555 1_555
H2E C1E 1_555 1_555
H9B O2 1_555 1_555
C2B C3B 1_555 1_555
C3B H3B 1_555 1_555
C4B C2B 1_555 1_555
C5B C2B 1_555 1_555
H4B C5B 1_555 1_555
C7B C5B 1_555 1_555
H7B C7B 1_555 1_555
C8B C7B 1_555 1_555
C9B C3B 1_555 1_555
H8B C9B 1_555 1_555
N2B C8B 1_555 1_555
O1B Cu1 1_555 1_555
O3B C4B 1_555 1_555
O4B N2B 1_555 1_555
O5B N2B 1_555 1_555
N1C_2 Cu1 1_555 1_555
Cu1_2 N1C 1_555 1_555
C4 O1 1_555 1_555
C6 N1 1_555 1_555
C8 C9 1_555 1_555
N1C C6C 1_555 1_555
C1E C1B 1_555 1_555
C4B O1B 1_555 1_555
C8B C9B 1_555 1_555

#END
