
#######################################################################
#
#                 Cambridge Crystallographic Data Centre
#                                CCDC 
#
#######################################################################
#
# If this CIF has been generated from an entry in the Cambridge 
# Structural Database, then it will include bibliographic, chemical, 
# crystal, experimental, refinement or atomic coordinate data resulting 
# from the CCDC's data processing and validation procedures.
#
#######################################################################

data_BIPLAN01
_symmetry_cell_setting           monoclinic
_symmetry_space_group_name_H-M   'C 2/c'
_symmetry_Int_Tables_number      15
_space_group_name_Hall           '-C 2yn'
loop_
_symmetry_equiv_pos_site_id
_symmetry_equiv_pos_as_xyz
1 x,y,z
2 1/2+x,1/2+y,z
3 -x,y,1/2-z
4 1/2-x,1/2+y,1/2-z
5 -x,-y,-z
6 1/2-x,1/2-y,-z
7 x,-y,1/2+z
8 1/2+x,1/2-y,1/2+z
_cell_length_a                   18.138(4)
_cell_length_b                   9.5890(19)
_cell_length_c                   14.245(3)
_cell_angle_alpha                90
_cell_angle_beta                 105.30(3)
_cell_angle_gamma                90
_cell_volume                     2389.75
loop_
_atom_site_label
_atom_site_type_symbol
_atom_site_fract_x
_atom_site_fract_y
_atom_site_fract_z
Ag1 Ag 0.519530(16) 0.62751(3) 1.05071(2)
Ag2 Ag 0.5000 0.56129(4) 0.7500
S1 S 0.57677(5) 0.68214(9) 0.90397(6)
S2 S 0.57616(5) 0.32543(9) 0.72706(6)
S3 S 0.62301(5) 0.41359(9) 1.01170(6)
N1 N 0.70878(16) 0.5497(3) 0.9185(2)
N2 N 0.5000 0.0960(4) 0.7500
C1 C 0.64259(19) 0.5464(3) 0.9414(2)
C2 C 0.5000 0.2339(5) 0.7500
C3 C 0.76313(19) 0.4330(4) 0.9412(2)
H1 H 0.7351 0.3464 0.9396
H2 H 0.7911 0.4276 0.8920
C4 C 0.81906(19) 0.4494(4) 1.0403(3)
H3 H 0.8542 0.3726 1.0520
H4 H 0.8468 0.5351 1.0422
H5 H 0.7917 0.4510 1.0895
C5 C 0.7341(2) 0.6696(4) 0.8700(3)
H6 H 0.7102 0.7538 0.8856
H7 H 0.7890 0.6802 0.8948
C6 C 0.7144(2) 0.6525(5) 0.7611(3)
H8 H 0.7320 0.7325 0.7326
H9 H 0.7387 0.5702 0.7452
H10 H 0.6601 0.6440 0.7360
C7 C 0.56207(19) 0.0118(4) 0.7296(2)
H11 H 0.5671 -0.0748 0.7659
H12 H 0.6100 0.0622 0.7507
C8 C 0.5461(2) -0.0203(4) 0.6220(3)
H13 H 0.5882 -0.0713 0.6101
H14 H 0.5394 0.0653 0.5858
H15 H 0.5004 -0.0752 0.6019
Ag1B Ag 0.480470(16) 0.62751(3) 0.44929(2)
Ag1F Ag 0.519530(16) 0.37249(3) 0.55071(2)
Ag1D Ag 0.480470(16) 0.37249(3) 0.94929(2)
S1B S 0.42323(5) 0.68214(9) 0.59603(6)
S2B S 0.42384(5) 0.32543(9) 0.77294(6)
S2F S 0.57616(5) 0.67457(9) 1.22706(6)
S2D S 0.42384(5) 0.67457(9) 0.27294(6)
S3B S 0.37699(5) 0.41359(9) 0.48830(6)
S3D S 0.37699(5) 0.58641(9) 0.98830(6)
S3F S 0.62301(5) 0.58641(9) 0.51170(6)
N1B N 0.29122(16) 0.5497(3) 0.5815(2)
C1B C 0.35741(19) 0.5464(3) 0.5586(2)
C3B C 0.23687(19) 0.4330(4) 0.5588(2)
H1B H 0.2649 0.3464 0.5604
H2B H 0.2089 0.4276 0.6080
C4B C 0.18094(19) 0.4494(4) 0.4597(3)
H3B H 0.1458 0.3726 0.4480
H4B H 0.1532 0.5351 0.4578
H5B H 0.2083 0.4510 0.4105
C5B C 0.2659(2) 0.6696(4) 0.6300(3)
H6B H 0.2898 0.7538 0.6144
H7B H 0.2110 0.6802 0.6052
C6B C 0.2856(2) 0.6525(5) 0.7389(3)
H8B H 0.2680 0.7325 0.7674
H9B H 0.2613 0.5702 0.7548
H10B H 0.3399 0.6440 0.7640
C7B C 0.43793(19) 0.0118(4) 0.7704(2)
H11B H 0.4329 -0.0748 0.7341
H12B H 0.3900 0.0622 0.7493
C8B C 0.4539(2) -0.0203(4) 0.8780(3)
H13B H 0.4118 -0.0713 0.8899
H14B H 0.4606 0.0653 0.9142
H15B H 0.4996 -0.0752 0.8981
loop_
_geom_bond_atom_site_label_1
_geom_bond_atom_site_label_2
_geom_bond_site_symmetry_1
_geom_bond_site_symmetry_2
Ag1 S1 1_555 1_555
Ag2 S1 1_555 1_555
S1 C1 1_555 1_555
S2 Ag2 1_555 1_555
S3 C1 1_555 1_555
N1 C1 1_555 1_555
N2 C2 1_555 1_555
C2 S2 1_555 1_555
C3 N1 1_555 1_555
H1 C3 1_555 1_555
H2 C3 1_555 1_555
C4 C3 1_555 1_555
H3 C4 1_555 1_555
H4 C4 1_555 1_555
H5 C4 1_555 1_555
C5 N1 1_555 1_555
H6 C5 1_555 1_555
H7 C5 1_555 1_555
C6 C5 1_555 1_555
H8 C6 1_555 1_555
H9 C6 1_555 1_555
H10 C6 1_555 1_555
C7 N2 1_555 1_555
H11 C7 1_555 1_555
H12 C7 1_555 1_555
C8 C7 1_555 1_555
H13 C8 1_555 1_555
H14 C8 1_555 1_555
H15 C8 1_555 1_555
Ag1B S1B 1_555 1_555
Ag1F S2 1_555 1_555
Ag1D S3 1_555 1_555
S1B Ag2 1_555 1_555
S2B Ag2 1_555 1_555
S2F Ag1 1_555 1_555
S2D Ag1B 1_555 1_555
S3B Ag1F 1_555 1_555
S3D Ag1 1_555 1_555
S3F Ag1B 1_555 1_555
N1B C1B 1_555 1_555
C1B S1B 1_555 1_555
C3B N1B 1_555 1_555
H1B C3B 1_555 1_555
H2B C3B 1_555 1_555
C4B C3B 1_555 1_555
H3B C4B 1_555 1_555
H4B C4B 1_555 1_555
H5B C4B 1_555 1_555
C5B N1B 1_555 1_555
H6B C5B 1_555 1_555
H7B C5B 1_555 1_555
C6B C5B 1_555 1_555
H8B C6B 1_555 1_555
H9B C6B 1_555 1_555
H10B C6B 1_555 1_555
C7B N2 1_555 1_555
H11B C7B 1_555 1_555
H12B C7B 1_555 1_555
C8B C7B 1_555 1_555
H13B C8B 1_555 1_555
H14B C8B 1_555 1_555
H15B C8B 1_555 1_555
C2 S2B 1_555 1_555
Ag1D S2B 1_555 1_555
S3B C1B 1_555 1_555

#END
