
#######################################################################
#
#                 Cambridge Crystallographic Data Centre
#                                CCDC 
#
#######################################################################
#
# If this CIF has been generated from an entry in the Cambridge 
# Structural Database, then it will include bibliographic, chemical, 
# crystal, experimental, refinement or atomic coordinate data resulting 
# from the CCDC's data processing and validation procedures.
#
#######################################################################

data_BIPLAN
_symmetry_cell_setting           monoclinic
_symmetry_space_group_name_H-M   'C 2/c'
_symmetry_Int_Tables_number      15
_space_group_name_Hall           '-C 2yn'
loop_
_symmetry_equiv_pos_site_id
_symmetry_equiv_pos_as_xyz
1 x,y,z
2 1/2+x,1/2+y,z
3 -x,y,1/2-z
4 1/2-x,1/2+y,1/2-z
5 -x,-y,-z
6 1/2-x,1/2-y,-z
7 x,-y,1/2+z
8 1/2+x,1/2-y,1/2+z
_cell_length_a                   18.406(3)
_cell_length_b                   9.726(2)
_cell_length_c                   14.305(4)
_cell_angle_alpha                90
_cell_angle_beta                 104.79(3)
_cell_angle_gamma                90
_cell_volume                     2475.99
loop_
_atom_site_label
_atom_site_type_symbol
_atom_site_fract_x
_atom_site_fract_y
_atom_site_fract_z
Ag1 Ag 0.00000 -0.05520 0.25000
Ag2 Ag -0.01838 0.12530 0.44914
S1 S 0.07490 0.18020 0.22590
S2 S -0.12200 -0.08520 0.48880
S3 S -0.07600 0.17730 0.59800
N1 N 0.00000 0.40290 0.25000
N2 N -0.20660 0.04720 0.58330
C1 C 0.00000 0.27140 0.25000
C2 C 0.06310 0.48820 0.23190
C3 C 0.04500 0.51740 0.12090
C4 C -0.14020 0.04390 0.56060
C5 C -0.26030 -0.06770 0.55940
C6 C -0.31590 -0.04720 0.46240
C7 C -0.23430 0.17040 0.62760
C8 C -0.21160 0.14950 0.73920
Ag2B Ag 0.01838 0.12530 0.05086
S1B S -0.07490 0.18020 0.27410
S3F S -0.07600 -0.17730 0.09800
Ag2D Ag 0.01838 -0.12530 0.55086
S2D S 0.12200 0.08520 0.51120
S3D S 0.07600 -0.17730 0.40200
C2B C -0.06310 0.48820 0.26810
Ag1D Ag 0.00000 0.05520 0.75000
C3B C -0.04500 0.51740 0.37910
loop_
_geom_bond_atom_site_label_1
_geom_bond_atom_site_label_2
_geom_bond_site_symmetry_1
_geom_bond_site_symmetry_2
Ag1 S1 1_555 1_555
Ag2 S2 1_555 1_555
S1 C1 1_555 1_555
S2 C4 1_555 1_555
S3 Ag2 1_555 1_555
N1 C1 1_555 1_555
N2 C4 1_555 1_555
C1 S1B 1_555 1_555
C2 N1 1_555 1_555
C3 C2 1_555 1_555
C4 S3 1_555 1_555
C5 N2 1_555 1_555
C6 C5 1_555 1_555
C7 N2 1_555 1_555
C8 C7 1_555 1_555
Ag2B S1 1_555 1_555
S1B Ag1 1_555 1_555
S3F Ag1 1_555 1_555
Ag2D S2 1_555 1_555
S2D Ag2 1_555 1_555
S3D Ag1 1_555 1_555
C2B N1 1_555 1_555
Ag1D S3 1_555 1_555
C3B C2B 1_555 1_555
Ag2 S1B 1_555 1_555
Ag2D S3D 1_555 1_555
Ag2D S2D 1_555 1_555

#END
