
#######################################################################
#
#                 Cambridge Crystallographic Data Centre
#                                CCDC 
#
#######################################################################
#
# If this CIF has been generated from an entry in the Cambridge 
# Structural Database, then it will include bibliographic, chemical, 
# crystal, experimental, refinement or atomic coordinate data resulting 
# from the CCDC's data processing and validation procedures.
#
#######################################################################

data_BIPYEG
_symmetry_cell_setting           monoclinic
_symmetry_space_group_name_H-M   'P 21/n'
_symmetry_Int_Tables_number      14
_space_group_name_Hall           '-P 2yn'
loop_
_symmetry_equiv_pos_site_id
_symmetry_equiv_pos_as_xyz
1 x,y,z
2 1/2-x,1/2+y,1/2-z
3 -x,-y,-z
4 1/2+x,1/2-y,1/2+z
_cell_length_a                   11.6878(17)
_cell_length_b                   7.1569(11)
_cell_length_c                   14.279(2)
_cell_angle_alpha                90
_cell_angle_beta                 97.245(3)
_cell_angle_gamma                90
_cell_volume                     1184.88
loop_
_atom_site_label
_atom_site_type_symbol
_atom_site_fract_x
_atom_site_fract_y
_atom_site_fract_z
Cu1 Cu 0.49728(5) 0.24148(9) 1.01028(4)
Cu2 Cu 0.39197(6) 0.32939(10) 0.84713(5)
Cu3 Cu 0.69842(5) 0.05213(8) 0.68218(4)
Cu4 Cu 0.49961(5) 0.30160(9) 0.64712(4)
Cu5 Cu 0.57095(5) 0.35092(8) 0.48275(4)
Cu6 Cu 0.67096(6) 0.40987(9) 0.32279(4)
O1 O 0.5478(4) 0.2632(7) 0.2547(3)
O2 O 0.7097(3) 0.0243(4) 1.0907(2)
O3 O 0.5234(3) 0.2134(5) 0.8095(2)
O4 O 0.8726(3) -0.0415(5) 0.8185(2)
O5 O 0.0468(3) 0.6782(4) 1.0564(2)
O6 O 0.2020(3) 0.6068(5) 0.7819(2)
O7 O 0.3721(3) 0.3501(5) 1.0564(2)
N1 N 0.7992(3) -0.0163(5) 0.9584(3)
N2 N 0.6170(3) 0.1326(5) 0.9537(3)
N3 N 0.6982(3) 0.0806(5) 0.8124(3)
N4 N 0.2046(3) 0.5055(5) 1.0554(3)
N5 N 0.1197(3) 0.6523(5) 0.9156(2)
N6 N 0.2891(3) 0.4663(5) 0.9141(3)
C1 C 0.7091(4) 0.0452(6) 1.0034(3)
C2 C 0.6108(4) 0.1446(6) 0.8579(3)
C3 C 0.7920(4) 0.0064(6) 0.8635(3)
C4 C 0.2920(4) 0.4377(6) 1.0086(3)
C5 C 0.1223(4) 0.6123(6) 1.0087(3)
C6 C 0.2042(4) 0.5767(6) 0.8679(3)
Cu2A Cu 0.10803(6) 0.82939(10) 0.65287(5)
Cu3C Cu 0.19842(5) 0.44787(8) 1.18218(4)
Cu4A Cu 0.00039(5) 0.80160(9) 0.85288(4)
Cu4A_2 Cu 1.00039(5) -0.19840(9) 0.85288(4)
Cu5A Cu -0.07095(5) 0.85092(8) 1.01725(4)
Cu5A_2 Cu 0.92905(5) -0.14908(8) 1.01725(4)
Cu5B Cu 0.42905(5) 0.64908(8) 0.51725(4)
Cu6A Cu 0.82904(6) -0.09013(9) 1.17721(4)
Cu6B Cu 0.32904(6) 0.59013(9) 0.67721(4)
O2A O 0.7903(3) 0.5243(4) 0.4093(2)
O4A O 0.6274(3) 0.4585(5) 0.6815(2)
O5A O 0.4532(3) 0.1782(4) 0.4436(2)
O6A O 0.2980(3) 0.1068(5) 0.7181(2)
O6B O 0.7980(3) 0.3932(5) 0.2181(2)
N1A N 0.7008(3) 0.4837(5) 0.5416(3)
N4C N 0.7046(3) -0.0055(5) 0.5554(3)
N5A N 0.3803(3) 0.1523(5) 0.5844(2)
loop_
_geom_bond_atom_site_label_1
_geom_bond_atom_site_label_2
_geom_bond_site_symmetry_1
_geom_bond_site_symmetry_2
Cu1 Cu2 1_555 1_555
Cu2 O3 1_555 1_555
Cu3 O4 1_555 1_555
Cu4 Cu5 1_555 1_555
Cu5 Cu6 1_555 1_555
Cu6 O1 1_555 1_555
O2 C1 1_555 1_555
O3 Cu4 1_555 1_555
O4 C3 1_555 1_555
O5 C5 1_555 1_555
O6 C6 1_555 1_555
O7 Cu1 1_555 1_555
N1 C1 1_555 1_555
N2 Cu1 1_555 1_555
N3 Cu3 1_555 1_555
N4 C4 1_555 1_555
N5 C5 1_555 1_555
N6 Cu2 1_555 1_555
C1 N2 1_555 1_555
C2 O3 1_555 1_555
C3 N1 1_555 1_555
C4 O7 1_555 1_555
C5 N4 1_555 1_555
C6 N5 1_555 1_555
Cu2A O6 1_555 1_555
Cu3C N4 1_555 1_555
Cu4A N5 1_555 1_555
Cu4A_2 O4 1_555 1_555
Cu5A O5 1_555 1_555
Cu5A_2 N1 1_555 1_555
Cu5B Cu5 1_555 1_555
Cu6A O2 1_555 1_555
Cu6B O6 1_555 1_555
O2A Cu6 1_555 1_555
O4A Cu4 1_555 1_555
O5A Cu5 1_555 1_555
O6A Cu2 1_555 1_555
O6B Cu6 1_555 1_555
N1A Cu5 1_555 1_555
N4C Cu3 1_555 1_555
N5A Cu4 1_555 1_555
N2 C2 1_555 1_555
N3 C2 1_555 1_555
N3 C3 1_555 1_555
N6 C4 1_555 1_555
N6 C6 1_555 1_555
Cu4A Cu5A 1_555 1_555
Cu4A_2 Cu5A_2 1_555 1_555
Cu5A_2 Cu6A 1_555 1_555
Cu5B Cu6B 1_555 1_555

#END
