
#######################################################################
#
#                 Cambridge Crystallographic Data Centre
#                                CCDC 
#
#######################################################################
#
# If this CIF has been generated from an entry in the Cambridge 
# Structural Database, then it will include bibliographic, chemical, 
# crystal, experimental, refinement or atomic coordinate data resulting 
# from the CCDC's data processing and validation procedures.
#
#######################################################################

data_BIQHOA
_symmetry_cell_setting           monoclinic
_symmetry_space_group_name_H-M   'C 2/m'
_symmetry_Int_Tables_number      12
_space_group_name_Hall           '-C 2y'
loop_
_symmetry_equiv_pos_site_id
_symmetry_equiv_pos_as_xyz
1 x,y,z
2 -x,y,-z
3 1/2+x,1/2+y,z
4 1/2-x,1/2+y,-z
5 -x,-y,-z
6 x,-y,z
7 1/2-x,1/2-y,-z
8 1/2+x,1/2-y,z
_cell_length_a                   23.1680(17)
_cell_length_b                   7.5344(5)
_cell_length_c                   13.4973(9)
_cell_angle_alpha                90
_cell_angle_beta                 99.799(5)
_cell_angle_gamma                90
_cell_volume                     2321.68
loop_
_atom_site_label
_atom_site_type_symbol
_atom_site_fract_x
_atom_site_fract_y
_atom_site_fract_z
C1 C 0.5914(3) 0.8168(11) 0.0864(6)
C2 C 0.7075(3) 1.1760(11) 0.1637(5)
C3 C 0.6659(5) 1.0000 -0.0115(10)
C4 C 0.6233(5) 1.0000 0.2555(8)
C5 C 0.4013(6) 0.5000 0.1263(10)
H1 H 0.3784 0.5000 0.0626
C6 C 0.4898(6) 0.5000 0.2233(10)
H2 H 0.5304 0.5000 0.2303
C7 C 0.3724(6) 0.5000 0.2081(9)
H3 H 0.3318 0.5000 0.2004
C8 C 0.4648(6) 0.5000 0.3085(10)
H4 H 0.4878 0.5000 0.3721
C9 C 0.4055(6) 0.5000 0.2969(10)
C10 C 0.3042(6) 0.5000 0.4694(9)
C11 C 0.2452(6) 0.5000 0.4576(10)
H5 H 0.2231 0.5000 0.3932
C12 C 0.3358(6) 0.5000 0.5672(9)
H6 H 0.3766 0.5000 0.5800
C13 C 0.2179(5) 0.5000 0.5380(9)
H7 H 0.1772 0.5000 0.5266
C14 C 0.3036(6) 0.5000 0.6431(9)
H8 H 0.3243 0.5000 0.7085
N1 N 0.5590(3) 0.7010(9) 0.0641(5)
N2 N 0.7436(3) 1.2810(9) 0.1876(5)
N3 N 0.6746(4) 1.0000 -0.0918(7)
N4 N 0.6054(5) 1.0000 0.3295(9)
N5 N 0.4587(4) 0.5000 0.1317(7)
N6 N 0.3811(6) 0.5000 0.3937(8)
N7 N 0.3308(5) 0.5000 0.3819(8)
N8 N 0.2456(4) 0.5000 0.6325(7)
O1 O 0.8736(3) 1.5000 0.3022(6)
Fe1 Fe 0.64805(7) 1.0000 0.12505(11)
Zn1 Zn 0.5000 0.5000 0.0000
Zn2 Zn 0.79135(5) 1.5000 0.22448(9)
H9 H 0.8799(8) 1.565(7) 0.350(5)
H9E H 0.8799(8) 1.435(7) 0.350(5)
C1A C 0.4086(3) 0.8168(11) -0.0864(6)
C2A C 0.2925(3) 1.1760(11) -0.1637(5)
C3A C 0.3341(5) 1.0000 0.0115(10)
C4A C 0.3767(5) 1.0000 -0.2555(8)
C5A C 0.5987(6) 0.5000 -0.1263(10)
H1A H 0.6216 0.5000 -0.0626
C6A C 0.5102(6) 0.5000 -0.2233(10)
H2A H 0.4696 0.5000 -0.2303
C7A C 0.6276(6) 0.5000 -0.2081(9)
H3A H 0.6682 0.5000 -0.2004
C8A C 0.5352(6) 0.5000 -0.3085(10)
H4A H 0.5122 0.5000 -0.3721
C9A C 0.5945(6) 0.5000 -0.2969(10)
C10A C 0.6958(6) 0.5000 -0.4694(9)
C11A C 0.7548(6) 0.5000 -0.4576(10)
H5A H 0.7769 0.5000 -0.3932
C12A C 0.6642(6) 0.5000 -0.5672(9)
H6A H 0.6234 0.5000 -0.5800
C13A C 0.7821(5) 0.5000 -0.5380(9)
H7A H 0.8228 0.5000 -0.5266
C14A C 0.6964(6) 0.5000 -0.6431(9)
H8A H 0.6757 0.5000 -0.7085
N1A N 0.4410(3) 0.7010(9) -0.0641(5)
N2A N 0.2564(3) 1.2810(9) -0.1876(5)
N3A N 0.3254(4) 1.0000 0.0918(7)
N4A N 0.3946(5) 1.0000 -0.3295(9)
N5A N 0.5413(4) 0.5000 -0.1317(7)
N6A N 0.6189(6) 0.5000 -0.3937(8)
N7A N 0.6692(5) 0.5000 -0.3819(8)
N8A N 0.7544(4) 0.5000 -0.6325(7)
O1A O 0.1264(3) 1.5000 -0.3022(6)
Fe1A Fe 0.35195(7) 1.0000 -0.12505(11)
Zn2A Zn 0.20865(5) 1.5000 -0.22448(9)
H9A H 0.1201(8) 1.565(7) -0.350(5)
H9D H 0.1201(8) 1.435(7) -0.350(5)
C1D C 0.4086(3) 0.1832(11) -0.0864(6)
N1D N 0.4410(3) 0.2990(9) -0.0641(5)
C1E C 0.5914(3) 0.1832(11) 0.0864(6)
N1E N 0.5590(3) 0.2990(9) 0.0641(5)
C2E C 0.7075(3) 0.8240(11) 0.1637(5)
N2E N 0.7436(3) 0.7190(9) 0.1876(5)
C2E_2 C 0.7075(3) 1.8240(11) 0.1637(5)
N2E_2 N 0.7436(3) 1.7190(9) 0.1876(5)
C1D_2 C 0.4086(3) 1.1832(11) -0.0864(6)
C1E_2 C 0.5914(3) 1.1832(11) 0.0864(6)
C2D C 0.2925(3) 0.8240(11) -0.1637(5)
N2D N 0.2564(3) 1.7190(9) -0.1876(5)
N3B N 0.1746(4) 1.5000 -0.0918(7)
N3C N 0.8254(4) 1.5000 0.0918(7)
N8_2 N 0.2456(4) 1.5000 -0.3675(7)
N8A_2 N 0.7544(4) 1.5000 0.3675(7)
Fe1_2 Fe 0.64805(7) 0.0000 0.12505(11)
Fe1_3 Fe 0.64805(7) 2.0000 0.12505(11)
Fe1A_2 Fe 0.35195(7) 0.0000 -0.12505(11)
Zn2_2 Zn 0.79135(5) 0.5000 -0.77552(9)
Zn2_3 Zn 0.79135(5) 0.5000 0.22448(9)
Zn2A_2 Zn 0.20865(5) 0.5000 0.77552(9)
Zn2B Zn 0.29135(5) 1.0000 0.22448(9)
Zn2C Zn 0.70865(5) 1.0000 -0.22448(9)
O2 O 0.4659(5) 0.0000 0.1965(9)
H10 H 0.4761(16) 0.091(14) 0.231(5)
H10E H 0.4761(16) -0.091(14) 0.231(5)
O3 O 0.9335(6) 1.6213(7) 0.4876(9)
H11? H 0.892(2) 1.5000 0.264(4)
loop_
_geom_bond_atom_site_label_1
_geom_bond_atom_site_label_2
_geom_bond_site_symmetry_1
_geom_bond_site_symmetry_2
C1 N1 1_555 1_555
C2 N2 1_555 1_555
C3 N3 1_555 1_555
C4 N4 1_555 1_555
C5 H1 1_555 1_555
C6 H2 1_555 1_555
C7 C5 1_555 1_555
H3 C7 1_555 1_555
C8 C6 1_555 1_555
H4 C8 1_555 1_555
C9 C7 1_555 1_555
C10 C11 1_555 1_555
C11 H5 1_555 1_555
C12 C10 1_555 1_555
H6 C12 1_555 1_555
C13 C11 1_555 1_555
H7 C13 1_555 1_555
C14 C12 1_555 1_555
H8 C14 1_555 1_555
N1 Zn1 1_555 1_555
N2 Zn2 1_555 1_555
N3 Zn2C 1_555 1_555
N5 C5 1_555 1_555
N6 C9 1_555 1_555
N7 C10 1_555 1_555
N8 C13 1_555 1_555
O1 Zn2 1_555 1_555
Fe1 C1 1_555 1_555
Zn1 N5 1_555 1_555
Zn2 N2E_2 1_555 1_555
H9 O1 1_555 1_555
O2 H10 1_555 1_555
H9E O1 1_555 1_555
C1A N1A 1_555 1_555
C2A N2A 1_555 1_555
C3A N3A 1_555 1_555
C4A N4A 1_555 1_555
C5A H1A 1_555 1_555
C6A H2A 1_555 1_555
C7A C5A 1_555 1_555
H3A C7A 1_555 1_555
C8A C6A 1_555 1_555
H4A C8A 1_555 1_555
C9A C7A 1_555 1_555
C10A C11A 1_555 1_555
C11A H5A 1_555 1_555
C12A C10A 1_555 1_555
H6A C12A 1_555 1_555
C13A C11A 1_555 1_555
H7A C13A 1_555 1_555
C14A C12A 1_555 1_555
H8A C14A 1_555 1_555
N1A Zn1 1_555 1_555
N2A Zn2A 1_555 1_555
N3A Zn2B 1_555 1_555
N5A Zn1 1_555 1_555
N6A C9A 1_555 1_555
N7A C10A 1_555 1_555
N8A C13A 1_555 1_555
O1A Zn2A 1_555 1_555
Fe1A C1A 1_555 1_555
Zn2A N2D 1_555 1_555
H9A O1A 1_555 1_555
H9D O1A 1_555 1_555
C1D N1D 1_555 1_555
N1D Zn1 1_555 1_555
C1E N1E 1_555 1_555
N1E Zn1 1_555 1_555
C2E Fe1 1_555 1_555
N2E C2E 1_555 1_555
C2E_2 N2E_2 1_555 1_555
C1D_2 Fe1A 1_555 1_555
C1E_2 Fe1 1_555 1_555
C2D Fe1A 1_555 1_555
N3B Zn2A 1_555 1_555
N3C Zn2 1_555 1_555
N8_2 Zn2A 1_555 1_555
N8A_2 Zn2 1_555 1_555
Fe1_2 C1E 1_555 1_555
Fe1_3 C2E_2 1_555 1_555
Fe1A_2 C1D 1_555 1_555
Zn2_2 N8A 1_555 1_555
Zn2_3 N2E 1_555 1_555
Zn2A_2 N8 1_555 1_555
H10E O2 1_555 1_555
C2 Fe1 1_555 1_555
C3 Fe1 1_555 1_555
C4 Fe1 1_555 1_555
C6 N5 1_555 1_555
C8 C9 1_555 1_555
C14 N8 1_555 1_555
N6 N7 1_555 1_555
C2A Fe1A 1_555 1_555
C3A Fe1A 1_555 1_555
C4A Fe1A 1_555 1_555
C5A N5A 1_555 1_555
C6A N5A 1_555 1_555
C8A C9A 1_555 1_555
C14A N8A 1_555 1_555
N6A N7A 1_555 1_555

#END
