
#######################################################################
#
#                 Cambridge Crystallographic Data Centre
#                                CCDC 
#
#######################################################################
#
# If this CIF has been generated from an entry in the Cambridge 
# Structural Database, then it will include bibliographic, chemical, 
# crystal, experimental, refinement or atomic coordinate data resulting 
# from the CCDC's data processing and validation procedures.
#
#######################################################################

data_BIQTUS
_symmetry_cell_setting           tetragonal
_symmetry_space_group_name_H-M   'I -4 2 d'
_symmetry_Int_Tables_number      122
_space_group_name_Hall           'I -4 2bw'
loop_
_symmetry_equiv_pos_site_id
_symmetry_equiv_pos_as_xyz
1 x,y,z
2 -x,-y,z
3 y,-x,-z
4 -y,x,-z
5 1/2-x,y,3/4-z
6 1/2+x,-y,3/4-z
7 1/2-y,-x,3/4+z
8 1/2+y,x,3/4+z
9 1/2+x,1/2+y,1/2+z
10 1/2-x,1/2-y,1/2+z
11 1/2+y,1/2-x,1/2-z
12 1/2-y,1/2+x,1/2-z
13 -x,1/2+y,1/4-z
14 x,1/2-y,1/4-z
15 -y,1/2-x,1/4+z
16 y,1/2+x,1/4+z
_cell_length_a                   15.778(4)
_cell_length_b                   15.778(4)
_cell_length_c                   7.256(4)
_cell_angle_alpha                90
_cell_angle_beta                 90
_cell_angle_gamma                90
_cell_volume                     1806.35
loop_
_atom_site_label
_atom_site_type_symbol
_atom_site_fract_x
_atom_site_fract_y
_atom_site_fract_z
Ag1 Ag 0.41867(4) 0.7500 0.1250
O1 O 0.3931(5) 0.9410(5) 0.3182(11)
N1 N 0.2500 0.9439(3) 0.3750
N2 N 0.3212(3) 0.8125(3) 0.3246(6)
N3 N 0.3855(6) 0.9383(6) 0.2644(15)
C1 C 0.2500 0.5043(5) 0.3750
H1 H 0.2500 0.4454 0.3750
C2 C 0.3239(5) 0.5471(4) 0.4043(11)
H2 H 0.3741 0.5175 0.4236
C3 C 0.3240(4) 0.6350(3) 0.4053(9)
H3 H 0.3744 0.6639 0.4267
C4 C 0.2500 0.6809(4) 0.3750
C5 C 0.2500 0.7738(4) 0.3750
C6 C 0.3205(3) 0.8995(3) 0.3318(7)
O1D O 0.1069(5) 0.9410(5) 0.4318(11)
N2D N 0.1788(3) 0.8125(3) 0.4254(6)
N3D N 0.1145(6) 0.9383(6) 0.4856(15)
C2D C 0.1761(5) 0.5471(4) 0.3457(11)
H2D H 0.1259 0.5175 0.3264
C3D C 0.1760(4) 0.6350(3) 0.3447(9)
H3D H 0.1256 0.6639 0.3233
C6D C 0.1795(3) 0.8995(3) 0.4182(7)
Ag1D Ag 0.08133(4) 0.7500 0.6250
Ag1J Ag 0.2500 1.08133(4) 0.3750
N1F N 0.5561(3) 0.7500 0.1250
N2M N 0.3212(3) 0.6875(3) -0.0746(6)
loop_
_geom_bond_atom_site_label_1
_geom_bond_atom_site_label_2
_geom_bond_site_symmetry_1
_geom_bond_site_symmetry_2
Ag1 N2 1_555 1_555
O1 N3 1_555 1_555
N1 C6 1_555 1_555
N2 C5 1_555 1_555
N3 C6 1_555 1_555
C1 H1 1_555 1_555
C2 C1 1_555 1_555
H2 C2 1_555 1_555
C3 C2 1_555 1_555
H3 C3 1_555 1_555
C4 C3 1_555 1_555
C5 C4 1_555 1_555
C6 O1 1_555 1_555
O1D N3D 1_555 1_555
N2D C5 1_555 1_555
N3D C6D 1_555 1_555
C2D C1 1_555 1_555
H2D C2D 1_555 1_555
C3D C4 1_555 1_555
H3D C3D 1_555 1_555
C6D N1 1_555 1_555
Ag1D N2D 1_555 1_555
Ag1J N1 1_555 1_555
N1F Ag1 1_555 1_555
N2M Ag1 1_555 1_555
N2 C6 1_555 1_555
O1D C6D 1_555 1_555
N2D C6D 1_555 1_555
C2D C3D 1_555 1_555

#END
