
#######################################################################
#
#                 Cambridge Crystallographic Data Centre
#                                CCDC 
#
#######################################################################
#
# If this CIF has been generated from an entry in the Cambridge 
# Structural Database, then it will include bibliographic, chemical, 
# crystal, experimental, refinement or atomic coordinate data resulting 
# from the CCDC's data processing and validation procedures.
#
#######################################################################

data_BIQVEE
_symmetry_cell_setting           triclinic
_symmetry_space_group_name_H-M   'P -1'
_symmetry_Int_Tables_number      2
_space_group_name_Hall           '-P 1'
loop_
_symmetry_equiv_pos_site_id
_symmetry_equiv_pos_as_xyz
1 x,y,z
2 -x,-y,-z
_cell_length_a                   9.152(2)
_cell_length_b                   9.960(2)
_cell_length_c                   12.663(4)
_cell_angle_alpha                102.195(4)
_cell_angle_beta                 103.277(4)
_cell_angle_gamma                109.443(3)
_cell_volume                     1005.97
loop_
_atom_site_label
_atom_site_type_symbol
_atom_site_fract_x
_atom_site_fract_y
_atom_site_fract_z
Ce1 Ce 0.30238(3) 0.56573(2) 0.52628(2)
O1 O 0.0812(4) 0.4060(3) 0.3159(3)
O2 O 0.3301(4) 0.5709(3) 0.3382(3)
O3 O 0.4356(7) 0.6593(6) 0.0190(4)
H1 H 0.4939 0.7038 -0.0156
O4 O 0.2625(6) 0.5051(5) -0.1613(3)
O5 O 0.6280(3) 0.6592(3) 0.5604(3)
O6 O 0.5339(4) 0.8391(3) 0.5973(3)
O7 O 1.2578(4) 1.0262(4) 0.7340(3)
H2 H 1.3373 1.0920 0.7267
O8 O 1.1065(4) 1.3790(3) 0.5604(3)
O9 O 0.8343(4) 1.2808(4) 0.5165(3)
O10 O 0.4597(2) 0.5627(2) 0.70907(15)
H3 H 0.5201 0.5184 0.7022
H4 H 0.4104 0.5369 0.7505
O11 O 0.2601(2) 0.7316(2) 0.70839(15)
H5 H 0.2559 0.8136 0.6963
H6 H 0.1701 0.6908 0.7172
O12 O -0.2159(2) 0.1142(2) -0.11621(15)
H7 H -0.2233 0.1052 -0.1849
C1 C 0.1821(5) 0.4656(5) 0.2735(4)
C2 C 0.1311(6) 0.4122(5) 0.1472(4)
C3 C 0.2370(6) 0.4937(6) 0.1045(4)
H8 H 0.3362 0.5764 0.1514
C4 C 0.1903(7) 0.4476(6) -0.0129(4)
C5 C 0.0394(7) 0.3208(7) -0.0863(5)
H9 H 0.0150 0.2955 -0.1668
C6 C -0.0661(8) 0.2389(8) -0.0434(5)
C7 C -0.0181(7) 0.2850(7) 0.0737(5)
H10 H -0.0872 0.2300 0.1090
C8 C 0.2988(7) 0.5384(7) -0.0597(5)
C9 C 0.6518(5) 0.8023(5) 0.5910(4)
C10 C 0.8177(5) 0.9276(4) 0.6166(4)
C11 C 0.9649(5) 0.9230(5) 0.6673(4)
H11 H 0.9642 0.8396 0.6927
C12 C 1.1176(5) 1.0375(5) 0.6834(4)
C13 C 1.1224(5) 1.1553(5) 0.6481(4)
H12 H 1.2237 1.2327 0.6574
C14 C 0.9751(5) 1.1608(5) 0.5977(4)
C15 C 0.8227(5) 1.0477(4) 0.5832(4)
H13 H 0.7237 1.0567 0.5498
C16 C 0.9720(5) 1.2825(5) 0.5553(4)
Ce1_2 Ce 1.30238(3) 1.56573(2) 0.52628(2)
Ce1A Ce 0.69762(3) 0.43427(2) 0.47372(2)
Ce1A_2 Ce 0.69762(3) 1.43427(2) 0.47372(2)
O5A O 0.3720(3) 0.3408(3) 0.4396(3)
O8_2 O 0.1065(4) 0.3790(3) 0.5604(3)
O9A O 0.1657(4) 0.7192(4) 0.4835(3)
O13 O 0.4667(2) 0.8645(2) 0.31430(15)
H14 H 0.4630 0.9473 0.3473
H15 H 0.3701 0.7966 0.3054
O14 O 0.4566(2) 0.1193(2) 0.06939(15)
H16 H 0.4151 0.1786 0.1008
H17 H 0.3954 0.0349 0.0718
loop_
_geom_bond_atom_site_label_1
_geom_bond_atom_site_label_2
_geom_bond_site_symmetry_1
_geom_bond_site_symmetry_2
Ce1 O1 1_555 1_555
O1 C1 1_555 1_555
O2 Ce1 1_555 1_555
O3 H1 1_555 1_555
O4 C8 1_555 1_555
O5 Ce1 1_555 1_555
O6 Ce1 1_555 1_555
O7 H2 1_555 1_555
O8 C16 1_555 1_555
O9 C16 1_555 1_555
O10 Ce1 1_555 1_555
H3 O10 1_555 1_555
H4 O10 1_555 1_555
O11 Ce1 1_555 1_555
H5 O11 1_555 1_555
H6 O11 1_555 1_555
O12 H7 1_555 1_555
C1 O2 1_555 1_555
C2 C1 1_555 1_555
C3 C2 1_555 1_555
H8 C3 1_555 1_555
C4 C3 1_555 1_555
C5 C4 1_555 1_555
H9 C5 1_555 1_555
C6 O12 1_555 1_555
C7 C2 1_555 1_555
H10 C7 1_555 1_555
C8 O3 1_555 1_555
C9 O5 1_555 1_555
C10 C9 1_555 1_555
C11 C10 1_555 1_555
H11 C11 1_555 1_555
C12 O7 1_555 1_555
C13 C12 1_555 1_555
H12 C13 1_555 1_555
C14 C13 1_555 1_555
C15 C10 1_555 1_555
H13 C15 1_555 1_555
C16 C14 1_555 1_555
O13 H14 1_555 1_555
H15 O13 1_555 1_555
O14 H16 1_555 1_555
H17 O14 1_555 1_555
Ce1_2 O8 1_555 1_555
Ce1A O5 1_555 1_555
Ce1A_2 O9 1_555 1_555
O5A Ce1 1_555 1_555
O8_2 Ce1 1_555 1_555
O9A Ce1 1_555 1_555
O6 C9 1_555 1_555
C4 C8 1_555 1_555
C5 C6 1_555 1_555
C6 C7 1_555 1_555
C11 C12 1_555 1_555
C14 C15 1_555 1_555
Ce1A O5A 1_555 1_555

#END
