
#######################################################################
#
#                 Cambridge Crystallographic Data Centre
#                                CCDC 
#
#######################################################################
#
# If this CIF has been generated from an entry in the Cambridge 
# Structural Database, then it will include bibliographic, chemical, 
# crystal, experimental, refinement or atomic coordinate data resulting 
# from the CCDC's data processing and validation procedures.
#
#######################################################################

data_BIRJAP
_symmetry_cell_setting           monoclinic
_symmetry_space_group_name_H-M   'P 21/c'
_symmetry_Int_Tables_number      14
_space_group_name_Hall           '-P 2ybc'
loop_
_symmetry_equiv_pos_site_id
_symmetry_equiv_pos_as_xyz
1 x,y,z
2 -x,1/2+y,1/2-z
3 -x,-y,-z
4 x,1/2-y,1/2+z
_cell_length_a                   9.075(4)
_cell_length_b                   22.923(10)
_cell_length_c                   21.197(9)
_cell_angle_alpha                90
_cell_angle_beta                 90.00
_cell_angle_gamma                90
_cell_volume                     4409.53
loop_
_atom_site_label
_atom_site_type_symbol
_atom_site_fract_x
_atom_site_fract_y
_atom_site_fract_z
Cd1 Cd -0.56060(5) 0.45136(2) -0.25359(2)
Cd2 Cd 0.23416(5) 0.29574(2) 0.24503(2)
O1 O 0.4317(6) 0.4641(2) -0.1421(2)
O2 O 0.3275(7) 0.3815(2) -0.1744(2)
O3 O 0.3015(6) 0.3790(2) 0.1728(2)
O4 O 0.2533(6) 0.2914(2) 0.1372(2)
O5 O -0.6319(8) 0.3562(3) -0.6802(2)
O6 O -0.7889(7) 0.2944(3) -0.6453(2)
O7 O -0.6330(6) 0.3751(2) -0.3335(2)
O8 O -0.5294(6) 0.4560(2) -0.3658(2)
N1 N -0.3501(6) 0.3976(3) -0.2343(3)
N2 N -0.1892(7) 0.3467(3) -0.1784(3)
N3 N -0.2211(7) 0.3317(3) 0.1788(3)
N4 N -0.0138(6) 0.3130(3) 0.2290(3)
N5 N -0.9885(7) 0.5156(3) -0.3238(3)
N6 N -0.7922(7) 0.4879(3) -0.2705(3)
O9 O 0.1857(10) 0.1919(3) 0.2439(4)
O10 O -0.4329(6) 0.5420(2) -0.2531(2)
C1 C 0.3699(8) 0.4149(3) -0.1314(3)
C2 C 0.3497(7) 0.3972(3) -0.0638(3)
C3 C 0.2951(8) 0.3427(3) -0.0495(3)
H1 H 0.2753 0.3164 -0.0819
C4 C 0.3072(7) 0.3637(3) 0.0615(3)
C5 C -0.2709(7) 0.3360(3) 0.0616(3)
C6 C -0.1885(8) 0.3818(3) 0.0390(4)
C7 C -0.1349(8) 0.3793(3) -0.0232(4)
C8 C -0.1685(8) 0.3309(3) -0.0616(3)
C9 C -0.2622(9) 0.2871(3) -0.0403(4)
C10 C -0.3098(8) 0.2873(3) 0.0235(4)
C11 C -0.0796(7) 0.3153(3) 0.1737(3)
H2 H -0.0336 0.3066 0.1357
C12 C -0.3355(8) 0.3407(4) 0.1284(4)
H3 H -0.3797 0.3789 0.1337
H4 H -0.4126 0.3118 0.1334
C13 C -0.1119(11) 0.3313(4) 0.2713(4)
H5 H -0.0926 0.3365 0.3140
C14 C -0.0959(9) 0.3237(4) -0.1260(4)
H6 H -0.0021 0.3440 -0.1260
H7 H -0.0765 0.2826 -0.1333
C15 C -0.2495(8) 0.3416(4) 0.2421(3)
H8 H -0.3380 0.3525 0.2609
C16 C -0.8938(14) 0.6120(5) -0.4531(6)
H9 H -0.8961 0.6166 -0.4084
H10 H -0.7917 0.6138 -0.4660
H11 H -0.9450 0.6438 -0.4731
C17 C -0.9539(9) 0.5554(4) -0.4769(4)
C18 C -1.0349(8) 0.5178(5) -0.4402(3)
C19 C 0.3619(9) 0.4190(3) 0.0473(3)
H12 H 0.3857 0.4449 0.0794
C20 C 0.3808(9) 0.4349(4) -0.0151(3)
H13 H 0.4154 0.4721 -0.0244
C21 C -0.7004(8) 0.3347(3) -0.6357(3)
C22 C -0.7429(8) 0.3289(3) -0.5205(3)
H14 H -0.8067 0.2982 -0.5289
C23 C -0.6765(7) 0.3560(3) -0.5690(3)
C24 C -0.5771(10) 0.4007(3) -0.5568(3)
H15 H -0.5263 0.4186 -0.5896
C25 C -0.5542(9) 0.4187(3) -0.4939(3)
H16 H -0.4898 0.4493 -0.4852
C26 C -0.6281(7) 0.3906(3) -0.4447(3)
C27 C -0.7193(7) 0.3453(3) -0.4579(3)
H17 H -0.7659 0.3253 -0.4254
C28 C -0.5925(8) 0.4093(3) -0.3770(3)
C29 C 0.2693(8) 0.3266(3) 0.0126(3)
H18 H 0.2265 0.2906 0.0214
C30 C 0.2861(7) 0.3431(3) 0.1289(3)
C31 C -0.3221(13) 0.2415(4) -0.0835(5)
H19 H -0.2807 0.2466 -0.1248
H20 H -0.4273 0.2451 -0.0858
H21 H -0.2967 0.2036 -0.0678
C32 C -0.3951(11) 0.2380(4) 0.0505(5)
H22 H -0.3521 0.2324 0.0914
H23 H -0.3886 0.2018 0.0275
H24 H -0.4970 0.2483 0.0553
C33 C -0.1493(13) 0.4341(4) 0.0796(5)
H25 H -0.1934 0.4298 0.1205
H26 H -0.1856 0.4690 0.0600
H27 H -0.0442 0.4365 0.0839
C34 C -0.0506(10) 0.4311(4) -0.0471(4)
H28 H -0.0200 0.4242 -0.0898
H29 H 0.0346 0.4373 -0.0210
H30 H -0.1124 0.4651 -0.0456
C35 C -0.1767(11) 0.3301(4) -0.2404(4)
H31 H -0.1132 0.3024 -0.2574
C36 C -0.2810(10) 0.3642(4) -0.2721(4)
H32 H -0.2978 0.3627 -0.3154
C37 C -0.2955(9) 0.3876(4) -0.1774(4)
H33 H -0.3270 0.4065 -0.1410
C38 C -1.0873(11) 0.5382(5) -0.3756(4)
H34 H -1.0884 0.5805 -0.3745
H35 H -1.1871 0.5246 -0.3685
C39 C -1.0309(8) 0.5082(4) -0.2613(4)
H36 H -1.1240 0.5129 -0.2437
C40 C -0.9024(11) 0.4923(4) -0.2319(4)
H37 H -0.8952 0.4853 -0.1888
C41 C -0.8501(8) 0.5022(4) -0.3268(3)
H38 H -0.7962 0.5023 -0.3641
O11 O 0.4651(12) 0.2353(5) 0.2425(5)
C42 C -0.9215(9) 0.5392(4) -0.5388(4)
C43 C -0.8409(12) 0.5808(6) -0.5810(5)
H39 H -0.8290 0.5628 -0.6217
H40 H -0.8982 0.6158 -0.5853
H41 H -0.7456 0.5902 -0.5642
N5B N -1.0115(7) 0.4844(3) -0.6762(3)
N6B N -1.2078(7) 0.5121(3) -0.7295(3)
C16B C -1.1062(14) 0.3880(5) -0.5469(6)
H9B H -1.1039 0.3834 -0.5916
H10B H -1.2083 0.3862 -0.5340
H11B H -1.0550 0.3562 -0.5269
C17B C -1.0461(9) 0.4446(4) -0.5231(4)
C18B C -0.9651(8) 0.4822(5) -0.5598(3)
C38B C -0.9127(11) 0.4618(5) -0.6244(4)
H34B H -0.9116 0.4195 -0.6255
H35B H -0.8129 0.4754 -0.6315
C39B C -0.9691(8) 0.4918(4) -0.7387(4)
H36B H -0.8760 0.4871 -0.7563
C40B C -1.0976(11) 0.5077(4) -0.7681(4)
H37B H -1.1048 0.5147 -0.8112
C41B C -1.1499(8) 0.4978(4) -0.6732(3)
H38B H -1.2038 0.4977 -0.6359
C42B C -1.0785(9) 0.4608(4) -0.4612(4)
C43B C -1.1591(12) 0.4192(6) -0.4190(5)
H39B H -1.1710 0.4372 -0.3783
H40B H -1.1018 0.3842 -0.4147
H41B H -1.2544 0.4098 -0.4358
Cd1B Cd -1.43940(5) 0.54864(2) -0.74641(2)
Cd2B Cd -2.23416(5) 0.70426(2) -1.24503(2)
O1B O -2.4317(6) 0.5359(2) -0.8579(2)
O2B O -2.3275(7) 0.6185(2) -0.8256(2)
O3B O -2.3015(6) 0.6210(2) -1.1728(2)
O4B O -2.2533(6) 0.7086(2) -1.1372(2)
O5B O -1.3681(8) 0.6438(3) -0.3198(2)
O6B O -1.2111(7) 0.7056(3) -0.3547(2)
O7B O -1.3670(6) 0.6249(2) -0.6665(2)
O8B O -1.4706(6) 0.5440(2) -0.6342(2)
N1B N -1.6499(6) 0.6024(3) -0.7657(3)
N2B N -1.8108(7) 0.6533(3) -0.8216(3)
N3B N -1.7789(7) 0.6683(3) -1.1788(3)
N4B N -1.9862(6) 0.6870(3) -1.2290(3)
O9B O -2.1857(10) 0.8081(3) -1.2439(4)
O10B O -1.5671(6) 0.4580(2) -0.7469(2)
C1B C -2.3699(8) 0.5851(3) -0.8686(3)
C2B C -2.3497(7) 0.6028(3) -0.9362(3)
C3B C -2.2951(8) 0.6573(3) -0.9505(3)
H1B H -2.2753 0.6836 -0.9181
C4B C -2.3072(7) 0.6363(3) -1.0615(3)
C5B C -1.7291(7) 0.6640(3) -1.0616(3)
C6B C -1.8115(8) 0.6182(3) -1.0390(4)
C7B C -1.8651(8) 0.6207(3) -0.9768(4)
C8B C -1.8315(8) 0.6691(3) -0.9384(3)
C9B C -1.7378(9) 0.7129(3) -0.9597(4)
C10B C -1.6902(8) 0.7127(3) -1.0235(4)
C11B C -1.9204(7) 0.6847(3) -1.1737(3)
H2B H -1.9664 0.6934 -1.1357
C12B C -1.6645(8) 0.6593(4) -1.1284(4)
H3B H -1.6203 0.6211 -1.1337
H4B H -1.5874 0.6882 -1.1334
C13B C -1.8881(11) 0.6687(4) -1.2713(4)
H5B H -1.9074 0.6635 -1.3140
C14B C -1.9041(9) 0.6763(4) -0.8740(4)
H6B H -1.9979 0.6560 -0.8740
H7B H -1.9235 0.7174 -0.8667
C15B C -1.7505(8) 0.6584(4) -1.2421(3)
H8B H -1.6620 0.6475 -1.2609
C19B C -2.3619(9) 0.5810(3) -1.0473(3)
H12B H -2.3857 0.5551 -1.0794
C20B C -2.3808(9) 0.5651(4) -0.9849(3)
H13B H -2.4154 0.5279 -0.9756
C21B C -1.2996(8) 0.6653(3) -0.3643(3)
C22B C -1.2571(8) 0.6711(3) -0.4795(3)
H14B H -1.1933 0.7018 -0.4711
C23B C -1.3235(7) 0.6440(3) -0.4310(3)
C24B C -1.4229(10) 0.5993(3) -0.4432(3)
H15B H -1.4737 0.5814 -0.4104
C25B C -1.4458(9) 0.5813(3) -0.5061(3)
H16B H -1.5102 0.5507 -0.5148
C26B C -1.3719(7) 0.6094(3) -0.5553(3)
C27B C -1.2807(7) 0.6547(3) -0.5421(3)
H17B H -1.2341 0.6747 -0.5746
C28B C -1.4075(8) 0.5907(3) -0.6230(3)
C29B C -2.2693(8) 0.6734(3) -1.0126(3)
H18B H -2.2265 0.7094 -1.0214
C30B C -2.2861(7) 0.6569(3) -1.1289(3)
C31B C -1.6779(13) 0.7585(4) -0.9165(5)
H19B H -1.7193 0.7534 -0.8752
H20B H -1.5727 0.7549 -0.9142
H21B H -1.7033 0.7964 -0.9322
C32B C -1.6049(11) 0.7620(4) -1.0505(5)
H22B H -1.6479 0.7676 -1.0914
H23B H -1.6114 0.7982 -1.0275
H24B H -1.5030 0.7517 -1.0553
C33B C -1.8507(13) 0.5659(4) -1.0796(5)
H25B H -1.8066 0.5702 -1.1205
H26B H -1.8144 0.5310 -1.0600
H27B H -1.9558 0.5635 -1.0839
C34B C -1.9494(10) 0.5689(4) -0.9529(4)
H28B H -1.9800 0.5758 -0.9102
H29B H -2.0346 0.5627 -0.9790
H30B H -1.8876 0.5349 -0.9544
C35B C -1.8233(11) 0.6699(4) -0.7596(4)
H31B H -1.8868 0.6976 -0.7426
C36B C -1.7190(10) 0.6358(4) -0.7279(4)
H32B H -1.7022 0.6373 -0.6846
C37B C -1.7045(9) 0.6124(4) -0.8226(4)
H33B H -1.6730 0.5935 -0.8590
O11B O -2.4651(12) 0.7647(5) -1.2425(5)
Cd1_2 Cd 0.43940(5) 0.45136(2) -0.25359(2)
Cd1B_2 Cd -2.43940(5) 0.54864(2) -0.74641(2)
Cd2_2 Cd -0.76584(5) 0.29574(2) -0.75497(2)
Cd2B_2 Cd -1.23416(5) 0.70426(2) -0.24503(2)
O1_2 O -0.5683(6) 0.4641(2) -0.1421(2)
O1B_2 O -1.4317(6) 0.5359(2) -0.8579(2)
O2_2 O -0.6725(7) 0.3815(2) -0.1744(2)
O2B_2 O -1.3275(7) 0.6185(2) -0.8256(2)
O5_2 O 0.3681(8) 0.3562(3) 0.3198(2)
O5B_2 O -2.3681(8) 0.6438(3) -1.3198(2)
O6_2 O 0.2111(7) 0.2944(3) 0.3547(2)
O6B_2 O -2.2111(7) 0.7056(3) -1.3547(2)
loop_
_geom_bond_atom_site_label_1
_geom_bond_atom_site_label_2
_geom_bond_site_symmetry_1
_geom_bond_site_symmetry_2
Cd1 O7 1_555 1_555
Cd2 O3 1_555 1_555
O1 C1 1_555 1_555
O2 C1 1_555 1_555
O3 C30 1_555 1_555
O4 Cd2 1_555 1_555
O5 C21 1_555 1_555
O6 C21 1_555 1_555
O7 C28 1_555 1_555
O8 Cd1 1_555 1_555
N1 Cd1 1_555 1_555
N2 C14 1_555 1_555
N3 C11 1_555 1_555
N4 Cd2 1_555 1_555
N5 C38 1_555 1_555
N6 Cd1 1_555 1_555
O9 Cd2 1_555 1_555
O10 Cd1 1_555 1_555
C1 C2 1_555 1_555
C2 C3 1_555 1_555
C3 H1 1_555 1_555
C4 C19 1_555 1_555
C5 C6 1_555 1_555
C6 C7 1_555 1_555
C7 C8 1_555 1_555
C8 C9 1_555 1_555
C9 C10 1_555 1_555
C10 C5 1_555 1_555
C11 N4 1_555 1_555
H2 C11 1_555 1_555
C12 N3 1_555 1_555
H3 C12 1_555 1_555
H4 C12 1_555 1_555
C13 N4 1_555 1_555
H5 C13 1_555 1_555
C14 C8 1_555 1_555
H6 C14 1_555 1_555
H7 C14 1_555 1_555
C15 N3 1_555 1_555
H8 C15 1_555 1_555
C16 H9 1_555 1_555
H10 C16 1_555 1_555
H11 C16 1_555 1_555
C17 C16 1_555 1_555
C18 C17 1_555 1_555
C19 H12 1_555 1_555
C20 C2 1_555 1_555
H13 C20 1_555 1_555
C21 C23 1_555 1_555
C22 H14 1_555 1_555
C23 C22 1_555 1_555
C24 C23 1_555 1_555
H15 C24 1_555 1_555
C25 C24 1_555 1_555
H16 C25 1_555 1_555
C26 C25 1_555 1_555
C27 C22 1_555 1_555
H17 C27 1_555 1_555
C28 O8 1_555 1_555
C29 C3 1_555 1_555
H18 C29 1_555 1_555
C30 O4 1_555 1_555
C31 C9 1_555 1_555
H19 C31 1_555 1_555
H20 C31 1_555 1_555
H21 C31 1_555 1_555
C32 C10 1_555 1_555
H22 C32 1_555 1_555
H23 C32 1_555 1_555
H24 C32 1_555 1_555
C33 C6 1_555 1_555
H25 C33 1_555 1_555
H26 C33 1_555 1_555
H27 C33 1_555 1_555
C34 C7 1_555 1_555
H28 C34 1_555 1_555
H29 C34 1_555 1_555
H30 C34 1_555 1_555
C35 N2 1_555 1_555
H31 C35 1_555 1_555
C36 N1 1_555 1_555
H32 C36 1_555 1_555
C37 N1 1_555 1_555
H33 C37 1_555 1_555
C38 C18 1_555 1_555
H34 C38 1_555 1_555
H35 C38 1_555 1_555
C39 N5 1_555 1_555
H36 C39 1_555 1_555
C40 N6 1_555 1_555
H37 C40 1_555 1_555
C41 N5 1_555 1_555
H38 C41 1_555 1_555
O11 Cd2 1_555 1_555
C42 C17 1_555 1_555
C43 C42 1_555 1_555
H39 C43 1_555 1_555
H40 C43 1_555 1_555
H41 C43 1_555 1_555
N5B C38B 1_555 1_555
N6B C40B 1_555 1_555
C16B H9B 1_555 1_555
H10B C16B 1_555 1_555
H11B C16B 1_555 1_555
C17B C16B 1_555 1_555
C18B C42 1_555 1_555
C38B C18B 1_555 1_555
H34B C38B 1_555 1_555
H35B C38B 1_555 1_555
C39B N5B 1_555 1_555
H36B C39B 1_555 1_555
C40B C39B 1_555 1_555
H37B C40B 1_555 1_555
C41B N5B 1_555 1_555
H38B C41B 1_555 1_555
C42B C18 1_555 1_555
C43B C42B 1_555 1_555
H39B C43B 1_555 1_555
H40B C43B 1_555 1_555
H41B C43B 1_555 1_555
Cd1B N6B 1_555 1_555
Cd2B O3B 1_555 1_555
O1B C1B 1_555 1_555
O2B C1B 1_555 1_555
O3B C30B 1_555 1_555
O4B Cd2B 1_555 1_555
O5B C21B 1_555 1_555
O6B C21B 1_555 1_555
O7B Cd1B 1_555 1_555
O8B Cd1B 1_555 1_555
N1B Cd1B 1_555 1_555
N2B C14B 1_555 1_555
N3B C11B 1_555 1_555
N4B Cd2B 1_555 1_555
O9B Cd2B 1_555 1_555
O10B Cd1B 1_555 1_555
C1B C2B 1_555 1_555
C2B C3B 1_555 1_555
C3B H1B 1_555 1_555
C4B C19B 1_555 1_555
C5B C6B 1_555 1_555
C6B C7B 1_555 1_555
C7B C8B 1_555 1_555
C8B C9B 1_555 1_555
C9B C10B 1_555 1_555
C10B C5B 1_555 1_555
C11B N4B 1_555 1_555
H2B C11B 1_555 1_555
C12B N3B 1_555 1_555
H3B C12B 1_555 1_555
H4B C12B 1_555 1_555
C13B N4B 1_555 1_555
H5B C13B 1_555 1_555
C14B C8B 1_555 1_555
H6B C14B 1_555 1_555
H7B C14B 1_555 1_555
C15B N3B 1_555 1_555
H8B C15B 1_555 1_555
C19B H12B 1_555 1_555
C20B C2B 1_555 1_555
H13B C20B 1_555 1_555
C21B C23B 1_555 1_555
C22B H14B 1_555 1_555
C23B C22B 1_555 1_555
C24B C23B 1_555 1_555
H15B C24B 1_555 1_555
C25B C24B 1_555 1_555
H16B C25B 1_555 1_555
C26B C25B 1_555 1_555
C27B C22B 1_555 1_555
H17B C27B 1_555 1_555
C28B O7B 1_555 1_555
C29B C3B 1_555 1_555
H18B C29B 1_555 1_555
C30B O4B 1_555 1_555
C31B C9B 1_555 1_555
H19B C31B 1_555 1_555
H20B C31B 1_555 1_555
H21B C31B 1_555 1_555
C32B C10B 1_555 1_555
H22B C32B 1_555 1_555
H23B C32B 1_555 1_555
H24B C32B 1_555 1_555
C33B C6B 1_555 1_555
H25B C33B 1_555 1_555
H26B C33B 1_555 1_555
H27B C33B 1_555 1_555
C34B C7B 1_555 1_555
H28B C34B 1_555 1_555
H29B C34B 1_555 1_555
H30B C34B 1_555 1_555
C35B N2B 1_555 1_555
H31B C35B 1_555 1_555
C36B N1B 1_555 1_555
H32B C36B 1_555 1_555
C37B N1B 1_555 1_555
H33B C37B 1_555 1_555
O11B Cd2B 1_555 1_555
Cd1_2 O1 1_555 1_555
Cd1B_2 O1B 1_555 1_555
Cd2_2 O5 1_555 1_555
Cd2B_2 O5B 1_555 1_555
O1_2 Cd1 1_555 1_555
O1B_2 Cd1B 1_555 1_555
O2_2 Cd1 1_555 1_555
O2B_2 Cd1B 1_555 1_555
O5_2 Cd2 1_555 1_555
O5B_2 Cd2B 1_555 1_555
O6_2 Cd2 1_555 1_555
O6B_2 Cd2B 1_555 1_555
O2 Cd1_2 1_555 1_555
O6 Cd2_2 1_555 1_555
N2 C37 1_555 1_555
N6 C41 1_555 1_555
C4 C29 1_555 1_555
C4 C30 1_555 1_555
C5 C12 1_555 1_555
C13 C15 1_555 1_555
C19 C20 1_555 1_555
C26 C27 1_555 1_555
C26 C28 1_555 1_555
C35 C36 1_555 1_555
C39 C40 1_555 1_555
N6B C41B 1_555 1_555
C17B C18B 1_555 1_555
C17B C42B 1_555 1_555
O2B Cd1B_2 1_555 1_555
O6B Cd2B_2 1_555 1_555
O8B C28B 1_555 1_555
N2B C37B 1_555 1_555
C4B C29B 1_555 1_555
C4B C30B 1_555 1_555
C5B C12B 1_555 1_555
C13B C15B 1_555 1_555
C19B C20B 1_555 1_555
C26B C27B 1_555 1_555
C26B C28B 1_555 1_555
C35B C36B 1_555 1_555

#END
