
#######################################################################
#
#                 Cambridge Crystallographic Data Centre
#                                CCDC 
#
#######################################################################
#
# If this CIF has been generated from an entry in the Cambridge 
# Structural Database, then it will include bibliographic, chemical, 
# crystal, experimental, refinement or atomic coordinate data resulting 
# from the CCDC's data processing and validation procedures.
#
#######################################################################

data_BIRLOF01
_symmetry_cell_setting           monoclinic
_symmetry_space_group_name_H-M   'P 21/n'
_symmetry_Int_Tables_number      14
_space_group_name_Hall           '-P 2yn'
loop_
_symmetry_equiv_pos_site_id
_symmetry_equiv_pos_as_xyz
1 x,y,z
2 1/2-x,1/2+y,1/2-z
3 -x,-y,-z
4 1/2+x,1/2-y,1/2+z
_cell_length_a                   9.2224(7)
_cell_length_b                   18.8786(13)
_cell_length_c                   10.4661(8)
_cell_angle_alpha                90
_cell_angle_beta                 100.366(7)
_cell_angle_gamma                90
_cell_volume                     1792.47
loop_
_atom_site_label
_atom_site_type_symbol
_atom_site_fract_x
_atom_site_fract_y
_atom_site_fract_z
C1 C 0.6776(5) -0.11361(19) 0.3254(4)
H1 H 0.5998 -0.1450 0.3250
C2 C 0.7959(5) -0.1351(2) 0.2702(4)
H2 H 0.7969 -0.1801 0.2342
C3 C 0.9112(5) -0.0899(2) 0.2688(4)
H3 H 0.9913 -0.1035 0.2318
C4 C 0.9066(4) -0.02280(19) 0.3241(3)
H4 H 0.9836 0.0091 0.3250
C5 C 0.7854(4) -0.00488(17) 0.3773(3)
C6 C 0.7632(3) 0.06279(16) 0.4390(3)
C7 C 0.7747(4) 0.17122(17) 0.5164(3)
C8 C 0.7430(4) 0.27959(19) 0.6804(4)
H5 H 0.6399 0.2669 0.6556
H6 H 0.7834 0.2546 0.7599
C9 C 0.7582(4) 0.35854(18) 0.7016(4)
C10 C 0.6815(4) 0.4049(2) 0.6122(4)
H7 H 0.6181 0.3879 0.5394
C11 C 0.7003(4) 0.4766(2) 0.6323(4)
H8 H 0.6495 0.5087 0.5732
C12 C 0.7942(4) 0.50023(19) 0.7398(4)
H9 H 0.8086 0.5488 0.7504
C13 C 0.8469(4) 0.38664(18) 0.8101(3)
H10 H 0.8958 0.3556 0.8723
Cu1 Cu 0.5000 0.0000 0.5000
N1 N 0.6703(3) -0.04996(15) 0.3792(3)
N2 N 0.8663(3) 0.45683(14) 0.8305(3)
N3 N 0.6494(3) 0.07464(13) 0.4955(3)
N4 N 0.8453(3) 0.12348(14) 0.4499(3)
N5 N 0.6542(3) 0.14190(14) 0.5457(3)
N6 N 0.9778(3) 0.13342(15) 0.4021(3)
H11 H 0.9591 0.1581 0.3292
H12 H 1.0386 0.1588 0.4580
S1 S 0.84329(11) 0.25535(5) 0.55193(11)
C1B C 0.3224(5) 0.11361(19) 0.6746(4)
H1B H 0.4002 0.1450 0.6750
C2B C 0.2041(5) 0.1351(2) 0.7298(4)
H2B H 0.2031 0.1801 0.7658
C3B C 0.0888(5) 0.0899(2) 0.7312(4)
H3B H 0.0087 0.1035 0.7682
C4B C 0.0934(4) 0.02280(19) 0.6759(3)
H4B H 0.0164 -0.0091 0.6750
C5B C 0.2146(4) 0.00488(17) 0.6227(3)
C6B C 0.2368(3) -0.06279(16) 0.5610(3)
C7B C 0.2253(4) -0.17122(17) 0.4836(3)
C8B C 0.2570(4) -0.27959(19) 0.3196(4)
H5B H 0.3601 -0.2669 0.3444
H6B H 0.2166 -0.2546 0.2401
C9B C 0.2418(4) -0.35854(18) 0.2984(4)
C10B C 0.3185(4) -0.4049(2) 0.3878(4)
H7B H 0.3819 -0.3879 0.4606
C11B C 0.2997(4) -0.4766(2) 0.3677(4)
H8B H 0.3505 -0.5087 0.4268
C12B C 0.2058(4) -0.50023(19) 0.2602(4)
H9B H 0.1914 -0.5488 0.2496
C13B C 0.1531(4) -0.38664(18) 0.1899(3)
H10B H 0.1042 -0.3556 0.1277
N1B N 0.3297(3) 0.04996(15) 0.6208(3)
N2B N 0.1337(3) -0.45683(14) 0.1695(3)
N3B N 0.3506(3) -0.07464(13) 0.5045(3)
N4B N 0.1547(3) -0.12348(14) 0.5501(3)
N5B N 0.3458(3) -0.14190(14) 0.4543(3)
N6B N 0.0222(3) -0.13342(15) 0.5979(3)
H11B H 0.0409 -0.1581 0.6708
H12B H -0.0386 -0.1588 0.5420
S1B S 0.15671(11) -0.25535(5) 0.44807(11)
Cu1A Cu 0.0000 -0.5000 0.0000
Cu1A_2 Cu 1.0000 0.5000 1.0000
N2A N 0.6337(3) -0.04317(14) 0.6695(3)
N2C N 0.3663(3) 0.04317(14) 0.3305(3)
C14 C 0.1661(5) 0.3741(3) 0.5720(5)
F1 F 0.2377(3) 0.43326(14) 0.6104(3)
F2 F 0.0561(3) 0.38927(17) 0.4766(4)
F3 F 0.1056(3) 0.35223(16) 0.6722(3)
O1 O 0.3571(3) 0.34314(16) 0.4326(3)
O2 O 0.3838(3) 0.29303(17) 0.6496(3)
O3 O 0.1938(3) 0.24976(15) 0.4776(3)
S2 S 0.28871(12) 0.30752(6) 0.52705(11)
loop_
_geom_bond_atom_site_label_1
_geom_bond_atom_site_label_2
_geom_bond_site_symmetry_1
_geom_bond_site_symmetry_2
C1 H1 1_555 1_555
C2 C1 1_555 1_555
H2 C2 1_555 1_555
C3 C2 1_555 1_555
H3 C3 1_555 1_555
C4 C3 1_555 1_555
H4 C4 1_555 1_555
C5 C4 1_555 1_555
C6 C5 1_555 1_555
C7 N4 1_555 1_555
C8 H5 1_555 1_555
H6 C8 1_555 1_555
C9 C8 1_555 1_555
C10 C9 1_555 1_555
H7 C10 1_555 1_555
C11 C10 1_555 1_555
H8 C11 1_555 1_555
C12 C11 1_555 1_555
H9 C12 1_555 1_555
C13 C9 1_555 1_555
H10 C13 1_555 1_555
Cu1 N1 1_555 1_555
N1 C1 1_555 1_555
N2 C12 1_555 1_555
N3 C6 1_555 1_555
N4 C6 1_555 1_555
N5 C7 1_555 1_555
N6 N4 1_555 1_555
H11 N6 1_555 1_555
H12 N6 1_555 1_555
S1 C7 1_555 1_555
C14 F1 1_555 1_555
F2 C14 1_555 1_555
F3 C14 1_555 1_555
O1 S2 1_555 1_555
O2 S2 1_555 1_555
O3 S2 1_555 1_555
S2 C14 1_555 1_555
C1B H1B 1_555 1_555
C2B C1B 1_555 1_555
H2B C2B 1_555 1_555
C3B C2B 1_555 1_555
H3B C3B 1_555 1_555
C4B C3B 1_555 1_555
H4B C4B 1_555 1_555
C5B C4B 1_555 1_555
C6B C5B 1_555 1_555
C7B N4B 1_555 1_555
C8B H5B 1_555 1_555
H6B C8B 1_555 1_555
C9B C8B 1_555 1_555
C10B C9B 1_555 1_555
H7B C10B 1_555 1_555
C11B C10B 1_555 1_555
H8B C11B 1_555 1_555
C12B C11B 1_555 1_555
H9B C12B 1_555 1_555
C13B C9B 1_555 1_555
H10B C13B 1_555 1_555
N1B Cu1 1_555 1_555
N2B C12B 1_555 1_555
N3B Cu1 1_555 1_555
N4B C6B 1_555 1_555
N5B C7B 1_555 1_555
N6B N4B 1_555 1_555
H11B N6B 1_555 1_555
H12B N6B 1_555 1_555
S1B C7B 1_555 1_555
Cu1A N2B 1_555 1_555
Cu1A_2 N2 1_555 1_555
N2A Cu1 1_555 1_555
N2C Cu1 1_555 1_555
C5 N1 1_555 1_555
C8 S1 1_555 1_555
C13 N2 1_555 1_555
Cu1 N3 1_555 1_555
N3 N5 1_555 1_555
C1B N1B 1_555 1_555
C5B N1B 1_555 1_555
C6B N3B 1_555 1_555
C8B S1B 1_555 1_555
C13B N2B 1_555 1_555
N3B N5B 1_555 1_555

#END
