
#######################################################################
#
#                 Cambridge Crystallographic Data Centre
#                                CCDC 
#
#######################################################################
#
# If this CIF has been generated from an entry in the Cambridge 
# Structural Database, then it will include bibliographic, chemical, 
# crystal, experimental, refinement or atomic coordinate data resulting 
# from the CCDC's data processing and validation procedures.
#
#######################################################################

data_BIRMIA
_symmetry_cell_setting           monoclinic
_symmetry_space_group_name_H-M   'P 21/n'
_symmetry_Int_Tables_number      14
_space_group_name_Hall           '-P 2yn'
loop_
_symmetry_equiv_pos_site_id
_symmetry_equiv_pos_as_xyz
1 x,y,z
2 1/2-x,1/2+y,1/2-z
3 -x,-y,-z
4 1/2+x,1/2-y,1/2+z
_cell_length_a                   11.4316(10)
_cell_length_b                   22.867(2)
_cell_length_c                   14.3083(12)
_cell_angle_alpha                90
_cell_angle_beta                 91.096(2)
_cell_angle_gamma                90
_cell_volume                     3739.6
loop_
_atom_site_label
_atom_site_type_symbol
_atom_site_fract_x
_atom_site_fract_y
_atom_site_fract_z
Cd1 Cd 0.0000 0.0000 0.5000
Cd2 Cd 0.28860(4) 0.04793(2) 0.57352(3)
O1 O -0.0050(4) 0.09445(19) 0.5486(3)
O2 O -0.8173(4) 0.45171(19) 0.8858(3)
O3 O 0.3480(4) 0.0379(2) 0.4289(3)
C1 C 0.0770(6) 0.1312(3) 0.5471(4)
C2 C -0.0777(5) 0.2654(3) 0.6439(4)
O4 O 0.1616(4) 0.0112(2) 0.4048(3)
C3 C -0.6810(5) 0.3801(3) 0.8422(4)
O5 O 0.1800(4) 0.1216(2) 0.5235(3)
C4 C 0.5591(6) 0.0914(3) 0.5809(5)
H1 H 0.5570 0.0788 0.5191
O6 O -0.6311(3) 0.47872(18) 0.8819(3)
C5 C 0.4639(6) 0.1070(3) 0.7189(4)
C6 C 0.3966(5) 0.0300(3) 0.2390(5)
H2 H 0.4589 0.0374 0.2801
C7 C -0.4083(6) 0.2808(3) 0.6443(5)
C8 C 0.0141(6) 0.3056(3) 0.6444(4)
H3 H 0.0031 0.3430 0.6683
C9 C -0.1970(5) 0.2803(3) 0.6784(4)
C10 C 0.0525(5) 0.1929(3) 0.5764(4)
C11 C -0.5705(5) 0.3682(3) 0.8078(4)
H4 H -0.5131 0.3971 0.8091
C12 C 0.0983(5) -0.0350(3) -0.0209(5)
N1 N 0.4610(4) 0.0887(2) 0.6290(3)
C13 C 0.2108(6) 0.0111(3) 0.1164(4)
C14 C -0.2931(5) 0.2706(3) 0.6182(4)
H5 H -0.2795 0.2567 0.5583
C15 C 0.2842(5) 0.0220(3) 0.2734(4)
C16 C -0.0073(6) -0.0380(3) -0.0731(4)
H6 H -0.0117 -0.0642 -0.1226
C17 C 0.3582(6) 0.1039(3) 0.7722(4)
C18 C -0.3297(6) 0.3129(3) 0.7936(5)
H7 H -0.3432 0.3283 0.8526
N2 N 0.2607(5) 0.0824(2) 0.7279(4)
C19 C -0.5456(5) 0.3128(3) 0.7711(4)
C20 C -0.7107(6) 0.4404(3) 0.8729(4)
C21 C 0.5653(6) 0.1292(3) 0.7605(5)
C22 C 0.1930(5) 0.0129(3) 0.2130(4)
H8 H 0.1181 0.0079 0.2360
C23 C 0.6632(6) 0.1117(3) 0.6173(6)
H9 H 0.7299 0.1130 0.5812
C24 C 0.4156(6) 0.0268(3) 0.1440(5)
H10 H 0.4908 0.0307 0.1212
C25 C -0.0559(5) 0.2089(3) 0.6103(4)
H11 H -0.1157 0.1814 0.6108
C26 C 0.1216(6) 0.2899(3) 0.6094(5)
H12 H 0.1817 0.3173 0.6086
C27 C -0.7642(5) 0.3351(3) 0.8455(5)
H13 H -0.8379 0.3424 0.8695
C28 C -0.2142(5) 0.3022(3) 0.7686(4)
C29 C 0.1411(5) 0.2345(3) 0.5757(5)
H14 H 0.2139 0.2248 0.5523
C30 C 0.3234(6) 0.0179(3) 0.0841(5)
H15 H 0.3362 0.0164 0.0201
C31 C 0.1060(6) 0.0038(3) 0.0550(4)
C32 C 0.2610(6) 0.0239(3) 0.3775(4)
C33 C -0.4266(5) 0.3018(3) 0.7345(5)
C34 C -0.6303(6) 0.2700(3) 0.7749(5)
H16 H -0.6146 0.2331 0.7506
C35 C -0.1144(6) 0.3120(4) 0.8412(5)
H17 H -0.0684 0.3451 0.8230
H18 H -0.0657 0.2778 0.8443
H19 H -0.1471 0.3192 0.9014
C36 C -0.7365(6) 0.2803(3) 0.8133(5)
H20 H -0.7906 0.2501 0.8178
C37 C -0.5050(6) 0.2684(4) 0.5748(5)
H21 H -0.5064 0.2273 0.5608
H22 H -0.4919 0.2901 0.5185
H23 H -0.5785 0.2797 0.6006
C38 C 0.3559(8) 0.1248(3) 0.8646(5)
C39 C 0.1602(6) 0.0813(3) 0.7746(5)
H24 H 0.0934 0.0662 0.7454
C40 C 0.1535(8) 0.1022(4) 0.8659(6)
H25 H 0.0822 0.1016 0.8961
C41 C 0.5605(9) 0.1478(4) 0.8564(6)
H26 H 0.6282 0.1617 0.8859
C42 C 0.4614(9) 0.1458(4) 0.9040(6)
H27 H 0.4621 0.1587 0.9656
C43 C 0.1987(6) -0.0754(4) -0.0481(5)
H28 H 0.2600 -0.0527 -0.0752
H29 H 0.1706 -0.1037 -0.0928
H30 H 0.2284 -0.0953 0.0065
C44 C 0.6661(6) 0.1301(3) 0.7079(6)
H31 H 0.7360 0.1433 0.7346
C45 C 0.2494(9) 0.1232(4) 0.9107(5)
H32 H 0.2446 0.1365 0.9719
O3B O -0.3480(4) -0.0379(2) -0.4289(3)
O4B O -0.1616(4) -0.0112(2) -0.4048(3)
C6B C -0.3966(5) -0.0300(3) -0.2390(5)
H2B H -0.4589 -0.0374 -0.2801
C12B C -0.0983(5) 0.0350(3) 0.0209(5)
C13B C -0.2108(6) -0.0111(3) -0.1164(4)
C15B C -0.2842(5) -0.0220(3) -0.2734(4)
C16B C 0.0073(6) 0.0380(3) 0.0731(4)
H6B H 0.0117 0.0642 0.1226
C22B C -0.1930(5) -0.0129(3) -0.2130(4)
H8B H -0.1181 -0.0079 -0.2360
C24B C -0.4156(6) -0.0268(3) -0.1440(5)
H10B H -0.4908 -0.0307 -0.1212
C30B C -0.3234(6) -0.0179(3) -0.0841(5)
H15B H -0.3362 -0.0164 -0.0201
C31B C -0.1060(6) -0.0038(3) -0.0550(4)
C32B C -0.2610(6) -0.0239(3) -0.3775(4)
C43B C -0.1987(6) 0.0754(4) 0.0481(5)
H28B H -0.2600 0.0527 0.0752
H29B H -0.1706 0.1037 0.0928
H30B H -0.2284 0.0953 -0.0065
Cd2B Cd -0.28860(4) -0.04793(2) -0.57352(3)
O1B O 0.0050(4) -0.09445(19) -0.5486(3)
O2B O 0.8173(4) -0.45171(19) -0.8858(3)
C1B C -0.0770(6) -0.1312(3) -0.5471(4)
C2B C 0.0777(5) -0.2654(3) -0.6439(4)
C3B C 0.6810(5) -0.3801(3) -0.8422(4)
O5B O -0.1800(4) -0.1216(2) -0.5235(3)
C4B C -0.5591(6) -0.0914(3) -0.5809(5)
H1B H -0.5570 -0.0788 -0.5191
O6B O 0.6311(3) -0.47872(18) -0.8819(3)
C5B C -0.4639(6) -0.1070(3) -0.7189(4)
C7B C 0.4083(6) -0.2808(3) -0.6443(5)
C8B C -0.0141(6) -0.3056(3) -0.6444(4)
H3B H -0.0031 -0.3430 -0.6683
C9B C 0.1970(5) -0.2803(3) -0.6784(4)
C10B C -0.0525(5) -0.1929(3) -0.5764(4)
C11B C 0.5705(5) -0.3682(3) -0.8078(4)
H4B H 0.5131 -0.3971 -0.8091
N1B N -0.4610(4) -0.0887(2) -0.6290(3)
C14B C 0.2931(5) -0.2706(3) -0.6182(4)
H5B H 0.2795 -0.2567 -0.5583
C17B C -0.3582(6) -0.1039(3) -0.7722(4)
C18B C 0.3297(6) -0.3129(3) -0.7936(5)
H7B H 0.3432 -0.3283 -0.8526
N2B N -0.2607(5) -0.0824(2) -0.7279(4)
C19B C 0.5456(5) -0.3128(3) -0.7711(4)
C20B C 0.7107(6) -0.4404(3) -0.8729(4)
C21B C -0.5653(6) -0.1292(3) -0.7605(5)
C23B C -0.6632(6) -0.1117(3) -0.6173(6)
H9B H -0.7299 -0.1130 -0.5812
C25B C 0.0559(5) -0.2089(3) -0.6103(4)
H11B H 0.1157 -0.1814 -0.6108
C26B C -0.1216(6) -0.2899(3) -0.6094(5)
H12B H -0.1817 -0.3173 -0.6086
C27B C 0.7642(5) -0.3351(3) -0.8455(5)
H13B H 0.8379 -0.3424 -0.8695
C28B C 0.2142(5) -0.3022(3) -0.7686(4)
C29B C -0.1411(5) -0.2345(3) -0.5757(5)
H14B H -0.2139 -0.2248 -0.5523
C33B C 0.4266(5) -0.3018(3) -0.7345(5)
C34B C 0.6303(6) -0.2700(3) -0.7749(5)
H16B H 0.6146 -0.2331 -0.7506
C35B C 0.1144(6) -0.3120(4) -0.8412(5)
H17B H 0.0684 -0.3451 -0.8230
H18B H 0.0657 -0.2778 -0.8443
H19B H 0.1471 -0.3192 -0.9014
C36B C 0.7365(6) -0.2803(3) -0.8133(5)
H20B H 0.7906 -0.2501 -0.8178
C37B C 0.5050(6) -0.2684(4) -0.5748(5)
H21B H 0.5064 -0.2273 -0.5608
H22B H 0.4919 -0.2901 -0.5185
H23B H 0.5785 -0.2797 -0.6006
C38B C -0.3559(8) -0.1248(3) -0.8646(5)
C39B C -0.1602(6) -0.0813(3) -0.7746(5)
H24B H -0.0934 -0.0662 -0.7454
C40B C -0.1535(8) -0.1022(4) -0.8659(6)
H25B H -0.0822 -0.1016 -0.8961
C41B C -0.5605(9) -0.1478(4) -0.8564(6)
H26B H -0.6282 -0.1617 -0.8859
C42B C -0.4614(9) -0.1458(4) -0.9040(6)
H27B H -0.4621 -0.1587 -0.9656
C44B C -0.6661(6) -0.1301(3) -0.7079(6)
H31B H -0.7360 -0.1433 -0.7346
C45B C -0.2494(9) -0.1232(4) -0.9107(5)
H32B H -0.2446 -0.1365 -0.9719
Cd1_2 Cd 0.0000 0.0000 -0.5000
Cd1A Cd -0.5000 0.5000 1.0000
Cd1A_2 Cd 0.5000 -0.5000 -1.0000
Cd2A Cd -0.78860(4) 0.54793(2) 0.92648(3)
Cd2C Cd 0.78860(4) -0.54793(2) -0.92648(3)
O1B_2 O 0.0050(4) -0.09445(19) 0.4514(3)
O2A O 0.3173(4) -0.04829(19) 0.6142(3)
O2C O -0.3173(4) 0.04829(19) -0.6142(3)
O4B_2 O -0.1616(4) -0.0112(2) 0.5952(3)
O6A O 0.1311(3) -0.02128(18) 0.6181(3)
O6C O -0.1311(3) 0.02128(18) -0.6181(3)
O6C_2 O -0.1311(3) 0.02128(18) 0.3819(3)
loop_
_geom_bond_atom_site_label_1
_geom_bond_atom_site_label_2
_geom_bond_site_symmetry_1
_geom_bond_site_symmetry_2
Cd1 O1 1_555 1_555
Cd2 O3 1_555 1_555
O1 C1 1_555 1_555
O2 C20 1_555 1_555
O3 C32 1_555 1_555
C1 O5 1_555 1_555
C2 C8 1_555 1_555
O4 Cd1 1_555 1_555
C3 C11 1_555 1_555
O5 Cd2 1_555 1_555
C4 H1 1_555 1_555
O6 C20 1_555 1_555
C5 N1 1_555 1_555
C6 H2 1_555 1_555
C7 C14 1_555 1_555
C8 H3 1_555 1_555
C9 C2 1_555 1_555
C10 C1 1_555 1_555
C11 H4 1_555 1_555
C12 C16 1_555 1_555
N1 Cd2 1_555 1_555
C13 C22 1_555 1_555
C14 C9 1_555 1_555
H5 C14 1_555 1_555
C15 C6 1_555 1_555
C16 H6 1_555 1_555
C17 C5 1_555 1_555
C18 H7 1_555 1_555
N2 Cd2 1_555 1_555
C19 C11 1_555 1_555
C20 C3 1_555 1_555
C21 C5 1_555 1_555
C22 C15 1_555 1_555
H8 C22 1_555 1_555
C23 C4 1_555 1_555
H9 C23 1_555 1_555
C24 C6 1_555 1_555
H10 C24 1_555 1_555
C25 C2 1_555 1_555
H11 C25 1_555 1_555
C26 C8 1_555 1_555
H12 C26 1_555 1_555
C27 C3 1_555 1_555
H13 C27 1_555 1_555
C28 C9 1_555 1_555
C29 C10 1_555 1_555
H14 C29 1_555 1_555
C30 C13 1_555 1_555
H15 C30 1_555 1_555
C31 C12 1_555 1_555
C32 O4 1_555 1_555
C33 C7 1_555 1_555
C34 C19 1_555 1_555
H16 C34 1_555 1_555
C35 C28 1_555 1_555
H17 C35 1_555 1_555
H18 C35 1_555 1_555
H19 C35 1_555 1_555
C36 C27 1_555 1_555
H20 C36 1_555 1_555
C37 C7 1_555 1_555
H21 C37 1_555 1_555
H22 C37 1_555 1_555
H23 C37 1_555 1_555
C38 C17 1_555 1_555
C39 N2 1_555 1_555
H24 C39 1_555 1_555
C40 C39 1_555 1_555
H25 C40 1_555 1_555
C41 C21 1_555 1_555
H26 C41 1_555 1_555
C42 C38 1_555 1_555
H27 C42 1_555 1_555
C43 C12 1_555 1_555
H28 C43 1_555 1_555
H29 C43 1_555 1_555
H30 C43 1_555 1_555
C44 C21 1_555 1_555
H31 C44 1_555 1_555
C45 C38 1_555 1_555
H32 C45 1_555 1_555
O3B C32B 1_555 1_555
O4B C32B 1_555 1_555
C6B H2B 1_555 1_555
C12B C16B 1_555 1_555
C13B C22B 1_555 1_555
C15B C6B 1_555 1_555
C16B C31 1_555 1_555
H6B C16B 1_555 1_555
C22B C15B 1_555 1_555
H8B C22B 1_555 1_555
C24B C6B 1_555 1_555
H10B C24B 1_555 1_555
C30B C13B 1_555 1_555
H15B C30B 1_555 1_555
C31B C16 1_555 1_555
C32B C15B 1_555 1_555
C43B C12B 1_555 1_555
H28B C43B 1_555 1_555
H29B C43B 1_555 1_555
H30B C43B 1_555 1_555
Cd2B O3B 1_555 1_555
O1B C1B 1_555 1_555
O2B C20B 1_555 1_555
C1B O5B 1_555 1_555
C2B C8B 1_555 1_555
C3B C11B 1_555 1_555
O5B Cd2B 1_555 1_555
C4B H1B 1_555 1_555
O6B C20B 1_555 1_555
C5B N1B 1_555 1_555
C7B C14B 1_555 1_555
C8B H3B 1_555 1_555
C9B C2B 1_555 1_555
C10B C1B 1_555 1_555
C11B H4B 1_555 1_555
N1B Cd2B 1_555 1_555
C14B C9B 1_555 1_555
H5B C14B 1_555 1_555
C17B C5B 1_555 1_555
C18B H7B 1_555 1_555
N2B Cd2B 1_555 1_555
C19B C11B 1_555 1_555
C20B C3B 1_555 1_555
C21B C5B 1_555 1_555
C23B C4B 1_555 1_555
H9B C23B 1_555 1_555
C25B C2B 1_555 1_555
H11B C25B 1_555 1_555
C26B C8B 1_555 1_555
H12B C26B 1_555 1_555
C27B C3B 1_555 1_555
H13B C27B 1_555 1_555
C28B C9B 1_555 1_555
C29B C10B 1_555 1_555
H14B C29B 1_555 1_555
C33B C7B 1_555 1_555
C34B C19B 1_555 1_555
H16B C34B 1_555 1_555
C35B C28B 1_555 1_555
H17B C35B 1_555 1_555
H18B C35B 1_555 1_555
H19B C35B 1_555 1_555
C36B C27B 1_555 1_555
H20B C36B 1_555 1_555
C37B C7B 1_555 1_555
H21B C37B 1_555 1_555
H22B C37B 1_555 1_555
H23B C37B 1_555 1_555
C38B C17B 1_555 1_555
C39B N2B 1_555 1_555
H24B C39B 1_555 1_555
C40B C39B 1_555 1_555
H25B C40B 1_555 1_555
C41B C21B 1_555 1_555
H26B C41B 1_555 1_555
C42B C38B 1_555 1_555
H27B C42B 1_555 1_555
C44B C21B 1_555 1_555
H31B C44B 1_555 1_555
C45B C38B 1_555 1_555
H32B C45B 1_555 1_555
Cd1_2 O4B 1_555 1_555
Cd1A O6 1_555 1_555
Cd1A_2 O6B 1_555 1_555
Cd2A O2 1_555 1_555
Cd2C O2B 1_555 1_555
O1B_2 Cd1 1_555 1_555
O2A Cd2 1_555 1_555
O2C Cd2B 1_555 1_555
O4B_2 Cd1 1_555 1_555
O6A Cd1 1_555 1_555
O6C Cd2B 1_555 1_555
O6C_2 Cd1 1_555 1_555
Cd2 O6A 1_555 1_555
C4 N1 1_555 1_555
O6 Cd2A 1_555 1_555
C10 C25 1_555 1_555
C13 C31 1_555 1_555
C15 C32 1_555 1_555
C17 N2 1_555 1_555
C18 C28 1_555 1_555
C18 C33 1_555 1_555
C19 C33 1_555 1_555
C23 C44 1_555 1_555
C24 C30 1_555 1_555
C26 C29 1_555 1_555
C34 C36 1_555 1_555
C40 C45 1_555 1_555
C41 C42 1_555 1_555
C12B C31B 1_555 1_555
C13B C31B 1_555 1_555
C24B C30B 1_555 1_555
O1B Cd1_2 1_555 1_555
C4B N1B 1_555 1_555
O6B Cd2C 1_555 1_555
C10B C25B 1_555 1_555
C17B N2B 1_555 1_555
C18B C28B 1_555 1_555
C18B C33B 1_555 1_555
C19B C33B 1_555 1_555
C23B C44B 1_555 1_555
C26B C29B 1_555 1_555
C34B C36B 1_555 1_555
C40B C45B 1_555 1_555
C41B C42B 1_555 1_555
Cd1_2 O6C 1_555 1_555

#END
