
#######################################################################
#
#                 Cambridge Crystallographic Data Centre
#                                CCDC 
#
#######################################################################
#
# If this CIF has been generated from an entry in the Cambridge 
# Structural Database, then it will include bibliographic, chemical, 
# crystal, experimental, refinement or atomic coordinate data resulting 
# from the CCDC's data processing and validation procedures.
#
#######################################################################

data_BIRMOG
_symmetry_cell_setting           monoclinic
_symmetry_space_group_name_H-M   'P 21/n'
_symmetry_Int_Tables_number      14
_space_group_name_Hall           '-P 2yn'
loop_
_symmetry_equiv_pos_site_id
_symmetry_equiv_pos_as_xyz
1 x,y,z
2 1/2-x,1/2+y,1/2-z
3 -x,-y,-z
4 1/2+x,1/2-y,1/2+z
_cell_length_a                   11.3771(14)
_cell_length_b                   22.530(3)
_cell_length_c                   14.3009(17)
_cell_angle_alpha                90
_cell_angle_beta                 91.055(2)
_cell_angle_gamma                90
_cell_volume                     3665.07
loop_
_atom_site_label
_atom_site_type_symbol
_atom_site_fract_x
_atom_site_fract_y
_atom_site_fract_z
Mn1 Mn 0.5000 0.0000 1.0000
Mn2 Mn 0.78317(4) -0.04950(2) 1.07462(3)
O1 O 0.8315(2) -0.03526(11) 0.93733(16)
O2 O 0.8204(2) 0.04258(10) 1.11693(18)
O3 O 0.00403(19) 0.40661(10) 1.45476(16)
O4 O -0.1825(2) 0.37861(10) 1.46905(18)
N1 N 0.9538(2) -0.08690(12) 1.12526(19)
O5 O 0.6442(2) -0.01369(11) 0.90462(16)
O6 O 0.63352(19) 0.01869(10) 1.10910(15)
C1 C 0.6855(3) 0.11734(14) 1.1560(2)
C2 C -0.0490(3) 0.30638(14) 1.4249(2)
C3 C -0.0767(3) 0.36890(15) 1.4522(2)
C4 C 0.7153(3) 0.05654(15) 1.1245(2)
C5 C 0.5750(3) 0.12977(14) 1.1898(2)
H1 H 0.5170 0.1007 1.1876
C6 C 0.5498(3) 0.18527(15) 1.2270(2)
C7 C 0.7065(3) -0.01190(16) 0.6192(2)
N2 N 0.7562(3) -0.07998(13) 1.2257(2)
C8 C -0.0065(3) 0.19298(15) 1.3587(2)
H2 H 0.0064 0.1550 1.3356
C9 C 0.7478(3) -0.02383(15) 0.8822(2)
C10 C 0.4308(3) 0.19739(15) 1.2646(2)
C11 C 0.0830(3) 0.23463(14) 1.3573(2)
C12 C 1.0499(3) -0.08941(15) 1.0750(3)
H3 H 1.0464 -0.0767 1.0131
C13 C 0.6862(3) -0.01344(15) 0.7156(2)
H4 H 0.6101 -0.0081 0.7366
C14 C 0.2013(3) 0.22015(14) 1.3217(2)
C15 C 0.8528(3) -0.10273(15) 1.2685(2)
C16 C 0.7752(3) -0.02256(14) 0.7796(2)
C17 C 0.8907(3) -0.02969(15) 0.7494(3)
H5 H 0.9519 -0.0354 0.7925
C18 C 0.0600(3) 0.29121(14) 1.3927(2)
H6 H 0.1200 0.3193 1.3946
C19 C 0.3336(3) 0.18763(16) 1.2058(3)
H7 H 0.3463 0.1728 1.1461
C20 C 0.9593(3) -0.10600(14) 1.2137(3)
C21 C 0.5039(3) -0.03835(17) 0.5718(3)
H8 H 0.5065 -0.0652 0.6212
C22 C 0.4007(3) -0.03436(17) 0.5199(3)
C23 C 0.6042(3) -0.00496(16) 0.5553(2)
C24 C 0.4125(3) 0.21900(16) 1.3540(3)
C25 C 0.2983(3) 0.22943(15) 1.3806(3)
H9 H 0.2856 0.2433 1.4408
C26 C -0.1362(3) 0.26351(15) 1.4257(3)
H10 H -0.2102 0.2729 1.4480
C27 C 0.8212(3) -0.01911(17) 0.5913(3)
H11 H 0.8375 -0.0178 0.5279
C28 C 0.9122(3) -0.02816(17) 0.6544(2)
H12 H 0.9883 -0.0333 0.6333
C29 C 0.7702(3) 0.16132(16) 1.1548(3)
H13 H 0.8445 0.1531 1.1319
C30 C -0.1142(3) 0.20742(16) 1.3941(3)
H14 H -0.1728 0.1787 1.3965
C31 C 0.2196(3) 0.19881(16) 1.2317(3)
C32 C 0.6363(3) 0.22843(16) 1.2241(3)
H15 H 0.6204 0.2660 1.2475
C33 C 1.0631(4) -0.12870(16) 1.2549(3)
C34 C 0.7445(3) 0.21738(17) 1.1877(3)
H16 H 0.8004 0.2474 1.1852
C35 C 0.8544(4) -0.12371(17) 1.3598(3)
C36 C 0.1207(3) 0.1893(2) 1.1601(3)
H17 H 0.0815 0.1525 1.1729
H18 H 0.0655 0.2214 1.1638
H19 H 0.1527 0.1879 1.0985
C37 C 1.1571(3) -0.11059(17) 1.1118(3)
H20 H 1.2237 -0.1111 1.0750
C38 C 0.6576(4) -0.0788(2) 1.2737(3)
H21 H 0.5908 -0.0630 1.2448
C39 C 0.5106(4) 0.2305(2) 1.4237(3)
H22 H 0.5700 0.2006 1.4176
H23 H 0.4801 0.2294 1.4859
H24 H 0.5441 0.2689 1.4122
C40 C 0.6483(5) -0.0997(2) 1.3639(3)
H25 H 0.5765 -0.0991 1.3940
C41 C 0.7455(5) -0.12104(19) 1.4076(3)
H26 H 0.7415 -0.1341 1.4692
C42 C 1.0596(5) -0.1486(2) 1.3499(3)
H27 H 1.1279 -0.1633 1.3781
C43 C 0.2982(4) -0.0744(2) 0.5459(3)
H28 H 0.2416 -0.0519 0.5800
H29 H 0.3267 -0.1066 0.5842
H30 H 0.2618 -0.0900 0.4900
C44 C 1.1629(4) -0.13021(17) 1.2010(3)
H31 H 1.2334 -0.1446 1.2260
C45 C 0.9611(5) -0.1466(2) 1.3994(3)
H32 H 0.9622 -0.1604 1.4607
O1B O 0.1685(2) 0.03526(11) 0.06267(16)
C7B C 0.2935(3) 0.01190(16) 0.3808(2)
C9B C 0.2522(3) 0.02383(15) 0.1178(2)
C13B C 0.3138(3) 0.01344(15) 0.2844(2)
H4B H 0.3899 0.0081 0.2634
C16B C 0.2248(3) 0.02256(14) 0.2204(2)
C17B C 0.1093(3) 0.02969(15) 0.2506(3)
H5B H 0.0481 0.0354 0.2075
C21B C 0.4961(3) 0.03835(17) 0.4282(3)
H8B H 0.4935 0.0652 0.3788
C22B C 0.5993(3) 0.03436(17) 0.4801(3)
C23B C 0.3958(3) 0.00496(16) 0.4447(2)
C27B C 0.1788(3) 0.01911(17) 0.4087(3)
H11B H 0.1625 0.0178 0.4721
C28B C 0.0878(3) 0.02816(17) 0.3456(2)
H12B H 0.0117 0.0333 0.3667
C43B C 0.7018(4) 0.0744(2) 0.4541(3)
H28B H 0.7584 0.0519 0.4200
H29B H 0.6733 0.1066 0.4158
H30B H 0.7382 0.0900 0.5100
O5B O 0.3558(2) 0.01369(11) 0.09538(16)
Mn2B Mn 0.21683(4) 0.04950(2) -0.07462(3)
O2B O 0.1796(2) -0.04258(10) -0.11693(18)
O3B O 0.99597(19) -0.40661(10) -0.45476(16)
O4B O 1.1825(2) -0.37861(10) -0.46905(18)
N1B N 0.0462(2) 0.08690(12) -0.12526(19)
O6B O 0.36648(19) -0.01869(10) -0.10910(15)
C1B C 0.3145(3) -0.11734(14) -0.1560(2)
C2B C 1.0490(3) -0.30638(14) -0.4249(2)
C3B C 1.0767(3) -0.36890(15) -0.4522(2)
C4B C 0.2847(3) -0.05654(15) -0.1245(2)
C5B C 0.4250(3) -0.12977(14) -0.1898(2)
H1B H 0.4830 -0.1007 -0.1876
C6B C 0.4502(3) -0.18527(15) -0.2270(2)
N2B N 0.2438(3) 0.07998(13) -0.2257(2)
C8B C 1.0065(3) -0.19298(15) -0.3587(2)
H2B H 0.9936 -0.1550 -0.3356
C10B C 0.5692(3) -0.19739(15) -0.2646(2)
C11B C 0.9170(3) -0.23463(14) -0.3573(2)
C12B C -0.0499(3) 0.08941(15) -0.0750(3)
H3B H -0.0464 0.0767 -0.0131
C14B C 0.7987(3) -0.22015(14) -0.3217(2)
C15B C 0.1472(3) 0.10273(15) -0.2685(2)
C18B C 0.9400(3) -0.29121(14) -0.3927(2)
H6B H 0.8800 -0.3193 -0.3946
C19B C 0.6664(3) -0.18763(16) -0.2058(3)
H7B H 0.6537 -0.1728 -0.1461
C20B C 0.0407(3) 0.10600(14) -0.2137(3)
C24B C 0.5875(3) -0.21900(16) -0.3540(3)
C25B C 0.7017(3) -0.22943(15) -0.3806(3)
H9B H 0.7144 -0.2433 -0.4408
C26B C 1.1362(3) -0.26351(15) -0.4257(3)
H10B H 1.2102 -0.2729 -0.4480
C29B C 0.2298(3) -0.16132(16) -0.1548(3)
H13B H 0.1555 -0.1531 -0.1319
C30B C 1.1142(3) -0.20742(16) -0.3941(3)
H14B H 1.1728 -0.1787 -0.3965
C31B C 0.7804(3) -0.19881(16) -0.2317(3)
C32B C 0.3637(3) -0.22843(16) -0.2241(3)
H15B H 0.3796 -0.2660 -0.2475
C33B C -0.0631(4) 0.12870(16) -0.2549(3)
C34B C 0.2555(3) -0.21738(17) -0.1877(3)
H16B H 0.1996 -0.2474 -0.1852
C35B C 0.1456(4) 0.12371(17) -0.3598(3)
C36B C 0.8793(3) -0.1893(2) -0.1601(3)
H17B H 0.9185 -0.1525 -0.1729
H18B H 0.9345 -0.2214 -0.1638
H19B H 0.8473 -0.1879 -0.0985
C37B C -0.1571(3) 0.11059(17) -0.1118(3)
H20B H -0.2237 0.1111 -0.0750
C38B C 0.3424(4) 0.0788(2) -0.2737(3)
H21B H 0.4092 0.0630 -0.2448
C39B C 0.4894(4) -0.2305(2) -0.4237(3)
H22B H 0.4300 -0.2006 -0.4176
H23B H 0.5199 -0.2294 -0.4859
H24B H 0.4559 -0.2689 -0.4122
C40B C 0.3517(5) 0.0997(2) -0.3639(3)
H25B H 0.4235 0.0991 -0.3940
C41B C 0.2545(5) 0.12104(19) -0.4076(3)
H26B H 0.2585 0.1341 -0.4692
C42B C -0.0596(5) 0.1486(2) -0.3499(3)
H27B H -0.1279 0.1633 -0.3781
C44B C -0.1629(4) 0.13021(17) -0.2010(3)
H31B H -0.2334 0.1446 -0.2260
C45B C 0.0389(5) 0.1466(2) -0.3994(3)
H32B H 0.0378 0.1604 -0.4607
Mn1_2 Mn 0.5000 0.0000 0.0000
Mn1A Mn 0.0000 0.5000 1.5000
Mn1A_2 Mn 1.0000 -0.5000 -0.5000
Mn2A Mn -0.28317(4) 0.45050(2) 1.42538(3)
Mn2C Mn 1.28317(4) -0.45050(2) -0.42538(3)
O3A O 0.49597(19) -0.09339(10) 1.04524(16)
O3C O 0.50403(19) 0.09339(10) 0.95476(16)
O4A O 0.6825(2) -0.12139(10) 1.03095(18)
O4C O 0.3175(2) 0.12139(10) -0.03095(18)
O5B_2 O 0.3558(2) 0.01369(11) 1.09538(16)
O6B_2 O 0.36648(19) -0.01869(10) 0.89090(15)
loop_
_geom_bond_atom_site_label_1
_geom_bond_atom_site_label_2
_geom_bond_site_symmetry_1
_geom_bond_site_symmetry_2
Mn1 O5 1_555 1_555
Mn2 O1 1_555 1_555
O1 C9 1_555 1_555
O2 Mn2 1_555 1_555
O3 C3 1_555 1_555
O4 C3 1_555 1_555
N1 Mn2 1_555 1_555
O5 C9 1_555 1_555
O6 Mn1 1_555 1_555
C1 C4 1_555 1_555
C2 C3 1_555 1_555
C4 O2 1_555 1_555
C5 C1 1_555 1_555
H1 C5 1_555 1_555
C6 C5 1_555 1_555
C7 C13 1_555 1_555
N2 Mn2 1_555 1_555
C8 H2 1_555 1_555
C9 C16 1_555 1_555
C10 C6 1_555 1_555
C11 C8 1_555 1_555
C12 N1 1_555 1_555
H3 C12 1_555 1_555
C13 H4 1_555 1_555
C14 C11 1_555 1_555
C15 N2 1_555 1_555
C16 C13 1_555 1_555
C17 C16 1_555 1_555
H5 C17 1_555 1_555
C18 C2 1_555 1_555
H6 C18 1_555 1_555
C19 C10 1_555 1_555
H7 C19 1_555 1_555
C20 N1 1_555 1_555
C21 H8 1_555 1_555
C22 C21 1_555 1_555
C23 C7 1_555 1_555
C24 C10 1_555 1_555
C25 C14 1_555 1_555
H9 C25 1_555 1_555
C26 C2 1_555 1_555
H10 C26 1_555 1_555
C27 C7 1_555 1_555
H11 C27 1_555 1_555
C28 C17 1_555 1_555
H12 C28 1_555 1_555
C29 C1 1_555 1_555
H13 C29 1_555 1_555
C30 C8 1_555 1_555
H14 C30 1_555 1_555
C31 C14 1_555 1_555
C32 C6 1_555 1_555
H15 C32 1_555 1_555
C33 C20 1_555 1_555
C34 C29 1_555 1_555
H16 C34 1_555 1_555
C35 C15 1_555 1_555
C36 C31 1_555 1_555
H17 C36 1_555 1_555
H18 C36 1_555 1_555
H19 C36 1_555 1_555
C37 C12 1_555 1_555
H20 C37 1_555 1_555
C38 N2 1_555 1_555
H21 C38 1_555 1_555
C39 C24 1_555 1_555
H22 C39 1_555 1_555
H23 C39 1_555 1_555
H24 C39 1_555 1_555
C40 C38 1_555 1_555
H25 C40 1_555 1_555
C41 C35 1_555 1_555
H26 C41 1_555 1_555
C42 C33 1_555 1_555
H27 C42 1_555 1_555
C43 C22 1_555 1_555
H28 C43 1_555 1_555
H29 C43 1_555 1_555
H30 C43 1_555 1_555
C44 C33 1_555 1_555
H31 C44 1_555 1_555
C45 C35 1_555 1_555
H32 C45 1_555 1_555
O1B C9B 1_555 1_555
C7B C13B 1_555 1_555
C9B C16B 1_555 1_555
C13B H4B 1_555 1_555
C16B C13B 1_555 1_555
C17B C16B 1_555 1_555
H5B C17B 1_555 1_555
C21B H8B 1_555 1_555
C22B C23 1_555 1_555
C23B C22 1_555 1_555
C27B C7B 1_555 1_555
H11B C27B 1_555 1_555
C28B C17B 1_555 1_555
H12B C28B 1_555 1_555
C43B C22B 1_555 1_555
H28B C43B 1_555 1_555
H29B C43B 1_555 1_555
H30B C43B 1_555 1_555
O5B C9B 1_555 1_555
Mn2B O1B 1_555 1_555
O2B Mn2B 1_555 1_555
O3B C3B 1_555 1_555
O4B C3B 1_555 1_555
N1B Mn2B 1_555 1_555
O6B Mn2B 1_555 1_555
C1B C4B 1_555 1_555
C2B C3B 1_555 1_555
C4B O2B 1_555 1_555
C5B C1B 1_555 1_555
H1B C5B 1_555 1_555
C6B C5B 1_555 1_555
N2B Mn2B 1_555 1_555
C8B H2B 1_555 1_555
C10B C6B 1_555 1_555
C11B C8B 1_555 1_555
C12B N1B 1_555 1_555
H3B C12B 1_555 1_555
C14B C11B 1_555 1_555
C15B N2B 1_555 1_555
C18B C2B 1_555 1_555
H6B C18B 1_555 1_555
C19B C10B 1_555 1_555
H7B C19B 1_555 1_555
C20B N1B 1_555 1_555
C24B C10B 1_555 1_555
C25B C14B 1_555 1_555
H9B C25B 1_555 1_555
C26B C2B 1_555 1_555
H10B C26B 1_555 1_555
C29B C1B 1_555 1_555
H13B C29B 1_555 1_555
C30B C8B 1_555 1_555
H14B C30B 1_555 1_555
C31B C14B 1_555 1_555
C32B C6B 1_555 1_555
H15B C32B 1_555 1_555
C33B C20B 1_555 1_555
C34B C29B 1_555 1_555
H16B C34B 1_555 1_555
C35B C15B 1_555 1_555
C36B C31B 1_555 1_555
H17B C36B 1_555 1_555
H18B C36B 1_555 1_555
H19B C36B 1_555 1_555
C37B C12B 1_555 1_555
H20B C37B 1_555 1_555
C38B N2B 1_555 1_555
H21B C38B 1_555 1_555
C39B C24B 1_555 1_555
H22B C39B 1_555 1_555
H23B C39B 1_555 1_555
H24B C39B 1_555 1_555
C40B C38B 1_555 1_555
H25B C40B 1_555 1_555
C41B C35B 1_555 1_555
H26B C41B 1_555 1_555
C42B C33B 1_555 1_555
H27B C42B 1_555 1_555
C44B C33B 1_555 1_555
H31B C44B 1_555 1_555
C45B C35B 1_555 1_555
H32B C45B 1_555 1_555
Mn1_2 O5B 1_555 1_555
Mn1A O3 1_555 1_555
Mn1A_2 O3B 1_555 1_555
Mn2A O4 1_555 1_555
Mn2C O4B 1_555 1_555
O3A Mn1 1_555 1_555
O3C Mn1 1_555 1_555
O4A Mn2 1_555 1_555
O4C Mn2B 1_555 1_555
O5B_2 Mn1 1_555 1_555
O6B_2 Mn1 1_555 1_555
Mn2 O6 1_555 1_555
O6 C4 1_555 1_555
C11 C18 1_555 1_555
C15 C20 1_555 1_555
C19 C31 1_555 1_555
C21 C23 1_555 1_555
C24 C25 1_555 1_555
C26 C30 1_555 1_555
C27 C28 1_555 1_555
C32 C34 1_555 1_555
C37 C44 1_555 1_555
C40 C41 1_555 1_555
C42 C45 1_555 1_555
C7B C23B 1_555 1_555
C21B C22B 1_555 1_555
C21B C23B 1_555 1_555
C27B C28B 1_555 1_555
O6B C4B 1_555 1_555
O6B Mn1_2 1_555 1_555
C11B C18B 1_555 1_555
C15B C20B 1_555 1_555
C19B C31B 1_555 1_555
C24B C25B 1_555 1_555
C26B C30B 1_555 1_555
C32B C34B 1_555 1_555
C37B C44B 1_555 1_555
C40B C41B 1_555 1_555
C42B C45B 1_555 1_555

#END
