
#######################################################################
#
#                 Cambridge Crystallographic Data Centre
#                                CCDC 
#
#######################################################################
#
# If this CIF has been generated from an entry in the Cambridge 
# Structural Database, then it will include bibliographic, chemical, 
# crystal, experimental, refinement or atomic coordinate data resulting 
# from the CCDC's data processing and validation procedures.
#
#######################################################################

data_BIVCIS
_symmetry_cell_setting           orthorhombic
_symmetry_space_group_name_H-M   'C c m b'
_symmetry_Int_Tables_number      64
_space_group_name_Hall           '-C 2bc 2bc'
loop_
_symmetry_equiv_pos_site_id
_symmetry_equiv_pos_as_xyz
1 x,y,z
2 1/2+x,1/2+y,z
3 1/2-x,y,1/2+z
4 -x,1/2+y,1/2+z
5 x,-y,z
6 1/2+x,1/2-y,z
7 1/2+x,y,1/2-z
8 x,1/2+y,1/2-z
9 -x,-y,-z
10 1/2-x,1/2-y,-z
11 1/2+x,-y,1/2-z
12 x,1/2-y,1/2-z
13 -x,y,-z
14 1/2-x,1/2+y,-z
15 1/2-x,-y,1/2+z
16 -x,1/2-y,1/2+z
_cell_length_a                   9.606(4)
_cell_length_b                   12.478(4)
_cell_length_c                   10.762(3)
_cell_angle_alpha                90
_cell_angle_beta                 90
_cell_angle_gamma                90
_cell_volume                     1289.97
loop_
_atom_site_label
_atom_site_type_symbol
_atom_site_fract_x
_atom_site_fract_y
_atom_site_fract_z
Cu1 Cu 0.50000 0.00000 0.00000
Cl1 Cl 0.50000 0.17990 0.00000
S1 S 0.25700 0.00000 -0.03990
O1 O 0.04690 0.00000 -0.26450
C1 C 0.21190 0.10820 -0.14590
C2 C 0.06440 0.09560 -0.19190
H1 H 0.27400 0.11600 -0.21400
H2 H 0.20700 0.16200 -0.10200
H3 H 0.04600 0.15700 -0.24000
H4 H 0.00600 0.09200 -0.12200
Cl1H Cl 0.50000 -0.17990 0.00000
S1H S 0.74300 0.00000 0.03990
O1F O 0.54690 0.00000 -0.23550
C1D C 0.21190 -0.10820 -0.14590
C1H C 0.78810 -0.10820 0.14590
C1L C 0.78810 0.10820 0.14590
C2D C 0.06440 -0.09560 -0.19190
H1D H 0.27400 -0.11600 -0.21400
H2D H 0.20700 -0.16200 -0.10200
O1B O 0.45310 0.00000 0.23550
C2H C 0.93560 -0.09560 0.19190
H1H H 0.72600 -0.11600 0.21400
H2H H 0.79300 -0.16200 0.10200
C2L C 0.93560 0.09560 0.19190
H1L H 0.72600 0.11600 0.21400
H2L H 0.79300 0.16200 0.10200
H3D H 0.04600 -0.15700 -0.24000
H4D H 0.00600 -0.09200 -0.12200
Cu1B Cu 0.00000 0.00000 -0.50000
O1H O 0.95310 0.00000 0.26450
H3H H 0.95400 -0.15700 0.24000
H4H H 0.99400 -0.09200 0.12200
H3L H 0.95400 0.15700 0.24000
H4L H 0.99400 0.09200 0.12200
Cu1B_2 Cu 1.00000 0.00000 0.50000
loop_
_geom_bond_atom_site_label_1
_geom_bond_atom_site_label_2
_geom_bond_site_symmetry_1
_geom_bond_site_symmetry_2
Cu1 Cl1 1_555 1_555
S1 Cu1 1_555 1_555
O1 C2 1_555 1_555
C1 S1 1_555 1_555
C2 C1 1_555 1_555
H1 C1 1_555 1_555
H2 C1 1_555 1_555
H3 C2 1_555 1_555
H4 C2 1_555 1_555
Cl1H Cu1 1_555 1_555
S1H Cu1 1_555 1_555
O1F Cu1 1_555 1_555
C1D S1 1_555 1_555
C1H S1H 1_555 1_555
C1L S1H 1_555 1_555
C2D O1 1_555 1_555
H1D C1D 1_555 1_555
H2D C1D 1_555 1_555
O1B Cu1 1_555 1_555
C2H C1H 1_555 1_555
H1H C1H 1_555 1_555
H2H C1H 1_555 1_555
C2L C1L 1_555 1_555
H1L C1L 1_555 1_555
H2L C1L 1_555 1_555
H3D C2D 1_555 1_555
H4D C2D 1_555 1_555
Cu1B O1 1_555 1_555
O1H C2H 1_555 1_555
H3H C2H 1_555 1_555
H4H C2H 1_555 1_555
H3L C2L 1_555 1_555
H4L C2L 1_555 1_555
Cu1B_2 O1H 1_555 1_555
C1D C2D 1_555 1_555
C2L O1H 1_555 1_555

#END
