
#######################################################################
#
#                 Cambridge Crystallographic Data Centre
#                                CCDC 
#
#######################################################################
#
# If this CIF has been generated from an entry in the Cambridge 
# Structural Database, then it will include bibliographic, chemical, 
# crystal, experimental, refinement or atomic coordinate data resulting 
# from the CCDC's data processing and validation procedures.
#
#######################################################################

data_BIVTAC
_symmetry_cell_setting           monoclinic
_symmetry_space_group_name_H-M   'P 21/n'
_symmetry_Int_Tables_number      14
_space_group_name_Hall           '-P 2yn'
loop_
_symmetry_equiv_pos_site_id
_symmetry_equiv_pos_as_xyz
1 x,y,z
2 1/2-x,1/2+y,1/2-z
3 -x,-y,-z
4 1/2+x,1/2-y,1/2+z
_cell_length_a                   11.253(3)
_cell_length_b                   19.832(4)
_cell_length_c                   15.927(3)
_cell_angle_alpha                90
_cell_angle_beta                 102.812(2)
_cell_angle_gamma                90
_cell_volume                     3465.93
loop_
_atom_site_label
_atom_site_type_symbol
_atom_site_fract_x
_atom_site_fract_y
_atom_site_fract_z
Cd1 Cd 0.800875(16) 0.943722(9) 0.408048(11)
S1 S 1.05442(6) 1.01410(3) 0.36489(4)
S2 S -0.08785(7) 0.66466(4) 0.00130(6)
O1 O 0.97306(17) 0.95528(9) 0.34851(12)
O2 O 0.98869(18) 1.07705(10) 0.34520(13)
O3 O 1.13166(18) 1.01072(11) 0.45115(12)
O4 O -0.0965(2) 0.71553(13) 0.06420(16)
O5 O -0.1519(2) 0.60268(12) 0.01279(19)
O6 O 0.0361(2) 0.65123(12) -0.00573(18)
O7 O 0.7573(2) 1.05095(10) 0.35939(16)
H1 H 0.725(3) 1.0763(19) 0.397(2)
H2 H 0.833(2) 1.066(2) 0.355(3)
O8 O 0.61450(19) 0.96462(12) 0.44255(14)
H3 H 0.578(4) 0.9315(13) 0.471(2)
H4 H 0.606(3) 1.0060(10) 0.467(2)
N1 N 0.8908(2) 0.84990(11) 0.47870(14)
N2 N 1.1997(2) 0.62062(12) 0.79463(14)
C1 C 1.0106(3) 0.83815(15) 0.48874(19)
H5 H 1.0529 0.8619 0.4543
C2 C 1.0740(3) 0.79284(14) 0.54732(18)
H6 H 1.1567 0.7859 0.5510
C3 C 1.0142(2) 0.75749(12) 0.60083(16)
C4 C 0.8904(3) 0.76926(14) 0.58954(19)
H7 H 0.8461 0.7464 0.6234
C5 C 0.8323(3) 0.81474(15) 0.5282(2)
H8 H 0.7487 0.8210 0.5213
C6 C 1.2608(3) 0.65819(15) 0.74858(19)
H9 H 1.3452 0.6541 0.7597
C7 C 1.2052(2) 0.70252(14) 0.68567(18)
H10 H 1.2517 0.7275 0.6553
C8 C 1.0789(2) 0.70994(13) 0.66763(16)
C9 C 1.0162(2) 0.67066(14) 0.71578(17)
H11 H 0.9318 0.6738 0.7064
C10 C 1.0784(3) 0.62734(15) 0.77707(18)
H12 H 1.0342 0.6013 0.8080
C11 C 1.1537(2) 1.00967(13) 0.29268(17)
C12 C 1.2762(3) 1.02307(16) 0.3251(2)
H13 H 1.3044 1.0316 0.3835
C13 C 1.3565(3) 1.02375(19) 0.2709(2)
H14 H 1.4386 1.0328 0.2927
C14 C 1.3143(3) 1.01097(18) 0.1850(2)
H15 H 1.3683 1.0114 0.1485
C15 C 1.1928(3) 0.99748(17) 0.1521(2)
H16 H 1.1663 0.9887 0.0936
C16 C 1.1084(2) 0.99669(14) 0.20479(17)
C17 C 0.9783(2) 0.98377(15) 0.16802(17)
H17 H 0.9220 1.0064 0.1925
C18 C 0.9351(3) 0.94275(15) 0.10321(19)
H18 H 0.9920 0.9209 0.0784
C19 C 0.8063(3) 0.92820(15) 0.06642(17)
C20 C 0.7743(3) 0.87939(16) 0.00309(19)
H19 H 0.8355 0.8566 -0.0160
C21 C 0.6540(3) 0.86369(15) -0.03241(19)
H20 H 0.6357 0.8310 -0.0752
C22 C 0.7116(3) 0.96054(15) 0.09440(18)
H21 H 0.7299 0.9933 0.1371
C23 C 0.5923(3) 0.94470(13) 0.05977(18)
H22 H 0.5313 0.9668 0.0799
C24 C 0.5598(2) 0.89630(14) -0.00481(18)
C25 C 0.4300(2) 0.88042(13) -0.04220(18)
C26 C 0.3895(3) 0.86205(16) -0.1280(2)
H23 H 0.4446 0.8606 -0.1637
C27 C 0.2683(3) 0.84590(16) -0.1613(2)
H24 H 0.2431 0.8351 -0.2194
C28 C 0.3431(3) 0.88377(14) 0.00789(19)
H25 H 0.3667 0.8981 0.0648
C29 C 0.2230(3) 0.86640(15) -0.02474(19)
H26 H 0.1676 0.8688 0.0107
C30 C 0.1834(3) 0.84551(14) -0.10946(19)
C31 C 0.0595(3) 0.82070(15) -0.1439(2)
H27 H 0.0256 0.8281 -0.2020
C32 C -0.0079(3) 0.78829(14) -0.0980(2)
H28 H 0.0225 0.7848 -0.0389
C33 C -0.1272(3) 0.75765(15) -0.1344(2)
C34 C -0.2023(3) 0.78475(19) -0.2074(2)
H29 H -0.1805 0.8251 -0.2296
C35 C -0.3103(3) 0.7528(2) -0.2484(3)
H30 H -0.3603 0.7720 -0.2969
C36 C -0.3419(3) 0.6924(2) -0.2161(3)
H31 H -0.4114 0.6696 -0.2446
C37 C -0.2722(3) 0.66597(19) -0.1430(3)
H32 H -0.2952 0.6256 -0.1215
C38 C -0.1664(3) 0.69857(15) -0.0996(2)
Cd1B Cd 1.199125(16) 1.056278(9) 0.591952(11)
Cd1C Cd 1.300875(16) 0.556278(9) 0.908048(11)
O3B O 0.86834(18) 0.98928(11) 0.54885(12)
N2C N 0.6997(2) 0.87938(12) 0.29463(14)
loop_
_geom_bond_atom_site_label_1
_geom_bond_atom_site_label_2
_geom_bond_site_symmetry_1
_geom_bond_site_symmetry_2
Cd1 O1 1_555 1_555
S1 O1 1_555 1_555
S2 O4 1_555 1_555
O2 S1 1_555 1_555
O3 S1 1_555 1_555
O5 S2 1_555 1_555
O6 S2 1_555 1_555
O7 Cd1 1_555 1_555
H1 O7 1_555 1_555
H2 O7 1_555 1_555
O8 Cd1 1_555 1_555
H3 O8 1_555 1_555
H4 O8 1_555 1_555
N1 Cd1 1_555 1_555
N2 C6 1_555 1_555
C1 N1 1_555 1_555
H5 C1 1_555 1_555
C2 C1 1_555 1_555
H6 C2 1_555 1_555
C3 C2 1_555 1_555
C4 C3 1_555 1_555
H7 C4 1_555 1_555
C5 N1 1_555 1_555
H8 C5 1_555 1_555
C6 H9 1_555 1_555
C7 C6 1_555 1_555
H10 C7 1_555 1_555
C8 C3 1_555 1_555
C9 C8 1_555 1_555
H11 C9 1_555 1_555
C10 N2 1_555 1_555
H12 C10 1_555 1_555
C11 S1 1_555 1_555
C12 C11 1_555 1_555
H13 C12 1_555 1_555
C13 C12 1_555 1_555
H14 C13 1_555 1_555
C14 C13 1_555 1_555
H15 C14 1_555 1_555
C15 C14 1_555 1_555
H16 C15 1_555 1_555
C16 C11 1_555 1_555
C17 C16 1_555 1_555
H17 C17 1_555 1_555
C18 C17 1_555 1_555
H18 C18 1_555 1_555
C19 C18 1_555 1_555
C20 C19 1_555 1_555
H19 C20 1_555 1_555
C21 C20 1_555 1_555
H20 C21 1_555 1_555
C22 C19 1_555 1_555
H21 C22 1_555 1_555
C23 C22 1_555 1_555
H22 C23 1_555 1_555
C24 C21 1_555 1_555
C25 C24 1_555 1_555
C26 C25 1_555 1_555
H23 C26 1_555 1_555
C27 C26 1_555 1_555
H24 C27 1_555 1_555
C28 C25 1_555 1_555
H25 C28 1_555 1_555
C29 C28 1_555 1_555
H26 C29 1_555 1_555
C30 C27 1_555 1_555
C31 C30 1_555 1_555
H27 C31 1_555 1_555
C32 C31 1_555 1_555
H28 C32 1_555 1_555
C33 C32 1_555 1_555
C34 C33 1_555 1_555
H29 C34 1_555 1_555
C35 C34 1_555 1_555
H30 C35 1_555 1_555
C36 C35 1_555 1_555
H31 C36 1_555 1_555
C37 C36 1_555 1_555
H32 C37 1_555 1_555
C38 S2 1_555 1_555
Cd1B O3 1_555 1_555
Cd1C N2 1_555 1_555
O3B Cd1 1_555 1_555
N2C Cd1 1_555 1_555
C4 C5 1_555 1_555
C7 C8 1_555 1_555
C9 C10 1_555 1_555
C15 C16 1_555 1_555
C23 C24 1_555 1_555
C29 C30 1_555 1_555
C33 C38 1_555 1_555
C37 C38 1_555 1_555

#END
