
#######################################################################
#
#                 Cambridge Crystallographic Data Centre
#                                CCDC 
#
#######################################################################
#
# If this CIF has been generated from an entry in the Cambridge 
# Structural Database, then it will include bibliographic, chemical, 
# crystal, experimental, refinement or atomic coordinate data resulting 
# from the CCDC's data processing and validation procedures.
#
#######################################################################

data_BIVXOT
_symmetry_cell_setting           monoclinic
_symmetry_space_group_name_H-M   'C 2/m'
_symmetry_Int_Tables_number      12
_space_group_name_Hall           '-C 2y'
loop_
_symmetry_equiv_pos_site_id
_symmetry_equiv_pos_as_xyz
1 x,y,z
2 -x,y,-z
3 1/2+x,1/2+y,z
4 1/2-x,1/2+y,-z
5 -x,-y,-z
6 x,-y,z
7 1/2-x,1/2-y,-z
8 1/2+x,1/2-y,z
_cell_length_a                   8.3271(4)
_cell_length_b                   14.0645(7)
_cell_length_c                   5.3489(3)
_cell_angle_alpha                90
_cell_angle_beta                 111.433(2)
_cell_angle_gamma                90
_cell_volume                     583.123
loop_
_atom_site_label
_atom_site_type_symbol
_atom_site_fract_x
_atom_site_fract_y
_atom_site_fract_z
Pr1 Pr 0.000 0.2739(1) 0.000
P1 P 0.241(1) 0.1148(3) 0.356(1)
O1 O 0.282(1) 0.2003(7) 0.181(2)
O2 O 0.055(1) 0.1294(5) 0.330(2)
O3 O 0.355(1) 0.1134(6) 0.657(2)
C1 C 0.253(3) 0.0000 0.226(4)
O1A O -0.282(1) 0.2003(7) -0.181(2)
O1F O 0.218(1) 0.2997(7) -0.181(2)
O1G O -0.218(1) 0.2997(7) 0.181(2)
O2A O -0.055(1) 0.1294(5) -0.330(2)
O3G O -0.145(1) 0.3866(6) -0.343(2)
O3F O 0.145(1) 0.3866(6) 0.343(2)
Pr1F Pr 0.500 0.2261(1) 0.000
P1E P 0.241(1) -0.1148(3) 0.356(1)
O1E O 0.282(1) -0.2003(7) 0.181(2)
O2E O 0.055(1) -0.1294(5) 0.330(2)
O3E O 0.355(1) -0.1134(6) 0.657(2)
Pr1D Pr 0.000 -0.2739(1) 0.000
Pr1B Pr 0.500 -0.2261(1) 1.000
Pr1B_2 Pr 0.500 -0.2261(1) 0.000
Pr1F_2 Pr 0.500 0.2261(1) 1.000
loop_
_geom_bond_atom_site_label_1
_geom_bond_atom_site_label_2
_geom_bond_site_symmetry_1
_geom_bond_site_symmetry_2
Pr1 O1 1_555 1_555
P1 O1 1_555 1_555
O1 Pr1F 1_555 1_555
O2 Pr1 1_555 1_555
O3 P1 1_555 1_555
C1 P1 1_555 1_555
O1A Pr1 1_555 1_555
O1F Pr1 1_555 1_555
O1G Pr1 1_555 1_555
O2A Pr1 1_555 1_555
O3G Pr1 1_555 1_555
O3F Pr1 1_555 1_555
Pr1F O1F 1_555 1_555
P1E C1 1_555 1_555
O1E P1E 1_555 1_555
O2E P1E 1_555 1_555
O3E P1E 1_555 1_555
Pr1D O1E 1_555 1_555
Pr1B O3E 1_555 1_555
Pr1B_2 O1E 1_555 1_555
Pr1F_2 O3 1_555 1_555
P1 O2 1_555 1_555
O2E Pr1D 1_555 1_555

#END
