
#######################################################################
#
#                 Cambridge Crystallographic Data Centre
#                                CCDC 
#
#######################################################################
#
# If this CIF has been generated from an entry in the Cambridge 
# Structural Database, then it will include bibliographic, chemical, 
# crystal, experimental, refinement or atomic coordinate data resulting 
# from the CCDC's data processing and validation procedures.
#
#######################################################################

data_BIWBIT
_symmetry_cell_setting           monoclinic
_symmetry_space_group_name_H-M   'P 21/c'
_symmetry_Int_Tables_number      14
_space_group_name_Hall           '-P 2ybc'
loop_
_symmetry_equiv_pos_site_id
_symmetry_equiv_pos_as_xyz
1 x,y,z
2 -x,1/2+y,1/2-z
3 -x,-y,-z
4 x,1/2-y,1/2+z
_cell_length_a                   16.8649(2)
_cell_length_b                   8.8057(2)
_cell_length_c                   15.1741(2)
_cell_angle_alpha                90
_cell_angle_beta                 107.8350(10)
_cell_angle_gamma                90
_cell_volume                     2145.17
loop_
_atom_site_label
_atom_site_type_symbol
_atom_site_fract_x
_atom_site_fract_y
_atom_site_fract_z
Zn1 Zn 0.5000 0.0000 0.5000
Zn2 Zn 0.63845(6) -0.42649(11) 0.36677(6)
S1 S 1.34893(12) 0.0971(2) 0.76180(14)
O1 O 0.6901(3) -0.2642(6) 0.4642(4)
O2 O 0.5766(3) -0.1547(6) 0.4750(4)
O3 O 0.5981(3) 0.0940(7) 0.5931(4)
O4 O 1.3599(3) 0.2610(7) 0.7516(4)
O5 O 1.3935(3) 0.0450(7) 0.8552(4)
O6 O 1.3682(4) 0.0088(7) 0.6905(4)
N1 N 0.9367(5) 0.0244(9) 0.6374(6)
N2 N 0.9842(4) 0.0988(9) 0.7032(6)
N3 N 0.7607(5) -0.5063(8) 0.3870(5)
C1 C 0.6547(5) -0.1603(9) 0.4938(5)
C2 C 0.7078(5) -0.0407(10) 0.5545(6)
C3 C 0.6764(5) 0.0758(9) 0.5981(5)
C4 C 0.7358(5) 0.1812(10) 0.6526(6)
H1 H 0.7159 0.2615 0.6796
C5 C 0.8185(5) 0.1721(9) 0.6675(6)
H2 H 0.8544 0.2437 0.7040
C6 C 0.8504(5) 0.0480(10) 0.6253(6)
C7 C 0.7949(5) -0.0489(10) 0.5688(5)
H3 H 0.8149 -0.1240 0.5380
C8 C 1.0707(5) 0.0776(11) 0.7134(6)
C9 C 1.1243(5) 0.1146(11) 0.8006(6)
H4 H 1.1026 0.1416 0.8478
C10 C 1.2098(5) 0.1115(11) 0.8175(6)
H5 H 1.2456 0.1339 0.8760
C11 C 1.2412(5) 0.0743(8) 0.7452(5)
C12 C 1.1863(6) 0.0338(14) 0.6600(6)
H6 H 1.2076 0.0044 0.6129
C13 C 1.1037(5) 0.0355(13) 0.6433(6)
H7 H 1.0685 0.0087 0.5852
C14 C 0.8131(6) -0.4410(12) 0.3480(8)
H8 H 0.7934 -0.3607 0.3073
C15 C 0.8924(7) -0.4840(13) 0.3638(10)
H9 H 0.9262 -0.4324 0.3356
C16 C 0.9232(7) -0.6019(16) 0.4205(8)
H10 H 0.9786 -0.6305 0.4330
C17 C 0.8731(8) -0.678(2) 0.4588(11)
H11 H 0.8918 -0.7624 0.4961
C18 C 0.7904(8) -0.6231(16) 0.4400(10)
H12 H 0.7552 -0.6734 0.4669
H13 H 0.593(9) -0.651(18) 0.451(11)
H14 H 0.562(9) -0.652(18) 0.264(11)
H15 H 0.516(9) -0.174(19) 0.639(10)
H16 H 0.629(10) -0.535(19) 0.509(11)
H17 H 0.603(9) -0.575(16) 0.215(11)
H18 H 0.438(9) -0.124(17) 0.633(10)
O7 O 0.6154(4) -0.5742(8) 0.4691(5)
O8 O 0.5903(5) -0.5926(7) 0.2667(5)
O9 O 0.5174(3) -0.3412(7) 0.3374(4)
O10 O 0.4763(4) -0.1552(8) 0.6140(4)
Zn2B Zn 0.36155(6) 0.42649(11) 0.63323(6)
Zn2B_2 Zn 1.36155(6) 0.42649(11) 0.63323(6)
Zn2_2 Zn -0.36155(6) -0.42649(11) 0.36677(6)
S1B S -0.34893(12) -0.0971(2) 0.23820(14)
O1B O 0.3099(3) 0.2642(6) 0.5358(4)
O2B O 0.4234(3) 0.1547(6) 0.5250(4)
O3B O 0.4019(3) -0.0940(7) 0.4069(4)
O4B O -0.3599(3) -0.2610(7) 0.2484(4)
O4B_2 O 0.6401(3) -0.2610(7) 0.2484(4)
O4_2 O 0.3599(3) 0.2610(7) 0.7516(4)
O5B O -0.3935(3) -0.0450(7) 0.1448(4)
O6B O -0.3682(4) -0.0088(7) 0.3095(4)
N1B N 0.0633(5) -0.0244(9) 0.3626(6)
N2B N 0.0158(4) -0.0988(9) 0.2968(6)
N3B N 0.2393(5) 0.5063(8) 0.6130(5)
C1B C 0.3453(5) 0.1603(9) 0.5062(5)
C2B C 0.2922(5) 0.0407(10) 0.4455(6)
C3B C 0.3236(5) -0.0758(9) 0.4019(5)
C4B C 0.2642(5) -0.1812(10) 0.3474(6)
H1B H 0.2841 -0.2615 0.3204
C5B C 0.1815(5) -0.1721(9) 0.3325(6)
H2B H 0.1456 -0.2437 0.2960
C6B C 0.1496(5) -0.0480(10) 0.3747(6)
C7B C 0.2051(5) 0.0489(10) 0.4312(5)
H3B H 0.1851 0.1240 0.4620
C8B C -0.0707(5) -0.0776(11) 0.2866(6)
C9B C -0.1243(5) -0.1146(11) 0.1994(6)
H4B H -0.1026 -0.1416 0.1522
C10B C -0.2098(5) -0.1115(11) 0.1825(6)
H5B H -0.2456 -0.1339 0.1240
C11B C -0.2412(5) -0.0743(8) 0.2548(5)
C12B C -0.1863(6) -0.0338(14) 0.3400(6)
H6B H -0.2076 -0.0044 0.3871
C13B C -0.1037(5) -0.0355(13) 0.3567(6)
H7B H -0.0685 -0.0087 0.4148
C14B C 0.1869(6) 0.4410(12) 0.6520(8)
H8B H 0.2066 0.3607 0.6927
C15B C 0.1076(7) 0.4840(13) 0.6362(10)
H9B H 0.0738 0.4324 0.6644
C16B C 0.0768(7) 0.6019(16) 0.5795(8)
H10B H 0.0214 0.6305 0.5670
C17B C 0.1269(8) 0.678(2) 0.5412(11)
H11B H 0.1082 0.7624 0.5039
C18B C 0.2096(8) 0.6231(16) 0.5600(10)
H12B H 0.2448 0.6734 0.5331
H13B H 0.407(9) 0.651(18) 0.549(11)
H14B H 0.438(9) 0.652(18) 0.736(11)
H15B H 0.484(9) 0.174(19) 0.361(10)
H16B H 0.371(10) 0.535(19) 0.491(11)
H17B H 0.397(9) 0.575(16) 0.785(11)
H18B H 0.562(9) 0.124(17) 0.367(10)
O7B O 0.3846(4) 0.5742(8) 0.5309(5)
O8B O 0.4097(5) 0.5926(7) 0.7333(5)
O9B O 0.4826(3) 0.3412(7) 0.6626(4)
O10B O 0.5237(4) 0.1552(8) 0.3860(4)
loop_
_geom_bond_atom_site_label_1
_geom_bond_atom_site_label_2
_geom_bond_site_symmetry_1
_geom_bond_site_symmetry_2
Zn1 O2 1_555 1_555
Zn2 O1 1_555 1_555
S1 O4 1_555 1_555
O1 C1 1_555 1_555
O2 C1 1_555 1_555
O3 Zn1 1_555 1_555
O4 Zn2B_2 1_555 1_555
O5 S1 1_555 1_555
O6 S1 1_555 1_555
N1 N2 1_555 1_555
N2 C8 1_555 1_555
N3 Zn2 1_555 1_555
C1 C2 1_555 1_555
C2 C3 1_555 1_555
C3 O3 1_555 1_555
C4 C3 1_555 1_555
H1 C4 1_555 1_555
C5 C4 1_555 1_555
H2 C5 1_555 1_555
C6 N1 1_555 1_555
C7 C2 1_555 1_555
H3 C7 1_555 1_555
C8 C9 1_555 1_555
C9 H4 1_555 1_555
C10 C9 1_555 1_555
H5 C10 1_555 1_555
C11 S1 1_555 1_555
C12 C11 1_555 1_555
H6 C12 1_555 1_555
C13 C8 1_555 1_555
H7 C13 1_555 1_555
C14 N3 1_555 1_555
H8 C14 1_555 1_555
C15 C14 1_555 1_555
H9 C15 1_555 1_555
C16 C15 1_555 1_555
H10 C16 1_555 1_555
C17 C16 1_555 1_555
H11 C17 1_555 1_555
C18 N3 1_555 1_555
H12 C18 1_555 1_555
H13 O7 1_555 1_555
H14 O8 1_555 1_555
H15 O10 1_555 1_555
H16 O7 1_555 1_555
H17 O8 1_555 1_555
H18 O10 1_555 1_555
O7 Zn2 1_555 1_555
O8 Zn2 1_555 1_555
O9 Zn2 1_555 1_555
O10 Zn1 1_555 1_555
Zn2B O1B 1_555 1_555
Zn2_2 O4B 1_555 1_555
S1B O4B 1_555 1_555
O1B C1B 1_555 1_555
O2B Zn1 1_555 1_555
O3B Zn1 1_555 1_555
O4B_2 Zn2 1_555 1_555
O4_2 Zn2B 1_555 1_555
O5B S1B 1_555 1_555
O6B S1B 1_555 1_555
N1B N2B 1_555 1_555
N2B C8B 1_555 1_555
N3B Zn2B 1_555 1_555
C1B O2B 1_555 1_555
C2B C1B 1_555 1_555
C3B O3B 1_555 1_555
C4B C3B 1_555 1_555
H1B C4B 1_555 1_555
C5B C4B 1_555 1_555
H2B C5B 1_555 1_555
C6B N1B 1_555 1_555
C7B C2B 1_555 1_555
H3B C7B 1_555 1_555
C8B C9B 1_555 1_555
C9B H4B 1_555 1_555
C10B C9B 1_555 1_555
H5B C10B 1_555 1_555
C11B S1B 1_555 1_555
C12B C11B 1_555 1_555
H6B C12B 1_555 1_555
C13B C8B 1_555 1_555
H7B C13B 1_555 1_555
C14B N3B 1_555 1_555
H8B C14B 1_555 1_555
C15B C14B 1_555 1_555
H9B C15B 1_555 1_555
C16B C15B 1_555 1_555
H10B C16B 1_555 1_555
C17B C16B 1_555 1_555
H11B C17B 1_555 1_555
C18B N3B 1_555 1_555
H12B C18B 1_555 1_555
H13B O7B 1_555 1_555
H14B O8B 1_555 1_555
H15B O10B 1_555 1_555
H16B O7B 1_555 1_555
H17B O8B 1_555 1_555
H18B O10B 1_555 1_555
O7B Zn2B 1_555 1_555
O8B Zn2B 1_555 1_555
O9B Zn2B 1_555 1_555
O10B Zn1 1_555 1_555
C5 C6 1_555 1_555
C6 C7 1_555 1_555
C10 C11 1_555 1_555
C12 C13 1_555 1_555
C17 C18 1_555 1_555
C2B C3B 1_555 1_555
C5B C6B 1_555 1_555
C6B C7B 1_555 1_555
C10B C11B 1_555 1_555
C12B C13B 1_555 1_555
C17B C18B 1_555 1_555

#END
