
#######################################################################
#
#                 Cambridge Crystallographic Data Centre
#                                CCDC 
#
#######################################################################
#
# If this CIF has been generated from an entry in the Cambridge 
# Structural Database, then it will include bibliographic, chemical, 
# crystal, experimental, refinement or atomic coordinate data resulting 
# from the CCDC's data processing and validation procedures.
#
#######################################################################

data_BIWBEP
_symmetry_cell_setting           monoclinic
_symmetry_space_group_name_H-M   'P 21/c'
_symmetry_Int_Tables_number      14
_space_group_name_Hall           '-P 2ybc'
loop_
_symmetry_equiv_pos_site_id
_symmetry_equiv_pos_as_xyz
1 x,y,z
2 -x,1/2+y,1/2-z
3 -x,-y,-z
4 x,1/2-y,1/2+z
_cell_length_a                   16.8060(3)
_cell_length_b                   8.9444(2)
_cell_length_c                   15.2034(2)
_cell_angle_alpha                90
_cell_angle_beta                 108.1870(10)
_cell_angle_gamma                90
_cell_volume                     2171.2
loop_
_atom_site_label
_atom_site_type_symbol
_atom_site_fract_x
_atom_site_fract_y
_atom_site_fract_z
Cu1 Cu 0.0000 0.0000 0.0000
Cu2 Cu 0.13633(3) -0.42391(5) -0.12773(3)
S1 S 0.84735(5) 0.08696(10) 0.26068(6)
O1 O 0.18503(14) -0.2645(3) -0.03514(16)
O2 O 0.07070(13) -0.1492(3) -0.02839(17)
O3 O 0.09341(14) 0.0840(3) 0.09545(17)
O4 O 0.85954(15) 0.2485(3) 0.25595(19)
O5 O 0.89338(15) 0.0281(3) 0.35204(18)
O6 O 0.86295(16) 0.0048(3) 0.18610(19)
O7 O 0.1112(2) -0.5828(4) -0.0228(2)
O8 O 0.0910(2) -0.5832(3) -0.2245(2)
O9 O 0.02145(16) -0.3442(3) -0.15871(19)
O10 O -0.02751(18) -0.1727(4) 0.1256(2)
N1 N 0.43228(18) 0.0209(4) 0.1390(2)
N2 N 0.48084(18) 0.0895(4) 0.2063(2)
N3 N 0.25359(19) -0.4981(3) -0.1054(2)
C1 C 0.1502(2) -0.1587(4) -0.0065(2)
C2 C 0.2041(2) -0.0447(4) 0.0549(2)
C3 C 0.1727(2) 0.0683(4) 0.1004(2)
C4 C 0.2310(2) 0.1704(4) 0.1572(3)
H1 H 0.2109 0.2491 0.1865
C5 C 0.3149(2) 0.1592(4) 0.1712(3)
H2 H 0.3523 0.2287 0.2104
C6 C 0.3460(2) 0.0455(4) 0.1278(3)
C7 C 0.2903(2) -0.0532(4) 0.0692(2)
H3 H 0.3112 -0.1283 0.0382
C8 C 0.5678(2) 0.0714(4) 0.2165(3)
C9 C 0.6228(2) 0.1096(5) 0.3020(3)
H4 H 0.6014 0.1398 0.3502
C10 C 0.7088(2) 0.1045(5) 0.3184(3)
H5 H 0.7465 0.1277 0.3778
C11 C 0.7388(2) 0.0650(4) 0.2461(2)
C12 C 0.6847(2) 0.0239(5) 0.1615(3)
H6 H 0.7059 -0.0065 0.1132
C13 C 0.5990(2) 0.0271(6) 0.1467(3)
H7 H 0.5615 -0.0015 0.0883
C14 C 0.3058(3) -0.4287(5) -0.1418(4)
H8 H 0.2861 -0.3424 -0.1786
C15 C 0.3869(3) -0.4746(6) -0.1292(4)
H9 H 0.4215 -0.4221 -0.1577
C16 C 0.4165(3) -0.5959(6) -0.0756(4)
H10 H 0.4727 -0.6283 -0.0643
C17 C 0.3640(3) -0.6700(7) -0.0385(4)
H11 H 0.3827 -0.7570 -0.0021
C18 C 0.2829(3) -0.6180(6) -0.0541(4)
H12 H 0.2471 -0.6701 -0.0270
H13 H 0.083(4) -0.655(7) -0.037(4)
H14 H 0.109(4) -0.556(7) 0.026(4)
H15 H 0.076(4) -0.656(7) -0.211(4)
H16 H 0.087(4) -0.580(7) -0.281(4)
H17 H -0.009(4) -0.406(7) -0.155(4)
H18 H 0.025(4) -0.281(7) -0.124(4)
H19 H -0.049(4) -0.116(7) 0.146(4)
H20 H 0.017(4) -0.186(7) 0.158(4)
Cu2B Cu -0.13633(3) 0.42391(5) 0.12773(3)
Cu2B_2 Cu 0.86367(3) 0.42391(5) 0.12773(3)
Cu2_2 Cu -0.86367(3) -0.42391(5) -0.12773(3)
S1B S -0.84735(5) -0.08696(10) -0.26068(6)
O1B O -0.18503(14) 0.2645(3) 0.03514(16)
O2B O -0.07070(13) 0.1492(3) 0.02839(17)
O3B O -0.09341(14) -0.0840(3) -0.09545(17)
O4B O -0.85954(15) -0.2485(3) -0.25595(19)
O4B_2 O 0.14046(15) -0.2485(3) -0.25595(19)
O4_2 O -0.14046(15) 0.2485(3) 0.25595(19)
O5B O -0.89338(15) -0.0281(3) -0.35204(18)
O6B O -0.86295(16) -0.0048(3) -0.18610(19)
O7B O -0.1112(2) 0.5828(4) 0.0228(2)
O8B O -0.0910(2) 0.5832(3) 0.2245(2)
O9B O -0.02145(16) 0.3442(3) 0.15871(19)
O10B O 0.02751(18) 0.1727(4) -0.1256(2)
N1B N -0.43228(18) -0.0209(4) -0.1390(2)
N2B N -0.48084(18) -0.0895(4) -0.2063(2)
N3B N -0.25359(19) 0.4981(3) 0.1054(2)
C1B C -0.1502(2) 0.1587(4) 0.0065(2)
C2B C -0.2041(2) 0.0447(4) -0.0549(2)
C3B C -0.1727(2) -0.0683(4) -0.1004(2)
C4B C -0.2310(2) -0.1704(4) -0.1572(3)
H1B H -0.2109 -0.2491 -0.1865
C5B C -0.3149(2) -0.1592(4) -0.1712(3)
H2B H -0.3523 -0.2287 -0.2104
C6B C -0.3460(2) -0.0455(4) -0.1278(3)
C7B C -0.2903(2) 0.0532(4) -0.0692(2)
H3B H -0.3112 0.1283 -0.0382
C8B C -0.5678(2) -0.0714(4) -0.2165(3)
C9B C -0.6228(2) -0.1096(5) -0.3020(3)
H4B H -0.6014 -0.1398 -0.3502
C10B C -0.7088(2) -0.1045(5) -0.3184(3)
H5B H -0.7465 -0.1277 -0.3778
C11B C -0.7388(2) -0.0650(4) -0.2461(2)
C12B C -0.6847(2) -0.0239(5) -0.1615(3)
H6B H -0.7059 0.0065 -0.1132
C13B C -0.5990(2) -0.0271(6) -0.1467(3)
H7B H -0.5615 0.0015 -0.0883
C14B C -0.3058(3) 0.4287(5) 0.1418(4)
H8B H -0.2861 0.3424 0.1786
C15B C -0.3869(3) 0.4746(6) 0.1292(4)
H9B H -0.4215 0.4221 0.1577
C16B C -0.4165(3) 0.5959(6) 0.0756(4)
H10B H -0.4727 0.6283 0.0643
C17B C -0.3640(3) 0.6700(7) 0.0385(4)
H11B H -0.3827 0.7570 0.0021
C18B C -0.2829(3) 0.6180(6) 0.0541(4)
H12B H -0.2471 0.6701 0.0270
H13B H -0.083(4) 0.655(7) 0.037(4)
H14B H -0.109(4) 0.556(7) -0.026(4)
H15B H -0.076(4) 0.656(7) 0.211(4)
H16B H -0.087(4) 0.580(7) 0.281(4)
H17B H 0.009(4) 0.406(7) 0.155(4)
H18B H -0.025(4) 0.281(7) 0.124(4)
H19B H 0.049(4) 0.116(7) -0.146(4)
H20B H -0.017(4) 0.186(7) -0.158(4)
loop_
_geom_bond_atom_site_label_1
_geom_bond_atom_site_label_2
_geom_bond_site_symmetry_1
_geom_bond_site_symmetry_2
Cu1 O2 1_555 1_555
Cu2 O1 1_555 1_555
S1 O4 1_555 1_555
O1 C1 1_555 1_555
O2 C1 1_555 1_555
O3 Cu1 1_555 1_555
O4 Cu2B_2 1_555 1_555
O5 S1 1_555 1_555
O6 S1 1_555 1_555
O7 Cu2 1_555 1_555
O8 Cu2 1_555 1_555
O9 Cu2 1_555 1_555
O10 Cu1 1_555 1_555
N1 N2 1_555 1_555
N2 C8 1_555 1_555
N3 Cu2 1_555 1_555
C1 C2 1_555 1_555
C2 C3 1_555 1_555
C3 O3 1_555 1_555
C4 C3 1_555 1_555
H1 C4 1_555 1_555
C5 C4 1_555 1_555
H2 C5 1_555 1_555
C6 N1 1_555 1_555
C7 C2 1_555 1_555
H3 C7 1_555 1_555
C8 C9 1_555 1_555
C9 H4 1_555 1_555
C10 C9 1_555 1_555
H5 C10 1_555 1_555
C11 S1 1_555 1_555
C12 C11 1_555 1_555
H6 C12 1_555 1_555
C13 C8 1_555 1_555
H7 C13 1_555 1_555
C14 N3 1_555 1_555
H8 C14 1_555 1_555
C15 C14 1_555 1_555
H9 C15 1_555 1_555
C16 C15 1_555 1_555
H10 C16 1_555 1_555
C17 C16 1_555 1_555
H11 C17 1_555 1_555
C18 N3 1_555 1_555
H12 C18 1_555 1_555
H13 O7 1_555 1_555
H14 O7 1_555 1_555
H15 O8 1_555 1_555
H16 O8 1_555 1_555
H17 O9 1_555 1_555
H18 O9 1_555 1_555
H19 O10 1_555 1_555
H20 O10 1_555 1_555
Cu2B O1B 1_555 1_555
Cu2_2 O4B 1_555 1_555
S1B O4B 1_555 1_555
O1B C1B 1_555 1_555
O2B Cu1 1_555 1_555
O3B Cu1 1_555 1_555
O4B_2 Cu2 1_555 1_555
O4_2 Cu2B 1_555 1_555
O5B S1B 1_555 1_555
O6B S1B 1_555 1_555
O7B Cu2B 1_555 1_555
O8B Cu2B 1_555 1_555
O9B Cu2B 1_555 1_555
O10B Cu1 1_555 1_555
N1B N2B 1_555 1_555
N2B C8B 1_555 1_555
N3B Cu2B 1_555 1_555
C1B O2B 1_555 1_555
C2B C1B 1_555 1_555
C3B O3B 1_555 1_555
C4B C3B 1_555 1_555
H1B C4B 1_555 1_555
C5B C4B 1_555 1_555
H2B C5B 1_555 1_555
C6B N1B 1_555 1_555
C7B C2B 1_555 1_555
H3B C7B 1_555 1_555
C8B C9B 1_555 1_555
C9B H4B 1_555 1_555
C10B C9B 1_555 1_555
H5B C10B 1_555 1_555
C11B S1B 1_555 1_555
C12B C11B 1_555 1_555
H6B C12B 1_555 1_555
C13B C8B 1_555 1_555
H7B C13B 1_555 1_555
C14B N3B 1_555 1_555
H8B C14B 1_555 1_555
C15B C14B 1_555 1_555
H9B C15B 1_555 1_555
C16B C15B 1_555 1_555
H10B C16B 1_555 1_555
C17B C16B 1_555 1_555
H11B C17B 1_555 1_555
C18B N3B 1_555 1_555
H12B C18B 1_555 1_555
H13B O7B 1_555 1_555
H14B O7B 1_555 1_555
H15B O8B 1_555 1_555
H16B O8B 1_555 1_555
H17B O9B 1_555 1_555
H18B O9B 1_555 1_555
H19B O10B 1_555 1_555
H20B O10B 1_555 1_555
C5 C6 1_555 1_555
C6 C7 1_555 1_555
C10 C11 1_555 1_555
C12 C13 1_555 1_555
C17 C18 1_555 1_555
C2B C3B 1_555 1_555
C5B C6B 1_555 1_555
C6B C7B 1_555 1_555
C10B C11B 1_555 1_555
C12B C13B 1_555 1_555
C17B C18B 1_555 1_555

#END
