
#######################################################################
#
#                 Cambridge Crystallographic Data Centre
#                                CCDC 
#
#######################################################################
#
# If this CIF has been generated from an entry in the Cambridge 
# Structural Database, then it will include bibliographic, chemical, 
# crystal, experimental, refinement or atomic coordinate data resulting 
# from the CCDC's data processing and validation procedures.
#
#######################################################################

data_BIWFIX
_symmetry_cell_setting           orthorhombic
_symmetry_space_group_name_H-M   'P b c n'
_symmetry_Int_Tables_number      60
_space_group_name_Hall           '-P 2n 2ab'
loop_
_symmetry_equiv_pos_site_id
_symmetry_equiv_pos_as_xyz
1 x,y,z
2 1/2-x,1/2-y,1/2+z
3 1/2+x,1/2-y,-z
4 -x,y,1/2-z
5 -x,-y,-z
6 1/2+x,1/2+y,1/2-z
7 1/2-x,1/2+y,z
8 x,-y,1/2+z
_cell_length_a                   14.6973(2)
_cell_length_b                   17.7243(5)
_cell_length_c                   12.4624(3)
_cell_angle_alpha                90
_cell_angle_beta                 90
_cell_angle_gamma                90
_cell_volume                     3246.45
loop_
_atom_site_label
_atom_site_type_symbol
_atom_site_fract_x
_atom_site_fract_y
_atom_site_fract_z
Cu1 Cu 0.070845(16) 0.230816(15) 0.32680(2)
Na1 Na 0.0000 0.07151(7) 0.2500
O1 O 0.11828(10) 0.10061(9) 0.37029(13)
H1 H 0.1051(17) 0.1112(15) 0.4447(10)
O2 O 0.05703(9) 0.20168(9) 0.17661(12)
O3 O 0.09403(10) 0.36137(9) 0.28276(14)
H2 H 0.0681(17) 0.4089(9) 0.302(2)
O4 O 0.07461(10) 0.26130(9) 0.47798(12)
O5 O 0.05744(11) 0.15035(9) 0.56112(13)
O6 O 0.02355(10) 0.50014(9) 0.83504(13)
O7 O -0.10064(12) -0.02818(10) 0.29997(14)
H3 H -0.0840(19) -0.0700(12) 0.347(2)
H4 H -0.1529(13) -0.0044(16) 0.332(2)
N1 N 0.20677(12) 0.23722(11) 0.29432(15)
C1 C 0.21432(15) 0.10101(13) 0.35219(19)
H11 H 0.2270 0.0807 0.2797
H12 H 0.2441 0.0675 0.4052
C2 C 0.25488(15) 0.17992(13) 0.36132(19)
H13 H 0.2527 0.1960 0.4373
H14 H 0.3196 0.1780 0.3394
C3 C 0.12855(14) 0.23519(13) 0.11585(18)
H15 H 0.1175 0.2899 0.1073
H16 H 0.1317 0.2120 0.0437
C4 C 0.21758(14) 0.22197(13) 0.17647(17)
H17 H 0.2374 0.1691 0.1659
H18 H 0.2653 0.2554 0.1469
C5 C 0.18883(15) 0.37583(14) 0.2705(2)
H19 H 0.2045 0.4250 0.3035
H20 H 0.2047 0.3780 0.1934
C6 C 0.24158(15) 0.31314(13) 0.32473(19)
H21 H 0.3065 0.3170 0.3045
H22 H 0.2372 0.3192 0.4035
C7 C 0.05487(14) 0.22148(13) 0.55844(18)
C8 C 0.02622(14) 0.26337(13) 0.65798(17)
C9 C 0.02465(14) 0.34211(13) 0.65776(17)
H23 H 0.0404 0.3690 0.5945
C10 C 0.0000 0.38122(18) 0.7500
C11 C 0.0000 0.46647(19) 0.7500
C12 C 0.0000 0.22423(18) 0.7500
H24 H 0.0000 0.1706 0.7500
Cu1C Cu -0.070845(16) 0.230816(15) 0.17320(2)
Cu1C_2 Cu -0.070845(16) 0.230816(15) 1.17320(2)
O1C O -0.11828(10) 0.10061(9) 0.12971(13)
H1C H -0.1051(17) 0.1112(15) 0.0553(10)
O2C O -0.05703(9) 0.20168(9) 0.32339(12)
O3C O -0.09403(10) 0.36137(9) 0.21724(14)
H2C H -0.0681(17) 0.4089(9) 0.198(2)
O4C O -0.07461(10) 0.26130(9) 1.02202(12)
O4C_2 O -0.07461(10) 0.26130(9) 0.02202(12)
O5C O -0.05744(11) 0.15035(9) 0.93888(13)
O6C O -0.02355(10) 0.50014(9) 0.66496(13)
O7C O 0.10064(12) -0.02818(10) 0.20003(14)
H3C H 0.0840(19) -0.0700(12) 0.153(2)
H4C H 0.1529(13) -0.0044(16) 0.168(2)
N1C N -0.20677(12) 0.23722(11) 0.20568(15)
C1C C -0.21432(15) 0.10101(13) 0.14781(19)
H11C H -0.2270 0.0807 0.2203
H12C H -0.2441 0.0675 0.0948
C2C C -0.25488(15) 0.17992(13) 0.13868(19)
H13C H -0.2527 0.1960 0.0627
H14C H -0.3196 0.1780 0.1606
C3C C -0.12855(14) 0.23519(13) 0.38415(18)
H15C H -0.1175 0.2899 0.3927
H16C H -0.1317 0.2120 0.4563
C4C C -0.21758(14) 0.22197(13) 0.32353(17)
H17C H -0.2374 0.1691 0.3341
H18C H -0.2653 0.2554 0.3531
C5C C -0.18883(15) 0.37583(14) 0.2295(2)
H19C H -0.2045 0.4250 0.1965
H20C H -0.2047 0.3780 0.3066
C6C C -0.24158(15) 0.31314(13) 0.17527(19)
H21C H -0.3065 0.3170 0.1955
H22C H -0.2372 0.3192 0.0965
C7C C -0.05487(14) 0.22148(13) 0.94156(18)
C8C C -0.02622(14) 0.26337(13) 0.84202(17)
C9C C -0.02465(14) 0.34211(13) 0.84224(17)
H23C H -0.0404 0.3690 0.9055
O8 O 0.23614(12) 0.03791(11) 0.08457(15)
H5 H 0.2003(17) 0.0473(18) 0.0208(15)
H6 H 0.2888(14) 0.0113(16) 0.059(2)
O9 O -0.11520(12) 0.07307(10) 0.57625(16)
H7 H -0.0571(12) 0.0966(17) 0.565(3)
H8 H -0.110(2) 0.0491(17) 0.6454(14)
O10 O 0.11503(11) 0.45117(11) 1.02058(15)
H9 H 0.0688(16) 0.4559(19) 1.0757(18)
H10 H 0.0878(19) 0.4655(18) 0.9531(14)
loop_
_geom_bond_atom_site_label_1
_geom_bond_atom_site_label_2
_geom_bond_site_symmetry_1
_geom_bond_site_symmetry_2
Cu1 O1 1_555 1_555
Na1 O1 1_555 1_555
O1 H1 1_555 1_555
O2 Cu1 1_555 1_555
O3 Cu1 1_555 1_555
H2 O3 1_555 1_555
O4 Cu1 1_555 1_555
O5 C7 1_555 1_555
O6 C11 1_555 1_555
O7 Na1 1_555 1_555
H3 O7 1_555 1_555
H4 O7 1_555 1_555
O8 H5 1_555 1_555
H6 O8 1_555 1_555
O9 H7 1_555 1_555
H8 O9 1_555 1_555
O10 H9 1_555 1_555
H10 O10 1_555 1_555
N1 Cu1 1_555 1_555
C1 O1 1_555 1_555
H11 C1 1_555 1_555
H12 C1 1_555 1_555
C2 N1 1_555 1_555
H13 C2 1_555 1_555
H14 C2 1_555 1_555
C3 O2 1_555 1_555
H15 C3 1_555 1_555
H16 C3 1_555 1_555
C4 N1 1_555 1_555
H17 C4 1_555 1_555
H18 C4 1_555 1_555
C5 O3 1_555 1_555
H19 C5 1_555 1_555
H20 C5 1_555 1_555
C6 N1 1_555 1_555
H21 C6 1_555 1_555
H22 C6 1_555 1_555
C7 O4 1_555 1_555
C8 C7 1_555 1_555
C9 C8 1_555 1_555
H23 C9 1_555 1_555
C10 C9 1_555 1_555
C11 C10 1_555 1_555
C12 C8 1_555 1_555
H24 C12 1_555 1_555
Cu1C O2 1_555 1_555
Cu1C_2 O4C 1_555 1_555
O1C Na1 1_555 1_555
H1C O1C 1_555 1_555
O2C Cu1 1_555 1_555
O3C Cu1C 1_555 1_555
H2C O3C 1_555 1_555
O4C C7C 1_555 1_555
O4C_2 Cu1C 1_555 1_555
O5C C7C 1_555 1_555
O6C C11 1_555 1_555
O7C Na1 1_555 1_555
H3C O7C 1_555 1_555
H4C O7C 1_555 1_555
N1C Cu1C 1_555 1_555
C1C O1C 1_555 1_555
H11C C1C 1_555 1_555
H12C C1C 1_555 1_555
C2C N1C 1_555 1_555
H13C C2C 1_555 1_555
H14C C2C 1_555 1_555
C3C O2C 1_555 1_555
H15C C3C 1_555 1_555
H16C C3C 1_555 1_555
C4C N1C 1_555 1_555
H17C C4C 1_555 1_555
H18C C4C 1_555 1_555
C5C O3C 1_555 1_555
H19C C5C 1_555 1_555
H20C C5C 1_555 1_555
C6C N1C 1_555 1_555
H21C C6C 1_555 1_555
H22C C6C 1_555 1_555
C7C C8C 1_555 1_555
C8C C12 1_555 1_555
C9C C10 1_555 1_555
H23C C9C 1_555 1_555
Na1 O2 1_555 1_555
Na1 O2C 1_555 1_555
C1 C2 1_555 1_555
C3 C4 1_555 1_555
C5 C6 1_555 1_555
Cu1C O1C 1_555 1_555
Cu1C O2C 1_555 1_555
C1C C2C 1_555 1_555
C3C C4C 1_555 1_555
C5C C6C 1_555 1_555
C8C C9C 1_555 1_555

#END
