
#######################################################################
#
#                 Cambridge Crystallographic Data Centre
#                                CCDC 
#
#######################################################################
#
# If this CIF has been generated from an entry in the Cambridge 
# Structural Database, then it will include bibliographic, chemical, 
# crystal, experimental, refinement or atomic coordinate data resulting 
# from the CCDC's data processing and validation procedures.
#
#######################################################################

data_BIWYAH10
_symmetry_cell_setting           monoclinic
_symmetry_space_group_name_H-M   'P 1 1 21/n'
_symmetry_Int_Tables_number      14
_space_group_name_Hall           '-P 2n'
loop_
_symmetry_equiv_pos_site_id
_symmetry_equiv_pos_as_xyz
1 x,y,z
2 1/2-x,1/2-y,1/2+z
3 -x,-y,-z
4 1/2+x,1/2+y,1/2-z
_cell_length_a                   12.787(6)
_cell_length_b                   17.731(9)
_cell_length_c                   15.302(5)
_cell_angle_alpha                90
_cell_angle_beta                 90
_cell_angle_gamma                114.84(3)
_cell_volume                     3148.4
loop_
_atom_site_label
_atom_site_type_symbol
_atom_site_fract_x
_atom_site_fract_y
_atom_site_fract_z
Nd1 Nd 0.29800(2) 0.06783(2) 0.15986(2)
P1 P 0.2041(2) 0.1586(2) 0.3544(2)
P2 P 0.5858(2) 0.1161(1) 0.2736(1)
O1 O 0.2427(5) 0.1165(4) 0.2862(4)
O2 O 0.4691(5) 0.1011(4) 0.2424(4)
N1 N 0.2377(8) 0.2583(6) 0.3418(7)
N2 N 0.0622(9) 0.1152(7) 0.3586(7)
N3 N 0.2639(8) 0.1524(6) 0.4473(6)
N4 N 0.5929(7) 0.0280(5) 0.2929(6)
N5 N 0.6160(7) 0.1698(5) 0.3643(5)
N6 N 0.6851(7) 0.1656(5) 0.2025(6)
N7 N 0.3724(8) 0.1063(6) 0.0040(6)
N8 N 0.5242(8) 0.1305(6) -0.1013(6)
N9 N 0.6201(7) 0.0370(5) -0.1179(6)
N10 N 0.4139(8) 0.2268(6) 0.1455(6)
N11 N 0.5956(9) 0.3481(7) 0.1242(7)
N12 N 0.7077(8) 0.4453(5) 0.2360(6)
N13 N 0.1375(7) 0.1091(5) 0.1129(5)
N14 N -0.0400(8) 0.1159(6) 0.0648(7)
N15 N -0.1486(8) 0.0463(6) -0.0646(6)
C1 C 0.3504(13) 0.3224(9) 0.3670(10)
C2 C 0.1762(16) 0.2848(11) 0.2734(12)
C3 C -0.0049(13) 0.0313(9) 0.3226(10)
C4 C -0.0059(16) 0.1490(12) 0.4119(13)
C5 C 0.3074(11) 0.0879(8) 0.4590(9)
C6 C 0.2393(12) 0.1849(9) 0.5298(10)
C7 C 0.6940(13) 0.0093(9) 0.2725(10)
C8 C 0.4970(11) -0.0388(8) 0.3390(9)
C9 C 0.6917(11) 0.1612(8) 0.4342(9)
C10 C 0.5897(11) 0.2435(8) 0.3725(9)
C11 C 0.6702(12) 0.1403(9) 0.1075(9)
C12 C 0.7956(13) 0.2390(9) 0.2211(10)
C13 C 0.4440(8) 0.1141(7) -0.0447(7)
C14 C 0.5731(8) 0.0787(6) -0.1077(6)
C15 C 0.4977(10) 0.2843(7) 0.1405(7)
C16 C 0.6516(9) 0.3980(7) 0.1880(7)
C17 C 0.0534(8) 0.1090(6) 0.0885(6)
C18 C -0.0962(8) 0.0764(6) -0.0040(7)
N9B N 0.3799(7) -0.0370(5) 0.1179(6)
N12C N 0.2077(8) -0.0547(5) 0.2640(6)
N15B N 0.1486(8) -0.0463(6) 0.0646(6)
Nd1B Nd 0.70200(2) -0.06783(2) -0.15986(2)
Nd1C Nd 0.79800(2) 0.56783(2) 0.34014(2)
Nd1B_2 Nd -0.29800(2) -0.06783(2) -0.15986(2)
loop_
_geom_bond_atom_site_label_1
_geom_bond_atom_site_label_2
_geom_bond_site_symmetry_1
_geom_bond_site_symmetry_2
Nd1 O1 1_555 1_555
P1 O1 1_555 1_555
P2 O2 1_555 1_555
O2 Nd1 1_555 1_555
N1 P1 1_555 1_555
N2 P1 1_555 1_555
N3 P1 1_555 1_555
N4 P2 1_555 1_555
N5 P2 1_555 1_555
N6 P2 1_555 1_555
N7 Nd1 1_555 1_555
N8 C13 1_555 1_555
N9 C14 1_555 1_555
N10 Nd1 1_555 1_555
N11 C15 1_555 1_555
N12 C16 1_555 1_555
N13 Nd1 1_555 1_555
N14 C17 1_555 1_555
N15 C18 1_555 1_555
C1 N1 1_555 1_555
C2 N1 1_555 1_555
C3 N2 1_555 1_555
C4 N2 1_555 1_555
C5 N3 1_555 1_555
C6 N3 1_555 1_555
C7 N4 1_555 1_555
C8 N4 1_555 1_555
C9 N5 1_555 1_555
C10 N5 1_555 1_555
C11 N6 1_555 1_555
C12 N6 1_555 1_555
C13 N7 1_555 1_555
C14 N8 1_555 1_555
C15 N10 1_555 1_555
C16 N11 1_555 1_555
C17 N13 1_555 1_555
C18 N14 1_555 1_555
N9B Nd1 1_555 1_555
N12C Nd1 1_555 1_555
N15B Nd1 1_555 1_555
Nd1B N9 1_555 1_555
Nd1C N12 1_555 1_555
Nd1B_2 N15 1_555 1_555

#END
