
#######################################################################
#
#                 Cambridge Crystallographic Data Centre
#                                CCDC 
#
#######################################################################
#
# If this CIF has been generated from an entry in the Cambridge 
# Structural Database, then it will include bibliographic, chemical, 
# crystal, experimental, refinement or atomic coordinate data resulting 
# from the CCDC's data processing and validation procedures.
#
#######################################################################

data_BIXCOC
_symmetry_cell_setting           triclinic
_symmetry_space_group_name_H-M   'P -1'
_symmetry_Int_Tables_number      2
_space_group_name_Hall           '-P 1'
loop_
_symmetry_equiv_pos_site_id
_symmetry_equiv_pos_as_xyz
1 x,y,z
2 -x,-y,-z
_cell_length_a                   8.3977(11)
_cell_length_b                   9.4360(12)
_cell_length_c                   20.338(3)
_cell_angle_alpha                89.990(3)
_cell_angle_beta                 79.663(3)
_cell_angle_gamma                88.438(3)
_cell_volume                     1584.83
loop_
_atom_site_label
_atom_site_type_symbol
_atom_site_fract_x
_atom_site_fract_y
_atom_site_fract_z
C1 C 0.4933(6) 0.8304(5) 1.1239(2)
C2 C 0.3957(6) 0.8370(5) 1.1939(2)
C3 C 0.2624(7) 0.9256(6) 1.2070(3)
H1 H 0.2304 0.9770 1.1723
C4 C 0.1745(7) 0.9401(7) 1.2710(3)
H2 H 0.0846 1.0015 1.2793
C5 C 0.2203(6) 0.8633(6) 1.3225(3)
H3 H 0.1623 0.8733 1.3658
C6 C 0.3523(6) 0.7720(5) 1.3093(2)
C7 C 0.4422(6) 0.7594(5) 1.2460(2)
H4 H 0.5335 0.6995 1.2380
C8 C 0.4533(6) 0.7686(5) 1.4144(2)
C9 C 0.4953(6) 0.6865(5) 1.4714(2)
C10 C 0.4769(5) 0.5389(5) 1.4732(2)
C11 C 0.4150(6) 0.4668(5) 1.4233(2)
C12 C 0.3654(6) 0.5473(5) 1.3673(2)
C13 C 0.3987(6) 0.3224(5) 1.4259(2)
H5 H 0.3578 0.2758 1.3925
C14 C 0.5562(6) 0.7549(5) 1.5212(2)
H6 H 0.5674 0.8527 1.5196
C15 C 0.0252(6) 0.8520(5) 0.8682(2)
C16 C 0.1219(6) 0.8508(5) 0.7977(2)
C17 C 0.0746(6) 0.7695(4) 0.7479(2)
H7 H -0.0136 0.7107 0.7575
C18 C 0.1622(6) 0.7783(5) 0.6836(2)
C19 C 0.2915(6) 0.8653(5) 0.6683(2)
H8 H 0.3468 0.8718 0.6246
C20 C 0.3390(7) 0.9432(6) 0.7184(3)
H9 H 0.4283 1.0007 0.7085
C21 C 0.2546(6) 0.9361(5) 0.7833(2)
H10 H 0.2870 0.9886 0.8170
C22 C 0.1408(6) 0.5499(5) 0.6304(2)
C23 C 0.0846(5) 0.4672(5) 0.5772(2)
C24 C 0.0246(5) 0.5402(5) 0.5260(2)
C25 C 0.0116(6) 0.6885(5) 0.5246(2)
C26 C 0.0543(6) 0.7720(5) 0.5802(2)
C27 C -0.0446(6) 0.7562(5) 0.4735(2)
H11 H -0.0512 0.8547 0.4728
C28 C 0.0925(6) 0.3223(5) 0.5780(2)
H12 H 0.1297 0.2754 0.6127
C29 C 0.5401(10) 0.6649(8) 0.8186(4)
H13 H 0.6130 0.7396 0.8230
H14 H 0.4959 0.6787 0.7786
H15 H 0.5976 0.5752 0.8163
C30 C 0.2859(10) 0.5658(8) 0.8782(4)
H16 H 0.1970 0.5947 0.9125
H17 H 0.3261 0.4738 0.8886
H18 H 0.2499 0.5618 0.8360
C31 C 0.1921(10) 0.5546(8) 1.0820(4)
H19 H 0.1528 0.5332 1.0417
H20 H 0.2036 0.4687 1.1062
H21 H 0.2953 0.5984 1.0710
C32 C 0.0311(10) 0.6162(8) 1.1924(4)
H22 H -0.0408 0.6891 1.2147
H23 H 0.1258 0.6085 1.2127
H24 H -0.0230 0.5274 1.1963
C33 C 0.0250(7) 0.7655(6) 1.0969(3)
H25 H -0.0467 0.8245 1.1254
C34 C 0.3991(9) 0.7638(6) 0.9231(4)
H26 H 0.3070 0.7610 0.9562
Co1 Co 0.0000 1.0000 1.0000
Co2 Co 0.5000 1.0000 1.0000
N1 N 0.1145(5) 0.6962(4) 0.63030(18)
N2 N 0.3977(5) 0.6928(4) 1.36463(18)
N3 N 0.0775(8) 0.6512(6) 1.1233(3)
N4 N 0.4137(8) 0.6668(6) 0.8743(3)
O1 O 0.0841(4) 0.9274(4) 0.90845(16)
O2 O -0.1019(4) 0.7877(4) 0.88069(16)
O3 O 0.6359(4) 0.7858(4) 1.11470(16)
O4 O 0.4198(4) 0.8726(5) 1.07781(18)
O5 O 0.4909(5) 0.8509(5) 0.9278(2)
O6 O 0.0597(5) 0.8028(4) 1.03920(18)
O7 O 0.2458(4) 1.0831(3) 1.00132(15)
O8 O 0.2976(5) 0.4932(4) 1.32662(18)
O9 O 0.4668(5) 0.8962(4) 1.41111(18)
O10 O 0.2078(5) 0.4940(4) 0.67212(16)
O11 O 0.0375(5) 0.8996(3) 0.58339(18)
H27 H 0.217(7) 1.137(5) 1.035(2)
H28 H 0.273(7) 1.137(5) 0.968(2)
C1A C 0.5067(6) 0.1696(5) 1.8761(2)
C2A C 0.6043(6) 0.1630(5) 1.8061(2)
C3A C 0.7376(7) 0.0744(6) 1.7930(3)
H1A H 0.7696 0.0230 1.8277
C4A C 0.8255(7) 0.0599(7) 1.7290(3)
H2A H 0.9154 -0.0015 1.7207
C5A C 0.7797(6) 0.1367(6) 1.6775(3)
H3A H 0.8377 0.1267 1.6342
C6A C 0.6477(6) 0.2280(5) 1.6907(2)
C7A C 0.5578(6) 0.2406(5) 1.7540(2)
H4A H 0.4665 0.3005 1.7620
C8A C 0.5467(6) 0.2314(5) 1.5856(2)
C9A C 0.5047(6) 0.3135(5) 1.5286(2)
C10A C 0.5231(5) 0.4611(5) 1.5268(2)
C11A C 0.5850(6) 0.5332(5) 1.5767(2)
C12A C 0.6346(6) 0.4527(5) 1.6327(2)
C13A C 0.6013(6) 0.6776(5) 1.5741(2)
H5A H 0.6422 0.7242 1.6075
C14A C 0.4438(6) 0.2451(5) 1.4788(2)
H6A H 0.4326 0.1473 1.4804
N2A N 0.6023(5) 0.3072(4) 1.63537(18)
O3A O 0.3641(4) 0.2142(4) 1.88530(16)
O4A O 0.5802(4) 0.1274(5) 1.92219(18)
O8A O 0.7024(5) 0.5068(4) 1.67338(18)
O9A O 0.5332(5) 0.1038(4) 1.58889(18)
C15A C -0.0252(6) 0.1480(5) 0.1318(2)
C16A C -0.1219(6) 0.1492(5) 0.2023(2)
C17A C -0.0746(6) 0.2305(4) 0.2521(2)
H7A H 0.0136 0.2893 0.2425
C18A C -0.1622(6) 0.2217(5) 0.3164(2)
C19A C -0.2915(6) 0.1347(5) 0.3317(2)
H8A H -0.3468 0.1282 0.3754
C20A C -0.3390(7) 0.0568(6) 0.2816(3)
H9A H -0.4283 -0.0007 0.2915
C21A C -0.2546(6) 0.0639(5) 0.2167(2)
H10A H -0.2870 0.0114 0.1830
C22A C -0.1408(6) 0.4501(5) 0.3696(2)
C23A C -0.0846(5) 0.5328(5) 0.4228(2)
C24A C -0.0246(5) 0.4598(5) 0.4740(2)
C25A C -0.0116(6) 0.3115(5) 0.4754(2)
C26A C -0.0543(6) 0.2280(5) 0.4198(2)
C27A C 0.0446(6) 0.2438(5) 0.5265(2)
H11A H 0.0512 0.1453 0.5272
C28A C -0.0925(6) 0.6777(5) 0.4220(2)
H12A H -0.1297 0.7246 0.3873
N1A N -0.1145(5) 0.3038(4) 0.36970(18)
O1A O -0.0841(4) 0.0726(4) 0.09155(16)
O2A O 0.1019(4) 0.2123(4) 0.11931(16)
O10A O -0.2078(5) 0.5060(4) 0.32788(16)
O11A O -0.0375(5) 0.1004(3) 0.41661(18)
C29A C 0.4599(10) 1.3351(8) 1.1814(4)
H13A H 0.3870 1.2604 1.1770
H14A H 0.5041 1.3213 1.2214
H15A H 0.4024 1.4248 1.1837
C30A C 0.7141(10) 1.4342(8) 1.1218(4)
H16A H 0.8030 1.4053 1.0875
H17A H 0.6739 1.5262 1.1114
H18A H 0.7501 1.4382 1.1640
C34A C 0.6009(9) 1.2362(6) 1.0769(4)
H26A H 0.6930 1.2390 1.0438
N4A N 0.5863(8) 1.3332(6) 1.1257(3)
O5A O 0.5091(5) 1.1491(5) 1.0722(2)
C31A C -0.1921(10) 1.4454(8) 0.9180(4)
H19A H -0.1528 1.4668 0.9583
H20A H -0.2036 1.5313 0.8938
H21A H -0.2953 1.4016 0.9290
C32A C -0.0311(10) 1.3838(8) 0.8076(4)
H22A H 0.0408 1.3109 0.7853
H23A H -0.1258 1.3915 0.7873
H24A H 0.0230 1.4726 0.8037
C33A C -0.0250(7) 1.2345(6) 0.9031(3)
H25A H 0.0467 1.1755 0.8746
N3A N -0.0775(8) 1.3488(6) 0.8767(3)
O6A O -0.0597(5) 1.1972(4) 0.96080(18)
O7A O -0.2458(4) 0.9169(3) 0.99868(15)
H27A H -0.217(7) 0.863(5) 0.965(2)
H28A H -0.273(7) 0.863(5) 1.032(2)
Co1_2 Co 0.0000 0.0000 0.0000
Co2_2 Co -0.5000 1.0000 1.0000
Co2_3 Co 0.5000 0.0000 2.0000
O1A_2 O -0.0841(4) 1.0726(4) 1.09155(16)
O4A_2 O 0.5802(4) 1.1274(5) 0.92219(18)
O7A_2 O 0.7542(4) 0.9169(3) 0.99868(15)
loop_
_geom_bond_atom_site_label_1
_geom_bond_atom_site_label_2
_geom_bond_site_symmetry_1
_geom_bond_site_symmetry_2
C1 C2 1_555 1_555
C2 C3 1_555 1_555
C3 H1 1_555 1_555
C4 C3 1_555 1_555
H2 C4 1_555 1_555
C5 C4 1_555 1_555
H3 C5 1_555 1_555
C6 C5 1_555 1_555
C7 C2 1_555 1_555
H4 C7 1_555 1_555
C8 C9 1_555 1_555
C9 C10 1_555 1_555
C10 C11 1_555 1_555
C11 C12 1_555 1_555
C12 N2 1_555 1_555
C13 C11 1_555 1_555
H5 C13 1_555 1_555
C14 C9 1_555 1_555
H6 C14 1_555 1_555
C15 C16 1_555 1_555
C16 C17 1_555 1_555
C17 H7 1_555 1_555
C18 C17 1_555 1_555
C19 C18 1_555 1_555
H8 C19 1_555 1_555
C20 C19 1_555 1_555
H9 C20 1_555 1_555
C21 C16 1_555 1_555
H10 C21 1_555 1_555
C22 C23 1_555 1_555
C23 C24 1_555 1_555
C24 C25 1_555 1_555
C25 C26 1_555 1_555
C26 N1 1_555 1_555
C27 C25 1_555 1_555
H11 C27 1_555 1_555
C28 C23 1_555 1_555
H12 C28 1_555 1_555
C29 H13 1_555 1_555
H14 C29 1_555 1_555
H15 C29 1_555 1_555
C30 H16 1_555 1_555
H17 C30 1_555 1_555
H18 C30 1_555 1_555
C31 H19 1_555 1_555
H20 C31 1_555 1_555
H21 C31 1_555 1_555
C32 H22 1_555 1_555
H23 C32 1_555 1_555
H24 C32 1_555 1_555
C33 H25 1_555 1_555
C34 H26 1_555 1_555
Co1 O1 1_555 1_555
Co2 O4 1_555 1_555
N1 C18 1_555 1_555
N2 C6 1_555 1_555
N3 C31 1_555 1_555
N4 C29 1_555 1_555
O1 C15 1_555 1_555
O2 C15 1_555 1_555
O3 C1 1_555 1_555
O4 C1 1_555 1_555
O5 C34 1_555 1_555
O6 C33 1_555 1_555
O7 Co1 1_555 1_555
O8 C12 1_555 1_555
O9 C8 1_555 1_555
O10 C22 1_555 1_555
O11 C26 1_555 1_555
H27 O7 1_555 1_555
H28 O7 1_555 1_555
C1A C2A 1_555 1_555
C2A C3A 1_555 1_555
C3A H1A 1_555 1_555
C4A C3A 1_555 1_555
H2A C4A 1_555 1_555
C5A C4A 1_555 1_555
H3A C5A 1_555 1_555
C6A C5A 1_555 1_555
C7A C2A 1_555 1_555
H4A C7A 1_555 1_555
C8A C9A 1_555 1_555
C9A C10A 1_555 1_555
C10A C10 1_555 1_555
C11A C10A 1_555 1_555
C12A C11A 1_555 1_555
C13A C14 1_555 1_555
H5A C13A 1_555 1_555
C14A C13 1_555 1_555
H6A C14A 1_555 1_555
N2A C6A 1_555 1_555
O3A C1A 1_555 1_555
O4A C1A 1_555 1_555
O8A C12A 1_555 1_555
O9A C8A 1_555 1_555
C15A C16A 1_555 1_555
C16A C17A 1_555 1_555
C17A H7A 1_555 1_555
C18A C17A 1_555 1_555
C19A C18A 1_555 1_555
H8A C19A 1_555 1_555
C20A C19A 1_555 1_555
H9A C20A 1_555 1_555
C21A C16A 1_555 1_555
H10A C21A 1_555 1_555
C22A C23A 1_555 1_555
C23A C24A 1_555 1_555
C24A C24 1_555 1_555
C25A C24A 1_555 1_555
C26A C25A 1_555 1_555
C27A C28 1_555 1_555
H11A C27A 1_555 1_555
C28A C27 1_555 1_555
H12A C28A 1_555 1_555
N1A C18A 1_555 1_555
O1A C15A 1_555 1_555
O2A C15A 1_555 1_555
O10A C22A 1_555 1_555
O11A C26A 1_555 1_555
C29A H13A 1_555 1_555
H14A C29A 1_555 1_555
H15A C29A 1_555 1_555
C30A H16A 1_555 1_555
H17A C30A 1_555 1_555
H18A C30A 1_555 1_555
C34A H26A 1_555 1_555
N4A C29A 1_555 1_555
O5A Co2 1_555 1_555
C31A H19A 1_555 1_555
H20A C31A 1_555 1_555
H21A C31A 1_555 1_555
C32A H22A 1_555 1_555
H23A C32A 1_555 1_555
H24A C32A 1_555 1_555
C33A H25A 1_555 1_555
N3A C31A 1_555 1_555
O6A Co1 1_555 1_555
O7A Co1 1_555 1_555
H27A O7A 1_555 1_555
H28A O7A 1_555 1_555
Co1_2 O1A 1_555 1_555
Co2_2 O7A 1_555 1_555
Co2_3 O4A 1_555 1_555
O1A_2 Co1 1_555 1_555
O4A_2 Co2 1_555 1_555
O7A_2 Co2 1_555 1_555
C6 C7 1_555 1_555
C8 N2 1_555 1_555
C20 C21 1_555 1_555
C22 N1 1_555 1_555
C30 N4 1_555 1_555
C32 N3 1_555 1_555
C33 N3 1_555 1_555
C34 N4 1_555 1_555
Co1 O6 1_555 1_555
Co2 O5 1_555 1_555
Co2 O7 1_555 1_555
C6A C7A 1_555 1_555
C8A N2A 1_555 1_555
C9A C14A 1_555 1_555
C11A C13A 1_555 1_555
C12A N2A 1_555 1_555
C20A C21A 1_555 1_555
C22A N1A 1_555 1_555
C23A C28A 1_555 1_555
C25A C27A 1_555 1_555
C26A N1A 1_555 1_555
C30A N4A 1_555 1_555
C34A N4A 1_555 1_555
C34A O5A 1_555 1_555
C32A N3A 1_555 1_555
C33A N3A 1_555 1_555
C33A O6A 1_555 1_555

#END
