
#######################################################################
#
#                 Cambridge Crystallographic Data Centre
#                                CCDC 
#
#######################################################################
#
# If this CIF has been generated from an entry in the Cambridge 
# Structural Database, then it will include bibliographic, chemical, 
# crystal, experimental, refinement or atomic coordinate data resulting 
# from the CCDC's data processing and validation procedures.
#
#######################################################################

data_BIXYEO
_symmetry_cell_setting           monoclinic
_symmetry_space_group_name_H-M   'P 21/c'
_symmetry_Int_Tables_number      14
_space_group_name_Hall           '-P 2ybc'
loop_
_symmetry_equiv_pos_site_id
_symmetry_equiv_pos_as_xyz
1 x,y,z
2 -x,1/2+y,1/2-z
3 -x,-y,-z
4 x,1/2-y,1/2+z
_cell_length_a                   13.7014(10)
_cell_length_b                   13.1554(10)
_cell_length_c                   22.7273(17)
_cell_angle_alpha                90
_cell_angle_beta                 100.3660(10)
_cell_angle_gamma                90
_cell_volume                     4029.67
loop_
_atom_site_label
_atom_site_type_symbol
_atom_site_fract_x
_atom_site_fract_y
_atom_site_fract_z
O35 O 0.096(2) 0.660(2) 0.3262(12)
O36 O 0.214(2) 0.806(2) 0.3896(17)
O37 O -0.066(3) 0.602(4) 0.070(2)
O38 O 0.189(5) 0.299(6) 0.050(5)
O39 O 0.056(7) 0.206(7) 0.045(4)
O40 O 0.086(3) -0.084(3) 0.1028(13)
O41 O 0.4971(17) -0.0602(14) 0.5692(7)
O42 O 0.628(4) -0.003(4) 0.527(2)
Si1 Si 0.5000 0.5000 0.5000
W1 W 0.61763(7) 0.30098(6) 0.43764(4)
W2 W 0.49000(7) 0.25201(7) 0.55738(4)
W3 W 0.35508(7) 0.31079(7) 0.41311(4)
W4 W 0.36792(8) 0.55863(8) 0.35785(4)
W5 W 0.62935(7) 0.54855(8) 0.38009(4)
W6 W 0.76181(7) 0.48805(8) 0.52395(5)
Ce1 Ce 0.21878(8) 0.10085(8) 0.27619(5)
Ce2 Ce 0.27607(8) 0.60101(8) 0.17853(5)
O1 O 0.4976(18) 0.3856(19) 0.4808(11)
O2 O 0.5052(19) 0.570(2) 0.4395(12)
O3 O 0.6682(17) 0.2012(17) 0.4052(8)
O4 O 0.4840(16) 0.2814(17) 0.4018(10)
O5 O 0.6268(18) 0.4062(19) 0.3833(11)
O6 O 0.7284(19) 0.358(2) 0.4871(11)
O7 O 0.5853(14) 0.235(2) 0.5055(9)
O8 O 0.4870(14) 0.1332(15) 0.5845(9)
O9 O 0.3884(15) 0.244(2) 0.4876(9)
O10 O 0.3565(18) 0.4180(18) 0.3578(11)
O11 O 0.2552(19) 0.564(2) 0.3986(11)
O12 O 0.406(2) 0.684(2) 0.3914(12)
O13 O 0.4952(15) 0.5415(19) 0.3424(14)
O14 O 0.6887(12) 0.5704(13) 0.3228(8)
O15 O 0.604(2) 0.683(2) 0.4024(14)
O16 O 0.7310(19) 0.546(2) 0.4475(12)
O17 O 0.8821(19) 0.4811(16) 0.5333(11)
O18 O 0.753(2) 0.623(2) 0.5568(12)
O19 O 0.2891(14) 0.2199(15) 0.3694(8)
O20 O 0.3008(13) 0.5877(13) 0.2889(7)
O21 O 0.2271(15) 0.0109(16) 0.3760(8)
O22 O 0.1004(14) 0.0952(18) 0.1762(10)
O23 O 0.2763(11) 0.2595(12) 0.2362(7)
O24 O 0.2655(10) 0.4178(11) 0.2061(7)
O25 O 0.1078(11) 0.5663(12) 0.1990(8)
O26 O -0.0517(11) 0.5473(12) 0.2051(8)
O27 O 0.283(2) 0.487(2) 0.0860(10)
O28 O 0.136(2) 0.661(2) 0.0946(14)
O29 O 0.2090(13) 0.7677(12) 0.2104(8)
O30 O 0.2170(11) 0.9222(11) 0.2482(8)
O31 O 0.5514(10) 1.0282(11) 0.3113(7)
O32 O 0.3905(11) 1.0507(11) 0.3052(7)
N1 N 0.1077(14) 0.2600(15) 0.2766(9)
N2 N -0.0153(14) 0.3696(15) 0.2646(9)
H1 H -0.0725 0.3956 0.2659
N3 N 0.5309(13) 0.8379(13) 0.2665(8)
H2 H 0.5915 0.8555 0.2791
N4 N 0.4036(13) 0.7434(13) 0.2268(8)
C1 C 0.0151(17) 0.2789(17) 0.2851(11)
H3 H -0.0228 0.2339 0.3031
C2 C 0.1329(15) 0.3461(16) 0.2475(9)
C3 C 0.0564(15) 0.4143(16) 0.2418(9)
C4 C 0.0371(15) 0.5181(15) 0.2123(9)
C5 C 0.2304(15) 0.3431(16) 0.2288(9)
C6 C 0.4999(15) 0.7512(18) 0.2399(10)
H4 H 0.5427 0.7007 0.2314
C7 C 0.4457(13) 0.8953(14) 0.2702(8)
C8 C 0.3680(14) 0.8344(15) 0.2470(8)
C9 C 0.2590(15) 0.8391(16) 0.2343(9)
C10 C 0.4651(14) 1.0001(15) 0.2971(9)
O33 O 0.395(2) 0.473(2) 0.4534(13)
O34 O 0.596(2) 0.465(2) 0.4720(12)
O1B O 0.5024(18) 0.6144(19) 0.5192(11)
O2B O 0.4948(19) 0.430(2) 0.5605(12)
O33B O 0.605(2) 0.527(2) 0.5466(13)
O34B O 0.404(2) 0.535(2) 0.5280(12)
W1B W 0.38237(7) 0.69902(6) 0.56236(4)
W2B W 0.51000(7) 0.74799(7) 0.44262(4)
W3B W 0.64492(7) 0.68921(7) 0.58689(4)
W4B W 0.63208(8) 0.44137(8) 0.64215(4)
W5B W 0.37065(7) 0.45145(8) 0.61991(4)
W6B W 0.23819(7) 0.51195(8) 0.47605(5)
Ce1B Ce 0.78122(8) 0.89915(8) 0.72381(5)
Ce2B Ce 0.72393(8) 0.39899(8) 0.82147(5)
O3B O 0.3318(17) 0.7988(17) 0.5948(8)
O4B O 0.5160(16) 0.7186(17) 0.5982(10)
O5B O 0.3732(18) 0.5938(19) 0.6167(11)
O6B O 0.2716(19) 0.642(2) 0.5129(11)
O7B O 0.4147(14) 0.765(2) 0.4945(9)
O8B O 0.5130(14) 0.8668(15) 0.4155(9)
O9B O 0.6116(15) 0.756(2) 0.5124(9)
O10B O 0.6435(18) 0.5820(18) 0.6422(11)
O11B O 0.7448(19) 0.436(2) 0.6014(11)
O12B O 0.594(2) 0.316(2) 0.6086(12)
O13B O 0.5048(15) 0.4585(19) 0.6576(14)
O14B O 0.3113(12) 0.4296(13) 0.6772(8)
O15B O 0.396(2) 0.317(2) 0.5976(14)
O16B O 0.2690(19) 0.454(2) 0.5525(12)
O17B O 0.1179(19) 0.5189(16) 0.4667(11)
O18B O 0.247(2) 0.377(2) 0.4432(12)
O19B O 0.7109(14) 0.7801(15) 0.6306(8)
O20B O 0.6992(13) 0.4123(13) 0.7111(7)
O21B O 0.7729(15) 0.9891(16) 0.6240(8)
O22B O 0.8996(14) 0.9048(18) 0.8238(10)
O23B O 0.7237(11) 0.7405(12) 0.7638(7)
O24B O 0.7345(10) 0.5822(11) 0.7939(7)
O25B O 0.8922(11) 0.4337(12) 0.8010(8)
O26B O 1.0517(11) 0.4527(12) 0.7949(8)
O27B O 0.717(2) 0.513(2) 0.9140(10)
O28B O 0.864(2) 0.339(2) 0.9054(14)
O29B O 0.7910(13) 0.2323(12) 0.7896(8)
O30B O 0.7830(11) 0.0778(11) 0.7518(8)
O31B O 0.4486(10) -0.0282(11) 0.6887(7)
O32B O 0.6095(11) -0.0507(11) 0.6948(7)
N1B N 0.8923(14) 0.7400(15) 0.7234(9)
N2B N 1.0153(14) 0.6304(15) 0.7354(9)
H1B H 1.0725 0.6044 0.7341
N3B N 0.4691(13) 0.1621(13) 0.7335(8)
H2B H 0.4085 0.1445 0.7209
N4B N 0.5964(13) 0.2566(13) 0.7732(8)
C1B C 0.9849(17) 0.7211(17) 0.7149(11)
H3B H 1.0228 0.7661 0.6969
C2B C 0.8671(15) 0.6539(16) 0.7525(9)
C3B C 0.9436(15) 0.5857(16) 0.7582(9)
C4B C 0.9629(15) 0.4819(15) 0.7877(9)
C5B C 0.7696(15) 0.6569(16) 0.7712(9)
C6B C 0.5001(15) 0.2488(18) 0.7601(10)
H4B H 0.4573 0.2993 0.7686
C7B C 0.5543(13) 0.1047(14) 0.7298(8)
C8B C 0.6320(14) 0.1656(15) 0.7530(8)
C9B C 0.7410(15) 0.1609(16) 0.7657(9)
C10B C 0.5349(14) -0.0001(15) 0.7029(9)
Ce1_2 Ce 0.21878(8) 1.10085(8) 0.27619(5)
Ce1A Ce -0.21878(8) 0.60085(8) 0.22381(5)
Ce1A_2 Ce 0.78122(8) 0.60085(8) 0.22381(5)
Ce1B_2 Ce 0.78122(8) -0.10085(8) 0.72381(5)
Ce1C Ce 0.21878(8) 0.39915(8) 0.77619(5)
Ce1C_2 Ce 1.21878(8) 0.39915(8) 0.77619(5)
Ce2A Ce 0.72393(8) 0.10101(8) 0.32147(5)
Ce2A_2 Ce 0.72393(8) 1.10101(8) 0.32147(5)
Ce2C Ce 0.27607(8) -0.10101(8) 0.67853(5)
Ce2C_2 Ce 0.27607(8) 0.89899(8) 0.67853(5)
O3A O 0.3318(17) 0.7012(17) 0.0948(8)
O3C O 0.6682(17) 0.2988(17) 0.9052(8)
O14A O 0.3113(12) 0.0704(13) 0.1772(8)
O14C O 0.6887(12) 0.9296(13) 0.8228(8)
O26A O 0.0517(11) 0.0473(12) 0.2949(8)
O26C O 0.9483(11) 0.9527(12) 0.7051(8)
O30_2 O 0.2170(11) -0.0778(11) 0.2482(8)
O30B_2 O 0.7830(11) 1.0778(11) 0.7518(8)
O31A O 0.4486(10) 0.5282(11) 0.1887(7)
O31C O 0.5514(10) 0.4718(11) 0.8113(7)
O32_2 O 0.3905(11) 0.0507(11) 0.3052(7)
O32B_2 O 0.6095(11) 0.9493(11) 0.6948(7)
loop_
_geom_bond_atom_site_label_1
_geom_bond_atom_site_label_2
_geom_bond_site_symmetry_1
_geom_bond_site_symmetry_2
Si1 O1 1_555 1_555
W1 O1 1_555 1_555
W2 O1 1_555 1_555
W3 O1 1_555 1_555
W4 O2 1_555 1_555
W5 O2 1_555 1_555
W6 O6 1_555 1_555
Ce1 O19 1_555 1_555
Ce2 O20 1_555 1_555
O1 O34 1_555 1_555
O2 Si1 1_555 1_555
O3 W1 1_555 1_555
O4 W1 1_555 1_555
O5 W1 1_555 1_555
O6 W1 1_555 1_555
O7 W1 1_555 1_555
O8 W2 1_555 1_555
O9 W2 1_555 1_555
O10 W3 1_555 1_555
O11 W4 1_555 1_555
O12 W4 1_555 1_555
O13 W4 1_555 1_555
O14 W5 1_555 1_555
O15 W5 1_555 1_555
O16 W5 1_555 1_555
O17 W6 1_555 1_555
O18 W6 1_555 1_555
O19 W3 1_555 1_555
O20 W4 1_555 1_555
O21 Ce1 1_555 1_555
O22 Ce1 1_555 1_555
O23 Ce1 1_555 1_555
O24 Ce2 1_555 1_555
O25 Ce2 1_555 1_555
O26 C4 1_555 1_555
O27 Ce2 1_555 1_555
O28 Ce2 1_555 1_555
O29 Ce2 1_555 1_555
O30 C9 1_555 1_555
O31 C10 1_555 1_555
O32 C10 1_555 1_555
N1 Ce1 1_555 1_555
N2 H1 1_555 1_555
N3 H2 1_555 1_555
N4 Ce2 1_555 1_555
C1 N1 1_555 1_555
H3 C1 1_555 1_555
C2 N1 1_555 1_555
C3 N2 1_555 1_555
C4 O25 1_555 1_555
C5 O23 1_555 1_555
C6 N3 1_555 1_555
H4 C6 1_555 1_555
C7 N3 1_555 1_555
C8 N4 1_555 1_555
C9 O29 1_555 1_555
C10 C7 1_555 1_555
O33 Si1 1_555 1_555
O34 Si1 1_555 1_555
O1B Si1 1_555 1_555
O2B Si1 1_555 1_555
O33B Si1 1_555 1_555
O34B Si1 1_555 1_555
W1B O1B 1_555 1_555
W2B O2 1_555 1_555
W3B O18 1_555 1_555
W4B O2B 1_555 1_555
W5B O2B 1_555 1_555
W6B O11 1_555 1_555
Ce1B O19B 1_555 1_555
Ce2B O20B 1_555 1_555
O3B W1B 1_555 1_555
O4B W1B 1_555 1_555
O5B W1B 1_555 1_555
O6B W1B 1_555 1_555
O7B W1B 1_555 1_555
O8B W2B 1_555 1_555
O9B W2B 1_555 1_555
O10B W3B 1_555 1_555
O11B W6 1_555 1_555
O12B W2 1_555 1_555
O13B W4B 1_555 1_555
O14B W5B 1_555 1_555
O15B W2 1_555 1_555
O16B W5B 1_555 1_555
O17B W6B 1_555 1_555
O18B W3 1_555 1_555
O19B W3B 1_555 1_555
O20B W4B 1_555 1_555
O21B Ce1B 1_555 1_555
O22B Ce1B 1_555 1_555
O23B Ce1B 1_555 1_555
O24B Ce2B 1_555 1_555
O25B Ce2B 1_555 1_555
O26B C4B 1_555 1_555
O27B Ce2B 1_555 1_555
O28B Ce2B 1_555 1_555
O29B Ce2B 1_555 1_555
O30B C9B 1_555 1_555
O31B C10B 1_555 1_555
O32B C10B 1_555 1_555
N1B Ce1B 1_555 1_555
N2B H1B 1_555 1_555
N3B H2B 1_555 1_555
N4B Ce2B 1_555 1_555
C1B N1B 1_555 1_555
H3B C1B 1_555 1_555
C2B N1B 1_555 1_555
C3B N2B 1_555 1_555
C4B O25B 1_555 1_555
C5B O23B 1_555 1_555
C6B N3B 1_555 1_555
H4B C6B 1_555 1_555
C7B N3B 1_555 1_555
C8B N4B 1_555 1_555
C9B O29B 1_555 1_555
C10B C7B 1_555 1_555
Ce1_2 O30 1_555 1_555
Ce1A O26 1_555 1_555
Ce1A_2 O14 1_555 1_555
Ce1B_2 O30B 1_555 1_555
Ce1C O14B 1_555 1_555
Ce1C_2 O26B 1_555 1_555
Ce2A O3 1_555 1_555
Ce2A_2 O31 1_555 1_555
Ce2C O31B 1_555 1_555
Ce2C_2 O3B 1_555 1_555
O3A Ce2 1_555 1_555
O3C Ce2B 1_555 1_555
O14A Ce1 1_555 1_555
O14C Ce1B 1_555 1_555
O26A Ce1 1_555 1_555
O26C Ce1B 1_555 1_555
O30_2 Ce1 1_555 1_555
O30B_2 Ce1B 1_555 1_555
O31A Ce2 1_555 1_555
O31C Ce2B 1_555 1_555
O32_2 Ce1 1_555 1_555
O32B_2 Ce1B 1_555 1_555
W1 O34 1_555 1_555
W2 O7 1_555 1_555
W2 O2B 1_555 1_555
W3 O4 1_555 1_555
W3 O9 1_555 1_555
W3 O33 1_555 1_555
W4 O10 1_555 1_555
W4 O33 1_555 1_555
W5 O5 1_555 1_555
W5 O13 1_555 1_555
W5 O34 1_555 1_555
W6 O16 1_555 1_555
W6 O34 1_555 1_555
W6 O33B 1_555 1_555
O12 W2B 1_555 1_555
O15 W2B 1_555 1_555
O24 C5 1_555 1_555
O32 Ce1_2 1_555 1_555
N2 C1 1_555 1_555
N4 C6 1_555 1_555
C2 C3 1_555 1_555
C2 C5 1_555 1_555
C3 C4 1_555 1_555
C7 C8 1_555 1_555
C8 C9 1_555 1_555
O33 W6B 1_555 1_555
O1B O34B 1_555 1_555
O1B W2B 1_555 1_555
O1B W3B 1_555 1_555
O33B W3B 1_555 1_555
O33B W4B 1_555 1_555
O34B W1B 1_555 1_555
O34B W5B 1_555 1_555
O34B W6B 1_555 1_555
W2B O7B 1_555 1_555
W3B O4B 1_555 1_555
W3B O9B 1_555 1_555
W4B O10B 1_555 1_555
W4B O11B 1_555 1_555
W4B O12B 1_555 1_555
W5B O5B 1_555 1_555
W5B O13B 1_555 1_555
W5B O15B 1_555 1_555
W6B O6B 1_555 1_555
W6B O16B 1_555 1_555
W6B O18B 1_555 1_555
O24B C5B 1_555 1_555
O32B Ce1B_2 1_555 1_555
N2B C1B 1_555 1_555
N4B C6B 1_555 1_555
C2B C3B 1_555 1_555
C2B C5B 1_555 1_555
C3B C4B 1_555 1_555
C7B C8B 1_555 1_555
C8B C9B 1_555 1_555

#END
