
#######################################################################
#
#                 Cambridge Crystallographic Data Centre
#                                CCDC 
#
#######################################################################
#
# If this CIF has been generated from an entry in the Cambridge 
# Structural Database, then it will include bibliographic, chemical, 
# crystal, experimental, refinement or atomic coordinate data resulting 
# from the CCDC's data processing and validation procedures.
#
#######################################################################

data_BIYHIB
_symmetry_cell_setting           monoclinic
_symmetry_space_group_name_H-M   'C 2/c'
_symmetry_Int_Tables_number      15
_space_group_name_Hall           '-C 2yn'
loop_
_symmetry_equiv_pos_site_id
_symmetry_equiv_pos_as_xyz
1 x,y,z
2 1/2+x,1/2+y,z
3 -x,y,1/2-z
4 1/2-x,1/2+y,1/2-z
5 -x,-y,-z
6 1/2-x,1/2-y,-z
7 x,-y,1/2+z
8 1/2+x,1/2-y,1/2+z
_cell_length_a                   19.077(2)
_cell_length_b                   6.0498(7)
_cell_length_c                   15.5764(18)
_cell_angle_alpha                90
_cell_angle_beta                 103.184(2)
_cell_angle_gamma                90
_cell_volume                     1750.32
loop_
_atom_site_label
_atom_site_type_symbol
_atom_site_fract_x
_atom_site_fract_y
_atom_site_fract_z
H1 H 0.032(3) -0.724(7) -0.441(4)
H2 H 0.054(3) -0.848(10) -0.374(3)
H3 H 0.220(3) -0.281(9) -0.177(4)
H4 H 0.2145(19) 0.187(7) -0.072(2)
H5 H 0.0993(19) -0.007(6) -0.045(2)
H6 H 0.139(2) -0.219(6) -0.021(3)
H7 H 0.242(2) -0.024(7) -0.027(3)
C1 C 0.11189(18) -0.1380(6) -0.0694(2)
C2 C 0.16048(17) -0.0914(5) -0.1335(2)
C3 C 0.11879(18) 0.0440(5) -0.2128(2)
O1 O 0.33863(13) 0.1827(5) -0.10277(19)
Er1 Er 0.091930(7) -0.44062(2) -0.295350(9)
C4 C 0.2269(2) 0.0359(6) -0.0837(3)
O2 O 0.09131(13) -0.0609(3) -0.28210(18)
O3 O -0.00628(12) -0.2676(4) -0.06654(15)
O4 O 0.05280(17) -0.7257(5) -0.3913(2)
O5 O 0.18016(12) -0.3002(4) -0.16625(16)
C5 C 0.28835(19) 0.0518(5) -0.1301(3)
O6 O 0.11310(14) 0.2480(4) -0.20439(16)
O7 O 0.03818(12) -0.3829(4) -0.17510(15)
C6 C 0.04434(16) -0.2707(5) -0.1047(2)
O8 O 0.28905(15) -0.0733(4) -0.1956(2)
O1C O 0.16137(13) -0.3173(5) -0.39723(19)
Er1C Er 0.408070(7) 0.05938(2) -0.204650(9)
Er1B Er -0.091930(7) -0.44062(2) -0.204650(9)
Er1_2 Er 0.091930(7) 0.55938(2) -0.295350(9)
O3B O 0.00628(12) -0.2676(4) -0.43346(15)
O6_2 O 0.11310(14) -0.7520(4) -0.20439(16)
O7B O -0.03818(12) -0.3829(4) -0.32490(15)
O8C O 0.21095(15) -0.5733(4) -0.3044(2)
loop_
_geom_bond_atom_site_label_1
_geom_bond_atom_site_label_2
_geom_bond_site_symmetry_1
_geom_bond_site_symmetry_2
H1 O4 1_555 1_555
H2 O4 1_555 1_555
H3 O5 1_555 1_555
H4 C4 1_555 1_555
H5 C1 1_555 1_555
H6 C1 1_555 1_555
H7 C4 1_555 1_555
C1 C2 1_555 1_555
C2 C3 1_555 1_555
C3 O2 1_555 1_555
O1 C5 1_555 1_555
Er1 O2 1_555 1_555
C4 C2 1_555 1_555
O3 C6 1_555 1_555
O4 Er1 1_555 1_555
O5 C2 1_555 1_555
C5 C4 1_555 1_555
O6 C3 1_555 1_555
O7 Er1 1_555 1_555
C6 C1 1_555 1_555
O8 C5 1_555 1_555
O1C Er1 1_555 1_555
Er1C O1 1_555 1_555
Er1B O3 1_555 1_555
Er1_2 O6 1_555 1_555
O3B Er1 1_555 1_555
O6_2 Er1 1_555 1_555
O7B Er1 1_555 1_555
O8C Er1 1_555 1_555
Er1 O5 1_555 1_555
O7 C6 1_555 1_555
O7 Er1B 1_555 1_555
O8 Er1C 1_555 1_555
Er1B O7B 1_555 1_555

#END
