
#######################################################################
#
#                 Cambridge Crystallographic Data Centre
#                                CCDC 
#
#######################################################################
#
# If this CIF has been generated from an entry in the Cambridge 
# Structural Database, then it will include bibliographic, chemical, 
# crystal, experimental, refinement or atomic coordinate data resulting 
# from the CCDC's data processing and validation procedures.
#
#######################################################################

data_BIYJOJ01
_symmetry_cell_setting           orthorhombic
_symmetry_space_group_name_H-M   'P b c a'
_symmetry_Int_Tables_number      61
_space_group_name_Hall           '-P 2ac 2ab'
loop_
_symmetry_equiv_pos_site_id
_symmetry_equiv_pos_as_xyz
1 x,y,z
2 1/2-x,-y,1/2+z
3 -x,1/2+y,1/2-z
4 1/2+x,1/2-y,-z
5 -x,-y,-z
6 1/2+x,y,1/2-z
7 x,1/2-y,1/2+z
8 1/2-x,1/2+y,z
_cell_length_a                   18.0955(12)
_cell_length_b                   9.0501(6)
_cell_length_c                   22.5878(15)
_cell_angle_alpha                90
_cell_angle_beta                 90
_cell_angle_gamma                90
_cell_volume                     3699.12
loop_
_atom_site_label
_atom_site_type_symbol
_atom_site_fract_x
_atom_site_fract_y
_atom_site_fract_z
Co1 Co 0.176422(10) 0.18095(2) 0.331829(8)
S1 S -0.08467(3) 0.02372(5) 0.37638(2)
S2 S -0.08672(3) 0.08917(5) 0.50778(2)
S3 S -0.05968(3) 0.33856(5) 0.59960(2)
O1 O 0.06246(6) 0.14736(12) 0.33301(5)
O2 O 0.01189(7) 0.33897(15) 0.28499(7)
O3 O -0.20714(6) 0.29073(11) 0.66347(4)
O4 O -0.19858(6) 0.04598(12) 0.65920(5)
O5 O 0.15078(7) 0.40488(13) 0.31579(6)
N1 N -0.06627(9) 0.28906(16) 0.42892(7)
N2 N -0.06182(9) 0.36020(16) 0.48296(7)
N3 N 0.17817(7) 0.20761(14) 0.42598(5)
N4 N 0.18397(7) 0.33293(14) 0.73684(5)
C1 C 0.00908(9) 0.21830(18) 0.31115(7)
C2 C -0.06746(9) 0.1460(2) 0.31469(8)
H1 H -0.0753 0.0906 0.2785
H2 H -0.1042 0.2241 0.3158
C3 C -0.07849(9) 0.14857(18) 0.43475(8)
C4 C -0.07061(9) 0.27138(17) 0.52759(8)
C5 C -0.08834(9) 0.18440(18) 0.64529(8)
H3 H -0.0715 0.0937 0.6268
H4 H -0.0637 0.1923 0.6833
C6 C -0.17131(8) 0.17239(16) 0.65600(6)
C7 C 0.12530(8) 0.28584(17) 0.45327(6)
H5 H 0.0863 0.3220 0.4307
C8 C 0.12575(8) 0.31554(17) 0.51337(6)
H6 H 0.0873 0.3689 0.5304
C9 C 0.18397(8) 0.26531(16) 0.54834(6)
C10 C 0.23852(8) 0.18208(18) 0.51996(7)
H7 H 0.2781 0.1446 0.5415
C11 C 0.23342(8) 0.15563(19) 0.45973(7)
H8 H 0.2700 0.0991 0.4418
C12 C 0.18613(8) 0.29527(16) 0.61307(6)
C13 C 0.13835(8) 0.39550(17) 0.64038(6)
H9 H 0.1062 0.4522 0.6176
C14 C 0.13892(9) 0.41019(17) 0.70160(6)
H10 H 0.1064 0.4770 0.7189
C15 C 0.23083(9) 0.2382(2) 0.71056(7)
H11 H 0.2627 0.1836 0.7343
C16 C 0.23405(9) 0.2179(2) 0.65004(7)
H12 H 0.2682 0.1525 0.6340
H13 H 0.1063(9) 0.411(2) 0.3049(9)
H14 H 0.1667(13) 0.489(2) 0.3264(10)
Co1C Co -0.323578(10) 0.31905(2) 0.668171(8)
Co1D Co -0.176422(10) -0.18095(2) 0.668171(8)
Co1F Co 0.176422(10) 0.31905(2) 0.831829(8)
O3C O 0.29286(6) 0.20927(11) 0.33653(4)
O4D O 0.19858(6) -0.04598(12) 0.34080(5)
N4F N 0.18397(7) 0.16707(14) 0.23684(5)
loop_
_geom_bond_atom_site_label_1
_geom_bond_atom_site_label_2
_geom_bond_site_symmetry_1
_geom_bond_site_symmetry_2
Co1 O1 1_555 1_555
S1 C2 1_555 1_555
S2 C3 1_555 1_555
S3 C4 1_555 1_555
O1 C1 1_555 1_555
O2 C1 1_555 1_555
O3 C6 1_555 1_555
O4 C6 1_555 1_555
O5 Co1 1_555 1_555
N1 N2 1_555 1_555
N2 C4 1_555 1_555
N3 Co1 1_555 1_555
N4 C14 1_555 1_555
C1 C2 1_555 1_555
C2 H1 1_555 1_555
H2 C2 1_555 1_555
C3 S1 1_555 1_555
C4 S2 1_555 1_555
C5 S3 1_555 1_555
H3 C5 1_555 1_555
H4 C5 1_555 1_555
C6 C5 1_555 1_555
C7 N3 1_555 1_555
H5 C7 1_555 1_555
C8 C7 1_555 1_555
H6 C8 1_555 1_555
C9 C8 1_555 1_555
C10 C9 1_555 1_555
H7 C10 1_555 1_555
C11 N3 1_555 1_555
H8 C11 1_555 1_555
C12 C9 1_555 1_555
C13 C12 1_555 1_555
H9 C13 1_555 1_555
C14 C13 1_555 1_555
H10 C14 1_555 1_555
C15 N4 1_555 1_555
H11 C15 1_555 1_555
C16 C12 1_555 1_555
H12 C16 1_555 1_555
H13 O5 1_555 1_555
H14 O5 1_555 1_555
Co1C O3 1_555 1_555
Co1D O4 1_555 1_555
Co1F N4 1_555 1_555
O3C Co1 1_555 1_555
O4D Co1 1_555 1_555
N4F Co1 1_555 1_555
N1 C3 1_555 1_555
C10 C11 1_555 1_555
C15 C16 1_555 1_555

#END
