
#######################################################################
#
#                 Cambridge Crystallographic Data Centre
#                                CCDC 
#
#######################################################################
#
# If this CIF has been generated from an entry in the Cambridge 
# Structural Database, then it will include bibliographic, chemical, 
# crystal, experimental, refinement or atomic coordinate data resulting 
# from the CCDC's data processing and validation procedures.
#
#######################################################################

data_BIYJAV01
_symmetry_cell_setting           monoclinic
_symmetry_space_group_name_H-M   'P 21/n'
_symmetry_Int_Tables_number      14
_space_group_name_Hall           '-P 2yn'
loop_
_symmetry_equiv_pos_site_id
_symmetry_equiv_pos_as_xyz
1 x,y,z
2 1/2-x,1/2+y,1/2-z
3 -x,-y,-z
4 1/2+x,1/2-y,1/2+z
_cell_length_a                   12.5419(14)
_cell_length_b                   8.4934(10)
_cell_length_c                   15.700(2)
_cell_angle_alpha                90
_cell_angle_beta                 113.374(3)
_cell_angle_gamma                90
_cell_volume                     1535.17
loop_
_atom_site_label
_atom_site_type_symbol
_atom_site_fract_x
_atom_site_fract_y
_atom_site_fract_z
Cd1 Cd 0.673372(11) 0.546110(15) 0.203658(8)
S1 S 0.85587(4) 0.57265(6) -0.04155(3)
S2 S 0.93899(5) 0.59065(7) -0.19815(4)
S3 S 0.90988(4) 0.78018(6) -0.37567(3)
O1 O 0.60852(11) 0.64802(18) 0.04348(9)
O2 O 0.78747(14) 0.5621(2) 0.11448(11)
O3 O 1.14349(13) 0.44045(16) -0.32515(11)
O4 O 1.16692(11) 0.68336(15) -0.27345(8)
O5 O 0.55917(14) 0.34547(17) 0.12828(10)
N1 N 0.77806(18) 0.7652(3) -0.18982(13)
N2 N 0.79141(18) 0.8097(3) -0.27026(14)
N3 N 0.61080(14) 0.5116(2) 0.32364(11)
C1 C 0.70920(16) 0.6225(2) 0.04674(12)
C2 C 0.73285(17) 0.6753(3) -0.03640(14)
H1 H 0.7478 0.7877 -0.0323
H2 H 0.6649 0.6553 -0.0928
C3 C 0.84815(16) 0.6536(2) -0.14618(13)
C4 C 0.87241(15) 0.7310(2) -0.28263(12)
C5 C 0.97933(15) 0.6026(2) -0.39030(12)
H3 H 0.9344 0.5136 -0.3840
H4 H 0.9755 0.6011 -0.4532
C6 C 1.10552(15) 0.5775(2) -0.32419(12)
C7 C 0.6503(2) 0.6083(3) 0.39650(15)
H5 H 0.7076 0.6807 0.4001
C8 C 0.61042(19) 0.6067(3) 0.46730(15)
H6 H 0.6416 0.6755 0.5171
C9 C 0.52359(16) 0.5016(2) 0.46331(12)
C10 C 0.4840(2) 0.4002(3) 0.38774(14)
H7 H 0.4268 0.3265 0.3822
C11 C 0.5292(2) 0.4084(3) 0.32060(14)
H8 H 0.5015 0.3386 0.2710
H9 H 0.586(2) 0.2523(16) 0.1434(15)
H10 H 0.5107(17) 0.355(3) 0.0717(8)
Cd1B Cd 1.326628(11) 0.453890(15) -0.203658(8)
Cd1C Cd 1.173372(11) 0.953890(15) -0.296342(8)
Cd1B_2 Cd 0.326628(11) 0.453890(15) 0.796342(8)
Cd1A Cd 0.826628(11) 0.046110(15) 0.296342(8)
S1B S 1.14413(4) 0.42735(6) 0.04155(3)
S2B S 1.06101(5) 0.40935(7) 0.19815(4)
S3B S 1.09012(4) 0.21982(6) 0.37567(3)
O1B O 1.39148(11) 0.35198(18) -0.04348(9)
O2B O 1.21253(14) 0.4379(2) -0.11448(11)
O3B O 0.85651(13) 0.55955(16) 0.32515(11)
O4B O 0.83308(11) 0.31664(15) 0.27345(8)
O4C O 0.66692(11) 0.81664(15) 0.22655(8)
O4A O 1.33308(11) 0.18336(15) -0.22655(8)
O5B O 1.44083(14) 0.65453(17) -0.12828(10)
N1B N 1.22194(18) 0.2348(3) 0.18982(13)
N2B N 1.20859(18) 0.1903(3) 0.27026(14)
N3B N 0.38920(14) 0.4884(2) 0.67636(11)
N3B_2 N 1.38920(14) 0.4884(2) -0.32364(11)
C1B C 1.29080(16) 0.3775(2) -0.04674(12)
C2B C 1.26715(17) 0.3247(3) 0.03640(14)
H1B H 1.2522 0.2123 0.0323
H2B H 1.3351 0.3447 0.0928
C3B C 1.15185(16) 0.3464(2) 0.14618(13)
C4B C 1.12759(15) 0.2690(2) 0.28263(12)
C5B C 1.02067(15) 0.3974(2) 0.39030(12)
H3B H 1.0656 0.4864 0.3840
H4B H 1.0245 0.3989 0.4532
C6B C 0.89448(15) 0.4225(2) 0.32419(12)
C7B C 0.3497(2) 0.3917(3) 0.60350(15)
H5B H 0.2924 0.3193 0.5999
C8B C 0.38958(19) 0.3933(3) 0.53270(15)
H6B H 0.3584 0.3245 0.4829
C9B C 0.47641(16) 0.4984(2) 0.53669(12)
C10B C 0.5160(2) 0.5998(3) 0.61226(14)
H7B H 0.5732 0.6735 0.6178
C11B C 0.4708(2) 0.5916(3) 0.67940(14)
H8B H 0.4985 0.6614 0.7290
H9B H 1.414(2) 0.7477(16) -0.1434(15)
H10B H 1.4893(17) 0.645(3) -0.0717(8)
loop_
_geom_bond_atom_site_label_1
_geom_bond_atom_site_label_2
_geom_bond_site_symmetry_1
_geom_bond_site_symmetry_2
Cd1 O1 1_555 1_555
S1 C2 1_555 1_555
S2 C3 1_555 1_555
S3 C4 1_555 1_555
O1 C1 1_555 1_555
O2 Cd1 1_555 1_555
O3 C6 1_555 1_555
O4 C6 1_555 1_555
O5 Cd1 1_555 1_555
N1 N2 1_555 1_555
N2 C4 1_555 1_555
N3 Cd1 1_555 1_555
C1 O2 1_555 1_555
C2 C1 1_555 1_555
H1 C2 1_555 1_555
H2 C2 1_555 1_555
C3 S1 1_555 1_555
C4 S2 1_555 1_555
C5 S3 1_555 1_555
H3 C5 1_555 1_555
H4 C5 1_555 1_555
C6 C5 1_555 1_555
C7 N3 1_555 1_555
H5 C7 1_555 1_555
C8 C7 1_555 1_555
H6 C8 1_555 1_555
C9 C8 1_555 1_555
C10 C9 1_555 1_555
H7 C10 1_555 1_555
C11 N3 1_555 1_555
H8 C11 1_555 1_555
H9 O5 1_555 1_555
H10 O5 1_555 1_555
Cd1B O3 1_555 1_555
Cd1C O4 1_555 1_555
Cd1B_2 N3B 1_555 1_555
Cd1A O4B 1_555 1_555
S1B C2B 1_555 1_555
S2B C3B 1_555 1_555
S3B C4B 1_555 1_555
O1B Cd1B 1_555 1_555
O2B Cd1B 1_555 1_555
O3B Cd1 1_555 1_555
O4B Cd1 1_555 1_555
O4C Cd1 1_555 1_555
O4A Cd1B 1_555 1_555
O5B Cd1B 1_555 1_555
N1B N2B 1_555 1_555
N2B C4B 1_555 1_555
N3B C7B 1_555 1_555
N3B_2 Cd1B 1_555 1_555
C1B O1B 1_555 1_555
C2B C1B 1_555 1_555
H1B C2B 1_555 1_555
H2B C2B 1_555 1_555
C3B S1B 1_555 1_555
C4B S2B 1_555 1_555
C5B S3B 1_555 1_555
H3B C5B 1_555 1_555
H4B C5B 1_555 1_555
C6B O3B 1_555 1_555
C7B H5B 1_555 1_555
C8B C7B 1_555 1_555
H6B C8B 1_555 1_555
C9B C9 1_555 1_555
C10B C9B 1_555 1_555
H7B C10B 1_555 1_555
C11B N3B 1_555 1_555
H8B C11B 1_555 1_555
H9B O5B 1_555 1_555
H10B O5B 1_555 1_555
O4 Cd1B 1_555 1_555
N1 C3 1_555 1_555
C10 C11 1_555 1_555
O2B C1B 1_555 1_555
O4B C6B 1_555 1_555
N1B C3B 1_555 1_555
C5B C6B 1_555 1_555
C8B C9B 1_555 1_555
C10B C11B 1_555 1_555

#END
