
#######################################################################
#
#                 Cambridge Crystallographic Data Centre
#                                CCDC 
#
#######################################################################
#
# If this CIF has been generated from an entry in the Cambridge 
# Structural Database, then it will include bibliographic, chemical, 
# crystal, experimental, refinement or atomic coordinate data resulting 
# from the CCDC's data processing and validation procedures.
#
#######################################################################

data_BIYJID01
_symmetry_cell_setting           orthorhombic
_symmetry_space_group_name_H-M   'P b c a'
_symmetry_Int_Tables_number      61
_space_group_name_Hall           '-P 2ac 2ab'
loop_
_symmetry_equiv_pos_site_id
_symmetry_equiv_pos_as_xyz
1 x,y,z
2 1/2-x,-y,1/2+z
3 -x,1/2+y,1/2-z
4 1/2+x,1/2-y,-z
5 -x,-y,-z
6 1/2+x,y,1/2-z
7 x,1/2-y,1/2+z
8 1/2-x,1/2+y,z
_cell_length_a                   18.1657(9)
_cell_length_b                   9.0882(5)
_cell_length_c                   22.9333(12)
_cell_angle_alpha                90
_cell_angle_beta                 90
_cell_angle_gamma                90
_cell_volume                     3786.14
loop_
_atom_site_label
_atom_site_type_symbol
_atom_site_fract_x
_atom_site_fract_y
_atom_site_fract_z
Mn1 Mn 0.176420(11) 0.33894(2) 1.169300(9)
S1 S 0.05714(2) 0.85680(4) 1.09712(2)
S2 S 0.08383(3) 0.59584(4) 1.012300(19)
S3 S 0.08548(2) 0.51414(5) 0.88439(2)
O1 O 0.19486(6) 0.57392(12) 1.16068(6)
O2 O 0.20244(6) 0.81690(11) 1.16510(4)
O3 O -0.00628(7) 0.81629(15) 0.78606(6)
O4 O -0.05890(6) 0.63081(12) 0.83481(5)
O5 O 0.14669(7) 0.10835(12) 1.18827(6)
N1 N 0.06111(8) 0.86280(15) 0.98213(7)
N2 N 0.06631(8) 0.78478(15) 0.93032(6)
N3 N 0.18084(7) 0.30191(14) 1.07195(5)
N4 N 0.18552(7) 0.14938(14) 0.76793(5)
C1 C 0.16711(8) 0.69894(15) 1.15745(6)
C2 C 0.08454(8) 0.70968(17) 1.14579(7)
H1 H 0.0680 0.6170 1.1294
H2 H 0.0594 0.7230 1.1827
C3 C 0.06875(8) 0.78027(16) 1.02793(7)
C4 C 0.07768(8) 0.64585(17) 0.93908(7)
C5 C 0.07140(9) 0.6280(2) 0.82091(8)
H3 H 0.0810 0.5686 0.7866
H4 H 0.1078 0.7060 0.8216
C6 C -0.00463(8) 0.69883(17) 0.81381(7)
C7 C 0.12775(8) 0.22278(16) 1.04632(6)
H5 H 0.0888 0.1897 1.0691
C8 C 0.12789(8) 0.18775(17) 0.98762(6)
H6 H 0.0894 0.1335 0.9717
C9 C 0.18592(8) 0.23412(15) 0.95242(6)
C10 C 0.24075(8) 0.31821(19) 0.97909(6)
H7 H 0.2803 0.3530 0.9573
C11 C 0.23599(9) 0.34952(18) 1.03801(6)
H8 H 0.2728 0.4064 1.0549
C12 C 0.18759(8) 0.19934(15) 0.88903(6)
C13 C 0.23475(9) 0.2739(2) 0.85144(7)
H9 H 0.2682 0.3419 0.8661
C14 C 0.23177(9) 0.2466(2) 0.79234(7)
H10 H 0.2635 0.2985 0.7681
C15 C 0.14064(8) 0.07617(16) 0.80396(6)
H11 H 0.1082 0.0079 0.7880
C16 C 0.14000(8) 0.09700(16) 0.86376(6)
H12 H 0.1080 0.0430 0.8870
H13 H 0.1008(6) 0.108(2) 1.1982(9)
H14 H 0.1622(11) 0.0226(15) 1.1770(10)
Mn1G Mn 0.323580(11) 0.83894(2) 1.169300(9)
Mn1D Mn -0.176420(11) 0.66106(2) 0.830700(9)
Mn1F Mn 0.176420(11) 0.16106(2) 0.669300(9)
O2G O 0.29756(6) 0.31690(11) 1.16510(4)
O4D O 0.05890(6) 0.36919(12) 1.16519(5)
N4F N 0.18552(7) 0.35062(14) 1.26793(5)
loop_
_geom_bond_atom_site_label_1
_geom_bond_atom_site_label_2
_geom_bond_site_symmetry_1
_geom_bond_site_symmetry_2
Mn1 O1 1_555 1_555
S1 C2 1_555 1_555
S2 C3 1_555 1_555
S3 C4 1_555 1_555
O1 C1 1_555 1_555
O2 C1 1_555 1_555
O3 C6 1_555 1_555
O4 C6 1_555 1_555
O5 Mn1 1_555 1_555
N1 N2 1_555 1_555
N2 C4 1_555 1_555
N3 Mn1 1_555 1_555
N4 C14 1_555 1_555
C1 C2 1_555 1_555
C2 H1 1_555 1_555
H2 C2 1_555 1_555
C3 S1 1_555 1_555
C4 S2 1_555 1_555
C5 S3 1_555 1_555
H3 C5 1_555 1_555
H4 C5 1_555 1_555
C6 C5 1_555 1_555
C7 N3 1_555 1_555
H5 C7 1_555 1_555
C8 C7 1_555 1_555
H6 C8 1_555 1_555
C9 C8 1_555 1_555
C10 C9 1_555 1_555
H7 C10 1_555 1_555
C11 N3 1_555 1_555
H8 C11 1_555 1_555
C12 C9 1_555 1_555
C13 C12 1_555 1_555
H9 C13 1_555 1_555
C14 C13 1_555 1_555
H10 C14 1_555 1_555
C15 N4 1_555 1_555
H11 C15 1_555 1_555
C16 C12 1_555 1_555
H12 C16 1_555 1_555
H13 O5 1_555 1_555
H14 O5 1_555 1_555
Mn1G O2 1_555 1_555
Mn1D O4 1_555 1_555
Mn1F N4 1_555 1_555
O2G Mn1 1_555 1_555
O4D Mn1 1_555 1_555
N4F Mn1 1_555 1_555
N1 C3 1_555 1_555
C10 C11 1_555 1_555
C15 C16 1_555 1_555

#END
