
#######################################################################
#
#                 Cambridge Crystallographic Data Centre
#                                CCDC 
#
#######################################################################
#
# If this CIF has been generated from an entry in the Cambridge 
# Structural Database, then it will include bibliographic, chemical, 
# crystal, experimental, refinement or atomic coordinate data resulting 
# from the CCDC's data processing and validation procedures.
#
#######################################################################

data_BIYKUR
_symmetry_cell_setting           monoclinic
_symmetry_space_group_name_H-M   'P 21/c'
_symmetry_Int_Tables_number      14
_space_group_name_Hall           '-P 2ybc'
loop_
_symmetry_equiv_pos_site_id
_symmetry_equiv_pos_as_xyz
1 x,y,z
2 -x,1/2+y,1/2-z
3 -x,-y,-z
4 x,1/2-y,1/2+z
_cell_length_a                   8.5976(8)
_cell_length_b                   12.3389(10)
_cell_length_c                   11.7405(10)
_cell_angle_alpha                90
_cell_angle_beta                 107.612(2)
_cell_angle_gamma                90
_cell_volume                     1187.11
loop_
_atom_site_label
_atom_site_type_symbol
_atom_site_fract_x
_atom_site_fract_y
_atom_site_fract_z
Cu1 Cu 0.73784(3) 0.24711(2) 1.12218(2)
S1 S 0.84946(7) 0.17735(5) 0.86083(5)
S2 S 0.62419(7) 0.17758(5) 0.88131(5)
C1 C 1.0288(3) 0.3774(2) 1.1336(2)
H1 H 1.0039 0.4061 1.2011
C2 C 1.1681(3) 0.4121(2) 1.1096(2)
H2 H 1.2389 0.4639 1.1591
C3 C 1.2011(3) 0.3681(2) 1.0100(2)
H3 H 1.2994 0.3870 0.9938
C4 C 0.9657(3) 0.2718(2) 0.9671(2)
C5 C 0.5058(3) 0.2704(2) 0.7743(2)
C6 C 0.4343(3) 0.3716(2) 0.6050(2)
H4 H 0.4572 0.4005 0.5368
C7 C 0.2891(3) 0.3984(2) 0.6254(2)
H5 H 0.2115 0.4440 0.5720
C8 C 0.2610(3) 0.3564(2) 0.7263(2)
H6 H 0.1616 0.3729 0.7422
N1 N 0.9263(3) 0.30395(17) 1.06412(18)
N2 N 1.0968(3) 0.29986(18) 0.93700(18)
N3 N 0.5453(3) 0.30538(17) 0.67929(18)
N4 N 0.3706(3) 0.29290(18) 0.80239(19)
Cl1 Cl 0.63126(8) 0.41379(5) 1.09880(5)
Cl2 Cl 0.83783(7) 0.07654(5) 1.14241(5)
Cu1C Cu 0.73784(3) 0.25289(2) 0.62218(2)
S1C S 0.84946(7) 0.32265(5) 1.36083(5)
N3C N 0.5453(3) 0.19462(17) 1.17929(18)
loop_
_geom_bond_atom_site_label_1
_geom_bond_atom_site_label_2
_geom_bond_site_symmetry_1
_geom_bond_site_symmetry_2
Cu1 S2 1_555 1_555
S1 S2 1_555 1_555
S2 C5 1_555 1_555
C1 H1 1_555 1_555
C2 C1 1_555 1_555
H2 C2 1_555 1_555
C3 C2 1_555 1_555
H3 C3 1_555 1_555
C4 S1 1_555 1_555
C5 N3 1_555 1_555
C6 H4 1_555 1_555
C7 C6 1_555 1_555
H5 C7 1_555 1_555
C8 C7 1_555 1_555
H6 C8 1_555 1_555
N1 Cu1 1_555 1_555
N2 C3 1_555 1_555
N3 C6 1_555 1_555
N4 C5 1_555 1_555
Cl1 Cu1 1_555 1_555
Cl2 Cu1 1_555 1_555
Cu1C S1 1_555 1_555
S1C Cu1 1_555 1_555
N3C Cu1 1_555 1_555
C1 N1 1_555 1_555
C4 N1 1_555 1_555
C4 N2 1_555 1_555
C8 N4 1_555 1_555
N3 Cu1C 1_555 1_555

#END
