
#######################################################################
#
#                 Cambridge Crystallographic Data Centre
#                                CCDC 
#
#######################################################################
#
# If this CIF has been generated from an entry in the Cambridge 
# Structural Database, then it will include bibliographic, chemical, 
# crystal, experimental, refinement or atomic coordinate data resulting 
# from the CCDC's data processing and validation procedures.
#
#######################################################################

data_BIYLAY
_symmetry_cell_setting           triclinic
_symmetry_space_group_name_H-M   'P -1'
_symmetry_Int_Tables_number      2
_space_group_name_Hall           '-P 1'
loop_
_symmetry_equiv_pos_site_id
_symmetry_equiv_pos_as_xyz
1 x,y,z
2 -x,-y,-z
_cell_length_a                   9.8827(5)
_cell_length_b                   11.1919(6)
_cell_length_c                   12.6605(7)
_cell_angle_alpha                64.518(3)
_cell_angle_beta                 70.047(3)
_cell_angle_gamma                86.141(3)
_cell_volume                     1183
loop_
_atom_site_label
_atom_site_type_symbol
_atom_site_fract_x
_atom_site_fract_y
_atom_site_fract_z
Cu1 Cu 0.13424(3) 0.10883(3) 1.12207(2)
Cu2 Cu 0.54819(3) 0.45204(3) 0.60649(2)
Cl1 Cl 0.29077(6) -0.02222(6) 1.19951(5)
Cl2 Cl -0.04087(6) 0.19687(6) 1.04349(5)
Cl3 Cl 0.37940(5) 0.60428(5) 0.56761(4)
C1 C 0.9080(2) 0.9499(2) 0.36503(19)
C2 C 0.7829(2) 1.0115(2) 0.5165(2)
H1 H 0.7064 0.9942 0.5928
C3 C 0.8695(2) 1.1296(2) 0.4567(2)
H2 H 0.8574 1.1916 0.4914
C4 C 0.9743(2) 1.1524(2) 0.3441(2)
H3 H 1.0353 1.2333 0.2990
C5 C 0.3451(2) 0.2542(2) 0.85920(18)
C6 C 0.4417(2) 0.1642(2) 0.7222(2)
H4 H 0.5033 0.1715 0.6429
C7 C 0.3623(2) 0.0448(2) 0.8091(2)
H5 H 0.3655 -0.0291 0.7903
C8 C 0.2785(2) 0.0366(2) 0.9238(2)
H6 H 0.2262 -0.0458 0.9867
C9 C 0.7575(2) 0.4048(2) 0.73591(19)
H7 H 0.6894 0.3316 0.7984
C10 C 0.8834(2) 0.4238(2) 0.7529(2)
H8 H 0.9035 0.3654 0.8256
C11 C 0.9789(2) 0.5308(2) 0.6600(2)
H9 H 1.0667 0.5459 0.6694
C12 C 0.8293(2) 0.5879(2) 0.54943(19)
C13 C 0.3901(2) 0.3265(2) 1.11100(19)
C14 C 0.4486(2) 0.2786(2) 1.2807(2)
H10 H 0.4231 0.2602 1.3661
C15 C 0.5922(3) 0.2813(2) 1.2116(2)
H11 H 0.6656 0.2646 1.2476
C16 C 0.6236(2) 0.3094(2) 1.0882(2)
H12 H 0.7215 0.3126 1.0385
N1 N 0.99344(19) 1.06453(18) 0.29567(16)
N2 N 0.8013(2) 0.92053(19) 0.47271(17)
N3 N 0.26865(19) 0.14199(18) 0.94929(15)
N4 N 0.43426(19) 0.26985(18) 0.74637(16)
N5 N 0.5224(2) 0.33239(19) 1.03497(17)
N6 N 0.3445(2) 0.30124(19) 1.23055(17)
N7 N 0.72787(19) 0.48699(17) 0.63332(15)
N8 N 0.95317(19) 0.61502(18) 0.55642(16)
S1 S 0.24112(6) 0.35445(5) 1.05636(5)
S2 S 0.33338(6) 0.40656(5) 0.87113(5)
S3 S 0.78030(6) 0.68850(5) 0.41692(5)
S4 S 0.94948(6) 0.82991(5) 0.30558(5)
Cu1_2 Cu 1.13424(3) 1.10883(3) 0.12207(2)
Cu2A Cu 0.45181(3) 0.54796(3) 0.39351(2)
Cl3A Cl 0.62060(5) 0.39572(5) 0.43239(4)
N1_2 N -0.00656(19) 0.06453(18) 1.29567(16)
loop_
_geom_bond_atom_site_label_1
_geom_bond_atom_site_label_2
_geom_bond_site_symmetry_1
_geom_bond_site_symmetry_2
Cu1 Cl1 1_555 1_555
Cu2 Cl3 1_555 1_555
Cl2 Cu1 1_555 1_555
Cl3 Cu2A 1_555 1_555
C1 N1 1_555 1_555
C2 H1 1_555 1_555
C3 C2 1_555 1_555
H2 C3 1_555 1_555
C4 C3 1_555 1_555
H3 C4 1_555 1_555
C5 N3 1_555 1_555
C6 H4 1_555 1_555
C7 C6 1_555 1_555
H5 C7 1_555 1_555
C8 C7 1_555 1_555
H6 C8 1_555 1_555
C9 H7 1_555 1_555
C10 C9 1_555 1_555
H8 C10 1_555 1_555
C11 C10 1_555 1_555
H9 C11 1_555 1_555
C12 N7 1_555 1_555
C13 N5 1_555 1_555
C14 H10 1_555 1_555
C15 C14 1_555 1_555
H11 C15 1_555 1_555
C16 C15 1_555 1_555
H12 C16 1_555 1_555
N1 C4 1_555 1_555
N2 C1 1_555 1_555
N3 Cu1 1_555 1_555
N4 Cu2 1_555 1_555
N5 C16 1_555 1_555
N6 C13 1_555 1_555
N7 Cu2 1_555 1_555
N8 C11 1_555 1_555
S1 Cu1 1_555 1_555
S2 C5 1_555 1_555
S3 C12 1_555 1_555
S4 C1 1_555 1_555
Cu1_2 N1 1_555 1_555
Cu2A Cl3A 1_555 1_555
Cl3A Cu2 1_555 1_555
N1_2 Cu1 1_555 1_555
C2 N2 1_555 1_555
C5 N4 1_555 1_555
C6 N4 1_555 1_555
C8 N3 1_555 1_555
C9 N7 1_555 1_555
C12 N8 1_555 1_555
C13 S1 1_555 1_555
C14 N6 1_555 1_555
S1 S2 1_555 1_555
S3 S4 1_555 1_555

#END
