
#######################################################################
#
#                 Cambridge Crystallographic Data Centre
#                                CCDC 
#
#######################################################################
#
# If this CIF has been generated from an entry in the Cambridge 
# Structural Database, then it will include bibliographic, chemical, 
# crystal, experimental, refinement or atomic coordinate data resulting 
# from the CCDC's data processing and validation procedures.
#
#######################################################################

data_BIYNII
_symmetry_cell_setting           monoclinic
_symmetry_space_group_name_H-M   'P 21/c'
_symmetry_Int_Tables_number      14
_space_group_name_Hall           '-P 2ybc'
loop_
_symmetry_equiv_pos_site_id
_symmetry_equiv_pos_as_xyz
1 x,y,z
2 -x,1/2+y,1/2-z
3 -x,-y,-z
4 x,1/2-y,1/2+z
_cell_length_a                   27.8352(13)
_cell_length_b                   15.6386(8)
_cell_length_c                   16.1311(7)
_cell_angle_alpha                90
_cell_angle_beta                 98.215(2)
_cell_angle_gamma                90
_cell_volume                     6949.87
loop_
_atom_site_label
_atom_site_type_symbol
_atom_site_fract_x
_atom_site_fract_y
_atom_site_fract_z
C1 C 0.14091(17) -0.0382(3) 0.0359(3)
H1 H 0.1553 -0.0851 0.0677
C2 C 0.09636(18) -0.0494(3) -0.0142(3)
H2 H 0.0801 -0.1030 -0.0160
C3 C 0.07619(16) 0.0192(3) -0.0613(3)
C4 C 0.10000(18) 0.0966(3) -0.0603(3)
H3 H 0.0865 0.1421 -0.0951
C5 C 0.14350(17) 0.1079(3) -0.0086(3)
H4 H 0.1591 0.1620 -0.0063
C6 C 0.16493(16) 0.0405(3) 0.0405(3)
C7 C 0.21060(16) 0.0563(3) 0.0989(3)
C8 C 0.24018(16) -0.0122(3) 0.1280(3)
H5 H 0.2313 -0.0675 0.1069
C9 C 0.28230(16) -0.0042(3) 0.1865(3)
C10 C 0.31621(16) -0.0784(3) 0.2024(3)
C11 C 0.35069(17) -0.0791(3) 0.2737(3)
H6 H 0.3522 -0.0324 0.3115
C12 C 0.38284(18) -0.1460(3) 0.2909(3)
H7 H 0.4061 -0.1455 0.3401
C13 C 0.38076(18) -0.2137(3) 0.2356(3)
C14 C 0.34746(18) -0.2145(3) 0.1635(3)
H8 H 0.3467 -0.2609 0.1253
C15 C 0.31527(17) -0.1473(3) 0.1473(3)
H9 H 0.2922 -0.1480 0.0979
C16 C 0.29051(18) 0.5338(3) 0.1903(3)
H10 H 0.3228 0.5307 0.2188
C17 C 0.26794(19) 0.6123(3) 0.1783(3)
H11 H 0.2845 0.6631 0.1980
C18 C 0.22082(18) 0.6161(3) 0.1371(3)
C19 C 0.19676(18) 0.5435(3) 0.1048(3)
H12 H 0.1649 0.5472 0.0746
C20 C 0.21988(18) 0.4650(3) 0.1172(3)
H13 H 0.2037 0.4146 0.0953
C21 C 0.26657(17) 0.4591(3) 0.1612(3)
C22 C 0.28739(17) 0.3728(3) 0.1849(3)
C23 C 0.33423(17) 0.3673(3) 0.2273(3)
H14 H 0.3538 0.4172 0.2306
C24 C 0.35445(17) 0.2924(3) 0.2656(3)
C25 C 0.40519(17) 0.2937(3) 0.3102(3)
C26 C 0.4207(2) 0.2273(3) 0.3628(4)
H15 H 0.3996 0.1801 0.3665
C27 C 0.4662(2) 0.2269(4) 0.4110(4)
H16 H 0.4761 0.1807 0.4479
C28 C 0.49660(18) 0.2946(3) 0.4042(3)
C29 C 0.4833(2) 0.3602(4) 0.3501(4)
H17 H 0.5050 0.4060 0.3450
C30 C 0.43798(19) 0.3593(4) 0.3030(3)
H18 H 0.4289 0.4047 0.2648
C31 C 0.35270(19) -0.0274(3) 0.4966(3)
H19 H 0.3337 -0.0762 0.4783
C32 C 0.39831(19) -0.0386(3) 0.5420(3)
H20 H 0.4109 -0.0945 0.5536
C33 C 0.42509(18) 0.0317(3) 0.5701(3)
C34 C 0.40661(19) 0.1129(3) 0.5564(3)
H21 H 0.4245 0.1610 0.5797
C35 C 0.36169(18) 0.1236(3) 0.5081(3)
H22 H 0.3496 0.1797 0.4961
C36 C 0.33405(16) 0.0536(3) 0.4771(3)
C37 C 0.28721(17) 0.0685(3) 0.4200(3)
C38 C 0.25460(16) 0.0023(3) 0.4000(3)
H23 H 0.2615 -0.0512 0.4270
C39 C 0.21193(16) 0.0094(3) 0.3421(3)
C40 C 0.17687(16) -0.0634(3) 0.3320(3)
C41 C 0.14229(17) -0.0663(3) 0.2607(3)
H24 H 0.1412 -0.0215 0.2207
C42 C 0.10956(17) -0.1328(3) 0.2468(3)
H25 H 0.0864 -0.1345 0.1974
C43 C 0.11107(17) -0.1972(3) 0.3062(3)
C44 C 0.14427(17) -0.1948(3) 0.3783(3)
H26 H 0.1445 -0.2385 0.4192
C45 C 0.17705(17) -0.1285(3) 0.3904(3)
H27 H 0.2002 -0.1273 0.4398
C46 C 0.20035(18) 0.5341(3) 0.3469(3)
H28 H 0.1668 0.5309 0.3257
C47 C 0.22119(19) 0.6123(3) 0.3685(3)
H29 H 0.2023 0.6631 0.3614
C48 C 0.26974(18) 0.6159(3) 0.4005(3)
C49 C 0.29753(19) 0.5427(3) 0.4147(3)
H30 H 0.3306 0.5461 0.4394
C50 C 0.27638(18) 0.4641(3) 0.3924(3)
H31 H 0.2951 0.4134 0.4023
C51 C 0.22837(17) 0.4587(3) 0.3558(3)
C52 C 0.20894(17) 0.3748(3) 0.3212(3)
C53 C 0.16499(17) 0.3741(3) 0.2676(3)
H32 H 0.1472 0.4261 0.2601
C54 C 0.14521(16) 0.3014(3) 0.2237(3)
C55 C 0.09737(17) 0.3076(3) 0.1700(3)
C56 C 0.08474(18) 0.2430(3) 0.1129(3)
H33 H 0.1059 0.1955 0.1116
C57 C 0.04191(18) 0.2455(3) 0.0574(3)
H34 H 0.0341 0.2012 0.0175
C58 C 0.01093(18) 0.3134(3) 0.0611(3)
C59 C 0.02123(19) 0.3772(3) 0.1194(3)
H35 H -0.0010 0.4228 0.1224
C60 C 0.06438(18) 0.3740(3) 0.1737(3)
H36 H 0.0717 0.4178 0.2142
C61 C 0.13714(19) 0.3289(3) -0.0871(3)
H37 H 0.1427 0.2914 -0.1310
C62 C 0.0903(2) 0.4447(4) -0.0412(4)
H38 H 0.1090 0.4304 0.0132
H39 H 0.0556 0.4441 -0.0367
H40 H 0.0997 0.5017 -0.0584
C63 C 0.0706(2) 0.3853(4) -0.1835(4)
H41 H 0.0834 0.3450 -0.2214
H42 H 0.0710 0.4432 -0.2065
H43 H 0.0372 0.3694 -0.1775
C64 C 0.35963(19) 0.1424(3) 0.0889(3)
H44 H 0.3447 0.1510 0.1377
C65 C 0.4259(3) 0.0822(6) 0.0273(5)
H45 H 0.4306 0.0203 0.0236
H46 H 0.4575 0.1109 0.0343
H47 H 0.4062 0.1025 -0.0242
C66 C 0.4233(3) 0.0707(6) 0.1785(4)
H48 H 0.4026 0.0849 0.2208
H49 H 0.4551 0.0977 0.1934
H50 H 0.4273 0.0085 0.1762
N1 N 0.10029(15) 0.3826(3) -0.1026(2)
N2 N 0.40123(16) 0.1013(3) 0.0983(3)
O1 O 0.28055(11) 0.14477(19) 0.39198(18)
O2 O 0.20114(11) 0.07384(19) 0.29584(18)
O3 O 0.23547(11) 0.30907(19) 0.34053(18)
O4 O 0.16654(11) 0.23055(19) 0.22509(19)
O5 O 0.22016(11) 0.13413(18) 0.11895(18)
O6 O 0.29404(11) 0.06283(19) 0.22835(18)
O7 O 0.25925(12) 0.30850(19) 0.16668(18)
O8 O 0.33127(11) 0.2239(2) 0.2690(2)
O9 O 0.16454(13) 0.3233(2) -0.0213(2)
O10 O 0.33836(14) 0.1707(2) 0.0230(2)
I1 I 0.007402(12) 0.00659(2) -0.13232(2)
I2 I 0.427765(15) -0.31839(2) 0.25793(2)
I3 I 0.185088(14) 0.73406(2) 0.13146(3)
I4 I 0.563743(13) 0.29793(3) 0.48138(2)
I5 I 0.495902(13) 0.01589(2) 0.63235(2)
I6 I 0.064207(13) -0.30202(2) 0.28798(2)
I7 I 0.302402(13) 0.73687(2) 0.41736(2)
I8 I -0.052128(13) 0.31837(2) -0.02671(2)
K1 K 0.25127(4) 0.24559(6) 0.00574(6)
Gd1 Gd 0.248455(8) 0.187581(13) 0.254726(12)
O1C O 0.28055(11) 0.35523(19) -0.10802(18)
O3C O 0.23547(11) 0.19093(19) -0.15947(18)
K1C K 0.25127(4) 0.25441(6) 0.50574(6)
loop_
_geom_bond_atom_site_label_1
_geom_bond_atom_site_label_2
_geom_bond_site_symmetry_1
_geom_bond_site_symmetry_2
C1 H1 1_555 1_555
C2 C1 1_555 1_555
H2 C2 1_555 1_555
C3 C2 1_555 1_555
C4 C3 1_555 1_555
H3 C4 1_555 1_555
C5 C4 1_555 1_555
H4 C5 1_555 1_555
C6 C1 1_555 1_555
C7 C6 1_555 1_555
C8 C7 1_555 1_555
H5 C8 1_555 1_555
C9 C8 1_555 1_555
C10 C9 1_555 1_555
C11 C10 1_555 1_555
H6 C11 1_555 1_555
C12 C11 1_555 1_555
H7 C12 1_555 1_555
C13 C12 1_555 1_555
C14 C13 1_555 1_555
H8 C14 1_555 1_555
C15 C10 1_555 1_555
H9 C15 1_555 1_555
C16 H10 1_555 1_555
C17 C16 1_555 1_555
H11 C17 1_555 1_555
C18 C17 1_555 1_555
C19 C18 1_555 1_555
H12 C19 1_555 1_555
C20 C19 1_555 1_555
H13 C20 1_555 1_555
C21 C16 1_555 1_555
C22 C21 1_555 1_555
C23 C22 1_555 1_555
H14 C23 1_555 1_555
C24 C23 1_555 1_555
C25 C24 1_555 1_555
C26 C25 1_555 1_555
H15 C26 1_555 1_555
C27 C26 1_555 1_555
H16 C27 1_555 1_555
C28 C27 1_555 1_555
C29 C28 1_555 1_555
H17 C29 1_555 1_555
C30 C25 1_555 1_555
H18 C30 1_555 1_555
C31 H19 1_555 1_555
C32 C31 1_555 1_555
H20 C32 1_555 1_555
C33 C32 1_555 1_555
C34 C33 1_555 1_555
H21 C34 1_555 1_555
C35 C34 1_555 1_555
H22 C35 1_555 1_555
C36 C31 1_555 1_555
C37 C36 1_555 1_555
C38 C37 1_555 1_555
H23 C38 1_555 1_555
C39 C38 1_555 1_555
C40 C39 1_555 1_555
C41 C40 1_555 1_555
H24 C41 1_555 1_555
C42 C41 1_555 1_555
H25 C42 1_555 1_555
C43 C42 1_555 1_555
C44 C43 1_555 1_555
H26 C44 1_555 1_555
C45 C40 1_555 1_555
H27 C45 1_555 1_555
C46 H28 1_555 1_555
C47 C46 1_555 1_555
H29 C47 1_555 1_555
C48 C47 1_555 1_555
C49 C48 1_555 1_555
H30 C49 1_555 1_555
C50 C49 1_555 1_555
H31 C50 1_555 1_555
C51 C46 1_555 1_555
C52 C51 1_555 1_555
C53 C52 1_555 1_555
H32 C53 1_555 1_555
C54 C53 1_555 1_555
C55 C54 1_555 1_555
C56 C55 1_555 1_555
H33 C56 1_555 1_555
C57 C56 1_555 1_555
H34 C57 1_555 1_555
C58 C57 1_555 1_555
C59 C58 1_555 1_555
H35 C59 1_555 1_555
C60 C55 1_555 1_555
H36 C60 1_555 1_555
C61 H37 1_555 1_555
C62 H38 1_555 1_555
H39 C62 1_555 1_555
H40 C62 1_555 1_555
C63 H41 1_555 1_555
H42 C63 1_555 1_555
H43 C63 1_555 1_555
C64 H44 1_555 1_555
C65 H45 1_555 1_555
H46 C65 1_555 1_555
H47 C65 1_555 1_555
C66 H48 1_555 1_555
H49 C66 1_555 1_555
H50 C66 1_555 1_555
N1 C61 1_555 1_555
N2 C64 1_555 1_555
O1 C37 1_555 1_555
O2 C39 1_555 1_555
O3 C52 1_555 1_555
O4 C54 1_555 1_555
O5 C7 1_555 1_555
O6 C9 1_555 1_555
O7 C22 1_555 1_555
O8 C24 1_555 1_555
O9 C61 1_555 1_555
O10 C64 1_555 1_555
I1 C3 1_555 1_555
I2 C13 1_555 1_555
I3 C18 1_555 1_555
I4 C28 1_555 1_555
I5 C33 1_555 1_555
I6 C43 1_555 1_555
I7 C48 1_555 1_555
I8 C58 1_555 1_555
K1 O5 1_555 1_555
Gd1 O1 1_555 1_555
O1C K1 1_555 1_555
O3C K1 1_555 1_555
K1C O1 1_555 1_555
C5 C6 1_555 1_555
C14 C15 1_555 1_555
C20 C21 1_555 1_555
C29 C30 1_555 1_555
C35 C36 1_555 1_555
C44 C45 1_555 1_555
C50 C51 1_555 1_555
C59 C60 1_555 1_555
C62 N1 1_555 1_555
C63 N1 1_555 1_555
C65 N2 1_555 1_555
C66 N2 1_555 1_555
O2 Gd1 1_555 1_555
O3 Gd1 1_555 1_555
O3 K1C 1_555 1_555
O4 Gd1 1_555 1_555
O5 Gd1 1_555 1_555
O6 Gd1 1_555 1_555
O7 K1 1_555 1_555
O7 Gd1 1_555 1_555
O8 Gd1 1_555 1_555
O9 K1 1_555 1_555
O10 K1 1_555 1_555

#END
