
#######################################################################
#
#                 Cambridge Crystallographic Data Centre
#                                CCDC 
#
#######################################################################
#
# If this CIF has been generated from an entry in the Cambridge 
# Structural Database, then it will include bibliographic, chemical, 
# crystal, experimental, refinement or atomic coordinate data resulting 
# from the CCDC's data processing and validation procedures.
#
#######################################################################

data_BIYYUE
_symmetry_cell_setting           monoclinic
_symmetry_space_group_name_H-M   'P 21/n'
_symmetry_Int_Tables_number      14
_space_group_name_Hall           '-P 2yn'
loop_
_symmetry_equiv_pos_site_id
_symmetry_equiv_pos_as_xyz
1 x,y,z
2 1/2-x,1/2+y,1/2-z
3 -x,-y,-z
4 1/2+x,1/2-y,1/2+z
_cell_length_a                   7.5447(7)
_cell_length_b                   11.1944(11)
_cell_length_c                   9.7259(10)
_cell_angle_alpha                90
_cell_angle_beta                 102.4220(10)
_cell_angle_gamma                90
_cell_volume                     802.204
loop_
_atom_site_label
_atom_site_type_symbol
_atom_site_fract_x
_atom_site_fract_y
_atom_site_fract_z
Mn1 Mn 0.22294(4) 0.67224(3) 0.51301(3)
N1 N 0.2376(2) 0.87496(16) 0.49706(17)
C1 C 0.1555(3) 0.94939(19) 0.3937(2)
H1 H 0.0850 0.9174 0.3117
C2 C 0.1735(3) 1.07187(19) 0.4065(2)
H2 H 0.1164 1.1230 0.3353
C3 C 0.2805(3) 1.1150(2) 0.5301(2)
H3 H 0.2929 1.1972 0.5428
N2 N 0.3670(2) 1.04205(16) 0.63259(18)
C4 C 0.3405(3) 0.92559(18) 0.6111(2)
C5 C 0.4354(3) 0.83993(18) 0.7255(2)
O1 O 0.3827(2) 0.73395(13) 0.71406(16)
O2 O 0.5576(2) 0.88282(13) 0.81900(15)
O3 O 0.4755(2) 0.64691(13) 0.43885(16)
O4 O 0.69879(19) 0.51647(13) 0.43665(16)
C6 C 0.5504(3) 0.54766(18) 0.4641(2)
O5 O -0.0119(2) 0.64879(13) 0.60530(15)
H4 H -0.0848 0.6091 0.5523
H5 H 0.0167 0.6192 0.6778
Mn1C Mn -0.27706(4) 0.82776(3) 0.01301(3)
Mn1C_2 Mn 0.72294(4) 0.82776(3) 1.01301(3)
Mn1B Mn 0.77706(4) 0.32776(3) 0.48699(3)
N1C N -0.2624(2) 0.62504(16) -0.00294(17)
C1C C -0.3445(3) 0.55061(19) -0.1063(2)
H1C H -0.4150 0.5826 -0.1883
C2C C -0.3265(3) 0.42813(19) -0.0935(2)
H2C H -0.3836 0.3770 -0.1647
C3C C -0.2195(3) 0.3850(2) 0.0301(2)
H3C H -0.2071 0.3028 0.0428
N2C N -0.1330(2) 0.45795(16) 0.13259(18)
C4C C -0.1595(3) 0.57441(18) 0.1111(2)
C5C C -0.0646(3) 0.66007(18) 0.2255(2)
O1C O -0.1173(2) 0.76605(13) 0.21406(16)
O2C O 0.0576(2) 0.61718(13) 0.31900(15)
O2_2 O -0.4424(2) 0.88282(13) -0.18100(15)
O3B O 0.5245(2) 0.35309(13) 0.56115(16)
O3C O -0.0245(2) 0.85309(13) -0.06115(16)
O4B O 0.30121(19) 0.48353(13) 0.56335(16)
O4A O -0.19879(19) 1.01647(13) 0.06335(16)
C6B C 0.4496(3) 0.45234(18) 0.5359(2)
O5C O -0.5119(2) 0.85121(13) 0.10530(15)
H4C H -0.5848 0.8909 0.0523
H5C H -0.4833 0.8808 0.1778
loop_
_geom_bond_atom_site_label_1
_geom_bond_atom_site_label_2
_geom_bond_site_symmetry_1
_geom_bond_site_symmetry_2
Mn1 N1 1_555 1_555
N1 C1 1_555 1_555
C1 H1 1_555 1_555
C2 C1 1_555 1_555
H2 C2 1_555 1_555
C3 C2 1_555 1_555
H3 C3 1_555 1_555
N2 C3 1_555 1_555
C4 N1 1_555 1_555
C5 C4 1_555 1_555
O1 Mn1 1_555 1_555
O2 C5 1_555 1_555
O3 Mn1 1_555 1_555
O4 C6 1_555 1_555
C6 O3 1_555 1_555
O5 Mn1 1_555 1_555
H4 O5 1_555 1_555
H5 O5 1_555 1_555
Mn1C N1C 1_555 1_555
Mn1C_2 O2 1_555 1_555
Mn1B O4 1_555 1_555
N1C C1C 1_555 1_555
C1C H1C 1_555 1_555
C2C C1C 1_555 1_555
H2C C2C 1_555 1_555
C3C C2C 1_555 1_555
H3C C3C 1_555 1_555
N2C C3C 1_555 1_555
C4C N1C 1_555 1_555
C5C C4C 1_555 1_555
O1C Mn1C 1_555 1_555
O2C Mn1 1_555 1_555
O2_2 Mn1C 1_555 1_555
O3B Mn1B 1_555 1_555
O3C Mn1C 1_555 1_555
O4B Mn1 1_555 1_555
O4A Mn1C 1_555 1_555
C6B C6 1_555 1_555
O5C Mn1C 1_555 1_555
H4C O5C 1_555 1_555
H5C O5C 1_555 1_555
N2 C4 1_555 1_555
C5 O1 1_555 1_555
N2C C4C 1_555 1_555
C5C O1C 1_555 1_555
C5C O2C 1_555 1_555
O3B C6B 1_555 1_555
O4B C6B 1_555 1_555

#END
