
#######################################################################
#
#                 Cambridge Crystallographic Data Centre
#                                CCDC 
#
#######################################################################
#
# If this CIF has been generated from an entry in the Cambridge 
# Structural Database, then it will include bibliographic, chemical, 
# crystal, experimental, refinement or atomic coordinate data resulting 
# from the CCDC's data processing and validation procedures.
#
#######################################################################

data_BIZQOR
_symmetry_cell_setting           monoclinic
_symmetry_space_group_name_H-M   'P 21/c'
_symmetry_Int_Tables_number      14
_space_group_name_Hall           '-P 2ybc'
loop_
_symmetry_equiv_pos_site_id
_symmetry_equiv_pos_as_xyz
1 x,y,z
2 -x,1/2+y,1/2-z
3 -x,-y,-z
4 x,1/2-y,1/2+z
_cell_length_a                   10.1626(16)
_cell_length_b                   17.732(3)
_cell_length_c                   28.124(4)
_cell_angle_alpha                90
_cell_angle_beta                 91.980(2)
_cell_angle_gamma                90
_cell_volume                     5065.01
loop_
_atom_site_label
_atom_site_type_symbol
_atom_site_fract_x
_atom_site_fract_y
_atom_site_fract_z
Cd1 Cd 0.50852(2) 0.061464(13) 0.240599(8)
Cd2 Cd 0.00703(2) 0.168650(13) 0.237150(8)
O1 O 0.4692(3) -0.11356(17) 0.06491(9)
O2 O 0.5268(3) -0.09785(16) 0.44068(9)
O3 O -0.0168(3) 0.34977(16) 0.05865(9)
O4 O 0.0136(3) 0.33667(16) 0.43755(10)
N1 N 0.5899(2) -0.04669(16) 0.20487(9)
N2 N 0.7191(3) -0.13452(19) 0.17430(11)
N3 N 0.5917(2) -0.14797(16) 0.16199(9)
N4 N 0.4138(2) -0.01421(16) 0.29893(9)
N5 N 0.2778(3) -0.09947(19) 0.32893(11)
N6 N 0.4052(2) -0.11606(16) 0.34126(9)
N7 N -0.0882(2) 0.24449(17) 0.29467(9)
N8 N -0.2201(3) 0.3330(2) 0.32370(11)
N9 N -0.0919(2) 0.34863(16) 0.33551(9)
N10 N 0.0898(2) 0.27623(16) 0.20045(9)
N11 N 0.2206(3) 0.36462(19) 0.17075(11)
N12 N 0.0927(2) 0.37879(15) 0.15837(9)
N13 N 0.1203(3) 0.10059(19) 0.18182(10)
N14 N 0.2190(3) 0.06887(15) 0.18986(8)
N15 N 0.3163(3) 0.03539(18) 0.19487(10)
N16 N -0.3030(3) 0.06784(18) 0.29227(9)
N17 N -0.1963(3) 0.06395(15) 0.27865(9)
N18 N -0.0879(3) 0.05811(17) 0.26561(11)
N19 N -0.3812(3) 0.1277(2) 0.18341(10)
N20 N -0.2820(3) 0.15975(16) 0.18864(8)
N21 N -0.1838(3) 0.19275(18) 0.19088(10)
N22 N 0.1938(3) 0.16446(18) 0.28984(10)
N23 N 0.3020(3) 0.16754(15) 0.27785(9)
N24 N 0.4122(3) 0.17232(17) 0.26625(12)
C1 C 0.5177(3) -0.0957(2) 0.18030(11)
H1 H 0.4265 -0.0936 0.1765
C2 C 0.7122(3) -0.0734(2) 0.20004(13)
H2 H 0.7862 -0.0503 0.2139
C3 C 0.5523(4) -0.2140(2) 0.13389(11)
H3 H 0.4571 -0.2150 0.1302
H4 H 0.5797 -0.2592 0.1510
C4 C 0.6107(3) -0.21481(19) 0.08523(10)
H5 H 0.7045 -0.2052 0.0887
H6 H 0.5993 -0.2647 0.0716
C5 C 0.5504(3) -0.1578(2) 0.05133(11)
C6 C 0.5919(3) -0.1582(2) 0.00092(11)
C7 C 0.6808(4) -0.2096(2) -0.01580(13)
H7 H 0.7188 -0.2451 0.0048
C8 C 0.7136(4) -0.2087(3) -0.06316(15)
H8 H 0.7745 -0.2431 -0.0742
C9 C 0.6573(5) -0.1578(3) -0.09350(15)
H9 H 0.6787 -0.1583 -0.1254
C10 C 0.5698(5) -0.1060(3) -0.07781(15)
H10 H 0.5327 -0.0707 -0.0987
C11 C 0.5366(4) -0.1064(2) -0.03040(13)
H11 H 0.4764 -0.0713 -0.0196
C12 C 0.2887(3) -0.0380(2) 0.30351(12)
H12 H 0.2165 -0.0130 0.2898
C13 C 0.4829(3) -0.06464(19) 0.32326(11)
H13 H 0.5742 -0.0641 0.3272
C14 C 0.4417(4) -0.1862(2) 0.36616(12)
H14 H 0.5368 -0.1883 0.3703
H15 H 0.4142 -0.2288 0.3465
C15 C 0.3809(3) -0.1935(2) 0.41427(11)
H16 H 0.2876 -0.1824 0.4109
H17 H 0.3899 -0.2453 0.4250
C16 C 0.4416(3) -0.1423(2) 0.45150(12)
C17 C 0.3961(3) -0.14650(19) 0.50138(12)
C18 C 0.4449(4) -0.0950(2) 0.53441(14)
H18 H 0.5055 -0.0589 0.5253
C19 C 0.4047(5) -0.0965(3) 0.58076(15)
H19 H 0.4376 -0.0614 0.6027
C20 C 0.3166(5) -0.1496(3) 0.59435(15)
H20 H 0.2890 -0.1504 0.6255
C21 C 0.2687(4) -0.2015(3) 0.56260(15)
H21 H 0.2097 -0.2380 0.5724
C22 C 0.3071(4) -0.2003(2) 0.51579(13)
H22 H 0.2731 -0.2355 0.4941
C23 C -0.2117(3) 0.2704(2) 0.29933(13)
H23 H -0.2852 0.2458 0.2863
C24 C -0.0165(3) 0.29546(19) 0.31817(11)
H24 H 0.0748 0.2940 0.3220
C25 C -0.0519(4) 0.4190(2) 0.35863(12)
H25 H -0.0710 0.4604 0.3369
H26 H 0.0426 0.4179 0.3647
C26 C -0.1182(3) 0.4346(2) 0.40490(12)
H27 H -0.1072 0.4874 0.4130
H28 H -0.2118 0.4248 0.4007
C27 C -0.0636(3) 0.3870(2) 0.44546(13)
C28 C -0.1041(3) 0.4038(2) 0.49479(12)
C29 C -0.1801(4) 0.4657(2) 0.50574(14)
H29 H -0.2100 0.4982 0.4818
C30 C -0.2115(4) 0.4793(3) 0.55244(16)
H30 H -0.2623 0.5211 0.5597
C31 C -0.1687(5) 0.4320(3) 0.58799(16)
H31 H -0.1909 0.4413 0.6192
C32 C -0.0932(5) 0.3708(3) 0.57762(15)
H32 H -0.0635 0.3387 0.6018
C33 C -0.0609(4) 0.3566(2) 0.53122(14)
H33 H -0.0095 0.3149 0.5244
C34 C 0.0186(3) 0.3258(2) 0.17610(11)
H34 H -0.0725 0.3236 0.1720
C35 C 0.2127(3) 0.3027(2) 0.19569(12)
H35 H 0.2864 0.2787 0.2091
C36 C 0.0534(3) 0.44613(19) 0.13156(11)
H36 H 0.0768 0.4903 0.1503
H37 H -0.0415 0.4459 0.1267
C37 C 0.1161(3) 0.45241(19) 0.08383(11)
H38 H 0.1033 0.5033 0.0718
H39 H 0.2101 0.4441 0.0881
C38 C 0.0618(3) 0.3976(2) 0.04744(11)
C39 C 0.1059(3) 0.40312(19) -0.00248(11)
C40 C 0.0632(4) 0.3493(2) -0.03517(13)
H40 H 0.0088 0.3104 -0.0257
C41 C 0.1009(5) 0.3532(2) -0.08185(14)
H41 H 0.0719 0.3168 -0.1036
C42 C 0.1803(4) 0.4101(3) -0.09617(14)
H42 H 0.2057 0.4122 -0.1276
C43 C 0.2228(4) 0.4640(3) -0.06451(14)
H43 H 0.2765 0.5029 -0.0745
C44 C 0.1860(3) 0.4608(2) -0.01754(12)
H44 H 0.2153 0.4975 0.0039
Cd1_2 Cd -0.49148(2) 0.061464(13) 0.240599(8)
N16_2 N 0.6970(3) 0.06784(18) 0.29227(9)
N19_2 N 0.6188(3) 0.1277(2) 0.18341(10)
loop_
_geom_bond_atom_site_label_1
_geom_bond_atom_site_label_2
_geom_bond_site_symmetry_1
_geom_bond_site_symmetry_2
Cd1 N1 1_555 1_555
Cd2 N7 1_555 1_555
O1 C5 1_555 1_555
O2 C16 1_555 1_555
O3 C38 1_555 1_555
O4 C27 1_555 1_555
N1 C1 1_555 1_555
N2 N3 1_555 1_555
N3 C1 1_555 1_555
N4 Cd1 1_555 1_555
N5 N6 1_555 1_555
N6 C13 1_555 1_555
N7 C23 1_555 1_555
N8 N9 1_555 1_555
N9 C24 1_555 1_555
N10 Cd2 1_555 1_555
N11 N12 1_555 1_555
N12 C34 1_555 1_555
N13 Cd2 1_555 1_555
N14 N13 1_555 1_555
N15 Cd1 1_555 1_555
N16 N17 1_555 1_555
N17 N18 1_555 1_555
N18 Cd2 1_555 1_555
N19 N20 1_555 1_555
N20 N21 1_555 1_555
N21 Cd2 1_555 1_555
N22 Cd2 1_555 1_555
N23 N22 1_555 1_555
N24 Cd1 1_555 1_555
C1 H1 1_555 1_555
C2 N1 1_555 1_555
H2 C2 1_555 1_555
C3 N3 1_555 1_555
H3 C3 1_555 1_555
H4 C3 1_555 1_555
C4 C3 1_555 1_555
H5 C4 1_555 1_555
H6 C4 1_555 1_555
C5 C4 1_555 1_555
C6 C5 1_555 1_555
C7 C6 1_555 1_555
H7 C7 1_555 1_555
C8 C7 1_555 1_555
H8 C8 1_555 1_555
C9 C8 1_555 1_555
H9 C9 1_555 1_555
C10 C9 1_555 1_555
H10 C10 1_555 1_555
C11 C6 1_555 1_555
H11 C11 1_555 1_555
C12 N4 1_555 1_555
H12 C12 1_555 1_555
C13 N4 1_555 1_555
H13 C13 1_555 1_555
C14 N6 1_555 1_555
H14 C14 1_555 1_555
H15 C14 1_555 1_555
C15 C14 1_555 1_555
H16 C15 1_555 1_555
H17 C15 1_555 1_555
C16 C15 1_555 1_555
C17 C16 1_555 1_555
C18 C17 1_555 1_555
H18 C18 1_555 1_555
C19 C18 1_555 1_555
H19 C19 1_555 1_555
C20 C19 1_555 1_555
H20 C20 1_555 1_555
C21 C20 1_555 1_555
H21 C21 1_555 1_555
C22 C17 1_555 1_555
H22 C22 1_555 1_555
C23 N8 1_555 1_555
H23 C23 1_555 1_555
C24 N7 1_555 1_555
H24 C24 1_555 1_555
C25 N9 1_555 1_555
H25 C25 1_555 1_555
H26 C25 1_555 1_555
C26 C25 1_555 1_555
H27 C26 1_555 1_555
H28 C26 1_555 1_555
C27 C26 1_555 1_555
C28 C27 1_555 1_555
C29 C28 1_555 1_555
H29 C29 1_555 1_555
C30 C29 1_555 1_555
H30 C30 1_555 1_555
C31 C30 1_555 1_555
H31 C31 1_555 1_555
C32 C31 1_555 1_555
H32 C32 1_555 1_555
C33 C28 1_555 1_555
H33 C33 1_555 1_555
C34 N10 1_555 1_555
H34 C34 1_555 1_555
C35 N10 1_555 1_555
H35 C35 1_555 1_555
C36 N12 1_555 1_555
H36 C36 1_555 1_555
H37 C36 1_555 1_555
C37 C36 1_555 1_555
H38 C37 1_555 1_555
H39 C37 1_555 1_555
C38 C37 1_555 1_555
C39 C38 1_555 1_555
C40 C39 1_555 1_555
H40 C40 1_555 1_555
C41 C40 1_555 1_555
H41 C41 1_555 1_555
C42 C41 1_555 1_555
H42 C42 1_555 1_555
C43 C42 1_555 1_555
H43 C43 1_555 1_555
C44 C39 1_555 1_555
H44 C44 1_555 1_555
Cd1_2 N16 1_555 1_555
N16_2 Cd1 1_555 1_555
N19_2 Cd1 1_555 1_555
N2 C2 1_555 1_555
N5 C12 1_555 1_555
N11 C35 1_555 1_555
N14 N15 1_555 1_555
N19 Cd1_2 1_555 1_555
N23 N24 1_555 1_555
C10 C11 1_555 1_555
C21 C22 1_555 1_555
C32 C33 1_555 1_555
C43 C44 1_555 1_555

#END
