
#######################################################################
#
#                 Cambridge Crystallographic Data Centre
#                                CCDC 
#
#######################################################################
#
# If this CIF has been generated from an entry in the Cambridge 
# Structural Database, then it will include bibliographic, chemical, 
# crystal, experimental, refinement or atomic coordinate data resulting 
# from the CCDC's data processing and validation procedures.
#
#######################################################################

data_BIZSEJ
_symmetry_cell_setting           monoclinic
_symmetry_space_group_name_H-M   'P 21'
_symmetry_Int_Tables_number      4
_space_group_name_Hall           'P 2yb'
loop_
_symmetry_equiv_pos_site_id
_symmetry_equiv_pos_as_xyz
1 x,y,z
2 -x,1/2+y,-z
_cell_length_a                   5.1554(10)
_cell_length_b                   9.5043(19)
_cell_length_c                   13.627(3)
_cell_angle_alpha                90
_cell_angle_beta                 94.82(3)
_cell_angle_gamma                90
_cell_volume                     665.341
loop_
_atom_site_label
_atom_site_type_symbol
_atom_site_fract_x
_atom_site_fract_y
_atom_site_fract_z
C1 C -0.1447(4) 0.4252(3) 1.17156(18)
C2 C -0.3790(4) 0.4114(3) 1.09577(18)
H1 H -0.5359 0.4172 1.1301
H2 H -0.3749 0.3184 1.0665
C3 C -0.1709(4) 0.4813(2) 0.92174(18)
C4 C 0.1357(4) 0.3689(2) 0.82727(18)
C5 C 0.4372(4) 0.3491(3) 0.67199(16)
H3 H 0.4337 0.4499 0.6833
H4 H 0.6113 0.3248 0.6558
C6 C 0.2476(4) 0.3147(2) 0.58475(18)
N1 N -0.1311(4) 0.5509(2) 0.84268(16)
N2 N 0.0486(4) 0.4848(2) 0.78684(16)
O1 O -0.1686(3) 0.3552(2) 1.24944(12)
O2 O 0.0419(3) 0.5006(2) 1.15424(13)
O3 O 0.0336(3) 0.2622(2) 0.59581(14)
O4 O 0.3282(3) 0.3463(3) 0.50187(11)
O5 O -0.0626(3) 0.14243(19) 1.39464(14)
H5 H -0.0598 0.0891 1.3447
H6 H 0.0049 0.1028 1.4466
O6 O -0.2103(3) 0.45593(19) 1.44603(14)
H7 H -0.3137 0.5040 1.4074
H8 H -0.3032 0.3988 1.4759
O7 O 0.2564(3) 0.54165(19) 1.33802(14)
H9 H 0.2034 0.5402 1.2772
H10 H 0.1894 0.6112 1.3658
O8 O 0.3690(3) 0.2453(2) 1.29289(14)
H11 H 0.5185 0.2761 1.2817
H12 H 0.3081 0.1896 1.2479
S1 S -0.40220(11) 0.53897(6) 0.99806(5)
S2 S 0.00595(10) 0.32704(7) 0.93689(4)
S3 S 0.37405(12) 0.26074(7) 0.78411(5)
Zn1 Zn 0.09545(4) 0.34105(3) 1.374960(19)
O4_2 O 0.3282(3) 0.3463(3) 1.50187(11)
Zn1_2 Zn 0.09545(4) 0.34105(3) 0.374960(19)
loop_
_geom_bond_atom_site_label_1
_geom_bond_atom_site_label_2
_geom_bond_site_symmetry_1
_geom_bond_site_symmetry_2
C1 C2 1_555 1_555
C2 H1 1_555 1_555
H2 C2 1_555 1_555
C3 N1 1_555 1_555
C4 N2 1_555 1_555
C5 H3 1_555 1_555
H4 C5 1_555 1_555
C6 C5 1_555 1_555
N1 N2 1_555 1_555
O1 C1 1_555 1_555
O2 C1 1_555 1_555
O3 C6 1_555 1_555
O4 C6 1_555 1_555
O5 H5 1_555 1_555
H6 O5 1_555 1_555
O6 H7 1_555 1_555
H8 O6 1_555 1_555
O7 H9 1_555 1_555
H10 O7 1_555 1_555
O8 H11 1_555 1_555
H12 O8 1_555 1_555
S1 C2 1_555 1_555
S2 C3 1_555 1_555
S3 C4 1_555 1_555
Zn1 O1 1_555 1_555
O4_2 Zn1 1_555 1_555
Zn1_2 O4 1_555 1_555
C3 S1 1_555 1_555
C4 S2 1_555 1_555
C5 S3 1_555 1_555
O5 Zn1 1_555 1_555
O6 Zn1 1_555 1_555
O7 Zn1 1_555 1_555
O8 Zn1 1_555 1_555

#END
