
#######################################################################
#
#                 Cambridge Crystallographic Data Centre
#                                CCDC 
#
#######################################################################
#
# If this CIF has been generated from an entry in the Cambridge 
# Structural Database, then it will include bibliographic, chemical, 
# crystal, experimental, refinement or atomic coordinate data resulting 
# from the CCDC's data processing and validation procedures.
#
#######################################################################

data_BOBGEF
_symmetry_cell_setting           triclinic
_symmetry_space_group_name_H-M   'P -1'
_symmetry_Int_Tables_number      2
_space_group_name_Hall           '-P 1'
loop_
_symmetry_equiv_pos_site_id
_symmetry_equiv_pos_as_xyz
1 x,y,z
2 -x,-y,-z
_cell_length_a                   11.039(4)
_cell_length_b                   13.094(5)
_cell_length_c                   19.901(7)
_cell_angle_alpha                100.224(7)
_cell_angle_beta                 101.872(7)
_cell_angle_gamma                108.184(6)
_cell_volume                     2582.51
loop_
_atom_site_label
_atom_site_type_symbol
_atom_site_fract_x
_atom_site_fract_y
_atom_site_fract_z
C1 C 1.3496(4) 0.9907(4) -0.5020(3)
H1 H 1.3747 0.9674 -0.4617
C2 C 1.3542(5) 1.0951(4) -0.5021(3)
H2 H 1.3817 1.1555 -0.4627
C3 C 1.2795(5) 0.9908(4) -0.6114(3)
H3 H 1.2467 0.9684 -0.6607
C4 C 1.2813(5) 1.1840(4) -0.5986(3)
H4 H 1.2824 1.1737 -0.6480
H5 H 1.3502 1.2548 -0.5716
C5 C 1.1466(5) 1.1869(4) -0.5930(3)
C6 C 1.0574(5) 1.1074(4) -0.5723(3)
H6 H 1.0784 1.0477 -0.5612
C7 C 0.9374(5) 1.1152(5) -0.5679(3)
H7 H 0.8783 1.0613 -0.5537
C8 C 0.9049(5) 1.2037(5) -0.5847(3)
H8 H 0.8240 1.2089 -0.5815
C9 C 0.9922(5) 1.2841(4) -0.6062(3)
C10 C 1.1126(5) 1.2754(4) -0.6101(3)
H9 H 1.1718 1.3292 -0.6245
C11 C 0.9568(5) 1.3785(4) -0.6278(3)
H10 H 0.8787 1.3814 -0.6136
H11 H 1.0293 1.4485 -0.6034
C12 C 1.0214(5) 1.3961(4) -0.7424(3)
H12 H 1.1106 1.4412 -0.7233
C13 C 0.9567(5) 1.3499(4) -0.8114(3)
H13 H 0.9947 1.3575 -0.8487
C14 C 0.8142(5) 1.3007(4) -0.7536(3)
H14 H 0.7355 1.2686 -0.7424
C15 C 0.9716(5) 0.6550(4) -0.6216(3)
H15 H 0.9845 0.6623 -0.5730
C16 C 0.8528(5) 0.6099(4) -0.6710(3)
H16 H 0.7705 0.5795 -0.6631
C17 C 1.0094(4) 0.6658(4) -0.7219(3)
H17 H 1.0524 0.6812 -0.7565
C18 C 0.7717(5) 0.5717(5) -0.8038(3)
H18 H 0.6944 0.5882 -0.7974
H19 H 0.7460 0.4914 -0.8170
C19 C 0.8119(4) 0.6162(4) -0.8640(3)
C20 C 0.9012(5) 0.5844(4) -0.8950(3)
H20 H 0.9409 0.5385 -0.8765
C21 C 0.9319(5) 0.6200(4) -0.9532(3)
H21 H 0.9943 0.6007 -0.9723
C22 C 0.8685(5) 0.6848(4) -0.9826(3)
H22 H 0.8887 0.7084 -1.0218
C23 C 0.7757(5) 0.7148(4) -0.9548(3)
C24 C 0.7508(4) 0.6824(4) -0.8945(2)
H23 H 0.6921 0.7054 -0.8740
C25 C 0.6946(5) 0.7721(4) -0.9931(3)
H24 H 0.6903 0.7532 -1.0431
H25 H 0.6048 0.7430 -0.9892
C26 C 0.6728(5) 0.9560(4) -0.9522(3)
H26 H 0.5849 0.9271 -0.9513
N1 N 0.7421(4) 1.0637(3) -0.9390(2)
C27 C 0.8689(5) 0.9659(4) -0.9627(3)
H27 H 0.9408 0.9474 -0.9700
C28 C -0.5838(5) 0.7988(4) -0.6877(3)
C29 C -0.4630(5) 0.8433(4) -0.7121(3)
C30 C -0.3538(5) 0.8114(4) -0.6939(3)
H28 H -0.3571 0.7591 -0.6676
C31 C -0.2407(5) 0.8565(4) -0.7145(3)
H29 H -0.1700 0.8325 -0.7030
C32 C -0.2310(5) 0.9378(4) -0.7525(3)
C33 C -0.3391(5) 0.9703(5) -0.7695(3)
H30 H -0.3342 1.0249 -0.7941
C34 C -0.4539(5) 0.9237(5) -0.7507(3)
H31 H -0.5256 0.9459 -0.7639
C35 C -0.1127(5) 0.9883(4) -0.7753(3)
H32 H -0.1019 1.0570 -0.7849
C36 C -0.0187(5) 0.9469(4) -0.7838(3)
H33 H -0.0293 0.8777 -0.7748
C37 C 0.0995(5) 0.9995(4) -0.8058(3)
C38 C 0.1644(5) 0.9359(4) -0.8360(3)
H34 H 0.1307 0.8591 -0.8428
C39 C 0.2773(5) 0.9835(4) -0.8559(3)
H35 H 0.3178 0.9386 -0.8763
C40 C 0.3309(5) 1.0983(4) -0.8458(3)
C41 C 0.4618(5) 1.1540(4) -0.8596(3)
C42 C 0.2645(5) 1.1625(4) -0.8175(3)
H36 H 0.2983 1.2392 -0.8111
C43 C 0.1503(5) 1.1154(4) -0.7987(3)
H37 H 0.1066 1.1599 -0.7813
C44 C 0.7119(5) 1.3038(4) -1.0039(3)
C45 C 0.6820(4) 1.3659(4) -1.0586(3)
C46 C 0.6046(4) 1.4312(4) -1.0493(3)
H38 H 0.5735 1.4375 -1.0093
C47 C 0.5744(5) 1.4869(4) -1.1003(3)
H39 H 0.5249 1.5317 -1.0931
C48 C 0.6161(5) 1.4770(4) -1.1612(2)
C49 C 0.6971(5) 1.4151(4) -1.1689(3)
H40 H 0.7288 1.4096 -1.2087
C50 C 0.7308(5) 1.3616(4) -1.1177(3)
H41 H 0.7868 1.3222 -1.1231
C51 C 0.5650(4) 1.5260(4) -1.2173(3)
H42 H 0.5392 1.5856 -1.2032
C52 C 0.5530(4) 1.4917(4) -1.2865(3)
H43 H 0.5896 1.4390 -1.3000
C53 C 0.4869(5) 1.5306(4) -1.3429(3)
C54 C 0.4635(4) 1.6303(4) -1.3311(3)
H44 H 0.4895 1.6754 -1.2850
C55 C 0.4017(5) 1.6632(4) -1.3874(3)
H45 H 0.3897 1.7311 -1.3790
C56 C 0.3577(4) 1.5941(4) -1.4564(3)
C57 C 0.3766(5) 1.4939(4) -1.4679(3)
H46 H 0.3453 1.4464 -1.5134
C58 C 0.4416(5) 1.4636(4) -1.4121(3)
H47 H 0.4555 1.3966 -1.4211
C59 C 0.3010(5) 1.6316(4) -1.5194(3)
N2 N 0.8257(4) 1.2897(3) -0.8190(2)
N3 N 0.9303(4) 1.3639(3) -0.7052(2)
N4 N 1.3101(4) 1.0939(3) -0.5720(2)
N5 N 1.3020(4) 0.9240(3) -0.5709(2)
N6 N 1.0705(4) 0.6886(3) -0.6537(2)
N7 N 0.8766(4) 0.6175(3) -0.7351(2)
N8 N 0.7452(4) 0.8936(3) -0.9669(2)
C60 C 0.8651(5) 1.0689(4) -0.9458(3)
H48 H 0.9359 1.1343 -0.9395
O1 O 0.5126(3) 1.2574(3) -0.8432(2)
O2 O 0.5171(3) 1.0914(3) -0.88775(18)
O3 O 0.6165(3) 1.2644(3) -0.97726(19)
O4 O 0.8203(3) 1.2935(3) -0.9865(2)
O5 O 0.2558(3) 1.5683(3) -1.58034(19)
O6 O 0.3046(3) 1.7325(3) -1.50613(17)
O7 O -0.5747(3) 0.7502(3) -0.63691(18)
O8 O -0.6894(3) 0.8118(3) -0.71386(18)
Co1 Co 0.67850(6) 1.18913(5) -0.90798(4)
Co2 Co 1.26824(6) 0.75857(5) -0.60402(3)
O6_2 O 1.3046(3) 0.7325(3) -0.50613(17)
O7_2 O 1.4253(3) 0.7502(3) -0.63691(18)
Co2_2 Co 0.26824(6) 1.75857(5) -1.60402(3)
Co2_3 Co -0.73176(6) 0.75857(5) -0.60402(3)
loop_
_geom_bond_atom_site_label_1
_geom_bond_atom_site_label_2
_geom_bond_site_symmetry_1
_geom_bond_site_symmetry_2
C1 H1 1_555 1_555
C2 C1 1_555 1_555
H2 C2 1_555 1_555
C3 H3 1_555 1_555
C4 H4 1_555 1_555
H5 C4 1_555 1_555
C5 C4 1_555 1_555
C6 C5 1_555 1_555
H6 C6 1_555 1_555
C7 C6 1_555 1_555
H7 C7 1_555 1_555
C8 C7 1_555 1_555
H8 C8 1_555 1_555
C9 C8 1_555 1_555
C10 C5 1_555 1_555
H9 C10 1_555 1_555
C11 C9 1_555 1_555
H10 C11 1_555 1_555
H11 C11 1_555 1_555
C12 H12 1_555 1_555
C13 C12 1_555 1_555
H13 C13 1_555 1_555
C14 H14 1_555 1_555
C15 H15 1_555 1_555
C16 C15 1_555 1_555
H16 C16 1_555 1_555
C17 H17 1_555 1_555
C18 H18 1_555 1_555
H19 C18 1_555 1_555
C19 C18 1_555 1_555
C20 C19 1_555 1_555
H20 C20 1_555 1_555
C21 C20 1_555 1_555
H21 C21 1_555 1_555
C22 C21 1_555 1_555
H22 C22 1_555 1_555
C23 C22 1_555 1_555
C24 C19 1_555 1_555
H23 C24 1_555 1_555
C25 C23 1_555 1_555
H24 C25 1_555 1_555
H25 C25 1_555 1_555
C26 H26 1_555 1_555
N1 C26 1_555 1_555
C27 H27 1_555 1_555
C28 C29 1_555 1_555
C29 C30 1_555 1_555
C30 H28 1_555 1_555
C31 C30 1_555 1_555
H29 C31 1_555 1_555
C32 C31 1_555 1_555
C33 C32 1_555 1_555
H30 C33 1_555 1_555
C34 C29 1_555 1_555
H31 C34 1_555 1_555
C35 C32 1_555 1_555
H32 C35 1_555 1_555
C36 C35 1_555 1_555
H33 C36 1_555 1_555
C37 C36 1_555 1_555
C38 C37 1_555 1_555
H34 C38 1_555 1_555
C39 C38 1_555 1_555
H35 C39 1_555 1_555
C40 C39 1_555 1_555
C41 C40 1_555 1_555
C42 C40 1_555 1_555
H36 C42 1_555 1_555
C43 C37 1_555 1_555
H37 C43 1_555 1_555
C44 C45 1_555 1_555
C45 C46 1_555 1_555
C46 H38 1_555 1_555
C47 C46 1_555 1_555
H39 C47 1_555 1_555
C48 C47 1_555 1_555
C49 C48 1_555 1_555
H40 C49 1_555 1_555
C50 C45 1_555 1_555
H41 C50 1_555 1_555
C51 C48 1_555 1_555
H42 C51 1_555 1_555
C52 C51 1_555 1_555
H43 C52 1_555 1_555
C53 C52 1_555 1_555
C54 C53 1_555 1_555
H44 C54 1_555 1_555
C55 C54 1_555 1_555
H45 C55 1_555 1_555
C56 C55 1_555 1_555
C57 C56 1_555 1_555
H46 C57 1_555 1_555
C58 C53 1_555 1_555
H47 C58 1_555 1_555
C59 C56 1_555 1_555
N2 C13 1_555 1_555
N3 C11 1_555 1_555
N4 C2 1_555 1_555
N5 C1 1_555 1_555
N6 C15 1_555 1_555
N7 C16 1_555 1_555
N8 C25 1_555 1_555
C60 N1 1_555 1_555
H48 C60 1_555 1_555
O1 C41 1_555 1_555
O2 C41 1_555 1_555
O3 C44 1_555 1_555
O4 C44 1_555 1_555
O5 C59 1_555 1_555
O6 C59 1_555 1_555
O7 C28 1_555 1_555
O8 C28 1_555 1_555
Co1 N1 1_555 1_555
Co2 N5 1_555 1_555
O6_2 Co2 1_555 1_555
O7_2 Co2 1_555 1_555
Co2_2 O6 1_555 1_555
Co2_3 O7 1_555 1_555
C3 N4 1_555 1_555
C3 N5 1_555 1_555
C4 N4 1_555 1_555
C9 C10 1_555 1_555
C12 N3 1_555 1_555
C14 N2 1_555 1_555
C14 N3 1_555 1_555
C17 N6 1_555 1_555
C17 N7 1_555 1_555
C18 N7 1_555 1_555
C23 C24 1_555 1_555
C26 N8 1_555 1_555
C27 N8 1_555 1_555
C27 C60 1_555 1_555
C33 C34 1_555 1_555
C42 C43 1_555 1_555
C49 C50 1_555 1_555
C57 C58 1_555 1_555
N2 Co1 1_555 1_555
N6 Co2 1_555 1_555
O2 Co1 1_555 1_555
O3 Co1 1_555 1_555

#END
