
#######################################################################
#
#                 Cambridge Crystallographic Data Centre
#                                CCDC 
#
#######################################################################
#
# If this CIF has been generated from an entry in the Cambridge 
# Structural Database, then it will include bibliographic, chemical, 
# crystal, experimental, refinement or atomic coordinate data resulting 
# from the CCDC's data processing and validation procedures.
#
#######################################################################

data_BOBHEG
_symmetry_cell_setting           monoclinic
_symmetry_space_group_name_H-M   'C 2/c'
_symmetry_Int_Tables_number      15
_space_group_name_Hall           '-C 2yn'
loop_
_symmetry_equiv_pos_site_id
_symmetry_equiv_pos_as_xyz
1 x,y,z
2 1/2+x,1/2+y,z
3 -x,y,1/2-z
4 1/2-x,1/2+y,1/2-z
5 -x,-y,-z
6 1/2-x,1/2-y,-z
7 x,-y,1/2+z
8 1/2+x,1/2-y,1/2+z
_cell_length_a                   19.354(3)
_cell_length_b                   20.082(2)
_cell_length_c                   11.8003(18)
_cell_angle_alpha                90
_cell_angle_beta                 127.450(2)
_cell_angle_gamma                90
_cell_volume                     3641.06
loop_
_atom_site_label
_atom_site_type_symbol
_atom_site_fract_x
_atom_site_fract_y
_atom_site_fract_z
K1 K 0.32342(3) 0.26734(2) -0.07095(4)
P1 P 0.34091(3) 0.36291(2) 0.35242(5)
O1 O 0.34794(9) 0.37761(6) -0.17991(15)
N1 N 0.29482(10) 0.33650(7) 0.09823(16)
N2 N 0.35305(10) 0.28800(7) 0.18440(16)
C1 C 0.28174(11) 0.37989(8) 0.16980(18)
C2 C 0.38362(11) 0.29488(8) 0.32047(18)
C3 C 0.22101(11) 0.43579(8) 0.09067(18)
C4 C 0.18080(12) 0.44556(9) -0.05493(19)
H1 H 0.1945 0.4169 -0.1028
C5 C 0.12120(12) 0.49664(10) -0.1295(2)
H2 H 0.0937 0.5022 -0.2284
C6 C 0.10146(12) 0.53957(9) -0.0613(2)
H3 H 0.0609 0.5747 -0.1127
C7 C 0.14120(12) 0.53095(9) 0.0827(2)
H4 H 0.1278 0.5602 0.1301
C8 C 0.20058(11) 0.47972(8) 0.15778(19)
H5 H 0.2278 0.4745 0.2567
C9 C 0.44875(11) 0.24639(8) 0.42659(19)
C10 C 0.49175(12) 0.25613(9) 0.5721(2)
H6 H 0.4788 0.2944 0.6034
C11 C 0.55309(12) 0.21093(10) 0.6721(2)
H7 H 0.5813 0.2183 0.7708
C12 C 0.57338(12) 0.15513(9) 0.6288(2)
H8 H 0.6158 0.1243 0.6973
C13 C 0.53127(12) 0.14459(9) 0.4845(2)
H9 H 0.5447 0.1063 0.4540
C14 C 0.46985(12) 0.18955(9) 0.3846(2)
H10 H 0.4415 0.1817 0.2861
C15 C 0.32378(15) 0.37620(11) -0.3203(2)
H11 H 0.3749 0.3647 -0.3166
H12 H 0.3024 0.4206 -0.3653
C16 C 0.25327(16) 0.32500(11) -0.4066(2)
H13 H 0.2758 0.2809 -0.3642
H14 H 0.2344 0.3250 -0.5048
H15 H 0.2037 0.3358 -0.4070
C17 C 0.41063(14) 0.42862(10) -0.0946(2)
H16 H 0.3868 0.4726 -0.1403
H17 H 0.4641 0.4205 -0.0861
C18 C 0.43181(17) 0.42822(13) 0.0507(3)
H18 H 0.3786 0.4359 0.0414
H19 H 0.4739 0.4635 0.1092
H20 H 0.4567 0.3850 0.0963
K1E K 0.17658(3) 0.23266(2) 0.07095(4)
K1B K 0.67658(3) 0.26734(2) 0.57095(4)
N1E N 0.20518(10) 0.16350(7) -0.09823(16)
N2E N 0.14695(10) 0.21200(7) -0.18440(16)
C1E C 0.21826(11) 0.12011(8) -0.16980(18)
C2E C 0.11638(11) 0.20512(8) -0.32047(18)
C11B C 0.44691(12) 0.21093(10) -0.1721(2)
H7B H 0.4187 0.2183 -0.2708
C12B C 0.42662(12) 0.15513(9) -0.1288(2)
H8B H 0.3842 0.1243 -0.1973
C13B C 0.46873(12) 0.14459(9) 0.0155(2)
H9B H 0.4553 0.1063 0.0460
loop_
_geom_bond_atom_site_label_1
_geom_bond_atom_site_label_2
_geom_bond_site_symmetry_1
_geom_bond_site_symmetry_2
K1 O1 1_555 1_555
P1 C1 1_555 1_555
O1 C15 1_555 1_555
N1 K1 1_555 1_555
N2 K1 1_555 1_555
C1 N1 1_555 1_555
C2 P1 1_555 1_555
C3 C1 1_555 1_555
C4 C3 1_555 1_555
H1 C4 1_555 1_555
C5 C4 1_555 1_555
H2 C5 1_555 1_555
C6 C5 1_555 1_555
H3 C6 1_555 1_555
C7 C6 1_555 1_555
H4 C7 1_555 1_555
C8 C3 1_555 1_555
H5 C8 1_555 1_555
C9 C2 1_555 1_555
C10 C9 1_555 1_555
H6 C10 1_555 1_555
C11 C10 1_555 1_555
H7 C11 1_555 1_555
C12 C11 1_555 1_555
H8 C12 1_555 1_555
C13 C12 1_555 1_555
H9 C13 1_555 1_555
C14 C9 1_555 1_555
H10 C14 1_555 1_555
C15 H11 1_555 1_555
H12 C15 1_555 1_555
C16 C15 1_555 1_555
H13 C16 1_555 1_555
H14 C16 1_555 1_555
H15 C16 1_555 1_555
C17 O1 1_555 1_555
H16 C17 1_555 1_555
H17 C17 1_555 1_555
C18 C17 1_555 1_555
H18 C18 1_555 1_555
H19 C18 1_555 1_555
H20 C18 1_555 1_555
K1E N1 1_555 1_555
K1B C11 1_555 1_555
N1E K1 1_555 1_555
N2E K1 1_555 1_555
C1E K1 1_555 1_555
C2E K1 1_555 1_555
C11B K1 1_555 1_555
H7B C11B 1_555 1_555
C12B K1 1_555 1_555
H8B C12B 1_555 1_555
C13B K1 1_555 1_555
H9B C13B 1_555 1_555
N1 N2 1_555 1_555
N2 C2 1_555 1_555
N2 K1E 1_555 1_555
C1 K1E 1_555 1_555
C2 K1E 1_555 1_555
C7 C8 1_555 1_555
C12 K1B 1_555 1_555
C13 C14 1_555 1_555
C13 K1B 1_555 1_555
K1E N1E 1_555 1_555
K1E N2E 1_555 1_555
N1E N2E 1_555 1_555
N1E C1E 1_555 1_555
N2E C2E 1_555 1_555
C11B C12B 1_555 1_555
C12B C13B 1_555 1_555

#END
