
#######################################################################
#
#                 Cambridge Crystallographic Data Centre
#                                CCDC 
#
#######################################################################
#
# If this CIF has been generated from an entry in the Cambridge 
# Structural Database, then it will include bibliographic, chemical, 
# crystal, experimental, refinement or atomic coordinate data resulting 
# from the CCDC's data processing and validation procedures.
#
#######################################################################

data_BOBJEI
_symmetry_cell_setting           cubic
_symmetry_space_group_name_H-M   'I -4 3 d'
_symmetry_Int_Tables_number      220
_space_group_name_Hall           'I -4bd 2c 3'
loop_
_symmetry_equiv_pos_site_id
_symmetry_equiv_pos_as_xyz
1 x,y,z
2 1/2-x,-y,1/2+z
3 -x,1/2+y,1/2-z
4 1/2+x,1/2-y,-z
5 z,x,y
6 1/2+z,1/2-x,-y
7 1/2-z,-x,1/2+y
8 -z,1/2+x,1/2-y
9 y,z,x
10 -y,1/2+z,1/2-x
11 1/2+y,1/2-z,-x
12 1/2-y,-z,1/2+x
13 1/4+y,1/4+x,1/4+z
14 1/4-y,3/4-x,3/4+z
15 3/4+y,1/4-x,3/4-z
16 3/4-y,3/4+x,1/4-z
17 1/4+x,1/4+z,1/4+y
18 3/4-x,3/4+z,1/4-y
19 1/4-x,3/4-z,3/4+y
20 3/4+x,1/4-z,3/4-y
21 1/4+z,1/4+y,1/4+x
22 3/4+z,1/4-y,3/4-x
23 3/4-z,3/4+y,1/4-x
24 1/4-z,3/4-y,3/4+x
25 1/2+x,1/2+y,1/2+z
26 -x,1/2-y,z
27 1/2-x,y,-z
28 x,-y,1/2-z
29 1/2+z,1/2+x,1/2+y
30 z,-x,1/2-y
31 -z,1/2-x,y
32 1/2-z,x,-y
33 1/2+y,1/2+z,1/2+x
34 1/2-y,z,-x
35 y,-z,1/2-x
36 -y,1/2-z,x
37 3/4+y,3/4+x,3/4+z
38 3/4-y,1/4-x,1/4+z
39 1/4+y,3/4-x,1/4-z
40 1/4-y,1/4+x,3/4-z
41 3/4+x,3/4+z,3/4+y
42 1/4-x,1/4+z,3/4-y
43 3/4-x,1/4-z,1/4+y
44 1/4+x,3/4-z,1/4-y
45 3/4+z,3/4+y,3/4+x
46 1/4+z,3/4-y,1/4-x
47 1/4-z,1/4+y,3/4-x
48 3/4-z,1/4-y,1/4+x
_cell_length_a                   21.4983(1)
_cell_length_b                   21.4983(1)
_cell_length_c                   21.4983(1)
_cell_angle_alpha                90
_cell_angle_beta                 90
_cell_angle_gamma                90
_cell_volume                     9936.02
loop_
_atom_site_label
_atom_site_type_symbol
_atom_site_fract_x
_atom_site_fract_y
_atom_site_fract_z
O1 O 0.0476(5) 0.6173(5) 0.8560(5)
H7 H 0.0843 0.6283 0.8475
H8 H 0.0326 0.6288 0.8097
O2 O -0.0499(5) 0.6886(8) 0.7803(8)
H9 H -0.0377 0.7219 0.7662
H10 H -0.0813 0.6979 0.8001
C1 C 0.13070(12) 0.59092(12) 1.14545(12)
C2 C 0.18677(15) 0.55938(15) 1.17106(16)
H1 H 0.1819 0.5151 1.1675
H2 H 0.1917 0.5704 1.2140
H3 H 0.2229 0.5723 1.1481
C3 C 0.00603(19) 0.78085(15) 0.92190(13)
C4 C 0.0001(5) 0.8133(4) 0.8613(3)
H4 H -0.032(3) 0.795(3) 0.835(2)
N1 N 0.00811(13) 0.79911(11) 0.98122(12)
Cd1 Cd 0.0000 0.7500 1.1250
Cd2 Cd 0.030750(9) 0.902230(9) 1.015140(8)
N3 N 0.11050(10) 0.64682(10) 1.16413(10)
N4 N 0.06052(10) 0.65901(10) 1.12846(11)
N5 N 0.05098(10) 0.61286(10) 1.09071(10)
N6 N 0.09420(10) 0.56876(10) 1.10061(10)
N7 N 0.0000 0.7500 1.01621(16)
S1 S 0.05062(3) 1.05062(3) 1.05062(3)
O3 O -0.03765(8) 0.96235(8) 0.96235(8)
H11 H -0.0597(5) 0.9403(5) 0.9403(5)
O4 O 0.04648(13) 0.98721(11) 1.07651(11)
O5 O 0.08981(11) 1.08981(11) 1.08981(11)
C1O C 0.15908(12) 0.88070(12) 1.10455(12)
C1Y C -0.13070(12) 0.90908(12) 1.14545(12)
C1LA C -0.15908(12) 0.61930(12) 1.10455(12)
C1CA C 0.14545(12) 0.86930(12) 0.90908(12)
C1G C -0.14545(12) 0.63070(12) 0.90908(12)
C1NA C -0.11930(12) 0.89545(12) 1.34092(12)
C1R C 0.11930(12) 0.60455(12) 1.34092(12)
C1OA C 0.11930(12) 0.39545(12) 1.15908(12)
C1J C 0.09092(12) 0.35455(12) 0.86930(12)
C1F C 0.35455(12) 0.86930(12) 1.09092(12)
C1T C 0.39545(12) 0.84092(12) 1.38070(12)
C2O C 0.19062(15) 0.93677(15) 1.07894(16)
C2Y C -0.18677(15) 0.94062(15) 1.17106(16)
C2LA C -0.19062(15) 0.56323(15) 1.07894(16)
C2CA C 0.17106(16) 0.81323(15) 0.94062(15)
C2G C -0.17106(16) 0.68677(15) 0.94062(15)
C2NA C -0.06323(15) 0.92106(16) 1.30938(15)
C2R C 0.06323(15) 0.57894(16) 1.30938(15)
C2OA C 0.06323(15) 0.42106(16) 1.19062(15)
C2J C 0.05938(15) 0.32894(16) 0.81323(15)
C2F C 0.32894(16) 0.81323(15) 1.05938(15)
C2T C 0.42106(16) 0.80938(15) 1.43677(15)
H1O H 0.2349 0.9319 1.0825
H1Y H -0.1819 0.9849 1.1675
H1LA H -0.2349 0.5681 1.0825
H1CA H 0.1675 0.8181 0.9849
H1G H -0.1675 0.6819 0.9849
H1NA H -0.0681 0.9175 1.2651
H1R H 0.0681 0.5825 1.2651
H1OA H 0.0681 0.4175 1.2349
H1J H 0.0151 0.3325 0.8181
H1F H 0.3325 0.8181 1.0151
H1T H 0.4175 0.7651 1.4319
H2O H 0.1796 0.9417 1.0360
H2Y H -0.1917 0.9296 1.2140
H2LA H -0.1796 0.5583 1.0360
H2CA H 0.2140 0.8083 0.9296
H2G H -0.2140 0.6917 0.9296
H2NA H -0.0583 0.9640 1.3204
H2R H 0.0583 0.5360 1.3204
H2OA H 0.0583 0.4640 1.1796
H2J H 0.0704 0.2860 0.8083
H2F H 0.2860 0.8083 1.0704
H2T H 0.4640 0.8204 1.4417
H3O H 0.1777 0.9729 1.1019
H3Y H -0.2229 0.9277 1.1481
H3LA H -0.1777 0.5271 1.1019
H3CA H 0.1481 0.7771 0.9277
H3G H -0.1481 0.7229 0.9277
H3NA H -0.0271 0.8981 1.3223
H3R H 0.0271 0.6019 1.3223
H3OA H 0.0271 0.3981 1.1777
H3J H 0.0723 0.3519 0.7771
H3F H 0.3519 0.7771 1.0723
H3T H 0.3981 0.8223 1.4729
C3Y C -0.00603(19) 0.71915(15) 0.92190(13)
C3O C -0.03085(15) 0.75603(19) 1.32810(13)
C3LA C 0.03085(15) 0.74397(19) 1.32810(13)
C3IA C 0.21915(15) 0.57810(13) 1.00603(19)
C3J C 0.28085(15) 0.57810(13) 0.99397(19)
C3SA C 0.17190(13) 0.96915(15) 1.24397(19)
C3T C 0.17190(13) 1.03085(15) 1.25603(19)
C3H C -0.21915(15) 0.92190(13) 1.00603(19)
C3GA C -0.28085(15) 0.92190(13) 0.99397(19)
C3V C -0.17190(13) 0.53085(15) 1.24397(19)
C3UA C -0.17190(13) 0.46915(15) 1.25603(19)
C4Y C -0.0001(5) 0.6867(4) 0.8613(3)
C4O C -0.0633(4) 0.7501(5) 1.3887(3)
C4LA C 0.0633(4) 0.7499(5) 1.3887(3)
C4IA C 0.1867(4) 0.6387(3) 1.0001(5)
C4J C 0.3133(4) 0.6387(3) 0.9999(5)
C4SA C 0.1113(3) 0.9367(4) 1.2499(5)
C4T C 0.1113(3) 1.0633(4) 1.2501(5)
C4H C -0.1867(4) 0.8613(3) 1.0001(5)
C4GA C -0.3133(4) 0.8613(3) 0.9999(5)
C4V C -0.1113(3) 0.5633(4) 1.2499(5)
C4UA C -0.1113(3) 0.4367(4) 1.2501(5)
H4Y H 0.032(3) 0.705(3) 0.835(2)
H4O H -0.045(3) 0.718(3) 1.415(2)
H4LA H 0.045(3) 0.782(3) 1.415(2)
H4IA H 0.205(3) 0.665(2) 0.968(3)
H4J H 0.295(3) 0.665(2) 1.032(3)
H4SA H 0.085(2) 0.955(3) 1.282(3)
H4T H 0.085(2) 1.045(3) 1.218(3)
H4H H -0.205(3) 0.835(2) 0.968(3)
H4GA H -0.295(3) 0.835(2) 1.032(3)
H4V H -0.085(2) 0.545(3) 1.282(3)
H4UA H -0.085(2) 0.455(3) 1.218(3)
N1Y N -0.00811(13) 0.70089(11) 0.98122(12)
N1O N -0.04911(11) 0.75811(13) 1.26878(12)
N1LA N 0.04911(11) 0.74189(13) 1.26878(12)
N1IA N 0.20089(11) 0.51878(12) 1.00811(13)
N1J N 0.29911(11) 0.51878(12) 0.99189(13)
N1SA N 0.23122(12) 0.95089(11) 1.24189(13)
N1T N 0.23122(12) 1.04911(11) 1.25811(13)
N1H N -0.20089(11) 0.98122(12) 1.00811(13)
N1GA N -0.29911(11) 0.98122(12) 0.99189(13)
N1V N -0.23122(12) 0.54911(11) 1.24189(13)
N1UA N -0.23122(12) 0.45089(11) 1.25811(13)
Cd1D Cd 0.1250 1.0000 0.7500
Cd1G Cd -0.1250 0.5000 0.7500
Cd1K Cd -0.2500 0.8750 1.5000
Cd1I Cd 0.2500 0.6250 1.5000
Cd1J Cd 0.2500 0.3750 1.0000
Cd1F Cd 0.3750 1.0000 1.2500
Cd1H Cd -0.2500 1.1250 1.0000
Cd1E Cd -0.3750 0.5000 1.2500
Cd2Y Cd -0.030750(9) 0.597770(9) 1.015140(8)
Cd2O Cd -0.152230(9) 0.780750(9) 1.234860(8)
Cd2LA Cd 0.152230(9) 0.719250(9) 1.234860(8)
Cd2IA Cd 0.097770(9) 0.484860(8) 1.030750(9)
Cd2SA Cd 0.265140(8) 0.847770(9) 1.219250(9)
Cd2H Cd -0.097770(9) 1.015140(8) 1.030750(9)
Cd2V Cd -0.265140(8) 0.652230(9) 1.219250(9)
Cd2J Cd 0.402230(9) 0.484860(8) 0.969250(9)
Cd2T Cd 0.265140(8) 1.152230(9) 1.280750(9)
Cd2GA Cd -0.402230(9) 1.015140(8) 0.969250(9)
Cd2UA Cd -0.265140(8) 0.347770(9) 1.280750(9)
Cd2D Cd 0.015140(8) 1.030750(9) 0.902230(9)
Cd2W Cd 0.234860(8) 0.847770(9) 0.780750(9)
Cd2RA Cd -0.234860(8) 0.652230(9) 0.780750(9)
Cd2DA Cd -0.015140(8) 0.469250(9) 0.902230(9)
Cd2HA Cd -0.097770(9) 0.984860(8) 1.469250(9)
Cd2Q Cd -0.280750(9) 0.765140(8) 1.347770(9)
Cd2I Cd 0.097770(9) 0.515140(8) 1.469250(9)
Cd2QA Cd 0.280750(9) 0.734860(8) 1.347770(9)
Cd2P Cd 0.280750(9) 0.265140(8) 1.152230(9)
Cd2L Cd 0.152230(9) 0.280750(9) 1.265140(8)
Cd2OA Cd 0.219250(9) 0.265140(8) 0.847770(9)
Cd2EA Cd 0.484860(8) 1.030750(9) 1.097770(9)
Cd2Z Cd 0.469250(9) 0.902230(9) 0.984860(8)
Cd2F Cd 0.484860(8) 0.969250(9) 1.402230(9)
N3O N 0.10318(10) 0.86050(10) 1.08587(10)
N3Y N -0.11050(10) 0.85318(10) 1.16413(10)
N3LA N -0.10318(10) 0.63950(10) 1.08587(10)
N3CA N 0.16413(10) 0.88950(10) 0.85318(10)
N3G N -0.16413(10) 0.61050(10) 0.85318(10)
N3NA N -0.13950(10) 0.91413(10) 1.39682(10)
N3R N 0.13950(10) 0.58587(10) 1.39682(10)
N3OA N 0.13950(10) 0.41413(10) 1.10318(10)
N3J N 0.14682(10) 0.33587(10) 0.88950(10)
N3F N 0.33587(10) 0.88950(10) 1.14682(10)
N3T N 0.41413(10) 0.89682(10) 1.36050(10)
N3S N -0.13950(10) 1.08587(10) 1.10318(10)
N3BA N -0.33587(10) 0.61050(10) 1.14682(10)
N3P N 0.36050(10) 0.41413(10) 0.89682(10)
N3EA N 0.33587(10) 1.11050(10) 1.35318(10)
N3PA N -0.36050(10) 1.08587(10) 0.89682(10)
N3E N -0.33587(10) 0.38950(10) 1.35318(10)
N4O N 0.09099(10) 0.81052(10) 1.12154(11)
N4Y N -0.06052(10) 0.84099(10) 1.12846(11)
N4LA N -0.09099(10) 0.68948(10) 1.12154(11)
N4CA N 0.12846(11) 0.93948(10) 0.84099(10)
N4G N -0.12846(11) 0.56052(10) 0.84099(10)
N4NA N -0.18948(10) 0.87846(11) 1.40901(10)
N4R N 0.18948(10) 0.62154(11) 1.40901(10)
N4OA N 0.18948(10) 0.37846(11) 1.09099(10)
N4J N 0.15901(10) 0.37154(11) 0.93948(10)
N4F N 0.37154(11) 0.93948(10) 1.15901(10)
N4T N 0.37846(11) 0.90901(10) 1.31052(10)
N4D N 0.12846(11) 1.06052(10) 0.65901(10)
N4W N 0.12154(11) 1.09099(10) 0.81052(10)
N4TA N 0.12154(11) 0.90901(10) 0.68948(10)
N4U N -0.12154(11) 0.59099(10) 0.68948(10)
N4DA N -0.12846(11) 0.43948(10) 0.65901(10)
N4RA N -0.12154(11) 0.40901(10) 0.81052(10)
N5O N 0.13714(10) 0.80098(10) 1.15929(10)
N5Y N -0.05098(10) 0.88714(10) 1.09071(10)
N5LA N -0.13714(10) 0.69902(10) 1.15929(10)
N5CA N 0.09071(10) 0.94902(10) 0.88714(10)
N5G N -0.09071(10) 0.55098(10) 0.88714(10)
N5NA N -0.19902(10) 0.84071(10) 1.36286(10)
N5R N 0.19902(10) 0.65929(10) 1.36286(10)
N5OA N 0.19902(10) 0.34071(10) 1.13714(10)
N5J N 0.11286(10) 0.40929(10) 0.94902(10)
N5F N 0.40929(10) 0.94902(10) 1.11286(10)
N5T N 0.34071(10) 0.86286(10) 1.30098(10)
N5GA N -0.11286(10) 1.09071(10) 0.94902(10)
N5UA N -0.34071(10) 0.63714(10) 1.30098(10)
N5IA N 0.38714(10) 0.40929(10) 1.05098(10)
N5SA N 0.34071(10) 1.13714(10) 1.19902(10)
N5H N -0.38714(10) 1.09071(10) 1.05098(10)
N5V N -0.34071(10) 0.36286(10) 1.19902(10)
N6O N 0.18124(10) 0.84420(10) 1.14939(10)
N6Y N -0.09420(10) 0.93124(10) 1.10061(10)
N6LA N -0.18124(10) 0.65580(10) 1.14939(10)
N6CA N 0.10061(10) 0.90580(10) 0.93124(10)
N6G N -0.10061(10) 0.59420(10) 0.93124(10)
N6NA N -0.15580(10) 0.85061(10) 1.31876(10)
N6R N 0.15580(10) 0.64939(10) 1.31876(10)
N6OA N 0.15580(10) 0.35061(10) 1.18124(10)
N6J N 0.06876(10) 0.39939(10) 0.90580(10)
N6F N 0.39939(10) 0.90580(10) 1.06876(10)
N6T N 0.35061(10) 0.81876(10) 1.34420(10)
N6Z N 0.40580(10) 0.56876(10) 0.89939(10)
N6KA N 0.18124(10) 1.15580(10) 1.35061(10)
N6C N -0.40580(10) 0.93124(10) 0.89939(10)
N6L N -0.18124(10) 0.34420(10) 1.35061(10)
N7O N 0.0000 0.7500 1.23379(16)
N7J N 0.2500 0.48379(16) 1.0000
N7T N 0.26621(16) 1.0000 1.2500
N7H N -0.2500 1.01621(16) 1.0000
N7V N -0.26621(16) 0.5000 1.2500
N7D N 0.01621(16) 1.0000 0.7500
N7W N 0.23379(16) 1.0000 0.7500
N7G N -0.01621(16) 0.5000 0.7500
N7U N -0.23379(16) 0.5000 0.7500
S1Y S -0.05062(3) 0.44938(3) 1.05062(3)
S1O S -0.30062(3) 0.80062(3) 1.19938(3)
S1LA S 0.30062(3) 0.69938(3) 1.19938(3)
O3Y O 0.03765(8) 0.53765(8) 0.96235(8)
O3O O -0.21235(8) 0.71235(8) 1.28765(8)
O3LA O 0.21235(8) 0.78765(8) 1.28765(8)
O3C O 0.46235(8) 0.53765(8) 1.03765(8)
O3L O 0.21235(8) 1.21235(8) 1.21235(8)
O3Z O -0.46235(8) 0.96235(8) 1.03765(8)
O3KA O -0.21235(8) 0.28765(8) 1.21235(8)
H11Y H 0.0597(5) 0.5597(5) 0.9403(5)
H11O H -0.1903(5) 0.6903(5) 1.3097(5)
H11LA H 0.1903(5) 0.8097(5) 1.3097(5)
H11C H 0.4403(5) 0.5597(5) 1.0597(5)
H11L H 0.1903(5) 1.1903(5) 1.1903(5)
H11Z H -0.4403(5) 0.9403(5) 1.0597(5)
H11KA H -0.1903(5) 0.3097(5) 1.1903(5)
O4D O 0.07651(11) 1.04648(13) 0.98721(11)
O4H O -0.01279(11) 1.07651(11) 1.04648(13)
O4Y O -0.04648(13) 0.51279(11) 1.07651(11)
O4DA O -0.07651(11) 0.45352(13) 0.98721(11)
O4IA O 0.01279(11) 0.42349(11) 1.04648(13)
O4O O -0.23721(11) 0.79648(13) 1.17349(11)
O4Q O -0.29648(13) 0.82651(11) 1.26279(11)
O4V O -0.32651(11) 0.73721(11) 1.20352(13)
O4LA O 0.23721(11) 0.70352(13) 1.17349(11)
O4QA O 0.29648(13) 0.67349(11) 1.26279(11)
O4SA O 0.32651(11) 0.76279(11) 1.20352(13)
O4J O 0.48721(11) 0.42349(11) 0.95352(13)
O4T O 0.32651(11) 1.23721(11) 1.29648(13)
O4GA O -0.48721(11) 1.07651(11) 0.95352(13)
O4UA O -0.32651(11) 0.26279(11) 1.29648(13)
O5Y O -0.08981(11) 0.41019(11) 1.08981(11)
O5O O -0.33981(11) 0.83981(11) 1.16019(11)
O5LA O 0.33981(11) 0.66019(11) 1.16019(11)
H5? H 0.0388(16) 0.812(3) 0.838(2)
H6? H -0.011(4) 0.8568(13) 0.8664(19)
N2? N 0.00603(19) 0.78085(15) 0.92190(13)
loop_
_geom_bond_atom_site_label_1
_geom_bond_atom_site_label_2
_geom_bond_site_symmetry_1
_geom_bond_site_symmetry_2
C1 C2 1_555 1_555
C2 H1 1_555 1_555
H2 C2 1_555 1_555
H3 C2 1_555 1_555
C3 C4 1_555 1_555
C4 H4 1_555 1_555
N1 C3 1_555 1_555
O1 H7 1_555 1_555
H8 O1 1_555 1_555
O2 H9 1_555 1_555
H10 O2 1_555 1_555
Cd1 N4 1_555 1_555
Cd2 N1 1_555 1_555
N3 C1 1_555 1_555
N4 N3 1_555 1_555
N5 N4 1_555 1_555
N6 C1 1_555 1_555
N7 N1 1_555 1_555
S1 O4 1_555 1_555
O3 Cd2 1_555 1_555
H11 O3 1_555 1_555
O4 Cd2 1_555 1_555
O5 S1 1_555 1_555
C1O C2O 1_555 1_555
C1Y C2Y 1_555 1_555
C1LA C2LA 1_555 1_555
C1CA C2CA 1_555 1_555
C1G C2G 1_555 1_555
C1NA C2NA 1_555 1_555
C1R C2R 1_555 1_555
C1OA C2OA 1_555 1_555
C1J C2J 1_555 1_555
C1F C2F 1_555 1_555
C1T C2T 1_555 1_555
C2O H1O 1_555 1_555
C2Y H1Y 1_555 1_555
C2LA H1LA 1_555 1_555
C2CA H1CA 1_555 1_555
C2G H1G 1_555 1_555
C2NA H1NA 1_555 1_555
C2R H1R 1_555 1_555
C2OA H1OA 1_555 1_555
C2J H1J 1_555 1_555
C2F H1F 1_555 1_555
C2T H1T 1_555 1_555
H2O C2O 1_555 1_555
H2Y C2Y 1_555 1_555
H2LA C2LA 1_555 1_555
H2CA C2CA 1_555 1_555
H2G C2G 1_555 1_555
H2NA C2NA 1_555 1_555
H2R C2R 1_555 1_555
H2OA C2OA 1_555 1_555
H2J C2J 1_555 1_555
H2F C2F 1_555 1_555
H2T C2T 1_555 1_555
H3O C2O 1_555 1_555
H3Y C2Y 1_555 1_555
H3LA C2LA 1_555 1_555
H3CA C2CA 1_555 1_555
H3G C2G 1_555 1_555
H3NA C2NA 1_555 1_555
H3R C2R 1_555 1_555
H3OA C2OA 1_555 1_555
H3J C2J 1_555 1_555
H3F C2F 1_555 1_555
H3T C2T 1_555 1_555
C3Y C3 1_555 1_555
C3O C3LA 1_555 1_555
C3LA C4LA 1_555 1_555
C3IA C3J 1_555 1_555
C3J C4J 1_555 1_555
C3SA C3T 1_555 1_555
C3T C4T 1_555 1_555
C3H C3GA 1_555 1_555
C3GA C4GA 1_555 1_555
C3V C3UA 1_555 1_555
C3UA C4UA 1_555 1_555
C4Y C3Y 1_555 1_555
C4O C3O 1_555 1_555
C4LA H4LA 1_555 1_555
C4IA C3IA 1_555 1_555
C4J H4J 1_555 1_555
C4SA C3SA 1_555 1_555
C4T H4T 1_555 1_555
C4H C3H 1_555 1_555
C4GA H4GA 1_555 1_555
C4V C3V 1_555 1_555
C4UA H4UA 1_555 1_555
H4Y C4Y 1_555 1_555
H4O C4O 1_555 1_555
H4IA C4IA 1_555 1_555
H4SA C4SA 1_555 1_555
H4H C4H 1_555 1_555
H4V C4V 1_555 1_555
N1Y N7 1_555 1_555
N1O C3O 1_555 1_555
N1LA C3LA 1_555 1_555
N1IA C3IA 1_555 1_555
N1J C3J 1_555 1_555
N1SA C3SA 1_555 1_555
N1T C3T 1_555 1_555
N1H C3H 1_555 1_555
N1GA C3GA 1_555 1_555
N1V C3V 1_555 1_555
N1UA C3UA 1_555 1_555
Cd1D N4CA 1_555 1_555
Cd1G N4G 1_555 1_555
Cd1K N4NA 1_555 1_555
Cd1I N4R 1_555 1_555
Cd1J N4OA 1_555 1_555
Cd1F N4F 1_555 1_555
Cd1H N7H 1_555 1_555
Cd1E N7V 1_555 1_555
Cd2Y N5 1_555 1_555
Cd2O N1O 1_555 1_555
Cd2LA N3 1_555 1_555
Cd2IA N6 1_555 1_555
Cd2SA N1SA 1_555 1_555
Cd2H O3 1_555 1_555
Cd2V N1V 1_555 1_555
Cd2J N1J 1_555 1_555
Cd2T N1T 1_555 1_555
Cd2GA N1GA 1_555 1_555
Cd2UA N1UA 1_555 1_555
Cd2D O3 1_555 1_555
Cd2W N3CA 1_555 1_555
Cd2RA N3G 1_555 1_555
Cd2DA N5G 1_555 1_555
Cd2HA N3NA 1_555 1_555
Cd2Q N5NA 1_555 1_555
Cd2I N3R 1_555 1_555
Cd2QA N5R 1_555 1_555
Cd2P N5OA 1_555 1_555
Cd2L N6OA 1_555 1_555
Cd2OA N3J 1_555 1_555
Cd2EA N5F 1_555 1_555
Cd2Z N6F 1_555 1_555
Cd2F N3T 1_555 1_555
N3O Cd2 1_555 1_555
N3Y C1Y 1_555 1_555
N3LA C1LA 1_555 1_555
N3CA C1CA 1_555 1_555
N3G C1G 1_555 1_555
N3NA C1NA 1_555 1_555
N3R C1R 1_555 1_555
N3OA C1OA 1_555 1_555
N3J C1J 1_555 1_555
N3F C1F 1_555 1_555
N3T C1T 1_555 1_555
N3S Cd2H 1_555 1_555
N3BA Cd2V 1_555 1_555
N3P Cd2J 1_555 1_555
N3EA Cd2T 1_555 1_555
N3PA Cd2GA 1_555 1_555
N3E Cd2UA 1_555 1_555
N4O Cd1 1_555 1_555
N4Y Cd1 1_555 1_555
N4LA Cd1 1_555 1_555
N4CA N3CA 1_555 1_555
N4G N3G 1_555 1_555
N4NA N3NA 1_555 1_555
N4R N3R 1_555 1_555
N4OA N3OA 1_555 1_555
N4J Cd1J 1_555 1_555
N4F N3F 1_555 1_555
N4T Cd1F 1_555 1_555
N4D Cd1D 1_555 1_555
N4W Cd1D 1_555 1_555
N4TA Cd1D 1_555 1_555
N4U Cd1G 1_555 1_555
N4DA Cd1G 1_555 1_555
N4RA Cd1G 1_555 1_555
N5O Cd2LA 1_555 1_555
N5Y Cd2 1_555 1_555
N5LA Cd2O 1_555 1_555
N5CA Cd2D 1_555 1_555
N5G N4G 1_555 1_555
N5NA N4NA 1_555 1_555
N5R N4R 1_555 1_555
N5OA N4OA 1_555 1_555
N5J Cd2IA 1_555 1_555
N5F N4F 1_555 1_555
N5T Cd2SA 1_555 1_555
N5GA Cd2H 1_555 1_555
N5UA Cd2V 1_555 1_555
N5IA Cd2J 1_555 1_555
N5SA Cd2T 1_555 1_555
N5H Cd2GA 1_555 1_555
N5V Cd2UA 1_555 1_555
N6O C1O 1_555 1_555
N6Y C1Y 1_555 1_555
N6LA C1LA 1_555 1_555
N6CA Cd2 1_555 1_555
N6G C1G 1_555 1_555
N6NA C1NA 1_555 1_555
N6R C1R 1_555 1_555
N6OA C1OA 1_555 1_555
N6J C1J 1_555 1_555
N6F C1F 1_555 1_555
N6T C1T 1_555 1_555
N6Z Cd2J 1_555 1_555
N6KA Cd2T 1_555 1_555
N6C Cd2GA 1_555 1_555
N6L Cd2UA 1_555 1_555
N7O Cd1 1_555 1_555
N7J N1IA 1_555 1_555
N7T N1SA 1_555 1_555
N7H N1H 1_555 1_555
N7V N1V 1_555 1_555
N7D Cd1D 1_555 1_555
N7W Cd1D 1_555 1_555
N7G Cd1G 1_555 1_555
N7U Cd1G 1_555 1_555
S1Y O4Y 1_555 1_555
S1O O4O 1_555 1_555
S1LA O4LA 1_555 1_555
O3Y Cd2Y 1_555 1_555
O3O Cd2O 1_555 1_555
O3LA Cd2LA 1_555 1_555
O3C Cd2J 1_555 1_555
O3L Cd2T 1_555 1_555
O3Z Cd2GA 1_555 1_555
O3KA Cd2UA 1_555 1_555
H11Y O3Y 1_555 1_555
H11O O3O 1_555 1_555
H11LA O3LA 1_555 1_555
H11C O3C 1_555 1_555
H11L O3L 1_555 1_555
H11Z O3Z 1_555 1_555
H11KA O3KA 1_555 1_555
O4D S1 1_555 1_555
O4H S1 1_555 1_555
O4Y Cd2Y 1_555 1_555
O4DA Cd2DA 1_555 1_555
O4IA Cd2IA 1_555 1_555
O4O Cd2O 1_555 1_555
O4Q Cd2Q 1_555 1_555
O4V Cd2V 1_555 1_555
O4LA Cd2LA 1_555 1_555
O4QA Cd2QA 1_555 1_555
O4SA Cd2SA 1_555 1_555
O4J Cd2J 1_555 1_555
O4T Cd2T 1_555 1_555
O4GA Cd2GA 1_555 1_555
O4UA Cd2UA 1_555 1_555
O5Y S1Y 1_555 1_555
O5O S1O 1_555 1_555
O5LA S1LA 1_555 1_555
Cd1 N7 1_555 1_555
N5 N6 1_555 1_555
C1O N3O 1_555 1_555
C1CA N6CA 1_555 1_555
C3Y N1Y 1_555 1_555
N1Y Cd2Y 1_555 1_555
N1O N7O 1_555 1_555
N1LA Cd2LA 1_555 1_555
N1LA N7O 1_555 1_555
N1IA Cd2IA 1_555 1_555
N1J N7J 1_555 1_555
N1T N7T 1_555 1_555
N1H Cd2H 1_555 1_555
N1GA N7H 1_555 1_555
N1UA N7V 1_555 1_555
Cd1J N7J 1_555 1_555
Cd1F N7T 1_555 1_555
Cd2Y N3LA 1_555 1_555
Cd2Y N6G 1_555 1_555
Cd2O N3Y 1_555 1_555
Cd2O N6NA 1_555 1_555
Cd2LA N6R 1_555 1_555
Cd2IA N3OA 1_555 1_555
Cd2IA O3Y 1_555 1_555
Cd2SA N3F 1_555 1_555
Cd2SA N6O 1_555 1_555
Cd2SA O3LA 1_555 1_555
Cd2H N6Y 1_555 1_555
Cd2H O4H 1_555 1_555
Cd2V N6LA 1_555 1_555
Cd2V O3O 1_555 1_555
Cd2D O4D 1_555 1_555
Cd2DA N6J 1_555 1_555
Cd2DA O3Y 1_555 1_555
Cd2Q O3O 1_555 1_555
Cd2QA N6T 1_555 1_555
Cd2QA O3LA 1_555 1_555
N3O N4O 1_555 1_555
N3Y N4Y 1_555 1_555
N3LA N4LA 1_555 1_555
N3J N4J 1_555 1_555
N3T N4T 1_555 1_555
N4O N5O 1_555 1_555
N4Y N5Y 1_555 1_555
N4LA N5LA 1_555 1_555
N4CA N5CA 1_555 1_555
N4J N5J 1_555 1_555
N4T N5T 1_555 1_555
N5O N6O 1_555 1_555
N5Y N6Y 1_555 1_555
N5LA N6LA 1_555 1_555
N5CA N6CA 1_555 1_555
N5G N6G 1_555 1_555
N5NA N6NA 1_555 1_555
N5R N6R 1_555 1_555
N5OA N6OA 1_555 1_555
N5J N6J 1_555 1_555
N5F N6F 1_555 1_555
N5T N6T 1_555 1_555
S1Y O4DA 1_555 1_555
S1Y O4IA 1_555 1_555
S1O O4Q 1_555 1_555
S1O O4V 1_555 1_555
S1LA O4QA 1_555 1_555
S1LA O4SA 1_555 1_555

#END
