
#######################################################################
#
#                 Cambridge Crystallographic Data Centre
#                                CCDC 
#
#######################################################################
#
# If this CIF has been generated from an entry in the Cambridge 
# Structural Database, then it will include bibliographic, chemical, 
# crystal, experimental, refinement or atomic coordinate data resulting 
# from the CCDC's data processing and validation procedures.
#
#######################################################################

data_BOCKOT
_symmetry_cell_setting           monoclinic
_symmetry_space_group_name_H-M   'P 21/c'
_symmetry_Int_Tables_number      14
_space_group_name_Hall           '-P 2ybc'
loop_
_symmetry_equiv_pos_site_id
_symmetry_equiv_pos_as_xyz
1 x,y,z
2 -x,1/2+y,1/2-z
3 -x,-y,-z
4 x,1/2-y,1/2+z
_cell_length_a                   17.5986(1)
_cell_length_b                   19.9964(3)
_cell_length_c                   10.5454(2)
_cell_angle_alpha                90
_cell_angle_beta                 91.283(1)
_cell_angle_gamma                90
_cell_volume                     3710.09
loop_
_atom_site_label
_atom_site_type_symbol
_atom_site_fract_x
_atom_site_fract_y
_atom_site_fract_z
O1 O 0.0152(7) -0.1458(6) -0.3940(13)
O2 O -0.0593(7) -0.1626(6) -0.2411(12)
O3 O -0.0298(9) -0.0602(9) -0.2953(16)
O4 O -0.0980(6) -0.2425(6) -0.4681(11)
O5 O -0.0780(7) -0.2028(6) -0.6625(12)
O6 O -0.4094(7) -0.0290(6) -0.4145(12)
O7 O -0.4005(7) -0.0015(7) -0.6181(13)
O8 O -0.0450(7) -0.3742(6) -0.3895(12)
O9 O 0.0790(7) -0.3466(6) -0.2232(13)
O10 O 0.5219(8) 0.0999(7) -0.3355(14)
O11 O 0.4477(8) 0.0872(7) -0.1789(13)
O12 O 0.4573(11) 0.1833(11) -0.2680(18)
O13 O 0.4044(7) -0.0329(6) 0.1144(13)
O14 O 0.4371(7) -0.0474(6) -0.0862(12)
O15 O 0.0796(7) -0.2250(6) 0.0120(11)
O16 O 0.0915(7) -0.2115(6) -0.1948(12)
O17 O 0.4608(7) -0.1213(7) -0.3345(12)
O18 O 0.5908(7) -0.1075(6) -0.1781(12)
Tb1 Tb 0.00004(5) -0.26530(5) -0.32093(8)
Tb2 Tb 0.50780(5) -0.01836(5) -0.25344(10)
N1 N -0.0231(9) -0.1218(8) -0.3100(16)
N2 N -0.1181(10) -0.4506(9) -0.4941(17)
N3 N 0.1309(9) -0.4184(8) -0.0825(15)
N4 N 0.4772(12) 0.1224(11) -0.261(2)
N5 N 0.4417(10) -0.2168(9) -0.4446(17)
N6 N 0.6690(9) -0.1690(8) -0.0506(16)
C1 C -0.1146(9) -0.2016(8) -0.5587(16)
C2 C -0.1801(10) -0.1554(9) -0.5452(18)
C3 C -0.2180(10) -0.1495(9) -0.4321(17)
C4 C -0.2771(10) -0.1088(9) -0.4235(18)
C5 C -0.3053(10) -0.0736(9) -0.5304(17)
C6 C -0.2667(10) -0.0780(9) -0.6418(17)
C7 C -0.2045(9) -0.1184(9) -0.6495(17)
C8 C -0.3768(10) -0.0325(9) -0.5191(18)
C9 C -0.0892(11) -0.3907(10) -0.477(2)
C10 C -0.1706(16) -0.4646(14) -0.603(3)
C11 C -0.0930(15) -0.5065(14) -0.413(3)
C12 C 0.0749(11) -0.3953(10) -0.154(2)
C13 C 0.2035(14) -0.3858(13) -0.074(2)
C14 C 0.1155(12) -0.4767(12) 0.003(2)
C15 C 0.3942(10) -0.0544(9) 0.0029(18)
C16 C 0.3221(9) -0.0970(9) -0.0190(17)
C17 C 0.2997(11) -0.1130(10) -0.142(2)
C18 C 0.2312(11) -0.1476(9) -0.159(2)
C19 C 0.1898(9) -0.1685(8) -0.0600(17)
C20 C 0.2140(10) -0.1551(9) 0.0638(18)
C21 C 0.2794(10) -0.1190(9) 0.0834(18)
C22 C 0.1130(10) -0.2037(9) -0.084(2)
C23 C 0.4838(12) -0.1696(11) -0.389(2)
C24 C 0.365(3) -0.202(2) -0.467(4)
C25 C 0.4742(14) -0.2755(13) -0.508(2)
C26 C 0.6250(11) -0.1167(10) -0.077(2)
C27 C 0.6820(13) -0.2192(12) -0.141(2)
C28 C 0.7059(15) -0.1779(13) 0.074(3)
H1 H -0.2014 -0.1747 -0.3602
H2 H -0.3010 -0.1033 -0.3442
H3 H -0.2834 -0.0530 -0.7137
H4 H -0.1777 -0.1210 -0.7264
H5 H -0.1032 -0.3572 -0.5366
H6 H -0.1455 -0.4555 -0.6800
H7 H -0.2143 -0.4370 -0.5974
H8 H -0.1854 -0.5102 -0.6013
H9 H -0.1201 -0.5459 -0.4363
H10 H -0.1024 -0.4961 -0.3266
H11 H -0.0400 -0.5138 -0.4228
H12 H 0.0275 -0.4179 -0.1507
H13 H 0.2251 -0.3839 -0.1558
H14 H 0.2364 -0.4100 -0.0182
H15 H 0.1973 -0.3416 -0.0426
H16 H 0.0983 -0.5137 -0.0466
H17 H 0.0774 -0.4648 0.0613
H18 H 0.1607 -0.4886 0.0481
H19 H 0.3297 -0.1009 -0.2118
H20 H 0.2132 -0.1567 -0.2432
H21 H 0.1856 -0.1706 0.1336
H22 H 0.2960 -0.1088 0.1676
H23 H 0.5374 -0.1746 -0.3922
H24 H 0.3610 -0.1651 -0.5241
H25 H 0.3417 -0.1911 -0.3900
H26 H 0.3405 -0.2398 -0.5046
H27 H 0.4342 -0.3035 -0.5387
H28 H 0.5050 -0.2998 -0.4487
H29 H 0.5041 -0.2613 -0.5764
H30 H 0.6198 -0.0837 -0.0132
H31 H 0.6350 -0.2389 -0.1670
H32 H 0.7144 -0.2525 -0.1055
H33 H 0.7055 -0.2000 -0.2132
H34 H 0.7337 -0.2186 0.0749
H35 H 0.6684 -0.1793 0.1372
H36 H 0.7395 -0.1416 0.0904
O13B O 0.5956(7) 0.0329(6) -0.1144(13)
O6_2 O 0.5906(7) -0.0290(6) -0.4145(12)
O7B O 0.4005(7) 0.0015(7) -0.3819(13)
Tb2B Tb 0.49220(5) 0.01836(5) 0.25344(10)
Tb1C Tb 0.00004(5) -0.23470(5) 0.17907(8)
O5C O -0.0780(7) -0.2972(6) -0.1625(12)
Tb1C_2 Tb 0.00004(5) -0.23470(5) -0.82093(8)
O15C O 0.0796(7) -0.2750(6) -0.4880(11)
Tb2_2 Tb -0.49220(5) -0.01836(5) -0.25344(10)
Tb2B_2 Tb -0.50780(5) 0.01836(5) -0.74656(10)
loop_
_geom_bond_atom_site_label_1
_geom_bond_atom_site_label_2
_geom_bond_site_symmetry_1
_geom_bond_site_symmetry_2
O1 Tb1 1_555 1_555
O2 Tb1 1_555 1_555
O3 N1 1_555 1_555
O4 Tb1 1_555 1_555
O5 C1 1_555 1_555
O6 C8 1_555 1_555
O7 C8 1_555 1_555
O8 Tb1 1_555 1_555
O9 Tb1 1_555 1_555
O10 Tb2 1_555 1_555
O11 Tb2 1_555 1_555
O12 N4 1_555 1_555
O13 C15 1_555 1_555
O14 Tb2 1_555 1_555
O15 C22 1_555 1_555
O16 Tb1 1_555 1_555
O17 Tb2 1_555 1_555
O18 Tb2 1_555 1_555
Tb1 O5C 1_555 1_555
Tb2 O13B 1_555 1_555
N1 O1 1_555 1_555
N2 C9 1_555 1_555
N3 C12 1_555 1_555
N4 O10 1_555 1_555
N5 C23 1_555 1_555
N6 C26 1_555 1_555
C1 O4 1_555 1_555
C2 C1 1_555 1_555
C3 C2 1_555 1_555
C4 C3 1_555 1_555
C5 C4 1_555 1_555
C6 C5 1_555 1_555
C7 C2 1_555 1_555
C8 C5 1_555 1_555
C9 O8 1_555 1_555
C10 N2 1_555 1_555
C11 N2 1_555 1_555
C12 O9 1_555 1_555
C13 N3 1_555 1_555
C14 N3 1_555 1_555
C15 O14 1_555 1_555
C16 C15 1_555 1_555
C17 C16 1_555 1_555
C18 C17 1_555 1_555
C19 C18 1_555 1_555
C20 C19 1_555 1_555
C21 C16 1_555 1_555
C22 O16 1_555 1_555
C23 O17 1_555 1_555
C24 N5 1_555 1_555
C25 N5 1_555 1_555
C26 O18 1_555 1_555
C27 N6 1_555 1_555
C28 N6 1_555 1_555
H1 C3 1_555 1_555
H2 C4 1_555 1_555
H3 C6 1_555 1_555
H4 C7 1_555 1_555
H5 C9 1_555 1_555
H6 C10 1_555 1_555
H7 C10 1_555 1_555
H8 C10 1_555 1_555
H9 C11 1_555 1_555
H10 C11 1_555 1_555
H11 C11 1_555 1_555
H12 C12 1_555 1_555
H13 C13 1_555 1_555
H14 C13 1_555 1_555
H15 C13 1_555 1_555
H16 C14 1_555 1_555
H17 C14 1_555 1_555
H18 C14 1_555 1_555
H19 C17 1_555 1_555
H20 C18 1_555 1_555
H21 C20 1_555 1_555
H22 C21 1_555 1_555
H23 C23 1_555 1_555
H24 C24 1_555 1_555
H25 C24 1_555 1_555
H26 C24 1_555 1_555
H27 C25 1_555 1_555
H28 C25 1_555 1_555
H29 C25 1_555 1_555
H30 C26 1_555 1_555
H31 C27 1_555 1_555
H32 C27 1_555 1_555
H33 C27 1_555 1_555
H34 C28 1_555 1_555
H35 C28 1_555 1_555
H36 C28 1_555 1_555
O6_2 Tb2 1_555 1_555
O7B Tb2 1_555 1_555
Tb2B O13 1_555 1_555
Tb1C O15 1_555 1_555
Tb1C_2 O5 1_555 1_555
O15C Tb1 1_555 1_555
Tb2_2 O6 1_555 1_555
Tb2B_2 O7 1_555 1_555
O2 N1 1_555 1_555
O11 N4 1_555 1_555
C6 C7 1_555 1_555
C19 C22 1_555 1_555
C20 C21 1_555 1_555

#END
