
#######################################################################
#
#                 Cambridge Crystallographic Data Centre
#                                CCDC 
#
#######################################################################
#
# If this CIF has been generated from an entry in the Cambridge 
# Structural Database, then it will include bibliographic, chemical, 
# crystal, experimental, refinement or atomic coordinate data resulting 
# from the CCDC's data processing and validation procedures.
#
#######################################################################

data_BOCXUO
_symmetry_cell_setting           triclinic
_symmetry_space_group_name_H-M   'P -1'
_symmetry_Int_Tables_number      2
_space_group_name_Hall           '-P 1'
loop_
_symmetry_equiv_pos_site_id
_symmetry_equiv_pos_as_xyz
1 x,y,z
2 -x,-y,-z
_cell_length_a                   8.4913(5)
_cell_length_b                   8.6808(5)
_cell_length_c                   15.3608(9)
_cell_angle_alpha                92.675(5)
_cell_angle_beta                 96.460(4)
_cell_angle_gamma                114.753(4)
_cell_volume                     1016.17
loop_
_atom_site_label
_atom_site_type_symbol
_atom_site_fract_x
_atom_site_fract_y
_atom_site_fract_z
Ni1 Ni 0.0000 0.0000 0.0000
Ni2 Ni 0.32606(3) 0.32286(3) 0.336439(15)
N1 N 0.0934(2) -0.0319(2) 0.12221(11)
C1 C 0.1736(3) -0.0104(2) 0.19156(13)
S1 S 0.28609(8) 0.02190(7) 0.29065(3)
N2 N 0.1934(2) 0.3389(2) 0.22085(11)
C2 C 0.1373(3) 0.3294(2) 0.14746(13)
S2 S 0.05487(8) 0.30834(7) 0.04288(3)
N3 N 0.4604(2) 0.3121(2) 0.45220(12)
C3 C 0.5331(3) 0.3368(2) 0.52339(13)
S3 S 0.63925(7) 0.37650(7) 0.62438(3)
N4 N 0.2559(2) 0.0842(2) -0.03401(11)
C4 C 0.3966(3) 0.2009(3) 0.01811(14)
H1 H 0.3810 0.2428 0.0717
C5 C 0.5638(3) 0.2621(3) -0.00381(16)
H2 H 0.6583 0.3433 0.0343
C6 C 0.5885(3) 0.2008(3) -0.08315(17)
H3 H 0.6997 0.2406 -0.0998
C7 C 0.4458(3) 0.0800(3) -0.13697(16)
H4 H 0.4588 0.0361 -0.1907
C8 C 0.2824(3) 0.0242(3) -0.11042(14)
H5 H 0.1866 -0.0585 -0.1471
N5 N 0.0930(2) 0.2202(2) 0.39438(11)
C9 C -0.0530(3) 0.0912(3) 0.35280(14)
H6 H -0.0512 0.0469 0.2968
C10 C -0.2066(3) 0.0205(3) 0.38916(16)
H7 H -0.3056 -0.0687 0.3581
C11 C -0.2099(3) 0.0848(3) 0.47198(17)
H8 H -0.3115 0.0397 0.4979
C12 C -0.0615(3) 0.2164(3) 0.51590(15)
H9 H -0.0607 0.2618 0.5721
C13 C 0.0870(3) 0.2805(3) 0.47529(14)
H10 H 0.1873 0.3696 0.5055
N6 N 0.5650(2) 0.4229(2) 0.28291(11)
C14 C 0.6917(3) 0.3742(3) 0.30780(14)
H11 H 0.6713 0.2933 0.3479
C15 C 0.8516(3) 0.4379(3) 0.27708(16)
H12 H 0.9365 0.4011 0.2966
C16 C 0.8827(3) 0.5559(3) 0.21738(17)
H13 H 0.9890 0.6008 0.1955
C17 C 0.5977(3) 0.5386(3) 0.22479(14)
H14 H 0.5118 0.5750 0.2067
C18 C 0.7535(3) 0.6065(3) 0.19054(16)
H15 H 0.7707 0.6857 0.1497
Ni2A Ni -0.32606(3) -0.32286(3) -0.336439(15)
N1A N -0.0934(2) 0.0319(2) -0.12221(11)
C1A C -0.1736(3) 0.0104(2) -0.19156(13)
S1A S -0.28609(8) -0.02190(7) -0.29065(3)
N2A N -0.1934(2) -0.3389(2) -0.22085(11)
C2A C -0.1373(3) -0.3294(2) -0.14746(13)
S2A S -0.05487(8) -0.30834(7) -0.04288(3)
N3A N -0.4604(2) -0.3121(2) -0.45220(12)
C3A C -0.5331(3) -0.3368(2) -0.52339(13)
S3A S -0.63925(7) -0.37650(7) -0.62438(3)
N4A N -0.2559(2) -0.0842(2) 0.03401(11)
C4A C -0.3966(3) -0.2009(3) -0.01811(14)
H1A H -0.3810 -0.2428 -0.0717
C5A C -0.5638(3) -0.2621(3) 0.00381(16)
H2A H -0.6583 -0.3433 -0.0343
C6A C -0.5885(3) -0.2008(3) 0.08315(17)
H3A H -0.6997 -0.2406 0.0998
C7A C -0.4458(3) -0.0800(3) 0.13697(16)
H4A H -0.4588 -0.0361 0.1907
C8A C -0.2824(3) -0.0242(3) 0.11042(14)
H5A H -0.1866 0.0585 0.1471
N5A N -0.0930(2) -0.2202(2) -0.39438(11)
C9A C 0.0530(3) -0.0912(3) -0.35280(14)
H6A H 0.0512 -0.0469 -0.2968
C10A C 0.2066(3) -0.0205(3) -0.38916(16)
H7A H 0.3056 0.0687 -0.3581
C11A C 0.2099(3) -0.0848(3) -0.47198(17)
H8A H 0.3115 -0.0397 -0.4979
C12A C 0.0615(3) -0.2164(3) -0.51590(15)
H9A H 0.0607 -0.2618 -0.5721
C13A C -0.0870(3) -0.2805(3) -0.47529(14)
H10A H -0.1873 -0.3696 -0.5055
N6A N -0.5650(2) -0.4229(2) -0.28291(11)
C14A C -0.6917(3) -0.3742(3) -0.30780(14)
H11A H -0.6713 -0.2933 -0.3479
C15A C -0.8516(3) -0.4379(3) -0.27708(16)
H12A H -0.9365 -0.4011 -0.2966
C16A C -0.8827(3) -0.5559(3) -0.21738(17)
H13A H -0.9890 -0.6008 -0.1955
C17A C -0.5977(3) -0.5386(3) -0.22479(14)
H14A H -0.5118 -0.5750 -0.2067
C18A C -0.7535(3) -0.6065(3) -0.19054(16)
H15A H -0.7707 -0.6857 -0.1497
Ni2_2 Ni -0.67394(3) -0.67714(3) -0.663561(15)
Ni2A_2 Ni 0.67394(3) 0.67714(3) 0.663561(15)
S3_2 S -0.36075(7) -0.62350(7) -0.37562(3)
S3A_2 S 0.36075(7) 0.62350(7) 0.37562(3)
loop_
_geom_bond_atom_site_label_1
_geom_bond_atom_site_label_2
_geom_bond_site_symmetry_1
_geom_bond_site_symmetry_2
Ni1 N1 1_555 1_555
Ni2 S1 1_555 1_555
N1 C1 1_555 1_555
C1 S1 1_555 1_555
N2 Ni2 1_555 1_555
C2 N2 1_555 1_555
S2 Ni1 1_555 1_555
N3 Ni2 1_555 1_555
C3 N3 1_555 1_555
S3 C3 1_555 1_555
N4 Ni1 1_555 1_555
C4 N4 1_555 1_555
H1 C4 1_555 1_555
C5 C4 1_555 1_555
H2 C5 1_555 1_555
C6 C5 1_555 1_555
H3 C6 1_555 1_555
C7 C6 1_555 1_555
H4 C7 1_555 1_555
C8 N4 1_555 1_555
H5 C8 1_555 1_555
N5 Ni2 1_555 1_555
C9 N5 1_555 1_555
H6 C9 1_555 1_555
C10 C9 1_555 1_555
H7 C10 1_555 1_555
C11 C10 1_555 1_555
H8 C11 1_555 1_555
C12 C11 1_555 1_555
H9 C12 1_555 1_555
C13 N5 1_555 1_555
H10 C13 1_555 1_555
N6 Ni2 1_555 1_555
C14 N6 1_555 1_555
H11 C14 1_555 1_555
C15 C14 1_555 1_555
H12 C15 1_555 1_555
C16 C15 1_555 1_555
H13 C16 1_555 1_555
C17 N6 1_555 1_555
H14 C17 1_555 1_555
C18 C16 1_555 1_555
H15 C18 1_555 1_555
Ni2A S1A 1_555 1_555
N1A Ni1 1_555 1_555
C1A N1A 1_555 1_555
S1A C1A 1_555 1_555
N2A Ni2A 1_555 1_555
C2A N2A 1_555 1_555
S2A Ni1 1_555 1_555
N3A Ni2A 1_555 1_555
C3A N3A 1_555 1_555
S3A C3A 1_555 1_555
N4A Ni1 1_555 1_555
C4A N4A 1_555 1_555
H1A C4A 1_555 1_555
C5A C4A 1_555 1_555
H2A C5A 1_555 1_555
C6A C5A 1_555 1_555
H3A C6A 1_555 1_555
C7A C6A 1_555 1_555
H4A C7A 1_555 1_555
C8A N4A 1_555 1_555
H5A C8A 1_555 1_555
N5A Ni2A 1_555 1_555
C9A N5A 1_555 1_555
H6A C9A 1_555 1_555
C10A C9A 1_555 1_555
H7A C10A 1_555 1_555
C11A C10A 1_555 1_555
H8A C11A 1_555 1_555
C12A C11A 1_555 1_555
H9A C12A 1_555 1_555
C13A N5A 1_555 1_555
H10A C13A 1_555 1_555
N6A Ni2A 1_555 1_555
C14A N6A 1_555 1_555
H11A C14A 1_555 1_555
C15A C14A 1_555 1_555
H12A C15A 1_555 1_555
C16A C15A 1_555 1_555
H13A C16A 1_555 1_555
C17A N6A 1_555 1_555
H14A C17A 1_555 1_555
C18A C16A 1_555 1_555
H15A C18A 1_555 1_555
Ni2_2 S3A 1_555 1_555
Ni2A_2 S3 1_555 1_555
S3_2 Ni2A 1_555 1_555
S3A_2 Ni2 1_555 1_555
C2 S2 1_555 1_555
C7 C8 1_555 1_555
C12 C13 1_555 1_555
C17 C18 1_555 1_555
C2A S2A 1_555 1_555
C7A C8A 1_555 1_555
C12A C13A 1_555 1_555
C17A C18A 1_555 1_555

#END
