
#######################################################################
#
#                 Cambridge Crystallographic Data Centre
#                                CCDC 
#
#######################################################################
#
# If this CIF has been generated from an entry in the Cambridge 
# Structural Database, then it will include bibliographic, chemical, 
# crystal, experimental, refinement or atomic coordinate data resulting 
# from the CCDC's data processing and validation procedures.
#
#######################################################################

data_BODFUV
_symmetry_cell_setting           monoclinic
_symmetry_space_group_name_H-M   'C 2/c'
_symmetry_Int_Tables_number      15
_space_group_name_Hall           '-C 2yn'
loop_
_symmetry_equiv_pos_site_id
_symmetry_equiv_pos_as_xyz
1 x,y,z
2 1/2+x,1/2+y,z
3 -x,y,1/2-z
4 1/2-x,1/2+y,1/2-z
5 -x,-y,-z
6 1/2-x,1/2-y,-z
7 x,-y,1/2+z
8 1/2+x,1/2-y,1/2+z
_cell_length_a                   16.014(5)
_cell_length_b                   8.026(4)
_cell_length_c                   15.193(5)
_cell_angle_alpha                90
_cell_angle_beta                 119.34(3)
_cell_angle_gamma                90
_cell_volume                     1702.25
loop_
_atom_site_label
_atom_site_type_symbol
_atom_site_fract_x
_atom_site_fract_y
_atom_site_fract_z
Ni1 Ni 0.00000 0.00000 0.50000
N1 N 0.05090 0.18930 0.60310
N2 N -0.12290 0.14310 0.42510
N3 N 0.06160 0.44880 0.67130
N4 N -0.23300 0.35390 0.38780
O1 O 0.15170 0.19850 0.66090
O2 O -0.18730 0.10050 0.32310
C1 C 0.01090 0.32430 0.61040
C2 C -0.09550 0.34120 0.55580
C3 C -0.15040 0.27410 0.45100
N5 N 0.07220 0.13530 0.42190
N6 N 0.13280 0.22910 0.32020
O3 O 0.14830 0.23970 0.49070
C4 C 0.07170 0.13660 0.33700
C5 C 0.00000 0.03520 0.25000
H1 H -0.17700 -0.02800 0.32200
H2 H 0.03700 0.53500 0.67600
H3 H 0.11500 0.43600 0.70200
H4 H -0.24000 0.43800 0.40300
H5 H -0.26800 0.32700 0.31500
H6 H -0.11200 0.44700 0.55400
H7 H -0.11800 0.29600 0.59100
H8 H 0.15400 0.21900 0.53800
H9 H 0.17600 0.27700 0.36600
H10 H 0.14000 0.20400 0.27200
H11 H -0.03200 -0.03300 0.26800
N1D N -0.05090 -0.18930 0.39690
N2D N 0.12290 -0.14310 0.57490
N5D N -0.07220 -0.13530 0.57810
C4B C -0.07170 0.13660 0.16300
H11B H 0.03200 -0.03300 0.23200
O1D O -0.15170 -0.19850 0.33910
C1D C -0.01090 -0.32430 0.38960
O2D O 0.18730 -0.10050 0.67690
C3D C 0.15040 -0.27410 0.54900
N5B N -0.07220 0.13530 0.07810
N6B N -0.13280 0.22910 0.17980
N3D N -0.06160 -0.44880 0.32870
C2D C 0.09550 -0.34120 0.44420
H1D H 0.17700 0.02800 0.67800
N4D N 0.23300 -0.35390 0.61220
Ni1B Ni 0.00000 0.00000 0.00000
O3B O -0.14830 0.23970 0.00930
H9B H -0.17600 0.27700 0.13400
H10B H -0.14000 0.20400 0.22800
H2D H -0.03700 -0.53500 0.32400
H3D H -0.11500 -0.43600 0.29800
H6D H 0.11200 -0.44700 0.44600
H7D H 0.11800 -0.29600 0.40900
H4D H 0.24000 -0.43800 0.59700
H5D H 0.26800 -0.32700 0.68500
H8B H -0.15400 0.21900 -0.03800
loop_
_geom_bond_atom_site_label_1
_geom_bond_atom_site_label_2
_geom_bond_site_symmetry_1
_geom_bond_site_symmetry_2
Ni1 N1 1_555 1_555
N1 O1 1_555 1_555
N2 Ni1 1_555 1_555
N3 C1 1_555 1_555
N4 C3 1_555 1_555
O2 N2 1_555 1_555
C1 N1 1_555 1_555
C2 C1 1_555 1_555
C3 N2 1_555 1_555
N5 Ni1 1_555 1_555
N6 C4 1_555 1_555
O3 N5 1_555 1_555
C4 N5 1_555 1_555
C5 C4 1_555 1_555
H1 O2 1_555 1_555
H2 N3 1_555 1_555
H3 N3 1_555 1_555
H4 N4 1_555 1_555
H5 N4 1_555 1_555
H6 C2 1_555 1_555
H7 C2 1_555 1_555
H8 O3 1_555 1_555
H9 N6 1_555 1_555
H10 N6 1_555 1_555
H11 C5 1_555 1_555
N1D Ni1 1_555 1_555
N2D Ni1 1_555 1_555
N5D Ni1 1_555 1_555
C4B C5 1_555 1_555
H11B C5 1_555 1_555
O1D N1D 1_555 1_555
C1D N1D 1_555 1_555
O2D N2D 1_555 1_555
C3D N2D 1_555 1_555
N5B C4B 1_555 1_555
N6B C4B 1_555 1_555
N3D C1D 1_555 1_555
C2D C1D 1_555 1_555
H1D O2D 1_555 1_555
N4D C3D 1_555 1_555
Ni1B N5B 1_555 1_555
O3B N5B 1_555 1_555
H9B N6B 1_555 1_555
H10B N6B 1_555 1_555
H2D N3D 1_555 1_555
H3D N3D 1_555 1_555
H6D C2D 1_555 1_555
H7D C2D 1_555 1_555
H4D N4D 1_555 1_555
H5D N4D 1_555 1_555
H8B O3B 1_555 1_555
C2 C3 1_555 1_555
C3D C2D 1_555 1_555

#END
