
#######################################################################
#
#                 Cambridge Crystallographic Data Centre
#                                CCDC 
#
#######################################################################
#
# If this CIF has been generated from an entry in the Cambridge 
# Structural Database, then it will include bibliographic, chemical, 
# crystal, experimental, refinement or atomic coordinate data resulting 
# from the CCDC's data processing and validation procedures.
#
#######################################################################

data_BODJIN01
_symmetry_cell_setting           monoclinic
_symmetry_space_group_name_H-M   'C 2/c'
_symmetry_Int_Tables_number      15
_space_group_name_Hall           '-C 2yn'
loop_
_symmetry_equiv_pos_site_id
_symmetry_equiv_pos_as_xyz
1 x,y,z
2 -x,y,1/2-z
3 1/2+x,1/2+y,z
4 1/2-x,1/2+y,1/2-z
5 -x,-y,-z
6 x,-y,1/2+z
7 1/2-x,1/2-y,-z
8 1/2+x,1/2-y,1/2+z
_cell_length_a                   8.8386(2)
_cell_length_b                   12.1007(3)
_cell_length_c                   12.9485(3)
_cell_angle_alpha                90
_cell_angle_beta                 109.191(1)
_cell_angle_gamma                90
_cell_volume                     1307.92
loop_
_atom_site_label
_atom_site_type_symbol
_atom_site_fract_x
_atom_site_fract_y
_atom_site_fract_z
Cd1 Cd 0.7500 0.2500 0.5000
O1 O 0.80556(17) 0.09374(11) 0.60457(12)
H1 H 0.7355 0.0839 0.6323
O2 O 0.9612(4) 0.25404(11) 0.4319(3)
O3 O 1.0644(5) 0.1084(4) 0.5090(5)
O4 O 1.1486(4) 0.1705(4) 0.3934(3)
N1 N 0.59993(14) 0.14465(10) 0.34204(10)
N2 N 0.39310(15) 0.00124(11) 0.28943(11)
N3 N 1.06151(19) 0.17728(15) 0.44696(18)
C1 C 0.49229(17) 0.07152(13) 0.37842(12)
H2 H 0.5563 0.0251 0.4378
H3 H 0.4232 0.1166 0.4060
C2 C 0.70308(17) 0.07254(13) 0.29983(12)
H4 H 0.7730 0.1183 0.2737
H5 H 0.7698 0.0269 0.3589
C3 C 0.5000 0.21370(16) 0.2500
H6 H 0.5690 0.2608 0.2243
C4 C 0.5000 -0.06843(18) 0.2500
H7 H 0.5637 -0.1155 0.3089
H8 H 0.866(3) 0.049(2) 0.597(3)
Cd1A Cd 0.2500 0.2500 0.0000
O1F O 0.69444(17) 0.40626(11) 0.39543(12)
H1F H 0.7645 0.4161 0.3677
O2F O 0.5388(4) 0.24596(11) 0.5681(3)
O3F O 0.4356(5) 0.3916(4) 0.4910(5)
O4F O 0.3514(4) 0.3295(4) 0.6066(3)
N1A N 0.40007(14) 0.14465(10) 0.15796(10)
N1F N 0.90007(14) 0.35535(10) 0.65796(10)
N2A N 0.60690(15) 0.00124(11) 0.21057(11)
N3F N 0.43849(19) 0.32272(15) 0.55304(18)
C1A C 0.50771(17) 0.07152(13) 0.12158(12)
H2A H 0.4437 0.0251 0.0622
H3A H 0.5768 0.1166 0.0940
C2A C 0.29692(17) 0.07254(13) 0.20017(12)
H4A H 0.2270 0.1183 0.2263
H5A H 0.2302 0.0269 0.1411
H6A H 0.4310 0.2608 0.2757
H7A H 0.4363 -0.1155 0.1911
H8F H 0.634(3) 0.451(2) 0.403(3)
loop_
_geom_bond_atom_site_label_1
_geom_bond_atom_site_label_2
_geom_bond_site_symmetry_1
_geom_bond_site_symmetry_2
Cd1 O1 1_555 1_555
O1 H1 1_555 1_555
O2 Cd1 1_555 1_555
O3 N3 1_555 1_555
O4 N3 1_555 1_555
N1 Cd1 1_555 1_555
N2 C1 1_555 1_555
N3 O2 1_555 1_555
C1 N1 1_555 1_555
H2 C1 1_555 1_555
H3 C1 1_555 1_555
C2 N1 1_555 1_555
H4 C2 1_555 1_555
H5 C2 1_555 1_555
C3 N1 1_555 1_555
H6 C3 1_555 1_555
C4 N2 1_555 1_555
H7 C4 1_555 1_555
H8 O1 1_555 1_555
Cd1A N1A 1_555 1_555
O1F Cd1 1_555 1_555
H1F O1F 1_555 1_555
O2F Cd1 1_555 1_555
O3F N3F 1_555 1_555
O4F N3F 1_555 1_555
N1A C3 1_555 1_555
N1F Cd1 1_555 1_555
N2A C2 1_555 1_555
N3F O2F 1_555 1_555
C1A N1A 1_555 1_555
H2A C1A 1_555 1_555
H3A C1A 1_555 1_555
C2A N2 1_555 1_555
H4A C2A 1_555 1_555
H5A C2A 1_555 1_555
H6A C3 1_555 1_555
H7A C4 1_555 1_555
H8F O1F 1_555 1_555
C4 N2A 1_555 1_555
N1A C2A 1_555 1_555
N2A C1A 1_555 1_555

#END
