
#######################################################################
#
#                 Cambridge Crystallographic Data Centre
#                                CCDC 
#
#######################################################################
#
# If this CIF has been generated from an entry in the Cambridge 
# Structural Database, then it will include bibliographic, chemical, 
# crystal, experimental, refinement or atomic coordinate data resulting 
# from the CCDC's data processing and validation procedures.
#
#######################################################################

data_BODJOU
_symmetry_cell_setting           monoclinic
_symmetry_space_group_name_H-M   'P 21/c'
_symmetry_Int_Tables_number      14
_space_group_name_Hall           '-P 2ybc'
loop_
_symmetry_equiv_pos_site_id
_symmetry_equiv_pos_as_xyz
1 x,y,z
2 -x,1/2+y,1/2-z
3 -x,-y,-z
4 x,1/2-y,1/2+z
_cell_length_a                   14.2741(2)
_cell_length_b                   16.3621(2)
_cell_length_c                   19.4747(2)
_cell_angle_alpha                90
_cell_angle_beta                 94.458(1)
_cell_angle_gamma                90
_cell_volume                     4534.64
loop_
_atom_site_label
_atom_site_type_symbol
_atom_site_fract_x
_atom_site_fract_y
_atom_site_fract_z
Cu1 Cu 0.68802(7) 0.58195(5) 0.30972(4)
P1 P 0.81986(12) 0.61443(9) 0.25690(7)
P2 P 0.55615(12) 0.64696(9) 0.27192(7)
N1 N 0.9457(4) 0.5644(3) 0.3554(2)
N2 N 0.4497(4) 0.6187(3) 0.3819(2)
N3 N 0.7092(4) 0.4567(3) 0.3240(2)
N4 N 0.7097(4) 0.5769(3) 0.4151(2)
C1 C 0.9676(5) 0.6291(4) 0.5649(3)
H1 H 0.9517 0.6816 0.5782
C2 C 0.9634(5) 0.6095(4) 0.4963(3)
H2 H 0.9462 0.6493 0.4636
C3 C 0.9848(5) 0.5305(4) 0.4746(3)
C4 C 0.9796(5) 0.5057(3) 0.4035(3)
C5 C 1.0045(5) 0.4292(4) 0.3846(3)
H3 H 1.0030 0.4154 0.3382
C6 C 0.9197(5) 0.5451(4) 0.2838(3)
H4 H 0.9007 0.4884 0.2789
H5 H 0.9722 0.5546 0.2559
C7 C 0.8761(4) 0.7122(4) 0.2776(3)
C8 C 0.8416(5) 0.7603(4) 0.3274(3)
H6 H 0.7853 0.7462 0.3455
C9 C 0.8896(6) 0.8297(5) 0.3511(4)
H7 H 0.8643 0.8626 0.3839
C10 C 0.9752(6) 0.8504(5) 0.3262(4)
H8 H 1.0085 0.8956 0.3438
C11 C 1.0102(6) 0.8037(4) 0.2757(4)
H9 H 1.0665 0.8182 0.2579
C12 C 0.9612(5) 0.7343(4) 0.2508(3)
H10 H 0.9849 0.7028 0.2164
C13 C 0.8122(4) 0.6048(4) 0.1638(3)
C14 C 0.8072(5) 0.5259(4) 0.1348(3)
H11 H 0.8148 0.4803 0.1632
C15 C 0.7909(6) 0.5156(4) 0.0642(3)
H12 H 0.7897 0.4633 0.0453
C16 C 0.7765(5) 0.5825(4) 0.0221(3)
H13 H 0.7623 0.5757 -0.0250
C17 C 0.7833(5) 0.6596(4) 0.0502(3)
H14 H 0.7748 0.7047 0.0213
C18 C 0.8021(5) 0.6719(4) 0.1192(3)
H15 H 0.8081 0.7248 0.1366
C19 C 0.5304(5) 0.3933(4) 0.4728(3)
H16 H 0.5484 0.3434 0.4925
C20 C 0.5193(5) 0.4018(4) 0.4036(3)
H17 H 0.5288 0.3566 0.3761
C21 C 0.4944(5) 0.4756(4) 0.3719(3)
H18 H 0.4897 0.4791 0.3241
C22 C 0.4768(4) 0.5433(4) 0.4102(3)
C23 C 0.4863(4) 0.5373(4) 0.4850(3)
C24 C 0.4406(5) 0.6293(4) 0.3079(3)
H19 H 0.3997 0.6754 0.2965
H20 H 0.4116 0.5810 0.2867
C25 C 0.5207(5) 0.6406(4) 0.1803(3)
C26 C 0.4427(5) 0.6867(4) 0.1513(3)
H21 H 0.4118 0.7226 0.1788
C27 C 0.4132(5) 0.6782(4) 0.0832(3)
H22 H 0.3634 0.7096 0.0642
C28 C 0.4569(6) 0.6235(4) 0.0430(3)
H23 H 0.4355 0.6171 -0.0030
C29 C 0.5327(6) 0.5776(4) 0.0703(3)
H24 H 0.5625 0.5416 0.0421
C30 C 0.5642(5) 0.5849(4) 0.1387(3)
H25 H 0.6140 0.5530 0.1571
C31 C 0.5738(5) 0.7568(3) 0.2870(3)
C32 C 0.5451(6) 0.7953(4) 0.3437(4)
H26 H 0.5098 0.7668 0.3740
C33 C 0.5681(7) 0.8776(5) 0.3571(4)
H27 H 0.5485 0.9023 0.3965
C34 C 0.6170(6) 0.9208(4) 0.3149(4)
H28 H 0.6300 0.9757 0.3237
C35 C 0.6486(5) 0.8829(4) 0.2575(4)
H29 H 0.6841 0.9122 0.2278
C36 C 0.6273(5) 0.8012(4) 0.2441(3)
H30 H 0.6494 0.7761 0.2056
C37 C 0.6958(5) 0.6355(4) 0.4606(3)
H31 H 0.6771 0.6866 0.4438
C38 C 0.7074(5) 0.6251(5) 0.5310(3)
H32 H 0.6953 0.6675 0.5608
C39 C 0.7372(6) 0.5505(5) 0.5558(3)
H33 H 0.7487 0.5423 0.6030
C40 C 0.7501(5) 0.4881(4) 0.5109(3)
H34 H 0.7686 0.4368 0.5274
C41 C 0.7353(5) 0.5019(4) 0.4400(3)
C42 C 0.7430(5) 0.4365(4) 0.3879(3)
C43 C 0.7793(5) 0.3600(4) 0.4038(4)
H35 H 0.8031 0.3481 0.4484
C44 C 0.7800(6) 0.3019(4) 0.3533(4)
H36 H 0.8042 0.2501 0.3633
C45 C 0.7442(6) 0.3215(4) 0.2873(4)
H37 H 0.7430 0.2829 0.2522
C46 C 0.7104(5) 0.3992(4) 0.2746(3)
H38 H 0.6874 0.4127 0.2301
Cu1B Cu 1.31198(7) 0.41805(5) 0.69028(4)
Cu1B_2 Cu 0.31198(7) 0.41805(5) 0.69028(4)
P1B P 1.18014(12) 0.38557(9) 0.74310(7)
P2B P 0.44385(12) 0.35304(9) 0.72808(7)
P2B_2 P 1.44385(12) 0.35304(9) 0.72808(7)
N1B N 1.0543(4) 0.4356(3) 0.6446(2)
N2B N 0.5503(4) 0.3813(3) 0.6181(2)
N3B N 1.2908(4) 0.5433(3) 0.6760(2)
N4B N 1.2903(4) 0.4231(3) 0.5849(2)
C1B C 1.0324(5) 0.3709(4) 0.4351(3)
H1B H 1.0483 0.3184 0.4218
C2B C 1.0366(5) 0.3905(4) 0.5037(3)
H2B H 1.0538 0.3507 0.5364
C3B C 1.0152(5) 0.4695(4) 0.5254(3)
C4B C 1.0204(5) 0.4943(3) 0.5965(3)
C5B C 0.9955(5) 0.5708(4) 0.6154(3)
H3B H 0.9970 0.5846 0.6618
C6B C 1.0803(5) 0.4549(4) 0.7162(3)
H4B H 1.0993 0.5116 0.7211
H5B H 1.0278 0.4454 0.7441
C7B C 1.1239(4) 0.2878(4) 0.7224(3)
C8B C 1.1584(5) 0.2397(4) 0.6726(3)
H6B H 1.2147 0.2538 0.6545
C9B C 1.1104(6) 0.1703(5) 0.6489(4)
H7B H 1.1357 0.1374 0.6161
C10B C 1.0248(6) 0.1496(5) 0.6738(4)
H8B H 0.9915 0.1044 0.6562
C11B C 0.9898(6) 0.1963(4) 0.7243(4)
H9B H 0.9335 0.1818 0.7421
C12B C 1.0388(5) 0.2657(4) 0.7492(3)
H10B H 1.0151 0.2972 0.7836
C13B C 1.1878(4) 0.3952(4) 0.8362(3)
C14B C 1.1928(5) 0.4741(4) 0.8652(3)
H11B H 1.1852 0.5197 0.8368
C15B C 1.2091(6) 0.4844(4) 0.9358(3)
H12B H 1.2103 0.5367 0.9547
C16B C 1.2235(5) 0.4175(4) 0.9779(3)
H13B H 1.2377 0.4243 1.0250
C17B C 1.2167(5) 0.3404(4) 0.9498(3)
H14B H 1.2252 0.2953 0.9787
C18B C 1.1979(5) 0.3281(4) 0.8808(3)
H15B H 1.1919 0.2752 0.8634
C19B C 0.4696(5) 0.6067(4) 0.5272(3)
H16B H 0.4516 0.6566 0.5075
C20B C 0.4807(5) 0.5982(4) 0.5964(3)
H17B H 0.4712 0.6434 0.6239
C21B C 0.5056(5) 0.5244(4) 0.6281(3)
H18B H 0.5103 0.5209 0.6759
C22B C 0.5232(4) 0.4567(4) 0.5898(3)
C23B C 0.5137(4) 0.4627(4) 0.5150(3)
C24B C 0.5594(5) 0.3707(4) 0.6921(3)
H19B H 0.6003 0.3246 0.7035
H20B H 0.5884 0.4190 0.7133
C25B C 0.4793(5) 0.3594(4) 0.8197(3)
C26B C 0.5573(5) 0.3133(4) 0.8487(3)
H21B H 0.5882 0.2774 0.8212
C27B C 0.5868(5) 0.3218(4) 0.9168(3)
H22B H 0.6366 0.2904 0.9358
C28B C 0.5431(6) 0.3765(4) 0.9570(3)
H23B H 0.5645 0.3829 1.0030
C29B C 0.4673(6) 0.4224(4) 0.9297(3)
H24B H 0.4375 0.4584 0.9579
C30B C 0.4358(5) 0.4151(4) 0.8613(3)
H25B H 0.3860 0.4470 0.8429
C31B C 0.4262(5) 0.2432(3) 0.7130(3)
C32B C 0.4549(6) 0.2047(4) 0.6563(4)
H26B H 0.4902 0.2332 0.6260
C33B C 0.4319(7) 0.1224(5) 0.6429(4)
H27B H 0.4515 0.0977 0.6035
C34B C 0.3830(6) 0.0792(4) 0.6851(4)
H28B H 0.3700 0.0243 0.6763
C35B C 0.3514(5) 0.1171(4) 0.7425(4)
H29B H 0.3159 0.0878 0.7722
C36B C 0.3727(5) 0.1988(4) 0.7559(3)
H30B H 0.3506 0.2239 0.7944
C37B C 1.3042(5) 0.3645(4) 0.5394(3)
H31B H 1.3229 0.3134 0.5562
C38B C 1.2926(5) 0.3749(5) 0.4690(3)
H32B H 1.3047 0.3325 0.4392
C39B C 1.2628(6) 0.4495(5) 0.4442(3)
H33B H 1.2513 0.4577 0.3970
C40B C 1.2499(5) 0.5119(4) 0.4891(3)
H34B H 1.2314 0.5632 0.4726
C41B C 1.2647(5) 0.4981(4) 0.5600(3)
C42B C 1.2570(5) 0.5635(4) 0.6121(3)
C43B C 1.2207(5) 0.6400(4) 0.5962(4)
H35B H 1.1969 0.6519 0.5516
C44B C 1.2200(6) 0.6981(4) 0.6467(4)
H36B H 1.1958 0.7499 0.6367
C45B C 1.2558(6) 0.6785(4) 0.7127(4)
H37B H 1.2570 0.7171 0.7478
C46B C 1.2896(5) 0.6008(4) 0.7254(3)
H38B H 1.3126 0.5873 0.7699
O1 O 1.1128(4) 0.6028(3) 0.1659(3)
C47 C 1.0394(7) 0.6176(6) 0.0549(4)
H39 H 1.0443 0.6023 0.0078
H40 H 1.0423 0.6761 0.0590
H41 H 0.9807 0.5984 0.0698
C48 C 1.1182(6) 0.5805(5) 0.0986(4)
H42 H 1.1154 0.5215 0.0946
H43 H 1.1776 0.5987 0.0829
C49 C 1.1905(6) 0.5731(5) 0.2094(4)
H44 H 1.2480 0.5972 0.1953
H45 H 1.1950 0.5143 0.2040
C50 C 1.1810(7) 0.5924(6) 0.2829(5)
H46 H 1.2345 0.5717 0.3104
H47 H 1.1248 0.5676 0.2974
H48 H 1.1774 0.6506 0.2886
F1 F 0.2260(4) 0.8079(3) 0.4805(2)
F2 F 0.2073(5) 0.8183(3) 0.3679(3)
B1 B 0.2416(8) 0.7726(6) 0.4195(4)
F3 F 0.3181(11) 0.7372(8) 0.4233(6)
F4 F 0.1845(10) 0.7004(5) 0.4174(5)
F5? F 0.3331(15) 0.806(3) 0.4070(13)
loop_
_geom_bond_atom_site_label_1
_geom_bond_atom_site_label_2
_geom_bond_site_symmetry_1
_geom_bond_site_symmetry_2
Cu1 P1 1_555 1_555
P1 C6 1_555 1_555
P2 Cu1 1_555 1_555
O1 C48 1_555 1_555
N1 C4 1_555 1_555
N2 C22 1_555 1_555
N3 Cu1 1_555 1_555
N4 Cu1 1_555 1_555
C1 H1 1_555 1_555
C2 C1 1_555 1_555
H2 C2 1_555 1_555
C3 C2 1_555 1_555
C4 C3 1_555 1_555
C5 C4 1_555 1_555
H3 C5 1_555 1_555
C6 N1 1_555 1_555
H4 C6 1_555 1_555
H5 C6 1_555 1_555
C7 P1 1_555 1_555
C8 C7 1_555 1_555
H6 C8 1_555 1_555
C9 C8 1_555 1_555
H7 C9 1_555 1_555
C10 C9 1_555 1_555
H8 C10 1_555 1_555
C11 C10 1_555 1_555
H9 C11 1_555 1_555
C12 C7 1_555 1_555
H10 C12 1_555 1_555
C13 P1 1_555 1_555
C14 C13 1_555 1_555
H11 C14 1_555 1_555
C15 C14 1_555 1_555
H12 C15 1_555 1_555
C16 C15 1_555 1_555
H13 C16 1_555 1_555
C17 C16 1_555 1_555
H14 C17 1_555 1_555
C18 C13 1_555 1_555
H15 C18 1_555 1_555
C19 H16 1_555 1_555
C20 C19 1_555 1_555
H17 C20 1_555 1_555
C21 C20 1_555 1_555
H18 C21 1_555 1_555
C22 C21 1_555 1_555
C23 C22 1_555 1_555
C24 P2 1_555 1_555
H19 C24 1_555 1_555
H20 C24 1_555 1_555
C25 P2 1_555 1_555
C26 C25 1_555 1_555
H21 C26 1_555 1_555
C27 C26 1_555 1_555
H22 C27 1_555 1_555
C28 C27 1_555 1_555
H23 C28 1_555 1_555
C29 C28 1_555 1_555
H24 C29 1_555 1_555
C30 C25 1_555 1_555
H25 C30 1_555 1_555
C31 P2 1_555 1_555
C32 C31 1_555 1_555
H26 C32 1_555 1_555
C33 C32 1_555 1_555
H27 C33 1_555 1_555
C34 C33 1_555 1_555
H28 C34 1_555 1_555
C35 C34 1_555 1_555
H29 C35 1_555 1_555
C36 C31 1_555 1_555
H30 C36 1_555 1_555
C37 N4 1_555 1_555
H31 C37 1_555 1_555
C38 C37 1_555 1_555
H32 C38 1_555 1_555
C39 C38 1_555 1_555
H33 C39 1_555 1_555
C40 C39 1_555 1_555
H34 C40 1_555 1_555
C41 N4 1_555 1_555
C42 N3 1_555 1_555
C43 C42 1_555 1_555
H35 C43 1_555 1_555
C44 C43 1_555 1_555
H36 C44 1_555 1_555
C45 C44 1_555 1_555
H37 C45 1_555 1_555
C46 N3 1_555 1_555
H38 C46 1_555 1_555
C47 H39 1_555 1_555
H40 C47 1_555 1_555
H41 C47 1_555 1_555
C48 C47 1_555 1_555
H42 C48 1_555 1_555
H43 C48 1_555 1_555
C49 O1 1_555 1_555
H44 C49 1_555 1_555
H45 C49 1_555 1_555
C50 C49 1_555 1_555
H46 C50 1_555 1_555
H47 C50 1_555 1_555
H48 C50 1_555 1_555
F1 B1 1_555 1_555
F2 B1 1_555 1_555
B1 F3 1_555 1_555
F4 B1 1_555 1_555
Cu1B P1B 1_555 1_555
Cu1B_2 P2B 1_555 1_555
P1B C6B 1_555 1_555
P2B C24B 1_555 1_555
P2B_2 Cu1B 1_555 1_555
N1B C4B 1_555 1_555
N2B C22B 1_555 1_555
N3B Cu1B 1_555 1_555
N4B Cu1B 1_555 1_555
C1B C5 1_555 1_555
H1B C1B 1_555 1_555
C2B C1B 1_555 1_555
H2B C2B 1_555 1_555
C3B C3 1_555 1_555
C4B C3B 1_555 1_555
C5B C1 1_555 1_555
H3B C5B 1_555 1_555
C6B N1B 1_555 1_555
H4B C6B 1_555 1_555
H5B C6B 1_555 1_555
C7B P1B 1_555 1_555
C8B C7B 1_555 1_555
H6B C8B 1_555 1_555
C9B C8B 1_555 1_555
H7B C9B 1_555 1_555
C10B C9B 1_555 1_555
H8B C10B 1_555 1_555
C11B C10B 1_555 1_555
H9B C11B 1_555 1_555
C12B C7B 1_555 1_555
H10B C12B 1_555 1_555
C13B P1B 1_555 1_555
C14B C13B 1_555 1_555
H11B C14B 1_555 1_555
C15B C14B 1_555 1_555
H12B C15B 1_555 1_555
C16B C15B 1_555 1_555
H13B C16B 1_555 1_555
C17B C16B 1_555 1_555
H14B C17B 1_555 1_555
C18B C13B 1_555 1_555
H15B C18B 1_555 1_555
C19B C23 1_555 1_555
H16B C19B 1_555 1_555
C20B C19B 1_555 1_555
H17B C20B 1_555 1_555
C21B C20B 1_555 1_555
H18B C21B 1_555 1_555
C22B C21B 1_555 1_555
C23B C19 1_555 1_555
C24B N2B 1_555 1_555
H19B C24B 1_555 1_555
H20B C24B 1_555 1_555
C25B P2B 1_555 1_555
C26B C25B 1_555 1_555
H21B C26B 1_555 1_555
C27B C26B 1_555 1_555
H22B C27B 1_555 1_555
C28B C27B 1_555 1_555
H23B C28B 1_555 1_555
C29B C28B 1_555 1_555
H24B C29B 1_555 1_555
C30B C25B 1_555 1_555
H25B C30B 1_555 1_555
C31B P2B 1_555 1_555
C32B C31B 1_555 1_555
H26B C32B 1_555 1_555
C33B C32B 1_555 1_555
H27B C33B 1_555 1_555
C34B C33B 1_555 1_555
H28B C34B 1_555 1_555
C35B C34B 1_555 1_555
H29B C35B 1_555 1_555
C36B C31B 1_555 1_555
H30B C36B 1_555 1_555
C37B N4B 1_555 1_555
H31B C37B 1_555 1_555
C38B C37B 1_555 1_555
H32B C38B 1_555 1_555
C39B C38B 1_555 1_555
H33B C39B 1_555 1_555
C40B C39B 1_555 1_555
H34B C40B 1_555 1_555
C41B N4B 1_555 1_555
C42B N3B 1_555 1_555
C43B C42B 1_555 1_555
H35B C43B 1_555 1_555
C44B C43B 1_555 1_555
H36B C44B 1_555 1_555
C45B C44B 1_555 1_555
H37B C45B 1_555 1_555
C46B N3B 1_555 1_555
H38B C46B 1_555 1_555
N2 C24 1_555 1_555
C11 C12 1_555 1_555
C17 C18 1_555 1_555
C23 C23B 1_555 1_555
C29 C30 1_555 1_555
C35 C36 1_555 1_555
C40 C41 1_555 1_555
C41 C42 1_555 1_555
C45 C46 1_555 1_555
C2B C3B 1_555 1_555
C4B C5B 1_555 1_555
C11B C12B 1_555 1_555
C17B C18B 1_555 1_555
C22B C23B 1_555 1_555
C29B C30B 1_555 1_555
C35B C36B 1_555 1_555
C40B C41B 1_555 1_555
C41B C42B 1_555 1_555
C45B C46B 1_555 1_555

#END
