
#######################################################################
#
#                 Cambridge Crystallographic Data Centre
#                                CCDC 
#
#######################################################################
#
# If this CIF has been generated from an entry in the Cambridge 
# Structural Database, then it will include bibliographic, chemical, 
# crystal, experimental, refinement or atomic coordinate data resulting 
# from the CCDC's data processing and validation procedures.
#
#######################################################################

data_BODKOV
_symmetry_cell_setting           monoclinic
_symmetry_space_group_name_H-M   'C 2/c'
_symmetry_Int_Tables_number      15
_space_group_name_Hall           '-C 2yn'
loop_
_symmetry_equiv_pos_site_id
_symmetry_equiv_pos_as_xyz
1 x,y,z
2 1/2+x,1/2+y,z
3 -x,y,1/2-z
4 1/2-x,1/2+y,1/2-z
5 -x,-y,-z
6 1/2-x,1/2-y,-z
7 x,-y,1/2+z
8 1/2+x,1/2-y,1/2+z
_cell_length_a                   26.2714(6)
_cell_length_b                   7.4956(1)
_cell_length_c                   17.4303(4)
_cell_angle_alpha                90
_cell_angle_beta                 116.970(1)
_cell_angle_gamma                90
_cell_volume                     3059.08
loop_
_atom_site_label
_atom_site_type_symbol
_atom_site_fract_x
_atom_site_fract_y
_atom_site_fract_z
Cl1 Cl 0.339421(15) 0.03710(5) 0.07603(2)
Cl2 Cl 0.327340(15) 0.33776(5) -0.03585(2)
P1 P 0.436525(16) 0.13402(5) 0.04185(2)
P2 P 0.400538(15) 0.37245(5) 0.15384(2)
Mg1 Mg 0.5000 0.05840(9) 0.2500
Mg2 Mg 0.5000 0.5000 0.0000
O1 O 0.44228(5) -0.15222(14) 0.24069(7)
H1 H 0.4515 -0.2170 0.2836
H2 H 0.4339 -0.2302 0.2003
O2 O 0.52796(5) 0.54606(14) 0.13530(7)
H3 H 0.5463 0.4582 0.1655
H4 H 0.4972 0.5412 0.1414
O3 O 0.42650(5) 0.63687(14) -0.02408(7)
H5 H 0.4134 0.5994 0.0081
H6 H 0.4270 0.7539 -0.0207
O4 O 0.26703(6) 0.59961(18) 0.21451(9)
O5 O 0.47342(4) 0.03220(14) 0.12101(6)
O6 O 0.46101(5) 0.28315(14) 0.01363(7)
O7 O 0.40792(5) -0.00622(14) -0.03429(6)
O8 O 0.43878(4) 0.26016(14) 0.22961(6)
O9 O 0.42461(4) 0.53413(14) 0.13049(7)
N1 N 0.34468(5) 0.43572(17) 0.16516(8)
C1 C 0.37634(6) 0.2210(2) 0.05867(9)
C2 C 0.30574(7) 0.5767(2) 0.11194(10)
H7 H 0.2705 0.5225 0.0669
H8 H 0.3242 0.6467 0.0833
C3 C 0.29103(8) 0.6976(2) 0.16834(12)
H9 H 0.3260 0.7598 0.2098
H10 H 0.2634 0.7890 0.1321
C4 C 0.30642(8) 0.4667(2) 0.26738(11)
H11 H 0.2896 0.4014 0.2997
H12 H 0.3418 0.5254 0.3096
C5 C 0.32090(7) 0.3360(2) 0.21413(11)
H13 H 0.3491 0.2479 0.2522
H14 H 0.2861 0.2710 0.1742
C6 C 0.38642(8) 0.0441(2) -0.12422(10)
H15 H 0.3927 0.1720 -0.1281
H16 H 0.3455 0.0181 -0.1551
H17 H 0.4067 -0.0237 -0.1500
Cl1B Cl 0.660579(15) 0.03710(5) 0.42397(2)
Cl2B Cl 0.672660(15) 0.33776(5) 0.53585(2)
P1B P 0.563475(16) 0.13402(5) 0.45815(2)
P2B P 0.599462(15) 0.37245(5) 0.34616(2)
Mg2F Mg 0.5000 0.5000 0.5000
O1B O 0.55772(5) -0.15222(14) 0.25931(7)
H1B H 0.5485 -0.2170 0.2164
H2B H 0.5661 -0.2302 0.2997
O2D O 0.47204(5) 0.45394(14) -0.13530(7)
H3D H 0.4537 0.5418 -0.1655
H4D H 0.5028 0.4588 -0.1414
O3D O 0.57350(5) 0.36313(14) 0.02408(7)
H5D H 0.5866 0.4006 -0.0081
H6D H 0.5730 0.2461 0.0207
O4B O 0.73297(6) 0.59961(18) 0.28549(9)
O5B O 0.52658(4) 0.03220(14) 0.37899(6)
O6B O 0.53899(5) 0.28315(14) 0.48637(7)
O6D O 0.53899(5) 0.71685(14) -0.01363(7)
O7B O 0.59208(5) -0.00622(14) 0.53429(6)
O8B O 0.56122(4) 0.26016(14) 0.27039(6)
O9B O 0.57539(4) 0.53413(14) 0.36951(7)
N1B N 0.65532(5) 0.43572(17) 0.33484(8)
C1B C 0.62366(6) 0.2210(2) 0.44133(9)
C2B C 0.69426(7) 0.5767(2) 0.38806(10)
H7B H 0.7295 0.5225 0.4331
H8B H 0.6758 0.6467 0.4167
C3B C 0.70897(8) 0.6976(2) 0.33166(12)
H9B H 0.6740 0.7598 0.2902
H10B H 0.7366 0.7890 0.3679
C4B C 0.69358(8) 0.4667(2) 0.23262(11)
H11B H 0.7104 0.4014 0.2003
H12B H 0.6582 0.5254 0.1904
C5B C 0.67910(7) 0.3360(2) 0.28587(11)
H13B H 0.6509 0.2479 0.2478
H14B H 0.7139 0.2710 0.3258
C6B C 0.61358(8) 0.0441(2) 0.62422(10)
H15B H 0.6073 0.1720 0.6281
H16B H 0.6545 0.0181 0.6551
H17B H 0.5933 -0.0237 0.6500
loop_
_geom_bond_atom_site_label_1
_geom_bond_atom_site_label_2
_geom_bond_site_symmetry_1
_geom_bond_site_symmetry_2
Cl1 C1 1_555 1_555
Cl2 C1 1_555 1_555
P1 O5 1_555 1_555
P2 O8 1_555 1_555
Mg1 O1 1_555 1_555
Mg2 O2 1_555 1_555
O1 H1 1_555 1_555
H2 O1 1_555 1_555
O2 H3 1_555 1_555
H4 O2 1_555 1_555
O3 Mg2 1_555 1_555
H5 O3 1_555 1_555
H6 O3 1_555 1_555
O4 C3 1_555 1_555
O5 Mg1 1_555 1_555
O6 P1 1_555 1_555
O7 P1 1_555 1_555
O8 Mg1 1_555 1_555
O9 P2 1_555 1_555
N1 P2 1_555 1_555
C1 P1 1_555 1_555
C2 N1 1_555 1_555
H7 C2 1_555 1_555
H8 C2 1_555 1_555
C3 C2 1_555 1_555
H9 C3 1_555 1_555
H10 C3 1_555 1_555
C4 O4 1_555 1_555
H11 C4 1_555 1_555
H12 C4 1_555 1_555
C5 N1 1_555 1_555
H13 C5 1_555 1_555
H14 C5 1_555 1_555
C6 O7 1_555 1_555
H15 C6 1_555 1_555
H16 C6 1_555 1_555
H17 C6 1_555 1_555
Cl1B C1B 1_555 1_555
Cl2B C1B 1_555 1_555
P1B O5B 1_555 1_555
P2B O8B 1_555 1_555
Mg2F O6B 1_555 1_555
O1B Mg1 1_555 1_555
H1B O1B 1_555 1_555
H2B O1B 1_555 1_555
O2D Mg2 1_555 1_555
H3D O2D 1_555 1_555
H4D O2D 1_555 1_555
O3D Mg2 1_555 1_555
H5D O3D 1_555 1_555
H6D O3D 1_555 1_555
O4B C3B 1_555 1_555
O5B Mg1 1_555 1_555
O6B P1B 1_555 1_555
O6D Mg2 1_555 1_555
O7B P1B 1_555 1_555
O8B Mg1 1_555 1_555
O9B P2B 1_555 1_555
N1B P2B 1_555 1_555
C1B P1B 1_555 1_555
C2B N1B 1_555 1_555
H7B C2B 1_555 1_555
H8B C2B 1_555 1_555
C3B C2B 1_555 1_555
H9B C3B 1_555 1_555
H10B C3B 1_555 1_555
C4B O4B 1_555 1_555
H11B C4B 1_555 1_555
H12B C4B 1_555 1_555
C5B N1B 1_555 1_555
H13B C5B 1_555 1_555
H14B C5B 1_555 1_555
C6B O7B 1_555 1_555
H15B C6B 1_555 1_555
H16B C6B 1_555 1_555
H17B C6B 1_555 1_555
P2 C1 1_555 1_555
Mg2 O6 1_555 1_555
C4 C5 1_555 1_555
P2B C1B 1_555 1_555
C4B C5B 1_555 1_555

#END
