
#######################################################################
#
#                 Cambridge Crystallographic Data Centre
#                                CCDC 
#
#######################################################################
#
# If this CIF has been generated from an entry in the Cambridge 
# Structural Database, then it will include bibliographic, chemical, 
# crystal, experimental, refinement or atomic coordinate data resulting 
# from the CCDC's data processing and validation procedures.
#
#######################################################################

data_BODXOI
_symmetry_cell_setting           monoclinic
_symmetry_space_group_name_H-M   'P 21/c'
_symmetry_Int_Tables_number      14
_space_group_name_Hall           '-P 2ybc'
loop_
_symmetry_equiv_pos_site_id
_symmetry_equiv_pos_as_xyz
1 x,y,z
2 -x,1/2+y,1/2-z
3 -x,-y,-z
4 x,1/2-y,1/2+z
_cell_length_a                   16.703(3)
_cell_length_b                   17.819(4)
_cell_length_c                   17.357(4)
_cell_angle_alpha                90
_cell_angle_beta                 106.23(3)
_cell_angle_gamma                90
_cell_volume                     4960.1
loop_
_atom_site_label
_atom_site_type_symbol
_atom_site_fract_x
_atom_site_fract_y
_atom_site_fract_z
Y1 Y 0.39900(2) 0.714965(19) 0.37071(2)
S1 S 0.03980(5) 0.79406(5) 0.08951(5)
S2 S 0.20013(5) 0.60735(5) 0.33292(5)
S3 S -0.03298(5) 0.80683(5) 0.37975(5)
S4 S 0.26207(5) 0.91147(5) 0.57158(5)
S5 S 0.03020(5) 1.11084(5) 0.39826(5)
S6 S 0.26131(5) 1.28890(5) 0.32032(5)
S7 S 0.07274(6) 1.10136(5) 0.09437(5)
S8 S 0.34566(5) 0.92609(5) 0.12181(5)
O1 O -0.03555(15) 0.85555(14) 0.21219(15)
H1 H -0.0584 0.8690 0.2460
O2 O 0.28390(14) 0.63921(14) 0.34366(16)
O3 O 0.18134(15) 0.55267(14) 0.26855(16)
O4 O 0.18697(17) 0.58080(16) 0.40652(16)
O5 O -0.06851(14) 0.96759(14) 0.34211(14)
H2 H -0.0702 1.0102 0.3209
O6 O 0.31776(15) 0.89787(14) 0.52055(15)
O7 O 0.25046(15) 0.84384(15) 0.61369(15)
O8 O 0.28701(15) 0.97724(15) 0.62118(15)
O9 O 0.00965(14) 1.04807(14) 0.23475(14)
H3 H -0.0029 1.0390 0.1865
O10 O 0.29996(15) 1.28456(14) 0.40645(15)
O11 O 0.21325(14) 1.35771(14) 0.29650(14)
O12 O 0.32155(15) 1.27725(15) 0.27425(15)
O13 O -0.01389(14) 0.95957(14) 0.08887(15)
H4 H -0.0360 0.9201 0.0960
O14 O 0.38557(15) 0.96394(16) 0.19673(16)
O15 O 0.36559(15) 0.84579(14) 0.12333(15)
O16 O 0.36042(15) 0.96371(14) 0.05284(15)
O17 O 0.33455(16) 0.74708(15) 0.47398(15)
H5 H 0.3512 0.7853 0.5034
H6 H 0.2952 0.7202 0.4811
O18 O 0.44048(15) 0.61859(15) 0.46460(15)
H7 H 0.4246 0.6186 0.5070
H8 H 0.4716 0.5835 0.4563
O19 O 0.43909(18) 0.61344(15) 0.30439(17)
H9 H 0.4304 0.5688 0.3173
H10 H 0.4624 0.6212 0.2674
O20 O 0.51292(19) 0.7581(2) 0.47239(18)
H11 H 0.5061 0.7731 0.5166
H12 H 0.5612 0.7586 0.4652
O21 O 0.50504(17) 0.75552(17) 0.31357(18)
H13 H 0.5336 0.7944 0.3318
H14 H 0.5144 0.7312 0.2748
O22 O 0.32736(16) 0.74187(15) 0.23647(15)
H15 H 0.2796 0.7626 0.2253
H16 H 0.3492 0.7309 0.1992
O23 O 0.3674(2) 0.83978(15) 0.35957(17)
N1 N 0.29233(19) 0.94670(19) 0.33803(19)
C1 C 0.0620(2) 0.76719(19) 0.1925(2)
C2 C 0.1187(2) 0.70953(19) 0.2213(2)
H17 H 0.1489 0.6891 0.1887
C3 C 0.1302(2) 0.68244(19) 0.2988(2)
C4 C 0.0851(2) 0.71205(19) 0.3477(2)
H18 H 0.0925 0.6931 0.3991
C5 C 0.0285(2) 0.7703(2) 0.3196(2)
C6 C 0.0172(2) 0.79858(19) 0.2418(2)
C7 C 0.0315(2) 0.88451(19) 0.4214(2)
C8 C 0.1083(2) 0.8718(2) 0.4766(2)
H19 H 0.1233 0.8232 0.4944
C9 C 0.1626(2) 0.9303(2) 0.5055(2)
C10 C 0.1387(2) 1.0035(2) 0.4811(2)
H20 H 0.1744 1.0433 0.5015
C11 C 0.0621(2) 1.01714(19) 0.4265(2)
C12 C 0.0077(2) 0.9578(2) 0.3959(2)
C13 C 0.0884(2) 1.13353(19) 0.3295(2)
C14 C 0.1487(2) 1.1892(2) 0.3510(2)
H21 H 0.1621 1.2097 0.4023
C15 C 0.1891(2) 1.2146(2) 0.2954(2)
C16 C 0.1685(2) 1.1844(2) 0.2188(2)
H22 H 0.1957 1.2012 0.1821
C17 C 0.1076(2) 1.1295(2) 0.1962(2)
C18 C 0.0678(2) 1.10262(19) 0.2522(2)
C19 C 0.1177(2) 1.01050(19) 0.1000(2)
C20 C 0.2025(2) 1.0028(2) 0.1076(2)
H23 H 0.2359 1.0452 0.1112
C21 C 0.2371(2) 0.9316(2) 0.1099(2)
C22 C 0.1882(2) 0.8685(2) 0.1036(2)
H24 H 0.2117 0.8211 0.1037
C23 C 0.1029(2) 0.8757(2) 0.0970(2)
C24 C 0.0677(2) 0.9471(2) 0.0949(2)
C25 C 0.3628(2) 0.9090(2) 0.3584(2)
H25 H 0.4124 0.9361 0.3728
C26 C 0.2936(3) 1.0285(2) 0.3373(3)
H26 H 0.3503 1.0458 0.3540
H27 H 0.2640 1.0474 0.3733
H28 H 0.2673 1.0462 0.2839
C27 C 0.2118(3) 0.9096(3) 0.3142(3)
H29 H 0.2198 0.8562 0.3171
H30 H 0.1829 0.9236 0.2601
H31 H 0.1795 0.9244 0.3495
Na1 Na 0.23614(9) 0.45548(8) 0.21135(8)
O31 O 0.37160(15) 0.47022(15) 0.30381(15)
H32 H 0.4113 0.4415 0.3009
H33 H 0.3800 0.5042 0.3396
O32 O 0.25890(16) 0.34504(15) 0.12429(16)
H34 H 0.3066 0.3246 0.1336
H35 H 0.2186 0.3290 0.0862
O5A O 0.06851(14) 0.46759(14) 0.15789(14)
H2A H 0.0702 0.5102 0.1791
O8C O 0.28701(15) 0.52276(15) 0.12118(15)
O11_2 O 0.21325(14) 0.35771(14) 0.29650(14)
Na1A Na -0.23614(9) 0.95548(8) 0.28865(8)
Na1C Na 0.23614(9) 1.04452(8) 0.71135(8)
Na1_2 Na 0.23614(9) 1.45548(8) 0.21135(8)
O24 O 0.53368(18) 0.90660(19) 0.2893(2)
O25 O 0.81860(17) 0.91961(16) 0.06160(16)
O26 O 0.6493(3) 0.8452(3) 0.4858(3)
O28 O 0.51530(16) 0.73566(16) 0.62797(16)
O29 O 0.63200(19) 0.65024(18) 0.3324(2)
O30 O 0.60553(15) 0.58447(15) 0.53595(15)
O33 O 0.2385(4) 0.2984(3) 0.5424(3)
O35 O 0.5453(4) 1.0171(4) 0.4472(4)
O37 O 0.4991(3) 0.6156(2) 0.1734(2)
O27? O 0.6035(5) 0.8797(5) 0.4373(6)
O34? O 0.1806(4) 0.2742(3) 0.5243(4)
O36? O 0.5679(4) 0.9736(4) 0.4624(4)
loop_
_geom_bond_atom_site_label_1
_geom_bond_atom_site_label_2
_geom_bond_site_symmetry_1
_geom_bond_site_symmetry_2
Y1 O2 1_555 1_555
S1 C1 1_555 1_555
S2 O2 1_555 1_555
S3 C5 1_555 1_555
S4 O6 1_555 1_555
S5 C11 1_555 1_555
S6 O10 1_555 1_555
S7 C17 1_555 1_555
S8 O14 1_555 1_555
O1 H1 1_555 1_555
O3 S2 1_555 1_555
O4 S2 1_555 1_555
O5 H2 1_555 1_555
O7 S4 1_555 1_555
O8 S4 1_555 1_555
O9 H3 1_555 1_555
O11 S6 1_555 1_555
O12 S6 1_555 1_555
O13 H4 1_555 1_555
O15 S8 1_555 1_555
O16 S8 1_555 1_555
O17 Y1 1_555 1_555
H5 O17 1_555 1_555
H6 O17 1_555 1_555
O18 Y1 1_555 1_555
H7 O18 1_555 1_555
H8 O18 1_555 1_555
O19 Y1 1_555 1_555
H9 O19 1_555 1_555
H10 O19 1_555 1_555
O20 Y1 1_555 1_555
H11 O20 1_555 1_555
H12 O20 1_555 1_555
O21 Y1 1_555 1_555
H13 O21 1_555 1_555
H14 O21 1_555 1_555
O22 Y1 1_555 1_555
H15 O22 1_555 1_555
H16 O22 1_555 1_555
O23 Y1 1_555 1_555
N1 C25 1_555 1_555
C1 C2 1_555 1_555
C2 H17 1_555 1_555
C3 S2 1_555 1_555
C4 C3 1_555 1_555
H18 C4 1_555 1_555
C5 C4 1_555 1_555
C6 O1 1_555 1_555
C7 S3 1_555 1_555
C8 C7 1_555 1_555
H19 C8 1_555 1_555
C9 S4 1_555 1_555
C10 C9 1_555 1_555
H20 C10 1_555 1_555
C11 C10 1_555 1_555
C12 O5 1_555 1_555
C13 S5 1_555 1_555
C14 C13 1_555 1_555
H21 C14 1_555 1_555
C15 S6 1_555 1_555
C16 C15 1_555 1_555
H22 C16 1_555 1_555
C17 C16 1_555 1_555
C18 O9 1_555 1_555
C19 S7 1_555 1_555
C20 C19 1_555 1_555
H23 C20 1_555 1_555
C21 S8 1_555 1_555
C22 C21 1_555 1_555
H24 C22 1_555 1_555
C23 S1 1_555 1_555
C24 O13 1_555 1_555
C25 O23 1_555 1_555
H25 C25 1_555 1_555
C26 N1 1_555 1_555
H26 C26 1_555 1_555
H27 C26 1_555 1_555
H28 C26 1_555 1_555
C27 N1 1_555 1_555
H29 C27 1_555 1_555
H30 C27 1_555 1_555
H31 C27 1_555 1_555
Na1 O3 1_555 1_555
O31 Na1 1_555 1_555
H32 O31 1_555 1_555
H33 O31 1_555 1_555
O32 Na1 1_555 1_555
H34 O32 1_555 1_555
H35 O32 1_555 1_555
O5A Na1 1_555 1_555
H2A O5A 1_555 1_555
O8C Na1 1_555 1_555
O11_2 Na1 1_555 1_555
Na1A O5 1_555 1_555
Na1C O8 1_555 1_555
Na1_2 O11 1_555 1_555
C1 C6 1_555 1_555
C2 C3 1_555 1_555
C5 C6 1_555 1_555
C7 C12 1_555 1_555
C8 C9 1_555 1_555
C11 C12 1_555 1_555
C13 C18 1_555 1_555
C14 C15 1_555 1_555
C17 C18 1_555 1_555
C19 C24 1_555 1_555
C20 C21 1_555 1_555
C22 C23 1_555 1_555
C23 C24 1_555 1_555

#END
