
#######################################################################
#
#                 Cambridge Crystallographic Data Centre
#                                CCDC 
#
#######################################################################
#
# If this CIF has been generated from an entry in the Cambridge 
# Structural Database, then it will include bibliographic, chemical, 
# crystal, experimental, refinement or atomic coordinate data resulting 
# from the CCDC's data processing and validation procedures.
#
#######################################################################

data_BODYUP
_symmetry_cell_setting           monoclinic
_symmetry_space_group_name_H-M   'C 2/c'
_symmetry_Int_Tables_number      15
_space_group_name_Hall           '-C 2yn'
loop_
_symmetry_equiv_pos_site_id
_symmetry_equiv_pos_as_xyz
1 x,y,z
2 -x,y,1/2-z
3 1/2+x,1/2+y,z
4 1/2-x,1/2+y,1/2-z
5 -x,-y,-z
6 x,-y,1/2+z
7 1/2-x,1/2-y,-z
8 1/2+x,1/2-y,1/2+z
_cell_length_a                   24.434(4)
_cell_length_b                   13.543(2)
_cell_length_c                   10.2379(16)
_cell_angle_alpha                90
_cell_angle_beta                 109.024(2)
_cell_angle_gamma                90
_cell_volume                     3202.78
loop_
_atom_site_label
_atom_site_type_symbol
_atom_site_fract_x
_atom_site_fract_y
_atom_site_fract_z
Zn1 Zn 0.5000 0.80089(3) 0.7500
O1 O 0.69859(8) 0.79852(14) 0.64807(18)
O2 O 0.51028(7) 0.71175(11) 0.60801(14)
O3 O 0.50744(8) 0.85239(13) 0.49683(17)
N1 N 0.57067(7) 0.89294(13) 0.81749(17)
N2 N 0.73700(8) 0.84416(15) 0.7429(2)
N3 N 0.77361(8) 0.94474(16) 0.9235(2)
C1 C 0.56680(10) 0.97673(17) 0.8837(2)
H1 H 0.5320 0.9913 0.8983
C2 C 0.61197(10) 1.04197(18) 0.9308(3)
H2 H 0.6075 1.1005 0.9737
C3 C 0.66391(10) 1.01930(18) 0.9134(3)
H3 H 0.6954 1.0616 0.9470
C4 C 0.66930(9) 0.93294(16) 0.8453(2)
C5 C 0.62103(9) 0.87267(16) 0.7963(2)
H4 H 0.6236 0.8162 0.7469
C6 C 0.72719(9) 0.90844(17) 0.8386(2)
C7 C 0.80071(10) 0.82396(19) 0.7820(3)
C8 C 0.80958(15) 0.7224(2) 0.8500(4)
H5 H 0.7972 0.7238 0.9299
H6 H 0.8498 0.7050 0.8775
H7 H 0.7873 0.6743 0.7856
C9 C 0.81900(12) 0.8218(2) 0.6526(3)
H8 H 0.8002 0.7678 0.5946
H9 H 0.8602 0.8136 0.6791
H10 H 0.8081 0.8827 0.6030
C10 C 0.82395(10) 0.9117(2) 0.8823(3)
C11 C 0.87370(12) 0.8859(3) 1.0125(3)
H11 H 0.8873 0.9448 1.0653
H12 H 0.9047 0.8569 0.9873
H13 H 0.8605 0.8398 1.0668
C12 C 0.84082(14) 1.0019(2) 0.8136(4)
H14 H 0.8099 1.0177 0.7305
H15 H 0.8752 0.9874 0.7914
H16 H 0.8479 1.0570 0.8758
C13 C 0.50818(9) 0.76185(18) 0.5002(2)
C14 C 0.50524(9) 0.70479(16) 0.3716(2)
C15 C 0.50606(10) 0.60238(17) 0.3708(2)
H17 H 0.5107 0.5679 0.4523
C16 C 0.5000 0.5511(2) 0.2500
H18 H 0.5000 0.4824 0.2500
C17 C 0.5000 0.7550(2) 0.2500
H19 H 0.5000 0.8236 0.2500
Zn1_2 Zn 0.5000 0.80089(3) -0.2500
O1A O 0.30141(8) 0.79852(14) 0.85193(18)
O2A O 0.48972(7) 0.71175(11) -0.10801(14)
O2A_2 O 0.48972(7) 0.71175(11) 0.89199(14)
O3A O 0.49256(8) 0.85239(13) 0.00317(17)
N1A N 0.42933(7) 0.89294(13) 0.68251(17)
N2A N 0.26300(8) 0.84416(15) 0.7571(2)
N3A N 0.22639(8) 0.94474(16) 0.5765(2)
C1A C 0.43320(10) 0.97673(17) 0.6163(2)
H1A H 0.4680 0.9913 0.6017
C2A C 0.38803(10) 1.04197(18) 0.5692(3)
H2A H 0.3925 1.1005 0.5263
C3A C 0.33609(10) 1.01930(18) 0.5866(3)
H3A H 0.3046 1.0616 0.5530
C4A C 0.33070(9) 0.93294(16) 0.6547(2)
C5A C 0.37897(9) 0.87267(16) 0.7037(2)
H4A H 0.3764 0.8162 0.7531
C6A C 0.27281(9) 0.90844(17) 0.6614(2)
C7A C 0.19929(10) 0.82396(19) 0.7180(3)
C8A C 0.19042(15) 0.7224(2) 0.6500(4)
H5A H 0.2028 0.7238 0.5701
H6A H 0.1502 0.7050 0.6225
H7A H 0.2127 0.6743 0.7144
C9A C 0.18100(12) 0.8218(2) 0.8474(3)
H8A H 0.1998 0.7678 0.9054
H9A H 0.1398 0.8136 0.8209
H10A H 0.1919 0.8827 0.8970
C10A C 0.17605(10) 0.9117(2) 0.6177(3)
C11A C 0.12630(12) 0.8859(3) 0.4875(3)
H11A H 0.1127 0.9448 0.4347
H12A H 0.0953 0.8569 0.5127
H13A H 0.1395 0.8398 0.4332
C12A C 0.15918(14) 1.0019(2) 0.6864(4)
H14A H 0.1901 1.0177 0.7695
H15A H 0.1248 0.9874 0.7086
H16A H 0.1521 1.0570 0.6242
C13A C 0.49182(9) 0.76185(18) -0.0002(2)
C14A C 0.49476(9) 0.70479(16) 0.1284(2)
C15A C 0.49394(10) 0.60238(17) 0.1292(2)
H17A H 0.4893 0.5679 0.0477
loop_
_geom_bond_atom_site_label_1
_geom_bond_atom_site_label_2
_geom_bond_site_symmetry_1
_geom_bond_site_symmetry_2
Zn1 O2 1_555 1_555
O1 N2 1_555 1_555
O2 C13 1_555 1_555
O3 C13 1_555 1_555
N1 Zn1 1_555 1_555
N2 C6 1_555 1_555
N3 C6 1_555 1_555
C1 N1 1_555 1_555
H1 C1 1_555 1_555
C2 C1 1_555 1_555
H2 C2 1_555 1_555
C3 C2 1_555 1_555
H3 C3 1_555 1_555
C4 C3 1_555 1_555
C5 N1 1_555 1_555
H4 C5 1_555 1_555
C6 C4 1_555 1_555
C7 N2 1_555 1_555
C8 C7 1_555 1_555
H5 C8 1_555 1_555
H6 C8 1_555 1_555
H7 C8 1_555 1_555
C9 C7 1_555 1_555
H8 C9 1_555 1_555
H9 C9 1_555 1_555
H10 C9 1_555 1_555
C10 N3 1_555 1_555
C11 C10 1_555 1_555
H11 C11 1_555 1_555
H12 C11 1_555 1_555
H13 C11 1_555 1_555
C12 C10 1_555 1_555
H14 C12 1_555 1_555
H15 C12 1_555 1_555
H16 C12 1_555 1_555
C13 C14 1_555 1_555
C14 C15 1_555 1_555
C15 H17 1_555 1_555
C16 C15 1_555 1_555
H18 C16 1_555 1_555
C17 C14 1_555 1_555
H19 C17 1_555 1_555
Zn1_2 O2A 1_555 1_555
O1A N2A 1_555 1_555
O2A C13A 1_555 1_555
O2A_2 Zn1 1_555 1_555
O3A C13A 1_555 1_555
N1A Zn1 1_555 1_555
N2A C6A 1_555 1_555
N3A C6A 1_555 1_555
C1A N1A 1_555 1_555
H1A C1A 1_555 1_555
C2A C1A 1_555 1_555
H2A C2A 1_555 1_555
C3A C2A 1_555 1_555
H3A C3A 1_555 1_555
C4A C3A 1_555 1_555
C5A N1A 1_555 1_555
H4A C5A 1_555 1_555
C6A C4A 1_555 1_555
C7A N2A 1_555 1_555
C8A C7A 1_555 1_555
H5A C8A 1_555 1_555
H6A C8A 1_555 1_555
H7A C8A 1_555 1_555
C9A C7A 1_555 1_555
H8A C9A 1_555 1_555
H9A C9A 1_555 1_555
H10A C9A 1_555 1_555
C10A N3A 1_555 1_555
C11A C10A 1_555 1_555
H11A C11A 1_555 1_555
H12A C11A 1_555 1_555
H13A C11A 1_555 1_555
C12A C10A 1_555 1_555
H14A C12A 1_555 1_555
H15A C12A 1_555 1_555
H16A C12A 1_555 1_555
C13A C14A 1_555 1_555
C14A C17 1_555 1_555
C15A C16 1_555 1_555
H17A C15A 1_555 1_555
C4 C5 1_555 1_555
C7 C10 1_555 1_555
C4A C5A 1_555 1_555
C7A C10A 1_555 1_555
C14A C15A 1_555 1_555

#END
