
#######################################################################
#
#                 Cambridge Crystallographic Data Centre
#                                CCDC 
#
#######################################################################
#
# If this CIF has been generated from an entry in the Cambridge 
# Structural Database, then it will include bibliographic, chemical, 
# crystal, experimental, refinement or atomic coordinate data resulting 
# from the CCDC's data processing and validation procedures.
#
#######################################################################

data_BOFDUW
_symmetry_cell_setting           orthorhombic
_symmetry_space_group_name_H-M   'P 21 21 2'
_symmetry_Int_Tables_number      18
_space_group_name_Hall           'P 2 2ab'
loop_
_symmetry_equiv_pos_site_id
_symmetry_equiv_pos_as_xyz
1 x,y,z
2 -x,-y,z
3 1/2-x,1/2+y,-z
4 1/2+x,1/2-y,-z
_cell_length_a                   15.1119(18)
_cell_length_b                   25.855(3)
_cell_length_c                   5.0689(6)
_cell_angle_alpha                90
_cell_angle_beta                 90
_cell_angle_gamma                90
_cell_volume                     1980.51
loop_
_atom_site_label
_atom_site_type_symbol
_atom_site_fract_x
_atom_site_fract_y
_atom_site_fract_z
C1 C 0.1043(2) 0.36131(14) 0.6315(8)
H1 H 0.1010 0.3319 0.7366
Br1 Br 0.15464(3) -0.043759(14) 0.00289(9)
Br2 Br 0.36278(3) 0.057744(16) 0.19711(9)
Zn1 Zn 0.24590(3) 0.000085(15) 0.31491(8)
C2 C 0.1364(2) 0.11682(14) 0.8153(8)
H2 H 0.1576 0.1365 0.9553
C3 C -0.1380(2) 0.27202(12) 0.5589(7)
H3 H -0.1436 0.2592 0.3778
C4 C 0.0220(2) 0.09249(13) 0.5220(8)
H4 H -0.0350 0.0959 0.4554
C5 C 0.1891(2) 0.08036(14) 0.7028(8)
H5 H 0.2467 0.0766 0.7644
C6 C -0.0267(2) 0.32989(13) 0.3672(7)
N1 N -0.0559(2) 0.19210(10) 0.6627(6)
H6 H -0.0444 0.1888 0.4975
N2 N 0.16127(18) 0.04952(10) 0.5066(6)
C7 C -0.0073(2) 0.16587(13) 0.8374(7)
O1 O -0.0089(2) 0.17391(11) 1.0751(5)
C8 C -0.3040(3) 0.27204(16) 0.6390(8)
H7 H -0.3526 0.2939 0.6950
H8 H -0.3178 0.2585 0.4653
C9 C -0.1283(2) 0.22623(13) 0.7431(7)
H9 H -0.1153 0.2393 0.9204
N3 N 0.17558(19) 0.44144(11) 0.5371(6)
C10 C 0.1180(2) 0.44852(14) 0.3409(8)
H10 H 0.1222 0.4786 0.2410
C11 C 0.0523(2) 0.41332(14) 0.2790(8)
H11 H 0.0138 0.4195 0.1393
C12 C 0.1685(2) 0.39773(13) 0.6773(8)
H12 H 0.2090 0.3918 0.8121
C13 C -0.2930(3) 0.22780(16) 0.8309(9)
H13 H -0.3460 0.2067 0.8304
H14 H -0.2850 0.2414 1.0077
C14 C 0.0512(2) 0.12488(13) 0.7224(7)
C15 C 0.0448(2) 0.36849(13) 0.4296(7)
C16 C 0.0780(2) 0.05542(14) 0.4226(8)
H15 H 0.0571 0.0335 0.2913
N4 N -0.06049(19) 0.30536(11) 0.5743(6)
H16 H -0.0353 0.3094 0.7251
O2 O -0.0494(2) 0.32228(11) 0.1388(5)
C17 C -0.2199(2) 0.30358(14) 0.6260(9)
H17 H -0.2108 0.3204 0.7949
H18 H -0.2271 0.3305 0.4942
C18 C -0.2134(2) 0.19462(15) 0.7562(9)
H19 H -0.2064 0.1672 0.8853
H20 H -0.2241 0.1787 0.5860
Zn1B Zn 0.25410(3) 0.500085(15) 0.68509(8)
N3B N 0.32442(19) -0.05856(11) 0.4629(6)
loop_
_geom_bond_atom_site_label_1
_geom_bond_atom_site_label_2
_geom_bond_site_symmetry_1
_geom_bond_site_symmetry_2
C1 H1 1_555 1_555
Br1 Zn1 1_555 1_555
Br2 Zn1 1_555 1_555
Zn1 N2 1_555 1_555
C2 H2 1_555 1_555
C3 H3 1_555 1_555
C4 H4 1_555 1_555
C5 C2 1_555 1_555
H5 C5 1_555 1_555
C6 C15 1_555 1_555
N1 H6 1_555 1_555
N2 C5 1_555 1_555
C7 N1 1_555 1_555
O1 C7 1_555 1_555
C8 H7 1_555 1_555
H8 C8 1_555 1_555
C9 C3 1_555 1_555
H9 C9 1_555 1_555
N3 C10 1_555 1_555
C10 H10 1_555 1_555
C11 C10 1_555 1_555
H11 C11 1_555 1_555
C12 C1 1_555 1_555
H12 C12 1_555 1_555
C13 C8 1_555 1_555
H13 C13 1_555 1_555
H14 C13 1_555 1_555
C14 C2 1_555 1_555
C15 C1 1_555 1_555
C16 C4 1_555 1_555
H15 C16 1_555 1_555
N4 C3 1_555 1_555
H16 N4 1_555 1_555
O2 C6 1_555 1_555
C17 C3 1_555 1_555
H17 C17 1_555 1_555
H18 C17 1_555 1_555
C18 C9 1_555 1_555
H19 C18 1_555 1_555
H20 C18 1_555 1_555
Zn1B N3 1_555 1_555
N3B Zn1 1_555 1_555
C4 C14 1_555 1_555
C6 N4 1_555 1_555
N1 C9 1_555 1_555
N2 C16 1_555 1_555
C7 C14 1_555 1_555
C8 C17 1_555 1_555
N3 C12 1_555 1_555
C11 C15 1_555 1_555
C13 C18 1_555 1_555

#END
