
#######################################################################
#
#                 Cambridge Crystallographic Data Centre
#                                CCDC 
#
#######################################################################
#
# If this CIF has been generated from an entry in the Cambridge 
# Structural Database, then it will include bibliographic, chemical, 
# crystal, experimental, refinement or atomic coordinate data resulting 
# from the CCDC's data processing and validation procedures.
#
#######################################################################

data_BOFWUQ
_symmetry_cell_setting           monoclinic
_symmetry_space_group_name_H-M   'P 21/c'
_symmetry_Int_Tables_number      14
_space_group_name_Hall           '-P 2ybc'
loop_
_symmetry_equiv_pos_site_id
_symmetry_equiv_pos_as_xyz
1 x,y,z
2 -x,1/2+y,1/2-z
3 -x,-y,-z
4 x,1/2-y,1/2+z
_cell_length_a                   9.8418(5)
_cell_length_b                   8.8992(7)
_cell_length_c                   13.3314(11)
_cell_angle_alpha                90
_cell_angle_beta                 104.2780(10)
_cell_angle_gamma                90
_cell_volume                     1131.55
loop_
_atom_site_label
_atom_site_type_symbol
_atom_site_fract_x
_atom_site_fract_y
_atom_site_fract_z
Cd1 Cd 0.0000 0.0000 0.0000
N1 N -0.0681(4) 0.2521(4) -0.0595(3)
N2 N 0.2273(4) 0.0752(5) 0.0816(3)
N3 N 0.3031(4) 0.1346(4) 0.0194(3)
H1 H 0.2695 0.1515 -0.0455
O1 O -0.0685(4) 0.4367(5) -0.3474(2)
O2 O -0.1998(4) 0.6265(4) -0.3168(3)
C1 C -0.1347(5) 0.5063(5) -0.2927(4)
C2 C -0.0701(5) 0.3097(5) -0.1525(4)
H2 H -0.0270 0.2556 -0.1958
C3 C -0.1326(5) 0.4446(6) -0.1878(3)
C4 C -0.1941(6) 0.5250(6) -0.1220(4)
H3 H -0.2386 0.6159 -0.1431
C5 C -0.1887(6) 0.4695(6) -0.0256(4)
H4 H -0.2276 0.5233 0.0202
C6 C -0.1251(5) 0.3334(6) 0.0030(4)
H5 H -0.1219 0.2966 0.0688
C7 C 0.2716(7) 0.0120(6) 0.2662(5)
H6 H 0.1974 0.0738 0.2784
H7 H 0.3498 0.0146 0.3257
H8 H 0.2389 -0.0896 0.2536
C8 C 0.3157(5) 0.0690(7) 0.1749(4)
C9 C 0.4462(6) 0.1241(7) 0.1705(4)
H9 H 0.5251 0.1322 0.2254
C10 C 0.4367(6) 0.1645(6) 0.0695(4)
C11 C 0.5371(7) 0.2276(10) 0.0160(5)
H10 H 0.5265 0.1784 -0.0496
H11 H 0.6308 0.2125 0.0574
H12 H 0.5199 0.3332 0.0050
N1B N 0.0681(4) -0.2521(4) 0.0595(3)
N2B N -0.2273(4) -0.0752(5) -0.0816(3)
N3B N -0.3031(4) -0.1346(4) -0.0194(3)
H1B H -0.2695 -0.1515 0.0455
O1B O 0.0685(4) -0.4367(5) 0.3474(2)
O2B O 0.1998(4) -0.6265(4) 0.3168(3)
C1B C 0.1347(5) -0.5063(5) 0.2927(4)
C2B C 0.0701(5) -0.3097(5) 0.1525(4)
H2B H 0.0270 -0.2556 0.1958
C3B C 0.1326(5) -0.4446(6) 0.1878(3)
C4B C 0.1941(6) -0.5250(6) 0.1220(4)
H3B H 0.2386 -0.6159 0.1431
C5B C 0.1887(6) -0.4695(6) 0.0256(4)
H4B H 0.2276 -0.5233 -0.0202
C6B C 0.1251(5) -0.3334(6) -0.0030(4)
H5B H 0.1219 -0.2966 -0.0688
C7B C -0.2716(7) -0.0120(6) -0.2662(5)
H6B H -0.1974 -0.0738 -0.2784
H7B H -0.3498 -0.0146 -0.3257
H8B H -0.2389 0.0896 -0.2536
C8B C -0.3157(5) -0.0690(7) -0.1749(4)
C9B C -0.4462(6) -0.1241(7) -0.1705(4)
H9B H -0.5251 -0.1322 -0.2254
C10B C -0.4367(6) -0.1645(6) -0.0695(4)
C11B C -0.5371(7) -0.2276(10) -0.0160(5)
H10B H -0.5265 -0.1784 0.0496
H11B H -0.6308 -0.2125 -0.0574
H12B H -0.5199 -0.3332 -0.0050
Cd1A Cd 0.0000 -0.5000 0.5000
Cd1A_2 Cd 0.0000 0.5000 -0.5000
O1A O 0.0685(4) -0.0633(5) -0.1526(2)
O1C O -0.0685(4) 0.0633(5) 0.1526(2)
loop_
_geom_bond_atom_site_label_1
_geom_bond_atom_site_label_2
_geom_bond_site_symmetry_1
_geom_bond_site_symmetry_2
Cd1 N1 1_555 1_555
N1 C2 1_555 1_555
N2 Cd1 1_555 1_555
N3 N2 1_555 1_555
H1 N3 1_555 1_555
O1 C1 1_555 1_555
O2 C1 1_555 1_555
C1 C3 1_555 1_555
C2 H2 1_555 1_555
C3 C2 1_555 1_555
C4 C3 1_555 1_555
H3 C4 1_555 1_555
C5 C4 1_555 1_555
H4 C5 1_555 1_555
C6 N1 1_555 1_555
H5 C6 1_555 1_555
C7 H6 1_555 1_555
H7 C7 1_555 1_555
H8 C7 1_555 1_555
C8 N2 1_555 1_555
C9 C8 1_555 1_555
H9 C9 1_555 1_555
C10 N3 1_555 1_555
C11 C10 1_555 1_555
H10 C11 1_555 1_555
H11 C11 1_555 1_555
H12 C11 1_555 1_555
N1B Cd1 1_555 1_555
N2B Cd1 1_555 1_555
N3B N2B 1_555 1_555
H1B N3B 1_555 1_555
O1B C1B 1_555 1_555
O2B C1B 1_555 1_555
C1B C3B 1_555 1_555
C2B N1B 1_555 1_555
H2B C2B 1_555 1_555
C3B C2B 1_555 1_555
C4B C3B 1_555 1_555
H3B C4B 1_555 1_555
C5B C4B 1_555 1_555
H4B C5B 1_555 1_555
C6B N1B 1_555 1_555
H5B C6B 1_555 1_555
C7B H6B 1_555 1_555
H7B C7B 1_555 1_555
H8B C7B 1_555 1_555
C8B N2B 1_555 1_555
C9B C8B 1_555 1_555
H9B C9B 1_555 1_555
C10B N3B 1_555 1_555
C11B C10B 1_555 1_555
H10B C11B 1_555 1_555
H11B C11B 1_555 1_555
H12B C11B 1_555 1_555
Cd1A O1B 1_555 1_555
Cd1A_2 O1 1_555 1_555
O1A Cd1 1_555 1_555
O1C Cd1 1_555 1_555
C5 C6 1_555 1_555
C7 C8 1_555 1_555
C9 C10 1_555 1_555
C5B C6B 1_555 1_555
C7B C8B 1_555 1_555
C9B C10B 1_555 1_555

#END
