
#######################################################################
#
#                 Cambridge Crystallographic Data Centre
#                                CCDC 
#
#######################################################################
#
# If this CIF has been generated from an entry in the Cambridge 
# Structural Database, then it will include bibliographic, chemical, 
# crystal, experimental, refinement or atomic coordinate data resulting 
# from the CCDC's data processing and validation procedures.
#
#######################################################################

data_BOFYIG
_symmetry_cell_setting           monoclinic
_symmetry_space_group_name_H-M   'P 21/c'
_symmetry_Int_Tables_number      14
_space_group_name_Hall           '-P 2ybc'
loop_
_symmetry_equiv_pos_site_id
_symmetry_equiv_pos_as_xyz
1 x,y,z
2 -x,1/2+y,1/2-z
3 -x,-y,-z
4 x,1/2-y,1/2+z
_cell_length_a                   15.6548(12)
_cell_length_b                   8.8600(6)
_cell_length_c                   17.7947(14)
_cell_angle_alpha                90
_cell_angle_beta                 112.7090(10)
_cell_angle_gamma                90
_cell_volume                     2276.81
loop_
_atom_site_label
_atom_site_type_symbol
_atom_site_fract_x
_atom_site_fract_y
_atom_site_fract_z
Zn1 Zn 0.25919(4) 0.51944(6) 0.31812(3)
N1 N 0.2237(3) 0.6014(4) 0.2046(2)
N2 N 0.2915(3) 0.6479(4) 0.1801(2)
H1 H 0.3488 0.6570 0.2119
N3 N 0.2756(3) 0.2958(4) 0.3181(2)
N4 N 0.2124(3) 0.2042(4) 0.3308(2)
H2 H 0.1645 0.2365 0.3383
O1 O 0.1629(2) 0.5687(4) 0.3558(2)
O2 O 0.0708(2) 0.3708(4) 0.3374(3)
O3 O -0.6315(2) 0.6120(4) 0.3969(2)
O4 O -0.5595(2) 0.6917(5) 0.3189(2)
C1 C 0.0884(3) 0.5041(6) 0.3521(3)
C2 C 0.0207(3) 0.6085(6) 0.3670(3)
H3 H -0.0059 0.6733 0.3198
H4 H 0.0553 0.6727 0.4129
C3 C -0.0576(3) 0.5382(5) 0.3839(3)
H5 H -0.0326 0.4698 0.4298
H6 H -0.0961 0.4799 0.3369
C4 C -0.1167(3) 0.6578(6) 0.4027(3)
H7 H -0.0775 0.7139 0.4503
H8 H -0.1388 0.7280 0.3574
C5 C -0.1995(3) 0.5986(6) 0.4180(3)
H9 H -0.1780 0.5312 0.4646
H10 H -0.2387 0.5408 0.3711
C6 C -0.2562(3) 0.7244(6) 0.4340(3)
H11 H -0.2731 0.7963 0.3895
H12 H -0.2182 0.7768 0.4835
C7 C -0.3438(3) 0.6686(6) 0.4426(3)
H13 H -0.3795 0.6093 0.3950
H14 H -0.3268 0.6031 0.4898
C8 C -0.4041(3) 0.7956(6) 0.4519(3)
H15 H -0.4212 0.8609 0.4046
H16 H -0.3683 0.8551 0.4994
C9 C -0.4921(3) 0.7410(6) 0.4610(3)
H17 H -0.4752 0.6646 0.5033
H18 H -0.5189 0.8251 0.4792
C10 C -0.5649(3) 0.6764(5) 0.3854(3)
C11 C 0.0553(3) 0.5620(6) 0.1419(3)
H19 H 0.0608 0.4682 0.1705
H20 H 0.0095 0.5520 0.0876
H21 H 0.0370 0.6402 0.1700
C12 C 0.1464(3) 0.6016(5) 0.1384(3)
C13 C 0.1653(3) 0.6482(6) 0.0718(3)
H22 H 0.1229 0.6575 0.0183
C14 C 0.2577(4) 0.6777(6) 0.1001(3)
C15 C 0.3188(4) 0.7327(7) 0.0588(3)
H23 H 0.3622 0.8047 0.0932
H24 H 0.2816 0.7798 0.0081
H25 H 0.3518 0.6490 0.0486
C16 C 0.4195(4) 0.2659(8) 0.2951(4)
H26 H 0.3983 0.3363 0.2507
H27 H 0.4524 0.1852 0.2822
H28 H 0.4599 0.3166 0.3435
C17 C 0.3375(3) 0.2026(6) 0.3093(3)
C18 C 0.3144(4) 0.0547(6) 0.3170(3)
H29 H 0.3473 -0.0308 0.3139
C19 C 0.2341(4) 0.0576(6) 0.3302(3)
C20 C 0.1757(5) -0.0621(6) 0.3440(4)
H30 H 0.1668 -0.0415 0.3935
H31 H 0.2056 -0.1581 0.3484
H32 H 0.1166 -0.0641 0.2992
Zn1_2 Zn -0.74081(4) 0.51944(6) 0.31812(3)
O3_2 O 0.3685(2) 0.6120(4) 0.3969(2)
loop_
_geom_bond_atom_site_label_1
_geom_bond_atom_site_label_2
_geom_bond_site_symmetry_1
_geom_bond_site_symmetry_2
Zn1 N1 1_555 1_555
N1 N2 1_555 1_555
N2 H1 1_555 1_555
N3 Zn1 1_555 1_555
N4 N3 1_555 1_555
H2 N4 1_555 1_555
O1 Zn1 1_555 1_555
O2 C1 1_555 1_555
O3 C10 1_555 1_555
O4 C10 1_555 1_555
C1 O1 1_555 1_555
C2 C1 1_555 1_555
H3 C2 1_555 1_555
H4 C2 1_555 1_555
C3 C2 1_555 1_555
H5 C3 1_555 1_555
H6 C3 1_555 1_555
C4 C3 1_555 1_555
H7 C4 1_555 1_555
H8 C4 1_555 1_555
C5 C4 1_555 1_555
H9 C5 1_555 1_555
H10 C5 1_555 1_555
C6 C5 1_555 1_555
H11 C6 1_555 1_555
H12 C6 1_555 1_555
C7 C6 1_555 1_555
H13 C7 1_555 1_555
H14 C7 1_555 1_555
C8 C7 1_555 1_555
H15 C8 1_555 1_555
H16 C8 1_555 1_555
C9 C8 1_555 1_555
H17 C9 1_555 1_555
H18 C9 1_555 1_555
C10 C9 1_555 1_555
C11 H19 1_555 1_555
H20 C11 1_555 1_555
H21 C11 1_555 1_555
C12 N1 1_555 1_555
C13 C12 1_555 1_555
H22 C13 1_555 1_555
C14 N2 1_555 1_555
C15 C14 1_555 1_555
H23 C15 1_555 1_555
H24 C15 1_555 1_555
H25 C15 1_555 1_555
C16 H26 1_555 1_555
H27 C16 1_555 1_555
H28 C16 1_555 1_555
C17 N3 1_555 1_555
C18 C17 1_555 1_555
H29 C18 1_555 1_555
C19 N4 1_555 1_555
C20 C19 1_555 1_555
H30 C20 1_555 1_555
H31 C20 1_555 1_555
H32 C20 1_555 1_555
Zn1_2 O3 1_555 1_555
O3_2 Zn1 1_555 1_555
C11 C12 1_555 1_555
C13 C14 1_555 1_555
C16 C17 1_555 1_555
C18 C19 1_555 1_555

#END
