
#######################################################################
#
#                 Cambridge Crystallographic Data Centre
#                                CCDC 
#
#######################################################################
#
# If this CIF has been generated from an entry in the Cambridge 
# Structural Database, then it will include bibliographic, chemical, 
# crystal, experimental, refinement or atomic coordinate data resulting 
# from the CCDC's data processing and validation procedures.
#
#######################################################################

data_BOGNES
_symmetry_cell_setting           cubic
_symmetry_space_group_name_H-M   'F 2 3'
_symmetry_Int_Tables_number      196
_space_group_name_Hall           'F 2 2 3'
loop_
_symmetry_equiv_pos_site_id
_symmetry_equiv_pos_as_xyz
1 x,y,z
2 -x,-y,z
3 -x,y,-z
4 x,-y,-z
5 z,x,y
6 z,-x,-y
7 -z,-x,y
8 -z,x,-y
9 y,z,x
10 -y,z,-x
11 y,-z,-x
12 -y,-z,x
13 x,1/2+y,1/2+z
14 -x,1/2-y,1/2+z
15 -x,1/2+y,1/2-z
16 x,1/2-y,1/2-z
17 z,1/2+x,1/2+y
18 z,1/2-x,1/2-y
19 -z,1/2-x,1/2+y
20 -z,1/2+x,1/2-y
21 y,1/2+z,1/2+x
22 -y,1/2+z,1/2-x
23 y,1/2-z,1/2-x
24 -y,1/2-z,1/2+x
25 1/2+x,y,1/2+z
26 1/2-x,-y,1/2+z
27 1/2-x,y,1/2-z
28 1/2+x,-y,1/2-z
29 1/2+z,x,1/2+y
30 1/2+z,-x,1/2-y
31 1/2-z,-x,1/2+y
32 1/2-z,x,1/2-y
33 1/2+y,z,1/2+x
34 1/2-y,z,1/2-x
35 1/2+y,-z,1/2-x
36 1/2-y,-z,1/2+x
37 1/2+x,1/2+y,z
38 1/2-x,1/2-y,z
39 1/2-x,1/2+y,-z
40 1/2+x,1/2-y,-z
41 1/2+z,1/2+x,y
42 1/2+z,1/2-x,-y
43 1/2-z,1/2-x,y
44 1/2-z,1/2+x,-y
45 1/2+y,1/2+z,x
46 1/2-y,1/2+z,-x
47 1/2+y,1/2-z,-x
48 1/2-y,1/2-z,x
_cell_length_a                   46.116(2)
_cell_length_b                   46.116(2)
_cell_length_c                   46.116(2)
_cell_angle_alpha                90
_cell_angle_beta                 90
_cell_angle_gamma                90
_cell_volume                     98074.2
loop_
_atom_site_label
_atom_site_type_symbol
_atom_site_fract_x
_atom_site_fract_y
_atom_site_fract_z
Zr1 Zr 0.0000 0.0000 -0.9463
O1 O -0.0291 0.0291 -0.9709
O2 O -0.0256 -0.0256 -0.9744
O3 O -0.0399 -0.0079 -0.9209
O4 O 0.0079 0.0399 -0.9202
C1 C -0.0645 -0.0101 -0.9356
C2 C -0.0913(13) -0.0155(15) -0.9225(7)
C3 C -0.0858(8) -0.0412(13) -0.9079(14)
C4 C -0.1160(17) 0.0005(6) -0.9161(11)
C5 C -0.1050(17) -0.0510(6) -0.8868(11)
C6 C -0.1352(7) -0.0093(14) -0.8950(15)
C7 C -0.1297(13) -0.0350(15) -0.8804(8)
C8 C -0.1551(13) -0.0319(16) -0.8525(15)
C9 C -0.1762(13) -0.0422(15) -0.8363(14)
C10 C -0.1991(6) -0.0509(7) -0.8135(5)
C11 C -0.2198(8) -0.0291(6) -0.8114(7)
C12 C -0.1986(4) -0.0733(5) -0.7934(4)
C13 C -0.2400(6) -0.0297(6) -0.7890(9)
C14 C -0.2189(4) -0.0738(6) -0.7710(4)
C15 C -0.1779(5) -0.0951(7) -0.7955(7)
C16 C -0.2396(4) -0.0520(8) -0.7688(7)
P1 P -0.2724 -0.0037 -0.7796
C17 C -0.2184(7) -0.0962(8) -0.7508(5)
C18 C -0.1775(7) -0.1174(6) -0.7753(9)
C19 C -0.2738 0.0297 -0.8076
C20 C -0.2948 -0.0351 -0.7972
C21 C -0.1977(9) -0.1180(6) -0.7530(8)
C22 C -0.2547 0.0529 -0.8085
C23 C -0.2918 0.0240 -0.8311
C24 C -0.3218 -0.0361 -0.7837
C25 C -0.2903 -0.0502 -0.8228
C26 C -0.2534 0.0705 -0.8330
C27 C -0.2906 0.0415 -0.8556
C28 C -0.3442 -0.0522 -0.7959
C29 C -0.3126 -0.0663 -0.8350
C30 C -0.2714 0.0648 -0.8565
C31 C -0.3396 -0.0673 -0.8216
O1A O 0.0291 -0.0291 -0.9709
O2A O 0.0256 0.0256 -0.9744
O4A O -0.0079 -0.0399 -0.9202
O3A O 0.0399 0.0079 -0.9209
Zr1F Zr -0.0537 0.0000 -1.0000
Zr1H Zr 0.0000 0.0537 -1.0000
Zr1J Zr 0.0000 -0.0537 -1.0000
Zr1D Zr 0.0537 0.0000 -1.0000
O4F O -0.0798 -0.0079 -0.9601
O3F O -0.0791 0.0399 -1.0079
O3G O -0.0791 -0.0399 -0.9921
O1C O -0.0291 -0.0291 -1.0291
O2C O -0.0256 0.0256 -1.0256
O4G O -0.0798 0.0079 -1.0399
O4I O -0.0399 0.0798 -1.0079
O1B O 0.0291 0.0291 -1.0291
O4K O -0.0399 -0.0798 -0.9921
O2B O 0.0256 -0.0256 -1.0256
O4D O 0.0798 0.0079 -0.9601
O4E O 0.0798 -0.0079 -1.0399
O3D O 0.0791 -0.0399 -1.0079
O3E O 0.0791 0.0399 -0.9921
C1F C -0.0644 0.0645 -1.0101
C1G C -0.0644 -0.0645 -0.9899
C2F C -0.0775(7) 0.0913(13) -1.0155(15)
C2G C -0.0775(7) -0.0913(13) -0.9845(15)
C3F C -0.0921(14) 0.0858(8) -1.0412(13)
C4F C -0.0839(11) 0.1160(17) -0.9995(6)
C3G C -0.0921(14) -0.0858(8) -0.9588(13)
C4G C -0.0839(11) -0.1160(17) -1.0005(6)
C5F C -0.1132(11) 0.1050(17) -1.0510(6)
C6F C -0.1050(15) 0.1352(7) -1.0093(14)
C5G C -0.1132(11) -0.1050(17) -0.9490(6)
C6G C -0.1050(15) -0.1352(7) -0.9907(14)
C7F C -0.1196(8) 0.1297(13) -1.0350(15)
C7G C -0.1196(8) -0.1297(13) -0.9650(15)
C8F C -0.1475(15) 0.1551(13) -1.0319(16)
C8G C -0.1475(15) -0.1551(13) -0.9681(16)
C9F C -0.1637(14) 0.1762(13) -1.0422(15)
C9G C -0.1637(14) -0.1762(13) -0.9578(15)
C10F C -0.1865(5) 0.1991(6) -1.0509(7)
C10G C -0.1865(5) -0.1991(6) -0.9491(7)
C11F C -0.1886(7) 0.2198(8) -1.0291(6)
C12F C -0.2066(4) 0.1986(4) -1.0733(5)
C11G C -0.1886(7) -0.2198(8) -0.9709(6)
C12G C -0.2066(4) -0.1986(4) -0.9267(5)
C13F C -0.2110(9) 0.2400(6) -1.0297(6)
C14F C -0.2290(4) 0.2189(4) -1.0738(6)
C15F C -0.2045(7) 0.1779(5) -1.0951(7)
C13G C -0.2110(9) -0.2400(6) -0.9703(6)
C14G C -0.2290(4) -0.2189(4) -0.9262(6)
C15G C -0.2045(7) -0.1779(5) -0.9049(7)
C16Z C -0.2604(4) -0.0520(8) -0.7312(7)
C16F C -0.2312(7) 0.2396(4) -1.0520(8)
P1F P -0.2204 0.2724 -1.0037
C17F C -0.2492(5) 0.2184(7) -1.0962(8)
C18F C -0.2247(9) 0.1775(7) -1.1174(6)
C16G C -0.2312(7) -0.2396(4) -0.9480(8)
P1G P -0.2204 -0.2724 -0.9963
C17G C -0.2492(5) -0.2184(7) -0.9038(8)
C18G C -0.2247(9) -0.1775(7) -0.8826(6)
C13Z C -0.2600(6) -0.0297(6) -0.7110(9)
C14Z C -0.2811(4) -0.0738(6) -0.7290(4)
C16NA C -0.2688(7) 0.2604(4) -1.0520(8)
C19F C -0.1924 0.2738 -0.9703
C20F C -0.2028 0.2948 -1.0351
C21F C -0.2470(8) 0.1977(9) -1.1180(6)
C16OA C -0.2688(7) -0.2604(4) -0.9480(8)
C19G C -0.1924 -0.2738 -1.0297
C20G C -0.2028 -0.2948 -0.9649
C21G C -0.2470(8) -0.1977(9) -0.8820(6)
C11Z C -0.2802(8) -0.0291(6) -0.6886(7)
P1Z P -0.2276 -0.0037 -0.7204
C12Z C -0.3014(4) -0.0733(5) -0.7066(4)
C17Z C -0.2816(7) -0.0962(8) -0.7492(5)
C13NA C -0.2890(9) 0.2600(6) -1.0297(6)
C14NA C -0.2710(4) 0.2811(4) -1.0738(6)
C22F C -0.1915 0.2547 -0.9471
C23F C -0.1689 0.2918 -0.9760
C24F C -0.2163 0.3218 -1.0361
C25F C -0.1772 0.2903 -1.0502
C13OA C -0.2890(9) -0.2600(6) -0.9703(6)
C14OA C -0.2710(4) -0.2811(4) -0.9262(6)
C22G C -0.1915 -0.2547 -1.0529
C23G C -0.1689 -0.2918 -1.0240
C24G C -0.2163 -0.3218 -0.9639
C25G C -0.1772 -0.2903 -0.9498
C10Z C -0.3009(6) -0.0509(7) -0.6865(5)
C19Z C -0.2262 0.0297 -0.6924
C20Z C -0.2052 -0.0351 -0.7028
C15Z C -0.3221(5) -0.0951(7) -0.7045(7)
C21Z C -0.3023(9) -0.1180(6) -0.7470(8)
C11NA C -0.3114(7) 0.2802(8) -1.0291(6)
P1NA P -0.2796 0.2276 -1.0037
C12NA C -0.2934(4) 0.3014(4) -1.0733(5)
C17NA C -0.2508(5) 0.2816(7) -1.0962(8)
C26F C -0.1670 0.2534 -0.9295
C27F C -0.1444 0.2906 -0.9585
C28F C -0.2041 0.3442 -1.0522
C29F C -0.1650 0.3126 -1.0663
C11OA C -0.3114(7) -0.2802(8) -0.9709(6)
P1OA P -0.2796 -0.2276 -0.9963
C12OA C -0.2934(4) -0.3014(4) -0.9267(5)
C17OA C -0.2508(5) -0.2816(7) -0.9038(8)
C26G C -0.1670 -0.2534 -1.0705
C27G C -0.1444 -0.2906 -1.0415
C28G C -0.2041 -0.3442 -0.9478
C29G C -0.1650 -0.3126 -0.9337
C9Z C -0.3238(13) -0.0422(15) -0.6637(14)
C22Z C -0.2453 0.0529 -0.6915
C23Z C -0.2082 0.0240 -0.6689
C24Z C -0.1782 -0.0361 -0.7163
C25Z C -0.2097 -0.0502 -0.6772
C18Z C -0.3225(7) -0.1174(6) -0.7247(9)
C10NA C -0.3135(5) 0.3009(6) -1.0509(7)
C19NA C -0.3076 0.2262 -0.9703
C20NA C -0.2972 0.2052 -1.0351
C15NA C -0.2955(7) 0.3221(5) -1.0951(7)
C21NA C -0.2530(8) 0.3023(9) -1.1180(6)
C30F C -0.1435 0.2714 -0.9352
C31F C -0.1784 0.3396 -1.0673
C10OA C -0.3135(5) -0.3009(6) -0.9491(7)
C19OA C -0.3076 -0.2262 -1.0297
C20OA C -0.2972 -0.2052 -0.9649
C15OA C -0.2955(7) -0.3221(5) -0.9049(7)
C21OA C -0.2530(8) -0.3023(9) -0.8820(6)
C30G C -0.1435 -0.2714 -1.0648
C31G C -0.1784 -0.3396 -0.9327
C8Z C -0.3449(13) -0.0319(16) -0.6475(15)
C26Z C -0.2466 0.0705 -0.6670
C27Z C -0.2094 0.0415 -0.6444
C28Z C -0.1558 -0.0522 -0.7041
C29Z C -0.1874 -0.0663 -0.6650
C9NA C -0.3363(14) 0.3238(13) -1.0422(15)
C22NA C -0.3085 0.2453 -0.9471
C23NA C -0.3311 0.2082 -0.9760
C24NA C -0.2837 0.1782 -1.0361
C25NA C -0.3228 0.2097 -1.0502
C18NA C -0.2753(9) 0.3225(7) -1.1174(6)
C9OA C -0.3363(14) -0.3238(13) -0.9578(15)
C22OA C -0.3085 -0.2453 -1.0529
C23OA C -0.3311 -0.2082 -1.0240
C24OA C -0.2837 -0.1782 -0.9639
C25OA C -0.3228 -0.2097 -0.9498
C18OA C -0.2753(9) -0.3225(7) -0.8826(6)
C7Z C -0.3703(13) -0.0350(15) -0.6196(8)
C30Z C -0.2286 0.0648 -0.6435
C31Z C -0.1604 -0.0673 -0.6784
C8NA C -0.3525(15) 0.3449(13) -1.0319(16)
C26NA C -0.3330 0.2466 -0.9295
C27NA C -0.3556 0.2094 -0.9585
C28NA C -0.2959 0.1558 -1.0522
C29NA C -0.3350 0.1874 -1.0663
C8OA C -0.3525(15) -0.3449(13) -0.9681(16)
C26OA C -0.3330 -0.2466 -1.0705
C27OA C -0.3556 -0.2094 -1.0415
C28OA C -0.2959 -0.1558 -0.9478
C29OA C -0.3350 -0.1874 -0.9337
C5Z C -0.3950(17) -0.0510(6) -0.6132(11)
C6Z C -0.3648(7) -0.0093(14) -0.6050(15)
C7NA C -0.3804(8) 0.3703(13) -1.0350(15)
C30NA C -0.3565 0.2286 -0.9352
C31NA C -0.3216 0.1604 -1.0673
C7OA C -0.3804(8) -0.3703(13) -0.9650(15)
C30OA C -0.3565 -0.2286 -1.0648
C31OA C -0.3216 -0.1604 -0.9327
C3Z C -0.4142(8) -0.0412(13) -0.5921(14)
C4Z C -0.3840(17) 0.0005(6) -0.5839(11)
C5NA C -0.3868(11) 0.3950(17) -1.0510(6)
C6NA C -0.3950(15) 0.3648(7) -1.0093(14)
C5OA C -0.3868(11) -0.3950(17) -0.9490(6)
C6OA C -0.3950(15) -0.3648(7) -0.9907(14)
C2Z C -0.4087(13) -0.0155(15) -0.5775(7)
C3NA C -0.4079(14) 0.4142(8) -1.0412(13)
C4NA C -0.4161(11) 0.3840(17) -0.9995(6)
C3OA C -0.4079(14) -0.4142(8) -0.9588(13)
C4OA C -0.4161(11) -0.3840(17) -1.0005(6)
C1Z C -0.4355 -0.0101 -0.5644
C2NA C -0.4225(7) 0.4087(13) -1.0155(15)
C2OA C -0.4225(7) -0.4087(13) -0.9845(15)
O4CA O -0.4202 -0.0079 -0.5399
O3Z O -0.4601 -0.0079 -0.5791
C1NA C -0.4356 0.4355 -1.0101
C1OA C -0.4356 -0.4355 -0.9899
Zr1BA Zr -0.4463 0.0000 -0.5000
Zr1Z Zr -0.5000 0.0000 -0.5537
O4TA O -0.4601 0.4202 -1.0079
O3NA O -0.4209 0.4601 -1.0079
O4RA O -0.4601 -0.4202 -0.9921
O3OA O -0.4209 -0.4601 -0.9921
Zr1TA Zr -0.5000 0.4463 -1.0000
Zr1NA Zr -0.4463 0.5000 -1.0000
Zr1RA Zr -0.5000 -0.4463 -1.0000
Zr1NA_2 Zr -0.4463 -0.5000 -1.0000
loop_
_geom_bond_atom_site_label_1
_geom_bond_atom_site_label_2
_geom_bond_site_symmetry_1
_geom_bond_site_symmetry_2
Zr1 O1 1_555 1_555
O1 Zr1F 1_555 1_555
O2 Zr1 1_555 1_555
O3 Zr1 1_555 1_555
O4 Zr1 1_555 1_555
C1 O3 1_555 1_555
C2 C1 1_555 1_555
C3 C2 1_555 1_555
C4 C2 1_555 1_555
C5 C3 1_555 1_555
C6 C4 1_555 1_555
C7 C5 1_555 1_555
C8 C7 1_555 1_555
C9 C8 1_555 1_555
C10 C9 1_555 1_555
C11 C10 1_555 1_555
C12 C10 1_555 1_555
C13 C11 1_555 1_555
C14 C12 1_555 1_555
C15 C12 1_555 1_555
C16 C13 1_555 1_555
P1 C13 1_555 1_555
C17 C14 1_555 1_555
C18 C15 1_555 1_555
C19 P1 1_555 1_555
C20 P1 1_555 1_555
C21 C17 1_555 1_555
C22 C19 1_555 1_555
C23 C19 1_555 1_555
C24 C20 1_555 1_555
C25 C20 1_555 1_555
C26 C22 1_555 1_555
C27 C23 1_555 1_555
C28 C24 1_555 1_555
C29 C25 1_555 1_555
C30 C26 1_555 1_555
C31 C28 1_555 1_555
O1A Zr1 1_555 1_555
O2A Zr1 1_555 1_555
O4A Zr1 1_555 1_555
O3A Zr1 1_555 1_555
Zr1F O2 1_555 1_555
Zr1H O1 1_555 1_555
Zr1J O2 1_555 1_555
Zr1D O1A 1_555 1_555
O4F C1 1_555 1_555
O3F Zr1F 1_555 1_555
O3G Zr1F 1_555 1_555
O1C Zr1F 1_555 1_555
O2C Zr1F 1_555 1_555
O4G Zr1F 1_555 1_555
O4I Zr1H 1_555 1_555
O1B Zr1H 1_555 1_555
O4K Zr1J 1_555 1_555
O2B Zr1J 1_555 1_555
O4D Zr1D 1_555 1_555
O4E Zr1D 1_555 1_555
O3D Zr1D 1_555 1_555
O3E Zr1D 1_555 1_555
C1F O3F 1_555 1_555
C1G O3G 1_555 1_555
C2F C1F 1_555 1_555
C2G C1G 1_555 1_555
C3F C2F 1_555 1_555
C4F C2F 1_555 1_555
C3G C2G 1_555 1_555
C4G C2G 1_555 1_555
C5F C3F 1_555 1_555
C6F C4F 1_555 1_555
C5G C3G 1_555 1_555
C6G C4G 1_555 1_555
C7F C5F 1_555 1_555
C7G C5G 1_555 1_555
C8F C7F 1_555 1_555
C8G C7G 1_555 1_555
C9F C8F 1_555 1_555
C9G C8G 1_555 1_555
C10F C9F 1_555 1_555
C10G C9G 1_555 1_555
C11F C10F 1_555 1_555
C12F C10F 1_555 1_555
C11G C10G 1_555 1_555
C12G C10G 1_555 1_555
C13F C11F 1_555 1_555
C14F C12F 1_555 1_555
C15F C12F 1_555 1_555
C13G C11G 1_555 1_555
C14G C12G 1_555 1_555
C15G C12G 1_555 1_555
C16Z C16 1_555 1_555
C16F C13F 1_555 1_555
P1F C13F 1_555 1_555
C17F C14F 1_555 1_555
C18F C15F 1_555 1_555
C16G C13G 1_555 1_555
P1G C13G 1_555 1_555
C17G C14G 1_555 1_555
C18G C15G 1_555 1_555
C13Z C16Z 1_555 1_555
C14Z C16Z 1_555 1_555
C16NA C16F 1_555 1_555
C19F P1F 1_555 1_555
C20F P1F 1_555 1_555
C21F C17F 1_555 1_555
C16OA C16G 1_555 1_555
C19G P1G 1_555 1_555
C20G P1G 1_555 1_555
C21G C17G 1_555 1_555
C11Z C13Z 1_555 1_555
P1Z C13Z 1_555 1_555
C12Z C14Z 1_555 1_555
C17Z C14Z 1_555 1_555
C13NA C16NA 1_555 1_555
C14NA C16NA 1_555 1_555
C22F C19F 1_555 1_555
C23F C19F 1_555 1_555
C24F C20F 1_555 1_555
C25F C20F 1_555 1_555
C13OA C16OA 1_555 1_555
C14OA C16OA 1_555 1_555
C22G C19G 1_555 1_555
C23G C19G 1_555 1_555
C24G C20G 1_555 1_555
C25G C20G 1_555 1_555
C10Z C11Z 1_555 1_555
C19Z P1Z 1_555 1_555
C20Z P1Z 1_555 1_555
C15Z C12Z 1_555 1_555
C21Z C17Z 1_555 1_555
C11NA C13NA 1_555 1_555
P1NA C13NA 1_555 1_555
C12NA C14NA 1_555 1_555
C17NA C14NA 1_555 1_555
C26F C22F 1_555 1_555
C27F C23F 1_555 1_555
C28F C24F 1_555 1_555
C29F C25F 1_555 1_555
C11OA C13OA 1_555 1_555
P1OA C13OA 1_555 1_555
C12OA C14OA 1_555 1_555
C17OA C14OA 1_555 1_555
C26G C22G 1_555 1_555
C27G C23G 1_555 1_555
C28G C24G 1_555 1_555
C29G C25G 1_555 1_555
C9Z C10Z 1_555 1_555
C22Z C19Z 1_555 1_555
C23Z C19Z 1_555 1_555
C24Z C20Z 1_555 1_555
C25Z C20Z 1_555 1_555
C18Z C15Z 1_555 1_555
C10NA C11NA 1_555 1_555
C19NA P1NA 1_555 1_555
C20NA P1NA 1_555 1_555
C15NA C12NA 1_555 1_555
C21NA C17NA 1_555 1_555
C30F C26F 1_555 1_555
C31F C28F 1_555 1_555
C10OA C11OA 1_555 1_555
C19OA P1OA 1_555 1_555
C20OA P1OA 1_555 1_555
C15OA C12OA 1_555 1_555
C21OA C17OA 1_555 1_555
C30G C26G 1_555 1_555
C31G C28G 1_555 1_555
C8Z C9Z 1_555 1_555
C26Z C22Z 1_555 1_555
C27Z C23Z 1_555 1_555
C28Z C24Z 1_555 1_555
C29Z C25Z 1_555 1_555
C9NA C10NA 1_555 1_555
C22NA C19NA 1_555 1_555
C23NA C19NA 1_555 1_555
C24NA C20NA 1_555 1_555
C25NA C20NA 1_555 1_555
C18NA C15NA 1_555 1_555
C9OA C10OA 1_555 1_555
C22OA C19OA 1_555 1_555
C23OA C19OA 1_555 1_555
C24OA C20OA 1_555 1_555
C25OA C20OA 1_555 1_555
C18OA C15OA 1_555 1_555
C7Z C8Z 1_555 1_555
C30Z C26Z 1_555 1_555
C31Z C28Z 1_555 1_555
C8NA C9NA 1_555 1_555
C26NA C22NA 1_555 1_555
C27NA C23NA 1_555 1_555
C28NA C24NA 1_555 1_555
C29NA C25NA 1_555 1_555
C8OA C9OA 1_555 1_555
C26OA C22OA 1_555 1_555
C27OA C23OA 1_555 1_555
C28OA C24OA 1_555 1_555
C29OA C25OA 1_555 1_555
C5Z C7Z 1_555 1_555
C6Z C7Z 1_555 1_555
C7NA C8NA 1_555 1_555
C30NA C26NA 1_555 1_555
C31NA C28NA 1_555 1_555
C7OA C8OA 1_555 1_555
C30OA C26OA 1_555 1_555
C31OA C28OA 1_555 1_555
C3Z C5Z 1_555 1_555
C4Z C6Z 1_555 1_555
C5NA C7NA 1_555 1_555
C6NA C7NA 1_555 1_555
C5OA C7OA 1_555 1_555
C6OA C7OA 1_555 1_555
C2Z C3Z 1_555 1_555
C3NA C5NA 1_555 1_555
C4NA C6NA 1_555 1_555
C3OA C5OA 1_555 1_555
C4OA C6OA 1_555 1_555
C1Z C2Z 1_555 1_555
C2NA C3NA 1_555 1_555
C2OA C3OA 1_555 1_555
O4CA C1Z 1_555 1_555
O3Z C1Z 1_555 1_555
C1NA C2NA 1_555 1_555
C1OA C2OA 1_555 1_555
Zr1BA O4CA 1_555 1_555
Zr1Z O3Z 1_555 1_555
O4TA C1NA 1_555 1_555
O3NA C1NA 1_555 1_555
O4RA C1OA 1_555 1_555
O3OA C1OA 1_555 1_555
Zr1TA O4TA 1_555 1_555
Zr1NA O3NA 1_555 1_555
Zr1RA O4RA 1_555 1_555
Zr1NA_2 O3OA 1_555 1_555
C6 C7 1_555 1_555
C14 C16 1_555 1_555
C18 C21 1_555 1_555
C27 C30 1_555 1_555
C29 C31 1_555 1_555
O1A Zr1J 1_555 1_555
O2A Zr1H 1_555 1_555
O2A Zr1D 1_555 1_555
Zr1F O4F 1_555 1_555
Zr1H O2C 1_555 1_555
Zr1J O1C 1_555 1_555
Zr1D O1B 1_555 1_555
Zr1D O2B 1_555 1_555
O4I C1F 1_555 1_555
O4K C1G 1_555 1_555
C6F C7F 1_555 1_555
C6G C7G 1_555 1_555
C14F C16F 1_555 1_555
C14G C16G 1_555 1_555
C18F C21F 1_555 1_555
C18G C21G 1_555 1_555
C12Z C10Z 1_555 1_555
C21Z C18Z 1_555 1_555
C12NA C10NA 1_555 1_555
C27F C30F 1_555 1_555
C29F C31F 1_555 1_555
C12OA C10OA 1_555 1_555
C27G C30G 1_555 1_555
C29G C31G 1_555 1_555
C21NA C18NA 1_555 1_555
C21OA C18OA 1_555 1_555
C27Z C30Z 1_555 1_555
C29Z C31Z 1_555 1_555
C27NA C30NA 1_555 1_555
C29NA C31NA 1_555 1_555
C27OA C30OA 1_555 1_555
C29OA C31OA 1_555 1_555
C4Z C2Z 1_555 1_555
C4NA C2NA 1_555 1_555
C4OA C2OA 1_555 1_555

#END
