
#######################################################################
#
#                 Cambridge Crystallographic Data Centre
#                                CCDC 
#
#######################################################################
#
# If this CIF has been generated from an entry in the Cambridge 
# Structural Database, then it will include bibliographic, chemical, 
# crystal, experimental, refinement or atomic coordinate data resulting 
# from the CCDC's data processing and validation procedures.
#
#######################################################################

data_BOHJAK
_symmetry_cell_setting           cubic
_symmetry_space_group_name_H-M   'P 21 3'
_symmetry_Int_Tables_number      198
_space_group_name_Hall           'P 2ac 2ab 3'
loop_
_symmetry_equiv_pos_site_id
_symmetry_equiv_pos_as_xyz
1 x,y,z
2 1/2-x,-y,1/2+z
3 -x,1/2+y,1/2-z
4 1/2+x,1/2-y,-z
5 z,x,y
6 1/2+z,1/2-x,-y
7 1/2-z,-x,1/2+y
8 -z,1/2+x,1/2-y
9 y,z,x
10 -y,1/2+z,1/2-x
11 1/2+y,1/2-z,-x
12 1/2-y,-z,1/2+x
_cell_length_a                   15.0093(9)
_cell_length_b                   15.0093(9)
_cell_length_c                   15.0093(9)
_cell_angle_alpha                90
_cell_angle_beta                 90
_cell_angle_gamma                90
_cell_volume                     3381.28
loop_
_atom_site_label
_atom_site_type_symbol
_atom_site_fract_x
_atom_site_fract_y
_atom_site_fract_z
K1 K 0.76012(5) 1.26012(5) 0.23988(5)
Al1 Al 0.66418(6) 0.83582(6) 0.16418(6)
O1 O 0.68416(15) 0.95713(14) 0.14179(15)
O2 O 0.7136(2) 1.08905(15) 0.20126(18)
O3 O 0.71322(14) 0.86722(13) 0.27592(15)
H1 H 0.7236 0.8293 0.3144
O4 O 0.70350(19) 0.85044(17) 0.4461(2)
H2 H 0.7229 0.8199 0.4871
O5 O 0.8702(2) 0.88220(19) 0.5268(2)
H3 H 0.8435 0.8346 0.5243
O6 O 0.9753(2) 0.9142(2) 0.37470(16)
H4 H 0.9915 0.9635 0.3577
O8 O 0.8642(9) 1.2306(9) 0.0868(7)
C1 C 0.7112(2) 1.0073(2) 0.2056(2)
C2 C 0.74110(19) 0.9572(2) 0.2885(2)
C3 C 0.7033(2) 0.9936(2) 0.3755(2)
H5 H 0.7206 1.0555 0.3824
H6 H 0.6387 0.9909 0.3739
C4 C 0.7374(2) 0.9400(2) 0.4540(3)
H7 H 0.7139 0.9663 0.5090
C5 C 0.8382(2) 0.9400(2) 0.4589(3)
H8 H 0.8586 1.0007 0.4716
C6 C 0.8804(2) 0.9088(2) 0.3706(2)
H9 H 0.8643 0.8462 0.3619
C7 C 0.8441(2) 0.9612(2) 0.2920(2)
H10 H 0.8683 0.9371 0.2372
H11 H 0.8629 1.0228 0.2968
Al1A Al 0.83582(6) 1.16418(6) 0.66418(6)
Al1B Al 0.33582(6) 1.33582(6) 0.33582(6)
O1G O 0.85821(15) 1.18416(15) 0.54287(14)
O1J O 0.45713(14) 1.35821(15) 0.31584(15)
O1E O 0.64179(15) 0.81584(15) 0.04287(14)
O1K O 0.54287(14) 0.85821(15) 0.18416(15)
O2G O 0.79874(18) 1.2136(2) 0.41095(15)
O2J O 0.58905(15) 1.29874(18) 0.2864(2)
O3G O 0.72408(15) 1.21322(14) 0.63278(13)
O3J O 0.36722(13) 1.22408(15) 0.28678(14)
O3E O 0.77592(15) 0.78678(14) 0.13278(13)
O3K O 0.63278(13) 0.72408(15) 0.21322(14)
H1G H 0.6856 1.2236 0.6707
H1J H 0.3293 1.1856 0.2764
H1E H 0.8144 0.7764 0.1707
H1K H 0.6707 0.6856 0.2236
O4G O 0.5539(2) 1.20350(19) 0.64956(17)
O4J O 0.35044(17) 1.0539(2) 0.29650(19)
H2G H 0.5129 1.2229 0.6801
H2J H 0.3199 1.0129 0.2771
O5G O 0.4732(2) 1.3702(2) 0.61780(19)
O5J O 0.38220(19) 0.9732(2) 0.1298(2)
H3G H 0.4757 1.3435 0.6654
H3J H 0.3346 0.9757 0.1565
O6G O 0.62530(16) 1.4753(2) 0.5858(2)
O6J O 0.4142(2) 1.12530(16) 0.0247(2)
H4G H 0.6423 1.4915 0.5365
H4J H 0.4635 1.1423 0.0085
O8G O 0.9132(7) 1.3642(9) 0.2694(9)
O8J O 0.7306(9) 1.4132(7) 0.1358(9)
C1G C 0.7944(2) 1.2112(2) 0.4927(2)
C1J C 0.5073(2) 1.2944(2) 0.2888(2)
C2G C 0.7115(2) 1.24110(19) 0.5428(2)
C2J C 0.4572(2) 1.2115(2) 0.25890(19)
C3G C 0.6245(2) 1.2033(2) 0.5064(2)
C3J C 0.4936(2) 1.1245(2) 0.2967(2)
H5G H 0.6176 1.2206 0.4445
H5J H 0.5555 1.1176 0.2794
H6G H 0.6261 1.1387 0.5091
H6J H 0.4909 1.1261 0.3613
C4G C 0.5460(3) 1.2374(2) 0.5600(2)
C4J C 0.4400(2) 1.0460(3) 0.2626(2)
H7G H 0.4910 1.2139 0.5337
H7J H 0.4663 0.9910 0.2861
C5G C 0.5411(3) 1.3382(2) 0.5600(2)
C5J C 0.4400(2) 1.0411(3) 0.1618(2)
H8G H 0.5284 1.3586 0.4993
H8J H 0.5007 1.0284 0.1414
C6G C 0.6294(2) 1.3804(2) 0.5912(2)
C6J C 0.4088(2) 1.1294(2) 0.1196(2)
H9G H 0.6381 1.3643 0.6538
H9J H 0.3462 1.1381 0.1357
C7G C 0.7080(2) 1.3441(2) 0.5388(2)
C7J C 0.4612(2) 1.2080(2) 0.1559(2)
H10G H 0.7628 1.3683 0.5629
H10J H 0.4371 1.2628 0.1317
H11G H 0.7032 1.3629 0.4772
H11J H 0.5228 1.2032 0.1371
O7 O 0.7571(4) 1.2973(3) 0.0544(3)
O9 O 0.6273(11) 0.4361(16) 0.0399(9)
loop_
_geom_bond_atom_site_label_1
_geom_bond_atom_site_label_2
_geom_bond_site_symmetry_1
_geom_bond_site_symmetry_2
K1 O2 1_555 1_555
Al1 O1 1_555 1_555
O1 C1 1_555 1_555
O2 C1 1_555 1_555
O3 Al1 1_555 1_555
H1 O3 1_555 1_555
O4 H2 1_555 1_555
O5 H3 1_555 1_555
O6 H4 1_555 1_555
O8 K1 1_555 1_555
C1 C2 1_555 1_555
C2 O3 1_555 1_555
C3 C2 1_555 1_555
H5 C3 1_555 1_555
H6 C3 1_555 1_555
C4 O4 1_555 1_555
H7 C4 1_555 1_555
C5 O5 1_555 1_555
H8 C5 1_555 1_555
C6 O6 1_555 1_555
H9 C6 1_555 1_555
C7 C2 1_555 1_555
H10 C7 1_555 1_555
H11 C7 1_555 1_555
Al1A O1G 1_555 1_555
Al1B O1J 1_555 1_555
O1G C1G 1_555 1_555
O1J C1J 1_555 1_555
O1E Al1 1_555 1_555
O1K Al1 1_555 1_555
O2G K1 1_555 1_555
O2J K1 1_555 1_555
O3G Al1A 1_555 1_555
O3J Al1B 1_555 1_555
O3E Al1 1_555 1_555
O3K Al1 1_555 1_555
H1G O3G 1_555 1_555
H1J O3J 1_555 1_555
H1E O3E 1_555 1_555
H1K O3K 1_555 1_555
O4G H2G 1_555 1_555
O4J H2J 1_555 1_555
O5G H3G 1_555 1_555
O5J H3J 1_555 1_555
O6G H4G 1_555 1_555
O6J H4J 1_555 1_555
O8G K1 1_555 1_555
O8J K1 1_555 1_555
C1G O2G 1_555 1_555
C1J O2J 1_555 1_555
C2G O3G 1_555 1_555
C2J O3J 1_555 1_555
C3G C2G 1_555 1_555
C3J C2J 1_555 1_555
H5G C3G 1_555 1_555
H5J C3J 1_555 1_555
H6G C3G 1_555 1_555
H6J C3J 1_555 1_555
C4G O4G 1_555 1_555
C4J O4J 1_555 1_555
H7G C4G 1_555 1_555
H7J C4J 1_555 1_555
C5G O5G 1_555 1_555
C5J O5J 1_555 1_555
H8G C5G 1_555 1_555
H8J C5J 1_555 1_555
C6G O6G 1_555 1_555
C6J O6J 1_555 1_555
H9G C6G 1_555 1_555
H9J C6J 1_555 1_555
C7G C2G 1_555 1_555
C7J C2J 1_555 1_555
H10G C7G 1_555 1_555
H10J C7J 1_555 1_555
H11G C7G 1_555 1_555
H11J C7J 1_555 1_555
C3 C4 1_555 1_555
C4 C5 1_555 1_555
C5 C6 1_555 1_555
C6 C7 1_555 1_555
C1G C2G 1_555 1_555
C1J C2J 1_555 1_555
C3G C4G 1_555 1_555
C3J C4J 1_555 1_555
C4G C5G 1_555 1_555
C4J C5J 1_555 1_555
C5G C6G 1_555 1_555
C5J C6J 1_555 1_555
C6G C7G 1_555 1_555
C6J C7J 1_555 1_555

#END
