
#######################################################################
#
#                 Cambridge Crystallographic Data Centre
#                                CCDC 
#
#######################################################################
#
# If this CIF has been generated from an entry in the Cambridge 
# Structural Database, then it will include bibliographic, chemical, 
# crystal, experimental, refinement or atomic coordinate data resulting 
# from the CCDC's data processing and validation procedures.
#
#######################################################################

data_BOHPAQ
_symmetry_cell_setting           triclinic
_symmetry_space_group_name_H-M   'P -1'
_symmetry_Int_Tables_number      2
_space_group_name_Hall           '-P 1'
loop_
_symmetry_equiv_pos_site_id
_symmetry_equiv_pos_as_xyz
1 x,y,z
2 -x,-y,-z
_cell_length_a                   10.278(1)
_cell_length_b                   10.969(1)
_cell_length_c                   11.716(1)
_cell_angle_alpha                111.56(1)
_cell_angle_beta                 110.70(1)
_cell_angle_gamma                101.12(1)
_cell_volume                     1067.13
loop_
_atom_site_label
_atom_site_type_symbol
_atom_site_fract_x
_atom_site_fract_y
_atom_site_fract_z
Cu1 Cu 0.31761(2) 0.26657(2) 0.44497(2)
Cu2 Cu 0.32197(2) -0.01366(2) 0.27057(2)
O1 O 0.1835(1) 0.0875(1) 0.2727(1)
O2 O 0.2065(2) 0.3579(1) 0.7766(1)
O3 O 0.1936(1) -0.4551(1) 0.1467(1)
N1 N 0.4551(2) 0.1892(2) 0.3813(2)
N2 N 0.5805(2) 0.2360(2) 0.4015(1)
N3 N 0.7004(2) 0.2770(2) 0.4207(2)
N4 N 0.4831(2) 0.4148(2) 0.6232(2)
N5 N 0.5854(2) 0.4970(2) 0.6324(1)
N6 N 0.6888(2) 0.5777(2) 0.6475(2)
N7 N 0.4938(2) -0.0707(2) 0.2893(2)
N8 N 0.5884(2) -0.0315(2) 0.4039(2)
N9 N 0.6839(2) 0.0044(2) 0.5127(2)
N10 N 0.1422(2) 0.2831(1) 0.4918(1)
N11 N 0.1601(1) -0.2066(1) 0.1232(1)
C1 C 0.1693(2) 0.4272(2) 0.5962(2)
C2 C 0.2663(2) 0.4619(2) 0.7444(2)
C3 C 0.1996(2) 0.2254(2) 0.6855(2)
C4 C 0.0926(2) 0.1793(2) 0.5362(2)
C5 C 0.0153(2) 0.2530(2) 0.3580(2)
C6 C -0.0536(2) 0.1033(2) 0.2444(2)
C7 C 0.0320(2) 0.0309(2) 0.2017(2)
C8 C -0.0380(2) -0.1000(2) 0.0823(2)
C9 C -0.1943(2) -0.1609(2) 0.0108(2)
C10 C -0.2818(2) -0.0935(2) 0.0553(2)
C11 C -0.2105(2) 0.0380(2) 0.1711(2)
C12 C -0.4506(2) -0.1665(3) -0.0204(2)
C13 C 0.0509(2) -0.1733(2) 0.0252(2)
C14 C 0.2093(2) -0.3071(2) 0.0367(2)
C15 C 0.2854(2) -0.3857(2) 0.1048(2)
C16 C 0.1703(2) -0.3505(2) 0.2453(2)
C17 C 0.0802(2) -0.2797(2) 0.1782(2)
H1 H -0.495(3) -0.112(3) 0.014(3)
H2 H -0.481(4) -0.187(4) -0.108(3)
H3 H -0.476(3) -0.245(3) -0.004(3)
H4 H 0.0734 0.4329 0.5870
H5 H 0.2185 0.4963 0.5768
H6 H 0.3659 0.4663 0.7570
H7 H 0.2723 0.5527 0.8067
H8 H 0.1653 0.1551 0.7107
H9 H 0.2987 0.2335 0.6943
H10 H 0.0890 0.0881 0.4769
H11 H -0.0064 0.1716 0.5275
H12 H 0.0531 0.3128 0.3242
H13 H -0.0628 0.2772 0.3782
H14 H -0.2428 -0.2522 -0.0716
H15 H -0.2704 0.0866 0.2026
H16 H -0.0186 -0.2612 -0.0580
H17 H 0.1067 -0.1130 0.0016
H18 H 0.2790 -0.2538 0.0183
H19 H 0.1218 -0.3760 -0.0502
H20 H 0.3040 -0.4554 0.0393
H21 H 0.3798 -0.3189 0.1856
H22 H 0.2666 -0.2799 0.3204
H23 H 0.1165 -0.3948 0.2817
H24 H -0.0155 -0.3506 0.1025
H25 H 0.0638 -0.2108 0.2466
Cu1A Cu 0.68239(2) 0.73343(2) 0.55503(2)
Cu2A Cu 0.67803(2) 0.01366(2) 0.72943(2)
N6A N 0.3112(2) 0.4223(2) 0.3525(2)
N9A N 0.3161(2) -0.0044(2) 0.4873(2)
loop_
_geom_bond_atom_site_label_1
_geom_bond_atom_site_label_2
_geom_bond_site_symmetry_1
_geom_bond_site_symmetry_2
Cu1 O1 1_555 1_555
Cu2 O1 1_555 1_555
O1 C7 1_555 1_555
O2 C2 1_555 1_555
O3 C15 1_555 1_555
N1 Cu1 1_555 1_555
N2 N1 1_555 1_555
N3 N2 1_555 1_555
N4 Cu1 1_555 1_555
N5 N4 1_555 1_555
N6 N5 1_555 1_555
N7 Cu2 1_555 1_555
N8 N7 1_555 1_555
N9 N8 1_555 1_555
N10 Cu1 1_555 1_555
N11 Cu2 1_555 1_555
C1 N10 1_555 1_555
C2 C1 1_555 1_555
C3 O2 1_555 1_555
C4 N10 1_555 1_555
C5 N10 1_555 1_555
C6 C5 1_555 1_555
C7 C6 1_555 1_555
C8 C7 1_555 1_555
C9 C8 1_555 1_555
C10 C9 1_555 1_555
C11 C6 1_555 1_555
C12 C10 1_555 1_555
C13 N11 1_555 1_555
C14 N11 1_555 1_555
C15 C14 1_555 1_555
C16 O3 1_555 1_555
C17 N11 1_555 1_555
H1 C12 1_555 1_555
H2 C12 1_555 1_555
H3 C12 1_555 1_555
H4 C1 1_555 1_555
H5 C1 1_555 1_555
H6 C2 1_555 1_555
H7 C2 1_555 1_555
H8 C3 1_555 1_555
H9 C3 1_555 1_555
H10 C4 1_555 1_555
H11 C4 1_555 1_555
H12 C5 1_555 1_555
H13 C5 1_555 1_555
H14 C9 1_555 1_555
H15 C11 1_555 1_555
H16 C13 1_555 1_555
H17 C13 1_555 1_555
H18 C14 1_555 1_555
H19 C14 1_555 1_555
H20 C15 1_555 1_555
H21 C15 1_555 1_555
H22 C16 1_555 1_555
H23 C16 1_555 1_555
H24 C17 1_555 1_555
H25 C17 1_555 1_555
Cu1A N6 1_555 1_555
Cu2A N9 1_555 1_555
N6A Cu1 1_555 1_555
N9A Cu2 1_555 1_555
Cu2 N1 1_555 1_555
C3 C4 1_555 1_555
C8 C13 1_555 1_555
C10 C11 1_555 1_555
C16 C17 1_555 1_555

#END
