
#######################################################################
#
#                 Cambridge Crystallographic Data Centre
#                                CCDC 
#
#######################################################################
#
# If this CIF has been generated from an entry in the Cambridge 
# Structural Database, then it will include bibliographic, chemical, 
# crystal, experimental, refinement or atomic coordinate data resulting 
# from the CCDC's data processing and validation procedures.
#
#######################################################################

data_BOJKAM07
_symmetry_cell_setting           orthorhombic
_symmetry_space_group_name_H-M   'P 21 21 21'
_symmetry_Int_Tables_number      19
_space_group_name_Hall           'P 2ac 2ab'
loop_
_symmetry_equiv_pos_site_id
_symmetry_equiv_pos_as_xyz
1 x,y,z
2 1/2+x,1/2-y,-z
3 -x,1/2+y,1/2-z
4 1/2-x,-y,1/2+z
_cell_length_a                   10.6463(4)
_cell_length_b                   8.9865(2)
_cell_length_c                   7.5259(3)
_cell_angle_alpha                90
_cell_angle_beta                 90
_cell_angle_gamma                90
_cell_volume                     720.025
loop_
_atom_site_label
_atom_site_type_symbol
_atom_site_fract_x
_atom_site_fract_y
_atom_site_fract_z
Ni1 Ni 0.09755(3) 0.03896(3) 0.12795(5)
C1 C 0.2795(2) 0.2571(2) 0.1403(4)
C2 C 0.2185(2) 0.2722(2) -0.0425(4)
C3 C 0.1145(3) 0.3874(2) -0.0330(4)
C4 C 0.0123(2) 0.3568(2) 0.1003(3)
O1 O 0.2566(2) 0.14195(19) 0.2297(3)
O2 O 0.3480(2) 0.3610(2) 0.1929(3)
O3 O 0.0039(2) 0.23557(18) 0.1811(3)
O4 O -0.06474(16) 0.46317(18) 0.1227(3)
O5 O 0.1848(2) -0.1643(2) 0.0797(3)
O6 O -0.07317(19) -0.0436(2) 0.0528(3)
N1 N 0.1682(2) 0.1276(2) -0.0959(3)
H1 H 0.2271 0.0721 -0.1379
H2 H 0.1105 0.1382 -0.1745
H3 H 0.2817 0.3042 -0.1293
H4 H 0.1526 0.4824 -0.0034
H5 H 0.0759 0.3940 -0.1496
H6 H 0.200(4) -0.172(4) -0.0262(19)
H7 H 0.126(3) -0.222(3) 0.095(5)
H8 H -0.104(4) 0.006(3) -0.028(3)
H9 H -0.067(4) -0.1267(19) 0.010(4)
Ni1B Ni -0.09755(3) 0.53896(3) 0.37205(5)
O4B O 0.06474(16) -0.03683(18) 0.3773(3)
O7 O 0.0331(2) 0.1948(2) 0.5862(3)
H10 H -0.034(2) 0.177(4) 0.634(6)
H11 H 0.041(4) 0.130(3) 0.511(4)
loop_
_geom_bond_atom_site_label_1
_geom_bond_atom_site_label_2
_geom_bond_site_symmetry_1
_geom_bond_site_symmetry_2
Ni1 O1 1_555 1_555
C1 C2 1_555 1_555
C2 C3 1_555 1_555
C3 C4 1_555 1_555
C4 O3 1_555 1_555
O1 C1 1_555 1_555
O2 C1 1_555 1_555
O3 Ni1 1_555 1_555
O4 C4 1_555 1_555
O5 Ni1 1_555 1_555
O6 Ni1 1_555 1_555
N1 Ni1 1_555 1_555
H1 N1 1_555 1_555
H2 N1 1_555 1_555
H3 C2 1_555 1_555
H4 C3 1_555 1_555
H5 C3 1_555 1_555
H6 O5 1_555 1_555
H7 O5 1_555 1_555
H8 O6 1_555 1_555
H9 O6 1_555 1_555
O7 H10 1_555 1_555
H11 O7 1_555 1_555
Ni1B O4 1_555 1_555
O4B Ni1 1_555 1_555
C2 N1 1_555 1_555

#END
