
#######################################################################
#
#                 Cambridge Crystallographic Data Centre
#                                CCDC 
#
#######################################################################
#
# If this CIF has been generated from an entry in the Cambridge 
# Structural Database, then it will include bibliographic, chemical, 
# crystal, experimental, refinement or atomic coordinate data resulting 
# from the CCDC's data processing and validation procedures.
#
#######################################################################

data_BOJKAM08
_symmetry_cell_setting           orthorhombic
_symmetry_space_group_name_H-M   'P 21 21 21'
_symmetry_Int_Tables_number      19
_space_group_name_Hall           'P 2ac 2ab'
loop_
_symmetry_equiv_pos_site_id
_symmetry_equiv_pos_as_xyz
1 x,y,z
2 1/2+x,1/2-y,-z
3 -x,1/2+y,1/2-z
4 1/2-x,-y,1/2+z
_cell_length_a                   10.5597(8)
_cell_length_b                   8.9766(5)
_cell_length_c                   7.5071(6)
_cell_angle_alpha                90
_cell_angle_beta                 90
_cell_angle_gamma                90
_cell_volume                     711.6
loop_
_atom_site_label
_atom_site_type_symbol
_atom_site_fract_x
_atom_site_fract_y
_atom_site_fract_z
Ni1 Ni 0.09733(3) 0.03849(4) 0.12657(6)
C1 C 0.2798(3) 0.2571(3) 0.1364(5)
C2 C 0.2180(3) 0.2721(3) -0.0449(4)
C3 C 0.1141(3) 0.3875(3) -0.0360(4)
C4 C 0.0115(3) 0.3565(3) 0.0988(4)
N1 N 0.1674(2) 0.1275(2) -0.0979(4)
O1 O 0.2587(2) 0.1409(2) 0.2258(4)
O2 O 0.3473(3) 0.3620(3) 0.1919(4)
O3 O 0.0038(2) 0.2357(2) 0.1814(3)
O4 O -0.06633(17) 0.4627(2) 0.1225(4)
O5 O 0.1859(2) -0.1641(2) 0.0770(3)
O6 O -0.0755(2) -0.0446(2) 0.0563(3)
H1 H 0.2264 0.0721 -0.1407
H2 H 0.1086 0.1383 -0.1760
H3 H 0.2817 0.3039 -0.1319
H4 H 0.1524 0.4825 -0.0067
H5 H 0.0749 0.3936 -0.1526
H6 H 0.207(4) -0.177(4) -0.027(2)
H7 H 0.134(3) -0.231(3) 0.095(5)
H8 H -0.081(4) 0.001(3) -0.038(2)
H9 H -0.066(4) -0.1313(16) 0.027(4)
Ni1B Ni -0.09733(3) 0.53849(4) 0.37343(6)
O4B O 0.06633(17) -0.0373(2) 0.3775(4)
O7 O 0.0310(3) 0.1945(3) 0.5842(4)
H10 H -0.032(3) 0.181(4) 0.645(6)
H11 H 0.038(4) 0.118(3) 0.525(5)
loop_
_geom_bond_atom_site_label_1
_geom_bond_atom_site_label_2
_geom_bond_site_symmetry_1
_geom_bond_site_symmetry_2
Ni1 N1 1_555 1_555
C1 C2 1_555 1_555
C2 C3 1_555 1_555
C3 C4 1_555 1_555
C4 O3 1_555 1_555
N1 C2 1_555 1_555
O1 Ni1 1_555 1_555
O2 C1 1_555 1_555
O3 Ni1 1_555 1_555
O4 C4 1_555 1_555
O5 Ni1 1_555 1_555
O6 Ni1 1_555 1_555
H1 N1 1_555 1_555
H2 N1 1_555 1_555
H3 C2 1_555 1_555
H4 C3 1_555 1_555
H5 C3 1_555 1_555
H6 O5 1_555 1_555
H7 O5 1_555 1_555
H8 O6 1_555 1_555
H9 O6 1_555 1_555
O7 H10 1_555 1_555
H11 O7 1_555 1_555
Ni1B O4 1_555 1_555
O4B Ni1 1_555 1_555
C1 O1 1_555 1_555

#END
