
#######################################################################
#
#                 Cambridge Crystallographic Data Centre
#                                CCDC 
#
#######################################################################
#
# If this CIF has been generated from an entry in the Cambridge 
# Structural Database, then it will include bibliographic, chemical, 
# crystal, experimental, refinement or atomic coordinate data resulting 
# from the CCDC's data processing and validation procedures.
#
#######################################################################

data_BOJKAM05
_symmetry_cell_setting           orthorhombic
_symmetry_space_group_name_H-M   'P 21 21 21'
_symmetry_Int_Tables_number      19
_space_group_name_Hall           'P 2ac 2ab'
loop_
_symmetry_equiv_pos_site_id
_symmetry_equiv_pos_as_xyz
1 x,y,z
2 1/2+x,1/2-y,-z
3 -x,1/2+y,1/2-z
4 1/2-x,-y,1/2+z
_cell_length_a                   10.9314(3)
_cell_length_b                   9.0633(2)
_cell_length_c                   7.6179(2)
_cell_angle_alpha                90
_cell_angle_beta                 90
_cell_angle_gamma                90
_cell_volume                     754.74
loop_
_atom_site_label
_atom_site_type_symbol
_atom_site_fract_x
_atom_site_fract_y
_atom_site_fract_z
Ni1 Ni 0.09738(3) 0.04183(3) 0.13149(5)
C1 C 0.2785(2) 0.2561(2) 0.1463(4)
C2 C 0.2193(2) 0.2722(2) -0.0335(4)
C3 C 0.1183(2) 0.3877(3) -0.0249(4)
C4 C 0.0156(2) 0.3573(2) 0.1022(4)
O1 O 0.2512(2) 0.1438(2) 0.2369(3)
O2 O 0.3489(2) 0.3553(2) 0.1971(3)
O3 O 0.0048(2) 0.23730(19) 0.1818(3)
O4 O -0.05938(15) 0.46435(19) 0.1233(3)
O5 O 0.1821(2) -0.1608(2) 0.0856(3)
O6 O -0.06641(18) -0.0392(2) 0.0453(3)
N1 N 0.1709(2) 0.1290(2) -0.0884(3)
H1 H 0.2283 0.0736 -0.1275
H2 H 0.1157 0.1401 -0.1676
H3 H 0.2814 0.3041 -0.1180
H4 H 0.1556 0.4807 0.0087
H5 H 0.0831 0.3966 -0.1409
H6 H 0.205(3) -0.159(4) -0.017(2)
H7 H 0.127(3) -0.223(3) 0.086(4)
H8 H -0.110(3) 0.007(3) -0.022(4)
H9 H -0.065(3) -0.1222(19) 0.003(4)
Ni1B Ni -0.09738(3) 0.54183(3) 0.36851(5)
O4B O 0.05938(15) -0.03565(19) 0.3767(3)
O7 O 0.0364(2) 0.1961(2) 0.5918(3)
H10 H -0.031(2) 0.185(4) 0.637(5)
H11 H 0.039(3) 0.133(3) 0.515(4)
loop_
_geom_bond_atom_site_label_1
_geom_bond_atom_site_label_2
_geom_bond_site_symmetry_1
_geom_bond_site_symmetry_2
Ni1 O1 1_555 1_555
C1 C2 1_555 1_555
C2 C3 1_555 1_555
C3 C4 1_555 1_555
C4 O3 1_555 1_555
O1 C1 1_555 1_555
O2 C1 1_555 1_555
O3 Ni1 1_555 1_555
O4 C4 1_555 1_555
O5 Ni1 1_555 1_555
O6 Ni1 1_555 1_555
N1 Ni1 1_555 1_555
H1 N1 1_555 1_555
H2 N1 1_555 1_555
H3 C2 1_555 1_555
H4 C3 1_555 1_555
H5 C3 1_555 1_555
H6 O5 1_555 1_555
H7 O5 1_555 1_555
H8 O6 1_555 1_555
H9 O6 1_555 1_555
O7 H10 1_555 1_555
H11 O7 1_555 1_555
Ni1B O4 1_555 1_555
O4B Ni1 1_555 1_555
C2 N1 1_555 1_555

#END
