
#######################################################################
#
#                 Cambridge Crystallographic Data Centre
#                                CCDC 
#
#######################################################################
#
# If this CIF has been generated from an entry in the Cambridge 
# Structural Database, then it will include bibliographic, chemical, 
# crystal, experimental, refinement or atomic coordinate data resulting 
# from the CCDC's data processing and validation procedures.
#
#######################################################################

data_BOJKAM01
_symmetry_cell_setting           orthorhombic
_symmetry_space_group_name_H-M   'P 21 21 21'
_symmetry_Int_Tables_number      19
_space_group_name_Hall           'P 2ac 2ab'
loop_
_symmetry_equiv_pos_site_id
_symmetry_equiv_pos_as_xyz
1 x,y,z
2 1/2+x,1/2-y,-z
3 -x,1/2+y,1/2-z
4 1/2-x,-y,1/2+z
_cell_length_a                   12.2908(2)
_cell_length_b                   8.9941(2)
_cell_length_c                   7.6033(2)
_cell_angle_alpha                90
_cell_angle_beta                 90
_cell_angle_gamma                90
_cell_volume                     840.504
loop_
_atom_site_label
_atom_site_type_symbol
_atom_site_fract_x
_atom_site_fract_y
_atom_site_fract_z
Ni1 Ni 0.079183(9) 0.064017(12) 0.125103(19)
C1 C 0.26996(8) 0.22383(11) 0.20471(14)
C2 C 0.23999(7) 0.26487(11) 0.01616(14)
C3 C 0.16908(8) 0.40516(11) 0.01704(16)
C4 C 0.06247(7) 0.39756(10) 0.11798(16)
O1 O 0.20950(7) 0.12914(9) 0.28188(11)
O2 O 0.34892(7) 0.28689(10) 0.27604(13)
O3 O 0.01848(6) 0.27498(8) 0.15156(12)
O4 O 0.02200(7) 0.52029(9) 0.16253(13)
O5 O 0.13621(6) -0.15310(8) 0.11287(13)
O6 O -0.04313(8) 0.01242(11) -0.04959(18)
N1 N 0.18236(7) 0.13926(10) -0.06428(13)
H1 H 0.2275 0.0707 -0.0942
H2 H 0.1466 0.1680 -0.1553
H3 H 0.3067 0.2847 -0.0505
H4 H 0.2120 0.4849 0.0677
H5 H 0.1518 0.4289 -0.1042
H6 H 0.0891(13) -0.1967(18) 0.170(2)
H7 H 0.1404(14) -0.2009(18) 0.0215(17)
H8 H -0.0739(14) 0.0664(16) -0.120(2)
H9 H -0.0636(15) -0.0720(12) -0.074(2)
Ni1B Ni -0.079183(9) 0.564017(12) 0.374897(19)
O4B O -0.02200(7) 0.02029(9) 0.33747(13)
O7 O 0.09284(8) 0.21881(11) 0.58523(13)
H10 H 0.1372(12) 0.202(2) 0.509(2)
H11 H 0.0403(11) 0.171(2) 0.556(2)
loop_
_geom_bond_atom_site_label_1
_geom_bond_atom_site_label_2
_geom_bond_site_symmetry_1
_geom_bond_site_symmetry_2
Ni1 O1 1_555 1_555
C1 C2 1_555 1_555
C2 C3 1_555 1_555
C3 C4 1_555 1_555
C4 O3 1_555 1_555
O1 C1 1_555 1_555
O2 C1 1_555 1_555
O3 Ni1 1_555 1_555
O4 C4 1_555 1_555
O5 Ni1 1_555 1_555
O6 Ni1 1_555 1_555
N1 Ni1 1_555 1_555
H1 N1 1_555 1_555
H2 N1 1_555 1_555
H3 C2 1_555 1_555
H4 C3 1_555 1_555
H5 C3 1_555 1_555
H6 O5 1_555 1_555
H7 O5 1_555 1_555
H8 O6 1_555 1_555
H9 O6 1_555 1_555
O7 H10 1_555 1_555
H11 O7 1_555 1_555
Ni1B O4 1_555 1_555
O4B Ni1 1_555 1_555
C2 N1 1_555 1_555

#END
