
#######################################################################
#
#                 Cambridge Crystallographic Data Centre
#                                CCDC 
#
#######################################################################
#
# If this CIF has been generated from an entry in the Cambridge 
# Structural Database, then it will include bibliographic, chemical, 
# crystal, experimental, refinement or atomic coordinate data resulting 
# from the CCDC's data processing and validation procedures.
#
#######################################################################

data_BOJWUU
_symmetry_cell_setting           triclinic
_symmetry_space_group_name_H-M   'P -1'
_symmetry_Int_Tables_number      2
_space_group_name_Hall           '-P 1'
loop_
_symmetry_equiv_pos_site_id
_symmetry_equiv_pos_as_xyz
1 x,y,z
2 -x,-y,-z
_cell_length_a                   13.2677(13)
_cell_length_b                   14.9600(15)
_cell_length_c                   15.5993(16)
_cell_angle_alpha                99.293(2)
_cell_angle_beta                 101.038(2)
_cell_angle_gamma                115.265(2)
_cell_volume                     2643.08
loop_
_atom_site_label
_atom_site_type_symbol
_atom_site_fract_x
_atom_site_fract_y
_atom_site_fract_z
C1 C 0.1474(14) 0.0701(11) 0.3675(9)
C2 C 0.2069(17) 0.0055(12) 0.3852(11)
C3 C 0.1437(17) -0.0913(14) 0.3965(11)
C4 C 0.0225(16) -0.1295(12) 0.3985(11)
C5 C -0.0341(13) -0.0628(11) 0.3863(9)
C6 C 0.0314(15) 0.0353(11) 0.3730(9)
C7 C -0.0197(14) 0.1017(11) 0.3649(9)
C8 C -0.1336(16) 0.0647(13) 0.3759(12)
C9 C -0.1960(15) -0.0304(13) 0.3870(11)
C10 C -0.1433(16) -0.0939(12) 0.3929(10)
C11 C 0.1986(18) -0.1518(14) 0.4084(15)
C12 C 0.314(2) -0.1136(17) 0.4101(17)
C13 C 0.3754(19) -0.0195(18) 0.399(2)
C14 C 0.3196(16) 0.0402(13) 0.3862(14)
F1 F -0.1851(9) 0.1255(8) 0.3730(8)
F2 F -0.3036(9) -0.0620(8) 0.3937(8)
F3 F -0.2121(9) -0.1841(7) 0.4068(7)
F4 F 0.1438(11) -0.2465(8) 0.4198(9)
F5 F 0.3654(13) -0.1742(11) 0.4215(14)
F6 F 0.4872(12) 0.0152(10) 0.4009(13)
F7 F 0.3897(9) 0.1331(8) 0.3767(9)
O1 O 0.2043(10) 0.1519(8) 0.3492(8)
O2 O 0.0271(10) 0.1906(8) 0.3519(8)
O3 O -0.0346(12) -0.2146(9) 0.4081(9)
C15 C 0.1878(15) 0.4300(11) 0.1534(10)
C16 C 0.2297(17) 0.4562(13) 0.0731(11)
C17 C 0.2039(15) 0.5247(13) 0.0334(11)
C18 C 0.1290(17) 0.5661(14) 0.0643(13)
C19 C 0.0918(15) 0.5412(12) 0.1460(11)
C20 C 0.1193(15) 0.4715(12) 0.1872(10)
C21 C 0.0801(15) 0.4461(12) 0.2642(10)
C22 C 0.0212(12) 0.4995(13) 0.2932(9)
C23 C -0.0129(17) 0.5549(13) 0.2529(11)
C24 C 0.0302(16) 0.5801(13) 0.1777(11)
C25 C 0.2439(18) 0.5472(16) -0.0417(13)
C26 C 0.3078(19) 0.5066(18) -0.0724(14)
C27 C 0.3317(19) 0.4393(16) -0.0359(13)
C28 C 0.2921(16) 0.4146(12) 0.0384(11)
F8 F -0.0262(10) 0.4687(8) 0.3622(6)
F9 F -0.0785(11) 0.5924(9) 0.2807(7)
F10 F -0.0012(10) 0.6460(8) 0.1432(7)
F11 F 0.2205(10) 0.6106(11) -0.0842(9)
F12 F 0.3444(13) 0.5291(12) -0.1461(9)
F13 F 0.3938(12) 0.3986(11) -0.0667(9)
F14 F 0.3218(11) 0.3493(9) 0.0716(8)
O4 O 0.1009(10) 0.3866(8) 0.3074(7)
O5 O 0.2143(11) 0.3698(8) 0.1856(7)
O6 O 0.1004(13) 0.6178(11) 0.0239(9)
O7 O 0.3601(11) 0.3320(9) 0.3066(8)
O8 O 0.2659(10) 0.3624(8) 0.4360(8)
O9 O 0.7476(13) 0.4064(11) 0.5532(12)
C29 C 0.4445(16) 0.3445(10) 0.3666(13)
C30 C 0.5375(14) 0.3289(12) 0.3374(13)
C31 C 0.6356(16) 0.3382(13) 0.4011(15)
C32 C 0.6535(17) 0.3749(13) 0.4996(15)
C33 C 0.5513(16) 0.3757(13) 0.5273(13)
C34 C 0.4519(14) 0.3624(12) 0.4616(12)
C35 C 0.3601(14) 0.3724(11) 0.4877(11)
C36 C 0.3746(16) 0.3980(12) 0.5822(12)
C37 C 0.4708(16) 0.4068(13) 0.6444(12)
C38 C 0.5555(17) 0.3955(13) 0.6183(14)
C39 C 0.7140(19) 0.3159(19) 0.3709(19)
C40 C 0.7022(19) 0.2810(19) 0.277(2)
C41 C 0.6118(19) 0.2771(19) 0.2184(18)
C42 C 0.5271(17) 0.3008(15) 0.2454(14)
F15 F 0.2943(9) 0.4138(8) 0.6146(7)
F16 F 0.4790(12) 0.4303(10) 0.7345(7)
F17 F 0.6478(10) 0.4054(9) 0.6824(8)
F18 F 0.8073(11) 0.3224(12) 0.4288(10)
F19 F 0.7816(13) 0.2629(15) 0.2541(13)
F20 F 0.5956(13) 0.2442(12) 0.1292(10)
F21 F 0.4429(9) 0.2935(9) 0.1794(8)
O10 O 0.1775(13) 0.1597(9) 0.1758(9)
O11 O -0.0008(13) 0.1944(10) 0.1672(8)
O12 O 0.130(3) 0.107(3) -0.1730(15)
C43 C 0.1532(18) 0.1389(12) 0.0913(13)
C44 C 0.2182(11) 0.1012(10) 0.0410(12)
C45 C 0.2056(15) 0.0897(15) -0.0513(12)
C46 C 0.271(2) 0.0542(18) -0.0921(10)
C47 C 0.3488(19) 0.0302(18) -0.0406(16)
C48 C 0.3613(19) 0.042(2) 0.0517(15)
C49 C 0.2960(17) 0.0772(15) 0.0924(9)
C50 C 0.1217(18) 0.114(2) -0.0938(13)
C51 C 0.0437(13) 0.1335(13) -0.0549(10)
C52 C 0.0608(11) 0.1498(12) 0.0382(9)
C53 C -0.0150(13) 0.1709(12) 0.0774(7)
C54 C -0.1080(12) 0.1757(13) 0.0236(10)
C55 C -0.1251(13) 0.1594(15) -0.0695(10)
C56 C -0.0493(15) 0.1383(15) -0.1088(7)
F22 F -0.1808(15) 0.1909(16) 0.0667(13)
F23 F -0.2217(15) 0.162(2) -0.1127(16)
F24 F -0.063(2) 0.131(2) -0.1981(8)
F25 F 0.247(2) 0.049(3) -0.1814(12)
F26 F 0.404(3) -0.001(3) -0.0937(18)
F27 F 0.444(2) 0.015(2) 0.0835(19)
F28 F 0.317(2) 0.0812(19) 0.1815(10)
Cs1 Cs 0.06452(9) 0.37399(7) 0.49462(6)
Er1 Er 0.16361(6) 0.27003(5) 0.28708(4)
F4A F -0.1438(11) 0.2465(8) 0.5802(9)
O3A O 0.0346(12) 0.2146(9) 0.5919(9)
F8A F 0.0262(10) 0.5313(8) 0.6378(6)
F9A F 0.0785(11) 0.4076(9) 0.7193(7)
O9A O 0.2524(13) 0.5936(11) 0.4468(12)
F18_2 F -0.1927(11) 0.3224(12) 0.4288(10)
Cs1_2 Cs 1.06452(9) 0.37399(7) 0.49462(6)
Cs1A Cs -0.06452(9) -0.37399(7) 0.50538(6)
Cs1A_2 Cs -0.06452(9) 0.62601(7) 0.50538(6)
Cs1A_3 Cs 0.93548(9) 0.62601(7) 0.50538(6)
loop_
_geom_bond_atom_site_label_1
_geom_bond_atom_site_label_2
_geom_bond_site_symmetry_1
_geom_bond_site_symmetry_2
C1 C2 1_555 1_555
C2 C3 1_555 1_555
C3 C4 1_555 1_555
C4 C5 1_555 1_555
C5 C6 1_555 1_555
C6 C1 1_555 1_555
C7 C6 1_555 1_555
C8 C7 1_555 1_555
C9 C8 1_555 1_555
C10 C5 1_555 1_555
C11 C3 1_555 1_555
C12 C11 1_555 1_555
C13 C12 1_555 1_555
C14 C2 1_555 1_555
F1 C8 1_555 1_555
F2 C9 1_555 1_555
F3 C10 1_555 1_555
F4 C11 1_555 1_555
F5 C12 1_555 1_555
F6 C13 1_555 1_555
F7 C14 1_555 1_555
O1 C1 1_555 1_555
O2 C7 1_555 1_555
O3 C4 1_555 1_555
C15 C16 1_555 1_555
C16 C17 1_555 1_555
C17 C18 1_555 1_555
C18 C19 1_555 1_555
C19 C20 1_555 1_555
C20 C15 1_555 1_555
C21 C20 1_555 1_555
C22 C21 1_555 1_555
C23 C22 1_555 1_555
C24 C19 1_555 1_555
C25 C17 1_555 1_555
C26 C25 1_555 1_555
C27 C26 1_555 1_555
C28 C16 1_555 1_555
F8 C22 1_555 1_555
F9 C23 1_555 1_555
F10 C24 1_555 1_555
F11 C25 1_555 1_555
F12 C26 1_555 1_555
F13 C27 1_555 1_555
F14 C28 1_555 1_555
O4 C21 1_555 1_555
O5 C15 1_555 1_555
O6 C18 1_555 1_555
O7 C29 1_555 1_555
O8 C35 1_555 1_555
O9 C32 1_555 1_555
C29 C30 1_555 1_555
C30 C31 1_555 1_555
C31 C32 1_555 1_555
C32 C33 1_555 1_555
C33 C34 1_555 1_555
C34 C29 1_555 1_555
C35 C34 1_555 1_555
C36 C35 1_555 1_555
C37 C36 1_555 1_555
C38 C33 1_555 1_555
C39 C31 1_555 1_555
C40 C39 1_555 1_555
C41 C40 1_555 1_555
C42 C30 1_555 1_555
F15 C36 1_555 1_555
F16 C37 1_555 1_555
F17 C38 1_555 1_555
F18 C39 1_555 1_555
F19 C40 1_555 1_555
F20 C41 1_555 1_555
F21 C42 1_555 1_555
O10 C43 1_555 1_555
O11 C53 1_555 1_555
O12 C50 1_555 1_555
C43 C44 1_555 1_555
C44 C45 1_555 1_555
C45 C46 1_555 1_555
C46 C47 1_555 1_555
C47 C48 1_555 1_555
C48 C49 1_555 1_555
C49 C44 1_555 1_555
C50 C45 1_555 1_555
C51 C50 1_555 1_555
C52 C43 1_555 1_555
C53 C52 1_555 1_555
C54 C53 1_555 1_555
C55 C54 1_555 1_555
C56 C51 1_555 1_555
F22 C54 1_555 1_555
F23 C55 1_555 1_555
F24 C56 1_555 1_555
F25 C46 1_555 1_555
F26 C47 1_555 1_555
F27 C48 1_555 1_555
F28 C49 1_555 1_555
Cs1 F1 1_555 1_555
Er1 O1 1_555 1_555
F4A Cs1 1_555 1_555
O3A Cs1 1_555 1_555
F8A Cs1 1_555 1_555
F9A Cs1 1_555 1_555
O9A Cs1 1_555 1_555
F18_2 Cs1 1_555 1_555
Cs1_2 F18 1_555 1_555
Cs1A F4 1_555 1_555
Cs1A_2 F8 1_555 1_555
Cs1A_3 O9 1_555 1_555
C9 C10 1_555 1_555
C13 C14 1_555 1_555
O2 Cs1 1_555 1_555
O2 Er1 1_555 1_555
O3 Cs1A 1_555 1_555
C23 C24 1_555 1_555
C27 C28 1_555 1_555
F8 Cs1 1_555 1_555
F9 Cs1A_2 1_555 1_555
O4 Cs1 1_555 1_555
O4 Er1 1_555 1_555
O5 Er1 1_555 1_555
O7 Er1 1_555 1_555
O8 Cs1 1_555 1_555
O8 Er1 1_555 1_555
C37 C38 1_555 1_555
C41 C42 1_555 1_555
F15 Cs1 1_555 1_555
O10 Er1 1_555 1_555
O11 Er1 1_555 1_555
C51 C52 1_555 1_555
C55 C56 1_555 1_555
F8A Cs1A_2 1_555 1_555

#END
