
#######################################################################
#
#                 Cambridge Crystallographic Data Centre
#                                CCDC 
#
#######################################################################
#
# If this CIF has been generated from an entry in the Cambridge 
# Structural Database, then it will include bibliographic, chemical, 
# crystal, experimental, refinement or atomic coordinate data resulting 
# from the CCDC's data processing and validation procedures.
#
#######################################################################

data_BOKFIR
_symmetry_cell_setting           triclinic
_symmetry_space_group_name_H-M   'P -1'
_symmetry_Int_Tables_number      2
_space_group_name_Hall           '-P 1'
loop_
_symmetry_equiv_pos_site_id
_symmetry_equiv_pos_as_xyz
1 x,y,z
2 -x,-y,-z
_cell_length_a                   7.2988(18)
_cell_length_b                   9.507(3)
_cell_length_c                   12.950(3)
_cell_angle_alpha                77.055(8)
_cell_angle_beta                 77.445(9)
_cell_angle_gamma                75.940(8)
_cell_volume                     836.808
loop_
_atom_site_label
_atom_site_type_symbol
_atom_site_fract_x
_atom_site_fract_y
_atom_site_fract_z
Cu1 Cu 1.0000 1.0000 0.0000
O1 O 1.0257(3) 0.9505(3) 0.15112(17)
O3 O 0.7654(4) 1.1135(3) 0.2058(2)
O4 O 0.2311(3) 0.0866(2) 0.96816(19)
O5 O 0.0115(3) 0.2924(3) 0.9816(2)
N1 N 0.9347(4) 0.7966(3) 0.5458(2)
N2 N 0.6155(4) 0.4788(3) 0.8537(2)
C1 C 0.8986(5) 1.0096(4) 0.2222(3)
C2 C 0.9184(5) 0.9385(4) 0.3373(3)
C3 C 0.7848(5) 0.9883(4) 0.4218(3)
H1 H 0.6879 1.0704 0.4082
C4 C 0.7950(5) 0.9171(4) 0.5250(3)
H2 H 0.7055 0.9516 0.5815
C5 C 1.0702(5) 0.7489(4) 0.4651(3)
H3 H 1.1667 0.6672 0.4803
C6 C 1.0667(5) 0.8195(4) 0.3614(3)
H4 H 1.1634 0.7882 0.3067
C7 C 0.9366(5) 0.7157(4) 0.6573(3)
H5 H 0.9132 0.7853 0.7055
H6 H 1.0618 0.6526 0.6625
C8 C 0.7831(5) 0.6219(4) 0.6913(3)
H7 H 0.6610 0.6805 0.6745
H8 H 0.8189 0.5394 0.6533
C9 C 0.7675(5) 0.5665(4) 0.8114(3)
H9 H 0.8896 0.5060 0.8267
H10 H 0.7392 0.6499 0.8479
C10 C 0.4283(5) 0.5470(3) 0.8670(3)
H11 H 0.3950 0.6493 0.8507
C11 C 0.2894(5) 0.4670(3) 0.9040(3)
H12 H 0.1613 0.5150 0.9136
C12 C 0.3364(5) 0.3131(3) 0.9278(2)
C13 C 0.5279(5) 0.2465(4) 0.9168(3)
H13 H 0.5642 0.1445 0.9347
C14 C 0.6651(5) 0.3309(4) 0.8793(3)
H14 H 0.7941 0.2853 0.8715
C15 C 0.1789(5) 0.2258(4) 0.9625(3)
Cu1_2 Cu 0.0000 0.0000 1.0000
Cu1_3 Cu 2.0000 2.0000 -1.0000
O1_2 O 2.0257(3) 1.9505(3) -0.84888(17)
O1A O 0.9743(3) 1.0495(3) -0.15112(17)
O3_2 O 1.7654(4) 2.1135(3) -0.7942(2)
O4_2 O 1.2311(3) 1.0866(2) -0.03184(19)
O4A O 0.7689(3) 0.9134(2) 0.03184(19)
O5_2 O 1.0115(3) 1.2924(3) -0.0184(2)
N1_2 N 1.9347(4) 1.7966(3) -0.4542(2)
N2_2 N 1.6155(4) 1.4788(3) -0.1463(2)
C1_2 C 1.8986(5) 2.0096(4) -0.7778(3)
C2_2 C 1.9184(5) 1.9385(4) -0.6627(3)
C3_2 C 1.7848(5) 1.9883(4) -0.5782(3)
H1_2 H 1.6879 2.0704 -0.5918
C4_2 C 1.7950(5) 1.9171(4) -0.4750(3)
H2_2 H 1.7055 1.9516 -0.4185
C5_2 C 2.0702(5) 1.7489(4) -0.5349(3)
H3_2 H 2.1667 1.6672 -0.5197
C6_2 C 2.0667(5) 1.8195(4) -0.6386(3)
H4_2 H 2.1634 1.7882 -0.6933
C7_2 C 1.9366(5) 1.7157(4) -0.3427(3)
H5_2 H 1.9132 1.7853 -0.2945
H6_2 H 2.0618 1.6526 -0.3375
C8_2 C 1.7831(5) 1.6219(4) -0.3087(3)
H7_2 H 1.6610 1.6805 -0.3255
H8_2 H 1.8189 1.5394 -0.3467
C9_2 C 1.7675(5) 1.5665(4) -0.1886(3)
H9_2 H 1.8896 1.5060 -0.1733
H10_2 H 1.7392 1.6499 -0.1521
C10_2 C 1.4283(5) 1.5470(3) -0.1330(3)
H11_2 H 1.3950 1.6493 -0.1493
C11_2 C 1.2894(5) 1.4670(3) -0.0960(3)
H12_2 H 1.1613 1.5150 -0.0864
C12_2 C 1.3364(5) 1.3131(3) -0.0722(2)
C13_2 C 1.5279(5) 1.2465(4) -0.0832(3)
H13_2 H 1.5642 1.1445 -0.0653
C14_2 C 1.6651(5) 1.3309(4) -0.1207(3)
H14_2 H 1.7941 1.2853 -0.1285
C15_2 C 1.1789(5) 1.2258(4) -0.0375(3)
Cl1 Cl 0.38025(15) 0.33048(11) 0.62773(8)
O6 O 0.4970(8) 0.2384(7) 0.5542(6)
O7 O 0.2357(7) 0.4090(5) 0.5734(5)
O8 O 0.3064(13) 0.2456(10) 0.7202(4)
O9 O 0.4983(6) 0.4176(5) 0.6470(3)
O2 O 0.3767(6) 1.0789(4) 0.1972(4)
loop_
_geom_bond_atom_site_label_1
_geom_bond_atom_site_label_2
_geom_bond_site_symmetry_1
_geom_bond_site_symmetry_2
Cu1 O1 1_555 1_555
Cl1 O6 1_555 1_555
O1 C1 1_555 1_555
O3 C1 1_555 1_555
O4 C15 1_555 1_555
O5 C15 1_555 1_555
O7 Cl1 1_555 1_555
O8 Cl1 1_555 1_555
O9 Cl1 1_555 1_555
N1 C4 1_555 1_555
N2 C9 1_555 1_555
C1 C2 1_555 1_555
C2 C3 1_555 1_555
C3 H1 1_555 1_555
C4 C3 1_555 1_555
H2 C4 1_555 1_555
C5 N1 1_555 1_555
H3 C5 1_555 1_555
C6 C2 1_555 1_555
H4 C6 1_555 1_555
C7 N1 1_555 1_555
H5 C7 1_555 1_555
H6 C7 1_555 1_555
C8 C7 1_555 1_555
H7 C8 1_555 1_555
H8 C8 1_555 1_555
C9 C8 1_555 1_555
H9 C9 1_555 1_555
H10 C9 1_555 1_555
C10 N2 1_555 1_555
H11 C10 1_555 1_555
C11 C10 1_555 1_555
H12 C11 1_555 1_555
C12 C11 1_555 1_555
C13 C12 1_555 1_555
H13 C13 1_555 1_555
C14 N2 1_555 1_555
H14 C14 1_555 1_555
C15 C12 1_555 1_555
Cu1_2 O4 1_555 1_555
Cu1_3 O1_2 1_555 1_555
O1_2 C1_2 1_555 1_555
O1A Cu1 1_555 1_555
O3_2 C1_2 1_555 1_555
O4_2 Cu1 1_555 1_555
O4A Cu1 1_555 1_555
O5_2 C15_2 1_555 1_555
N1_2 C4_2 1_555 1_555
N2_2 C9_2 1_555 1_555
C1_2 C2_2 1_555 1_555
C2_2 C3_2 1_555 1_555
C3_2 H1_2 1_555 1_555
C4_2 C3_2 1_555 1_555
H2_2 C4_2 1_555 1_555
C5_2 N1_2 1_555 1_555
H3_2 C5_2 1_555 1_555
C6_2 C2_2 1_555 1_555
H4_2 C6_2 1_555 1_555
C7_2 N1_2 1_555 1_555
H5_2 C7_2 1_555 1_555
H6_2 C7_2 1_555 1_555
C8_2 C7_2 1_555 1_555
H7_2 C8_2 1_555 1_555
H8_2 C8_2 1_555 1_555
C9_2 C8_2 1_555 1_555
H9_2 C9_2 1_555 1_555
H10_2 C9_2 1_555 1_555
C10_2 N2_2 1_555 1_555
H11_2 C10_2 1_555 1_555
C11_2 C10_2 1_555 1_555
H12_2 C11_2 1_555 1_555
C12_2 C11_2 1_555 1_555
C13_2 C12_2 1_555 1_555
H13_2 C13_2 1_555 1_555
C14_2 N2_2 1_555 1_555
H14_2 C14_2 1_555 1_555
C15_2 O4_2 1_555 1_555
C5 C6 1_555 1_555
C13 C14 1_555 1_555
C5_2 C6_2 1_555 1_555
C12_2 C15_2 1_555 1_555
C13_2 C14_2 1_555 1_555

#END
