
#######################################################################
#
#                 Cambridge Crystallographic Data Centre
#                                CCDC 
#
#######################################################################
#
# If this CIF has been generated from an entry in the Cambridge 
# Structural Database, then it will include bibliographic, chemical, 
# crystal, experimental, refinement or atomic coordinate data resulting 
# from the CCDC's data processing and validation procedures.
#
#######################################################################

data_BOKHOZ
_symmetry_cell_setting           monoclinic
_symmetry_space_group_name_H-M   'P 21/c'
_symmetry_Int_Tables_number      14
_space_group_name_Hall           '-P 2ybc'
loop_
_symmetry_equiv_pos_site_id
_symmetry_equiv_pos_as_xyz
1 x,y,z
2 -x,1/2+y,1/2-z
3 -x,-y,-z
4 x,1/2-y,1/2+z
_cell_length_a                   14.4948(8)
_cell_length_b                   9.1799(5)
_cell_length_c                   18.2590(11)
_cell_angle_alpha                90
_cell_angle_beta                 106.0650(10)
_cell_angle_gamma                90
_cell_volume                     2334.68
loop_
_atom_site_label
_atom_site_type_symbol
_atom_site_fract_x
_atom_site_fract_y
_atom_site_fract_z
Zn1 Zn 0.02575(2) 0.28185(4) 0.119144(19)
Zn2 Zn 0.0000 0.0000 0.0000
C1 C 0.1327(2) -0.3159(3) 0.22645(16)
O1 O -0.02353(17) 0.2119(2) 0.01863(12)
C2 C 0.2033(2) -0.2730(3) 0.19370(15)
C3 C 0.0762(2) -0.4371(3) 0.19614(16)
H1 H 0.0292 -0.4654 0.2192
C4 C 0.27338(19) -0.1540(3) 0.22590(15)
C5 C 0.2134(2) -0.3513(3) 0.12843(15)
N1 N 0.08478(17) -0.5139(2) 0.13732(13)
C6 C 0.1091(2) -0.2353(3) 0.29184(17)
N2 N -0.1112(2) -0.0657(3) 0.05559(16)
C7 C 0.1518(2) -0.4703(3) 0.10092(16)
C8 C 0.3630(2) -0.1930(4) 0.27739(16)
C9 C 0.2568(2) -0.0091(3) 0.20740(16)
C10 C 0.2828(2) -0.3148(3) 0.09021(16)
H2 H 0.3257 -0.2395 0.1092
C11 C 0.2888(2) -0.3871(4) 0.02611(18)
C12 C 0.1580(3) -0.5445(4) 0.03511(17)
H3 H 0.1172 -0.6224 0.0166
C13 C 0.3285(2) 0.0946(4) 0.24231(18)
H4 H 0.3158 0.1922 0.2299
N3 N 0.4108(2) 0.0627(3) 0.29041(17)
C14 C 0.3898(2) -0.3374(4) 0.29961(19)
H5 H 0.3464 -0.4119 0.2803
C15 C 0.4296(2) -0.0794(4) 0.30755(18)
C16 C 0.2237(3) -0.5025(4) -0.00167(18)
H6 H 0.2258 -0.5508 -0.0460
O2 O 0.1598(3) -0.1433(5) 0.3267(2)
C17 C 0.4765(3) -0.3725(5) 0.3481(2)
C18 C 0.5415(3) -0.2570(5) 0.3769(2)
H7 H 0.6013 -0.2785 0.4101
C19 C 0.3629(3) -0.3479(5) -0.0148(2)
H8 H 0.4013 -0.2682 0.0111
H9 H 0.3312 -0.3199 -0.0662
H10 H 0.4034 -0.4305 -0.0151
C20 C -0.0917(3) -0.1627(5) 0.1107(2)
H11 H -0.0303 -0.2026 0.1249
C21 C 0.5193(2) -0.1181(5) 0.3579(2)
H12 H 0.5637 -0.0454 0.3782
C22 C -0.1988(3) -0.0097(5) 0.0371(3)
H13 H -0.2141 0.0607 -0.0009
C23 C -0.1560(3) -0.2092(5) 0.1488(2)
H14 H -0.1382 -0.2776 0.1877
C24 C 0.5055(3) -0.5255(5) 0.3711(3)
H15 H 0.4543 -0.5905 0.3468
H16 H 0.5190 -0.5345 0.4254
H17 H 0.5619 -0.5498 0.3559
C25 C -0.2459(4) -0.1530(6) 0.1282(3)
H18 H -0.2916 -0.1831 0.1520
C26 C -0.2679(4) -0.0504(7) 0.0712(3)
H19 H -0.3289 -0.0091 0.0560
C27 C 0.1654(2) 0.0490(3) 0.15365(16)
O3 O 0.11227(16) -0.0364(2) 0.10796(12)
O4 O 0.15158(17) 0.1828(3) 0.15990(14)
O5 O 0.0311(2) -0.2763(3) 0.30276(16)
Zn1B Zn -0.02575(2) -0.28185(4) -0.119144(19)
Zn1_2 Zn 0.02575(2) -0.71815(4) 0.119144(19)
Zn1A Zn -0.02575(2) -0.21815(4) 0.380856(19)
Zn1B_2 Zn -0.02575(2) 0.71815(4) -0.119144(19)
Zn1C Zn 0.02575(2) 0.21815(4) -0.380856(19)
C1B C -0.1327(2) 0.3159(3) -0.22645(16)
O1B O 0.02353(17) -0.2119(2) -0.01863(12)
C2B C -0.2033(2) 0.2730(3) -0.19370(15)
C3B C -0.0762(2) 0.4371(3) -0.19614(16)
H1B H -0.0292 0.4654 -0.2192
C4B C -0.27338(19) 0.1540(3) -0.22590(15)
C5B C -0.2134(2) 0.3513(3) -0.12843(15)
N1B N -0.08478(17) 0.5139(2) -0.13732(13)
N1_2 N 0.08478(17) 0.4861(2) 0.13732(13)
N1B_2 N -0.08478(17) -0.4861(2) -0.13732(13)
C6B C -0.1091(2) 0.2353(3) -0.29184(17)
N2B N 0.1112(2) 0.0657(3) -0.05559(16)
C7B C -0.1518(2) 0.4703(3) -0.10092(16)
C8B C -0.3630(2) 0.1930(4) -0.27739(16)
C9B C -0.2568(2) 0.0091(3) -0.20740(16)
C10B C -0.2828(2) 0.3148(3) -0.09021(16)
H2B H -0.3257 0.2395 -0.1092
C11B C -0.2888(2) 0.3871(4) -0.02611(18)
C12B C -0.1580(3) 0.5445(4) -0.03511(17)
H3B H -0.1172 0.6224 -0.0166
C13B C -0.3285(2) -0.0946(4) -0.24231(18)
H4B H -0.3158 -0.1922 -0.2299
N3B N -0.4108(2) -0.0627(3) -0.29041(17)
C14B C -0.3898(2) 0.3374(4) -0.29961(19)
H5B H -0.3464 0.4119 -0.2803
C15B C -0.4296(2) 0.0794(4) -0.30755(18)
C16B C -0.2237(3) 0.5025(4) 0.00167(18)
H6B H -0.2258 0.5508 0.0460
O2B O -0.1598(3) 0.1433(5) -0.3267(2)
C17B C -0.4765(3) 0.3725(5) -0.3481(2)
C18B C -0.5415(3) 0.2570(5) -0.3769(2)
H7B H -0.6013 0.2785 -0.4101
C19B C -0.3629(3) 0.3479(5) 0.0148(2)
H8B H -0.4013 0.2682 -0.0111
H9B H -0.3312 0.3199 0.0662
H10B H -0.4034 0.4305 0.0151
C20B C 0.0917(3) 0.1627(5) -0.1107(2)
H11B H 0.0303 0.2026 -0.1249
C21B C -0.5193(2) 0.1181(5) -0.3579(2)
H12B H -0.5637 0.0454 -0.3782
C22B C 0.1988(3) 0.0097(5) -0.0371(3)
H13B H 0.2141 -0.0607 0.0009
C23B C 0.1560(3) 0.2092(5) -0.1488(2)
H14B H 0.1382 0.2776 -0.1877
C24B C -0.5055(3) 0.5255(5) -0.3711(3)
H15B H -0.4543 0.5905 -0.3468
H16B H -0.5190 0.5345 -0.4254
H17B H -0.5619 0.5498 -0.3559
C25B C 0.2459(4) 0.1530(6) -0.1282(3)
H18B H 0.2916 0.1831 -0.1520
C26B C 0.2679(4) 0.0504(7) -0.0712(3)
H19B H 0.3289 0.0091 -0.0560
C27B C -0.1654(2) -0.0490(3) -0.15365(16)
O3B O -0.11227(16) 0.0364(2) -0.10796(12)
O4B O -0.15158(17) -0.1828(3) -0.15990(14)
O5B O -0.0311(2) 0.2763(3) -0.30276(16)
O5A O -0.0311(2) 0.2237(3) 0.19724(16)
O5C O 0.0311(2) -0.2237(3) -0.19724(16)
loop_
_geom_bond_atom_site_label_1
_geom_bond_atom_site_label_2
_geom_bond_site_symmetry_1
_geom_bond_site_symmetry_2
Zn1 O1 1_555 1_555
Zn2 O1 1_555 1_555
C1 C2 1_555 1_555
C2 C4 1_555 1_555
C3 C1 1_555 1_555
H1 C3 1_555 1_555
C4 C8 1_555 1_555
C5 C2 1_555 1_555
N1 C3 1_555 1_555
C6 C1 1_555 1_555
N2 Zn2 1_555 1_555
C7 C5 1_555 1_555
C8 C14 1_555 1_555
C9 C4 1_555 1_555
C10 C5 1_555 1_555
H2 C10 1_555 1_555
C11 C10 1_555 1_555
C12 C7 1_555 1_555
H3 C12 1_555 1_555
C13 C9 1_555 1_555
H4 C13 1_555 1_555
N3 C13 1_555 1_555
C14 H5 1_555 1_555
C15 C8 1_555 1_555
C16 C11 1_555 1_555
H6 C16 1_555 1_555
O2 C6 1_555 1_555
C17 C14 1_555 1_555
C18 C17 1_555 1_555
H7 C18 1_555 1_555
C19 C11 1_555 1_555
H8 C19 1_555 1_555
H9 C19 1_555 1_555
H10 C19 1_555 1_555
C20 N2 1_555 1_555
H11 C20 1_555 1_555
C21 C15 1_555 1_555
H12 C21 1_555 1_555
C22 N2 1_555 1_555
H13 C22 1_555 1_555
C23 C20 1_555 1_555
H14 C23 1_555 1_555
C24 C17 1_555 1_555
H15 C24 1_555 1_555
H16 C24 1_555 1_555
H17 C24 1_555 1_555
C25 C23 1_555 1_555
H18 C25 1_555 1_555
C26 C22 1_555 1_555
H19 C26 1_555 1_555
C27 C9 1_555 1_555
O3 Zn2 1_555 1_555
O4 Zn1 1_555 1_555
O5 C6 1_555 1_555
Zn1B O1B 1_555 1_555
Zn1_2 N1 1_555 1_555
Zn1A O5 1_555 1_555
Zn1B_2 N1B 1_555 1_555
Zn1C O5B 1_555 1_555
C1B C2B 1_555 1_555
O1B Zn2 1_555 1_555
C2B C4B 1_555 1_555
C3B C1B 1_555 1_555
H1B C3B 1_555 1_555
C4B C8B 1_555 1_555
C5B C2B 1_555 1_555
N1B C3B 1_555 1_555
N1_2 Zn1 1_555 1_555
N1B_2 Zn1B 1_555 1_555
C6B C1B 1_555 1_555
N2B Zn2 1_555 1_555
C7B C5B 1_555 1_555
C8B C14B 1_555 1_555
C9B C4B 1_555 1_555
C10B C5B 1_555 1_555
H2B C10B 1_555 1_555
C11B C10B 1_555 1_555
C12B C7B 1_555 1_555
H3B C12B 1_555 1_555
C13B C9B 1_555 1_555
H4B C13B 1_555 1_555
N3B C13B 1_555 1_555
C14B H5B 1_555 1_555
C15B C8B 1_555 1_555
C16B C11B 1_555 1_555
H6B C16B 1_555 1_555
O2B C6B 1_555 1_555
C17B C14B 1_555 1_555
C18B C17B 1_555 1_555
H7B C18B 1_555 1_555
C19B C11B 1_555 1_555
H8B C19B 1_555 1_555
H9B C19B 1_555 1_555
H10B C19B 1_555 1_555
C20B N2B 1_555 1_555
H11B C20B 1_555 1_555
C21B C15B 1_555 1_555
H12B C21B 1_555 1_555
C22B N2B 1_555 1_555
H13B C22B 1_555 1_555
C23B C20B 1_555 1_555
H14B C23B 1_555 1_555
C24B C17B 1_555 1_555
H15B C24B 1_555 1_555
H16B C24B 1_555 1_555
H17B C24B 1_555 1_555
C25B C23B 1_555 1_555
H18B C25B 1_555 1_555
C26B C22B 1_555 1_555
H19B C26B 1_555 1_555
C27B C9B 1_555 1_555
O3B Zn2 1_555 1_555
O4B Zn1B 1_555 1_555
O5B C6B 1_555 1_555
O5A Zn1 1_555 1_555
O5C Zn1B 1_555 1_555
N1 C7 1_555 1_555
C12 C16 1_555 1_555
N3 C15 1_555 1_555
C18 C21 1_555 1_555
C25 C26 1_555 1_555
C27 O3 1_555 1_555
C27 O4 1_555 1_555
N1B C7B 1_555 1_555
C12B C16B 1_555 1_555
N3B C15B 1_555 1_555
C18B C21B 1_555 1_555
C25B C26B 1_555 1_555
C27B O3B 1_555 1_555
C27B O4B 1_555 1_555

#END
