
#######################################################################
#
#                 Cambridge Crystallographic Data Centre
#                                CCDC 
#
#######################################################################
#
# If this CIF has been generated from an entry in the Cambridge 
# Structural Database, then it will include bibliographic, chemical, 
# crystal, experimental, refinement or atomic coordinate data resulting 
# from the CCDC's data processing and validation procedures.
#
#######################################################################

data_BOKJES01
_symmetry_cell_setting           orthorhombic
_symmetry_space_group_name_H-M   'I b c a'
_symmetry_Int_Tables_number      73
_space_group_name_Hall           '-I 2b 2c'
loop_
_symmetry_equiv_pos_site_id
_symmetry_equiv_pos_as_xyz
1 x,y,z
2 -x,1/2-y,z
3 x,-y,1/2-z
4 -x,1/2+y,1/2-z
5 1/2+x,1/2+y,1/2+z
6 1/2-x,-y,1/2+z
7 1/2+x,1/2-y,-z
8 1/2-x,y,-z
9 -x,-y,-z
10 x,1/2+y,-z
11 -x,y,1/2+z
12 x,1/2-y,1/2+z
13 1/2-x,1/2-y,1/2-z
14 1/2+x,y,1/2-z
15 1/2-x,1/2+y,z
16 1/2+x,-y,z
_cell_length_a                   14.7042(4)
_cell_length_b                   14.0074(4)
_cell_length_c                   37.9500(9)
_cell_angle_alpha                90
_cell_angle_beta                 90
_cell_angle_gamma                90
_cell_volume                     7816.47
loop_
_atom_site_label
_atom_site_type_symbol
_atom_site_fract_x
_atom_site_fract_y
_atom_site_fract_z
Cd1 Cd 0.129398(16) 0.5000 0.2500
O1 O 0.26067(13) 0.46968(13) 0.21094(6)
O2 O 0.17001(13) 0.35199(13) 0.22580(6)
N1 N 0.53243(13) 0.41704(14) 0.21568(5)
N2 N 0.40367(14) 0.34711(14) 0.19958(5)
C1 C 0.4919(2) 0.3809(2) 0.10906(7)
H1 H 0.4802 0.3721 0.0852
C2 C 0.5733(2) 0.4205(2) 0.11924(8)
H2 H 0.6157 0.4363 0.1020
C3 C 0.5944(2) 0.4377(2) 0.15400(7)
H3 H 0.6493 0.4656 0.1605
C4 C 0.42830(18) 0.36733(19) 0.26423(6)
H4 H 0.4810 0.3723 0.2790
H5 H 0.4004 0.3060 0.2676
H6 H 0.3857 0.4166 0.2703
C5 C 0.45592(15) 0.37813(16) 0.22664(6)
C6 C 0.24304(17) 0.38308(18) 0.21353(6)
C7 C 0.4270(2) 0.3537(2) 0.13340(7)
H7 H 0.3720 0.3266 0.1266
C8 C 0.31234(16) 0.30858(18) 0.20261(7)
H8 H 0.3125 0.2574 0.2198
H9 H 0.2944 0.2816 0.1801
C9 C 0.44851(16) 0.36892(17) 0.16840(6)
C10 C 0.52988(17) 0.41136(17) 0.17888(6)
O1B O 0.26067(13) 0.53032(13) 0.28906(6)
O2B O 0.17001(13) 0.64801(13) 0.27420(6)
N1B N 0.53243(13) 0.58296(14) 0.28432(5)
N2B N 0.40367(14) 0.65289(14) 0.30042(5)
C1B C 0.4919(2) 0.6191(2) 0.39094(7)
H1B H 0.4802 0.6279 0.4148
C2B C 0.5733(2) 0.5795(2) 0.38076(8)
H2B H 0.6157 0.5637 0.3980
C3B C 0.5944(2) 0.5623(2) 0.34600(7)
H3B H 0.6493 0.5344 0.3395
C4B C 0.42830(18) 0.63267(19) 0.23577(6)
H4B H 0.4810 0.6277 0.2210
H5B H 0.4004 0.6940 0.2324
H6B H 0.3857 0.5834 0.2297
C5B C 0.45592(15) 0.62187(16) 0.27336(6)
C6B C 0.24304(17) 0.61692(18) 0.28647(6)
C7B C 0.4270(2) 0.6463(2) 0.36660(7)
H7B H 0.3720 0.6734 0.3734
C8B C 0.31234(16) 0.69142(18) 0.29739(7)
H8B H 0.3125 0.7426 0.2802
H9B H 0.2944 0.7184 0.3199
C9B C 0.44851(16) 0.63108(17) 0.33160(6)
C10B C 0.52988(17) 0.58864(17) 0.32112(6)
Cd1M Cd 0.629398(16) 0.5000 0.2500
N1M N 0.03243(13) 0.41704(14) 0.28432(5)
N1O N 0.03243(13) 0.58296(14) 0.21568(5)
Cd2 Cd 0.2500 0.593964(16) 0.0000
O3 O 0.08714(16) 0.56909(13) 0.02627(6)
O4 O 0.20319(14) 0.47327(13) 0.03579(5)
N3 N 0.09618(14) 0.32183(13) 0.05082(5)
N4 N 0.16944(15) 0.19040(14) 0.03481(5)
C11 C 0.11966(19) 0.49194(17) 0.03585(7)
C12 C 0.1860(2) 0.1231(2) 0.09647(8)
H10 H 0.2130 0.0657 0.0899
C13 C 0.1687(2) 0.1439(3) 0.13138(8)
H11 H 0.1840 0.0995 0.1486
C14 C 0.05368(18) 0.41504(17) 0.04737(7)
H12 H 0.0273 0.4330 0.0698
H13 H 0.0047 0.4109 0.0303
C15 C 0.10187(19) 0.2971(2) 0.11700(7)
H14 H 0.0748 0.3543 0.1237
C16 C 0.1286(2) 0.2298(3) 0.14133(8)
H15 H 0.1197 0.2421 0.1652
C17 C 0.12148(19) 0.29955(18) -0.01369(7)
H16 H 0.1713 0.3410 -0.0195
H17 H 0.0651 0.3330 -0.0170
H18 H 0.1230 0.2444 -0.0287
C18 C 0.11781(16) 0.27448(19) 0.08191(7)
C19 C 0.16161(17) 0.19135(18) 0.07157(6)
C20 C 0.12932(16) 0.26905(17) 0.02374(6)
O3G O 0.41286(16) 0.56909(13) -0.02627(6)
O4G O 0.29681(14) 0.47327(13) -0.03579(5)
N3G N 0.40382(14) 0.32183(13) -0.05082(5)
N4G N 0.33056(15) 0.19040(14) -0.03481(5)
C11G C 0.38034(19) 0.49194(17) -0.03585(7)
C12G C 0.3140(2) 0.1231(2) -0.09647(8)
H10G H 0.2870 0.0657 -0.0899
C13G C 0.3313(2) 0.1439(3) -0.13138(8)
H11G H 0.3160 0.0995 -0.1486
C14G C 0.44632(18) 0.41504(17) -0.04737(7)
H12G H 0.4727 0.4330 -0.0698
H13G H 0.4953 0.4109 -0.0303
C15G C 0.39813(19) 0.2971(2) -0.11700(7)
H14G H 0.4252 0.3543 -0.1237
C16G C 0.3714(2) 0.2298(3) -0.14133(8)
H15G H 0.3803 0.2421 -0.1652
C17G C 0.37852(19) 0.29955(18) 0.01369(7)
H16G H 0.3287 0.3410 0.0195
H17G H 0.4349 0.3330 0.0170
H18G H 0.3770 0.2444 0.0287
C18G C 0.38219(16) 0.27448(19) -0.08191(7)
C19G C 0.33839(17) 0.19135(18) -0.07157(6)
C20G C 0.37068(16) 0.26905(17) -0.02374(6)
Cd2I Cd 0.2500 0.093964(16) 0.0000
N4I N 0.16944(15) 0.69040(14) -0.03481(5)
N4N N 0.33056(15) 0.69040(14) 0.03481(5)
loop_
_geom_bond_atom_site_label_1
_geom_bond_atom_site_label_2
_geom_bond_site_symmetry_1
_geom_bond_site_symmetry_2
Cd1 O1 1_555 1_555
O1 C6 1_555 1_555
O2 Cd1 1_555 1_555
N1 C5 1_555 1_555
N2 C5 1_555 1_555
C1 H1 1_555 1_555
C2 C1 1_555 1_555
H2 C2 1_555 1_555
C3 C2 1_555 1_555
H3 C3 1_555 1_555
C4 H4 1_555 1_555
H5 C4 1_555 1_555
H6 C4 1_555 1_555
C5 C4 1_555 1_555
C6 O2 1_555 1_555
C7 C1 1_555 1_555
H7 C7 1_555 1_555
C8 N2 1_555 1_555
H8 C8 1_555 1_555
H9 C8 1_555 1_555
C9 N2 1_555 1_555
C10 N1 1_555 1_555
Cd2 O3 1_555 1_555
O3 C11 1_555 1_555
O4 Cd2 1_555 1_555
N3 C14 1_555 1_555
N4 C19 1_555 1_555
C11 O4 1_555 1_555
C12 H10 1_555 1_555
C13 C12 1_555 1_555
H11 C13 1_555 1_555
C14 C11 1_555 1_555
H12 C14 1_555 1_555
H13 C14 1_555 1_555
C15 H14 1_555 1_555
C16 C13 1_555 1_555
H15 C16 1_555 1_555
C17 H16 1_555 1_555
H17 C17 1_555 1_555
H18 C17 1_555 1_555
C18 N3 1_555 1_555
C19 C12 1_555 1_555
C20 N3 1_555 1_555
O1B Cd1 1_555 1_555
O2B Cd1 1_555 1_555
N1B C5B 1_555 1_555
N2B C5B 1_555 1_555
C1B H1B 1_555 1_555
C2B C1B 1_555 1_555
H2B C2B 1_555 1_555
C3B C2B 1_555 1_555
H3B C3B 1_555 1_555
C4B H4B 1_555 1_555
H5B C4B 1_555 1_555
H6B C4B 1_555 1_555
C5B C4B 1_555 1_555
C6B O1B 1_555 1_555
C7B C1B 1_555 1_555
H7B C7B 1_555 1_555
C8B N2B 1_555 1_555
H8B C8B 1_555 1_555
H9B C8B 1_555 1_555
C9B N2B 1_555 1_555
C10B N1B 1_555 1_555
Cd1M N1 1_555 1_555
N1M Cd1 1_555 1_555
N1O Cd1 1_555 1_555
O3G Cd2 1_555 1_555
O4G Cd2 1_555 1_555
N3G C14G 1_555 1_555
N4G C19G 1_555 1_555
C11G O3G 1_555 1_555
C12G H10G 1_555 1_555
C13G C12G 1_555 1_555
H11G C13G 1_555 1_555
C14G C11G 1_555 1_555
H12G C14G 1_555 1_555
H13G C14G 1_555 1_555
C15G H14G 1_555 1_555
C16G C13G 1_555 1_555
H15G C16G 1_555 1_555
C17G H16G 1_555 1_555
H17G C17G 1_555 1_555
H18G C17G 1_555 1_555
C18G N3G 1_555 1_555
C19G C12G 1_555 1_555
C20G N3G 1_555 1_555
Cd2I N4 1_555 1_555
N4I Cd2 1_555 1_555
N4N Cd2 1_555 1_555
C3 C10 1_555 1_555
C6 C8 1_555 1_555
C7 C9 1_555 1_555
C9 C10 1_555 1_555
N4 C20 1_555 1_555
C15 C16 1_555 1_555
C15 C18 1_555 1_555
C17 C20 1_555 1_555
C18 C19 1_555 1_555
O2B C6B 1_555 1_555
N1B Cd1M 1_555 1_555
C3B C10B 1_555 1_555
C6B C8B 1_555 1_555
C7B C9B 1_555 1_555
C9B C10B 1_555 1_555
O4G C11G 1_555 1_555
N4G C20G 1_555 1_555
N4G Cd2I 1_555 1_555
C15G C16G 1_555 1_555
C15G C18G 1_555 1_555
C17G C20G 1_555 1_555
C18G C19G 1_555 1_555

#END
