
#######################################################################
#
#                 Cambridge Crystallographic Data Centre
#                                CCDC 
#
#######################################################################
#
# If this CIF has been generated from an entry in the Cambridge 
# Structural Database, then it will include bibliographic, chemical, 
# crystal, experimental, refinement or atomic coordinate data resulting 
# from the CCDC's data processing and validation procedures.
#
#######################################################################

data_BOKRUP
_symmetry_cell_setting           monoclinic
_symmetry_space_group_name_H-M   'P 21/c'
_symmetry_Int_Tables_number      14
_space_group_name_Hall           '-P 2ybc'
loop_
_symmetry_equiv_pos_site_id
_symmetry_equiv_pos_as_xyz
1 x,y,z
2 -x,1/2+y,1/2-z
3 -x,-y,-z
4 x,1/2-y,1/2+z
_cell_length_a                   22.888(2)
_cell_length_b                   10.2336(7)
_cell_length_c                   21.276(2)
_cell_angle_alpha                90
_cell_angle_beta                 106.053(6)
_cell_angle_gamma                90
_cell_volume                     4789.08
loop_
_atom_site_label
_atom_site_type_symbol
_atom_site_fract_x
_atom_site_fract_y
_atom_site_fract_z
Dy1 Dy 0.24871(2) 0.30815(5) 0.01781(2)
Dy2 Dy 0.24759(2) -0.26725(5) -0.03518(2)
Co1 Co -0.03566(7) 0.21543(14) -0.14960(7)
Co2 Co 0.43159(7) 0.84521(13) 0.30874(6)
O1 O 0.0346(4) -0.1935(7) -0.4290(3)
O2 O 0.0775(4) -0.0264(8) -0.4673(4)
O3 O 0.1961(4) -0.1302(7) -0.1173(4)
O4 O 0.2477(5) 0.0393(9) -0.1388(4)
O5 O -0.1161(4) -0.1020(8) -0.1085(4)
O6 O -0.1001(4) 0.1003(8) -0.1419(4)
O7 O 0.2062(3) -0.1076(7) 0.0156(4)
O8 O 0.2003(4) 0.1059(7) -0.0087(4)
O9 O -0.0364(3) 0.1315(7) -0.2289(4)
O10 O 0.0145(4) 0.1282(9) -0.3059(4)
O11 O 0.2082(4) 0.4973(7) -0.0456(4)
O12 O 0.1444(4) 0.6554(8) -0.0822(5)
O13 O 0.4989(3) -0.2461(6) 0.2956(3)
O14 O 0.5572(4) -0.2577(8) 0.2265(4)
O15 O 0.3013(4) 0.1996(8) 0.1183(4)
O16 O 0.3321(4) 0.1555(7) 0.0323(4)
O17 O 0.4384(4) 0.7490(7) 0.3856(3)
O18 O 0.4149(4) 0.5562(8) 0.4214(3)
O19 O 0.2714(4) 0.6699(7) 0.0741(3)
O20 O 0.2462(4) 0.4662(7) 0.0937(3)
O21 O 0.6348(3) 0.4460(7) 0.1796(3)
O22 O 0.6550(4) 0.6312(10) 0.1335(5)
O23 O 0.3388(4) 0.6199(8) -0.0178(4)
O24 O 0.3384(3) 0.4274(7) 0.0323(4)
O25 O 0.1459(4) 0.3143(8) 0.0259(4)
O26 O 0.2542(4) 0.2727(8) -0.0881(3)
O27 O 0.3230(4) -0.1032(8) -0.0185(4)
O28 O 0.2658(5) -0.3358(10) -0.1361(4)
N1 N 0.0945(4) -0.1548(8) -0.3089(4)
N2 N 0.0171(4) 0.0819(9) -0.1004(4)
N3 N 0.0307(4) 0.3143(8) -0.1634(4)
N4 N 0.4300(4) -0.0677(8) 0.2285(4)
N5 N 0.3791(4) 0.7055(8) 0.2661(4)
N6 N 0.5185(4) 0.4730(8) 0.1341(4)
C1 C 0.1668(5) -0.0447(10) -0.2243(5)
C2 C -0.0820(6) -0.0126(11) -0.1156(5)
C3 C 0.4766(5) -0.0712(11) 0.1404(5)
H1 H 0.5087 -0.1009 0.1237
C4 C 0.1750(5) 0.0484(11) -0.2675(5)
H2 H 0.2022 0.1193 -0.2527
C5 C 0.1252(5) -0.1441(10) -0.2452(5)
H3 H 0.1183 -0.2053 -0.2145
C6 C 0.3186(5) 0.4737(10) 0.2222(5)
H4 H 0.2997 0.3932 0.2058
C7 C 0.1774(5) -0.0058(10) -0.0081(5)
C8 C 0.5264(5) 0.6530(10) 0.0651(5)
H5 H 0.5504 0.7191 0.0530
C9 C 0.6189(5) 0.5484(11) 0.1441(5)
C10 C 0.0472(5) 0.2742(10) -0.2161(5)
C11 C 0.2736(5) 0.5723(11) 0.1104(5)
C12 C 0.2067(6) -0.0435(11) -0.1546(6)
C13 C 0.4729(5) -0.1123(9) 0.2015(5)
C14 C 0.3379(5) 0.1419(10) 0.0929(5)
C15 C 0.4588(5) 0.4637(10) 0.1056(5)
H6 H 0.4354 0.3996 0.1200
C16 C 0.5152(5) -0.2109(10) 0.2436(5)
C17 C 0.0776(5) -0.1306(10) -0.0322(5)
H7 H 0.0986 -0.2050 -0.0104
C18 C 0.0057(5) 0.1697(10) -0.2546(5)
C19 C 0.4336(5) 0.0123(10) 0.1046(5)
H8 H 0.4348 0.0401 0.0624
C20 C 0.3453(5) 0.6936(10) 0.2040(5)
H9 H 0.3436 0.7647 0.1748
C21 C 0.3879(5) 0.0561(10) 0.1311(5)
C22 C 0.1197(5) 0.4460(10) -0.1324(6)
C23 C 0.3126(5) 0.5808(9) 0.1808(5)
C24 C 0.3867(5) 0.0152(9) 0.1930(5)
H10 H 0.3554 0.0453 0.2108
C25 C 0.0699(5) -0.0930(11) -0.4226(5)
C26 C 0.4143(5) 0.6342(11) 0.3770(5)
C27 C 0.5518(5) 0.5639(10) 0.1128(5)
C28 C -0.0136(5) -0.0269(10) -0.0899(5)
C29 C 0.1098(4) -0.0197(9) -0.0390(5)
C30 C 0.4307(4) 0.5490(10) 0.0542(4)
C31 C 0.3802(5) 0.6038(9) 0.3076(5)
C32 C 0.0771(5) 0.0856(10) -0.0758(5)
H11 H 0.0987 0.1607 -0.0832
C33 C 0.0991(6) 0.3204(11) -0.2308(6)
H12 H 0.1084 0.2950 -0.2700
C34 C 0.3520(5) 0.4837(10) 0.2874(5)
H13 H 0.3555 0.4124 0.3168
C35 C 0.1371(6) 0.4045(11) -0.1866(6)
H14 H 0.1743 0.4332 -0.1934
C36 C 0.1590(6) 0.5380(11) -0.0831(6)
C37 C 0.3648(5) 0.5277(10) 0.0214(5)
C38 C 0.0150(6) -0.1343(11) -0.0568(6)
H15 H -0.0075 -0.2090 -0.0509
C39 C 0.0655(5) 0.4036(10) -0.1227(5)
H16 H 0.0526 0.4373 -0.0872
C40 C 0.1433(6) 0.0376(11) -0.3328(5)
H17 H 0.1486 0.0997 -0.3640
C41 C 0.4644(5) 0.6435(10) 0.0347(5)
H18 H 0.4455 0.7023 0.0006
C42 C 0.1040(5) -0.0650(10) -0.3514(5)
Dy2_2 Dy 0.24759(2) 0.73275(5) -0.03518(2)
Co1A Co 0.03566(7) -0.28457(14) -0.35040(7)
Co2_2 Co 0.43159(7) -0.15479(13) 0.30874(6)
Co2A Co 0.56841(7) 0.34521(13) 0.19126(6)
O1A O -0.0346(4) 0.3065(7) -0.0710(3)
O11_2 O 0.2082(4) -0.5027(7) -0.0456(4)
O12_2 O 0.1444(4) -0.3446(8) -0.0822(5)
O13_2 O 0.4989(3) 0.7539(6) 0.2956(3)
O19_2 O 0.2714(4) -0.3301(7) 0.0741(3)
O21A O 0.3652(3) 0.9460(7) 0.3204(3)
O23_2 O 0.3388(4) -0.3801(8) -0.0178(4)
N1A N -0.0945(4) 0.3452(8) -0.1911(4)
N4_2 N 0.4300(4) 0.9323(8) 0.2285(4)
N6A N 0.4815(4) 0.9730(8) 0.3659(4)
O29 O 0.2219(5) 0.6386(11) -0.2681(5)
O30 O 0.2348(7) 0.1370(14) 0.2084(8)
loop_
_geom_bond_atom_site_label_1
_geom_bond_atom_site_label_2
_geom_bond_site_symmetry_1
_geom_bond_site_symmetry_2
Dy1 O8 1_555 1_555
Dy2 O3 1_555 1_555
Co1 O6 1_555 1_555
Co2 O17 1_555 1_555
O1 C25 1_555 1_555
O2 C25 1_555 1_555
O3 C12 1_555 1_555
O4 C12 1_555 1_555
O5 C2 1_555 1_555
O6 C2 1_555 1_555
O7 Dy2 1_555 1_555
O8 C7 1_555 1_555
O9 Co1 1_555 1_555
O10 C18 1_555 1_555
O11 Dy1 1_555 1_555
O12 C36 1_555 1_555
O13 C16 1_555 1_555
O14 C16 1_555 1_555
O15 Dy1 1_555 1_555
O16 Dy1 1_555 1_555
O17 C26 1_555 1_555
O18 C26 1_555 1_555
O19 C11 1_555 1_555
O20 Dy1 1_555 1_555
O21 C9 1_555 1_555
O22 C9 1_555 1_555
O23 C37 1_555 1_555
O24 Dy1 1_555 1_555
O25 Dy1 1_555 1_555
O26 Dy1 1_555 1_555
O27 Dy2 1_555 1_555
O28 Dy2 1_555 1_555
N1 C5 1_555 1_555
N2 Co1 1_555 1_555
N3 Co1 1_555 1_555
N4 C13 1_555 1_555
N5 Co2 1_555 1_555
N6 C15 1_555 1_555
C1 C4 1_555 1_555
C2 C28 1_555 1_555
C3 H1 1_555 1_555
C4 H2 1_555 1_555
C5 C1 1_555 1_555
H3 C5 1_555 1_555
C6 H4 1_555 1_555
C7 O7 1_555 1_555
C8 H5 1_555 1_555
C9 C27 1_555 1_555
C10 N3 1_555 1_555
C11 O20 1_555 1_555
C12 C1 1_555 1_555
C13 C3 1_555 1_555
C14 O15 1_555 1_555
C15 H6 1_555 1_555
C16 C13 1_555 1_555
C17 H7 1_555 1_555
C18 O9 1_555 1_555
C19 C3 1_555 1_555
H8 C19 1_555 1_555
C20 N5 1_555 1_555
H9 C20 1_555 1_555
C21 C14 1_555 1_555
C22 C35 1_555 1_555
C23 C6 1_555 1_555
C24 N4 1_555 1_555
H10 C24 1_555 1_555
C25 C42 1_555 1_555
C26 C31 1_555 1_555
C27 N6 1_555 1_555
C28 N2 1_555 1_555
C29 C7 1_555 1_555
C30 C15 1_555 1_555
C31 N5 1_555 1_555
C32 N2 1_555 1_555
H11 C32 1_555 1_555
C33 C10 1_555 1_555
H12 C33 1_555 1_555
C34 C6 1_555 1_555
H13 C34 1_555 1_555
C35 C33 1_555 1_555
H14 C35 1_555 1_555
C36 O11 1_555 1_555
C37 O24 1_555 1_555
C38 C17 1_555 1_555
H15 C38 1_555 1_555
C39 N3 1_555 1_555
H16 C39 1_555 1_555
C40 C4 1_555 1_555
H17 C40 1_555 1_555
C41 C8 1_555 1_555
H18 C41 1_555 1_555
C42 N1 1_555 1_555
Dy2_2 O11 1_555 1_555
Co1A O1 1_555 1_555
Co2_2 O13 1_555 1_555
Co2A O21 1_555 1_555
O1A Co1 1_555 1_555
O11_2 Dy2 1_555 1_555
O12_2 Dy2 1_555 1_555
O13_2 Co2 1_555 1_555
O19_2 Dy2 1_555 1_555
O21A Co2 1_555 1_555
O23_2 Dy2 1_555 1_555
N1A Co1 1_555 1_555
N4_2 Co2 1_555 1_555
N6A Co2 1_555 1_555
O12 Dy2_2 1_555 1_555
O16 C14 1_555 1_555
O19 Dy2_2 1_555 1_555
O23 Dy2_2 1_555 1_555
N1 Co1A 1_555 1_555
N4 Co2_2 1_555 1_555
N6 Co2A 1_555 1_555
C8 C27 1_555 1_555
C10 C18 1_555 1_555
C11 C23 1_555 1_555
C17 C29 1_555 1_555
C19 C21 1_555 1_555
C20 C23 1_555 1_555
C21 C24 1_555 1_555
C22 C36 1_555 1_555
C22 C39 1_555 1_555
C28 C38 1_555 1_555
C29 C32 1_555 1_555
C30 C37 1_555 1_555
C30 C41 1_555 1_555
C31 C34 1_555 1_555
C40 C42 1_555 1_555

#END
