
#######################################################################
#
#                 Cambridge Crystallographic Data Centre
#                                CCDC 
#
#######################################################################
#
# If this CIF has been generated from an entry in the Cambridge 
# Structural Database, then it will include bibliographic, chemical, 
# crystal, experimental, refinement or atomic coordinate data resulting 
# from the CCDC's data processing and validation procedures.
#
#######################################################################

data_BOKROJ
_symmetry_cell_setting           monoclinic
_symmetry_space_group_name_H-M   'P 21/c'
_symmetry_Int_Tables_number      14
_space_group_name_Hall           '-P 2ybc'
loop_
_symmetry_equiv_pos_site_id
_symmetry_equiv_pos_as_xyz
1 x,y,z
2 -x,1/2+y,1/2-z
3 -x,-y,-z
4 x,1/2-y,1/2+z
_cell_length_a                   22.8717(14)
_cell_length_b                   10.2309(5)
_cell_length_c                   21.2820(16)
_cell_angle_alpha                90
_cell_angle_beta                 105.910(2)
_cell_angle_gamma                90
_cell_volume                     4789.18
loop_
_atom_site_label
_atom_site_type_symbol
_atom_site_fract_x
_atom_site_fract_y
_atom_site_fract_z
Tb1 Tb 0.251667(10) 0.30715(2) 0.482341(11)
Tb2 Tb 0.252820(10) -0.26828(2) 0.535050(11)
Co1 Co 0.53629(3) 0.21466(6) 0.64942(3)
Co2 Co -0.06863(3) 0.34447(6) 0.30922(3)
O1 O 0.60008(15) 0.0999(3) 0.64131(18)
O2 O 0.61582(17) -0.1013(4) 0.6084(2)
O3 O 0.29467(15) -0.1074(3) 0.48383(16)
O4 O 0.30048(16) 0.1048(3) 0.50839(18)
O5 O 0.46443(16) -0.1948(3) 0.92879(16)
O6 O 0.42296(19) -0.0270(4) 0.96695(18)
O7 O 0.30428(17) -0.1288(4) 0.61743(17)
O8 O 0.25043(19) 0.0379(4) 0.6405(2)
O9 O 0.53635(15) 0.1307(3) 0.72863(17)
O10 O 0.4849(2) 0.1236(5) 0.8042(2)
O11 O 0.29274(17) 0.4976(3) 0.54638(17)
O12 O 0.35694(17) 0.6540(4) 0.5836(2)
O13 O 0.16124(16) 0.4280(3) 0.46709(19)
O14 O 0.16084(16) 0.6186(4) 0.51810(18)
O15 O -0.13475(15) 0.4448(4) 0.32078(17)
O16 O -0.15477(18) 0.6311(5) 0.3661(2)
O17 O 0.25341(16) 0.4654(3) 0.40447(16)
O18 O 0.22753(18) 0.6685(3) 0.42401(17)
O19 O 0.08399(18) 0.5549(4) 0.07788(17)
O20 O 0.06213(17) 0.7479(4) 0.11320(17)
O21 O 0.19838(19) 0.1976(4) 0.38054(19)
O22 O 0.16737(17) 0.1538(4) 0.46681(18)
O23 O 0.00095(17) -0.2460(3) 0.20394(17)
O24 O -0.0577(2) -0.2579(4) 0.2727(2)
O25 O 0.24433(17) 0.2701(4) 0.58795(18)
O26 O 0.35526(17) 0.3136(3) 0.47319(19)
O27 O 0.17685(18) -0.1054(4) 0.5186(2)
O28 O 0.2359(2) -0.3359(5) 0.6367(2)
N1 N 0.48337(18) 0.0809(4) 0.59989(19)
N2 N 0.40536(18) -0.1541(4) 0.80952(19)
N3 N 0.46967(18) 0.3135(4) 0.66270(19)
N4 N -0.01878(18) 0.4714(4) 0.36600(19)
N5 N 0.12192(19) 0.7039(4) 0.23329(19)
N6 N 0.07074(18) -0.0696(4) 0.27199(19)
C1 C 0.5144(2) -0.0267(5) 0.5901(2)
C2 C 0.4854(2) -0.1352(5) 0.5578(3)
H1 H 0.5080 -0.2111 0.5534
C3 C 0.4225(2) -0.1319(5) 0.5316(2)
H2 H 0.4014 -0.2054 0.5090
C4 C 0.3911(2) -0.0189(4) 0.5391(2)
C5 C 0.4232(2) 0.0854(5) 0.5746(2)
H3 H 0.4017 0.1615 0.5809
C6 C 0.3237(2) -0.0064(4) 0.5081(2)
C7 C 0.5820(2) -0.0115(5) 0.6151(2)
C8 C 0.3746(2) -0.1449(5) 0.7461(2)
H4 H 0.3818 -0.2069 0.7158
C9 C 0.3323(2) -0.0451(5) 0.7241(2)
C10 C 0.3243(2) 0.0475(5) 0.7678(3)
H5 H 0.2970 0.1182 0.7534
C11 C 0.3564(2) 0.0372(5) 0.8331(2)
H6 H 0.3513 0.1002 0.8639
C12 C 0.3958(2) -0.0655(5) 0.8524(2)
C13 C 0.2929(2) -0.0437(5) 0.6552(2)
C14 C 0.4293(2) -0.0946(5) 0.9220(2)
C15 C 0.4534(2) 0.2722(5) 0.7160(2)
C16 C 0.4018(3) 0.3181(5) 0.7294(3)
H7 H 0.3917 0.2912 0.7679
C17 C 0.3644(3) 0.4044(5) 0.6860(3)
H8 H 0.3275 0.4344 0.6934
C18 C 0.3818(2) 0.4460(4) 0.6319(2)
C19 C 0.4356(2) 0.4029(4) 0.6227(2)
H9 H 0.4490 0.4367 0.5874
C20 C 0.3420(2) 0.5378(5) 0.5839(3)
C21 C 0.4939(2) 0.1674(5) 0.7542(2)
C22 C -0.0519(2) 0.5618(5) 0.3866(2)
C23 C -0.0268(2) 0.6521(5) 0.4347(3)
H10 H -0.0510 0.7174 0.4471
C24 C 0.0354(2) 0.6439(5) 0.4643(2)
H11 H 0.0544 0.7042 0.4976
C25 C 0.0693(2) 0.5483(4) 0.4453(2)
C26 C 0.0407(2) 0.4636(5) 0.3949(2)
H12 H 0.0641 0.3990 0.3808
C27 C -0.1190(2) 0.5487(5) 0.3555(2)
C28 C 0.1359(2) 0.5298(5) 0.4793(2)
C29 C 0.1197(2) 0.6026(5) 0.1917(2)
C30 C 0.1477(3) 0.4861(5) 0.2120(3)
H13 H 0.1442 0.4152 0.1824
C31 C 0.1811(2) 0.4734(5) 0.2767(3)
H14 H 0.2000 0.3925 0.2923
C32 C 0.1868(2) 0.5783(5) 0.3183(2)
C33 C 0.1554(2) 0.6933(5) 0.2948(2)
H15 H 0.1582 0.7655 0.3235
C34 C 0.0854(2) 0.6333(5) 0.1219(2)
C35 C 0.2258(2) 0.5709(5) 0.3884(2)
C36 C 0.0264(2) -0.1129(4) 0.2977(2)
C37 C 0.0223(2) -0.0729(5) 0.3576(3)
H16 H -0.0102 -0.1023 0.3739
C38 C 0.0660(3) 0.0110(5) 0.3941(3)
H17 H 0.0644 0.0388 0.4362
C39 C 0.1125(2) 0.0543(5) 0.3682(2)
C40 C 0.1123(2) 0.0145(4) 0.3059(2)
H18 H 0.1424 0.0475 0.2869
C41 C 0.1615(2) 0.1414(5) 0.4070(3)
C42 C -0.0143(2) -0.2135(5) 0.2560(2)
H21 H 0.2719 0.3254 0.6083
H22 H 0.2526 0.1911 0.5964
H23 H 0.3729 0.3752 0.4950
H24 H 0.1815 -0.0243 0.5196
H25 H 0.3733 0.2662 0.4540
H26 H 0.1501 -0.1302 0.4849
H27 H 0.2517 -0.3088 0.6751
H28 H 0.2012 -0.3796 0.6344
Tb2_2 Tb 0.252820(10) 0.73172(2) 0.535050(11)
Co1A Co 0.46371(3) -0.28534(6) 0.85058(3)
Co2A Co 0.06863(3) 0.84447(6) 0.19078(3)
Co2A_2 Co 0.06863(3) -0.15553(6) 0.19078(3)
O5A O 0.53557(16) 0.3052(3) 0.57121(16)
O11_2 O 0.29274(17) -0.5024(3) 0.54638(17)
O12_2 O 0.35694(17) -0.3460(4) 0.5836(2)
O14_2 O 0.16084(16) -0.3814(4) 0.51810(18)
O18_2 O 0.22753(18) -0.3315(3) 0.42401(17)
O20A O -0.06213(17) 0.2479(4) 0.38680(17)
O23A O -0.00095(17) 0.2540(3) 0.29606(17)
N2A N 0.59464(18) 0.3459(4) 0.69048(19)
N5A N -0.12192(19) 0.2039(4) 0.26671(19)
N6A N -0.07074(18) 0.4304(4) 0.22801(19)
O29 O 0.2788(2) 0.6392(6) 0.7679(3)
H29 H 0.2411 0.6177 0.7615
H30 H 0.3059 0.6016 0.7952
O30 O 0.7326(3) 0.8602(7) 0.7078(4)
H19 H 0.7596 0.8532 0.7477
H20 H 0.7234 0.9205 0.6822
loop_
_geom_bond_atom_site_label_1
_geom_bond_atom_site_label_2
_geom_bond_site_symmetry_1
_geom_bond_site_symmetry_2
Tb1 O4 1_555 1_555
Tb2 O3 1_555 1_555
Co1 O1 1_555 1_555
Co2 O15 1_555 1_555
O1 C7 1_555 1_555
O2 C7 1_555 1_555
O3 C6 1_555 1_555
O4 C6 1_555 1_555
O5 C14 1_555 1_555
O6 C14 1_555 1_555
O7 Tb2 1_555 1_555
O8 C13 1_555 1_555
O9 Co1 1_555 1_555
O10 C21 1_555 1_555
O11 Tb1 1_555 1_555
O12 C20 1_555 1_555
O13 Tb1 1_555 1_555
O14 C28 1_555 1_555
O15 C27 1_555 1_555
O16 C27 1_555 1_555
O17 Tb1 1_555 1_555
O18 C35 1_555 1_555
O19 C34 1_555 1_555
O20 C34 1_555 1_555
O21 Tb1 1_555 1_555
O22 Tb1 1_555 1_555
O23 C42 1_555 1_555
O24 C42 1_555 1_555
O25 Tb1 1_555 1_555
O26 Tb1 1_555 1_555
O27 Tb2 1_555 1_555
O28 Tb2 1_555 1_555
O29 H29 1_555 1_555
O30 H19 1_555 1_555
N1 Co1 1_555 1_555
N2 C8 1_555 1_555
N3 Co1 1_555 1_555
N4 Co2 1_555 1_555
N5 C29 1_555 1_555
N6 C36 1_555 1_555
C1 N1 1_555 1_555
C2 C1 1_555 1_555
H1 C2 1_555 1_555
C3 C2 1_555 1_555
H2 C3 1_555 1_555
C4 C3 1_555 1_555
C5 N1 1_555 1_555
H3 C5 1_555 1_555
C6 C4 1_555 1_555
C7 C1 1_555 1_555
C8 H4 1_555 1_555
C9 C8 1_555 1_555
C10 C9 1_555 1_555
H5 C10 1_555 1_555
C11 C10 1_555 1_555
H6 C11 1_555 1_555
C12 N2 1_555 1_555
C13 O7 1_555 1_555
C14 C12 1_555 1_555
C15 N3 1_555 1_555
C16 C15 1_555 1_555
H7 C16 1_555 1_555
C17 C16 1_555 1_555
H8 C17 1_555 1_555
C18 C17 1_555 1_555
C19 N3 1_555 1_555
H9 C19 1_555 1_555
C20 O11 1_555 1_555
C21 O9 1_555 1_555
C22 N4 1_555 1_555
C23 C22 1_555 1_555
H10 C23 1_555 1_555
C24 C23 1_555 1_555
H11 C24 1_555 1_555
C25 C24 1_555 1_555
C26 N4 1_555 1_555
H12 C26 1_555 1_555
C27 C22 1_555 1_555
C28 O13 1_555 1_555
C29 C30 1_555 1_555
C30 H13 1_555 1_555
C31 C30 1_555 1_555
H14 C31 1_555 1_555
C32 C31 1_555 1_555
C33 N5 1_555 1_555
H15 C33 1_555 1_555
C34 C29 1_555 1_555
C35 O17 1_555 1_555
C36 C37 1_555 1_555
C37 H16 1_555 1_555
C38 C37 1_555 1_555
H17 C38 1_555 1_555
C39 C38 1_555 1_555
C40 N6 1_555 1_555
H18 C40 1_555 1_555
C41 O21 1_555 1_555
C42 C36 1_555 1_555
H20 O30 1_555 1_555
H21 O25 1_555 1_555
H22 O25 1_555 1_555
H23 O26 1_555 1_555
H24 O27 1_555 1_555
H25 O26 1_555 1_555
H26 O27 1_555 1_555
H27 O28 1_555 1_555
H28 O28 1_555 1_555
H30 O29 1_555 1_555
Tb2_2 O11 1_555 1_555
Co1A O5 1_555 1_555
Co2A O20 1_555 1_555
Co2A_2 O23 1_555 1_555
O5A Co1 1_555 1_555
O11_2 Tb2 1_555 1_555
O12_2 Tb2 1_555 1_555
O14_2 Tb2 1_555 1_555
O18_2 Tb2 1_555 1_555
O20A Co2 1_555 1_555
O23A Co2 1_555 1_555
N2A Co1 1_555 1_555
N5A Co2 1_555 1_555
N6A Co2 1_555 1_555
O12 Tb2_2 1_555 1_555
O14 Tb2_2 1_555 1_555
O18 Tb2_2 1_555 1_555
O22 C41 1_555 1_555
N2 Co1A 1_555 1_555
N5 Co2A 1_555 1_555
N6 Co2A_2 1_555 1_555
C4 C5 1_555 1_555
C9 C13 1_555 1_555
C11 C12 1_555 1_555
C15 C21 1_555 1_555
C18 C19 1_555 1_555
C18 C20 1_555 1_555
C25 C26 1_555 1_555
C25 C28 1_555 1_555
C32 C33 1_555 1_555
C32 C35 1_555 1_555
C39 C40 1_555 1_555
C39 C41 1_555 1_555

#END
