
#######################################################################
#
#                 Cambridge Crystallographic Data Centre
#                                CCDC 
#
#######################################################################
#
# If this CIF has been generated from an entry in the Cambridge 
# Structural Database, then it will include bibliographic, chemical, 
# crystal, experimental, refinement or atomic coordinate data resulting 
# from the CCDC's data processing and validation procedures.
#
#######################################################################

data_BOKSOK
_symmetry_cell_setting           triclinic
_symmetry_space_group_name_H-M   'P -1'
_symmetry_Int_Tables_number      2
_space_group_name_Hall           '-P 1'
loop_
_symmetry_equiv_pos_site_id
_symmetry_equiv_pos_as_xyz
1 x,y,z
2 -x,-y,-z
_cell_length_a                   8.6540(2)
_cell_length_b                   8.9690(2)
_cell_length_c                   17.5736(5)
_cell_angle_alpha                96.838(2)
_cell_angle_beta                 103.784(2)
_cell_angle_gamma                94.360(2)
_cell_volume                     1307.59
loop_
_atom_site_label
_atom_site_type_symbol
_atom_site_fract_x
_atom_site_fract_y
_atom_site_fract_z
Fe1 Fe 0.0000 0.5000 0.5000
Fe2 Fe 0.5000 1.0000 1.0000
S1 S 0.31552(13) 0.32910(11) 0.73394(6)
S2 S 0.7893(2) 1.1591(2) 0.81819(10)
N1 N -0.0074(3) 0.7286(3) 0.56193(16)
N2 N 0.4342(3) 0.7221(3) 0.86146(15)
N3 N 0.1917(3) 0.6192(3) 0.45931(16)
N4 N 0.2737(3) 0.7702(3) 0.58369(16)
N5 N 0.2754(3) 0.8664(3) 0.92548(17)
N6 N 0.5993(3) 0.7826(3) 0.99050(16)
C1 C 0.3480(4) 0.7609(4) 0.72430(19)
H1 H 0.2471 0.7818 0.7294
N7 N 0.6145(3) 0.7141(3) 0.78321(17)
C2 C 0.1259(4) 0.8249(4) 0.58940(19)
C3 C 0.2807(4) 0.7464(4) 0.87434(19)
N8 N 0.1620(4) 0.4427(4) 0.59820(18)
C4 C 0.5553(4) 0.6822(4) 0.92456(19)
C5 C 0.3882(4) 0.7569(4) 0.65254(19)
N9 N 0.5360(3) 0.7370(4) 0.64514(17)
C6 C 0.1485(4) 0.6463(4) 0.8358(2)
H2 H 0.1580 0.5623 0.8014
C7 C 0.2984(4) 0.7273(4) 0.50690(19)
C8 C 0.1270(4) 0.9710(4) 0.6236(2)
H3 H 0.2224 1.0344 0.6413
C9 C 0.2255(4) 0.3955(4) 0.6547(2)
C10 C 0.4209(4) 0.7992(4) 0.4829(2)
H4 H 0.4934 0.8735 0.5174
C11 C -0.1461(4) 0.7815(4) 0.5677(2)
H5 H -0.2409 0.7183 0.5470
N10 N 0.5791(4) 1.0565(4) 0.90233(19)
C12 C 0.4647(4) 0.7325(4) 0.78795(19)
C13 C 0.1306(4) 0.8885(5) 0.9385(2)
H6 H 0.1241 0.9703 0.9750
C14 C -0.0069(4) 0.7976(5) 0.9010(2)
H7 H -0.1045 0.8196 0.9105
C15 C 0.0015(4) 0.6736(4) 0.8493(2)
H8 H -0.0900 0.6088 0.8238
C16 C 0.4339(5) 0.7594(5) 0.4070(2)
H9 H 0.5165 0.8057 0.3897
C17 C 0.7852(5) 0.6188(5) 1.0465(2)
H10 H 0.8664 0.6010 1.0886
C18 C 0.6195(4) 0.5468(4) 0.9162(2)
H11 H 0.5838 0.4781 0.8701
C19 C -0.1536(5) 0.9250(4) 0.6029(2)
H12 H -0.2514 0.9561 0.6075
C20 C 0.3248(5) 0.6512(5) 0.3570(2)
H13 H 0.3318 0.6230 0.3053
C21 C -0.0156(5) 1.0223(4) 0.6312(3)
H14 H -0.0184 1.1201 0.6549
C22 C 0.7378(5) 0.5164(5) 0.9781(2)
H15 H 0.7855 0.4273 0.9739
C23 C 0.6379(4) 0.7207(5) 0.7120(2)
H16 H 0.7425 0.7126 0.7084
C24 C 0.7103(5) 0.7469(4) 1.0510(2)
H17 H 0.7376 0.8127 1.0984
C25 C 0.2046(5) 0.5851(5) 0.3847(2)
H18 H 0.1286 0.5135 0.3502
C26 C 0.6645(5) 1.0991(5) 0.8663(2)
Fe2_2 Fe -0.5000 0.0000 0.0000
S1A S -0.31552(13) 0.67090(11) 0.26606(6)
S2A S 0.2107(2) 0.8409(2) 1.18181(10)
N1A N 0.0074(3) 0.2714(3) 0.43807(16)
N2A N -0.4342(3) 0.2779(3) 0.13854(15)
N3A N -0.1917(3) 0.3808(3) 0.54069(16)
N4A N -0.2737(3) 0.2298(3) 0.41631(16)
N5A N -0.2754(3) 0.1336(3) 0.07452(17)
N5A_2 N 0.7246(3) 1.1336(3) 1.07452(17)
N6A N -0.5993(3) 0.2174(3) 0.00950(16)
N6A_2 N 0.4007(3) 1.2174(3) 1.00950(16)
C1A C -0.3480(4) 0.2391(4) 0.27570(19)
H1A H -0.2471 0.2182 0.2706
N7A N -0.6145(3) 0.2859(3) 0.21679(17)
C2A C -0.1259(4) 0.1751(4) 0.41060(19)
C3A C -0.2807(4) 0.2536(4) 0.12566(19)
N8A N -0.1620(4) 0.5573(4) 0.40180(18)
C4A C -0.5553(4) 0.3178(4) 0.07544(19)
C5A C -0.3882(4) 0.2431(4) 0.34746(19)
N9A N -0.5360(3) 0.2630(4) 0.35486(17)
C6A C -0.1485(4) 0.3537(4) 0.1642(2)
H2A H -0.1580 0.4377 0.1986
C7A C -0.2984(4) 0.2727(4) 0.49310(19)
C8A C -0.1270(4) 0.0290(4) 0.3764(2)
H3A H -0.2224 -0.0344 0.3587
C9A C -0.2255(4) 0.6045(4) 0.3453(2)
C10A C -0.4209(4) 0.2008(4) 0.5171(2)
H4A H -0.4934 0.1265 0.4826
C11A C 0.1461(4) 0.2185(4) 0.4323(2)
H5A H 0.2409 0.2817 0.4530
N10A N 0.4209(4) 0.9435(4) 1.09767(19)
C12A C -0.4647(4) 0.2675(4) 0.21205(19)
C13A C -0.1306(4) 0.1115(5) 0.0615(2)
H6A H -0.1241 0.0297 0.0250
C14A C 0.0069(4) 0.2024(5) 0.0990(2)
H7A H 0.1045 0.1804 0.0895
C15A C -0.0015(4) 0.3264(4) 0.1507(2)
H8A H 0.0900 0.3912 0.1762
C16A C -0.4339(5) 0.2406(5) 0.5930(2)
H9A H -0.5165 0.1943 0.6103
C17A C -0.7852(5) 0.3812(5) -0.0465(2)
H10A H -0.8664 0.3990 -0.0886
C18A C -0.6195(4) 0.4532(4) 0.0838(2)
H11A H -0.5838 0.5219 0.1299
C19A C 0.1536(5) 0.0750(4) 0.3971(2)
H12A H 0.2514 0.0439 0.3925
C20A C -0.3248(5) 0.3488(5) 0.6430(2)
H13A H -0.3318 0.3770 0.6947
C21A C 0.0156(5) -0.0223(4) 0.3688(3)
H14A H 0.0184 -0.1201 0.3451
C22A C -0.7378(5) 0.4836(5) 0.0219(2)
H15A H -0.7855 0.5727 0.0261
C23A C -0.6379(4) 0.2793(5) 0.2880(2)
H16A H -0.7425 0.2874 0.2916
C24A C -0.7103(5) 0.2531(4) -0.0510(2)
H17A H -0.7376 0.1873 -0.0984
C25A C -0.2046(5) 0.4149(5) 0.6153(2)
H18A H -0.1286 0.4865 0.6498
C26A C 0.3355(5) 0.9009(5) 1.1337(2)
loop_
_geom_bond_atom_site_label_1
_geom_bond_atom_site_label_2
_geom_bond_site_symmetry_1
_geom_bond_site_symmetry_2
Fe1 N1 1_555 1_555
Fe2 N5 1_555 1_555
S1 C9 1_555 1_555
S2 C26 1_555 1_555
N1 C2 1_555 1_555
N2 C3 1_555 1_555
N3 Fe1 1_555 1_555
N4 C2 1_555 1_555
N5 C3 1_555 1_555
N6 Fe2 1_555 1_555
C1 H1 1_555 1_555
N7 C12 1_555 1_555
C2 C8 1_555 1_555
C3 C6 1_555 1_555
N8 Fe1 1_555 1_555
C4 N2 1_555 1_555
C5 N4 1_555 1_555
N9 C5 1_555 1_555
C6 H2 1_555 1_555
C7 N3 1_555 1_555
C8 H3 1_555 1_555
C9 N8 1_555 1_555
C10 C7 1_555 1_555
H4 C10 1_555 1_555
C11 N1 1_555 1_555
H5 C11 1_555 1_555
N10 Fe2 1_555 1_555
C12 N2 1_555 1_555
C13 N5 1_555 1_555
H6 C13 1_555 1_555
C14 C13 1_555 1_555
H7 C14 1_555 1_555
C15 C6 1_555 1_555
H8 C15 1_555 1_555
C16 C10 1_555 1_555
H9 C16 1_555 1_555
C17 H10 1_555 1_555
C18 C4 1_555 1_555
H11 C18 1_555 1_555
C19 C11 1_555 1_555
H12 C19 1_555 1_555
C20 C16 1_555 1_555
H13 C20 1_555 1_555
C21 C8 1_555 1_555
H14 C21 1_555 1_555
C22 C17 1_555 1_555
H15 C22 1_555 1_555
C23 N7 1_555 1_555
H16 C23 1_555 1_555
C24 N6 1_555 1_555
H17 C24 1_555 1_555
C25 N3 1_555 1_555
H18 C25 1_555 1_555
C26 N10 1_555 1_555
Fe2_2 N5A 1_555 1_555
S1A C9A 1_555 1_555
S2A C26A 1_555 1_555
N1A Fe1 1_555 1_555
N2A C3A 1_555 1_555
N3A Fe1 1_555 1_555
N4A C2A 1_555 1_555
N5A C3A 1_555 1_555
N5A_2 Fe2 1_555 1_555
N6A Fe2_2 1_555 1_555
N6A_2 Fe2 1_555 1_555
C1A H1A 1_555 1_555
N7A C12A 1_555 1_555
C2A N1A 1_555 1_555
C3A C6A 1_555 1_555
N8A Fe1 1_555 1_555
C4A N2A 1_555 1_555
C5A N4A 1_555 1_555
N9A C5A 1_555 1_555
C6A H2A 1_555 1_555
C7A N3A 1_555 1_555
C8A C2A 1_555 1_555
H3A C8A 1_555 1_555
C9A N8A 1_555 1_555
C10A C7A 1_555 1_555
H4A C10A 1_555 1_555
C11A N1A 1_555 1_555
H5A C11A 1_555 1_555
N10A Fe2 1_555 1_555
C12A N2A 1_555 1_555
C13A N5A 1_555 1_555
H6A C13A 1_555 1_555
C14A C13A 1_555 1_555
H7A C14A 1_555 1_555
C15A C6A 1_555 1_555
H8A C15A 1_555 1_555
C16A C10A 1_555 1_555
H9A C16A 1_555 1_555
C17A H10A 1_555 1_555
C18A C4A 1_555 1_555
H11A C18A 1_555 1_555
C19A C11A 1_555 1_555
H12A C19A 1_555 1_555
C20A C16A 1_555 1_555
H13A C20A 1_555 1_555
C21A C8A 1_555 1_555
H14A C21A 1_555 1_555
C22A C17A 1_555 1_555
H15A C22A 1_555 1_555
C23A N7A 1_555 1_555
H16A C23A 1_555 1_555
C24A N6A 1_555 1_555
H17A C24A 1_555 1_555
C25A N3A 1_555 1_555
H18A C25A 1_555 1_555
C26A N10A 1_555 1_555
N4 C7 1_555 1_555
N6 C4 1_555 1_555
C1 C5 1_555 1_555
C1 C12 1_555 1_555
N9 C23 1_555 1_555
C14 C15 1_555 1_555
C17 C24 1_555 1_555
C18 C22 1_555 1_555
C19 C21 1_555 1_555
C20 C25 1_555 1_555
N4A C7A 1_555 1_555
N6A C4A 1_555 1_555
C1A C5A 1_555 1_555
C1A C12A 1_555 1_555
N9A C23A 1_555 1_555
C14A C15A 1_555 1_555
C17A C24A 1_555 1_555
C18A C22A 1_555 1_555
C19A C21A 1_555 1_555
C20A C25A 1_555 1_555

#END
