
#######################################################################
#
#                 Cambridge Crystallographic Data Centre
#                                CCDC 
#
#######################################################################
#
# If this CIF has been generated from an entry in the Cambridge 
# Structural Database, then it will include bibliographic, chemical, 
# crystal, experimental, refinement or atomic coordinate data resulting 
# from the CCDC's data processing and validation procedures.
#
#######################################################################

data_BOKSAW
_symmetry_cell_setting           triclinic
_symmetry_space_group_name_H-M   'P -1'
_symmetry_Int_Tables_number      2
_space_group_name_Hall           '-P 1'
loop_
_symmetry_equiv_pos_site_id
_symmetry_equiv_pos_as_xyz
1 x,y,z
2 -x,-y,-z
_cell_length_a                   12.639(4)
_cell_length_b                   14.490(5)
_cell_length_c                   14.828(6)
_cell_angle_alpha                88.661(14)
_cell_angle_beta                 73.830(9)
_cell_angle_gamma                71.340(11)
_cell_volume                     2464.6
loop_
_atom_site_label
_atom_site_type_symbol
_atom_site_fract_x
_atom_site_fract_y
_atom_site_fract_z
Tb1 Tb 0.49470(5) 0.13455(4) 0.38289(4)
Tb2 Tb 0.55969(5) 0.35655(4) 0.11005(4)
Co1 Co 0.10237(14) 0.72601(11) 0.43569(11)
Co2 Co 0.12104(15) 0.21693(11) 0.01725(12)
O1 O 0.0922(8) 0.7612(6) 0.5593(6)
O2 O 0.1801(9) 0.7168(6) 0.6724(6)
O3 O 0.4243(8) 0.3775(5) 0.2562(5)
O4 O 0.5019(8) 0.2932(6) 0.3626(6)
O5 O 1.2143(7) -0.2093(6) 0.3888(6)
O6 O 1.2313(9) -0.0690(8) 0.3324(8)
O7 O 0.6333(8) -0.0530(6) 0.5415(7)
O8 O 0.6168(8) 0.0860(6) 0.4754(6)
O9 O 1.0157(8) 0.3329(6) -0.4762(6)
O10 O 1.1325(11) 0.3899(9) -0.4202(7)
O11 O 0.7391(9) 0.3720(8) 0.0193(6)
O12 O 0.6659(10) 0.2922(7) -0.0544(7)
O13 O -0.0064(7) 0.3340(6) 0.0383(6)
O14 O -0.1225(10) 0.4555(7) 0.1487(7)
O15 O 0.4061(8) 0.1464(6) 0.2570(6)
O16 O 0.2994(8) 0.2390(7) 0.3868(7)
O17 O 0.8979(8) 0.8151(6) 0.0987(6)
O18 O 0.8131(9) 0.8210(7) 0.2537(6)
O19 O 0.5797(10) 0.5795(8) -0.0278(7)
O20 O 0.5290(9) 0.5243(6) 0.1161(7)
O21 O 1.2479(8) 0.0977(6) 0.0033(7)
O22 O 1.2852(10) -0.0585(8) 0.0320(11)
O23 O 0.6700(8) 0.2174(7) 0.1588(7)
O24 O 0.6785(8) 0.1039(6) 0.2647(7)
O25 O 0.5807(10) -0.0393(7) 0.3292(8)
O26 O 0.3872(9) 0.2192(7) 0.5428(6)
O27 O 0.6650(8) 0.3985(6) 0.2206(6)
O28 O 0.4898(11) 0.2215(7) 0.0851(7)
N1 N 0.2193(9) 0.6102(7) 0.4505(7)
N2 N 0.9928(9) -0.1477(6) 0.4308(6)
N3 N 0.8942(9) 0.3138(7) -0.3126(7)
N4 N 0.1325(9) 0.2573(7) 0.1341(7)
N5 N 0.7767(10) 0.7170(7) 0.0564(7)
N6 N 1.0272(10) 0.1395(6) 0.0749(7)
C1 C 0.2409(11) 0.6116(8) 0.5339(9)
C2 C 0.3219(14) 0.5324(9) 0.5619(10)
H1 H 0.3306 0.5334 0.6234
C3 C 0.3883(13) 0.4530(9) 0.4975(10)
H2 H 0.4461 0.4003 0.5133
C4 C 0.3695(12) 0.4515(8) 0.4092(8)
C5 C 0.2851(11) 0.5311(8) 0.3875(9)
H3 H 0.2729 0.5305 0.3271
C6 C 0.1681(10) 0.7029(7) 0.5984(9)
C7 C 0.4347(11) 0.3705(8) 0.3367(9)
C8 C 1.0434(11) -0.0844(9) 0.3923(8)
C9 C 0.9790(13) 0.0103(8) 0.3802(9)
H4 H 1.0177 0.0543 0.3508
C10 C 0.8596(11) 0.0403(8) 0.4107(9)
H5 H 0.8143 0.1044 0.4021
C11 C 0.8067(11) -0.0263(8) 0.4549(8)
C12 C 0.8761(10) -0.1200(8) 0.4654(8)
H6 H 0.8406 -0.1649 0.4973
C13 C 1.1726(12) -0.1185(9) 0.3697(10)
C14 C 0.6749(12) 0.0011(8) 0.4945(8)
C15 C 0.9758(11) 0.3535(8) -0.3134(8)
C16 C 0.9849(12) 0.3887(9) -0.2308(9)
H7 H 1.0433 0.4174 -0.2327
C17 C 0.9066(12) 0.3816(9) -0.1433(9)
H8 H 0.9114 0.4049 -0.0857
C18 C 0.8247(12) 0.3404(9) -0.1449(8)
C19 C 0.8197(10) 0.3049(8) -0.2302(8)
H9 H 0.7634 0.2744 -0.2301
C20 C 1.0498(13) 0.3602(9) -0.4102(9)
C21 C 0.7369(12) 0.3325(8) -0.0544(8)
C22 C 0.0429(10) 0.3363(8) 0.1790(8)
C23 C 0.0317(12) 0.3761(9) 0.2651(9)
H10 H -0.0335 0.4311 0.2947
C24 C 0.1204(12) 0.3327(9) 0.3089(9)
H11 H 0.1159 0.3575 0.3691
C25 C 0.2136(12) 0.2535(9) 0.2619(9)
C26 C 0.2169(12) 0.2141(9) 0.1774(9)
H12 H 0.2783 0.1562 0.1488
C27 C -0.0376(10) 0.3808(8) 0.1211(9)
C28 C 0.3152(13) 0.2101(9) 0.3026(8)
C29 C 1.0901(12) 0.0450(9) 0.0794(9)
C30 C 1.0363(12) -0.0200(9) 0.1230(9)
H13 H 1.0807 -0.0865 0.1240
C31 C 0.9166(13) 0.0128(9) 0.1657(9)
H14 H 0.8800 -0.0300 0.2008
C32 C 0.8512(11) 0.1069(8) 0.1571(8)
C33 C 0.9115(11) 0.1686(8) 0.1114(8)
H15 H 0.8680 0.2344 0.1060
C34 C 1.2170(13) 0.0252(11) 0.0351(11)
C35 C 0.7237(11) 0.1447(8) 0.1974(8)
C36 C 0.7616(11) 0.7308(8) 0.1518(9)
C37 C 0.6962(14) 0.6905(9) 0.2158(10)
H16 H 0.6916 0.6977 0.2804
C38 C 0.6333(15) 0.6369(10) 0.1876(10)
H17 H 0.5838 0.6097 0.2325
C39 C 0.6465(12) 0.6253(8) 0.0917(9)
C40 C 0.7156(12) 0.6703(8) 0.0283(9)
H18 H 0.7188 0.6673 -0.0364
C41 C 0.8294(12) 0.7916(9) 0.1737(10)
C42 C 0.5780(12) 0.5733(8) 0.0566(9)
Tb1A Tb 0.50530(5) -0.13455(4) 0.61711(4)
Tb2A Tb 0.44031(5) 0.64345(4) -0.11005(4)
Co1_2 Co 1.10237(14) -0.27399(11) 0.43569(11)
Co1A Co 0.89763(14) 0.27399(11) -0.43569(11)
Co2A Co 0.87896(15) 0.78307(11) -0.01725(12)
Co2_2 Co 1.12104(15) 0.21693(11) 0.01725(12)
O5_2 O 0.2143(7) 0.7907(6) 0.3888(6)
O7A O 0.3667(8) 0.0530(6) 0.4585(7)
O9A O -0.0157(8) 0.6671(6) 0.4762(6)
O17A O 0.1021(8) 0.1849(6) -0.0987(6)
O19A O 0.4203(10) 0.4205(8) 0.0278(7)
O21_2 O 0.2479(8) 0.0977(6) 0.0033(7)
N2_2 N -0.0072(9) 0.8523(6) 0.4308(6)
N3A N 0.1058(9) 0.6862(7) 0.3126(7)
N5A N 0.2233(10) 0.2830(7) -0.0564(7)
N6_2 N 0.0272(10) 0.1395(6) 0.0749(7)
O29 O 0.4645(14) -0.1205(13) 0.2576(16)
O30 O 0.4526(16) 0.7083(13) 0.3935(14)
O31 O 0.500(4) 0.106(3) -0.077(3)
loop_
_geom_bond_atom_site_label_1
_geom_bond_atom_site_label_2
_geom_bond_site_symmetry_1
_geom_bond_site_symmetry_2
Tb1 O4 1_555 1_555
Tb2 O3 1_555 1_555
Co1 O1 1_555 1_555
Co2 O13 1_555 1_555
O1 C6 1_555 1_555
O2 C6 1_555 1_555
O3 C7 1_555 1_555
O4 C7 1_555 1_555
O5 C13 1_555 1_555
O6 C13 1_555 1_555
O7 C14 1_555 1_555
O8 Tb1 1_555 1_555
O9 C20 1_555 1_555
O10 C20 1_555 1_555
O11 Tb2 1_555 1_555
O12 Tb2 1_555 1_555
O13 C27 1_555 1_555
O14 C27 1_555 1_555
O15 Tb1 1_555 1_555
O16 Tb1 1_555 1_555
O17 C41 1_555 1_555
O18 C41 1_555 1_555
O19 C42 1_555 1_555
O20 Tb2 1_555 1_555
O21 C34 1_555 1_555
O22 C34 1_555 1_555
O23 Tb2 1_555 1_555
O24 Tb1 1_555 1_555
O25 Tb1 1_555 1_555
O26 Tb1 1_555 1_555
O27 Tb2 1_555 1_555
O28 Tb2 1_555 1_555
N1 Co1 1_555 1_555
N2 C8 1_555 1_555
N3 C15 1_555 1_555
N4 Co2 1_555 1_555
N5 C36 1_555 1_555
N6 C29 1_555 1_555
C1 N1 1_555 1_555
C2 C1 1_555 1_555
H1 C2 1_555 1_555
C3 C2 1_555 1_555
H2 C3 1_555 1_555
C4 C3 1_555 1_555
C5 N1 1_555 1_555
H3 C5 1_555 1_555
C6 C1 1_555 1_555
C7 C4 1_555 1_555
C8 C9 1_555 1_555
C9 H4 1_555 1_555
C10 C9 1_555 1_555
H5 C10 1_555 1_555
C11 C10 1_555 1_555
C12 N2 1_555 1_555
H6 C12 1_555 1_555
C13 C8 1_555 1_555
C14 O8 1_555 1_555
C15 C16 1_555 1_555
C16 H7 1_555 1_555
C17 C16 1_555 1_555
H8 C17 1_555 1_555
C18 C17 1_555 1_555
C19 N3 1_555 1_555
H9 C19 1_555 1_555
C20 C15 1_555 1_555
C21 O11 1_555 1_555
C22 N4 1_555 1_555
C23 C22 1_555 1_555
H10 C23 1_555 1_555
C24 C23 1_555 1_555
H11 C24 1_555 1_555
C25 C24 1_555 1_555
C26 N4 1_555 1_555
H12 C26 1_555 1_555
C27 C22 1_555 1_555
C28 O15 1_555 1_555
C29 C30 1_555 1_555
C30 H13 1_555 1_555
C31 C30 1_555 1_555
H14 C31 1_555 1_555
C32 C31 1_555 1_555
C33 N6 1_555 1_555
H15 C33 1_555 1_555
C34 C29 1_555 1_555
C35 O23 1_555 1_555
C36 C37 1_555 1_555
C37 H16 1_555 1_555
C38 C37 1_555 1_555
H17 C38 1_555 1_555
C39 C38 1_555 1_555
C40 N5 1_555 1_555
H18 C40 1_555 1_555
C41 C36 1_555 1_555
C42 O20 1_555 1_555
Tb1A O7 1_555 1_555
Tb2A O19 1_555 1_555
Co1_2 O5 1_555 1_555
Co1A O9 1_555 1_555
Co2A O17 1_555 1_555
Co2_2 O21 1_555 1_555
O5_2 Co1 1_555 1_555
O7A Tb1 1_555 1_555
O9A Co1 1_555 1_555
O17A Co2 1_555 1_555
O19A Tb2 1_555 1_555
O21_2 Co2 1_555 1_555
N2_2 Co1 1_555 1_555
N3A Co1 1_555 1_555
N5A Co2 1_555 1_555
N6_2 Co2 1_555 1_555
O12 C21 1_555 1_555
O16 C28 1_555 1_555
O24 C35 1_555 1_555
N2 Co1_2 1_555 1_555
N3 Co1A 1_555 1_555
N5 Co2A 1_555 1_555
N6 Co2_2 1_555 1_555
C4 C5 1_555 1_555
C11 C12 1_555 1_555
C11 C14 1_555 1_555
C18 C19 1_555 1_555
C18 C21 1_555 1_555
C25 C26 1_555 1_555
C25 C28 1_555 1_555
C32 C33 1_555 1_555
C32 C35 1_555 1_555
C39 C40 1_555 1_555
C39 C42 1_555 1_555

#END
