
#######################################################################
#
#                 Cambridge Crystallographic Data Centre
#                                CCDC 
#
#######################################################################
#
# If this CIF has been generated from an entry in the Cambridge 
# Structural Database, then it will include bibliographic, chemical, 
# crystal, experimental, refinement or atomic coordinate data resulting 
# from the CCDC's data processing and validation procedures.
#
#######################################################################

data_BOKXAB
_symmetry_cell_setting           monoclinic
_symmetry_space_group_name_H-M   'P 21/c'
_symmetry_Int_Tables_number      14
_space_group_name_Hall           '-P 2ybc'
loop_
_symmetry_equiv_pos_site_id
_symmetry_equiv_pos_as_xyz
1 x,y,z
2 -x,1/2+y,1/2-z
3 -x,-y,-z
4 x,1/2-y,1/2+z
_cell_length_a                   15.9791(12)
_cell_length_b                   10.5512(6)
_cell_length_c                   18.6344(13)
_cell_angle_alpha                90
_cell_angle_beta                 107.725(3)
_cell_angle_gamma                90
_cell_volume                     2992.59
loop_
_atom_site_label
_atom_site_type_symbol
_atom_site_fract_x
_atom_site_fract_y
_atom_site_fract_z
Cu1 Cu 0.21965(3) 0.50225(4) 0.31227(2)
S1 S 0.46147(7) 0.31925(12) 0.10289(6)
S2 S -0.03285(8) 0.77946(13) 0.00428(7)
O4 O 0.1119(2) 0.3194(3) 0.2642(2)
O5 O 0.3041(2) 0.6890(3) 0.35860(18)
N1 N 0.3000(2) 0.4410(3) 0.25350(17)
N2 N 0.2908(2) 0.1010(3) -0.09839(16)
N3 N 0.1461(2) 0.5924(3) 0.21603(17)
N4 N 0.1411(2) 0.9355(3) -0.12782(17)
N6 N 0.3236(3) 0.8998(3) 0.3819(2)
C1 C 0.3006(3) 0.3194(4) 0.2330(2)
C2 C 0.3468(3) 0.2770(4) 0.1860(2)
C3 C 0.3943(3) 0.3646(4) 0.1587(2)
C4 C 0.3953(3) 0.4891(4) 0.1804(2)
C5 C 0.3478(3) 0.5236(4) 0.2280(2)
C6 C 0.3904(3) 0.2355(4) 0.0271(2)
C7 C 0.4304(3) 0.1574(4) -0.0130(2)
C8 C 0.3788(3) 0.0924(4) -0.0745(2)
C9 C 0.2525(3) 0.1785(4) -0.0596(2)
C10 C 0.2998(3) 0.2465(4) 0.0022(2)
C11 C 0.1295(3) 0.5368(4) 0.1480(2)
C12 C 0.0789(3) 0.5926(4) 0.0821(2)
C13 C 0.0419(3) 0.7099(4) 0.0861(2)
C14 C 0.0594(3) 0.7679(4) 0.1548(3)
C15 C 0.1117(3) 0.7068(4) 0.2185(2)
C16 C 0.1778(3) 0.8903(4) -0.0574(2)
C17 C 0.1291(3) 0.8432(4) -0.0138(2)
C18 C 0.0384(3) 0.8391(4) -0.0431(2)
C19 C -0.0004(3) 0.8871(4) -0.1154(2)
C20 C 0.0527(3) 0.9336(4) -0.1552(2)
C21 C 0.3065(3) 0.7992(4) 0.3379(3)
C22 C 0.3287(5) 1.0262(5) 0.3516(4)
C23 C 0.3419(5) 0.8881(6) 0.4626(4)
H1 H -0.064(4) 0.891(6) -0.139(3)
H2 H 0.025(4) 0.968(6) -0.207(4)
H3 H 0.348(4) 0.611(6) 0.246(3)
H4 H 0.490(4) 0.147(6) 0.002(3)
H5 H 0.349(4) 0.186(6) 0.173(3)
H6 H 0.405(4) 0.037(6) -0.104(4)
H7 H 0.237(5) 0.892(6) -0.043(3)
H8 H 0.194(4) 0.181(6) -0.079(3)
H9 H 0.150(4) 0.449(6) 0.146(3)
H10 H 0.273(4) 0.297(6) 0.029(3)
H11 H 0.068(4) 0.547(6) 0.039(4)
H12 H 0.124(4) 0.738(6) 0.263(4)
H13 H 0.158(4) 0.811(6) 0.033(4)
H14 H 0.038(4) 0.847(6) 0.160(3)
H15 H 0.260(4) 0.261(6) 0.253(3)
H16 H 0.429(4) 0.547(6) 0.165(4)
H17 H 0.2935(17) 0.816(4) 0.2865(11)
H18 H 0.3872 1.0565 0.3738
H19 H 0.313(5) 1.026(7) 0.2975(13)
H20 H 0.2996(12) 0.942(3) 0.4751(19)
H21 H 0.2893 1.0835 0.3661
H22 H 0.3939 0.9304 0.4891
H23 H 0.061(2) 0.331(7) 0.236(3)
H24 H 0.111(5) 0.247(3) 0.282(4)
H25 H 0.338(5) 0.802(3) 0.478(4)
Cu1C Cu 0.21965(3) -0.00225(4) -0.18773(2)
Cu1C_2 Cu 0.21965(3) 0.99775(4) -0.18773(2)
N2C N 0.2908(2) 0.3990(3) 0.40161(16)
N4C N 0.1411(2) 0.5645(3) 0.37218(17)
P1 P 0.38969(9) 0.87973(12) 0.14182(7)
F1 F 0.3739(3) 0.8999(5) 0.05474(19)
F2 F 0.3146(3) 0.9753(4) 0.1367(4)
F3 F 0.4106(3) 0.8517(7) 0.2264(2)
F4 F 0.4663(3) 0.7837(4) 0.1414(3)
F5 F 0.3198(2) 0.7692(3) 0.1236(2)
F6 F 0.4600(3) 0.9896(4) 0.1567(2)
O1 O -0.0574(3) 0.4033(4) 0.1566(3)
O2 O -0.1089(3) 0.5592(5) 0.1986(3)
O3 O -0.1296(3) 0.5478(5) 0.0814(3)
N5 N -0.0988(3) 0.5026(4) 0.1435(3)
loop_
_geom_bond_atom_site_label_1
_geom_bond_atom_site_label_2
_geom_bond_site_symmetry_1
_geom_bond_site_symmetry_2
Cu1 O4 1_555 1_555
S1 C3 1_555 1_555
S2 C13 1_555 1_555
P1 F1 1_555 1_555
F2 P1 1_555 1_555
F3 P1 1_555 1_555
F4 P1 1_555 1_555
F5 P1 1_555 1_555
F6 P1 1_555 1_555
O1 N5 1_555 1_555
O2 N5 1_555 1_555
O3 N5 1_555 1_555
O4 H23 1_555 1_555
O5 Cu1 1_555 1_555
N1 Cu1 1_555 1_555
N2 C8 1_555 1_555
N3 Cu1 1_555 1_555
N4 C16 1_555 1_555
N6 C21 1_555 1_555
C1 N1 1_555 1_555
C2 C1 1_555 1_555
C3 C2 1_555 1_555
C4 C3 1_555 1_555
C5 N1 1_555 1_555
C6 S1 1_555 1_555
C7 C6 1_555 1_555
C8 C7 1_555 1_555
C9 N2 1_555 1_555
C10 C6 1_555 1_555
C11 N3 1_555 1_555
C12 C11 1_555 1_555
C13 C12 1_555 1_555
C14 C13 1_555 1_555
C15 N3 1_555 1_555
C16 C17 1_555 1_555
C17 C18 1_555 1_555
C18 S2 1_555 1_555
C19 C18 1_555 1_555
C20 N4 1_555 1_555
C21 O5 1_555 1_555
C22 N6 1_555 1_555
C23 N6 1_555 1_555
H1 C19 1_555 1_555
H2 C20 1_555 1_555
H3 C5 1_555 1_555
H4 C7 1_555 1_555
H5 C2 1_555 1_555
H6 C8 1_555 1_555
H7 C16 1_555 1_555
H8 C9 1_555 1_555
H9 C11 1_555 1_555
H10 C10 1_555 1_555
H11 C12 1_555 1_555
H12 C15 1_555 1_555
H13 C17 1_555 1_555
H14 C14 1_555 1_555
H15 C1 1_555 1_555
H16 C4 1_555 1_555
H17 C21 1_555 1_555
H18 C22 1_555 1_555
H19 C22 1_555 1_555
H20 C23 1_555 1_555
H21 C22 1_555 1_555
H22 C23 1_555 1_555
H24 O4 1_555 1_555
H25 C23 1_555 1_555
Cu1C N2 1_555 1_555
Cu1C_2 N4 1_555 1_555
N2C Cu1 1_555 1_555
N4C Cu1 1_555 1_555
C4 C5 1_555 1_555
C9 C10 1_555 1_555
C14 C15 1_555 1_555
C19 C20 1_555 1_555

#END
