
#######################################################################
#
#                 Cambridge Crystallographic Data Centre
#                                CCDC 
#
#######################################################################
#
# If this CIF has been generated from an entry in the Cambridge 
# Structural Database, then it will include bibliographic, chemical, 
# crystal, experimental, refinement or atomic coordinate data resulting 
# from the CCDC's data processing and validation procedures.
#
#######################################################################

data_BOKXIJ
_symmetry_cell_setting           orthorhombic
_symmetry_space_group_name_H-M   'P b c n'
_symmetry_Int_Tables_number      60
_space_group_name_Hall           '-P 2n 2ab'
loop_
_symmetry_equiv_pos_site_id
_symmetry_equiv_pos_as_xyz
1 x,y,z
2 1/2-x,1/2-y,1/2+z
3 -x,y,1/2-z
4 1/2+x,1/2-y,-z
5 -x,-y,-z
6 1/2+x,1/2+y,1/2-z
7 x,-y,1/2+z
8 1/2-x,1/2+y,z
_cell_length_a                   18.5045(15)
_cell_length_b                   11.0878(9)
_cell_length_c                   15.6903(13)
_cell_angle_alpha                90
_cell_angle_beta                 90
_cell_angle_gamma                90
_cell_volume                     3219.24
loop_
_atom_site_label
_atom_site_type_symbol
_atom_site_fract_x
_atom_site_fract_y
_atom_site_fract_z
Zn1 Zn 0.5000 0.69671(3) 0.2500
S1 S 0.68358(3) 0.25118(4) 0.06293(3)
S2 S 0.72799(3) 0.14256(5) 0.15247(4)
O5 O 0.44156(8) 0.70117(13) 0.12721(9)
H2 H 0.3998 0.6786 0.1344
H3 H 0.4593 0.7251 0.0792
N1 N 0.56847(8) 0.55811(13) 0.19903(10)
N2 N 0.57188(8) -0.16413(14) 0.20643(10)
C1 C 0.58460(11) 0.55983(17) 0.11569(12)
H4 H 0.5717 0.6276 0.0843
C2 C 0.61896(11) 0.46740(17) 0.07412(12)
H5 H 0.6292 0.4726 0.0162
C3 C 0.63810(10) 0.36595(16) 0.12056(12)
C4 C 0.62181(10) 0.36209(17) 0.20680(12)
H6 H 0.6337 0.2949 0.2394
C5 C 0.58770(10) 0.45968(17) 0.24311(12)
H7 H 0.5775 0.4572 0.3011
C6 C 0.66364(10) 0.02790(16) 0.17104(12)
C7 C 0.68796(10) -0.07125(17) 0.21666(13)
H8 H 0.7353 -0.0747 0.2363
C8 C 0.64089(11) -0.16419(17) 0.23227(13)
H9 H 0.6577 -0.2307 0.2624
C9 C 0.54899(11) -0.06681(17) 0.16369(13)
H10 H 0.5010 -0.0650 0.1459
C10 C 0.59211(10) 0.03083(17) 0.14440(13)
H11 H 0.5739 0.0966 0.1145
Zn1_2 Zn 0.5000 -0.30329(3) 0.2500
Zn1_3 Zn 0.5000 1.69671(3) 0.2500
S1_2 S 0.68358(3) 1.25118(4) 0.06293(3)
S2_2 S 0.72799(3) 1.14256(5) 0.15247(4)
O5B O 0.55844(8) 0.70117(13) 0.37279(9)
H2B H 0.6002 0.6786 0.3656
H3B H 0.5407 0.7251 0.4208
N1_2 N 0.56847(8) 1.55811(13) 0.19903(10)
N1B N 0.43153(8) 0.55811(13) 0.30097(10)
N2_2 N 0.57188(8) 0.83587(14) 0.20643(10)
N2B N 0.42812(8) 0.83587(14) 0.29357(10)
C1_2 C 0.58460(11) 1.55983(17) 0.11569(12)
H4_2 H 0.5717 1.6276 0.0843
C2_2 C 0.61896(11) 1.46740(17) 0.07412(12)
H5_2 H 0.6292 1.4726 0.0162
C3_2 C 0.63810(10) 1.36595(16) 0.12056(12)
C4_2 C 0.62181(10) 1.36209(17) 0.20680(12)
H6_2 H 0.6337 1.2949 0.2394
C5_2 C 0.58770(10) 1.45968(17) 0.24311(12)
H7_2 H 0.5775 1.4572 0.3011
C6_2 C 0.66364(10) 1.02790(16) 0.17104(12)
C7_2 C 0.68796(10) 0.92875(17) 0.21666(13)
H8_2 H 0.7353 0.9253 0.2363
C8_2 C 0.64089(11) 0.83581(17) 0.23227(13)
H9_2 H 0.6577 0.7693 0.2624
C9_2 C 0.54899(11) 0.93319(17) 0.16369(13)
H10_2 H 0.5010 0.9350 0.1459
C10_2 C 0.59211(10) 1.03083(17) 0.14440(13)
H11_2 H 0.5739 1.0966 0.1145
O1 O 0.39328(9) 0.30055(15) 0.07008(11)
H1 H 0.3388 0.2865 0.1024
O2 O 0.48325(9) 0.19519(17) 0.01362(11)
O3 O 0.27198(8) 0.26217(14) 0.12147(10)
O4 O 0.19623(8) 0.10749(14) 0.12485(10)
C11 C 0.42286(12) 0.2004(2) 0.04692(14)
C12 C 0.38227(12) 0.0846(2) 0.05863(13)
H12 H 0.4086 0.0156 0.0456
C13 C 0.31467(11) 0.0636(2) 0.08461(13)
H13 H 0.3013 -0.0172 0.0857
C14 C 0.25693(12) 0.1500(2) 0.11229(12)
loop_
_geom_bond_atom_site_label_1
_geom_bond_atom_site_label_2
_geom_bond_site_symmetry_1
_geom_bond_site_symmetry_2
Zn1 O5 1_555 1_555
S1 S2 1_555 1_555
S2 C6 1_555 1_555
O1 H1 1_555 1_555
O2 C11 1_555 1_555
O3 C14 1_555 1_555
O4 C14 1_555 1_555
O5 H2 1_555 1_555
H3 O5 1_555 1_555
N1 Zn1 1_555 1_555
N2 C8 1_555 1_555
C1 N1 1_555 1_555
H4 C1 1_555 1_555
C2 C1 1_555 1_555
H5 C2 1_555 1_555
C3 S1 1_555 1_555
C4 C3 1_555 1_555
H6 C4 1_555 1_555
C5 N1 1_555 1_555
H7 C5 1_555 1_555
C6 C7 1_555 1_555
C7 H8 1_555 1_555
C8 C7 1_555 1_555
H9 C8 1_555 1_555
C9 N2 1_555 1_555
H10 C9 1_555 1_555
C10 C6 1_555 1_555
H11 C10 1_555 1_555
C11 O1 1_555 1_555
C12 C11 1_555 1_555
H12 C12 1_555 1_555
C13 C12 1_555 1_555
H13 C13 1_555 1_555
C14 C13 1_555 1_555
Zn1_2 N2 1_555 1_555
Zn1_3 N1_2 1_555 1_555
S1_2 S2_2 1_555 1_555
S2_2 C6_2 1_555 1_555
O5B Zn1 1_555 1_555
H2B O5B 1_555 1_555
H3B O5B 1_555 1_555
N1_2 C1_2 1_555 1_555
N1B Zn1 1_555 1_555
N2_2 Zn1 1_555 1_555
N2B Zn1 1_555 1_555
C1_2 H4_2 1_555 1_555
C2_2 C1_2 1_555 1_555
H5_2 C2_2 1_555 1_555
C3_2 S1_2 1_555 1_555
C4_2 C3_2 1_555 1_555
H6_2 C4_2 1_555 1_555
C5_2 N1_2 1_555 1_555
H7_2 C5_2 1_555 1_555
C6_2 C7_2 1_555 1_555
C7_2 H8_2 1_555 1_555
C8_2 N2_2 1_555 1_555
H9_2 C8_2 1_555 1_555
C9_2 N2_2 1_555 1_555
H10_2 C9_2 1_555 1_555
C10_2 C6_2 1_555 1_555
H11_2 C10_2 1_555 1_555
C2 C3 1_555 1_555
C4 C5 1_555 1_555
C9 C10 1_555 1_555
C2_2 C3_2 1_555 1_555
C4_2 C5_2 1_555 1_555
C7_2 C8_2 1_555 1_555
C9_2 C10_2 1_555 1_555

#END
