
#######################################################################
#
#                 Cambridge Crystallographic Data Centre
#                                CCDC 
#
#######################################################################
#
# If this CIF has been generated from an entry in the Cambridge 
# Structural Database, then it will include bibliographic, chemical, 
# crystal, experimental, refinement or atomic coordinate data resulting 
# from the CCDC's data processing and validation procedures.
#
#######################################################################

data_BOLBEJ
_symmetry_cell_setting           monoclinic
_symmetry_space_group_name_H-M   'P 21/c'
_symmetry_Int_Tables_number      14
_space_group_name_Hall           '-P 2ybc'
loop_
_symmetry_equiv_pos_site_id
_symmetry_equiv_pos_as_xyz
1 x,y,z
2 -x,1/2+y,1/2-z
3 -x,-y,-z
4 x,1/2-y,1/2+z
_cell_length_a                   10.189(1)
_cell_length_b                   6.651(1)
_cell_length_c                   11.162(1)
_cell_angle_alpha                90
_cell_angle_beta                 95.64(1)
_cell_angle_gamma                90
_cell_volume                     752.754
loop_
_atom_site_label
_atom_site_type_symbol
_atom_site_fract_x
_atom_site_fract_y
_atom_site_fract_z
In1 In 0.76218 0.65298 0.47471
C1 C 0.98720 0.83640 0.34780
C2 C 0.86790 0.82450 0.25020
C3 C 0.47300 0.55720 0.44360
O1 O 0.96300 0.78110 0.45170
O2 O 1.09460 0.89470 0.31920
O3 O 0.76300 0.75770 0.28390
O4 O 0.88850 0.61950 0.64650
O5 O 0.55500 0.65360 0.38910
O6 O 0.64810 0.45240 0.58640
O7 O 0.70460 0.94730 0.53190
O8 O 0.82940 0.37210 0.40620
H1 H 0.73200 1.01400 0.57200
H2 H 0.63000 0.92600 0.57800
H3 H 0.84100 0.37500 0.34200
H4 H 0.89500 0.32900 0.45300
O4C O 0.88850 0.88050 0.14650
C3B C 0.52700 0.44280 0.55640
O6B O 0.35190 0.54760 0.41360
C2C C 0.86790 0.67550 0.75020
In1C In 0.76218 0.84702 -0.02529
O5B O 0.44500 0.34640 0.61090
In1B In 0.23782 0.34702 0.52529
C1C C 0.98720 0.66360 0.84780
O3C O 0.76300 0.74230 0.78390
O1C O 0.96300 0.71890 0.95170
O2C O 1.09460 0.60530 0.81920
In1C_2 In 0.76218 0.84702 0.97471
O1B O 0.03700 0.21890 0.54830
O3B O 0.23700 0.24230 0.71610
O4B O 0.11150 0.38050 0.35350
O7B O 0.29540 0.05270 0.46810
O8B O 0.17060 0.62790 0.59380
H1B H 0.26800 -0.01400 0.42800
H2B H 0.37000 0.07400 0.42200
H3B H 0.15900 0.62500 0.65800
H4B H 0.10500 0.67100 0.54700
O9 O 0.51270 0.14880 0.36170
H5 H 0.53400 0.15300 0.30300
H6 H 0.57200 0.08700 0.41400
loop_
_geom_bond_atom_site_label_1
_geom_bond_atom_site_label_2
_geom_bond_site_symmetry_1
_geom_bond_site_symmetry_2
In1 O1 1_555 1_555
C1 C2 1_555 1_555
C2 O3 1_555 1_555
C3 O5 1_555 1_555
O1 C1 1_555 1_555
O2 C1 1_555 1_555
O3 In1 1_555 1_555
O4 In1 1_555 1_555
O5 In1 1_555 1_555
O6 In1 1_555 1_555
O7 In1 1_555 1_555
O8 In1 1_555 1_555
O9 H5 1_555 1_555
H1 O7 1_555 1_555
H2 O7 1_555 1_555
H3 O8 1_555 1_555
H4 O8 1_555 1_555
H6 O9 1_555 1_555
O4C C2 1_555 1_555
C3B C3 1_555 1_555
O6B C3 1_555 1_555
C2C O4 1_555 1_555
In1C O4C 1_555 1_555
O5B C3B 1_555 1_555
In1B O6B 1_555 1_555
C1C C2C 1_555 1_555
O3C C2C 1_555 1_555
O1C C1C 1_555 1_555
O2C C1C 1_555 1_555
In1C_2 O3C 1_555 1_555
O1B In1B 1_555 1_555
O3B In1B 1_555 1_555
O4B In1B 1_555 1_555
O7B In1B 1_555 1_555
O8B In1B 1_555 1_555
H1B O7B 1_555 1_555
H2B O7B 1_555 1_555
H3B O8B 1_555 1_555
H4B O8B 1_555 1_555
O6 C3B 1_555 1_555
O5B In1B 1_555 1_555
O1C In1C_2 1_555 1_555

#END
