
#######################################################################
#
#                 Cambridge Crystallographic Data Centre
#                                CCDC 
#
#######################################################################
#
# If this CIF has been generated from an entry in the Cambridge 
# Structural Database, then it will include bibliographic, chemical, 
# crystal, experimental, refinement or atomic coordinate data resulting 
# from the CCDC's data processing and validation procedures.
#
#######################################################################

data_BOLXEH
_symmetry_cell_setting           monoclinic
_symmetry_space_group_name_H-M   'P 21/n'
_symmetry_Int_Tables_number      14
_space_group_name_Hall           '-P 2yn'
loop_
_symmetry_equiv_pos_site_id
_symmetry_equiv_pos_as_xyz
1 x,y,z
2 1/2-x,1/2+y,1/2-z
3 -x,-y,-z
4 1/2+x,1/2-y,1/2+z
_cell_length_a                   11.5705(6)
_cell_length_b                   15.5319(9)
_cell_length_c                   14.3134(8)
_cell_angle_alpha                90
_cell_angle_beta                 110.032(3)
_cell_angle_gamma                90
_cell_volume                     2416.67
loop_
_atom_site_label
_atom_site_type_symbol
_atom_site_fract_x
_atom_site_fract_y
_atom_site_fract_z
Cu1 Cu 0.02256(13) 0.15377(9) 0.45652(11)
Cu2 Cu 0.17427(14) 0.18496(10) 0.70021(11)
Cu3 Cu -0.07168(13) 0.05313(9) 0.62671(11)
O1 O 0.0125(7) 0.1531(5) 0.5922(6)
H1 H -0.031(7) 0.195(6) 0.5939(11)
Br1 Br -0.12633(13) 0.28896(9) 0.32813(11)
Br2 Br 0.11078(14) 0.09736(9) 0.32863(11)
N1 N -0.1146(9) 0.0735(6) 0.4162(7)
N2 N -0.1459(8) 0.0293(6) 0.4876(7)
C1 C -0.2427(11) -0.0210(8) 0.4361(10)
H2 H -0.2842 -0.0573 0.4656
C2 C -0.2715(11) -0.0121(8) 0.3367(10)
H3 H -0.3335 -0.0397 0.2862
C3 C -0.1876(12) 0.0473(8) 0.3279(10)
H4 H -0.1828 0.0664 0.2677
N3 N 0.1514(9) 0.2388(7) 0.5020(8)
N4 N 0.2218(9) 0.2445(6) 0.6001(7)
C4 C 0.3057(13) 0.3052(8) 0.6056(11)
H5 H 0.3667 0.3215 0.6645
C5 C 0.2921(13) 0.3402(9) 0.5157(12)
H6 H 0.3367 0.3846 0.5006
C6 C 0.1955(14) 0.2937(9) 0.4522(12)
H7 H 0.1654 0.3001 0.3835
N5 N 0.1083(10) 0.1349(7) 0.7941(7)
N6 N 0.0076(9) 0.0827(7) 0.7636(7)
C7 C -0.0158(15) 0.0569(11) 0.8455(11)
H8 H -0.0799 0.0206 0.8450
C8 C 0.0680(15) 0.0917(12) 0.9295(11)
H9 H 0.0721 0.0847 0.9951
C9 C 0.1442(15) 0.1390(12) 0.8946(11)
H10 H 0.2118 0.1700 0.9346
O2 O -0.2553(12) 0.1282(8) 0.6167(10)
C10 C -0.341(3) 0.1625(17) 0.528(2)
H11 H -0.3337 0.1325 0.4709
H12 H -0.3233 0.2230 0.5223
C11 C -0.466(3) 0.153(2) 0.530(2)
H13 H -0.5128 0.2051 0.5062
H14 H -0.5071 0.1053 0.4882
C12 C -0.451(4) 0.137(3) 0.631(3)
H15 H -0.4902 0.0832 0.6363
H16 H -0.4904 0.1830 0.6553
C13 C -0.306(3) 0.1337(18) 0.695(2)
H17 H -0.2788 0.1852 0.7344
H18 H -0.2855 0.0835 0.7376
Cu2C Cu -0.32573(14) 0.31504(10) 0.20021(11)
Cu3B Cu 0.07168(13) -0.05313(9) 0.37329(11)
Br1C Br 0.37367(13) 0.21104(9) 0.82813(11)
Br2B Br -0.11078(14) -0.09736(9) 0.67137(11)
O3 O -0.0560(17) 0.3109(12) 0.6305(14)
C14 C -0.019(2) 0.3898(12) 0.5986(17)
H19 H 0.0690 0.3971 0.6271
H20 H -0.0435 0.3912 0.5267
C15 C -0.079(2) 0.4540(16) 0.6316(19)
H21 H -0.1544 0.4709 0.5792
H22 H -0.0269 0.5043 0.6522
C16 C -0.083(4) 0.330(2) 0.721(3)
H23 H -0.1537 0.2978 0.7229
H24 H -0.0129 0.3166 0.7798
C17 C -0.107(3) 0.418(2) 0.715(2)
H25 H -0.0568 0.4463 0.7760
H26 H -0.1927 0.4283 0.7063
loop_
_geom_bond_atom_site_label_1
_geom_bond_atom_site_label_2
_geom_bond_site_symmetry_1
_geom_bond_site_symmetry_2
Cu1 O1 1_555 1_555
Cu2 O1 1_555 1_555
Cu3 O1 1_555 1_555
O1 H1 1_555 1_555
Br1 Cu1 1_555 1_555
Br2 Cu1 1_555 1_555
N1 Cu1 1_555 1_555
N2 Cu3 1_555 1_555
C1 N2 1_555 1_555
H2 C1 1_555 1_555
C2 C1 1_555 1_555
H3 C2 1_555 1_555
C3 N1 1_555 1_555
H4 C3 1_555 1_555
N3 Cu1 1_555 1_555
N4 Cu2 1_555 1_555
C4 N4 1_555 1_555
H5 C4 1_555 1_555
C5 C4 1_555 1_555
H6 C5 1_555 1_555
C6 N3 1_555 1_555
H7 C6 1_555 1_555
N5 Cu2 1_555 1_555
N6 Cu3 1_555 1_555
C7 N6 1_555 1_555
H8 C7 1_555 1_555
C8 C7 1_555 1_555
H9 C8 1_555 1_555
C9 N5 1_555 1_555
H10 C9 1_555 1_555
O2 Cu3 1_555 1_555
C10 O2 1_555 1_555
H11 C10 1_555 1_555
H12 C10 1_555 1_555
C11 C10 1_555 1_555
H13 C11 1_555 1_555
H14 C11 1_555 1_555
C12 C11 1_555 1_555
H15 C12 1_555 1_555
H16 C12 1_555 1_555
C13 O2 1_555 1_555
H17 C13 1_555 1_555
H18 C13 1_555 1_555
O3 C14 1_555 1_555
C14 H19 1_555 1_555
H20 C14 1_555 1_555
C15 C14 1_555 1_555
H21 C15 1_555 1_555
H22 C15 1_555 1_555
C16 O3 1_555 1_555
H23 C16 1_555 1_555
H24 C16 1_555 1_555
C17 C15 1_555 1_555
H25 C17 1_555 1_555
H26 C17 1_555 1_555
Cu2C Br1 1_555 1_555
Cu3B Br2 1_555 1_555
Br1C Cu2 1_555 1_555
Br2B Cu3 1_555 1_555
N1 N2 1_555 1_555
C2 C3 1_555 1_555
N3 N4 1_555 1_555
C5 C6 1_555 1_555
N5 N6 1_555 1_555
C8 C9 1_555 1_555
C12 C13 1_555 1_555
C16 C17 1_555 1_555

#END
