
#######################################################################
#
#                 Cambridge Crystallographic Data Centre
#                                CCDC 
#
#######################################################################
#
# If this CIF has been generated from an entry in the Cambridge 
# Structural Database, then it will include bibliographic, chemical, 
# crystal, experimental, refinement or atomic coordinate data resulting 
# from the CCDC's data processing and validation procedures.
#
#######################################################################

data_BOLYIM
_symmetry_cell_setting           triclinic
_symmetry_space_group_name_H-M   'P -1'
_symmetry_Int_Tables_number      2
_space_group_name_Hall           '-P 1'
loop_
_symmetry_equiv_pos_site_id
_symmetry_equiv_pos_as_xyz
1 x,y,z
2 -x,-y,-z
_cell_length_a                   7.7576(16)
_cell_length_b                   7.7955(16)
_cell_length_c                   10.042(2)
_cell_angle_alpha                68.56(3)
_cell_angle_beta                 77.57(3)
_cell_angle_gamma                61.74(3)
_cell_volume                     497.226
loop_
_atom_site_label
_atom_site_type_symbol
_atom_site_fract_x
_atom_site_fract_y
_atom_site_fract_z
Mn1 Mn 0.79962(3) 0.72392(4) 0.02352(3)
O1 O 0.58806(19) 0.7814(2) 0.19323(14)
O2 O 0.2855(2) 0.96320(19) 0.11179(14)
C1 C 0.4056(3) 0.8561(2) 0.20904(18)
C2 C 0.3247(2) 0.8230(2) 0.36310(17)
C3 C 0.2635(2) 0.6717(2) 0.44247(18)
C4 C 0.1959(2) 0.6448(2) 0.58475(18)
H1 H 0.1511 0.5453 0.6331
C5 C 0.1967(2) 0.7710(2) 0.65356(17)
C6 C 0.2534(3) 0.9258(3) 0.5763(2)
H2 H 0.2507 1.0122 0.6214
C7 C 0.3142(3) 0.9540(3) 0.4323(2)
H3 H 0.3481 1.0611 0.3817
C8 C 0.1472(2) 0.7324(2) 0.81199(18)
O3 O 0.19485(19) 0.8144(2) 0.87494(14)
O4 O 0.05982(18) 0.61740(18) 0.87420(13)
N1 N 0.2797(2) 0.5232(2) 0.37693(17)
O5 O 0.3673(2) 0.5270(2) 0.25857(15)
O6 O 0.2106(3) 0.4023(3) 0.44196(19)
O7 O 0.6026(2) 0.7015(2) -0.08625(18)
H4 H 0.6250 0.6450 -0.1501
H5 H 0.4807 0.7467 -0.0626
O8 O 0.9764(2) 0.7730(2) 0.13605(15)
H6 H 1.0822 0.7574 0.0833
H7 H 0.9096 0.8884 0.1513
Mn1_2 Mn -0.20038(3) 0.72392(4) 1.02352(3)
Mn1A Mn 0.20038(3) 0.27608(4) 0.97648(3)
Mn1A_2 Mn 0.20038(3) 1.27608(4) -0.02352(3)
O2A O 0.7145(2) 1.03680(19) -0.11179(14)
O4_2 O 1.05982(18) 0.61740(18) -0.12580(13)
O4A O 0.94018(18) 0.38260(18) 0.12580(13)
loop_
_geom_bond_atom_site_label_1
_geom_bond_atom_site_label_2
_geom_bond_site_symmetry_1
_geom_bond_site_symmetry_2
Mn1 O1 1_555 1_555
O1 C1 1_555 1_555
O2 C1 1_555 1_555
C1 C2 1_555 1_555
C2 C3 1_555 1_555
C3 C4 1_555 1_555
C4 H1 1_555 1_555
C5 C4 1_555 1_555
C6 C5 1_555 1_555
H2 C6 1_555 1_555
C7 C2 1_555 1_555
H3 C7 1_555 1_555
C8 C5 1_555 1_555
O3 C8 1_555 1_555
O4 C8 1_555 1_555
N1 C3 1_555 1_555
O5 N1 1_555 1_555
O6 N1 1_555 1_555
O7 Mn1 1_555 1_555
H4 O7 1_555 1_555
H5 O7 1_555 1_555
O8 Mn1 1_555 1_555
H6 O8 1_555 1_555
H7 O8 1_555 1_555
Mn1_2 O4 1_555 1_555
Mn1A O4 1_555 1_555
Mn1A_2 O2 1_555 1_555
O2A Mn1 1_555 1_555
O4_2 Mn1 1_555 1_555
O4A Mn1 1_555 1_555
C6 C7 1_555 1_555

#END
