
#######################################################################
#
#                 Cambridge Crystallographic Data Centre
#                                CCDC 
#
#######################################################################
#
# If this CIF has been generated from an entry in the Cambridge 
# Structural Database, then it will include bibliographic, chemical, 
# crystal, experimental, refinement or atomic coordinate data resulting 
# from the CCDC's data processing and validation procedures.
#
#######################################################################

data_BONLUM
_symmetry_cell_setting           orthorhombic
_symmetry_space_group_name_H-M   'P 21 21 21'
_symmetry_Int_Tables_number      19
_space_group_name_Hall           'P 2ac 2ab'
loop_
_symmetry_equiv_pos_site_id
_symmetry_equiv_pos_as_xyz
1 x,y,z
2 1/2-x,-y,1/2+z
3 -x,1/2+y,1/2-z
4 1/2+x,1/2-y,-z
_cell_length_a                   8.5157(3)
_cell_length_b                   10.8984(3)
_cell_length_c                   17.6615(6)
_cell_angle_alpha                90
_cell_angle_beta                 90
_cell_angle_gamma                90
_cell_volume                     1639.12
loop_
_atom_site_label
_atom_site_type_symbol
_atom_site_fract_x
_atom_site_fract_y
_atom_site_fract_z
Cu1 Cu 0.39330(6) 0.22959(5) 0.24939(3)
O1 O 0.5732(4) 0.1856(3) 0.31630(19)
O2 O 0.6254(5) 0.0815(4) 0.4210(2)
O3 O 0.4978(4) -0.1360(3) 0.2986(2)
O4 O 0.4453(5) -0.2660(4) 0.3926(2)
O5 O 0.2866(5) 0.3587(4) 0.3370(2)
H1 H 0.1808 0.3890 0.3308
H2 H 0.3483 0.3874 0.3792
N1 N 0.1979(5) 0.2242(4) 0.1865(2)
N2 N 0.3019(5) 0.0786(3) 0.2930(2)
H3 H 0.3367 0.0137 0.2652
C1 C 0.1717(7) 0.2874(6) 0.1229(3)
H4 H 0.2429 0.3469 0.1072
C2 C 0.0392(8) 0.2643(7) 0.0803(4)
H5 H 0.0232 0.3052 0.0348
C3 C -0.0714(8) 0.1785(7) 0.1064(4)
H6 H -0.1605 0.1610 0.0779
C4 C -0.0464(7) 0.1210(6) 0.1745(4)
H7 H -0.1209 0.0675 0.1944
C5 C 0.0900(6) 0.1440(5) 0.2123(3)
C6 C 0.1296(6) 0.0847(5) 0.2853(3)
H8 H 0.0854 0.1316 0.3269
H9 H 0.0856 0.0026 0.2869
C7 C 0.3672(6) 0.0672(4) 0.3702(3)
H10 H 0.3078 0.1238 0.4024
C8 C 0.5362(6) 0.1123(4) 0.3695(3)
C9 C 0.3476(7) -0.0595(4) 0.4039(3)
H11 H 0.2369 -0.0802 0.4038
H12 H 0.3823 -0.0574 0.4562
C10 C 0.4382(6) -0.1616(5) 0.3623(3)
Cu1B Cu 0.60670(6) -0.27041(5) 0.25061(3)
O3B O 0.5022(4) 0.3640(3) 0.2014(2)
O6 O -0.0563(6) 0.1073(5) 0.4525(3)
H13 H -0.1215 0.1296 0.4100
H14 H -0.1062 0.0841 0.4995
O7 O 0.5326(5) 0.1635(5) 0.5654(2)
H15 H 0.4371 0.2092 0.5718
H16 H 0.5936 0.1416 0.6096
O8 O 0.2307(5) -0.1127(4) 0.1624(3)
H17 H 0.1457 -0.0822 0.1316
H18 H 0.2503 -0.1998 0.1640
O9 O 0.5197(6) -0.5043(3) 0.4083(3)
H19 H 0.5784 -0.5437 0.3694
H20 H 0.4908 -0.5462 0.4535
loop_
_geom_bond_atom_site_label_1
_geom_bond_atom_site_label_2
_geom_bond_site_symmetry_1
_geom_bond_site_symmetry_2
Cu1 O1 1_555 1_555
O1 C8 1_555 1_555
O2 C8 1_555 1_555
O3 C10 1_555 1_555
O4 C10 1_555 1_555
O5 Cu1 1_555 1_555
H1 O5 1_555 1_555
H2 O5 1_555 1_555
N1 Cu1 1_555 1_555
N2 Cu1 1_555 1_555
H3 N2 1_555 1_555
C1 N1 1_555 1_555
H4 C1 1_555 1_555
C2 C1 1_555 1_555
H5 C2 1_555 1_555
C3 C2 1_555 1_555
H6 C3 1_555 1_555
C4 C3 1_555 1_555
H7 C4 1_555 1_555
C5 N1 1_555 1_555
C6 N2 1_555 1_555
H8 C6 1_555 1_555
H9 C6 1_555 1_555
C7 N2 1_555 1_555
H10 C7 1_555 1_555
C8 C7 1_555 1_555
C9 C7 1_555 1_555
H11 C9 1_555 1_555
H12 C9 1_555 1_555
C10 C9 1_555 1_555
O6 H13 1_555 1_555
H14 O6 1_555 1_555
O7 H15 1_555 1_555
H16 O7 1_555 1_555
O8 H17 1_555 1_555
H18 O8 1_555 1_555
O9 H19 1_555 1_555
H20 O9 1_555 1_555
Cu1B O3 1_555 1_555
O3B Cu1 1_555 1_555
C4 C5 1_555 1_555
C5 C6 1_555 1_555

#END
