
#######################################################################
#
#                 Cambridge Crystallographic Data Centre
#                                CCDC 
#
#######################################################################
#
# If this CIF has been generated from an entry in the Cambridge 
# Structural Database, then it will include bibliographic, chemical, 
# crystal, experimental, refinement or atomic coordinate data resulting 
# from the CCDC's data processing and validation procedures.
#
#######################################################################

data_BONNEY
_symmetry_cell_setting           tetragonal
_symmetry_space_group_name_H-M   'P 43 21 2'
_symmetry_Int_Tables_number      96
_space_group_name_Hall           'P 4nw 2abw'
loop_
_symmetry_equiv_pos_site_id
_symmetry_equiv_pos_as_xyz
1 x,y,z
2 -x,-y,1/2+z
3 1/2-y,1/2+x,3/4+z
4 1/2+y,1/2-x,1/4+z
5 1/2-x,1/2+y,3/4-z
6 1/2+x,1/2-y,1/4-z
7 y,x,-z
8 -y,-x,1/2-z
_cell_length_a                   12.4745(4)
_cell_length_b                   12.4745(4)
_cell_length_c                   26.721(2)
_cell_angle_alpha                90
_cell_angle_beta                 90
_cell_angle_gamma                90
_cell_volume                     4158.14
loop_
_atom_site_label
_atom_site_type_symbol
_atom_site_fract_x
_atom_site_fract_y
_atom_site_fract_z
Cu1 Cu 0.75184(3) 0.26157(3) 0.044457(12)
N1 N 0.7088(2) 0.1798(2) 0.10636(10)
N2 N 0.7813(2) 0.1206(2) -0.00472(11)
N3 N 0.7722(2) -0.6242(2) -0.00806(10)
O1 O 0.59460(17) 0.2649(2) 0.03478(8)
O2 O 0.44156(19) 0.2016(2) 0.06616(9)
O3 O 0.40016(17) 0.22425(18) 0.18211(8)
O4 O 0.3868(2) 0.0500(2) 0.16084(10)
C1 C 0.6018(3) 0.1752(3) 0.11272(12)
C2 C 0.5385(3) 0.2174(3) 0.06816(13)
C3 C 0.5557(3) 0.1349(3) 0.15610(13)
C4 C 0.4367(3) 0.1354(3) 0.16563(12)
C5 C 0.6240(3) 0.0945(3) 0.19233(14)
H1 H 0.5952 0.0667 0.2226
C6 C 0.7336(3) 0.0942(3) 0.18502(13)
H2 H 0.7805 0.0644 0.2093
C7 C 0.7734(3) 0.1389(3) 0.14100(12)
H3 H 0.8487 0.1403 0.1356
C8 C 0.8780(3) 0.0947(3) -0.02262(14)
H4 H 0.9375 0.1366 -0.0122
C9 C 0.8969(3) 0.0110(3) -0.05522(15)
H5 H 0.9673 -0.0031 -0.0671
C10 C 0.8118(3) -0.0518(3) -0.07026(14)
C11 C 0.7112(3) -0.0265(3) -0.05155(14)
H6 H 0.6505 -0.0684 -0.0606
C12 C 0.7000(3) 0.0598(3) -0.01980(14)
H7 H 0.6302 0.0767 -0.0080
C13 C 0.8276(4) -0.1482(3) -0.10316(14)
H8 H 0.8975 -0.1431 -0.1205
H9 H 0.7705 -0.1507 -0.1289
C14 C 0.8241(3) -0.2504(3) -0.07163(13)
H10 H 0.7578 -0.2502 -0.0512
H11 H 0.8859 -0.2506 -0.0484
C15 C 0.8269(4) -0.3524(3) -0.10342(14)
H12 H 0.7708 -0.3486 -0.1295
H13 H 0.8973 -0.3581 -0.1203
C16 C 0.8090(3) -0.4495(3) -0.07161(14)
C17 C 0.7107(3) -0.4656(3) -0.04854(15)
H14 H 0.6538 -0.4165 -0.0541
C18 C 0.6952(3) -0.5526(3) -0.01761(13)
H15 H 0.6270 -0.5621 -0.0024
C19 C 0.8666(3) -0.6109(3) -0.03168(13)
H16 H 0.9214 -0.6625 -0.0264
C20 C 0.8872(3) -0.5263(3) -0.06304(13)
H17 H 0.9551 -0.5203 -0.0789
Cu1_2 Cu 0.75184(3) -0.73843(3) 0.044457(12)
Cu1E Cu 0.25184(3) 0.23843(3) 0.205543(12)
N3_2 N 0.7722(2) 0.3758(2) -0.00806(10)
O3E O 0.90016(17) 0.27575(18) 0.06789(8)
O5 O 0.7322(3) -0.6191(3) 0.21085(12)
H18 H 0.7935(14) -0.642(4) 0.2082(14)
H19 H 0.712(3) -0.596(4) 0.1837(7)
O6 O 0.6730(3) -0.5301(4) 0.11373(14)
H20 H 0.7367(8) -0.526(5) 0.1064(16)
H21 H 0.636(3) -0.520(5) 0.0887(11)
O7 O 0.4868(10) -0.5342(9) 0.0666(5)
loop_
_geom_bond_atom_site_label_1
_geom_bond_atom_site_label_2
_geom_bond_site_symmetry_1
_geom_bond_site_symmetry_2
Cu1 N1 1_555 1_555
N1 C1 1_555 1_555
N2 Cu1 1_555 1_555
N3 C18 1_555 1_555
O1 Cu1 1_555 1_555
O2 C2 1_555 1_555
O3 C4 1_555 1_555
O4 C4 1_555 1_555
C1 C2 1_555 1_555
C2 O1 1_555 1_555
C3 C1 1_555 1_555
C4 C3 1_555 1_555
C5 C3 1_555 1_555
H1 C5 1_555 1_555
C6 C5 1_555 1_555
H2 C6 1_555 1_555
C7 N1 1_555 1_555
H3 C7 1_555 1_555
C8 N2 1_555 1_555
H4 C8 1_555 1_555
C9 C8 1_555 1_555
H5 C9 1_555 1_555
C10 C9 1_555 1_555
C11 C10 1_555 1_555
H6 C11 1_555 1_555
C12 N2 1_555 1_555
H7 C12 1_555 1_555
C13 C10 1_555 1_555
H8 C13 1_555 1_555
H9 C13 1_555 1_555
C14 C13 1_555 1_555
H10 C14 1_555 1_555
H11 C14 1_555 1_555
C15 C14 1_555 1_555
H12 C15 1_555 1_555
H13 C15 1_555 1_555
C16 C15 1_555 1_555
C17 C16 1_555 1_555
H14 C17 1_555 1_555
C18 C17 1_555 1_555
H15 C18 1_555 1_555
C19 N3 1_555 1_555
H16 C19 1_555 1_555
C20 C16 1_555 1_555
H17 C20 1_555 1_555
O5 H18 1_555 1_555
H19 O5 1_555 1_555
O6 H20 1_555 1_555
H21 O6 1_555 1_555
Cu1_2 N3 1_555 1_555
Cu1E O3 1_555 1_555
N3_2 Cu1 1_555 1_555
O3E Cu1 1_555 1_555
C6 C7 1_555 1_555
C11 C12 1_555 1_555
C19 C20 1_555 1_555

#END
