
#######################################################################
#
#                 Cambridge Crystallographic Data Centre
#                                CCDC 
#
#######################################################################
#
# If this CIF has been generated from an entry in the Cambridge 
# Structural Database, then it will include bibliographic, chemical, 
# crystal, experimental, refinement or atomic coordinate data resulting 
# from the CCDC's data processing and validation procedures.
#
#######################################################################

data_BONNEY01
_symmetry_cell_setting           tetragonal
_symmetry_space_group_name_H-M   'P 41 21 2'
_symmetry_Int_Tables_number      92
_space_group_name_Hall           'P 4abw 2nw'
loop_
_symmetry_equiv_pos_site_id
_symmetry_equiv_pos_as_xyz
1 x,y,z
2 1/2-y,1/2+x,1/4+z
3 -x,-y,1/2+z
4 1/2+y,1/2-x,3/4+z
5 1/2+x,1/2-y,3/4-z
6 y,x,-z
7 1/2-x,1/2+y,1/4-z
8 -y,-x,1/2-z
_cell_length_a                   12.50270(10)
_cell_length_b                   12.50270(10)
_cell_length_c                   26.6599(2)
_cell_angle_alpha                90
_cell_angle_beta                 90
_cell_angle_gamma                90
_cell_volume                     4167.41
loop_
_atom_site_label
_atom_site_type_symbol
_atom_site_fract_x
_atom_site_fract_y
_atom_site_fract_z
Cu1 Cu 0.25316(4) -0.24188(4) -0.043622(17)
O1 O 0.0965(2) -0.2372(2) -0.03379(9)
O2 O -0.0581(2) -0.2928(3) -0.06597(9)
O3 O -0.0990(2) -0.2724(2) -0.18198(9)
O4 O -0.1163(2) -0.4449(2) -0.16002(11)
N1 N 0.2754(3) -0.1280(2) 0.00859(10)
N2 N 0.2824(3) 0.6175(3) 0.00561(11)
C1 C 0.3703(3) -0.1142(3) 0.03232(14)
H1 H 0.4238 -0.1647 0.0271
C2 C 0.3259(4) 0.3491(3) 0.10371(14)
H2 H 0.2685 0.3455 0.1282
H3 H 0.3930 0.3552 0.1218
C3 C 0.2721(3) -0.3648(3) -0.14038(13)
H4 H 0.3456 -0.3654 -0.1352
C4 C 0.2150(3) 0.0310(3) 0.04863(14)
H5 H 0.1597 0.0794 0.0539
C5 C 0.0399(3) -0.2811(3) -0.06760(13)
C6 C 0.3311(4) 0.1446(3) 0.10335(15)
H6 H 0.4005 0.1395 0.1194
H7 H 0.2771 0.1479 0.1294
C7 C 0.3109(4) 0.4447(3) 0.07142(14)
C8 C 0.3265(4) 0.2464(3) 0.07205(14)
H8 H 0.2625 0.2447 0.0515
H9 H 0.3877 0.2479 0.0497
C9 C 0.2109(4) 0.4699(3) 0.05223(14)
H10 H 0.1516 0.4291 0.0610
C10 C 0.1220(3) -0.4052(3) -0.19185(14)
H11 H 0.0937 -0.4314 -0.2217
C11 C 0.0544(3) -0.3638(3) -0.15565(13)
C12 C 0.1995(4) 0.5559(3) 0.01995(14)
H12 H 0.1318 0.5717 0.0076
C13 C -0.0647(3) -0.3603(3) -0.16517(13)
C14 C 0.2305(3) -0.4081(3) -0.18419(14)
H13 H 0.2755 -0.4386 -0.2080
C15 C 0.3784(3) 0.5917(3) 0.02343(15)
H14 H 0.4370 0.6318 0.0131
C16 C 0.3953(3) 0.5084(3) 0.05650(15)
H15 H 0.4637 0.4952 0.0687
N3 N 0.2079(2) -0.3220(2) -0.10555(10)
C17 C 0.1012(3) -0.3240(3) -0.11189(13)
C18 C 0.3914(3) -0.0299(3) 0.06348(14)
H16 H 0.4577 -0.0240 0.0790
C19 C 0.1990(3) -0.0554(3) 0.01808(14)
H17 H 0.1322 -0.0642 0.0033
C20 C 0.3128(4) 0.0471(3) 0.07172(13)
Cu1_2 Cu 0.25316(4) 0.75812(4) -0.043622(17)
Cu1D Cu -0.24684(4) -0.25812(4) -0.206378(17)
O3D O 0.4010(2) -0.2276(2) -0.06802(9)
N2_2 N 0.2824(3) -0.3825(3) 0.00561(11)
O5 O 0.6213(3) -0.2665(3) 0.03944(12)
O6 O 0.5351(4) -0.3290(3) 0.13612(14)
O7 O -0.0153(6) -0.0346(6) -0.0616(3)
loop_
_geom_bond_atom_site_label_1
_geom_bond_atom_site_label_2
_geom_bond_site_symmetry_1
_geom_bond_site_symmetry_2
Cu1 O1 1_555 1_555
O1 C5 1_555 1_555
O2 C5 1_555 1_555
O3 C13 1_555 1_555
O4 C13 1_555 1_555
N1 Cu1 1_555 1_555
N2 C12 1_555 1_555
C1 N1 1_555 1_555
H1 C1 1_555 1_555
C2 H2 1_555 1_555
H3 C2 1_555 1_555
C3 H4 1_555 1_555
C4 H5 1_555 1_555
C5 C17 1_555 1_555
C6 H6 1_555 1_555
H7 C6 1_555 1_555
C7 C2 1_555 1_555
C8 C2 1_555 1_555
H8 C8 1_555 1_555
H9 C8 1_555 1_555
C9 C7 1_555 1_555
H10 C9 1_555 1_555
C10 H11 1_555 1_555
C11 C10 1_555 1_555
C12 C9 1_555 1_555
H12 C12 1_555 1_555
C13 C11 1_555 1_555
C14 C3 1_555 1_555
H13 C14 1_555 1_555
C15 N2 1_555 1_555
H14 C15 1_555 1_555
C16 C7 1_555 1_555
H15 C16 1_555 1_555
N3 Cu1 1_555 1_555
C17 C11 1_555 1_555
C18 C1 1_555 1_555
H16 C18 1_555 1_555
C19 N1 1_555 1_555
H17 C19 1_555 1_555
C20 C4 1_555 1_555
Cu1_2 N2 1_555 1_555
Cu1D O3 1_555 1_555
O3D Cu1 1_555 1_555
N2_2 Cu1 1_555 1_555
C3 N3 1_555 1_555
C4 C19 1_555 1_555
C6 C8 1_555 1_555
C6 C20 1_555 1_555
C10 C14 1_555 1_555
C15 C16 1_555 1_555
N3 C17 1_555 1_555
C18 C20 1_555 1_555

#END
