
#######################################################################
#
#                 Cambridge Crystallographic Data Centre
#                                CCDC 
#
#######################################################################
#
# If this CIF has been generated from an entry in the Cambridge 
# Structural Database, then it will include bibliographic, chemical, 
# crystal, experimental, refinement or atomic coordinate data resulting 
# from the CCDC's data processing and validation procedures.
#
#######################################################################

data_BONWAD
_symmetry_cell_setting           monoclinic
_symmetry_space_group_name_H-M   'P 21/n'
_symmetry_Int_Tables_number      14
_space_group_name_Hall           '-P 2yn'
loop_
_symmetry_equiv_pos_site_id
_symmetry_equiv_pos_as_xyz
1 x,y,z
2 1/2-x,1/2+y,1/2-z
3 -x,-y,-z
4 1/2+x,1/2-y,1/2+z
_cell_length_a                   10.934(5)
_cell_length_b                   9.029(4)
_cell_length_c                   13.146(6)
_cell_angle_alpha                90
_cell_angle_beta                 90.031(10)
_cell_angle_gamma                90
_cell_volume                     1297.81
loop_
_atom_site_label
_atom_site_type_symbol
_atom_site_fract_x
_atom_site_fract_y
_atom_site_fract_z
Zn1 Zn 0.89448(2) 0.19417(3) 0.196940(18)
Zn2 Zn 0.73453(2) 0.51306(3) -0.071467(19)
O1 O 0.81729(14) 0.34764(17) -0.17155(12)
O2 O 0.86110(16) 0.10636(19) -0.31390(13)
O3 O 0.83828(16) 0.37760(19) 0.02853(12)
O4 O 0.88934(18) 0.14171(19) 0.05314(13)
O5 O 1.24164(16) 0.3127(2) -0.22657(13)
O6 O 0.59755(19) 0.3595(2) -0.03836(16)
H1 H 0.6106 0.3225 0.0175
H2 H 0.5224 0.3635 -0.0456
O7 O 0.88814(16) 0.62574(19) -0.12741(15)
C1 C 0.85922(19) 0.2509(3) -0.00337(16)
O8 O 0.6874(2) 0.6647(2) 0.03279(15)
H3 H 0.6737 0.7440 0.0045
H4 H 0.7089 0.6821 0.0908
O9 O 1.01277(17) -0.0455(2) -0.27463(13)
O10 O 1.11343(19) 0.2873(3) -0.35521(14)
O11 O 1.03374(17) 0.62155(19) -0.24596(14)
C2 C 1.0313(2) 0.3079(2) -0.18743(16)
H5 H 1.0628 0.3505 -0.1241
C3 C 0.9471(2) 0.5645(3) -0.19648(17)
C4 C 0.92327(19) 0.4031(2) -0.22402(16)
H6 H 0.9127 0.3928 -0.2977
C5 C 0.9680(2) 0.1580(2) -0.16213(16)
H7 H 1.0151 0.1022 -0.1116
C6 C 0.8475(2) 0.2146(2) -0.11675(16)
H8 H 0.7831 0.1406 -0.1268
C7 C 1.1353(2) 0.3013(2) -0.26445(18)
C8 C 0.9454(2) 0.0653(2) -0.25723(16)
Zn1C Zn 1.39448(2) 0.30583(3) -0.303060(18)
Zn1B Zn 1.10552(2) -0.19417(3) -0.196940(18)
Zn1B_2 Zn 1.10552(2) 0.80583(3) -0.196940(18)
Zn2A Zn 0.76547(2) 0.01306(3) -0.428533(19)
O2A O 0.63890(16) 0.60636(19) -0.18610(13)
O5C O 0.74164(16) 0.1873(2) 0.27343(13)
O9B O 0.98723(17) 0.0455(2) 0.27463(13)
O11B O 0.96626(17) 0.37845(19) 0.24596(14)
O12 O 0.6279(8) 0.9539(5) 0.0097(6)
H9 H 0.606(3) 0.937(2) 0.0692(16)
H10 H 0.6328 1.0469 0.0093
loop_
_geom_bond_atom_site_label_1
_geom_bond_atom_site_label_2
_geom_bond_site_symmetry_1
_geom_bond_site_symmetry_2
Zn1 O4 1_555 1_555
Zn2 O1 1_555 1_555
O1 C4 1_555 1_555
O2 C8 1_555 1_555
O3 Zn2 1_555 1_555
O4 C1 1_555 1_555
O5 C7 1_555 1_555
O6 Zn2 1_555 1_555
H1 O6 1_555 1_555
H2 O6 1_555 1_555
O7 Zn2 1_555 1_555
C1 O3 1_555 1_555
O8 Zn2 1_555 1_555
H3 O8 1_555 1_555
H4 O8 1_555 1_555
O9 C8 1_555 1_555
O10 C7 1_555 1_555
O11 C3 1_555 1_555
C2 H5 1_555 1_555
C3 O7 1_555 1_555
C4 C2 1_555 1_555
H6 C4 1_555 1_555
C5 C2 1_555 1_555
H7 C5 1_555 1_555
C6 O1 1_555 1_555
H8 C6 1_555 1_555
C7 C2 1_555 1_555
C8 C5 1_555 1_555
O12 H9 1_555 1_555
H10 O12 1_555 1_555
Zn1C O5 1_555 1_555
Zn1B O9 1_555 1_555
Zn1B_2 O11 1_555 1_555
Zn2A O2 1_555 1_555
O2A Zn2 1_555 1_555
O5C Zn1 1_555 1_555
O9B Zn1 1_555 1_555
O11B Zn1 1_555 1_555
C1 C6 1_555 1_555
C3 C4 1_555 1_555
C5 C6 1_555 1_555

#END
