
#######################################################################
#
#                 Cambridge Crystallographic Data Centre
#                                CCDC 
#
#######################################################################
#
# If this CIF has been generated from an entry in the Cambridge 
# Structural Database, then it will include bibliographic, chemical, 
# crystal, experimental, refinement or atomic coordinate data resulting 
# from the CCDC's data processing and validation procedures.
#
#######################################################################

data_BONWEH
_symmetry_cell_setting           triclinic
_symmetry_space_group_name_H-M   'P -1'
_symmetry_Int_Tables_number      2
_space_group_name_Hall           '-P 1'
loop_
_symmetry_equiv_pos_site_id
_symmetry_equiv_pos_as_xyz
1 x,y,z
2 -x,-y,-z
_cell_length_a                   7.3474(5)
_cell_length_b                   14.3135(9)
_cell_length_c                   20.5795(14)
_cell_angle_alpha                81.576(8)
_cell_angle_beta                 83.315(10)
_cell_angle_gamma                85.731(7)
_cell_volume                     2122.75
loop_
_atom_site_label
_atom_site_type_symbol
_atom_site_fract_x
_atom_site_fract_y
_atom_site_fract_z
Zn1 Zn 0.25556(13) 0.38214(7) -0.08480(5)
Zn2 Zn 1.23968(13) 0.07215(7) -0.39816(5)
Zn3 Zn 0.56902(13) 0.66396(7) -0.14759(5)
Zn4 Zn 0.96668(13) 0.26024(7) -0.57657(5)
O1 O 1.1772(7) 0.2155(4) -0.6511(3)
O2 O 0.3542(7) 0.7582(4) -0.1054(3)
O3 O 1.4628(8) 0.3691(4) -0.5951(3)
O4 O 0.3903(8) 0.6876(5) -0.2172(3)
O5 O 1.1635(8) 0.1659(5) -0.5094(3)
O6 O 0.8842(8) 0.1304(4) -0.5867(3)
O7 O 0.8129(8) 0.3373(4) -0.6454(3)
H1 H 0.7073 0.3460 -0.6286
O8 O 1.4193(8) 0.0936(4) -0.4768(3)
O9 O 0.0943(9) 0.4960(5) -0.0754(4)
O10 O 0.6347(8) 0.6563(4) -0.0539(3)
O11 O 0.5118(8) 0.6661(5) 0.0489(3)
O12 O 0.3645(9) 0.5537(4) -0.0990(3)
O13 O 0.9943(9) -0.0116(4) -0.6108(4)
O14 O -0.1140(9) 0.7292(5) 0.0577(4)
O15 O 1.1630(8) 0.3549(4) -0.5798(3)
O16 O 0.7383(8) 0.7694(4) -0.1869(3)
H2 H 0.6800 0.8120 -0.2081
O17 O 1.6447(10) 0.0018(5) -0.6730(3)
N1 N 1.1526(10) 0.1868(5) -0.3530(4)
N2 N 0.7328(9) 0.5568(5) -0.1840(4)
N3 N 0.3455(9) 0.3681(5) -0.1812(3)
N4 N 0.8026(9) 0.2852(5) -0.4931(3)
C1 C 1.1777(11) 0.1152(6) -0.6506(4)
H3 H 1.1782 0.1039 -0.6964
O18 O 0.0957(9) 0.7187(6) -0.2332(3)
C2 C 0.2280(12) 0.7135(6) -0.1981(4)
C3 C 0.7443(12) 0.4699(6) -0.1533(4)
H4 H 0.6932 0.4580 -0.1096
C4 C 0.7489(14) 0.3738(7) -0.4794(5)
H5 H 0.7782 0.4249 -0.5115
C5 C 0.1023(11) 0.6636(6) -0.0782(4)
H6 H -0.0310 0.6641 -0.0784
C6 C 0.1846(11) 0.7405(6) -0.1297(4)
H7 H 0.1025 0.7978 -0.1313
C7 C 0.8096(13) 0.5713(6) -0.2469(5)
H8 H 0.8008 0.6324 -0.2694
C8 C 0.6538(13) 0.3916(6) -0.4208(4)
H9 H 0.6182 0.4537 -0.4146
C9 C 0.5065(12) 0.6805(6) -0.0132(4)
C10 C 0.4094(13) 0.2808(6) -0.1938(5)
H10 H 0.3952 0.2308 -0.1596
C11 C 1.3291(12) 0.1367(5) -0.5220(4)
C12 C 1.0035(12) 0.0754(6) -0.6119(4)
C13 C 1.4249(11) 0.1509(5) -0.5919(4)
H11 H 1.5587 0.1481 -0.5926
C14 C 1.3221(11) 0.3280(6) -0.6000(4)
C15 C 0.3392(11) 0.7381(6) -0.0351(4)
H12 H 0.3328 0.7983 -0.0173
C16 C 1.3519(10) 0.2410(5) -0.6341(4)
H13 H 1.4357 0.2543 -0.6745
C17 C 0.6100(11) 0.3196(6) -0.3710(4)
C18 C 1.0055(14) 0.2400(6) -0.2532(5)
H14 H 0.9607 0.2253 -0.2090
C19 C 0.4921(13) 0.2614(6) -0.2524(4)
H15 H 0.5336 0.1998 -0.2578
C20 C 0.6606(13) 0.2290(6) -0.3846(5)
H16 H 0.6293 0.1774 -0.3533
C21 C 0.7598(12) 0.2137(7) -0.4461(5)
H17 H 0.7958 0.1522 -0.4535
C22 C 0.1526(12) 0.6914(6) -0.0136(5)
H18 H 0.1695 0.6348 0.0187
C23 C 1.1449(12) 0.2759(6) -0.3835(4)
H19 H 1.1912 0.2881 -0.4278
C24 C 0.9963(11) 0.3331(6) -0.2846(4)
C25 C 0.8310(12) 0.3939(6) -0.1838(4)
H20 H 0.8350 0.3330 -0.1606
O19 O -0.0032(14) 0.8438(6) -0.0115(5)
C26 C 0.0033(14) 0.7584(6) 0.0140(5)
C27 C 1.0698(12) 0.3505(6) -0.3512(4)
H21 H 1.0680 0.4120 -0.3735
C28 C 0.3705(11) 0.4396(6) -0.2309(4)
H22 H 0.3314 0.5006 -0.2231
C29 C 0.1926(13) 0.5653(6) -0.0843(4)
C30 C 1.3599(11) 0.0729(6) -0.6269(4)
H23 H 1.3418 0.0145 -0.5961
O20 O 1.4815(12) 0.0949(7) -0.7443(4)
C31 C 0.4506(12) 0.4266(6) -0.2923(4)
H24 H 0.4626 0.4780 -0.3255
C32 C 0.8987(13) 0.5035(6) -0.2798(5)
H25 H 0.9520 0.5188 -0.3230
C33 C 0.5155(10) 0.3353(6) -0.3055(4)
C34 C 0.9100(11) 0.4106(6) -0.2484(4)
C35 C 1.5045(13) 0.0556(7) -0.6857(5)
C36 C 1.0826(12) 0.1704(6) -0.2891(4)
H26 H 1.0866 0.1083 -0.2680
H27 H 0.8451 0.7714 -0.2051
H28 H 0.8051 0.3275 -0.6837
Zn1A Zn 0.74444(13) 0.61786(7) 0.08480(5)
Zn1A_2 Zn -0.25556(13) 0.61786(7) 0.08480(5)
Zn2A Zn 0.76032(13) -0.07215(7) -0.60184(5)
Zn2A_2 Zn 1.76032(13) -0.07215(7) -0.60184(5)
O11A O 0.4882(8) 0.3339(5) -0.0489(3)
O13A O 1.0057(9) 0.0116(4) -0.3892(4)
O14A O 0.1140(9) 0.2708(5) -0.0577(4)
O17A O 1.3553(10) -0.0018(5) -0.3270(3)
loop_
_geom_bond_atom_site_label_1
_geom_bond_atom_site_label_2
_geom_bond_site_symmetry_1
_geom_bond_site_symmetry_2
Zn1 O9 1_555 1_555
Zn2 O8 1_555 1_555
Zn3 O2 1_555 1_555
Zn4 O1 1_555 1_555
O1 C1 1_555 1_555
O2 C6 1_555 1_555
O3 C14 1_555 1_555
O4 Zn3 1_555 1_555
O5 Zn4 1_555 1_555
O6 Zn4 1_555 1_555
O7 Zn4 1_555 1_555
H1 O7 1_555 1_555
O8 C11 1_555 1_555
O9 C29 1_555 1_555
O10 Zn3 1_555 1_555
O11 C9 1_555 1_555
O12 Zn3 1_555 1_555
O13 C12 1_555 1_555
O14 C26 1_555 1_555
O15 Zn4 1_555 1_555
O16 Zn3 1_555 1_555
H2 O16 1_555 1_555
O17 C35 1_555 1_555
N1 Zn2 1_555 1_555
N2 Zn3 1_555 1_555
N3 Zn1 1_555 1_555
N4 Zn4 1_555 1_555
C1 H3 1_555 1_555
O18 C2 1_555 1_555
C2 O4 1_555 1_555
C3 N2 1_555 1_555
H4 C3 1_555 1_555
C4 N4 1_555 1_555
H5 C4 1_555 1_555
C5 H6 1_555 1_555
C6 C2 1_555 1_555
H7 C6 1_555 1_555
C7 N2 1_555 1_555
H8 C7 1_555 1_555
C8 C4 1_555 1_555
H9 C8 1_555 1_555
C9 O10 1_555 1_555
C10 N3 1_555 1_555
H10 C10 1_555 1_555
C11 O5 1_555 1_555
C12 O6 1_555 1_555
C13 C11 1_555 1_555
H11 C13 1_555 1_555
C14 O15 1_555 1_555
C15 O2 1_555 1_555
H12 C15 1_555 1_555
C16 O1 1_555 1_555
H13 C16 1_555 1_555
C17 C8 1_555 1_555
C18 H14 1_555 1_555
C19 C10 1_555 1_555
H15 C19 1_555 1_555
C20 C17 1_555 1_555
H16 C20 1_555 1_555
C21 N4 1_555 1_555
H17 C21 1_555 1_555
C22 C5 1_555 1_555
H18 C22 1_555 1_555
C23 N1 1_555 1_555
H19 C23 1_555 1_555
C24 C18 1_555 1_555
C25 C3 1_555 1_555
H20 C25 1_555 1_555
O19 C26 1_555 1_555
C26 C22 1_555 1_555
C27 C23 1_555 1_555
H21 C27 1_555 1_555
C28 N3 1_555 1_555
H22 C28 1_555 1_555
C29 O12 1_555 1_555
C30 C1 1_555 1_555
H23 C30 1_555 1_555
O20 C35 1_555 1_555
C31 C28 1_555 1_555
H24 C31 1_555 1_555
C32 C7 1_555 1_555
H25 C32 1_555 1_555
C33 C17 1_555 1_555
C34 C24 1_555 1_555
C35 C30 1_555 1_555
C36 N1 1_555 1_555
H26 C36 1_555 1_555
H27 O16 1_555 1_555
H28 O7 1_555 1_555
Zn1A O11 1_555 1_555
Zn1A_2 O14 1_555 1_555
Zn2A O13 1_555 1_555
Zn2A_2 O17 1_555 1_555
O11A Zn1 1_555 1_555
O13A Zn2 1_555 1_555
O14A Zn1 1_555 1_555
O17A Zn2 1_555 1_555
C1 C12 1_555 1_555
C5 C6 1_555 1_555
C5 C29 1_555 1_555
C9 C15 1_555 1_555
C13 C16 1_555 1_555
C13 C30 1_555 1_555
C14 C16 1_555 1_555
C15 C22 1_555 1_555
C18 C36 1_555 1_555
C19 C33 1_555 1_555
C20 C21 1_555 1_555
C24 C27 1_555 1_555
C25 C34 1_555 1_555
C31 C33 1_555 1_555
C32 C34 1_555 1_555

#END
