
#######################################################################
#
#                 Cambridge Crystallographic Data Centre
#                                CCDC 
#
#######################################################################
#
# If this CIF has been generated from an entry in the Cambridge 
# Structural Database, then it will include bibliographic, chemical, 
# crystal, experimental, refinement or atomic coordinate data resulting 
# from the CCDC's data processing and validation procedures.
#
#######################################################################

data_BOPPOL10
_symmetry_cell_setting           orthorhombic
_symmetry_space_group_name_H-M   'P 21 21 21'
_symmetry_Int_Tables_number      19
_space_group_name_Hall           'P 2ac 2ab'
loop_
_symmetry_equiv_pos_site_id
_symmetry_equiv_pos_as_xyz
1 x,y,z
2 1/2-x,-y,1/2+z
3 1/2+x,1/2-y,-z
4 -x,1/2+y,1/2-z
_cell_length_a                   8.444(1)
_cell_length_b                   10.735(2)
_cell_length_c                   39.726(6)
_cell_angle_alpha                90
_cell_angle_beta                 90
_cell_angle_gamma                90
_cell_volume                     3601.02
loop_
_atom_site_label
_atom_site_type_symbol
_atom_site_fract_x
_atom_site_fract_y
_atom_site_fract_z
S2 S 0.13320 0.47060 0.27160
O9 O 0.09030 0.38040 0.24880
O10 O 0.01190 0.54750 0.27910
O11 O 0.18810 0.40470 0.29800
O12 O 0.25340 0.53750 0.26170
O13 O 0.03000 0.09700 0.14210
O14 O 0.02860 0.85500 0.12640
O15 O -0.16660 0.62720 0.21760
N1 N 0.76510 0.18970 0.10060
C1 C 0.80030 0.27620 0.07300
C2 C 0.82530 0.40610 0.08760
O1 O 0.91940 0.42280 0.11120
C3 C 0.94810 0.23220 0.05390
C4 C 0.97940 0.31350 0.02360
C5 C 1.07390 0.41730 0.02640
C6 C 1.09300 0.49640 -0.00150
C7 C 1.02030 0.47120 -0.03070
C8 C 0.92780 0.36930 -0.03410
C9 C 0.90160 0.28880 -0.00710
N2 N 0.74700 0.50130 0.07330
C10 C 0.78270 0.62940 0.08350
C11 C 0.69690 0.67080 0.11580
O2 O 0.73030 0.77380 0.12760
C12 C 0.73400 0.70350 0.05250
C13 C 0.62470 0.63170 0.03460
C14 C 0.63920 0.49770 0.04450
N3 N 0.58700 0.60000 0.12870
C15 C 0.49840 0.63660 0.15890
C16 C 0.44830 0.51820 0.17670
O3 O 0.33470 0.45730 0.16680
N4 N 0.53900 0.47890 0.20180
C17 C 0.52530 0.34800 0.21310
C18 C 0.60340 0.27190 0.18510
O4 O 0.73050 0.30570 0.17290
C19 C 0.61410 0.32990 0.24630
N5 N 0.52980 0.17040 0.17340
C20 C 0.59540 0.10650 0.14460
C21 C 0.62700 0.20090 0.11640
O5 O 0.52510 0.27700 0.10790
C22 C 0.46450 0.01160 0.13570
C23 C 0.39120 -0.01890 0.16970
C24 C 0.38570 0.10930 0.18690
Mg1 Mg 1.12660 0.45680 0.13790
S1 S 1.23250 0.78650 0.06000
C25 C 1.22560 0.66160 0.08310
N6 N 1.21690 0.57370 0.10000
O6 O 1.04480 0.61880 0.16130
O7 O 1.02960 0.36120 0.17800
O8 O 1.21200 0.29400 0.11740
H1 H 0.84400 0.14500 0.11300
H2 H 0.70600 0.28200 0.05700
H3 H 1.04100 0.23400 0.07000
H4 H 0.91600 0.14400 0.04700
H5 H 1.08300 0.45300 0.04900
H6 H 1.17900 0.56000 -0.00400
H7 H 1.04900 0.53000 -0.04800
H8 H 0.88700 0.35000 -0.05600
H9 H 0.85100 0.20800 -0.00700
H10 H 0.89800 0.64200 0.09000
H11 H 0.83500 0.70800 0.03900
H12 H 0.70200 0.78300 0.06500
H13 H 0.59500 0.64600 0.01000
H14 H 0.50300 0.65400 0.04200
H15 H 0.68600 0.43700 0.02800
H16 H 0.52700 0.48300 0.05400
H17 H 0.57500 0.51500 0.12200
H18 H 0.40200 0.68200 0.15000
H19 H 0.56800 0.67600 0.17700
H20 H 0.63600 0.52300 0.20600
H21 H 0.40800 0.32500 0.21300
H22 H 0.57500 0.38100 0.26600
H23 H 0.73100 0.34700 0.24000
H24 H 0.63400 0.23800 0.25200
H25 H 0.69800 0.06000 0.15100
H26 H 0.51600 -0.05500 0.12300
H27 H 0.37600 0.04100 0.12000
H28 H 0.45500 -0.08100 0.18300
H29 H 0.27400 -0.03800 0.16700
H30 H 0.33600 0.09500 0.21200
H31 H 0.28400 0.15100 0.17800
Mg1_2 Mg 0.12660 0.45680 0.13790
O3_2 O 1.33470 0.45730 0.16680
loop_
_geom_bond_atom_site_label_1
_geom_bond_atom_site_label_2
_geom_bond_site_symmetry_1
_geom_bond_site_symmetry_2
N1 C1 1_555 1_555
C1 C2 1_555 1_555
C2 O1 1_555 1_555
O1 Mg1 1_555 1_555
C3 C1 1_555 1_555
C4 C3 1_555 1_555
C5 C4 1_555 1_555
C6 C5 1_555 1_555
C7 C6 1_555 1_555
C8 C7 1_555 1_555
C9 C4 1_555 1_555
N2 C2 1_555 1_555
C10 N2 1_555 1_555
C11 C10 1_555 1_555
O2 C11 1_555 1_555
C12 C10 1_555 1_555
C13 C12 1_555 1_555
C14 N2 1_555 1_555
N3 C11 1_555 1_555
C15 N3 1_555 1_555
C16 C15 1_555 1_555
O3 C16 1_555 1_555
N4 C16 1_555 1_555
C17 N4 1_555 1_555
C18 C17 1_555 1_555
O4 C18 1_555 1_555
C19 C17 1_555 1_555
N5 C18 1_555 1_555
C20 N5 1_555 1_555
C21 N1 1_555 1_555
O5 C21 1_555 1_555
C22 C20 1_555 1_555
C23 C22 1_555 1_555
C24 N5 1_555 1_555
Mg1 N6 1_555 1_555
S1 C25 1_555 1_555
C25 N6 1_555 1_555
O6 Mg1 1_555 1_555
O7 Mg1 1_555 1_555
O8 Mg1 1_555 1_555
H1 N1 1_555 1_555
H2 C1 1_555 1_555
H3 C3 1_555 1_555
H4 C3 1_555 1_555
H5 C5 1_555 1_555
H6 C6 1_555 1_555
H7 C7 1_555 1_555
H8 C8 1_555 1_555
H9 C9 1_555 1_555
H10 C10 1_555 1_555
H11 C12 1_555 1_555
H12 C12 1_555 1_555
H13 C13 1_555 1_555
H14 C13 1_555 1_555
H15 C14 1_555 1_555
H16 C14 1_555 1_555
H17 N3 1_555 1_555
H18 C15 1_555 1_555
H19 C15 1_555 1_555
H20 N4 1_555 1_555
H21 C17 1_555 1_555
H22 C19 1_555 1_555
H23 C19 1_555 1_555
H24 C19 1_555 1_555
H25 C20 1_555 1_555
H26 C22 1_555 1_555
H27 C22 1_555 1_555
H28 C23 1_555 1_555
H29 C23 1_555 1_555
H30 C24 1_555 1_555
H31 C24 1_555 1_555
S2 O9 1_555 1_555
O10 S2 1_555 1_555
O11 S2 1_555 1_555
O12 S2 1_555 1_555
Mg1_2 O3 1_555 1_555
O3_2 Mg1 1_555 1_555
C8 C9 1_555 1_555
C13 C14 1_555 1_555
C20 C21 1_555 1_555
C23 C24 1_555 1_555

#END
