
#######################################################################
#
#                 Cambridge Crystallographic Data Centre
#                                CCDC 
#
#######################################################################
#
# If this CIF has been generated from an entry in the Cambridge 
# Structural Database, then it will include bibliographic, chemical, 
# crystal, experimental, refinement or atomic coordinate data resulting 
# from the CCDC's data processing and validation procedures.
#
#######################################################################

data_BOPVEI
_symmetry_cell_setting           triclinic
_symmetry_space_group_name_H-M   'P -1'
_symmetry_Int_Tables_number      2
_space_group_name_Hall           '-P 1'
loop_
_symmetry_equiv_pos_site_id
_symmetry_equiv_pos_as_xyz
1 x,y,z
2 -x,-y,-z
_cell_length_a                   7.2273(7)
_cell_length_b                   10.0008(10)
_cell_length_c                   15.3743(16)
_cell_angle_alpha                81.889(2)
_cell_angle_beta                 77.827(2)
_cell_angle_gamma                84.047(2)
_cell_volume                     1072.24
loop_
_atom_site_label
_atom_site_type_symbol
_atom_site_fract_x
_atom_site_fract_y
_atom_site_fract_z
Cd1 Cd 0.24561(4) 0.91848(3) 0.526820(19)
Cl3 Cl 0.11978(13) 1.04039(10) 0.39038(6)
Cl4 Cl 0.38662(14) 1.09997(10) 0.58483(7)
N1 N 0.2471(4) 0.6968(3) 0.5191(2)
N3 N 0.2792(5) 0.4797(3) 0.5691(2)
C1 C 0.2246(5) 0.6218(4) 0.4524(3)
O2 O 0.2827(5) 0.7860(3) 0.6698(2)
C4 C 0.1841(5) 0.6635(4) 0.3685(3)
H1 H 0.1707 0.7549 0.3470
C5 C 0.2436(5) 0.4837(4) 0.4838(3)
C7 C 0.1640(6) 0.5644(4) 0.3178(3)
H3 H 0.1366 0.5897 0.2610
C8 C 0.2769(5) 0.6075(4) 0.5870(3)
C11 C 0.2996(6) 0.6437(4) 0.6743(3)
H5 H 0.2026 0.6051 0.7223
H6 H 0.4230 0.6081 0.6863
C12 C 0.2229(6) 0.3849(4) 0.4330(3)
H7 H 0.2348 0.2934 0.4545
C13 C 0.1840(6) 0.4273(4) 0.3498(3)
H8 H 0.1706 0.3632 0.3137
H14 H 0.3570 0.8100 0.7042
H17 H 0.2901 0.4053 0.6087
Cd1A Cd -0.24561(4) 1.08152(3) 0.473180(19)
Cd1A_2 Cd 0.75439(4) 1.08152(3) 0.473180(19)
Cl3A Cl -0.11978(13) 0.95961(10) 0.60962(6)
Cl4A Cl 0.61338(14) 0.90003(10) 0.41517(7)
Cd2 Cd 0.25927(4) 0.43886(3) 0.98742(2)
Cl1 Cl 0.00133(14) 0.49948(11) 1.11374(7)
Cl2 Cl 0.49133(15) 0.59861(11) 0.89836(7)
N2 N 0.2835(4) 0.2231(3) 0.9673(2)
C2 C 0.2170(5) 0.1162(4) 1.0305(3)
N4 N 0.3485(5) 0.0360(4) 0.9038(3)
C3 C 0.2588(6) -0.0030(4) 0.9906(3)
C6 C 0.1208(6) 0.1147(4) 1.1192(3)
H2 H 0.0936 0.1937 1.1464
C9 C 0.2045(7) -0.1268(4) 1.0368(3)
H4 H 0.2310 -0.2061 1.0099
O3 O 0.3120(6) 0.2761(4) 0.7441(3)
C10 C 0.3591(5) 0.1704(4) 0.8921(3)
C14 C 0.0675(7) -0.0080(5) 1.1649(3)
H9 H 0.0020 -0.0125 1.2241
C15 C 0.1110(7) -0.1267(5) 1.1230(4)
H10 H 0.0742 -0.2084 1.1558
C16 C 0.4415(7) 0.2489(6) 0.8052(3)
H11 H 0.4783 0.3342 0.8169
H12 H 0.5552 0.1986 0.7771
H15 H 0.3396 0.1944 0.7244
H18 H 0.3920 -0.0144 0.8586
Cd2A Cd -0.25927(4) 0.56114(3) 1.01258(2)
Cd2A_2 Cd 0.74073(4) 0.56114(3) 1.01258(2)
Cl1A Cl -0.00133(14) 0.50052(11) 0.88626(7)
Cl2A Cl 0.50867(15) 0.40139(11) 1.10164(7)
O1 O 0.5195(4) 0.8714(3) 0.76287(19)
H13 H 0.5766 0.8011 0.7931
H16 H 0.6046 0.9165 0.7206
loop_
_geom_bond_atom_site_label_1
_geom_bond_atom_site_label_2
_geom_bond_site_symmetry_1
_geom_bond_site_symmetry_2
Cd1 Cl3 1_555 1_555
Cd2 Cl1 1_555 1_555
Cl1 Cd2A 1_555 1_555
Cl2 Cd2 1_555 1_555
Cl3 Cd1A 1_555 1_555
Cl4 Cd1 1_555 1_555
N1 Cd1 1_555 1_555
O1 H13 1_555 1_555
N2 Cd2 1_555 1_555
N3 C5 1_555 1_555
C1 N1 1_555 1_555
C2 N2 1_555 1_555
N4 C3 1_555 1_555
O2 Cd1 1_555 1_555
C3 C2 1_555 1_555
C4 C1 1_555 1_555
H1 C4 1_555 1_555
C5 C1 1_555 1_555
C6 C2 1_555 1_555
H2 C6 1_555 1_555
C7 C4 1_555 1_555
H3 C7 1_555 1_555
C8 N1 1_555 1_555
C9 C3 1_555 1_555
H4 C9 1_555 1_555
O3 C16 1_555 1_555
C10 N2 1_555 1_555
C11 O2 1_555 1_555
H5 C11 1_555 1_555
H6 C11 1_555 1_555
C12 C5 1_555 1_555
H7 C12 1_555 1_555
C13 C7 1_555 1_555
H8 C13 1_555 1_555
C14 C6 1_555 1_555
H9 C14 1_555 1_555
C15 C9 1_555 1_555
H10 C15 1_555 1_555
C16 C10 1_555 1_555
H11 C16 1_555 1_555
H12 C16 1_555 1_555
H14 O2 1_555 1_555
H15 O3 1_555 1_555
H16 O1 1_555 1_555
H17 N3 1_555 1_555
H18 N4 1_555 1_555
Cd1A Cl3A 1_555 1_555
Cd1A_2 Cl4 1_555 1_555
Cd2A Cl1A 1_555 1_555
Cd2A_2 Cl2 1_555 1_555
Cl1A Cd2 1_555 1_555
Cl2A Cd2 1_555 1_555
Cl3A Cd1 1_555 1_555
Cl4A Cd1 1_555 1_555
N3 C8 1_555 1_555
N4 C10 1_555 1_555
C8 C11 1_555 1_555
C12 C13 1_555 1_555
C14 C15 1_555 1_555
Cd1A_2 Cl4A 1_555 1_555
Cd2A_2 Cl2A 1_555 1_555

#END
