
#######################################################################
#
#                 Cambridge Crystallographic Data Centre
#                                CCDC 
#
#######################################################################
#
# If this CIF has been generated from an entry in the Cambridge 
# Structural Database, then it will include bibliographic, chemical, 
# crystal, experimental, refinement or atomic coordinate data resulting 
# from the CCDC's data processing and validation procedures.
#
#######################################################################

data_BOQJUO
_symmetry_cell_setting           monoclinic
_symmetry_space_group_name_H-M   'P 21/n'
_symmetry_Int_Tables_number      14
_space_group_name_Hall           '-P 2yn'
loop_
_symmetry_equiv_pos_site_id
_symmetry_equiv_pos_as_xyz
1 x,y,z
2 1/2-x,1/2+y,1/2-z
3 -x,-y,-z
4 1/2+x,1/2-y,1/2+z
_cell_length_a                   12.9722(7)
_cell_length_b                   17.3507(10)
_cell_length_c                   14.0501(8)
_cell_angle_alpha                90
_cell_angle_beta                 110.4230(10)
_cell_angle_gamma                90
_cell_volume                     2963.57
loop_
_atom_site_label
_atom_site_type_symbol
_atom_site_fract_x
_atom_site_fract_y
_atom_site_fract_z
C1 C 0.3999(2) 0.35005(16) 0.4290(2)
C2 C 0.4503(2) 0.42846(15) 0.46612(19)
C3 C 0.4647(2) 0.45473(16) 0.56372(19)
H1 H 0.4411 0.4245 0.6069
C4 C 0.5135(2) 0.52514(16) 0.59686(19)
H2 H 0.5225 0.5418 0.6622
C5 C 0.1598(2) 0.10072(16) 0.4577(2)
C6 C 0.0771(2) 0.04826(15) 0.4807(2)
C7 C 0.0180(3) -0.00552(18) 0.4091(2)
H3 H 0.0297 -0.0096 0.3476
C8 C -0.0587(2) -0.05332(18) 0.4287(2)
H4 H -0.0977 -0.0890 0.3801
C9 C 0.2359(2) 0.10754(18) 0.1836(2)
H5 H 0.2113 0.0652 0.2103
C10 C 0.2249(2) 0.11638(19) 0.0853(2)
H6 H 0.1922 0.0821 0.0325
C11 C 0.3089(2) 0.21687(16) 0.1724(2)
H7 H 0.3440 0.2643 0.1888
C12 C 0.2782(3) 0.22181(18) -0.0117(2)
C13 C 0.1907(3) 0.2203(2) -0.1005(2)
H8 H 0.1262 0.1953 -0.1035
C14 C 0.1980(3) 0.2565(2) -0.1877(2)
H9 H 0.1392 0.2551 -0.2490
C15 C 0.2942(3) 0.29392(17) -0.1803(2)
C16 C 0.3841(3) 0.29394(18) -0.0915(3)
H10 H 0.4488 0.3186 -0.0885
C17 C 0.3770(3) 0.2570(2) -0.0072(2)
H11 H 0.4377 0.2555 0.0526
C18 C 0.2396(3) 0.3236(2) -0.3582(2)
H12 H 0.2686 0.3510 -0.4036
H13 H 0.2409 0.2690 -0.3727
C19 C 0.1070(3) 0.42204(19) -0.3618(2)
C20 C -0.0013(3) 0.4349(2) -0.3782(3)
H14 H -0.0524 0.3955 -0.4029
C21 C -0.0346(3) 0.5060(2) -0.3582(3)
H15 H -0.1084 0.5144 -0.3682
C22 C 0.0399(3) 0.56531(17) -0.3234(2)
C23 C 0.1478(3) 0.5541(2) -0.3103(3)
H16 H 0.1979 0.5944 -0.2885
C24 C 0.1831(3) 0.4804(2) -0.3303(3)
H17 H 0.2564 0.4717 -0.3222
C25 C -0.0962(3) 0.66915(19) -0.3598(2)
H18 H -0.1406 0.6493 -0.4221
C26 C 0.0402(3) 0.68296(18) -0.2168(2)
H19 H 0.1057 0.6761 -0.1625
C27 C -0.0339(3) 0.73944(18) -0.2283(2)
H20 H -0.0279 0.7786 -0.1815
C28 C 0.5072(3) 0.1165(2) 0.4415(3)
H21 H 0.4854 0.1215 0.3713
C29 C 0.6667(4) 0.0504(3) 0.4314(4)
H22 H 0.7337 0.0286 0.4771
H23 H 0.6837 0.0904 0.3920
H24 H 0.6243 0.0110 0.3869
C30 C 0.6444(4) 0.0738(3) 0.5974(3)
H25 H 0.7146 0.0486 0.6182
H26 H 0.5938 0.0433 0.6176
H27 H 0.6523 0.1236 0.6290
N1 N 0.2887(2) 0.17024(14) 0.23836(17)
N2 N 0.2719(2) 0.18655(15) 0.07860(17)
N3 N -0.00040(19) 0.63747(13) -0.30127(18)
N4 N -0.1193(2) 0.73134(15) -0.31820(18)
N5 N 0.6035(2) 0.08268(17) 0.4894(2)
O1 O 0.4038(2) 0.32488(15) 0.34851(19)
O2 O 0.35669(17) 0.31411(12) 0.48379(16)
O3 O 0.17775(19) 0.08901(13) 0.37749(17)
O4 O 0.20429(18) 0.15314(13) 0.51880(17)
O5 O 0.30888(18) 0.33700(13) -0.25778(16)
O6 O 0.13037(19) 0.34628(13) -0.37930(17)
O7 O 0.44662(19) 0.14094(16) 0.48146(18)
Cd1 Cd 0.284274(15) 0.204962(10) 0.395500(14)
C1B C 0.6001(2) 0.64995(16) 0.5710(2)
C2B C 0.5497(2) 0.57154(15) 0.53388(19)
C3B C 0.5353(2) 0.54527(16) 0.43628(19)
H1B H 0.5589 0.5755 0.3931
C4B C 0.4865(2) 0.47486(16) 0.40314(19)
H2B H 0.4775 0.4582 0.3378
O1B O 0.5962(2) 0.67512(15) 0.65149(19)
O2B O 0.64331(17) 0.68589(12) 0.51621(16)
C5B C -0.1598(2) -0.10072(16) 0.5423(2)
C6B C -0.0771(2) -0.04826(15) 0.5193(2)
C7B C -0.0180(3) 0.00552(18) 0.5909(2)
H3B H -0.0297 0.0096 0.6524
C8B C 0.0587(2) 0.05332(18) 0.5713(2)
H4B H 0.0977 0.0890 0.6199
O3B O -0.17775(19) -0.08901(13) 0.62251(17)
O4B O -0.20429(18) -0.15314(13) 0.48120(17)
C9B C -0.2359(2) -0.10754(18) 0.8164(2)
H5B H -0.2113 -0.0652 0.7897
C10B C -0.2249(2) -0.11638(19) 0.9147(2)
H6B H -0.1922 -0.0821 0.9675
C11B C -0.3089(2) -0.21687(16) 0.8276(2)
H7B H -0.3440 -0.2643 0.8112
C12B C -0.2782(3) -0.22181(18) 1.0117(2)
C13B C -0.1907(3) -0.2203(2) 1.1005(2)
H8B H -0.1262 -0.1953 1.1035
C14B C -0.1980(3) -0.2565(2) 1.1877(2)
H9B H -0.1392 -0.2551 1.2490
C15B C -0.2942(3) -0.29392(17) 1.1803(2)
C16B C -0.3841(3) -0.29394(18) 1.0915(3)
H10B H -0.4488 -0.3186 1.0885
C17B C -0.3770(3) -0.2570(2) 1.0072(2)
H11B H -0.4377 -0.2555 0.9474
C18B C -0.2396(3) -0.3236(2) 1.3582(2)
H12B H -0.2686 -0.3510 1.4036
H13B H -0.2409 -0.2690 1.3727
C19B C -0.1070(3) -0.42204(19) 1.3618(2)
C20B C 0.0013(3) -0.4349(2) 1.3782(3)
H14B H 0.0524 -0.3955 1.4029
C21B C 0.0346(3) -0.5060(2) 1.3582(3)
H15B H 0.1084 -0.5144 1.3682
C22B C -0.0399(3) -0.56531(17) 1.3234(2)
C23B C -0.1478(3) -0.5541(2) 1.3103(3)
H16B H -0.1979 -0.5944 1.2885
C24B C -0.1831(3) -0.4804(2) 1.3303(3)
H17B H -0.2564 -0.4717 1.3222
C25B C 0.0962(3) -0.66915(19) 1.3598(2)
H18B H 0.1406 -0.6493 1.4221
C26B C -0.0402(3) -0.68296(18) 1.2168(2)
H19B H -0.1057 -0.6761 1.1625
C27B C 0.0339(3) -0.73944(18) 1.2283(2)
H20B H 0.0279 -0.7786 1.1815
C28B C -0.5072(3) -0.1165(2) 0.5585(3)
H21B H -0.4854 -0.1215 0.6287
C29B C -0.6667(4) -0.0504(3) 0.5686(4)
H22B H -0.7337 -0.0286 0.5229
H23B H -0.6837 -0.0904 0.6080
H24B H -0.6243 -0.0110 0.6131
C30B C -0.6444(4) -0.0738(3) 0.4026(3)
H25B H -0.7146 -0.0486 0.3818
H26B H -0.5938 -0.0433 0.3824
H27B H -0.6523 -0.1236 0.3710
N1B N -0.2887(2) -0.17024(14) 0.76164(17)
N2B N -0.2719(2) -0.18655(15) 0.92140(17)
N3B N 0.00040(19) -0.63747(13) 1.30127(18)
N4B N 0.1193(2) -0.73134(15) 1.31820(18)
N5B N -0.6035(2) -0.08268(17) 0.5106(2)
O5B O -0.30888(18) -0.33700(13) 1.25778(16)
O6B O -0.13037(19) -0.34628(13) 1.37930(17)
O7B O -0.44662(19) -0.14094(16) 0.51854(18)
Cd1B Cd -0.284274(15) -0.204962(10) 0.604500(14)
N4_2 N -0.1193(2) -0.26866(15) 0.68180(18)
N4B_2 N 0.1193(2) 0.26866(15) 0.31820(18)
O1B_2 O -0.4038(2) -0.32488(15) 0.65149(19)
O2B_2 O -0.35669(17) -0.31411(12) 0.51621(16)
Cd1_2 Cd 0.284274(15) -0.795038(10) 1.395500(14)
Cd1B_2 Cd -0.284274(15) 0.795038(10) -0.395500(14)
Cd1B_3 Cd 0.715726(15) 0.795038(10) 0.604500(14)
loop_
_geom_bond_atom_site_label_1
_geom_bond_atom_site_label_2
_geom_bond_site_symmetry_1
_geom_bond_site_symmetry_2
C1 C2 1_555 1_555
C2 C3 1_555 1_555
C3 H1 1_555 1_555
C4 C3 1_555 1_555
H2 C4 1_555 1_555
C5 C6 1_555 1_555
C6 C7 1_555 1_555
C7 H3 1_555 1_555
C8 C7 1_555 1_555
H4 C8 1_555 1_555
C9 H5 1_555 1_555
C10 C9 1_555 1_555
H6 C10 1_555 1_555
C11 H7 1_555 1_555
C12 C13 1_555 1_555
C13 H8 1_555 1_555
C14 C13 1_555 1_555
H9 C14 1_555 1_555
C15 C14 1_555 1_555
C16 C15 1_555 1_555
H10 C16 1_555 1_555
C17 C12 1_555 1_555
H11 C17 1_555 1_555
C18 H12 1_555 1_555
H13 C18 1_555 1_555
C19 C20 1_555 1_555
C20 H14 1_555 1_555
C21 C20 1_555 1_555
H15 C21 1_555 1_555
C22 C21 1_555 1_555
C23 C22 1_555 1_555
H16 C23 1_555 1_555
C24 C19 1_555 1_555
H17 C24 1_555 1_555
C25 H18 1_555 1_555
C26 H19 1_555 1_555
C27 C26 1_555 1_555
H20 C27 1_555 1_555
C28 H21 1_555 1_555
C29 H22 1_555 1_555
H23 C29 1_555 1_555
H24 C29 1_555 1_555
C30 H25 1_555 1_555
H26 C30 1_555 1_555
H27 C30 1_555 1_555
N1 C9 1_555 1_555
N2 C10 1_555 1_555
N3 C22 1_555 1_555
N4 C25 1_555 1_555
N5 C28 1_555 1_555
O1 C1 1_555 1_555
O2 C1 1_555 1_555
O3 C5 1_555 1_555
O4 C5 1_555 1_555
O5 C15 1_555 1_555
O6 C18 1_555 1_555
O7 C28 1_555 1_555
Cd1 N1 1_555 1_555
C1B C2B 1_555 1_555
C2B C4 1_555 1_555
C3B C2B 1_555 1_555
H1B C3B 1_555 1_555
C4B C2 1_555 1_555
H2B C4B 1_555 1_555
O1B C1B 1_555 1_555
O2B C1B 1_555 1_555
C5B C6B 1_555 1_555
C6B C8 1_555 1_555
C7B C6B 1_555 1_555
H3B C7B 1_555 1_555
C8B C6 1_555 1_555
H4B C8B 1_555 1_555
O3B C5B 1_555 1_555
O4B C5B 1_555 1_555
C9B H5B 1_555 1_555
C10B C9B 1_555 1_555
H6B C10B 1_555 1_555
C11B H7B 1_555 1_555
C12B C13B 1_555 1_555
C13B H8B 1_555 1_555
C14B C13B 1_555 1_555
H9B C14B 1_555 1_555
C15B C14B 1_555 1_555
C16B C15B 1_555 1_555
H10B C16B 1_555 1_555
C17B C12B 1_555 1_555
H11B C17B 1_555 1_555
C18B H12B 1_555 1_555
H13B C18B 1_555 1_555
C19B C20B 1_555 1_555
C20B H14B 1_555 1_555
C21B C20B 1_555 1_555
H15B C21B 1_555 1_555
C22B C21B 1_555 1_555
C23B C22B 1_555 1_555
H16B C23B 1_555 1_555
C24B C19B 1_555 1_555
H17B C24B 1_555 1_555
C25B H18B 1_555 1_555
C26B H19B 1_555 1_555
C27B C26B 1_555 1_555
H20B C27B 1_555 1_555
C28B H21B 1_555 1_555
C29B H22B 1_555 1_555
H23B C29B 1_555 1_555
H24B C29B 1_555 1_555
C30B H25B 1_555 1_555
H26B C30B 1_555 1_555
H27B C30B 1_555 1_555
N1B C9B 1_555 1_555
N2B C10B 1_555 1_555
N3B C22B 1_555 1_555
N4B C25B 1_555 1_555
N5B C28B 1_555 1_555
O5B C15B 1_555 1_555
O6B C18B 1_555 1_555
O7B C28B 1_555 1_555
Cd1B O3B 1_555 1_555
N4_2 Cd1B 1_555 1_555
N4B_2 Cd1 1_555 1_555
O1B_2 Cd1B 1_555 1_555
O2B_2 Cd1B 1_555 1_555
Cd1_2 N4B 1_555 1_555
Cd1B_2 N4 1_555 1_555
Cd1B_3 O1B 1_555 1_555
C11 N1 1_555 1_555
C11 N2 1_555 1_555
C12 N2 1_555 1_555
C16 C17 1_555 1_555
C18 O5 1_555 1_555
C19 O6 1_555 1_555
C23 C24 1_555 1_555
C25 N3 1_555 1_555
C26 N3 1_555 1_555
C27 N4 1_555 1_555
C29 N5 1_555 1_555
C30 N5 1_555 1_555
O1 Cd1 1_555 1_555
O2 Cd1 1_555 1_555
O3 Cd1 1_555 1_555
O4 Cd1 1_555 1_555
O7 Cd1 1_555 1_555
C3B C4B 1_555 1_555
O2B Cd1B_3 1_555 1_555
C7B C8B 1_555 1_555
O4B Cd1B 1_555 1_555
C11B N1B 1_555 1_555
C11B N2B 1_555 1_555
C12B N2B 1_555 1_555
C16B C17B 1_555 1_555
C18B O5B 1_555 1_555
C19B O6B 1_555 1_555
C23B C24B 1_555 1_555
C25B N3B 1_555 1_555
C26B N3B 1_555 1_555
C27B N4B 1_555 1_555
C29B N5B 1_555 1_555
C30B N5B 1_555 1_555
N1B Cd1B 1_555 1_555
O7B Cd1B 1_555 1_555

#END
