
#######################################################################
#
#                 Cambridge Crystallographic Data Centre
#                                CCDC 
#
#######################################################################
#
# If this CIF has been generated from an entry in the Cambridge 
# Structural Database, then it will include bibliographic, chemical, 
# crystal, experimental, refinement or atomic coordinate data resulting 
# from the CCDC's data processing and validation procedures.
#
#######################################################################

data_BOQNOL
_symmetry_cell_setting           monoclinic
_symmetry_space_group_name_H-M   'C c'
_symmetry_Int_Tables_number      9
_space_group_name_Hall           'C -2yc'
loop_
_symmetry_equiv_pos_site_id
_symmetry_equiv_pos_as_xyz
1 x,y,z
2 x,-y,1/2+z
3 1/2+x,1/2+y,z
4 1/2+x,1/2-y,1/2+z
_cell_length_a                   15.0865(3)
_cell_length_b                   17.9907(4)
_cell_length_c                   15.2317(3)
_cell_angle_alpha                90
_cell_angle_beta                 90.2810(10)
_cell_angle_gamma                90
_cell_volume                     4134.09
loop_
_atom_site_label
_atom_site_type_symbol
_atom_site_fract_x
_atom_site_fract_y
_atom_site_fract_z
Ag1 Ag 0.65471(5) 0.29713(4) 0.20359(5)
Ag2 Ag 0.34662(5) 0.30795(4) -0.02066(5)
Ag3 Ag 0.51064(6) 0.16900(5) 0.48036(6)
Ag4 Ag 0.48858(8) 0.22762(10) -0.27325(8)
N1 N 0.6540(6) 0.4071(4) 0.1280(6)
N2 N 0.3503(5) 0.4136(4) 0.0662(6)
N3 N 0.5024(6) 0.4098(4) 0.0966(7)
N4 N 0.6384(5) 0.1858(4) 0.2743(5)
N5 N 0.3990(5) 0.1586(5) 0.3822(6)
N6 N 0.8314(6) 0.2481(5) 0.1224(7)
N7 N 0.4828(5) 0.1773(4) 0.2544(6)
N8 N 0.3572(6) 0.1887(4) -0.0816(6)
N9 N 0.5940(6) 0.1691(6) -0.1960(6)
N10 N 0.5107(6) 0.1781(5) -0.0675(6)
N11 N 0.1644(6) 0.2569(5) 0.0575(6)
N12 N 0.4935(7) 0.0397(5) 0.6070(6)
N13 N 0.4706(9) 0.3977(9) -0.1682(10)
O1 O 0.0916(6) 0.2396(6) 0.0863(6)
O2 O 0.1681(7) 0.2996(4) -0.0079(7)
O3 O 0.2326(6) 0.2331(5) 0.0897(6)
O4 O 0.4581(9) 0.1020(5) 0.6102(7)
O5 O 0.5397(11) 0.0242(8) 0.5446(9)
O6 O 0.4807(9) -0.0056(5) 0.6642(6)
O7 O 0.8293(6) 0.2802(5) 0.1966(6)
O8 O 0.9039(6) 0.2273(5) 0.0924(8)
O9 O 0.7608(6) 0.2357(6) 0.0855(7)
O10 O 0.4484(9) 0.4540(9) -0.1279(8)
O11 O 0.4275(7) 0.3423(7) -0.1705(7)
O12 O 0.5436(8) 0.4056(13) -0.2058(13)
C1 C 0.5856(7) 0.4445(5) 0.0946(7)
C2 C 0.5954(8) 0.5153(6) 0.0566(8)
H2 H 0.5473 0.5402 0.0320
C3 C 0.6787(8) 0.5463(6) 0.0572(9)
H3 H 0.6865 0.5940 0.0351
C4 C 0.7491(8) 0.5092(6) 0.0888(9)
H4 H 0.8054 0.5303 0.0877
C5 C 0.7358(7) 0.4377(6) 0.1236(8)
H5 H 0.7843 0.4108 0.1441
C6 C 0.4214(8) 0.4481(6) 0.1001(8)
C7 C 0.4158(8) 0.5159(6) 0.1419(8)
H6 H 0.4661 0.5378 0.1662
C8 C 0.3356(8) 0.5504(7) 0.1472(9)
H7 H 0.3308 0.5969 0.1735
C9 C 0.2602(8) 0.5150(6) 0.1125(9)
H8 H 0.2047 0.5372 0.1159
C10 C 0.2704(8) 0.4467(6) 0.0732(8)
H9 H 0.2207 0.4226 0.0508
C11 C 0.5619(6) 0.1479(5) 0.2874(7)
C12 C 0.5629(7) 0.0803(5) 0.3323(8)
H10 H 0.5103 0.0551 0.3436
C13 C 0.6429(8) 0.0514(6) 0.3598(8)
H11 H 0.6445 0.0063 0.3897
C14 C 0.7196(7) 0.0884(6) 0.3434(7)
H12 H 0.7740 0.0689 0.3606
C15 C 0.7142(7) 0.1553(5) 0.3009(7)
H13 H 0.7666 0.1808 0.2900
C16 C 0.3996(6) 0.1646(5) 0.2950(7)
C17 C 0.3240(7) 0.1586(6) 0.2439(7)
H14 H 0.3271 0.1624 0.1831
C18 C 0.2444(8) 0.1468(7) 0.2846(9)
H15 H 0.1924 0.1435 0.2518
C19 C 0.2422(8) 0.1401(7) 0.3728(9)
H16 H 0.1890 0.1318 0.4017
C20 C 0.3170(8) 0.1455(7) 0.4169(8)
H17 H 0.3139 0.1398 0.4775
C21 C 0.4292(6) 0.1517(5) -0.1005(6)
C22 C 0.4276(8) 0.0866(6) -0.1507(8)
H18 H 0.4802 0.0628 -0.1654
C23 C 0.3479(8) 0.0583(6) -0.1782(9)
H19 H 0.3453 0.0153 -0.2120
C24 C 0.2699(8) 0.0961(6) -0.1539(7)
H20 H 0.2142 0.0776 -0.1688
C25 C 0.2787(7) 0.1602(6) -0.1081(7)
H21 H 0.2275 0.1863 -0.0941
C26 C 0.5924(7) 0.1650(5) -0.1078(7)
C27 C 0.6662(8) 0.1509(7) -0.0565(9)
H22 H 0.6629 0.1498 0.0045
C28 C 0.7458(8) 0.1383(7) -0.0999(9)
H23 H 0.7973 0.1302 -0.0677
C29 C 0.7489(8) 0.1379(7) -0.1908(9)
H24 H 0.8010 0.1264 -0.2202
C30 C 0.6718(8) 0.1553(8) -0.2370(8)
H25 H 0.6738 0.1576 -0.2979
C31 C 0.5090(6) 0.2139(5) 0.0171(7)
C32 C 0.4857(6) 0.2147(5) 0.1728(7)
C33 C 0.4998(7) 0.3300(4) 0.0943(7)
C34 C 0.4819(7) 0.2927(5) 0.1723(7)
H26 H 0.4426 0.3169 0.2146
C35 C 0.4961(8) 0.1762(4) 0.0929(8)
H27 H 0.4942 0.1245 0.0923
C36 C 0.5160(7) 0.2922(6) 0.0179(8)
H28 H 0.5586 0.3145 -0.0227
Ag3C Ag 0.01064(6) 0.33100(5) -0.01964(6)
Ag4C Ag -0.01142(8) 0.27238(10) 0.22675(8)
Ag4C_2 Ag 0.98858(8) 0.27238(10) 0.22675(8)
O1C O 0.5916(6) 0.2604(6) 0.5863(6)
O1C_2 O 0.5916(6) 0.2604(6) -0.4137(6)
O2C O 0.6681(7) 0.2004(4) 0.4921(7)
O7C O 0.3293(6) 0.2198(5) -0.3034(6)
O8C O 0.4039(6) 0.2727(5) -0.4076(8)
O13 O 0.5363(16) 0.6016(8) 0.8357(10)
H1 H 0.5316 0.5575 0.8482
C37 C 0.5051(10) 0.6427(8) 0.9012(11)
H29 H 0.5537 0.6622 0.9350
H30 H 0.4685 0.6125 0.9382
H31 H 0.4707 0.6830 0.8778
loop_
_geom_bond_atom_site_label_1
_geom_bond_atom_site_label_2
_geom_bond_site_symmetry_1
_geom_bond_site_symmetry_2
Ag1 N1 1_555 1_555
Ag2 N2 1_555 1_555
Ag3 N5 1_555 1_555
Ag4 N9 1_555 1_555
N1 C1 1_555 1_555
N2 C6 1_555 1_555
N3 C1 1_555 1_555
N4 Ag1 1_555 1_555
N5 C16 1_555 1_555
N6 O7 1_555 1_555
N7 C11 1_555 1_555
N8 Ag2 1_555 1_555
N9 C26 1_555 1_555
N10 C21 1_555 1_555
N11 O1 1_555 1_555
N12 O4 1_555 1_555
N13 O10 1_555 1_555
O1 Ag3C 1_555 1_555
O2 Ag2 1_555 1_555
O3 N11 1_555 1_555
O4 Ag3 1_555 1_555
O5 N12 1_555 1_555
O6 N12 1_555 1_555
O7 Ag1 1_555 1_555
O8 N6 1_555 1_555
O9 Ag1 1_555 1_555
O11 Ag2 1_555 1_555
O12 N13 1_555 1_555
O13 H1 1_555 1_555
C1 C2 1_555 1_555
C2 H2 1_555 1_555
C3 C2 1_555 1_555
H3 C3 1_555 1_555
C4 C3 1_555 1_555
H4 C4 1_555 1_555
C5 N1 1_555 1_555
H5 C5 1_555 1_555
C6 N3 1_555 1_555
C7 C6 1_555 1_555
H6 C7 1_555 1_555
C8 C7 1_555 1_555
H7 C8 1_555 1_555
C9 C8 1_555 1_555
H8 C9 1_555 1_555
C10 N2 1_555 1_555
H9 C10 1_555 1_555
C11 N4 1_555 1_555
C12 C11 1_555 1_555
H10 C12 1_555 1_555
C13 C12 1_555 1_555
H11 C13 1_555 1_555
C14 C13 1_555 1_555
H12 C14 1_555 1_555
C15 N4 1_555 1_555
H13 C15 1_555 1_555
C16 N7 1_555 1_555
C17 C16 1_555 1_555
H14 C17 1_555 1_555
C18 C17 1_555 1_555
H15 C18 1_555 1_555
C19 C18 1_555 1_555
H16 C19 1_555 1_555
C20 N5 1_555 1_555
H17 C20 1_555 1_555
C21 N8 1_555 1_555
C22 C21 1_555 1_555
H18 C22 1_555 1_555
C23 C22 1_555 1_555
H19 C23 1_555 1_555
C24 C23 1_555 1_555
H20 C24 1_555 1_555
C25 N8 1_555 1_555
H21 C25 1_555 1_555
C26 N10 1_555 1_555
C27 C26 1_555 1_555
H22 C27 1_555 1_555
C28 C27 1_555 1_555
H23 C28 1_555 1_555
C29 C28 1_555 1_555
H24 C29 1_555 1_555
C30 N9 1_555 1_555
H25 C30 1_555 1_555
C31 N10 1_555 1_555
C32 N7 1_555 1_555
C33 N3 1_555 1_555
C34 C32 1_555 1_555
H26 C34 1_555 1_555
C35 C31 1_555 1_555
H27 C35 1_555 1_555
C36 C31 1_555 1_555
H28 C36 1_555 1_555
C37 O13 1_555 1_555
H29 C37 1_555 1_555
H30 C37 1_555 1_555
H31 C37 1_555 1_555
Ag3C O2 1_555 1_555
Ag4C O1 1_555 1_555
Ag4C_2 O7 1_555 1_555
O1C Ag3 1_555 1_555
O1C_2 Ag4 1_555 1_555
O2C Ag3 1_555 1_555
O7C Ag4 1_555 1_555
O8C Ag4 1_555 1_555
N6 O9 1_555 1_555
N11 O2 1_555 1_555
N13 O11 1_555 1_555
O8 Ag4C_2 1_555 1_555
C4 C5 1_555 1_555
C9 C10 1_555 1_555
C14 C15 1_555 1_555
C19 C20 1_555 1_555
C24 C25 1_555 1_555
C29 C30 1_555 1_555
C32 C35 1_555 1_555
C33 C34 1_555 1_555
C33 C36 1_555 1_555

#END
