
#######################################################################
#
#                 Cambridge Crystallographic Data Centre
#                                CCDC 
#
#######################################################################
#
# If this CIF has been generated from an entry in the Cambridge 
# Structural Database, then it will include bibliographic, chemical, 
# crystal, experimental, refinement or atomic coordinate data resulting 
# from the CCDC's data processing and validation procedures.
#
#######################################################################

data_BOQVIO
_symmetry_cell_setting           monoclinic
_symmetry_space_group_name_H-M   'C 2/c'
_symmetry_Int_Tables_number      15
_space_group_name_Hall           '-C 2yn'
loop_
_symmetry_equiv_pos_site_id
_symmetry_equiv_pos_as_xyz
1 x,y,z
2 -x,y,1/2-z
3 1/2+x,1/2+y,z
4 1/2-x,1/2+y,1/2-z
5 -x,-y,-z
6 x,-y,1/2+z
7 1/2-x,1/2-y,-z
8 1/2+x,1/2-y,1/2+z
_cell_length_a                   15.429(2)
_cell_length_b                   11.5947(17)
_cell_length_c                   18.360(3)
_cell_angle_alpha                90
_cell_angle_beta                 101.230(3)
_cell_angle_gamma                90
_cell_volume                     3221.62
loop_
_atom_site_label
_atom_site_type_symbol
_atom_site_fract_x
_atom_site_fract_y
_atom_site_fract_z
C1 C 0.8934(3) 0.3483(4) 0.2109(2)
C2 C 0.9654(3) 0.3196(4) 0.3447(2)
C3 C 0.9041(3) 0.1232(4) 0.2797(2)
C4 C 0.9293(3) 0.1494(4) 0.1528(3)
C5 C 0.6564(4) 0.2297(4) 0.1771(3)
H1 H 0.7142 0.2296 0.2037
C6 C 0.6028(3) 0.1392(4) 0.1868(3)
H2 H 0.6240 0.0799 0.2195
C7 C 0.5184(3) 0.1370(4) 0.1482(3)
H3 H 0.4804 0.0769 0.1541
C8 C 0.4904(4) 0.2274(4) 0.0998(3)
H4 H 0.4336 0.2281 0.0712
C9 C 0.5475(3) 0.3149(4) 0.0949(3)
C10 C 0.5221(3) 0.4139(4) 0.0432(2)
C11 C 0.7674(4) 0.7462(5) 0.1147(3)
C12 C 0.7702(4) 0.8778(4) 0.1190(3)
H5 H 0.8298 0.9039 0.1218
H6 H 0.7493 0.9028 0.1624
H7 H 0.7331 0.9096 0.0755
Mn1 Mn 0.71550(4) 0.47689(6) 0.12395(4)
Mo1 Mo 1.0000 0.23475(4) 0.2500
N1 N 0.8339(3) 0.4082(3) 0.1893(2)
N2 N 0.9463(3) 0.3637(4) 0.3951(2)
N3 N 0.8514(3) 0.0618(4) 0.2967(2)
N4 N 0.8888(3) 0.1078(4) 0.1002(2)
N5 N 0.6304(2) 0.3178(3) 0.1317(2)
N6 N 0.5801(3) 0.4998(3) 0.0449(2)
N7 N 0.5589(2) 0.5866(3) 0.0009(2)
N8 N 0.7644(3) 0.6434(4) 0.0971(2)
O1 O 0.7471(2) 0.4036(3) 0.02394(18)
H8 H 0.7987 0.4175 0.0163
H9 H 0.7046 0.4121 -0.0128
C5D C 0.3436(4) 0.7703(4) -0.1771(3)
H1D H 0.2858 0.7704 -0.2037
C6D C 0.3972(3) 0.8608(4) -0.1868(3)
H2D H 0.3760 0.9201 -0.2195
C7D C 0.4816(3) 0.8630(4) -0.1482(3)
H3D H 0.5196 0.9231 -0.1541
C8D C 0.5096(4) 0.7726(4) -0.0998(3)
H4D H 0.5664 0.7719 -0.0712
C9D C 0.4525(3) 0.6851(4) -0.0949(3)
C10D C 0.4779(3) 0.5861(4) -0.0432(2)
N5D N 0.3696(2) 0.6822(3) -0.1317(2)
N6D N 0.4199(3) 0.5002(3) -0.0449(2)
N7D N 0.4411(2) 0.4134(3) -0.0009(2)
C1A C 1.1066(3) 0.3483(4) 0.2891(2)
C2A C 1.0346(3) 0.3196(4) 0.1553(2)
C3A C 1.0959(3) 0.1232(4) 0.2203(2)
C4A C 1.0707(3) 0.1494(4) 0.3472(3)
C11A C 1.2326(4) 0.7462(5) 0.3853(3)
C12A C 1.2298(4) 0.8778(4) 0.3810(3)
H5A H 1.1702 0.9039 0.3782
H6A H 1.2507 0.9028 0.3376
H7A H 1.2669 0.9096 0.4245
Mn1A Mn 1.28450(4) 0.47689(6) 0.37605(4)
N1A N 1.1661(3) 0.4082(3) 0.3107(2)
N2A N 1.0537(3) 0.3637(4) 0.1049(2)
N3A N 1.1486(3) 0.0618(4) 0.2033(2)
N4A N 1.1112(3) 0.1078(4) 0.3998(2)
N8A N 1.2356(3) 0.6434(4) 0.4029(2)
O1A O 1.2529(2) 0.4036(3) 0.47606(18)
H8A H 1.2013 0.4175 0.4837
H9A H 1.2954 0.4121 0.5128
Mn1B Mn 1.21550(4) -0.02311(6) 0.12395(4)
Mn1C Mn 0.78450(4) -0.02311(6) 0.37605(4)
Mn1D Mn 0.28450(4) 0.52311(6) -0.12395(4)
N3B N 1.3514(3) 0.5618(4) 0.2967(2)
N3C N 0.6486(3) 0.5618(4) 0.2033(2)
N5A N 1.3696(2) 0.3178(3) 0.3683(2)
N6A N 1.4199(3) 0.4998(3) 0.4551(2)
O2 O 0.9031(2) 0.4621(3) -0.0005(2)
H10 H 0.9339 0.4848 0.0405
H11 H 0.9060 0.5136 -0.0329
loop_
_geom_bond_atom_site_label_1
_geom_bond_atom_site_label_2
_geom_bond_site_symmetry_1
_geom_bond_site_symmetry_2
C1 Mo1 1_555 1_555
C2 Mo1 1_555 1_555
C3 Mo1 1_555 1_555
C4 Mo1 1_555 1_555
C5 H1 1_555 1_555
C6 C5 1_555 1_555
H2 C6 1_555 1_555
C7 C6 1_555 1_555
H3 C7 1_555 1_555
C8 C7 1_555 1_555
H4 C8 1_555 1_555
C9 C8 1_555 1_555
C10 C9 1_555 1_555
C11 C12 1_555 1_555
C12 H5 1_555 1_555
H6 C12 1_555 1_555
H7 C12 1_555 1_555
Mn1 N1 1_555 1_555
Mo1 C1A 1_555 1_555
N1 C1 1_555 1_555
N2 C2 1_555 1_555
N3 C3 1_555 1_555
N4 C4 1_555 1_555
N5 C5 1_555 1_555
N6 C10 1_555 1_555
N7 N6 1_555 1_555
N8 C11 1_555 1_555
O1 Mn1 1_555 1_555
H8 O1 1_555 1_555
H9 O1 1_555 1_555
O2 H10 1_555 1_555
H11 O2 1_555 1_555
C5D H1D 1_555 1_555
C6D C5D 1_555 1_555
H2D C6D 1_555 1_555
C7D C6D 1_555 1_555
H3D C7D 1_555 1_555
C8D C7D 1_555 1_555
H4D C8D 1_555 1_555
C9D C8D 1_555 1_555
C10D N7 1_555 1_555
N5D C5D 1_555 1_555
N6D C10D 1_555 1_555
N7D C10 1_555 1_555
C1A N1A 1_555 1_555
C2A Mo1 1_555 1_555
C3A Mo1 1_555 1_555
C4A Mo1 1_555 1_555
C11A C12A 1_555 1_555
C12A H5A 1_555 1_555
H6A C12A 1_555 1_555
H7A C12A 1_555 1_555
Mn1A N1A 1_555 1_555
N2A C2A 1_555 1_555
N3A C3A 1_555 1_555
N4A C4A 1_555 1_555
N8A C11A 1_555 1_555
O1A Mn1A 1_555 1_555
H8A O1A 1_555 1_555
H9A O1A 1_555 1_555
Mn1B N3A 1_555 1_555
Mn1C N3 1_555 1_555
Mn1D N5D 1_555 1_555
N3B Mn1A 1_555 1_555
N3C Mn1 1_555 1_555
N5A Mn1A 1_555 1_555
N6A Mn1A 1_555 1_555
C9 N5 1_555 1_555
Mn1 N5 1_555 1_555
Mn1 N6 1_555 1_555
Mn1 N8 1_555 1_555
C9D C10D 1_555 1_555
C9D N5D 1_555 1_555
N6D N7D 1_555 1_555
N6D Mn1D 1_555 1_555
Mn1A N8A 1_555 1_555

#END
