
#######################################################################
#
#                 Cambridge Crystallographic Data Centre
#                                CCDC 
#
#######################################################################
#
# If this CIF has been generated from an entry in the Cambridge 
# Structural Database, then it will include bibliographic, chemical, 
# crystal, experimental, refinement or atomic coordinate data resulting 
# from the CCDC's data processing and validation procedures.
#
#######################################################################

data_BOQWEK
_symmetry_cell_setting           monoclinic
_symmetry_space_group_name_H-M   'C c'
_symmetry_Int_Tables_number      9
_space_group_name_Hall           'C -2yc'
loop_
_symmetry_equiv_pos_site_id
_symmetry_equiv_pos_as_xyz
1 x,y,z
2 x,-y,1/2+z
3 1/2+x,1/2+y,z
4 1/2+x,1/2-y,1/2+z
_cell_length_a                   10.797(2)
_cell_length_b                   22.451(4)
_cell_length_c                   7.4246(15)
_cell_angle_alpha                90
_cell_angle_beta                 125.629(2)
_cell_angle_gamma                90
_cell_volume                     1462.85
loop_
_atom_site_label
_atom_site_type_symbol
_atom_site_fract_x
_atom_site_fract_y
_atom_site_fract_z
Zn1 Zn 0.06557(4) 0.625441(9) -0.06456(4)
N1 N 0.4831(3) 0.84269(10) 1.1304(3)
N2 N 0.3978(3) 0.84103(10) 0.7816(3)
H1 H 0.3707 0.8534 0.6538
N3 N 0.2209(2) 0.56481(9) -0.0021(3)
N4 N 0.3273(2) 0.47931(9) 0.0193(4)
H2 H 0.3370 0.4420 0.0041
O1 O 0.2380(3) 0.63515(9) 0.3915(4)
O3 O 0.1577(2) 0.69768(8) 0.1174(3)
O4 O 0.8734(2) 0.38922(9) 0.4063(3)
O5 O 0.9016(3) 0.48325(12) 0.3675(7)
C1 C 0.4509(4) 0.87487(11) 0.9603(5)
H5 H 0.4635 0.9159 0.9640
C2 C 0.4463(3) 0.78498(13) 1.0532(4)
H6 H 0.4559 0.7521 1.1368
C3 C 0.3938(3) 0.78326(11) 0.8370(4)
C4 C 0.3394(3) 0.73391(12) 0.6811(4)
H7 H 0.3415 0.6962 0.7350
C5 C 0.2879(3) 0.73753(12) 0.4735(4)
H8 H 0.2897 0.7744 0.4177
C6 C 0.2267(3) 0.68568(12) 0.3222(4)
C7 C 0.1965(3) 0.50740(12) -0.0572(5)
H9 H 0.1012 0.4893 -0.1382
C8 C 0.3749(3) 0.57264(11) 0.1106(5)
H10 H 0.4253 0.6088 0.1679
C9 C 0.4441(3) 0.52016(12) 0.1269(4)
C10 C 0.6012(3) 0.50554(13) 0.2270(5)
H11 H 0.6680 0.5374 0.2719
C11 C 0.6609(3) 0.45175(12) 0.2620(4)
H12 H 0.5992 0.4187 0.2294
C12 C 0.8230(3) 0.44247(12) 0.3515(4)
Zn1A Zn 1.06557(4) 0.374559(9) 0.43544(4)
Zn1C Zn 0.56557(4) 0.874559(9) 1.43544(4)
N1C N -0.0169(3) 0.65731(10) -0.3696(3)
O4A O -0.1266(2) 0.61078(9) -0.0937(3)
O2 O 0.6034(4) 0.68007(14) 0.4635(6)
H3 H 0.650(6) 0.7182(13) 0.530(9)
H4 H 0.668(7) 0.665(2) 0.612(5)
loop_
_geom_bond_atom_site_label_1
_geom_bond_atom_site_label_2
_geom_bond_site_symmetry_1
_geom_bond_site_symmetry_2
Zn1 N3 1_555 1_555
N1 C1 1_555 1_555
N2 H1 1_555 1_555
N3 C7 1_555 1_555
N4 H2 1_555 1_555
O1 C6 1_555 1_555
O2 H3 1_555 1_555
H4 O2 1_555 1_555
O3 Zn1 1_555 1_555
O4 C12 1_555 1_555
O5 C12 1_555 1_555
C1 N2 1_555 1_555
H5 C1 1_555 1_555
C2 N1 1_555 1_555
H6 C2 1_555 1_555
C3 N2 1_555 1_555
C4 C3 1_555 1_555
H7 C4 1_555 1_555
C5 C4 1_555 1_555
H8 C5 1_555 1_555
C6 O3 1_555 1_555
C7 N4 1_555 1_555
H9 C7 1_555 1_555
C8 N3 1_555 1_555
H10 C8 1_555 1_555
C9 N4 1_555 1_555
C10 C9 1_555 1_555
H11 C10 1_555 1_555
C11 C10 1_555 1_555
H12 C11 1_555 1_555
C12 C11 1_555 1_555
Zn1A O4 1_555 1_555
Zn1C N1 1_555 1_555
N1C Zn1 1_555 1_555
O4A Zn1 1_555 1_555
C2 C3 1_555 1_555
C5 C6 1_555 1_555
C8 C9 1_555 1_555

#END
