
#######################################################################
#
#                 Cambridge Crystallographic Data Centre
#                                CCDC 
#
#######################################################################
#
# If this CIF has been generated from an entry in the Cambridge 
# Structural Database, then it will include bibliographic, chemical, 
# crystal, experimental, refinement or atomic coordinate data resulting 
# from the CCDC's data processing and validation procedures.
#
#######################################################################

data_BOQWIP
_symmetry_cell_setting           monoclinic
_symmetry_space_group_name_H-M   'P 21/c'
_symmetry_Int_Tables_number      14
_space_group_name_Hall           '-P 2ybc'
loop_
_symmetry_equiv_pos_site_id
_symmetry_equiv_pos_as_xyz
1 x,y,z
2 -x,1/2+y,1/2-z
3 -x,-y,-z
4 x,1/2-y,1/2+z
_cell_length_a                   7.0650
_cell_length_b                   16.3348
_cell_length_c                   9.3103
_cell_angle_alpha                90
_cell_angle_beta                 98.7754
_cell_angle_gamma                90
_cell_volume                     1061.88
loop_
_atom_site_label
_atom_site_type_symbol
_atom_site_fract_x
_atom_site_fract_y
_atom_site_fract_z
Zn1 Zn 0.50775 0.66820 0.52258
O1 O -0.06010 0.42105 0.81777
O2 O 0.14048 0.48649 0.69520
C1 C 0.42826 0.50255 0.93090
C2 C 0.10473 0.45619 0.80827
C3 C 0.24957 0.45108 0.94553
K1 K 0.00248 0.63686 0.56025
O3 O 0.33427 0.57039 0.41847
O4 O 0.33290 0.43482 0.40210
C4 C 0.40265 0.50076 0.44679
O5 O 0.34402 0.75267 0.37136
O6 O 0.69952 0.69566 0.37482
C5 C 0.42674 0.77343 0.26946
C6 C 0.63762 0.74060 0.27333
O7 O 0.36190 0.81665 0.16351
O8 O 0.72192 0.76366 0.17272
O1B O 1.06010 0.57895 1.18223
O2B O 0.85952 0.51351 1.30480
C1B C 0.57174 0.49745 1.06910
C2B C 0.89527 0.54381 1.19173
C3B C 0.75043 0.54892 1.05447
O3B O 0.66573 0.42961 0.58153
O4B O 0.66710 0.56518 0.59790
C4B C 0.59735 0.49924 0.55321
K1B K -0.00248 0.36314 0.43975
Zn1C Zn 0.50775 0.83180 1.02258
O5C O 0.34402 0.74733 0.87136
O6C O 0.69952 0.80434 0.87482
C5C C 0.42674 0.72657 0.76946
C6C C 0.63762 0.75940 0.77333
O7C O 0.36190 0.68335 0.66351
O8C O 0.72192 0.73634 0.67272
Zn1B Zn 0.49225 0.33180 0.47742
Zn1C_2 Zn 0.50775 0.83180 0.02258
O2B_2 O -0.14048 0.51351 0.30480
K1_2 K 1.00248 0.63686 0.56025
K1_3 K 1.00248 0.63686 1.56025
K1B_2 K 0.99752 0.36314 0.43975
K1B_3 K 0.99752 0.36314 1.43975
K1C K 0.00248 0.86314 0.06025
K1C_2 K 1.00248 0.86314 0.06025
K1C_3 K 1.00248 0.86314 1.06025
O3B_2 O -0.33427 0.42961 0.58153
O3C O 0.33427 0.92961 0.91847
O4A O 0.66710 0.93482 1.09790
O4B_2 O -0.33290 0.56518 0.59790
O6_2 O -0.30048 0.69566 0.37482
O6B O 0.30048 0.30434 0.62518
O7_2 O 0.36190 0.81665 1.16351
O7A O -0.36190 0.31665 0.33649
O8_2 O 0.72192 0.76366 1.17272
O8A O 0.27808 0.26366 0.32728
O8C_2 O -0.27808 0.73634 0.67272
loop_
_geom_bond_atom_site_label_1
_geom_bond_atom_site_label_2
_geom_bond_site_symmetry_1
_geom_bond_site_symmetry_2
Zn1 O3 1_555 1_555
O1 C2 1_555 1_555
O2 C2 1_555 1_555
C1 C3 1_555 1_555
C2 C3 1_555 1_555
K1 O2 1_555 1_555
O3 K1 1_555 1_555
O4 C4 1_555 1_555
C4 O3 1_555 1_555
O5 Zn1 1_555 1_555
O6 Zn1 1_555 1_555
C5 O5 1_555 1_555
C6 O6 1_555 1_555
O7 C5 1_555 1_555
O8 C6 1_555 1_555
O1B C2B 1_555 1_555
O2B C2B 1_555 1_555
C1B C1 1_555 1_555
C2B C3B 1_555 1_555
C3B C1B 1_555 1_555
O3B C4B 1_555 1_555
O4B Zn1 1_555 1_555
C4B C4 1_555 1_555
K1B O2 1_555 1_555
Zn1C O5C 1_555 1_555
O5C C5C 1_555 1_555
O6C Zn1C 1_555 1_555
C5C C6C 1_555 1_555
C6C O6C 1_555 1_555
O7C Zn1 1_555 1_555
O8C Zn1 1_555 1_555
Zn1B O4 1_555 1_555
Zn1C_2 O7 1_555 1_555
O2B_2 K1 1_555 1_555
K1_2 O6 1_555 1_555
K1_3 O2B 1_555 1_555
K1B_2 O3B 1_555 1_555
K1B_3 O2B 1_555 1_555
K1C O7 1_555 1_555
K1C_2 O8 1_555 1_555
K1C_3 O6C 1_555 1_555
O3B_2 K1B 1_555 1_555
O3C Zn1C 1_555 1_555
O4A Zn1C 1_555 1_555
O4B_2 K1 1_555 1_555
O6_2 K1 1_555 1_555
O6B K1B 1_555 1_555
O7_2 Zn1C 1_555 1_555
O7A K1B 1_555 1_555
O8_2 Zn1C 1_555 1_555
O8A K1B 1_555 1_555
O8C_2 K1 1_555 1_555
K1 O7C 1_555 1_555
O4 K1B 1_555 1_555
C5 C6 1_555 1_555
O8 Zn1C_2 1_555 1_555
O3B Zn1B 1_555 1_555
O4B C4B 1_555 1_555
O4B K1_2 1_555 1_555
K1B O2B_2 1_555 1_555
C5C O7C 1_555 1_555
C6C O8C 1_555 1_555
O8C K1_2 1_555 1_555
Zn1B O6B 1_555 1_555
Zn1B O8A 1_555 1_555
K1C_3 O4A 1_555 1_555
K1C_3 O8_2 1_555 1_555

#END
