
#######################################################################
#
#                 Cambridge Crystallographic Data Centre
#                                CCDC 
#
#######################################################################
#
# If this CIF has been generated from an entry in the Cambridge 
# Structural Database, then it will include bibliographic, chemical, 
# crystal, experimental, refinement or atomic coordinate data resulting 
# from the CCDC's data processing and validation procedures.
#
#######################################################################

data_BOQXIP01
_symmetry_cell_setting           monoclinic
_symmetry_space_group_name_H-M   'P 21/n'
_symmetry_Int_Tables_number      14
_space_group_name_Hall           '-P 2yn'
loop_
_symmetry_equiv_pos_site_id
_symmetry_equiv_pos_as_xyz
1 x,y,z
2 1/2-x,1/2+y,1/2-z
3 -x,-y,-z
4 1/2+x,1/2-y,1/2+z
_cell_length_a                   10.4350(2)
_cell_length_b                   22.5683(5)
_cell_length_c                   13.9168(4)
_cell_angle_alpha                90
_cell_angle_beta                 100.783(1)
_cell_angle_gamma                90
_cell_volume                     3219.54
loop_
_atom_site_label
_atom_site_type_symbol
_atom_site_fract_x
_atom_site_fract_y
_atom_site_fract_z
Np1 Np 0.40535(3) 0.078097(14) 0.71942(3)
Np2 Np 0.88509(3) 0.210967(15) 0.67793(3)
O1 O 0.3938(6) 0.1306(3) 0.8158(5)
O2 O 0.4268(6) 0.0250(3) 0.6252(5)
O3 O 0.9192(6) 0.2365(3) 0.5618(5)
O4 O 0.8504(6) 0.1875(3) 0.7943(5)
O5 O 0.5762(6) 0.1362(3) 0.6719(5)
O6 O 0.6571(6) 0.2129(3) 0.6039(5)
O7 O 0.3385(6) 0.1575(3) 0.5924(6)
H1 H 0.272(7) 0.170(5) 0.566(7)
O8 O 1.1748(6) 0.0621(3) 0.6689(6)
O9 O 1.0731(6) 0.1449(3) 0.6953(5)
O10 O 0.8468(6) 0.1076(3) 0.6070(6)
H2 H 0.777(7) 0.088(4) 0.586(7)
N1 N 0.6124(7) 0.0310(3) 0.8241(6)
N2 N 0.3712(8) -0.0102(3) 0.8329(6)
N3 N 1.0738(8) 0.2787(3) 0.7593(6)
N4 N 0.8231(7) 0.3161(3) 0.7294(6)
C1 C 0.7296(9) 0.0526(4) 0.8203(8)
H3 H 0.7355 0.0862 0.7827
C2 C 0.8427(9) 0.0273(4) 0.8699(8)
H4 H 0.9229 0.0450 0.8687
C3 C 0.8367(9) -0.0241(4) 0.9208(8)
H5 H 0.9124 -0.0430 0.9517
C4 C 0.7163(9) -0.0471(4) 0.9255(7)
H6 H 0.7098 -0.0816 0.9608
C5 C 0.6047(8) -0.0190(4) 0.8776(6)
C6 C 0.4719(10) -0.0415(4) 0.8806(7)
C7 C 0.4532(11) -0.0913(5) 0.9340(8)
H7 H 0.5245 -0.1125 0.9669
C8 C 0.3300(12) -0.1092(5) 0.9380(9)
H8 H 0.3171 -0.1431 0.9729
C9 C 0.2246(12) -0.0776(5) 0.8911(8)
H9 H 0.1395 -0.0884 0.8943
C10 C 0.2518(11) -0.0285(4) 0.8387(8)
H10 H 0.1816 -0.0069 0.8051
C11 C 1.1974(10) 0.2630(4) 0.7646(8)
H11 H 1.2135 0.2266 0.7381
C12 C 1.3036(10) 0.2964(4) 0.8065(8)
H12 H 1.3885 0.2834 0.8083
C13 C 1.2779(11) 0.3496(5) 0.8449(9)
H13 H 1.3467 0.3735 0.8745
C14 C 1.1524(10) 0.3683(5) 0.8407(9)
H14 H 1.1356 0.4051 0.8655
C15 C 1.0507(9) 0.3317(4) 0.7992(7)
C16 C 0.9120(10) 0.3484(4) 0.7902(7)
C17 C 0.8751(11) 0.3964(4) 0.8420(8)
H15 H 0.9374 0.4185 0.8835
C18 C 0.7449(11) 0.4104(5) 0.8304(9)
H16 H 0.7180 0.4421 0.8644
C19 C 0.6561(11) 0.3778(5) 0.7691(9)
H17 H 0.5676 0.3867 0.7611
C20 C 0.6983(10) 0.3314(4) 0.7188(8)
H18 H 0.6368 0.3099 0.6757
C21 C 0.5630(8) 0.1813(4) 0.6183(7)
C22 C 0.4281(8) 0.1992(4) 0.5700(8)
H19 H 0.4080 0.2380 0.5931
H20 H 0.4225 0.2013 0.4998
C23 C 1.0753(8) 0.0943(4) 0.6623(7)
C24 C 0.9517(8) 0.0686(4) 0.6078(8)
H21 H 0.9609 0.0603 0.5411
H22 H 0.9340 0.0316 0.6381
Np1_2 Np 1.40535(3) 0.078097(14) 0.71942(3)
O8_2 O 0.1748(6) 0.0621(3) 0.6689(6)
O11 O 0.6571(7) 0.0359(4) 0.5440(6)
H23 H 0.638(11) 0.016(5) 0.491(6)
H24 H 0.585(8) 0.042(6) 0.559(9)
O12 O 0.2477(8) 0.1748(4) 0.9574(6)
H25 H 0.277(11) 0.164(6) 0.907(6)
H26 H 0.321(8) 0.185(6) 0.997(7)
O13 O 0.1146(8) 0.1854(4) 0.4796(6)
H27 H 0.080(12) 0.203(5) 0.524(7)
H28 H 0.118(13) 0.211(4) 0.435(7)
O14 O 0.6175(9) 0.2167(4) 0.8636(8)
H29 H 0.555(9) 0.196(6) 0.855(11)
H30 H 0.679(10) 0.207(6) 0.838(11)
O15 O 0.9928(10) 0.1505(5) 0.9905(7)
H31 H 0.936(10) 0.157(7) 0.938(7)
H32 H 1.065(7) 0.160(7) 0.973(10)
loop_
_geom_bond_atom_site_label_1
_geom_bond_atom_site_label_2
_geom_bond_site_symmetry_1
_geom_bond_site_symmetry_2
Np1 O1 1_555 1_555
Np2 O3 1_555 1_555
O2 Np1 1_555 1_555
O4 Np2 1_555 1_555
O5 Np1 1_555 1_555
O6 Np2 1_555 1_555
O7 Np1 1_555 1_555
H1 O7 1_555 1_555
O8 C23 1_555 1_555
O9 Np2 1_555 1_555
O10 Np2 1_555 1_555
H2 O10 1_555 1_555
N1 Np1 1_555 1_555
N2 Np1 1_555 1_555
N3 Np2 1_555 1_555
N4 Np2 1_555 1_555
C1 N1 1_555 1_555
H3 C1 1_555 1_555
C2 C1 1_555 1_555
H4 C2 1_555 1_555
C3 C2 1_555 1_555
H5 C3 1_555 1_555
C4 C3 1_555 1_555
H6 C4 1_555 1_555
C5 N1 1_555 1_555
C6 N2 1_555 1_555
C7 C6 1_555 1_555
H7 C7 1_555 1_555
C8 C7 1_555 1_555
H8 C8 1_555 1_555
C9 C8 1_555 1_555
H9 C9 1_555 1_555
C10 N2 1_555 1_555
H10 C10 1_555 1_555
C11 N3 1_555 1_555
H11 C11 1_555 1_555
C12 C11 1_555 1_555
H12 C12 1_555 1_555
C13 C12 1_555 1_555
H13 C13 1_555 1_555
C14 C13 1_555 1_555
H14 C14 1_555 1_555
C15 N3 1_555 1_555
C16 N4 1_555 1_555
C17 C16 1_555 1_555
H15 C17 1_555 1_555
C18 C17 1_555 1_555
H16 C18 1_555 1_555
C19 C18 1_555 1_555
H17 C19 1_555 1_555
C20 N4 1_555 1_555
H18 C20 1_555 1_555
C21 O5 1_555 1_555
C22 O7 1_555 1_555
H19 C22 1_555 1_555
H20 C22 1_555 1_555
C23 O9 1_555 1_555
C24 O10 1_555 1_555
H21 C24 1_555 1_555
H22 C24 1_555 1_555
O11 H23 1_555 1_555
H24 O11 1_555 1_555
O12 H25 1_555 1_555
H26 O12 1_555 1_555
O13 H27 1_555 1_555
H28 O13 1_555 1_555
O14 H29 1_555 1_555
H30 O14 1_555 1_555
O15 H31 1_555 1_555
H32 O15 1_555 1_555
Np1_2 O8 1_555 1_555
O8_2 Np1 1_555 1_555
O6 C21 1_555 1_555
C4 C5 1_555 1_555
C5 C6 1_555 1_555
C9 C10 1_555 1_555
C14 C15 1_555 1_555
C15 C16 1_555 1_555
C19 C20 1_555 1_555
C21 C22 1_555 1_555
C23 C24 1_555 1_555

#END
