
#######################################################################
#
#                 Cambridge Crystallographic Data Centre
#                                CCDC 
#
#######################################################################
#
# If this CIF has been generated from an entry in the Cambridge 
# Structural Database, then it will include bibliographic, chemical, 
# crystal, experimental, refinement or atomic coordinate data resulting 
# from the CCDC's data processing and validation procedures.
#
#######################################################################

data_BORYOY
_symmetry_cell_setting           tetragonal
_symmetry_space_group_name_H-M   'P 4/n m m'
_symmetry_Int_Tables_number      129
_space_group_name_Hall           '-P 4a 2a'
loop_
_symmetry_equiv_pos_site_id
_symmetry_equiv_pos_as_xyz
1 x,y,z
2 1/2-x,1/2-y,z
3 1/2-y,x,z
4 y,1/2-x,z
5 -x,1/2+y,-z
6 1/2+x,-y,-z
7 1/2+y,1/2+x,-z
8 -y,-x,-z
9 -x,-y,-z
10 1/2+x,1/2+y,-z
11 1/2+y,-x,-z
12 -y,1/2+x,-z
13 x,1/2-y,z
14 1/2-x,y,z
15 1/2-y,1/2-x,z
16 y,x,z
_cell_length_a                   16.710(3)
_cell_length_b                   16.710(3)
_cell_length_c                   29.890(9)
_cell_angle_alpha                90
_cell_angle_beta                 90
_cell_angle_gamma                90
_cell_volume                     8346.01
loop_
_atom_site_label
_atom_site_type_symbol
_atom_site_fract_x
_atom_site_fract_y
_atom_site_fract_z
O3 O 0.2500 0.2500 0.0408(3)
N2 N 0.2500 0.2500 0.2759(5)
N3 N 0.7500 0.7500 0.2410(7)
C1 C 0.4226(3) 0.4226(3) 0.1527(3)
C2 C 0.4521(3) 0.4521(3) 0.1138(3)
H1 H 0.4316 0.4316 0.0864
C3 C 0.5089(3) 0.5089(3) 0.1121(3)
H2 H 0.5286 0.5286 0.0844
C4 C 0.5381(3) 0.5381(3) 0.1537(3)
C5 C 0.5095(3) 0.5095(3) 0.1962(3)
H3 H 0.5296 0.5296 0.2237
C6 C 0.4519(3) 0.4519(3) 0.1948(3)
H4 H 0.4309 0.4309 0.2219
C7 C 0.60498(19) 0.60498(19) 0.1542(2)
C8 C 0.6845(2) 0.5794(2) 0.15435(17)
C9 C 0.7092(2) 0.4966(2) 0.15316(18)
H5 H 0.6752 0.4510 0.1525
C10 C 0.3569(3) 0.3569(3) 0.1534(4)
N1 N 0.7500 0.6281(2) 0.15538(18)
O1 O 0.33430(17) 0.33430(17) 0.1935(2)
O2 O 0.33363(17) 0.33363(17) 0.1160(2)
Zn1 Zn 0.2500 0.2500 0.10592(6)
Zn2 Zn 0.7500 0.7500 0.16645(6)
Zn3 Zn 0.2500 0.2500 0.20482(5)
C1B C 1.0774(3) 0.4226(3) 0.1527(3)
C2B C 1.0479(3) 0.4521(3) 0.1138(3)
H1B H 1.0684 0.4316 0.0864
C3B C 0.9911(3) 0.5089(3) 0.1121(3)
H2B H 0.9714 0.5286 0.0844
C4B C 0.9619(3) 0.5381(3) 0.1537(3)
C5B C 0.9905(3) 0.5095(3) 0.1962(3)
H3B H 0.9704 0.5296 0.2237
C6B C 1.0481(3) 0.4519(3) 0.1948(3)
H4B H 1.0691 0.4309 0.2219
C7B C 0.89502(19) 0.60498(19) 0.1542(2)
C8M C 0.8155(2) 0.5794(2) 0.15435(17)
C9M C 0.7908(2) 0.4966(2) 0.15316(18)
H5M H 0.8248 0.4510 0.1525
C10B C 1.1431(3) 0.3569(3) 0.1534(4)
O1B O 1.16570(17) 0.33430(17) 0.1935(2)
O2B O 1.16637(17) 0.33363(17) 0.1160(2)
C8O C 0.5794(2) 0.6845(2) 0.15435(17)
C9O C 0.4966(2) 0.7092(2) 0.15316(18)
H5O H 0.4510 0.6752 0.1525
N1C N 0.6281(2) 0.7500 0.15538(18)
C8B C 0.9206(2) 0.6845(2) 0.15435(17)
C9B C 1.0034(2) 0.7092(2) 0.15316(18)
H5B H 1.0490 0.6752 0.1525
N1B N 0.8719(2) 0.7500 0.15538(18)
C1C C 0.4226(3) 1.0774(3) 0.1527(3)
C2C C 0.4521(3) 1.0479(3) 0.1138(3)
H1C H 0.4316 1.0684 0.0864
C3C C 0.5089(3) 0.9911(3) 0.1121(3)
H2C H 0.5286 0.9714 0.0844
C4C C 0.5381(3) 0.9619(3) 0.1537(3)
C5C C 0.5095(3) 0.9905(3) 0.1962(3)
H3C H 0.5296 0.9704 0.2237
C6C C 0.4519(3) 1.0481(3) 0.1948(3)
H4C H 0.4309 1.0691 0.2219
C7C C 0.60498(19) 0.89502(19) 0.1542(2)
C8C C 0.5794(2) 0.8155(2) 0.15435(17)
C9C C 0.4966(2) 0.7908(2) 0.15316(18)
H5C H 0.4510 0.8248 0.1525
C10C C 0.3569(3) 1.1431(3) 0.1534(4)
O1C O 0.33430(17) 1.16570(17) 0.1935(2)
O2C O 0.33363(17) 1.16637(17) 0.1160(2)
C1A C 1.0774(3) 1.0774(3) 0.1527(3)
C2A C 1.0479(3) 1.0479(3) 0.1138(3)
H1A H 1.0684 1.0684 0.0864
C3A C 0.9911(3) 0.9911(3) 0.1121(3)
H2A H 0.9714 0.9714 0.0844
C4A C 0.9619(3) 0.9619(3) 0.1537(3)
C5A C 0.9905(3) 0.9905(3) 0.1962(3)
H3A H 0.9704 0.9704 0.2237
C6A C 1.0481(3) 1.0481(3) 0.1948(3)
H4A H 1.0691 1.0691 0.2219
C7A C 0.89502(19) 0.89502(19) 0.1542(2)
C8N C 0.9206(2) 0.8155(2) 0.15435(17)
C9N C 1.0034(2) 0.7908(2) 0.15316(18)
H5N H 1.0490 0.8248 0.1525
C10A C 1.1431(3) 1.1431(3) 0.1534(4)
O1A O 1.16570(17) 1.16570(17) 0.1935(2)
O2A O 1.16637(17) 1.16637(17) 0.1160(2)
C8A C 0.8155(2) 0.9206(2) 0.15435(17)
C9A C 0.7908(2) 1.0034(2) 0.15316(18)
H5A H 0.8248 1.0490 0.1525
N1A N 0.7500 0.8719(2) 0.15538(18)
C8L C 0.6845(2) 0.9206(2) 0.15435(17)
C9L C 0.7092(2) 1.0034(2) 0.15316(18)
H5L H 0.6752 1.0490 0.1525
O1A_2 O 0.16570(17) 0.16570(17) 0.1935(2)
O1B_2 O 0.16570(17) 0.33430(17) 0.1935(2)
O1C_2 O 0.33430(17) 0.16570(17) 0.1935(2)
O2A_2 O 0.16637(17) 0.16637(17) 0.1160(2)
O2B_2 O 0.16637(17) 0.33363(17) 0.1160(2)
O2C_2 O 0.33363(17) 0.16637(17) 0.1160(2)
Zn1_2 Zn 0.2500 1.2500 0.10592(6)
Zn1_3 Zn 1.2500 0.2500 0.10592(6)
Zn1_4 Zn 1.2500 1.2500 0.10592(6)
Zn3_2 Zn 0.2500 1.2500 0.20482(5)
Zn3_3 Zn 1.2500 0.2500 0.20482(5)
Zn3_4 Zn 1.2500 1.2500 0.20482(5)
loop_
_geom_bond_atom_site_label_1
_geom_bond_atom_site_label_2
_geom_bond_site_symmetry_1
_geom_bond_site_symmetry_2
C1 C2 1_555 1_555
C2 H1 1_555 1_555
C3 C2 1_555 1_555
H2 C3 1_555 1_555
C4 C3 1_555 1_555
C5 C4 1_555 1_555
H3 C5 1_555 1_555
C6 C1 1_555 1_555
H4 C6 1_555 1_555
C7 C4 1_555 1_555
C8 C7 1_555 1_555
C9 C8 1_555 1_555
H5 C9 1_555 1_555
C10 C1 1_555 1_555
N1 C8 1_555 1_555
O1 C10 1_555 1_555
O2 C10 1_555 1_555
Zn1 O2 1_555 1_555
Zn2 N1 1_555 1_555
Zn3 O1 1_555 1_555
C1B C2B 1_555 1_555
C2B H1B 1_555 1_555
C3B C2B 1_555 1_555
H2B C3B 1_555 1_555
C4B C3B 1_555 1_555
C5B C4B 1_555 1_555
H3B C5B 1_555 1_555
C6B C1B 1_555 1_555
H4B C6B 1_555 1_555
C7B C4B 1_555 1_555
C8M N1 1_555 1_555
C9M C9 1_555 1_555
H5M C9M 1_555 1_555
C10B C1B 1_555 1_555
O1B C10B 1_555 1_555
O2B C10B 1_555 1_555
C8O C7 1_555 1_555
C9O C8O 1_555 1_555
H5O C9O 1_555 1_555
N1C Zn2 1_555 1_555
C8B C7B 1_555 1_555
C9B C8B 1_555 1_555
H5B C9B 1_555 1_555
N1B Zn2 1_555 1_555
C1C C2C 1_555 1_555
C2C H1C 1_555 1_555
C3C C2C 1_555 1_555
H2C C3C 1_555 1_555
C4C C3C 1_555 1_555
C5C C4C 1_555 1_555
H3C C5C 1_555 1_555
C6C C1C 1_555 1_555
H4C C6C 1_555 1_555
C7C C4C 1_555 1_555
C8C N1C 1_555 1_555
C9C C9O 1_555 1_555
H5C C9C 1_555 1_555
C10C C1C 1_555 1_555
O1C C10C 1_555 1_555
O2C C10C 1_555 1_555
C1A C2A 1_555 1_555
C2A H1A 1_555 1_555
C3A C2A 1_555 1_555
H2A C3A 1_555 1_555
C4A C3A 1_555 1_555
C5A C4A 1_555 1_555
H3A C5A 1_555 1_555
C6A C1A 1_555 1_555
H4A C6A 1_555 1_555
C7A C4A 1_555 1_555
C8N N1B 1_555 1_555
C9N C9B 1_555 1_555
H5N C9N 1_555 1_555
C10A C1A 1_555 1_555
O1A C10A 1_555 1_555
O2A C10A 1_555 1_555
C8A C7A 1_555 1_555
C9A C8A 1_555 1_555
H5A C9A 1_555 1_555
N1A Zn2 1_555 1_555
C8L C7C 1_555 1_555
C9L C9A 1_555 1_555
H5L C9L 1_555 1_555
O1A_2 Zn3 1_555 1_555
O1B_2 Zn3 1_555 1_555
O1C_2 Zn3 1_555 1_555
O2A_2 Zn1 1_555 1_555
O2B_2 Zn1 1_555 1_555
O2C_2 Zn1 1_555 1_555
Zn1_2 O2C 1_555 1_555
Zn1_3 O2B 1_555 1_555
Zn1_4 O2A 1_555 1_555
Zn3_2 O1C 1_555 1_555
Zn3_3 O1B 1_555 1_555
Zn3_4 O1A 1_555 1_555
C5 C6 1_555 1_555
C5B C6B 1_555 1_555
C7B C8M 1_555 1_555
C8M C9M 1_555 1_555
C8O N1C 1_555 1_555
C8B N1B 1_555 1_555
C5C C6C 1_555 1_555
C7C C8C 1_555 1_555
C8C C9C 1_555 1_555
C5A C6A 1_555 1_555
C7A C8N 1_555 1_555
C8N C9N 1_555 1_555
C8A N1A 1_555 1_555
N1A C8L 1_555 1_555
C8L C9L 1_555 1_555

#END
