
#######################################################################
#
#                 Cambridge Crystallographic Data Centre
#                                CCDC 
#
#######################################################################
#
# If this CIF has been generated from an entry in the Cambridge 
# Structural Database, then it will include bibliographic, chemical, 
# crystal, experimental, refinement or atomic coordinate data resulting 
# from the CCDC's data processing and validation procedures.
#
#######################################################################

data_BOSDIY
_symmetry_cell_setting           triclinic
_symmetry_space_group_name_H-M   'P -1'
_symmetry_Int_Tables_number      2
_space_group_name_Hall           '-P 1'
loop_
_symmetry_equiv_pos_site_id
_symmetry_equiv_pos_as_xyz
1 x,y,z
2 -x,-y,-z
_cell_length_a                   9.2791(11)
_cell_length_b                   11.4893(14)
_cell_length_c                   13.7207(16)
_cell_angle_alpha                107.5990(10)
_cell_angle_beta                 90.4890(10)
_cell_angle_gamma                93.625(2)
_cell_volume                     1390.93
loop_
_atom_site_label
_atom_site_type_symbol
_atom_site_fract_x
_atom_site_fract_y
_atom_site_fract_z
Dy1 Dy 0.270092(14) -0.012101(11) 0.008576(10)
C1 C 0.0318(3) 0.1627(3) 0.1479(2)
C2 C -0.1406(4) 0.3010(3) 0.2573(3)
H1 H -0.2166 0.2449 0.2264
C3 C 0.5379(4) 0.2334(3) 0.0497(2)
C4 C 0.0001(4) 0.2762(3) 0.2315(2)
C5 C 0.4896(4) 0.3614(3) 0.0843(2)
C6 C 0.3440(4) 0.3821(3) 0.0819(2)
H2 H 0.2747 0.3170 0.0593
C7 C -0.1672(4) 0.4102(3) 0.3295(3)
C8 C 0.0803(4) 0.4689(3) 0.3489(3)
C9 C 0.1142(4) 0.3595(3) 0.2794(2)
H3 H 0.2096 0.3422 0.2651
C10 C -0.0589(4) 0.4974(3) 0.3760(3)
H4 H -0.0785 0.5714 0.4232
C11 C 0.5922(4) 0.4598(3) 0.1174(3)
H5 H 0.6902 0.4472 0.1183
C12 C 0.5448(4) 0.5766(3) 0.1490(3)
C13 C 0.3041(4) 0.5011(3) 0.1137(3)
C14 C 0.4024(4) 0.6013(3) 0.1490(3)
H6 H 0.3734 0.6809 0.1714
C15 C 0.4776(4) -0.0336(3) -0.1976(2)
C16 C 0.4860(4) -0.0794(3) -0.3128(2)
C17 C 0.6158(4) -0.1210(3) -0.3547(3)
H7 H 0.6955 -0.1195 -0.3126
C18 C 0.3679(4) -0.0820(3) -0.3758(3)
H8 H 0.2800 -0.0557 -0.3485
C19 C 0.3841(4) -0.1251(3) -0.4813(3)
C20 C 0.6247(4) -0.1646(3) -0.4592(3)
C21 C 0.5107(5) -0.1682(3) -0.5249(3)
H9 H 0.5188 -0.1984 -0.5955
H10 H 0.201(5) 0.134(5) -0.132(2)
H11 H 0.071(2) 0.136(5) -0.066(3)
H12 H 0.091(7) -0.104(5) 0.175(2)
H13 H 0.160(5) -0.206(2) 0.096(3)
N1 N -0.3176(4) 0.4334(3) 0.3587(3)
N2 N 0.1993(4) 0.5611(3) 0.3947(3)
N3 N 0.1501(4) 0.5229(3) 0.1097(3)
N4 N 0.6548(4) 0.6800(3) 0.1820(2)
N5 N 0.2629(4) -0.1211(3) -0.5495(3)
N6 N 0.7641(4) -0.2069(3) -0.5032(3)
O1 O -0.0702(3) 0.1075(2) 0.08923(19)
O2 O 0.1594(3) 0.1329(2) 0.14030(19)
O3 O 0.3170(4) 0.5481(3) 0.3559(3)
O4 O -0.4138(3) 0.3593(3) 0.3140(3)
O5 O 0.1711(4) 0.6463(3) 0.4690(2)
O6 O 0.1725(3) 0.1348(2) -0.0661(2)
O7 O 0.6711(3) 0.2208(2) 0.03733(19)
O8 O 0.4450(3) 0.1461(2) 0.03431(19)
O9 O 0.1242(3) -0.1282(2) 0.1067(2)
O10 O -0.3382(4) 0.5274(4) 0.4265(4)
O11 O 0.3582(3) -0.0447(2) -0.15944(18)
O12 O 0.0636(3) 0.4355(3) 0.0789(3)
O13 O 0.7815(4) 0.6583(3) 0.1807(3)
O14 O 0.6129(4) 0.7834(2) 0.2077(3)
O15 O 0.1171(4) 0.6287(3) 0.1394(4)
O16 O 0.1568(4) -0.0710(3) -0.5121(2)
O17 O 0.8579(4) -0.2176(4) -0.4460(3)
O18 O 0.2770(4) -0.1659(4) -0.6413(2)
O19 O 0.7783(5) -0.2280(4) -0.5939(3)
O20 O 0.5947(3) 0.0103(2) -0.15134(18)
Dy1A Dy -0.270092(14) 0.012101(11) -0.008576(10)
Dy1A_2 Dy 0.729908(14) 0.012101(11) -0.008576(10)
O1A O 0.0702(3) -0.1075(2) -0.08923(19)
O7A O 0.3289(3) -0.2208(2) -0.03733(19)
O20A O 0.4053(3) -0.0103(2) 0.15134(18)
H14 H -0.024(10) -0.094(6) 0.347(4)
H15 H 0.039(5) 0.008(3) 0.309(3)
O21 O -0.0196(6) -0.0655(7) 0.2885(4)
loop_
_geom_bond_atom_site_label_1
_geom_bond_atom_site_label_2
_geom_bond_site_symmetry_1
_geom_bond_site_symmetry_2
Dy1 O2 1_555 1_555
C1 C4 1_555 1_555
C2 H1 1_555 1_555
C3 C5 1_555 1_555
C4 C2 1_555 1_555
C5 C6 1_555 1_555
C6 H2 1_555 1_555
C7 C2 1_555 1_555
C8 C9 1_555 1_555
C9 C4 1_555 1_555
H3 C9 1_555 1_555
C10 C7 1_555 1_555
H4 C10 1_555 1_555
C11 C5 1_555 1_555
H5 C11 1_555 1_555
C12 C11 1_555 1_555
C13 C6 1_555 1_555
C14 C12 1_555 1_555
H6 C14 1_555 1_555
C15 C16 1_555 1_555
C16 C17 1_555 1_555
C17 H7 1_555 1_555
C18 C16 1_555 1_555
H8 C18 1_555 1_555
C19 C18 1_555 1_555
C20 C17 1_555 1_555
C21 C19 1_555 1_555
H9 C21 1_555 1_555
H10 O6 1_555 1_555
H11 O6 1_555 1_555
H12 O9 1_555 1_555
H13 O9 1_555 1_555
N1 C7 1_555 1_555
N2 C8 1_555 1_555
N3 C13 1_555 1_555
N4 C12 1_555 1_555
N5 C19 1_555 1_555
N6 C20 1_555 1_555
O1 C1 1_555 1_555
O2 C1 1_555 1_555
O3 N2 1_555 1_555
O4 N1 1_555 1_555
O5 N2 1_555 1_555
O6 Dy1 1_555 1_555
O7 C3 1_555 1_555
O8 Dy1 1_555 1_555
O9 Dy1 1_555 1_555
O10 N1 1_555 1_555
O11 Dy1 1_555 1_555
O12 N3 1_555 1_555
O13 N4 1_555 1_555
O14 N4 1_555 1_555
O15 N3 1_555 1_555
O16 N5 1_555 1_555
O17 N6 1_555 1_555
O18 N5 1_555 1_555
O19 N6 1_555 1_555
O20 C15 1_555 1_555
H14 O21 1_555 1_555
H15 O21 1_555 1_555
Dy1A O1 1_555 1_555
Dy1A_2 O7 1_555 1_555
O1A Dy1 1_555 1_555
O7A Dy1 1_555 1_555
O20A Dy1 1_555 1_555
C3 O8 1_555 1_555
C8 C10 1_555 1_555
C13 C14 1_555 1_555
C15 O11 1_555 1_555
C20 C21 1_555 1_555
O20 Dy1A_2 1_555 1_555

#END
