
#######################################################################
#
#                 Cambridge Crystallographic Data Centre
#                                CCDC 
#
#######################################################################
#
# If this CIF has been generated from an entry in the Cambridge 
# Structural Database, then it will include bibliographic, chemical, 
# crystal, experimental, refinement or atomic coordinate data resulting 
# from the CCDC's data processing and validation procedures.
#
#######################################################################

data_BOSVEM
_symmetry_cell_setting           orthorhombic
_symmetry_space_group_name_H-M   'P b c a'
_symmetry_Int_Tables_number      61
_space_group_name_Hall           '-P 2ac 2ab'
loop_
_symmetry_equiv_pos_site_id
_symmetry_equiv_pos_as_xyz
1 x,y,z
2 1/2-x,-y,1/2+z
3 -x,1/2+y,1/2-z
4 1/2+x,1/2-y,-z
5 -x,-y,-z
6 1/2+x,y,1/2-z
7 x,1/2-y,1/2+z
8 1/2-x,1/2+y,z
_cell_length_a                   7.3759(4)
_cell_length_b                   17.8877(9)
_cell_length_c                   32.4672(17)
_cell_angle_alpha                90
_cell_angle_beta                 90
_cell_angle_gamma                90
_cell_volume                     4283.65
loop_
_atom_site_label
_atom_site_type_symbol
_atom_site_fract_x
_atom_site_fract_y
_atom_site_fract_z
Cu1 Cu 1.07017(8) 0.74955(3) 0.050671(14)
Cu2 Cu 1.17809(8) 0.72528(3) 0.200020(14)
Cu3 Cu 1.08581(7) 0.05370(3) 0.085761(13)
Cu4 Cu 0.99128(8) -0.13145(3) 0.194578(16)
C1 C 1.0629(6) -0.0626(2) 0.15602(13)
C2 C 1.3017(5) 0.7804(2) 0.23989(11)
C3 C 1.0984(6) 0.7522(2) 0.10814(12)
C4 C 0.8790(6) 0.7285(2) 0.01370(11)
C5 C 0.9240(6) 0.1504(2) 0.14996(10)
H1 H 0.9169 0.1113 0.1687
C6 C 0.8875(6) 0.2226(2) 0.15858(10)
H2 H 0.8520 0.2423 0.1838
C7 C 0.9643(5) 0.21105(19) 0.09374(10)
H3 H 0.9897 0.2229 0.0665
C8 C 0.8980(5) 0.33966(19) 0.11628(10)
C9 C 0.8451(5) 0.36590(18) 0.07794(10)
H4 H 0.8166 0.3326 0.0569
C10 C 0.8351(5) 0.44214(19) 0.07140(10)
C11 C 0.8725(5) 0.49209(19) 0.10272(10)
H5 H 0.8605 0.5433 0.0985
C12 C 0.9285(5) 0.46426(19) 0.14068(10)
C13 C 0.9420(5) 0.38858(19) 0.14797(10)
H6 H 0.9796 0.3707 0.1735
C14 C 1.0538(6) 0.5832(2) 0.16609(11)
H7 H 1.0898 0.6009 0.1404
C15 C 1.0057(8) 0.5743(3) 0.23025(13)
H8 H 1.0029 0.5855 0.2582
C16 C 0.9409(8) 0.5107(2) 0.21368(12)
H9 H 0.8862 0.4711 0.2274
C17 C 0.7087(6) 0.4301(2) 0.00061(10)
H10 H 0.6787 0.3797 0.0022
C18 C 0.7452(6) 0.5420(2) -0.02158(11)
H11 H 0.7446 0.5835 -0.0388
C19 C 0.8045(6) 0.5418(2) 0.01746(11)
H12 H 0.8516 0.5822 0.0320
N1 N 1.0919(5) -0.02084(19) 0.12981(11)
N2 N 1.3743(5) 0.81604(19) 0.26440(10)
N3 N 1.1210(6) 0.7505(2) 0.14296(11)
N4 N 0.7734(5) 0.72739(19) -0.01263(11)
N5 N 1.0764(5) 0.62025(18) 0.20058(9)
N6 N 0.9728(4) 0.51691(16) 0.17206(8)
N7 N 0.9737(4) 0.14318(16) 0.10911(8)
N8 N 0.9133(4) 0.26136(15) 0.12230(8)
N9 N 0.6851(4) 0.47179(16) -0.03245(8)
N10 N 0.7821(4) 0.46982(15) 0.03186(8)
Cu1C Cu 0.57017(8) 0.75045(3) -0.050671(14)
Cu3C Cu 0.58581(7) 0.44630(3) -0.085761(13)
Cu4E Cu 1.49128(8) 0.86855(3) 0.305422(16)
N2E N 0.8743(5) -0.18396(19) 0.23560(10)
N4C N 1.2734(5) 0.77261(19) 0.01263(11)
N9C N 1.1851(4) 0.02821(16) 0.03245(8)
loop_
_geom_bond_atom_site_label_1
_geom_bond_atom_site_label_2
_geom_bond_site_symmetry_1
_geom_bond_site_symmetry_2
Cu1 C3 1_555 1_555
Cu2 C2 1_555 1_555
Cu3 N1 1_555 1_555
Cu4 C1 1_555 1_555
C1 N1 1_555 1_555
C2 N2 1_555 1_555
C3 N3 1_555 1_555
C4 Cu1 1_555 1_555
C5 H1 1_555 1_555
C6 C5 1_555 1_555
H2 C6 1_555 1_555
C7 H3 1_555 1_555
C8 C9 1_555 1_555
C9 H4 1_555 1_555
C10 C9 1_555 1_555
C11 C10 1_555 1_555
H5 C11 1_555 1_555
C12 C11 1_555 1_555
C13 C8 1_555 1_555
H6 C13 1_555 1_555
C14 H7 1_555 1_555
C15 H8 1_555 1_555
C16 C15 1_555 1_555
H9 C16 1_555 1_555
C17 H10 1_555 1_555
C18 H11 1_555 1_555
C19 C18 1_555 1_555
H12 C19 1_555 1_555
N2 Cu4E 1_555 1_555
N3 Cu2 1_555 1_555
N4 C4 1_555 1_555
N5 Cu2 1_555 1_555
N6 C12 1_555 1_555
N7 Cu3 1_555 1_555
N8 C6 1_555 1_555
N9 C17 1_555 1_555
N10 C10 1_555 1_555
Cu1C N4 1_555 1_555
Cu3C N9 1_555 1_555
N2E Cu4 1_555 1_555
N4C Cu1 1_555 1_555
N9C Cu3 1_555 1_555
C5 N7 1_555 1_555
C7 N7 1_555 1_555
C7 N8 1_555 1_555
C8 N8 1_555 1_555
C12 C13 1_555 1_555
C14 N5 1_555 1_555
C14 N6 1_555 1_555
C15 N5 1_555 1_555
C16 N6 1_555 1_555
C17 N10 1_555 1_555
C18 N9 1_555 1_555
C19 N10 1_555 1_555

#END
