
#######################################################################
#
#                 Cambridge Crystallographic Data Centre
#                                CCDC 
#
#######################################################################
#
# If this CIF has been generated from an entry in the Cambridge 
# Structural Database, then it will include bibliographic, chemical, 
# crystal, experimental, refinement or atomic coordinate data resulting 
# from the CCDC's data processing and validation procedures.
#
#######################################################################

data_BOVJON
_symmetry_cell_setting           monoclinic
_symmetry_space_group_name_H-M   'P 2/n'
_symmetry_Int_Tables_number      13
_space_group_name_Hall           '-P 2yac'
loop_
_symmetry_equiv_pos_site_id
_symmetry_equiv_pos_as_xyz
1 x,y,z
2 1/2-x,y,1/2-z
3 -x,-y,-z
4 1/2+x,-y,1/2+z
_cell_length_a                   27.054(8)
_cell_length_b                   12.490(3)
_cell_length_c                   29.279(8)
_cell_angle_alpha                90
_cell_angle_beta                 115.387(4)
_cell_angle_gamma                90
_cell_volume                     8938.11
loop_
_atom_site_label
_atom_site_type_symbol
_atom_site_fract_x
_atom_site_fract_y
_atom_site_fract_z
C1 C 0.4029(2) 1.0139(5) 0.1468(2)
C2 C 0.3638(2) 1.0384(5) 0.0941(2)
C3 C 0.3364(2) 1.1311(5) 0.0754(2)
H1 H 0.3412 1.1922 0.0951
C4 C 0.2992(3) 1.1267(5) 0.0227(2)
C5 C 0.3007(3) 1.0282(6) 0.0015(2)
C6 C 0.2698(3) 0.9912(7) -0.0517(3)
H2 H 0.2798 0.9187 -0.0546
H3 H 0.2784 1.0364 -0.0738
H4 H 0.2313 0.9948 -0.0608
C7 C 0.2656(3) 1.2191(6) -0.0020(2)
C8 C 0.2911(3) 1.3283(7) 0.0109(3)
C9 C 0.2508(3) 1.4024(7) -0.0309(3)
C10 C 0.1968(3) 1.3413(6) -0.0496(3)
C11 C 0.2127(3) 1.2263(5) -0.0357(2)
C12 C 0.1915(3) 1.0446(7) 0.0294(2)
H5 H 0.1766 0.9833 0.0388
H6 H 0.1877 1.1066 0.0470
H7 H 0.2296 1.0326 0.0381
C13 C 0.1611(3) 1.0628(5) -0.0272(2)
C14 C 0.1703(2) 1.1434(5) -0.0557(2)
C15 C 0.1315(2) 1.1396(5) -0.1077(2)
H8 H 0.1310 1.1879 -0.1320
C16 C 0.0955(3) 1.0577(5) -0.1175(2)
C17 C 0.0502(2) 1.0289(5) -0.1676(2)
C18 C 0.4655(2) 0.9441(5) -0.1992(2)
C19 C 0.4513(3) 0.9126(6) -0.1572(2)
C20 C 0.4269(3) 0.8214(5) -0.1513(2)
H9 H 0.4174 0.7642 -0.1738
C21 C 0.4177(3) 0.8234(6) -0.1068(2)
C22 C 0.4350(3) 0.9182(6) -0.0803(3)
C23 C 0.4298(4) 0.9531(7) -0.0328(3)
H10 H 0.4456 1.0230 -0.0229
H11 H 0.4488 0.9031 -0.0061
H12 H 0.3919 0.9553 -0.0394
C24 C 0.3883(3) 0.7403(6) -0.0932(2)
C25 C 0.3314(3) 0.7083(8) -0.1311(3)
C26 C 0.3141(4) 0.6233(8) -0.1038(3)
C27 C 0.3546(3) 0.6278(7) -0.0486(3)
C28 C 0.4012(3) 0.6938(6) -0.0480(2)
C29 C 0.5153(4) 0.6486(9) -0.0461(3)
H13 H 0.5541 0.6395 -0.0346
H14 H 0.5028 0.7058 -0.0703
H15 H 0.4969 0.5835 -0.0616
C30 C 0.5033(3) 0.6748(7) -0.0025(3)
C31 C 0.4535(3) 0.6953(6) -0.0027(3)
C32 C 0.4569(3) 0.7140(5) 0.0468(2)
H16 H 0.4268 0.7286 0.0534
C33 C 0.5088(3) 0.7079(5) 0.0827(2)
C34 C 0.5282(3) 0.7211(6) 0.1387(3)
C35 C 0.5788(2) 1.0778(6) 0.7164(2)
C36 C 0.5793(3) 1.1091(5) 0.6677(2)
C37 C 0.5865(2) 1.2076(5) 0.6513(2)
H17 H 0.5934 1.2694 0.6708
C38 C 0.5822(2) 1.2053(5) 0.6009(2)
C39 C 0.5717(3) 1.1024(5) 0.5804(2)
C40 C 0.5662(3) 1.0673(6) 0.5291(3)
H18 H 0.5590 0.9917 0.5251
H19 H 0.5995 1.0826 0.5262
H20 H 0.5364 1.1052 0.5032
C41 C 0.5915(3) 1.2962(5) 0.5751(2)
C42 C 0.6364(3) 1.3743(7) 0.6024(3)
C43 C 0.6462(4) 1.4347(7) 0.5628(3)
C44 C 0.5934(3) 1.4172(5) 0.5133(3)
C45 C 0.5643(3) 1.3268(5) 0.5257(2)
C46 C 0.4583(3) 1.2654(6) 0.5398(2)
H21 H 0.4213 1.2459 0.5321
H22 H 0.4658 1.3355 0.5546
H23 H 0.4829 1.2146 0.5631
C47 C 0.4661(3) 1.2657(5) 0.4924(2)
C48 C 0.5128(3) 1.2888(5) 0.4857(2)
C49 C 0.5029(3) 1.2809(5) 0.4338(2)
H24 H 0.5299 1.2930 0.4227
C50 C 0.4508(3) 1.2543(5) 0.4021(2)
C51 C 0.4269(3) 1.2445(5) 0.3458(2)
C52 C 0.5297(3) 0.6443(6) 0.3197(2)
H25 H 0.5601 0.6883 0.3278
C53 C 0.5312(3) 0.5699(6) 0.3555(2)
H26 H 0.5608 0.5651 0.3870
C54 C 0.4864(3) 0.5037(6) 0.3419(2)
H27 H 0.4856 0.4531 0.3649
C55 C 0.4431(3) 0.5108(5) 0.2955(2)
H28 H 0.4136 0.4643 0.2863
C56 C 0.4445(3) 0.5904(5) 0.2619(2)
C57 C 0.3993(3) 0.6041(5) 0.2102(2)
C58 C 0.3545(3) 0.5359(6) 0.1913(3)
H29 H 0.3509 0.4807 0.2109
C59 C 0.3156(3) 0.5521(6) 0.1428(3)
H30 H 0.2845 0.5094 0.1299
C60 C 0.3223(3) 0.6314(6) 0.1130(3)
H31 H 0.2967 0.6418 0.0798
C61 C 0.3682(3) 0.6942(5) 0.1344(2)
H32 H 0.3733 0.7475 0.1146
C62 C 0.4249(3) 1.3431(5) 0.1642(3)
H33 H 0.3939 1.3007 0.1553
C63 C 0.4257(3) 1.4203(6) 0.1304(2)
H34 H 0.3956 1.4288 0.0993
C64 C 0.4704(3) 1.4829(6) 0.1427(3)
H35 H 0.4719 1.5343 0.1203
C65 C 0.5140(3) 1.4685(5) 0.1895(2)
H36 H 0.5447 1.5120 0.1991
C66 C 0.5123(3) 1.3899(6) 0.2222(2)
C67 C 0.5566(3) 1.3727(5) 0.2738(2)
C68 C 0.6026(3) 1.4371(6) 0.2930(3)
H37 H 0.6074 1.4907 0.2732
C69 C 0.6415(3) 1.4205(6) 0.3420(3)
H38 H 0.6729 1.4625 0.3557
C70 C 0.6328(3) 1.3401(6) 0.3703(3)
H39 H 0.6578 1.3274 0.4035
C71 C 0.5863(3) 1.2801(6) 0.3480(2)
H40 H 0.5805 1.2265 0.3672
N1 N 0.4879(2) 0.6568(4) 0.2747(2)
N2 N 0.4065(2) 0.6830(4) 0.18225(19)
N3 N 0.4675(2) 1.3273(4) 0.2096(2)
N4 N 0.5488(2) 1.2928(4) 0.30067(19)
O1 O 0.41611(18) 0.9153(4) 0.15661(16)
O2 O 0.41925(18) 1.0902(4) 0.17729(16)
O3 O 0.03241(18) 1.1038(4) -0.19929(15)
O4 O 0.03392(17) 0.9332(4) -0.17374(15)
O5 O 0.47452(18) 1.0402(4) -0.20215(16)
O6 O 0.46795(19) 0.8693(4) -0.22768(16)
O7 O 0.49207(18) 0.7429(4) 0.15332(16)
O8 O 0.5781(2) 0.7061(5) 0.16671(19)
O9 O 0.58070(18) 1.1523(4) 0.74638(16)
O10 O 0.57605(18) 0.9799(4) 0.72433(16)
O11 O 0.46210(18) 1.2407(4) 0.32763(16)
O12 O 0.37677(19) 1.2417(5) 0.32158(18)
O13 O 0.3774(2) 1.2272(4) 0.22924(18)
O14 O 0.5770(2) 0.7601(5) 0.25380(19)
F1 F 0.34158(17) 1.3340(4) 0.01276(17)
F2 F 0.29488(18) 1.3628(3) 0.05637(16)
F3 F 0.2659(2) 1.4114(5) -0.0688(2)
F4 F 0.2479(2) 1.5015(4) -0.0145(2)
F5 F 0.1666(2) 1.3566(4) -0.10016(18)
F6 F 0.1663(2) 1.3783(4) -0.0265(2)
F7 F 0.2969(2) 0.7940(6) -0.1392(3)
F8 F 0.3283(3) 0.6806(7) -0.17428(19)
F9 F 0.2638(2) 0.6256(8) -0.1123(3)
F10 F 0.3231(4) 0.5265(6) -0.1213(2)
F11 F 0.3301(2) 0.6801(6) -0.0224(2)
F12 F 0.3690(2) 0.5370(5) -0.0251(3)
F13 F 0.6205(3) 1.4498(6) 0.6280(2)
F14 F 0.6807(2) 1.3338(6) 0.6381(3)
F15 F 0.6664(3) 1.5285(5) 0.57193(19)
F16 F 0.6876(2) 1.3757(5) 0.5560(2)
F17 F 0.5639(2) 1.5072(4) 0.5008(2)
F18 F 0.6075(2) 1.3968(5) 0.4757(2)
S1 S 0.34611(7) 0.94325(14) 0.04650(6)
S2 S 0.10722(7) 0.98437(14) -0.06389(6)
S3 S 0.46244(9) 1.00259(15) -0.10928(7)
S4 S 0.55407(8) 0.6770(2) 0.05793(7)
S5 S 0.56770(7) 1.01206(13) 0.62251(6)
S6 S 0.41179(7) 1.23933(14) 0.43512(6)
Ho1 Ho 0.48365(2) 0.82008(2) 0.22139(2)
Ho2 Ho 0.46839(2) 1.16135(2) 0.25913(2)
H41 H 0.355(3) 1.272(6) 0.210(2)
H42 H 0.372(3) 1.216(7) 0.2555(19)
H43 H 0.581(4) 0.8268(17) 0.259(3)
H44 H 0.582(4) 0.736(6) 0.229(2)
O3C O 0.53241(18) 0.8962(4) 0.30071(15)
O4C O 0.53392(17) 1.0668(4) 0.32626(15)
O5B O 0.52548(18) 0.9598(4) 0.20215(16)
O6B O 0.53205(19) 1.1307(4) 0.22768(16)
O9B O 0.41930(18) 0.8477(4) 0.25362(16)
O10B O 0.42395(18) 1.0201(4) 0.27567(16)
Ho1B Ho 0.51635(2) 1.17992(2) -0.22139(2)
Ho1B_2 Ho 0.51635(2) 1.17992(2) 0.77861(2)
Ho1C Ho -0.01635(2) 1.17992(2) -0.27861(2)
Ho2B Ho 0.53161(2) 0.83865(2) -0.25913(2)
Ho2B_2 Ho 0.53161(2) 0.83865(2) 0.74087(2)
Ho2C Ho -0.03161(2) 0.83865(2) -0.24087(2)
loop_
_geom_bond_atom_site_label_1
_geom_bond_atom_site_label_2
_geom_bond_site_symmetry_1
_geom_bond_site_symmetry_2
C1 C2 1_555 1_555
C2 C3 1_555 1_555
C3 H1 1_555 1_555
C4 C3 1_555 1_555
C5 C4 1_555 1_555
C6 C5 1_555 1_555
H2 C6 1_555 1_555
H3 C6 1_555 1_555
H4 C6 1_555 1_555
C7 C4 1_555 1_555
C8 C7 1_555 1_555
C9 C8 1_555 1_555
C10 C9 1_555 1_555
C11 C7 1_555 1_555
C12 H5 1_555 1_555
H6 C12 1_555 1_555
H7 C12 1_555 1_555
C13 C12 1_555 1_555
C14 C11 1_555 1_555
C15 C14 1_555 1_555
H8 C15 1_555 1_555
C16 C15 1_555 1_555
C17 C16 1_555 1_555
C18 C19 1_555 1_555
C19 C20 1_555 1_555
C20 H9 1_555 1_555
C21 C20 1_555 1_555
C22 C21 1_555 1_555
C23 C22 1_555 1_555
H10 C23 1_555 1_555
H11 C23 1_555 1_555
H12 C23 1_555 1_555
C24 C21 1_555 1_555
C25 C24 1_555 1_555
C26 C25 1_555 1_555
C27 C26 1_555 1_555
C28 C24 1_555 1_555
C29 H13 1_555 1_555
H14 C29 1_555 1_555
H15 C29 1_555 1_555
C30 C29 1_555 1_555
C31 C28 1_555 1_555
C32 C31 1_555 1_555
H16 C32 1_555 1_555
C33 C32 1_555 1_555
C34 C33 1_555 1_555
C35 C36 1_555 1_555
C36 C37 1_555 1_555
C37 H17 1_555 1_555
C38 C37 1_555 1_555
C39 C38 1_555 1_555
C40 C39 1_555 1_555
H18 C40 1_555 1_555
H19 C40 1_555 1_555
H20 C40 1_555 1_555
C41 C38 1_555 1_555
C42 C41 1_555 1_555
C43 C42 1_555 1_555
C44 C43 1_555 1_555
C45 C41 1_555 1_555
C46 H21 1_555 1_555
H22 C46 1_555 1_555
H23 C46 1_555 1_555
C47 C46 1_555 1_555
C48 C45 1_555 1_555
C49 C48 1_555 1_555
H24 C49 1_555 1_555
C50 C49 1_555 1_555
C51 C50 1_555 1_555
C52 H25 1_555 1_555
C53 C52 1_555 1_555
H26 C53 1_555 1_555
C54 C53 1_555 1_555
H27 C54 1_555 1_555
C55 C54 1_555 1_555
H28 C55 1_555 1_555
C56 C55 1_555 1_555
C57 C56 1_555 1_555
C58 C57 1_555 1_555
H29 C58 1_555 1_555
C59 C58 1_555 1_555
H30 C59 1_555 1_555
C60 C59 1_555 1_555
H31 C60 1_555 1_555
C61 C60 1_555 1_555
H32 C61 1_555 1_555
C62 H33 1_555 1_555
C63 C62 1_555 1_555
H34 C63 1_555 1_555
C64 C63 1_555 1_555
H35 C64 1_555 1_555
C65 C64 1_555 1_555
H36 C65 1_555 1_555
C66 C65 1_555 1_555
C67 C66 1_555 1_555
C68 C67 1_555 1_555
H37 C68 1_555 1_555
C69 C68 1_555 1_555
H38 C69 1_555 1_555
C70 C69 1_555 1_555
H39 C70 1_555 1_555
C71 C70 1_555 1_555
H40 C71 1_555 1_555
N1 C52 1_555 1_555
N2 C57 1_555 1_555
N3 C62 1_555 1_555
N4 C67 1_555 1_555
O1 C1 1_555 1_555
O2 C1 1_555 1_555
O3 C17 1_555 1_555
O4 C17 1_555 1_555
O5 C18 1_555 1_555
O6 C18 1_555 1_555
O7 C34 1_555 1_555
O8 C34 1_555 1_555
O9 C35 1_555 1_555
O10 C35 1_555 1_555
O11 C51 1_555 1_555
O12 C51 1_555 1_555
O13 Ho2 1_555 1_555
O14 Ho1 1_555 1_555
F1 C8 1_555 1_555
F2 C8 1_555 1_555
F3 C9 1_555 1_555
F4 C9 1_555 1_555
F5 C10 1_555 1_555
F6 C10 1_555 1_555
F7 C25 1_555 1_555
F8 C25 1_555 1_555
F9 C26 1_555 1_555
F10 C26 1_555 1_555
F11 C27 1_555 1_555
F12 C27 1_555 1_555
F13 C42 1_555 1_555
F14 C42 1_555 1_555
F15 C43 1_555 1_555
F16 C43 1_555 1_555
F17 C44 1_555 1_555
F18 C44 1_555 1_555
S1 C2 1_555 1_555
S2 C13 1_555 1_555
S3 C19 1_555 1_555
S4 C30 1_555 1_555
S5 C36 1_555 1_555
S6 C47 1_555 1_555
Ho1 N1 1_555 1_555
Ho2 N3 1_555 1_555
H41 O13 1_555 1_555
H42 O13 1_555 1_555
H43 O14 1_555 1_555
H44 O14 1_555 1_555
O3C Ho1 1_555 1_555
O4C Ho2 1_555 1_555
O5B Ho1 1_555 1_555
O6B Ho2 1_555 1_555
O9B Ho1 1_555 1_555
O10B Ho2 1_555 1_555
Ho1B O5 1_555 1_555
Ho1B_2 O9 1_555 1_555
Ho1C O3 1_555 1_555
Ho2B O6 1_555 1_555
Ho2B_2 O10 1_555 1_555
Ho2C O4 1_555 1_555
C5 S1 1_555 1_555
C10 C11 1_555 1_555
C13 C14 1_555 1_555
C16 S2 1_555 1_555
C22 S3 1_555 1_555
C27 C28 1_555 1_555
C30 C31 1_555 1_555
C33 S4 1_555 1_555
C39 S5 1_555 1_555
C44 C45 1_555 1_555
C47 C48 1_555 1_555
C50 S6 1_555 1_555
C56 N1 1_555 1_555
C61 N2 1_555 1_555
C66 N3 1_555 1_555
C71 N4 1_555 1_555
N2 Ho1 1_555 1_555
N4 Ho2 1_555 1_555
O1 Ho1 1_555 1_555
O2 Ho2 1_555 1_555
O7 Ho1 1_555 1_555
O11 Ho2 1_555 1_555

#END
