
#######################################################################
#
#                 Cambridge Crystallographic Data Centre
#                                CCDC 
#
#######################################################################
#
# If this CIF has been generated from an entry in the Cambridge 
# Structural Database, then it will include bibliographic, chemical, 
# crystal, experimental, refinement or atomic coordinate data resulting 
# from the CCDC's data processing and validation procedures.
#
#######################################################################

data_BOVPUZ
_symmetry_cell_setting           monoclinic
_symmetry_space_group_name_H-M   'P 21'
_symmetry_Int_Tables_number      4
_space_group_name_Hall           'P 2yb'
loop_
_symmetry_equiv_pos_site_id
_symmetry_equiv_pos_as_xyz
1 x,y,z
2 -x,1/2+y,-z
_cell_length_a                   6.1320(15)
_cell_length_b                   4.9490(13)
_cell_length_c                   15.711(3)
_cell_angle_alpha                90
_cell_angle_beta                 92.904(15)
_cell_angle_gamma                90
_cell_volume                     476.174
loop_
_atom_site_label
_atom_site_type_symbol
_atom_site_fract_x
_atom_site_fract_y
_atom_site_fract_z
C1 C -0.0164(3) 0.9761(4) 0.86916(9)
C2 C -0.0660(2) 1.0794(3) 0.77865(9)
C3 C 0.0559(2) 1.2668(4) 0.73544(9)
C4 C -0.0015(3) 1.3539(4) 0.65368(9)
H1 H 0.0812 1.4823 0.6265
C5 C -0.1852(3) 1.2433(4) 0.61441(9)
C6 C -0.3118(3) 1.0540(4) 0.65286(10)
H2 H -0.4345 0.9804 0.6243
C7 C -0.2507(3) 0.9761(4) 0.73570(10)
H3 H -0.3361 0.8511 0.7631
N1 N 0.2627(2) 1.3688(4) 0.77354(9)
N2 N -0.2401(2) 1.3207(4) 0.52529(8)
O1 O -0.0349(2) 1.1349(3) 0.93016(6)
O2 O 0.0246(3) 0.7331(3) 0.87512(7)
O3 O -0.4143(2) 1.5558(4) 0.96121(10)
H4 H -0.467(4) 1.524(6) 0.9128(12)
H5 H -0.477(5) 1.697(6) 0.9793(15)
O4 O 0.3447(2) 1.2466(4) 0.83507(8)
O5 O 0.3443(3) 1.5648(4) 0.74185(10)
O6 O -0.3562(2) 1.1669(4) 0.48187(7)
O7 O -0.1661(2) 1.5309(4) 0.49945(9)
Li1 Li -0.0906(5) 1.5009(6) 0.95926(16)
O1A O 0.0349(2) 1.6349(3) 1.06984(6)
O2_2 O 0.0246(3) 1.7331(3) 0.87512(7)
Li1_2 Li -0.0906(5) 0.5009(6) 0.95926(16)
Li1A Li 0.0906(5) 1.0009(6) 1.04074(16)
loop_
_geom_bond_atom_site_label_1
_geom_bond_atom_site_label_2
_geom_bond_site_symmetry_1
_geom_bond_site_symmetry_2
C1 C2 1_555 1_555
C2 C3 1_555 1_555
C3 C4 1_555 1_555
C4 H1 1_555 1_555
C5 C4 1_555 1_555
C6 C5 1_555 1_555
H2 C6 1_555 1_555
C7 C2 1_555 1_555
H3 C7 1_555 1_555
N1 C3 1_555 1_555
N2 C5 1_555 1_555
O1 C1 1_555 1_555
O2 C1 1_555 1_555
O3 H4 1_555 1_555
H5 O3 1_555 1_555
O4 N1 1_555 1_555
O5 N1 1_555 1_555
O6 N2 1_555 1_555
O7 N2 1_555 1_555
Li1 O1 1_555 1_555
O1A Li1 1_555 1_555
O2_2 Li1 1_555 1_555
Li1_2 O2 1_555 1_555
Li1A O1 1_555 1_555
C6 C7 1_555 1_555
O3 Li1 1_555 1_555

#END
