
#######################################################################
#
#                 Cambridge Crystallographic Data Centre
#                                CCDC 
#
#######################################################################
#
# If this CIF has been generated from an entry in the Cambridge 
# Structural Database, then it will include bibliographic, chemical, 
# crystal, experimental, refinement or atomic coordinate data resulting 
# from the CCDC's data processing and validation procedures.
#
#######################################################################

data_BOVPOS
_symmetry_cell_setting           monoclinic
_symmetry_space_group_name_H-M   'C 2/c'
_symmetry_Int_Tables_number      15
_space_group_name_Hall           '-C 2yn'
loop_
_symmetry_equiv_pos_site_id
_symmetry_equiv_pos_as_xyz
1 x,y,z
2 -x,y,1/2-z
3 1/2+x,1/2+y,z
4 1/2-x,1/2+y,1/2-z
5 -x,-y,-z
6 x,-y,1/2+z
7 1/2-x,1/2-y,-z
8 1/2+x,1/2-y,1/2+z
_cell_length_a                   12.6419(11)
_cell_length_b                   10.8341(10)
_cell_length_c                   7.7241(7)
_cell_angle_alpha                90
_cell_angle_beta                 92.7950(10)
_cell_angle_gamma                90
_cell_volume                     1056.66
loop_
_atom_site_label
_atom_site_type_symbol
_atom_site_fract_x
_atom_site_fract_y
_atom_site_fract_z
Cd1 Cd 0.5000 0.582614(14) 0.2500
C1 C 0.62301(13) 0.34405(15) 0.0808(2)
C2 C 0.61171(13) 0.12413(16) 0.1243(2)
N1 N 0.56499(11) 0.28638(13) -0.03734(18)
N2 N 0.55650(12) 0.16022(13) -0.01418(19)
N3 N 0.61723(13) 0.00640(15) 0.1767(2)
H1 H 0.5834 -0.0499 0.1182
H2 H 0.6546 -0.0129 0.2687
S1 S 0.64750(3) 0.50104(4) 0.07269(5)
S2 S 0.67601(4) 0.24382(4) 0.23801(6)
Cd1D Cd 0.5000 0.417386(14) -0.2500
Cd1D_2 Cd 0.5000 0.417386(14) 0.7500
C1A C 0.37699(13) 0.34405(15) 0.4192(2)
C2A C 0.38829(13) 0.12413(16) 0.3757(2)
N1A N 0.43501(11) 0.28638(13) 0.53734(18)
N1D N 0.43501(11) 0.71362(13) 0.03734(18)
N1E N 0.56499(11) 0.71362(13) 0.46266(18)
N2A N 0.44350(12) 0.16022(13) 0.51418(19)
N3A N 0.38277(13) 0.00640(15) 0.3233(2)
H1A H 0.4166 -0.0499 0.3818
H2A H 0.3454 -0.0129 0.2313
S1A S 0.35250(3) 0.50104(4) 0.42731(5)
S2A S 0.32399(4) 0.24382(4) 0.26199(6)
loop_
_geom_bond_atom_site_label_1
_geom_bond_atom_site_label_2
_geom_bond_site_symmetry_1
_geom_bond_site_symmetry_2
Cd1 S1 1_555 1_555
C1 N1 1_555 1_555
C2 N2 1_555 1_555
N1 N2 1_555 1_555
N3 C2 1_555 1_555
H1 N3 1_555 1_555
H2 N3 1_555 1_555
S1 C1 1_555 1_555
S2 C1 1_555 1_555
Cd1D N1 1_555 1_555
Cd1D_2 N1A 1_555 1_555
C1A N1A 1_555 1_555
C2A N2A 1_555 1_555
N1A N2A 1_555 1_555
N1D Cd1 1_555 1_555
N1E Cd1 1_555 1_555
N3A C2A 1_555 1_555
H1A N3A 1_555 1_555
H2A N3A 1_555 1_555
S1A Cd1 1_555 1_555
S2A C1A 1_555 1_555
C2 S2 1_555 1_555
C1A S1A 1_555 1_555
C2A S2A 1_555 1_555

#END
