
#######################################################################
#
#                 Cambridge Crystallographic Data Centre
#                                CCDC 
#
#######################################################################
#
# If this CIF has been generated from an entry in the Cambridge 
# Structural Database, then it will include bibliographic, chemical, 
# crystal, experimental, refinement or atomic coordinate data resulting 
# from the CCDC's data processing and validation procedures.
#
#######################################################################

data_BOVREK
_symmetry_cell_setting           monoclinic
_symmetry_space_group_name_H-M   'P 21/c'
_symmetry_Int_Tables_number      14
_space_group_name_Hall           '-P 2ybc'
loop_
_symmetry_equiv_pos_site_id
_symmetry_equiv_pos_as_xyz
1 x,y,z
2 -x,1/2+y,1/2-z
3 -x,-y,-z
4 x,1/2-y,1/2+z
_cell_length_a                   12.5374(16)
_cell_length_b                   9.6596(13)
_cell_length_c                   14.1635(17)
_cell_angle_alpha                90
_cell_angle_beta                 112.761(7)
_cell_angle_gamma                90
_cell_volume                     1581.71
loop_
_atom_site_label
_atom_site_type_symbol
_atom_site_fract_x
_atom_site_fract_y
_atom_site_fract_z
Cd1 Cd 0.56124(6) 0.12069(7) 0.41461(5)
C1 C 0.3497(10) -0.0468(14) 0.3258(10)
C2 C 0.2845(10) -0.2300(14) 0.1484(11)
C3 C 0.2272(12) -0.0995(16) 0.2847(13)
H1 H 0.2224 -0.1610 0.3380
C4 C 0.1928(11) -0.1894(18) 0.1877(12)
H2 H 0.1672 -0.2772 0.2066
C5 C 0.1415(13) -0.0051(18) 0.2677(13)
H3 H 0.1617 0.0762 0.3126
C6 C 0.0917(13) -0.1236(17) 0.1263(14)
H4 H 0.0743 -0.1363 0.0532
C7 C 0.0267(13) -0.0946(18) 0.2649(14)
H5 H 0.0478 -0.1647 0.3180
H6 H -0.0321 -0.0346 0.2715
C8 C -0.0141(13) -0.1606(19) 0.1553(13)
H7 H -0.0851 -0.1187 0.1084
H8 H -0.0246 -0.2599 0.1573
C9 C 0.7916(10) -0.0684(14) 0.4431(9)
H9 H 0.8443 -0.0022 0.4815
C10 C 0.8193(11) -0.1875(15) 0.4113(10)
H10 H 0.8935 -0.2187 0.4231
C11 C 0.6339(10) -0.1723(13) 0.3608(9)
H11 H 0.5560 -0.1953 0.3299
C12 C 0.3507(10) 0.3209(13) 0.4170(9)
H12 H 0.3139 0.2518 0.4388
C13 C 0.3119(11) 0.4481(13) 0.3898(10)
H13 H 0.2432 0.4845 0.3897
C14 C 0.4742(10) 0.4295(13) 0.3745(9)
H14 H 0.5396 0.4509 0.3616
N1 N 0.4556(8) 0.3092(9) 0.4073(6)
N2 N 0.3900(9) 0.5160(10) 0.3620(8)
H15 H 0.3849 0.5999 0.3404
N3 N 0.6737(7) -0.0577(9) 0.4109(6)
N4 N 0.7219(10) -0.2529(10) 0.3601(8)
H16 H 0.7153 -0.3326 0.3313
O1 O 0.1232(10) 0.0205(13) 0.1600(10)
O2 O 0.3853(6) 0.0273(8) 0.2739(6)
O3 O 0.4150(8) -0.0683(11) 0.4176(6)
O4 O 0.2664(7) -0.2321(9) 0.0572(7)
O5 O 0.3769(6) -0.2772(8) 0.2164(5)
Cd1A Cd 0.43876(6) -0.37931(7) 0.08539(5)
Cd1B Cd 0.43876(6) -0.12069(7) 0.58539(5)
O3B O 0.5850(8) 0.0683(11) 0.5824(6)
O4A O 0.7336(7) 0.2679(9) 0.4428(7)
O5A O 0.6231(6) 0.2228(8) 0.2836(5)
loop_
_geom_bond_atom_site_label_1
_geom_bond_atom_site_label_2
_geom_bond_site_symmetry_1
_geom_bond_site_symmetry_2
Cd1 N1 1_555 1_555
C1 C3 1_555 1_555
C2 C4 1_555 1_555
C3 H1 1_555 1_555
C4 C3 1_555 1_555
H2 C4 1_555 1_555
C5 C3 1_555 1_555
H3 C5 1_555 1_555
C6 C4 1_555 1_555
H4 C6 1_555 1_555
C7 C5 1_555 1_555
H5 C7 1_555 1_555
H6 C7 1_555 1_555
C8 C6 1_555 1_555
H7 C8 1_555 1_555
H8 C8 1_555 1_555
C9 H9 1_555 1_555
C10 C9 1_555 1_555
H10 C10 1_555 1_555
C11 H11 1_555 1_555
C12 H12 1_555 1_555
C13 C12 1_555 1_555
H13 C13 1_555 1_555
C14 H14 1_555 1_555
N1 C12 1_555 1_555
N2 C13 1_555 1_555
H15 N2 1_555 1_555
N3 Cd1 1_555 1_555
N4 C10 1_555 1_555
H16 N4 1_555 1_555
O1 C5 1_555 1_555
O2 Cd1 1_555 1_555
O3 Cd1 1_555 1_555
O4 C2 1_555 1_555
O5 C2 1_555 1_555
Cd1A O4 1_555 1_555
Cd1B O3 1_555 1_555
O3B Cd1 1_555 1_555
O4A Cd1 1_555 1_555
O5A Cd1 1_555 1_555
C1 O2 1_555 1_555
C1 O3 1_555 1_555
C6 O1 1_555 1_555
C7 C8 1_555 1_555
C9 N3 1_555 1_555
C11 N3 1_555 1_555
C11 N4 1_555 1_555
C14 N1 1_555 1_555
C14 N2 1_555 1_555
O5 Cd1A 1_555 1_555
Cd1B O3B 1_555 1_555

#END
