
#######################################################################
#
#                 Cambridge Crystallographic Data Centre
#                                CCDC 
#
#######################################################################
#
# If this CIF has been generated from an entry in the Cambridge 
# Structural Database, then it will include bibliographic, chemical, 
# crystal, experimental, refinement or atomic coordinate data resulting 
# from the CCDC's data processing and validation procedures.
#
#######################################################################

data_BOWFOK
_symmetry_cell_setting           monoclinic
_symmetry_space_group_name_H-M   'P 21/c'
_symmetry_Int_Tables_number      14
_space_group_name_Hall           '-P 2ybc'
loop_
_symmetry_equiv_pos_site_id
_symmetry_equiv_pos_as_xyz
1 x,y,z
2 -x,1/2+y,1/2-z
3 -x,-y,-z
4 x,1/2-y,1/2+z
_cell_length_a                   9.385(2)
_cell_length_b                   16.725(4)
_cell_length_c                   14.749(4)
_cell_angle_alpha                90
_cell_angle_beta                 97.937(3)
_cell_angle_gamma                90
_cell_volume                     2292.89
loop_
_atom_site_label
_atom_site_type_symbol
_atom_site_fract_x
_atom_site_fract_y
_atom_site_fract_z
Zn1 Zn 0.445227(16) 0.167374(9) 0.823642(10)
O1 O 0.53190(10) 0.14486(6) 0.71616(7)
O2 O 0.72152(13) 0.08051(7) 0.79150(7)
O3 O 0.55368(10) 0.26980(6) 0.42081(6)
O4 O 0.69288(11) 0.21055(6) 0.32819(6)
O5 O 1.07767(10) 0.08166(6) 0.56628(7)
N1 N 0.37206(12) 0.07164(7) 0.88482(8)
N2 N 0.29493(12) -0.04881(7) 0.91200(8)
N3 N -0.11113(13) -0.17318(7) 0.75856(9)
N4 N -0.25999(12) -0.27210(7) 0.71614(8)
C1 C 0.66061(15) 0.11631(8) 0.72398(10)
C2 C 0.73450(14) 0.12894(8) 0.64070(9)
C3 C 0.66345(14) 0.16872(7) 0.56422(10)
H1 H 0.5713 0.1887 0.5654
C4 C 0.72944(14) 0.17848(7) 0.48691(9)
C5 C 0.65536(14) 0.22202(8) 0.40408(9)
C6 C 0.86791(14) 0.14829(8) 0.48432(9)
H2 H 0.9111 0.1532 0.4315
C7 C 0.94032(14) 0.11089(8) 0.56135(10)
C8 C 0.87363(15) 0.10101(8) 0.63909(9)
H3 H 0.9223 0.0756 0.6903
C9 C 1.14994(15) 0.09494(9) 0.48823(10)
H4 H 1.1550 0.1518 0.4761
H5 H 1.0972 0.0694 0.4348
C10 C 1.29948(15) 0.06054(9) 0.50725(10)
H6 H 1.2941 0.0039 0.5204
H7 H 1.3522 0.0866 0.5603
C11 C 1.37767(15) 0.07300(10) 0.42436(10)
H8 H 1.3253 0.0471 0.3720
H9 H 1.4726 0.0506 0.4366
H10 H 1.3844 0.1292 0.4123
C12 C 0.35882(15) 0.06531(9) 0.97666(10)
H11 H 0.3794 0.1058 1.0197
C13 C 0.31166(15) -0.00832(9) 0.99460(10)
H12 H 0.2940 -0.0279 1.0510
C14 C 0.33183(14) 0.00144(8) 0.84714(9)
C15 C 0.32465(17) -0.01608(9) 0.74770(10)
H13 H 0.2363 0.0045 0.7156
H14 H 0.3286 -0.0728 0.7387
H15 H 0.4045 0.0088 0.7246
C16 C 0.24834(15) -0.13247(9) 0.90007(11)
H16 H 0.3207 -0.1669 0.9333
H17 H 0.2401 -0.1464 0.8357
C17 C 0.10444(16) -0.14717(10) 0.93409(11)
H18 H 0.1181 -0.1424 1.0003
H19 H 0.0746 -0.2017 0.9191
C18 C -0.01655(16) -0.09091(10) 0.89504(12)
H20 H -0.1012 -0.1032 0.9235
H21 H 0.0119 -0.0366 0.9119
C19 C -0.05719(16) -0.09453(9) 0.79222(12)
H22 H -0.1306 -0.0547 0.7739
H23 H 0.0265 -0.0810 0.7634
C20 C -0.03334(16) -0.23019(9) 0.71901(10)
H24 H 0.0635 -0.2277 0.7119
C21 C -0.12585(15) -0.29036(9) 0.69271(10)
H25 H -0.1030 -0.3369 0.6634
C22 C -0.24710(15) -0.20102(9) 0.75626(10)
C23 C -0.36480(17) -0.15990(10) 0.79565(12)
H26 H -0.4545 -0.1693 0.7574
H27 H -0.3459 -0.1035 0.7991
H28 H -0.3700 -0.1803 0.8559
Zn1A Zn -0.445227(16) -0.332626(9) 0.676358(10)
Zn1C Zn 0.445227(16) 0.332626(9) 0.323642(10)
O3C O 0.55368(10) 0.23020(6) 0.92081(6)
N4A N 0.25999(12) 0.22790(7) 0.78386(8)
loop_
_geom_bond_atom_site_label_1
_geom_bond_atom_site_label_2
_geom_bond_site_symmetry_1
_geom_bond_site_symmetry_2
Zn1 O1 1_555 1_555
O1 C1 1_555 1_555
O2 C1 1_555 1_555
O3 C5 1_555 1_555
O4 C5 1_555 1_555
O5 C7 1_555 1_555
N1 Zn1 1_555 1_555
N2 C13 1_555 1_555
N3 C19 1_555 1_555
N4 C21 1_555 1_555
C1 C2 1_555 1_555
C2 C3 1_555 1_555
C3 H1 1_555 1_555
C4 C3 1_555 1_555
C5 C4 1_555 1_555
C6 C4 1_555 1_555
H2 C6 1_555 1_555
C7 C6 1_555 1_555
C8 C2 1_555 1_555
H3 C8 1_555 1_555
C9 O5 1_555 1_555
H4 C9 1_555 1_555
H5 C9 1_555 1_555
C10 C9 1_555 1_555
H6 C10 1_555 1_555
H7 C10 1_555 1_555
C11 C10 1_555 1_555
H8 C11 1_555 1_555
H9 C11 1_555 1_555
H10 C11 1_555 1_555
C12 N1 1_555 1_555
H11 C12 1_555 1_555
C13 C12 1_555 1_555
H12 C13 1_555 1_555
C14 N1 1_555 1_555
C15 C14 1_555 1_555
H13 C15 1_555 1_555
H14 C15 1_555 1_555
H15 C15 1_555 1_555
C16 N2 1_555 1_555
H16 C16 1_555 1_555
H17 C16 1_555 1_555
C17 C16 1_555 1_555
H18 C17 1_555 1_555
H19 C17 1_555 1_555
C18 C17 1_555 1_555
H20 C18 1_555 1_555
H21 C18 1_555 1_555
C19 C18 1_555 1_555
H22 C19 1_555 1_555
H23 C19 1_555 1_555
C20 N3 1_555 1_555
H24 C20 1_555 1_555
C21 C20 1_555 1_555
H25 C21 1_555 1_555
C22 N3 1_555 1_555
C23 C22 1_555 1_555
H26 C23 1_555 1_555
H27 C23 1_555 1_555
H28 C23 1_555 1_555
Zn1A N4 1_555 1_555
Zn1C O3 1_555 1_555
O3C Zn1 1_555 1_555
N4A Zn1 1_555 1_555
N2 C14 1_555 1_555
N4 C22 1_555 1_555
C7 C8 1_555 1_555

#END
