
#######################################################################
#
#                 Cambridge Crystallographic Data Centre
#                                CCDC 
#
#######################################################################
#
# If this CIF has been generated from an entry in the Cambridge 
# Structural Database, then it will include bibliographic, chemical, 
# crystal, experimental, refinement or atomic coordinate data resulting 
# from the CCDC's data processing and validation procedures.
#
#######################################################################

data_BOWFEA
_symmetry_cell_setting           triclinic
_symmetry_space_group_name_H-M   'P -1'
_symmetry_Int_Tables_number      2
_space_group_name_Hall           '-P 1'
loop_
_symmetry_equiv_pos_site_id
_symmetry_equiv_pos_as_xyz
1 x,y,z
2 -x,-y,-z
_cell_length_a                   8.745(7)
_cell_length_b                   9.586(7)
_cell_length_c                   11.067(8)
_cell_angle_alpha                109.630(7)
_cell_angle_beta                 98.883(2)
_cell_angle_gamma                110.217(6)
_cell_volume                     780.638
loop_
_atom_site_label
_atom_site_type_symbol
_atom_site_fract_x
_atom_site_fract_y
_atom_site_fract_z
Zn1 Zn 0.11498(4) 0.04123(3) 0.68856(3)
O1 O 0.0132(2) 0.1960(2) 0.68964(17)
O2 O -0.1694(2) 0.00668(19) 0.48962(17)
O3 O 0.1013(4) 0.7811(3) 0.8109(3)
O4 O -0.0407(2) 0.8260(2) 0.6554(2)
O5 O -0.5073(3) 0.2908(3) 0.3405(2)
N1 N 0.3415(3) 0.1682(2) 0.8293(2)
N2 N 0.6039(3) 0.3521(3) 0.9453(2)
C1 C -0.1029(3) 0.1503(3) 0.5818(2)
C2 C -0.1629(3) 0.2732(3) 0.5655(2)
C3 C -0.3125(3) 0.2186(3) 0.4616(2)
H1 H -0.3766 0.1071 0.4080
C4 C -0.3642(3) 0.3310(3) 0.4391(3)
C5 C -0.2655(3) 0.4989(3) 0.5191(3)
H2 H -0.2987 0.5748 0.5027
C6 C -0.1192(3) 0.5519(3) 0.6223(2)
C7 C -0.0673(3) 0.4398(3) 0.6468(2)
H3 H 0.0306 0.4757 0.7169
C8 C -0.0086(4) 0.7339(3) 0.7056(3)
C9 C -0.6207(4) 0.1214(4) 0.2663(3)
H4 H -0.5627 0.0650 0.2173
H5 H -0.7189 0.1098 0.2043
H6 H -0.6568 0.0755 0.3274
C10 C 0.4716(4) 0.3714(4) 0.7369(3)
H7 H 0.3653 0.3081 0.6652
H8 H 0.5646 0.3715 0.7008
H9 H 0.4851 0.4818 0.7809
C11 C 0.4714(3) 0.2982(3) 0.8359(2)
C12 C 0.3956(3) 0.1398(3) 0.9387(3)
H10 H 0.3312 0.0560 0.9593
C13 C 0.5565(4) 0.2529(4) 1.0111(3)
H11 H 0.6227 0.2621 1.0901
C14 C 0.7737(3) 0.4888(3) 0.9887(3)
H12 H 0.7997 0.5626 1.0818
H13 H 0.7722 0.5495 0.9342
C15 C 0.9123(3) 0.4283(3) 0.9756(3)
H14 H 0.8884 0.3570 0.8821
H15 H 0.9122 0.3653 1.0283
N1A N 1.6585(3) 0.8318(2) 1.1707(2)
N2A N 1.3961(3) 0.6479(3) 1.0547(2)
C10A C 1.5284(4) 0.6286(4) 1.2631(3)
H7A H 1.6347 0.6919 1.3348
H8A H 1.4354 0.6285 1.2992
H9A H 1.5149 0.5182 1.2191
C11A C 1.5286(3) 0.7018(3) 1.1641(2)
C12A C 1.6044(3) 0.8602(3) 1.0613(3)
H10A H 1.6688 0.9440 1.0407
C13A C 1.4435(4) 0.7471(4) 0.9889(3)
H11A H 1.3773 0.7379 0.9099
C14A C 1.2263(3) 0.5112(3) 1.0113(3)
H12A H 1.2003 0.4374 0.9182
H13A H 1.2278 0.4505 1.0658
C15A C 1.0877(3) 0.5717(3) 1.0244(3)
H14A H 1.1116 0.6430 1.1179
H15A H 1.0878 0.6347 0.9717
Zn1A Zn -0.11498(4) -0.04123(3) 0.31144(3)
O1A O -0.0132(2) -0.1960(2) 0.31036(17)
O2A O 0.1694(2) -0.00668(19) 0.51038(17)
O3A O -0.1013(4) -0.7811(3) 0.1891(3)
O4A O 0.0407(2) -0.8260(2) 0.3446(2)
O5A O 0.5073(3) -0.2908(3) 0.6595(2)
C1A C 0.1029(3) -0.1503(3) 0.4182(2)
C2A C 0.1629(3) -0.2732(3) 0.4345(2)
C3A C 0.3125(3) -0.2186(3) 0.5384(2)
H1A H 0.3766 -0.1071 0.5920
C4A C 0.3642(3) -0.3310(3) 0.5609(3)
C5A C 0.2655(3) -0.4989(3) 0.4809(3)
H2A H 0.2987 -0.5748 0.4973
C6A C 0.1192(3) -0.5519(3) 0.3777(2)
C7A C 0.0673(3) -0.4398(3) 0.3532(2)
H3A H -0.0306 -0.4757 0.2831
C8A C 0.0086(4) -0.7339(3) 0.2944(3)
C9A C 0.6207(4) -0.1214(4) 0.7337(3)
H4A H 0.5627 -0.0650 0.7827
H5A H 0.7189 -0.1098 0.7957
H6A H 0.6568 -0.0755 0.6726
Zn1_2 Zn 0.11498(4) 1.04123(3) 0.68856(3)
Zn1A_2 Zn -0.11498(4) -1.04123(3) 0.31144(3)
Zn1A_3 Zn 1.88502(4) 0.95877(3) 1.31144(3)
O4_2 O -0.0407(2) -0.1740(2) 0.6554(2)
O4A_2 O 0.0407(2) 0.1740(2) 0.3446(2)
N1A_2 N -0.3415(3) -0.1682(2) 0.1707(2)
O6 O -1.0257(11) -0.0832(12) 0.0426(10)
loop_
_geom_bond_atom_site_label_1
_geom_bond_atom_site_label_2
_geom_bond_site_symmetry_1
_geom_bond_site_symmetry_2
Zn1 O1 1_555 1_555
O1 C1 1_555 1_555
O2 C1 1_555 1_555
O3 C8 1_555 1_555
O4 C8 1_555 1_555
O5 C4 1_555 1_555
N1 Zn1 1_555 1_555
N2 C11 1_555 1_555
C1 C2 1_555 1_555
C2 C3 1_555 1_555
C3 H1 1_555 1_555
C4 C3 1_555 1_555
C5 C4 1_555 1_555
H2 C5 1_555 1_555
C6 C5 1_555 1_555
C7 C2 1_555 1_555
H3 C7 1_555 1_555
C8 C6 1_555 1_555
C9 O5 1_555 1_555
H4 C9 1_555 1_555
H5 C9 1_555 1_555
H6 C9 1_555 1_555
C10 H7 1_555 1_555
H8 C10 1_555 1_555
H9 C10 1_555 1_555
C11 N1 1_555 1_555
C12 N1 1_555 1_555
H10 C12 1_555 1_555
C13 N2 1_555 1_555
H11 C13 1_555 1_555
C14 N2 1_555 1_555
H12 C14 1_555 1_555
H13 C14 1_555 1_555
C15 C14 1_555 1_555
H14 C15 1_555 1_555
H15 C15 1_555 1_555
N1A C11A 1_555 1_555
N2A C11A 1_555 1_555
C10A H7A 1_555 1_555
H8A C10A 1_555 1_555
H9A C10A 1_555 1_555
C11A C10A 1_555 1_555
C12A N1A 1_555 1_555
H10A C12A 1_555 1_555
C13A N2A 1_555 1_555
H11A C13A 1_555 1_555
C14A N2A 1_555 1_555
H12A C14A 1_555 1_555
H13A C14A 1_555 1_555
C15A C15 1_555 1_555
H14A C15A 1_555 1_555
H15A C15A 1_555 1_555
Zn1A O2 1_555 1_555
O1A Zn1A 1_555 1_555
O2A Zn1 1_555 1_555
O3A C8A 1_555 1_555
O4A C8A 1_555 1_555
O5A C4A 1_555 1_555
C1A O1A 1_555 1_555
C2A C1A 1_555 1_555
C3A C2A 1_555 1_555
H1A C3A 1_555 1_555
C4A C3A 1_555 1_555
C5A C4A 1_555 1_555
H2A C5A 1_555 1_555
C6A C5A 1_555 1_555
C7A C2A 1_555 1_555
H3A C7A 1_555 1_555
C8A C6A 1_555 1_555
C9A O5A 1_555 1_555
H4A C9A 1_555 1_555
H5A C9A 1_555 1_555
H6A C9A 1_555 1_555
Zn1_2 O4 1_555 1_555
Zn1A_2 O4A 1_555 1_555
Zn1A_3 N1A 1_555 1_555
O4_2 Zn1 1_555 1_555
O4A_2 Zn1A 1_555 1_555
N1A_2 Zn1A 1_555 1_555
C6 C7 1_555 1_555
C10 C11 1_555 1_555
C12 C13 1_555 1_555
C12A C13A 1_555 1_555
C14A C15A 1_555 1_555
O2A C1A 1_555 1_555
C6A C7A 1_555 1_555

#END
