
#######################################################################
#
#                 Cambridge Crystallographic Data Centre
#                                CCDC 
#
#######################################################################
#
# If this CIF has been generated from an entry in the Cambridge 
# Structural Database, then it will include bibliographic, chemical, 
# crystal, experimental, refinement or atomic coordinate data resulting 
# from the CCDC's data processing and validation procedures.
#
#######################################################################

data_BOWGAX
_symmetry_cell_setting           monoclinic
_symmetry_space_group_name_H-M   'P 21/n'
_symmetry_Int_Tables_number      14
_space_group_name_Hall           '-P 2yn'
loop_
_symmetry_equiv_pos_site_id
_symmetry_equiv_pos_as_xyz
1 x,y,z
2 1/2-x,1/2+y,1/2-z
3 -x,-y,-z
4 1/2+x,1/2-y,1/2+z
_cell_length_a                   8.4039(9)
_cell_length_b                   16.8291(17)
_cell_length_c                   17.2371(16)
_cell_angle_alpha                90
_cell_angle_beta                 98.582(9)
_cell_angle_gamma                90
_cell_volume                     2410.55
loop_
_atom_site_label
_atom_site_type_symbol
_atom_site_fract_x
_atom_site_fract_y
_atom_site_fract_z
Zn1 Zn 0.87285(4) 0.18274(2) 0.774936(17)
O1 O 0.9501(2) 0.25072(14) 0.69498(12)
O2 O 0.7003(3) 0.23185(15) 0.63728(12)
O3 O 0.5402(2) 0.32578(14) 0.36644(12)
O4 O 0.7134(3) 0.38934(16) 0.30215(12)
O5 O 1.2143(3) 0.41306(15) 0.51222(13)
N1 N 0.7042(3) 0.23914(16) 0.82706(14)
N2 N 0.4766(3) 0.29391(17) 0.84647(16)
N3 N -0.1280(3) 0.4778(2) 0.79731(17)
N4 N -0.2948(3) 0.57412(16) 0.75770(15)
C1 C 0.8368(4) 0.25956(19) 0.63712(16)
C2 C 0.8753(4) 0.30627(18) 0.56785(16)
C3 C 1.0252(4) 0.34061(19) 0.56935(16)
H1 H 1.1024 0.3357 0.6137
C4 C 1.0607(3) 0.38280(19) 0.50398(17)
C5 C 1.2584(4) 0.4573(2) 0.4476(2)
H2 H 1.2412 0.4252 0.4010
H3 H 1.3699 0.4719 0.4588
H4 H 1.1936 0.5044 0.4396
C6 C 0.9472(3) 0.39019(19) 0.43794(16)
H5 H 0.9712 0.4183 0.3947
C7 C 0.7963(3) 0.35541(18) 0.43627(16)
C8 C 0.6760(4) 0.35852(18) 0.36197(16)
C9 C 0.7590(4) 0.31427(18) 0.50076(16)
H6 H 0.6574 0.2920 0.4997
C10 C 0.5516(4) 0.2516(2) 0.79753(19)
H7 H 0.5030 0.2332 0.7488
C11 C 0.5878(5) 0.3103(2) 0.9118(2)
H8 H 0.5704 0.3391 0.9558
C12 C 0.7284(4) 0.2757(2) 0.89903(18)
H9 H 0.8247 0.2767 0.9334
C13 C 0.3093(4) 0.3224(2) 0.8299(2)
H10 H 0.2616 0.3213 0.8777
H11 H 0.2474 0.2872 0.7922
C14 C 0.3023(4) 0.4050(3) 0.7979(3)
H12 H 0.3648 0.4071 0.7549
H13 H 0.3525 0.4407 0.8386
C15 C 0.1334(4) 0.4347(2) 0.7686(2)
H14 H 0.1411 0.4873 0.7465
H15 H 0.0850 0.4000 0.7267
C16 C 0.0248(5) 0.4389(3) 0.8287(2)
H16 H 0.0033 0.3856 0.8460
H17 H 0.0770 0.4683 0.8739
C17 C -0.1527(4) 0.5559(2) 0.79624(19)
H18 H -0.0787 0.5929 0.8198
C18 C -0.2628(4) 0.4435(2) 0.7568(2)
H19 H -0.2802 0.3895 0.7473
C19 C -0.3657(4) 0.5031(2) 0.7332(2)
H20 H -0.4681 0.4972 0.7048
Zn1A Zn -0.37285(4) 0.68274(2) 0.725064(17)
Zn1C Zn 0.37285(4) 0.31726(2) 0.274936(17)
O3C O 1.0402(2) 0.17422(14) 0.86644(12)
N4A N 0.7948(3) 0.07412(16) 0.74230(15)
O6 O 0.2452(6) 0.1336(2) 0.6437(2)
O7 O 0.6747(12) 0.1126(5) 0.5143(3)
O8 O 0.9676(12) 0.0619(4) 0.5446(4)
O9 O 0.3898(4) 0.2844(3) 0.6070(2)
O10 O 0.3673(14) 0.0480(7) 0.5137(7)
loop_
_geom_bond_atom_site_label_1
_geom_bond_atom_site_label_2
_geom_bond_site_symmetry_1
_geom_bond_site_symmetry_2
Zn1 O1 1_555 1_555
O1 C1 1_555 1_555
O2 C1 1_555 1_555
O3 C8 1_555 1_555
O4 C8 1_555 1_555
O5 C4 1_555 1_555
N1 Zn1 1_555 1_555
N2 C10 1_555 1_555
N3 C16 1_555 1_555
N4 C17 1_555 1_555
C1 C2 1_555 1_555
C2 C3 1_555 1_555
C3 H1 1_555 1_555
C4 C3 1_555 1_555
C5 O5 1_555 1_555
H2 C5 1_555 1_555
H3 C5 1_555 1_555
H4 C5 1_555 1_555
C6 C4 1_555 1_555
H5 C6 1_555 1_555
C7 C6 1_555 1_555
C8 C7 1_555 1_555
C9 C2 1_555 1_555
H6 C9 1_555 1_555
C10 N1 1_555 1_555
H7 C10 1_555 1_555
C11 N2 1_555 1_555
H8 C11 1_555 1_555
C12 N1 1_555 1_555
H9 C12 1_555 1_555
C13 N2 1_555 1_555
H10 C13 1_555 1_555
H11 C13 1_555 1_555
C14 C13 1_555 1_555
H12 C14 1_555 1_555
H13 C14 1_555 1_555
C15 C14 1_555 1_555
H14 C15 1_555 1_555
H15 C15 1_555 1_555
C16 C15 1_555 1_555
H16 C16 1_555 1_555
H17 C16 1_555 1_555
C17 N3 1_555 1_555
H18 C17 1_555 1_555
C18 N3 1_555 1_555
H19 C18 1_555 1_555
C19 N4 1_555 1_555
H20 C19 1_555 1_555
Zn1A N4 1_555 1_555
Zn1C O3 1_555 1_555
O3C Zn1 1_555 1_555
N4A Zn1 1_555 1_555
C7 C9 1_555 1_555
C11 C12 1_555 1_555
C18 C19 1_555 1_555

#END
