
#######################################################################
#
#                 Cambridge Crystallographic Data Centre
#                                CCDC 
#
#######################################################################
#
# If this CIF has been generated from an entry in the Cambridge 
# Structural Database, then it will include bibliographic, chemical, 
# crystal, experimental, refinement or atomic coordinate data resulting 
# from the CCDC's data processing and validation procedures.
#
#######################################################################

data_BOWLOQ
_symmetry_cell_setting           monoclinic
_symmetry_space_group_name_H-M   'C 2/c'
_symmetry_Int_Tables_number      15
_space_group_name_Hall           '-C 2yn'
loop_
_symmetry_equiv_pos_site_id
_symmetry_equiv_pos_as_xyz
1 x,y,z
2 -x,y,1/2-z
3 1/2+x,1/2+y,z
4 1/2-x,1/2+y,1/2-z
5 -x,-y,-z
6 x,-y,1/2+z
7 1/2-x,1/2-y,-z
8 1/2+x,1/2-y,1/2+z
_cell_length_a                   22.085(3)
_cell_length_b                   11.3940(13)
_cell_length_c                   20.578(3)
_cell_angle_alpha                90
_cell_angle_beta                 111.243(11)
_cell_angle_gamma                90
_cell_volume                     4826.33
loop_
_atom_site_label
_atom_site_type_symbol
_atom_site_fract_x
_atom_site_fract_y
_atom_site_fract_z
Eu1 Eu 0.402407(11) 0.46086(2) 0.696769(11)
F1 F 0.4233(2) 0.0763(3) 0.8054(2)
F2 F 0.4221(2) -0.1549(3) 0.8034(2)
F3 F 0.4991(2) 0.6877(4) 0.58023(16)
F4 F 0.54249(18) 0.2885(3) 0.55832(16)
O1 O 0.44545(17) 0.2674(4) 0.72713(19)
O2 O 0.44544(19) -0.3452(4) 0.7233(2)
O3 O 0.50435(16) 0.4630(4) 0.68012(14)
O4 O 0.60474(17) 0.4721(5) 0.68493(17)
O5 O 0.30853(19) 0.5822(4) 0.6714(2)
O6 O 0.3117(2) 0.3372(4) 0.6867(2)
O7 O 0.3784(3) 0.3479(5) 0.5861(2)
O8 O 0.3548(3) 0.4222(5) 0.4830(2)
O9 O 0.3720(2) 0.5342(5) 0.57318(19)
N1 N 0.2261(2) 0.6978(5) 0.6089(2)
N2 N 0.2531(2) 0.1730(5) 0.6819(2)
N3 N 0.3681(2) 0.4349(5) 0.5457(2)
C1 C 0.5000 0.2185(7) 0.7500
C2 C 0.5000 0.0862(7) 0.7500
C3 C 0.4607(3) 0.0207(5) 0.7760(3)
C4 C 0.4607(3) -0.0993(6) 0.7760(3)
C5 C 0.5000 -0.1640(7) 0.7500
C6 C 0.5000 -0.2975(7) 0.7500
C7 C 0.5461(2) 0.4735(5) 0.6516(2)
C8 C 0.5216(2) 0.4876(5) 0.5730(2)
C9 C 0.4997(3) 0.5931(5) 0.5415(2)
C10 C 0.5217(3) 0.3933(5) 0.5305(2)
C11 C 0.2865(3) 0.6670(6) 0.6315(3)
H1 H 0.3151 0.7103 0.6171
C12 C 0.1791(3) 0.6376(8) 0.6303(4)
H2 H 0.1982 0.5676 0.6552
H3 H 0.1420 0.6173 0.5898
H4 H 0.1657 0.6880 0.6600
C13 C 0.2017(4) 0.7953(7) 0.5595(4)
H5 H 0.2374 0.8315 0.5509
H6 H 0.1809 0.8521 0.5788
H7 H 0.1710 0.7659 0.5165
C14 C 0.3051(3) 0.2283(6) 0.6827(3)
H8 H 0.3394 0.1837 0.6802
C15 C 0.2494(3) 0.0460(7) 0.6792(3)
H9 H 0.2893 0.0146 0.6778
H10 H 0.2139 0.0221 0.6383
H11 H 0.2427 0.0172 0.7199
C16 C 0.1969(3) 0.2362(7) 0.6828(4)
H12 H 0.2061 0.3187 0.6870
H13 H 0.1861 0.2104 0.7217
H14 H 0.1609 0.2214 0.6403
F1A F 0.5767(2) 0.0763(3) 0.6946(2)
F2A F 0.5779(2) -0.1549(3) 0.6966(2)
O1A O 0.55455(17) 0.2674(4) 0.77287(19)
O2A O 0.55456(19) -0.3452(4) 0.7767(2)
C3A C 0.5393(3) 0.0207(5) 0.7240(3)
C4A C 0.5393(3) -0.0993(6) 0.7240(3)
F3D F 0.5009(2) 0.3123(4) 0.41977(16)
F4D F 0.45751(18) 0.7115(3) 0.44168(16)
O3D O 0.49565(16) 0.5370(4) 0.31988(14)
O4D O 0.39526(17) 0.5279(5) 0.31507(17)
C7D C 0.4539(2) 0.5265(5) 0.3484(2)
C8D C 0.4784(2) 0.5124(5) 0.4270(2)
C9D C 0.5003(3) 0.4069(5) 0.4585(2)
C10D C 0.4783(3) 0.6067(5) 0.4695(2)
Eu1A Eu 0.597593(11) 0.46086(2) 0.803231(11)
O5A O 0.69147(19) 0.5822(4) 0.8286(2)
O6A O 0.6883(2) 0.3372(4) 0.8133(2)
O7A O 0.6216(3) 0.3479(5) 0.9139(2)
O8A O 0.6452(3) 0.4222(5) 1.0170(2)
O9A O 0.6280(2) 0.5342(5) 0.92682(19)
N1A N 0.7739(2) 0.6978(5) 0.8911(2)
N2A N 0.7469(2) 0.1730(5) 0.8181(2)
N3A N 0.6319(2) 0.4349(5) 0.9543(2)
C11A C 0.7135(3) 0.6670(6) 0.8685(3)
H1A H 0.6849 0.7103 0.8829
C12A C 0.8209(3) 0.6376(8) 0.8697(4)
H2A H 0.8018 0.5676 0.8448
H3A H 0.8580 0.6173 0.9102
H4A H 0.8343 0.6880 0.8400
C13A C 0.7983(4) 0.7953(7) 0.9405(4)
H5A H 0.7626 0.8315 0.9491
H6A H 0.8191 0.8521 0.9212
H7A H 0.8290 0.7659 0.9835
C14A C 0.6949(3) 0.2283(6) 0.8173(3)
H8A H 0.6606 0.1837 0.8198
C15A C 0.7506(3) 0.0460(7) 0.8208(3)
H9A H 0.7107 0.0146 0.8222
H10A H 0.7861 0.0221 0.8617
H11A H 0.7573 0.0172 0.7801
C16A C 0.8031(3) 0.2362(7) 0.8172(4)
H12A H 0.7939 0.3187 0.8130
H13A H 0.8139 0.2104 0.7783
H14A H 0.8391 0.2214 0.8597
Eu1_2 Eu 0.402407(11) -0.53914(2) 0.696769(11)
Eu1A_2 Eu 0.597593(11) -0.53914(2) 0.803231(11)
Eu1D Eu 0.597593(11) 0.53914(2) 0.303231(11)
Eu1E Eu 0.402407(11) 0.53914(2) 0.196769(11)
O2_2 O 0.44544(19) 0.6548(4) 0.7233(2)
O2A_2 O 0.55456(19) 0.6548(4) 0.7767(2)
O3A O 0.49565(16) 0.4630(4) 0.81988(14)
O4A O 0.39526(17) 0.4721(5) 0.81507(17)
O10 O 0.3495(4) -0.0818(9) 0.5955(4)
N4 N 0.3702(3) 0.0533(8) 0.5254(4)
C17 C 0.3860(5) -0.0336(13) 0.5718(5)
H15 H 0.4288 -0.0597 0.5874
C18 C 0.4185(6) 0.1083(13) 0.5047(8)
H16 H 0.4280 0.1848 0.5255
H17 H 0.4026 0.1155 0.4549
H18 H 0.4573 0.0615 0.5200
C19 C 0.3054(5) 0.0953(10) 0.4972(6)
H19 H 0.2865 0.0743 0.4488
H20 H 0.3053 0.1792 0.5017
H21 H 0.2804 0.0610 0.5220
loop_
_geom_bond_atom_site_label_1
_geom_bond_atom_site_label_2
_geom_bond_site_symmetry_1
_geom_bond_site_symmetry_2
Eu1 O1 1_555 1_555
F1 C3 1_555 1_555
F2 C4 1_555 1_555
F3 C9 1_555 1_555
F4 C10 1_555 1_555
O1 C1 1_555 1_555
O2 C6 1_555 1_555
O3 Eu1 1_555 1_555
O4 C7 1_555 1_555
O5 Eu1 1_555 1_555
O6 Eu1 1_555 1_555
O7 Eu1 1_555 1_555
O8 N3 1_555 1_555
O9 Eu1 1_555 1_555
N1 C11 1_555 1_555
N2 C14 1_555 1_555
N3 O7 1_555 1_555
C1 C2 1_555 1_555
C2 C3 1_555 1_555
C3 C4 1_555 1_555
C4 C5 1_555 1_555
C5 C6 1_555 1_555
C6 O2A 1_555 1_555
C7 O3 1_555 1_555
C8 C7 1_555 1_555
C9 C8 1_555 1_555
C10 C8 1_555 1_555
C11 O5 1_555 1_555
H1 C11 1_555 1_555
C12 N1 1_555 1_555
H2 C12 1_555 1_555
H3 C12 1_555 1_555
H4 C12 1_555 1_555
C13 N1 1_555 1_555
H5 C13 1_555 1_555
H6 C13 1_555 1_555
H7 C13 1_555 1_555
C14 O6 1_555 1_555
H8 C14 1_555 1_555
C15 N2 1_555 1_555
H9 C15 1_555 1_555
H10 C15 1_555 1_555
H11 C15 1_555 1_555
C16 N2 1_555 1_555
H12 C16 1_555 1_555
H13 C16 1_555 1_555
H14 C16 1_555 1_555
O10 C17 1_555 1_555
N4 C17 1_555 1_555
C17 H15 1_555 1_555
C18 N4 1_555 1_555
H16 C18 1_555 1_555
H17 C18 1_555 1_555
H18 C18 1_555 1_555
C19 N4 1_555 1_555
H19 C19 1_555 1_555
H20 C19 1_555 1_555
H21 C19 1_555 1_555
F1A C3A 1_555 1_555
F2A C4A 1_555 1_555
O1A C1 1_555 1_555
O2A Eu1A_2 1_555 1_555
C3A C2 1_555 1_555
C4A C5 1_555 1_555
F3D C9D 1_555 1_555
F4D C10D 1_555 1_555
O3D C7D 1_555 1_555
O4D C7D 1_555 1_555
C7D C8D 1_555 1_555
C8D C9D 1_555 1_555
C9D C10 1_555 1_555
C10D C9 1_555 1_555
Eu1A O3 1_555 1_555
O5A Eu1A 1_555 1_555
O6A Eu1A 1_555 1_555
O7A Eu1A 1_555 1_555
O8A N3A 1_555 1_555
O9A Eu1A 1_555 1_555
N1A C11A 1_555 1_555
N2A C14A 1_555 1_555
N3A O7A 1_555 1_555
C11A O5A 1_555 1_555
H1A C11A 1_555 1_555
C12A N1A 1_555 1_555
H2A C12A 1_555 1_555
H3A C12A 1_555 1_555
H4A C12A 1_555 1_555
C13A N1A 1_555 1_555
H5A C13A 1_555 1_555
H6A C13A 1_555 1_555
H7A C13A 1_555 1_555
C14A O6A 1_555 1_555
H8A C14A 1_555 1_555
C15A N2A 1_555 1_555
H9A C15A 1_555 1_555
H10A C15A 1_555 1_555
H11A C15A 1_555 1_555
C16A N2A 1_555 1_555
H12A C16A 1_555 1_555
H13A C16A 1_555 1_555
H14A C16A 1_555 1_555
Eu1_2 O2 1_555 1_555
Eu1D O3D 1_555 1_555
Eu1E O3D 1_555 1_555
O2_2 Eu1 1_555 1_555
O2A_2 Eu1A 1_555 1_555
O3A Eu1 1_555 1_555
O4A Eu1 1_555 1_555
O4 Eu1A 1_555 1_555
O9 N3 1_555 1_555
O1A Eu1A 1_555 1_555
C3A C4A 1_555 1_555
O4D Eu1E 1_555 1_555
C8D C10D 1_555 1_555
Eu1A O3A 1_555 1_555
O9A N3A 1_555 1_555

#END
