
#######################################################################
#
#                 Cambridge Crystallographic Data Centre
#                                CCDC 
#
#######################################################################
#
# If this CIF has been generated from an entry in the Cambridge 
# Structural Database, then it will include bibliographic, chemical, 
# crystal, experimental, refinement or atomic coordinate data resulting 
# from the CCDC's data processing and validation procedures.
#
#######################################################################

data_BOWLUW
_symmetry_cell_setting           monoclinic
_symmetry_space_group_name_H-M   'C 2/c'
_symmetry_Int_Tables_number      15
_space_group_name_Hall           '-C 2yn'
loop_
_symmetry_equiv_pos_site_id
_symmetry_equiv_pos_as_xyz
1 x,y,z
2 -x,y,1/2-z
3 1/2+x,1/2+y,z
4 1/2-x,1/2+y,1/2-z
5 -x,-y,-z
6 x,-y,1/2+z
7 1/2-x,1/2-y,-z
8 1/2+x,1/2-y,1/2+z
_cell_length_a                   22.118(4)
_cell_length_b                   11.3996(16)
_cell_length_c                   20.570(4)
_cell_angle_alpha                90
_cell_angle_beta                 111.147(17)
_cell_angle_gamma                90
_cell_volume                     4837.18
loop_
_atom_site_label
_atom_site_type_symbol
_atom_site_fract_x
_atom_site_fract_y
_atom_site_fract_z
Gd1 Gd 0.40307(3) 0.46276(5) 0.69740(3)
F1 F 0.4234(6) 0.0781(8) 0.8052(6)
F2 F 0.4219(5) -0.1530(8) 0.8036(6)
F3 F 0.4999(6) 0.6901(8) 0.5798(4)
F4 F 0.5426(5) 0.2892(8) 0.5598(4)
O1 O 0.4462(5) 0.2690(8) 0.7281(5)
O2 O 0.4451(5) -0.3426(8) 0.7227(5)
O3 O 0.5038(4) 0.4641(10) 0.6798(4)
O4 O 0.6040(5) 0.4739(12) 0.6838(4)
O5 O 0.3093(5) 0.5830(10) 0.6714(5)
O6 O 0.3126(5) 0.3392(10) 0.6885(6)
O7 O 0.3768(7) 0.3504(11) 0.5861(5)
O8 O 0.3538(7) 0.4254(12) 0.4839(5)
O9 O 0.3731(6) 0.5379(12) 0.5738(4)
N1 N 0.2265(6) 0.6981(12) 0.6093(6)
N2 N 0.2542(7) 0.1789(13) 0.6827(6)
N3 N 0.3672(6) 0.4384(13) 0.5471(5)
C1 C 0.5000 0.2229(17) 0.7500
C2 C 0.5000 0.0865(15) 0.7500
C3 C 0.4611(6) 0.0245(14) 0.7761(7)
C4 C 0.4608(7) -0.0980(12) 0.7760(7)
C5 C 0.5000 -0.1592(17) 0.7500
C6 C 0.5000 -0.2946(18) 0.7500
C7 C 0.5467(6) 0.4745(14) 0.6524(6)
C8 C 0.5209(6) 0.4886(11) 0.5726(5)
C9 C 0.4992(7) 0.5933(13) 0.5397(6)
C10 C 0.5209(6) 0.3943(12) 0.5308(6)
C11 C 0.2882(9) 0.6704(17) 0.6332(9)
H1 H 0.3172 0.7172 0.6215
C12 C 0.1811(9) 0.635(2) 0.6292(10)
H2 H 0.2030 0.5955 0.6726
H3 H 0.1597 0.5779 0.5940
H4 H 0.1495 0.6879 0.6345
C13 C 0.2021(11) 0.7933(18) 0.5604(11)
H5 H 0.2378 0.8363 0.5562
H6 H 0.1763 0.8447 0.5768
H7 H 0.1760 0.7622 0.5157
C14 C 0.3061(9) 0.2319(15) 0.6842(9)
H8 H 0.3403 0.1869 0.6819
C15 C 0.2498(8) 0.0500(15) 0.6791(8)
H9 H 0.2924 0.0174 0.6904
H10 H 0.2230 0.0266 0.6329
H11 H 0.2312 0.0221 0.7118
C16 C 0.1994(8) 0.2419(18) 0.6840(10)
H12 H 0.2016 0.3214 0.6696
H13 H 0.1988 0.2413 0.7304
H14 H 0.1606 0.2056 0.6528
F1A F 0.5766(6) 0.0781(8) 0.6948(6)
F2A F 0.5781(5) -0.1530(8) 0.6964(6)
O1A O 0.5538(5) 0.2690(8) 0.7719(5)
O2A O 0.5549(5) -0.3426(8) 0.7773(5)
C3A C 0.5389(6) 0.0245(14) 0.7239(7)
C4A C 0.5392(7) -0.0980(12) 0.7240(7)
F3D F 0.5001(6) 0.3099(8) 0.4202(4)
F4D F 0.4574(5) 0.7108(8) 0.4402(4)
O3D O 0.4962(4) 0.5359(10) 0.3202(4)
O4D O 0.3960(5) 0.5261(12) 0.3162(4)
C7D C 0.4533(6) 0.5255(14) 0.3476(6)
C8D C 0.4791(6) 0.5114(11) 0.4274(5)
C9D C 0.5008(7) 0.4067(13) 0.4603(6)
C10D C 0.4791(6) 0.6057(12) 0.4692(6)
Gd1A Gd 0.59693(3) 0.46276(5) 0.80260(3)
O5A O 0.6907(5) 0.5830(10) 0.8286(5)
O6A O 0.6874(5) 0.3392(10) 0.8115(6)
O7A O 0.6232(7) 0.3504(11) 0.9139(5)
O8A O 0.6462(7) 0.4254(12) 1.0161(5)
O9A O 0.6269(6) 0.5379(12) 0.9262(4)
N1A N 0.7735(6) 0.6981(12) 0.8907(6)
N2A N 0.7458(7) 0.1789(13) 0.8173(6)
N3A N 0.6328(6) 0.4384(13) 0.9529(5)
C11A C 0.7118(9) 0.6704(17) 0.8668(9)
H1A H 0.6828 0.7172 0.8785
C12A C 0.8189(9) 0.635(2) 0.8708(10)
H2A H 0.7970 0.5955 0.8274
H3A H 0.8403 0.5779 0.9060
H4A H 0.8505 0.6879 0.8655
C13A C 0.7979(11) 0.7933(18) 0.9396(11)
H5A H 0.7622 0.8363 0.9438
H6A H 0.8237 0.8447 0.9232
H7A H 0.8240 0.7622 0.9843
C14A C 0.6939(9) 0.2319(15) 0.8158(9)
H8A H 0.6597 0.1869 0.8181
C15A C 0.7502(8) 0.0500(15) 0.8209(8)
H9A H 0.7076 0.0174 0.8096
H10A H 0.7770 0.0266 0.8671
H11A H 0.7688 0.0221 0.7882
C16A C 0.8006(8) 0.2419(18) 0.8160(10)
H12A H 0.7984 0.3214 0.8304
H13A H 0.8012 0.2413 0.7696
H14A H 0.8394 0.2056 0.8472
Gd1_2 Gd 0.40307(3) -0.53724(5) 0.69740(3)
Gd1A_2 Gd 0.59693(3) -0.53724(5) 0.80260(3)
Gd1D Gd 0.59693(3) 0.53724(5) 0.30260(3)
Gd1E Gd 0.40307(3) 0.53724(5) 0.19740(3)
O2_2 O 0.4451(5) 0.6574(8) 0.7227(5)
O2A_2 O 0.5549(5) 0.6574(8) 0.7773(5)
O3A O 0.4962(4) 0.4641(10) 0.8202(4)
O4A O 0.3960(5) 0.4739(12) 0.8162(4)
O10 O 0.3478(11) -0.079(3) 0.5942(12)
N4 N 0.3708(9) 0.0497(19) 0.5255(9)
C17 C 0.3863(13) -0.031(3) 0.5717(12)
H15 H 0.4293 -0.0549 0.5896
C18 C 0.4176(16) 0.110(3) 0.5077(17)
H16 H 0.4139 0.1926 0.5146
H17 H 0.4110 0.0954 0.4597
H18 H 0.4600 0.0834 0.5365
C19 C 0.3050(13) 0.098(2) 0.4988(14)
H19 H 0.2887 0.0968 0.4488
H20 H 0.3058 0.1778 0.5145
H21 H 0.2773 0.0522 0.5156
loop_
_geom_bond_atom_site_label_1
_geom_bond_atom_site_label_2
_geom_bond_site_symmetry_1
_geom_bond_site_symmetry_2
Gd1 O1 1_555 1_555
F1 C3 1_555 1_555
F2 C4 1_555 1_555
F3 C9 1_555 1_555
F4 C10 1_555 1_555
O1 C1 1_555 1_555
O2 C6 1_555 1_555
O3 Gd1 1_555 1_555
O4 C7 1_555 1_555
O5 Gd1 1_555 1_555
O6 Gd1 1_555 1_555
O7 Gd1 1_555 1_555
O8 N3 1_555 1_555
O9 Gd1 1_555 1_555
N1 C11 1_555 1_555
N2 C14 1_555 1_555
N3 O7 1_555 1_555
C1 C2 1_555 1_555
C2 C3 1_555 1_555
C3 C4 1_555 1_555
C4 C5 1_555 1_555
C5 C6 1_555 1_555
C6 O2A 1_555 1_555
C7 O3 1_555 1_555
C8 C7 1_555 1_555
C9 C8 1_555 1_555
C10 C8 1_555 1_555
C11 O5 1_555 1_555
H1 C11 1_555 1_555
C12 N1 1_555 1_555
H2 C12 1_555 1_555
H3 C12 1_555 1_555
H4 C12 1_555 1_555
C13 N1 1_555 1_555
H5 C13 1_555 1_555
H6 C13 1_555 1_555
H7 C13 1_555 1_555
C14 O6 1_555 1_555
H8 C14 1_555 1_555
C15 N2 1_555 1_555
H9 C15 1_555 1_555
H10 C15 1_555 1_555
H11 C15 1_555 1_555
C16 N2 1_555 1_555
H12 C16 1_555 1_555
H13 C16 1_555 1_555
H14 C16 1_555 1_555
O10 C17 1_555 1_555
N4 C17 1_555 1_555
C17 H15 1_555 1_555
C18 N4 1_555 1_555
H16 C18 1_555 1_555
H17 C18 1_555 1_555
H18 C18 1_555 1_555
C19 N4 1_555 1_555
H19 C19 1_555 1_555
H20 C19 1_555 1_555
H21 C19 1_555 1_555
F1A C3A 1_555 1_555
F2A C4A 1_555 1_555
O1A C1 1_555 1_555
O2A Gd1A_2 1_555 1_555
C3A C2 1_555 1_555
C4A C5 1_555 1_555
F3D C9D 1_555 1_555
F4D C10D 1_555 1_555
O3D C7D 1_555 1_555
O4D C7D 1_555 1_555
C7D C8D 1_555 1_555
C8D C9D 1_555 1_555
C9D C10 1_555 1_555
C10D C9 1_555 1_555
Gd1A O3 1_555 1_555
O5A Gd1A 1_555 1_555
O6A Gd1A 1_555 1_555
O7A Gd1A 1_555 1_555
O8A N3A 1_555 1_555
O9A Gd1A 1_555 1_555
N1A C11A 1_555 1_555
N2A C14A 1_555 1_555
N3A O7A 1_555 1_555
C11A O5A 1_555 1_555
H1A C11A 1_555 1_555
C12A N1A 1_555 1_555
H2A C12A 1_555 1_555
H3A C12A 1_555 1_555
H4A C12A 1_555 1_555
C13A N1A 1_555 1_555
H5A C13A 1_555 1_555
H6A C13A 1_555 1_555
H7A C13A 1_555 1_555
C14A O6A 1_555 1_555
H8A C14A 1_555 1_555
C15A N2A 1_555 1_555
H9A C15A 1_555 1_555
H10A C15A 1_555 1_555
H11A C15A 1_555 1_555
C16A N2A 1_555 1_555
H12A C16A 1_555 1_555
H13A C16A 1_555 1_555
H14A C16A 1_555 1_555
Gd1_2 O2 1_555 1_555
Gd1D O3D 1_555 1_555
Gd1E O3D 1_555 1_555
O2_2 Gd1 1_555 1_555
O2A_2 Gd1A 1_555 1_555
O3A Gd1 1_555 1_555
O4A Gd1 1_555 1_555
O4 Gd1A 1_555 1_555
O9 N3 1_555 1_555
O1A Gd1A 1_555 1_555
C3A C4A 1_555 1_555
O4D Gd1E 1_555 1_555
C8D C10D 1_555 1_555
Gd1A O3A 1_555 1_555
O9A N3A 1_555 1_555

#END
