
#######################################################################
#
#                 Cambridge Crystallographic Data Centre
#                                CCDC 
#
#######################################################################
#
# If this CIF has been generated from an entry in the Cambridge 
# Structural Database, then it will include bibliographic, chemical, 
# crystal, experimental, refinement or atomic coordinate data resulting 
# from the CCDC's data processing and validation procedures.
#
#######################################################################

data_BOWMOR
_symmetry_cell_setting           orthorhombic
_symmetry_space_group_name_H-M   'P n a 21'
_symmetry_Int_Tables_number      33
_space_group_name_Hall           'P 2c -2n'
loop_
_symmetry_equiv_pos_site_id
_symmetry_equiv_pos_as_xyz
1 x,y,z
2 -x,-y,1/2+z
3 1/2-x,1/2+y,1/2+z
4 1/2+x,1/2-y,z
_cell_length_a                   21.818(4)
_cell_length_b                   4.8194(7)
_cell_length_c                   18.129(4)
_cell_angle_alpha                90
_cell_angle_beta                 90
_cell_angle_gamma                90
_cell_volume                     1906.26
loop_
_atom_site_label
_atom_site_type_symbol
_atom_site_fract_x
_atom_site_fract_y
_atom_site_fract_z
C1 C 0.4335(3) 0.5285(14) 0.3371(4)
C2 C 0.4893(3) 0.3877(14) 0.3700(5)
C3 C 0.5464(3) 0.4571(15) 0.3436(5)
H1 H 0.5509 0.5966 0.3086
C4 C 0.5973(3) 0.3142(17) 0.3703(5)
C5 C 0.5934(3) 0.1136(17) 0.4234(5)
H2 H 0.6278 0.0209 0.4409
C6 C 0.5354(4) 0.0571(16) 0.4494(5)
C7 C 0.4829(3) 0.1850(15) 0.4223(4)
H3 H 0.4443 0.1340 0.4394
C8 C 0.3210(3) 0.5297(14) 0.1600(4)
C9 C 0.2647(3) 0.6666(14) 0.1291(4)
C10 C 0.2073(3) 0.5801(15) 0.1541(5)
H4 H 0.2036 0.4359 0.1879
C11 C 0.1561(3) 0.7155(16) 0.1271(5)
C12 C 0.1580(4) 0.9197(16) 0.0745(5)
H5 H 0.1226 1.0047 0.0570
C13 C 0.2159(3) 0.9924(14) 0.0489(5)
C14 C 0.2692(3) 0.8713(15) 0.0766(4)
H6 H 0.3074 0.9285 0.0596
N1 N 0.6578(3) 0.3831(17) 0.3391(5)
N2 N 0.5283(4) -0.1583(16) 0.5080(5)
N3 N 0.2201(4) 1.2100(16) -0.0075(5)
N4 N 0.0948(3) 0.6303(17) 0.1559(5)
O1 O 0.4422(2) 0.7728(10) 0.3144(4)
O2 O 0.3842(2) 0.3976(10) 0.3368(3)
O3 O 0.6612(3) 0.5807(19) 0.3004(6)
O4 O 0.7011(3) 0.2370(17) 0.3575(6)
O5 O 0.4772(4) -0.2007(18) 0.5327(5)
O6 O 0.5744(3) -0.2802(16) 0.5283(4)
O7 O 0.3138(2) 0.2876(10) 0.1840(4)
O8 O 0.37029(18) 0.6674(10) 0.1619(3)
O9 O 0.2717(3) 1.2658(15) -0.0318(5)
O10 O 0.1736(3) 1.3281(16) -0.0260(4)
O11 O 0.0508(3) 0.7701(16) 0.1391(6)
O12 O 0.0922(3) 0.4234(16) 0.1936(5)
Cd1 Cd 0.37803(2) 1.03084(8) 0.24851(9)
O13 O 0.4580(3) 1.2560(12) 0.1959(4)
H7 H 0.463(4) 1.30(2) 0.152(2)
H8 H 0.486(3) 1.144(16) 0.190(5)
O14 O 0.2978(3) 0.8056(14) 0.3020(4)
H9 H 0.280(4) 0.947(12) 0.313(6)
H10 H 0.304(4) 0.695(19) 0.336(4)
O2_2 O 0.3842(2) 1.3976(10) 0.3368(3)
O7_2 O 0.3138(2) 1.2876(10) 0.1840(4)
Cd1_2 Cd 0.37803(2) 0.03084(8) 0.24851(9)
loop_
_geom_bond_atom_site_label_1
_geom_bond_atom_site_label_2
_geom_bond_site_symmetry_1
_geom_bond_site_symmetry_2
C1 C2 1_555 1_555
C2 C3 1_555 1_555
C3 H1 1_555 1_555
C4 C3 1_555 1_555
C5 C4 1_555 1_555
H2 C5 1_555 1_555
C6 C5 1_555 1_555
C7 C2 1_555 1_555
H3 C7 1_555 1_555
C8 C9 1_555 1_555
C9 C10 1_555 1_555
C10 H4 1_555 1_555
C11 C10 1_555 1_555
C12 C11 1_555 1_555
H5 C12 1_555 1_555
C13 C12 1_555 1_555
C14 C9 1_555 1_555
H6 C14 1_555 1_555
N1 C4 1_555 1_555
N2 C6 1_555 1_555
N3 C13 1_555 1_555
N4 C11 1_555 1_555
O1 C1 1_555 1_555
O2 C1 1_555 1_555
O3 N1 1_555 1_555
O4 N1 1_555 1_555
O5 N2 1_555 1_555
O6 N2 1_555 1_555
O7 C8 1_555 1_555
O8 C8 1_555 1_555
O9 N3 1_555 1_555
O10 N3 1_555 1_555
O11 N4 1_555 1_555
O12 N4 1_555 1_555
Cd1 O1 1_555 1_555
O13 Cd1 1_555 1_555
H7 O13 1_555 1_555
H8 O13 1_555 1_555
O14 Cd1 1_555 1_555
H9 O14 1_555 1_555
H10 O14 1_555 1_555
O2_2 Cd1 1_555 1_555
O7_2 Cd1 1_555 1_555
Cd1_2 O2 1_555 1_555
C6 C7 1_555 1_555
C13 C14 1_555 1_555
O7 Cd1_2 1_555 1_555
O8 Cd1 1_555 1_555

#END
