
#######################################################################
#
#                 Cambridge Crystallographic Data Centre
#                                CCDC 
#
#######################################################################
#
# If this CIF has been generated from an entry in the Cambridge 
# Structural Database, then it will include bibliographic, chemical, 
# crystal, experimental, refinement or atomic coordinate data resulting 
# from the CCDC's data processing and validation procedures.
#
#######################################################################

data_BOWMAD
_symmetry_cell_setting           monoclinic
_symmetry_space_group_name_H-M   'C 2/c'
_symmetry_Int_Tables_number      15
_space_group_name_Hall           '-C 2yn'
loop_
_symmetry_equiv_pos_site_id
_symmetry_equiv_pos_as_xyz
1 x,y,z
2 -x,y,1/2-z
3 1/2+x,1/2+y,z
4 1/2-x,1/2+y,1/2-z
5 -x,-y,-z
6 x,-y,1/2+z
7 1/2-x,1/2-y,-z
8 1/2+x,1/2-y,1/2+z
_cell_length_a                   22.157(3)
_cell_length_b                   11.3680(13)
_cell_length_c                   20.566(3)
_cell_angle_alpha                90
_cell_angle_beta                 111.047(11)
_cell_angle_gamma                90
_cell_volume                     4834.59
loop_
_atom_site_label
_atom_site_type_symbol
_atom_site_fract_x
_atom_site_fract_y
_atom_site_fract_z
Tb1 Tb 0.403706(14) 0.46488(3) 0.697996(15)
F1 F 0.4225(3) 0.0813(5) 0.8045(4)
F2 F 0.4217(3) -0.1514(5) 0.8028(4)
F3 F 0.5006(3) 0.6900(5) 0.5794(3)
F4 F 0.5417(3) 0.2881(5) 0.5605(3)
O1 O 0.4453(2) 0.2725(4) 0.7277(3)
O2 O 0.4461(3) -0.3424(4) 0.7233(3)
O3 O 0.5038(3) 0.4662(5) 0.6804(3)
O4 O 0.6029(3) 0.4779(7) 0.6848(3)
O5 O 0.3116(3) 0.5845(6) 0.6733(3)
O6 O 0.3139(3) 0.3425(6) 0.6898(4)
O7 O 0.3774(5) 0.3549(6) 0.5883(3)
O8 O 0.3547(4) 0.4293(9) 0.4854(3)
O9 O 0.3743(4) 0.5392(7) 0.5761(3)
N1 N 0.2278(4) 0.6999(7) 0.6101(4)
N2 N 0.2531(4) 0.1811(7) 0.6819(4)
N3 N 0.3678(4) 0.4404(8) 0.5482(3)
C1 C 0.5000 0.2246(9) 0.7500
C2 C 0.5000 0.0898(9) 0.7500
C3 C 0.4612(4) 0.0251(7) 0.7766(4)
C4 C 0.4610(4) -0.0970(7) 0.7760(5)
C5 C 0.5000 -0.1586(9) 0.7500
C6 C 0.5000 -0.2942(8) 0.7500
C7 C 0.5449(4) 0.4775(7) 0.6517(4)
C8 C 0.5214(4) 0.4890(7) 0.5728(4)
C9 C 0.5002(4) 0.5946(8) 0.5410(4)
C10 C 0.5206(4) 0.3937(8) 0.5309(4)
C11 C 0.2895(5) 0.6674(9) 0.6347(6)
H1 H 0.3182 0.7119 0.6212
C12 C 0.1804(6) 0.6345(12) 0.6299(7)
H2 H 0.2024 0.5851 0.6691
H3 H 0.1547 0.5867 0.5914
H4 H 0.1530 0.6886 0.6421
C13 C 0.2043(6) 0.7956(11) 0.5627(7)
H5 H 0.1799 0.8482 0.5803
H6 H 0.1771 0.7659 0.5181
H7 H 0.2402 0.8371 0.5578
C14 C 0.3065(5) 0.2362(9) 0.6851(5)
H8 H 0.3409 0.1908 0.6838
C15 C 0.2492(6) 0.0540(9) 0.6785(6)
H9 H 0.2920 0.0214 0.6969
H10 H 0.2285 0.0298 0.6309
H11 H 0.2246 0.0266 0.7055
C16 C 0.1976(6) 0.2498(12) 0.6827(8)
H12 H 0.2030 0.3304 0.6720
H13 H 0.1945 0.2449 0.7280
H14 H 0.1588 0.2190 0.6485
F1A F 0.5775(3) 0.0813(5) 0.6955(4)
F2A F 0.5783(3) -0.1514(5) 0.6972(4)
O1A O 0.5547(2) 0.2725(4) 0.7723(3)
O2A O 0.5539(3) -0.3424(4) 0.7767(3)
C3A C 0.5388(4) 0.0251(7) 0.7234(4)
C4A C 0.5390(4) -0.0970(7) 0.7240(5)
F3D F 0.4994(3) 0.3100(5) 0.4206(3)
F4D F 0.4583(3) 0.7119(5) 0.4395(3)
O3D O 0.4962(3) 0.5338(5) 0.3196(3)
O4D O 0.3971(3) 0.5221(7) 0.3152(3)
C7D C 0.4551(4) 0.5225(7) 0.3483(4)
C8D C 0.4786(4) 0.5110(7) 0.4272(4)
C9D C 0.4998(4) 0.4054(8) 0.4590(4)
C10D C 0.4794(4) 0.6063(8) 0.4691(4)
Tb1A Tb 0.596294(14) 0.46488(3) 0.802004(15)
O5A O 0.6884(3) 0.5845(6) 0.8267(3)
O6A O 0.6861(3) 0.3425(6) 0.8102(4)
O7A O 0.6226(5) 0.3549(6) 0.9117(3)
O8A O 0.6453(4) 0.4293(9) 1.0146(3)
O9A O 0.6257(4) 0.5392(7) 0.9239(3)
N1A N 0.7722(4) 0.6999(7) 0.8899(4)
N2A N 0.7469(4) 0.1811(7) 0.8181(4)
N3A N 0.6322(4) 0.4404(8) 0.9518(3)
C11A C 0.7105(5) 0.6674(9) 0.8653(6)
H1A H 0.6818 0.7119 0.8788
C12A C 0.8196(6) 0.6345(12) 0.8701(7)
H2A H 0.7976 0.5851 0.8309
H3A H 0.8453 0.5867 0.9086
H4A H 0.8470 0.6886 0.8579
C13A C 0.7957(6) 0.7956(11) 0.9373(7)
H5A H 0.8201 0.8482 0.9197
H6A H 0.8229 0.7659 0.9819
H7A H 0.7598 0.8371 0.9422
C14A C 0.6935(5) 0.2362(9) 0.8149(5)
H8A H 0.6591 0.1908 0.8162
C15A C 0.7508(6) 0.0540(9) 0.8215(6)
H9A H 0.7080 0.0214 0.8031
H10A H 0.7715 0.0298 0.8691
H11A H 0.7754 0.0266 0.7945
C16A C 0.8024(6) 0.2498(12) 0.8173(8)
H12A H 0.7970 0.3304 0.8280
H13A H 0.8055 0.2449 0.7720
H14A H 0.8412 0.2190 0.8515
Tb1_2 Tb 0.403706(14) -0.53512(3) 0.697996(15)
Tb1A_2 Tb 0.596294(14) -0.53512(3) 0.802004(15)
Tb1D Tb 0.596294(14) 0.53512(3) 0.302004(15)
Tb1E Tb 0.403706(14) 0.53512(3) 0.197996(15)
O2_2 O 0.4461(3) 0.6576(4) 0.7233(3)
O2A_2 O 0.5539(3) 0.6576(4) 0.7767(3)
O3A O 0.4962(3) 0.4662(5) 0.8196(3)
O4A O 0.3971(3) 0.4779(7) 0.8152(3)
O10 O 0.3482(9) -0.0824(19) 0.5944(10)
N4 N 0.3706(7) 0.0536(14) 0.5268(9)
C17 C 0.3879(11) -0.033(2) 0.5714(12)
H15 H 0.4304 -0.0595 0.5867
C18 C 0.4191(12) 0.111(2) 0.5067(15)
H16 H 0.4501 0.1479 0.5466
H17 H 0.3991 0.1686 0.4716
H18 H 0.4405 0.0531 0.4883
C19 C 0.3032(9) 0.1004(19) 0.4982(11)
H19 H 0.2731 0.0361 0.4854
H20 H 0.2980 0.1478 0.4579
H21 H 0.2951 0.1476 0.5329
loop_
_geom_bond_atom_site_label_1
_geom_bond_atom_site_label_2
_geom_bond_site_symmetry_1
_geom_bond_site_symmetry_2
Tb1 O1 1_555 1_555
F1 C3 1_555 1_555
F2 C4 1_555 1_555
F3 C9 1_555 1_555
F4 C10 1_555 1_555
O1 C1 1_555 1_555
O2 C6 1_555 1_555
O3 Tb1 1_555 1_555
O4 C7 1_555 1_555
O5 Tb1 1_555 1_555
O6 Tb1 1_555 1_555
O7 Tb1 1_555 1_555
O8 N3 1_555 1_555
O9 Tb1 1_555 1_555
N1 C11 1_555 1_555
N2 C14 1_555 1_555
N3 O7 1_555 1_555
C1 C2 1_555 1_555
C2 C3 1_555 1_555
C3 C4 1_555 1_555
C4 C5 1_555 1_555
C5 C6 1_555 1_555
C6 O2A 1_555 1_555
C7 O3 1_555 1_555
C8 C7 1_555 1_555
C9 C8 1_555 1_555
C10 C8 1_555 1_555
C11 O5 1_555 1_555
H1 C11 1_555 1_555
C12 N1 1_555 1_555
H2 C12 1_555 1_555
H3 C12 1_555 1_555
H4 C12 1_555 1_555
C13 N1 1_555 1_555
H5 C13 1_555 1_555
H6 C13 1_555 1_555
H7 C13 1_555 1_555
C14 O6 1_555 1_555
H8 C14 1_555 1_555
C15 N2 1_555 1_555
H9 C15 1_555 1_555
H10 C15 1_555 1_555
H11 C15 1_555 1_555
C16 N2 1_555 1_555
H12 C16 1_555 1_555
H13 C16 1_555 1_555
H14 C16 1_555 1_555
O10 C17 1_555 1_555
N4 C17 1_555 1_555
C17 H15 1_555 1_555
C18 N4 1_555 1_555
H16 C18 1_555 1_555
H17 C18 1_555 1_555
H18 C18 1_555 1_555
C19 N4 1_555 1_555
H19 C19 1_555 1_555
H20 C19 1_555 1_555
H21 C19 1_555 1_555
F1A C3A 1_555 1_555
F2A C4A 1_555 1_555
O1A C1 1_555 1_555
O2A Tb1A_2 1_555 1_555
C3A C2 1_555 1_555
C4A C5 1_555 1_555
F3D C9D 1_555 1_555
F4D C10D 1_555 1_555
O3D C7D 1_555 1_555
O4D C7D 1_555 1_555
C7D C8D 1_555 1_555
C8D C9D 1_555 1_555
C9D C10 1_555 1_555
C10D C9 1_555 1_555
Tb1A O3 1_555 1_555
O5A Tb1A 1_555 1_555
O6A Tb1A 1_555 1_555
O7A Tb1A 1_555 1_555
O8A N3A 1_555 1_555
O9A Tb1A 1_555 1_555
N1A C11A 1_555 1_555
N2A C14A 1_555 1_555
N3A O7A 1_555 1_555
C11A O5A 1_555 1_555
H1A C11A 1_555 1_555
C12A N1A 1_555 1_555
H2A C12A 1_555 1_555
H3A C12A 1_555 1_555
H4A C12A 1_555 1_555
C13A N1A 1_555 1_555
H5A C13A 1_555 1_555
H6A C13A 1_555 1_555
H7A C13A 1_555 1_555
C14A O6A 1_555 1_555
H8A C14A 1_555 1_555
C15A N2A 1_555 1_555
H9A C15A 1_555 1_555
H10A C15A 1_555 1_555
H11A C15A 1_555 1_555
C16A N2A 1_555 1_555
H12A C16A 1_555 1_555
H13A C16A 1_555 1_555
H14A C16A 1_555 1_555
Tb1_2 O2 1_555 1_555
Tb1D O3D 1_555 1_555
Tb1E O3D 1_555 1_555
O2_2 Tb1 1_555 1_555
O2A_2 Tb1A 1_555 1_555
O3A Tb1 1_555 1_555
O4A Tb1 1_555 1_555
O4 Tb1A 1_555 1_555
O9 N3 1_555 1_555
O1A Tb1A 1_555 1_555
C3A C4A 1_555 1_555
O4D Tb1E 1_555 1_555
C8D C10D 1_555 1_555
Tb1A O3A 1_555 1_555
O9A N3A 1_555 1_555

#END
