
#######################################################################
#
#                 Cambridge Crystallographic Data Centre
#                                CCDC 
#
#######################################################################
#
# If this CIF has been generated from an entry in the Cambridge 
# Structural Database, then it will include bibliographic, chemical, 
# crystal, experimental, refinement or atomic coordinate data resulting 
# from the CCDC's data processing and validation procedures.
#
#######################################################################

data_BOWPAF
_symmetry_cell_setting           monoclinic
_symmetry_space_group_name_H-M   'P 21'
_symmetry_Int_Tables_number      4
_space_group_name_Hall           'P 2yb'
loop_
_symmetry_equiv_pos_site_id
_symmetry_equiv_pos_as_xyz
1 x,y,z
2 -x,1/2+y,-z
_cell_length_a                   10.3787(2)
_cell_length_b                   6.6130(1)
_cell_length_c                   16.8336(2)
_cell_angle_alpha                90
_cell_angle_beta                 103.344(1)
_cell_angle_gamma                90
_cell_volume                     1124.17
loop_
_atom_site_label
_atom_site_type_symbol
_atom_site_fract_x
_atom_site_fract_y
_atom_site_fract_z
Cu1 Cu -0.80916(5) -1.00399(7) 0.48872(2)
Cu2 Cu -0.83606(4) -0.44908(7) -0.00716(2)
Cl1 Cl -1.01746(10) -1.12166(19) 0.44132(6)
Cl2 Cl -1.03988(9) -0.58577(18) -0.05181(5)
O1 O -0.4793(3) -0.3618(5) 0.12894(15)
O2 O -0.6740(3) -0.3047(5) 0.04503(15)
O3 O -0.6641(3) -0.7171(5) -0.02360(15)
H1 H -0.6212 -0.7604 -0.0552
O4 O -0.4603(3) -0.9453(6) 0.63717(16)
O5 O -0.6453(3) -0.8686(5) 0.54728(15)
O6 O -0.6634(3) -1.2742(5) 0.47376(16)
H2 H -0.6260 -1.3257 0.4408
N1 N -0.8065(3) -0.8514(7) 0.38727(17)
N2 N -0.7897(3) -0.6136(5) 0.09684(15)
H5 H -0.8224 -0.7411 0.0870
N3 N -0.8340(3) -1.3217(6) 0.88662(16)
N4 N -0.7805(3) -1.1584(6) 0.59460(16)
H6 H -0.8228 -1.2798 0.5865
C1 C -0.8357(4) -0.6543(8) 0.3810(2)
H7 H -0.8502 -0.5865 0.4265
C2 C -0.8453(4) -0.5484(7) 0.3098(2)
H8 H -0.8673 -0.4119 0.3075
C3 C -0.8223(3) -0.6440(7) 0.24167(19)
C4 C -0.7877(4) -0.8460(7) 0.2482(2)
H9 H -0.7699 -0.9160 0.2041
C5 C -0.7802(4) -0.9417(8) 0.3223(2)
H10 H -0.7553 -1.0771 0.3268
C6 C -0.8392(3) -0.5234(7) 0.16335(19)
H11 H -0.8795 -0.3970 0.1578
C7 C -0.6427(3) -0.6191(7) 0.1143(2)
H12 H -0.6060 -0.6550 0.1716
C8 C -0.5944(4) -0.4133(8) 0.0959(2)
C9 C -0.6000(4) -0.7721(7) 0.0580(2)
H13 H -0.5046 -0.7692 0.0649
H14 H -0.6259 -0.9075 0.0701
C10 C -0.8046(4) -1.1252(7) 0.8817(2)
H15 H -0.7885 -1.0462 0.9286
C11 C -0.7977(3) -1.0377(7) 0.8079(2)
H16 H -0.7767 -0.9013 0.8062
C12 C -0.8213(3) -1.1490(7) 0.73780(19)
C13 C -0.8479(4) -1.3532(7) 0.7436(2)
H17 H -0.8611 -1.4363 0.6978
C14 C -0.8545(4) -1.4309(8) 0.8190(2)
H18 H -0.8745 -1.5673 0.8223
C15 C -0.8240(4) -1.0436(7) 0.6580(2)
H19 H -0.8522 -0.9102 0.6493
C16 C -0.6350(4) -1.1881(7) 0.6139(2)
H20 H -0.6027 -1.2327 0.6705
C17 C -0.5746(4) -0.9886(8) 0.5999(2)
C18 C -0.6014(5) -1.3424(8) 0.5548(2)
H21 H -0.5063 -1.3516 0.5614
H22 H -0.6348 -1.4748 0.5648
Cu2_2 Cu -0.83606(4) -1.44908(7) 0.99284(2)
N3_2 N -0.8340(3) -0.3217(6) -0.11338(16)
O7 O -0.4806(8) -0.0908(11) 0.2606(4)
H3 H -0.541(9) -0.172(17) 0.255(6)
H4 H -0.483(7) 0.067(19) 0.241(4)
loop_
_geom_bond_atom_site_label_1
_geom_bond_atom_site_label_2
_geom_bond_site_symmetry_1
_geom_bond_site_symmetry_2
Cu1 Cl1 1_555 1_555
Cu2 Cl2 1_555 1_555
O1 C8 1_555 1_555
O2 Cu2 1_555 1_555
O3 Cu2 1_555 1_555
H1 O3 1_555 1_555
O4 C17 1_555 1_555
O5 Cu1 1_555 1_555
O6 Cu1 1_555 1_555
H2 O6 1_555 1_555
O7 H3 1_555 1_555
H4 O7 1_555 1_555
N1 Cu1 1_555 1_555
N2 Cu2 1_555 1_555
H5 N2 1_555 1_555
N3 C10 1_555 1_555
N4 Cu1 1_555 1_555
H6 N4 1_555 1_555
C1 N1 1_555 1_555
H7 C1 1_555 1_555
C2 C1 1_555 1_555
H8 C2 1_555 1_555
C3 C2 1_555 1_555
C4 C3 1_555 1_555
H9 C4 1_555 1_555
C5 N1 1_555 1_555
H10 C5 1_555 1_555
C6 N2 1_555 1_555
H11 C6 1_555 1_555
C7 N2 1_555 1_555
H12 C7 1_555 1_555
C8 O2 1_555 1_555
C9 O3 1_555 1_555
H13 C9 1_555 1_555
H14 C9 1_555 1_555
C10 H15 1_555 1_555
C11 C10 1_555 1_555
H16 C11 1_555 1_555
C12 C11 1_555 1_555
C13 C12 1_555 1_555
H17 C13 1_555 1_555
C14 N3 1_555 1_555
H18 C14 1_555 1_555
C15 N4 1_555 1_555
H19 C15 1_555 1_555
C16 N4 1_555 1_555
H20 C16 1_555 1_555
C17 O5 1_555 1_555
C18 O6 1_555 1_555
H21 C18 1_555 1_555
H22 C18 1_555 1_555
Cu2_2 N3 1_555 1_555
N3_2 Cu2 1_555 1_555
C3 C6 1_555 1_555
C4 C5 1_555 1_555
C7 C8 1_555 1_555
C7 C9 1_555 1_555
C12 C15 1_555 1_555
C13 C14 1_555 1_555
C16 C17 1_555 1_555
C16 C18 1_555 1_555

#END
