
#######################################################################
#
#                 Cambridge Crystallographic Data Centre
#                                CCDC 
#
#######################################################################
#
# If this CIF has been generated from an entry in the Cambridge 
# Structural Database, then it will include bibliographic, chemical, 
# crystal, experimental, refinement or atomic coordinate data resulting 
# from the CCDC's data processing and validation procedures.
#
#######################################################################

data_BOWWOA
_symmetry_cell_setting           monoclinic
_symmetry_space_group_name_H-M   'C 2/c'
_symmetry_Int_Tables_number      15
_space_group_name_Hall           '-C 2yn'
loop_
_symmetry_equiv_pos_site_id
_symmetry_equiv_pos_as_xyz
1 x,y,z
2 -x,y,1/2-z
3 1/2+x,1/2+y,z
4 1/2-x,1/2+y,1/2-z
5 -x,-y,-z
6 x,-y,1/2+z
7 1/2-x,1/2-y,-z
8 1/2+x,1/2-y,1/2+z
_cell_length_a                   13.8477(14)
_cell_length_b                   11.0873(11)
_cell_length_c                   8.6401(8)
_cell_angle_alpha                90
_cell_angle_beta                 93.721(2)
_cell_angle_gamma                90
_cell_volume                     1323.75
loop_
_atom_site_label
_atom_site_type_symbol
_atom_site_fract_x
_atom_site_fract_y
_atom_site_fract_z
Ni1 Ni 0.5000 0.14749(4) 0.2500
O1 O 0.58268(12) 0.00974(15) 0.15987(17)
O2 O 0.57704(12) -0.11945(15) -0.03801(19)
N1 N 0.59021(15) 0.27812(18) 0.1537(2)
N2 N 0.7250(2) 0.2479(3) 0.3188(3)
C1 C 0.5515(3) 0.3363(3) 0.0276(4)
C2 C 0.6012(3) 0.4139(4) -0.0606(5)
C3 C 0.6969(2) 0.4371(3) -0.0172(4)
C4 C 0.7376(2) 0.3828(3) 0.1087(3)
C5 C 0.68377(18) 0.3014(2) 0.1938(3)
C6 C 0.54640(16) -0.0314(2) 0.0357(3)
H1 H 0.490(2) 0.332(3) 0.013(4)
H2 H 0.569(3) 0.450(3) -0.133(4)
H3 H 0.730(2) 0.484(3) -0.073(3)
H4 H 0.802(2) 0.393(3) 0.145(3)
H5 H 0.785(3) 0.255(3) 0.338(4)
H6 H 0.705(3) 0.192(3) 0.350(4)
Ni1D Ni 0.5000 -0.14749(4) -0.2500
O1D O 0.41732(12) -0.00974(15) -0.15987(17)
O1A O 0.41732(12) 0.00974(15) 0.34013(17)
O2D O 0.42296(12) 0.11945(15) 0.03801(19)
O2E O 0.57704(12) 0.11945(15) 0.46199(19)
N1A N 0.40979(15) 0.27812(18) 0.3463(2)
N2A N 0.2750(2) 0.2479(3) 0.1812(3)
C1A C 0.4485(3) 0.3363(3) 0.4724(4)
C2A C 0.3988(3) 0.4139(4) 0.5606(5)
C3A C 0.3031(2) 0.4371(3) 0.5172(4)
C4A C 0.2624(2) 0.3828(3) 0.3913(3)
C5A C 0.31623(18) 0.3014(2) 0.3062(3)
C6D C 0.45360(16) 0.0314(2) -0.0357(3)
H1A H 0.510(2) 0.332(3) 0.487(4)
H2A H 0.431(3) 0.450(3) 0.633(4)
H3A H 0.270(2) 0.484(3) 0.573(3)
H4A H 0.198(2) 0.393(3) 0.355(3)
H5A H 0.215(3) 0.255(3) 0.162(4)
H6A H 0.295(3) 0.192(3) 0.150(4)
loop_
_geom_bond_atom_site_label_1
_geom_bond_atom_site_label_2
_geom_bond_site_symmetry_1
_geom_bond_site_symmetry_2
Ni1 O1 1_555 1_555
O1 C6 1_555 1_555
O2 C6 1_555 1_555
N1 Ni1 1_555 1_555
N2 C5 1_555 1_555
C1 N1 1_555 1_555
C2 C1 1_555 1_555
C3 C2 1_555 1_555
C4 C3 1_555 1_555
C5 N1 1_555 1_555
C6 C6D 1_555 1_555
H1 C1 1_555 1_555
H2 C2 1_555 1_555
H3 C3 1_555 1_555
H4 C4 1_555 1_555
H5 N2 1_555 1_555
H6 N2 1_555 1_555
Ni1D O2 1_555 1_555
O1D Ni1D 1_555 1_555
O1A Ni1 1_555 1_555
O2D Ni1 1_555 1_555
O2E Ni1 1_555 1_555
N1A Ni1 1_555 1_555
N2A C5A 1_555 1_555
C1A N1A 1_555 1_555
C2A C1A 1_555 1_555
C3A C2A 1_555 1_555
C4A C3A 1_555 1_555
C5A N1A 1_555 1_555
C6D O1D 1_555 1_555
H1A C1A 1_555 1_555
H2A C2A 1_555 1_555
H3A C3A 1_555 1_555
H4A C4A 1_555 1_555
H5A N2A 1_555 1_555
H6A N2A 1_555 1_555
C4 C5 1_555 1_555
O2D C6D 1_555 1_555
C4A C5A 1_555 1_555

#END
