
#######################################################################
#
#                 Cambridge Crystallographic Data Centre
#                                CCDC 
#
#######################################################################
#
# If this CIF has been generated from an entry in the Cambridge 
# Structural Database, then it will include bibliographic, chemical, 
# crystal, experimental, refinement or atomic coordinate data resulting 
# from the CCDC's data processing and validation procedures.
#
#######################################################################

data_BOWZIX
_symmetry_cell_setting           monoclinic
_symmetry_space_group_name_H-M   'C 2/c'
_symmetry_Int_Tables_number      15
_space_group_name_Hall           '-C 2yn'
loop_
_symmetry_equiv_pos_site_id
_symmetry_equiv_pos_as_xyz
1 x,y,z
2 -x,y,1/2-z
3 1/2+x,1/2+y,z
4 1/2-x,1/2+y,1/2-z
5 -x,-y,-z
6 x,-y,1/2+z
7 1/2-x,1/2-y,-z
8 1/2+x,1/2-y,1/2+z
_cell_length_a                   9.5916(11)
_cell_length_b                   13.4429(15)
_cell_length_c                   18.149(2)
_cell_angle_alpha                90
_cell_angle_beta                 102.9200(10)
_cell_angle_gamma                90
_cell_volume                     2280.87
loop_
_atom_site_label
_atom_site_type_symbol
_atom_site_fract_x
_atom_site_fract_y
_atom_site_fract_z
Co1 Co 0.5000 0.202386(19) 0.2500
O1 O 0.44083(12) 0.08947(8) 0.31783(6)
H1 H 0.491(2) 0.0667(15) 0.3571(11)
H2 H 0.361(2) 0.0904(14) 0.3231(11)
N1 N 0.42959(13) 0.31417(9) 0.31814(7)
N2 N 0.11641(12) 0.51532(9) 0.46200(7)
N3 N 0.70824(14) 0.19958(9) 0.31846(8)
N4 N 0.96791(16) 0.20532(13) 0.36503(10)
N5 N 1.15876(16) 0.10197(15) 0.33477(10)
C1 C 0.46882(16) 0.30672(11) 0.39341(9)
H3 H 0.5361 0.2568 0.4145
C2 C 0.41658(16) 0.36793(12) 0.44216(8)
H4 H 0.4465 0.3589 0.4953
C3 C 0.32008(15) 0.44271(11) 0.41313(8)
C4 C 0.27729(16) 0.45009(11) 0.33494(9)
H5 H 0.2096 0.4991 0.3125
C5 C 0.33421(17) 0.38533(11) 0.29001(8)
H6 H 0.3043 0.3916 0.2367
C6 C 0.27181(15) 0.51456(11) 0.46638(8)
H7 H 0.3216 0.4978 0.5188
H8 H 0.3018 0.5825 0.4555
C7 C 0.09049(15) 0.58246(10) 0.52202(8)
H9 H 0.1233 0.6504 0.5132
H10 H 0.1464 0.5593 0.5717
C8 C 0.06706(15) 0.41460(10) 0.47666(8)
H11 H 0.1232 0.3900 0.5258
H12 H 0.0821 0.3684 0.4367
C9 C 0.83170(16) 0.19886(11) 0.33653(9)
C10 C 1.06366(16) 0.14808(15) 0.34513(9)
Co1D Co -0.5000 0.797614(19) 0.7500
O1A O 0.55917(12) 0.08947(8) 0.18217(6)
H1A H 0.509(2) 0.0667(15) 0.1429(11)
H2A H 0.639(2) 0.0904(14) 0.1769(11)
N1D N -0.42959(13) 0.68583(9) 0.68186(7)
N1A N 0.57041(13) 0.31417(9) 0.18186(7)
N2D N -0.11641(12) 0.48468(9) 0.53800(7)
N3A N 0.29176(14) 0.19958(9) 0.18154(8)
N4A N 0.03209(16) 0.20532(13) 0.13497(10)
N5A N -0.15876(16) 0.10197(15) 0.16523(10)
C1D C -0.46882(16) 0.69328(11) 0.60659(9)
H3D H -0.5361 0.7432 0.5855
C2D C -0.41658(16) 0.63207(12) 0.55784(8)
H4D H -0.4465 0.6411 0.5047
C3D C -0.32008(15) 0.55729(11) 0.58687(8)
C4D C -0.27729(16) 0.54991(11) 0.66506(9)
H5D H -0.2096 0.5009 0.6875
C5D C -0.33421(17) 0.61467(11) 0.70999(8)
H6D H -0.3043 0.6084 0.7633
C6D C -0.27181(15) 0.48544(11) 0.53362(8)
H7D H -0.3216 0.5022 0.4812
H8D H -0.3018 0.4175 0.5445
C7D C -0.09049(15) 0.41754(10) 0.47798(8)
H9D H -0.1233 0.3496 0.4868
H10D H -0.1464 0.4407 0.4283
C8D C -0.06706(15) 0.58540(10) 0.52334(8)
H11D H -0.1232 0.6100 0.4742
H12D H -0.0821 0.6316 0.5633
C9A C 0.16830(16) 0.19886(11) 0.16347(9)
C10A C -0.06366(16) 0.14808(15) 0.15487(9)
loop_
_geom_bond_atom_site_label_1
_geom_bond_atom_site_label_2
_geom_bond_site_symmetry_1
_geom_bond_site_symmetry_2
Co1 O1 1_555 1_555
O1 H1 1_555 1_555
H2 O1 1_555 1_555
N1 Co1 1_555 1_555
N2 C6 1_555 1_555
N3 Co1 1_555 1_555
N4 C9 1_555 1_555
N5 C10 1_555 1_555
C1 N1 1_555 1_555
H3 C1 1_555 1_555
C2 C1 1_555 1_555
H4 C2 1_555 1_555
C3 C2 1_555 1_555
C4 C3 1_555 1_555
H5 C4 1_555 1_555
C5 N1 1_555 1_555
H6 C5 1_555 1_555
C6 C3 1_555 1_555
H7 C6 1_555 1_555
H8 C6 1_555 1_555
C7 N2 1_555 1_555
H9 C7 1_555 1_555
H10 C7 1_555 1_555
C8 N2 1_555 1_555
H11 C8 1_555 1_555
H12 C8 1_555 1_555
C9 N3 1_555 1_555
C10 N4 1_555 1_555
Co1D N1D 1_555 1_555
O1A Co1 1_555 1_555
H1A O1A 1_555 1_555
H2A O1A 1_555 1_555
N1D C1D 1_555 1_555
N1A Co1 1_555 1_555
N2D C6D 1_555 1_555
N3A Co1 1_555 1_555
N4A C9A 1_555 1_555
N5A C10A 1_555 1_555
C1D H3D 1_555 1_555
C2D C1D 1_555 1_555
H4D C2D 1_555 1_555
C3D C2D 1_555 1_555
C4D C3D 1_555 1_555
H5D C4D 1_555 1_555
C5D N1D 1_555 1_555
H6D C5D 1_555 1_555
C6D C3D 1_555 1_555
H7D C6D 1_555 1_555
H8D C6D 1_555 1_555
C7D C8 1_555 1_555
H9D C7D 1_555 1_555
H10D C7D 1_555 1_555
C8D C7 1_555 1_555
H11D C8D 1_555 1_555
H12D C8D 1_555 1_555
C9A N3A 1_555 1_555
C10A N4A 1_555 1_555
C4 C5 1_555 1_555
N2D C7D 1_555 1_555
N2D C8D 1_555 1_555
C4D C5D 1_555 1_555

#END
