
#######################################################################
#
#                 Cambridge Crystallographic Data Centre
#                                CCDC 
#
#######################################################################
#
# If this CIF has been generated from an entry in the Cambridge 
# Structural Database, then it will include bibliographic, chemical, 
# crystal, experimental, refinement or atomic coordinate data resulting 
# from the CCDC's data processing and validation procedures.
#
#######################################################################

data_BOXBUN01
_symmetry_cell_setting           rhombohedral
_symmetry_space_group_name_H-M   'R -3'
_symmetry_Int_Tables_number      148
_space_group_name_Hall           '-R 3'
loop_
_symmetry_equiv_pos_site_id
_symmetry_equiv_pos_as_xyz
1 x,y,z
2 -y,x-y,z
3 -x+y,-x,z
4 2/3+x,1/3+y,1/3+z
5 2/3-y,1/3+x-y,1/3+z
6 2/3-x+y,1/3-x,1/3+z
7 1/3+x,2/3+y,2/3+z
8 1/3-y,2/3+x-y,2/3+z
9 1/3-x+y,2/3-x,2/3+z
10 -x,-y,-z
11 y,-x+y,-z
12 x-y,x,-z
13 1/3-x,2/3-y,2/3-z
14 1/3+y,2/3-x+y,2/3-z
15 1/3+x-y,2/3+x,2/3-z
16 2/3-x,1/3-y,1/3-z
17 2/3+y,1/3-x+y,1/3-z
18 2/3+x-y,1/3+x,1/3-z
_cell_length_a                   13.076(2)
_cell_length_b                   13.076(2)
_cell_length_c                   30.416(5)
_cell_angle_alpha                90
_cell_angle_beta                 90
_cell_angle_gamma                120
_cell_volume                     4503.84
loop_
_atom_site_label
_atom_site_type_symbol
_atom_site_fract_x
_atom_site_fract_y
_atom_site_fract_z
I1 I 1.00431(2) 0.81025(2) 0.05790(2)
Cu1 Cu 0.81194(4) 0.79800(5) 0.03023(2)
N1 N 0.6419(3) 0.6745(3) 0.04804(11)
C1 C 0.5576(3) 0.6815(3) 0.02669(13)
C2 C 0.6086(3) 0.6001(3) 0.08441(12)
C3 C 0.4369(3) 0.6227(3) 0.03814(13)
H1 H 0.5798 0.7295 0.0019
C4 C 0.6953(4) 0.5934(4) 0.10973(14)
C5 C 0.4894(3) 0.5329(3) 0.09695(13)
Si1 Si 0.3333 0.6667 0.01326(6)
C6 C 0.4048(3) 0.5470(3) 0.07336(14)
H2 H 0.7745 0.6377 0.1019
C7 C 0.6630(4) 0.5221(4) 0.14576(15)
C8 C 0.4599(4) 0.4596(4) 0.13466(15)
C9 C 0.3333 0.6667 -0.0473(3)
H3 H 0.3259 0.5044 0.0817
H4 H 0.7208 0.5182 0.1623
C10 C 0.5451(4) 0.4547(4) 0.15834(14)
H5 H 0.3814 0.4144 0.1432
H6 H 0.2881 0.7011 -0.0579
H7 H 0.5248 0.4063 0.1830
N1A N 0.3255(3) 0.9674(4) 0.04804(11)
C1A C 0.3185(3) 0.8761(4) 0.02669(13)
C2A C 0.3999(3) 1.0085(4) 0.08441(12)
C3A C 0.3773(3) 0.8142(4) 0.03814(13)
H1A H 0.2705 0.8503 0.0019
C4A C 0.4066(4) 1.1019(6) 0.10973(14)
C5A C 0.4671(3) 0.9565(4) 0.09695(13)
C6A C 0.4530(3) 0.8578(4) 0.07336(14)
H2A H 0.3623 1.1368 0.1019
C7A C 0.4779(4) 1.1409(6) 0.14576(15)
C8A C 0.5404(4) 1.0003(6) 0.13466(15)
H3A H 0.4956 0.8215 0.0817
H4A H 0.4818 1.2026 0.1623
C10A C 0.5453(4) 1.0904(6) 0.15834(14)
H5A H 0.5856 0.9670 0.1432
H6A H 0.2989 0.5870 -0.0579
H7A H 0.5937 1.1185 0.1830
N1B N 0.0326(4) 0.3581(3) 0.04804(11)
C1B C 0.1239(4) 0.4424(3) 0.02669(13)
C2B C -0.0085(4) 0.3914(3) 0.08441(12)
C3B C 0.1858(4) 0.5631(3) 0.03814(13)
H1B H 0.1497 0.4202 0.0019
C4B C -0.1019(6) 0.3047(4) 0.10973(14)
C5B C 0.0435(4) 0.5106(3) 0.09695(13)
C6B C 0.1422(4) 0.5952(3) 0.07336(14)
H2B H -0.1368 0.2255 0.1019
C7B C -0.1409(6) 0.3370(4) 0.14576(15)
C8B C -0.0003(6) 0.5401(4) 0.13466(15)
H3B H 0.1785 0.6741 0.0817
H4B H -0.2026 0.2792 0.1623
C10B C -0.0904(6) 0.4549(4) 0.15834(14)
H5B H 0.0330 0.6186 0.1432
H6B H 0.4130 0.7119 -0.0579
H7B H -0.1185 0.4752 0.1830
I1A I 0.18975(2) 1.19406(3) 0.05790(2)
Cu1A Cu 0.20200(5) 1.01394(6) 0.03023(2)
I1B I -0.19406(3) -0.00431(2) 0.05790(2)
Cu1B Cu -0.01394(6) 0.18806(4) 0.03023(2)
I1_2 I 0.00431(2) 0.81025(2) 0.05790(2)
I1A_2 I 0.18975(2) 0.19406(3) 0.05790(2)
I1B_2 I 0.80594(3) 0.99569(2) 0.05790(2)
I1I I -0.00431(2) 0.18975(2) -0.05790(2)
I1J I 0.81025(2) 0.80594(3) -0.05790(2)
I1K I 0.19406(3) 1.00431(2) -0.05790(2)
Cu1_2 Cu -0.18806(4) -0.20200(5) 0.03023(2)
Cu1A_2 Cu 1.20200(5) 1.01394(6) 0.03023(2)
Cu1B_2 Cu -0.01394(6) 1.18806(4) 0.03023(2)
Cu1I Cu 0.18806(4) 1.20200(5) -0.03023(2)
Cu1J Cu -0.20200(5) -0.01394(6) -0.03023(2)
Cu1K Cu 1.01394(6) 0.81194(4) -0.03023(2)
loop_
_geom_bond_atom_site_label_1
_geom_bond_atom_site_label_2
_geom_bond_site_symmetry_1
_geom_bond_site_symmetry_2
I1 Cu1 1_555 1_555
Cu1 N1 1_555 1_555
N1 C1 1_555 1_555
C1 C3 1_555 1_555
C2 N1 1_555 1_555
C3 Si1 1_555 1_555
H1 C1 1_555 1_555
C4 C2 1_555 1_555
C5 C2 1_555 1_555
Si1 C9 1_555 1_555
C6 C3 1_555 1_555
H2 C4 1_555 1_555
C7 C4 1_555 1_555
C8 C5 1_555 1_555
C9 H6 1_555 1_555
H3 C6 1_555 1_555
H4 C7 1_555 1_555
C10 C7 1_555 1_555
H5 C8 1_555 1_555
H7 C10 1_555 1_555
N1A C1A 1_555 1_555
C1A C3A 1_555 1_555
C2A N1A 1_555 1_555
C3A Si1 1_555 1_555
H1A C1A 1_555 1_555
C4A C2A 1_555 1_555
C5A C2A 1_555 1_555
C6A C3A 1_555 1_555
H2A C4A 1_555 1_555
C7A C4A 1_555 1_555
C8A C5A 1_555 1_555
H3A C6A 1_555 1_555
H4A C7A 1_555 1_555
C10A C7A 1_555 1_555
H5A C8A 1_555 1_555
H6A C9 1_555 1_555
H7A C10A 1_555 1_555
N1B C1B 1_555 1_555
C1B C3B 1_555 1_555
C2B N1B 1_555 1_555
C3B Si1 1_555 1_555
H1B C1B 1_555 1_555
C4B C2B 1_555 1_555
C5B C2B 1_555 1_555
C6B C3B 1_555 1_555
H2B C4B 1_555 1_555
C7B C4B 1_555 1_555
C8B C5B 1_555 1_555
H3B C6B 1_555 1_555
H4B C7B 1_555 1_555
C10B C7B 1_555 1_555
H5B C8B 1_555 1_555
H6B C9 1_555 1_555
H7B C10B 1_555 1_555
I1A Cu1A 1_555 1_555
Cu1A N1A 1_555 1_555
I1B Cu1B 1_555 1_555
Cu1B N1B 1_555 1_555
I1_2 Cu1A 1_555 1_555
I1A_2 Cu1B 1_555 1_555
I1B_2 Cu1 1_555 1_555
I1I Cu1B 1_555 1_555
I1J Cu1 1_555 1_555
I1K Cu1A 1_555 1_555
Cu1_2 I1B 1_555 1_555
Cu1A_2 I1 1_555 1_555
Cu1B_2 I1A 1_555 1_555
Cu1I I1A 1_555 1_555
Cu1J I1B 1_555 1_555
Cu1K I1 1_555 1_555
C5 C6 1_555 1_555
C8 C10 1_555 1_555
C5A C6A 1_555 1_555
C8A C10A 1_555 1_555
C5B C6B 1_555 1_555
C8B C10B 1_555 1_555
I1I Cu1J 1_555 1_555
I1J Cu1K 1_555 1_555
I1K Cu1I 1_555 1_555

#END
