
#######################################################################
#
#                 Cambridge Crystallographic Data Centre
#                                CCDC 
#
#######################################################################
#
# If this CIF has been generated from an entry in the Cambridge 
# Structural Database, then it will include bibliographic, chemical, 
# crystal, experimental, refinement or atomic coordinate data resulting 
# from the CCDC's data processing and validation procedures.
#
#######################################################################

data_BOXBIB
_symmetry_cell_setting           rhombohedral
_symmetry_space_group_name_H-M   'R -3 c'
_symmetry_Int_Tables_number      167
_space_group_name_Hall           '-R 3 2"c'
loop_
_symmetry_equiv_pos_site_id
_symmetry_equiv_pos_as_xyz
1 x,y,z
2 -y,x-y,z
3 -x+y,-x,z
4 y,x,1/2-z
5 x-y,-y,1/2-z
6 -x,-x+y,1/2-z
7 2/3+x,1/3+y,1/3+z
8 2/3-y,1/3+x-y,1/3+z
9 2/3-x+y,1/3-x,1/3+z
10 2/3+y,1/3+x,5/6-z
11 2/3+x-y,1/3-y,5/6-z
12 2/3-x,1/3-x+y,5/6-z
13 1/3+x,2/3+y,2/3+z
14 1/3-y,2/3+x-y,2/3+z
15 1/3-x+y,2/3-x,2/3+z
16 1/3+y,2/3+x,1/6-z
17 1/3+x-y,2/3-y,1/6-z
18 1/3-x,2/3-x+y,1/6-z
19 -x,-y,-z
20 y,-x+y,-z
21 x-y,x,-z
22 -y,-x,1/2+z
23 -x+y,y,1/2+z
24 x,x-y,1/2+z
25 1/3-x,2/3-y,2/3-z
26 1/3+y,2/3-x+y,2/3-z
27 1/3+x-y,2/3+x,2/3-z
28 1/3-y,2/3-x,1/6+z
29 1/3-x+y,2/3+y,1/6+z
30 1/3+x,2/3+x-y,1/6+z
31 2/3-x,1/3-y,1/3-z
32 2/3+y,1/3-x+y,1/3-z
33 2/3+x-y,1/3+x,1/3-z
34 2/3-y,1/3-x,5/6+z
35 2/3-x+y,1/3+y,5/6+z
36 2/3+x,1/3+x-y,5/6+z
_cell_length_a                   13.310(2)
_cell_length_b                   13.310(2)
_cell_length_c                   41.548(7)
_cell_angle_alpha                90
_cell_angle_beta                 90
_cell_angle_gamma                120
_cell_volume                     6374.36
loop_
_atom_site_label
_atom_site_type_symbol
_atom_site_fract_x
_atom_site_fract_y
_atom_site_fract_z
I1 I 0.50236(2) 0.63777(2) 0.71265(2)
Cu1 Cu 0.31126(2) 0.48669(2) 0.68469(2)
N1 N 0.28041(16) 0.32204(16) 0.69502(5)
C1 C 0.18166(19) 0.23151(19) 0.68445(5)
C2 C 0.3518(2) 0.29913(19) 0.71233(5)
C3 C 0.14457(18) 0.11510(19) 0.69121(5)
H1 H 0.1329 0.2475 0.6713
H2 H 0.4228 0.3622 0.7198
C4 C 0.3261(2) 0.1872(2) 0.71970(6)
Si1 Si 0.0000 0.0000 0.67552(3)
C5 C 0.2213(2) 0.0951(2) 0.70948(6)
H3 H 0.3794 0.1739 0.7316
C6 C 0.0000 0.0000 0.63072(10)
H4 H 0.2015 0.0180 0.7149
H5 H -0.0798 -0.0462 0.6229
N1A N -0.32204(16) -0.04163(23) 0.69502(5)
C1A C -0.23151(19) -0.04985(27) 0.68445(5)
C2A C -0.29913(19) 0.05267(28) 0.71233(5)
C3A C -0.11510(19) 0.02947(26) 0.69121(5)
H1A H -0.2475 -0.1146 0.6713
H2A H -0.3622 0.0606 0.7198
C4A C -0.1872(2) 0.1389(3) 0.71970(6)
C5A C -0.0951(2) 0.1262(3) 0.70948(6)
H3A H -0.1739 0.2055 0.7316
H4A H -0.0180 0.1835 0.7149
H5A H 0.0462 -0.0336 0.6229
N1B N 0.04163(23) -0.28041(16) 0.69502(5)
C1B C 0.04985(27) -0.18166(19) 0.68445(5)
C2B C -0.05267(28) -0.3518(2) 0.71233(5)
C3B C -0.02947(26) -0.14457(18) 0.69121(5)
H1B H 0.1146 -0.1329 0.6713
H2B H -0.0606 -0.4228 0.7198
C4B C -0.1389(3) -0.3261(2) 0.71970(6)
C5B C -0.1262(3) -0.2213(2) 0.70948(6)
H3B H -0.2055 -0.3794 0.7316
H4B H -0.1835 -0.2015 0.7149
H5B H 0.0336 0.0798 0.6229
I1A I -0.63777(2) -0.13541(3) 0.71265(2)
Cu1A Cu -0.48669(2) -0.17543(3) 0.68469(2)
I1B I -0.86459(3) -0.50236(2) 0.71265(2)
Cu1B Cu -0.82457(3) -0.31126(2) 0.68469(2)
I1_2 I -0.49764(2) -0.36223(2) 0.71265(2)
I1B_2 I 0.13541(3) 0.49764(2) 0.71265(2)
I1DA I -0.83569(2) -0.30444(2) 0.62068(2)
I1EA I 0.30444(2) 0.46874(3) 0.62068(2)
I1FA I -0.46874(3) -0.16431(2) 0.62068(2)
Cu1_2 Cu -0.68874(2) -0.51331(2) 0.68469(2)
Cu1A_2 Cu 0.51331(2) 0.82457(3) 0.68469(2)
Cu1B_2 Cu 0.17543(3) -0.31126(2) 0.68469(2)
Cu1DA Cu -0.64459(2) -0.15336(2) 0.64864(2)
Cu1EA Cu -0.84664(2) -0.49124(3) 0.64864(2)
Cu1FA Cu 0.49124(3) 0.64459(2) 0.64864(2)
N1B_2 N -0.95837(23) -0.28041(16) 0.69502(5)
loop_
_geom_bond_atom_site_label_1
_geom_bond_atom_site_label_2
_geom_bond_site_symmetry_1
_geom_bond_site_symmetry_2
I1 Cu1 1_555 1_555
Cu1 N1 1_555 1_555
N1 C1 1_555 1_555
C1 C3 1_555 1_555
C2 N1 1_555 1_555
C3 Si1 1_555 1_555
H1 C1 1_555 1_555
H2 C2 1_555 1_555
C4 C2 1_555 1_555
Si1 C6 1_555 1_555
C5 C3 1_555 1_555
H3 C4 1_555 1_555
C6 H5 1_555 1_555
H4 C5 1_555 1_555
N1A C1A 1_555 1_555
C1A C3A 1_555 1_555
C2A N1A 1_555 1_555
C3A Si1 1_555 1_555
H1A C1A 1_555 1_555
H2A C2A 1_555 1_555
C4A C2A 1_555 1_555
C5A C3A 1_555 1_555
H3A C4A 1_555 1_555
H4A C5A 1_555 1_555
H5A C6 1_555 1_555
N1B C1B 1_555 1_555
C1B C3B 1_555 1_555
C2B N1B 1_555 1_555
C3B Si1 1_555 1_555
H1B C1B 1_555 1_555
H2B C2B 1_555 1_555
C4B C2B 1_555 1_555
C5B C3B 1_555 1_555
H3B C4B 1_555 1_555
H4B C5B 1_555 1_555
H5B C6 1_555 1_555
I1A Cu1A 1_555 1_555
Cu1A N1A 1_555 1_555
I1B Cu1B 1_555 1_555
Cu1B I1A 1_555 1_555
I1_2 Cu1A 1_555 1_555
I1B_2 Cu1 1_555 1_555
I1DA Cu1B 1_555 1_555
I1EA Cu1 1_555 1_555
I1FA Cu1A 1_555 1_555
Cu1_2 I1B 1_555 1_555
Cu1A_2 I1 1_555 1_555
Cu1B_2 N1B 1_555 1_555
Cu1DA I1A 1_555 1_555
Cu1EA I1B 1_555 1_555
Cu1FA I1 1_555 1_555
N1B_2 Cu1B 1_555 1_555
C4 C5 1_555 1_555
C4A C5A 1_555 1_555
C4B C5B 1_555 1_555
I1_2 Cu1_2 1_555 1_555
I1DA Cu1DA 1_555 1_555
I1DA Cu1EA 1_555 1_555
I1EA Cu1FA 1_555 1_555
I1FA Cu1DA 1_555 1_555

#END
