
#######################################################################
#
#                 Cambridge Crystallographic Data Centre
#                                CCDC 
#
#######################################################################
#
# If this CIF has been generated from an entry in the Cambridge 
# Structural Database, then it will include bibliographic, chemical, 
# crystal, experimental, refinement or atomic coordinate data resulting 
# from the CCDC's data processing and validation procedures.
#
#######################################################################

data_BOXBAT
_symmetry_cell_setting           monoclinic
_symmetry_space_group_name_H-M   'C 2/c'
_symmetry_Int_Tables_number      15
_space_group_name_Hall           '-C 2yn'
loop_
_symmetry_equiv_pos_site_id
_symmetry_equiv_pos_as_xyz
1 x,y,z
2 -x,y,1/2-z
3 1/2+x,1/2+y,z
4 1/2-x,1/2+y,1/2-z
5 -x,-y,-z
6 x,-y,1/2+z
7 1/2-x,1/2-y,-z
8 1/2+x,1/2-y,1/2+z
_cell_length_a                   35.157(8)
_cell_length_b                   29.716(6)
_cell_length_c                   16.278(4)
_cell_angle_alpha                90
_cell_angle_beta                 109.757(4)
_cell_angle_gamma                90
_cell_volume                     16005
loop_
_atom_site_label
_atom_site_type_symbol
_atom_site_fract_x
_atom_site_fract_y
_atom_site_fract_z
Cr1 Cr -0.28041(4) -0.18478(6) 0.21400(10)
O2 O -0.24439(13) -0.21866(15) 0.2650(3)
O3 O -0.2803(2) -0.1421(3) 0.2809(5)
O4 O -0.27660(19) -0.1713(3) 0.1313(4)
Cr2 Cr -0.37477(6) -0.18637(8) 0.14582(14)
O5 O -0.3216(3) -0.2175(3) 0.1956(5)
O6 O -0.3802(2) -0.1751(6) 0.0597(5)
O7 O -0.3767(3) -0.1511(5) 0.2172(10)
O8 O -0.4081(4) -0.2229(5) 0.1368(9)
Zn1 Zn 0.118080(16) 0.209960(18) 0.72393(4)
N1 N -0.15012(12) 0.11346(14) 0.4629(3)
N2 N 0.14865(10) -0.11045(13) 0.7984(3)
N3 N -0.14466(11) -0.14791(13) 0.4663(2)
O1 O -0.13230(9) -0.23408(11) 0.3723(2)
N4 N 0.15875(12) 0.07862(13) 0.7835(2)
N5 N 0.34351(11) -0.24811(13) 1.0261(2)
N6 N -0.15908(11) -0.07569(13) 0.4487(2)
N7 N 0.00258(11) -0.20056(14) 0.6214(3)
N8 N -0.06179(12) -0.21324(13) 0.5512(3)
N9 N 0.14270(12) 0.14951(13) 0.7560(3)
C1 C -0.00635(14) 0.20789(15) 0.6294(3)
N10 N -0.35057(11) 0.24754(13) 0.3180(3)
C2 C 0.12199(15) 0.01053(16) 0.8006(3)
H1 H 0.1012 0.0284 0.8056
C3 C 0.11191(12) -0.13330(15) 0.7565(3)
N11 N 0.29098(11) -0.20338(13) 0.9959(3)
C4 C 0.19429(15) 0.10227(16) 0.8148(3)
H2 H 0.2200 0.0906 0.8423
C5 C 0.06711(13) -0.19628(15) 0.7414(3)
H3 H 0.0617 -0.2240 0.7614
C6 C 0.08347(12) -0.11419(16) 0.6819(3)
H4 H 0.0889 -0.0864 0.6620
N12 N -0.29796(12) 0.20569(13) 0.3870(3)
C7 C 0.19324(12) -0.17694(16) 0.8221(3)
H5 H 0.1760 -0.1900 0.7712
C8 C -0.15588(14) -0.02802(16) 0.4569(3)
C9 C -0.18852(14) -0.00291(18) 0.4597(3)
H6 H -0.2120 -0.0175 0.4590
C10 C 0.15107(12) -0.06341(15) 0.7951(3)
C11 C -0.25983(13) 0.18336(16) 0.4048(3)
C12 C 0.18433(12) -0.13517(16) 0.8472(3)
N13 N 0.05921(14) 0.21772(15) 0.6943(3)
C13 C 0.24637(13) -0.13819(16) 0.9725(3)
H7 H 0.2643 -0.1248 1.0221
C14 C 0.21105(13) -0.11578(15) 0.9239(3)
H8 H 0.2051 -0.0879 0.9424
C15 C -0.11839(14) 0.03989(16) 0.4618(3)
H9 H -0.0946 0.0541 0.4632
C16 C 0.22758(14) -0.19963(17) 0.8719(3)
H10 H 0.2327 -0.2283 0.8551
C17 C -0.15167(14) 0.06666(16) 0.4630(3)
C18 C -0.10791(15) 0.17983(17) 0.4768(3)
H11 H -0.1277 0.1924 0.4289
C19 C 0.03937(12) -0.17729(16) 0.6675(3)
C20 C -0.12003(14) -0.00604(16) 0.4586(3)
H12 H -0.0978 -0.0226 0.4576
C21 C -0.03417(12) -0.18257(16) 0.5918(3)
H13 H -0.0399 -0.1525 0.5984
C22 C -0.19213(14) -0.09875(17) 0.3928(3)
H14 H -0.2158 -0.0861 0.3552
C23 C 0.18603(13) 0.00353(16) 0.7772(3)
H15 H 0.2080 0.0168 0.7672
C24 C -0.18714(14) 0.13852(15) 0.4410(3)
C25 C -0.18672(13) 0.04375(17) 0.4633(3)
H16 H -0.2088 0.0600 0.4661
C26 C 0.31412(14) -0.19587(17) 1.0830(3)
H17 H 0.3087 -0.1761 1.1219
C27 C 0.10270(12) -0.17421(15) 0.7854(3)
H18 H 0.1208 -0.1871 0.8354
C28 C 0.18429(15) 0.14600(17) 0.7975(3)
H19 H 0.2023 0.1700 0.8111
C29 C -0.11398(14) 0.13721(16) 0.5066(3)
C30 C -0.08459(14) 0.11924(17) 0.5805(3)
H20 H -0.0887 0.0913 0.6020
C31 C 0.03964(18) 0.2590(2) 0.6844(4)
H21 H 0.0524 0.2864 0.7029
C32 C -0.18337(13) -0.14298(17) 0.4034(3)
H22 H -0.2001 -0.1663 0.3740
C33 C 0.30961(13) -0.23502(17) 0.9644(3)
H23 H 0.3002 -0.2462 0.9076
C34 C 0.11979(13) -0.03606(15) 0.8051(3)
H24 H 0.0977 -0.0494 0.8147
C35 C -0.13114(13) -0.10599(15) 0.4921(3)
H25 H -0.1063 -0.0991 0.5337
C36 C 0.15572(14) 0.03005(14) 0.7884(3)
C37 C -0.07294(15) 0.20342(16) 0.5175(4)
H26 H -0.0690 0.2316 0.4969
C38 C 0.18346(12) -0.04224(15) 0.7808(3)
H27 H 0.2040 -0.0597 0.7734
C39 C 0.04770(13) -0.13577(16) 0.6377(3)
H28 H 0.0293 -0.1227 0.5883
C40 C -0.19418(15) 0.16602(17) 0.5024(3)
H29 H -0.1742 0.1694 0.5568
C41 C 0.34626(14) -0.22362(17) 1.0986(3)
H30 H 0.3674 -0.2257 1.1516
C42 C -0.31620(13) 0.23068(15) 0.3159(3)
H31 H -0.3059 0.2355 0.2709
C43 C -0.04392(14) 0.18499(16) 0.5886(3)
C44 C 0.03018(16) 0.18780(17) 0.6605(4)
H32 H 0.0344 0.1570 0.6584
C45 C -0.04945(15) 0.14303(17) 0.6215(3)
H33 H -0.0297 0.1312 0.6703
C46 C -0.23008(14) 0.18847(18) 0.4848(3)
H34 H -0.2343 0.2071 0.5267
C47 C 0.25465(12) -0.18039(15) 0.9467(3)
C48 C 0.12852(15) 0.10764(16) 0.7490(3)
H35 H 0.1015 0.0997 0.7237
N14 N -0.00009(17) 0.2539(2) 0.6446(4)
C49 C -0.32147(17) 0.20647(19) 0.4390(3)
H36 H -0.3163 0.1921 0.4923
C50 C -0.35407(15) 0.23275(18) 0.3964(3)
H37 H -0.3752 0.2397 0.4164
C51 C -0.00070(19) -0.2455(2) 0.5997(6)
H38 H 0.0201 -0.2664 0.6120
C52 C -0.21630(16) 0.1349(2) 0.3596(3)
H39 H -0.2113 0.1176 0.3168
C53 C -0.25305(17) 0.15706(18) 0.3407(3)
H40 H -0.2728 0.1543 0.2860
C54 C -0.04036(17) -0.2530(2) 0.5570(5)
H41 H -0.0516 -0.2807 0.5348
Zn2 Zn -0.120540(14) -0.209070(17) 0.48790(3)
Zn1D Zn -0.118080(16) -0.209960(18) 0.27607(4)
Zn1G Zn -0.381920(16) 0.290040(18) 0.22393(4)
O1D O 0.13230(9) 0.23408(11) 0.6277(2)
N5G N -0.15649(11) -0.25189(13) 0.5261(2)
N10G N 0.14943(11) 0.25246(13) 0.8180(3)
Zn2G Zn 0.379460(14) -0.290930(17) 0.98790(3)
loop_
_geom_bond_atom_site_label_1
_geom_bond_atom_site_label_2
_geom_bond_site_symmetry_1
_geom_bond_site_symmetry_2
Zn1 N9 1_555 1_555
N1 C17 1_555 1_555
N2 C3 1_555 1_555
N3 C32 1_555 1_555
O1 Zn2 1_555 1_555
N4 C4 1_555 1_555
N5 C33 1_555 1_555
N6 C8 1_555 1_555
N7 C19 1_555 1_555
N8 C21 1_555 1_555
N9 C28 1_555 1_555
C1 C43 1_555 1_555
N10 C42 1_555 1_555
C2 H1 1_555 1_555
C3 C6 1_555 1_555
N11 C26 1_555 1_555
C4 H2 1_555 1_555
C5 H3 1_555 1_555
C6 H4 1_555 1_555
N12 C11 1_555 1_555
C7 H5 1_555 1_555
C8 C9 1_555 1_555
C9 H6 1_555 1_555
C10 N2 1_555 1_555
C11 C46 1_555 1_555
C12 N2 1_555 1_555
N13 Zn1 1_555 1_555
C13 H7 1_555 1_555
C14 C12 1_555 1_555
H8 C14 1_555 1_555
C15 H9 1_555 1_555
C16 C7 1_555 1_555
H10 C16 1_555 1_555
C17 C15 1_555 1_555
C18 H11 1_555 1_555
C19 C5 1_555 1_555
C20 C8 1_555 1_555
H12 C20 1_555 1_555
C21 N7 1_555 1_555
H13 C21 1_555 1_555
C22 N6 1_555 1_555
H14 C22 1_555 1_555
C23 H15 1_555 1_555
C24 N1 1_555 1_555
C25 C9 1_555 1_555
H16 C25 1_555 1_555
C26 H17 1_555 1_555
C27 C3 1_555 1_555
H18 C27 1_555 1_555
C28 C4 1_555 1_555
H19 C28 1_555 1_555
C29 N1 1_555 1_555
C30 C29 1_555 1_555
H20 C30 1_555 1_555
C31 N13 1_555 1_555
H21 C31 1_555 1_555
C32 C22 1_555 1_555
H22 C32 1_555 1_555
C33 N11 1_555 1_555
H23 C33 1_555 1_555
C34 C2 1_555 1_555
H24 C34 1_555 1_555
C35 N3 1_555 1_555
H25 C35 1_555 1_555
C36 N4 1_555 1_555
C37 C18 1_555 1_555
H26 C37 1_555 1_555
C38 C10 1_555 1_555
H27 C38 1_555 1_555
C39 C6 1_555 1_555
H28 C39 1_555 1_555
C40 C24 1_555 1_555
H29 C40 1_555 1_555
C41 N5 1_555 1_555
H30 C41 1_555 1_555
C42 N12 1_555 1_555
H31 C42 1_555 1_555
C43 C37 1_555 1_555
C44 C1 1_555 1_555
H32 C44 1_555 1_555
C45 C30 1_555 1_555
H33 C45 1_555 1_555
C46 C40 1_555 1_555
H34 C46 1_555 1_555
C47 N11 1_555 1_555
C48 N4 1_555 1_555
H35 C48 1_555 1_555
N14 C1 1_555 1_555
C49 N12 1_555 1_555
H36 C49 1_555 1_555
C50 N10 1_555 1_555
H37 C50 1_555 1_555
C51 N7 1_555 1_555
H38 C51 1_555 1_555
C52 C24 1_555 1_555
H39 C52 1_555 1_555
C53 C11 1_555 1_555
H40 C53 1_555 1_555
C54 N8 1_555 1_555
H41 C54 1_555 1_555
Zn2 N3 1_555 1_555
Cr1 O2 1_555 1_555
O3 Cr1 1_555 1_555
O4 Cr1 1_555 1_555
Cr2 O5 1_555 1_555
O5 Cr1 1_555 1_555
O6 Cr2 1_555 1_555
O7 Cr2 1_555 1_555
O8 Cr2 1_555 1_555
Zn1D O1 1_555 1_555
Zn1G N10 1_555 1_555
O1D Zn1 1_555 1_555
N5G Zn2 1_555 1_555
N10G Zn1 1_555 1_555
Zn2G N5 1_555 1_555
N6 C35 1_555 1_555
N8 Zn2 1_555 1_555
N9 C48 1_555 1_555
C2 C36 1_555 1_555
C5 C27 1_555 1_555
C7 C12 1_555 1_555
C10 C34 1_555 1_555
N13 C44 1_555 1_555
C13 C14 1_555 1_555
C13 C47 1_555 1_555
C15 C20 1_555 1_555
C16 C47 1_555 1_555
C17 C25 1_555 1_555
C18 C29 1_555 1_555
C19 C39 1_555 1_555
C23 C36 1_555 1_555
C23 C38 1_555 1_555
C26 C41 1_555 1_555
C31 N14 1_555 1_555
C43 C45 1_555 1_555
C49 C50 1_555 1_555
C51 C54 1_555 1_555
C52 C53 1_555 1_555

#END
