
#######################################################################
#
#                 Cambridge Crystallographic Data Centre
#                                CCDC 
#
#######################################################################
#
# If this CIF has been generated from an entry in the Cambridge 
# Structural Database, then it will include bibliographic, chemical, 
# crystal, experimental, refinement or atomic coordinate data resulting 
# from the CCDC's data processing and validation procedures.
#
#######################################################################

data_BOXBAS
_symmetry_cell_setting           monoclinic
_symmetry_space_group_name_H-M   'P 21'
_symmetry_Int_Tables_number      4
_space_group_name_Hall           'P 2yb'
loop_
_symmetry_equiv_pos_site_id
_symmetry_equiv_pos_as_xyz
1 x,y,z
2 -x,1/2+y,-z
_cell_length_a                   10.72(5)
_cell_length_b                   19.18(4)
_cell_length_c                   13.04(3)
_cell_angle_alpha                90
_cell_angle_beta                 97.59(1)
_cell_angle_gamma                90
_cell_volume                     2657.66
loop_
_atom_site_label
_atom_site_type_symbol
_atom_site_fract_x
_atom_site_fract_y
_atom_site_fract_z
Cu1 Cu -0.52097(10) 0.4319 0.19013(8)
Cu2 Cu -1.00976(10) 0.65115(8) -0.30432(8)
S1 S -1.0778(2) 0.6195(1) -0.0515(2)
S2 S -0.6357(2) 0.4188(1) 0.4330(2)
O1 O -0.6631(6) 0.4252(4) 0.0844(5)
O2 O -1.0388(7) 0.6874(4) -0.0188(6)
O3 O -1.1131(6) 0.6074(4) -0.1603(5)
O4 O -1.4856(6) 0.5303(4) 0.1761(5)
O5 O -1.0070(6) 0.5544(4) 0.6601(5)
O6 O -0.1703(7) 0.4644(4) 0.7176(6)
O7 O -0.6285(6) 0.4546(4) 0.3365(5)
O8 O -0.6579(7) 0.3453(4) 0.4289(5)
O9 O -1.1682(6) 0.6635(4) -0.3905(5)
O10 O -1.0521(8) 0.7070(5) -0.5035(6)
N1 N -0.5388(7) 0.3263(5) 0.2147(6)
N2 N -0.3539(7) 0.4145(5) 0.2832(5)
N3 N -1.0028(7) 0.7499(4) -0.2565(6)
N4 N -0.8388(7) 0.6515(5) -0.2140(6)
C1 C -0.7557(8) 0.4702(6) 0.0569(7)
C2 C -0.7799(9) 0.5321(7) 0.1145(8)
C3 C -0.8763(10) 0.5745(6) 0.0845(8)
C4 C -0.9581(8) 0.5599(5) -0.0095(7)
C5 C -0.9395(9) 0.5007(6) -0.0622(8)
C6 C -0.8414(10) 0.4556(5) -0.0311(7)
C7 C -1.3989(9) 0.5511(5) 0.1230(7)
C8 C -1.3288(10) 0.6138(6) 0.1499(8)
C9 C -1.2330(10) 0.6350(6) 0.0935(8)
C10 C -1.2063(9) 0.5980(5) 0.0080(7)
C11 C -1.2803(10) 0.5396(6) -0.0213(7)
C12 C -1.3715(9) 0.5177(6) 0.0334(7)
C13 C -0.6338(9) 0.2855(6) 0.1767(8)
C14 C -0.645(1) 0.2181(7) 0.2157(9)
C15 C -0.551(1) 0.1942(6) 0.2859(9)
C16 C -0.449(1) 0.2338(6) 0.3243(8)
C17 C -0.4463(8) 0.3021(5) 0.2865(7)
C18 C -0.264(1) 0.4565(6) 0.3146(9)
C19 C -0.161(1) 0.4370(8) 0.3867(10)
C20 C -0.1538(10) 0.3713(8) 0.4243(8)
C21 C -0.248(1) 0.3242(7) 0.3948(8)
C22 C -0.3482(9) 0.3472(6) 0.3204(7)
C23 C -0.345(1) 0.2150(7) 0.4013(9)
C24 C -0.249(1) 0.2529(7) 0.4311(9)
C25 C -0.9263(8) 0.5249(5) 0.6005(7)
C26 C -0.903(1) 0.4528(6) 0.6113(7)
C27 C -0.8191(9) 0.4208(5) 0.5591(8)
C28 C -0.7547(8) 0.4583(5) 0.4919(7)
C29 C -0.7816(10) 0.5301(6) 0.4777(8)
C30 C -0.871(1) 0.5633(6) 0.5299(8)
C31 C -0.2809(9) 0.4555(6) 0.6485(8)
C32 C -0.337(1) 0.3919(6) 0.6483(9)
C33 C -0.446(1) 0.3789(6) 0.5799(9)
C34 C -0.4963(9) 0.4306(6) 0.5189(6)
C35 C -0.437(1) 0.4997(6) 0.5188(8)
C36 C -0.3303(9) 0.5099(6) 0.5863(9)
C37 C -1.0924(9) 0.7995(5) -0.2804(8)
C38 C -1.080(1) 0.8672(6) -0.2323(10)
C39 C -0.976(1) 0.8803(7) -0.160(1)
C40 C -0.884(1) 0.8293(6) -0.1372(8)
C41 C -0.9020(9) 0.7654(6) -0.1867(7)
C42 C -0.7572(10) 0.5989(6) -0.1935(8)
C43 C -0.649(1) 0.6081(8) -0.1201(10)
C44 C -0.621(1) 0.6665(8) -0.0750(8)
C45 C -0.7049(9) 0.7213(8) -0.0935(8)
C46 C -0.8131(9) 0.7108(6) -0.1646(6)
C47 C -0.769(1) 0.8352(7) -0.0639(9)
C48 C -0.686(1) 0.7850(8) -0.045(1)
C49 C -1.157(1) 0.6884(6) -0.4805(8)
C50 C -1.276(1) 0.6943(9) -0.5561(9)
H1 H -0.7252 0.5429 0.1758
H2 H -0.8908 0.6141 0.1250
H3 H -0.9959 0.4899 -0.1226
H4 H -0.8320 0.4143 -0.0696
H5 H -1.3477 0.6411 0.2066
H6 H -1.1855 0.6756 0.1143
H7 H -1.2660 0.5145 -0.0814
H8 H -1.4192 0.4777 0.0098
H9 H -0.6946 0.3021 0.1226
H10 H -0.7166 0.1901 0.1934
H11 H -0.5556 0.1476 0.3099
H12 H -0.2670 0.5026 0.2879
H13 H -0.0968 0.4698 0.4090
H14 H -0.0829 0.3577 0.4716
H15 H -0.3480 0.1704 0.4326
H16 H -0.1796 0.2346 0.4760
H17 H -0.9478 0.4263 0.6561
H18 H -0.8038 0.3723 0.5684
H19 H -0.7382 0.5563 0.4316
H20 H -0.8921 0.6109 0.5171
H21 H -0.3029 0.3565 0.6947
H22 H -0.4832 0.3340 0.5764
H23 H -0.4718 0.5357 0.4738
H24 H -0.2900 0.5541 0.5906
H25 H -1.1639 0.7895 -0.3294
H26 H -1.1420 0.9021 -0.2496
H27 H -0.9667 0.9243 -0.1266
H28 H -0.7718 0.5556 -0.2283
H29 H -0.5956 0.5692 -0.1033
H30 H -0.5441 0.6720 -0.0301
H31 H -0.7533 0.8780 -0.0277
H32 H -0.6117 0.7926 0.0026
Cu1_2 Cu -1.52097(10) 0.4319 0.19013(8)
Cu2_2 Cu -1.00976(10) 0.65115(8) 0.69568(8)
O4_2 O -0.4856(6) 0.5303(4) 0.1761(5)
O5_2 O -1.0070(6) 0.5544(4) -0.3399(5)
O11 O -1.0610 0.7890 -0.6755
C51 C -0.9702 0.7675 -0.7310
C52 C -0.9610 0.8029 -0.8290
H33 H -0.8917 0.7732 -0.6886
H34 H -0.9843 0.7195 -0.7458
H35 H -0.9313 0.8491 -0.8157
H36 H -0.9041 0.7783 -0.8658
H37 H -1.0417 0.8043 -0.8691
O12 O -1.5547 0.6179 0.3387
C53 C -1.6255 0.6754 0.3076
C54 C -1.6293 0.7032 0.2094
H38 H -1.7100 0.6640 0.3155
H39 H -1.5967 0.7117 0.3543
H40 H -1.5469 0.7168 0.1983
H41 H -1.6604 0.6692 0.1596
H42 H -1.6831 0.7428 0.2030
O13 O -0.5892 0.3311 -0.0700
C55 C -0.6216 0.3560 -0.1700
C56 C -0.5948 0.4315 -0.1962
H43 H -0.5785 0.3277 -0.2137
H44 H -0.7097 0.3493 -0.1867
H45 H -0.5069 0.4401 -0.1823
H46 H -0.6227 0.4398 -0.2673
H47 H -0.6382 0.4617 -0.1552
loop_
_geom_bond_atom_site_label_1
_geom_bond_atom_site_label_2
_geom_bond_site_symmetry_1
_geom_bond_site_symmetry_2
Cu1 O1 1_555 1_555
Cu2 O3 1_555 1_555
S1 O2 1_555 1_555
S2 O7 1_555 1_555
O1 C1 1_555 1_555
O3 S1 1_555 1_555
O4 C7 1_555 1_555
O5 C25 1_555 1_555
O6 C31 1_555 1_555
O7 Cu1 1_555 1_555
O8 S2 1_555 1_555
O9 Cu2 1_555 1_555
O10 C49 1_555 1_555
O11 C51 1_555 1_555
O12 C53 1_555 1_555
O13 C55 1_555 1_555
N1 Cu1 1_555 1_555
N2 Cu1 1_555 1_555
N3 Cu2 1_555 1_555
N4 Cu2 1_555 1_555
C1 C2 1_555 1_555
C2 C3 1_555 1_555
C3 C4 1_555 1_555
C4 S1 1_555 1_555
C5 C4 1_555 1_555
C6 C1 1_555 1_555
C7 C8 1_555 1_555
C8 C9 1_555 1_555
C9 C10 1_555 1_555
C10 S1 1_555 1_555
C11 C10 1_555 1_555
C12 C7 1_555 1_555
C13 N1 1_555 1_555
C14 C13 1_555 1_555
C15 C14 1_555 1_555
C16 C15 1_555 1_555
C17 N1 1_555 1_555
C18 N2 1_555 1_555
C19 C18 1_555 1_555
C20 C19 1_555 1_555
C21 C20 1_555 1_555
C22 N2 1_555 1_555
C23 C16 1_555 1_555
C24 C21 1_555 1_555
C25 C26 1_555 1_555
C26 C27 1_555 1_555
C27 C28 1_555 1_555
C28 S2 1_555 1_555
C29 C28 1_555 1_555
C30 C25 1_555 1_555
C31 C32 1_555 1_555
C32 C33 1_555 1_555
C33 C34 1_555 1_555
C34 S2 1_555 1_555
C35 C34 1_555 1_555
C36 C31 1_555 1_555
C37 N3 1_555 1_555
C38 C37 1_555 1_555
C39 C38 1_555 1_555
C40 C39 1_555 1_555
C41 N3 1_555 1_555
C42 N4 1_555 1_555
C43 C42 1_555 1_555
C44 C43 1_555 1_555
C45 C44 1_555 1_555
C46 N4 1_555 1_555
C47 C40 1_555 1_555
C48 C45 1_555 1_555
C49 O9 1_555 1_555
C50 C49 1_555 1_555
C51 C52 1_555 1_555
C52 H35 1_555 1_555
C53 C54 1_555 1_555
C54 H40 1_555 1_555
C55 C56 1_555 1_555
C56 H45 1_555 1_555
H1 C2 1_555 1_555
H2 C3 1_555 1_555
H3 C5 1_555 1_555
H4 C6 1_555 1_555
H5 C8 1_555 1_555
H6 C9 1_555 1_555
H7 C11 1_555 1_555
H8 C12 1_555 1_555
H9 C13 1_555 1_555
H10 C14 1_555 1_555
H11 C15 1_555 1_555
H12 C18 1_555 1_555
H13 C19 1_555 1_555
H14 C20 1_555 1_555
H15 C23 1_555 1_555
H16 C24 1_555 1_555
H17 C26 1_555 1_555
H18 C27 1_555 1_555
H19 C29 1_555 1_555
H20 C30 1_555 1_555
H21 C32 1_555 1_555
H22 C33 1_555 1_555
H23 C35 1_555 1_555
H24 C36 1_555 1_555
H25 C37 1_555 1_555
H26 C38 1_555 1_555
H27 C39 1_555 1_555
H28 C42 1_555 1_555
H29 C43 1_555 1_555
H30 C44 1_555 1_555
H31 C47 1_555 1_555
H32 C48 1_555 1_555
H33 C51 1_555 1_555
H34 C51 1_555 1_555
H36 C52 1_555 1_555
H37 C52 1_555 1_555
H38 C53 1_555 1_555
H39 C53 1_555 1_555
H41 C54 1_555 1_555
H42 C54 1_555 1_555
H43 C55 1_555 1_555
H44 C55 1_555 1_555
H46 C56 1_555 1_555
H47 C56 1_555 1_555
Cu1_2 O4 1_555 1_555
Cu2_2 O5 1_555 1_555
O4_2 Cu1 1_555 1_555
O5_2 Cu2 1_555 1_555
C5 C6 1_555 1_555
C11 C12 1_555 1_555
C16 C17 1_555 1_555
C17 C22 1_555 1_555
C21 C22 1_555 1_555
C23 C24 1_555 1_555
C29 C30 1_555 1_555
C35 C36 1_555 1_555
C40 C41 1_555 1_555
C41 C46 1_555 1_555
C45 C46 1_555 1_555
C47 C48 1_555 1_555

#END
