
#######################################################################
#
#                 Cambridge Crystallographic Data Centre
#                                CCDC 
#
#######################################################################
#
# If this CIF has been generated from an entry in the Cambridge 
# Structural Database, then it will include bibliographic, chemical, 
# crystal, experimental, refinement or atomic coordinate data resulting 
# from the CCDC's data processing and validation procedures.
#
#######################################################################

data_BOXCEY
_symmetry_cell_setting           triclinic
_symmetry_space_group_name_H-M   'P -1'
_symmetry_Int_Tables_number      2
_space_group_name_Hall           '-P 1'
loop_
_symmetry_equiv_pos_site_id
_symmetry_equiv_pos_as_xyz
1 x,y,z
2 -x,-y,-z
_cell_length_a                   10.087(4)
_cell_length_b                   11.412(4)
_cell_length_c                   14.137(6)
_cell_angle_alpha                112.294(10)
_cell_angle_beta                 95.693(9)
_cell_angle_gamma                99.292(9)
_cell_volume                     1462.83
loop_
_atom_site_label
_atom_site_type_symbol
_atom_site_fract_x
_atom_site_fract_y
_atom_site_fract_z
I1 I 0.28372(6) -0.61021(6) 0.46899(5)
Cu1 Cu 0.45575(11) -0.40888(11) 0.47052(8)
Si1 Si 0.6778(2) 0.1178(2) 0.75754(18)
C1 C 0.8090(9) 0.0825(9) 0.6745(7)
H1 H 0.8243 -0.0044 0.6622
H2 H 0.8944 0.1468 0.7093
H3 H 0.7780 0.0863 0.6081
C2 C 0.5164(9) -0.0032(9) 0.6882(6)
C3 C 0.5177(10) -0.1370(9) 0.6302(7)
H4 H 0.6029 -0.1610 0.6369
N1 N 0.4135(8) -0.2310(8) 0.5681(6)
C4 C 0.2889(9) -0.1983(8) 0.5582(6)
C5 C 0.1773(9) -0.2923(9) 0.4920(7)
H5 H 0.1877 -0.3783 0.4550
C6 C 0.0524(9) -0.2622(9) 0.4794(7)
H6 H -0.0233 -0.3273 0.4343
C7 C 0.0364(9) -0.1344(9) 0.5334(7)
H7 H -0.0504 -0.1145 0.5236
C8 C 0.1420(9) -0.0392(10) 0.5990(7)
H8 H 0.1285 0.0459 0.6347
C9 C 0.2748(9) -0.0674(9) 0.6145(7)
C10 C 0.3896(9) 0.0272(9) 0.6774(7)
H9 H 0.3805 0.1139 0.7134
C11 C 0.7395(9) 0.1117(8) 0.8840(6)
C12 C 0.6515(9) 0.0645(8) 0.9417(6)
H10 H 0.5566 0.0377 0.9141
N2 N 0.6910(7) 0.0554(8) 1.0291(6)
C13 C 0.8271(9) 0.0963(9) 1.0704(7)
C14 C 0.8713(10) 0.0909(10) 1.1670(7)
H11 H 0.8078 0.0556 1.1996
C15 C 1.0066(10) 0.1369(10) 1.2131(7)
H12 H 1.0356 0.1344 1.2782
C16 C 1.1032(9) 0.1880(10) 1.1645(7)
H13 H 1.1959 0.2204 1.1980
C17 C 1.0648(9) 0.1912(10) 1.0710(7)
H14 H 1.1310 0.2225 1.0381
C18 C 0.9250(9) 0.1474(9) 1.0222(7)
C19 C 0.8766(9) 0.1530(9) 0.9275(7)
H15 H 0.9392 0.1858 0.8929
C20 C 0.6391(9) 0.2801(9) 0.7744(6)
C21 C 0.6028(9) 0.2986(9) 0.6833(7)
H16 H 0.6002 0.2283 0.6192
N3 N 0.5717(8) 0.4055(8) 0.6783(6)
C22 C 0.5694(9) 0.5043(9) 0.7689(7)
C23 C 0.5278(9) 0.6185(9) 0.7689(8)
H17 H 0.5016 0.6249 0.7049
C24 C 0.5257(10) 0.7181(10) 0.8602(8)
H18 H 0.4930 0.7912 0.8591
C25 C 0.5715(9) 0.7140(10) 0.9561(8)
H19 H 0.5755 0.7865 1.0191
C26 C 0.6099(9) 0.6059(9) 0.9585(7)
H20 H 0.6375 0.6032 1.0238
C27 C 0.6096(9) 0.4983(9) 0.8670(7)
C28 C 0.6441(9) 0.3818(9) 0.8663(7)
H21 H 0.6707 0.3749 0.9300
I1A I 0.71628(6) -0.38979(6) 0.53101(5)
Cu1A Cu 0.54425(11) -0.59112(11) 0.52948(8)
Cu1A_2 Cu 0.54425(11) 0.40888(11) 0.52948(8)
N3A N 0.4283(8) -0.4055(8) 0.3217(6)
O1 O 0.2090(10) 0.2808(8) 0.7859(6)
C29 C 0.2091(11) 0.3690(11) 0.7564(8)
H22 H 0.2623 0.3702 0.7048
N4 N 0.1409(9) 0.4633(9) 0.7907(7)
C30 C 0.1482(13) 0.5646(12) 0.7507(10)
H23 H 0.2065 0.5486 0.6976
H24 H 0.1868 0.6493 0.8077
H25 H 0.0564 0.5638 0.7201
C31 C 0.0552(14) 0.4672(13) 0.8666(10)
H26 H 0.0584 0.3938 0.8860
H27 H -0.0389 0.4620 0.8374
H28 H 0.0877 0.5486 0.9283
loop_
_geom_bond_atom_site_label_1
_geom_bond_atom_site_label_2
_geom_bond_site_symmetry_1
_geom_bond_site_symmetry_2
I1 Cu1 1_555 1_555
Cu1 N1 1_555 1_555
Si1 C1 1_555 1_555
C1 H1 1_555 1_555
H2 C1 1_555 1_555
H3 C1 1_555 1_555
C2 Si1 1_555 1_555
C3 C2 1_555 1_555
H4 C3 1_555 1_555
N1 C3 1_555 1_555
C4 N1 1_555 1_555
C5 C4 1_555 1_555
H5 C5 1_555 1_555
C6 C5 1_555 1_555
H6 C6 1_555 1_555
C7 C6 1_555 1_555
H7 C7 1_555 1_555
C8 C7 1_555 1_555
H8 C8 1_555 1_555
C9 C4 1_555 1_555
C10 C2 1_555 1_555
H9 C10 1_555 1_555
C11 Si1 1_555 1_555
C12 C11 1_555 1_555
H10 C12 1_555 1_555
N2 C12 1_555 1_555
C13 N2 1_555 1_555
C14 C13 1_555 1_555
H11 C14 1_555 1_555
C15 C14 1_555 1_555
H12 C15 1_555 1_555
C16 C15 1_555 1_555
H13 C16 1_555 1_555
C17 C16 1_555 1_555
H14 C17 1_555 1_555
C18 C13 1_555 1_555
C19 C11 1_555 1_555
H15 C19 1_555 1_555
C20 Si1 1_555 1_555
C21 C20 1_555 1_555
H16 C21 1_555 1_555
N3 C21 1_555 1_555
C22 N3 1_555 1_555
C23 C22 1_555 1_555
H17 C23 1_555 1_555
C24 C23 1_555 1_555
H18 C24 1_555 1_555
C25 C24 1_555 1_555
H19 C25 1_555 1_555
C26 C25 1_555 1_555
H20 C26 1_555 1_555
C27 C22 1_555 1_555
C28 C20 1_555 1_555
H21 C28 1_555 1_555
O1 C29 1_555 1_555
C29 H22 1_555 1_555
N4 C29 1_555 1_555
C30 N4 1_555 1_555
H23 C30 1_555 1_555
H24 C30 1_555 1_555
H25 C30 1_555 1_555
C31 N4 1_555 1_555
H26 C31 1_555 1_555
H27 C31 1_555 1_555
H28 C31 1_555 1_555
I1A Cu1 1_555 1_555
Cu1A I1 1_555 1_555
Cu1A_2 N3 1_555 1_555
N3A Cu1 1_555 1_555
C8 C9 1_555 1_555
C9 C10 1_555 1_555
C17 C18 1_555 1_555
C18 C19 1_555 1_555
C26 C27 1_555 1_555
C27 C28 1_555 1_555
I1A Cu1A 1_555 1_555

#END
