
#######################################################################
#
#                 Cambridge Crystallographic Data Centre
#                                CCDC 
#
#######################################################################
#
# If this CIF has been generated from an entry in the Cambridge 
# Structural Database, then it will include bibliographic, chemical, 
# crystal, experimental, refinement or atomic coordinate data resulting 
# from the CCDC's data processing and validation procedures.
#
#######################################################################

data_BOXDEZ
_symmetry_cell_setting           triclinic
_symmetry_space_group_name_H-M   'P -1'
_symmetry_Int_Tables_number      2
_space_group_name_Hall           '-P 1'
loop_
_symmetry_equiv_pos_site_id
_symmetry_equiv_pos_as_xyz
1 x,y,z
2 -x,-y,-z
_cell_length_a                   5.80769(11)
_cell_length_b                   7.00288(14)
_cell_length_c                   14.43082(29)
_cell_angle_alpha                96.6474(15)
_cell_angle_beta                 93.8598(15)
_cell_angle_gamma                112.4334(12)
_cell_volume                     534.86
loop_
_atom_site_label
_atom_site_type_symbol
_atom_site_fract_x
_atom_site_fract_y
_atom_site_fract_z
P1 P 0.8889(9) 0.2312(8) 0.35927(33)
O1 O 0.6567(14) 0.2577(13) 0.3917(6)
O2 O 1.1300(14) 0.3646(12) 0.4189(5)
O3 O 0.8486(15) -0.0029(11) 0.3389(6)
C1 C 0.9128(18) 0.3270(17) 0.2415(6)
O4 O 0.6925(15) 0.2320(14) 0.1787(6)
C2 C 1.1221(19) 0.3040(23) 0.1875(7)
O5 O 1.3389(15) 0.3717(14) 0.2345(6)
O6 O 1.0607(15) 0.2324(13) 0.0987(6)
Li1 Li 0.2933(33) 0.6735(25) 0.4617(11)
Li2 Li 0.4519(31) 0.4193(27) 0.3686(12)
O7 O 0.6365(16) 0.7066(13) 0.4291(6)
O8 O 0.2297(16) 0.8792(12) 0.3911(6)
Li3 Li 0.3172(29) 0.1035(23) 0.1320(11)
O9 O 0.3854(14) 0.1501(12) -0.0063(6)
O10 O 0.1487(15) -0.2535(13) 0.0868(6)
O1A O 0.3433(14) 0.7423(13) 0.6083(6)
O2_2 O 0.1300(14) 0.3646(12) 0.4189(5)
O5_2 O 0.3389(15) 0.3717(14) 0.2345(6)
O6_2 O 0.0607(15) 0.2324(13) 0.0987(6)
Li1_2 Li 1.2933(33) 0.6735(25) 0.4617(11)
Li1A Li 0.7067(33) 0.3265(25) 0.5383(11)
Li2_2 Li 1.4519(31) 0.4193(27) 0.3686(12)
Li3_2 Li 1.3172(29) 0.1035(23) 0.1320(11)
O11 O 0.6933(15) 0.7276(13) 0.1761(5)
loop_
_geom_bond_atom_site_label_1
_geom_bond_atom_site_label_2
_geom_bond_site_symmetry_1
_geom_bond_site_symmetry_2
P1 O1 1_555 1_555
O1 Li2 1_555 1_555
O2 P1 1_555 1_555
O3 P1 1_555 1_555
C1 P1 1_555 1_555
O4 C1 1_555 1_555
C2 C1 1_555 1_555
O5 C2 1_555 1_555
O6 C2 1_555 1_555
Li1 O7 1_555 1_555
Li2 O7 1_555 1_555
O8 Li1 1_555 1_555
Li3 O4 1_555 1_555
O9 Li3 1_555 1_555
O10 Li3 1_555 1_555
O1A Li1 1_555 1_555
O2_2 Li1 1_555 1_555
O5_2 Li2 1_555 1_555
O6_2 Li3 1_555 1_555
Li1_2 O2 1_555 1_555
Li1A O1 1_555 1_555
Li2_2 O2 1_555 1_555
Li3_2 O5 1_555 1_555
O5 Li2_2 1_555 1_555
O6 Li3_2 1_555 1_555
Li2 O2_2 1_555 1_555
Li3 O5_2 1_555 1_555

#END
