
#######################################################################
#
#                 Cambridge Crystallographic Data Centre
#                                CCDC 
#
#######################################################################
#
# If this CIF has been generated from an entry in the Cambridge 
# Structural Database, then it will include bibliographic, chemical, 
# crystal, experimental, refinement or atomic coordinate data resulting 
# from the CCDC's data processing and validation procedures.
#
#######################################################################

data_BOXMOS
_symmetry_cell_setting           triclinic
_symmetry_space_group_name_H-M   'P -1'
_symmetry_Int_Tables_number      2
_space_group_name_Hall           '-P 1'
loop_
_symmetry_equiv_pos_site_id
_symmetry_equiv_pos_as_xyz
1 x,y,z
2 -x,-y,-z
_cell_length_a                   5.1980(7)
_cell_length_b                   7.9319(11)
_cell_length_c                   10.4417(14)
_cell_angle_alpha                80.803(2)
_cell_angle_beta                 84.223(2)
_cell_angle_gamma                79.808(2)
_cell_volume                     417.109
loop_
_atom_site_label
_atom_site_type_symbol
_atom_site_fract_x
_atom_site_fract_y
_atom_site_fract_z
Sr1 Sr 0.5000 1.0000 0.5000
Zn1 Zn 0.0000 0.0000 1.0000
N1 N 0.0516(4) 0.2356(2) 0.88469(18)
O1 O 0.2161(3) 0.8120(2) 0.64887(16)
O2 O 0.3185(3) -0.1346(2) 0.88898(16)
H1 H 0.2853 -0.1432 0.8183
H2 H 0.4534 -0.0831 0.8785
C1 C 0.0445(4) 0.7241(3) 0.6357(2)
C2 C 0.0538(4) 0.5481(3) 0.7205(2)
C3 C -0.1031(4) 0.4313(3) 0.6992(2)
H3 H -0.2110 0.4575 0.6304
C4 C -0.0964(4) 0.2761(3) 0.7815(2)
C5 C 0.2134(5) 0.5016(3) 0.8228(2)
H4 H 0.3257 0.5746 0.8374
C6 C 0.2050(5) 0.3464(3) 0.9031(2)
H5 H 0.3105 0.3179 0.9728
O3 O -0.1339(3) 0.7678(2) 0.56083(18)
C7 C -0.2562(4) 0.1397(3) 0.7651(2)
O4 O -0.2473(3) 0.0090(2) 0.85344(16)
O5 O -0.3882(3) 0.1632(2) 0.66906(16)
N1A N -0.0516(4) -0.2356(2) 1.11531(18)
O1A O -0.2161(3) -0.8120(2) 1.35113(16)
O2A O -0.3185(3) 0.1346(2) 1.11102(16)
H1A H -0.2853 0.1432 1.1817
H2A H -0.4534 0.0831 1.1215
C1A C -0.0445(4) -0.7241(3) 1.3643(2)
C2A C -0.0538(4) -0.5481(3) 1.2795(2)
C3A C 0.1031(4) -0.4313(3) 1.3008(2)
H3A H 0.2110 -0.4575 1.3696
C4A C 0.0964(4) -0.2761(3) 1.2185(2)
C5A C -0.2134(5) -0.5016(3) 1.1772(2)
H4A H -0.3257 -0.5746 1.1626
C6A C -0.2050(5) -0.3464(3) 1.0969(2)
H5A H -0.3105 -0.3179 1.0272
O3A O 0.1339(3) -0.7678(2) 1.43917(18)
C7A C 0.2562(4) -0.1397(3) 1.2349(2)
O4A O 0.2473(3) -0.0090(2) 1.14656(16)
O5A O 0.3882(3) -0.1632(2) 1.33094(16)
Sr1_2 Sr -0.5000 -1.0000 1.5000
Sr1_3 Sr -0.5000 0.0000 0.5000
Sr1_4 Sr -0.5000 1.0000 0.5000
Sr1_5 Sr 0.5000 -1.0000 1.5000
Sr1_6 Sr 0.5000 0.0000 1.5000
O1A_2 O 0.7839(3) 1.1880(2) 0.35113(16)
O3_2 O 0.8661(3) 0.7678(2) 0.56083(18)
O3A_2 O 0.1339(3) 1.2322(2) 0.43917(18)
O5_2 O 0.6118(3) 1.1632(2) 0.66906(16)
O5A_2 O 0.3882(3) 0.8368(2) 0.33094(16)
loop_
_geom_bond_atom_site_label_1
_geom_bond_atom_site_label_2
_geom_bond_site_symmetry_1
_geom_bond_site_symmetry_2
Sr1 O1 1_555 1_555
Zn1 N1 1_555 1_555
N1 C4 1_555 1_555
O1 C1 1_555 1_555
O2 Zn1 1_555 1_555
H1 O2 1_555 1_555
H2 O2 1_555 1_555
C1 C2 1_555 1_555
C2 C3 1_555 1_555
C3 H3 1_555 1_555
C4 C3 1_555 1_555
C5 C2 1_555 1_555
H4 C5 1_555 1_555
C6 N1 1_555 1_555
H5 C6 1_555 1_555
O3 C1 1_555 1_555
C7 C4 1_555 1_555
O4 Zn1 1_555 1_555
O5 C7 1_555 1_555
N1A Zn1 1_555 1_555
O1A C1A 1_555 1_555
O2A Zn1 1_555 1_555
H1A O2A 1_555 1_555
H2A O2A 1_555 1_555
C1A C2A 1_555 1_555
C2A C3A 1_555 1_555
C3A H3A 1_555 1_555
C4A N1A 1_555 1_555
C5A C2A 1_555 1_555
H4A C5A 1_555 1_555
C6A N1A 1_555 1_555
H5A C6A 1_555 1_555
O3A C1A 1_555 1_555
C7A C4A 1_555 1_555
O4A Zn1 1_555 1_555
O5A C7A 1_555 1_555
Sr1_2 O1A 1_555 1_555
Sr1_3 O5 1_555 1_555
Sr1_4 O3 1_555 1_555
Sr1_5 O3A 1_555 1_555
Sr1_6 O5A 1_555 1_555
O1A_2 Sr1 1_555 1_555
O3_2 Sr1 1_555 1_555
O3A_2 Sr1 1_555 1_555
O5_2 Sr1 1_555 1_555
O5A_2 Sr1 1_555 1_555
C5 C6 1_555 1_555
C7 O4 1_555 1_555
C3A C4A 1_555 1_555
C5A C6A 1_555 1_555
C7A O4A 1_555 1_555

#END
