
#######################################################################
#
#                 Cambridge Crystallographic Data Centre
#                                CCDC 
#
#######################################################################
#
# If this CIF has been generated from an entry in the Cambridge 
# Structural Database, then it will include bibliographic, chemical, 
# crystal, experimental, refinement or atomic coordinate data resulting 
# from the CCDC's data processing and validation procedures.
#
#######################################################################

data_BOXMIM
_symmetry_cell_setting           triclinic
_symmetry_space_group_name_H-M   'P -1'
_symmetry_Int_Tables_number      2
_space_group_name_Hall           '-P 1'
loop_
_symmetry_equiv_pos_site_id
_symmetry_equiv_pos_as_xyz
1 x,y,z
2 -x,-y,-z
_cell_length_a                   9.3705(8)
_cell_length_b                   10.0674(8)
_cell_length_c                   14.2343(12)
_cell_angle_alpha                108.845(2)
_cell_angle_beta                 92.738(2)
_cell_angle_gamma                99.9240(10)
_cell_volume                     1244.09
loop_
_atom_site_label
_atom_site_type_symbol
_atom_site_fract_x
_atom_site_fract_y
_atom_site_fract_z
Sr1 Sr 0.06019(3) 0.99683(3) 0.27436(2)
O1 O -0.1903(2) 0.9311(2) 0.17905(18)
O2 O 0.1898(2) 1.1446(2) 0.45497(16)
O3 O 0.0324(3) 0.7271(2) 0.16790(18)
O4 O -0.0076(3) 0.8403(3) 0.3832(2)
O5 O -0.12340(17) 1.13215(18) 0.38426(13)
O6 O 0.15301(17) 1.26289(18) 0.27580(13)
O7 O 0.0941(3) 0.9881(3) 0.09244(18)
O8 O 0.3364(2) 0.9953(2) 0.27293(16)
C1 C -0.2952(3) 0.9321(3) 0.1247(2)
C2 C 0.2924(3) 1.2489(3) 0.4837(2)
H1 H 0.0043 0.7175 0.1080
H2 H -0.0218 0.6636 0.1847
H3 H -0.0439 0.8790 0.4365
H4 H -0.0338 0.7501 0.3680
H5 H -0.2075 1.0916 0.3532
H6 H -0.1005 1.2185 0.3863
H7 H 0.2004 1.3064 0.3331
H8 H 0.2042 1.2527 0.2272
H9 H 0.1749 0.9966 0.0682
H10 H 0.0367 0.9125 0.0548
O9 O -0.3035(2) 1.0286(2) 0.08588(16)
C3 C -0.4256(3) 0.8113(3) 0.1015(2)
O10 O 0.2992(2) 1.3629(2) 0.46200(17)
C4 C 0.4213(3) 1.2417(3) 0.5484(2)
Zn1 Zn -0.5000 1.0000 0.0000
N1 N -0.5394(2) 0.8193(2) 0.04391(17)
C5 C -0.4289(3) 0.7007(3) 0.1385(2)
Zn2 Zn 0.5000 1.5000 0.5000
N2 N 0.5374(3) 1.3479(2) 0.56534(17)
C6 C 0.4207(3) 1.1297(3) 0.5841(2)
O11 O -0.5949(3) 1.1170(2) 0.12743(16)
C7 C -0.6576(3) 0.7161(3) 0.0226(2)
H11 H -0.3481 0.6977 0.1778
C8 C -0.5521(3) 0.5938(3) 0.1172(2)
O12 O 0.5747(3) 1.3720(2) 0.36460(17)
C9 C 0.6567(3) 1.3438(3) 0.6176(2)
H12 H 0.3383 1.0574 0.5708
C10 C 0.5437(3) 1.1257(3) 0.6397(2)
H13 H -0.5986 1.1121 0.1858
H14 H -0.5975 1.2050 0.1406
C11 C -0.6692(3) 0.6028(3) 0.0581(2)
H15 H -0.7361 0.7205 -0.0181
C12 C -0.5586(3) 0.4720(3) 0.1592(2)
H16 H 0.5620 1.2815 0.3489
H17 H 0.5444 1.3836 0.3111
C13 C 0.6640(3) 1.2354(3) 0.6569(2)
H18 H 0.7384 1.4162 0.6283
C14 C 0.5471(3) 1.0042(3) 0.6800(2)
H19 H -0.7544 0.5335 0.0426
O13 O -0.4486(3) 0.4747(3) 0.2130(2)
O14 O -0.6717(3) 0.3774(2) 0.13770(19)
H20 H 0.7485 1.2363 0.6943
O15 O 0.4333(2) 0.9115(2) 0.66380(17)
N1A N -0.4606(2) 1.1807(2) -0.04391(17)
O9A O -0.6965(2) 0.9714(2) -0.08588(16)
O11A O -0.4051(3) 0.8830(2) -0.12743(16)
O12A O 0.4253(3) 1.6280(2) 0.63540(17)
N2A N 0.4626(3) 1.6521(2) 0.43466(17)
O10A O 0.7008(2) 1.6371(2) 0.53800(17)
C3A C -0.5744(3) 1.1887(3) -0.1015(2)
C7A C -0.3424(3) 1.2839(3) -0.0226(2)
C1A C -0.7048(3) 1.0679(3) -0.1247(2)
H13A H -0.4014 0.8879 -0.1858
H14A H -0.4025 0.7950 -0.1406
H16A H 0.4380 1.7185 0.6511
H17A H 0.4556 1.6164 0.6889
C5A C -0.5711(3) 1.2993(3) -0.1385(2)
C11A C -0.3308(3) 1.3972(3) -0.0581(2)
H15A H -0.2639 1.2795 0.0181
O1A O -0.8097(2) 1.0689(2) -0.17905(18)
O8A O 0.6636(2) 1.0047(2) 0.72707(16)
H11A H -0.6519 1.3023 -0.1778
C8A C -0.4479(3) 1.4062(3) -0.1172(2)
H19A H -0.2456 1.4665 -0.0426
Sr1A Sr -1.06019(3) 1.00317(3) -0.27436(2)
Sr1A_2 Sr 0.93981(3) 1.00317(3) 0.72564(2)
C12A C -0.4414(3) 1.5280(3) -0.1592(2)
O2A O -1.1898(2) 0.8554(2) -0.45497(16)
O3A O -1.0324(3) 1.2729(2) -0.16790(18)
O4A O -0.9924(3) 1.1597(3) -0.3832(2)
O5A O -0.87660(17) 0.86785(18) -0.38426(13)
O6A O -1.15301(17) 0.73711(18) -0.27580(13)
O7A O -1.0941(3) 1.0119(3) -0.09244(18)
O8A_2 O -1.3364(2) 1.0047(2) -0.27293(16)
O13A O -0.5514(3) 1.5253(3) -0.2130(2)
O14A O -0.3283(3) 1.6226(2) -0.13770(19)
C2A C -1.2924(3) 0.7511(3) -0.4837(2)
H1A H -1.0043 1.2825 -0.1080
H2A H -0.9782 1.3364 -0.1847
H3A H -0.9561 1.1210 -0.4365
H4A H -0.9662 1.2499 -0.3680
H5A H -0.7925 0.9084 -0.3532
H6A H -0.8995 0.7815 -0.3863
H7A H -1.2004 0.6936 -0.3331
H8A H -1.2042 0.7473 -0.2272
H9A H -1.1749 1.0034 -0.0682
H10A H -1.0367 1.0875 -0.0548
O10A_2 O -1.2992(2) 0.6371(2) -0.46200(17)
C4A C -1.4213(3) 0.7583(3) -0.5484(2)
Zn2_2 Zn -1.5000 0.5000 -0.5000
N2A_2 N -1.5374(3) 0.6521(2) -0.56534(17)
C6A C -1.4207(3) 0.8703(3) -0.5841(2)
C9A C -1.6567(3) 0.6562(3) -0.6176(2)
H12A H -1.3383 0.9426 -0.5708
C10A C -1.5437(3) 0.8743(3) -0.6397(2)
C13A C -1.6640(3) 0.7646(3) -0.6569(2)
H18A H -1.7384 0.5838 -0.6283
C14A C -1.5471(3) 0.9958(3) -0.6800(2)
H20A H -1.7485 0.7637 -0.6943
O15A O -1.4333(2) 1.0885(2) -0.66380(17)
O8_2 O -1.6636(2) 0.9953(2) -0.72707(16)
Sr1_2 Sr -1.93981(3) 0.99683(3) -0.72564(2)
O16 O 0.8441(3) 0.5629(3) 0.2522(3)
H21 H 0.8314 0.4766 0.2135
H22 H 0.7619 0.5816 0.2688
O17 O 0.8881(3) 0.2857(3) 0.1865(2)
H23 H 0.8183 0.2150 0.1770
H24 H 0.9530 0.2625 0.2184
O18 O -0.9490(3) 0.2999(3) 0.0315(2)
H25 H -0.8584 0.3112 0.0488
H26 H -0.9831 0.3603 0.0769
O19 O 0.8988(5) 0.4254(5) 0.4265(4)
loop_
_geom_bond_atom_site_label_1
_geom_bond_atom_site_label_2
_geom_bond_site_symmetry_1
_geom_bond_site_symmetry_2
Sr1 O1 1_555 1_555
O1 C1 1_555 1_555
O2 Sr1 1_555 1_555
O3 Sr1 1_555 1_555
O4 Sr1 1_555 1_555
O5 Sr1 1_555 1_555
O6 Sr1 1_555 1_555
O7 Sr1 1_555 1_555
O8 Sr1 1_555 1_555
C1 O9 1_555 1_555
C2 O2 1_555 1_555
H1 O3 1_555 1_555
H2 O3 1_555 1_555
H3 O4 1_555 1_555
H4 O4 1_555 1_555
H5 O5 1_555 1_555
H6 O5 1_555 1_555
H7 O6 1_555 1_555
H8 O6 1_555 1_555
H9 O7 1_555 1_555
H10 O7 1_555 1_555
O9 Zn1 1_555 1_555
C3 C1 1_555 1_555
O10 C2 1_555 1_555
C4 C2 1_555 1_555
Zn1 N1 1_555 1_555
N1 C3 1_555 1_555
C5 C3 1_555 1_555
Zn2 O10 1_555 1_555
N2 C4 1_555 1_555
C6 C4 1_555 1_555
O11 Zn1 1_555 1_555
C7 N1 1_555 1_555
H11 C5 1_555 1_555
C8 C5 1_555 1_555
O12 Zn2 1_555 1_555
C9 N2 1_555 1_555
H12 C6 1_555 1_555
C10 C6 1_555 1_555
H13 O11 1_555 1_555
H14 O11 1_555 1_555
C11 C7 1_555 1_555
H15 C7 1_555 1_555
C12 C8 1_555 1_555
H16 O12 1_555 1_555
H17 O12 1_555 1_555
C13 C9 1_555 1_555
H18 C9 1_555 1_555
C14 C10 1_555 1_555
H19 C11 1_555 1_555
O13 C12 1_555 1_555
O14 C12 1_555 1_555
H20 C13 1_555 1_555
O15 C14 1_555 1_555
O16 H21 1_555 1_555
H22 O16 1_555 1_555
O17 H23 1_555 1_555
H24 O17 1_555 1_555
O18 H25 1_555 1_555
H26 O18 1_555 1_555
N1A Zn1 1_555 1_555
O9A Zn1 1_555 1_555
O11A Zn1 1_555 1_555
O12A Zn2 1_555 1_555
N2A Zn2 1_555 1_555
O10A Zn2 1_555 1_555
C3A N1A 1_555 1_555
C7A N1A 1_555 1_555
C1A O9A 1_555 1_555
H13A O11A 1_555 1_555
H14A O11A 1_555 1_555
H16A O12A 1_555 1_555
H17A O12A 1_555 1_555
C5A C3A 1_555 1_555
C11A C7A 1_555 1_555
H15A C7A 1_555 1_555
O1A C1A 1_555 1_555
O8A C14 1_555 1_555
H11A C5A 1_555 1_555
C8A C5A 1_555 1_555
H19A C11A 1_555 1_555
Sr1A O1A 1_555 1_555
Sr1A_2 O8A 1_555 1_555
C12A C8A 1_555 1_555
O2A Sr1A 1_555 1_555
O3A Sr1A 1_555 1_555
O4A Sr1A 1_555 1_555
O5A Sr1A 1_555 1_555
O6A Sr1A 1_555 1_555
O7A Sr1A 1_555 1_555
O8A_2 Sr1A 1_555 1_555
O13A C12A 1_555 1_555
O14A C12A 1_555 1_555
C2A O2A 1_555 1_555
H1A O3A 1_555 1_555
H2A O3A 1_555 1_555
H3A O4A 1_555 1_555
H4A O4A 1_555 1_555
H5A O5A 1_555 1_555
H6A O5A 1_555 1_555
H7A O6A 1_555 1_555
H8A O6A 1_555 1_555
H9A O7A 1_555 1_555
H10A O7A 1_555 1_555
O10A_2 C2A 1_555 1_555
C4A C2A 1_555 1_555
Zn2_2 O10A_2 1_555 1_555
N2A_2 C4A 1_555 1_555
C6A C4A 1_555 1_555
C9A N2A_2 1_555 1_555
H12A C6A 1_555 1_555
C10A C6A 1_555 1_555
C13A C9A 1_555 1_555
H18A C9A 1_555 1_555
C14A C10A 1_555 1_555
H20A C13A 1_555 1_555
O15A C14A 1_555 1_555
O8_2 C14A 1_555 1_555
Sr1_2 O8_2 1_555 1_555
Zn2 N2 1_555 1_555
C8 C11 1_555 1_555
C10 C13 1_555 1_555
C3A C1A 1_555 1_555
C11A C8A 1_555 1_555
Zn2_2 N2A_2 1_555 1_555
C10A C13A 1_555 1_555

#END
