
#######################################################################
#
#                 Cambridge Crystallographic Data Centre
#                                CCDC 
#
#######################################################################
#
# If this CIF has been generated from an entry in the Cambridge 
# Structural Database, then it will include bibliographic, chemical, 
# crystal, experimental, refinement or atomic coordinate data resulting 
# from the CCDC's data processing and validation procedures.
#
#######################################################################

data_BOXNIN
_symmetry_cell_setting           triclinic
_symmetry_space_group_name_H-M   'P -1'
_symmetry_Int_Tables_number      2
_space_group_name_Hall           '-P 1'
loop_
_symmetry_equiv_pos_site_id
_symmetry_equiv_pos_as_xyz
1 x,y,z
2 -x,-y,-z
_cell_length_a                   5.1677(2)
_cell_length_b                   7.8898(2)
_cell_length_c                   10.4068(12)
_cell_angle_alpha                80.6680(13)
_cell_angle_beta                 83.9802(12)
_cell_angle_gamma                79.699(18)
_cell_volume                     410.683
loop_
_atom_site_label
_atom_site_type_symbol
_atom_site_fract_x
_atom_site_fract_y
_atom_site_fract_z
Sr1 Sr 0.0000 0.0000 0.5000
Ni1 Ni 0.5000 1.0000 0.0000
O1 O 0.1897(3) 1.13234(17) 0.10800(13)
H1 H 0.0534 1.0839 0.1262
H2 H 0.2224 1.1405 0.1849
O2 O 0.2831(3) 0.18832(17) 0.34880(14)
N1 N 0.4489(3) 0.76816(19) 0.11322(15)
C1 C 0.4550(4) 0.2771(2) 0.36297(18)
C2 C 0.4464(4) 0.4538(2) 0.27740(18)
C3 C 0.6024(4) 0.5707(2) 0.29946(19)
H3 H 0.7092 0.5444 0.3690
C4 C 0.5965(4) 0.7271(2) 0.21638(18)
C5 C 0.2963(4) 0.6569(2) 0.0938(2)
H4 H 0.1919 0.6856 0.0234
C6 C 0.2875(4) 0.5008(2) 0.1742(2)
H5 H 0.1753 0.4274 0.1592
C7 C 0.7569(4) 0.8636(2) 0.23244(18)
O3 O 0.7464(3) 0.99431(17) 0.14248(13)
O4 O 0.8902(3) 0.84128(18) 0.32780(14)
O5 O 0.6313(3) 0.23325(18) 0.43934(15)
O2A O -0.2831(3) -0.18832(17) 0.65120(14)
N1A N -0.4489(3) -0.76816(19) 0.88678(15)
C1A C -0.4550(4) -0.2771(2) 0.63703(18)
C2A C -0.4464(4) -0.4538(2) 0.72260(18)
C3A C -0.6024(4) -0.5707(2) 0.70054(19)
H3A H -0.7092 -0.5444 0.6310
C4A C -0.5965(4) -0.7271(2) 0.78362(18)
C5A C -0.2963(4) -0.6569(2) 0.9062(2)
H4A H -0.1919 -0.6856 0.9766
C6A C -0.2875(4) -0.5008(2) 0.8258(2)
H5A H -0.1753 -0.4274 0.8408
C7A C -0.7569(4) -0.8636(2) 0.76756(18)
O3A O -0.7464(3) -0.99431(17) 0.85752(13)
O4A O -0.8902(3) -0.84128(18) 0.67220(14)
O5A O -0.6313(3) -0.23325(18) 0.56066(15)
O1A O 0.8103(3) 0.86766(17) -0.10800(13)
H1A H 0.9466 0.9161 -0.1262
H2A H 0.7776 0.8595 -0.1849
Sr1_2 Sr -1.0000 -1.0000 0.5000
Sr1_3 Sr -1.0000 0.0000 0.5000
Sr1_4 Sr 1.0000 0.0000 0.5000
Sr1_5 Sr 1.0000 1.0000 0.5000
Ni1_2 Ni -0.5000 -1.0000 1.0000
N1A_2 N 0.5511(3) 1.23184(19) -0.11322(15)
O3A_2 O 0.2536(3) 1.00569(17) -0.14248(13)
O4_2 O -0.1098(3) -0.15872(18) 0.32780(14)
O4A_2 O 0.1098(3) 0.15872(18) 0.67220(14)
O5_2 O -0.3687(3) 0.23325(18) 0.43934(15)
O5A_2 O 0.3687(3) -0.23325(18) 0.56066(15)
loop_
_geom_bond_atom_site_label_1
_geom_bond_atom_site_label_2
_geom_bond_site_symmetry_1
_geom_bond_site_symmetry_2
Sr1 O2 1_555 1_555
Ni1 O1 1_555 1_555
O1 H1 1_555 1_555
H2 O1 1_555 1_555
O2 C1 1_555 1_555
N1 Ni1 1_555 1_555
C1 C2 1_555 1_555
C2 C3 1_555 1_555
C3 H3 1_555 1_555
C4 N1 1_555 1_555
C5 N1 1_555 1_555
H4 C5 1_555 1_555
C6 C2 1_555 1_555
H5 C6 1_555 1_555
C7 C4 1_555 1_555
O3 Ni1 1_555 1_555
O4 C7 1_555 1_555
O5 C1 1_555 1_555
O2A Sr1 1_555 1_555
N1A C4A 1_555 1_555
C1A O2A 1_555 1_555
C2A C1A 1_555 1_555
C3A C2A 1_555 1_555
H3A C3A 1_555 1_555
C4A C3A 1_555 1_555
C5A N1A 1_555 1_555
H4A C5A 1_555 1_555
C6A C2A 1_555 1_555
H5A C6A 1_555 1_555
C7A C4A 1_555 1_555
O3A C7A 1_555 1_555
O4A C7A 1_555 1_555
O5A C1A 1_555 1_555
O1A Ni1 1_555 1_555
H1A O1A 1_555 1_555
H2A O1A 1_555 1_555
Sr1_2 O4A 1_555 1_555
Sr1_3 O5A 1_555 1_555
Sr1_4 O5 1_555 1_555
Sr1_5 O4 1_555 1_555
Ni1_2 N1A 1_555 1_555
N1A_2 Ni1 1_555 1_555
O3A_2 Ni1 1_555 1_555
O4_2 Sr1 1_555 1_555
O4A_2 Sr1 1_555 1_555
O5_2 Sr1 1_555 1_555
O5A_2 Sr1 1_555 1_555
C3 C4 1_555 1_555
C5 C6 1_555 1_555
C7 O3 1_555 1_555
C5A C6A 1_555 1_555
O3A Ni1_2 1_555 1_555

#END
