
#######################################################################
#
#                 Cambridge Crystallographic Data Centre
#                                CCDC 
#
#######################################################################
#
# If this CIF has been generated from an entry in the Cambridge 
# Structural Database, then it will include bibliographic, chemical, 
# crystal, experimental, refinement or atomic coordinate data resulting 
# from the CCDC's data processing and validation procedures.
#
#######################################################################

data_BOXZAQ
_symmetry_cell_setting           orthorhombic
_symmetry_space_group_name_H-M   'P n a 21'
_symmetry_Int_Tables_number      33
_space_group_name_Hall           'P 2c -2n'
loop_
_symmetry_equiv_pos_site_id
_symmetry_equiv_pos_as_xyz
1 x,y,z
2 -x,-y,1/2+z
3 1/2-x,1/2+y,1/2+z
4 1/2+x,1/2-y,z
_cell_length_a                   13.8035(13)
_cell_length_b                   11.5814(10)
_cell_length_c                   8.9139(8)
_cell_angle_alpha                90
_cell_angle_beta                 90
_cell_angle_gamma                90
_cell_volume                     1425.01
loop_
_atom_site_label
_atom_site_type_symbol
_atom_site_fract_x
_atom_site_fract_y
_atom_site_fract_z
C1 C 0.6213(7) 0.0786(7) 0.2884(10)
H1 H 0.6517 0.1343 0.2186
H2 H 0.6475 0.0931 0.3900
C2 C 0.6324(7) -0.1353(8) 0.3396(10)
C3 C 0.6465(6) -0.0424(9) 0.2407(11)
C4 C 0.6868(6) -0.0583(8) 0.0996(10)
H3 H 0.6909 0.0047 0.0317
C5 C 0.7210(6) -0.1657(7) 0.0581(11)
H4 H 0.7510 -0.1769 -0.0367
C6 C 0.7107(6) -0.2557(8) 0.1560(11)
H5 H 0.7346 -0.3298 0.1293
C7 C 0.6569(8) -0.3422(8) 0.3898(10)
H6 H 0.6874 -0.4093 0.3424
H7 H 0.5880 -0.3582 0.4067
H8 H 0.6885 -0.3265 0.4861
C8 C 0.4844(8) 0.2398(9) 0.3760(10)
C9 C 0.5245(7) 0.2564(8) 0.5155(11)
H9 H 0.5578 0.1948 0.5637
C10 C 0.5167(7) 0.3627(8) 0.5861(10)
H10 H 0.5492 0.3763 0.6783
C11 C 0.4609(7) 0.4489(8) 0.5211(12)
H11 H 0.4532 0.5204 0.5720
C12 C 0.4165(7) 0.4328(9) 0.3845(10)
H12 H 0.3777 0.4918 0.3411
C13 C 0.4303(8) 0.3254(8) 0.3100(11)
H13 H 0.4021 0.3129 0.2143
N1 N 0.6669(5) -0.2407(7) 0.2908(8)
S1 S 0.49030(17) 0.10084(19) 0.2897(2)
Pd1 Pd 0.57078(5) -0.12373(5) 0.53794(8)
Br1 Br 0.73009(7) -0.07591(9) 0.63719(11)
Br2 Br 0.42144(7) -0.20071(8) 0.43066(10)
S1A S 0.50970(17) -0.10084(19) 0.7897(2)
Pd1A Pd 0.42922(5) 0.12373(5) 0.03794(8)
loop_
_geom_bond_atom_site_label_1
_geom_bond_atom_site_label_2
_geom_bond_site_symmetry_1
_geom_bond_site_symmetry_2
C1 H1 1_555 1_555
H2 C1 1_555 1_555
C2 C3 1_555 1_555
C3 C1 1_555 1_555
C4 C3 1_555 1_555
H3 C4 1_555 1_555
C5 C4 1_555 1_555
H4 C5 1_555 1_555
C6 C5 1_555 1_555
H5 C6 1_555 1_555
C7 H6 1_555 1_555
H7 C7 1_555 1_555
H8 C7 1_555 1_555
C8 C9 1_555 1_555
C9 H9 1_555 1_555
C10 C9 1_555 1_555
H10 C10 1_555 1_555
C11 C10 1_555 1_555
H11 C11 1_555 1_555
C12 C11 1_555 1_555
H12 C12 1_555 1_555
C13 C8 1_555 1_555
H13 C13 1_555 1_555
N1 C2 1_555 1_555
S1 C1 1_555 1_555
Pd1 C2 1_555 1_555
Br1 Pd1 1_555 1_555
Br2 Pd1 1_555 1_555
S1A Pd1 1_555 1_555
Pd1A S1 1_555 1_555
C6 N1 1_555 1_555
C7 N1 1_555 1_555
C8 S1 1_555 1_555
C12 C13 1_555 1_555

#END
