
#######################################################################
#
#                 Cambridge Crystallographic Data Centre
#                                CCDC 
#
#######################################################################
#
# If this CIF has been generated from an entry in the Cambridge 
# Structural Database, then it will include bibliographic, chemical, 
# crystal, experimental, refinement or atomic coordinate data resulting 
# from the CCDC's data processing and validation procedures.
#
#######################################################################

data_BOYFUS
_symmetry_cell_setting           orthorhombic
_symmetry_space_group_name_H-M   'F d d 2'
_symmetry_Int_Tables_number      43
_space_group_name_Hall           'F 2 -2d'
loop_
_symmetry_equiv_pos_site_id
_symmetry_equiv_pos_as_xyz
1 x,y,z
2 -x,-y,z
3 1/4-x,1/4+y,1/4+z
4 1/4+x,1/4-y,1/4+z
5 x,1/2+y,1/2+z
6 -x,1/2-y,1/2+z
7 1/4-x,3/4+y,3/4+z
8 1/4+x,3/4-y,3/4+z
9 1/2+x,y,1/2+z
10 1/2-x,-y,1/2+z
11 3/4-x,1/4+y,3/4+z
12 3/4+x,1/4-y,3/4+z
13 1/2+x,1/2+y,z
14 1/2-x,1/2-y,z
15 3/4-x,3/4+y,1/4+z
16 3/4+x,3/4-y,1/4+z
_cell_length_a                   22.833(9)
_cell_length_b                   25.536(9)
_cell_length_c                   7.437(3)
_cell_angle_alpha                90
_cell_angle_beta                 90
_cell_angle_gamma                90
_cell_volume                     4336.24
loop_
_atom_site_label
_atom_site_type_symbol
_atom_site_fract_x
_atom_site_fract_y
_atom_site_fract_z
Cd1 Cd 0.014003(9) 0.176397(8) 0.94659(5)
O1 O 0.02933(13) 0.12216(12) 0.6933(5)
O2 O 0.07798(16) 0.05539(14) 0.5824(4)
H1 H 0.1057 0.0368 0.6107
O3 O 0.16331(11) -0.00153(10) 0.6740(4)
O4 O 0.23139(10) -0.00204(10) 0.8855(4)
N1 N 0.09527(13) 0.12395(11) 1.0075(4)
N2 N 0.17502(13) 0.07615(11) 1.0750(4)
N3 N 0.20331(15) 0.13211(14) 1.3704(4)
C1 C 0.06810(16) 0.08964(14) 0.7101(6)
C2 C 0.10565(16) 0.08897(14) 0.8709(5)
C3 C 0.15517(14) 0.05965(13) 0.9134(4)
C4 C 0.18549(16) 0.01703(13) 0.8178(5)
C5 C 0.13882(14) 0.11450(13) 1.1269(4)
C6 C 0.15066(15) 0.14320(13) 1.2959(5)
C7 C 0.11180(18) 0.17781(14) 1.3733(5)
H2 H 0.0755 0.1839 1.3208
C8 C 0.1276(2) 0.20340(17) 1.5299(6)
H3 H 0.1025 0.2277 1.5822
C9 C 0.1816(3) 0.1923(2) 1.6083(6)
H4 H 0.1930 0.2084 1.7148
C10 C 0.2175(2) 0.1566(2) 1.5235(6)
H5 H 0.2536 0.1492 1.5754
Cd1C Cd 0.264003(9) 0.073603(8) 1.19659(5)
Cd1F Cd 0.235997(9) -0.073603(8) 0.69659(5)
O3B O 0.08669(11) 0.24847(10) 0.9240(4)
O4B O 0.01861(10) 0.24796(10) 1.1355(4)
N2K N -0.07498(13) 0.17385(11) 0.8250(4)
N3K N -0.04669(15) 0.11789(14) 1.1204(4)
loop_
_geom_bond_atom_site_label_1
_geom_bond_atom_site_label_2
_geom_bond_site_symmetry_1
_geom_bond_site_symmetry_2
Cd1 O1 1_555 1_555
O1 C1 1_555 1_555
O2 H1 1_555 1_555
O3 C4 1_555 1_555
O4 C4 1_555 1_555
N1 Cd1 1_555 1_555
N2 C3 1_555 1_555
N3 C6 1_555 1_555
C1 O2 1_555 1_555
C2 N1 1_555 1_555
C3 C2 1_555 1_555
C4 C3 1_555 1_555
C5 N1 1_555 1_555
C6 C5 1_555 1_555
C7 C6 1_555 1_555
H2 C7 1_555 1_555
C8 C7 1_555 1_555
H3 C8 1_555 1_555
C9 C8 1_555 1_555
H4 C9 1_555 1_555
C10 N3 1_555 1_555
H5 C10 1_555 1_555
Cd1C N2 1_555 1_555
Cd1F O3 1_555 1_555
O3B Cd1 1_555 1_555
O4B Cd1 1_555 1_555
N2K Cd1 1_555 1_555
N3K Cd1 1_555 1_555
O4 Cd1F 1_555 1_555
N2 C5 1_555 1_555
N3 Cd1C 1_555 1_555
C1 C2 1_555 1_555
C9 C10 1_555 1_555

#END
