
#######################################################################
#
#                 Cambridge Crystallographic Data Centre
#                                CCDC 
#
#######################################################################
#
# If this CIF has been generated from an entry in the Cambridge 
# Structural Database, then it will include bibliographic, chemical, 
# crystal, experimental, refinement or atomic coordinate data resulting 
# from the CCDC's data processing and validation procedures.
#
#######################################################################

data_BOYGOM
_symmetry_cell_setting           orthorhombic
_symmetry_space_group_name_H-M   'P b c a'
_symmetry_Int_Tables_number      61
_space_group_name_Hall           '-P 2ac 2ab'
loop_
_symmetry_equiv_pos_site_id
_symmetry_equiv_pos_as_xyz
1 x,y,z
2 1/2-x,-y,1/2+z
3 -x,1/2+y,1/2-z
4 1/2+x,1/2-y,-z
5 -x,-y,-z
6 1/2+x,y,1/2-z
7 x,1/2-y,1/2+z
8 1/2-x,1/2+y,z
_cell_length_a                   11.178(3)
_cell_length_b                   23.590(6)
_cell_length_c                   29.339(8)
_cell_angle_alpha                90
_cell_angle_beta                 90
_cell_angle_gamma                90
_cell_volume                     7736.37
loop_
_atom_site_label
_atom_site_type_symbol
_atom_site_fract_x
_atom_site_fract_y
_atom_site_fract_z
Ag1 Ag 0.15905(2) 0.242133(12) 0.235658(9)
Ag2 Ag -0.09283(3) 0.251263(12) 0.237536(9)
N1 N -0.0281(3) 0.30054(13) 0.17794(10)
N2 N 0.0900(3) 0.19234(13) 0.17693(10)
N3 N 0.1547(3) 0.31614(13) 0.28584(10)
N4 N 0.2152(3) 0.20795(14) 0.30955(10)
N5 N -0.1481(3) 0.28889(13) 0.31048(10)
N6 N -0.0890(3) 0.17930(13) 0.28994(11)
C1 C -0.0487(3) 0.35674(16) 0.17814(13)
H1 H -0.0802 0.3735 0.2050
C2 C -0.0261(4) 0.39126(17) 0.14109(13)
H2 H -0.0410 0.4308 0.1429
C3 C 0.0184(4) 0.36786(16) 0.10124(14)
C4 C 0.0422(3) 0.30997(16) 0.10115(13)
H3 H 0.0750 0.2926 0.0747
C5 C 0.0185(3) 0.27768(16) 0.13937(12)
C6 C 0.0425(3) 0.21590(15) 0.13907(12)
C7 C 0.0156(4) 0.18439(16) 0.10065(13)
H4 H -0.0185 0.2024 0.0747
C8 C 0.0383(4) 0.12633(17) 0.09986(14)
C9 C 0.0840(4) 0.10248(16) 0.13908(13)
H5 H 0.0979 0.0628 0.1405
C10 C 0.1093(3) 0.13608(16) 0.17612(13)
H6 H 0.1423 0.1187 0.2025
C11 C 0.0385(5) 0.40245(18) 0.05892(15)
H7 H -0.0081 0.3864 0.0338
H8 H 0.1237 0.4019 0.0510
H9 H 0.0131 0.4416 0.0644
C12 C 0.0137(5) 0.09171(18) 0.05798(15)
H10 H 0.0719 0.1014 0.0342
H11 H -0.0673 0.0998 0.0470
H12 H 0.0205 0.0513 0.0654
C13 C 0.1390(4) 0.37065(17) 0.27407(15)
H13 H 0.1271 0.3791 0.2427
C14 C 0.1391(4) 0.41485(18) 0.30428(16)
H14 H 0.1277 0.4526 0.2939
C15 C 0.1560(4) 0.40386(18) 0.35002(15)
C16 C 0.1730(4) 0.34790(17) 0.36299(14)
H15 H 0.1861 0.3389 0.3942
C17 C 0.1710(3) 0.30477(16) 0.33061(13)
C18 C 0.1872(3) 0.24401(17) 0.34358(12)
C19 C 0.1729(3) 0.22589(18) 0.38785(13)
H16 H 0.1558 0.2526 0.4112
C20 C 0.1834(4) 0.16870(19) 0.39842(14)
C21 C 0.2114(4) 0.13195(19) 0.36315(15)
H17 H 0.2200 0.0925 0.3689
C22 C 0.2265(4) 0.15294(17) 0.31986(14)
H18 H 0.2459 0.1272 0.2961
C23 C 0.1574(6) 0.4510(2) 0.38473(19)
H19 H 0.1775 0.4354 0.4147
H20 H 0.0783 0.4688 0.3860
H21 H 0.2173 0.4793 0.3760
C24 C 0.1613(5) 0.1484(2) 0.44631(15)
H22 H 0.1925 0.1098 0.4497
H23 H 0.0751 0.1485 0.4525
H24 H 0.2018 0.1736 0.4679
C25 C -0.1593(4) 0.34424(17) 0.31972(14)
H25 H -0.1739 0.3695 0.2952
C26 C -0.1506(4) 0.36638(17) 0.36320(14)
H26 H -0.1605 0.4059 0.3683
C27 C -0.1272(4) 0.32997(18) 0.39952(13)
C28 C -0.1161(3) 0.27255(17) 0.38973(13)
H27 H -0.1013 0.2464 0.4137
C29 C -0.1265(3) 0.25336(16) 0.34553(12)
C30 C -0.1109(3) 0.19228(16) 0.33378(12)
C31 C -0.1185(4) 0.15035(17) 0.36681(14)
H28 H -0.1340 0.1604 0.3976
C32 C -0.1036(4) 0.09361(17) 0.35510(14)
C33 C -0.0801(4) 0.08130(17) 0.30993(15)
H29 H -0.0683 0.0432 0.3006
C34 C -0.0740(3) 0.12464(16) 0.27858(14)
H30 H -0.0584 0.1155 0.2476
C35 C -0.1104(5) 0.3514(2) 0.44745(15)
H31 H -0.1571 0.3279 0.4685
H32 H -0.1376 0.3908 0.4494
H33 H -0.0255 0.3493 0.4556
C36 C -0.1126(5) 0.04779(19) 0.39046(16)
H34 H -0.1557 0.0153 0.3777
H35 H -0.1558 0.0623 0.4171
H36 H -0.0320 0.0359 0.3996
Ag1E Ag -0.34095(2) 0.242133(12) 0.264342(9)
Ag2E Ag 0.40717(3) 0.251263(12) 0.262464(9)
B1 B 0.7745(6) 0.3055(3) 0.00136(18)
F1 F 0.8413(3) 0.27210(16) 0.02967(11)
F2 F 0.6993(4) 0.33776(17) 0.02688(11)
F3 F 0.8482(4) 0.33883(17) -0.02421(11)
F4 F 0.7097(3) 0.27158(16) -0.02737(11)
B2 B 0.6405(5) 0.99870(19) 0.2651(2)
F5 F 0.7023(3) 1.04067(11) 0.24231(9)
F6 F 0.5359(3) 1.02224(11) 0.28250(10)
F7 F 0.7099(3) 0.97817(14) 0.29982(13)
F8 F 0.6084(3) 0.95567(12) 0.23661(12)
loop_
_geom_bond_atom_site_label_1
_geom_bond_atom_site_label_2
_geom_bond_site_symmetry_1
_geom_bond_site_symmetry_2
Ag1 Ag2 1_555 1_555
Ag2 N1 1_555 1_555
N1 C1 1_555 1_555
N2 Ag1 1_555 1_555
N3 Ag1 1_555 1_555
N4 Ag1 1_555 1_555
N5 Ag2 1_555 1_555
N6 Ag2 1_555 1_555
C1 H1 1_555 1_555
C2 C1 1_555 1_555
H2 C2 1_555 1_555
C3 C2 1_555 1_555
C4 C3 1_555 1_555
H3 C4 1_555 1_555
C5 N1 1_555 1_555
C6 N2 1_555 1_555
C7 C6 1_555 1_555
H4 C7 1_555 1_555
C8 C7 1_555 1_555
C9 C8 1_555 1_555
H5 C9 1_555 1_555
C10 N2 1_555 1_555
H6 C10 1_555 1_555
C11 C3 1_555 1_555
H7 C11 1_555 1_555
H8 C11 1_555 1_555
H9 C11 1_555 1_555
C12 C8 1_555 1_555
H10 C12 1_555 1_555
H11 C12 1_555 1_555
H12 C12 1_555 1_555
C13 N3 1_555 1_555
H13 C13 1_555 1_555
C14 C13 1_555 1_555
H14 C14 1_555 1_555
C15 C14 1_555 1_555
C16 C15 1_555 1_555
H15 C16 1_555 1_555
C17 N3 1_555 1_555
C18 N4 1_555 1_555
C19 C18 1_555 1_555
H16 C19 1_555 1_555
C20 C19 1_555 1_555
C21 C20 1_555 1_555
H17 C21 1_555 1_555
C22 N4 1_555 1_555
H18 C22 1_555 1_555
C23 C15 1_555 1_555
H19 C23 1_555 1_555
H20 C23 1_555 1_555
H21 C23 1_555 1_555
C24 C20 1_555 1_555
H22 C24 1_555 1_555
H23 C24 1_555 1_555
H24 C24 1_555 1_555
C25 N5 1_555 1_555
H25 C25 1_555 1_555
C26 C25 1_555 1_555
H26 C26 1_555 1_555
C27 C26 1_555 1_555
C28 C27 1_555 1_555
H27 C28 1_555 1_555
C29 N5 1_555 1_555
C30 N6 1_555 1_555
C31 C30 1_555 1_555
H28 C31 1_555 1_555
C32 C31 1_555 1_555
C33 C32 1_555 1_555
H29 C33 1_555 1_555
C34 N6 1_555 1_555
H30 C34 1_555 1_555
C35 C27 1_555 1_555
H31 C35 1_555 1_555
H32 C35 1_555 1_555
H33 C35 1_555 1_555
C36 C32 1_555 1_555
H34 C36 1_555 1_555
H35 C36 1_555 1_555
H36 C36 1_555 1_555
B1 F1 1_555 1_555
B2 F5 1_555 1_555
F2 B1 1_555 1_555
F3 B1 1_555 1_555
F4 B1 1_555 1_555
F6 B2 1_555 1_555
F7 B2 1_555 1_555
F8 B2 1_555 1_555
Ag1E Ag2 1_555 1_555
Ag2E Ag1 1_555 1_555
C4 C5 1_555 1_555
C5 C6 1_555 1_555
C9 C10 1_555 1_555
C16 C17 1_555 1_555
C17 C18 1_555 1_555
C21 C22 1_555 1_555
C28 C29 1_555 1_555
C29 C30 1_555 1_555
C33 C34 1_555 1_555

#END
