
#######################################################################
#
#                 Cambridge Crystallographic Data Centre
#                                CCDC 
#
#######################################################################
#
# If this CIF has been generated from an entry in the Cambridge 
# Structural Database, then it will include bibliographic, chemical, 
# crystal, experimental, refinement or atomic coordinate data resulting 
# from the CCDC's data processing and validation procedures.
#
#######################################################################

data_BOYGUS
_symmetry_cell_setting           monoclinic
_symmetry_space_group_name_H-M   'P 21/c'
_symmetry_Int_Tables_number      14
_space_group_name_Hall           '-P 2ybc'
loop_
_symmetry_equiv_pos_site_id
_symmetry_equiv_pos_as_xyz
1 x,y,z
2 -x,1/2+y,1/2-z
3 -x,-y,-z
4 x,1/2-y,1/2+z
_cell_length_a                   10.971(3)
_cell_length_b                   6.839(3)
_cell_length_c                   30.545(5)
_cell_angle_alpha                90
_cell_angle_beta                 92.195(17)
_cell_angle_gamma                90
_cell_volume                     2290.13
loop_
_atom_site_label
_atom_site_type_symbol
_atom_site_fract_x
_atom_site_fract_y
_atom_site_fract_z
Na1 Na 0.91364(16) -0.3180(3) 0.98836(6)
O1 O 0.9821(3) -0.1051(6) 1.05836(10)
O2 O 0.8276(3) 0.4976(6) 1.04269(11)
O3 O 1.0233(3) 0.0825(5) 1.12478(11)
O4 O 0.9255(3) 0.2250(5) 1.06155(10)
O5 O 0.8210(3) -0.0200(5) 1.10490(10)
O6 O 1.0794(3) -0.3826(6) 1.04814(11)
N1 N 0.7354(4) -0.1213(7) 0.96496(19)
C1 C 0.6235(6) 0.1508(13) 0.9913(3)
H1 H 0.5986 0.2247 1.0154
C2 C 0.6943(6) -0.0150(12) 0.9971(2)
H2 H 0.7145 -0.0544 1.0260
C3 C 0.5911(7) 0.2029(12) 0.9494(3)
H3 H 0.5433 0.3150 0.9440
C4 C 0.6283(6) 0.0922(13) 0.9157(2)
H4 H 0.6053 0.1247 0.8866
C5 C 1.1810(5) -0.0584(11) 1.2769(2)
H5 H 1.2035 -0.0550 1.3069
C6 C 0.6493(5) 0.0689(8) 1.14596(16)
C7 C 0.7400(5) 0.1183(9) 1.11530(16)
C8 C 1.1129(4) -0.0682(9) 1.18852(17)
C9 C 0.5603(5) 0.2101(9) 1.15573(17)
C10 C 1.0737(4) -0.0785(9) 1.14348(18)
C11 C 1.0512(5) -0.2535(9) 1.07302(18)
C12 C 0.7395(5) 0.2988(9) 1.09649(16)
C13 C 0.8325(5) 0.3511(9) 1.06504(17)
C14 C 1.1670(5) -0.2330(9) 1.20832(19)
C15 C 0.6989(5) -0.0656(10) 0.9245(2)
H6 H 0.7241 -0.1411 0.9008
C16 C 0.6494(5) 0.4373(8) 1.10630(16)
H7 H 0.6504 0.5618 1.0933
C17 C 0.5662(5) -0.1575(9) 1.19736(17)
H8 H 0.5675 -0.2795 1.2115
C18 C 0.4772(5) -0.0182(11) 1.20681(18)
H9 H 0.4177 -0.0484 1.2271
C19 C 1.1273(5) 0.1057(10) 1.25739(18)
H10 H 1.1144 0.2191 1.2740
C20 C 1.0931(4) 0.1008(9) 1.21362(17)
H11 H 1.0562 0.2111 1.2004
C21 C 1.0885(5) -0.2489(9) 1.11963(17)
C22 C 0.6507(4) -0.1134(8) 1.16728(16)
H12 H 0.7106 -0.2060 1.1607
C23 C 0.4757(5) 0.1593(10) 1.18712(19)
H13 H 0.4164 0.2511 1.1947
C24 C 1.2018(5) -0.2239(10) 1.25354(19)
H14 H 1.2392 -0.3323 1.2674
C25 C 0.5607(5) 0.3910(9) 1.13459(18)
H15 H 0.4989 0.4823 1.1400
C26 C 1.1846(5) -0.4032(9) 1.1829(2)
H16 H 1.2240 -0.5122 1.1957
C27 C 1.1454(5) -0.4109(9) 1.1404(2)
H17 H 1.1563 -0.5266 1.1244
B1 B 0.9376(6) 0.0451(10) 1.0878(2)
Na1_2 Na 0.91364(16) 0.6820(3) 0.98836(6)
Na1B Na 1.08636(16) 0.3180(3) 1.01164(6)
Na1B_2 Na 1.08636(16) -0.6820(3) 1.01164(6)
O2_2 O 0.8276(3) -0.5024(6) 1.04269(11)
O4B O 1.0745(3) -0.2250(5) 0.93845(10)
O6B O 0.9206(3) -0.6174(6) 0.95186(11)
loop_
_geom_bond_atom_site_label_1
_geom_bond_atom_site_label_2
_geom_bond_site_symmetry_1
_geom_bond_site_symmetry_2
Na1 O1 1_555 1_555
O1 C11 1_555 1_555
O2 C13 1_555 1_555
O3 C10 1_555 1_555
O4 C13 1_555 1_555
O5 C7 1_555 1_555
O6 Na1 1_555 1_555
N1 Na1 1_555 1_555
C1 H1 1_555 1_555
C2 N1 1_555 1_555
H2 C2 1_555 1_555
C3 C1 1_555 1_555
H3 C3 1_555 1_555
C4 C3 1_555 1_555
H4 C4 1_555 1_555
C5 H5 1_555 1_555
C6 C7 1_555 1_555
C7 C12 1_555 1_555
C8 C10 1_555 1_555
C9 C6 1_555 1_555
C10 C21 1_555 1_555
C11 O6 1_555 1_555
C12 C13 1_555 1_555
C14 C8 1_555 1_555
C15 N1 1_555 1_555
H6 C15 1_555 1_555
C16 C12 1_555 1_555
H7 C16 1_555 1_555
C17 H8 1_555 1_555
C18 C17 1_555 1_555
H9 C18 1_555 1_555
C19 C5 1_555 1_555
H10 C19 1_555 1_555
C20 C8 1_555 1_555
H11 C20 1_555 1_555
C21 C11 1_555 1_555
C22 C6 1_555 1_555
H12 C22 1_555 1_555
C23 C9 1_555 1_555
H13 C23 1_555 1_555
C24 C5 1_555 1_555
H14 C24 1_555 1_555
C25 C9 1_555 1_555
H15 C25 1_555 1_555
C26 C14 1_555 1_555
H16 C26 1_555 1_555
C27 C21 1_555 1_555
H17 C27 1_555 1_555
B1 O1 1_555 1_555
Na1_2 O2 1_555 1_555
Na1B O4 1_555 1_555
Na1B_2 O6 1_555 1_555
O2_2 Na1 1_555 1_555
O4B Na1 1_555 1_555
O6B Na1 1_555 1_555
O3 B1 1_555 1_555
O4 B1 1_555 1_555
O5 B1 1_555 1_555
C1 C2 1_555 1_555
C4 C15 1_555 1_555
C14 C24 1_555 1_555
C16 C25 1_555 1_555
C17 C22 1_555 1_555
C18 C23 1_555 1_555
C19 C20 1_555 1_555
C26 C27 1_555 1_555
Na1B_2 O6B 1_555 1_555

#END
