
#######################################################################
#
#                 Cambridge Crystallographic Data Centre
#                                CCDC 
#
#######################################################################
#
# If this CIF has been generated from an entry in the Cambridge 
# Structural Database, then it will include bibliographic, chemical, 
# crystal, experimental, refinement or atomic coordinate data resulting 
# from the CCDC's data processing and validation procedures.
#
#######################################################################

data_BOYLUX
_symmetry_cell_setting           orthorhombic
_symmetry_space_group_name_H-M   'P b c n'
_symmetry_Int_Tables_number      60
_space_group_name_Hall           '-P 2n 2ab'
loop_
_symmetry_equiv_pos_site_id
_symmetry_equiv_pos_as_xyz
1 x,y,z
2 1/2-x,1/2-y,1/2+z
3 -x,y,1/2-z
4 1/2+x,1/2-y,-z
5 -x,-y,-z
6 1/2+x,1/2+y,1/2-z
7 x,-y,1/2+z
8 1/2-x,1/2+y,z
_cell_length_a                   8.869(2)
_cell_length_b                   19.589(4)
_cell_length_c                   10.001(2)
_cell_angle_alpha                90
_cell_angle_beta                 90
_cell_angle_gamma                90
_cell_volume                     1737.52
loop_
_atom_site_label
_atom_site_type_symbol
_atom_site_fract_x
_atom_site_fract_y
_atom_site_fract_z
Tb1 Tb 0.0000 0.011426(10) 1.2500
O1 O 0.2478(3) 0.05070(11) 1.3348(2)
H1 H 0.2474 0.0500 1.4167
O2 O -0.1965(3) -0.04013(12) 1.3850(2)
H2 H -0.1779 -0.0340 1.4644
O3 O -0.1045(3) -0.06707(12) 1.1046(2)
O4 O -0.0435(3) -0.10126(12) 0.8984(2)
N1 N -0.1453(3) -0.32133(15) 1.1323(3)
C1 C -0.0812(4) -0.11192(16) 1.0179(3)
C2 C -0.1019(4) -0.18552(16) 1.0593(3)
C3 C -0.1759(4) -0.20196(18) 1.1771(3)
H3 H -0.2118 -0.1679 1.2336
C4 C -0.1951(4) -0.27001(19) 1.2083(4)
H4 H -0.2458 -0.2808 1.2869
C5 C -0.0702(4) -0.30512(18) 1.0200(4)
H5 H -0.0326 -0.3402 0.9668
C6 C -0.0467(4) -0.23810(17) 0.9804(4)
H6 H 0.0055 -0.2285 0.9019
Tb1D Tb 0.0000 -0.011426(10) 0.7500
Tb1D_2 Tb 0.0000 -0.011426(10) 1.7500
O1B O -0.2478(3) 0.05070(11) 1.1652(2)
H1B H -0.2474 0.0500 1.0833
O2B O 0.1965(3) -0.04013(12) 1.1150(2)
H2B H 0.1779 -0.0340 1.0356
O3B O 0.1045(3) -0.06707(12) 1.3954(2)
O4B O 0.0435(3) -0.10126(12) 1.6016(2)
O4D O 0.0435(3) 0.10126(12) 1.1016(2)
O4F O -0.0435(3) 0.10126(12) 1.3984(2)
N1B N 0.1453(3) -0.32133(15) 1.3677(3)
C1B C 0.0812(4) -0.11192(16) 1.4821(3)
C2B C 0.1019(4) -0.18552(16) 1.4407(3)
C3B C 0.1759(4) -0.20196(18) 1.3229(3)
H3B H 0.2118 -0.1679 1.2664
C4B C 0.1951(4) -0.27001(19) 1.2917(4)
H4B H 0.2458 -0.2808 1.2131
C5B C 0.0702(4) -0.30512(18) 1.4800(4)
H5B H 0.0326 -0.3402 1.5332
C6B C 0.0467(4) -0.23810(17) 1.5196(4)
H6B H -0.0055 -0.2285 1.5981
Cl1 Cl -0.5000 -0.05760(7) 1.2500
loop_
_geom_bond_atom_site_label_1
_geom_bond_atom_site_label_2
_geom_bond_site_symmetry_1
_geom_bond_site_symmetry_2
Tb1 O1 1_555 1_555
O1 H1 1_555 1_555
O2 Tb1 1_555 1_555
H2 O2 1_555 1_555
O3 Tb1 1_555 1_555
O4 C1 1_555 1_555
N1 C4 1_555 1_555
C1 O3 1_555 1_555
C2 C1 1_555 1_555
C3 C2 1_555 1_555
H3 C3 1_555 1_555
C4 C3 1_555 1_555
H4 C4 1_555 1_555
C5 N1 1_555 1_555
H5 C5 1_555 1_555
C6 C2 1_555 1_555
H6 C6 1_555 1_555
Tb1D O4 1_555 1_555
Tb1D_2 O4B 1_555 1_555
O1B Tb1 1_555 1_555
H1B O1B 1_555 1_555
O2B Tb1 1_555 1_555
H2B O2B 1_555 1_555
O3B Tb1 1_555 1_555
O4B C1B 1_555 1_555
O4D Tb1 1_555 1_555
O4F Tb1 1_555 1_555
N1B C4B 1_555 1_555
C1B O3B 1_555 1_555
C2B C1B 1_555 1_555
C3B C2B 1_555 1_555
H3B C3B 1_555 1_555
C4B C3B 1_555 1_555
H4B C4B 1_555 1_555
C5B N1B 1_555 1_555
H5B C5B 1_555 1_555
C6B C2B 1_555 1_555
H6B C6B 1_555 1_555
C5 C6 1_555 1_555
C5B C6B 1_555 1_555

#END
