
#######################################################################
#
#                 Cambridge Crystallographic Data Centre
#                                CCDC 
#
#######################################################################
#
# If this CIF has been generated from an entry in the Cambridge 
# Structural Database, then it will include bibliographic, chemical, 
# crystal, experimental, refinement or atomic coordinate data resulting 
# from the CCDC's data processing and validation procedures.
#
#######################################################################

data_BOYQUD
_symmetry_cell_setting           triclinic
_symmetry_space_group_name_H-M   'P -1'
_symmetry_Int_Tables_number      2
_space_group_name_Hall           '-P 1'
loop_
_symmetry_equiv_pos_site_id
_symmetry_equiv_pos_as_xyz
1 x,y,z
2 -x,-y,-z
_cell_length_a                   9.7779(18)
_cell_length_b                   12.422(2)
_cell_length_c                   14.128(3)
_cell_angle_alpha                68.561(4)
_cell_angle_beta                 73.624(3)
_cell_angle_gamma                85.418(4)
_cell_volume                     1531.95
loop_
_atom_site_label
_atom_site_type_symbol
_atom_site_fract_x
_atom_site_fract_y
_atom_site_fract_z
Zn1 Zn 0.14158(6) 0.21712(6) -0.35008(5)
N1 N 0.2655(4) 0.3184(4) -0.3158(3)
C1 C 0.2208(5) 0.3419(4) -0.2269(4)
H1 H 0.1313 0.3138 -0.1818
O1 O -0.9457(5) 0.1526(5) 0.5360(3)
N2 N 0.2425(4) 0.4211(4) -0.1007(3)
H2 H 0.1693 0.3783 -0.0584
C2 C 0.3968(6) 0.3589(5) -0.3798(4)
H3 H 0.4300 0.3433 -0.4419
O2 O -0.7598(4) 0.2671(3) 0.4889(3)
O3 O -0.0546(4) 0.1973(3) -0.2625(3)
N3 N 0.0951(4) 0.4145(3) 0.0935(3)
C3 C 0.4831(6) 0.4225(5) -0.3563(5)
H4 H 0.5727 0.4490 -0.4020
O4 O 0.0199(3) 0.1174(3) -0.1185(3)
N4 N -0.1125(4) 0.2444(4) 0.2071(3)
H5 H -0.0579 0.2525 0.1453
C4 C 0.4363(6) 0.4465(5) -0.2652(4)
H6 H 0.4936 0.4890 -0.2482
O5 O -0.6523(3) 0.1257(3) 0.0830(3)
N5 N -0.2426(4) -0.0559(4) 0.3135(3)
C5 C 0.3013(5) 0.4059(4) -0.1985(4)
O6 O 0.3902(5) 0.5650(4) -0.1181(3)
C6 C 0.2898(6) 0.4965(5) -0.0669(4)
O7 O -0.1853(4) 0.3286(4) 0.3306(3)
C7 C 0.2051(6) 0.4902(4) 0.0426(4)
C8 C 0.2471(6) 0.5616(5) 0.0872(5)
H7 H 0.3241 0.6134 0.0495
C9 C 0.1713(6) 0.5532(5) 0.1886(5)
H8 H 0.1970 0.5990 0.2206
C10 C 0.0571(6) 0.4761(5) 0.2415(4)
H9 H 0.0045 0.4690 0.3096
C11 C 0.0219(5) 0.4087(4) 0.1909(4)
C12 C -0.1023(5) 0.3240(4) 0.2498(4)
C13 C -0.2095(5) 0.1485(4) 0.2600(4)
C14 C -0.1615(5) 0.0400(4) 0.2629(4)
H10 H -0.0672 0.0337 0.2273
C15 C -0.3805(5) -0.0461(5) 0.3623(4)
H11 H -0.4387 -0.1124 0.3977
C16 C -0.4378(5) 0.0596(5) 0.3613(4)
H12 H -0.5336 0.0638 0.3950
C17 C -0.3521(5) 0.1598(5) 0.3098(4)
H13 H -0.389(5) 0.235(4) 0.306(4)
C18 C -0.0790(5) 0.1508(4) -0.1612(4)
C19 C -0.2300(5) 0.1420(4) -0.0973(3)
C20 C -0.2615(5) 0.0983(4) 0.0130(4)
H14 H -0.1885 0.0719 0.0455
C21 C -0.4006(5) 0.0942(5) 0.0741(4)
H15 H -0.4211 0.0660 0.1474
C22 C -0.5087(5) 0.1323(4) 0.0255(4)
C23 C -0.4816(5) 0.1734(4) -0.0831(4)
H16 H -0.5556 0.1983 -0.1148
C24 C -0.3423(5) 0.1771(4) -0.1442(4)
H17 H -0.3232 0.2033 -0.2174
C25 C -0.6891(4) 0.1465(4) 0.1782(4)
C26 C -0.6380(5) 0.2423(5) 0.1849(4)
H18 H -0.5728 0.2931 0.1272
C27 C -0.6854(5) 0.2624(4) 0.2798(4)
H19 H -0.6492 0.3256 0.2862
C28 C -0.7867(5) 0.1880(5) 0.3649(4)
C29 C -0.8368(7) 0.2047(5) 0.4706(5)
C30 C -0.8385(5) 0.0936(5) 0.3539(4)
H20 H -0.9083 0.0450 0.4096
C31 C -0.7882(5) 0.0709(5) 0.2619(4)
H21 H -0.8204 0.0056 0.2563
Zn1_2 Zn -0.85842(6) 0.21712(6) 0.64992(5)
Zn1A Zn -0.14158(6) -0.21712(6) 0.35008(5)
O1_2 O 0.0543(5) 0.1526(5) -0.4640(3)
O2_2 O 0.2402(4) 0.2671(3) -0.5111(3)
N5A N 0.2426(4) 0.0559(4) -0.3135(3)
O8 O 0.0801(3) 0.1843(3) 0.0288(3)
H22 H 0.1080 0.2478 0.0396
H23 H 0.1564 0.1584 0.0455
loop_
_geom_bond_atom_site_label_1
_geom_bond_atom_site_label_2
_geom_bond_site_symmetry_1
_geom_bond_site_symmetry_2
Zn1 N1 1_555 1_555
N1 C1 1_555 1_555
C1 H1 1_555 1_555
O1 C29 1_555 1_555
N2 H2 1_555 1_555
C2 N1 1_555 1_555
H3 C2 1_555 1_555
O2 C29 1_555 1_555
O3 Zn1 1_555 1_555
N3 C7 1_555 1_555
C3 C2 1_555 1_555
H4 C3 1_555 1_555
O4 C18 1_555 1_555
N4 H5 1_555 1_555
C4 C3 1_555 1_555
H6 C4 1_555 1_555
O5 C22 1_555 1_555
N5 C14 1_555 1_555
C5 C1 1_555 1_555
O6 C6 1_555 1_555
C6 N2 1_555 1_555
O7 C12 1_555 1_555
C7 C6 1_555 1_555
C8 C7 1_555 1_555
H7 C8 1_555 1_555
C9 C8 1_555 1_555
H8 C9 1_555 1_555
C10 C9 1_555 1_555
H9 C10 1_555 1_555
C11 N3 1_555 1_555
C12 N4 1_555 1_555
C13 N4 1_555 1_555
C14 C13 1_555 1_555
H10 C14 1_555 1_555
C15 N5 1_555 1_555
H11 C15 1_555 1_555
C16 C15 1_555 1_555
H12 C16 1_555 1_555
C17 C13 1_555 1_555
H13 C17 1_555 1_555
C18 O3 1_555 1_555
C19 C18 1_555 1_555
C20 C19 1_555 1_555
H14 C20 1_555 1_555
C21 C20 1_555 1_555
H15 C21 1_555 1_555
C22 C21 1_555 1_555
C23 C22 1_555 1_555
H16 C23 1_555 1_555
C24 C19 1_555 1_555
H17 C24 1_555 1_555
C25 O5 1_555 1_555
C26 C25 1_555 1_555
H18 C26 1_555 1_555
C27 C26 1_555 1_555
H19 C27 1_555 1_555
C28 C27 1_555 1_555
C29 C28 1_555 1_555
C30 C28 1_555 1_555
H20 C30 1_555 1_555
C31 C25 1_555 1_555
H21 C31 1_555 1_555
O8 H22 1_555 1_555
H23 O8 1_555 1_555
Zn1_2 O1 1_555 1_555
Zn1A N5 1_555 1_555
O1_2 Zn1 1_555 1_555
O2_2 Zn1 1_555 1_555
N5A Zn1 1_555 1_555
N2 C5 1_555 1_555
O2 Zn1_2 1_555 1_555
C4 C5 1_555 1_555
C10 C11 1_555 1_555
C11 C12 1_555 1_555
C16 C17 1_555 1_555
C23 C24 1_555 1_555
C30 C31 1_555 1_555

#END
