
#######################################################################
#
#                 Cambridge Crystallographic Data Centre
#                                CCDC 
#
#######################################################################
#
# If this CIF has been generated from an entry in the Cambridge 
# Structural Database, then it will include bibliographic, chemical, 
# crystal, experimental, refinement or atomic coordinate data resulting 
# from the CCDC's data processing and validation procedures.
#
#######################################################################

data_BOYROY
_symmetry_cell_setting           monoclinic
_symmetry_space_group_name_H-M   'P 21/n'
_symmetry_Int_Tables_number      14
_space_group_name_Hall           '-P 2yn'
loop_
_symmetry_equiv_pos_site_id
_symmetry_equiv_pos_as_xyz
1 x,y,z
2 1/2-x,1/2+y,1/2-z
3 -x,-y,-z
4 1/2+x,1/2-y,1/2+z
_cell_length_a                   9.0852(5)
_cell_length_b                   14.8448(9)
_cell_length_c                   21.9156(13)
_cell_angle_alpha                90
_cell_angle_beta                 98.4010(10)
_cell_angle_gamma                90
_cell_volume                     2924
loop_
_atom_site_label
_atom_site_type_symbol
_atom_site_fract_x
_atom_site_fract_y
_atom_site_fract_z
Cd1 Cd 0.64350(2) 0.357193(12) 0.206402(10)
O1 O 0.6131(3) 0.20517(13) 0.23389(10)
N1 N 0.8648(2) 0.33651(14) 0.17004(10)
C1 C 0.5243(3) 0.19214(18) 0.18540(13)
O2 O 0.4962(2) 0.25177(13) 0.14525(10)
N2 N 1.0928(2) 0.47618(15) 0.08509(10)
H1 H 1.0486 0.5256 0.0919
C2 C 0.4482(3) 0.10277(17) 0.17654(12)
O3 O 0.2248(2) -0.14159(12) 0.15551(10)
N3 N 1.1329(2) 0.63981(15) 0.03250(10)
C3 C 0.4671(3) 0.03945(18) 0.22310(13)
H2 H 0.5299 0.0521 0.2595
N4 N 0.9645(3) 0.78275(15) 0.06058(10)
H3 H 0.9417 0.7275 0.0665
O4 O 0.4542(2) -0.54178(13) 0.19666(11)
C4 C 0.3943(3) -0.04238(18) 0.21643(13)
H4 H 0.4067 -0.0844 0.2482
O5 O 0.6559(2) -0.48364(13) 0.16963(10)
N5 N 0.8185(3) 0.88886(15) 0.18885(11)
C5 C 0.3037(3) -0.06072(18) 0.16252(14)
O6 O 1.2640(3) 0.41522(16) 0.03171(10)
C6 C 0.2824(4) 0.0008(2) 0.11530(15)
H5 H 0.2203 -0.0126 0.0788
O7 O 1.0801(3) 0.87257(14) -0.00187(11)
C7 C 0.3547(4) 0.0828(2) 0.12287(14)
H6 H 0.3401 0.1251 0.0913
C8 C 0.3059(3) -0.22075(17) 0.16372(12)
C9 C 0.2379(3) -0.29363(18) 0.18657(13)
H7 H 0.1445 -0.2875 0.1986
C10 C 0.3091(3) -0.37563(17) 0.19146(13)
H8 H 0.2623 -0.4250 0.2064
C11 C 0.4493(3) -0.38613(17) 0.17451(13)
C12 C 0.5243(3) -0.47560(18) 0.18017(13)
C13 C 0.5158(3) -0.31124(19) 0.15261(15)
H9 H 0.6103 -0.3166 0.1415
C14 C 0.4451(3) -0.22902(19) 0.14693(15)
H10 H 0.4912 -0.1795 0.1319
C15 C 0.9178(3) 0.40321(17) 0.13920(11)
H11 H 0.8624 0.4560 0.1333
C16 C 0.9429(3) 0.26033(19) 0.17788(13)
H12 H 0.9064 0.2125 0.1986
C17 C 1.0759(4) 0.2511(2) 0.15607(15)
H13 H 1.1287 0.1974 0.1626
C18 C 1.1326(3) 0.3202(2) 0.12449(14)
H14 H 1.2231 0.3142 0.1098
C19 C 1.0507(3) 0.39886(18) 0.11536(12)
C20 C 1.1954(3) 0.4806(2) 0.04651(13)
C21 C 1.2223(3) 0.5727(2) 0.02185(12)
C22 C 1.3417(3) 0.5831(2) -0.01075(13)
H15 H 1.4000 0.5340 -0.0182
C23 C 1.3716(4) 0.6670(3) -0.03168(14)
H16 H 1.4533 0.6762 -0.0520
C24 C 1.2800(4) 0.7369(2) -0.02232(13)
H17 H 1.2971 0.7942 -0.0369
C25 C 1.1597(3) 0.7209(2) 0.00967(12)
C26 C 1.0636(3) 0.7992(2) 0.02136(13)
C27 C 0.8963(3) 0.84958(18) 0.09235(13)
C28 C 0.8652(4) 0.9361(2) 0.07083(15)
H18 H 0.8793 0.9523 0.0311
C29 C 0.8131(4) 0.9975(2) 0.10929(16)
H19 H 0.7912 1.0560 0.0957
C30 C 0.7933(4) 0.9727(2) 0.16804(16)
H20 H 0.7614 1.0157 0.1940
C31 C 0.8677(3) 0.82863(18) 0.15101(13)
H21 H 0.8833 0.7697 0.1649
Cd1_2 Cd 0.64350(2) -0.642807(12) 0.206402(10)
Cd1A Cd 0.85650(2) 0.857193(12) 0.293598(10)
O4_2 O 0.4542(2) 0.45822(13) 0.19666(11)
O5_2 O 0.6559(2) 0.51636(13) 0.16963(10)
N5A N 0.6815(3) 0.38886(15) 0.31115(11)
O8 O 0.8385(3) -0.38859(13) 0.09889(13)
H22 H 0.7664 -0.3980 0.1188
H23 H 0.8043 -0.3896 0.0607
loop_
_geom_bond_atom_site_label_1
_geom_bond_atom_site_label_2
_geom_bond_site_symmetry_1
_geom_bond_site_symmetry_2
Cd1 O1 1_555 1_555
O1 C1 1_555 1_555
N1 Cd1 1_555 1_555
C1 O2 1_555 1_555
O2 Cd1 1_555 1_555
N2 H1 1_555 1_555
C2 C1 1_555 1_555
O3 C5 1_555 1_555
N3 C21 1_555 1_555
C3 C2 1_555 1_555
H2 C3 1_555 1_555
N4 H3 1_555 1_555
O4 C12 1_555 1_555
C4 C3 1_555 1_555
H4 C4 1_555 1_555
O5 C12 1_555 1_555
N5 C30 1_555 1_555
C5 C4 1_555 1_555
O6 C20 1_555 1_555
C6 C5 1_555 1_555
H5 C6 1_555 1_555
O7 C26 1_555 1_555
C7 C2 1_555 1_555
H6 C7 1_555 1_555
C8 O3 1_555 1_555
C9 C8 1_555 1_555
H7 C9 1_555 1_555
C10 C9 1_555 1_555
H8 C10 1_555 1_555
C11 C10 1_555 1_555
C12 C11 1_555 1_555
C13 C11 1_555 1_555
H9 C13 1_555 1_555
C14 C8 1_555 1_555
H10 C14 1_555 1_555
C15 N1 1_555 1_555
H11 C15 1_555 1_555
C16 N1 1_555 1_555
H12 C16 1_555 1_555
C17 C16 1_555 1_555
H13 C17 1_555 1_555
C18 C17 1_555 1_555
H14 C18 1_555 1_555
C19 N2 1_555 1_555
C20 N2 1_555 1_555
C21 C20 1_555 1_555
C22 C21 1_555 1_555
H15 C22 1_555 1_555
C23 C22 1_555 1_555
H16 C23 1_555 1_555
C24 C23 1_555 1_555
H17 C24 1_555 1_555
C25 N3 1_555 1_555
C26 N4 1_555 1_555
C27 N4 1_555 1_555
C28 C27 1_555 1_555
H18 C28 1_555 1_555
C29 C28 1_555 1_555
H19 C29 1_555 1_555
C30 C29 1_555 1_555
H20 C30 1_555 1_555
C31 N5 1_555 1_555
H21 C31 1_555 1_555
O8 H22 1_555 1_555
H23 O8 1_555 1_555
Cd1_2 O4 1_555 1_555
Cd1A N5 1_555 1_555
O4_2 Cd1 1_555 1_555
O5_2 Cd1 1_555 1_555
N5A Cd1 1_555 1_555
O5 Cd1_2 1_555 1_555
C6 C7 1_555 1_555
C13 C14 1_555 1_555
C15 C19 1_555 1_555
C18 C19 1_555 1_555
C24 C25 1_555 1_555
C25 C26 1_555 1_555
C27 C31 1_555 1_555

#END
