
#######################################################################
#
#                 Cambridge Crystallographic Data Centre
#                                CCDC 
#
#######################################################################
#
# If this CIF has been generated from an entry in the Cambridge 
# Structural Database, then it will include bibliographic, chemical, 
# crystal, experimental, refinement or atomic coordinate data resulting 
# from the CCDC's data processing and validation procedures.
#
#######################################################################

data_BOYSEP
_symmetry_cell_setting           monoclinic
_symmetry_space_group_name_H-M   'P 21/c'
_symmetry_Int_Tables_number      14
_space_group_name_Hall           '-P 2ybc'
loop_
_symmetry_equiv_pos_site_id
_symmetry_equiv_pos_as_xyz
1 x,y,z
2 -x,1/2+y,1/2-z
3 -x,-y,-z
4 x,1/2-y,1/2+z
_cell_length_a                   13.0777(5)
_cell_length_b                   19.5719(8)
_cell_length_c                   10.3617(4)
_cell_angle_alpha                90
_cell_angle_beta                 95.3460(10)
_cell_angle_gamma                90
_cell_volume                     2640.6
loop_
_atom_site_label
_atom_site_type_symbol
_atom_site_fract_x
_atom_site_fract_y
_atom_site_fract_z
Zn1 Zn 0.206155(18) 0.050687(12) -0.43663(2)
N1 N 0.17040(14) -0.05875(9) -0.43458(17)
O1 O 0.11724(14) 0.07066(9) -0.29253(14)
C1 C 0.16443(19) 0.05580(12) -0.1840(2)
O2 O 0.36046(12) 0.02988(8) -0.42574(17)
H1 H 0.4033 0.0018 -0.4528
H2 H 0.3803 0.0700 -0.4429
N2 N 0.25738(15) -0.20738(9) -0.24291(17)
H3 H 0.2917 -0.1839 -0.1835
O3 O 0.25389(15) 0.03298(12) -0.17217(18)
C2 C 0.10928(17) 0.06708(11) -0.06500(18)
C3 C 0.15957(17) 0.05195(10) 0.05510(19)
H4 H 0.2254 0.0336 0.0608
N3 N 0.41446(17) -0.40597(10) -0.0348(2)
O4 O 0.12072(13) 0.06324(8) 0.39589(13)
O5 O 0.25462(15) 0.02432(12) 0.30550(17)
N4 N 0.58036(15) -0.28592(9) 0.25439(19)
H5 H 0.5737 -0.3296 0.2580
C4 C 0.11191(17) 0.06414(10) 0.16699(18)
N5 N 0.74966(15) -0.16121(9) 0.44046(17)
O6 O -0.13635(14) 0.12768(11) 0.03632(17)
H6 H -0.1543 0.1439 -0.0351
C5 C 0.16747(18) 0.04917(11) 0.29778(19)
O7 O 0.21965(19) -0.31460(9) -0.3096(2)
C6 C 0.01347(17) 0.09053(11) 0.15857(19)
H7 H -0.0182 0.0991 0.2336
C7 C -0.03810(17) 0.10420(12) 0.0380(2)
O8 O 0.51538(15) -0.19143(8) 0.15083(19)
C8 C 0.01014(17) 0.09302(11) -0.07398(19)
H8 H -0.0239 0.1029 -0.1547
C9 C 0.09570(17) -0.08532(12) -0.5163(2)
H9 H 0.0602 -0.0568 -0.5767
C10 C 0.06946(18) -0.15337(12) -0.5143(2)
H10 H 0.0176 -0.1701 -0.5735
C11 C 0.11997(19) -0.19687(12) -0.4246(2)
H11 H 0.1021 -0.2428 -0.4212
C12 C 0.19819(16) -0.16991(11) -0.3397(2)
C13 C 0.22068(16) -0.10100(11) -0.3481(2)
H12 H 0.2731 -0.0831 -0.2913
C14 C 0.26599(18) -0.27552(11) -0.2335(2)
C15 C 0.33864(16) -0.30343(11) -0.12609(19)
C16 C 0.35101(19) -0.37411(11) -0.1221(2)
H13 H 0.3127 -0.4003 -0.1840
C17 C 0.47000(19) -0.36762(12) 0.0530(2)
H14 H 0.5169 -0.3894 0.1123
C18 C 0.46127(16) -0.29732(11) 0.0603(2)
C19 C 0.39390(17) -0.26478(11) -0.0317(2)
H15 H 0.3860 -0.2176 -0.0299
C20 C 0.52157(17) -0.25338(11) 0.1591(2)
C21 C 0.65164(17) -0.25581(11) 0.3489(2)
C22 C 0.6979(2) -0.29815(12) 0.4441(3)
H16 H 0.6809 -0.3443 0.4458
C23 C 0.7696(2) -0.27123(13) 0.5364(3)
H17 H 0.8008 -0.2989 0.6016
C24 C 0.7942(2) -0.20291(12) 0.5309(2)
H18 H 0.8436 -0.1852 0.5923
C25 C 0.67959(18) -0.18717(11) 0.3513(2)
H19 H 0.6483 -0.1581 0.2884
Zn1_2 Zn 0.206155(18) 0.050687(12) 0.56337(2)
Zn1B Zn 0.793845(18) -0.050687(12) 0.43663(2)
O4_2 O 0.12072(13) 0.06324(8) -0.60411(13)
N5B N 0.25034(15) 0.16121(9) -0.44046(17)
O9 O 0.41568(16) 0.06711(10) 0.1832(2)
H20 H 0.4624 0.0278 0.1761
H21 H 0.3899 0.0338 0.2216
O10 O 0.46096(17) 0.04955(10) -0.1598(3)
H22 H 0.3957 0.0494 -0.1654
H23 H 0.4799 0.0859 -0.1954
O11 O -0.35944(18) 0.09732(11) 0.0654(2)
H24 H -0.3068 0.0845 0.0297
H25 H -0.4182 0.0847 0.0266
loop_
_geom_bond_atom_site_label_1
_geom_bond_atom_site_label_2
_geom_bond_site_symmetry_1
_geom_bond_site_symmetry_2
Zn1 N1 1_555 1_555
N1 C9 1_555 1_555
O1 Zn1 1_555 1_555
C1 O1 1_555 1_555
O2 Zn1 1_555 1_555
H1 O2 1_555 1_555
H2 O2 1_555 1_555
N2 H3 1_555 1_555
O3 C1 1_555 1_555
C2 C1 1_555 1_555
C3 C2 1_555 1_555
H4 C3 1_555 1_555
N3 C16 1_555 1_555
O4 C5 1_555 1_555
O5 C5 1_555 1_555
N4 H5 1_555 1_555
C4 C3 1_555 1_555
N5 C24 1_555 1_555
O6 H6 1_555 1_555
C5 C4 1_555 1_555
O7 C14 1_555 1_555
C6 C4 1_555 1_555
H7 C6 1_555 1_555
C7 O6 1_555 1_555
O8 C20 1_555 1_555
C8 C2 1_555 1_555
H8 C8 1_555 1_555
C9 H9 1_555 1_555
C10 C9 1_555 1_555
H10 C10 1_555 1_555
C11 C10 1_555 1_555
H11 C11 1_555 1_555
C12 N2 1_555 1_555
C13 N1 1_555 1_555
H12 C13 1_555 1_555
C14 N2 1_555 1_555
C15 C14 1_555 1_555
C16 C15 1_555 1_555
H13 C16 1_555 1_555
C17 N3 1_555 1_555
H14 C17 1_555 1_555
C18 C17 1_555 1_555
C19 C15 1_555 1_555
H15 C19 1_555 1_555
C20 N4 1_555 1_555
C21 N4 1_555 1_555
C22 C21 1_555 1_555
H16 C22 1_555 1_555
C23 C22 1_555 1_555
H17 C23 1_555 1_555
C24 C23 1_555 1_555
H18 C24 1_555 1_555
C25 N5 1_555 1_555
H19 C25 1_555 1_555
O9 H20 1_555 1_555
H21 O9 1_555 1_555
O10 H22 1_555 1_555
H23 O10 1_555 1_555
O11 H24 1_555 1_555
H25 O11 1_555 1_555
Zn1_2 O4 1_555 1_555
Zn1B N5 1_555 1_555
O4_2 Zn1 1_555 1_555
N5B Zn1 1_555 1_555
C6 C7 1_555 1_555
C7 C8 1_555 1_555
C11 C12 1_555 1_555
C12 C13 1_555 1_555
C18 C19 1_555 1_555
C18 C20 1_555 1_555
C21 C25 1_555 1_555

#END
