
#######################################################################
#
#                 Cambridge Crystallographic Data Centre
#                                CCDC 
#
#######################################################################
#
# If this CIF has been generated from an entry in the Cambridge 
# Structural Database, then it will include bibliographic, chemical, 
# crystal, experimental, refinement or atomic coordinate data resulting 
# from the CCDC's data processing and validation procedures.
#
#######################################################################

data_BOYYIY
_symmetry_cell_setting           triclinic
_symmetry_space_group_name_H-M   'P -1'
_symmetry_Int_Tables_number      2
_space_group_name_Hall           '-P 1'
loop_
_symmetry_equiv_pos_site_id
_symmetry_equiv_pos_as_xyz
1 x,y,z
2 -x,-y,-z
_cell_length_a                   10.905(5)
_cell_length_b                   11.544(5)
_cell_length_c                   13.808(5)
_cell_angle_alpha                95.342(5)
_cell_angle_beta                 103.285(5)
_cell_angle_gamma                108.080(5)
_cell_volume                     1582.61
loop_
_atom_site_label
_atom_site_type_symbol
_atom_site_fract_x
_atom_site_fract_y
_atom_site_fract_z
Er1 Er 0.21822(4) 0.03146(4) 0.43343(3)
O1 O -0.2051(6) -0.5607(5) -0.0615(4)
O2 O 0.1331(6) -0.0603(5) 0.2486(4)
O3 O 0.0765(7) -0.1829(6) 0.3566(5)
O4 O -0.5520(6) -0.6728(6) -0.0522(4)
O5 O -0.6575(7) -0.8252(6) 0.3589(5)
O6 O -0.4764(7) -0.6508(6) 0.4172(5)
O7 O -0.3524(6) -0.8519(6) -0.0102(4)
O8 O -0.1659(6) -0.9390(6) 0.4363(4)
O9 O 0.0143(6) -0.9415(6) 0.3869(4)
O10 O 0.3574(6) -0.0880(5) 0.4041(5)
O11 O 0.5610(6) -0.1018(5) 0.4421(5)
O12 O 0.2395(7) 0.2111(6) 0.5447(5)
N1 N -0.4207(7) -0.7455(6) -0.1801(5)
C1 C -0.3209(8) -0.6664(7) -0.2263(5)
H1 H -0.3656 -0.6607 -0.2941
H2 H -0.2535 -0.7035 -0.2309
C2 C -0.2546(9) -0.5381(8) -0.1622(6)
H3 H -0.1815 -0.4888 -0.1861
H4 H -0.3187 -0.4956 -0.1633
C3 C -0.1408(8) -0.4611(8) 0.0149(6)
C4 C -0.1143(9) -0.4886(8) 0.1112(6)
H5 H -0.1399 -0.5706 0.1206
C5 C -0.0482(8) -0.3918(7) 0.1950(6)
H6 H -0.0321 -0.4094 0.2602
C6 C -0.0069(8) -0.2693(8) 0.1798(6)
C7 C -0.0354(8) -0.2452(7) 0.0817(5)
H7 H -0.0093 -0.1635 0.0718
C8 C -0.1011(9) -0.3388(8) -0.0012(7)
H8 H -0.1185 -0.3209 -0.0662
C9 C 0.0707(8) -0.1648(7) 0.2671(6)
C10 C -0.5604(9) -0.7417(9) -0.2185(6)
H9 H -0.5557 -0.6608 -0.2348
H10 H -0.6085 -0.8031 -0.2794
C11 C -0.6331(9) -0.7680(8) -0.1381(7)
H11 H -0.7224 -0.7637 -0.1601
H12 H -0.6402 -0.8494 -0.1219
C12 C -0.5646(9) -0.6912(8) 0.0421(6)
C13 C -0.6663(8) -0.7850(8) 0.0607(6)
H13 H -0.7335 -0.8405 0.0072
C14 C -0.6678(9) -0.7963(8) 0.1601(6)
H14 H -0.7365 -0.8595 0.1724
C15 C -0.5693(9) -0.7155(8) 0.2401(7)
C16 C -0.4660(8) -0.6189(8) 0.2198(6)
H15 H -0.3984 -0.5636 0.2731
C17 C -0.4651(9) -0.6061(8) 0.1210(7)
H16 H -0.3986 -0.5415 0.1078
C18 C -0.5674(9) -0.7306(7) 0.3460(7)
C19 C -0.4190(9) -0.8759(7) -0.1859(6)
H17 H -0.4003 -0.9012 -0.2484
H18 H -0.5061 -0.9319 -0.1856
C20 C -0.3126(9) -0.8821(9) -0.0966(6)
H19 H -0.3071 -0.9646 -0.1010
H20 H -0.2256 -0.8235 -0.0942
C21 C -0.2797(8) -0.8671(8) 0.0823(6)
C22 C -0.3336(8) -0.8515(7) 0.1617(6)
H21 H -0.4102 -0.8298 0.1519
C23 C -0.2721(8) -0.8686(8) 0.2562(6)
H22 H -0.3078 -0.8578 0.3100
C24 C -0.1576(8) -0.9018(7) 0.2719(5)
C25 C -0.1013(8) -0.9138(8) 0.1902(6)
H23 H -0.0229 -0.9326 0.1995
C26 C -0.1659(9) -0.8967(8) 0.0949(6)
H24 H -0.1310 -0.9056 0.0403
C27 C -0.0944(8) -0.9293(7) 0.3712(6)
C28 C 0.4802(9) -0.0539(7) 0.4564(6)
Er1_2 Er 1.21822(4) 1.03146(4) 0.43343(3)
Er1_3 Er -0.78178(4) -0.96854(4) 0.43343(3)
Er1A Er -0.21822(4) -1.03146(4) 0.56657(3)
Er1_4 Er 0.21822(4) -0.96854(4) 0.43343(3)
Er1A_2 Er 0.78178(4) -0.03146(4) 0.56657(3)
Er1_5 Er 1.21822(4) 0.03146(4) 0.43343(3)
O1_2 O 0.7949(6) 0.4393(5) -0.0615(4)
O2_2 O 1.1331(6) 0.9397(5) 0.2486(4)
O3_2 O 1.0765(7) 0.8171(6) 0.3566(5)
O4_2 O 0.4480(6) 0.3272(6) -0.0522(4)
O5_2 O 0.3425(7) 0.1748(6) 0.3589(5)
O5_3 O 1.3425(7) 1.1748(6) 0.3589(5)
O6_2 O 0.5236(7) 0.3492(6) 0.4172(5)
O7_2 O 0.6476(6) 0.1481(6) -0.0102(4)
O8_2 O 0.8341(6) 0.0610(6) 0.4363(4)
O8A O 0.1659(6) -0.0610(6) 0.5637(4)
O8A_2 O 1.1659(6) 0.9390(6) 0.5637(4)
O9_2 O 1.0143(6) 0.0585(6) 0.3869(4)
O9_3 O 0.0143(6) 0.0585(6) 0.3869(4)
O9_4 O 1.0143(6) 1.0585(6) 0.3869(4)
O10A O 0.6426(6) 0.0880(5) 0.5959(5)
O10_2 O 1.3574(6) 0.9120(5) 0.4041(5)
O11A O 0.4390(6) 0.1018(5) 0.5579(5)
O11A_2 O 1.4390(6) 1.1018(5) 0.5579(5)
O12_2 O 1.2395(7) 1.2111(6) 0.5447(5)
N1_2 N 0.5793(7) 0.2545(6) -0.1801(5)
C1_2 C 0.6791(8) 0.3336(7) -0.2263(5)
H1_2 H 0.6344 0.3393 -0.2941
H2_2 H 0.7465 0.2965 -0.2309
C2_2 C 0.7454(9) 0.4619(8) -0.1622(6)
H3_2 H 0.8185 0.5112 -0.1861
H4_2 H 0.6813 0.5044 -0.1633
C3_2 C 0.8592(8) 0.5389(8) 0.0149(6)
C4_2 C 0.8857(9) 0.5114(8) 0.1112(6)
H5_2 H 0.8601 0.4294 0.1206
C5_2 C 0.9518(8) 0.6082(7) 0.1950(6)
H6_2 H 0.9679 0.5906 0.2602
C6_2 C 0.9931(8) 0.7307(8) 0.1798(6)
C7_2 C 0.9646(8) 0.7548(7) 0.0817(5)
H7_2 H 0.9907 0.8365 0.0718
C8_2 C 0.8989(9) 0.6612(8) -0.0012(7)
H8_2 H 0.8815 0.6791 -0.0662
C9_2 C 1.0707(8) 0.8352(7) 0.2671(6)
C10_2 C 0.4396(9) 0.2583(9) -0.2185(6)
H9_2 H 0.4443 0.3392 -0.2348
H10_2 H 0.3915 0.1969 -0.2794
C11_2 C 0.3669(9) 0.2320(8) -0.1381(7)
H11_2 H 0.2776 0.2363 -0.1601
H12_2 H 0.3598 0.1506 -0.1219
C12_2 C 0.4354(9) 0.3088(8) 0.0421(6)
C13_2 C 0.3337(8) 0.2150(8) 0.0607(6)
H13_2 H 0.2665 0.1595 0.0072
C14_2 C 0.3322(9) 0.2037(8) 0.1601(6)
H14_2 H 0.2635 0.1405 0.1724
C15_2 C 0.4307(9) 0.2845(8) 0.2401(7)
C16_2 C 0.5340(8) 0.3811(8) 0.2198(6)
H15_2 H 0.6016 0.4364 0.2731
C17_2 C 0.5349(9) 0.3939(8) 0.1210(7)
H16_2 H 0.6014 0.4585 0.1078
C18_2 C 0.4326(9) 0.2694(7) 0.3460(7)
C19_2 C 0.5810(9) 0.1241(7) -0.1859(6)
H17_2 H 0.5997 0.0988 -0.2484
H18_2 H 0.4939 0.0681 -0.1856
C20_2 C 0.6874(9) 0.1179(9) -0.0966(6)
H19_2 H 0.6929 0.0354 -0.1010
H20_2 H 0.7744 0.1765 -0.0942
C21_2 C 0.7203(8) 0.1329(8) 0.0823(6)
C22_2 C 0.6664(8) 0.1485(7) 0.1617(6)
H21_2 H 0.5898 0.1702 0.1519
C23_2 C 0.7279(8) 0.1314(8) 0.2562(6)
H22_2 H 0.6922 0.1422 0.3100
C24_2 C 0.8424(8) 0.0982(7) 0.2719(5)
C25_2 C 0.8987(8) 0.0862(8) 0.1902(6)
H23_2 H 0.9771 0.0674 0.1995
C26_2 C 0.8341(9) 0.1033(8) 0.0949(6)
H24_2 H 0.8690 0.0944 0.0403
C27_2 C 0.9056(8) 0.0707(7) 0.3712(6)
C28A C 0.5198(9) 0.0539(7) 0.5436(6)
O13 O -0.4728(8) 0.5934(6) 0.4045(5)
O14 O -0.0536(8) 0.6761(7) 0.4789(6)
O15 O -0.1501(9) 0.4346(8) 0.3807(7)
O16 O -0.2432(10) 0.3408(9) 0.5409(7)
O17 O -0.0963(11) 0.5795(9) 0.6625(8)
loop_
_geom_bond_atom_site_label_1
_geom_bond_atom_site_label_2
_geom_bond_site_symmetry_1
_geom_bond_site_symmetry_2
Er1 O2 1_555 1_555
O1 C2 1_555 1_555
O2 C9 1_555 1_555
O3 Er1 1_555 1_555
O4 C11 1_555 1_555
O5 C18 1_555 1_555
O6 C18 1_555 1_555
O7 C20 1_555 1_555
O8 C27 1_555 1_555
O9 C27 1_555 1_555
O10 Er1 1_555 1_555
O11 C28 1_555 1_555
O12 Er1 1_555 1_555
N1 C1 1_555 1_555
C1 H1 1_555 1_555
H2 C1 1_555 1_555
C2 C1 1_555 1_555
H3 C2 1_555 1_555
H4 C2 1_555 1_555
C3 O1 1_555 1_555
C4 C3 1_555 1_555
H5 C4 1_555 1_555
C5 C4 1_555 1_555
H6 C5 1_555 1_555
C6 C5 1_555 1_555
C7 C6 1_555 1_555
H7 C7 1_555 1_555
C8 C3 1_555 1_555
H8 C8 1_555 1_555
C9 O3 1_555 1_555
C10 N1 1_555 1_555
H9 C10 1_555 1_555
H10 C10 1_555 1_555
C11 C10 1_555 1_555
H11 C11 1_555 1_555
H12 C11 1_555 1_555
C12 O4 1_555 1_555
C13 C12 1_555 1_555
H13 C13 1_555 1_555
C14 C13 1_555 1_555
H14 C14 1_555 1_555
C15 C14 1_555 1_555
C16 C15 1_555 1_555
H15 C16 1_555 1_555
C17 C12 1_555 1_555
H16 C17 1_555 1_555
C18 C15 1_555 1_555
C19 N1 1_555 1_555
H17 C19 1_555 1_555
H18 C19 1_555 1_555
C20 C19 1_555 1_555
H19 C20 1_555 1_555
H20 C20 1_555 1_555
C21 O7 1_555 1_555
C22 C21 1_555 1_555
H21 C22 1_555 1_555
C23 C22 1_555 1_555
H22 C23 1_555 1_555
C24 C23 1_555 1_555
C25 C24 1_555 1_555
H23 C25 1_555 1_555
C26 C21 1_555 1_555
H24 C26 1_555 1_555
C27 C24 1_555 1_555
C28 O10 1_555 1_555
Er1_2 O2_2 1_555 1_555
Er1_3 O5 1_555 1_555
Er1A O8 1_555 1_555
Er1_4 O9 1_555 1_555
Er1A_2 O11 1_555 1_555
Er1_5 O9_2 1_555 1_555
O1_2 C2_2 1_555 1_555
O2_2 C9_2 1_555 1_555
O3_2 Er1_2 1_555 1_555
O4_2 C11_2 1_555 1_555
O5_2 Er1 1_555 1_555
O5_3 Er1_2 1_555 1_555
O6_2 C18_2 1_555 1_555
O7_2 C20_2 1_555 1_555
O8_2 Er1A_2 1_555 1_555
O8A Er1 1_555 1_555
O8A_2 Er1_2 1_555 1_555
O9_2 C27_2 1_555 1_555
O9_3 Er1 1_555 1_555
O9_4 Er1_2 1_555 1_555
O10A Er1A_2 1_555 1_555
O10_2 Er1_2 1_555 1_555
O11A Er1 1_555 1_555
O11A_2 Er1_2 1_555 1_555
O12_2 Er1_2 1_555 1_555
N1_2 C1_2 1_555 1_555
C1_2 H1_2 1_555 1_555
H2_2 C1_2 1_555 1_555
C2_2 C1_2 1_555 1_555
H3_2 C2_2 1_555 1_555
H4_2 C2_2 1_555 1_555
C3_2 O1_2 1_555 1_555
C4_2 C3_2 1_555 1_555
H5_2 C4_2 1_555 1_555
C5_2 C4_2 1_555 1_555
H6_2 C5_2 1_555 1_555
C6_2 C5_2 1_555 1_555
C7_2 C6_2 1_555 1_555
H7_2 C7_2 1_555 1_555
C8_2 C3_2 1_555 1_555
H8_2 C8_2 1_555 1_555
C9_2 O3_2 1_555 1_555
C10_2 N1_2 1_555 1_555
H9_2 C10_2 1_555 1_555
H10_2 C10_2 1_555 1_555
C11_2 C10_2 1_555 1_555
H11_2 C11_2 1_555 1_555
H12_2 C11_2 1_555 1_555
C12_2 O4_2 1_555 1_555
C13_2 C12_2 1_555 1_555
H13_2 C13_2 1_555 1_555
C14_2 C13_2 1_555 1_555
H14_2 C14_2 1_555 1_555
C15_2 C14_2 1_555 1_555
C16_2 C15_2 1_555 1_555
H15_2 C16_2 1_555 1_555
C17_2 C12_2 1_555 1_555
H16_2 C17_2 1_555 1_555
C18_2 O5_2 1_555 1_555
C19_2 N1_2 1_555 1_555
H17_2 C19_2 1_555 1_555
H18_2 C19_2 1_555 1_555
C20_2 C19_2 1_555 1_555
H19_2 C20_2 1_555 1_555
H20_2 C20_2 1_555 1_555
C21_2 O7_2 1_555 1_555
C22_2 C21_2 1_555 1_555
H21_2 C22_2 1_555 1_555
C23_2 C22_2 1_555 1_555
H22_2 C23_2 1_555 1_555
C24_2 C23_2 1_555 1_555
C25_2 C24_2 1_555 1_555
H23_2 C25_2 1_555 1_555
C26_2 C21_2 1_555 1_555
H24_2 C26_2 1_555 1_555
C27_2 O8_2 1_555 1_555
C28A C28 1_555 1_555
C6 C9 1_555 1_555
C7 C8 1_555 1_555
C16 C17 1_555 1_555
C25 C26 1_555 1_555
O10A C28A 1_555 1_555
O11A C28A 1_555 1_555
C6_2 C9_2 1_555 1_555
C7_2 C8_2 1_555 1_555
C15_2 C18_2 1_555 1_555
C16_2 C17_2 1_555 1_555
C24_2 C27_2 1_555 1_555
C25_2 C26_2 1_555 1_555

#END
