
#######################################################################
#
#                 Cambridge Crystallographic Data Centre
#                                CCDC 
#
#######################################################################
#
# If this CIF has been generated from an entry in the Cambridge 
# Structural Database, then it will include bibliographic, chemical, 
# crystal, experimental, refinement or atomic coordinate data resulting 
# from the CCDC's data processing and validation procedures.
#
#######################################################################

data_BOZCOK
_symmetry_cell_setting           tetragonal
_symmetry_space_group_name_H-M   'P 42/n'
_symmetry_Int_Tables_number      86
_space_group_name_Hall           '-P 4bc'
loop_
_symmetry_equiv_pos_site_id
_symmetry_equiv_pos_as_xyz
1 x,y,z
2 1/2-x,1/2-y,z
3 -y,1/2+x,1/2+z
4 1/2+y,-x,1/2+z
5 -x,-y,-z
6 1/2+x,1/2+y,-z
7 y,1/2-x,1/2-z
8 1/2-y,x,1/2-z
_cell_length_a                   13.106(3)
_cell_length_b                   13.106(3)
_cell_length_c                   13.634(6)
_cell_angle_alpha                90
_cell_angle_beta                 90
_cell_angle_gamma                90
_cell_volume                     2341.87
loop_
_atom_site_label
_atom_site_type_symbol
_atom_site_fract_x
_atom_site_fract_y
_atom_site_fract_z
Cu1 Cu 0.5000 0.5000 0.0000
V1 V 0.38302(6) 0.38043(6) 0.24775(4)
O1 O 0.4439(2) 0.4144(2) 0.14953(19)
O2 O 0.4265(5) 0.4522(3) 0.3339(3)
O3 O 0.2495(3) 0.4021(3) 0.2235(3)
N1 N 0.4353(2) 0.6319(2) 0.0414(2)
N2 N 0.3818(2) 0.7896(2) 0.0367(3)
N3 N 0.6298(2) 0.5436(2) 0.0648(2)
N4 N 0.7822(2) 0.6071(2) 0.0866(2)
C1 C 0.4058(3) 0.6609(3) 0.1328(3)
H1 H 0.4079 0.6201 0.1886
C2 C 0.3731(3) 0.7583(3) 0.1297(4)
H2 H 0.3491 0.7966 0.1823
C3 C 0.4198(3) 0.7106(3) -0.0145(3)
H3 H 0.4332 0.7121 -0.0815
C4 C 0.3549(4) 0.8891(4) -0.0031(4)
H4 H 0.2831 0.8910 -0.0167
H5 H 0.3923 0.9007 -0.0626
H6 H 0.3716 0.9411 0.0438
C5 C 0.6541(3) 0.5348(3) 0.1609(2)
H7 H 0.6126 0.5065 0.2091
C6 C 0.7483(3) 0.5740(3) 0.1757(3)
H8 H 0.7832 0.5775 0.2350
C7 C 0.7080(3) 0.5872(3) 0.0223(3)
H9 H 0.7114 0.6024 -0.0443
C8 C 0.8815(3) 0.6524(4) 0.0658(3)
H10 H 0.8923 0.6542 -0.0038
H11 H 0.9340 0.6122 0.0961
H12 H 0.8836 0.7206 0.0914
V1D V 0.61698(6) 0.61957(6) -0.24775(4)
O1D O 0.5561(2) 0.5856(2) -0.14953(19)
O2D O 0.5735(5) 0.5478(3) -0.3339(3)
O3D O 0.7505(3) 0.5979(3) -0.2235(3)
N1D N 0.5647(2) 0.3681(2) -0.0414(2)
N2D N 0.6182(2) 0.2104(2) -0.0367(3)
N3D N 0.3702(2) 0.4564(2) -0.0648(2)
N4D N 0.2178(2) 0.3929(2) -0.0866(2)
C1D C 0.5942(3) 0.3391(3) -0.1328(3)
H1D H 0.5921 0.3799 -0.1886
C2D C 0.6269(3) 0.2417(3) -0.1297(4)
H2D H 0.6509 0.2034 -0.1823
C3D C 0.5802(3) 0.2894(3) 0.0145(3)
H3D H 0.5668 0.2879 0.0815
C4D C 0.6451(4) 0.1109(4) 0.0031(4)
H4D H 0.7169 0.1090 0.0167
H5D H 0.6077 0.0993 0.0626
H6D H 0.6284 0.0589 -0.0438
C5D C 0.3459(3) 0.4652(3) -0.1609(2)
H7D H 0.3874 0.4935 -0.2091
C6D C 0.2517(3) 0.4260(3) -0.1757(3)
H8D H 0.2168 0.4225 -0.2350
C7D C 0.2920(3) 0.4128(3) -0.0223(3)
H9D H 0.2886 0.3976 0.0443
C8D C 0.1185(3) 0.3476(4) -0.0658(3)
H10D H 0.1077 0.3458 0.0038
H11D H 0.0660 0.3878 -0.0961
H12D H 0.1164 0.2794 -0.0914
V1C V 0.88043(6) 0.61698(6) -0.25225(4)
V1G V 0.11957(6) 0.38302(6) 0.25225(4)
O3B O 0.5979(3) 0.7495(3) -0.2765(3)
O3F O 0.4021(3) 0.2505(3) 0.2765(3)
loop_
_geom_bond_atom_site_label_1
_geom_bond_atom_site_label_2
_geom_bond_site_symmetry_1
_geom_bond_site_symmetry_2
Cu1 O1 1_555 1_555
V1 O1 1_555 1_555
O2 V1 1_555 1_555
O3 V1 1_555 1_555
N1 Cu1 1_555 1_555
N2 C2 1_555 1_555
N3 Cu1 1_555 1_555
N4 C6 1_555 1_555
C1 N1 1_555 1_555
H1 C1 1_555 1_555
C2 C1 1_555 1_555
H2 C2 1_555 1_555
C3 N1 1_555 1_555
H3 C3 1_555 1_555
C4 N2 1_555 1_555
H4 C4 1_555 1_555
H5 C4 1_555 1_555
H6 C4 1_555 1_555
C5 N3 1_555 1_555
H7 C5 1_555 1_555
C6 C5 1_555 1_555
H8 C6 1_555 1_555
C7 N3 1_555 1_555
H9 C7 1_555 1_555
C8 N4 1_555 1_555
H10 C8 1_555 1_555
H11 C8 1_555 1_555
H12 C8 1_555 1_555
V1D O1D 1_555 1_555
O1D Cu1 1_555 1_555
O2D V1D 1_555 1_555
O3D V1D 1_555 1_555
N1D Cu1 1_555 1_555
N2D C2D 1_555 1_555
N3D Cu1 1_555 1_555
N4D C6D 1_555 1_555
C1D N1D 1_555 1_555
H1D C1D 1_555 1_555
C2D C1D 1_555 1_555
H2D C2D 1_555 1_555
C3D N1D 1_555 1_555
H3D C3D 1_555 1_555
C4D N2D 1_555 1_555
H4D C4D 1_555 1_555
H5D C4D 1_555 1_555
H6D C4D 1_555 1_555
C5D N3D 1_555 1_555
H7D C5D 1_555 1_555
C6D C5D 1_555 1_555
H8D C6D 1_555 1_555
C7D N3D 1_555 1_555
H9D C7D 1_555 1_555
C8D N4D 1_555 1_555
H10D C8D 1_555 1_555
H11D C8D 1_555 1_555
H12D C8D 1_555 1_555
V1C O3D 1_555 1_555
V1G O3 1_555 1_555
O3B V1D 1_555 1_555
O3F V1 1_555 1_555
N2 C3 1_555 1_555
N4 C7 1_555 1_555
N2D C3D 1_555 1_555
N4D C7D 1_555 1_555

#END
