
#######################################################################
#
#                 Cambridge Crystallographic Data Centre
#                                CCDC 
#
#######################################################################
#
# If this CIF has been generated from an entry in the Cambridge 
# Structural Database, then it will include bibliographic, chemical, 
# crystal, experimental, refinement or atomic coordinate data resulting 
# from the CCDC's data processing and validation procedures.
#
#######################################################################

data_BOZCOK01
_symmetry_cell_setting           monoclinic
_symmetry_space_group_name_H-M   'P 21/n'
_symmetry_Int_Tables_number      14
_space_group_name_Hall           '-P 2yn'
loop_
_symmetry_equiv_pos_site_id
_symmetry_equiv_pos_as_xyz
1 x,y,z
2 1/2-x,1/2+y,1/2-z
3 -x,-y,-z
4 1/2+x,1/2-y,1/2+z
_cell_length_a                   10.8254(3)
_cell_length_b                   16.3599(4)
_cell_length_c                   12.9484(3)
_cell_angle_alpha                90
_cell_angle_beta                 95.0730(10)
_cell_angle_gamma                90
_cell_volume                     2284.21
loop_
_atom_site_label
_atom_site_type_symbol
_atom_site_fract_x
_atom_site_fract_y
_atom_site_fract_z
Cu1 Cu 0.66466(3) 0.235131(17) 0.20053(2)
V1 V 0.47067(3) 0.06288(2) 0.32719(3)
V2 V 0.41010(3) 0.11705(2) 0.57742(3)
O1 O 0.56209(17) 0.13650(12) 0.29605(15)
O2 O 0.35794(18) 0.05553(11) 0.23512(15)
O3 O 0.40297(18) 0.08483(12) 0.44466(13)
O4 O 0.5109(2) 0.18949(15) 0.5969(2)
O5 O 0.27544(15) 0.15393(11) 0.60267(13)
O6 O 0.4451(2) 0.03137(13) 0.66008(15)
N1 N 0.67296(18) 0.31436(12) 0.32021(15)
N2 N 0.6449(2) 0.36814(13) 0.47131(15)
N3 N 0.82342(17) 0.18250(12) 0.25719(15)
N4 N 1.01748(18) 0.16191(13) 0.31547(15)
N5 N 0.50315(18) 0.28414(12) 0.14313(15)
N6 N 0.36339(19) 0.36950(13) 0.07480(16)
N7 N 0.66632(18) 0.16480(12) 0.07188(15)
N8 N 0.7314(2) 0.11741(13) -0.07214(16)
C1 C 0.7280(3) 0.38980(16) 0.3274(2)
H1 H 0.7703 0.4143 0.2762
C2 C 0.7111(3) 0.42284(17) 0.4201(2)
H2 H 0.7394 0.4736 0.4445
C3 C 0.6242(2) 0.30351(15) 0.40850(18)
H3 H 0.5808 0.2570 0.4253
C4 C 0.6043(3) 0.37857(19) 0.5750(2)
H4 H 0.5400 0.4191 0.5731
H5 H 0.6731 0.3959 0.6217
H6 H 0.5729 0.3276 0.5985
C5 C 0.8463(2) 0.10044(16) 0.2596(2)
H7 H 0.7886 0.0600 0.2399
C6 C 0.9657(3) 0.08711(17) 0.2950(2)
H8 H 1.0049 0.0367 0.3037
C7 C 0.9286(2) 0.21741(15) 0.29159(19)
H9 H 0.9398 0.2736 0.2984
C8 C 1.1458(2) 0.1789(2) 0.3538(2)
H10 H 1.1694 0.2317 0.3298
H11 H 1.1991 0.1379 0.3286
H12 H 1.1534 0.1782 0.4282
C9 C 0.3884(2) 0.24935(17) 0.1440(2)
H13 H 0.3724 0.1976 0.1694
C10 C 0.3021(2) 0.30186(17) 0.1022(2)
H14 H 0.2169 0.2933 0.0937
C11 C 0.4850(2) 0.35632(16) 0.1006(2)
H15 H 0.5477 0.3934 0.0897
C12 C 0.3055(3) 0.4430(2) 0.0282(3)
H16 H 0.2485 0.4279 -0.0297
H17 H 0.3683 0.4782 0.0049
H18 H 0.2615 0.4712 0.0787
C13 C 0.5743(3) 0.11805(18) 0.0220(2)
H19 H 0.4971 0.1079 0.0457
C14 C 0.6137(3) 0.08909(18) -0.0671(2)
H20 H 0.5691 0.0561 -0.1156
C15 C 0.7590(3) 0.16299(15) 0.01313(19)
H21 H 0.8341 0.1898 0.0285
C16 C 0.8128(4) 0.1029(2) -0.1554(3)
H22 H 0.7683 0.0728 -0.2104
H23 H 0.8840 0.0720 -0.1285
H24 H 0.8393 0.1543 -0.1815
Cu1C Cu 0.16466(3) 0.264869(17) 0.70053(2)
V1B V 0.52933(3) -0.06288(2) 0.67281(3)
O5C O 0.77544(15) 0.34607(11) 0.10267(13)
O6B O 0.5549(2) -0.03137(13) 0.33992(15)
loop_
_geom_bond_atom_site_label_1
_geom_bond_atom_site_label_2
_geom_bond_site_symmetry_1
_geom_bond_site_symmetry_2
Cu1 O1 1_555 1_555
V1 O1 1_555 1_555
V2 O3 1_555 1_555
O2 V1 1_555 1_555
O3 V1 1_555 1_555
O4 V2 1_555 1_555
O5 V2 1_555 1_555
O6 V2 1_555 1_555
N1 Cu1 1_555 1_555
N2 C2 1_555 1_555
N3 Cu1 1_555 1_555
N4 C6 1_555 1_555
N5 Cu1 1_555 1_555
N6 C10 1_555 1_555
N7 Cu1 1_555 1_555
N8 C14 1_555 1_555
C1 N1 1_555 1_555
H1 C1 1_555 1_555
C2 C1 1_555 1_555
H2 C2 1_555 1_555
C3 N1 1_555 1_555
H3 C3 1_555 1_555
C4 N2 1_555 1_555
H4 C4 1_555 1_555
H5 C4 1_555 1_555
H6 C4 1_555 1_555
C5 N3 1_555 1_555
H7 C5 1_555 1_555
C6 C5 1_555 1_555
H8 C6 1_555 1_555
C7 N3 1_555 1_555
H9 C7 1_555 1_555
C8 N4 1_555 1_555
H10 C8 1_555 1_555
H11 C8 1_555 1_555
H12 C8 1_555 1_555
C9 N5 1_555 1_555
H13 C9 1_555 1_555
C10 C9 1_555 1_555
H14 C10 1_555 1_555
C11 N5 1_555 1_555
H15 C11 1_555 1_555
C12 N6 1_555 1_555
H16 C12 1_555 1_555
H17 C12 1_555 1_555
H18 C12 1_555 1_555
C13 N7 1_555 1_555
H19 C13 1_555 1_555
C14 C13 1_555 1_555
H20 C14 1_555 1_555
C15 N7 1_555 1_555
H21 C15 1_555 1_555
C16 N8 1_555 1_555
H22 C16 1_555 1_555
H23 C16 1_555 1_555
H24 C16 1_555 1_555
Cu1C O5 1_555 1_555
V1B O6 1_555 1_555
O5C Cu1 1_555 1_555
O6B V1 1_555 1_555
N2 C3 1_555 1_555
N4 C7 1_555 1_555
N6 C11 1_555 1_555
N8 C15 1_555 1_555

#END
