
#######################################################################
#
#                 Cambridge Crystallographic Data Centre
#                                CCDC 
#
#######################################################################
#
# If this CIF has been generated from an entry in the Cambridge 
# Structural Database, then it will include bibliographic, chemical, 
# crystal, experimental, refinement or atomic coordinate data resulting 
# from the CCDC's data processing and validation procedures.
#
#######################################################################

data_BOZGII
_symmetry_cell_setting           monoclinic
_symmetry_space_group_name_H-M   'P 21/n'
_symmetry_Int_Tables_number      14
_space_group_name_Hall           '-P 2yn'
loop_
_symmetry_equiv_pos_site_id
_symmetry_equiv_pos_as_xyz
1 x,y,z
2 1/2-x,1/2+y,1/2-z
3 -x,-y,-z
4 1/2+x,1/2-y,1/2+z
_cell_length_a                   11.3946(9)
_cell_length_b                   28.293(3)
_cell_length_c                   15.2096(14)
_cell_angle_alpha                90
_cell_angle_beta                 102.511(2)
_cell_angle_gamma                90
_cell_volume                     4786.95
loop_
_atom_site_label
_atom_site_type_symbol
_atom_site_fract_x
_atom_site_fract_y
_atom_site_fract_z
Mn1 Mn 0.96196(5) 0.19524(2) 0.34282(4)
Mn2 Mn 0.69523(5) 0.21854(2) 0.17255(4)
N1 N 1.3568(3) 0.21474(13) 0.4268(2)
N2 N 1.0553(4) 0.10335(13) 0.5723(3)
N3 N 0.3435(4) 0.2657(2) 0.2039(3)
O1 O 0.9673(3) 0.15390(10) 0.2273(2)
O2 O 0.8146(3) 0.17611(10) 0.11705(19)
O3 O 1.4441(3) 0.26462(10) -0.03907(19)
O4 O 1.5906(3) 0.22189(11) 0.0426(2)
O5 O 0.4578(3) 0.23911(10) 0.7729(2)
O6 O 0.2915(3) 0.21792(9) 0.6746(2)
O7 O 0.7632(2) 0.19073(9) 0.31512(17)
O8 O 0.6130(3) 0.15300(10) 0.22903(19)
O9 O 1.1625(3) 0.19873(13) 0.3719(2)
O10 O 0.9985(3) 0.13280(10) 0.4300(2)
O11 O 0.5451(3) 0.25706(12) 0.2184(2)
C1 C 1.1077(4) 0.04406(14) -0.1095(3)
C2 C 1.2221(4) 0.05384(14) -0.1259(3)
C3 C 1.2695(5) 0.02319(17) -0.1819(3)
H1 H 1.3457 0.0289 -0.1923
C4 C 1.2041(6) -0.01570(18) -0.2222(4)
H2 H 1.2373 -0.0361 -0.2582
C5 C 1.0913(6) -0.02392(17) -0.2088(4)
H3 H 1.0464 -0.0491 -0.2375
C6 C 1.0439(5) 0.00541(15) -0.1524(3)
H4 H 0.9675 -0.0008 -0.1428
C7 C 0.9094(4) 0.15436(14) 0.1467(3)
C8 C 0.9607(4) 0.12594(14) 0.0794(3)
C9 C 1.0758(4) 0.10937(14) 0.1018(3)
H5 H 1.1224 0.1157 0.1587
C10 C 1.1248(4) 0.08312(15) 0.0411(3)
H6 H 1.2036 0.0723 0.0581
C11 C 1.0571(4) 0.07271(13) -0.0450(3)
C12 C 0.9399(4) 0.08863(15) -0.0661(3)
H7 H 0.8918 0.0815 -0.1222
C13 C 0.8922(4) 0.11540(15) -0.0045(3)
H8 H 0.8133 0.1261 -0.0205
C14 C 1.4904(4) 0.22580(16) -0.0082(3)
C15 C 1.4190(4) 0.18128(14) -0.0344(3)
C16 C 1.4707(4) 0.13729(16) -0.0121(3)
H9 H 1.5483 0.1353 0.0230
C17 C 1.4072(5) 0.09607(16) -0.0417(3)
H10 H 1.4439 0.0669 -0.0275
C18 C 1.2913(4) 0.09794(15) -0.0916(3)
C19 C 1.2386(4) 0.14216(15) -0.1126(3)
H11 H 1.1597 0.1440 -0.1452
C20 C 1.3019(4) 0.18317(14) -0.0857(3)
H12 H 1.2660 0.2123 -0.1020
C21 C 0.6761(4) 0.02485(13) 0.5926(3)
C22 C 0.6318(4) 0.03345(13) 0.6699(3)
C23 C 0.6458(4) -0.00157(15) 0.7365(3)
H13 H 0.6178 0.0040 0.7886
C24 C 0.7001(5) -0.04397(16) 0.7261(4)
H14 H 0.7077 -0.0669 0.7708
C25 C 0.7431(5) -0.05271(16) 0.6502(4)
H15 H 0.7805 -0.0813 0.6436
C26 C 0.7306(4) -0.01894(15) 0.5839(3)
H16 H 0.7589 -0.0252 0.5321
C27 C 0.3957(4) 0.21041(15) 0.7197(3)
C28 C 0.4526(4) 0.16356(13) 0.7078(3)
C29 C 0.5489(4) 0.14718(14) 0.7728(3)
H17 H 0.5763 0.1649 0.8247
C30 C 0.6048(4) 0.10484(14) 0.7613(3)
H18 H 0.6680 0.0941 0.8062
C31 C 0.5673(4) 0.07818(13) 0.6831(3)
C32 C 0.4708(4) 0.09455(14) 0.6184(3)
H19 H 0.4446 0.0774 0.5656
C33 C 0.4129(4) 0.13611(14) 0.6314(3)
H20 H 0.3463 0.1458 0.5883
C34 C 0.6851(4) 0.15777(14) 0.3016(3)
C35 C 0.6795(3) 0.12431(14) 0.3784(3)
C36 C 0.7329(4) 0.13586(14) 0.4668(3)
H21 H 0.7718 0.1647 0.4796
C37 C 0.7284(4) 0.10444(14) 0.5366(3)
H22 H 0.7631 0.1128 0.5957
C38 C 0.6722(4) 0.06049(14) 0.5188(3)
C39 C 0.6166(4) 0.04964(14) 0.4298(3)
H23 H 0.5776 0.0208 0.4169
C40 C 0.6189(4) 0.08116(14) 0.3608(3)
H24 H 0.5800 0.0736 0.3022
C41 C 1.2430(5) 0.22307(18) 0.4183(3)
H25 H 1.2205 0.2488 0.4489
C42 C 1.3994(5) 0.17568(18) 0.3819(4)
H26 H 1.4272 0.1510 0.4246
H27 H 1.4643 0.1860 0.3556
H28 H 1.3351 0.1639 0.3355
C43 C 1.4473(5) 0.2428(2) 0.4864(4)
H29 H 1.4943 0.2597 0.4515
H30 H 1.4987 0.2224 0.5283
H31 H 1.4086 0.2649 0.5187
C44 C 1.0425(4) 0.13765(16) 0.5113(4)
H32 H 1.0688 0.1677 0.5313
C45 C 1.0212(5) 0.05570(16) 0.5465(4)
H33 H 0.9981 0.0537 0.4820
H34 H 0.9547 0.0466 0.5721
H35 H 1.0879 0.0350 0.5680
C46 C 1.1069(6) 0.11276(19) 0.6674(3)
H36 H 1.1779 0.0939 0.6868
H37 H 1.0492 0.1049 0.7027
H38 H 1.1275 0.1456 0.6752
C47 C 0.4424(6) 0.2439(2) 0.1909(4)
H39 H 0.4315 0.2161 0.1575
C48 C 0.3557(7) 0.3086(3) 0.2602(6)
H40 H 0.4362 0.3105 0.2957
H41 H 0.2999 0.3072 0.2992
H42 H 0.3390 0.3359 0.2222
C49 C 0.2261(6) 0.2486(4) 0.1652(5)
H43 H 0.1843 0.2714 0.1230
H44 H 0.1826 0.2436 0.2119
H45 H 0.2320 0.2193 0.1347
Mn1C Mn 0.46196(5) 0.30476(2) 0.84282(4)
Mn1C_2 Mn 1.46196(5) 0.30476(2) -0.15718(4)
Mn2_2 Mn 1.69523(5) 0.21854(2) 0.17255(4)
Mn2C Mn 0.19523(5) 0.28146(2) 0.67255(4)
O3C O 0.9441(3) 0.23538(10) 0.46093(19)
O4_2 O 0.5906(3) 0.22189(11) 0.0426(2)
O5C O 0.9578(3) 0.26089(10) 0.2729(2)
O6C O 0.7915(3) 0.28208(9) 0.1746(2)
loop_
_geom_bond_atom_site_label_1
_geom_bond_atom_site_label_2
_geom_bond_site_symmetry_1
_geom_bond_site_symmetry_2
Mn1 O1 1_555 1_555
Mn2 O2 1_555 1_555
N1 C41 1_555 1_555
N2 C44 1_555 1_555
N3 C47 1_555 1_555
O1 C7 1_555 1_555
O2 C7 1_555 1_555
O3 C14 1_555 1_555
O4 C14 1_555 1_555
O5 C27 1_555 1_555
O6 C27 1_555 1_555
O7 Mn1 1_555 1_555
O8 Mn2 1_555 1_555
O9 Mn1 1_555 1_555
O10 Mn1 1_555 1_555
O11 Mn2 1_555 1_555
C1 C2 1_555 1_555
C2 C3 1_555 1_555
C3 H1 1_555 1_555
C4 C3 1_555 1_555
H2 C4 1_555 1_555
C5 C4 1_555 1_555
H3 C5 1_555 1_555
C6 C1 1_555 1_555
H4 C6 1_555 1_555
C7 C8 1_555 1_555
C8 C9 1_555 1_555
C9 H5 1_555 1_555
C10 C9 1_555 1_555
H6 C10 1_555 1_555
C11 C1 1_555 1_555
C12 C11 1_555 1_555
H7 C12 1_555 1_555
C13 C8 1_555 1_555
H8 C13 1_555 1_555
C14 C15 1_555 1_555
C15 C16 1_555 1_555
C16 H9 1_555 1_555
C17 C16 1_555 1_555
H10 C17 1_555 1_555
C18 C2 1_555 1_555
C19 C18 1_555 1_555
H11 C19 1_555 1_555
C20 C15 1_555 1_555
H12 C20 1_555 1_555
C21 C22 1_555 1_555
C22 C23 1_555 1_555
C23 H13 1_555 1_555
C24 C23 1_555 1_555
H14 C24 1_555 1_555
C25 C24 1_555 1_555
H15 C25 1_555 1_555
C26 C21 1_555 1_555
H16 C26 1_555 1_555
C27 C28 1_555 1_555
C28 C29 1_555 1_555
C29 H17 1_555 1_555
C30 C29 1_555 1_555
H18 C30 1_555 1_555
C31 C22 1_555 1_555
C32 C31 1_555 1_555
H19 C32 1_555 1_555
C33 C28 1_555 1_555
H20 C33 1_555 1_555
C34 O7 1_555 1_555
C35 C34 1_555 1_555
C36 C35 1_555 1_555
H21 C36 1_555 1_555
C37 C36 1_555 1_555
H22 C37 1_555 1_555
C38 C21 1_555 1_555
C39 C38 1_555 1_555
H23 C39 1_555 1_555
C40 C35 1_555 1_555
H24 C40 1_555 1_555
C41 O9 1_555 1_555
H25 C41 1_555 1_555
C42 N1 1_555 1_555
H26 C42 1_555 1_555
H27 C42 1_555 1_555
H28 C42 1_555 1_555
C43 N1 1_555 1_555
H29 C43 1_555 1_555
H30 C43 1_555 1_555
H31 C43 1_555 1_555
C44 O10 1_555 1_555
H32 C44 1_555 1_555
C45 N2 1_555 1_555
H33 C45 1_555 1_555
H34 C45 1_555 1_555
H35 C45 1_555 1_555
C46 N2 1_555 1_555
H36 C46 1_555 1_555
H37 C46 1_555 1_555
H38 C46 1_555 1_555
C47 O11 1_555 1_555
H39 C47 1_555 1_555
C48 N3 1_555 1_555
H40 C48 1_555 1_555
H41 C48 1_555 1_555
H42 C48 1_555 1_555
C49 N3 1_555 1_555
H43 C49 1_555 1_555
H44 C49 1_555 1_555
H45 C49 1_555 1_555
Mn1C O5 1_555 1_555
Mn1C_2 O3 1_555 1_555
Mn2_2 O4 1_555 1_555
Mn2C O6 1_555 1_555
O3C Mn1 1_555 1_555
O4_2 Mn2 1_555 1_555
O5C Mn1 1_555 1_555
O6C Mn2 1_555 1_555
Mn2 O7 1_555 1_555
O8 C34 1_555 1_555
C5 C6 1_555 1_555
C10 C11 1_555 1_555
C12 C13 1_555 1_555
C17 C18 1_555 1_555
C19 C20 1_555 1_555
C25 C26 1_555 1_555
C30 C31 1_555 1_555
C32 C33 1_555 1_555
C37 C38 1_555 1_555
C39 C40 1_555 1_555

#END
