
#######################################################################
#
#                 Cambridge Crystallographic Data Centre
#                                CCDC 
#
#######################################################################
#
# If this CIF has been generated from an entry in the Cambridge 
# Structural Database, then it will include bibliographic, chemical, 
# crystal, experimental, refinement or atomic coordinate data resulting 
# from the CCDC's data processing and validation procedures.
#
#######################################################################

data_BOZKAE
_symmetry_cell_setting           monoclinic
_symmetry_space_group_name_H-M   'P 21/c'
_symmetry_Int_Tables_number      14
_space_group_name_Hall           '-P 2ybc'
loop_
_symmetry_equiv_pos_site_id
_symmetry_equiv_pos_as_xyz
1 x,y,z
2 -x,1/2+y,1/2-z
3 -x,-y,-z
4 x,1/2-y,1/2+z
_cell_length_a                   14.5548(4)
_cell_length_b                   8.8945(3)
_cell_length_c                   20.0227(7)
_cell_angle_alpha                90
_cell_angle_beta                 126.214(2)
_cell_angle_gamma                90
_cell_volume                     2091.34
loop_
_atom_site_label
_atom_site_type_symbol
_atom_site_fract_x
_atom_site_fract_y
_atom_site_fract_z
C1 C -0.0279(2) 0.0762(3) -0.16318(15)
H1 H 0.0480 0.0527 -0.1495
H2 H -0.0647 0.1519 -0.2081
C2 C 0.34271(19) 0.6784(3) 0.52971(15)
H3 H 0.2903 0.6564 0.5447
H4 H 0.3097 0.7617 0.4890
C3 C -0.0999(2) -0.0654(3) -0.19221(15)
H5 H -0.1678 -0.0466 -0.1933
H6 H -0.1268 -0.0880 -0.2495
C4 C 0.45744(19) 0.7252(3) 0.60617(15)
H7 H 0.4452 0.7969 0.6381
H8 H 0.4957 0.6354 0.6413
C5 C -0.03812(19) -0.1999(3) -0.13901(15)
C6 C -0.0328(2) -0.3327(3) -0.17359(17)
H9 H -0.0699 -0.3394 -0.2316
C7 C 0.0267(2) -0.4549(3) -0.12308(19)
H10 H 0.0294 -0.5467 -0.1461
C8 C 0.0819(2) -0.4415(3) -0.03930(18)
H11 H 0.1256 -0.5223 -0.0031
C9 C 0.07222(18) -0.3074(3) -0.00867(16)
H12 H 0.1095 -0.2988 0.0493
C10 C 0.22678(19) 0.1372(3) 0.07262(15)
C11 C 0.34873(18) 0.1641(3) 0.14668(15)
H13 H 0.4009 0.1205 0.1354
H14 H 0.3624 0.1119 0.1954
C12 C 0.37578(19) 0.3309(3) 0.16668(15)
H15 H 0.3622 0.3827 0.1178
H16 H 0.4575 0.3420 0.2129
C13 C 0.30506(19) 0.4076(3) 0.19053(15)
H17 H 0.2232 0.3944 0.1451
H18 H 0.3203 0.3582 0.2405
C14 C 0.3309(2) 0.5743(3) 0.20775(15)
H19 H 0.3086 0.6248 0.1561
H20 H 0.4140 0.5874 0.2490
C15 C 0.2705(2) 0.6512(3) 0.23971(15)
H21 H 0.2821 0.7611 0.2409
H22 H 0.1878 0.6315 0.2005
C16 C 0.3111(2) 0.6000(3) 0.32552(15)
C17 C 0.53577(18) 0.7971(3) 0.58948(14)
C18 C 0.5781(2) 0.9409(3) 0.61684(15)
H23 H 0.5572 0.9967 0.6464
C19 C 0.6504(2) 1.0037(3) 0.60147(15)
H24 H 0.6798 1.1023 0.6202
C20 C 0.67914(19) 0.9197(3) 0.55809(15)
H25 H 0.7290 0.9596 0.5466
C21 C 0.63448(18) 0.7781(3) 0.53195(14)
H26 H 0.6543 0.7216 0.5019
N1 N 0.01284(15) -0.1888(2) -0.05680(12)
N2 N 0.56368(15) 0.7150(2) 0.54681(12)
O1 O -0.01483(13) 0.13649(18) -0.09125(10)
H27 H 0.052(2) 0.166(3) -0.0601(16)
O2 O 0.35443(13) 0.54774(18) 0.49349(11)
H28 H 0.308(2) 0.551(3) 0.4401(18)
O3 O 0.17464(13) 0.02619(17) 0.07485(10)
O4 O 0.18495(13) 0.22864(19) 0.01286(10)
O5 O 0.41741(12) 0.58074(18) 0.37951(10)
O6 O 0.23687(14) 0.5848(2) 0.33860(11)
Ni1 Ni 0.0000 0.0000 0.0000
Ni2 Ni 0.5000 0.5000 0.5000
C1B C 0.0279(2) -0.0762(3) 0.16318(15)
H1B H -0.0480 -0.0527 0.1495
H2B H 0.0647 -0.1519 0.2081
C3B C 0.0999(2) 0.0654(3) 0.19221(15)
H5B H 0.1678 0.0466 0.1933
H6B H 0.1268 0.0880 0.2495
C5B C 0.03812(19) 0.1999(3) 0.13901(15)
C6B C 0.0328(2) 0.3327(3) 0.17359(17)
H9B H 0.0699 0.3394 0.2316
C7B C -0.0267(2) 0.4549(3) 0.12308(19)
H10B H -0.0294 0.5467 0.1461
C8B C -0.0819(2) 0.4415(3) 0.03930(18)
H11B H -0.1256 0.5223 0.0031
C9B C -0.07222(18) 0.3074(3) 0.00867(16)
H12B H -0.1095 0.2988 -0.0493
C10B C -0.22678(19) -0.1372(3) -0.07262(15)
C11B C -0.34873(18) -0.1641(3) -0.14668(15)
H13B H -0.4009 -0.1205 -0.1354
H14B H -0.3624 -0.1119 -0.1954
C12B C -0.37578(19) -0.3309(3) -0.16668(15)
H15B H -0.3622 -0.3827 -0.1178
H16B H -0.4575 -0.3420 -0.2129
C13B C -0.30506(19) -0.4076(3) -0.19053(15)
H17B H -0.2232 -0.3944 -0.1451
H18B H -0.3203 -0.3582 -0.2405
C14B C -0.3309(2) -0.5743(3) -0.20775(15)
H19B H -0.3086 -0.6248 -0.1561
H20B H -0.4140 -0.5874 -0.2490
C15B C -0.2705(2) -0.6512(3) -0.23971(15)
H21B H -0.2821 -0.7611 -0.2409
H22B H -0.1878 -0.6315 -0.2005
C16B C -0.3111(2) -0.6000(3) -0.32552(15)
N1B N -0.01284(15) 0.1888(2) 0.05680(12)
O1B O 0.01483(13) -0.13649(18) 0.09125(10)
H27B H -0.052(2) -0.166(3) 0.0601(16)
O3B O -0.17464(13) -0.02619(17) -0.07485(10)
O4B O -0.18495(13) -0.22864(19) -0.01286(10)
O5B O -0.41741(12) -0.58074(18) -0.37951(10)
O6B O -0.23687(14) -0.5848(2) -0.33860(11)
C2B C 0.65729(19) 0.3216(3) 0.47029(15)
H3B H 0.7097 0.3436 0.4553
H4B H 0.6903 0.2383 0.5110
C4B C 0.54256(19) 0.2748(3) 0.39383(15)
H7B H 0.5548 0.2031 0.3619
H8B H 0.5043 0.3646 0.3587
C17B C 0.46423(18) 0.2029(3) 0.41052(14)
C18B C 0.4219(2) 0.0591(3) 0.38316(15)
H23B H 0.4428 0.0033 0.3536
C19B C 0.3496(2) -0.0037(3) 0.39853(15)
H24B H 0.3202 -0.1023 0.3798
C20B C 0.32086(19) 0.0803(3) 0.44191(15)
H25B H 0.2710 0.0404 0.4534
C21B C 0.36552(18) 0.2219(3) 0.46805(14)
H26B H 0.3457 0.2784 0.4981
N2B N 0.43632(15) 0.2850(2) 0.45319(12)
O2B O 0.64557(13) 0.45226(18) 0.50651(11)
H28B H 0.692(2) 0.449(3) 0.5599(18)
O5B_2 O 0.58259(12) 0.41926(18) 0.62049(10)
Ni2_2 Ni -0.5000 -0.5000 -0.5000
loop_
_geom_bond_atom_site_label_1
_geom_bond_atom_site_label_2
_geom_bond_site_symmetry_1
_geom_bond_site_symmetry_2
C1 H1 1_555 1_555
H2 C1 1_555 1_555
C2 H3 1_555 1_555
H4 C2 1_555 1_555
C3 C1 1_555 1_555
H5 C3 1_555 1_555
H6 C3 1_555 1_555
C4 C2 1_555 1_555
H7 C4 1_555 1_555
H8 C4 1_555 1_555
C5 C3 1_555 1_555
C6 C5 1_555 1_555
H9 C6 1_555 1_555
C7 C6 1_555 1_555
H10 C7 1_555 1_555
C8 C7 1_555 1_555
H11 C8 1_555 1_555
C9 C8 1_555 1_555
H12 C9 1_555 1_555
C10 C11 1_555 1_555
C11 H13 1_555 1_555
H14 C11 1_555 1_555
C12 C11 1_555 1_555
H15 C12 1_555 1_555
H16 C12 1_555 1_555
C13 C12 1_555 1_555
H17 C13 1_555 1_555
H18 C13 1_555 1_555
C14 C13 1_555 1_555
H19 C14 1_555 1_555
H20 C14 1_555 1_555
C15 C14 1_555 1_555
H21 C15 1_555 1_555
H22 C15 1_555 1_555
C16 C15 1_555 1_555
C17 C4 1_555 1_555
C18 C17 1_555 1_555
H23 C18 1_555 1_555
C19 C18 1_555 1_555
H24 C19 1_555 1_555
C20 C19 1_555 1_555
H25 C20 1_555 1_555
C21 C20 1_555 1_555
H26 C21 1_555 1_555
N1 C5 1_555 1_555
N2 C17 1_555 1_555
O1 C1 1_555 1_555
H27 O1 1_555 1_555
O2 C2 1_555 1_555
H28 O2 1_555 1_555
O3 C10 1_555 1_555
O4 C10 1_555 1_555
O5 C16 1_555 1_555
O6 C16 1_555 1_555
Ni1 N1 1_555 1_555
Ni2 N2 1_555 1_555
C1B H1B 1_555 1_555
H2B C1B 1_555 1_555
C3B C1B 1_555 1_555
H5B C3B 1_555 1_555
H6B C3B 1_555 1_555
C5B C3B 1_555 1_555
C6B C5B 1_555 1_555
H9B C6B 1_555 1_555
C7B C6B 1_555 1_555
H10B C7B 1_555 1_555
C8B C7B 1_555 1_555
H11B C8B 1_555 1_555
C9B C8B 1_555 1_555
H12B C9B 1_555 1_555
C10B C11B 1_555 1_555
C11B H13B 1_555 1_555
H14B C11B 1_555 1_555
C12B C11B 1_555 1_555
H15B C12B 1_555 1_555
H16B C12B 1_555 1_555
C13B C12B 1_555 1_555
H17B C13B 1_555 1_555
H18B C13B 1_555 1_555
C14B C13B 1_555 1_555
H19B C14B 1_555 1_555
H20B C14B 1_555 1_555
C15B C14B 1_555 1_555
H21B C15B 1_555 1_555
H22B C15B 1_555 1_555
C16B C15B 1_555 1_555
N1B Ni1 1_555 1_555
O1B Ni1 1_555 1_555
H27B O1B 1_555 1_555
O3B Ni1 1_555 1_555
O4B C10B 1_555 1_555
O5B C16B 1_555 1_555
O6B C16B 1_555 1_555
C2B H3B 1_555 1_555
H4B C2B 1_555 1_555
C4B C2B 1_555 1_555
H7B C4B 1_555 1_555
H8B C4B 1_555 1_555
C17B C4B 1_555 1_555
C18B C17B 1_555 1_555
H23B C18B 1_555 1_555
C19B C18B 1_555 1_555
H24B C19B 1_555 1_555
C20B C19B 1_555 1_555
H25B C20B 1_555 1_555
C21B C20B 1_555 1_555
H26B C21B 1_555 1_555
N2B Ni2 1_555 1_555
O2B Ni2 1_555 1_555
H28B O2B 1_555 1_555
O5B_2 Ni2 1_555 1_555
Ni2_2 O5B 1_555 1_555
C9 N1 1_555 1_555
C21 N2 1_555 1_555
O1 Ni1 1_555 1_555
O2 Ni2 1_555 1_555
O3 Ni1 1_555 1_555
O5 Ni2 1_555 1_555
C1B O1B 1_555 1_555
C5B N1B 1_555 1_555
C9B N1B 1_555 1_555
C10B O3B 1_555 1_555
C2B O2B 1_555 1_555
C17B N2B 1_555 1_555
C21B N2B 1_555 1_555

#END
