
#######################################################################
#
#                 Cambridge Crystallographic Data Centre
#                                CCDC 
#
#######################################################################
#
# If this CIF has been generated from an entry in the Cambridge 
# Structural Database, then it will include bibliographic, chemical, 
# crystal, experimental, refinement or atomic coordinate data resulting 
# from the CCDC's data processing and validation procedures.
#
#######################################################################

data_BOZLAF
_symmetry_cell_setting           monoclinic
_symmetry_space_group_name_H-M   'C 2/c'
_symmetry_Int_Tables_number      15
_space_group_name_Hall           '-C 2yn'
loop_
_symmetry_equiv_pos_site_id
_symmetry_equiv_pos_as_xyz
1 x,y,z
2 -x,y,1/2-z
3 1/2+x,1/2+y,z
4 1/2-x,1/2+y,1/2-z
5 -x,-y,-z
6 x,-y,1/2+z
7 1/2-x,1/2-y,-z
8 1/2+x,1/2-y,1/2+z
_cell_length_a                   15.8727(3)
_cell_length_b                   13.5412(2)
_cell_length_c                   10.0184(2)
_cell_angle_alpha                90
_cell_angle_beta                 124.2610(10)
_cell_angle_gamma                90
_cell_volume                     1779.67
loop_
_atom_site_label
_atom_site_type_symbol
_atom_site_fract_x
_atom_site_fract_y
_atom_site_fract_z
Ni1 Ni 0.5000 0.25983(2) 0.2500
O1 O 0.10433(7) 0.34930(7) -0.21970(12)
O2 O 0.43787(8) 0.26035(7) 0.00739(12)
O3 O 0.51457(10) 0.13350(9) -0.02477(14)
N1 N 0.39136(8) 0.36667(9) 0.20350(14)
C1 C 0.22582(10) 0.43928(10) 0.02436(16)
C2 C 0.12414(10) 0.44030(10) -0.13553(17)
H1 H 0.0709 0.4525 -0.1179
H2 H 0.1228 0.4937 -0.2012
C3 C 0.24836(11) 0.51128(12) 0.13804(19)
H3 H 0.2008 0.5597 0.1166
C4 C 0.29979(10) 0.36917(9) 0.06168(16)
H4 H 0.2853 0.3215 -0.0153
C5 C 0.37783(17) 0.21409(15) -0.2594(2)
H5 H 0.4001 0.1735 -0.3124
H6 H 0.3775 0.2820 -0.2870
H7 H 0.3103 0.1949 -0.2934
C6 C 0.34272(13) 0.51014(14) 0.2841(2)
H8 H 0.3599 0.5583 0.3617
C7 C 0.44974(12) 0.20128(11) -0.07843(17)
C8 C 0.41118(12) 0.43604(13) 0.31255(19)
H9 H 0.4737 0.4345 0.4120
H10 H 0.0786(17) 0.3615(17) -0.322(3)
O1A O 0.89567(7) 0.34930(7) 0.71970(12)
O2A O 0.56213(8) 0.26035(7) 0.49261(12)
O3A O 0.48543(10) 0.13350(9) 0.52477(14)
N1A N 0.60864(8) 0.36667(9) 0.29650(14)
C1A C 0.77418(10) 0.43928(10) 0.47564(16)
C2A C 0.87586(10) 0.44030(10) 0.63553(17)
H1A H 0.9291 0.4525 0.6179
H2A H 0.8772 0.4937 0.7012
C3A C 0.75164(11) 0.51128(12) 0.36196(19)
H3A H 0.7992 0.5597 0.3834
C4A C 0.70021(10) 0.36917(9) 0.43832(16)
H4A H 0.7147 0.3215 0.5153
C5A C 0.62217(17) 0.21409(15) 0.7594(2)
H5A H 0.5999 0.1735 0.8124
H6A H 0.6225 0.2820 0.7870
H7A H 0.6897 0.1949 0.7934
C6A C 0.65728(13) 0.51014(14) 0.2159(2)
H8A H 0.6401 0.5583 0.1383
C7A C 0.55026(12) 0.20128(11) 0.57843(17)
C8A C 0.58882(12) 0.43604(13) 0.18745(19)
H9A H 0.5263 0.4345 0.0880
H10A H 0.9214(17) 0.3615(17) 0.822(3)
Ni1F Ni 0.0000 0.24017(2) -0.2500
Ni1F_2 Ni 1.0000 0.24017(2) 0.7500
O1F O 0.39567(7) 0.15070(7) 0.21970(12)
O1G O 0.60433(7) 0.15070(7) 0.28030(12)
loop_
_geom_bond_atom_site_label_1
_geom_bond_atom_site_label_2
_geom_bond_site_symmetry_1
_geom_bond_site_symmetry_2
Ni1 O2 1_555 1_555
O1 C2 1_555 1_555
O2 C7 1_555 1_555
O3 C7 1_555 1_555
N1 Ni1 1_555 1_555
C1 C2 1_555 1_555
C2 H1 1_555 1_555
H2 C2 1_555 1_555
C3 C1 1_555 1_555
H3 C3 1_555 1_555
C4 N1 1_555 1_555
H4 C4 1_555 1_555
C5 H5 1_555 1_555
H6 C5 1_555 1_555
H7 C5 1_555 1_555
C6 C3 1_555 1_555
H8 C6 1_555 1_555
C7 C5 1_555 1_555
C8 N1 1_555 1_555
H9 C8 1_555 1_555
H10 O1 1_555 1_555
O1A C2A 1_555 1_555
O2A Ni1 1_555 1_555
O3A C7A 1_555 1_555
N1A Ni1 1_555 1_555
C1A C2A 1_555 1_555
C2A H1A 1_555 1_555
H2A C2A 1_555 1_555
C3A C1A 1_555 1_555
H3A C3A 1_555 1_555
C4A N1A 1_555 1_555
H4A C4A 1_555 1_555
C5A H5A 1_555 1_555
H6A C5A 1_555 1_555
H7A C5A 1_555 1_555
C6A C3A 1_555 1_555
H8A C6A 1_555 1_555
C7A O2A 1_555 1_555
C8A N1A 1_555 1_555
H9A C8A 1_555 1_555
H10A O1A 1_555 1_555
Ni1F O1 1_555 1_555
Ni1F_2 O1A 1_555 1_555
O1F Ni1 1_555 1_555
O1G Ni1 1_555 1_555
C1 C4 1_555 1_555
C6 C8 1_555 1_555
C1A C4A 1_555 1_555
C5A C7A 1_555 1_555
C6A C8A 1_555 1_555

#END
