
#######################################################################
#
#                 Cambridge Crystallographic Data Centre
#                                CCDC 
#
#######################################################################
#
# If this CIF has been generated from an entry in the Cambridge 
# Structural Database, then it will include bibliographic, chemical, 
# crystal, experimental, refinement or atomic coordinate data resulting 
# from the CCDC's data processing and validation procedures.
#
#######################################################################

data_BOZROZ
_symmetry_cell_setting           triclinic
_symmetry_space_group_name_H-M   'P -1'
_symmetry_Int_Tables_number      2
_space_group_name_Hall           '-P 1'
loop_
_symmetry_equiv_pos_site_id
_symmetry_equiv_pos_as_xyz
1 x,y,z
2 -x,-y,-z
_cell_length_a                   9.5935(8)
_cell_length_b                   11.0774(8)
_cell_length_c                   15.4429(12)
_cell_angle_alpha                71.727(7)
_cell_angle_beta                 82.003(7)
_cell_angle_gamma                87.882(6)
_cell_volume                     1543.18
loop_
_atom_site_label
_atom_site_type_symbol
_atom_site_fract_x
_atom_site_fract_y
_atom_site_fract_z
Cd1 Cd 0.15336(5) 0.09983(5) 0.98897(3)
Cd2 Cd 0.5000 0.0000 1.0000
O1 O 0.2403(6) 0.3017(5) 0.9130(4)
O2 O 0.3864(5) 0.1825(5) 1.0015(3)
O3 O 0.0603(5) -0.1205(5) 1.0625(3)
O4 O 0.2788(5) -0.0923(5) 1.0769(3)
O5 O 0.4660(5) 0.0389(6) 0.8566(3)
O6 O 0.2321(6) 0.0462(6) 0.8649(3)
N1 N 0.0817(7) 0.1266(6) 1.1298(4)
Br1 Br 0.48620(12) 0.76240(10) 0.73689(7)
Br2 Br 0.85824(10) 0.45882(10) 0.96331(8)
Br3 Br -0.15408(13) -0.51229(12) 1.36005(8)
Br4 Br 0.41851(11) -0.44752(10) 1.38132(7)
Br5 Br 0.67984(13) 0.15623(14) 0.49836(7)
Br6 Br 0.08616(13) 0.19248(13) 0.52790(8)
C1 C 0.3551(8) 0.2858(8) 0.9442(5)
C2 C 0.4608(7) 0.3943(7) 0.9121(5)
C3 C 0.4294(8) 0.5053(7) 0.8493(5)
H1 H 0.3444 0.5153 0.8254
C4 C 0.5280(9) 0.6031(7) 0.8219(5)
C5 C 0.6562(8) 0.5916(8) 0.8542(5)
H2 H 0.7221 0.6573 0.8335
C6 C 0.6821(8) 0.4779(8) 0.9186(5)
C7 C 0.5856(8) 0.3794(7) 0.9483(5)
H3 H 0.6047 0.3038 0.9924
C8 C 0.1658(7) -0.1534(7) 1.1039(4)
C9 C 0.1533(7) -0.2629(7) 1.1921(5)
C10 C 0.0261(8) -0.3285(7) 1.2276(5)
H4 H -0.0524 -0.3074 1.1969
C11 C 0.0209(9) -0.4253(8) 1.3093(6)
C12 C 0.1347(10) -0.4609(8) 1.3557(6)
H5 H 0.1276 -0.5270 1.4110
C13 C 0.2595(9) -0.3971(8) 1.3190(5)
C14 C 0.2693(8) -0.2965(7) 1.2380(5)
H6 H 0.3536 -0.2518 1.2147
C15 C 0.3541(9) 0.0543(8) 0.8211(5)
C16 C 0.3651(8) 0.0916(7) 0.7176(4)
C17 C 0.4949(8) 0.1026(7) 0.6650(5)
H7 H 0.5768 0.0842 0.6924
C18 C 0.5003(9) 0.1418(9) 0.5700(5)
C19 C 0.3809(11) 0.1693(9) 0.5277(5)
H8 H 0.3864 0.1958 0.4639
C20 C 0.2538(10) 0.1566(8) 0.5822(6)
C21 C 0.2432(8) 0.1178(7) 0.6776(5)
H9 H 0.1558 0.1096 0.7136
C22 C 0.1669(9) 0.0913(8) 1.1961(5)
H10 H 0.2536 0.0549 1.1846
C23 C 0.1264(10) 0.1089(9) 1.2805(6)
H11 H 0.1854 0.0830 1.3258
C24 C 0.0003(11) 0.1639(11) 1.2983(7)
H12 H -0.0278 0.1762 1.3550
C25 C -0.0823(10) 0.1999(11) 1.2299(7)
H13 H -0.1676 0.2398 1.2389
C26 C -0.0404(10) 0.1777(9) 1.1474(6)
H14 H -0.1004 0.1996 1.1027
Cd1A Cd -0.15336(5) -0.09983(5) 1.01103(3)
O1A O -0.2403(6) -0.3017(5) 1.0870(4)
O2A O -0.3864(5) -0.1825(5) 0.9985(3)
O3A O -0.0603(5) 0.1205(5) 0.9375(3)
O4A O -0.2788(5) 0.0923(5) 0.9231(3)
O5A O -0.4660(5) -0.0389(6) 1.1434(3)
O6A O -0.2321(6) -0.0462(6) 1.1351(3)
N1A N -0.0817(7) -0.1266(6) 0.8702(4)
Br1A Br -0.48620(12) -0.76240(10) 1.26311(7)
Br2A Br -0.85824(10) -0.45882(10) 1.03669(8)
Br3A Br 0.15408(13) 0.51229(12) 0.63995(8)
Br4A Br -0.41851(11) 0.44752(10) 0.61868(7)
Br5A Br -0.67984(13) -0.15623(14) 1.50164(7)
Br6A Br -0.08616(13) -0.19248(13) 1.47210(8)
C1A C -0.3551(8) -0.2858(8) 1.0558(5)
C2A C -0.4608(7) -0.3943(7) 1.0879(5)
C3A C -0.4294(8) -0.5053(7) 1.1507(5)
H1A H -0.3444 -0.5153 1.1746
C4A C -0.5280(9) -0.6031(7) 1.1781(5)
C5A C -0.6562(8) -0.5916(8) 1.1458(5)
H2A H -0.7221 -0.6573 1.1665
C6A C -0.6821(8) -0.4779(8) 1.0814(5)
C7A C -0.5856(8) -0.3794(7) 1.0517(5)
H3A H -0.6047 -0.3038 1.0076
C8A C -0.1658(7) 0.1534(7) 0.8961(4)
C9A C -0.1533(7) 0.2629(7) 0.8079(5)
C10A C -0.0261(8) 0.3285(7) 0.7724(5)
H4A H 0.0524 0.3074 0.8031
C11A C -0.0209(9) 0.4253(8) 0.6907(6)
C12A C -0.1347(10) 0.4609(8) 0.6443(6)
H5A H -0.1276 0.5270 0.5890
C13A C -0.2595(9) 0.3971(8) 0.6810(5)
C14A C -0.2693(8) 0.2965(7) 0.7620(5)
H6A H -0.3536 0.2518 0.7853
C15A C -0.3541(9) -0.0543(8) 1.1789(5)
C16A C -0.3651(8) -0.0916(7) 1.2824(4)
C17A C -0.4949(8) -0.1026(7) 1.3350(5)
H7A H -0.5768 -0.0842 1.3076
C18A C -0.5003(9) -0.1418(9) 1.4300(5)
C19A C -0.3809(11) -0.1693(9) 1.4723(5)
H8A H -0.3864 -0.1958 1.5361
C20A C -0.2538(10) -0.1566(8) 1.4178(6)
C21A C -0.2432(8) -0.1178(7) 1.3224(5)
H9A H -0.1558 -0.1096 1.2864
C22A C -0.1669(9) -0.0913(8) 0.8039(5)
H10A H -0.2536 -0.0549 0.8154
C23A C -0.1264(10) -0.1089(9) 0.7195(6)
H11A H -0.1854 -0.0830 0.6742
C24A C -0.0003(11) -0.1639(11) 0.7017(7)
H12A H 0.0278 -0.1762 0.6450
C25A C 0.0823(10) -0.1999(11) 0.7701(7)
H13A H 0.1676 -0.2398 0.7611
C26A C 0.0404(10) -0.1777(9) 0.8526(6)
H14A H 0.1004 -0.1996 0.8973
Cd2_2 Cd -0.5000 0.0000 1.0000
O2A_2 O 0.6136(5) -0.1825(5) 0.9985(3)
O4A_2 O 0.7212(5) 0.0923(5) 0.9231(3)
O5A_2 O 0.5340(5) -0.0389(6) 1.1434(3)
loop_
_geom_bond_atom_site_label_1
_geom_bond_atom_site_label_2
_geom_bond_site_symmetry_1
_geom_bond_site_symmetry_2
Cd1 O1 1_555 1_555
Cd2 O2 1_555 1_555
O1 C1 1_555 1_555
O2 Cd1 1_555 1_555
O3 Cd1 1_555 1_555
O4 Cd1 1_555 1_555
O5 Cd2 1_555 1_555
O6 Cd1 1_555 1_555
N1 Cd1 1_555 1_555
Br1 C4 1_555 1_555
Br2 C6 1_555 1_555
Br3 C11 1_555 1_555
Br4 C13 1_555 1_555
Br5 C18 1_555 1_555
Br6 C20 1_555 1_555
C1 O2 1_555 1_555
C2 C1 1_555 1_555
C3 C2 1_555 1_555
H1 C3 1_555 1_555
C4 C3 1_555 1_555
C5 C4 1_555 1_555
H2 C5 1_555 1_555
C6 C5 1_555 1_555
C7 C2 1_555 1_555
H3 C7 1_555 1_555
C8 O3 1_555 1_555
C9 C8 1_555 1_555
C10 C9 1_555 1_555
H4 C10 1_555 1_555
C11 C10 1_555 1_555
C12 C11 1_555 1_555
H5 C12 1_555 1_555
C13 C12 1_555 1_555
C14 C9 1_555 1_555
H6 C14 1_555 1_555
C15 O5 1_555 1_555
C16 C15 1_555 1_555
C17 C16 1_555 1_555
H7 C17 1_555 1_555
C18 C17 1_555 1_555
C19 C18 1_555 1_555
H8 C19 1_555 1_555
C20 C19 1_555 1_555
C21 C16 1_555 1_555
H9 C21 1_555 1_555
C22 N1 1_555 1_555
H10 C22 1_555 1_555
C23 C22 1_555 1_555
H11 C23 1_555 1_555
C24 C23 1_555 1_555
H12 C24 1_555 1_555
C25 C24 1_555 1_555
H13 C25 1_555 1_555
C26 N1 1_555 1_555
H14 C26 1_555 1_555
Cd1A O3 1_555 1_555
O1A Cd1A 1_555 1_555
O2A Cd1A 1_555 1_555
O3A Cd1 1_555 1_555
O4A Cd1A 1_555 1_555
O5A C15A 1_555 1_555
O6A Cd1A 1_555 1_555
N1A Cd1A 1_555 1_555
Br1A C4A 1_555 1_555
Br2A C6A 1_555 1_555
Br3A C11A 1_555 1_555
Br4A C13A 1_555 1_555
Br5A C18A 1_555 1_555
Br6A C20A 1_555 1_555
C1A O1A 1_555 1_555
C2A C1A 1_555 1_555
C3A C2A 1_555 1_555
H1A C3A 1_555 1_555
C4A C3A 1_555 1_555
C5A C4A 1_555 1_555
H2A C5A 1_555 1_555
C6A C5A 1_555 1_555
C7A C2A 1_555 1_555
H3A C7A 1_555 1_555
C8A O3A 1_555 1_555
C9A C8A 1_555 1_555
C10A C9A 1_555 1_555
H4A C10A 1_555 1_555
C11A C10A 1_555 1_555
C12A C11A 1_555 1_555
H5A C12A 1_555 1_555
C13A C12A 1_555 1_555
C14A C9A 1_555 1_555
H6A C14A 1_555 1_555
C15A O6A 1_555 1_555
C16A C15A 1_555 1_555
C17A C16A 1_555 1_555
H7A C17A 1_555 1_555
C18A C17A 1_555 1_555
C19A C18A 1_555 1_555
H8A C19A 1_555 1_555
C20A C19A 1_555 1_555
C21A C16A 1_555 1_555
H9A C21A 1_555 1_555
C22A N1A 1_555 1_555
H10A C22A 1_555 1_555
C23A C22A 1_555 1_555
H11A C23A 1_555 1_555
C24A C23A 1_555 1_555
H12A C24A 1_555 1_555
C25A C24A 1_555 1_555
H13A C25A 1_555 1_555
C26A N1A 1_555 1_555
H14A C26A 1_555 1_555
Cd2_2 O2A 1_555 1_555
O2A_2 Cd2 1_555 1_555
O4A_2 Cd2 1_555 1_555
O5A_2 Cd2 1_555 1_555
Cd2 O4 1_555 1_555
O4 C8 1_555 1_555
O6 C15 1_555 1_555
C6 C7 1_555 1_555
C13 C14 1_555 1_555
C20 C21 1_555 1_555
C25 C26 1_555 1_555
Cd1A O3A 1_555 1_555
O2A C1A 1_555 1_555
O4A C8A 1_555 1_555
O4A Cd2_2 1_555 1_555
O5A Cd2_2 1_555 1_555
C6A C7A 1_555 1_555
C13A C14A 1_555 1_555
C20A C21A 1_555 1_555
C25A C26A 1_555 1_555

#END
