
#######################################################################
#
#                 Cambridge Crystallographic Data Centre
#                                CCDC 
#
#######################################################################
#
# If this CIF has been generated from an entry in the Cambridge 
# Structural Database, then it will include bibliographic, chemical, 
# crystal, experimental, refinement or atomic coordinate data resulting 
# from the CCDC's data processing and validation procedures.
#
#######################################################################

data_BPYCUP01
_symmetry_cell_setting           triclinic
_symmetry_space_group_name_H-M   'P -1'
_symmetry_Int_Tables_number      2
_space_group_name_Hall           '-P 1'
loop_
_symmetry_equiv_pos_site_id
_symmetry_equiv_pos_as_xyz
1 x,y,z
2 -x,-y,-z
_cell_length_a                   11.238(4)
_cell_length_b                   14.863(5)
_cell_length_c                   7.403(3)
_cell_angle_alpha                96.28(3)
_cell_angle_beta                 99.49(4)
_cell_angle_gamma                110.21(4)
_cell_volume                     1125.88
loop_
_atom_site_label
_atom_site_type_symbol
_atom_site_fract_x
_atom_site_fract_y
_atom_site_fract_z
Cu1 Cu 0.37000 0.23344 0.08460
N1 N 0.20860 0.12130 -0.04120
C1 C 0.10310 0.12600 -0.15170
C2 C 0.00540 0.04310 -0.26020
C3 C 0.01890 -0.04440 -0.25950
C4 C 0.12740 -0.05010 -0.14920
C5 C 0.22000 0.03390 -0.04190
C6 C 0.33930 0.03710 0.08110
C7 C 0.35780 -0.04530 0.13280
C8 C 0.47090 -0.03520 0.24770
C9 C 0.56440 0.05580 0.31070
C10 C 0.54270 0.13600 0.25800
N2 N 0.43060 0.12630 0.14190
N3 N 0.53640 0.34640 0.12710
C11 C 0.64850 0.34490 0.09090
C12 C 0.75930 0.42730 0.12470
C13 C 0.75480 0.51310 0.19630
C14 C 0.63980 0.51800 0.22980
C15 C 0.52820 0.43130 0.19150
C16 C 0.40030 0.42700 0.21630
C17 C 0.37560 0.50740 0.29620
C18 C 0.24660 0.49270 0.31240
C19 C 0.15580 0.40330 0.26110
C20 C 0.18540 0.32670 0.18200
N4 N 0.30530 0.33910 0.15750
Cl1 Cl 0.34332 0.21308 -0.42532
O1 O 0.41270 0.23350 -0.23800
O2 O 0.42920 0.26680 -0.53320
O3 O 0.29720 0.11190 -0.49350
O4 O 0.23440 0.24200 -0.43280
H1 H 0.09490 0.19610 -0.15450
H2 H -0.06020 0.04730 -0.34390
H3 H -0.05510 -0.10980 -0.34440
H4 H 0.14030 -0.11880 -0.14870
H5 H 0.28250 -0.11660 0.08380
H6 H 0.48830 -0.09810 0.28710
H7 H 0.65460 0.06430 0.40180
H8 H 0.61570 0.20800 0.31180
H9 H 0.65030 0.27540 0.03420
H10 H 0.84800 0.42340 0.09620
H11 H 0.84130 0.57830 0.22700
H12 H 0.63370 0.58670 0.28140
H13 H 0.45260 0.57810 0.34230
H14 H 0.22200 0.55300 0.36630
H15 H 0.05910 0.39140 0.28210
H16 H 0.10940 0.25540 0.13820
O2_2 O 0.42920 0.26680 0.46680
Cu1_2 Cu 0.37000 0.23344 -0.91540
O5 O 0.08450 0.63980 0.40780
O6 O 0.07410 0.72550 0.15060
O7 O 0.11210 0.79430 0.42660
Cl2 Cl 0.13040 0.72210 0.32120
O8 O 0.25930 0.73680 0.32350
loop_
_geom_bond_atom_site_label_1
_geom_bond_atom_site_label_2
_geom_bond_site_symmetry_1
_geom_bond_site_symmetry_2
Cu1 N1 1_555 1_555
N1 C1 1_555 1_555
C1 C2 1_555 1_555
C2 C3 1_555 1_555
C3 C4 1_555 1_555
C4 C5 1_555 1_555
C5 N1 1_555 1_555
C6 C5 1_555 1_555
C7 C6 1_555 1_555
C8 C7 1_555 1_555
C9 C8 1_555 1_555
C10 C9 1_555 1_555
N2 Cu1 1_555 1_555
N3 Cu1 1_555 1_555
C11 N3 1_555 1_555
C12 C11 1_555 1_555
C13 C12 1_555 1_555
C14 C13 1_555 1_555
C15 N3 1_555 1_555
C16 C15 1_555 1_555
C17 C16 1_555 1_555
C18 C17 1_555 1_555
C19 C18 1_555 1_555
C20 C19 1_555 1_555
N4 Cu1 1_555 1_555
Cl1 O1 1_555 1_555
O1 Cu1 1_555 1_555
O2 Cl1 1_555 1_555
O3 Cl1 1_555 1_555
O4 Cl1 1_555 1_555
H1 C1 1_555 1_555
H2 C2 1_555 1_555
H3 C3 1_555 1_555
H4 C4 1_555 1_555
H5 C7 1_555 1_555
H6 C8 1_555 1_555
H7 C9 1_555 1_555
H8 C10 1_555 1_555
H9 C11 1_555 1_555
H10 C12 1_555 1_555
H11 C13 1_555 1_555
H12 C14 1_555 1_555
H13 C17 1_555 1_555
H14 C18 1_555 1_555
H15 C19 1_555 1_555
H16 C20 1_555 1_555
O5 Cl2 1_555 1_555
O6 Cl2 1_555 1_555
O7 Cl2 1_555 1_555
Cl2 O8 1_555 1_555
O2_2 Cu1 1_555 1_555
Cu1_2 O2 1_555 1_555
C6 N2 1_555 1_555
C10 N2 1_555 1_555
C14 C15 1_555 1_555
C16 N4 1_555 1_555
C20 N4 1_555 1_555

#END
