
#######################################################################
#
#                 Cambridge Crystallographic Data Centre
#                                CCDC 
#
#######################################################################
#
# If this CIF has been generated from an entry in the Cambridge 
# Structural Database, then it will include bibliographic, chemical, 
# crystal, experimental, refinement or atomic coordinate data resulting 
# from the CCDC's data processing and validation procedures.
#
#######################################################################

data_BUBBOR
_symmetry_cell_setting           monoclinic
_symmetry_space_group_name_H-M   'P 21/n'
_symmetry_Int_Tables_number      14
_space_group_name_Hall           '-P 2yn'
loop_
_symmetry_equiv_pos_site_id
_symmetry_equiv_pos_as_xyz
1 x,y,z
2 1/2-x,1/2+y,1/2-z
3 -x,-y,-z
4 1/2+x,1/2-y,1/2+z
_cell_length_a                   12.1990(12)
_cell_length_b                   7.9314(8)
_cell_length_c                   16.3430(15)
_cell_angle_alpha                90
_cell_angle_beta                 111.1380(10)
_cell_angle_gamma                90
_cell_volume                     1474.87
loop_
_atom_site_label
_atom_site_type_symbol
_atom_site_fract_x
_atom_site_fract_y
_atom_site_fract_z
Mn1 Mn 0.68120(3) 0.14257(4) 0.12074(2)
C1 C 0.4787(2) 0.2567(3) 0.18695(16)
H1 H 0.5136 0.1909 0.2367
C2 C 0.3567(2) 0.4295(3) 0.09338(16)
H2 H 0.2955 0.5040 0.0663
C3 C 0.4392(2) 0.3748(3) 0.06251(18)
H3 H 0.4430 0.4047 0.0086
C4 C 0.3150(2) 0.3640(3) 0.22822(16)
C5 C 0.1969(2) 0.3524(4) 0.20024(19)
H4 H 0.1483 0.3414 0.1417
C6 C 0.2865(2) 0.3800(3) 0.35999(18)
H5 H 0.3048 0.3882 0.4202
C7 C 0.3667(2) 0.3823(3) 0.32065(16)
C8 C 0.55833(19) 0.5127(3) 0.34203(16)
H6 H 0.5302 0.5908 0.2968
C9 C 0.6709(2) 0.3682(3) 0.44835(17)
H7 H 0.7385 0.3277 0.4919
C10 C 0.5627(2) 0.3100(3) 0.43338(16)
H8 H 0.5413 0.2240 0.4633
N1 N 0.51698(17) 0.2683(3) 0.12232(12)
N2 N 0.38200(17) 0.3524(2) 0.17261(13)
N3 N 0.48972(16) 0.4035(3) 0.36481(12)
N4 N 0.66965(15) 0.4955(2) 0.39129(12)
N5 N 0.60199(18) 0.1421(3) -0.02885(13)
N6 N 0.50547(17) 0.1255(2) -0.07677(12)
N7 N 0.40799(17) 0.1087(2) -0.12648(13)
N8 N 0.7755(2) 0.3803(3) 0.12546(14)
N9 N 0.84843(19) 0.3868(2) 0.09259(14)
N10 N 0.9161(2) 0.3924(3) 0.0586(2)
O1 O 0.75602(17) 0.1346(2) 0.26383(11)
H9 H 0.7271 0.2139 0.2846
H10 H 0.7412 0.0435 0.2812
S1 S 0.14793(6) 0.36052(10) 0.28547(5)
Mn1A Mn 0.81880(3) 0.64257(4) 0.37926(2)
Mn1B Mn 0.31880(3) -0.14257(4) -0.12074(2)
N4A N 0.83035(15) -0.0045(2) 0.10871(12)
N7B N 0.59201(17) -0.1087(2) 0.12648(13)
loop_
_geom_bond_atom_site_label_1
_geom_bond_atom_site_label_2
_geom_bond_site_symmetry_1
_geom_bond_site_symmetry_2
Mn1 N1 1_555 1_555
C1 H1 1_555 1_555
C2 H2 1_555 1_555
C3 C2 1_555 1_555
H3 C3 1_555 1_555
C4 C5 1_555 1_555
C5 H4 1_555 1_555
C6 H5 1_555 1_555
C7 C4 1_555 1_555
C8 H6 1_555 1_555
C9 H7 1_555 1_555
C10 C9 1_555 1_555
H8 C10 1_555 1_555
N1 C1 1_555 1_555
N2 C1 1_555 1_555
N3 C7 1_555 1_555
N4 C8 1_555 1_555
N5 Mn1 1_555 1_555
N6 N5 1_555 1_555
N7 N6 1_555 1_555
N8 Mn1 1_555 1_555
N9 N8 1_555 1_555
N10 N9 1_555 1_555
O1 Mn1 1_555 1_555
H9 O1 1_555 1_555
H10 O1 1_555 1_555
S1 C5 1_555 1_555
Mn1A N4 1_555 1_555
Mn1B N7 1_555 1_555
N4A Mn1 1_555 1_555
N7B Mn1 1_555 1_555
C2 N2 1_555 1_555
C3 N1 1_555 1_555
C4 N2 1_555 1_555
C6 C7 1_555 1_555
C6 S1 1_555 1_555
C8 N3 1_555 1_555
C9 N4 1_555 1_555
C10 N3 1_555 1_555

#END
