
#######################################################################
#
#                 Cambridge Crystallographic Data Centre
#                                CCDC 
#
#######################################################################
#
# If this CIF has been generated from an entry in the Cambridge 
# Structural Database, then it will include bibliographic, chemical, 
# crystal, experimental, refinement or atomic coordinate data resulting 
# from the CCDC's data processing and validation procedures.
#
#######################################################################

data_BUBDIN
_symmetry_cell_setting           monoclinic
_symmetry_space_group_name_H-M   'P 21/c'
_symmetry_Int_Tables_number      14
_space_group_name_Hall           '-P 2ybc'
loop_
_symmetry_equiv_pos_site_id
_symmetry_equiv_pos_as_xyz
1 x,y,z
2 -x,1/2+y,1/2-z
3 -x,-y,-z
4 x,1/2-y,1/2+z
_cell_length_a                   17.471(3)
_cell_length_b                   12.511(2)
_cell_length_c                   21.870(3)
_cell_angle_alpha                90
_cell_angle_beta                 120.911(11)
_cell_angle_gamma                90
_cell_volume                     4101.37
loop_
_atom_site_label
_atom_site_type_symbol
_atom_site_fract_x
_atom_site_fract_y
_atom_site_fract_z
Zn1 Zn 0.98845(4) 0.13206(5) 0.55779(3)
Zn2 Zn 0.59621(4) 0.71006(5) 0.57878(4)
O1 O 0.7263(3) 0.7597(4) 0.5563(2)
O2 O 0.5959(3) 0.6833(3) 0.4915(2)
O3 O 0.9128(3) 0.8018(3) 0.4460(3)
O4 O 0.8719(4) 0.7270(5) 0.3419(3)
O5 O 0.5827(3) -0.0241(4) 0.1021(2)
O6 O 0.6811(3) -0.1429(3) 0.1705(2)
O7 O 0.8888(3) 0.1013(3) 0.46257(19)
O8 O 0.9436(2) 0.0085(3) 0.4063(2)
N1 N 0.5910(3) 0.8740(4) 0.5946(2)
N2 N 0.4656(3) 0.7257(4) 0.5537(3)
N3 N 0.9325(3) 0.2936(4) 0.5578(3)
N4 N 0.9424(3) 0.1136(4) 0.6282(2)
C1 C 0.6712(4) 0.7106(4) 0.5026(3)
C2 C 0.6923(4) 0.6806(4) 0.4465(3)
C3 C 0.7636(4) 0.7261(4) 0.4450(3)
H1 H 0.7982 0.7782 0.4781
C4 C 0.7832(4) 0.6938(4) 0.3939(3)
C5 C 0.7341(4) 0.6123(4) 0.3467(3)
H2 H 0.7483 0.5896 0.3132
C6 C 0.6645(3) 0.5649(4) 0.3492(3)
C7 C 0.6429(4) 0.6011(4) 0.3979(3)
H3 H 0.5943 0.5716 0.3982
C8 C 0.8617(5) 0.7444(6) 0.3917(5)
C9 C 0.6152(4) 0.4701(4) 0.3049(3)
C10 C 0.6616(3) 0.3841(4) 0.3000(3)
H4 H 0.7229 0.3899 0.3194
C11 C 0.6189(3) 0.2893(4) 0.2667(3)
C12 C 0.5276(4) 0.2836(4) 0.2375(3)
H5 H 0.4979 0.2206 0.2156
C13 C 0.4796(4) 0.3684(5) 0.2400(4)
H6 H 0.4181 0.3633 0.2193
C14 C 0.5235(4) 0.4616(5) 0.2736(3)
H7 H 0.4910 0.5193 0.2752
C15 C 0.6712(3) 0.1947(4) 0.2698(3)
C16 C 0.7510(3) 0.1713(4) 0.3322(3)
H8 H 0.7729 0.2190 0.3701
C17 C 0.7983(3) 0.0795(4) 0.3393(3)
C18 C 0.7665(3) 0.0075(4) 0.2837(3)
H9 H 0.7981 -0.0548 0.2884
C19 C 0.6873(4) 0.0285(4) 0.2206(3)
C20 C 0.6403(3) 0.1231(4) 0.2130(3)
H10 H 0.5884 0.1382 0.1701
C21 C 0.8836(3) 0.0597(4) 0.4080(3)
C22 C 0.6478(4) -0.0495(5) 0.1601(3)
C23 C 0.6531(5) 0.9473(5) 0.6118(3)
H11 H 0.7091 0.9257 0.6213
C24 C 0.6381(6) 1.0576(6) 0.6165(4)
H12 H 0.6831 1.1076 0.6288
C25 C 0.5548(6) 1.0884(6) 0.6025(4)
H13 H 0.5430 1.1604 0.6046
C26 C 0.4884(5) 1.0128(6) 0.5852(3)
C27 C 0.4002(7) 1.0354(7) 0.5707(4)
H14 H 0.3853 1.1060 0.5733
C28 C 0.3393(6) 0.9608(8) 0.5540(4)
H15 H 0.2835 0.9792 0.5464
C29 C 0.3586(5) 0.8526(7) 0.5476(3)
C30 C 0.2959(5) 0.7704(8) 0.5273(4)
H16 H 0.2391 0.7849 0.5189
C31 C 0.3186(5) 0.6696(8) 0.5202(5)
H17 H 0.2773 0.6144 0.5064
C32 C 0.4053(5) 0.6491(6) 0.5337(4)
H18 H 0.4205 0.5799 0.5285
C33 C 0.4443(4) 0.8251(5) 0.5612(3)
C34 C 0.5110(4) 0.9048(5) 0.5814(3)
C35 C 0.9277(5) 0.3810(5) 0.5218(5)
H19 H 0.9379 0.3756 0.4842
C36 C 0.9074(6) 0.4816(6) 0.5387(6)
H20 H 0.9063 0.5420 0.5134
C37 C 0.8893(6) 0.4902(6) 0.5926(6)
H21 H 0.8759 0.5565 0.6039
C38 C 0.8911(5) 0.4010(6) 0.6298(4)
C39 C 0.8690(6) 0.3984(8) 0.6830(5)
H22 H 0.8525 0.4617 0.6954
C40 C 0.8710(6) 0.3073(9) 0.7169(5)
H23 H 0.8574 0.3098 0.7528
C41 C 0.8935(4) 0.2072(7) 0.6988(4)
C42 C 0.8942(5) 0.1087(8) 0.7306(4)
H24 H 0.8794 0.1062 0.7658
C43 C 0.9164(5) 0.0181(7) 0.7097(4)
H25 H 0.9144 -0.0476 0.7287
C44 C 0.9421(4) 0.0244(6) 0.6593(4)
H26 H 0.9601 -0.0380 0.6471
C45 C 0.9173(4) 0.2055(5) 0.6470(3)
C46 C 0.9147(4) 0.3010(5) 0.6108(4)
Zn1B Zn 1.01155(4) -0.13206(5) 0.44221(3)
Zn1B_2 Zn 1.01155(4) 0.86794(5) 0.44221(3)
Zn2C Zn 0.59621(4) -0.21006(5) 0.07878(4)
O3B O 1.0872(3) 0.1982(3) 0.5540(3)
O5C O 0.5827(3) 0.5241(4) 0.6021(2)
O6C O 0.6811(3) 0.6429(3) 0.6705(2)
O8B O 1.0564(2) -0.0085(3) 0.5937(2)
O9 O 0.9069(6) 0.7675(7) 0.6391(5)
O10 O 0.8690(6) 0.6923(7) 0.7270(5)
O11 O 0.0178(6) 0.7193(7) 0.5966(5)
loop_
_geom_bond_atom_site_label_1
_geom_bond_atom_site_label_2
_geom_bond_site_symmetry_1
_geom_bond_site_symmetry_2
Zn1 O7 1_555 1_555
Zn2 O2 1_555 1_555
O1 C1 1_555 1_555
O2 C1 1_555 1_555
O3 C8 1_555 1_555
O4 C8 1_555 1_555
O5 C22 1_555 1_555
O6 C22 1_555 1_555
O7 C21 1_555 1_555
O8 C21 1_555 1_555
N1 Zn2 1_555 1_555
N2 Zn2 1_555 1_555
N3 Zn1 1_555 1_555
N4 Zn1 1_555 1_555
C1 C2 1_555 1_555
C2 C3 1_555 1_555
C3 H1 1_555 1_555
C4 C3 1_555 1_555
C5 C4 1_555 1_555
H2 C5 1_555 1_555
C6 C5 1_555 1_555
C7 C2 1_555 1_555
H3 C7 1_555 1_555
C8 C4 1_555 1_555
C9 C6 1_555 1_555
C10 C9 1_555 1_555
H4 C10 1_555 1_555
C11 C10 1_555 1_555
C12 C11 1_555 1_555
H5 C12 1_555 1_555
C13 C12 1_555 1_555
H6 C13 1_555 1_555
C14 C9 1_555 1_555
H7 C14 1_555 1_555
C15 C11 1_555 1_555
C16 C15 1_555 1_555
H8 C16 1_555 1_555
C17 C16 1_555 1_555
C18 C17 1_555 1_555
H9 C18 1_555 1_555
C19 C18 1_555 1_555
C20 C15 1_555 1_555
H10 C20 1_555 1_555
C21 C17 1_555 1_555
C22 C19 1_555 1_555
C23 N1 1_555 1_555
H11 C23 1_555 1_555
C24 C23 1_555 1_555
H12 C24 1_555 1_555
C25 C24 1_555 1_555
H13 C25 1_555 1_555
C26 C25 1_555 1_555
C27 C26 1_555 1_555
H14 C27 1_555 1_555
C28 C27 1_555 1_555
H15 C28 1_555 1_555
C29 C28 1_555 1_555
C30 C29 1_555 1_555
H16 C30 1_555 1_555
C31 C30 1_555 1_555
H17 C31 1_555 1_555
C32 N2 1_555 1_555
H18 C32 1_555 1_555
C33 N2 1_555 1_555
C34 N1 1_555 1_555
C35 N3 1_555 1_555
H19 C35 1_555 1_555
C36 C35 1_555 1_555
H20 C36 1_555 1_555
C37 C36 1_555 1_555
H21 C37 1_555 1_555
C38 C37 1_555 1_555
C39 C38 1_555 1_555
H22 C39 1_555 1_555
C40 C39 1_555 1_555
H23 C40 1_555 1_555
C41 C40 1_555 1_555
C42 C41 1_555 1_555
H24 C42 1_555 1_555
C43 C42 1_555 1_555
H25 C43 1_555 1_555
C44 N4 1_555 1_555
H26 C44 1_555 1_555
C45 N4 1_555 1_555
C46 N3 1_555 1_555
Zn1B O8 1_555 1_555
Zn1B_2 O3 1_555 1_555
Zn2C O5 1_555 1_555
O3B Zn1 1_555 1_555
O5C Zn2 1_555 1_555
O6C Zn2 1_555 1_555
O8B Zn1 1_555 1_555
O6 Zn2C 1_555 1_555
C6 C7 1_555 1_555
C13 C14 1_555 1_555
C19 C20 1_555 1_555
C26 C34 1_555 1_555
C29 C33 1_555 1_555
C31 C32 1_555 1_555
C33 C34 1_555 1_555
C38 C46 1_555 1_555
C41 C45 1_555 1_555
C43 C44 1_555 1_555
C45 C46 1_555 1_555

#END
