
#######################################################################
#
#                 Cambridge Crystallographic Data Centre
#                                CCDC 
#
#######################################################################
#
# If this CIF has been generated from an entry in the Cambridge 
# Structural Database, then it will include bibliographic, chemical, 
# crystal, experimental, refinement or atomic coordinate data resulting 
# from the CCDC's data processing and validation procedures.
#
#######################################################################

data_BUBDEJ
_symmetry_cell_setting           monoclinic
_symmetry_space_group_name_H-M   'C 2/c'
_symmetry_Int_Tables_number      15
_space_group_name_Hall           '-C 2yn'
loop_
_symmetry_equiv_pos_site_id
_symmetry_equiv_pos_as_xyz
1 x,y,z
2 -x,y,1/2-z
3 1/2+x,1/2+y,z
4 1/2-x,1/2+y,1/2-z
5 -x,-y,-z
6 x,-y,1/2+z
7 1/2-x,1/2-y,-z
8 1/2+x,1/2-y,1/2+z
_cell_length_a                   28.2845(13)
_cell_length_b                   10.8554(5)
_cell_length_c                   18.1768(8)
_cell_angle_alpha                90
_cell_angle_beta                 96.4850(10)
_cell_angle_gamma                90
_cell_volume                     5545.29
loop_
_atom_site_label
_atom_site_type_symbol
_atom_site_fract_x
_atom_site_fract_y
_atom_site_fract_z
Cd1 Cd 1.037302(8) 0.30775(2) 0.842807(11)
O1 O 0.96120(8) 0.3744(2) 0.80108(13)
O2 O 0.92048(9) 0.4589(2) 0.70489(12)
O3 O 0.95429(8) 0.5887(2) 1.04609(12)
O4 O 0.89913(8) 0.7280(2) 1.05575(12)
O5 O 0.84445(9) 1.0759(3) 0.56643(14)
H1 H 0.8596 1.1346 0.5530
O6 O 0.82154(10) 1.0540(3) 0.44607(15)
O7 O 0.65010(9) 0.9498(3) 0.39729(14)
H2 H 0.6230 0.9539 0.3761
O8 O 0.61819(11) 0.8104(3) 0.46584(19)
N1 N 1.06305(9) 0.1199(2) 0.79795(14)
N2 N 0.99242(9) 0.1523(2) 0.88734(15)
C1 C 0.93083(10) 0.4494(3) 0.77387(16)
C2 C 0.90433(10) 0.5258(3) 0.82351(16)
C3 C 0.92180(10) 0.5430(3) 0.89741(16)
H3 H 0.9502 0.5059 0.9167
C4 C 0.89657(10) 0.6161(3) 0.94248(15)
C5 C 0.85326(11) 0.6674(3) 0.91406(16)
H4 H 0.8363 0.7148 0.9447
C6 C 0.83469(10) 0.6492(3) 0.84010(16)
C7 C 0.86123(10) 0.5792(3) 0.79592(16)
H5 H 0.8499 0.5676 0.7464
C8 C 0.91746(11) 0.6456(3) 1.01966(16)
C9 C 0.78911(10) 0.7054(3) 0.80824(16)
C10 C 0.75132(11) 0.7213(3) 0.84992(18)
H6 H 0.7545 0.6974 0.8994
C11 C 0.70891(12) 0.7724(3) 0.8185(2)
H7 H 0.6837 0.7814 0.8468
C12 C 0.70373(11) 0.8100(3) 0.7455(2)
H8 H 0.6750 0.8431 0.7246
C13 C 0.74148(11) 0.7984(3) 0.70299(18)
C14 C 0.78349(11) 0.7450(3) 0.73486(17)
H9 H 0.8086 0.7354 0.7064
C15 C 0.73866(11) 0.8466(3) 0.62582(18)
C16 C 0.77702(11) 0.9108(3) 0.60355(18)
H10 H 0.8041 0.9222 0.6369
C17 C 0.77575(11) 0.9584(3) 0.53242(18)
C18 C 0.73502(12) 0.9449(3) 0.48245(19)
H11 H 0.7339 0.9765 0.4347
C19 C 0.69600(11) 0.8834(3) 0.50487(18)
C20 C 0.69814(12) 0.8337(3) 0.57589(19)
H12 H 0.6721 0.7912 0.5899
C21 C 0.81596(12) 1.0328(3) 0.5093(2)
C22 C 0.65084(13) 0.8740(4) 0.4546(2)
C23 C 1.09779(12) 0.1031(4) 0.7555(2)
H13 H 1.1118 0.1721 0.7367
C24 C 1.11425(14) -0.0126(4) 0.7379(2)
H14 H 1.1388 -0.0204 0.7082
C25 C 1.09382(15) -0.1142(4) 0.7647(3)
H15 H 1.1043 -0.1922 0.7528
C26 C 1.05716(13) -0.1020(3) 0.8099(2)
C27 C 1.03332(16) -0.2040(3) 0.8396(3)
H16 H 1.0428 -0.2837 0.8298
C28 C 0.99778(17) -0.1872(3) 0.8810(3)
H17 H 0.9830 -0.2555 0.8991
C29 C 0.98200(13) -0.0672(3) 0.8980(2)
C30 C 0.94458(14) -0.0438(4) 0.9408(2)
H18 H 0.9280 -0.1093 0.9587
C31 C 0.93238(14) 0.0730(4) 0.9564(2)
H19 H 0.9078 0.0885 0.9850
C32 C 0.95731(12) 0.1693(3) 0.92878(19)
H20 H 0.9490 0.2495 0.9398
C33 C 1.00505(11) 0.0358(3) 0.87110(17)
C34 C 1.04287(11) 0.0189(3) 0.82520(17)
Cd1A Cd 0.962698(8) 0.30775(2) 0.657193(11)
Cd1D Cd 0.962698(8) 0.69225(2) 1.157193(11)
O1A O 1.03880(8) 0.3744(2) 0.69892(13)
O2A O 1.07952(9) 0.4589(2) 0.79511(12)
O3D O 1.04571(8) 0.4113(2) 0.95391(12)
O4D O 1.10087(8) 0.2720(2) 0.94425(12)
loop_
_geom_bond_atom_site_label_1
_geom_bond_atom_site_label_2
_geom_bond_site_symmetry_1
_geom_bond_site_symmetry_2
Cd1 O1 1_555 1_555
O1 C1 1_555 1_555
O2 C1 1_555 1_555
O3 C8 1_555 1_555
O4 C8 1_555 1_555
O5 H1 1_555 1_555
O6 C21 1_555 1_555
O7 H2 1_555 1_555
O8 C22 1_555 1_555
N1 Cd1 1_555 1_555
N2 Cd1 1_555 1_555
C1 C2 1_555 1_555
C2 C3 1_555 1_555
C3 H3 1_555 1_555
C4 C3 1_555 1_555
C5 C4 1_555 1_555
H4 C5 1_555 1_555
C6 C5 1_555 1_555
C7 C2 1_555 1_555
H5 C7 1_555 1_555
C8 C4 1_555 1_555
C9 C6 1_555 1_555
C10 C9 1_555 1_555
H6 C10 1_555 1_555
C11 C10 1_555 1_555
H7 C11 1_555 1_555
C12 C11 1_555 1_555
H8 C12 1_555 1_555
C13 C12 1_555 1_555
C14 C9 1_555 1_555
H9 C14 1_555 1_555
C15 C13 1_555 1_555
C16 C15 1_555 1_555
H10 C16 1_555 1_555
C17 C16 1_555 1_555
C18 C17 1_555 1_555
H11 C18 1_555 1_555
C19 C18 1_555 1_555
C20 C15 1_555 1_555
H12 C20 1_555 1_555
C21 O5 1_555 1_555
C22 O7 1_555 1_555
C23 N1 1_555 1_555
H13 C23 1_555 1_555
C24 C23 1_555 1_555
H14 C24 1_555 1_555
C25 C24 1_555 1_555
H15 C25 1_555 1_555
C26 C25 1_555 1_555
C27 C26 1_555 1_555
H16 C27 1_555 1_555
C28 C27 1_555 1_555
H17 C28 1_555 1_555
C29 C28 1_555 1_555
C30 C29 1_555 1_555
H18 C30 1_555 1_555
C31 C30 1_555 1_555
H19 C31 1_555 1_555
C32 N2 1_555 1_555
H20 C32 1_555 1_555
C33 N2 1_555 1_555
C34 N1 1_555 1_555
Cd1A O1 1_555 1_555
Cd1D O3 1_555 1_555
O1A Cd1 1_555 1_555
O2A Cd1 1_555 1_555
O3D Cd1 1_555 1_555
O4D Cd1 1_555 1_555
O2 Cd1A 1_555 1_555
O4 Cd1D 1_555 1_555
C6 C7 1_555 1_555
C13 C14 1_555 1_555
C17 C21 1_555 1_555
C19 C20 1_555 1_555
C19 C22 1_555 1_555
C26 C34 1_555 1_555
C29 C33 1_555 1_555
C31 C32 1_555 1_555
C33 C34 1_555 1_555
Cd1A O1A 1_555 1_555

#END
