
#######################################################################
#
#                 Cambridge Crystallographic Data Centre
#                                CCDC 
#
#######################################################################
#
# If this CIF has been generated from an entry in the Cambridge 
# Structural Database, then it will include bibliographic, chemical, 
# crystal, experimental, refinement or atomic coordinate data resulting 
# from the CCDC's data processing and validation procedures.
#
#######################################################################

data_BUBHUC
_symmetry_cell_setting           monoclinic
_symmetry_space_group_name_H-M   'C 2/c'
_symmetry_Int_Tables_number      15
_space_group_name_Hall           '-C 2yn'
loop_
_symmetry_equiv_pos_site_id
_symmetry_equiv_pos_as_xyz
1 x,y,z
2 -x,y,1/2-z
3 1/2+x,1/2+y,z
4 1/2-x,1/2+y,1/2-z
5 -x,-y,-z
6 x,-y,1/2+z
7 1/2-x,1/2-y,-z
8 1/2+x,1/2-y,1/2+z
_cell_length_a                   18.118(4)
_cell_length_b                   9.849(2)
_cell_length_c                   10.870(2)
_cell_angle_alpha                90
_cell_angle_beta                 99.58(3)
_cell_angle_gamma                90
_cell_volume                     1912.64
loop_
_atom_site_label
_atom_site_type_symbol
_atom_site_fract_x
_atom_site_fract_y
_atom_site_fract_z
Mn1 Mn 0.5000 0.24710(2) 0.2500
O1 O 0.49385(5) 0.08095(9) 0.10511(8)
C1 C 0.38577(6) 0.31157(12) 0.21163(11)
H1 H 0.3779 0.3596 0.1305
H2 H 0.3539 0.2294 0.2014
C2 C 0.35831(9) 0.33296(15) 0.48049(13)
H3 H 0.3282 0.2499 0.4697
H4 H 0.3394 0.3930 0.5401
H5 H 0.4106 0.3096 0.5121
C3 C 0.40923(12) 0.58247(15) 0.35080(15)
H6 H 0.4614 0.5597 0.3842
H7 H 0.3891 0.6413 0.4100
H8 H 0.4069 0.6299 0.2710
C4 C 0.25037(10) 0.4718(2) 0.27878(19)
H9 H 0.2443 0.5226 0.2003
H10 H 0.2349 0.5286 0.3440
H11 H 0.2193 0.3898 0.2675
C5 C 0.55017(8) -0.02417(15) 0.11050(12)
H12 H 0.5305 -0.1100 0.1397
H13 H 0.5950 0.0021 0.1709
C6 C 0.42845(7) 0.04554(14) 0.01545(12)
H14 H 0.3909 0.1192 0.0108
H15 H 0.4057 -0.0385 0.0424
Si1 Si 0.352088(19) 0.42190(3) 0.32630(3)
Mn1D Mn 0.5000 -0.24710(2) -0.2500
O1D O 0.50615(5) -0.08095(9) -0.10511(8)
O1A O 0.50615(5) 0.08095(9) 0.39489(8)
C1A C 0.61423(6) 0.31157(12) 0.28837(11)
H1A H 0.6221 0.3596 0.3695
H2A H 0.6461 0.2294 0.2986
C2A C 0.64169(9) 0.33296(15) 0.01951(13)
H3A H 0.6718 0.2499 0.0303
H4A H 0.6606 0.3930 -0.0401
H5A H 0.5894 0.3096 -0.0121
C3A C 0.59077(12) 0.58247(15) 0.14920(15)
H6A H 0.5386 0.5597 0.1158
H7A H 0.6109 0.6413 0.0900
H8A H 0.5931 0.6299 0.2290
C4A C 0.74963(10) 0.4718(2) 0.22122(19)
H9A H 0.7557 0.5226 0.2997
H10A H 0.7651 0.5286 0.1560
H11A H 0.7807 0.3898 0.2325
C5D C 0.44983(8) 0.02417(15) -0.11050(12)
H12D H 0.4695 0.1100 -0.1397
H13D H 0.4050 -0.0021 -0.1709
C6D C 0.57155(7) -0.04554(14) -0.01545(12)
H14D H 0.6091 -0.1192 -0.0108
H15D H 0.5943 0.0385 -0.0424
Si1A Si 0.647912(19) 0.42190(3) 0.17370(3)
loop_
_geom_bond_atom_site_label_1
_geom_bond_atom_site_label_2
_geom_bond_site_symmetry_1
_geom_bond_site_symmetry_2
Mn1 O1 1_555 1_555
O1 C5 1_555 1_555
C1 Mn1 1_555 1_555
H1 C1 1_555 1_555
H2 C1 1_555 1_555
C2 H3 1_555 1_555
H4 C2 1_555 1_555
H5 C2 1_555 1_555
C3 H6 1_555 1_555
H7 C3 1_555 1_555
H8 C3 1_555 1_555
C4 H9 1_555 1_555
H10 C4 1_555 1_555
H11 C4 1_555 1_555
C5 H12 1_555 1_555
H13 C5 1_555 1_555
C6 O1 1_555 1_555
H14 C6 1_555 1_555
H15 C6 1_555 1_555
Si1 C1 1_555 1_555
Mn1D O1D 1_555 1_555
O1D C5D 1_555 1_555
O1A Mn1 1_555 1_555
C1A Mn1 1_555 1_555
H1A C1A 1_555 1_555
H2A C1A 1_555 1_555
C2A H3A 1_555 1_555
H4A C2A 1_555 1_555
H5A C2A 1_555 1_555
C3A H6A 1_555 1_555
H7A C3A 1_555 1_555
H8A C3A 1_555 1_555
C4A H9A 1_555 1_555
H10A C4A 1_555 1_555
H11A C4A 1_555 1_555
C5D C6 1_555 1_555
H12D C5D 1_555 1_555
H13D C5D 1_555 1_555
C6D C5 1_555 1_555
H14D C6D 1_555 1_555
H15D C6D 1_555 1_555
Si1A C1A 1_555 1_555
C2 Si1 1_555 1_555
C3 Si1 1_555 1_555
C4 Si1 1_555 1_555
O1D C6D 1_555 1_555
C2A Si1A 1_555 1_555
C3A Si1A 1_555 1_555
C4A Si1A 1_555 1_555

#END
