
#######################################################################
#
#                 Cambridge Crystallographic Data Centre
#                                CCDC 
#
#######################################################################
#
# If this CIF has been generated from an entry in the Cambridge 
# Structural Database, then it will include bibliographic, chemical, 
# crystal, experimental, refinement or atomic coordinate data resulting 
# from the CCDC's data processing and validation procedures.
#
#######################################################################

data_BUBLER
_symmetry_cell_setting           orthorhombic
_symmetry_space_group_name_H-M   'P b c a'
_symmetry_Int_Tables_number      61
_space_group_name_Hall           '-P 2ac 2ab'
loop_
_symmetry_equiv_pos_site_id
_symmetry_equiv_pos_as_xyz
1 x,y,z
2 1/2-x,-y,1/2+z
3 1/2+x,1/2-y,-z
4 -x,1/2+y,1/2-z
5 -x,-y,-z
6 1/2+x,y,1/2-z
7 1/2-x,1/2+y,z
8 x,1/2-y,1/2+z
_cell_length_a                   16.547(2)
_cell_length_b                   10.2365(12)
_cell_length_c                   29.074(3)
_cell_angle_alpha                90
_cell_angle_beta                 90
_cell_angle_gamma                90
_cell_volume                     4924.65
loop_
_atom_site_label
_atom_site_type_symbol
_atom_site_fract_x
_atom_site_fract_y
_atom_site_fract_z
C1 C 0.35638(15) 0.4675(3) 0.68535(8)
H1 H 0.4024 0.4279 0.6701
H2 H 0.3756 0.5442 0.7016
C2 C 0.29433(19) 0.2544(2) 0.70970(9)
H3 H 0.2893 0.2150 0.6810
C3 C 0.32218(14) 0.3911(2) 0.76426(7)
H4 H 0.3411 0.4651 0.7794
C4 C 0.27343(17) 0.2030(2) 0.75072(9)
H5 H 0.2509 0.1207 0.7549
C5 C 0.44702(12) 0.72422(19) 0.33378(7)
C6 C 0.40948(12) 0.60912(19) 0.31882(7)
C7 C 0.48760(14) 0.8006(2) 0.30136(8)
H6 H 0.5133 0.8768 0.3108
C8 C 0.35888(12) 0.52805(19) 0.35126(7)
C9 C 0.41354(14) 0.5740(2) 0.27261(8)
H7 H 0.3893 0.4969 0.2629
C10 C 0.45311(15) 0.6520(2) 0.24103(8)
H8 H 0.4546 0.6282 0.2102
C11 C 0.49043(16) 0.7656(2) 0.25557(9)
H9 H 0.5174 0.8183 0.2345
N1 N 0.29014(11) 0.28952(18) 0.78523(6)
N2 N 0.32429(12) 0.37522(18) 0.71876(6)
O1 O 0.36994(9) 0.40583(13) 0.35088(5)
O2 O 0.30930(9) 0.58772(13) 0.37599(5)
O3 O 0.36982(9) 1.08254(13) 0.36913(5)
C12 C 0.36113(12) 0.96035(19) 0.36809(7)
C13 C 0.41555(13) 0.8800(2) 0.39882(7)
C14 C 0.44918(13) 0.7628(2) 0.38315(7)
C15 C 0.26910(16) 0.7176(2) 0.46402(8)
H10 H 0.3047 0.6517 0.4555
C16 C 0.42624(15) 0.9196(2) 0.44406(8)
H11 H 0.4057 0.9996 0.4537
C17 C 0.19333(16) 0.6056(3) 0.58109(8)
H12 H 0.1589 0.6379 0.5585
C18 C 0.16390(15) 0.5234(3) 0.61456(8)
H13 H 0.1096 0.5000 0.6144
C19 C 0.32427(15) 0.5931(2) 0.61479(7)
H14 H 0.3784 0.6173 0.6147
C20 C 0.27439(15) 0.6401(2) 0.58104(8)
C21 C 0.17853(17) 0.8669(2) 0.46131(8)
H15 H 0.1397 0.9245 0.4502
C22 C 0.49772(16) 0.7222(3) 0.46040(9)
H16 H 0.5234 0.6672 0.4813
C23 C 0.29621(14) 0.5102(2) 0.64911(7)
C24 C 0.49010(14) 0.6847(2) 0.41495(9)
H17 H 0.5126 0.6061 0.4053
C25 C 0.21475(15) 0.4751(3) 0.64863(8)
H18 H 0.1945 0.4193 0.6711
C26 C 0.46741(16) 0.8408(3) 0.47500(9)
H19 H 0.4745 0.8676 0.5053
C27 C 0.31343(19) 0.7284(3) 0.54562(9)
H20 H 0.3311 0.8076 0.5609
H21 H 0.3612 0.6850 0.5338
C28 C 0.20349(19) 0.8609(3) 0.50530(8)
H22 H 0.1849 0.9111 0.5298
N3 N 0.21841(11) 0.77647(18) 0.43535(6)
N4 N 0.26247(14) 0.7650(2) 0.50679(7)
O4 O 0.31072(9) 0.89969(13) 0.34402(5)
Mn1 Mn 0.221441(18) 0.74446(3) 0.359924(10)
N1A N 0.20986(11) 0.71048(18) 0.28523(6)
O1F O 0.13006(9) 0.90583(13) 0.35088(5)
O3F O 0.13018(9) 0.58254(13) 0.36913(5)
Mn1A Mn 0.278559(18) 0.25554(3) 0.859924(10)
Mn1F Mn 0.278559(18) 0.24446(3) 0.359924(10)
Mn1F_2 Mn 0.278559(18) 1.24446(3) 0.359924(10)
O5 O 0.49909(16) 0.7504(3) 0.61113(13)
H23 H 0.5287 0.6912 0.6292
H24 H 0.5298 0.8245 0.6143
loop_
_geom_bond_atom_site_label_1
_geom_bond_atom_site_label_2
_geom_bond_site_symmetry_1
_geom_bond_site_symmetry_2
C1 H1 1_555 1_555
H2 C1 1_555 1_555
C2 H3 1_555 1_555
C3 H4 1_555 1_555
C4 C2 1_555 1_555
H5 C4 1_555 1_555
C5 C6 1_555 1_555
C6 C8 1_555 1_555
C7 C5 1_555 1_555
H6 C7 1_555 1_555
C8 O1 1_555 1_555
C9 C6 1_555 1_555
H7 C9 1_555 1_555
C10 C9 1_555 1_555
H8 C10 1_555 1_555
C11 C7 1_555 1_555
H9 C11 1_555 1_555
N1 C3 1_555 1_555
N2 C1 1_555 1_555
O1 Mn1F 1_555 1_555
O2 C8 1_555 1_555
O3 C12 1_555 1_555
C12 C13 1_555 1_555
C13 C14 1_555 1_555
C14 C5 1_555 1_555
C15 H10 1_555 1_555
C16 C13 1_555 1_555
H11 C16 1_555 1_555
C17 H12 1_555 1_555
C18 C17 1_555 1_555
H13 C18 1_555 1_555
C19 H14 1_555 1_555
C20 C17 1_555 1_555
C21 H15 1_555 1_555
C22 H16 1_555 1_555
C23 C1 1_555 1_555
C24 C14 1_555 1_555
H17 C24 1_555 1_555
C25 C18 1_555 1_555
H18 C25 1_555 1_555
C26 C16 1_555 1_555
H19 C26 1_555 1_555
C27 C20 1_555 1_555
H20 C27 1_555 1_555
H21 C27 1_555 1_555
C28 C21 1_555 1_555
H22 C28 1_555 1_555
N3 C15 1_555 1_555
N4 C15 1_555 1_555
O4 C12 1_555 1_555
Mn1 O2 1_555 1_555
O5 H23 1_555 1_555
H24 O5 1_555 1_555
N1A Mn1 1_555 1_555
O1F Mn1 1_555 1_555
O3F Mn1 1_555 1_555
Mn1A N1 1_555 1_555
Mn1F_2 O3 1_555 1_555
C2 N2 1_555 1_555
C3 N2 1_555 1_555
C4 N1 1_555 1_555
C10 C11 1_555 1_555
C19 C20 1_555 1_555
C19 C23 1_555 1_555
C21 N3 1_555 1_555
C22 C24 1_555 1_555
C22 C26 1_555 1_555
C23 C25 1_555 1_555
C27 N4 1_555 1_555
C28 N4 1_555 1_555
N3 Mn1 1_555 1_555
O4 Mn1 1_555 1_555

#END
