
#######################################################################
#
#                 Cambridge Crystallographic Data Centre
#                                CCDC 
#
#######################################################################
#
# If this CIF has been generated from an entry in the Cambridge 
# Structural Database, then it will include bibliographic, chemical, 
# crystal, experimental, refinement or atomic coordinate data resulting 
# from the CCDC's data processing and validation procedures.
#
#######################################################################

data_BUBNUJ
_symmetry_cell_setting           monoclinic
_symmetry_space_group_name_H-M   'P 2/c'
_symmetry_Int_Tables_number      13
_space_group_name_Hall           '-P 2yc'
loop_
_symmetry_equiv_pos_site_id
_symmetry_equiv_pos_as_xyz
1 x,y,z
2 -x,y,1/2-z
3 -x,-y,-z
4 x,-y,1/2+z
_cell_length_a                   19.599(4)
_cell_length_b                   6.3298(12)
_cell_length_c                   21.046(4)
_cell_angle_alpha                90
_cell_angle_beta                 116.949(3)
_cell_angle_gamma                90
_cell_volume                     2327.4
loop_
_atom_site_label
_atom_site_type_symbol
_atom_site_fract_x
_atom_site_fract_y
_atom_site_fract_z
Cd1 Cd 0.5000 0.69333(5) 0.2500
C1 C 0.3244(2) 0.8414(6) 0.1572(2)
H1 H 0.3434 0.9540 0.1416
C2 C 0.3172(2) 0.5630(7) 0.21063(19)
C3 C 0.3314(3) 0.3825(9) 0.2514(2)
H2 H 0.3810 0.3365 0.2804
C4 C 0.2690(5) 0.2742(11) 0.2473(3)
H3 H 0.2767 0.1496 0.2731
C5 C 0.1954(4) 0.3433(13) 0.2063(4)
H4 H 0.1549 0.2666 0.2062
C6 C 0.1804(3) 0.5192(11) 0.1662(3)
H5 H 0.1305 0.5649 0.1381
C7 C 0.2433(2) 0.6299(8) 0.1687(2)
C8 C 0.1877(3) 0.9349(9) 0.0834(3)
H6 H 0.2055 1.0789 0.0855
H7 H 0.1455 0.9374 0.0955
C9 C 0.1595(3) 0.8540(8) 0.0093(3)
H8 H 0.1272 0.9586 -0.0247
H9 H 0.2023 0.8234 -0.0005
C10 C 0.0908(2) 0.5552(8) -0.0593(2)
C11 C 0.1083(3) 0.5991(9) -0.1137(2)
H10 H 0.1406 0.7115 -0.1098
C12 C 0.0784(3) 0.4777(8) -0.1742(2)
H11 H 0.0913 0.5097 -0.2106
C13 C 0.0303(2) 0.3115(6) -0.1832(2)
C14 C 0.0148(3) 0.2688(8) -0.1270(3)
H12 H -0.0167 0.1550 -0.1304
C15 C 0.0442(3) 0.3884(9) -0.0660(3)
H13 H 0.0323 0.3553 -0.0291
C16 C 0.0000 0.1769(9) -0.2500
C17 C -0.0662(4) 0.0364(9) -0.2552(3)
H14 H -0.0469 -0.0697 -0.2187
H15 H -0.0899 -0.0303 -0.3012
H16 H -0.1034 0.1215 -0.2491
C18 C 0.50554(19) 0.8554(5) 0.37276(15)
C19 C 0.50242(17) 0.9330(5) 0.43840(14)
C20 C 0.4960(2) 0.7913(5) 0.48448(17)
H17 H 0.4929 0.6479 0.4739
C21 C 0.5061(2) 1.1450(5) 0.45429(17)
H18 H 0.5100 1.2444 0.4236
N1 N 0.36735(17) 0.7006(5) 0.20184(15)
N2 N 0.24917(19) 0.8083(6) 0.1355(2)
O1 O 0.1167(2) 0.6654(6) 0.00356(19)
O2 O 0.5000 0.3274(5) 0.2500
O3 O 0.51113(16) 0.9849(4) 0.33115(12)
O4 O 0.50155(16) 0.6622(3) 0.36150(12)
C1A C -0.3244(2) 0.8414(6) -0.6572(2)
H1A H -0.3434 0.9540 -0.6416
C2A C -0.3172(2) 0.5630(7) -0.71063(19)
C3A C -0.3314(3) 0.3825(9) -0.7514(2)
H2A H -0.3810 0.3365 -0.7804
C4A C -0.2690(5) 0.2742(11) -0.7473(3)
H3A H -0.2767 0.1496 -0.7731
C5A C -0.1954(4) 0.3433(13) -0.7063(4)
H4A H -0.1549 0.2666 -0.7062
C6A C -0.1804(3) 0.5192(11) -0.6662(3)
H5A H -0.1305 0.5649 -0.6381
C7A C -0.2433(2) 0.6299(8) -0.6687(2)
C8A C -0.1877(3) 0.9349(9) -0.5834(3)
H6A H -0.2055 1.0789 -0.5855
H7A H -0.1455 0.9374 -0.5955
C9A C -0.1595(3) 0.8540(8) -0.5093(3)
H8A H -0.1272 0.9586 -0.4753
H9A H -0.2023 0.8234 -0.4995
C10A C -0.0908(2) 0.5552(8) -0.4407(2)
C11A C -0.1083(3) 0.5991(9) -0.3863(2)
H10A H -0.1406 0.7115 -0.3902
C12A C -0.0784(3) 0.4777(8) -0.3258(2)
H11A H -0.0913 0.5097 -0.2894
C13A C -0.0303(2) 0.3115(6) -0.3168(2)
C14A C -0.0148(3) 0.2688(8) -0.3730(3)
H12A H 0.0167 0.1550 -0.3696
C15A C -0.0442(3) 0.3884(9) -0.4340(3)
H13A H -0.0323 0.3553 -0.4709
C17A C 0.0662(4) 0.0364(9) -0.2448(3)
H14A H 0.0469 -0.0697 -0.2813
H15A H 0.0899 -0.0303 -0.1988
H16A H 0.1034 0.1215 -0.2509
N1A N -0.36735(17) 0.7006(5) -0.70184(15)
N2A N -0.24917(19) 0.8083(6) -0.6355(2)
O1A O -0.1167(2) 0.6654(6) -0.50356(19)
C18B C 0.49446(19) 1.1446(5) 0.62724(15)
C19B C 0.49758(17) 1.0670(5) 0.56160(14)
C20B C 0.5040(2) 1.2087(5) 0.51552(17)
H17B H 0.5071 1.3521 0.5261
C21B C 0.4939(2) 0.8550(5) 0.54571(17)
H18B H 0.4900 0.7556 0.5764
O3B O 0.48887(16) 1.0151(4) 0.66885(12)
O4B O 0.49845(16) 1.3378(3) 0.63850(12)
Cd1_2 Cd -0.5000 0.69333(5) -0.7500
Cd1B Cd 0.5000 1.30667(5) 0.7500
N1A_2 N 0.63265(17) 0.7006(5) 0.29816(15)
O3A O 0.48887(16) 0.9849(4) 0.16885(12)
O4A O 0.49845(16) 0.6622(3) 0.13850(12)
C22 C 0.3184(4) 0.4489(11) 0.4293(5)
H19 H 0.3541 0.4408 0.4098
H20 H 0.2716 0.3797 0.3978
H21 H 0.3398 0.3807 0.4750
C23 C 0.2869(4) 0.8326(13) 0.3774(4)
H22 H 0.2598 0.9546 0.3809
H23 H 0.2567 0.7615 0.3331
H24 H 0.3347 0.8757 0.3792
C24 C 0.3038(4) 0.7249(17) 0.4927(4)
C25 C 0.3189(4) 0.5954(12) 0.5502(3)
H25 H 0.3729 0.5937 0.5812
H26 H 0.3017 0.4547 0.5337
H27 H 0.2924 0.6476 0.5759
N3 N 0.3017(4) 0.6859(14) 0.4380(5)
O5 O 0.2880(3) 0.9364(7) 0.4942(3)
loop_
_geom_bond_atom_site_label_1
_geom_bond_atom_site_label_2
_geom_bond_site_symmetry_1
_geom_bond_site_symmetry_2
Cd1 N1 1_555 1_555
C1 H1 1_555 1_555
C2 C3 1_555 1_555
C3 H2 1_555 1_555
C4 C3 1_555 1_555
H3 C4 1_555 1_555
C5 C4 1_555 1_555
H4 C5 1_555 1_555
C6 C5 1_555 1_555
H5 C6 1_555 1_555
C7 C2 1_555 1_555
C8 H6 1_555 1_555
H7 C8 1_555 1_555
C9 C8 1_555 1_555
H8 C9 1_555 1_555
H9 C9 1_555 1_555
C10 C11 1_555 1_555
C11 H10 1_555 1_555
C12 C11 1_555 1_555
H11 C12 1_555 1_555
C13 C12 1_555 1_555
C14 C13 1_555 1_555
H12 C14 1_555 1_555
C15 C10 1_555 1_555
H13 C15 1_555 1_555
C16 C13 1_555 1_555
C17 C16 1_555 1_555
H14 C17 1_555 1_555
H15 C17 1_555 1_555
H16 C17 1_555 1_555
C18 C19 1_555 1_555
C19 C20 1_555 1_555
C20 H17 1_555 1_555
C21 C19 1_555 1_555
H18 C21 1_555 1_555
N1 C1 1_555 1_555
N2 C1 1_555 1_555
O1 C9 1_555 1_555
O2 Cd1 1_555 1_555
O3 Cd1 1_555 1_555
O4 Cd1 1_555 1_555
C22 H19 1_555 1_555
H20 C22 1_555 1_555
H21 C22 1_555 1_555
C23 H22 1_555 1_555
H23 C23 1_555 1_555
H24 C23 1_555 1_555
C24 C25 1_555 1_555
C25 H25 1_555 1_555
H26 C25 1_555 1_555
H27 C25 1_555 1_555
N3 C22 1_555 1_555
O5 C24 1_555 1_555
C1A H1A 1_555 1_555
C2A C3A 1_555 1_555
C3A H2A 1_555 1_555
C4A C3A 1_555 1_555
H3A C4A 1_555 1_555
C5A C4A 1_555 1_555
H4A C5A 1_555 1_555
C6A C5A 1_555 1_555
H5A C6A 1_555 1_555
C7A C2A 1_555 1_555
C8A H6A 1_555 1_555
H7A C8A 1_555 1_555
C9A C8A 1_555 1_555
H8A C9A 1_555 1_555
H9A C9A 1_555 1_555
C10A C11A 1_555 1_555
C11A H10A 1_555 1_555
C12A C11A 1_555 1_555
H11A C12A 1_555 1_555
C13A C16 1_555 1_555
C14A C13A 1_555 1_555
H12A C14A 1_555 1_555
C15A C10A 1_555 1_555
H13A C15A 1_555 1_555
C17A C16 1_555 1_555
H14A C17A 1_555 1_555
H15A C17A 1_555 1_555
H16A C17A 1_555 1_555
N1A C1A 1_555 1_555
N2A C1A 1_555 1_555
O1A C9A 1_555 1_555
C18B C19B 1_555 1_555
C19B C20B 1_555 1_555
C20B C21 1_555 1_555
H17B C20B 1_555 1_555
C21B C20 1_555 1_555
H18B C21B 1_555 1_555
O3B C18B 1_555 1_555
O4B C18B 1_555 1_555
Cd1_2 N1A 1_555 1_555
Cd1B O3B 1_555 1_555
N1A_2 Cd1 1_555 1_555
O3A Cd1 1_555 1_555
O4A Cd1 1_555 1_555
C2 N1 1_555 1_555
C6 C7 1_555 1_555
C7 N2 1_555 1_555
C8 N2 1_555 1_555
C10 O1 1_555 1_555
C14 C15 1_555 1_555
C18 O3 1_555 1_555
C18 O4 1_555 1_555
C23 N3 1_555 1_555
C24 N3 1_555 1_555
C2A N1A 1_555 1_555
C6A C7A 1_555 1_555
C7A N2A 1_555 1_555
C8A N2A 1_555 1_555
C10A O1A 1_555 1_555
C12A C13A 1_555 1_555
C14A C15A 1_555 1_555
C19B C21B 1_555 1_555
O4B Cd1B 1_555 1_555

#END
