
#######################################################################
#
#                 Cambridge Crystallographic Data Centre
#                                CCDC 
#
#######################################################################
#
# If this CIF has been generated from an entry in the Cambridge 
# Structural Database, then it will include bibliographic, chemical, 
# crystal, experimental, refinement or atomic coordinate data resulting 
# from the CCDC's data processing and validation procedures.
#
#######################################################################

data_BUBNOD
_symmetry_cell_setting           triclinic
_symmetry_space_group_name_H-M   'P -1'
_symmetry_Int_Tables_number      2
_space_group_name_Hall           '-P 1'
loop_
_symmetry_equiv_pos_site_id
_symmetry_equiv_pos_as_xyz
1 x,y,z
2 -x,-y,-z
_cell_length_a                   8.588(5)
_cell_length_b                   10.819(5)
_cell_length_c                   13.194(5)
_cell_angle_alpha                109.579(5)
_cell_angle_beta                 95.242(5)
_cell_angle_gamma                97.585(5)
_cell_volume                     1132.78
loop_
_atom_site_label
_atom_site_type_symbol
_atom_site_fract_x
_atom_site_fract_y
_atom_site_fract_z
C1 C 0.6236(6) 0.2805(5) 0.9918(4)
H1 H 0.6620 0.2358 1.0352
C2 C 0.7300(6) 0.3783(5) 0.9742(4)
H2 H 0.8355 0.3990 1.0065
C3 C 0.6762(6) 0.4428(5) 0.9088(4)
H3 H 0.7450 0.5078 0.8956
C4 C 0.5170(5) 0.4103(4) 0.8618(4)
C5 C 0.4459(6) 0.4704(5) 0.7925(4)
C6 C 0.2894(6) 0.4323(5) 0.7438(4)
C7 C 0.1834(6) 0.3358(5) 0.7695(4)
C8 C 0.0193(6) 0.3021(5) 0.7320(4)
H4 H -0.0267 0.3403 0.6859
C9 C -0.0714(7) 0.2125(5) 0.7643(5)
H5 H -0.1801 0.1890 0.7404
C10 C 0.0006(6) 0.1567(5) 0.8334(5)
H6 H -0.0622 0.0956 0.8546
C11 C 0.2484(6) 0.2763(5) 0.8398(4)
C12 C 0.4154(6) 0.3104(5) 0.8846(4)
C13 C 0.3914(7) 0.5865(5) 0.6898(4)
C14 C 0.4135(6) 0.6739(5) 0.6267(4)
C15 C 0.3583(7) 0.6180(6) 0.5162(5)
H7 H 0.3041 0.5306 0.4878
C16 C 0.3817(8) 0.6884(6) 0.4475(5)
H8 H 0.3413 0.6493 0.3740
C17 C 0.4647(8) 0.8163(6) 0.4877(5)
H9 H 0.4822 0.8634 0.4412
C18 C 0.5228(7) 0.8758(6) 0.5988(5)
H10 H 0.5802 0.9621 0.6254
C19 C 0.4960(6) 0.8077(5) 0.6697(4)
C20 C 0.5528(7) 0.8839(5) 0.7879(5)
C21 C 0.0854(8) 0.2283(6) 1.1418(6)
C22 C 0.0268(11) 0.3236(8) 1.2393(7)
H11 H 0.1135 0.3963 1.2781
H12 H -0.0572 0.3612 1.2124
C23 C -0.0321(13) 0.2660(11) 1.3159(8)
H13 H -0.0575 0.3396 1.3743
H14 H -0.1328 0.2097 1.2790
C24 C 0.0459(13) 0.1915(10) 1.3673(8)
H15 H 0.0937 0.1305 1.3119
H16 H 0.1327 0.2535 1.4190
C25 C -0.0292(13) 0.1170(11) 1.4218(8)
H17 H -0.1121 0.0522 1.3684
H18 H -0.0829 0.1773 1.4734
C26 C 0.0432(14) 0.0462(10) 1.4793(8)
H19 H 0.1125 0.1124 1.5412
H20 H 0.1118 -0.0031 1.4326
N1 N 0.4719(5) 0.2481(4) 0.9503(3)
N2 N 0.1555(5) 0.1873(4) 0.8704(4)
N3 N 0.5087(5) 0.5692(4) 0.7575(3)
N4 N 0.2548(5) 0.5025(4) 0.6778(4)
O1 O 0.6747(5) 0.9703(4) 0.8131(4)
O2 O 0.4745(5) 0.8573(4) 0.8578(3)
O3 O 0.2238(4) 0.2635(3) 1.1251(3)
O4 O 0.0056(6) 0.1214(5) 1.0818(5)
Pb1 Pb 0.27860(2) 0.068626(17) 0.991385(16)
C21A C -0.0854(8) -0.2283(6) 1.8582(6)
C22A C -0.0268(11) -0.3236(8) 1.7607(7)
H11A H -0.1135 -0.3963 1.7219
H12A H 0.0572 -0.3612 1.7876
C23A C 0.0321(13) -0.2660(11) 1.6841(8)
H13A H 0.0575 -0.3396 1.6257
H14A H 0.1328 -0.2097 1.7210
C24A C -0.0459(13) -0.1915(10) 1.6327(8)
H15A H -0.0937 -0.1305 1.6881
H16A H -0.1327 -0.2535 1.5810
C25A C 0.0292(13) -0.1170(11) 1.5782(8)
H17A H 0.1121 -0.0522 1.6316
H18A H 0.0829 -0.1773 1.5266
C26A C -0.0432(14) -0.0462(10) 1.5207(8)
H19A H -0.1125 -0.1124 1.4588
H20A H -0.1118 0.0031 1.5674
O3A O -0.2238(4) -0.2635(3) 1.8749(3)
O4A O -0.0056(6) -0.1214(5) 1.9182(5)
C1A C -0.6236(6) -0.2805(5) 1.0082(4)
H1A H -0.6620 -0.2358 0.9648
C2A C -0.7300(6) -0.3783(5) 1.0258(4)
H2A H -0.8355 -0.3990 0.9935
C3A C -0.6762(6) -0.4428(5) 1.0912(4)
H3A H -0.7450 -0.5078 1.1044
C4A C -0.5170(5) -0.4103(4) 1.1382(4)
C5A C -0.4459(6) -0.4704(5) 1.2075(4)
C6A C -0.2894(6) -0.4323(5) 1.2562(4)
C7A C -0.1834(6) -0.3358(5) 1.2305(4)
C8A C -0.0193(6) -0.3021(5) 1.2680(4)
H4A H 0.0267 -0.3403 1.3141
C9A C 0.0714(7) -0.2125(5) 1.2357(5)
H5A H 0.1801 -0.1890 1.2596
C10A C -0.0006(6) -0.1567(5) 1.1666(5)
H6A H 0.0622 -0.0956 1.1454
C11A C -0.2484(6) -0.2763(5) 1.1602(4)
C12A C -0.4154(6) -0.3104(5) 1.1154(4)
C13A C -0.3914(7) -0.5865(5) 1.3102(4)
C14A C -0.4135(6) -0.6739(5) 1.3733(4)
C15A C -0.3583(7) -0.6180(6) 1.4838(5)
H7A H -0.3041 -0.5306 1.5122
C16A C -0.3817(8) -0.6884(6) 1.5525(5)
H8A H -0.3413 -0.6493 1.6260
C17A C -0.4647(8) -0.8163(6) 1.5123(5)
H9A H -0.4822 -0.8634 1.5588
C18A C -0.5228(7) -0.8758(6) 1.4012(5)
H10A H -0.5802 -0.9621 1.3746
C19A C -0.4960(6) -0.8077(5) 1.3303(4)
C20A C -0.5528(7) -0.8839(5) 1.2121(5)
N1A N -0.4719(5) -0.2481(4) 1.0497(3)
N2A N -0.1555(5) -0.1873(4) 1.1296(4)
N3A N -0.5087(5) -0.5692(4) 1.2425(3)
N4A N -0.2548(5) -0.5025(4) 1.3222(4)
O1A O -0.6747(5) -0.9703(4) 1.1869(4)
O2A O -0.4745(5) -0.8573(4) 1.1422(3)
Pb1A Pb -0.27860(2) -0.068626(17) 1.008615(16)
O1_2 O -0.3253(5) -0.0297(4) 0.8131(4)
O1A_2 O 0.3253(5) 0.0297(4) 1.1869(4)
O2_2 O -0.5255(5) -0.1427(4) 0.8578(3)
O2A_2 O 0.5255(5) 0.1427(4) 1.1422(3)
O3A_2 O -0.2238(4) -0.2635(3) 0.8749(3)
O4A_2 O -0.0056(6) -0.1214(5) 0.9182(5)
Pb1_2 Pb -0.72140(2) -0.931374(17) 0.991385(16)
Pb1_3 Pb 0.27860(2) 0.068626(17) 1.991385(16)
Pb1A_2 Pb -0.27860(2) -0.068626(17) 2.008615(16)
Pb1A_3 Pb 0.72140(2) 0.931374(17) 1.008615(16)
loop_
_geom_bond_atom_site_label_1
_geom_bond_atom_site_label_2
_geom_bond_site_symmetry_1
_geom_bond_site_symmetry_2
C1 H1 1_555 1_555
C2 C1 1_555 1_555
H2 C2 1_555 1_555
C3 C2 1_555 1_555
H3 C3 1_555 1_555
C4 C3 1_555 1_555
C5 C4 1_555 1_555
C6 C5 1_555 1_555
C7 C6 1_555 1_555
C8 C7 1_555 1_555
H4 C8 1_555 1_555
C9 C8 1_555 1_555
H5 C9 1_555 1_555
C10 C9 1_555 1_555
H6 C10 1_555 1_555
C11 C7 1_555 1_555
C12 C4 1_555 1_555
C13 C14 1_555 1_555
C14 C15 1_555 1_555
C15 H7 1_555 1_555
C16 C15 1_555 1_555
H8 C16 1_555 1_555
C17 C16 1_555 1_555
H9 C17 1_555 1_555
C18 C17 1_555 1_555
H10 C18 1_555 1_555
C19 C14 1_555 1_555
C20 C19 1_555 1_555
C21 C22 1_555 1_555
C22 H11 1_555 1_555
H12 C22 1_555 1_555
C23 C22 1_555 1_555
H13 C23 1_555 1_555
H14 C23 1_555 1_555
C24 C23 1_555 1_555
H15 C24 1_555 1_555
H16 C24 1_555 1_555
C25 C24 1_555 1_555
H17 C25 1_555 1_555
H18 C25 1_555 1_555
C26 C25 1_555 1_555
H19 C26 1_555 1_555
H20 C26 1_555 1_555
N1 C1 1_555 1_555
N2 C10 1_555 1_555
N3 C5 1_555 1_555
N4 C6 1_555 1_555
O1 C20 1_555 1_555
O2 C20 1_555 1_555
O3 C21 1_555 1_555
O4 C21 1_555 1_555
Pb1 N1 1_555 1_555
C21A C22A 1_555 1_555
C22A H11A 1_555 1_555
H12A C22A 1_555 1_555
C23A C22A 1_555 1_555
H13A C23A 1_555 1_555
H14A C23A 1_555 1_555
C24A C23A 1_555 1_555
H15A C24A 1_555 1_555
H16A C24A 1_555 1_555
C25A C24A 1_555 1_555
H17A C25A 1_555 1_555
H18A C25A 1_555 1_555
C26A C26 1_555 1_555
H19A C26A 1_555 1_555
H20A C26A 1_555 1_555
O3A C21A 1_555 1_555
O4A C21A 1_555 1_555
C1A H1A 1_555 1_555
C2A C1A 1_555 1_555
H2A C2A 1_555 1_555
C3A C2A 1_555 1_555
H3A C3A 1_555 1_555
C4A C3A 1_555 1_555
C5A C4A 1_555 1_555
C6A C5A 1_555 1_555
C7A C6A 1_555 1_555
C8A C7A 1_555 1_555
H4A C8A 1_555 1_555
C9A C8A 1_555 1_555
H5A C9A 1_555 1_555
C10A C9A 1_555 1_555
H6A C10A 1_555 1_555
C11A C7A 1_555 1_555
C12A C4A 1_555 1_555
C13A C14A 1_555 1_555
C14A C15A 1_555 1_555
C15A H7A 1_555 1_555
C16A C15A 1_555 1_555
H8A C16A 1_555 1_555
C17A C16A 1_555 1_555
H9A C17A 1_555 1_555
C18A C17A 1_555 1_555
H10A C18A 1_555 1_555
C19A C14A 1_555 1_555
C20A C19A 1_555 1_555
N1A C1A 1_555 1_555
N2A C10A 1_555 1_555
N3A C5A 1_555 1_555
N4A C6A 1_555 1_555
O1A C20A 1_555 1_555
O2A C20A 1_555 1_555
Pb1A O4 1_555 1_555
O1_2 Pb1A 1_555 1_555
O1A_2 Pb1 1_555 1_555
O2_2 Pb1A 1_555 1_555
O2A_2 Pb1 1_555 1_555
O3A_2 Pb1A 1_555 1_555
O4A_2 Pb1 1_555 1_555
Pb1_2 O1A 1_555 1_555
Pb1_3 O4A 1_555 1_555
Pb1A_2 O3A 1_555 1_555
Pb1A_3 O1 1_555 1_555
C11 C12 1_555 1_555
C11 N2 1_555 1_555
C12 N1 1_555 1_555
C13 N3 1_555 1_555
C13 N4 1_555 1_555
C18 C19 1_555 1_555
N2 Pb1 1_555 1_555
O2 Pb1A_3 1_555 1_555
O3 Pb1 1_555 1_555
O4 Pb1 1_555 1_555
C25A C26A 1_555 1_555
O4A Pb1A_2 1_555 1_555
C11A C12A 1_555 1_555
C11A N2A 1_555 1_555
C12A N1A 1_555 1_555
C13A N3A 1_555 1_555
C13A N4A 1_555 1_555
C18A C19A 1_555 1_555
N1A Pb1A 1_555 1_555
N2A Pb1A 1_555 1_555
O2A Pb1_2 1_555 1_555
Pb1A O4A_2 1_555 1_555

#END
