
#######################################################################
#
#                 Cambridge Crystallographic Data Centre
#                                CCDC 
#
#######################################################################
#
# If this CIF has been generated from an entry in the Cambridge 
# Structural Database, then it will include bibliographic, chemical, 
# crystal, experimental, refinement or atomic coordinate data resulting 
# from the CCDC's data processing and validation procedures.
#
#######################################################################

data_BUBPOF
_symmetry_cell_setting           monoclinic
_symmetry_space_group_name_H-M   'C 2/c'
_symmetry_Int_Tables_number      15
_space_group_name_Hall           '-C 2yn'
loop_
_symmetry_equiv_pos_site_id
_symmetry_equiv_pos_as_xyz
1 x,y,z
2 -x,y,1/2-z
3 1/2+x,1/2+y,z
4 1/2-x,1/2+y,1/2-z
5 -x,-y,-z
6 x,-y,1/2+z
7 1/2-x,1/2-y,-z
8 1/2+x,1/2-y,1/2+z
_cell_length_a                   12.0765(6)
_cell_length_b                   9.8396(6)
_cell_length_c                   11.9425(9)
_cell_angle_alpha                90
_cell_angle_beta                 93.491(7)
_cell_angle_gamma                90
_cell_volume                     1416.47
loop_
_atom_site_label
_atom_site_type_symbol
_atom_site_fract_x
_atom_site_fract_y
_atom_site_fract_z
Zn1 Zn 1.0000 0.59590(5) 0.2500
O1 O 0.8571(2) 0.4359(3) 0.2148(2)
O2 O 0.8920(2) 0.5521(3) 0.3690(2)
N1 N 0.59054(19) 0.2402(3) 0.3481(2)
Cl1 Cl 0.58142(8) 0.40661(11) 0.64799(8)
C1 C 0.8356(3) 0.4661(4) 0.3118(3)
C2 C 0.7387(3) 0.4014(3) 0.3642(3)
C3 C 0.6764(2) 0.3044(4) 0.3057(3)
H1 H 0.6948 0.2825 0.2335
C4 C 0.5634(2) 0.2729(3) 0.4516(2)
H2 H 0.5041 0.2289 0.4822
C5 C 0.6212(3) 0.3702(4) 0.5138(3)
C6 C 0.7114(3) 0.4356(4) 0.4712(3)
H3 H 0.7519 0.5001 0.5132
O1A O 1.1429(2) 0.4359(3) 0.2852(2)
O2A O 1.1080(2) 0.5521(3) 0.1310(2)
N1A N 1.40946(19) 0.2402(3) 0.1519(2)
Cl1A Cl 1.41858(8) 0.40661(11) -0.14799(8)
C1A C 1.1644(3) 0.4661(4) 0.1882(3)
C2A C 1.2613(3) 0.4014(3) 0.1358(3)
C3A C 1.3236(2) 0.3044(4) 0.1943(3)
H1A H 1.3052 0.2825 0.2665
C4A C 1.4366(2) 0.2729(3) 0.0484(2)
H2A H 1.4959 0.2289 0.0178
C5A C 1.3788(3) 0.3702(4) -0.0138(3)
C6A C 1.2886(3) 0.4356(4) 0.0288(3)
H3A H 1.2481 0.5001 -0.0132
Zn1B Zn 0.5000 0.09590(5) 0.2500
Zn1B_2 Zn 1.5000 0.09590(5) 0.2500
N1B N 1.09054(19) 0.7402(3) 0.3481(2)
N1C N 0.90946(19) 0.7402(3) 0.1519(2)
loop_
_geom_bond_atom_site_label_1
_geom_bond_atom_site_label_2
_geom_bond_site_symmetry_1
_geom_bond_site_symmetry_2
Zn1 O1 1_555 1_555
O1 C1 1_555 1_555
O2 Zn1 1_555 1_555
N1 C3 1_555 1_555
Cl1 C5 1_555 1_555
C1 O2 1_555 1_555
C2 C1 1_555 1_555
C3 C2 1_555 1_555
H1 C3 1_555 1_555
C4 N1 1_555 1_555
H2 C4 1_555 1_555
C5 C4 1_555 1_555
C6 C2 1_555 1_555
H3 C6 1_555 1_555
O1A Zn1 1_555 1_555
O2A Zn1 1_555 1_555
N1A C3A 1_555 1_555
Cl1A C5A 1_555 1_555
C1A O1A 1_555 1_555
C2A C1A 1_555 1_555
C3A C2A 1_555 1_555
H1A C3A 1_555 1_555
C4A N1A 1_555 1_555
H2A C4A 1_555 1_555
C5A C4A 1_555 1_555
C6A C2A 1_555 1_555
H3A C6A 1_555 1_555
Zn1B N1 1_555 1_555
Zn1B_2 N1A 1_555 1_555
N1B Zn1 1_555 1_555
N1C Zn1 1_555 1_555
C5 C6 1_555 1_555
O2A C1A 1_555 1_555
C5A C6A 1_555 1_555

#END
