
#######################################################################
#
#                 Cambridge Crystallographic Data Centre
#                                CCDC 
#
#######################################################################
#
# If this CIF has been generated from an entry in the Cambridge 
# Structural Database, then it will include bibliographic, chemical, 
# crystal, experimental, refinement or atomic coordinate data resulting 
# from the CCDC's data processing and validation procedures.
#
#######################################################################

data_BUBSUO
_symmetry_cell_setting           orthorhombic
_symmetry_space_group_name_H-M   'P 21 21 21'
_symmetry_Int_Tables_number      19
_space_group_name_Hall           'P 2ac 2ab'
loop_
_symmetry_equiv_pos_site_id
_symmetry_equiv_pos_as_xyz
1 x,y,z
2 1/2-x,-y,1/2+z
3 -x,1/2+y,1/2-z
4 1/2+x,1/2-y,-z
_cell_length_a                   10.3023(14)
_cell_length_b                   10.5623(15)
_cell_length_c                   26.098(4)
_cell_angle_alpha                90
_cell_angle_beta                 90
_cell_angle_gamma                90
_cell_volume                     2839.88
loop_
_atom_site_label
_atom_site_type_symbol
_atom_site_fract_x
_atom_site_fract_y
_atom_site_fract_z
Sn1 Sn 0.191289(15) 0.825213(15) 0.112237(6)
N1 N -0.15202(19) 1.19889(19) 0.06282(8)
N2 N -0.1403(3) 1.0177(2) -0.04408(9)
H1 H -0.1415 0.9549 -0.0231
O1 O 0.12373(16) 1.01845(15) 0.10882(7)
O2 O -0.04915(18) 0.95958(16) 0.06286(7)
O3 O -0.31568(19) 1.1954(2) 0.00701(8)
O4 O -0.2005(2) 0.90485(19) -0.11425(8)
S1 S -0.15889(8) 1.20330(9) 0.16354(3)
C1 C 0.3620(3) 0.8621(2) 0.15771(10)
H2 H 0.4308 0.8087 0.1433
C2 C 0.4109(3) 0.9959(3) 0.15400(11)
H3 H 0.3450 1.0531 0.1669
H4 H 0.4262 1.0166 0.1183
C3 C 0.5366(3) 1.0151(3) 0.18438(12)
H5 H 0.6058 0.9669 0.1685
H6 H 0.5607 1.1039 0.1834
C4 C 0.5219(3) 0.9738(3) 0.23962(12)
H7 H 0.6050 0.9807 0.2569
H8 H 0.4611 1.0295 0.2569
C5 C 0.4743(4) 0.8401(4) 0.24294(13)
H9 H 0.4610 0.8179 0.2786
H10 H 0.5398 0.7837 0.2291
C6 C 0.3478(3) 0.8216(3) 0.21368(10)
H11 H 0.2798 0.8711 0.2298
H12 H 0.3227 0.7332 0.2151
C7 C 0.2245(2) 0.7987(2) 0.03132(9)
H13 H 0.3062 0.7518 0.0282
C8 C 0.1201(3) 0.7155(3) 0.00761(11)
H14 H 0.0364 0.7562 0.0118
H15 H 0.1173 0.6354 0.0258
C9 C 0.1431(3) 0.6901(4) -0.04932(12)
H16 H 0.2207 0.6390 -0.0535
H17 H 0.0703 0.6430 -0.0632
C10 C 0.1586(3) 0.8122(4) -0.07830(11)
H18 H 0.0771 0.8582 -0.0776
H19 H 0.1791 0.7936 -0.1138
C11 C 0.2648(4) 0.8949(4) -0.05577(11)
H20 H 0.2678 0.9746 -0.0742
H21 H 0.3480 0.8532 -0.0602
C12 C 0.2423(3) 0.9210(3) 0.00133(10)
H22 H 0.3158 0.9672 0.0151
H23 H 0.1656 0.9734 0.0054
C13 C 0.0225(3) 0.7517(2) 0.15110(9)
H24 H -0.0505 0.7610 0.1273
C14 C 0.0274(3) 0.6112(3) 0.16608(12)
H25 H 0.0406 0.5603 0.1356
H26 H 0.1003 0.5970 0.1889
C15 C -0.0969(4) 0.5704(3) 0.19237(12)
H27 H -0.1679 0.5747 0.1680
H28 H -0.0884 0.4831 0.2034
C16 C -0.1286(4) 0.6514(3) 0.23786(12)
H29 H -0.0632 0.6389 0.2641
H30 H -0.2117 0.6256 0.2519
C17 C -0.1342(3) 0.7901(3) 0.22372(14)
H31 H -0.1480 0.8401 0.2544
H32 H -0.2070 0.8045 0.2009
C18 C -0.0095(3) 0.8325(3) 0.19768(11)
H33 H 0.0616 0.8276 0.2220
H34 H -0.0183 0.9202 0.1871
C19 C 0.0176(2) 1.0392(2) 0.08398(9)
C20 C -0.0178(2) 1.1804(2) 0.08020(9)
H35 H 0.0414 1.2220 0.0561
C21 C -0.0109(3) 1.2475(3) 0.13158(11)
H36 H -0.0063 1.3386 0.1270
H37 H 0.0642 1.2198 0.1509
C22 C -0.2460(3) 1.2192(3) 0.10429(12)
H38 H -0.3151 1.1570 0.1024
H39 H -0.2840 1.3030 0.1017
C23 C -0.1995(2) 1.1825(2) 0.01553(9)
C24 C -0.1074(3) 1.1445(2) -0.02723(10)
H40 H -0.0171 1.1485 -0.0156
C25 C -0.1265(3) 1.2226(3) -0.07616(11)
H41 H -0.2010 1.2781 -0.0728
H42 H -0.0503 1.2737 -0.0831
C26 C -0.1475(5) 1.1288(3) -0.11787(12)
H43 H -0.0725 1.1258 -0.1403
H44 H -0.2229 1.1519 -0.1381
C27 C -0.1681(2) 1.0032(3) -0.09283(10)
Sn1C Sn -0.308711(15) 0.674787(15) -0.112237(6)
O4C O 0.2995(2) 0.59515(19) 0.11425(8)
loop_
_geom_bond_atom_site_label_1
_geom_bond_atom_site_label_2
_geom_bond_site_symmetry_1
_geom_bond_site_symmetry_2
Sn1 O1 1_555 1_555
N1 C20 1_555 1_555
N2 H1 1_555 1_555
O1 C19 1_555 1_555
O2 C19 1_555 1_555
O3 C23 1_555 1_555
O4 C27 1_555 1_555
S1 C21 1_555 1_555
C1 Sn1 1_555 1_555
H2 C1 1_555 1_555
C2 C1 1_555 1_555
H3 C2 1_555 1_555
H4 C2 1_555 1_555
C3 C2 1_555 1_555
H5 C3 1_555 1_555
H6 C3 1_555 1_555
C4 C3 1_555 1_555
H7 C4 1_555 1_555
H8 C4 1_555 1_555
C5 C4 1_555 1_555
H9 C5 1_555 1_555
H10 C5 1_555 1_555
C6 C1 1_555 1_555
H11 C6 1_555 1_555
H12 C6 1_555 1_555
C7 Sn1 1_555 1_555
H13 C7 1_555 1_555
C8 C7 1_555 1_555
H14 C8 1_555 1_555
H15 C8 1_555 1_555
C9 C8 1_555 1_555
H16 C9 1_555 1_555
H17 C9 1_555 1_555
C10 C9 1_555 1_555
H18 C10 1_555 1_555
H19 C10 1_555 1_555
C11 C10 1_555 1_555
H20 C11 1_555 1_555
H21 C11 1_555 1_555
C12 C7 1_555 1_555
H22 C12 1_555 1_555
H23 C12 1_555 1_555
C13 Sn1 1_555 1_555
H24 C13 1_555 1_555
C14 C13 1_555 1_555
H25 C14 1_555 1_555
H26 C14 1_555 1_555
C15 C14 1_555 1_555
H27 C15 1_555 1_555
H28 C15 1_555 1_555
C16 C15 1_555 1_555
H29 C16 1_555 1_555
H30 C16 1_555 1_555
C17 C16 1_555 1_555
H31 C17 1_555 1_555
H32 C17 1_555 1_555
C18 C13 1_555 1_555
H33 C18 1_555 1_555
H34 C18 1_555 1_555
C19 C20 1_555 1_555
C20 H35 1_555 1_555
C21 C20 1_555 1_555
H36 C21 1_555 1_555
H37 C21 1_555 1_555
C22 N1 1_555 1_555
H38 C22 1_555 1_555
H39 C22 1_555 1_555
C23 N1 1_555 1_555
C24 N2 1_555 1_555
H40 C24 1_555 1_555
C25 C24 1_555 1_555
H41 C25 1_555 1_555
H42 C25 1_555 1_555
C26 C25 1_555 1_555
H43 C26 1_555 1_555
H44 C26 1_555 1_555
C27 N2 1_555 1_555
Sn1C O4 1_555 1_555
O4C Sn1 1_555 1_555
S1 C22 1_555 1_555
C5 C6 1_555 1_555
C11 C12 1_555 1_555
C17 C18 1_555 1_555
C23 C24 1_555 1_555
C26 C27 1_555 1_555

#END
