
#######################################################################
#
#                 Cambridge Crystallographic Data Centre
#                                CCDC 
#
#######################################################################
#
# If this CIF has been generated from an entry in the Cambridge 
# Structural Database, then it will include bibliographic, chemical, 
# crystal, experimental, refinement or atomic coordinate data resulting 
# from the CCDC's data processing and validation procedures.
#
#######################################################################

data_BUBTEZ
_symmetry_cell_setting           monoclinic
_symmetry_space_group_name_H-M   'P 21/c'
_symmetry_Int_Tables_number      14
_space_group_name_Hall           '-P 2ybc'
loop_
_symmetry_equiv_pos_site_id
_symmetry_equiv_pos_as_xyz
1 x,y,z
2 -x,1/2+y,1/2-z
3 -x,-y,-z
4 x,1/2-y,1/2+z
_cell_length_a                   11.047(3)
_cell_length_b                   8.888(2)
_cell_length_c                   30.747(7)
_cell_angle_alpha                90
_cell_angle_beta                 104.531(8)
_cell_angle_gamma                90
_cell_volume                     2922.35
loop_
_atom_site_label
_atom_site_type_symbol
_atom_site_fract_x
_atom_site_fract_y
_atom_site_fract_z
Pb1 Pb 0.399304(19) 0.77383(3) 0.990074(9)
S1 S 0.09882(16) 1.3345(2) 0.71898(7)
O1 O 0.1070(5) 1.4528(7) 0.6878(2)
O2 O -0.0207(5) 1.2932(7) 0.7251(2)
O3 O 0.4574(5) 1.0448(8) 0.9481(2)
O4 O 0.2725(5) 0.9320(7) 0.9328(2)
O5 O 0.6283(5) 0.4364(7) 0.9442(2)
O6 O 0.4442(5) 0.4999(8) 0.9510(3)
O7 O 0.5604(7) 0.6646(8) 0.9285(3)
N1 N 0.1864(5) 0.6565(7) 0.9622(2)
N2 N 0.2423(5) 0.8655(7) 1.0295(2)
N3 N 0.5444(6) 0.5342(8) 0.9413(2)
C1 C 0.3120(6) 1.0576(9) 0.6672(3)
H1 H 0.3754 1.0667 0.6524
C2 C 0.2686(6) 0.9151(9) 0.6744(3)
C3 C 0.1766(6) 0.9042(9) 0.6976(3)
H2 H 0.1496 0.8098 0.7042
C4 C 0.1238(6) 1.0328(9) 0.7113(3)
H3 H 0.0594 1.0246 0.7257
C5 C 0.1679(6) 1.1708(9) 0.7034(3)
C6 C 0.2633(7) 1.1854(10) 0.6816(3)
H4 H 0.2937 1.2799 0.6768
C7 C 0.3182(9) 0.7780(10) 0.6567(4)
H5 H 0.3004 0.6909 0.6726
H6 H 0.4070 0.7875 0.6610
H7 H 0.2791 0.7673 0.6253
N4 N 0.1880(5) 1.3881(8) 0.7669(2)
H8 H 0.2181 1.4777 0.7683
C8 C 0.2202(7) 1.3008(8) 0.8062(3)
C9 C 0.3373(6) 1.3261(9) 0.8357(3)
H9 H 0.3898 1.3994 0.8289
C10 C 0.3750(7) 1.2438(8) 0.8743(3)
H10 H 0.4525 1.2634 0.8938
C11 C 0.2994(6) 1.1308(8) 0.8849(2)
C12 C 0.1821(6) 1.1057(8) 0.8550(2)
H11 H 0.1308 1.0302 0.8614
C13 C 0.1415(7) 1.1899(9) 0.8168(3)
H12 H 0.0624 1.1737 0.7980
C14 C 0.3455(6) 1.0306(9) 0.9248(3)
C15 C 0.2672(8) 0.9686(10) 1.0615(3)
H13 H 0.3476 1.0084 1.0697
C16 C 0.1796(11) 1.0211(12) 1.0836(3)
H14 H 0.2016 1.0934 1.1061
C17 C 0.0611(11) 0.9642(14) 1.0717(4)
H15 H 0.0015 0.9967 1.0863
C18 C 0.0301(8) 0.8575(12) 1.0377(4)
C19 C -0.0953(10) 0.7956(15) 1.0214(5)
H16 H -0.1580 0.8256 1.0348
C20 C -0.1217(9) 0.6979(17) 0.9880(5)
H17 H -0.2027 0.6602 0.9787
C21 C -0.0293(7) 0.6478(10) 0.9657(4)
C22 C -0.0564(8) 0.5498(13) 0.9297(4)
H18 H -0.1374 0.5136 0.9188
C23 C 0.0358(9) 0.5065(11) 0.9105(3)
H19 H 0.0188 0.4408 0.8862
C24 C 0.1573(7) 0.5619(10) 0.9277(3)
H20 H 0.2200 0.5311 0.9144
C25 C 0.0946(7) 0.7023(10) 0.9809(3)
C26 C 0.1242(8) 0.8091(11) 1.0167(3)
Pb1B Pb 0.600696(19) 0.22617(3) 1.009926(9)
Pb1B_2 Pb 0.600696(19) 1.22617(3) 1.009926(9)
O3B O 0.5426(5) 0.9552(8) 1.0519(2)
O5B O 0.3717(5) 0.5636(7) 1.0558(2)
O8 O 0.3839(5) 0.5797(7) 0.7609(2)
N5 N 0.3976(6) 0.7965(8) 0.8011(3)
C27 C 0.3168(9) 0.7464(10) 0.8296(4)
H21 H 0.2775 0.6531 0.8183
H22 H 0.2539 0.8211 0.8294
H23 H 0.3663 0.7323 0.8598
C28 C 0.4460(8) 0.9472(10) 0.8083(4)
H24 H 0.5018 0.9652 0.7894
H25 H 0.4905 0.9592 0.8392
H26 H 0.3781 1.0177 0.8010
C29 C 0.4224(8) 0.7085(10) 0.7699(3)
H27 H 0.4741 0.7479 0.7531
loop_
_geom_bond_atom_site_label_1
_geom_bond_atom_site_label_2
_geom_bond_site_symmetry_1
_geom_bond_site_symmetry_2
Pb1 O3 1_555 1_555
S1 O1 1_555 1_555
O2 S1 1_555 1_555
O3 C14 1_555 1_555
O4 Pb1 1_555 1_555
O5 N3 1_555 1_555
O6 Pb1 1_555 1_555
O7 N3 1_555 1_555
N1 Pb1 1_555 1_555
N2 Pb1 1_555 1_555
N3 O6 1_555 1_555
C1 H1 1_555 1_555
C2 C1 1_555 1_555
C3 C2 1_555 1_555
H2 C3 1_555 1_555
C4 C3 1_555 1_555
H3 C4 1_555 1_555
C5 S1 1_555 1_555
C6 C1 1_555 1_555
H4 C6 1_555 1_555
C7 C2 1_555 1_555
H5 C7 1_555 1_555
H6 C7 1_555 1_555
H7 C7 1_555 1_555
N4 S1 1_555 1_555
H8 N4 1_555 1_555
C8 N4 1_555 1_555
C9 C8 1_555 1_555
H9 C9 1_555 1_555
C10 C9 1_555 1_555
H10 C10 1_555 1_555
C11 C10 1_555 1_555
C12 C11 1_555 1_555
H11 C12 1_555 1_555
C13 C8 1_555 1_555
H12 C13 1_555 1_555
C14 O4 1_555 1_555
C15 N2 1_555 1_555
H13 C15 1_555 1_555
C16 C15 1_555 1_555
H14 C16 1_555 1_555
C17 C16 1_555 1_555
H15 C17 1_555 1_555
C18 C17 1_555 1_555
C19 C18 1_555 1_555
H16 C19 1_555 1_555
C20 C19 1_555 1_555
H17 C20 1_555 1_555
C21 C20 1_555 1_555
C22 C21 1_555 1_555
H18 C22 1_555 1_555
C23 C22 1_555 1_555
H19 C23 1_555 1_555
C24 N1 1_555 1_555
H20 C24 1_555 1_555
C25 N1 1_555 1_555
C26 N2 1_555 1_555
O8 C29 1_555 1_555
N5 C27 1_555 1_555
C27 H21 1_555 1_555
H22 C27 1_555 1_555
H23 C27 1_555 1_555
C28 N5 1_555 1_555
H24 C28 1_555 1_555
H25 C28 1_555 1_555
H26 C28 1_555 1_555
C29 N5 1_555 1_555
H27 C29 1_555 1_555
Pb1B O5 1_555 1_555
Pb1B_2 O3 1_555 1_555
O3B Pb1 1_555 1_555
O5B Pb1 1_555 1_555
C4 C5 1_555 1_555
C5 C6 1_555 1_555
C11 C14 1_555 1_555
C12 C13 1_555 1_555
C18 C26 1_555 1_555
C21 C25 1_555 1_555
C23 C24 1_555 1_555
C25 C26 1_555 1_555
Pb1B_2 O3B 1_555 1_555

#END
