
#######################################################################
#
#                 Cambridge Crystallographic Data Centre
#                                CCDC 
#
#######################################################################
#
# If this CIF has been generated from an entry in the Cambridge 
# Structural Database, then it will include bibliographic, chemical, 
# crystal, experimental, refinement or atomic coordinate data resulting 
# from the CCDC's data processing and validation procedures.
#
#######################################################################

data_BUBVUR
_symmetry_cell_setting           monoclinic
_symmetry_space_group_name_H-M   'P 21/n'
_symmetry_Int_Tables_number      14
_space_group_name_Hall           '-P 2yn'
loop_
_symmetry_equiv_pos_site_id
_symmetry_equiv_pos_as_xyz
1 x,y,z
2 1/2-x,1/2+y,1/2-z
3 -x,-y,-z
4 1/2+x,1/2-y,1/2+z
_cell_length_a                   16.173(3)
_cell_length_b                   6.9990(11)
_cell_length_c                   16.479(3)
_cell_angle_alpha                90
_cell_angle_beta                 93.724(3)
_cell_angle_gamma                90
_cell_volume                     1861.4
loop_
_atom_site_label
_atom_site_type_symbol
_atom_site_fract_x
_atom_site_fract_y
_atom_site_fract_z
Pb1 Pb 0.69308(2) 0.15281(3) 0.29387(2)
F1 F 0.4836(3) 0.7103(9) 0.3068(2)
F2 F 0.3880(3) 0.7754(10) 0.4254(3)
F3 F 0.6222(3) 0.7288(10) 0.6140(2)
F4 F 0.7149(3) 0.6485(7) 0.4941(3)
F5 F 0.8636(2) -0.1738(5) 0.5540(2)
F6 F 0.9944(3) 0.1718(5) 0.3523(2)
O1 O 0.7028(3) 0.5002(6) 0.3273(3)
O2 O 0.6604(3) 0.7790(6) 0.2746(3)
O3 O 0.3748(3) 0.8635(7) 0.5774(3)
O4 O 0.4709(3) 0.7599(9) 0.6672(3)
O5 O 0.8236(4) -0.1452(7) 0.3632(3)
H1 H 0.7904 -0.1195 0.3251
O6 O 0.8068(3) 0.1582(6) 0.3952(3)
C1 C 0.6591(4) 0.6494(7) 0.3254(4)
C2 C 0.6039(4) 0.6779(8) 0.3965(4)
C3 C 0.5200(4) 0.7155(9) 0.3832(3)
C4 C 0.4687(4) 0.7472(10) 0.4457(4)
C5 C 0.4998(4) 0.7572(8) 0.5267(3)
C6 C 0.5836(4) 0.7199(10) 0.5391(4)
C7 C 0.6344(4) 0.6791(9) 0.4763(4)
C8 C 0.4441(4) 0.7962(9) 0.5953(4)
C9 C 0.8456(4) 0.0022(9) 0.3983(4)
C10 C 0.9250(4) 0.0012(8) 0.4510(3)
C11 C 0.9306(4) -0.0867(9) 0.5262(3)
C12 C 0.9959(4) 0.0873(9) 0.4257(3)
F5B F 1.1364(2) 0.1738(5) 0.4460(2)
F6B F 1.0056(3) -0.1718(5) 0.6477(2)
O5B O 1.1764(4) 0.1452(7) 0.6368(3)
H1B H 1.2096 0.1195 0.6749
O6B O 1.1932(3) -0.1582(6) 0.6048(3)
C9B C 1.1544(4) -0.0022(9) 0.6017(4)
C10B C 1.0750(4) -0.0012(8) 0.5490(3)
C11B C 1.0694(4) 0.0867(9) 0.4738(3)
C12B C 1.0041(4) -0.0873(9) 0.5743(3)
Pb1B Pb 0.30692(2) 0.84719(3) 0.70613(2)
F1B F 0.5164(3) 0.2897(9) 0.6932(2)
F2B F 0.6120(3) 0.2246(10) 0.5746(3)
F3B F 0.3778(3) 0.2712(10) 0.3860(2)
F4B F 0.2851(3) 0.3515(7) 0.5059(3)
O1B O 0.2972(3) 0.4998(6) 0.6727(3)
O2B O 0.3396(3) 0.2210(6) 0.7254(3)
O3B O 0.6252(3) 0.1365(7) 0.4226(3)
O4B O 0.5291(3) 0.2401(9) 0.3328(3)
C1B C 0.3409(4) 0.3506(7) 0.6746(4)
C2B C 0.3961(4) 0.3221(8) 0.6035(4)
C3B C 0.4800(4) 0.2845(9) 0.6168(3)
C4B C 0.5313(4) 0.2528(10) 0.5543(4)
C5B C 0.5002(4) 0.2428(8) 0.4733(3)
C6B C 0.4164(4) 0.2801(10) 0.4609(4)
C7B C 0.3656(4) 0.3209(9) 0.5237(4)
C8B C 0.5559(4) 0.2038(9) 0.4047(4)
Pb1_2 Pb 0.69308(2) 1.15281(3) 0.29387(2)
Pb1A Pb 0.80692(2) 0.65281(3) 0.20613(2)
Pb1B_2 Pb 0.30692(2) -0.15281(3) 0.70613(2)
Pb1B_3 Pb 1.30692(2) -0.15281(3) 0.70613(2)
Pb1C Pb 0.19308(2) 0.34719(3) 0.79387(2)
O1A O 0.7972(3) 0.0002(6) 0.1727(3)
O1C O 0.2028(3) 0.9998(6) 0.8273(3)
O2_2 O 0.6604(3) -0.2210(6) 0.2746(3)
O2A O 0.8396(3) 0.2790(6) 0.2254(3)
O2B_2 O 0.3396(3) 1.2210(6) 0.7254(3)
O2C O 0.1604(3) 0.7210(6) 0.7746(3)
O6B_2 O 0.1932(3) 0.8418(6) 0.6048(3)
N1 N 0.5899(4) 0.7647(9) 0.7945(3)
H2 H 0.5645 0.7425 0.7480
N2 N 0.6196(4) 0.8824(9) 0.9135(4)
C13 C 0.6645(5) 0.6862(10) 0.8220(5)
C14 C 0.6830(5) 0.7602(11) 0.8964(4)
H3 H 0.7300 0.7338 0.9300
C15 C 0.5638(5) 0.8789(12) 0.8505(5)
H4 H 0.5142 0.9466 0.8468
C16 C 0.7086(6) 0.5430(14) 0.7753(6)
H5 H 0.6716 0.4399 0.7601
H6 H 0.7551 0.4946 0.8081
H7 H 0.7276 0.6014 0.7272
O7 O 0.8884(3) 0.5055(7) 0.4274(3)
H8 H 0.8647 0.6060 0.4085
H9 H 0.8657 0.4079 0.4048
loop_
_geom_bond_atom_site_label_1
_geom_bond_atom_site_label_2
_geom_bond_site_symmetry_1
_geom_bond_site_symmetry_2
Pb1 O1 1_555 1_555
F1 C3 1_555 1_555
F2 C4 1_555 1_555
F3 C6 1_555 1_555
F4 C7 1_555 1_555
F5 C11 1_555 1_555
F6 C12 1_555 1_555
O1 C1 1_555 1_555
O2 C1 1_555 1_555
O3 C8 1_555 1_555
O4 C8 1_555 1_555
O5 H1 1_555 1_555
O6 Pb1 1_555 1_555
C1 C2 1_555 1_555
C2 C3 1_555 1_555
C3 C4 1_555 1_555
C4 C5 1_555 1_555
C5 C6 1_555 1_555
C6 C7 1_555 1_555
C7 C2 1_555 1_555
C8 C5 1_555 1_555
C9 O5 1_555 1_555
C10 C9 1_555 1_555
C11 C10 1_555 1_555
C12 C10 1_555 1_555
N1 H2 1_555 1_555
N2 C14 1_555 1_555
C13 N1 1_555 1_555
C14 C13 1_555 1_555
H3 C14 1_555 1_555
C15 N1 1_555 1_555
H4 C15 1_555 1_555
C16 C13 1_555 1_555
H5 C16 1_555 1_555
H6 C16 1_555 1_555
H7 C16 1_555 1_555
O7 H8 1_555 1_555
H9 O7 1_555 1_555
F5B C11B 1_555 1_555
F6B C12B 1_555 1_555
O5B H1B 1_555 1_555
O6B C9B 1_555 1_555
C9B O5B 1_555 1_555
C10B C9B 1_555 1_555
C11B C12 1_555 1_555
C12B C11 1_555 1_555
Pb1B O3 1_555 1_555
F1B C3B 1_555 1_555
F2B C4B 1_555 1_555
F3B C6B 1_555 1_555
F4B C7B 1_555 1_555
O1B Pb1B 1_555 1_555
O2B C1B 1_555 1_555
O3B Pb1 1_555 1_555
O4B Pb1 1_555 1_555
C1B O1B 1_555 1_555
C2B C1B 1_555 1_555
C3B C2B 1_555 1_555
C4B C3B 1_555 1_555
C5B C4B 1_555 1_555
C6B C5B 1_555 1_555
C7B C2B 1_555 1_555
C8B O3B 1_555 1_555
Pb1_2 O2 1_555 1_555
Pb1A O1 1_555 1_555
Pb1B_2 O2B 1_555 1_555
Pb1B_3 O6B 1_555 1_555
Pb1C O1B 1_555 1_555
O1A Pb1 1_555 1_555
O1C Pb1B 1_555 1_555
O2_2 Pb1 1_555 1_555
O2A Pb1 1_555 1_555
O2B_2 Pb1B 1_555 1_555
O2C Pb1B 1_555 1_555
O6B_2 Pb1B 1_555 1_555
O2 Pb1A 1_555 1_555
O4 Pb1B 1_555 1_555
O6 C9 1_555 1_555
N2 C15 1_555 1_555
C10B C11B 1_555 1_555
C10B C12B 1_555 1_555
O2B Pb1C 1_555 1_555
O4B C8B 1_555 1_555
C5B C8B 1_555 1_555
C6B C7B 1_555 1_555
Pb1A O2A 1_555 1_555
Pb1C O2C 1_555 1_555

#END
