
#######################################################################
#
#                 Cambridge Crystallographic Data Centre
#                                CCDC 
#
#######################################################################
#
# If this CIF has been generated from an entry in the Cambridge 
# Structural Database, then it will include bibliographic, chemical, 
# crystal, experimental, refinement or atomic coordinate data resulting 
# from the CCDC's data processing and validation procedures.
#
#######################################################################

data_BUCCIL
_symmetry_cell_setting           monoclinic
_symmetry_space_group_name_H-M   'P 21/n'
_symmetry_Int_Tables_number      14
_space_group_name_Hall           '-P 2yn'
loop_
_symmetry_equiv_pos_site_id
_symmetry_equiv_pos_as_xyz
1 x,y,z
2 1/2-x,1/2+y,1/2-z
3 -x,-y,-z
4 1/2+x,1/2-y,1/2+z
_cell_length_a                   8.935(4)
_cell_length_b                   10.698(2)
_cell_length_c                   10.037(2)
_cell_angle_alpha                90
_cell_angle_beta                 90.37(3)
_cell_angle_gamma                90
_cell_volume                     959.383
loop_
_atom_site_label
_atom_site_type_symbol
_atom_site_fract_x
_atom_site_fract_y
_atom_site_fract_z
U1 U 0.11568 0.20525 0.19065
Se1 Se -0.11280 0.11680 -0.10054
O1 O 0.20290 0.29830 0.06700
O2 O 0.03320 0.10910 0.31330
O3 O -0.09400 0.18600 0.05020
O4 O -0.15950 -0.03170 -0.05860
O5 O -0.28570 0.17200 -0.13890
O6 O 0.36900 0.12790 0.25130
O7 O 0.55950 -0.12860 0.25470
C1 C 0.48600 0.12000 0.18400
C2 C 0.63100 0.08800 0.25200
C3 C 0.62200 -0.04200 0.31400
N1 N 0.68800 -0.05500 0.43000
N2 N 0.48800 0.14600 0.05600
H1 H 0.75900 -0.12400 0.45900
H2 H 0.65800 -0.12400 0.49100
H3 H 0.40200 0.17300 0.00100
H4 H 0.58800 0.14000 0.00700
H5 H 0.65400 0.15300 0.32300
H6 H 0.71700 0.09100 0.18600
O4B O 0.15950 0.03170 0.05860
O5C O 0.21430 0.32800 0.36110
U1B U -0.11568 -0.20525 -0.19065
U1C U -0.38432 0.29475 -0.30935
O7A O -0.05950 0.37140 0.24530
U1A U 0.38432 -0.29475 0.30935
loop_
_geom_bond_atom_site_label_1
_geom_bond_atom_site_label_2
_geom_bond_site_symmetry_1
_geom_bond_site_symmetry_2
U1 O1 1_555 1_555
Se1 O3 1_555 1_555
O2 U1 1_555 1_555
O3 U1 1_555 1_555
O4 Se1 1_555 1_555
O5 Se1 1_555 1_555
O6 U1 1_555 1_555
O7 C3 1_555 1_555
C1 O6 1_555 1_555
C2 C1 1_555 1_555
C3 C2 1_555 1_555
N1 C3 1_555 1_555
N2 C1 1_555 1_555
H1 N1 1_555 1_555
H2 N1 1_555 1_555
H3 N2 1_555 1_555
H4 N2 1_555 1_555
H5 C2 1_555 1_555
H6 C2 1_555 1_555
O4B U1 1_555 1_555
O5C U1 1_555 1_555
U1B O4 1_555 1_555
U1C O5 1_555 1_555
O7A U1 1_555 1_555
U1A O7 1_555 1_555

#END
