
#######################################################################
#
#                 Cambridge Crystallographic Data Centre
#                                CCDC 
#
#######################################################################
#
# If this CIF has been generated from an entry in the Cambridge 
# Structural Database, then it will include bibliographic, chemical, 
# crystal, experimental, refinement or atomic coordinate data resulting 
# from the CCDC's data processing and validation procedures.
#
#######################################################################

data_BUCCEJ
_symmetry_cell_setting           triclinic
_symmetry_space_group_name_H-M   'P -1'
_symmetry_Int_Tables_number      2
_space_group_name_Hall           '-P 1'
loop_
_symmetry_equiv_pos_site_id
_symmetry_equiv_pos_as_xyz
1 x,y,z
2 -x,-y,-z
_cell_length_a                   14.966(3)
_cell_length_b                   15.597(4)
_cell_length_c                   19.568(4)
_cell_angle_alpha                86.776(6)
_cell_angle_beta                 77.723(7)
_cell_angle_gamma                87.168(7)
_cell_volume                     4452.85
loop_
_atom_site_label
_atom_site_type_symbol
_atom_site_fract_x
_atom_site_fract_y
_atom_site_fract_z
La1 La 0.04023(2) 1.42182(2) 0.36248(2)
La2 La -0.05616(2) 1.58460(2) 0.13803(2)
O1 O 0.1570(2) 1.5270(2) 0.28681(19)
H1 H 0.1721 1.5638 0.3123
H2 H 0.1331 1.5536 0.2556
O2 O -0.1748(2) 1.4816(2) 0.21115(19)
H3 H -0.2278 1.5060 0.2181
H4 H -0.1613 1.4683 0.2506
O3 O -0.0924(2) 1.6338(2) 0.26043(18)
O4 O -0.0383(2) 1.5611(2) 0.34496(19)
C1 C -0.0560(3) 1.6283(3) 0.3118(2)
C2 C -0.0339(3) 1.7127(3) 0.3382(3)
C3 C 0.0074(3) 1.7127(3) 0.3952(2)
H5 H 0.0211 1.6609 0.4174
N1 N 0.0279(3) 1.7869(3) 0.4187(2)
C4 C 0.0071(3) 1.8631(3) 0.3890(3)
H6 H 0.0195 1.9137 0.4075
C5 C -0.0324(3) 1.8668(3) 0.3317(3)
H7 H -0.0456 1.9195 0.3107
C6 C -0.0523(3) 1.7912(3) 0.3055(3)
H8 H -0.0780 1.7927 0.2661
C7 C 0.0792(3) 1.7850(4) 0.4766(3)
H9 H 0.0846 1.7266 0.4954
H10 H 0.0464 1.8200 0.5140
C8 C 0.1744(3) 1.8196(4) 0.4482(3)
H11 H 0.1687 1.8812 0.4390
H12 H 0.2107 1.8098 0.4837
N2 N 0.2214(3) 1.7803(3) 0.3850(2)
C9 C 0.2464(4) 1.6889(4) 0.3979(3)
H13 H 0.2810 1.6839 0.4341
H14 H 0.2827 1.6665 0.3557
H15 H 0.1918 1.6570 0.4123
C10 C 0.3012(3) 1.8275(4) 0.3484(3)
H16 H 0.3514 1.8153 0.3722
H17 H 0.2864 1.8887 0.3498
C11 C 0.3307(3) 1.8026(4) 0.2728(3)
H18 H 0.3845 1.8337 0.2504
H19 H 0.3470 1.7417 0.2716
N3 N 0.2569(3) 1.8220(3) 0.2335(2)
C12 C 0.2080(3) 1.7580(3) 0.2190(2)
H20 H 0.2201 1.7019 0.2341
C13 C 0.1401(3) 1.7752(3) 0.1819(2)
C14 C 0.1248(3) 1.8587(3) 0.1587(3)
H21 H 0.0800 1.8713 0.1328
C15 C 0.1762(4) 1.9239(3) 0.1739(3)
H22 H 0.1667 1.9803 0.1581
C16 C 0.2416(3) 1.9037(3) 0.2128(3)
H23 H 0.2752 1.9470 0.2248
C17 C 0.0829(3) 1.7036(3) 0.1667(2)
O5 O 0.0959(2) 1.6286(2) 0.18960(18)
O6 O 0.0238(2) 1.7252(2) 0.13200(18)
O7 O 0.0163(2) 1.4451(2) 0.16230(18)
O8 O 0.0792(2) 1.3730(2) 0.24312(18)
C18 C 0.0400(3) 1.3774(3) 0.1917(2)
C19 C 0.0218(3) 1.2934(3) 0.1648(2)
C20 C -0.0146(3) 1.2936(3) 0.1055(3)
H24 H -0.0250 1.3454 0.0820
N4 N -0.0350(3) 1.2195(3) 0.0817(2)
C21 C -0.0185(4) 1.1438(4) 0.1137(3)
H25 H -0.0319 1.0932 0.0957
C22 C 0.0179(4) 1.1400(4) 0.1724(3)
H26 H 0.0288 1.0873 0.1944
C23 C 0.0385(3) 1.2156(3) 0.1988(3)
H27 H 0.0631 1.2142 0.2387
C24 C -0.0812(4) 1.2214(4) 0.0218(3)
H28 H -0.0472 1.1848 -0.0140
H29 H -0.0835 1.2795 0.0017
C25 C -0.1773(4) 1.1901(5) 0.0472(3)
H30 H -0.2101 1.1986 0.0095
H31 H -0.1739 1.1289 0.0588
N5 N -0.2275(3) 1.2327(3) 0.1069(2)
C26 C -0.2443(5) 1.3243(4) 0.0911(4)
H32 H -0.1871 1.3525 0.0797
H33 H -0.2828 1.3494 0.1311
H34 H -0.2739 1.3308 0.0520
C27 C -0.3070(4) 1.1894(5) 0.1395(3)
H35 H -0.2931 1.1280 0.1403
H36 H -0.3537 1.2010 0.1122
C28 C -0.3454(3) 1.2174(4) 0.2161(3)
H37 H -0.3585 1.2789 0.2160
H38 H -0.4018 1.1886 0.2357
N6 N -0.2758(3) 1.1939(3) 0.2594(2)
C29 C -0.2264(3) 1.2559(3) 0.2767(3)
H39 H -0.2369 1.3128 0.2627
C30 C -0.1608(3) 1.2356(3) 0.3150(2)
C31 C -0.1473(3) 1.1508(3) 0.3366(3)
H40 H -0.1040 1.1360 0.3634
C32 C -0.1986(4) 1.0886(4) 0.3182(3)
H41 H -0.1903 1.0314 0.3325
C33 C -0.2624(3) 1.1115(3) 0.2783(3)
H42 H -0.2962 1.0695 0.2645
C34 C -0.1037(3) 1.3052(3) 0.3335(2)
O9 O -0.1155(2) 1.3819(2) 0.31176(18)
O10 O -0.0441(2) 1.2814(2) 0.36707(18)
O11 O -0.1208(2) 1.6922(2) 0.04416(18)
O12 O -0.2113(2) 1.6573(2) 0.14636(19)
C35 C -0.1949(3) 1.6980(3) 0.0879(3)
C36 C -0.2718(3) 1.7546(4) 0.0704(3)
C37 C -0.2668(4) 1.7963(4) 0.0060(3)
H43 H -0.2130 1.7912 -0.0278
N7 N -0.3379(3) 1.8442(3) -0.0091(3)
C38 C -0.4146(4) 1.8552(4) 0.0378(3)
H44 H -0.4624 1.8894 0.0261
C39 C -0.4245(4) 1.8167(5) 0.1039(3)
H45 H -0.4788 1.8235 0.1369
C40 C -0.3515(4) 1.7674(4) 0.1197(3)
H46 H -0.3562 1.7424 0.1646
C41 C -0.3308(5) 1.8892(4) -0.0795(3)
H47 H -0.3913 1.9100 -0.0845
H48 H -0.2931 1.9386 -0.0822
C42 C -0.2909(4) 1.8331(4) -0.1381(3)
H49 H -0.2919 1.8649 -0.1820
H50 H -0.2275 1.8190 -0.1366
N8 N -0.3388(3) 1.7528(3) -0.1367(2)
C43 C -0.4286(4) 1.7690(4) -0.1543(3)
H51 H -0.4662 1.8044 -0.1200
H52 H -0.4573 1.7154 -0.1548
H53 H -0.4214 1.7979 -0.1996
C44 C -0.2830(4) 1.6939(4) -0.1830(3)
H54 H -0.2200 1.6971 -0.1783
H55 H -0.2856 1.7118 -0.2308
C45 C -0.3102(4) 1.6030(4) -0.1701(3)
H56 H -0.2690 1.5672 -0.2028
H57 H -0.3716 1.5983 -0.1779
N9 N -0.3074(3) 1.5714(3) -0.0959(2)
C46 C -0.2295(3) 1.5343(3) -0.0828(3)
H58 H -0.1822 1.5201 -0.1200
C47 C -0.2186(3) 1.5169(3) -0.0153(3)
C48 C -0.2921(3) 1.5361(3) 0.0393(3)
H59 H -0.2865 1.5265 0.0856
C49 C -0.3732(4) 1.5694(4) 0.0242(3)
H60 H -0.4237 1.5794 0.0601
C50 C -0.3791(4) 1.5876(4) -0.0439(3)
H61 H -0.4332 1.6113 -0.0541
C51 C -0.1299(3) 1.4791(3) 0.0001(2)
O13 O -0.1111(2) 1.4955(2) 0.05684(19)
O14 O -0.0820(2) 1.4334(2) -0.04557(18)
O15 O 0.1014(2) 1.3162(2) 0.45553(18)
O16 O 0.1963(2) 1.3455(2) 0.35446(18)
C52 C 0.1771(3) 1.3083(3) 0.4143(3)
C53 C 0.2531(3) 1.2564(3) 0.4383(3)
C54 C 0.2443(3) 1.2308(3) 0.5084(3)
H62 H 0.1891 1.2419 0.5394
N10 N 0.3134(3) 1.1906(3) 0.5328(2)
C55 C 0.3936(3) 1.1739(4) 0.4887(3)
H63 H 0.4416 1.1472 0.5061
C56 C 0.4059(4) 1.1959(4) 0.4178(3)
H64 H 0.4612 1.1829 0.3875
C57 C 0.3350(4) 1.2375(4) 0.3926(3)
H65 H 0.3423 1.2528 0.3452
C58 C 0.3020(4) 1.1642(4) 0.6074(3)
H66 H 0.3568 1.1324 0.6146
H67 H 0.2513 1.1259 0.6203
C59 C 0.2841(3) 1.2390(4) 0.6551(3)
H68 H 0.2259 1.2671 0.6516
H69 H 0.2795 1.2172 0.7031
N11 N 0.3551(3) 1.3020(3) 0.6384(2)
C60 C 0.4403(3) 1.2678(4) 0.6566(3)
H70 H 0.4293 1.2519 0.7057
H71 H 0.4855 1.3108 0.6459
H72 H 0.4619 1.2181 0.6302
C61 C 0.3240(3) 1.3823(3) 0.6732(3)
H73 H 0.3405 1.3803 0.7186
H74 H 0.2579 1.3887 0.6806
C62 C 0.3671(3) 1.4592(4) 0.6291(3)
H75 H 0.3468 1.5116 0.6532
H76 H 0.4332 1.4536 0.6225
N12 N 0.3410(3) 1.4642(3) 0.5605(2)
C63 C 0.2574(3) 1.4944(3) 0.5563(3)
H77 H 0.2178 1.5139 0.5961
C64 C 0.2287(3) 1.4970(3) 0.4933(2)
C65 C 0.2905(3) 1.4709(3) 0.4346(3)
H78 H 0.2735 1.4737 0.3915
C66 C 0.3775(3) 1.4405(3) 0.4394(3)
H79 H 0.4197 1.4234 0.4000
C67 C 0.3999(3) 1.4362(3) 0.5043(3)
H80 H 0.4570 1.4134 0.5090
C68 C 0.1325(3) 1.5290(3) 0.4910(2)
O17 O 0.1028(2) 1.5115(2) 0.43853(18)
O18 O 0.0915(2) 1.5723(2) 0.54028(17)
La1A La -0.04023(2) 1.57818(2) 0.63752(2)
La2A La 0.05616(2) 1.41540(2) -0.13803(2)
O14A O 0.0820(2) 1.5666(2) 0.04557(18)
O18A O -0.0915(2) 1.4277(2) 0.45972(17)
Cl1 Cl -0.49535(10) 2.00178(10) 0.22507(8)
O19 O -0.5055(4) 2.0627(3) 0.2780(3)
O20 O -0.4210(3) 2.0273(4) 0.1705(3)
O21 O -0.4773(4) 1.9190(3) 0.2544(3)
O22 O -0.5750(3) 1.9994(4) 0.1981(3)
Cl2 Cl -0.38011(8) 1.29180(9) 0.43988(7)
O23 O -0.2907(3) 1.3231(3) 0.4352(2)
O24 O -0.3707(3) 1.2067(3) 0.4137(3)
O25 O -0.4307(3) 1.2895(4) 0.5098(2)
O26 O -0.4283(3) 1.3454(3) 0.3973(3)
Cl3 Cl -0.12738(10) 0.92265(9) 0.64640(7)
O27 O -0.1515(4) 0.8375(3) 0.6679(3)
O28 O -0.2050(4) 0.9786(4) 0.6527(3)
O29 O -0.0802(4) 0.9283(4) 0.5754(2)
O30 O -0.0677(4) 0.9505(3) 0.6883(3)
Cl4 Cl -0.13530(13) 1.93099(11) 0.15325(11)
O31 O -0.0797(4) 1.9588(4) 0.1968(3)
O32 O -0.1635(4) 1.8467(4) 0.1705(4)
O33 O -0.2034(4) 1.9925(4) 0.1422(4)
O34 O -0.0714(4) 1.9288(5) 0.0807(3)
Cl5 Cl 0.37959(9) 1.70701(10) 0.06894(7)
O35 O 0.3548(3) 1.7970(3) 0.0766(2)
O36 O 0.4269(4) 1.6773(4) 0.1230(3)
O37 O 0.2979(3) 1.6604(3) 0.0774(3)
O38 O 0.4371(3) 1.6966(4) 0.0014(2)
Cl6 Cl -0.45651(12) 1.45845(13) 0.22670(10)
O39 O -0.3644(2) 1.4386(3) 0.2337(2)
O40 O -0.4682(4) 1.4530(5) 0.1594(2)
O41 O -0.5106(5) 1.3769(5) 0.2617(4)
O42 O -0.4989(5) 1.5250(6) 0.2737(5)
O45 O 0.3368(3) 1.5813(3) 0.2446(2)
H81 H 0.3813 1.5597 0.2614
H82 H 0.3569 1.6032 0.2038
O46 O -0.1816(3) 0.9641(3) 0.4614(2)
H83 H -0.1458 0.9592 0.4899
H84 H -0.1509 0.9899 0.4252
O47 O 0.3689(6) 1.9501(4) -0.0158(4)
H85 H 0.3637 1.9488 -0.0581
H86 H 0.4249 1.9423 -0.0136
O48 O -0.3640(3) 1.0406(3) 0.4759(2)
H87 H -0.3551 1.0896 0.4548
H88 H -0.3161 1.0125 0.4823
O49 O -0.4915(3) 0.9731(3) 0.4108(2)
H89 H -0.4472 0.9935 0.4247
H90 H -0.5317 0.9565 0.4460
O50 O -0.1621(4) 1.9738(4) -0.0272(3)
H91 H -0.2128 1.9910 -0.0023
H92 H -0.1343 1.9640 0.0062
O43? O -0.5206(7) 1.4582(12) 0.2780(5)
O44? O -0.4382(8) 1.5594(6) 0.2010(7)
loop_
_geom_bond_atom_site_label_1
_geom_bond_atom_site_label_2
_geom_bond_site_symmetry_1
_geom_bond_site_symmetry_2
La1 O1 1_555 1_555
La2 O2 1_555 1_555
O1 H1 1_555 1_555
H2 O1 1_555 1_555
O2 H3 1_555 1_555
H4 O2 1_555 1_555
O3 La2 1_555 1_555
O4 La1 1_555 1_555
C1 O3 1_555 1_555
C2 C1 1_555 1_555
C3 C2 1_555 1_555
H5 C3 1_555 1_555
N1 C3 1_555 1_555
C4 N1 1_555 1_555
H6 C4 1_555 1_555
C5 C4 1_555 1_555
H7 C5 1_555 1_555
C6 C2 1_555 1_555
H8 C6 1_555 1_555
C7 N1 1_555 1_555
H9 C7 1_555 1_555
H10 C7 1_555 1_555
C8 C7 1_555 1_555
H11 C8 1_555 1_555
H12 C8 1_555 1_555
N2 C8 1_555 1_555
C9 N2 1_555 1_555
H13 C9 1_555 1_555
H14 C9 1_555 1_555
H15 C9 1_555 1_555
C10 N2 1_555 1_555
H16 C10 1_555 1_555
H17 C10 1_555 1_555
C11 C10 1_555 1_555
H18 C11 1_555 1_555
H19 C11 1_555 1_555
N3 C11 1_555 1_555
C12 N3 1_555 1_555
H20 C12 1_555 1_555
C13 C12 1_555 1_555
C14 C13 1_555 1_555
H21 C14 1_555 1_555
C15 C14 1_555 1_555
H22 C15 1_555 1_555
C16 N3 1_555 1_555
H23 C16 1_555 1_555
C17 C13 1_555 1_555
O5 La2 1_555 1_555
O6 La2 1_555 1_555
O7 La2 1_555 1_555
O8 La1 1_555 1_555
C18 O7 1_555 1_555
C19 C18 1_555 1_555
C20 C19 1_555 1_555
H24 C20 1_555 1_555
N4 C20 1_555 1_555
C21 N4 1_555 1_555
H25 C21 1_555 1_555
C22 C21 1_555 1_555
H26 C22 1_555 1_555
C23 C19 1_555 1_555
H27 C23 1_555 1_555
C24 N4 1_555 1_555
H28 C24 1_555 1_555
H29 C24 1_555 1_555
C25 C24 1_555 1_555
H30 C25 1_555 1_555
H31 C25 1_555 1_555
N5 C25 1_555 1_555
C26 N5 1_555 1_555
H32 C26 1_555 1_555
H33 C26 1_555 1_555
H34 C26 1_555 1_555
C27 N5 1_555 1_555
H35 C27 1_555 1_555
H36 C27 1_555 1_555
C28 C27 1_555 1_555
H37 C28 1_555 1_555
H38 C28 1_555 1_555
N6 C28 1_555 1_555
C29 N6 1_555 1_555
H39 C29 1_555 1_555
C30 C29 1_555 1_555
C31 C30 1_555 1_555
H40 C31 1_555 1_555
C32 C31 1_555 1_555
H41 C32 1_555 1_555
C33 N6 1_555 1_555
H42 C33 1_555 1_555
C34 C30 1_555 1_555
O9 La1 1_555 1_555
O10 La1 1_555 1_555
O11 La2 1_555 1_555
O12 La2 1_555 1_555
C35 O11 1_555 1_555
C36 C35 1_555 1_555
C37 C36 1_555 1_555
H43 C37 1_555 1_555
N7 C37 1_555 1_555
C38 N7 1_555 1_555
H44 C38 1_555 1_555
C39 C38 1_555 1_555
H45 C39 1_555 1_555
C40 C36 1_555 1_555
H46 C40 1_555 1_555
C41 N7 1_555 1_555
H47 C41 1_555 1_555
H48 C41 1_555 1_555
C42 C41 1_555 1_555
H49 C42 1_555 1_555
H50 C42 1_555 1_555
N8 C42 1_555 1_555
C43 N8 1_555 1_555
H51 C43 1_555 1_555
H52 C43 1_555 1_555
H53 C43 1_555 1_555
C44 N8 1_555 1_555
H54 C44 1_555 1_555
H55 C44 1_555 1_555
C45 C44 1_555 1_555
H56 C45 1_555 1_555
H57 C45 1_555 1_555
N9 C45 1_555 1_555
C46 N9 1_555 1_555
H58 C46 1_555 1_555
C47 C46 1_555 1_555
C48 C47 1_555 1_555
H59 C48 1_555 1_555
C49 C48 1_555 1_555
H60 C49 1_555 1_555
C50 N9 1_555 1_555
H61 C50 1_555 1_555
C51 C47 1_555 1_555
O13 La2 1_555 1_555
O14 C51 1_555 1_555
O15 La1 1_555 1_555
O16 La1 1_555 1_555
C52 O15 1_555 1_555
C53 C52 1_555 1_555
C54 C53 1_555 1_555
H62 C54 1_555 1_555
N10 C54 1_555 1_555
C55 N10 1_555 1_555
H63 C55 1_555 1_555
C56 C55 1_555 1_555
H64 C56 1_555 1_555
C57 C53 1_555 1_555
H65 C57 1_555 1_555
C58 N10 1_555 1_555
H66 C58 1_555 1_555
H67 C58 1_555 1_555
C59 C58 1_555 1_555
H68 C59 1_555 1_555
H69 C59 1_555 1_555
N11 C59 1_555 1_555
C60 N11 1_555 1_555
H70 C60 1_555 1_555
H71 C60 1_555 1_555
H72 C60 1_555 1_555
C61 N11 1_555 1_555
H73 C61 1_555 1_555
H74 C61 1_555 1_555
C62 C61 1_555 1_555
H75 C62 1_555 1_555
H76 C62 1_555 1_555
N12 C62 1_555 1_555
C63 N12 1_555 1_555
H77 C63 1_555 1_555
C64 C63 1_555 1_555
C65 C64 1_555 1_555
H78 C65 1_555 1_555
C66 C65 1_555 1_555
H79 C66 1_555 1_555
C67 N12 1_555 1_555
H80 C67 1_555 1_555
C68 C64 1_555 1_555
O17 La1 1_555 1_555
O18 C68 1_555 1_555
Cl1 O19 1_555 1_555
O20 Cl1 1_555 1_555
O21 Cl1 1_555 1_555
O22 Cl1 1_555 1_555
Cl2 O23 1_555 1_555
O24 Cl2 1_555 1_555
O25 Cl2 1_555 1_555
O26 Cl2 1_555 1_555
Cl3 O27 1_555 1_555
O28 Cl3 1_555 1_555
O29 Cl3 1_555 1_555
O30 Cl3 1_555 1_555
Cl4 O31 1_555 1_555
O32 Cl4 1_555 1_555
O33 Cl4 1_555 1_555
O34 Cl4 1_555 1_555
Cl5 O35 1_555 1_555
O36 Cl5 1_555 1_555
O37 Cl5 1_555 1_555
O38 Cl5 1_555 1_555
Cl6 O39 1_555 1_555
O40 Cl6 1_555 1_555
O41 Cl6 1_555 1_555
O42 Cl6 1_555 1_555
O45 H81 1_555 1_555
H82 O45 1_555 1_555
O46 H83 1_555 1_555
H84 O46 1_555 1_555
O47 H85 1_555 1_555
H86 O47 1_555 1_555
O48 H87 1_555 1_555
H88 O48 1_555 1_555
O49 H89 1_555 1_555
H90 O49 1_555 1_555
O50 H91 1_555 1_555
H92 O50 1_555 1_555
La1A O18 1_555 1_555
La2A O14 1_555 1_555
O14A La2 1_555 1_555
O18A La1 1_555 1_555
O4 C1 1_555 1_555
C5 C6 1_555 1_555
C15 C16 1_555 1_555
C17 O5 1_555 1_555
C17 O6 1_555 1_555
O8 C18 1_555 1_555
C22 C23 1_555 1_555
C32 C33 1_555 1_555
C34 O9 1_555 1_555
C34 O10 1_555 1_555
O12 C35 1_555 1_555
C39 C40 1_555 1_555
C49 C50 1_555 1_555
C51 O13 1_555 1_555
O16 C52 1_555 1_555
C56 C57 1_555 1_555
C66 C67 1_555 1_555
C68 O17 1_555 1_555

#END
