
#######################################################################
#
#                 Cambridge Crystallographic Data Centre
#                                CCDC 
#
#######################################################################
#
# If this CIF has been generated from an entry in the Cambridge 
# Structural Database, then it will include bibliographic, chemical, 
# crystal, experimental, refinement or atomic coordinate data resulting 
# from the CCDC's data processing and validation procedures.
#
#######################################################################

data_BUCPEW
_symmetry_cell_setting           monoclinic
_symmetry_space_group_name_H-M   'P 21/n'
_symmetry_Int_Tables_number      14
_space_group_name_Hall           '-P 2yn'
loop_
_symmetry_equiv_pos_site_id
_symmetry_equiv_pos_as_xyz
1 x,y,z
2 1/2-x,1/2+y,1/2-z
3 -x,-y,-z
4 1/2+x,1/2-y,1/2+z
_cell_length_a                   12.31597(16)
_cell_length_b                   20.8623(2)
_cell_length_c                   18.2267(2)
_cell_angle_alpha                90
_cell_angle_beta                 91.6890(11)
_cell_angle_gamma                90
_cell_volume                     4681.12
loop_
_atom_site_label
_atom_site_type_symbol
_atom_site_fract_x
_atom_site_fract_y
_atom_site_fract_z
O7 O 0.5000 0.5000 0.0000
O8 O 0.6718(13) 0.5774(6) 0.1193(9)
O9 O -0.3336(6) 0.7017(4) 0.0783(5)
H37 H -0.2762 0.6969 0.0542
H38 H -0.3382 0.7404 0.0925
C49 C 0.2502(12) 0.3974(8) 0.0570(8)
H39 H 0.2194 0.3860 0.0098
H40 H 0.2311 0.3655 0.0925
H41 H 0.3279 0.3996 0.0543
C50 C 0.2569(15) 0.4839(7) 0.1441(8)
H42 H 0.3316 0.4945 0.1366
H43 H 0.2526 0.4534 0.1834
H44 H 0.2178 0.5220 0.1566
C51 C 0.1466(12) 0.4928(7) 0.0229(9)
H45 H 0.1349 0.4784 -0.0249
N8 N 0.2101(11) 0.4567(5) 0.0781(7)
O10 O 0.1105(8) 0.5430(5) 0.0447(7)
H1 H 0.655(8) 0.688(4) -0.271(6)
H2 H 0.002(9) 0.569(5) 0.323(6)
H3 H -0.198(6) 0.710(3) 0.303(4)
H4 H 0.580(6) 0.846(4) 0.437(4)
H5 H -0.172(7) 0.770(4) 0.048(4)
H6 H 0.133(5) 0.904(3) 0.002(3)
H7 H -0.150(12) 0.735(7) 0.184(8)
H8 H 0.023(7) 0.577(4) 0.186(5)
H9 H -0.189(7) 0.867(4) -0.011(4)
H10 H -0.047(6) 0.941(4) -0.018(4)
H11 H 0.283(7) 0.692(3) -0.186(5)
H12 H 0.429(8) 0.880(5) 0.248(6)
H13 H 0.539(9) 0.617(5) -0.240(6)
H14 H 0.500(9) 0.904(5) 0.366(7)
H15 H 0.724(7) 0.784(4) -0.204(5)
C1 C 0.5049(5) 0.7462(3) 0.2941(3)
C2 C -0.1078(5) 0.6305(3) 0.3197(3)
C3 C -0.1364(5) 0.6222(3) 0.3986(3)
C4 C 0.5519(6) 0.7602(4) 0.3630(4)
H16 H 0.5865 0.7287 0.3913
C5 C 0.6244(8) 0.6936(5) -0.2244(5)
C6 C 0.2945(6) 0.5877(4) -0.1998(4)
C7 C 0.2176(5) 0.6781(3) 0.1192(3)
H17 H 0.1871 0.6355 0.1122
H18 H 0.2271 0.6857 0.1714
C8 C 0.4455(5) 0.5843(3) 0.3013(3)
C9 C -0.0401(6) 0.5891(3) 0.2850(4)
C10 C -0.1511(6) 0.6820(3) 0.2813(4)
C11 C 0.0842(5) 0.8171(3) 0.0412(3)
C12 C 0.5447(7) 0.8216(5) 0.3871(4)
C13 C 0.2095(6) 0.6596(4) -0.2876(4)
H19 H 0.1894 0.7011 -0.3005
C14 C 0.3462(6) 0.6078(3) 0.3202(4)
H20 H 0.3326 0.6516 0.3163
C15 C 0.2656(5) 0.5675(3) 0.3452(3)
H21 H 0.1988 0.5844 0.3577
C16 C 0.3992(5) 0.6642(3) -0.0383(3)
C17 C 0.5358(5) 0.6273(3) 0.2749(4)
H22 H 0.5904 0.6320 0.3140
H23 H 0.5700 0.6070 0.2337
C18 C 0.1993(5) 0.4579(3) 0.3791(3)
C19 C 0.1425(5) 0.7269(3) 0.0862(3)
C20 C 0.2841(5) 0.5027(3) 0.3517(3)
C21 C -0.0559(5) 0.6523(3) 0.1741(3)
C22 C -0.0313(6) 0.6629(4) 0.0944(3)
H24 H 0.0083 0.6261 0.0768
H25 H -0.0993 0.6654 0.0664
C23 C -0.0079(5) 0.7784(3) 0.0529(3)
C24 C 0.5244(5) 0.7156(3) -0.0932(4)
C25 C 0.3144(6) 0.6448(3) 0.0137(4)
H26 H 0.3217 0.5995 0.0246
H27 H 0.2431 0.6518 -0.0089
C26 C 0.3860(5) 0.4781(3) 0.3337(3)
H28 H 0.4000 0.4345 0.3387
C27 C -0.1139(6) 0.7988(5) 0.0372(4)
C28 C 0.4654(5) 0.5187(3) 0.3086(3)
H29 H 0.5327 0.5022 0.2965
C29 C 0.4390(5) 0.7053(3) 0.1903(3)
C30 C 0.0706(6) 0.8785(4) 0.0122(3)
C31 C -0.1252(6) 0.6935(4) 0.2095(4)
C32 C -0.0149(6) 0.6001(3) 0.2120(4)
C33 C 0.4967(6) 0.6638(4) -0.1377(4)
C34 C 0.1842(5) 0.6092(4) -0.3354(4)
C35 C 0.4116(5) 0.6572(3) 0.1320(4)
H30 H 0.4754 0.6482 0.1038
H31 H 0.3881 0.6176 0.1544
C36 C 0.2659(6) 0.5365(4) -0.2465(4)
H32 H 0.2829 0.4947 -0.2326
C37 C 0.1277(6) 0.6201(4) -0.4057(4)
C38 C 0.2125(6) 0.5477(4) -0.3130(4)
H33 H 0.1952 0.5133 -0.3435
C39 C 0.4512(5) 0.7933(3) 0.2521(3)
C40 C -0.1248(6) 0.8596(5) 0.0084(4)
C41 C -0.0351(6) 0.8991(4) -0.0043(4)
C42 C 0.2639(6) 0.6487(4) -0.2215(4)
C43 C 0.6055(7) 0.7582(4) -0.1146(4)
H34 H 0.6252 0.7935 -0.0860
C44 C 0.4445(8) 0.8559(4) 0.2772(4)
C45 C 0.5461(7) 0.6516(4) -0.2042(4)
C46 C 0.3569(7) 0.5744(3) -0.1298(4)
H35 H 0.3070 0.5598 -0.0932
H36 H 0.4084 0.5402 -0.1381
C47 C 0.4925(8) 0.8685(5) 0.3453(5)
C48 C 0.6549(8) 0.7451(5) -0.1800(5)
N1 N 0.3244(4) 0.6823(2) 0.0831(3)
N2 N 0.4972(5) 0.6907(2) 0.2527(3)
N3 N 0.1760(4) 0.7836(2) 0.0626(3)
N4 N 0.4095(4) 0.7659(2) 0.1876(3)
N5 N 0.0321(4) 0.7208(3) 0.0805(3)
N6 N 0.4157(5) 0.6310(3) -0.1017(3)
N7 N 0.4622(4) 0.7149(3) -0.0315(3)
O1 O 0.1166(4) 0.4822(2) 0.4071(2)
O2 O 0.2143(4) 0.3988(2) 0.3711(3)
O3 O -0.2059(4) 0.6576(2) 0.4254(2)
O4 O -0.0864(4) 0.5792(2) 0.4344(2)
O5 O 0.1095(4) 0.5740(3) -0.4485(3)
O6 O 0.0970(5) 0.6765(3) -0.4221(4)
Eu1 Eu 0.0000 0.5000 0.5000
Pb1 Pb 0.12776(2) 0.31163(2) 0.44359(2)
H1B H -0.655(8) 0.312(4) 0.271(6)
H2B H -0.002(9) 0.431(5) -0.323(6)
H3B H 0.198(6) 0.290(3) -0.303(4)
H4B H -0.580(6) 0.154(4) -0.437(4)
H5B H 0.172(7) 0.230(4) -0.048(4)
H6B H -0.133(5) 0.096(3) -0.002(3)
H7B H 0.150(12) 0.265(7) -0.184(8)
H8B H -0.023(7) 0.423(4) -0.186(5)
H9B H 0.189(7) 0.133(4) 0.011(4)
H10B H 0.047(6) 0.059(4) 0.018(4)
H11B H -0.283(7) 0.308(3) 0.186(5)
H12B H -0.429(8) 0.120(5) -0.248(6)
H13B H -0.539(9) 0.383(5) 0.240(6)
H14B H -0.500(9) 0.096(5) -0.366(7)
H15B H -0.724(7) 0.216(4) 0.204(5)
C1B C -0.5049(5) 0.2538(3) -0.2941(3)
C2B C 0.1078(5) 0.3695(3) -0.3197(3)
C3B C 0.1364(5) 0.3778(3) -0.3986(3)
C4B C -0.5519(6) 0.2398(4) -0.3630(4)
H16B H -0.5865 0.2713 -0.3913
C5B C -0.6244(8) 0.3064(5) 0.2244(5)
C6B C -0.2945(6) 0.4123(4) 0.1998(4)
C7B C -0.2176(5) 0.3219(3) -0.1192(3)
H17B H -0.1871 0.3645 -0.1122
H18B H -0.2271 0.3143 -0.1714
C8B C -0.4455(5) 0.4157(3) -0.3013(3)
C9B C 0.0401(6) 0.4109(3) -0.2850(4)
C10B C 0.1511(6) 0.3180(3) -0.2813(4)
C11B C -0.0842(5) 0.1829(3) -0.0412(3)
C12B C -0.5447(7) 0.1784(5) -0.3871(4)
C13B C -0.2095(6) 0.3404(4) 0.2876(4)
H19B H -0.1894 0.2989 0.3005
C14B C -0.3462(6) 0.3922(3) -0.3202(4)
H20B H -0.3326 0.3484 -0.3163
C15B C -0.2656(5) 0.4325(3) -0.3452(3)
H21B H -0.1988 0.4156 -0.3577
C16B C -0.3992(5) 0.3358(3) 0.0383(3)
C17B C -0.5358(5) 0.3727(3) -0.2749(4)
H22B H -0.5904 0.3680 -0.3140
H23B H -0.5700 0.3930 -0.2337
C18B C -0.1993(5) 0.5421(3) -0.3791(3)
C19B C -0.1425(5) 0.2731(3) -0.0862(3)
C20B C -0.2841(5) 0.4973(3) -0.3517(3)
C21B C 0.0559(5) 0.3477(3) -0.1741(3)
C22B C 0.0313(6) 0.3371(4) -0.0944(3)
H24B H -0.0083 0.3739 -0.0768
H25B H 0.0993 0.3346 -0.0664
C23B C 0.0079(5) 0.2216(3) -0.0529(3)
C24B C -0.5244(5) 0.2844(3) 0.0932(4)
C25B C -0.3144(6) 0.3552(3) -0.0137(4)
H26B H -0.3217 0.4005 -0.0246
H27B H -0.2431 0.3482 0.0089
C26B C -0.3860(5) 0.5219(3) -0.3337(3)
H28B H -0.4000 0.5655 -0.3387
C27B C 0.1139(6) 0.2012(5) -0.0372(4)
C28B C -0.4654(5) 0.4813(3) -0.3086(3)
H29B H -0.5327 0.4978 -0.2965
C29B C -0.4390(5) 0.2947(3) -0.1903(3)
C30B C -0.0706(6) 0.1215(4) -0.0122(3)
C31B C 0.1252(6) 0.3065(4) -0.2095(4)
C32B C 0.0149(6) 0.3999(3) -0.2120(4)
C33B C -0.4967(6) 0.3362(4) 0.1377(4)
C34B C -0.1842(5) 0.3908(4) 0.3354(4)
C35B C -0.4116(5) 0.3428(3) -0.1320(4)
H30B H -0.4754 0.3518 -0.1038
H31B H -0.3881 0.3824 -0.1544
C36B C -0.2659(6) 0.4635(4) 0.2465(4)
H32B H -0.2829 0.5053 0.2326
C37B C -0.1277(6) 0.3799(4) 0.4057(4)
C38B C -0.2125(6) 0.4523(4) 0.3130(4)
H33B H -0.1952 0.4867 0.3435
C39B C -0.4512(5) 0.2067(3) -0.2521(3)
C40B C 0.1248(6) 0.1404(5) -0.0084(4)
C41B C 0.0351(6) 0.1009(4) 0.0043(4)
C42B C -0.2639(6) 0.3513(4) 0.2215(4)
C43B C -0.6055(7) 0.2418(4) 0.1146(4)
H34B H -0.6252 0.2065 0.0860
C44B C -0.4445(8) 0.1441(4) -0.2772(4)
C45B C -0.5461(7) 0.3484(4) 0.2042(4)
C46B C -0.3569(7) 0.4256(3) 0.1298(4)
H35B H -0.3070 0.4402 0.0932
H36B H -0.4084 0.4598 0.1381
C47B C -0.4925(8) 0.1315(5) -0.3453(5)
C48B C -0.6549(8) 0.2549(5) 0.1800(5)
N1B N -0.3244(4) 0.3177(2) -0.0831(3)
N2B N -0.4972(5) 0.3093(2) -0.2527(3)
N3B N -0.1760(4) 0.2164(2) -0.0626(3)
N4B N -0.4095(4) 0.2341(2) -0.1876(3)
N5B N -0.0321(4) 0.2792(3) -0.0805(3)
N6B N -0.4157(5) 0.3690(3) 0.1017(3)
N7B N -0.4622(4) 0.2851(3) 0.0315(3)
O1B O -0.1166(4) 0.5178(2) -0.4071(2)
O2B O -0.2143(4) 0.6012(2) -0.3711(3)
O3B O 0.2059(4) 0.3424(2) -0.4254(2)
O4B O 0.0864(4) 0.4208(2) -0.4344(2)
O5B O -0.1095(4) 0.4260(3) 0.4485(3)
O6B O -0.0970(5) 0.3235(3) 0.4221(4)
Pb1B Pb -0.12776(2) 0.68837(2) -0.44359(2)
N1A N 0.1756(4) 0.1823(2) 0.4169(3)
N1C N -0.1756(4) 0.8177(2) -0.4169(3)
N3A N 0.3240(4) 0.2836(2) 0.4374(3)
N3C N -0.3240(4) 0.7164(2) -0.4374(3)
N4A N 0.0905(4) 0.2659(2) 0.3124(3)
N4C N -0.0905(4) 0.7341(2) -0.3124(3)
N7A N 0.0378(4) 0.2149(3) 0.5315(3)
N7C N -0.0378(4) 0.7851(3) -0.5315(3)
O1B_2 O -0.1166(4) 0.5178(2) 0.5929(2)
O3_2 O -0.2059(4) 0.6576(2) -0.5746(2)
O3B_2 O 0.2059(4) 0.3424(2) 0.5746(2)
O4B_2 O 0.0864(4) 0.4208(2) 0.5656(2)
O5_2 O 0.1095(4) 0.5740(3) 0.5515(3)
Eu1_2 Eu 0.0000 0.5000 -0.5000
Pb1_2 Pb 0.12776(2) 0.31163(2) -0.55641(2)
Pb1A Pb 0.37224(2) 0.81163(2) 0.05641(2)
Pb1B_2 Pb -0.12776(2) 0.68837(2) 0.55641(2)
Pb1C Pb -0.37224(2) 0.18837(2) -0.05641(2)
loop_
_geom_bond_atom_site_label_1
_geom_bond_atom_site_label_2
_geom_bond_site_symmetry_1
_geom_bond_site_symmetry_2
H1 C5 1_555 1_555
H2 C9 1_555 1_555
H3 C10 1_555 1_555
H4 C12 1_555 1_555
H5 C27 1_555 1_555
H6 C30 1_555 1_555
H7 C31 1_555 1_555
H8 C32 1_555 1_555
H9 C40 1_555 1_555
H10 C41 1_555 1_555
H11 C42 1_555 1_555
H12 C44 1_555 1_555
H13 C45 1_555 1_555
H14 C47 1_555 1_555
H15 C48 1_555 1_555
C1 C4 1_555 1_555
C2 C3 1_555 1_555
C3 O3 1_555 1_555
C4 H16 1_555 1_555
C5 C45 1_555 1_555
C6 C36 1_555 1_555
C7 H17 1_555 1_555
H18 C7 1_555 1_555
C8 C14 1_555 1_555
C9 C2 1_555 1_555
C10 C2 1_555 1_555
C11 C23 1_555 1_555
C12 C4 1_555 1_555
C13 H19 1_555 1_555
C14 H20 1_555 1_555
C15 C14 1_555 1_555
H21 C15 1_555 1_555
C16 C25 1_555 1_555
C17 C8 1_555 1_555
H22 C17 1_555 1_555
H23 C17 1_555 1_555
C18 C20 1_555 1_555
C19 C7 1_555 1_555
C20 C15 1_555 1_555
C21 C22 1_555 1_555
C22 H24 1_555 1_555
H25 C22 1_555 1_555
C23 C27 1_555 1_555
C24 C33 1_555 1_555
C25 H26 1_555 1_555
H27 C25 1_555 1_555
C26 C20 1_555 1_555
H28 C26 1_555 1_555
C27 C40 1_555 1_555
C28 C8 1_555 1_555
H29 C28 1_555 1_555
C29 C35 1_555 1_555
C30 C11 1_555 1_555
C31 C10 1_555 1_555
C32 C9 1_555 1_555
C33 C45 1_555 1_555
C34 C13 1_555 1_555
C35 H30 1_555 1_555
H31 C35 1_555 1_555
C36 H32 1_555 1_555
C37 C34 1_555 1_555
C38 C34 1_555 1_555
H33 C38 1_555 1_555
C39 C1 1_555 1_555
C40 C41 1_555 1_555
C41 C30 1_555 1_555
C42 C6 1_555 1_555
C43 C24 1_555 1_555
H34 C43 1_555 1_555
C44 C39 1_555 1_555
C46 C6 1_555 1_555
H35 C46 1_555 1_555
H36 C46 1_555 1_555
C47 C12 1_555 1_555
C48 C5 1_555 1_555
N1 C7 1_555 1_555
N2 C1 1_555 1_555
N3 C11 1_555 1_555
N4 C29 1_555 1_555
N5 C19 1_555 1_555
N6 C16 1_555 1_555
N7 C16 1_555 1_555
O1 C18 1_555 1_555
O2 C18 1_555 1_555
O3 Pb1B_2 1_555 1_555
O4 C3 1_555 1_555
O5 C37 1_555 1_555
O6 C37 1_555 1_555
Eu1 O1 1_555 1_555
Pb1 O2 1_555 1_555
O9 H37 1_555 1_555
H38 O9 1_555 1_555
C49 H39 1_555 1_555
H40 C49 1_555 1_555
H41 C49 1_555 1_555
C50 H42 1_555 1_555
H43 C50 1_555 1_555
H44 C50 1_555 1_555
C51 H45 1_555 1_555
N8 C49 1_555 1_555
O10 C51 1_555 1_555
H1B C5B 1_555 1_555
H2B C9B 1_555 1_555
H3B C10B 1_555 1_555
H4B C12B 1_555 1_555
H5B C27B 1_555 1_555
H6B C30B 1_555 1_555
H7B C31B 1_555 1_555
H8B C32B 1_555 1_555
H9B C40B 1_555 1_555
H10B C41B 1_555 1_555
H11B C42B 1_555 1_555
H12B C44B 1_555 1_555
H13B C45B 1_555 1_555
H14B C47B 1_555 1_555
H15B C48B 1_555 1_555
C1B C4B 1_555 1_555
C2B C3B 1_555 1_555
C3B O3B 1_555 1_555
C4B H16B 1_555 1_555
C5B C45B 1_555 1_555
C6B C36B 1_555 1_555
C7B H17B 1_555 1_555
H18B C7B 1_555 1_555
C8B C14B 1_555 1_555
C9B C2B 1_555 1_555
C10B C2B 1_555 1_555
C11B C23B 1_555 1_555
C12B C4B 1_555 1_555
C13B H19B 1_555 1_555
C14B H20B 1_555 1_555
C15B C14B 1_555 1_555
H21B C15B 1_555 1_555
C16B C25B 1_555 1_555
C17B C8B 1_555 1_555
H22B C17B 1_555 1_555
H23B C17B 1_555 1_555
C18B C20B 1_555 1_555
C19B C7B 1_555 1_555
C20B C15B 1_555 1_555
C21B C22B 1_555 1_555
C22B H24B 1_555 1_555
H25B C22B 1_555 1_555
C23B C27B 1_555 1_555
C24B C33B 1_555 1_555
C25B H26B 1_555 1_555
H27B C25B 1_555 1_555
C26B C20B 1_555 1_555
H28B C26B 1_555 1_555
C27B C40B 1_555 1_555
C28B C8B 1_555 1_555
H29B C28B 1_555 1_555
C29B C35B 1_555 1_555
C30B C11B 1_555 1_555
C31B C10B 1_555 1_555
C32B C9B 1_555 1_555
C33B C45B 1_555 1_555
C34B C13B 1_555 1_555
C35B H30B 1_555 1_555
H31B C35B 1_555 1_555
C36B H32B 1_555 1_555
C37B C34B 1_555 1_555
C38B C34B 1_555 1_555
H33B C38B 1_555 1_555
C39B C1B 1_555 1_555
C40B C41B 1_555 1_555
C41B C30B 1_555 1_555
C42B C6B 1_555 1_555
C43B C24B 1_555 1_555
H34B C43B 1_555 1_555
C44B C39B 1_555 1_555
C46B C6B 1_555 1_555
H35B C46B 1_555 1_555
H36B C46B 1_555 1_555
C47B C12B 1_555 1_555
C48B C5B 1_555 1_555
N1B C7B 1_555 1_555
N2B C1B 1_555 1_555
N3B C11B 1_555 1_555
N4B C29B 1_555 1_555
N5B C19B 1_555 1_555
N6B C16B 1_555 1_555
N7B C16B 1_555 1_555
O1B C18B 1_555 1_555
O2B C18B 1_555 1_555
O3B Pb1_2 1_555 1_555
O4B C3B 1_555 1_555
O5B Eu1 1_555 1_555
O6B Pb1 1_555 1_555
Pb1B O6 1_555 1_555
N1A Pb1 1_555 1_555
N1C Pb1B 1_555 1_555
N3A Pb1 1_555 1_555
N3C Pb1B 1_555 1_555
N4A Pb1 1_555 1_555
N4C Pb1B 1_555 1_555
N7A Pb1 1_555 1_555
N7C Pb1B 1_555 1_555
O1B_2 Eu1 1_555 1_555
O3_2 Pb1B 1_555 1_555
O3B_2 Pb1 1_555 1_555
O4B_2 Eu1 1_555 1_555
O5_2 Eu1 1_555 1_555
Eu1_2 O5 1_555 1_555
Pb1A N1 1_555 1_555
Pb1C N1B 1_555 1_555
C13 C42 1_555 1_555
C17 N2 1_555 1_555
C19 N3 1_555 1_555
C21 C31 1_555 1_555
C21 C32 1_555 1_555
C22 N5 1_555 1_555
C23 N5 1_555 1_555
C24 N7 1_555 1_555
C25 N1 1_555 1_555
C26 C28 1_555 1_555
C29 N2 1_555 1_555
C33 N6 1_555 1_555
C35 N1 1_555 1_555
C36 C38 1_555 1_555
C39 N4 1_555 1_555
C43 C48 1_555 1_555
C44 C47 1_555 1_555
C46 N6 1_555 1_555
N3 Pb1A 1_555 1_555
N4 Pb1A 1_555 1_555
N7 Pb1A 1_555 1_555
O4 Eu1 1_555 1_555
C50 N8 1_555 1_555
C51 N8 1_555 1_555
C13B C42B 1_555 1_555
C17B N2B 1_555 1_555
C19B N3B 1_555 1_555
C21B C31B 1_555 1_555
C21B C32B 1_555 1_555
C22B N5B 1_555 1_555
C23B N5B 1_555 1_555
C24B N7B 1_555 1_555
C25B N1B 1_555 1_555
C26B C28B 1_555 1_555
C29B N2B 1_555 1_555
C33B N6B 1_555 1_555
C35B N1B 1_555 1_555
C36B C38B 1_555 1_555
C37B O5B 1_555 1_555
C37B O6B 1_555 1_555
C39B N4B 1_555 1_555
C43B C48B 1_555 1_555
C44B C47B 1_555 1_555
C46B N6B 1_555 1_555
N3B Pb1C 1_555 1_555
N4B Pb1C 1_555 1_555
N7B Pb1C 1_555 1_555
O1B Eu1_2 1_555 1_555
O2B Pb1B 1_555 1_555
O4B Eu1_2 1_555 1_555

#END
