
#######################################################################
#
#                 Cambridge Crystallographic Data Centre
#                                CCDC 
#
#######################################################################
#
# If this CIF has been generated from an entry in the Cambridge 
# Structural Database, then it will include bibliographic, chemical, 
# crystal, experimental, refinement or atomic coordinate data resulting 
# from the CCDC's data processing and validation procedures.
#
#######################################################################

data_BUCTAV01
_symmetry_cell_setting           triclinic
_symmetry_space_group_name_H-M   'P -1'
_symmetry_Int_Tables_number      2
_space_group_name_Hall           '-P 1'
loop_
_symmetry_equiv_pos_site_id
_symmetry_equiv_pos_as_xyz
1 x,y,z
2 -x,-y,-z
_cell_length_a                   8.3542(13)
_cell_length_b                   9.8345(18)
_cell_length_c                   9.8742(19)
_cell_angle_alpha                60.5230(10)
_cell_angle_beta                 74.0270(10)
_cell_angle_gamma                87.189(2)
_cell_volume                     675.351
loop_
_atom_site_label
_atom_site_type_symbol
_atom_site_fract_x
_atom_site_fract_y
_atom_site_fract_z
Mn1 Mn 0.5000 0.5000 0.5000
N1 N 0.3754(4) 0.7196(3) 0.4582(4)
N2 N 0.3086(5) 0.9562(4) 0.3205(5)
H1 H 0.2878 1.0394 0.2416
N3 N 0.3204(4) 0.4337(4) 0.4052(4)
N4 N 0.1983(5) 0.4080(4) 0.2479(4)
H2 H 0.1826 0.4169 0.1616
O1 O 0.6765(3) 0.6354(3) 0.2533(3)
O2 O 0.6447(3) 0.7752(3) -0.0152(3)
O3 O 0.8061(3) 0.5528(3) 0.0595(3)
S1 S 0.75150(11) 0.68335(9) 0.08386(10)
C1 C 0.9239(4) 0.9517(4) 0.0265(4)
C2 C 0.9346(4) 0.8103(4) 0.0189(4)
C3 C 1.0842(5) 0.7681(4) -0.0378(5)
H3 H 1.0883 0.6759 -0.0428
C4 C 1.2326(5) 0.8626(5) -0.0888(5)
H4 H 1.3346 0.8322 -0.1266
C5 C 1.2289(5) 0.9981(4) -0.0837(5)
H5 H 1.3287 1.0594 -0.1184
C6 C 0.3502(5) 0.8239(5) 0.3207(5)
H6 H 0.3601 0.8076 0.2337
C7 C 0.3050(7) 0.9354(5) 0.4683(7)
H7 H 0.2798 1.0077 0.5039
C8 C 0.3454(6) 0.7888(5) 0.5520(5)
H8 H 0.3520 0.7417 0.6579
C9 C 0.3344(6) 0.4568(6) 0.2611(5)
H9 H 0.4316 0.5036 0.1750
C10 C 0.0912(8) 0.3427(9) 0.3946(7)
H10 H -0.0154 0.2937 0.4258
C11 C 0.1655(7) 0.3606(8) 0.4902(6)
H11 H 0.1164 0.3271 0.5998
Mn1_2 Mn 1.5000 1.5000 -0.5000
N1A N 0.6246(4) 0.2804(3) 0.5418(4)
N2A N 0.6914(5) 0.0438(4) 0.6795(5)
H1A H 0.7122 -0.0394 0.7584
N3A N 0.6796(4) 0.5663(4) 0.5948(4)
N4A N 0.8017(5) 0.5920(4) 0.7521(4)
H2A H 0.8174 0.5831 0.8384
O1A O 1.3235(3) 1.3646(3) -0.2533(3)
O1A_2 O 0.3235(3) 0.3646(3) 0.7467(3)
O2A O 1.3553(3) 1.2248(3) 0.0152(3)
O3A O 1.1939(3) 1.4472(3) -0.0595(3)
S1A S 1.24850(11) 1.31665(9) -0.08386(10)
C1A C 1.0761(4) 1.0483(4) -0.0265(4)
C2A C 1.0654(4) 1.1897(4) -0.0189(4)
C3A C 0.9158(5) 1.2319(4) 0.0378(5)
H3A H 0.9117 1.3241 0.0428
C4A C 0.7674(5) 1.1374(5) 0.0888(5)
H4A H 0.6654 1.1678 0.1266
C5A C 0.7711(5) 1.0019(4) 0.0837(5)
H5A H 0.6713 0.9406 0.1184
C6A C 0.6498(5) 0.1761(5) 0.6793(5)
H6A H 0.6399 0.1924 0.7663
C7A C 0.6950(7) 0.0646(5) 0.5317(7)
H7A H 0.7202 -0.0077 0.4961
C8A C 0.6546(6) 0.2112(5) 0.4480(5)
H8A H 0.6480 0.2583 0.3421
C9A C 0.6656(6) 0.5432(6) 0.7389(5)
H9A H 0.5684 0.4964 0.8250
C10A C 0.9088(8) 0.6573(9) 0.6054(7)
H10A H 1.0154 0.7063 0.5742
C11A C 0.8345(7) 0.6394(8) 0.5098(6)
H11A H 0.8836 0.6729 0.4002
loop_
_geom_bond_atom_site_label_1
_geom_bond_atom_site_label_2
_geom_bond_site_symmetry_1
_geom_bond_site_symmetry_2
Mn1 N1 1_555 1_555
N1 C6 1_555 1_555
N2 H1 1_555 1_555
N3 Mn1 1_555 1_555
N4 H2 1_555 1_555
O1 Mn1 1_555 1_555
O2 S1 1_555 1_555
O3 S1 1_555 1_555
S1 O1 1_555 1_555
C1 C2 1_555 1_555
C2 S1 1_555 1_555
C3 C2 1_555 1_555
H3 C3 1_555 1_555
C4 C3 1_555 1_555
H4 C4 1_555 1_555
C5 C4 1_555 1_555
H5 C5 1_555 1_555
C6 N2 1_555 1_555
H6 C6 1_555 1_555
C7 N2 1_555 1_555
H7 C7 1_555 1_555
C8 N1 1_555 1_555
H8 C8 1_555 1_555
C9 N3 1_555 1_555
H9 C9 1_555 1_555
C10 N4 1_555 1_555
H10 C10 1_555 1_555
C11 N3 1_555 1_555
H11 C11 1_555 1_555
Mn1_2 O1A 1_555 1_555
N1A Mn1 1_555 1_555
N2A H1A 1_555 1_555
N3A Mn1 1_555 1_555
N4A H2A 1_555 1_555
O1A S1A 1_555 1_555
O1A_2 Mn1 1_555 1_555
O2A S1A 1_555 1_555
O3A S1A 1_555 1_555
S1A C2A 1_555 1_555
C1A C1 1_555 1_555
C2A C1A 1_555 1_555
C3A C2A 1_555 1_555
H3A C3A 1_555 1_555
C4A C3A 1_555 1_555
H4A C4A 1_555 1_555
C5A C1 1_555 1_555
H5A C5A 1_555 1_555
C6A N1A 1_555 1_555
H6A C6A 1_555 1_555
C7A N2A 1_555 1_555
H7A C7A 1_555 1_555
C8A N1A 1_555 1_555
H8A C8A 1_555 1_555
C9A N3A 1_555 1_555
H9A C9A 1_555 1_555
C10A N4A 1_555 1_555
H10A C10A 1_555 1_555
C11A N3A 1_555 1_555
H11A C11A 1_555 1_555
N4 C9 1_555 1_555
C5 C1A 1_555 1_555
C7 C8 1_555 1_555
C10 C11 1_555 1_555
N2A C6A 1_555 1_555
N4A C9A 1_555 1_555
C4A C5A 1_555 1_555
C7A C8A 1_555 1_555
C10A C11A 1_555 1_555

#END
