
#######################################################################
#
#                 Cambridge Crystallographic Data Centre
#                                CCDC 
#
#######################################################################
#
# If this CIF has been generated from an entry in the Cambridge 
# Structural Database, then it will include bibliographic, chemical, 
# crystal, experimental, refinement or atomic coordinate data resulting 
# from the CCDC's data processing and validation procedures.
#
#######################################################################

data_BUCTUP
_symmetry_cell_setting           orthorhombic
_symmetry_space_group_name_H-M   'C m c a'
_symmetry_Int_Tables_number      64
_space_group_name_Hall           '-C 2ac 2'
loop_
_symmetry_equiv_pos_site_id
_symmetry_equiv_pos_as_xyz
1 x,y,z
2 1/2+x,1/2-y,-z
3 1/2-x,y,1/2-z
4 -x,1/2-y,1/2+z
5 1/2+x,1/2+y,z
6 x,-y,-z
7 -x,1/2+y,1/2-z
8 1/2-x,-y,1/2+z
9 -x,-y,-z
10 1/2-x,1/2+y,z
11 1/2+x,-y,1/2+z
12 x,1/2+y,1/2-z
13 1/2-x,1/2-y,-z
14 -x,y,z
15 x,1/2-y,1/2+z
16 1/2+x,y,1/2-z
_cell_length_a                   9.2606(2)
_cell_length_b                   16.7070(3)
_cell_length_c                   8.4154(2)
_cell_angle_alpha                90
_cell_angle_beta                 90
_cell_angle_gamma                90
_cell_volume                     1302
loop_
_atom_site_label
_atom_site_type_symbol
_atom_site_fract_x
_atom_site_fract_y
_atom_site_fract_z
Ni1 Ni 0.00000 0.00000 0.00000
N1 N 0.00000 0.0888(4) 0.1501(6)
C1 C 0.00000 0.1208(5) 0.2786(7)
S1 S 0.00000 0.1662(2) 0.4508(3)
N2 N -0.1705(4) 0.0618(2) -0.1447(6)
C2 C -0.25000 0.0182(4) -0.25000
C3 C -0.1726(4) 0.1422(3) -0.1383(7)
C4 C -0.25000 0.1860(5) -0.25000
Ni1B Ni -0.50000 0.00000 -0.50000
Ni1B_2 Ni 0.50000 0.00000 -0.50000
N1E N 0.00000 -0.0888(4) -0.1501(6)
C1E C 0.00000 -0.1208(5) -0.2786(7)
S1E S 0.00000 -0.1662(2) -0.4508(3)
N2B N -0.3295(4) 0.0618(2) -0.3553(6)
N2M N 0.1705(4) 0.0618(2) -0.1447(6)
N2O N 0.3295(4) 0.0618(2) -0.3553(6)
N2E N -0.1705(4) -0.0618(2) 0.1447(6)
N2H N 0.1705(4) -0.0618(2) 0.1447(6)
C2M C 0.25000 0.0182(4) -0.25000
C3B C -0.3274(4) 0.1422(3) -0.3617(7)
C3M C 0.1726(4) 0.1422(3) -0.1383(7)
C3O C 0.3274(4) 0.1422(3) -0.3617(7)
C4M C 0.25000 0.1860(5) -0.25000
loop_
_geom_bond_atom_site_label_1
_geom_bond_atom_site_label_2
_geom_bond_site_symmetry_1
_geom_bond_site_symmetry_2
Ni1 N1 1_555 1_555
N1 C1 1_555 1_555
C1 S1 1_555 1_555
N2 Ni1 1_555 1_555
C2 N2 1_555 1_555
C3 N2 1_555 1_555
C4 C3 1_555 1_555
Ni1B N2B 1_555 1_555
Ni1B_2 N2O 1_555 1_555
N1E Ni1 1_555 1_555
C1E N1E 1_555 1_555
S1E C1E 1_555 1_555
N2B C2 1_555 1_555
N2M Ni1 1_555 1_555
N2O C2M 1_555 1_555
N2E Ni1 1_555 1_555
N2H Ni1 1_555 1_555
C2M N2M 1_555 1_555
C3B C4 1_555 1_555
C3M N2M 1_555 1_555
C3O N2O 1_555 1_555
C4M C3M 1_555 1_555
N2B C3B 1_555 1_555
C3O C4M 1_555 1_555

#END
