
#######################################################################
#
#                 Cambridge Crystallographic Data Centre
#                                CCDC 
#
#######################################################################
#
# If this CIF has been generated from an entry in the Cambridge 
# Structural Database, then it will include bibliographic, chemical, 
# crystal, experimental, refinement or atomic coordinate data resulting 
# from the CCDC's data processing and validation procedures.
#
#######################################################################

data_BUCVUR
_symmetry_cell_setting           monoclinic
_symmetry_space_group_name_H-M   'P 2/n'
_symmetry_Int_Tables_number      13
_space_group_name_Hall           '-P 2yac'
loop_
_symmetry_equiv_pos_site_id
_symmetry_equiv_pos_as_xyz
1 x,y,z
2 1/2-x,y,1/2-z
3 -x,-y,-z
4 1/2+x,-y,1/2+z
_cell_length_a                   10.8900(10)
_cell_length_b                   10.8796(10)
_cell_length_c                   13.6720(13)
_cell_angle_alpha                90
_cell_angle_beta                 108.386(2)
_cell_angle_gamma                90
_cell_volume                     1537.15
loop_
_atom_site_label
_atom_site_type_symbol
_atom_site_fract_x
_atom_site_fract_y
_atom_site_fract_z
Cu1 Cu 0.79135(3) 0.80724(3) -0.14664(3)
C1 C 0.7500 1.0397(3) -0.2500
C2 C 0.7500 1.1786(3) -0.2500
C3 C 0.7909(3) 1.2441(3) -0.1578(2)
H1 H 0.8183 1.2019 -0.0955
C4 C 0.7911(3) 1.3697(3) -0.1581(3)
H2 H 0.8190 1.4121 -0.0959
C5 C 0.7500 1.4346(4) -0.2500
C6 C 0.7500 1.5733(4) -0.2500
C7 C 0.8898(3) 0.9066(3) 0.0785(3)
H3 H 0.8929 0.9863 0.0548
C8 C 0.9175(4) 0.8749(3) 0.1776(3)
H4 H 0.9420 0.9275 0.2341
C9 C 0.8676(3) 0.7128(3) 0.0809(2)
H5 H 0.8531 0.6312 0.0605
C10 C 0.9252(3) 0.6753(3) 0.2701(2)
C11 C 0.9131(4) 0.7269(3) 0.3589(3)
H6 H 0.8873 0.8084 0.3589
C12 C 0.9394(3) 0.6570(3) 0.4478(3)
H7 H 0.9278 0.6914 0.5065
C13 C 0.9827(3) 0.5365(3) 0.4512(2)
C14 C 0.9895(4) 0.4870(3) 0.3601(3)
H8 H 1.0143 0.4053 0.3593
C15 C 0.9608(3) 0.5544(3) 0.2704(3)
H9 H 0.9657 0.5180 0.2101
C16 C 1.1503(3) 0.8205(3) -0.3409(3)
H10 H 1.0831 0.8242 -0.4030
C17 C 1.2766(3) 0.8183(3) -0.3415(3)
H11 H 1.2935 0.8175 -0.4041
C18 C 1.1224(3) 0.8172(2) -0.2485(2)
C19 C 0.9844(3) 0.8124(2) -0.2480(3)
N1 N 0.8560(3) 0.8046(2) 0.0169(2)
N2 N 0.9029(2) 0.7499(2) 0.17978(19)
O1 O 0.7782(2) 0.98709(19) -0.16382(17)
O2 O 0.7893(2) 1.62639(18) -0.16385(16)
O3 O 0.9661(2) 0.81432(18) -0.16245(18)
O4 O 0.8974(2) 0.80495(18) -0.33429(18)
Cu1B Cu 1.20865(3) 0.19276(3) 1.14664(3)
Cu1_2 Cu 0.79135(3) 1.80724(3) -0.14664(3)
Cu1A Cu 0.70865(3) 0.80724(3) -0.35336(3)
Cu1A_2 Cu 0.70865(3) 1.80724(3) -0.35336(3)
Cu1A_3 Cu 1.70865(3) 0.80724(3) -0.35336(3)
Cu1_3 Cu 1.79135(3) 0.80724(3) -0.14664(3)
C3A C 0.7091(3) 1.2441(3) -0.3422(2)
H1A H 0.6817 1.2019 -0.4045
C4A C 0.7089(3) 1.3697(3) -0.3419(3)
H2A H 0.6810 1.4121 -0.4041
C7B C 1.1102(3) 0.0934(3) 0.9215(3)
H3B H 1.1071 0.0137 0.9452
C8B C 1.0825(4) 0.1251(3) 0.8224(3)
H4B H 1.0580 0.0725 0.7659
C9B C 1.1324(3) 0.2872(3) 0.9191(2)
H5B H 1.1469 0.3688 0.9395
C10B C 1.0748(3) 0.3247(3) 0.7299(2)
C11B C 1.0869(4) 0.2731(3) 0.6411(3)
H6B H 1.1127 0.1916 0.6411
C12B C 1.0606(3) 0.3430(3) 0.5522(3)
H7B H 1.0722 0.3086 0.4935
C13B C 1.0173(3) 0.4635(3) 0.5488(2)
C14B C 1.0105(4) 0.5130(3) 0.6399(3)
H8B H 0.9857 0.5947 0.6407
C15B C 1.0392(3) 0.4456(3) 0.7296(3)
H9B H 1.0343 0.4820 0.7899
C16A C 1.3497(3) 0.8205(3) -0.1591(3)
H10A H 1.4169 0.8242 -0.0970
C17A C 1.2234(3) 0.8183(3) -0.1585(3)
H11A H 1.2065 0.8175 -0.0959
C18A C 1.3776(3) 0.8172(2) -0.2515(2)
C19A C 1.5156(3) 0.8124(2) -0.2520(3)
N1B N 1.1440(3) 0.1954(2) 0.9831(2)
N1A N 0.6440(3) 0.8046(2) -0.5169(2)
N2B N 1.0971(2) 0.2501(2) 0.82022(19)
O1A O 0.7218(2) 0.98709(19) -0.33618(17)
O2A O 0.7107(2) 1.62639(18) -0.33615(16)
O2_2 O 0.7893(2) 0.62639(18) -0.16385(16)
O2A_2 O 0.7107(2) 0.62639(18) -0.33615(16)
O3A O 1.5339(2) 0.81432(18) -0.33755(18)
O3A_2 O 0.5339(2) 0.81432(18) -0.33755(18)
O4A O 1.6026(2) 0.80495(18) -0.16571(18)
O4A_2 O 0.6026(2) 0.80495(18) -0.16571(18)
loop_
_geom_bond_atom_site_label_1
_geom_bond_atom_site_label_2
_geom_bond_site_symmetry_1
_geom_bond_site_symmetry_2
Cu1 N1 1_555 1_555
C1 C2 1_555 1_555
C2 C3 1_555 1_555
C3 H1 1_555 1_555
C4 C3 1_555 1_555
H2 C4 1_555 1_555
C5 C4 1_555 1_555
C6 C5 1_555 1_555
C7 H3 1_555 1_555
C8 C7 1_555 1_555
H4 C8 1_555 1_555
C9 H5 1_555 1_555
C10 C11 1_555 1_555
C11 H6 1_555 1_555
C12 C11 1_555 1_555
H7 C12 1_555 1_555
C13 C12 1_555 1_555
C14 C13 1_555 1_555
H8 C14 1_555 1_555
C15 C10 1_555 1_555
H9 C15 1_555 1_555
C16 H10 1_555 1_555
C17 C16 1_555 1_555
H11 C17 1_555 1_555
C18 C16 1_555 1_555
C19 C18 1_555 1_555
N1 C7 1_555 1_555
N2 C8 1_555 1_555
O1 Cu1 1_555 1_555
O2 C6 1_555 1_555
O3 Cu1 1_555 1_555
O4 C19 1_555 1_555
Cu1B N1B 1_555 1_555
Cu1_2 O2 1_555 1_555
Cu1A O4 1_555 1_555
Cu1A_2 O2A 1_555 1_555
Cu1A_3 O3A 1_555 1_555
Cu1_3 O4A 1_555 1_555
C3A C2 1_555 1_555
H1A C3A 1_555 1_555
C4A C5 1_555 1_555
H2A C4A 1_555 1_555
C7B H3B 1_555 1_555
C8B C7B 1_555 1_555
H4B C8B 1_555 1_555
C9B H5B 1_555 1_555
C10B C11B 1_555 1_555
C11B H6B 1_555 1_555
C12B C11B 1_555 1_555
H7B C12B 1_555 1_555
C13B C13 1_555 1_555
C14B C13B 1_555 1_555
H8B C14B 1_555 1_555
C15B C10B 1_555 1_555
H9B C15B 1_555 1_555
C16A H10A 1_555 1_555
C17A C18 1_555 1_555
H11A C17A 1_555 1_555
C18A C17 1_555 1_555
C19A C18A 1_555 1_555
N1B C7B 1_555 1_555
N1A Cu1A 1_555 1_555
N2B C8B 1_555 1_555
O1A C1 1_555 1_555
O2A C6 1_555 1_555
O2_2 Cu1 1_555 1_555
O2A_2 Cu1A 1_555 1_555
O3A C19A 1_555 1_555
O3A_2 Cu1A 1_555 1_555
O4A C19A 1_555 1_555
O4A_2 Cu1 1_555 1_555
C1 O1 1_555 1_555
C9 N1 1_555 1_555
C9 N2 1_555 1_555
C10 N2 1_555 1_555
C14 C15 1_555 1_555
C19 O3 1_555 1_555
Cu1A O1A 1_555 1_555
C3A C4A 1_555 1_555
C9B N1B 1_555 1_555
C9B N2B 1_555 1_555
C10B N2B 1_555 1_555
C12B C13B 1_555 1_555
C14B C15B 1_555 1_555
C16A C17A 1_555 1_555
C16A C18A 1_555 1_555

#END
