
#######################################################################
#
#                 Cambridge Crystallographic Data Centre
#                                CCDC 
#
#######################################################################
#
# If this CIF has been generated from an entry in the Cambridge 
# Structural Database, then it will include bibliographic, chemical, 
# crystal, experimental, refinement or atomic coordinate data resulting 
# from the CCDC's data processing and validation procedures.
#
#######################################################################

data_BUCVAX
_symmetry_cell_setting           monoclinic
_symmetry_space_group_name_H-M   'P 21/m'
_symmetry_Int_Tables_number      11
_space_group_name_Hall           '-P 2yb'
loop_
_symmetry_equiv_pos_site_id
_symmetry_equiv_pos_as_xyz
1 x,y,z
2 -x,1/2+y,-z
3 -x,-y,-z
4 x,1/2-y,z
_cell_length_a                   5.6121(3)
_cell_length_b                   12.2764(7)
_cell_length_c                   7.2074(4)
_cell_angle_alpha                90
_cell_angle_beta                 104.4000(18)
_cell_angle_gamma                90
_cell_volume                     480.963
loop_
_atom_site_label
_atom_site_type_symbol
_atom_site_fract_x
_atom_site_fract_y
_atom_site_fract_z
Co1 Co 0.50000 0.50000 0.50000
N1 N 0.442(3) 0.6568(7) 0.3145(13)
C1 C 0.460(6) 0.75000 0.414(2)
C2 C 0.451(6) 0.75000 0.014(3)
C3 C 0.449(3) 0.6524(8) 0.1167(13)
N2 N 0.248(2) 0.5668(11) 0.648(2)
C4 C 0.067(3) 0.5659(15) 0.696(3)
S1 S -0.1880(9) 0.5894(4) 0.7731(7)
Co1_2 Co -0.50000 0.50000 0.50000
Co1A Co 0.50000 1.00000 0.50000
Co1_3 Co 1.50000 0.50000 0.50000
N1C N 0.442(3) 0.8432(7) 0.3145(13)
N1B N 0.558(3) 0.3432(7) 0.6855(13)
C3C C 0.449(3) 0.8476(8) 0.1167(13)
N2_2 N 1.248(2) 0.5668(11) 0.648(2)
N2B N 0.752(2) 0.4332(11) 0.352(2)
C4_2 C 1.067(3) 0.5659(15) 0.696(3)
S1_2 S 0.8120(9) 0.5894(4) 0.7731(7)
S1B S 0.1880(9) 0.4106(4) 0.2269(7)
loop_
_geom_bond_atom_site_label_1
_geom_bond_atom_site_label_2
_geom_bond_site_symmetry_1
_geom_bond_site_symmetry_2
Co1 N1 1_555 1_555
N1 C1 1_555 1_555
C1 N1C 1_555 1_555
C2 C3 1_555 1_555
C3 N1 1_555 1_555
N2 Co1 1_555 1_555
C4 N2 1_555 1_555
S1 C4 1_555 1_555
Co1_2 S1 1_555 1_555
Co1A N1C 1_555 1_555
Co1_3 N2_2 1_555 1_555
N1C C3C 1_555 1_555
N1B Co1 1_555 1_555
C3C C2 1_555 1_555
N2_2 C4_2 1_555 1_555
N2B Co1 1_555 1_555
C4_2 S1_2 1_555 1_555
S1_2 Co1 1_555 1_555
S1B Co1 1_555 1_555

#END
