
#######################################################################
#
#                 Cambridge Crystallographic Data Centre
#                                CCDC 
#
#######################################################################
#
# If this CIF has been generated from an entry in the Cambridge 
# Structural Database, then it will include bibliographic, chemical, 
# crystal, experimental, refinement or atomic coordinate data resulting 
# from the CCDC's data processing and validation procedures.
#
#######################################################################

data_BUCWIG
_symmetry_cell_setting           monoclinic
_symmetry_space_group_name_H-M   'P 21/n'
_symmetry_Int_Tables_number      14
_space_group_name_Hall           '-P 2yn'
loop_
_symmetry_equiv_pos_site_id
_symmetry_equiv_pos_as_xyz
1 x,y,z
2 1/2-x,1/2+y,1/2-z
3 -x,-y,-z
4 1/2+x,1/2-y,1/2+z
_cell_length_a                   9.1277(9)
_cell_length_b                   20.548(2)
_cell_length_c                   13.6011(14)
_cell_angle_alpha                90
_cell_angle_beta                 101.689(2)
_cell_angle_gamma                90
_cell_volume                     2498.06
loop_
_atom_site_label
_atom_site_type_symbol
_atom_site_fract_x
_atom_site_fract_y
_atom_site_fract_z
Co1 Co 1.14314(6) 0.79119(3) 0.86601(5)
Co2 Co 1.0000 1.0000 1.0000
C1 C 0.9545(5) 0.6838(2) 0.7386(4)
H1 H 1.0009 0.6894 0.6843
C2 C 0.8912(5) 0.6973(2) 0.8793(4)
H2 H 0.8848 0.7135 0.9421
C3 C 0.8505(6) 0.6382(2) 0.7444(4)
H3 H 0.8140 0.6067 0.6965
C4 C 0.7129(5) 0.6060(2) 0.8788(4)
C5 C 0.6732(7) 0.6241(3) 0.9669(5)
H4 H 0.7026 0.6643 0.9955
C6 C 0.5891(7) 0.5821(3) 1.0134(5)
H5 H 0.5631 0.5949 1.0732
C7 C 0.5431(5) 0.5221(2) 0.9733(4)
C8 C 0.5801(6) 0.5070(2) 0.8831(4)
H6 H 0.5470 0.4677 0.8525
C9 C 0.6642(6) 0.5477(2) 0.8360(4)
H7 H 0.6879 0.5355 0.7753
C10 C 0.8138(5) 0.9867(2) 1.1652(3)
H8 H 0.8020 1.0316 1.1688
C11 C 0.8744(6) 0.8925(2) 1.1220(4)
H9 H 0.9133 0.8594 1.0883
C12 C 0.8026(5) 0.8832(2) 1.1970(4)
H10 H 0.7838 0.8436 1.2250
C13 C 0.6843(5) 0.9593(2) 1.3023(3)
C14 C 0.6971(5) 0.9191(2) 1.3847(4)
H11 H 0.755(5) 0.885(2) 1.391(4)
C15 C 0.6243(5) 0.9348(2) 1.4614(4)
H12 H 0.637(5) 0.907(2) 1.523(4)
C16 C 0.5371(5) 0.9913(2) 1.4580(3)
C17 C 0.5264(6) 1.0298(2) 1.3729(4)
H13 H 0.471(6) 1.070(2) 1.368(4)
C18 C 0.5971(6) 1.0144(2) 1.2958(4)
H14 H 0.5860 1.0410 1.2395
C19 C 0.9036(5) 0.8914(2) 0.8353(3)
C20 C 0.7719(5) 0.8543(2) 0.7766(3)
C21 C 0.7816(5) 0.8222(2) 0.6897(3)
H15 H 0.8689 0.8253 0.6646
C22 C 0.6618(5) 0.78480(19) 0.6382(3)
C23 C 0.6721(5) 0.7510(2) 0.5435(3)
C24 C 0.5326(5) 0.7809(2) 0.6764(3)
H16 H 0.4534 0.7554 0.6437
C25 C 0.3768(5) 0.8116(2) 0.8020(4)
C26 C 0.5195(5) 0.8147(2) 0.7631(3)
C27 C 0.6394(5) 0.8511(2) 0.8126(3)
H17 H 0.6317 0.8737 0.8706
N1 N 0.9817(4) 0.72062(16) 0.8236(3)
N2 N 0.8096(4) 0.64719(18) 0.8343(3)
N3 N 0.8830(4) 0.95770(17) 1.1014(3)
N4 N 0.7621(4) 0.94376(17) 1.2247(3)
O1 O 1.0329(3) 0.87507(13) 0.8236(2)
O2 O 0.8758(3) 0.93666(14) 0.8899(2)
O3 O 0.7662(3) 0.76851(15) 0.4930(2)
O4 O 0.5808(3) 0.70549(14) 0.5113(2)
O5 O 0.2732(3) 0.77395(15) 0.7603(2)
O6 O 0.3608(3) 0.84554(15) 0.8755(2)
O7 O 1.1687(4) 0.92999(16) 1.0426(3)
H18 H 1.252(6) 0.936(2) 1.037(4)
H19 H 1.140(6) 0.894(2) 1.024(4)
Co1B Co 0.85686(6) 1.20881(3) 1.13399(5)
Co1C Co 0.64314(6) 0.70881(3) 0.36601(5)
Co1_2 Co 0.14314(6) 0.79119(3) 0.86601(5)
Co1B_2 Co -0.14314(6) 0.20881(3) 1.13399(5)
Co1A Co 1.35686(6) 1.29119(3) 1.63399(5)
Co1B_3 Co 1.85686(6) 1.20881(3) 1.13399(5)
Co2_2 Co 0.0000 1.0000 2.0000
C1B C 0.0455(5) 0.3162(2) 1.2614(4)
H1B H -0.0009 0.3106 1.3157
C2B C 0.1088(5) 0.3027(2) 1.1207(4)
H2B H 0.1152 0.2865 1.0579
C3B C 0.1495(6) 0.3618(2) 1.2556(4)
H3B H 0.1860 0.3933 1.3035
C4B C 0.2871(5) 0.3940(2) 1.1212(4)
C5B C 0.3268(7) 0.3759(3) 1.0331(5)
H4B H 0.2974 0.3357 1.0045
C6B C 0.4109(7) 0.4179(3) 0.9866(5)
H5B H 0.4369 0.4051 0.9268
C7B C 0.4569(5) 0.4779(2) 1.0267(4)
C8B C 0.4199(6) 0.4930(2) 1.1169(4)
H6B H 0.4530 0.5323 1.1475
C9B C 0.3358(6) 0.4523(2) 1.1640(4)
H7B H 0.3121 0.4645 1.2247
C10B C 0.1862(5) 1.0133(2) 1.8348(3)
H8B H 0.1980 0.9684 1.8312
C11B C 0.1256(6) 1.1075(2) 1.8780(4)
H9B H 0.0867 1.1406 1.9117
C12B C 0.1974(5) 1.1168(2) 1.8030(4)
H10B H 0.2162 1.1564 1.7750
C13B C 0.3157(5) 1.0407(2) 1.6977(3)
C14B C 0.3029(5) 1.0809(2) 1.6153(4)
H11B H 0.245(5) 1.115(2) 1.609(4)
C15B C 0.3757(5) 1.0652(2) 1.5386(4)
H12B H 0.363(5) 1.093(2) 1.477(4)
C16B C 0.4629(5) 1.0087(2) 1.5420(3)
C17B C 0.4736(6) 0.9702(2) 1.6271(4)
H13B H 0.529(6) 0.930(2) 1.632(4)
C18B C 0.4029(6) 0.9856(2) 1.7042(4)
H14B H 0.4140 0.9590 1.7605
C19B C 1.0964(5) 1.1086(2) 1.1647(3)
C20B C 1.2281(5) 1.1457(2) 1.2234(3)
C21B C 1.2184(5) 1.1778(2) 1.3103(3)
H15B H 1.1311 1.1747 1.3354
C22B C 1.3382(5) 1.21520(19) 1.3618(3)
C23B C 1.3279(5) 1.2490(2) 1.4565(3)
C24B C 1.4674(5) 1.2191(2) 1.3236(3)
H16B H 1.5466 1.2446 1.3563
C25B C 1.6232(5) 1.1884(2) 1.1980(4)
C26B C 1.4805(5) 1.1853(2) 1.2369(3)
C27B C 1.3606(5) 1.1489(2) 1.1874(3)
H17B H 1.3683 1.1263 1.1294
N1B N 0.0183(4) 0.27938(16) 1.1764(3)
N1B_2 N 1.0183(4) 1.27938(16) 1.1764(3)
N2B N 0.1904(4) 0.35281(18) 1.1657(3)
N3B N 0.1170(4) 1.04230(17) 1.8986(3)
N3B_2 N 1.1170(4) 1.04230(17) 0.8986(3)
N4B N 0.2379(4) 1.05624(17) 1.7753(3)
O1B O 0.9671(3) 1.12493(13) 1.1764(2)
O2B O 1.1242(3) 1.06334(14) 1.1101(2)
O3B O 1.2338(3) 1.23149(15) 1.5070(2)
O3C O 1.2662(3) 0.73149(15) 0.9930(2)
O3A O 0.7338(3) 1.26851(15) 1.0070(2)
O4B O 1.4192(3) 1.29451(14) 1.4887(2)
O4C O 1.0808(3) 0.79451(14) 1.0113(2)
O4A O 0.9192(3) 1.20549(14) 0.9887(2)
O5B O 1.7268(3) 1.22605(15) 1.2397(2)
O5_2 O 1.2732(3) 0.77395(15) 0.7603(2)
O5B_2 O 0.7268(3) 1.22605(15) 1.2397(2)
O6B O 1.6392(3) 1.15446(15) 1.1245(2)
O6_2 O 1.3608(3) 0.84554(15) 0.8755(2)
O6B_2 O 0.6392(3) 1.15446(15) 1.1245(2)
O7B O 0.8313(4) 1.07001(16) 0.9574(3)
H18B H 0.748(6) 1.064(2) 0.963(4)
H19B H 0.860(6) 1.106(2) 0.976(4)
O8 O 0.6152(16) 0.7642(6) 0.0407(10)
H20 H 0.5313 0.7565 0.0511
H21 H 0.6852 0.7741 0.1039
O9 O 0.4673(4) 0.9345(2) 0.0233(3)
H22 H 0.4439 0.9128 -0.0258
H23 H 0.4384 0.9332 0.0773
loop_
_geom_bond_atom_site_label_1
_geom_bond_atom_site_label_2
_geom_bond_site_symmetry_1
_geom_bond_site_symmetry_2
Co1 N1 1_555 1_555
Co2 N3 1_555 1_555
C1 H1 1_555 1_555
C2 H2 1_555 1_555
C3 C1 1_555 1_555
H3 C3 1_555 1_555
C4 C5 1_555 1_555
C5 H4 1_555 1_555
C6 C5 1_555 1_555
H5 C6 1_555 1_555
C7 C6 1_555 1_555
C8 C7 1_555 1_555
H6 C8 1_555 1_555
C9 C4 1_555 1_555
H7 C9 1_555 1_555
C10 H8 1_555 1_555
C11 H9 1_555 1_555
C12 C11 1_555 1_555
H10 C12 1_555 1_555
C13 C14 1_555 1_555
C14 H11 1_555 1_555
C15 C14 1_555 1_555
H12 C15 1_555 1_555
C16 C15 1_555 1_555
C17 C16 1_555 1_555
H13 C17 1_555 1_555
C18 C13 1_555 1_555
H14 C18 1_555 1_555
C19 C20 1_555 1_555
C20 C21 1_555 1_555
C21 H15 1_555 1_555
C22 C21 1_555 1_555
C23 C22 1_555 1_555
C24 C22 1_555 1_555
H16 C24 1_555 1_555
C25 C26 1_555 1_555
C26 C24 1_555 1_555
C27 C20 1_555 1_555
H17 C27 1_555 1_555
N1 C1 1_555 1_555
N2 C2 1_555 1_555
N3 C10 1_555 1_555
N4 C10 1_555 1_555
O1 Co1 1_555 1_555
O2 Co2 1_555 1_555
O3 C23 1_555 1_555
O4 C23 1_555 1_555
O5 C25 1_555 1_555
O6 C25 1_555 1_555
O7 Co2 1_555 1_555
H18 O7 1_555 1_555
H19 O7 1_555 1_555
O8 H20 1_555 1_555
H21 O8 1_555 1_555
O9 H22 1_555 1_555
H23 O9 1_555 1_555
Co1B N1B_2 1_555 1_555
Co1C O3 1_555 1_555
Co1_2 O5 1_555 1_555
Co1B_2 N1B 1_555 1_555
Co1A O3B 1_555 1_555
Co1B_3 O5B 1_555 1_555
Co2_2 N3B 1_555 1_555
C1B H1B 1_555 1_555
C2B H2B 1_555 1_555
C3B C1B 1_555 1_555
H3B C3B 1_555 1_555
C4B C5B 1_555 1_555
C5B H4B 1_555 1_555
C6B C5B 1_555 1_555
H5B C6B 1_555 1_555
C7B C7 1_555 1_555
C8B C7B 1_555 1_555
H6B C8B 1_555 1_555
C9B C4B 1_555 1_555
H7B C9B 1_555 1_555
C10B H8B 1_555 1_555
C11B H9B 1_555 1_555
C12B C11B 1_555 1_555
H10B C12B 1_555 1_555
C13B C14B 1_555 1_555
C14B H11B 1_555 1_555
C15B C14B 1_555 1_555
H12B C15B 1_555 1_555
C16B C16 1_555 1_555
C17B C16B 1_555 1_555
H13B C17B 1_555 1_555
C18B C13B 1_555 1_555
H14B C18B 1_555 1_555
C19B C20B 1_555 1_555
C20B C21B 1_555 1_555
C21B H15B 1_555 1_555
C22B C21B 1_555 1_555
C23B C22B 1_555 1_555
C24B C22B 1_555 1_555
H16B C24B 1_555 1_555
C25B C26B 1_555 1_555
C26B C24B 1_555 1_555
C27B C20B 1_555 1_555
H17B C27B 1_555 1_555
N1B C1B 1_555 1_555
N2B C2B 1_555 1_555
N3B C10B 1_555 1_555
N3B_2 Co2 1_555 1_555
N4B C10B 1_555 1_555
O1B Co1B 1_555 1_555
O2B Co2 1_555 1_555
O3B C23B 1_555 1_555
O3C Co1 1_555 1_555
O3A Co1B 1_555 1_555
O4B Co1A 1_555 1_555
O4C Co1 1_555 1_555
O4A Co1B 1_555 1_555
O5B C25B 1_555 1_555
O5_2 Co1 1_555 1_555
O5B_2 Co1B 1_555 1_555
O6B Co1B_3 1_555 1_555
O6_2 Co1 1_555 1_555
O6B_2 Co1B 1_555 1_555
O7B Co2 1_555 1_555
H18B O7B 1_555 1_555
H19B O7B 1_555 1_555
C2 N1 1_555 1_555
C3 N2 1_555 1_555
C4 N2 1_555 1_555
C8 C9 1_555 1_555
C11 N3 1_555 1_555
C12 N4 1_555 1_555
C13 N4 1_555 1_555
C17 C18 1_555 1_555
C19 O1 1_555 1_555
C19 O2 1_555 1_555
C26 C27 1_555 1_555
O4 Co1C 1_555 1_555
O6 Co1_2 1_555 1_555
C2B N1B 1_555 1_555
C3B N2B 1_555 1_555
C4B N2B 1_555 1_555
C6B C7B 1_555 1_555
C8B C9B 1_555 1_555
C11B N3B 1_555 1_555
C12B N4B 1_555 1_555
C13B N4B 1_555 1_555
C15B C16B 1_555 1_555
C17B C18B 1_555 1_555
C19B O1B 1_555 1_555
C19B O2B 1_555 1_555
C23B O4B 1_555 1_555
C25B O6B 1_555 1_555
C26B C27B 1_555 1_555

#END
