
#######################################################################
#
#                 Cambridge Crystallographic Data Centre
#                                CCDC 
#
#######################################################################
#
# If this CIF has been generated from an entry in the Cambridge 
# Structural Database, then it will include bibliographic, chemical, 
# crystal, experimental, refinement or atomic coordinate data resulting 
# from the CCDC's data processing and validation procedures.
#
#######################################################################

data_BUCWIH
_symmetry_cell_setting           triclinic
_symmetry_space_group_name_H-M   'P -1'
_symmetry_Int_Tables_number      2
_space_group_name_Hall           '-P 1'
loop_
_symmetry_equiv_pos_site_id
_symmetry_equiv_pos_as_xyz
1 x,y,z
2 -x,-y,-z
_cell_length_a                   10.048(5)
_cell_length_b                   10.887(5)
_cell_length_c                   12.629(5)
_cell_angle_alpha                67.681(5)
_cell_angle_beta                 80.530(5)
_cell_angle_gamma                77.325(5)
_cell_volume                     1241.82
loop_
_atom_site_label
_atom_site_type_symbol
_atom_site_fract_x
_atom_site_fract_y
_atom_site_fract_z
Cd1 Cd 0.53901(3) 0.89394(3) 0.65875(2)
C1 C 0.4422(4) 0.6636(4) 0.6985(3)
C2 C 0.3711(4) 0.5566(3) 0.6953(3)
C3 C 0.4366(4) 0.4695(4) 0.6398(3)
H1 H 0.5293 0.4678 0.6153
C4 C 0.3677(4) 0.3845(4) 0.6195(3)
H2 H 0.4132 0.3281 0.5803
C5 C 0.2344(4) 0.5517(4) 0.7379(3)
H3 H 0.1896 0.6068 0.7785
C6 C 0.1652(4) 0.4659(4) 0.7203(3)
H4 H 0.0745 0.4625 0.7499
C7 C 0.2307(4) 0.3844(3) 0.6583(3)
C8 C 0.2068(4) 0.2429(4) 0.5596(3)
H5 H 0.2468 0.3066 0.4913
H6 H 0.1332 0.2161 0.5371
C9 C 0.3155(4) 0.1191(4) 0.6060(3)
C10 C 0.7210(4) 1.1374(4) 0.5597(3)
H7 H 0.7054 1.1383 0.4888
C11 C 0.7957(4) 1.2309(4) 0.5619(3)
H8 H 0.8295 1.2918 0.4938
C12 C 0.8181(4) 1.2313(4) 0.6657(3)
H9 H 0.8665 1.2932 0.6691
C13 C 0.7672(4) 1.1372(4) 0.7669(3)
C14 C 0.7917(4) 1.1226(4) 0.8808(3)
C15 C 0.9333(4) 1.1784(4) 1.0971(3)
C16 C 1.0051(4) 1.2852(4) 1.0474(3)
H10 H 1.0048 1.3340 0.9689
C17 C 1.0774(4) 1.3200(4) 1.1136(3)
H11 H 1.1243 1.3923 1.0797
C18 C 1.0792(4) 1.2468(4) 1.2301(4)
C19 C 1.0083(4) 1.1408(4) 1.2803(3)
H12 H 1.0088 1.0921 1.3588
C20 C 0.9363(4) 1.1072(4) 1.2141(3)
H13 H 0.8889 1.0353 1.2486
C21 C 0.8619(4) 1.1399(4) 1.0247(3)
C22 C 0.7468(4) 1.0224(4) 0.9757(3)
C23 C 0.6711(4) 0.9281(3) 0.9717(3)
C24 C 0.6221(4) 0.8251(4) 1.0666(3)
H14 H 0.6371 0.8144 1.1406
C25 C 0.5524(4) 0.7406(4) 1.0498(3)
H15 H 0.5196 0.6716 1.1120
C26 C 0.5312(4) 0.7591(4) 0.9381(3)
H16 H 0.4832 0.7014 0.9274
C27 C 0.6447(3) 0.9406(3) 0.8610(3)
C28 C 0.6944(4) 1.0448(3) 0.7587(3)
N1 N 0.5762(3) 0.8549(3) 0.8466(2)
N2 N 0.6713(3) 1.0475(3) 0.6545(2)
N3 N 0.7927(3) 1.0340(3) 1.0677(2)
H17 H 0.7802 0.9840 1.1388
N4 N 0.8628(3) 1.1971(3) 0.9114(3)
O1 O 0.5670(3) 0.6571(3) 0.6723(3)
O2 O 0.3692(3) 0.7616(3) 0.7199(3)
O3 O 0.1507(3) 0.3086(3) 0.6395(2)
O4 O 0.3804(3) 0.0663(3) 0.5363(2)
O5 O 0.3362(3) 0.0740(3) 0.7091(2)
O6 O 1.1504(3) 1.2746(3) 1.2990(3)
H18 H 1.1956 1.3402 1.2697
Cd1_2 Cd 0.53901(3) -0.10606(3) 0.65875(2)
Cd1A Cd 0.46099(3) 0.10606(3) 0.34125(2)
O4_2 O 0.3804(3) 1.0663(3) 0.5363(2)
O4A O 0.6196(3) 0.9337(3) 0.4637(2)
O5_2 O 0.3362(3) 1.0740(3) 0.7091(2)
O7 O 0.7691(5) 0.4853(3) 0.8064(4)
H19 H 0.6833 0.4980 0.7844
H20 H 0.8228 0.3848 0.8307
loop_
_geom_bond_atom_site_label_1
_geom_bond_atom_site_label_2
_geom_bond_site_symmetry_1
_geom_bond_site_symmetry_2
Cd1 N1 1_555 1_555
C1 C2 1_555 1_555
C2 C3 1_555 1_555
C3 H1 1_555 1_555
C4 C3 1_555 1_555
H2 C4 1_555 1_555
C5 C2 1_555 1_555
H3 C5 1_555 1_555
C6 C5 1_555 1_555
H4 C6 1_555 1_555
C7 C4 1_555 1_555
C8 H5 1_555 1_555
H6 C8 1_555 1_555
C9 C8 1_555 1_555
C10 H7 1_555 1_555
C11 C10 1_555 1_555
H8 C11 1_555 1_555
C12 C11 1_555 1_555
H9 C12 1_555 1_555
C13 C12 1_555 1_555
C14 C13 1_555 1_555
C15 C16 1_555 1_555
C16 H10 1_555 1_555
C17 C16 1_555 1_555
H11 C17 1_555 1_555
C18 C17 1_555 1_555
C19 C18 1_555 1_555
H12 C19 1_555 1_555
C20 C15 1_555 1_555
H13 C20 1_555 1_555
C21 C15 1_555 1_555
C22 C14 1_555 1_555
C23 C22 1_555 1_555
C24 C23 1_555 1_555
H14 C24 1_555 1_555
C25 C24 1_555 1_555
H15 C25 1_555 1_555
C26 C25 1_555 1_555
H16 C26 1_555 1_555
C27 C23 1_555 1_555
C28 C13 1_555 1_555
N1 C26 1_555 1_555
N2 Cd1 1_555 1_555
N3 C21 1_555 1_555
H17 N3 1_555 1_555
N4 C14 1_555 1_555
O1 Cd1 1_555 1_555
O2 Cd1 1_555 1_555
O3 C7 1_555 1_555
O4 C9 1_555 1_555
O5 C9 1_555 1_555
O6 C18 1_555 1_555
H18 O6 1_555 1_555
O7 H19 1_555 1_555
H20 O7 1_555 1_555
Cd1_2 O4 1_555 1_555
Cd1A O4 1_555 1_555
O4_2 Cd1 1_555 1_555
O4A Cd1 1_555 1_555
O5_2 Cd1 1_555 1_555
C1 O1 1_555 1_555
C1 O2 1_555 1_555
C6 C7 1_555 1_555
C8 O3 1_555 1_555
C10 N2 1_555 1_555
C19 C20 1_555 1_555
C21 N4 1_555 1_555
C22 N3 1_555 1_555
C27 C28 1_555 1_555
C27 N1 1_555 1_555
C28 N2 1_555 1_555
O5 Cd1_2 1_555 1_555

#END
