
#######################################################################
#
#                 Cambridge Crystallographic Data Centre
#                                CCDC 
#
#######################################################################
#
# If this CIF has been generated from an entry in the Cambridge 
# Structural Database, then it will include bibliographic, chemical, 
# crystal, experimental, refinement or atomic coordinate data resulting 
# from the CCDC's data processing and validation procedures.
#
#######################################################################

data_BUCWEC
_symmetry_cell_setting           monoclinic
_symmetry_space_group_name_H-M   'P 21/n'
_symmetry_Int_Tables_number      14
_space_group_name_Hall           '-P 2yn'
loop_
_symmetry_equiv_pos_site_id
_symmetry_equiv_pos_as_xyz
1 x,y,z
2 1/2-x,1/2+y,1/2-z
3 -x,-y,-z
4 1/2+x,1/2-y,1/2+z
_cell_length_a                   9.2568(8)
_cell_length_b                   20.6467(16)
_cell_length_c                   13.8233(11)
_cell_angle_alpha                90
_cell_angle_beta                 101.688(2)
_cell_angle_gamma                90
_cell_volume                     2587.16
loop_
_atom_site_label
_atom_site_type_symbol
_atom_site_fract_x
_atom_site_fract_y
_atom_site_fract_z
Mn1 Mn 0.14062(5) 0.70608(2) 0.36456(4)
Mn2 Mn 0.0000 0.5000 0.5000
C1 C -0.1059(4) 0.60655(16) 0.3318(2)
C2 C -0.2347(3) 0.64397(15) 0.2738(2)
C3 C -0.3660(3) 0.64774(15) 0.3087(2)
H1 H -0.3756 0.6251 0.3651
C4 C -0.6246(4) 0.68880(16) 0.2959(3)
C5 C -0.4823(3) 0.68527(16) 0.2591(2)
C6 C -0.4666(3) 0.71927(15) 0.1745(2)
H2 H -0.5432 0.7455 0.1425
C7 C -0.3248(4) 0.74860(16) 0.0448(2)
C8 C -0.3385(3) 0.71444(15) 0.1373(2)
C9 C -0.2225(3) 0.67661(16) 0.1886(2)
H3 H -0.1357 0.6734 0.1649
C10 C 0.1889(4) 0.48629(16) 0.3302(2)
H4 H 0.2009 0.5309 0.3273
C11 C 0.1993(4) 0.38285(17) 0.2972(3)
H5 H 0.2178 0.3436 0.2690
C12 C 0.1285(4) 0.39182(17) 0.3712(3)
H6 H 0.0896 0.3588 0.4039
C13 C 0.3161(4) 0.45920(16) 0.1937(2)
C14 C 0.4033(4) 0.51399(19) 0.2004(3)
H7 H 0.4140 0.5405 0.2558
C15 C 0.4743(5) 0.52918(19) 0.1250(3)
H8 H 0.5325 0.5662 0.1307
C16 C 0.4624(4) 0.49144(16) 0.0409(2)
C17 C 0.3764(4) 0.43583(16) 0.0377(2)
H9 H 0.3674 0.4086 -0.0168
C18 C 0.3039(4) 0.41954(16) 0.1124(2)
H10 H 0.2473 0.3820 0.1078
C19 C -0.0505(4) 0.82030(19) 0.2384(3)
H11 H -0.0050 0.8157 0.1847
C20 C -0.1117(4) 0.80471(17) 0.3762(3)
H12 H -0.1175 0.7874 0.4374
C21 C -0.1502(4) 0.8655(2) 0.2462(3)
H13 H -0.1855 0.8975 0.2001
C22 C -0.2870(4) 0.89594(18) 0.3801(3)
C23 C -0.3241(5) 0.8780(2) 0.4669(4)
H14 H -0.2923 0.8383 0.4955
C24 C -0.4091(5) 0.9185(2) 0.5125(4)
H15 H -0.4342 0.9052 0.5713
C25 C -0.4574(4) 0.97786(18) 0.4737(3)
C26 C -0.4201(4) 0.99357(19) 0.3848(3)
H16 H -0.4528 1.0328 0.3552
C27 C -0.3374(4) 0.95411(19) 0.3384(3)
H17 H -0.3151 0.9666 0.2785
N1 N 0.1208(3) 0.45706(14) 0.3924(2)
N2 N 0.2396(3) 0.44346(13) 0.2710(2)
N3 N -0.0245(3) 0.78177(13) 0.3200(2)
N4 N -0.1914(3) 0.85588(14) 0.3357(2)
O1 O 0.0219(2) 0.62196(11) 0.31900(16)
O2 O -0.1333(2) 0.56262(11) 0.38839(17)
O3 O -0.6421(2) 0.65368(11) 0.36678(17)
O4 O -0.7237(3) 0.72741(12) 0.25501(18)
O5 O -0.4127(3) 0.79445(11) 0.01412(16)
O6 O -0.2319(3) 0.72971(12) -0.00340(17)
O7 O -0.1734(3) 0.42714(12) 0.4575(2)
H18 H -0.146(3) 0.3893(5) 0.461(3)
H19 H -0.2610(12) 0.4295(14) 0.460(3)
Mn1B Mn -0.14062(5) 0.29392(2) 0.63544(4)
Mn1_2 Mn -0.85938(5) 0.70608(2) 0.36456(4)
Mn1C Mn -0.35938(5) 0.79392(2) -0.13544(4)
Mn1B_2 Mn -1.14062(5) 1.29392(2) 0.63544(4)
Mn1B_3 Mn 0.85938(5) 0.29392(2) 0.63544(4)
Mn1A Mn 0.35938(5) 0.20608(2) 1.13544(4)
Mn2_2 Mn 1.0000 0.5000 -0.5000
C1B C 0.1059(4) 0.39345(16) 0.6682(2)
C2B C 0.2347(3) 0.35603(15) 0.7262(2)
C3B C 0.3660(3) 0.35226(15) 0.6913(2)
H1B H 0.3756 0.3749 0.6349
C4B C 0.6246(4) 0.31120(16) 0.7041(3)
C5B C 0.4823(3) 0.31473(16) 0.7409(2)
C6B C 0.4666(3) 0.28073(15) 0.8255(2)
H2B H 0.5432 0.2545 0.8575
C7B C 0.3248(4) 0.25140(16) 0.9552(2)
C8B C 0.3385(3) 0.28556(15) 0.8627(2)
C9B C 0.2225(3) 0.32339(16) 0.8114(2)
H3B H 0.1357 0.3266 0.8351
C10B C 0.8111(4) 0.51371(16) -0.3302(2)
H4B H 0.7991 0.4691 -0.3273
C11B C 0.8007(4) 0.61715(17) -0.2972(3)
H5B H 0.7822 0.6564 -0.2690
C12B C 0.8715(4) 0.60818(17) -0.3712(3)
H6B H 0.9104 0.6412 -0.4039
C13B C 0.6839(4) 0.54080(16) -0.1937(2)
C14B C 0.5967(4) 0.48601(19) -0.2004(3)
H7B H 0.5860 0.4595 -0.2558
C15B C 0.5257(5) 0.47082(19) -0.1250(3)
H8B H 0.4675 0.4338 -0.1307
C16B C 0.5376(4) 0.50856(16) -0.0409(2)
C17B C 0.6236(4) 0.56417(16) -0.0377(2)
H9B H 0.6326 0.5914 0.0168
C18B C 0.6961(4) 0.58046(16) -0.1124(2)
H10B H 0.7527 0.6180 -0.1078
C19B C -0.9495(4) 1.17970(19) 0.7616(3)
H11B H -0.9950 1.1843 0.8153
C20B C -0.8883(4) 1.19529(17) 0.6238(3)
H12B H -0.8825 1.2126 0.5626
C21B C -0.8498(4) 1.1345(2) 0.7538(3)
H13B H -0.8145 1.1025 0.7999
C22B C -0.7130(4) 1.10406(18) 0.6199(3)
C23B C -0.6759(5) 1.1220(2) 0.5331(4)
H14B H -0.7077 1.1617 0.5045
C24B C -0.5909(5) 1.0815(2) 0.4875(4)
H15B H -0.5658 1.0948 0.4287
C25B C -0.5426(4) 1.02214(18) 0.5263(3)
C26B C -0.5799(4) 1.00643(19) 0.6152(3)
H16B H -0.5472 0.9672 0.6448
C27B C -0.6626(4) 1.04589(19) 0.6616(3)
H17B H -0.6849 1.0334 0.7215
N1B N 0.8792(3) 0.54294(14) -0.3924(2)
N1B_2 N -0.1208(3) 0.54294(14) 0.6076(2)
N2B N 0.7604(3) 0.55654(13) -0.2710(2)
N3B N -0.9755(3) 1.21823(13) 0.6800(2)
N3B_2 N 0.0245(3) 0.21823(13) 0.6800(2)
N4B N -0.8086(3) 1.14412(14) 0.6643(2)
O1B O -0.0219(2) 0.37804(11) 0.68100(16)
O2B O 0.1333(2) 0.43738(11) 0.61161(17)
O3B O 0.6421(2) 0.34632(11) 0.63322(17)
O3_2 O 0.3579(2) 0.65368(11) 0.36678(17)
O3B_2 O -0.3579(2) 0.34632(11) 0.63322(17)
O4B O 0.7237(3) 0.27259(12) 0.74499(18)
O4_2 O 0.2763(3) 0.72741(12) 0.25501(18)
O4B_2 O -0.2763(3) 0.27259(12) 0.74499(18)
O5B O 0.4127(3) 0.20555(11) 0.98588(16)
O5C O 0.0873(3) 0.70555(11) 0.51412(16)
O5A O -0.0873(3) 0.29445(11) 0.48588(16)
O6B O 0.2319(3) 0.27029(12) 1.00340(17)
O6C O 0.2681(3) 0.77029(12) 0.49660(17)
O6A O -0.2681(3) 0.22971(12) 0.50340(17)
O7B O 0.1734(3) 0.57286(12) 0.5425(2)
H18B H 0.146(3) 0.6107(5) 0.539(3)
H19B H 0.2610(12) 0.5705(14) 0.540(3)
O8 O 0.9633(4) 0.9312(2) 0.0202(3)
H20 H 0.941(5) 0.904(2) -0.024(3)
H21 H 1.0457(8) 0.9460(7) 0.021(3)
O9 O 0.1091(8) 0.7688(4) 0.0424(5)
H22 H 0.1518 0.7567 0.0999
H23 H 0.0193 0.7571 0.0328
loop_
_geom_bond_atom_site_label_1
_geom_bond_atom_site_label_2
_geom_bond_site_symmetry_1
_geom_bond_site_symmetry_2
Mn1 N3 1_555 1_555
Mn2 N1 1_555 1_555
C1 C2 1_555 1_555
C2 C3 1_555 1_555
C3 H1 1_555 1_555
C4 C5 1_555 1_555
C5 C3 1_555 1_555
C6 C5 1_555 1_555
H2 C6 1_555 1_555
C7 C8 1_555 1_555
C8 C6 1_555 1_555
C9 C2 1_555 1_555
H3 C9 1_555 1_555
C10 H4 1_555 1_555
C11 H5 1_555 1_555
C12 C11 1_555 1_555
H6 C12 1_555 1_555
C13 C14 1_555 1_555
C14 H7 1_555 1_555
C15 C14 1_555 1_555
H8 C15 1_555 1_555
C16 C15 1_555 1_555
C17 C16 1_555 1_555
H9 C17 1_555 1_555
C18 C13 1_555 1_555
H10 C18 1_555 1_555
C19 H11 1_555 1_555
C20 H12 1_555 1_555
C21 C19 1_555 1_555
H13 C21 1_555 1_555
C22 C23 1_555 1_555
C23 H14 1_555 1_555
C24 C23 1_555 1_555
H15 C24 1_555 1_555
C25 C24 1_555 1_555
C26 C25 1_555 1_555
H16 C26 1_555 1_555
C27 C22 1_555 1_555
H17 C27 1_555 1_555
N1 C10 1_555 1_555
N2 C10 1_555 1_555
N3 C19 1_555 1_555
N4 C20 1_555 1_555
O1 Mn1 1_555 1_555
O2 Mn2 1_555 1_555
O3 C4 1_555 1_555
O4 C4 1_555 1_555
O5 C7 1_555 1_555
O6 C7 1_555 1_555
O7 Mn2 1_555 1_555
H18 O7 1_555 1_555
H19 O7 1_555 1_555
O8 H20 1_555 1_555
H21 O8 1_555 1_555
O9 H22 1_555 1_555
H23 O9 1_555 1_555
Mn1B N3B_2 1_555 1_555
Mn1_2 O3 1_555 1_555
Mn1C O5 1_555 1_555
Mn1B_2 N3B 1_555 1_555
Mn1B_3 O3B 1_555 1_555
Mn1A O5B 1_555 1_555
Mn2_2 N1B 1_555 1_555
C1B C2B 1_555 1_555
C2B C3B 1_555 1_555
C3B H1B 1_555 1_555
C4B C5B 1_555 1_555
C5B C3B 1_555 1_555
C6B C5B 1_555 1_555
H2B C6B 1_555 1_555
C7B C8B 1_555 1_555
C8B C6B 1_555 1_555
C9B C2B 1_555 1_555
H3B C9B 1_555 1_555
C10B H4B 1_555 1_555
C11B H5B 1_555 1_555
C12B C11B 1_555 1_555
H6B C12B 1_555 1_555
C13B C14B 1_555 1_555
C14B H7B 1_555 1_555
C15B C14B 1_555 1_555
H8B C15B 1_555 1_555
C16B C16 1_555 1_555
C17B C16B 1_555 1_555
H9B C17B 1_555 1_555
C18B C13B 1_555 1_555
H10B C18B 1_555 1_555
C19B H11B 1_555 1_555
C20B H12B 1_555 1_555
C21B C19B 1_555 1_555
H13B C21B 1_555 1_555
C22B C23B 1_555 1_555
C23B H14B 1_555 1_555
C24B C23B 1_555 1_555
H15B C24B 1_555 1_555
C25B C25 1_555 1_555
C26B C25B 1_555 1_555
H16B C26B 1_555 1_555
C27B C22B 1_555 1_555
H17B C27B 1_555 1_555
N1B C10B 1_555 1_555
N1B_2 Mn2 1_555 1_555
N2B C10B 1_555 1_555
N3B C19B 1_555 1_555
N4B C20B 1_555 1_555
O1B Mn1B 1_555 1_555
O2B Mn2 1_555 1_555
O3B C4B 1_555 1_555
O3_2 Mn1 1_555 1_555
O3B_2 Mn1B 1_555 1_555
O4B Mn1B_3 1_555 1_555
O4_2 Mn1 1_555 1_555
O4B_2 Mn1B 1_555 1_555
O5B C7B 1_555 1_555
O5C Mn1 1_555 1_555
O5A Mn1B 1_555 1_555
O6B Mn1A 1_555 1_555
O6C Mn1 1_555 1_555
O6A Mn1B 1_555 1_555
O7B Mn2 1_555 1_555
H18B O7B 1_555 1_555
H19B O7B 1_555 1_555
C1 O1 1_555 1_555
C1 O2 1_555 1_555
C8 C9 1_555 1_555
C11 N2 1_555 1_555
C12 N1 1_555 1_555
C13 N2 1_555 1_555
C17 C18 1_555 1_555
C20 N3 1_555 1_555
C21 N4 1_555 1_555
C22 N4 1_555 1_555
C26 C27 1_555 1_555
O4 Mn1_2 1_555 1_555
O6 Mn1C 1_555 1_555
C1B O1B 1_555 1_555
C1B O2B 1_555 1_555
C4B O4B 1_555 1_555
C7B O6B 1_555 1_555
C8B C9B 1_555 1_555
C11B N2B 1_555 1_555
C12B N1B 1_555 1_555
C13B N2B 1_555 1_555
C15B C16B 1_555 1_555
C17B C18B 1_555 1_555
C20B N3B 1_555 1_555
C21B N4B 1_555 1_555
C22B N4B 1_555 1_555
C24B C25B 1_555 1_555
C26B C27B 1_555 1_555

#END
