
#######################################################################
#
#                 Cambridge Crystallographic Data Centre
#                                CCDC 
#
#######################################################################
#
# If this CIF has been generated from an entry in the Cambridge 
# Structural Database, then it will include bibliographic, chemical, 
# crystal, experimental, refinement or atomic coordinate data resulting 
# from the CCDC's data processing and validation procedures.
#
#######################################################################

data_BUDHUE01
_symmetry_cell_setting           monoclinic
_symmetry_space_group_name_H-M   'P 21/n'
_symmetry_Int_Tables_number      14
_space_group_name_Hall           '-P 2yn'
loop_
_symmetry_equiv_pos_site_id
_symmetry_equiv_pos_as_xyz
1 x,y,z
2 1/2-x,1/2+y,1/2-z
3 -x,-y,-z
4 1/2+x,1/2-y,1/2+z
_cell_length_a                   11.1390(12)
_cell_length_b                   11.5866(13)
_cell_length_c                   12.6325(14)
_cell_angle_alpha                90
_cell_angle_beta                 115.432(2)
_cell_angle_gamma                90
_cell_volume                     1472.4
loop_
_atom_site_label
_atom_site_type_symbol
_atom_site_fract_x
_atom_site_fract_y
_atom_site_fract_z
Br1 Br -0.18056(2) 0.76143(2) -0.11231(2)
Br2 Br 0.34249(2) 1.631910(18) 0.103260(19)
Cu1 Cu 0.56886(2) 1.02600(2) 0.11208(2)
O1 O 0.40781(14) 0.98221(13) 0.12844(14)
O2 O 0.29176(14) 0.93567(13) -0.06153(13)
O3 O 0.50043(14) 1.18607(12) 0.07312(13)
O4 O 0.38355(15) 1.13849(12) -0.11639(13)
N1 N 0.08987(19) 0.89646(18) 0.19994(17)
N2 N 0.20137(17) 1.44965(15) -0.20511(15)
C1 C -0.0161(2) 0.8474(2) 0.1151(2)
H1 H -0.0875 0.8233 0.1320
C2 C -0.0258(2) 0.83017(19) 0.00277(19)
C3 C 0.0770(2) 0.86282(17) -0.0242(2)
H2 H 0.0718 0.8518 -0.1006
C4 C 0.1886(2) 0.91256(18) 0.06474(19)
C5 C 0.1900(2) 0.92849(19) 0.17425(19)
H3 H 0.2657 0.9639 0.2340
C6 C 0.30570(19) 0.94647(17) 0.04201(19)
C7 C 0.2262(2) 1.53120(18) -0.12259(18)
H4 H 0.1806 1.6029 -0.1439
C8 C 0.3166(2) 1.51325(17) -0.00737(18)
C9 C 0.3847(2) 1.40961(17) 0.02675(18)
H5 H 0.4470 1.3966 0.1056
C10 C 0.35843(19) 1.32557(17) -0.05880(18)
C11 C 0.26676(19) 1.34926(17) -0.17347(18)
H6 H 0.2500 1.2917 -0.2317
C12 C 0.42049(19) 1.20731(17) -0.03111(18)
Cu1B Cu 0.43114(2) 0.97400(2) -0.11208(2)
Cu1C Cu 0.06886(2) 1.47400(2) -0.38792(2)
O2B O 0.70824(14) 1.06433(13) 0.06153(13)
O4B O 0.61645(15) 0.86151(12) 0.11639(13)
N2C N 0.70137(17) 1.05035(15) 0.29489(15)
loop_
_geom_bond_atom_site_label_1
_geom_bond_atom_site_label_2
_geom_bond_site_symmetry_1
_geom_bond_site_symmetry_2
Br1 C2 1_555 1_555
Br2 C8 1_555 1_555
Cu1 O1 1_555 1_555
O1 C6 1_555 1_555
O2 C6 1_555 1_555
O3 Cu1 1_555 1_555
O4 C12 1_555 1_555
N1 C1 1_555 1_555
N2 C7 1_555 1_555
C1 H1 1_555 1_555
C2 C1 1_555 1_555
C3 C2 1_555 1_555
H2 C3 1_555 1_555
C4 C3 1_555 1_555
C5 N1 1_555 1_555
H3 C5 1_555 1_555
C6 C4 1_555 1_555
C7 H4 1_555 1_555
C8 C7 1_555 1_555
C9 C8 1_555 1_555
H5 C9 1_555 1_555
C10 C9 1_555 1_555
C11 N2 1_555 1_555
H6 C11 1_555 1_555
C12 O3 1_555 1_555
Cu1B O2 1_555 1_555
Cu1C N2 1_555 1_555
O2B Cu1 1_555 1_555
O4B Cu1 1_555 1_555
N2C Cu1 1_555 1_555
O4 Cu1B 1_555 1_555
C4 C5 1_555 1_555
C10 C11 1_555 1_555
C10 C12 1_555 1_555

#END
