
#######################################################################
#
#                 Cambridge Crystallographic Data Centre
#                                CCDC 
#
#######################################################################
#
# If this CIF has been generated from an entry in the Cambridge 
# Structural Database, then it will include bibliographic, chemical, 
# crystal, experimental, refinement or atomic coordinate data resulting 
# from the CCDC's data processing and validation procedures.
#
#######################################################################

data_BUDKOC
_symmetry_cell_setting           monoclinic
_symmetry_space_group_name_H-M   'P 21/n'
_symmetry_Int_Tables_number      14
_space_group_name_Hall           '-P 2yn'
loop_
_symmetry_equiv_pos_site_id
_symmetry_equiv_pos_as_xyz
1 x,y,z
2 1/2-x,1/2+y,1/2-z
3 -x,-y,-z
4 1/2+x,1/2-y,1/2+z
_cell_length_a                   14.751(3)
_cell_length_b                   10.014(2)
_cell_length_c                   16.418(4)
_cell_angle_alpha                90
_cell_angle_beta                 106.13(3)
_cell_angle_gamma                90
_cell_volume                     2329.74
loop_
_atom_site_label
_atom_site_type_symbol
_atom_site_fract_x
_atom_site_fract_y
_atom_site_fract_z
Ag1 Ag 0.373989(18) 0.00080(3) 0.454968(17)
As1 As 0.46537(2) 0.29970(3) 0.44930(2)
P1 P 0.22421(6) 0.00973(9) 0.48273(6)
N1 N 0.1050(2) 0.3627(3) 0.15862(18)
H1 H 0.0589 0.3931 0.1758
H2 H 0.0896 0.2872 0.1337
C1 C 0.3503(2) 0.3171(3) 0.3599(2)
C2 C 0.3391(3) 0.2455(3) 0.2851(2)
H3 H 0.3868 0.1886 0.2793
C3 C 0.2577(3) 0.2585(3) 0.2197(2)
H4 H 0.2506 0.2103 0.1698
C4 C 0.1860(2) 0.3434(3) 0.2279(2)
C5 C 0.1970(2) 0.4132(4) 0.3025(2)
H5 H 0.1492 0.4693 0.3088
C6 C 0.2790(2) 0.3997(3) 0.3679(2)
H6 H 0.2859 0.4472 0.4179
C7 C 0.1304(2) 0.0923(3) 0.4025(2)
C8 C 0.1194(3) 0.0571(4) 0.3185(2)
H7 H 0.1613 -0.0025 0.3048
C9 C 0.0463(3) 0.1106(4) 0.2553(3)
H8 H 0.0371 0.0836 0.1994
C10 C -0.0129(3) 0.2033(5) 0.2745(3)
H9 H -0.0608 0.2411 0.2314
C11 C -0.0018(3) 0.2406(4) 0.3570(3)
H10 H -0.0421 0.3037 0.3698
C12 C 0.0694(3) 0.1842(4) 0.4217(3)
H11 H 0.0761 0.2082 0.4778
C13 C 0.2162(2) 0.0887(3) 0.5805(2)
C14 C 0.1638(3) 0.0357(4) 0.6310(2)
H12 H 0.1359 -0.0478 0.6184
C15 C 0.1529(3) 0.1064(5) 0.7000(3)
H13 H 0.1185 0.0697 0.7341
C16 C 0.1930(3) 0.2315(5) 0.7184(3)
H14 H 0.1844 0.2800 0.7639
C17 C 0.2458(3) 0.2837(4) 0.6689(3)
H15 H 0.2733 0.3675 0.6817
C18 C 0.2587(3) 0.2135(4) 0.6007(2)
H16 H 0.2954 0.2492 0.5683
C19 C 0.1802(2) -0.1601(3) 0.4856(2)
C20 C 0.0901(3) -0.2005(4) 0.4401(3)
H17 H 0.0473 -0.1383 0.4092
C21 C 0.0642(3) -0.3331(4) 0.4408(3)
H18 H 0.0043 -0.3601 0.4097
C22 C 0.1266(3) -0.4254(4) 0.4874(3)
H19 H 0.1086 -0.5144 0.4877
C23 C 0.2147(3) -0.3865(4) 0.5330(3)
H20 H 0.2563 -0.4487 0.5653
C24 C 0.2423(3) -0.2552(4) 0.5314(2)
H21 H 0.3031 -0.2301 0.5613
O1 O 0.50011(16) 0.1400(2) 0.44945(15)
O2 O 0.45402(19) 0.3537(2) 0.54106(15)
O3 O 0.55121(16) 0.3912(2) 0.42135(16)
H22 H 0.5471 0.4699 0.4338
Ag1A Ag 0.126011(18) 0.50080(3) 0.045032(17)
Ag1B Ag 0.626011(18) -0.00080(3) 0.545032(17)
N1A N 0.3950(2) -0.1373(3) 0.34138(18)
O1B O 0.49989(16) -0.1400(2) 0.55055(15)
O4 O 0.5529(2) 0.0356(3) 0.3137(2)
H23 H 0.5494 0.0759 0.3562
H24 H 0.5954 0.0495 0.2915
loop_
_geom_bond_atom_site_label_1
_geom_bond_atom_site_label_2
_geom_bond_site_symmetry_1
_geom_bond_site_symmetry_2
Ag1 P1 1_555 1_555
As1 C1 1_555 1_555
P1 C7 1_555 1_555
N1 H1 1_555 1_555
H2 N1 1_555 1_555
C1 C2 1_555 1_555
C2 H3 1_555 1_555
C3 C2 1_555 1_555
H4 C3 1_555 1_555
C4 N1 1_555 1_555
C5 C4 1_555 1_555
H5 C5 1_555 1_555
C6 C1 1_555 1_555
H6 C6 1_555 1_555
C7 C8 1_555 1_555
C8 H7 1_555 1_555
C9 C8 1_555 1_555
H8 C9 1_555 1_555
C10 C9 1_555 1_555
H9 C10 1_555 1_555
C11 C10 1_555 1_555
H10 C11 1_555 1_555
C12 C7 1_555 1_555
H11 C12 1_555 1_555
C13 P1 1_555 1_555
C14 C13 1_555 1_555
H12 C14 1_555 1_555
C15 C14 1_555 1_555
H13 C15 1_555 1_555
C16 C15 1_555 1_555
H14 C16 1_555 1_555
C17 C16 1_555 1_555
H15 C17 1_555 1_555
C18 C13 1_555 1_555
H16 C18 1_555 1_555
C19 P1 1_555 1_555
C20 C19 1_555 1_555
H17 C20 1_555 1_555
C21 C20 1_555 1_555
H18 C21 1_555 1_555
C22 C21 1_555 1_555
H19 C22 1_555 1_555
C23 C22 1_555 1_555
H20 C23 1_555 1_555
C24 C19 1_555 1_555
H21 C24 1_555 1_555
O1 Ag1 1_555 1_555
O2 As1 1_555 1_555
O3 As1 1_555 1_555
H22 O3 1_555 1_555
O4 H23 1_555 1_555
H24 O4 1_555 1_555
Ag1A N1 1_555 1_555
Ag1B O1 1_555 1_555
N1A Ag1 1_555 1_555
O1B Ag1 1_555 1_555
As1 O1 1_555 1_555
C3 C4 1_555 1_555
C5 C6 1_555 1_555
C11 C12 1_555 1_555
C17 C18 1_555 1_555
C23 C24 1_555 1_555
Ag1B O1B 1_555 1_555

#END
