
#######################################################################
#
#                 Cambridge Crystallographic Data Centre
#                                CCDC 
#
#######################################################################
#
# If this CIF has been generated from an entry in the Cambridge 
# Structural Database, then it will include bibliographic, chemical, 
# crystal, experimental, refinement or atomic coordinate data resulting 
# from the CCDC's data processing and validation procedures.
#
#######################################################################

data_BUDSCU
_symmetry_cell_setting           monoclinic
_symmetry_space_group_name_H-M   'P 21/c'
_symmetry_Int_Tables_number      14
_space_group_name_Hall           '-P 2ybc'
loop_
_symmetry_equiv_pos_site_id
_symmetry_equiv_pos_as_xyz
1 x,y,z
2 -x,1/2+y,1/2-z
3 -x,-y,-z
4 x,1/2-y,1/2+z
_cell_length_a                   6.2125(8)
_cell_length_b                   9.081(2)
_cell_length_c                   11.324(3)
_cell_angle_alpha                90
_cell_angle_beta                 108.65(1)
_cell_angle_gamma                90
_cell_volume                     605.305
loop_
_atom_site_label
_atom_site_type_symbol
_atom_site_fract_x
_atom_site_fract_y
_atom_site_fract_z
C1 C 0.04460 0.45200 0.05760
Cu1 Cu 0.00000 0.00000 0.00000
S1 S 0.39042 0.27158 0.19541
O1 O 0.24370 0.14420 0.16120
O2 O 0.38170 0.33800 0.31120
O3 O 0.62580 0.24020 0.20280
C2 C 0.29020 0.40610 0.07800
O4 O 0.27490 -0.08790 -0.01700
O5 O 0.00040 0.14590 -0.12590
H1 H 0.38800 0.48300 0.10300
H2 H 0.30600 0.36300 0.00400
H3 H -0.05700 0.36800 0.05400
H4 H 0.03400 0.50900 0.12800
H5 H 0.38800 -0.10600 0.04700
H6 H 0.30000 -0.13600 -0.07300
H7 H -0.11700 0.17300 -0.17800
H8 H 0.09000 0.14800 -0.14800
C1B C -0.04460 0.54800 -0.05760
C2B C -0.29020 0.59390 -0.07800
S1B S -0.39042 0.72842 -0.19541
O1B O -0.24370 0.85580 -0.16120
O2B O -0.38170 0.66200 -0.31120
O3B O -0.62580 0.75980 -0.20280
H1B H -0.38800 0.51700 -0.10300
H2B H -0.30600 0.63700 -0.00400
H3B H 0.05700 0.63200 -0.05400
H4B H -0.03400 0.49100 -0.12800
O4B O -0.27490 0.08790 0.01700
H5B H -0.38800 0.10600 -0.04700
H6B H -0.30000 0.13600 0.07300
O5B O -0.00040 -0.14590 0.12590
H7B H 0.11700 -0.17300 0.17800
H8B H -0.09000 -0.14800 0.14800
O1B_2 O -0.24370 -0.14420 -0.16120
Cu1_2 Cu 0.00000 1.00000 0.00000
loop_
_geom_bond_atom_site_label_1
_geom_bond_atom_site_label_2
_geom_bond_site_symmetry_1
_geom_bond_site_symmetry_2
C1 C2 1_555 1_555
Cu1 O1 1_555 1_555
S1 O1 1_555 1_555
O2 S1 1_555 1_555
O3 S1 1_555 1_555
C2 S1 1_555 1_555
O4 Cu1 1_555 1_555
O5 Cu1 1_555 1_555
H1 C2 1_555 1_555
H2 C2 1_555 1_555
H3 C1 1_555 1_555
H4 C1 1_555 1_555
H5 O4 1_555 1_555
H6 O4 1_555 1_555
H7 O5 1_555 1_555
H8 O5 1_555 1_555
C1B C1 1_555 1_555
C2B C1B 1_555 1_555
S1B C2B 1_555 1_555
O1B S1B 1_555 1_555
O2B S1B 1_555 1_555
O3B S1B 1_555 1_555
H1B C2B 1_555 1_555
H2B C2B 1_555 1_555
H3B C1B 1_555 1_555
H4B C1B 1_555 1_555
O4B Cu1 1_555 1_555
H5B O4B 1_555 1_555
H6B O4B 1_555 1_555
O5B Cu1 1_555 1_555
H7B O5B 1_555 1_555
H8B O5B 1_555 1_555
O1B_2 Cu1 1_555 1_555
Cu1_2 O1B 1_555 1_555

#END
