
#######################################################################
#
#                 Cambridge Crystallographic Data Centre
#                                CCDC 
#
#######################################################################
#
# If this CIF has been generated from an entry in the Cambridge 
# Structural Database, then it will include bibliographic, chemical, 
# crystal, experimental, refinement or atomic coordinate data resulting 
# from the CCDC's data processing and validation procedures.
#
#######################################################################

data_BUDZIL
_symmetry_cell_setting           monoclinic
_symmetry_space_group_name_H-M   'C 2/c'
_symmetry_Int_Tables_number      15
_space_group_name_Hall           '-C 2yn'
loop_
_symmetry_equiv_pos_site_id
_symmetry_equiv_pos_as_xyz
1 x,y,z
2 1/2+x,1/2+y,z
3 -x,y,1/2-z
4 1/2-x,1/2+y,1/2-z
5 -x,-y,-z
6 1/2-x,1/2-y,-z
7 x,-y,1/2+z
8 1/2+x,1/2-y,1/2+z
_cell_length_a                   27.520(4)
_cell_length_b                   13.138(2)
_cell_length_c                   20.983(3)
_cell_angle_alpha                90
_cell_angle_beta                 117.788(8)
_cell_angle_gamma                90
_cell_volume                     6711.67
loop_
_atom_site_label
_atom_site_type_symbol
_atom_site_fract_x
_atom_site_fract_y
_atom_site_fract_z
Cd1 Cd 0.237185(16) 0.20615(3) 0.13398(3)
O1 O 0.1914(2) 0.0664(4) 0.0571(3)
N1 N 0.2181(2) 0.0676(5) 0.0209(4)
O2 O 0.2577(2) 0.1318(5) 0.0421(3)
O3 O 0.2084(3) 0.0076(5) -0.0277(3)
O4 O 0.2286(2) 0.2812(4) 0.2385(3)
N2 N 0.1917(3) 0.2169(4) 0.2314(4)
O5 O 0.17587(19) 0.1550(4) 0.1794(3)
O6 O 0.1708(3) 0.2162(4) 0.2720(4)
N3 N 0.3035(2) 0.1050(4) 0.2227(3)
C1 C 0.3397(3) 0.1470(5) 0.2850(4)
C2 C 0.3863(2) 0.0982(5) 0.3337(3)
C3 C 0.3978(2) -0.0005(5) 0.3186(3)
C4 C 0.4499(2) -0.0505(5) 0.3684(3)
N4 N 0.49186(19) 0.0101(4) 0.4082(3)
C5 C 0.5399(2) -0.0326(5) 0.4518(3)
C6 C 0.5469(2) -0.1377(5) 0.4599(3)
C7 C 0.5032(2) -0.2025(5) 0.4192(3)
C8 C 0.4540(2) -0.1569(5) 0.3715(3)
C9 C 0.5080(2) -0.3141(5) 0.4238(3)
C10 C 0.4622(2) -0.3747(5) 0.4057(3)
C11 C 0.4648(2) -0.4805(5) 0.4043(3)
C12 C 0.5142(3) -0.5271(5) 0.4203(3)
O7 O 0.52044(19) -0.6295(3) 0.4169(2)
C13 C 0.4713(3) -0.6878(5) 0.3838(4)
C14 C 0.5616(2) -0.4690(5) 0.4430(3)
C15 C 0.5587(2) -0.3638(5) 0.4446(3)
C16 C 0.3590(2) -0.0443(5) 0.2558(3)
C17 C 0.3125(2) 0.0082(5) 0.2101(4)
N5 N 0.3086(2) 0.3202(4) 0.1603(3)
C18 C 0.3475(3) 0.2956(5) 0.1415(4)
C19 C 0.3950(3) 0.3525(5) 0.1635(4)
C20 C 0.4024(2) 0.4393(5) 0.2048(3)
C21 C 0.4530(2) 0.5003(5) 0.2290(3)
N6 N 0.5000 0.4466(5) 0.2500
C22 C 0.4517(3) 0.6051(5) 0.2306(3)
C23 C 0.3606(2) 0.4666(5) 0.2208(4)
C24 C 0.3158(2) 0.4041(5) 0.1996(4)
C25 C 0.5863(2) 0.0396(5) 0.4903(3)
C26 C 0.6413(3) 0.0094(5) 0.5210(4)
C27 C 0.6812(3) 0.0811(6) 0.5530(5)
N7 N 0.6712(2) 0.1797(4) 0.5604(3)
C28 C 0.6192(2) 0.2084(5) 0.5289(3)
C29 C 0.5760(2) 0.1412(5) 0.4943(3)
C30 C 0.5000 0.6619(8) 0.2500
C31 C 0.5457(3) 0.8279(6) 0.2972(4)
C32 C 0.5451(4) 0.9329(8) 0.2969(5)
C33 C 0.5000 0.9848(8) 0.2500
O8 O 0.5000 1.0949(8) 0.2500
C34 C 0.4493(5) 1.1403(13) 0.1986(10)
C35 C 0.5000 0.7719(8) 0.2500
H1 H 0.3328 0.2140 0.2960
H2 H 0.4107 0.1309 0.3775
H3 H 0.5814 -0.1652 0.4932
H4 H 0.4233 -0.1975 0.3412
H5 H 0.4280 -0.3431 0.3940
H6 H 0.4329 -0.5204 0.3924
H7 H 0.4803 -0.7577 0.3842
H8 H 0.4509 -0.6787 0.4095
H9 H 0.4499 -0.6658 0.3354
H10 H 0.5960 -0.5015 0.4575
H11 H 0.5912 -0.3246 0.4597
H12 H 0.3644 -0.1117 0.2440
H13 H 0.2858 -0.0251 0.1681
H14 H 0.3423 0.2374 0.1121
H15 H 0.4223 0.3322 0.1505
H16 H 0.4181 0.6392 0.2185
H17 H 0.3630 0.5278 0.2462
H18 H 0.2886 0.4215 0.2135
H19 H 0.6507 -0.0599 0.5195
H20 H 0.7184 0.0604 0.5712
H21 H 0.6110 0.2785 0.5301
H22 H 0.5392 0.1652 0.4733
H23 H 0.5779 0.7932 0.3303
H24 H 0.5766 0.9693 0.3299
H25 H 0.4525 1.2123 0.2019
H26 H 0.4414 1.1193 0.1515
H27 H 0.4204 1.1193 0.2085
N5B N 0.6914(2) 0.3202(4) 0.3397(3)
C18B C 0.6525(3) 0.2956(5) 0.3585(4)
C19B C 0.6050(3) 0.3525(5) 0.3365(4)
C20B C 0.5976(2) 0.4393(5) 0.2952(3)
C21B C 0.5470(2) 0.5003(5) 0.2710(3)
C22B C 0.5483(3) 0.6051(5) 0.2694(3)
C23B C 0.6394(2) 0.4666(5) 0.2792(4)
C24B C 0.6842(2) 0.4041(5) 0.3004(4)
C31B C 0.4543(3) 0.8279(6) 0.2028(4)
C32B C 0.4549(4) 0.9329(8) 0.2031(5)
C34B C 0.5507(5) 1.1403(13) 0.3014(10)
H14B H 0.6577 0.2374 0.3879
H15B H 0.5777 0.3322 0.3495
H16B H 0.5819 0.6392 0.2815
H17B H 0.6370 0.5278 0.2538
H18B H 0.7114 0.4215 0.2865
H23B H 0.4221 0.7932 0.1697
H24B H 0.4234 0.9693 0.1701
H25B H 0.5475 1.2123 0.2981
H26B H 0.5586 1.1193 0.3485
H27B H 0.5796 1.1193 0.2915
Cd1B Cd 0.762815(16) 0.20615(3) 0.36602(3)
O1B O 0.8086(2) 0.0664(4) 0.4429(3)
N1B N 0.7819(2) 0.0676(5) 0.4791(4)
O2B O 0.7423(2) 0.1318(5) 0.4579(3)
O3B O 0.7916(3) 0.0076(5) 0.5277(3)
O4B O 0.7714(2) 0.2812(4) 0.2615(3)
N2B N 0.8083(3) 0.2169(4) 0.2686(4)
O5B O 0.82413(19) 0.1550(4) 0.3206(3)
O6B O 0.8292(3) 0.2162(4) 0.2280(4)
N3B N 0.6965(2) 0.1050(4) 0.2773(3)
C1B C 0.6603(3) 0.1470(5) 0.2150(4)
C2B C 0.6137(2) 0.0982(5) 0.1663(3)
C3B C 0.6022(2) -0.0005(5) 0.1814(3)
C4B C 0.5501(2) -0.0505(5) 0.1316(3)
N4B N 0.50814(19) 0.0101(4) 0.0918(3)
C5B C 0.4601(2) -0.0326(5) 0.0482(3)
C6B C 0.4531(2) -0.1377(5) 0.0401(3)
C7B C 0.4968(2) -0.2025(5) 0.0808(3)
C8B C 0.5460(2) -0.1569(5) 0.1285(3)
C9B C 0.4920(2) -0.3141(5) 0.0762(3)
C10B C 0.5378(2) -0.3747(5) 0.0943(3)
C11B C 0.5352(2) -0.4805(5) 0.0957(3)
C12B C 0.4858(3) -0.5271(5) 0.0797(3)
O7B O 0.47956(19) -0.6295(3) 0.0831(2)
C13B C 0.5287(3) -0.6878(5) 0.1162(4)
C14B C 0.4384(2) -0.4690(5) 0.0570(3)
C15B C 0.4413(2) -0.3638(5) 0.0554(3)
C16B C 0.6410(2) -0.0443(5) 0.2442(3)
C17B C 0.6875(2) 0.0082(5) 0.2899(4)
C25B C 0.4137(2) 0.0396(5) 0.0097(3)
C26B C 0.3587(3) 0.0094(5) -0.0210(4)
C27B C 0.3188(3) 0.0811(6) -0.0530(5)
N7B N 0.3288(2) 0.1797(4) -0.0604(3)
C28B C 0.3808(2) 0.2084(5) -0.0289(3)
C29B C 0.4240(2) 0.1412(5) 0.0057(3)
H1B H 0.6672 0.2140 0.2040
H2B H 0.5893 0.1309 0.1225
H3B H 0.4186 -0.1652 0.0068
H4B H 0.5767 -0.1975 0.1588
H5B H 0.5720 -0.3431 0.1060
H6B H 0.5671 -0.5204 0.1076
H7B H 0.5197 -0.7577 0.1158
H8B H 0.5491 -0.6787 0.0905
H9B H 0.5501 -0.6658 0.1646
H10B H 0.4040 -0.5015 0.0425
H11B H 0.4088 -0.3246 0.0403
H12B H 0.6356 -0.1117 0.2560
H13B H 0.7142 -0.0251 0.3319
H19B H 0.3493 -0.0599 -0.0195
H20B H 0.2816 0.0604 -0.0712
H21B H 0.3890 0.2785 -0.0301
H22B H 0.4608 0.1652 0.0267
Cd1E Cd 0.262815(16) 0.29385(3) -0.13398(3)
Cd1G Cd 0.737185(16) 0.29385(3) 0.63398(3)
N7E N 0.8288(2) 0.3203(4) 0.4396(3)
N7G N 0.1712(2) 0.3203(4) 0.0604(3)
loop_
_geom_bond_atom_site_label_1
_geom_bond_atom_site_label_2
_geom_bond_site_symmetry_1
_geom_bond_site_symmetry_2
Cd1 O1 1_555 1_555
O1 N1 1_555 1_555
N1 O2 1_555 1_555
O2 Cd1 1_555 1_555
O3 N1 1_555 1_555
O4 Cd1 1_555 1_555
N2 O4 1_555 1_555
O5 Cd1 1_555 1_555
O6 N2 1_555 1_555
N3 Cd1 1_555 1_555
C1 N3 1_555 1_555
C2 C1 1_555 1_555
C3 C2 1_555 1_555
C4 C3 1_555 1_555
N4 C4 1_555 1_555
C5 N4 1_555 1_555
C6 C5 1_555 1_555
C7 C6 1_555 1_555
C8 C4 1_555 1_555
C9 C7 1_555 1_555
C10 C9 1_555 1_555
C11 C10 1_555 1_555
C12 C11 1_555 1_555
O7 C12 1_555 1_555
C13 O7 1_555 1_555
C14 C12 1_555 1_555
C15 C9 1_555 1_555
C16 C3 1_555 1_555
C17 N3 1_555 1_555
N5 Cd1 1_555 1_555
C18 N5 1_555 1_555
C19 C18 1_555 1_555
C20 C19 1_555 1_555
C21 C20 1_555 1_555
N6 C21 1_555 1_555
C22 C21 1_555 1_555
C23 C20 1_555 1_555
C24 N5 1_555 1_555
C25 C5 1_555 1_555
C26 C25 1_555 1_555
C27 C26 1_555 1_555
N7 C27 1_555 1_555
C28 N7 1_555 1_555
C29 C25 1_555 1_555
C30 C22 1_555 1_555
C31 C32 1_555 1_555
C32 C33 1_555 1_555
C33 O8 1_555 1_555
O8 C34 1_555 1_555
C34 H25 1_555 1_555
C35 C30 1_555 1_555
H1 C1 1_555 1_555
H2 C2 1_555 1_555
H3 C6 1_555 1_555
H4 C8 1_555 1_555
H5 C10 1_555 1_555
H6 C11 1_555 1_555
H7 C13 1_555 1_555
H8 C13 1_555 1_555
H9 C13 1_555 1_555
H10 C14 1_555 1_555
H11 C15 1_555 1_555
H12 C16 1_555 1_555
H13 C17 1_555 1_555
H14 C18 1_555 1_555
H15 C19 1_555 1_555
H16 C22 1_555 1_555
H17 C23 1_555 1_555
H18 C24 1_555 1_555
H19 C26 1_555 1_555
H20 C27 1_555 1_555
H21 C28 1_555 1_555
H22 C29 1_555 1_555
H23 C31 1_555 1_555
H24 C32 1_555 1_555
H26 C34 1_555 1_555
H27 C34 1_555 1_555
N5B C18B 1_555 1_555
C18B C19B 1_555 1_555
C19B C20B 1_555 1_555
C20B C21B 1_555 1_555
C21B N6 1_555 1_555
C22B C30 1_555 1_555
C23B C20B 1_555 1_555
C24B N5B 1_555 1_555
C31B C35 1_555 1_555
C32B C33 1_555 1_555
C34B O8 1_555 1_555
H14B C18B 1_555 1_555
H15B C19B 1_555 1_555
H16B C22B 1_555 1_555
H17B C23B 1_555 1_555
H18B C24B 1_555 1_555
H23B C31B 1_555 1_555
H24B C32B 1_555 1_555
H25B C34B 1_555 1_555
H26B C34B 1_555 1_555
H27B C34B 1_555 1_555
Cd1B N5B 1_555 1_555
O1B Cd1B 1_555 1_555
N1B O1B 1_555 1_555
O2B Cd1B 1_555 1_555
O3B N1B 1_555 1_555
O4B Cd1B 1_555 1_555
N2B O4B 1_555 1_555
O5B Cd1B 1_555 1_555
O6B N2B 1_555 1_555
N3B Cd1B 1_555 1_555
C1B N3B 1_555 1_555
C2B C1B 1_555 1_555
C3B C2B 1_555 1_555
C4B C3B 1_555 1_555
N4B C4B 1_555 1_555
C5B N4B 1_555 1_555
C6B C5B 1_555 1_555
C7B C6B 1_555 1_555
C8B C4B 1_555 1_555
C9B C7B 1_555 1_555
C10B C9B 1_555 1_555
C11B C10B 1_555 1_555
C12B C11B 1_555 1_555
O7B C12B 1_555 1_555
C13B O7B 1_555 1_555
C14B C12B 1_555 1_555
C15B C9B 1_555 1_555
C16B C3B 1_555 1_555
C17B N3B 1_555 1_555
C25B C5B 1_555 1_555
C26B C25B 1_555 1_555
C27B C26B 1_555 1_555
N7B C27B 1_555 1_555
C28B N7B 1_555 1_555
C29B C25B 1_555 1_555
H1B C1B 1_555 1_555
H2B C2B 1_555 1_555
H3B C6B 1_555 1_555
H4B C8B 1_555 1_555
H5B C10B 1_555 1_555
H6B C11B 1_555 1_555
H7B C13B 1_555 1_555
H8B C13B 1_555 1_555
H9B C13B 1_555 1_555
H10B C14B 1_555 1_555
H11B C15B 1_555 1_555
H12B C16B 1_555 1_555
H13B C17B 1_555 1_555
H19B C26B 1_555 1_555
H20B C27B 1_555 1_555
H21B C28B 1_555 1_555
H22B C29B 1_555 1_555
Cd1E N7B 1_555 1_555
Cd1G N7 1_555 1_555
N7E Cd1B 1_555 1_555
N7G Cd1 1_555 1_555
N2 O5 1_555 1_555
C7 C8 1_555 1_555
C14 C15 1_555 1_555
C16 C17 1_555 1_555
C23 C24 1_555 1_555
C28 C29 1_555 1_555
C31 C35 1_555 1_555
C21B C22B 1_555 1_555
C23B C24B 1_555 1_555
C31B C32B 1_555 1_555
N1B O2B 1_555 1_555
N2B O5B 1_555 1_555
C7B C8B 1_555 1_555
C14B C15B 1_555 1_555
C16B C17B 1_555 1_555
C28B C29B 1_555 1_555

#END
