
#######################################################################
#
#                 Cambridge Crystallographic Data Centre
#                                CCDC 
#
#######################################################################
#
# If this CIF has been generated from an entry in the Cambridge 
# Structural Database, then it will include bibliographic, chemical, 
# crystal, experimental, refinement or atomic coordinate data resulting 
# from the CCDC's data processing and validation procedures.
#
#######################################################################

data_BUFREA
_symmetry_cell_setting           monoclinic
_symmetry_space_group_name_H-M   'C c'
_symmetry_Int_Tables_number      9
_space_group_name_Hall           'C -2yc'
loop_
_symmetry_equiv_pos_site_id
_symmetry_equiv_pos_as_xyz
1 x,y,z
2 x,-y,1/2+z
3 1/2+x,1/2+y,z
4 1/2+x,1/2-y,1/2+z
_cell_length_a                   9.7292(3)
_cell_length_b                   16.9366(5)
_cell_length_c                   15.4101(5)
_cell_angle_alpha                90
_cell_angle_beta                 100.521(2)
_cell_angle_gamma                90
_cell_volume                     2496.58
loop_
_atom_site_label
_atom_site_type_symbol
_atom_site_fract_x
_atom_site_fract_y
_atom_site_fract_z
Co1 Co 0.23053(2) 0.901802(14) 0.542876(19)
S1 S -0.46154(5) 0.67118(3) 0.19439(3)
S2 S -0.10730(5) 0.96309(3) 0.45581(3)
O1 O 0.01023(16) 0.91252(9) 0.49412(12)
O2 O -0.54093(16) 0.60649(8) 0.22370(11)
O3 O -0.21071(16) 0.97189(9) 0.51267(11)
O4 O -0.06206(16) 1.03925(8) 0.42611(11)
O5 O -0.54730(16) 0.72355(8) 0.13181(11)
O6 O -0.33417(15) 0.64294(9) 0.16488(11)
N1 N 0.22809(18) 1.01782(11) 0.59535(13)
N2 N 0.2977(2) 0.94645(11) 0.42720(14)
N3 N 0.43869(19) 0.88157(11) 0.61384(14)
N4 N 0.21100(19) 0.78477(10) 0.49689(13)
N5 N 0.2917(2) 1.13867(11) 0.63946(14)
N6 N 0.3051(2) 1.02509(12) 0.31355(14)
N7 N 0.6667(2) 0.88831(12) 0.65880(15)
N8 N 0.2684(2) 0.66250(12) 0.46740(15)
C1 C -0.2316(2) 0.90456(12) 0.19928(16)
C2 C -0.3943(2) 0.72796(11) 0.28992(15)
C3 C -0.1874(2) 0.91255(11) 0.35873(15)
C4 C -0.3469(2) 0.73531(12) 0.44812(15)
C5 C -0.2718(2) 0.80380(12) 0.44618(14)
C6 C 0.0914(2) 0.74250(14) 0.46433(16)
C7 C -0.2599(2) 0.83899(11) 0.36377(14)
C8 C -0.3190(2) 0.80017(11) 0.28350(14)
C9 C 0.5581(2) 0.91257(14) 0.59928(17)
C10 C -0.3020(2) 0.83399(12) 0.20144(15)
C11 C -0.4102(2) 0.69808(12) 0.36983(15)
C12 C 0.3155(3) 0.73379(14) 0.49822(18)
C13 C 0.2374(2) 1.00582(13) 0.37913(16)
C14 C 0.3240(2) 1.07316(14) 0.59777(16)
C15 C 0.4765(2) 0.83534(14) 0.68846(17)
C16 C -0.1748(2) 0.94367(12) 0.27872(15)
C17 C 0.4172(3) 0.97377(15) 0.31929(17)
C18 C 0.6180(3) 0.83906(15) 0.71664(18)
C19 C 0.1260(3) 0.66700(14) 0.44591(18)
C20 C 0.1272(2) 1.05002(13) 0.63772(17)
C21 C 0.4107(3) 0.92573(15) 0.38806(17)
C22 C 0.1662(3) 1.12452(14) 0.66523(17)
H1 H 0.349(5) 1.186(2) 0.647(3)
H2 H 0.278(5) 1.061(3) 0.268(3)
H3 H 0.745(6) 0.900(2) 0.658(4)
H4 H 0.334(5) 0.622(2) 0.458(3)
H5 H -0.213(5) 0.926(2) 0.142(3)
H6 H -0.355(5) 0.711(2) 0.503(3)
H7 H -0.242(5) 0.829(2) 0.499(3)
H8 H 0.007(5) 0.767(3) 0.463(3)
H9 H 0.565(5) 0.952(3) 0.560(3)
H10 H -0.336(5) 0.809(2) 0.148(3)
H11 H -0.462(5) 0.643(2) 0.374(3)
H12 H 0.390(5) 0.746(3) 0.513(3)
H13 H 0.167(5) 1.037(2) 0.389(3)
H14 H 0.396(5) 1.070(2) 0.572(3)
H15 H 0.404(5) 0.809(2) 0.706(3)
H16 H -0.121(5) 1.001(2) 0.279(3)
H17 H 0.484(5) 0.979(2) 0.284(3)
H18 H 0.678(5) 0.817(2) 0.761(3)
H19 H 0.070(5) 0.622(2) 0.418(3)
H20 H 0.038(5) 1.024(2) 0.642(3)
H21 H 0.468(5) 0.890(2) 0.409(3)
H22 H 0.128(5) 1.165(2) 0.700(3)
Co1C Co -0.26947(2) 0.598198(14) 0.042876(19)
O6C O 0.16583(15) 0.85706(9) 0.66488(11)
loop_
_geom_bond_atom_site_label_1
_geom_bond_atom_site_label_2
_geom_bond_site_symmetry_1
_geom_bond_site_symmetry_2
Co1 O1 1_555 1_555
S1 O2 1_555 1_555
S2 O1 1_555 1_555
O3 S2 1_555 1_555
O4 S2 1_555 1_555
O5 S1 1_555 1_555
O6 S1 1_555 1_555
N1 Co1 1_555 1_555
N2 Co1 1_555 1_555
N3 Co1 1_555 1_555
N4 Co1 1_555 1_555
N5 C14 1_555 1_555
N6 C13 1_555 1_555
N7 C9 1_555 1_555
N8 C12 1_555 1_555
C1 C10 1_555 1_555
C2 S1 1_555 1_555
C3 S2 1_555 1_555
C4 C5 1_555 1_555
C5 C7 1_555 1_555
C6 N4 1_555 1_555
C7 C3 1_555 1_555
C8 C2 1_555 1_555
C9 N3 1_555 1_555
C10 C8 1_555 1_555
C11 C2 1_555 1_555
C12 N4 1_555 1_555
C13 N2 1_555 1_555
C14 N1 1_555 1_555
C15 N3 1_555 1_555
C16 C1 1_555 1_555
C17 N6 1_555 1_555
C18 N7 1_555 1_555
C19 N8 1_555 1_555
C20 N1 1_555 1_555
C21 N2 1_555 1_555
C22 N5 1_555 1_555
H1 N5 1_555 1_555
H2 N6 1_555 1_555
H3 N7 1_555 1_555
H4 N8 1_555 1_555
H5 C1 1_555 1_555
H6 C4 1_555 1_555
H7 C5 1_555 1_555
H8 C6 1_555 1_555
H9 C9 1_555 1_555
H10 C10 1_555 1_555
H11 C11 1_555 1_555
H12 C12 1_555 1_555
H13 C13 1_555 1_555
H14 C14 1_555 1_555
H15 C15 1_555 1_555
H16 C16 1_555 1_555
H17 C17 1_555 1_555
H18 C18 1_555 1_555
H19 C19 1_555 1_555
H20 C20 1_555 1_555
H21 C21 1_555 1_555
H22 C22 1_555 1_555
Co1C O6 1_555 1_555
O6C Co1 1_555 1_555
C3 C16 1_555 1_555
C4 C11 1_555 1_555
C6 C19 1_555 1_555
C7 C8 1_555 1_555
C15 C18 1_555 1_555
C17 C21 1_555 1_555
C20 C22 1_555 1_555

#END
