
#######################################################################
#
#                 Cambridge Crystallographic Data Centre
#                                CCDC 
#
#######################################################################
#
# If this CIF has been generated from an entry in the Cambridge 
# Structural Database, then it will include bibliographic, chemical, 
# crystal, experimental, refinement or atomic coordinate data resulting 
# from the CCDC's data processing and validation procedures.
#
#######################################################################

data_BUGCAI
_symmetry_cell_setting           triclinic
_symmetry_space_group_name_H-M   'P -1'
_symmetry_Int_Tables_number      2
_space_group_name_Hall           '-P 1'
loop_
_symmetry_equiv_pos_site_id
_symmetry_equiv_pos_as_xyz
1 x,y,z
2 -x,-y,-z
_cell_length_a                   8.1545(4)
_cell_length_b                   11.4606(9)
_cell_length_c                   11.4697(6)
_cell_angle_alpha                114.593(3)
_cell_angle_beta                 102.453(2)
_cell_angle_gamma                103.841(3)
_cell_volume                     884.004
loop_
_atom_site_label
_atom_site_type_symbol
_atom_site_fract_x
_atom_site_fract_y
_atom_site_fract_z
Cu1 Cu 0.0000 0.5000 0.0000
O1 O 0.0669(4) 0.6768(3) 0.1690(2)
H1 H 0.014(9) 0.684(6) 0.212(6)
H2 H 0.158(11) 0.717(8) 0.200(8)
O2 O 0.2574(3) 0.5342(3) 0.0404(2)
H3 H 0.284(7) 0.522(5) -0.039(5)
H4 H 0.27(2) 0.480(12) 0.067(12)
Cu2 Cu 0.5000 1.0000 1.0000
O3 O 0.2845(3) 1.0456(3) 1.0025(3)
H5 H 0.172(8) 0.966(6) 0.948(6)
H6 H 0.319(14) 1.143(11) 1.048(11)
O4 O 0.3903(4) 0.8255(4) 0.9985(3)
H7 H 0.416(10) 0.826(7) 1.060(8)
H8 H 0.287(9) 0.786(6) 0.969(6)
Cu3 Cu 0.0000 0.0000 0.5000
O5 O 0.2137(4) -0.0030(3) 0.4519(4)
H9 H 0.268(7) -0.054(5) 0.472(5)
H10 H 0.230(8) 0.034(7) 0.415(6)
O6 O -0.1072(4) 0.0020(3) 0.3290(4)
H11 H -0.179(9) 0.038(7) 0.322(6)
H12 H -0.068(11) -0.047(9) 0.269(9)
S1 S 0.09984(9) 0.32290(7) 0.17763(6)
O7 O -0.0335(3) 0.3728(2) 0.1268(2)
O8 O 0.2562(3) 0.3500(3) 0.1370(2)
O9 O 0.0212(3) 0.1799(2) 0.1438(2)
C1 C 0.1835(3) 0.4229(3) 0.3590(2)
C2 C 0.2541(4) 0.5674(3) 0.4206(2)
H13 H 0.250(6) 0.610(4) 0.361(4)
C3 C 0.3301(3) 0.6445(2) 0.5627(2)
S2 S 0.43245(9) 0.82674(6) 0.64643(6)
O10 O 0.3952(3) 0.8669(2) 0.5414(2)
O11 O 0.3499(3) 0.8808(2) 0.7489(2)
O12 O 0.6245(3) 0.8599(2) 0.7097(2)
C4 C 0.3363(4) 0.5817(3) 0.6443(2)
H14 H 0.401(6) 0.639(4) 0.744(4)
C5 C 0.2646(4) 0.4386(3) 0.5798(2)
S3 S 0.28001(10) 0.35306(7) 0.67728(6)
O13 O 0.3531(3) 0.4596(2) 0.8212(2)
O14 O 0.4005(3) 0.2807(2) 0.6385(2)
O15 O 0.0969(3) 0.2565(2) 0.6359(2)
C6 C 0.1866(4) 0.3572(3) 0.4369(3)
H15 H 0.145(5) 0.256(4) 0.391(4)
Cu1_2 Cu 1.0000 1.5000 2.0000
O1A O -0.0669(4) 0.3232(3) -0.1690(2)
H1A H -0.014(9) 0.316(6) -0.212(6)
H2A H -0.158(11) 0.283(8) -0.200(8)
O2A O -0.2574(3) 0.4658(3) -0.0404(2)
H3A H -0.284(7) 0.478(5) 0.039(5)
H4A H -0.27(2) 0.520(12) -0.067(12)
O3A O 0.7155(3) 0.9544(3) 0.9975(3)
H5A H 0.828(8) 1.034(6) 1.052(6)
H6A H 0.681(14) 0.857(11) 0.952(11)
O4A O 0.6097(4) 1.1745(4) 1.0015(3)
H7A H 0.584(10) 1.174(7) 0.940(8)
H8A H 0.713(9) 1.214(6) 1.031(6)
Cu3_2 Cu 1.0000 2.0000 1.5000
O5A O -0.2137(4) 0.0030(3) 0.5481(4)
H9A H -0.268(7) 0.054(5) 0.528(5)
H10A H -0.230(8) -0.034(7) 0.585(6)
O6A O 0.1072(4) -0.0020(3) 0.6710(4)
H11A H 0.179(9) -0.038(7) 0.678(6)
H12A H 0.068(11) 0.047(9) 0.731(9)
S1A S 0.90016(9) 1.67710(7) 1.82237(6)
O7A O 1.0335(3) 1.6272(2) 1.8732(2)
O7A_2 O 0.0335(3) 0.6272(2) -0.1268(2)
O8A O 0.7438(3) 1.6500(3) 1.8630(2)
O9A O 0.9788(3) 1.8201(2) 1.8562(2)
C1A C 0.8165(3) 1.5771(3) 1.6410(2)
C2A C 0.7459(4) 1.4326(3) 1.5794(2)
H13A H 0.750(6) 1.390(4) 1.639(4)
C3A C 0.6699(3) 1.3555(2) 1.4373(2)
S2A S 0.56755(9) 1.17326(6) 1.35357(6)
O10A O 0.6048(3) 1.1331(2) 1.4586(2)
O11A O 0.6501(3) 1.1192(2) 1.2511(2)
O12A O 0.3755(3) 1.1401(2) 1.2903(2)
C4A C 0.6637(4) 1.4183(3) 1.3557(2)
H14A H 0.599(6) 1.361(4) 1.256(4)
C5A C 0.7354(4) 1.5614(3) 1.4202(2)
S3A S 0.71999(10) 1.64694(7) 1.32272(6)
O13A O 0.6469(3) 1.5404(2) 1.1788(2)
O14A O 0.5995(3) 1.7193(2) 1.3615(2)
O15A O 0.9031(3) 1.7435(2) 1.3641(2)
O15A_2 O -0.0969(3) -0.2565(2) 0.3641(2)
C6A C 0.8134(4) 1.6428(3) 1.5631(3)
H15A H 0.855(5) 1.744(4) 1.609(4)
O16 O 0.4118(5) 0.8301(3) 0.2466(3)
O17 O 0.0563(6) 0.9214(4) 0.1601(4)
O18 O 0.3549(12) 0.2471(7) -0.0834(7)
loop_
_geom_bond_atom_site_label_1
_geom_bond_atom_site_label_2
_geom_bond_site_symmetry_1
_geom_bond_site_symmetry_2
Cu1 O1 1_555 1_555
O1 H1 1_555 1_555
H2 O1 1_555 1_555
O2 Cu1 1_555 1_555
H3 O2 1_555 1_555
H4 O2 1_555 1_555
Cu2 O3 1_555 1_555
O3 H5 1_555 1_555
H6 O3 1_555 1_555
O4 Cu2 1_555 1_555
H7 O4 1_555 1_555
H8 O4 1_555 1_555
Cu3 O5 1_555 1_555
O5 H9 1_555 1_555
H10 O5 1_555 1_555
O6 Cu3 1_555 1_555
H11 O6 1_555 1_555
H12 O6 1_555 1_555
S1 O7 1_555 1_555
O7 Cu1 1_555 1_555
O8 S1 1_555 1_555
O9 S1 1_555 1_555
C1 S1 1_555 1_555
C2 C1 1_555 1_555
H13 C2 1_555 1_555
C3 C2 1_555 1_555
S2 C3 1_555 1_555
O10 S2 1_555 1_555
O11 Cu2 1_555 1_555
O12 S2 1_555 1_555
C4 C3 1_555 1_555
H14 C4 1_555 1_555
C5 C4 1_555 1_555
S3 C5 1_555 1_555
O13 S3 1_555 1_555
O14 S3 1_555 1_555
O15 Cu3 1_555 1_555
C6 C1 1_555 1_555
H15 C6 1_555 1_555
Cu1_2 O7A 1_555 1_555
O1A Cu1 1_555 1_555
H1A O1A 1_555 1_555
H2A O1A 1_555 1_555
O2A Cu1 1_555 1_555
H3A O2A 1_555 1_555
H4A O2A 1_555 1_555
O3A Cu2 1_555 1_555
H5A O3A 1_555 1_555
H6A O3A 1_555 1_555
O4A Cu2 1_555 1_555
H7A O4A 1_555 1_555
H8A O4A 1_555 1_555
Cu3_2 O15A 1_555 1_555
O5A Cu3 1_555 1_555
H9A O5A 1_555 1_555
H10A O5A 1_555 1_555
O6A Cu3 1_555 1_555
H11A O6A 1_555 1_555
H12A O6A 1_555 1_555
S1A O7A 1_555 1_555
O7A_2 Cu1 1_555 1_555
O8A S1A 1_555 1_555
O9A S1A 1_555 1_555
C1A S1A 1_555 1_555
C2A C1A 1_555 1_555
H13A C2A 1_555 1_555
C3A C2A 1_555 1_555
S2A C3A 1_555 1_555
O10A S2A 1_555 1_555
O11A Cu2 1_555 1_555
O12A S2A 1_555 1_555
C4A C3A 1_555 1_555
H14A C4A 1_555 1_555
C5A C4A 1_555 1_555
S3A C5A 1_555 1_555
O13A S3A 1_555 1_555
O14A S3A 1_555 1_555
O15A S3A 1_555 1_555
O15A_2 Cu3 1_555 1_555
C6A C1A 1_555 1_555
H15A C6A 1_555 1_555
S2 O11 1_555 1_555
C5 C6 1_555 1_555
S3 O15 1_555 1_555
S2A O11A 1_555 1_555
C5A C6A 1_555 1_555

#END
