
#######################################################################
#
#                 Cambridge Crystallographic Data Centre
#                                CCDC 
#
#######################################################################
#
# If this CIF has been generated from an entry in the Cambridge 
# Structural Database, then it will include bibliographic, chemical, 
# crystal, experimental, refinement or atomic coordinate data resulting 
# from the CCDC's data processing and validation procedures.
#
#######################################################################

data_BUGGAN
_symmetry_cell_setting           triclinic
_symmetry_space_group_name_H-M   'P -1'
_symmetry_Int_Tables_number      2
_space_group_name_Hall           '-P 1'
loop_
_symmetry_equiv_pos_site_id
_symmetry_equiv_pos_as_xyz
1 x,y,z
2 -x,-y,-z
_cell_length_a                   13.1608(4)
_cell_length_b                   13.8629(4)
_cell_length_c                   14.6127(4)
_cell_angle_alpha                114.3100(10)
_cell_angle_beta                 112.0230(10)
_cell_angle_gamma                96.0490(10)
_cell_volume                     2143.27
loop_
_atom_site_label
_atom_site_type_symbol
_atom_site_fract_x
_atom_site_fract_y
_atom_site_fract_z
N1 N 0.8953(2) 0.9890(2) 1.0600(2)
H29 H 0.8777 0.9449 0.9877
H30 H 0.9737 0.9991 1.1027
C37 C 0.8828(3) 1.0976(3) 1.0729(3)
H31 H 0.8008 1.0912 1.0383
H32 H 0.9199 1.1211 1.0353
H33 H 0.9193 1.1529 1.1535
C38 C 0.8279(3) 0.9364(3) 1.0963(3)
H34 H 0.8579 0.9805 1.1784
H35 H 0.8336 0.8612 1.0764
H36 H 0.7471 0.9323 1.0583
O13 O 0.4180(8) -0.0444(11) -0.0188(6)
O14 O 0.4428(11) -0.1456(10) 0.2060(11)
N2 N 0.5459(7) 0.6369(9) 0.9228(9)
O15 O 0.624(3) 0.656(4) 1.0858(16)
C39 C 0.6386(11) 0.6245(11) 0.9976(12)
H37 H 0.6992 0.5988 0.9862
C40 C 0.469(3) 0.705(3) 0.942(3)
H38 H 0.3976 0.6756 0.8721
H39 H 0.5078 0.7822 0.9666
H40 H 0.4523 0.7031 1.0014
C41 C 0.5707(12) 0.6430(11) 0.8356(11)
H41 H 0.6543 0.6698 0.8648
H42 H 0.5354 0.6944 0.8147
H43 H 0.5392 0.5689 0.7688
Zn1 Zn 0.77209(2) -0.12383(2) 0.72324(2)
O1 O 0.87573(16) 0.25322(15) 0.75870(16)
O2 O 0.87281(17) 0.03337(15) 0.81986(16)
O3 O 0.7365(2) 0.0570(2) 0.6939(2)
O4 O 0.81945(16) 0.53922(15) 0.70307(15)
O5 O 0.84540(17) 0.83216(15) 0.83930(16)
O6 O 0.8814(2) 0.72329(18) 0.91548(17)
O7 O 0.62216(15) 0.21488(15) 0.38080(15)
O8 O 0.39228(16) 0.17285(17) 0.31916(16)
O9 O 0.34527(19) 0.0547(3) 0.1420(2)
O10 O 1.01099(16) 0.25894(15) 0.51339(16)
O11 O 1.22868(16) 0.20228(17) 0.42468(16)
O12 O 1.04003(18) 0.1483(2) 0.32005(17)
C1 C 0.9639(2) 0.3414(2) 0.7864(2)
C2 C 1.0519(2) 0.3175(2) 0.7572(2)
C3 C 1.1388(3) 0.4072(3) 0.7866(3)
H1 H 1.2012 0.3940 0.7706
C4 C 1.1365(3) 0.5150(3) 0.8386(3)
H2 H 1.1968 0.5749 0.8577
C5 C 1.0468(3) 0.5360(2) 0.8630(2)
H3 H 1.0447 0.6103 0.8967
C6 C 0.9595(2) 0.4494(2) 0.8387(2)
C7 C 0.7273(2) 0.4662(2) 0.6881(2)
C8 C 0.7460(2) 0.4356(2) 0.7718(2)
C9 C 0.6521(3) 0.3707(3) 0.7642(3)
H4 H 0.6626 0.3508 0.8213
C10 C 0.5422(3) 0.3342(3) 0.6733(3)
H5 H 0.4773 0.2950 0.6718
C11 C 0.5289(3) 0.3556(2) 0.5859(2)
H6 H 0.4552 0.3265 0.5221
C12 C 0.6212(2) 0.4191(2) 0.5890(2)
C13 C 0.7018(2) 0.3021(2) 0.3959(2)
C14 C 0.6928(2) 0.4089(2) 0.4450(2)
C15 C 0.7665(2) 0.4940(2) 0.4520(2)
H7 H 0.7602 0.5669 0.4827
C16 C 0.8488(3) 0.4749(3) 0.4152(2)
H8 H 0.8978 0.5340 0.4199
C17 C 0.8591(2) 0.3693(2) 0.3717(2)
H9 H 0.9170 0.3570 0.3483
C18 C 0.7867(2) 0.2805(2) 0.3613(2)
C19 C 0.9328(2) 0.1687(2) 0.4930(2)
C20 C 0.8295(2) 0.1174(2) 0.3913(2)
C21 C 0.7557(3) 0.0194(2) 0.3640(3)
H10 H 0.6875 -0.0189 0.2936
C22 C 0.7796(3) -0.0235(3) 0.4376(3)
H11 H 0.7303 -0.0923 0.4163
C23 C 0.8760(3) 0.0350(3) 0.5425(3)
H12 H 0.8897 0.0075 0.5945
C24 C 0.9534(3) 0.1331(2) 0.5737(2)
C25 C 0.8641(3) 0.4745(2) 0.8702(2)
H13 H 0.8595 0.4393 0.9160
H14 H 0.8854 0.5559 0.9187
C26 C 0.6030(2) 0.4311(2) 0.4861(2)
H15 H 0.6009 0.5077 0.5038
H16 H 0.5266 0.3795 0.4234
C27 C 0.8014(2) 0.1657(2) 0.3126(2)
H17 H 0.7294 0.1141 0.2429
H18 H 0.8636 0.1699 0.2906
C28 C 1.0513(3) 0.1988(2) 0.6932(2)
H19 H 1.1252 0.2005 0.6899
H20 H 1.0461 0.1599 0.7357
C29 C 0.9036(3) 0.2131(2) 0.8384(2)
H21 H 0.8880 0.2585 0.9015
H22 H 0.9864 0.2188 0.8701
C30 C 0.8310(2) 0.0931(2) 0.7784(2)
C31 C 0.8073(3) 0.6437(2) 0.7137(2)
H23 H 0.7250 0.6329 0.6685
H24 H 0.8505 0.6677 0.6801
C32 C 0.8482(2) 0.7370(2) 0.8335(2)
C33 C 0.5412(2) 0.1401(3) 0.2650(2)
H25 H 0.5562 0.0674 0.2423
H26 H 0.5541 0.1694 0.2176
C34 C 0.4167(2) 0.1216(2) 0.2404(2)
C35 C 1.1201(2) 0.2449(2) 0.5235(2)
H27 H 1.1383 0.1965 0.5577
H28 H 1.1800 0.3183 0.5759
C36 C 1.1263(2) 0.1947(2) 0.4118(2)
Zn1_2 Zn 0.77209(2) 0.87617(2) 0.72324(2)
Zn1A Zn 0.22791(2) 0.12383(2) 0.27676(2)
Zn1A_2 Zn 1.22791(2) 0.12383(2) 0.27676(2)
O5_2 O 0.84540(17) -0.16784(15) 0.83930(16)
O8A O 0.60772(16) -0.17285(17) 0.68084(16)
O11A O 0.77132(16) -0.20228(17) 0.57532(16)
H44? H 0.5394 0.0023 0.4247
H45? H 0.4914 0.1019 0.4337
O16? O 0.4238(12) -0.1174(14) 0.0220(12)
O17? O 0.5159(16) -0.2137(16) 0.1693(16)
N3? N 0.6546(2) 0.1481(2) 0.5540(2)
H46? H 0.6904 0.1338 0.6147
H47? H 0.6455 0.2124 0.5757
H48? H 0.6805 0.1422 0.5026
C42? C 0.5365(4) 0.0711(4) 0.4766(5)
H49? H 0.5144 0.0671 0.4036
H50? H 0.4845 0.1020 0.5043
C43? C 0.5184(6) -0.0493(6) 0.4584(7)
H51? H 0.4695 -0.1025 0.3768
H52? H 0.5939 -0.0630 0.4811
loop_
_geom_bond_atom_site_label_1
_geom_bond_atom_site_label_2
_geom_bond_site_symmetry_1
_geom_bond_site_symmetry_2
Zn1 O2 1_555 1_555
O1 C1 1_555 1_555
O2 C30 1_555 1_555
O3 C30 1_555 1_555
O4 C7 1_555 1_555
O5 C32 1_555 1_555
O6 C32 1_555 1_555
O7 C13 1_555 1_555
O8 C34 1_555 1_555
O9 C34 1_555 1_555
O10 C19 1_555 1_555
O11 C36 1_555 1_555
O12 C36 1_555 1_555
C1 C2 1_555 1_555
C2 C3 1_555 1_555
C3 H1 1_555 1_555
C4 C3 1_555 1_555
H2 C4 1_555 1_555
C5 C4 1_555 1_555
H3 C5 1_555 1_555
C6 C1 1_555 1_555
C7 C8 1_555 1_555
C8 C9 1_555 1_555
C9 H4 1_555 1_555
C10 C9 1_555 1_555
H5 C10 1_555 1_555
C11 C10 1_555 1_555
H6 C11 1_555 1_555
C12 C7 1_555 1_555
C13 C14 1_555 1_555
C14 C15 1_555 1_555
C15 H7 1_555 1_555
C16 C15 1_555 1_555
H8 C16 1_555 1_555
C17 C16 1_555 1_555
H9 C17 1_555 1_555
C18 C13 1_555 1_555
C19 C20 1_555 1_555
C20 C21 1_555 1_555
C21 H10 1_555 1_555
C22 C21 1_555 1_555
H11 C22 1_555 1_555
C23 C22 1_555 1_555
H12 C23 1_555 1_555
C24 C19 1_555 1_555
C25 C6 1_555 1_555
H13 C25 1_555 1_555
H14 C25 1_555 1_555
C26 C12 1_555 1_555
H15 C26 1_555 1_555
H16 C26 1_555 1_555
C27 C18 1_555 1_555
H17 C27 1_555 1_555
H18 C27 1_555 1_555
C28 C2 1_555 1_555
H19 C28 1_555 1_555
H20 C28 1_555 1_555
C29 O1 1_555 1_555
H21 C29 1_555 1_555
H22 C29 1_555 1_555
C30 C29 1_555 1_555
C31 O4 1_555 1_555
H23 C31 1_555 1_555
H24 C31 1_555 1_555
C32 C31 1_555 1_555
C33 O7 1_555 1_555
H25 C33 1_555 1_555
H26 C33 1_555 1_555
C34 C33 1_555 1_555
C35 O10 1_555 1_555
H27 C35 1_555 1_555
H28 C35 1_555 1_555
C36 C35 1_555 1_555
N1 H29 1_555 1_555
H30 N1 1_555 1_555
C37 N1 1_555 1_555
H31 C37 1_555 1_555
H32 C37 1_555 1_555
H33 C37 1_555 1_555
C38 N1 1_555 1_555
H34 C38 1_555 1_555
H35 C38 1_555 1_555
H36 C38 1_555 1_555
N2 C39 1_555 1_555
O15 C39 1_555 1_555
C39 H37 1_555 1_555
C40 N2 1_555 1_555
H38 C40 1_555 1_555
H39 C40 1_555 1_555
H40 C40 1_555 1_555
C41 N2 1_555 1_555
H41 C41 1_555 1_555
H42 C41 1_555 1_555
H43 C41 1_555 1_555
Zn1_2 O5 1_555 1_555
Zn1A O8 1_555 1_555
Zn1A_2 O11 1_555 1_555
O5_2 Zn1 1_555 1_555
O8A Zn1 1_555 1_555
O11A Zn1 1_555 1_555
C5 C6 1_555 1_555
C8 C25 1_555 1_555
C11 C12 1_555 1_555
C14 C26 1_555 1_555
C17 C18 1_555 1_555
C20 C27 1_555 1_555
C23 C24 1_555 1_555
C24 C28 1_555 1_555

#END
