
#######################################################################
#
#                 Cambridge Crystallographic Data Centre
#                                CCDC 
#
#######################################################################
#
# If this CIF has been generated from an entry in the Cambridge 
# Structural Database, then it will include bibliographic, chemical, 
# crystal, experimental, refinement or atomic coordinate data resulting 
# from the CCDC's data processing and validation procedures.
#
#######################################################################

data_BUGHOC
_symmetry_cell_setting           monoclinic
_symmetry_space_group_name_H-M   'P 21/n'
_symmetry_Int_Tables_number      14
_space_group_name_Hall           '-P 2yn'
loop_
_symmetry_equiv_pos_site_id
_symmetry_equiv_pos_as_xyz
1 x,y,z
2 1/2-x,1/2+y,1/2-z
3 -x,-y,-z
4 1/2+x,1/2-y,1/2+z
_cell_length_a                   17.0824(12)
_cell_length_b                   11.8393(10)
_cell_length_c                   19.2662(10)
_cell_angle_alpha                90
_cell_angle_beta                 106.856(4)
_cell_angle_gamma                90
_cell_volume                     3729.06
loop_
_atom_site_label
_atom_site_type_symbol
_atom_site_fract_x
_atom_site_fract_y
_atom_site_fract_z
Cu1 Cu 0.30519(2) 0.90712(3) 0.101587(19)
Cu2 Cu 0.15660(2) 1.15667(3) 0.169011(19)
O1 O 0.37689(14) 1.1096(2) 0.06586(12)
O2 O 0.26159(13) 1.01209(19) 0.02116(11)
O3 O 0.07749(15) 1.1897(3) -0.00716(12)
O4 O 0.18935(13) 1.21959(19) 0.08538(11)
O5 O -0.23412(12) 1.48939(18) -0.33493(11)
O6 O -0.22485(12) 1.32841(18) -0.27615(10)
O7 O -0.14692(13) 1.68245(18) -0.31060(11)
O8 O -0.10033(14) 1.6829(2) -0.19034(11)
O9 O 0.05022(14) 1.0992(2) 0.10610(12)
N1 N 0.12933(16) 1.0696(2) 0.25111(14)
N2 N -0.13086(16) 0.6849(2) 0.54788(14)
N3 N 0.19324(16) 0.7951(2) 0.06535(13)
C1 C 0.2782(2) 1.2947(3) -0.13654(18)
H1 H 0.3059 1.3112 -0.1704
C2 C 0.3114(2) 1.2175(3) -0.08208(17)
H2 H 0.3610 1.1830 -0.0798
C3 C 0.27159(19) 1.1908(3) -0.03076(16)
C4 C 0.19817(19) 1.2446(3) -0.03413(16)
C5 C 0.16556(19) 1.3225(3) -0.08873(16)
H3 H 0.1167 1.3585 -0.0903
C6 C 0.20436(19) 1.3482(3) -0.14149(16)
C7 C 0.3072(2) 1.0986(3) 0.02416(16)
C8 C 0.1508(2) 1.2155(3) 0.01854(17)
C9 C 0.16564(19) 1.4362(3) -0.20070(17)
C10 C 0.1857(2) 1.4115(4) -0.27329(19)
C11 C 0.2034(2) 1.5507(3) -0.1725(2)
C12 C 0.07110(19) 1.4368(3) -0.22012(15)
C13 C 0.0312(2) 1.3327(3) -0.23485(17)
H4 H 0.0616 1.2664 -0.2297
C14 C -0.0533(2) 1.3278(3) -0.25706(16)
H5 H -0.0790 1.2578 -0.2657
C15 C -0.10052(18) 1.4250(3) -0.26678(15)
C16 C -0.06155(18) 1.5289(3) -0.24947(15)
C17 C 0.02361(19) 1.5334(3) -0.22571(15)
H6 H 0.0493 1.6029 -0.2133
C18 C -0.19143(19) 1.4137(3) -0.29478(16)
C19 C -0.10757(18) 1.6390(3) -0.25049(16)
C20 C 0.1760(2) 0.9897(3) 0.29229(17)
H7 H 0.2282 0.9780 0.2878
C21 C 0.1508(2) 0.9234(3) 0.34122(18)
H8 H 0.1852 0.8683 0.3683
C22 C 0.0735(2) 0.9406(3) 0.34918(17)
C23 C 0.0257(2) 1.0248(3) 0.30688(18)
H9 H -0.0266 1.0392 0.3103
C24 C 0.0558(2) 1.0864(3) 0.26016(18)
H10 H 0.0231 1.1432 0.2332
C25 C 0.0424(2) 0.8669(3) 0.39690(17)
H11 H 0.0681 0.7977 0.4103
C26 C -0.0195(2) 0.8927(3) 0.42184(18)
H12 H -0.0429 0.9637 0.4100
C27 C -0.0550(2) 0.8193(3) 0.46680(17)
C28 C -0.0423(2) 0.7033(3) 0.4727(2)
H13 H -0.0078 0.6685 0.4497
C29 C -0.0812(2) 0.6404(3) 0.51275(19)
H14 H -0.0724 0.5628 0.5156
C30 C -0.1414(2) 0.7968(3) 0.54336(19)
H15 H -0.1744 0.8298 0.5685
C31 C -0.1062(2) 0.8653(3) 0.50360(18)
H16 H -0.1166 0.9425 0.5013
C32 C 0.1437(2) 0.7978(3) -0.00271(18)
H17 H 0.1499 0.8561 -0.0330
C33 C 0.0839(2) 0.7178(3) -0.02976(17)
H18 H 0.0512 0.7235 -0.0775
C34 C 0.0718(2) 0.6291(3) 0.01291(17)
C35 C 0.1237(2) 0.6271(3) 0.08404(19)
H19 H 0.1187 0.5701 0.1157
C36 C 0.1818(2) 0.7092(3) 0.10689(18)
H20 H 0.2157 0.7053 0.1543
C37 C 0.0073(2) 0.5458(3) -0.01644(18)
H21 H -0.0268 0.5591 -0.0630
F1 F 0.17150(14) 1.3036(2) -0.29254(11)
F2 F 0.26333(13) 1.4328(2) -0.27041(12)
F3 F 0.13966(14) 1.4740(2) -0.32707(11)
F4 F 0.28530(12) 1.5477(2) -0.15068(13)
F5 F 0.18266(14) 1.63406(19) -0.22164(14)
F6 F 0.18045(13) 1.58375(19) -0.11487(12)
N3B N -0.19324(16) 0.2049(2) -0.06535(13)
C32B C -0.1437(2) 0.2022(3) 0.00271(18)
H17B H -0.1499 0.1439 0.0330
C33B C -0.0839(2) 0.2822(3) 0.02976(17)
H18B H -0.0512 0.2765 0.0775
C34B C -0.0718(2) 0.3709(3) -0.01291(17)
C35B C -0.1237(2) 0.3729(3) -0.08404(19)
H19B H -0.1187 0.4299 -0.1157
C36B C -0.1818(2) 0.2908(3) -0.10689(18)
H20B H -0.2157 0.2947 -0.1543
C37B C -0.0073(2) 0.4542(3) 0.01644(18)
H21B H 0.0268 0.4409 0.0630
Cu1B Cu -0.30519(2) 0.09288(3) -0.101587(19)
Cu2B Cu -0.15660(2) -0.15667(3) -0.169011(19)
O1B O -0.37689(14) -0.1096(2) -0.06586(12)
O2B O -0.26159(13) -0.01209(19) -0.02116(11)
O3B O -0.07749(15) -0.1897(3) 0.00716(12)
O4B O -0.18935(13) -0.21959(19) -0.08538(11)
O5B O 0.23412(12) -0.48939(18) 0.33493(11)
O6B O 0.22485(12) -0.32841(18) 0.27615(10)
O7B O 0.14692(13) -0.68245(18) 0.31060(11)
O8B O 0.10033(14) -0.6829(2) 0.19034(11)
O9B O -0.05022(14) -0.0992(2) -0.10610(12)
N1B N -0.12933(16) -0.0696(2) -0.25111(14)
N2B N 0.13086(16) 0.3151(2) -0.54788(14)
C1B C -0.2782(2) -0.2947(3) 0.13654(18)
H1B H -0.3059 -0.3112 0.1704
C2B C -0.3114(2) -0.2175(3) 0.08208(17)
H2B H -0.3610 -0.1830 0.0798
C3B C -0.27159(19) -0.1908(3) 0.03076(16)
C4B C -0.19817(19) -0.2446(3) 0.03413(16)
C5B C -0.16556(19) -0.3225(3) 0.08873(16)
H3B H -0.1167 -0.3585 0.0903
C6B C -0.20436(19) -0.3482(3) 0.14149(16)
C7B C -0.3072(2) -0.0986(3) -0.02416(16)
C8B C -0.1508(2) -0.2155(3) -0.01854(17)
C9B C -0.16564(19) -0.4362(3) 0.20070(17)
C10B C -0.1857(2) -0.4115(4) 0.27329(19)
C11B C -0.2034(2) -0.5507(3) 0.1725(2)
C12B C -0.07110(19) -0.4368(3) 0.22012(15)
C13B C -0.0312(2) -0.3327(3) 0.23485(17)
H4B H -0.0616 -0.2664 0.2297
C14B C 0.0533(2) -0.3278(3) 0.25706(16)
H5B H 0.0790 -0.2578 0.2657
C15B C 0.10052(18) -0.4250(3) 0.26678(15)
C16B C 0.06155(18) -0.5289(3) 0.24947(15)
C17B C -0.02361(19) -0.5334(3) 0.22571(15)
H6B H -0.0493 -0.6029 0.2133
C18B C 0.19143(19) -0.4137(3) 0.29478(16)
C19B C 0.10757(18) -0.6390(3) 0.25049(16)
C20B C -0.1760(2) 0.0103(3) -0.29229(17)
H7B H -0.2282 0.0220 -0.2878
C21B C -0.1508(2) 0.0766(3) -0.34122(18)
H8B H -0.1852 0.1317 -0.3683
C22B C -0.0735(2) 0.0594(3) -0.34918(17)
C23B C -0.0257(2) -0.0248(3) -0.30688(18)
H9B H 0.0266 -0.0392 -0.3103
C24B C -0.0558(2) -0.0864(3) -0.26016(18)
H10B H -0.0231 -0.1432 -0.2332
C25B C -0.0424(2) 0.1331(3) -0.39690(17)
H11B H -0.0681 0.2023 -0.4103
C26B C 0.0195(2) 0.1073(3) -0.42184(18)
H12B H 0.0429 0.0363 -0.4100
C27B C 0.0550(2) 0.1807(3) -0.46680(17)
C28B C 0.0423(2) 0.2967(3) -0.4727(2)
H13B H 0.0078 0.3315 -0.4497
C29B C 0.0812(2) 0.3596(3) -0.51275(19)
H14B H 0.0724 0.4372 -0.5156
C30B C 0.1414(2) 0.2032(3) -0.54336(19)
H15B H 0.1744 0.1702 -0.5685
C31B C 0.1062(2) 0.1347(3) -0.50360(18)
H16B H 0.1166 0.0575 -0.5013
F1B F -0.17150(14) -0.3036(2) 0.29254(11)
F2B F -0.26333(13) -0.4328(2) 0.27041(12)
F3B F -0.13966(14) -0.4740(2) 0.32707(11)
F4B F -0.28530(12) -0.5477(2) 0.15068(13)
F5B F -0.18266(14) -0.63406(19) 0.22164(14)
F6B F -0.18045(13) -0.58375(19) 0.11487(12)
Cu1A Cu 0.19481(2) -0.59288(3) 0.398413(19)
Cu1A_2 Cu 0.19481(2) 0.40712(3) -0.601587(19)
Cu1C Cu -0.19481(2) 0.59288(3) 0.601587(19)
Cu1C_2 Cu -0.19481(2) 1.59288(3) -0.398413(19)
Cu2_2 Cu 0.15660(2) -0.84333(3) 0.169011(19)
Cu2A Cu 0.34340(2) -0.34333(3) 0.330989(19)
Cu2B_2 Cu -0.15660(2) 1.84333(3) -0.169011(19)
Cu2C Cu -0.34340(2) 1.34333(3) -0.330989(19)
O5A O -0.26588(12) -0.01061(18) -0.16507(11)
O5C O 0.26588(12) 1.01061(18) 0.16507(11)
O6A O -0.27515(12) -0.17159(18) -0.22385(10)
O6C O 0.27515(12) 1.17159(18) 0.22385(10)
O7A O -0.35308(13) 0.18245(18) -0.18940(11)
O7C O 0.35308(13) 0.81755(18) 0.18940(11)
O8_2 O -0.10033(14) -0.3171(2) -0.19034(11)
O8B_2 O 0.10033(14) 1.3171(2) 0.19034(11)
N2A N -0.36914(16) 0.1849(2) -0.04788(14)
N2C N 0.36914(16) 0.8151(2) 0.04788(14)
O10 O 0.0268(2) 0.8816(3) 0.13126(16)
loop_
_geom_bond_atom_site_label_1
_geom_bond_atom_site_label_2
_geom_bond_site_symmetry_1
_geom_bond_site_symmetry_2
Cu1 O2 1_555 1_555
Cu2 O4 1_555 1_555
O1 C7 1_555 1_555
O2 C7 1_555 1_555
O3 C8 1_555 1_555
O4 C8 1_555 1_555
O5 C18 1_555 1_555
O6 C18 1_555 1_555
O7 C19 1_555 1_555
O8 C19 1_555 1_555
O9 Cu2 1_555 1_555
N1 Cu2 1_555 1_555
N2 C29 1_555 1_555
N3 Cu1 1_555 1_555
C1 H1 1_555 1_555
C2 C1 1_555 1_555
H2 C2 1_555 1_555
C3 C2 1_555 1_555
C4 C3 1_555 1_555
C5 C4 1_555 1_555
H3 C5 1_555 1_555
C6 C1 1_555 1_555
C7 C3 1_555 1_555
C8 C4 1_555 1_555
C9 C6 1_555 1_555
C10 C9 1_555 1_555
C11 C9 1_555 1_555
C12 C9 1_555 1_555
C13 C12 1_555 1_555
H4 C13 1_555 1_555
C14 C13 1_555 1_555
H5 C14 1_555 1_555
C15 C14 1_555 1_555
C16 C15 1_555 1_555
C17 C12 1_555 1_555
H6 C17 1_555 1_555
C18 C15 1_555 1_555
C19 C16 1_555 1_555
C20 N1 1_555 1_555
H7 C20 1_555 1_555
C21 C20 1_555 1_555
H8 C21 1_555 1_555
C22 C21 1_555 1_555
C23 C22 1_555 1_555
H9 C23 1_555 1_555
C24 N1 1_555 1_555
H10 C24 1_555 1_555
C25 C22 1_555 1_555
H11 C25 1_555 1_555
C26 C25 1_555 1_555
H12 C26 1_555 1_555
C27 C26 1_555 1_555
C28 C27 1_555 1_555
H13 C28 1_555 1_555
C29 C28 1_555 1_555
H14 C29 1_555 1_555
C30 N2 1_555 1_555
H15 C30 1_555 1_555
C31 C27 1_555 1_555
H16 C31 1_555 1_555
C32 N3 1_555 1_555
H17 C32 1_555 1_555
C33 C32 1_555 1_555
H18 C33 1_555 1_555
C34 C33 1_555 1_555
C35 C34 1_555 1_555
H19 C35 1_555 1_555
C36 N3 1_555 1_555
H20 C36 1_555 1_555
C37 C34 1_555 1_555
H21 C37 1_555 1_555
F1 C10 1_555 1_555
F2 C10 1_555 1_555
F3 C10 1_555 1_555
F4 C11 1_555 1_555
F5 C11 1_555 1_555
F6 C11 1_555 1_555
N3B C32B 1_555 1_555
C32B H17B 1_555 1_555
C33B C32B 1_555 1_555
H18B C33B 1_555 1_555
C34B C33B 1_555 1_555
C35B C34B 1_555 1_555
H19B C35B 1_555 1_555
C36B N3B 1_555 1_555
H20B C36B 1_555 1_555
C37B C37 1_555 1_555
H21B C37B 1_555 1_555
Cu1B N3B 1_555 1_555
Cu2B O4B 1_555 1_555
O1B C7B 1_555 1_555
O2B Cu1B 1_555 1_555
O3B C8B 1_555 1_555
O4B C8B 1_555 1_555
O5B C18B 1_555 1_555
O6B C18B 1_555 1_555
O7B C19B 1_555 1_555
O8B C19B 1_555 1_555
O9B Cu2B 1_555 1_555
N1B Cu2B 1_555 1_555
N2B C29B 1_555 1_555
C1B H1B 1_555 1_555
C2B C1B 1_555 1_555
H2B C2B 1_555 1_555
C3B C2B 1_555 1_555
C4B C3B 1_555 1_555
C5B C4B 1_555 1_555
H3B C5B 1_555 1_555
C6B C1B 1_555 1_555
C7B O2B 1_555 1_555
C8B C4B 1_555 1_555
C9B C6B 1_555 1_555
C10B C9B 1_555 1_555
C11B C9B 1_555 1_555
C12B C9B 1_555 1_555
C13B C12B 1_555 1_555
H4B C13B 1_555 1_555
C14B C13B 1_555 1_555
H5B C14B 1_555 1_555
C15B C14B 1_555 1_555
C16B C15B 1_555 1_555
C17B C12B 1_555 1_555
H6B C17B 1_555 1_555
C18B C15B 1_555 1_555
C19B C16B 1_555 1_555
C20B N1B 1_555 1_555
H7B C20B 1_555 1_555
C21B C20B 1_555 1_555
H8B C21B 1_555 1_555
C22B C21B 1_555 1_555
C23B C22B 1_555 1_555
H9B C23B 1_555 1_555
C24B N1B 1_555 1_555
H10B C24B 1_555 1_555
C25B C22B 1_555 1_555
H11B C25B 1_555 1_555
C26B C25B 1_555 1_555
H12B C26B 1_555 1_555
C27B C26B 1_555 1_555
C28B C27B 1_555 1_555
H13B C28B 1_555 1_555
C29B C28B 1_555 1_555
H14B C29B 1_555 1_555
C30B N2B 1_555 1_555
H15B C30B 1_555 1_555
C31B C27B 1_555 1_555
H16B C31B 1_555 1_555
F1B C10B 1_555 1_555
F2B C10B 1_555 1_555
F3B C10B 1_555 1_555
F4B C11B 1_555 1_555
F5B C11B 1_555 1_555
F6B C11B 1_555 1_555
Cu1A O5B 1_555 1_555
Cu1A_2 N2B 1_555 1_555
Cu1C N2 1_555 1_555
Cu1C_2 O5 1_555 1_555
Cu2_2 O8B 1_555 1_555
Cu2A O5B 1_555 1_555
Cu2B_2 O8 1_555 1_555
Cu2C O5 1_555 1_555
O5A Cu1B 1_555 1_555
O5C Cu1 1_555 1_555
O6A Cu2B 1_555 1_555
O6C Cu2 1_555 1_555
O7A Cu1B 1_555 1_555
O7C Cu1 1_555 1_555
O8_2 Cu2B 1_555 1_555
O8B_2 Cu2 1_555 1_555
N2A Cu1B 1_555 1_555
N2C Cu1 1_555 1_555
Cu2 O5C 1_555 1_555
O6 Cu2C 1_555 1_555
O7 Cu1C_2 1_555 1_555
C5 C6 1_555 1_555
C16 C17 1_555 1_555
C23 C24 1_555 1_555
C30 C31 1_555 1_555
C35 C36 1_555 1_555
C34B C37B 1_555 1_555
C35B C36B 1_555 1_555
Cu2B O5A 1_555 1_555
O6B Cu2A 1_555 1_555
O7B Cu1A 1_555 1_555
C3B C7B 1_555 1_555
C5B C6B 1_555 1_555
C16B C17B 1_555 1_555
C23B C24B 1_555 1_555
C30B C31B 1_555 1_555

#END
