
#######################################################################
#
#                 Cambridge Crystallographic Data Centre
#                                CCDC 
#
#######################################################################
#
# If this CIF has been generated from an entry in the Cambridge 
# Structural Database, then it will include bibliographic, chemical, 
# crystal, experimental, refinement or atomic coordinate data resulting 
# from the CCDC's data processing and validation procedures.
#
#######################################################################

data_BUGJAO
_symmetry_cell_setting           monoclinic
_symmetry_space_group_name_H-M   'P 21/n'
_symmetry_Int_Tables_number      14
_space_group_name_Hall           '-P 2yn'
loop_
_symmetry_equiv_pos_site_id
_symmetry_equiv_pos_as_xyz
1 x,y,z
2 1/2-x,1/2+y,1/2-z
3 -x,-y,-z
4 1/2+x,1/2-y,1/2+z
_cell_length_a                   6.584(2)
_cell_length_b                   23.12(1)
_cell_length_c                   7.511(2)
_cell_angle_alpha                90
_cell_angle_beta                 97.12(2)
_cell_angle_gamma                90
_cell_volume                     1134.52
loop_
_atom_site_label
_atom_site_type_symbol
_atom_site_fract_x
_atom_site_fract_y
_atom_site_fract_z
Cu1 Cu 0.20870 0.25720 0.18920
O1 O -0.57400 0.20320 0.14160
O2 O -0.34750 0.22380 0.37960
O3 O 0.01570 0.19190 0.16890
O4 O 0.13780 0.16670 0.44860
N1 N 0.39120 0.32510 0.25530
N2 N -0.01690 0.30930 0.24420
C1 C -0.14440 0.11560 0.29890
C2 C -0.08440 0.05810 0.31600
C3 C -0.23150 0.01410 0.28900
C4 C -0.43670 0.02860 0.24300
C5 C -0.49680 0.08520 0.22910
C6 C -0.35170 0.12940 0.25740
C7 C 0.01760 0.16200 0.31000
C8 C -0.42680 0.19090 0.26230
C9 C 0.27440 0.37530 0.30230
C10 C 0.05050 0.36950 0.23160
O1_2 O 0.42600 0.20320 0.14160
O2C O 0.15250 0.27620 -0.12040
Cu1_2 Cu -0.79130 0.25720 0.18920
Cu1C Cu -0.29130 0.24280 0.68920
loop_
_geom_bond_atom_site_label_1
_geom_bond_atom_site_label_2
_geom_bond_site_symmetry_1
_geom_bond_site_symmetry_2
Cu1 O3 1_555 1_555
O1 C8 1_555 1_555
O2 C8 1_555 1_555
O3 C7 1_555 1_555
O4 C7 1_555 1_555
N1 Cu1 1_555 1_555
N2 Cu1 1_555 1_555
C1 C2 1_555 1_555
C2 C3 1_555 1_555
C3 C4 1_555 1_555
C4 C5 1_555 1_555
C5 C6 1_555 1_555
C6 C1 1_555 1_555
C7 C1 1_555 1_555
C8 C6 1_555 1_555
C9 N1 1_555 1_555
C10 N2 1_555 1_555
O1_2 Cu1 1_555 1_555
O2C Cu1 1_555 1_555
Cu1_2 O1 1_555 1_555
Cu1C O2 1_555 1_555
C9 C10 1_555 1_555

#END
