
#######################################################################
#
#                 Cambridge Crystallographic Data Centre
#                                CCDC 
#
#######################################################################
#
# If this CIF has been generated from an entry in the Cambridge 
# Structural Database, then it will include bibliographic, chemical, 
# crystal, experimental, refinement or atomic coordinate data resulting 
# from the CCDC's data processing and validation procedures.
#
#######################################################################

data_BUGVAC
_symmetry_cell_setting           triclinic
_symmetry_space_group_name_H-M   'P -1'
_symmetry_Int_Tables_number      2
_space_group_name_Hall           '-P 1'
loop_
_symmetry_equiv_pos_site_id
_symmetry_equiv_pos_as_xyz
1 x,y,z
2 -x,-y,-z
_cell_length_a                   13.4910(12)
_cell_length_b                   14.0109(13)
_cell_length_c                   14.4421(14)
_cell_angle_alpha                67.2170(10)
_cell_angle_beta                 87.976(2)
_cell_angle_gamma                78.0120(10)
_cell_volume                     2458.9
loop_
_atom_site_label
_atom_site_type_symbol
_atom_site_fract_x
_atom_site_fract_y
_atom_site_fract_z
Ag1 Ag 0.27755(3) 0.36795(4) 0.57489(4)
P1 P 0.35625(11) 0.48923(12) 0.43669(12)
P2 P 0.10215(11) 0.34653(11) 0.59176(12)
N1 N 0.3681(4) 0.2951(4) 0.7325(4)
N2 N 0.3839(4) 0.2144(4) 0.5352(4)
C1 C 0.3881(5) 0.3538(5) 0.7785(5)
H1 H 0.3564 0.4250 0.7533
C2 C 0.4138(5) 0.1897(5) 0.7711(6)
H2 H 0.4002 0.1471 0.7393
C3 C 0.4780(6) 0.1454(6) 0.8537(6)
H3 H 0.5066 0.0733 0.8782
C4 C 0.5014(6) 0.2077(5) 0.9024(5)
C5 C 0.4540(5) 0.3154(5) 0.8627(5)
C6 C 0.4754(7) 0.3833(7) 0.9075(6)
H4 H 0.4437 0.4546 0.8827
C7 C 0.5433(8) 0.3418(8) 0.9874(7)
H5 H 0.5581 0.3857 1.0172
C8 C 0.5906(8) 0.2369(9) 1.0253(7)
H6 H 0.6382 0.2124 1.0788
C9 C 0.5707(7) 0.1673(7) 0.9879(7)
H7 H 0.6012 0.0957 1.0169
C10 C 0.3418(6) 0.1850(5) 0.4737(6)
H8 H 0.2718 0.1917 0.4737
C11 C 0.4869(6) 0.2012(6) 0.5370(6)
H9 H 0.5183 0.2207 0.5813
C12 C 0.5455(6) 0.1610(6) 0.4772(6)
H10 H 0.6156 0.1519 0.4826
C13 C 0.5024(6) 0.1330(5) 0.4077(6)
C14 C 0.3949(5) 0.1441(5) 0.4075(6)
C15 C 0.3472(7) 0.1134(6) 0.3408(7)
H11 H 0.2776 0.1169 0.3420
C16 C 0.4015(9) 0.0791(7) 0.2758(7)
H12 H 0.3693 0.0624 0.2300
C17 C 0.5067(9) 0.0688(6) 0.2775(8)
H13 H 0.5434 0.0433 0.2331
C18 C 0.5565(7) 0.0935(6) 0.3395(7)
H14 H 0.6266 0.0851 0.3383
C19 C 0.4909(4) 0.4856(5) 0.4557(5)
H15 H 0.5301 0.4151 0.4678
H16 H 0.5141 0.5348 0.3952
C20 C 0.3026(4) 0.6312(4) 0.3934(5)
C21 C 0.3185(5) 0.7016(5) 0.2987(5)
H17 H 0.3534 0.6767 0.2531
C22 C 0.2828(6) 0.8081(6) 0.2723(6)
H18 H 0.2922 0.8557 0.2083
C23 C 0.2324(6) 0.8443(6) 0.3417(7)
H19 H 0.2098 0.9167 0.3243
C24 C 0.2158(6) 0.7774(6) 0.4326(7)
H20 H 0.1810 0.8029 0.4779
C25 C 0.2506(5) 0.6698(5) 0.4597(6)
H21 H 0.2389 0.6230 0.5232
C26 C 0.3523(5) 0.4574(5) 0.3268(5)
C27 C 0.2579(6) 0.4710(6) 0.2829(6)
H22 H 0.1998 0.4993 0.3080
C28 C 0.2495(8) 0.4429(7) 0.2028(7)
H23 H 0.1862 0.4544 0.1723
C29 C 0.3351(8) 0.3979(7) 0.1677(7)
H24 H 0.3297 0.3792 0.1132
C30 C 0.4267(7) 0.3810(6) 0.2122(6)
H25 H 0.4841 0.3481 0.1899
C31 C 0.4362(6) 0.4120(5) 0.2907(6)
H26 H 0.5001 0.4019 0.3194
C32 C 0.0056(4) 0.4453(4) 0.4990(5)
H27 H 0.0238 0.4485 0.4324
H28 H -0.0590 0.4238 0.5123
C33 C 0.0472(4) 0.3370(5) 0.7098(5)
C34 C -0.0322(5) 0.2859(5) 0.7446(6)
H29 H -0.0574 0.2537 0.7078
C35 C -0.0742(6) 0.2828(7) 0.8347(7)
H30 H -0.1263 0.2468 0.8591
C36 C -0.0396(7) 0.3319(8) 0.8869(7)
H31 H -0.0682 0.3298 0.9470
C37 C 0.0361(7) 0.3839(7) 0.8523(7)
H32 H 0.0587 0.4184 0.8883
C38 C 0.0807(6) 0.3867(6) 0.7639(6)
H33 H 0.1334 0.4222 0.7412
C39 C 0.0973(5) 0.2219(5) 0.5828(5)
C40 C 0.0534(5) 0.2158(5) 0.5002(6)
H34 H 0.0178 0.2767 0.4495
C41 C 0.0634(6) 0.1184(7) 0.4944(7)
H35 H 0.0364 0.1139 0.4382
C42 C 0.1120(6) 0.0294(6) 0.5693(8)
H36 H 0.1166 -0.0355 0.5642
C43 C 0.1555(6) 0.0319(6) 0.6543(7)
H37 H 0.1881 -0.0300 0.7058
C44 C 0.1484(5) 0.1296(5) 0.6591(6)
H38 H 0.1782 0.1338 0.7141
P1A P 0.64375(11) 0.51077(12) 0.56331(12)
C19A C 0.5091(4) 0.5144(5) 0.5443(5)
H15A H 0.4699 0.5849 0.5322
H16A H 0.4859 0.4652 0.6048
C20A C 0.6974(4) 0.3688(4) 0.6066(5)
C21A C 0.6815(5) 0.2984(5) 0.7013(5)
H17A H 0.6466 0.3233 0.7469
C22A C 0.7172(6) 0.1919(6) 0.7277(6)
H18A H 0.7078 0.1443 0.7917
C23A C 0.7676(6) 0.1557(6) 0.6583(7)
H19A H 0.7902 0.0833 0.6757
C24A C 0.7842(6) 0.2226(6) 0.5674(7)
H20A H 0.8190 0.1971 0.5221
C25A C 0.7494(5) 0.3302(5) 0.5403(6)
H21A H 0.7611 0.3770 0.4768
C26A C 0.6477(5) 0.5426(5) 0.6732(5)
C27A C 0.7421(6) 0.5290(6) 0.7171(6)
H22A H 0.8002 0.5007 0.6920
C28A C 0.7505(8) 0.5571(7) 0.7972(7)
H23A H 0.8138 0.5456 0.8277
C29A C 0.6649(8) 0.6021(7) 0.8323(7)
H24A H 0.6703 0.6208 0.8868
C30A C 0.5733(7) 0.6190(6) 0.7878(6)
H25A H 0.5159 0.6519 0.8101
C31A C 0.5638(6) 0.5880(5) 0.7093(6)
H26A H 0.4999 0.5981 0.6806
P2A P -0.10215(11) 0.65347(11) 0.40824(12)
C32A C -0.0056(4) 0.5547(4) 0.5010(5)
H27A H -0.0238 0.5515 0.5676
H28A H 0.0590 0.5762 0.4877
C33A C -0.0472(4) 0.6630(5) 0.2902(5)
C34A C 0.0322(5) 0.7141(5) 0.2554(6)
H29A H 0.0574 0.7463 0.2922
C35A C 0.0742(6) 0.7172(7) 0.1653(7)
H30A H 0.1263 0.7532 0.1409
C36A C 0.0396(7) 0.6681(8) 0.1131(7)
H31A H 0.0682 0.6702 0.0530
C37A C -0.0361(7) 0.6161(7) 0.1477(7)
H32A H -0.0587 0.5816 0.1117
C38A C -0.0807(6) 0.6133(6) 0.2361(6)
H33A H -0.1334 0.5778 0.2588
C39A C -0.0973(5) 0.7781(5) 0.4172(5)
C40A C -0.0534(5) 0.7842(5) 0.4998(6)
H34A H -0.0178 0.7233 0.5505
C41A C -0.0634(6) 0.8816(7) 0.5056(7)
H35A H -0.0364 0.8861 0.5618
C42A C -0.1120(6) 0.9706(6) 0.4307(8)
H36A H -0.1166 1.0355 0.4358
C43A C -0.1555(6) 0.9681(6) 0.3457(7)
H37A H -0.1881 1.0300 0.2942
C44A C -0.1484(5) 0.8704(5) 0.3409(6)
H38A H -0.1782 0.8662 0.2859
Ag1A Ag -0.27755(3) 0.63205(4) 0.42511(4)
N1A N -0.3681(4) 0.7049(4) 0.2675(4)
N2A N -0.3839(4) 0.7856(4) 0.4648(4)
C1A C -0.3881(5) 0.6462(5) 0.2215(5)
H1A H -0.3564 0.5750 0.2467
C2A C -0.4138(5) 0.8103(5) 0.2289(6)
H2A H -0.4002 0.8529 0.2607
C3A C -0.4780(6) 0.8546(6) 0.1463(6)
H3A H -0.5066 0.9267 0.1218
C4A C -0.5014(6) 0.7923(5) 0.0976(5)
C5A C -0.4540(5) 0.6846(5) 0.1373(5)
C6A C -0.4754(7) 0.6167(7) 0.0925(6)
H4A H -0.4437 0.5454 0.1173
C7A C -0.5433(8) 0.6582(8) 0.0126(7)
H5A H -0.5581 0.6143 -0.0172
C8A C -0.5906(8) 0.7631(9) -0.0253(7)
H6A H -0.6382 0.7876 -0.0788
C9A C -0.5707(7) 0.8327(7) 0.0121(7)
H7A H -0.6012 0.9043 -0.0169
C10A C -0.3418(6) 0.8150(5) 0.5263(6)
H8A H -0.2718 0.8083 0.5263
C11A C -0.4869(6) 0.7988(6) 0.4630(6)
H9A H -0.5183 0.7793 0.4187
C12A C -0.5455(6) 0.8390(6) 0.5228(6)
H10A H -0.6156 0.8481 0.5174
C13A C -0.5024(6) 0.8670(5) 0.5923(6)
C14A C -0.3949(5) 0.8559(5) 0.5925(6)
C15A C -0.3472(7) 0.8866(6) 0.6592(7)
H11A H -0.2776 0.8831 0.6580
C16A C -0.4015(9) 0.9209(7) 0.7242(7)
H12A H -0.3693 0.9376 0.7700
C17A C -0.5067(9) 0.9312(6) 0.7225(8)
H13A H -0.5434 0.9567 0.7669
C18A C -0.5565(7) 0.9065(6) 0.6605(7)
H14A H -0.6266 0.9149 0.6617
Ag1A_2 Ag 0.72245(3) 0.63205(4) 0.42511(4)
P1A_2 P -0.35625(11) 0.51077(12) 0.56331(12)
F1 F 0.094(2) 0.6077(18) 0.873(2)
F2 F 0.1832(14) 0.7141(15) 0.8897(12)
F3 F 0.250(2) 0.546(2) 0.922(2)
O1 O 0.1668(19) 0.7751(13) 0.6836(14)
O2 O 0.3293(14) 0.6514(19) 0.7440(16)
O3 O 0.1872(19) 0.5919(13) 0.7036(12)
S1 S 0.2201(15) 0.6695(12) 0.7326(13)
C45 C 0.185(17) 0.633(18) 0.86(2)
N3 N 0.7634(9) 0.9399(11) 1.0771(10)
C47 C 0.7664(10) 0.8673(13) 1.0355(13)
H39 H 0.7274 0.8165 1.0636
C48 C 0.8251(12) 1.0110(12) 1.0381(13)
H40 H 0.8273 1.0610 1.0651
C49 C 0.8834(11) 1.0083(13) 0.9597(14)
H41 H 0.9246 1.0574 0.9343
C50 C 0.8839(9) 0.9358(13) 0.9163(11)
C51 C 0.8227(10) 0.8629(13) 0.9552(13)
C52 C 0.8238(11) 0.7876(14) 0.9142(14)
H42 H 0.7821 0.7388 0.9382
C53 C 0.8882(13) 0.7864(14) 0.8368(14)
H43 H 0.8907 0.7355 0.8099
C54 C 0.9479(13) 0.8601(17) 0.8002(13)
H44 H 0.9896 0.8591 0.7477
C55 C 0.9475(12) 0.9350(14) 0.8393(14)
H45 H 0.9889 0.9839 0.8148
F4? F 0.289(2) 0.616(2) 0.909(2)
F5? F 0.215(2) 0.5030(19) 0.891(2)
F6? F 0.125(4) 0.645(4) 0.897(3)
O4? O 0.280(2) 0.5933(17) 0.7038(15)
O5? O 0.118(2) 0.716(3) 0.686(2)
O6? O 0.274(2) 0.758(2) 0.722(2)
S2? S 0.220(3) 0.676(3) 0.730(2)
C46? C 0.21(2) 0.61(2) 0.86(3)
loop_
_geom_bond_atom_site_label_1
_geom_bond_atom_site_label_2
_geom_bond_site_symmetry_1
_geom_bond_site_symmetry_2
Ag1 P1 1_555 1_555
P1 C19 1_555 1_555
P2 Ag1 1_555 1_555
N1 Ag1 1_555 1_555
N2 Ag1 1_555 1_555
C1 N1 1_555 1_555
H1 C1 1_555 1_555
C2 N1 1_555 1_555
H2 C2 1_555 1_555
C3 C2 1_555 1_555
H3 C3 1_555 1_555
C4 C3 1_555 1_555
C5 C1 1_555 1_555
C6 C5 1_555 1_555
H4 C6 1_555 1_555
C7 C6 1_555 1_555
H5 C7 1_555 1_555
C8 C7 1_555 1_555
H6 C8 1_555 1_555
C9 C4 1_555 1_555
H7 C9 1_555 1_555
C10 N2 1_555 1_555
H8 C10 1_555 1_555
C11 N2 1_555 1_555
H9 C11 1_555 1_555
C12 C11 1_555 1_555
H10 C12 1_555 1_555
C13 C12 1_555 1_555
C14 C10 1_555 1_555
C15 C14 1_555 1_555
H11 C15 1_555 1_555
C16 C15 1_555 1_555
H12 C16 1_555 1_555
C17 C16 1_555 1_555
H13 C17 1_555 1_555
C18 C13 1_555 1_555
H14 C18 1_555 1_555
C19 H15 1_555 1_555
H16 C19 1_555 1_555
C20 P1 1_555 1_555
C21 C20 1_555 1_555
H17 C21 1_555 1_555
C22 C21 1_555 1_555
H18 C22 1_555 1_555
C23 C22 1_555 1_555
H19 C23 1_555 1_555
C24 C23 1_555 1_555
H20 C24 1_555 1_555
C25 C20 1_555 1_555
H21 C25 1_555 1_555
C26 P1 1_555 1_555
C27 C26 1_555 1_555
H22 C27 1_555 1_555
C28 C27 1_555 1_555
H23 C28 1_555 1_555
C29 C28 1_555 1_555
H24 C29 1_555 1_555
C30 C29 1_555 1_555
H25 C30 1_555 1_555
C31 C26 1_555 1_555
H26 C31 1_555 1_555
C32 P2 1_555 1_555
H27 C32 1_555 1_555
H28 C32 1_555 1_555
C33 P2 1_555 1_555
C34 C33 1_555 1_555
H29 C34 1_555 1_555
C35 C34 1_555 1_555
H30 C35 1_555 1_555
C36 C35 1_555 1_555
H31 C36 1_555 1_555
C37 C36 1_555 1_555
H32 C37 1_555 1_555
C38 C33 1_555 1_555
H33 C38 1_555 1_555
C39 P2 1_555 1_555
C40 C39 1_555 1_555
H34 C40 1_555 1_555
C41 C40 1_555 1_555
H35 C41 1_555 1_555
C42 C41 1_555 1_555
H36 C42 1_555 1_555
C43 C42 1_555 1_555
H37 C43 1_555 1_555
C44 C39 1_555 1_555
H38 C44 1_555 1_555
F1 C45 1_555 1_555
F2 C45 1_555 1_555
F3 C45 1_555 1_555
O1 S1 1_555 1_555
O2 S1 1_555 1_555
O3 S1 1_555 1_555
S1 C45 1_555 1_555
N3 C47 1_555 1_555
C47 H39 1_555 1_555
C48 N3 1_555 1_555
H40 C48 1_555 1_555
C49 C48 1_555 1_555
H41 C49 1_555 1_555
C50 C49 1_555 1_555
C51 C47 1_555 1_555
C52 C51 1_555 1_555
H42 C52 1_555 1_555
C53 C52 1_555 1_555
H43 C53 1_555 1_555
C54 C53 1_555 1_555
H44 C54 1_555 1_555
C55 C50 1_555 1_555
H45 C55 1_555 1_555
P1A C19A 1_555 1_555
C19A C19 1_555 1_555
H15A C19A 1_555 1_555
H16A C19A 1_555 1_555
C20A P1A 1_555 1_555
C21A C20A 1_555 1_555
H17A C21A 1_555 1_555
C22A C21A 1_555 1_555
H18A C22A 1_555 1_555
C23A C22A 1_555 1_555
H19A C23A 1_555 1_555
C24A C23A 1_555 1_555
H20A C24A 1_555 1_555
C25A C20A 1_555 1_555
H21A C25A 1_555 1_555
C26A P1A 1_555 1_555
C27A C26A 1_555 1_555
H22A C27A 1_555 1_555
C28A C27A 1_555 1_555
H23A C28A 1_555 1_555
C29A C28A 1_555 1_555
H24A C29A 1_555 1_555
C30A C29A 1_555 1_555
H25A C30A 1_555 1_555
C31A C26A 1_555 1_555
H26A C31A 1_555 1_555
P2A C32A 1_555 1_555
C32A C32 1_555 1_555
H27A C32A 1_555 1_555
H28A C32A 1_555 1_555
C33A P2A 1_555 1_555
C34A C33A 1_555 1_555
H29A C34A 1_555 1_555
C35A C34A 1_555 1_555
H30A C35A 1_555 1_555
C36A C35A 1_555 1_555
H31A C36A 1_555 1_555
C37A C36A 1_555 1_555
H32A C37A 1_555 1_555
C38A C33A 1_555 1_555
H33A C38A 1_555 1_555
C39A P2A 1_555 1_555
C40A C39A 1_555 1_555
H34A C40A 1_555 1_555
C41A C40A 1_555 1_555
H35A C41A 1_555 1_555
C42A C41A 1_555 1_555
H36A C42A 1_555 1_555
C43A C42A 1_555 1_555
H37A C43A 1_555 1_555
C44A C39A 1_555 1_555
H38A C44A 1_555 1_555
Ag1A P2A 1_555 1_555
N1A Ag1A 1_555 1_555
N2A Ag1A 1_555 1_555
C1A N1A 1_555 1_555
H1A C1A 1_555 1_555
C2A N1A 1_555 1_555
H2A C2A 1_555 1_555
C3A C2A 1_555 1_555
H3A C3A 1_555 1_555
C4A C3A 1_555 1_555
C5A C1A 1_555 1_555
C6A C5A 1_555 1_555
H4A C6A 1_555 1_555
C7A C6A 1_555 1_555
H5A C7A 1_555 1_555
C8A C7A 1_555 1_555
H6A C8A 1_555 1_555
C9A C4A 1_555 1_555
H7A C9A 1_555 1_555
C10A N2A 1_555 1_555
H8A C10A 1_555 1_555
C11A N2A 1_555 1_555
H9A C11A 1_555 1_555
C12A C11A 1_555 1_555
H10A C12A 1_555 1_555
C13A C12A 1_555 1_555
C14A C10A 1_555 1_555
C15A C14A 1_555 1_555
H11A C15A 1_555 1_555
C16A C15A 1_555 1_555
H12A C16A 1_555 1_555
C17A C16A 1_555 1_555
H13A C17A 1_555 1_555
C18A C13A 1_555 1_555
H14A C18A 1_555 1_555
Ag1A_2 P1A 1_555 1_555
P1A_2 Ag1A 1_555 1_555
C4 C5 1_555 1_555
C8 C9 1_555 1_555
C13 C14 1_555 1_555
C17 C18 1_555 1_555
C24 C25 1_555 1_555
C30 C31 1_555 1_555
C37 C38 1_555 1_555
C43 C44 1_555 1_555
C50 C51 1_555 1_555
C54 C55 1_555 1_555
C24A C25A 1_555 1_555
C30A C31A 1_555 1_555
C37A C38A 1_555 1_555
C43A C44A 1_555 1_555
C4A C5A 1_555 1_555
C8A C9A 1_555 1_555
C13A C14A 1_555 1_555
C17A C18A 1_555 1_555

#END
