
#######################################################################
#
#                 Cambridge Crystallographic Data Centre
#                                CCDC 
#
#######################################################################
#
# If this CIF has been generated from an entry in the Cambridge 
# Structural Database, then it will include bibliographic, chemical, 
# crystal, experimental, refinement or atomic coordinate data resulting 
# from the CCDC's data processing and validation procedures.
#
#######################################################################

data_BUGWUX
_symmetry_cell_setting           monoclinic
_symmetry_space_group_name_H-M   'C 2/c'
_symmetry_Int_Tables_number      15
_space_group_name_Hall           '-C 2yn'
loop_
_symmetry_equiv_pos_site_id
_symmetry_equiv_pos_as_xyz
1 x,y,z
2 -x,y,1/2-z
3 1/2+x,1/2+y,z
4 1/2-x,1/2+y,1/2-z
5 -x,-y,-z
6 x,-y,1/2+z
7 1/2-x,1/2-y,-z
8 1/2+x,1/2-y,1/2+z
_cell_length_a                   20.797(6)
_cell_length_b                   31.115(10)
_cell_length_c                   15.688(5)
_cell_angle_alpha                90
_cell_angle_beta                 107.596(6)
_cell_angle_gamma                90
_cell_volume                     9676.7
loop_
_atom_site_label
_atom_site_type_symbol
_atom_site_fract_x
_atom_site_fract_y
_atom_site_fract_z
Cu1 Cu 0.78741(2) 0.118958(13) 0.19005(3)
Cu2 Cu 0.26973(2) 0.145212(13) 0.15339(3)
O1 O 0.75784(13) -0.06398(8) -0.27450(17)
O2 O 0.75112(14) -0.08403(8) -0.14016(17)
O3 O 0.69480(13) 0.13373(8) 0.12278(18)
O4 O 0.65314(13) 0.13926(8) 0.23808(17)
N1 N 0.80244(16) 0.09829(9) 0.0642(2)
N2 N 0.33792(16) 0.13655(10) 0.0685(2)
N3 N 0.82091(16) 0.17958(9) 0.2044(2)
N4 N 0.88203(16) 0.10819(10) 0.2678(2)
N5 N 0.27666(15) 0.20926(9) 0.1589(2)
N6 N 0.17976(15) 0.16019(10) 0.0651(2)
C1 C 0.8205(2) 0.12815(12) 0.0122(3)
H1 H 0.8293 0.1568 0.0338
C2 C 0.8263(2) 0.11830(12) -0.0699(3)
H2 H 0.8397 0.1398 -0.1042
C3 C 0.8127(2) 0.07704(12) -0.1031(3)
H3 H 0.8170 0.0698 -0.1600
C4 C 0.7925(2) 0.04619(12) -0.0523(3)
C5 C 0.78951(19) 0.05832(11) 0.0324(3)
H4 H 0.7778 0.0372 0.0688
C6 C 0.7757(2) 0.00199(12) -0.0841(3)
H5 H 0.7725 -0.0189 -0.0414
C7 C 0.7647(2) -0.01104(12) -0.1678(3)
H6 H 0.7621 0.0102 -0.2122
C8 C 0.75646(19) -0.05625(12) -0.1964(3)
C9 C 0.4040(2) 0.14282(12) 0.1049(3)
H7 H 0.4184 0.1555 0.1627
C10 C 0.4533(2) 0.13251(12) 0.0659(3)
C11 C 0.4302(2) 0.11429(17) -0.0195(3)
H8 H 0.4612 0.1066 -0.0507
C12 C 0.3624(2) 0.10762(18) -0.0576(3)
H9 H 0.3463 0.0956 -0.1159
C13 C 0.3180(2) 0.11804(12) -0.0128(3)
H10 H 0.2714 0.1121 -0.0397
C14 C 0.5243(2) 0.13734(13) 0.1178(3)
H11 H 0.5324 0.1457 0.1784
C15 C 0.5782(2) 0.13174(12) 0.0927(3)
H12 H 0.5728 0.1252 0.0318
C16 C 0.64766(19) 0.13520(11) 0.1559(3)
C17 C 0.7852(2) 0.21460(12) 0.1663(3)
H13 H 0.7403 0.2109 0.1282
C18 C 0.8119(2) 0.25553(14) 0.1810(3)
C19 C 0.8768(3) 0.26016(14) 0.2376(4)
H14 H 0.8961 0.2880 0.2499
C20 C 0.9140(2) 0.22463(14) 0.2764(3)
H15 H 0.9588 0.2277 0.3150
C21 C 0.8847(2) 0.18440(13) 0.2578(3)
C22 C 0.91919(19) 0.14380(13) 0.2942(3)
C23 C 0.9845(2) 0.14053(16) 0.3506(3)
H16 H 1.0103 0.1658 0.3708
C24 C 1.0119(2) 0.10119(18) 0.3773(3)
H17 H 1.0569 0.0992 0.4157
C25 C 0.9749(2) 0.06418(16) 0.3492(3)
C26 C 0.9090(2) 0.06928(14) 0.2934(3)
H18 H 0.8822 0.0444 0.2728
C27 C 0.7695(3) 0.29353(15) 0.1363(4)
H19 H 0.7693 0.3153 0.1814
H20 H 0.7232 0.2840 0.1067
H21 H 0.7886 0.3059 0.0918
C28 C 1.0034(3) 0.01951(18) 0.3764(3)
H22 H 1.0301 0.0105 0.3377
H23 H 0.9662 -0.0008 0.3703
H24 H 1.0321 0.0200 0.4387
C29 C 0.33163(19) 0.23208(12) 0.2049(2)
H25 H 0.3694 0.2169 0.2422
C30 C 0.3354(2) 0.27646(12) 0.2003(3)
C31 C 0.2792(2) 0.29791(13) 0.1456(3)
H26 H 0.2796 0.3283 0.1406
C32 C 0.2224(2) 0.27483(13) 0.0985(3)
H27 H 0.1838 0.2894 0.0618
C33 C 0.22251(18) 0.23047(12) 0.1055(2)
C34 C 0.16737(18) 0.20233(12) 0.0560(2)
C35 C 0.1048(2) 0.21790(13) 0.0033(3)
H28 H 0.0957 0.2479 -0.0014
C36 C 0.0565(2) 0.18822(14) -0.0419(3)
H29 H 0.0136 0.1981 -0.0775
C37 C 0.0699(2) 0.14483(14) -0.0357(3)
C38 C 0.13265(19) 0.13203(13) 0.0200(2)
H30 H 0.1426 0.1022 0.0265
C39 C 0.3985(2) 0.30016(13) 0.2512(3)
H31 H 0.4004 0.3278 0.2222
H32 H 0.4382 0.2830 0.2518
H33 H 0.3982 0.3051 0.3127
C40 C 0.0184(2) 0.11207(17) -0.0856(3)
H34 H -0.0268 0.1214 -0.0865
H35 H 0.0285 0.0842 -0.0555
H36 H 0.0203 0.1094 -0.1471
Cu1E Cu 0.78741(2) -0.118958(13) -0.30995(3)
Cu2A Cu 0.73027(2) 0.145212(13) 0.34661(3)
Cu2D Cu 0.73027(2) -0.145212(13) -0.15339(3)
O1E O 0.75784(13) 0.06398(8) 0.22550(17)
O2D O 0.24888(14) 0.08403(8) 0.14016(17)
O4A O 0.34686(13) 0.13926(8) 0.26192(17)
Cl1 Cl 0.15922(5) 0.05732(3) 0.83614(7)
O5 O 0.1552(2) 0.10200(11) 0.8276(3)
O6 O 0.22850(18) 0.04301(13) 0.8543(3)
O7 O 0.11884(17) 0.03601(11) 0.7570(2)
O8 O 0.13630(18) 0.04460(11) 0.9105(2)
Cl2 Cl 0.57992(7) 0.24272(4) -0.00039(8)
O9 O 0.5850(2) 0.28631(13) -0.0232(4)
O10 O 0.6347(2) 0.21753(16) -0.0058(5)
O11 O 0.5209(2) 0.22489(18) -0.0592(4)
O12 O 0.5754(5) 0.23924(15) 0.0845(3)
O13 O 0.5556(5) 0.0830(4) 0.8786(7)
H37 H 0.5436 0.0599 0.8970
C41 C 0.6239(6) 0.0793(6) 0.8783(8)
H38 H 0.6392 0.0492 0.8910
H39 H 0.6530 0.0978 0.9258
C42 C 0.6300(8) 0.0927(6) 0.7891(8)
H40 H 0.6305 0.0671 0.7529
H41 H 0.6720 0.1088 0.7979
H42 H 0.5916 0.1109 0.7582
O15 O 0.5547(7) 0.0277(5) -0.0091(9)
H49 H 0.5234 0.0321 0.0133
C45 C 0.6143(8) 0.0150(7) 0.0596(10)
H50 H 0.6496 0.0373 0.0671
H51 H 0.6317 -0.0123 0.0428
C46 C 0.5972(10) 0.0092(7) 0.1475(12)
H52 H 0.6373 -0.0008 0.1942
H53 H 0.5610 -0.0120 0.1390
H54 H 0.5824 0.0368 0.1654
O14? O 0.4981(5) 0.1639(4) 0.8322(7)
H43? H 0.4703 0.1614 0.7810
C43? C 0.5586(6) 0.1461(5) 0.8329(10)
H44? H 0.5859 0.1726 0.8391
H45? H 0.5478 0.1386 0.7688
C44? C 0.6159(7) 0.1132(5) 0.8724(10)
H46? H 0.6018 0.0930 0.9112
H47? H 0.6566 0.1284 0.9074
H48? H 0.6256 0.0974 0.8237
loop_
_geom_bond_atom_site_label_1
_geom_bond_atom_site_label_2
_geom_bond_site_symmetry_1
_geom_bond_site_symmetry_2
Cu1 O3 1_555 1_555
Cu2 N2 1_555 1_555
O1 C8 1_555 1_555
O2 C8 1_555 1_555
O3 C16 1_555 1_555
O4 C16 1_555 1_555
N1 Cu1 1_555 1_555
N2 C9 1_555 1_555
N3 Cu1 1_555 1_555
N4 Cu1 1_555 1_555
N5 Cu2 1_555 1_555
N6 Cu2 1_555 1_555
C1 N1 1_555 1_555
H1 C1 1_555 1_555
C2 C1 1_555 1_555
H2 C2 1_555 1_555
C3 C2 1_555 1_555
H3 C3 1_555 1_555
C4 C3 1_555 1_555
C5 N1 1_555 1_555
H4 C5 1_555 1_555
C6 C4 1_555 1_555
H5 C6 1_555 1_555
C7 C6 1_555 1_555
H6 C7 1_555 1_555
C8 C7 1_555 1_555
C9 H7 1_555 1_555
C10 C9 1_555 1_555
C11 C10 1_555 1_555
H8 C11 1_555 1_555
C12 C11 1_555 1_555
H9 C12 1_555 1_555
C13 N2 1_555 1_555
H10 C13 1_555 1_555
C14 C10 1_555 1_555
H11 C14 1_555 1_555
C15 C14 1_555 1_555
H12 C15 1_555 1_555
C16 C15 1_555 1_555
C17 N3 1_555 1_555
H13 C17 1_555 1_555
C18 C17 1_555 1_555
C19 C18 1_555 1_555
H14 C19 1_555 1_555
C20 C19 1_555 1_555
H15 C20 1_555 1_555
C21 N3 1_555 1_555
C22 N4 1_555 1_555
C23 C22 1_555 1_555
H16 C23 1_555 1_555
C24 C23 1_555 1_555
H17 C24 1_555 1_555
C25 C24 1_555 1_555
C26 N4 1_555 1_555
H18 C26 1_555 1_555
C27 C18 1_555 1_555
H19 C27 1_555 1_555
H20 C27 1_555 1_555
H21 C27 1_555 1_555
C28 C25 1_555 1_555
H22 C28 1_555 1_555
H23 C28 1_555 1_555
H24 C28 1_555 1_555
C29 N5 1_555 1_555
H25 C29 1_555 1_555
C30 C29 1_555 1_555
C31 C30 1_555 1_555
H26 C31 1_555 1_555
C32 C31 1_555 1_555
H27 C32 1_555 1_555
C33 N5 1_555 1_555
C34 N6 1_555 1_555
C35 C34 1_555 1_555
H28 C35 1_555 1_555
C36 C35 1_555 1_555
H29 C36 1_555 1_555
C37 C36 1_555 1_555
C38 N6 1_555 1_555
H30 C38 1_555 1_555
C39 C30 1_555 1_555
H31 C39 1_555 1_555
H32 C39 1_555 1_555
H33 C39 1_555 1_555
C40 C37 1_555 1_555
H34 C40 1_555 1_555
H35 C40 1_555 1_555
H36 C40 1_555 1_555
Cl1 O5 1_555 1_555
O6 Cl1 1_555 1_555
O7 Cl1 1_555 1_555
O8 Cl1 1_555 1_555
Cl2 O9 1_555 1_555
O10 Cl2 1_555 1_555
O11 Cl2 1_555 1_555
O12 Cl2 1_555 1_555
O13 H37 1_555 1_555
C41 O13 1_555 1_555
H38 C41 1_555 1_555
H39 C41 1_555 1_555
C42 C41 1_555 1_555
H40 C42 1_555 1_555
H41 C42 1_555 1_555
H42 C42 1_555 1_555
O15 H49 1_555 1_555
C45 O15 1_555 1_555
H50 C45 1_555 1_555
H51 C45 1_555 1_555
C46 C45 1_555 1_555
H52 C46 1_555 1_555
H53 C46 1_555 1_555
H54 C46 1_555 1_555
Cu1E O1 1_555 1_555
Cu2A O4 1_555 1_555
Cu2D O2 1_555 1_555
O1E Cu1 1_555 1_555
O2D Cu2 1_555 1_555
O4A Cu2 1_555 1_555
C4 C5 1_555 1_555
C12 C13 1_555 1_555
C20 C21 1_555 1_555
C21 C22 1_555 1_555
C25 C26 1_555 1_555
C32 C33 1_555 1_555
C33 C34 1_555 1_555
C37 C38 1_555 1_555

#END
