
#######################################################################
#
#                 Cambridge Crystallographic Data Centre
#                                CCDC 
#
#######################################################################
#
# If this CIF has been generated from an entry in the Cambridge 
# Structural Database, then it will include bibliographic, chemical, 
# crystal, experimental, refinement or atomic coordinate data resulting 
# from the CCDC's data processing and validation procedures.
#
#######################################################################

data_BUHNUN03
_symmetry_cell_setting           orthorhombic
_symmetry_space_group_name_H-M   'P c a b'
_symmetry_Int_Tables_number      61
_space_group_name_Hall           '-P 2bc 2ac'
loop_
_symmetry_equiv_pos_site_id
_symmetry_equiv_pos_as_xyz
1 x,y,z
2 -x,1/2-y,1/2+z
3 1/2+x,-y,1/2-z
4 1/2-x,1/2+y,-z
5 -x,-y,-z
6 x,1/2+y,1/2-z
7 1/2-x,y,1/2+z
8 1/2+x,1/2-y,z
_cell_length_a                   8.266(5)
_cell_length_b                   14.203(5)
_cell_length_c                   14.646(5)
_cell_angle_alpha                90
_cell_angle_beta                 90
_cell_angle_gamma                90
_cell_volume                     1719.47
loop_
_atom_site_label
_atom_site_type_symbol
_atom_site_fract_x
_atom_site_fract_y
_atom_site_fract_z
Mn1 Mn 0.31254(3) 0.471488(18) 0.146813(18)
O1 O 0.57447(16) 0.43502(9) 0.12755(9)
H1 H 0.623(3) 0.4494(15) 0.1767(11)
H2 H 0.603(3) 0.3807(9) 0.1092(15)
O2 O 0.23789(17) 0.32621(9) 0.12386(9)
O3 O 0.27584(18) 0.45293(9) -0.00233(9)
H3 H 0.3032 0.5018 -0.0438
O4 O 0.17066(16) 0.43733(12) -0.21064(9)
C1 C 0.0462(2) 0.43904(14) -0.16254(12)
C2 C 0.2100(2) 0.36569(13) -0.03470(12)
H4 H 0.2827 0.3392 -0.0828
O5 O 0.3959(2) 0.61242(10) 0.12493(10)
H5 H 0.414(4) 0.6466(14) 0.1714(10)
H6 H 0.371(4) 0.6460(14) 0.0790(10)
O6 O 0.1548(2) 0.21482(10) 0.02883(9)
C3 C 0.2002(2) 0.29670(13) 0.04536(12)
O7 O -0.0794(2) 0.48226(13) -0.18527(11)
C4 C 0.0431(2) 0.38183(13) -0.07491(12)
H7 H -0.0078 0.3201 -0.0874
H8 H -0.0247 0.4149 -0.0294
Mn1F Mn 0.18746(3) 0.471488(18) -0.353187(18)
Mn1D Mn -0.31254(3) 0.528512(18) -0.146813(18)
O4F O 0.32934(16) 0.43733(12) 0.28936(9)
O7D O 0.0794(2) 0.51774(13) 0.18527(11)
O8 O 0.4733(3) 0.72830(13) 0.25980(12)
H9 H 0.5659(11) 0.7188(16) 0.2834(15)
H10 H 0.4026(17) 0.6927(15) 0.2841(15)
loop_
_geom_bond_atom_site_label_1
_geom_bond_atom_site_label_2
_geom_bond_site_symmetry_1
_geom_bond_site_symmetry_2
Mn1 O1 1_555 1_555
O1 H1 1_555 1_555
H2 O1 1_555 1_555
O2 Mn1 1_555 1_555
O3 Mn1 1_555 1_555
H3 O3 1_555 1_555
O4 C1 1_555 1_555
C1 O7 1_555 1_555
C2 O3 1_555 1_555
H4 C2 1_555 1_555
O5 Mn1 1_555 1_555
H5 O5 1_555 1_555
H6 O5 1_555 1_555
O6 C3 1_555 1_555
C3 O2 1_555 1_555
O7 Mn1D 1_555 1_555
C4 C1 1_555 1_555
H7 C4 1_555 1_555
H8 C4 1_555 1_555
O8 H9 1_555 1_555
H10 O8 1_555 1_555
Mn1F O4 1_555 1_555
O4F Mn1 1_555 1_555
O7D Mn1 1_555 1_555
C2 C3 1_555 1_555
C2 C4 1_555 1_555

#END
