
#######################################################################
#
#                 Cambridge Crystallographic Data Centre
#                                CCDC 
#
#######################################################################
#
# If this CIF has been generated from an entry in the Cambridge 
# Structural Database, then it will include bibliographic, chemical, 
# crystal, experimental, refinement or atomic coordinate data resulting 
# from the CCDC's data processing and validation procedures.
#
#######################################################################

data_BUHNUN
_symmetry_cell_setting           orthorhombic
_symmetry_space_group_name_H-M   'P c a b'
_symmetry_Int_Tables_number      61
_space_group_name_Hall           '-P 2bc 2ac'
loop_
_symmetry_equiv_pos_site_id
_symmetry_equiv_pos_as_xyz
1 x,y,z
2 -x,1/2-y,1/2+z
3 1/2+x,-y,1/2-z
4 1/2-x,1/2+y,-z
5 -x,-y,-z
6 x,1/2+y,1/2-z
7 1/2-x,y,1/2+z
8 1/2+x,1/2-y,z
_cell_length_a                   14.201(8)
_cell_length_b                   14.656(4)
_cell_length_c                   8.265(5)
_cell_angle_alpha                90
_cell_angle_beta                 90
_cell_angle_gamma                90
_cell_volume                     1720.19
loop_
_atom_site_label
_atom_site_type_symbol
_atom_site_fract_x
_atom_site_fract_y
_atom_site_fract_z
Mn1 Mn 0.47010 0.35320 0.31190
O1 O 0.32520 0.37490 0.23900
O2 O 0.21440 0.47300 0.15600
O3 O 0.43610 0.71240 0.16700
O4 O 0.48530 0.68660 -0.07700
O5 O 0.45460 0.50110 0.27500
C1 C 0.30100 0.45600 0.20000
C2 C 0.36700 0.53350 0.21000
C3 C 0.38500 0.57600 0.04500
C4 C 0.43770 0.66060 0.04700
O6 O 0.43370 0.37330 0.57500
O7 O 0.61340 0.37180 0.39000
H1 H 0.34200 0.58100 0.27300
H2 H 0.32800 0.58500 -0.00900
H3 H 0.41600 0.53300 -0.01900
H4 H 0.49200 0.54300 0.32600
H5 H 0.38400 0.40700 0.60100
H6 H 0.45100 0.31100 0.57600
H7 H 0.64700 0.42400 0.37700
Mn1E Mn 0.47010 0.85320 0.18810
Mn1D Mn 0.52990 0.64680 -0.31190
O3E O 0.43610 0.21240 0.33300
O4D O 0.51470 0.31340 0.07700
O8 O 0.27490 0.26330 0.96400
H8 H 0.29300 0.30000 1.05800
H9 H 0.31300 0.21700 0.94200
loop_
_geom_bond_atom_site_label_1
_geom_bond_atom_site_label_2
_geom_bond_site_symmetry_1
_geom_bond_site_symmetry_2
Mn1 O1 1_555 1_555
O1 C1 1_555 1_555
O2 C1 1_555 1_555
O3 C4 1_555 1_555
O4 C4 1_555 1_555
O5 Mn1 1_555 1_555
C1 C2 1_555 1_555
C2 O5 1_555 1_555
C3 C2 1_555 1_555
C4 C3 1_555 1_555
O6 Mn1 1_555 1_555
O7 Mn1 1_555 1_555
H1 C2 1_555 1_555
H2 C3 1_555 1_555
H3 C3 1_555 1_555
H4 O5 1_555 1_555
H5 O6 1_555 1_555
H6 O6 1_555 1_555
H7 O7 1_555 1_555
O8 H8 1_555 1_555
H9 O8 1_555 1_555
Mn1E O3 1_555 1_555
Mn1D O4 1_555 1_555
O3E Mn1 1_555 1_555
O4D Mn1 1_555 1_555

#END
