
#######################################################################
#
#                 Cambridge Crystallographic Data Centre
#                                CCDC 
#
#######################################################################
#
# If this CIF has been generated from an entry in the Cambridge 
# Structural Database, then it will include bibliographic, chemical, 
# crystal, experimental, refinement or atomic coordinate data resulting 
# from the CCDC's data processing and validation procedures.
#
#######################################################################

data_BUJFUJ
_symmetry_cell_setting           monoclinic
_symmetry_space_group_name_H-M   'P 21/n'
_symmetry_Int_Tables_number      14
_space_group_name_Hall           '-P 2yn'
loop_
_symmetry_equiv_pos_site_id
_symmetry_equiv_pos_as_xyz
1 x,y,z
2 1/2-x,1/2+y,1/2-z
3 -x,-y,-z
4 1/2+x,1/2-y,1/2+z
_cell_length_a                   13.8585(7)
_cell_length_b                   21.4521(11)
_cell_length_c                   21.8852(12)
_cell_angle_alpha                90
_cell_angle_beta                 100.3010(10)
_cell_angle_gamma                90
_cell_volume                     6401.47
loop_
_atom_site_label
_atom_site_type_symbol
_atom_site_fract_x
_atom_site_fract_y
_atom_site_fract_z
Mo1 Mo 0.05479(5) 0.10918(3) 0.87662(3)
Mo2 Mo -0.16585(5) 0.28040(4) 0.88947(3)
Mo3 Mo 0.24019(5) 0.19907(4) 0.85033(3)
Mo4 Mo 0.19124(5) 0.35104(3) 0.77193(3)
Mo5 Mo -0.19968(5) 0.14990(3) 0.80497(4)
Mo6 Mo -0.24624(5) 0.28711(4) 0.73503(3)
Mo7 Mo 0.02873(6) 0.39052(3) 0.86155(3)
Mo8 Mo -0.02148(6) 0.10404(3) 0.70537(3)
Mo9 Mo 0.15202(5) 0.20445(4) 0.68064(3)
Mo10 Mo 0.09741(6) 0.24597(4) 0.94955(3)
Mo11 Mo -0.08620(6) 0.23523(4) 0.62702(3)
Mo12 Mo -0.03844(6) 0.38728(4) 0.70614(4)
Cu1 Cu -0.16864(7) -0.02105(5) 0.61452(5)
Cu2 Cu 0.30548(7) 0.03962(5) 0.92597(5)
Si1 Si 0.00018(13) 0.24473(8) 0.78825(8)
O1 O 0.0719(3) 0.2106(2) 0.8454(2)
O2 O 0.0077(3) 0.2089(2) 0.7240(2)
O3 O -0.1120(3) 0.2420(2) 0.8004(2)
O4 O 0.0333(3) 0.3172(2) 0.7840(2)
O5 O -0.0884(4) 0.3562(2) 0.8734(2)
O6 O -0.0459(4) 0.3200(2) 0.6516(2)
O7 O 0.0395(3) 0.0916(2) 0.7872(2)
O8 O -0.0469(4) 0.0302(2) 0.6789(3)
O9 O 0.2368(4) 0.2859(2) 0.8276(2)
O10 O -0.0902(4) 0.1480(2) 0.6312(2)
O11 O -0.0808(3) 0.1239(2) 0.8607(2)
O12 O -0.1896(4) 0.2474(2) 0.6691(2)
O13 O 0.0932(4) 0.3267(2) 0.9157(2)
O14 O -0.0498(4) 0.2526(2) 0.9339(2)
O15 O -0.1391(4) 0.1218(2) 0.7412(2)
O16 O 0.0713(3) 0.1554(2) 0.9508(2)
O17 O 0.1960(3) 0.1192(2) 0.8763(2)
O18 O 0.2213(4) 0.2287(2) 0.9329(2)
O19 O 0.2116(4) 0.1802(2) 0.7674(2)
O20 O 0.0954(4) 0.1189(2) 0.6772(2)
O21 O 0.2455(4) 0.1890(3) 0.6438(3)
O22 O -0.1363(5) 0.2476(3) 0.5521(3)
O23 O 0.1210(5) 0.2588(3) 1.0261(3)
O24 O 0.3625(4) 0.1882(3) 0.8677(3)
O25 O -0.3545(4) 0.3125(3) 0.6952(3)
O26 O -0.0265(4) 0.4306(2) 0.7856(3)
O27 O 0.0533(4) 0.2255(3) 0.6150(2)
O28 O 0.2961(4) 0.3849(3) 0.7602(3)
O29 O -0.2591(3) 0.3116(2) 0.8167(2)
O30 O 0.0435(5) 0.4524(3) 0.9105(3)
O31 O -0.2875(4) 0.2031(2) 0.7540(2)
O32 O -0.1625(4) 0.3542(2) 0.7258(2)
O33 O 0.0567(4) 0.0356(2) 0.9034(3)
O34 O -0.2749(4) 0.0906(3) 0.8159(3)
O35 O 0.0982(4) 0.3975(2) 0.7101(2)
O36 O -0.2241(4) 0.2024(2) 0.8764(2)
O37 O 0.1775(4) 0.2846(2) 0.7080(2)
O38 O -0.0810(5) 0.4460(3) 0.6580(3)
O39 O 0.1586(4) 0.4011(2) 0.8336(2)
O40 O -0.2243(4) 0.3090(3) 0.9445(3)
N1 N 0.3476(5) 0.0403(3) 0.8453(3)
N2 N 0.2346(5) -0.0428(3) 0.9286(3)
N3 N 0.2507(5) 0.0546(3) 1.0008(3)
N4 N -0.0924(5) -0.0931(3) 0.5935(4)
N5 N 0.4394(5) 0.0780(3) 0.9532(3)
N6 N -0.1480(5) 0.0079(4) 0.5316(3)
C1 C 0.1903(6) -0.0481(4) 0.9787(4)
C2 C 0.2547(6) 0.1091(4) 1.0310(4)
H1 H 0.2898 0.1419 1.0178
C3 C 0.2003(5) 0.0066(4) 1.0203(3)
C4 C 0.4368(6) 0.0658(4) 0.8446(4)
C5 C 0.1375(7) -0.1015(4) 0.9883(4)
H2 H 0.1086 -0.1050 1.0233
C6 C 0.4704(7) 0.0743(5) 0.7908(4)
H3 H 0.5329 0.0904 0.7915
C7 C 0.2896(7) 0.0270(4) 0.7907(4)
H4 H 0.2273 0.0111 0.7911
C8 C 0.2092(6) 0.1183(4) 1.0804(4)
H5 H 0.2096 0.1573 1.0989
C9 C 0.1564(7) 0.0121(5) 1.0718(4)
H6 H 0.1235 -0.0216 1.0852
C10 C 0.3186(8) 0.0360(4) 0.7340(4)
H7 H 0.2770 0.0269 0.6968
C11 C 0.4123(8) 0.0591(5) 0.7350(4)
H8 H 0.4358 0.0643 0.6981
C12 C 0.2273(7) -0.0894(4) 0.8885(4)
H9 H 0.2595 -0.0860 0.8548
C13 C 0.4881(6) 0.0872(4) 0.9066(4)
C14 C 0.4768(6) 0.1002(5) 1.0089(4)
H10 H 0.4446 0.0918 1.0418
C15 C -0.0850(7) -0.0931(5) 0.5317(5)
C16 C 0.5624(7) 0.1358(5) 1.0203(5)
H11 H 0.5851 0.1521 1.0596
C17 C 0.5759(6) 0.1198(5) 0.9153(5)
H12 H 0.6100 0.1238 0.8826
C18 C -0.0572(7) -0.1402(5) 0.6316(7)
H13 H -0.0637 -0.1393 0.6731
C19 C -0.1742(7) 0.0628(6) 0.5052(5)
H14 H -0.1957 0.0938 0.5293
C20 C 0.1618(7) 0.0679(5) 1.1029(4)
H15 H 0.1343 0.0722 1.1384
C21 C 0.1747(8) -0.1425(4) 0.8942(5)
H16 H 0.1696 -0.1739 0.8645
C22 C -0.1172(7) -0.0366(6) 0.4971(5)
C23 C 0.6133(7) 0.1465(6) 0.9722(6)
H17 H 0.6700 0.1705 0.9779
C24 C -0.1414(10) 0.0301(10) 0.4093(6)
H18 H -0.1407 0.0370 0.3674
C25 C 0.1289(8) -0.1483(5) 0.9459(5)
H19 H 0.0928 -0.1838 0.9512
C26 C -0.1126(9) -0.0252(8) 0.4347(6)
H20 H -0.0897 -0.0560 0.4110
C27 C -0.0440(9) -0.1437(7) 0.5080(8)
H21 H -0.0400 -0.1454 0.4660
C28 C -0.0081(10) -0.1931(7) 0.5478(10)
H22 H 0.0179 -0.2281 0.5317
C29 C -0.1712(8) 0.0758(8) 0.4441(6)
H23 H -0.1892 0.1148 0.4272
C30 C -0.0106(10) -0.1906(6) 0.6082(9)
H24 H 0.0182 -0.2220 0.6347
C31 C -0.4206(5) 0.0881(3) 0.5879(3)
C32 C -0.3445(5) 0.0392(3) 0.5849(3)
C33 C -0.4065(7) 0.1386(4) 0.6270(4)
H25 H -0.3475 0.1446 0.6541
C34 C -0.4836(7) 0.1806(4) 0.6244(4)
H26 H -0.4769 0.2151 0.6507
C35 C -0.5683(6) 0.1715(4) 0.5839(4)
H27 H -0.6199 0.1995 0.5821
C36 C -0.5777(6) 0.1188(4) 0.5443(4)
H28 H -0.6360 0.1122 0.5165
N7 N -0.5039(4) 0.0787(3) 0.5464(3)
O41 O -0.3641(4) -0.0048(2) 0.5475(2)
O42 O -0.2629(4) 0.0451(3) 0.6214(3)
O43 O -0.2053(5) -0.0612(3) 0.6874(3)
H29 H -0.2088 -0.0454 0.7227
H30 H -0.2137 -0.0999 0.6935
Cu3 Cu -0.5000 0.0000 0.5000
Mo1B Mo -1.05479(5) -0.10918(3) 0.12338(3)
Mo2B Mo -0.83415(5) -0.28040(4) 0.11053(3)
Mo3B Mo -1.24019(5) -0.19907(4) 0.14967(3)
Mo4B Mo -1.19124(5) -0.35104(3) 0.22807(3)
Mo5B Mo -0.80032(5) -0.14990(3) 0.19503(4)
Mo6B Mo -0.75376(5) -0.28711(4) 0.26497(3)
Mo7B Mo -1.02873(6) -0.39052(3) 0.13845(3)
Mo8B Mo -0.97852(6) -0.10404(3) 0.29463(3)
Mo9B Mo -1.15202(5) -0.20445(4) 0.31936(3)
Mo10B Mo -1.09741(6) -0.24597(4) 0.05045(3)
Mo11B Mo -0.91380(6) -0.23523(4) 0.37298(3)
Mo12B Mo -0.96156(6) -0.38728(4) 0.29386(4)
Cu1B Cu -0.83136(7) 0.02105(5) 0.38548(5)
Cu2B Cu -1.30548(7) -0.03962(5) 0.07403(5)
Si1B Si -1.00018(13) -0.24473(8) 0.21175(8)
O1B O -1.0719(3) -0.2106(2) 0.1546(2)
O2B O -1.0077(3) -0.2089(2) 0.2760(2)
O3B O -0.8880(3) -0.2420(2) 0.1996(2)
O4B O -1.0333(3) -0.3172(2) 0.2160(2)
O5B O -0.9116(4) -0.3562(2) 0.1266(2)
O6B O -0.9541(4) -0.3200(2) 0.3484(2)
O7B O -1.0395(3) -0.0916(2) 0.2128(2)
O8B O -0.9531(4) -0.0302(2) 0.3211(3)
O9B O -1.2368(4) -0.2859(2) 0.1724(2)
O10B O -0.9098(4) -0.1480(2) 0.3688(2)
O11B O -0.9192(3) -0.1239(2) 0.1393(2)
O12B O -0.8104(4) -0.2474(2) 0.3309(2)
O13B O -1.0932(4) -0.3267(2) 0.0843(2)
O14B O -0.9502(4) -0.2526(2) 0.0661(2)
O15B O -0.8609(4) -0.1218(2) 0.2588(2)
O16B O -1.0713(3) -0.1554(2) 0.0492(2)
O17B O -1.1960(3) -0.1192(2) 0.1237(2)
O18B O -1.2213(4) -0.2287(2) 0.0671(2)
O19B O -1.2116(4) -0.1802(2) 0.2326(2)
O20B O -1.0954(4) -0.1189(2) 0.3228(2)
O21B O -1.2455(4) -0.1890(3) 0.3562(3)
O22B O -0.8637(5) -0.2476(3) 0.4479(3)
O23B O -1.1210(5) -0.2588(3) -0.0261(3)
O24B O -1.3625(4) -0.1882(3) 0.1323(3)
O25B O -0.6455(4) -0.3125(3) 0.3048(3)
O26B O -0.9735(4) -0.4306(2) 0.2144(3)
O27B O -1.0533(4) -0.2255(3) 0.3850(2)
O28B O -1.2961(4) -0.3849(3) 0.2398(3)
O29B O -0.7409(3) -0.3116(2) 0.1833(2)
O30B O -1.0435(5) -0.4524(3) 0.0895(3)
O31B O -0.7125(4) -0.2031(2) 0.2460(2)
O32B O -0.8375(4) -0.3542(2) 0.2742(2)
O33B O -1.0567(4) -0.0356(2) 0.0966(3)
O34B O -0.7251(4) -0.0906(3) 0.1841(3)
O35B O -1.0982(4) -0.3975(2) 0.2899(2)
O36B O -0.7759(4) -0.2024(2) 0.1236(2)
O37B O -1.1775(4) -0.2846(2) 0.2920(2)
O38B O -0.9190(5) -0.4460(3) 0.3420(3)
O39B O -1.1586(4) -0.4011(2) 0.1664(2)
O40B O -0.7757(4) -0.3090(3) 0.0555(3)
N1B N -1.3476(5) -0.0403(3) 0.1547(3)
N2B N -1.2346(5) 0.0428(3) 0.0714(3)
N3B N -1.2507(5) -0.0546(3) -0.0008(3)
N4B N -0.9076(5) 0.0931(3) 0.4065(4)
N5B N -1.4394(5) -0.0780(3) 0.0468(3)
N6B N -0.8520(5) -0.0079(4) 0.4684(3)
C1B C -1.1903(6) 0.0481(4) 0.0213(4)
C2B C -1.2547(6) -0.1091(4) -0.0310(4)
H1B H -1.2898 -0.1419 -0.0178
C3B C -1.2003(5) -0.0066(4) -0.0203(3)
C4B C -1.4368(6) -0.0658(4) 0.1554(4)
C5B C -1.1375(7) 0.1015(4) 0.0117(4)
H2B H -1.1086 0.1050 -0.0233
C6B C -1.4704(7) -0.0743(5) 0.2092(4)
H3B H -1.5329 -0.0904 0.2085
C7B C -1.2896(7) -0.0270(4) 0.2093(4)
H4B H -1.2273 -0.0111 0.2089
C8B C -1.2092(6) -0.1183(4) -0.0804(4)
H5B H -1.2096 -0.1573 -0.0989
C9B C -1.1564(7) -0.0121(5) -0.0718(4)
H6B H -1.1235 0.0216 -0.0852
C10B C -1.3186(8) -0.0360(4) 0.2660(4)
H7B H -1.2770 -0.0269 0.3032
C11B C -1.4123(8) -0.0591(5) 0.2650(4)
H8B H -1.4358 -0.0643 0.3019
C12B C -1.2273(7) 0.0894(4) 0.1115(4)
H9B H -1.2595 0.0860 0.1452
C13B C -1.4881(6) -0.0872(4) 0.0934(4)
C14B C -1.4768(6) -0.1002(5) -0.0089(4)
H10B H -1.4446 -0.0918 -0.0418
C15B C -0.9150(7) 0.0931(5) 0.4683(5)
C16B C -1.5624(7) -0.1358(5) -0.0203(5)
H11B H -1.5851 -0.1521 -0.0596
C17B C -1.5759(6) -0.1198(5) 0.0847(5)
H12B H -1.6100 -0.1238 0.1174
C18B C -0.9428(7) 0.1402(5) 0.3684(7)
H13B H -0.9363 0.1393 0.3269
C19B C -0.8258(7) -0.0628(6) 0.4948(5)
H14B H -0.8043 -0.0938 0.4707
C20B C -1.1618(7) -0.0679(5) -0.1029(4)
H15B H -1.1343 -0.0722 -0.1384
C21B C -1.1747(8) 0.1425(4) 0.1058(5)
H16B H -1.1696 0.1739 0.1355
C22B C -0.8828(7) 0.0366(6) 0.5029(5)
C23B C -1.6133(7) -0.1465(6) 0.0278(6)
H17B H -1.6700 -0.1705 0.0221
C24B C -0.8586(10) -0.0301(10) 0.5907(6)
H18B H -0.8593 -0.0370 0.6326
C25B C -1.1289(8) 0.1483(5) 0.0541(5)
H19B H -1.0928 0.1838 0.0488
C26B C -0.8874(9) 0.0252(8) 0.5653(6)
H20B H -0.9103 0.0560 0.5890
C27B C -0.9560(9) 0.1437(7) 0.4920(8)
H21B H -0.9600 0.1454 0.5340
C28B C -0.9919(10) 0.1931(7) 0.4522(10)
H22B H -1.0179 0.2281 0.4683
C29B C -0.8288(8) -0.0758(8) 0.5559(6)
H23B H -0.8108 -0.1148 0.5728
C30B C -0.9894(10) 0.1906(6) 0.3918(9)
H24B H -1.0182 0.2220 0.3653
C31B C -0.5794(5) -0.0881(3) 0.4121(3)
C32B C -0.6555(5) -0.0392(3) 0.4151(3)
C33B C -0.5935(7) -0.1386(4) 0.3730(4)
H25B H -0.6525 -0.1446 0.3459
C34B C -0.5164(7) -0.1806(4) 0.3756(4)
H26B H -0.5231 -0.2151 0.3493
C35B C -0.4317(6) -0.1715(4) 0.4161(4)
H27B H -0.3801 -0.1995 0.4179
C36B C -0.4223(6) -0.1188(4) 0.4557(4)
H28B H -0.3640 -0.1122 0.4835
N7B N -0.4961(4) -0.0787(3) 0.4536(3)
O41B O -0.6359(4) 0.0048(2) 0.4525(2)
O42B O -0.7371(4) -0.0451(3) 0.3786(3)
O43B O -0.7947(5) 0.0612(3) 0.3126(3)
H29B H -0.7912 0.0454 0.2773
H30B H -0.7863 0.0999 0.3065
O30A O -0.5435(5) -0.0476(3) 0.5895(3)
O30C O -0.4565(5) 0.0476(3) 0.4105(3)
Cu3A Cu -1.0000 -0.5000 0.0000
Cu3A_2 Cu 0.0000 0.5000 1.0000
O44 O -0.1713(15) 0.5084(8) 0.7717(9)
loop_
_geom_bond_atom_site_label_1
_geom_bond_atom_site_label_2
_geom_bond_site_symmetry_1
_geom_bond_site_symmetry_2
Mo1 O1 1_555 1_555
Mo2 O3 1_555 1_555
Mo3 O1 1_555 1_555
Mo4 O4 1_555 1_555
Mo5 O3 1_555 1_555
Mo6 O3 1_555 1_555
Mo7 O4 1_555 1_555
Mo8 O2 1_555 1_555
Mo9 O2 1_555 1_555
Mo10 O1 1_555 1_555
Mo11 O2 1_555 1_555
Mo12 O4 1_555 1_555
Cu1 O8 1_555 1_555
Cu2 O17 1_555 1_555
Si1 O1 1_555 1_555
O2 Si1 1_555 1_555
O3 Si1 1_555 1_555
O4 Si1 1_555 1_555
O5 Mo2 1_555 1_555
O6 Mo11 1_555 1_555
O7 Mo1 1_555 1_555
O8 Mo8 1_555 1_555
O9 Mo3 1_555 1_555
O10 Mo8 1_555 1_555
O11 Mo1 1_555 1_555
O12 Mo6 1_555 1_555
O13 Mo7 1_555 1_555
O14 Mo2 1_555 1_555
O15 Mo5 1_555 1_555
O16 Mo1 1_555 1_555
O17 Mo1 1_555 1_555
O18 Mo3 1_555 1_555
O19 Mo3 1_555 1_555
O20 Mo8 1_555 1_555
O21 Mo9 1_555 1_555
O22 Mo11 1_555 1_555
O23 Mo10 1_555 1_555
O24 Mo3 1_555 1_555
O25 Mo6 1_555 1_555
O26 Mo7 1_555 1_555
O27 Mo9 1_555 1_555
O28 Mo4 1_555 1_555
O29 Mo2 1_555 1_555
O30 Mo7 1_555 1_555
O31 Mo5 1_555 1_555
O32 Mo6 1_555 1_555
O33 Mo1 1_555 1_555
O34 Mo5 1_555 1_555
O35 Mo4 1_555 1_555
O36 Mo2 1_555 1_555
O37 Mo4 1_555 1_555
O38 Mo12 1_555 1_555
O39 Mo4 1_555 1_555
O40 Mo2 1_555 1_555
N1 Cu2 1_555 1_555
N2 Cu2 1_555 1_555
N3 Cu2 1_555 1_555
N4 Cu1 1_555 1_555
N5 Cu2 1_555 1_555
N6 Cu1 1_555 1_555
C1 N2 1_555 1_555
C2 N3 1_555 1_555
H1 C2 1_555 1_555
C3 N3 1_555 1_555
C4 N1 1_555 1_555
C5 C1 1_555 1_555
H2 C5 1_555 1_555
C6 C4 1_555 1_555
H3 C6 1_555 1_555
C7 N1 1_555 1_555
H4 C7 1_555 1_555
C8 C2 1_555 1_555
H5 C8 1_555 1_555
C9 C3 1_555 1_555
H6 C9 1_555 1_555
C10 C7 1_555 1_555
H7 C10 1_555 1_555
C11 C6 1_555 1_555
H8 C11 1_555 1_555
C12 N2 1_555 1_555
H9 C12 1_555 1_555
C13 N5 1_555 1_555
C14 N5 1_555 1_555
H10 C14 1_555 1_555
C15 N4 1_555 1_555
C16 C14 1_555 1_555
H11 C16 1_555 1_555
C17 C13 1_555 1_555
H12 C17 1_555 1_555
C18 N4 1_555 1_555
H13 C18 1_555 1_555
C19 N6 1_555 1_555
H14 C19 1_555 1_555
C20 C8 1_555 1_555
H15 C20 1_555 1_555
C21 C12 1_555 1_555
H16 C21 1_555 1_555
C22 N6 1_555 1_555
C23 C16 1_555 1_555
H17 C23 1_555 1_555
C24 H18 1_555 1_555
C25 C5 1_555 1_555
H19 C25 1_555 1_555
C26 C22 1_555 1_555
H20 C26 1_555 1_555
C27 C15 1_555 1_555
H21 C27 1_555 1_555
C28 C27 1_555 1_555
H22 C28 1_555 1_555
C29 C19 1_555 1_555
H23 C29 1_555 1_555
C30 C18 1_555 1_555
H24 C30 1_555 1_555
C31 C32 1_555 1_555
C32 O41 1_555 1_555
C33 C31 1_555 1_555
H25 C33 1_555 1_555
C34 C33 1_555 1_555
H26 C34 1_555 1_555
C35 C34 1_555 1_555
H27 C35 1_555 1_555
C36 C35 1_555 1_555
H28 C36 1_555 1_555
N7 C31 1_555 1_555
O41 Cu3 1_555 1_555
O42 Cu1 1_555 1_555
O43 Cu1 1_555 1_555
H29 O43 1_555 1_555
H30 O43 1_555 1_555
Cu3 N7 1_555 1_555
Mo1B O1B 1_555 1_555
Mo2B O3B 1_555 1_555
Mo3B O1B 1_555 1_555
Mo4B O4B 1_555 1_555
Mo5B O3B 1_555 1_555
Mo6B O3B 1_555 1_555
Mo7B O4B 1_555 1_555
Mo8B O2B 1_555 1_555
Mo9B O2B 1_555 1_555
Mo10B O1B 1_555 1_555
Mo11B O2B 1_555 1_555
Mo12B O4B 1_555 1_555
Cu1B O8B 1_555 1_555
Cu2B O17B 1_555 1_555
Si1B O1B 1_555 1_555
O2B Si1B 1_555 1_555
O3B Si1B 1_555 1_555
O4B Si1B 1_555 1_555
O5B Mo2B 1_555 1_555
O6B Mo11B 1_555 1_555
O7B Mo1B 1_555 1_555
O8B Mo8B 1_555 1_555
O9B Mo3B 1_555 1_555
O10B Mo8B 1_555 1_555
O11B Mo1B 1_555 1_555
O12B Mo6B 1_555 1_555
O13B Mo7B 1_555 1_555
O14B Mo2B 1_555 1_555
O15B Mo5B 1_555 1_555
O16B Mo1B 1_555 1_555
O17B Mo1B 1_555 1_555
O18B Mo3B 1_555 1_555
O19B Mo3B 1_555 1_555
O20B Mo8B 1_555 1_555
O21B Mo9B 1_555 1_555
O22B Mo11B 1_555 1_555
O23B Mo10B 1_555 1_555
O24B Mo3B 1_555 1_555
O25B Mo6B 1_555 1_555
O26B Mo7B 1_555 1_555
O27B Mo9B 1_555 1_555
O28B Mo4B 1_555 1_555
O29B Mo2B 1_555 1_555
O30B Mo7B 1_555 1_555
O31B Mo5B 1_555 1_555
O32B Mo6B 1_555 1_555
O33B Mo1B 1_555 1_555
O34B Mo5B 1_555 1_555
O35B Mo4B 1_555 1_555
O36B Mo2B 1_555 1_555
O37B Mo4B 1_555 1_555
O38B Mo12B 1_555 1_555
O39B Mo4B 1_555 1_555
O40B Mo2B 1_555 1_555
N1B Cu2B 1_555 1_555
N2B Cu2B 1_555 1_555
N3B Cu2B 1_555 1_555
N4B Cu1B 1_555 1_555
N5B Cu2B 1_555 1_555
N6B Cu1B 1_555 1_555
C1B N2B 1_555 1_555
C2B N3B 1_555 1_555
H1B C2B 1_555 1_555
C3B N3B 1_555 1_555
C4B N1B 1_555 1_555
C5B C1B 1_555 1_555
H2B C5B 1_555 1_555
C6B C4B 1_555 1_555
H3B C6B 1_555 1_555
C7B N1B 1_555 1_555
H4B C7B 1_555 1_555
C8B C2B 1_555 1_555
H5B C8B 1_555 1_555
C9B C3B 1_555 1_555
H6B C9B 1_555 1_555
C10B C7B 1_555 1_555
H7B C10B 1_555 1_555
C11B C6B 1_555 1_555
H8B C11B 1_555 1_555
C12B N2B 1_555 1_555
H9B C12B 1_555 1_555
C13B N5B 1_555 1_555
C14B N5B 1_555 1_555
H10B C14B 1_555 1_555
C15B N4B 1_555 1_555
C16B C14B 1_555 1_555
H11B C16B 1_555 1_555
C17B C13B 1_555 1_555
H12B C17B 1_555 1_555
C18B N4B 1_555 1_555
H13B C18B 1_555 1_555
C19B N6B 1_555 1_555
H14B C19B 1_555 1_555
C20B C8B 1_555 1_555
H15B C20B 1_555 1_555
C21B C12B 1_555 1_555
H16B C21B 1_555 1_555
C22B N6B 1_555 1_555
C23B C16B 1_555 1_555
H17B C23B 1_555 1_555
C24B H18B 1_555 1_555
C25B C5B 1_555 1_555
H19B C25B 1_555 1_555
C26B C22B 1_555 1_555
H20B C26B 1_555 1_555
C27B C15B 1_555 1_555
H21B C27B 1_555 1_555
C28B C27B 1_555 1_555
H22B C28B 1_555 1_555
C29B C19B 1_555 1_555
H23B C29B 1_555 1_555
C30B C18B 1_555 1_555
H24B C30B 1_555 1_555
C31B C32B 1_555 1_555
C32B O41B 1_555 1_555
C33B C31B 1_555 1_555
H25B C33B 1_555 1_555
C34B C33B 1_555 1_555
H26B C34B 1_555 1_555
C35B C34B 1_555 1_555
H27B C35B 1_555 1_555
C36B C35B 1_555 1_555
H28B C36B 1_555 1_555
N7B Cu3 1_555 1_555
O41B Cu3 1_555 1_555
O42B Cu1B 1_555 1_555
O43B Cu1B 1_555 1_555
H29B O43B 1_555 1_555
H30B O43B 1_555 1_555
O30A Cu3 1_555 1_555
O30C Cu3 1_555 1_555
Cu3A O30B 1_555 1_555
Cu3A_2 O30 1_555 1_555
Mo3 O17 1_555 1_555
Mo4 O9 1_555 1_555
Mo5 O11 1_555 1_555
Mo5 O36 1_555 1_555
Mo6 O29 1_555 1_555
Mo6 O31 1_555 1_555
Mo7 O5 1_555 1_555
Mo7 O39 1_555 1_555
Mo8 O7 1_555 1_555
Mo8 O15 1_555 1_555
Mo9 O19 1_555 1_555
Mo9 O20 1_555 1_555
Mo9 O37 1_555 1_555
Mo10 O13 1_555 1_555
Mo10 O14 1_555 1_555
Mo10 O16 1_555 1_555
Mo10 O18 1_555 1_555
Mo11 O10 1_555 1_555
Mo11 O12 1_555 1_555
Mo11 O27 1_555 1_555
Mo12 O6 1_555 1_555
Mo12 O26 1_555 1_555
Mo12 O32 1_555 1_555
Mo12 O35 1_555 1_555
C1 C3 1_555 1_555
C4 C13 1_555 1_555
C9 C20 1_555 1_555
C10 C11 1_555 1_555
C15 C22 1_555 1_555
C17 C23 1_555 1_555
C21 C25 1_555 1_555
C24 C26 1_555 1_555
C24 C29 1_555 1_555
C28 C30 1_555 1_555
C32 O42 1_555 1_555
C36 N7 1_555 1_555
Mo3B O17B 1_555 1_555
Mo4B O9B 1_555 1_555
Mo5B O11B 1_555 1_555
Mo5B O36B 1_555 1_555
Mo6B O29B 1_555 1_555
Mo6B O31B 1_555 1_555
Mo7B O5B 1_555 1_555
Mo7B O39B 1_555 1_555
Mo8B O7B 1_555 1_555
Mo8B O15B 1_555 1_555
Mo9B O19B 1_555 1_555
Mo9B O20B 1_555 1_555
Mo9B O37B 1_555 1_555
Mo10B O13B 1_555 1_555
Mo10B O14B 1_555 1_555
Mo10B O16B 1_555 1_555
Mo10B O18B 1_555 1_555
Mo11B O10B 1_555 1_555
Mo11B O12B 1_555 1_555
Mo11B O27B 1_555 1_555
Mo12B O6B 1_555 1_555
Mo12B O26B 1_555 1_555
Mo12B O32B 1_555 1_555
Mo12B O35B 1_555 1_555
C1B C3B 1_555 1_555
C4B C13B 1_555 1_555
C9B C20B 1_555 1_555
C10B C11B 1_555 1_555
C15B C22B 1_555 1_555
C17B C23B 1_555 1_555
C21B C25B 1_555 1_555
C24B C26B 1_555 1_555
C24B C29B 1_555 1_555
C28B C30B 1_555 1_555
C31B N7B 1_555 1_555
C32B O42B 1_555 1_555
C36B N7B 1_555 1_555

#END
