
#######################################################################
#
#                 Cambridge Crystallographic Data Centre
#                                CCDC 
#
#######################################################################
#
# If this CIF has been generated from an entry in the Cambridge 
# Structural Database, then it will include bibliographic, chemical, 
# crystal, experimental, refinement or atomic coordinate data resulting 
# from the CCDC's data processing and validation procedures.
#
#######################################################################

data_BUJHEU
_symmetry_cell_setting           triclinic
_symmetry_space_group_name_H-M   'P -1'
_symmetry_Int_Tables_number      2
_space_group_name_Hall           '-P 1'
loop_
_symmetry_equiv_pos_site_id
_symmetry_equiv_pos_as_xyz
1 x,y,z
2 -x,-y,-z
_cell_length_a                   9.7733(2)
_cell_length_b                   14.0285(2)
_cell_length_c                   17.2932(3)
_cell_angle_alpha                84.7450(10)
_cell_angle_beta                 78.9400(10)
_cell_angle_gamma                79.2040(10)
_cell_volume                     2281.94
loop_
_atom_site_label
_atom_site_type_symbol
_atom_site_fract_x
_atom_site_fract_y
_atom_site_fract_z
Zn1 Zn 0.28146(5) 0.41622(4) 0.46105(3)
Zn2 Zn 1.0000 0.0000 0.5000
Na1 Na 0.64658(19) 0.07351(13) 0.47001(11)
Cl1 Cl 0.21744(12) 0.35768(9) 0.19052(7)
Cl2 Cl 0.15730(12) 0.16055(9) 0.22897(7)
P1 P 0.29110(12) 0.24868(8) 0.33713(7)
P2 P -0.02233(12) 0.32297(9) 0.31726(7)
O1 O 0.1066(3) 0.3590(2) 0.51632(18)
H1 H 0.131(5) 0.316(2) 0.5599(17)
H2 H 0.044(4) 0.405(2) 0.537(2)
O2 O 0.4073(3) 0.3114(2) 0.51979(18)
H3 H 0.416(4) 0.335(3) 0.5686(15)
H4 H 0.499(2) 0.296(3) 0.488(2)
O3 O 0.4560(3) 0.4865(2) 0.40316(18)
H5 H 0.494(4) 0.460(2) 0.3528(13)
H6 H 0.423(5) 0.5550(11) 0.396(2)
O4 O 0.1323(3) 0.5218(2) 0.41034(17)
H7 H 0.179(4) 0.573(2) 0.383(2)
H8 H 0.093(4) 0.491(3) 0.3741(19)
O5 O 0.2684(3) 0.5159(2) 0.54605(18)
H9 H 0.341(3) 0.493(3) 0.577(2)
H10 H 0.177(2) 0.522(3) 0.580(2)
O6 O 0.7911(3) 0.0141(2) 0.57067(17)
H11 H 0.778(5) 0.060(2) 0.6109(18)
H12 H 0.771(5) -0.0480(15) 0.595(2)
O7 O 0.9021(3) 0.0507(2) 0.40240(17)
H13 H 0.929(5) 0.1115(16) 0.379(2)
H14 H 0.923(5) 0.003(2) 0.3626(18)
O8 O 1.0048(3) 0.1427(2) 0.51370(18)
H15 H 1.075(4) 0.165(3) 0.4728(15)
H16 H 1.028(4) 0.149(3) 0.5642(11)
O9 O 0.6825(3) 0.2358(3) 0.48506(18)
H17 H 0.751(4) 0.254(3) 0.4414(15)
H18 H 0.716(4) 0.237(4) 0.5334(13)
O10 O 0.3929(3) 0.0885(2) 0.5375(2)
H19 H 0.380(5) 0.106(3) 0.5917(11)
H20 H 0.331(4) 0.136(3) 0.509(2)
O11 O 0.3157(3) 0.3423(2) 0.36007(17)
O12 O 0.2523(3) 0.1723(2) 0.39763(18)
O13 O 0.4248(3) 0.2064(2) 0.27042(17)
O14 O 0.5807(3) 0.1436(3) 0.35007(18)
O15 O -0.0269(3) 0.4211(2) 0.34357(17)
O16 O -0.0764(3) 0.2461(2) 0.37302(18)
O17 O -0.0930(3) 0.3327(2) 0.23752(18)
O18 O -0.3151(3) 0.3887(2) 0.29803(18)
C1 C 0.1604(4) 0.2735(3) 0.2687(2)
C3 C 0.5548(5) 0.1599(3) 0.2842(3)
C4 C 0.6520(5) 0.1348(3) 0.2097(3)
C5 C 0.6077(5) 0.1523(3) 0.1375(3)
H21 H 0.5126 0.1814 0.1350
C6 C 0.7025(5) 0.1273(3) 0.0689(3)
H22 H 0.6720 0.1385 0.0194
C7 C 0.8412(5) 0.0859(3) 0.0724(3)
H23 H 0.9060 0.0693 0.0252
C8 C 0.8866(5) 0.0685(3) 0.1448(3)
H24 H 0.9818 0.0395 0.1470
C9 C 0.7929(5) 0.0935(3) 0.2130(3)
H25 H 0.8239 0.0827 0.2624
C10 C -0.2347(5) 0.3653(3) 0.2384(3)
C11 C -0.2712(5) 0.3683(3) 0.1590(3)
C12 C -0.1711(5) 0.3387(3) 0.0935(3)
H26 H -0.0756 0.3148 0.0989
C13 C -0.2101(5) 0.3438(3) 0.0204(3)
H27 H -0.1415 0.3229 -0.0244
C14 C -0.3485(5) 0.3793(4) 0.0121(3)
H28 H -0.3746 0.3836 -0.0384
C15 C -0.4497(5) 0.4085(4) 0.0775(3)
H29 H -0.5451 0.4322 0.0718
C16 C -0.4114(5) 0.4032(3) 0.1508(3)
H30 H -0.4804 0.4233 0.1956
Zn1A Zn 1.71854(5) -0.41622(4) 0.53895(3)
Na1A Na 1.35342(19) -0.07351(13) 0.52999(11)
Na1A_2 Na 0.35342(19) -0.07351(13) 0.52999(11)
Cl1A Cl 1.78256(12) -0.35768(9) 0.80948(7)
Cl2A Cl 1.84270(12) -0.16055(9) 0.77103(7)
P1A P 1.70890(12) -0.24868(8) 0.66287(7)
P2A P 2.02233(12) -0.32297(9) 0.68274(7)
O1A O 1.8934(3) -0.3590(2) 0.48368(18)
H1A H 1.869(5) -0.316(2) 0.4401(17)
H2A H 1.956(4) -0.405(2) 0.463(2)
O2A O 1.5927(3) -0.3114(2) 0.48021(18)
H3A H 1.584(4) -0.335(3) 0.4314(15)
H4A H 1.501(2) -0.296(3) 0.512(2)
O3A O 1.5440(3) -0.4865(2) 0.59684(18)
H5A H 1.506(4) -0.460(2) 0.6472(13)
H6A H 1.577(5) -0.5550(11) 0.604(2)
O4A O 1.8677(3) -0.5218(2) 0.58966(17)
H7A H 1.821(4) -0.573(2) 0.617(2)
H8A H 1.907(4) -0.491(3) 0.6259(19)
O5A O 1.7316(3) -0.5159(2) 0.45395(18)
H9A H 1.659(3) -0.493(3) 0.423(2)
H10A H 1.823(2) -0.522(3) 0.420(2)
O6A O 1.2089(3) -0.0141(2) 0.42933(17)
H11A H 1.222(5) -0.060(2) 0.3891(18)
H12A H 1.229(5) 0.0480(15) 0.405(2)
O7A O 1.0979(3) -0.0507(2) 0.59760(17)
H13A H 1.071(5) -0.1115(16) 0.621(2)
H14A H 1.077(5) -0.003(2) 0.6374(18)
O8A O 0.9952(3) -0.1427(2) 0.48630(18)
H15A H 0.925(4) -0.165(3) 0.5272(15)
H16A H 0.972(4) -0.149(3) 0.4358(11)
O9A O 1.3175(3) -0.2358(3) 0.51494(18)
H17A H 1.249(4) -0.254(3) 0.5586(15)
H18A H 1.284(4) -0.237(4) 0.4666(13)
O10A O 0.6071(3) -0.0885(2) 0.4625(2)
O10A_2 O 1.6071(3) -0.0885(2) 0.4625(2)
O10_2 O 1.3929(3) 0.0885(2) 0.5375(2)
H19A H 0.620(5) -0.106(3) 0.4083(11)
H19A_2 H 1.620(5) -0.106(3) 0.4083(11)
H19_2 H 1.380(5) 0.106(3) 0.5917(11)
H20A H 0.669(4) -0.136(3) 0.491(2)
H20A_2 H 1.669(4) -0.136(3) 0.491(2)
H20_2 H 1.331(4) 0.136(3) 0.509(2)
O11A O 1.6843(3) -0.3423(2) 0.63993(17)
O12A O 1.7477(3) -0.1723(2) 0.60237(18)
O13A O 1.5752(3) -0.2064(2) 0.72958(17)
O14A O 1.4193(3) -0.1436(3) 0.64993(18)
O15A O 2.0269(3) -0.4211(2) 0.65643(17)
O16A O 2.0764(3) -0.2461(2) 0.62698(18)
O17A O 2.0930(3) -0.3327(2) 0.76248(18)
O18A O 2.3151(3) -0.3887(2) 0.70197(18)
C1A C 1.8396(4) -0.2735(3) 0.7313(2)
C3A C 1.4452(5) -0.1599(3) 0.7158(3)
C4A C 1.3480(5) -0.1348(3) 0.7903(3)
C5A C 1.3923(5) -0.1523(3) 0.8625(3)
H21A H 1.4874 -0.1814 0.8650
C6A C 1.2975(5) -0.1273(3) 0.9311(3)
H22A H 1.3280 -0.1385 0.9806
C7A C 1.1588(5) -0.0859(3) 0.9276(3)
H23A H 1.0940 -0.0693 0.9748
C8A C 1.1134(5) -0.0685(3) 0.8552(3)
H24A H 1.0182 -0.0395 0.8530
C9A C 1.2071(5) -0.0935(3) 0.7870(3)
H25A H 1.1761 -0.0827 0.7376
C10A C 2.2347(5) -0.3653(3) 0.7616(3)
C11A C 2.2712(5) -0.3683(3) 0.8410(3)
C12A C 2.1711(5) -0.3387(3) 0.9065(3)
H26A H 2.0756 -0.3148 0.9011
C13A C 2.2101(5) -0.3438(3) 0.9796(3)
H27A H 2.1415 -0.3229 1.0244
C14A C 2.3485(5) -0.3793(4) 0.9879(3)
H28A H 2.3746 -0.3836 1.0384
C15A C 2.4497(5) -0.4085(4) 0.9225(3)
H29A H 2.5451 -0.4322 0.9282
C16A C 2.4114(5) -0.4032(3) 0.8492(3)
H30A H 2.4804 -0.4233 0.8044
Cl3 Cl -0.16217(13) 0.35902(9) 0.78107(8)
Cl4 Cl -0.23638(13) 0.17332(10) 0.84652(7)
P3 P -0.00448(12) 0.17460(9) 0.70981(7)
P4 P -0.31192(12) 0.25524(9) 0.69146(7)
O19 O 0.0441(3) 0.2317(2) 0.63658(18)
O20 O -0.0154(3) 0.0715(2) 0.70653(18)
O21 O 0.0827(3) 0.1856(2) 0.77906(18)
O22 O 0.2984(3) 0.1188(3) 0.7153(2)
O23 O -0.2884(3) 0.3357(3) 0.6317(2)
O24 O -0.3216(3) 0.1599(2) 0.6675(2)
O25 O -0.4488(3) 0.2932(2) 0.75798(18)
O26 O -0.6091(3) 0.3439(3) 0.67909(18)
C2 C -0.1789(5) 0.2399(3) 0.7571(3)
C17 C 0.2222(5) 0.1442(3) 0.7752(3)
C18 C 0.2621(5) 0.1355(3) 0.8546(3)
C19 C 0.1623(5) 0.1573(3) 0.9225(3)
H31 H 0.0657 0.1790 0.9186
C20 C 0.2028(5) 0.1475(4) 0.9953(3)
H32 H 0.1346 0.1630 1.0415
C21 C 0.3430(6) 0.1152(4) 1.0008(3)
H33 H 0.3710 0.1075 1.0510
C22 C 0.4434(6) 0.0937(3) 0.9333(3)
H34 H 0.5401 0.0725 0.9374
C23 C 0.4032(5) 0.1031(3) 0.8604(3)
H35 H 0.4717 0.0876 0.8143
C24 C -0.5803(5) 0.3341(3) 0.7438(3)
C25 C -0.6776(4) 0.3632(3) 0.8173(3)
C26 C -0.6333(5) 0.3467(3) 0.8900(3)
H36 H -0.5378 0.3188 0.8925
C27 C -0.7272(5) 0.3704(3) 0.9578(3)
H37 H -0.6970 0.3588 1.0074
C28 C -0.8662(5) 0.4114(3) 0.9539(3)
H38 H -0.9312 0.4278 1.0011
C29 C -0.9113(5) 0.4288(3) 0.8822(3)
H39 H -1.0069 0.4570 0.8803
C30 C -0.8172(5) 0.4050(3) 0.8129(3)
H40 H -0.8475 0.4170 0.7633
loop_
_geom_bond_atom_site_label_1
_geom_bond_atom_site_label_2
_geom_bond_site_symmetry_1
_geom_bond_site_symmetry_2
Zn1 O1 1_555 1_555
Zn2 O6 1_555 1_555
Na1 O6 1_555 1_555
Cl1 C1 1_555 1_555
Cl2 C1 1_555 1_555
Cl3 C2 1_555 1_555
Cl4 C2 1_555 1_555
P1 O11 1_555 1_555
P2 O15 1_555 1_555
P3 O19 1_555 1_555
P4 O23 1_555 1_555
O1 H1 1_555 1_555
H2 O1 1_555 1_555
O2 Zn1 1_555 1_555
H3 O2 1_555 1_555
H4 O2 1_555 1_555
O3 Zn1 1_555 1_555
H5 O3 1_555 1_555
H6 O3 1_555 1_555
O4 Zn1 1_555 1_555
H7 O4 1_555 1_555
H8 O4 1_555 1_555
O5 Zn1 1_555 1_555
H9 O5 1_555 1_555
H10 O5 1_555 1_555
O6 H11 1_555 1_555
H12 O6 1_555 1_555
O7 Zn2 1_555 1_555
H13 O7 1_555 1_555
H14 O7 1_555 1_555
O8 Zn2 1_555 1_555
H15 O8 1_555 1_555
H16 O8 1_555 1_555
O9 Na1 1_555 1_555
H17 O9 1_555 1_555
H18 O9 1_555 1_555
O10 Na1 1_555 1_555
H19 O10 1_555 1_555
H20 O10 1_555 1_555
O11 Zn1 1_555 1_555
O12 P1 1_555 1_555
O13 P1 1_555 1_555
O14 Na1 1_555 1_555
O16 P2 1_555 1_555
O17 P2 1_555 1_555
O18 C10 1_555 1_555
O20 P3 1_555 1_555
O21 P3 1_555 1_555
O22 C17 1_555 1_555
O24 P4 1_555 1_555
O25 P4 1_555 1_555
O26 C24 1_555 1_555
C1 P1 1_555 1_555
C2 P3 1_555 1_555
C3 O13 1_555 1_555
C4 C3 1_555 1_555
C5 C4 1_555 1_555
H21 C5 1_555 1_555
C6 C5 1_555 1_555
H22 C6 1_555 1_555
C7 C6 1_555 1_555
H23 C7 1_555 1_555
C8 C7 1_555 1_555
H24 C8 1_555 1_555
C9 C4 1_555 1_555
H25 C9 1_555 1_555
C10 O17 1_555 1_555
C11 C10 1_555 1_555
C12 C11 1_555 1_555
H26 C12 1_555 1_555
C13 C12 1_555 1_555
H27 C13 1_555 1_555
C14 C13 1_555 1_555
H28 C14 1_555 1_555
C15 C14 1_555 1_555
H29 C15 1_555 1_555
C16 C11 1_555 1_555
H30 C16 1_555 1_555
C17 O21 1_555 1_555
C18 C17 1_555 1_555
C19 C18 1_555 1_555
H31 C19 1_555 1_555
C20 C19 1_555 1_555
H32 C20 1_555 1_555
C21 C20 1_555 1_555
H33 C21 1_555 1_555
C22 C21 1_555 1_555
H34 C22 1_555 1_555
C23 C18 1_555 1_555
H35 C23 1_555 1_555
C24 O25 1_555 1_555
C25 C24 1_555 1_555
C26 C25 1_555 1_555
H36 C26 1_555 1_555
C27 C26 1_555 1_555
H37 C27 1_555 1_555
C28 C27 1_555 1_555
H38 C28 1_555 1_555
C29 C28 1_555 1_555
H39 C29 1_555 1_555
C30 C25 1_555 1_555
H40 C30 1_555 1_555
Zn1A O1A 1_555 1_555
Na1A O6A 1_555 1_555
Na1A_2 O10 1_555 1_555
Cl1A C1A 1_555 1_555
Cl2A C1A 1_555 1_555
P1A O11A 1_555 1_555
P2A O15A 1_555 1_555
O1A H1A 1_555 1_555
H2A O1A 1_555 1_555
O2A Zn1A 1_555 1_555
H3A O2A 1_555 1_555
H4A O2A 1_555 1_555
O3A Zn1A 1_555 1_555
H5A O3A 1_555 1_555
H6A O3A 1_555 1_555
O4A Zn1A 1_555 1_555
H7A O4A 1_555 1_555
H8A O4A 1_555 1_555
O5A Zn1A 1_555 1_555
H9A O5A 1_555 1_555
H10A O5A 1_555 1_555
O6A Zn2 1_555 1_555
H11A O6A 1_555 1_555
H12A O6A 1_555 1_555
O7A Zn2 1_555 1_555
H13A O7A 1_555 1_555
H14A O7A 1_555 1_555
O8A Zn2 1_555 1_555
H15A O8A 1_555 1_555
H16A O8A 1_555 1_555
O9A Na1A 1_555 1_555
H17A O9A 1_555 1_555
H18A O9A 1_555 1_555
O10A Na1 1_555 1_555
O10A_2 Na1A 1_555 1_555
O10_2 Na1A 1_555 1_555
H19A O10A 1_555 1_555
H19A_2 O10A_2 1_555 1_555
H19_2 O10_2 1_555 1_555
H20A O10A 1_555 1_555
H20A_2 O10A_2 1_555 1_555
H20_2 O10_2 1_555 1_555
O11A Zn1A 1_555 1_555
O12A P1A 1_555 1_555
O13A P1A 1_555 1_555
O14A Na1A 1_555 1_555
O16A P2A 1_555 1_555
O17A P2A 1_555 1_555
O18A C10A 1_555 1_555
C1A P1A 1_555 1_555
C3A O13A 1_555 1_555
C4A C3A 1_555 1_555
C5A C4A 1_555 1_555
H21A C5A 1_555 1_555
C6A C5A 1_555 1_555
H22A C6A 1_555 1_555
C7A C6A 1_555 1_555
H23A C7A 1_555 1_555
C8A C7A 1_555 1_555
H24A C8A 1_555 1_555
C9A C4A 1_555 1_555
H25A C9A 1_555 1_555
C10A O17A 1_555 1_555
C11A C10A 1_555 1_555
C12A C11A 1_555 1_555
H26A C12A 1_555 1_555
C13A C12A 1_555 1_555
H27A C13A 1_555 1_555
C14A C13A 1_555 1_555
H28A C14A 1_555 1_555
C15A C14A 1_555 1_555
H29A C15A 1_555 1_555
C16A C11A 1_555 1_555
H30A C16A 1_555 1_555
Na1 O7 1_555 1_555
P2 C1 1_555 1_555
P4 C2 1_555 1_555
O14 C3 1_555 1_555
C8 C9 1_555 1_555
C15 C16 1_555 1_555
C22 C23 1_555 1_555
C29 C30 1_555 1_555
Na1A O7A 1_555 1_555
Na1A_2 O10A 1_555 1_555
P2A C1A 1_555 1_555
O14A C3A 1_555 1_555
C8A C9A 1_555 1_555
C15A C16A 1_555 1_555

#END
