
#######################################################################
#
#                 Cambridge Crystallographic Data Centre
#                                CCDC 
#
#######################################################################
#
# If this CIF has been generated from an entry in the Cambridge 
# Structural Database, then it will include bibliographic, chemical, 
# crystal, experimental, refinement or atomic coordinate data resulting 
# from the CCDC's data processing and validation procedures.
#
#######################################################################

data_BUJHAQ
_symmetry_cell_setting           triclinic
_symmetry_space_group_name_H-M   'P -1'
_symmetry_Int_Tables_number      2
_space_group_name_Hall           '-P 1'
loop_
_symmetry_equiv_pos_site_id
_symmetry_equiv_pos_as_xyz
1 x,y,z
2 -x,-y,-z
_cell_length_a                   9.7638(2)
_cell_length_b                   13.9400(2)
_cell_length_c                   17.2782(3)
_cell_angle_alpha                84.9010(10)
_cell_angle_beta                 78.9840(10)
_cell_angle_gamma                79.1800(10)
_cell_volume                     2263.89
loop_
_atom_site_label
_atom_site_type_symbol
_atom_site_fract_x
_atom_site_fract_y
_atom_site_fract_z
Ni1 Ni 0.5000 0.5000 0.0000
Ni2 Ni -0.21961(4) 0.91976(3) -0.03963(2)
Na1 Na 0.14690(13) 0.57409(9) -0.02871(7)
Cl3 Cl -0.34340(8) 0.65901(6) -0.26996(5)
Cl4 Cl -0.28272(8) 0.85672(6) -0.30936(4)
P3 P -0.52284(8) 0.82376(6) -0.18263(4)
P4 P -0.21023(8) 0.74895(5) -0.16180(4)
O1 O 0.4031(2) 0.54995(15) -0.09559(12)
H1 H 0.437(3) 0.5118(16) -0.1327(13)
H2 H 0.414(4) 0.6075(9) -0.1119(16)
O2 O 0.2973(2) 0.51358(15) 0.06901(12)
H3 H 0.266(4) 0.5535(15) 0.1052(13)
H4 H 0.287(4) 0.4565(10) 0.0876(16)
O3 O 0.5025(2) 0.64194(15) 0.01452(12)
H5 H 0.536(4) 0.673(2) -0.0268(10)
H6 H 0.520(4) 0.665(2) 0.0546(10)
O4 O 0.1803(2) 0.73837(17) -0.01559(13)
H7 H 0.244(3) 0.750(3) -0.0550(11)
H8 H 0.205(3) 0.753(3) 0.0259(10)
O5 O 0.1070(3) 0.41102(17) -0.03819(14)
H9 H 0.146(4) 0.371(2) -0.0065(14)
H10 H 0.133(4) 0.393(2) -0.0847(8)
O6 O -0.3655(2) 1.02256(15) -0.08864(12)
H11 H -0.399(3) 0.994(2) -0.1199(14)
H12 H -0.329(3) 1.0696(16) -0.1131(15)
O7 O -0.3900(2) 0.86004(15) 0.01397(12)
H13 H -0.382(3) 0.8180(18) 0.0522(13)
H14 H -0.468(2) 0.8993(18) 0.0259(17)
O8 O -0.0960(2) 0.81394(16) 0.01693(12)
H15 H -0.101(3) 0.819(3) 0.0661(7)
H16 H -0.0099(15) 0.796(3) -0.0035(15)
O9 O -0.0478(2) 0.98612(15) -0.09523(12)
H17 H 0.002(3) 0.9600(18) -0.1362(12)
H18 H -0.078(3) 1.0460(9) -0.1072(16)
O10 O -0.2343(2) 1.01396(16) 0.04677(12)
H19 H -0.1614(18) 1.019(3) 0.0646(17)
H20 H -0.3076(18) 1.031(3) 0.0809(15)
O19 O -0.5263(2) 0.92274(14) -0.15634(12)
O20 O -0.5772(2) 0.74678(15) -0.12688(12)
O21 O -0.5944(2) 0.83334(16) -0.26215(12)
O22 O -0.8160(2) 0.88967(17) -0.20137(13)
O23 O -0.1871(2) 0.84373(14) -0.13888(12)
O24 O -0.2493(2) 0.67228(15) -0.10131(12)
O25 O -0.0754(2) 0.70665(15) -0.22823(12)
O26 O 0.0805(2) 0.64415(17) -0.14904(13)
C2 C -0.3398(3) 0.7730(2) -0.23075(17)
C17 C -0.7352(3) 0.8661(2) -0.26102(18)
C18 C -0.7726(3) 0.8689(2) -0.34051(18)
C19 C -0.9139(3) 0.9033(2) -0.3482(2)
H31 H -0.9831 0.9231 -0.3033
C20 C -0.9518(4) 0.9083(2) -0.4218(2)
H32 H -1.0474 0.9317 -0.4274
C21 C -0.8515(4) 0.8794(2) -0.4872(2)
H33 H -0.8783 0.8835 -0.5376
C22 C -0.7119(4) 0.8442(2) -0.47943(19)
H34 H -0.6434 0.8237 -0.5244
C23 C -0.6725(3) 0.8392(2) -0.40632(18)
H35 H -0.5767 0.8154 -0.4011
C24 C 0.0538(3) 0.6599(2) -0.21445(18)
C25 C 0.1521(3) 0.6344(2) -0.28917(18)
C26 C 0.2925(3) 0.5934(2) -0.28537(19)
H36 H 0.3233 0.5822 -0.2359
C27 C 0.3866(3) 0.5689(2) -0.3545(2)
H37 H 0.4823 0.5405 -0.3526
C28 C 0.3413(3) 0.5859(2) -0.4260(2)
H38 H 0.4066 0.5693 -0.4731
C29 C 0.2026(3) 0.6265(2) -0.43018(18)
H39 H 0.1727 0.6372 -0.4799
C30 C 0.1064(3) 0.6519(2) -0.36157(18)
H40 H 0.0110 0.6806 -0.3641
Ni2A Ni 1.21961(4) 0.08024(3) 0.03963(2)
Na1A Na 0.85310(13) 0.42591(9) 0.02871(7)
Na1A_2 Na -0.14690(13) 0.42591(9) 0.02871(7)
Cl3A Cl 1.34340(8) 0.34099(6) 0.26996(5)
Cl4A Cl 1.28272(8) 0.14328(6) 0.30936(4)
P3A P 1.52284(8) 0.17624(6) 0.18263(4)
P4A P 1.21023(8) 0.25105(5) 0.16180(4)
O1A O 0.5969(2) 0.45005(15) 0.09559(12)
H1A H 0.563(3) 0.4882(16) 0.1327(13)
H2A H 0.586(4) 0.3925(9) 0.1119(16)
O2A O 0.7027(2) 0.48642(15) -0.06901(12)
H3A H 0.734(4) 0.4465(15) -0.1052(13)
H4A H 0.713(4) 0.5435(10) -0.0876(16)
O3A O 0.4975(2) 0.35806(15) -0.01452(12)
H5A H 0.464(4) 0.327(2) 0.0268(10)
H6A H 0.480(4) 0.335(2) -0.0546(10)
O4A O 0.8197(2) 0.26163(17) 0.01559(13)
H7A H 0.756(3) 0.250(3) 0.0550(11)
H8A H 0.795(3) 0.247(3) -0.0259(10)
O5A O -0.1070(3) 0.58898(17) 0.03819(14)
O5A_2 O 0.8930(3) 0.58898(17) 0.03819(14)
O5_2 O 1.1070(3) 0.41102(17) -0.03819(14)
H9A H -0.146(4) 0.629(2) 0.0065(14)
H9A_2 H 0.854(4) 0.629(2) 0.0065(14)
H9_2 H 1.146(4) 0.371(2) -0.0065(14)
H10A H -0.133(4) 0.607(2) 0.0847(8)
H10A_2 H 0.867(4) 0.607(2) 0.0847(8)
H10_2 H 1.133(4) 0.393(2) -0.0847(8)
O6A O 1.3655(2) -0.02256(15) 0.08864(12)
H11A H 1.399(3) 0.006(2) 0.1199(14)
H12A H 1.329(3) -0.0696(16) 0.1131(15)
O7A O 1.3900(2) 0.13996(15) -0.01397(12)
H13A H 1.382(3) 0.1820(18) -0.0522(13)
H14A H 1.468(2) 0.1007(18) -0.0259(17)
O8A O 1.0960(2) 0.18606(16) -0.01693(12)
H15A H 1.101(3) 0.181(3) -0.0661(7)
H16A H 1.0099(15) 0.204(3) 0.0035(15)
O9A O 1.0478(2) 0.01388(15) 0.09523(12)
H17A H 0.998(3) 0.0400(18) 0.1362(12)
H18A H 1.078(3) -0.0460(9) 0.1072(16)
O10A O 1.2343(2) -0.01396(16) -0.04677(12)
H19A H 1.1614(18) -0.019(3) -0.0646(17)
H20A H 1.3076(18) -0.031(3) -0.0809(15)
O19A O 1.5263(2) 0.07726(14) 0.15634(12)
O20A O 1.5772(2) 0.25322(15) 0.12688(12)
O21A O 1.5944(2) 0.16666(16) 0.26215(12)
O22A O 1.8160(2) 0.11033(17) 0.20137(13)
O23A O 1.1871(2) 0.15627(14) 0.13888(12)
O24A O 1.2493(2) 0.32772(15) 0.10131(12)
O25A O 1.0754(2) 0.29335(15) 0.22823(12)
O26A O 0.9195(2) 0.35585(17) 0.14904(13)
C2A C 1.3398(3) 0.2270(2) 0.23075(17)
C17A C 1.7352(3) 0.1339(2) 0.26102(18)
C18A C 1.7726(3) 0.1311(2) 0.34051(18)
C19A C 1.9139(3) 0.0967(2) 0.3482(2)
H31A H 1.9831 0.0769 0.3033
C20A C 1.9518(4) 0.0917(2) 0.4218(2)
H32A H 2.0474 0.0683 0.4274
C21A C 1.8515(4) 0.1206(2) 0.4872(2)
H33A H 1.8783 0.1165 0.5376
C22A C 1.7119(4) 0.1558(2) 0.47943(19)
H34A H 1.6434 0.1763 0.5244
C23A C 1.6725(3) 0.1608(2) 0.40632(18)
H35A H 1.5767 0.1846 0.4011
C24A C 0.9462(3) 0.3401(2) 0.21445(18)
C25A C 0.8479(3) 0.3656(2) 0.28917(18)
C26A C 0.7075(3) 0.4066(2) 0.28537(19)
H36A H 0.6767 0.4178 0.2359
C27A C 0.6134(3) 0.4311(2) 0.3545(2)
H37A H 0.5177 0.4595 0.3526
C28A C 0.6587(3) 0.4141(2) 0.4260(2)
H38A H 0.5934 0.4307 0.4731
C29A C 0.7974(3) 0.3735(2) 0.43018(18)
H39A H 0.8273 0.3628 0.4799
C30A C 0.8936(3) 0.3481(2) 0.36157(18)
H40A H 0.9890 0.3194 0.3641
Cl1 Cl 0.26387(9) 0.67423(7) 0.34620(5)
Cl2 Cl 0.33413(9) 0.86168(6) 0.28005(5)
P1 P 0.49620(8) 0.67637(6) 0.20936(5)
P2 P 0.18750(8) 0.75379(6) 0.19071(4)
O11 O 0.4865(2) 0.57260(15) 0.20532(12)
O12 O 0.5448(2) 0.73397(16) 0.13645(12)
O13 O 0.5817(2) 0.68749(16) 0.27898(12)
O14 O 0.7986(2) 0.62014(17) 0.21585(13)
O15 O 0.1780(2) 0.65656(16) 0.16797(14)
O16 O 0.2109(2) 0.83370(16) 0.12958(13)
O17 O 0.0499(2) 0.79321(16) 0.25689(12)
O18 O -0.1090(2) 0.84585(17) 0.17729(13)
C1 C 0.3203(3) 0.7414(2) 0.25654(17)
C3 C 0.7214(3) 0.6457(2) 0.27606(19)
C4 C 0.7609(3) 0.6366(2) 0.35530(19)
C5 C 0.9031(3) 0.6048(2) 0.3607(2)
H21 H 0.9720 0.5904 0.3145
C6 C 0.9427(4) 0.5946(2) 0.4344(2)
H22 H 1.0394 0.5728 0.4387
C7 C 0.8428(4) 0.6157(2) 0.5014(2)
H23 H 0.8710 0.6085 0.5516
C8 C 0.7013(4) 0.6473(2) 0.4961(2)
H24 H 0.6328 0.6614 0.5425
C9 C 0.6606(4) 0.6582(2) 0.42305(19)
H25 H 0.5639 0.6804 0.4191
C10 C -0.0801(3) 0.8352(2) 0.24205(18)
C11 C -0.1784(3) 0.8639(2) 0.31579(18)
C12 C -0.3185(3) 0.9052(2) 0.31186(19)
H26 H -0.3491 0.9171 0.2623
C13 C -0.4127(3) 0.9289(2) 0.3810(2)
H27 H -0.5084 0.9572 0.3790
C14 C -0.3677(3) 0.9112(2) 0.4529(2)
H28 H -0.4332 0.9267 0.5001
C15 C -0.2288(3) 0.8715(2) 0.45673(19)
H29 H -0.1988 0.8605 0.5064
C16 C -0.1336(3) 0.8476(2) 0.38865(18)
H30 H -0.0377 0.8202 0.3912
loop_
_geom_bond_atom_site_label_1
_geom_bond_atom_site_label_2
_geom_bond_site_symmetry_1
_geom_bond_site_symmetry_2
Ni1 O1 1_555 1_555
Ni2 O6 1_555 1_555
Na1 O1 1_555 1_555
Cl1 C1 1_555 1_555
Cl2 C1 1_555 1_555
Cl3 C2 1_555 1_555
Cl4 C2 1_555 1_555
P1 O11 1_555 1_555
P2 O15 1_555 1_555
P3 O19 1_555 1_555
P4 O23 1_555 1_555
O1 H1 1_555 1_555
H2 O1 1_555 1_555
O2 Ni1 1_555 1_555
H3 O2 1_555 1_555
H4 O2 1_555 1_555
O3 Ni1 1_555 1_555
H5 O3 1_555 1_555
H6 O3 1_555 1_555
O4 Na1 1_555 1_555
H7 O4 1_555 1_555
H8 O4 1_555 1_555
O5 Na1 1_555 1_555
H9 O5 1_555 1_555
H10 O5 1_555 1_555
O6 H11 1_555 1_555
H12 O6 1_555 1_555
O7 Ni2 1_555 1_555
H13 O7 1_555 1_555
H14 O7 1_555 1_555
O8 Ni2 1_555 1_555
H15 O8 1_555 1_555
H16 O8 1_555 1_555
O9 Ni2 1_555 1_555
H17 O9 1_555 1_555
H18 O9 1_555 1_555
O10 Ni2 1_555 1_555
H19 O10 1_555 1_555
H20 O10 1_555 1_555
O12 P1 1_555 1_555
O13 P1 1_555 1_555
O14 C3 1_555 1_555
O16 P2 1_555 1_555
O17 P2 1_555 1_555
O18 C10 1_555 1_555
O20 P3 1_555 1_555
O21 P3 1_555 1_555
O22 C17 1_555 1_555
O23 Ni2 1_555 1_555
O24 P4 1_555 1_555
O25 P4 1_555 1_555
O26 Na1 1_555 1_555
C1 P1 1_555 1_555
C2 P3 1_555 1_555
C3 O13 1_555 1_555
C4 C3 1_555 1_555
C5 C4 1_555 1_555
H21 C5 1_555 1_555
C6 C5 1_555 1_555
H22 C6 1_555 1_555
C7 C6 1_555 1_555
H23 C7 1_555 1_555
C8 C7 1_555 1_555
H24 C8 1_555 1_555
C9 C4 1_555 1_555
H25 C9 1_555 1_555
C10 O17 1_555 1_555
C11 C10 1_555 1_555
C12 C11 1_555 1_555
H26 C12 1_555 1_555
C13 C12 1_555 1_555
H27 C13 1_555 1_555
C14 C13 1_555 1_555
H28 C14 1_555 1_555
C15 C14 1_555 1_555
H29 C15 1_555 1_555
C16 C11 1_555 1_555
H30 C16 1_555 1_555
C17 O21 1_555 1_555
C18 C17 1_555 1_555
C19 C18 1_555 1_555
H31 C19 1_555 1_555
C20 C19 1_555 1_555
H32 C20 1_555 1_555
C21 C20 1_555 1_555
H33 C21 1_555 1_555
C22 C21 1_555 1_555
H34 C22 1_555 1_555
C23 C18 1_555 1_555
H35 C23 1_555 1_555
C24 O25 1_555 1_555
C25 C24 1_555 1_555
C26 C25 1_555 1_555
H36 C26 1_555 1_555
C27 C26 1_555 1_555
H37 C27 1_555 1_555
C28 C27 1_555 1_555
H38 C28 1_555 1_555
C29 C28 1_555 1_555
H39 C29 1_555 1_555
C30 C25 1_555 1_555
H40 C30 1_555 1_555
Ni2A O6A 1_555 1_555
Na1A O1A 1_555 1_555
Na1A_2 O5 1_555 1_555
Cl3A C2A 1_555 1_555
Cl4A C2A 1_555 1_555
P3A O19A 1_555 1_555
P4A O23A 1_555 1_555
O1A Ni1 1_555 1_555
H1A O1A 1_555 1_555
H2A O1A 1_555 1_555
O2A Ni1 1_555 1_555
H3A O2A 1_555 1_555
H4A O2A 1_555 1_555
O3A Ni1 1_555 1_555
H5A O3A 1_555 1_555
H6A O3A 1_555 1_555
O4A Na1A 1_555 1_555
H7A O4A 1_555 1_555
H8A O4A 1_555 1_555
O5A Na1 1_555 1_555
O5A_2 Na1A 1_555 1_555
O5_2 Na1A 1_555 1_555
H9A O5A 1_555 1_555
H9A_2 O5A_2 1_555 1_555
H9_2 O5_2 1_555 1_555
H10A O5A 1_555 1_555
H10A_2 O5A_2 1_555 1_555
H10_2 O5_2 1_555 1_555
O6A H11A 1_555 1_555
H12A O6A 1_555 1_555
O7A Ni2A 1_555 1_555
H13A O7A 1_555 1_555
H14A O7A 1_555 1_555
O8A Ni2A 1_555 1_555
H15A O8A 1_555 1_555
H16A O8A 1_555 1_555
O9A Ni2A 1_555 1_555
H17A O9A 1_555 1_555
H18A O9A 1_555 1_555
O10A Ni2A 1_555 1_555
H19A O10A 1_555 1_555
H20A O10A 1_555 1_555
O20A P3A 1_555 1_555
O21A P3A 1_555 1_555
O22A C17A 1_555 1_555
O23A Ni2A 1_555 1_555
O24A P4A 1_555 1_555
O25A P4A 1_555 1_555
O26A Na1A 1_555 1_555
C2A P3A 1_555 1_555
C17A O21A 1_555 1_555
C18A C17A 1_555 1_555
C19A C18A 1_555 1_555
H31A C19A 1_555 1_555
C20A C19A 1_555 1_555
H32A C20A 1_555 1_555
C21A C20A 1_555 1_555
H33A C21A 1_555 1_555
C22A C21A 1_555 1_555
H34A C22A 1_555 1_555
C23A C18A 1_555 1_555
H35A C23A 1_555 1_555
C24A O25A 1_555 1_555
C25A C24A 1_555 1_555
C26A C25A 1_555 1_555
H36A C26A 1_555 1_555
C27A C26A 1_555 1_555
H37A C27A 1_555 1_555
C28A C27A 1_555 1_555
H38A C28A 1_555 1_555
C29A C28A 1_555 1_555
H39A C29A 1_555 1_555
C30A C25A 1_555 1_555
H40A C30A 1_555 1_555
Na1 O2 1_555 1_555
P2 C1 1_555 1_555
P4 C2 1_555 1_555
O26 C24 1_555 1_555
C8 C9 1_555 1_555
C15 C16 1_555 1_555
C22 C23 1_555 1_555
C29 C30 1_555 1_555
Na1A O2A 1_555 1_555
Na1A_2 O5A 1_555 1_555
P4A C2A 1_555 1_555
O26A C24A 1_555 1_555
C22A C23A 1_555 1_555
C29A C30A 1_555 1_555

#END
