
#######################################################################
#
#                 Cambridge Crystallographic Data Centre
#                                CCDC 
#
#######################################################################
#
# If this CIF has been generated from an entry in the Cambridge 
# Structural Database, then it will include bibliographic, chemical, 
# crystal, experimental, refinement or atomic coordinate data resulting 
# from the CCDC's data processing and validation procedures.
#
#######################################################################

data_BUKFIY
_symmetry_cell_setting           triclinic
_symmetry_space_group_name_H-M   'P -1'
_symmetry_Int_Tables_number      2
_space_group_name_Hall           '-P 1'
loop_
_symmetry_equiv_pos_site_id
_symmetry_equiv_pos_as_xyz
1 x,y,z
2 -x,-y,-z
_cell_length_a                   7.6593(5)
_cell_length_b                   7.6693(6)
_cell_length_c                   11.3462(8)
_cell_angle_alpha                100.363(6)
_cell_angle_beta                 101.345(6)
_cell_angle_gamma                101.104(6)
_cell_volume                     624.594
loop_
_atom_site_label
_atom_site_type_symbol
_atom_site_fract_x
_atom_site_fract_y
_atom_site_fract_z
Cu1 Cu 0.16724(5) 0.21204(5) 0.26222(4)
F1 F -0.2585(2) -0.7001(2) -0.05308(15)
F2 F -0.6024(2) -0.8075(2) -0.18129(14)
N1 N 0.0589(3) -0.6091(3) 0.2045(2)
N2 N 0.0347(3) -0.0416(3) 0.2164(2)
N3 N 0.4108(3) 0.2330(3) 0.3735(2)
C1 C 0.4339(4) 0.2597(4) 0.4966(3)
C2 C 0.5506(4) 0.2002(3) 0.3221(3)
C3 C -0.3754(3) -0.5972(4) -0.0244(2)
C4 C -0.1212(3) -0.3796(4) 0.1426(2)
C5 C -0.0345(3) -0.1944(4) 0.1834(3)
C6 C -0.0214(3) -0.5052(3) 0.1754(3)
C7 C -0.5551(3) -0.6542(3) -0.0902(2)
C8 C -0.3103(3) -0.4394(3) 0.0695(2)
C9 C 0.7146(4) 0.1910(4) 0.3940(3)
H1 H 0.8108 0.1664 0.3568
C10 C 0.7384(4) 0.2179(4) 0.5206(3)
H2 H 0.8505 0.2111 0.5710
C11 C 0.5140(4) 0.1747(4) 0.1853(3)
H3 H 0.4173 0.0639 0.1460
H4 H 0.6261 0.1632 0.1584
H5 H 0.4746 0.2803 0.1615
C12 C 0.5975(4) 0.2547(4) 0.5726(3)
H6 H 0.6124 0.2763 0.6596
C13 C 0.2731(4) 0.2958(4) 0.5462(3)
H7 H 0.2191 0.3811 0.5046
H8 H 0.3142 0.3489 0.6351
H9 H 0.1812 0.1810 0.5313
F1A F -0.7415(2) -0.2999(2) 0.05308(15)
F2A F -0.3976(2) -0.1925(2) 0.18129(14)
N1A N -1.0589(3) -0.3909(3) -0.2045(2)
N2A N -1.0347(3) -0.9584(3) -0.2164(2)
C3A C -0.6246(3) -0.4028(4) 0.0244(2)
C4A C -0.8788(3) -0.6204(4) -0.1426(2)
C5A C -0.9655(3) -0.8056(4) -0.1834(3)
C6A C -0.9786(3) -0.4948(3) -0.1754(3)
C7A C -0.4449(3) -0.3458(3) 0.0902(2)
C8A C -0.6897(3) -0.5606(3) -0.0695(2)
Cu1A Cu -1.16724(5) -1.21204(5) -0.26222(4)
N3A N -1.4108(3) -1.2330(3) -0.3735(2)
C1A C -1.4339(4) -1.2597(4) -0.4966(3)
C2A C -1.5506(4) -1.2002(3) -0.3221(3)
C9A C -1.7146(4) -1.1910(4) -0.3940(3)
H1A H -1.8108 -1.1664 -0.3568
C10A C -1.7384(4) -1.2179(4) -0.5206(3)
H2A H -1.8505 -1.2111 -0.5710
C11A C -1.5140(4) -1.1747(4) -0.1853(3)
H3A H -1.4173 -1.0639 -0.1460
H4A H -1.6261 -1.1632 -0.1584
H5A H -1.4746 -1.2803 -0.1615
C12A C -1.5975(4) -1.2547(4) -0.5726(3)
H6A H -1.6124 -1.2763 -0.6596
C13A C -1.2731(4) -1.2958(4) -0.5462(3)
H7A H -1.2191 -1.3811 -0.5046
H8A H -1.3142 -1.3489 -0.6351
H9A H -1.1812 -1.1810 -0.5313
Cu1_2 Cu 0.16724(5) -0.78796(5) 0.26222(4)
Cu1A_2 Cu -1.16724(5) -0.21204(5) -0.26222(4)
N1_2 N 0.0589(3) 0.3909(3) 0.2045(2)
N1A_2 N -1.0589(3) -1.3909(3) -0.2045(2)
loop_
_geom_bond_atom_site_label_1
_geom_bond_atom_site_label_2
_geom_bond_site_symmetry_1
_geom_bond_site_symmetry_2
Cu1 N2 1_555 1_555
F1 C3 1_555 1_555
F2 C7 1_555 1_555
N1 C6 1_555 1_555
N2 C5 1_555 1_555
N3 Cu1 1_555 1_555
C1 N3 1_555 1_555
C2 N3 1_555 1_555
C3 C7 1_555 1_555
C4 C5 1_555 1_555
C6 C4 1_555 1_555
C7 C8A 1_555 1_555
C8 C3 1_555 1_555
C9 C2 1_555 1_555
H1 C9 1_555 1_555
C10 C9 1_555 1_555
H2 C10 1_555 1_555
C11 C2 1_555 1_555
H3 C11 1_555 1_555
H4 C11 1_555 1_555
H5 C11 1_555 1_555
C12 C1 1_555 1_555
H6 C12 1_555 1_555
C13 C1 1_555 1_555
H7 C13 1_555 1_555
H8 C13 1_555 1_555
H9 C13 1_555 1_555
F1A C3A 1_555 1_555
F2A C7A 1_555 1_555
N1A C6A 1_555 1_555
N2A C5A 1_555 1_555
C3A C7A 1_555 1_555
C4A C5A 1_555 1_555
C6A C4A 1_555 1_555
C7A C8 1_555 1_555
C8A C3A 1_555 1_555
Cu1A N2A 1_555 1_555
N3A Cu1A 1_555 1_555
C1A N3A 1_555 1_555
C2A N3A 1_555 1_555
C9A C2A 1_555 1_555
H1A C9A 1_555 1_555
C10A C9A 1_555 1_555
H2A C10A 1_555 1_555
C11A C2A 1_555 1_555
H3A C11A 1_555 1_555
H4A C11A 1_555 1_555
H5A C11A 1_555 1_555
C12A C1A 1_555 1_555
H6A C12A 1_555 1_555
C13A C1A 1_555 1_555
H7A C13A 1_555 1_555
H8A C13A 1_555 1_555
H9A C13A 1_555 1_555
Cu1_2 N1 1_555 1_555
Cu1A_2 N1A 1_555 1_555
N1_2 Cu1 1_555 1_555
N1A_2 Cu1A 1_555 1_555
C4 C8 1_555 1_555
C10 C12 1_555 1_555
C4A C8A 1_555 1_555
C10A C12A 1_555 1_555

#END
