
#######################################################################
#
#                 Cambridge Crystallographic Data Centre
#                                CCDC 
#
#######################################################################
#
# If this CIF has been generated from an entry in the Cambridge 
# Structural Database, then it will include bibliographic, chemical, 
# crystal, experimental, refinement or atomic coordinate data resulting 
# from the CCDC's data processing and validation procedures.
#
#######################################################################

data_BUKGIZ
_symmetry_cell_setting           triclinic
_symmetry_space_group_name_H-M   'P -1'
_symmetry_Int_Tables_number      2
_space_group_name_Hall           '-P 1'
loop_
_symmetry_equiv_pos_site_id
_symmetry_equiv_pos_as_xyz
1 x,y,z
2 -x,-y,-z
_cell_length_a                   7.4366(8)
_cell_length_b                   10.2836(11)
_cell_length_c                   12.2532(9)
_cell_angle_alpha                74.646(9)
_cell_angle_beta                 83.290(8)
_cell_angle_gamma                73.618(9)
_cell_volume                     866.033
loop_
_atom_site_label
_atom_site_type_symbol
_atom_site_fract_x
_atom_site_fract_y
_atom_site_fract_z
C1 C 0.2317(11) 0.9288(10) 0.3803(8)
H1 H 0.2145 0.9030 0.3141
C2 C 0.3093(11) 0.8296(8) 0.4690(9)
H2 H 0.3481 0.7351 0.4639
Cu1 Cu 0.17617(11) 1.25922(9) 0.65236(8)
N1 N 0.1484(6) 1.2460(5) 0.4908(4)
N2 N -0.6568(7) 1.3485(6) 0.6960(5)
N3 N -0.0708(6) 1.3090(6) 0.7256(5)
N4 N 0.2911(6) 1.0437(5) 0.6720(5)
C3 C 0.2769(7) 1.0040(6) 0.5782(6)
C4 C 0.1969(7) 1.1116(6) 0.4820(5)
C5 C -0.3163(7) 1.4645(6) 0.9593(5)
H3 H -0.1891 1.4404 0.9324
C6 C -0.4544(7) 1.4419(5) 0.9038(5)
C7 C -0.2233(8) 1.3446(6) 0.7606(5)
C8 C -0.4077(7) 1.3845(6) 0.8025(5)
C9 C -0.6391(7) 1.4789(6) 0.9473(5)
H4 H -0.7365 1.4647 0.9118
C10 C -0.5460(7) 1.3662(6) 0.7439(5)
C11 C 0.3354(8) 0.8626(6) 0.5718(7)
C12 C 0.1729(9) 1.0756(7) 0.3827(6)
C13 C 0.3675(10) 0.9455(8) 0.7611(7)
H5 H 0.3798 0.9738 0.8270
C14 C 0.0910(10) 1.1851(9) 0.2914(6)
H6 H 0.0704 1.1650 0.2233
C15 C 0.4140(9) 0.7629(7) 0.6688(9)
H7 H 0.4557 0.6670 0.6679
C16 C 0.0718(8) 1.3463(7) 0.4029(5)
H8 H 0.0361 1.4403 0.4096
C17 C 0.0415(10) 1.3201(9) 0.3013(6)
H9 H -0.0125 1.3947 0.2403
C18 C 0.4311(10) 0.8023(8) 0.7636(8)
H10 H 0.4840 0.7357 0.8293
N2A N -0.3432(7) 1.6515(6) 1.3040(5)
N3A N -0.9292(6) 1.6910(6) 1.2744(5)
C5A C -0.6837(7) 1.5355(6) 1.0407(5)
H3A H -0.8109 1.5596 1.0676
C6A C -0.5456(7) 1.5581(5) 1.0962(5)
C7A C -0.7767(8) 1.6554(6) 1.2394(5)
C8A C -0.5923(7) 1.6155(6) 1.1975(5)
C9A C -0.3609(7) 1.5211(6) 1.0527(5)
H4A H -0.2635 1.5353 1.0882
C10A C -0.4540(7) 1.6338(6) 1.2561(5)
C1A C -1.2317(11) 2.0712(10) 1.6197(8)
H1A H -1.2145 2.0970 1.6859
C2A C -1.3093(11) 2.1704(8) 1.5310(9)
H2A H -1.3481 2.2649 1.5361
Cu1A Cu -1.17617(11) 1.74078(9) 1.34764(8)
N1A N -1.1484(6) 1.7540(5) 1.5092(4)
N4A N -1.2911(6) 1.9563(5) 1.3280(5)
C3A C -1.2769(7) 1.9960(6) 1.4218(6)
C4A C -1.1969(7) 1.8884(6) 1.5180(5)
C11A C -1.3354(8) 2.1374(6) 1.4282(7)
C12A C -1.1729(9) 1.9244(7) 1.6173(6)
C13A C -1.3675(10) 2.0545(8) 1.2389(7)
H5A H -1.3798 2.0262 1.1730
C14A C -1.0910(10) 1.8149(9) 1.7086(6)
H6A H -1.0704 1.8350 1.7767
C15A C -1.4140(9) 2.2371(7) 1.3312(9)
H7A H -1.4557 2.3330 1.3321
C16A C -1.0718(8) 1.6537(7) 1.5971(5)
H8A H -1.0361 1.5597 1.5904
C17A C -1.0415(10) 1.6799(9) 1.6987(6)
H9A H -0.9875 1.6053 1.7597
C18A C -1.4311(10) 2.1977(8) 1.2364(8)
H10A H -1.4840 2.2643 1.1707
Cu1_2 Cu -0.82383(11) 1.25922(9) 0.65236(8)
Cu1A_2 Cu -0.17617(11) 1.74078(9) 1.34764(8)
N2_2 N 0.3432(7) 1.3485(6) 0.6960(5)
N2A_2 N -1.3432(7) 1.6515(6) 1.3040(5)
O2 O 0.232(6) 1.168(4) 0.986(3)
C19 C 0.370(8) 0.999(6) 1.034(5)
O1? O 0.192(5) 1.060(4) 1.016(3)
C20? C 0.053(8) 1.031(6) 1.025(4)
loop_
_geom_bond_atom_site_label_1
_geom_bond_atom_site_label_2
_geom_bond_site_symmetry_1
_geom_bond_site_symmetry_2
C1 H1 1_555 1_555
C2 C1 1_555 1_555
H2 C2 1_555 1_555
Cu1 N1 1_555 1_555
N1 C4 1_555 1_555
N2 C10 1_555 1_555
N3 Cu1 1_555 1_555
N4 Cu1 1_555 1_555
C3 N4 1_555 1_555
C4 C3 1_555 1_555
C5 H3 1_555 1_555
C6 C5 1_555 1_555
C7 N3 1_555 1_555
C8 C6 1_555 1_555
C9 C6 1_555 1_555
H4 C9 1_555 1_555
C10 C8 1_555 1_555
C11 C2 1_555 1_555
C12 C1 1_555 1_555
C13 N4 1_555 1_555
H5 C13 1_555 1_555
C14 C12 1_555 1_555
H6 C14 1_555 1_555
C15 C11 1_555 1_555
H7 C15 1_555 1_555
C16 N1 1_555 1_555
H8 C16 1_555 1_555
C17 C14 1_555 1_555
H9 C17 1_555 1_555
C18 C13 1_555 1_555
H10 C18 1_555 1_555
O2 C19 1_555 1_555
N2A C10A 1_555 1_555
N3A C7A 1_555 1_555
C5A C9 1_555 1_555
H3A C5A 1_555 1_555
C6A C5A 1_555 1_555
C7A C8A 1_555 1_555
C8A C6A 1_555 1_555
C9A C5 1_555 1_555
H4A C9A 1_555 1_555
C10A C8A 1_555 1_555
C1A H1A 1_555 1_555
C2A C1A 1_555 1_555
H2A C2A 1_555 1_555
Cu1A N3A 1_555 1_555
N1A Cu1A 1_555 1_555
N4A Cu1A 1_555 1_555
C3A N4A 1_555 1_555
C4A N1A 1_555 1_555
C11A C2A 1_555 1_555
C12A C1A 1_555 1_555
C13A N4A 1_555 1_555
H5A C13A 1_555 1_555
C14A C12A 1_555 1_555
H6A C14A 1_555 1_555
C15A C11A 1_555 1_555
H7A C15A 1_555 1_555
C16A N1A 1_555 1_555
H8A C16A 1_555 1_555
C17A C14A 1_555 1_555
H9A C17A 1_555 1_555
C18A C13A 1_555 1_555
H10A C18A 1_555 1_555
Cu1_2 N2 1_555 1_555
Cu1A_2 N2A 1_555 1_555
N2_2 Cu1 1_555 1_555
N2A_2 Cu1A 1_555 1_555
C3 C11 1_555 1_555
C4 C12 1_555 1_555
C7 C8 1_555 1_555
C15 C18 1_555 1_555
C16 C17 1_555 1_555
C6A C9A 1_555 1_555
C3A C4A 1_555 1_555
C3A C11A 1_555 1_555
C4A C12A 1_555 1_555
C15A C18A 1_555 1_555
C16A C17A 1_555 1_555

#END
