
#######################################################################
#
#                 Cambridge Crystallographic Data Centre
#                                CCDC 
#
#######################################################################
#
# If this CIF has been generated from an entry in the Cambridge 
# Structural Database, then it will include bibliographic, chemical, 
# crystal, experimental, refinement or atomic coordinate data resulting 
# from the CCDC's data processing and validation procedures.
#
#######################################################################

data_BUKHIA
_symmetry_cell_setting           monoclinic
_symmetry_space_group_name_H-M   'C 2/c'
_symmetry_Int_Tables_number      15
_space_group_name_Hall           '-C 2yn'
loop_
_symmetry_equiv_pos_site_id
_symmetry_equiv_pos_as_xyz
1 x,y,z
2 -x,y,1/2-z
3 1/2+x,1/2+y,z
4 1/2-x,1/2+y,1/2-z
5 -x,-y,-z
6 x,-y,1/2+z
7 1/2-x,1/2-y,-z
8 1/2+x,1/2-y,1/2+z
_cell_length_a                   20.4237(6)
_cell_length_b                   10.9154(2)
_cell_length_c                   32.3750(7)
_cell_angle_alpha                90
_cell_angle_beta                 100.928(2)
_cell_angle_gamma                90
_cell_volume                     7086.57
loop_
_atom_site_label
_atom_site_type_symbol
_atom_site_fract_x
_atom_site_fract_y
_atom_site_fract_z
Cu1 Cu 0.21711(2) 0.24600(4) 0.16057(2)
P1 P 0.14217(5) 0.11393(8) 0.12398(3)
P2 P 0.26254(5) 0.39252(8) 0.12531(3)
F1 F 0.45742(10) 0.0174(2) 0.32424(6)
F2 F 0.41306(10) 0.0127(2) 0.17547(6)
N1 N 0.27987(15) 0.1407(3) 0.19875(10)
N2 N 0.32050(14) -0.1472(3) 0.29965(9)
C1 C 0.45553(17) 0.0131(3) 0.21301(10)
C2 C 0.32407(18) 0.3545(3) 0.09325(11)
C3 C 0.47761(17) 0.0142(3) 0.28691(10)
C4 C 0.1110(2) -0.0025(3) 0.15609(11)
C5 C 0.06519(18) 0.1787(3) 0.09384(11)
C6 C 0.35866(17) 0.0068(3) 0.25013(11)
C7 C 0.31395(17) 0.0776(3) 0.22209(11)
C8 C 0.1793(2) 0.0207(3) 0.08744(11)
C9 C 0.33589(17) -0.0754(3) 0.27728(11)
C10 C 0.04290(19) 0.2870(4) 0.10836(13)
H1 H 0.0696 0.3281 0.1315
C11 C 0.3046(2) 0.5190(4) 0.15671(13)
C12 C 0.2358(2) 0.0667(4) 0.07468(13)
H2 H 0.2513 0.1462 0.0836
C13 C 0.43009(17) 0.0125(3) 0.24998(10)
C14 C -0.0179(2) 0.3363(4) 0.08958(13)
H3 H -0.0334 0.4095 0.1004
C15 C 0.1561(2) -0.0886(4) 0.17646(12)
H4 H 0.2009 -0.0887 0.1722
C16 C 0.3712(2) 0.2678(4) 0.10936(14)
H5 H 0.3687 0.2286 0.1352
C17 C 0.1573(2) -0.0955(4) 0.07363(13)
H6 H 0.1190 -0.1293 0.0821
C18 C 0.2464(2) -0.1155(4) 0.03562(14)
H7 H 0.2689 -0.1620 0.0178
C19 C 0.1077(2) 0.4734(4) 0.02858(13)
H8 H 0.0913 0.4455 0.0008
C20 C 0.1571(2) 0.5587(4) 0.10888(13)
H9 H 0.1740 0.5887 0.1364
C21 C 0.19236(19) 0.4681(4) 0.09161(12)
C22 C 0.1666(2) 0.4239(4) 0.05184(12)
H10 H 0.1889 0.3597 0.0403
C23 C 0.1908(2) -0.1627(4) 0.04755(13)
H11 H 0.1750 -0.2416 0.0380
C24 C -0.0556(2) 0.2805(4) 0.05568(14)
H12 H -0.0971 0.3152 0.0427
C25 C 0.0981(2) 0.6048(4) 0.08644(15)
H13 H 0.0742 0.6653 0.0986
C26 C 0.0737(2) 0.5623(5) 0.04586(15)
H14 H 0.0335 0.5948 0.0301
C27 C 0.2701(2) -0.0007(4) 0.04917(14)
H15 H 0.3092 0.0314 0.0412
C28 C 0.0263(2) 0.1219(4) 0.05899(12)
H16 H 0.0411 0.0479 0.0483
C29 C -0.0338(2) 0.1732(5) 0.03993(13)
H17 H -0.0600 0.1349 0.0161
C30 C 0.3279(2) 0.4096(4) 0.05504(12)
H18 H 0.2959 0.4697 0.0436
C31 C 0.3223(3) 0.6253(5) 0.13862(15)
H19 H 0.3106 0.6354 0.1090
C32 C 0.4222(2) 0.2370(4) 0.08827(17)
H20 H 0.4552 0.1787 0.0999
C33 C 0.3756(3) 0.7018(5) 0.20603(16)
H21 H 0.3999 0.7642 0.2228
C34 C 0.3238(2) 0.5043(4) 0.20013(13)
H22 H 0.3129 0.4309 0.2130
C35 C 0.3777(2) 0.3777(5) 0.03365(15)
H23 H 0.3795 0.4152 0.0074
C36 C 0.3586(2) 0.5954(5) 0.22458(15)
H24 H 0.3709 0.5849 0.2542
C37 C 0.0455(2) -0.0025(4) 0.16255(14)
H25 H 0.0144 0.0555 0.1485
C38 C 0.1356(3) -0.1745(4) 0.20311(14)
H26 H 0.1662 -0.2338 0.2169
C39 C 0.4243(2) 0.2927(5) 0.04997(16)
H27 H 0.4585 0.2715 0.0350
C40 C 0.0260(3) -0.0880(5) 0.18963(17)
H28 H -0.0185 -0.0878 0.1945
C41 C 0.3569(4) 0.7175(5) 0.16268(18)
H29 H 0.3678 0.7910 0.1498
C42 C 0.0710(3) -0.1733(4) 0.20950(16)
H30 H 0.0572 -0.2318 0.2278
F1A F 0.54258(10) 0.0174(2) 0.17576(6)
F2A F 0.58694(10) 0.0127(2) 0.32453(6)
N1A N 0.72013(15) 0.1407(3) 0.30125(10)
N2A N 0.67950(14) -0.1472(3) 0.20035(9)
C1A C 0.54447(17) 0.0131(3) 0.28699(10)
C3A C 0.52239(17) 0.0142(3) 0.21309(10)
C6A C 0.64134(17) 0.0068(3) 0.24987(11)
C7A C 0.68605(17) 0.0776(3) 0.27791(11)
C9A C 0.66411(17) -0.0754(3) 0.22272(11)
C13A C 0.56991(17) 0.0125(3) 0.25002(10)
Cu1A Cu 0.78289(2) 0.24600(4) 0.33943(2)
P1A P 0.85783(5) 0.11393(8) 0.37602(3)
P2A P 0.73746(5) 0.39252(8) 0.37469(3)
C2A C 0.67593(18) 0.3545(3) 0.40675(11)
C4A C 0.8890(2) -0.0025(3) 0.34391(11)
C5A C 0.93481(18) 0.1787(3) 0.40616(11)
C8A C 0.8207(2) 0.0207(3) 0.41256(11)
C10A C 0.95710(19) 0.2870(4) 0.39164(13)
H1A H 0.9304 0.3281 0.3685
C11A C 0.6954(2) 0.5190(4) 0.34329(13)
C12A C 0.7642(2) 0.0667(4) 0.42532(13)
H2A H 0.7487 0.1462 0.4164
C14A C 1.0179(2) 0.3363(4) 0.41042(13)
H3A H 1.0334 0.4095 0.3996
C15A C 0.8439(2) -0.0886(4) 0.32354(12)
H4A H 0.7991 -0.0887 0.3278
C16A C 0.6288(2) 0.2678(4) 0.39064(14)
H5A H 0.6313 0.2286 0.3648
C17A C 0.8427(2) -0.0955(4) 0.42637(13)
H6A H 0.8810 -0.1293 0.4179
C18A C 0.7536(2) -0.1155(4) 0.46438(14)
H7A H 0.7311 -0.1620 0.4822
C19A C 0.8923(2) 0.4734(4) 0.47142(13)
H8A H 0.9087 0.4455 0.4992
C20A C 0.8429(2) 0.5587(4) 0.39112(13)
H9A H 0.8260 0.5887 0.3636
C21A C 0.80764(19) 0.4681(4) 0.40839(12)
C22A C 0.8334(2) 0.4239(4) 0.44816(12)
H10A H 0.8111 0.3597 0.4597
C23A C 0.8092(2) -0.1627(4) 0.45245(13)
H11A H 0.8250 -0.2416 0.4620
C24A C 1.0556(2) 0.2805(4) 0.44432(14)
H12A H 1.0971 0.3152 0.4573
C25A C 0.9019(2) 0.6048(4) 0.41356(15)
H13A H 0.9258 0.6653 0.4014
C26A C 0.9263(2) 0.5623(5) 0.45414(15)
H14A H 0.9665 0.5948 0.4699
C27A C 0.7299(2) -0.0007(4) 0.45083(14)
H15A H 0.6908 0.0314 0.4588
C28A C 0.9737(2) 0.1219(4) 0.44101(12)
H16A H 0.9589 0.0479 0.4517
C29A C 1.0338(2) 0.1732(5) 0.46007(13)
H17A H 1.0600 0.1349 0.4839
C30A C 0.6721(2) 0.4096(4) 0.44496(12)
H18A H 0.7041 0.4697 0.4564
C31A C 0.6777(3) 0.6253(5) 0.36138(15)
H19A H 0.6894 0.6354 0.3910
C32A C 0.5778(2) 0.2370(4) 0.41173(17)
H20A H 0.5448 0.1787 0.4001
C33A C 0.6244(3) 0.7018(5) 0.29397(16)
H21A H 0.6001 0.7642 0.2772
C34A C 0.6762(2) 0.5043(4) 0.29987(13)
H22A H 0.6871 0.4309 0.2870
C35A C 0.6223(2) 0.3777(5) 0.46635(15)
H23A H 0.6205 0.4152 0.4926
C36A C 0.6414(2) 0.5954(5) 0.27542(15)
H24A H 0.6291 0.5849 0.2458
C37A C 0.9545(2) -0.0025(4) 0.33745(14)
H25A H 0.9856 0.0555 0.3515
C38A C 0.8644(3) -0.1745(4) 0.29689(14)
H26A H 0.8338 -0.2338 0.2831
C39A C 0.5757(2) 0.2927(5) 0.45003(16)
H27A H 0.5415 0.2715 0.4650
C40A C 0.9740(3) -0.0880(5) 0.31037(17)
H28A H 1.0185 -0.0878 0.3055
C41A C 0.6431(4) 0.7175(5) 0.33732(18)
H29A H 0.6322 0.7910 0.3502
C42A C 0.9290(3) -0.1733(4) 0.29050(16)
H30A H 0.9428 -0.2318 0.2722
Cu1B Cu 0.71711(2) -0.25400(4) 0.16057(2)
Cu1C Cu 0.28289(2) -0.25400(4) 0.33943(2)
N2B N 0.82050(14) 0.3528(3) 0.29965(9)
N2C N 0.17950(14) 0.3528(3) 0.20035(9)
loop_
_geom_bond_atom_site_label_1
_geom_bond_atom_site_label_2
_geom_bond_site_symmetry_1
_geom_bond_site_symmetry_2
Cu1 P1 1_555 1_555
P1 C4 1_555 1_555
P2 Cu1 1_555 1_555
F1 C3 1_555 1_555
F2 C1 1_555 1_555
N1 Cu1 1_555 1_555
N2 C9 1_555 1_555
C1 C13 1_555 1_555
C2 P2 1_555 1_555
C3 C13 1_555 1_555
C4 C15 1_555 1_555
C5 P1 1_555 1_555
C6 C7 1_555 1_555
C7 N1 1_555 1_555
C8 P1 1_555 1_555
C9 C6 1_555 1_555
C10 C5 1_555 1_555
H1 C10 1_555 1_555
C11 P2 1_555 1_555
C12 C8 1_555 1_555
H2 C12 1_555 1_555
C13 C6 1_555 1_555
C14 C10 1_555 1_555
H3 C14 1_555 1_555
C15 H4 1_555 1_555
C16 C2 1_555 1_555
H5 C16 1_555 1_555
C17 C8 1_555 1_555
H6 C17 1_555 1_555
C18 H7 1_555 1_555
C19 H8 1_555 1_555
C20 H9 1_555 1_555
C21 P2 1_555 1_555
C22 C19 1_555 1_555
H10 C22 1_555 1_555
C23 C17 1_555 1_555
H11 C23 1_555 1_555
C24 C14 1_555 1_555
H12 C24 1_555 1_555
C25 C20 1_555 1_555
H13 C25 1_555 1_555
C26 C19 1_555 1_555
H14 C26 1_555 1_555
C27 C12 1_555 1_555
H15 C27 1_555 1_555
C28 C5 1_555 1_555
H16 C28 1_555 1_555
C29 C24 1_555 1_555
H17 C29 1_555 1_555
C30 C2 1_555 1_555
H18 C30 1_555 1_555
C31 C11 1_555 1_555
H19 C31 1_555 1_555
C32 C16 1_555 1_555
H20 C32 1_555 1_555
C33 H21 1_555 1_555
C34 C11 1_555 1_555
H22 C34 1_555 1_555
C35 C30 1_555 1_555
H23 C35 1_555 1_555
C36 C33 1_555 1_555
H24 C36 1_555 1_555
C37 C4 1_555 1_555
H25 C37 1_555 1_555
C38 C15 1_555 1_555
H26 C38 1_555 1_555
C39 C32 1_555 1_555
H27 C39 1_555 1_555
C40 C37 1_555 1_555
H28 C40 1_555 1_555
C41 C31 1_555 1_555
H29 C41 1_555 1_555
C42 C38 1_555 1_555
H30 C42 1_555 1_555
F1A C3A 1_555 1_555
F2A C1A 1_555 1_555
N1A C7A 1_555 1_555
N2A C9A 1_555 1_555
C1A C3 1_555 1_555
C3A C1 1_555 1_555
C6A C7A 1_555 1_555
C9A C6A 1_555 1_555
C13A C1A 1_555 1_555
Cu1A N1A 1_555 1_555
P1A Cu1A 1_555 1_555
P2A Cu1A 1_555 1_555
C2A P2A 1_555 1_555
C4A P1A 1_555 1_555
C5A P1A 1_555 1_555
C8A P1A 1_555 1_555
C10A C5A 1_555 1_555
H1A C10A 1_555 1_555
C11A P2A 1_555 1_555
C12A C8A 1_555 1_555
H2A C12A 1_555 1_555
C14A C10A 1_555 1_555
H3A C14A 1_555 1_555
C15A C4A 1_555 1_555
H4A C15A 1_555 1_555
C16A C2A 1_555 1_555
H5A C16A 1_555 1_555
C17A C8A 1_555 1_555
H6A C17A 1_555 1_555
C18A H7A 1_555 1_555
C19A H8A 1_555 1_555
C20A H9A 1_555 1_555
C21A P2A 1_555 1_555
C22A C19A 1_555 1_555
H10A C22A 1_555 1_555
C23A C17A 1_555 1_555
H11A C23A 1_555 1_555
C24A C14A 1_555 1_555
H12A C24A 1_555 1_555
C25A C20A 1_555 1_555
H13A C25A 1_555 1_555
C26A C19A 1_555 1_555
H14A C26A 1_555 1_555
C27A C12A 1_555 1_555
H15A C27A 1_555 1_555
C28A C5A 1_555 1_555
H16A C28A 1_555 1_555
C29A C24A 1_555 1_555
H17A C29A 1_555 1_555
C30A C2A 1_555 1_555
H18A C30A 1_555 1_555
C31A C11A 1_555 1_555
H19A C31A 1_555 1_555
C32A C16A 1_555 1_555
H20A C32A 1_555 1_555
C33A H21A 1_555 1_555
C34A C11A 1_555 1_555
H22A C34A 1_555 1_555
C35A C30A 1_555 1_555
H23A C35A 1_555 1_555
C36A C33A 1_555 1_555
H24A C36A 1_555 1_555
C37A C4A 1_555 1_555
H25A C37A 1_555 1_555
C38A C15A 1_555 1_555
H26A C38A 1_555 1_555
C39A C32A 1_555 1_555
H27A C39A 1_555 1_555
C40A C37A 1_555 1_555
H28A C40A 1_555 1_555
C41A C31A 1_555 1_555
H29A C41A 1_555 1_555
C42A C38A 1_555 1_555
H30A C42A 1_555 1_555
Cu1B N2A 1_555 1_555
Cu1C N2 1_555 1_555
N2B Cu1A 1_555 1_555
N2C Cu1 1_555 1_555
C18 C23 1_555 1_555
C18 C27 1_555 1_555
C20 C21 1_555 1_555
C21 C22 1_555 1_555
C25 C26 1_555 1_555
C28 C29 1_555 1_555
C33 C41 1_555 1_555
C34 C36 1_555 1_555
C35 C39 1_555 1_555
C40 C42 1_555 1_555
C3A C13A 1_555 1_555
C6A C13A 1_555 1_555
C18A C23A 1_555 1_555
C18A C27A 1_555 1_555
C20A C21A 1_555 1_555
C21A C22A 1_555 1_555
C25A C26A 1_555 1_555
C28A C29A 1_555 1_555
C33A C41A 1_555 1_555
C34A C36A 1_555 1_555
C35A C39A 1_555 1_555
C40A C42A 1_555 1_555

#END
