
#######################################################################
#
#                 Cambridge Crystallographic Data Centre
#                                CCDC 
#
#######################################################################
#
# If this CIF has been generated from an entry in the Cambridge 
# Structural Database, then it will include bibliographic, chemical, 
# crystal, experimental, refinement or atomic coordinate data resulting 
# from the CCDC's data processing and validation procedures.
#
#######################################################################

data_BUKHUM
_symmetry_cell_setting           monoclinic
_symmetry_space_group_name_H-M   'C 2/c'
_symmetry_Int_Tables_number      15
_space_group_name_Hall           '-C 2yn'
loop_
_symmetry_equiv_pos_site_id
_symmetry_equiv_pos_as_xyz
1 x,y,z
2 -x,y,1/2-z
3 1/2+x,1/2+y,z
4 1/2-x,1/2+y,1/2-z
5 -x,-y,-z
6 x,-y,1/2+z
7 1/2-x,1/2-y,-z
8 1/2+x,1/2-y,1/2+z
_cell_length_a                   7.5420(15)
_cell_length_b                   13.738(3)
_cell_length_c                   16.532(3)
_cell_angle_alpha                90
_cell_angle_beta                 97.15(3)
_cell_angle_gamma                90
_cell_volume                     1699.59
loop_
_atom_site_label
_atom_site_type_symbol
_atom_site_fract_x
_atom_site_fract_y
_atom_site_fract_z
Cu1 Cu 0.65070(4) 0.59067(2) 0.82738(2)
N1 N 0.5541(2) 0.53104(13) 0.92646(11)
N2 N 0.7437(3) 0.51744(13) 0.74672(11)
C1 C 0.9672(3) 0.40077(15) 0.50179(13)
H1 H 0.9455 0.3327 0.5023
N3 N 0.8541(3) 0.22824(14) 0.65635(11)
C2 C 0.9700(3) 0.55717(15) 0.56599(12)
H2 H 0.9501 0.5971 0.6109
C3 C 0.8686(3) 0.41243(14) 0.63980(13)
C4 C 0.5005(3) 0.59333(14) 0.98116(14)
H3 H 0.4989 0.6608 0.9687
C5 C 0.8022(3) 0.46960(15) 0.69920(12)
C6 C 0.9356(3) 0.45705(14) 0.56902(12)
C7 C 0.8604(3) 0.31201(15) 0.64949(12)
C8 C 0.5526(3) 0.43558(15) 0.94495(12)
C9 C 0.6066(3) 0.36300(15) 0.88540(13)
H4 H 0.5236 0.3663 0.8349
H5 H 0.6037 0.2975 0.9087
H6 H 0.7279 0.3776 0.8735
N1D N 0.4459(2) 0.46896(13) 1.07354(11)
C4D C 0.4995(3) 0.40667(14) 1.01884(14)
H3D H 0.5011 0.3392 1.0313
C8D C 0.4474(3) 0.56442(15) 1.05505(12)
C9D C 0.3934(3) 0.63700(15) 1.11460(13)
H4D H 0.4764 0.6337 1.1651
H5D H 0.3963 0.7025 1.0913
H6D H 0.2721 0.6224 1.1265
N2D N 1.2563(3) 0.48256(13) 0.25328(11)
C1D C 1.0328(3) 0.59923(15) 0.49821(13)
H1D H 1.0545 0.6673 0.4977
N3D N 1.1459(3) 0.77176(14) 0.34365(11)
C2D C 1.0300(3) 0.44283(15) 0.43401(12)
H2D H 1.0499 0.4029 0.3891
C3D C 1.1314(3) 0.58757(14) 0.36020(13)
C5D C 1.1978(3) 0.53040(15) 0.30080(12)
C6D C 1.0644(3) 0.54295(14) 0.43098(12)
C7D C 1.1396(3) 0.68799(15) 0.35051(12)
Cu1D Cu 0.34930(4) 0.40933(2) 1.17262(2)
Cu1C Cu 0.84930(4) 0.09067(2) 0.67262(2)
Cu1D_2 Cu 1.34930(4) 0.40933(2) 0.17262(2)
Cu1G Cu 1.15070(4) 0.90933(2) 0.32738(2)
N2D_2 N 0.2563(3) 0.48256(13) 1.25328(11)
N3C N 0.6459(3) 0.72824(14) 0.84365(11)
N3G N 0.3541(3) 0.27176(14) 1.15635(11)
loop_
_geom_bond_atom_site_label_1
_geom_bond_atom_site_label_2
_geom_bond_site_symmetry_1
_geom_bond_site_symmetry_2
Cu1 N1 1_555 1_555
N1 C4 1_555 1_555
N2 Cu1 1_555 1_555
C1 H1 1_555 1_555
N3 C7 1_555 1_555
C2 H2 1_555 1_555
C3 C5 1_555 1_555
C4 H3 1_555 1_555
C5 N2 1_555 1_555
C6 C1 1_555 1_555
C7 C3 1_555 1_555
C8 N1 1_555 1_555
C9 C8 1_555 1_555
H4 C9 1_555 1_555
H5 C9 1_555 1_555
H6 C9 1_555 1_555
N1D C4D 1_555 1_555
C4D C8 1_555 1_555
H3D C4D 1_555 1_555
C8D C4 1_555 1_555
C9D C8D 1_555 1_555
H4D C9D 1_555 1_555
H5D C9D 1_555 1_555
H6D C9D 1_555 1_555
N2D C5D 1_555 1_555
C1D C2 1_555 1_555
H1D C1D 1_555 1_555
N3D C7D 1_555 1_555
C2D C1 1_555 1_555
H2D C2D 1_555 1_555
C3D C5D 1_555 1_555
C6D C1D 1_555 1_555
C7D C3D 1_555 1_555
Cu1D N1D 1_555 1_555
Cu1C N3 1_555 1_555
Cu1D_2 N2D 1_555 1_555
Cu1G N3D 1_555 1_555
N2D_2 Cu1D 1_555 1_555
N3C Cu1 1_555 1_555
N3G Cu1D 1_555 1_555
C2 C6 1_555 1_555
C3 C6 1_555 1_555
N1D C8D 1_555 1_555
C2D C6D 1_555 1_555
C3D C6D 1_555 1_555

#END
