
#######################################################################
#
#                 Cambridge Crystallographic Data Centre
#                                CCDC 
#
#######################################################################
#
# If this CIF has been generated from an entry in the Cambridge 
# Structural Database, then it will include bibliographic, chemical, 
# crystal, experimental, refinement or atomic coordinate data resulting 
# from the CCDC's data processing and validation procedures.
#
#######################################################################

data_BUKLOJ01
_symmetry_cell_setting           monoclinic
_symmetry_space_group_name_H-M   'C 2/c'
_symmetry_Int_Tables_number      15
_space_group_name_Hall           '-C 2yn'
loop_
_symmetry_equiv_pos_site_id
_symmetry_equiv_pos_as_xyz
1 x,y,z
2 x,-y,1/2+z
3 1/2+x,1/2+y,z
4 1/2+x,1/2-y,1/2+z
5 -x,-y,-z
6 -x,y,1/2-z
7 1/2-x,1/2-y,-z
8 1/2-x,1/2+y,1/2-z
_cell_length_a                   18.2731(8)
_cell_length_b                   6.5417(3)
_cell_length_c                   7.2966(3)
_cell_angle_alpha                90
_cell_angle_beta                 98.653(2)
_cell_angle_gamma                90
_cell_volume                     862.287
loop_
_atom_site_label
_atom_site_type_symbol
_atom_site_fract_x
_atom_site_fract_y
_atom_site_fract_z
C1 C 0.0693(3) -0.001(2) 0.1115(13)
C2 C 0.0400(7) 0.1820(12) 0.0321(14)
C3 C 0.0293(7) -0.1825(12) 0.0794(13)
H1 H 0.0676(12) 0.307(2) 0.054(2)
H2 H 0.0495(12) -0.308(2) 0.134(2)
C4 C 0.1478(8) 0.001(3) 0.211(3)
O1 O 0.1863(6) 0.1544(16) 0.2044(18)
O2 O 0.1802(6) -0.1687(16) 0.2638(18)
Co1 Co 0.25000 0.25000 0.0000
O3 O 0.1952(6) 0.5340(14) -0.0140(14)
H3 H 0.18709 0.54683 0.1097
H4 H 0.24861 0.5982 -0.0057
C3D C -0.0293(7) 0.1825(12) -0.0794(13)
C1D C -0.0693(3) 0.001(2) -0.1115(13)
C2D C -0.0400(7) -0.1820(12) -0.0321(14)
H1D H -0.0676(12) -0.307(2) -0.054(2)
C4D C -0.1478(8) -0.001(3) -0.211(3)
O1D O -0.1863(6) -0.1544(16) -0.2044(18)
O2D O -0.1802(6) 0.1687(16) -0.2638(18)
H2D H -0.0495(12) 0.308(2) -0.134(2)
O3F O 0.3048(6) -0.0340(14) 0.0140(14)
H3F H 0.31291 -0.04683 -0.1097
H4F H 0.25139 -0.0982 0.0057
Co1A Co 0.25000 -0.25000 0.5000
O1F O 0.3137(6) 0.3456(16) -0.2044(18)
O2A O 0.1802(6) 0.1687(16) -0.2362(18)
O2G O 0.3198(6) 0.3313(16) 0.2362(18)
Co1B Co -0.25000 -0.25000 0.0000
Co1C Co -0.25000 0.25000 -0.5000
loop_
_geom_bond_atom_site_label_1
_geom_bond_atom_site_label_2
_geom_bond_site_symmetry_1
_geom_bond_site_symmetry_2
C1 C2 1_555 1_555
C2 H1 1_555 1_555
C3 C1 1_555 1_555
H2 C3 1_555 1_555
C4 C1 1_555 1_555
O1 C4 1_555 1_555
O2 C4 1_555 1_555
Co1 O1 1_555 1_555
O3 Co1 1_555 1_555
H3 O3 1_555 1_555
H4 O3 1_555 1_555
C3D C2 1_555 1_555
C1D C3D 1_555 1_555
C2D C3 1_555 1_555
H1D C2D 1_555 1_555
C4D C1D 1_555 1_555
O1D C4D 1_555 1_555
O2D C4D 1_555 1_555
H2D C3D 1_555 1_555
O3F Co1 1_555 1_555
H3F O3F 1_555 1_555
H4F O3F 1_555 1_555
Co1A O2 1_555 1_555
O1F Co1 1_555 1_555
O2A Co1 1_555 1_555
O2G Co1 1_555 1_555
Co1B O1D 1_555 1_555
Co1C O2D 1_555 1_555
C1D C2D 1_555 1_555

#END
