
#######################################################################
#
#                 Cambridge Crystallographic Data Centre
#                                CCDC 
#
#######################################################################
#
# If this CIF has been generated from an entry in the Cambridge 
# Structural Database, then it will include bibliographic, chemical, 
# crystal, experimental, refinement or atomic coordinate data resulting 
# from the CCDC's data processing and validation procedures.
#
#######################################################################

data_BUKLOJ
_symmetry_cell_setting           monoclinic
_symmetry_space_group_name_H-M   'C 2/c'
_symmetry_Int_Tables_number      15
_space_group_name_Hall           '-C 2yn'
loop_
_symmetry_equiv_pos_site_id
_symmetry_equiv_pos_as_xyz
1 x,y,z
2 x,-y,1/2+z
3 1/2+x,1/2+y,z
4 1/2+x,1/2-y,1/2+z
5 -x,-y,-z
6 -x,y,1/2-z
7 1/2-x,1/2-y,-z
8 1/2-x,1/2+y,1/2-z
_cell_length_a                   18.274(3)
_cell_length_b                   6.5428(9)
_cell_length_c                   7.296(1)
_cell_angle_alpha                90
_cell_angle_beta                 98.6(3)
_cell_angle_gamma                90
_cell_volume                     862.524
loop_
_atom_site_label
_atom_site_type_symbol
_atom_site_fract_x
_atom_site_fract_y
_atom_site_fract_z
Co1 Co 0.7500 0.2500 0.5000
O1 O 0.8140(5) 0.161(1) 0.294(1)
O2 O 0.6970(5) -0.034(1) 0.488(1)
O3 O 0.8282(4) -0.166(1) 0.222(1)
C1 C 0.9284(5) -0.002(2) 0.403(1)
C2 C 0.9654(6) -0.183(2) 0.443(2)
C3 C 0.9630(6) 0.184(2) 0.461(2)
C4 C 0.8512(5) -0.001(2) 0.296(1)
H1 H 0.9418 -0.3091 0.4046
H2 H 0.9373 0.3093 0.4355
C3D C 1.0370(6) -0.184(2) 0.539(2)
C1D C 1.0716(5) 0.002(2) 0.597(1)
C2D C 1.0346(6) 0.183(2) 0.557(2)
H1D H 1.0582 0.3091 0.5954
C4D C 1.1488(5) 0.001(2) 0.704(1)
O1D O 1.1860(5) -0.161(1) 0.706(1)
O3D O 1.1718(4) 0.166(1) 0.778(1)
H2D H 1.0627 -0.3093 0.5645
O2F O 0.8030(5) 0.534(1) 0.512(1)
O1F O 0.6860(5) 0.339(1) 0.706(1)
O3A O 0.8282(4) 0.166(1) 0.722(1)
O3G O 0.6718(4) 0.334(1) 0.278(1)
Co1A Co 0.7500 -0.2500 0.0000
Co1B Co 1.2500 -0.2500 0.5000
Co1C Co 1.2500 0.2500 1.0000
loop_
_geom_bond_atom_site_label_1
_geom_bond_atom_site_label_2
_geom_bond_site_symmetry_1
_geom_bond_site_symmetry_2
Co1 O1 1_555 1_555
O1 C4 1_555 1_555
O2 Co1 1_555 1_555
O3 C4 1_555 1_555
C1 C2 1_555 1_555
C2 H1 1_555 1_555
C3 C1 1_555 1_555
C4 C1 1_555 1_555
H2 C3 1_555 1_555
C3D C2 1_555 1_555
C1D C3D 1_555 1_555
C2D C3 1_555 1_555
H1D C2D 1_555 1_555
C4D C1D 1_555 1_555
O1D C4D 1_555 1_555
O3D C4D 1_555 1_555
H2D C3D 1_555 1_555
O2F Co1 1_555 1_555
O1F Co1 1_555 1_555
O3A Co1 1_555 1_555
O3G Co1 1_555 1_555
Co1A O3 1_555 1_555
Co1B O1D 1_555 1_555
Co1C O3D 1_555 1_555
C1D C2D 1_555 1_555

#END
