
#######################################################################
#
#                 Cambridge Crystallographic Data Centre
#                                CCDC 
#
#######################################################################
#
# If this CIF has been generated from an entry in the Cambridge 
# Structural Database, then it will include bibliographic, chemical, 
# crystal, experimental, refinement or atomic coordinate data resulting 
# from the CCDC's data processing and validation procedures.
#
#######################################################################

data_BUKNEB
_symmetry_cell_setting           monoclinic
_symmetry_space_group_name_H-M   'P 21/c'
_symmetry_Int_Tables_number      14
_space_group_name_Hall           '-P 2ybc'
loop_
_symmetry_equiv_pos_site_id
_symmetry_equiv_pos_as_xyz
1 x,y,z
2 -x,1/2+y,1/2-z
3 -x,-y,-z
4 x,1/2-y,1/2+z
_cell_length_a                   9.577(4)
_cell_length_b                   11.411(4)
_cell_length_c                   7.492(3)
_cell_angle_alpha                90
_cell_angle_beta                 106.476(5)
_cell_angle_gamma                90
_cell_volume                     785.13
loop_
_atom_site_label
_atom_site_type_symbol
_atom_site_fract_x
_atom_site_fract_y
_atom_site_fract_z
Pb1 Pb 0.65868(2) 0.16120(2) 0.42867(3)
Cl1 Cl 0.85167(19) 0.12779(17) 0.8254(2)
S1 S 0.46312(19) 0.12754(16) 0.0691(2)
N1 N 0.2553(5) 0.2767(4) 0.1285(6)
N2 N 0.4332(5) 0.3650(5) 0.0508(7)
N3 N 0.3377(5) 0.4504(4) 0.0827(6)
N4 N 0.1204(6) 0.4424(4) 0.1754(7)
H1 H 0.0444 0.4032 0.1783
N5 N 0.1355(6) 0.5636(5) 0.2155(7)
H2 H 0.1615 0.5742 0.3397
H3 H 0.0495 0.5996 0.1669
N6 N 0.1670(6) 0.1913(5) 0.1742(7)
H4 H 0.0919 0.2117 0.2082
H5 H 0.1876 0.1183 0.1684
C1 C 0.3836(7) 0.2610(6) 0.0799(7)
C2 C 0.2341(6) 0.3932(5) 0.1323(7)
Pb1C Pb 0.65868(2) 0.33880(2) -0.07133(3)
Pb1A Pb 0.34132(2) 0.66120(2) 0.07133(3)
N2C N 0.4332(5) 0.1350(5) 0.5508(7)
N3A N 0.6623(5) -0.0496(4) 0.4173(6)
N5A N 0.8645(6) 0.0636(5) 0.2845(7)
H2A H 0.8385 0.0742 0.1603
H3A H 0.9505 0.0996 0.3331
loop_
_geom_bond_atom_site_label_1
_geom_bond_atom_site_label_2
_geom_bond_site_symmetry_1
_geom_bond_site_symmetry_2
Pb1 Cl1 1_555 1_555
S1 Pb1 1_555 1_555
N1 N6 1_555 1_555
N2 N3 1_555 1_555
N3 C2 1_555 1_555
N4 H1 1_555 1_555
N5 N4 1_555 1_555
H2 N5 1_555 1_555
H3 N5 1_555 1_555
N6 H4 1_555 1_555
H5 N6 1_555 1_555
C1 S1 1_555 1_555
C2 N1 1_555 1_555
Pb1C N2 1_555 1_555
Pb1A N3 1_555 1_555
N2C Pb1 1_555 1_555
N3A Pb1 1_555 1_555
N5A Pb1 1_555 1_555
H2A N5A 1_555 1_555
H3A N5A 1_555 1_555
N1 C1 1_555 1_555
N2 C1 1_555 1_555
N4 C2 1_555 1_555
N5 Pb1A 1_555 1_555

#END
