
#######################################################################
#
#                 Cambridge Crystallographic Data Centre
#                                CCDC 
#
#######################################################################
#
# If this CIF has been generated from an entry in the Cambridge 
# Structural Database, then it will include bibliographic, chemical, 
# crystal, experimental, refinement or atomic coordinate data resulting 
# from the CCDC's data processing and validation procedures.
#
#######################################################################

data_BUKPAZ
_symmetry_cell_setting           cubic
_symmetry_space_group_name_H-M   'F 4 3 2'
_symmetry_Int_Tables_number      209
_space_group_name_Hall           'F 4 2 3'
loop_
_symmetry_equiv_pos_site_id
_symmetry_equiv_pos_as_xyz
1 x,y,z
2 -x,-y,z
3 -x,y,-z
4 x,-y,-z
5 z,x,y
6 z,-x,-y
7 -z,-x,y
8 -z,x,-y
9 y,z,x
10 -y,z,-x
11 y,-z,-x
12 -y,-z,x
13 y,x,-z
14 -y,-x,-z
15 y,-x,z
16 -y,x,z
17 x,z,-y
18 -x,z,y
19 -x,-z,-y
20 x,-z,y
21 z,y,-x
22 z,-y,x
23 -z,y,x
24 -z,-y,-x
25 x,1/2+y,1/2+z
26 -x,1/2-y,1/2+z
27 -x,1/2+y,1/2-z
28 x,1/2-y,1/2-z
29 z,1/2+x,1/2+y
30 z,1/2-x,1/2-y
31 -z,1/2-x,1/2+y
32 -z,1/2+x,1/2-y
33 y,1/2+z,1/2+x
34 -y,1/2+z,1/2-x
35 y,1/2-z,1/2-x
36 -y,1/2-z,1/2+x
37 y,1/2+x,1/2-z
38 -y,1/2-x,1/2-z
39 y,1/2-x,1/2+z
40 -y,1/2+x,1/2+z
41 x,1/2+z,1/2-y
42 -x,1/2+z,1/2+y
43 -x,1/2-z,1/2-y
44 x,1/2-z,1/2+y
45 z,1/2+y,1/2-x
46 z,1/2-y,1/2+x
47 -z,1/2+y,1/2+x
48 -z,1/2-y,1/2-x
49 1/2+x,y,1/2+z
50 1/2-x,-y,1/2+z
51 1/2-x,y,1/2-z
52 1/2+x,-y,1/2-z
53 1/2+z,x,1/2+y
54 1/2+z,-x,1/2-y
55 1/2-z,-x,1/2+y
56 1/2-z,x,1/2-y
57 1/2+y,z,1/2+x
58 1/2-y,z,1/2-x
59 1/2+y,-z,1/2-x
60 1/2-y,-z,1/2+x
61 1/2+y,x,1/2-z
62 1/2-y,-x,1/2-z
63 1/2+y,-x,1/2+z
64 1/2-y,x,1/2+z
65 1/2+x,z,1/2-y
66 1/2-x,z,1/2+y
67 1/2-x,-z,1/2-y
68 1/2+x,-z,1/2+y
69 1/2+z,y,1/2-x
70 1/2+z,-y,1/2+x
71 1/2-z,y,1/2+x
72 1/2-z,-y,1/2-x
73 1/2+x,1/2+y,z
74 1/2-x,1/2-y,z
75 1/2-x,1/2+y,-z
76 1/2+x,1/2-y,-z
77 1/2+z,1/2+x,y
78 1/2+z,1/2-x,-y
79 1/2-z,1/2-x,y
80 1/2-z,1/2+x,-y
81 1/2+y,1/2+z,x
82 1/2-y,1/2+z,-x
83 1/2+y,1/2-z,-x
84 1/2-y,1/2-z,x
85 1/2+y,1/2+x,-z
86 1/2-y,1/2-x,-z
87 1/2+y,1/2-x,z
88 1/2-y,1/2+x,z
89 1/2+x,1/2+z,-y
90 1/2-x,1/2+z,y
91 1/2-x,1/2-z,-y
92 1/2+x,1/2-z,y
93 1/2+z,1/2+y,-x
94 1/2+z,1/2-y,x
95 1/2-z,1/2+y,x
96 1/2-z,1/2-y,-x
_cell_length_a                   35.740(3)
_cell_length_b                   35.740(3)
_cell_length_c                   35.740(3)
_cell_angle_alpha                90
_cell_angle_beta                 90
_cell_angle_gamma                90
_cell_volume                     45652.4
loop_
_atom_site_label
_atom_site_type_symbol
_atom_site_fract_x
_atom_site_fract_y
_atom_site_fract_z
Co1 Co -0.36280(4) 0.36280(4) 0.13720(4)
Co2 Co -0.40117(7) 0.40117(7) 0.09883(7)
B1 B -0.1397(2) 0.3603(2) -0.1397(2)
O1 O -0.3683(3) 0.3958(3) 0.0574(2)
O2 O -0.3270(3) 0.3700(3) 0.0970(2)
O3 O -0.3284(2) 0.3284(2) 0.1716(2)
O4 O -0.4333(3) 0.4333(3) 0.0667(3)
C1 C -0.3371(5) 0.3807(4) 0.0668(4)
C2 C -0.3081(3) 0.3774(3) 0.0342(3)
C3 C -0.2729(3) 0.3643(4) 0.0422(2)
H1 H -0.2669 0.3571 0.0665
C4 C -0.2453(3) 0.3618(4) 0.0131(2)
H2 H -0.2206 0.3551 0.0182
C5 C -0.2572(3) 0.3700(3) -0.0233(2)
C6 C -0.2910(3) 0.3822(3) -0.0302(3)
H3 H -0.2973 0.3889 -0.0545
C7 C -0.3185(3) 0.3854(3) -0.0014(5)
H4 H -0.3428 0.3927 -0.0069
C8 C -0.2269(2) 0.3671(2) -0.0541(2)
C9 C -0.2064(2) 0.4001(2) -0.0636(2)
C10 C -0.1788(2) 0.39712(18) -0.09118(18)
C11 C -0.1720(2) 0.36337(19) -0.1101(2)
C12 C -0.1953(2) 0.33174(19) -0.1007(2)
C13 C -0.2216(2) 0.3339(2) -0.0723(3)
C14 C -0.2448(3) 0.2991(3) -0.0609(3)
H5 H -0.2613 0.3056 -0.0408
H6 H -0.2282 0.2795 -0.0530
H7 H -0.2592 0.2907 -0.0820
C15 C -0.1925(3) 0.2933(2) -0.1224(3)
H8 H -0.2102 0.2759 -0.1120
H9 H -0.1677 0.2834 -0.1200
H10 H -0.1981 0.2973 -0.1484
C16 C -0.1548(3) 0.4314(2) -0.1009(3)
H11 H -0.1623 0.4522 -0.0856
H12 H -0.1581 0.4377 -0.1268
H13 H -0.1289 0.4258 -0.0963
C17 C -0.2135(3) 0.4369(2) -0.0428(3)
H14 H -0.1972 0.4559 -0.0524
H15 H -0.2088 0.4334 -0.0166
H16 H -0.2391 0.4445 -0.0464
C18 C -0.3207(11) 0.2926(8) 0.1581(10)
H17 H -0.3051 0.2796 0.1757
H18 H -0.3079 0.2944 0.1345
H19 H -0.3437 0.2791 0.1548
Co1BA Co 0.13720(4) 0.13720(4) -0.13720(4)
Co1G Co -0.13720(4) 0.63720(4) -0.36280(4)
Co2BA Co 0.09883(7) 0.09883(7) -0.09883(7)
Co2G Co -0.09883(7) 0.59883(7) -0.40117(7)
O1BA O 0.0574(2) 0.1317(3) -0.1042(3)
O1BC O -0.1042(3) 0.5574(2) -0.3683(3)
O1IA O -0.3958(3) 0.4426(2) 0.1317(3)
O1AB O -0.4426(2) 0.3683(3) 0.1042(3)
O2BA O 0.0970(2) 0.1730(3) -0.1300(3)
O2BC O -0.1300(3) 0.5970(2) -0.3270(3)
O2IA O -0.3700(3) 0.4030(2) 0.1730(3)
O2AB O -0.4030(2) 0.3270(3) 0.1300(3)
C1BA C 0.0668(4) 0.1629(5) -0.1193(4)
C1BC C -0.1193(4) 0.5668(4) -0.3371(5)
C2BA C 0.0342(3) 0.1919(3) -0.1226(3)
C2BC C -0.1226(3) 0.5342(3) -0.3081(3)
C3BA C 0.0422(2) 0.2271(3) -0.1357(4)
C3BC C -0.1357(4) 0.5422(2) -0.2729(3)
H1BA H 0.0665 0.2331 -0.1429
H1BC H -0.1429 0.5665 -0.2669
C4BA C 0.0131(2) 0.2547(3) -0.1382(4)
C4BC C -0.1382(4) 0.5131(2) -0.2453(3)
H2BA H 0.0182 0.2794 -0.1449
H2BC H -0.1449 0.5182 -0.2206
C5BA C -0.0233(2) 0.2428(3) -0.1300(3)
C5BC C -0.1300(3) 0.4767(2) -0.2572(3)
C6BA C -0.0302(3) 0.2090(3) -0.1178(3)
C6BC C -0.1178(3) 0.4698(3) -0.2910(3)
H3BA H -0.0545 0.2027 -0.1111
H3BC H -0.1111 0.4455 -0.2973
C7BA C -0.0014(5) 0.1815(3) -0.1146(3)
C7BC C -0.1146(3) 0.4986(5) -0.3185(3)
H4BA H -0.0069 0.1572 -0.1073
H4BC H -0.1073 0.4931 -0.3428
C8BA C -0.0541(2) 0.2731(2) -0.1329(2)
C8BC C -0.1329(2) 0.4459(2) -0.2269(2)
C9BA C -0.0636(2) 0.2936(2) -0.0999(2)
C9BC C -0.0999(2) 0.4364(2) -0.2064(2)
C10BA C -0.09118(18) 0.3212(2) -0.10288(18)
C10BC C -0.10288(18) 0.40882(18) -0.1788(2)
C11BA C -0.1101(2) 0.3280(2) -0.13663(19)
C11BC C -0.13663(19) 0.3899(2) -0.1720(2)
C12BA C -0.1007(2) 0.3047(2) -0.16826(19)
C12BC C -0.16826(19) 0.3993(2) -0.1953(2)
C13BA C -0.0723(3) 0.2784(2) -0.1661(2)
C13BC C -0.1661(2) 0.4277(3) -0.2216(2)
C14BA C -0.0609(3) 0.2552(3) -0.2009(3)
C14BC C -0.2009(3) 0.4391(3) -0.2448(3)
H5BA H -0.0408 0.2387 -0.1944
H5BC H -0.1944 0.4592 -0.2613
H6BA H -0.0530 0.2718 -0.2205
H6BC H -0.2205 0.4470 -0.2282
H7BA H -0.0820 0.2408 -0.2093
H7BC H -0.2093 0.4180 -0.2592
C15BA C -0.1224(3) 0.3075(3) -0.2067(2)
C15BC C -0.2067(2) 0.3776(3) -0.1925(3)
H8BA H -0.1120 0.2898 -0.2241
H8BC H -0.2241 0.3880 -0.2102
H9BA H -0.1200 0.3323 -0.2166
H9BC H -0.2166 0.3800 -0.1677
H10BA H -0.1484 0.3019 -0.2027
H10BC H -0.2027 0.3516 -0.1981
C16BA C -0.1009(3) 0.3452(3) -0.0686(2)
C16BC C -0.0686(2) 0.3991(3) -0.1548(3)
H11BA H -0.0856 0.3377 -0.0478
H11BC H -0.0478 0.4144 -0.1623
H12BA H -0.1268 0.3419 -0.0623
H12BC H -0.0623 0.3732 -0.1581
H13BA H -0.0963 0.3711 -0.0742
H13BC H -0.0742 0.4037 -0.1289
C17BA C -0.0428(3) 0.2865(3) -0.0631(2)
C17BC C -0.0631(2) 0.4572(3) -0.2135(3)
H14BA H -0.0524 0.3028 -0.0441
H14BC H -0.0441 0.4476 -0.1972
H15BA H -0.0166 0.2912 -0.0666
H15BC H -0.0666 0.4834 -0.2088
H16BA H -0.0464 0.2609 -0.0555
H16BC H -0.0555 0.4536 -0.2391
C18IA C -0.2926(8) 0.3419(10) 0.1793(11)
C18AB C -0.3419(10) 0.3207(11) 0.2074(8)
H17IA H -0.2796 0.3243 0.1949
H17AB H -0.3243 0.3051 0.2204
H18IA H -0.2944 0.3655 0.1921
H18AB H -0.3655 0.3079 0.2056
H19IA H -0.2791 0.3452 0.1563
H19AB H -0.3452 0.3437 0.2209
loop_
_geom_bond_atom_site_label_1
_geom_bond_atom_site_label_2
_geom_bond_site_symmetry_1
_geom_bond_site_symmetry_2
Co1 O2 1_555 1_555
Co2 O1 1_555 1_555
B1 C11 1_555 1_555
O1 C1 1_555 1_555
O2 C1 1_555 1_555
O3 Co1 1_555 1_555
O4 Co2 1_555 1_555
C1 C2 1_555 1_555
C2 C3 1_555 1_555
C3 H1 1_555 1_555
C4 C3 1_555 1_555
H2 C4 1_555 1_555
C5 C4 1_555 1_555
C6 C5 1_555 1_555
H3 C6 1_555 1_555
C7 C2 1_555 1_555
H4 C7 1_555 1_555
C8 C5 1_555 1_555
C9 C8 1_555 1_555
C10 C9 1_555 1_555
C11 C10 1_555 1_555
C12 C11 1_555 1_555
C13 C8 1_555 1_555
C14 C13 1_555 1_555
H5 C14 1_555 1_555
H6 C14 1_555 1_555
H7 C14 1_555 1_555
C15 C12 1_555 1_555
H8 C15 1_555 1_555
H9 C15 1_555 1_555
H10 C15 1_555 1_555
C16 C10 1_555 1_555
H11 C16 1_555 1_555
H12 C16 1_555 1_555
H13 C16 1_555 1_555
C17 C9 1_555 1_555
H14 C17 1_555 1_555
H15 C17 1_555 1_555
H16 C17 1_555 1_555
C18 O3 1_555 1_555
H17 C18 1_555 1_555
H18 C18 1_555 1_555
H19 C18 1_555 1_555
Co1BA O2BA 1_555 1_555
Co1G O2BC 1_555 1_555
Co2BA O1BA 1_555 1_555
Co2G O1BC 1_555 1_555
O1BA C1BA 1_555 1_555
O1BC C1BC 1_555 1_555
O1IA Co2 1_555 1_555
O1AB Co2 1_555 1_555
O2BA C1BA 1_555 1_555
O2BC C1BC 1_555 1_555
O2IA Co1 1_555 1_555
O2AB Co1 1_555 1_555
C1BA C2BA 1_555 1_555
C1BC C2BC 1_555 1_555
C2BA C3BA 1_555 1_555
C2BC C3BC 1_555 1_555
C3BA H1BA 1_555 1_555
C3BC H1BC 1_555 1_555
C4BA C3BA 1_555 1_555
C4BC C3BC 1_555 1_555
H2BA C4BA 1_555 1_555
H2BC C4BC 1_555 1_555
C5BA C4BA 1_555 1_555
C5BC C4BC 1_555 1_555
C6BA C5BA 1_555 1_555
C6BC C5BC 1_555 1_555
H3BA C6BA 1_555 1_555
H3BC C6BC 1_555 1_555
C7BA C2BA 1_555 1_555
C7BC C2BC 1_555 1_555
H4BA C7BA 1_555 1_555
H4BC C7BC 1_555 1_555
C8BA C5BA 1_555 1_555
C8BC C5BC 1_555 1_555
C9BA C8BA 1_555 1_555
C9BC C8BC 1_555 1_555
C10BA C9BA 1_555 1_555
C10BC C9BC 1_555 1_555
C11BA B1 1_555 1_555
C11BC B1 1_555 1_555
C12BA C11BA 1_555 1_555
C12BC C11BC 1_555 1_555
C13BA C8BA 1_555 1_555
C13BC C8BC 1_555 1_555
C14BA C13BA 1_555 1_555
C14BC C13BC 1_555 1_555
H5BA C14BA 1_555 1_555
H5BC C14BC 1_555 1_555
H6BA C14BA 1_555 1_555
H6BC C14BC 1_555 1_555
H7BA C14BA 1_555 1_555
H7BC C14BC 1_555 1_555
C15BA C12BA 1_555 1_555
C15BC C12BC 1_555 1_555
H8BA C15BA 1_555 1_555
H8BC C15BC 1_555 1_555
H9BA C15BA 1_555 1_555
H9BC C15BC 1_555 1_555
H10BA C15BA 1_555 1_555
H10BC C15BC 1_555 1_555
C16BA C10BA 1_555 1_555
C16BC C10BC 1_555 1_555
H11BA C16BA 1_555 1_555
H11BC C16BC 1_555 1_555
H12BA C16BA 1_555 1_555
H12BC C16BC 1_555 1_555
H13BA C16BA 1_555 1_555
H13BC C16BC 1_555 1_555
C17BA C9BA 1_555 1_555
C17BC C9BC 1_555 1_555
H14BA C17BA 1_555 1_555
H14BC C17BC 1_555 1_555
H15BA C17BA 1_555 1_555
H15BC C17BC 1_555 1_555
H16BA C17BA 1_555 1_555
H16BC C17BC 1_555 1_555
C18IA O3 1_555 1_555
C18AB O3 1_555 1_555
H17IA C18IA 1_555 1_555
H17AB C18AB 1_555 1_555
H18IA C18IA 1_555 1_555
H18AB C18AB 1_555 1_555
H19IA C18IA 1_555 1_555
H19AB C18AB 1_555 1_555
C6 C7 1_555 1_555
C12 C13 1_555 1_555
C6BA C7BA 1_555 1_555
C6BC C7BC 1_555 1_555
C10BA C11BA 1_555 1_555
C10BC C11BC 1_555 1_555
C12BA C13BA 1_555 1_555
C12BC C13BC 1_555 1_555

#END
