
#######################################################################
#
#                 Cambridge Crystallographic Data Centre
#                                CCDC 
#
#######################################################################
#
# If this CIF has been generated from an entry in the Cambridge 
# Structural Database, then it will include bibliographic, chemical, 
# crystal, experimental, refinement or atomic coordinate data resulting 
# from the CCDC's data processing and validation procedures.
#
#######################################################################

data_BULBAL
_symmetry_cell_setting           monoclinic
_symmetry_space_group_name_H-M   'C 2/c'
_symmetry_Int_Tables_number      15
_space_group_name_Hall           '-C 2yn'
loop_
_symmetry_equiv_pos_site_id
_symmetry_equiv_pos_as_xyz
1 x,y,z
2 1/2+x,1/2+y,z
3 -x,y,1/2-z
4 1/2-x,1/2+y,1/2-z
5 -x,-y,-z
6 1/2-x,1/2-y,-z
7 x,-y,1/2+z
8 1/2+x,1/2-y,1/2+z
_cell_length_a                   17.047(7)
_cell_length_b                   10.127(5)
_cell_length_c                   14.371(4)
_cell_angle_alpha                90
_cell_angle_beta                 116.61(3)
_cell_angle_gamma                90
_cell_volume                     2218.15
loop_
_atom_site_label
_atom_site_type_symbol
_atom_site_fract_x
_atom_site_fract_y
_atom_site_fract_z
Ba1 Ba 0.00000 0.08540 0.25000
N1 N 0.02350 0.15440 0.07760
N2 N 0.18380 0.03570 0.33110
N3 N 0.13230 0.28510 0.34160
C1 C 0.02290 0.16830 -0.00490
S1 S -0.02170 -0.19650 0.11770
C2 C 0.20830 -0.09000 0.32920
C3 C 0.29570 -0.12860 0.35630
C4 C 0.35760 -0.03500 0.38280
C5 C 0.33260 0.09630 0.38350
C6 C 0.24630 0.12700 0.35980
C7 C 0.22040 0.26800 0.37100
C8 C 0.28260 0.37170 0.40630
C9 C 0.25540 0.49480 0.41420
C10 C 0.16550 0.51610 0.38510
C11 C 0.11170 0.41030 0.35280
N1B N -0.02350 0.15440 0.42240
N2B N -0.18380 0.03570 0.16890
N3B N -0.13230 0.28510 0.15840
S1B S 0.02170 -0.19650 0.38230
S1D S 0.02170 0.19650 -0.11770
C1D C -0.02290 -0.16830 0.00490
C2B C -0.20830 -0.09000 0.17080
C6B C -0.24630 0.12700 0.14020
C7B C -0.22040 0.26800 0.12900
C11B C -0.11170 0.41030 0.14720
Ba1D Ba 0.00000 -0.08540 -0.25000
N1D N -0.02350 -0.15440 -0.07760
C3B C -0.29570 -0.12860 0.14370
C5B C -0.33260 0.09630 0.11650
C8B C -0.28260 0.37170 0.09370
C10B C -0.16550 0.51610 0.11490
C4B C -0.35760 -0.03500 0.11720
C9B C -0.25540 0.49480 0.08580
loop_
_geom_bond_atom_site_label_1
_geom_bond_atom_site_label_2
_geom_bond_site_symmetry_1
_geom_bond_site_symmetry_2
Ba1 N1 1_555 1_555
N1 C1 1_555 1_555
N2 Ba1 1_555 1_555
N3 Ba1 1_555 1_555
C1 S1D 1_555 1_555
S1 Ba1 1_555 1_555
C2 N2 1_555 1_555
C3 C2 1_555 1_555
C4 C3 1_555 1_555
C5 C4 1_555 1_555
C6 N2 1_555 1_555
C7 N3 1_555 1_555
C8 C7 1_555 1_555
C9 C8 1_555 1_555
C10 C9 1_555 1_555
C11 N3 1_555 1_555
N1B Ba1 1_555 1_555
N2B Ba1 1_555 1_555
N3B Ba1 1_555 1_555
S1B Ba1 1_555 1_555
S1D Ba1D 1_555 1_555
C1D S1 1_555 1_555
C2B N2B 1_555 1_555
C6B N2B 1_555 1_555
C7B N3B 1_555 1_555
C11B N3B 1_555 1_555
Ba1D N1D 1_555 1_555
N1D C1D 1_555 1_555
C3B C2B 1_555 1_555
C5B C6B 1_555 1_555
C8B C7B 1_555 1_555
C10B C11B 1_555 1_555
C4B C3B 1_555 1_555
C9B C8B 1_555 1_555
C5 C6 1_555 1_555
C6 C7 1_555 1_555
C10 C11 1_555 1_555
C6B C7B 1_555 1_555
C5B C4B 1_555 1_555
C10B C9B 1_555 1_555

#END
