
#######################################################################
#
#                 Cambridge Crystallographic Data Centre
#                                CCDC 
#
#######################################################################
#
# If this CIF has been generated from an entry in the Cambridge 
# Structural Database, then it will include bibliographic, chemical, 
# crystal, experimental, refinement or atomic coordinate data resulting 
# from the CCDC's data processing and validation procedures.
#
#######################################################################

data_BULGOG
_symmetry_cell_setting           triclinic
_symmetry_space_group_name_H-M   'P -1'
_symmetry_Int_Tables_number      2
_space_group_name_Hall           '-P 1'
loop_
_symmetry_equiv_pos_site_id
_symmetry_equiv_pos_as_xyz
1 x,y,z
2 -x,-y,-z
_cell_length_a                   11.098(2)
_cell_length_b                   12.728(3)
_cell_length_c                   13.176(3)
_cell_angle_alpha                110.47(3)
_cell_angle_beta                 97.61(3)
_cell_angle_gamma                111.72(3)
_cell_volume                     1544.81
loop_
_atom_site_label
_atom_site_type_symbol
_atom_site_fract_x
_atom_site_fract_y
_atom_site_fract_z
N2 N 0.370(3) 0.329(2) 0.2263(18)
N3 N 0.180(3) 0.231(3) 0.064(3)
H5 H 0.1466 0.2115 -0.0062
H6 H 0.1278 0.1997 0.0998
C7 C 0.388(3) 0.353(3) 0.057(2)
H7 H 0.3470 0.3390 -0.0156
C8 C 0.526(4) 0.422(4) 0.101(4)
H8 H 0.5782 0.4466 0.0560
C9 C 0.587(4) 0.454(3) 0.210(3)
H9 H 0.6793 0.5078 0.2436
C10 C 0.509(4) 0.406(3) 0.274(2)
H10 H 0.5513 0.4254 0.3489
C11 C 0.305(3) 0.304(3) 0.116(2)
N4 N 0.541(2) 0.1491(19) 0.1216(18)
H11 H 0.6077 0.2040 0.1134
N5 N 0.684(3) 0.201(3) 0.293(3)
H12 H 0.7463 0.2589 0.2839
H13 H 0.7006 0.1891 0.3527
C12 C 0.451(3) 0.042(3) 0.228(3)
H14 H 0.4663 0.0286 0.2928
C13 C 0.330(3) -0.017(3) 0.156(3)
H15 H 0.2585 -0.0731 0.1690
C14 C 0.308(3) 0.005(3) 0.056(3)
H16 H 0.2221 -0.0355 0.0032
C15 C 0.417(3) 0.086(2) 0.043(2)
H17 H 0.4069 0.0992 -0.0221
C16 C 0.558(3) 0.126(3) 0.211(2)
W1 W 0.25654(9) 0.90758(10) 0.44721(8)
O1 O 0.316(2) 1.0569(17) 0.4287(15)
O2 O 0.3794(17) 0.8658(15) 0.4221(14)
O3 O 0.141(2) 0.773(2) 0.4747(16)
O4 O 0.134(2) 0.830(2) 0.2994(17)
O5 O 0.324(2) 1.0058(16) 0.6069(15)
W2 W 0.30057(8) 1.20759(8) 0.47915(7)
W3 W -0.04573(10) 0.69870(8) 0.46547(8)
W4 W -0.05058(10) 0.77163(9) 0.23143(7)
W5 W 0.30987(8) 1.13893(8) 0.71652(6)
O6 O 0.221(2) 1.3136(19) 0.5332(15)
O7 O 0.4454(18) 1.3059(17) 0.4710(14)
O8 O 0.357(2) 1.2332(17) 0.6324(16)
O9 O 0.186(2) 1.1479(19) 0.3306(18)
O10 O 0.0107(19) 0.7888(18) 0.6268(16)
O11 O -0.0741(17) 0.5541(15) 0.4496(14)
O12 O -0.090(2) 0.673(2) 0.3133(17)
O13 O -0.232(2) 0.7589(17) 0.2155(17)
O14 O -0.0761(16) 0.6638(15) 0.1004(14)
O15 O -0.003(2) 0.9166(17) 0.2021(18)
W6 W -0.00895(9) 1.07107(8) 0.26390(7)
O16 O 0.195(2) 1.0169(16) 0.7584(17)
Cu1 Cu 0.0000 0.5000 0.0000
O17 O -0.1508(15) 0.3852(15) 0.0272(13)
N1 N 0.1049(17) 0.5179(15) 0.1414(14)
C1 C -0.116(2) 0.376(2) 0.1187(18)
C2 C 0.239(2) 0.588(2) 0.196(2)
C3 C 0.030(2) 0.4512(19) 0.1898(18)
O18 O -0.2012(19) 0.3110(18) 0.1533(16)
H1 H 0.2924 0.6353 0.1647
C4 C 0.299(3) 0.592(2) 0.293(2)
C5 C 0.081(3) 0.445(2) 0.289(2)
H2 H 0.3913 0.6440 0.3287
C6 C 0.222(3) 0.519(3) 0.339(2)
H3 H 0.0262 0.3973 0.3199
H4 H 0.2644 0.5184 0.4046
O19 O -0.0132(18) 1.102(2) 0.1495(15)
O20 O 0.4532(19) 1.2059(17) 0.8204(16)
Si1 Si 0.0000 1.0000 0.5000
O21 O 0.035(3) 0.878(3) 0.429(3)
O22 O 0.067(3) 1.104(3) 0.454(3)
O23 O 0.158(3) 1.052(3) 0.530(3)
O24 O 0.073(3) 1.054(3) 0.633(3)
O21A O -0.035(3) 1.122(3) 0.571(3)
O22A O -0.067(3) 0.896(3) 0.546(3)
O23A O -0.158(3) 0.948(3) 0.470(3)
O24A O -0.073(3) 0.946(3) 0.367(3)
W1A W -0.25654(9) 0.09242(10) -0.44721(8)
O1A O -0.316(2) -0.0569(17) -0.4287(15)
O2A O -0.3794(17) 0.1342(15) -0.4221(14)
O3A O -0.141(2) 0.227(2) -0.4747(16)
O4A O -0.134(2) 0.170(2) -0.2994(17)
O5A O -0.324(2) -0.0058(16) -0.6069(15)
W2A W -0.30057(8) -0.20759(8) -0.47915(7)
W3A W 0.04573(10) 0.30130(8) -0.46547(8)
W4A W 0.05058(10) 0.22837(9) -0.23143(7)
W5A W -0.30987(8) -0.13893(8) -0.71652(6)
O6A O -0.221(2) -0.3136(19) -0.5332(15)
O7A O -0.4454(18) -0.3059(17) -0.4710(14)
O8A O -0.357(2) -0.2332(17) -0.6324(16)
O9A O -0.186(2) -0.1479(19) -0.3306(18)
O10A O -0.0107(19) 0.2112(18) -0.6268(16)
O11A O 0.0741(17) 0.4459(15) -0.4496(14)
O12A O 0.090(2) 0.327(2) -0.3133(17)
O13A O 0.232(2) 0.2411(17) -0.2155(17)
O14A O 0.0761(16) 0.3362(15) -0.1004(14)
O15A O 0.003(2) 0.0834(17) -0.2021(18)
W6A W 0.00895(9) -0.07107(8) -0.26390(7)
O16A O -0.195(2) -0.0169(16) -0.7584(17)
O17A O 0.1508(15) 0.6148(15) -0.0272(13)
N1A N -0.1049(17) 0.4821(15) -0.1414(14)
C1A C 0.116(2) 0.624(2) -0.1187(18)
C2A C -0.239(2) 0.412(2) -0.196(2)
C3A C -0.030(2) 0.5488(19) -0.1898(18)
O18A O 0.2012(19) 0.6890(18) -0.1533(16)
H1A H -0.2924 0.3647 -0.1647
C4A C -0.299(3) 0.408(2) -0.293(2)
C5A C -0.081(3) 0.555(2) -0.289(2)
H2A H -0.3913 0.3560 -0.3287
C6A C -0.222(3) 0.481(3) -0.339(2)
H3A H -0.0262 0.6027 -0.3199
H4A H -0.2644 0.4816 -0.4046
O19A O 0.0132(18) -0.102(2) -0.1495(15)
O20A O -0.4532(19) -0.2059(17) -0.8204(16)
W1A_2 W -0.25654(9) 1.09242(10) 0.55279(8)
W2A_2 W -0.30057(8) 0.79241(8) 0.52085(7)
W3_2 W -0.04573(10) -0.30130(8) -0.53453(8)
W3A_2 W 0.04573(10) 1.30130(8) 0.53453(8)
W4A_2 W 0.05058(10) 1.22837(9) 0.76857(7)
W5_2 W 0.30987(8) 0.13893(8) -0.28348(6)
W5A_2 W -0.30987(8) 0.86107(8) 0.28348(6)
O6_2 O 0.221(2) 0.3136(19) -0.4668(15)
O6A_2 O -0.221(2) 0.6864(19) 0.4668(15)
O10_2 O 0.0107(19) -0.2112(18) -0.3732(16)
O10A_2 O -0.0107(19) 1.2112(18) 0.3732(16)
O13_2 O -0.232(2) -0.2411(17) -0.7845(17)
O13A_2 O 0.232(2) 1.2411(17) 0.7845(17)
W6_2 W -0.00895(9) 0.07107(8) -0.73610(7)
W6A_2 W 0.00895(9) 0.92893(8) 0.73610(7)
O16_2 O 0.195(2) 0.0169(16) -0.2416(17)
O16A_2 O -0.195(2) 0.9831(16) 0.2416(17)
O21A_2 O -0.035(3) 0.122(3) -0.429(3)
O22_2 O 0.067(3) 0.104(3) -0.546(3)
O22A_2 O -0.067(3) -0.104(3) -0.454(3)
O23A_2 O -0.158(3) -0.052(3) -0.530(3)
O24_2 O 0.073(3) 0.054(3) -0.367(3)
O24A_2 O -0.073(3) -0.054(3) -0.633(3)
loop_
_geom_bond_atom_site_label_1
_geom_bond_atom_site_label_2
_geom_bond_site_symmetry_1
_geom_bond_site_symmetry_2
W1 O1 1_555 1_555
O1 W2 1_555 1_555
O2 W1 1_555 1_555
O3 W1 1_555 1_555
O4 W1 1_555 1_555
O5 W1 1_555 1_555
W2 O6 1_555 1_555
W3 O3 1_555 1_555
W4 O4 1_555 1_555
W5 O5 1_555 1_555
O6 W3A_2 1_555 1_555
O7 W2 1_555 1_555
O8 W2 1_555 1_555
O9 W2 1_555 1_555
O10 W3 1_555 1_555
O11 W3 1_555 1_555
O12 W3 1_555 1_555
O13 W4 1_555 1_555
O14 W4 1_555 1_555
O15 W4 1_555 1_555
W6 O9 1_555 1_555
O16 W5 1_555 1_555
Cu1 O14 1_555 1_555
O17 Cu1 1_555 1_555
N1 Cu1 1_555 1_555
C1 O17 1_555 1_555
C2 N1 1_555 1_555
C3 N1 1_555 1_555
O18 C1 1_555 1_555
H1 C2 1_555 1_555
C4 C2 1_555 1_555
C5 C3 1_555 1_555
H2 C4 1_555 1_555
C6 C4 1_555 1_555
H3 C5 1_555 1_555
H4 C6 1_555 1_555
O19 W6 1_555 1_555
O20 W5 1_555 1_555
Si1 O21 1_555 1_555
O21 W1 1_555 1_555
O22 W2 1_555 1_555
O23 W1 1_555 1_555
O24 W5 1_555 1_555
N2 C10 1_555 1_555
N3 H5 1_555 1_555
H6 N3 1_555 1_555
C7 H7 1_555 1_555
C8 C7 1_555 1_555
H8 C8 1_555 1_555
C9 C8 1_555 1_555
H9 C9 1_555 1_555
C10 C9 1_555 1_555
H10 C10 1_555 1_555
C11 N2 1_555 1_555
N4 H11 1_555 1_555
N5 H12 1_555 1_555
H13 N5 1_555 1_555
C12 H14 1_555 1_555
C13 C12 1_555 1_555
H15 C13 1_555 1_555
C14 C13 1_555 1_555
H16 C14 1_555 1_555
C15 N4 1_555 1_555
H17 C15 1_555 1_555
C16 N4 1_555 1_555
O21A Si1 1_555 1_555
O22A W3 1_555 1_555
O23A Si1 1_555 1_555
O24A W4 1_555 1_555
W1A O1A 1_555 1_555
O1A W2A 1_555 1_555
O2A W1A 1_555 1_555
O3A W1A 1_555 1_555
O4A W1A 1_555 1_555
O5A W1A 1_555 1_555
W2A O6A 1_555 1_555
W3A O3A 1_555 1_555
W4A O4A 1_555 1_555
W5A O5A 1_555 1_555
O6A W3_2 1_555 1_555
O7A W2A 1_555 1_555
O8A W2A 1_555 1_555
O9A W2A 1_555 1_555
O10A W3A 1_555 1_555
O11A W3A 1_555 1_555
O12A W3A 1_555 1_555
O13A W4A 1_555 1_555
O14A Cu1 1_555 1_555
O15A W4A 1_555 1_555
W6A O9A 1_555 1_555
O16A W5A 1_555 1_555
O17A Cu1 1_555 1_555
N1A Cu1 1_555 1_555
C1A O17A 1_555 1_555
C2A N1A 1_555 1_555
C3A N1A 1_555 1_555
O18A C1A 1_555 1_555
H1A C2A 1_555 1_555
C4A C2A 1_555 1_555
C5A C3A 1_555 1_555
H2A C4A 1_555 1_555
C6A C4A 1_555 1_555
H3A C5A 1_555 1_555
H4A C6A 1_555 1_555
O19A W6A 1_555 1_555
O20A W5A 1_555 1_555
W1A_2 O21A 1_555 1_555
W2A_2 O22A 1_555 1_555
W3_2 O10_2 1_555 1_555
W3A_2 O22 1_555 1_555
W4A_2 O24 1_555 1_555
W5_2 O13A 1_555 1_555
W5A_2 O13 1_555 1_555
O6_2 W3A 1_555 1_555
O6A_2 W3 1_555 1_555
O10_2 W6A 1_555 1_555
O10A_2 W6 1_555 1_555
O13_2 W5A 1_555 1_555
O13A_2 W5 1_555 1_555
W6_2 O10A 1_555 1_555
W6A_2 O10 1_555 1_555
O16_2 W6A 1_555 1_555
O16A_2 W6 1_555 1_555
O21A_2 W1A 1_555 1_555
O22_2 W3A 1_555 1_555
O22A_2 W2A 1_555 1_555
O23A_2 W1A 1_555 1_555
O24_2 W4A 1_555 1_555
O24A_2 W5A 1_555 1_555
W2 O23 1_555 1_555
W3 O21 1_555 1_555
W4 O12 1_555 1_555
W4 O21 1_555 1_555
W5 O8 1_555 1_555
W5 O23 1_555 1_555
O15 W6 1_555 1_555
W6 O22 1_555 1_555
W6 O24A 1_555 1_555
O16 W6A_2 1_555 1_555
C1 C3 1_555 1_555
C5 C6 1_555 1_555
Si1 O22 1_555 1_555
Si1 O23 1_555 1_555
Si1 O24 1_555 1_555
Si1 O22A 1_555 1_555
Si1 O24A 1_555 1_555
O23 O24 1_555 1_555
O24 W6A_2 1_555 1_555
N3 C11 1_555 1_555
C7 C11 1_555 1_555
N5 C16 1_555 1_555
C12 C16 1_555 1_555
C14 C15 1_555 1_555
O21A W3A_2 1_555 1_555
O21A W4A_2 1_555 1_555
O22A W6A_2 1_555 1_555
O23A O24A 1_555 1_555
O23A W1A_2 1_555 1_555
O23A W2A_2 1_555 1_555
O23A W5A_2 1_555 1_555
O24A W5A_2 1_555 1_555
W2A O23A_2 1_555 1_555
W3A O21A_2 1_555 1_555
W4A O12A 1_555 1_555
W4A O14A 1_555 1_555
W4A O21A_2 1_555 1_555
W5A O8A 1_555 1_555
W5A O23A_2 1_555 1_555
O15A W6A 1_555 1_555
W6A O22A_2 1_555 1_555
W6A O24_2 1_555 1_555
O16A W6_2 1_555 1_555
C1A C3A 1_555 1_555
C5A C6A 1_555 1_555
W2A_2 O6A_2 1_555 1_555
W3_2 O22A_2 1_555 1_555
W3A_2 O10A_2 1_555 1_555
W4A_2 O13A_2 1_555 1_555
W5_2 O16_2 1_555 1_555
W5_2 O24_2 1_555 1_555
W5A_2 O16A_2 1_555 1_555
W6_2 O22_2 1_555 1_555
W6_2 O24A_2 1_555 1_555
O23A_2 O24A_2 1_555 1_555

#END
