
#######################################################################
#
#                 Cambridge Crystallographic Data Centre
#                                CCDC 
#
#######################################################################
#
# If this CIF has been generated from an entry in the Cambridge 
# Structural Database, then it will include bibliographic, chemical, 
# crystal, experimental, refinement or atomic coordinate data resulting 
# from the CCDC's data processing and validation procedures.
#
#######################################################################

data_BULHIA
_symmetry_cell_setting           monoclinic
_symmetry_space_group_name_H-M   'P 21'
_symmetry_Int_Tables_number      4
_space_group_name_Hall           'P 2yb'
loop_
_symmetry_equiv_pos_site_id
_symmetry_equiv_pos_as_xyz
1 x,y,z
2 -x,1/2+y,-z
_cell_length_a                   10.3396(15)
_cell_length_b                   13.2455(19)
_cell_length_c                   11.8273(17)
_cell_angle_alpha                90
_cell_angle_beta                 92.361(3)
_cell_angle_gamma                90
_cell_volume                     1618.41
loop_
_atom_site_label
_atom_site_type_symbol
_atom_site_fract_x
_atom_site_fract_y
_atom_site_fract_z
C1 C 0.2124(7) 0.7819(6) 0.2415(6)
C2 C 0.4420(8) 0.8168(6) 0.3434(7)
C3 C 0.5685(6) 0.8094(6) 0.1584(6)
C4 C 0.3791(11) 1.0145(8) 0.1936(9)
H1 H 0.4170 1.0110 0.2661
C5 C 0.3497(10) 1.1076(7) 0.1484(9)
H2 H 0.3685 1.1659 0.1896
C6 C 0.2927(10) 1.1137(8) 0.0427(9)
H3 H 0.2707 1.1760 0.0111
C7 C 0.2687(8) 1.0265(9) -0.0158(9)
H4 H 0.2285 1.0289 -0.0876
C8 C 0.3032(8) 0.9362(7) 0.0305(8)
C9 C 0.2909(9) 0.8392(7) -0.0296(8)
C10 C 0.3459(9) 0.6593(8) 0.0020(8)
C11 C 0.3901(8) 0.5938(7) 0.1001(9)
C12 C 0.4022(9) 0.4923(7) 0.0859(10)
H5 H 0.3846 0.4614 0.0163
C13 C 0.4421(9) 0.4379(7) 0.1801(8)
H6 H 0.4508 0.3682 0.1744
C14 C 0.4689(9) 0.4830(7) 0.2804(9)
H7 H 0.4971 0.4457 0.3433
C15 C 0.4530(8) 0.5867(8) 0.2867(9)
H8 H 0.4705 0.6184 0.3559
C16 C -0.1804(8) 0.6191(6) 0.3310(7)
C17 C -0.1830(8) 0.5112(6) 0.3352(8)
H9 H -0.1605 0.4728 0.2732
C18 C -0.2189(10) 0.4663(8) 0.4318(9)
H10 H -0.2188 0.3961 0.4339
C19 C -0.2551(10) 0.5157(9) 0.5253(9)
H11 H -0.2784 0.4807 0.5896
C20 C -0.2562(11) 0.6195(9) 0.5222(9)
H12 H -0.2816 0.6554 0.5851
C21 C -0.2192(8) 0.6724(7) 0.4250(8)
C22 C -0.2198(7) 0.7810(7) 0.4323(6)
H13 H -0.2547 0.8098 0.4960
C23 C -0.1909(8) 0.9521(6) 0.3728(7)
H14 H -0.2707 0.9720 0.3310
C24 C -0.2016(10) 0.9892(7) 0.4927(8)
H15 H -0.1258 0.9689 0.5382
H16 H -0.2775 0.9604 0.5258
C25 C -0.2119(11) 1.1029(8) 0.4901(9)
H17 H -0.2916 1.1223 0.4496
H18 H -0.2153 1.1283 0.5669
C26 C -0.0994(9) 1.1497(7) 0.4339(8)
H19 H -0.0209 1.1359 0.4790
H20 H -0.1112 1.2223 0.4312
C27 C -0.0830(10) 1.1102(7) 0.3128(8)
H21 H -0.1541 1.1340 0.2639
H22 H -0.0030 1.1362 0.2840
C28 C -0.0802(8) 0.9970(6) 0.3117(7)
H23 H -0.0007 0.9766 0.3537
C29 C -0.0666(9) 0.9951(7) 0.1087(8)
H24 H -0.0512 1.0641 0.1147
C30 C -0.0746(9) 0.9545(7) -0.0028(7)
C31 C -0.0788(8) 1.0182(8) -0.0966(8)
H25 H -0.0718 1.0875 -0.0846
C32 C -0.0926(9) 0.9840(8) -0.2046(8)
H26 H -0.0988 1.0287 -0.2652
C33 C -0.0972(10) 0.8804(8) -0.2218(8)
H27 H -0.1063 0.8548 -0.2950
C34 C -0.0886(9) 0.8166(7) -0.1329(7)
H28 H -0.0925 0.7477 -0.1475
C35 C -0.0744(7) 0.8474(6) -0.0208(7)
Fe1 Fe 0.38801(10) 0.78979(8) 0.18722(9)
Mn1 Mn -0.10916(10) 0.80095(8) 0.21126(9)
N1 N 0.3554(6) 0.9296(5) 0.1376(6)
N2 N 0.3354(6) 0.7606(5) 0.0364(6)
N3 N 0.4136(7) 0.6436(7) 0.1980(7)
N4 N 0.1070(6) 0.7837(5) 0.2666(6)
N5 N 0.4739(8) 0.8248(6) 0.4369(7)
N6 N 0.6761(6) 0.8219(4) 0.1445(5)
N7 N -0.1762(6) 0.8411(5) 0.3581(5)
N8 N -0.0782(7) 0.9475(6) 0.2007(6)
O1 O 0.2496(7) 0.8336(5) -0.1283(6)
O2 O 0.3213(8) 0.6292(5) -0.0925(6)
O3 O -0.1427(6) 0.6629(4) 0.2387(5)
O4 O -0.0635(5) 0.7811(4) 0.0600(4)
Mn1_2 Mn 0.89084(10) 0.80095(8) 0.21126(9)
N6_2 N -0.3239(6) 0.8219(4) 0.1445(5)
O5 O 0.5409(6) 1.2358(5) 0.3206(6)
H29 H 0.503(8) 1.287(5) 0.375(6)
H30 H 0.455(7) 1.164(5) 0.267(7)
loop_
_geom_bond_atom_site_label_1
_geom_bond_atom_site_label_2
_geom_bond_site_symmetry_1
_geom_bond_site_symmetry_2
C1 Fe1 1_555 1_555
C2 Fe1 1_555 1_555
C3 Fe1 1_555 1_555
C4 H1 1_555 1_555
C5 C4 1_555 1_555
H2 C5 1_555 1_555
C6 C5 1_555 1_555
H3 C6 1_555 1_555
C7 C6 1_555 1_555
H4 C7 1_555 1_555
C8 C7 1_555 1_555
C9 C8 1_555 1_555
C10 C11 1_555 1_555
C11 C12 1_555 1_555
C12 H5 1_555 1_555
C13 C12 1_555 1_555
H6 C13 1_555 1_555
C14 C13 1_555 1_555
H7 C14 1_555 1_555
C15 C14 1_555 1_555
H8 C15 1_555 1_555
C16 C17 1_555 1_555
C17 H9 1_555 1_555
C18 C17 1_555 1_555
H10 C18 1_555 1_555
C19 C18 1_555 1_555
H11 C19 1_555 1_555
C20 C19 1_555 1_555
H12 C20 1_555 1_555
C21 C16 1_555 1_555
C22 C21 1_555 1_555
H13 C22 1_555 1_555
C23 H14 1_555 1_555
C24 C23 1_555 1_555
H15 C24 1_555 1_555
H16 C24 1_555 1_555
C25 C24 1_555 1_555
H17 C25 1_555 1_555
H18 C25 1_555 1_555
C26 C25 1_555 1_555
H19 C26 1_555 1_555
H20 C26 1_555 1_555
C27 C26 1_555 1_555
H21 C27 1_555 1_555
H22 C27 1_555 1_555
C28 C23 1_555 1_555
H23 C28 1_555 1_555
C29 H24 1_555 1_555
C30 C29 1_555 1_555
C31 C30 1_555 1_555
H25 C31 1_555 1_555
C32 C31 1_555 1_555
H26 C32 1_555 1_555
C33 C32 1_555 1_555
H27 C33 1_555 1_555
C34 C33 1_555 1_555
H28 C34 1_555 1_555
C35 C30 1_555 1_555
Fe1 N1 1_555 1_555
Mn1 N4 1_555 1_555
N1 C4 1_555 1_555
N2 C9 1_555 1_555
N3 C11 1_555 1_555
N4 C1 1_555 1_555
N5 C2 1_555 1_555
N6 C3 1_555 1_555
N7 C22 1_555 1_555
N8 C28 1_555 1_555
O1 C9 1_555 1_555
O2 C10 1_555 1_555
O3 C16 1_555 1_555
O4 C35 1_555 1_555
O5 H29 1_555 1_555
H30 O5 1_555 1_555
Mn1_2 N6 1_555 1_555
N6_2 Mn1 1_555 1_555
C8 N1 1_555 1_555
C10 N2 1_555 1_555
C15 N3 1_555 1_555
C20 C21 1_555 1_555
C23 N7 1_555 1_555
C27 C28 1_555 1_555
C29 N8 1_555 1_555
C34 C35 1_555 1_555
Fe1 N2 1_555 1_555
Fe1 N3 1_555 1_555
Mn1 N7 1_555 1_555
Mn1 N8 1_555 1_555
Mn1 O3 1_555 1_555
Mn1 O4 1_555 1_555

#END
