
#######################################################################
#
#                 Cambridge Crystallographic Data Centre
#                                CCDC 
#
#######################################################################
#
# If this CIF has been generated from an entry in the Cambridge 
# Structural Database, then it will include bibliographic, chemical, 
# crystal, experimental, refinement or atomic coordinate data resulting 
# from the CCDC's data processing and validation procedures.
#
#######################################################################

data_BULPUT
_symmetry_cell_setting           triclinic
_symmetry_space_group_name_H-M   'P -1'
_symmetry_Int_Tables_number      2
_space_group_name_Hall           '-P 1'
loop_
_symmetry_equiv_pos_site_id
_symmetry_equiv_pos_as_xyz
1 x,y,z
2 -x,-y,-z
_cell_length_a                   11.775(5)
_cell_length_b                   15.987(7)
_cell_length_c                   11.006(5)
_cell_angle_alpha                102.12(5)
_cell_angle_beta                 114.55(6)
_cell_angle_gamma                101.69(5)
_cell_volume                     1741.93
loop_
_atom_site_label
_atom_site_type_symbol
_atom_site_fract_x
_atom_site_fract_y
_atom_site_fract_z
Sn1 Sn 0.34674 0.28175 0.15584
Cl1 Cl 0.39650 0.15620 0.24490
Cl2 Cl 0.58410 0.37060 0.28660
P1 P -0.04060 0.11850 -0.06180
P2 P 0.31780 0.48160 0.01610
O1 O 0.09260 0.18740 0.01100
O2 O 0.31600 0.40940 0.08250
C1 C 0.28770 0.34110 0.30180
C2 C 0.23720 0.28010 0.36920
C3 C 0.20400 0.33200 0.47780
C4 C 0.16080 0.27260 0.55000
C5 C 0.32370 0.22770 -0.04850
C6 C 0.33000 0.13650 -0.08940
C7 C 0.29940 0.09850 -0.24480
C8 C 0.15530 0.05280 -0.33520
C9 C -0.13790 0.11160 -0.24240
C10 C -0.09090 0.18100 -0.28560
C11 C -0.16580 0.18040 -0.42390
C12 C -0.28430 0.11260 -0.51470
C13 C -0.32810 0.04320 -0.47250
C14 C -0.25540 0.04560 -0.33540
C15 C -0.13380 0.14430 0.02710
C16 C -0.09810 0.23230 0.11440
C17 C -0.17040 0.25360 0.18150
C18 C -0.27770 0.19000 0.16300
C19 C -0.31580 0.10340 0.07600
C20 C -0.24410 0.08090 0.00730
C21 C -0.04120 0.00370 -0.07590
C22 C 0.15670 0.46470 -0.12200
C23 C 0.13100 0.48910 -0.23840
C24 C 0.00330 0.47710 -0.33580
C25 C -0.09870 0.43970 -0.32150
C26 C -0.07730 0.41140 -0.20630
C27 C 0.05320 0.42490 -0.10550
C28 C 0.36650 0.59050 0.14250
C29 C 0.40170 0.59700 0.28130
C30 C 0.43220 0.68070 0.37860
C31 C 0.42770 0.75420 0.33770
C32 C 0.39490 0.74850 0.19930
C33 C 0.36290 0.66740 0.10120
C34 C 0.42830 0.49010 -0.05880
C21A C 0.04120 -0.00370 0.07590
C34A C 0.57170 0.50990 0.05880
P1A P 0.04060 -0.11850 0.06180
P2A P 0.68220 0.51840 -0.01610
O1A O -0.09260 -0.18740 -0.01100
C9A C 0.13790 -0.11160 0.24240
C15A C 0.13380 -0.14430 -0.02710
O2A O 0.68400 0.59060 -0.08250
C22A C 0.84330 0.53530 0.12200
C28A C 0.63350 0.40950 -0.14250
Sn1A Sn -0.34674 -0.28175 -0.15584
C10A C 0.09090 -0.18100 0.28560
C14A C 0.25540 -0.04560 0.33540
C16A C 0.09810 -0.23230 -0.11440
C20A C 0.24410 -0.08090 -0.00730
Sn1A_2 Sn 0.65326 0.71825 -0.15584
C23A C 0.86900 0.51090 0.23840
C27A C 0.94680 0.57510 0.10550
C29A C 0.59830 0.40300 -0.28130
C33A C 0.63710 0.33260 -0.10120
Cl1A Cl -0.39650 -0.15620 -0.24490
Cl2A Cl -0.58410 -0.37060 -0.28660
O2A_2 O -0.31600 -0.40940 -0.08250
C1A C -0.28770 -0.34110 -0.30180
C5A C -0.32370 -0.22770 0.04850
C11A C 0.16580 -0.18040 0.42390
C13A C 0.32810 -0.04320 0.47250
C17A C 0.17040 -0.25360 -0.18150
C19A C 0.31580 -0.10340 -0.07600
C24A C 0.99670 0.52290 0.33580
C26A C 1.07730 0.58860 0.20630
C30A C 0.56780 0.31930 -0.37860
C32A C 0.60510 0.25150 -0.19930
C2A C -0.23720 -0.28010 -0.36920
C6A C -0.33000 -0.13650 0.08940
C12A C 0.28430 -0.11260 0.51470
C18A C 0.27770 -0.19000 -0.16300
C25A C 1.09870 0.56030 0.32150
C31A C 0.57230 0.24580 -0.33770
C3A C -0.20400 -0.33200 -0.47780
C7A C -0.29940 -0.09850 0.24480
C4A C -0.16080 -0.27260 -0.55000
C8A C -0.15530 -0.05280 0.33520
loop_
_geom_bond_atom_site_label_1
_geom_bond_atom_site_label_2
_geom_bond_site_symmetry_1
_geom_bond_site_symmetry_2
Sn1 Cl1 1_555 1_555
Cl2 Sn1 1_555 1_555
P1 O1 1_555 1_555
P2 O2 1_555 1_555
O1 Sn1 1_555 1_555
O2 Sn1 1_555 1_555
C1 Sn1 1_555 1_555
C2 C1 1_555 1_555
C3 C2 1_555 1_555
C4 C3 1_555 1_555
C5 Sn1 1_555 1_555
C6 C5 1_555 1_555
C7 C6 1_555 1_555
C8 C7 1_555 1_555
C9 P1 1_555 1_555
C10 C9 1_555 1_555
C11 C10 1_555 1_555
C12 C11 1_555 1_555
C13 C12 1_555 1_555
C14 C9 1_555 1_555
C15 P1 1_555 1_555
C16 C15 1_555 1_555
C17 C16 1_555 1_555
C18 C17 1_555 1_555
C19 C18 1_555 1_555
C20 C15 1_555 1_555
C21 P1 1_555 1_555
C22 P2 1_555 1_555
C23 C22 1_555 1_555
C24 C23 1_555 1_555
C25 C24 1_555 1_555
C26 C25 1_555 1_555
C27 C22 1_555 1_555
C28 P2 1_555 1_555
C29 C28 1_555 1_555
C30 C29 1_555 1_555
C31 C30 1_555 1_555
C32 C31 1_555 1_555
C33 C28 1_555 1_555
C34 P2 1_555 1_555
C21A C21 1_555 1_555
C34A C34 1_555 1_555
P1A C21A 1_555 1_555
P2A C34A 1_555 1_555
O1A P1A 1_555 1_555
C9A P1A 1_555 1_555
C15A P1A 1_555 1_555
O2A P2A 1_555 1_555
C22A P2A 1_555 1_555
C28A P2A 1_555 1_555
Sn1A O1A 1_555 1_555
C10A C9A 1_555 1_555
C14A C9A 1_555 1_555
C16A C15A 1_555 1_555
C20A C15A 1_555 1_555
Sn1A_2 O2A 1_555 1_555
C23A C22A 1_555 1_555
C27A C22A 1_555 1_555
C29A C28A 1_555 1_555
C33A C28A 1_555 1_555
Cl1A Sn1A 1_555 1_555
Cl2A Sn1A 1_555 1_555
O2A_2 Sn1A 1_555 1_555
C1A Sn1A 1_555 1_555
C5A Sn1A 1_555 1_555
C11A C10A 1_555 1_555
C13A C14A 1_555 1_555
C17A C16A 1_555 1_555
C19A C20A 1_555 1_555
C24A C23A 1_555 1_555
C26A C27A 1_555 1_555
C30A C29A 1_555 1_555
C32A C33A 1_555 1_555
C2A C1A 1_555 1_555
C6A C5A 1_555 1_555
C12A C11A 1_555 1_555
C18A C17A 1_555 1_555
C25A C24A 1_555 1_555
C31A C30A 1_555 1_555
C3A C2A 1_555 1_555
C7A C6A 1_555 1_555
C4A C3A 1_555 1_555
C8A C7A 1_555 1_555
C13 C14 1_555 1_555
C19 C20 1_555 1_555
C26 C27 1_555 1_555
C32 C33 1_555 1_555
C13A C12A 1_555 1_555
C19A C18A 1_555 1_555
C26A C25A 1_555 1_555
C32A C31A 1_555 1_555

#END
