
#######################################################################
#
#                 Cambridge Crystallographic Data Centre
#                                CCDC 
#
#######################################################################
#
# If this CIF has been generated from an entry in the Cambridge 
# Structural Database, then it will include bibliographic, chemical, 
# crystal, experimental, refinement or atomic coordinate data resulting 
# from the CCDC's data processing and validation procedures.
#
#######################################################################

data_BULZIS
_symmetry_cell_setting           monoclinic
_symmetry_space_group_name_H-M   'P 21/n'
_symmetry_Int_Tables_number      14
_space_group_name_Hall           '-P 2yn'
loop_
_symmetry_equiv_pos_site_id
_symmetry_equiv_pos_as_xyz
1 x,y,z
2 1/2-x,1/2+y,1/2-z
3 -x,-y,-z
4 1/2+x,1/2-y,1/2+z
_cell_length_a                   12.9168(14)
_cell_length_b                   7.1062(7)
_cell_length_c                   19.996(2)
_cell_angle_alpha                90
_cell_angle_beta                 102.254(2)
_cell_angle_gamma                90
_cell_volume                     1793.6
loop_
_atom_site_label
_atom_site_type_symbol
_atom_site_fract_x
_atom_site_fract_y
_atom_site_fract_z
Ag1 Ag 0.051746(10) 0.087181(18) 0.199444(6)
N1 N 0.14183(11) -0.1360(2) 0.15615(7)
C1 C 0.23520(12) -0.1894(2) 0.19672(8)
H1 H 0.2647 -0.1036 0.2321
N2 N 0.29083(11) -0.3443(2) 0.19376(7)
C2 C 0.24244(13) -0.4590(2) 0.14227(8)
C3 C 0.14797(13) -0.4220(2) 0.09658(8)
C4 C 0.09640(12) -0.2503(2) 0.10315(8)
N3 N 0.00763(12) -0.2016(2) 0.06042(8)
H2 H -0.026(2) -0.096(3) 0.0667(12)
H3 H -0.0163(18) -0.278(3) 0.0312(12)
N4 N 0.11978(12) -0.5707(2) 0.05182(8)
C5 C 0.19668(13) -0.6922(3) 0.07113(8)
H4 H 0.1991 -0.8104 0.0493
N5 N 0.27348(11) -0.6336(2) 0.12563(7)
C6 C 0.37108(13) -0.7367(2) 0.15398(8)
H5 H 0.3564 -0.8735 0.1506
H6 H 0.3947 -0.7047 0.2030
C7 C 0.45947(14) -0.6910(3) 0.11691(9)
H7 H 0.4303 -0.6949 0.0670
H8 H 0.5145 -0.7898 0.1277
C8 C 0.51135(14) -0.5001(3) 0.13511(8)
H9 H 0.4561 -0.4013 0.1289
H10 H 0.5595 -0.4720 0.1039
S1 S 0.58609(3) -0.49673(6) 0.22331(2)
C9 C 0.64603(13) -0.2662(3) 0.22514(9)
H11 H 0.7019 -0.2560 0.2673
H12 H 0.6810 -0.2561 0.1857
C10 C 0.57107(15) -0.1007(3) 0.22279(10)
H13 H 0.5154 -0.1108 0.1804
H14 H 0.6112 0.0163 0.2195
S2 S 0.50680(3) -0.07826(6) 0.29470(2)
C11 C 0.61880(16) -0.0185(3) 0.36217(11)
H15 H 0.6775 -0.1047 0.3608
H16 H 0.5986 -0.0293 0.4066
H17 H 0.6410 0.1110 0.3558
Ag1A Ag 0.448254(10) -0.412819(18) 0.300556(6)
S1A S -0.08609(3) 0.00327(6) 0.27669(2)
S2A S -0.00680(3) 0.42174(6) 0.20530(2)
C12 C 0.83735(15) 0.6744(3) 0.50109(9)
S3 S 0.76524(4) 0.53012(7) 0.43091(2)
O1 O 0.65626(13) 0.5652(2) 0.43428(9)
O2 O 0.80246(14) 0.3429(2) 0.44932(8)
O3 O 0.79630(12) 0.6096(2) 0.37189(7)
F1 F 0.94176(9) 0.6616(2) 0.50759(6)
F2 F 0.81147(10) 0.85582(17) 0.49255(6)
F3 F 0.81561(11) 0.62090(18) 0.56101(6)
loop_
_geom_bond_atom_site_label_1
_geom_bond_atom_site_label_2
_geom_bond_site_symmetry_1
_geom_bond_site_symmetry_2
Ag1 N1 1_555 1_555
N1 C1 1_555 1_555
C1 H1 1_555 1_555
N2 C1 1_555 1_555
C2 N2 1_555 1_555
C3 C2 1_555 1_555
C4 N1 1_555 1_555
N3 C4 1_555 1_555
H2 N3 1_555 1_555
H3 N3 1_555 1_555
N4 C3 1_555 1_555
C5 N4 1_555 1_555
H4 C5 1_555 1_555
N5 C2 1_555 1_555
C6 N5 1_555 1_555
H5 C6 1_555 1_555
H6 C6 1_555 1_555
C7 C6 1_555 1_555
H7 C7 1_555 1_555
H8 C7 1_555 1_555
C8 C7 1_555 1_555
H9 C8 1_555 1_555
H10 C8 1_555 1_555
S1 C8 1_555 1_555
C9 S1 1_555 1_555
H11 C9 1_555 1_555
H12 C9 1_555 1_555
C10 C9 1_555 1_555
H13 C10 1_555 1_555
H14 C10 1_555 1_555
S2 C10 1_555 1_555
C11 S2 1_555 1_555
H15 C11 1_555 1_555
H16 C11 1_555 1_555
H17 C11 1_555 1_555
C12 S3 1_555 1_555
S3 O1 1_555 1_555
O2 S3 1_555 1_555
O3 S3 1_555 1_555
F1 C12 1_555 1_555
F2 C12 1_555 1_555
F3 C12 1_555 1_555
Ag1A S1 1_555 1_555
S1A Ag1 1_555 1_555
S2A Ag1 1_555 1_555
C3 C4 1_555 1_555
C5 N5 1_555 1_555
S2 Ag1A 1_555 1_555

#END
