
#######################################################################
#
#                 Cambridge Crystallographic Data Centre
#                                CCDC 
#
#######################################################################
#
# If this CIF has been generated from an entry in the Cambridge 
# Structural Database, then it will include bibliographic, chemical, 
# crystal, experimental, refinement or atomic coordinate data resulting 
# from the CCDC's data processing and validation procedures.
#
#######################################################################

data_BUNGUN
_symmetry_cell_setting           triclinic
_symmetry_space_group_name_H-M   'P -1'
_symmetry_Int_Tables_number      2
_space_group_name_Hall           '-P 1'
loop_
_symmetry_equiv_pos_site_id
_symmetry_equiv_pos_as_xyz
1 x,y,z
2 -x,-y,-z
_cell_length_a                   7.4603(8)
_cell_length_b                   9.4137(9)
_cell_length_c                   10.6183(9)
_cell_angle_alpha                96.075(3)
_cell_angle_beta                 109.018(3)
_cell_angle_gamma                107.646(3)
_cell_volume                     654.281
loop_
_atom_site_label
_atom_site_type_symbol
_atom_site_fract_x
_atom_site_fract_y
_atom_site_fract_z
Cu1 Cu 0.0000 0.0000 0.0000
O1 O 0.0193(3) 0.4199(2) 0.34921(18)
N1 N -0.2608(4) 0.4579(3) 0.3577(2)
C1 C -0.2849(4) 0.2958(3) 0.1574(2)
H1 H -0.373(5) 0.453(3) 0.322(3)
N2 N -0.1082(3) 0.1605(2) 0.0454(2)
C2 C -0.1876(4) 0.2222(3) 0.0971(2)
H2 H -0.204(5) 0.502(4) 0.447(4)
N3 N -0.6727(3) 0.2002(3) 0.0475(2)
C3 C -0.4983(4) 0.2448(3) 0.0973(2)
N4 N 0.0913(3) -0.0145(2) 0.1966(2)
C4 C -0.1663(4) 0.3962(3) 0.2936(3)
C5 C 0.2033(4) 0.1099(3) 0.3003(3)
H3 H 0.2395 0.2077 0.2792
C6 C 0.2675(4) 0.1013(3) 0.4358(3)
H4 H 0.3471 0.1920 0.5055
C7 C 0.2165(4) -0.0390(3) 0.4704(3)
C8 C 0.0991(4) -0.1672(3) 0.3625(3)
H5 H 0.0592 -0.2661 0.3809
C9 C 0.0412(4) -0.1510(3) 0.2298(3)
H6 H -0.0377 -0.2402 0.1583
C10 C 0.2766(4) -0.0600(3) 0.6146(3)
H7 H 0.3469 -0.1345 0.6220
H8 H 0.1512 -0.1060 0.6319
C11 C 0.4121(5) 0.0826(4) 0.7260(3)
H9 H 0.5363 0.1309 0.7098
H10 H 0.4475 0.0550 0.8150
H11 H 0.3403 0.1543 0.7254
Cu1_2 Cu -1.0000 0.0000 0.0000
Cu1_3 Cu 1.0000 0.0000 0.0000
O1_2 O 1.0193(3) 0.4199(2) 0.34921(18)
N1_2 N 0.7392(4) 0.4579(3) 0.3577(2)
C1_2 C 0.7151(4) 0.2958(3) 0.1574(2)
H1_2 H 0.627(5) 0.453(3) 0.322(3)
N2_2 N 0.8918(3) 0.1605(2) 0.0454(2)
N2A N 0.1082(3) -0.1605(2) -0.0454(2)
C2_2 C 0.8124(4) 0.2222(3) 0.0971(2)
H2_2 H 0.796(5) 0.502(4) 0.447(4)
N3_2 N 0.3273(3) 0.2002(3) 0.0475(2)
N3A N -0.3273(3) -0.2002(3) -0.0475(2)
C3_2 C 0.5017(4) 0.2448(3) 0.0973(2)
N4A N -0.0913(3) 0.0145(2) -0.1966(2)
C4_2 C 0.8337(4) 0.3962(3) 0.2936(3)
C5A C -0.2033(4) -0.1099(3) -0.3003(3)
H3A H -0.2395 -0.2077 -0.2792
C6A C -0.2675(4) -0.1013(3) -0.4358(3)
H4A H -0.3471 -0.1920 -0.5055
C7A C -0.2165(4) 0.0390(3) -0.4704(3)
C8A C -0.0991(4) 0.1672(3) -0.3625(3)
H5A H -0.0592 0.2661 -0.3809
C9A C -0.0412(4) 0.1510(3) -0.2298(3)
H6A H 0.0377 0.2402 -0.1583
C10A C -0.2766(4) 0.0600(3) -0.6146(3)
H7A H -0.3469 0.1345 -0.6220
H8A H -0.1512 0.1060 -0.6319
C11A C -0.4121(5) -0.0826(4) -0.7260(3)
H9A H -0.5363 -0.1309 -0.7098
H10A H -0.4475 -0.0550 -0.8150
H11A H -0.3403 -0.1543 -0.7254
H12 H 0.247(5) 0.474(4) 0.292(3)
O2 O 0.3469(3) 0.5014(2) 0.2703(2)
C12 C 0.2841(5) 0.5335(3) 0.1384(3)
H13 H 0.2193 0.6098 0.1392
H14 H 0.1870 0.4394 0.0711
H15 H 0.4026 0.5736 0.1139
loop_
_geom_bond_atom_site_label_1
_geom_bond_atom_site_label_2
_geom_bond_site_symmetry_1
_geom_bond_site_symmetry_2
Cu1 N2 1_555 1_555
O1 C4 1_555 1_555
N1 H1 1_555 1_555
C1 C2 1_555 1_555
N2 C2 1_555 1_555
H2 N1 1_555 1_555
N3 C3 1_555 1_555
C3 C1 1_555 1_555
N4 Cu1 1_555 1_555
C4 N1 1_555 1_555
C5 N4 1_555 1_555
H3 C5 1_555 1_555
C6 C5 1_555 1_555
H4 C6 1_555 1_555
C7 C6 1_555 1_555
C8 C7 1_555 1_555
H5 C8 1_555 1_555
C9 N4 1_555 1_555
H6 C9 1_555 1_555
C10 C7 1_555 1_555
H7 C10 1_555 1_555
H8 C10 1_555 1_555
C11 C10 1_555 1_555
H9 C11 1_555 1_555
H10 C11 1_555 1_555
H11 C11 1_555 1_555
H12 O2 1_555 1_555
O2 C12 1_555 1_555
C12 H13 1_555 1_555
H14 C12 1_555 1_555
H15 C12 1_555 1_555
Cu1_2 N3 1_555 1_555
Cu1_3 N2_2 1_555 1_555
O1_2 C4_2 1_555 1_555
N1_2 H1_2 1_555 1_555
C1_2 C2_2 1_555 1_555
N2_2 C2_2 1_555 1_555
N2A Cu1 1_555 1_555
H2_2 N1_2 1_555 1_555
N3_2 Cu1 1_555 1_555
N3A Cu1 1_555 1_555
C3_2 C1_2 1_555 1_555
N4A Cu1 1_555 1_555
C4_2 N1_2 1_555 1_555
C5A N4A 1_555 1_555
H3A C5A 1_555 1_555
C6A C5A 1_555 1_555
H4A C6A 1_555 1_555
C7A C6A 1_555 1_555
C8A C7A 1_555 1_555
H5A C8A 1_555 1_555
C9A N4A 1_555 1_555
H6A C9A 1_555 1_555
C10A C7A 1_555 1_555
H7A C10A 1_555 1_555
H8A C10A 1_555 1_555
C11A C10A 1_555 1_555
H9A C11A 1_555 1_555
H10A C11A 1_555 1_555
H11A C11A 1_555 1_555
C1 C4 1_555 1_555
C8 C9 1_555 1_555
C1_2 C4_2 1_555 1_555
N3_2 C3_2 1_555 1_555
C8A C9A 1_555 1_555

#END
