
#######################################################################
#
#                 Cambridge Crystallographic Data Centre
#                                CCDC 
#
#######################################################################
#
# If this CIF has been generated from an entry in the Cambridge 
# Structural Database, then it will include bibliographic, chemical, 
# crystal, experimental, refinement or atomic coordinate data resulting 
# from the CCDC's data processing and validation procedures.
#
#######################################################################

data_BUNJIE
_symmetry_cell_setting           triclinic
_symmetry_space_group_name_H-M   'P -1'
_symmetry_Int_Tables_number      2
_space_group_name_Hall           '-P 1'
loop_
_symmetry_equiv_pos_site_id
_symmetry_equiv_pos_as_xyz
1 x,y,z
2 -x,-y,-z
_cell_length_a                   8.6204(14)
_cell_length_b                   8.9687(15)
_cell_length_c                   11.8011(19)
_cell_angle_alpha                89.238(3)
_cell_angle_beta                 83.345(3)
_cell_angle_gamma                81.671(3)
_cell_volume                     896.676
loop_
_atom_site_label
_atom_site_type_symbol
_atom_site_fract_x
_atom_site_fract_y
_atom_site_fract_z
Cd1 Cd 0.5000 0.5000 0.5000
Br1 Br 0.43531(6) 0.20096(5) 0.86759(3)
Br2 Br 0.30550(5) 0.25482(5) 1.13924(3)
O1 O 0.0529(3) 0.1799(3) 0.7735(2)
O2 O 0.4921(3) 0.4986(3) 0.6939(2)
O3 O 0.7381(4) 0.4052(4) 0.7224(2)
O4 O 0.2471(4) 0.6372(3) 0.5046(2)
H1 H 0.2392 0.6157 0.4357
H2 H 0.2433 0.7299 0.5208
N1 N 0.3889(4) 0.2780(4) 0.5047(3)
N2 N -0.0011(5) -0.0159(4) 0.6822(3)
N3 N -0.0986(5) 0.0017(4) 0.7871(3)
N4 N -0.2647(5) 0.1304(5) 1.1322(3)
C1 C 0.2044(5) 0.1219(4) 0.5882(3)
C2 C 0.2812(5) 0.2471(4) 0.5887(3)
H3 H 0.2564 0.3127 0.6506
C3 C 0.4238(5) 0.1814(5) 0.4164(3)
H4 H 0.4983 0.2021 0.3569
C4 C 0.3547(5) 0.0535(5) 0.4096(4)
H5 H 0.3823 -0.0110 0.3472
C5 C 0.2443(5) 0.0229(5) 0.4965(4)
H6 H 0.1966 -0.0634 0.4941
C6 C 0.0845(5) 0.0912(5) 0.6792(3)
C7 C -0.0632(5) 0.1162(5) 0.8377(4)
C8 C -0.1217(5) 0.1742(5) 0.9504(4)
C9 C -0.2117(5) 0.0904(5) 1.0245(4)
H7 H -0.2368 0.0010 0.9975
C10 C -0.2280(6) 0.2597(6) 1.1674(4)
H8 H -0.2627 0.2897 1.2423
C11 C -0.1429(7) 0.3507(6) 1.1006(5)
H9 H -0.1223 0.4408 1.1295
C12 C -0.0876(6) 0.3087(5) 0.9904(4)
H10 H -0.0287 0.3692 0.9436
C13 C 0.5510(4) 0.4787(4) 0.8831(3)
C14 C 0.4709(4) 0.3747(4) 0.9442(3)
C15 C 0.4193(4) 0.3963(4) 1.0595(3)
C16 C 0.6001(5) 0.4577(4) 0.7544(3)
Cd1_2 Cd 0.5000 0.5000 1.5000
Br1A Br 0.56469(6) 0.79904(5) 1.13241(3)
Br2A Br 0.69450(5) 0.74518(5) 0.86076(3)
O1A O 0.9471(3) 0.8201(3) 0.2265(2)
O2A O 0.5079(3) 0.5014(3) 1.3061(2)
O2A_2 O 0.5079(3) 0.5014(3) 0.3061(2)
O3A O 0.2619(4) 0.5948(4) 1.2776(2)
O4A O 0.7529(4) 0.3628(3) 0.4954(2)
H1A H 0.7608 0.3843 0.5643
H2A H 0.7567 0.2701 0.4792
N1A N 0.6111(4) 0.7220(4) 0.4953(3)
N2A N 1.0011(5) 1.0159(4) 0.3178(3)
N3A N 1.0986(5) 0.9983(4) 0.2129(3)
N4A N 1.2647(5) 0.8696(5) -0.1322(3)
C1A C 0.7956(5) 0.8781(4) 0.4118(3)
C2A C 0.7188(5) 0.7529(4) 0.4113(3)
H3A H 0.7436 0.6873 0.3494
C3A C 0.5762(5) 0.8186(5) 0.5836(3)
H4A H 0.5017 0.7979 0.6431
C4A C 0.6453(5) 0.9465(5) 0.5904(4)
H5A H 0.6177 1.0110 0.6528
C5A C 0.7557(5) 0.9771(5) 0.5035(4)
H6A H 0.8034 1.0634 0.5059
C6A C 0.9155(5) 0.9088(5) 0.3208(3)
C7A C 1.0632(5) 0.8838(5) 0.1623(4)
C8A C 1.1217(5) 0.8258(5) 0.0496(4)
C9A C 1.2117(5) 0.9096(5) -0.0245(4)
H7A H 1.2368 0.9990 0.0025
C10A C 1.2280(6) 0.7403(6) -0.1674(4)
H8A H 1.2627 0.7103 -0.2423
C11A C 1.1429(7) 0.6493(6) -0.1006(5)
H9A H 1.1223 0.5592 -0.1295
C12A C 1.0876(6) 0.6913(5) 0.0096(4)
H10A H 1.0287 0.6308 0.0564
C13A C 0.4490(4) 0.5213(4) 1.1169(3)
C14A C 0.5291(4) 0.6253(4) 1.0558(3)
C15A C 0.5807(4) 0.6037(4) 0.9405(3)
C16A C 0.3999(5) 0.5423(4) 1.2456(3)
O5 O -0.0196(8) 0.6243(11) 0.6416(7)
O6? O 0.094(2) 0.6136(17) 0.5662(13)
loop_
_geom_bond_atom_site_label_1
_geom_bond_atom_site_label_2
_geom_bond_site_symmetry_1
_geom_bond_site_symmetry_2
Cd1 O2 1_555 1_555
Br1 C14 1_555 1_555
Br2 C15 1_555 1_555
O1 C6 1_555 1_555
O2 C16 1_555 1_555
O3 C16 1_555 1_555
O4 Cd1 1_555 1_555
H1 O4 1_555 1_555
H2 O4 1_555 1_555
N1 Cd1 1_555 1_555
N2 N3 1_555 1_555
N3 C7 1_555 1_555
N4 C9 1_555 1_555
C1 C2 1_555 1_555
C2 N1 1_555 1_555
H3 C2 1_555 1_555
C3 N1 1_555 1_555
H4 C3 1_555 1_555
C4 C3 1_555 1_555
H5 C4 1_555 1_555
C5 C1 1_555 1_555
H6 C5 1_555 1_555
C6 N2 1_555 1_555
C7 O1 1_555 1_555
C8 C7 1_555 1_555
C9 C8 1_555 1_555
H7 C9 1_555 1_555
C10 N4 1_555 1_555
H8 C10 1_555 1_555
C11 C10 1_555 1_555
H9 C11 1_555 1_555
C12 C8 1_555 1_555
H10 C12 1_555 1_555
C13 C14 1_555 1_555
C14 C15 1_555 1_555
C15 C13A 1_555 1_555
C16 C13 1_555 1_555
Cd1_2 O2A 1_555 1_555
Br1A C14A 1_555 1_555
Br2A C15A 1_555 1_555
O1A C6A 1_555 1_555
O2A C16A 1_555 1_555
O2A_2 Cd1 1_555 1_555
O3A C16A 1_555 1_555
O4A Cd1 1_555 1_555
H1A O4A 1_555 1_555
H2A O4A 1_555 1_555
N1A Cd1 1_555 1_555
N2A N3A 1_555 1_555
N3A C7A 1_555 1_555
N4A C9A 1_555 1_555
C1A C2A 1_555 1_555
C2A N1A 1_555 1_555
H3A C2A 1_555 1_555
C3A N1A 1_555 1_555
H4A C3A 1_555 1_555
C4A C3A 1_555 1_555
H5A C4A 1_555 1_555
C5A C1A 1_555 1_555
H6A C5A 1_555 1_555
C6A N2A 1_555 1_555
C7A O1A 1_555 1_555
C8A C7A 1_555 1_555
C9A C8A 1_555 1_555
H7A C9A 1_555 1_555
C10A N4A 1_555 1_555
H8A C10A 1_555 1_555
C11A C10A 1_555 1_555
H9A C11A 1_555 1_555
C12A C8A 1_555 1_555
H10A C12A 1_555 1_555
C13A C14A 1_555 1_555
C14A C15A 1_555 1_555
C15A C13 1_555 1_555
C16A C13A 1_555 1_555
C1 C6 1_555 1_555
C4 C5 1_555 1_555
C11 C12 1_555 1_555
C1A C6A 1_555 1_555
C4A C5A 1_555 1_555
C11A C12A 1_555 1_555

#END
