
#######################################################################
#
#                 Cambridge Crystallographic Data Centre
#                                CCDC 
#
#######################################################################
#
# If this CIF has been generated from an entry in the Cambridge 
# Structural Database, then it will include bibliographic, chemical, 
# crystal, experimental, refinement or atomic coordinate data resulting 
# from the CCDC's data processing and validation procedures.
#
#######################################################################

data_BUNJEA
_symmetry_cell_setting           triclinic
_symmetry_space_group_name_H-M   'P -1'
_symmetry_Int_Tables_number      2
_space_group_name_Hall           '-P 1'
loop_
_symmetry_equiv_pos_site_id
_symmetry_equiv_pos_as_xyz
1 x,y,z
2 -x,-y,-z
_cell_length_a                   8.6257(4)
_cell_length_b                   8.8493(4)
_cell_length_c                   11.5333(5)
_cell_angle_alpha                89.0140(10)
_cell_angle_beta                 84.8140(10)
_cell_angle_gamma                83.0340(10)
_cell_volume                     870.26
loop_
_atom_site_label
_atom_site_type_symbol
_atom_site_fract_x
_atom_site_fract_y
_atom_site_fract_z
Zn1 Zn 0.5000 0.5000 0.5000
Br1 Br 0.55957(3) 0.80658(3) 0.13554(2)
Br2 Br 0.69362(3) 0.75366(3) -0.13854(2)
N1 N 0.3904(3) 0.2937(2) 0.50487(18)
N2 N -0.0010(3) -0.0098(3) 0.6810(2)
N3 N -0.0984(3) 0.0055(3) 0.7855(2)
N4 N -0.2606(3) 0.1299(3) 1.1362(2)
O1 O 0.0504(2) 0.1916(2) 0.77396(16)
O2 O 0.2599(2) 0.5876(3) 0.27879(16)
O3 O 0.5058(2) 0.5038(2) 0.31511(14)
O4 O 0.2746(2) 0.6337(2) 0.50755(16)
H1 H 0.2678 0.6279 0.4347
H2 H 0.1975 0.6097 0.5524
C1 C 0.2048(3) 0.1328(3) 0.5886(2)
C2 C 0.2789(3) 0.2639(3) 0.5881(2)
H3 H 0.2500 0.3337 0.6479
C3 C 0.4294(3) 0.1918(3) 0.4188(2)
H4 H 0.5063 0.2112 0.3605
C4 C 0.3605(3) 0.0603(3) 0.4132(2)
H5 H 0.3901 -0.0069 0.3518
C5 C 0.2476(3) 0.0290(3) 0.4988(2)
H6 H 0.2007 -0.0601 0.4969
C6 C 0.0834(3) 0.1009(3) 0.6789(2)
C7 C -0.0638(3) 0.1229(3) 0.8369(2)
C8 C -0.1235(3) 0.1814(3) 0.9515(2)
C9 C -0.2075(3) 0.0907(3) 1.0270(2)
H7 H -0.2279 -0.0027 1.0000
C10 C -0.2293(4) 0.2642(4) 1.1713(3)
H8 H -0.2627 0.2930 1.2475
C11 C -0.1507(4) 0.3631(4) 1.1020(3)
H9 H -0.1342 0.4571 1.1304
C12 C -0.0972(4) 0.3211(4) 0.9909(3)
H10 H -0.0436 0.3861 0.9423
C13 C 0.4483(3) 0.5198(3) 0.1191(2)
C14 C 0.5271(3) 0.6283(3) 0.0578(2)
C15 C 0.5796(3) 0.6078(3) -0.0594(2)
C16 C 0.3985(3) 0.5395(3) 0.2496(2)
Zn1_2 Zn 0.5000 0.5000 -0.5000
Br1A Br 0.44043(3) 0.19342(3) -0.13554(2)
Br2A Br 0.30638(3) 0.24634(3) 0.13854(2)
N1A N 0.6096(3) 0.7063(2) 0.49513(18)
N2A N 1.0010(3) 1.0098(3) 0.3190(2)
N3A N 1.0984(3) 0.9945(3) 0.2145(2)
N4A N 1.2606(3) 0.8701(3) -0.1362(2)
O1A O 0.9496(2) 0.8084(2) 0.22604(16)
O2A O 0.7401(2) 0.4124(3) -0.27879(16)
O3A O 0.4942(2) 0.4962(2) -0.31511(14)
O3A_2 O 0.4942(2) 0.4962(2) 0.68489(14)
O4A O 0.7254(2) 0.3663(2) 0.49245(16)
H1A H 0.7322 0.3721 0.5653
H2A H 0.8025 0.3903 0.4476
C1A C 0.7952(3) 0.8672(3) 0.4114(2)
C2A C 0.7211(3) 0.7361(3) 0.4119(2)
H3A H 0.7500 0.6663 0.3521
C3A C 0.5706(3) 0.8082(3) 0.5812(2)
H4A H 0.4937 0.7888 0.6395
C4A C 0.6395(3) 0.9397(3) 0.5868(2)
H5A H 0.6099 1.0069 0.6482
C5A C 0.7524(3) 0.9710(3) 0.5012(2)
H6A H 0.7993 1.0601 0.5031
C6A C 0.9166(3) 0.8991(3) 0.3211(2)
C7A C 1.0638(3) 0.8771(3) 0.1631(2)
C8A C 1.1235(3) 0.8186(3) 0.0485(2)
C9A C 1.2075(3) 0.9093(3) -0.0270(2)
H7A H 1.2279 1.0027 0.0000
C10A C 1.2293(4) 0.7358(4) -0.1713(3)
H8A H 1.2627 0.7070 -0.2475
C11A C 1.1507(4) 0.6369(4) -0.1020(3)
H9A H 1.1342 0.5429 -0.1304
C12A C 1.0972(4) 0.6789(4) 0.0091(3)
H10A H 1.0436 0.6139 0.0577
C13A C 0.5517(3) 0.4802(3) -0.1191(2)
C14A C 0.4729(3) 0.3717(3) -0.0578(2)
C15A C 0.4204(3) 0.3922(3) 0.0594(2)
C16A C 0.6015(3) 0.4605(3) -0.2496(2)
O5 O 0.9878(3) 0.6247(4) 0.6326(3)
H11 H 1.0144 0.5389 0.6640
H12 H 0.9615 0.7000 0.6778
loop_
_geom_bond_atom_site_label_1
_geom_bond_atom_site_label_2
_geom_bond_site_symmetry_1
_geom_bond_site_symmetry_2
Zn1 N1 1_555 1_555
Br1 C14 1_555 1_555
Br2 C15 1_555 1_555
N1 C2 1_555 1_555
N2 N3 1_555 1_555
N3 C7 1_555 1_555
N4 C9 1_555 1_555
O1 C6 1_555 1_555
O2 C16 1_555 1_555
O3 Zn1 1_555 1_555
O4 Zn1 1_555 1_555
H1 O4 1_555 1_555
H2 O4 1_555 1_555
C1 C2 1_555 1_555
C2 H3 1_555 1_555
C3 N1 1_555 1_555
H4 C3 1_555 1_555
C4 C3 1_555 1_555
H5 C4 1_555 1_555
C5 C1 1_555 1_555
H6 C5 1_555 1_555
C6 N2 1_555 1_555
C7 O1 1_555 1_555
C8 C7 1_555 1_555
C9 C8 1_555 1_555
H7 C9 1_555 1_555
C10 N4 1_555 1_555
H8 C10 1_555 1_555
C11 C10 1_555 1_555
H9 C11 1_555 1_555
C12 C8 1_555 1_555
H10 C12 1_555 1_555
C13 C14 1_555 1_555
C14 C15 1_555 1_555
C15 C13A 1_555 1_555
C16 O3 1_555 1_555
O5 H11 1_555 1_555
H12 O5 1_555 1_555
Zn1_2 O3A 1_555 1_555
Br1A C14A 1_555 1_555
Br2A C15A 1_555 1_555
N1A Zn1 1_555 1_555
N2A N3A 1_555 1_555
N3A C7A 1_555 1_555
N4A C9A 1_555 1_555
O1A C6A 1_555 1_555
O2A C16A 1_555 1_555
O3A C16A 1_555 1_555
O3A_2 Zn1 1_555 1_555
O4A Zn1 1_555 1_555
H1A O4A 1_555 1_555
H2A O4A 1_555 1_555
C1A C2A 1_555 1_555
C2A N1A 1_555 1_555
H3A C2A 1_555 1_555
C3A N1A 1_555 1_555
H4A C3A 1_555 1_555
C4A C3A 1_555 1_555
H5A C4A 1_555 1_555
C5A C1A 1_555 1_555
H6A C5A 1_555 1_555
C6A N2A 1_555 1_555
C7A O1A 1_555 1_555
C8A C7A 1_555 1_555
C9A C8A 1_555 1_555
H7A C9A 1_555 1_555
C10A N4A 1_555 1_555
H8A C10A 1_555 1_555
C11A C10A 1_555 1_555
H9A C11A 1_555 1_555
C12A C8A 1_555 1_555
H10A C12A 1_555 1_555
C13A C14A 1_555 1_555
C14A C15A 1_555 1_555
C15A C13 1_555 1_555
C16A C13A 1_555 1_555
C1 C6 1_555 1_555
C4 C5 1_555 1_555
C11 C12 1_555 1_555
C13 C16 1_555 1_555
C1A C6A 1_555 1_555
C4A C5A 1_555 1_555
C11A C12A 1_555 1_555

#END
