
#######################################################################
#
#                 Cambridge Crystallographic Data Centre
#                                CCDC 
#
#######################################################################
#
# If this CIF has been generated from an entry in the Cambridge 
# Structural Database, then it will include bibliographic, chemical, 
# crystal, experimental, refinement or atomic coordinate data resulting 
# from the CCDC's data processing and validation procedures.
#
#######################################################################

data_BUNMOO
_symmetry_cell_setting           monoclinic
_symmetry_space_group_name_H-M   'C 2/c'
_symmetry_Int_Tables_number      15
_space_group_name_Hall           '-C 2yn'
loop_
_symmetry_equiv_pos_site_id
_symmetry_equiv_pos_as_xyz
1 x,y,z
2 -x,y,1/2-z
3 1/2+x,1/2+y,z
4 1/2-x,1/2+y,1/2-z
5 -x,-y,-z
6 x,-y,1/2+z
7 1/2-x,1/2-y,-z
8 1/2+x,1/2-y,1/2+z
_cell_length_a                   20.327(9)
_cell_length_b                   10.439(5)
_cell_length_c                   28.387(12)
_cell_angle_alpha                90
_cell_angle_beta                 103.948(8)
_cell_angle_gamma                90
_cell_volume                     5845.93
loop_
_atom_site_label
_atom_site_type_symbol
_atom_site_fract_x
_atom_site_fract_y
_atom_site_fract_z
C1 C 0.6698(3) 0.4288(6) 0.7282(2)
H1 H 0.6470 0.5007 0.7354
C2 C 0.7136(3) 0.4246(6) 0.6996(2)
H2 H 0.7263 0.4949 0.6837
C3 C 0.7071(3) 0.2342(6) 0.7246(2)
H3 H 0.7138 0.1466 0.7297
C4 C 0.6209(3) 0.2609(5) 0.77344(18)
C5 C 0.6094(3) 0.1322(5) 0.77690(19)
H4 H 0.6314 0.0737 0.7613
C6 C 0.5651(3) 0.0891(5) 0.80345(19)
H5 H 0.5573 0.0018 0.8059
C7 C 0.5322(3) 0.1767(5) 0.82642(18)
C8 C 0.5443(3) 0.3066(5) 0.8231(2)
H6 H 0.5221 0.3654 0.8384
C9 C 0.5894(3) 0.3488(5) 0.7972(2)
H7 H 0.5986 0.4358 0.7957
C10 C 0.5206(3) 0.0916(5) 0.91761(19)
C11 C 0.5466(3) -0.0310(5) 0.9296(2)
H8 H 0.5380 -0.0967 0.9069
C12 C 0.5855(3) -0.0527(5) 0.9761(2)
H9 H 0.6020 -0.1346 0.9848
C13 C 0.6006(3) 0.0460(5) 1.01013(19)
C14 C 0.5752(3) 0.1685(6) 0.9972(2)
H10 H 0.5853 0.2355 1.0194
C15 C 0.5349(3) 0.1896(6) 0.9512(2)
H11 H 0.5173 0.2709 0.9427
C16 C 0.6557(3) 0.1044(6) 1.0972(2)
H12 H 0.6348 0.1825 1.0994
C17 C 0.6869(3) -0.0778(6) 1.0705(2)
H13 H 0.6896 -0.1467 1.0502
C18 C 0.7037(3) 0.0463(6) 1.1323(2)
H14 H 0.7207 0.0783 1.1634
C19 C 0.9382(3) 0.1271(5) 0.6159(2)
C20 C 0.9727(3) 0.0786(5) 0.57764(18)
C21 C 1.0404(3) 0.0364(5) 0.59061(19)
H15 H 1.0649 0.0417 0.6228
C22 C 1.0707(3) -0.0130(5) 0.55590(18)
H16 H 1.1155 -0.0408 0.5649
C23 C 1.0342(3) -0.0217(5) 0.50688(18)
C24 C 0.9366(3) 0.0708(5) 0.52992(19)
H17 H 0.8918 0.0984 0.5217
C25 C 0.7340(3) 0.6966(5) 0.4866(2)
C26 C 0.7382(3) 0.5772(6) 0.5137(2)
H18 H 0.7174 0.5041 0.4983
C27 C 0.7718(3) 0.5711(5) 0.5609(2)
C28 C 0.8040(3) 0.6829(6) 0.5854(2)
H19 H 0.8277 0.6778 0.6178
C29 C 0.7999(3) 0.7962(6) 0.5614(2)
H20 H 0.8202 0.8690 0.5774
C30 C 0.7787(3) 0.4441(5) 0.5881(2)
N1 N 0.7369(2) 0.3027(5) 0.69708(16)
N2 N 0.6652(2) 0.3055(4) 0.74476(15)
N3 N 0.6443(2) 0.0237(4) 1.05721(16)
N4 N 0.7235(2) -0.0671(4) 1.11501(17)
O1 O 0.9738(2) 0.1439(5) 0.65816(14)
O2 O 0.8750(2) 0.1430(4) 0.60316(13)
O3 O 0.7438(2) 0.3487(4) 0.56963(14)
O4 O 0.8197(2) 0.4391(4) 0.62886(14)
O5 O 0.4448(2) 0.0036(4) 0.83634(15)
O6 O 0.4270(2) 0.2275(4) 0.86037(16)
O7 O 0.88354(19) 0.1748(4) 0.70984(12)
S1 S 0.47237(7) 0.12309(15) 0.85820(5)
Cd1 Cd 0.799236(19) 0.22889(4) 0.642970(12)
C19D C 1.0618(3) -0.1271(5) 0.3841(2)
C20D C 1.0273(3) -0.0786(5) 0.42236(18)
C21D C 0.9596(3) -0.0364(5) 0.40939(19)
H15D H 0.9351 -0.0417 0.3772
C22D C 0.9293(3) 0.0130(5) 0.44410(18)
H16D H 0.8845 0.0408 0.4351
C23D C 0.9658(3) 0.0217(5) 0.49312(18)
C24D C 1.0634(3) -0.0708(5) 0.47008(19)
H17D H 1.1082 -0.0984 0.4783
O1D O 1.0262(2) -0.1439(5) 0.34184(14)
O2D O 1.1250(2) -0.1430(4) 0.39684(13)
C25F C 0.7660(3) 0.8034(5) 0.5134(2)
C26F C 0.7618(3) 0.9228(6) 0.4863(2)
H18F H 0.7826 0.9959 0.5017
C27F C 0.7282(3) 0.9289(5) 0.4391(2)
C28F C 0.6960(3) 0.8171(6) 0.4146(2)
H19F H 0.6723 0.8222 0.3822
C29F C 0.7001(3) 0.7038(6) 0.4386(2)
H20F H 0.6798 0.6310 0.4226
C30F C 0.7213(3) 1.0559(5) 0.4119(2)
O3F O 0.7562(2) 1.1513(4) 0.43037(14)
O4F O 0.6803(2) 1.0609(4) 0.37114(14)
C1D C 1.3302(3) -0.4288(6) 0.2718(2)
H1D H 1.3530 -0.5007 0.2646
C2D C 1.2864(3) -0.4246(6) 0.3004(2)
H2D H 1.2737 -0.4949 0.3163
C3D C 1.2929(3) -0.2342(6) 0.2754(2)
H3D H 1.2862 -0.1466 0.2703
C4D C 1.3791(3) -0.2609(5) 0.22656(18)
C5D C 1.3906(3) -0.1322(5) 0.22310(19)
H4D H 1.3686 -0.0737 0.2387
C6D C 1.4349(3) -0.0891(5) 0.19655(19)
H5D H 1.4427 -0.0018 0.1941
C7D C 1.4678(3) -0.1767(5) 0.17358(18)
C8D C 1.4557(3) -0.3066(5) 0.1769(2)
H6D H 1.4779 -0.3654 0.1616
C9D C 1.4106(3) -0.3488(5) 0.2028(2)
H7D H 1.4014 -0.4358 0.2043
C10D C 1.4794(3) -0.0916(5) 0.08239(19)
C11D C 1.4534(3) 0.0310(5) 0.0704(2)
H8D H 1.4620 0.0967 0.0931
C12D C 1.4145(3) 0.0527(5) 0.0239(2)
H9D H 1.3980 0.1346 0.0152
C13D C 1.3994(3) -0.0460(5) -0.01013(19)
C14D C 1.4248(3) -0.1685(6) 0.0028(2)
H10D H 1.4147 -0.2355 -0.0194
C15D C 1.4651(3) -0.1896(6) 0.0488(2)
H11D H 1.4827 -0.2709 0.0573
C16D C 1.3443(3) -0.1044(6) -0.0972(2)
H12D H 1.3652 -0.1825 -0.0994
C17D C 1.3131(3) 0.0778(6) -0.0705(2)
H13D H 1.3104 0.1467 -0.0502
C18D C 1.2963(3) -0.0463(6) -0.1323(2)
H14D H 1.2793 -0.0783 -0.1634
N1D N 1.2631(2) -0.3027(5) 0.30292(16)
N2D N 1.3348(2) -0.3055(4) 0.25524(15)
N3D N 1.3557(2) -0.0237(4) -0.05721(16)
N4D N 1.2765(2) 0.0671(4) -0.11501(17)
O5D O 1.5552(2) -0.0036(4) 0.16366(15)
O6D O 1.5730(2) -0.2275(4) 0.13963(16)
O7D O 1.11646(19) -0.1748(4) 0.29016(12)
S1D S 1.52763(7) -0.12309(15) 0.14180(5)
Cd1D Cd 1.200764(19) -0.22889(4) 0.357030(12)
N4A N 1.2765(2) -0.0671(4) 0.38499(17)
N4E N 0.7235(2) 0.0671(4) 0.61501(17)
O3D O 1.2562(2) -0.3487(4) 0.43037(14)
O4D O 1.1803(2) -0.4391(4) 0.37114(14)
Cd1A Cd 1.200764(19) 0.22889(4) -0.142970(12)
Cd1E Cd 0.799236(19) -0.22889(4) 1.142970(12)
Cd1F Cd 0.700764(19) 1.27111(4) 0.357030(12)
O8 O 0.9010(3) 0.2511(4) 0.80312(16)
loop_
_geom_bond_atom_site_label_1
_geom_bond_atom_site_label_2
_geom_bond_site_symmetry_1
_geom_bond_site_symmetry_2
C1 H1 1_555 1_555
C2 C1 1_555 1_555
H2 C2 1_555 1_555
C3 H3 1_555 1_555
C4 C5 1_555 1_555
C5 H4 1_555 1_555
C6 C5 1_555 1_555
H5 C6 1_555 1_555
C7 C6 1_555 1_555
C8 C7 1_555 1_555
H6 C8 1_555 1_555
C9 C4 1_555 1_555
H7 C9 1_555 1_555
C10 C11 1_555 1_555
C11 H8 1_555 1_555
C12 C11 1_555 1_555
H9 C12 1_555 1_555
C13 C12 1_555 1_555
C14 C13 1_555 1_555
H10 C14 1_555 1_555
C15 C10 1_555 1_555
H11 C15 1_555 1_555
C16 H12 1_555 1_555
C17 H13 1_555 1_555
C18 C16 1_555 1_555
H14 C18 1_555 1_555
C19 C20 1_555 1_555
C20 C21 1_555 1_555
C21 H15 1_555 1_555
C22 C21 1_555 1_555
H16 C22 1_555 1_555
C23 C22 1_555 1_555
C24 C20 1_555 1_555
H17 C24 1_555 1_555
C25 C26 1_555 1_555
C26 H18 1_555 1_555
C27 C26 1_555 1_555
C28 C27 1_555 1_555
H19 C28 1_555 1_555
C29 C28 1_555 1_555
H20 C29 1_555 1_555
C30 C27 1_555 1_555
N1 C2 1_555 1_555
N2 C1 1_555 1_555
N3 C13 1_555 1_555
N4 C17 1_555 1_555
O1 C19 1_555 1_555
O2 C19 1_555 1_555
O3 C30 1_555 1_555
O4 C30 1_555 1_555
O5 S1 1_555 1_555
O6 S1 1_555 1_555
O7 Cd1 1_555 1_555
S1 C7 1_555 1_555
Cd1 N1 1_555 1_555
C19D C20D 1_555 1_555
C20D C21D 1_555 1_555
C21D H15D 1_555 1_555
C22D C21D 1_555 1_555
H16D C22D 1_555 1_555
C23D C23 1_555 1_555
C24D C23 1_555 1_555
H17D C24D 1_555 1_555
O1D C19D 1_555 1_555
O2D C19D 1_555 1_555
C25F C25 1_555 1_555
C26F C25F 1_555 1_555
H18F C26F 1_555 1_555
C27F C26F 1_555 1_555
C28F C27F 1_555 1_555
H19F C28F 1_555 1_555
C29F C25 1_555 1_555
H20F C29F 1_555 1_555
C30F C27F 1_555 1_555
O3F C30F 1_555 1_555
O4F C30F 1_555 1_555
C1D H1D 1_555 1_555
C2D C1D 1_555 1_555
H2D C2D 1_555 1_555
C3D H3D 1_555 1_555
C4D C5D 1_555 1_555
C5D H4D 1_555 1_555
C6D C5D 1_555 1_555
H5D C6D 1_555 1_555
C7D C6D 1_555 1_555
C8D C7D 1_555 1_555
H6D C8D 1_555 1_555
C9D C4D 1_555 1_555
H7D C9D 1_555 1_555
C10D C11D 1_555 1_555
C11D H8D 1_555 1_555
C12D C11D 1_555 1_555
H9D C12D 1_555 1_555
C13D C12D 1_555 1_555
C14D C13D 1_555 1_555
H10D C14D 1_555 1_555
C15D C10D 1_555 1_555
H11D C15D 1_555 1_555
C16D H12D 1_555 1_555
C17D H13D 1_555 1_555
C18D C16D 1_555 1_555
H14D C18D 1_555 1_555
N1D C2D 1_555 1_555
N2D C1D 1_555 1_555
N3D C13D 1_555 1_555
N4D C17D 1_555 1_555
O5D S1D 1_555 1_555
O6D S1D 1_555 1_555
O7D Cd1D 1_555 1_555
S1D C7D 1_555 1_555
Cd1D O2D 1_555 1_555
N4A Cd1D 1_555 1_555
N4E Cd1 1_555 1_555
O3D Cd1D 1_555 1_555
O4D Cd1D 1_555 1_555
Cd1A N4D 1_555 1_555
Cd1E N4 1_555 1_555
Cd1F O3F 1_555 1_555
C3 N1 1_555 1_555
C3 N2 1_555 1_555
C4 N2 1_555 1_555
C8 C9 1_555 1_555
C10 S1 1_555 1_555
C14 C15 1_555 1_555
C16 N3 1_555 1_555
C17 N3 1_555 1_555
C18 N4 1_555 1_555
C24 C23D 1_555 1_555
C29 C25F 1_555 1_555
O2 Cd1 1_555 1_555
O3 Cd1 1_555 1_555
O4 Cd1 1_555 1_555
C20D C24D 1_555 1_555
C22D C23D 1_555 1_555
C28F C29F 1_555 1_555
O4F Cd1F 1_555 1_555
C3D N1D 1_555 1_555
C3D N2D 1_555 1_555
C4D N2D 1_555 1_555
C8D C9D 1_555 1_555
C10D S1D 1_555 1_555
C14D C15D 1_555 1_555
C16D N3D 1_555 1_555
C17D N3D 1_555 1_555
C18D N4D 1_555 1_555
N1D Cd1D 1_555 1_555

#END
