
#######################################################################
#
#                 Cambridge Crystallographic Data Centre
#                                CCDC 
#
#######################################################################
#
# If this CIF has been generated from an entry in the Cambridge 
# Structural Database, then it will include bibliographic, chemical, 
# crystal, experimental, refinement or atomic coordinate data resulting 
# from the CCDC's data processing and validation procedures.
#
#######################################################################

data_BUNMAA
_symmetry_cell_setting           monoclinic
_symmetry_space_group_name_H-M   'C 2/c'
_symmetry_Int_Tables_number      15
_space_group_name_Hall           '-C 2yn'
loop_
_symmetry_equiv_pos_site_id
_symmetry_equiv_pos_as_xyz
1 x,y,z
2 -x,y,1/2-z
3 1/2+x,1/2+y,z
4 1/2-x,1/2+y,1/2-z
5 -x,-y,-z
6 x,-y,1/2+z
7 1/2-x,1/2-y,-z
8 1/2+x,1/2-y,1/2+z
_cell_length_a                   24.0679(11)
_cell_length_b                   17.2213(7)
_cell_length_c                   14.2795(6)
_cell_angle_alpha                90
_cell_angle_beta                 90.8540(10)
_cell_angle_gamma                90
_cell_volume                     5917.92
loop_
_atom_site_label
_atom_site_type_symbol
_atom_site_fract_x
_atom_site_fract_y
_atom_site_fract_z
C1 C 0.22218(12) 0.21223(15) 0.2461(2)
C2 C 0.17723(11) 0.25072(16) 0.3025(2)
C3 C 0.18010(12) 0.25597(16) 0.3996(2)
H1 H 0.2114 0.2373 0.4313
C4 C 0.13761(12) 0.28821(16) 0.4496(2)
H2 H 0.1402 0.2914 0.5145
C5 C 0.09103(12) 0.31580(18) 0.4030(2)
C6 C 0.08787(14) 0.3131(2) 0.3062(2)
H3 H 0.0571 0.3333 0.2746
C7 C 0.13073(13) 0.2801(2) 0.2573(2)
H4 H 0.1283 0.2776 0.1923
C8 C 0.01124(13) 0.39693(19) 0.4214(2)
C9 C 0.03013(13) 0.4685(2) 0.3932(2)
H5 H 0.0680 0.4793 0.3936
C10 C -0.00735(12) 0.52381(18) 0.3646(2)
H6 H 0.0052 0.5728 0.3476
C11 C -0.06384(11) 0.50774(16) 0.36049(18)
C12 C -0.08226(12) 0.43594(17) 0.3903(2)
H7 H -0.1201 0.4248 0.3889
C13 C -0.04482(14) 0.38056(17) 0.4222(2)
H8 H -0.0573 0.3329 0.4439
C14 C -0.10274(13) 0.56921(18) 0.32055(19)
C15 C 0.30298(11) -0.01941(16) 0.0841(2)
H9 H 0.3249 -0.0506 0.1228
C16 C 0.28434(12) -0.03882(17) -0.0031(2)
H10 H 0.2909 -0.0850 -0.0348
C17 C 0.25447(11) 0.07763(16) 0.03328(19)
H11 H 0.2363 0.1252 0.0293
C18 C 0.22386(11) 0.02954(16) -0.12192(18)
C19 C 0.19229(12) -0.03209(16) -0.1531(2)
H12 H 0.1901 -0.0774 -0.1179
C20 C 0.16366(13) -0.02553(17) -0.2380(2)
H13 H 0.1423 -0.0667 -0.2607
C21 C 0.16721(12) 0.04238(17) -0.28811(19)
C22 C 0.19864(14) 0.10430(18) -0.2565(2)
H14 H 0.2003 0.1498 -0.2914
C23 C 0.22749(14) 0.09801(18) -0.1728(2)
H15 H 0.2491 0.1391 -0.1507
C24 C 0.06908(12) 0.09232(18) -0.3861(2)
C25 C 0.02083(14) 0.04946(18) -0.3937(2)
H16 H 0.0225 -0.0044 -0.3965
C26 C -0.03026(13) 0.08685(18) -0.3971(2)
H17 H -0.0632 0.0588 -0.4026
C27 C -0.03082(12) 0.16742(16) -0.3922(2)
C28 C 0.01700(12) 0.20993(17) -0.3814(2)
H18 H 0.0153 0.2637 -0.3760
C29 C 0.06765(13) 0.17239(18) -0.3784(2)
H19 H 0.1004 0.2006 -0.3713
C30 C -0.09718(12) 0.26549(17) -0.3404(2)
H20 H -0.0759 0.2821 -0.2893
C31 C -0.16189(12) 0.25521(18) -0.4444(2)
H21 H -0.1946 0.2643 -0.4781
C32 C -0.12378(12) 0.20119(18) -0.4662(2)
H22 H -0.1250 0.1666 -0.5162
N1 N 0.28407(9) 0.05424(13) 0.10616(16)
N2 N 0.25388(9) 0.02346(13) -0.03493(16)
N3 N -0.08245(9) 0.20809(14) -0.39843(17)
N4 N -0.14542(9) 0.29525(13) -0.36480(16)
O1 O 0.26180(8) 0.18032(12) 0.29337(15)
O2 O 0.21957(9) 0.21294(13) 0.15963(15)
O3 O 0.04798(10) 0.34162(16) 0.45755(15)
O4 O -0.08941(11) 0.63777(13) 0.32288(18)
O5 O -0.14810(9) 0.54391(13) 0.28483(16)
O6 O 0.16711(10) 0.10177(16) -0.45445(16)
O7 O 0.12518(11) -0.02886(15) -0.43304(17)
S1 S 0.13489(3) 0.04845(5) -0.39993(5)
Zn1 Zn 0.312144(12) 0.123925(18) 0.21138(2)
N4G N 0.35458(9) 0.20475(13) 0.13520(16)
O5B O 0.35190(9) 0.04391(13) 0.28483(16)
Zn1B Zn -0.187856(12) 0.623925(18) 0.21138(2)
Zn1G Zn -0.187856(12) 0.376075(18) -0.28862(2)
O8 O -0.0407(10) -0.1304(18) -0.3464(18)
loop_
_geom_bond_atom_site_label_1
_geom_bond_atom_site_label_2
_geom_bond_site_symmetry_1
_geom_bond_site_symmetry_2
C1 C2 1_555 1_555
C2 C3 1_555 1_555
C3 H1 1_555 1_555
C4 C3 1_555 1_555
H2 C4 1_555 1_555
C5 C4 1_555 1_555
C6 C5 1_555 1_555
H3 C6 1_555 1_555
C7 C2 1_555 1_555
H4 C7 1_555 1_555
C8 C9 1_555 1_555
C9 H5 1_555 1_555
C10 C9 1_555 1_555
H6 C10 1_555 1_555
C11 C10 1_555 1_555
C12 C11 1_555 1_555
H7 C12 1_555 1_555
C13 C8 1_555 1_555
H8 C13 1_555 1_555
C14 C11 1_555 1_555
C15 H9 1_555 1_555
C16 C15 1_555 1_555
H10 C16 1_555 1_555
C17 H11 1_555 1_555
C18 C19 1_555 1_555
C19 H12 1_555 1_555
C20 C19 1_555 1_555
H13 C20 1_555 1_555
C21 C20 1_555 1_555
C22 C21 1_555 1_555
H14 C22 1_555 1_555
C23 C18 1_555 1_555
H15 C23 1_555 1_555
C24 C25 1_555 1_555
C25 H16 1_555 1_555
C26 C25 1_555 1_555
H17 C26 1_555 1_555
C27 C26 1_555 1_555
C28 C27 1_555 1_555
H18 C28 1_555 1_555
C29 C24 1_555 1_555
H19 C29 1_555 1_555
C30 H20 1_555 1_555
C31 H21 1_555 1_555
C32 C31 1_555 1_555
H22 C32 1_555 1_555
N1 C15 1_555 1_555
N2 C16 1_555 1_555
N3 C27 1_555 1_555
N4 C30 1_555 1_555
O1 C1 1_555 1_555
O2 C1 1_555 1_555
O3 C5 1_555 1_555
O4 C14 1_555 1_555
O5 C14 1_555 1_555
O6 S1 1_555 1_555
O7 S1 1_555 1_555
S1 C21 1_555 1_555
Zn1 N1 1_555 1_555
N4G Zn1 1_555 1_555
O5B Zn1 1_555 1_555
Zn1B O5 1_555 1_555
Zn1G N4 1_555 1_555
C6 C7 1_555 1_555
C8 O3 1_555 1_555
C12 C13 1_555 1_555
C17 N1 1_555 1_555
C17 N2 1_555 1_555
C18 N2 1_555 1_555
C22 C23 1_555 1_555
C24 S1 1_555 1_555
C28 C29 1_555 1_555
C30 N3 1_555 1_555
C31 N4 1_555 1_555
C32 N3 1_555 1_555
O1 Zn1 1_555 1_555

#END
