
#######################################################################
#
#                 Cambridge Crystallographic Data Centre
#                                CCDC 
#
#######################################################################
#
# If this CIF has been generated from an entry in the Cambridge 
# Structural Database, then it will include bibliographic, chemical, 
# crystal, experimental, refinement or atomic coordinate data resulting 
# from the CCDC's data processing and validation procedures.
#
#######################################################################

data_BUPDAS
_symmetry_cell_setting           orthorhombic
_symmetry_space_group_name_H-M   'P c a 21'
_symmetry_Int_Tables_number      29
_space_group_name_Hall           'P 2c -2ac'
loop_
_symmetry_equiv_pos_site_id
_symmetry_equiv_pos_as_xyz
1 x,y,z
2 -x,-y,1/2+z
3 1/2-x,y,1/2+z
4 1/2+x,-y,z
_cell_length_a                   27.664(2)
_cell_length_b                   8.836(1)
_cell_length_c                   15.110(1)
_cell_angle_alpha                90
_cell_angle_beta                 90
_cell_angle_gamma                90
_cell_volume                     3693.47
loop_
_atom_site_label
_atom_site_type_symbol
_atom_site_fract_x
_atom_site_fract_y
_atom_site_fract_z
Ag1 Ag 0.387490(6) 0.482709(16) 0.300108(18)
S1 S 0.42343(2) -0.29354(6) 0.36692(4)
S2 S 0.49082(2) -0.03899(7) 0.27155(4)
N1 N 0.34229(6) 0.15024(18) 0.32207(12)
N2 N 0.43058(7) 0.3040(2) 0.22158(13)
N3 N 0.40801(7) 0.1661(2) 0.21900(12)
O1 O 0.33640(8) 0.6302(2) 0.18920(14)
C1 C 0.30419(8) 0.0660(3) 0.34975(16)
N4 N 0.33156(6) 0.30123(19) 0.32195(13)
C2 C 0.43027(10) 0.2105(3) 0.08330(18)
H1 H 0.4358 0.2024 0.0228
C3 C 0.51602(8) -0.2073(2) 0.31847(16)
C4 C 0.47405(8) 0.0654(2) 0.36801(16)
C5 C 0.41412(8) -0.3090(2) 0.48387(15)
C6 C 0.42712(8) 0.1234(2) 0.37599(16)
C7 C 0.48764(8) -0.3215(2) 0.35535(14)
C8 C 0.38184(9) -0.4124(3) 0.51787(17)
H2 H 0.3664 -0.4804 0.4804
C9 C 0.38594(9) -0.0437(3) 0.11662(19)
H3 H 0.4057 -0.1217 0.1422
H4 H 0.3843 -0.0578 0.0537
H5 H 0.3540 -0.0489 0.1412
C10 C 0.26726(9) 0.1656(3) 0.36464(18)
H6 H 0.2361 0.1417 0.3827
C11 C 0.50779(9) 0.0915(3) 0.43457(18)
H7 H 0.5394 0.0581 0.4277
C12 C 0.41422(9) 0.1978(3) 0.45324(16)
H8 H 0.3829 0.2339 0.4601
C13 C 0.55717(10) -0.4801(3) 0.37005(18)
H9 H 0.5710 -0.5715 0.3871
C14 C 0.43674(10) -0.2088(3) 0.54005(17)
H10 H 0.4584 -0.1382 0.5176
C15 C 0.46939(12) 0.4758(3) 0.1166(2)
H11 H 0.4790 0.5250 0.1705
H12 H 0.4482 0.5411 0.0839
H13 H 0.4975 0.4537 0.0817
C16 C 0.39110(7) 0.09854(19) 0.3012(2)
H14 H 0.3892 -0.0109 0.2913
C17 C 0.50830(9) -0.4571(3) 0.38066(17)
H15 H 0.4891 -0.5330 0.4049
C18 C 0.44784(11) 0.2191(3) 0.52066(18)
H16 H 0.4388 0.2686 0.5724
C19 C 0.37232(10) -0.4151(3) 0.60781(19)
H17 H 0.3503 -0.4846 0.6305
C20 C 0.28525(8) 0.3095(3) 0.34758(16)
C21 C 0.44348(9) 0.3308(3) 0.13832(17)
C22 C 0.26254(12) 0.6594(4) 0.1128(3)
H18 H 0.2545 0.7249 0.1613
H19 H 0.2399 0.5771 0.1104
H20 H 0.2612 0.7154 0.0584
C23 C 0.58540(10) -0.3689(3) 0.33448(18)
H21 H 0.6184 -0.3853 0.3274
C24 C 0.31181(11) 0.5990(3) 0.1255(2)
C25 C 0.56557(8) -0.2323(3) 0.3088(2)
H22 H 0.5852 -0.1570 0.2851
C26 C 0.39510(10) -0.3165(3) 0.66329(18)
H23 H 0.3889 -0.3192 0.7238
C27 C 0.42719(11) -0.2133(3) 0.6294(2)
H24 H 0.4426 -0.1457 0.6671
C28 C 0.26067(11) 0.4594(3) 0.3541(2)
H25 H 0.2568 0.4861 0.4153
H26 H 0.2295 0.4537 0.3264
H27 H 0.2799 0.5348 0.3250
C29 C 0.40749(8) 0.1070(3) 0.13636(15)
C30 C 0.30623(9) -0.1031(3) 0.3577(2)
H28 H 0.2753 -0.1406 0.3765
H29 H 0.3303 -0.1308 0.4005
H30 H 0.3143 -0.1463 0.3014
C31 C 0.33013(17) 0.4974(4) 0.0543(3)
H31 H 0.3389 0.5567 0.0036
H32 H 0.3053 0.4265 0.0382
H33 H 0.3580 0.4434 0.0754
C32 C 0.49438(11) 0.1669(3) 0.51083(19)
H34 H 0.5169 0.1825 0.5556
Ag1_2 Ag 0.387490(6) -0.517291(16) 0.300108(18)
S1_2 S 0.42343(2) 0.70646(6) 0.36692(4)
C33 C 0.23874(14) -0.8836(5) -0.3810(3)
H35 H 0.2186 -0.8002 -0.3635
H36 H 0.2372 -0.9614 -0.3367
H37 H 0.2275 -0.9232 -0.4364
C34 C 0.28907(15) -0.8313(5) -0.3905(3)
O2 O 0.29931(14) -0.7074(4) -0.4114(3)
C35 C 0.32533(19) -0.9525(7) -0.3803(4)
H38 H 0.3204 -1.0279 -0.4252
H39 H 0.3220 -0.9980 -0.3229
H40 H 0.3572 -0.9104 -0.3861
B1 B 0.33606(14) -1.1460(5) -0.1175(3)
F1 F 0.37849(17) -1.2068(8) -0.0941(4)
F2 F 0.3460(3) -1.0045(7) -0.1463(7)
F3 F 0.3132(2) -1.2375(11) -0.1723(6)
F4 F 0.3065(3) -1.1355(12) -0.0472(7)
F5? F 0.3517(7) -1.2916(18) -0.1002(17)
F6? F 0.3772(5) -1.097(2) -0.1387(11)
F7? F 0.3121(7) -1.083(2) -0.0566(11)
F8? F 0.3131(4) -1.1341(18) -0.1928(6)
loop_
_geom_bond_atom_site_label_1
_geom_bond_atom_site_label_2
_geom_bond_site_symmetry_1
_geom_bond_site_symmetry_2
Ag1 N2 1_555 1_555
S1 C5 1_555 1_555
S2 C3 1_555 1_555
N1 C1 1_555 1_555
N2 N3 1_555 1_555
N3 C16 1_555 1_555
O1 Ag1 1_555 1_555
C1 C10 1_555 1_555
N4 Ag1 1_555 1_555
C2 H1 1_555 1_555
C3 C7 1_555 1_555
C4 S2 1_555 1_555
C5 C8 1_555 1_555
C6 C4 1_555 1_555
C7 S1 1_555 1_555
C8 H2 1_555 1_555
C9 H3 1_555 1_555
H4 C9 1_555 1_555
H5 C9 1_555 1_555
C10 H6 1_555 1_555
C11 C4 1_555 1_555
H7 C11 1_555 1_555
C12 C6 1_555 1_555
H8 C12 1_555 1_555
C13 H9 1_555 1_555
C14 C5 1_555 1_555
H10 C14 1_555 1_555
C15 H11 1_555 1_555
H12 C15 1_555 1_555
H13 C15 1_555 1_555
C16 N1 1_555 1_555
H14 C16 1_555 1_555
C17 C7 1_555 1_555
H15 C17 1_555 1_555
C18 C12 1_555 1_555
H16 C18 1_555 1_555
C19 C8 1_555 1_555
H17 C19 1_555 1_555
C20 N4 1_555 1_555
C21 N2 1_555 1_555
C22 H18 1_555 1_555
H19 C22 1_555 1_555
H20 C22 1_555 1_555
C23 C13 1_555 1_555
H21 C23 1_555 1_555
C24 O1 1_555 1_555
C25 C3 1_555 1_555
H22 C25 1_555 1_555
C26 C19 1_555 1_555
H23 C26 1_555 1_555
C27 C14 1_555 1_555
H24 C27 1_555 1_555
C28 C20 1_555 1_555
H25 C28 1_555 1_555
H26 C28 1_555 1_555
H27 C28 1_555 1_555
C29 N3 1_555 1_555
C30 C1 1_555 1_555
H28 C30 1_555 1_555
H29 C30 1_555 1_555
H30 C30 1_555 1_555
C31 C24 1_555 1_555
H31 C31 1_555 1_555
H32 C31 1_555 1_555
H33 C31 1_555 1_555
C32 C11 1_555 1_555
H34 C32 1_555 1_555
C33 H35 1_555 1_555
H36 C33 1_555 1_555
H37 C33 1_555 1_555
C34 C33 1_555 1_555
O2 C34 1_555 1_555
C35 C34 1_555 1_555
H38 C35 1_555 1_555
H39 C35 1_555 1_555
H40 C35 1_555 1_555
B1 F1 1_555 1_555
F2 B1 1_555 1_555
F3 B1 1_555 1_555
F4 B1 1_555 1_555
Ag1_2 S1 1_555 1_555
S1_2 Ag1 1_555 1_555
N1 N4 1_555 1_555
C2 C21 1_555 1_555
C2 C29 1_555 1_555
C6 C16 1_555 1_555
C9 C29 1_555 1_555
C10 C20 1_555 1_555
C13 C17 1_555 1_555
C15 C21 1_555 1_555
C18 C32 1_555 1_555
C22 C24 1_555 1_555
C23 C25 1_555 1_555
C26 C27 1_555 1_555

#END
