
#######################################################################
#
#                 Cambridge Crystallographic Data Centre
#                                CCDC 
#
#######################################################################
#
# If this CIF has been generated from an entry in the Cambridge 
# Structural Database, then it will include bibliographic, chemical, 
# crystal, experimental, refinement or atomic coordinate data resulting 
# from the CCDC's data processing and validation procedures.
#
#######################################################################

data_BUPKED
_symmetry_cell_setting           monoclinic
_symmetry_space_group_name_H-M   'C 2/c'
_symmetry_Int_Tables_number      15
_space_group_name_Hall           '-C 2yn'
loop_
_symmetry_equiv_pos_site_id
_symmetry_equiv_pos_as_xyz
1 x,y,z
2 -x,y,1/2-z
3 1/2+x,1/2+y,z
4 1/2-x,1/2+y,1/2-z
5 -x,-y,-z
6 x,-y,1/2+z
7 1/2-x,1/2-y,-z
8 1/2+x,1/2-y,1/2+z
_cell_length_a                   32.732(3)
_cell_length_b                   8.3330(8)
_cell_length_c                   17.4514(15)
_cell_angle_alpha                90
_cell_angle_beta                 91.845(2)
_cell_angle_gamma                90
_cell_volume                     4757.5
loop_
_atom_site_label
_atom_site_type_symbol
_atom_site_fract_x
_atom_site_fract_y
_atom_site_fract_z
Cd1 Cd 0.116670(7) 0.55461(3) 0.683820(13)
C1 C -0.01237(10) 0.1396(4) 0.38082(18)
C2 C 0.01306(11) 0.1967(4) 0.43968(19)
H1 H 0.0070 0.2929 0.4638
C3 C 0.04741(10) 0.1109(4) 0.46248(19)
C4 C 0.05661(11) -0.0323(4) 0.4276(2)
H2 H 0.0801 -0.0887 0.4423
C5 C 0.03057(11) -0.0908(4) 0.3708(2)
C6 C -0.00399(11) -0.0068(4) 0.34706(19)
H3 H -0.0214 -0.0480 0.3088
C7 C -0.04844(11) 0.2394(4) 0.3534(2)
C8 C 0.09919(11) 0.0741(4) 0.5696(2)
H4 H 0.1030 -0.0363 0.5664
C9 C 0.11761(11) 0.1753(4) 0.6199(2)
H5 H 0.1366 0.1449 0.6579
C10 C 0.07793(11) 0.3194(4) 0.5487(2)
H6 H 0.0639 0.4065 0.5273
C11 C 0.02168(15) -0.3826(6) 0.3451(3)
H7 H -0.0020 -0.4011 0.3719
C12 C 0.04399(16) -0.4928(6) 0.3071(3)
H8 H 0.0381 -0.6019 0.3043
C13 C 0.07389(12) -0.2696(5) 0.2936(2)
H9 H 0.0926 -0.1913 0.2802
C14 C 0.23188(11) 0.5546(4) 1.0880(2)
C15 C 0.26578(12) 0.4669(4) 1.0677(2)
H10 H 0.2834 0.4252 1.1055
C16 C 0.27345(11) 0.4414(4) 0.9914(2)
C17 C 0.24803(11) 0.5052(5) 0.9340(2)
H11 H 0.2538 0.4911 0.8826
C18 C 0.21370(11) 0.5909(4) 0.9552(2)
C19 C 0.20574(11) 0.6145(4) 1.03185(19)
H12 H 0.1826 0.6712 1.0454
C20 C 0.33556(11) 0.2799(4) 1.0250(2)
H13 H 0.3360 0.2930 1.0780
C21 C 0.36175(11) 0.1925(4) 0.9841(2)
H14 H 0.3838 0.1349 1.0048
C22 C 0.31872(11) 0.2939(4) 0.9026(2)
H15 H 0.3049 0.3205 0.8570
C23 C 0.13538(12) 0.7711(5) 0.8381(2)
H16 H 0.1136 0.8400 0.8268
C24 C 0.15667(12) 0.7658(5) 0.9057(2)
H17 H 0.1524 0.8286 0.9488
C25 C 0.18076(12) 0.5890(5) 0.8264(2)
H18 H 0.1967 0.5076 0.8064
C26 C 0.22308(13) 0.5791(4) 1.1719(2)
N1 N 0.10442(9) 0.3296(4) 0.60717(17)
N2 N 0.07371(8) 0.1667(3) 0.52381(15)
N3 N 0.07636(11) -0.4205(4) 0.27362(18)
N4 N 0.04084(9) -0.2413(4) 0.33612(17)
N5 N 0.15065(9) 0.6597(4) 0.78855(17)
N6 N 0.18583(9) 0.6488(4) 0.89782(16)
N7 N 0.35118(9) 0.2009(4) 0.90747(16)
N8 N 0.30800(9) 0.3460(4) 0.97255(16)
O1 O -0.05618(8) 0.3627(3) 0.39161(18)
O2 O -0.06850(8) 0.1963(4) 0.29577(16)
O3 O 0.18649(8) 0.6150(4) 1.18675(14)
O4 O 0.25151(9) 0.5629(4) 1.22024(16)
Cd1E Cd 0.116670(7) -0.55461(3) 0.183820(13)
Cd1C Cd 0.383330(7) 0.05461(3) 0.816180(13)
Cd1D Cd -0.116670(7) 0.44539(3) 0.316180(13)
N3E N 0.07636(11) 0.4205(4) 0.77362(18)
N7C N 0.14882(9) 0.7009(4) 0.59253(16)
O1D O 0.05618(8) 0.6373(3) 0.60839(18)
O5 O 0.17457(10) 0.8694(4) 0.28382(18)
loop_
_geom_bond_atom_site_label_1
_geom_bond_atom_site_label_2
_geom_bond_site_symmetry_1
_geom_bond_site_symmetry_2
Cd1 N1 1_555 1_555
C1 C2 1_555 1_555
C2 H1 1_555 1_555
C3 C2 1_555 1_555
C4 C3 1_555 1_555
H2 C4 1_555 1_555
C5 C4 1_555 1_555
C6 C1 1_555 1_555
H3 C6 1_555 1_555
C7 C1 1_555 1_555
C8 H4 1_555 1_555
C9 C8 1_555 1_555
H5 C9 1_555 1_555
C10 H6 1_555 1_555
C11 H7 1_555 1_555
C12 C11 1_555 1_555
H8 C12 1_555 1_555
C13 H9 1_555 1_555
C14 C15 1_555 1_555
C15 H10 1_555 1_555
C16 C15 1_555 1_555
C17 C16 1_555 1_555
H11 C17 1_555 1_555
C18 C17 1_555 1_555
C19 C14 1_555 1_555
H12 C19 1_555 1_555
C20 H13 1_555 1_555
C21 C20 1_555 1_555
H14 C21 1_555 1_555
C22 H15 1_555 1_555
C23 H16 1_555 1_555
C24 C23 1_555 1_555
H17 C24 1_555 1_555
C25 H18 1_555 1_555
C26 C14 1_555 1_555
N1 C9 1_555 1_555
N2 C3 1_555 1_555
N3 C12 1_555 1_555
N4 C5 1_555 1_555
N5 Cd1 1_555 1_555
N6 C18 1_555 1_555
N7 C21 1_555 1_555
N8 C16 1_555 1_555
O1 C7 1_555 1_555
O2 C7 1_555 1_555
O3 C26 1_555 1_555
O4 C26 1_555 1_555
Cd1E N3 1_555 1_555
Cd1C N7 1_555 1_555
Cd1D O1 1_555 1_555
N3E Cd1 1_555 1_555
N7C Cd1 1_555 1_555
O1D Cd1 1_555 1_555
C5 C6 1_555 1_555
C8 N2 1_555 1_555
C10 N1 1_555 1_555
C10 N2 1_555 1_555
C11 N4 1_555 1_555
C13 N3 1_555 1_555
C13 N4 1_555 1_555
C18 C19 1_555 1_555
C20 N8 1_555 1_555
C22 N7 1_555 1_555
C22 N8 1_555 1_555
C23 N5 1_555 1_555
C24 N6 1_555 1_555
C25 N5 1_555 1_555
C25 N6 1_555 1_555

#END
