
#######################################################################
#
#                 Cambridge Crystallographic Data Centre
#                                CCDC 
#
#######################################################################
#
# If this CIF has been generated from an entry in the Cambridge 
# Structural Database, then it will include bibliographic, chemical, 
# crystal, experimental, refinement or atomic coordinate data resulting 
# from the CCDC's data processing and validation procedures.
#
#######################################################################

data_BUPRAH
_symmetry_cell_setting           triclinic
_symmetry_space_group_name_H-M   'P -1'
_symmetry_Int_Tables_number      2
_space_group_name_Hall           '-P 1'
loop_
_symmetry_equiv_pos_site_id
_symmetry_equiv_pos_as_xyz
1 x,y,z
2 -x,-y,-z
_cell_length_a                   15.5721(11)
_cell_length_b                   15.5850(11)
_cell_length_c                   15.7385(11)
_cell_angle_alpha                66.2940(10)
_cell_angle_beta                 86.3180(10)
_cell_angle_gamma                67.2690(10)
_cell_volume                     3206.82
loop_
_atom_site_label
_atom_site_type_symbol
_atom_site_fract_x
_atom_site_fract_y
_atom_site_fract_z
C1 C 0.7167(2) -0.9095(3) 0.4851(2)
C2 C 0.7597(2) -0.9465(3) 0.5842(2)
C3 C 0.8245(3) -0.9129(3) 0.6008(2)
H1 H 0.8393 -0.8645 0.5516
C4 C 0.8677(3) -0.9510(3) 0.6902(2)
H2 H 0.9103 -0.9274 0.7019
C5 C 0.8457(2) -1.0256(3) 0.7624(2)
C6 C 0.7790(3) -1.0571(3) 0.7466(2)
H3 H 0.7631 -1.1047 0.7958
C7 C 0.7361(3) -1.0175(3) 0.6573(2)
H4 H 0.6912 -1.0386 0.6461
C8 C 0.8376(2) -1.0045(3) 0.9330(2)
C9 C 0.7582(3) -1.0169(3) 0.9715(3)
H5 H 0.7383 -1.0632 0.9649
C10 C 0.7090(2) -0.9591(3) 1.0197(3)
H6 H 0.6543 -0.9648 1.0438
C11 C 0.7405(2) -0.8931(3) 1.0323(2)
C12 C 0.8209(3) -0.8810(3) 0.9941(2)
H7 H 0.8421 -0.8368 1.0030
C13 C 0.8687(3) -0.9363(3) 0.9425(3)
H8 H 0.9210 -0.9275 0.9148
C14 C 0.6911(2) -0.8394(3) 1.0944(2)
C15 C 0.5514(3) -1.0258(3) 1.2677(3)
C16 C 0.5063(3) -1.1005(3) 1.2834(3)
C17 C 0.4484(4) -1.0906(4) 1.2131(3)
H9 H 0.4394 -1.0388 1.1538
C18 C 0.4048(4) -1.1562(4) 1.2304(3)
H10 H 0.3692 -1.1517 1.1824
C19 C 0.4138(3) -1.2282(3) 1.3185(3)
C20 C 0.4646(4) -1.2362(4) 1.3905(3)
H11 H 0.4670 -1.2827 1.4511
C21 C 0.5126(4) -1.1731(4) 1.3709(3)
H12 H 0.5503 -1.1803 1.4189
C22 C 0.4231(3) -1.4043(3) 1.3057(3)
C23 C 0.3946(3) -1.4040(3) 1.2241(3)
H13 H 0.3411 -1.3510 1.1864
C24 C 0.4458(3) -1.4825(3) 1.1991(3)
H14 H 0.4261 -1.4834 1.1450
C25 C 0.5265(2) -1.5605(2) 1.2538(2)
C26 C 0.5561(2) -1.5587(3) 1.3350(3)
H15 H 0.6111 -1.6101 1.3712
C27 C 0.5037(3) -1.4807(3) 1.3611(3)
H16 H 0.5225 -1.4796 1.4155
C28 C 0.5788(2) -1.6511(2) 1.2304(2)
C29 C 0.3161(3) -0.7404(3) 1.1281(3)
H17 H 0.3061 -0.7752 1.1890
C30 C 0.2547(3) -0.6999(4) 1.0527(3)
H18 H 0.1954 -0.7008 1.0517
C31 C 0.3813(2) -0.6725(3) 1.0116(2)
H19 H 0.4240 -0.6500 0.9749
C32 C 0.2586(3) -0.6103(3) 0.8829(2)
C33 C 0.2693(3) -0.5237(3) 0.8200(3)
H20 H 0.3040 -0.4960 0.8387
C34 C 0.2280(3) -0.4784(4) 0.7291(3)
H21 H 0.2351 -0.4204 0.6861
C35 C 0.1760(3) -0.5197(3) 0.7026(2)
C36 C 0.1659(3) -0.6055(4) 0.7647(3)
H22 H 0.1310 -0.6328 0.7460
C37 C 0.2077(3) -0.6521(4) 0.8559(3)
H23 H 0.2014 -0.7110 0.8983
C38 C 0.1876(3) -0.5426(3) 0.5339(3)
C39 C 0.2620(3) -0.5280(3) 0.4898(3)
H24 H 0.2778 -0.4756 0.4878
C40 C 0.3142(3) -0.5920(3) 0.4476(3)
H25 H 0.3649 -0.5820 0.4169
C41 C 0.2910(2) -0.6699(3) 0.4512(2)
C42 C 0.2154(3) -0.6844(4) 0.4962(3)
H26 H 0.1995 -0.7370 0.4987
C43 C 0.1635(3) -0.6199(5) 0.5374(3)
H27 H 0.1123 -0.6289 0.5676
C44 C 0.3888(2) -0.7149(3) 0.3311(2)
H28 H 0.3852 -0.6497 0.2931
C45 C 0.4241(3) -0.8760(3) 0.3869(2)
H29 H 0.4503 -0.9435 0.3939
C46 C 0.3683(3) -0.8419(3) 0.4463(2)
H30 H 0.3491 -0.8806 0.5000
C47 C 0.8820(3) -1.0811(3) 0.4014(3)
H31 H 0.8676 -1.0752 0.4576
C48 C 0.9408(3) -1.1669(3) 0.3939(2)
H32 H 0.9744 -1.2293 0.4424
C49 C 0.8836(2) -1.0441(2) 0.2560(2)
H33 H 0.8722 -1.0088 0.1915
C50 C 0.9908(2) -1.2123(2) 0.2577(2)
C51 C 0.9552(3) -1.1961(3) 0.1717(3)
H34 H 0.8994 -1.1410 0.1417
C52 C 1.0026(3) -1.2617(3) 0.1309(2)
H35 H 0.9794 -1.2507 0.0729
C53 C 1.0845(2) -1.3437(3) 0.1763(2)
C54 C 1.1210(3) -1.3595(3) 0.2616(3)
H36 H 1.1768 -1.4146 0.2915
C55 C 1.0735(3) -1.2922(3) 0.3022(3)
H37 H 1.0977 -1.3015 0.3592
C56 C 1.0943(2) -1.5209(3) 0.1622(2)
C57 C 1.1314(3) -1.6056(4) 0.2423(3)
H38 H 1.1836 -1.6157 0.2765
C58 C 1.0919(3) -1.6772(4) 0.2734(3)
H39 H 1.1171 -1.7344 0.3293
C59 C 1.0158(2) -1.6646(3) 0.2226(2)
C60 C 0.9787(3) -1.5793(3) 0.1407(2)
H40 H 0.9276 -1.5701 0.1055
C61 C 1.0175(3) -1.5075(3) 0.1108(2)
H41 H 0.9919 -1.4495 0.0556
C62 C 0.9971(3) -1.8153(4) 0.3449(3)
H42 H 1.0461 -1.8350 0.3885
C63 C 0.9361(3) -1.8586(4) 0.3548(3)
H43 H 0.9363 -1.9146 0.4074
C64 C 0.8979(2) -1.7369(3) 0.2204(2)
H44 H 0.8673 -1.6912 0.1611
N1 N 0.39622(19) -0.7231(2) 1.10264(19)
N2 N 0.2965(2) -0.6570(2) 0.97769(19)
N3 N 0.34571(19) -0.7380(2) 0.41073(19)
N4 N 0.43594(19) -0.7958(2) 0.31482(18)
N5 N 0.84608(19) -1.0033(2) 0.31475(18)
N6 N 0.94111(19) -1.1439(2) 0.30040(18)
N7 N 0.97384(18) -1.7361(2) 0.25828(19)
N8 N 0.87316(18) -1.8093(2) 0.27684(18)
O1 O 0.64272(18) -0.9185(3) 0.47520(17)
O2 O 0.76354(17) -0.8777(2) 0.42191(15)
O3 O 0.60563(17) -0.8200(2) 1.09614(17)
O4 O 0.74230(16) -0.82224(19) 1.13989(15)
O5 O 0.8975(2) -1.1793(2) 0.92188(17)
O6 O 0.99433(17) -1.0766(3) 0.86846(19)
O7 O 0.5055(2) -0.93522(19) 1.21364(18)
O8 O 0.6292(2) -1.0590(2) 1.3131(2)
O9 O 0.53052(16) -1.67011(17) 1.18583(17)
O10 O 0.66445(16) -1.69877(18) 1.25887(18)
O11 O 0.3527(3) -1.3555(2) 1.4429(2)
O12 O 0.2651(2) -1.2525(3) 1.2847(3)
O13 O 0.0301(2) -0.4650(4) 0.5932(3)
O14 O 0.1291(3) -0.3644(3) 0.5405(2)
O15 O 1.1239(2) -1.3762(2) 0.02569(19)
O16 O 1.24126(18) -1.4822(2) 0.1659(2)
O17 O 0.63782(14) -0.89262(16) 0.30280(14)
S1 S 0.90411(6) -1.08161(8) 0.87520(6)
S2 S 0.35218(7) -1.30833(8) 1.34294(9)
S3 S 0.12024(8) -0.46098(11) 0.58743(7)
S4 S 1.14528(6) -1.43042(7) 0.12514(6)
Co1 Co 0.75372(3) -0.84563(3) 0.27948(3)
Co2 Co 0.51899(3) -0.80078(3) 1.19891(3)
N4_2 N 0.43594(19) -0.7958(2) 1.31482(18)
N8_2 N 0.87316(18) -0.8093(2) 0.27684(18)
O4_2 O 0.74230(16) -0.82224(19) 0.13989(15)
O9_2 O 0.53052(16) -0.67011(17) 1.18583(17)
O10_2 O 0.66445(16) -0.69877(18) 0.25887(18)
O17_2 O 0.63782(14) -0.89262(16) 1.30280(14)
Co1_2 Co 0.75372(3) -1.84563(3) 0.27948(3)
Co1_3 Co 0.75372(3) -1.84563(3) 1.27948(3)
Co1_4 Co 0.75372(3) -0.84563(3) 1.27948(3)
Co2_2 Co 0.51899(3) -1.80078(3) 1.19891(3)
Co2_3 Co 0.51899(3) -0.80078(3) 0.19891(3)
O18 O 1.3296(5) -1.4223(5) -0.0421(5)
O19 O 0.4472(6) -0.8995(6) 1.0082(6)
loop_
_geom_bond_atom_site_label_1
_geom_bond_atom_site_label_2
_geom_bond_site_symmetry_1
_geom_bond_site_symmetry_2
C1 C2 1_555 1_555
C2 C3 1_555 1_555
C3 H1 1_555 1_555
C4 C3 1_555 1_555
H2 C4 1_555 1_555
C5 C4 1_555 1_555
C6 C5 1_555 1_555
H3 C6 1_555 1_555
C7 C2 1_555 1_555
H4 C7 1_555 1_555
C8 C9 1_555 1_555
C9 H5 1_555 1_555
C10 C9 1_555 1_555
H6 C10 1_555 1_555
C11 C10 1_555 1_555
C12 C11 1_555 1_555
H7 C12 1_555 1_555
C13 C8 1_555 1_555
H8 C13 1_555 1_555
C14 C11 1_555 1_555
C15 C16 1_555 1_555
C16 C17 1_555 1_555
C17 H9 1_555 1_555
C18 C17 1_555 1_555
H10 C18 1_555 1_555
C19 C18 1_555 1_555
C20 C19 1_555 1_555
H11 C20 1_555 1_555
C21 C16 1_555 1_555
H12 C21 1_555 1_555
C22 C23 1_555 1_555
C23 H13 1_555 1_555
C24 C23 1_555 1_555
H14 C24 1_555 1_555
C25 C24 1_555 1_555
C26 C25 1_555 1_555
H15 C26 1_555 1_555
C27 C22 1_555 1_555
H16 C27 1_555 1_555
C28 C25 1_555 1_555
C29 H17 1_555 1_555
C30 C29 1_555 1_555
H18 C30 1_555 1_555
C31 H19 1_555 1_555
C32 C33 1_555 1_555
C33 H20 1_555 1_555
C34 C33 1_555 1_555
H21 C34 1_555 1_555
C35 C34 1_555 1_555
C36 C35 1_555 1_555
H22 C36 1_555 1_555
C37 C32 1_555 1_555
H23 C37 1_555 1_555
C38 C39 1_555 1_555
C39 H24 1_555 1_555
C40 C39 1_555 1_555
H25 C40 1_555 1_555
C41 C40 1_555 1_555
C42 C41 1_555 1_555
H26 C42 1_555 1_555
C43 C38 1_555 1_555
H27 C43 1_555 1_555
C44 H28 1_555 1_555
C45 H29 1_555 1_555
C46 C45 1_555 1_555
H30 C46 1_555 1_555
C47 H31 1_555 1_555
C48 C47 1_555 1_555
H32 C48 1_555 1_555
C49 H33 1_555 1_555
C50 C51 1_555 1_555
C51 H34 1_555 1_555
C52 C51 1_555 1_555
H35 C52 1_555 1_555
C53 C52 1_555 1_555
C54 C53 1_555 1_555
H36 C54 1_555 1_555
C55 C50 1_555 1_555
H37 C55 1_555 1_555
C56 C57 1_555 1_555
C57 H38 1_555 1_555
C58 C57 1_555 1_555
H39 C58 1_555 1_555
C59 C58 1_555 1_555
C60 C59 1_555 1_555
H40 C60 1_555 1_555
C61 C56 1_555 1_555
H41 C61 1_555 1_555
C62 H42 1_555 1_555
C63 C62 1_555 1_555
H43 C63 1_555 1_555
C64 H44 1_555 1_555
N1 C29 1_555 1_555
N2 C30 1_555 1_555
N3 C41 1_555 1_555
N4 C44 1_555 1_555
N5 C47 1_555 1_555
N6 C48 1_555 1_555
N7 C59 1_555 1_555
N8 C63 1_555 1_555
O1 C1 1_555 1_555
O2 C1 1_555 1_555
O3 C14 1_555 1_555
O4 C14 1_555 1_555
O5 S1 1_555 1_555
O6 S1 1_555 1_555
O7 C15 1_555 1_555
O8 C15 1_555 1_555
O9 C28 1_555 1_555
O10 C28 1_555 1_555
O11 S2 1_555 1_555
O12 S2 1_555 1_555
O13 S3 1_555 1_555
O14 S3 1_555 1_555
O15 S4 1_555 1_555
O16 S4 1_555 1_555
O17 Co1 1_555 1_555
S1 C5 1_555 1_555
S2 C19 1_555 1_555
S3 C35 1_555 1_555
S4 C53 1_555 1_555
Co1 N5 1_555 1_555
Co2 N1 1_555 1_555
N4_2 Co2 1_555 1_555
N8_2 Co1 1_555 1_555
O4_2 Co1 1_555 1_555
O9_2 Co2 1_555 1_555
O10_2 Co1 1_555 1_555
O17_2 Co2 1_555 1_555
Co1_2 N8 1_555 1_555
Co1_3 O10 1_555 1_555
Co1_4 O4 1_555 1_555
Co2_2 O9 1_555 1_555
Co2_3 N4 1_555 1_555
C6 C7 1_555 1_555
C8 S1 1_555 1_555
C12 C13 1_555 1_555
C20 C21 1_555 1_555
C22 S2 1_555 1_555
C26 C27 1_555 1_555
C31 N1 1_555 1_555
C31 N2 1_555 1_555
C32 N2 1_555 1_555
C36 C37 1_555 1_555
C38 S3 1_555 1_555
C42 C43 1_555 1_555
C44 N3 1_555 1_555
C45 N4 1_555 1_555
C46 N3 1_555 1_555
C49 N5 1_555 1_555
C49 N6 1_555 1_555
C50 N6 1_555 1_555
C54 C55 1_555 1_555
C56 S4 1_555 1_555
C60 C61 1_555 1_555
C62 N7 1_555 1_555
C64 N7 1_555 1_555
C64 N8 1_555 1_555
O2 Co1 1_555 1_555
O3 Co2 1_555 1_555
O7 Co2 1_555 1_555
O17 Co2_3 1_555 1_555
O17_2 Co1_4 1_555 1_555

#END
