
#######################################################################
#
#                 Cambridge Crystallographic Data Centre
#                                CCDC 
#
#######################################################################
#
# If this CIF has been generated from an entry in the Cambridge 
# Structural Database, then it will include bibliographic, chemical, 
# crystal, experimental, refinement or atomic coordinate data resulting 
# from the CCDC's data processing and validation procedures.
#
#######################################################################

data_BUQCEV
_symmetry_cell_setting           monoclinic
_symmetry_space_group_name_H-M   'C 2/c'
_symmetry_Int_Tables_number      15
_space_group_name_Hall           '-C 2yn'
loop_
_symmetry_equiv_pos_site_id
_symmetry_equiv_pos_as_xyz
1 x,y,z
2 1/2+x,1/2+y,z
3 x,-y,1/2+z
4 1/2+x,1/2-y,1/2+z
5 -x,-y,-z
6 1/2-x,1/2-y,-z
7 -x,y,1/2-z
8 1/2-x,1/2+y,1/2-z
_cell_length_a                   22.331(3)
_cell_length_b                   7.9655(10)
_cell_length_c                   13.2329(16)
_cell_angle_alpha                90
_cell_angle_beta                 107.877(2)
_cell_angle_gamma                90
_cell_volume                     2240.19
loop_
_atom_site_label
_atom_site_type_symbol
_atom_site_fract_x
_atom_site_fract_y
_atom_site_fract_z
Ca1 Ca 0.5000 0.13634(7) 0.7500
Na1 Na 0.5000 0.5000 0.5000
P1 P 0.58714(2) 0.17130(7) 0.59306(4)
O1 O 0.57993(8) 0.6442(2) 0.63920(16)
O2 O 0.67432(8) 0.7671(2) 0.68887(18)
H1 H 0.6543 0.8487 0.6587
O3 O 0.60159(7) 0.0605(2) 0.87648(13)
O4 O 0.70027(7) 0.0298(2) 0.97835(13)
H2 H 0.6837 -0.0178 1.0178
O5 O 0.55247(7) 0.3998(2) 0.85437(12)
O6 O 0.63600(8) 0.5713(2) 0.89903(14)
H3 H 0.6169 0.6171 0.9354
O7 O 0.58595(6) 0.27298(17) 0.69855(10)
O8 O 0.52952(7) 0.06103(19) 0.58597(11)
H4 H 0.5000 0.0000 0.5000
O9 O 0.64812(7) 0.07804(18) 0.61588(11)
O10 O 0.57416(7) 0.2951(2) 0.50379(11)
O11 O 0.5000 -0.1635(3) 0.7500
H5 H 0.5016 -0.2359 0.6995
C1 C 0.63617(11) 0.6377(3) 0.67949(18)
C2 C 0.67222(10) 0.4817(3) 0.72727(17)
H6 H 0.7103 0.5155 0.7819
H7 H 0.6847 0.4239 0.6725
C3 C 0.63635(10) 0.3577(2) 0.77611(16)
C4 C 0.68364(10) 0.2308(3) 0.84384(16)
H8 H 0.7041 0.1741 0.7984
H9 H 0.7158 0.2922 0.8970
C5 C 0.65666(10) 0.0997(3) 0.89933(17)
C6 C 0.60285(10) 0.4474(3) 0.84719(16)
O8D O 0.47048(7) -0.06103(19) 0.41403(11)
P1D P 0.41286(2) -0.17130(7) 0.40694(4)
O7D O 0.41405(6) -0.27298(17) 0.30145(10)
C3D C 0.36365(10) -0.3577(2) 0.22389(16)
C2D C 0.32778(10) -0.4817(3) 0.27273(17)
C1D C 0.36383(11) -0.6377(3) 0.32051(18)
O1D O 0.42007(8) -0.6442(2) 0.36080(16)
O2D O 0.32568(8) -0.7671(2) 0.31113(18)
H1D H 0.3457 -0.8487 0.3413
H6D H 0.2897 -0.5155 0.2181
H7D H 0.3153 -0.4239 0.3275
C4D C 0.31636(10) -0.2308(3) 0.15616(16)
H8D H 0.2959 -0.1741 0.2016
H9D H 0.2842 -0.2922 0.1030
C5D C 0.34334(10) -0.0997(3) 0.10067(17)
O3D O 0.39841(7) -0.0605(2) 0.12352(13)
O4D O 0.29973(7) -0.0298(2) 0.02165(13)
H2D H 0.3163 0.0178 -0.0178
C6D C 0.39715(10) -0.4474(3) 0.15281(16)
O5D O 0.44753(7) -0.3998(2) 0.14563(12)
O6D O 0.36400(8) -0.5713(2) 0.10097(14)
H3D H 0.3831 -0.6171 0.0646
O9D O 0.35188(7) -0.07804(18) 0.38412(11)
O10D O 0.42584(7) -0.2951(2) 0.49621(11)
H5F H 0.4984 -0.2359 0.8005
O3F O 0.39841(7) 0.0605(2) 0.62352(13)
O5F O 0.44753(7) 0.3998(2) 0.64563(12)
O7F O 0.41405(6) 0.27298(17) 0.80145(10)
O8F O 0.47048(7) 0.06103(19) 0.91403(11)
O1D_2 O 0.42007(8) 0.3558(2) 0.36080(16)
O5B O 0.55247(7) 0.6002(2) 0.35437(12)
O10D_2 O 0.42584(7) 0.7049(2) 0.49621(11)
Na1B Na 0.5000 0.5000 1.0000
Ca1B Ca 0.5000 -0.13634(7) 0.2500
Na1_2 Na 0.5000 -0.5000 0.5000
Na1B_2 Na 0.5000 -0.5000 0.0000
H4B H 0.5000 0.0000 1.0000
loop_
_geom_bond_atom_site_label_1
_geom_bond_atom_site_label_2
_geom_bond_site_symmetry_1
_geom_bond_site_symmetry_2
Ca1 O3 1_555 1_555
Na1 O1 1_555 1_555
P1 O7 1_555 1_555
O1 C1 1_555 1_555
O2 H1 1_555 1_555
O3 C5 1_555 1_555
O4 H2 1_555 1_555
O5 Ca1 1_555 1_555
O6 H3 1_555 1_555
O7 Ca1 1_555 1_555
O8 Ca1 1_555 1_555
H4 O8 1_555 1_555
O9 P1 1_555 1_555
O10 Na1 1_555 1_555
O11 Ca1 1_555 1_555
H5 O11 1_555 1_555
C1 O2 1_555 1_555
C2 C1 1_555 1_555
H6 C2 1_555 1_555
H7 C2 1_555 1_555
C3 O7 1_555 1_555
C4 C3 1_555 1_555
H8 C4 1_555 1_555
H9 C4 1_555 1_555
C5 O4 1_555 1_555
C6 O5 1_555 1_555
O8D H4 1_555 1_555
P1D O8D 1_555 1_555
O7D P1D 1_555 1_555
C3D O7D 1_555 1_555
C2D C3D 1_555 1_555
C1D C2D 1_555 1_555
O1D C1D 1_555 1_555
O2D C1D 1_555 1_555
H1D O2D 1_555 1_555
H6D C2D 1_555 1_555
H7D C2D 1_555 1_555
C4D C3D 1_555 1_555
H8D C4D 1_555 1_555
H9D C4D 1_555 1_555
C5D C4D 1_555 1_555
O3D C5D 1_555 1_555
O4D C5D 1_555 1_555
H2D O4D 1_555 1_555
C6D C3D 1_555 1_555
O5D C6D 1_555 1_555
O6D C6D 1_555 1_555
H3D O6D 1_555 1_555
O9D P1D 1_555 1_555
O10D P1D 1_555 1_555
H5F O11 1_555 1_555
O3F Ca1 1_555 1_555
O5F Ca1 1_555 1_555
O7F Ca1 1_555 1_555
O8F Ca1 1_555 1_555
O1D_2 Na1 1_555 1_555
O5B Na1 1_555 1_555
O10D_2 Na1 1_555 1_555
Na1B O5 1_555 1_555
Ca1B O8D 1_555 1_555
Na1_2 O1D 1_555 1_555
Na1B_2 O5D 1_555 1_555
H4B O8F 1_555 1_555
Na1 O5F 1_555 1_555
P1 O8 1_555 1_555
P1 O10 1_555 1_555
O6 C6 1_555 1_555
C2 C3 1_555 1_555
C3 C6 1_555 1_555
C4 C5 1_555 1_555
O7D Ca1B 1_555 1_555
O3D Ca1B 1_555 1_555
O5D Ca1B 1_555 1_555
O10D Na1_2 1_555 1_555

#END
