
#######################################################################
#
#                 Cambridge Crystallographic Data Centre
#                                CCDC 
#
#######################################################################
#
# If this CIF has been generated from an entry in the Cambridge 
# Structural Database, then it will include bibliographic, chemical, 
# crystal, experimental, refinement or atomic coordinate data resulting 
# from the CCDC's data processing and validation procedures.
#
#######################################################################

data_BUQKOP
_symmetry_cell_setting           rhombohedral
_symmetry_space_group_name_H-M   'R -3 c'
_symmetry_Int_Tables_number      167
_space_group_name_Hall           '-R 3 2"c'
loop_
_symmetry_equiv_pos_site_id
_symmetry_equiv_pos_as_xyz
1 x,y,z
2 -y,x-y,z
3 -x+y,-x,z
4 y,x,1/2-z
5 -x,-x+y,1/2-z
6 x-y,-y,1/2-z
7 2/3+x,1/3+y,1/3+z
8 2/3-y,1/3+x-y,1/3+z
9 2/3-x+y,1/3-x,1/3+z
10 2/3+y,1/3+x,5/6-z
11 2/3-x,1/3-x+y,5/6-z
12 2/3+x-y,1/3-y,5/6-z
13 1/3+x,2/3+y,2/3+z
14 1/3-y,2/3+x-y,2/3+z
15 1/3-x+y,2/3-x,2/3+z
16 1/3+y,2/3+x,1/6-z
17 1/3-x,2/3-x+y,1/6-z
18 1/3+x-y,2/3-y,1/6-z
19 -x,-y,-z
20 y,-x+y,-z
21 x-y,x,-z
22 -y,-x,1/2+z
23 x,x-y,1/2+z
24 -x+y,y,1/2+z
25 1/3-x,2/3-y,2/3-z
26 1/3+y,2/3-x+y,2/3-z
27 1/3+x-y,2/3+x,2/3-z
28 1/3-y,2/3-x,1/6+z
29 1/3+x,2/3+x-y,1/6+z
30 1/3-x+y,2/3+y,1/6+z
31 2/3-x,1/3-y,1/3-z
32 2/3+y,1/3-x+y,1/3-z
33 2/3+x-y,1/3+x,1/3-z
34 2/3-y,1/3-x,5/6+z
35 2/3+x,1/3+x-y,5/6+z
36 2/3-x+y,1/3+y,5/6+z
_cell_length_a                   19.030(3)
_cell_length_b                   19.030(3)
_cell_length_c                   41.674(4)
_cell_angle_alpha                90
_cell_angle_beta                 90
_cell_angle_gamma                120
_cell_volume                     13069.9
loop_
_atom_site_label
_atom_site_type_symbol
_atom_site_fract_x
_atom_site_fract_y
_atom_site_fract_z
Cu1 Cu 0.13382(3) 0.3333 0.0833
O1 O 0.07411(16) 0.21691(15) 0.09074(6)
O2 O 0.18227(16) 0.20076(16) 0.08472(7)
N1 N 0.13347(19) 0.31264(19) 0.03556(8)
N2 N 0.0142(2) 0.3333 0.0833
C1 C -0.0528(2) 0.2737(3) 0.09679(11)
H1 H -0.0496 0.2303 0.1066
C2 C -0.1263(3) 0.2713(4) 0.09731(13)
H2 H -0.1722 0.2273 0.1072
C3 C -0.1324(4) 0.3333 0.0833
H3 H -0.1823 0.3333 0.0833
C4 C 0.1977(3) 0.3570(3) 0.01701(11)
H4 H 0.2465 0.3975 0.0267
C5 C 0.1957(3) 0.3461(3) -0.01584(12)
H5 H 0.2427 0.3785 -0.0284
C6 C 0.1255(3) 0.2882(3) -0.03028(11)
H6 H 0.1228 0.2806 -0.0529
C7 C 0.0590(3) 0.2414(3) -0.01109(11)
H7 H 0.0097 0.2006 -0.0203
C8 C 0.0654(3) 0.2547(3) 0.02159(11)
H8 H 0.0199 0.2217 0.0347
C9 C 0.1086(2) 0.1739(2) 0.08763(9)
C10 C 0.0517(2) 0.0840(2) 0.08721(9)
C11 C 0.0833(2) 0.0310(2) 0.08704(9)
H9 H 0.1403 0.0526 0.0868
O1A O -0.21691(15) -0.14280(22) 0.09074(6)
O2A O -0.20076(16) -0.01849(23) 0.08472(7)
C9A C -0.1739(2) -0.0653(3) 0.08763(9)
C10A C -0.0840(2) -0.0323(3) 0.08721(9)
C11A C -0.0310(2) 0.0523(3) 0.08704(9)
H9A H -0.0526 0.0877 0.0868
O1B O 0.14280(22) -0.07411(16) 0.09074(6)
O2B O 0.01849(23) -0.18227(16) 0.08472(7)
C9B C 0.0653(3) -0.1086(2) 0.08763(9)
C10B C 0.0323(3) -0.0517(2) 0.08721(9)
C11B C -0.0523(3) -0.0833(2) 0.08704(9)
H9B H -0.0877 -0.1403 0.0868
C1Q C 0.0068(4) 0.3930(3) 0.06988(11)
H1Q H 0.0534 0.4364 0.0601
C2Q C -0.0643(5) 0.3954(4) 0.06936(13)
H2Q H -0.0662 0.4394 0.0595
N1Q N 0.15416(27) 0.35403(19) 0.13111(8)
C4Q C 0.1740(4) 0.3097(3) 0.14966(11)
H4Q H 0.1823 0.2692 0.1400
C5Q C 0.1829(4) 0.3206(3) 0.18251(12)
H5Q H 0.1975 0.2882 0.1951
C6Q C 0.1706(4) 0.3785(3) 0.19695(11)
H6Q H 0.1755 0.3861 0.2196
C7Q C 0.1509(4) 0.4253(3) 0.17776(11)
H7Q H 0.1424 0.4661 0.1870
C8Q C 0.1440(4) 0.4120(3) 0.14508(11)
H8Q H 0.1315 0.4450 0.1320
Cu1A Cu 0.6667 0.80052(3) 0.0833
O1O O 0.55024(15) 0.74078(16) 0.07593(6)
O2O O 0.53409(16) 0.84894(16) 0.08195(7)
N1O N 0.64597(19) 0.80014(19) 0.13111(8)
N2A N 0.6667 0.6809(2) 0.0833
C1O C 0.6070(3) 0.6139(2) 0.06988(11)
H1O H 0.5636 0.6171 0.0601
C2O C 0.6046(4) 0.5404(3) 0.06936(13)
H2O H 0.5606 0.4945 0.0595
C3A C 0.6667 0.5343(4) 0.0833
H3A H 0.6667 0.4844 0.0833
C4O C 0.6903(3) 0.8644(3) 0.14966(11)
H4O H 0.7308 0.9132 0.1400
C5O C 0.6794(3) 0.8624(3) 0.18251(12)
H5O H 0.7118 0.9094 0.1951
C6O C 0.6215(3) 0.7922(3) 0.19695(11)
H6O H 0.6139 0.7895 0.2196
C7O C 0.5747(3) 0.7257(3) 0.17776(11)
H7O H 0.5339 0.6764 0.1870
C8O C 0.5880(3) 0.7321(3) 0.14508(11)
H8O H 0.5550 0.6866 0.1320
C9O C 0.5072(2) 0.7753(2) 0.07904(9)
C10O C 0.4173(2) 0.7184(2) 0.07946(9)
C11O C 0.3643(2) 0.7500(2) 0.07963(9)
H9O H 0.3859 0.8070 0.0799
O1Q O 0.19053(22) 0.44976(15) 0.07593(6)
O2Q O 0.31484(23) 0.46591(16) 0.08195(7)
C9Q C 0.2680(3) 0.4928(2) 0.07904(9)
C10Q C 0.3010(3) 0.5827(2) 0.07946(9)
C11Q C 0.3856(3) 0.6357(2) 0.07963(9)
H9Q H 0.4210 0.6141 0.0799
O1P O 0.25922(16) 0.80947(22) 0.07593(6)
O2P O 0.15106(16) 0.68516(23) 0.08195(7)
C9P C 0.2247(2) 0.7320(3) 0.07904(9)
C10P C 0.2816(2) 0.6990(3) 0.07946(9)
C11P C 0.2500(2) 0.6144(3) 0.07963(9)
H9P H 0.1930 0.5790 0.0799
C1A C 0.7263(3) 0.6735(4) 0.09679(11)
H1A H 0.7697 0.7201 0.1066
C2A C 0.7287(4) 0.6024(5) 0.09731(13)
H2A H 0.7727 0.6005 0.1072
N1A N 0.68736(19) 0.82083(27) 0.03556(8)
C4A C 0.6430(3) 0.8407(4) 0.01701(11)
H4A H 0.6025 0.8490 0.0267
C5A C 0.6539(3) 0.8496(4) -0.01584(12)
H5A H 0.6215 0.8642 -0.0284
C6A C 0.7118(3) 0.8373(4) -0.03028(11)
H6A H 0.7194 0.8422 -0.0529
C7A C 0.7586(3) 0.8176(4) -0.01109(11)
H7A H 0.7994 0.8091 -0.0203
C8A C 0.7453(3) 0.8107(4) 0.02159(11)
H8A H 0.7783 0.7982 0.0347
Cu1A_2 Cu -0.3333 -0.19948(3) 0.0833
N2A_2 N -0.3333 -0.3191(2) 0.0833
C1A_2 C -0.2737(3) -0.3265(4) 0.09679(11)
H1A_2 H -0.2303 -0.2799 0.1066
C2A_2 C -0.2713(4) -0.3976(5) 0.09731(13)
H2A_2 H -0.2273 -0.3995 0.1072
C3A_2 C -0.3333 -0.4657(4) 0.0833
H3A_2 H -0.3333 -0.5156 0.0833
C1O_2 C -0.3930(3) -0.3861(2) 0.06988(11)
H1O_2 H -0.4364 -0.3829 0.0601
C2O_2 C -0.3954(4) -0.4596(3) 0.06936(13)
H2O_2 H -0.4394 -0.5055 0.0595
N1A_2 N -0.31264(19) -0.17917(27) 0.03556(8)
C4A_2 C -0.3570(3) -0.1593(4) 0.01701(11)
H4A_2 H -0.3975 -0.1510 0.0267
C5A_2 C -0.3461(3) -0.1504(4) -0.01584(12)
H5A_2 H -0.3785 -0.1358 -0.0284
C6A_2 C -0.2882(3) -0.1627(4) -0.03028(11)
H6A_2 H -0.2806 -0.1578 -0.0529
C7A_2 C -0.2414(3) -0.1824(4) -0.01109(11)
H7A_2 H -0.2006 -0.1909 -0.0203
C8A_2 C -0.2547(3) -0.1893(4) 0.02159(11)
H8A_2 H -0.2217 -0.2018 0.0347
N1O_2 N -0.35403(19) -0.19986(19) 0.13111(8)
C4O_2 C -0.3097(3) -0.1356(3) 0.14966(11)
H4O_2 H -0.2692 -0.0868 0.1400
C5O_2 C -0.3206(3) -0.1376(3) 0.18251(12)
H5O_2 H -0.2882 -0.0906 0.1951
C6O_2 C -0.3785(3) -0.2078(3) 0.19695(11)
H6O_2 H -0.3861 -0.2105 0.2196
C7O_2 C -0.4253(3) -0.2743(3) 0.17776(11)
H7O_2 H -0.4661 -0.3236 0.1870
C8O_2 C -0.4120(3) -0.2679(3) 0.14508(11)
H8O_2 H -0.4450 -0.3134 0.1320
Cu1B Cu 0.19948(3) -0.13382(3) 0.0833
Cu1B_2 Cu 0.19948(3) 0.86618(3) 0.0833
O1A_2 O 0.78309(15) 0.85720(22) 0.09074(6)
O1O_2 O -0.44976(15) -0.25922(16) 0.07593(6)
O3 O 0.3376(2) 0.3333 0.0833
H10 H 0.2895 0.2921 0.0838
H10Q H 0.3307 0.3746 0.0829
O4 O 0.4833(7) 0.3333 0.0833
loop_
_geom_bond_atom_site_label_1
_geom_bond_atom_site_label_2
_geom_bond_site_symmetry_1
_geom_bond_site_symmetry_2
Cu1 O1 1_555 1_555
O1 C9 1_555 1_555
O2 C9 1_555 1_555
N1 Cu1 1_555 1_555
N2 Cu1 1_555 1_555
C1 N2 1_555 1_555
H1 C1 1_555 1_555
C2 C1 1_555 1_555
H2 C2 1_555 1_555
C3 C2 1_555 1_555
H3 C3 1_555 1_555
C4 N1 1_555 1_555
H4 C4 1_555 1_555
C5 C4 1_555 1_555
H5 C5 1_555 1_555
C6 C5 1_555 1_555
H6 C6 1_555 1_555
C7 C6 1_555 1_555
H7 C7 1_555 1_555
C8 N1 1_555 1_555
H8 C8 1_555 1_555
C9 C10 1_555 1_555
C10 C11 1_555 1_555
C11 H9 1_555 1_555
O3 H10 1_555 1_555
O1A C9A 1_555 1_555
O2A C9A 1_555 1_555
C9A C10A 1_555 1_555
C10A C11A 1_555 1_555
C11A C10 1_555 1_555
H9A C11A 1_555 1_555
O1B C9B 1_555 1_555
O2B C9B 1_555 1_555
C9B C10B 1_555 1_555
C10B C11 1_555 1_555
C11B C10A 1_555 1_555
H9B C11B 1_555 1_555
C1Q N2 1_555 1_555
H1Q C1Q 1_555 1_555
C2Q C3 1_555 1_555
H2Q C2Q 1_555 1_555
N1Q Cu1 1_555 1_555
C4Q N1Q 1_555 1_555
H4Q C4Q 1_555 1_555
C5Q C4Q 1_555 1_555
H5Q C5Q 1_555 1_555
C6Q C5Q 1_555 1_555
H6Q C6Q 1_555 1_555
C7Q C6Q 1_555 1_555
H7Q C7Q 1_555 1_555
C8Q N1Q 1_555 1_555
H8Q C8Q 1_555 1_555
Cu1A O1O 1_555 1_555
O1O C9O 1_555 1_555
O2O C9O 1_555 1_555
N1O Cu1A 1_555 1_555
N2A Cu1A 1_555 1_555
C1O N2A 1_555 1_555
H1O C1O 1_555 1_555
C2O C1O 1_555 1_555
H2O C2O 1_555 1_555
C3A C2O 1_555 1_555
H3A C3A 1_555 1_555
C4O N1O 1_555 1_555
H4O C4O 1_555 1_555
C5O C4O 1_555 1_555
H5O C5O 1_555 1_555
C6O C5O 1_555 1_555
H6O C6O 1_555 1_555
C7O C6O 1_555 1_555
H7O C7O 1_555 1_555
C8O N1O 1_555 1_555
H8O C8O 1_555 1_555
C9O C10O 1_555 1_555
C10O C11O 1_555 1_555
C11O H9O 1_555 1_555
O1Q Cu1 1_555 1_555
O2Q C9Q 1_555 1_555
C9Q O1Q 1_555 1_555
C10Q C9Q 1_555 1_555
C11Q C10O 1_555 1_555
H9Q C11Q 1_555 1_555
O1P C9P 1_555 1_555
O2P C9P 1_555 1_555
C9P C10P 1_555 1_555
C10P C11O 1_555 1_555
C11P C10Q 1_555 1_555
H9P C11P 1_555 1_555
C1A N2A 1_555 1_555
H1A C1A 1_555 1_555
C2A C3A 1_555 1_555
H2A C2A 1_555 1_555
N1A Cu1A 1_555 1_555
C4A N1A 1_555 1_555
H4A C4A 1_555 1_555
C5A C4A 1_555 1_555
H5A C5A 1_555 1_555
C6A C5A 1_555 1_555
H6A C6A 1_555 1_555
C7A C6A 1_555 1_555
H7A C7A 1_555 1_555
C8A N1A 1_555 1_555
H8A C8A 1_555 1_555
Cu1A_2 O1A 1_555 1_555
N2A_2 Cu1A_2 1_555 1_555
C1A_2 N2A_2 1_555 1_555
H1A_2 C1A_2 1_555 1_555
C2A_2 C1A_2 1_555 1_555
H2A_2 C2A_2 1_555 1_555
C3A_2 C2A_2 1_555 1_555
H3A_2 C3A_2 1_555 1_555
C1O_2 N2A_2 1_555 1_555
H1O_2 C1O_2 1_555 1_555
C2O_2 C3A_2 1_555 1_555
H2O_2 C2O_2 1_555 1_555
N1A_2 Cu1A_2 1_555 1_555
C4A_2 N1A_2 1_555 1_555
H4A_2 C4A_2 1_555 1_555
C5A_2 C4A_2 1_555 1_555
H5A_2 C5A_2 1_555 1_555
C6A_2 C5A_2 1_555 1_555
H6A_2 C6A_2 1_555 1_555
C7A_2 C6A_2 1_555 1_555
H7A_2 C7A_2 1_555 1_555
C8A_2 N1A_2 1_555 1_555
H8A_2 C8A_2 1_555 1_555
N1O_2 Cu1A_2 1_555 1_555
C4O_2 N1O_2 1_555 1_555
H4O_2 C4O_2 1_555 1_555
C5O_2 C4O_2 1_555 1_555
H5O_2 C5O_2 1_555 1_555
C6O_2 C5O_2 1_555 1_555
H6O_2 C6O_2 1_555 1_555
C7O_2 C6O_2 1_555 1_555
H7O_2 C7O_2 1_555 1_555
C8O_2 N1O_2 1_555 1_555
H8O_2 C8O_2 1_555 1_555
Cu1B O1B 1_555 1_555
Cu1B_2 O1P 1_555 1_555
O1A_2 Cu1A 1_555 1_555
O1O_2 Cu1A_2 1_555 1_555
H10Q O3 1_555 1_555
C7 C8 1_555 1_555
C10B C11B 1_555 1_555
C1Q C2Q 1_555 1_555
C7Q C8Q 1_555 1_555
C7O C8O 1_555 1_555
C10Q C11Q 1_555 1_555
C10P C11P 1_555 1_555
C1A C2A 1_555 1_555
C7A C8A 1_555 1_555
C1O_2 C2O_2 1_555 1_555
C7A_2 C8A_2 1_555 1_555
C7O_2 C8O_2 1_555 1_555

#END
