
#######################################################################
#
#                 Cambridge Crystallographic Data Centre
#                                CCDC 
#
#######################################################################
#
# If this CIF has been generated from an entry in the Cambridge 
# Structural Database, then it will include bibliographic, chemical, 
# crystal, experimental, refinement or atomic coordinate data resulting 
# from the CCDC's data processing and validation procedures.
#
#######################################################################

data_BUQKII
_symmetry_cell_setting           triclinic
_symmetry_space_group_name_H-M   'P -1'
_symmetry_Int_Tables_number      2
_space_group_name_Hall           '-P 1'
loop_
_symmetry_equiv_pos_site_id
_symmetry_equiv_pos_as_xyz
1 x,y,z
2 -x,-y,-z
_cell_length_a                   8.5328(2)
_cell_length_b                   9.4030(2)
_cell_length_c                   10.2376(2)
_cell_angle_alpha                73.8760(10)
_cell_angle_beta                 71.1330(10)
_cell_angle_gamma                64.3100(10)
_cell_volume                     691.269
loop_
_atom_site_label
_atom_site_type_symbol
_atom_site_fract_x
_atom_site_fract_y
_atom_site_fract_z
Cu1 Cu 0.66626(5) 0.03474(4) 0.85596(4)
Cu2 Cu 1.03080(5) -0.04607(5) 0.67409(4)
O1 O 0.9094(3) 0.2169(3) 0.9604(2)
N1 N 0.5740(3) 0.2700(3) 0.8414(2)
O2 O 0.8897(2) 0.0548(2) 0.8366(2)
C1 C 0.3450(4) 0.5297(4) 0.8402(4)
C2 C 1.2654(4) 0.1373(5) 0.5278(4)
N2 N 1.1242(3) 0.1250(3) 0.6305(2)
C3 C 0.6443(4) 0.4931(3) 0.8225(3)
C4 C 1.0332(3) 0.2371(3) 0.7118(3)
C5 C 1.0796(5) 0.3680(4) 0.6907(4)
C6 C 1.3182(5) 0.2617(5) 0.5035(4)
C7 C 0.6947(4) 0.3311(3) 0.8284(3)
C8 C 0.8840(3) 0.2063(3) 0.8338(3)
C9 C 0.4679(4) 0.5931(4) 0.8280(3)
C10 C 0.4025(4) 0.3681(4) 0.8469(3)
C11 C 1.2225(5) 0.3804(5) 0.5836(4)
Cl1 Cl 0.41602(9) 0.00765(8) 0.86006(8)
Cl2 Cl 1.21434(10) -0.18425(9) 0.50344(8)
Cl3 Cl 0.86676(9) -0.20840(8) 0.78238(9)
H1 H 0.329(4) 0.319(4) 0.855(3)
H2 H 0.233(5) 0.588(4) 0.843(4)
H3 H 0.433(5) 0.693(4) 0.830(4)
H4 H 0.721(4) 0.532(4) 0.812(3)
H5 H 1.020(4) 0.432(4) 0.755(4)
H6 H 1.249(5) 0.466(5) 0.574(4)
H7 H 1.411(5) 0.255(5) 0.435(4)
H8 H 1.324(4) 0.065(4) 0.481(4)
H9 H 0.996(5) 0.159(4) 0.971(4)
Cu1A Cu 0.33374(5) -0.03474(4) 1.14404(4)
Cu2A Cu 0.96920(5) 0.04607(5) 0.32591(4)
Cl1A Cl 0.58398(9) -0.00765(8) 1.13994(8)
Cl2A Cl 0.78566(10) 0.18425(9) 0.49656(8)
loop_
_geom_bond_atom_site_label_1
_geom_bond_atom_site_label_2
_geom_bond_site_symmetry_1
_geom_bond_site_symmetry_2
Cu1 N1 1_555 1_555
Cu2 O2 1_555 1_555
O1 C8 1_555 1_555
N1 C7 1_555 1_555
O2 Cu1 1_555 1_555
C1 C9 1_555 1_555
C2 N2 1_555 1_555
N2 Cu2 1_555 1_555
C3 C7 1_555 1_555
C4 N2 1_555 1_555
C5 C4 1_555 1_555
C6 C2 1_555 1_555
C7 C8 1_555 1_555
C8 O2 1_555 1_555
C9 C3 1_555 1_555
C10 N1 1_555 1_555
C11 C5 1_555 1_555
Cl1 Cu1 1_555 1_555
Cl2 Cu2 1_555 1_555
Cl3 Cu1 1_555 1_555
H1 C10 1_555 1_555
H2 C1 1_555 1_555
H3 C9 1_555 1_555
H4 C3 1_555 1_555
H5 C5 1_555 1_555
H6 C11 1_555 1_555
H7 C6 1_555 1_555
H8 C2 1_555 1_555
H9 O1 1_555 1_555
Cu1A Cl1 1_555 1_555
Cu2A Cl2 1_555 1_555
Cl1A Cu1 1_555 1_555
Cl2A Cu2 1_555 1_555
Cu2 Cl3 1_555 1_555
C1 C10 1_555 1_555
C4 C8 1_555 1_555
C6 C11 1_555 1_555
Cu1A Cl1A 1_555 1_555
Cu2A Cl2A 1_555 1_555

#END
