
#######################################################################
#
#                 Cambridge Crystallographic Data Centre
#                                CCDC 
#
#######################################################################
#
# If this CIF has been generated from an entry in the Cambridge 
# Structural Database, then it will include bibliographic, chemical, 
# crystal, experimental, refinement or atomic coordinate data resulting 
# from the CCDC's data processing and validation procedures.
#
#######################################################################

data_BUQPAF
_symmetry_cell_setting           monoclinic
_symmetry_space_group_name_H-M   'P 2/c'
_symmetry_Int_Tables_number      13
_space_group_name_Hall           '-P 2yc'
loop_
_symmetry_equiv_pos_site_id
_symmetry_equiv_pos_as_xyz
1 x,y,z
2 -x,y,1/2-z
3 -x,-y,-z
4 x,-y,1/2+z
_cell_length_a                   12.3342(3)
_cell_length_b                   11.3752(3)
_cell_length_c                   19.0229(6)
_cell_angle_alpha                90
_cell_angle_beta                 103.810(2)
_cell_angle_gamma                90
_cell_volume                     2591.84
loop_
_atom_site_label
_atom_site_type_symbol
_atom_site_fract_x
_atom_site_fract_y
_atom_site_fract_z
C1 C -0.0206(5) 0.8051(5) 0.4057(4)
H1 H -0.0750 0.7673 0.3707
C2 C -0.0010(5) 0.7647(6) 0.4773(4)
H2 H -0.0406 0.7007 0.4888
C3 C 0.0751(5) 0.8192(5) 0.5290(4)
H3 H 0.0883 0.7933 0.5767
C4 C 0.1348(4) 0.9149(4) 0.5115(3)
C5 C 0.2148(6) 0.9762(5) 0.5638(4)
H4 H 0.2289 0.9539 0.6122
C6 C 0.2708(7) 1.0667(6) 0.5440(4)
H5 H 0.3242 1.1061 0.5788
C7 C 0.2497(5) 1.1026(5) 0.4709(4)
H6 H 0.2894 1.1652 0.4580
C8 C 0.1717(4) 1.0465(4) 0.4192(3)
C9 C 0.1124(4) 0.9496(4) 0.4385(3)
C10 C 0.1680(4) 1.1932(4) 0.3285(3)
H7 H 0.2480 1.2068 0.3414
H8 H 0.1332 1.2486 0.3550
C11 C 0.1233(4) 1.2111(4) 0.2482(3)
C12 C -0.7020(4) 0.5818(4) 0.1073(3)
H9 H -0.7341 0.5736 0.1466
C13 C -0.7606(4) 0.5392(4) 0.0403(3)
H10 H -0.8292 0.5022 0.0357
C14 C -0.7169(5) 0.5523(4) -0.0180(3)
H11 H -0.7553 0.5239 -0.0630
C15 C -0.6130(4) 0.6088(4) -0.0107(3)
C16 C -0.5656(5) 0.6303(5) -0.0696(3)
H12 H -0.6016 0.6045 -0.1156
C17 C -0.4671(5) 0.6887(5) -0.0594(3)
H13 H -0.4378 0.7063 -0.0989
C18 C -0.4088(5) 0.7229(4) 0.0109(3)
H14 H -0.3405 0.7612 0.0174
C19 C -0.4518(4) 0.7002(3) 0.0692(3)
C20 C -0.5578(4) 0.6457(3) 0.0597(3)
C21 C -0.3017(4) 0.7963(4) 0.1520(3)
H15 H -0.3196 0.8715 0.1280
H16 H -0.2451 0.7584 0.1322
C22 C -0.2586(4) 0.8146(3) 0.2317(3)
C23 C -0.5000 1.4637(5) 0.2500
C24 C -0.5000 1.3348(4) 0.2500
C25 C -0.4001(4) 1.2726(3) 0.2572(3)
H17 H -0.3333 1.3130 0.2619
C26 C -0.4007(4) 1.1511(3) 0.2575(3)
H18 H -0.3342 1.1098 0.2628
C27 C -0.5000 1.0910(5) 0.2500
C28 C -0.5000 0.9581(5) 0.2500
N1 N 0.0346(3) 0.8948(3) 0.3848(2)
N2 N -0.6027(3) 0.6334(3) 0.1180(2)
O1 O 0.1444(3) 1.0743(3) 0.34710(19)
O2 O 0.0863(3) 1.1231(3) 0.2099(2)
O3 O 0.1294(3) 1.3129(3) 0.2256(2)
O4 O -0.3997(3) 0.7243(2) 0.13962(19)
O5 O -0.3072(2) 0.7678(3) 0.2747(2)
O6 O -0.1734(3) 0.8778(3) 0.2494(2)
O7 O -0.4174(2) 1.5188(2) 0.23630(19)
O8 O -0.5066(3) 0.9060(2) 0.1910(2)
O9 O 0.0000 0.7156(4) 0.2500
H19 H 0.0606 0.6799 0.2504
Sm1 Sm 0.0000 0.95671(3) 0.2500
Sm2 Sm -0.5000 0.71084(2) 0.2500
C1A C 0.0206(5) 0.8051(5) 0.0943(4)
H1A H 0.0750 0.7673 0.1293
C2A C 0.0010(5) 0.7647(6) 0.0227(4)
H2A H 0.0406 0.7007 0.0112
C3A C -0.0751(5) 0.8192(5) -0.0290(4)
H3A H -0.0883 0.7933 -0.0767
C4A C -0.1348(4) 0.9149(4) -0.0115(3)
C5A C -0.2148(6) 0.9762(5) -0.0638(4)
H4A H -0.2289 0.9539 -0.1122
C6A C -0.2708(7) 1.0667(6) -0.0440(4)
H5A H -0.3242 1.1061 -0.0788
C7A C -0.2497(5) 1.1026(5) 0.0291(4)
H6A H -0.2894 1.1652 0.0420
C8A C -0.1717(4) 1.0465(4) 0.0808(3)
C9A C -0.1124(4) 0.9496(4) 0.0615(3)
C10A C -0.1680(4) 1.1932(4) 0.1715(3)
H7A H -0.2480 1.2068 0.1586
H8A H -0.1332 1.2486 0.1450
C11A C -0.1233(4) 1.2111(4) 0.2518(3)
C12A C 0.7020(4) 0.5818(4) 0.3927(3)
H9A H 0.7341 0.5736 0.3534
C13A C 0.7606(4) 0.5392(4) 0.4597(3)
H10A H 0.8292 0.5022 0.4643
C14A C 0.7169(5) 0.5523(4) 0.5180(3)
H11A H 0.7553 0.5239 0.5630
C15A C 0.6130(4) 0.6088(4) 0.5107(3)
C16A C 0.5656(5) 0.6303(5) 0.5696(3)
H12A H 0.6016 0.6045 0.6156
C17A C 0.4671(5) 0.6887(5) 0.5594(3)
H13A H 0.4378 0.7063 0.5989
C18A C 0.4088(5) 0.7229(4) 0.4891(3)
H14A H 0.3405 0.7612 0.4826
C19A C 0.4518(4) 0.7002(3) 0.4308(3)
C20A C 0.5578(4) 0.6457(3) 0.4403(3)
C21A C 0.3017(4) 0.7963(4) 0.3480(3)
H15A H 0.3196 0.8715 0.3720
H16A H 0.2451 0.7584 0.3678
C22A C 0.2586(4) 0.8146(3) 0.2683(3)
C25A C -0.5999(4) 1.2726(3) 0.2428(3)
H17A H -0.6667 1.3130 0.2381
C26A C -0.5993(4) 1.1511(3) 0.2425(3)
H18A H -0.6658 1.1098 0.2372
N1A N -0.0346(3) 0.8948(3) 0.1152(2)
N2A N 0.6027(3) 0.6334(3) 0.3820(2)
N2A_2 N -0.3973(3) 0.6334(3) 0.3820(2)
O1A O -0.1444(3) 1.0743(3) 0.15290(19)
O2A O -0.0863(3) 1.1231(3) 0.2901(2)
O3A O -0.1294(3) 1.3129(3) 0.2744(2)
O4A O 0.3997(3) 0.7243(2) 0.36038(19)
O4A_2 O -0.6003(3) 0.7243(2) 0.36038(19)
O5A O 0.3072(2) 0.7678(3) 0.2253(2)
O5A_2 O -0.6928(2) 0.7678(3) 0.2253(2)
O6A O 0.1734(3) 0.8778(3) 0.2506(2)
O7A O -0.5826(2) 1.5188(2) 0.26370(19)
O7_2 O -0.4174(2) 0.5188(2) 0.23630(19)
O7A_2 O -0.5826(2) 0.5188(2) 0.26370(19)
O8A O -0.4934(3) 0.9060(2) 0.3090(2)
H19A H -0.0606 0.6799 0.2496
Sm2_2 Sm -0.5000 1.71084(2) 0.2500
Sm2_3 Sm 0.5000 0.71084(2) 0.2500
O10 O 0.1825(3) 0.5373(3) 0.2877(3)
H20 H 0.1723 0.4674 0.2724
H21 H 0.2482 0.5570 0.2857
O11 O -0.0022(5) 0.4539(6) 0.1148(4)
H22 H 0.0403 0.4138 0.1476
H23 H 0.0279 0.4642 0.0796
loop_
_geom_bond_atom_site_label_1
_geom_bond_atom_site_label_2
_geom_bond_site_symmetry_1
_geom_bond_site_symmetry_2
C1 H1 1_555 1_555
C2 C1 1_555 1_555
H2 C2 1_555 1_555
C3 C2 1_555 1_555
H3 C3 1_555 1_555
C4 C3 1_555 1_555
C5 C4 1_555 1_555
H4 C5 1_555 1_555
C6 C5 1_555 1_555
H5 C6 1_555 1_555
C7 C6 1_555 1_555
H6 C7 1_555 1_555
C8 C7 1_555 1_555
C9 C4 1_555 1_555
C10 H7 1_555 1_555
H8 C10 1_555 1_555
C11 C10 1_555 1_555
C12 H9 1_555 1_555
C13 C12 1_555 1_555
H10 C13 1_555 1_555
C14 C13 1_555 1_555
H11 C14 1_555 1_555
C15 C14 1_555 1_555
C16 C15 1_555 1_555
H12 C16 1_555 1_555
C17 C16 1_555 1_555
H13 C17 1_555 1_555
C18 C17 1_555 1_555
H14 C18 1_555 1_555
C19 C18 1_555 1_555
C20 C15 1_555 1_555
C21 H15 1_555 1_555
H16 C21 1_555 1_555
C22 C21 1_555 1_555
C23 C24 1_555 1_555
C24 C25 1_555 1_555
C25 H17 1_555 1_555
C26 C25 1_555 1_555
H18 C26 1_555 1_555
C27 C26 1_555 1_555
C28 C27 1_555 1_555
N1 C1 1_555 1_555
N2 C12 1_555 1_555
O1 C8 1_555 1_555
O2 C11 1_555 1_555
O3 C11 1_555 1_555
O4 C19 1_555 1_555
O5 C22 1_555 1_555
O6 C22 1_555 1_555
O7 C23 1_555 1_555
O8 C28 1_555 1_555
O9 H19 1_555 1_555
O10 H20 1_555 1_555
H21 O10 1_555 1_555
O11 H22 1_555 1_555
H23 O11 1_555 1_555
Sm1 N1 1_555 1_555
Sm2 N2 1_555 1_555
C1A H1A 1_555 1_555
C2A C1A 1_555 1_555
H2A C2A 1_555 1_555
C3A C2A 1_555 1_555
H3A C3A 1_555 1_555
C4A C3A 1_555 1_555
C5A C4A 1_555 1_555
H4A C5A 1_555 1_555
C6A C5A 1_555 1_555
H5A C6A 1_555 1_555
C7A C6A 1_555 1_555
H6A C7A 1_555 1_555
C8A C7A 1_555 1_555
C9A C4A 1_555 1_555
C10A H7A 1_555 1_555
H8A C10A 1_555 1_555
C11A C10A 1_555 1_555
C12A H9A 1_555 1_555
C13A C12A 1_555 1_555
H10A C13A 1_555 1_555
C14A C13A 1_555 1_555
H11A C14A 1_555 1_555
C15A C14A 1_555 1_555
C16A C15A 1_555 1_555
H12A C16A 1_555 1_555
C17A C16A 1_555 1_555
H13A C17A 1_555 1_555
C18A C17A 1_555 1_555
H14A C18A 1_555 1_555
C19A C18A 1_555 1_555
C20A C15A 1_555 1_555
C21A H15A 1_555 1_555
H16A C21A 1_555 1_555
C22A C21A 1_555 1_555
C25A C24 1_555 1_555
H17A C25A 1_555 1_555
C26A C27 1_555 1_555
H18A C26A 1_555 1_555
N1A Sm1 1_555 1_555
N2A C12A 1_555 1_555
N2A_2 Sm2 1_555 1_555
O1A Sm1 1_555 1_555
O2A Sm1 1_555 1_555
O3A C11A 1_555 1_555
O4A C19A 1_555 1_555
O4A_2 Sm2 1_555 1_555
O5A C22A 1_555 1_555
O5A_2 Sm2 1_555 1_555
O6A Sm1 1_555 1_555
O7A C23 1_555 1_555
O7_2 Sm2 1_555 1_555
O7A_2 Sm2 1_555 1_555
O8A C28 1_555 1_555
H19A O9 1_555 1_555
Sm2_2 O7 1_555 1_555
Sm2_3 N2A 1_555 1_555
C8 C9 1_555 1_555
C9 N1 1_555 1_555
C10 O1 1_555 1_555
C19 C20 1_555 1_555
C20 N2 1_555 1_555
C21 O4 1_555 1_555
O1 Sm1 1_555 1_555
O2 Sm1 1_555 1_555
O4 Sm2 1_555 1_555
O5 Sm2 1_555 1_555
O6 Sm1 1_555 1_555
O8 Sm2 1_555 1_555
O9 Sm1 1_555 1_555
Sm2 O8A 1_555 1_555
C1A N1A 1_555 1_555
C8A C9A 1_555 1_555
C8A O1A 1_555 1_555
C9A N1A 1_555 1_555
C10A O1A 1_555 1_555
C11A O2A 1_555 1_555
C19A C20A 1_555 1_555
C20A N2A 1_555 1_555
C21A O4A 1_555 1_555
C22A O6A 1_555 1_555
C25A C26A 1_555 1_555
O4A Sm2_3 1_555 1_555
O5A Sm2_3 1_555 1_555
O7A Sm2_2 1_555 1_555

#END
