
#######################################################################
#
#                 Cambridge Crystallographic Data Centre
#                                CCDC 
#
#######################################################################
#
# If this CIF has been generated from an entry in the Cambridge 
# Structural Database, then it will include bibliographic, chemical, 
# crystal, experimental, refinement or atomic coordinate data resulting 
# from the CCDC's data processing and validation procedures.
#
#######################################################################

data_BUQRUB
_symmetry_cell_setting           orthorhombic
_symmetry_space_group_name_H-M   'F d d 2'
_symmetry_Int_Tables_number      43
_space_group_name_Hall           'F 2 -2d'
loop_
_symmetry_equiv_pos_site_id
_symmetry_equiv_pos_as_xyz
1 x,y,z
2 -x,-y,z
3 1/4+x,1/4-y,1/4+z
4 1/4-x,1/4+y,1/4+z
5 x,1/2+y,1/2+z
6 -x,1/2-y,1/2+z
7 1/4+x,3/4-y,3/4+z
8 1/4-x,3/4+y,3/4+z
9 1/2+x,y,1/2+z
10 1/2-x,-y,1/2+z
11 3/4+x,1/4-y,3/4+z
12 3/4-x,1/4+y,3/4+z
13 1/2+x,1/2+y,z
14 1/2-x,1/2-y,z
15 3/4+x,3/4-y,1/4+z
16 3/4-x,3/4+y,1/4+z
_cell_length_a                   22.118(3)
_cell_length_b                   44.164(7)
_cell_length_c                   6.6646(7)
_cell_angle_alpha                90
_cell_angle_beta                 90
_cell_angle_gamma                90
_cell_volume                     6510.11
loop_
_atom_site_label
_atom_site_type_symbol
_atom_site_fract_x
_atom_site_fract_y
_atom_site_fract_z
Zn1 Zn 0.2500 0.2500 0.40850(5)
Zn2 Zn 0.445900(9) 0.291750(5) 0.99003(4)
Cl1 Cl 0.19362(3) 0.282104(16) 0.21860(13)
O1 O 0.41660(5) 0.26553(3) 1.2356(2)
H1 H 0.38360(16) 0.25578(12) 1.2442(19)
H2 H 0.4144(5) 0.27845(10) 1.3301(7)
O2 O 0.47233(6) 0.25361(3) 0.8081(2)
O3 O 0.46544(6) 0.21274(3) 0.6183(2)
N1 N 0.42702(8) 0.33429(4) 1.1307(3)
N2 N 0.48881(8) 0.32376(3) 0.7943(3)
N3 N 0.36538(7) 0.28865(4) 0.8289(3)
N4 N 0.32887(8) 0.31272(4) 0.7770(3)
N5 N 0.29132(8) 0.30365(4) 0.6400(3)
N6 N 0.30166(6) 0.27394(4) 0.5972(3)
C1 C 0.39765(13) 0.33699(6) 1.3004(4)
H3 H 0.3820 0.3195 1.3587
C2 C 0.38832(19) 0.36449(8) 1.3993(7)
H4 H 0.3698 0.3659 1.5242
C3 C 0.40991(18) 0.39042(9) 1.2908(7)
H5 H 0.4012 0.4097 1.3393
C4 C 0.44250(13) 0.38768(6) 1.1207(5)
H6 H 0.4589 0.4045 1.0571
C5 C 0.45057(9) 0.35837(4) 1.0438(3)
C6 C 0.48506(10) 0.35247(5) 0.8577(3)
C7 C 0.51244(15) 0.37540(7) 0.7450(6)
H7 H 0.5075 0.3956 0.7798
C8 C 0.54527(18) 0.36776(9) 0.5891(7)
H8 H 0.5685 0.3825 0.5260
C9 C 0.54658(17) 0.33784(7) 0.5140(6)
H9 H 0.5657 0.3328 0.3943
C10 C 0.51792(12) 0.31705(6) 0.6288(4)
H10 H 0.5189 0.2969 0.5881
C11 C 0.34672(7) 0.26549(4) 0.7184(3)
C12 C 0.37358(8) 0.23489(4) 0.7221(3)
H11 H 0.3583 0.2237 0.6077
H12 H 0.3597 0.2246 0.8422
C13 C 0.44270(7) 0.23361(4) 0.7180(3)
Zn2M Zn 0.054100(9) 0.208250(5) 0.99003(4)
Zn2E Zn 0.554100(9) 0.208250(5) 0.49003(4)
Zn2H Zn -0.054100(9) 0.291750(5) 0.49003(4)
Cl1M Cl 0.30638(3) 0.217896(16) 0.21860(13)
O1M O 0.08340(5) 0.23447(3) 1.2356(2)
H1M H 0.11640(16) 0.24422(12) 1.2442(19)
H2M H 0.0856(5) 0.22155(10) 1.3301(7)
O2M O 0.02767(6) 0.24639(3) 0.8081(2)
O3M O 0.03456(6) 0.28726(3) 0.6183(2)
O3E O 0.53456(6) 0.28726(3) 1.1183(2)
O3H O -0.03456(6) 0.21274(3) 1.1183(2)
N1M N 0.07298(8) 0.16571(4) 1.1307(3)
N2M N 0.01119(8) 0.17624(3) 0.7943(3)
N3M N 0.13462(7) 0.21135(4) 0.8289(3)
N4M N 0.17113(8) 0.18728(4) 0.7770(3)
N5M N 0.20868(8) 0.19635(4) 0.6400(3)
N6M N 0.19834(6) 0.22606(4) 0.5972(3)
C1M C 0.10235(13) 0.16301(6) 1.3004(4)
H3M H 0.1180 0.1805 1.3587
C2M C 0.11168(19) 0.13551(8) 1.3993(7)
H4M H 0.1302 0.1341 1.5242
C3M C 0.09009(18) 0.10958(9) 1.2908(7)
H5M H 0.0988 0.0903 1.3393
C4M C 0.05750(13) 0.11232(6) 1.1207(5)
H6M H 0.0411 0.0955 1.0571
C5M C 0.04943(9) 0.14163(4) 1.0438(3)
C6M C 0.01494(10) 0.14753(5) 0.8577(3)
C7M C -0.01244(15) 0.12460(7) 0.7450(6)
H7M H -0.0075 0.1044 0.7798
C8M C -0.04527(18) 0.13224(9) 0.5891(7)
H8M H -0.0685 0.1175 0.5260
C9M C -0.04658(17) 0.16216(7) 0.5140(6)
H9M H -0.0657 0.1672 0.3943
C10M C -0.01792(12) 0.18295(6) 0.6288(4)
H10M H -0.0189 0.2031 0.5881
C11M C 0.15328(7) 0.23451(4) 0.7184(3)
C12M C 0.12642(8) 0.26511(4) 0.7221(3)
H11M H 0.1417 0.2763 0.6077
H12M H 0.1403 0.2754 0.8422
C13M C 0.05730(7) 0.26639(4) 0.7180(3)
loop_
_geom_bond_atom_site_label_1
_geom_bond_atom_site_label_2
_geom_bond_site_symmetry_1
_geom_bond_site_symmetry_2
Zn1 Cl1 1_555 1_555
Zn2 O1 1_555 1_555
O1 H1 1_555 1_555
H2 O1 1_555 1_555
O2 Zn2 1_555 1_555
O3 C13 1_555 1_555
N1 Zn2 1_555 1_555
N2 Zn2 1_555 1_555
N3 Zn2 1_555 1_555
N4 N3 1_555 1_555
N5 N4 1_555 1_555
N6 Zn1 1_555 1_555
C1 N1 1_555 1_555
H3 C1 1_555 1_555
C2 C1 1_555 1_555
H4 C2 1_555 1_555
C3 C2 1_555 1_555
H5 C3 1_555 1_555
C4 C3 1_555 1_555
H6 C4 1_555 1_555
C5 N1 1_555 1_555
C6 N2 1_555 1_555
C7 C6 1_555 1_555
H7 C7 1_555 1_555
C8 C7 1_555 1_555
H8 C8 1_555 1_555
C9 C8 1_555 1_555
H9 C9 1_555 1_555
C10 N2 1_555 1_555
H10 C10 1_555 1_555
C11 N3 1_555 1_555
C12 C11 1_555 1_555
H11 C12 1_555 1_555
H12 C12 1_555 1_555
C13 O2 1_555 1_555
Zn2M O1M 1_555 1_555
Zn2E O3 1_555 1_555
Zn2H O3M 1_555 1_555
Cl1M Zn1 1_555 1_555
O1M H1M 1_555 1_555
H2M O1M 1_555 1_555
O2M Zn2M 1_555 1_555
O3M C13M 1_555 1_555
O3E Zn2 1_555 1_555
O3H Zn2M 1_555 1_555
N1M Zn2M 1_555 1_555
N2M Zn2M 1_555 1_555
N3M Zn2M 1_555 1_555
N4M N3M 1_555 1_555
N5M N4M 1_555 1_555
N6M Zn1 1_555 1_555
C1M N1M 1_555 1_555
H3M C1M 1_555 1_555
C2M C1M 1_555 1_555
H4M C2M 1_555 1_555
C3M C2M 1_555 1_555
H5M C3M 1_555 1_555
C4M C3M 1_555 1_555
H6M C4M 1_555 1_555
C5M N1M 1_555 1_555
C6M N2M 1_555 1_555
C7M C6M 1_555 1_555
H7M C7M 1_555 1_555
C8M C7M 1_555 1_555
H8M C8M 1_555 1_555
C9M C8M 1_555 1_555
H9M C9M 1_555 1_555
C10M N2M 1_555 1_555
H10M C10M 1_555 1_555
C11M N3M 1_555 1_555
C12M C11M 1_555 1_555
H11M C12M 1_555 1_555
H12M C12M 1_555 1_555
C13M O2M 1_555 1_555
N5 N6 1_555 1_555
N6 C11 1_555 1_555
C4 C5 1_555 1_555
C5 C6 1_555 1_555
C9 C10 1_555 1_555
C12 C13 1_555 1_555
N5M N6M 1_555 1_555
N6M C11M 1_555 1_555
C4M C5M 1_555 1_555
C5M C6M 1_555 1_555
C9M C10M 1_555 1_555
C12M C13M 1_555 1_555

#END
