
#######################################################################
#
#                 Cambridge Crystallographic Data Centre
#                                CCDC 
#
#######################################################################
#
# If this CIF has been generated from an entry in the Cambridge 
# Structural Database, then it will include bibliographic, chemical, 
# crystal, experimental, refinement or atomic coordinate data resulting 
# from the CCDC's data processing and validation procedures.
#
#######################################################################

data_BUQSAI
_symmetry_cell_setting           monoclinic
_symmetry_space_group_name_H-M   'P 21/c'
_symmetry_Int_Tables_number      14
_space_group_name_Hall           '-P 2ybc'
loop_
_symmetry_equiv_pos_site_id
_symmetry_equiv_pos_as_xyz
1 x,y,z
2 -x,1/2+y,1/2-z
3 -x,-y,-z
4 x,1/2-y,1/2+z
_cell_length_a                   13.515(3)
_cell_length_b                   6.7465(13)
_cell_length_c                   10.667(2)
_cell_angle_alpha                90
_cell_angle_beta                 91.33(3)
_cell_angle_gamma                90
_cell_volume                     972.344
loop_
_atom_site_label
_atom_site_type_symbol
_atom_site_fract_x
_atom_site_fract_y
_atom_site_fract_z
Zn1 Zn 0.82705(2) 0.02630(4) 0.53945(2)
O1 O 0.96601(13) 0.1991(3) 0.52730(15)
O2 O 1.09345(12) 0.2011(3) 0.39897(17)
N1 N 0.79692(15) 0.1435(3) 0.36694(18)
N2 N 0.70911(15) 0.1077(4) 0.30419(19)
N3 N 0.70799(15) 0.2107(3) 0.20063(18)
N4 N 0.79408(14) 0.3144(3) 0.19440(17)
N5 N 0.69955(15) -0.1625(3) 0.53018(19)
C1 C 0.84744(17) 0.2700(4) 0.2978(2)
C2 C 0.94719(17) 0.3544(4) 0.3272(2)
H1 H 0.9392 0.4902 0.3552
H2 H 0.9848 0.3575 0.2509
C3 C 1.00604(17) 0.2418(4) 0.4263(2)
C4 C 0.6187(3) -0.1384(6) 0.5890(4)
H3 H 0.6141 -0.0299 0.6424
C5 C 0.5377(3) -0.2638(7) 0.5779(5)
H4 H 0.4802 -0.2342 0.6203
C6 C 0.54150(19) -0.4293(4) 0.5059(2)
C7 C 0.6267(2) -0.4559(5) 0.4468(3)
H5 H 0.6348 -0.5655 0.3953
C8 C 0.7031(2) -0.3203(5) 0.4624(4)
H6 H 0.7614 -0.3452 0.4206
Zn1B Zn 1.17295(2) -0.02630(4) 0.46055(2)
Zn1C Zn 0.82705(2) 0.47370(4) 0.03945(2)
Zn1B_2 Zn 0.17295(2) -1.02630(4) 0.46055(2)
Zn1_2 Zn -0.17295(2) -0.97370(4) 0.53945(2)
Zn1A Zn 0.17295(2) -1.47370(4) 0.96055(2)
O1B O 0.03399(13) -1.1991(3) 0.47270(15)
O2B O 0.90655(12) -0.2011(3) 0.60103(17)
O2_2 O 0.09345(12) -0.7989(3) 0.39897(17)
O2B_2 O -0.09345(12) -1.2011(3) 0.60103(17)
N1B N 0.20308(15) -1.1435(3) 0.63306(18)
N2B N 0.29089(15) -1.1077(4) 0.69581(19)
N3B N 0.29201(15) -1.2107(3) 0.79937(18)
N4C N 0.79408(14) 0.1856(3) 0.69440(17)
N4A N 0.20592(14) -1.1856(3) 0.30560(17)
N4B N 0.20592(14) -1.3144(3) 0.80560(17)
N5B N 0.30045(15) -0.8375(3) 0.46982(19)
C1B C 0.15256(17) -1.2700(4) 0.7022(2)
C2B C 0.05281(17) -1.3544(4) 0.6728(2)
H1B H 0.0608 -1.4902 0.6448
H2B H 0.0152 -1.3575 0.7491
C3B C -0.00604(17) -1.2418(4) 0.5737(2)
C4B C 0.3813(3) -0.8616(6) 0.4110(4)
H3B H 0.3859 -0.9701 0.3576
C5B C 0.4623(3) -0.7362(7) 0.4221(5)
H4B H 0.5198 -0.7658 0.3797
C6B C 0.45850(19) -0.5707(4) 0.4941(2)
C7B C 0.3733(2) -0.5441(5) 0.5532(3)
H5B H 0.3652 -0.4345 0.6047
C8B C 0.2969(2) -0.6797(5) 0.5376(4)
H6B H 0.2386 -0.6548 0.5794
loop_
_geom_bond_atom_site_label_1
_geom_bond_atom_site_label_2
_geom_bond_site_symmetry_1
_geom_bond_site_symmetry_2
Zn1 O1 1_555 1_555
O1 C3 1_555 1_555
O2 C3 1_555 1_555
N1 Zn1 1_555 1_555
N2 N1 1_555 1_555
N3 N2 1_555 1_555
N4 N3 1_555 1_555
N5 Zn1 1_555 1_555
C1 N1 1_555 1_555
C2 C1 1_555 1_555
H1 C2 1_555 1_555
H2 C2 1_555 1_555
C3 C2 1_555 1_555
C4 N5 1_555 1_555
H3 C4 1_555 1_555
C5 C4 1_555 1_555
H4 C5 1_555 1_555
C6 C5 1_555 1_555
C7 C6 1_555 1_555
H5 C7 1_555 1_555
C8 N5 1_555 1_555
H6 C8 1_555 1_555
Zn1B O2 1_555 1_555
Zn1C N4 1_555 1_555
Zn1B_2 O1B 1_555 1_555
Zn1_2 O2B_2 1_555 1_555
Zn1A N4B 1_555 1_555
O1B C3B 1_555 1_555
O2B Zn1 1_555 1_555
O2_2 Zn1B_2 1_555 1_555
O2B_2 C3B 1_555 1_555
N1B Zn1B_2 1_555 1_555
N2B N1B 1_555 1_555
N3B N2B 1_555 1_555
N4C Zn1 1_555 1_555
N4A Zn1B_2 1_555 1_555
N4B N3B 1_555 1_555
N5B Zn1B_2 1_555 1_555
C1B N1B 1_555 1_555
C2B C1B 1_555 1_555
H1B C2B 1_555 1_555
H2B C2B 1_555 1_555
C3B C2B 1_555 1_555
C4B N5B 1_555 1_555
H3B C4B 1_555 1_555
C5B C4B 1_555 1_555
H4B C5B 1_555 1_555
C6B C6 1_555 1_555
C7B C6B 1_555 1_555
H5B C7B 1_555 1_555
C8B N5B 1_555 1_555
H6B C8B 1_555 1_555
N4 C1 1_555 1_555
C7 C8 1_555 1_555
N4B C1B 1_555 1_555
C5B C6B 1_555 1_555
C7B C8B 1_555 1_555

#END
