
#######################################################################
#
#                 Cambridge Crystallographic Data Centre
#                                CCDC 
#
#######################################################################
#
# If this CIF has been generated from an entry in the Cambridge 
# Structural Database, then it will include bibliographic, chemical, 
# crystal, experimental, refinement or atomic coordinate data resulting 
# from the CCDC's data processing and validation procedures.
#
#######################################################################

data_BUQXIU
_symmetry_cell_setting           orthorhombic
_symmetry_space_group_name_H-M   'P 21 21 21'
_symmetry_Int_Tables_number      19
_space_group_name_Hall           'P 2ac 2ab'
loop_
_symmetry_equiv_pos_site_id
_symmetry_equiv_pos_as_xyz
1 x,y,z
2 1/2-x,-y,1/2+z
3 -x,1/2+y,1/2-z
4 1/2+x,1/2-y,-z
_cell_length_a                   7.7710(4)
_cell_length_b                   23.8998(13)
_cell_length_c                   32.6762(17)
_cell_angle_alpha                90
_cell_angle_beta                 90
_cell_angle_gamma                90
_cell_volume                     6068.8
loop_
_atom_site_label
_atom_site_type_symbol
_atom_site_fract_x
_atom_site_fract_y
_atom_site_fract_z
Gd1 Gd 0.00623(10) 0.01122(3) 0.268450(15)
P1 P 0.3773(5) 0.06404(18) 0.20870(10)
C1 C 0.2660(18) 0.1471(6) 0.0362(4)
O1 O 0.2110(13) 0.0638(5) 0.2314(3)
O2 O 0.4594(10) 0.0061(4) 0.2035(2)
C2 C 0.2924(18) 0.1276(5) 0.0777(4)
P2 P 0.6286(6) 0.0919(2) -0.15221(12)
O3 O 0.5157(16) 0.1024(4) 0.2292(3)
C3 C 0.2574(19) 0.0724(7) 0.0883(4)
H1 H 0.2211 0.0474 0.0678
P3 P -0.3652(5) 0.06649(17) 0.32946(10)
C4 C 0.2740(18) 0.0540(6) 0.1267(4)
H2 H 0.2403 0.0174 0.1335
O4 O 0.6158(18) 0.1541(5) -0.1666(3)
P4 P -0.6390(5) 0.09530(18) 0.69056(11)
C5 C 0.3450(19) 0.0910(6) 0.1583(4)
O5 O 0.5432(14) 0.0534(5) -0.1815(3)
C6 C 0.374(2) 0.1425(6) 0.1484(4)
H3 H 0.4137 0.1666 0.1692
O6 O 0.8215(14) 0.0803(5) -0.1445(3)
C7 C 0.3516(16) 0.1663(6) 0.1076(4)
O7 O -0.4916(16) 0.1044(3) 0.3071(2)
C8 C 0.3809(18) 0.2209(5) 0.0975(4)
H4 H 0.4205 0.2459 0.1176
O8 O -0.4559(10) 0.0093(4) 0.3354(2)
O9 O -0.1957(13) 0.0618(5) 0.3071(3)
C9 C 0.3535(17) 0.2399(5) 0.0584(4)
H5 H 0.3692 0.2781 0.0527
C10 C 0.3039(15) 0.2048(6) 0.0276(4)
O10 O -0.6259(19) 0.1555(5) 0.7078(3)
C11 C 0.3480(18) 0.2709(6) -0.0269(4)
H6 H 0.4607 0.2768 -0.0141
H7 H 0.2742 0.3028 -0.0198
O11 O -0.5542(12) 0.0551(5) 0.7182(3)
C12 C 0.368(2) 0.2676(7) -0.0725(5)
H8 H 0.4332 0.2342 -0.0795
H9 H 0.4293 0.3004 -0.0822
H10 H 0.2558 0.2659 -0.0852
O12 O -0.8312(14) 0.0838(5) 0.6826(3)
C13 C 0.2080(17) 0.1102(5) 0.0030(4)
O13 O -0.1438(13) 0.0732(6) 0.2192(3)
O14 O 0.1524(15) 0.0741(5) 0.3184(3)
C14 C 0.3172(17) 0.1023(5) -0.0319(4)
O15 O 0.2790(13) -0.0333(4) 0.2864(3)
C15 C 0.491(3) 0.1220(5) -0.0342(3)
H11 H 0.5408 0.1388 -0.0111
O16 O -0.2773(13) -0.0334(4) 0.2508(3)
C16 C 0.5836(18) 0.1170(6) -0.0688(4)
H12 H 0.6961 0.1314 -0.0700
O17 O 0.2728(12) 0.2201(4) -0.0116(3)
C17 C 0.510(3) 0.0897(6) -0.1039(4)
C18 C 0.351(2) 0.0664(8) -0.1037(4)
H13 H 0.3078 0.0484 -0.1271
O18 O -0.0512(12) 0.0980(4) 0.0357(3)
O19 O -0.3031(12) 0.2289(4) 0.5493(3)
C19 C 0.250(2) 0.0700(7) -0.0670(4)
C20 C 0.089(2) 0.0476(8) -0.0640(5)
H14 H 0.0468 0.0265 -0.0861
O20 O 0.0521(10) 0.1093(4) 0.5038(3)
C21 C -0.014(3) 0.0544(6) -0.0305(4)
H15 H -0.1232 0.0375 -0.0294
C22 C 0.046(2) 0.0873(6) 0.0022(4)
C23 C -0.1920(19) 0.0624(6) 0.0470(5)
H16 H -0.1541 0.0233 0.0483
H17 H -0.2850 0.0653 0.0269
C24 C -0.254(3) 0.0817(10) 0.0888(7)
H18 H -0.1744 0.0691 0.1096
H19 H -0.3672 0.0660 0.0941
H20 H -0.2609 0.1222 0.0892
C25 C -0.2759(16) 0.1567(5) 0.5016(4)
C26 C -0.2889(15) 0.1344(6) 0.4612(4)
C27 C -0.249(2) 0.0803(7) 0.4504(4)
H21 H -0.2060 0.0562 0.4708
C28 C -0.2682(17) 0.0595(6) 0.4103(4)
H22 H -0.2387 0.0223 0.4043
C29 C -0.3328(16) 0.0952(6) 0.3791(4)
C30 C -0.3732(16) 0.1497(6) 0.3893(3)
H23 H -0.4158 0.1737 0.3689
C31 C -0.3523(18) 0.1705(5) 0.4299(4)
C32 C -0.4065(17) 0.2257(6) 0.4400(5)
H24 H -0.4550 0.2486 0.4197
C33 C -0.3892(17) 0.2454(6) 0.4782(4)
H25 H -0.4192 0.2826 0.4843
C34 C -0.3269(17) 0.2105(6) 0.5083(4)
C35 C -0.420(2) 0.2701(6) 0.5632(5)
H26 H -0.5379 0.2588 0.5568
H27 H -0.3964 0.3058 0.5495
C36 C -0.399(2) 0.2765(8) 0.6084(5)
H28 H -0.4106 0.2402 0.6215
H29 H -0.4860 0.3017 0.6188
H30 H -0.2854 0.2916 0.6143
C37 C -0.2184(17) 0.1196(5) 0.5364(4)
C38 C -0.3250(17) 0.1089(6) 0.5706(4)
C39 C -0.492(2) 0.1294(5) 0.5734(3)
H31 H -0.5387 0.1475 0.5504
C40 C -0.5941(18) 0.1246(5) 0.6087(4)
H32 H -0.7047 0.1405 0.6094
C41 C -0.5289(18) 0.0958(5) 0.6428(3)
C42 C -0.368(2) 0.0718(6) 0.6403(4)
H33 H -0.3259 0.0503 0.6622
C43 C -0.2646(17) 0.0795(5) 0.6045(4)
C44 C -0.0945(19) 0.0542(5) 0.6029(4)
H34 H -0.0538 0.0321 0.6247
C45 C 0.005(3) 0.0633(5) 0.5691(4)
H35 H 0.1140 0.0466 0.5673
C46 C -0.0533(15) 0.0971(5) 0.5371(4)
C47 C 0.192(2) 0.0718(7) 0.4941(5)
H36 H 0.2836 0.0748 0.5146
H37 H 0.1514 0.0330 0.4933
C48 C 0.255(3) 0.0888(10) 0.4541(7)
H38 H 0.1644 0.0839 0.4340
H39 H 0.3532 0.0660 0.4467
H40 H 0.2887 0.1279 0.4550
O5A O -0.0432(14) -0.0534(5) 0.3185(3)
O11A O 0.0542(12) -0.0551(5) 0.2182(3)
Gd1A Gd 0.49377(10) -0.01122(3) -0.231550(15)
Gd1A_2 Gd -0.50623(10) -0.01122(3) 0.768450(15)
O21 O 0.059(4) 0.1571(12) -0.1229(8)
O22 O 0.977(6) 0.1809(12) 0.1952(10)
O23 O 0.977(6) 0.1880(13) 0.6656(10)
O24 O 0.772(6) 0.2295(17) -0.2058(12)
O25 O 0.664(4) 0.2155(13) 0.7102(9)
O26 O 0.982(6) 0.1846(13) 0.2842(9)
O27 O 0.264(5) 0.1519(14) -0.1930(10)
O28 O 0.613(4) 0.2270(11) 0.2909(8)
O29 O 0.845(9) 0.142(3) 0.743(2)
O30 O 0.647(7) 0.244(2) 0.2198(15)
loop_
_geom_bond_atom_site_label_1
_geom_bond_atom_site_label_2
_geom_bond_site_symmetry_1
_geom_bond_site_symmetry_2
Gd1 O1 1_555 1_555
P1 O1 1_555 1_555
C1 C2 1_555 1_555
O2 P1 1_555 1_555
C2 C3 1_555 1_555
P2 O4 1_555 1_555
O3 P1 1_555 1_555
C3 H1 1_555 1_555
P3 O7 1_555 1_555
C4 C3 1_555 1_555
H2 C4 1_555 1_555
P4 O10 1_555 1_555
C5 P1 1_555 1_555
O5 P2 1_555 1_555
C6 C5 1_555 1_555
H3 C6 1_555 1_555
O6 P2 1_555 1_555
C7 C2 1_555 1_555
C8 C7 1_555 1_555
H4 C8 1_555 1_555
O8 P3 1_555 1_555
O9 Gd1 1_555 1_555
C9 C8 1_555 1_555
H5 C9 1_555 1_555
C10 C1 1_555 1_555
C11 H6 1_555 1_555
H7 C11 1_555 1_555
O11 P4 1_555 1_555
C12 C11 1_555 1_555
H8 C12 1_555 1_555
H9 C12 1_555 1_555
H10 C12 1_555 1_555
O12 P4 1_555 1_555
C13 C1 1_555 1_555
O13 Gd1 1_555 1_555
O14 Gd1 1_555 1_555
C14 C13 1_555 1_555
O15 Gd1 1_555 1_555
C15 C14 1_555 1_555
H11 C15 1_555 1_555
O16 Gd1 1_555 1_555
C16 C15 1_555 1_555
H12 C16 1_555 1_555
O17 C10 1_555 1_555
C17 P2 1_555 1_555
C18 C17 1_555 1_555
H13 C18 1_555 1_555
O18 C22 1_555 1_555
O19 C34 1_555 1_555
C19 C14 1_555 1_555
C20 C19 1_555 1_555
H14 C20 1_555 1_555
O20 C46 1_555 1_555
C21 C20 1_555 1_555
H15 C21 1_555 1_555
C22 C13 1_555 1_555
C23 O18 1_555 1_555
H16 C23 1_555 1_555
H17 C23 1_555 1_555
C24 C23 1_555 1_555
H18 C24 1_555 1_555
H19 C24 1_555 1_555
H20 C24 1_555 1_555
C25 C26 1_555 1_555
C26 C27 1_555 1_555
C27 H21 1_555 1_555
C28 C27 1_555 1_555
H22 C28 1_555 1_555
C29 P3 1_555 1_555
C30 C29 1_555 1_555
H23 C30 1_555 1_555
C31 C26 1_555 1_555
C32 C31 1_555 1_555
H24 C32 1_555 1_555
C33 C32 1_555 1_555
H25 C33 1_555 1_555
C34 C25 1_555 1_555
C35 O19 1_555 1_555
H26 C35 1_555 1_555
H27 C35 1_555 1_555
C36 C35 1_555 1_555
H28 C36 1_555 1_555
H29 C36 1_555 1_555
H30 C36 1_555 1_555
C37 C25 1_555 1_555
C38 C37 1_555 1_555
C39 C38 1_555 1_555
H31 C39 1_555 1_555
C40 C39 1_555 1_555
H32 C40 1_555 1_555
C41 P4 1_555 1_555
C42 C41 1_555 1_555
H33 C42 1_555 1_555
C43 C38 1_555 1_555
C44 C43 1_555 1_555
H34 C44 1_555 1_555
C45 C44 1_555 1_555
H35 C45 1_555 1_555
C46 C37 1_555 1_555
C47 O20 1_555 1_555
H36 C47 1_555 1_555
H37 C47 1_555 1_555
C48 C47 1_555 1_555
H38 C48 1_555 1_555
H39 C48 1_555 1_555
H40 C48 1_555 1_555
O5A Gd1 1_555 1_555
O11A Gd1 1_555 1_555
Gd1A O5 1_555 1_555
Gd1A_2 O11 1_555 1_555
P3 O9 1_555 1_555
C4 C5 1_555 1_555
C6 C7 1_555 1_555
C9 C10 1_555 1_555
C11 O17 1_555 1_555
C16 C17 1_555 1_555
C18 C19 1_555 1_555
C21 C22 1_555 1_555
C28 C29 1_555 1_555
C30 C31 1_555 1_555
C33 C34 1_555 1_555
C40 C41 1_555 1_555
C42 C43 1_555 1_555
C45 C46 1_555 1_555

#END
