
#######################################################################
#
#                 Cambridge Crystallographic Data Centre
#                                CCDC 
#
#######################################################################
#
# If this CIF has been generated from an entry in the Cambridge 
# Structural Database, then it will include bibliographic, chemical, 
# crystal, experimental, refinement or atomic coordinate data resulting 
# from the CCDC's data processing and validation procedures.
#
#######################################################################

data_BUQZAQ
_symmetry_cell_setting           monoclinic
_symmetry_space_group_name_H-M   'P 21/c'
_symmetry_Int_Tables_number      14
_space_group_name_Hall           '-P 2ybc'
loop_
_symmetry_equiv_pos_site_id
_symmetry_equiv_pos_as_xyz
1 x,y,z
2 -x,1/2+y,1/2-z
3 -x,-y,-z
4 x,1/2-y,1/2+z
_cell_length_a                   7.9868(6)
_cell_length_b                   26.4375(19)
_cell_length_c                   11.6554(8)
_cell_angle_alpha                90
_cell_angle_beta                 107.0940(10)
_cell_angle_gamma                90
_cell_volume                     2352.33
loop_
_atom_site_label
_atom_site_type_symbol
_atom_site_fract_x
_atom_site_fract_y
_atom_site_fract_z
Gd1 Gd 0.41566(3) 0.725821(10) 0.33911(2)
Gd2 Gd 0.09704(3) 0.695029(10) 0.51212(2)
N1 N 0.5322(10) 0.5498(3) 0.6304(6)
N2 N 0.8095(9) 0.5532(3) 0.5317(7)
N3 N 0.3698(10) 0.8935(3) 0.5637(6)
N4 N 0.2283(10) 0.9179(3) 0.3214(7)
N5 N 0.0066(9) 0.5983(3) 0.1640(7)
N6 N -0.2339(10) 0.6269(3) -0.0520(6)
O1 O 0.2597(5) 0.61624(16) 0.5498(4)
O2 O 0.4346(5) 0.67760(15) 0.5286(4)
O3 O 0.5845(5) 0.65490(16) 0.3522(4)
O4 O 0.8699(5) 0.64157(17) 0.4267(4)
O5 O 0.3057(6) 0.79920(17) 0.6374(4)
O6 O 0.2404(5) 0.76707(15) 0.4546(4)
O7 O 0.2615(5) 0.79769(15) 0.2319(4)
O8 O 0.0163(6) 0.84021(18) 0.1840(4)
O9 O 0.1612(5) 0.67543(16) 0.3253(3)
O10 O -0.0802(6) 0.72015(16) 0.2658(4)
O11 O -0.1113(6) 0.74805(17) 0.0161(4)
O12 O -0.3890(6) 0.72652(16) -0.0162(4)
O13 O 0.6095(6) 0.76409(19) 0.2403(4)
C1 C 0.4059(7) 0.6306(2) 0.5426(5)
C2 C 0.5455(8) 0.5908(2) 0.5570(5)
C3 C 0.6858(8) 0.5926(2) 0.5080(5)
C4 C 0.7139(7) 0.6330(2) 0.4248(5)
C5 C 0.7922(11) 0.5130(3) 0.6032(8)
H1 H 0.8740 0.4869 0.6184
C6 C 0.6554(10) 0.5112(3) 0.6516(7)
H2 H 0.6450 0.4839 0.6993
C7 C 0.2845(7) 0.8042(2) 0.5282(5)
C8 C 0.2985(8) 0.8555(2) 0.4805(6)
C9 C 0.2320(8) 0.8679(2) 0.3586(5)
C10 C 0.1617(8) 0.8318(2) 0.2556(5)
C11 C 0.3004(12) 0.9553(3) 0.4067(8)
H3 H 0.3004 0.9888 0.3823
C12 C 0.3710(12) 0.9432(3) 0.5257(7)
H4 H 0.4197 0.9684 0.5811
C13 C 0.0094(7) 0.6845(2) 0.2478(5)
C14 C -0.0529(8) 0.6483(2) 0.1463(5)
C15 C -0.1734(7) 0.6624(2) 0.0386(5)
C16 C -0.2273(7) 0.7165(2) 0.0136(5)
C17 C -0.1724(12) 0.5777(3) -0.0348(7)
H5 H -0.2121 0.5539 -0.0955
C18 C -0.0525(11) 0.5638(3) 0.0722(8)
H6 H -0.0109 0.5308 0.0825
Gd1C Gd -0.58434(3) 0.774179(10) -0.16089(2)
Gd1C_2 Gd 0.41566(3) 0.774179(10) 0.83911(2)
Gd2_2 Gd 1.09704(3) 0.695029(10) 0.51212(2)
Gd2C Gd 0.09704(3) 0.804971(10) 0.01212(2)
O4_2 O -0.1301(5) 0.64157(17) 0.4267(4)
O5C O 0.3057(6) 0.70080(17) 0.1374(4)
O7C O 0.2615(5) 0.70231(15) 0.7319(4)
O8C O 0.0163(6) 0.65979(18) 0.6840(4)
O11C O -0.1113(6) 0.75195(17) 0.5161(4)
O12C O 0.6110(6) 0.77348(16) 0.4838(4)
loop_
_geom_bond_atom_site_label_1
_geom_bond_atom_site_label_2
_geom_bond_site_symmetry_1
_geom_bond_site_symmetry_2
Gd1 O2 1_555 1_555
Gd2 O1 1_555 1_555
N1 C2 1_555 1_555
N2 C3 1_555 1_555
N3 C8 1_555 1_555
N4 C9 1_555 1_555
N5 C14 1_555 1_555
N6 C15 1_555 1_555
O1 C1 1_555 1_555
O2 Gd2 1_555 1_555
O3 Gd1 1_555 1_555
O4 C4 1_555 1_555
O5 C7 1_555 1_555
O6 Gd1 1_555 1_555
O7 Gd1 1_555 1_555
O8 C10 1_555 1_555
O9 Gd1 1_555 1_555
O10 Gd2 1_555 1_555
O11 C16 1_555 1_555
O12 C16 1_555 1_555
O13 Gd1 1_555 1_555
C1 O2 1_555 1_555
C2 C1 1_555 1_555
C3 C2 1_555 1_555
C4 O3 1_555 1_555
C5 N2 1_555 1_555
H1 C5 1_555 1_555
C6 N1 1_555 1_555
H2 C6 1_555 1_555
C7 O6 1_555 1_555
C8 C7 1_555 1_555
C9 C8 1_555 1_555
C10 O7 1_555 1_555
C11 N4 1_555 1_555
H3 C11 1_555 1_555
C12 N3 1_555 1_555
H4 C12 1_555 1_555
C13 O9 1_555 1_555
C14 C13 1_555 1_555
C15 C14 1_555 1_555
C16 C15 1_555 1_555
C17 N6 1_555 1_555
H5 C17 1_555 1_555
C18 N5 1_555 1_555
H6 C18 1_555 1_555
Gd1C O12 1_555 1_555
Gd1C_2 O5 1_555 1_555
Gd2_2 O4 1_555 1_555
Gd2C O7 1_555 1_555
O4_2 Gd2 1_555 1_555
O5C Gd1 1_555 1_555
O7C Gd2 1_555 1_555
O8C Gd2 1_555 1_555
O11C Gd2 1_555 1_555
O12C Gd1 1_555 1_555
Gd2 O6 1_555 1_555
Gd2 O9 1_555 1_555
O8 Gd2C 1_555 1_555
O10 C13 1_555 1_555
O11 Gd2C 1_555 1_555
C3 C4 1_555 1_555
C5 C6 1_555 1_555
C9 C10 1_555 1_555
C11 C12 1_555 1_555
C17 C18 1_555 1_555
Gd1C_2 O7C 1_555 1_555

#END
