
#######################################################################
#
#                 Cambridge Crystallographic Data Centre
#                                CCDC 
#
#######################################################################
#
# If this CIF has been generated from an entry in the Cambridge 
# Structural Database, then it will include bibliographic, chemical, 
# crystal, experimental, refinement or atomic coordinate data resulting 
# from the CCDC's data processing and validation procedures.
#
#######################################################################

data_BURMAE
_symmetry_cell_setting           monoclinic
_symmetry_space_group_name_H-M   'P 21/c'
_symmetry_Int_Tables_number      14
_space_group_name_Hall           '-P 2ybc'
loop_
_symmetry_equiv_pos_site_id
_symmetry_equiv_pos_as_xyz
1 x,y,z
2 -x,1/2+y,1/2-z
3 -x,-y,-z
4 x,1/2-y,1/2+z
_cell_length_a                   3.6019(7)
_cell_length_b                   11.273(2)
_cell_length_c                   11.600(2)
_cell_angle_alpha                90
_cell_angle_beta                 93.389(3)
_cell_angle_gamma                90
_cell_volume                     470.185
loop_
_atom_site_label
_atom_site_type_symbol
_atom_site_fract_x
_atom_site_fract_y
_atom_site_fract_z
N1 N 0.4395(8) 0.9370(2) 0.6537(2)
N2 N 0.3109(8) 0.7685(2) 0.7447(2)
Ag1 Ag 0.33633(9) 0.87929(2) 0.37666(2)
C1 C 0.4509(10) 0.8783(3) 0.7529(3)
H1 H 0.5477 0.9106 0.8221
C2 C 0.2084(10) 0.7650(3) 0.6323(3)
O1 O -0.0392(9) 0.5798(3) 0.6405(3)
N3 N 0.2776(8) 0.8611(2) 0.5728(2)
N4 N 0.0194(8) 0.6643(3) 0.5793(3)
O2 O -0.0832(9) 0.6722(3) 0.4783(3)
N1B N 0.5605(8) 1.0630(2) 0.3463(2)
N2C N 0.3109(8) 0.7315(2) 0.2447(2)
Ag1B Ag 0.66367(9) 1.12071(2) 0.62334(2)
Ag1C Ag 0.33633(9) 0.62071(2) 0.87666(2)
loop_
_geom_bond_atom_site_label_1
_geom_bond_atom_site_label_2
_geom_bond_site_symmetry_1
_geom_bond_site_symmetry_2
N1 C1 1_555 1_555
N2 C1 1_555 1_555
Ag1 N3 1_555 1_555
C1 H1 1_555 1_555
C2 N2 1_555 1_555
O1 N4 1_555 1_555
N3 N1 1_555 1_555
N4 C2 1_555 1_555
O2 N4 1_555 1_555
N1B Ag1 1_555 1_555
N2C Ag1 1_555 1_555
Ag1B N1 1_555 1_555
Ag1C N2 1_555 1_555
C2 N3 1_555 1_555

#END
