
#######################################################################
#
#                 Cambridge Crystallographic Data Centre
#                                CCDC 
#
#######################################################################
#
# If this CIF has been generated from an entry in the Cambridge 
# Structural Database, then it will include bibliographic, chemical, 
# crystal, experimental, refinement or atomic coordinate data resulting 
# from the CCDC's data processing and validation procedures.
#
#######################################################################

data_BURRAJ
_symmetry_cell_setting           triclinic
_symmetry_space_group_name_H-M   'P -1'
_symmetry_Int_Tables_number      2
_space_group_name_Hall           '-P 1'
loop_
_symmetry_equiv_pos_site_id
_symmetry_equiv_pos_as_xyz
1 x,y,z
2 -x,-y,-z
_cell_length_a                   15.328(3)
_cell_length_b                   15.480(3)
_cell_length_c                   16.300(3)
_cell_angle_alpha                78.16(3)
_cell_angle_beta                 70.63(3)
_cell_angle_gamma                86.33(3)
_cell_volume                     3571.04
loop_
_atom_site_label
_atom_site_type_symbol
_atom_site_fract_x
_atom_site_fract_y
_atom_site_fract_z
Nd1 Nd 0.56064(4) 0.50599(3) 0.85781(3)
Nd2 Nd 0.53747(4) 0.53445(3) 0.60604(3)
Na1 Na 0.3339(3) 0.4091(2) 0.9714(3)
O1 O 0.5681(4) 0.4245(3) 0.7300(4)
O2 O 0.6359(5) 0.4174(4) 0.5446(4)
H1 H 0.7003 0.4176 0.5362
H2 H 0.6099 0.3716 0.5291
O3 O 0.4677(4) 0.3725(4) 0.8606(4)
O4 O 0.2798(6) 0.2752(5) 1.0646(5)
O5 O 0.4502(6) -0.1033(4) 0.6814(5)
H3 H 0.4830 -0.1414 0.7021
O6 O 0.4822(4) 0.5870(4) 0.7464(4)
O7 O 0.3885(4) 0.5534(4) 0.8845(4)
O8 O 0.0332(6) 0.9214(4) 0.6837(6)
H4 H 0.0036 0.8944 0.6616
O9 O 0.5072(5) 0.5878(4) 0.9907(4)
O10 O 0.5477(5) 0.6721(4) 0.8583(4)
O11 O 0.2324(6) 1.1001(5) 1.0589(6)
H5 H 0.2107 1.1287 1.0203
O12 O 0.6877(4) 0.3974(4) 0.8556(4)
O13 O 0.6968(4) 0.5087(4) 0.9165(4)
O14 O 1.2610(5) 0.4017(4) 0.8655(5)
O15 O 0.6883(5) 0.5757(4) 0.7394(4)
O16 O 0.6804(4) 0.5779(4) 0.6052(4)
O17 O 1.2475(5) 0.6994(4) 0.3922(4)
H6 H 1.2594 0.6989 0.3382
O18 O 0.3796(5) 0.4529(4) 0.6973(4)
O19 O 0.4317(5) 0.4408(4) 0.5584(4)
O20 O -0.0075(6) 0.0607(5) 0.7592(7)
O21 O 0.5522(5) 0.7009(4) 0.5570(4)
O22 O 0.4192(5) 0.6410(4) 0.5720(4)
O23 O 0.2446(6) 1.1460(5) 0.3742(7)
H7 H 0.2918 1.1785 0.3525
C1 C 0.5136(7) 0.3642(6) 0.7835(7)
C2 C 0.5068(7) 0.2800(5) 0.7522(6)
H8 H 0.4922 0.2962 0.6963
H9 H 0.5684 0.2518 0.7383
C3 C 0.2412(9) 0.2639(8) 1.1572(8)
H10 H 0.2577 0.3144 1.1769
H11 H 0.2653 0.2096 1.1849
H12 H 0.1738 0.2597 1.1745
C4 C 0.4369(8) 0.2125(6) 0.8151(7)
H13 H 0.3741 0.2378 0.8252
H14 H 0.4481 0.1983 0.8728
C5 C 0.4413(7) 0.1270(6) 0.7795(7)
C6 C 0.3705(7) 0.1041(6) 0.7543(7)
H15 H 0.3170 0.1401 0.7613
C7 C 0.3756(8) 0.0288(7) 0.7184(8)
H16 H 0.3273 0.0151 0.6987
C8 C 0.4512(7) -0.0252(6) 0.7120(7)
C9 C 0.5231(8) -0.0031(6) 0.7353(7)
H17 H 0.5765 -0.0394 0.7282
C10 C 0.5178(7) 0.0738(6) 0.7699(7)
H18 H 0.5675 0.0891 0.7869
C11 C 0.4056(7) 0.5959(6) 0.8053(7)
C12 C 0.3392(6) 0.6623(6) 0.7767(6)
H19 H 0.3227 0.6421 0.7299
H20 H 0.3725 0.7191 0.7494
C13 C 0.2490(7) 0.6798(7) 0.8483(8)
H21 H 0.2148 0.6236 0.8770
H22 H 0.2640 0.7030 0.8944
C14 C 0.1894(7) 0.7440(6) 0.8107(8)
C15 C 0.2109(8) 0.8334(6) 0.7803(7)
H23 H 0.2624 0.8552 0.7902
C16 C 0.1611(8) 0.8931(7) 0.7359(9)
H24 H 0.1796 0.9532 0.7145
C17 C 0.0841(9) 0.8626(6) 0.7238(9)
C18 C 0.0672(9) 0.7754(6) 0.7461(10)
H25 H 0.0180 0.7528 0.7332
C19 C 0.1188(9) 0.7179(7) 0.7870(10)
H26 H 0.1049 0.6567 0.7997
C20 C 0.5078(7) 0.6621(6) 0.9401(7)
C21 C 0.4579(10) 0.7387(7) 0.9798(8)
H27 H 0.3934 0.7200 1.0144
H28 H 0.4872 0.7504 1.0222
C22 C 0.4550(10) 0.8220(7) 0.9192(8)
H29 H 0.4308 0.8098 0.8734
H30 H 0.5191 0.8442 0.8887
C23 C 0.3980(11) 0.8939(10) 0.9602(10)
C24 C 0.4161(12) 0.9365(9) 1.0192(10)
H31 H 0.4689 0.9196 1.0367
C25 C 0.3593(11) 1.0038(10) 1.0545(11)
H32 H 0.3716 1.0302 1.0973
C26 C 0.2866(10) 1.0303(8) 1.0259(10)
C27 C 0.2658(11) 0.9846(9) 0.9713(10)
H33 H 0.2115 0.9997 0.9557
C28 C 0.3215(11) 0.9167(9) 0.9375(10)
H34 H 0.3056 0.8868 0.8990
C29 C 0.7325(6) 0.4426(6) 0.8855(6)
C30 C 0.8313(7) 0.4163(6) 0.8786(7)
H35 H 0.8673 0.4166 0.8156
H36 H 0.8314 0.3551 0.9119
C31 C 0.8789(7) 0.4761(7) 0.9136(8)
H37 H 0.8466 0.4716 0.9780
H38 H 0.8742 0.5380 0.8840
C32 C 0.9812(7) 0.4532(6) 0.8984(7)
C33 C 1.0089(7) 0.3913(7) 0.9597(7)
H39 H 0.9629 0.3605 1.0104
C34 C 1.1007(7) 0.3729(7) 0.9497(7)
H40 H 1.1177 0.3304 0.9927
C35 C 1.1680(7) 0.4184(6) 0.8749(6)
C36 C 1.1413(7) 0.4778(6) 0.8118(7)
H41 H 1.1867 0.5076 0.7600
C37 C 1.0497(8) 0.4937(7) 0.8240(7)
H42 H 1.0326 0.5341 0.7796
C38 C 0.7225(7) 0.5907(7) 0.6562(7)
C39 C 0.8189(7) 0.6334(6) 0.6139(7)
H43 H 0.8202 0.6809 0.5625
H44 H 0.8358 0.6590 0.6575
C40 C 0.8833(8) 0.5628(8) 0.5852(9)
H45 H 0.8616 0.5334 0.5470
H46 H 0.8850 0.5181 0.6377
C41 C 0.9830(9) 0.6014(8) 0.5326(9)
C42 C 1.0490(9) 0.6034(9) 0.5732(9)
H47 H 1.0334 0.5808 0.6351
C43 C 1.1369(8) 0.6372(8) 0.5267(8)
H48 H 1.1812 0.6373 0.5560
C44 C 1.1588(7) 0.6703(7) 0.4380(7)
C45 C 1.0953(8) 0.6696(7) 0.3945(8)
H49 H 1.1117 0.6912 0.3324
C46 C 1.0065(8) 0.6365(8) 0.4436(9)
H50 H 0.9616 0.6383 0.4148
C47 C 0.3761(8) 0.4181(7) 0.6352(7)
C48 C 0.3100(8) 0.3377(7) 0.6599(8)
H51 H 0.3452 0.2875 0.6357
H52 H 0.2853 0.3194 0.7252
C49 C 0.2335(8) 0.3587(7) 0.6251(8)
H53 H 0.2567 0.3703 0.5594
H54 H 0.2008 0.4119 0.6446
C50 C 0.1669(10) 0.2783(8) 0.6610(9)
C51 C 0.1825(9) 0.2072(8) 0.6180(8)
H55 H 0.2337 0.2091 0.5653
C52 C 0.1246(8) 0.1331(7) 0.6505(8)
H56 H 0.1368 0.0849 0.6204
C53 C 0.0501(8) 0.1308(6) 0.7261(8)
C54 C 0.0379(8) 0.1987(7) 0.7712(8)
H57 H -0.0119 0.1962 0.8251
C55 C 0.0964(9) 0.2699(8) 0.7397(9)
H58 H 0.0877 0.3148 0.7736
C56 C 0.4746(7) 0.7083(6) 0.5467(7)
C57 C 0.4431(7) 0.7956(6) 0.5072(7)
H59 H 0.4612 0.8000 0.4423
H60 H 0.4762 0.8429 0.5178
C58 C 0.3391(7) 0.8126(6) 0.5430(8)
H61 H 0.3052 0.7661 0.5323
H62 H 0.3203 0.8092 0.6078
C59 C 0.3133(7) 0.9013(6) 0.4999(8)
C60 C 0.3473(7) 0.9788(6) 0.5083(7)
H63 H 0.3871 0.9753 0.5429
C61 C 0.3249(7) 1.0613(6) 0.4678(7)
H64 H 0.3494 1.1137 0.4738
C62 C 0.2666(7) 1.0652(6) 0.4188(7)
C63 C 0.2307(7) 0.9899(6) 0.4098(8)
H65 H 0.1906 0.9944 0.3755
C64 C 0.2523(8) 0.9080(6) 0.4501(8)
H66 H 0.2264 0.8562 0.4445
H67 H -0.030(11) 0.039(9) 0.721(9)
H68 H 1.263(10) 0.344(2) 0.865(10)
H69 H 0.305(9) 0.2536(18) 1.015(3)
Nd1A Nd 0.43936(4) 0.49401(3) 1.14219(3)
Nd2A Nd 0.46253(4) 0.46555(3) 0.39396(3)
Na1_2 Na 1.3339(3) 0.4091(2) 0.9714(3)
Na1A Na 0.6661(3) 0.5909(2) 1.0286(3)
O9A O 0.4928(5) 0.4122(4) 1.0093(4)
O13A O 0.3032(4) 0.4913(4) 1.0835(4)
O14_2 O 0.2610(5) 0.4017(4) 0.8655(5)
O19A O 0.5683(5) 0.5592(4) 0.4416(4)
O24 O 0.5911(5) 0.7716(4) 0.6861(5)
H70 H 0.558(6) 0.746(6) 0.742(3)
H71 H 0.567(9) 0.742(7) 0.656(8)
O25 O 0.7185(7) 0.2543(6) 0.7801(7)
H72 H 0.7244 0.3013 0.7960
C65 C 0.7739(12) 0.1849(10) 0.8144(11)
H73 H 0.7563 0.1787 0.8789
H74 H 0.8396 0.2005 0.7871
H75 H 0.7630 0.1289 0.8001
O26 O 0.9388(5) 0.8427(5) 0.6150(6)
H76 H 0.8815 0.8383 0.6260
C66 C 0.9847(12) 0.8505(10) 0.5221(11)
H77 H 0.9804 0.9116 0.4921
H78 H 0.9553 0.8110 0.4991
H79 H 1.0498 0.8345 0.5113
O27 O 0.0598(7) 0.0640(6) 1.0709(6)
C67 C -0.0039(12) 0.1197(10) 1.0350(11)
H80 H -0.0467 0.1478 1.0815
H81 H -0.0390 0.0838 1.0138
H82 H 0.0309 0.1653 0.9857
H83 H 0.083(10) 0.012(5) 1.100(9)
loop_
_geom_bond_atom_site_label_1
_geom_bond_atom_site_label_2
_geom_bond_site_symmetry_1
_geom_bond_site_symmetry_2
Nd1 O1 1_555 1_555
Nd2 O1 1_555 1_555
Na1 O3 1_555 1_555
O1 C1 1_555 1_555
O2 Nd2 1_555 1_555
H1 O2 1_555 1_555
H2 O2 1_555 1_555
O3 Nd1 1_555 1_555
O4 Na1 1_555 1_555
O5 H3 1_555 1_555
O6 Nd1 1_555 1_555
O7 Nd1 1_555 1_555
O8 H4 1_555 1_555
O9 Nd1 1_555 1_555
O10 Nd1 1_555 1_555
O11 H5 1_555 1_555
O12 Nd1 1_555 1_555
O13 Nd1 1_555 1_555
O14 C35 1_555 1_555
O15 Nd1 1_555 1_555
O16 Nd2 1_555 1_555
O17 H6 1_555 1_555
O18 Nd2 1_555 1_555
O19 Nd2 1_555 1_555
O20 C53 1_555 1_555
O21 Nd2 1_555 1_555
O22 Nd2 1_555 1_555
O23 H7 1_555 1_555
C1 O3 1_555 1_555
C2 C1 1_555 1_555
H8 C2 1_555 1_555
H9 C2 1_555 1_555
C3 O4 1_555 1_555
H10 C3 1_555 1_555
H11 C3 1_555 1_555
H12 C3 1_555 1_555
C4 C2 1_555 1_555
H13 C4 1_555 1_555
H14 C4 1_555 1_555
C5 C4 1_555 1_555
C6 C5 1_555 1_555
H15 C6 1_555 1_555
C7 C6 1_555 1_555
H16 C7 1_555 1_555
C8 O5 1_555 1_555
C9 C8 1_555 1_555
H17 C9 1_555 1_555
C10 C5 1_555 1_555
H18 C10 1_555 1_555
C11 O6 1_555 1_555
C12 C11 1_555 1_555
H19 C12 1_555 1_555
H20 C12 1_555 1_555
C13 C12 1_555 1_555
H21 C13 1_555 1_555
H22 C13 1_555 1_555
C14 C13 1_555 1_555
C15 C14 1_555 1_555
H23 C15 1_555 1_555
C16 C15 1_555 1_555
H24 C16 1_555 1_555
C17 O8 1_555 1_555
C18 C17 1_555 1_555
H25 C18 1_555 1_555
C19 C14 1_555 1_555
H26 C19 1_555 1_555
C20 O9 1_555 1_555
C21 C20 1_555 1_555
H27 C21 1_555 1_555
H28 C21 1_555 1_555
C22 C21 1_555 1_555
H29 C22 1_555 1_555
H30 C22 1_555 1_555
C23 C22 1_555 1_555
C24 C23 1_555 1_555
H31 C24 1_555 1_555
C25 C24 1_555 1_555
H32 C25 1_555 1_555
C26 O11 1_555 1_555
C27 C26 1_555 1_555
H33 C27 1_555 1_555
C28 C23 1_555 1_555
H34 C28 1_555 1_555
C29 O12 1_555 1_555
C30 C29 1_555 1_555
H35 C30 1_555 1_555
H36 C30 1_555 1_555
C31 C30 1_555 1_555
H37 C31 1_555 1_555
H38 C31 1_555 1_555
C32 C31 1_555 1_555
C33 C32 1_555 1_555
H39 C33 1_555 1_555
C34 C33 1_555 1_555
H40 C34 1_555 1_555
C35 C34 1_555 1_555
C36 C35 1_555 1_555
H41 C36 1_555 1_555
C37 C32 1_555 1_555
H42 C37 1_555 1_555
C38 O15 1_555 1_555
C39 C38 1_555 1_555
H43 C39 1_555 1_555
H44 C39 1_555 1_555
C40 C39 1_555 1_555
H45 C40 1_555 1_555
H46 C40 1_555 1_555
C41 C40 1_555 1_555
C42 C41 1_555 1_555
H47 C42 1_555 1_555
C43 C42 1_555 1_555
H48 C43 1_555 1_555
C44 O17 1_555 1_555
C45 C44 1_555 1_555
H49 C45 1_555 1_555
C46 C41 1_555 1_555
H50 C46 1_555 1_555
C47 O18 1_555 1_555
C48 C47 1_555 1_555
H51 C48 1_555 1_555
H52 C48 1_555 1_555
C49 C48 1_555 1_555
H53 C49 1_555 1_555
H54 C49 1_555 1_555
C50 C49 1_555 1_555
C51 C50 1_555 1_555
H55 C51 1_555 1_555
C52 C51 1_555 1_555
H56 C52 1_555 1_555
C53 C52 1_555 1_555
C54 C53 1_555 1_555
H57 C54 1_555 1_555
C55 C50 1_555 1_555
H58 C55 1_555 1_555
C56 O21 1_555 1_555
C57 C56 1_555 1_555
H59 C57 1_555 1_555
H60 C57 1_555 1_555
C58 C57 1_555 1_555
H61 C58 1_555 1_555
H62 C58 1_555 1_555
C59 C58 1_555 1_555
C60 C59 1_555 1_555
H63 C60 1_555 1_555
C61 C60 1_555 1_555
H64 C61 1_555 1_555
C62 O23 1_555 1_555
C63 C62 1_555 1_555
H65 C63 1_555 1_555
C64 C59 1_555 1_555
H66 C64 1_555 1_555
H67 O20 1_555 1_555
H68 O14 1_555 1_555
H69 O4 1_555 1_555
O24 H70 1_555 1_555
H71 O24 1_555 1_555
O25 H72 1_555 1_555
C65 O25 1_555 1_555
H73 C65 1_555 1_555
H74 C65 1_555 1_555
H75 C65 1_555 1_555
O26 H76 1_555 1_555
C66 O26 1_555 1_555
H77 C66 1_555 1_555
H78 C66 1_555 1_555
H79 C66 1_555 1_555
O27 C67 1_555 1_555
C67 H80 1_555 1_555
H81 C67 1_555 1_555
H82 C67 1_555 1_555
H83 O27 1_555 1_555
Nd1A O9 1_555 1_555
Nd2A O19 1_555 1_555
Na1_2 O14 1_555 1_555
Na1A O9 1_555 1_555
O9A Nd1 1_555 1_555
O13A Na1 1_555 1_555
O14_2 Na1 1_555 1_555
O19A Nd2 1_555 1_555
Nd2 O6 1_555 1_555
Na1 O7 1_555 1_555
Na1 O9A 1_555 1_555
O7 C11 1_555 1_555
O10 C20 1_555 1_555
O13 C29 1_555 1_555
O13 Na1A 1_555 1_555
O16 C38 1_555 1_555
O19 C47 1_555 1_555
O22 C56 1_555 1_555
C7 C8 1_555 1_555
C9 C10 1_555 1_555
C16 C17 1_555 1_555
C18 C19 1_555 1_555
C25 C26 1_555 1_555
C27 C28 1_555 1_555
C36 C37 1_555 1_555
C43 C44 1_555 1_555
C45 C46 1_555 1_555
C54 C55 1_555 1_555
C61 C62 1_555 1_555
C63 C64 1_555 1_555
Nd1A O9A 1_555 1_555
Nd1A O13A 1_555 1_555
Nd2A O19A 1_555 1_555

#END
