
#######################################################################
#
#                 Cambridge Crystallographic Data Centre
#                                CCDC 
#
#######################################################################
#
# If this CIF has been generated from an entry in the Cambridge 
# Structural Database, then it will include bibliographic, chemical, 
# crystal, experimental, refinement or atomic coordinate data resulting 
# from the CCDC's data processing and validation procedures.
#
#######################################################################

data_BURREM
_symmetry_cell_setting           monoclinic
_symmetry_space_group_name_H-M   'C 2/c'
_symmetry_Int_Tables_number      15
_space_group_name_Hall           '-C 2yn'
loop_
_symmetry_equiv_pos_site_id
_symmetry_equiv_pos_as_xyz
1 x,y,z
2 -x,y,1/2-z
3 1/2+x,1/2+y,z
4 1/2-x,1/2+y,1/2-z
5 -x,-y,-z
6 x,-y,1/2+z
7 1/2-x,1/2-y,-z
8 1/2+x,1/2-y,1/2+z
_cell_length_a                   16.451(3)
_cell_length_b                   11.418(2)
_cell_length_c                   20.674(4)
_cell_angle_alpha                90
_cell_angle_beta                 111.96(3)
_cell_angle_gamma                90
_cell_volume                     3601.6
loop_
_atom_site_label
_atom_site_type_symbol
_atom_site_fract_x
_atom_site_fract_y
_atom_site_fract_z
O1 O 0.09678(17) 0.0586(2) 0.34925(12)
Co1 Co 0.0000 0.05955(5) 0.2500
Co2 Co 0.0000 0.0000 0.0000
N1 N 0.0000 -0.1289(3) 0.2500
N2 N -0.00043(17) 0.1884(2) -0.00261(13)
N3 N 0.0000 -0.7492(3) 0.2500
S1 S 0.20772(6) -0.02510(8) 0.05553(5)
O2 O 0.10561(15) 0.0736(2) 0.21608(11)
O3 O 0.12478(15) -0.01607(19) -0.00576(12)
O4 O 0.28125(16) -0.0347(2) 0.03410(13)
O5 O 0.20534(16) -0.1146(2) 0.10464(12)
O6 O 0.04842(15) 0.00831(18) 0.10688(11)
C1 C 0.1698(2) 0.1434(3) 0.13833(17)
C2 C 0.2165(2) 0.1138(3) 0.09624(17)
C3 C 0.2687(2) 0.1959(3) 0.08116(19)
H1 H 0.3004 0.1746 0.0540
C4 C 0.2744(3) 0.3097(3) 0.10613(19)
H2 H 0.3083 0.3648 0.0945
C5 C 0.2298(2) 0.3406(3) 0.14786(19)
H3 H 0.2333 0.4168 0.1646
C6 C 0.1795(2) 0.2576(3) 0.16510(19)
H4 H 0.1516 0.2783 0.1951
C7 C 0.1050(2) 0.0661(3) 0.15494(17)
C8 C 0.0603(2) -0.1891(3) 0.23457(19)
H5 H 0.1019 -0.1480 0.2231
C9 C 0.0629(2) -0.3104(3) 0.23503(19)
H6 H 0.1066 -0.3494 0.2253
C10 C 0.0000 -0.3735(4) 0.2500
C11 C 0.0000 -0.5035(4) 0.2500
C12 C 0.0287(3) 0.2505(3) -0.0440(2)
H7 H 0.0488 0.2105 -0.0742
C13 C 0.0305(3) 0.3716(3) -0.0443(2)
H8 H 0.0525 0.4109 -0.0736
C14 C -0.0006(2) 0.4349(3) -0.00074(17)
C15 C -0.0314(2) 0.3700(3) 0.04138(18)
H9 H -0.0526 0.4076 0.0718
C16 C -0.0308(2) 0.2497(3) 0.03863(19)
H10 H -0.0529 0.2085 0.0672
C17 C 0.0734(2) -0.6871(3) 0.28312(17)
H11 H 0.1249 -0.7279 0.3068
C18 C 0.0764(2) -0.5663(3) 0.28392(17)
H12 H 0.1290 -0.5275 0.3069
H13 H 0.084(3) 0.039(4) 0.3817(17)
H14 H 0.1474(16) 0.083(4) 0.361(2)
O1A O -0.09678(17) 0.0586(2) 0.15075(12)
Co1_2 Co 0.0000 -0.94045(5) 0.2500
Co2_2 Co 0.0000 1.0000 0.0000
Co2A Co 0.0000 0.0000 0.5000
N2D N 0.00043(17) 0.8116(2) 0.00261(13)
N2D_2 N 0.00043(17) -0.1884(2) 0.00261(13)
N3_2 N 0.0000 0.2508(3) 0.2500
S1A S -0.20772(6) -0.02510(8) 0.44447(5)
O2A O -0.10561(15) 0.0736(2) 0.28392(11)
O3A O -0.12478(15) -0.01607(19) 0.50576(12)
O3D O -0.12478(15) 0.01607(19) 0.00576(12)
O4A O -0.28125(16) -0.0347(2) 0.46590(13)
O5A O -0.20534(16) -0.1146(2) 0.39536(12)
O6A O -0.04842(15) 0.00831(18) 0.39312(11)
O6D O -0.04842(15) -0.00831(18) -0.10688(11)
C1A C -0.1698(2) 0.1434(3) 0.36167(17)
C2A C -0.2165(2) 0.1138(3) 0.40376(17)
C3A C -0.2687(2) 0.1959(3) 0.41884(19)
H1A H -0.3004 0.1746 0.4460
C4A C -0.2744(3) 0.3097(3) 0.39387(19)
H2A H -0.3083 0.3648 0.4055
C5A C -0.2298(2) 0.3406(3) 0.35214(19)
H3A H -0.2333 0.4168 0.3354
C6A C -0.1795(2) 0.2576(3) 0.33490(19)
H4A H -0.1516 0.2783 0.3049
C7A C -0.1050(2) 0.0661(3) 0.34506(17)
C8A C -0.0603(2) -0.1891(3) 0.26543(19)
H5A H -0.1019 -0.1480 0.2769
C9A C -0.0629(2) -0.3104(3) 0.26497(19)
H6A H -0.1066 -0.3494 0.2747
C12D C -0.0287(3) 0.7495(3) 0.0440(2)
H7D H -0.0488 0.7895 0.0742
C13D C -0.0305(3) 0.6284(3) 0.0443(2)
H8D H -0.0525 0.5891 0.0736
C14D C 0.0006(2) 0.5651(3) 0.00074(17)
C15D C 0.0314(2) 0.6300(3) -0.04138(18)
H9D H 0.0526 0.5924 -0.0718
C16D C 0.0308(2) 0.7503(3) -0.03863(19)
H10D H 0.0529 0.7915 -0.0672
C17A C -0.0734(2) -0.6871(3) 0.21688(17)
H11A H -0.1249 -0.7279 0.1932
C18A C -0.0764(2) -0.5663(3) 0.21608(17)
H12A H -0.1290 -0.5275 0.1931
H13A H -0.084(3) 0.039(4) 0.1183(17)
H14A H -0.1474(16) 0.083(4) 0.139(2)
O7 O 0.2628(2) 0.8614(3) 0.90194(17)
H15 H 0.270(4) 0.781(5) 0.904(3)
H16 H 0.275(3) 0.876(5) 0.945(3)
loop_
_geom_bond_atom_site_label_1
_geom_bond_atom_site_label_2
_geom_bond_site_symmetry_1
_geom_bond_site_symmetry_2
O1 Co1 1_555 1_555
Co1 N1 1_555 1_555
Co2 N2 1_555 1_555
N1 C8 1_555 1_555
N2 C12 1_555 1_555
N3 C17 1_555 1_555
S1 O3 1_555 1_555
O2 Co1 1_555 1_555
O3 Co2 1_555 1_555
O4 S1 1_555 1_555
O5 S1 1_555 1_555
O6 Co2 1_555 1_555
C1 C2 1_555 1_555
C2 S1 1_555 1_555
C3 C2 1_555 1_555
H1 C3 1_555 1_555
C4 C3 1_555 1_555
H2 C4 1_555 1_555
C5 C4 1_555 1_555
H3 C5 1_555 1_555
C6 C1 1_555 1_555
H4 C6 1_555 1_555
C7 O2 1_555 1_555
C8 H5 1_555 1_555
C9 C8 1_555 1_555
H6 C9 1_555 1_555
C10 C9 1_555 1_555
C11 C10 1_555 1_555
C12 H7 1_555 1_555
C13 C12 1_555 1_555
H8 C13 1_555 1_555
C14 C13 1_555 1_555
C15 C14 1_555 1_555
H9 C15 1_555 1_555
C16 N2 1_555 1_555
H10 C16 1_555 1_555
C17 H11 1_555 1_555
C18 C11 1_555 1_555
H12 C18 1_555 1_555
H13 O1 1_555 1_555
H14 O1 1_555 1_555
O7 H15 1_555 1_555
H16 O7 1_555 1_555
O1A Co1 1_555 1_555
Co1_2 N3 1_555 1_555
Co2_2 N2D 1_555 1_555
Co2A O3A 1_555 1_555
N2D C12D 1_555 1_555
N2D_2 Co2 1_555 1_555
N3_2 Co1 1_555 1_555
S1A O3A 1_555 1_555
O2A Co1 1_555 1_555
O3D Co2 1_555 1_555
O4A S1A 1_555 1_555
O5A S1A 1_555 1_555
O6A Co2A 1_555 1_555
O6D Co2 1_555 1_555
C1A C2A 1_555 1_555
C2A S1A 1_555 1_555
C3A C2A 1_555 1_555
H1A C3A 1_555 1_555
C4A C3A 1_555 1_555
H2A C4A 1_555 1_555
C5A C4A 1_555 1_555
H3A C5A 1_555 1_555
C6A C1A 1_555 1_555
H4A C6A 1_555 1_555
C7A O2A 1_555 1_555
C8A N1 1_555 1_555
H5A C8A 1_555 1_555
C9A C10 1_555 1_555
H6A C9A 1_555 1_555
C12D H7D 1_555 1_555
C13D C12D 1_555 1_555
H8D C13D 1_555 1_555
C14D C14 1_555 1_555
C15D C14D 1_555 1_555
H9D C15D 1_555 1_555
C16D N2D 1_555 1_555
H10D C16D 1_555 1_555
C17A N3 1_555 1_555
H11A C17A 1_555 1_555
C18A C11 1_555 1_555
H12A C18A 1_555 1_555
H13A O1A 1_555 1_555
H14A O1A 1_555 1_555
O6 C7 1_555 1_555
C1 C7 1_555 1_555
C5 C6 1_555 1_555
C15 C16 1_555 1_555
C17 C18 1_555 1_555
O6A C7A 1_555 1_555
C1A C7A 1_555 1_555
C5A C6A 1_555 1_555
C8A C9A 1_555 1_555
C13D C14D 1_555 1_555
C15D C16D 1_555 1_555
C17A C18A 1_555 1_555

#END
