
#######################################################################
#
#                 Cambridge Crystallographic Data Centre
#                                CCDC 
#
#######################################################################
#
# If this CIF has been generated from an entry in the Cambridge 
# Structural Database, then it will include bibliographic, chemical, 
# crystal, experimental, refinement or atomic coordinate data resulting 
# from the CCDC's data processing and validation procedures.
#
#######################################################################

data_BURRIR
_symmetry_cell_setting           monoclinic
_symmetry_space_group_name_H-M   'P 21/c'
_symmetry_Int_Tables_number      14
_space_group_name_Hall           '-P 2ybc'
loop_
_symmetry_equiv_pos_site_id
_symmetry_equiv_pos_as_xyz
1 x,y,z
2 -x,1/2+y,1/2-z
3 -x,-y,-z
4 x,1/2-y,1/2+z
_cell_length_a                   13.345(3)
_cell_length_b                   8.0505(16)
_cell_length_c                   24.550(5)
_cell_angle_alpha                90
_cell_angle_beta                 96.45(3)
_cell_angle_gamma                90
_cell_volume                     2620.81
loop_
_atom_site_label
_atom_site_type_symbol
_atom_site_fract_x
_atom_site_fract_y
_atom_site_fract_z
Lu1 Lu 0.52601(3) 0.90940(4) 0.76211(2)
O1 O 0.5976(5) 0.7966(8) 0.8436(2)
C1 C 0.5517(7) 0.6612(12) 0.8423(4)
O2 O 0.4946(5) 0.6281(8) 0.7978(2)
C2 C 0.5629(7) 0.5449(12) 0.8895(4)
H1 H 0.6209 0.4707 0.8857
H2 H 0.5017 0.4747 0.8878
O3 O 0.2396(5) 0.9183(9) 1.0309(3)
H3 H 0.181(5) 0.872(14) 1.010(4)
C3 C 0.5789(7) 0.6281(13) 0.9461(4)
H4 H 0.6036 0.5430 0.9735
H5 H 0.6326 0.7128 0.9456
O4 O 0.3846(5) 0.8421(9) 0.7115(2)
C4 C 0.4869(7) 0.7106(11) 0.9650(4)
O5 O 0.3451(5) 0.5722(8) 0.7089(3)
C5 C 0.4958(7) 0.7804(13) 1.0172(4)
H6 H 0.5600 0.7799 1.0384
O6 O -0.0273(4) 0.7119(9) 0.8855(2)
H7 H -0.090(4) 0.771(11) 0.890(4)
C6 C 0.4148(7) 0.8508(13) 1.0395(4)
H8 H 0.4232 0.8969 1.0753
O7 O 0.6193(5) 0.7805(8) 0.7081(3)
C7 C 0.3203(7) 0.8526(12) 1.0082(4)
O8 O 0.5767(5) 0.5214(9) 0.6848(3)
C8 C 0.3111(7) 0.7884(12) 0.9559(4)
H9 H 0.2474 0.7907 0.9343
O9 O 1.0606(5) 0.7178(9) 0.4886(3)
H10 H 1.040(7) 0.766(12) 0.453(2)
C9 C 0.3941(7) 0.7199(13) 0.9343(4)
H11 H 0.3865 0.6789 0.8978
C10 C 0.3239(7) 0.7220(12) 0.7003(3)
C11 C 0.2189(6) 0.7633(12) 0.6725(4)
H12 H 0.1764 0.6625 0.6726
H13 H 0.2244 0.7926 0.6338
C12 C 0.1656(7) 0.9060(11) 0.6992(4)
H14 H 0.2155 0.9935 0.7109
H15 H 0.1142 0.9552 0.6716
C13 C 0.1143(6) 0.8495(12) 0.7490(4)
C14 C 0.1636(6) 0.7580(11) 0.7920(4)
H16 H 0.2318 0.7261 0.7905
C15 C 0.1161(7) 0.7120(12) 0.8371(4)
H17 H 0.1514 0.6499 0.8660
C16 C 0.0165(6) 0.7577(11) 0.8394(4)
C17 C -0.0353(6) 0.8461(12) 0.7969(4)
H18 H -0.1039 0.8756 0.7983
C18 C 0.0140(7) 0.8912(12) 0.7523(4)
H19 H -0.0217 0.9523 0.7232
C19 C 0.6307(6) 0.6482(12) 0.6817(4)
C20 C 0.7127(6) 0.6425(11) 0.6442(4)
H20 H 0.6826 0.6045 0.6076
H21 H 0.7630 0.5583 0.6585
C21 C 0.7672(7) 0.8044(12) 0.6372(4)
H22 H 0.8001 0.8415 0.6733
H23 H 0.7177 0.8903 0.6234
C22 C 0.8464(7) 0.7876(12) 0.5976(4)
C23 C 0.8353(6) 0.8642(12) 0.5480(4)
H24 H 0.7780 0.9327 0.5386
C24 C 0.9048(7) 0.8456(12) 0.5108(4)
H25 H 0.8955 0.9007 0.4764
C25 C 0.9883(6) 0.7454(12) 0.5244(4)
C26 C 1.0024(7) 0.6679(12) 0.5752(4)
H26 H 1.0597 0.5994 0.5848
C27 C 0.9325(7) 0.6917(13) 0.6116(4)
H27 H 0.9430 0.6419 0.6469
Lu1A Lu 0.47399(3) 0.40940(4) 0.73789(2)
O2A O 0.5054(5) 1.1281(8) 0.7022(2)
O5A O 0.6549(5) 1.0722(8) 0.7911(3)
O8A O 0.4233(5) 1.0214(9) 0.8152(3)
O10 O 0.7950(5) 0.8479(10) 0.8910(3)
H28 H 0.731(6) 0.802(17) 0.873(5)
H29 H 0.796(9) 0.900(12) 0.927(2)
loop_
_geom_bond_atom_site_label_1
_geom_bond_atom_site_label_2
_geom_bond_site_symmetry_1
_geom_bond_site_symmetry_2
Lu1 O1 1_555 1_555
O1 C1 1_555 1_555
C1 O2 1_555 1_555
O2 Lu1 1_555 1_555
C2 C1 1_555 1_555
H1 C2 1_555 1_555
H2 C2 1_555 1_555
O3 H3 1_555 1_555
C3 C2 1_555 1_555
H4 C3 1_555 1_555
H5 C3 1_555 1_555
O4 Lu1 1_555 1_555
C4 C3 1_555 1_555
O5 C10 1_555 1_555
C5 C4 1_555 1_555
H6 C5 1_555 1_555
O6 H7 1_555 1_555
C6 C5 1_555 1_555
H8 C6 1_555 1_555
O7 Lu1 1_555 1_555
C7 O3 1_555 1_555
O8 C19 1_555 1_555
C8 C7 1_555 1_555
H9 C8 1_555 1_555
O9 H10 1_555 1_555
C9 C4 1_555 1_555
H11 C9 1_555 1_555
C10 O4 1_555 1_555
C11 C10 1_555 1_555
H12 C11 1_555 1_555
H13 C11 1_555 1_555
C12 C11 1_555 1_555
H14 C12 1_555 1_555
H15 C12 1_555 1_555
C13 C12 1_555 1_555
C14 C13 1_555 1_555
H16 C14 1_555 1_555
C15 C14 1_555 1_555
H17 C15 1_555 1_555
C16 O6 1_555 1_555
C17 C16 1_555 1_555
H18 C17 1_555 1_555
C18 C13 1_555 1_555
H19 C18 1_555 1_555
C19 O7 1_555 1_555
C20 C19 1_555 1_555
H20 C20 1_555 1_555
H21 C20 1_555 1_555
C21 C20 1_555 1_555
H22 C21 1_555 1_555
H23 C21 1_555 1_555
C22 C21 1_555 1_555
C23 C22 1_555 1_555
H24 C23 1_555 1_555
C24 C23 1_555 1_555
H25 C24 1_555 1_555
C25 O9 1_555 1_555
C26 C25 1_555 1_555
H26 C26 1_555 1_555
C27 C22 1_555 1_555
H27 C27 1_555 1_555
O10 H28 1_555 1_555
H29 O10 1_555 1_555
Lu1A O2 1_555 1_555
O2A Lu1 1_555 1_555
O5A Lu1 1_555 1_555
O8A Lu1 1_555 1_555
O5 Lu1A 1_555 1_555
C6 C7 1_555 1_555
O8 Lu1A 1_555 1_555
C8 C9 1_555 1_555
C15 C16 1_555 1_555
C17 C18 1_555 1_555
C24 C25 1_555 1_555
C26 C27 1_555 1_555

#END
