
#######################################################################
#
#                 Cambridge Crystallographic Data Centre
#                                CCDC 
#
#######################################################################
#
# If this CIF has been generated from an entry in the Cambridge 
# Structural Database, then it will include bibliographic, chemical, 
# crystal, experimental, refinement or atomic coordinate data resulting 
# from the CCDC's data processing and validation procedures.
#
#######################################################################

data_BURROX
_symmetry_cell_setting           triclinic
_symmetry_space_group_name_H-M   'P -1'
_symmetry_Int_Tables_number      2
_space_group_name_Hall           '-P 1'
loop_
_symmetry_equiv_pos_site_id
_symmetry_equiv_pos_as_xyz
1 x,y,z
2 -x,-y,-z
_cell_length_a                   15.0063(7)
_cell_length_b                   15.3267(7)
_cell_length_c                   16.4093(7)
_cell_angle_alpha                103.726(2)
_cell_angle_beta                 107.053(2)
_cell_angle_gamma                94.662(2)
_cell_volume                     3458.56
loop_
_atom_site_label
_atom_site_type_symbol
_atom_site_fract_x
_atom_site_fract_y
_atom_site_fract_z
Ce1 Ce 0.56172(8) 0.01785(8) 0.14252(7)
Ce2 Ce 0.53198(8) 0.04323(8) 0.39350(7)
Na1 Na 0.3269(6) -0.1150(5) 0.0313(6)
O1 O 0.4734(9) 0.0874(12) 0.2528(8)
O2 O 0.6449(13) -0.0571(12) 0.4492(11)
H1 H 0.7096 -0.0439 0.4542
H2 H 0.6232 -0.1083 0.4653
O3 O 0.3901(9) 0.0282(12) 0.1109(8)
O4 O 0.2752(16) -0.2617(11) -0.0597(12)
H3 H 0.3052 -0.2852 -0.1019
H4 H 0.2239 -0.2986 -0.0550
O5 O -0.0216(17) 0.3402(12) 0.2619(18)
H5 H -0.0737 0.3072 0.2505
O6 O 0.5690(10) -0.0634(9) 0.2678(9)
O7 O 0.4650(10) -0.1302(9) 0.1369(11)
O8 O 0.4274(15) -0.6117(12) 0.3101(14)
O9 O 0.6935(10) -0.0733(11) 0.1372(9)
O10 O 0.7027(11) 0.0468(11) 0.0872(9)
O11 O 1.2509(11) -0.1189(14) 0.1378(10)
O12 O 0.5485(10) 0.1870(9) 0.1456(9)
O13 O 0.5131(10) 0.0919(9) 0.0135(8)
O14 O 0.231(3) 0.545(2) -0.093(3)
O15 O 0.7019(12) 0.1128(11) 0.2635(10)
O16 O 0.6724(12) 0.1128(11) 0.3887(9)
O17 O 1.2576(13) 0.1681(17) 0.6341(12)
H6 H 1.2634 0.1657 0.6860
O18 O 0.3694(11) -0.0696(8) 0.3066(8)
O19 O 0.4336(9) -0.0768(9) 0.4389(9)
O20 O -0.0506(15) -0.5061(16) 0.216(3)
O21 O 0.3987(12) 0.1246(10) 0.4296(9)
O22 O 0.5364(12) 0.2172(10) 0.4456(10)
O23 O 0.2510(14) 0.6377(11) 0.6231(11)
C1 C 0.3940(14) 0.0831(17) 0.1925(11)
C2 C 0.3245(17) 0.1352(15) 0.2119(12)
H7 H 0.3545 0.1999 0.2355
H8 H 0.3074 0.1172 0.2601
C3 C 0.2336(18) 0.1290(18) 0.1378(17)
H9 H 0.2035 0.0644 0.1117
H10 H 0.2487 0.1513 0.0907
C4 C 0.1639(14) 0.1844(15) 0.1697(14)
C5 C 0.191(2) 0.2730(19) 0.215(2)
H11 H 0.2548 0.2987 0.2277
C6 C 0.1304(15) 0.3329(18) 0.248(2)
H12 H 0.1509 0.3960 0.2765
C7 C 0.0389(15) 0.2883(15) 0.2321(14)
C8 C 0.0104(18) 0.1982(14) 0.1821(15)
H13 H -0.0541 0.1718 0.1648
C9 C 0.0748(15) 0.1449(13) 0.1563(17)
H14 H 0.0558 0.0813 0.1294
C10 C 0.5127(13) -0.1324(11) 0.2148(11)
C11 C 0.5061(15) -0.2199(15) 0.2425(14)
H15 H 0.4870 -0.2076 0.2965
H16 H 0.5699 -0.2370 0.2586
C12 C 0.4364(19) -0.3027(19) 0.1720(16)
H17 H 0.3718 -0.2874 0.1554
H18 H 0.4554 -0.3177 0.1181
C13 C 0.4375(15) -0.3856(14) 0.2111(17)
C14 C 0.3514(16) -0.427(2) 0.2218(17)
H19 H 0.2933 -0.4063 0.2004
C15 C 0.355(2) -0.496(2) 0.2629(19)
H20 H 0.3044 -0.5132 0.2825
C16 C 0.428(2) -0.5375(14) 0.2750(18)
C17 C 0.5152(17) -0.4977(13) 0.2703(15)
H21 H 0.5707 -0.5235 0.2882
C18 C 0.5185(17) -0.4183(14) 0.2382(19)
H22 H 0.5762 -0.3898 0.2363
C19 C 0.7373(11) -0.0188(12) 0.1108(12)
C20 C 0.8388(13) -0.0301(15) 0.1190(14)
H23 H 0.8500 -0.0209 0.0649
H24 H 0.8799 0.0202 0.1694
C21 C 0.8700(16) -0.110(2) 0.1309(18)
H25 H 0.8269 -0.1617 0.0830
H26 H 0.8647 -0.1175 0.1877
C22 C 0.9724(15) -0.1181(18) 0.1315(17)
C23 C 1.0490(18) -0.068(2) 0.2034(15)
H27 H 1.0336 -0.0313 0.2514
C24 C 1.1413(18) -0.0634(14) 0.2143(14)
H28 H 1.1887 -0.0285 0.2672
C25 C 1.1634(14) -0.1165(16) 0.1383(12)
C26 C 1.084(2) -0.168(2) 0.0623(16)
H29 H 1.0932 -0.2065 0.0116
C27 C 0.9922(17) -0.1584(16) 0.0677(15)
H30 H 0.9407 -0.1866 0.0155
C28 C 0.5091(14) 0.1673(13) 0.0628(12)
C29 C 0.477(3) 0.240(2) 0.022(2)
H31 H 0.4338 0.2120 -0.0389
H32 H 0.5320 0.2771 0.0189
C30 C 0.425(3) 0.302(2) 0.073(2)
H33 H 0.4712 0.3383 0.1309
H34 H 0.3768 0.2646 0.0856
C31 C 0.7276(16) 0.1207(19) 0.3447(14)
C32 C 0.838(3) 0.141(4) 0.390(2)
H35 H 0.8676 0.1407 0.3438
H36 H 0.8547 0.2037 0.4308
C33 C 0.879(2) 0.079(4) 0.441(2)
H37 H 0.8418 0.0692 0.4796
H38 H 0.8768 0.0197 0.3995
C34 C 0.9720(18) 0.118(3) 0.491(2)
C35 C 1.0362(19) 0.089(3) 0.448(3)
H39 H 1.0154 0.0544 0.3872
C36 C 1.132(2) 0.112(3) 0.4972(17)
H40 H 1.1773 0.0961 0.4682
C37 C 1.165(2) 0.158(2) 0.5877(17)
C38 C 1.1013(16) 0.191(3) 0.628(2)
H41 H 1.1223 0.2273 0.6885
C39 C 1.0056(19) 0.171(3) 0.579(3)
H42 H 0.9614 0.1946 0.6064
C40 C 0.3676(16) -0.1083(14) 0.3608(15)
C41 C 0.3046(16) -0.1902(16) 0.3328(19)
H43 H 0.2818 -0.2089 0.2672
H44 H 0.3406 -0.2371 0.3522
C42 C 0.225(2) -0.1918(19) 0.362(2)
H45 H 0.1885 -0.1457 0.3418
H46 H 0.2475 -0.1738 0.4271
C43 C 0.166(3) -0.276(2) 0.331(2)
C44 C 0.166(3) -0.346(2) 0.373(2)
H47 H 0.2192 -0.3448 0.4228
C45 C 0.093(2) -0.417(3) 0.344(2)
H48 H 0.0901 -0.4567 0.3794
C46 C 0.019(3) -0.432(2) 0.260(2)
C47 C 0.020(3) -0.369(3) 0.212(3)
H49 H -0.0256 -0.3766 0.1554
C48 C 0.092(2) -0.292(2) 0.2508(18)
H50 H 0.0913 -0.2466 0.2196
C49 C 0.4497(18) 0.2000(15) 0.4512(13)
C50 C 0.416(2) 0.2817(19) 0.500(2)
H51 H 0.4133 0.2727 0.5571
H52 H 0.4620 0.3372 0.5132
C51 C 0.322(2) 0.2958(19) 0.449(2)
H53 H 0.2742 0.2438 0.4415
H54 H 0.3224 0.2999 0.3901
C52 C 0.299(2) 0.3833(14) 0.4992(16)
C53 C 0.336(2) 0.4611(12) 0.4823(16)
H55 H 0.3711 0.4564 0.4419
C54 C 0.3216(19) 0.5450(15) 0.5257(13)
H56 H 0.3539 0.5986 0.5210
C55 C 0.2613(19) 0.5529(18) 0.576(2)
C56 C 0.216(3) 0.4707(17) 0.577(3)
H57 H 0.1668 0.4741 0.6030
C57 C 0.235(2) 0.3843(18) 0.545(2)
H58 H 0.2064 0.3310 0.5538
C58 C 0.378(2) 0.367(2) 0.022(3)
C59 C 0.284(2) 0.483(2) -0.062(3)
C60 C 0.429(2) 0.433(3) 0.000(3)
C61 C 0.379(2) 0.487(2) -0.049(3)
H59 H 0.4109 0.5260 -0.0720
C62 C 0.239(2) 0.433(3) -0.022(3)
H60 H 0.1751 0.4364 -0.0258
C63 C 0.287(2) 0.378(2) 0.024(3)
H61 H 0.2593 0.3470 0.0567
Ce1A Ce 0.43828(8) -0.01785(8) -0.14252(7)
Ce2A Ce 0.46802(8) -0.04323(8) 0.60650(7)
Na1_2 Na 1.3269(6) -0.1150(5) 0.0313(6)
Na1A Na 0.6731(6) 0.1150(5) -0.0313(6)
O10A O 0.2973(11) -0.0468(11) -0.0872(9)
O11_2 O 0.2509(11) -0.1189(14) 0.1378(10)
O13A O 0.4869(10) -0.0919(9) -0.0135(8)
O19A O 0.5664(9) 0.0768(9) 0.5611(9)
O24 O 0.7025(14) -0.2254(13) 0.1905(12)
O25 O -0.2056(11) 0.2607(11) 0.2353(11)
O26 O 0.4255(14) 0.7131(10) 0.6886(11)
loop_
_geom_bond_atom_site_label_1
_geom_bond_atom_site_label_2
_geom_bond_site_symmetry_1
_geom_bond_site_symmetry_2
Ce1 O1 1_555 1_555
Ce2 O1 1_555 1_555
Na1 O3 1_555 1_555
O1 C1 1_555 1_555
O2 Ce2 1_555 1_555
H1 O2 1_555 1_555
H2 O2 1_555 1_555
O3 Ce1 1_555 1_555
O4 Na1 1_555 1_555
H3 O4 1_555 1_555
H4 O4 1_555 1_555
O5 H5 1_555 1_555
O6 Ce1 1_555 1_555
O7 Ce1 1_555 1_555
O8 C16 1_555 1_555
O9 Ce1 1_555 1_555
O10 Ce1 1_555 1_555
O11 C25 1_555 1_555
O12 Ce1 1_555 1_555
O13 Ce1 1_555 1_555
O14 C59 1_555 1_555
O15 Ce1 1_555 1_555
O16 Ce2 1_555 1_555
O17 H6 1_555 1_555
O18 Ce2 1_555 1_555
O19 Ce2 1_555 1_555
O20 C46 1_555 1_555
O21 Ce2 1_555 1_555
O22 Ce2 1_555 1_555
O23 C55 1_555 1_555
C1 O3 1_555 1_555
C2 C1 1_555 1_555
H7 C2 1_555 1_555
H8 C2 1_555 1_555
C3 C2 1_555 1_555
H9 C3 1_555 1_555
H10 C3 1_555 1_555
C4 C3 1_555 1_555
C5 C4 1_555 1_555
H11 C5 1_555 1_555
C6 C5 1_555 1_555
H12 C6 1_555 1_555
C7 O5 1_555 1_555
C8 C7 1_555 1_555
H13 C8 1_555 1_555
C9 C4 1_555 1_555
H14 C9 1_555 1_555
C10 O6 1_555 1_555
C11 C10 1_555 1_555
H15 C11 1_555 1_555
H16 C11 1_555 1_555
C12 C11 1_555 1_555
H17 C12 1_555 1_555
H18 C12 1_555 1_555
C13 C12 1_555 1_555
C14 C13 1_555 1_555
H19 C14 1_555 1_555
C15 C14 1_555 1_555
H20 C15 1_555 1_555
C16 C15 1_555 1_555
C17 C16 1_555 1_555
H21 C17 1_555 1_555
C18 C13 1_555 1_555
H22 C18 1_555 1_555
C19 O9 1_555 1_555
C20 C19 1_555 1_555
H23 C20 1_555 1_555
H24 C20 1_555 1_555
C21 C20 1_555 1_555
H25 C21 1_555 1_555
H26 C21 1_555 1_555
C22 C21 1_555 1_555
C23 C22 1_555 1_555
H27 C23 1_555 1_555
C24 C23 1_555 1_555
H28 C24 1_555 1_555
C25 C24 1_555 1_555
C26 C25 1_555 1_555
H29 C26 1_555 1_555
C27 C22 1_555 1_555
H30 C27 1_555 1_555
C28 O12 1_555 1_555
C29 C28 1_555 1_555
H31 C29 1_555 1_555
H32 C29 1_555 1_555
C30 C29 1_555 1_555
H33 C30 1_555 1_555
H34 C30 1_555 1_555
C31 O15 1_555 1_555
C32 C31 1_555 1_555
H35 C32 1_555 1_555
H36 C32 1_555 1_555
C33 C32 1_555 1_555
H37 C33 1_555 1_555
H38 C33 1_555 1_555
C34 C33 1_555 1_555
C35 C34 1_555 1_555
H39 C35 1_555 1_555
C36 C35 1_555 1_555
H40 C36 1_555 1_555
C37 O17 1_555 1_555
C38 C37 1_555 1_555
H41 C38 1_555 1_555
C39 C34 1_555 1_555
H42 C39 1_555 1_555
C40 O18 1_555 1_555
C41 C40 1_555 1_555
H43 C41 1_555 1_555
H44 C41 1_555 1_555
C42 C41 1_555 1_555
H45 C42 1_555 1_555
H46 C42 1_555 1_555
C43 C42 1_555 1_555
C44 C43 1_555 1_555
H47 C44 1_555 1_555
C45 C44 1_555 1_555
H48 C45 1_555 1_555
C46 C45 1_555 1_555
C47 C46 1_555 1_555
H49 C47 1_555 1_555
C48 C43 1_555 1_555
H50 C48 1_555 1_555
C49 O21 1_555 1_555
C50 C49 1_555 1_555
H51 C50 1_555 1_555
H52 C50 1_555 1_555
C51 C50 1_555 1_555
H53 C51 1_555 1_555
H54 C51 1_555 1_555
C52 C51 1_555 1_555
C53 C52 1_555 1_555
H55 C53 1_555 1_555
C54 C53 1_555 1_555
H56 C54 1_555 1_555
C55 C54 1_555 1_555
C56 C55 1_555 1_555
H57 C56 1_555 1_555
C57 C52 1_555 1_555
H58 C57 1_555 1_555
C58 C30 1_555 1_555
C59 C61 1_555 1_555
C60 C58 1_555 1_555
C61 C60 1_555 1_555
H59 C61 1_555 1_555
C62 C59 1_555 1_555
H60 C62 1_555 1_555
C63 C58 1_555 1_555
H61 C63 1_555 1_555
Ce1A O13 1_555 1_555
Ce2A O19 1_555 1_555
Na1_2 O11 1_555 1_555
Na1A O10 1_555 1_555
O10A Na1 1_555 1_555
O11_2 Na1 1_555 1_555
O13A Ce1 1_555 1_555
O19A Ce2 1_555 1_555
Ce2 O6 1_555 1_555
Na1 O7 1_555 1_555
Na1 O13A 1_555 1_555
O7 C10 1_555 1_555
O10 C19 1_555 1_555
O13 C28 1_555 1_555
O13 Na1A 1_555 1_555
O16 C31 1_555 1_555
O19 C40 1_555 1_555
O22 C49 1_555 1_555
C6 C7 1_555 1_555
C8 C9 1_555 1_555
C17 C18 1_555 1_555
C26 C27 1_555 1_555
C36 C37 1_555 1_555
C38 C39 1_555 1_555
C47 C48 1_555 1_555
C56 C57 1_555 1_555
C62 C63 1_555 1_555
Ce1A O10A 1_555 1_555
Ce1A O13A 1_555 1_555
Ce2A O19A 1_555 1_555

#END
