
#######################################################################
#
#                 Cambridge Crystallographic Data Centre
#                                CCDC 
#
#######################################################################
#
# If this CIF has been generated from an entry in the Cambridge 
# Structural Database, then it will include bibliographic, chemical, 
# crystal, experimental, refinement or atomic coordinate data resulting 
# from the CCDC's data processing and validation procedures.
#
#######################################################################

data_BURREN
_symmetry_cell_setting           orthorhombic
_symmetry_space_group_name_H-M   'P n a 21'
_symmetry_Int_Tables_number      33
_space_group_name_Hall           'P 2c -2n'
loop_
_symmetry_equiv_pos_site_id
_symmetry_equiv_pos_as_xyz
1 x,y,z
2 -x,-y,1/2+z
3 1/2-x,1/2+y,1/2+z
4 1/2+x,1/2-y,z
_cell_length_a                   24.425(5)
_cell_length_b                   5.3513(11)
_cell_length_c                   22.945(5)
_cell_angle_alpha                90
_cell_angle_beta                 90
_cell_angle_gamma                90
_cell_volume                     2999.04
loop_
_atom_site_label
_atom_site_type_symbol
_atom_site_fract_x
_atom_site_fract_y
_atom_site_fract_z
Er1 Er 0.88118(2) 0.57259(10) 1.00108(5)
O1 O 0.9230(4) 0.5863(19) 0.9050(4)
O2 O 0.9044(4) 0.8129(19) 1.0837(4)
H1 H 0.8911 0.9788 1.0875
H2 H 0.9272 0.7437 1.1132
O3 O 0.9595(3) 0.3250(16) 1.0112(4)
H3 H 0.9929 0.3753 0.9935
H4 H 0.9579 0.1741 1.0329
O4 O 1.2116(4) 0.6383(19) 1.0363(5)
H5 H 1.2128 0.4816 1.0343
O5 O 0.7977(4) 0.5559(19) 1.0563(5)
O6 O 0.8606(4) 0.2850(19) 1.0798(4)
O7 O 0.5838(5) -0.122(2) 1.3000(5)
H6 H 0.5852 -0.0517 1.3327
O8 O 0.8327(4) 0.302(2) 0.9474(5)
O9 O 0.8345(4) -0.1068(17) 0.9707(4)
C1 C 0.9561(5) 0.757(3) 0.9186(6)
C2 C 0.9970(6) 0.845(3) 0.8737(6)
H7 H 0.9764 0.9287 0.8420
H8 H 1.0147 0.6959 0.8567
C3 C 1.0431(6) 1.027(3) 0.8941(6)
H9 H 1.0602 1.1029 0.8592
H10 H 1.0263 1.1631 0.9171
C4 C 1.0870(6) 0.907(3) 0.9300(7)
C5 C 1.1357(6) 1.030(3) 0.9355(7)
H11 H 1.1402 1.1839 0.9154
C6 C 1.1776(6) 0.943(3) 0.9679(7)
H12 H 1.2112 1.0329 0.9688
C7 C 1.1242(5) 0.600(2) 0.9961(15)
H13 H 1.1198 0.4485 1.0171
C8 C 1.0824(6) 0.688(3) 0.9628(7)
H14 H 1.0489 0.5979 0.9618
C9 C 0.8135(6) 0.375(3) 1.0875(6)
C10 C 0.7753(6) 0.263(3) 1.1319(7)
H15 H 0.7919 0.2854 1.1709
H16 H 0.7728 0.0814 1.1245
C11 C 0.7180(6) 0.368(3) 1.1335(7)
H17 H 0.7011 0.3496 1.0946
H18 H 0.7198 0.5492 1.1425
C12 C 0.6814(6) 0.238(3) 1.1793(6)
C13 C 0.6541(8) 0.025(3) 1.1650(7)
H19 H 0.6570 -0.0426 1.1268
C14 C 0.6219(8) -0.093(4) 1.2068(9)
H20 H 0.6029 -0.2419 1.1966
C15 C 0.6169(7) -0.001(4) 1.2623(9)
C16 C 0.6448(7) 0.213(3) 1.2763(7)
H21 H 0.6423 0.2799 1.3146
C17 C 0.6759(7) 0.330(3) 1.2357(7)
H22 H 0.6945 0.4789 1.2460
C18 C 0.8177(5) 0.080(3) 0.9426(6)
C19 C 0.7696(6) 0.028(3) 0.9015(6)
H23 H 0.7354 0.0182 0.9247
H24 H 0.7751 -0.1371 0.8827
C20 C 0.7625(6) 0.229(3) 0.8533(7)
H25 H 0.7572 0.3936 0.8723
H26 H 0.7967 0.2381 0.8303
C21 C 0.7151(7) 0.183(3) 0.8121(6)
C22 C 0.7043(7) 0.341(3) 0.7669(7)
H27 H 0.7279 0.4806 0.7619
C23 C 0.6616(7) 0.314(3) 0.7277(7)
H28 H 0.6562 0.4311 0.6971
C24 C 0.6266(6) 0.109(3) 0.7349(8)
C25 C 0.6340(8) -0.043(4) 0.7810(9)
H29 H 0.6086 -0.1752 0.7873
C26 C 0.6771(7) -0.015(3) 0.8194(8)
H30 H 0.6812 -0.1280 0.8509
O10 O 0.5839(4) 0.098(3) 0.6961(5)
H31 H 0.5565 0.1706 0.7104
C27 C 1.1721(4) 0.726(2) 0.9997(10)
O11 O 0.9543(4) 0.8561(16) 0.9689(4)
Er1_2 Er 0.88118(2) -0.42741(10) 1.00108(5)
O9_2 O 0.8345(4) 0.8932(17) 0.9707(4)
loop_
_geom_bond_atom_site_label_1
_geom_bond_atom_site_label_2
_geom_bond_site_symmetry_1
_geom_bond_site_symmetry_2
Er1 O1 1_555 1_555
O1 C1 1_555 1_555
O2 Er1 1_555 1_555
H1 O2 1_555 1_555
H2 O2 1_555 1_555
O3 Er1 1_555 1_555
H3 O3 1_555 1_555
H4 O3 1_555 1_555
O4 H5 1_555 1_555
O5 Er1 1_555 1_555
O6 Er1 1_555 1_555
O7 H6 1_555 1_555
O8 Er1 1_555 1_555
O9 C18 1_555 1_555
C1 C2 1_555 1_555
C2 H7 1_555 1_555
H8 C2 1_555 1_555
C3 C2 1_555 1_555
H9 C3 1_555 1_555
H10 C3 1_555 1_555
C4 C3 1_555 1_555
C5 C4 1_555 1_555
H11 C5 1_555 1_555
C6 C5 1_555 1_555
H12 C6 1_555 1_555
C7 H13 1_555 1_555
C8 C4 1_555 1_555
H14 C8 1_555 1_555
C9 O5 1_555 1_555
C10 C9 1_555 1_555
H15 C10 1_555 1_555
H16 C10 1_555 1_555
C11 C10 1_555 1_555
H17 C11 1_555 1_555
H18 C11 1_555 1_555
C12 C11 1_555 1_555
C13 C12 1_555 1_555
H19 C13 1_555 1_555
C14 C13 1_555 1_555
H20 C14 1_555 1_555
C15 O7 1_555 1_555
C16 C15 1_555 1_555
H21 C16 1_555 1_555
C17 C12 1_555 1_555
H22 C17 1_555 1_555
C18 O8 1_555 1_555
C19 C18 1_555 1_555
H23 C19 1_555 1_555
H24 C19 1_555 1_555
C20 C19 1_555 1_555
H25 C20 1_555 1_555
H26 C20 1_555 1_555
C21 C20 1_555 1_555
C22 C21 1_555 1_555
H27 C22 1_555 1_555
C23 C22 1_555 1_555
H28 C23 1_555 1_555
C24 C23 1_555 1_555
C25 C24 1_555 1_555
H29 C25 1_555 1_555
C26 C21 1_555 1_555
H30 C26 1_555 1_555
O10 C24 1_555 1_555
H31 O10 1_555 1_555
C27 O4 1_555 1_555
O11 Er1 1_555 1_555
Er1_2 O9 1_555 1_555
O9_2 Er1 1_555 1_555
O6 C9 1_555 1_555
C1 O11 1_555 1_555
C6 C27 1_555 1_555
C7 C8 1_555 1_555
C7 C27 1_555 1_555
C14 C15 1_555 1_555
C16 C17 1_555 1_555
C25 C26 1_555 1_555

#END
