
#######################################################################
#
#                 Cambridge Crystallographic Data Centre
#                                CCDC 
#
#######################################################################
#
# If this CIF has been generated from an entry in the Cambridge 
# Structural Database, then it will include bibliographic, chemical, 
# crystal, experimental, refinement or atomic coordinate data resulting 
# from the CCDC's data processing and validation procedures.
#
#######################################################################

data_BURYOD
_symmetry_cell_setting           monoclinic
_symmetry_space_group_name_H-M   'C 2/c'
_symmetry_Int_Tables_number      15
_space_group_name_Hall           '-C 2yn'
loop_
_symmetry_equiv_pos_site_id
_symmetry_equiv_pos_as_xyz
1 x,y,z
2 -x,y,1/2-z
3 1/2+x,1/2+y,z
4 1/2-x,1/2+y,1/2-z
5 -x,-y,-z
6 x,-y,1/2+z
7 1/2-x,1/2-y,-z
8 1/2+x,1/2-y,1/2+z
_cell_length_a                   18.0260(15)
_cell_length_b                   17.9783(15)
_cell_length_c                   11.9993(10)
_cell_angle_alpha                90
_cell_angle_beta                 114.1390(10)
_cell_angle_gamma                90
_cell_volume                     3548.65
loop_
_atom_site_label
_atom_site_type_symbol
_atom_site_fract_x
_atom_site_fract_y
_atom_site_fract_z
Cu1 Cu 0.70135(3) 0.86164(3) 0.51805(5)
V1 V 0.56003(5) 0.75593(4) 0.68413(7)
P1 P 0.62515(7) 0.69451(7) 0.48957(10)
O1 O 0.6355(2) 0.77396(19) 0.4559(3)
O2 O 0.7022(2) 0.64955(19) 0.5428(3)
O3 O 0.5823(2) 0.69175(19) 0.5791(3)
O4 O 0.5110(2) 0.8282(2) 0.6079(3)
O5 O 0.5000 0.7067(3) 0.7500
O6 O 0.6451(2) 0.7839(2) 0.7928(3)
N1 N 0.7721(2) 0.8447(2) 0.6997(4)
N2 N 0.7266(2) 0.9644(2) 0.5736(4)
N3 N 0.6368(2) 0.9167(2) 0.3618(4)
C1 C 0.5000 0.6866(4) 0.2500
H1 H 0.5000 0.7395 0.2500
C2 C 0.5543(3) 0.6485(3) 0.3523(4)
C3 C 0.5545(3) 0.5711(3) 0.3513(4)
H2 H 0.5919 0.5447 0.4199
C4 C 0.5000 0.5317(4) 0.2500
H3 H 0.5000 0.4789 0.2500
C5 C 0.7955(3) 0.7799(3) 0.7583(4)
H4 H 0.7754 0.7351 0.7143
C6 C 0.8481(3) 0.7756(3) 0.8811(4)
H5 H 0.8639 0.7286 0.9199
C7 C 0.8768(3) 0.8403(3) 0.9457(5)
H6 H 0.9118 0.8388 1.0301
C8 C 0.8541(3) 0.9075(3) 0.8855(4)
H7 H 0.8743 0.9528 0.9280
C9 C 0.8017(3) 0.9087(3) 0.7632(4)
C10 C 0.7756(3) 0.9773(3) 0.6900(4)
C11 C 0.7982(3) 1.0501(3) 0.7308(5)
H8 H 0.8321 1.0600 0.8140
C12 C 0.7699(3) 1.1078(3) 0.6461(5)
H9 H 0.7860 1.1576 0.6711
C13 C 0.7177(3) 1.0930(3) 0.5245(4)
H10 H 0.6968 1.1320 0.4666
C14 C 0.6976(3) 1.0193(3) 0.4915(4)
C15 C 0.6462(3) 0.9918(3) 0.3682(4)
C16 C 0.6115(3) 1.0366(3) 0.2656(5)
H11 H 0.6174 1.0891 0.2719
C17 C 0.5680(4) 1.0027(3) 0.1534(5)
H12 H 0.5433 1.0320 0.0817
C18 C 0.5610(4) 0.9256(3) 0.1469(5)
H13 H 0.5333 0.9013 0.0708
C19 C 0.5954(3) 0.8852(3) 0.2540(4)
H14 H 0.5891 0.8327 0.2503
Cu1A Cu 0.29865(3) 0.86164(3) -0.01805(5)
Cu1F Cu 0.79865(3) 0.63836(3) 0.48195(5)
Cu1G Cu 0.20135(3) 0.63836(3) 0.01805(5)
V1A V 0.43997(5) 0.75593(4) -0.18413(7)
V1A_2 V 0.43997(5) 0.75593(4) 0.81587(7)
P1A P 0.37485(7) 0.69451(7) 0.01043(10)
O1A O 0.3645(2) 0.77396(19) 0.0441(3)
O2A O 0.2978(2) 0.64955(19) -0.0428(3)
O2F O 0.7978(2) 0.85045(19) 0.4572(3)
O2G O 0.2022(2) 0.85045(19) 0.0428(3)
O3A O 0.4177(2) 0.69175(19) -0.0791(3)
O4A O 0.4890(2) 0.8282(2) -0.1079(3)
O5_2 O 0.5000 0.7067(3) -0.2500
O6A O 0.3549(2) 0.7839(2) -0.2928(3)
N1A N 0.2279(2) 0.8447(2) -0.1997(4)
N2A N 0.2734(2) 0.9644(2) -0.0736(4)
N3A N 0.3632(2) 0.9167(2) 0.1382(4)
C2A C 0.4457(3) 0.6485(3) 0.1477(4)
C3A C 0.4455(3) 0.5711(3) 0.1487(4)
H2A H 0.4081 0.5447 0.0801
C5A C 0.2045(3) 0.7799(3) -0.2583(4)
H4A H 0.2246 0.7351 -0.2143
C6A C 0.1519(3) 0.7756(3) -0.3811(4)
H5A H 0.1361 0.7286 -0.4199
C7A C 0.1232(3) 0.8403(3) -0.4457(5)
H6A H 0.0882 0.8388 -0.5301
C8A C 0.1459(3) 0.9075(3) -0.3855(4)
H7A H 0.1257 0.9528 -0.4280
C9A C 0.1983(3) 0.9087(3) -0.2632(4)
C10A C 0.2244(3) 0.9773(3) -0.1900(4)
C11A C 0.2018(3) 1.0501(3) -0.2308(5)
H8A H 0.1679 1.0600 -0.3140
C12A C 0.2301(3) 1.1078(3) -0.1461(5)
H9A H 0.2140 1.1576 -0.1711
C13A C 0.2823(3) 1.0930(3) -0.0245(4)
H10A H 0.3032 1.1320 0.0334
C14A C 0.3024(3) 1.0193(3) 0.0085(4)
C15A C 0.3538(3) 0.9918(3) 0.1318(4)
C16A C 0.3885(3) 1.0366(3) 0.2344(5)
H11A H 0.3826 1.0891 0.2281
C17A C 0.4320(4) 1.0027(3) 0.3466(5)
H12A H 0.4567 1.0320 0.4183
C18A C 0.4390(4) 0.9256(3) 0.3531(5)
H13A H 0.4667 0.9013 0.4292
C19A C 0.4046(3) 0.8852(3) 0.2460(4)
H14A H 0.4109 0.8327 0.2497
loop_
_geom_bond_atom_site_label_1
_geom_bond_atom_site_label_2
_geom_bond_site_symmetry_1
_geom_bond_site_symmetry_2
Cu1 O1 1_555 1_555
V1 O3 1_555 1_555
P1 O1 1_555 1_555
O2 P1 1_555 1_555
O3 P1 1_555 1_555
O4 V1 1_555 1_555
O5 V1 1_555 1_555
O6 V1 1_555 1_555
N1 Cu1 1_555 1_555
N2 Cu1 1_555 1_555
N3 Cu1 1_555 1_555
C1 H1 1_555 1_555
C2 P1 1_555 1_555
C3 C2 1_555 1_555
H2 C3 1_555 1_555
C4 C3 1_555 1_555
H3 C4 1_555 1_555
C5 N1 1_555 1_555
H4 C5 1_555 1_555
C6 C5 1_555 1_555
H5 C6 1_555 1_555
C7 C6 1_555 1_555
H6 C7 1_555 1_555
C8 C7 1_555 1_555
H7 C8 1_555 1_555
C9 N1 1_555 1_555
C10 N2 1_555 1_555
C11 C10 1_555 1_555
H8 C11 1_555 1_555
C12 C11 1_555 1_555
H9 C12 1_555 1_555
C13 C12 1_555 1_555
H10 C13 1_555 1_555
C14 N2 1_555 1_555
C15 N3 1_555 1_555
C16 C15 1_555 1_555
H11 C16 1_555 1_555
C17 C16 1_555 1_555
H12 C17 1_555 1_555
C18 C17 1_555 1_555
H13 C18 1_555 1_555
C19 N3 1_555 1_555
H14 C19 1_555 1_555
Cu1A O1A 1_555 1_555
Cu1F O2 1_555 1_555
Cu1G O2A 1_555 1_555
V1A O3A 1_555 1_555
V1A_2 O5 1_555 1_555
P1A O1A 1_555 1_555
O2A P1A 1_555 1_555
O2F Cu1 1_555 1_555
O2G Cu1A 1_555 1_555
O3A P1A 1_555 1_555
O4A V1A 1_555 1_555
O5_2 V1A 1_555 1_555
O6A V1A 1_555 1_555
N1A Cu1A 1_555 1_555
N2A Cu1A 1_555 1_555
N3A Cu1A 1_555 1_555
C2A C1 1_555 1_555
C3A C4 1_555 1_555
H2A C3A 1_555 1_555
C5A N1A 1_555 1_555
H4A C5A 1_555 1_555
C6A C5A 1_555 1_555
H5A C6A 1_555 1_555
C7A C6A 1_555 1_555
H6A C7A 1_555 1_555
C8A C7A 1_555 1_555
H7A C8A 1_555 1_555
C9A N1A 1_555 1_555
C10A N2A 1_555 1_555
C11A C10A 1_555 1_555
H8A C11A 1_555 1_555
C12A C11A 1_555 1_555
H9A C12A 1_555 1_555
C13A C12A 1_555 1_555
H10A C13A 1_555 1_555
C14A N2A 1_555 1_555
C15A N3A 1_555 1_555
C16A C15A 1_555 1_555
H11A C16A 1_555 1_555
C17A C16A 1_555 1_555
H12A C17A 1_555 1_555
C18A C17A 1_555 1_555
H13A C18A 1_555 1_555
C19A N3A 1_555 1_555
H14A C19A 1_555 1_555
C1 C2 1_555 1_555
C8 C9 1_555 1_555
C9 C10 1_555 1_555
C13 C14 1_555 1_555
C14 C15 1_555 1_555
C18 C19 1_555 1_555
P1A C2A 1_555 1_555
C2A C3A 1_555 1_555
C8A C9A 1_555 1_555
C9A C10A 1_555 1_555
C13A C14A 1_555 1_555
C14A C15A 1_555 1_555
C18A C19A 1_555 1_555

#END
