
#######################################################################
#
#                 Cambridge Crystallographic Data Centre
#                                CCDC 
#
#######################################################################
#
# If this CIF has been generated from an entry in the Cambridge 
# Structural Database, then it will include bibliographic, chemical, 
# crystal, experimental, refinement or atomic coordinate data resulting 
# from the CCDC's data processing and validation procedures.
#
#######################################################################

data_BURYIX
_symmetry_cell_setting           monoclinic
_symmetry_space_group_name_H-M   'P 21/c'
_symmetry_Int_Tables_number      14
_space_group_name_Hall           '-P 2ybc'
loop_
_symmetry_equiv_pos_site_id
_symmetry_equiv_pos_as_xyz
1 x,y,z
2 -x,1/2+y,1/2-z
3 -x,-y,-z
4 x,1/2-y,1/2+z
_cell_length_a                   9.4396(8)
_cell_length_b                   15.8795(13)
_cell_length_c                   13.8189(12)
_cell_angle_alpha                90
_cell_angle_beta                 101.147(2)
_cell_angle_gamma                90
_cell_volume                     2032.32
loop_
_atom_site_label
_atom_site_type_symbol
_atom_site_fract_x
_atom_site_fract_y
_atom_site_fract_z
Cu1 Cu 0.79389(4) 0.29621(2) 0.35518(2)
V1 V 0.72613(5) 0.27915(3) 0.08973(3)
P1 P 0.31878(8) 0.61481(4) 0.09648(5)
P2 P 0.48372(8) 0.29082(4) 0.21986(5)
N1 N 1.0075(3) 0.27951(15) 0.39980(17)
N2 N 0.8555(3) 0.41828(15) 0.35781(18)
O1 O 0.5947(2) 0.32767(13) 0.30285(14)
O2 O 0.5495(2) 0.27538(14) 0.12631(15)
O3 O 0.4099(2) 0.21100(13) 0.24447(16)
O4 O 0.4828(2) 0.62369(13) 0.11670(16)
O5 O 0.2607(2) 0.62348(13) -0.01725(15)
O6 O 0.2415(2) 0.67454(12) 0.15336(15)
O7 O 0.8556(2) 0.27812(14) 0.18588(15)
O8 O 0.7449(2) 0.30080(13) 0.51974(15)
C1 C 0.3453(3) 0.36793(17) 0.1818(2)
C2 C 0.2006(3) 0.34771(18) 0.1783(2)
H1 H 0.1753 0.2929 0.1966
C3 C 0.0932(3) 0.40736(19) 0.1481(2)
H2 H -0.0052 0.3933 0.1455
C4 C 0.1306(3) 0.48746(19) 0.1220(2)
H3 H 0.0570 0.5279 0.1010
C5 C 0.2749(3) 0.50948(17) 0.1260(2)
C6 C 0.3820(3) 0.44871(18) 0.1554(2)
H4 H 0.4804 0.4626 0.1575
C7 C 0.7752(3) 0.48709(19) 0.3371(2)
H5 H 0.6731 0.4814 0.3225
C8 C 0.8354(4) 0.5676(2) 0.3360(3)
H6 H 0.7747 0.6155 0.3215
C9 C 0.9832(4) 0.57693(19) 0.3561(3)
H7 H 1.0254 0.6311 0.3545
C10 C 1.0713(3) 0.50532(19) 0.3791(2)
C11 C 1.0018(3) 0.42766(18) 0.3798(2)
C12 C 1.2271(3) 0.5070(2) 0.4001(3)
H8 H 1.2760 0.5593 0.3996
C13 C 1.3047(3) 0.4354(2) 0.4206(2)
H9 H 1.4072 0.4382 0.4338
C14 C 1.2351(3) 0.35518(19) 0.4228(2)
C15 C 1.0834(3) 0.35208(18) 0.4022(2)
C16 C 1.3090(3) 0.2783(2) 0.4422(2)
H10 H 1.4115 0.2771 0.4567
C17 C 1.2315(3) 0.2051(2) 0.4401(2)
H11 H 1.2801 0.1528 0.4531
C18 C 1.0803(3) 0.2078(2) 0.4187(2)
H12 H 1.0279 0.1566 0.4176
H13 H 0.516(6) 0.654(4) 0.171(4)
Cu1A Cu 0.20611(4) 0.79621(2) 0.14482(2)
V1B V 0.27387(5) 0.72085(3) -0.08973(3)
V1C V 0.72613(5) 0.22085(3) 0.58973(3)
O5B O 0.7393(2) 0.37652(13) 0.01725(15)
O6A O 0.7585(2) 0.17454(12) 0.34664(15)
O8C O 0.7449(2) 0.19920(13) 0.01974(15)
loop_
_geom_bond_atom_site_label_1
_geom_bond_atom_site_label_2
_geom_bond_site_symmetry_1
_geom_bond_site_symmetry_2
Cu1 N1 1_555 1_555
V1 O2 1_555 1_555
P1 O4 1_555 1_555
P2 O1 1_555 1_555
N1 C15 1_555 1_555
N2 Cu1 1_555 1_555
O1 Cu1 1_555 1_555
O2 P2 1_555 1_555
O3 P2 1_555 1_555
O4 H13 1_555 1_555
O5 P1 1_555 1_555
O6 P1 1_555 1_555
O7 V1 1_555 1_555
O8 Cu1 1_555 1_555
C1 P2 1_555 1_555
C2 C1 1_555 1_555
H1 C2 1_555 1_555
C3 C2 1_555 1_555
H2 C3 1_555 1_555
C4 C3 1_555 1_555
H3 C4 1_555 1_555
C5 P1 1_555 1_555
C6 C1 1_555 1_555
H4 C6 1_555 1_555
C7 N2 1_555 1_555
H5 C7 1_555 1_555
C8 C7 1_555 1_555
H6 C8 1_555 1_555
C9 C8 1_555 1_555
H7 C9 1_555 1_555
C10 C9 1_555 1_555
C11 N2 1_555 1_555
C12 C10 1_555 1_555
H8 C12 1_555 1_555
C13 C12 1_555 1_555
H9 C13 1_555 1_555
C14 C13 1_555 1_555
C15 C11 1_555 1_555
C16 C14 1_555 1_555
H10 C16 1_555 1_555
C17 C16 1_555 1_555
H11 C17 1_555 1_555
C18 N1 1_555 1_555
H12 C18 1_555 1_555
Cu1A O6 1_555 1_555
V1B O5 1_555 1_555
V1C O8 1_555 1_555
O5B V1 1_555 1_555
O6A Cu1 1_555 1_555
O8C V1 1_555 1_555
C4 C5 1_555 1_555
C5 C6 1_555 1_555
C10 C11 1_555 1_555
C14 C15 1_555 1_555
C17 C18 1_555 1_555

#END
