
#######################################################################
#
#                 Cambridge Crystallographic Data Centre
#                                CCDC 
#
#######################################################################
#
# If this CIF has been generated from an entry in the Cambridge 
# Structural Database, then it will include bibliographic, chemical, 
# crystal, experimental, refinement or atomic coordinate data resulting 
# from the CCDC's data processing and validation procedures.
#
#######################################################################

data_BURZUK
_symmetry_cell_setting           monoclinic
_symmetry_space_group_name_H-M   'P 21/n'
_symmetry_Int_Tables_number      14
_space_group_name_Hall           '-P 2yn'
loop_
_symmetry_equiv_pos_site_id
_symmetry_equiv_pos_as_xyz
1 x,y,z
2 1/2-x,1/2+y,1/2-z
3 -x,-y,-z
4 1/2+x,1/2-y,1/2+z
_cell_length_a                   9.6032(9)
_cell_length_b                   6.1831(6)
_cell_length_c                   19.7804(18)
_cell_angle_alpha                90
_cell_angle_beta                 96.224(2)
_cell_angle_gamma                90
_cell_volume                     1167.59
loop_
_atom_site_label
_atom_site_type_symbol
_atom_site_fract_x
_atom_site_fract_y
_atom_site_fract_z
Cu1 Cu 0.5000 1.0000 0.0000
V1 V 0.18634(3) 0.56065(5) 0.243127(16)
P1 P 0.24472(5) 0.85317(8) 0.11210(2)
O1 O 0.36600(15) 0.7771(2) 0.07367(7)
H1 H 0.4095 0.6770 0.0955
O2 O 0.18558(15) 0.6649(2) 0.15014(7)
O3 O 0.28450(16) 1.0481(2) 0.15754(7)
O4 O 0.03660(17) 0.4463(3) 0.23408(8)
O5 O 0.31220(16) 0.3699(2) 0.23740(7)
O6 O 0.45175(15) 1.2765(2) 0.04065(7)
O7 O 0.53046(16) 1.5038(2) 0.12438(8)
N1 N 0.65045(18) 0.9948(3) 0.07545(9)
C1 C 0.0526(2) 1.1486(3) 0.04993(10)
C2 C 0.1096(2) 0.9401(3) 0.04852(10)
C3 C 0.0566(2) 0.7936(3) -0.00164(10)
C4 C 0.7462(2) 0.8408(3) 0.09092(11)
C5 C 0.8451(2) 0.8577(4) 0.14735(12)
C6 C 0.8460(2) 1.0418(4) 0.18758(12)
C7 C 0.7475(2) 1.2027(4) 0.17118(11)
C8 C 0.6502(2) 1.1721(3) 0.11518(10)
C9 C 0.5346(2) 1.3283(3) 0.09158(10)
H2 H 0.091(3) 1.253(4) 0.0831(13)
H3 H 0.091(3) 0.662(5) -0.0016(13)
H4 H 0.740(3) 0.725(4) 0.0631(13)
H5 H 0.907(3) 0.750(5) 0.1582(14)
H6 H 0.912(3) 1.057(5) 0.2285(15)
H7 H 0.750(3) 1.323(5) 0.1947(14)
Cu1_2 Cu -0.5000 1.0000 0.0000
V1B V -0.18634(3) 1.43935(5) -0.243127(16)
V1A V 0.31366(3) 1.06065(5) 0.256873(16)
V1A_2 V 0.31366(3) 0.06065(5) 0.256873(16)
V1C V -0.31366(3) 0.93935(5) -0.256873(16)
P1B P -0.24472(5) 1.14683(8) -0.11210(2)
O1B O -0.36600(15) 1.2229(2) -0.07367(7)
O1B_2 O 0.63400(15) 1.2229(2) -0.07367(7)
H1B H -0.4095 1.3230 -0.0955
H1B_2 H 0.5905 1.3230 -0.0955
O2B O -0.18558(15) 1.3351(2) -0.15014(7)
O3B O -0.28450(16) 0.9519(2) -0.15754(7)
O3A O 0.21550(16) 0.5481(2) 0.34246(7)
O3C O -0.21550(16) 1.4519(2) -0.34246(7)
O4B O -0.03660(17) 1.5537(3) -0.23408(8)
O5A O 0.18780(16) 0.8699(2) 0.26260(7)
O5B O -0.31220(16) 1.6301(2) -0.23740(7)
O5C O -0.18780(16) 1.1301(2) -0.26260(7)
O6B O 0.54825(15) 0.7235(2) -0.04065(7)
O7B O 0.46954(16) 0.4962(2) -0.12438(8)
N1B N 0.34955(18) 1.0052(3) -0.07545(9)
C1B C -0.0526(2) 0.8514(3) -0.04993(10)
C2B C -0.1096(2) 1.0599(3) -0.04852(10)
C3B C -0.0566(2) 1.2064(3) 0.00164(10)
C4B C 0.2538(2) 1.1592(3) -0.09092(11)
C5B C 0.1549(2) 1.1423(4) -0.14735(12)
C6B C 0.1540(2) 0.9582(4) -0.18758(12)
C7B C 0.2525(2) 0.7973(4) -0.17118(11)
C8B C 0.3498(2) 0.8279(3) -0.11518(10)
C9B C 0.4654(2) 0.6717(3) -0.09158(10)
H2B H -0.091(3) 0.747(4) -0.0831(13)
H3B H -0.091(3) 1.338(5) 0.0016(13)
H4B H 0.260(3) 1.275(4) -0.0631(13)
H5B H 0.093(3) 1.250(5) -0.1582(14)
H6B H 0.088(3) 0.943(5) -0.2285(15)
H7B H 0.250(3) 0.677(5) -0.1947(14)
loop_
_geom_bond_atom_site_label_1
_geom_bond_atom_site_label_2
_geom_bond_site_symmetry_1
_geom_bond_site_symmetry_2
Cu1 O1 1_555 1_555
V1 O2 1_555 1_555
P1 O1 1_555 1_555
O1 H1 1_555 1_555
O2 P1 1_555 1_555
O3 P1 1_555 1_555
O4 V1 1_555 1_555
O5 V1 1_555 1_555
O6 Cu1 1_555 1_555
O7 C9 1_555 1_555
N1 Cu1 1_555 1_555
C1 C2 1_555 1_555
C2 P1 1_555 1_555
C3 C2 1_555 1_555
C4 N1 1_555 1_555
C5 C4 1_555 1_555
C6 C5 1_555 1_555
C7 C6 1_555 1_555
C8 N1 1_555 1_555
C9 O6 1_555 1_555
H2 C1 1_555 1_555
H3 C3 1_555 1_555
H4 C4 1_555 1_555
H5 C5 1_555 1_555
H6 C6 1_555 1_555
H7 C7 1_555 1_555
Cu1_2 O1B 1_555 1_555
V1B O2B 1_555 1_555
V1A O3 1_555 1_555
V1A_2 O5 1_555 1_555
V1C O3B 1_555 1_555
P1B O1B 1_555 1_555
O1B H1B 1_555 1_555
O1B_2 Cu1 1_555 1_555
H1B_2 O1B_2 1_555 1_555
O2B P1B 1_555 1_555
O3B P1B 1_555 1_555
O3A V1 1_555 1_555
O3C V1B 1_555 1_555
O4B V1B 1_555 1_555
O5A V1 1_555 1_555
O5B V1B 1_555 1_555
O5C V1B 1_555 1_555
O6B Cu1 1_555 1_555
O7B C9B 1_555 1_555
N1B Cu1 1_555 1_555
C1B C3 1_555 1_555
C2B P1B 1_555 1_555
C3B C1 1_555 1_555
C4B N1B 1_555 1_555
C5B C4B 1_555 1_555
C6B C5B 1_555 1_555
C7B C6B 1_555 1_555
C8B N1B 1_555 1_555
C9B O6B 1_555 1_555
H2B C1B 1_555 1_555
H3B C3B 1_555 1_555
H4B C4B 1_555 1_555
H5B C5B 1_555 1_555
H6B C6B 1_555 1_555
H7B C7B 1_555 1_555
C7 C8 1_555 1_555
C8 C9 1_555 1_555
V1A O5A 1_555 1_555
V1C O5C 1_555 1_555
C1B C2B 1_555 1_555
C2B C3B 1_555 1_555
C7B C8B 1_555 1_555
C8B C9B 1_555 1_555

#END
