
#######################################################################
#
#                 Cambridge Crystallographic Data Centre
#                                CCDC 
#
#######################################################################
#
# If this CIF has been generated from an entry in the Cambridge 
# Structural Database, then it will include bibliographic, chemical, 
# crystal, experimental, refinement or atomic coordinate data resulting 
# from the CCDC's data processing and validation procedures.
#
#######################################################################

data_BUSBAT
_symmetry_cell_setting           monoclinic
_symmetry_space_group_name_H-M   'P 21/n'
_symmetry_Int_Tables_number      14
_space_group_name_Hall           '-P 2yn'
loop_
_symmetry_equiv_pos_site_id
_symmetry_equiv_pos_as_xyz
1 x,y,z
2 1/2-x,1/2+y,1/2-z
3 -x,-y,-z
4 1/2+x,1/2-y,1/2+z
_cell_length_a                   10.4020(9)
_cell_length_b                   8.8148(7)
_cell_length_c                   15.9060(13)
_cell_angle_alpha                90
_cell_angle_beta                 100.565(2)
_cell_angle_gamma                90
_cell_volume                     1433.72
loop_
_atom_site_label
_atom_site_type_symbol
_atom_site_fract_x
_atom_site_fract_y
_atom_site_fract_z
Cu1 Cu 0.44193(3) 0.73691(4) 0.15955(2)
V1 V 0.15150(4) 0.54210(5) 0.22152(3)
P1 P 0.40180(7) 0.71467(8) 0.33853(4)
F1 F 0.26878(18) 0.5886(2) 0.15012(11)
O1 O 0.25893(18) 0.6750(2) 0.30460(12)
O2 O 0.49246(19) 0.6745(2) 0.27628(12)
O3 O 0.41009(19) 0.8814(2) 0.36650(12)
O4 O 0.0221(2) 0.6449(2) 0.20348(13)
O5 O 0.3610(2) 0.9164(2) 0.19819(12)
N1 N 0.4149(2) 0.8037(3) 0.03894(15)
N2 N 0.5833(2) 0.6161(3) 0.12225(15)
C1 C 0.4580(2) 0.5981(3) 0.43069(17)
C2 C 0.4777(3) 0.4436(3) 0.41705(17)
C3 C 0.4808(3) 0.6538(3) 0.51473(17)
C4 C 0.3214(3) 0.8988(3) 0.00179(19)
C5 C 0.3104(3) 0.9436(4) -0.08278(19)
C6 C 0.4003(3) 0.8890(4) -0.12955(19)
C7 C 0.4976(3) 0.7912(4) -0.09165(18)
C8 C 0.5022(3) 0.7486(3) -0.00708(18)
C9 C 0.6002(3) 0.6449(3) 0.04128(18)
C10 C 0.7021(3) 0.5803(3) 0.00830(19)
C11 C 0.7874(3) 0.4833(3) 0.0595(2)
C12 C 0.7690(3) 0.4522(4) 0.1418(2)
C13 C 0.6652(3) 0.5210(3) 0.17110(18)
H1 H 0.460(3) 0.403(4) 0.362(2)
H2 H 0.472(3) 0.758(4) 0.526(2)
H3 H 0.265(4) 0.932(4) 0.035(2)
H4 H 0.242(4) 1.007(5) -0.104(3)
H5 H 0.394(4) 0.917(4) -0.188(3)
H6 H 0.556(4) 0.757(4) -0.119(2)
H7 H 0.714(3) 0.603(4) -0.044(2)
H8 H 0.858(3) 0.441(4) 0.040(2)
H9 H 0.823(3) 0.388(4) 0.176(2)
H10 H 0.648(4) 0.505(4) 0.227(2)
Cu1B Cu 0.55807(3) 0.26309(4) 0.84045(2)
Cu1A Cu 0.05807(3) 0.23691(4) 0.34045(2)
V1B V 0.84850(4) 0.45790(5) 0.77848(3)
V1A V 0.34850(4) 1.04210(5) 0.27848(3)
V1C V 0.65150(4) -0.04210(5) 0.72152(3)
P1B P 0.59820(7) 0.28533(8) 0.66147(4)
F1B F 0.73122(18) 0.4114(2) 0.84988(11)
O1B O 0.74107(18) 0.3250(2) 0.69540(12)
O2B O 0.50754(19) 0.3255(2) 0.72372(12)
O3B O 0.58991(19) 0.1186(2) 0.63350(12)
O3A O 0.08991(19) 0.3814(2) 0.13350(12)
O3C O 0.91009(19) 0.6186(2) 0.86650(12)
O4B O 0.9779(2) 0.3551(2) 0.79652(13)
O5A O 0.1390(2) 0.4164(2) 0.30181(12)
O5B O 0.6390(2) 0.0836(2) 0.80181(12)
O5C O 0.8610(2) 0.5836(2) 0.69819(12)
N1B N 0.5851(2) 0.1963(3) 0.96106(15)
N2B N 0.4167(2) 0.3839(3) 0.87775(15)
C1B C 0.5420(2) 0.4019(3) 0.56931(17)
C2B C 0.5223(3) 0.5564(3) 0.58295(17)
C3B C 0.5192(3) 0.3462(3) 0.48527(17)
C4B C 0.6786(3) 0.1012(3) 0.99821(19)
C5B C 0.6896(3) 0.0564(4) 1.08278(19)
C6B C 0.5997(3) 0.1110(4) 1.12955(19)
C7B C 0.5024(3) 0.2088(4) 1.09165(18)
C8B C 0.4978(3) 0.2514(3) 1.00708(18)
C9B C 0.3998(3) 0.3551(3) 0.95872(18)
C10B C 0.2979(3) 0.4197(3) 0.99170(19)
C11B C 0.2126(3) 0.5167(3) 0.9405(2)
C12B C 0.2310(3) 0.5478(4) 0.8582(2)
C13B C 0.3348(3) 0.4790(3) 0.82890(18)
H1B H 0.540(3) 0.597(4) 0.638(2)
H2B H 0.528(3) 0.242(4) 0.474(2)
H3B H 0.735(4) 0.068(4) 0.965(2)
H4B H 0.758(4) -0.007(5) 1.104(3)
H5B H 0.606(4) 0.083(4) 1.188(3)
H6B H 0.444(4) 0.243(4) 1.119(2)
H7B H 0.286(3) 0.397(4) 1.044(2)
H8B H 0.142(3) 0.559(4) 0.960(2)
H9B H 0.177(3) 0.612(4) 0.824(2)
H10B H 0.352(4) 0.495(4) 0.773(2)
loop_
_geom_bond_atom_site_label_1
_geom_bond_atom_site_label_2
_geom_bond_site_symmetry_1
_geom_bond_site_symmetry_2
Cu1 F1 1_555 1_555
V1 F1 1_555 1_555
P1 O1 1_555 1_555
O1 V1 1_555 1_555
O2 Cu1 1_555 1_555
O3 P1 1_555 1_555
O4 V1 1_555 1_555
O5 Cu1 1_555 1_555
N1 Cu1 1_555 1_555
N2 Cu1 1_555 1_555
C1 P1 1_555 1_555
C2 C1 1_555 1_555
C3 C1 1_555 1_555
C4 N1 1_555 1_555
C5 C4 1_555 1_555
C6 C5 1_555 1_555
C7 C6 1_555 1_555
C8 N1 1_555 1_555
C9 N2 1_555 1_555
C10 C9 1_555 1_555
C11 C10 1_555 1_555
C12 C11 1_555 1_555
C13 N2 1_555 1_555
H1 C2 1_555 1_555
H2 C3 1_555 1_555
H3 C4 1_555 1_555
H4 C5 1_555 1_555
H5 C6 1_555 1_555
H6 C7 1_555 1_555
H7 C10 1_555 1_555
H8 C11 1_555 1_555
H9 C12 1_555 1_555
H10 C13 1_555 1_555
Cu1B F1B 1_555 1_555
Cu1A O5A 1_555 1_555
V1B F1B 1_555 1_555
V1A O3 1_555 1_555
V1C O3B 1_555 1_555
P1B O1B 1_555 1_555
O1B V1B 1_555 1_555
O2B Cu1B 1_555 1_555
O3B P1B 1_555 1_555
O3A V1 1_555 1_555
O3C V1B 1_555 1_555
O4B V1B 1_555 1_555
O5A V1 1_555 1_555
O5B Cu1B 1_555 1_555
O5C V1B 1_555 1_555
N1B Cu1B 1_555 1_555
N2B Cu1B 1_555 1_555
C1B P1B 1_555 1_555
C2B C3 1_555 1_555
C3B C2 1_555 1_555
C4B N1B 1_555 1_555
C5B C4B 1_555 1_555
C6B C5B 1_555 1_555
C7B C6B 1_555 1_555
C8B N1B 1_555 1_555
C9B N2B 1_555 1_555
C10B C9B 1_555 1_555
C11B C10B 1_555 1_555
C12B C11B 1_555 1_555
C13B N2B 1_555 1_555
H1B C2B 1_555 1_555
H2B C3B 1_555 1_555
H3B C4B 1_555 1_555
H4B C5B 1_555 1_555
H5B C6B 1_555 1_555
H6B C7B 1_555 1_555
H7B C10B 1_555 1_555
H8B C11B 1_555 1_555
H9B C12B 1_555 1_555
H10B C13B 1_555 1_555
P1 O2 1_555 1_555
O5 V1A 1_555 1_555
C7 C8 1_555 1_555
C8 C9 1_555 1_555
C12 C13 1_555 1_555
V1C O5B 1_555 1_555
P1B O2B 1_555 1_555
C1B C2B 1_555 1_555
C1B C3B 1_555 1_555
C7B C8B 1_555 1_555
C8B C9B 1_555 1_555
C12B C13B 1_555 1_555

#END
