
#######################################################################
#
#                 Cambridge Crystallographic Data Centre
#                                CCDC 
#
#######################################################################
#
# If this CIF has been generated from an entry in the Cambridge 
# Structural Database, then it will include bibliographic, chemical, 
# crystal, experimental, refinement or atomic coordinate data resulting 
# from the CCDC's data processing and validation procedures.
#
#######################################################################

data_BUSBUN
_symmetry_cell_setting           orthorhombic
_symmetry_space_group_name_H-M   'P b c a'
_symmetry_Int_Tables_number      61
_space_group_name_Hall           '-P 2ac 2ab'
loop_
_symmetry_equiv_pos_site_id
_symmetry_equiv_pos_as_xyz
1 x,y,z
2 1/2-x,-y,1/2+z
3 -x,1/2+y,1/2-z
4 1/2+x,1/2-y,-z
5 -x,-y,-z
6 1/2+x,y,1/2-z
7 x,1/2-y,1/2+z
8 1/2-x,1/2+y,z
_cell_length_a                   8.8764(6)
_cell_length_b                   17.0724(11)
_cell_length_c                   43.440(3)
_cell_angle_alpha                90
_cell_angle_beta                 90
_cell_angle_gamma                90
_cell_volume                     6582.96
loop_
_atom_site_label
_atom_site_type_symbol
_atom_site_fract_x
_atom_site_fract_y
_atom_site_fract_z
Cu1 Cu 0.44053(10) 0.43920(5) 0.17182(2)
Cu2 Cu 0.40439(10) 0.94349(5) 0.05176(2)
V1 V -0.06058(16) 0.73836(8) 0.18390(3)
V2 V 0.49620(14) 0.38004(7) 0.09895(3)
V3 V 1.00873(14) 0.51344(7) 0.11956(3)
P1 P 0.6432(2) 0.53666(11) 0.12602(5)
P2 P 0.1075(2) 0.69833(11) 0.11948(5)
P3 P 0.6357(2) 0.85569(11) 0.09425(5)
O1 O 0.5981(5) 0.4828(3) 0.09932(12)
O2 O 0.5988(6) 0.5053(3) 0.15706(12)
O3 O 0.8091(6) 0.5580(3) 0.12379(13)
O4 O 0.0703(6) 0.7037(3) 0.15352(13)
O5 O 0.0558(6) 0.6213(3) 0.10634(12)
O6 O 0.0467(5) 0.7656(3) 0.10129(13)
O7 O 0.5714(6) 0.8795(3) 0.06338(12)
O8 O 0.6010(6) 0.9139(3) 0.11991(12)
O9 O 0.8024(6) 0.8377(3) 0.09146(12)
O10 O -0.2303(6) 0.6848(3) 0.18645(14)
O11 O 0.0340(8) 0.7293(4) 0.21577(14)
O12 O 0.5975(6) 0.3322(3) 0.17879(14)
O13 O 0.3921(6) 0.4024(3) 0.13000(11)
O14 O 0.3966(6) 0.3928(3) 0.06859(12)
O15 O 0.3724(6) 0.9801(3) 0.09226(12)
O16 O 1.0965(6) 0.5089(3) 0.15138(13)
N1 N 0.4564(8) 0.4814(4) 0.21429(16)
N2 N 0.2692(7) 0.3829(4) 0.19098(15)
N3 N 0.2655(7) 1.0202(4) 0.03246(14)
N4 N 0.4095(7) 0.9019(4) 0.00919(15)
C1 C 0.5461(8) 0.6282(4) 0.11996(17)
C2 C 0.3903(9) 0.6311(5) 0.12259(18)
H1 H 0.3374 0.5856 0.1290
C3 C 0.3107(8) 0.6981(4) 0.11622(16)
C4 C 0.3873(8) 0.7646(4) 0.10637(17)
H2 H 0.3324 0.8100 0.1006
C5 C 0.5438(8) 0.7650(4) 0.10497(17)
C6 C 0.6226(9) 0.6973(4) 0.11197(17)
H3 H 0.7296 0.6976 0.1114
C7 C 0.5472(9) 0.5402(5) 0.2237(2)
H4 H 0.6076 0.5668 0.2090
C8 C 0.5544(11) 0.5625(6) 0.2540(2)
H5 H 0.6165 0.6052 0.2600
C9 C 0.4721(12) 0.5232(6) 0.2756(2)
H6 H 0.4776 0.5379 0.2966
C10 C 0.3806(12) 0.4617(6) 0.2666(2)
H7 H 0.3242 0.4328 0.2814
C11 C 0.3738(10) 0.4433(6) 0.2355(2)
C12 C 0.2694(9) 0.3843(5) 0.22205(18)
C13 C 0.1721(11) 0.3364(5) 0.2380(2)
H8 H 0.1731 0.3364 0.2599
C14 C 0.0743(11) 0.2891(6) 0.2225(2)
H9 H 0.0087 0.2552 0.2335
C15 C 0.0711(11) 0.2908(5) 0.1908(2)
H10 H 0.0015 0.2595 0.1796
C16 C 0.1705(9) 0.3385(5) 0.1759(2)
H11 H 0.1692 0.3401 0.1540
C17 C 0.1979(9) 1.0783(5) 0.0473(2)
H12 H 0.2176 1.0859 0.0686
C18 C 0.1000(10) 1.1278(5) 0.0324(2)
H13 H 0.0518 1.1689 0.0433
C19 C 0.0721(10) 1.1171(5) 0.0015(2)
H14 H 0.0041 1.1509 -0.0089
C20 C 0.1428(10) 1.0575(6) -0.0143(2)
H15 H 0.1262 1.0499 -0.0357
C21 C 0.2384(9) 1.0093(5) 0.00196(19)
C22 C 0.3186(9) 0.9398(5) -0.0111(2)
C23 C 0.3005(10) 0.9136(6) -0.04100(19)
H16 H 0.2366 0.9407 -0.0549
C24 C 0.3766(10) 0.8477(6) -0.0500(2)
H17 H 0.3616 0.8269 -0.0701
C25 C 0.4741(10) 0.8120(6) -0.0302(2)
H18 H 0.5321 0.7683 -0.0368
C26 C 0.4874(10) 0.8398(5) -0.0009(2)
H19 H 0.5543 0.8142 0.0129
V1G V 0.56058(16) 0.23836(8) 0.18390(3)
V2G V 0.00380(14) 0.88004(7) 0.09895(3)
V2G_2 V 1.00380(14) 0.88004(7) 0.09895(3)
V3_2 V 0.00873(14) 0.51344(7) 0.11956(3)
V3G V 0.49127(14) 1.01344(7) 0.11956(3)
O5_2 O 1.0558(6) 0.6213(3) 0.10634(12)
O6G O 0.4533(5) 0.2656(3) 0.10129(13)
O8G O 0.8990(6) 0.4139(3) 0.11991(12)
O9G O 0.6976(6) 0.3377(3) 0.09146(12)
O12G O -0.0975(6) 0.8322(3) 0.17879(14)
O15G O 1.1276(6) 0.4801(3) 0.09226(12)
loop_
_geom_bond_atom_site_label_1
_geom_bond_atom_site_label_2
_geom_bond_site_symmetry_1
_geom_bond_site_symmetry_2
Cu1 O2 1_555 1_555
Cu2 O7 1_555 1_555
V1 O4 1_555 1_555
V2 O1 1_555 1_555
V3 O3 1_555 1_555
P1 O1 1_555 1_555
P2 O4 1_555 1_555
P3 O7 1_555 1_555
O2 P1 1_555 1_555
O3 P1 1_555 1_555
O5 P2 1_555 1_555
O6 P2 1_555 1_555
O8 P3 1_555 1_555
O9 P3 1_555 1_555
O10 V1 1_555 1_555
O11 V1 1_555 1_555
O12 Cu1 1_555 1_555
O13 Cu1 1_555 1_555
O14 V2 1_555 1_555
O15 Cu2 1_555 1_555
O16 V3 1_555 1_555
N1 Cu1 1_555 1_555
N2 Cu1 1_555 1_555
N3 Cu2 1_555 1_555
N4 Cu2 1_555 1_555
C1 P1 1_555 1_555
C2 C1 1_555 1_555
H1 C2 1_555 1_555
C3 P2 1_555 1_555
C4 C3 1_555 1_555
H2 C4 1_555 1_555
C5 P3 1_555 1_555
C6 C1 1_555 1_555
H3 C6 1_555 1_555
C7 N1 1_555 1_555
H4 C7 1_555 1_555
C8 C7 1_555 1_555
H5 C8 1_555 1_555
C9 C8 1_555 1_555
H6 C9 1_555 1_555
C10 C9 1_555 1_555
H7 C10 1_555 1_555
C11 N1 1_555 1_555
C12 N2 1_555 1_555
C13 C12 1_555 1_555
H8 C13 1_555 1_555
C14 C13 1_555 1_555
H9 C14 1_555 1_555
C15 C14 1_555 1_555
H10 C15 1_555 1_555
C16 N2 1_555 1_555
H11 C16 1_555 1_555
C17 N3 1_555 1_555
H12 C17 1_555 1_555
C18 C17 1_555 1_555
H13 C18 1_555 1_555
C19 C18 1_555 1_555
H14 C19 1_555 1_555
C20 C19 1_555 1_555
H15 C20 1_555 1_555
C21 N3 1_555 1_555
C22 N4 1_555 1_555
C23 C22 1_555 1_555
H16 C23 1_555 1_555
C24 C23 1_555 1_555
H17 C24 1_555 1_555
C25 C24 1_555 1_555
H18 C25 1_555 1_555
C26 N4 1_555 1_555
H19 C26 1_555 1_555
V1G O12 1_555 1_555
V2G O6 1_555 1_555
V2G_2 O9 1_555 1_555
V3_2 O5 1_555 1_555
V3G O8 1_555 1_555
O5_2 V3 1_555 1_555
O6G V2 1_555 1_555
O8G V3 1_555 1_555
O9G V2 1_555 1_555
O12G V1 1_555 1_555
O15G V3 1_555 1_555
V2 O13 1_555 1_555
O15 V3G 1_555 1_555
C2 C3 1_555 1_555
C4 C5 1_555 1_555
C5 C6 1_555 1_555
C10 C11 1_555 1_555
C11 C12 1_555 1_555
C15 C16 1_555 1_555
C20 C21 1_555 1_555
C21 C22 1_555 1_555
C25 C26 1_555 1_555

#END
