
#######################################################################
#
#                 Cambridge Crystallographic Data Centre
#                                CCDC 
#
#######################################################################
#
# If this CIF has been generated from an entry in the Cambridge 
# Structural Database, then it will include bibliographic, chemical, 
# crystal, experimental, refinement or atomic coordinate data resulting 
# from the CCDC's data processing and validation procedures.
#
#######################################################################

data_BUSCUO
_symmetry_cell_setting           triclinic
_symmetry_space_group_name_H-M   'P -1'
_symmetry_Int_Tables_number      2
_space_group_name_Hall           '-P 1'
loop_
_symmetry_equiv_pos_site_id
_symmetry_equiv_pos_as_xyz
1 x,y,z
2 -x,-y,-z
_cell_length_a                   9.8914(9)
_cell_length_b                   10.0130(9)
_cell_length_c                   11.5152(10)
_cell_angle_alpha                104.2480(10)
_cell_angle_beta                 98.961(2)
_cell_angle_gamma                115.9090(10)
_cell_volume                     947.876
loop_
_atom_site_label
_atom_site_type_symbol
_atom_site_fract_x
_atom_site_fract_y
_atom_site_fract_z
Cu1 Cu 0.96646(3) 0.23934(3) 0.10941(2)
P1 P 0.78260(6) -0.10994(6) -0.08677(5)
P2 P 0.22827(6) -0.14021(6) -0.32576(5)
P3 P 0.25629(6) -0.69167(6) -0.37512(5)
O1 O 0.84077(17) 0.06514(17) -0.05491(14)
O2 O 0.87649(18) -0.17565(18) -0.14603(14)
O3 O 0.76625(19) -0.1540(2) 0.03451(16)
O4 O 0.33211(19) 0.00414(19) -0.35588(16)
O5 O 0.08577(19) -0.27008(19) -0.44019(16)
O6 O 0.17747(19) -0.09660(19) -0.21150(15)
O7 O 0.29202(19) -0.7237(2) -0.50317(15)
O8 O 0.08045(17) -0.76626(18) -0.39571(15)
O9 O 0.33837(19) -0.74126(18) -0.28546(15)
N1 N 1.1108(2) 0.4599(2) 0.23414(17)
N2 N 0.8422(2) 0.3424(2) 0.07053(17)
C1 C 0.5830(2) -0.2211(2) -0.19348(19)
C2 C 0.4992(2) -0.1478(2) -0.22738(19)
H1 H 0.5512 -0.0354 -0.2022
C3 C 0.3397(2) -0.2375(2) -0.29779(19)
C4 C 0.2657(2) -0.4027(2) -0.33971(19)
H2 H 0.1576 -0.4643 -0.3881
C5 C 0.3492(2) -0.4784(2) -0.31116(19)
C6 C 0.5063(2) -0.3873(2) -0.2363(2)
H3 H 0.5621 -0.4386 -0.2140
C7 C 1.2411(3) 0.5078(3) 0.3259(2)
H4 H 1.2607 0.4303 0.3462
C8 C 1.3481(3) 0.6671(3) 0.3921(2)
H5 H 1.4394 0.6981 0.4571
C9 C 1.3201(3) 0.7803(3) 0.3622(2)
H6 H 1.3939 0.8901 0.4045
C10 C 1.1827(3) 0.7316(3) 0.2695(2)
H7 H 1.1603 0.8072 0.2482
C11 C 1.0795(2) 0.5703(3) 0.20887(19)
C12 C 0.9226(2) 0.5029(3) 0.1182(2)
C13 C 0.8564(3) 0.5919(3) 0.0891(2)
H8 H 0.9155 0.7045 0.1210
C14 C 0.7009(3) 0.5119(3) 0.0120(2)
H9 H 0.6526 0.5699 -0.0092
C15 C 0.6168(3) 0.3470(3) -0.0337(2)
H10 H 0.5103 0.2907 -0.0853
C16 C 0.6923(3) 0.2667(3) -0.0020(2)
H11 H 0.6356 0.1539 -0.0328
H12 H 0.037(5) -0.248(5) -0.490(4)
H13 H 0.769(4) -0.092(5) 0.082(4)
H14 H 0.331(7) 0.112(7) -0.326(6)
H15 H 0.228(5) -0.804(5) -0.553(4)
Cu1A Cu 1.03354(3) -0.23934(3) -0.10941(2)
Cu1A_2 Cu 0.03354(3) -0.23934(3) -0.10941(2)
O2A O 1.12351(18) 0.17565(18) 0.14603(14)
O6A O 0.82253(19) 0.09660(19) 0.21150(15)
O10 O 0.9161(2) 0.98598(19) 0.67499(15)
loop_
_geom_bond_atom_site_label_1
_geom_bond_atom_site_label_2
_geom_bond_site_symmetry_1
_geom_bond_site_symmetry_2
Cu1 O1 1_555 1_555
P1 O1 1_555 1_555
P2 O4 1_555 1_555
P3 O7 1_555 1_555
O2 P1 1_555 1_555
O3 P1 1_555 1_555
O4 H14 1_555 1_555
O5 P2 1_555 1_555
O6 P2 1_555 1_555
O7 H15 1_555 1_555
O8 P3 1_555 1_555
O9 P3 1_555 1_555
N1 Cu1 1_555 1_555
N2 Cu1 1_555 1_555
C1 P1 1_555 1_555
C2 C1 1_555 1_555
H1 C2 1_555 1_555
C3 P2 1_555 1_555
C4 C3 1_555 1_555
H2 C4 1_555 1_555
C5 P3 1_555 1_555
C6 C1 1_555 1_555
H3 C6 1_555 1_555
C7 N1 1_555 1_555
H4 C7 1_555 1_555
C8 C7 1_555 1_555
H5 C8 1_555 1_555
C9 C8 1_555 1_555
H6 C9 1_555 1_555
C10 C9 1_555 1_555
H7 C10 1_555 1_555
C11 N1 1_555 1_555
C12 N2 1_555 1_555
C13 C12 1_555 1_555
H8 C13 1_555 1_555
C14 C13 1_555 1_555
H9 C14 1_555 1_555
C15 C14 1_555 1_555
H10 C15 1_555 1_555
C16 N2 1_555 1_555
H11 C16 1_555 1_555
H12 O5 1_555 1_555
H13 O3 1_555 1_555
Cu1A O2 1_555 1_555
Cu1A_2 O6 1_555 1_555
O2A Cu1 1_555 1_555
O6A Cu1 1_555 1_555
C2 C3 1_555 1_555
C4 C5 1_555 1_555
C5 C6 1_555 1_555
C10 C11 1_555 1_555
C11 C12 1_555 1_555
C15 C16 1_555 1_555

#END
