
#######################################################################
#
#                 Cambridge Crystallographic Data Centre
#                                CCDC 
#
#######################################################################
#
# If this CIF has been generated from an entry in the Cambridge 
# Structural Database, then it will include bibliographic, chemical, 
# crystal, experimental, refinement or atomic coordinate data resulting 
# from the CCDC's data processing and validation procedures.
#
#######################################################################

data_BUSCIC
_symmetry_cell_setting           monoclinic
_symmetry_space_group_name_H-M   'P 21/c'
_symmetry_Int_Tables_number      14
_space_group_name_Hall           '-P 2ybc'
loop_
_symmetry_equiv_pos_site_id
_symmetry_equiv_pos_as_xyz
1 x,y,z
2 -x,1/2+y,1/2-z
3 -x,-y,-z
4 x,1/2-y,1/2+z
_cell_length_a                   10.3525(5)
_cell_length_b                   6.4579(3)
_cell_length_c                   15.6396(9)
_cell_angle_alpha                90
_cell_angle_beta                 108.0850(10)
_cell_angle_gamma                90
_cell_volume                     993.937
loop_
_atom_site_label
_atom_site_type_symbol
_atom_site_fract_x
_atom_site_fract_y
_atom_site_fract_z
O1 O 0.7912(2) 0.7183(4) -0.09070(15)
Cu1 Cu 1.0000 0.5000 0.0000
P1 P 0.63871(8) 0.67203(13) -0.14186(5)
O2 O 0.6486(2) 0.4953(4) -0.20635(16)
O3 O 0.5643(2) 0.8618(4) -0.18443(16)
O4 O 0.9135(2) 0.2307(4) -0.03078(15)
O5 O 0.7994(2) -0.0043(4) 0.02236(16)
N1 N 0.9183(3) 0.4932(4) 0.09775(17)
C1 C 0.5415(3) 0.7051(5) 0.0027(2)
H1 H 0.5701 0.8453 0.0044
C2 C 0.5620(3) 0.5697(5) -0.0622(2)
C3 C 0.5205(3) 0.3652(5) -0.0646(2)
H2 H 0.5343 0.2732 -0.1083
C4 C 0.9212(3) 0.6377(5) 0.1591(2)
H3 H 0.9691 0.7630 0.1588
C5 C 0.8559(3) 0.6097(6) 0.2234(2)
H4 H 0.8582 0.7150 0.2663
C6 C 0.7874(3) 0.4260(6) 0.2242(2)
H5 H 0.7431 0.4034 0.2683
C7 C 0.7838(3) 0.2751(5) 0.1605(2)
H6 H 0.7371 0.1481 0.1597
C8 C 0.8505(3) 0.3155(5) 0.0979(2)
C9 C 0.8543(3) 0.1682(5) 0.0242(2)
H7 H 0.802(6) 0.808(9) -0.056(4)
H8 H 0.562(7) 0.454(10) -0.248(5)
O1B O 0.2088(2) 0.2817(4) 0.09070(15)
O1B_2 O 1.2088(2) 0.2817(4) 0.09070(15)
Cu1_2 Cu 0.0000 0.5000 0.0000
P1B P 0.36129(8) 0.32797(13) 0.14186(5)
O2B O 0.3514(2) 0.5047(4) 0.20635(16)
O3B O 0.4357(2) 0.1382(4) 0.18443(16)
O4B O 1.0865(2) 0.7693(4) 0.03078(15)
O5B O 1.2006(2) 1.0043(4) -0.02236(16)
N1B N 1.0817(3) 0.5068(4) -0.09775(17)
C1B C 0.4585(3) 0.2949(5) -0.0027(2)
H1B H 0.4299 0.1547 -0.0044
C2B C 0.4380(3) 0.4303(5) 0.0622(2)
C3B C 0.4795(3) 0.6348(5) 0.0646(2)
H2B H 0.4657 0.7268 0.1083
C4B C 1.0788(3) 0.3623(5) -0.1591(2)
H3B H 1.0309 0.2370 -0.1588
C5B C 1.1441(3) 0.3903(6) -0.2234(2)
H4B H 1.1418 0.2850 -0.2663
C6B C 1.2126(3) 0.5740(6) -0.2242(2)
H5B H 1.2569 0.5966 -0.2683
C7B C 1.2162(3) 0.7249(5) -0.1605(2)
H6B H 1.2629 0.8519 -0.1597
C8B C 1.1495(3) 0.6845(5) -0.0979(2)
C9B C 1.1457(3) 0.8318(5) -0.0242(2)
H7B H 0.198(6) 0.192(9) 0.056(4)
H7B_2 H 1.198(6) 0.192(9) 0.056(4)
H8B H 0.438(7) 0.546(10) 0.248(5)
loop_
_geom_bond_atom_site_label_1
_geom_bond_atom_site_label_2
_geom_bond_site_symmetry_1
_geom_bond_site_symmetry_2
O1 Cu1 1_555 1_555
Cu1 O4 1_555 1_555
P1 O1 1_555 1_555
O2 P1 1_555 1_555
O3 P1 1_555 1_555
O4 C9 1_555 1_555
O5 C9 1_555 1_555
N1 Cu1 1_555 1_555
C1 H1 1_555 1_555
C2 P1 1_555 1_555
C3 C2 1_555 1_555
H2 C3 1_555 1_555
C4 N1 1_555 1_555
H3 C4 1_555 1_555
C5 C4 1_555 1_555
H4 C5 1_555 1_555
C6 C5 1_555 1_555
H5 C6 1_555 1_555
C7 C6 1_555 1_555
H6 C7 1_555 1_555
C8 N1 1_555 1_555
C9 C8 1_555 1_555
H7 O1 1_555 1_555
H8 O2 1_555 1_555
O1B Cu1_2 1_555 1_555
O1B_2 Cu1 1_555 1_555
P1B O1B 1_555 1_555
O2B P1B 1_555 1_555
O3B P1B 1_555 1_555
O4B Cu1 1_555 1_555
O5B C9B 1_555 1_555
N1B Cu1 1_555 1_555
C1B C3 1_555 1_555
H1B C1B 1_555 1_555
C2B P1B 1_555 1_555
C3B C1 1_555 1_555
H2B C3B 1_555 1_555
C4B N1B 1_555 1_555
H3B C4B 1_555 1_555
C5B C4B 1_555 1_555
H4B C5B 1_555 1_555
C6B C5B 1_555 1_555
H5B C6B 1_555 1_555
C7B C6B 1_555 1_555
H6B C7B 1_555 1_555
C8B N1B 1_555 1_555
C9B O4B 1_555 1_555
H7B O1B 1_555 1_555
H7B_2 O1B_2 1_555 1_555
H8B O2B 1_555 1_555
C1 C2 1_555 1_555
C7 C8 1_555 1_555
C1B C2B 1_555 1_555
C2B C3B 1_555 1_555
C7B C8B 1_555 1_555
C8B C9B 1_555 1_555

#END
