
#######################################################################
#
#                 Cambridge Crystallographic Data Centre
#                                CCDC 
#
#######################################################################
#
# If this CIF has been generated from an entry in the Cambridge 
# Structural Database, then it will include bibliographic, chemical, 
# crystal, experimental, refinement or atomic coordinate data resulting 
# from the CCDC's data processing and validation procedures.
#
#######################################################################

data_BUSDEZ
_symmetry_cell_setting           triclinic
_symmetry_space_group_name_H-M   'P -1'
_symmetry_Int_Tables_number      2
_space_group_name_Hall           '-P 1'
loop_
_symmetry_equiv_pos_site_id
_symmetry_equiv_pos_as_xyz
1 x,y,z
2 -x,-y,-z
_cell_length_a                   9.9542(14)
_cell_length_b                   10.0152(14)
_cell_length_c                   12.0621(16)
_cell_angle_alpha                100.631(2)
_cell_angle_beta                 106.609(2)
_cell_angle_gamma                115.494(2)
_cell_volume                     972.183
loop_
_atom_site_label
_atom_site_type_symbol
_atom_site_fract_x
_atom_site_fract_y
_atom_site_fract_z
Cu1 Cu 0.75840(5) 0.98392(5) 0.62032(4)
P1 P 0.64060(10) 0.77479(10) 0.81551(8)
P2 P 1.19996(10) 0.76043(10) 0.86384(8)
P3 P 0.60181(10) 0.21201(10) 0.58546(8)
O1 O 0.4888(3) 0.6657(3) 0.8295(3)
O2 O 0.7729(3) 0.9117(3) 0.9390(3)
O3 O 0.6084(3) 0.8380(3) 0.7122(2)
O4 O 1.2439(3) 0.6817(3) 0.7712(2)
O5 O 1.2431(3) 0.7244(3) 0.9854(3)
O6 O 1.2699(3) 0.9358(3) 0.8920(2)
O7 O 0.4219(3) 0.1499(3) 0.5472(2)
O8 O 0.6454(3) 0.2215(3) 0.4699(2)
O9 O 0.6692(3) 0.1231(3) 0.6465(2)
N1 N 0.8611(3) 0.8585(3) 0.5847(3)
N2 N 0.9713(3) 1.1448(3) 0.7613(3)
N3 N 1.1279(4) 1.0810(4) 0.6710(3)
C1 C 0.7357(4) 0.6635(4) 0.7861(3)
C2 C 0.9047(4) 0.7422(4) 0.8255(3)
H1 H 0.9682 0.8532 0.8696
C3 C 0.9811(4) 0.6592(4) 0.8007(3)
C4 C 0.8868(4) 0.4969(4) 0.7327(3)
H2 H 0.9388 0.4403 0.7156
C5 C 0.7165(4) 0.4167(4) 0.6895(3)
C6 C 0.6414(4) 0.5001(4) 0.7185(3)
H3 H 0.5263 0.4460 0.6924
C7 C 0.7607(4) 0.6996(4) 0.5230(3)
H4 H 0.6501 0.6528 0.5126
C8 C 0.8108(5) 0.6040(4) 0.4753(3)
H5 H 0.7362 0.4939 0.4313
C9 C 0.9744(5) 0.6719(5) 0.4925(3)
H6 H 1.0120 0.6087 0.4587
C10 C 1.0800(5) 0.8305(5) 0.5588(3)
H7 H 1.1920 0.8782 0.5731
C11 C 1.0194(4) 0.9213(4) 0.6050(3)
C12 C 1.1175(4) 1.1800(4) 0.7597(3)
C13 C 1.2625(4) 1.3184(4) 0.8448(4)
H8 H 1.3632 1.3431 0.8392
C14 C 1.2573(4) 1.4171(4) 0.9359(4)
H9 H 1.3539 1.5127 0.9933
C15 C 1.1078(4) 1.3757(4) 0.9436(3)
H10 H 1.1019 1.4399 1.0085
C16 C 0.9707(4) 1.2413(4) 0.8562(3)
H11 H 0.8695 1.2136 0.8619
H12 H 0.432(9) 0.669(9) 0.821(7)
H13 H 0.747(6) 0.933(6) 0.980(5)
H14 H 1.325(8) 0.792(7) 1.036(6)
H15 H 0.558(8) 0.209(8) 0.406(6)
H16 H 1.221(6) 1.110(6) 0.675(5)
Cu1A Cu 0.24160(5) 0.01608(5) 0.37968(4)
Cu1_2 Cu 0.75840(5) -0.01608(5) 0.62032(4)
O7A O 0.5781(3) 0.8501(3) 0.4528(2)
O9_2 O 0.6692(3) 1.1231(3) 0.6465(2)
O10 O 0.5097(4) 0.8903(4) 0.1826(3)
H17 H 0.485(8) 0.952(8) 0.227(7)
H18 H 0.577(8) 0.952(8) 0.166(6)
loop_
_geom_bond_atom_site_label_1
_geom_bond_atom_site_label_2
_geom_bond_site_symmetry_1
_geom_bond_site_symmetry_2
Cu1 O3 1_555 1_555
P1 O1 1_555 1_555
P2 O4 1_555 1_555
P3 O7 1_555 1_555
O1 H12 1_555 1_555
O2 P1 1_555 1_555
O3 P1 1_555 1_555
O5 P2 1_555 1_555
O6 P2 1_555 1_555
O7 Cu1A 1_555 1_555
O8 P3 1_555 1_555
O9 P3 1_555 1_555
O10 H17 1_555 1_555
N1 Cu1 1_555 1_555
N2 Cu1 1_555 1_555
N3 C11 1_555 1_555
C1 P1 1_555 1_555
C2 C1 1_555 1_555
H1 C2 1_555 1_555
C3 P2 1_555 1_555
C4 C3 1_555 1_555
H2 C4 1_555 1_555
C5 P3 1_555 1_555
C6 C1 1_555 1_555
H3 C6 1_555 1_555
C7 N1 1_555 1_555
H4 C7 1_555 1_555
C8 C7 1_555 1_555
H5 C8 1_555 1_555
C9 C8 1_555 1_555
H6 C9 1_555 1_555
C10 C9 1_555 1_555
H7 C10 1_555 1_555
C11 N1 1_555 1_555
C12 N2 1_555 1_555
C13 C12 1_555 1_555
H8 C13 1_555 1_555
C14 C13 1_555 1_555
H9 C14 1_555 1_555
C15 C14 1_555 1_555
H10 C15 1_555 1_555
C16 N2 1_555 1_555
H11 C16 1_555 1_555
H13 O2 1_555 1_555
H14 O5 1_555 1_555
H15 O8 1_555 1_555
H16 N3 1_555 1_555
H18 O10 1_555 1_555
Cu1_2 O9 1_555 1_555
O7A Cu1 1_555 1_555
O9_2 Cu1 1_555 1_555
N3 C12 1_555 1_555
C2 C3 1_555 1_555
C4 C5 1_555 1_555
C5 C6 1_555 1_555
C10 C11 1_555 1_555
C15 C16 1_555 1_555

#END
