
#######################################################################
#
#                 Cambridge Crystallographic Data Centre
#                                CCDC 
#
#######################################################################
#
# If this CIF has been generated from an entry in the Cambridge 
# Structural Database, then it will include bibliographic, chemical, 
# crystal, experimental, refinement or atomic coordinate data resulting 
# from the CCDC's data processing and validation procedures.
#
#######################################################################

data_BUSGUS
_symmetry_cell_setting           monoclinic
_symmetry_space_group_name_H-M   'C 2/c'
_symmetry_Int_Tables_number      15
_space_group_name_Hall           '-C 2yn'
loop_
_symmetry_equiv_pos_site_id
_symmetry_equiv_pos_as_xyz
1 x,y,z
2 -x,y,1/2-z
3 1/2+x,1/2+y,z
4 1/2-x,1/2+y,1/2-z
5 -x,-y,-z
6 x,-y,1/2+z
7 1/2-x,1/2-y,-z
8 1/2+x,1/2-y,1/2+z
_cell_length_a                   17.766(2)
_cell_length_b                   16.1429(17)
_cell_length_c                   6.3012(7)
_cell_angle_alpha                90
_cell_angle_beta                 99.465(2)
_cell_angle_gamma                90
_cell_volume                     1782.55
loop_
_atom_site_label
_atom_site_type_symbol
_atom_site_fract_x
_atom_site_fract_y
_atom_site_fract_z
Pb1 Pb 0.0000 0.424313(19) 0.2500
O1 O -0.0430(3) 0.3161(4) 0.0220(9)
O2 O -0.0873(5) 0.4228(3) -0.1826(13)
O3 O -0.2248(6) 0.0371(4) -0.7029(12)
O4 O -0.2430(4) 0.1291(4) -0.9467(10)
N1 N -0.2183(4) 0.1069(5) -0.7625(11)
N2 N -0.1349(4) 0.3913(4) -0.6129(11)
H1 H -0.1705 0.4277 -0.6170
C1 C -0.0799(4) 0.3466(5) -0.1521(12)
C2 C -0.1152(4) 0.2870(4) -0.3195(12)
C3 C -0.1419(4) 0.3094(4) -0.5339(11)
C4 C -0.1745(4) 0.2483(5) -0.6812(12)
H2 H -0.1922 0.2622 -0.8329
C5 C -0.1823(4) 0.1688(5) -0.6106(12)
C6 C -0.1575(5) 0.1444(5) -0.3993(14)
H3 H -0.1666 0.0836 -0.3460
C7 C -0.1242(5) 0.2045(5) -0.2562(14)
H4 H -0.1063 0.1863 -0.0992
Pb1_2 Pb 0.0000 0.424313(19) -0.7500
Pb1_3 Pb 0.0000 0.424313(19) 1.2500
O1A O 0.0430(3) 0.3161(4) 0.4780(9)
O2A O 0.0873(5) 0.4228(3) 0.6826(13)
O3A O 0.2248(6) 0.0371(4) 1.2029(12)
O4A O 0.2430(4) 0.1291(4) 1.4467(10)
N1A N 0.2183(4) 0.1069(5) 1.2625(11)
N2A N 0.1349(4) 0.3913(4) 1.1129(11)
N2_2 N -0.1349(4) 0.3913(4) 0.3871(11)
N2A_2 N 0.1349(4) 0.3913(4) 0.1129(11)
H1A H 0.1705 0.4277 1.1170
H1_2 H -0.1705 0.4277 0.3830
H1A_2 H 0.1705 0.4277 0.1170
C1A C 0.0799(4) 0.3466(5) 0.6521(12)
C2A C 0.1152(4) 0.2870(4) 0.8195(12)
C3A C 0.1419(4) 0.3094(4) 1.0339(11)
C4A C 0.1745(4) 0.2483(5) 1.1812(12)
H2A H 0.1922 0.2622 1.3329
C5A C 0.1823(4) 0.1688(5) 1.1106(12)
C6A C 0.1575(5) 0.1444(5) 0.8993(14)
H3A H 0.1666 0.0836 0.8460
C7A C 0.1242(5) 0.2045(5) 0.7562(14)
H4A H 0.1063 0.1863 0.5992
loop_
_geom_bond_atom_site_label_1
_geom_bond_atom_site_label_2
_geom_bond_site_symmetry_1
_geom_bond_site_symmetry_2
Pb1 O1 1_555 1_555
O1 C1 1_555 1_555
O2 C1 1_555 1_555
O3 N1 1_555 1_555
O4 N1 1_555 1_555
N1 C5 1_555 1_555
N2 H1 1_555 1_555
C1 C2 1_555 1_555
C2 C3 1_555 1_555
C3 N2 1_555 1_555
C4 C3 1_555 1_555
H2 C4 1_555 1_555
C5 C4 1_555 1_555
C6 C5 1_555 1_555
H3 C6 1_555 1_555
C7 C2 1_555 1_555
H4 C7 1_555 1_555
Pb1_2 N2 1_555 1_555
Pb1_3 N2A 1_555 1_555
O1A Pb1 1_555 1_555
O2A C1A 1_555 1_555
O3A N1A 1_555 1_555
O4A N1A 1_555 1_555
N1A C5A 1_555 1_555
N2A H1A 1_555 1_555
N2_2 Pb1 1_555 1_555
N2A_2 Pb1 1_555 1_555
H1_2 N2_2 1_555 1_555
H1A_2 N2A_2 1_555 1_555
C1A O1A 1_555 1_555
C2A C1A 1_555 1_555
C3A N2A 1_555 1_555
C4A C3A 1_555 1_555
H2A C4A 1_555 1_555
C5A C4A 1_555 1_555
C6A C5A 1_555 1_555
H3A C6A 1_555 1_555
C7A C2A 1_555 1_555
H4A C7A 1_555 1_555
C6 C7 1_555 1_555
C2A C3A 1_555 1_555
C6A C7A 1_555 1_555

#END
