
#######################################################################
#
#                 Cambridge Crystallographic Data Centre
#                                CCDC 
#
#######################################################################
#
# If this CIF has been generated from an entry in the Cambridge 
# Structural Database, then it will include bibliographic, chemical, 
# crystal, experimental, refinement or atomic coordinate data resulting 
# from the CCDC's data processing and validation procedures.
#
#######################################################################

data_BUSHAZ
_symmetry_cell_setting           orthorhombic
_symmetry_space_group_name_H-M   'P b c a'
_symmetry_Int_Tables_number      61
_space_group_name_Hall           '-P 2ac 2ab'
loop_
_symmetry_equiv_pos_site_id
_symmetry_equiv_pos_as_xyz
1 x,y,z
2 1/2-x,-y,1/2+z
3 -x,1/2+y,1/2-z
4 1/2+x,1/2-y,-z
5 -x,-y,-z
6 1/2+x,y,1/2-z
7 x,1/2-y,1/2+z
8 1/2-x,1/2+y,z
_cell_length_a                   18.0702(13)
_cell_length_b                   10.5176(8)
_cell_length_c                   29.665(2)
_cell_angle_alpha                90
_cell_angle_beta                 90
_cell_angle_gamma                90
_cell_volume                     5637.99
loop_
_atom_site_label
_atom_site_type_symbol
_atom_site_fract_x
_atom_site_fract_y
_atom_site_fract_z
Cu1 Cu 0.80881(4) 0.94672(7) 0.11889(2)
S1 S 0.72190(10) 0.99079(15) 0.36657(5)
N1 N 0.8960(2) 0.8191(4) 0.12176(13)
N2 N 0.8048(2) 0.9738(4) 0.19073(15)
N3 N 0.8049(3) 1.1759(5) 0.34593(15)
N4 N 0.7934(3) 1.1869(5) 0.39100(15)
N5 N 0.7067(3) 1.0643(5) 0.54716(15)
O1 O 0.7873(2) 0.5471(4) 0.12093(13)
O2 O 0.7579(2) 0.7524(4) 0.12528(12)
O3 O 0.9052(2) 1.0622(3) 0.11238(12)
O4 O 1.0287(3) 1.0571(4) 0.10893(19)
C1 C 0.8023(3) 0.6607(6) 0.12394(16)
C2 C 0.8833(3) 0.6953(6) 0.12659(18)
C3 C 0.9403(4) 0.6115(6) 0.1329(3)
H1 H 0.9313 0.5249 0.1360
C4 C 1.0121(4) 0.6593(8) 0.1345(3)
H2 H 1.0517 0.6051 0.1401
C5 C 1.0240(4) 0.7858(7) 0.1278(2)
H3 H 1.0720 0.8180 0.1277
C6 C 0.9646(3) 0.8654(6) 0.12114(18)
C7 C 0.9675(3) 1.0070(6) 0.11341(19)
C8 C 0.8422(4) 1.0689(6) 0.2105(2)
H4 H 0.8770 1.1124 0.1934
C9 C 0.8322(4) 1.1064(6) 0.25500(19)
H5 H 0.8595 1.1733 0.2670
C10 C 0.7812(3) 1.0429(5) 0.28090(17)
C11 C 0.7436(4) 0.9468(7) 0.2609(2)
H6 H 0.7092 0.9006 0.2775
C12 C 0.7556(4) 0.9168(6) 0.2167(2)
H7 H 0.7272 0.8521 0.2041
C13 C 0.7719(3) 1.0792(5) 0.32823(17)
C14 C 0.7523(3) 1.0957(6) 0.40663(17)
C15 C 0.7348(3) 1.0836(5) 0.45512(18)
C16 C 0.6776(4) 1.0106(6) 0.47107(19)
H8 H 0.6470 0.9664 0.4513
C17 C 0.6663(4) 1.0040(6) 0.5170(2)
H9 H 0.6276 0.9536 0.5274
C18 C 0.7628(4) 1.1353(7) 0.53118(19)
H10 H 0.7919 1.1792 0.5518
C19 C 0.7795(4) 1.1470(6) 0.4866(2)
H11 H 0.8196 1.1957 0.4772
Cu1A Cu 0.69119(4) 1.05328(7) 0.61889(2)
Cu1G Cu 0.69119(4) 0.44672(7) 0.11889(2)
N5A N 0.7933(3) 0.9357(5) 0.04716(15)
O1G O 0.7127(2) 1.0471(4) 0.12093(13)
Cl1 Cl 0.5367(2) 0.8830(4) 0.05247(15)
Cl2 Cl 0.49755(18) 0.7005(4) -0.01104(11)
Cl3 Cl 0.38539(18) 0.8537(3) 0.02889(18)
C20 C 0.4702(5) 0.7802(9) 0.0371(3)
H12 H 0.4645 0.7176 0.0613
Cl4 Cl 0.11326(16) 0.3116(3) 0.16072(11)
Cl5 Cl 0.0710(3) 0.1307(5) 0.22703(18)
Cl6 Cl -0.0079(3) 0.3553(4) 0.2189(2)
C21 C 0.0436(5) 0.2456(8) 0.1934(4)
H13 H 0.0102 0.2045 0.1718
O5 O 0.9033(11) 0.298(2) 0.1385(7)
loop_
_geom_bond_atom_site_label_1
_geom_bond_atom_site_label_2
_geom_bond_site_symmetry_1
_geom_bond_site_symmetry_2
Cu1 N1 1_555 1_555
S1 C13 1_555 1_555
N1 C2 1_555 1_555
N2 Cu1 1_555 1_555
N3 N4 1_555 1_555
N4 C14 1_555 1_555
N5 C17 1_555 1_555
O1 C1 1_555 1_555
O2 Cu1 1_555 1_555
O3 Cu1 1_555 1_555
O4 C7 1_555 1_555
C1 O2 1_555 1_555
C2 C1 1_555 1_555
C3 C2 1_555 1_555
H1 C3 1_555 1_555
C4 C3 1_555 1_555
H2 C4 1_555 1_555
C5 C4 1_555 1_555
H3 C5 1_555 1_555
C6 N1 1_555 1_555
C7 O3 1_555 1_555
C8 N2 1_555 1_555
H4 C8 1_555 1_555
C9 C8 1_555 1_555
H5 C9 1_555 1_555
C10 C9 1_555 1_555
C11 C10 1_555 1_555
H6 C11 1_555 1_555
C12 N2 1_555 1_555
H7 C12 1_555 1_555
C13 N3 1_555 1_555
C14 S1 1_555 1_555
C15 C14 1_555 1_555
C16 C15 1_555 1_555
H8 C16 1_555 1_555
C17 C16 1_555 1_555
H9 C17 1_555 1_555
C18 N5 1_555 1_555
H10 C18 1_555 1_555
C19 C15 1_555 1_555
H11 C19 1_555 1_555
Cl1 C20 1_555 1_555
Cl2 C20 1_555 1_555
Cl3 C20 1_555 1_555
C20 H12 1_555 1_555
Cl4 C21 1_555 1_555
Cl5 C21 1_555 1_555
Cl6 C21 1_555 1_555
C21 H13 1_555 1_555
Cu1A N5 1_555 1_555
Cu1G O1 1_555 1_555
N5A Cu1 1_555 1_555
O1G Cu1 1_555 1_555
C5 C6 1_555 1_555
C6 C7 1_555 1_555
C10 C13 1_555 1_555
C11 C12 1_555 1_555
C18 C19 1_555 1_555

#END
