
#######################################################################
#
#                 Cambridge Crystallographic Data Centre
#                                CCDC 
#
#######################################################################
#
# If this CIF has been generated from an entry in the Cambridge 
# Structural Database, then it will include bibliographic, chemical, 
# crystal, experimental, refinement or atomic coordinate data resulting 
# from the CCDC's data processing and validation procedures.
#
#######################################################################

data_BUSHUU
_symmetry_cell_setting           monoclinic
_symmetry_space_group_name_H-M   'P 21'
_symmetry_Int_Tables_number      4
_space_group_name_Hall           'P 2yb'
loop_
_symmetry_equiv_pos_site_id
_symmetry_equiv_pos_as_xyz
1 x,y,z
2 -x,1/2+y,-z
_cell_length_a                   6.4078(3)
_cell_length_b                   10.1634(5)
_cell_length_c                   10.1735(5)
_cell_angle_alpha                90
_cell_angle_beta                 106.246(2)
_cell_angle_gamma                90
_cell_volume                     636.094
loop_
_atom_site_label
_atom_site_type_symbol
_atom_site_fract_x
_atom_site_fract_y
_atom_site_fract_z
Zn1 Zn -0.15654(5) 0.74612(5) 0.63734(3)
O1 O 0.0316(4) 0.8680(3) 0.7684(3)
O2 O 0.2285(5) 0.9139(3) 0.6270(3)
O3 O 0.7970(5) 1.2072(4) 0.6998(3)
O4 O 0.2082(5) 1.1386(3) 1.2111(3)
O5 O -0.4176(6) 0.8334(4) 0.5139(4)
N1 N 0.8665(5) 1.1856(3) 0.9302(3)
H1 H 0.9652 1.1993 1.0059
O6 O 0.5390(5) 1.0813(3) 1.3317(3)
O7 O 0.0062(6) 0.6368(4) 0.5361(4)
C1 C 0.1944(6) 0.9193(3) 0.7403(4)
C2 C 0.3511(6) 0.9926(4) 0.8563(4)
C3 C 0.5379(6) 1.0500(4) 0.8347(4)
H2 H 0.5673 1.0422 0.7506
C4 C 0.6790(6) 1.1192(4) 0.9422(4)
C5 C 0.9121(6) 1.2307(5) 0.8162(4)
C6 C 1.1120(8) 1.3138(5) 0.8398(5)
H3 H 1.2052 1.2779 0.7895
H4 H 1.1874 1.3147 0.9357
H5 H 1.0716 1.4019 0.8092
C7 C 0.6365(6) 1.1265(4) 1.0684(4)
H6 H 0.7352 1.1685 1.1409
C8 C 0.4488(6) 1.0720(4) 1.0881(4)
C9 C 0.3057(5) 1.0040(4) 0.9815(4)
H7 H 0.1804 0.9664 0.9941
C10 C 0.3986(6) 1.0967(4) 1.2222(4)
H8 H -0.453(7) 0.780(4) 0.439(4)
H9 H -0.520(7) 0.867(5) 0.551(5)
H10 H -0.076(7) 0.567(4) 0.496(5)
H11 H 0.144(5) 0.616(5) 0.590(5)
Zn1A Zn 0.15654(5) 1.24612(5) 1.36266(3)
O4A O -0.2082(5) 0.6386(3) 0.7889(3)
loop_
_geom_bond_atom_site_label_1
_geom_bond_atom_site_label_2
_geom_bond_site_symmetry_1
_geom_bond_site_symmetry_2
Zn1 O1 1_555 1_555
O1 C1 1_555 1_555
O2 C1 1_555 1_555
O3 C5 1_555 1_555
O4 C10 1_555 1_555
O5 Zn1 1_555 1_555
N1 H1 1_555 1_555
O6 C10 1_555 1_555
O7 Zn1 1_555 1_555
C1 C2 1_555 1_555
C2 C3 1_555 1_555
C3 H2 1_555 1_555
C4 N1 1_555 1_555
C5 N1 1_555 1_555
C6 C5 1_555 1_555
H3 C6 1_555 1_555
H4 C6 1_555 1_555
H5 C6 1_555 1_555
C7 C4 1_555 1_555
H6 C7 1_555 1_555
C8 C7 1_555 1_555
C9 C2 1_555 1_555
H7 C9 1_555 1_555
C10 C8 1_555 1_555
H8 O5 1_555 1_555
H9 O5 1_555 1_555
H10 O7 1_555 1_555
H11 O7 1_555 1_555
Zn1A O4 1_555 1_555
O4A Zn1 1_555 1_555
C3 C4 1_555 1_555
C8 C9 1_555 1_555

#END
