
#######################################################################
#
#                 Cambridge Crystallographic Data Centre
#                                CCDC 
#
#######################################################################
#
# If this CIF has been generated from an entry in the Cambridge 
# Structural Database, then it will include bibliographic, chemical, 
# crystal, experimental, refinement or atomic coordinate data resulting 
# from the CCDC's data processing and validation procedures.
#
#######################################################################

data_BUSNAF
_symmetry_cell_setting           rhombohedral
_symmetry_space_group_name_H-M   'R -3'
_symmetry_Int_Tables_number      148
_space_group_name_Hall           '-R 3'
loop_
_symmetry_equiv_pos_site_id
_symmetry_equiv_pos_as_xyz
1 x,y,z
2 -y,x-y,z
3 -x+y,-x,z
4 2/3+x,1/3+y,1/3+z
5 2/3-y,1/3+x-y,1/3+z
6 2/3-x+y,1/3-x,1/3+z
7 1/3+x,2/3+y,2/3+z
8 1/3-y,2/3+x-y,2/3+z
9 1/3-x+y,2/3-x,2/3+z
10 -x,-y,-z
11 y,-x+y,-z
12 x-y,x,-z
13 1/3-x,2/3-y,2/3-z
14 1/3+y,2/3-x+y,2/3-z
15 1/3+x-y,2/3+x,2/3-z
16 2/3-x,1/3-y,1/3-z
17 2/3+y,1/3-x+y,1/3-z
18 2/3+x-y,1/3+x,1/3-z
_cell_length_a                   27.070(9)
_cell_length_b                   27.070(9)
_cell_length_c                   10.126(7)
_cell_angle_alpha                90
_cell_angle_beta                 90
_cell_angle_gamma                120
_cell_volume                     6426.06
loop_
_atom_site_label
_atom_site_type_symbol
_atom_site_fract_x
_atom_site_fract_y
_atom_site_fract_z
Co1 Co 0.3333 0.1667 1.6667
N1 N 0.2611(2) 0.1528(2) 1.5481(4)
N2 N 0.3455(2) 0.13398(18) 1.4965(4)
N3 N 0.3858(2) 0.12251(19) 1.4475(4)
N4 N 0.3168(2) 0.0988(2) 1.2918(4)
N5 N 0.4580(2) 0.0448(2) 1.0876(4)
C1 C 0.2223(3) 0.1668(3) 1.5832(6)
H1 H 0.2232 0.1802 1.6683
C2 C 0.1811(3) 0.1619(4) 1.4974(7)
H2 H 0.1552 0.1732 1.5222
C3 C 0.1787(4) 0.1397(4) 1.3729(7)
H3 H 0.1499 0.1349 1.3150
C4 C 0.2176(3) 0.1246(3) 1.3333(6)
C5 C 0.2593(2) 0.1319(2) 1.4251(5)
C6 C 0.3061(3) 0.1204(2) 1.4016(5)
C7 C 0.3664(3) 0.1017(2) 1.3265(5)
C8 C 0.3983(3) 0.0835(2) 1.2409(5)
C9 C 0.4542(3) 0.0993(3) 1.2675(6)
H4 H 0.4730 0.1235 1.3381
C10 C 0.4821(3) 0.0798(3) 1.1912(6)
H5 H 0.5198 0.0911 1.2118
C11 C 0.4050(3) 0.0315(3) 1.0596(6)
H6 H 0.3877 0.0084 0.9865
C12 C 0.3737(3) 0.0495(3) 1.1314(6)
H7 H 0.3366 0.0389 1.1066
C13 C 0.2145(3) 0.1004(3) 1.1965(6)
H8 H 0.2449 0.0921 1.1862
H9 H 0.2183 0.1279 1.1313
H10 H 0.1785 0.0661 1.1855
Co1E Co 0.5001 0.0000 1.0000
Co1K Co 0.1666 0.3333 2.3333
N1O N 0.4056(2) 0.1805(2) 1.7852(4)
N2O N 0.3212(2) 0.19935(18) 1.8368(4)
N3O N 0.2809(2) 0.21082(19) 1.8858(4)
N4O N 0.3499(2) 0.2345(2) 2.0415(4)
N5O N 0.2087(2) 0.2885(2) 2.2457(4)
N5G N 0.2885(2) 0.0799(3) 1.7543(4)
N5M N 0.3781(2) 0.2535(3) 1.5791(4)
C1O C 0.4444(3) 0.1665(3) 1.7501(6)
H1O H 0.4435 0.1531 1.6650
C2O C 0.4856(3) 0.1714(4) 1.8359(7)
H2O H 0.5115 0.1601 1.8111
C3O C 0.4880(4) 0.1936(4) 1.9604(7)
H3O H 0.5168 0.1984 2.0183
C4O C 0.4491(3) 0.2087(3) 2.0000(6)
C5O C 0.4074(2) 0.2014(2) 1.9082(5)
C6O C 0.3606(3) 0.2129(2) 1.9317(5)
C7O C 0.3003(3) 0.2316(2) 2.0068(5)
C8O C 0.2684(3) 0.2498(2) 2.0924(5)
C9O C 0.2125(3) 0.2340(3) 2.0658(6)
H4O H 0.1937 0.2098 1.9952
C10O C 0.1846(3) 0.2535(3) 2.1421(6)
H5O H 0.1469 0.2422 2.1215
C11O C 0.2617(3) 0.3018(3) 2.2737(6)
H6O H 0.2790 0.3249 2.3468
C12O C 0.2930(3) 0.2838(3) 2.2019(6)
H7O H 0.3301 0.2944 2.2267
C13O C 0.4522(3) 0.2329(3) 2.1368(6)
H8O H 0.4218 0.2412 2.1471
H9O H 0.4484 0.2054 2.2020
H10O H 0.4882 0.2672 2.1478
loop_
_geom_bond_atom_site_label_1
_geom_bond_atom_site_label_2
_geom_bond_site_symmetry_1
_geom_bond_site_symmetry_2
Co1 N1 1_555 1_555
N1 C1 1_555 1_555
N2 Co1 1_555 1_555
N3 N2 1_555 1_555
N4 C6 1_555 1_555
N5 C10 1_555 1_555
C1 H1 1_555 1_555
C2 C1 1_555 1_555
H2 C2 1_555 1_555
C3 C2 1_555 1_555
H3 C3 1_555 1_555
C4 C3 1_555 1_555
C5 N1 1_555 1_555
C6 N2 1_555 1_555
C7 N3 1_555 1_555
C8 C7 1_555 1_555
C9 C8 1_555 1_555
H4 C9 1_555 1_555
C10 C9 1_555 1_555
H5 C10 1_555 1_555
C11 N5 1_555 1_555
H6 C11 1_555 1_555
C12 C8 1_555 1_555
H7 C12 1_555 1_555
C13 C4 1_555 1_555
H8 C13 1_555 1_555
H9 C13 1_555 1_555
H10 C13 1_555 1_555
Co1E N5 1_555 1_555
Co1K N5O 1_555 1_555
N1O Co1 1_555 1_555
N2O Co1 1_555 1_555
N3O N2O 1_555 1_555
N4O C6O 1_555 1_555
N5O C10O 1_555 1_555
N5G Co1 1_555 1_555
N5M Co1 1_555 1_555
C1O N1O 1_555 1_555
H1O C1O 1_555 1_555
C2O C1O 1_555 1_555
H2O C2O 1_555 1_555
C3O C2O 1_555 1_555
H3O C3O 1_555 1_555
C4O C3O 1_555 1_555
C5O N1O 1_555 1_555
C6O N2O 1_555 1_555
C7O N3O 1_555 1_555
C8O C7O 1_555 1_555
C9O C8O 1_555 1_555
H4O C9O 1_555 1_555
C10O C9O 1_555 1_555
H5O C10O 1_555 1_555
C11O N5O 1_555 1_555
H6O C11O 1_555 1_555
C12O C8O 1_555 1_555
H7O C12O 1_555 1_555
C13O C4O 1_555 1_555
H8O C13O 1_555 1_555
H9O C13O 1_555 1_555
H10O C13O 1_555 1_555
N4 C7 1_555 1_555
C4 C5 1_555 1_555
C5 C6 1_555 1_555
C11 C12 1_555 1_555
N4O C7O 1_555 1_555
C4O C5O 1_555 1_555
C5O C6O 1_555 1_555
C11O C12O 1_555 1_555

#END
