
#######################################################################
#
#                 Cambridge Crystallographic Data Centre
#                                CCDC 
#
#######################################################################
#
# If this CIF has been generated from an entry in the Cambridge 
# Structural Database, then it will include bibliographic, chemical, 
# crystal, experimental, refinement or atomic coordinate data resulting 
# from the CCDC's data processing and validation procedures.
#
#######################################################################

data_BUSXAP
_symmetry_cell_setting           rhombohedral
_symmetry_space_group_name_H-M   'R -3'
_symmetry_Int_Tables_number      148
_space_group_name_Hall           '-R 3'
loop_
_symmetry_equiv_pos_site_id
_symmetry_equiv_pos_as_xyz
1 x,y,z
2 -y,x-y,z
3 -x+y,-x,z
4 2/3+x,1/3+y,1/3+z
5 2/3-y,1/3+x-y,1/3+z
6 2/3-x+y,1/3-x,1/3+z
7 1/3+x,2/3+y,2/3+z
8 1/3-y,2/3+x-y,2/3+z
9 1/3-x+y,2/3-x,2/3+z
10 -x,-y,-z
11 y,-x+y,-z
12 x-y,x,-z
13 1/3-x,2/3-y,2/3-z
14 1/3+y,2/3-x+y,2/3-z
15 1/3+x-y,2/3+x,2/3-z
16 2/3-x,1/3-y,1/3-z
17 2/3+y,1/3-x+y,1/3-z
18 2/3+x-y,1/3+x,1/3-z
_cell_length_a                   26.623(4)
_cell_length_b                   26.623(4)
_cell_length_c                   7.8766(16)
_cell_angle_alpha                90
_cell_angle_beta                 90
_cell_angle_gamma                120
_cell_volume                     4834.85
loop_
_atom_site_label
_atom_site_type_symbol
_atom_site_fract_x
_atom_site_fract_y
_atom_site_fract_z
Mn1 Mn 0.63824(2) 0.03134(2) 0.17699(6)
O1 O 0.63815(9) 0.06487(10) 0.4335(3)
N1 N 0.56196(11) 0.09193(12) -0.2086(3)
N2 N 0.59789(12) 0.07130(12) 0.0195(3)
C1 C 0.57383(14) 0.13530(15) -0.0930(4)
C2 C 0.59738(14) 0.12277(15) 0.0494(4)
C3 C 0.66721(14) 0.06787(15) 0.5594(4)
C4 C 0.53566(14) 0.08568(16) -0.3742(4)
H1 H 0.5440 0.0606 -0.4436
H2 H 0.5533 0.1234 -0.4287
C5 C 0.56791(16) 0.18419(17) -0.1002(5)
H3 H 0.5522 0.1923 -0.1946
C6 C 0.61620(16) 0.15943(17) 0.1883(5)
H4 H 0.6324 0.1519 0.2826
C7 C 0.58634(19) 0.21983(19) 0.0391(6)
H5 H 0.5831 0.2530 0.0393
C8 C 0.6099(2) 0.20754(19) 0.1806(6)
H6 H 0.6217 0.2327 0.2727
C9 C 0.47041(13) 0.06075(13) -0.3675(4)
O2 O 0.44736(9) 0.06238(10) -0.5032(3)
O3 O 0.44581(9) 0.04084(10) -0.2288(3)
O4 O 0.67912(9) 0.02969(9) 0.6081(2)
H7 H 0.6804(16) 0.1002(17) 0.634(5)
C10 C 0.57598(15) 0.05515(17) -0.1339(5)
H8 H 0.5680(15) 0.0207(15) -0.186(4)
Mn1M Mn 0.36467(2) 0.05977(3) -0.51032(6)
Mn1I Mn 0.36176(2) -0.03134(2) -0.17699(6)
Mn1H Mn 0.72643(3) 0.02843(2) 0.84366(6)
Mn1D Mn 0.63533(2) -0.05977(3) 0.51032(6)
O2N O 0.71831(13) 0.11403(9) 0.1699(3)
O3I O 0.55419(9) -0.04084(10) 0.2288(3)
O4D O 0.63698(9) -0.01724(13) -0.0586(2)
O4H O 0.68390(13) -0.01245(9) 0.2748(2)
loop_
_geom_bond_atom_site_label_1
_geom_bond_atom_site_label_2
_geom_bond_site_symmetry_1
_geom_bond_site_symmetry_2
Mn1 O1 1_555 1_555
O1 C3 1_555 1_555
N1 C1 1_555 1_555
N2 Mn1 1_555 1_555
C1 C2 1_555 1_555
C2 N2 1_555 1_555
C3 O4 1_555 1_555
C4 N1 1_555 1_555
H1 C4 1_555 1_555
H2 C4 1_555 1_555
C5 C1 1_555 1_555
H3 C5 1_555 1_555
C6 C2 1_555 1_555
H4 C6 1_555 1_555
C7 C5 1_555 1_555
H5 C7 1_555 1_555
C8 C6 1_555 1_555
H6 C8 1_555 1_555
C9 C4 1_555 1_555
O2 C9 1_555 1_555
O3 C9 1_555 1_555
O4 Mn1H 1_555 1_555
H7 C3 1_555 1_555
C10 N1 1_555 1_555
H8 C10 1_555 1_555
Mn1M O2 1_555 1_555
Mn1I O3 1_555 1_555
Mn1D O4 1_555 1_555
O2N Mn1 1_555 1_555
O3I Mn1 1_555 1_555
O4D Mn1 1_555 1_555
O4H Mn1 1_555 1_555
N2 C10 1_555 1_555
C7 C8 1_555 1_555
Mn1D O4H 1_555 1_555

#END
