
#######################################################################
#
#                 Cambridge Crystallographic Data Centre
#                                CCDC 
#
#######################################################################
#
# If this CIF has been generated from an entry in the Cambridge 
# Structural Database, then it will include bibliographic, chemical, 
# crystal, experimental, refinement or atomic coordinate data resulting 
# from the CCDC's data processing and validation procedures.
#
#######################################################################

data_BUSYIY
_symmetry_cell_setting           triclinic
_symmetry_space_group_name_H-M   'P -1'
_symmetry_Int_Tables_number      2
_space_group_name_Hall           '-P 1'
loop_
_symmetry_equiv_pos_site_id
_symmetry_equiv_pos_as_xyz
1 x,y,z
2 -x,-y,-z
_cell_length_a                   8.2024(12)
_cell_length_b                   10.9780(15)
_cell_length_c                   12.1091(16)
_cell_angle_alpha                65.644(2)
_cell_angle_beta                 84.435(2)
_cell_angle_gamma                89.477(2)
_cell_volume                     988.078
loop_
_atom_site_label
_atom_site_type_symbol
_atom_site_fract_x
_atom_site_fract_y
_atom_site_fract_z
Cd1 Cd 0.52670(2) 0.091890(15) 0.829992(14)
O1 O 0.3480(3) -0.08583(19) 0.81682(17)
O2 O 0.4312(2) -0.10783(18) 0.98865(16)
O3 O 0.8075(2) 0.20315(19) 0.75305(17)
O4 O 0.7666(2) -0.01265(18) 0.81131(18)
O5 O 0.1948(2) -0.55597(16) 1.13081(17)
H1 H 0.1836 -0.6381 1.1745
O6 O 0.9002(3) -0.18017(18) 0.73589(19)
H2 H 0.8584 -0.1401 0.7747
N1 N 0.3443(3) 0.2634(2) 0.78655(19)
N2 N 0.5053(3) 0.1876(2) 0.61790(18)
C1 C 0.2599(3) 0.2970(3) 0.8690(3)
H3 H 0.2714 0.2461 0.9509
C2 C 0.1559(4) 0.4035(3) 0.8392(3)
H4 H 0.0991 0.4233 0.8997
C3 C 0.1386(4) 0.4786(3) 0.7194(3)
H5 H 0.0704 0.5512 0.6976
C4 C 0.2233(3) 0.4469(3) 0.6285(3)
C5 C 0.2114(4) 0.5209(3) 0.5014(3)
H6 H 0.1457 0.5951 0.4759
C6 C 0.2921(4) 0.4864(3) 0.4187(3)
H7 H 0.2824 0.5373 0.3366
C7 C 0.3950(3) 0.3713(3) 0.4536(2)
C8 C 0.4791(4) 0.3285(4) 0.3714(3)
H8 H 0.4725 0.3764 0.2883
C9 C 0.5711(4) 0.2176(4) 0.4108(3)
H9 H 0.6257 0.1882 0.3559
C10 C 0.5814(4) 0.1487(3) 0.5368(3)
H10 H 0.6441 0.0729 0.5643
C11 C 0.4126(3) 0.2964(2) 0.5782(2)
C12 C 0.3262(3) 0.3363(2) 0.6669(2)
C13 C 0.3523(3) -0.1517(2) 0.9274(2)
C14 C 0.2721(3) -0.2896(2) 0.9901(2)
H11 H 0.1806 -0.2952 0.9471
H12 H 0.2296 -0.3051 1.0726
C15 C 0.3927(3) -0.3968(2) 0.9940(2)
C16 C 0.5459(3) -0.3691(2) 0.9282(2)
H13 H 0.5780 -0.2806 0.8790
C17 C 0.3473(3) -0.5305(2) 1.0665(2)
C18 C 0.8566(3) 0.0951(3) 0.7589(2)
C19 C 1.0233(3) 0.0823(3) 0.6992(3)
H14 H 1.0828 0.1678 0.6672
H15 H 1.0852 0.0175 0.7600
C20 C 1.0097(3) 0.0391(2) 0.5968(2)
C21 C 1.0569(3) 0.1257(2) 0.4763(3)
H16 H 1.0948 0.2118 0.4594
C22 C 0.9505(3) -0.0889(2) 0.6186(3)
Cd1A Cd 0.47330(2) -1.091890(15) 1.170008(14)
Cd1A_2 Cd 0.47330(2) -0.091890(15) 1.170008(14)
Cd1_2 Cd 0.52670(2) -0.908110(15) 0.829992(14)
Cd1A_3 Cd 1.47330(2) -0.091890(15) 0.170008(14)
O1A O 0.6520(3) -0.91417(19) 1.18318(17)
O2A O 0.5688(2) -0.89217(18) 1.01135(16)
O2A_2 O 0.5688(2) 0.10783(18) 1.01135(16)
O2_2 O 0.4312(2) -1.10783(18) 0.98865(16)
O3A O 1.1925(2) -0.20315(19) 0.24695(17)
O3A_2 O 0.1925(2) -1.20315(19) 1.24695(17)
O4A O 1.2334(2) 0.01265(18) 0.18869(18)
O4A_2 O 0.2334(2) -0.98735(18) 1.18869(18)
O5A O 0.8052(2) -0.44403(16) 0.86919(17)
H1A H 0.8164 -0.3619 0.8255
O6A O 1.0998(3) 0.18017(18) 0.26411(19)
H2A H 1.1416 0.1401 0.2253
N1A N 0.6557(3) -1.2634(2) 1.21345(19)
N2A N 0.4947(3) -1.1876(2) 1.38210(18)
C1A C 0.7401(3) -1.2970(3) 1.1310(3)
H3A H 0.7286 -1.2461 1.0491
C2A C 0.8441(4) -1.4035(3) 1.1608(3)
H4A H 0.9009 -1.4233 1.1003
C3A C 0.8614(4) -1.4786(3) 1.2806(3)
H5A H 0.9296 -1.5512 1.3024
C4A C 0.7767(3) -1.4469(3) 1.3715(3)
C5A C 0.7886(4) -1.5209(3) 1.4986(3)
H6A H 0.8543 -1.5951 1.5241
C6A C 0.7079(4) -1.4864(3) 1.5813(3)
H7A H 0.7176 -1.5373 1.6634
C7A C 0.6050(3) -1.3713(3) 1.5464(2)
C8A C 0.5209(4) -1.3285(4) 1.6286(3)
H8A H 0.5275 -1.3764 1.7117
C9A C 0.4289(4) -1.2176(4) 1.5892(3)
H9A H 0.3743 -1.1882 1.6441
C10A C 0.4186(4) -1.1487(3) 1.4632(3)
H10A H 0.3559 -1.0729 1.4357
C11A C 0.5874(3) -1.2964(2) 1.4218(2)
C12A C 0.6738(3) -1.3363(2) 1.3331(2)
C13A C 0.6477(3) -0.8483(2) 1.0726(2)
C14A C 0.7279(3) -0.7104(2) 1.0099(2)
H11A H 0.8194 -0.7048 1.0529
H12A H 0.7704 -0.6949 0.9274
C15A C 0.6073(3) -0.6032(2) 1.0060(2)
C16A C 0.4541(3) -0.6309(2) 1.0718(2)
H13A H 0.4220 -0.7194 1.1210
C17A C 0.6527(3) -0.4695(2) 0.9335(2)
C18A C 1.1434(3) -0.0951(3) 0.2411(2)
C19A C 0.9767(3) -0.0823(3) 0.3008(3)
H14A H 0.9172 -0.1678 0.3328
H15A H 0.9148 -0.0175 0.2400
C20A C 0.9903(3) -0.0391(2) 0.4032(2)
C21A C 0.9431(3) -0.1257(2) 0.5237(3)
H16A H 0.9052 -0.2118 0.5406
C22A C 1.0495(3) 0.0889(2) 0.3814(3)
loop_
_geom_bond_atom_site_label_1
_geom_bond_atom_site_label_2
_geom_bond_site_symmetry_1
_geom_bond_site_symmetry_2
Cd1 O1 1_555 1_555
O1 C13 1_555 1_555
O2 Cd1 1_555 1_555
O3 Cd1 1_555 1_555
O4 Cd1 1_555 1_555
O5 H1 1_555 1_555
O6 H2 1_555 1_555
N1 Cd1 1_555 1_555
N2 Cd1 1_555 1_555
C1 N1 1_555 1_555
H3 C1 1_555 1_555
C2 C1 1_555 1_555
H4 C2 1_555 1_555
C3 C2 1_555 1_555
H5 C3 1_555 1_555
C4 C3 1_555 1_555
C5 C4 1_555 1_555
H6 C5 1_555 1_555
C6 C5 1_555 1_555
H7 C6 1_555 1_555
C7 C6 1_555 1_555
C8 C7 1_555 1_555
H8 C8 1_555 1_555
C9 C8 1_555 1_555
H9 C9 1_555 1_555
C10 N2 1_555 1_555
H10 C10 1_555 1_555
C11 N2 1_555 1_555
C12 N1 1_555 1_555
C13 O2 1_555 1_555
C14 C13 1_555 1_555
H11 C14 1_555 1_555
H12 C14 1_555 1_555
C15 C14 1_555 1_555
C16 C15 1_555 1_555
H13 C16 1_555 1_555
C17 O5 1_555 1_555
C18 O3 1_555 1_555
C19 C18 1_555 1_555
H14 C19 1_555 1_555
H15 C19 1_555 1_555
C20 C19 1_555 1_555
C21 C20 1_555 1_555
H16 C21 1_555 1_555
C22 O6 1_555 1_555
Cd1A O1A 1_555 1_555
Cd1A_2 O2 1_555 1_555
Cd1_2 O2A 1_555 1_555
Cd1A_3 O3A 1_555 1_555
O1A C13A 1_555 1_555
O2A Cd1A 1_555 1_555
O2A_2 Cd1 1_555 1_555
O2_2 Cd1A 1_555 1_555
O3A C18A 1_555 1_555
O3A_2 Cd1A 1_555 1_555
O4A Cd1A_3 1_555 1_555
O4A_2 Cd1A 1_555 1_555
O5A H1A 1_555 1_555
O6A H2A 1_555 1_555
N1A Cd1A 1_555 1_555
N2A Cd1A 1_555 1_555
C1A N1A 1_555 1_555
H3A C1A 1_555 1_555
C2A C1A 1_555 1_555
H4A C2A 1_555 1_555
C3A C2A 1_555 1_555
H5A C3A 1_555 1_555
C4A C3A 1_555 1_555
C5A C4A 1_555 1_555
H6A C5A 1_555 1_555
C6A C5A 1_555 1_555
H7A C6A 1_555 1_555
C7A C6A 1_555 1_555
C8A C7A 1_555 1_555
H8A C8A 1_555 1_555
C9A C8A 1_555 1_555
H9A C9A 1_555 1_555
C10A N2A 1_555 1_555
H10A C10A 1_555 1_555
C11A N2A 1_555 1_555
C12A N1A 1_555 1_555
C13A O2A 1_555 1_555
C14A C13A 1_555 1_555
H11A C14A 1_555 1_555
H12A C14A 1_555 1_555
C15A C14A 1_555 1_555
C16A C17 1_555 1_555
H13A C16A 1_555 1_555
C17A C16 1_555 1_555
C18A O4A 1_555 1_555
C19A C18A 1_555 1_555
H14A C19A 1_555 1_555
H15A C19A 1_555 1_555
C20A C19A 1_555 1_555
C21A C22 1_555 1_555
H16A C21A 1_555 1_555
C22A C21 1_555 1_555
O4 C18 1_555 1_555
C4 C12 1_555 1_555
C7 C11 1_555 1_555
C9 C10 1_555 1_555
C11 C12 1_555 1_555
C15 C17 1_555 1_555
C20 C22 1_555 1_555
Cd1A_2 O2A_2 1_555 1_555
Cd1_2 O2_2 1_555 1_555
O5A C17A 1_555 1_555
O6A C22A 1_555 1_555
C4A C12A 1_555 1_555
C7A C11A 1_555 1_555
C9A C10A 1_555 1_555
C11A C12A 1_555 1_555
C15A C16A 1_555 1_555
C15A C17A 1_555 1_555
C20A C21A 1_555 1_555
C20A C22A 1_555 1_555

#END
