
#######################################################################
#
#                 Cambridge Crystallographic Data Centre
#                                CCDC 
#
#######################################################################
#
# If this CIF has been generated from an entry in the Cambridge 
# Structural Database, then it will include bibliographic, chemical, 
# crystal, experimental, refinement or atomic coordinate data resulting 
# from the CCDC's data processing and validation procedures.
#
#######################################################################

data_BUTCUQ
_symmetry_cell_setting           orthorhombic
_symmetry_space_group_name_H-M   'P 21 21 2'
_symmetry_Int_Tables_number      18
_space_group_name_Hall           'P 2 2ab'
loop_
_symmetry_equiv_pos_site_id
_symmetry_equiv_pos_as_xyz
1 x,y,z
2 -x,-y,z
3 1/2-x,1/2+y,-z
4 1/2+x,1/2-y,-z
_cell_length_a                   23.3536(5)
_cell_length_b                   9.0434(2)
_cell_length_c                   4.99390(10)
_cell_angle_alpha                90
_cell_angle_beta                 90
_cell_angle_gamma                90
_cell_volume                     1054.69
loop_
_atom_site_label
_atom_site_type_symbol
_atom_site_fract_x
_atom_site_fract_y
_atom_site_fract_z
K1 K 0.5000 1.0000 0.67598(9)
K2 K 0.5000 0.5000 0.70830(10)
C1 C 0.37190(6) 0.69370(16) 0.3668(3)
C2 C 0.32071(6) 0.69562(16) 0.1730(3)
C3 C 0.26543(6) 0.67837(15) 0.3346(3)
C4 C 0.21277(6) 0.65562(16) 0.1567(3)
C5 C 0.15984(6) 0.63560(19) 0.3308(3)
O1 O 0.38531(5) 0.55224(13) 0.4618(2)
O2 O 0.32388(5) 0.57866(13) -0.0172(2)
O3 O 0.26007(5) 0.81265(13) 0.4827(3)
O4 O 0.20578(5) 0.77316(14) -0.0315(2)
O5 O 0.10823(5) 0.62153(13) 0.1783(3)
S1 S 0.43316(2) 0.78331(4) 0.21337(7)
O6 O 0.43680(5) 0.73320(13) -0.0636(2)
O7 O 0.48337(4) 0.74113(13) 0.3723(2)
O8 O 0.42133(5) 0.94196(12) 0.2349(3)
O9 O 0.42697(5) 0.37107(14) 1.0868(3)
H1 H 0.3619(8) 0.756(2) 0.520(4)
H2 H 0.3170(9) 0.786(2) 0.088(4)
H3 H 0.2694(9) 0.598(2) 0.456(5)
H4 H 0.2190(9) 0.573(2) 0.044(5)
H5 H 0.1557(9) 0.718(3) 0.447(5)
H6 H 0.1647(9) 0.553(3) 0.444(5)
H7 H 0.3898(10) 0.496(3) 0.338(5)
H8 H 0.3515(10) 0.585(3) -0.100(5)
H9 H 0.2443(11) 0.793(3) 0.633(5)
H10 H 0.2011(12) 0.848(3) 0.035(6)
H11 H 0.1126(10) 0.557(3) 0.075(5)
H12 H 0.4115(12) 0.304(3) 1.008(7)
H13 H 0.4524(13) 0.326(3) 1.175(7)
C1A C 0.62810(6) 0.30630(16) 0.3668(3)
C2A C 0.67929(6) 0.30438(16) 0.1730(3)
C3A C 0.73457(6) 0.32163(15) 0.3346(3)
C4A C 0.78723(6) 0.34438(16) 0.1567(3)
C5A C 0.84016(6) 0.36440(19) 0.3308(3)
O1A O 0.61469(5) 0.44776(13) 0.4618(2)
O2A O 0.67612(5) 0.42134(13) -0.0172(2)
O3A O 0.73993(5) 0.18735(13) 0.4827(3)
O4A O 0.79422(5) 0.22684(14) -0.0315(2)
O5A O 0.89177(5) 0.37847(13) 0.1783(3)
S1A S 0.56684(2) 0.21669(4) 0.21337(7)
O6A O 0.56320(5) 0.26680(13) -0.0636(2)
O7A O 0.51663(4) 0.25887(13) 0.3723(2)
O8A O 0.57867(5) 0.05804(12) 0.2349(3)
O9A O 0.57303(5) 0.62893(14) 1.0868(3)
H1A H 0.6381(8) 0.244(2) 0.520(4)
H2A H 0.6830(9) 0.214(2) 0.088(4)
H3A H 0.7306(9) 0.402(2) 0.456(5)
H4A H 0.7810(9) 0.427(2) 0.044(5)
H5A H 0.8443(9) 0.282(3) 0.447(5)
H6A H 0.8353(9) 0.447(3) 0.444(5)
H7A H 0.6102(10) 0.504(3) 0.338(5)
H8A H 0.6485(10) 0.415(3) -0.100(5)
H9A H 0.7557(11) 0.207(3) 0.633(5)
H10A H 0.7989(12) 0.152(3) 0.035(6)
H11A H 0.8874(10) 0.443(3) 0.075(5)
H12A H 0.5885(12) 0.696(3) 1.008(7)
H13A H 0.5476(13) 0.674(3) 1.175(7)
K1_2 K 0.5000 0.0000 -0.32402(9)
K1_3 K 0.5000 0.0000 0.67598(9)
K1_4 K 0.5000 1.0000 -0.32402(9)
K1B K 0.0000 0.5000 0.32402(9)
K1B_2 K 1.0000 0.5000 0.32402(9)
K2_2 K 0.5000 0.5000 -0.29170(10)
O5B O 0.39177(5) 1.12153(13) 0.8217(3)
O5C O 0.60823(5) 0.87847(13) 0.8217(3)
O6_2 O 0.43680(5) 0.73320(13) 0.9364(2)
O6A_2 O 0.56320(5) 0.26680(13) 0.9364(2)
O6A_3 O 0.56320(5) 1.26680(13) 0.9364(2)
O7A_2 O 0.51663(4) 1.25887(13) 0.3723(2)
O8_2 O 0.42133(5) 0.94196(12) 1.2349(3)
O8A_2 O 0.57867(5) 1.05804(12) 0.2349(3)
O8A_3 O 0.57867(5) 1.05804(12) 1.2349(3)
loop_
_geom_bond_atom_site_label_1
_geom_bond_atom_site_label_2
_geom_bond_site_symmetry_1
_geom_bond_site_symmetry_2
K1 O7 1_555 1_555
K2 O1 1_555 1_555
C1 C2 1_555 1_555
C2 C3 1_555 1_555
C3 C4 1_555 1_555
C4 C5 1_555 1_555
C5 O5 1_555 1_555
O1 C1 1_555 1_555
O2 C2 1_555 1_555
O3 C3 1_555 1_555
O4 C4 1_555 1_555
O5 H11 1_555 1_555
S1 C1 1_555 1_555
O6 S1 1_555 1_555
O7 K2 1_555 1_555
O8 K1 1_555 1_555
O9 K2 1_555 1_555
H1 C1 1_555 1_555
H2 C2 1_555 1_555
H3 C3 1_555 1_555
H4 C4 1_555 1_555
H5 C5 1_555 1_555
H6 C5 1_555 1_555
H7 O1 1_555 1_555
H8 O2 1_555 1_555
H9 O3 1_555 1_555
H10 O4 1_555 1_555
H12 O9 1_555 1_555
H13 O9 1_555 1_555
C1A C2A 1_555 1_555
C2A C3A 1_555 1_555
C3A C4A 1_555 1_555
C4A C5A 1_555 1_555
C5A O5A 1_555 1_555
O1A K2 1_555 1_555
O2A C2A 1_555 1_555
O3A C3A 1_555 1_555
O4A C4A 1_555 1_555
O5A H11A 1_555 1_555
S1A C1A 1_555 1_555
O6A S1A 1_555 1_555
O7A K2 1_555 1_555
O8A S1A 1_555 1_555
O9A K2 1_555 1_555
H1A C1A 1_555 1_555
H2A C2A 1_555 1_555
H3A C3A 1_555 1_555
H4A C4A 1_555 1_555
H5A C5A 1_555 1_555
H6A C5A 1_555 1_555
H7A O1A 1_555 1_555
H8A O2A 1_555 1_555
H9A O3A 1_555 1_555
H10A O4A 1_555 1_555
H12A O9A 1_555 1_555
H13A O9A 1_555 1_555
K1_2 O6A 1_555 1_555
K1_3 O7A 1_555 1_555
K1_4 O6 1_555 1_555
K1B O5 1_555 1_555
K1B_2 O5A 1_555 1_555
K2_2 O6 1_555 1_555
O5B K1 1_555 1_555
O5C K1 1_555 1_555
O6_2 K1 1_555 1_555
O6A_2 K2 1_555 1_555
O6A_3 K1 1_555 1_555
O7A_2 K1 1_555 1_555
O8_2 K1 1_555 1_555
O8A_2 K1 1_555 1_555
O8A_3 K1 1_555 1_555
K2 O6_2 1_555 1_555
S1 O7 1_555 1_555
S1 O8 1_555 1_555
O8 K1_4 1_555 1_555
C1A O1A 1_555 1_555
S1A O7A 1_555 1_555
O6A K2_2 1_555 1_555
O8A K1_2 1_555 1_555
O8A K1_3 1_555 1_555
K1_3 O6A_2 1_555 1_555
K1_4 O8A_2 1_555 1_555

#END
