
#######################################################################
#
#                 Cambridge Crystallographic Data Centre
#                                CCDC 
#
#######################################################################
#
# If this CIF has been generated from an entry in the Cambridge 
# Structural Database, then it will include bibliographic, chemical, 
# crystal, experimental, refinement or atomic coordinate data resulting 
# from the CCDC's data processing and validation procedures.
#
#######################################################################

data_BUTDEB
_symmetry_cell_setting           triclinic
_symmetry_space_group_name_H-M   'P -1'
_symmetry_Int_Tables_number      2
_space_group_name_Hall           '-P 1'
loop_
_symmetry_equiv_pos_site_id
_symmetry_equiv_pos_as_xyz
1 x,y,z
2 -x,-y,-z
_cell_length_a                   10.3336(4)
_cell_length_b                   14.3984(10)
_cell_length_c                   15.2649(8)
_cell_angle_alpha                90.673(5)
_cell_angle_beta                 98.120(4)
_cell_angle_gamma                110.761(5)
_cell_volume                     2097.76
loop_
_atom_site_label
_atom_site_type_symbol
_atom_site_fract_x
_atom_site_fract_y
_atom_site_fract_z
C1 C 0.1812(2) 0.42880(17) 0.38770(16)
C2 C 0.2430(2) 0.45821(18) 0.47640(16)
C3 C 0.2575(2) 0.55645(18) 0.50517(16)
C4 C 0.2150(2) 0.61977(18) 0.44780(16)
C5 C 0.1557(2) 0.58829(18) 0.35810(16)
C6 C 0.1379(2) 0.49097(18) 0.33217(16)
C7 C 0.0684(2) 0.43477(19) 0.24478(18)
C8 C 0.1540(2) 0.33317(19) 0.33483(17)
C9 C 0.1132(3) 0.65298(18) 0.29307(17)
C10 C 0.1763(3) 0.6769(2) 0.2184(2)
H1 H 0.2526 0.6570 0.2106
C11 C 0.1286(4) 0.7299(3) 0.1548(2)
H2 H 0.1730 0.7467 0.1038
C12 C 0.0181(4) 0.7585(3) 0.1648(2)
H3 H -0.0159 0.7931 0.1200
C13 C -0.0429(3) 0.7369(2) 0.2397(2)
H4 H -0.1185 0.7575 0.2475
C14 C 0.0051(3) 0.6854(2) 0.3038(2)
H5 H -0.0366 0.6719 0.3561
C15 C 0.2338(2) 0.72254(19) 0.48178(17)
C16 C 0.3170(3) 0.8053(2) 0.4445(2)
H6 H 0.3607 0.7970 0.3958
C17 C 0.3372(3) 0.8999(2) 0.4774(2)
H7 H 0.3946 0.9563 0.4513
C18 C 0.2739(4) 0.9128(3) 0.5484(3)
H8 H 0.2889 0.9780 0.5716
C19 C 0.1900(3) 0.8316(3) 0.5850(2)
H9 H 0.1456 0.8402 0.6333
C20 C 0.1696(3) 0.7372(2) 0.55206(19)
H10 H 0.1106 0.6812 0.5778
C21 C 0.3198(2) 0.59491(18) 0.59910(16)
C22 C 0.4483(3) 0.6727(2) 0.61892(19)
H11 H 0.4999 0.7004 0.5727
C23 C 0.5009(3) 0.7097(2) 0.7056(2)
H12 H 0.5889 0.7627 0.7187
C24 C 0.4278(3) 0.6708(3) 0.7728(2)
H13 H 0.4642 0.6975 0.8321
C25 C 0.3019(3) 0.5932(3) 0.75458(19)
H14 H 0.2515 0.5655 0.8013
C26 C 0.2486(3) 0.5554(2) 0.66821(18)
H15 H 0.1616 0.5013 0.6560
C27 C 0.2915(2) 0.39208(18) 0.53592(16)
C28 C 0.4247(3) 0.4253(2) 0.58625(17)
H16 H 0.4864 0.4917 0.5825
C29 C 0.4684(3) 0.3637(3) 0.6413(2)
H17 H 0.5599 0.3878 0.6749
C30 C 0.3815(4) 0.2679(3) 0.6483(2)
H18 H 0.4116 0.2259 0.6870
C31 C 0.2507(3) 0.2334(2) 0.5989(2)
H19 H 0.1903 0.1667 0.6029
C32 C 0.2056(3) 0.2947(2) 0.54328(18)
H20 H 0.1143 0.2695 0.5096
C33 C 0.0371(2) 0.26727(18) 0.18019(16)
C34 C -0.1031(2) 0.22500(18) 0.14403(16)
H21 H -0.1709 0.2438 0.1679
C35 C -0.1440(2) 0.15485(17) 0.07257(15)
C36 C -0.0431(2) 0.12884(17) 0.03781(15)
H22 H -0.0708 0.0799 -0.0103
C37 C 0.0976(2) 0.17370(17) 0.07278(15)
C38 C 0.1373(2) 0.24164(17) 0.14548(16)
H23 H 0.2331 0.2705 0.1714
C39 C 0.2107(2) 0.15265(18) 0.03247(17)
C40 C -0.2964(2) 0.10917(19) 0.03119(16)
C41 C -0.4282(6) 0.4761(4) -0.1133(3)
H24 H -0.3774 0.4970 -0.1635
H25 H -0.4460 0.5326 -0.0881
H26 H -0.5175 0.4219 -0.1336
C42 C -0.2125(5) 0.5149(3) -0.0003(3)
H27 H -0.1613 0.4807 0.0375
H28 H -0.2324 0.5631 0.0364
H29 H -0.1554 0.5499 -0.0443
C43 C -0.3851(4) 0.3475(3) -0.0270(3)
H30 H -0.3265 0.3289 0.0175
H31 H -0.6942 0.0447 -0.1913
C44 C -0.5165(4) 0.0373(4) -0.2054(2)
H32 H -0.4258 0.0512 -0.1677
H33 H -0.5021 0.0722 -0.2600
H34 H -0.5612 -0.0345 -0.2203
Mn1 Mn -0.58074(3) 0.12182(3) -0.02265(3)
N1 N 0.08109(19) 0.34133(15) 0.25275(13)
N2 N -0.3446(3) 0.4419(2) -0.0459(2)
O1 O 0.18705(19) 0.26302(14) 0.35369(12)
O2 O 0.0113(2) 0.45931(14) 0.17947(13)
O3 O -0.37364(15) 0.15721(13) 0.04385(13)
O4 O -0.33606(15) 0.02934(13) -0.01469(12)
O5 O 0.18580(16) 0.11786(13) -0.04591(12)
O6 O 0.32789(16) 0.17261(14) 0.08006(12)
O7 O -0.4975(2) 0.27984(18) -0.06437(17)
O8 O -0.6035(2) 0.07047(18) -0.15961(13)
Mn1_2 Mn 0.41926(3) 0.12182(3) -0.02265(3)
Mn1A Mn -0.41926(3) -0.12182(3) 0.02265(3)
O4A O -0.66394(15) -0.02934(13) 0.01469(12)
O5_2 O -0.81420(16) 0.11786(13) -0.04591(12)
O6_2 O -0.67211(16) 0.17261(14) 0.08006(12)
C45 C 0.0833(4) 0.0247(3) 0.3879(2)
H35 H -0.0012 0.0328 0.4031
H36 H 0.1649 0.0848 0.4085
H37 H 0.0960 -0.0327 0.4165
C46 C 0.1913(4) 0.0118(3) 0.2553(3)
H38 H 0.1710 0.0105 0.1906
H39 H 0.2160 -0.0459 0.2723
H40 H 0.2699 0.0731 0.2777
C47 C -0.0539(4) -0.0119(2) 0.2437(2)
H41 H -0.0589 -0.0214 0.1814
N3 N 0.0691(3) 0.00866(18) 0.29286(18)
O9 O -0.1625(2) -0.01978(18) 0.27139(14)
loop_
_geom_bond_atom_site_label_1
_geom_bond_atom_site_label_2
_geom_bond_site_symmetry_1
_geom_bond_site_symmetry_2
C1 C2 1_555 1_555
C2 C3 1_555 1_555
C3 C4 1_555 1_555
C4 C5 1_555 1_555
C5 C6 1_555 1_555
C6 C1 1_555 1_555
C7 C6 1_555 1_555
C8 C1 1_555 1_555
C9 C5 1_555 1_555
C10 C9 1_555 1_555
H1 C10 1_555 1_555
C11 C10 1_555 1_555
H2 C11 1_555 1_555
C12 C11 1_555 1_555
H3 C12 1_555 1_555
C13 C12 1_555 1_555
H4 C13 1_555 1_555
C14 C9 1_555 1_555
H5 C14 1_555 1_555
C15 C4 1_555 1_555
C16 C15 1_555 1_555
H6 C16 1_555 1_555
C17 C16 1_555 1_555
H7 C17 1_555 1_555
C18 C17 1_555 1_555
H8 C18 1_555 1_555
C19 C18 1_555 1_555
H9 C19 1_555 1_555
C20 C15 1_555 1_555
H10 C20 1_555 1_555
C21 C3 1_555 1_555
C22 C21 1_555 1_555
H11 C22 1_555 1_555
C23 C22 1_555 1_555
H12 C23 1_555 1_555
C24 C23 1_555 1_555
H13 C24 1_555 1_555
C25 C24 1_555 1_555
H14 C25 1_555 1_555
C26 C21 1_555 1_555
H15 C26 1_555 1_555
C27 C2 1_555 1_555
C28 C27 1_555 1_555
H16 C28 1_555 1_555
C29 C28 1_555 1_555
H17 C29 1_555 1_555
C30 C29 1_555 1_555
H18 C30 1_555 1_555
C31 C30 1_555 1_555
H19 C31 1_555 1_555
C32 C27 1_555 1_555
H20 C32 1_555 1_555
C33 C34 1_555 1_555
C34 H21 1_555 1_555
C35 C34 1_555 1_555
C36 C35 1_555 1_555
H22 C36 1_555 1_555
C37 C36 1_555 1_555
C38 C33 1_555 1_555
H23 C38 1_555 1_555
C39 C37 1_555 1_555
C40 C35 1_555 1_555
C41 H24 1_555 1_555
H25 C41 1_555 1_555
H26 C41 1_555 1_555
C42 H27 1_555 1_555
H28 C42 1_555 1_555
H29 C42 1_555 1_555
C43 H30 1_555 1_555
H31 O8 1_555 1_555
C44 H32 1_555 1_555
H33 C44 1_555 1_555
H34 C44 1_555 1_555
Mn1 O3 1_555 1_555
N1 C7 1_555 1_555
N2 C41 1_555 1_555
O1 C8 1_555 1_555
O2 C7 1_555 1_555
O3 C40 1_555 1_555
O4 C40 1_555 1_555
O5 C39 1_555 1_555
O6 C39 1_555 1_555
O7 C43 1_555 1_555
O8 C44 1_555 1_555
C45 H35 1_555 1_555
H36 C45 1_555 1_555
H37 C45 1_555 1_555
C46 H38 1_555 1_555
H39 C46 1_555 1_555
H40 C46 1_555 1_555
C47 H41 1_555 1_555
N3 C45 1_555 1_555
O9 C47 1_555 1_555
Mn1_2 O5 1_555 1_555
Mn1A O4 1_555 1_555
O4A Mn1 1_555 1_555
O5_2 Mn1 1_555 1_555
O6_2 Mn1 1_555 1_555
C8 N1 1_555 1_555
C13 C14 1_555 1_555
C19 C20 1_555 1_555
C25 C26 1_555 1_555
C31 C32 1_555 1_555
C33 N1 1_555 1_555
C37 C38 1_555 1_555
C42 N2 1_555 1_555
C43 N2 1_555 1_555
Mn1 O7 1_555 1_555
Mn1 O8 1_555 1_555
O6 Mn1_2 1_555 1_555
C46 N3 1_555 1_555
C47 N3 1_555 1_555

#END
