
#######################################################################
#
#                 Cambridge Crystallographic Data Centre
#                                CCDC 
#
#######################################################################
#
# If this CIF has been generated from an entry in the Cambridge 
# Structural Database, then it will include bibliographic, chemical, 
# crystal, experimental, refinement or atomic coordinate data resulting 
# from the CCDC's data processing and validation procedures.
#
#######################################################################

data_BUTJIK
_symmetry_cell_setting           triclinic
_symmetry_space_group_name_H-M   'P -1'
_symmetry_Int_Tables_number      2
_space_group_name_Hall           '-P 1'
loop_
_symmetry_equiv_pos_site_id
_symmetry_equiv_pos_as_xyz
1 x,y,z
2 -x,-y,-z
_cell_length_a                   9.6483(8)
_cell_length_b                   10.1516(8)
_cell_length_c                   11.5751(9)
_cell_angle_alpha                74.3660(10)
_cell_angle_beta                 78.6470(10)
_cell_angle_gamma                68.7420(10)
_cell_volume                     1011.27
loop_
_atom_site_label
_atom_site_type_symbol
_atom_site_fract_x
_atom_site_fract_y
_atom_site_fract_z
Co1 Co 0.55284(3) 0.62671(3) 0.60929(2)
O1 O 0.66466(19) 0.67515(16) 0.74035(15)
O2 O 0.51354(18) 0.84514(16) 0.61612(13)
O3 O 0.7377(5) 1.0717(3) 1.0475(2)
O4 O 0.6918(3) 0.8738(2) 1.08861(17)
O5 O 0.63014(17) 1.40627(15) 0.66207(13)
O6 O 0.59265(18) 1.32914(16) 0.51193(13)
N1 N 0.7351(2) 0.6379(2) 0.46979(16)
N2 N 1.3747(2) 0.6223(2) -0.24491(16)
N3 N 0.7057(3) 0.9824(3) 1.0184(2)
C1 C 0.6607(3) 0.8956(2) 0.8555(2)
H1 H 0.6723 0.8056 0.9073
C2 C 1.1579(3) 0.6219(3) -0.0440(2)
C3 C 1.2377(3) 0.7181(3) -0.2489(2)
H2 H 1.2146 0.7862 -0.3204
C4 C 0.5999(3) 0.8061(2) 0.69628(19)
C5 C 0.6160(2) 1.3118(2) 0.61821(18)
C6 C 0.6121(2) 1.0561(2) 0.66226(19)
H3 H 0.5882 1.0733 0.5843
C7 C 1.0431(3) 0.6177(4) 0.0649(2)
H4 H 0.9454 0.6797 0.0408
H5 H 1.0399 0.5197 0.0935
C8 C 1.3000(3) 0.5253(3) -0.0401(2)
H6 H 1.3268 0.4572 0.0307
C9 C 0.6656(3) 1.1404(2) 0.8179(2)
H7 H 0.6789 1.2126 0.8455
C10 C 0.9597(3) 0.6553(3) 0.2757(2)
C11 C 0.8642(3) 0.7761(3) 0.3165(2)
H8 H 0.8730 0.8666 0.2795
C12 C 0.6336(2) 1.1655(2) 0.70088(18)
C13 C 0.6261(3) 0.9212(2) 0.7394(2)
C14 C 1.0736(3) 0.6653(3) 0.1671(2)
H9 H 1.1723 0.6053 0.1901
H10 H 1.0731 0.7646 0.1398
C15 C 0.7557(3) 0.7633(3) 0.4119(2)
H11 H 0.6932 0.8469 0.4374
C16 C 1.1280(3) 0.7216(4) -0.1521(2)
H12 H 1.0337 0.7911 -0.1594
C17 C 1.4037(3) 0.5281(3) -0.1404(2)
H13 H 1.4992 0.4604 -0.1348
C18 C 0.8311(3) 0.5204(3) 0.4317(2)
H14 H 0.8218 0.4306 0.4711
C19 C 0.6776(3) 1.0066(3) 0.8929(2)
C20 C 0.9425(3) 0.5249(3) 0.3376(2)
H15 H 1.0064 0.4395 0.3158
Co1_2 Co 0.55284(3) 1.62671(3) 0.60929(2)
Co1A Co 0.44716(3) 1.37329(3) 0.39071(2)
Co1_3 Co 1.55284(3) 0.62671(3) -0.39071(2)
O5_2 O 0.63014(17) 0.40627(15) 0.66207(13)
O6A O 0.40735(18) 0.67086(16) 0.48807(13)
N2_2 N 0.3747(2) 0.6223(2) 0.75509(16)
loop_
_geom_bond_atom_site_label_1
_geom_bond_atom_site_label_2
_geom_bond_site_symmetry_1
_geom_bond_site_symmetry_2
Co1 O1 1_555 1_555
O1 C4 1_555 1_555
O2 Co1 1_555 1_555
O3 N3 1_555 1_555
O4 N3 1_555 1_555
O5 C5 1_555 1_555
O6 C5 1_555 1_555
N1 Co1 1_555 1_555
N2 C3 1_555 1_555
N3 C19 1_555 1_555
C1 H1 1_555 1_555
C2 C7 1_555 1_555
C3 H2 1_555 1_555
C4 O2 1_555 1_555
C5 C12 1_555 1_555
C6 H3 1_555 1_555
C7 H4 1_555 1_555
H5 C7 1_555 1_555
C8 C2 1_555 1_555
H6 C8 1_555 1_555
C9 H7 1_555 1_555
C10 C11 1_555 1_555
C11 H8 1_555 1_555
C12 C6 1_555 1_555
C13 C1 1_555 1_555
C14 C7 1_555 1_555
H9 C14 1_555 1_555
H10 C14 1_555 1_555
C15 N1 1_555 1_555
H11 C15 1_555 1_555
C16 C2 1_555 1_555
H12 C16 1_555 1_555
C17 N2 1_555 1_555
H13 C17 1_555 1_555
C18 N1 1_555 1_555
H14 C18 1_555 1_555
C19 C1 1_555 1_555
C20 C10 1_555 1_555
H15 C20 1_555 1_555
Co1_2 O5 1_555 1_555
Co1A O6 1_555 1_555
Co1_3 N2 1_555 1_555
O5_2 Co1 1_555 1_555
O6A Co1 1_555 1_555
N2_2 Co1 1_555 1_555
C3 C16 1_555 1_555
C4 C13 1_555 1_555
C6 C13 1_555 1_555
C8 C17 1_555 1_555
C9 C12 1_555 1_555
C9 C19 1_555 1_555
C10 C14 1_555 1_555
C11 C15 1_555 1_555
C18 C20 1_555 1_555

#END
