
#######################################################################
#
#                 Cambridge Crystallographic Data Centre
#                                CCDC 
#
#######################################################################
#
# If this CIF has been generated from an entry in the Cambridge 
# Structural Database, then it will include bibliographic, chemical, 
# crystal, experimental, refinement or atomic coordinate data resulting 
# from the CCDC's data processing and validation procedures.
#
#######################################################################

data_BUTJOQ
_symmetry_cell_setting           orthorhombic
_symmetry_space_group_name_H-M   'P n n a'
_symmetry_Int_Tables_number      52
_space_group_name_Hall           '-P 2a 2bc'
loop_
_symmetry_equiv_pos_site_id
_symmetry_equiv_pos_as_xyz
1 x,y,z
2 1/2-x,-y,z
3 x,1/2-y,1/2-z
4 1/2-x,1/2+y,1/2-z
5 -x,-y,-z
6 1/2+x,y,-z
7 -x,1/2+y,1/2+z
8 1/2+x,1/2-y,1/2+z
_cell_length_a                   16.8815(10)
_cell_length_b                   13.9898(8)
_cell_length_c                   18.0275(10)
_cell_angle_alpha                90
_cell_angle_beta                 90
_cell_angle_gamma                90
_cell_volume                     4257.53
loop_
_atom_site_label
_atom_site_type_symbol
_atom_site_fract_x
_atom_site_fract_y
_atom_site_fract_z
C1 C 0.0192(3) 1.6546(3) 0.3893(3)
H1 H -0.0173 1.6854 0.3589
C2 C 0.1184(3) 1.6608(3) 0.4736(2)
H2 H 0.1523 1.6963 0.5035
C3 C 0.0830(3) 1.3997(4) 0.4339(3)
H3 H 0.0354 1.3706 0.4139
H4 H 0.0900 1.3770 0.4843
C4 C 0.5742(2) 1.3664(3) 0.1188(2)
C5 C 0.7984(2) 1.3754(3) 0.1337(2)
C6 C 0.6561(2) 1.3696(3) 0.1502(2)
C7 C 0.7226(2) 1.3708(3) 0.1046(2)
H5 H 0.7160 1.3684 0.0534
C8 C 0.2100(2) 1.3766(3) 0.2533(2)
C9 C 0.2880(3) 1.3684(3) 0.2756(2)
H6 H 0.3002 1.3660 0.3259
C10 C 0.8081(2) 1.3776(3) 0.2099(2)
H7 H 0.8585 1.3807 0.2307
C11 C 0.6659(2) 1.3717(3) 0.2266(2)
H8 H 0.6223 1.3708 0.2581
C12 C 0.3480(3) 1.3637(3) 0.2234(2)
H9 H 0.4000 1.3579 0.2399
C13 C 0.2592(2) 1.3752(3) 0.1295(2)
H10 H 0.2483 1.3781 0.0790
C14 C 0.7416(2) 1.3753(3) 0.2545(2)
C15 C 0.8708(2) 1.3796(3) 0.0847(2)
C16 C 0.1968(2) 1.3795(3) 0.1781(2)
H11 H 0.1453 1.3844 0.1601
C17 C 0.1549(3) 1.3703(4) 0.3866(3)
H12 H 0.2006 1.4080 0.4013
H13 H 0.1671 1.3036 0.3957
C18 C 0.1398(3) 1.3845(4) 0.3054(3)
H14 H 0.1165 1.4474 0.2989
H15 H 0.1005 1.3380 0.2900
C19 C 0.0201(3) 1.5555(3) 0.3898(3)
H16 H -0.0153 1.5214 0.3604
C20 C 0.1232(3) 1.5629(4) 0.4768(2)
H17 H 0.1599 1.5340 0.5081
C21 C 0.0739(3) 1.5079(4) 0.4341(2)
O1 O 0.93561(19) 1.3915(3) 0.1147(2)
O2 O 0.51631(17) 1.3639(2) 0.16241(18)
O3 O 0.56414(17) 1.3646(2) 0.04980(18)
O4 O 0.6945(3) 1.3768(4) 0.3750(2)
O5 O 0.8191(3) 1.3777(4) 0.3594(2)
O6 O 0.43708(16) 1.5131(2) 0.06984(15)
H18 H 0.3914 1.5362 0.0779
H19 H 0.4691 1.5329 0.1028
O7 O 0.85847(17) 1.3707(2) 0.01585(16)
Co1 Co 0.43124(3) 1.36285(4) 0.07448(3)
N1 N 0.0678(2) 1.7081(3) 0.43002(18)
N2 N 0.33484(19) 1.3670(2) 0.15050(18)
N3 N 0.7527(3) 1.3777(3) 0.3356(2)
O7E O 0.35847(17) 1.3707(2) -0.01585(16)
Co1E Co 0.93124(3) 1.36285(4) -0.07448(3)
Co1C Co 0.06876(3) 1.86285(4) 0.42552(3)
N1C N 0.4322(2) 1.2081(3) 0.06998(18)
loop_
_geom_bond_atom_site_label_1
_geom_bond_atom_site_label_2
_geom_bond_site_symmetry_1
_geom_bond_site_symmetry_2
C1 H1 1_555 1_555
C2 H2 1_555 1_555
C3 H3 1_555 1_555
H4 C3 1_555 1_555
C4 C6 1_555 1_555
C5 C7 1_555 1_555
C6 C7 1_555 1_555
C7 H5 1_555 1_555
C8 C9 1_555 1_555
C9 H6 1_555 1_555
C10 C5 1_555 1_555
H7 C10 1_555 1_555
C11 C6 1_555 1_555
H8 C11 1_555 1_555
C12 C9 1_555 1_555
H9 C12 1_555 1_555
C13 H10 1_555 1_555
C14 C10 1_555 1_555
C15 C5 1_555 1_555
C16 C8 1_555 1_555
H11 C16 1_555 1_555
C17 C3 1_555 1_555
H12 C17 1_555 1_555
H13 C17 1_555 1_555
C18 C8 1_555 1_555
H14 C18 1_555 1_555
H15 C18 1_555 1_555
C19 C1 1_555 1_555
H16 C19 1_555 1_555
C20 C2 1_555 1_555
H17 C20 1_555 1_555
C21 C3 1_555 1_555
O1 C15 1_555 1_555
O2 C4 1_555 1_555
O3 C4 1_555 1_555
O4 N3 1_555 1_555
O5 N3 1_555 1_555
O6 H18 1_555 1_555
H19 O6 1_555 1_555
O7 C15 1_555 1_555
Co1 O2 1_555 1_555
N1 C1 1_555 1_555
N2 C12 1_555 1_555
N3 C14 1_555 1_555
O7E Co1 1_555 1_555
Co1E O7 1_555 1_555
Co1C N1 1_555 1_555
N1C Co1 1_555 1_555
C2 N1 1_555 1_555
C11 C14 1_555 1_555
C13 C16 1_555 1_555
C13 N2 1_555 1_555
C17 C18 1_555 1_555
C19 C21 1_555 1_555
C20 C21 1_555 1_555
O3 Co1 1_555 1_555
O6 Co1 1_555 1_555
Co1 N2 1_555 1_555

#END
