
#######################################################################
#
#                 Cambridge Crystallographic Data Centre
#                                CCDC 
#
#######################################################################
#
# If this CIF has been generated from an entry in the Cambridge 
# Structural Database, then it will include bibliographic, chemical, 
# crystal, experimental, refinement or atomic coordinate data resulting 
# from the CCDC's data processing and validation procedures.
#
#######################################################################

data_BUTKOR
_symmetry_cell_setting           monoclinic
_symmetry_space_group_name_H-M   'P 21/c'
_symmetry_Int_Tables_number      14
_space_group_name_Hall           '-P 2ybc'
loop_
_symmetry_equiv_pos_site_id
_symmetry_equiv_pos_as_xyz
1 x,y,z
2 -x,1/2+y,1/2-z
3 -x,-y,-z
4 x,1/2-y,1/2+z
_cell_length_a                   14.1373(2)
_cell_length_b                   12.3960(2)
_cell_length_c                   9.89790(10)
_cell_angle_alpha                90
_cell_angle_beta                 93.4480(10)
_cell_angle_gamma                90
_cell_volume                     1731.43
loop_
_atom_site_label
_atom_site_type_symbol
_atom_site_fract_x
_atom_site_fract_y
_atom_site_fract_z
Br1 Br 0.65834(9) -0.03820(12) 0.82391(14)
C1 C 0.5899(7) 0.1373(8) 1.2352(10)
H1 H 0.5244 0.1310 1.2377
C2 C 0.6425(7) 0.1591(9) 1.3539(11)
H2 H 0.6126 0.1663 1.4346
C3 C 0.7384(7) 0.1702(8) 1.3528(9)
H3 H 0.7745 0.1838 1.4326
C4 C 0.7814(6) 0.1607(7) 1.2310(8)
C5 C 0.8841(6) 0.1807(6) 1.2200(8)
C6 C 0.7231(6) 0.1353(7) 1.1162(9)
H4 H 0.7515 0.1252 1.0348
C7 C 0.4767(6) 0.1146(8) 0.6772(9)
H5 H 0.5389 0.1014 0.6564
C8 C 0.4087(7) 0.1212(8) 0.5734(9)
H6 H 0.4246 0.1127 0.4841
C9 C 0.3156(6) 0.1408(7) 0.6035(9)
H7 H 0.2675 0.1423 0.5352
C10 C 0.2958(5) 0.1580(6) 0.7363(8)
C11 C 0.1967(6) 0.1850(6) 0.7725(8)
C12 C 0.3679(6) 0.1490(7) 0.8347(8)
H8 H 0.3538 0.1592 0.9244
C13 C 1.0385(5) 0.5085(6) 0.9476(8)
Cu1 Cu 0.55742(8) 0.09159(11) 0.94701(13)
Gd1 Gd 1.04121(3) 0.24879(3) 1.00007(4)
N1 N 0.6295(5) 0.1248(6) 1.1163(8)
N2 N 0.4579(5) 0.1263(6) 0.8082(8)
O1 O 0.9168(4) 0.1696(5) 1.1060(6)
O2 O 0.9318(4) 0.2099(6) 1.3230(6)
O3 O 0.1322(4) 0.1805(5) 0.6800(6)
O4 O 0.1834(4) 0.2119(5) 0.8917(6)
O5 O 1.0820(4) 0.4257(4) 0.9117(6)
O6 O 1.0497(4) 0.6025(4) 0.9065(6)
O7 O 1.0071(5) 0.0830(5) 0.8775(6)
H9 H 0.9580 0.0503 0.8981
H10 H 1.0043 0.0993 0.7950
O8 O 1.1191(4) 0.0947(5) 1.1319(6)
H11 H 1.1187 0.0884 1.2164
H12 H 1.1693 0.0703 1.1025
Br1B Br 0.34166(9) 0.03820(12) 1.17609(14)
C1C C 0.5899(7) 0.3627(8) 0.7352(10)
H1C H 0.5244 0.3690 0.7377
C2C C 0.6425(7) 0.3409(9) 0.8539(11)
H2C H 0.6126 0.3337 0.9346
C3C C 0.7384(7) 0.3298(8) 0.8528(9)
H3C H 0.7745 0.3162 0.9326
C4C C 0.7814(6) 0.3393(7) 0.7310(8)
C5C C 0.8841(6) 0.3193(6) 0.7200(8)
C6C C 0.7231(6) 0.3647(7) 0.6162(9)
H4C H 0.7515 0.3748 0.5348
C7C C 1.4767(6) 0.3854(8) 1.1772(9)
H5C H 1.5389 0.3986 1.1564
C8C C 1.4087(7) 0.3788(8) 1.0734(9)
H6C H 1.4246 0.3873 0.9841
C9C C 1.3156(6) 0.3592(7) 1.1035(9)
H7C H 1.2675 0.3577 1.0352
C10C C 1.2958(5) 0.3420(6) 1.2363(8)
C11C C 1.1967(6) 0.3150(6) 1.2725(8)
C12C C 1.3679(6) 0.3510(7) 1.3347(8)
H8C H 1.3538 0.3408 1.4244
C13B C 0.9615(5) 0.4915(6) 1.0524(8)
Cu1B Cu 0.44258(8) -0.09159(11) 1.05299(13)
Cu1C Cu 0.55742(8) 0.40841(11) 0.44701(13)
Cu1C_2 Cu 1.55742(8) 0.40841(11) 1.44701(13)
Gd1C Gd 1.04121(3) 0.25121(3) 1.50007(4)
Gd1C_2 Gd 0.04121(3) 0.25121(3) 0.50007(4)
Gd1_2 Gd 0.04121(3) 0.24879(3) 1.00007(4)
Gd1B Gd 0.95879(3) 0.75121(3) 0.99993(4)
Gd1C_3 Gd 1.04121(3) 0.25121(3) 0.50007(4)
N1C N 0.6295(5) 0.3752(6) 0.6163(8)
N1B N 0.3705(5) -0.1248(6) 0.8837(8)
N2C N 1.4579(5) 0.3737(6) 1.3082(8)
N2B N 0.5421(5) -0.1263(6) 1.1918(8)
O1C O 0.9168(4) 0.3304(5) 0.6060(6)
O1C_2 O 0.9168(4) 0.3304(5) 1.6060(6)
O2C O 0.9318(4) 0.2901(6) 0.8230(6)
O3C O 1.1322(4) 0.3195(5) 1.1800(6)
O3_2 O 1.1322(4) 0.1805(5) 1.6800(6)
O4C O 1.1834(4) 0.2881(5) 1.3917(6)
O4_2 O 1.1834(4) 0.2119(5) 0.8917(6)
O5B O 0.9180(4) 0.5743(4) 1.0883(6)
O5C O 1.0820(4) 0.0743(4) 1.4117(6)
O6B O 0.9503(4) 0.3975(4) 1.0935(6)
O6A O 0.9503(4) 0.1025(4) 1.5935(6)
O7C O 1.0071(5) 0.4170(5) 1.3775(6)
H9C H 0.9580 0.4497 1.3981
H10C H 1.0043 0.4007 1.2950
O8C O 1.1191(4) 0.4053(5) 1.6319(6)
H11C H 1.1187 0.4116 1.7164
H12C H 1.1693 0.4297 1.6025
loop_
_geom_bond_atom_site_label_1
_geom_bond_atom_site_label_2
_geom_bond_site_symmetry_1
_geom_bond_site_symmetry_2
Br1 Cu1 1_555 1_555
C1 H1 1_555 1_555
C2 C1 1_555 1_555
H2 C2 1_555 1_555
C3 C2 1_555 1_555
H3 C3 1_555 1_555
C4 C3 1_555 1_555
C5 C4 1_555 1_555
C6 C4 1_555 1_555
H4 C6 1_555 1_555
C7 H5 1_555 1_555
C8 C7 1_555 1_555
H6 C8 1_555 1_555
C9 C8 1_555 1_555
H7 C9 1_555 1_555
C10 C9 1_555 1_555
C11 C10 1_555 1_555
C12 C10 1_555 1_555
H8 C12 1_555 1_555
C13 O5 1_555 1_555
Cu1 N1 1_555 1_555
Gd1 O1 1_555 1_555
N1 C1 1_555 1_555
N2 C7 1_555 1_555
O1 C5 1_555 1_555
O2 C5 1_555 1_555
O3 C11 1_555 1_555
O4 C11 1_555 1_555
O5 Gd1 1_555 1_555
O6 C13 1_555 1_555
O7 Gd1 1_555 1_555
H9 O7 1_555 1_555
H10 O7 1_555 1_555
O8 Gd1 1_555 1_555
H11 O8 1_555 1_555
H12 O8 1_555 1_555
Br1B Cu1B 1_555 1_555
C1C H1C 1_555 1_555
C2C C1C 1_555 1_555
H2C C2C 1_555 1_555
C3C C2C 1_555 1_555
H3C C3C 1_555 1_555
C4C C3C 1_555 1_555
C5C C4C 1_555 1_555
C6C C4C 1_555 1_555
H4C C6C 1_555 1_555
C7C H5C 1_555 1_555
C8C C7C 1_555 1_555
H6C C8C 1_555 1_555
C9C C8C 1_555 1_555
H7C C9C 1_555 1_555
C10C C9C 1_555 1_555
C11C C10C 1_555 1_555
C12C C10C 1_555 1_555
H8C C12C 1_555 1_555
C13B C13 1_555 1_555
Cu1B Cu1 1_555 1_555
Cu1C N1C 1_555 1_555
Cu1C_2 N2C 1_555 1_555
Gd1C O2 1_555 1_555
Gd1C_2 O3 1_555 1_555
Gd1_2 O4 1_555 1_555
Gd1B O6 1_555 1_555
Gd1C_3 O1C 1_555 1_555
N1C C1C 1_555 1_555
N1B Cu1B 1_555 1_555
N2C C7C 1_555 1_555
N2B Cu1B 1_555 1_555
O1C C5C 1_555 1_555
O1C_2 Gd1C 1_555 1_555
O2C Gd1 1_555 1_555
O3C Gd1 1_555 1_555
O3_2 Gd1C 1_555 1_555
O4C C11C 1_555 1_555
O4_2 Gd1 1_555 1_555
O5B C13B 1_555 1_555
O5C Gd1C 1_555 1_555
O6B Gd1 1_555 1_555
O6A Gd1C 1_555 1_555
O7C Gd1C 1_555 1_555
H9C O7C 1_555 1_555
H10C O7C 1_555 1_555
O8C Gd1C 1_555 1_555
H11C O8C 1_555 1_555
H12C O8C 1_555 1_555
C6 N1 1_555 1_555
C12 N2 1_555 1_555
Cu1 N2 1_555 1_555
C5C O2C 1_555 1_555
C6C N1C 1_555 1_555
C11C O3C 1_555 1_555
C12C N2C 1_555 1_555
C13B O6B 1_555 1_555
Gd1C O4C 1_555 1_555
Gd1B O5B 1_555 1_555

#END
