
#######################################################################
#
#                 Cambridge Crystallographic Data Centre
#                                CCDC 
#
#######################################################################
#
# If this CIF has been generated from an entry in the Cambridge 
# Structural Database, then it will include bibliographic, chemical, 
# crystal, experimental, refinement or atomic coordinate data resulting 
# from the CCDC's data processing and validation procedures.
#
#######################################################################

data_BUVXAS
_symmetry_cell_setting           monoclinic
_symmetry_space_group_name_H-M   'P 21/n'
_symmetry_Int_Tables_number      14
_space_group_name_Hall           '-P 2yn'
loop_
_symmetry_equiv_pos_site_id
_symmetry_equiv_pos_as_xyz
1 x,y,z
2 1/2-x,1/2+y,1/2-z
3 -x,-y,-z
4 1/2+x,1/2-y,1/2+z
_cell_length_a                   9.0044(9)
_cell_length_b                   14.7264(13)
_cell_length_c                   9.1120(10)
_cell_angle_alpha                90
_cell_angle_beta                 106.622(12)
_cell_angle_gamma                90
_cell_volume                     1157.78
loop_
_atom_site_label
_atom_site_type_symbol
_atom_site_fract_x
_atom_site_fract_y
_atom_site_fract_z
Co1 Co 0.5000 -0.5000 -0.5000
N1 N 0.4703(3) -0.41320(16) -0.3348(3)
N2 N 0.3763(3) -0.34215(16) -0.3311(3)
N3 N 0.5335(3) -0.36663(16) -0.0907(3)
N4 N 0.6799(3) -0.54382(16) -0.2939(3)
N5 N 0.1662(3) -0.09911(17) -0.0534(3)
C1 C 0.5623(3) -0.4259(2) -0.1916(3)
C2 C 0.4183(3) -0.31653(19) -0.1828(3)
C3 C 0.6775(3) -0.4989(2) -0.1648(3)
C4 C 0.7749(3) -0.5217(2) -0.0230(4)
H1 H 0.7710 -0.4896 0.0663
C5 C 0.8784(4) -0.5923(2) -0.0137(4)
H2 H 0.9463 -0.6098 0.0826
C6 C 0.8825(4) -0.6374(2) -0.1460(4)
H3 H 0.9541 -0.6853 -0.1421
C7 C 0.7815(3) -0.6115(2) -0.2823(4)
H4 H 0.7836 -0.6431 -0.3727
C8 C 0.3391(3) -0.2399(2) -0.1345(3)
C9 C 0.3556(4) -0.2183(2) 0.0184(4)
H5 H 0.4262 -0.2509 0.0984
C10 C 0.2674(4) -0.1484(2) 0.0520(4)
H6 H 0.2798 -0.1348 0.1567
C11 C 0.1569(3) -0.1180(2) -0.1989(4)
H7 H 0.0899 -0.0819 -0.2766
C12 C 0.2389(3) -0.1869(2) -0.2438(4)
H8 H 0.2263 -0.1977 -0.3494
Co1A Co 0.0000 0.0000 0.0000
Co1A_2 Co 1.0000 -1.0000 -1.0000
N1B N 0.5297(3) -0.58680(16) -0.6652(3)
N2B N 0.6237(3) -0.65785(16) -0.6689(3)
N3B N 0.4665(3) -0.63337(16) -0.9093(3)
N4B N 0.3201(3) -0.45618(16) -0.7061(3)
N5B N 0.8338(3) -0.90089(17) -0.9466(3)
N5A N 0.3338(3) -0.59911(17) -0.4466(3)
N5C N 0.6662(3) -0.40089(17) -0.5534(3)
C1B C 0.4377(3) -0.5741(2) -0.8084(3)
C2B C 0.5817(3) -0.68347(19) -0.8172(3)
C3B C 0.3225(3) -0.5011(2) -0.8352(3)
C4B C 0.2251(3) -0.4783(2) -0.9770(4)
H1B H 0.2290 -0.5104 -1.0663
C5B C 0.1216(4) -0.4077(2) -0.9863(4)
H2B H 0.0537 -0.3902 -1.0826
C6B C 0.1175(4) -0.3626(2) -0.8540(4)
H3B H 0.0459 -0.3147 -0.8579
C7B C 0.2185(3) -0.3885(2) -0.7177(4)
H4B H 0.2164 -0.3569 -0.6273
C8B C 0.6609(3) -0.7601(2) -0.8655(3)
C9B C 0.6444(4) -0.7817(2) -1.0184(4)
H5B H 0.5738 -0.7491 -1.0984
C10B C 0.7326(4) -0.8516(2) -1.0520(4)
H6B H 0.7202 -0.8652 -1.1567
C11B C 0.8431(3) -0.8820(2) -0.8011(4)
H7B H 0.9101 -0.9181 -0.7234
C12B C 0.7611(3) -0.8131(2) -0.7562(4)
H8B H 0.7737 -0.8023 -0.6506
O1 O 0.0811(13) -0.4542(9) -0.3594(16)
loop_
_geom_bond_atom_site_label_1
_geom_bond_atom_site_label_2
_geom_bond_site_symmetry_1
_geom_bond_site_symmetry_2
Co1 N1 1_555 1_555
N1 N2 1_555 1_555
N2 C2 1_555 1_555
N3 C1 1_555 1_555
N4 Co1 1_555 1_555
N5 C10 1_555 1_555
C1 N1 1_555 1_555
C2 N3 1_555 1_555
C3 N4 1_555 1_555
C4 C3 1_555 1_555
H1 C4 1_555 1_555
C5 C4 1_555 1_555
H2 C5 1_555 1_555
C6 C5 1_555 1_555
H3 C6 1_555 1_555
C7 N4 1_555 1_555
H4 C7 1_555 1_555
C8 C2 1_555 1_555
C9 C8 1_555 1_555
H5 C9 1_555 1_555
C10 C9 1_555 1_555
H6 C10 1_555 1_555
C11 N5 1_555 1_555
H7 C11 1_555 1_555
C12 C8 1_555 1_555
H8 C12 1_555 1_555
Co1A N5 1_555 1_555
Co1A_2 N5B 1_555 1_555
N1B Co1 1_555 1_555
N2B N1B 1_555 1_555
N3B C1B 1_555 1_555
N4B Co1 1_555 1_555
N5B C10B 1_555 1_555
N5A Co1 1_555 1_555
N5C Co1 1_555 1_555
C1B N1B 1_555 1_555
C2B N2B 1_555 1_555
C3B N4B 1_555 1_555
C4B C3B 1_555 1_555
H1B C4B 1_555 1_555
C5B C4B 1_555 1_555
H2B C5B 1_555 1_555
C6B C5B 1_555 1_555
H3B C6B 1_555 1_555
C7B N4B 1_555 1_555
H4B C7B 1_555 1_555
C8B C2B 1_555 1_555
C9B C8B 1_555 1_555
H5B C9B 1_555 1_555
C10B C9B 1_555 1_555
H6B C10B 1_555 1_555
C11B N5B 1_555 1_555
H7B C11B 1_555 1_555
C12B C8B 1_555 1_555
H8B C12B 1_555 1_555
C1 C3 1_555 1_555
C6 C7 1_555 1_555
C11 C12 1_555 1_555
N3B C2B 1_555 1_555
C1B C3B 1_555 1_555
C6B C7B 1_555 1_555
C11B C12B 1_555 1_555

#END
