
#######################################################################
#
#                 Cambridge Crystallographic Data Centre
#                                CCDC 
#
#######################################################################
#
# If this CIF has been generated from an entry in the Cambridge 
# Structural Database, then it will include bibliographic, chemical, 
# crystal, experimental, refinement or atomic coordinate data resulting 
# from the CCDC's data processing and validation procedures.
#
#######################################################################

data_BUVXOG
_symmetry_cell_setting           rhombohedral
_symmetry_space_group_name_H-M   'R -3'
_symmetry_Int_Tables_number      148
_space_group_name_Hall           '-R 3'
loop_
_symmetry_equiv_pos_site_id
_symmetry_equiv_pos_as_xyz
1 x,y,z
2 -y,x-y,z
3 -x+y,-x,z
4 2/3+x,1/3+y,1/3+z
5 2/3-y,1/3+x-y,1/3+z
6 2/3-x+y,1/3-x,1/3+z
7 1/3+x,2/3+y,2/3+z
8 1/3-y,2/3+x-y,2/3+z
9 1/3-x+y,2/3-x,2/3+z
10 -x,-y,-z
11 y,-x+y,-z
12 x-y,x,-z
13 1/3-x,2/3-y,2/3-z
14 1/3+y,2/3-x+y,2/3-z
15 1/3+x-y,2/3+x,2/3-z
16 2/3-x,1/3-y,1/3-z
17 2/3+y,1/3-x+y,1/3-z
18 2/3+x-y,1/3+x,1/3-z
_cell_length_a                   27.608(4)
_cell_length_b                   27.608(4)
_cell_length_c                   8.937(3)
_cell_angle_alpha                90
_cell_angle_beta                 90
_cell_angle_gamma                120
_cell_volume                     5899.19
loop_
_atom_site_label
_atom_site_type_symbol
_atom_site_fract_x
_atom_site_fract_y
_atom_site_fract_z
Fe1 Fe 1.0000 0.5000 0.0000
N1 N 0.9834(2) 0.5253(2) 0.1850(6)
N2 N 0.9422(2) 0.5343(2) 0.2382(6)
N3 N 1.0121(2) 0.5678(2) 0.4074(6)
N4 N 1.0674(2) 0.5151(2) 0.1207(6)
N5 N 0.8727(2) 0.6278(2) 0.5923(6)
C1 C 1.0239(3) 0.5456(3) 0.2884(7)
C2 C 0.9618(3) 0.5601(3) 0.3686(7)
C3 C 1.0710(3) 0.5382(3) 0.2585(8)
C4 C 1.1144(3) 0.5512(3) 0.3548(8)
H1 H 1.1155 0.5675 0.4493
C5 C 1.1566(3) 0.5406(3) 0.3144(9)
H2 H 1.1871 0.5496 0.3797
C6 C 1.1532(3) 0.5166(3) 0.1773(9)
H3 H 1.1813 0.5084 0.1469
C7 C 1.1087(3) 0.5044(3) 0.0837(8)
H4 H 1.1069 0.4878 -0.0106
C8 C 0.9304(3) 0.5800(3) 0.4536(7)
C9 C 0.9549(3) 0.6204(3) 0.5646(7)
H5 H 0.9920 0.6323 0.5960
C10 C 0.9259(3) 0.6427(3) 0.6282(8)
H6 H 0.9441 0.6705 0.7028
C11 C 0.8482(3) 0.5863(3) 0.4903(7)
H7 H 0.8100 0.5727 0.4668
C12 C 0.8750(3) 0.5629(3) 0.4193(8)
H8 H 0.8558 0.5347 0.3461
Fe1E Fe 1.1667 0.3333 -0.6667
Fe1H Fe 0.8333 0.6667 0.6667
N1I N 1.0166(2) 0.4747(2) -0.1850(6)
N2I N 1.0578(2) 0.4657(2) -0.2382(6)
N3I N 0.9879(2) 0.4322(2) -0.4074(6)
N4I N 0.9326(2) 0.4849(2) -0.1207(6)
N5I N 1.1273(2) 0.3722(2) -0.5923(6)
N5D N 1.0389(2) 0.5782(3) -0.0744(6)
N5M N 0.9611(2) 0.4218(3) 0.0744(6)
C1I C 0.9761(3) 0.4544(3) -0.2884(7)
C2I C 1.0382(3) 0.4399(3) -0.3686(7)
C3I C 0.9290(3) 0.4618(3) -0.2585(8)
C4I C 0.8856(3) 0.4488(3) -0.3548(8)
H1I H 0.8845 0.4325 -0.4493
C5I C 0.8434(3) 0.4594(3) -0.3144(9)
H2I H 0.8129 0.4504 -0.3797
C6I C 0.8468(3) 0.4834(3) -0.1773(9)
H3I H 0.8187 0.4916 -0.1469
C7I C 0.8913(3) 0.4956(3) -0.0837(8)
H4I H 0.8931 0.5122 0.0106
C8I C 1.0696(3) 0.4200(3) -0.4536(7)
C9I C 1.0451(3) 0.3796(3) -0.5646(7)
H5I H 1.0080 0.3677 -0.5960
C10I C 1.0741(3) 0.3573(3) -0.6282(8)
H6I H 1.0559 0.3295 -0.7028
C11I C 1.1518(3) 0.4137(3) -0.4903(7)
H7I H 1.1900 0.4273 -0.4668
C12I C 1.1250(3) 0.4371(3) -0.4193(8)
H8I H 1.1442 0.4653 -0.3461
O1 O 1.2635(13) 0.7056(13) 0.598(3)
O2 O 1.347(2) 0.7118(14) -0.018(4)
O3 O 1.3333 0.6667 0.1667
loop_
_geom_bond_atom_site_label_1
_geom_bond_atom_site_label_2
_geom_bond_site_symmetry_1
_geom_bond_site_symmetry_2
Fe1 N1 1_555 1_555
N1 N2 1_555 1_555
N2 C2 1_555 1_555
N3 C1 1_555 1_555
N4 Fe1 1_555 1_555
N5 C10 1_555 1_555
C1 N1 1_555 1_555
C2 N3 1_555 1_555
C3 N4 1_555 1_555
C4 C3 1_555 1_555
H1 C4 1_555 1_555
C5 C4 1_555 1_555
H2 C5 1_555 1_555
C6 C5 1_555 1_555
H3 C6 1_555 1_555
C7 N4 1_555 1_555
H4 C7 1_555 1_555
C8 C2 1_555 1_555
C9 C8 1_555 1_555
H5 C9 1_555 1_555
C10 C9 1_555 1_555
H6 C10 1_555 1_555
C11 N5 1_555 1_555
H7 C11 1_555 1_555
C12 C8 1_555 1_555
H8 C12 1_555 1_555
Fe1E N5I 1_555 1_555
Fe1H N5 1_555 1_555
N1I Fe1 1_555 1_555
N2I N1I 1_555 1_555
N3I C1I 1_555 1_555
N4I Fe1 1_555 1_555
N5I C10I 1_555 1_555
N5D Fe1 1_555 1_555
N5M Fe1 1_555 1_555
C1I N1I 1_555 1_555
C2I N2I 1_555 1_555
C3I N4I 1_555 1_555
C4I C3I 1_555 1_555
H1I C4I 1_555 1_555
C5I C4I 1_555 1_555
H2I C5I 1_555 1_555
C6I C5I 1_555 1_555
H3I C6I 1_555 1_555
C7I N4I 1_555 1_555
H4I C7I 1_555 1_555
C8I C2I 1_555 1_555
C9I C8I 1_555 1_555
H5I C9I 1_555 1_555
C10I C9I 1_555 1_555
H6I C10I 1_555 1_555
C11I N5I 1_555 1_555
H7I C11I 1_555 1_555
C12I C8I 1_555 1_555
H8I C12I 1_555 1_555
C1 C3 1_555 1_555
C6 C7 1_555 1_555
C11 C12 1_555 1_555
N3I C2I 1_555 1_555
C1I C3I 1_555 1_555
C6I C7I 1_555 1_555
C11I C12I 1_555 1_555

#END
