
#######################################################################
#
#                 Cambridge Crystallographic Data Centre
#                                CCDC 
#
#######################################################################
#
# If this CIF has been generated from an entry in the Cambridge 
# Structural Database, then it will include bibliographic, chemical, 
# crystal, experimental, refinement or atomic coordinate data resulting 
# from the CCDC's data processing and validation procedures.
#
#######################################################################

data_BUVXOG01
_symmetry_cell_setting           rhombohedral
_symmetry_space_group_name_H-M   'R -3'
_symmetry_Int_Tables_number      148
_space_group_name_Hall           '-R 3'
loop_
_symmetry_equiv_pos_site_id
_symmetry_equiv_pos_as_xyz
1 x,y,z
2 -y,x-y,z
3 -x+y,-x,z
4 2/3+x,1/3+y,1/3+z
5 2/3-y,1/3+x-y,1/3+z
6 2/3-x+y,1/3-x,1/3+z
7 1/3+x,2/3+y,2/3+z
8 1/3-y,2/3+x-y,2/3+z
9 1/3-x+y,2/3-x,2/3+z
10 -x,-y,-z
11 y,-x+y,-z
12 x-y,x,-z
13 1/3-x,2/3-y,2/3-z
14 1/3+y,2/3-x+y,2/3-z
15 1/3+x-y,2/3+x,2/3-z
16 2/3-x,1/3-y,1/3-z
17 2/3+y,1/3-x+y,1/3-z
18 2/3+x-y,1/3+x,1/3-z
_cell_length_a                   27.787(4)
_cell_length_b                   27.787(4)
_cell_length_c                   9.1222(14)
_cell_angle_alpha                90
_cell_angle_beta                 90
_cell_angle_gamma                120
_cell_volume                     6099.77
loop_
_atom_site_label
_atom_site_type_symbol
_atom_site_fract_x
_atom_site_fract_y
_atom_site_fract_z
Fe1 Fe 0.5000 1.0000 0.0000
N1 N 0.47294(13) 1.01662(14) 0.1809(3)
N2 N 0.46390(14) 1.05753(14) 0.2306(3)
N3 N 0.43144(16) 0.98812(16) 0.4002(4)
N4 N 0.48466(14) 0.93281(15) 0.1198(3)
N5 N 0.37266(14) 1.12752(14) 0.5877(3)
C1 C 0.45395(18) 0.97677(18) 0.2828(4)
C2 C 0.43840(17) 1.03843(17) 0.3613(4)
C3 C 0.46152(18) 0.92962(18) 0.2556(4)
C4 C 0.4495(2) 0.8875(2) 0.3535(5)
H1 H 0.4341 0.8869 0.4444
C5 C 0.4608(2) 0.8456(2) 0.3144(6)
H2 H 0.4527 0.8162 0.3777
C6 C 0.4846(3) 0.8490(2) 0.1778(6)
H3 H 0.4930 0.8219 0.1494
C7 C 0.4957(2) 0.8922(2) 0.0845(5)
H4 H 0.5114 0.8934 -0.0064
C8 C 0.41829(17) 1.06930(17) 0.4455(4)
C9 C 0.3805(2) 1.04587(19) 0.5579(5)
H5 H 0.3701 1.0102 0.5901
C10 C 0.3580(2) 1.07505(19) 0.6233(5)
H6 H 0.3313 1.0574 0.6958
C11 C 0.41183(19) 1.15105(18) 0.4829(5)
H7 H 0.4240 1.1879 0.4582
C12 C 0.4348(2) 1.12427(19) 0.4107(5)
H8 H 0.4614 1.1427 0.3385
Fe1D Fe 0.6667 0.8333 -0.6667
Fe1G Fe 0.3333 1.1667 0.6667
N1I N 0.52706(13) 0.98338(14) -0.1809(3)
N2I N 0.53610(14) 0.94247(14) -0.2306(3)
N3I N 0.56856(16) 1.01188(16) -0.4002(4)
N4I N 0.51534(14) 1.06719(15) -0.1198(3)
N5I N 0.62734(14) 0.87248(14) -0.5877(3)
N5E N 0.42153(20) 0.96067(14) -0.0790(3)
N5N N 0.57847(20) 1.03933(14) 0.0790(3)
C1I C 0.54605(18) 1.02323(18) -0.2828(4)
C2I C 0.56160(17) 0.96157(17) -0.3613(4)
C3I C 0.53848(18) 1.07038(18) -0.2556(4)
C4I C 0.5505(2) 1.1125(2) -0.3535(5)
H1I H 0.5659 1.1131 -0.4444
C5I C 0.5392(2) 1.1544(2) -0.3144(6)
H2I H 0.5473 1.1838 -0.3777
C6I C 0.5154(3) 1.1510(2) -0.1778(6)
H3I H 0.5070 1.1781 -0.1494
C7I C 0.5043(2) 1.1078(2) -0.0845(5)
H4I H 0.4886 1.1066 0.0064
C8I C 0.58171(17) 0.93070(17) -0.4455(4)
C9I C 0.6195(2) 0.95413(19) -0.5579(5)
H5I H 0.6299 0.9898 -0.5901
C10I C 0.6420(2) 0.92495(19) -0.6233(5)
H6I H 0.6687 0.9426 -0.6958
C11I C 0.58817(19) 0.84895(18) -0.4829(5)
H7I H 0.5760 0.8121 -0.4582
C12I C 0.5652(2) 0.87573(19) -0.4107(5)
H8I H 0.5386 0.8573 -0.3385
loop_
_geom_bond_atom_site_label_1
_geom_bond_atom_site_label_2
_geom_bond_site_symmetry_1
_geom_bond_site_symmetry_2
Fe1 N1 1_555 1_555
N1 N2 1_555 1_555
N2 C2 1_555 1_555
N3 C1 1_555 1_555
N4 Fe1 1_555 1_555
N5 C10 1_555 1_555
C1 N1 1_555 1_555
C2 N3 1_555 1_555
C3 N4 1_555 1_555
C4 C3 1_555 1_555
H1 C4 1_555 1_555
C5 C4 1_555 1_555
H2 C5 1_555 1_555
C6 C5 1_555 1_555
H3 C6 1_555 1_555
C7 N4 1_555 1_555
H4 C7 1_555 1_555
C8 C2 1_555 1_555
C9 C8 1_555 1_555
H5 C9 1_555 1_555
C10 C9 1_555 1_555
H6 C10 1_555 1_555
C11 N5 1_555 1_555
H7 C11 1_555 1_555
C12 C8 1_555 1_555
H8 C12 1_555 1_555
Fe1D N5I 1_555 1_555
Fe1G N5 1_555 1_555
N1I Fe1 1_555 1_555
N2I N1I 1_555 1_555
N3I C1I 1_555 1_555
N4I Fe1 1_555 1_555
N5I C10I 1_555 1_555
N5E Fe1 1_555 1_555
N5N Fe1 1_555 1_555
C1I N1I 1_555 1_555
C2I N2I 1_555 1_555
C3I N4I 1_555 1_555
C4I C3I 1_555 1_555
H1I C4I 1_555 1_555
C5I C4I 1_555 1_555
H2I C5I 1_555 1_555
C6I C5I 1_555 1_555
H3I C6I 1_555 1_555
C7I N4I 1_555 1_555
H4I C7I 1_555 1_555
C8I C2I 1_555 1_555
C9I C8I 1_555 1_555
H5I C9I 1_555 1_555
C10I C9I 1_555 1_555
H6I C10I 1_555 1_555
C11I N5I 1_555 1_555
H7I C11I 1_555 1_555
C12I C8I 1_555 1_555
H8I C12I 1_555 1_555
C1 C3 1_555 1_555
C6 C7 1_555 1_555
C11 C12 1_555 1_555
N3I C2I 1_555 1_555
C1I C3I 1_555 1_555
C6I C7I 1_555 1_555
C11I C12I 1_555 1_555

#END
