
#######################################################################
#
#                 Cambridge Crystallographic Data Centre
#                                CCDC 
#
#######################################################################
#
# If this CIF has been generated from an entry in the Cambridge 
# Structural Database, then it will include bibliographic, chemical, 
# crystal, experimental, refinement or atomic coordinate data resulting 
# from the CCDC's data processing and validation procedures.
#
#######################################################################

data_BUVYIB01
_symmetry_cell_setting           rhombohedral
_symmetry_space_group_name_H-M   'R -3'
_symmetry_Int_Tables_number      148
_space_group_name_Hall           '-R 3'
loop_
_symmetry_equiv_pos_site_id
_symmetry_equiv_pos_as_xyz
1 x,y,z
2 -y,x-y,z
3 -x+y,-x,z
4 2/3+x,1/3+y,1/3+z
5 2/3-y,1/3+x-y,1/3+z
6 2/3-x+y,1/3-x,1/3+z
7 1/3+x,2/3+y,2/3+z
8 1/3-y,2/3+x-y,2/3+z
9 1/3-x+y,2/3-x,2/3+z
10 -x,-y,-z
11 y,-x+y,-z
12 x-y,x,-z
13 1/3-x,2/3-y,2/3-z
14 1/3+y,2/3-x+y,2/3-z
15 1/3+x-y,2/3+x,2/3-z
16 2/3-x,1/3-y,1/3-z
17 2/3+y,1/3-x+y,1/3-z
18 2/3+x-y,1/3+x,1/3-z
_cell_length_a                   31.931(2)
_cell_length_b                   31.931(2)
_cell_length_c                   12.3983(13)
_cell_angle_alpha                90
_cell_angle_beta                 90
_cell_angle_gamma                120
_cell_volume                     10947.6
loop_
_atom_site_label
_atom_site_type_symbol
_atom_site_fract_x
_atom_site_fract_y
_atom_site_fract_z
Fe1 Fe 0.3333 0.1667 0.1667
N1 N 0.38095(9) 0.14679(9) 0.1978(2)
N2 N 0.38807(10) 0.12054(9) 0.2736(2)
N3 N 0.44714(10) 0.14429(10) 0.1484(2)
N4 N 0.37709(10) 0.19601(9) 0.03886(19)
N5 N 0.47879(9) 0.03951(9) 0.4171(2)
C1 C 0.41627(12) 0.16058(12) 0.1252(2)
C2 C 0.42771(13) 0.11969(12) 0.2401(3)
C3 C 0.41583(13) 0.18889(12) 0.0351(3)
C4 C 0.44994(15) 0.20747(15) -0.0465(3)
H1 H 0.4758 0.2017 -0.0469
C5 C 0.44530(17) 0.23449(17) -0.1270(3)
H2 H 0.4678 0.2471 -0.1826
C6 C 0.40673(16) 0.24268(15) -0.1242(3)
H3 H 0.4032 0.2612 -0.1773
C7 C 0.37392(13) 0.22316(12) -0.0423(3)
H4 H 0.3479 0.2287 -0.0419
C8 C 0.44653(12) 0.09300(12) 0.2999(3)
C9 C 0.48408(12) 0.08770(12) 0.2647(3)
H5 H 0.4997 0.1023 0.2005
C10 C 0.49905(12) 0.06125(13) 0.3225(3)
H6 H 0.5245 0.0580 0.2955
C11 C 0.44196(12) 0.04540(12) 0.4532(3)
H7 H 0.4274 0.0312 0.5184
C12 C 0.42534(12) 0.07117(13) 0.3985(3)
H8 H 0.4000 0.0743 0.4265
Fe1E Fe 0.5001 0.0000 0.5000
Fe1H Fe 0.1667 0.3334 -0.1666
N1O N 0.28572(9) 0.18654(9) 0.1355(2)
N2O N 0.27860(10) 0.21279(9) 0.0597(2)
N3O N 0.21953(10) 0.18904(10) 0.1849(2)
N4O N 0.28958(10) 0.13732(9) 0.29447(19)
N5O N 0.18788(9) 0.29382(9) -0.0838(2)
N5G N 0.29382(9) 0.10595(13) 0.0838(2)
N5M N 0.37284(9) 0.22739(13) 0.2496(2)
C1O C 0.25040(12) 0.17275(12) 0.2081(2)
C2O C 0.23896(13) 0.21364(12) 0.0932(3)
C3O C 0.25084(13) 0.14444(12) 0.2982(3)
C4O C 0.21673(15) 0.12586(15) 0.3798(3)
H1O H 0.1909 0.1316 0.3802
C5O C 0.22137(17) 0.09884(17) 0.4603(3)
H2O H 0.1989 0.0862 0.5159
C6O C 0.25994(16) 0.09065(15) 0.4575(3)
H3O H 0.2635 0.0721 0.5106
C7O C 0.29275(13) 0.11017(12) 0.3756(3)
H4O H 0.3188 0.1046 0.3752
C8O C 0.22014(12) 0.24033(12) 0.0334(3)
C9O C 0.18259(12) 0.24563(12) 0.0686(3)
H5O H 0.1670 0.2310 0.1328
C10O C 0.16762(12) 0.27208(13) 0.0108(3)
H6O H 0.1422 0.2753 0.0378
C11O C 0.22471(12) 0.28793(12) -0.1199(3)
H7O H 0.2393 0.3021 -0.1851
C12O C 0.24133(12) 0.26216(13) -0.0652(3)
H8O H 0.2667 0.2590 -0.0932
loop_
_geom_bond_atom_site_label_1
_geom_bond_atom_site_label_2
_geom_bond_site_symmetry_1
_geom_bond_site_symmetry_2
Fe1 N1 1_555 1_555
N1 N2 1_555 1_555
N2 C2 1_555 1_555
N3 C1 1_555 1_555
N4 Fe1 1_555 1_555
N5 C10 1_555 1_555
C1 N1 1_555 1_555
C2 N3 1_555 1_555
C3 N4 1_555 1_555
C4 C3 1_555 1_555
H1 C4 1_555 1_555
C5 C4 1_555 1_555
H2 C5 1_555 1_555
C6 C5 1_555 1_555
H3 C6 1_555 1_555
C7 N4 1_555 1_555
H4 C7 1_555 1_555
C8 C2 1_555 1_555
C9 C8 1_555 1_555
H5 C9 1_555 1_555
C10 C9 1_555 1_555
H6 C10 1_555 1_555
C11 N5 1_555 1_555
H7 C11 1_555 1_555
C12 C8 1_555 1_555
H8 C12 1_555 1_555
Fe1E N5 1_555 1_555
Fe1H N5O 1_555 1_555
N1O Fe1 1_555 1_555
N2O N1O 1_555 1_555
N3O C1O 1_555 1_555
N4O Fe1 1_555 1_555
N5O C10O 1_555 1_555
N5G Fe1 1_555 1_555
N5M Fe1 1_555 1_555
C1O N1O 1_555 1_555
C2O N2O 1_555 1_555
C3O N4O 1_555 1_555
C4O C3O 1_555 1_555
H1O C4O 1_555 1_555
C5O C4O 1_555 1_555
H2O C5O 1_555 1_555
C6O C5O 1_555 1_555
H3O C6O 1_555 1_555
C7O N4O 1_555 1_555
H4O C7O 1_555 1_555
C8O C2O 1_555 1_555
C9O C8O 1_555 1_555
H5O C9O 1_555 1_555
C10O C9O 1_555 1_555
H6O C10O 1_555 1_555
C11O N5O 1_555 1_555
H7O C11O 1_555 1_555
C12O C8O 1_555 1_555
H8O C12O 1_555 1_555
C1 C3 1_555 1_555
C6 C7 1_555 1_555
C11 C12 1_555 1_555
N3O C2O 1_555 1_555
C1O C3O 1_555 1_555
C6O C7O 1_555 1_555
C11O C12O 1_555 1_555

#END
