
#######################################################################
#
#                 Cambridge Crystallographic Data Centre
#                                CCDC 
#
#######################################################################
#
# If this CIF has been generated from an entry in the Cambridge 
# Structural Database, then it will include bibliographic, chemical, 
# crystal, experimental, refinement or atomic coordinate data resulting 
# from the CCDC's data processing and validation procedures.
#
#######################################################################

data_BUWGAC
_symmetry_cell_setting           monoclinic
_symmetry_space_group_name_H-M   'P 21/c'
_symmetry_Int_Tables_number      14
_space_group_name_Hall           '-P 2ybc'
loop_
_symmetry_equiv_pos_site_id
_symmetry_equiv_pos_as_xyz
1 x,y,z
2 -x,1/2+y,1/2-z
3 -x,-y,-z
4 x,1/2-y,1/2+z
_cell_length_a                   4.7160(3)
_cell_length_b                   27.833(2)
_cell_length_c                   10.8881(7)
_cell_angle_alpha                90
_cell_angle_beta                 96.103(7)
_cell_angle_gamma                90
_cell_volume                     1421.08
loop_
_atom_site_label
_atom_site_type_symbol
_atom_site_fract_x
_atom_site_fract_y
_atom_site_fract_z
Cu1 Cu 0.38898 0.18876 0.5792
O1 O 0.5478 0.17082 0.75158
O2 O 0.84697 0.19469 0.90949
O3 O 1.18968 0.29247 0.94162
O4 O 0.80318 0.30367 1.03272
N1 N 0.4762 0.2534 0.6522
N2 N 0.6895 0.3353 0.764
N3 N 0.25998 0.12026 0.54083
C1 C 0.6814 0.2008 0.8167
C2 C 0.6404 0.2515 0.763
C3 C 0.4154 0.2962 0.5978
C4 C 0.5254 0.3368 0.6582
C5 C 0.7511 0.2927 0.8193
C6 C 0.9268 0.2966 0.9413
C7 C 0.08577 0.10097 0.62469
C8 C 0.29936 0.0956 0.43356
C9 C 0.19071 0.04779 0.41519
C10 C -0.02683 0.0536 0.60641
C11 C 0.03535 0.02677 0.50371
H1 H 0.037 0.1194 0.6921
H2 H 0.402 0.1095 0.3691
H3 H 0.224 0.0291 0.3437
H4 H -0.148 0.0405 0.6614
H5 H 0.301 0.298 0.52
H6 H 0.481 0.37 0.622
Cu1C Cu -0.61102 0.31124 0.0792
Cu1C_2 Cu 1.38898 0.31124 1.0792
Cu1C_3 Cu 0.38898 0.31124 1.0792
Cu1B Cu -0.38898 -0.18876 0.4208
Cu1_2 Cu -0.61102 0.18876 0.5792
O1C O -0.4522 0.32918 0.25158
O2C O -0.15303 0.30531 0.40949
O3C O 0.18968 0.20753 0.44162
O3_2 O -0.81032 0.29247 -0.05838
O4C O -0.19682 0.19633 0.53272
O4C_2 O 0.80318 0.19633 0.53272
O4_2 O -0.19682 0.30367 0.03272
N1C N -0.5238 0.2466 0.1522
N2C N -0.3105 0.1647 0.264
N3B N -0.25998 -0.12026 0.45917
N3C N -0.74002 0.37974 0.04083
C1C C -0.3186 0.2992 0.3167
C2C C -0.3596 0.2485 0.263
C3C C -0.5846 0.2038 0.0978
C4C C -0.4746 0.1632 0.1582
C5C C -0.2489 0.2073 0.3193
C6C C -0.0732 0.2034 0.4413
C7B C -0.08577 -0.10097 0.37531
C8B C -0.29936 -0.0956 0.56644
C9B C -0.19071 -0.04779 0.58481
C10B C 0.02683 -0.0536 0.39359
C11B C -0.03535 -0.02677 0.49629
H1B H -0.037 -0.1194 0.3079
H2B H -0.402 -0.1095 0.6309
H3B H -0.224 -0.0291 0.6563
H4B H 0.148 -0.0405 0.3386
H5C H -0.699 0.202 0.02
H6C H -0.519 0.13 0.122
loop_
_geom_bond_atom_site_label_1
_geom_bond_atom_site_label_2
_geom_bond_site_symmetry_1
_geom_bond_site_symmetry_2
Cu1 O1 1_555 1_555
O1 C1 1_555 1_555
O2 C1 1_555 1_555
O3 C6 1_555 1_555
O4 C6 1_555 1_555
N1 Cu1 1_555 1_555
N2 C4 1_555 1_555
N3 Cu1 1_555 1_555
C1 C2 1_555 1_555
C2 N1 1_555 1_555
C3 N1 1_555 1_555
C4 C3 1_555 1_555
C5 N2 1_555 1_555
C6 C5 1_555 1_555
C7 N3 1_555 1_555
C8 N3 1_555 1_555
C9 C8 1_555 1_555
C10 C7 1_555 1_555
C11 C9 1_555 1_555
H1 C7 1_555 1_555
H2 C8 1_555 1_555
H3 C9 1_555 1_555
H4 C10 1_555 1_555
H5 C3 1_555 1_555
H6 C4 1_555 1_555
Cu1C O1C 1_555 1_555
Cu1C_2 O3 1_555 1_555
Cu1C_3 O4 1_555 1_555
Cu1B N3B 1_555 1_555
Cu1_2 O4C 1_555 1_555
O1C C1C 1_555 1_555
O2C C1C 1_555 1_555
O3C Cu1 1_555 1_555
O3_2 Cu1C 1_555 1_555
O4C C6C 1_555 1_555
O4C_2 Cu1 1_555 1_555
O4_2 Cu1C 1_555 1_555
N1C Cu1C 1_555 1_555
N2C C4C 1_555 1_555
N3B C7B 1_555 1_555
N3C Cu1C 1_555 1_555
C1C C2C 1_555 1_555
C2C N1C 1_555 1_555
C3C N1C 1_555 1_555
C4C C3C 1_555 1_555
C5C N2C 1_555 1_555
C6C O3C 1_555 1_555
C7B C10B 1_555 1_555
C8B N3B 1_555 1_555
C9B C8B 1_555 1_555
C10B C11B 1_555 1_555
C11B C11 1_555 1_555
H1B C7B 1_555 1_555
H2B C8B 1_555 1_555
H3B C9B 1_555 1_555
H4B C10B 1_555 1_555
H5C C3C 1_555 1_555
H6C C4C 1_555 1_555
C2 C5 1_555 1_555
C10 C11 1_555 1_555
C2C C5C 1_555 1_555
C5C C6C 1_555 1_555
C9B C11B 1_555 1_555

#END
