
#######################################################################
#
#                 Cambridge Crystallographic Data Centre
#                                CCDC 
#
#######################################################################
#
# If this CIF has been generated from an entry in the Cambridge 
# Structural Database, then it will include bibliographic, chemical, 
# crystal, experimental, refinement or atomic coordinate data resulting 
# from the CCDC's data processing and validation procedures.
#
#######################################################################

data_BUWLEL01
_symmetry_cell_setting           orthorhombic
_symmetry_space_group_name_H-M   'P 21 21 2'
_symmetry_Int_Tables_number      18
_space_group_name_Hall           'P 2 2ab'
loop_
_symmetry_equiv_pos_site_id
_symmetry_equiv_pos_as_xyz
1 x,y,z
2 -x,-y,z
3 1/2+x,1/2-y,-z
4 1/2-x,1/2+y,-z
_cell_length_a                   14.109(16)
_cell_length_b                   14.455(17)
_cell_length_c                   4.799(6)
_cell_angle_alpha                90
_cell_angle_beta                 90
_cell_angle_gamma                90
_cell_volume                     978.735
loop_
_atom_site_label
_atom_site_type_symbol
_atom_site_fract_x
_atom_site_fract_y
_atom_site_fract_z
Zn1 Zn 0.50000 0.50000 0.58120(18)
O1 O 0.4023(3) 0.4618(3) 0.3061(10)
O2 O 0.3625(5) 0.3628(5) 0.6192(15)
O3 O 0.1741(4) 0.2337(3) -0.0663(11)
N1 N 0.2155(4) 0.2952(3) 0.3419(11)
N2 N 0.0641(3) 0.0979(3) 0.1869(12)
C1 C 0.3499(5) 0.4002(4) 0.3970(14)
C2 C 0.2635(5) 0.3765(4) 0.2221(15)
C3 C 0.1751(5) 0.2313(4) 0.1836(14)
C4 C 0.1310(6) 0.1534(5) 0.3403(16)
C5 C 0.1982(6) 0.4558(5) 0.203(2)
H1 H 0.21380 0.28890 0.52010
H2 H 0.28480 0.36070 0.03370
H3 H 0.01950 0.13520 0.11400
H4 H 0.09440 0.07030 0.04440
H5 H 0.09900 0.17870 0.50230
H6 H 0.18120 0.11330 0.40720
H7 H 0.18800 0.48120 0.38490
H8 H 0.22530 0.50220 0.08380
H9 H 0.13880 0.43560 0.12610
Zn1B Zn 0.00000 0.00000 0.41880(18)
Zn1B_2 Zn 1.00000 1.00000 0.41880(18)
O1A O 0.5977(3) 0.5382(3) 0.3061(10)
O2A O 0.6375(5) 0.6372(5) 0.6192(15)
O3A O 0.8259(4) 0.7663(3) -0.0663(11)
N1A N 0.7845(4) 0.7048(3) 0.3419(11)
N2B N 0.5641(3) 0.4021(3) 0.8131(12)
N2C N 0.4359(3) 0.5979(3) 0.8131(12)
N2A N 0.9359(3) 0.9021(3) 0.1869(12)
C1A C 0.6501(5) 0.5998(4) 0.3970(14)
C2A C 0.7365(5) 0.6235(4) 0.2221(15)
C3A C 0.8249(5) 0.7687(4) 0.1836(14)
C4A C 0.8690(6) 0.8466(5) 0.3403(16)
C5A C 0.8018(6) 0.5442(5) 0.203(2)
H1A H 0.78620 0.71110 0.52010
H2A H 0.71520 0.63930 0.03370
H3B H 0.51950 0.36480 0.88600
H3C H 0.48050 0.63520 0.88600
H3A H 0.98050 0.86480 0.11400
H4B H 0.59440 0.42970 0.95560
H4C H 0.40560 0.57030 0.95560
H4A H 0.90560 0.92970 0.04440
H5A H 0.90100 0.82130 0.50230
H6A H 0.81880 0.88670 0.40720
H7A H 0.81200 0.51880 0.38490
H8A H 0.77470 0.49780 0.08380
H9A H 0.86120 0.56440 0.12610
loop_
_geom_bond_atom_site_label_1
_geom_bond_atom_site_label_2
_geom_bond_site_symmetry_1
_geom_bond_site_symmetry_2
Zn1 O1 1_555 1_555
O1 C1 1_555 1_555
O2 C1 1_555 1_555
O3 C3 1_555 1_555
N1 C2 1_555 1_555
N2 C4 1_555 1_555
C1 C2 1_555 1_555
C2 C5 1_555 1_555
C3 N1 1_555 1_555
C4 C3 1_555 1_555
C5 H7 1_555 1_555
H1 N1 1_555 1_555
H2 C2 1_555 1_555
H3 N2 1_555 1_555
H4 N2 1_555 1_555
H5 C4 1_555 1_555
H6 C4 1_555 1_555
H8 C5 1_555 1_555
H9 C5 1_555 1_555
Zn1B N2 1_555 1_555
Zn1B_2 N2A 1_555 1_555
O1A Zn1 1_555 1_555
O2A C1A 1_555 1_555
O3A C3A 1_555 1_555
N1A C2A 1_555 1_555
N2B Zn1 1_555 1_555
N2C Zn1 1_555 1_555
N2A C4A 1_555 1_555
C1A O1A 1_555 1_555
C2A C1A 1_555 1_555
C3A N1A 1_555 1_555
C4A C3A 1_555 1_555
C5A C2A 1_555 1_555
H1A N1A 1_555 1_555
H2A C2A 1_555 1_555
H3B N2B 1_555 1_555
H3C N2C 1_555 1_555
H3A N2A 1_555 1_555
H4B N2B 1_555 1_555
H4C N2C 1_555 1_555
H4A N2A 1_555 1_555
H5A C4A 1_555 1_555
H6A C4A 1_555 1_555
H7A C5A 1_555 1_555
H8A C5A 1_555 1_555
H9A C5A 1_555 1_555

#END
