
#######################################################################
#
#                 Cambridge Crystallographic Data Centre
#                                CCDC 
#
#######################################################################
#
# If this CIF has been generated from an entry in the Cambridge 
# Structural Database, then it will include bibliographic, chemical, 
# crystal, experimental, refinement or atomic coordinate data resulting 
# from the CCDC's data processing and validation procedures.
#
#######################################################################

data_BUWWOF01
_symmetry_cell_setting           triclinic
_symmetry_space_group_name_H-M   'P -1'
_symmetry_Int_Tables_number      2
_space_group_name_Hall           '-P 1'
loop_
_symmetry_equiv_pos_site_id
_symmetry_equiv_pos_as_xyz
1 x,y,z
2 -x,-y,-z
_cell_length_a                   11.275(4)
_cell_length_b                   14.760(5)
_cell_length_c                   7.366(3)
_cell_angle_alpha                96.44(3)
_cell_angle_beta                 101.63(4)
_cell_angle_gamma                110.25(4)
_cell_volume                     1104.16
loop_
_atom_site_label
_atom_site_type_symbol
_atom_site_fract_x
_atom_site_fract_y
_atom_site_fract_z
B1 B 0.33720 0.20920 -0.42490
Cu1 Cu 0.37863 0.23878 0.09863
N1 N 0.21700 0.12370 -0.03520
C1 C 0.10860 0.12710 -0.14890
C2 C 0.00850 0.04210 -0.25680
C3 C 0.02020 -0.04630 -0.25270
C4 C 0.13140 -0.05040 -0.13810
C5 C 0.22860 0.03710 -0.03030
C6 C 0.35200 0.04160 0.09170
C7 C 0.37430 -0.04060 0.13950
C8 C 0.49230 -0.02780 0.25890
C9 C 0.58350 0.06500 0.32730
C10 C 0.55800 0.14530 0.27960
N2 N 0.44270 0.13260 0.15810
F1 F 0.40600 0.23230 -0.23870
F2 F 0.41860 0.26160 -0.52840
F3 F 0.29300 0.11100 -0.49230
F4 F 0.23130 0.23820 -0.44050
N3 N 0.54580 0.35390 0.13920
C11 C 0.65690 0.35260 0.10740
C12 C 0.76790 0.43490 0.14290
C13 C 0.76280 0.52470 0.21470
C14 C 0.64740 0.52860 0.24040
C15 C 0.53780 0.44100 0.20080
C16 C 0.40870 0.43520 0.21910
C17 C 0.38180 0.51630 0.29020
C18 C 0.25430 0.50100 0.30120
C19 C 0.16280 0.41130 0.24880
C20 C 0.19410 0.33400 0.18000
N4 N 0.31280 0.34520 0.16340
H1 H 0.09960 0.19730 -0.15330
H2 H -0.07750 0.04620 -0.34570
H3 H -0.05740 -0.11310 -0.33640
H4 H 0.14370 -0.11960 -0.13330
H5 H 0.29980 -0.11360 0.08490
H6 H 0.51240 -0.09040 0.29780
H7 H 0.67690 0.07580 0.41930
H8 H 0.63000 0.21370 0.33910
H9 H 0.65920 0.28310 0.04800
H10 H 0.85730 0.43120 0.11760
H11 H 0.84920 0.59150 0.24710
H12 H 0.63980 0.59750 0.29040
H13 H 0.45870 0.58860 0.33630
H14 H 0.23040 0.56290 0.34870
H15 H 0.06500 0.39940 0.26190
H16 H 0.11830 0.26100 0.13800
F2_2 F 0.41860 0.26160 0.47160
Cu1_2 Cu 0.37863 0.23878 -0.90137
B2 B 0.13280 0.71820 0.23760
F5 F 0.25880 0.73830 0.29010
F6 F 0.06340 0.62440 0.19820
F7 F 0.11950 0.74470 0.05540
F8 F 0.09380 0.77440 0.32850
loop_
_geom_bond_atom_site_label_1
_geom_bond_atom_site_label_2
_geom_bond_site_symmetry_1
_geom_bond_site_symmetry_2
B1 F1 1_555 1_555
Cu1 N1 1_555 1_555
N1 C1 1_555 1_555
C1 C2 1_555 1_555
C2 C3 1_555 1_555
C3 C4 1_555 1_555
C4 C5 1_555 1_555
C5 N1 1_555 1_555
C6 C5 1_555 1_555
C7 C6 1_555 1_555
C8 C7 1_555 1_555
C9 C8 1_555 1_555
C10 C9 1_555 1_555
N2 Cu1 1_555 1_555
F1 Cu1 1_555 1_555
F2 B1 1_555 1_555
F3 B1 1_555 1_555
F4 B1 1_555 1_555
N3 Cu1 1_555 1_555
C11 N3 1_555 1_555
C12 C11 1_555 1_555
C13 C12 1_555 1_555
C14 C13 1_555 1_555
C15 N3 1_555 1_555
C16 C15 1_555 1_555
C17 C16 1_555 1_555
C18 C17 1_555 1_555
C19 C18 1_555 1_555
C20 C19 1_555 1_555
N4 Cu1 1_555 1_555
B2 F5 1_555 1_555
F6 B2 1_555 1_555
F7 B2 1_555 1_555
F8 B2 1_555 1_555
H1 C1 1_555 1_555
H2 C2 1_555 1_555
H3 C3 1_555 1_555
H4 C4 1_555 1_555
H5 C7 1_555 1_555
H6 C8 1_555 1_555
H7 C9 1_555 1_555
H8 C10 1_555 1_555
H9 C11 1_555 1_555
H10 C12 1_555 1_555
H11 C13 1_555 1_555
H12 C14 1_555 1_555
H13 C17 1_555 1_555
H14 C18 1_555 1_555
H15 C19 1_555 1_555
H16 C20 1_555 1_555
F2_2 Cu1 1_555 1_555
Cu1_2 F2 1_555 1_555
C6 N2 1_555 1_555
C10 N2 1_555 1_555
C14 C15 1_555 1_555
C16 N4 1_555 1_555
C20 N4 1_555 1_555

#END
