
#######################################################################
#
#                 Cambridge Crystallographic Data Centre
#                                CCDC 
#
#######################################################################
#
# If this CIF has been generated from an entry in the Cambridge 
# Structural Database, then it will include bibliographic, chemical, 
# crystal, experimental, refinement or atomic coordinate data resulting 
# from the CCDC's data processing and validation procedures.
#
#######################################################################

data_BUXHOS
_symmetry_cell_setting           monoclinic
_symmetry_space_group_name_H-M   'P 21/n'
_symmetry_Int_Tables_number      14
_space_group_name_Hall           '-P 2yn'
loop_
_symmetry_equiv_pos_site_id
_symmetry_equiv_pos_as_xyz
1 x,y,z
2 1/2-x,1/2+y,1/2-z
3 -x,-y,-z
4 1/2+x,1/2-y,1/2+z
_cell_length_a                   14.2863(5)
_cell_length_b                   15.3649(5)
_cell_length_c                   17.8721(6)
_cell_angle_alpha                90
_cell_angle_beta                 111.478(2)
_cell_angle_gamma                90
_cell_volume                     3650.64
loop_
_atom_site_label
_atom_site_type_symbol
_atom_site_fract_x
_atom_site_fract_y
_atom_site_fract_z
Cu1 Cu 0.38044(2) 0.02411(2) 0.995625(18)
Cu2 Cu -0.02063(2) 0.09681(2) 0.654938(19)
Cu3 Cu 0.03763(2) 0.21107(2) 1.100503(19)
Cl1 Cl 0.49724(4) -0.09289(4) 1.04959(4)
Cl2 Cl -0.13936(5) 0.00572(5) 0.56870(4)
Cl3 Cl -0.03174(5) 0.30006(5) 0.99846(4)
P1 P 0.25176(5) -0.03585(4) 0.89371(4)
P2 P 0.19292(5) -0.16395(5) 0.75856(4)
P3 P 0.07550(5) 0.00008(4) 0.74332(4)
P4 P 0.39681(5) 0.28299(4) 1.16669(4)
P5 P 0.35213(5) 0.10723(4) 1.08950(4)
P6 P 0.39443(5) 0.12672(5) 1.26600(4)
P7 P 0.20395(5) 0.19417(5) 1.14446(4)
P8 P 0.06520(5) -0.13787(4) 0.85616(4)
N1 N 0.28107(15) -0.11396(14) 0.83973(12)
N2 N 0.12317(16) -0.07938(14) 0.70337(13)
N3 N 0.17643(15) 0.03607(14) 0.82433(12)
N4 N 0.16648(15) -0.08837(14) 0.92311(12)
N5 N 0.11379(15) -0.20256(14) 0.80386(13)
N6 N 0.01115(15) -0.05587(14) 0.79155(12)
N7 N 0.39993(15) 0.20942(14) 1.09613(12)
N8 N 0.26977(15) 0.28680(14) 1.14498(13)
N9 N 0.44063(15) 0.22581(14) 1.25294(12)
N10 N 0.40205(15) 0.07153(14) 1.18536(12)
N11 N 0.26697(15) 0.14566(15) 1.23377(13)
N12 N 0.23006(15) 0.12693(14) 1.07962(12)
N13 N 0.06991(17) 0.14268(16) 0.59795(14)
C1 C 0.37871(19) -0.1053(2) 0.82937(17)
H1 H 0.3687 -0.0753 0.7786
H2 H 0.4070 -0.1632 0.8285
H3 H 0.4252 -0.0716 0.8742
C2 C 0.1097(2) -0.0763(2) 0.61803(16)
H4 H 0.0407 -0.0583 0.5862
H5 H 0.1222 -0.1342 0.6005
H6 H 0.1571 -0.0345 0.6103
C3 C 0.23625(19) 0.10366(18) 0.80217(16)
H7 H 0.2834 0.1308 0.8511
H8 H 0.1909 0.1481 0.7686
H9 H 0.2739 0.0766 0.7722
C4 C 0.1973(2) -0.11069(19) 1.00921(15)
H10 H 0.1811 -0.0622 1.0380
H11 H 0.2699 -0.1217 1.0317
H12 H 0.1613 -0.1630 1.0150
C5 C 0.0424(2) -0.26738(19) 0.75255(18)
H13 H 0.0069 -0.2959 0.7835
H14 H 0.0794 -0.3111 0.7345
H15 H -0.0063 -0.2381 0.7057
C6 C -0.05354(19) 0.00117(18) 0.81857(16)
H16 H -0.0984 -0.0346 0.8362
H17 H -0.0937 0.0386 0.7740
H18 H -0.0114 0.0373 0.8634
C7 C 0.36500(19) 0.24997(18) 1.01459(15)
H19 H 0.2915 0.2461 0.9900
H20 H 0.3854 0.3112 1.0194
H21 H 0.3951 0.2192 0.9809
C8 C 0.2305(2) 0.36642(18) 1.16995(17)
H22 H 0.2490 0.3661 1.2284
H23 H 0.2595 0.4179 1.1542
H24 H 0.1571 0.3680 1.1437
C9 C 0.54093(19) 0.24650(19) 1.31269(16)
H25 H 0.5531 0.3092 1.3121
H26 H 0.5440 0.2291 1.3663
H27 H 0.5924 0.2149 1.2993
C10 C 0.3917(2) -0.02383(17) 1.19363(16)
H28 H 0.3212 -0.0380 1.1834
H29 H 0.4335 -0.0420 1.2482
H30 H 0.4134 -0.0544 1.1547
C11 C 0.2309(2) 0.1648(2) 1.29948(16)
H31 H 0.2461 0.2255 1.3164
H32 H 0.2647 0.1263 1.3451
H33 H 0.1581 0.1554 1.2806
C12 C 0.14882(19) 0.1215(2) 0.99987(16)
H34 H 0.0926 0.0880 1.0040
H35 H 0.1741 0.0926 0.9621
H36 H 0.1258 0.1803 0.9805
C13 C 0.1196(2) 0.16727(19) 0.56576(17)
C14 C 0.1811(2) 0.2003(2) 0.52305(19)
H37 H 0.1502 0.2531 0.4935
H38 H 0.1861 0.1561 0.4852
H39 H 0.2484 0.2140 0.5616
Cu1B Cu -0.38044(2) -0.02411(2) 1.004375(18)
Cu1_2 Cu -0.61956(2) 0.02411(2) 0.995625(18)
Cu1B_2 Cu 0.61956(2) -0.02411(2) 1.004375(18)
Cu2B Cu 0.02063(2) -0.09681(2) 1.345062(19)
Cu2A Cu -0.47937(2) -0.40319(2) 0.845062(19)
Cu2C Cu 0.47937(2) 0.40319(2) 1.154938(19)
Cu3B Cu -0.03763(2) -0.21107(2) 0.899497(19)
Cl1B Cl -0.49724(4) 0.09289(4) 0.95041(4)
Cl1_2 Cl -0.50276(4) -0.09289(4) 1.04959(4)
Cl1B_2 Cl 0.50276(4) 0.09289(4) 0.95041(4)
Cl2B Cl 0.13936(5) -0.00572(5) 1.43130(4)
Cl3B Cl 0.03174(5) -0.30006(5) 1.00154(4)
P1B P -0.25176(5) 0.03585(4) 1.10629(4)
P2B P -0.19292(5) 0.16395(5) 1.24144(4)
P3B P -0.07550(5) -0.00008(4) 1.25668(4)
P4B P -0.39681(5) -0.28299(4) 0.83331(4)
P4A P 0.10319(5) -0.21701(4) 1.33331(4)
P4C P -0.10319(5) 0.21701(4) 0.66669(4)
P5B P -0.35213(5) -0.10723(4) 0.91050(4)
P6B P -0.39443(5) -0.12672(5) 0.73400(4)
P7B P -0.20395(5) -0.19417(5) 0.85554(4)
P8B P -0.06520(5) 0.13787(4) 1.14384(4)
N1B N -0.28107(15) 0.11396(14) 1.16027(12)
N2B N -0.12317(16) 0.07938(14) 1.29663(13)
N3B N -0.17643(15) -0.03607(14) 1.17567(12)
N4B N -0.16648(15) 0.08837(14) 1.07689(12)
N5B N -0.11379(15) 0.20256(14) 1.19614(13)
N6B N -0.01115(15) 0.05587(14) 1.20845(12)
N7B N -0.39993(15) -0.20942(14) 0.90387(12)
N8B N -0.26977(15) -0.28680(14) 0.85502(13)
N9B N -0.44063(15) -0.22581(14) 0.74706(12)
N10B N -0.40205(15) -0.07153(14) 0.81464(12)
N11B N -0.26697(15) -0.14566(15) 0.76623(13)
N12B N -0.23006(15) -0.12693(14) 0.92038(12)
N13B N -0.06991(17) -0.14268(16) 1.40205(14)
C1B C -0.37871(19) 0.1053(2) 1.17063(17)
H1B H -0.3687 0.0753 1.2214
H2B H -0.4070 0.1632 1.1715
H3B H -0.4252 0.0716 1.1258
C2B C -0.1097(2) 0.0763(2) 1.38197(16)
H4B H -0.0407 0.0583 1.4138
H5B H -0.1222 0.1342 1.3995
H6B H -0.1571 0.0345 1.3897
C3B C -0.23625(19) -0.10366(18) 1.19783(16)
H7B H -0.2834 -0.1308 1.1489
H8B H -0.1909 -0.1481 1.2314
H9B H -0.2739 -0.0766 1.2278
C4B C -0.1973(2) 0.11069(19) 0.99079(15)
H10B H -0.1811 0.0622 0.9620
H11B H -0.2699 0.1217 0.9683
H12B H -0.1613 0.1630 0.9850
C5B C -0.0424(2) 0.26738(19) 1.24745(18)
H13B H -0.0069 0.2959 1.2165
H14B H -0.0794 0.3111 1.2655
H15B H 0.0063 0.2381 1.2943
C6B C 0.05354(19) -0.00117(18) 1.18143(16)
H16B H 0.0984 0.0346 1.1638
H17B H 0.0937 -0.0386 1.2260
H18B H 0.0114 -0.0373 1.1366
C7B C -0.36500(19) -0.24997(18) 0.98541(15)
H19B H -0.2915 -0.2461 1.0100
H20B H -0.3854 -0.3112 0.9806
H21B H -0.3951 -0.2192 1.0191
C8B C -0.2305(2) -0.36642(18) 0.83005(17)
H22B H -0.2490 -0.3661 0.7716
H23B H -0.2595 -0.4179 0.8458
H24B H -0.1571 -0.3680 0.8563
C9B C -0.54093(19) -0.24650(19) 0.68731(16)
H25B H -0.5531 -0.3092 0.6879
H26B H -0.5440 -0.2291 0.6337
H27B H -0.5924 -0.2149 0.7007
C10B C -0.3917(2) 0.02383(17) 0.80637(16)
H28B H -0.3212 0.0380 0.8166
H29B H -0.4335 0.0420 0.7518
H30B H -0.4134 0.0544 0.8453
C11B C -0.2309(2) -0.1648(2) 0.70052(16)
H31B H -0.2461 -0.2255 0.6836
H32B H -0.2647 -0.1263 0.6549
H33B H -0.1581 -0.1554 0.7194
C12B C -0.14882(19) -0.1215(2) 1.00013(16)
H34B H -0.0926 -0.0880 0.9960
H35B H -0.1741 -0.0926 1.0379
H36B H -0.1258 -0.1803 1.0195
C13B C -0.1196(2) -0.16727(19) 1.43424(17)
C14B C -0.1811(2) -0.2003(2) 1.47695(19)
H37B H -0.1502 -0.2531 1.5065
H38B H -0.1861 -0.1561 1.5148
H39B H -0.2484 -0.2140 1.4384
N14 N 0.3521(3) 0.0387(2) 0.6608(2)
C15 C 0.3704(2) 0.0134(2) 0.6083(2)
C16 C 0.3947(2) -0.0183(2) 0.54136(19)
H40 H 0.4121 0.0309 0.5140
H41 H 0.3366 -0.0491 0.5035
H42 H 0.4521 -0.0583 0.5612
loop_
_geom_bond_atom_site_label_1
_geom_bond_atom_site_label_2
_geom_bond_site_symmetry_1
_geom_bond_site_symmetry_2
Cu1 Cl1 1_555 1_555
Cu2 Cl2 1_555 1_555
Cu3 Cl3 1_555 1_555
Cl1 Cu1B_2 1_555 1_555
P1 Cu1 1_555 1_555
P2 N1 1_555 1_555
P3 Cu2 1_555 1_555
P4 N7 1_555 1_555
P5 Cu1 1_555 1_555
P6 N9 1_555 1_555
P7 Cu3 1_555 1_555
P8 N4 1_555 1_555
N1 P1 1_555 1_555
N2 P2 1_555 1_555
N3 P1 1_555 1_555
N4 P1 1_555 1_555
N5 P2 1_555 1_555
N6 P3 1_555 1_555
N7 P5 1_555 1_555
N8 P4 1_555 1_555
N9 P4 1_555 1_555
N10 P5 1_555 1_555
N11 P6 1_555 1_555
N12 P5 1_555 1_555
N13 Cu2 1_555 1_555
C1 N1 1_555 1_555
H1 C1 1_555 1_555
H2 C1 1_555 1_555
H3 C1 1_555 1_555
C2 N2 1_555 1_555
H4 C2 1_555 1_555
H5 C2 1_555 1_555
H6 C2 1_555 1_555
C3 N3 1_555 1_555
H7 C3 1_555 1_555
H8 C3 1_555 1_555
H9 C3 1_555 1_555
C4 N4 1_555 1_555
H10 C4 1_555 1_555
H11 C4 1_555 1_555
H12 C4 1_555 1_555
C5 N5 1_555 1_555
H13 C5 1_555 1_555
H14 C5 1_555 1_555
H15 C5 1_555 1_555
C6 N6 1_555 1_555
H16 C6 1_555 1_555
H17 C6 1_555 1_555
H18 C6 1_555 1_555
C7 N7 1_555 1_555
H19 C7 1_555 1_555
H20 C7 1_555 1_555
H21 C7 1_555 1_555
C8 N8 1_555 1_555
H22 C8 1_555 1_555
H23 C8 1_555 1_555
H24 C8 1_555 1_555
C9 N9 1_555 1_555
H25 C9 1_555 1_555
H26 C9 1_555 1_555
H27 C9 1_555 1_555
C10 N10 1_555 1_555
H28 C10 1_555 1_555
H29 C10 1_555 1_555
H30 C10 1_555 1_555
C11 N11 1_555 1_555
H31 C11 1_555 1_555
H32 C11 1_555 1_555
H33 C11 1_555 1_555
C12 N12 1_555 1_555
H34 C12 1_555 1_555
H35 C12 1_555 1_555
H36 C12 1_555 1_555
C13 N13 1_555 1_555
C14 C13 1_555 1_555
H37 C14 1_555 1_555
H38 C14 1_555 1_555
H39 C14 1_555 1_555
N14 C15 1_555 1_555
C15 C16 1_555 1_555
C16 H40 1_555 1_555
H41 C16 1_555 1_555
H42 C16 1_555 1_555
Cu1B Cl1B 1_555 1_555
Cu1_2 Cl1B 1_555 1_555
Cu1B_2 Cl1B_2 1_555 1_555
Cu2B Cl2B 1_555 1_555
Cu2A P4B 1_555 1_555
Cu2C P4 1_555 1_555
Cu3B P8 1_555 1_555
Cl1_2 Cu1B 1_555 1_555
Cl1B_2 Cu1 1_555 1_555
Cl3B Cu3B 1_555 1_555
P1B Cu1B 1_555 1_555
P2B N1B 1_555 1_555
P3B Cu2B 1_555 1_555
P4B N7B 1_555 1_555
P4A Cu2B 1_555 1_555
P4C Cu2 1_555 1_555
P5B Cu1B 1_555 1_555
P6B N9B 1_555 1_555
P7B Cu3B 1_555 1_555
P8B Cu3 1_555 1_555
N1B P1B 1_555 1_555
N2B P2B 1_555 1_555
N3B P1B 1_555 1_555
N4B P1B 1_555 1_555
N5B P2B 1_555 1_555
N6B P3B 1_555 1_555
N7B P5B 1_555 1_555
N8B P4B 1_555 1_555
N9B P4B 1_555 1_555
N10B P5B 1_555 1_555
N11B P6B 1_555 1_555
N12B P5B 1_555 1_555
N13B Cu2B 1_555 1_555
C1B N1B 1_555 1_555
H1B C1B 1_555 1_555
H2B C1B 1_555 1_555
H3B C1B 1_555 1_555
C2B N2B 1_555 1_555
H4B C2B 1_555 1_555
H5B C2B 1_555 1_555
H6B C2B 1_555 1_555
C3B N3B 1_555 1_555
H7B C3B 1_555 1_555
H8B C3B 1_555 1_555
H9B C3B 1_555 1_555
C4B N4B 1_555 1_555
H10B C4B 1_555 1_555
H11B C4B 1_555 1_555
H12B C4B 1_555 1_555
C5B N5B 1_555 1_555
H13B C5B 1_555 1_555
H14B C5B 1_555 1_555
H15B C5B 1_555 1_555
C6B N6B 1_555 1_555
H16B C6B 1_555 1_555
H17B C6B 1_555 1_555
H18B C6B 1_555 1_555
C7B N7B 1_555 1_555
H19B C7B 1_555 1_555
H20B C7B 1_555 1_555
H21B C7B 1_555 1_555
C8B N8B 1_555 1_555
H22B C8B 1_555 1_555
H23B C8B 1_555 1_555
H24B C8B 1_555 1_555
C9B N9B 1_555 1_555
H25B C9B 1_555 1_555
H26B C9B 1_555 1_555
H27B C9B 1_555 1_555
C10B N10B 1_555 1_555
H28B C10B 1_555 1_555
H29B C10B 1_555 1_555
H30B C10B 1_555 1_555
C11B N11B 1_555 1_555
H31B C11B 1_555 1_555
H32B C11B 1_555 1_555
H33B C11B 1_555 1_555
C12B N12B 1_555 1_555
H34B C12B 1_555 1_555
H35B C12B 1_555 1_555
H36B C12B 1_555 1_555
C13B N13B 1_555 1_555
C14B C13B 1_555 1_555
H37B C14B 1_555 1_555
H38B C14B 1_555 1_555
H39B C14B 1_555 1_555
P3 N2 1_555 1_555
P3 N3 1_555 1_555
P6 N10 1_555 1_555
P7 N8 1_555 1_555
P7 N11 1_555 1_555
P7 N12 1_555 1_555
P8 N5 1_555 1_555
P8 N6 1_555 1_555
Cu1_2 Cl1_2 1_555 1_555
P3B N2B 1_555 1_555
P3B N3B 1_555 1_555
P6B N10B 1_555 1_555
P7B N8B 1_555 1_555
P7B N11B 1_555 1_555
P7B N12B 1_555 1_555
P8B N4B 1_555 1_555
P8B N5B 1_555 1_555
P8B N6B 1_555 1_555

#END
