
#######################################################################
#
#                 Cambridge Crystallographic Data Centre
#                                CCDC 
#
#######################################################################
#
# If this CIF has been generated from an entry in the Cambridge 
# Structural Database, then it will include bibliographic, chemical, 
# crystal, experimental, refinement or atomic coordinate data resulting 
# from the CCDC's data processing and validation procedures.
#
#######################################################################

data_BUXHUY
_symmetry_cell_setting           triclinic
_symmetry_space_group_name_H-M   'P -1'
_symmetry_Int_Tables_number      2
_space_group_name_Hall           '-P 1'
loop_
_symmetry_equiv_pos_site_id
_symmetry_equiv_pos_as_xyz
1 x,y,z
2 -x,-y,-z
_cell_length_a                   10.8351(4)
_cell_length_b                   11.1744(4)
_cell_length_c                   12.6817(4)
_cell_angle_alpha                103.9222(19)
_cell_angle_beta                 91.235(2)
_cell_angle_gamma                102.718(2)
_cell_volume                     1449.26
loop_
_atom_site_label
_atom_site_type_symbol
_atom_site_fract_x
_atom_site_fract_y
_atom_site_fract_z
Cu1 Cu 0.789622(15) 0.164225(15) 0.379261(13)
Cu2 Cu 0.717794(15) 0.330214(15) 0.625139(13)
Cl1 Cl 0.66000(3) 0.31313(3) 0.43746(3)
Cl2 Cl 0.85030(3) 0.18479(3) 0.56595(3)
P1 P 0.96506(3) 0.24580(3) 0.30117(3)
P2 P 1.06302(3) 0.27577(3) 0.08797(3)
P3 P 1.17876(3) 0.46570(3) 0.29570(3)
P4 P 1.22221(3) 0.20352(3) 0.24831(3)
P5 P 0.56016(3) 0.23767(3) 0.71555(3)
P6 P 0.34730(3) 0.28331(3) 0.85580(3)
P7 P 0.33622(3) 0.02409(3) 0.71558(3)
P8 P 0.52483(3) 0.13086(3) 0.91054(3)
N1 N 0.94213(11) 0.22888(10) 0.16454(9)
N2 N 1.04352(10) 0.40227(10) 0.34951(9)
N3 N 1.08109(11) 0.16795(10) 0.30676(9)
N4 N 1.13214(11) 0.42717(10) 0.16106(9)
N5 N 1.17163(11) 0.19796(11) 0.11925(9)
N6 N 1.27268(11) 0.36432(10) 0.30245(9)
N7 N 0.46657(11) 0.33389(10) 0.77801(9)
N8 N 0.45345(10) 0.09994(10) 0.64901(9)
N9 N 0.62012(11) 0.19678(10) 0.82257(9)
N10 N 0.26551(11) 0.14014(10) 0.77759(10)
N11 N 0.43134(11) 0.23510(11) 0.94607(9)
N12 N 0.41999(11) 0.00660(10) 0.82303(9)
C1 C 0.81718(14) 0.24136(15) 0.12657(12)
H1 H 0.7555 0.1600 0.1159
H2 H 0.8237 0.2660 0.0574
H3 H 0.7892 0.3063 0.1811
C2 C 0.95705(13) 0.49018(13) 0.37048(12)
H4 H 1.0031 0.5725 0.4163
H5 H 0.8850 0.4549 0.4079
H6 H 0.9260 0.5013 0.3011
C3 C 1.09353(13) 0.12438(13) 0.40682(11)
H7 H 1.1277 0.1977 0.4682
H8 H 1.1512 0.0668 0.3966
H9 H 1.0100 0.0798 0.4221
C4 C 1.19288(17) 0.51019(14) 0.09427(12)
H10 H 1.1572 0.5853 0.1064
H11 H 1.1776 0.4644 0.0171
H12 H 1.2844 0.5364 0.1145
C5 C 1.16633(15) 0.07374(13) 0.04307(12)
H13 H 1.2500 0.0540 0.0448
H14 H 1.1418 0.0767 -0.0309
H15 H 1.1037 0.0081 0.0648
C6 C 1.34270(14) 0.38890(13) 0.40997(12)
H16 H 1.3913 0.4772 0.4315
H17 H 1.4009 0.3322 0.4052
H18 H 1.2823 0.3735 0.4644
C7 C 0.43764(14) 0.42322(14) 0.71747(12)
H19 H 0.5146 0.4885 0.7175
H20 H 0.3720 0.4632 0.7525
H21 H 0.4071 0.3772 0.6422
C8 C 0.40755(14) 0.10133(13) 0.53865(11)
H22 H 0.3641 0.0152 0.4987
H23 H 0.4798 0.1326 0.4996
H24 H 0.3483 0.1571 0.5447
C9 C 0.73850(14) 0.15223(14) 0.80538(12)
H25 H 0.7232 0.0765 0.7444
H26 H 0.7663 0.1316 0.8715
H27 H 0.8045 0.2191 0.7888
C10 C 0.12976(14) 0.12818(14) 0.75183(14)
H28 H 0.1163 0.1353 0.6771
H29 H 0.1010 0.1957 0.8027
H30 H 0.0815 0.0456 0.7585
C11 C 0.48702(16) 0.33888(13) 1.04264(12)
H31 H 0.5503 0.4034 1.0202
H32 H 0.5278 0.3050 1.0949
H33 H 0.4199 0.3771 1.0768
C12 C 0.48123(13) -0.10191(12) 0.79291(11)
H34 H 0.4158 -0.1808 0.7683
H35 H 0.5320 -0.1056 0.8565
H36 H 0.5364 -0.0910 0.7340
Cu1A Cu 0.210378(15) -0.164225(15) 0.620739(13)
Cu2A Cu 0.282206(15) -0.330214(15) 0.374861(13)
Cu2_2 Cu -0.282206(15) -0.669786(15) 0.625139(13)
Cu2A_2 Cu 1.282206(15) 0.669786(15) 0.374861(13)
Cl1A Cl 0.34000(3) -0.31313(3) 0.56254(3)
Cl2A Cl 0.14970(3) -0.18479(3) 0.43405(3)
P1A P 0.03494(3) -0.24580(3) 0.69883(3)
P2A P -0.06302(3) -0.27577(3) 0.91203(3)
P3A P -0.17876(3) -0.46570(3) 0.70430(3)
P3_2 P 0.17876(3) -0.53430(3) 0.29570(3)
P3A_2 P 0.82124(3) 0.53430(3) 0.70430(3)
P4A P -0.22221(3) -0.20352(3) 0.75169(3)
P5A P 0.43984(3) -0.23767(3) 0.28445(3)
P6A P 0.65270(3) -0.28331(3) 0.14420(3)
P7A P 0.66378(3) -0.02409(3) 0.28442(3)
P8A P 0.47517(3) -0.13086(3) 0.08946(3)
N1A N 0.05787(11) -0.22888(10) 0.83546(9)
N2A N -0.04352(10) -0.40227(10) 0.65049(9)
N3A N -0.08109(11) -0.16795(10) 0.69324(9)
N4A N -0.13214(11) -0.42717(10) 0.83894(9)
N5A N -0.17163(11) -0.19796(11) 0.88075(9)
N6A N -0.27268(11) -0.36432(10) 0.69755(9)
N7A N 0.53343(11) -0.33389(10) 0.22199(9)
N8A N 0.54655(10) -0.09994(10) 0.35099(9)
N9A N 0.37988(11) -0.19678(10) 0.17743(9)
N10A N 0.73449(11) -0.14014(10) 0.22241(10)
N11A N 0.56866(11) -0.23510(11) 0.05393(9)
N12A N 0.58001(11) -0.00660(10) 0.17697(9)
C1A C 0.18282(14) -0.24136(15) 0.87343(12)
H1A H 0.2445 -0.1600 0.8841
H2A H 0.1763 -0.2660 0.9426
H3A H 0.2108 -0.3063 0.8189
C2A C 0.04295(13) -0.49018(13) 0.62952(12)
H4A H -0.0031 -0.5725 0.5837
H5A H 0.1150 -0.4549 0.5921
H6A H 0.0740 -0.5013 0.6989
C3A C -0.09353(13) -0.12438(13) 0.59318(11)
H7A H -0.1277 -0.1977 0.5318
H8A H -0.1512 -0.0668 0.6034
H9A H -0.0100 -0.0798 0.5779
C4A C -0.19288(17) -0.51019(14) 0.90573(12)
H10A H -0.1572 -0.5853 0.8936
H11A H -0.1776 -0.4644 0.9829
H12A H -0.2844 -0.5364 0.8855
C5A C -0.16633(15) -0.07374(13) 0.95693(12)
H13A H -0.2500 -0.0540 0.9552
H14A H -0.1418 -0.0767 1.0309
H15A H -0.1037 -0.0081 0.9352
C6A C -0.34270(14) -0.38890(13) 0.59003(12)
H16A H -0.3913 -0.4772 0.5685
H17A H -0.4009 -0.3322 0.5948
H18A H -0.2823 -0.3735 0.5356
C7A C 0.56236(14) -0.42322(14) 0.28253(12)
H19A H 0.4854 -0.4885 0.2825
H20A H 0.6280 -0.4632 0.2475
H21A H 0.5929 -0.3772 0.3578
C8A C 0.59245(14) -0.10133(13) 0.46135(11)
H22A H 0.6359 -0.0152 0.5013
H23A H 0.5202 -0.1326 0.5004
H24A H 0.6517 -0.1571 0.4553
C9A C 0.26150(14) -0.15223(14) 0.19462(12)
H25A H 0.2768 -0.0765 0.2556
H26A H 0.2337 -0.1316 0.1285
H27A H 0.1955 -0.2191 0.2112
C10A C 0.87024(14) -0.12818(14) 0.24817(14)
H28A H 0.8837 -0.1353 0.3229
H29A H 0.8990 -0.1957 0.1973
H30A H 0.9185 -0.0456 0.2415
C11A C 0.51298(16) -0.33888(13) -0.04264(12)
H31A H 0.4497 -0.4034 -0.0202
H32A H 0.4722 -0.3050 -0.0949
H33A H 0.5801 -0.3771 -0.0768
C12A C 0.51877(13) 0.10191(12) 0.20709(11)
H34A H 0.5842 0.1808 0.2317
H35A H 0.4680 0.1056 0.1435
H36A H 0.4636 0.0910 0.2660
loop_
_geom_bond_atom_site_label_1
_geom_bond_atom_site_label_2
_geom_bond_site_symmetry_1
_geom_bond_site_symmetry_2
Cu1 Cl1 1_555 1_555
Cu2 Cl1 1_555 1_555
Cl2 Cu1 1_555 1_555
P1 Cu1 1_555 1_555
P2 N1 1_555 1_555
P3 N2 1_555 1_555
P4 N3 1_555 1_555
P5 Cu2 1_555 1_555
P6 N7 1_555 1_555
P7 N8 1_555 1_555
P8 N9 1_555 1_555
N1 P1 1_555 1_555
N2 P1 1_555 1_555
N3 P1 1_555 1_555
N4 P2 1_555 1_555
N5 P2 1_555 1_555
N6 P3 1_555 1_555
N7 P5 1_555 1_555
N8 P5 1_555 1_555
N9 P5 1_555 1_555
N10 P6 1_555 1_555
N11 P6 1_555 1_555
N12 P7 1_555 1_555
C1 N1 1_555 1_555
H1 C1 1_555 1_555
H2 C1 1_555 1_555
H3 C1 1_555 1_555
C2 N2 1_555 1_555
H4 C2 1_555 1_555
H5 C2 1_555 1_555
H6 C2 1_555 1_555
C3 N3 1_555 1_555
H7 C3 1_555 1_555
H8 C3 1_555 1_555
H9 C3 1_555 1_555
C4 N4 1_555 1_555
H10 C4 1_555 1_555
H11 C4 1_555 1_555
H12 C4 1_555 1_555
C5 N5 1_555 1_555
H13 C5 1_555 1_555
H14 C5 1_555 1_555
H15 C5 1_555 1_555
C6 N6 1_555 1_555
H16 C6 1_555 1_555
H17 C6 1_555 1_555
H18 C6 1_555 1_555
C7 N7 1_555 1_555
H19 C7 1_555 1_555
H20 C7 1_555 1_555
H21 C7 1_555 1_555
C8 N8 1_555 1_555
H22 C8 1_555 1_555
H23 C8 1_555 1_555
H24 C8 1_555 1_555
C9 N9 1_555 1_555
H25 C9 1_555 1_555
H26 C9 1_555 1_555
H27 C9 1_555 1_555
C10 N10 1_555 1_555
H28 C10 1_555 1_555
H29 C10 1_555 1_555
H30 C10 1_555 1_555
C11 N11 1_555 1_555
H31 C11 1_555 1_555
H32 C11 1_555 1_555
H33 C11 1_555 1_555
C12 N12 1_555 1_555
H34 C12 1_555 1_555
H35 C12 1_555 1_555
H36 C12 1_555 1_555
Cu1A P7 1_555 1_555
Cu2A Cl1A 1_555 1_555
Cu2_2 P3A 1_555 1_555
Cu2A_2 P3 1_555 1_555
Cl1A Cu1A 1_555 1_555
Cl2A Cu1A 1_555 1_555
P1A Cu1A 1_555 1_555
P2A N1A 1_555 1_555
P3A N2A 1_555 1_555
P3_2 Cu2A 1_555 1_555
P3A_2 Cu2 1_555 1_555
P4A N3A 1_555 1_555
P5A Cu2A 1_555 1_555
P6A N7A 1_555 1_555
P7A Cu1 1_555 1_555
P8A N9A 1_555 1_555
N1A P1A 1_555 1_555
N2A P1A 1_555 1_555
N3A P1A 1_555 1_555
N4A P2A 1_555 1_555
N5A P2A 1_555 1_555
N6A P3A 1_555 1_555
N7A P5A 1_555 1_555
N8A P5A 1_555 1_555
N9A P5A 1_555 1_555
N10A P6A 1_555 1_555
N11A P6A 1_555 1_555
N12A P7A 1_555 1_555
C1A N1A 1_555 1_555
H1A C1A 1_555 1_555
H2A C1A 1_555 1_555
H3A C1A 1_555 1_555
C2A N2A 1_555 1_555
H4A C2A 1_555 1_555
H5A C2A 1_555 1_555
H6A C2A 1_555 1_555
C3A N3A 1_555 1_555
H7A C3A 1_555 1_555
H8A C3A 1_555 1_555
H9A C3A 1_555 1_555
C4A N4A 1_555 1_555
H10A C4A 1_555 1_555
H11A C4A 1_555 1_555
H12A C4A 1_555 1_555
C5A N5A 1_555 1_555
H13A C5A 1_555 1_555
H14A C5A 1_555 1_555
H15A C5A 1_555 1_555
C6A N6A 1_555 1_555
H16A C6A 1_555 1_555
H17A C6A 1_555 1_555
H18A C6A 1_555 1_555
C7A N7A 1_555 1_555
H19A C7A 1_555 1_555
H20A C7A 1_555 1_555
H21A C7A 1_555 1_555
C8A N8A 1_555 1_555
H22A C8A 1_555 1_555
H23A C8A 1_555 1_555
H24A C8A 1_555 1_555
C9A N9A 1_555 1_555
H25A C9A 1_555 1_555
H26A C9A 1_555 1_555
H27A C9A 1_555 1_555
C10A N10A 1_555 1_555
H28A C10A 1_555 1_555
H29A C10A 1_555 1_555
H30A C10A 1_555 1_555
C11A N11A 1_555 1_555
H31A C11A 1_555 1_555
H32A C11A 1_555 1_555
H33A C11A 1_555 1_555
C12A N12A 1_555 1_555
H34A C12A 1_555 1_555
H35A C12A 1_555 1_555
H36A C12A 1_555 1_555
Cu2 Cl2 1_555 1_555
P3 N4 1_555 1_555
P4 N5 1_555 1_555
P4 N6 1_555 1_555
P7 N10 1_555 1_555
P8 N11 1_555 1_555
P8 N12 1_555 1_555
Cu2A Cl2A 1_555 1_555
P3A N4A 1_555 1_555
P4A N5A 1_555 1_555
P4A N6A 1_555 1_555
P7A N8A 1_555 1_555
P7A N10A 1_555 1_555
P8A N11A 1_555 1_555
P8A N12A 1_555 1_555

#END
