
#######################################################################
#
#                 Cambridge Crystallographic Data Centre
#                                CCDC 
#
#######################################################################
#
# If this CIF has been generated from an entry in the Cambridge 
# Structural Database, then it will include bibliographic, chemical, 
# crystal, experimental, refinement or atomic coordinate data resulting 
# from the CCDC's data processing and validation procedures.
#
#######################################################################

data_BUXJUA
_symmetry_cell_setting           triclinic
_symmetry_space_group_name_H-M   'P -1'
_symmetry_Int_Tables_number      2
_space_group_name_Hall           '-P 1'
loop_
_symmetry_equiv_pos_site_id
_symmetry_equiv_pos_as_xyz
1 x,y,z
2 -x,-y,-z
_cell_length_a                   10.4833(15)
_cell_length_b                   11.4494(17)
_cell_length_c                   13.690(2)
_cell_angle_alpha                79.570(2)
_cell_angle_beta                 82.829(2)
_cell_angle_gamma                65.931(2)
_cell_volume                     1473.14
loop_
_atom_site_label
_atom_site_type_symbol
_atom_site_fract_x
_atom_site_fract_y
_atom_site_fract_z
Co1 Co 0.47004(7) 0.91773(6) 0.20293(5)
C1 C 0.7172(5) 0.8062(5) 0.1410(4)
C2 C 0.8626(5) 0.7396(5) 0.0993(4)
C3 C 0.9779(5) 0.7155(5) 0.1547(4)
C4 C 1.1159(5) 0.6614(4) 0.1162(3)
C5 C 1.1371(5) 0.6433(5) 0.0132(4)
C6 C 1.2688(6) 0.6128(5) -0.0396(4)
H1 H 1.3470 0.5997 -0.0067
C7 C 1.2820(7) 0.6026(6) -0.1366(4)
H2 H 1.3690 0.5857 -0.1703
C8 C 1.1691(7) 0.6166(7) -0.1889(5)
H3 H 1.1822 0.6065 -0.2558
C9 C 1.0428(7) 0.6445(6) -0.1428(4)
H4 H 0.9682 0.6518 -0.1772
C10 C 1.0214(5) 0.6633(5) -0.0417(4)
C11 C 0.8847(6) 0.7079(5) 0.0061(4)
H5 H 0.8091 0.7155 -0.0273
C12 C 1.2313(5) 0.6299(5) 0.1831(4)
H6 H 1.2098 0.7022 0.2188
H7 H 1.3174 0.6186 0.1429
C13 C 1.3895(5) 0.1474(5) 0.2449(4)
C14 C 1.3295(5) 0.2723(5) 0.2845(4)
C15 C 1.3152(5) 0.3909(5) 0.2220(3)
C16 C 1.2539(5) 0.5083(5) 0.2579(4)
C17 C 1.2142(5) 0.5092(5) 0.3610(4)
C18 C 1.1585(5) 0.6226(6) 0.4081(4)
H8 H 1.1460 0.7024 0.3707
C19 C 1.1234(6) 0.6143(7) 0.5077(4)
H9 H 1.0891 0.6894 0.5370
C20 C 1.1368(6) 0.4981(7) 0.5674(4)
H10 H 1.1100 0.4959 0.6348
C21 C 1.1885(6) 0.3911(7) 0.5264(4)
H11 H 1.1983 0.3135 0.5664
C22 C 1.2295(5) 0.3893(6) 0.4243(4)
C23 C 1.2853(6) 0.2758(5) 0.3822(4)
H12 H 1.2926 0.1988 0.4225
C24 C 0.4419(7) 0.7806(5) 0.4053(4)
H13 H 0.4125 0.8635 0.4214
C25 C 0.4516(7) 0.6791(5) 0.4814(4)
H14 H 0.4283 0.6951 0.5468
C26 C 0.4954(5) 0.5557(4) 0.4603(3)
C27 C 0.5276(5) 0.5395(5) 0.3616(4)
H15 H 0.5575 0.4578 0.3431
C28 C 0.5152(6) 0.6443(5) 0.2907(4)
H16 H 0.5378 0.6311 0.2246
C29 C 0.1668(6) 0.9934(6) 0.1698(4)
H17 H 0.1555 1.0086 0.2355
C30 C 0.0487(6) 1.0171(6) 0.1219(4)
H18 H -0.0393 1.0519 0.1539
C31 C 0.0611(5) 0.9894(4) 0.0277(4)
C32 C 0.1971(5) 0.9421(5) -0.0174(4)
H19 H 0.2114 0.9230 -0.0821
C33 C 0.3080(5) 0.9244(5) 0.0350(4)
H20 H 0.3971 0.8925 0.0040
N1 N 0.4725(4) 0.7635(4) 0.3116(3)
N2 N 0.2963(4) 0.9500(4) 0.1276(3)
O1 O 0.6145(4) 0.8178(4) 0.0974(3)
O2 O 0.6977(4) 0.8514(4) 0.2216(3)
O3 O 0.9591(4) 0.7447(4) 0.2478(3)
H21 H 0.8782 0.7955 0.2573
O4 O 1.4389(4) 0.1418(4) 0.1558(3)
O5 O 1.3897(5) 0.0478(4) 0.2999(3)
O6 O 1.3605(4) 0.3909(3) 0.1249(2)
H22 H 1.3922 0.3168 0.1118
Co1A Co -0.47004(7) 1.08227(6) -0.20293(5)
Co1_2 Co 1.47004(7) -0.08227(6) 0.20293(5)
Co1A_2 Co -1.47004(7) 2.08227(6) -0.20293(5)
Co1A_3 Co 0.52996(7) 0.08227(6) 0.79707(5)
C1A C -0.7172(5) 1.1938(5) -0.1410(4)
C2A C -0.8626(5) 1.2604(5) -0.0993(4)
C3A C -0.9779(5) 1.2845(5) -0.1547(4)
C4A C -1.1159(5) 1.3386(4) -0.1162(3)
C5A C -1.1371(5) 1.3567(5) -0.0132(4)
C6A C -1.2688(6) 1.3872(5) 0.0396(4)
H1A H -1.3470 1.4003 0.0067
C7A C -1.2820(7) 1.3974(6) 0.1366(4)
H2A H -1.3690 1.4143 0.1703
C8A C -1.1691(7) 1.3834(7) 0.1889(5)
H3A H -1.1822 1.3935 0.2558
C9A C -1.0428(7) 1.3555(6) 0.1428(4)
H4A H -0.9682 1.3482 0.1772
C10A C -1.0214(5) 1.3367(5) 0.0417(4)
C11A C -0.8847(6) 1.2921(5) -0.0061(4)
H5A H -0.8091 1.2845 0.0273
C12A C -1.2313(5) 1.3701(5) -0.1831(4)
H6A H -1.2098 1.2978 -0.2188
H7A H -1.3174 1.3814 -0.1429
C13A C -1.3895(5) 1.8526(5) -0.2449(4)
C14A C -1.3295(5) 1.7277(5) -0.2845(4)
C15A C -1.3152(5) 1.6091(5) -0.2220(3)
C16A C -1.2539(5) 1.4917(5) -0.2579(4)
C17A C -1.2142(5) 1.4908(5) -0.3610(4)
C18A C -1.1585(5) 1.3774(6) -0.4081(4)
H8A H -1.1460 1.2976 -0.3707
C19A C -1.1234(6) 1.3857(7) -0.5077(4)
H9A H -1.0891 1.3106 -0.5370
C20A C -1.1368(6) 1.5019(7) -0.5674(4)
H10A H -1.1100 1.5041 -0.6348
C21A C -1.1885(6) 1.6089(7) -0.5264(4)
H11A H -1.1983 1.6865 -0.5664
C22A C -1.2295(5) 1.6107(6) -0.4243(4)
C23A C -1.2853(6) 1.7242(5) -0.3822(4)
H12A H -1.2926 1.8012 -0.4225
C24A C 0.5581(7) 0.2194(5) 0.5947(4)
H13A H 0.5875 0.1365 0.5786
C25A C 0.5484(7) 0.3209(5) 0.5186(4)
H14A H 0.5717 0.3049 0.4532
C26A C 0.5046(5) 0.4443(4) 0.5397(3)
C27A C 0.4724(5) 0.4605(5) 0.6384(4)
H15A H 0.4425 0.5422 0.6569
C28A C 0.4848(6) 0.3557(5) 0.7093(4)
H16A H 0.4622 0.3689 0.7754
C29A C -0.1668(6) 1.0066(6) -0.1698(4)
H17A H -0.1555 0.9914 -0.2355
C30A C -0.0487(6) 0.9829(6) -0.1219(4)
H18A H 0.0393 0.9481 -0.1539
C31A C -0.0611(5) 1.0106(4) -0.0277(4)
C32A C -0.1971(5) 1.0579(5) 0.0174(4)
H19A H -0.2114 1.0770 0.0821
C33A C -0.3080(5) 1.0756(5) -0.0350(4)
H20A H -0.3971 1.1075 -0.0040
N1A N 0.5275(4) 0.2365(4) 0.6884(3)
N1A_2 N -0.4725(4) 1.2365(4) -0.3116(3)
N2A N -0.2963(4) 1.0500(4) -0.1276(3)
O1A O -0.6145(4) 1.1822(4) -0.0974(3)
O2A O -0.6977(4) 1.1486(4) -0.2216(3)
O3A O -0.9591(4) 1.2553(4) -0.2478(3)
H21A H -0.8782 1.2045 -0.2573
O4A O -1.4389(4) 1.8582(4) -0.1558(3)
O4_2 O 0.4389(4) 1.1418(4) 0.1558(3)
O4A_2 O -0.4389(4) 0.8582(4) -0.1558(3)
O5A O -1.3897(5) 1.9522(4) -0.2999(3)
O5_2 O 0.3897(5) 1.0478(4) 0.2999(3)
O5A_2 O -0.3897(5) 0.9522(4) -0.2999(3)
O6A O -1.3605(4) 1.6091(3) -0.1249(2)
H22A H -1.3922 1.6832 -0.1118
O7 O 0.689(2) 0.0366(15) 0.3821(15)
O8? O 0.845(2) 0.031(2) 0.4000(15)
loop_
_geom_bond_atom_site_label_1
_geom_bond_atom_site_label_2
_geom_bond_site_symmetry_1
_geom_bond_site_symmetry_2
Co1 N1 1_555 1_555
C1 C2 1_555 1_555
C2 C3 1_555 1_555
C3 C4 1_555 1_555
C4 C5 1_555 1_555
C5 C6 1_555 1_555
C6 H1 1_555 1_555
C7 C6 1_555 1_555
H2 C7 1_555 1_555
C8 C7 1_555 1_555
H3 C8 1_555 1_555
C9 C8 1_555 1_555
H4 C9 1_555 1_555
C10 C5 1_555 1_555
C11 C2 1_555 1_555
H5 C11 1_555 1_555
C12 C4 1_555 1_555
H6 C12 1_555 1_555
H7 C12 1_555 1_555
C13 C14 1_555 1_555
C14 C15 1_555 1_555
C15 C16 1_555 1_555
C16 C12 1_555 1_555
C17 C16 1_555 1_555
C18 C17 1_555 1_555
H8 C18 1_555 1_555
C19 C18 1_555 1_555
H9 C19 1_555 1_555
C20 C19 1_555 1_555
H10 C20 1_555 1_555
C21 C20 1_555 1_555
H11 C21 1_555 1_555
C22 C17 1_555 1_555
C23 C14 1_555 1_555
H12 C23 1_555 1_555
C24 H13 1_555 1_555
C25 C24 1_555 1_555
H14 C25 1_555 1_555
C26 C25 1_555 1_555
C27 C26 1_555 1_555
H15 C27 1_555 1_555
C28 C27 1_555 1_555
H16 C28 1_555 1_555
C29 H17 1_555 1_555
C30 C29 1_555 1_555
H18 C30 1_555 1_555
C31 C30 1_555 1_555
C32 C31 1_555 1_555
H19 C32 1_555 1_555
C33 C32 1_555 1_555
H20 C33 1_555 1_555
N1 C24 1_555 1_555
N2 Co1 1_555 1_555
O1 Co1 1_555 1_555
O2 Co1 1_555 1_555
O3 C3 1_555 1_555
H21 O3 1_555 1_555
O4 C13 1_555 1_555
O5 C13 1_555 1_555
O6 C15 1_555 1_555
H22 O6 1_555 1_555
Co1A N1A_2 1_555 1_555
Co1_2 O4 1_555 1_555
Co1A_2 O4A 1_555 1_555
Co1A_3 N1A 1_555 1_555
C1A C2A 1_555 1_555
C2A C3A 1_555 1_555
C3A C4A 1_555 1_555
C4A C5A 1_555 1_555
C5A C6A 1_555 1_555
C6A H1A 1_555 1_555
C7A C6A 1_555 1_555
H2A C7A 1_555 1_555
C8A C7A 1_555 1_555
H3A C8A 1_555 1_555
C9A C8A 1_555 1_555
H4A C9A 1_555 1_555
C10A C5A 1_555 1_555
C11A C2A 1_555 1_555
H5A C11A 1_555 1_555
C12A C4A 1_555 1_555
H6A C12A 1_555 1_555
H7A C12A 1_555 1_555
C13A C14A 1_555 1_555
C14A C15A 1_555 1_555
C15A C16A 1_555 1_555
C16A C12A 1_555 1_555
C17A C16A 1_555 1_555
C18A C17A 1_555 1_555
H8A C18A 1_555 1_555
C19A C18A 1_555 1_555
H9A C19A 1_555 1_555
C20A C19A 1_555 1_555
H10A C20A 1_555 1_555
C21A C20A 1_555 1_555
H11A C21A 1_555 1_555
C22A C17A 1_555 1_555
C23A C14A 1_555 1_555
H12A C23A 1_555 1_555
C24A H13A 1_555 1_555
C25A C24A 1_555 1_555
H14A C25A 1_555 1_555
C26A C26 1_555 1_555
C27A C26A 1_555 1_555
H15A C27A 1_555 1_555
C28A C27A 1_555 1_555
H16A C28A 1_555 1_555
C29A H17A 1_555 1_555
C30A C29A 1_555 1_555
H18A C30A 1_555 1_555
C31A C31 1_555 1_555
C32A C31A 1_555 1_555
H19A C32A 1_555 1_555
C33A C32A 1_555 1_555
H20A C33A 1_555 1_555
N1A C24A 1_555 1_555
N2A Co1A 1_555 1_555
O1A Co1A 1_555 1_555
O2A Co1A 1_555 1_555
O3A C3A 1_555 1_555
H21A O3A 1_555 1_555
O4A C13A 1_555 1_555
O4_2 Co1 1_555 1_555
O4A_2 Co1A 1_555 1_555
O5A Co1A_2 1_555 1_555
O5_2 Co1 1_555 1_555
O5A_2 Co1A 1_555 1_555
O6A C15A 1_555 1_555
H22A O6A 1_555 1_555
C1 O1 1_555 1_555
C1 O2 1_555 1_555
C9 C10 1_555 1_555
C10 C11 1_555 1_555
C21 C22 1_555 1_555
C22 C23 1_555 1_555
C28 N1 1_555 1_555
C29 N2 1_555 1_555
C33 N2 1_555 1_555
O5 Co1_2 1_555 1_555
C1A O1A 1_555 1_555
C1A O2A 1_555 1_555
C9A C10A 1_555 1_555
C10A C11A 1_555 1_555
C13A O5A 1_555 1_555
C21A C22A 1_555 1_555
C22A C23A 1_555 1_555
C25A C26A 1_555 1_555
C28A N1A 1_555 1_555
C29A N2A 1_555 1_555
C30A C31A 1_555 1_555
C33A N2A 1_555 1_555

#END
