
#######################################################################
#
#                 Cambridge Crystallographic Data Centre
#                                CCDC 
#
#######################################################################
#
# If this CIF has been generated from an entry in the Cambridge 
# Structural Database, then it will include bibliographic, chemical, 
# crystal, experimental, refinement or atomic coordinate data resulting 
# from the CCDC's data processing and validation procedures.
#
#######################################################################

data_BUXZOK
_symmetry_cell_setting           orthorhombic
_symmetry_space_group_name_H-M   'P n a 21'
_symmetry_Int_Tables_number      33
_space_group_name_Hall           'P 2c -2n'
loop_
_symmetry_equiv_pos_site_id
_symmetry_equiv_pos_as_xyz
1 x,y,z
2 -x,-y,1/2+z
3 1/2+x,1/2-y,z
4 1/2-x,1/2+y,1/2+z
_cell_length_a                   18.097(2)
_cell_length_b                   9.0364(10)
_cell_length_c                   10.8263(12)
_cell_angle_alpha                90
_cell_angle_beta                 90
_cell_angle_gamma                90
_cell_volume                     1770.44
loop_
_atom_site_label
_atom_site_type_symbol
_atom_site_fract_x
_atom_site_fract_y
_atom_site_fract_z
Ag1 Ag 0.95005(4) 0.28518(11) 0.34176(9)
I1 I 0.83301(5) 0.04368(11) 0.30733(11)
N1 N 0.8311(5) 0.4482(10) 0.5038(9)
N2 N 0.8544(5) 0.5677(10) 0.3428(11)
N3 N 0.8820(6) 0.8042(12) -0.1650(12)
N4 N 0.9355(6) 0.8754(11) -0.3296(9)
C1 C 0.9027(12) 0.355(3) 0.6761(19)
H1 H 0.9443 0.3161 0.6314
H2 H 0.8978 0.3032 0.7531
H3 H 0.9102 0.4583 0.6916
C2 C 0.8342(8) 0.3350(15) 0.6016(13)
H4 H 0.8339 0.2372 0.5648
H5 H 0.7912 0.3439 0.6546
C3 C 0.7861(9) 0.5683(15) 0.5065(15)
H6 H 0.7537 0.5933 0.5699
C4 C 0.7962(8) 0.6414(14) 0.4061(15)
H7 H 0.7708 0.7253 0.3802
C5 C 0.8739(6) 0.4481(13) 0.3998(11)
C6 C 0.8853(9) 0.6114(16) 0.2189(13)
H8 H 0.9356 0.5751 0.2124
H9 H 0.8869 0.7185 0.2135
C7 C 0.8406(10) 0.5517(18) 0.1120(17)
H10 H 0.7897 0.5831 0.1221
H11 H 0.8413 0.4444 0.1158
C8 C 0.8674(8) 0.6003(17) -0.0184(16)
H12 H 0.9170 0.5626 -0.0318
H13 H 0.8354 0.5565 -0.0803
C9 C 0.8679(11) 0.755(2) -0.0340(15)
H14 H 0.9057 0.7969 0.0190
H15 H 0.8206 0.7941 -0.0074
C10 C 0.9511(6) 0.8144(15) -0.2155(14)
C11 C 0.8602(8) 0.8956(15) -0.3450(13)
H16 H 0.8368 0.9285 -0.4165
C12 C 0.8285(7) 0.8610(15) -0.2430(14)
H17 H 0.7786 0.8720 -0.2248
C13 C 0.9921(9) 0.9063(19) -0.4212(16)
H18 H 1.0375 0.9333 -0.3794
H19 H 0.9767 0.9901 -0.4709
C14 C 1.0069(15) 0.775(3) -0.505(3)
H20 H 0.9941 0.6889 -0.4585
H21 H 1.0574 0.7687 -0.5315
H22 H 0.9754 0.7825 -0.5763
Ag1A Ag 1.04995(4) 0.71482(11) -0.15824(9)
C10A C 1.0489(6) 0.1856(15) 0.2845(14)
loop_
_geom_bond_atom_site_label_1
_geom_bond_atom_site_label_2
_geom_bond_site_symmetry_1
_geom_bond_site_symmetry_2
Ag1 I1 1_555 1_555
N1 C2 1_555 1_555
N2 C4 1_555 1_555
N3 C9 1_555 1_555
N4 C10 1_555 1_555
C1 H1 1_555 1_555
H2 C1 1_555 1_555
H3 C1 1_555 1_555
C2 C1 1_555 1_555
H4 C2 1_555 1_555
H5 C2 1_555 1_555
C3 N1 1_555 1_555
H6 C3 1_555 1_555
C4 C3 1_555 1_555
H7 C4 1_555 1_555
C5 Ag1 1_555 1_555
C6 N2 1_555 1_555
H8 C6 1_555 1_555
H9 C6 1_555 1_555
C7 C6 1_555 1_555
H10 C7 1_555 1_555
H11 C7 1_555 1_555
C8 C7 1_555 1_555
H12 C8 1_555 1_555
H13 C8 1_555 1_555
C9 C8 1_555 1_555
H14 C9 1_555 1_555
H15 C9 1_555 1_555
C10 N3 1_555 1_555
C11 N4 1_555 1_555
H16 C11 1_555 1_555
C12 N3 1_555 1_555
H17 C12 1_555 1_555
C13 N4 1_555 1_555
H18 C13 1_555 1_555
H19 C13 1_555 1_555
C14 C13 1_555 1_555
H20 C14 1_555 1_555
H21 C14 1_555 1_555
H22 C14 1_555 1_555
Ag1A C10 1_555 1_555
C10A Ag1 1_555 1_555
N1 C5 1_555 1_555
N2 C5 1_555 1_555
C11 C12 1_555 1_555

#END
