
#######################################################################
#
#                 Cambridge Crystallographic Data Centre
#                                CCDC 
#
#######################################################################
#
# If this CIF has been generated from an entry in the Cambridge 
# Structural Database, then it will include bibliographic, chemical, 
# crystal, experimental, refinement or atomic coordinate data resulting 
# from the CCDC's data processing and validation procedures.
#
#######################################################################

data_BUYMAK
_symmetry_cell_setting           tetragonal
_symmetry_space_group_name_H-M   'I 41/a'
_symmetry_Int_Tables_number      88
_space_group_name_Hall           '-I 4ad'
loop_
_symmetry_equiv_pos_site_id
_symmetry_equiv_pos_as_xyz
1 x,y,z
2 1/2-x,-y,1/2+z
3 3/4-y,1/4+x,1/4+z
4 3/4+y,3/4-x,3/4+z
5 1/2+x,1/2+y,1/2+z
6 -x,1/2-y,z
7 1/4-y,3/4+x,3/4+z
8 1/4+y,1/4-x,1/4+z
9 -x,-y,-z
10 1/2+x,y,1/2-z
11 1/4+y,3/4-x,3/4-z
12 1/4-y,1/4+x,1/4-z
13 1/2-x,1/2-y,1/2-z
14 x,1/2+y,-z
15 3/4+y,1/4-x,1/4-z
16 3/4-y,3/4+x,3/4-z
_cell_length_a                   23.7545(17)
_cell_length_b                   23.7545(17)
_cell_length_c                   23.695(4)
_cell_angle_alpha                90
_cell_angle_beta                 90
_cell_angle_gamma                90
_cell_volume                     13370.5
loop_
_atom_site_label
_atom_site_type_symbol
_atom_site_fract_x
_atom_site_fract_y
_atom_site_fract_z
Ag1 Ag 0.38750(3) 0.48294(3) 0.01787(4)
S1 S 0.40082(9) 0.58816(9) -0.00239(11)
S2 S 0.35972(11) 0.68379(10) 0.24915(13)
N1 N 0.3170(3) 0.5746(3) 0.1992(3)
N2 N 0.3443(3) 0.5280(2) 0.0954(3)
C1 C 0.2983(3) 0.5221(3) 0.1859(4)
C2 C 0.3616(3) 0.5787(3) 0.1090(4)
C3 C 0.3720(3) 0.6584(4) 0.1787(4)
H1 H 0.3569 0.6859 0.1525
H2 H 0.4124 0.6569 0.1727
C4 C 0.3128(3) 0.4984(3) 0.1342(4)
C5 C 0.3480(3) 0.6022(3) 0.1640(4)
C6 C 0.2648(4) 0.4914(4) 0.2243(5)
C7 C 0.2959(4) 0.4433(4) 0.1202(5)
C8 C 0.2643(5) 0.4134(4) 0.1607(7)
C9 C 0.3952(3) 0.6129(3) 0.0687(4)
H3 H 0.4330 0.6163 0.0838
H4 H 0.3791 0.6504 0.0677
C10 C 0.2485(5) 0.4387(5) 0.2101(6)
C11 C 0.3353(4) 0.6060(4) -0.0332(5)
C12 C 0.2912(5) 0.6294(4) -0.0037(6)
H5 H 0.2940 0.6377 0.0346
C13 C 0.2344(9) 0.6313(9) -0.0882(11)
H6 H 0.2010 0.6400 -0.1067
C14 C 0.4066(6) 0.6424(4) 0.2916(6)
C15 C 0.2407(7) 0.6401(6) -0.0351(11)
H7 H 0.2100 0.6546 -0.0154
C16 C 0.2770(9) 0.6098(7) -0.1147(9)
H8 H 0.2726 0.6031 -0.1531
C17 C 0.4058(7) 0.6476(5) 0.3504(8)
H9 H 0.3779 0.6704 0.3657
C18 C 0.3311(7) 0.5950(6) -0.0901(7)
H10 H 0.3604 0.5795 -0.1110
C19 C 0.4432(8) 0.6037(6) 0.2707(8)
H11 H 0.4451 0.5975 0.2320
C20 C 0.4417(10) 0.6227(7) 0.3874(9)
H12 H 0.4423 0.6318 0.4256
C21 C 0.4796(8) 0.5719(8) 0.3087(11)
H13 H 0.5042 0.5444 0.2954
C22 C 0.4759(9) 0.5845(9) 0.3649(13)
H14 H 0.4992 0.5647 0.3894
Ag1B Ag 0.26706(3) 0.63750(3) 0.26787(4)
S2C S 0.43379(10) 0.39028(11) -0.00085(13)
N1C N 0.3246(3) 0.4330(3) -0.0508(3)
Cl1 Cl 0.50722(14) 0.49754(16) 0.1290(2)
O2 O 0.4958(7) 0.5544(8) 0.1535(10)
O3 O 0.5687(7) 0.4953(6) 0.1280(8)
O4 O 0.4962(4) 0.5119(6) 0.0709(6)
O5 O 0.4788(13) 0.4606(11) 0.1388(15)
Cl2 Cl 0.5000 0.2500 -0.1250
O1 O 0.5505(4) 0.2585(4) -0.0932(9)
O1E O 0.4495(4) 0.2415(4) -0.0932(9)
O1J O 0.5085(4) 0.1995(4) -0.1568(9)
O1O O 0.4915(4) 0.3005(4) -0.1568(9)
O6 O 0.47596(17) 0.6556(2) -0.0313(3)
loop_
_geom_bond_atom_site_label_1
_geom_bond_atom_site_label_2
_geom_bond_site_symmetry_1
_geom_bond_site_symmetry_2
Ag1 S1 1_555 1_555
S1 C9 1_555 1_555
S2 C3 1_555 1_555
N1 C1 1_555 1_555
N2 Ag1 1_555 1_555
C1 C4 1_555 1_555
C2 N2 1_555 1_555
C3 H1 1_555 1_555
H2 C3 1_555 1_555
C4 N2 1_555 1_555
C5 N1 1_555 1_555
C6 C1 1_555 1_555
C7 C4 1_555 1_555
C8 C7 1_555 1_555
C9 C2 1_555 1_555
H3 C9 1_555 1_555
H4 C9 1_555 1_555
C10 C6 1_555 1_555
C11 S1 1_555 1_555
C12 C11 1_555 1_555
H5 C12 1_555 1_555
C13 H6 1_555 1_555
C14 S2 1_555 1_555
C15 C12 1_555 1_555
H7 C15 1_555 1_555
C16 C13 1_555 1_555
H8 C16 1_555 1_555
C17 C14 1_555 1_555
H9 C17 1_555 1_555
C18 C11 1_555 1_555
H10 C18 1_555 1_555
C19 C14 1_555 1_555
H11 C19 1_555 1_555
Cl1 O2 1_555 1_555
Cl2 O1 1_555 1_555
O3 Cl1 1_555 1_555
O4 Cl1 1_555 1_555
O5 Cl1 1_555 1_555
C20 C17 1_555 1_555
H12 C20 1_555 1_555
C21 C19 1_555 1_555
H13 C21 1_555 1_555
C22 C20 1_555 1_555
H14 C22 1_555 1_555
Ag1B S2 1_555 1_555
S2C Ag1 1_555 1_555
N1C Ag1 1_555 1_555
O1E Cl2 1_555 1_555
O1J Cl2 1_555 1_555
O1O Cl2 1_555 1_555
N1 Ag1B 1_555 1_555
C2 C5 1_555 1_555
C3 C5 1_555 1_555
C8 C10 1_555 1_555
C13 C15 1_555 1_555
C16 C18 1_555 1_555
C21 C22 1_555 1_555

#END
