
#######################################################################
#
#                 Cambridge Crystallographic Data Centre
#                                CCDC 
#
#######################################################################
#
# If this CIF has been generated from an entry in the Cambridge 
# Structural Database, then it will include bibliographic, chemical, 
# crystal, experimental, refinement or atomic coordinate data resulting 
# from the CCDC's data processing and validation procedures.
#
#######################################################################

data_BUYPOB
_symmetry_cell_setting           tetragonal
_symmetry_space_group_name_H-M   'I -4 2 d'
_symmetry_Int_Tables_number      122
_space_group_name_Hall           'I -4 2bw'
loop_
_symmetry_equiv_pos_site_id
_symmetry_equiv_pos_as_xyz
1 x,y,z
2 y,-x,-z
3 -x,-y,z
4 -y,x,-z
5 x,1/2-y,1/4-z
6 1/2-y,-x,3/4+z
7 -x,1/2+y,1/4-z
8 1/2+y,x,3/4+z
9 1/2+x,1/2+y,1/2+z
10 1/2+y,1/2-x,1/2-z
11 1/2-x,1/2-y,1/2+z
12 1/2-y,1/2+x,1/2-z
13 1/2+x,-y,3/4-z
14 -y,1/2-x,1/4+z
15 1/2-x,y,3/4-z
16 y,1/2+x,1/4+z
_cell_length_a                   12.7612(12)
_cell_length_b                   12.7612(12)
_cell_length_c                   26.849(5)
_cell_angle_alpha                90
_cell_angle_beta                 90
_cell_angle_gamma                90
_cell_volume                     4372.31
loop_
_atom_site_label
_atom_site_type_symbol
_atom_site_fract_x
_atom_site_fract_y
_atom_site_fract_z
Mn1 Mn 1.0000 1.0000 0.5000
P1 P 0.84534(12) 0.77377(12) 0.49481(7)
O1 O 0.7426(5) 0.8122(7) 0.4742(3)
O2 O 0.9327(3) 0.8467(3) 0.48893(17)
O3 O 0.8629(7) 0.6699(5) 0.4698(3)
O4 O 0.9684(4) 0.9276(5) 0.5920(3)
O5 O 1.0000 1.0000 0.6601(3)
N1 N 1.0000 1.0000 0.6149(3)
C1 C 0.8122(5) 0.7435(5) 0.5569(2)
H1 H 0.8727 0.7124 0.5730
H2 H 0.7961 0.8082 0.5743
C2 C 0.7196(5) 0.6692(5) 0.5622(2)
C3 C 0.6199(6) 0.7083(5) 0.5646(4)
H3 H 0.6091 0.7803 0.5641
C4 C 0.7317(5) 0.5643(6) 0.5613(3)
H4 H 0.7985 0.5355 0.5590
C5 C 0.6453(5) 0.4999(6) 0.5637(3)
H5 H 0.6560 0.4278 0.5636
C6 C 0.5454(4) 0.5358(4) 0.5661(2)
C7 C 0.5360(5) 0.6417(6) 0.5675(3)
H6 H 0.4694 0.6704 0.5707
C8 C 0.7133(7) 0.8731(8) 0.4402(5)
H7 H 0.7690 0.9209 0.4323
H8 H 0.6531 0.9118 0.4512
H9 H 0.6954 0.8332 0.4112
C9 C 0.9390(9) 0.6294(9) 0.4453(8)
H10 H 0.9477 0.6661 0.4144
H11 H 0.9241 0.5570 0.4387
H12 H 1.0022 0.6346 0.4645
C6B C 0.4546(4) 0.4642(4) 0.5661(2)
C5B C 0.3547(5) 0.5001(6) 0.5637(3)
C4B C 0.2683(5) 0.4357(6) 0.5613(3)
C2B C 0.2804(5) 0.3308(5) 0.5622(2)
C1B C 0.1878(5) 0.2565(5) 0.5569(2)
P1B P 0.15466(12) 0.22623(12) 0.49481(7)
O2B O 0.0673(3) 0.1533(3) 0.48893(17)
O1B O 0.2574(5) 0.1878(7) 0.4742(3)
C8B C 0.2867(7) 0.1269(8) 0.4402(5)
H7B H 0.2310 0.0791 0.4323
H8B H 0.3469 0.0882 0.4512
H9B H 0.3046 0.1668 0.4112
O3B O 0.1371(7) 0.3301(5) 0.4698(3)
C9B C 0.0610(9) 0.3706(9) 0.4453(8)
H10B H 0.0523 0.3339 0.4144
H11B H 0.0759 0.4430 0.4387
H12B H -0.0022 0.3654 0.4645
H1B H 0.1273 0.2876 0.5730
H2B H 0.2039 0.1918 0.5743
C3B C 0.3801(6) 0.2917(5) 0.5646(4)
H3B H 0.3909 0.2197 0.5641
C7B C 0.4640(5) 0.3583(6) 0.5675(3)
H6B H 0.5306 0.3296 0.5707
H4B H 0.2015 0.4645 0.5590
H5B H 0.3440 0.5722 0.5636
O4B O 1.0316(4) 1.0724(5) 0.5920(3)
P1A P 0.77377(12) 1.15466(12) 0.50519(7)
O1A O 0.8122(7) 1.2574(5) 0.5258(3)
O2A O 0.8467(3) 1.0673(3) 0.51107(17)
O3A O 0.6699(5) 1.1371(7) 0.5302(3)
C1A C 0.7435(5) 1.1878(5) 0.4431(2)
H1A H 0.7124 1.1273 0.4270
H2A H 0.8082 1.2039 0.4257
C2A C 0.6692(5) 1.2804(5) 0.4378(2)
C3A C 0.7083(5) 1.3801(6) 0.4354(4)
H3A H 0.7803 1.3909 0.4359
C4A C 0.5643(6) 1.2683(5) 0.4387(3)
H4A H 0.5355 1.2015 0.4410
C5A C 0.4999(6) 1.3547(5) 0.4363(3)
H5A H 0.4278 1.3440 0.4364
C6A C 0.5358(4) 1.4546(4) 0.4339(2)
C7A C 0.6417(6) 1.4640(5) 0.4325(3)
H6A H 0.6704 1.5306 0.4293
C8A C 0.8731(8) 1.2867(7) 0.5598(5)
H7A H 0.9209 1.2310 0.5677
H8A H 0.9118 1.3469 0.5488
H9A H 0.8332 1.3046 0.5888
C9A C 0.6294(9) 1.0610(9) 0.5547(8)
H10A H 0.6661 1.0523 0.5856
H11A H 0.5570 1.0759 0.5613
H12A H 0.6346 0.9978 0.5355
C6C C 0.4642(4) 1.5454(4) 0.4339(2)
C5C C 0.5001(6) 1.6453(5) 0.4363(3)
C4C C 0.4357(6) 1.7317(5) 0.4387(3)
C2C C 0.3308(5) 1.7196(5) 0.4378(2)
C1C C 0.2565(5) 1.8122(5) 0.4431(2)
P1C P 0.22623(12) 1.84534(12) 0.50519(7)
O2C O 0.1533(3) 1.9327(3) 0.51107(17)
O1C O 0.1878(7) 1.7426(5) 0.5258(3)
C8C C 0.1269(8) 1.7133(7) 0.5598(5)
H7C H 0.0791 1.7690 0.5677
H8C H 0.0882 1.6531 0.5488
H9C H 0.1668 1.6954 0.5888
O3C O 0.3301(5) 1.8629(7) 0.5302(3)
C9C C 0.3706(9) 1.9390(9) 0.5547(8)
H10C H 0.3339 1.9477 0.5856
H11C H 0.4430 1.9241 0.5613
H12C H 0.3654 2.0022 0.5355
H1C H 0.2876 1.8727 0.4270
H2C H 0.1918 1.7961 0.4257
C3C C 0.2917(5) 1.6199(6) 0.4354(4)
H3C H 0.2197 1.6091 0.4359
C7C C 0.3583(6) 1.5360(5) 0.4325(3)
H6C H 0.3296 1.4694 0.4293
H4C H 0.4645 1.7985 0.4410
H5C H 0.5722 1.6560 0.4364
O4A O 0.9276(5) 1.0316(4) 0.4080(3)
O5A O 1.0000 1.0000 0.3399(3)
N1A N 1.0000 1.0000 0.3851(3)
O4C O 1.0724(5) 0.9684(4) 0.4080(3)
O2B_2 O 1.0673(3) 1.1533(3) 0.48893(17)
O2C_2 O 1.1533(3) 0.9327(3) 0.51107(17)
Mn1B Mn 0.0000 0.0000 0.5000
Mn1C Mn 0.0000 2.0000 0.5000
loop_
_geom_bond_atom_site_label_1
_geom_bond_atom_site_label_2
_geom_bond_site_symmetry_1
_geom_bond_site_symmetry_2
Mn1 O2 1_555 1_555
P1 O1 1_555 1_555
O1 C8 1_555 1_555
O2 P1 1_555 1_555
O3 P1 1_555 1_555
O4 Mn1 1_555 1_555
O5 N1 1_555 1_555
N1 O4 1_555 1_555
C1 P1 1_555 1_555
H1 C1 1_555 1_555
H2 C1 1_555 1_555
C2 C1 1_555 1_555
C3 C2 1_555 1_555
H3 C3 1_555 1_555
C4 C2 1_555 1_555
H4 C4 1_555 1_555
C5 C4 1_555 1_555
H5 C5 1_555 1_555
C6 C5 1_555 1_555
C7 C3 1_555 1_555
H6 C7 1_555 1_555
C8 H7 1_555 1_555
H8 C8 1_555 1_555
H9 C8 1_555 1_555
C9 O3 1_555 1_555
H10 C9 1_555 1_555
H11 C9 1_555 1_555
H12 C9 1_555 1_555
C6B C6 1_555 1_555
C5B C6B 1_555 1_555
C4B C5B 1_555 1_555
C2B C4B 1_555 1_555
C1B C2B 1_555 1_555
P1B C1B 1_555 1_555
O2B P1B 1_555 1_555
O1B P1B 1_555 1_555
C8B O1B 1_555 1_555
H7B C8B 1_555 1_555
H8B C8B 1_555 1_555
H9B C8B 1_555 1_555
O3B P1B 1_555 1_555
C9B O3B 1_555 1_555
H10B C9B 1_555 1_555
H11B C9B 1_555 1_555
H12B C9B 1_555 1_555
H1B C1B 1_555 1_555
H2B C1B 1_555 1_555
C3B C2B 1_555 1_555
H3B C3B 1_555 1_555
C7B C6B 1_555 1_555
H6B C7B 1_555 1_555
H4B C4B 1_555 1_555
H5B C5B 1_555 1_555
O4B Mn1 1_555 1_555
P1A O1A 1_555 1_555
O1A C8A 1_555 1_555
O2A Mn1 1_555 1_555
O3A P1A 1_555 1_555
C1A P1A 1_555 1_555
H1A C1A 1_555 1_555
H2A C1A 1_555 1_555
C2A C1A 1_555 1_555
C3A C2A 1_555 1_555
H3A C3A 1_555 1_555
C4A C2A 1_555 1_555
H4A C4A 1_555 1_555
C5A C4A 1_555 1_555
H5A C5A 1_555 1_555
C6A C5A 1_555 1_555
C7A C3A 1_555 1_555
H6A C7A 1_555 1_555
C8A H7A 1_555 1_555
H8A C8A 1_555 1_555
H9A C8A 1_555 1_555
C9A O3A 1_555 1_555
H10A C9A 1_555 1_555
H11A C9A 1_555 1_555
H12A C9A 1_555 1_555
C6C C6A 1_555 1_555
C5C C6C 1_555 1_555
C4C C5C 1_555 1_555
C2C C4C 1_555 1_555
C1C C2C 1_555 1_555
P1C C1C 1_555 1_555
O2C P1C 1_555 1_555
O1C P1C 1_555 1_555
C8C O1C 1_555 1_555
H7C C8C 1_555 1_555
H8C C8C 1_555 1_555
H9C C8C 1_555 1_555
O3C P1C 1_555 1_555
C9C O3C 1_555 1_555
H10C C9C 1_555 1_555
H11C C9C 1_555 1_555
H12C C9C 1_555 1_555
H1C C1C 1_555 1_555
H2C C1C 1_555 1_555
C3C C2C 1_555 1_555
H3C C3C 1_555 1_555
C7C C6C 1_555 1_555
H6C C7C 1_555 1_555
H4C C4C 1_555 1_555
H5C C5C 1_555 1_555
O4A Mn1 1_555 1_555
O5A N1A 1_555 1_555
N1A O4A 1_555 1_555
O4C Mn1 1_555 1_555
O2B_2 Mn1 1_555 1_555
O2C_2 Mn1 1_555 1_555
Mn1B O2B 1_555 1_555
Mn1C O2C 1_555 1_555
N1 O4B 1_555 1_555
C6 C7 1_555 1_555
C3B C7B 1_555 1_555
P1A O2A 1_555 1_555
C6A C7A 1_555 1_555
C3C C7C 1_555 1_555
N1A O4C 1_555 1_555

#END
