
#######################################################################
#
#                 Cambridge Crystallographic Data Centre
#                                CCDC 
#
#######################################################################
#
# If this CIF has been generated from an entry in the Cambridge 
# Structural Database, then it will include bibliographic, chemical, 
# crystal, experimental, refinement or atomic coordinate data resulting 
# from the CCDC's data processing and validation procedures.
#
#######################################################################

data_BUYVAT
_symmetry_cell_setting           monoclinic
_symmetry_space_group_name_H-M   'C 2/c'
_symmetry_Int_Tables_number      15
_space_group_name_Hall           '-C 2yn'
loop_
_symmetry_equiv_pos_site_id
_symmetry_equiv_pos_as_xyz
1 x,y,z
2 -x,y,1/2-z
3 1/2+x,1/2+y,z
4 1/2-x,1/2+y,1/2-z
5 -x,-y,-z
6 x,-y,1/2+z
7 1/2-x,1/2-y,-z
8 1/2+x,1/2-y,1/2+z
_cell_length_a                   26.4925(6)
_cell_length_b                   9.9266(2)
_cell_length_c                   19.4519(4)
_cell_angle_alpha                90
_cell_angle_beta                 104.670(2)
_cell_angle_gamma                90
_cell_volume                     4948.71
loop_
_atom_site_label
_atom_site_type_symbol
_atom_site_fract_x
_atom_site_fract_y
_atom_site_fract_z
Sn1 Sn 0.258870(4) 0.723736(12) 0.798836(5)
S1 S 0.381038(17) 0.37895(5) 0.95591(2)
O1 O 0.29505(4) 0.55193(11) 0.86447(6)
O2 O 0.26909(4) 0.40903(11) 0.77515(6)
C1 C 0.29868(6) 0.44103(17) 0.83390(8)
C2 C 0.34215(7) 0.34517(18) 0.86747(9)
H1 H 0.3661 0.3401 0.8359
H2 H 0.3266 0.2546 0.8678
C3 C 0.42085(7) 0.51421(18) 0.94090(8)
C4 C 0.41428(7) 0.64056(18) 0.96897(9)
C5 C 0.44503(8) 0.7461(2) 0.95566(11)
H3 H 0.4415 0.8323 0.9751
C6 C 0.48047(8) 0.7299(2) 0.91536(12)
C7 C 0.48743(7) 0.6030(2) 0.89081(10)
H4 H 0.5126 0.5904 0.8643
C8 C 0.45880(7) 0.4929(2) 0.90358(9)
C9 C 0.37627(8) 0.6640(2) 1.01285(9)
H5 H 0.3412 0.638 0.9856
H6 H 0.3764 0.7597 1.0254
H7 H 0.3863 0.6098 1.0563
C10 C 0.51184(10) 0.8488(3) 0.89965(16)
H8 H 0.5483 0.8392 0.9265
H9 H 0.4975 0.9325 0.9136
H10 H 0.5099 0.8514 0.8487
C11 C 0.47030(8) 0.3567(2) 0.87768(11)
H11 H 0.463 0.2871 0.9096
H12 H 0.5071 0.3522 0.8769
H13 H 0.4483 0.3419 0.8296
C12 C 0.30787(6) 0.68472(16) 0.72999(8)
C13 C 0.36145(7) 0.67066(18) 0.76021(8)
H14 H 0.3747 0.6765 0.8103
C14 C 0.39524(7) 0.64823(18) 0.71762(9)
H15 H 0.4316 0.6396 0.7386
C15 C 0.37638(7) 0.63830(17) 0.64472(9)
H16 H 0.3997 0.6238 0.6156
C16 C 0.32358(7) 0.64950(18) 0.61452(9)
H17 H 0.3105 0.6414 0.5645
C17 C 0.28965(7) 0.67254(18) 0.65673(8)
H18 H 0.2533 0.6802 0.6353
C18 C 0.28849(7) 0.86132(16) 0.88294(8)
C19 C 0.26359(7) 0.87302(18) 0.93772(9)
H19 H 0.2332 0.8213 0.9362
C20 C 0.28266(8) 0.95927(19) 0.99436(9)
H20 H 0.2652 0.9669 1.0312
C21 C 0.32694(8) 1.0339(2) 0.99721(10)
H21 H 0.3402 1.0925 1.0362
C22 C 0.35209(8) 1.02341(19) 0.94316(10)
H22 H 0.3825 1.0753 0.9449
C23 C 0.33297(7) 0.93754(17) 0.88652(9)
H23 H 0.3505 0.9307 0.8497
C24 C 0.18051(6) 0.67713(18) 0.79709(8)
C25 C 0.16124(7) 0.54699(19) 0.79701(9)
H24 H 0.1832 0.4723 0.7947
C26 C 0.11027(7) 0.5254(2) 0.80034(10)
H25 H 0.0973 0.436 0.7995
C27 C 0.07821(7) 0.6325(2) 0.80489(10)
H26 H 0.0433 0.6172 0.8073
C28 C 0.09712(7) 0.76197(19) 0.80590(9)
H27 H 0.0752 0.8362 0.8092
C29 C 0.14762(7) 0.78424(18) 0.80212(8)
H28 H 0.1602 0.874 0.803
Sn1C Sn 0.241130(4) 0.223736(12) 0.701164(5)
O2C O 0.23091(4) 0.90903(11) 0.72485(6)
loop_
_geom_bond_atom_site_label_1
_geom_bond_atom_site_label_2
_geom_bond_site_symmetry_1
_geom_bond_site_symmetry_2
Sn1 O1 1_555 1_555
S1 C2 1_555 1_555
O1 C1 1_555 1_555
O2 C1 1_555 1_555
C1 C2 1_555 1_555
C2 H1 1_555 1_555
H2 C2 1_555 1_555
C3 S1 1_555 1_555
C4 C3 1_555 1_555
C5 C4 1_555 1_555
H3 C5 1_555 1_555
C6 C5 1_555 1_555
C7 C6 1_555 1_555
H4 C7 1_555 1_555
C8 C3 1_555 1_555
C9 C4 1_555 1_555
H5 C9 1_555 1_555
H6 C9 1_555 1_555
H7 C9 1_555 1_555
C10 C6 1_555 1_555
H8 C10 1_555 1_555
H9 C10 1_555 1_555
H10 C10 1_555 1_555
C11 C8 1_555 1_555
H11 C11 1_555 1_555
H12 C11 1_555 1_555
H13 C11 1_555 1_555
C12 Sn1 1_555 1_555
C13 C12 1_555 1_555
H14 C13 1_555 1_555
C14 C13 1_555 1_555
H15 C14 1_555 1_555
C15 C14 1_555 1_555
H16 C15 1_555 1_555
C16 C15 1_555 1_555
H17 C16 1_555 1_555
C17 C12 1_555 1_555
H18 C17 1_555 1_555
C18 Sn1 1_555 1_555
C19 C18 1_555 1_555
H19 C19 1_555 1_555
C20 C19 1_555 1_555
H20 C20 1_555 1_555
C21 C20 1_555 1_555
H21 C21 1_555 1_555
C22 C21 1_555 1_555
H22 C22 1_555 1_555
C23 C18 1_555 1_555
H23 C23 1_555 1_555
C24 Sn1 1_555 1_555
C25 C24 1_555 1_555
H24 C25 1_555 1_555
C26 C25 1_555 1_555
H25 C26 1_555 1_555
C27 C26 1_555 1_555
H26 C27 1_555 1_555
C28 C27 1_555 1_555
H27 C28 1_555 1_555
C29 C24 1_555 1_555
H28 C29 1_555 1_555
Sn1C O2 1_555 1_555
O2C Sn1 1_555 1_555
C7 C8 1_555 1_555
C16 C17 1_555 1_555
C22 C23 1_555 1_555
C28 C29 1_555 1_555

#END
