
#######################################################################
#
#                 Cambridge Crystallographic Data Centre
#                                CCDC 
#
#######################################################################
#
# If this CIF has been generated from an entry in the Cambridge 
# Structural Database, then it will include bibliographic, chemical, 
# crystal, experimental, refinement or atomic coordinate data resulting 
# from the CCDC's data processing and validation procedures.
#
#######################################################################

data_BUYYIE
_symmetry_cell_setting           hexagonal
_symmetry_space_group_name_H-M   'P 64 2 2'
_symmetry_Int_Tables_number      181
_space_group_name_Hall           "P 64 2' (0,0,2)"
loop_
_symmetry_equiv_pos_site_id
_symmetry_equiv_pos_as_xyz
1 x,y,z
2 -x,-y,z
3 -y,-x,1/3-z
4 y,x,1/3-z
5 x-y,-y,-z
6 -x+y,y,-z
7 x,x-y,2/3-z
8 -x,-x+y,2/3-z
9 -y,x-y,1/3+z
10 y,-x+y,1/3+z
11 x-y,x,2/3+z
12 -x+y,-x,2/3+z
_cell_length_a                   11.6685(5)
_cell_length_b                   11.6685(5)
_cell_length_c                   18.765(1)
_cell_angle_alpha                90
_cell_angle_beta                 90
_cell_angle_gamma                120
_cell_volume                     2212.63
loop_
_atom_site_label
_atom_site_type_symbol
_atom_site_fract_x
_atom_site_fract_y
_atom_site_fract_z
Zn1 Zn 1.0000 1.0000 0.3333
O1 O 1.1430(3) 1.0825(3) 0.41128(14)
H1 H 1.2099 1.0773 0.4192
H2 H 1.1446 1.1356 0.4382
N1 N 1.0000 1.1927(2) 0.3333
C1 C 0.8908(3) 1.1989(3) 0.34664(18)
H6 H 0.8130 1.1200 0.3558
C2 C 0.8857(3) 1.3154(3) 0.34769(17)
H7 H 0.8066 1.3131 0.3579
C3 C 1.0000 1.4361(3) 0.3333
Zn1_2 Zn 1.0000 2.0000 0.3333
O1A O 0.8570(3) 0.9175(3) 0.41128(14)
O1F O 1.1430(3) 1.0605(4) 0.25539(14)
O1G O 0.8570(3) 0.9395(4) 0.25539(14)
H1A H 0.7901 0.9227 0.4192
H1F H 1.2099 1.1326 0.2475
H1G H 0.7901 0.8674 0.2475
H2A H 0.8554 0.8644 0.4382
H2F H 1.1446 1.0090 0.2285
H2G H 0.8554 0.9910 0.2285
N1A N 1.0000 1.8073(2) 0.3333
N1A_2 N 1.0000 0.8073(2) 0.3333
C1A C 1.1092(3) 1.8011(3) 0.34664(18)
C1F C 0.8908(3) 1.6919(4) 0.32003(18)
C1G C 1.1092(3) 1.3081(4) 0.32003(18)
H6A H 1.1870 1.8800 0.3558
H6F H 0.8130 1.6930 0.3109
H6G H 1.1870 1.3070 0.3109
C2A C 1.1143(3) 1.6846(3) 0.34769(17)
C2F C 0.8857(3) 1.5703(4) 0.31898(17)
C2G C 1.1143(3) 1.4297(4) 0.31898(17)
H7A H 1.1934 1.6869 0.3579
H7F H 0.8066 1.4935 0.3088
H7G H 1.1934 1.5065 0.3088
C3A C 1.0000 1.5639(3) 0.3333
O2 O 1.13372(12) 1.2674(2) 0.5000
O3 O 1.5165(2) 1.6531(2) 0.45700(16)
N2 N 1.3247(2) 1.4623(2) 0.48062(13)
C4 C 1.19542(18) 1.3908(4) 0.5000
C5 C 1.3982(3) 1.6003(3) 0.47843(16)
C6 C 1.3339(2) 1.6678(4) 0.5000
H8 H 1.3799 1.7598 0.5000
H9 H 1.365(3) 1.420(3) 0.4684(16)
O3E O 1.1366(3) 1.6531(2) 0.54300(16)
N2E N 1.1376(3) 1.4623(2) 0.51938(13)
C5E C 1.2021(4) 1.6003(3) 0.52157(16)
H9E H 1.055(4) 1.420(3) 0.5316(16)
O4 O 1.3652(3) 1.0792(3) 0.4408(2)
H3 H 1.4188 1.0685 0.4146
H4 H 1.3980 1.1587 0.4550
O5 O 1.5000 1.0000 0.3548(3)
H5 H 1.5627 1.0241 0.3278
H5A H 1.4373 0.9759 0.3278
loop_
_geom_bond_atom_site_label_1
_geom_bond_atom_site_label_2
_geom_bond_site_symmetry_1
_geom_bond_site_symmetry_2
Zn1 O1 1_555 1_555
O1 H1 1_555 1_555
H2 O1 1_555 1_555
O2 C4 1_555 1_555
O3 C5 1_555 1_555
O4 H3 1_555 1_555
H4 O4 1_555 1_555
O5 H5 1_555 1_555
N1 Zn1 1_555 1_555
N2 C4 1_555 1_555
C1 N1 1_555 1_555
H6 C1 1_555 1_555
C2 C1 1_555 1_555
H7 C2 1_555 1_555
C3 C2 1_555 1_555
C4 N2E 1_555 1_555
C5 N2 1_555 1_555
C6 C5 1_555 1_555
H8 C6 1_555 1_555
H9 N2 1_555 1_555
Zn1_2 N1A 1_555 1_555
O1A Zn1 1_555 1_555
O1F Zn1 1_555 1_555
O1G Zn1 1_555 1_555
H1A O1A 1_555 1_555
H1F O1F 1_555 1_555
H1G O1G 1_555 1_555
H2A O1A 1_555 1_555
H2F O1F 1_555 1_555
H2G O1G 1_555 1_555
O3E C5E 1_555 1_555
H5A O5 1_555 1_555
N1A C1A 1_555 1_555
N1A_2 Zn1 1_555 1_555
N2E C5E 1_555 1_555
C1A H6A 1_555 1_555
C1F N1A 1_555 1_555
C1G N1 1_555 1_555
H6F C1F 1_555 1_555
H6G C1G 1_555 1_555
C2A C1A 1_555 1_555
C2F C1F 1_555 1_555
C2G C3 1_555 1_555
H7A C2A 1_555 1_555
H7F C2F 1_555 1_555
H7G C2G 1_555 1_555
C3A C3 1_555 1_555
C5E C6 1_555 1_555
H9E N2E 1_555 1_555
C1G C2G 1_555 1_555
C2A C3A 1_555 1_555
C2F C3A 1_555 1_555

#END
