
#######################################################################
#
#                 Cambridge Crystallographic Data Centre
#                                CCDC 
#
#######################################################################
#
# If this CIF has been generated from an entry in the Cambridge 
# Structural Database, then it will include bibliographic, chemical, 
# crystal, experimental, refinement or atomic coordinate data resulting 
# from the CCDC's data processing and validation procedures.
#
#######################################################################

data_BUZCAB
_symmetry_cell_setting           tetragonal
_symmetry_space_group_name_H-M   'I 41 c d'
_symmetry_Int_Tables_number      110
_space_group_name_Hall           'I 4bw -2c'
loop_
_symmetry_equiv_pos_site_id
_symmetry_equiv_pos_as_xyz
1 x,y,z
2 1/2-x,1/2-y,1/2+z
3 -y,1/2+x,1/4+z
4 1/2+y,-x,3/4+z
5 x,-y,1/2+z
6 1/2-x,1/2+y,z
7 -y,1/2-x,3/4+z
8 1/2+y,x,1/4+z
9 1/2+x,1/2+y,1/2+z
10 -x,-y,z
11 1/2-y,x,3/4+z
12 y,1/2-x,1/4+z
13 1/2+x,1/2-y,z
14 -x,y,1/2+z
15 1/2-y,-x,1/4+z
16 y,1/2+x,3/4+z
_cell_length_a                   18.5691(7)
_cell_length_b                   18.5691(7)
_cell_length_c                   18.8438(15)
_cell_angle_alpha                90
_cell_angle_beta                 90
_cell_angle_gamma                90
_cell_volume                     6497.56
loop_
_atom_site_label
_atom_site_type_symbol
_atom_site_fract_x
_atom_site_fract_y
_atom_site_fract_z
Cu1 Cu 0.0000 0.5000 0.64208(4)
O1 O 0.0000 0.5000 0.5006(3)
H1 H -0.025(3) 0.476(3) 0.479(3)
O2 O 0.0000 0.5000 0.7643(3)
H2 H -0.022(3) 0.519(3) 0.795(3)
C1 C 0.15169(18) 0.84967(19) 0.6389(3)
H3 H 0.1767 0.8222 0.6012
H4 H 0.1711 0.8337 0.6852
N1 N 0.02201(15) 0.60694(15) 0.63912(15)
C2 C 0.07144(18) 0.83353(18) 0.6359(2)
H5 H 0.0475 0.8569 0.6767
H6 H 0.0512 0.8548 0.5920
C3 C 0.05450(17) 0.75410(17) 0.63706(19)
C4 C 0.08919(18) 0.70565(19) 0.59243(19)
H7 H 0.1250 0.7223 0.5604
C5 C 0.07186(19) 0.63338(18) 0.59445(18)
H8 H 0.0960 0.6013 0.5632
C6 C 0.00277(16) 0.72630(19) 0.68257(19)
H9 H -0.0224 0.7575 0.7139
C7 C -0.01222(18) 0.65327(19) 0.68252(19)
H10 H -0.0478 0.6353 0.7141
N2 N 0.39375(15) 0.97768(15) 0.63733(15)
C8 C 0.16682(19) 0.92976(18) 0.6292(2)
H11 H 0.1476 0.9456 0.5828
H12 H 0.1414 0.9572 0.6667
C9 C 0.24614(18) 0.94657(18) 0.63264(19)
C10 C 0.2742(2) 0.99313(19) 0.6830(2)
H13 H 0.2434 1.0155 0.7167
C11 C 0.3476(2) 1.00686(19) 0.6837(2)
H14 H 0.3661 1.0385 0.7189
C12 C 0.29424(18) 0.91598(18) 0.5848(2)
H15 H 0.2771 0.8837 0.5495
C13 C 0.36661(18) 0.93219(18) 0.58821(18)
H16 H 0.3984 0.9107 0.5549
Cu1E Cu 0.5000 1.0000 0.64208(4)
Cu1E_2 Cu -0.5000 0.0000 0.64208(4)
H1I H 0.025(3) 0.524(3) 0.479(3)
H2I H 0.022(3) 0.481(3) 0.795(3)
C1I C -0.15169(18) 0.15033(19) 0.6389(3)
H3I H -0.1767 0.1778 0.6012
H4I H -0.1711 0.1663 0.6852
N1I N -0.02201(15) 0.39306(15) 0.63912(15)
C2I C -0.07144(18) 0.16647(18) 0.6359(2)
H5I H -0.0475 0.1431 0.6767
H6I H -0.0512 0.1452 0.5920
C3I C -0.05450(17) 0.24590(17) 0.63706(19)
C4I C -0.08919(18) 0.29435(19) 0.59243(19)
H7I H -0.1250 0.2777 0.5604
C5I C -0.07186(19) 0.36662(18) 0.59445(18)
H8I H -0.0960 0.3987 0.5632
C6I C -0.00277(16) 0.27370(19) 0.68257(19)
H9I H 0.0224 0.2425 0.7139
C7I C 0.01222(18) 0.34673(19) 0.68252(19)
H10I H 0.0478 0.3647 0.7141
N2I N -0.39375(15) 0.02232(15) 0.63733(15)
N2E N 0.10625(15) 0.47768(15) 0.63733(15)
N2L N -0.10625(15) 0.52232(15) 0.63733(15)
C8I C -0.16682(19) 0.07024(18) 0.6292(2)
H11I H -0.1476 0.0544 0.5828
H12I H -0.1414 0.0428 0.6667
C9I C -0.24614(18) 0.05343(18) 0.63264(19)
C10I C -0.2742(2) 0.00687(19) 0.6830(2)
H13I H -0.2434 -0.0155 0.7167
C11I C -0.3476(2) -0.00686(19) 0.6837(2)
H14I H -0.3661 -0.0385 0.7189
C12I C -0.29424(18) 0.08402(18) 0.5848(2)
H15I H -0.2771 0.1163 0.5495
C13I C -0.36661(18) 0.06781(18) 0.58821(18)
H16I H -0.3984 0.0893 0.5549
O3 O 0.10053(15) 0.40408(15) 0.93721(15)
O4 O 0.09902(16) 0.41125(15) 0.81906(16)
C14 C 0.11836(19) 0.3869(2) 0.8771(2)
C15 C 0.1721(2) 0.3253(2) 0.87116(17)
F1 F 0.1708(5) 0.2755(4) 0.9244(4)
F2 F 0.2407(3) 0.3452(6) 0.8618(6)
F3 F 0.1602(7) 0.2786(5) 0.8169(5)
F4? F 0.2311(4) 0.3506(5) 0.8343(6)
F5? F 0.1400(5) 0.2727(5) 0.8286(6)
F6? F 0.1915(5) 0.2957(5) 0.9345(3)
F7? F 0.2164(5) 0.3223(5) 0.9295(4)
F8? F 0.1460(6) 0.2602(4) 0.8553(7)
F9? F 0.2253(5) 0.3311(7) 0.8229(5)
loop_
_geom_bond_atom_site_label_1
_geom_bond_atom_site_label_2
_geom_bond_site_symmetry_1
_geom_bond_site_symmetry_2
Cu1 O1 1_555 1_555
O1 H1 1_555 1_555
O2 Cu1 1_555 1_555
H2 O2 1_555 1_555
C1 H3 1_555 1_555
H4 C1 1_555 1_555
N1 Cu1 1_555 1_555
C2 C1 1_555 1_555
H5 C2 1_555 1_555
H6 C2 1_555 1_555
C3 C2 1_555 1_555
C4 C3 1_555 1_555
H7 C4 1_555 1_555
C5 N1 1_555 1_555
H8 C5 1_555 1_555
C6 C3 1_555 1_555
H9 C6 1_555 1_555
C7 N1 1_555 1_555
H10 C7 1_555 1_555
N2 C11 1_555 1_555
C8 C1 1_555 1_555
H11 C8 1_555 1_555
H12 C8 1_555 1_555
C9 C8 1_555 1_555
C10 C9 1_555 1_555
H13 C10 1_555 1_555
C11 C10 1_555 1_555
H14 C11 1_555 1_555
C12 C9 1_555 1_555
H15 C12 1_555 1_555
C13 N2 1_555 1_555
H16 C13 1_555 1_555
O3 C14 1_555 1_555
O4 C14 1_555 1_555
C14 C15 1_555 1_555
C15 F1 1_555 1_555
F2 C15 1_555 1_555
F3 C15 1_555 1_555
Cu1E N2 1_555 1_555
Cu1E_2 N2I 1_555 1_555
H1I O1 1_555 1_555
H2I O2 1_555 1_555
C1I H3I 1_555 1_555
H4I C1I 1_555 1_555
N1I Cu1 1_555 1_555
C2I C1I 1_555 1_555
H5I C2I 1_555 1_555
H6I C2I 1_555 1_555
C3I C2I 1_555 1_555
C4I C3I 1_555 1_555
H7I C4I 1_555 1_555
C5I N1I 1_555 1_555
H8I C5I 1_555 1_555
C6I C3I 1_555 1_555
H9I C6I 1_555 1_555
C7I N1I 1_555 1_555
H10I C7I 1_555 1_555
N2I C11I 1_555 1_555
N2E Cu1 1_555 1_555
N2L Cu1 1_555 1_555
C8I C1I 1_555 1_555
H11I C8I 1_555 1_555
H12I C8I 1_555 1_555
C9I C8I 1_555 1_555
C10I C9I 1_555 1_555
H13I C10I 1_555 1_555
C11I C10I 1_555 1_555
H14I C11I 1_555 1_555
C12I C9I 1_555 1_555
H15I C12I 1_555 1_555
C13I N2I 1_555 1_555
H16I C13I 1_555 1_555
C4 C5 1_555 1_555
C6 C7 1_555 1_555
C12 C13 1_555 1_555
C4I C5I 1_555 1_555
C6I C7I 1_555 1_555
C12I C13I 1_555 1_555

#END
