
#######################################################################
#
#                 Cambridge Crystallographic Data Centre
#                                CCDC 
#
#######################################################################
#
# If this CIF has been generated from an entry in the Cambridge 
# Structural Database, then it will include bibliographic, chemical, 
# crystal, experimental, refinement or atomic coordinate data resulting 
# from the CCDC's data processing and validation procedures.
#
#######################################################################

data_BUZDEG
_symmetry_cell_setting           monoclinic
_symmetry_space_group_name_H-M   'P 21/c'
_symmetry_Int_Tables_number      14
_space_group_name_Hall           '-P 2ybc'
loop_
_symmetry_equiv_pos_site_id
_symmetry_equiv_pos_as_xyz
1 x,y,z
2 -x,1/2+y,1/2-z
3 -x,-y,-z
4 x,1/2-y,1/2+z
_cell_length_a                   9.2221(14)
_cell_length_b                   13.883(2)
_cell_length_c                   23.664(4)
_cell_angle_alpha                90
_cell_angle_beta                 95.229(2)
_cell_angle_gamma                90
_cell_volume                     3017.1
loop_
_atom_site_label
_atom_site_type_symbol
_atom_site_fract_x
_atom_site_fract_y
_atom_site_fract_z
Er1 Er 0.48158(5) 0.84510(4) 0.16466(2)
Er2 Er 0.99138(5) 0.60052(4) 0.25331(2)
N1 N 0.5076(9) 0.8533(7) 0.2697(4)
N2 N 0.5444(14) 0.8706(10) 0.3868(5)
N3 N 0.4865(10) 0.9952(7) 0.1103(4)
N4 N 0.5032(14) 1.1583(9) 0.0429(6)
N5 N 0.4476(10) 0.6928(7) 0.1127(4)
N6 N 0.3461(14) 0.5606(9) 0.0321(5)
O1 O 0.6596(9) 0.7421(6) 0.2111(4)
O2 O 0.8028(9) 0.6947(6) 0.2858(4)
O3 O 0.3228(9) 0.9544(6) 0.2061(4)
O4 O 0.2145(9) 1.0122(6) 0.2801(4)
O5 O 0.6730(9) 0.9552(6) 0.1959(4)
O6 O 0.7953(8) 1.0918(6) 0.1858(4)
O7 O 0.2879(9) 0.8643(7) 0.0924(4)
O8 O 0.1805(11) 0.9400(8) 0.0161(4)
O9 O 0.6488(9) 0.8195(6) 0.0959(4)
O10 O 0.7404(10) 0.7232(7) 0.0318(4)
O11 O 0.3035(9) 0.7391(6) 0.1987(4)
O12 O 0.1692(9) 0.6044(6) 0.1894(4)
C1 C 0.6096(12) 0.8027(9) 0.2996(5)
C2 C 0.6302(15) 0.8125(10) 0.3581(5)
H1 H 0.7049 0.7784 0.3782
C3 C 0.4383(15) 0.9183(11) 0.3556(6)
H2 H 0.3749 0.9572 0.3738
C4 C 0.4207(12) 0.9108(8) 0.2961(5)
C5 C 0.6993(12) 0.7390(9) 0.2639(5)
C6 C 0.3096(12) 0.9624(8) 0.2578(5)
C7 C 0.5908(13) 1.0593(8) 0.1209(5)
C8 C 0.6010(15) 1.1408(10) 0.0868(6)
H3 H 0.6775 1.1836 0.0949
C9 C 0.3963(16) 1.0920(10) 0.0333(6)
H4 H 0.3258 1.1020 0.0032
C10 C 0.3868(13) 1.0106(9) 0.0659(5)
C11 C 0.6951(12) 1.0351(8) 0.1716(5)
C12 C 0.2748(13) 0.9325(9) 0.0568(5)
C13 C 0.5172(13) 0.6799(8) 0.0669(5)
C14 C 0.4647(16) 0.6130(10) 0.0264(6)
H5 H 0.5141 0.6045 -0.0058
C15 C 0.2842(15) 0.5716(10) 0.0802(6)
H6 H 0.2050 0.5330 0.0867
C16 C 0.3329(12) 0.6382(8) 0.1207(5)
C17 C 0.6472(13) 0.7443(9) 0.0629(5)
C18 C 0.2631(11) 0.6626(8) 0.1737(5)
O13 O 1.0838(9) 0.7623(6) 0.2695(4)
H7 H 1.1644 0.7336 0.2711
H8 H 1.0466 0.7620 0.2357
O14 O 1.0684(9) 0.4409(7) 0.2396(4)
H9 H 1.0237 0.3887 0.2332
H10 H 1.1537 0.4293 0.2535
O15 O 0.9320(10) 0.5343(7) 0.3402(4)
H11 H 0.8509 0.5090 0.3303
H12 H 0.9973 0.4921 0.3402
O16 O 0.8972(10) 0.6699(7) 0.1683(4)
H13 H 0.9462 0.7065 0.1492
H14 H 0.8173 0.6964 0.1732
Er2_2 Er -0.00862(5) 0.60052(4) 0.25331(2)
Er2A Er 0.00862(5) 1.10052(4) 0.24669(2)
Er2A_2 Er 1.00862(5) 1.10052(4) 0.24669(2)
O4A O 0.7855(9) 0.5122(6) 0.2199(4)
O6A O 1.2047(8) 0.5918(6) 0.3142(4)
O12_2 O 1.1692(9) 0.6044(6) 0.1894(4)
O17 O 0.1226(11) 0.0502(8) 0.9157(4)
H15 H 0.1809 0.0951 0.9105
H16 H 0.1295 0.0355 0.9503
O18 O 0.0371(12) 0.7427(10) 0.0842(6)
H17 H 0.0928 0.7551 0.0589
H18 H -0.0325 0.7819 0.0817
O19 O 0.154(2) 0.4960(12) 0.9274(8)
H19 H 0.0793 0.5240 0.9126
H20 H 0.1432 0.4837 0.9615
O20 O 0.122(2) 0.8105(14) 0.3799(7)
H21 H 0.1503 0.8157 0.3473
H22 H 0.0630 0.8556 0.3849
O21 O 0.977(3) 0.6869(16) 0.4439(11)
H23 H 0.8961 0.6964 0.4255
H24 H 1.0336 0.7325 0.4382
loop_
_geom_bond_atom_site_label_1
_geom_bond_atom_site_label_2
_geom_bond_site_symmetry_1
_geom_bond_site_symmetry_2
Er1 N1 1_555 1_555
Er2 O2 1_555 1_555
N1 C1 1_555 1_555
N2 C2 1_555 1_555
N3 Er1 1_555 1_555
N4 C8 1_555 1_555
N5 Er1 1_555 1_555
N6 C14 1_555 1_555
O1 Er1 1_555 1_555
O2 C5 1_555 1_555
O3 Er1 1_555 1_555
O4 C6 1_555 1_555
O5 Er1 1_555 1_555
O6 C11 1_555 1_555
O7 Er1 1_555 1_555
O8 C12 1_555 1_555
O9 Er1 1_555 1_555
O10 C17 1_555 1_555
O11 Er1 1_555 1_555
O12 C18 1_555 1_555
C1 C2 1_555 1_555
C2 H1 1_555 1_555
C3 N2 1_555 1_555
H2 C3 1_555 1_555
C4 N1 1_555 1_555
C5 O1 1_555 1_555
C6 O3 1_555 1_555
C7 N3 1_555 1_555
C8 C7 1_555 1_555
H3 C8 1_555 1_555
C9 N4 1_555 1_555
H4 C9 1_555 1_555
C10 N3 1_555 1_555
C11 O5 1_555 1_555
C12 O7 1_555 1_555
C13 N5 1_555 1_555
C14 C13 1_555 1_555
H5 C14 1_555 1_555
C15 N6 1_555 1_555
H6 C15 1_555 1_555
C16 N5 1_555 1_555
C17 O9 1_555 1_555
C18 O11 1_555 1_555
O13 Er2 1_555 1_555
H7 O13 1_555 1_555
H8 O13 1_555 1_555
O14 Er2 1_555 1_555
H9 O14 1_555 1_555
H10 O14 1_555 1_555
O15 Er2 1_555 1_555
H11 O15 1_555 1_555
H12 O15 1_555 1_555
O16 Er2 1_555 1_555
H13 O16 1_555 1_555
H14 O16 1_555 1_555
O17 H15 1_555 1_555
H16 O17 1_555 1_555
O18 H17 1_555 1_555
H18 O18 1_555 1_555
O19 H19 1_555 1_555
H20 O19 1_555 1_555
O20 H21 1_555 1_555
H22 O20 1_555 1_555
O21 H23 1_555 1_555
H24 O21 1_555 1_555
Er2_2 O12 1_555 1_555
Er2A O4 1_555 1_555
Er2A_2 O6 1_555 1_555
O4A Er2 1_555 1_555
O6A Er2 1_555 1_555
O12_2 Er2 1_555 1_555
C1 C5 1_555 1_555
C3 C4 1_555 1_555
C4 C6 1_555 1_555
C7 C11 1_555 1_555
C9 C10 1_555 1_555
C10 C12 1_555 1_555
C13 C17 1_555 1_555
C15 C16 1_555 1_555
C16 C18 1_555 1_555

#END
