
#######################################################################
#
#                 Cambridge Crystallographic Data Centre
#                                CCDC 
#
#######################################################################
#
# If this CIF has been generated from an entry in the Cambridge 
# Structural Database, then it will include bibliographic, chemical, 
# crystal, experimental, refinement or atomic coordinate data resulting 
# from the CCDC's data processing and validation procedures.
#
#######################################################################

data_BUZGEJ
_symmetry_cell_setting           monoclinic
_symmetry_space_group_name_H-M   'P 21/n'
_symmetry_Int_Tables_number      14
_space_group_name_Hall           '-P 2yn'
loop_
_symmetry_equiv_pos_site_id
_symmetry_equiv_pos_as_xyz
1 x,y,z
2 1/2-x,1/2+y,1/2-z
3 -x,-y,-z
4 1/2+x,1/2-y,1/2+z
_cell_length_a                   11.4419(11)
_cell_length_b                   8.1571(8)
_cell_length_c                   14.8381(15)
_cell_angle_alpha                90
_cell_angle_beta                 108.3240(10)
_cell_angle_gamma                90
_cell_volume                     1314.66
loop_
_atom_site_label
_atom_site_type_symbol
_atom_site_fract_x
_atom_site_fract_y
_atom_site_fract_z
Cu1 Cu 0.94075(3) 0.06797(3) 0.05315(2)
O1 O 0.92857(18) 0.2593(2) -0.03008(13)
O2 O 1.03355(18) 0.1472(2) -0.11821(13)
O3 O 0.71239(17) 0.4808(2) -0.46008(13)
O4 O 0.60994(16) 0.3661(2) -0.37067(13)
N1 N 0.85952(19) 0.1759(2) 0.15211(14)
N2 N 0.9954(2) 0.1675(3) 0.47203(15)
C1 C 0.7379(2) 0.1893(3) 0.13098(18)
H1 H 0.6888 0.1605 0.0702
C2 C 0.6811(2) 0.2438(3) 0.19502(19)
H2 H 0.5959 0.2520 0.1776
C3 C 0.7536(3) 0.2859(3) 0.2854(2)
H3 H 0.7175 0.3214 0.3299
C4 C 0.8814(2) 0.2748(3) 0.30950(18)
C5 C 0.9288(2) 0.2190(3) 0.24022(18)
H4 H 1.0139 0.2108 0.2554
C6 C 0.9643(3) 0.3097(3) 0.40924(18)
H5 H 1.0401 0.3580 0.4054
H6 H 0.9244 0.3906 0.4376
C7 C 0.8868(3) 0.0848(3) 0.48251(19)
H7 H 0.8386 0.0385 0.4220
H8 H 0.8358 0.1634 0.5019
C8 C 1.0743(3) 0.0495(3) 0.44445(19)
H9 H 1.1467 0.1051 0.4387
H10 H 1.0301 0.0025 0.3832
C9 C 0.9785(2) 0.2642(3) -0.09437(18)
C10 C 0.9712(2) 0.4263(3) -0.14655(19)
H11 H 1.0352 0.4288 -0.1767
H12 H 0.9870 0.5151 -0.1008
C11 C 0.8464(2) 0.4548(3) -0.22214(19)
H13 H 0.7817 0.4253 -0.1958
H14 H 0.8378 0.5707 -0.2374
C12 C 0.8281(2) 0.3576(3) -0.31384(18)
H15 H 0.8957 0.3798 -0.3383
H16 H 0.8280 0.2412 -0.3005
C13 C 0.7071(2) 0.4044(3) -0.38791(18)
Cu1B Cu 1.05925(3) -0.06797(3) -0.05315(2)
Cu1A Cu 0.55925(3) 0.56797(3) -0.55315(2)
Cu1C Cu 0.44075(3) 0.43203(3) -0.44685(2)
Cu1B_2 Cu 1.05925(3) -0.06797(3) 0.94685(2)
Cu1C_2 Cu 1.44075(3) -0.56797(3) 0.55315(2)
Cu1A_2 Cu 1.55925(3) -0.43203(3) 0.44685(2)
O1B O 1.07143(18) -0.2593(2) 0.03008(13)
O2B O 0.96645(18) -0.1472(2) 0.11821(13)
O3B O 1.28761(17) -0.4808(2) 0.46008(13)
O3A O 0.78761(17) -0.0192(2) -0.03992(13)
O3C O 1.21239(17) 0.0192(2) 0.03992(13)
O4B O 1.39006(16) -0.3661(2) 0.37067(13)
O4C O 1.10994(16) 0.1339(2) 0.12933(13)
O4A O 0.89006(16) -0.1339(2) -0.12933(13)
N1B N 1.14048(19) -0.1759(2) 0.84789(14)
N1B_2 N 1.14048(19) -0.1759(2) -0.15211(14)
N2B N 1.0046(2) -0.1675(3) 0.52797(15)
C1B C 1.2621(2) -0.1893(3) 0.86902(18)
H1B H 1.3112 -0.1605 0.9298
C2B C 1.3189(2) -0.2438(3) 0.80498(19)
H2B H 1.4041 -0.2520 0.8224
C3B C 1.2464(3) -0.2859(3) 0.7146(2)
H3B H 1.2825 -0.3214 0.6701
C4B C 1.1186(2) -0.2748(3) 0.69050(18)
C5B C 1.0712(2) -0.2190(3) 0.75978(18)
H4B H 0.9861 -0.2108 0.7446
C6B C 1.0357(3) -0.3097(3) 0.59076(18)
H5B H 0.9599 -0.3580 0.5946
H6B H 1.0756 -0.3906 0.5624
C7B C 1.1132(3) -0.0848(3) 0.51749(19)
H7B H 1.1614 -0.0385 0.5780
H8B H 1.1642 -0.1634 0.4981
C8B C 0.9257(3) -0.0495(3) 0.55555(19)
H9B H 0.8533 -0.1051 0.5613
H10B H 0.9699 -0.0025 0.6168
C9B C 1.0215(2) -0.2642(3) 0.09437(18)
C10B C 1.0288(2) -0.4263(3) 0.14655(19)
H11B H 0.9648 -0.4288 0.1767
H12B H 1.0130 -0.5151 0.1008
C11B C 1.1536(2) -0.4548(3) 0.22214(19)
H13B H 1.2183 -0.4253 0.1958
H14B H 1.1622 -0.5707 0.2374
C12B C 1.1719(2) -0.3576(3) 0.31384(18)
H15B H 1.1043 -0.3798 0.3383
H16B H 1.1720 -0.2412 0.3005
C13B C 1.2929(2) -0.4044(3) 0.38791(18)
loop_
_geom_bond_atom_site_label_1
_geom_bond_atom_site_label_2
_geom_bond_site_symmetry_1
_geom_bond_site_symmetry_2
Cu1 O1 1_555 1_555
O1 C9 1_555 1_555
O2 C9 1_555 1_555
O3 C13 1_555 1_555
O4 C13 1_555 1_555
N1 Cu1 1_555 1_555
N2 C6 1_555 1_555
C1 N1 1_555 1_555
H1 C1 1_555 1_555
C2 C1 1_555 1_555
H2 C2 1_555 1_555
C3 C2 1_555 1_555
H3 C3 1_555 1_555
C4 C3 1_555 1_555
C5 N1 1_555 1_555
H4 C5 1_555 1_555
C6 C4 1_555 1_555
H5 C6 1_555 1_555
H6 C6 1_555 1_555
C7 N2 1_555 1_555
H7 C7 1_555 1_555
H8 C7 1_555 1_555
C8 N2 1_555 1_555
H9 C8 1_555 1_555
H10 C8 1_555 1_555
C9 C10 1_555 1_555
C10 H11 1_555 1_555
H12 C10 1_555 1_555
C11 C10 1_555 1_555
H13 C11 1_555 1_555
H14 C11 1_555 1_555
C12 C11 1_555 1_555
H15 C12 1_555 1_555
H16 C12 1_555 1_555
C13 C12 1_555 1_555
Cu1B O2 1_555 1_555
Cu1A O3 1_555 1_555
Cu1C O4 1_555 1_555
Cu1B_2 N1B 1_555 1_555
Cu1C_2 O3B 1_555 1_555
Cu1A_2 O4B 1_555 1_555
O1B Cu1B 1_555 1_555
O2B Cu1 1_555 1_555
O3B C13B 1_555 1_555
O3A Cu1 1_555 1_555
O3C Cu1B 1_555 1_555
O4B C13B 1_555 1_555
O4C Cu1 1_555 1_555
O4A Cu1B 1_555 1_555
N1B C1B 1_555 1_555
N1B_2 Cu1B 1_555 1_555
N2B C6B 1_555 1_555
C1B H1B 1_555 1_555
C2B C1B 1_555 1_555
H2B C2B 1_555 1_555
C3B C2B 1_555 1_555
H3B C3B 1_555 1_555
C4B C3B 1_555 1_555
C5B N1B 1_555 1_555
H4B C5B 1_555 1_555
C6B C4B 1_555 1_555
H5B C6B 1_555 1_555
H6B C6B 1_555 1_555
C7B C8 1_555 1_555
H7B C7B 1_555 1_555
H8B C7B 1_555 1_555
C8B C7 1_555 1_555
H9B C8B 1_555 1_555
H10B C8B 1_555 1_555
C9B O1B 1_555 1_555
C10B C9B 1_555 1_555
H11B C10B 1_555 1_555
H12B C10B 1_555 1_555
C11B C10B 1_555 1_555
H13B C11B 1_555 1_555
H14B C11B 1_555 1_555
C12B C11B 1_555 1_555
H15B C12B 1_555 1_555
H16B C12B 1_555 1_555
C13B C12B 1_555 1_555
C4 C5 1_555 1_555
O2B C9B 1_555 1_555
N2B C7B 1_555 1_555
N2B C8B 1_555 1_555
C4B C5B 1_555 1_555

#END
