
#######################################################################
#
#                 Cambridge Crystallographic Data Centre
#                                CCDC 
#
#######################################################################
#
# If this CIF has been generated from an entry in the Cambridge 
# Structural Database, then it will include bibliographic, chemical, 
# crystal, experimental, refinement or atomic coordinate data resulting 
# from the CCDC's data processing and validation procedures.
#
#######################################################################

data_BUZHUA
_symmetry_cell_setting           triclinic
_symmetry_space_group_name_H-M   'P -1'
_symmetry_Int_Tables_number      2
_space_group_name_Hall           '-P 1'
loop_
_symmetry_equiv_pos_site_id
_symmetry_equiv_pos_as_xyz
1 x,y,z
2 -x,-y,-z
_cell_length_a                   6.7266(5)
_cell_length_b                   8.0370(8)
_cell_length_c                   11.7563(10)
_cell_angle_alpha                83.741(7)
_cell_angle_beta                 80.945(8)
_cell_angle_gamma                83.954(9)
_cell_volume                     621.382
loop_
_atom_site_label
_atom_site_type_symbol
_atom_site_fract_x
_atom_site_fract_y
_atom_site_fract_z
Cu1 Cu 0.5000 0.5000 0.5000
F1 F 1.3588(3) 0.5109(3) 0.12184(17)
O1 O 0.6815(2) 0.46145(19) 0.35502(13)
O2 O 0.5684(3) 0.2399(3) 0.29402(17)
O3 O 1.2852(2) 0.2867(2) 0.47227(16)
H1 H 1.3625 0.2615 0.4143
O4 O 0.7362(3) 0.1379(3) 0.09855(19)
H2 H 0.6435 0.1529 0.1518
N1 N 0.6798(3) 0.3305(2) 0.58963(15)
C1 C 0.6932(4) 0.3468(3) 0.28757(19)
C2 C 0.8729(4) 0.3399(3) 0.19544(18)
C3 C 0.8863(4) 0.2349(3) 0.1065(2)
C4 C 1.0587(5) 0.2267(4) 0.0239(2)
H3 H 1.0663 0.1582 -0.0358
C5 C 1.2169(5) 0.3177(4) 0.0291(2)
H4 H 1.3325 0.3103 -0.0258
C6 C 1.2025(4) 0.4202(4) 0.1169(2)
C7 C 1.0348(4) 0.4332(3) 0.1993(2)
H5 H 1.0288 0.5039 0.2575
C8 C 0.6096(4) 0.2475(3) 0.6908(2)
H6 H 0.4752 0.2708 0.7225
C9 C 0.7290(4) 0.1293(4) 0.7495(2)
H7 H 0.6760 0.0730 0.8192
C10 C 0.9278(4) 0.0960(3) 0.7032(2)
H8 H 1.0108 0.0169 0.7419
C11 C 1.0047(3) 0.1793(3) 0.5996(2)
C12 C 0.8748(3) 0.2968(3) 0.54635(19)
H9 H 0.9254 0.3553 0.4770
C13 C 1.2207(4) 0.1446(3) 0.5432(2)
H10 H 1.3073 0.1153 0.6023
H11 H 1.2308 0.0501 0.4971
Cu1_2 Cu 1.5000 0.5000 0.5000
F1A F -0.3588(3) 0.4891(3) 0.87816(17)
O1A O 0.3185(2) 0.53855(19) 0.64498(13)
O2A O 0.4316(3) 0.7601(3) 0.70598(17)
O3A O 0.7148(2) 0.7133(2) 0.52773(16)
O3_2 O 0.2852(2) 0.2867(2) 0.47227(16)
H1A H 0.6375 0.7385 0.5857
H1_2 H 0.3625 0.2615 0.4143
O4A O 0.2638(3) 0.8621(3) 0.90145(19)
H2A H 0.3565 0.8471 0.8482
N1A N 1.3202(3) 0.6695(2) 0.41037(15)
N1A_2 N 0.3202(3) 0.6695(2) 0.41037(15)
C1A C 0.3068(4) 0.6532(3) 0.71243(19)
C2A C 0.1271(4) 0.6601(3) 0.80456(18)
C3A C 0.1137(4) 0.7651(3) 0.8935(2)
C4A C -0.0587(5) 0.7733(4) 0.9761(2)
H3A H -0.0663 0.8418 1.0358
C5A C -0.2169(5) 0.6823(4) 0.9709(2)
H4A H -0.3325 0.6897 1.0258
C6A C -0.2025(4) 0.5798(4) 0.8831(2)
C7A C -0.0348(4) 0.5668(3) 0.8007(2)
H5A H -0.0288 0.4961 0.7425
C8A C 1.3904(4) 0.7525(3) 0.3092(2)
H6A H 1.5248 0.7292 0.2775
C9A C 1.2710(4) 0.8707(4) 0.2505(2)
H7A H 1.3240 0.9270 0.1808
C10A C 1.0722(4) 0.9040(3) 0.2968(2)
H8A H 0.9892 0.9831 0.2581
C11A C 0.9953(3) 0.8207(3) 0.4004(2)
C12A C 1.1252(3) 0.7032(3) 0.45365(19)
H9A H 1.0746 0.6447 0.5230
C13A C 0.7793(4) 0.8554(3) 0.4568(2)
H10A H 0.6927 0.8847 0.3977
H11A H 0.7692 0.9499 0.5029
loop_
_geom_bond_atom_site_label_1
_geom_bond_atom_site_label_2
_geom_bond_site_symmetry_1
_geom_bond_site_symmetry_2
Cu1 O1 1_555 1_555
F1 C6 1_555 1_555
O1 C1 1_555 1_555
O2 C1 1_555 1_555
O3 H1 1_555 1_555
O4 H2 1_555 1_555
N1 Cu1 1_555 1_555
C1 C2 1_555 1_555
C2 C3 1_555 1_555
C3 O4 1_555 1_555
C4 C3 1_555 1_555
H3 C4 1_555 1_555
C5 C4 1_555 1_555
H4 C5 1_555 1_555
C6 C5 1_555 1_555
C7 C2 1_555 1_555
H5 C7 1_555 1_555
C8 N1 1_555 1_555
H6 C8 1_555 1_555
C9 C8 1_555 1_555
H7 C9 1_555 1_555
C10 C9 1_555 1_555
H8 C10 1_555 1_555
C11 C10 1_555 1_555
C12 N1 1_555 1_555
H9 C12 1_555 1_555
C13 O3 1_555 1_555
H10 C13 1_555 1_555
H11 C13 1_555 1_555
Cu1_2 O3 1_555 1_555
F1A C6A 1_555 1_555
O1A Cu1 1_555 1_555
O2A C1A 1_555 1_555
O3A Cu1 1_555 1_555
O3_2 Cu1 1_555 1_555
H1A O3A 1_555 1_555
H1_2 O3_2 1_555 1_555
O4A H2A 1_555 1_555
N1A Cu1_2 1_555 1_555
N1A_2 Cu1 1_555 1_555
C1A O1A 1_555 1_555
C2A C1A 1_555 1_555
C3A O4A 1_555 1_555
C4A C3A 1_555 1_555
H3A C4A 1_555 1_555
C5A C4A 1_555 1_555
H4A C5A 1_555 1_555
C6A C5A 1_555 1_555
C7A C2A 1_555 1_555
H5A C7A 1_555 1_555
C8A N1A 1_555 1_555
H6A C8A 1_555 1_555
C9A C8A 1_555 1_555
H7A C9A 1_555 1_555
C10A C9A 1_555 1_555
H8A C10A 1_555 1_555
C11A C10A 1_555 1_555
C12A N1A 1_555 1_555
H9A C12A 1_555 1_555
C13A O3A 1_555 1_555
H10A C13A 1_555 1_555
H11A C13A 1_555 1_555
C6 C7 1_555 1_555
C11 C12 1_555 1_555
C11 C13 1_555 1_555
C2A C3A 1_555 1_555
C6A C7A 1_555 1_555
C11A C12A 1_555 1_555
C11A C13A 1_555 1_555

#END
