
#######################################################################
#
#                 Cambridge Crystallographic Data Centre
#                                CCDC 
#
#######################################################################
#
# If this CIF has been generated from an entry in the Cambridge 
# Structural Database, then it will include bibliographic, chemical, 
# crystal, experimental, refinement or atomic coordinate data resulting 
# from the CCDC's data processing and validation procedures.
#
#######################################################################

data_BUZHIO
_symmetry_cell_setting           monoclinic
_symmetry_space_group_name_H-M   'P 21/n'
_symmetry_Int_Tables_number      14
_space_group_name_Hall           '-P 2yn'
loop_
_symmetry_equiv_pos_site_id
_symmetry_equiv_pos_as_xyz
1 x,y,z
2 1/2-x,1/2+y,1/2-z
3 -x,-y,-z
4 1/2+x,1/2-y,1/2+z
_cell_length_a                   6.24770(10)
_cell_length_b                   8.0300(2)
_cell_length_c                   18.6700(4)
_cell_angle_alpha                90
_cell_angle_beta                 98.6550(10)
_cell_angle_gamma                90
_cell_volume                     925.99
loop_
_atom_site_label
_atom_site_type_symbol
_atom_site_fract_x
_atom_site_fract_y
_atom_site_fract_z
Cd1 Cd 0.19182(3) 0.17232(2) 0.705780(9)
O1 O 0.4936(4) 0.1361(3) 0.62101(12)
O2 O -0.08620(13) 0.00704(10) 0.64938(4)
H1 H -0.2027 0.0515 0.6523
H2 H -0.1037 -0.0994 0.6549
O3 O 0.18989(13) 0.27888(10) 0.59364(4)
O4 O 0.52683(13) 0.39818(10) 0.30376(4)
O5 O -0.09921(13) 0.56273(10) 0.25999(4)
O6 O 0.00976(13) 0.30754(10) 0.28975(4)
N1 N 0.33569(13) 0.41699(10) 0.39609(4)
C1 C 0.29232(13) 0.37032(10) 0.46195(4)
H3 H 0.1690 0.4120 0.4780
C2 C 0.4221(4) 0.2649(3) 0.50551(13)
C3 C 0.6096(5) 0.2037(4) 0.47971(16)
H4 H 0.7051 0.1343 0.5089
C4 C 0.6502(4) 0.2461(3) 0.41260(15)
H5 H 0.7728 0.2036 0.3963
C5 C 0.5101(4) 0.3538(3) 0.36648(14)
C6 C 0.3665(5) 0.2223(4) 0.57811(14)
C7 C 0.1977(4) 0.5383(3) 0.35323(14)
H6 H 0.2880 0.6107 0.3289
H7 H 0.1277 0.6068 0.3857
C8 C 0.0261(4) 0.4627(3) 0.29734(12)
Cd1C Cd 0.69182(3) 0.32768(2) 0.205780(9)
Cd1B Cd -0.19182(3) 0.82768(2) 0.294220(9)
Cd1C_2 Cd -0.30818(3) 0.32768(2) 0.205780(9)
O4C O 0.02683(13) 0.10182(10) 0.80376(4)
O5B O 0.09921(13) 0.43727(10) 0.74001(4)
O5C O 0.40079(13) -0.06273(10) 0.75999(4)
O6C O 0.50976(13) 0.19246(10) 0.78975(4)
loop_
_geom_bond_atom_site_label_1
_geom_bond_atom_site_label_2
_geom_bond_site_symmetry_1
_geom_bond_site_symmetry_2
Cd1 O1 1_555 1_555
O1 C6 1_555 1_555
O2 Cd1 1_555 1_555
H1 O2 1_555 1_555
H2 O2 1_555 1_555
O3 Cd1 1_555 1_555
O4 C5 1_555 1_555
O5 C8 1_555 1_555
O6 C8 1_555 1_555
N1 C1 1_555 1_555
C1 H3 1_555 1_555
C2 C1 1_555 1_555
C3 C2 1_555 1_555
H4 C3 1_555 1_555
C4 C3 1_555 1_555
H5 C4 1_555 1_555
C5 N1 1_555 1_555
C6 O3 1_555 1_555
C7 N1 1_555 1_555
H6 C7 1_555 1_555
H7 C7 1_555 1_555
C8 C7 1_555 1_555
Cd1C O4 1_555 1_555
Cd1B O5 1_555 1_555
Cd1C_2 O5 1_555 1_555
O4C Cd1 1_555 1_555
O5B Cd1 1_555 1_555
O5C Cd1 1_555 1_555
O6C Cd1 1_555 1_555
O6 Cd1C_2 1_555 1_555
C2 C6 1_555 1_555
C4 C5 1_555 1_555

#END
