
#######################################################################
#
#                 Cambridge Crystallographic Data Centre
#                                CCDC 
#
#######################################################################
#
# If this CIF has been generated from an entry in the Cambridge 
# Structural Database, then it will include bibliographic, chemical, 
# crystal, experimental, refinement or atomic coordinate data resulting 
# from the CCDC's data processing and validation procedures.
#
#######################################################################

data_BUZQIX
_symmetry_cell_setting           monoclinic
_symmetry_space_group_name_H-M   'P 21/c'
_symmetry_Int_Tables_number      14
_space_group_name_Hall           '-P 2ybc'
loop_
_symmetry_equiv_pos_site_id
_symmetry_equiv_pos_as_xyz
1 x,y,z
2 -x,1/2+y,1/2-z
3 -x,-y,-z
4 x,1/2-y,1/2+z
_cell_length_a                   13.9646(3)
_cell_length_b                   24.9542(5)
_cell_length_c                   15.8998(3)
_cell_angle_alpha                90
_cell_angle_beta                 101.7450(10)
_cell_angle_gamma                90
_cell_volume                     5424.69
loop_
_atom_site_label
_atom_site_type_symbol
_atom_site_fract_x
_atom_site_fract_y
_atom_site_fract_z
C1 C 0.9824(4) 0.6162(2) 0.2650(3)
C2 C 0.9103(4) 0.5792(2) 0.2728(4)
H1 H 0.8909 0.5536 0.2302
C3 C 0.8673(4) 0.5804(2) 0.3443(4)
H2 H 0.8191 0.5557 0.3495
C4 C 0.8964(5) 0.6186(3) 0.4080(3)
H3 H 0.8676 0.6194 0.4558
C5 C 0.9685(5) 0.6556(3) 0.4002(3)
H4 H 0.9879 0.6812 0.4428
C6 C 1.0115(4) 0.6544(2) 0.3287(4)
H5 H 1.0597 0.6792 0.3235
C7 C 1.4467(3) 0.6340(2) 0.4081(3)
C8 C 1.5223(4) 0.6449(2) 0.3657(3)
H6 H 1.5126 0.669 0.3201
C9 C 1.6124(3) 0.6198(3) 0.3915(4)
H7 H 1.6629 0.6271 0.3631
C10 C 1.6269(4) 0.5838(3) 0.4596(4)
H8 H 1.6872 0.5671 0.4768
C11 C 1.5513(5) 0.5729(3) 0.5020(4)
H9 H 1.5611 0.5488 0.5476
C12 C 1.4612(4) 0.5980(3) 0.4763(4)
H10 H 1.4107 0.5907 0.5046
C13 C 1.5658(3) 0.7490(3) 0.1846(4)
C14 C 1.6224(5) 0.7895(3) 0.2300(4)
H11 H 1.5951 0.8229 0.2355
C15 C 1.7199(5) 0.7798(4) 0.2673(4)
H12 H 1.7577 0.8069 0.2977
C16 C 1.7607(3) 0.7298(4) 0.2590(4)
H13 H 1.8259 0.7234 0.284
C17 C 1.7041(5) 0.6894(3) 0.2136(5)
H14 H 1.7314 0.6559 0.2081
C18 C 1.6066(5) 0.6990(2) 0.1764(4)
H15 H 1.5688 0.672 0.146
C19 C 1.0753(3) 0.64312(19) -0.0739(3)
C20 C 1.1168(3) 0.5927(2) -0.0565(4)
H16 H 1.179 0.5893 -0.0225
C21 C 1.0652(5) 0.54724(18) -0.0901(4)
H17 H 1.0929 0.5135 -0.0785
C22 C 0.9721(4) 0.5523(2) -0.1410(4)
H18 H 0.9376 0.5219 -0.1635
C23 C 0.9307(3) 0.6027(3) -0.1584(3)
H19 H 0.8684 0.6061 -0.1925
C24 C 0.9823(3) 0.64816(19) -0.1248(3)
H20 H 0.9545 0.6819 -0.1365
C25 C 1.1321(4) 0.86103(18) 0.1484(3)
C26 C 1.1836(4) 0.8651(2) 0.0826(3)
H21 H 1.2259 0.8378 0.0739
C27 C 1.1721(4) 0.9100(2) 0.0297(3)
H22 H 1.2066 0.9127 -0.0143
C28 C 1.1090(5) 0.9508(2) 0.0427(4)
H23 H 1.1013 0.9809 0.0074
C29 C 1.0574(4) 0.9468(2) 0.1086(4)
H24 H 1.0152 0.9741 0.1173
C30 C 1.0689(4) 0.9019(2) 0.1614(3)
H25 H 1.0344 0.8991 0.2054
C31 C 1.3324(4) 0.5210(2) 0.0594(4)
C32 C 1.3754(5) 0.5121(3) -0.0109(4)
H26 H 1.4211 0.5362 -0.0237
C33 C 1.3501(6) 0.4671(3) -0.0621(4)
H27 H 1.3788 0.4611 -0.1091
C34 C 1.2817(6) 0.4310(3) -0.0430(4)
H28 H 1.2648 0.4008 -0.0772
C35 C 1.2387(5) 0.4399(3) 0.0273(5)
H29 H 1.193 0.4157 0.0401
C36 C 1.2640(5) 0.4849(3) 0.0785(4)
H30 H 1.2353 0.4909 0.1255
N1 N 0.9088(5) 0.7445(3) 0.0751(5)
C37 C 0.8451(7) 0.7129(5) 0.0298(6)
H31 H 0.8669 0.6801 0.0134
C38 C 0.8779(7) 0.7912(4) 0.0980(7)
H32 H 0.9232 0.8141 0.1308
C39 C 0.7490(8) 0.7243(6) 0.0048(7)
H33 H 0.7058 0.6997 -0.0263
C40 C 0.7176(8) 0.7720(6) 0.0261(8)
H34 H 0.6523 0.7814 0.0075
C41 C 0.7816(8) 0.8076(5) 0.0758(9)
H35 H 0.761 0.8405 0.0931
C42 C 1.4337(5) 0.8927(2) 0.3307(4)
C43 C 1.5126(5) 0.9168(3) 0.3047(5)
H36 H 1.5757 0.9041 0.3252
C44 C 1.4973(8) 0.9598(3) 0.2479(6)
H37 H 1.5501 0.9759 0.2305
C45 C 1.4031(10) 0.9787(3) 0.2172(5)
H38 H 1.3928 1.0075 0.1792
C46 C 1.3241(7) 0.9547(3) 0.2432(6)
H39 H 1.2611 0.9673 0.2226
C47 C 1.3394(5) 0.9117(3) 0.2999(5)
H40 H 1.2866 0.8956 0.3173
Hg1 Hg 1.08708(2) 0.714533(13) 0.124693(19)
Hg2 Hg 1.23797(2) 0.591660(14) 0.24291(2)
Hg3 Hg 1.34394(2) 0.758243(14) 0.27717(2)
Hg4 Hg 1.34289(2) 0.674349(15) 0.03404(2)
Te1 Te 1.15240(4) 0.71419(2) -0.02900(3)
Te2 Te 1.30635(4) 0.66848(2) 0.37000(3)
Te3 Te 1.04537(4) 0.60975(2) 0.15456(3)
Te4 Te 1.14536(4) 0.79589(2) 0.23591(3)
Te5 Te 1.45826(4) 0.82296(2) 0.40731(3)
Te6 Te 1.38104(4) 0.58644(2) 0.14256(3)
Te7 Te 1.41928(4) 0.76775(2) 0.12962(3)
I1 I 1.23056(6) 0.49622(3) 0.33357(4)
Hg4C Hg 1.34289(2) 0.825651(15) 0.53404(2)
Te5C Te 1.45826(4) 0.67704(2) -0.09269(3)
loop_
_geom_bond_atom_site_label_1
_geom_bond_atom_site_label_2
_geom_bond_site_symmetry_1
_geom_bond_site_symmetry_2
C1 C2 1_555 1_555
C2 H1 1_555 1_555
C3 C2 1_555 1_555
H2 C3 1_555 1_555
C4 C3 1_555 1_555
H3 C4 1_555 1_555
C5 C4 1_555 1_555
H4 C5 1_555 1_555
C6 C1 1_555 1_555
H5 C6 1_555 1_555
C7 C8 1_555 1_555
C8 H6 1_555 1_555
C9 C8 1_555 1_555
H7 C9 1_555 1_555
C10 C9 1_555 1_555
H8 C10 1_555 1_555
C11 C10 1_555 1_555
H9 C11 1_555 1_555
C12 C7 1_555 1_555
H10 C12 1_555 1_555
C13 C14 1_555 1_555
C14 H11 1_555 1_555
C15 C14 1_555 1_555
H12 C15 1_555 1_555
C16 C15 1_555 1_555
H13 C16 1_555 1_555
C17 C16 1_555 1_555
H14 C17 1_555 1_555
C18 C13 1_555 1_555
H15 C18 1_555 1_555
C19 C20 1_555 1_555
C20 H16 1_555 1_555
C21 C20 1_555 1_555
H17 C21 1_555 1_555
C22 C21 1_555 1_555
H18 C22 1_555 1_555
C23 C22 1_555 1_555
H19 C23 1_555 1_555
C24 C19 1_555 1_555
H20 C24 1_555 1_555
C25 C26 1_555 1_555
C26 H21 1_555 1_555
C27 C26 1_555 1_555
H22 C27 1_555 1_555
C28 C27 1_555 1_555
H23 C28 1_555 1_555
C29 C28 1_555 1_555
H24 C29 1_555 1_555
C30 C25 1_555 1_555
H25 C30 1_555 1_555
C31 C32 1_555 1_555
C32 H26 1_555 1_555
C33 C32 1_555 1_555
H27 C33 1_555 1_555
C34 C33 1_555 1_555
H28 C34 1_555 1_555
C35 C34 1_555 1_555
H29 C35 1_555 1_555
C36 C31 1_555 1_555
H30 C36 1_555 1_555
N1 C37 1_555 1_555
C37 H31 1_555 1_555
C38 N1 1_555 1_555
H32 C38 1_555 1_555
C39 C37 1_555 1_555
H33 C39 1_555 1_555
C40 C39 1_555 1_555
H34 C40 1_555 1_555
C41 C38 1_555 1_555
H35 C41 1_555 1_555
C42 C43 1_555 1_555
C43 H36 1_555 1_555
C44 C43 1_555 1_555
H37 C44 1_555 1_555
C45 C44 1_555 1_555
H38 C45 1_555 1_555
C46 C45 1_555 1_555
H39 C46 1_555 1_555
C47 C42 1_555 1_555
H40 C47 1_555 1_555
Hg1 N1 1_555 1_555
Hg2 Te2 1_555 1_555
Hg3 Te2 1_555 1_555
Hg4 Te1 1_555 1_555
Te1 C19 1_555 1_555
Te2 C7 1_555 1_555
Te3 C1 1_555 1_555
Te4 C25 1_555 1_555
Te5 C42 1_555 1_555
Te6 C31 1_555 1_555
Te7 C13 1_555 1_555
I1 Hg2 1_555 1_555
Hg4C Te5 1_555 1_555
Te5C Hg4 1_555 1_555
C5 C6 1_555 1_555
C11 C12 1_555 1_555
C17 C18 1_555 1_555
C23 C24 1_555 1_555
C29 C30 1_555 1_555
C35 C36 1_555 1_555
C40 C41 1_555 1_555
C46 C47 1_555 1_555
Hg1 Te1 1_555 1_555
Hg1 Te3 1_555 1_555
Hg1 Te4 1_555 1_555
Hg2 Te3 1_555 1_555
Hg2 Te6 1_555 1_555
Hg3 Te4 1_555 1_555
Hg3 Te5 1_555 1_555
Hg3 Te7 1_555 1_555
Hg4 Te6 1_555 1_555
Hg4 Te7 1_555 1_555

#END
