
#######################################################################
#
#                 Cambridge Crystallographic Data Centre
#                                CCDC 
#
#######################################################################
#
# If this CIF has been generated from an entry in the Cambridge 
# Structural Database, then it will include bibliographic, chemical, 
# crystal, experimental, refinement or atomic coordinate data resulting 
# from the CCDC's data processing and validation procedures.
#
#######################################################################

data_BUZQIW
_symmetry_cell_setting           triclinic
_symmetry_space_group_name_H-M   'P -1'
_symmetry_Int_Tables_number      2
_space_group_name_Hall           '-P 1'
loop_
_symmetry_equiv_pos_site_id
_symmetry_equiv_pos_as_xyz
1 x,y,z
2 -x,-y,-z
_cell_length_a                   8.371(5)
_cell_length_b                   10.844(5)
_cell_length_c                   13.407(5)
_cell_angle_alpha                66.954(5)
_cell_angle_beta                 80.260(5)
_cell_angle_gamma                73.600(5)
_cell_volume                     1071.95
loop_
_atom_site_label
_atom_site_type_symbol
_atom_site_fract_x
_atom_site_fract_y
_atom_site_fract_z
Ag1 Ag 0.05356(2) 0.80167(2) 0.306790(15)
S1 S -0.21172(7) 0.75228(6) 0.44071(5)
S2 S 0.35235(7) 0.74892(7) 0.20844(5)
N1 N 0.1732(2) 0.6277(2) 0.50164(17)
N2 N 0.0118(2) 0.95421(19) 0.41412(16)
N3 N 0.0288(3) 0.6446(2) 0.20838(18)
N4 N 0.0172(3) 0.9597(2) 0.11120(16)
C1 C 0.3271(3) 0.6356(3) 0.5116(2)
H1 H 0.4101 0.6244 0.4580
C2 C 0.3688(3) 0.6594(3) 0.5969(2)
H2 H 0.4771 0.6636 0.6004
C3 C 0.2463(4) 0.6769(3) 0.6770(2)
H3 H 0.2702 0.6938 0.7351
C4 C 0.0866(3) 0.6684(3) 0.6684(2)
H4 H 0.0020 0.6789 0.7213
C5 C 0.0544(3) 0.6440(2) 0.57978(18)
C6 C -0.1184(3) 0.6339(2) 0.5674(2)
H5 H -0.1924 0.6504 0.6272
H6 H -0.1114 0.5404 0.5737
C7 C -0.2715(3) 0.9141(3) 0.4633(2)
H7 H -0.3275 0.9856 0.4008
H8 H -0.3508 0.9053 0.5260
C8 C -0.1272(3) 0.9591(2) 0.48163(19)
C9 C -0.1368(3) 1.0048(2) 0.5668(2)
H9 H -0.2339 1.0070 0.6122
C10 C -0.1252(3) 0.6606(3) 0.1814(2)
H10 H -0.2138 0.6672 0.2327
C11 C -0.1594(4) 0.6679(3) 0.0820(3)
H11 H -0.2683 0.6805 0.0663
C12 C -0.0282(5) 0.6562(4) 0.0065(3)
H12 H -0.0470 0.6612 -0.0616
C13 C 0.1325(4) 0.6366(3) 0.0333(2)
H13 H 0.2230 0.6262 -0.0161
C14 C 0.1568(3) 0.6328(2) 0.1341(2)
C15 C 0.3299(3) 0.6152(3) 0.1658(2)
H14 H 0.4089 0.6123 0.1044
H15 H 0.3596 0.5269 0.2246
C16 C 0.3241(3) 0.8990(3) 0.0841(2)
H16 H 0.3506 0.9735 0.0959
H17 H 0.4040 0.8776 0.0283
C17 C 0.1518(3) 0.9506(2) 0.04141(19)
C18 C 0.1332(3) 0.9908(2) -0.06900(19)
H18 H 0.2284 0.9833 -0.1154
C9A C 0.1368(3) 0.9952(2) 0.4332(2)
C8A C 0.1272(3) 1.0409(2) 0.51837(19)
N2A N -0.0118(2) 1.04579(19) 0.58588(16)
C7A C 0.2715(3) 1.0859(3) 0.5367(2)
S1A S 0.21172(7) 1.24772(6) 0.55929(5)
C6A C 0.1184(3) 1.3661(2) 0.4326(2)
C5A C -0.0544(3) 1.3560(2) 0.42022(18)
N1A N -0.1732(2) 1.3723(2) 0.49836(17)
C1A C -0.3271(3) 1.3644(3) 0.4884(2)
H1A H -0.4101 1.3756 0.5420
C2A C -0.3688(3) 1.3406(3) 0.4031(2)
H2A H -0.4771 1.3364 0.3996
C3A C -0.2463(4) 1.3231(3) 0.3230(2)
H3A H -0.2702 1.3062 0.2649
C4A C -0.0866(3) 1.3316(3) 0.3316(2)
H4A H -0.0020 1.3211 0.2787
H5A H 0.1924 1.3496 0.3728
H6A H 0.1114 1.4596 0.4263
H7A H 0.3275 1.0144 0.5992
H8A H 0.3508 1.0947 0.4740
H9A H 0.2339 0.9930 0.3878
C18A C -0.1332(3) 1.0092(2) 0.06900(19)
C17A C -0.1518(3) 1.0494(2) -0.04141(19)
N4A N -0.0172(3) 1.0403(2) -0.11120(16)
C16A C -0.3241(3) 1.1010(3) -0.0841(2)
S2A S -0.35235(7) 1.25108(7) -0.20844(5)
C15A C -0.3299(3) 1.3848(3) -0.1658(2)
C14A C -0.1568(3) 1.3672(2) -0.1341(2)
N3A N -0.0288(3) 1.3554(2) -0.20838(18)
C10A C 0.1252(3) 1.3394(3) -0.1814(2)
H10A H 0.2138 1.3328 -0.2327
C11A C 0.1594(4) 1.3321(3) -0.0820(3)
H11A H 0.2683 1.3195 -0.0663
C12A C 0.0282(5) 1.3438(4) -0.0065(3)
H12A H 0.0470 1.3388 0.0616
C13A C -0.1325(4) 1.3634(3) -0.0333(2)
H13A H -0.2230 1.3738 0.0161
H14A H -0.4089 1.3877 -0.1044
H15A H -0.3596 1.4731 -0.2246
H16A H -0.3506 1.0265 -0.0959
H17A H -0.4040 1.1224 -0.0283
H18A H -0.2284 1.0167 0.1154
Ag1A Ag -0.05356(2) 1.19833(2) 0.693210(15)
Ag1A_2 Ag -0.05356(2) 1.19833(2) -0.306790(15)
S2A_2 S -0.35235(7) 1.25108(7) 0.79156(5)
N3A_2 N -0.0288(3) 1.3554(2) 0.79162(18)
N4A_2 N -0.0172(3) 1.0403(2) 0.88880(16)
Cl1 Cl 0.43093(7) 1.19224(7) 0.19462(5)
O1 O 0.2576(4) 1.2029(6) 0.1881(4)
O2 O 0.4449(7) 1.2256(5) 0.2833(3)
O3 O 0.5055(5) 1.0428(4) 0.2280(3)
O4 O 0.5033(5) 1.2668(4) 0.0958(3)
O5? O 0.404(3) 1.1069(19) 0.1636(18)
O6? O 0.310(3) 1.284(2) 0.226(3)
O7? O 0.596(4) 1.154(3) 0.232(2)
loop_
_geom_bond_atom_site_label_1
_geom_bond_atom_site_label_2
_geom_bond_site_symmetry_1
_geom_bond_site_symmetry_2
Ag1 S1 1_555 1_555
Cl1 O1 1_555 1_555
O2 Cl1 1_555 1_555
O3 Cl1 1_555 1_555
O4 Cl1 1_555 1_555
S1 C6 1_555 1_555
S2 Ag1 1_555 1_555
N1 C1 1_555 1_555
N2 Ag1 1_555 1_555
N3 Ag1 1_555 1_555
N4 Ag1 1_555 1_555
C1 H1 1_555 1_555
C2 C1 1_555 1_555
H2 C2 1_555 1_555
C3 C2 1_555 1_555
H3 C3 1_555 1_555
C4 C3 1_555 1_555
H4 C4 1_555 1_555
C5 N1 1_555 1_555
C6 C5 1_555 1_555
H5 C6 1_555 1_555
H6 C6 1_555 1_555
C7 S1 1_555 1_555
H7 C7 1_555 1_555
H8 C7 1_555 1_555
C8 N2 1_555 1_555
C9 C8 1_555 1_555
H9 C9 1_555 1_555
C10 N3 1_555 1_555
H10 C10 1_555 1_555
C11 C10 1_555 1_555
H11 C11 1_555 1_555
C12 C11 1_555 1_555
H12 C12 1_555 1_555
C13 C12 1_555 1_555
H13 C13 1_555 1_555
C14 N3 1_555 1_555
C15 S2 1_555 1_555
H14 C15 1_555 1_555
H15 C15 1_555 1_555
C16 S2 1_555 1_555
H16 C16 1_555 1_555
H17 C16 1_555 1_555
C17 N4 1_555 1_555
C18 C17 1_555 1_555
H18 C18 1_555 1_555
C9A N2 1_555 1_555
C8A C9A 1_555 1_555
N2A C9 1_555 1_555
C7A C8A 1_555 1_555
S1A C7A 1_555 1_555
C6A S1A 1_555 1_555
C5A C6A 1_555 1_555
N1A C5A 1_555 1_555
C1A N1A 1_555 1_555
H1A C1A 1_555 1_555
C2A C1A 1_555 1_555
H2A C2A 1_555 1_555
C3A C2A 1_555 1_555
H3A C3A 1_555 1_555
C4A C5A 1_555 1_555
H4A C4A 1_555 1_555
H5A C6A 1_555 1_555
H6A C6A 1_555 1_555
H7A C7A 1_555 1_555
H8A C7A 1_555 1_555
H9A C9A 1_555 1_555
C18A N4 1_555 1_555
C17A C18A 1_555 1_555
N4A C18 1_555 1_555
C16A C17A 1_555 1_555
S2A C16A 1_555 1_555
C15A S2A 1_555 1_555
C14A C15A 1_555 1_555
N3A C14A 1_555 1_555
C10A N3A 1_555 1_555
H10A C10A 1_555 1_555
C11A C10A 1_555 1_555
H11A C11A 1_555 1_555
C12A C11A 1_555 1_555
H12A C12A 1_555 1_555
C13A C14A 1_555 1_555
H13A C13A 1_555 1_555
H14A C15A 1_555 1_555
H15A C15A 1_555 1_555
H16A C16A 1_555 1_555
H17A C16A 1_555 1_555
H18A C18A 1_555 1_555
Ag1A N2A 1_555 1_555
Ag1A_2 N4A 1_555 1_555
S2A_2 Ag1A 1_555 1_555
N3A_2 Ag1A 1_555 1_555
N4A_2 Ag1A 1_555 1_555
C4 C5 1_555 1_555
C7 C8 1_555 1_555
C13 C14 1_555 1_555
C14 C15 1_555 1_555
C16 C17 1_555 1_555
C8A N2A 1_555 1_555
S1A Ag1A 1_555 1_555
C3A C4A 1_555 1_555
C17A N4A 1_555 1_555
S2A Ag1A_2 1_555 1_555
N3A Ag1A_2 1_555 1_555
C12A C13A 1_555 1_555

#END
