
#######################################################################
#
#                 Cambridge Crystallographic Data Centre
#                                CCDC 
#
#######################################################################
#
# If this CIF has been generated from an entry in the Cambridge 
# Structural Database, then it will include bibliographic, chemical, 
# crystal, experimental, refinement or atomic coordinate data resulting 
# from the CCDC's data processing and validation procedures.
#
#######################################################################

data_BZAMHG
_symmetry_cell_setting           monoclinic
_symmetry_space_group_name_H-M   'C 2/c'
_symmetry_Int_Tables_number      15
_space_group_name_Hall           '-C 2yn'
loop_
_symmetry_equiv_pos_site_id
_symmetry_equiv_pos_as_xyz
1 x,y,z
2 1/2+x,1/2+y,z
3 -x,y,1/2-z
4 1/2-x,1/2+y,1/2-z
5 -x,-y,-z
6 1/2-x,1/2-y,-z
7 x,-y,1/2+z
8 1/2+x,1/2-y,1/2+z
_cell_length_a                   21.33(2)
_cell_length_b                   15.69(2)
_cell_length_c                   8.42(2)
_cell_angle_alpha                90
_cell_angle_beta                 110.5(1)
_cell_angle_gamma                90
_cell_volume                     2639.45
loop_
_atom_site_label
_atom_site_type_symbol
_atom_site_fract_x
_atom_site_fract_y
_atom_site_fract_z
N1 N 0.37400 0.66600 0.56900
C1 C 0.33800 0.69300 0.42800
O1 O 0.32600 0.64500 0.29000
C2 C 0.31200 0.78100 0.40100
C3 C 0.32800 0.83500 0.52800
C4 C 0.30400 0.91800 0.50200
C5 C 0.26400 0.95100 0.35100
C6 C 0.24300 0.89300 0.21600
C7 C 0.26800 0.80700 0.24300
N2 N 0.41900 0.41100 0.61000
C8 C 0.44400 0.37000 0.52300
O2 O 0.46900 0.59000 0.91100
C9 C 0.44500 0.27500 0.52700
C10 C 0.48600 0.22900 0.46700
C11 C 0.48300 0.13500 0.46400
C12 C 0.43700 0.09700 0.49800
C13 C 0.39700 0.14400 0.55900
C14 C 0.40300 0.23300 0.57600
Hg1 Hg 0.40390 0.53960 0.59290
O2F O 0.46900 0.41000 0.41100
C8F C 0.44400 0.63000 1.02300
Hg1F Hg 0.40390 0.46040 0.09290
N2F N 0.41900 0.58900 1.11000
C9F C 0.44500 0.72500 1.02700
N1F N 0.37400 0.33400 0.06900
N2F_2 N 0.41900 0.58900 0.11000
Hg1F_2 Hg 0.40390 0.46040 1.09290
C10F C 0.48600 0.77100 0.96700
C14F C 0.40300 0.76700 1.07600
C1F C 0.33800 0.30700 -0.07200
C11F C 0.48300 0.86500 0.96400
C13F C 0.39700 0.85600 1.05900
O1F O 0.32600 0.35500 -0.21000
C2F C 0.31200 0.21900 -0.09900
C12F C 0.43700 0.90300 0.99800
C3F C 0.32800 0.16500 0.02800
C7F C 0.26800 0.19300 -0.25700
C4F C 0.30400 0.08200 0.00200
C6F C 0.24300 0.10700 -0.28400
C5F C 0.26400 0.04900 -0.14900
loop_
_geom_bond_atom_site_label_1
_geom_bond_atom_site_label_2
_geom_bond_site_symmetry_1
_geom_bond_site_symmetry_2
N1 C1 1_555 1_555
C1 O1 1_555 1_555
C2 C1 1_555 1_555
C3 C2 1_555 1_555
C4 C3 1_555 1_555
C5 C4 1_555 1_555
C6 C5 1_555 1_555
C7 C2 1_555 1_555
N2 C8 1_555 1_555
C8 C9 1_555 1_555
O2 Hg1 1_555 1_555
C9 C10 1_555 1_555
C10 C11 1_555 1_555
C11 C12 1_555 1_555
C12 C13 1_555 1_555
C13 C14 1_555 1_555
C14 C9 1_555 1_555
Hg1 N1 1_555 1_555
O2F C8 1_555 1_555
C8F O2 1_555 1_555
Hg1F O2F 1_555 1_555
N2F C8F 1_555 1_555
C9F C8F 1_555 1_555
N1F Hg1F 1_555 1_555
N2F_2 Hg1F 1_555 1_555
Hg1F_2 N2F 1_555 1_555
C10F C9F 1_555 1_555
C14F C9F 1_555 1_555
C1F N1F 1_555 1_555
C11F C10F 1_555 1_555
C13F C14F 1_555 1_555
O1F C1F 1_555 1_555
C2F C1F 1_555 1_555
C12F C11F 1_555 1_555
C3F C2F 1_555 1_555
C7F C2F 1_555 1_555
C4F C3F 1_555 1_555
C6F C7F 1_555 1_555
C5F C4F 1_555 1_555
C6 C7 1_555 1_555
N2 Hg1 1_555 1_555
C13F C12F 1_555 1_555
C6F C5F 1_555 1_555

#END
