
#######################################################################
#
#                 Cambridge Crystallographic Data Centre
#                                CCDC 
#
#######################################################################
#
# If this CIF has been generated from an entry in the Cambridge 
# Structural Database, then it will include bibliographic, chemical, 
# crystal, experimental, refinement or atomic coordinate data resulting 
# from the CCDC's data processing and validation procedures.
#
#######################################################################

data_BZLITE01
_symmetry_cell_setting           monoclinic
_symmetry_space_group_name_H-M   'P 21'
_symmetry_Int_Tables_number      4
_space_group_name_Hall           'P 2yb'
loop_
_symmetry_equiv_pos_site_id
_symmetry_equiv_pos_as_xyz
1 x,y,z
2 -x,1/2+y,-z
_cell_length_a                   11.7666(10)
_cell_length_b                   16.0570(13)
_cell_length_c                   12.2524(10)
_cell_angle_alpha                90
_cell_angle_beta                 90.0280(10)
_cell_angle_gamma                90
_cell_volume                     2314.92
loop_
_atom_site_label
_atom_site_type_symbol
_atom_site_fract_x
_atom_site_fract_y
_atom_site_fract_z
N1 N 0.23356(13) 0.07919(10) 0.86416(12)
C1 C 0.28521(16) 0.03245(13) 0.77208(14)
C2 C 0.31448(15) 0.14545(10) 0.89642(14)
C3 C 0.22227(15) 0.02126(12) 0.95786(16)
Li1 Li 0.0817(3) 0.1215(2) 0.7922(3)
H1 H 0.3062 0.0717 0.7131
H2 H 0.2292 -0.0076 0.7423
C4 C 0.39258(19) -0.01514(15) 0.81122(18)
C5 C 0.43478(15) 0.10869(11) 0.91209(18)
H3 H 0.2888 0.1715 0.9654
H4 H 0.3165 0.1891 0.8393
H5 H 0.1801 -0.0291 0.9348
H6 H 0.1789 0.0485 1.0172
C6 C 0.34103(15) -0.00375(15) 0.99996(17)
C7 C 0.04022(16) 0.25541(11) 0.71946(15)
C8 C 0.10952(17) 0.20422(13) 0.65243(17)
N2 N -0.06793(13) 0.05779(10) 0.82974(12)
H7 H 0.3753 -0.0753 0.8171
H8 H 0.4544 -0.0081 0.7572
N3 N 0.42979(12) 0.01679(10) 0.91806(13)
H9 H 0.4838 0.1256 0.8503
H10 H 0.4686 0.1309 0.9801
H11 H 0.3573 0.0261 1.0689
H12 H 0.3424 -0.0643 1.0152
C9 C 0.07497(17) 0.28471(12) 0.82397(15)
C10 C -0.07597(18) 0.27490(12) 0.69169(16)
H13 H 0.092(2) 0.2011(17) 0.5780(19)
H14 H 0.189(2) 0.204(2) 0.660(3)
Li2 Li 0.5812(3) -0.0457(2) 0.9569(3)
H15 H 0.1511 0.2750 0.8466
C11 C 0.00277(19) 0.32655(13) 0.89368(16)
H16 H -0.1043 0.2587 0.6222
C12 C -0.14741(17) 0.31636(13) 0.76267(18)
C13 C 0.53671(16) -0.17736(11) 1.03075(15)
C14 C 0.61141(18) -0.12830(13) 1.09432(16)
C15 C 0.56175(15) -0.19837(12) 0.91950(15)
N4 N 0.73478(12) -0.00395(10) 0.88600(11)
H17 H 0.0306 0.3444 0.9626
C16 C -0.11005(19) 0.34347(13) 0.86579(18)
H18 H -0.2237 0.3268 0.7413
C17 C 0.42724(18) -0.20364(12) 1.06871(17)
H19 H 0.592(3) -0.113(2) 1.174(2)
H20 H 0.6943(17) -0.1297(15) 1.0697(18)
H21 H 0.6336 -0.1838 0.8899
C18 C 0.48293(16) -0.23974(12) 0.85380(15)
C19 C 0.72405(15) 0.05096(12) 0.78918(14)
C20 C 0.78526(15) 0.04628(12) 0.97524(13)
C21 C 0.81628(15) -0.07088(10) 0.85766(14)
H22 H -0.1594 0.3720 0.9144
H23 H 0.4062 -0.1920 1.1420
C22 C 0.35134(18) -0.24532(13) 1.0024(2)
C23 C 0.37727(18) -0.26415(13) 0.89443(19)
H24 H 0.5016 -0.2515 0.7800
H25 H 0.6831 0.1025 0.8095
H26 H 0.6798 0.0223 0.7316
C24 C 0.84458(16) 0.07330(13) 0.74495(14)
H27 H 0.8076 0.0093 1.0362
H28 H 0.7283 0.0864 1.0030
C25 C 0.89110(17) 0.09413(12) 0.93307(15)
H29 H 0.7920 -0.0983 0.7891
H30 H 0.8171 -0.1133 0.9162
C26 C 0.93719(15) -0.03440(11) 0.84318(16)
H31 H 0.2797 -0.2615 1.0311
H32 H 0.3244 -0.2929 0.8495
H33 H 0.8613 0.0392 0.6796
H34 H 0.8464 0.1327 0.7232
H35 H 0.8712 0.1534 0.9215
H36 H 0.9523 0.0915 0.9885
H37 H 0.9840 -0.0483 0.9078
H38 H 0.9735 -0.0596 0.7782
N2_2 N 0.93207(13) 0.05779(10) 0.82974(12)
Li1_2 Li 1.0817(3) 0.1215(2) 0.7922(3)
C27 C -0.11025(18) 0.34074(13) 0.36320(17)
H39 H -0.1591 0.3707 0.4109
C28 C 0.07280(17) 0.27713(12) 0.32441(15)
H40 H 0.1476 0.2650 0.3489
C29 C -0.14613(17) 0.31605(13) 0.25809(17)
H41 H -0.2208 0.3297 0.2346
C30 C 0.03996(16) 0.25119(11) 0.21737(15)
C31 C -0.00011(17) 0.31926(12) 0.39388(15)
H42 H 0.0259 0.3340 0.4647
C32 C 0.60954(18) -0.12051(13) 0.60090(16)
C33 C 0.58498(17) -0.20636(13) 0.43357(16)
H43 H 0.6622 -0.1972 0.4146
C34 C 0.51611(19) -0.25265(13) 0.36370(16)
H44 H 0.5478 -0.2749 0.2986
C35 C 0.42459(16) -0.18909(11) 0.55493(15)
H45 H 0.3915 -0.1681 0.6201
C36 C 0.11023(17) 0.20237(13) 0.14848(16)
C37 C 0.35797(17) -0.23470(12) 0.48424(16)
H46 H 0.2805 -0.2443 0.5019
C38 C 0.54184(16) -0.17227(11) 0.53347(14)
C39 C -0.07541(17) 0.27257(12) 0.18866(16)
H47 H -0.1037 0.2561 0.1193
C40 C 0.40191(19) -0.26713(13) 0.38701(16)
H48 H 0.3553 -0.2981 0.3384
C41 C 0.26719(14) -0.00156(11) 0.31310(13)
H49 H 0.2463 -0.0023 0.2348
H50 H 0.2135 -0.0382 0.3527
C42 C 0.27511(15) 0.08128(12) 0.47501(12)
H51 H 0.2096 0.0535 0.5102
H52 H 0.2804 0.1386 0.5042
C43 C 0.35143(14) 0.13452(10) 0.30822(14)
H53 H 0.3426 0.1935 0.3302
H54 H 0.3481 0.1317 0.2276
C44 C 0.46791(14) 0.10144(10) 0.34820(15)
H55 H 0.5202 0.0960 0.2853
H56 H 0.5016 0.1416 0.4003
C45 C 0.38576(15) 0.03293(11) 0.50198(13)
H57 H 0.4309 0.0648 0.5560
H58 H 0.3662 -0.0216 0.5347
C46 C 0.38977(16) -0.03544(12) 0.32688(14)
H59 H 0.3873 -0.0927 0.3568
H60 H 0.4280 -0.0375 0.2550
N5 N 0.25735(12) 0.08431(10) 0.35540(12)
N6 N 0.45449(13) 0.01959(9) 0.40198(12)
N7 N 0.95261(12) 0.06030(10) 0.34325(12)
N8 N 0.75527(12) -0.00541(10) 0.38728(12)
C47 C 0.88626(16) 0.11427(12) 0.41737(15)
H61 H 0.8828 0.1714 0.3870
H62 H 0.9245 0.1171 0.4893
C48 C 0.84937(15) -0.05530(11) 0.43436(15)
H63 H 0.8416 -0.1140 0.4108
H64 H 0.8445 -0.0538 0.5150
C49 C 0.96636(14) -0.02156(11) 0.39788(16)
H65 H 1.0166 -0.0154 0.4622
H66 H 1.0023 -0.0615 0.3469
C50 C 0.76406(14) 0.08021(11) 0.43223(14)
H67 H 0.7444 0.0796 0.5108
H68 H 0.7095 0.1171 0.3943
C51 C 0.77447(15) -0.00123(12) 0.26810(13)
H69 H 0.7095 0.0272 0.2328
H70 H 0.7796 -0.0583 0.2380
C52 C 0.88614(15) 0.04701(13) 0.24240(13)
H71 H 0.9321 0.0149 0.1894
H72 H 0.8674 0.1015 0.2091
Li3 Li 0.0980(3) 0.1239(2) 0.2960(3)
Li4 Li 0.5990(3) -0.0471(2) 0.4502(3)
H73 H 0.089(2) 0.2020(17) 0.0744(18)
H74 H 0.189(2) 0.202(2) 0.149(3)
H75 H 0.580(2) -0.1003(15) 0.6746(18)
H76 H 0.693(2) -0.135(2) 0.587(3)
N7_2 N -0.04739(12) 0.06030(10) 0.34325(12)
Li3_2 Li 1.0980(3) 0.1239(2) 0.2960(3)
loop_
_geom_bond_atom_site_label_1
_geom_bond_atom_site_label_2
_geom_bond_site_symmetry_1
_geom_bond_site_symmetry_2
N1 C1 1_555 1_555
C1 H1 1_555 1_555
C2 N1 1_555 1_555
C3 N1 1_555 1_555
Li1 N1 1_555 1_555
H2 C1 1_555 1_555
C4 C1 1_555 1_555
C5 C2 1_555 1_555
H3 C2 1_555 1_555
H4 C2 1_555 1_555
H5 C3 1_555 1_555
H6 C3 1_555 1_555
C6 C3 1_555 1_555
C7 Li1 1_555 1_555
C8 Li1 1_555 1_555
N2 Li1 1_555 1_555
H7 C4 1_555 1_555
H8 C4 1_555 1_555
N3 C4 1_555 1_555
H9 C5 1_555 1_555
H10 C5 1_555 1_555
H11 C6 1_555 1_555
H12 C6 1_555 1_555
C9 C7 1_555 1_555
C10 C7 1_555 1_555
H13 C8 1_555 1_555
H14 C8 1_555 1_555
Li2 N3 1_555 1_555
H15 C9 1_555 1_555
C11 C9 1_555 1_555
H16 C10 1_555 1_555
C12 C10 1_555 1_555
C13 Li2 1_555 1_555
C14 Li2 1_555 1_555
C15 C13 1_555 1_555
N4 Li2 1_555 1_555
H17 C11 1_555 1_555
C16 C11 1_555 1_555
H18 C12 1_555 1_555
C17 C13 1_555 1_555
H19 C14 1_555 1_555
H20 C14 1_555 1_555
H21 C15 1_555 1_555
C18 C15 1_555 1_555
C19 N4 1_555 1_555
C20 N4 1_555 1_555
C21 N4 1_555 1_555
H22 C16 1_555 1_555
H23 C17 1_555 1_555
C22 C17 1_555 1_555
C23 C18 1_555 1_555
H24 C18 1_555 1_555
H25 C19 1_555 1_555
H26 C19 1_555 1_555
C24 C19 1_555 1_555
H27 C20 1_555 1_555
H28 C20 1_555 1_555
C25 C20 1_555 1_555
H29 C21 1_555 1_555
H30 C21 1_555 1_555
C26 C21 1_555 1_555
H31 C22 1_555 1_555
H32 C23 1_555 1_555
H33 C24 1_555 1_555
H34 C24 1_555 1_555
H35 C25 1_555 1_555
H36 C25 1_555 1_555
H37 C26 1_555 1_555
H38 C26 1_555 1_555
C27 H39 1_555 1_555
C28 H40 1_555 1_555
C29 C27 1_555 1_555
H41 C29 1_555 1_555
C30 C28 1_555 1_555
C31 C27 1_555 1_555
H42 C31 1_555 1_555
C32 C38 1_555 1_555
C33 H43 1_555 1_555
C34 C33 1_555 1_555
H44 C34 1_555 1_555
C35 H45 1_555 1_555
C36 C30 1_555 1_555
C37 C35 1_555 1_555
H46 C37 1_555 1_555
C38 C33 1_555 1_555
C39 C29 1_555 1_555
H47 C39 1_555 1_555
C40 C34 1_555 1_555
H48 C40 1_555 1_555
C41 H49 1_555 1_555
H50 C41 1_555 1_555
C42 H51 1_555 1_555
H52 C42 1_555 1_555
C43 H53 1_555 1_555
H54 C43 1_555 1_555
C44 C43 1_555 1_555
H55 C44 1_555 1_555
H56 C44 1_555 1_555
C45 C42 1_555 1_555
H57 C45 1_555 1_555
H58 C45 1_555 1_555
C46 C41 1_555 1_555
H59 C46 1_555 1_555
H60 C46 1_555 1_555
N5 C41 1_555 1_555
N6 C44 1_555 1_555
N7 C47 1_555 1_555
N8 C48 1_555 1_555
C47 H61 1_555 1_555
H62 C47 1_555 1_555
C48 H63 1_555 1_555
H64 C48 1_555 1_555
C49 N7 1_555 1_555
H65 C49 1_555 1_555
H66 C49 1_555 1_555
C50 N8 1_555 1_555
H67 C50 1_555 1_555
H68 C50 1_555 1_555
C51 N8 1_555 1_555
H69 C51 1_555 1_555
H70 C51 1_555 1_555
C52 N7 1_555 1_555
H71 C52 1_555 1_555
H72 C52 1_555 1_555
Li3 C30 1_555 1_555
Li4 C32 1_555 1_555
H73 C36 1_555 1_555
H74 C36 1_555 1_555
H75 C32 1_555 1_555
H76 C32 1_555 1_555
N2_2 C24 1_555 1_555
Li1_2 N2_2 1_555 1_555
N7_2 Li3 1_555 1_555
Li3_2 N7 1_555 1_555
C5 N3 1_555 1_555
C6 N3 1_555 1_555
C7 C8 1_555 1_555
C12 C16 1_555 1_555
C13 C14 1_555 1_555
C22 C23 1_555 1_555
C25 N2_2 1_555 1_555
C26 N2_2 1_555 1_555
C28 C31 1_555 1_555
C30 C39 1_555 1_555
C35 C38 1_555 1_555
C36 Li3 1_555 1_555
C37 C40 1_555 1_555
C38 Li4 1_555 1_555
C42 N5 1_555 1_555
C43 N5 1_555 1_555
C45 N6 1_555 1_555
C46 N6 1_555 1_555
N5 Li3 1_555 1_555
N6 Li4 1_555 1_555
N8 Li4 1_555 1_555
C47 C50 1_555 1_555
C48 C49 1_555 1_555
C51 C52 1_555 1_555

#END
