
#######################################################################
#
#                 Cambridge Crystallographic Data Centre
#                                CCDC 
#
#######################################################################
#
# If this CIF has been generated from an entry in the Cambridge 
# Structural Database, then it will include bibliographic, chemical, 
# crystal, experimental, refinement or atomic coordinate data resulting 
# from the CCDC's data processing and validation procedures.
#
#######################################################################

data_CAASCO03
_symmetry_cell_setting           monoclinic
_symmetry_space_group_name_H-M   'P 21'
_symmetry_Int_Tables_number      4
_space_group_name_Hall           'P 2yb'
loop_
_symmetry_equiv_pos_site_id
_symmetry_equiv_pos_as_xyz
1 x,y,z
2 -x,1/2+y,-z
_cell_length_a                   6.3354(1)
_cell_length_b                   15.7584(3)
_cell_length_c                   8.3132(2)
_cell_angle_alpha                90
_cell_angle_beta                 107.632(1)
_cell_angle_gamma                90
_cell_volume                     790.965
loop_
_atom_site_label
_atom_site_type_symbol
_atom_site_fract_x
_atom_site_fract_y
_atom_site_fract_z
Ca1 Ca 0.47546(6) 0.25001(2) 0.21510(5)
O1 O 0.8054(2) 0.24085(11) 0.45182(18)
H1 H 0.853(4) 0.2780(15) 0.527(3)
H2 H 0.851(4) 0.1966(14) 0.505(3)
O2 O 0.0977(3) 0.21100(10) 0.0596(2)
H3 H 0.053(4) 0.1641(14) 0.017(3)
H4 H -0.020(4) 0.2314(16) 0.076(3)
C1 C 0.0238(3) -0.07222(14) 0.3520(3)
O3 O 0.0217(2) -0.14398(9) 0.29042(18)
C2 C -0.0419(3) -0.04516(14) 0.4921(3)
O4 O -0.1081(2) -0.10395(9) 0.59006(19)
H5 H -0.208(4) -0.0872(16) 0.629(3)
C3 C -0.0163(3) 0.04080(14) 0.5103(3)
O5 O -0.0633(2) 0.09223(9) 0.61436(18)
C4 C 0.0947(3) 0.06999(14) 0.3826(3)
H6 H 0.0108 0.1176 0.3120
O6 O 0.0972(2) -0.00517(9) 0.27996(18)
C5 C 0.3379(4) 0.09357(13) 0.4641(3)
H7 H 0.4129 0.0458 0.5387
O7 O 0.4451(3) 0.10586(10) 0.33625(19)
H8 H 0.403(4) 0.0710(15) 0.265(3)
C6 C 0.3755(4) 0.17431(14) 0.5675(3)
H9 H 0.2787 0.1750 0.6412
H10 H 0.5315 0.1772 0.6399
O8 O 0.3262(2) 0.24562(11) 0.45528(18)
H11 H 0.232(4) 0.2751(15) 0.469(3)
C7 C 0.5993(3) 0.07854(13) 0.0087(2)
O9 O 0.6534(2) 0.14591(9) 0.08468(18)
C8 C 0.7074(3) 0.02872(14) -0.0853(3)
O10 O 0.9132(2) 0.05128(9) -0.09345(19)
H12 H 0.910(4) 0.0617(16) -0.192(2)
C9 C 0.5792(3) -0.03980(13) -0.1529(3)
O11 O 0.6048(2) -0.09938(9) -0.25285(18)
C10 C 0.3668(3) -0.03175(12) -0.1045(3)
H13 H 0.2442 -0.0172 -0.2088
O12 O 0.4029(2) 0.04121(9) 0.00828(19)
C11 C 0.2901(4) -0.10644(13) -0.0192(3)
H14 H 0.1611 -0.0880 0.0178
O13 O 0.2196(3) -0.17309(9) -0.14156(19)
H15 H 0.121(4) -0.1587(16) -0.218(3)
C12 C 0.4633(4) -0.14464(14) 0.1295(3)
H16 H 0.5425 -0.0991 0.2063
H17 H 0.3920 -0.1823 0.1930
O14 O 0.6169(2) -0.19229(10) 0.06921(18)
H18 H 0.749(3) -0.1882(17) 0.119(3)
O11A O 0.3952(2) 0.40062(9) 0.25285(18)
O13A O 0.7804(3) 0.32691(9) 0.14156(19)
O14A O 0.3831(2) 0.30771(10) -0.06921(18)
Ca1A Ca 0.52454(6) -0.24999(2) -0.21510(5)
H15A H 0.879(4) 0.3413(16) 0.218(3)
H18A H 0.251(3) 0.3118(17) -0.119(3)
loop_
_geom_bond_atom_site_label_1
_geom_bond_atom_site_label_2
_geom_bond_site_symmetry_1
_geom_bond_site_symmetry_2
Ca1 O1 1_555 1_555
O1 H1 1_555 1_555
H2 O1 1_555 1_555
O2 Ca1 1_555 1_555
H3 O2 1_555 1_555
H4 O2 1_555 1_555
C1 O3 1_555 1_555
C2 C1 1_555 1_555
O4 C2 1_555 1_555
H5 O4 1_555 1_555
C3 C2 1_555 1_555
O5 C3 1_555 1_555
C4 C3 1_555 1_555
H6 C4 1_555 1_555
O6 C1 1_555 1_555
C5 C4 1_555 1_555
H7 C5 1_555 1_555
O7 Ca1 1_555 1_555
H8 O7 1_555 1_555
C6 C5 1_555 1_555
H9 C6 1_555 1_555
H10 C6 1_555 1_555
O8 Ca1 1_555 1_555
H11 O8 1_555 1_555
C7 O9 1_555 1_555
O9 Ca1 1_555 1_555
C8 C7 1_555 1_555
O10 C8 1_555 1_555
H12 O10 1_555 1_555
C9 C8 1_555 1_555
O11 C9 1_555 1_555
C10 C9 1_555 1_555
H13 C10 1_555 1_555
O12 C7 1_555 1_555
C11 C10 1_555 1_555
H14 C11 1_555 1_555
O13 C11 1_555 1_555
H15 O13 1_555 1_555
C12 C11 1_555 1_555
H16 C12 1_555 1_555
H17 C12 1_555 1_555
O14 C12 1_555 1_555
H18 O14 1_555 1_555
O11A Ca1 1_555 1_555
O13A Ca1 1_555 1_555
O14A Ca1 1_555 1_555
Ca1A O11 1_555 1_555
H15A O13A 1_555 1_555
H18A O14A 1_555 1_555
C4 O6 1_555 1_555
C5 O7 1_555 1_555
C6 O8 1_555 1_555
C10 O12 1_555 1_555
O13 Ca1A 1_555 1_555
O14 Ca1A 1_555 1_555

#END
