
#######################################################################
#
#                 Cambridge Crystallographic Data Centre
#                                CCDC 
#
#######################################################################
#
# If this CIF has been generated from an entry in the Cambridge 
# Structural Database, then it will include bibliographic, chemical, 
# crystal, experimental, refinement or atomic coordinate data resulting 
# from the CCDC's data processing and validation procedures.
#
#######################################################################

data_CABBUE
_symmetry_cell_setting           orthorhombic
_symmetry_space_group_name_H-M   'P b c a'
_symmetry_Int_Tables_number      61
_space_group_name_Hall           '-P 2ac 2ab'
loop_
_symmetry_equiv_pos_site_id
_symmetry_equiv_pos_as_xyz
1 x,y,z
2 1/2-x,-y,1/2+z
3 -x,1/2+y,1/2-z
4 1/2+x,1/2-y,-z
5 -x,-y,-z
6 1/2+x,y,1/2-z
7 x,1/2-y,1/2+z
8 1/2-x,1/2+y,z
_cell_length_a                   14.8094(4)
_cell_length_b                   15.7724(5)
_cell_length_c                   42.7869(13)
_cell_angle_alpha                90
_cell_angle_beta                 90
_cell_angle_gamma                90
_cell_volume                     9994.15
loop_
_atom_site_label
_atom_site_type_symbol
_atom_site_fract_x
_atom_site_fract_y
_atom_site_fract_z
La1 La 0.560088(12) 0.207977(11) 0.115306(4)
Si1 Si 0.43712(6) 0.19851(6) 0.18566(2)
Cl1 Cl 0.68048(6) 0.33982(5) 0.11115(2)
N1 N 0.52734(18) 0.24978(17) 0.16862(6)
C1 C 0.5874(2) 0.2946(2) 0.18849(7)
K1 K 0.82304(5) 0.37802(5) 0.158843(18)
O1 O 0.67881(16) 0.13894(15) 0.07806(6)
Si2 Si 0.38977(6) 0.34989(6) 0.07815(2)
N2 N 0.45729(17) 0.26097(17) 0.07771(6)
O2 O 0.9231(2) 0.27908(18) 0.11956(7)
C2 C 0.6660(2) 0.2546(2) 0.20107(7)
Cl2 Cl 0.58160(6) 0.03503(5) 0.13293(2)
C3 C 0.7259(2) 0.3004(2) 0.21956(8)
H1 H 0.7787 0.2731 0.2272
O3 O 0.9648(2) 0.3402(3) 0.19585(8)
C4 C 0.7109(3) 0.3844(2) 0.22723(8)
H2 H 0.7519 0.4144 0.2402
C5 C 0.6345(3) 0.4238(2) 0.21546(8)
H3 H 0.6241 0.4816 0.2204
C6 C 0.5725(2) 0.3816(2) 0.19658(8)
C7 C 0.6884(2) 0.1631(2) 0.19352(8)
H4 H 0.6343 0.1370 0.1834
C8 C 0.7674(3) 0.1576(3) 0.17044(9)
H5 H 0.7531 0.1905 0.1517
H6 H 0.7776 0.0982 0.1647
H7 H 0.8220 0.1806 0.1802
C9 C 0.7106(3) 0.1113(2) 0.22305(9)
H8 H 0.6617 0.1178 0.2383
H9 H 0.7673 0.1317 0.2321
H10 H 0.7168 0.0513 0.2175
C10 C 0.4926(3) 0.4311(2) 0.18379(9)
H11 H 0.4503 0.3899 0.1738
C11 C 0.5237(3) 0.4936(3) 0.15885(11)
H12 H 0.5567 0.4630 0.1425
H13 H 0.5633 0.5361 0.1683
H14 H 0.4710 0.5217 0.1497
C12 C 0.4407(3) 0.4785(3) 0.20923(11)
H15 H 0.4270 0.4396 0.2264
H16 H 0.3843 0.5008 0.2005
H17 H 0.4776 0.5256 0.2170
C13 C 0.3521(3) 0.2692(3) 0.20497(9)
H18 H 0.3268 0.3083 0.1895
H19 H 0.3815 0.3016 0.2216
H20 H 0.3036 0.2345 0.2139
C14 C 0.3740(3) 0.1407(3) 0.15417(9)
H21 H 0.3576 0.1805 0.1375
H22 H 0.3191 0.1155 0.1630
H23 H 0.4123 0.0958 0.1455
C15 C 0.4692(3) 0.1200(3) 0.21679(9)
H24 H 0.5038 0.1489 0.2332
H25 H 0.5062 0.0750 0.2076
H26 H 0.4145 0.0953 0.2259
C16 C 0.4678(2) 0.2153(2) 0.04914(7)
C17 C 0.4170(2) 0.1397(2) 0.04395(8)
C18 C 0.4273(3) 0.0949(2) 0.01609(8)
H27 H 0.3929 0.0448 0.0128
C19 C 0.4865(3) 0.1217(2) -0.00686(8)
H28 H 0.4930 0.0904 -0.0257
C20 C 0.5362(3) 0.1947(2) -0.00208(8)
H29 H 0.5766 0.2133 -0.0179
C21 C 0.5286(2) 0.2416(2) 0.02530(8)
C22 C 0.3510(2) 0.1059(2) 0.06783(8)
H30 H 0.3536 0.1441 0.0865
C23 C 0.3755(3) 0.0166(3) 0.07885(10)
H31 H 0.4371 0.0167 0.0873
H32 H 0.3720 -0.0228 0.0612
H33 H 0.3332 -0.0013 0.0952
C24 C 0.2538(3) 0.1071(3) 0.05561(11)
H34 H 0.2368 0.1653 0.0502
H35 H 0.2130 0.0855 0.0718
H36 H 0.2494 0.0712 0.0370
C25 C 0.5850(2) 0.3224(2) 0.02827(8)
H37 H 0.5734 0.3474 0.0494
C26 C 0.5562(3) 0.3877(3) 0.00347(10)
H38 H 0.4909 0.3970 0.0048
H39 H 0.5716 0.3664 -0.0174
H40 H 0.5879 0.4413 0.0072
C27 C 0.6864(3) 0.3051(2) 0.02540(9)
H41 H 0.7057 0.2674 0.0424
H42 H 0.7196 0.3587 0.0267
H43 H 0.6989 0.2780 0.0052
C28 C 0.3232(3) 0.3501(3) 0.11522(9)
H44 H 0.2806 0.3025 0.1151
H45 H 0.2898 0.4035 0.1170
H46 H 0.3643 0.3443 0.1331
C29 C 0.3093(3) 0.3508(2) 0.04460(9)
H47 H 0.2634 0.3069 0.0477
H48 H 0.3423 0.3395 0.0252
H49 H 0.2801 0.4064 0.0433
C30 C 0.4538(3) 0.4530(2) 0.07721(10)
H50 H 0.5084 0.4479 0.0900
H51 H 0.4156 0.4984 0.0855
H52 H 0.4708 0.4662 0.0556
C31 C 0.6579(3) 0.0685(2) 0.05731(9)
H53 H 0.6025 0.0802 0.0451
H54 H 0.6491 0.0155 0.0694
C32 C 0.7374(4) 0.0613(4) 0.03636(14)
H55 H 0.7263 0.0916 0.0165
H56 H 0.7505 0.0011 0.0317
C33 C 0.8160(3) 0.1016(4) 0.05393(11)
H57 H 0.8636 0.0592 0.0583
H58 H 0.8426 0.1487 0.0417
C34 C 0.7748(2) 0.1342(3) 0.08413(9)
H59 H 0.7875 0.0948 0.1016
H60 H 0.7992 0.1908 0.0894
C35 C 0.9589(3) 0.3183(3) 0.09192(10)
H61 H 0.9486 0.3803 0.0923
H62 H 0.9305 0.2944 0.0729
C36 C 1.0579(4) 0.2986(4) 0.09271(13)
H63 H 1.0840 0.2988 0.0714
H64 H 1.0910 0.3399 0.1058
C37 C 1.0609(4) 0.2120(3) 0.10669(16)
H65 H 1.1150 0.2053 0.1201
H66 H 1.0624 0.1682 0.0901
C38 C 0.9754(3) 0.2045(3) 0.12598(10)
H67 H 0.9413 0.1530 0.1200
H68 H 0.9901 0.2012 0.1485
C39 C 1.0402(4) 0.3918(4) 0.1902(2)
H69 H 1.0452 0.4357 0.2067
H70 H 1.0337 0.4207 0.1698
C40 C 1.1210(3) 0.3388(4) 0.19012(13)
H71 H 1.1713 0.3673 0.2012
H72 H 1.1403 0.3259 0.1685
C41 C 1.0930(3) 0.2592(4) 0.20701(12)
H73 H 1.0970 0.2092 0.1931
H74 H 1.1314 0.2493 0.2256
C42 C 0.9973(3) 0.2760(4) 0.21631(12)
H75 H 0.9606 0.2239 0.2142
H76 H 0.9944 0.2955 0.2383
K1G K 0.67696(5) -0.12198(5) 0.158843(18)
Cl2G Cl 0.91840(6) 0.53503(5) 0.13293(2)
loop_
_geom_bond_atom_site_label_1
_geom_bond_atom_site_label_2
_geom_bond_site_symmetry_1
_geom_bond_site_symmetry_2
La1 Cl1 1_555 1_555
Si1 N1 1_555 1_555
Cl1 K1 1_555 1_555
N1 La1 1_555 1_555
C1 N1 1_555 1_555
K1 O2 1_555 1_555
O1 La1 1_555 1_555
Si2 N2 1_555 1_555
N2 La1 1_555 1_555
O2 C35 1_555 1_555
C2 C1 1_555 1_555
Cl2 La1 1_555 1_555
C3 K1 1_555 1_555
H1 C3 1_555 1_555
O3 K1 1_555 1_555
C4 K1 1_555 1_555
H2 C4 1_555 1_555
C5 C4 1_555 1_555
H3 C5 1_555 1_555
C6 C1 1_555 1_555
C7 C2 1_555 1_555
H4 C7 1_555 1_555
C8 C7 1_555 1_555
H5 C8 1_555 1_555
H6 C8 1_555 1_555
H7 C8 1_555 1_555
C9 C7 1_555 1_555
H8 C9 1_555 1_555
H9 C9 1_555 1_555
H10 C9 1_555 1_555
C10 C6 1_555 1_555
H11 C10 1_555 1_555
C11 C10 1_555 1_555
H12 C11 1_555 1_555
H13 C11 1_555 1_555
H14 C11 1_555 1_555
C12 C10 1_555 1_555
H15 C12 1_555 1_555
H16 C12 1_555 1_555
H17 C12 1_555 1_555
C13 Si1 1_555 1_555
H18 C13 1_555 1_555
H19 C13 1_555 1_555
H20 C13 1_555 1_555
C14 Si1 1_555 1_555
H21 C14 1_555 1_555
H22 C14 1_555 1_555
H23 C14 1_555 1_555
C15 Si1 1_555 1_555
H24 C15 1_555 1_555
H25 C15 1_555 1_555
H26 C15 1_555 1_555
C16 N2 1_555 1_555
C17 C16 1_555 1_555
C18 C17 1_555 1_555
H27 C18 1_555 1_555
C19 C18 1_555 1_555
H28 C19 1_555 1_555
C20 C19 1_555 1_555
H29 C20 1_555 1_555
C21 C16 1_555 1_555
C22 C17 1_555 1_555
H30 C22 1_555 1_555
C23 C22 1_555 1_555
H31 C23 1_555 1_555
H32 C23 1_555 1_555
H33 C23 1_555 1_555
C24 C22 1_555 1_555
H34 C24 1_555 1_555
H35 C24 1_555 1_555
H36 C24 1_555 1_555
C25 C21 1_555 1_555
H37 C25 1_555 1_555
C26 C25 1_555 1_555
H38 C26 1_555 1_555
H39 C26 1_555 1_555
H40 C26 1_555 1_555
C27 C25 1_555 1_555
H41 C27 1_555 1_555
H42 C27 1_555 1_555
H43 C27 1_555 1_555
C28 Si2 1_555 1_555
H44 C28 1_555 1_555
H45 C28 1_555 1_555
H46 C28 1_555 1_555
C29 Si2 1_555 1_555
H47 C29 1_555 1_555
H48 C29 1_555 1_555
H49 C29 1_555 1_555
C30 Si2 1_555 1_555
H50 C30 1_555 1_555
H51 C30 1_555 1_555
H52 C30 1_555 1_555
C31 O1 1_555 1_555
H53 C31 1_555 1_555
H54 C31 1_555 1_555
C32 C31 1_555 1_555
H55 C32 1_555 1_555
H56 C32 1_555 1_555
C33 C32 1_555 1_555
H57 C33 1_555 1_555
H58 C33 1_555 1_555
C34 O1 1_555 1_555
H59 C34 1_555 1_555
H60 C34 1_555 1_555
C35 H61 1_555 1_555
H62 C35 1_555 1_555
C36 C35 1_555 1_555
H63 C36 1_555 1_555
H64 C36 1_555 1_555
C37 C36 1_555 1_555
H65 C37 1_555 1_555
H66 C37 1_555 1_555
C38 O2 1_555 1_555
H67 C38 1_555 1_555
H68 C38 1_555 1_555
C39 O3 1_555 1_555
H69 C39 1_555 1_555
H70 C39 1_555 1_555
C40 C39 1_555 1_555
H71 C40 1_555 1_555
H72 C40 1_555 1_555
C41 C40 1_555 1_555
H73 C41 1_555 1_555
H74 C41 1_555 1_555
C42 O3 1_555 1_555
H75 C42 1_555 1_555
H76 C42 1_555 1_555
K1G Cl2 1_555 1_555
Cl2G K1 1_555 1_555
C2 C3 1_555 1_555
C3 C4 1_555 1_555
C5 C6 1_555 1_555
C20 C21 1_555 1_555
C33 C34 1_555 1_555
C37 C38 1_555 1_555
C41 C42 1_555 1_555

#END
