
#######################################################################
#
#                 Cambridge Crystallographic Data Centre
#                                CCDC 
#
#######################################################################
#
# If this CIF has been generated from an entry in the Cambridge 
# Structural Database, then it will include bibliographic, chemical, 
# crystal, experimental, refinement or atomic coordinate data resulting 
# from the CCDC's data processing and validation procedures.
#
#######################################################################

data_CABHOC
_symmetry_cell_setting           orthorhombic
_symmetry_space_group_name_H-M   'P n m a'
_symmetry_Int_Tables_number      62
_space_group_name_Hall           '-P 2ac 2n'
loop_
_symmetry_equiv_pos_site_id
_symmetry_equiv_pos_as_xyz
1 x,y,z
2 1/2-x,-y,1/2+z
3 1/2+x,1/2-y,1/2-z
4 -x,1/2+y,-z
5 -x,-y,-z
6 1/2+x,y,1/2-z
7 1/2-x,1/2+y,1/2+z
8 x,1/2-y,z
_cell_length_a                   10.970(1)
_cell_length_b                   23.694(2)
_cell_length_c                   5.580(1)
_cell_angle_alpha                90
_cell_angle_beta                 90
_cell_angle_gamma                90
_cell_volume                     1450.37
loop_
_atom_site_label
_atom_site_type_symbol
_atom_site_fract_x
_atom_site_fract_y
_atom_site_fract_z
Ca1 Ca 0.20816(4) 0.05888(2) -0.41847(9)
P1 P 0.39846(5) 0.07450(3) -0.90347(11)
O1 O 0.5336(2) 0.07167(8) -0.8570(3)
O2 O 0.3679(2) 0.07483(8) -1.1673(4)
O3 O 0.3229(2) 0.03208(7) -0.7622(4)
O4 O 0.2803(2) 0.14510(8) -0.6101(4)
O5 O 0.0859(2) 0.1002(1) -0.1150(3)
C1 C 0.3491(2) 0.1436(1) -0.7825(5)
C2 C 0.3949(3) 0.1968(1) -0.8984(6)
C3 C 0.3512(5) 0.2500 -0.7773(5)
H1 H 0.026(3) 0.095(1) -0.158(6)
H2 H 0.076(3) 0.085(1) 0.031(7)
H3 H 0.491(4) 0.307(2) -0.923(6)
H4 H 0.375(3) 0.309(1) -1.070(7)
H5 H 0.265(5) 0.250 -0.810(11)
H6 H 0.392(5) 0.250 -0.598(10)
O3A O 0.1771(2) -0.03208(7) -0.2622(4)
O1E O 0.0336(2) 0.07167(8) -0.6430(3)
O2_2 O 0.3679(2) 0.07483(8) -0.1673(4)
Ca1A Ca 0.29184(4) -0.05888(2) -0.91847(9)
C2G C 0.3949(3) 0.3032(1) -0.8984(6)
C1G C 0.3491(2) 0.3564(1) -0.7825(5)
P1G P 0.39846(5) 0.42550(3) -0.90347(11)
O1G O 0.5336(2) 0.42833(8) -0.8570(3)
Ca1B Ca 0.70816(4) 0.44112(2) -1.08153(9)
O2G O 0.3679(2) 0.42517(8) -1.1673(4)
O3G O 0.3229(2) 0.46792(7) -0.7622(4)
O4G O 0.2803(2) 0.35490(8) -0.6101(4)
H3G H 0.491(4) 0.193(2) -0.923(6)
H4G H 0.375(3) 0.191(1) -1.070(7)
Ca1E Ca 0.70816(4) 0.05888(2) -1.08153(9)
Ca1_2 Ca 0.20816(4) 0.05888(2) -1.41847(9)
Ca1G Ca 0.20816(4) 0.44112(2) -1.41847(9)
Ca1F Ca 0.29184(4) 0.55888(2) -0.91847(9)
Ca1G_2 Ca 0.20816(4) 0.44112(2) -0.41847(9)
O1B O 0.0336(2) 0.42833(8) -0.6430(3)
O2G_2 O 0.3679(2) 0.42517(8) -0.1673(4)
O3F O 0.1771(2) 0.53208(7) -0.2622(4)
O5G O 0.0859(2) 0.3998(1) -0.1150(3)
H1G H 0.026(3) 0.405(1) -0.158(6)
H2G H 0.076(3) 0.415(1) 0.031(7)
loop_
_geom_bond_atom_site_label_1
_geom_bond_atom_site_label_2
_geom_bond_site_symmetry_1
_geom_bond_site_symmetry_2
Ca1 O3 1_555 1_555
P1 O1 1_555 1_555
O1 Ca1E 1_555 1_555
O2 P1 1_555 1_555
O3 P1 1_555 1_555
O4 Ca1 1_555 1_555
O5 Ca1 1_555 1_555
C1 P1 1_555 1_555
C2 C1 1_555 1_555
C3 C2 1_555 1_555
H1 O5 1_555 1_555
H2 O5 1_555 1_555
H3 C2G 1_555 1_555
H4 C2G 1_555 1_555
H5 C3 1_555 1_555
H6 C3 1_555 1_555
O3A Ca1 1_555 1_555
O1E Ca1 1_555 1_555
O2_2 Ca1 1_555 1_555
Ca1A O3 1_555 1_555
C2G C3 1_555 1_555
C1G C2G 1_555 1_555
P1G C1G 1_555 1_555
O1G P1G 1_555 1_555
Ca1B O1G 1_555 1_555
O2G P1G 1_555 1_555
O3G P1G 1_555 1_555
O4G C1G 1_555 1_555
H3G C2 1_555 1_555
H4G C2 1_555 1_555
Ca1_2 O2 1_555 1_555
Ca1G O2G 1_555 1_555
Ca1F O3G 1_555 1_555
Ca1G_2 O3G 1_555 1_555
O1B Ca1G_2 1_555 1_555
O2G_2 Ca1G_2 1_555 1_555
O3F Ca1G_2 1_555 1_555
O5G Ca1G_2 1_555 1_555
H1G O5G 1_555 1_555
H2G O5G 1_555 1_555
O4 C1 1_555 1_555
O4G Ca1G_2 1_555 1_555

#END
