
#######################################################################
#
#                 Cambridge Crystallographic Data Centre
#                                CCDC 
#
#######################################################################
#
# If this CIF has been generated from an entry in the Cambridge 
# Structural Database, then it will include bibliographic, chemical, 
# crystal, experimental, refinement or atomic coordinate data resulting 
# from the CCDC's data processing and validation procedures.
#
#######################################################################

data_CABJUM
_symmetry_cell_setting           triclinic
_symmetry_space_group_name_H-M   'P -1'
_symmetry_Int_Tables_number      2
_space_group_name_Hall           '-P 1'
loop_
_symmetry_equiv_pos_site_id
_symmetry_equiv_pos_as_xyz
1 x,y,z
2 -x,-y,-z
_cell_length_a                   10.7533(9)
_cell_length_b                   17.7516(14)
_cell_length_c                   20.3492(16)
_cell_angle_alpha                96.8410(10)
_cell_angle_beta                 101.6060(10)
_cell_angle_gamma                103.3620(10)
_cell_volume                     3645.68
loop_
_atom_site_label
_atom_site_type_symbol
_atom_site_fract_x
_atom_site_fract_y
_atom_site_fract_z
Cu1 Cu 0.40850(7) 0.74715(4) 0.03918(3)
Cu2 Cu -0.14467(7) 0.75591(5) -0.45328(3)
S1 S 0.38569(17) 0.57058(10) -0.14381(9)
S2 S 0.09504(19) 0.52974(12) -0.20088(9)
S3 S -0.3441(3) 0.59882(14) -0.24570(11)
S4 S -0.5058(2) 0.57105(16) -0.39096(12)
S5 S 1.41429(16) 0.93153(10) 0.21121(8)
S6 S 1.15121(15) 0.95386(10) 0.14235(8)
S7 S 0.83624(15) 0.85949(10) -0.08120(8)
S8 S 0.60466(17) 0.92334(10) -0.07236(9)
S9 S 0.74044(19) 0.63341(11) 0.13169(11)
S10 S 0.92923(18) 0.77871(12) 0.21526(10)
S11 S 0.6889(3) 0.94833(14) 0.36253(12)
S12 S 0.54146(18) 0.86825(13) 0.45580(10)
S13 S 0.05307(15) 0.61456(11) 0.10258(8)
S14 S 0.18507(17) 0.65783(12) 0.25141(8)
S15 S 0.5957(2) 0.57995(14) 0.28334(10)
S16 S 0.88422(19) 0.63499(14) 0.34510(9)
S17 S 0.91910(16) 0.88715(12) -0.24033(8)
S18 S 0.63025(17) 0.85864(16) -0.24499(9)
S19 S 0.2979(2) 0.69111(15) -0.28015(12)
S20 S 0.0700(2) 0.57747(12) -0.38020(10)
O1 O 0.0454(6) 0.8499(4) -0.4570(3)
H1 H 0.0334 0.8998 -0.4467
N1 N 0.3618(5) 0.6657(3) -0.0474(3)
N2 N 0.2350(5) 0.6348(3) -0.0867(3)
N3 N -0.2670(6) 0.6485(4) -0.3542(3)
N4 N -0.3074(5) 0.6496(4) -0.4232(3)
N5 N 1.4054(5) 0.8409(3) 0.1044(2)
N6 N 1.2890(5) 0.8632(3) 0.0902(2)
N7 N 0.6423(5) 0.8047(3) -0.0182(2)
N8 N 0.5269(5) 0.8186(3) -0.0053(2)
N9 N 0.2630(5) 0.6872(3) 0.0763(2)
N10 N 0.2907(5) 0.6975(3) 0.1464(2)
N11 N 0.7152(5) 0.6637(3) 0.4098(3)
N12 N 0.8387(5) 0.6958(3) 0.4528(3)
N13 N 0.5700(5) 0.7084(3) 0.1008(3)
N14 N 0.6793(5) 0.7638(3) 0.1438(3)
N15 N 0.7727(5) 0.8583(3) 0.4517(3)
N16 N 0.7331(5) 0.8152(3) 0.4996(2)
N17 N 0.8586(5) 0.8162(3) -0.3619(2)
N18 N 0.7399(5) 0.8155(3) -0.3466(2)
N19 N 0.0951(5) 0.7256(3) -0.3620(3)
N20 N -0.0205(5) 0.6911(3) -0.4111(3)
C1 C 0.4493(7) 0.6382(4) -0.0705(3)
H2 H 0.5384 0.6539 -0.0492
C2 C 0.2320(6) 0.5835(4) -0.1386(3)
C3 C -0.0332(11) 0.5723(8) -0.1846(5)
H3 H -0.1115 0.5293 -0.1913
H4 H -0.0089 0.5951 -0.1366
C4 C -0.0671(15) 0.6245(10) -0.2174(5)
H5 H -0.0852 0.6030 -0.2654
H6 H 0.0097 0.6689 -0.2080
C5 C -0.1845(8) 0.6582(5) -0.2070(4)
H7 H -0.1744 0.7075 -0.2240
H8 H -0.1777 0.6701 -0.1585
C6 C -0.3606(8) 0.6100(4) -0.3309(4)
C7 C -0.4259(7) 0.6117(4) -0.4479(4)
H9 H -0.4666 0.6063 -0.4937
C8 C 1.4790(6) 0.8718(4) 0.1638(3)
H10 H 1.5605 0.8625 0.1796
C9 C 1.2809(6) 0.9110(3) 0.1418(3)
C10 C 1.0576(6) 0.9175(3) 0.0552(3)
H11 H 1.0049 0.9531 0.0416
H12 H 1.1182 0.9174 0.0258
C11 C 0.9675(6) 0.8351(4) 0.0450(3)
H13 H 0.8942 0.8373 0.0656
H14 H 1.0155 0.8020 0.0680
C12 C 0.9149(6) 0.7987(4) -0.0300(3)
H15 H 0.8519 0.7486 -0.0338
H16 H 0.9871 0.7886 -0.0483
C13 C 0.6936(5) 0.8556(3) -0.0529(3)
C14 C 0.4970(6) 0.8779(4) -0.0295(3)
H17 H 0.4231 0.8943 -0.0240
C15 C 0.1442(6) 0.6455(4) 0.0475(3)
H18 H 0.1119 0.6337 0.0005
C16 C 0.1890(6) 0.6623(4) 0.1670(3)
C17 C 0.3437(7) 0.7241(4) 0.2975(4)
H19 H 0.3501 0.7747 0.2831
H20 H 0.3450 0.7318 0.3456
C18 C 0.4647(7) 0.6975(4) 0.2886(4)
H21 H 0.4740 0.7001 0.2424
H22 H 0.5417 0.7338 0.3193
C19 C 0.4604(7) 0.6152(4) 0.3021(4)
H23 H 0.3787 0.5797 0.2748
H24 H 0.4603 0.6140 0.3496
C20 C 0.7251(6) 0.6302(4) 0.3513(3)
C21 C 0.9327(7) 0.6845(5) 0.4262(3)
H25 H 1.0206 0.7021 0.4496
C22 C 0.5892(6) 0.6392(4) 0.0914(4)
H26 H 0.5252 0.5959 0.0648
C23 C 0.7737(6) 0.7316(4) 0.1632(3)
C24 C 0.9046(8) 0.8715(4) 0.2502(4)
H27 H 0.9891 0.9102 0.2653
H28 H 0.8506 0.8897 0.2146
C25 C 0.8422(16) 0.8657(6) 0.3068(6)
H29 H 0.8883 0.8397 0.3392
H30 H 0.7523 0.8336 0.2902
C26 C 0.8415(13) 0.9453(5) 0.3426(6)
H31 H 0.8626 0.9839 0.3138
H32 H 0.9100 0.9600 0.3844
C27 C 0.6811(7) 0.8888(4) 0.4250(3)
C28 C 0.6169(6) 0.8149(4) 0.5068(3)
H33 H 0.5779 0.7880 0.5370
C29 C 0.9593(6) 0.8514(4) -0.3123(3)
H34 H 1.0457 0.8567 -0.3157
C30 C 0.7568(6) 0.8494(4) -0.2838(3)
C31 C 0.4939(6) 0.8395(5) -0.3190(4)
H35 H 0.5150 0.8756 -0.3499
H36 H 0.4769 0.7863 -0.3431
C32 C 0.3727(7) 0.8505(5) -0.2950(4)
H37 H 0.3918 0.9040 -0.2712
H38 H 0.3011 0.8436 -0.3347
C33 C 0.3270(7) 0.7944(5) -0.2482(4)
H39 H 0.2464 0.8033 -0.2386
H40 H 0.3928 0.8077 -0.2054
C34 C 0.1529(6) 0.6724(4) -0.3420(3)
C35 C -0.0437(7) 0.6162(5) -0.4257(3)
H41 H -0.1167 0.5854 -0.4585
C36 C 0.1492(13) 0.8559(7) -0.4673(6)
H42 H 0.1910 0.8940 -0.4259
H43 H 0.1339 0.8886 -0.5014
C37 C 0.2793(10) 0.8514(12) -0.4819(6)
H44 H 0.2731 0.7986 -0.5023
H45 H 0.3461 0.8661 -0.4401
H46 H 0.3017 0.8866 -0.5125
Cu1_2 Cu 1.40850(7) 0.74715(4) 0.03918(3)
Cu2_2 Cu 0.85533(7) 0.75591(5) 0.54672(3)
Cu2_3 Cu 0.85533(7) 0.75591(5) -0.45328(3)
N5_2 N 0.4054(5) 0.8409(3) 0.1044(2)
N12_2 N -0.1613(5) 0.6958(3) -0.5472(3)
N16_2 N -0.2669(5) 0.8152(3) -0.5004(2)
N17_2 N -0.1414(5) 0.8162(3) -0.3619(2)
Cl1 Cl 0.2719(3) 0.96146(17) 0.36860(14)
O2 O 0.2044(11) 0.9941(7) 0.4056(6)
O3 O 0.2343(11) 0.9855(7) 0.3039(5)
O4 O 0.2395(11) 0.8819(6) 0.3578(6)
O5 O 0.4096(9) 0.9936(6) 0.3916(5)
Cl2 Cl 0.2404(2) 0.6113(2) 0.45428(14)
O6 O 0.2209(18) 0.6609(11) 0.5089(8)
O7 O 0.1582(11) 0.6095(8) 0.3941(6)
O8 O 0.3576(12) 0.6651(7) 0.4533(6)
O9 O 0.2822(11) 0.5458(6) 0.4678(7)
Cl3 Cl 0.23864(16) 0.96529(11) 0.87108(8)
O10 O 0.1697(8) 1.0165(5) 0.8944(4)
O11 O 0.2167(6) 0.9574(4) 0.7995(3)
O12 O 0.3757(5) 0.9945(3) 0.9014(3)
O13 O 0.1937(8) 0.8899(5) 0.8884(4)
Cl4 Cl 0.26665(15) 0.46376(9) 0.05483(9)
O14 O 0.3142(6) 0.5178(4) 0.1181(3)
O15 O 0.1321(6) 0.4567(5) 0.0331(4)
O16 O 0.3350(7) 0.4936(4) 0.0069(3)
O17 O 0.2856(8) 0.3904(4) 0.0651(5)
loop_
_geom_bond_atom_site_label_1
_geom_bond_atom_site_label_2
_geom_bond_site_symmetry_1
_geom_bond_site_symmetry_2
Cu1 N1 1_555 1_555
Cu2 O1 1_555 1_555
S1 C1 1_555 1_555
S2 C2 1_555 1_555
S3 C5 1_555 1_555
S4 C6 1_555 1_555
S5 C8 1_555 1_555
S6 C9 1_555 1_555
S7 C12 1_555 1_555
S8 C13 1_555 1_555
S9 C22 1_555 1_555
S10 C23 1_555 1_555
S11 C26 1_555 1_555
S12 C27 1_555 1_555
S13 C15 1_555 1_555
S14 C16 1_555 1_555
S15 C19 1_555 1_555
S16 C20 1_555 1_555
S17 C29 1_555 1_555
S18 C30 1_555 1_555
S19 C33 1_555 1_555
S20 C34 1_555 1_555
O1 H1 1_555 1_555
N1 N2 1_555 1_555
N2 C2 1_555 1_555
N3 N4 1_555 1_555
N4 Cu2 1_555 1_555
N5 N6 1_555 1_555
N6 C9 1_555 1_555
N7 N8 1_555 1_555
N8 Cu1 1_555 1_555
N9 Cu1 1_555 1_555
N10 N9 1_555 1_555
N11 N12 1_555 1_555
N12 C21 1_555 1_555
N13 Cu1 1_555 1_555
N14 N13 1_555 1_555
N15 N16 1_555 1_555
N16 C28 1_555 1_555
N17 N18 1_555 1_555
N18 C30 1_555 1_555
N19 N20 1_555 1_555
N20 Cu2 1_555 1_555
C1 N1 1_555 1_555
H2 C1 1_555 1_555
C2 S1 1_555 1_555
C3 S2 1_555 1_555
H3 C3 1_555 1_555
H4 C3 1_555 1_555
C4 C3 1_555 1_555
H5 C4 1_555 1_555
H6 C4 1_555 1_555
C5 C4 1_555 1_555
H7 C5 1_555 1_555
H8 C5 1_555 1_555
C6 S3 1_555 1_555
C7 S4 1_555 1_555
H9 C7 1_555 1_555
C8 N5 1_555 1_555
H10 C8 1_555 1_555
C9 S5 1_555 1_555
C10 S6 1_555 1_555
H11 C10 1_555 1_555
H12 C10 1_555 1_555
C11 C10 1_555 1_555
H13 C11 1_555 1_555
H14 C11 1_555 1_555
C12 C11 1_555 1_555
H15 C12 1_555 1_555
H16 C12 1_555 1_555
C13 S7 1_555 1_555
C14 S8 1_555 1_555
H17 C14 1_555 1_555
C15 N9 1_555 1_555
H18 C15 1_555 1_555
C16 S13 1_555 1_555
C17 S14 1_555 1_555
H19 C17 1_555 1_555
H20 C17 1_555 1_555
C18 C17 1_555 1_555
H21 C18 1_555 1_555
H22 C18 1_555 1_555
C19 C18 1_555 1_555
H23 C19 1_555 1_555
H24 C19 1_555 1_555
C20 S15 1_555 1_555
C21 S16 1_555 1_555
H25 C21 1_555 1_555
C22 N13 1_555 1_555
H26 C22 1_555 1_555
C23 S9 1_555 1_555
C24 S10 1_555 1_555
H27 C24 1_555 1_555
H28 C24 1_555 1_555
C25 C24 1_555 1_555
H29 C25 1_555 1_555
H30 C25 1_555 1_555
C26 C25 1_555 1_555
H31 C26 1_555 1_555
H32 C26 1_555 1_555
C27 S11 1_555 1_555
C28 S12 1_555 1_555
H33 C28 1_555 1_555
C29 N17 1_555 1_555
H34 C29 1_555 1_555
C30 S17 1_555 1_555
C31 S18 1_555 1_555
H35 C31 1_555 1_555
H36 C31 1_555 1_555
C32 C31 1_555 1_555
H37 C32 1_555 1_555
H38 C32 1_555 1_555
C33 C32 1_555 1_555
H39 C33 1_555 1_555
H40 C33 1_555 1_555
C34 S19 1_555 1_555
C35 S20 1_555 1_555
H41 C35 1_555 1_555
C36 O1 1_555 1_555
H42 C36 1_555 1_555
H43 C36 1_555 1_555
C37 C36 1_555 1_555
H44 C37 1_555 1_555
H45 C37 1_555 1_555
H46 C37 1_555 1_555
Cl1 O2 1_555 1_555
O3 Cl1 1_555 1_555
O4 Cl1 1_555 1_555
O5 Cl1 1_555 1_555
Cl2 O6 1_555 1_555
O7 Cl2 1_555 1_555
O8 Cl2 1_555 1_555
O9 Cl2 1_555 1_555
Cl3 O10 1_555 1_555
O11 Cl3 1_555 1_555
O12 Cl3 1_555 1_555
O13 Cl3 1_555 1_555
Cl4 O14 1_555 1_555
O15 Cl4 1_555 1_555
O16 Cl4 1_555 1_555
O17 Cl4 1_555 1_555
Cu1_2 N5 1_555 1_555
Cu2_2 N12 1_555 1_555
Cu2_3 N17 1_555 1_555
N5_2 Cu1 1_555 1_555
N12_2 Cu2 1_555 1_555
N16_2 Cu2 1_555 1_555
N17_2 Cu2 1_555 1_555
N3 C6 1_555 1_555
N4 C7 1_555 1_555
N7 C13 1_555 1_555
N8 C14 1_555 1_555
N10 C16 1_555 1_555
N11 C20 1_555 1_555
N14 C23 1_555 1_555
N15 C27 1_555 1_555
N16 Cu2_2 1_555 1_555
N19 C34 1_555 1_555
N20 C35 1_555 1_555

#END
