
#######################################################################
#
#                 Cambridge Crystallographic Data Centre
#                                CCDC 
#
#######################################################################
#
# If this CIF has been generated from an entry in the Cambridge 
# Structural Database, then it will include bibliographic, chemical, 
# crystal, experimental, refinement or atomic coordinate data resulting 
# from the CCDC's data processing and validation procedures.
#
#######################################################################

data_CABMOI
_symmetry_cell_setting           monoclinic
_symmetry_space_group_name_H-M   'P 21/n'
_symmetry_Int_Tables_number      14
_space_group_name_Hall           '-P 2yn'
loop_
_symmetry_equiv_pos_site_id
_symmetry_equiv_pos_as_xyz
1 x,y,z
2 1/2+x,1/2-y,1/2+z
3 -x,-y,-z
4 1/2-x,1/2+y,1/2-z
_cell_length_a                   8.839(2)
_cell_length_b                   14.381(4)
_cell_length_c                   10.674(2)
_cell_angle_alpha                90
_cell_angle_beta                 108.87(2)
_cell_angle_gamma                90
_cell_volume                     1283.89
loop_
_atom_site_label
_atom_site_type_symbol
_atom_site_fract_x
_atom_site_fract_y
_atom_site_fract_z
Ag1 Ag 0.28571(5) 0.73409(3) 0.52697(4)
S1 S 0.3914(2) 0.82666(7) 0.28823(12)
N1 N 0.2866(5) 0.8824(3) 0.4767(4)
N2 N 0.3433(5) 1.0025(2) 0.3456(4)
N3 N 0.1998(5) 1.0828(3) -0.0356(3)
C1 C 0.2375(7) 0.9466(4) 0.5457(5)
H1 H 0.2028(7) 0.9275(4) 0.6150(5)
C2 C 0.2367(7) 1.0380(4) 0.5182(6)
H2 H 0.1991(7) 1.0818(4) 0.5651(6)
C3 C 0.2939(6) 1.0639(3) 0.4177(5)
H3 H 0.2982(6) 1.1269(3) 0.3993(5)
C4 C 0.3347(5) 0.9141(3) 0.3776(4)
C5 C 0.4542(6) 0.8925(3) 0.1692(4)
H4 H 0.5299(6) 0.9396(3) 0.2162(4)
H5 H 0.5098(6) 0.8510(3) 0.1272(4)
C6 C 0.3206(5) 0.9396(3) 0.0628(4)
C7 C 0.2033(6) 0.8892(3) -0.0306(4)
H6 H 0.2027(6) 0.8245(3) -0.0284(4)
C8 C 0.0865(6) 0.9380(3) -0.1275(5)
H7 H 0.0071(6) 0.9062(3) -0.1921(5)
C9 C 0.0895(6) 1.0333(3) -0.1269(4)
H8 H 0.0114(6) 1.0650(3) -0.1928(4)
C10 C 0.3137(5) 1.0347(3) 0.0562(4)
H9 H 0.3926(5) 1.0681(3) 0.1191(4)
N3C N 0.3002(5) 0.5828(3) 0.5356(3)
Ag1C Ag 0.21429(5) 1.23409(3) -0.02697(4)
O1 O 0.2751(5) 0.7294(3) 0.7726(4)
O2 O 0.5070(5) 0.7743(3) 0.7773(4)
O3 O 0.4658(5) 0.7327(2) 0.9575(3)
N4 N 0.4159(5) 0.7466(2) 0.8358(4)
loop_
_geom_bond_atom_site_label_1
_geom_bond_atom_site_label_2
_geom_bond_site_symmetry_1
_geom_bond_site_symmetry_2
Ag1 N1 1_555 1_555
S1 C4 1_555 1_555
O1 N4 1_555 1_555
O2 N4 1_555 1_555
O3 N4 1_555 1_555
N1 C1 1_555 1_555
N2 C3 1_555 1_555
N3 C9 1_555 1_555
C1 H1 1_555 1_555
C2 C1 1_555 1_555
H2 C2 1_555 1_555
C3 C2 1_555 1_555
H3 C3 1_555 1_555
C4 N1 1_555 1_555
C5 S1 1_555 1_555
H4 C5 1_555 1_555
H5 C5 1_555 1_555
C6 C5 1_555 1_555
C7 C6 1_555 1_555
H6 C7 1_555 1_555
C8 C7 1_555 1_555
H7 C8 1_555 1_555
C9 C8 1_555 1_555
H8 C9 1_555 1_555
C10 N3 1_555 1_555
H9 C10 1_555 1_555
N3C Ag1 1_555 1_555
Ag1C N3 1_555 1_555
N2 C4 1_555 1_555
C6 C10 1_555 1_555

#END
