
#######################################################################
#
#                 Cambridge Crystallographic Data Centre
#                                CCDC 
#
#######################################################################
#
# If this CIF has been generated from an entry in the Cambridge 
# Structural Database, then it will include bibliographic, chemical, 
# crystal, experimental, refinement or atomic coordinate data resulting 
# from the CCDC's data processing and validation procedures.
#
#######################################################################

data_CABNAV
_symmetry_cell_setting           monoclinic
_symmetry_space_group_name_H-M   'P 21/c'
_symmetry_Int_Tables_number      14
_space_group_name_Hall           '-P 2ybc'
loop_
_symmetry_equiv_pos_site_id
_symmetry_equiv_pos_as_xyz
1 x,y,z
2 -x,1/2+y,1/2-z
3 -x,-y,-z
4 x,1/2-y,1/2+z
_cell_length_a                   8.0213(5)
_cell_length_b                   17.0822(11)
_cell_length_c                   9.7929(6)
_cell_angle_alpha                90
_cell_angle_beta                 112.0560(10)
_cell_angle_gamma                90
_cell_volume                     1243.64
loop_
_atom_site_label
_atom_site_type_symbol
_atom_site_fract_x
_atom_site_fract_y
_atom_site_fract_z
Fe1 Fe 0.7028(1) 0.9042(1) 0.3904(1)
O1 O 0.5288(2) 0.8982(1) 0.5063(1)
O2 O 0.4068(2) 0.9750(1) 0.6288(1)
O3 O 0.8956(2) 0.9511(1) 0.6027(1)
O4 O 1.0994(2) 1.0479(1) 0.6704(1)
N1 N 0.7734(2) 0.7833(1) 0.4332(2)
N2 N 0.5852(2) 0.7321(1) 0.2010(2)
N3 N 0.5174(2) 0.8685(1) 0.1779(2)
C1 C 0.8946(2) 0.7676(1) 0.5711(2)
C2 C 0.9589(2) 0.6941(1) 0.6203(2)
C3 C 0.8984(2) 0.6316(1) 0.5218(2)
C4 C 0.7762(3) 0.6458(1) 0.3821(2)
C5 C 0.7131(2) 0.7227(1) 0.3409(2)
C6 C 0.4975(2) 0.7964(1) 0.1197(2)
C7 C 0.3854(2) 0.7814(1) -0.0281(2)
C8 C 0.2957(2) 0.8427(1) -0.1160(2)
C9 C 0.3126(3) 0.9179(1) -0.0563(2)
C10 C 0.4227(2) 0.9275(1) 0.0887(2)
C11 C 0.4802(2) 0.9639(1) 0.5394(2)
C12 C 0.9978(2) 0.9995(1) 0.5789(2)
H1 H 0.5522 0.6876 0.1530
H2 H 0.9374 0.8102 0.6375
H3 H 1.0419 0.6860 0.7183
H4 H 0.9412 0.5801 0.5511
H5 H 0.7344 0.6041 0.3135
H6 H 0.3721 0.7297 -0.0664
H7 H 0.2228 0.8339 -0.2166
H8 H 0.2498 0.9610 -0.1143
H9 H 0.4337 0.9786 0.1296
C11B C 0.5198(2) 1.0361(1) 0.4606(2)
O1B O 0.4712(2) 1.1018(1) 0.4937(1)
O2B O 0.5932(2) 1.0250(1) 0.3712(1)
C12B C 1.0022(2) 1.0005(1) 0.4211(2)
O3B O 1.1044(2) 1.0489(1) 0.3973(1)
O4B O 0.9006(2) 0.9521(1) 0.3296(1)
Fe1B Fe 0.2972(1) 1.0958(1) 0.6096(1)
N1B N 0.2266(2) 1.2167(1) 0.5668(2)
N2B N 0.4148(2) 1.2679(1) 0.7990(2)
N3B N 0.4826(2) 1.1315(1) 0.8221(2)
C1B C 0.1054(2) 1.2324(1) 0.4289(2)
C2B C 0.0411(2) 1.3059(1) 0.3797(2)
C3B C 0.1016(2) 1.3684(1) 0.4782(2)
C4B C 0.2238(3) 1.3542(1) 0.6179(2)
C5B C 0.2869(2) 1.2773(1) 0.6591(2)
C6B C 0.5025(2) 1.2036(1) 0.8803(2)
C7B C 0.6146(2) 1.2186(1) 1.0281(2)
C8B C 0.7043(2) 1.1573(1) 1.1160(2)
C9B C 0.6874(3) 1.0821(1) 1.0563(2)
C10B C 0.5773(2) 1.0725(1) 0.9113(2)
H1B H 0.4478 1.3124 0.8470
H2B H 0.0626 1.1898 0.3625
H3B H -0.0419 1.3140 0.2817
H4B H 0.0588 1.4199 0.4489
H5B H 0.2656 1.3959 0.6865
H6B H 0.6279 1.2703 1.0664
H7B H 0.7772 1.1661 1.2166
H8B H 0.7502 1.0390 1.1143
H9B H 0.5663 1.0214 0.8704
Fe1B_2 Fe 1.2972(1) 1.0958(1) 0.6096(1)
O3B_2 O 0.1044(2) 1.0489(1) 0.3973(1)
O4_2 O 0.0994(2) 1.0479(1) 0.6704(1)
loop_
_geom_bond_atom_site_label_1
_geom_bond_atom_site_label_2
_geom_bond_site_symmetry_1
_geom_bond_site_symmetry_2
Fe1 O1 1_555 1_555
O1 C11 1_555 1_555
O2 C11 1_555 1_555
O3 Fe1 1_555 1_555
O4 C12 1_555 1_555
N1 Fe1 1_555 1_555
N2 C5 1_555 1_555
N3 Fe1 1_555 1_555
C1 N1 1_555 1_555
C2 C1 1_555 1_555
C3 C2 1_555 1_555
C4 C3 1_555 1_555
C5 N1 1_555 1_555
C6 N2 1_555 1_555
C7 C6 1_555 1_555
C8 C7 1_555 1_555
C9 C8 1_555 1_555
C10 N3 1_555 1_555
C11 C11B 1_555 1_555
C12 O3 1_555 1_555
H1 N2 1_555 1_555
H2 C1 1_555 1_555
H3 C2 1_555 1_555
H4 C3 1_555 1_555
H5 C4 1_555 1_555
H6 C7 1_555 1_555
H7 C8 1_555 1_555
H8 C9 1_555 1_555
H9 C10 1_555 1_555
C11B O1B 1_555 1_555
O1B Fe1B 1_555 1_555
O2B Fe1 1_555 1_555
C12B C12 1_555 1_555
O3B C12B 1_555 1_555
O4B Fe1 1_555 1_555
Fe1B O2 1_555 1_555
N1B Fe1B 1_555 1_555
N2B C5B 1_555 1_555
N3B Fe1B 1_555 1_555
C1B N1B 1_555 1_555
C2B C1B 1_555 1_555
C3B C2B 1_555 1_555
C4B C3B 1_555 1_555
C5B N1B 1_555 1_555
C6B N2B 1_555 1_555
C7B C6B 1_555 1_555
C8B C7B 1_555 1_555
C9B C8B 1_555 1_555
C10B N3B 1_555 1_555
H1B N2B 1_555 1_555
H2B C1B 1_555 1_555
H3B C2B 1_555 1_555
H4B C3B 1_555 1_555
H5B C4B 1_555 1_555
H6B C7B 1_555 1_555
H7B C8B 1_555 1_555
H8B C9B 1_555 1_555
H9B C10B 1_555 1_555
Fe1B_2 O4 1_555 1_555
O3B_2 Fe1B 1_555 1_555
O4_2 Fe1B 1_555 1_555
N3 C6 1_555 1_555
C4 C5 1_555 1_555
C9 C10 1_555 1_555
C11B O2B 1_555 1_555
C12B O4B 1_555 1_555
O3B Fe1B_2 1_555 1_555
N3B C6B 1_555 1_555
C4B C5B 1_555 1_555
C9B C10B 1_555 1_555

#END
