
#######################################################################
#
#                 Cambridge Crystallographic Data Centre
#                                CCDC 
#
#######################################################################
#
# If this CIF has been generated from an entry in the Cambridge 
# Structural Database, then it will include bibliographic, chemical, 
# crystal, experimental, refinement or atomic coordinate data resulting 
# from the CCDC's data processing and validation procedures.
#
#######################################################################

data_CABWIN
_symmetry_cell_setting           orthorhombic
_symmetry_space_group_name_H-M   'P c a 21'
_symmetry_Int_Tables_number      29
_space_group_name_Hall           'P 2c -2ac'
loop_
_symmetry_equiv_pos_site_id
_symmetry_equiv_pos_as_xyz
1 x,y,z
2 -x,-y,1/2+z
3 1/2-x,y,1/2+z
4 1/2+x,-y,z
_cell_length_a                   18.6055(15)
_cell_length_b                   8.3363(9)
_cell_length_c                   16.6854(14)
_cell_angle_alpha                90
_cell_angle_beta                 90
_cell_angle_gamma                90
_cell_volume                     2587.92
loop_
_atom_site_label
_atom_site_type_symbol
_atom_site_fract_x
_atom_site_fract_y
_atom_site_fract_z
C1 C 0.4954(5) 0.9507(15) 0.4577(7)
C2 C 0.2585(5) 0.4546(15) 0.3225(6)
C3 C 0.4759(6) 0.5617(15) 0.5299(7)
H1 H 0.4520 0.4613 0.5330
C4 C 0.5547(6) 0.7550(13) 0.5504(7)
H2 H 0.5942 0.8181 0.5679
C5 C 0.5372(6) 0.6015(15) 0.5755(7)
H3 H 0.5610 0.5377 0.6145
C6 C 0.4750(7) 0.9936(14) 0.2510(10)
H4 H 0.4606 1.0484 0.2037
C7 C 0.5224(5) 0.8129(13) 0.3290(7)
H5 H 0.5469 0.7215 0.3493
C8 C 0.5147(5) 0.8499(15) 0.2518(7)
H6 H 0.5322 0.7918 0.2069
C9 C 0.6192(6) 1.0244(14) 0.4369(7)
H7 H 0.6269 0.9548 0.3927
C10 C 0.6349(5) 1.2077(15) 0.5342(9)
H8 H 0.6587 1.2834 0.5675
C11 C 0.6663(6) 1.1139(16) 0.4732(8)
H9 H 0.7160 1.1158 0.4602
C12 C 0.2776(6) 0.0595(14) 0.2529(8)
H10 H 0.3011 -0.0415 0.2508
C13 C 0.2007(6) 0.2485(15) 0.2268(7)
H11 H 0.1628 0.3106 0.2046
C14 C 0.2171(5) 0.0991(14) 0.2074(7)
H12 H 0.1928 0.0324 0.1700
C15 C 0.2787(8) 0.4947(14) 0.5288(11)
H13 H 0.2941 0.5494 0.5757
C16 C 0.2271(5) 0.3191(14) 0.4522(7)
H14 H 0.2003 0.2312 0.4318
C17 C 0.2374(5) 0.3559(15) 0.5303(7)
H15 H 0.2203 0.2994 0.5759
C18 C 0.0882(5) 0.6148(15) 0.2986(7)
H16 H 0.0386 0.6220 0.3116
C19 C 0.1893(5) 0.6639(14) 0.2426(6)
H17 H 0.2262 0.7044 0.2089
C20 C 0.1197(6) 0.7058(15) 0.2413(8)
H18 H 0.0973 0.7826 0.2074
Li1 Li 0.3624(11) 0.722(3) 0.4254(12)
Li2 Li 0.3930(8) 1.225(2) 0.3592(11)
N1 N 0.4559(4) 0.6797(10) 0.4827(5)
N2 N 0.5055(4) 0.7960(9) 0.4975(5)
N3 N 0.4606(5) 1.0418(14) 0.3241(7)
N4 N 0.4896(4) 0.9268(11) 0.3737(5)
N5 N 0.5559(4) 1.0528(12) 0.4767(5)
N6 N 0.5632(6) 1.1680(15) 0.5361(8)
N7 N 0.2982(4) 0.1804(12) 0.2994(5)
N8 N 0.2488(4) 0.2985(9) 0.2855(5)
N9 N 0.2943(4) 0.5431(14) 0.4549(6)
N10 N 0.2624(4) 0.4319(12) 0.4083(5)
N11 N 0.1323(5) 0.5163(10) 0.3344(6)
N12 N 0.1968(4) 0.5538(13) 0.3007(5)
O1 O 0.3540(3) 0.9401(10) 0.4636(4)
O2 O 0.4177(6) 1.0237(11) 0.5840(7)
O3 O 0.4083(3) 1.2035(9) 0.4708(4)
O4 O 0.3986(3) 0.4399(10) 0.3170(5)
O5 O 0.3455(3) 0.7055(9) 0.3107(4)
O6 O 0.3358(5) 0.5234(10) 0.1960(7)
S1 S 0.40991(14) 1.0389(4) 0.49947(16)
S2 S 0.34395(14) 0.5408(4) 0.28192(16)
Li2_2 Li 0.3930(8) 0.225(2) 0.3592(11)
N7_2 N 0.2982(4) 1.1804(12) 0.2994(5)
O4_2 O 0.3986(3) 1.4399(10) 0.3170(5)
loop_
_geom_bond_atom_site_label_1
_geom_bond_atom_site_label_2
_geom_bond_site_symmetry_1
_geom_bond_site_symmetry_2
C1 N2 1_555 1_555
C2 N8 1_555 1_555
C3 H1 1_555 1_555
C4 H2 1_555 1_555
C5 C3 1_555 1_555
H3 C5 1_555 1_555
C6 H4 1_555 1_555
C7 H5 1_555 1_555
C8 C6 1_555 1_555
H6 C8 1_555 1_555
C9 H7 1_555 1_555
C10 H8 1_555 1_555
C11 C9 1_555 1_555
H9 C11 1_555 1_555
C12 H10 1_555 1_555
C13 H11 1_555 1_555
C14 C12 1_555 1_555
H12 C14 1_555 1_555
C15 H13 1_555 1_555
C16 H14 1_555 1_555
C17 C15 1_555 1_555
H15 C17 1_555 1_555
C18 H16 1_555 1_555
C19 H17 1_555 1_555
C20 C18 1_555 1_555
H18 C20 1_555 1_555
Li1 N1 1_555 1_555
Li2 N3 1_555 1_555
N1 C3 1_555 1_555
N2 C4 1_555 1_555
N3 C6 1_555 1_555
N4 C1 1_555 1_555
N5 C1 1_555 1_555
N6 C10 1_555 1_555
N7 C12 1_555 1_555
N8 C13 1_555 1_555
N9 C15 1_555 1_555
N10 C2 1_555 1_555
N11 C18 1_555 1_555
N12 C2 1_555 1_555
O1 Li1 1_555 1_555
O2 S1 1_555 1_555
O3 Li2 1_555 1_555
O4 S2 1_555 1_555
O5 Li1 1_555 1_555
O6 S2 1_555 1_555
S1 C1 1_555 1_555
S2 C2 1_555 1_555
Li2_2 N7 1_555 1_555
N7_2 Li2 1_555 1_555
O4_2 Li2 1_555 1_555
C4 C5 1_555 1_555
C7 C8 1_555 1_555
C7 N4 1_555 1_555
C9 N5 1_555 1_555
C10 C11 1_555 1_555
C13 C14 1_555 1_555
C16 C17 1_555 1_555
C16 N10 1_555 1_555
C19 C20 1_555 1_555
C19 N12 1_555 1_555
Li1 N9 1_555 1_555
N1 N2 1_555 1_555
N3 N4 1_555 1_555
N5 N6 1_555 1_555
N7 N8 1_555 1_555
N9 N10 1_555 1_555
N11 N12 1_555 1_555
O1 S1 1_555 1_555
O3 S1 1_555 1_555
O4 Li2_2 1_555 1_555
O5 S2 1_555 1_555

#END
