
#######################################################################
#
#                 Cambridge Crystallographic Data Centre
#                                CCDC 
#
#######################################################################
#
# If this CIF has been generated from an entry in the Cambridge 
# Structural Database, then it will include bibliographic, chemical, 
# crystal, experimental, refinement or atomic coordinate data resulting 
# from the CCDC's data processing and validation procedures.
#
#######################################################################

data_CACCUG
_symmetry_cell_setting           triclinic
_symmetry_space_group_name_H-M   'P -1'
_symmetry_Int_Tables_number      2
_space_group_name_Hall           '-P 1'
loop_
_symmetry_equiv_pos_site_id
_symmetry_equiv_pos_as_xyz
1 x,y,z
2 -x,-y,-z
_cell_length_a                   9.0626(3)
_cell_length_b                   9.7049(4)
_cell_length_c                   18.2776(7)
_cell_angle_alpha                76.707(3)
_cell_angle_beta                 85.340(3)
_cell_angle_gamma                87.154(3)
_cell_volume                     1558.51
loop_
_atom_site_label
_atom_site_type_symbol
_atom_site_fract_x
_atom_site_fract_y
_atom_site_fract_z
Ag1 Ag 0.44998(4) 0.02468(4) 0.227705(17)
N1 N 0.4544(3) -0.0799(3) 0.34740(17)
O1 O 0.3749(4) 0.2750(4) 0.2323(3)
O2 O 0.2120(5) 0.1702(4) 0.1825(2)
N2 N 0.5631(3) -0.0206(3) 0.12517(16)
C1 C 0.3650(4) -0.0488(4) 0.4060(2)
C2 C 0.5474(4) -0.1826(4) 0.3780(2)
C3 C 0.2585(6) 0.2738(5) 0.2040(3)
C4 C 0.5638(4) -0.1509(4) 0.10448(19)
C5 C 0.6497(4) 0.0631(4) 0.0726(2)
C6 C 0.2479(4) 0.0504(4) 0.4053(2)
C7 C 0.4071(4) -0.1343(4) 0.4742(2)
C8 C 0.6653(6) -0.2472(5) 0.3347(3)
N3 N 0.5233(4) -0.2191(3) 0.45419(19)
C9 C 0.1582(5) 0.4086(5) 0.1940(3)
C10 C 0.6533(4) -0.1424(4) 0.0376(2)
C11 C 0.4930(5) -0.2729(5) 0.1387(3)
N4 N 0.7060(3) -0.0057(3) 0.01862(16)
C12 C 0.6801(6) 0.2096(4) 0.0725(3)
H1 H 0.2183 0.1084 0.3606
C13 C 0.1773(5) 0.0579(5) 0.4754(3)
C14 C 0.3373(6) -0.1236(5) 0.5429(2)
H2 H 0.7185 -0.3193 0.3685
H3 H 0.7323 -0.1756 0.3084
H4 H 0.6218 -0.2885 0.2989
C15 C 0.6012(5) -0.3308(4) 0.5071(3)
C16 C 0.1576(5) 0.4917(5) 0.2485(3)
C17 C 0.0735(6) 0.4497(6) 0.1339(3)
C18 C 0.6750(5) -0.2547(5) 0.0035(2)
H5 H 0.4314 -0.2787 0.1825
C19 C 0.5170(6) -0.3859(5) 0.1056(3)
C20 C 0.8122(4) 0.0463(4) -0.0458(2)
H6 H 0.7445 0.2485 0.0291
H7 H 0.7269 0.2122 0.1174
H8 H 0.5888 0.2645 0.0709
H9 H 0.0979 0.1217 0.4773
C21 C 0.2219(6) -0.0262(5) 0.5413(3)
H10 H 0.3672 -0.1798 0.5880
H11 H 0.6197 -0.2965 0.5512
H12 H 0.6960 -0.3534 0.4833
C22 C 0.5106(5) -0.4646(4) 0.5313(3)
H13 H 0.2167 0.4639 0.2889
C23 C 0.0682(4) 0.6159(4) 0.2416(3)
C24 C -0.0090(6) 0.5717(6) 0.1268(3)
H14 H 0.0724 0.3948 0.0984
H15 H 0.7334 -0.2482 -0.0413
C25 C 0.6059(6) -0.3767(5) 0.0393(3)
H16 H 0.4725 -0.4711 0.1282
H17 H 0.8147 0.1487 -0.0551
H18 H 0.7792 0.0223 -0.0903
C26 C 0.9681(4) -0.0166(5) -0.0324(2)
H19 H 0.1722 -0.0169 0.5866
H20 H 0.5599 -0.5313 0.5705
H21 H 0.4142 -0.4401 0.5528
C27 C -0.0130(5) 0.6524(5) 0.1785(3)
N5 N 0.0551(5) 0.6961(4) 0.2951(3)
H22 H -0.0646 0.6011 0.0850
H23 H 0.6189 -0.4558 0.0186
H24 H 0.9654 -0.1187 -0.0249
H25 H 1.0325 0.0183 -0.0772
H26 H -0.0722 0.7348 0.1715
C28 C 0.1381(6) 0.6731(6) 0.3609(3)
H27 H 0.040(6) 0.779(3) 0.274(3)
H28 H 0.1581 0.7646 0.3702
H29 H 0.2327 0.6279 0.3501
C29 C 0.0648(4) 0.5844(4) 0.4318(3)
C30 C 0.0851(5) 0.6110(5) 0.5015(3)
C31 C -0.0217(5) 0.4700(5) 0.4314(3)
H30 H 0.1434 0.6861 0.5036
H31 H -0.0374 0.4475 0.3859
C22A C 0.4894(5) -0.5354(4) 0.4687(3)
C26A C 1.0319(4) 0.0166(5) 0.0324(2)
C15A C 0.3988(5) -0.6692(4) 0.4929(3)
H20A H 0.4401 -0.4687 0.4295
H21A H 0.5858 -0.5599 0.4472
C20A C 1.1878(4) -0.0463(4) 0.0458(2)
H24A H 1.0346 0.1187 0.0249
H25A H 0.9675 -0.0183 0.0772
H11A H 0.3803 -0.7035 0.4488
H12A H 0.3040 -0.6466 0.5167
N3A N 0.4767(4) -0.7809(3) 0.54581(19)
N4A N 1.2940(3) 0.0057(3) -0.01862(16)
H17A H 1.1853 -0.1487 0.0551
H18A H 1.2208 -0.0223 0.0903
C7A C 0.5929(4) -0.8657(4) 0.5258(2)
C2A C 0.4526(4) -0.8174(4) 0.6220(2)
C5A C 1.3503(4) -0.0631(4) -0.0726(2)
C10A C 1.3467(4) 0.1424(4) -0.0376(2)
C14A C 0.6627(6) -0.8764(5) 0.4571(2)
C1A C 0.6350(4) -0.9512(4) 0.5940(2)
C8A C 0.3347(6) -0.7528(5) 0.6653(3)
N1A N 0.5456(3) -0.9201(3) 0.65260(17)
C31A C 0.0217(5) 0.5300(5) 0.5686(3)
C30A C -0.0851(5) 0.3890(5) 0.4985(3)
N2A N 1.4369(3) 0.0206(3) -0.12517(16)
C12A C 1.3199(6) -0.2096(4) -0.0725(3)
C4A C 1.4362(4) 0.1509(4) -0.10448(19)
C18A C 1.3250(5) 0.2547(5) -0.0035(2)
C21A C 0.7781(6) -0.9738(5) 0.4587(3)
H10A H 0.6328 -0.8202 0.4120
C6A C 0.7521(4) -1.0504(4) 0.5947(2)
H2A H 0.2815 -0.6807 0.6315
H3A H 0.2677 -0.8244 0.6916
H4A H 0.3782 -0.7115 0.7011
Ag1A Ag 0.55002(4) -1.02468(4) 0.772295(17)
C29A C -0.0648(4) 0.4156(4) 0.5682(3)
H31A H 0.0374 0.5525 0.6141
H30A H -0.1434 0.3139 0.4964
Ag1A_2 Ag 1.55002(4) -0.02468(4) -0.227705(17)
H6A H 1.2555 -0.2485 -0.0291
H7A H 1.2731 -0.2122 -0.1174
H8A H 1.4112 -0.2645 -0.0709
C11A C 1.5070(5) 0.2729(5) -0.1387(3)
H15A H 1.2666 0.2482 0.0413
C25A C 1.3941(6) 0.3767(5) -0.0393(3)
C13A C 0.8227(5) -1.0579(5) 0.5246(3)
H19A H 0.8278 -0.9831 0.4134
H1A H 0.7817 -1.1084 0.6394
N2A_2 N 0.4369(3) -0.9794(3) 0.87483(16)
O2A O 0.7880(5) -1.1702(4) 0.8175(2)
O1A O 0.6251(4) -1.2750(4) 0.7677(3)
C28A C -0.1381(6) 0.3269(6) 0.6391(3)
H5A H 1.5686 0.2787 -0.1825
C19A C 1.4830(6) 0.3859(5) -0.1056(3)
H23A H 1.3811 0.4558 -0.0186
H9A H 0.9021 -1.1217 0.5227
H28A H -0.1581 0.2354 0.6298
H29A H -0.2327 0.3721 0.6499
N5A N -0.0551(5) 0.3039(4) 0.7049(3)
H16A H 1.5275 0.4711 -0.1282
C23A C -0.0682(4) 0.3841(4) 0.7584(3)
H27A H -0.040(6) 0.221(3) 0.726(3)
C16A C -0.1576(5) 0.5083(5) 0.7515(3)
C27A C 0.0130(5) 0.3476(5) 0.8215(3)
C9A C -0.1582(5) 0.5914(5) 0.8060(3)
H13A H -0.2167 0.5361 0.7111
H26A H 0.0722 0.2652 0.8285
C24A C 0.0090(6) 0.4283(6) 0.8732(3)
C3A C -0.2585(6) 0.7262(5) 0.7960(3)
C17A C -0.0735(6) 0.5503(6) 0.8661(3)
H22A H 0.0646 0.3989 0.9150
O1A_2 O -0.3749(4) 0.7250(4) 0.7677(3)
O2A_2 O -0.2120(5) 0.8298(4) 0.8175(2)
H14A H -0.0724 0.6052 0.9016
Ag1A_3 Ag -0.44998(4) 0.97532(4) 0.772295(17)
C32 C 0.6870(11) 0.4035(9) 0.2684(5)
O3 O 0.5366(8) 0.4083(8) 0.3040(3)
O4? O 0.6791(13) 0.2366(13) 0.2704(6)
C33? C 0.9069(15) 0.0522(16) 0.2409(8)
O5? O 0.9827(10) 0.0045(8) 0.2422(7)
loop_
_geom_bond_atom_site_label_1
_geom_bond_atom_site_label_2
_geom_bond_site_symmetry_1
_geom_bond_site_symmetry_2
Ag1 N1 1_555 1_555
N1 C1 1_555 1_555
O1 Ag1 1_555 1_555
O2 Ag1 1_555 1_555
N2 Ag1 1_555 1_555
C1 C6 1_555 1_555
C2 N1 1_555 1_555
C3 O1 1_555 1_555
C4 N2 1_555 1_555
C5 N2 1_555 1_555
C6 H1 1_555 1_555
C7 C1 1_555 1_555
C8 C2 1_555 1_555
N3 C2 1_555 1_555
C9 C3 1_555 1_555
C10 C4 1_555 1_555
C11 C4 1_555 1_555
N4 C5 1_555 1_555
C12 C5 1_555 1_555
C13 C6 1_555 1_555
C14 C7 1_555 1_555
H2 C8 1_555 1_555
H3 C8 1_555 1_555
H4 C8 1_555 1_555
C15 N3 1_555 1_555
C16 C9 1_555 1_555
C17 C9 1_555 1_555
C18 C10 1_555 1_555
H5 C11 1_555 1_555
C19 C11 1_555 1_555
C20 N4 1_555 1_555
H6 C12 1_555 1_555
H7 C12 1_555 1_555
H8 C12 1_555 1_555
H9 C13 1_555 1_555
C21 C13 1_555 1_555
H10 C14 1_555 1_555
H11 C15 1_555 1_555
H12 C15 1_555 1_555
C22 C15 1_555 1_555
H13 C16 1_555 1_555
C23 C16 1_555 1_555
C24 C17 1_555 1_555
H14 C17 1_555 1_555
H15 C18 1_555 1_555
C25 C18 1_555 1_555
H16 C19 1_555 1_555
H17 C20 1_555 1_555
H18 C20 1_555 1_555
C26 C20 1_555 1_555
H19 C21 1_555 1_555
H20 C22 1_555 1_555
H21 C22 1_555 1_555
C27 C23 1_555 1_555
N5 C23 1_555 1_555
H22 C24 1_555 1_555
H23 C25 1_555 1_555
H24 C26 1_555 1_555
H25 C26 1_555 1_555
H26 C27 1_555 1_555
C28 N5 1_555 1_555
H27 N5 1_555 1_555
H28 C28 1_555 1_555
H29 C28 1_555 1_555
C29 C28 1_555 1_555
C30 C29 1_555 1_555
C31 C29 1_555 1_555
H30 C30 1_555 1_555
H31 C31 1_555 1_555
C32 O3 1_555 1_555
C22A C22 1_555 1_555
C26A C26 1_555 1_555
C15A C22A 1_555 1_555
H20A C22A 1_555 1_555
H21A C22A 1_555 1_555
C20A C26A 1_555 1_555
H24A C26A 1_555 1_555
H25A C26A 1_555 1_555
H11A C15A 1_555 1_555
H12A C15A 1_555 1_555
N3A C15A 1_555 1_555
N4A C20A 1_555 1_555
H17A C20A 1_555 1_555
H18A C20A 1_555 1_555
C7A N3A 1_555 1_555
C2A N3A 1_555 1_555
C5A N4A 1_555 1_555
C10A N4A 1_555 1_555
C14A C7A 1_555 1_555
C1A C7A 1_555 1_555
C8A C2A 1_555 1_555
N1A C2A 1_555 1_555
C31A C30 1_555 1_555
C30A C31 1_555 1_555
N2A C5A 1_555 1_555
C12A C5A 1_555 1_555
C4A C10A 1_555 1_555
C18A C10A 1_555 1_555
C21A C14A 1_555 1_555
H10A C14A 1_555 1_555
C6A C1A 1_555 1_555
H2A C8A 1_555 1_555
H3A C8A 1_555 1_555
H4A C8A 1_555 1_555
Ag1A N1A 1_555 1_555
C29A C31A 1_555 1_555
H31A C31A 1_555 1_555
H30A C30A 1_555 1_555
Ag1A_2 N2A 1_555 1_555
H6A C12A 1_555 1_555
H7A C12A 1_555 1_555
H8A C12A 1_555 1_555
C11A C4A 1_555 1_555
H15A C18A 1_555 1_555
C25A C18A 1_555 1_555
C13A C21A 1_555 1_555
H19A C21A 1_555 1_555
H1A C6A 1_555 1_555
N2A_2 Ag1A 1_555 1_555
O2A Ag1A 1_555 1_555
O1A Ag1A 1_555 1_555
C28A C29A 1_555 1_555
H5A C11A 1_555 1_555
C19A C11A 1_555 1_555
H23A C25A 1_555 1_555
H9A C13A 1_555 1_555
H28A C28A 1_555 1_555
H29A C28A 1_555 1_555
N5A C28A 1_555 1_555
H16A C19A 1_555 1_555
C23A N5A 1_555 1_555
H27A N5A 1_555 1_555
C16A C23A 1_555 1_555
C27A C23A 1_555 1_555
C9A C16A 1_555 1_555
H13A C16A 1_555 1_555
H26A C27A 1_555 1_555
C24A C27A 1_555 1_555
C3A C9A 1_555 1_555
C17A C9A 1_555 1_555
H22A C24A 1_555 1_555
O1A_2 C3A 1_555 1_555
O2A_2 C3A 1_555 1_555
H14A C17A 1_555 1_555
Ag1A_3 O1A_2 1_555 1_555
O2 C3 1_555 1_555
C7 N3 1_555 1_555
C10 N4 1_555 1_555
C14 C21 1_555 1_555
C19 C25 1_555 1_555
C24 C27 1_555 1_555
C1A N1A 1_555 1_555
C30A C29A 1_555 1_555
N2A C4A 1_555 1_555
C6A C13A 1_555 1_555
C25A C19A 1_555 1_555
C24A C17A 1_555 1_555
O2A_2 Ag1A_3 1_555 1_555

#END
