
#######################################################################
#
#                 Cambridge Crystallographic Data Centre
#                                CCDC 
#
#######################################################################
#
# If this CIF has been generated from an entry in the Cambridge 
# Structural Database, then it will include bibliographic, chemical, 
# crystal, experimental, refinement or atomic coordinate data resulting 
# from the CCDC's data processing and validation procedures.
#
#######################################################################

data_CACHIY
_symmetry_cell_setting           triclinic
_symmetry_space_group_name_H-M   'P -1'
_symmetry_Int_Tables_number      2
_space_group_name_Hall           '-P 1'
loop_
_symmetry_equiv_pos_site_id
_symmetry_equiv_pos_as_xyz
1 x,y,z
2 -x,-y,-z
_cell_length_a                   8.0932(7)
_cell_length_b                   8.8946(8)
_cell_length_c                   13.755(1)
_cell_angle_alpha                79.873(2)
_cell_angle_beta                 84.699(2)
_cell_angle_gamma                80.517(2)
_cell_volume                     959.365
loop_
_atom_site_label
_atom_site_type_symbol
_atom_site_fract_x
_atom_site_fract_y
_atom_site_fract_z
Fe1 Fe 0.5000 0.0000 0.0000
Mo1 Mo 0.1539(1) 0.3186(1) -0.0760(1)
Mo2 Mo 0.3071(1) -0.3773(1) 0.0493(1)
O1 O 0.2765(4) 0.1383(4) -0.0385(2)
O2 O -0.0646(4) 0.2877(4) -0.0678(2)
O3 O 0.2155(5) 0.3850(4) -0.1961(3)
O4 O 0.1894(4) 0.4514(4) 0.0011(3)
O5 O 0.5000 -0.5000 0.0000
O6 O 0.3881(4) -0.2066(4) 0.0409(2)
O7 O 0.3186(4) -0.4575(4) 0.1704(2)
C1 C 0.6852(6) 0.2898(5) -0.7962(4)
C2 C 0.7086(6) 0.1996(6) -0.7022(4)
C3 C 0.8208(6) 0.0623(5) -0.6971(3)
C4 C 0.9016(6) 0.0197(5) -0.7849(3)
C5 C 0.8644(6) 0.1151(5) -0.8736(3)
C6 C 0.6498(6) -0.1676(6) -0.1687(3)
C7 C 0.7323(6) -0.1950(5) -0.2581(3)
C8 C 0.7170(6) -0.0760(6) -0.3405(3)
C9 C 0.6157(6) 0.0617(6) -0.3288(4)
C10 C 0.5444(6) 0.0826(5) -0.2349(3)
C11 C 0.8075(6) -0.1033(6) -0.4361(3)
C12 C 0.8568(6) -0.0414(5) -0.6008(3)
C13 C 1.0102(6) -0.2512(5) -0.5173(3)
C14 C 1.1474(6) -0.3848(6) -0.5158(4)
C15 C 1.1906(6) -0.4800(6) -0.4267(3)
C16 C 1.3154(6) -0.6064(6) -0.4302(4)
C17 C 1.3593(6) -0.5469(6) -0.5974(4)
C18 C 1.2338(6) -0.4198(6) -0.6032(4)
N1 N 0.7614(5) 0.2503(5) -0.8802(3)
N2 N 0.5617(5) -0.0310(5) -0.1549(3)
N3 N 0.7671(5) -0.0059(5) -0.5186(3)
N4 N 0.9802(5) -0.1611(5) -0.6047(3)
N5 N 0.9284(5) -0.2276(5) -0.4303(3)
N6 N 1.4013(5) -0.6431(5) -0.5133(3)
H1 H 0.6121 0.3827 -0.7999
H2 H 0.6512 0.2306 -0.6455
H3 H 0.9785 -0.0706 -0.7836
H4 H 0.9138 0.0834 -0.9319
H5 H 0.6559 -0.2483 -0.1155
H6 H 0.7967 -0.2903 -0.2636
H7 H 0.5953 0.1395 -0.3829
H8 H 0.4828 0.1780 -0.2268
H9 H 1.1370 -0.4590 -0.3667
H10 H 1.3415 -0.6703 -0.3708
H11 H 1.4189 -0.5673 -0.6560
H12 H 1.2081 -0.3596 -0.6638
O1A O 0.7235(4) -0.1383(4) 0.0385(2)
O6A O 0.6119(4) 0.2066(4) -0.0409(2)
C1A C 0.3148(6) -0.2898(5) 0.7962(4)
C2A C 0.2914(6) -0.1996(6) 0.7022(4)
C3A C 0.1792(6) -0.0623(5) 0.6971(3)
C4A C 0.0984(6) -0.0197(5) 0.7849(3)
C5A C 0.1356(6) -0.1151(5) 0.8736(3)
C6A C 0.3502(6) 0.1676(6) 0.1687(3)
C7A C 0.2677(6) 0.1950(5) 0.2581(3)
C8A C 0.2830(6) 0.0760(6) 0.3405(3)
C9A C 0.3843(6) -0.0617(6) 0.3288(4)
C10A C 0.4556(6) -0.0826(5) 0.2349(3)
C11A C 0.1925(6) 0.1033(6) 0.4361(3)
C12A C 0.1432(6) 0.0414(5) 0.6008(3)
C13A C -0.0102(6) 0.2512(5) 0.5173(3)
C14A C -0.1474(6) 0.3848(6) 0.5158(4)
C15A C -0.1906(6) 0.4800(6) 0.4267(3)
C16A C -0.3154(6) 0.6064(6) 0.4302(4)
C17A C -0.3593(6) 0.5469(6) 0.5974(4)
C18A C -0.2338(6) 0.4198(6) 0.6032(4)
N1A N 0.2386(5) -0.2503(5) 0.8802(3)
N2A N 0.4383(5) 0.0310(5) 0.1549(3)
N3A N 0.2329(5) 0.0059(5) 0.5186(3)
N4A N 0.0198(5) 0.1611(5) 0.6047(3)
N5A N 0.0716(5) 0.2276(5) 0.4303(3)
N6A N -0.4013(5) 0.6431(5) 0.5133(3)
H1A H 0.3879 -0.3827 0.7999
H2A H 0.3488 -0.2306 0.6455
H3A H 0.0215 0.0706 0.7836
H4A H 0.0862 -0.0834 0.9319
H5A H 0.3441 0.2483 0.1155
H6A H 0.2033 0.2903 0.2636
H7A H 0.4047 -0.1395 0.3829
H8A H 0.5172 -0.1780 0.2268
H9A H -0.1370 0.4590 0.3667
H10A H -0.3415 0.6703 0.3708
H11A H -0.4189 0.5673 0.6560
H12A H -0.2081 0.3596 0.6638
Mo1A Mo 0.8461(1) -0.3186(1) 0.0760(1)
Mo2A Mo 0.6929(1) 0.3773(1) -0.0493(1)
O2A O 0.0646(4) -0.2877(4) 0.0678(2)
O4_2 O 0.1894(4) -0.5486(4) 0.0011(3)
O3A O 0.7845(5) -0.3850(4) 0.1961(3)
O7A O 0.6814(4) 0.4575(4) -0.1704(2)
N1A_2 N 0.2386(5) -0.2503(5) -0.1198(3)
Mo2A_2 Mo -0.3071(1) 0.3773(1) -0.0493(1)
Mo2_2 Mo 0.3071(1) 0.6227(1) 0.0493(1)
Mo2A_3 Mo 0.6929(1) -0.6227(1) -0.0493(1)
Mo2A_4 Mo 0.6929(1) 0.3773(1) -1.0493(1)
Mo2_3 Mo 0.3071(1) -0.3773(1) 1.0493(1)
O2A_2 O 1.0646(4) -0.2877(4) 0.0678(2)
O4A O 0.8106(4) -0.4514(4) -0.0011(3)
O2_2 O 0.9354(4) 0.2877(4) -0.0678(2)
O4A_2 O 0.8106(4) 0.5486(4) -0.0011(3)
O5_2 O 0.5000 0.5000 0.0000
N1_2 N 0.7614(5) 0.2503(5) 0.1198(3)
Mo1A_2 Mo -0.1539(1) -0.3186(1) 0.0760(1)
Mo1_2 Mo 0.1539(1) -0.6814(1) -0.0760(1)
loop_
_geom_bond_atom_site_label_1
_geom_bond_atom_site_label_2
_geom_bond_site_symmetry_1
_geom_bond_site_symmetry_2
Fe1 O1 1_555 1_555
Mo1 O1 1_555 1_555
Mo2 O5 1_555 1_555
O2 Mo1 1_555 1_555
O3 Mo1 1_555 1_555
O4 Mo1 1_555 1_555
O5 Mo2A_3 1_555 1_555
O6 Fe1 1_555 1_555
O7 Mo2 1_555 1_555
C1 C2 1_555 1_555
C2 C3 1_555 1_555
C3 C4 1_555 1_555
C4 C5 1_555 1_555
C5 N1 1_555 1_555
C6 C7 1_555 1_555
C7 C8 1_555 1_555
C8 C9 1_555 1_555
C9 C10 1_555 1_555
C10 N2 1_555 1_555
C11 C8 1_555 1_555
C12 C3 1_555 1_555
C13 C14 1_555 1_555
C14 C15 1_555 1_555
C15 C16 1_555 1_555
C16 N6 1_555 1_555
C17 C18 1_555 1_555
C18 C14 1_555 1_555
N1 C1 1_555 1_555
N2 Fe1 1_555 1_555
N3 C11 1_555 1_555
N4 C12 1_555 1_555
N5 C11 1_555 1_555
N6 C17 1_555 1_555
H1 C1 1_555 1_555
H2 C2 1_555 1_555
H3 C4 1_555 1_555
H4 C5 1_555 1_555
H5 C6 1_555 1_555
H6 C7 1_555 1_555
H7 C9 1_555 1_555
H8 C10 1_555 1_555
H9 C15 1_555 1_555
H10 C16 1_555 1_555
H11 C17 1_555 1_555
H12 C18 1_555 1_555
O1A Fe1 1_555 1_555
O6A Fe1 1_555 1_555
C1A C2A 1_555 1_555
C2A C3A 1_555 1_555
C3A C4A 1_555 1_555
C4A C5A 1_555 1_555
C5A N1A 1_555 1_555
C6A C7A 1_555 1_555
C7A C8A 1_555 1_555
C8A C9A 1_555 1_555
C9A C10A 1_555 1_555
C10A N2A 1_555 1_555
C11A C8A 1_555 1_555
C12A C3A 1_555 1_555
C13A C14A 1_555 1_555
C14A C15A 1_555 1_555
C15A C16A 1_555 1_555
C16A N6A 1_555 1_555
C17A C18A 1_555 1_555
C18A C14A 1_555 1_555
N1A C1A 1_555 1_555
N2A Fe1 1_555 1_555
N3A C11A 1_555 1_555
N4A C12A 1_555 1_555
N5A C11A 1_555 1_555
N6A C17A 1_555 1_555
H1A C1A 1_555 1_555
H2A C2A 1_555 1_555
H3A C4A 1_555 1_555
H4A C5A 1_555 1_555
H5A C6A 1_555 1_555
H6A C7A 1_555 1_555
H7A C9A 1_555 1_555
H8A C10A 1_555 1_555
H9A C15A 1_555 1_555
H10A C16A 1_555 1_555
H11A C17A 1_555 1_555
H12A C18A 1_555 1_555
Mo1A O1A 1_555 1_555
Mo2A O6A 1_555 1_555
O2A Mo2 1_555 1_555
O4_2 Mo2 1_555 1_555
O3A Mo1A 1_555 1_555
O7A Mo2A 1_555 1_555
N1A_2 Mo2 1_555 1_555
Mo2A_2 O2 1_555 1_555
Mo2_2 O4 1_555 1_555
Mo2A_3 O4A 1_555 1_555
Mo2A_4 N1 1_555 1_555
Mo2_3 N1A 1_555 1_555
O2A_2 Mo1A 1_555 1_555
O4A Mo1A 1_555 1_555
O2_2 Mo2A 1_555 1_555
O4A_2 Mo2A 1_555 1_555
O5_2 Mo2A 1_555 1_555
N1_2 Mo2A 1_555 1_555
Mo1A_2 O2A 1_555 1_555
Mo1_2 O4_2 1_555 1_555
Mo2 O6 1_555 1_555
C6 N2 1_555 1_555
C12 N3 1_555 1_555
C13 N4 1_555 1_555
C13 N5 1_555 1_555
C6A N2A 1_555 1_555
C12A N3A 1_555 1_555
C13A N4A 1_555 1_555
C13A N5A 1_555 1_555
Mo2_2 O5_2 1_555 1_555

#END
