
#######################################################################
#
#                 Cambridge Crystallographic Data Centre
#                                CCDC 
#
#######################################################################
#
# If this CIF has been generated from an entry in the Cambridge 
# Structural Database, then it will include bibliographic, chemical, 
# crystal, experimental, refinement or atomic coordinate data resulting 
# from the CCDC's data processing and validation procedures.
#
#######################################################################

data_CACQOO
_symmetry_cell_setting           monoclinic
_symmetry_space_group_name_H-M   'P 21/c'
_symmetry_Int_Tables_number      14
_space_group_name_Hall           '-P 2ybc'
loop_
_symmetry_equiv_pos_site_id
_symmetry_equiv_pos_as_xyz
1 x,y,z
2 -x,1/2+y,1/2-z
3 -x,-y,-z
4 x,1/2-y,1/2+z
_cell_length_a                   7.087(3)
_cell_length_b                   15.029(6)
_cell_length_c                   14.020(6)
_cell_angle_alpha                90
_cell_angle_beta                 101.390(7)
_cell_angle_gamma                90
_cell_volume                     1463.87
loop_
_atom_site_label
_atom_site_type_symbol
_atom_site_fract_x
_atom_site_fract_y
_atom_site_fract_z
Co1 Co 0.35318(5) -0.18453(2) -0.17033(2)
S1 S 0.59350(10) -0.15071(5) 0.04268(5)
O1 O 0.1928(3) -0.25409(14) -0.28607(14)
O2 O 0.1094(3) -0.14684(15) -0.11698(16)
O3 O 0.6038(3) -0.22150(15) -0.21878(15)
O5 O 0.2303(2) -0.51523(11) -0.03513(11)
O6 O 0.5227(3) -0.11434(12) -0.06013(12)
O7 O 0.3234(3) -0.43443(12) 0.24740(12)
O8 O 0.3686(3) -0.29777(12) -0.08029(12)
O9 O 0.2317(3) -0.40598(12) -0.18246(13)
O10 O 0.1187(3) -0.71902(12) 0.06465(12)
O11 O 0.0918(3) -0.67319(12) -0.09004(13)
C1 C 0.2922(3) -0.43152(16) -0.01090(17)
C2 C 0.3326(3) -0.40159(17) 0.08212(18)
H1 H 0.3802 -0.3429 0.0956
C3 C 0.3035(3) -0.45865(17) 0.16091(17)
C4 C 0.2432(3) -0.54820(17) 0.13104(18)
H2 H 0.2272 -0.5906 0.1791
C5 C 0.2097(3) -0.57260(17) 0.03783(17)
C6 C 0.2988(4) -0.37376(17) -0.09978(18)
C7 C 0.8062(4) -0.0876(2) 0.0858(2)
H3 H 0.7754 -0.0240 0.0809
H4 H 0.8580 -0.1030 0.1538
H5 H 0.9022 -0.1011 0.0463
C8 C 0.4397(4) -0.1005(2) 0.1134(2)
H6 H 0.3067 -0.1197 0.0889
H7 H 0.4799 -0.1186 0.1815
H8 H 0.4478 -0.0357 0.1086
C9 C 0.1343(3) -0.66351(17) 0.00028(18)
H9 H 0.098(5) -0.236(2) -0.326(2)
H10 H 0.186(5) -0.305(2) -0.269(3)
H11 H 0.065(4) -0.187(2) -0.094(2)
H12 H 0.039(5) -0.121(2) -0.149(3)
H13 H 0.668(6) -0.241(3) -0.179(3)
H14 H 0.649(5) -0.175(2) -0.233(2)
Co1C Co 0.35318(5) -0.31547(2) 0.32967(2)
O7C O 0.3234(3) -0.06557(12) -0.25260(12)
O4 O 0.8239(3) -0.41907(14) 0.24123(14)
H15 H 0.794(4) -0.4733(14) 0.224(2)
H16 H 0.835(6) -0.398(3) 0.1880(19)
loop_
_geom_bond_atom_site_label_1
_geom_bond_atom_site_label_2
_geom_bond_site_symmetry_1
_geom_bond_site_symmetry_2
Co1 O1 1_555 1_555
S1 O6 1_555 1_555
O1 H9 1_555 1_555
O2 Co1 1_555 1_555
O3 Co1 1_555 1_555
O4 H15 1_555 1_555
O5 C1 1_555 1_555
O6 Co1 1_555 1_555
O7 C3 1_555 1_555
O8 Co1 1_555 1_555
O9 C6 1_555 1_555
O10 C9 1_555 1_555
O11 C9 1_555 1_555
C1 C2 1_555 1_555
C2 H1 1_555 1_555
C3 C2 1_555 1_555
C4 C3 1_555 1_555
H2 C4 1_555 1_555
C5 O5 1_555 1_555
C6 O8 1_555 1_555
C7 S1 1_555 1_555
H3 C7 1_555 1_555
H4 C7 1_555 1_555
H5 C7 1_555 1_555
C8 S1 1_555 1_555
H6 C8 1_555 1_555
H7 C8 1_555 1_555
H8 C8 1_555 1_555
C9 C5 1_555 1_555
H10 O1 1_555 1_555
H11 O2 1_555 1_555
H12 O2 1_555 1_555
H13 O3 1_555 1_555
H14 O3 1_555 1_555
H16 O4 1_555 1_555
Co1C O7 1_555 1_555
O7C Co1 1_555 1_555
C1 C6 1_555 1_555
C4 C5 1_555 1_555

#END
