
#######################################################################
#
#                 Cambridge Crystallographic Data Centre
#                                CCDC 
#
#######################################################################
#
# If this CIF has been generated from an entry in the Cambridge 
# Structural Database, then it will include bibliographic, chemical, 
# crystal, experimental, refinement or atomic coordinate data resulting 
# from the CCDC's data processing and validation procedures.
#
#######################################################################

data_CACQII
_symmetry_cell_setting           monoclinic
_symmetry_space_group_name_H-M   'P 21/c'
_symmetry_Int_Tables_number      14
_space_group_name_Hall           '-P 2ybc'
loop_
_symmetry_equiv_pos_site_id
_symmetry_equiv_pos_as_xyz
1 x,y,z
2 -x,1/2+y,1/2-z
3 -x,-y,-z
4 x,1/2-y,1/2+z
_cell_length_a                   5.1702(5)
_cell_length_b                   15.7299(14)
_cell_length_c                   18.3627(17)
_cell_angle_alpha                90
_cell_angle_beta                 95.926(2)
_cell_angle_gamma                90
_cell_volume                     1485.4
loop_
_atom_site_label
_atom_site_type_symbol
_atom_site_fract_x
_atom_site_fract_y
_atom_site_fract_z
Co1 Co 0.04613(10) 0.91759(3) 0.29514(3)
O1 O -0.1088(5) 0.78257(15) 0.55826(13)
O2 O -0.1460(5) 0.85876(16) 0.37800(14)
O3 O 0.0882(5) 0.90092(18) 0.48054(15)
O4 O -0.7739(5) 0.65581(17) 0.48837(15)
O5 O -0.1472(5) 0.66095(16) 0.71689(13)
O6 O 0.1629(5) 0.74847(17) 0.68427(14)
C1 C -0.2294(7) 0.7943(2) 0.4893(2)
C2 C -0.4482(7) 0.7544(2) 0.4646(2)
H1 H -0.5231 0.7653 0.4172
C3 C -0.5717(7) 0.6945(2) 0.5094(2)
C4 C -0.4319(7) 0.6816(2) 0.5811(2)
H2 H -0.4953 0.6428 0.6131
C5 C -0.2134(7) 0.7244(2) 0.6020(2)
C6 C -0.0827(7) 0.8573(2) 0.4465(2)
C7 C -0.0498(7) 0.7109(2) 0.6739(2)
O7 O 0.3537(6) 0.8321(2) 0.30624(18)
H3 H 0.354(8) 0.807(3) 0.265(2)
H4 H 0.477(10) 0.861(4) 0.314(4)
O8 O -0.2567(6) 1.0043(2) 0.27374(18)
H5 H -0.400(8) 0.991(3) 0.249(2)
H6 H -0.274(8) 1.036(3) 0.311(2)
O9 O 0.2161(6) 1.0026(2) 0.37372(16)
H7 H 0.190(11) 0.979(4) 0.423(3)
H8 H 0.331(10) 1.046(3) 0.375(3)
S1 S 0.08135(19) 1.03368(7) 0.15286(5)
O10 O 0.2367(4) 0.97794(17) 0.21009(13)
C8 C 0.2693(8) 1.0355(3) 0.0781(2)
H9 H 0.4463 1.0490 0.0951
H10 H 0.2014 1.0777 0.0435
H11 H 0.2624 0.9807 0.0549
C9 C 0.1321(9) 1.1396(3) 0.1844(3)
H12 H 0.0308 1.1498 0.2245
H13 H 0.0799 1.1785 0.1453
H14 H 0.3130 1.1478 0.2005
Co1C Co 0.04613(10) 0.58241(3) 0.79514(3)
O5C O -0.1472(5) 0.83905(16) 0.21689(13)
O11 O 0.3614(6) 0.6119(2) 0.1177(2)
H15 H 0.295(8) 0.605(3) 0.078(2)
H16 H 0.318(9) 0.655(3) 0.133(2)
loop_
_geom_bond_atom_site_label_1
_geom_bond_atom_site_label_2
_geom_bond_site_symmetry_1
_geom_bond_site_symmetry_2
Co1 O2 1_555 1_555
O1 C1 1_555 1_555
O2 C6 1_555 1_555
O3 C6 1_555 1_555
O4 C3 1_555 1_555
O5 C7 1_555 1_555
O6 C7 1_555 1_555
C1 C2 1_555 1_555
C2 H1 1_555 1_555
C3 C2 1_555 1_555
C4 C3 1_555 1_555
H2 C4 1_555 1_555
C5 O1 1_555 1_555
C6 C1 1_555 1_555
C7 C5 1_555 1_555
O7 Co1 1_555 1_555
H3 O7 1_555 1_555
H4 O7 1_555 1_555
O8 Co1 1_555 1_555
H5 O8 1_555 1_555
H6 O8 1_555 1_555
O9 Co1 1_555 1_555
H7 O9 1_555 1_555
H8 O9 1_555 1_555
S1 O10 1_555 1_555
O10 Co1 1_555 1_555
C8 S1 1_555 1_555
H9 C8 1_555 1_555
H10 C8 1_555 1_555
H11 C8 1_555 1_555
C9 S1 1_555 1_555
H12 C9 1_555 1_555
H13 C9 1_555 1_555
H14 C9 1_555 1_555
O11 H15 1_555 1_555
H16 O11 1_555 1_555
Co1C O5 1_555 1_555
O5C Co1 1_555 1_555
C4 C5 1_555 1_555

#END
