
#######################################################################
#
#                 Cambridge Crystallographic Data Centre
#                                CCDC 
#
#######################################################################
#
# If this CIF has been generated from an entry in the Cambridge 
# Structural Database, then it will include bibliographic, chemical, 
# crystal, experimental, refinement or atomic coordinate data resulting 
# from the CCDC's data processing and validation procedures.
#
#######################################################################

data_CACSEG
_symmetry_cell_setting           orthorhombic
_symmetry_space_group_name_H-M   'P b c a'
_symmetry_Int_Tables_number      61
_space_group_name_Hall           '-P 2ac 2ab'
loop_
_symmetry_equiv_pos_site_id
_symmetry_equiv_pos_as_xyz
1 x,y,z
2 1/2-x,-y,1/2+z
3 -x,1/2+y,1/2-z
4 1/2+x,1/2-y,-z
5 -x,-y,-z
6 1/2+x,y,1/2-z
7 x,1/2-y,1/2+z
8 1/2-x,1/2+y,z
_cell_length_a                   14.5587(14)
_cell_length_b                   20.683(2)
_cell_length_c                   23.360(2)
_cell_angle_alpha                90
_cell_angle_beta                 90
_cell_angle_gamma                90
_cell_volume                     7034.11
loop_
_atom_site_label
_atom_site_type_symbol
_atom_site_fract_x
_atom_site_fract_y
_atom_site_fract_z
La1 La -0.17631(4) 0.21786(3) 1.09743(2)
La2 La 0.07563(4) 0.35583(3) 1.02365(3)
N1 N -0.2431(8) 0.2175(5) 1.2093(4)
N2 N -0.0844(8) 0.1521(5) 1.1844(4)
O1 O -0.0372(5) 0.1712(4) 1.0581(3)
O2 O 0.0681(5) 0.2453(4) 1.0581(3)
O3 O 0.3744(5) 0.1893(3) 0.9711(3)
O4 O 0.4262(5) 0.0966(3) 1.0045(3)
O5 O -0.0977(5) 0.2999(4) 1.1545(3)
O6 O 0.0073(5) 0.3674(3) 1.1205(3)
O7 O -0.1314(5) 0.5763(4) 1.0568(3)
O8 O -0.2450(6) 0.6178(4) 1.1058(4)
O9 O -0.3210(5) 0.2744(4) 1.0953(3)
O10 O -0.4320(6) 0.2120(4) 1.0591(3)
O11 O -0.7862(5) 0.3770(4) 1.0794(4)
O12 O -0.7313(5) 0.3163(4) 1.0095(3)
O13 O 0.0761(6) 0.4763(3) 1.0553(3)
H1 H 0.0776 0.5149 1.0430
H2 H 0.0961 0.4758 1.0895
C1 C 0.0385(8) 0.1881(6) 1.0501(5)
C2 C 0.3579(7) 0.1347(5) 0.9917(4)
C3 C 0.1096(8) 0.1389(5) 1.0318(5)
C4 C 0.1984(7) 0.1578(5) 1.0203(4)
H5 H 0.2146 0.2011 1.0239
C5 C 0.2641(7) 0.1130(5) 1.0033(4)
C6 C 0.2389(8) 0.0488(5) 0.9979(5)
H6 H 0.2827 0.0184 0.9873
C7 C 0.1507(8) 0.0297(6) 1.0078(5)
H7 H 0.1354 -0.0138 1.0037
C8 C 0.0821(8) 0.0742(6) 1.0242(5)
H8 H 0.0216 0.0613 1.0298
C9 C -0.0653(7) 0.3547(5) 1.1440(4)
C10 C -0.1872(8) 0.5746(5) 1.0974(5)
C11 C -0.1303(8) 0.4111(5) 1.1589(5)
C12 C -0.1279(8) 0.4669(5) 1.1265(5)
H9 H -0.0843 0.4704 1.0975
C13 C -0.1869(8) 0.5172(5) 1.1352(5)
C14 C -0.2494(8) 0.5115(6) 1.1796(5)
H10 H -0.2912 0.5446 1.1864
C15 C -0.2502(10) 0.4569(6) 1.2137(6)
H11 H -0.2902 0.4551 1.2447
C16 C -0.1935(8) 0.4056(6) 1.2030(6)
H12 H -0.1973 0.3680 1.2247
C17 C -0.4043(9) 0.2631(7) 1.0817(5)
C18 C -0.7189(8) 0.3493(6) 1.0537(5)
C19 C -0.4758(7) 0.3144(5) 1.0947(5)
C20 C -0.5575(8) 0.3082(6) 1.0705(5)
H13 H -0.5686 0.2736 1.0460
C21 C -0.6281(8) 0.3536(6) 1.0813(5)
C22 C -0.6084(9) 0.4057(6) 1.1178(6)
H14 H -0.6542 0.4350 1.1277
C23 C -0.5166(9) 0.4136(7) 1.1400(6)
H15 H -0.4999 0.4493 1.1619
C24 C -0.4573(9) 0.3671(6) 1.1275(6)
H16 H -0.3982 0.3709 1.1422
C25 C -0.3199(10) 0.2470(7) 1.2237(6)
H17 H -0.3576 0.2620 1.1945
C26 C -0.3485(12) 0.2570(8) 1.2807(7)
H18 H -0.4035 0.2779 1.2889
C27 C -0.2955(13) 0.2362(8) 1.3209(7)
H19 H -0.3134 0.2424 1.3587
C28 C -0.2138(12) 0.2053(8) 1.3104(6)
C29 C -0.1899(10) 0.1957(7) 1.2529(6)
C30 C -0.1096(11) 0.1614(7) 1.2392(6)
C31 C -0.0481(12) 0.1355(8) 1.2841(7)
C32 C 0.0198(12) 0.0990(9) 1.2702(7)
H20 H 0.0545 0.0789 1.2984
C33 C 0.0396(11) 0.0902(8) 1.2168(8)
H21 H 0.0908 0.0652 1.2080
C34 C -0.0099(9) 0.1154(7) 1.1726(6)
H22 H 0.0073 0.1075 1.1349
C35 C -0.1554(12) 0.1801(9) 1.3538(7)
H23 H -0.1727 0.1848 1.3919
C36 C -0.0720(13) 0.1482(9) 1.3411(7)
H24 H -0.0330 0.1356 1.3706
La1C La 0.32369(4) 0.28214(3) 0.90257(2)
La1G La -0.32369(4) 0.71786(3) 1.09743(2)
La1C_2 La -0.67631(4) 0.28214(3) 0.90257(2)
La2C La 0.57563(4) 0.14417(3) 0.97635(3)
La2D La -0.07563(4) 0.64417(3) 0.97635(3)
La2C_2 La -0.42437(4) 0.14417(3) 0.97635(3)
La2_2 La -0.92437(4) 0.35583(3) 1.02365(3)
O3C O -0.1256(5) 0.3107(3) 1.0289(3)
O4C O -0.0738(5) 0.4034(3) 0.9955(3)
O7D O 0.1314(5) 0.4237(4) 0.9432(3)
O8G O -0.2550(6) 0.1178(4) 1.1058(4)
O10C O 0.0680(6) 0.2880(4) 0.9409(3)
O11_2 O 0.2138(5) 0.3770(4) 1.0794(4)
O12C O -0.2313(5) 0.1837(4) 0.9905(3)
O12_2 O 0.2687(5) 0.3163(4) 1.0095(3)
O14 O 0.3641(14) 0.5377(10) 0.6668(8)
H3 H 0.4073 0.5640 0.6744
H4 H 0.3174 0.5595 0.6564
Br1? Br 0.3374(10) 0.5516(8) 0.7259(6)
loop_
_geom_bond_atom_site_label_1
_geom_bond_atom_site_label_2
_geom_bond_site_symmetry_1
_geom_bond_site_symmetry_2
La1 N1 1_555 1_555
La2 O2 1_555 1_555
N1 C25 1_555 1_555
N2 La1 1_555 1_555
O1 La1 1_555 1_555
O2 C1 1_555 1_555
O3 C2 1_555 1_555
O4 C2 1_555 1_555
O5 La1 1_555 1_555
O6 La2 1_555 1_555
O7 C10 1_555 1_555
O8 C10 1_555 1_555
O9 La1 1_555 1_555
O10 C17 1_555 1_555
O11 C18 1_555 1_555
O12 C18 1_555 1_555
O13 La2 1_555 1_555
H1 O13 1_555 1_555
H2 O13 1_555 1_555
O14 H3 1_555 1_555
H4 O14 1_555 1_555
C1 O1 1_555 1_555
C2 C5 1_555 1_555
C3 C1 1_555 1_555
C4 C3 1_555 1_555
H5 C4 1_555 1_555
C5 C4 1_555 1_555
C6 C5 1_555 1_555
H6 C6 1_555 1_555
C7 C6 1_555 1_555
H7 C7 1_555 1_555
C8 C3 1_555 1_555
H8 C8 1_555 1_555
C9 O5 1_555 1_555
C10 C13 1_555 1_555
C11 C9 1_555 1_555
C12 C11 1_555 1_555
H9 C12 1_555 1_555
C13 C12 1_555 1_555
C14 C13 1_555 1_555
H10 C14 1_555 1_555
C15 C14 1_555 1_555
H11 C15 1_555 1_555
C16 C11 1_555 1_555
H12 C16 1_555 1_555
C17 O9 1_555 1_555
C18 C21 1_555 1_555
C19 C17 1_555 1_555
C20 C19 1_555 1_555
H13 C20 1_555 1_555
C21 C20 1_555 1_555
C22 C21 1_555 1_555
H14 C22 1_555 1_555
C23 C22 1_555 1_555
H15 C23 1_555 1_555
C24 C19 1_555 1_555
H16 C24 1_555 1_555
C25 H17 1_555 1_555
C26 C25 1_555 1_555
H18 C26 1_555 1_555
C27 C26 1_555 1_555
H19 C27 1_555 1_555
C28 C27 1_555 1_555
C29 N1 1_555 1_555
C30 N2 1_555 1_555
C31 C30 1_555 1_555
C32 C31 1_555 1_555
H20 C32 1_555 1_555
C33 C32 1_555 1_555
H21 C33 1_555 1_555
C34 N2 1_555 1_555
H22 C34 1_555 1_555
C35 C28 1_555 1_555
H23 C35 1_555 1_555
C36 C31 1_555 1_555
H24 C36 1_555 1_555
La1C O3 1_555 1_555
La1G O8 1_555 1_555
La1C_2 O12 1_555 1_555
La2C O4 1_555 1_555
La2D O7 1_555 1_555
La2C_2 O10 1_555 1_555
La2_2 O11 1_555 1_555
O3C La1 1_555 1_555
O4C La2 1_555 1_555
O7D La2 1_555 1_555
O8G La1 1_555 1_555
O10C La2 1_555 1_555
O11_2 La2 1_555 1_555
O12C La1 1_555 1_555
O12_2 La2 1_555 1_555
O6 C9 1_555 1_555
O12 La2_2 1_555 1_555
C7 C8 1_555 1_555
C15 C16 1_555 1_555
C23 C24 1_555 1_555
C28 C29 1_555 1_555
C29 C30 1_555 1_555
C33 C34 1_555 1_555
C35 C36 1_555 1_555
La1C O12_2 1_555 1_555
La2C_2 O12C 1_555 1_555

#END
