
#######################################################################
#
#                 Cambridge Crystallographic Data Centre
#                                CCDC 
#
#######################################################################
#
# If this CIF has been generated from an entry in the Cambridge 
# Structural Database, then it will include bibliographic, chemical, 
# crystal, experimental, refinement or atomic coordinate data resulting 
# from the CCDC's data processing and validation procedures.
#
#######################################################################

data_CADFOD
_symmetry_cell_setting           triclinic
_symmetry_space_group_name_H-M   'P -1'
_symmetry_Int_Tables_number      2
_space_group_name_Hall           '-P 1'
loop_
_symmetry_equiv_pos_site_id
_symmetry_equiv_pos_as_xyz
1 x,y,z
2 -x,-y,-z
_cell_length_a                   12.440(3)
_cell_length_b                   16.494(4)
_cell_length_c                   20.520(9)
_cell_angle_alpha                70.27(3)
_cell_angle_beta                 83.14(2)
_cell_angle_gamma                87.64(2)
_cell_volume                     3934.85
loop_
_atom_site_label
_atom_site_type_symbol
_atom_site_fract_x
_atom_site_fract_y
_atom_site_fract_z
Co1 Co 0.3158(1) -1.00404(8) 0.38512(8)
Co2 Co 0.70923(9) -0.83081(7) 0.35062(6)
Co3 Co 0.46491(9) -0.80791(7) 0.11732(6)
Co4 Co 0.4804(1) -0.68631(8) -0.10286(8)
O1 O 0.6751(4) -0.7783(3) 0.2473(3)
O2 O 0.5745(4) -0.7596(3) 0.1614(3)
O3 O 0.6033(5) -0.6281(4) -0.0715(3)
O4 O 0.5291(4) -0.7239(3) 0.0213(3)
O5 O 0.9356(5) -0.6481(4) 0.2498(3)
O6 O 0.8441(4) -0.7590(3) 0.3276(3)
O7 O 0.5707(5) -0.9049(4) 0.3689(4)
O8 O 0.4249(5) -0.9656(4) 0.4301(4)
O9 O 0.3978(5) -0.8956(3) 0.2145(3)
O10 O 0.2731(5) -0.9813(3) 0.2902(3)
O11 O 0.3911(6) -0.6853(5) -0.2092(4)
O12 O 0.5202(6) -0.6032(4) -0.2076(4)
O13 O 0.3757(4) -0.7839(3) -0.0508(3)
O14 O 0.3645(4) -0.8533(3) 0.0646(3)
O15 O 0.2677(4) -1.1167(3) 0.5429(3)
O16 O 0.2006(4) -1.0894(3) 0.4428(3)
N1 N 0.2189(6) -0.8989(5) 0.4001(5)
N2 N -0.5720(5) -0.1059(4) 0.3751(4)
N3 N 0.6075(5) -0.7290(4) 0.3724(4)
N4 N -0.1981(5) 0.0620(4) 0.3350(3)
N5 N 0.3493(5) -0.7136(4) 0.1316(3)
N6 N -0.4172(5) 0.0908(4) 0.1132(3)
N7 N 0.3642(5) -0.5920(4) -0.0856(4)
N8 N -0.4029(5) 0.2201(4) -0.1220(4)
C1 C 0.1721(9) -0.8401(7) 0.3516(6)
C2 C 0.1153(9) -0.7705(6) 0.3613(6)
C3 C 0.1053(7) -0.7587(5) 0.4248(5)
C4 C 0.1542(9) -0.8193(6) 0.4766(5)
C5 C 0.2101(9) -0.8883(7) 0.4610(6)
C6 C 0.0435(7) -0.6876(6) 0.4398(5)
C7 C -0.0016(6) -0.6255(5) 0.3927(5)
C8 C -0.0698(6) -0.5551(5) 0.4004(5)
C9 C -0.1160(8) -0.4999(5) 0.3425(5)
C10 C -0.1827(7) -0.4339(5) 0.3459(5)
C11 C -0.2094(6) -0.4182(5) 0.4078(5)
C12 C -0.1630(7) -0.4712(5) 0.4661(4)
C13 C -0.0953(7) -0.5385(5) 0.4613(5)
C14 C -0.2862(6) -0.3496(5) 0.4152(4)
C15 C -0.3358(7) -0.2957(5) 0.3637(5)
C16 C -0.4160(7) -0.2314(5) 0.3714(5)
C17 C -0.4602(8) -0.1796(6) 0.3130(5)
C18 C -0.5351(8) -0.1172(6) 0.3168(6)
C19 C -0.5317(8) -0.1562(6) 0.4325(5)
C20 C -0.4547(8) -0.2187(6) 0.4315(5)
C21 C 0.6403(6) -0.6753(5) 0.4009(4)
C22 C 0.5789(7) -0.6061(5) 0.4080(5)
C23 C 0.4780(7) -0.5917(5) 0.3861(5)
C24 C 0.4425(7) -0.6492(6) 0.3590(5)
C25 C 0.5080(8) -0.7158(5) 0.3525(5)
C26 C 0.4132(7) -0.5175(5) 0.3915(5)
C27 C 0.3254(7) -0.4887(5) 0.3606(5)
C28 C 0.2620(7) -0.4120(5) 0.3613(5)
C29 C 0.2921(7) -0.3506(5) 0.3877(5)
C30 C 0.2292(7) -0.2818(5) 0.3871(5)
C31 C 0.1310(7) -0.2690(5) 0.3599(4)
C32 C 0.0991(7) -0.3289(5) 0.3335(5)
C33 C 0.1625(8) -0.4005(5) 0.3340(5)
C34 C 0.0683(7) -0.1913(5) 0.3576(4)
C35 C -0.0227(7) -0.1659(5) 0.3320(5)
C36 C -0.0802(7) -0.0855(5) 0.3309(4)
C37 C -0.0385(6) -0.0233(5) 0.3520(4)
C38 C -0.0969(6) 0.0480(5) 0.3538(4)
C39 C -0.2377(6) 0.0041(5) 0.3129(5)
C40 C -0.1822(7) -0.0695(5) 0.3106(4)
C41 C 0.3844(6) -0.6376(5) 0.1312(5)
C42 C 0.3151(7) -0.5743(5) 0.1420(5)
C43 C 0.2054(6) -0.5902(5) 0.1538(4)
C44 C 0.1685(6) -0.6693(5) 0.1566(4)
C45 C 0.2433(6) -0.7270(4) 0.1444(4)
C46 C 0.1234(7) -0.5238(5) 0.1593(5)
C47 C 0.1417(6) -0.4432(5) 0.1511(5)
C48 C 0.0567(6) -0.3779(5) 0.1530(4)
C49 C 0.0910(7) -0.2978(5) 0.1483(5)
C50 C 0.0155(7) -0.2327(5) 0.1470(5)
C51 C -0.0940(7) -0.2480(6) 0.1501(4)
C52 C -0.1260(7) -0.3281(6) 0.1549(5)
C53 C -0.0517(7) -0.3913(5) 0.1567(5)
C54 C -0.1795(9) -0.1795(6) 0.1450(4)
C55 C -0.174(1) -0.1056(7) 0.1327(5)
C56 C -0.2611(8) -0.0381(6) 0.1246(4)
C57 C -0.2342(7) 0.0439(6) 0.1146(5)
C58 C -0.3128(6) 0.1046(5) 0.1080(5)
C59 C -0.4470(6) 0.0097(5) 0.1230(4)
C60 C -0.3690(9) -0.0553(5) 0.1291(4)
C61 C 0.3791(7) -0.5088(5) -0.1259(6)
C62 C 0.3114(7) -0.4439(5) -0.1178(5)
C63 C 0.2221(6) -0.4616(5) -0.0696(4)
C64 C 0.2066(7) -0.5480(6) -0.0283(5)
C65 C 0.2793(7) -0.6084(5) -0.0401(4)
C66 C 0.1481(6) -0.3934(5) -0.0598(4)
C67 C 0.1421(6) -0.3168(5) -0.1072(4)
C68 C 0.0699(6) -0.2459(5) -0.1010(4)
C69 C 0.0508(6) -0.1798(5) -0.1625(4)
C70 C -0.0149(6) -0.1110(5) -0.1620(4)
C71 C -0.0589(6) -0.1018(5) -0.1001(4)
C72 C -0.0394(7) -0.1676(6) -0.0386(4)
C73 C 0.0230(7) -0.2380(5) -0.0395(4)
C74 C -0.1297(6) -0.0300(5) -0.0947(4)
C75 C -0.1690(6) 0.0308(5) -0.1444(4)
C76 C -0.2489(6) 0.0950(5) -0.1356(5)
C77 C -0.2820(7) 0.1593(6) -0.1924(5)
C78 C -0.3579(7) 0.2195(5) -0.1830(5)
C79 C -0.3737(8) 0.1563(6) -0.0680(5)
C80 C -0.2969(8) 0.0958(6) -0.0719(5)
C81 C 0.6018(7) -0.8005(5) 0.2203(5)
C82 C 0.5958(7) -0.6656(6) -0.0079(5)
C83 C 0.8549(7) -0.6869(6) 0.2811(5)
C84 C 0.5208(8) -0.9392(7) 0.4190(7)
C85 C 0.3162(9) -0.9350(6) 0.2303(6)
C86 C 0.4510(9) -0.6264(7) -0.2392(6)
C87 C 0.3453(6) -0.8408(5) 0.0047(6)
C88 C 0.1992(6) -1.1269(5) 0.5078(5)
H1 H 0.1785 -0.8507 0.3063
H2 H 0.0741 -0.7318 0.3248
H3 H 0.1657 -0.8059 0.5200
H4 H 0.2442 -0.9235 0.4996
H5 H 0.0416 -0.6841 0.4856
H6 H 0.0174 -0.6259 0.3467
H7 H -0.1057 -0.5138 0.3045
H8 H -0.2129 -0.3998 0.3088
H9 H -0.1740 -0.4588 0.5107
H10 H -0.0739 -0.5764 0.5029
H11 H -0.2996 -0.3448 0.4606
H12 H -0.3209 -0.3029 0.3235
H13 H -0.4440 -0.1931 0.2754
H14 H -0.5587 -0.0771 0.2722
H15 H -0.5436 -0.1408 0.4728
H16 H -0.4194 -0.2418 0.4731
H17 H 0.7209 -0.6757 0.4095
H18 H 0.6147 -0.5635 0.4280
H19 H 0.3619 -0.6498 0.3488
H20 H 0.4839 -0.7580 0.3342
H21 H 0.4389 -0.4833 0.4132
H22 H 0.3034 -0.5230 0.3347
H23 H 0.3585 -0.3606 0.4070
H24 H 0.2462 -0.2433 0.4033
H25 H 0.0365 -0.3278 0.3157
H26 H 0.1340 -0.4395 0.3199
H27 H 0.0980 -0.1532 0.3789
H28 H -0.0544 -0.2008 0.3137
H29 H 0.0318 -0.0260 0.3622
H30 H -0.0642 0.0926 0.3663
H31 H -0.3203 0.0051 0.3096
H32 H -0.2153 -0.1104 0.2953
H33 H 0.4649 -0.6274 0.1203
H34 H 0.3516 -0.5173 0.1449
H35 H 0.0866 -0.6808 0.1707
H36 H 0.2211 -0.7791 0.1454
H37 H 0.0494 -0.5415 0.1737
H38 H 0.2142 -0.4287 0.1455
H39 H 0.1587 -0.2885 0.1486
H40 H 0.0424 -0.1791 0.1409
H41 H -0.2009 -0.3377 0.1554
H42 H -0.0784 -0.4434 0.1613
H43 H -0.1582 0.0524 0.1094
H44 H -0.2949 0.1600 0.1052
H45 H -0.5208 0.0039 0.1215
H46 H -0.4024 -0.1027 0.1342
H47 H 0.4495 -0.4933 -0.1597
H48 H 0.3312 -0.3806 -0.1500
H49 H 0.1449 -0.5573 0.0064
H50 H 0.2614 -0.6707 -0.0101
H51 H 0.1002 -0.4081 -0.0178
H52 H 0.1865 -0.3037 -0.1508
H53 H 0.0825 -0.1824 -0.2044
H54 H -0.0234 -0.0658 -0.2056
H55 H -0.0634 -0.1605 0.0028
H56 H 0.0448 -0.2747 0.0013
H57 H -0.1529 -0.0298 -0.0494
H58 H -0.1484 0.0319 -0.1912
H59 H -0.2522 0.1598 -0.2352
H60 H -0.3805 0.2658 -0.2246
H61 H -0.4054 0.1587 -0.0260
H62 H -0.2787 0.0534 -0.0345
H63 H 0.5578 -0.8507 0.2456
H64 H 0.6435 -0.6540 0.0291
H65 H 0.7861 -0.6607 0.2743
H66 H 0.2918 -0.9337 0.1891
H67 H 0.2857 -0.8826 0.0012
H68 H 0.1346 -1.1670 0.5320
O15A O 0.7323(4) -0.8833(3) 0.4571(3)
N8_2 N 0.5971(5) -0.7799(4) -0.1220(4)
N6_2 N 0.5828(5) -0.9092(4) 0.1132(3)
N2_2 N 0.4280(5) -1.1059(4) 0.3751(4)
Co4_2 Co -0.5196(1) 0.31369(8) -0.10286(8)
Co3_2 Co -0.53509(9) 0.19209(7) 0.11732(6)
Co1_2 Co -0.6842(1) -0.00404(8) 0.38512(8)
N4_2 N 0.8019(5) -0.9380(4) 0.3350(3)
Co2_2 Co -0.29077(9) 0.16919(7) 0.35062(6)
Co2A Co 0.29077(9) -1.16919(7) 0.64938(6)
loop_
_geom_bond_atom_site_label_1
_geom_bond_atom_site_label_2
_geom_bond_site_symmetry_1
_geom_bond_site_symmetry_2
Co1 O8 1_555 1_555
Co2 O1 1_555 1_555
Co3 O2 1_555 1_555
Co4 O3 1_555 1_555
O1 C81 1_555 1_555
O2 C81 1_555 1_555
O3 C82 1_555 1_555
O4 Co3 1_555 1_555
O5 C83 1_555 1_555
O6 Co2 1_555 1_555
O7 Co2 1_555 1_555
O8 C84 1_555 1_555
O9 Co3 1_555 1_555
O10 Co1 1_555 1_555
O11 Co4 1_555 1_555
O12 Co4 1_555 1_555
O13 Co4 1_555 1_555
O14 Co3 1_555 1_555
O15 C88 1_555 1_555
O16 Co1 1_555 1_555
N1 Co1 1_555 1_555
N2 C18 1_555 1_555
N3 Co2 1_555 1_555
N4 C38 1_555 1_555
N5 Co3 1_555 1_555
N6 C58 1_555 1_555
N7 Co4 1_555 1_555
N8 C78 1_555 1_555
C1 N1 1_555 1_555
C2 C1 1_555 1_555
C3 C2 1_555 1_555
C4 C3 1_555 1_555
C5 N1 1_555 1_555
C6 C3 1_555 1_555
C7 C6 1_555 1_555
C8 C7 1_555 1_555
C9 C8 1_555 1_555
C10 C9 1_555 1_555
C11 C10 1_555 1_555
C12 C11 1_555 1_555
C13 C8 1_555 1_555
C14 C11 1_555 1_555
C15 C14 1_555 1_555
C16 C15 1_555 1_555
C17 C16 1_555 1_555
C18 C17 1_555 1_555
C19 N2 1_555 1_555
C20 C16 1_555 1_555
C21 N3 1_555 1_555
C22 C21 1_555 1_555
C23 C22 1_555 1_555
C24 C23 1_555 1_555
C25 N3 1_555 1_555
C26 C23 1_555 1_555
C27 C26 1_555 1_555
C28 C27 1_555 1_555
C29 C28 1_555 1_555
C30 C29 1_555 1_555
C31 C30 1_555 1_555
C32 C31 1_555 1_555
C33 C28 1_555 1_555
C34 C31 1_555 1_555
C35 C34 1_555 1_555
C36 C35 1_555 1_555
C37 C36 1_555 1_555
C38 C37 1_555 1_555
C39 N4 1_555 1_555
C40 C36 1_555 1_555
C41 N5 1_555 1_555
C42 C41 1_555 1_555
C43 C42 1_555 1_555
C44 C43 1_555 1_555
C45 N5 1_555 1_555
C46 C43 1_555 1_555
C47 C46 1_555 1_555
C48 C47 1_555 1_555
C49 C48 1_555 1_555
C50 C49 1_555 1_555
C51 C50 1_555 1_555
C52 C51 1_555 1_555
C53 C48 1_555 1_555
C54 C51 1_555 1_555
C55 C54 1_555 1_555
C56 C55 1_555 1_555
C57 C56 1_555 1_555
C58 C57 1_555 1_555
C59 N6 1_555 1_555
C60 C56 1_555 1_555
C61 N7 1_555 1_555
C62 C61 1_555 1_555
C63 C62 1_555 1_555
C64 C63 1_555 1_555
C65 N7 1_555 1_555
C66 C63 1_555 1_555
C67 C66 1_555 1_555
C68 C67 1_555 1_555
C69 C68 1_555 1_555
C70 C69 1_555 1_555
C71 C70 1_555 1_555
C72 C71 1_555 1_555
C73 C68 1_555 1_555
C74 C71 1_555 1_555
C75 C74 1_555 1_555
C76 C75 1_555 1_555
C77 C76 1_555 1_555
C78 C77 1_555 1_555
C79 N8 1_555 1_555
C80 C76 1_555 1_555
C81 H63 1_555 1_555
C82 O4 1_555 1_555
C83 O6 1_555 1_555
C84 O7 1_555 1_555
C85 O9 1_555 1_555
C86 O11 1_555 1_555
C87 O13 1_555 1_555
C88 O16 1_555 1_555
H1 C1 1_555 1_555
H2 C2 1_555 1_555
H3 C4 1_555 1_555
H4 C5 1_555 1_555
H5 C6 1_555 1_555
H6 C7 1_555 1_555
H7 C9 1_555 1_555
H8 C10 1_555 1_555
H9 C12 1_555 1_555
H10 C13 1_555 1_555
H11 C14 1_555 1_555
H12 C15 1_555 1_555
H13 C17 1_555 1_555
H14 C18 1_555 1_555
H15 C19 1_555 1_555
H16 C20 1_555 1_555
H17 C21 1_555 1_555
H18 C22 1_555 1_555
H19 C24 1_555 1_555
H20 C25 1_555 1_555
H21 C26 1_555 1_555
H22 C27 1_555 1_555
H23 C29 1_555 1_555
H24 C30 1_555 1_555
H25 C32 1_555 1_555
H26 C33 1_555 1_555
H27 C34 1_555 1_555
H28 C35 1_555 1_555
H29 C37 1_555 1_555
H30 C38 1_555 1_555
H31 C39 1_555 1_555
H32 C40 1_555 1_555
H33 C41 1_555 1_555
H34 C42 1_555 1_555
H35 C44 1_555 1_555
H36 C45 1_555 1_555
H37 C46 1_555 1_555
H38 C47 1_555 1_555
H39 C49 1_555 1_555
H40 C50 1_555 1_555
H41 C52 1_555 1_555
H42 C53 1_555 1_555
H43 C57 1_555 1_555
H44 C58 1_555 1_555
H45 C59 1_555 1_555
H46 C60 1_555 1_555
H47 C61 1_555 1_555
H48 C62 1_555 1_555
H49 C64 1_555 1_555
H50 C65 1_555 1_555
H51 C66 1_555 1_555
H52 C67 1_555 1_555
H53 C69 1_555 1_555
H54 C70 1_555 1_555
H55 C72 1_555 1_555
H56 C73 1_555 1_555
H57 C74 1_555 1_555
H58 C75 1_555 1_555
H59 C77 1_555 1_555
H60 C78 1_555 1_555
H61 C79 1_555 1_555
H62 C80 1_555 1_555
H64 C82 1_555 1_555
H65 C83 1_555 1_555
H66 C85 1_555 1_555
H67 C87 1_555 1_555
H68 C88 1_555 1_555
O15A Co2 1_555 1_555
N8_2 Co4 1_555 1_555
N6_2 Co3 1_555 1_555
N2_2 Co1 1_555 1_555
Co4_2 N8 1_555 1_555
Co3_2 N6 1_555 1_555
Co1_2 N2 1_555 1_555
N4_2 Co2 1_555 1_555
Co2_2 N4 1_555 1_555
Co2A O15 1_555 1_555
Co4 O4 1_555 1_555
O10 C85 1_555 1_555
O12 C86 1_555 1_555
O14 C87 1_555 1_555
C4 C5 1_555 1_555
C12 C13 1_555 1_555
C19 C20 1_555 1_555
C24 C25 1_555 1_555
C32 C33 1_555 1_555
C39 C40 1_555 1_555
C44 C45 1_555 1_555
C52 C53 1_555 1_555
C59 C60 1_555 1_555
C64 C65 1_555 1_555
C72 C73 1_555 1_555
C79 C80 1_555 1_555

#END
