
#######################################################################
#
#                 Cambridge Crystallographic Data Centre
#                                CCDC 
#
#######################################################################
#
# If this CIF has been generated from an entry in the Cambridge 
# Structural Database, then it will include bibliographic, chemical, 
# crystal, experimental, refinement or atomic coordinate data resulting 
# from the CCDC's data processing and validation procedures.
#
#######################################################################

data_CADQAB
_symmetry_cell_setting           triclinic
_symmetry_space_group_name_H-M   'P -1'
_symmetry_Int_Tables_number      2
_space_group_name_Hall           '-P 1'
loop_
_symmetry_equiv_pos_site_id
_symmetry_equiv_pos_as_xyz
1 x,y,z
2 -x,-y,-z
_cell_length_a                   10.406(2)
_cell_length_b                   11.062(2)
_cell_length_c                   12.407(3)
_cell_angle_alpha                103.58(3)
_cell_angle_beta                 106.34(3)
_cell_angle_gamma                98.73(3)
_cell_volume                     1295.35
loop_
_atom_site_label
_atom_site_type_symbol
_atom_site_fract_x
_atom_site_fract_y
_atom_site_fract_z
Pr1 Pr -0.09415(2) 0.45574(2) 0.317340(19)
O1 O -0.1707(4) 0.2409(4) 0.1495(3)
O2 O -0.2541(4) 0.5948(4) 0.2677(3)
O3 O -0.3566(4) 0.6025(5) 0.7370(3)
H1 H -0.2741 0.6057 0.7504
O4 O -0.0578(5) 0.0479(4) 0.2849(3)
H2 H -0.0756 0.1182 0.2893
O5 O -0.1364(3) 0.5774(4) 0.6839(3)
O6 O -0.1448(3) 0.5194(3) 0.4993(3)
O7 O -0.0523(4) 0.5254(4) 0.1533(3)
O8 O -0.0930(4) 0.2669(3) 0.3921(3)
O9 O -0.3307(4) 0.3178(3) 0.2086(3)
O10 O -0.0399(3) 0.3268(3) 0.5883(3)
N1 N -0.4309(5) 0.6651(5) 0.1670(4)
N2 N 0.0213(5) 0.7025(5) 0.1044(4)
C1 C -0.0008(5) -0.0881(5) 0.4006(4)
H3 H -0.0009 -0.1476 0.3337
C2 C -0.2942(5) 0.2288(5) 0.1473(4)
C3 C -0.3577(5) 0.5185(5) 0.5380(4)
C4 C -0.0557(5) 0.2466(4) 0.4913(4)
C5 C -0.5398(5) 0.1044(5) 0.0606(4)
H4 H -0.5655 0.1737 0.1007
C6 C -0.2049(4) 0.5397(4) 0.5743(4)
C7 C -0.4003(5) 0.1097(4) 0.0713(4)
C8 C -0.4340(5) 0.4659(6) 0.4193(4)
H5 H -0.3893 0.4424 0.3653
C9 C -0.0298(5) 0.0277(5) 0.3925(4)
C10 C -0.3618(5) 0.0060(5) 0.0109(4)
C11 C -0.3750(6) 0.5765(6) 0.2056(5)
C12 C -0.4247(5) 0.5518(6) 0.6191(4)
C13 C -0.0288(5) 0.1181(4) 0.4934(4)
C14 C 0.0369(6) 0.6227(5) 0.1682(5)
C15 C 0.1301(7) 0.8152(6) 0.1294(6)
H6 H 0.2067 0.8180 0.1955
H7 H 0.0958 0.8908 0.1471
H8 H 0.1594 0.8111 0.0621
C16 C -0.3532(7) 0.7944(7) 0.1980(6)
H9 H -0.2737 0.8101 0.2661
H10 H -0.4096 0.8524 0.2150
H11 H -0.3243 0.8072 0.1337
C17 C -0.1031(7) 0.6829(8) 0.0063(7)
H12 H -0.1676 0.6071 -0.0007
H13 H -0.0808 0.6733 -0.0647
H14 H -0.1433 0.7553 0.0196
C18 C -0.5751(7) 0.6338(8) 0.0957(6)
H15 H -0.6229 0.6872 0.1347
H16 H -0.6149 0.5457 0.0843
H17 H -0.5828 0.6477 0.0208
O12 O -0.2325(6) -0.0074(6) 0.0146(6)
H24 H -0.1766 0.0604 0.0532
H25 H 0.130(6) 0.653(6) 0.236(5)
H26 H -0.439(6) 0.491(6) 0.176(5)
Pr1A Pr -0.90585(2) -0.45574(2) -0.317340(19)
Pr1A_2 Pr 0.09415(2) 0.54426(2) 0.682660(19)
Pr1A_3 Pr 0.09415(2) -0.45574(2) 0.682660(19)
Pr1_2 Pr -0.09415(2) -0.54426(2) 0.317340(19)
Pr1_3 Pr -1.09415(2) 0.45574(2) 0.317340(19)
Pr1A_4 Pr -0.90585(2) 0.54426(2) 0.682660(19)
O1A O -0.8293(4) -0.2409(4) -0.1495(3)
O1A_2 O 0.1707(4) -0.2409(4) 0.8505(3)
O2A O 0.2541(4) -0.5948(4) 0.7323(3)
O3A O -0.6434(4) 0.3975(5) 0.2630(3)
H1A H -0.7259 0.3943 0.2496
O4A O 0.0578(5) -0.0479(4) 0.7151(3)
H2A H 0.0756 -0.1182 0.7107
O5A O 0.1364(3) 0.4226(4) 0.3161(3)
O5_2 O -0.1364(3) -0.4226(4) 0.6839(3)
O5A_2 O -0.8636(3) 0.4226(4) 0.3161(3)
O6A O 0.1448(3) 0.4806(3) 0.5007(3)
O6A_2 O 0.1448(3) -0.5194(3) 0.5007(3)
O6_2 O -0.1448(3) -0.4806(3) 0.4993(3)
O6A_3 O -0.8552(3) 0.4806(3) 0.5007(3)
O7A O 0.0523(4) -0.5254(4) 0.8467(3)
O8A O 0.0930(4) -0.2669(3) 0.6079(3)
O9A O -0.6693(4) -0.3178(3) -0.2086(3)
O9A_2 O 0.3307(4) -0.3178(3) 0.7914(3)
O10A O 0.0399(3) -0.3268(3) 0.4117(3)
O10A_2 O 0.0399(3) 0.6732(3) 0.4117(3)
O10_2 O -0.0399(3) -0.6732(3) 0.5883(3)
N1A N 0.4309(5) -0.6651(5) 0.8330(4)
N2A N -0.0213(5) -0.7025(5) 0.8956(4)
C1A C 0.0008(5) 0.0881(5) 0.5994(4)
H3A H 0.0009 0.1476 0.6663
C2A C -0.7058(5) -0.2288(5) -0.1473(4)
C3A C -0.6423(5) 0.4815(5) 0.4620(4)
C4A C 0.0557(5) -0.2466(4) 0.5087(4)
C5A C -0.4602(5) -0.1044(5) -0.0606(4)
H4A H -0.4345 -0.1737 -0.1007
C6A C -0.7951(4) 0.4603(4) 0.4257(4)
C7A C -0.5997(5) -0.1097(4) -0.0713(4)
C8A C -0.5660(5) 0.5341(6) 0.5807(4)
H5A H -0.6107 0.5576 0.6347
C9A C 0.0298(5) -0.0277(5) 0.6075(4)
C10A C -0.6382(5) -0.0060(5) -0.0109(4)
C11A C 0.3750(6) -0.5765(6) 0.7944(5)
C12A C -0.5753(5) 0.4482(6) 0.3809(4)
C13A C 0.0288(5) -0.1181(4) 0.5066(4)
C14A C -0.0369(6) -0.6227(5) 0.8318(5)
C15A C -0.1301(7) -0.8152(6) 0.8706(6)
H6A H -0.2067 -0.8180 0.8045
H7A H -0.0958 -0.8908 0.8529
H8A H -0.1594 -0.8111 0.9379
C16A C 0.3532(7) -0.7944(7) 0.8020(6)
H9A H 0.2737 -0.8101 0.7339
H10A H 0.4096 -0.8524 0.7850
H11A H 0.3243 -0.8072 0.8663
C17A C 0.1031(7) -0.6829(8) 0.9937(7)
H12A H 0.1676 -0.6071 1.0007
H13A H 0.0808 -0.6733 1.0647
H14A H 0.1433 -0.7553 0.9804
C18A C 0.5751(7) -0.6338(8) 0.9043(6)
H15A H 0.6229 -0.6872 0.8653
H16A H 0.6149 -0.5457 0.9157
H17A H 0.5828 -0.6477 0.9792
O12A O -0.7675(6) 0.0074(6) -0.0146(6)
H24A H -0.8234 -0.0604 -0.0532
H25A H -0.130(6) -0.653(6) 0.764(5)
H26A H 0.439(6) -0.491(6) 0.824(5)
O11 O -0.3957(6) 0.2229(7) 0.6518(5)
N3 N -0.5246(6) 0.1545(6) 0.4589(5)
C19 C -0.5189(15) 0.1131(14) 0.3392(11)
H18 H -0.5687 0.1593 0.2922
H19 H -0.5596 0.0231 0.3055
H20 H -0.4247 0.1297 0.3418
C20 C -0.6525(11) 0.1380(14) 0.4775(12)
H21 H -0.6381 0.1645 0.5603
H22 H -0.7001 0.0495 0.4450
H23 H -0.7067 0.1887 0.4399
C21 C -0.4023(11) 0.1877(12) 0.5508(10)
C22? C -0.425(3) 0.137(2) 0.412(3)
C23? C -0.672(2) 0.135(2) 0.376(2)
C24? C -0.507(3) 0.213(2) 0.5696(19)
H27? H -0.3373 0.1605 0.4738
H28? H -0.4224 0.1899 0.3609
H29? H -0.4423 0.0491 0.3682
H30? H -0.7239 0.1789 0.4185
H31? H -0.7156 0.0449 0.3469
H32? H -0.6697 0.1674 0.3116
loop_
_geom_bond_atom_site_label_1
_geom_bond_atom_site_label_2
_geom_bond_site_symmetry_1
_geom_bond_site_symmetry_2
Pr1 O1 1_555 1_555
O1 C2 1_555 1_555
O2 Pr1 1_555 1_555
O3 H1 1_555 1_555
O4 H2 1_555 1_555
O5 C6 1_555 1_555
O6 Pr1 1_555 1_555
O7 Pr1 1_555 1_555
O8 Pr1 1_555 1_555
O9 Pr1 1_555 1_555
O10 C4 1_555 1_555
N1 C11 1_555 1_555
N2 C14 1_555 1_555
C1 H3 1_555 1_555
C2 O9 1_555 1_555
C3 C6 1_555 1_555
C4 O8 1_555 1_555
C5 H4 1_555 1_555
C6 O6 1_555 1_555
C7 C2 1_555 1_555
C8 C3 1_555 1_555
H5 C8 1_555 1_555
C9 O4 1_555 1_555
C10 C7 1_555 1_555
C11 O2 1_555 1_555
C12 O3 1_555 1_555
C13 C4 1_555 1_555
C14 O7 1_555 1_555
C15 N2 1_555 1_555
H6 C15 1_555 1_555
H7 C15 1_555 1_555
H8 C15 1_555 1_555
C16 N1 1_555 1_555
H9 C16 1_555 1_555
H10 C16 1_555 1_555
H11 C16 1_555 1_555
C17 N2 1_555 1_555
H12 C17 1_555 1_555
H13 C17 1_555 1_555
H14 C17 1_555 1_555
C18 N1 1_555 1_555
H15 C18 1_555 1_555
H16 C18 1_555 1_555
H17 C18 1_555 1_555
O11 C21 1_555 1_555
N3 C19 1_555 1_555
C19 H18 1_555 1_555
H19 C19 1_555 1_555
H20 C19 1_555 1_555
C20 N3 1_555 1_555
H21 C20 1_555 1_555
H22 C20 1_555 1_555
H23 C20 1_555 1_555
C21 N3 1_555 1_555
O12 C10 1_555 1_555
H24 O12 1_555 1_555
H25 C14 1_555 1_555
H26 C11 1_555 1_555
Pr1A O1A 1_555 1_555
Pr1A_2 O5 1_555 1_555
Pr1A_3 O1A_2 1_555 1_555
Pr1_2 O6A_2 1_555 1_555
Pr1_3 O5A_2 1_555 1_555
Pr1A_4 O6A_3 1_555 1_555
O1A C2A 1_555 1_555
O2A Pr1A_3 1_555 1_555
O3A H1A 1_555 1_555
O4A H2A 1_555 1_555
O5A Pr1 1_555 1_555
O5_2 Pr1A_3 1_555 1_555
O5A_2 C6A 1_555 1_555
O6A Pr1 1_555 1_555
O6A_2 Pr1A_3 1_555 1_555
O6_2 Pr1A_3 1_555 1_555
O6A_3 Pr1_3 1_555 1_555
O7A Pr1A_3 1_555 1_555
O8A Pr1A_3 1_555 1_555
O9A Pr1A 1_555 1_555
O9A_2 Pr1A_3 1_555 1_555
O10A Pr1_2 1_555 1_555
O10A_2 Pr1 1_555 1_555
O10_2 Pr1A_3 1_555 1_555
N1A C11A 1_555 1_555
N2A C14A 1_555 1_555
C1A C13 1_555 1_555
H3A C1A 1_555 1_555
C2A O9A 1_555 1_555
C3A C6A 1_555 1_555
C4A O8A 1_555 1_555
C5A C10 1_555 1_555
H4A C5A 1_555 1_555
C6A O6A_3 1_555 1_555
C7A C2A 1_555 1_555
C8A C12 1_555 1_555
H5A C8A 1_555 1_555
C9A O4A 1_555 1_555
C10A C5 1_555 1_555
C11A O2A 1_555 1_555
C12A C8 1_555 1_555
C13A C1 1_555 1_555
C14A O7A 1_555 1_555
C15A N2A 1_555 1_555
H6A C15A 1_555 1_555
H7A C15A 1_555 1_555
H8A C15A 1_555 1_555
C16A N1A 1_555 1_555
H9A C16A 1_555 1_555
H10A C16A 1_555 1_555
H11A C16A 1_555 1_555
C17A N2A 1_555 1_555
H12A C17A 1_555 1_555
H13A C17A 1_555 1_555
H14A C17A 1_555 1_555
C18A N1A 1_555 1_555
H15A C18A 1_555 1_555
H16A C18A 1_555 1_555
H17A C18A 1_555 1_555
O12A C10A 1_555 1_555
H24A O12A 1_555 1_555
H25A C14A 1_555 1_555
H26A C11A 1_555 1_555
O6 Pr1A_2 1_555 1_555
O10 Pr1A_2 1_555 1_555
C1 C9 1_555 1_555
C3 C12 1_555 1_555
C5 C7 1_555 1_555
C9 C13 1_555 1_555
Pr1A_2 O6A 1_555 1_555
Pr1_2 O6_2 1_555 1_555
O3A C12A 1_555 1_555
O10A C4A 1_555 1_555
C1A C9A 1_555 1_555
C3A C8A 1_555 1_555
C3A C12A 1_555 1_555
C4A C13A 1_555 1_555
C5A C7A 1_555 1_555
C7A C10A 1_555 1_555
C9A C13A 1_555 1_555

#END
