
#######################################################################
#
#                 Cambridge Crystallographic Data Centre
#                                CCDC 
#
#######################################################################
#
# If this CIF has been generated from an entry in the Cambridge 
# Structural Database, then it will include bibliographic, chemical, 
# crystal, experimental, refinement or atomic coordinate data resulting 
# from the CCDC's data processing and validation procedures.
#
#######################################################################

data_CADYUD
_symmetry_cell_setting           triclinic
_symmetry_space_group_name_H-M   'P -1'
_symmetry_Int_Tables_number      2
_space_group_name_Hall           '-P 1'
loop_
_symmetry_equiv_pos_site_id
_symmetry_equiv_pos_as_xyz
1 x,y,z
2 -x,-y,-z
_cell_length_a                   7.4679(5)
_cell_length_b                   7.5004(5)
_cell_length_c                   9.4148(7)
_cell_angle_alpha                73.119(6)
_cell_angle_beta                 70.842(7)
_cell_angle_gamma                81.251(5)
_cell_volume                     475.731
loop_
_atom_site_label
_atom_site_type_symbol
_atom_site_fract_x
_atom_site_fract_y
_atom_site_fract_z
N1 N 0.0344(4) 0.2076(4) 0.7437(4)
N2 N 0.1219(5) 0.2756(4) 0.5916(4)
N3 N 0.1700(5) 0.4554(4) 0.7225(4)
N4 N 0.0640(4) 0.3150(4) 0.8212(3)
N5 N 0.3459(4) 0.7244(4) 0.4308(3)
N6 N 0.4243(4) 0.8009(4) 0.2781(3)
N7 N 0.4302(4) 0.6804(4) 0.1989(4)
N8 N 0.3548(4) 0.5209(4) 0.2964(4)
C1 C 0.2020(5) 0.4267(5) 0.5833(4)
C2 C 0.3048(5) 0.5531(5) 0.4373(4)
O1 O 0.7355(4) 0.4633(4) 0.0252(4)
O2 O 0.2511(4) 0.0197(4) 0.0212(3)
O3 O 0.0876(5) 0.1632(5) 0.3353(4)
O4 O 0.6536(5) 0.1159(5) 0.3410(4)
Ba1 Ba 0.44439(3) 0.21070(3) 0.13988(2)
H1 H 0.164(5) -0.048(6) 0.111(3)
H2 H 0.832(8) 0.421(7) -0.017(6)
H3 H 0.179(7) 0.111(6) -0.033(6)
H4 H 0.736(8) 0.474(8) 0.108(7)
H5 H 0.636(8) 0.187(8) 0.412(6)
H6 H 0.695(8) 0.010(8) 0.362(6)
H7 H 0.064(7) 0.207(7) 0.398(5)
H8 H -0.036(11) 0.180(10) 0.320(8)
N6_2 N 0.4243(4) -0.1991(4) 0.2781(3)
N7A N 0.5698(4) 0.3196(4) -0.1989(4)
O1A O 0.2645(4) 0.5367(4) -0.0252(4)
O2A O 0.7489(4) -0.0197(4) -0.0212(3)
Ba1_2 Ba 0.44439(3) 1.21070(3) 0.13988(2)
Ba1A Ba 0.55561(3) 0.78930(3) -0.13988(2)
Ba1A_2 Ba 0.55561(3) -0.21070(3) -0.13988(2)
H1A H 0.836(5) 0.048(6) -0.111(3)
H2A H 0.168(8) 0.579(7) 0.017(6)
H3A H 0.821(7) -0.111(6) 0.033(6)
H4A H 0.264(8) 0.526(8) -0.108(7)
loop_
_geom_bond_atom_site_label_1
_geom_bond_atom_site_label_2
_geom_bond_site_symmetry_1
_geom_bond_site_symmetry_2
N1 N2 1_555 1_555
N2 C1 1_555 1_555
N3 N4 1_555 1_555
N4 N1 1_555 1_555
N5 N6 1_555 1_555
N6 N7 1_555 1_555
N7 N8 1_555 1_555
N8 C2 1_555 1_555
C1 N3 1_555 1_555
C2 N5 1_555 1_555
O1 Ba1 1_555 1_555
O2 Ba1 1_555 1_555
O3 Ba1 1_555 1_555
O4 Ba1 1_555 1_555
Ba1 N8 1_555 1_555
H1 O2 1_555 1_555
H2 O1 1_555 1_555
H3 O2 1_555 1_555
H4 O1 1_555 1_555
H5 O4 1_555 1_555
H6 O4 1_555 1_555
H7 O3 1_555 1_555
H8 O3 1_555 1_555
N6_2 Ba1 1_555 1_555
N7A Ba1 1_555 1_555
O1A Ba1 1_555 1_555
O2A Ba1 1_555 1_555
Ba1_2 N6 1_555 1_555
Ba1A N7 1_555 1_555
Ba1A_2 O2 1_555 1_555
H1A O2A 1_555 1_555
H2A O1A 1_555 1_555
H3A O2A 1_555 1_555
H4A O1A 1_555 1_555
C1 C2 1_555 1_555
O1 Ba1A 1_555 1_555
O1A Ba1A 1_555 1_555
O2A Ba1A_2 1_555 1_555

#END
