
#######################################################################
#
#                 Cambridge Crystallographic Data Centre
#                                CCDC 
#
#######################################################################
#
# If this CIF has been generated from an entry in the Cambridge 
# Structural Database, then it will include bibliographic, chemical, 
# crystal, experimental, refinement or atomic coordinate data resulting 
# from the CCDC's data processing and validation procedures.
#
#######################################################################

data_CADZOY
_symmetry_cell_setting           orthorhombic
_symmetry_space_group_name_H-M   'P c c a'
_symmetry_Int_Tables_number      54
_space_group_name_Hall           '-P 2a 2ac'
loop_
_symmetry_equiv_pos_site_id
_symmetry_equiv_pos_as_xyz
1 x,y,z
2 1/2-x,-y,z
3 1/2+x,-y,1/2-z
4 -x,y,1/2-z
5 -x,-y,-z
6 1/2+x,y,-z
7 1/2-x,y,1/2+z
8 x,-y,1/2+z
_cell_length_a                   22.378(5)
_cell_length_b                   5.8533(9)
_cell_length_c                   13.940(3)
_cell_angle_alpha                90
_cell_angle_beta                 90
_cell_angle_gamma                90
_cell_volume                     1825.93
loop_
_atom_site_label
_atom_site_type_symbol
_atom_site_fract_x
_atom_site_fract_y
_atom_site_fract_z
N1 N 0.21300(10) 0.2947(3) 0.33477(13)
N2 N 0.18217(9) 0.1115(4) 0.36638(16)
N3 N 0.18229(9) 0.1082(4) 0.46054(15)
N4 N 0.21350(9) 0.2896(3) 0.49367(13)
C1 C 0.23142(10) 0.3970(5) 0.41477(16)
O2 O 0.17164(8) 0.8039(3) 0.20909(16)
O3 O 0.16545(9) 0.2304(3) 0.10500(13)
Sr1 Sr 0.2500 0.5000 0.16317(2)
H7 H 0.1709(14) 0.157(6) 0.053(3)
H8 H 0.1767(13) 0.876(6) 0.262(2)
H9 H 0.123(2) 0.272(7) 0.106(3)
H11 H 0.169(2) 0.916(9) 0.171(3)
N1A N 0.28700(10) 0.7053(3) 0.33477(13)
N2A N 0.31783(9) 0.8885(4) 0.36638(16)
N3A N 0.31771(9) 0.8918(4) 0.46054(15)
N4A N 0.28650(9) 0.7104(3) 0.49367(13)
N4F N 0.28650(9) 0.2896(3) -0.00633(13)
N4G N 0.21350(9) 0.7104(3) -0.00633(13)
C1A C 0.26858(10) 0.6030(5) 0.41477(16)
O2A O 0.32836(8) 0.1961(3) 0.20909(16)
O3A O 0.33455(9) 0.7696(3) 0.10500(13)
Sr1F Sr 0.2500 0.5000 0.66317(2)
H7A H 0.3291(14) 0.843(6) 0.053(3)
H8A H 0.3233(13) 0.124(6) 0.262(2)
H9A H 0.377(2) 0.728(7) 0.106(3)
H11A H 0.331(2) 0.084(9) 0.171(3)
O1 O -0.05025(9) 0.3581(4) 0.38424(19)
N5 N 0.01873(10) 0.6397(4) 0.3748(2)
C2 C -0.03627(14) 0.5626(6) 0.3832(3)
C3 C 0.03252(16) 0.8835(6) 0.3757(3)
H1 H 0.0757 0.9050 0.3689
H2 H 0.0191 0.9505 0.4364
H3 H 0.0119 0.9587 0.3223
C4 C 0.06924(14) 0.4865(5) 0.3674(3)
H4 H 0.1061 0.5758 0.3622
H5 H 0.0647 0.3905 0.3103
H6 H 0.0711 0.3895 0.4246
H10 H -0.0683(15) 0.690(6) 0.385(2)
loop_
_geom_bond_atom_site_label_1
_geom_bond_atom_site_label_2
_geom_bond_site_symmetry_1
_geom_bond_site_symmetry_2
N1 N2 1_555 1_555
N2 N3 1_555 1_555
N3 N4 1_555 1_555
N4 C1 1_555 1_555
C1 N1 1_555 1_555
O1 C2 1_555 1_555
N5 C2 1_555 1_555
C2 H10 1_555 1_555
C3 N5 1_555 1_555
H1 C3 1_555 1_555
H2 C3 1_555 1_555
H3 C3 1_555 1_555
C4 N5 1_555 1_555
H4 C4 1_555 1_555
H5 C4 1_555 1_555
H6 C4 1_555 1_555
O2 Sr1 1_555 1_555
O3 Sr1 1_555 1_555
Sr1 N1 1_555 1_555
H7 O3 1_555 1_555
H8 O2 1_555 1_555
H9 O3 1_555 1_555
H11 O2 1_555 1_555
N1A Sr1 1_555 1_555
N2A N1A 1_555 1_555
N3A N2A 1_555 1_555
N4A N3A 1_555 1_555
N4F Sr1 1_555 1_555
N4G Sr1 1_555 1_555
C1A C1 1_555 1_555
O2A Sr1 1_555 1_555
O3A Sr1 1_555 1_555
Sr1F N4 1_555 1_555
H7A O3A 1_555 1_555
H8A O2A 1_555 1_555
H9A O3A 1_555 1_555
H11A O2A 1_555 1_555
N1A C1A 1_555 1_555
N4A C1A 1_555 1_555
N4A Sr1F 1_555 1_555

#END
