
#######################################################################
#
#                 Cambridge Crystallographic Data Centre
#                                CCDC 
#
#######################################################################
#
# If this CIF has been generated from an entry in the Cambridge 
# Structural Database, then it will include bibliographic, chemical, 
# crystal, experimental, refinement or atomic coordinate data resulting 
# from the CCDC's data processing and validation procedures.
#
#######################################################################

data_CAFCIX
_symmetry_cell_setting           triclinic
_symmetry_space_group_name_H-M   'P -1'
_symmetry_Int_Tables_number      2
_space_group_name_Hall           '-P 1'
loop_
_symmetry_equiv_pos_site_id
_symmetry_equiv_pos_as_xyz
1 x,y,z
2 -x,-y,-z
_cell_length_a                   9.6046(2)
_cell_length_b                   11.9859(4)
_cell_length_c                   12.2215(3)
_cell_angle_alpha                78.201(2)
_cell_angle_beta                 71.227(2)
_cell_angle_gamma                71.265(2)
_cell_volume                     1253.46
loop_
_atom_site_label
_atom_site_type_symbol
_atom_site_fract_x
_atom_site_fract_y
_atom_site_fract_z
Cd1 Cd 0.770884(10) 0.279266(8) 0.212484(7)
O1 O 0.74034(11) 0.08304(9) 0.28297(9)
O2 O 0.57127(11) 0.20405(9) 0.19448(8)
O3 O 0.41758(11) 0.03370(9) 0.23216(9)
O4 O 1.00181(11) 0.20236(9) 0.26176(9)
O5 O 0.95234(12) 0.39494(9) 0.21030(9)
O6 O 1.18157(10) 0.40812(9) 0.29399(8)
N1 N 0.62589(13) 0.31069(11) 0.40746(9)
N2 N 0.63385(12) 0.46458(10) 0.14121(9)
N3 N 0.91136(12) 0.24103(10) 0.01752(9)
C1 C 0.62000(15) 0.10836(12) 0.25091(11)
C2 C 0.53128(17) 0.01548(14) 0.28921(13)
C3 C 0.46490(15) 0.01550(12) 0.11703(12)
C4 C 0.61680(16) -0.02737(12) 0.05367(13)
C5 C 0.34927(15) 0.04221(12) 0.06307(13)
C6 C 1.03279(14) 0.30039(12) 0.24690(10)
C7 C 1.17800(15) 0.29602(12) 0.27508(12)
C8 C 1.08866(14) 0.45016(12) 0.39758(11)
C9 C 0.99437(15) 0.38990(12) 0.48364(12)
C10 C 1.09303(15) 0.55935(12) 0.41493(11)
C11 C 0.68855(17) 0.25034(13) 0.49255(12)
C12 C 0.60992(18) 0.24944(15) 0.60911(13)
C13 C 0.4584(2) 0.31378(17) 0.63960(13)
C14 C 0.3919(2) 0.3767(2) 0.55333(14)
C15 C 0.47867(19) 0.37331(18) 0.43884(14)
C16 C 0.48480(15) 0.48968(13) 0.14950(11)
C17 C 0.40102(17) 0.60037(14) 0.11346(12)
C18 C 0.47362(19) 0.68797(14) 0.06219(13)
C19 C 0.62808(18) 0.66212(13) 0.05062(13)
C20 C 0.70277(16) 0.55099(13) 0.09245(12)
C21 C 0.90573(17) 0.15046(13) -0.02747(13)
C22 C 0.97229(19) 0.13254(14) -0.14383(13)
C23 C 1.04559(17) 0.21306(14) -0.21741(13)
C24 C 1.05074(17) 0.30781(15) -0.17245(13)
C25 C 0.98394(16) 0.31757(14) -0.05501(12)
H1 H 0.6060(19) -0.0640(16) 0.2830(14)
H2 H 0.4788(18) 0.0236(14) 0.3706(14)
H3 H 0.6967(18) -0.0474(14) 0.0883(13)
H4 H 0.251(2) 0.0674(15) 0.1061(14)
H5 H 1.2617(17) 0.2721(14) 0.2095(13)
H6 H 1.1916(17) 0.2362(14) 0.3409(14)
H7 H 0.9897(18) 0.3157(15) 0.4742(13)
H8 H 1.1559(19) 0.6017(15) 0.3570(14)
H9 H 0.782(2) 0.2073(16) 0.4717(14)
H10 H 0.658(2) 0.2044(17) 0.6676(16)
H11 H 0.399(2) 0.3145(18) 0.7171(17)
H12 H 0.293(3) 0.420(2) 0.5679(18)
H13 H 0.433(2) 0.4123(18) 0.3775(16)
H14 H 0.4391(18) 0.4335(15) 0.1844(14)
H15 H 0.304(2) 0.6129(15) 0.1207(14)
H16 H 0.421(2) 0.7605(18) 0.0357(16)
H17 H 0.680(2) 0.7173(16) 0.0179(15)
H18 H 0.805(2) 0.5331(16) 0.0823(15)
H19 H 0.855(2) 0.0921(17) 0.0259(16)
H20 H 0.965(2) 0.0672(17) -0.1692(15)
H21 H 1.0935(19) 0.2060(16) -0.2971(15)
H22 H 1.090(2) 0.3650(16) -0.2145(15)
H23 H 0.987(2) 0.3778(17) -0.0238(15)
Cd1A Cd 0.229116(10) -0.279266(8) -0.212484(7)
Cd1A_2 Cd 1.229116(10) 0.720734(8) 0.787516(7)
O1A O 0.25966(11) -0.08304(9) -0.28297(9)
O2A O 0.42873(11) -0.20405(9) -0.19448(8)
O3A O 0.58242(11) -0.03370(9) -0.23216(9)
O4A O 0.99819(11) 0.79764(9) 0.73824(9)
O4A_2 O -0.00181(11) -0.20236(9) -0.26176(9)
O5A O 1.04766(12) 0.60506(9) 0.78970(9)
O5A_2 O 0.04766(12) -0.39494(9) -0.21030(9)
O6A O 0.81843(10) 0.59188(9) 0.70601(8)
N1A N 0.37411(13) -0.31069(11) -0.40746(9)
N2A N 0.36615(12) -0.46458(10) -0.14121(9)
N3A N 0.08864(12) -0.24103(10) -0.01752(9)
C1A C 0.38000(15) -0.10836(12) -0.25091(11)
C2A C 0.46872(17) -0.01548(14) -0.28921(13)
C3A C 0.53510(15) -0.01550(12) -0.11703(12)
C4A C 0.38320(16) 0.02737(12) -0.05367(13)
C5A C 0.65073(15) -0.04221(12) -0.06307(13)
C6A C 0.96721(14) 0.69961(12) 0.75310(10)
C7A C 0.82200(15) 0.70398(12) 0.72492(12)
C8A C 0.91134(14) 0.54984(12) 0.60242(11)
C9A C 1.00563(15) 0.61010(12) 0.51636(12)
C10A C 0.90697(15) 0.44065(12) 0.58507(11)
C11A C 0.31145(17) -0.25034(13) -0.49255(12)
C12A C 0.39008(18) -0.24944(15) -0.60911(13)
C13A C 0.5416(2) -0.31378(17) -0.63960(13)
C14A C 0.6081(2) -0.3767(2) -0.55333(14)
C15A C 0.52133(19) -0.37331(18) -0.43884(14)
C16A C 0.51520(15) -0.48968(13) -0.14950(11)
C17A C 0.59898(17) -0.60037(14) -0.11346(12)
C18A C 0.52638(19) -0.68797(14) -0.06219(13)
C19A C 0.37192(18) -0.66212(13) -0.05062(13)
C20A C 0.29723(16) -0.55099(13) -0.09245(12)
C21A C 0.09427(17) -0.15046(13) 0.02747(13)
C22A C 0.02771(19) -0.13254(14) 0.14383(13)
C23A C -0.04559(17) -0.21306(14) 0.21741(13)
C24A C -0.05074(17) -0.30781(15) 0.17245(13)
C25A C 0.01606(16) -0.31757(14) 0.05501(12)
H1A H 0.3940(19) 0.0640(16) -0.2830(14)
H2A H 0.5212(18) -0.0236(14) -0.3706(14)
H3A H 0.3033(18) 0.0474(14) -0.0883(13)
H4A H 0.749(2) -0.0674(15) -0.1061(14)
H5A H 0.7383(17) 0.7279(14) 0.7905(13)
H6A H 0.8084(17) 0.7638(14) 0.6591(14)
H7A H 1.0103(18) 0.6843(15) 0.5258(13)
H8A H 0.8441(19) 0.3983(15) 0.6430(14)
H9A H 0.218(2) -0.2073(16) -0.4717(14)
H10A H 0.342(2) -0.2044(17) -0.6676(16)
H11A H 0.601(2) -0.3145(18) -0.7171(17)
H12A H 0.707(3) -0.420(2) -0.5679(18)
H13A H 0.567(2) -0.4123(18) -0.3775(16)
H14A H 0.5609(18) -0.4335(15) -0.1844(14)
H15A H 0.696(2) -0.6129(15) -0.1207(14)
H16A H 0.579(2) -0.7605(18) -0.0357(16)
H17A H 0.320(2) -0.7173(16) -0.0179(15)
H18A H 0.195(2) -0.5331(16) -0.0823(15)
H19A H 0.145(2) -0.0921(17) -0.0259(16)
H20A H 0.035(2) -0.0672(17) 0.1692(15)
H21A H -0.0935(19) -0.2060(16) 0.2971(15)
H22A H -0.090(2) -0.3650(16) 0.2145(15)
H23A H 0.013(2) -0.3778(17) 0.0238(15)
O7 O 1.11200(14) -0.02912(12) 0.36075(11)
H24 H 1.090(4) 0.045(3) 0.328(3)
H25 H 1.015(2) -0.0409(16) 0.3982(15)
O8 O 0.81587(15) -0.06726(12) 0.47558(12)
H26 H 0.771(3) -0.019(2) 0.424(2)
H27 H 0.818(3) -0.028(3) 0.531(3)
loop_
_geom_bond_atom_site_label_1
_geom_bond_atom_site_label_2
_geom_bond_site_symmetry_1
_geom_bond_site_symmetry_2
Cd1 O1 1_555 1_555
O1 C1 1_555 1_555
O2 Cd1 1_555 1_555
O3 C2 1_555 1_555
O4 Cd1 1_555 1_555
O5 Cd1 1_555 1_555
O6 C7 1_555 1_555
O7 H24 1_555 1_555
O8 H26 1_555 1_555
N1 Cd1 1_555 1_555
N2 Cd1 1_555 1_555
N3 Cd1 1_555 1_555
C1 O2 1_555 1_555
C2 C1 1_555 1_555
C3 O3 1_555 1_555
C4 C3 1_555 1_555
C5 C3 1_555 1_555
C6 O4 1_555 1_555
C7 C6 1_555 1_555
C8 O6 1_555 1_555
C9 C8 1_555 1_555
C10 C8 1_555 1_555
C11 N1 1_555 1_555
C12 C11 1_555 1_555
C13 C12 1_555 1_555
C14 C13 1_555 1_555
C15 N1 1_555 1_555
C16 N2 1_555 1_555
C17 C16 1_555 1_555
C18 C17 1_555 1_555
C19 C18 1_555 1_555
C20 N2 1_555 1_555
C21 N3 1_555 1_555
C22 C21 1_555 1_555
C23 C22 1_555 1_555
C24 C23 1_555 1_555
C25 N3 1_555 1_555
H1 C2 1_555 1_555
H2 C2 1_555 1_555
H3 C4 1_555 1_555
H4 C5 1_555 1_555
H5 C7 1_555 1_555
H6 C7 1_555 1_555
H7 C9 1_555 1_555
H8 C10 1_555 1_555
H9 C11 1_555 1_555
H10 C12 1_555 1_555
H11 C13 1_555 1_555
H12 C14 1_555 1_555
H13 C15 1_555 1_555
H14 C16 1_555 1_555
H15 C17 1_555 1_555
H16 C18 1_555 1_555
H17 C19 1_555 1_555
H18 C20 1_555 1_555
H19 C21 1_555 1_555
H20 C22 1_555 1_555
H21 C23 1_555 1_555
H22 C24 1_555 1_555
H23 C25 1_555 1_555
H25 O7 1_555 1_555
H27 O8 1_555 1_555
Cd1A O1A 1_555 1_555
Cd1A_2 O4A 1_555 1_555
O1A C1A 1_555 1_555
O2A Cd1A 1_555 1_555
O3A C2A 1_555 1_555
O4A C6A 1_555 1_555
O4A_2 Cd1A 1_555 1_555
O5A Cd1A_2 1_555 1_555
O5A_2 Cd1A 1_555 1_555
O6A C7A 1_555 1_555
N1A Cd1A 1_555 1_555
N2A Cd1A 1_555 1_555
N3A Cd1A 1_555 1_555
C1A O2A 1_555 1_555
C2A C1A 1_555 1_555
C3A O3A 1_555 1_555
C4A C5 1_555 1_555
C5A C4 1_555 1_555
C6A O5A 1_555 1_555
C7A C6A 1_555 1_555
C8A O6A 1_555 1_555
C9A C10 1_555 1_555
C10A C9 1_555 1_555
C11A N1A 1_555 1_555
C12A C11A 1_555 1_555
C13A C12A 1_555 1_555
C14A C13A 1_555 1_555
C15A N1A 1_555 1_555
C16A N2A 1_555 1_555
C17A C16A 1_555 1_555
C18A C17A 1_555 1_555
C19A C18A 1_555 1_555
C20A N2A 1_555 1_555
C21A N3A 1_555 1_555
C22A C21A 1_555 1_555
C23A C22A 1_555 1_555
C24A C23A 1_555 1_555
C25A N3A 1_555 1_555
H1A C2A 1_555 1_555
H2A C2A 1_555 1_555
H3A C4A 1_555 1_555
H4A C5A 1_555 1_555
H5A C7A 1_555 1_555
H6A C7A 1_555 1_555
H7A C9A 1_555 1_555
H8A C10A 1_555 1_555
H9A C11A 1_555 1_555
H10A C12A 1_555 1_555
H11A C13A 1_555 1_555
H12A C14A 1_555 1_555
H13A C15A 1_555 1_555
H14A C16A 1_555 1_555
H15A C17A 1_555 1_555
H16A C18A 1_555 1_555
H17A C19A 1_555 1_555
H18A C20A 1_555 1_555
H19A C21A 1_555 1_555
H20A C22A 1_555 1_555
H21A C23A 1_555 1_555
H22A C24A 1_555 1_555
H23A C25A 1_555 1_555
O5 C6 1_555 1_555
C14 C15 1_555 1_555
C19 C20 1_555 1_555
C24 C25 1_555 1_555
C3A C4A 1_555 1_555
C3A C5A 1_555 1_555
C8A C9A 1_555 1_555
C8A C10A 1_555 1_555
C14A C15A 1_555 1_555
C19A C20A 1_555 1_555
C24A C25A 1_555 1_555

#END
