
#######################################################################
#
#                 Cambridge Crystallographic Data Centre
#                                CCDC 
#
#######################################################################
#
# If this CIF has been generated from an entry in the Cambridge 
# Structural Database, then it will include bibliographic, chemical, 
# crystal, experimental, refinement or atomic coordinate data resulting 
# from the CCDC's data processing and validation procedures.
#
#######################################################################

data_CAFFCU
_symmetry_cell_setting           orthorhombic
_symmetry_space_group_name_H-M   'P 21 21 21'
_symmetry_Int_Tables_number      19
_space_group_name_Hall           'P 2ac 2ab'
loop_
_symmetry_equiv_pos_site_id
_symmetry_equiv_pos_as_xyz
1 x,y,z
2 1/2-x,-y,1/2+z
3 1/2+x,1/2-y,-z
4 -x,1/2+y,1/2-z
_cell_length_a                   16.370(9)
_cell_length_b                   13.432(7)
_cell_length_c                   5.814(6)
_cell_angle_alpha                90
_cell_angle_beta                 90
_cell_angle_gamma                90
_cell_volume                     1278.39
loop_
_atom_site_label
_atom_site_type_symbol
_atom_site_fract_x
_atom_site_fract_y
_atom_site_fract_z
Cu1 Cu 0.19620 0.11560 0.04670
Cl1 Cl 0.30560 0.04200 0.23470
Cl2 Cl 0.08860 0.18390 -0.13460
O1 O 0.12350 0.04410 0.25870
N1 N 0.38650 0.46530 0.15490
C1 C 0.43380 0.54980 0.24870
C2 C 0.31860 0.43500 0.28150
O2 O 0.29700 0.48020 0.45360
N2 N 0.27780 0.34970 0.20830
C3 C 0.20080 0.32290 0.32240
C4 C 0.30480 0.30190 0.01620
C5 C 0.36930 0.33580 -0.11150
C6 C 0.41160 0.42630 -0.05580
O3 O 0.46350 0.46790 -0.17360
N3 N 0.38000 0.26810 -0.28550
C7 C 0.44700 0.26430 -0.45670
C8 C 0.32340 0.19840 -0.26050
N4 N 0.27410 0.21500 -0.07490
H1 H 0.48600 0.53400 0.20600
H2 H 0.44000 0.53800 0.40100
H3 H 0.41000 0.59100 0.22800
H4 H 0.21000 0.25800 0.37500
H5 H 0.20200 0.36200 0.46000
H6 H 0.15000 0.34600 0.24000
H7 H 0.49600 0.26100 -0.35200
H8 H 0.45300 0.31000 -0.51900
H9 H 0.43200 0.20200 -0.58100
H10 H 0.31100 0.13900 -0.37800
H11 H 0.13300 0.03100 0.35900
H12 H 0.09600 0.06300 0.26300
Cl1A Cl 0.19440 -0.04200 -0.26530
Cu1A Cu 0.30380 -0.11560 0.54670
Cu1A_2 Cu 0.30380 -0.11560 -0.45330
Cl1A_2 Cl 0.19440 -0.04200 0.73470
Cl2A Cl 0.41140 -0.18390 0.36540
O1A O 0.37650 -0.04410 0.75870
N4A N 0.22590 -0.21500 0.42510
H11A H 0.36700 -0.03100 0.85900
H12A H 0.40400 -0.06300 0.76300
C4A C 0.19520 -0.30190 0.51620
C8A C 0.17660 -0.19840 0.23950
N2A N 0.22220 -0.34970 0.70830
C5A C 0.13070 -0.33580 0.38850
N3A N 0.12000 -0.26810 0.21450
H10A H 0.18900 -0.13900 0.12200
C2A C 0.18140 -0.43500 0.78150
C3A C 0.29920 -0.32290 0.82240
C6A C 0.08840 -0.42630 0.44420
C7A C 0.05300 -0.26430 0.04330
N1A N 0.11350 -0.46530 0.65490
O2A O 0.20300 -0.48020 0.95360
H4A H 0.29000 -0.25800 0.87500
H5A H 0.29800 -0.36200 0.96000
H6A H 0.35000 -0.34600 0.74000
O3A O 0.03650 -0.46790 0.32640
H7A H 0.00400 -0.26100 0.14800
H8A H 0.04700 -0.31000 -0.01900
H9A H 0.06800 -0.20200 -0.08100
C1A C 0.06620 -0.54980 0.74870
H1A H 0.01400 -0.53400 0.70600
H2A H 0.06000 -0.53800 0.90100
H3A H 0.09000 -0.59100 0.72800
loop_
_geom_bond_atom_site_label_1
_geom_bond_atom_site_label_2
_geom_bond_site_symmetry_1
_geom_bond_site_symmetry_2
Cu1 Cl1 1_555 1_555
Cl1 Cu1A 1_555 1_555
Cl2 Cu1 1_555 1_555
O1 Cu1 1_555 1_555
N1 C1 1_555 1_555
C1 H1 1_555 1_555
C2 N1 1_555 1_555
O2 C2 1_555 1_555
N2 C2 1_555 1_555
C3 N2 1_555 1_555
C4 N2 1_555 1_555
C5 C4 1_555 1_555
C6 N1 1_555 1_555
O3 C6 1_555 1_555
N3 C5 1_555 1_555
C7 N3 1_555 1_555
C8 N3 1_555 1_555
N4 Cu1 1_555 1_555
H2 C1 1_555 1_555
H3 C1 1_555 1_555
H4 C3 1_555 1_555
H5 C3 1_555 1_555
H6 C3 1_555 1_555
H7 C7 1_555 1_555
H8 C7 1_555 1_555
H9 C7 1_555 1_555
H10 C8 1_555 1_555
H11 O1 1_555 1_555
H12 O1 1_555 1_555
Cl1A Cu1 1_555 1_555
Cu1A Cl1A_2 1_555 1_555
Cu1A_2 Cl1A 1_555 1_555
Cl2A Cu1A 1_555 1_555
O1A Cu1A 1_555 1_555
N4A Cu1A 1_555 1_555
H11A O1A 1_555 1_555
H12A O1A 1_555 1_555
C4A N4A 1_555 1_555
C8A N4A 1_555 1_555
N2A C4A 1_555 1_555
C5A C4A 1_555 1_555
N3A C8A 1_555 1_555
H10A C8A 1_555 1_555
C2A N2A 1_555 1_555
C3A N2A 1_555 1_555
C6A C5A 1_555 1_555
C7A N3A 1_555 1_555
N1A C2A 1_555 1_555
O2A C2A 1_555 1_555
H4A C3A 1_555 1_555
H5A C3A 1_555 1_555
H6A C3A 1_555 1_555
O3A C6A 1_555 1_555
H7A C7A 1_555 1_555
H8A C7A 1_555 1_555
H9A C7A 1_555 1_555
C1A N1A 1_555 1_555
H1A C1A 1_555 1_555
H2A C1A 1_555 1_555
H3A C1A 1_555 1_555
C4 N4 1_555 1_555
C5 C6 1_555 1_555
C8 N4 1_555 1_555
C5A N3A 1_555 1_555
C6A N1A 1_555 1_555

#END
