
#######################################################################
#
#                 Cambridge Crystallographic Data Centre
#                                CCDC 
#
#######################################################################
#
# If this CIF has been generated from an entry in the Cambridge 
# Structural Database, then it will include bibliographic, chemical, 
# crystal, experimental, refinement or atomic coordinate data resulting 
# from the CCDC's data processing and validation procedures.
#
#######################################################################

data_CAFFCU01
_symmetry_cell_setting           orthorhombic
_symmetry_space_group_name_H-M   'P 21 21 21'
_symmetry_Int_Tables_number      19
_space_group_name_Hall           'P 2ac 2ab'
loop_
_symmetry_equiv_pos_site_id
_symmetry_equiv_pos_as_xyz
1 x,y,z
2 1/2-x,-y,1/2+z
3 1/2+x,1/2-y,-z
4 -x,1/2+y,1/2-z
_cell_length_a                   5.7841(14)
_cell_length_b                   13.342(2)
_cell_length_c                   16.260(3)
_cell_angle_alpha                90
_cell_angle_beta                 90
_cell_angle_gamma                90
_cell_volume                     1254.81
loop_
_atom_site_label
_atom_site_type_symbol
_atom_site_fract_x
_atom_site_fract_y
_atom_site_fract_z
C1 C 0.4909(6) -0.0516(2) 0.92768(18)
H1 H 0.3931 -0.1064 0.9338
C2 C 0.6395(5) 0.0858(2) 0.88088(17)
C3 C 0.7670(4) 0.05166(19) 0.94548(16)
C4 C 1.0340(5) 0.1848(2) 0.93133(17)
C5 C 0.6922(6) 0.1766(2) 0.83860(16)
C6 C 1.0007(7) 0.3003(2) 0.8163(2)
H2 H 1.1663 0.2993 0.8199
H3 H 0.9435 0.3621 0.8387
H4 H 0.9548 0.2949 0.7597
C7 C 0.2958(6) 0.0155(3) 0.8025(2)
H5 H 0.2227 0.0798 0.7976
H6 H 0.1809 -0.0346 0.8136
H7 H 0.3741 -0.0003 0.7521
C8 C 1.0757(6) 0.0739(3) 1.0489(2)
H8 H 1.2064 0.1172 1.0567
H9 H 1.1269 0.0055 1.0466
H10 H 0.9699 0.0820 1.0939
N1 N 0.6721(4) -0.03460(17) 0.97536(14)
N2 N 0.4636(4) 0.01799(18) 0.87017(15)
N3 N 0.9598(4) 0.09973(17) 0.97208(14)
N4 N 0.9047(5) 0.21550(18) 0.86306(15)
O1 O 1.0098(4) -0.2055(2) 1.12706(13)
O2 O 0.5767(4) 0.21829(17) 0.78614(13)
O3 O 1.2057(4) 0.22988(17) 0.95262(16)
Cl1 Cl 0.98534(11) -0.20794(5) 0.94441(4)
Cl2 Cl 0.61622(17) -0.06597(7) 1.16147(5)
Cu1 Cu 0.79706(6) -0.13429(2) 1.05366(2)
Cl1B Cl 0.48534(11) -0.29206(5) 1.05559(4)
Cu1B Cu 1.29706(6) -0.36571(2) 0.94634(2)
loop_
_geom_bond_atom_site_label_1
_geom_bond_atom_site_label_2
_geom_bond_site_symmetry_1
_geom_bond_site_symmetry_2
C1 H1 1_555 1_555
C2 C3 1_555 1_555
C3 N1 1_555 1_555
C4 N3 1_555 1_555
C5 C2 1_555 1_555
C6 H2 1_555 1_555
H3 C6 1_555 1_555
H4 C6 1_555 1_555
C7 H5 1_555 1_555
H6 C7 1_555 1_555
H7 C7 1_555 1_555
C8 H8 1_555 1_555
H9 C8 1_555 1_555
H10 C8 1_555 1_555
N1 C1 1_555 1_555
N2 C1 1_555 1_555
N3 C3 1_555 1_555
N4 C4 1_555 1_555
O1 Cu1 1_555 1_555
O2 C5 1_555 1_555
O3 C4 1_555 1_555
Cl1 Cu1 1_555 1_555
Cl2 Cu1 1_555 1_555
Cu1 N1 1_555 1_555
Cl1B Cu1 1_555 1_555
Cu1B Cl1 1_555 1_555
C2 N2 1_555 1_555
C5 N4 1_555 1_555
C6 N4 1_555 1_555
C7 N2 1_555 1_555
C8 N3 1_555 1_555

#END
