
#######################################################################
#
#                 Cambridge Crystallographic Data Centre
#                                CCDC 
#
#######################################################################
#
# If this CIF has been generated from an entry in the Cambridge 
# Structural Database, then it will include bibliographic, chemical, 
# crystal, experimental, refinement or atomic coordinate data resulting 
# from the CCDC's data processing and validation procedures.
#
#######################################################################

data_CAFHAS
_symmetry_cell_setting           triclinic
_symmetry_space_group_name_H-M   'P -1'
_symmetry_Int_Tables_number      2
_space_group_name_Hall           '-P 1'
loop_
_symmetry_equiv_pos_site_id
_symmetry_equiv_pos_as_xyz
1 x,y,z
2 -x,-y,-z
_cell_length_a                   5.717(2)
_cell_length_b                   7.573(2)
_cell_length_c                   7.683(2)
_cell_angle_alpha                79.54(2)
_cell_angle_beta                 68.70(2)
_cell_angle_gamma                89.36(2)
_cell_volume                     304.217
loop_
_atom_site_label
_atom_site_type_symbol
_atom_site_fract_x
_atom_site_fract_y
_atom_site_fract_z
Cd1 Cd 0.00000 0.00000 0.00000
N1 N -0.06720 0.42320 0.33670
N2 N 0.10890 0.33770 0.39430
C1 C 0.14790 0.20110 0.30750
N3 N 0.01090 0.19490 0.19760
C2 C -0.12260 0.33840 0.22050
H1 H -0.13800 0.51600 0.38000
H2 H 0.23100 0.13800 0.35000
H3 H -0.21300 0.33500 0.13300
N4 N -0.27640 0.18470 -0.09650
C3 C -0.58680 -0.19200 0.17650
S1 S -0.39520 -0.19790 0.29350
N3A N -0.01090 -0.19490 -0.19760
N4A N 0.27640 -0.18470 0.09650
S1A S 0.39520 0.19790 -0.29350
C1A C -0.14790 -0.20110 -0.30750
C2A C 0.12260 -0.33840 -0.22050
C3A C -0.41320 0.19200 -0.17650
N2A N -0.10890 -0.33770 -0.39430
H2A H -0.23100 -0.13800 -0.35000
N1A N 0.06720 -0.42320 -0.33670
H3A H 0.21300 -0.33500 -0.13300
S1A_2 S -0.60480 0.19790 -0.29350
H1A H 0.13800 -0.51600 -0.38000
N4A_2 N -0.72360 -0.18470 0.09650
Cd1_2 Cd -1.00000 0.00000 0.00000
loop_
_geom_bond_atom_site_label_1
_geom_bond_atom_site_label_2
_geom_bond_site_symmetry_1
_geom_bond_site_symmetry_2
Cd1 N3 1_555 1_555
N1 N2 1_555 1_555
N2 C1 1_555 1_555
C1 N3 1_555 1_555
N3 C2 1_555 1_555
C2 N1 1_555 1_555
H1 N1 1_555 1_555
H2 C1 1_555 1_555
H3 C2 1_555 1_555
N4 Cd1 1_555 1_555
C3 S1 1_555 1_555
S1 Cd1 1_555 1_555
N3A Cd1 1_555 1_555
N4A Cd1 1_555 1_555
S1A Cd1 1_555 1_555
C1A N3A 1_555 1_555
C2A N3A 1_555 1_555
C3A N4 1_555 1_555
N2A C1A 1_555 1_555
H2A C1A 1_555 1_555
N1A C2A 1_555 1_555
H3A C2A 1_555 1_555
S1A_2 C3A 1_555 1_555
H1A N1A 1_555 1_555
N4A_2 C3 1_555 1_555
Cd1_2 S1A_2 1_555 1_555
N2A N1A 1_555 1_555
N4A_2 Cd1_2 1_555 1_555

#END
