
#######################################################################
#
#                 Cambridge Crystallographic Data Centre
#                                CCDC 
#
#######################################################################
#
# If this CIF has been generated from an entry in the Cambridge 
# Structural Database, then it will include bibliographic, chemical, 
# crystal, experimental, refinement or atomic coordinate data resulting 
# from the CCDC's data processing and validation procedures.
#
#######################################################################

data_CAFSAE
_symmetry_cell_setting           monoclinic
_symmetry_space_group_name_H-M   'P 21/c'
_symmetry_Int_Tables_number      14
_space_group_name_Hall           '-P 2ybc'
loop_
_symmetry_equiv_pos_site_id
_symmetry_equiv_pos_as_xyz
1 x,y,z
2 x,1/2-y,1/2+z
3 -x,-y,-z
4 -x,1/2+y,1/2-z
_cell_length_a                   5.2688(16)
_cell_length_b                   17.831(6)
_cell_length_c                   15.226(5)
_cell_angle_alpha                90
_cell_angle_beta                 93.106(6)
_cell_angle_gamma                90
_cell_volume                     1428.35
loop_
_atom_site_label
_atom_site_type_symbol
_atom_site_fract_x
_atom_site_fract_y
_atom_site_fract_z
Ag1 Ag 0.18558(9) 0.26790(3) 0.85623(4)
S1 S -0.1155(3) 0.23567(11) 0.98137(10)
C1 C -0.2967(10) 0.3183(3) 1.0102(4)
H1 H -0.4019 0.3043 1.0579
H2 H -0.1765 0.3555 1.0334
C2 C -0.3564(11) 0.1694(4) 0.9569(4)
C3 C -0.3988(11) 0.1414(4) 0.8716(5)
H3 H -0.3046 0.1597 0.8264
C4 C -0.5797(12) 0.0866(4) 0.8541(4)
H4 H -0.6026 0.0670 0.7976
C5 C -0.7277(12) 0.0607(4) 0.9204(5)
H5 H -0.8523 0.0247 0.9082
C6 C -0.6885(12) 0.0888(4) 1.0046(5)
H6 H -0.7872 0.0715 1.0492
C7 C -0.5044(12) 0.1423(4) 1.0230(4)
H7 H -0.4788 0.1604 1.0800
N1 N 0.2004(11) 0.1914(3) 0.6812(4)
O1 O 0.3681(9) 0.2367(3) 0.7031(3)
O2 O 0.0174(10) 0.1886(3) 0.7274(4)
O3 O 0.2211(8) 0.1512(3) 0.6176(3)
S2 S -0.5011(3) 0.36395(10) 0.92630(11)
C8 C -0.2684(10) 0.3993(4) 0.8563(4)
C9 C -0.2095(11) 0.3590(4) 0.7801(4)
H8 H -0.2966 0.3151 0.7649
C10 C -0.0211(12) 0.3855(4) 0.7282(4)
H9 H 0.0234 0.3584 0.6791
C11 C 0.0996(12) 0.4517(4) 0.7494(5)
H10 H 0.2262 0.4693 0.7145
C12 C 0.0361(12) 0.4924(4) 0.8217(5)
H11 H 0.1191 0.5374 0.8350
C13 C -0.1501(12) 0.4669(4) 0.8744(5)
H12 H -0.1958 0.4953 0.9223
S2_2 S 0.4989(3) 0.36395(10) 0.92630(11)
Ag1_2 Ag -0.81442(9) 0.26790(3) 0.85623(4)
loop_
_geom_bond_atom_site_label_1
_geom_bond_atom_site_label_2
_geom_bond_site_symmetry_1
_geom_bond_site_symmetry_2
Ag1 S1 1_555 1_555
S1 C1 1_555 1_555
C1 H1 1_555 1_555
H2 C1 1_555 1_555
C2 S1 1_555 1_555
C3 C2 1_555 1_555
H3 C3 1_555 1_555
C4 C3 1_555 1_555
H4 C4 1_555 1_555
C5 C4 1_555 1_555
H5 C5 1_555 1_555
C6 C5 1_555 1_555
H6 C6 1_555 1_555
C7 C2 1_555 1_555
H7 C7 1_555 1_555
N1 O1 1_555 1_555
O1 Ag1 1_555 1_555
O2 Ag1 1_555 1_555
O3 N1 1_555 1_555
S2 C1 1_555 1_555
C8 S2 1_555 1_555
C9 C8 1_555 1_555
H8 C9 1_555 1_555
C10 C9 1_555 1_555
H9 C10 1_555 1_555
C11 C10 1_555 1_555
H10 C11 1_555 1_555
C12 C11 1_555 1_555
H11 C12 1_555 1_555
C13 C8 1_555 1_555
H12 C13 1_555 1_555
S2_2 Ag1 1_555 1_555
Ag1_2 S2 1_555 1_555
C6 C7 1_555 1_555
N1 O2 1_555 1_555
C12 C13 1_555 1_555

#END
