
#######################################################################
#
#                 Cambridge Crystallographic Data Centre
#                                CCDC 
#
#######################################################################
#
# If this CIF has been generated from an entry in the Cambridge 
# Structural Database, then it will include bibliographic, chemical, 
# crystal, experimental, refinement or atomic coordinate data resulting 
# from the CCDC's data processing and validation procedures.
#
#######################################################################

data_CAFSOS
_symmetry_cell_setting           orthorhombic
_symmetry_space_group_name_H-M   'P c c n'
_symmetry_Int_Tables_number      56
_space_group_name_Hall           '-P 2ab 2ac'
loop_
_symmetry_equiv_pos_site_id
_symmetry_equiv_pos_as_xyz
1 x,y,z
2 1/2+x,1/2+y,-z
3 x,1/2-y,1/2+z
4 1/2-x,y,1/2+z
5 -x,-y,-z
6 1/2-x,1/2-y,z
7 -x,1/2+y,1/2-z
8 1/2+x,-y,1/2-z
_cell_length_a                   22.999(3)
_cell_length_b                   23.338(3)
_cell_length_c                   7.3888(11)
_cell_angle_alpha                90
_cell_angle_beta                 90
_cell_angle_gamma                90
_cell_volume                     3965.94
loop_
_atom_site_label
_atom_site_type_symbol
_atom_site_fract_x
_atom_site_fract_y
_atom_site_fract_z
Co1 Co 1.04317(3) 0.38956(2) 0.94495(9)
C1 C 0.9877(2) 0.27120(18) 0.9533(8)
H1 H 1.0261 0.2598 0.9359
C2 C 0.9464(2) 0.22963(19) 0.9674(8)
H2 H 0.9567 0.1912 0.9599
C3 C 0.8897(2) 0.24511(19) 0.9925(6)
C4 C 0.8773(2) 0.3026(2) 1.0029(8)
H3 H 0.8393 0.3149 1.0211
C5 C 0.9210(2) 0.3416(2) 0.9864(8)
H4 H 0.9116 0.3803 0.9918
C6 C 0.8448(2) 0.20284(19) 1.0113(7)
C7 C 0.8084(2) 0.1664(2) 1.0258(7)
C8 C 0.76737(19) 0.12392(19) 1.0413(7)
C9 C 0.73244(19) 0.08658(19) 1.0515(7)
C10 C 0.69033(19) 0.04125(18) 1.0565(7)
C11 C 0.6778(2) 0.0107(2) 0.9014(7)
H5 H 0.6966 0.0192 0.7933
C12 C 0.6370(2) -0.0325(2) 0.9084(7)
H6 H 0.6289 -0.0529 0.8032
C13 C 0.6213(2) -0.0168(2) 1.2061(7)
H7 H 0.6019 -0.0261 1.3126
C14 C 0.6613(2) 0.0269(2) 1.2111(7)
H8 H 0.6685 0.0465 1.3184
N1 N 0.97658(15) 0.32734(14) 0.9630(5)
N2 N 0.60876(16) -0.04633(16) 1.0596(6)
N3 N 0.9691(2) 0.44130(18) 0.6385(6)
N4 N 1.1010(3) 0.3207(3) 1.2485(10)
O1 O 0.99083(14) 0.44881(12) 0.7968(4)
O2 O 0.9839(3) 0.39928(18) 0.5543(7)
O3 O 0.9370(2) 0.4771(2) 0.5771(6)
O4 O 1.10068(18) 0.33449(18) 1.0904(6)
O5 O 1.0669(3) 0.3462(3) 1.3519(8)
O6 O 1.1289(3) 0.2788(3) 1.3088(9)
O7 O 1.00394(16) 0.43108(15) 1.1610(5)
H9 H 1.011(2) 0.417(2) 1.264(3)
H10 H 1.006(3) 0.4664(8) 1.186(9)
O8 O 1.08245(19) 0.34635(19) 0.7333(6)
H11 H 1.098(3) 0.3134(13) 0.730(11)
H12 H 1.077(2) 0.353(2) 0.622(2)
N2A N 1.10876(16) 0.45367(16) 0.9404(6)
Co1A Co 0.54317(3) -0.11044(2) 1.05505(9)
O9 O 0.2168(6) 0.4027(8) 0.472(3)
O10 O 0.215(2) 0.349(3) 0.752(10)
O11? O 0.255(2) 0.321(2) 0.544(8)
loop_
_geom_bond_atom_site_label_1
_geom_bond_atom_site_label_2
_geom_bond_site_symmetry_1
_geom_bond_site_symmetry_2
Co1 N1 1_555 1_555
C1 H1 1_555 1_555
C2 C1 1_555 1_555
H2 C2 1_555 1_555
C3 C2 1_555 1_555
C4 C3 1_555 1_555
H3 C4 1_555 1_555
C5 C4 1_555 1_555
H4 C5 1_555 1_555
C6 C3 1_555 1_555
C7 C6 1_555 1_555
C8 C7 1_555 1_555
C9 C8 1_555 1_555
C10 C9 1_555 1_555
C11 C10 1_555 1_555
H5 C11 1_555 1_555
C12 C11 1_555 1_555
H6 C12 1_555 1_555
C13 H7 1_555 1_555
C14 C10 1_555 1_555
H8 C14 1_555 1_555
N1 C1 1_555 1_555
N2 C12 1_555 1_555
N3 O1 1_555 1_555
N4 O4 1_555 1_555
O1 Co1 1_555 1_555
O2 N3 1_555 1_555
O3 N3 1_555 1_555
O4 Co1 1_555 1_555
O5 N4 1_555 1_555
O6 N4 1_555 1_555
O7 Co1 1_555 1_555
H9 O7 1_555 1_555
H10 O7 1_555 1_555
O8 Co1 1_555 1_555
H11 O8 1_555 1_555
H12 O8 1_555 1_555
N2A Co1 1_555 1_555
Co1A N2 1_555 1_555
C5 N1 1_555 1_555
C13 N2 1_555 1_555
C13 C14 1_555 1_555

#END
