
#######################################################################
#
#                 Cambridge Crystallographic Data Centre
#                                CCDC 
#
#######################################################################
#
# If this CIF has been generated from an entry in the Cambridge 
# Structural Database, then it will include bibliographic, chemical, 
# crystal, experimental, refinement or atomic coordinate data resulting 
# from the CCDC's data processing and validation procedures.
#
#######################################################################

data_CAFTUZ
_symmetry_cell_setting           hexagonal
_symmetry_space_group_name_H-M   'P 65 2 2'
_symmetry_Int_Tables_number      179
_space_group_name_Hall           "P 65 2' (0,0,1)"
loop_
_symmetry_equiv_pos_site_id
_symmetry_equiv_pos_as_xyz
1 x,y,z
2 -y,x-y,2/3+z
3 -x+y,-x,1/3+z
4 -x,-y,1/2+z
5 y,-x+y,1/6+z
6 x-y,x,5/6+z
7 y,x,2/3-z
8 x-y,-y,-z
9 -x,-x+y,1/3-z
10 -y,-x,1/6-z
11 -x+y,y,1/2-z
12 x,x-y,5/6-z
_cell_length_a                   16.7265(2)
_cell_length_b                   16.7265(2)
_cell_length_c                   20.5822(4)
_cell_angle_alpha                90
_cell_angle_beta                 90
_cell_angle_gamma                120
_cell_volume                     4986.92
loop_
_atom_site_label
_atom_site_type_symbol
_atom_site_fract_x
_atom_site_fract_y
_atom_site_fract_z
Co1 Co 0.25536(2) 0.0000 0.0000
Co2 Co -0.063220(18) 0.323110(18) 0.017460(16)
O1 O -0.14187(10) 0.17389(10) 0.00658(9)
O2 O 0.00565(10) 0.24495(10) 0.02752(8)
O3 O 0.10568(9) -0.07532(10) -0.00128(8)
O4 O 0.01547(10) -0.44555(11) 0.00313(10)
O5 O 0.05332(11) -0.55190(10) 0.02440(10)
O6 O 0.37215(11) -0.47585(11) -0.01714(11)
H1 H 0.4148 -0.4855 -0.0243
O7 O 0.48651(11) -0.33310(11) -0.00316(10)
O8 O 0.41120(11) -0.08404(10) 0.00411(10)
O9 O 0.26669(10) -0.11564(10) -0.01376(9)
O10 O 0.26838(12) 0.02287(12) -0.10128(8)
H2 H 0.240(2) 0.047(2) -0.1145(15)
H3 H 0.253(2) -0.023(2) -0.1206(16)
O11 O -0.08200(14) 0.32227(14) 0.11995(10)
H4 H -0.105(2) 0.2759(19) 0.1348(18)
H5 H -0.079(2) 0.365(2) 0.1363(17)
O12 O -0.04093(16) 0.32088(14) -0.08214(9)
H6 H -0.019(2) 0.371(2) -0.1086(16)
H7 H -0.084(2) 0.280(2) -0.1040(17)
C1 C -0.06773(12) 0.08302(12) 0.00563(10)
C2 C 0.01557(12) 0.08280(12) 0.00581(9)
H8 H 0.0711 0.1381 0.0098
C3 C 0.01577(15) 0.0000 0.0000
C4 C -0.15080(16) 0.0000 0.0000
H9 H -0.2064 0.0000 0.0000
C5 C -0.06797(13) 0.17153(12) 0.01352(10)
C6 C 0.10554(16) 0.0000 0.0000
C7 C 0.17407(13) -0.39943(13) 0.00600(9)
C8 C 0.23957(13) -0.42725(13) 0.00370(10)
H10 H 0.2212 -0.4897 0.0056
C9 C 0.33318(12) -0.36116(13) -0.00141(9)
C10 C 0.36065(13) -0.26749(13) -0.00229(10)
H11 H 0.4231 -0.2234 -0.0036
C11 C 0.29470(13) -0.23973(13) -0.00124(9)
C12 C 0.20098(13) -0.30615(12) 0.00259(9)
H12 H 0.1567 -0.2880 0.0029
C13 C 0.07353(14) -0.47141(13) 0.01167(10)
C14 C 0.40447(13) -0.38970(14) -0.00651(10)
C15 C 0.32528(13) -0.13936(13) -0.00379(10)
C2G C -0.06723(17) -0.08280(12) -0.00581(9)
C1G C -0.15075(17) -0.08302(12) -0.00563(10)
C5G C -0.23950(18) -0.17153(12) -0.01352(10)
O1G O -0.31576(14) -0.17389(10) -0.00658(9)
O2G O -0.23930(14) -0.24495(10) -0.02752(8)
H8G H -0.0670 -0.1381 -0.0098
O3G O 0.18100(13) 0.07532(10) 0.00128(8)
O4G O 0.46102(15) 0.44555(11) -0.00313(10)
O5G O 0.60522(15) 0.55190(10) -0.02440(10)
O6G O 0.84800(16) 0.47585(11) 0.01714(11)
H1G H 0.9003 0.4855 0.0243
O7G O 0.81961(16) 0.33310(11) 0.00316(10)
O8G O 0.49524(15) 0.08404(10) -0.00411(10)
O9G O 0.38233(14) 0.11564(10) 0.01376(9)
C7G C 0.57350(18) 0.39943(13) -0.00600(9)
C8G C 0.66682(18) 0.42725(13) -0.00370(10)
H10G H 0.7109 0.4897 -0.0056
C9G C 0.69434(18) 0.36116(13) 0.00141(9)
C10G C 0.62814(18) 0.26749(13) 0.00229(10)
H11G H 0.6465 0.2234 0.0036
C11G C 0.53443(18) 0.23973(13) 0.00124(9)
C12G C 0.50713(18) 0.30615(12) -0.00259(9)
H12G H 0.4447 0.2880 -0.0029
C13G C 0.54494(19) 0.47141(13) -0.01167(10)
C14G C 0.79417(19) 0.38970(14) 0.00651(10)
C15G C 0.46464(18) 0.13936(13) 0.00379(10)
O10G O 0.24551(17) -0.02287(12) 0.10128(8)
H2G H 0.193(3) -0.047(2) 0.1145(15)
H3G H 0.276(3) 0.023(2) 0.1206(16)
Co2G Co -0.386330(25) -0.323110(18) -0.017460(16)
O11G O -0.40427(20) -0.32227(14) -0.11995(10)
H4G H -0.3809(28) -0.2759(19) -0.1348(18)
H5G H -0.444(3) -0.365(2) -0.1363(17)
O12G O -0.36181(21) -0.32088(14) 0.08214(9)
H6G H -0.390(3) -0.371(2) 0.1086(16)
H7G H -0.364(3) -0.280(2) 0.1040(17)
O5_2 O 0.05332(11) 0.44810(10) 0.02440(10)
O7G_2 O -0.18039(16) 0.33310(11) 0.00316(10)
Co2_2 Co -0.063220(18) -0.676890(18) 0.017460(16)
Co2G_2 Co 0.613670(25) -0.323110(18) -0.017460(16)
Co2G_3 Co 0.613670(25) 0.676890(18) -0.017460(16)
Co2_3 Co 0.936780(18) 0.323110(18) 0.017460(16)
O5G_2 O -0.39478(15) -0.44810(10) -0.02440(10)
O7_2 O -0.51349(11) -0.33310(11) -0.00316(10)
O13 O 0.84957(17) 0.66238(14) 0.00866(13)
H13 H 0.835(2) 0.694(2) -0.0059(18)
H14 H 0.829(2) 0.627(2) 0.0363(15)
loop_
_geom_bond_atom_site_label_1
_geom_bond_atom_site_label_2
_geom_bond_site_symmetry_1
_geom_bond_site_symmetry_2
Co1 O3 1_555 1_555
Co2 O1 1_555 1_555
O1 C5 1_555 1_555
O2 Co2 1_555 1_555
O3 C6 1_555 1_555
O4 C13 1_555 1_555
O5 C13 1_555 1_555
O6 H1 1_555 1_555
O7 C14 1_555 1_555
O8 C15 1_555 1_555
O9 Co1 1_555 1_555
O10 Co1 1_555 1_555
H2 O10 1_555 1_555
H3 O10 1_555 1_555
O11 Co2 1_555 1_555
H4 O11 1_555 1_555
H5 O11 1_555 1_555
O12 Co2 1_555 1_555
H6 O12 1_555 1_555
H7 O12 1_555 1_555
C1 C2 1_555 1_555
C2 H8 1_555 1_555
C3 C2 1_555 1_555
C4 C1 1_555 1_555
H9 C4 1_555 1_555
C5 O2 1_555 1_555
C6 C3 1_555 1_555
C7 C8 1_555 1_555
C8 H10 1_555 1_555
C9 C8 1_555 1_555
C10 C9 1_555 1_555
H11 C10 1_555 1_555
C11 C10 1_555 1_555
C12 C7 1_555 1_555
H12 C12 1_555 1_555
C13 C7 1_555 1_555
C14 O6 1_555 1_555
C15 O9 1_555 1_555
O13 H13 1_555 1_555
H14 O13 1_555 1_555
C2G C3 1_555 1_555
C1G C4 1_555 1_555
C5G C1G 1_555 1_555
O1G C5G 1_555 1_555
O2G C5G 1_555 1_555
H8G C2G 1_555 1_555
O3G Co1 1_555 1_555
O4G C13G 1_555 1_555
O5G C13G 1_555 1_555
O6G H1G 1_555 1_555
O7G C14G 1_555 1_555
O8G C15G 1_555 1_555
O9G Co1 1_555 1_555
C7G C8G 1_555 1_555
C8G H10G 1_555 1_555
C9G C8G 1_555 1_555
C10G C9G 1_555 1_555
H11G C10G 1_555 1_555
C11G C10G 1_555 1_555
C12G C7G 1_555 1_555
H12G C12G 1_555 1_555
C13G C7G 1_555 1_555
C14G O6G 1_555 1_555
C15G O9G 1_555 1_555
O10G Co1 1_555 1_555
H2G O10G 1_555 1_555
H3G O10G 1_555 1_555
Co2G O1G 1_555 1_555
O11G Co2G 1_555 1_555
H4G O11G 1_555 1_555
H5G O11G 1_555 1_555
O12G Co2G 1_555 1_555
H6G O12G 1_555 1_555
H7G O12G 1_555 1_555
O5_2 Co2 1_555 1_555
O7G_2 Co2 1_555 1_555
Co2_2 O5 1_555 1_555
Co2G_2 O7 1_555 1_555
Co2G_3 O5G 1_555 1_555
Co2_3 O7G 1_555 1_555
O5G_2 Co2G 1_555 1_555
O7_2 Co2G 1_555 1_555
C1 C5 1_555 1_555
C6 O3G 1_555 1_555
C9 C14 1_555 1_555
C11 C12 1_555 1_555
C11 C15 1_555 1_555
C2G C1G 1_555 1_555
O2G Co2G 1_555 1_555
C9G C14G 1_555 1_555
C11G C12G 1_555 1_555
C11G C15G 1_555 1_555

#END
