
#######################################################################
#
#                 Cambridge Crystallographic Data Centre
#                                CCDC 
#
#######################################################################
#
# If this CIF has been generated from an entry in the Cambridge 
# Structural Database, then it will include bibliographic, chemical, 
# crystal, experimental, refinement or atomic coordinate data resulting 
# from the CCDC's data processing and validation procedures.
#
#######################################################################

data_CAFTAF
_symmetry_cell_setting           orthorhombic
_symmetry_space_group_name_H-M   'C 2 2 21'
_symmetry_Int_Tables_number      20
_space_group_name_Hall           'C 2n 2'
loop_
_symmetry_equiv_pos_site_id
_symmetry_equiv_pos_as_xyz
1 x,y,z
2 -x,-y,1/2+z
3 -x,y,1/2-z
4 x,-y,-z
5 1/2+x,1/2+y,z
6 1/2-x,1/2-y,1/2+z
7 1/2-x,1/2+y,1/2-z
8 1/2+x,1/2-y,-z
_cell_length_a                   14.0364(12)
_cell_length_b                   23.7595(19)
_cell_length_c                   8.9706(7)
_cell_angle_alpha                90
_cell_angle_beta                 90
_cell_angle_gamma                90
_cell_volume                     2991.68
loop_
_atom_site_label
_atom_site_type_symbol
_atom_site_fract_x
_atom_site_fract_y
_atom_site_fract_z
Co1 Co 0.5000 0.224992(16) 1.2500
C1 C 0.5001(3) 0.12130(9) 1.0494(3)
H1 H 0.4340 0.1227 1.0724
C2 C 0.5320(2) 0.07964(12) 0.9560(3)
H2 H 0.4889 0.0527 0.9162
C3 C 0.6291(2) 0.07749(11) 0.9202(3)
C4 C 0.6891(2) 0.11765(11) 0.9828(3)
H3 H 0.7554 0.1174 0.9614
C5 C 0.65074(19) 0.15792(11) 1.0766(3)
H4 H 0.6921 0.1851 1.1192
C6 C 0.6664(2) 0.03412(12) 0.8272(3)
C7 C 0.69901(19) -0.00367(10) 0.7530(4)
C8 C 0.7400(2) -0.04702(12) 0.6744(3)
C9 C 0.7783(2) -0.08545(12) 0.6118(3)
C10 C 0.8882(2) -0.16941(11) 0.3099(3)
H5 H 0.8949 -0.1677 0.2046
C11 C 0.8384(2) -0.12713(12) 0.3805(3)
H6 H 0.8121 -0.0968 0.3251
C12 C 0.8275(2) -0.12967(11) 0.5354(3)
C13 C 0.8669(2) -0.17499(11) 0.6116(3)
H7 H 0.8600 -0.1784 0.7165
C14 C 0.91640(19) -0.21494(11) 0.5307(3)
H8 H 0.9440 -0.2456 0.5833
N1 N 0.55777(16) 0.16027(9) 1.1101(3)
N2 N 0.92776(16) -0.21299(8) 0.3831(3)
N3 N 0.36365(17) 0.24067(10) 0.9878(3)
O1 O 0.37473(13) 0.22092(8) 1.1201(2)
O2 O 0.36145(19) 0.29209(9) 0.9688(2)
O3 O 0.3573(3) 0.20803(13) 0.8836(3)
C1B C 0.4999(3) 0.12130(9) 1.4506(3)
H1B H 0.5660 0.1227 1.4276
C2B C 0.4680(2) 0.07964(12) 1.5440(3)
H2B H 0.5111 0.0527 1.5838
C3B C 0.3709(2) 0.07749(11) 1.5798(3)
C4B C 0.3109(2) 0.11765(11) 1.5172(3)
H3B H 0.2446 0.1174 1.5386
C5B C 0.34926(19) 0.15792(11) 1.4234(3)
H4B H 0.3079 0.1851 1.3808
C6B C 0.3336(2) 0.03412(12) 1.6728(3)
C7B C 0.30099(19) -0.00367(10) 1.7470(4)
C8B C 0.2600(2) -0.04702(12) 1.8256(3)
C9B C 0.2217(2) -0.08545(12) 1.8882(3)
C10B C 0.1118(2) -0.16941(11) 2.1901(3)
H5B H 0.1051 -0.1677 2.2954
C11B C 0.1616(2) -0.12713(12) 2.1195(3)
H6B H 0.1879 -0.0968 2.1749
C12B C 0.1725(2) -0.12967(11) 1.9646(3)
C13B C 0.1331(2) -0.17499(11) 1.8884(3)
H7B H 0.1400 -0.1784 1.7835
C14B C 0.08360(19) -0.21494(11) 1.9693(3)
H8B H 0.0560 -0.2456 1.9167
N1B N 0.44223(16) 0.16027(9) 1.3899(3)
N2B N 0.07224(16) -0.21299(8) 2.1169(3)
N3B N 0.63635(17) 0.24067(10) 1.5122(3)
O1B O 0.62527(13) 0.22092(8) 1.3799(2)
O2B O 0.63855(19) 0.29209(9) 1.5312(2)
O3B O 0.6427(3) 0.20803(13) 1.6164(3)
N2D N 0.42776(16) 0.28701(8) 1.3831(3)
N2F N 0.57224(16) 0.28701(8) 1.1169(3)
Co1D Co 1.0000 -0.275008(16) 0.2500
Co1D_2 Co 0.0000 -0.275008(16) 2.2500
Cl1 Cl 0.44242(13) 0.43885(9) -0.0230(4)
C15 C 0.477(2) 0.5000 0.0000
H9 H 0.5199 0.4954 0.0864
H10 H 0.5199 0.5046 -0.0864
Cl1C Cl 0.44242(13) 0.56115(9) 0.0230(4)
loop_
_geom_bond_atom_site_label_1
_geom_bond_atom_site_label_2
_geom_bond_site_symmetry_1
_geom_bond_site_symmetry_2
Co1 N1 1_555 1_555
C1 H1 1_555 1_555
C2 C1 1_555 1_555
H2 C2 1_555 1_555
C3 C2 1_555 1_555
C4 C3 1_555 1_555
H3 C4 1_555 1_555
C5 C4 1_555 1_555
H4 C5 1_555 1_555
C6 C3 1_555 1_555
C7 C6 1_555 1_555
C8 C7 1_555 1_555
C9 C8 1_555 1_555
C10 H5 1_555 1_555
C11 C10 1_555 1_555
H6 C11 1_555 1_555
C12 C9 1_555 1_555
C13 C12 1_555 1_555
H7 C13 1_555 1_555
C14 C13 1_555 1_555
H8 C14 1_555 1_555
N1 C1 1_555 1_555
N2 C10 1_555 1_555
N3 O1 1_555 1_555
O1 Co1 1_555 1_555
O2 N3 1_555 1_555
O3 N3 1_555 1_555
Cl1 C15 1_555 1_555
C15 H9 1_555 1_555
H10 C15 1_555 1_555
Cl1C C15 1_555 1_555
C1B H1B 1_555 1_555
C2B C1B 1_555 1_555
H2B C2B 1_555 1_555
C3B C2B 1_555 1_555
C4B C3B 1_555 1_555
H3B C4B 1_555 1_555
C5B C4B 1_555 1_555
H4B C5B 1_555 1_555
C6B C3B 1_555 1_555
C7B C6B 1_555 1_555
C8B C7B 1_555 1_555
C9B C8B 1_555 1_555
C10B H5B 1_555 1_555
C11B C10B 1_555 1_555
H6B C11B 1_555 1_555
C12B C9B 1_555 1_555
C13B C12B 1_555 1_555
H7B C13B 1_555 1_555
C14B C13B 1_555 1_555
H8B C14B 1_555 1_555
N1B Co1 1_555 1_555
N2B C10B 1_555 1_555
N3B O1B 1_555 1_555
O1B Co1 1_555 1_555
O2B N3B 1_555 1_555
O3B N3B 1_555 1_555
N2D Co1 1_555 1_555
N2F Co1 1_555 1_555
Co1D N2 1_555 1_555
Co1D_2 N2B 1_555 1_555
C5 N1 1_555 1_555
C11 C12 1_555 1_555
C14 N2 1_555 1_555
C1B N1B 1_555 1_555
C5B N1B 1_555 1_555
C11B C12B 1_555 1_555
C14B N2B 1_555 1_555

#END
