
#######################################################################
#
#                 Cambridge Crystallographic Data Centre
#                                CCDC 
#
#######################################################################
#
# If this CIF has been generated from an entry in the Cambridge 
# Structural Database, then it will include bibliographic, chemical, 
# crystal, experimental, refinement or atomic coordinate data resulting 
# from the CCDC's data processing and validation procedures.
#
#######################################################################

data_CAHKIG
_symmetry_cell_setting           triclinic
_symmetry_space_group_name_H-M   'P -1'
_symmetry_Int_Tables_number      2
_space_group_name_Hall           '-P 1'
loop_
_symmetry_equiv_pos_site_id
_symmetry_equiv_pos_as_xyz
1 x,y,z
2 -x,-y,-z
_cell_length_a                   7.5121(4)
_cell_length_b                   14.074(4)
_cell_length_c                   6.331(2)
_cell_angle_alpha                96.33(2)
_cell_angle_beta                 105.92(2)
_cell_angle_gamma                84.24(2)
_cell_volume                     638.026
loop_
_atom_site_label
_atom_site_type_symbol
_atom_site_fract_x
_atom_site_fract_y
_atom_site_fract_z
C1 C -0.2260(30) -0.1326(11) 0.3250(40)
C2 C -0.2500(30) -0.0285(10) 0.2690(30)
C3 C -0.3150(40) 0.0482(15) 0.3940(30)
C4 C -0.3370(30) 0.1379(12) 0.3360(30)
C5 C -0.2941(15) 0.1576(8) 0.1563(17)
C6 C -0.2390(30) 0.0857(10) 0.0250(30)
C7 C -0.2160(30) -0.0113(11) 0.0890(30)
S1 S -0.3142(4) 0.2770(2) 0.0860(5)
O1 O -0.3311(15) 0.2689(7) -0.1468(14)
O2 O -0.4694(14) 0.3259(7) 0.1546(18)
Na1 Na -0.6511(6) 0.4560(3) 0.2637(7)
O3 O -0.8080(20) 0.4761(10) -0.1070(20)
O4 O -0.5727(16) 0.4257(8) 0.6320(20)
O5 O -0.8543(15) 0.5979(7) 0.3336(14)
N1 N -0.1425(17) 0.3306(7) 0.2363(19)
Br1 Br 0.0808(2) 0.2814(1) 0.1762(3)
O4A O -0.4273(16) 0.5743(8) 0.3680(20)
Br1_2 Br -0.9192(2) 0.2814(1) 0.1762(3)
Na1A Na -0.3489(6) 0.5440(3) 0.7363(7)
Na1_2 Na 0.3489(6) 0.4560(3) 0.2637(7)
loop_
_geom_bond_atom_site_label_1
_geom_bond_atom_site_label_2
_geom_bond_site_symmetry_1
_geom_bond_site_symmetry_2
C1 C2 1_555 1_555
C2 C3 1_555 1_555
C3 C4 1_555 1_555
C4 C5 1_555 1_555
C5 C6 1_555 1_555
C6 C7 1_555 1_555
C7 C2 1_555 1_555
S1 C5 1_555 1_555
O1 S1 1_555 1_555
O2 S1 1_555 1_555
Na1 O2 1_555 1_555
O3 Na1 1_555 1_555
O4 Na1 1_555 1_555
O5 Na1 1_555 1_555
N1 S1 1_555 1_555
Br1 N1 1_555 1_555
O4A Na1 1_555 1_555
Br1_2 Na1 1_555 1_555
Na1A O4 1_555 1_555
Na1_2 Br1 1_555 1_555
O4A Na1A 1_555 1_555

#END
