
#######################################################################
#
#                 Cambridge Crystallographic Data Centre
#                                CCDC 
#
#######################################################################
#
# If this CIF has been generated from an entry in the Cambridge 
# Structural Database, then it will include bibliographic, chemical, 
# crystal, experimental, refinement or atomic coordinate data resulting 
# from the CCDC's data processing and validation procedures.
#
#######################################################################

data_CAHLUU
_symmetry_cell_setting           monoclinic
_symmetry_space_group_name_H-M   'P 21/c'
_symmetry_Int_Tables_number      14
_space_group_name_Hall           '-P 2ybc'
loop_
_symmetry_equiv_pos_site_id
_symmetry_equiv_pos_as_xyz
1 x,y,z
2 -x,1/2+y,1/2-z
3 -x,-y,-z
4 x,1/2-y,1/2+z
_cell_length_a                   16.977(3)
_cell_length_b                   18.342(4)
_cell_length_c                   16.595(3)
_cell_angle_alpha                90
_cell_angle_beta                 102.42(3)
_cell_angle_gamma                90
_cell_volume                     5046.62
loop_
_atom_site_label
_atom_site_type_symbol
_atom_site_fract_x
_atom_site_fract_y
_atom_site_fract_z
La1 La 0.006512(19) 0.316535(18) 0.93090(2)
La2 La -0.02571(2) -0.161300(18) 0.83275(2)
I1 I -0.45539(3) 0.41892(3) 0.42121(3)
I2 I 0.51355(3) 0.50875(2) 1.16716(3)
I3 I -0.49547(3) 0.22637(2) 0.71357(3)
Cu1 Cu -0.49188(5) 0.43549(5) 0.57812(5)
Cu2 Cu 0.46158(5) 0.43782(6) 1.28013(6)
Cu3 Cu -0.41368(5) 0.10566(5) 0.72974(5)
Cu4 Cu -0.48589(5) 0.32831(6) 1.07324(5)
N1 N -0.3009(3) 0.1140(3) 0.7946(3)
N2 N -0.3797(3) 0.3490(4) 1.0496(3)
N3 N -0.3776(3) 0.4242(3) 0.6396(3)
N4 N -0.0501(3) -0.0135(3) 0.8104(3)
N5 N 0.4004(3) 0.1124(3) 1.0642(3)
N6 N 0.4070(3) 0.3327(3) 0.9963(3)
N7 N 0.3458(3) 0.4132(3) 1.2470(3)
C1 C -0.2631(4) 0.0586(4) 0.8388(4)
H1 H -0.2831 0.0117 0.8268
C2 C -0.1950(4) 0.0675(3) 0.9021(4)
H2 H -0.1707 0.0275 0.9320
C3 C -0.1644(4) 0.1366(3) 0.9194(4)
C4 C -0.2015(4) 0.1934(4) 0.8716(4)
H3 H -0.1808 0.2404 0.8804
C5 C -0.2695(4) 0.1806(4) 0.8107(4)
H4 H -0.2943 0.2198 0.7798
C6 C -0.0924(3) 0.1506(3) 0.9883(4)
C7 C -0.3628(4) 0.4159(4) 1.0275(4)
H5 H -0.4032 0.4511 1.0204
C8 C -0.2876(4) 0.4355(4) 1.0144(4)
H6 H -0.2778 0.4833 1.0005
C9 C -0.2274(4) 0.3835(3) 1.0223(4)
C10 C -0.2453(4) 0.3138(4) 1.0439(4)
H7 H -0.2064 0.2775 1.0497
C11 C -0.3217(4) 0.2979(4) 1.0571(4)
H8 H -0.3330 0.2506 1.0716
C12 C -0.1449(4) 0.4033(3) 1.0085(3)
C13 C -0.3607(4) 0.3891(3) 0.7118(4)
H9 H -0.4032 0.3748 0.7354
C14 C -0.2828(4) 0.3730(3) 0.7531(4)
H10 H -0.2738 0.3486 0.8034
C15 C -0.2192(3) 0.3931(3) 0.7198(4)
C16 C -0.2351(4) 0.4313(3) 0.6460(4)
H11 H -0.1934 0.4467 0.6219
C17 C -0.3148(4) 0.4458(4) 0.6091(4)
H12 H -0.3252 0.4722 0.5601
C18 C -0.1336(3) 0.3751(3) 0.7624(4)
C19 C 0.0053(4) 0.0317(3) 0.8543(4)
H13 H 0.0420 0.0126 0.8991
C20 C 0.0107(4) 0.1054(3) 0.8365(4)
H14 H 0.0502 0.1345 0.8685
C21 C -0.0434(4) 0.1344(3) 0.7707(4)
C22 C -0.1019(4) 0.0898(3) 0.7259(4)
H15 H -0.1399 0.1082 0.6816
C23 C -0.1030(4) 0.0172(4) 0.7479(4)
H16 H -0.1431 -0.0124 0.7174
C24 C -0.0376(4) 0.2132(3) 0.7466(3)
C25 C 0.3605(4) 0.1379(4) 0.9914(4)
H17 H 0.3877 0.1406 0.9484
C26 C 0.2808(4) 0.1606(4) 0.9766(4)
H18 H 0.2557 0.1784 0.9249
C27 C 0.2390(3) 0.1566(3) 1.0395(4)
C28 C 0.2814(4) 0.1325(4) 1.1155(4)
H19 H 0.2561 0.1302 1.1599
C29 C 0.3608(4) 0.1121(4) 1.1255(4)
H20 H 0.3883 0.0973 1.1776
C30 C 0.1507(4) 0.1776(3) 1.0271(4)
C31 C 0.3976(4) 0.3261(3) 0.9152(4)
H21 H 0.4428 0.3165 0.8938
C32 C 0.3242(4) 0.3327(3) 0.8615(4)
H22 H 0.3203 0.3272 0.8051
C33 C 0.2562(3) 0.3476(3) 0.8919(4)
C34 C 0.2652(4) 0.3540(4) 0.9765(4)
H23 H 0.2208 0.3629 0.9996
C35 C 0.3405(4) 0.3468(4) 1.0256(4)
H24 H 0.3462 0.3519 1.0823
C36 C 0.1724(3) 0.3540(3) 0.8365(4)
C37 C 0.2963(4) 0.4537(3) 1.1895(4)
H25 H 0.3151 0.4983 1.1745
C38 C 0.2198(4) 0.4323(3) 1.1522(4)
H26 H 0.1873 0.4618 1.1131
C39 C 0.1920(3) 0.3654(3) 1.1740(3)
C40 C 0.2407(4) 0.3243(4) 1.2343(4)
H27 H 0.2225 0.2804 1.2517
C41 C 0.3170(4) 0.3499(4) 1.2684(4)
H28 H 0.3502 0.3216 1.3083
C42 C 0.1145(3) 0.3355(3) 1.1247(3)
O1 O -0.0782(3) 0.1076(2) 1.0478(3)
O2 O -0.0511(2) 0.2068(2) 0.9830(3)
O3 O -0.1294(3) 0.4694(2) 1.0038(3)
O4 O -0.0993(3) 0.3505(2) 1.0031(3)
O5 O -0.1245(2) 0.3422(2) 0.8300(2)
O6 O -0.0778(2) 0.3938(2) 0.7278(3)
O7 O 0.0125(2) 0.2538(2) 0.7963(2)
O8 O -0.0765(2) 0.2351(2) 0.6789(2)
O9 O 0.1113(2) 0.1411(2) 1.0689(2)
O10 O 0.1250(2) 0.2270(2) 0.9766(2)
O11 O 0.1667(2) 0.3478(2) 0.7597(2)
O12 O 0.1147(2) 0.3672(2) 0.8697(2)
O13 O 0.0839(2) 0.3676(2) 1.0592(2)
O14 O 0.0871(3) 0.2785(2) 1.1507(3)
O15 O -0.0071(3) 0.4539(2) 0.9131(2)
H29 H -0.0407 0.4690 0.9378
H30 H 0.0205 0.4693 0.9310
La2B La 0.02571(2) 0.161300(18) 1.16725(2)
La2A La 0.02571(2) 0.338700(18) 0.66725(2)
I1B I -0.54461(3) 0.58108(3) 0.57879(3)
I1_2 I 0.54461(3) 0.41892(3) 1.42121(3)
I2C I -0.48645(3) -0.00875(2) 0.66716(3)
I3C I -0.49547(3) 0.27363(2) 1.21357(3)
Cu1B Cu -0.50812(5) 0.56451(5) 0.42188(5)
Cu1C Cu 0.50812(5) 0.06451(5) 1.07812(5)
Cu2_2 Cu -0.53842(5) 0.43782(6) 0.28013(6)
Cu3C Cu 0.58632(5) 0.39434(5) 1.22974(5)
Cu4C Cu -0.48589(5) 0.17169(6) 0.57324(5)
Cu4_2 Cu 0.51411(5) 0.32831(6) 1.07324(5)
N5C N -0.5996(3) 0.3876(3) 0.5642(3)
N6_2 N -0.5930(3) 0.3327(3) 0.9963(3)
O1B O 0.0782(3) -0.1076(2) 0.9522(3)
O6A O 0.0778(2) -0.1062(2) 0.7722(3)
O7A O -0.0125(2) -0.2462(2) 0.7037(2)
O8A O 0.0765(2) -0.2649(2) 0.8211(2)
O9B O -0.1113(2) -0.1411(2) 0.9311(2)
O11A O -0.1667(2) -0.1522(2) 0.7403(2)
O14B O -0.0871(3) -0.2785(2) 0.8493(3)
loop_
_geom_bond_atom_site_label_1
_geom_bond_atom_site_label_2
_geom_bond_site_symmetry_1
_geom_bond_site_symmetry_2
La1 O2 1_555 1_555
La2 N4 1_555 1_555
I1 Cu1 1_555 1_555
I2 Cu2 1_555 1_555
I3 Cu3 1_555 1_555
Cu1 N3 1_555 1_555
Cu2 N7 1_555 1_555
Cu3 N1 1_555 1_555
Cu4 N2 1_555 1_555
N1 C1 1_555 1_555
N2 C7 1_555 1_555
N3 C13 1_555 1_555
N4 C19 1_555 1_555
N5 C25 1_555 1_555
N6 C31 1_555 1_555
N7 C37 1_555 1_555
C1 H1 1_555 1_555
C2 C1 1_555 1_555
H2 C2 1_555 1_555
C3 C2 1_555 1_555
C4 C3 1_555 1_555
H3 C4 1_555 1_555
C5 N1 1_555 1_555
H4 C5 1_555 1_555
C6 C3 1_555 1_555
C7 H5 1_555 1_555
C8 C7 1_555 1_555
H6 C8 1_555 1_555
C9 C8 1_555 1_555
C10 C9 1_555 1_555
H7 C10 1_555 1_555
C11 N2 1_555 1_555
H8 C11 1_555 1_555
C12 C9 1_555 1_555
C13 H9 1_555 1_555
C14 C13 1_555 1_555
H10 C14 1_555 1_555
C15 C14 1_555 1_555
C16 C15 1_555 1_555
H11 C16 1_555 1_555
C17 N3 1_555 1_555
H12 C17 1_555 1_555
C18 C15 1_555 1_555
C19 H13 1_555 1_555
C20 C19 1_555 1_555
H14 C20 1_555 1_555
C21 C20 1_555 1_555
C22 C21 1_555 1_555
H15 C22 1_555 1_555
C23 N4 1_555 1_555
H16 C23 1_555 1_555
C24 C21 1_555 1_555
C25 H17 1_555 1_555
C26 C25 1_555 1_555
H18 C26 1_555 1_555
C27 C26 1_555 1_555
C28 C27 1_555 1_555
H19 C28 1_555 1_555
C29 N5 1_555 1_555
H20 C29 1_555 1_555
C30 C27 1_555 1_555
C31 H21 1_555 1_555
C32 C31 1_555 1_555
H22 C32 1_555 1_555
C33 C32 1_555 1_555
C34 C33 1_555 1_555
H23 C34 1_555 1_555
C35 N6 1_555 1_555
H24 C35 1_555 1_555
C36 C33 1_555 1_555
C37 H25 1_555 1_555
C38 C37 1_555 1_555
H26 C38 1_555 1_555
C39 C38 1_555 1_555
C40 C39 1_555 1_555
H27 C40 1_555 1_555
C41 N7 1_555 1_555
H28 C41 1_555 1_555
C42 C39 1_555 1_555
O1 C6 1_555 1_555
O2 C6 1_555 1_555
O3 C12 1_555 1_555
O4 La1 1_555 1_555
O5 La1 1_555 1_555
O6 C18 1_555 1_555
O7 La1 1_555 1_555
O8 C24 1_555 1_555
O9 C30 1_555 1_555
O10 La1 1_555 1_555
O11 C36 1_555 1_555
O12 La1 1_555 1_555
O13 La1 1_555 1_555
O14 C42 1_555 1_555
O15 La1 1_555 1_555
H29 O15 1_555 1_555
H30 O15 1_555 1_555
La2B O1 1_555 1_555
La2A O6 1_555 1_555
I1B Cu1 1_555 1_555
I1_2 Cu2 1_555 1_555
I2C Cu3 1_555 1_555
I3C Cu4 1_555 1_555
Cu1B I1 1_555 1_555
Cu1C N5 1_555 1_555
Cu2_2 I1 1_555 1_555
Cu3C I2 1_555 1_555
Cu4C I3 1_555 1_555
Cu4_2 N6 1_555 1_555
N5C Cu1 1_555 1_555
N6_2 Cu4 1_555 1_555
O1B La2 1_555 1_555
O6A La2 1_555 1_555
O7A La2 1_555 1_555
O8A La2 1_555 1_555
O9B La2 1_555 1_555
O11A La2 1_555 1_555
O14B La2 1_555 1_555
C4 C5 1_555 1_555
C10 C11 1_555 1_555
C12 O4 1_555 1_555
C16 C17 1_555 1_555
C18 O5 1_555 1_555
C22 C23 1_555 1_555
C24 O7 1_555 1_555
C28 C29 1_555 1_555
C30 O10 1_555 1_555
C34 C35 1_555 1_555
C36 O12 1_555 1_555
C40 C41 1_555 1_555
C42 O13 1_555 1_555
O7 La2A 1_555 1_555
O8 La2A 1_555 1_555
O9 La2B 1_555 1_555
O11 La2A 1_555 1_555
O14 La2B 1_555 1_555
I1B Cu1B 1_555 1_555

#END
