
#######################################################################
#
#                 Cambridge Crystallographic Data Centre
#                                CCDC 
#
#######################################################################
#
# If this CIF has been generated from an entry in the Cambridge 
# Structural Database, then it will include bibliographic, chemical, 
# crystal, experimental, refinement or atomic coordinate data resulting 
# from the CCDC's data processing and validation procedures.
#
#######################################################################

data_CAHLEE
_symmetry_cell_setting           monoclinic
_symmetry_space_group_name_H-M   'P 21/m'
_symmetry_Int_Tables_number      11
_space_group_name_Hall           '-P 2yb'
loop_
_symmetry_equiv_pos_site_id
_symmetry_equiv_pos_as_xyz
1 x,y,z
2 -x,1/2+y,-z
3 -x,-y,-z
4 x,1/2-y,z
_cell_length_a                   7.0275(14)
_cell_length_b                   24.704(5)
_cell_length_c                   18.139(4)
_cell_angle_alpha                90
_cell_angle_beta                 99.86(3)
_cell_angle_gamma                90
_cell_volume                     3102.55
loop_
_atom_site_label
_atom_site_type_symbol
_atom_site_fract_x
_atom_site_fract_y
_atom_site_fract_z
Nd1 Nd -0.27833(4) 0.400866(9) 0.515999(12)
I1 I -0.5000 0.5000 0.0000
I2 I -1.01026(4) 0.410070(10) -0.029460(15)
I3 I -0.47629(4) 0.329797(10) 0.057318(15)
I4 I -1.03092(5) 0.2500 -0.05825(2)
Cu1 Cu -0.12083(9) 0.49243(2) 0.04404(3)
Cu2 Cu -0.67291(8) 0.41939(2) 0.06045(3)
Cu3 Cu -0.74959(9) 0.31578(3) -0.05335(4)
Cu4 Cu -0.72838(11) 0.2500 0.06566(4)
N1 N -0.1261(5) 0.47319(16) 0.15136(19)
N2 N -0.6500(5) 0.43712(13) 0.17073(19)
N3 N -0.6623(5) 0.33230(16) -0.1507(2)
N4 N -0.8503(7) 0.2500 0.1594(3)
C1 C -0.1066(6) 0.42214(19) 0.1754(2)
H1 H -0.0848 0.3953 0.1418
C2 C -0.1176(6) 0.40743(19) 0.2484(2)
H2 H -0.1011 0.3716 0.2638
C3 C -0.1537(6) 0.44736(19) 0.2978(2)
C4 C -0.1770(6) 0.50046(19) 0.2727(2)
H3 H -0.2022 0.5278 0.3049
C5 C -0.1624(6) 0.5121(2) 0.1997(2)
H4 H -0.1779 0.5477 0.1830
C6 C -0.1711(6) 0.4323(2) 0.3767(2)
C7 C -0.6220(6) 0.39787(16) 0.2231(2)
H5 H -0.6053 0.3626 0.2075
C8 C -0.6168(6) 0.40715(16) 0.2981(2)
H6 H -0.5945 0.3789 0.3324
C9 C -0.6454(5) 0.45969(15) 0.3217(2)
C10 C -0.6748(6) 0.50025(16) 0.2681(2)
H7 H -0.6945 0.5358 0.2820
C11 C -0.6748(6) 0.48766(17) 0.1939(2)
H8 H -0.6928 0.5154 0.1587
C12 C -0.6429(5) 0.47234(16) 0.4033(2)
C13 C -0.4763(6) 0.3444(2) -0.1508(2)
H9 H -0.3928 0.3467 -0.1052
C14 C -0.4037(7) 0.35366(19) -0.2159(2)
H10 H -0.2734 0.3616 -0.2136
C15 C -0.5248(6) 0.35112(17) -0.2845(2)
C16 C -0.7186(7) 0.3394(2) -0.2850(3)
H11 H -0.8063 0.3382 -0.3296
C17 C -0.7772(7) 0.3296(2) -0.2172(3)
H12 H -0.9059 0.3204 -0.2181
C18 C -0.4476(7) 0.36191(17) -0.3556(2)
C19 C -1.0422(9) 0.2500 0.1534(3)
H13 H -1.1168 0.2500 0.1058
C20 C -1.1360(9) 0.2500 0.2152(3)
H14 H -1.2702 0.2500 0.2083
C21 C -1.0290(8) 0.2500 0.2870(3)
C22 C -0.8287(9) 0.2500 0.2932(4)
H15 H -0.7503 0.2500 0.3400
C23 C -0.7482(9) 0.2500 0.2289(3)
H16 H -0.6142 0.2500 0.2343
C24 C -1.1304(9) 0.2500 0.3547(3)
O1 O -0.1995(4) 0.46965(13) 0.42164(17)
O2 O -0.1665(5) 0.38324(14) 0.39488(18)
O3 O -0.5785(4) 0.43715(11) 0.45063(16)
O4 O -0.7103(4) 0.51774(12) 0.41691(16)
O5 O -0.5630(5) 0.36901(15) -0.41606(18)
O6 O -0.2689(5) 0.36404(14) -0.35246(18)
O7 O -1.3104(6) 0.2500 0.3438(2)
O8 O -1.0226(6) 0.2500 0.4183(2)
O9 O 0.0628(4) 0.42823(15) 0.55812(18)
H17 H 0.0698 0.4613 0.5603
H18 H 0.1196 0.4088 0.5573
O10 O -0.0485(8) 0.32000(17) 0.5365(2)
H19 H -0.0570 0.3026 0.4976
H20 H 0.0332 0.3320 0.5249
O11 O -0.4367(6) 0.31926(14) 0.4519(2)
H21 H -0.5006 0.3040 0.4795
H22 H -0.4043 0.3025 0.4284
Nd1C Nd -0.27833(4) 0.099134(9) 0.515999(12)
Nd1B Nd -0.72167(4) 0.599134(9) 0.484001(12)
Nd1_2 Nd -0.27833(4) 0.400866(9) -0.484001(12)
Nd1A Nd -0.72167(4) -0.099134(9) 0.484001(12)
Nd1C_2 Nd -0.27833(4) 0.099134(9) -0.484001(12)
I1A I -0.5000 0.0000 0.0000
I2C I -1.01026(4) 0.089930(10) -0.029460(15)
I2B I 0.01026(4) 0.589930(10) 0.029460(15)
I2_2 I -0.01026(4) 0.410070(10) -0.029460(15)
I2B_2 I -0.98974(4) 0.589930(10) 0.029460(15)
I3C I -0.47629(4) 0.170203(10) 0.057318(15)
Cu1B Cu -0.87917(9) 0.50757(2) -0.04404(3)
Cu1_2 Cu -1.12083(9) 0.49243(2) 0.04404(3)
Cu1A Cu -0.87917(9) -0.00757(2) -0.04404(3)
Cu1C Cu -1.12083(9) 0.00757(2) 0.04404(3)
Cu1C_2 Cu -0.12083(9) 0.00757(2) 0.04404(3)
Cu2C Cu -0.67291(8) 0.08061(2) 0.06045(3)
Cu2B Cu -0.32709(8) 0.58061(2) -0.06045(3)
Cu3C Cu -0.74959(9) 0.18422(3) -0.05335(4)
N1C N -0.1261(5) 0.02681(16) 0.15136(19)
N1B N -0.8739(5) 0.52681(16) -0.15136(19)
N2C N -0.6500(5) 0.06288(13) 0.17073(19)
N3C N -0.6623(5) 0.16770(16) -0.1507(2)
C1C C -0.1066(6) 0.07786(19) 0.1754(2)
H1C H -0.0848 0.1047 0.1418
C2C C -0.1176(6) 0.09257(19) 0.2484(2)
H2C H -0.1011 0.1284 0.2638
C3C C -0.1537(6) 0.05264(19) 0.2978(2)
C4C C -0.1770(6) -0.00046(19) 0.2727(2)
H3C H -0.2022 -0.0278 0.3049
C5C C -0.1624(6) -0.0121(2) 0.1997(2)
H4C H -0.1779 -0.0477 0.1830
C6C C -0.1711(6) 0.0677(2) 0.3767(2)
C7C C -0.6220(6) 0.10213(16) 0.2231(2)
H5C H -0.6053 0.1374 0.2075
C8C C -0.6168(6) 0.09285(16) 0.2981(2)
H6C H -0.5945 0.1211 0.3324
C9C C -0.6454(5) 0.04031(15) 0.3217(2)
C10C C -0.6748(6) -0.00025(16) 0.2681(2)
H7C H -0.6945 -0.0358 0.2820
C11C C -0.6748(6) 0.01234(17) 0.1939(2)
H8C H -0.6928 -0.0154 0.1587
C12C C -0.6429(5) 0.02766(16) 0.4033(2)
C13C C -0.4763(6) 0.1556(2) -0.1508(2)
H9C H -0.3928 0.1533 -0.1052
C14C C -0.4037(7) 0.14634(19) -0.2159(2)
H10C H -0.2734 0.1384 -0.2136
C15C C -0.5248(6) 0.14888(17) -0.2845(2)
C16C C -0.7186(7) 0.1606(2) -0.2850(3)
H11C H -0.8063 0.1618 -0.3296
C17C C -0.7772(7) 0.1704(2) -0.2172(3)
H12C H -0.9059 0.1796 -0.2181
C18C C -0.4476(7) 0.13809(17) -0.3556(2)
O1C O -0.1995(4) 0.03035(13) 0.42164(17)
O2C O -0.1665(5) 0.11676(14) 0.39488(18)
O3C O -0.5785(4) 0.06285(11) 0.45063(16)
O4C O -0.7103(4) -0.01774(12) 0.41691(16)
O4B O -0.2897(4) 0.48226(12) 0.58309(16)
O4A O -0.2897(4) 0.01774(12) 0.58309(16)
O5C O -0.5630(5) 0.13099(15) -0.41606(18)
O5_2 O -0.5630(5) 0.36901(15) 0.58394(18)
O5C_2 O -0.5630(5) 0.13099(15) 0.58394(18)
O6C O -0.2689(5) 0.13596(14) -0.35246(18)
O6_2 O -0.2689(5) 0.36404(14) 0.64754(18)
O6C_2 O -0.2689(5) 0.13596(14) 0.64754(18)
O9C O 0.0628(4) 0.07177(15) 0.55812(18)
H17C H 0.0698 0.0387 0.5603
H18C H 0.1196 0.0912 0.5573
O10C O -0.0485(8) 0.18000(17) 0.5365(2)
H19C H -0.0570 0.1974 0.4976
H20C H 0.0332 0.1680 0.5249
O11C O -0.4367(6) 0.18074(14) 0.4519(2)
H21C H -0.5006 0.1960 0.4795
H22C H -0.4043 0.1975 0.4284
O12 O 0.1225(8) 0.7500 0.3382(3)
H23 H 0.1976 0.7201 0.3124
H23C H 0.1976 0.7799 0.3124
O13 O 0.784(3) 0.6730(10) 0.5609(19)
H24? H 0.2506 0.7500 0.3632
O14? O 0.6698(11) 0.7623(5) 0.4833(7)
H25? H 0.6704 0.7500 0.4980
H26? H 0.6227 0.7500 0.4250
H27? H 0.8106 0.6298 0.5686
loop_
_geom_bond_atom_site_label_1
_geom_bond_atom_site_label_2
_geom_bond_site_symmetry_1
_geom_bond_site_symmetry_2
Nd1 O1 1_555 1_555
I1 Cu1 1_555 1_555
I2 Cu2 1_555 1_555
I3 Cu2 1_555 1_555
I4 Cu3 1_555 1_555
Cu1 N1 1_555 1_555
Cu2 I1 1_555 1_555
Cu3 I3 1_555 1_555
Cu4 I3 1_555 1_555
N1 C1 1_555 1_555
N2 Cu2 1_555 1_555
N3 Cu3 1_555 1_555
N4 Cu4 1_555 1_555
C1 H1 1_555 1_555
C2 C1 1_555 1_555
H2 C2 1_555 1_555
C3 C2 1_555 1_555
C4 C3 1_555 1_555
H3 C4 1_555 1_555
C5 N1 1_555 1_555
H4 C5 1_555 1_555
C6 C3 1_555 1_555
C7 N2 1_555 1_555
H5 C7 1_555 1_555
C8 C7 1_555 1_555
H6 C8 1_555 1_555
C9 C8 1_555 1_555
C10 C9 1_555 1_555
H7 C10 1_555 1_555
C11 N2 1_555 1_555
H8 C11 1_555 1_555
C12 C9 1_555 1_555
C13 N3 1_555 1_555
H9 C13 1_555 1_555
C14 C13 1_555 1_555
H10 C14 1_555 1_555
C15 C14 1_555 1_555
C16 C15 1_555 1_555
H11 C16 1_555 1_555
C17 N3 1_555 1_555
H12 C17 1_555 1_555
C18 C15 1_555 1_555
C19 N4 1_555 1_555
H13 C19 1_555 1_555
C20 C19 1_555 1_555
H14 C20 1_555 1_555
C21 C20 1_555 1_555
C22 C21 1_555 1_555
H15 C22 1_555 1_555
C23 N4 1_555 1_555
H16 C23 1_555 1_555
C24 C21 1_555 1_555
O1 C6 1_555 1_555
O2 Nd1 1_555 1_555
O3 Nd1 1_555 1_555
O4 C12 1_555 1_555
O5 C18 1_555 1_555
O6 C18 1_555 1_555
O7 C24 1_555 1_555
O8 C24 1_555 1_555
O9 Nd1 1_555 1_555
H17 O9 1_555 1_555
H18 O9 1_555 1_555
O10 Nd1 1_555 1_555
H19 O10 1_555 1_555
H20 O10 1_555 1_555
O11 Nd1 1_555 1_555
H21 O11 1_555 1_555
H22 O11 1_555 1_555
O12 H23 1_555 1_555
Nd1C O1C 1_555 1_555
Nd1B O4 1_555 1_555
Nd1_2 O5 1_555 1_555
Nd1A O4C 1_555 1_555
Nd1C_2 O5C 1_555 1_555
I1A Cu1A 1_555 1_555
I2C Cu1A 1_555 1_555
I2B Cu1 1_555 1_555
I2_2 Cu1 1_555 1_555
I2B_2 Cu1B 1_555 1_555
I3C Cu4 1_555 1_555
Cu1B I1 1_555 1_555
Cu1_2 I2 1_555 1_555
Cu1C I2C 1_555 1_555
Cu1C_2 I1A 1_555 1_555
Cu2C I1A 1_555 1_555
Cu2B I1 1_555 1_555
Cu3C I4 1_555 1_555
N1C Cu1C_2 1_555 1_555
N1B Cu1B 1_555 1_555
N2C Cu2C 1_555 1_555
N3C Cu3C 1_555 1_555
C1C N1C 1_555 1_555
H1C C1C 1_555 1_555
C2C C1C 1_555 1_555
H2C C2C 1_555 1_555
C3C C2C 1_555 1_555
C4C C3C 1_555 1_555
H3C C4C 1_555 1_555
C5C N1C 1_555 1_555
H4C C5C 1_555 1_555
C6C C3C 1_555 1_555
C7C N2C 1_555 1_555
H5C C7C 1_555 1_555
C8C C7C 1_555 1_555
H6C C8C 1_555 1_555
C9C C8C 1_555 1_555
C10C C9C 1_555 1_555
H7C C10C 1_555 1_555
C11C N2C 1_555 1_555
H8C C11C 1_555 1_555
C12C C9C 1_555 1_555
C13C N3C 1_555 1_555
H9C C13C 1_555 1_555
C14C C13C 1_555 1_555
H10C C14C 1_555 1_555
C15C C14C 1_555 1_555
C16C C15C 1_555 1_555
H11C C16C 1_555 1_555
C17C N3C 1_555 1_555
H12C C17C 1_555 1_555
C18C C15C 1_555 1_555
O1C C6C 1_555 1_555
O2C Nd1C 1_555 1_555
O3C Nd1C 1_555 1_555
O4C C12C 1_555 1_555
O4B Nd1 1_555 1_555
O4A Nd1C 1_555 1_555
O5C C18C 1_555 1_555
O5_2 Nd1 1_555 1_555
O5C_2 Nd1C 1_555 1_555
O6C Nd1C_2 1_555 1_555
O6_2 Nd1 1_555 1_555
O6C_2 Nd1C 1_555 1_555
O9C Nd1C 1_555 1_555
H17C O9C 1_555 1_555
H18C O9C 1_555 1_555
O10C Nd1C 1_555 1_555
H19C O10C 1_555 1_555
H20C O10C 1_555 1_555
O11C Nd1C 1_555 1_555
H21C O11C 1_555 1_555
H22C O11C 1_555 1_555
H23C O12 1_555 1_555
I2 Cu1B 1_555 1_555
I4 Cu4 1_555 1_555
C4 C5 1_555 1_555
C6 O2 1_555 1_555
C10 C11 1_555 1_555
C12 O3 1_555 1_555
C16 C17 1_555 1_555
C22 C23 1_555 1_555
O6 Nd1_2 1_555 1_555
I2C Cu2C 1_555 1_555
I2B Cu2B 1_555 1_555
I2B_2 Cu1_2 1_555 1_555
I3C Cu2C 1_555 1_555
I3C Cu3C 1_555 1_555
C4C C5C 1_555 1_555
C6C O2C 1_555 1_555
C10C C11C 1_555 1_555
C12C O3C 1_555 1_555
C16C C17C 1_555 1_555
C18C O6C 1_555 1_555

#END
