
#######################################################################
#
#                 Cambridge Crystallographic Data Centre
#                                CCDC 
#
#######################################################################
#
# If this CIF has been generated from an entry in the Cambridge 
# Structural Database, then it will include bibliographic, chemical, 
# crystal, experimental, refinement or atomic coordinate data resulting 
# from the CCDC's data processing and validation procedures.
#
#######################################################################

data_CAHLOO
_symmetry_cell_setting           monoclinic
_symmetry_space_group_name_H-M   'P 21/c'
_symmetry_Int_Tables_number      14
_space_group_name_Hall           '-P 2ybc'
loop_
_symmetry_equiv_pos_site_id
_symmetry_equiv_pos_as_xyz
1 x,y,z
2 -x,1/2+y,1/2-z
3 -x,-y,-z
4 x,1/2-y,1/2+z
_cell_length_a                   22.505(5)
_cell_length_b                   15.209(3)
_cell_length_c                   7.8877(16)
_cell_angle_alpha                90
_cell_angle_beta                 91.09(3)
_cell_angle_gamma                90
_cell_volume                     2699.3
loop_
_atom_site_label
_atom_site_type_symbol
_atom_site_fract_x
_atom_site_fract_y
_atom_site_fract_z
Gd1 Gd 0.468548(7) 0.883586(10) 0.54338(2)
I1 I -0.064127(12) 0.467707(17) 0.80128(3)
Cu1 Cu -0.00883(2) 0.60320(3) 0.95795(7)
O1 O 0.41122(11) 0.82076(16) 0.3275(3)
O2 O 0.40523(11) 0.68417(16) 0.2284(3)
O3 O 0.39885(12) 0.99206(17) 0.6148(4)
O4 O 0.43904(12) 1.12605(16) 0.5812(4)
O5 O 0.52828(12) 1.00678(16) 0.6724(3)
O6 O 0.52720(13) 0.88326(16) 0.8115(3)
O7 O 0.49849(13) 0.73049(17) 0.5681(3)
N1 N 0.05170(15) 0.6452(2) 0.7901(4)
N2 N 0.07555(15) 1.3277(2) 0.9392(4)
C1 C 0.07782(19) 0.5857(3) 0.6893(5)
H1 H 0.0589 0.5305 0.6715
C2 C 0.13102(18) 0.6018(3) 0.6110(5)
H2 H 0.1479 0.5576 0.5418
C3 C 0.16011(16) 0.6813(2) 0.6317(4)
C4 C 0.13100(17) 0.7442(3) 0.7278(5)
H3 H 0.1475 0.8014 0.7413
C5 C 0.07787(18) 0.7229(3) 0.8037(5)
H4 H 0.0591 0.7668 0.8694
C6 C 0.21805(16) 0.7000(2) 0.5498(5)
C7 C 0.23887(16) 0.7857(2) 0.5315(5)
H5 H 0.2156 0.8335 0.5702
C8 C 0.29327(16) 0.8020(2) 0.4574(5)
H6 H 0.3076 0.8606 0.4491
C9 C 0.32672(15) 0.7329(2) 0.3956(4)
C10 C 0.30574(17) 0.6472(2) 0.4112(5)
H7 H 0.3284 0.5997 0.3683
C11 C 0.25241(17) 0.6307(3) 0.4885(5)
H8 H 0.2389 0.5718 0.5002
C12 C 0.38480(16) 0.7469(2) 0.3125(4)
C13 C 0.39680(17) 1.0746(2) 0.6219(5)
C14 C 0.34131(17) 1.1169(2) 0.6828(5)
C15 C 0.28776(17) 1.0704(3) 0.6775(5)
H9 H 0.2873 1.0109 0.6405
C16 C 0.23535(17) 1.1102(2) 0.7258(5)
H10 H 0.1990 1.0786 0.7178
C17 C 0.23558(16) 1.1964(3) 0.7863(5)
C18 C 0.28979(18) 1.2418(3) 0.7985(5)
H11 H 0.2910 1.2996 0.8438
C19 C 0.34170(17) 1.2023(3) 0.7444(5)
H12 H 0.3780 1.2342 0.7497
C20 C 0.17938(17) 1.2414(3) 0.8358(5)
C21 C 0.13027(17) 1.1944(3) 0.8916(5)
H13 H 0.1313 1.1320 0.8964
C22 C 0.08011(18) 1.2397(3) 0.9400(5)
H14 H 0.0469 1.2066 0.9759
C23 C 0.12252(19) 1.3721(3) 0.8823(6)
H15 H 0.1203 1.4344 0.8786
C24 C 0.17405(18) 1.3323(3) 0.8285(5)
H16 H 0.2057 1.3670 0.7868
C25 C 0.54752(17) 0.9598(2) 0.7938(4)
C26 C 0.5929(2) 0.9957(3) 0.9148(5)
H17 H 0.5731 1.0205 1.0135
H18 H 0.6158 1.0418 0.8588
H19 H 0.6198 0.9484 0.9517
H20 H 0.5125(19) 0.698(2) 0.491(4)
H21 H 0.4774(19) 0.705(2) 0.642(4)
Gd1C Gd 0.468548(7) 0.616414(10) 0.04338(2)
Gd1B Gd 0.531452(7) 1.116414(10) 0.45662(2)
I1B I 0.064127(12) 0.532293(17) 1.19872(3)
Cu1B Cu 0.00883(2) 0.39680(3) 1.04205(7)
Cu1B_2 Cu 0.00883(2) 1.39680(3) 1.04205(7)
O2C O 0.40523(11) 0.81583(16) 0.7284(3)
O4B O 0.56096(12) 0.87395(16) 0.4188(4)
O5B O 0.47172(12) 0.99322(16) 0.3276(3)
N2B N -0.07555(15) 0.6723(2) 1.0608(4)
loop_
_geom_bond_atom_site_label_1
_geom_bond_atom_site_label_2
_geom_bond_site_symmetry_1
_geom_bond_site_symmetry_2
Gd1 O1 1_555 1_555
I1 Cu1 1_555 1_555
Cu1 N1 1_555 1_555
O1 C12 1_555 1_555
O2 C12 1_555 1_555
O3 Gd1 1_555 1_555
O4 C13 1_555 1_555
O5 Gd1 1_555 1_555
O6 Gd1 1_555 1_555
O7 Gd1 1_555 1_555
N1 C1 1_555 1_555
N2 C22 1_555 1_555
C1 H1 1_555 1_555
C2 C1 1_555 1_555
H2 C2 1_555 1_555
C3 C2 1_555 1_555
C4 C3 1_555 1_555
H3 C4 1_555 1_555
C5 N1 1_555 1_555
H4 C5 1_555 1_555
C6 C3 1_555 1_555
C7 C6 1_555 1_555
H5 C7 1_555 1_555
C8 C7 1_555 1_555
H6 C8 1_555 1_555
C9 C8 1_555 1_555
C10 C9 1_555 1_555
H7 C10 1_555 1_555
C11 C6 1_555 1_555
H8 C11 1_555 1_555
C12 C9 1_555 1_555
C13 O3 1_555 1_555
C14 C13 1_555 1_555
C15 C14 1_555 1_555
H9 C15 1_555 1_555
C16 C15 1_555 1_555
H10 C16 1_555 1_555
C17 C16 1_555 1_555
C18 C17 1_555 1_555
H11 C18 1_555 1_555
C19 C14 1_555 1_555
H12 C19 1_555 1_555
C20 C17 1_555 1_555
C21 C20 1_555 1_555
H13 C21 1_555 1_555
C22 C21 1_555 1_555
H14 C22 1_555 1_555
C23 N2 1_555 1_555
H15 C23 1_555 1_555
C24 C20 1_555 1_555
H16 C24 1_555 1_555
C25 O5 1_555 1_555
C26 C25 1_555 1_555
H17 C26 1_555 1_555
H18 C26 1_555 1_555
H19 C26 1_555 1_555
H20 O7 1_555 1_555
H21 O7 1_555 1_555
Gd1C O2 1_555 1_555
Gd1B O4 1_555 1_555
I1B Cu1 1_555 1_555
Cu1B I1 1_555 1_555
Cu1B_2 N2 1_555 1_555
O2C Gd1 1_555 1_555
O4B Gd1 1_555 1_555
O5B Gd1 1_555 1_555
N2B Cu1 1_555 1_555
O5 Gd1B 1_555 1_555
O6 C25 1_555 1_555
C4 C5 1_555 1_555
C10 C11 1_555 1_555
C18 C19 1_555 1_555
C23 C24 1_555 1_555
Gd1B O5B 1_555 1_555
I1B Cu1B 1_555 1_555

#END
