
#######################################################################
#
#                 Cambridge Crystallographic Data Centre
#                                CCDC 
#
#######################################################################
#
# If this CIF has been generated from an entry in the Cambridge 
# Structural Database, then it will include bibliographic, chemical, 
# crystal, experimental, refinement or atomic coordinate data resulting 
# from the CCDC's data processing and validation procedures.
#
#######################################################################

data_CAHMOP
_symmetry_cell_setting           monoclinic
_symmetry_space_group_name_H-M   'P 21/c'
_symmetry_Int_Tables_number      14
_space_group_name_Hall           '-P 2ybc'
loop_
_symmetry_equiv_pos_site_id
_symmetry_equiv_pos_as_xyz
1 x,y,z
2 -x,1/2+y,1/2-z
3 -x,-y,-z
4 x,1/2-y,1/2+z
_cell_length_a                   22.461(5)
_cell_length_b                   15.301(3)
_cell_length_c                   7.8969(16)
_cell_angle_alpha                90
_cell_angle_beta                 91.53(3)
_cell_angle_gamma                90
_cell_volume                     2713.01
loop_
_atom_site_label
_atom_site_type_symbol
_atom_site_fract_x
_atom_site_fract_y
_atom_site_fract_z
Sm1 Sm 0.467919(5) 0.883570(8) 0.542162(15)
I1 I -0.064805(8) 0.468332(12) 0.80415(2)
Cu1 Cu -0.009131(16) 0.60433(2) 0.95729(5)
O1 O 0.40927(8) 0.82020(11) 0.3234(2)
O2 O 0.40384(8) 0.68376(12) 0.2278(2)
O3 O 0.39712(9) 0.99276(13) 0.6083(3)
O4 O 0.43774(9) 1.12558(12) 0.5778(3)
O5 O 0.52774(8) 1.00708(12) 0.6764(2)
O6 O 0.52726(9) 0.88401(12) 0.8140(2)
O7 O 0.49735(9) 0.72947(12) 0.5686(2)
N1 N 0.05074(10) 0.64510(16) 0.7891(3)
N2 N 0.07537(10) 1.32710(17) 0.9380(3)
C1 C 0.07705(13) 0.5859(2) 0.6902(4)
H1 H 0.0582 0.5308 0.6742
C2 C 0.12993(13) 0.6011(2) 0.6109(4)
H2 H 0.1469 0.5565 0.5438
C3 C 0.15869(11) 0.68123(18) 0.6280(3)
C4 C 0.12958(12) 0.74442(18) 0.7224(3)
H3 H 0.1460 0.8014 0.7338
C5 C 0.07654(12) 0.72378(19) 0.7998(3)
H4 H 0.0576 0.7679 0.8636
C6 C 0.21635(11) 0.69966(18) 0.5468(3)
C7 C 0.23737(12) 0.78492(18) 0.5281(3)
H5 H 0.2142 0.8325 0.5668
C8 C 0.29153(11) 0.80138(18) 0.4539(3)
H6 H 0.3057 0.8597 0.4450
C9 C 0.32510(11) 0.73232(17) 0.3925(3)
C10 C 0.30409(12) 0.64708(18) 0.4074(3)
H7 H 0.3264 0.5999 0.3634
C11 C 0.25114(12) 0.63087(18) 0.4858(3)
H8 H 0.2380 0.5723 0.4987
C12 C 0.38334(11) 0.74645(16) 0.3095(3)
C13 C 0.39571(12) 1.07477(19) 0.6165(3)
C14 C 0.34023(12) 1.11680(17) 0.6794(3)
C15 C 0.28670(12) 1.07061(19) 0.6743(3)
H9 H 0.2859 1.0116 0.6368
C16 C 0.23418(13) 1.11087(18) 0.7243(4)
H10 H 0.1977 1.0795 0.7177
C17 C 0.23477(12) 1.19617(19) 0.7835(3)
C18 C 0.28929(12) 1.24070(19) 0.7945(4)
H11 H 0.2906 1.2982 0.8399
C19 C 0.34127(12) 1.20221(19) 0.7404(4)
H12 H 0.3776 1.2340 0.7448
C20 C 0.17896(12) 1.24102(19) 0.8345(3)
C21 C 0.12978(12) 1.1946(2) 0.8901(4)
H13 H 0.1306 1.1326 0.8944
C22 C 0.07953(13) 1.2403(2) 0.9393(4)
H14 H 0.0463 1.2076 0.9759
C23 C 0.12264(14) 1.3712(2) 0.8814(4)
H15 H 0.1208 1.4332 0.8789
C24 C 0.17365(13) 1.3310(2) 0.8269(4)
H16 H 0.2052 1.3651 0.7840
C25 C 0.54714(12) 0.96003(18) 0.7970(3)
C26 C 0.59326(15) 0.9953(2) 0.9191(4)
H17 H 0.5737 1.0205 1.0171
H18 H 0.6165 1.0406 0.8632
H19 H 0.6198 0.9479 0.9568
H20 H 0.5094(15) 0.6938(16) 0.494(3)
H21 H 0.4770(15) 0.7091(19) 0.648(3)
Sm1C Sm 0.467919(5) 0.616430(8) 0.042162(15)
Sm1B Sm 0.532081(5) 1.116430(8) 0.457838(15)
I1B I 0.064805(8) 0.531668(12) 1.19585(2)
Cu1B Cu 0.009131(16) 0.39567(2) 1.04271(5)
Cu1B_2 Cu 0.009131(16) 1.39567(2) 1.04271(5)
O2C O 0.40384(8) 0.81624(12) 0.7278(2)
O4B O 0.56226(9) 0.87442(12) 0.4222(3)
O5B O 0.47226(8) 0.99292(12) 0.3236(2)
N2B N -0.07537(10) 0.67290(17) 1.0620(3)
loop_
_geom_bond_atom_site_label_1
_geom_bond_atom_site_label_2
_geom_bond_site_symmetry_1
_geom_bond_site_symmetry_2
Sm1 O1 1_555 1_555
I1 Cu1 1_555 1_555
Cu1 N1 1_555 1_555
O1 C12 1_555 1_555
O2 C12 1_555 1_555
O3 Sm1 1_555 1_555
O4 C13 1_555 1_555
O5 Sm1 1_555 1_555
O6 Sm1 1_555 1_555
O7 Sm1 1_555 1_555
N1 C1 1_555 1_555
N2 C22 1_555 1_555
C1 H1 1_555 1_555
C2 C1 1_555 1_555
H2 C2 1_555 1_555
C3 C2 1_555 1_555
C4 C3 1_555 1_555
H3 C4 1_555 1_555
C5 N1 1_555 1_555
H4 C5 1_555 1_555
C6 C3 1_555 1_555
C7 C6 1_555 1_555
H5 C7 1_555 1_555
C8 C7 1_555 1_555
H6 C8 1_555 1_555
C9 C8 1_555 1_555
C10 C9 1_555 1_555
H7 C10 1_555 1_555
C11 C6 1_555 1_555
H8 C11 1_555 1_555
C12 C9 1_555 1_555
C13 O3 1_555 1_555
C14 C13 1_555 1_555
C15 C14 1_555 1_555
H9 C15 1_555 1_555
C16 C15 1_555 1_555
H10 C16 1_555 1_555
C17 C16 1_555 1_555
C18 C17 1_555 1_555
H11 C18 1_555 1_555
C19 C14 1_555 1_555
H12 C19 1_555 1_555
C20 C17 1_555 1_555
C21 C20 1_555 1_555
H13 C21 1_555 1_555
C22 C21 1_555 1_555
H14 C22 1_555 1_555
C23 N2 1_555 1_555
H15 C23 1_555 1_555
C24 C20 1_555 1_555
H16 C24 1_555 1_555
C25 O5 1_555 1_555
C26 C25 1_555 1_555
H17 C26 1_555 1_555
H18 C26 1_555 1_555
H19 C26 1_555 1_555
H20 O7 1_555 1_555
H21 O7 1_555 1_555
Sm1C O2 1_555 1_555
Sm1B O4 1_555 1_555
I1B Cu1 1_555 1_555
Cu1B I1 1_555 1_555
Cu1B_2 N2 1_555 1_555
O2C Sm1 1_555 1_555
O4B Sm1 1_555 1_555
O5B Sm1 1_555 1_555
N2B Cu1 1_555 1_555
O5 Sm1B 1_555 1_555
O6 C25 1_555 1_555
C4 C5 1_555 1_555
C10 C11 1_555 1_555
C18 C19 1_555 1_555
C23 C24 1_555 1_555
Sm1B O5B 1_555 1_555
I1B Cu1B 1_555 1_555

#END
