
#######################################################################
#
#                 Cambridge Crystallographic Data Centre
#                                CCDC 
#
#######################################################################
#
# If this CIF has been generated from an entry in the Cambridge 
# Structural Database, then it will include bibliographic, chemical, 
# crystal, experimental, refinement or atomic coordinate data resulting 
# from the CCDC's data processing and validation procedures.
#
#######################################################################

data_CAHNAC
_symmetry_cell_setting           monoclinic
_symmetry_space_group_name_H-M   'P 21/c'
_symmetry_Int_Tables_number      14
_space_group_name_Hall           '-P 2ybc'
loop_
_symmetry_equiv_pos_site_id
_symmetry_equiv_pos_as_xyz
1 x,y,z
2 -x,1/2+y,1/2-z
3 -x,-y,-z
4 x,1/2-y,1/2+z
_cell_length_a                   8.1825(19)
_cell_length_b                   16.626(4)
_cell_length_c                   11.621(3)
_cell_angle_alpha                90
_cell_angle_beta                 101.102(3)
_cell_angle_gamma                90
_cell_volume                     1551.36
loop_
_atom_site_label
_atom_site_type_symbol
_atom_site_fract_x
_atom_site_fract_y
_atom_site_fract_z
Co1 Co 0.15188(5) 0.70145(2) 0.57847(3)
C1 C 0.0595(5) 0.5243(2) 0.8077(3)
H1 H 0.0241 0.4726 0.8212
C2 C 0.1060(5) 0.5829(2) 0.8903(3)
H2 H 0.1077 0.5795 0.9704
C3 C 0.1495(5) 0.6478(2) 0.8297(3)
H3 H 0.1880 0.6965 0.8637
C4 C -0.3014(7) 0.7095(4) 0.3515(6)
H4 H -0.3682 0.6978 0.2792
C5 C -0.3531(6) 0.7374(5) 0.4436(6)
H5 H -0.4625 0.7473 0.4510
C6 C -0.2103(6) 0.7492(4) 0.5278(5)
H6 H -0.2080 0.7717 0.6014
C7 C 0.2335(4) 0.8401(2) 0.6946(3)
C8 C 0.3267(4) 0.91540(19) 0.7359(3)
C9 C 0.4157(5) 0.9547(2) 0.6621(3)
H7 H 0.4311 0.9298 0.5933
C10 C 0.4813(6) 1.0302(3) 0.6900(4)
H8 H 0.5412 1.0560 0.6404
C11 C 0.4575(6) 1.0676(2) 0.7925(4)
H9 H 0.4985 1.1192 0.8103
C12 C 0.3739(5) 1.0286(2) 0.8670(3)
H10 H 0.3606 1.0536 0.9362
C13 C 0.3088(4) 0.95255(19) 0.8410(3)
C14 C 0.2226(4) 0.91063(19) 0.9276(3)
N1 N 0.1293(4) 0.63139(16) 0.7150(2)
N2 N 0.0743(4) 0.55539(17) 0.7043(3)
H11 H 0.0514 0.5298 0.6389
N3 N -0.0792(4) 0.7243(2) 0.4892(3)
N4 N -0.1381(5) 0.7007(3) 0.3788(4)
H12 H -0.0775 0.6823 0.3319
O1 O 0.3034(4) 0.79119(15) 0.6346(2)
O2 O 0.0911(3) 0.82977(15) 0.7138(2)
O3 O 0.1099(4) 0.94607(17) 0.9642(2)
O4 O 0.2737(3) 0.84106(13) 0.96156(19)
Co1C Co 0.15188(5) 0.79855(2) 1.07847(3)
O4C O 0.2737(3) 0.65894(13) 0.46156(19)
loop_
_geom_bond_atom_site_label_1
_geom_bond_atom_site_label_2
_geom_bond_site_symmetry_1
_geom_bond_site_symmetry_2
Co1 N1 1_555 1_555
C1 H1 1_555 1_555
C2 C1 1_555 1_555
H2 C2 1_555 1_555
C3 C2 1_555 1_555
H3 C3 1_555 1_555
C4 H4 1_555 1_555
C5 C4 1_555 1_555
H5 C5 1_555 1_555
C6 C5 1_555 1_555
H6 C6 1_555 1_555
C7 C8 1_555 1_555
C8 C9 1_555 1_555
C9 H7 1_555 1_555
C10 C9 1_555 1_555
H8 C10 1_555 1_555
C11 C10 1_555 1_555
H9 C11 1_555 1_555
C12 C11 1_555 1_555
H10 C12 1_555 1_555
C13 C8 1_555 1_555
C14 C13 1_555 1_555
N1 C3 1_555 1_555
N2 C1 1_555 1_555
H11 N2 1_555 1_555
N3 Co1 1_555 1_555
N4 C4 1_555 1_555
H12 N4 1_555 1_555
O1 Co1 1_555 1_555
O2 C7 1_555 1_555
O3 C14 1_555 1_555
O4 C14 1_555 1_555
Co1C O4 1_555 1_555
O4C Co1 1_555 1_555
C6 N3 1_555 1_555
C7 O1 1_555 1_555
C12 C13 1_555 1_555
N1 N2 1_555 1_555
N3 N4 1_555 1_555

#END
