
#######################################################################
#
#                 Cambridge Crystallographic Data Centre
#                                CCDC 
#
#######################################################################
#
# If this CIF has been generated from an entry in the Cambridge 
# Structural Database, then it will include bibliographic, chemical, 
# crystal, experimental, refinement or atomic coordinate data resulting 
# from the CCDC's data processing and validation procedures.
#
#######################################################################

data_CAJMIL
_symmetry_cell_setting           monoclinic
_symmetry_space_group_name_H-M   'C 2/c'
_symmetry_Int_Tables_number      15
_space_group_name_Hall           '-C 2yn'
loop_
_symmetry_equiv_pos_site_id
_symmetry_equiv_pos_as_xyz
1 x,y,z
2 -x,y,1/2-z
3 1/2+x,1/2+y,z
4 1/2-x,1/2+y,1/2-z
5 -x,-y,-z
6 x,-y,1/2+z
7 1/2-x,1/2-y,-z
8 1/2+x,1/2-y,1/2+z
_cell_length_a                   19.574(10)
_cell_length_b                   16.005(9)
_cell_length_c                   14.873(8)
_cell_angle_alpha                90
_cell_angle_beta                 111.250(9)
_cell_angle_gamma                90
_cell_volume                     4342.64
loop_
_atom_site_label
_atom_site_type_symbol
_atom_site_fract_x
_atom_site_fract_y
_atom_site_fract_z
Br1 Br 1.104634(13) 1.026719(18) 0.93359(2)
C1 C 0.90611(12) 0.90401(13) 0.82169(17)
C2 C 0.85677(13) 0.96913(14) 0.79629(16)
H1 H 0.8069 0.9574 0.7689
C3 C 0.87935(12) 1.05113(14) 0.81040(16)
C4 C 0.95392(12) 1.06802(15) 0.85106(17)
H2 H 0.9705 1.1229 0.8610
C5 C 1.00282(12) 1.00293(15) 0.87634(17)
C6 C 0.98036(12) 0.92113(14) 0.86217(17)
H3 H 1.0145 0.8780 0.8795
C7 C 0.87974(13) 0.81562(15) 0.80781(17)
C8 C 0.82538(12) 1.12241(15) 0.78320(16)
C9 C 0.77666(14) 0.63146(16) 0.5671(2)
H4 H 0.7431 0.5993 0.5830
C10 C 0.76743(15) 0.63891(18) 0.4718(2)
H5 H 0.7283 0.6126 0.4247
C11 C 0.81598(15) 0.68509(17) 0.4462(2)
H6 H 0.8102 0.6922 0.3818
C12 C 0.87379(15) 0.72085(18) 0.5187(2)
H7 H 0.9088 0.7515 0.5042
C13 C 0.87925(14) 0.71087(17) 0.6126(2)
H8 H 0.9187 0.7356 0.6608
C14 C 0.85589(14) 0.73387(16) 0.99654(19)
H9 H 0.8800 0.7774 0.9791
C15 C 0.84666(15) 0.73931(18) 1.0835(2)
H10 H 0.8645 0.7853 1.1234
C16 C 0.81112(14) 0.67668(18) 1.1108(2)
H11 H 0.8024 0.6798 1.1682
C17 C 0.78841(14) 0.60844(19) 1.0503(2)
H12 H 0.7657 0.5635 1.0675
C18 C 0.79979(14) 0.60777(17) 0.9646(2)
H13 H 0.7839 0.5615 0.9246
C19 C 0.97591(14) 0.57435(18) 0.8668(2)
H14 H 0.9927 0.6290 0.8800
C20 C 1.02626(16) 0.5106(2) 0.8920(3)
H15 H 1.0760 0.5223 0.9207
C21 C 1.00285(17) 0.43069(19) 0.8746(2)
H16 H 1.0362 0.3867 0.8912
C22 C 0.92923(16) 0.41568(17) 0.8320(2)
H17 H 0.9113 0.3614 0.8198
C23 C 0.88269(14) 0.48289(16) 0.8079(2)
H18 H 0.8328 0.4726 0.7779
Co1 Co 0.833455(16) 0.667775(19) 0.78800(2)
N1 N 0.83121(10) 0.66781(12) 0.63893(15)
N2 N 0.83236(10) 0.66976(12) 0.93529(15)
N3 N 0.90460(10) 0.56145(12) 0.82470(15)
O1 O 0.81210(9) 0.80074(10) 0.77375(12)
O2 O 0.92552(9) 0.75634(9) 0.83189(13)
O3 O 0.84775(10) 1.19436(11) 0.79210(14)
O4 O 0.75802(9) 1.09969(10) 0.75283(12)
Co1C Co 0.666545(16) 1.167775(19) 0.71200(2)
O4C O 0.74198(9) 0.59969(10) 0.74717(12)
loop_
_geom_bond_atom_site_label_1
_geom_bond_atom_site_label_2
_geom_bond_site_symmetry_1
_geom_bond_site_symmetry_2
Br1 C5 1_555 1_555
C1 C2 1_555 1_555
C2 H1 1_555 1_555
C3 C2 1_555 1_555
C4 C3 1_555 1_555
H2 C4 1_555 1_555
C5 C4 1_555 1_555
C6 C1 1_555 1_555
H3 C6 1_555 1_555
C7 C1 1_555 1_555
C8 C3 1_555 1_555
C9 H4 1_555 1_555
C10 C9 1_555 1_555
H5 C10 1_555 1_555
C11 C10 1_555 1_555
H6 C11 1_555 1_555
C12 C11 1_555 1_555
H7 C12 1_555 1_555
C13 C12 1_555 1_555
H8 C13 1_555 1_555
C14 H9 1_555 1_555
C15 C14 1_555 1_555
H10 C15 1_555 1_555
C16 C15 1_555 1_555
H11 C16 1_555 1_555
C17 C16 1_555 1_555
H12 C17 1_555 1_555
C18 C17 1_555 1_555
H13 C18 1_555 1_555
C19 H14 1_555 1_555
C20 C19 1_555 1_555
H15 C20 1_555 1_555
C21 C20 1_555 1_555
H16 C21 1_555 1_555
C22 C21 1_555 1_555
H17 C22 1_555 1_555
C23 C22 1_555 1_555
H18 C23 1_555 1_555
Co1 N1 1_555 1_555
N1 C9 1_555 1_555
N2 C14 1_555 1_555
N3 C19 1_555 1_555
O1 C7 1_555 1_555
O2 C7 1_555 1_555
O3 C8 1_555 1_555
O4 C8 1_555 1_555
Co1C O4 1_555 1_555
O4C Co1 1_555 1_555
C5 C6 1_555 1_555
C13 N1 1_555 1_555
C18 N2 1_555 1_555
C23 N3 1_555 1_555
Co1 N2 1_555 1_555
Co1 N3 1_555 1_555
Co1 O1 1_555 1_555
Co1 O2 1_555 1_555

#END
