
#######################################################################
#
#                 Cambridge Crystallographic Data Centre
#                                CCDC 
#
#######################################################################
#
# If this CIF has been generated from an entry in the Cambridge 
# Structural Database, then it will include bibliographic, chemical, 
# crystal, experimental, refinement or atomic coordinate data resulting 
# from the CCDC's data processing and validation procedures.
#
#######################################################################

data_CAJTOW
_symmetry_cell_setting           triclinic
_symmetry_space_group_name_H-M   'P -1'
_symmetry_Int_Tables_number      2
_space_group_name_Hall           '-P 1'
loop_
_symmetry_equiv_pos_site_id
_symmetry_equiv_pos_as_xyz
1 x,y,z
2 -x,-y,-z
_cell_length_a                   5.648(1)
_cell_length_b                   8.115(2)
_cell_length_c                   9.171(2)
_cell_angle_alpha                64.97(3)
_cell_angle_beta                 80.59(3)
_cell_angle_gamma                83.34(3)
_cell_volume                     375.223
loop_
_atom_site_label
_atom_site_type_symbol
_atom_site_fract_x
_atom_site_fract_y
_atom_site_fract_z
U1 U 0.0000 0.0000 0.0000
P1 P -0.5844(3) -0.0414(2) 0.2762(2)
H1 H -0.67(1) 0.100(9) 0.305(8)
O1 O -0.7851(8) -0.0924(6) 0.2151(5)
O2 O -0.6509(8) 0.0088(7) -0.1673(5)
O3 O -0.0262(9) -0.2301(6) 0.0371(6)
C1 C -0.543(1) -0.2129(8) 0.4739(7)
C2 C -0.3258(7) -0.3141(4) 0.5035(5)
C3 C -0.3014(7) -0.4505(4) 0.6565(3)
C4 C -0.4904(5) -0.4838(4) 0.7785(4)
C5 C -0.7073(7) -0.3815(4) 0.7511(4)
C6 C -0.7314(7) -0.2458(5) 0.5983(4)
O2A O -0.3491(8) -0.0088(7) 0.1673(5)
U1_2 U -1.0000 0.0000 0.0000
O1A O -0.2149(8) 0.0924(6) -0.2151(5)
P1A P -0.4156(3) 0.0414(2) -0.2762(2)
H1A H -0.33(1) -0.100(9) -0.305(8)
C1A C -0.457(1) 0.2129(8) -0.4739(7)
C2A C -0.6742(7) 0.3141(4) -0.5035(5)
C3A C -0.6986(7) 0.4505(4) -0.6565(3)
C4A C -0.5096(5) 0.4838(4) -0.7785(4)
C5A C -0.2927(7) 0.3815(4) -0.7511(4)
C6A C -0.2686(7) 0.2458(5) -0.5983(4)
O1_2 O 0.2149(8) -0.0924(6) 0.2151(5)
O2_2 O 0.3491(8) 0.0088(7) -0.1673(5)
O3A O 0.0262(9) 0.2301(6) -0.0371(6)
loop_
_geom_bond_atom_site_label_1
_geom_bond_atom_site_label_2
_geom_bond_site_symmetry_1
_geom_bond_site_symmetry_2
U1 O3 1_555 1_555
P1 H1 1_555 1_555
O1 P1 1_555 1_555
O2 U1_2 1_555 1_555
C1 P1 1_555 1_555
C2 C1 1_555 1_555
C3 C2 1_555 1_555
C4 C3 1_555 1_555
C5 C4 1_555 1_555
C6 C1 1_555 1_555
O2A U1 1_555 1_555
U1_2 O1 1_555 1_555
O1A U1 1_555 1_555
P1A O2 1_555 1_555
H1A P1A 1_555 1_555
C1A P1A 1_555 1_555
C2A C1A 1_555 1_555
C3A C2A 1_555 1_555
C4A C3A 1_555 1_555
C5A C4A 1_555 1_555
C6A C1A 1_555 1_555
O1_2 U1 1_555 1_555
O2_2 U1 1_555 1_555
O3A U1 1_555 1_555
P1 O2A 1_555 1_555
C5 C6 1_555 1_555
O1A P1A 1_555 1_555
C5A C6A 1_555 1_555

#END
