
#######################################################################
#
#                 Cambridge Crystallographic Data Centre
#                                CCDC 
#
#######################################################################
#
# If this CIF has been generated from an entry in the Cambridge 
# Structural Database, then it will include bibliographic, chemical, 
# crystal, experimental, refinement or atomic coordinate data resulting 
# from the CCDC's data processing and validation procedures.
#
#######################################################################

data_CAKWUI
_symmetry_cell_setting           monoclinic
_symmetry_space_group_name_H-M   'C 2/c'
_symmetry_Int_Tables_number      15
_space_group_name_Hall           '-C 2yn'
loop_
_symmetry_equiv_pos_site_id
_symmetry_equiv_pos_as_xyz
1 x,y,z
2 -x,y,1/2-z
3 1/2+x,1/2+y,z
4 1/2-x,1/2+y,1/2-z
5 -x,-y,-z
6 x,-y,1/2+z
7 1/2-x,1/2-y,-z
8 1/2+x,1/2-y,1/2+z
_cell_length_a                   12.898(3)
_cell_length_b                   12.382(2)
_cell_length_c                   15.593(3)
_cell_angle_alpha                90
_cell_angle_beta                 92.623(2)
_cell_angle_gamma                90
_cell_volume                     2487.64
loop_
_atom_site_label
_atom_site_type_symbol
_atom_site_fract_x
_atom_site_fract_y
_atom_site_fract_z
Mn1 Mn 0.058038(19) 0.39441(2) 0.445291(17)
O1 O -0.07560(11) 0.29708(13) 0.48057(11)
H1 H -0.120(2) 0.329(2) 0.5025(17)
H2 H -0.095(2) 0.237(3) 0.4608(18)
C1 C 0.64538(16) 0.50355(19) 0.34748(16)
H3 H 0.7001 0.5516 0.3420
C2 C 0.55083(16) 0.54156(17) 0.36929(15)
H4 H 0.5412 0.6149 0.3789
C3 C 0.46930(14) 0.46995(15) 0.37701(12)
C4 C 0.48728(15) 0.36114(17) 0.36383(13)
H5 H 0.4342 0.3113 0.3700
C5 C 0.58327(16) 0.32715(17) 0.34180(13)
H6 H 0.5949 0.2541 0.3323
C6 C 0.36456(14) 0.50333(15) 0.39822(12)
C7 C 0.76274(16) 0.3575(2) 0.30820(16)
H7 H 0.8102 0.4170 0.3051
H8 H 0.7551 0.3234 0.2530
H9 H 0.7892 0.3062 0.3498
N1 N 0.04303(16) 0.32564(18) 0.31706(12)
N2 N 0.0000 0.32885(18) 0.2500
N3 N -0.11826(19) 0.61881(18) 0.29750(14)
N4 N -0.08179(12) 0.57717(13) 0.35816(11)
N5 N -0.04788(13) 0.53465(13) 0.42066(11)
N6 N 0.16136(13) 0.26615(16) 0.49209(14)
N7 N 0.2500 0.2500 0.5000
N8 N 0.66067(13) 0.39757(14) 0.33378(11)
N9 N 0.28433(12) 0.43676(13) 0.39036(11)
N10 N 0.20520(12) 0.49241(13) 0.41868(11)
N11 N 0.23622(14) 0.58947(14) 0.44268(14)
N12 N 0.33775(14) 0.59878(13) 0.42988(14)
Mn1A Mn -0.058038(19) 0.39441(2) 0.054709(17)
Mn1D Mn -0.058038(19) 0.60559(2) 0.554709(17)
Mn1F Mn 0.441962(19) 0.10559(2) 0.554709(17)
O1A O 0.07560(11) 0.29708(13) 0.01943(11)
H1A H 0.120(2) 0.329(2) -0.0025(17)
H2A H 0.095(2) 0.237(3) 0.0392(18)
C1A C -0.64538(16) 0.50355(19) 0.15252(16)
H3A H -0.7001 0.5516 0.1580
C2A C -0.55083(16) 0.54156(17) 0.13071(15)
H4A H -0.5412 0.6149 0.1211
C3A C -0.46930(14) 0.46995(15) 0.12299(12)
C4A C -0.48728(15) 0.36114(17) 0.13617(13)
H5A H -0.4342 0.3113 0.1300
C5A C -0.58327(16) 0.32715(17) 0.15820(13)
H6A H -0.5949 0.2541 0.1677
C6A C -0.36456(14) 0.50333(15) 0.10178(12)
C7A C -0.76274(16) 0.3575(2) 0.19180(16)
H7A H -0.8102 0.4170 0.1949
H8A H -0.7551 0.3234 0.2470
H9A H -0.7892 0.3062 0.1502
N1A N -0.04303(16) 0.32564(18) 0.18294(12)
N3D N 0.11826(19) 0.38119(18) 0.70250(14)
N4D N 0.08179(12) 0.42283(13) 0.64184(11)
N5D N 0.04788(13) 0.46535(13) 0.57934(11)
N5A N 0.04788(13) 0.53465(13) 0.07934(11)
N5E N -0.04788(13) 0.46535(13) -0.07934(11)
N6F N 0.33864(13) 0.23385(16) 0.50791(14)
N6A N -0.16136(13) 0.26615(16) 0.00791(14)
N8A N -0.66067(13) 0.39757(14) 0.16622(11)
N9A N -0.28433(12) 0.43676(13) 0.10964(11)
N10A N -0.20520(12) 0.49241(13) 0.08132(11)
N11A N -0.23622(14) 0.58947(14) 0.05732(14)
N12A N -0.33775(14) 0.59878(13) 0.07012(14)
loop_
_geom_bond_atom_site_label_1
_geom_bond_atom_site_label_2
_geom_bond_site_symmetry_1
_geom_bond_site_symmetry_2
Mn1 O1 1_555 1_555
O1 H1 1_555 1_555
H2 O1 1_555 1_555
C1 H3 1_555 1_555
C2 C1 1_555 1_555
H4 C2 1_555 1_555
C3 C2 1_555 1_555
C4 C3 1_555 1_555
H5 C4 1_555 1_555
C5 C4 1_555 1_555
H6 C5 1_555 1_555
C6 C3 1_555 1_555
C7 H7 1_555 1_555
H8 C7 1_555 1_555
H9 C7 1_555 1_555
N1 Mn1 1_555 1_555
N2 N1 1_555 1_555
N3 N4 1_555 1_555
N4 N5 1_555 1_555
N5 Mn1 1_555 1_555
N6 Mn1 1_555 1_555
N7 N6 1_555 1_555
N8 C1 1_555 1_555
N9 C6 1_555 1_555
N10 Mn1 1_555 1_555
N11 N10 1_555 1_555
N12 C6 1_555 1_555
Mn1A O1A 1_555 1_555
Mn1D N5 1_555 1_555
Mn1F N6F 1_555 1_555
O1A H1A 1_555 1_555
H2A O1A 1_555 1_555
C1A H3A 1_555 1_555
C2A C1A 1_555 1_555
H4A C2A 1_555 1_555
C3A C2A 1_555 1_555
C4A C3A 1_555 1_555
H5A C4A 1_555 1_555
C5A C4A 1_555 1_555
H6A C5A 1_555 1_555
C6A C3A 1_555 1_555
C7A H7A 1_555 1_555
H8A C7A 1_555 1_555
H9A C7A 1_555 1_555
N1A N2 1_555 1_555
N3D N4D 1_555 1_555
N4D N5D 1_555 1_555
N5D Mn1 1_555 1_555
N5A Mn1A 1_555 1_555
N5E Mn1A 1_555 1_555
N6F N7 1_555 1_555
N6A Mn1A 1_555 1_555
N8A C1A 1_555 1_555
N9A C6A 1_555 1_555
N10A Mn1A 1_555 1_555
N11A N10A 1_555 1_555
N12A C6A 1_555 1_555
C5 N8 1_555 1_555
C7 N8 1_555 1_555
N9 N10 1_555 1_555
N11 N12 1_555 1_555
Mn1A N1A 1_555 1_555
Mn1D N5D 1_555 1_555
C5A N8A 1_555 1_555
C7A N8A 1_555 1_555
N9A N10A 1_555 1_555
N11A N12A 1_555 1_555

#END
