
#######################################################################
#
#                 Cambridge Crystallographic Data Centre
#                                CCDC 
#
#######################################################################
#
# If this CIF has been generated from an entry in the Cambridge 
# Structural Database, then it will include bibliographic, chemical, 
# crystal, experimental, refinement or atomic coordinate data resulting 
# from the CCDC's data processing and validation procedures.
#
#######################################################################

data_CAKXOB
_symmetry_cell_setting           orthorhombic
_symmetry_space_group_name_H-M   'P b c a'
_symmetry_Int_Tables_number      61
_space_group_name_Hall           '-P 2ac 2ab'
loop_
_symmetry_equiv_pos_site_id
_symmetry_equiv_pos_as_xyz
1 x,y,z
2 1/2+x,y,1/2-z
3 x,1/2-y,1/2+z
4 1/2-x,1/2+y,z
5 -x,-y,-z
6 1/2-x,-y,1/2+z
7 -x,1/2+y,1/2-z
8 1/2+x,1/2-y,-z
_cell_length_a                   17.5884(2)
_cell_length_b                   12.4406(1)
_cell_length_c                   31.1137(3)
_cell_angle_alpha                90
_cell_angle_beta                 90
_cell_angle_gamma                90
_cell_volume                     6808
loop_
_atom_site_label
_atom_site_type_symbol
_atom_site_fract_x
_atom_site_fract_y
_atom_site_fract_z
Sn1 Sn 0.044215(11) 0.16715(2) 0.246782(6)
N1 N 0.0749(2) 0.3357(2) 0.23254(9)
N2 N 0.0288(2) 0.4054(2) 0.23133(8)
N3 N -0.0143(2) 0.4746(2) 0.22894(11)
C1 C 0.0085(2) 0.1230(2) 0.18398(9)
C2 C -0.0588(2) 0.1692(3) 0.11908(11)
H1 H -0.0840(2) 0.2203(3) 0.10250(11)
C3 C -0.0291(2) 0.1978(3) 0.15837(10)
H2 H -0.0342(2) 0.2682(3) 0.16796(10)
C4 C -0.0517(2) 0.0663(3) 0.10429(11)
H3 H -0.0721(2) 0.0473(3) 0.07778(11)
C5 C -0.0146(3) -0.0084(3) 0.12851(13)
H4 H -0.0095(3) -0.0784(3) 0.11842(13)
C6 C 0.0156(2) 0.0195(3) 0.16802(11)
H5 H 0.0410(2) -0.0321(3) 0.18416(11)
C7 C 0.1539(2) 0.1288(2) 0.26986(10)
C8 C 0.1890(2) 0.1943(3) 0.29992(11)
H6 H 0.1656(2) 0.2576(3) 0.30868(11)
C9 C 0.2595(2) 0.1654(4) 0.31709(13)
H7 H 0.2826(2) 0.2090(4) 0.33760(13)
C10 C 0.2947(2) 0.0731(4) 0.30378(15)
H8 H 0.3414(2) 0.0539(4) 0.31551(15)
C11 C 0.2619(2) 0.0093(4) 0.27355(15)
H9 H 0.2867(2) -0.0524(4) 0.26414(15)
C12 C 0.1912(2) 0.0365(3) 0.25675(11)
H10 H 0.1687(2) -0.0079(3) 0.23638(11)
C13 C -0.0424(2) 0.2076(2) 0.29132(9)
C14 C -0.0302(2) 0.2013(3) 0.33502(10)
H11 H 0.0167(2) 0.1781(3) 0.34517(10)
C15 C -0.0861(2) 0.2288(3) 0.36392(12)
H12 H -0.0767(2) 0.2241(3) 0.39327(12)
C16 C -0.1555(2) 0.2631(3) 0.34959(13)
H13 H -0.1933(2) 0.2813(3) 0.36916(13)
C17 C -0.1691(2) 0.2704(3) 0.30674(13)
H14 H -0.2162(2) 0.2940(3) 0.29702(13)
C18 C -0.1130(2) 0.2429(3) 0.27739(11)
H15 H -0.1229(2) 0.2481(3) 0.24810(11)
N3F N 0.0143(2) -0.0254(2) 0.27106(11)
Sn1F Sn -0.044215(11) 0.66715(2) 0.253218(6)
Sn2 Sn 0.253547(11) -0.01242(2) 0.497521(6)
N4 N 0.3082(2) 0.1355(2) 0.47815(9)
N5 N 0.31138(14) 0.2125(2) 0.50133(8)
N6 N 0.3163(2) 0.2888(2) 0.52157(10)
C19 C 0.3480(2) -0.1139(2) 0.48663(9)
C20 C 0.3456(2) -0.1892(2) 0.45371(10)
H16 H 0.3018(2) -0.1957(2) 0.43716(10)
C21 C 0.4074(2) -0.2547(3) 0.44517(12)
H17 H 0.4052(2) -0.3043(3) 0.42283(12)
C22 C 0.4716(2) -0.2465(3) 0.46960(13)
H18 H 0.5131(2) -0.2907(3) 0.46393(13)
C23 C 0.4752(2) -0.1738(4) 0.50224(13)
H19 H 0.5190(2) -0.1689(4) 0.51887(13)
C24 C 0.4140(2) -0.1070(3) 0.51087(12)
H20 H 0.4172(2) -0.0572(3) 0.53309(12)
C25 C 0.1677(2) -0.0233(2) 0.44990(9)
C26 C 0.0925(2) -0.0385(3) 0.46175(11)
H21 H 0.0802(2) -0.0456(3) 0.49069(11)
C27 C 0.0355(2) -0.0435(3) 0.43132(13)
H22 H -0.0148(2) -0.0526(3) 0.43979(13)
C28 C 0.0533(2) -0.0348(3) 0.38845(12)
H23 H 0.0150(2) -0.0382(3) 0.36789(12)
C29 C 0.1274(2) -0.0212(3) 0.37593(11)
H24 H 0.1394(2) -0.0162(3) 0.34688(11)
C30 C 0.1843(2) -0.0149(3) 0.40643(10)
H25 H 0.2343(2) -0.0049(3) 0.39772(10)
C31 C 0.2170(2) 0.0343(3) 0.55943(10)
C32 C 0.1734(2) 0.1266(3) 0.56307(12)
H26 H 0.1616(2) 0.1663(3) 0.53863(12)
C33 C 0.1474(2) 0.1601(5) 0.6027(2)
H27 H 0.1181(2) 0.2221(5) 0.6050(2)
C34 C 0.1649(4) 0.1019(6) 0.6383(2)
H28 H 0.1473(4) 0.1249(6) 0.6649(2)
C35 C 0.2074(4) 0.0110(5) 0.6360(2)
H29 H 0.2185(4) -0.0279(5) 0.6607(2)
C36 C 0.2345(3) -0.0234(4) 0.59595(12)
H30 H 0.2642(3) -0.0850(4) 0.59399(12)
N6C N 0.1837(2) -0.2112(2) 0.52157(10)
Sn2C Sn 0.246453(11) 0.48758(2) 0.497521(6)
loop_
_geom_bond_atom_site_label_1
_geom_bond_atom_site_label_2
_geom_bond_site_symmetry_1
_geom_bond_site_symmetry_2
Sn1 N1 1_555 1_555
N1 N2 1_555 1_555
N2 N3 1_555 1_555
N3 Sn1F 1_555 1_555
C1 Sn1 1_555 1_555
C2 H1 1_555 1_555
C3 C1 1_555 1_555
H2 C3 1_555 1_555
C4 C2 1_555 1_555
H3 C4 1_555 1_555
C5 C4 1_555 1_555
H4 C5 1_555 1_555
C6 C1 1_555 1_555
H5 C6 1_555 1_555
C7 Sn1 1_555 1_555
C8 C7 1_555 1_555
H6 C8 1_555 1_555
C9 C8 1_555 1_555
H7 C9 1_555 1_555
C10 C9 1_555 1_555
H8 C10 1_555 1_555
C11 C10 1_555 1_555
H9 C11 1_555 1_555
C12 C7 1_555 1_555
H10 C12 1_555 1_555
C13 Sn1 1_555 1_555
C14 C13 1_555 1_555
H11 C14 1_555 1_555
C15 C14 1_555 1_555
H12 C15 1_555 1_555
C16 C15 1_555 1_555
H13 C16 1_555 1_555
C17 C16 1_555 1_555
H14 C17 1_555 1_555
C18 C13 1_555 1_555
H15 C18 1_555 1_555
Sn2 N4 1_555 1_555
N4 N5 1_555 1_555
N5 N6 1_555 1_555
N6 Sn2C 1_555 1_555
C19 Sn2 1_555 1_555
C20 C19 1_555 1_555
H16 C20 1_555 1_555
C21 C20 1_555 1_555
H17 C21 1_555 1_555
C22 C21 1_555 1_555
H18 C22 1_555 1_555
C23 C22 1_555 1_555
H19 C23 1_555 1_555
C24 C19 1_555 1_555
H20 C24 1_555 1_555
C25 Sn2 1_555 1_555
C26 C25 1_555 1_555
H21 C26 1_555 1_555
C27 C26 1_555 1_555
H22 C27 1_555 1_555
C28 C27 1_555 1_555
H23 C28 1_555 1_555
C29 C28 1_555 1_555
H24 C29 1_555 1_555
C30 C25 1_555 1_555
H25 C30 1_555 1_555
C31 Sn2 1_555 1_555
C32 C31 1_555 1_555
H26 C32 1_555 1_555
C33 C32 1_555 1_555
H27 C33 1_555 1_555
C34 C33 1_555 1_555
H28 C34 1_555 1_555
C35 C34 1_555 1_555
H29 C35 1_555 1_555
C36 C31 1_555 1_555
H30 C36 1_555 1_555
N3F Sn1 1_555 1_555
N6C Sn2 1_555 1_555
C2 C3 1_555 1_555
C5 C6 1_555 1_555
C11 C12 1_555 1_555
C17 C18 1_555 1_555
C23 C24 1_555 1_555
C29 C30 1_555 1_555
C35 C36 1_555 1_555

#END
