
#######################################################################
#
#                 Cambridge Crystallographic Data Centre
#                                CCDC 
#
#######################################################################
#
# If this CIF has been generated from an entry in the Cambridge 
# Structural Database, then it will include bibliographic, chemical, 
# crystal, experimental, refinement or atomic coordinate data resulting 
# from the CCDC's data processing and validation procedures.
#
#######################################################################

data_CAKXET
_symmetry_cell_setting           monoclinic
_symmetry_space_group_name_H-M   'P 21/n'
_symmetry_Int_Tables_number      14
_space_group_name_Hall           '-P 2yn'
loop_
_symmetry_equiv_pos_site_id
_symmetry_equiv_pos_as_xyz
1 x,y,z
2 1/2-x,1/2+y,1/2-z
3 -x,-y,-z
4 1/2+x,1/2-y,1/2+z
_cell_length_a                   9.7465(3)
_cell_length_b                   15.9265(5)
_cell_length_c                   7.9809(7)
_cell_angle_alpha                90
_cell_angle_beta                 96.2159(3)
_cell_angle_gamma                90
_cell_volume                     1231.57
loop_
_atom_site_label
_atom_site_type_symbol
_atom_site_fract_x
_atom_site_fract_y
_atom_site_fract_z
Sm1 Sm 0.86490(2) 0.673270(14) 0.08019(3)
O1 O 0.7036(3) 0.57145(19) -0.0491(4)
O3 O 0.1111(3) 0.68864(18) 0.1500(4)
O4 O 0.9435(3) 0.53553(18) 0.1878(4)
O5 O 0.1866(3) 0.75943(19) 0.3824(4)
O6 O 0.8322(3) 0.81896(18) 0.1662(4)
O7 O 1.0247(3) 0.40992(18) 0.1248(4)
O8 O 0.8979(3) 0.6761(2) 0.3914(4)
N1 N 0.6210(3) 0.6706(2) 0.1895(4)
N2 N 0.4485(3) 0.7316(2) 0.3375(4)
C1 C 0.5237(4) 0.6317(3) 0.0865(5)
C2 C 0.2037(4) 0.7149(3) 0.2573(5)
C3 C 0.3844(4) 0.6409(3) 0.1049(5)
C4 C 0.3512(4) 0.6932(2) 0.2317(5)
O10 O 0.4872(3) 0.55754(18) -0.1711(4)
C5 C 0.5747(4) 0.5817(3) -0.0567(5)
C6 C 0.5795(4) 0.7188(3) 0.3111(5)
C7 C 0.9908(4) 0.4841(3) 0.0894(5)
H1 H 0.315038 0.612087 0.0314
H2 H 0.652930 0.748530 0.382630
Sm1_2 Sm 1.86490(2) 0.673270(14) 0.08019(3)
Sm1_3 Sm -0.13510(2) 0.673270(14) 0.08019(3)
Sm1C Sm 0.36490(2) 0.826730(14) 0.58019(3)
Sm1B Sm 1.13510(2) 0.326730(14) -0.08019(3)
Sm1C_2 Sm 1.36490(2) 0.826730(14) 0.58019(3)
O1_2 O 1.7036(3) 0.57145(19) -0.0491(4)
O3_2 O 1.1111(3) 0.68864(18) 0.1500(4)
O3_3 O 2.1111(3) 0.68864(18) 0.1500(4)
O4B O 1.0565(3) 0.46447(18) -0.1878(4)
O4_2 O 1.9435(3) 0.53553(18) 0.1878(4)
O5_2 O 1.1866(3) 0.75943(19) 0.3824(4)
O5C O 0.6866(3) 0.74057(19) -0.1176(4)
O5C_2 O 1.6866(3) 0.74057(19) -0.1176(4)
O6_2 O 1.8322(3) 0.81896(18) 0.1662(4)
O7B O 0.9753(3) 0.59008(18) -0.1248(4)
O7B_2 O 1.9753(3) 0.59008(18) -0.1248(4)
O8_2 O 1.8979(3) 0.6761(2) 0.3914(4)
N1_2 N 1.6210(3) 0.6706(2) 0.1895(4)
N2_2 N 1.4485(3) 0.7316(2) 0.3375(4)
N2C N 0.9485(3) 0.7684(2) -0.1625(4)
N2C_2 N 1.9485(3) 0.7684(2) -0.1625(4)
C1_2 C 1.5237(4) 0.6317(3) 0.0865(5)
C2_2 C 1.2037(4) 0.7149(3) 0.2573(5)
C3_2 C 1.3844(4) 0.6409(3) 0.1049(5)
C4_2 C 1.3512(4) 0.6932(2) 0.2317(5)
O10_2 O 1.4872(3) 0.55754(18) -0.1711(4)
C5_2 C 1.5747(4) 0.5817(3) -0.0567(5)
C6_2 C 1.5795(4) 0.7188(3) 0.3111(5)
C7B C 1.0092(4) 0.5159(3) -0.0894(5)
H1_2 H 1.315038 0.612087 0.0314
H2_2 H 1.652930 0.748530 0.382630
O2 O 0.6274(3) 0.9257(2) 0.0419(4)
O9 O 0.7571(4) 0.5706(2) 0.5741(5)
O11 O 0.50000 0.50000 0.50000
loop_
_geom_bond_atom_site_label_1
_geom_bond_atom_site_label_2
_geom_bond_site_symmetry_1
_geom_bond_site_symmetry_2
Sm1 O1 1_555 1_555
O1 C5 1_555 1_555
O3 C2 1_555 1_555
O4 Sm1 1_555 1_555
O5 C2 1_555 1_555
O6 Sm1 1_555 1_555
O7 C7 1_555 1_555
O8 Sm1 1_555 1_555
N1 Sm1 1_555 1_555
N2 C4 1_555 1_555
C1 N1 1_555 1_555
C2 C4 1_555 1_555
C3 C1 1_555 1_555
C4 C3 1_555 1_555
O10 C5 1_555 1_555
C5 C1 1_555 1_555
C6 N1 1_555 1_555
C7 O4 1_555 1_555
H1 C3 1_555 1_555
H2 C6 1_555 1_555
Sm1_2 O1_2 1_555 1_555
Sm1_3 O3 1_555 1_555
Sm1C O5 1_555 1_555
Sm1B O7 1_555 1_555
Sm1C_2 O5_2 1_555 1_555
O1_2 C5_2 1_555 1_555
O3_2 Sm1 1_555 1_555
O3_3 Sm1_2 1_555 1_555
O4B Sm1B 1_555 1_555
O4_2 Sm1_2 1_555 1_555
O5_2 C2_2 1_555 1_555
O5C Sm1 1_555 1_555
O5C_2 Sm1_2 1_555 1_555
O6_2 Sm1_2 1_555 1_555
O7B Sm1 1_555 1_555
O7B_2 Sm1_2 1_555 1_555
O8_2 Sm1_2 1_555 1_555
N1_2 Sm1_2 1_555 1_555
N2_2 Sm1C_2 1_555 1_555
N2C Sm1 1_555 1_555
N2C_2 Sm1_2 1_555 1_555
C1_2 N1_2 1_555 1_555
C2_2 O3_2 1_555 1_555
C3_2 C1_2 1_555 1_555
C4_2 N2_2 1_555 1_555
O10_2 C5_2 1_555 1_555
C5_2 C1_2 1_555 1_555
C6_2 N1_2 1_555 1_555
C7B C7 1_555 1_555
H1_2 C3_2 1_555 1_555
H2_2 C6_2 1_555 1_555
N2 C6 1_555 1_555
N2 Sm1C 1_555 1_555
O4B C7B 1_555 1_555
O7B C7B 1_555 1_555
N2_2 C6_2 1_555 1_555
C2_2 C4_2 1_555 1_555
C3_2 C4_2 1_555 1_555

#END
