
#######################################################################
#
#                 Cambridge Crystallographic Data Centre
#                                CCDC 
#
#######################################################################
#
# If this CIF has been generated from an entry in the Cambridge 
# Structural Database, then it will include bibliographic, chemical, 
# crystal, experimental, refinement or atomic coordinate data resulting 
# from the CCDC's data processing and validation procedures.
#
#######################################################################

data_CAKYIY
_symmetry_cell_setting           monoclinic
_symmetry_space_group_name_H-M   'P 21/n'
_symmetry_Int_Tables_number      14
_space_group_name_Hall           '-P 2yn'
loop_
_symmetry_equiv_pos_site_id
_symmetry_equiv_pos_as_xyz
1 x,y,z
2 1/2-x,1/2+y,1/2-z
3 -x,-y,-z
4 1/2+x,1/2-y,1/2+z
_cell_length_a                   9.5926(3)
_cell_length_b                   15.7938(4)
_cell_length_c                   7.9230(3)
_cell_angle_alpha                90
_cell_angle_beta                 96.759(3)
_cell_angle_gamma                90
_cell_volume                     1192.02
loop_
_atom_site_label
_atom_site_type_symbol
_atom_site_fract_x
_atom_site_fract_y
_atom_site_fract_z
Er1 Er 0.86722(2) 0.672596(13) 0.07183(3)
O1 O 0.7099(4) 0.5705(2) -0.0527(5)
O3 O 0.1088(4) 0.6896(2) 0.1449(5)
O4 O 0.9435(4) 0.5377(2) 0.1867(5)
O5 O 0.1872(4) 0.7633(2) 0.3758(4)
O6 O 0.8413(4) 0.8159(2) 0.1498(5)
O7 O 1.0224(4) 0.4099(2) 0.1278(4)
O8 O 0.8987(4) 0.6787(2) 0.3774(5)
N1 N 0.6264(5) 0.6733(2) 0.1827(5)
N2 N 0.4521(4) 0.7355(3) 0.3304(5)
C1 C 0.5274(5) 0.6322(3) 0.0813(6)
C2 C 0.2037(5) 0.7174(3) 0.2506(6)
C3 C 0.3858(5) 0.6409(3) 0.1001(6)
C4 C 0.3531(5) 0.6951(3) 0.2256(6)
O10 O 0.4892(4) 0.5555(2) -0.1753(4)
C5 C 0.5780(5) 0.5807(3) -0.0601(6)
C6 C 0.5850(5) 0.7226(3) 0.3030(6)
C7 C 0.9901(5) 0.4851(3) 0.0912(6)
H1 H 0.315038 0.612087 0.0314
H2 H 0.652930 0.748530 0.382630
Er1_2 Er 1.86722(2) 0.672596(13) 0.07183(3)
Er1_3 Er -0.13278(2) 0.672596(13) 0.07183(3)
Er1C Er 0.36722(2) 0.827404(13) 0.57183(3)
Er1B Er 1.13278(2) 0.327404(13) -0.07183(3)
Er1C_2 Er 1.36722(2) 0.827404(13) 0.57183(3)
O1_2 O 1.7099(4) 0.5705(2) -0.0527(5)
O3_2 O 1.1088(4) 0.6896(2) 0.1449(5)
O3_3 O 2.1088(4) 0.6896(2) 0.1449(5)
O4B O 1.0565(4) 0.4623(2) -0.1867(5)
O4_2 O 1.9435(4) 0.5377(2) 0.1867(5)
O5_2 O 1.1872(4) 0.7633(2) 0.3758(4)
O5C O 0.6872(4) 0.7367(2) -0.1242(4)
O5C_2 O 1.6872(4) 0.7367(2) -0.1242(4)
O6_2 O 1.8413(4) 0.8159(2) 0.1498(5)
O7B O 0.9776(4) 0.5901(2) -0.1278(4)
O7B_2 O 1.9776(4) 0.5901(2) -0.1278(4)
O8_2 O 1.8987(4) 0.6787(2) 0.3774(5)
N1_2 N 1.6264(5) 0.6733(2) 0.1827(5)
N2_2 N 1.4521(4) 0.7355(3) 0.3304(5)
N2C N 0.9521(4) 0.7645(3) -0.1696(5)
N2C_2 N 1.9521(4) 0.7645(3) -0.1696(5)
C1_2 C 1.5274(5) 0.6322(3) 0.0813(6)
C2_2 C 1.2037(5) 0.7174(3) 0.2506(6)
C3_2 C 1.3858(5) 0.6409(3) 0.1001(6)
C4_2 C 1.3531(5) 0.6951(3) 0.2256(6)
O10_2 O 1.4892(4) 0.5555(2) -0.1753(4)
C5_2 C 1.5780(5) 0.5807(3) -0.0601(6)
C6_2 C 1.5850(5) 0.7226(3) 0.3030(6)
C7B C 1.0099(5) 0.5149(3) -0.0912(6)
H1_2 H 1.315038 0.612087 0.0314
H2_2 H 1.652930 0.748530 0.382630
O2 O 0.6297(5) 0.9249(3) 0.0412(5)
O9 O 0.7547(6) 0.5744(3) 0.5664(6)
O11 O 0.50000 0.50000 0.50000
loop_
_geom_bond_atom_site_label_1
_geom_bond_atom_site_label_2
_geom_bond_site_symmetry_1
_geom_bond_site_symmetry_2
Er1 O1 1_555 1_555
O1 C5 1_555 1_555
O3 C2 1_555 1_555
O4 Er1 1_555 1_555
O5 C2 1_555 1_555
O6 Er1 1_555 1_555
O7 C7 1_555 1_555
O8 Er1 1_555 1_555
N1 Er1 1_555 1_555
N2 C4 1_555 1_555
C1 N1 1_555 1_555
C2 C4 1_555 1_555
C3 C1 1_555 1_555
C4 C3 1_555 1_555
O10 C5 1_555 1_555
C5 C1 1_555 1_555
C6 N1 1_555 1_555
C7 O4 1_555 1_555
H1 C3 1_555 1_555
H2 C6 1_555 1_555
Er1_2 O1_2 1_555 1_555
Er1_3 O3 1_555 1_555
Er1C O5 1_555 1_555
Er1B O7 1_555 1_555
Er1C_2 O5_2 1_555 1_555
O1_2 C5_2 1_555 1_555
O3_2 Er1 1_555 1_555
O3_3 Er1_2 1_555 1_555
O4B Er1B 1_555 1_555
O4_2 Er1_2 1_555 1_555
O5_2 C2_2 1_555 1_555
O5C Er1 1_555 1_555
O5C_2 Er1_2 1_555 1_555
O6_2 Er1_2 1_555 1_555
O7B Er1 1_555 1_555
O7B_2 Er1_2 1_555 1_555
O8_2 Er1_2 1_555 1_555
N1_2 Er1_2 1_555 1_555
N2_2 Er1C_2 1_555 1_555
N2C Er1 1_555 1_555
N2C_2 Er1_2 1_555 1_555
C1_2 N1_2 1_555 1_555
C2_2 O3_2 1_555 1_555
C3_2 C1_2 1_555 1_555
C4_2 N2_2 1_555 1_555
O10_2 C5_2 1_555 1_555
C5_2 C1_2 1_555 1_555
C6_2 N1_2 1_555 1_555
C7B C7 1_555 1_555
H1_2 C3_2 1_555 1_555
H2_2 C6_2 1_555 1_555
N2 C6 1_555 1_555
N2 Er1C 1_555 1_555
O4B C7B 1_555 1_555
O7B C7B 1_555 1_555
N2_2 C6_2 1_555 1_555
C2_2 C4_2 1_555 1_555
C3_2 C4_2 1_555 1_555

#END
