
#######################################################################
#
#                 Cambridge Crystallographic Data Centre
#                                CCDC 
#
#######################################################################
#
# If this CIF has been generated from an entry in the Cambridge 
# Structural Database, then it will include bibliographic, chemical, 
# crystal, experimental, refinement or atomic coordinate data resulting 
# from the CCDC's data processing and validation procedures.
#
#######################################################################

data_CALBEY
_symmetry_cell_setting           triclinic
_symmetry_space_group_name_H-M   'P -1'
_symmetry_Int_Tables_number      2
_space_group_name_Hall           '-P 1'
loop_
_symmetry_equiv_pos_site_id
_symmetry_equiv_pos_as_xyz
1 x,y,z
2 -x,-y,-z
_cell_length_a                   6.9034(2)
_cell_length_b                   11.3549(4)
_cell_length_c                   15.3196(6)
_cell_angle_alpha                70.713(4)
_cell_angle_beta                 83.131(3)
_cell_angle_gamma                89.141(3)
_cell_volume                     1124.95
loop_
_atom_site_label
_atom_site_type_symbol
_atom_site_fract_x
_atom_site_fract_y
_atom_site_fract_z
C1 C 0.0787(4) 0.0955(3) 0.60973(18)
C2 C 0.1404(3) 0.1959(2) 0.51649(17)
C3 C -0.0342(4) 0.2457(3) 0.46362(18)
H1 H -0.0974 0.1782 0.4511
H2 H -0.1282 0.2783 0.5015
C4 C 0.2380(4) 0.3033(2) 0.53668(18)
H3 H 0.1464 0.3356 0.5758
H4 H 0.3498 0.2729 0.5697
C5 C 0.2896(3) 0.1443(2) 0.45653(17)
H5 H 0.2308 0.0754 0.4440
H6 H 0.4010 0.1135 0.4898
C6 C 0.3038(4) 0.4077(2) 0.44481(19)
H7 H 0.3646 0.4766 0.4578
C7 C 0.1292(4) 0.4552(3) 0.3917(2)
H8 H 0.0357 0.4901 0.4283
H9 H 0.1722 0.5205 0.3335
C8 C 0.0326(4) 0.3487(3) 0.37193(18)
H10 H -0.0804 0.3796 0.3386
C9 C 0.1792(3) 0.2962(3) 0.31217(17)
H11 H 0.2199 0.3607 0.2532
H12 H 0.1183 0.2281 0.2994
C10 C 0.4520(4) 0.3551(2) 0.38605(18)
H13 H 0.5625 0.3240 0.4199
H14 H 0.4992 0.4207 0.3287
C11 C 0.3576(3) 0.2489(2) 0.36340(16)
C12 C 0.5037(3) 0.1963(2) 0.30560(16)
C13 C -0.0083(3) -0.1980(2) 0.90442(17)
C14 C -0.1581(3) -0.2521(2) 0.98866(16)
C15 C -0.3370(3) -0.3017(2) 0.96030(17)
H15 H -0.3931 -0.2347 0.9134
H16 H -0.2988 -0.3665 0.9338
C16 C -0.2211(3) -0.1476(2) 1.02924(17)
H17 H -0.2753 -0.0797 0.9823
H18 H -0.1084 -0.1153 1.0471
C17 C -0.0709(4) -0.3569(2) 1.06344(17)
H19 H -0.0277 -0.4225 1.0386
H20 H 0.0415 -0.3249 1.0818
C18 C -0.2242(4) -0.4104(2) 1.14871(18)
H21 H -0.1679 -0.4784 1.1960
C19 C -0.2848(4) -0.3066(2) 1.18863(18)
H22 H -0.3795 -0.3394 1.2435
H23 H -0.1718 -0.2752 1.2070
C20 C -0.4000(4) -0.4599(3) 1.11934(19)
H24 H -0.3603 -0.5257 1.0941
H25 H -0.4965 -0.4949 1.1731
C21 C -0.3746(3) -0.1996(2) 1.11479(17)
C22 C -0.4886(4) -0.3548(2) 1.04611(18)
H26 H -0.6027 -0.3871 1.0280
C23 C -0.5508(4) -0.2512(3) 1.08576(18)
H27 H -0.6082 -0.1846 1.0392
H28 H -0.6486 -0.2838 1.1393
C24 C -0.4308(4) -0.0980(2) 1.15667(17)
O1 O -0.0981(3) 0.08431(19) 0.64206(13)
O2 O 0.2074(3) 0.0308(2) 0.65109(14)
O3 O 0.6788(2) 0.22620(18) 0.29161(13)
O4 O 0.4473(2) 0.11580(16) 0.26990(12)
O5 O -0.0584(2) -0.11589(16) 0.82979(11)
O6 O 0.1645(2) -0.22741(18) 0.90433(12)
O7 O -0.6078(3) -0.08638(19) 1.18251(15)
O8 O -0.2981(3) -0.0323(2) 1.16616(16)
Mg1 Mg -0.24942(11) -0.01551(8) 0.75546(6)
Mg2 Mg 0.24806(11) -0.09054(8) 0.77317(6)
O3A O 0.3212(2) -0.22620(18) 0.70839(13)
O4A O -0.4473(2) -0.11580(16) 0.73010(12)
O4A_2 O 0.5527(2) -0.11580(16) 0.73010(12)
O7A O -0.3922(3) 0.08638(19) 0.81749(15)
O8A O 0.2981(3) 0.0323(2) 0.83384(16)
Mg1A Mg 0.24942(11) 0.01551(8) 0.24454(6)
Mg1A_2 Mg -0.75058(11) 0.01551(8) 1.24454(6)
Mg2A Mg 0.75194(11) 0.09054(8) 0.22683(6)
Mg2A_2 Mg -0.24806(11) 0.09054(8) 1.22683(6)
loop_
_geom_bond_atom_site_label_1
_geom_bond_atom_site_label_2
_geom_bond_site_symmetry_1
_geom_bond_site_symmetry_2
C1 C2 1_555 1_555
C2 C3 1_555 1_555
C3 H1 1_555 1_555
H2 C3 1_555 1_555
C4 C2 1_555 1_555
H3 C4 1_555 1_555
H4 C4 1_555 1_555
C5 C2 1_555 1_555
H5 C5 1_555 1_555
H6 C5 1_555 1_555
C6 C4 1_555 1_555
H7 C6 1_555 1_555
C7 C6 1_555 1_555
H8 C7 1_555 1_555
H9 C7 1_555 1_555
C8 C3 1_555 1_555
H10 C8 1_555 1_555
C9 C8 1_555 1_555
H11 C9 1_555 1_555
H12 C9 1_555 1_555
C10 C6 1_555 1_555
H13 C10 1_555 1_555
H14 C10 1_555 1_555
C11 C5 1_555 1_555
C12 C11 1_555 1_555
C13 C14 1_555 1_555
C14 C15 1_555 1_555
C15 H15 1_555 1_555
H16 C15 1_555 1_555
C16 C14 1_555 1_555
H17 C16 1_555 1_555
H18 C16 1_555 1_555
C17 C14 1_555 1_555
H19 C17 1_555 1_555
H20 C17 1_555 1_555
C18 C17 1_555 1_555
H21 C18 1_555 1_555
C19 C18 1_555 1_555
H22 C19 1_555 1_555
H23 C19 1_555 1_555
C20 C18 1_555 1_555
H24 C20 1_555 1_555
H25 C20 1_555 1_555
C21 C16 1_555 1_555
C22 C15 1_555 1_555
H26 C22 1_555 1_555
C23 C21 1_555 1_555
H27 C23 1_555 1_555
H28 C23 1_555 1_555
C24 C21 1_555 1_555
O1 C1 1_555 1_555
O2 C1 1_555 1_555
O3 C12 1_555 1_555
O4 C12 1_555 1_555
O5 C13 1_555 1_555
O6 C13 1_555 1_555
O7 C24 1_555 1_555
O8 C24 1_555 1_555
Mg1 O1 1_555 1_555
Mg2 O2 1_555 1_555
O3A Mg2 1_555 1_555
O4A Mg1 1_555 1_555
O4A_2 Mg2 1_555 1_555
O7A Mg1 1_555 1_555
O8A Mg2 1_555 1_555
Mg1A O4 1_555 1_555
Mg1A_2 O7 1_555 1_555
Mg2A O3 1_555 1_555
Mg2A_2 O8 1_555 1_555
C7 C8 1_555 1_555
C9 C11 1_555 1_555
C10 C11 1_555 1_555
C19 C21 1_555 1_555
C20 C22 1_555 1_555
C22 C23 1_555 1_555
O4 Mg2A 1_555 1_555
O5 Mg1 1_555 1_555
O5 Mg2 1_555 1_555
O6 Mg2 1_555 1_555

#END
