
#######################################################################
#
#                 Cambridge Crystallographic Data Centre
#                                CCDC 
#
#######################################################################
#
# If this CIF has been generated from an entry in the Cambridge 
# Structural Database, then it will include bibliographic, chemical, 
# crystal, experimental, refinement or atomic coordinate data resulting 
# from the CCDC's data processing and validation procedures.
#
#######################################################################

data_CALDAW
_symmetry_cell_setting           tetragonal
_symmetry_space_group_name_H-M   'P -4 21 c'
_symmetry_Int_Tables_number      114
_space_group_name_Hall           'P -4 2n'
loop_
_symmetry_equiv_pos_site_id
_symmetry_equiv_pos_as_xyz
1 x,y,z
2 -x,-y,z
3 y,-x,-z
4 -y,x,-z
5 1/2-x,1/2+y,1/2-z
6 1/2+x,1/2-y,1/2-z
7 1/2-y,1/2-x,1/2+z
8 1/2+y,1/2+x,1/2+z
_cell_length_a                   12.57380(10)
_cell_length_b                   12.57380(10)
_cell_length_c                   19.5895(3)
_cell_angle_alpha                90
_cell_angle_beta                 90
_cell_angle_gamma                90
_cell_volume                     3097.11
loop_
_atom_site_label
_atom_site_type_symbol
_atom_site_fract_x
_atom_site_fract_y
_atom_site_fract_z
Co1 Co 0.43328(4) 0.39047(4) 0.55493(3)
O1 O 0.5910(2) 0.4417(2) 0.55095(14)
C1 C 0.6707(3) 0.3870(3) 0.5883(2)
C2 C 0.7240(3) 0.3037(3) 0.5415(2)
O2 O 0.6967(2) 0.2990(2) 0.47954(14)
O3 O 0.7891(3) 0.2410(3) 0.56827(15)
C3 C 0.7557(3) 0.4652(3) 0.6125(2)
H1 H 0.7840 0.5045 0.5726
H2 H 0.8152 0.4252 0.6333
C4 C 0.7115(4) 0.5447(4) 0.6647(2)
O4 O 0.6366(2) 0.6046(2) 0.64869(16)
O5 O 0.7518(3) 0.5467(4) 0.7231(2)
C5 C 0.6226(3) 0.3269(3) 0.6496(2)
H3 H 0.6805 0.3054 0.6810
H4 H 0.5744 0.3752 0.6749
C6 C 0.5616(3) 0.2295(3) 0.6279(2)
O6 O 0.4933(2) 0.2400(2) 0.57999(14)
O7 O 0.5827(2) 0.1428(2) 0.65632(17)
Co2 Co 0.5000 0.0000 0.65049(4)
O8 O 0.3958(3) 0.0553(3) 0.57394(18)
H5 H 0.4191 0.1212 0.5556
H6 H 0.3903 0.0117 0.5339
O9 O 0.4055(3) 0.0674(3) 0.72630(19)
Co1A Co 0.56672(4) -0.39047(4) 0.55493(3)
Co1A_2 Co 0.56672(4) 0.60953(4) 0.55493(3)
Co1_2 Co 0.43328(4) -0.60953(4) 0.55493(3)
Co1C Co 0.60953(4) 0.43328(4) 0.44507(3)
Co1B Co 0.39047(4) -0.43328(4) 0.44507(3)
Co1B_2 Co 0.39047(4) 0.56672(4) 0.44507(3)
O1A O 0.4090(2) -0.4417(2) 0.55095(14)
O1A_2 O 0.4090(2) 0.5583(2) 0.55095(14)
O1B O 0.4417(2) 0.4090(2) 0.44905(14)
O1_2 O 0.5910(2) -0.5583(2) 0.55095(14)
O1C O 0.5583(2) -0.4090(2) 0.44905(14)
O1C_2 O 0.5583(2) 0.5910(2) 0.44905(14)
O1B_2 O 0.4417(2) -0.5910(2) 0.44905(14)
C1A C 0.3293(3) -0.3870(3) 0.5883(2)
C1A_2 C 0.3293(3) 0.6130(3) 0.5883(2)
C1B C 0.3870(3) 0.3293(3) 0.4117(2)
C2A C 0.2760(3) -0.3037(3) 0.5415(2)
C2A_2 C 0.2760(3) 0.6963(3) 0.5415(2)
C2B C 0.3037(3) 0.2760(3) 0.4585(2)
O2A O 0.3033(2) -0.2990(2) 0.47954(14)
O2A_2 O 0.3033(2) 0.7010(2) 0.47954(14)
O2B O 0.2990(2) 0.3033(2) 0.52046(14)
O2C O 0.7010(2) -0.3033(2) 0.52046(14)
O2C_2 O 0.7010(2) 0.6967(2) 0.52046(14)
O2B_2 O 0.2990(2) -0.6967(2) 0.52046(14)
O3A O 0.2109(3) -0.2410(3) 0.56827(15)
O3A_2 O 0.2109(3) 0.7590(3) 0.56827(15)
O3B O 0.2410(3) 0.2109(3) 0.43173(15)
C3A C 0.2443(3) -0.4652(3) 0.6125(2)
C3A_2 C 0.2443(3) 0.5348(3) 0.6125(2)
C3B C 0.4652(3) 0.2443(3) 0.3875(2)
H1A H 0.2160 -0.5045 0.5726
H1A_2 H 0.2160 0.4955 0.5726
H1B H 0.5045 0.2160 0.4274
H2A H 0.1848 -0.4252 0.6333
H2A_2 H 0.1848 0.5748 0.6333
H2B H 0.4252 0.1848 0.3667
C4A C 0.2885(4) -0.5447(4) 0.6647(2)
C4A_2 C 0.2885(4) 0.4553(4) 0.6647(2)
C4B C 0.5447(4) 0.2885(4) 0.3353(2)
O4A O 0.3634(2) -0.6046(2) 0.64869(16)
O4A_2 O 0.3634(2) 0.3954(2) 0.64869(16)
O4B O 0.6046(2) 0.3634(2) 0.35131(16)
O4_2 O 0.6366(2) -0.3954(2) 0.64869(16)
O5A O 0.2482(3) -0.5467(4) 0.7231(2)
O5A_2 O 0.2482(3) 0.4533(4) 0.7231(2)
O5B O 0.5467(4) 0.2482(3) 0.2769(2)
C5A C 0.3774(3) -0.3269(3) 0.6496(2)
C5A_2 C 0.3774(3) 0.6731(3) 0.6496(2)
C5B C 0.3269(3) 0.3774(3) 0.3504(2)
H3A H 0.3195 -0.3054 0.6810
H3A_2 H 0.3195 0.6946 0.6810
H3B H 0.3054 0.3195 0.3190
H4A H 0.4256 -0.3752 0.6749
H4A_2 H 0.4256 0.6248 0.6749
H4B H 0.3752 0.4256 0.3251
C6A C 0.4384(3) -0.2295(3) 0.6279(2)
C6A_2 C 0.4384(3) 0.7705(3) 0.6279(2)
C6B C 0.2295(3) 0.4384(3) 0.3721(2)
O6A O 0.5067(2) -0.2400(2) 0.57999(14)
O6A_2 O 0.5067(2) 0.7600(2) 0.57999(14)
O6B O 0.2400(2) 0.5067(2) 0.42001(14)
O6_2 O 0.4933(2) -0.7600(2) 0.57999(14)
O7A O 0.4173(2) -0.1428(2) 0.65632(17)
O7A_2 O 0.4173(2) 0.8572(2) 0.65632(17)
O7B O 0.1428(2) 0.4173(2) 0.34368(17)
O7_2 O 0.5827(2) 1.1428(2) 0.65632(17)
Co2_2 Co 0.5000 1.0000 0.65049(4)
Co2B Co 0.0000 0.5000 0.34951(4)
O8A O 0.6042(3) -0.0553(3) 0.57394(18)
O8A_2 O 0.6042(3) 0.9447(3) 0.57394(18)
O8_2 O 0.3958(3) 1.0553(3) 0.57394(18)
H5A H 0.5809 -0.1212 0.5556
H5A_2 H 0.5809 0.8788 0.5556
H5_2 H 0.4191 1.1212 0.5556
H6A H 0.6097 -0.0117 0.5339
H6A_2 H 0.6097 0.9883 0.5339
H6_2 H 0.3903 1.0117 0.5339
O9A O 0.5945(3) -0.0674(3) 0.72630(19)
O9A_2 O 0.5945(3) 0.9326(3) 0.72630(19)
O9_2 O 0.4055(3) 1.0674(3) 0.72630(19)
Co3 Co 0.0000 0.0000 0.5000
O10 O 0.1570(2) 0.0513(2) 0.50292(17)
H7 H 0.1912 0.1000 0.4841
H8 H 0.2027 0.0033 0.4977
O11 O 0.0000 0.0000 0.3925(2)
H9 H 0.0561 0.0371 0.3653
O10A O -0.1570(2) -0.0513(2) 0.50292(17)
O10B O 0.0513(2) -0.1570(2) 0.49708(17)
O10C O -0.0513(2) 0.1570(2) 0.49708(17)
H7A H -0.1912 -0.1000 0.4841
H7B H 0.1000 -0.1912 0.5159
H7C H -0.1000 0.1912 0.5159
H8A H -0.2027 -0.0033 0.4977
H8B H 0.0033 -0.2027 0.5023
H8C H -0.0033 0.2027 0.5023
O11B O 0.0000 0.0000 0.6075(2)
H9A H -0.0561 -0.0371 0.3653
H9B H 0.0371 -0.0561 0.6347
H9C H -0.0371 0.0561 0.6347
Cs1 Cs 0.22000(5) 0.17011(5) 0.65067(3)
O12 O 0.0710(3) 0.3296(3) 0.53776(17)
H10 H 0.0520 0.3369 0.5822
H11 H 0.1432 0.3294 0.5269
O13 O 0.0222(3) 0.3013(3) 0.67913(17)
H12 H -0.0233 0.2514 0.6786
O14 O 0.8722(4) 0.1384(3) 0.6775(2)
H13 H 0.8197 0.1757 0.6493
H14 H 0.8353 0.1284 0.7172
loop_
_geom_bond_atom_site_label_1
_geom_bond_atom_site_label_2
_geom_bond_site_symmetry_1
_geom_bond_site_symmetry_2
Co1 O1 1_555 1_555
O1 C1 1_555 1_555
C1 C2 1_555 1_555
C2 O2 1_555 1_555
O2 Co1C 1_555 1_555
O3 C2 1_555 1_555
C3 C1 1_555 1_555
H1 C3 1_555 1_555
H2 C3 1_555 1_555
C4 C3 1_555 1_555
O4 C4 1_555 1_555
O5 C4 1_555 1_555
C5 C1 1_555 1_555
H3 C5 1_555 1_555
H4 C5 1_555 1_555
C6 C5 1_555 1_555
O6 Co1 1_555 1_555
O7 C6 1_555 1_555
Co2 O7 1_555 1_555
O8 Co2 1_555 1_555
H5 O8 1_555 1_555
H6 O8 1_555 1_555
O9 Co2 1_555 1_555
Co3 O10 1_555 1_555
O10 H7 1_555 1_555
H8 O10 1_555 1_555
O11 Co3 1_555 1_555
H9 O11 1_555 1_555
O12 H10 1_555 1_555
H11 O12 1_555 1_555
O13 H12 1_555 1_555
O14 H13 1_555 1_555
H14 O14 1_555 1_555
Co1A O1A 1_555 1_555
Co1A_2 O1 1_555 1_555
Co1_2 O1A 1_555 1_555
Co1C O1 1_555 1_555
Co1B O1A 1_555 1_555
Co1B_2 O1A_2 1_555 1_555
O1A C1A 1_555 1_555
O1A_2 Co1 1_555 1_555
O1B Co1 1_555 1_555
O1_2 Co1A 1_555 1_555
O1C Co1A 1_555 1_555
O1C_2 Co1A_2 1_555 1_555
O1B_2 Co1_2 1_555 1_555
C1A C2A 1_555 1_555
C1A_2 O1A_2 1_555 1_555
C1B O1B 1_555 1_555
C2A O2A 1_555 1_555
C2A_2 C1A_2 1_555 1_555
C2B C1B 1_555 1_555
O2A Co1B 1_555 1_555
O2A_2 Co1B_2 1_555 1_555
O2B Co1 1_555 1_555
O2C Co1A 1_555 1_555
O2C_2 Co1A_2 1_555 1_555
O2B_2 Co1_2 1_555 1_555
O3A C2A 1_555 1_555
O3A_2 C2A_2 1_555 1_555
O3B C2B 1_555 1_555
C3A C1A 1_555 1_555
C3A_2 C1A_2 1_555 1_555
C3B C1B 1_555 1_555
H1A C3A 1_555 1_555
H1A_2 C3A_2 1_555 1_555
H1B C3B 1_555 1_555
H2A C3A 1_555 1_555
H2A_2 C3A_2 1_555 1_555
H2B C3B 1_555 1_555
C4A C3A 1_555 1_555
C4A_2 C3A_2 1_555 1_555
C4B C3B 1_555 1_555
O4A Co1_2 1_555 1_555
O4A_2 Co1 1_555 1_555
O4B Co1C 1_555 1_555
O4_2 Co1A 1_555 1_555
O5A C4A 1_555 1_555
O5A_2 C4A_2 1_555 1_555
O5B C4B 1_555 1_555
C5A C1A 1_555 1_555
C5A_2 C1A_2 1_555 1_555
C5B C1B 1_555 1_555
H3A C5A 1_555 1_555
H3A_2 C5A_2 1_555 1_555
H3B C5B 1_555 1_555
H4A C5A 1_555 1_555
H4A_2 C5A_2 1_555 1_555
H4B C5B 1_555 1_555
C6A C5A 1_555 1_555
C6A_2 C5A_2 1_555 1_555
C6B C5B 1_555 1_555
O6A Co1A 1_555 1_555
O6A_2 Co1A_2 1_555 1_555
O6B Co1B_2 1_555 1_555
O6_2 Co1_2 1_555 1_555
O7A Co2 1_555 1_555
O7A_2 C6A_2 1_555 1_555
O7B C6B 1_555 1_555
O7_2 Co2_2 1_555 1_555
Co2_2 O7A_2 1_555 1_555
Co2B O7B 1_555 1_555
O8A Co2 1_555 1_555
O8A_2 Co2_2 1_555 1_555
O8_2 Co2_2 1_555 1_555
H5A O8A 1_555 1_555
H5A_2 O8A_2 1_555 1_555
H5_2 O8_2 1_555 1_555
H6A O8A 1_555 1_555
H6A_2 O8A_2 1_555 1_555
H6_2 O8_2 1_555 1_555
O9A Co2 1_555 1_555
O9A_2 Co2_2 1_555 1_555
O9_2 Co2_2 1_555 1_555
O10A Co3 1_555 1_555
O10B Co3 1_555 1_555
O10C Co3 1_555 1_555
H7A O10A 1_555 1_555
H7B O10B 1_555 1_555
H7C O10C 1_555 1_555
H8A O10A 1_555 1_555
H8B O10B 1_555 1_555
H8C O10C 1_555 1_555
O11B Co3 1_555 1_555
H9A O11 1_555 1_555
H9B O11B 1_555 1_555
H9C O11B 1_555 1_555
O4 Co1A_2 1_555 1_555
C6 O6 1_555 1_555
Co1A_2 O1A_2 1_555 1_555
Co1_2 O1_2 1_555 1_555
Co1C O1B 1_555 1_555
Co1C O1C_2 1_555 1_555
Co1B O1C 1_555 1_555
Co1B O1B_2 1_555 1_555
Co1B_2 O1B 1_555 1_555
Co1B_2 O1C_2 1_555 1_555
C2A_2 O2A_2 1_555 1_555
C2B O2B 1_555 1_555
C4A O4A 1_555 1_555
C4A_2 O4A_2 1_555 1_555
C4B O4B 1_555 1_555
C6A O6A 1_555 1_555
C6A O7A 1_555 1_555
C6A_2 O6A_2 1_555 1_555
C6B O6B 1_555 1_555

#END
