
#######################################################################
#
#                 Cambridge Crystallographic Data Centre
#                                CCDC 
#
#######################################################################
#
# If this CIF has been generated from an entry in the Cambridge 
# Structural Database, then it will include bibliographic, chemical, 
# crystal, experimental, refinement or atomic coordinate data resulting 
# from the CCDC's data processing and validation procedures.
#
#######################################################################

data_CALXOE
_symmetry_cell_setting           monoclinic
_symmetry_space_group_name_H-M   'P 21/c'
_symmetry_Int_Tables_number      14
_space_group_name_Hall           '-P 2ybc'
loop_
_symmetry_equiv_pos_site_id
_symmetry_equiv_pos_as_xyz
1 x,y,z
2 -x,1/2+y,1/2-z
3 -x,-y,-z
4 x,1/2-y,1/2+z
_cell_length_a                   7.9843(9)
_cell_length_b                   6.5815(4)
_cell_length_c                   19.995(2)
_cell_angle_alpha                90
_cell_angle_beta                 97.277(5)
_cell_angle_gamma                90
_cell_volume                     1042.25
loop_
_atom_site_label
_atom_site_type_symbol
_atom_site_fract_x
_atom_site_fract_y
_atom_site_fract_z
Cu1 Cu 0.14979(10) 0.35085(11) 0.24011(4)
S1 S 0.11638(15) 0.68542(17) 0.27543(5)
C1 C 0.1219(6) 0.6622(7) 0.3607(2)
N1 N 0.0190(6) 0.7723(8) 0.3949(2)
H1 H 0.0292 0.7166 0.4328
N2 N -0.1319(6) 0.8515(7) 0.3630(2)
H2 H -0.1727 0.9773 0.3725
H3 H -0.2278 0.7692 0.3692
N3 N 0.2330(6) 0.5436(8) 0.3971(2)
H4 H 0.2630 0.5764 0.4279
C2 C 0.3622(7) 0.4315(10) 0.3701(3)
H5 H 0.4443 0.3861 0.4070
H6 H 0.4198 0.5211 0.3420
C3 C 0.2977(7) 0.2507(9) 0.3292(3)
H7 H 0.2041 0.1827 0.3414
C4 C 0.3670(8) 0.1813(9) 0.2762(4)
H8 H 0.4608 0.2462 0.2628
H9 H 0.3215 0.0681 0.2527
Cu1A Cu -0.14979(10) 0.85085(11) 0.25989(4)
S1A S -0.11638(15) 0.18542(17) 0.22457(5)
N2A N 0.1319(6) 0.3515(7) 0.1370(2)
H2A H 0.1727 0.4773 0.1275
H3A H 0.2278 0.2692 0.1308
N4 N 0.1811(7) 0.6519(8) 0.5707(2)
O1 O 0.2329(7) 0.5025(8) 0.5411(2)
O2 O 0.2080(8) 0.6602(9) 0.6325(2)
O3 O 0.1006(9) 0.7894(8) 0.5395(2)
O4 O 0.5202(14) -0.0679(19) 0.4618(8)
H10 H 0.4935 0.0522 0.4581
H11 H 0.5261 -0.1260 0.4168
loop_
_geom_bond_atom_site_label_1
_geom_bond_atom_site_label_2
_geom_bond_site_symmetry_1
_geom_bond_site_symmetry_2
Cu1 S1 1_555 1_555
S1 C1 1_555 1_555
C1 N1 1_555 1_555
N1 H1 1_555 1_555
N2 N1 1_555 1_555
H2 N2 1_555 1_555
H3 N2 1_555 1_555
N3 C1 1_555 1_555
H4 N3 1_555 1_555
C2 N3 1_555 1_555
H5 C2 1_555 1_555
H6 C2 1_555 1_555
C3 Cu1 1_555 1_555
H7 C3 1_555 1_555
C4 Cu1 1_555 1_555
H8 C4 1_555 1_555
H9 C4 1_555 1_555
N4 O1 1_555 1_555
O2 N4 1_555 1_555
O3 N4 1_555 1_555
O4 H10 1_555 1_555
H11 O4 1_555 1_555
Cu1A S1 1_555 1_555
S1A Cu1 1_555 1_555
N2A Cu1 1_555 1_555
H2A N2A 1_555 1_555
H3A N2A 1_555 1_555
N2 Cu1A 1_555 1_555
C2 C3 1_555 1_555
C3 C4 1_555 1_555

#END
