
#######################################################################
#
#                 Cambridge Crystallographic Data Centre
#                                CCDC 
#
#######################################################################
#
# If this CIF has been generated from an entry in the Cambridge 
# Structural Database, then it will include bibliographic, chemical, 
# crystal, experimental, refinement or atomic coordinate data resulting 
# from the CCDC's data processing and validation procedures.
#
#######################################################################

data_CANHUW
_symmetry_cell_setting           monoclinic
_symmetry_space_group_name_H-M   'P 21/c'
_symmetry_Int_Tables_number      14
_space_group_name_Hall           '-P 2ybc'
loop_
_symmetry_equiv_pos_site_id
_symmetry_equiv_pos_as_xyz
1 x,y,z
2 -x,1/2+y,1/2-z
3 -x,-y,-z
4 x,1/2-y,1/2+z
_cell_length_a                   7.8656(3)
_cell_length_b                   21.1320(7)
_cell_length_c                   9.4593(4)
_cell_angle_alpha                90
_cell_angle_beta                 112.887(2)
_cell_angle_gamma                90
_cell_volume                     1448.51
loop_
_atom_site_label
_atom_site_type_symbol
_atom_site_fract_x
_atom_site_fract_y
_atom_site_fract_z
Mo1 Mo 0.02534(13) 0.68247(5) 0.24521(11)
Mo2 Mo 0.33731(15) 0.76966(6) 0.11224(13)
Mo3 Mo -0.41839(16) 0.66895(6) -0.02931(14)
O1 O 0.1831(11) 0.7296(4) 0.1528(9)
O2 O -0.0900(11) 0.7710(3) 0.2878(8)
O3 O 0.2316(10) 0.6864(3) 0.4597(8)
O4 O 0.4721(10) 0.8192(4) 0.2679(8)
O5 O 0.4973(14) 0.7196(5) 0.0790(10)
O6 O -0.1914(9) 0.6849(3) 0.0308(7)
O7 O -0.4472(11) 0.5962(3) 0.0082(9)
N1 N -0.1334(9) 0.6256(3) 0.3344(8)
N2 N 0.1055(9) 0.5912(3) 0.2076(8)
C1 C -0.2486(13) 0.6428(5) 0.3988(11)
H1 H -0.2583 0.6856 0.4177
C2 C -0.3563(14) 0.5997(6) 0.4396(13)
H2 H -0.4377 0.6138 0.4825
C3 C -0.3404(14) 0.5369(6) 0.4157(13)
H3 H -0.4113 0.5078 0.4426
C4 C -0.2169(12) 0.5154(4) 0.3501(10)
C5 C -0.1912(15) 0.4515(5) 0.3235(12)
H4 H -0.2602 0.4208 0.3475
C6 C -0.0678(16) 0.4337(4) 0.2636(12)
H5 H -0.0528 0.3910 0.2473
C7 C 0.0401(12) 0.4803(4) 0.2251(10)
C8 C 0.1730(14) 0.4648(5) 0.1627(12)
H6 H 0.1965 0.4228 0.1474
C9 C 0.2642(15) 0.5119(5) 0.1262(12)
H7 H 0.3518 0.5024 0.0859
C10 C 0.2275(12) 0.5752(4) 0.1487(10)
H8 H 0.2907 0.6070 0.1215
C11 C 0.0123(11) 0.5442(4) 0.2458(9)
C12 C -0.1156(11) 0.5624(4) 0.3115(9)
Mo2C Mo 0.33731(15) 0.73034(6) 0.61224(13)
Mo3C Mo 0.58161(16) 0.83105(6) 0.47069(14)
Mo3_2 Mo 0.58161(16) 0.66895(6) -0.02931(14)
O3C O 0.2316(10) 0.8136(3) -0.0403(8)
O4C O -0.5279(10) 0.6808(4) -0.2321(8)
O5_2 O -0.5027(14) 0.7196(5) 0.0790(10)
loop_
_geom_bond_atom_site_label_1
_geom_bond_atom_site_label_2
_geom_bond_site_symmetry_1
_geom_bond_site_symmetry_2
Mo1 O1 1_555 1_555
Mo2 O1 1_555 1_555
Mo3 O6 1_555 1_555
O2 Mo1 1_555 1_555
O3 Mo1 1_555 1_555
O4 Mo2 1_555 1_555
O5 Mo2 1_555 1_555
O6 Mo1 1_555 1_555
O7 Mo3 1_555 1_555
N1 Mo1 1_555 1_555
N2 Mo1 1_555 1_555
C1 N1 1_555 1_555
H1 C1 1_555 1_555
C2 C1 1_555 1_555
H2 C2 1_555 1_555
C3 C2 1_555 1_555
H3 C3 1_555 1_555
C4 C3 1_555 1_555
C5 C4 1_555 1_555
H4 C5 1_555 1_555
C6 C5 1_555 1_555
H5 C6 1_555 1_555
C7 C6 1_555 1_555
C8 C7 1_555 1_555
H6 C8 1_555 1_555
C9 C8 1_555 1_555
H7 C9 1_555 1_555
C10 N2 1_555 1_555
H8 C10 1_555 1_555
C11 N2 1_555 1_555
C12 N1 1_555 1_555
Mo2C O3 1_555 1_555
Mo3C O4 1_555 1_555
Mo3_2 O5 1_555 1_555
O3C Mo2 1_555 1_555
O4C Mo3 1_555 1_555
O5_2 Mo3 1_555 1_555
C4 C12 1_555 1_555
C7 C11 1_555 1_555
C9 C10 1_555 1_555
C11 C12 1_555 1_555

#END
