
#######################################################################
#
#                 Cambridge Crystallographic Data Centre
#                                CCDC 
#
#######################################################################
#
# If this CIF has been generated from an entry in the Cambridge 
# Structural Database, then it will include bibliographic, chemical, 
# crystal, experimental, refinement or atomic coordinate data resulting 
# from the CCDC's data processing and validation procedures.
#
#######################################################################

data_CANQEO
_symmetry_cell_setting           monoclinic
_symmetry_space_group_name_H-M   'P 21/n'
_symmetry_Int_Tables_number      14
_space_group_name_Hall           '-P 2yn'
loop_
_symmetry_equiv_pos_site_id
_symmetry_equiv_pos_as_xyz
1 x,y,z
2 1/2-x,1/2+y,1/2-z
3 -x,-y,-z
4 1/2+x,1/2-y,1/2+z
_cell_length_a                   8.864(2)
_cell_length_b                   16.191(4)
_cell_length_c                   10.443(3)
_cell_angle_alpha                90
_cell_angle_beta                 114.688(4)
_cell_angle_gamma                90
_cell_volume                     1361.76
loop_
_atom_site_label
_atom_site_type_symbol
_atom_site_fract_x
_atom_site_fract_y
_atom_site_fract_z
Zn1 Zn 0.18318(6) 0.44319(3) 0.52227(6)
Cl1 Cl 0.43133(14) 0.46810(8) 0.70613(14)
N1 N 0.1124(4) 0.5492(2) 0.4156(4)
N2 N -0.0164(4) 0.5975(2) 0.4121(4)
C1 C 0.1952(6) 0.5913(3) 0.3551(5)
H1 H 0.2911 0.5718 0.3456
C2 C 0.1203(5) 0.6685(3) 0.3075(5)
C3 C -0.0127(6) 0.6683(3) 0.3467(6)
H2 H -0.0897 0.7123 0.3293
N3 N 0.2666(5) 0.8563(2) 0.0944(4)
C4 C 0.1713(6) 0.7331(3) 0.2357(5)
C5 C 0.0720(7) 0.8012(4) 0.1777(7)
H3 H -0.0302 0.8073 0.1859
C6 C 0.1221(7) 0.8607(3) 0.1072(7)
H4 H 0.0509 0.9064 0.0663
C7 C 0.3671(6) 0.7930(3) 0.1588(6)
H5 H 0.4733 0.7908 0.1569
C8 C 0.3241(6) 0.7307(3) 0.2279(6)
H6 H 0.3988 0.6865 0.2699
Zn1B Zn -0.18318(6) 0.55681(3) 0.47773(6)
Zn1A Zn 0.31682(6) 0.94319(3) -0.02227(6)
N2B N 0.0164(4) 0.4025(2) 0.5879(4)
N3A N 0.2334(5) 0.3563(2) 0.4056(4)
O1 O 0.2491(7) 0.6309(3) 0.7717(5)
H7 H 0.3086 0.5961 0.7546
C9 C 0.2612(13) 0.6186(7) 0.9088(11)
H8 H 0.2199 0.6689 0.9375
H9 H 0.3801 0.6127 0.9731
C10 C 0.1688(14) 0.5449(8) 0.9301(11)
H10 H 0.2164 0.4939 0.9123
H11 H 0.0514 0.5485 0.8646
H12 H 0.1789 0.5448 1.0272
loop_
_geom_bond_atom_site_label_1
_geom_bond_atom_site_label_2
_geom_bond_site_symmetry_1
_geom_bond_site_symmetry_2
Zn1 Cl1 1_555 1_555
N1 Zn1 1_555 1_555
N2 N1 1_555 1_555
C1 N1 1_555 1_555
H1 C1 1_555 1_555
C2 C1 1_555 1_555
C3 N2 1_555 1_555
H2 C3 1_555 1_555
N3 C6 1_555 1_555
C4 C2 1_555 1_555
C5 C4 1_555 1_555
H3 C5 1_555 1_555
C6 C5 1_555 1_555
H4 C6 1_555 1_555
C7 N3 1_555 1_555
H5 C7 1_555 1_555
C8 C4 1_555 1_555
H6 C8 1_555 1_555
O1 H7 1_555 1_555
C9 O1 1_555 1_555
H8 C9 1_555 1_555
H9 C9 1_555 1_555
C10 C9 1_555 1_555
H10 C10 1_555 1_555
H11 C10 1_555 1_555
H12 C10 1_555 1_555
Zn1B N2 1_555 1_555
Zn1A N3 1_555 1_555
N2B Zn1 1_555 1_555
N3A Zn1 1_555 1_555
C2 C3 1_555 1_555
C7 C8 1_555 1_555

#END
