
#######################################################################
#
#                 Cambridge Crystallographic Data Centre
#                                CCDC 
#
#######################################################################
#
# If this CIF has been generated from an entry in the Cambridge 
# Structural Database, then it will include bibliographic, chemical, 
# crystal, experimental, refinement or atomic coordinate data resulting 
# from the CCDC's data processing and validation procedures.
#
#######################################################################

data_CANTOB
_symmetry_cell_setting           orthorhombic
_symmetry_space_group_name_H-M   'C 2 2 21'
_symmetry_Int_Tables_number      20
_space_group_name_Hall           'C 2n 2'
loop_
_symmetry_equiv_pos_site_id
_symmetry_equiv_pos_as_xyz
1 x,y,z
2 -x,-y,1/2+z
3 -x,y,1/2-z
4 x,-y,-z
5 1/2+x,1/2+y,z
6 1/2-x,1/2-y,1/2+z
7 1/2-x,1/2+y,1/2-z
8 1/2+x,1/2-y,-z
_cell_length_a                   11.7286(3)
_cell_length_b                   17.4235(3)
_cell_length_c                   25.2688(6)
_cell_angle_alpha                90
_cell_angle_beta                 90
_cell_angle_gamma                90
_cell_volume                     5163.76
loop_
_atom_site_label
_atom_site_type_symbol
_atom_site_fract_x
_atom_site_fract_y
_atom_site_fract_z
Ag1 Ag 0.23625(4) 0.19325(3) 0.671301(18)
Ag2 Ag 0.28521(7) 0.0000 0.5000
Si1 Si 0.34559(14) 0.32776(10) 0.46503(7)
Si2 Si 0.0000 -0.08153(14) 0.7500
N1 N 0.2218(5) 0.2885(3) 0.61603(18)
N2 N 0.2802(5) 0.0952(3) 0.4466(2)
N3 N 0.2337(4) 0.0930(3) 0.7222(2)
C1 C 0.2855(5) 0.2908(3) 0.5721(2)
H1 H 0.3502 0.2600 0.5706
C2 C 0.2605(5) 0.3368(3) 0.5284(2)
C3 C 0.1652(6) 0.3829(4) 0.5327(3)
H2 H 0.1440 0.4141 0.5045
C4 C 0.1016(6) 0.3832(4) 0.5782(3)
H3 H 0.0391 0.4157 0.5814
C5 C 0.1306(5) 0.3351(4) 0.6192(3)
H4 H 0.0863 0.3348 0.6497
C6 C 0.2960(6) 0.1673(3) 0.4655(2)
H5 H 0.2958 0.1738 0.5021
C7 C 0.3125(5) 0.2317(4) 0.4345(2)
C8 C 0.3131(7) 0.2190(5) 0.3803(3)
H6 H 0.3250 0.2599 0.3573
C9 C 0.2965(7) 0.1464(5) 0.3599(3)
H7 H 0.2961 0.1384 0.3235
C10 C 0.2803(6) 0.0862(4) 0.3942(2)
H8 H 0.2691 0.0373 0.3804
C11 C 0.3271(9) 0.4110(5) 0.4179(3)
H9 H 0.3048 0.3933 0.3830
H10 H 0.2703 0.4468 0.4308
C12 C 0.4437(14) 0.4475(7) 0.4166(6)
H11 H 0.4572 0.4674 0.3813
H12 H 0.4441 0.4908 0.4408
C13 C 0.5314(11) 0.3993(8) 0.4298(6)
H13 H 0.5962 0.4301 0.4408
H14 H 0.5540 0.3709 0.3985
C14 C 0.5034(7) 0.3414(5) 0.4743(4)
H15 H 0.5207 0.3625 0.5090
H16 H 0.5446 0.2936 0.4697
C15 C 0.1396(5) 0.0479(4) 0.7236(2)
H17 H 0.0766 0.0633 0.7039
C16 C 0.1308(5) -0.0192(3) 0.7521(2)
C17 C 0.2261(7) -0.0409(5) 0.7803(4)
H18 H 0.2259 -0.0864 0.7995
C18 C 0.3226(7) 0.0053(6) 0.7799(4)
H19 H 0.3871 -0.0088 0.7990
C19 C 0.3214(6) 0.0709(5) 0.7516(4)
H20 H 0.3854 0.1023 0.7529
C20 C -0.0020(8) -0.1524(6) 0.8057(5)
H21 H 0.0710 -0.1556 0.8236
H22 H -0.0618 -0.1416 0.8311
C21 C -0.028(2) -0.2270(7) 0.7715(14)
H23 H -0.0088 -0.2723 0.7919
H24 H -0.1091 -0.2290 0.7636
Ag1C Ag 0.23625(4) -0.19325(3) 0.328699(18)
Ag1B Ag -0.23625(4) 0.19325(3) 0.828699(18)
Si1C Si 0.34559(14) -0.32776(10) 0.53497(7)
N1C N 0.2218(5) -0.2885(3) 0.38397(18)
N2C N 0.2802(5) -0.0952(3) 0.5534(2)
N3B N -0.2337(4) 0.0930(3) 0.7778(2)
N3C N 0.2337(4) -0.0930(3) 0.2778(2)
C1C C 0.2855(5) -0.2908(3) 0.4279(2)
H1C H 0.3502 -0.2600 0.4294
C2C C 0.2605(5) -0.3368(3) 0.4716(2)
C3C C 0.1652(6) -0.3829(4) 0.4673(3)
H2C H 0.1440 -0.4141 0.4955
C4C C 0.1016(6) -0.3832(4) 0.4218(3)
H3C H 0.0391 -0.4157 0.4186
C5C C 0.1306(5) -0.3351(4) 0.3808(3)
H4C H 0.0863 -0.3348 0.3503
C6C C 0.2960(6) -0.1673(3) 0.5345(2)
H5C H 0.2958 -0.1738 0.4979
C7C C 0.3125(5) -0.2317(4) 0.5655(2)
C8C C 0.3131(7) -0.2190(5) 0.6197(3)
H6C H 0.3250 -0.2599 0.6427
C9C C 0.2965(7) -0.1464(5) 0.6401(3)
H7C H 0.2961 -0.1384 0.6765
C10C C 0.2803(6) -0.0862(4) 0.6058(2)
H8C H 0.2691 -0.0373 0.6196
C11C C 0.3271(9) -0.4110(5) 0.5821(3)
H9C H 0.3048 -0.3933 0.6170
H10C H 0.2703 -0.4468 0.5692
C12C C 0.4437(14) -0.4475(7) 0.5834(6)
H11C H 0.4572 -0.4674 0.6187
H12C H 0.4441 -0.4908 0.5592
C13C C 0.5314(11) -0.3993(8) 0.5702(6)
H13C H 0.5962 -0.4301 0.5592
H14C H 0.5540 -0.3709 0.6015
C14C C 0.5034(7) -0.3414(5) 0.5257(4)
H15C H 0.5207 -0.3625 0.4910
H16C H 0.5446 -0.2936 0.5303
C15B C -0.1396(5) 0.0479(4) 0.7764(2)
H17B H -0.0766 0.0633 0.7961
C16B C -0.1308(5) -0.0192(3) 0.7479(2)
C17B C -0.2261(7) -0.0409(5) 0.7197(4)
H18B H -0.2259 -0.0864 0.7005
C18B C -0.3226(7) 0.0053(6) 0.7201(4)
H19B H -0.3871 -0.0088 0.7010
C19B C -0.3214(6) 0.0709(5) 0.7484(4)
H20B H -0.3854 0.1023 0.7471
C20B C 0.0020(8) -0.1524(6) 0.6943(5)
H21B H -0.0710 -0.1556 0.6764
H22B H 0.0618 -0.1416 0.6689
C21B C 0.028(2) -0.2270(7) 0.7285(14)
H23B H 0.0088 -0.2723 0.7081
H24B H 0.1091 -0.2290 0.7364
Cl1 Cl 0.46184(17) 0.10239(12) 0.59693(9)
O1 O 0.5149(9) 0.1715(4) 0.5828(6)
O2 O 0.3386(5) 0.1059(4) 0.5908(3)
O3 O 0.4816(11) 0.0764(12) 0.6463(5)
O4 O 0.4988(8) 0.0469(4) 0.5603(5)
Cl2 Cl 0.0000 0.24944(15) 0.7500
O5 O -0.0056(5) 0.2029(3) 0.70313(19)
O6 O 0.1018(10) 0.2942(6) 0.7464(3)
O5B O 0.0056(5) 0.2029(3) 0.79687(19)
O6B O -0.1018(10) 0.2942(6) 0.7536(3)
loop_
_geom_bond_atom_site_label_1
_geom_bond_atom_site_label_2
_geom_bond_site_symmetry_1
_geom_bond_site_symmetry_2
Ag1 N1 1_555 1_555
Ag2 N2 1_555 1_555
Si1 C2 1_555 1_555
Si2 C16 1_555 1_555
Cl1 O1 1_555 1_555
Cl2 O5 1_555 1_555
O2 Cl1 1_555 1_555
O3 Cl1 1_555 1_555
O4 Cl1 1_555 1_555
O6 Cl2 1_555 1_555
N1 C1 1_555 1_555
N2 C6 1_555 1_555
N3 Ag1 1_555 1_555
C1 H1 1_555 1_555
C2 C1 1_555 1_555
C3 C2 1_555 1_555
H2 C3 1_555 1_555
C4 C3 1_555 1_555
H3 C4 1_555 1_555
C5 N1 1_555 1_555
H4 C5 1_555 1_555
C6 H5 1_555 1_555
C7 Si1 1_555 1_555
C8 C7 1_555 1_555
H6 C8 1_555 1_555
C9 C8 1_555 1_555
H7 C9 1_555 1_555
C10 N2 1_555 1_555
H8 C10 1_555 1_555
C11 Si1 1_555 1_555
H9 C11 1_555 1_555
H10 C11 1_555 1_555
C12 C11 1_555 1_555
H11 C12 1_555 1_555
H12 C12 1_555 1_555
C13 C12 1_555 1_555
H13 C13 1_555 1_555
H14 C13 1_555 1_555
C14 Si1 1_555 1_555
H15 C14 1_555 1_555
H16 C14 1_555 1_555
C15 N3 1_555 1_555
H17 C15 1_555 1_555
C16 C15 1_555 1_555
C17 C16 1_555 1_555
H18 C17 1_555 1_555
C18 C17 1_555 1_555
H19 C18 1_555 1_555
C19 N3 1_555 1_555
H20 C19 1_555 1_555
C20 Si2 1_555 1_555
H21 C20 1_555 1_555
H22 C20 1_555 1_555
C21 C20 1_555 1_555
H23 C21 1_555 1_555
H24 C21 1_555 1_555
Ag1C N1C 1_555 1_555
Ag1B N3B 1_555 1_555
Si1C C2C 1_555 1_555
O5B Cl2 1_555 1_555
O6B Cl2 1_555 1_555
N1C C1C 1_555 1_555
N2C Ag2 1_555 1_555
N3B C15B 1_555 1_555
N3C Ag1C 1_555 1_555
C1C H1C 1_555 1_555
C2C C1C 1_555 1_555
C3C C2C 1_555 1_555
H2C C3C 1_555 1_555
C4C C3C 1_555 1_555
H3C C4C 1_555 1_555
C5C N1C 1_555 1_555
H4C C5C 1_555 1_555
C6C N2C 1_555 1_555
H5C C6C 1_555 1_555
C7C Si1C 1_555 1_555
C8C C7C 1_555 1_555
H6C C8C 1_555 1_555
C9C C8C 1_555 1_555
H7C C9C 1_555 1_555
C10C N2C 1_555 1_555
H8C C10C 1_555 1_555
C11C Si1C 1_555 1_555
H9C C11C 1_555 1_555
H10C C11C 1_555 1_555
C12C C11C 1_555 1_555
H11C C12C 1_555 1_555
H12C C12C 1_555 1_555
C13C C12C 1_555 1_555
H13C C13C 1_555 1_555
H14C C13C 1_555 1_555
C14C Si1C 1_555 1_555
H15C C14C 1_555 1_555
H16C C14C 1_555 1_555
C15B H17B 1_555 1_555
C16B Si2 1_555 1_555
C17B C16B 1_555 1_555
H18B C17B 1_555 1_555
C18B C17B 1_555 1_555
H19B C18B 1_555 1_555
C19B N3B 1_555 1_555
H20B C19B 1_555 1_555
C20B Si2 1_555 1_555
H21B C20B 1_555 1_555
H22B C20B 1_555 1_555
C21B C21 1_555 1_555
H23B C21B 1_555 1_555
H24B C21B 1_555 1_555
C4 C5 1_555 1_555
C6 C7 1_555 1_555
C9 C10 1_555 1_555
C13 C14 1_555 1_555
C18 C19 1_555 1_555
C4C C5C 1_555 1_555
C6C C7C 1_555 1_555
C9C C10C 1_555 1_555
C13C C14C 1_555 1_555
C15B C16B 1_555 1_555
C18B C19B 1_555 1_555
C20B C21B 1_555 1_555

#END
