
#######################################################################
#
#                 Cambridge Crystallographic Data Centre
#                                CCDC 
#
#######################################################################
#
# If this CIF has been generated from an entry in the Cambridge 
# Structural Database, then it will include bibliographic, chemical, 
# crystal, experimental, refinement or atomic coordinate data resulting 
# from the CCDC's data processing and validation procedures.
#
#######################################################################

data_CANYIA03
_symmetry_cell_setting           triclinic
_symmetry_space_group_name_H-M   'P -1'
_symmetry_Int_Tables_number      2
_space_group_name_Hall           '-P 1'
loop_
_symmetry_equiv_pos_site_id
_symmetry_equiv_pos_as_xyz
1 x,y,z
2 -x,-y,-z
_cell_length_a                   9.6255(5)
_cell_length_b                   9.9447(5)
_cell_length_c                   12.7880(7)
_cell_angle_alpha                70.9180(10)
_cell_angle_beta                 73.7140(10)
_cell_angle_gamma                75.6450(10)
_cell_volume                     1093.82
loop_
_atom_site_label
_atom_site_type_symbol
_atom_site_fract_x
_atom_site_fract_y
_atom_site_fract_z
Cu1 Cu 0.20661(3) 0.33711(2) 0.16535(2)
C1 C 0.2115(2) 0.5615(2) -0.05920(19)
H1 H 0.1543 0.5091 -0.0732
C2 C 0.2482(3) 0.6848(3) -0.1403(2)
H2 H 0.2163 0.7154 -0.2079
C3 C 0.3328(3) 0.7623(3) -0.1200(2)
H3 H 0.3603 0.8454 -0.1742
C4 C 0.3766(3) 0.7153(2) -0.0176(2)
H4 H 0.4330 0.7671 -0.0021
C5 C 0.3356(2) 0.5905(2) 0.06121(18)
C6 C 0.3745(2) 0.5300(2) 0.17349(18)
C7 C 0.4496(3) 0.5955(3) 0.2149(2)
H5 H 0.4794 0.6830 0.1717
C8 C 0.4799(3) 0.5298(3) 0.3211(2)
H6 H 0.5299 0.5730 0.3503
C9 C 0.4358(3) 0.4004(3) 0.3831(2)
H7 H 0.4562 0.3542 0.4545
C10 C 0.3606(3) 0.3400(3) 0.33759(19)
H8 H 0.3308 0.2522 0.3794
C11 C -0.0625(2) -0.5033(2) 0.32814(19)
C12 C -0.0965(3) -0.3685(2) 0.3665(2)
H9 H -0.1276 -0.3938 0.4485
H10 H -0.1773 -0.3031 0.3353
C13 C 0.1929(2) 0.2033(2) 0.01481(18)
C14 C 0.1166(3) 0.1529(3) -0.05007(19)
H11 H 0.1874 0.1239 -0.1129
H12 H 0.0431 0.2312 -0.0805
C15 C 0.0433(2) 0.0253(2) 0.02923(19)
H13 H 0.1169 -0.0519 0.0584
H14 H -0.0269 0.0550 0.0910
C16 C 0.0901(3) 0.0869(2) 0.32215(18)
C17 C 0.1255(3) -0.0711(2) 0.3252(2)
H15 H 0.1851 -0.1226 0.3808
H16 H 0.1844 -0.0800 0.2518
C18 C -0.0065(2) -0.1443(2) 0.35355(19)
H17 H -0.0769 -0.0829 0.3090
H18 H -0.0534 -0.1561 0.4330
C19 C 0.0351(2) -0.2915(2) 0.33018(19)
H19 H 0.0802 -0.2800 0.2514
H20 H 0.1032 -0.3534 0.3754
N1 N 0.25501(18) 0.51345(18) 0.03952(15)
N2 N 0.32915(19) 0.40404(19) 0.23510(15)
O1 O -0.0026(2) -0.50647(17) 0.23180(14)
O2 O -0.1042(3) -0.61635(18) 0.40715(15)
O3 O 0.10887(17) 0.27793(17) 0.07957(14)
O4 O 0.32810(18) 0.1693(2) 0.00618(15)
O5 O 0.1989(2) 0.15437(17) 0.28246(16)
O6 O -0.0383(2) 0.14284(17) 0.35654(15)
C13A C -0.1929(2) -0.2033(2) -0.01481(18)
C14A C -0.1166(3) -0.1529(3) 0.05007(19)
H11A H -0.1874 -0.1239 0.1129
H12A H -0.0431 -0.2312 0.0805
C15A C -0.0433(2) -0.0253(2) -0.02923(19)
H13A H -0.1169 0.0519 -0.0584
H14A H 0.0269 -0.0550 -0.0910
O3A O -0.10887(17) -0.27793(17) -0.07957(14)
O4A O -0.32810(18) -0.1693(2) -0.00618(15)
Cu1A Cu -0.20661(3) -0.33711(2) -0.16535(2)
C1A C -0.2115(2) -0.5615(2) 0.05920(19)
H1A H -0.1543 -0.5091 0.0732
C2A C -0.2482(3) -0.6848(3) 0.1403(2)
H2A H -0.2163 -0.7154 0.2079
C3A C -0.3328(3) -0.7623(3) 0.1200(2)
H3A H -0.3603 -0.8454 0.1742
C4A C -0.3766(3) -0.7153(2) 0.0176(2)
H4A H -0.4330 -0.7671 0.0021
C5A C -0.3356(2) -0.5905(2) -0.06121(18)
C6A C -0.3745(2) -0.5300(2) -0.17349(18)
C7A C -0.4496(3) -0.5955(3) -0.2149(2)
H5A H -0.4794 -0.6830 -0.1717
C8A C -0.4799(3) -0.5298(3) -0.3211(2)
H6A H -0.5299 -0.5730 -0.3503
C9A C -0.4358(3) -0.4004(3) -0.3831(2)
H7A H -0.4562 -0.3542 -0.4545
C10A C -0.3606(3) -0.3400(3) -0.33759(19)
H8A H -0.3308 -0.2522 -0.3794
C11A C 0.0625(2) 0.5033(2) -0.32814(19)
C12A C 0.0965(3) 0.3685(2) -0.3665(2)
H9A H 0.1276 0.3938 -0.4485
H10A H 0.1773 0.3031 -0.3353
C16A C -0.0901(3) -0.0869(2) -0.32215(18)
C17A C -0.1255(3) 0.0711(2) -0.3252(2)
H15A H -0.1851 0.1226 -0.3808
H16A H -0.1844 0.0800 -0.2518
C18A C 0.0065(2) 0.1443(2) -0.35355(19)
H17A H 0.0769 0.0829 -0.3090
H18A H 0.0534 0.1561 -0.4330
C19A C -0.0351(2) 0.2915(2) -0.33018(19)
H19A H -0.0802 0.2800 -0.2514
H20A H -0.1032 0.3534 -0.3754
N1A N -0.25501(18) -0.51345(18) -0.03952(15)
N2A N -0.32915(19) -0.40404(19) -0.23510(15)
O1A O 0.0026(2) 0.50647(17) -0.23180(14)
O2A O 0.1042(3) 0.61635(18) -0.40715(15)
O5A O -0.1989(2) -0.15437(17) -0.28246(16)
O6A O 0.0383(2) -0.14284(17) -0.35654(15)
Cu1_2 Cu 0.20661(3) -0.66289(2) 0.16535(2)
Cu1A_2 Cu -0.20661(3) 0.66289(2) -0.16535(2)
O1_2 O -0.0026(2) 0.49353(17) 0.23180(14)
O1A_2 O 0.0026(2) -0.49353(17) -0.23180(14)
O7 O 0.4958(2) 0.9525(2) 0.16244(17)
H21 H 0.4745 0.9614 0.2293
H22 H 0.5886 0.9387 0.1390
H23 H 0.4579 1.0290 0.1188
O8 O 0.4516(3) 0.1228(3) 0.6195(2)
H24 H 0.5309 0.0626 0.6111
H25 H 0.4682 0.1949 0.6330
O9 O 0.6693(3) 0.0678(3) 0.4342(2)
H26 H 0.7374 0.0144 0.3999
H27 H 0.7045 0.1337 0.4417
loop_
_geom_bond_atom_site_label_1
_geom_bond_atom_site_label_2
_geom_bond_site_symmetry_1
_geom_bond_site_symmetry_2
Cu1 N1 1_555 1_555
C1 H1 1_555 1_555
C2 C1 1_555 1_555
H2 C2 1_555 1_555
C3 C2 1_555 1_555
H3 C3 1_555 1_555
C4 C3 1_555 1_555
H4 C4 1_555 1_555
C5 C4 1_555 1_555
C6 C5 1_555 1_555
C7 C6 1_555 1_555
H5 C7 1_555 1_555
C8 C7 1_555 1_555
H6 C8 1_555 1_555
C9 C8 1_555 1_555
H7 C9 1_555 1_555
C10 C9 1_555 1_555
H8 C10 1_555 1_555
C11 C12 1_555 1_555
C12 H9 1_555 1_555
H10 C12 1_555 1_555
C13 C14 1_555 1_555
C14 H11 1_555 1_555
H12 C14 1_555 1_555
C15 C14 1_555 1_555
H13 C15 1_555 1_555
H14 C15 1_555 1_555
C16 C17 1_555 1_555
C17 H15 1_555 1_555
H16 C17 1_555 1_555
C18 C17 1_555 1_555
H17 C18 1_555 1_555
H18 C18 1_555 1_555
C19 C12 1_555 1_555
H19 C19 1_555 1_555
H20 C19 1_555 1_555
N1 C1 1_555 1_555
N2 Cu1 1_555 1_555
O1 C11 1_555 1_555
O2 C11 1_555 1_555
O3 Cu1 1_555 1_555
O4 C13 1_555 1_555
O5 Cu1 1_555 1_555
O6 C16 1_555 1_555
O7 H21 1_555 1_555
H22 O7 1_555 1_555
H23 O7 1_555 1_555
O8 H24 1_555 1_555
H25 O8 1_555 1_555
O9 H26 1_555 1_555
H27 O9 1_555 1_555
C13A C14A 1_555 1_555
C14A H11A 1_555 1_555
H12A C14A 1_555 1_555
C15A C15 1_555 1_555
H13A C15A 1_555 1_555
H14A C15A 1_555 1_555
O3A C13A 1_555 1_555
O4A C13A 1_555 1_555
Cu1A O3A 1_555 1_555
C1A H1A 1_555 1_555
C2A C1A 1_555 1_555
H2A C2A 1_555 1_555
C3A C2A 1_555 1_555
H3A C3A 1_555 1_555
C4A C3A 1_555 1_555
H4A C4A 1_555 1_555
C5A C4A 1_555 1_555
C6A C5A 1_555 1_555
C7A C6A 1_555 1_555
H5A C7A 1_555 1_555
C8A C7A 1_555 1_555
H6A C8A 1_555 1_555
C9A C8A 1_555 1_555
H7A C9A 1_555 1_555
C10A C9A 1_555 1_555
H8A C10A 1_555 1_555
C11A C12A 1_555 1_555
C12A H9A 1_555 1_555
H10A C12A 1_555 1_555
C16A C17A 1_555 1_555
C17A H15A 1_555 1_555
H16A C17A 1_555 1_555
C18A C17A 1_555 1_555
H17A C18A 1_555 1_555
H18A C18A 1_555 1_555
C19A C12A 1_555 1_555
H19A C19A 1_555 1_555
H20A C19A 1_555 1_555
N1A Cu1A 1_555 1_555
N2A Cu1A 1_555 1_555
O1A C11A 1_555 1_555
O2A C11A 1_555 1_555
O5A Cu1A 1_555 1_555
O6A C16A 1_555 1_555
Cu1_2 O1 1_555 1_555
Cu1A_2 O1A 1_555 1_555
O1_2 Cu1 1_555 1_555
O1A_2 Cu1A 1_555 1_555
C5 N1 1_555 1_555
C6 N2 1_555 1_555
C10 N2 1_555 1_555
C13 O3 1_555 1_555
C16 O5 1_555 1_555
C18 C19 1_555 1_555
C14A C15A 1_555 1_555
C1A N1A 1_555 1_555
C5A N1A 1_555 1_555
C6A N2A 1_555 1_555
C10A N2A 1_555 1_555
C16A O5A 1_555 1_555
C18A C19A 1_555 1_555

#END
