
#######################################################################
#
#                 Cambridge Crystallographic Data Centre
#                                CCDC 
#
#######################################################################
#
# If this CIF has been generated from an entry in the Cambridge 
# Structural Database, then it will include bibliographic, chemical, 
# crystal, experimental, refinement or atomic coordinate data resulting 
# from the CCDC's data processing and validation procedures.
#
#######################################################################

data_CANYIA
_symmetry_cell_setting           triclinic
_symmetry_space_group_name_H-M   'P -1'
_symmetry_Int_Tables_number      2
_space_group_name_Hall           '-P 1'
loop_
_symmetry_equiv_pos_site_id
_symmetry_equiv_pos_as_xyz
1 x,y,z
2 -x,-y,-z
_cell_length_a                   9.6180(10)
_cell_length_b                   9.9330(10)
_cell_length_c                   12.782(2)
_cell_angle_alpha                70.880(10)
_cell_angle_beta                 73.700(10)
_cell_angle_gamma                75.600(10)
_cell_volume                     1090.73
loop_
_atom_site_label
_atom_site_type_symbol
_atom_site_fract_x
_atom_site_fract_y
_atom_site_fract_z
Cu1 Cu 0.70658(3) 0.83710(2) 0.66541(2)
N1 N 0.7549(2) 1.01357(19) 0.53928(15)
N2 N 0.8287(2) 0.9041(2) 0.73532(15)
C1 C 0.7116(3) 1.0610(3) 0.4409(2)
H1 H 0.6546 1.0082 0.4270
C2 C 0.7479(3) 1.1847(3) 0.3595(2)
H2 H 0.7158 1.2153 0.2919
C3 C 0.8330(3) 1.2628(3) 0.3800(2)
H3 H 0.8606 1.3460 0.3257
C4 C 0.8769(3) 1.2155(3) 0.4827(2)
H4 H 0.9332 1.2672 0.4984
C5 C 0.8355(2) 1.0905(2) 0.56124(18)
C6 C 0.8744(2) 1.0298(2) 0.67366(18)
C7 C 0.9498(3) 1.0963(3) 0.7146(2)
H5 H 0.9797 1.1838 0.6714
C8 C 0.9799(3) 1.0297(3) 0.8214(2)
H6 H 1.0297 1.0727 0.8510
C9 C 0.9359(3) 0.9000(3) 0.8831(2)
H7 H 0.9567 0.8534 0.9544
C10 C 0.8604(3) 0.8395(3) 0.8379(2)
H8 H 0.8305 0.7515 0.8798
O1 O 0.6988(2) 0.65412(19) 0.78248(18)
O2 O 0.4614(2) 0.64265(18) 0.85668(17)
C11 C 0.5899(3) 0.5870(2) 0.82203(19)
C12 C 0.6260(3) 0.4290(2) 0.8248(2)
H9 H 0.6859 0.3774 0.8803
H10 H 0.6847 0.4204 0.7513
C13 C 0.4935(3) 0.3558(2) 0.85344(19)
H11 H 0.4466 0.3441 0.9329
H12 H 0.4230 0.4174 0.8089
C14 C 0.5352(2) 0.2088(2) 0.83019(19)
H13 H 0.6105 0.1492 0.8708
H14 H 0.5760 0.2211 0.7498
C15 C 0.4032(3) 0.1316(2) 0.8664(2)
H15 H 0.3718 0.1063 0.9484
H16 H 0.3224 0.1972 0.8350
C16 C 0.4375(2) -0.0031(2) 0.82806(19)
O3 O 0.4973(2) -0.00639(18) 0.73190(15)
O4 O 0.3958(3) -0.1162(2) 0.90731(16)
O5 O 0.60890(18) 0.77797(19) 0.57960(15)
O6 O 0.8280(2) 0.6694(2) 0.50632(17)
C17 C 0.6927(3) 0.7035(2) 0.51511(19)
C18 C 0.6167(3) 0.6524(3) 0.4501(2)
H17 H 0.6879 0.6228 0.3875
H18 H 0.5434 0.7307 0.4191
C19 C 0.5432(2) 0.5253(2) 0.52932(19)
H19 H 0.6179 0.4457 0.5568
H20 H 0.4774 0.5538 0.5943
H21 H 0.4275 -0.1778 0.8779
Cu1_2 Cu 0.70658(3) 1.83710(2) 0.66541(2)
Cu1_3 Cu 0.70658(3) -0.16290(2) 0.66541(2)
Cu1A Cu 0.29342(3) 0.16290(2) 0.33459(2)
N1_2 N 0.7549(2) 2.01357(19) 0.53928(15)
N2_2 N 0.8287(2) 1.9041(2) 0.73532(15)
C1_2 C 0.7116(3) 2.0610(3) 0.4409(2)
H1_2 H 0.6546 2.0082 0.4270
C2_2 C 0.7479(3) 2.1847(3) 0.3595(2)
H2_2 H 0.7158 2.2153 0.2919
C3_2 C 0.8330(3) 2.2628(3) 0.3800(2)
H3_2 H 0.8606 2.3460 0.3257
C4_2 C 0.8769(3) 2.2155(3) 0.4827(2)
H4_2 H 0.9332 2.2672 0.4984
C5_2 C 0.8355(2) 2.0905(2) 0.56124(18)
C6_2 C 0.8744(2) 2.0298(2) 0.67366(18)
C7_2 C 0.9498(3) 2.0963(3) 0.7146(2)
H5_2 H 0.9797 2.1838 0.6714
C8_2 C 0.9799(3) 2.0297(3) 0.8214(2)
H6_2 H 1.0297 2.0727 0.8510
C9_2 C 0.9359(3) 1.9000(3) 0.8831(2)
H7_2 H 0.9567 1.8534 0.9544
C10_2 C 0.8604(3) 1.8395(3) 0.8379(2)
H8_2 H 0.8305 1.7515 0.8798
O1_2 O 0.6988(2) 1.65412(19) 0.78248(18)
O2_2 O 0.4614(2) 1.64265(18) 0.85668(17)
C11_2 C 0.5899(3) 1.5870(2) 0.82203(19)
C12_2 C 0.6260(3) 1.4290(2) 0.8248(2)
H9_2 H 0.6859 1.3774 0.8803
H10_2 H 0.6847 1.4204 0.7513
C13_2 C 0.4935(3) 1.3558(2) 0.85344(19)
H11_2 H 0.4466 1.3441 0.9329
H12_2 H 0.4230 1.4174 0.8089
C14_2 C 0.5352(2) 1.2088(2) 0.83019(19)
H13_2 H 0.6105 1.1492 0.8708
H14_2 H 0.5760 1.2211 0.7498
C15_2 C 0.4032(3) 1.1316(2) 0.8664(2)
H15_2 H 0.3718 1.1063 0.9484
H16_2 H 0.3224 1.1972 0.8350
C16_2 C 0.4375(2) 0.9969(2) 0.82806(19)
O3_2 O 0.4973(2) 0.99361(18) 0.73190(15)
O3_3 O 0.4973(2) 1.99361(18) 0.73190(15)
O4_2 O 0.3958(3) 0.8838(2) 0.90731(16)
O5A O 0.39110(18) 0.22203(19) 0.42040(15)
O5_2 O 0.60890(18) 1.77797(19) 0.57960(15)
O6A O 0.1720(2) 0.3306(2) 0.49368(17)
C17A C 0.3073(3) 0.2965(2) 0.48489(19)
C18A C 0.3833(3) 0.3476(3) 0.5499(2)
H17A H 0.3121 0.3772 0.6125
H18A H 0.4566 0.2693 0.5809
C19A C 0.4568(2) 0.4747(2) 0.47068(19)
H19A H 0.3821 0.5543 0.4432
H20A H 0.5226 0.4462 0.4057
H21_2 H 0.4275 0.8222 0.8779
O7 O 0.0487(3) 0.3745(4) 0.8811(2)
H22 H -0.0211 0.4149 0.9126
H23 H 0.0513 0.3983 0.8232
O8 O 0.0028(3) 0.5474(3) 0.33610(19)
H24 H 0.0584 0.4983 0.3445
H25 H -0.0475 0.5717 0.4004
O9 O 0.1695(3) 0.5660(4) 0.9328(3)
H26 H 0.2389 0.5806 0.9141
H27 H 0.1282 0.6010 0.9794
loop_
_geom_bond_atom_site_label_1
_geom_bond_atom_site_label_2
_geom_bond_site_symmetry_1
_geom_bond_site_symmetry_2
Cu1 N1 1_555 1_555
N1 C1 1_555 1_555
N2 Cu1 1_555 1_555
C1 H1 1_555 1_555
C2 C1 1_555 1_555
H2 C2 1_555 1_555
C3 C2 1_555 1_555
H3 C3 1_555 1_555
C4 C3 1_555 1_555
H4 C4 1_555 1_555
C5 N1 1_555 1_555
C6 N2 1_555 1_555
C7 C6 1_555 1_555
H5 C7 1_555 1_555
C8 C7 1_555 1_555
H6 C8 1_555 1_555
C9 C8 1_555 1_555
H7 C9 1_555 1_555
C10 N2 1_555 1_555
H8 C10 1_555 1_555
O1 Cu1 1_555 1_555
O2 C11 1_555 1_555
C11 O1 1_555 1_555
C12 C11 1_555 1_555
H9 C12 1_555 1_555
H10 C12 1_555 1_555
C13 C12 1_555 1_555
H11 C13 1_555 1_555
H12 C13 1_555 1_555
C14 C13 1_555 1_555
H13 C14 1_555 1_555
H14 C14 1_555 1_555
C15 C14 1_555 1_555
H15 C15 1_555 1_555
H16 C15 1_555 1_555
C16 C15 1_555 1_555
O3 C16 1_555 1_555
O4 C16 1_555 1_555
O5 Cu1 1_555 1_555
O6 C17 1_555 1_555
C17 O5 1_555 1_555
C18 C17 1_555 1_555
H17 C18 1_555 1_555
H18 C18 1_555 1_555
C19 C18 1_555 1_555
H19 C19 1_555 1_555
H20 C19 1_555 1_555
H21 O4 1_555 1_555
O7 H22 1_555 1_555
H23 O7 1_555 1_555
O8 H24 1_555 1_555
H25 O8 1_555 1_555
O9 H26 1_555 1_555
H27 O9 1_555 1_555
Cu1_2 N1_2 1_555 1_555
Cu1_3 O3 1_555 1_555
Cu1A O5A 1_555 1_555
N1_2 C1_2 1_555 1_555
N2_2 Cu1_2 1_555 1_555
C1_2 H1_2 1_555 1_555
C2_2 C1_2 1_555 1_555
H2_2 C2_2 1_555 1_555
C3_2 C2_2 1_555 1_555
H3_2 C3_2 1_555 1_555
C4_2 C3_2 1_555 1_555
H4_2 C4_2 1_555 1_555
C5_2 N1_2 1_555 1_555
C6_2 N2_2 1_555 1_555
C7_2 C6_2 1_555 1_555
H5_2 C7_2 1_555 1_555
C8_2 C7_2 1_555 1_555
H6_2 C8_2 1_555 1_555
C9_2 C8_2 1_555 1_555
H7_2 C9_2 1_555 1_555
C10_2 N2_2 1_555 1_555
H8_2 C10_2 1_555 1_555
O1_2 Cu1_2 1_555 1_555
O2_2 C11_2 1_555 1_555
C11_2 O1_2 1_555 1_555
C12_2 C11_2 1_555 1_555
H9_2 C12_2 1_555 1_555
H10_2 C12_2 1_555 1_555
C13_2 C12_2 1_555 1_555
H11_2 C13_2 1_555 1_555
H12_2 C13_2 1_555 1_555
C14_2 C13_2 1_555 1_555
H13_2 C14_2 1_555 1_555
H14_2 C14_2 1_555 1_555
C15_2 C14_2 1_555 1_555
H15_2 C15_2 1_555 1_555
H16_2 C15_2 1_555 1_555
C16_2 C15_2 1_555 1_555
O3_2 Cu1 1_555 1_555
O3_3 Cu1_2 1_555 1_555
O4_2 C16_2 1_555 1_555
O5A C17A 1_555 1_555
O5_2 Cu1_2 1_555 1_555
O6A C17A 1_555 1_555
C17A C18A 1_555 1_555
C18A H17A 1_555 1_555
H18A C18A 1_555 1_555
C19A C19 1_555 1_555
H19A C19A 1_555 1_555
H20A C19A 1_555 1_555
H21_2 O4_2 1_555 1_555
C4 C5 1_555 1_555
C5 C6 1_555 1_555
C9 C10 1_555 1_555
C4_2 C5_2 1_555 1_555
C5_2 C6_2 1_555 1_555
C9_2 C10_2 1_555 1_555
C16_2 O3_2 1_555 1_555
C18A C19A 1_555 1_555

#END
