
#######################################################################
#
#                 Cambridge Crystallographic Data Centre
#                                CCDC 
#
#######################################################################
#
# If this CIF has been generated from an entry in the Cambridge 
# Structural Database, then it will include bibliographic, chemical, 
# crystal, experimental, refinement or atomic coordinate data resulting 
# from the CCDC's data processing and validation procedures.
#
#######################################################################

data_CAPNOY
_symmetry_cell_setting           monoclinic
_symmetry_space_group_name_H-M   'P 21/c'
_symmetry_Int_Tables_number      14
_space_group_name_Hall           '-P 2ybc'
loop_
_symmetry_equiv_pos_site_id
_symmetry_equiv_pos_as_xyz
1 x,y,z
2 -x,1/2+y,1/2-z
3 -x,-y,-z
4 x,1/2-y,1/2+z
_cell_length_a                   12.480(3)
_cell_length_b                   8.2843(17)
_cell_length_c                   12.044(2)
_cell_angle_alpha                90
_cell_angle_beta                 109.99(3)
_cell_angle_gamma                90
_cell_volume                     1170.19
loop_
_atom_site_label
_atom_site_type_symbol
_atom_site_fract_x
_atom_site_fract_y
_atom_site_fract_z
Ce1 Ce 0.55060(2) 0.16972(3) 0.75825(2)
O1 O 0.5726(3) 0.1768(3) 0.5586(3)
O2 O 0.5648(3) -0.0979(4) 0.8640(3)
O3 O 0.6983(3) 0.1374(4) 0.9712(3)
H1 H 0.6844 0.1840 1.0335
O4 O 0.5212(3) 0.0798(4) 0.3742(3)
O5 O 0.7335(3) 0.0246(4) 0.7664(3)
O6 O 0.6920(3) 0.1178(4) 1.2507(3)
O7 O 0.6186(3) -0.1241(4) 1.1842(3)
O8 O 0.6785(3) -0.2943(4) 0.9606(3)
O9 O 0.9116(3) -0.0589(6) 0.8071(3)
H2 H 0.8973 -0.0390 0.7368
C1 C 0.6560(4) -0.1496(5) 0.9421(4)
C2 C 0.7839(4) -0.0400(6) 1.1435(4)
H7 H 0.8150 -0.1477 1.1638
H8 H 0.8450 0.0364 1.1791
C3 C 0.5270(4) 0.0740(5) 0.4810(4)
C4 C 0.7438(3) -0.0204(5) 1.0078(4)
C5 C 0.6900(4) -0.0139(6) 1.1971(4)
C6 C 0.8484(4) -0.0386(6) 0.9691(4)
H9 H 0.9046 0.0416 1.0102
H10 H 0.8818 -0.1441 0.9933
C7 C 0.8234(4) -0.0202(6) 0.8378(4)
Ce1B Ce 0.44940(2) -0.16972(3) 0.24175(2)
Ce1_2 Ce 0.55060(2) 0.16972(3) -0.24175(2)
Ce1A Ce 0.44940(2) -0.33028(3) -0.25825(2)
Ce1A_2 Ce 0.44940(2) -0.33028(3) 0.74175(2)
Ce1B_2 Ce 0.44940(2) -0.16972(3) 1.24175(2)
Ce1C Ce 0.55060(2) 0.33028(3) 0.25825(2)
Ce1C_2 Ce 0.55060(2) 0.33028(3) 1.25825(2)
O1B O 0.4274(3) -0.1768(3) 0.4414(3)
O2B O 0.4352(3) 0.0979(4) 0.1360(3)
O2A O 0.4352(3) 0.4021(4) 0.6360(3)
O2C O 0.5648(3) -0.4021(4) 0.3640(3)
O3B O 0.3017(3) -0.1374(4) 0.0288(3)
H1B H 0.3156 -0.1840 -0.0335
O4B O 0.4788(3) -0.0798(4) 0.6258(3)
O4A O 0.4788(3) -0.4202(4) 0.1258(3)
O4C O 0.5212(3) 0.4202(4) 0.8742(3)
O5B O 0.2665(3) -0.0246(4) 0.2336(3)
O6B O 0.3080(3) -0.1178(4) -0.2507(3)
O6A O 0.3080(3) -0.3822(4) 0.2493(3)
O6C O 0.6920(3) 0.3822(4) 0.7507(3)
O7B O 0.3814(3) 0.1241(4) -0.1842(3)
O7_2 O 0.6186(3) -0.1241(4) 0.1842(3)
O7B_2 O 0.3814(3) 0.1241(4) 0.8158(3)
O8B O 0.3215(3) 0.2943(4) 0.0394(3)
O9B O 0.0884(3) 0.0589(6) 0.1929(3)
H2B H 0.1027 0.0390 0.2632
C1B C 0.3440(4) 0.1496(5) 0.0579(4)
C2B C 0.2161(4) 0.0400(6) -0.1435(4)
H7B H 0.1850 0.1477 -0.1638
H8B H 0.1550 -0.0364 -0.1791
C3B C 0.4730(4) -0.0740(5) 0.5190(4)
C4B C 0.2562(3) 0.0204(5) -0.0078(4)
C5B C 0.3100(4) 0.0139(6) -0.1971(4)
C6B C 0.1516(4) 0.0386(6) 0.0309(4)
H9B H 0.0954 -0.0416 -0.0102
H10B H 0.1182 0.1441 0.0067
C7B C 0.1766(4) 0.0202(6) 0.1622(4)
O10 O 0.1245(4) 0.0447(5) 0.4167(3)
H3 H 0.1394 -0.0362 0.4522
H4 H 0.1876 0.0601 0.4593
O11 O 0.0858(4) 0.8274(5) 0.5755(5)
H5 H 0.1642 0.8418 0.6303
H6 H 0.0794 0.8100 0.4860
loop_
_geom_bond_atom_site_label_1
_geom_bond_atom_site_label_2
_geom_bond_site_symmetry_1
_geom_bond_site_symmetry_2
Ce1 O1 1_555 1_555
O1 C3 1_555 1_555
O2 Ce1 1_555 1_555
O3 Ce1 1_555 1_555
H1 O3 1_555 1_555
O4 C3 1_555 1_555
O5 Ce1 1_555 1_555
O6 C5 1_555 1_555
O7 C5 1_555 1_555
O8 C1 1_555 1_555
O9 H2 1_555 1_555
O10 H3 1_555 1_555
H4 O10 1_555 1_555
O11 H5 1_555 1_555
H6 O11 1_555 1_555
C1 O2 1_555 1_555
C2 H7 1_555 1_555
H8 C2 1_555 1_555
C3 C3B 1_555 1_555
C4 O3 1_555 1_555
C5 C2 1_555 1_555
C6 C4 1_555 1_555
H9 C6 1_555 1_555
H10 C6 1_555 1_555
C7 O5 1_555 1_555
Ce1B O4 1_555 1_555
Ce1_2 O7B 1_555 1_555
Ce1A O6B 1_555 1_555
Ce1A_2 O2 1_555 1_555
Ce1B_2 O7 1_555 1_555
Ce1C O4 1_555 1_555
Ce1C_2 O6 1_555 1_555
O1B Ce1B 1_555 1_555
O2B Ce1B 1_555 1_555
O2A Ce1 1_555 1_555
O2C Ce1B 1_555 1_555
O3B Ce1B 1_555 1_555
H1B O3B 1_555 1_555
O4B Ce1 1_555 1_555
O4A Ce1B 1_555 1_555
O4C Ce1 1_555 1_555
O5B Ce1B 1_555 1_555
O6B C5B 1_555 1_555
O6A Ce1B 1_555 1_555
O6C Ce1 1_555 1_555
O7B C5B 1_555 1_555
O7_2 Ce1B 1_555 1_555
O7B_2 Ce1 1_555 1_555
O8B C1B 1_555 1_555
O9B H2B 1_555 1_555
C1B O2B 1_555 1_555
C2B H7B 1_555 1_555
H8B C2B 1_555 1_555
C3B O1B 1_555 1_555
C4B O3B 1_555 1_555
C5B C2B 1_555 1_555
C6B C4B 1_555 1_555
H9B C6B 1_555 1_555
H10B C6B 1_555 1_555
C7B O5B 1_555 1_555
O9 C7 1_555 1_555
C1 C4 1_555 1_555
C2 C4 1_555 1_555
C6 C7 1_555 1_555
Ce1A_2 O4B 1_555 1_555
Ce1C O2B 1_555 1_555
O4B C3B 1_555 1_555
O9B C7B 1_555 1_555
C1B C4B 1_555 1_555
C2B C4B 1_555 1_555
C6B C7B 1_555 1_555

#END
