
#######################################################################
#
#                 Cambridge Crystallographic Data Centre
#                                CCDC 
#
#######################################################################
#
# If this CIF has been generated from an entry in the Cambridge 
# Structural Database, then it will include bibliographic, chemical, 
# crystal, experimental, refinement or atomic coordinate data resulting 
# from the CCDC's data processing and validation procedures.
#
#######################################################################

data_CAPPIU
_symmetry_cell_setting           monoclinic
_symmetry_space_group_name_H-M   'P 21/c'
_symmetry_Int_Tables_number      14
_space_group_name_Hall           '-P 2ybc'
loop_
_symmetry_equiv_pos_site_id
_symmetry_equiv_pos_as_xyz
1 x,y,z
2 -x,1/2+y,1/2-z
3 -x,-y,-z
4 x,1/2-y,1/2+z
_cell_length_a                   6.3943(13)
_cell_length_b                   7.5253(15)
_cell_length_c                   26.517(6)
_cell_angle_alpha                90
_cell_angle_beta                 98.60(3)
_cell_angle_gamma                90
_cell_volume                     1261.63
loop_
_atom_site_label
_atom_site_type_symbol
_atom_site_fract_x
_atom_site_fract_y
_atom_site_fract_z
Mn1 Mn -0.5000 -0.5000 -0.5000
C1 C -0.5787(8) -0.4859(6) -0.21698(16)
H1 H -0.6904 -0.5273 -0.2406
C2 C -0.5978(9) -0.4758(7) -0.16574(19)
H2 H -0.7229 -0.5107 -0.1547
C3 C -0.4333(11) -0.4147(8) -0.1315(2)
H3 H -0.4473 -0.4098 -0.0971
C4 C -0.2493(10) -0.3606(7) -0.14647(19)
H4 H -0.1395 -0.3174 -0.1227
C5 C -0.2272(8) -0.3706(6) -0.19703(17)
H5 H -0.1011 -0.3346 -0.2074
C6 C -0.3896(7) -0.4331(6) -0.23273(15)
C7 C -0.3479(8) -0.4480(6) -0.28660(16)
C8 C -0.5183(6) -0.4296(5) -0.33111(14)
C9 C -0.7174(7) -0.3613(5) -0.32938(14)
H6 H -0.7546 -0.3220 -0.2987
C10 C -0.8605(7) -0.3519(6) -0.37369(15)
H7 H -0.9969 -0.3099 -0.3731
C11 C -0.7991(7) -0.4053(6) -0.41846(15)
H8 H -0.8974 -0.4001 -0.4481
C12 C -0.4698(6) -0.4767(5) -0.37864(15)
H9 H -0.3345 -0.5193 -0.3803
C13 C -0.7753(6) 0.1362(6) -0.53090(15)
C14 C -0.7931(6) -0.1644(6) -0.53905(14)
O1 O -0.1677(5) -0.4727(6) -0.29401(13)
N1 N -0.6039(5) -0.4651(4) -0.42187(12)
N2 N -0.7138(6) 0.2705(5) -0.51735(14)
N3 N -0.7451(5) -0.3084(5) -0.53301(12)
N4 N -0.8644(7) -0.0063(5) -0.55039(17)
Mn1_2 Mn -0.5000 -1.5000 -0.5000
Mn1_3 Mn -0.5000 0.5000 -0.5000
C1B C -0.4213(8) -0.5141(6) -0.78302(16)
H1B H -0.3096 -0.4727 -0.7594
C2B C -0.4022(9) -0.5242(7) -0.83426(19)
H2B H -0.2771 -0.4893 -0.8453
C3B C -0.5667(11) -0.5853(8) -0.8685(2)
H3B H -0.5527 -0.5902 -0.9029
C4B C -0.7507(10) -0.6394(7) -0.85353(19)
H4B H -0.8605 -0.6826 -0.8773
C5B C -0.7728(8) -0.6294(6) -0.80297(17)
H5B H -0.8989 -0.6654 -0.7926
C6B C -0.6104(7) -0.5669(6) -0.76727(15)
C7B C -0.6521(8) -0.5520(6) -0.71340(16)
C8B C -0.4817(6) -0.5704(5) -0.66889(14)
C9B C -0.2826(7) -0.6387(5) -0.67062(14)
H6B H -0.2454 -0.6780 -0.7013
C10B C -0.1395(7) -0.6481(6) -0.62631(15)
H7B H -0.0031 -0.6901 -0.6269
C11B C -0.2009(7) -0.5947(6) -0.58154(15)
H8B H -0.1026 -0.5999 -0.5519
C12B C -0.5302(6) -0.5233(5) -0.62136(15)
H9B H -0.6655 -0.4807 -0.6197
C13B C -0.2247(6) -1.1362(6) -0.46910(15)
C14B C -0.2069(6) -0.8356(6) -0.46095(14)
O1B O -0.8323(5) -0.5273(6) -0.70599(13)
N1B N -0.3961(5) -0.5349(4) -0.57813(12)
N2B N -0.2862(6) -1.2705(5) -0.48265(14)
N2_2 N -0.7138(6) -0.7295(5) -0.51735(14)
N2B_2 N -0.2862(6) -0.2705(5) -0.48265(14)
N3B N -0.2549(5) -0.6916(5) -0.46699(12)
N4B N -0.1356(7) -0.9937(5) -0.44961(17)
loop_
_geom_bond_atom_site_label_1
_geom_bond_atom_site_label_2
_geom_bond_site_symmetry_1
_geom_bond_site_symmetry_2
Mn1 N1 1_555 1_555
C1 H1 1_555 1_555
C2 C1 1_555 1_555
H2 C2 1_555 1_555
C3 C2 1_555 1_555
H3 C3 1_555 1_555
C4 C3 1_555 1_555
H4 C4 1_555 1_555
C5 C4 1_555 1_555
H5 C5 1_555 1_555
C6 C1 1_555 1_555
C7 C6 1_555 1_555
C8 C7 1_555 1_555
C9 C8 1_555 1_555
H6 C9 1_555 1_555
C10 C9 1_555 1_555
H7 C10 1_555 1_555
C11 C10 1_555 1_555
H8 C11 1_555 1_555
C12 C8 1_555 1_555
H9 C12 1_555 1_555
C13 N2 1_555 1_555
C14 N3 1_555 1_555
O1 C7 1_555 1_555
N1 C11 1_555 1_555
N2 Mn1_3 1_555 1_555
N3 Mn1 1_555 1_555
N4 C13 1_555 1_555
Mn1_2 N2B 1_555 1_555
C1B H1B 1_555 1_555
C2B C1B 1_555 1_555
H2B C2B 1_555 1_555
C3B C2B 1_555 1_555
H3B C3B 1_555 1_555
C4B C3B 1_555 1_555
H4B C4B 1_555 1_555
C5B C4B 1_555 1_555
H5B C5B 1_555 1_555
C6B C1B 1_555 1_555
C7B C6B 1_555 1_555
C8B C7B 1_555 1_555
C9B C8B 1_555 1_555
H6B C9B 1_555 1_555
C10B C9B 1_555 1_555
H7B C10B 1_555 1_555
C11B C10B 1_555 1_555
H8B C11B 1_555 1_555
C12B C8B 1_555 1_555
H9B C12B 1_555 1_555
C13B N2B 1_555 1_555
C14B N3B 1_555 1_555
O1B C7B 1_555 1_555
N1B Mn1 1_555 1_555
N2_2 Mn1 1_555 1_555
N2B_2 Mn1 1_555 1_555
N3B Mn1 1_555 1_555
N4B C13B 1_555 1_555
C5 C6 1_555 1_555
C12 N1 1_555 1_555
C14 N4 1_555 1_555
C5B C6B 1_555 1_555
C11B N1B 1_555 1_555
C12B N1B 1_555 1_555
C14B N4B 1_555 1_555

#END
