
#######################################################################
#
#                 Cambridge Crystallographic Data Centre
#                                CCDC 
#
#######################################################################
#
# If this CIF has been generated from an entry in the Cambridge 
# Structural Database, then it will include bibliographic, chemical, 
# crystal, experimental, refinement or atomic coordinate data resulting 
# from the CCDC's data processing and validation procedures.
#
#######################################################################

data_CAPYOJ
_symmetry_cell_setting           monoclinic
_symmetry_space_group_name_H-M   'P 21/c'
_symmetry_Int_Tables_number      14
_space_group_name_Hall           '-P 2ybc'
loop_
_symmetry_equiv_pos_site_id
_symmetry_equiv_pos_as_xyz
1 x,y,z
2 -x,1/2+y,1/2-z
3 -x,-y,-z
4 x,1/2-y,1/2+z
_cell_length_a                   11.1511(6)
_cell_length_b                   15.0170(8)
_cell_length_c                   16.4209(9)
_cell_angle_alpha                90
_cell_angle_beta                 103.6100(10)
_cell_angle_gamma                90
_cell_volume                     2672.57
loop_
_atom_site_label
_atom_site_type_symbol
_atom_site_fract_x
_atom_site_fract_y
_atom_site_fract_z
Cu1 Cu 1.23628(3) 0.63027(2) -0.06964(2)
Cu2 Cu 1.08681(3) 0.41471(2) 0.13582(2)
N1 N 1.2592(2) 0.50537(15) -0.03659(14)
N2 N 1.3918(2) 0.63514(16) -0.10426(15)
N3 N 1.1882(2) 0.74732(15) -0.11713(14)
N4 N 1.1276(2) 0.63799(15) 0.00963(14)
O1 O 1.18780(19) 0.41066(13) 0.05351(13)
O2 O 1.05657(18) 0.53686(13) 0.09481(12)
O3 O 1.08252(19) 0.51540(14) 0.27751(13)
O4 O 0.95131(19) 0.42536(12) 0.19209(12)
O5 O 0.87913(19) 0.79730(13) 0.32432(13)
O6 O 0.67224(19) 0.80264(13) 0.29890(14)
O9 O 0.4887(4) 0.5117(3) 0.3492(4)
H4 H 0.4348 0.4796 0.3597
O10 O 0.5969(9) 0.3833(5) 0.3701(4)
C3 C 0.5907(6) 0.4630(5) 0.3508(3)
C4 C 1.1948(2) 0.48433(18) 0.01769(17)
C5 C 1.3347(3) 0.44378(19) -0.06646(17)
C6 C 1.4315(3) 0.4754(2) -0.10094(17)
C7 C 1.5094(3) 0.4134(2) -0.12619(19)
H5 H 1.5748 0.4342 -0.1470
C8 C 1.4927(3) 0.3233(2) -0.12132(19)
H6 H 1.5463 0.2836 -0.1380
C9 C 1.3943(3) 0.2926(2) -0.09101(19)
H7 H 1.3799 0.2317 -0.0893
C10 C 1.3171(3) 0.35159(19) -0.06325(18)
H8 H 1.2525 0.3296 -0.0421
C11 C 1.4601(3) 0.5683(2) -0.11124(17)
H9 H 1.5352 0.5806 -0.1242
C12 C 1.4379(3) 0.7251(2) -0.1140(2)
H10 H 1.5224 0.7214 -0.1197
H11 H 1.4376 0.7597 -0.0642
C13 C 1.3597(3) 0.7719(2) -0.1900(2)
H12 H 1.3776 0.7461 -0.2400
H13 H 1.3838 0.8341 -0.1881
C14 C 1.2202(3) 0.76678(19) -0.19757(18)
H14 H 1.1830 0.8230 -0.2191
H15 H 1.1856 0.7207 -0.2377
C15 C 1.1232(3) 0.80368(19) -0.08880(18)
H16 H 1.1076 0.8572 -0.1178
C16 C 1.0703(3) 0.79423(19) -0.01640(17)
C17 C 1.0701(2) 0.71573(18) 0.03161(17)
C18 C 1.0131(3) 0.71927(19) 0.09881(18)
H17 H 1.0137 0.6689 0.1319
C19 C 0.9560(3) 0.7961(2) 0.11728(19)
H18 H 0.9202 0.7969 0.1631
C20 C 0.9514(3) 0.87169(19) 0.06827(19)
H19 H 0.9107 0.9226 0.0795
C21 C 1.0089(3) 0.86957(19) 0.00253(19)
H20 H 1.0065 0.9202 -0.0304
C22 C 1.1197(2) 0.55960(19) 0.04354(17)
C23 C 0.8713(3) 0.52695(19) 0.27721(17)
C24 C 0.8677(3) 0.61919(19) 0.28133(17)
H21 H 0.9299 0.6525 0.2670
C25 C 0.7727(3) 0.66233(19) 0.30652(18)
C26 C 0.6813(3) 0.6122(2) 0.3290(2)
H22 H 0.6164 0.6405 0.3450
C27 C 0.6862(3) 0.5199(2) 0.3277(2)
C28 C 0.7804(3) 0.4771(2) 0.30071(19)
H23 H 0.7824 0.4152 0.2984
C29 C 0.9771(3) 0.48649(19) 0.24793(18)
C30 C 0.7707(3) 0.76203(19) 0.31022(18)
Cu2A Cu 0.91319(3) 0.91471(2) 0.36418(2)
O5A O 1.12087(19) 0.29730(13) 0.17568(13)
O11 O 0.2968(4) 0.4175(3) 0.3271(3)
O12 O 1.2989(5) 0.4838(3) 0.2250(3)
O7? O 0.5251(5) 0.5151(4) 0.4029(4)
O8? O 0.5833(11) 0.3868(6) 0.3343(5)
C1? C 0.5897(6) 0.4663(6) 0.3566(4)
C2? C 0.4276(6) 0.4667(6) 0.4339(5)
H1? H 0.3765 0.4338 0.3887
H2? H 0.3779 0.5088 0.4553
H3? H 0.4657 0.4264 0.4778
loop_
_geom_bond_atom_site_label_1
_geom_bond_atom_site_label_2
_geom_bond_site_symmetry_1
_geom_bond_site_symmetry_2
Cu1 N1 1_555 1_555
Cu2 O1 1_555 1_555
N1 C4 1_555 1_555
N2 Cu1 1_555 1_555
N3 Cu1 1_555 1_555
N4 Cu1 1_555 1_555
O1 C4 1_555 1_555
O2 Cu2 1_555 1_555
O3 C29 1_555 1_555
O4 Cu2 1_555 1_555
O5 C30 1_555 1_555
O6 C30 1_555 1_555
O9 H4 1_555 1_555
O10 C3 1_555 1_555
C3 O9 1_555 1_555
C4 C22 1_555 1_555
C5 N1 1_555 1_555
C6 C5 1_555 1_555
C7 C6 1_555 1_555
H5 C7 1_555 1_555
C8 C7 1_555 1_555
H6 C8 1_555 1_555
C9 C8 1_555 1_555
H7 C9 1_555 1_555
C10 C5 1_555 1_555
H8 C10 1_555 1_555
C11 N2 1_555 1_555
H9 C11 1_555 1_555
C12 N2 1_555 1_555
H10 C12 1_555 1_555
H11 C12 1_555 1_555
C13 C12 1_555 1_555
H12 C13 1_555 1_555
H13 C13 1_555 1_555
C14 N3 1_555 1_555
H14 C14 1_555 1_555
H15 C14 1_555 1_555
C15 N3 1_555 1_555
H16 C15 1_555 1_555
C16 C15 1_555 1_555
C17 N4 1_555 1_555
C18 C17 1_555 1_555
H17 C18 1_555 1_555
C19 C18 1_555 1_555
H18 C19 1_555 1_555
C20 C19 1_555 1_555
H19 C20 1_555 1_555
C21 C16 1_555 1_555
H20 C21 1_555 1_555
C22 N4 1_555 1_555
C23 C24 1_555 1_555
C24 H21 1_555 1_555
C25 C24 1_555 1_555
C26 C25 1_555 1_555
H22 C26 1_555 1_555
C27 C3 1_555 1_555
C28 C23 1_555 1_555
H23 C28 1_555 1_555
C29 O4 1_555 1_555
C30 C25 1_555 1_555
Cu2A O5 1_555 1_555
O5A Cu2 1_555 1_555
O2 C22 1_555 1_555
C6 C11 1_555 1_555
C9 C10 1_555 1_555
C13 C14 1_555 1_555
C16 C17 1_555 1_555
C20 C21 1_555 1_555
C23 C29 1_555 1_555
C26 C27 1_555 1_555
C27 C28 1_555 1_555

#END
