
#######################################################################
#
#                 Cambridge Crystallographic Data Centre
#                                CCDC 
#
#######################################################################
#
# If this CIF has been generated from an entry in the Cambridge 
# Structural Database, then it will include bibliographic, chemical, 
# crystal, experimental, refinement or atomic coordinate data resulting 
# from the CCDC's data processing and validation procedures.
#
#######################################################################

data_CAPYAV
_symmetry_cell_setting           monoclinic
_symmetry_space_group_name_H-M   'P 21/c'
_symmetry_Int_Tables_number      14
_space_group_name_Hall           '-P 2ybc'
loop_
_symmetry_equiv_pos_site_id
_symmetry_equiv_pos_as_xyz
1 x,y,z
2 -x,1/2+y,1/2-z
3 -x,-y,-z
4 x,1/2-y,1/2+z
_cell_length_a                   10.6397(6)
_cell_length_b                   10.0825(6)
_cell_length_c                   23.8075(13)
_cell_angle_alpha                90
_cell_angle_beta                 91.0220(10)
_cell_angle_gamma                90
_cell_volume                     2553.54
loop_
_atom_site_label
_atom_site_type_symbol
_atom_site_fract_x
_atom_site_fract_y
_atom_site_fract_z
Cu1 Cu 0.26799(3) 0.95065(3) -0.094023(12)
Cu2 Cu 0.39724(3) 0.87914(3) 0.116407(12)
O1 O 0.28761(17) 0.99599(18) 0.07169(7)
O2 O 0.4197(2) 0.79308(19) 0.04384(7)
O3 O 0.3435(2) 1.1609(2) -0.10761(9)
O4 O 0.50023(19) 1.24936(19) -0.15475(7)
O5 O 0.37469(18) 1.5212(2) -0.31628(7)
O6 O 0.2175(2) 1.6633(2) -0.31008(8)
N1 N 0.21859(19) 1.0198(2) -0.02079(8)
N2 N 0.38789(19) 0.8375(2) -0.05088(8)
N3 N 0.3278(2) 0.8899(2) -0.16672(9)
N4 N 0.0984(2) 0.9847(2) -0.12556(9)
C1 C 0.2863(2) 0.9686(2) 0.01983(10)
C2 C 0.3735(2) 0.8564(2) 0.00303(10)
C3 C 0.4684(2) 0.7381(3) -0.07236(11)
C4 C 0.5420(3) 0.6550(3) -0.03912(14)
H1 H 0.5402 0.6642 -0.0003
C5 C 0.6180(3) 0.5589(3) -0.06215(17)
H2 H 0.6654 0.5041 -0.0386
C6 C 0.6247(3) 0.5433(3) -0.11905(17)
H3 H 0.6758 0.4783 -0.1344
C7 C 0.5549(3) 0.6251(3) -0.15286(15)
H4 H 0.5601 0.6156 -0.1916
C8 C 0.4754(3) 0.7230(3) -0.13132(11)
C9 C 0.4096(3) 0.8006(3) -0.17341(11)
H5 H 0.4301 0.7824 -0.2104
C10 C 0.2818(3) 0.9603(4) -0.21701(12)
H6 H 0.3234 0.9245 -0.2496
H7 H 0.3046 1.0531 -0.2138
C11 C 0.1419(4) 0.9500(5) -0.22614(15)
H8 H 0.1263 0.8859 -0.2558
H9 H 0.1118 1.0352 -0.2397
C12 C 0.0641(3) 0.9111(4) -0.17652(14)
H10 H -0.0239 0.9266 -0.1855
H11 H 0.0748 0.8169 -0.1695
C13 C 0.0175(3) 1.0618(3) -0.10411(13)
H12 H -0.0597 1.0685 -0.1228
C14 C 0.0336(2) 1.1399(3) -0.05378(12)
C15 C -0.0554(3) 1.2402(3) -0.04581(15)
H13 H -0.1201 1.2513 -0.0722
C16 C -0.0490(3) 1.3222(3) -0.00003(17)
H14 H -0.1094 1.3877 0.0050
C17 C 0.0483(4) 1.3063(3) 0.03859(16)
H15 H 0.0547 1.3638 0.0691
C18 C 0.1356(3) 1.2074(3) 0.03280(13)
H16 H 0.1989 1.1972 0.0599
C19 C 0.1307(2) 1.1222(2) -0.01297(11)
C20 C 0.3028(2) 1.3519(3) -0.16235(10)
C21 C 0.3296(2) 1.4129(3) -0.21270(10)
H17 H 0.4018 1.3884 -0.2316
C22 C 0.2522(2) 1.5089(3) -0.23567(10)
C23 C 0.1463(3) 1.5460(3) -0.20677(13)
H18 H 0.0934 1.6116 -0.2212
C24 C 0.1191(4) 1.4855(4) -0.15656(16)
H19 H 0.0479 1.5112 -0.1372
C25 C 0.1951(3) 1.3885(3) -0.13460(13)
H20 H 0.1745 1.3472 -0.1011
C26 C 0.3863(3) 1.2456(3) -0.13941(10)
C27 C 0.2813(3) 1.5711(3) -0.29095(11)
Cu2B Cu 0.60276(3) 1.12086(3) -0.116407(12)
Cu2C Cu 0.39724(3) 1.62086(3) -0.383593(12)
O4B O 0.49977(19) 0.75064(19) 0.15475(7)
O5C O 0.37469(18) 0.9788(2) 0.18372(7)
O6C O 0.2175(2) 0.8367(2) 0.18992(8)
loop_
_geom_bond_atom_site_label_1
_geom_bond_atom_site_label_2
_geom_bond_site_symmetry_1
_geom_bond_site_symmetry_2
Cu1 O3 1_555 1_555
Cu2 O1 1_555 1_555
O1 C1 1_555 1_555
O2 Cu2 1_555 1_555
O3 C26 1_555 1_555
O4 C26 1_555 1_555
O5 C27 1_555 1_555
O6 C27 1_555 1_555
N1 Cu1 1_555 1_555
N2 Cu1 1_555 1_555
N3 Cu1 1_555 1_555
N4 Cu1 1_555 1_555
C1 N1 1_555 1_555
C2 O2 1_555 1_555
C3 N2 1_555 1_555
C4 C3 1_555 1_555
H1 C4 1_555 1_555
C5 C4 1_555 1_555
H2 C5 1_555 1_555
C6 C5 1_555 1_555
H3 C6 1_555 1_555
C7 C6 1_555 1_555
H4 C7 1_555 1_555
C8 C3 1_555 1_555
C9 N3 1_555 1_555
H5 C9 1_555 1_555
C10 N3 1_555 1_555
H6 C10 1_555 1_555
H7 C10 1_555 1_555
C11 C10 1_555 1_555
H8 C11 1_555 1_555
H9 C11 1_555 1_555
C12 N4 1_555 1_555
H10 C12 1_555 1_555
H11 C12 1_555 1_555
C13 N4 1_555 1_555
H12 C13 1_555 1_555
C14 C13 1_555 1_555
C15 C14 1_555 1_555
H13 C15 1_555 1_555
C16 C15 1_555 1_555
H14 C16 1_555 1_555
C17 C16 1_555 1_555
H15 C17 1_555 1_555
C18 C17 1_555 1_555
H16 C18 1_555 1_555
C19 N1 1_555 1_555
C20 C21 1_555 1_555
C21 H17 1_555 1_555
C22 C21 1_555 1_555
C23 C22 1_555 1_555
H18 C23 1_555 1_555
C24 C23 1_555 1_555
H19 C24 1_555 1_555
C25 C20 1_555 1_555
H20 C25 1_555 1_555
C26 C20 1_555 1_555
C27 C22 1_555 1_555
Cu2B O4 1_555 1_555
Cu2C O5 1_555 1_555
O4B Cu2 1_555 1_555
O5C Cu2 1_555 1_555
O6C Cu2 1_555 1_555
O6 Cu2C 1_555 1_555
N2 C2 1_555 1_555
C1 C2 1_555 1_555
C7 C8 1_555 1_555
C8 C9 1_555 1_555
C11 C12 1_555 1_555
C14 C19 1_555 1_555
C18 C19 1_555 1_555
C24 C25 1_555 1_555

#END
