
#######################################################################
#
#                 Cambridge Crystallographic Data Centre
#                                CCDC 
#
#######################################################################
#
# If this CIF has been generated from an entry in the Cambridge 
# Structural Database, then it will include bibliographic, chemical, 
# crystal, experimental, refinement or atomic coordinate data resulting 
# from the CCDC's data processing and validation procedures.
#
#######################################################################

data_CAPYEZ
_symmetry_cell_setting           triclinic
_symmetry_space_group_name_H-M   'P -1'
_symmetry_Int_Tables_number      2
_space_group_name_Hall           '-P 1'
loop_
_symmetry_equiv_pos_site_id
_symmetry_equiv_pos_as_xyz
1 x,y,z
2 -x,-y,-z
_cell_length_a                   12.5851(10)
_cell_length_b                   17.2635(13)
_cell_length_c                   19.2079(15)
_cell_angle_alpha                75.3620(10)
_cell_angle_beta                 73.7590(10)
_cell_angle_gamma                84.6990(10)
_cell_volume                     3875.52
loop_
_atom_site_label
_atom_site_type_symbol
_atom_site_fract_x
_atom_site_fract_y
_atom_site_fract_z
Cu1 Cu 1.03934(5) 0.75704(4) 0.00922(4)
Cu2 Cu 1.03175(6) 0.10058(5) 0.35816(5)
Cu3 Cu -0.01657(4) 0.55361(4) 0.31595(3)
Mn1 Mn 0.62226(6) 0.65739(4) 0.07222(4)
Mn2 Mn 0.41858(5) 0.51916(4) 0.32477(4)
Mn3 Mn 0.58995(6) 0.06324(4) 0.40005(4)
O1 O 0.7738(3) 0.6711(3) -0.0131(2)
O2 O 0.7377(3) 0.6852(3) 0.1242(2)
O3 O 0.3101(3) 0.5224(2) 0.24951(19)
O4 O 0.2529(3) 0.5550(2) 0.38128(19)
O5 O 0.7562(3) 0.0471(2) 0.3232(2)
O6 O 0.7117(3) 0.0711(2) 0.4579(2)
O7 O 0.5552(3) 0.50865(19) 0.23524(17)
O8 O 0.6169(4) 0.5316(2) 0.1128(2)
O9 O 0.6177(3) 0.2028(2) 0.3442(2)
O10 O 0.5421(3) 0.1242(2) 0.2997(2)
O11 O 0.4262(4) 0.2201(3) 0.0716(3)
O12 O 0.4578(3) 0.3454(3) 0.0055(2)
O13 O 0.4525(3) 0.08952(19) 0.4848(2)
O14 O 0.4510(4) 0.0511(2) 0.6040(2)
O15 O 0.3958(3) 0.3849(2) 0.38449(19)
O16 O 0.4652(3) 0.46758(19) 0.42861(19)
O17 O 0.5308(4) 0.3654(2) 0.6860(2)
O18 O 0.5576(7) 0.2399(4) 0.7229(4)
O19 O 0.4807(4) 0.6779(3) 0.1558(2)
H1 H 0.4499 0.7301 0.1397
H2 H 0.5015 0.6749 0.2009
O20 O 0.6150(8) 0.8040(6) 0.0437(5)
H3 H 0.5748 0.8237 0.0068
H4 H 0.6890 0.8237 0.0246
N1 N 0.9509(3) 0.7194(3) -0.0432(2)
N2 N 1.1463(4) 0.8105(3) -0.0821(3)
N3 N 1.1433(4) 0.7534(3) 0.0681(3)
N4 N 0.9114(3) 0.7375(3) 0.0954(2)
N5 N 0.9424(4) 0.0647(3) 0.3060(3)
N6 N 1.1444(5) 0.1442(4) 0.2676(4)
N7 N 1.1303(4) 0.1014(3) 0.4191(4)
N8 N 0.8973(4) 0.0944(3) 0.4399(3)
N9 N 0.1273(3) 0.5439(2) 0.2422(2)
N10 N -0.1032(3) 0.5468(3) 0.2480(2)
N11 N -0.1449(3) 0.5315(3) 0.4063(2)
N12 N 0.0737(3) 0.5823(2) 0.3723(2)
C1 C 0.8510(4) 0.6988(3) 0.0008(3)
C2 C 0.9879(4) 0.7097(3) -0.1176(3)
C3 C 1.0857(4) 0.7482(3) -0.1660(3)
C4 C 1.1225(5) 0.7396(4) -0.2393(3)
H5 H 1.1862 0.7655 -0.2706
C5 C 1.0676(5) 0.6942(4) -0.2667(3)
H6 H 1.0937 0.6889 -0.3156
C6 C 0.9720(5) 0.6561(4) -0.2195(3)
H7 H 0.9340 0.6251 -0.2373
C7 C 0.9323(5) 0.6638(3) -0.1463(3)
H8 H 0.8679 0.6381 -0.1160
C8 C 1.1530(5) 0.8006(4) -0.1471(4)
H9 H 1.2064 0.8298 -0.1866
C9 C 1.2165(5) 0.8699(4) -0.0759(4)
H10 H 1.1700 0.9128 -0.0583
H11 H 1.2637 0.8928 -0.1250
C10 C 1.2884(5) 0.8356(5) -0.0234(4)
H12 H 1.3643 0.8331 -0.0532
H13 H 1.2857 0.8728 0.0074
C11 C 1.2602(5) 0.7555(4) 0.0264(4)
H14 H 1.2754 0.7157 -0.0030
H15 H 1.3060 0.7425 0.0611
C12 C 1.1160(5) 0.7457(3) 0.1378(4)
H16 H 1.1740 0.7378 0.1602
C13 C 1.0050(5) 0.7478(3) 0.1879(3)
C14 C 0.9053(5) 0.7470(3) 0.1675(3)
C15 C 0.8066(5) 0.7561(4) 0.2199(4)
H17 H 0.7404 0.7582 0.2068
C16 C 0.8028(6) 0.7621(4) 0.2909(4)
H18 H 0.7353 0.7684 0.3246
C17 C 0.8999(6) 0.7588(4) 0.3112(4)
H19 H 0.8983 0.7612 0.3593
C18 C 0.9973(6) 0.7521(4) 0.2611(4)
H20 H 1.0622 0.7502 0.2757
C19 C 0.8287(4) 0.7091(3) 0.0809(3)
C20 C 0.8365(5) 0.0619(3) 0.3422(3)
C21 C 0.9811(5) 0.0447(4) 0.2360(4)
C22 C 1.0827(7) 0.0796(5) 0.1869(5)
C23 C 1.1199(9) 0.0636(7) 0.1154(6)
H21 H 1.1827 0.0885 0.0817
C24 C 1.0660(10) 0.0130(8) 0.0953(6)
H22 H 1.0921 0.0035 0.0478
C25 C 0.9688(9) -0.0267(6) 0.1457(6)
H23 H 0.9346 -0.0642 0.1325
C26 C 0.9264(6) -0.0077(4) 0.2155(4)
H24 H 0.8613 -0.0306 0.2478
C27 C 1.1509(6) 0.1309(5) 0.2051(6)
H25 H 1.2066 0.1574 0.1655
C28 C 1.2148(12) 0.2030(7) 0.2765(10)
H26 H 1.1683 0.2497 0.2842
H27 H 1.2696 0.2194 0.2290
C29 C 1.2757(14) 0.1827(14) 0.3356(11)
H28 H 1.2569 0.2223 0.3652
H29 H 1.3547 0.1851 0.3120
C30 C 1.2492(10) 0.1011(15) 0.3860(17)
H30 H 1.2705 0.0603 0.3577
H31 H 1.2884 0.0904 0.4244
C31 C 1.0983(6) 0.1001(4) 0.4884(5)
H32 H 1.1545 0.0962 0.5120
C32 C 0.9857(6) 0.1040(4) 0.5361(4)
C33 C 0.8881(5) 0.1044(4) 0.5129(4)
C34 C 0.7874(6) 0.1144(5) 0.5643(4)
H33 H 0.7219 0.1172 0.5502
C35 C 0.7831(7) 0.1202(5) 0.6359(4)
H34 H 0.7151 0.1263 0.6693
C36 C 0.8789(8) 0.1171(5) 0.6576(5)
H35 H 0.8761 0.1197 0.7058
C37 C 0.9748(7) 0.1102(4) 0.6093(5)
H36 H 1.0389 0.1094 0.6246
C38 C 0.8108(4) 0.0779(3) 0.4205(3)
C39 C 0.2098(4) 0.5391(3) 0.2739(3)
C40 C 0.1456(4) 0.5398(3) 0.1671(3)
C41 C 0.0543(4) 0.5457(3) 0.1377(3)
C42 C 0.0726(5) 0.5463(3) 0.0613(3)
H37 H 0.0120 0.5522 0.0414
C43 C 0.1747(6) 0.5387(4) 0.0163(3)
H38 H 0.1847 0.5395 -0.0337
C44 C 0.2631(6) 0.5297(5) 0.0460(3)
H39 H 0.3336 0.5227 0.0160
C45 C 0.2504(5) 0.5309(4) 0.1196(3)
H40 H 0.3125 0.5257 0.1378
C46 C -0.0599(4) 0.5463(3) 0.1792(3)
H41 H -0.1104 0.5464 0.1519
C47 C -0.2250(7) 0.5486(10) 0.2778(9)
H42 H -0.2599 0.5489 0.2386
H43 H -0.2487 0.5968 0.2957
C48 C -0.2583(8) 0.4762(7) 0.3403(6)
H44 H -0.2144 0.4302 0.3271
H45 H -0.3354 0.4656 0.3474
C49 C -0.2428(15) 0.4865(12) 0.4122(9)
H46 H -0.3084 0.5135 0.4366
H47 H -0.2383 0.4337 0.4444
C50 C -0.1540(4) 0.5590(3) 0.4638(3)
H48 H -0.2209 0.5496 0.5004
C51 C -0.0738(4) 0.6026(3) 0.4794(3)
C52 C 0.0364(4) 0.6135(3) 0.4371(3)
C53 C 0.1035(5) 0.6581(3) 0.4570(3)
H49 H 0.1758 0.6677 0.4279
C54 C 0.0644(5) 0.6889(4) 0.5201(3)
H50 H 0.1103 0.7189 0.5331
C55 C -0.0432(6) 0.6747(4) 0.5635(4)
H51 H -0.0684 0.6932 0.6068
C56 C -0.1121(5) 0.6339(4) 0.5433(3)
H52 H -0.1851 0.6266 0.5717
C57 C 0.1775(4) 0.5600(3) 0.3500(3)
C58 C 0.5569(4) 0.4022(3) 0.1771(2)
C59 C 0.5743(4) 0.3392(3) 0.2348(2)
H53 H 0.5980 0.3498 0.2731
C60 C 0.5568(4) 0.2612(3) 0.2356(3)
C61 C 0.5193(4) 0.2461(3) 0.1783(3)
H54 H 0.5069 0.1936 0.1787
C62 C 0.5004(4) 0.3076(3) 0.1215(3)
C63 C 0.5208(4) 0.3860(3) 0.1202(2)
H55 H 0.5102 0.4277 0.0812
C64 C 0.5771(4) 0.4874(3) 0.1747(3)
C65 C 0.5737(4) 0.1922(3) 0.2969(3)
C66 C 0.4581(4) 0.2892(4) 0.0610(3)
C67 C 0.4650(4) 0.1891(3) 0.5480(3)
C68 C 0.4452(4) 0.2518(3) 0.4920(3)
H56 H 0.4247 0.2413 0.4524
C69 C 0.4558(4) 0.3306(3) 0.4944(2)
C70 C 0.4869(4) 0.3465(3) 0.5534(3)
H57 H 0.4951 0.3991 0.5547
C71 C 0.5059(4) 0.2830(3) 0.6108(3)
C72 C 0.4952(4) 0.2054(3) 0.6072(3)
H58 H 0.5084 0.1631 0.6451
C73 C 0.4553(4) 0.1044(3) 0.5456(3)
C74 C 0.4380(4) 0.3978(3) 0.4324(3)
C75 C 0.5352(6) 0.2985(3) 0.6764(3)
Mn1A Mn 0.37774(6) 0.34261(4) -0.07222(4)
Mn2A Mn 0.58142(5) 0.48084(4) 0.67523(4)
Mn3A Mn 0.41005(6) -0.06324(4) 0.59995(4)
O12A O 0.5422(3) 0.6546(3) -0.0055(2)
O14A O 0.5490(4) -0.0511(2) 0.3960(2)
O17A O 0.4692(4) 0.6346(2) 0.3140(2)
O21 O 0.7194(5) 0.2820(4) 0.4186(4)
O22 O 0.6683(10) 0.1820(10) 0.8290(7)
O23 O 0.5777(15) 0.9912(9) 0.2220(6)
O24 O 0.2813(12) 0.3500(11) 0.2877(11)
O25 O 0.4206(14) 0.0536(8) 0.1370(11)
O26 O 0.7162(17) 0.9335(13) 0.0675(12)
C76? C 1.241(3) 0.192(2) 0.249(3)
C77? C 1.296(5) 0.148(4) 0.308(4)
C78? C 1.244(4) 0.088(5) 0.379(6)
C79? C -0.2195(11) 0.525(2) 0.2670(13)
C80? C -0.2837(13) 0.5324(12) 0.3435(9)
C81? C -0.234(2) 0.4837(16) 0.4039(16)
H59? H 1.2204 0.2467 0.2537
H60? H 1.2871 0.1927 0.1997
H61? H 1.3252 0.1889 0.3237
H62? H 1.3594 0.1203 0.2825
H63? H 1.2488 0.0365 0.3673
H64? H 1.2896 0.0848 0.4131
H65? H -0.2225 0.4699 0.2637
H66? H -0.2544 0.5588 0.2307
H67? H -0.3588 0.5154 0.3531
H68? H -0.2873 0.5883 0.3452
H69? H -0.2894 0.4731 0.4516
H70? H -0.2045 0.4330 0.3927
loop_
_geom_bond_atom_site_label_1
_geom_bond_atom_site_label_2
_geom_bond_site_symmetry_1
_geom_bond_site_symmetry_2
Cu1 N1 1_555 1_555
Cu2 N5 1_555 1_555
Cu3 N9 1_555 1_555
Mn1 O1 1_555 1_555
Mn2 O3 1_555 1_555
Mn3 O5 1_555 1_555
O1 C1 1_555 1_555
O2 Mn1 1_555 1_555
O3 C39 1_555 1_555
O4 Mn2 1_555 1_555
O5 C20 1_555 1_555
O6 Mn3 1_555 1_555
O7 Mn2 1_555 1_555
O8 Mn1 1_555 1_555
O9 Mn3 1_555 1_555
O10 Mn3 1_555 1_555
O11 C66 1_555 1_555
O12 C66 1_555 1_555
O13 Mn3 1_555 1_555
O14 C73 1_555 1_555
O15 Mn2 1_555 1_555
O16 Mn2 1_555 1_555
O17 C75 1_555 1_555
O18 C75 1_555 1_555
O19 Mn1 1_555 1_555
H1 O19 1_555 1_555
H2 O19 1_555 1_555
O20 Mn1 1_555 1_555
H3 O20 1_555 1_555
H4 O20 1_555 1_555
N1 C1 1_555 1_555
N2 Cu1 1_555 1_555
N3 Cu1 1_555 1_555
N4 Cu1 1_555 1_555
N5 C20 1_555 1_555
N6 Cu2 1_555 1_555
N7 Cu2 1_555 1_555
N8 Cu2 1_555 1_555
N9 C39 1_555 1_555
N10 Cu3 1_555 1_555
N11 Cu3 1_555 1_555
N12 Cu3 1_555 1_555
C1 C19 1_555 1_555
C2 N1 1_555 1_555
C3 C2 1_555 1_555
C4 C3 1_555 1_555
H5 C4 1_555 1_555
C5 C4 1_555 1_555
H6 C5 1_555 1_555
C6 C5 1_555 1_555
H7 C6 1_555 1_555
C7 C2 1_555 1_555
H8 C7 1_555 1_555
C8 N2 1_555 1_555
H9 C8 1_555 1_555
C9 N2 1_555 1_555
H10 C9 1_555 1_555
H11 C9 1_555 1_555
C10 C9 1_555 1_555
H12 C10 1_555 1_555
H13 C10 1_555 1_555
C11 N3 1_555 1_555
H14 C11 1_555 1_555
H15 C11 1_555 1_555
C12 N3 1_555 1_555
H16 C12 1_555 1_555
C13 C12 1_555 1_555
C14 N4 1_555 1_555
C15 C14 1_555 1_555
H17 C15 1_555 1_555
C16 C15 1_555 1_555
H18 C16 1_555 1_555
C17 C16 1_555 1_555
H19 C17 1_555 1_555
C18 C13 1_555 1_555
H20 C18 1_555 1_555
C19 O2 1_555 1_555
C20 C38 1_555 1_555
C21 N5 1_555 1_555
C22 C21 1_555 1_555
C23 C22 1_555 1_555
H21 C23 1_555 1_555
C24 C23 1_555 1_555
H22 C24 1_555 1_555
C25 C24 1_555 1_555
H23 C25 1_555 1_555
C26 C21 1_555 1_555
H24 C26 1_555 1_555
C27 N6 1_555 1_555
H25 C27 1_555 1_555
C28 N6 1_555 1_555
H26 C28 1_555 1_555
H27 C28 1_555 1_555
C29 C28 1_555 1_555
H28 C29 1_555 1_555
H29 C29 1_555 1_555
C30 N7 1_555 1_555
H30 C30 1_555 1_555
H31 C30 1_555 1_555
C31 N7 1_555 1_555
H32 C31 1_555 1_555
C32 C31 1_555 1_555
C33 N8 1_555 1_555
C34 C33 1_555 1_555
H33 C34 1_555 1_555
C35 C34 1_555 1_555
H34 C35 1_555 1_555
C36 C35 1_555 1_555
H35 C36 1_555 1_555
C37 C32 1_555 1_555
H36 C37 1_555 1_555
C38 O6 1_555 1_555
C39 C57 1_555 1_555
C40 N9 1_555 1_555
C41 C40 1_555 1_555
C42 C41 1_555 1_555
H37 C42 1_555 1_555
C43 C42 1_555 1_555
H38 C43 1_555 1_555
C44 C43 1_555 1_555
H39 C44 1_555 1_555
C45 C40 1_555 1_555
H40 C45 1_555 1_555
C46 N10 1_555 1_555
H41 C46 1_555 1_555
C47 N10 1_555 1_555
H42 C47 1_555 1_555
H43 C47 1_555 1_555
C48 C47 1_555 1_555
H44 C48 1_555 1_555
H45 C48 1_555 1_555
C49 N11 1_555 1_555
H46 C49 1_555 1_555
H47 C49 1_555 1_555
C50 N11 1_555 1_555
H48 C50 1_555 1_555
C51 C50 1_555 1_555
C52 N12 1_555 1_555
C53 C52 1_555 1_555
H49 C53 1_555 1_555
C54 C53 1_555 1_555
H50 C54 1_555 1_555
C55 C54 1_555 1_555
H51 C55 1_555 1_555
C56 C51 1_555 1_555
H52 C56 1_555 1_555
C57 O4 1_555 1_555
C58 C59 1_555 1_555
C59 H53 1_555 1_555
C60 C59 1_555 1_555
C61 C60 1_555 1_555
H54 C61 1_555 1_555
C62 C61 1_555 1_555
C63 C58 1_555 1_555
H55 C63 1_555 1_555
C64 O7 1_555 1_555
C65 O9 1_555 1_555
C66 C62 1_555 1_555
C67 C68 1_555 1_555
C68 H56 1_555 1_555
C69 C68 1_555 1_555
C70 C69 1_555 1_555
H57 C70 1_555 1_555
C71 C70 1_555 1_555
C72 C67 1_555 1_555
H58 C72 1_555 1_555
C73 O13 1_555 1_555
C74 O15 1_555 1_555
C75 C71 1_555 1_555
Mn1A O12 1_555 1_555
Mn2A O17 1_555 1_555
Mn3A O14 1_555 1_555
O12A Mn1 1_555 1_555
O14A Mn3 1_555 1_555
O17A Mn2 1_555 1_555
O8 C64 1_555 1_555
O10 C65 1_555 1_555
O16 C74 1_555 1_555
N4 C19 1_555 1_555
N8 C38 1_555 1_555
N12 C57 1_555 1_555
C3 C8 1_555 1_555
C6 C7 1_555 1_555
C10 C11 1_555 1_555
C13 C14 1_555 1_555
C17 C18 1_555 1_555
C22 C27 1_555 1_555
C25 C26 1_555 1_555
C29 C30 1_555 1_555
C32 C33 1_555 1_555
C36 C37 1_555 1_555
C41 C46 1_555 1_555
C44 C45 1_555 1_555
C48 C49 1_555 1_555
C51 C52 1_555 1_555
C55 C56 1_555 1_555
C58 C64 1_555 1_555
C60 C65 1_555 1_555
C62 C63 1_555 1_555
C67 C73 1_555 1_555
C69 C74 1_555 1_555
C71 C72 1_555 1_555

#END
