
#######################################################################
#
#                 Cambridge Crystallographic Data Centre
#                                CCDC 
#
#######################################################################
#
# If this CIF has been generated from an entry in the Cambridge 
# Structural Database, then it will include bibliographic, chemical, 
# crystal, experimental, refinement or atomic coordinate data resulting 
# from the CCDC's data processing and validation procedures.
#
#######################################################################

data_CAQDOO
_symmetry_cell_setting           triclinic
_symmetry_space_group_name_H-M   'P -1'
_symmetry_Int_Tables_number      2
_space_group_name_Hall           '-P 1'
loop_
_symmetry_equiv_pos_site_id
_symmetry_equiv_pos_as_xyz
1 x,y,z
2 -x,-y,-z
_cell_length_a                   8.7129(17)
_cell_length_b                   14.900(3)
_cell_length_c                   16.791(3)
_cell_angle_alpha                81.59(3)
_cell_angle_beta                 86.29(3)
_cell_angle_gamma                84.59(3)
_cell_volume                     2143.93
loop_
_atom_site_label
_atom_site_type_symbol
_atom_site_fract_x
_atom_site_fract_y
_atom_site_fract_z
Gd1 Gd 0.680315(9) 0.738607(5) 0.220421(5)
Cu1 Cu 0.41878(3) 0.906879(16) 0.492170(14)
O1 O 0.50292(16) 0.83297(10) 0.41142(8)
O2 O 0.45976(16) 0.80281(9) 0.28966(8)
N1 N 0.26856(19) 0.95536(11) 0.41173(10)
C1 C 0.4260(2) 0.84334(12) 0.34882(11)
C2 C 0.2866(2) 0.91038(13) 0.34696(11)
C3 C 0.1845(2) 0.92691(15) 0.28629(13)
H1 H 0.1990 0.8956 0.2420
C4 C 0.0601(3) 0.99075(16) 0.29208(15)
H2 H -0.0111 1.0026 0.2521
C5 C 0.0434(3) 1.03686(16) 0.35845(15)
H3 H -0.0396 1.0801 0.3635
C6 C 0.1499(2) 1.01841(14) 0.41678(13)
H4 H 0.1393 1.0504 0.4607
Cu2 Cu 1.0000 0.5000 0.5000
O3 O 0.33964(19) 0.98549(10) 0.57065(9)
O4 O 0.3236(2) 0.98495(12) 0.70419(10)
N2 N 0.54709(19) 0.84771(11) 0.57898(10)
C7 C 0.3751(3) 0.95316(14) 0.64315(13)
C8 C 0.4952(2) 0.87404(14) 0.65048(12)
C9 C 0.5543(3) 0.83287(16) 0.72152(14)
H5 H 0.5151 0.8504 0.7703
C10 C 0.6740(3) 0.76426(18) 0.71963(16)
H6 H 0.7150 0.7344 0.7671
C11 C 0.7299(3) 0.74166(17) 0.64681(16)
H7 H 0.8128 0.6979 0.6442
C12 C 0.6639(2) 0.78355(15) 0.57731(14)
H8 H 0.7016 0.7667 0.5281
O5 O 0.93255(18) 0.56810(11) 0.39828(9)
O6 O 0.73271(19) 0.65354(10) 0.34481(9)
N3 N 0.7863(2) 0.53208(12) 0.53811(11)
C13 C 0.7942(2) 0.60272(13) 0.40174(12)
C14 C 0.7046(2) 0.58350(13) 0.47969(12)
C15 C 0.5523(3) 0.61404(15) 0.49279(14)
H9 H 0.4975 0.6490 0.4517
C16 C 0.4820(3) 0.59128(16) 0.56926(15)
H10 H 0.3793 0.6110 0.5800
C17 C 0.5663(3) 0.53949(17) 0.62848(16)
H11 H 0.5208 0.5240 0.6797
C18 C 0.7179(3) 0.51058(16) 0.61185(13)
H12 H 0.7743 0.4755 0.6522
Cu3 Cu 1.0000 0.5000 0.0000
O7 O 0.89531(18) 0.58729(9) 0.06641(9)
O8 O 0.79297(18) 0.59533(10) 0.19081(8)
N4 N 0.95804(19) 0.41147(11) 0.09693(10)
C19 C 0.8568(2) 0.55274(13) 0.13777(12)
C20 C 0.8894(2) 0.45136(14) 0.15797(12)
C21 C 0.8552(3) 0.40408(16) 0.23311(15)
H13 H 0.8097 0.4341 0.2746
C22 C 0.8906(3) 0.31114(19) 0.24484(18)
H14 H 0.8664 0.2771 0.2943
C23 C 0.9617(3) 0.26911(15) 0.18323(15)
H15 H 0.9872 0.2065 0.1906
C24 C 0.9952(3) 0.32139(13) 0.10951(14)
H16 H 1.0447 0.2930 0.0679
Cu4 Cu 1.0000 1.0000 0.0000
O9 O 0.90486(17) 0.92007(10) 0.08976(9)
O10 O 0.92276(16) 0.77819(10) 0.15410(9)
N5 N 1.1382(2) 0.88824(12) -0.01122(11)
C25 C 0.9688(2) 0.83949(13) 0.10215(12)
C26 C 1.1053(2) 0.81851(13) 0.04691(12)
C27 C 1.1900(2) 0.73473(14) 0.05230(14)
H17 H 1.1659 0.6877 0.0927
C28 C 1.3113(3) 0.72218(16) -0.00344(15)
H18 H 1.3708 0.6667 -0.0010
C29 C 1.3419(3) 0.79255(17) -0.06201(16)
H19 H 1.4218 0.7848 -0.1006
C30 C 1.25533(3) 0.875013(17) -0.064513(16)
H20 H 1.2791 0.9226 -0.1043
O11 O 0.65313(3) 0.732189(17) 0.076233(16)
O12 O 0.61068(3) 0.888270(17) 0.154934(16)
O13 O 0.46721(3) 0.650688(17) 0.217076(16)
O14 O 0.79561(3) 0.835329(17) 0.302130(16)
Gd1A Gd 1.319685(9) 0.261393(5) 0.779579(5)
Cu1A Cu 1.58122(3) 0.093121(16) 0.507830(14)
O1A O 1.49708(16) 0.16703(10) 0.58858(8)
O2A O 1.54024(16) 0.19719(9) 0.71034(8)
N1A N 1.73144(19) 0.04464(11) 0.58827(10)
C1A C 1.5740(2) 0.15666(12) 0.65118(11)
C2A C 1.7134(2) 0.08962(13) 0.65304(11)
C3A C 1.8155(2) 0.07309(15) 0.71371(13)
H1A H 1.8010 0.1044 0.7580
C4A C 1.9399(3) 0.00925(16) 0.70792(15)
H2A H 2.0111 -0.0026 0.7479
C5A C 1.9566(3) -0.03686(16) 0.64155(15)
H3A H 2.0396 -0.0801 0.6365
C6A C 1.8501(2) -0.01841(14) 0.58322(13)
H4A H 1.8607 -0.0504 0.5393
O3A O 1.66036(19) 0.01451(10) 0.42935(9)
O4A O 1.6764(2) 0.01505(12) 0.29581(10)
N2A N 1.45291(19) 0.15229(11) 0.42102(10)
C7A C 1.6249(3) 0.04684(14) 0.35685(13)
C8A C 1.5048(2) 0.12596(14) 0.34952(12)
C9A C 1.4457(3) 0.16713(16) 0.27848(14)
H5A H 1.4849 0.1496 0.2297
C10A C 1.3260(3) 0.23574(18) 0.28037(16)
H6A H 1.2850 0.2656 0.2329
C11A C 1.2701(3) 0.25834(17) 0.35319(16)
H7A H 1.1872 0.3021 0.3558
C12A C 1.3361(2) 0.21645(15) 0.42269(14)
H8A H 1.2984 0.2333 0.4719
O5A O 1.06745(18) 0.43190(11) 0.60172(9)
O6A O 1.26729(19) 0.34646(10) 0.65519(9)
N3A N 1.2137(2) 0.46792(12) 0.46189(11)
C13A C 1.2058(2) 0.39728(13) 0.59826(12)
C14A C 1.2954(2) 0.41650(13) 0.52031(12)
C15A C 1.4477(3) 0.38596(15) 0.50721(14)
H9A H 1.5025 0.3510 0.5483
C16A C 1.5180(3) 0.40872(16) 0.43074(15)
H10A H 1.6207 0.3890 0.4200
C17A C 1.4337(3) 0.46051(17) 0.37152(16)
H11A H 1.4792 0.4760 0.3203
C18A C 1.2821(3) 0.48942(16) 0.38815(13)
H12A H 1.2257 0.5245 0.3478
Cu3_2 Cu 1.0000 0.5000 1.0000
O7A O 1.10469(18) 0.41271(9) 0.93359(9)
O7A_2 O 1.10469(18) 0.41271(9) -0.06641(9)
O8A O 1.20703(18) 0.40467(10) 0.80919(8)
N4A N 1.04196(19) 0.58853(11) 0.90307(10)
N4A_2 N 1.04196(19) 0.58853(11) -0.09693(10)
C19A C 1.1432(2) 0.44726(13) 0.86223(12)
C20A C 1.1106(2) 0.54864(14) 0.84203(12)
C21A C 1.1448(3) 0.59592(16) 0.76689(15)
H13A H 1.1903 0.5659 0.7254
C22A C 1.1094(3) 0.68886(19) 0.75516(18)
H14A H 1.1336 0.7229 0.7057
C23A C 1.0383(3) 0.73089(15) 0.81677(15)
H15A H 1.0128 0.7935 0.8094
C24A C 1.0048(3) 0.67861(13) 0.89049(14)
H16A H 0.9553 0.7070 0.9321
Cu4_2 Cu 1.0000 0.0000 1.0000
O9A O 1.09514(17) 0.07993(10) 0.91024(9)
O9A_2 O 1.09514(17) 1.07993(10) -0.08976(9)
O10A O 1.07724(16) 0.22181(10) 0.84590(9)
N5A N 0.8618(2) 0.11176(12) 1.01122(11)
N5A_2 N 0.8618(2) 1.11176(12) 0.01122(11)
C25A C 1.0312(2) 0.16051(13) 0.89785(12)
C26A C 0.8947(2) 0.18149(13) 0.95309(12)
C27A C 0.8100(2) 0.26527(14) 0.94770(14)
H17A H 0.8341 0.3123 0.9073
C28A C 0.6887(3) 0.27782(16) 1.00344(15)
H18A H 0.6292 0.3333 1.0010
C29A C 0.6581(3) 0.20745(17) 1.06201(16)
H19A H 0.5782 0.2152 1.1006
C30A C 0.74467(3) 0.124987(17) 1.064513(16)
H20A H 0.7209 0.0774 1.1043
O11A O 1.34687(3) 0.267811(17) 0.923767(16)
O12A O 1.38932(3) 0.111730(17) 0.845066(16)
O13A O 1.53279(3) 0.349312(17) 0.782924(16)
O14A O 1.20439(3) 0.164671(17) 0.697870(16)
O15 O 0.16555(3) 0.689472(17) 0.266312(16)
Cl1 Cl 0.89422(3) 0.264682(17) 0.501643(16)
O16 O 0.79048(3) 0.289724(17) 0.565906(16)
O17 O 0.93538(3) 0.345715(17) 0.450536(16)
O18 O 1.02813(3) 0.214817(17) 0.534315(16)
O19 O 0.81716(3) 0.211785(17) 0.454428(16)
Cl2 Cl 0.70289(3) 0.924511(17) -0.093936(16)
O20 O 0.60247(3) 0.963518(17) -0.155601(16)
O21 O 0.84706(3) 0.961574(17) -0.105461(16)
O22 O 0.63251(3) 0.934395(17) -0.017893(16)
O23 O 0.72580(3) 0.829700(17) -0.098508(16)
Cl3 Cl 1.34509(3) 0.462806(17) 0.119178(16)
O24 O 1.37930(3) 0.375294(17) 0.097488(16)
O25 O 1.25336(3) 0.517620(17) 0.059089(16)
O26 O 1.48126(3) 0.506738(17) 0.124639(16)
O27 O 1.25498(3) 0.455745(17) 0.194386(16)
loop_
_geom_bond_atom_site_label_1
_geom_bond_atom_site_label_2
_geom_bond_site_symmetry_1
_geom_bond_site_symmetry_2
Gd1 O2 1_555 1_555
Cu1 O1 1_555 1_555
O1 C1 1_555 1_555
O2 C1 1_555 1_555
N1 Cu1 1_555 1_555
C1 C2 1_555 1_555
C2 N1 1_555 1_555
C3 C2 1_555 1_555
H1 C3 1_555 1_555
C4 C3 1_555 1_555
H2 C4 1_555 1_555
C5 C4 1_555 1_555
H3 C5 1_555 1_555
C6 N1 1_555 1_555
H4 C6 1_555 1_555
Cu2 O5 1_555 1_555
O3 Cu1 1_555 1_555
O4 C7 1_555 1_555
N2 Cu1 1_555 1_555
C7 O3 1_555 1_555
C8 N2 1_555 1_555
C9 C8 1_555 1_555
H5 C9 1_555 1_555
C10 C9 1_555 1_555
H6 C10 1_555 1_555
C11 C10 1_555 1_555
H7 C11 1_555 1_555
C12 N2 1_555 1_555
H8 C12 1_555 1_555
O5 C13 1_555 1_555
O6 Gd1 1_555 1_555
N3 Cu2 1_555 1_555
C13 O6 1_555 1_555
C14 N3 1_555 1_555
C15 C14 1_555 1_555
H9 C15 1_555 1_555
C16 C15 1_555 1_555
H10 C16 1_555 1_555
C17 C16 1_555 1_555
H11 C17 1_555 1_555
C18 N3 1_555 1_555
H12 C18 1_555 1_555
Cu3 O7 1_555 1_555
O7 C19 1_555 1_555
O8 Gd1 1_555 1_555
N4 Cu3 1_555 1_555
C19 O8 1_555 1_555
C20 N4 1_555 1_555
C21 C20 1_555 1_555
H13 C21 1_555 1_555
C22 C21 1_555 1_555
H14 C22 1_555 1_555
C23 C22 1_555 1_555
H15 C23 1_555 1_555
C24 N4 1_555 1_555
H16 C24 1_555 1_555
Cu4 O9 1_555 1_555
O9 C25 1_555 1_555
O10 Gd1 1_555 1_555
N5 Cu4 1_555 1_555
C25 O10 1_555 1_555
C26 N5 1_555 1_555
C27 C26 1_555 1_555
H17 C27 1_555 1_555
C28 C27 1_555 1_555
H18 C28 1_555 1_555
C29 C28 1_555 1_555
H19 C29 1_555 1_555
C30 N5 1_555 1_555
H20 C30 1_555 1_555
O11 Gd1 1_555 1_555
O12 Gd1 1_555 1_555
O13 Gd1 1_555 1_555
O14 Gd1 1_555 1_555
Cl1 O16 1_555 1_555
O17 Cl1 1_555 1_555
O18 Cl1 1_555 1_555
O19 Cl1 1_555 1_555
Cl2 O20 1_555 1_555
O21 Cl2 1_555 1_555
O22 Cl2 1_555 1_555
O23 Cl2 1_555 1_555
Cl3 O24 1_555 1_555
O25 Cl3 1_555 1_555
O26 Cl3 1_555 1_555
O27 Cl3 1_555 1_555
Gd1A O2A 1_555 1_555
Cu1A O1A 1_555 1_555
O1A C1A 1_555 1_555
O2A C1A 1_555 1_555
N1A Cu1A 1_555 1_555
C1A C2A 1_555 1_555
C2A N1A 1_555 1_555
C3A C2A 1_555 1_555
H1A C3A 1_555 1_555
C4A C3A 1_555 1_555
H2A C4A 1_555 1_555
C5A C4A 1_555 1_555
H3A C5A 1_555 1_555
C6A N1A 1_555 1_555
H4A C6A 1_555 1_555
O3A Cu1A 1_555 1_555
O4A C7A 1_555 1_555
N2A Cu1A 1_555 1_555
C7A O3A 1_555 1_555
C8A N2A 1_555 1_555
C9A C8A 1_555 1_555
H5A C9A 1_555 1_555
C10A C9A 1_555 1_555
H6A C10A 1_555 1_555
C11A C10A 1_555 1_555
H7A C11A 1_555 1_555
C12A N2A 1_555 1_555
H8A C12A 1_555 1_555
O5A Cu2 1_555 1_555
O6A Gd1A 1_555 1_555
N3A Cu2 1_555 1_555
C13A O5A 1_555 1_555
C14A N3A 1_555 1_555
C15A C14A 1_555 1_555
H9A C15A 1_555 1_555
C16A C15A 1_555 1_555
H10A C16A 1_555 1_555
C17A C16A 1_555 1_555
H11A C17A 1_555 1_555
C18A N3A 1_555 1_555
H12A C18A 1_555 1_555
Cu3_2 O7A 1_555 1_555
O7A C19A 1_555 1_555
O7A_2 Cu3 1_555 1_555
O8A Gd1A 1_555 1_555
N4A Cu3_2 1_555 1_555
N4A_2 Cu3 1_555 1_555
C19A O8A 1_555 1_555
C20A N4A 1_555 1_555
C21A C20A 1_555 1_555
H13A C21A 1_555 1_555
C22A C21A 1_555 1_555
H14A C22A 1_555 1_555
C23A C22A 1_555 1_555
H15A C23A 1_555 1_555
C24A N4A 1_555 1_555
H16A C24A 1_555 1_555
Cu4_2 O9A 1_555 1_555
O9A C25A 1_555 1_555
O9A_2 Cu4 1_555 1_555
O10A Gd1A 1_555 1_555
N5A Cu4_2 1_555 1_555
N5A_2 Cu4 1_555 1_555
C25A O10A 1_555 1_555
C26A N5A 1_555 1_555
C27A C26A 1_555 1_555
H17A C27A 1_555 1_555
C28A C27A 1_555 1_555
H18A C28A 1_555 1_555
C29A C28A 1_555 1_555
H19A C29A 1_555 1_555
C30A N5A 1_555 1_555
H20A C30A 1_555 1_555
O11A Gd1A 1_555 1_555
O12A Gd1A 1_555 1_555
O13A Gd1A 1_555 1_555
O14A Gd1A 1_555 1_555
C5 C6 1_555 1_555
C7 C8 1_555 1_555
C11 C12 1_555 1_555
C13 C14 1_555 1_555
C17 C18 1_555 1_555
C19 C20 1_555 1_555
C23 C24 1_555 1_555
C25 C26 1_555 1_555
C29 C30 1_555 1_555
C5A C6A 1_555 1_555
C7A C8A 1_555 1_555
C11A C12A 1_555 1_555
O6A C13A 1_555 1_555
C13A C14A 1_555 1_555
C17A C18A 1_555 1_555
C19A C20A 1_555 1_555
C23A C24A 1_555 1_555
C25A C26A 1_555 1_555
C29A C30A 1_555 1_555

#END
