
#######################################################################
#
#                 Cambridge Crystallographic Data Centre
#                                CCDC 
#
#######################################################################
#
# If this CIF has been generated from an entry in the Cambridge 
# Structural Database, then it will include bibliographic, chemical, 
# crystal, experimental, refinement or atomic coordinate data resulting 
# from the CCDC's data processing and validation procedures.
#
#######################################################################

data_CAQFAC
_symmetry_cell_setting           triclinic
_symmetry_space_group_name_H-M   'P -1'
_symmetry_Int_Tables_number      2
_space_group_name_Hall           '-P 1'
loop_
_symmetry_equiv_pos_site_id
_symmetry_equiv_pos_as_xyz
1 x,y,z
2 -x,-y,-z
_cell_length_a                   8.72050(10)
_cell_length_b                   14.93730(10)
_cell_length_c                   16.81810(10)
_cell_angle_alpha                81.6118(8)
_cell_angle_beta                 86.4485(6)
_cell_angle_gamma                84.6135(5)
_cell_volume                     2155.14
loop_
_atom_site_label
_atom_site_type_symbol
_atom_site_fract_x
_atom_site_fract_y
_atom_site_fract_z
Sm1 Sm 0.679532(15) 0.738759(8) 0.220319(7)
Cu1 Cu 0.41800(4) 0.90711(2) 0.492105(19)
Cu2 Cu 1.0000 0.5000 0.5000
Cu3 Cu 1.0000 0.5000 0.0000
Cu4 Cu 1.0000 1.0000 0.0000
O1 O 0.5011(2) 0.83340(12) 0.41140(10)
O2 O 0.4575(2) 0.80444(12) 0.28911(11)
N1 N 0.2684(3) 0.95612(14) 0.41180(13)
C1 C 0.4246(3) 0.84382(17) 0.34891(15)
C2 C 0.2855(3) 0.91081(16) 0.34725(15)
C3 C 0.1831(3) 0.92766(19) 0.28669(17)
H1 H 0.1971 0.8965 0.2424
C4 C 0.0583(4) 0.9920(2) 0.29265(19)
H2 H -0.0132 1.0040 0.2528
C5 C 0.0426(4) 1.0380(2) 0.35902(19)
H3 H -0.0391 1.0819 0.3639
C6 C 0.1479(3) 1.01820(18) 0.41699(17)
H4 H 0.1359 1.0487 0.4617
O3 O 0.3395(3) 0.98532(13) 0.57051(11)
O4 O 0.3248(3) 0.98474(15) 0.70350(12)
N2 N 0.5464(3) 0.84769(14) 0.57897(13)
C7 C 0.3758(3) 0.95322(18) 0.64264(17)
C8 C 0.4948(3) 0.87441(18) 0.64988(16)
C9 C 0.5539(4) 0.8324(2) 0.72111(18)
H5 H 0.5146 0.8499 0.7697
C10 C 0.6725(4) 0.7638(2) 0.7202(2)
H6 H 0.7127 0.7338 0.7678
C11 C 0.7287(4) 0.7414(2) 0.6467(2)
H7 H 0.8110 0.6974 0.6439
C12 C 0.6634(3) 0.78411(19) 0.57728(18)
H8 H 0.7020 0.7681 0.5280
O5 O 0.9314(2) 0.56820(14) 0.39889(11)
O6 O 0.7312(2) 0.65356(14) 0.34573(11)
N3 N 0.7870(3) 0.53167(15) 0.53846(14)
C13 C 0.7942(3) 0.60327(17) 0.40233(15)
C14 C 0.7052(3) 0.58307(17) 0.48014(16)
C15 C 0.5534(3) 0.61354(19) 0.49432(18)
H9 H 0.4987 0.6491 0.4536
C16 C 0.4825(4) 0.5908(2) 0.5701(2)
H10 H 0.3796 0.6099 0.5805
C17 C 0.5684(4) 0.5390(2) 0.6295(2)
H11 H 0.5239 0.5231 0.6807
C18 C 0.7191(4) 0.5115(2) 0.61227(17)
H12 H 0.7767 0.4777 0.6528
O7 O 0.8947(2) 0.58712(12) 0.06634(11)
O8 O 0.7930(2) 0.59456(13) 0.19044(11)
N4 N 0.9587(3) 0.41071(14) 0.09656(12)
C19 C 0.8556(3) 0.55227(17) 0.13693(16)
C20 C 0.8895(3) 0.45119(18) 0.15768(16)
C21 C 0.8557(4) 0.4042(2) 0.23165(19)
H13 H 0.8094 0.4339 0.2730
C22 C 0.8921(4) 0.3118(2) 0.2432(2)
H14 H 0.8682 0.2779 0.2926
C23 C 0.9636(4) 0.2696(2) 0.1819(2)
H15 H 0.9895 0.2072 0.1893
C24 C 0.9965(3) 0.32176(18) 0.10878(18)
H16 H 1.0464 0.2938 0.0673
O9 O 0.9052(2) 0.92025(13) 0.08942(12)
O10 O 0.9244(2) 0.77920(13) 0.15385(11)
N5 N 1.1385(3) 0.88919(15) -0.01102(14)
C25 C 0.9695(3) 0.84041(18) 0.10161(16)
C26 C 1.1061(3) 0.81919(18) 0.04675(16)
C27 C 1.1897(3) 0.73592(19) 0.05238(18)
H17 H 1.1653 0.6893 0.0928
C28 C 1.3103(3) 0.7227(2) -0.00284(18)
H18 H 1.3694 0.6672 0.0002
C29 C 1.3415(4) 0.7925(2) -0.06219(19)
H19 H 1.4209 0.7844 -0.1007
C30 C 1.2545(3) 0.8750(2) -0.06461(19)
H20 H 1.2775 0.9222 -0.1048
O11 O 0.6541(3) 0.73165(16) 0.07482(12)
O12 O 0.6096(3) 0.88931(14) 0.15387(14)
O13 O 0.4640(2) 0.65027(14) 0.21676(13)
O14 O 0.7956(2) 0.83650(13) 0.30353(12)
Sm1A Sm 1.320468(15) 0.261241(8) 0.779681(7)
Cu1A Cu 1.58200(4) 0.09289(2) 0.507895(19)
Cu3_2 Cu 1.0000 0.5000 1.0000
Cu4_2 Cu 1.0000 0.0000 1.0000
O1A O 1.4989(2) 0.16660(12) 0.58860(10)
O2A O 1.5425(2) 0.19556(12) 0.71089(11)
N1A N 1.7316(3) 0.04388(14) 0.58820(13)
C1A C 1.5754(3) 0.15618(17) 0.65109(15)
C2A C 1.7145(3) 0.08919(16) 0.65275(15)
C3A C 1.8169(3) 0.07234(19) 0.71331(17)
H1A H 1.8029 0.1035 0.7576
C4A C 1.9417(4) 0.0080(2) 0.70735(19)
H2A H 2.0132 -0.0040 0.7472
C5A C 1.9574(4) -0.0380(2) 0.64098(19)
H3A H 2.0391 -0.0819 0.6361
C6A C 1.8521(3) -0.01820(18) 0.58301(17)
H4A H 1.8641 -0.0487 0.5383
O3A O 1.6605(3) 0.01468(13) 0.42949(11)
O4A O 1.6752(3) 0.01526(15) 0.29650(12)
N2A N 1.4536(3) 0.15231(14) 0.42103(13)
C7A C 1.6242(3) 0.04678(18) 0.35736(17)
C8A C 1.5052(3) 0.12559(18) 0.35012(16)
C9A C 1.4461(4) 0.1676(2) 0.27889(18)
H5A H 1.4854 0.1501 0.2303
C10A C 1.3275(4) 0.2362(2) 0.2798(2)
H6A H 1.2873 0.2662 0.2322
C11A C 1.2713(4) 0.2586(2) 0.3533(2)
H7A H 1.1890 0.3026 0.3561
C12A C 1.3366(3) 0.21589(19) 0.42272(18)
H8A H 1.2980 0.2319 0.4720
O5A O 1.0686(2) 0.43180(14) 0.60111(11)
O6A O 1.2688(2) 0.34644(14) 0.65427(11)
N3A N 1.2130(3) 0.46833(15) 0.46154(14)
C13A C 1.2058(3) 0.39673(17) 0.59767(15)
C14A C 1.2948(3) 0.41693(17) 0.51986(16)
C15A C 1.4466(3) 0.38646(19) 0.50568(18)
H9A H 1.5013 0.3509 0.5464
C16A C 1.5175(4) 0.4092(2) 0.4299(2)
H10A H 1.6204 0.3901 0.4195
C17A C 1.4316(4) 0.4610(2) 0.3705(2)
H11A H 1.4761 0.4769 0.3193
C18A C 1.2809(4) 0.4885(2) 0.38773(17)
H12A H 1.2233 0.5223 0.3472
O7A O 1.1053(2) 0.41288(12) 0.93366(11)
O7A_2 O 1.1053(2) 0.41288(12) -0.06634(11)
O8A O 1.2070(2) 0.40544(13) 0.80956(11)
N4A N 1.0413(3) 0.58929(14) 0.90344(12)
N4A_2 N 1.0413(3) 0.58929(14) -0.09656(12)
C19A C 1.1444(3) 0.44773(17) 0.86307(16)
C20A C 1.1105(3) 0.54881(18) 0.84232(16)
C21A C 1.1443(4) 0.5958(2) 0.76835(19)
H13A H 1.1906 0.5661 0.7270
C22A C 1.1079(4) 0.6882(2) 0.7568(2)
H14A H 1.1318 0.7221 0.7074
C23A C 1.0364(4) 0.7304(2) 0.8181(2)
H15A H 1.0105 0.7928 0.8107
C24A C 1.0035(3) 0.67824(18) 0.89122(18)
H16A H 0.9536 0.7062 0.9327
O9A O 1.0948(2) 0.07975(13) 0.91058(12)
O9A_2 O 1.0948(2) 1.07975(13) -0.08942(12)
O10A O 1.0756(2) 0.22080(13) 0.84615(11)
N5A N 0.8615(3) 0.11081(15) 1.01102(14)
N5A_2 N 0.8615(3) 1.11081(15) 0.01102(14)
C25A C 1.0305(3) 0.15959(18) 0.89839(16)
C26A C 0.8939(3) 0.18081(18) 0.95325(16)
C27A C 0.8103(3) 0.26408(19) 0.94762(18)
H17A H 0.8347 0.3107 0.9072
C28A C 0.6897(3) 0.2773(2) 1.00284(18)
H18A H 0.6306 0.3328 0.9998
C29A C 0.6585(4) 0.2075(2) 1.06219(19)
H19A H 0.5791 0.2156 1.1007
C30A C 0.7455(3) 0.1250(2) 1.06461(19)
H20A H 0.7225 0.0778 1.1048
O11A O 1.3459(3) 0.26835(16) 0.92518(12)
O12A O 1.3904(3) 0.11069(14) 0.84613(14)
O13A O 1.5360(2) 0.34973(14) 0.78324(13)
O14A O 1.2044(2) 0.16350(13) 0.69647(12)
O15 O 0.1635(3) 0.68883(18) 0.26628(14)
Cl1 Cl 0.89377(8) 0.26465(5) 0.50147(4)
O16 O 0.7907(3) 0.28937(16) 0.56568(13)
O17 O 0.9346(3) 0.34580(16) 0.45049(14)
O18 O 1.0272(3) 0.2144(2) 0.53300(19)
O19 O 0.8170(4) 0.21178(17) 0.45436(16)
Cl2 Cl 0.70375(8) 0.92423(5) -0.09453(4)
O20 O 0.6037(3) 0.96297(16) -0.15617(14)
O21 O 0.8465(3) 0.9614(3) -0.10589(17)
O22 O 0.6330(4) 0.9358(3) -0.01902(16)
O23 O 0.7244(4) 0.82943(19) -0.0975(2)
Cl3 Cl 1.34503(9) 0.46241(5) 0.11875(5)
O24 O 1.3795(4) 0.37545(17) 0.0968(2)
O25 O 1.2542(3) 0.51720(18) 0.05884(18)
O26 O 1.4823(3) 0.5058(2) 0.1245(2)
O27 O 1.2556(4) 0.4558(3) 0.19271(17)
loop_
_geom_bond_atom_site_label_1
_geom_bond_atom_site_label_2
_geom_bond_site_symmetry_1
_geom_bond_site_symmetry_2
Sm1 O2 1_555 1_555
Cu1 O1 1_555 1_555
Cu2 O5 1_555 1_555
Cu3 O7 1_555 1_555
Cu4 O9 1_555 1_555
O1 C1 1_555 1_555
O2 C1 1_555 1_555
N1 Cu1 1_555 1_555
C1 C2 1_555 1_555
C2 N1 1_555 1_555
C3 C2 1_555 1_555
H1 C3 1_555 1_555
C4 C3 1_555 1_555
H2 C4 1_555 1_555
C5 C4 1_555 1_555
H3 C5 1_555 1_555
C6 N1 1_555 1_555
H4 C6 1_555 1_555
O3 Cu1 1_555 1_555
O4 C7 1_555 1_555
N2 Cu1 1_555 1_555
C7 O3 1_555 1_555
C8 N2 1_555 1_555
C9 C8 1_555 1_555
H5 C9 1_555 1_555
C10 C9 1_555 1_555
H6 C10 1_555 1_555
C11 C10 1_555 1_555
H7 C11 1_555 1_555
C12 N2 1_555 1_555
H8 C12 1_555 1_555
O5 C13 1_555 1_555
O6 Sm1 1_555 1_555
N3 Cu2 1_555 1_555
C13 O6 1_555 1_555
C14 N3 1_555 1_555
C15 C14 1_555 1_555
H9 C15 1_555 1_555
C16 C15 1_555 1_555
H10 C16 1_555 1_555
C17 C16 1_555 1_555
H11 C17 1_555 1_555
C18 N3 1_555 1_555
H12 C18 1_555 1_555
O7 C19 1_555 1_555
O8 Sm1 1_555 1_555
N4 Cu3 1_555 1_555
C19 O8 1_555 1_555
C20 N4 1_555 1_555
C21 C20 1_555 1_555
H13 C21 1_555 1_555
C22 C21 1_555 1_555
H14 C22 1_555 1_555
C23 C22 1_555 1_555
H15 C23 1_555 1_555
C24 N4 1_555 1_555
H16 C24 1_555 1_555
O9 C25 1_555 1_555
O10 Sm1 1_555 1_555
N5 Cu4 1_555 1_555
C25 O10 1_555 1_555
C26 N5 1_555 1_555
C27 C26 1_555 1_555
H17 C27 1_555 1_555
C28 C27 1_555 1_555
H18 C28 1_555 1_555
C29 C28 1_555 1_555
H19 C29 1_555 1_555
C30 N5 1_555 1_555
H20 C30 1_555 1_555
O11 Sm1 1_555 1_555
O12 Sm1 1_555 1_555
O13 Sm1 1_555 1_555
O14 Sm1 1_555 1_555
Cl1 O16 1_555 1_555
O17 Cl1 1_555 1_555
O18 Cl1 1_555 1_555
O19 Cl1 1_555 1_555
Cl2 O20 1_555 1_555
O21 Cl2 1_555 1_555
O22 Cl2 1_555 1_555
O23 Cl2 1_555 1_555
Cl3 O24 1_555 1_555
O25 Cl3 1_555 1_555
O26 Cl3 1_555 1_555
O27 Cl3 1_555 1_555
Sm1A O2A 1_555 1_555
Cu1A O1A 1_555 1_555
Cu3_2 O7A 1_555 1_555
Cu4_2 O9A 1_555 1_555
O1A C1A 1_555 1_555
O2A C1A 1_555 1_555
N1A Cu1A 1_555 1_555
C1A C2A 1_555 1_555
C2A N1A 1_555 1_555
C3A C2A 1_555 1_555
H1A C3A 1_555 1_555
C4A C3A 1_555 1_555
H2A C4A 1_555 1_555
C5A C4A 1_555 1_555
H3A C5A 1_555 1_555
C6A N1A 1_555 1_555
H4A C6A 1_555 1_555
O3A Cu1A 1_555 1_555
O4A C7A 1_555 1_555
N2A Cu1A 1_555 1_555
C7A O3A 1_555 1_555
C8A N2A 1_555 1_555
C9A C8A 1_555 1_555
H5A C9A 1_555 1_555
C10A C9A 1_555 1_555
H6A C10A 1_555 1_555
C11A C10A 1_555 1_555
H7A C11A 1_555 1_555
C12A N2A 1_555 1_555
H8A C12A 1_555 1_555
O5A Cu2 1_555 1_555
O6A Sm1A 1_555 1_555
N3A Cu2 1_555 1_555
C13A O5A 1_555 1_555
C14A N3A 1_555 1_555
C15A C14A 1_555 1_555
H9A C15A 1_555 1_555
C16A C15A 1_555 1_555
H10A C16A 1_555 1_555
C17A C16A 1_555 1_555
H11A C17A 1_555 1_555
C18A N3A 1_555 1_555
H12A C18A 1_555 1_555
O7A C19A 1_555 1_555
O7A_2 Cu3 1_555 1_555
O8A Sm1A 1_555 1_555
N4A Cu3_2 1_555 1_555
N4A_2 Cu3 1_555 1_555
C19A O8A 1_555 1_555
C20A N4A 1_555 1_555
C21A C20A 1_555 1_555
H13A C21A 1_555 1_555
C22A C21A 1_555 1_555
H14A C22A 1_555 1_555
C23A C22A 1_555 1_555
H15A C23A 1_555 1_555
C24A N4A 1_555 1_555
H16A C24A 1_555 1_555
O9A C25A 1_555 1_555
O9A_2 Cu4 1_555 1_555
O10A Sm1A 1_555 1_555
N5A Cu4_2 1_555 1_555
N5A_2 Cu4 1_555 1_555
C25A O10A 1_555 1_555
C26A N5A 1_555 1_555
C27A C26A 1_555 1_555
H17A C27A 1_555 1_555
C28A C27A 1_555 1_555
H18A C28A 1_555 1_555
C29A C28A 1_555 1_555
H19A C29A 1_555 1_555
C30A N5A 1_555 1_555
H20A C30A 1_555 1_555
O11A Sm1A 1_555 1_555
O12A Sm1A 1_555 1_555
O13A Sm1A 1_555 1_555
O14A Sm1A 1_555 1_555
C5 C6 1_555 1_555
C7 C8 1_555 1_555
C11 C12 1_555 1_555
C13 C14 1_555 1_555
C17 C18 1_555 1_555
C19 C20 1_555 1_555
C23 C24 1_555 1_555
C25 C26 1_555 1_555
C29 C30 1_555 1_555
C5A C6A 1_555 1_555
C7A C8A 1_555 1_555
C11A C12A 1_555 1_555
O6A C13A 1_555 1_555
C13A C14A 1_555 1_555
C17A C18A 1_555 1_555
C19A C20A 1_555 1_555
C23A C24A 1_555 1_555
C25A C26A 1_555 1_555
C29A C30A 1_555 1_555

#END
