
#######################################################################
#
#                 Cambridge Crystallographic Data Centre
#                                CCDC 
#
#######################################################################
#
# If this CIF has been generated from an entry in the Cambridge 
# Structural Database, then it will include bibliographic, chemical, 
# crystal, experimental, refinement or atomic coordinate data resulting 
# from the CCDC's data processing and validation procedures.
#
#######################################################################

data_CAQFOQ
_symmetry_cell_setting           triclinic
_symmetry_space_group_name_H-M   'P -1'
_symmetry_Int_Tables_number      2
_space_group_name_Hall           '-P 1'
loop_
_symmetry_equiv_pos_site_id
_symmetry_equiv_pos_as_xyz
1 x,y,z
2 -x,-y,-z
_cell_length_a                   8.68860(10)
_cell_length_b                   14.8669(1)
_cell_length_c                   16.7575(3)
_cell_angle_alpha                81.5770(10)
_cell_angle_beta                 86.315(1)
_cell_angle_gamma                84.6630(10)
_cell_volume                     2129.16
loop_
_atom_site_label
_atom_site_type_symbol
_atom_site_fract_x
_atom_site_fract_y
_atom_site_fract_z
Pr1 Pr 0.68031(2) 0.738652(12) 0.220415(11)
Cu1 Cu 0.41879(6) 0.90694(3) 0.49210(3)
O1 O 0.5018(3) 0.83223(19) 0.41183(16)
O2 O 0.4592(3) 0.80202(19) 0.28961(16)
N1 N 0.2695(4) 0.9557(2) 0.4116(2)
C1 C 0.4262(4) 0.8432(3) 0.3498(2)
C2 C 0.2861(4) 0.9096(3) 0.3470(2)
C3 C 0.1863(5) 0.9271(3) 0.2859(2)
H1 H 0.2020 0.8970 0.2409
C4 C 0.0607(5) 0.9910(3) 0.2926(3)
H2 H -0.0107 1.0027 0.2525
C5 C 0.0420(5) 1.0372(3) 0.3589(3)
H3 H -0.0412 1.0805 0.3639
C6 C 0.1481(5) 1.0181(3) 0.4169(3)
H4 H 0.1362 1.0492 0.4615
O3 O 0.3385(4) 0.9852(2) 0.57071(18)
O4 O 0.3240(4) 0.9850(2) 0.70413(18)
N2 N 0.5472(4) 0.8479(2) 0.5784(2)
C7 C 0.3754(5) 0.9522(3) 0.6434(2)
C8 C 0.4946(5) 0.8738(3) 0.6503(3)
C9 C 0.5536(6) 0.8333(3) 0.7220(3)
H5 H 0.5151 0.8515 0.7707
C10 C 0.6725(6) 0.7641(3) 0.7200(3)
H6 H 0.7124 0.7339 0.7678
C11 C 0.7309(6) 0.7406(3) 0.6469(3)
H7 H 0.8138 0.6966 0.6442
C12 C 0.6637(5) 0.7835(3) 0.5783(3)
H8 H 0.7017 0.7668 0.5289
Cu2 Cu 1.0000 0.5000 0.5000
O5 O 0.9341(4) 0.5685(2) 0.39852(16)
O6 O 0.7317(4) 0.6538(2) 0.34561(16)
N3 N 0.7887(4) 0.5320(2) 0.5375(2)
C13 C 0.7943(5) 0.6031(3) 0.4014(3)
C14 C 0.7039(5) 0.5838(3) 0.4802(2)
C15 C 0.5520(5) 0.6144(3) 0.4923(3)
H9 H 0.4977 0.6493 0.4509
C16 C 0.4809(5) 0.5915(3) 0.5689(3)
H10 H 0.3778 0.6111 0.5795
C17 C 0.5654(6) 0.5398(3) 0.6284(3)
H11 H 0.5199 0.5241 0.6797
C18 C 0.7188(5) 0.5111(3) 0.6114(3)
H12 H 0.7754 0.4765 0.6521
Cu3 Cu 1.0000 0.5000 0.0000
O7 O 0.8958(4) 0.58734(18) 0.06666(16)
O8 O 0.7926(4) 0.59443(18) 0.19114(17)
N4 N 0.9577(4) 0.4107(2) 0.09758(19)
C19 C 0.8565(5) 0.5537(3) 0.1371(2)
C20 C 0.8913(5) 0.4522(3) 0.1575(2)
C21 C 0.8559(6) 0.4042(3) 0.2326(3)
H13 H 0.8092 0.4341 0.2740
C22 C 0.8917(6) 0.3107(4) 0.2447(3)
H14 H 0.8691 0.2767 0.2945
C23 C 0.9608(6) 0.2689(3) 0.1824(3)
H15 H 0.9848 0.2061 0.1893
C24 C 0.9944(5) 0.3209(3) 0.1093(3)
H16 H 1.0436 0.2927 0.0674
Cu4 Cu 1.0000 1.0000 0.0000
O9 O 0.9046(3) 0.9204(2) 0.08920(18)
O10 O 0.9226(3) 0.7776(2) 0.15368(18)
N5 N 1.1386(4) 0.8880(2) -0.0108(2)
C25 C 0.9697(5) 0.8407(3) 0.1006(2)
C26 C 1.1057(5) 0.8187(3) 0.0466(2)
C27 C 1.1899(5) 0.7353(3) 0.0516(3)
H17 H 1.1642 0.6881 0.0918
C28 C 1.3115(5) 0.7215(3) -0.0026(3)
H18 H 1.3715 0.6661 0.0009
C29 C 1.3424(5) 0.7928(3) -0.0627(3)
H19 H 1.4218 0.7850 -0.1016
C30 C 1.25536(6) 0.87502(4) -0.06458(3)
H20 H 1.2786 0.9229 -0.1045
O11 O 0.65316(6) 0.73220(4) 0.07617(3)
O12 O 0.61071(6) 0.88828(4) 0.15487(3)
O13 O 0.46724(6) 0.65070(4) 0.21701(3)
O14 O 0.79564(6) 0.83534(4) 0.30206(3)
Pr1A Pr 1.31969(2) 0.261348(12) 0.779585(11)
Cu1A Cu 1.58121(6) 0.09306(3) 0.50790(3)
O1A O 1.4982(3) 0.16777(19) 0.58817(16)
O2A O 1.5408(3) 0.19798(19) 0.71039(16)
N1A N 1.7305(4) 0.0443(2) 0.5884(2)
C1A C 1.5738(4) 0.1568(3) 0.6502(2)
C2A C 1.7139(4) 0.0904(3) 0.6530(2)
C3A C 1.8137(5) 0.0729(3) 0.7141(2)
H1A H 1.7980 0.1030 0.7591
C4A C 1.9393(5) 0.0090(3) 0.7074(3)
H2A H 2.0107 -0.0027 0.7475
C5A C 1.9580(5) -0.0372(3) 0.6411(3)
H3A H 2.0412 -0.0805 0.6361
C6A C 1.8519(5) -0.0181(3) 0.5831(3)
H4A H 1.8638 -0.0492 0.5385
O3A O 1.6615(4) 0.0148(2) 0.42929(18)
O4A O 1.6760(4) 0.0150(2) 0.29587(18)
N2A N 1.4528(4) 0.1521(2) 0.4216(2)
C7A C 1.6246(5) 0.0478(3) 0.3566(2)
C8A C 1.5054(5) 0.1262(3) 0.3497(3)
C9A C 1.4464(6) 0.1667(3) 0.2780(3)
H5A H 1.4849 0.1485 0.2293
C10A C 1.3275(6) 0.2359(3) 0.2800(3)
H6A H 1.2876 0.2661 0.2322
C11A C 1.2691(6) 0.2594(3) 0.3531(3)
H7A H 1.1862 0.3034 0.3558
C12A C 1.3363(5) 0.2165(3) 0.4217(3)
H8A H 1.2983 0.2332 0.4711
O5A O 1.0659(4) 0.4315(2) 0.60148(16)
O6A O 1.2683(4) 0.3462(2) 0.65439(16)
N3A N 1.2113(4) 0.4680(2) 0.4625(2)
C13A C 1.2057(5) 0.3969(3) 0.5986(3)
C14A C 1.2961(5) 0.4162(3) 0.5198(2)
C15A C 1.4480(5) 0.3856(3) 0.5077(3)
H9A H 1.5023 0.3507 0.5491
C16A C 1.5191(5) 0.4085(3) 0.4311(3)
H10A H 1.6222 0.3889 0.4205
C17A C 1.4346(6) 0.4602(3) 0.3716(3)
H11A H 1.4801 0.4759 0.3203
C18A C 1.2812(5) 0.4889(3) 0.3886(3)
H12A H 1.2246 0.5235 0.3479
Cu3_2 Cu 1.0000 0.5000 1.0000
O7A O 1.1042(4) 0.41266(18) 0.93334(16)
O7A_2 O 1.1042(4) 0.41266(18) -0.06666(16)
O8A O 1.2074(4) 0.40557(18) 0.80886(17)
N4A N 1.0423(4) 0.5893(2) 0.90242(19)
N4A_2 N 1.0423(4) 0.5893(2) -0.09758(19)
C19A C 1.1435(5) 0.4463(3) 0.8629(2)
C20A C 1.1087(5) 0.5478(3) 0.8425(2)
C21A C 1.1441(6) 0.5958(3) 0.7674(3)
H13A H 1.1908 0.5659 0.7260
C22A C 1.1083(6) 0.6893(4) 0.7553(3)
H14A H 1.1309 0.7233 0.7055
C23A C 1.0392(6) 0.7311(3) 0.8176(3)
H15A H 1.0152 0.7939 0.8107
C24A C 1.0056(5) 0.6791(3) 0.8907(3)
H16A H 0.9564 0.7073 0.9326
Cu4_2 Cu 1.0000 0.0000 1.0000
O9A O 1.0954(3) 0.0796(2) 0.91080(18)
O9A_2 O 1.0954(3) 1.0796(2) -0.08920(18)
O10A O 1.0774(3) 0.2224(2) 0.84632(18)
N5A N 0.8614(4) 0.1120(2) 1.0108(2)
N5A_2 N 0.8614(4) 1.1120(2) 0.0108(2)
C25A C 1.0303(5) 0.1593(3) 0.8994(2)
C26A C 0.8943(5) 0.1813(3) 0.9534(2)
C27A C 0.8101(5) 0.2647(3) 0.9484(3)
H17A H 0.8358 0.3119 0.9082
C28A C 0.6885(5) 0.2785(3) 1.0026(3)
H18A H 0.6285 0.3339 0.9991
C29A C 0.6576(5) 0.2072(3) 1.0627(3)
H19A H 0.5782 0.2150 1.1016
C30A C 0.74464(6) 0.12498(4) 1.06458(3)
H20A H 0.7214 0.0771 1.1045
O11A O 1.34684(6) 0.26780(4) 0.92383(3)
O12A O 1.38929(6) 0.11172(4) 0.84513(3)
O13A O 1.53276(6) 0.34930(4) 0.78299(3)
O14A O 1.20436(6) 0.16466(4) 0.69794(3)
O15 O 0.16558(6) 0.68948(4) 0.26625(3)
Cl1 Cl 0.89425(6) 0.26469(4) 0.50158(3)
O16 O 0.79051(6) 0.28973(4) 0.56584(3)
O17 O 0.93541(6) 0.34572(4) 0.45047(3)
O18 O 1.02817(6) 0.21483(4) 0.53425(3)
O19 O 0.81719(6) 0.21179(4) 0.45436(3)
Cl2 Cl 0.70292(6) 0.92452(4) -0.09400(3)
O20 O 0.60250(6) 0.96353(4) -0.15567(3)
O21 O 0.84709(6) 0.96158(4) -0.10553(3)
O22 O 0.63255(6) 0.93440(4) -0.01796(3)
O23 O 0.72583(6) 0.82971(4) -0.09857(3)
Cl3 Cl 1.34513(6) 0.46282(4) 0.11911(3)
O24 O 1.37934(6) 0.37530(4) 0.09742(3)
O25 O 1.25339(6) 0.51763(4) 0.05902(3)
O26 O 1.48129(6) 0.50675(4) 0.12457(3)
O27 O 1.25501(6) 0.45575(4) 0.19432(3)
loop_
_geom_bond_atom_site_label_1
_geom_bond_atom_site_label_2
_geom_bond_site_symmetry_1
_geom_bond_site_symmetry_2
Pr1 O2 1_555 1_555
Cu1 O1 1_555 1_555
O1 C1 1_555 1_555
O2 C1 1_555 1_555
N1 Cu1 1_555 1_555
C1 C2 1_555 1_555
C2 N1 1_555 1_555
C3 C2 1_555 1_555
H1 C3 1_555 1_555
C4 C3 1_555 1_555
H2 C4 1_555 1_555
C5 C4 1_555 1_555
H3 C5 1_555 1_555
C6 N1 1_555 1_555
H4 C6 1_555 1_555
O3 Cu1 1_555 1_555
O4 C7 1_555 1_555
N2 Cu1 1_555 1_555
C7 O3 1_555 1_555
C8 N2 1_555 1_555
C9 C8 1_555 1_555
H5 C9 1_555 1_555
C10 C9 1_555 1_555
H6 C10 1_555 1_555
C11 C10 1_555 1_555
H7 C11 1_555 1_555
C12 N2 1_555 1_555
H8 C12 1_555 1_555
Cu2 O5 1_555 1_555
O5 C13 1_555 1_555
O6 Pr1 1_555 1_555
N3 Cu2 1_555 1_555
C13 O6 1_555 1_555
C14 N3 1_555 1_555
C15 C14 1_555 1_555
H9 C15 1_555 1_555
C16 C15 1_555 1_555
H10 C16 1_555 1_555
C17 C16 1_555 1_555
H11 C17 1_555 1_555
C18 N3 1_555 1_555
H12 C18 1_555 1_555
Cu3 O7 1_555 1_555
O7 C19 1_555 1_555
O8 Pr1 1_555 1_555
N4 Cu3 1_555 1_555
C19 O8 1_555 1_555
C20 N4 1_555 1_555
C21 C20 1_555 1_555
H13 C21 1_555 1_555
C22 C21 1_555 1_555
H14 C22 1_555 1_555
C23 C22 1_555 1_555
H15 C23 1_555 1_555
C24 N4 1_555 1_555
H16 C24 1_555 1_555
Cu4 O9 1_555 1_555
O9 C25 1_555 1_555
O10 Pr1 1_555 1_555
N5 Cu4 1_555 1_555
C25 O10 1_555 1_555
C26 N5 1_555 1_555
C27 C26 1_555 1_555
H17 C27 1_555 1_555
C28 C27 1_555 1_555
H18 C28 1_555 1_555
C29 C28 1_555 1_555
H19 C29 1_555 1_555
C30 N5 1_555 1_555
H20 C30 1_555 1_555
O11 Pr1 1_555 1_555
O12 Pr1 1_555 1_555
O13 Pr1 1_555 1_555
O14 Pr1 1_555 1_555
Cl1 O16 1_555 1_555
O17 Cl1 1_555 1_555
O18 Cl1 1_555 1_555
O19 Cl1 1_555 1_555
Cl2 O20 1_555 1_555
O21 Cl2 1_555 1_555
O22 Cl2 1_555 1_555
O23 Cl2 1_555 1_555
Cl3 O24 1_555 1_555
O25 Cl3 1_555 1_555
O26 Cl3 1_555 1_555
O27 Cl3 1_555 1_555
Pr1A O2A 1_555 1_555
Cu1A O1A 1_555 1_555
O1A C1A 1_555 1_555
O2A C1A 1_555 1_555
N1A Cu1A 1_555 1_555
C1A C2A 1_555 1_555
C2A N1A 1_555 1_555
C3A C2A 1_555 1_555
H1A C3A 1_555 1_555
C4A C3A 1_555 1_555
H2A C4A 1_555 1_555
C5A C4A 1_555 1_555
H3A C5A 1_555 1_555
C6A N1A 1_555 1_555
H4A C6A 1_555 1_555
O3A Cu1A 1_555 1_555
O4A C7A 1_555 1_555
N2A Cu1A 1_555 1_555
C7A O3A 1_555 1_555
C8A N2A 1_555 1_555
C9A C8A 1_555 1_555
H5A C9A 1_555 1_555
C10A C9A 1_555 1_555
H6A C10A 1_555 1_555
C11A C10A 1_555 1_555
H7A C11A 1_555 1_555
C12A N2A 1_555 1_555
H8A C12A 1_555 1_555
O5A Cu2 1_555 1_555
O6A Pr1A 1_555 1_555
N3A Cu2 1_555 1_555
C13A O5A 1_555 1_555
C14A N3A 1_555 1_555
C15A C14A 1_555 1_555
H9A C15A 1_555 1_555
C16A C15A 1_555 1_555
H10A C16A 1_555 1_555
C17A C16A 1_555 1_555
H11A C17A 1_555 1_555
C18A N3A 1_555 1_555
H12A C18A 1_555 1_555
Cu3_2 O7A 1_555 1_555
O7A C19A 1_555 1_555
O7A_2 Cu3 1_555 1_555
O8A Pr1A 1_555 1_555
N4A Cu3_2 1_555 1_555
N4A_2 Cu3 1_555 1_555
C19A O8A 1_555 1_555
C20A N4A 1_555 1_555
C21A C20A 1_555 1_555
H13A C21A 1_555 1_555
C22A C21A 1_555 1_555
H14A C22A 1_555 1_555
C23A C22A 1_555 1_555
H15A C23A 1_555 1_555
C24A N4A 1_555 1_555
H16A C24A 1_555 1_555
Cu4_2 O9A 1_555 1_555
O9A C25A 1_555 1_555
O9A_2 Cu4 1_555 1_555
O10A Pr1A 1_555 1_555
N5A Cu4_2 1_555 1_555
N5A_2 Cu4 1_555 1_555
C25A O10A 1_555 1_555
C26A N5A 1_555 1_555
C27A C26A 1_555 1_555
H17A C27A 1_555 1_555
C28A C27A 1_555 1_555
H18A C28A 1_555 1_555
C29A C28A 1_555 1_555
H19A C29A 1_555 1_555
C30A N5A 1_555 1_555
H20A C30A 1_555 1_555
O11A Pr1A 1_555 1_555
O12A Pr1A 1_555 1_555
O13A Pr1A 1_555 1_555
O14A Pr1A 1_555 1_555
C5 C6 1_555 1_555
C7 C8 1_555 1_555
C11 C12 1_555 1_555
C13 C14 1_555 1_555
C17 C18 1_555 1_555
C19 C20 1_555 1_555
C23 C24 1_555 1_555
C25 C26 1_555 1_555
C29 C30 1_555 1_555
C5A C6A 1_555 1_555
C7A C8A 1_555 1_555
C11A C12A 1_555 1_555
O6A C13A 1_555 1_555
C13A C14A 1_555 1_555
C17A C18A 1_555 1_555
C19A C20A 1_555 1_555
C23A C24A 1_555 1_555
C25A C26A 1_555 1_555
C29A C30A 1_555 1_555

#END
