
#######################################################################
#
#                 Cambridge Crystallographic Data Centre
#                                CCDC 
#
#######################################################################
#
# If this CIF has been generated from an entry in the Cambridge 
# Structural Database, then it will include bibliographic, chemical, 
# crystal, experimental, refinement or atomic coordinate data resulting 
# from the CCDC's data processing and validation procedures.
#
#######################################################################

data_CAQMEO
_symmetry_cell_setting           monoclinic
_symmetry_space_group_name_H-M   'P 21/n'
_symmetry_Int_Tables_number      14
_space_group_name_Hall           '-P 2yn'
loop_
_symmetry_equiv_pos_site_id
_symmetry_equiv_pos_as_xyz
1 x,y,z
2 1/2-x,1/2+y,1/2-z
3 -x,-y,-z
4 1/2+x,1/2-y,1/2+z
_cell_length_a                   8.6328(11)
_cell_length_b                   22.983(3)
_cell_length_c                   14.1392(17)
_cell_angle_alpha                90
_cell_angle_beta                 91.257(2)
_cell_angle_gamma                90
_cell_volume                     2804.65
loop_
_atom_site_label
_atom_site_type_symbol
_atom_site_fract_x
_atom_site_fract_y
_atom_site_fract_z
C1 C 0.1051(6) 0.3606(3) 0.9653(4)
H1 H 0.0194 0.3767 0.9942
C2 C 0.0834(7) 0.3351(3) 0.8794(4)
H2 H -0.0147 0.3330 0.8510
C3 C 0.2106(8) 0.3125(3) 0.8356(4)
H3 H 0.1992 0.2943 0.7772
C4 C 0.3543(7) 0.3168(2) 0.8780(4)
H4 H 0.4419 0.3029 0.8483
C5 C 0.3652(5) 0.3427(2) 0.9665(3)
C6 C 0.5538(5) 0.4042(2) 1.0524(3)
C7 C 0.6654(6) 0.4376(2) 1.0091(4)
H5 H 0.7092 0.4251 0.9531
C8 C 0.7108(6) 0.4890(2) 1.0495(4)
H6 H 0.7872 0.5115 1.0220
C9 C 0.6423(6) 0.5071(2) 1.1308(4)
H7 H 0.6726 0.5416 1.1602
C10 C 0.5268(6) 0.4727(2) 1.1684(4)
H8 H 0.4774 0.4858 1.2222
C11 C 0.6025(5) 0.3008(2) 1.0372(3)
C12 C 0.7478(5) 0.3059(2) 1.0798(4)
H9 H 0.7904 0.3421 1.0943
C13 C 0.8266(6) 0.2549(2) 1.0997(4)
H10 H 0.9244 0.2566 1.1284
C14 C 0.7621(6) 0.2015(2) 1.0774(3)
H11 H 0.8139 0.1669 1.0910
C15 C 0.6164(5) 0.2017(2) 1.0340(3)
C16 C 0.3974(5) 0.1524(2) 0.9553(3)
C17 C 0.2625(6) 0.1731(2) 0.9945(4)
H12 H 0.2624 0.1868 1.0564
C18 C 0.1302(6) 0.1730(3) 0.9404(5)
H13 H 0.0387 0.1874 0.9649
C19 C 0.1316(6) 0.1516(2) 0.8499(5)
H14 H 0.0418 0.1508 0.8124
C20 C 0.2679(6) 0.1317(2) 0.8169(4)
H15 H 0.2689 0.1167 0.7558
C21 C 0.6204(5) 0.0963(2) 1.0154(3)
C22 C 0.6203(6) 0.0654(2) 1.0981(4)
H16 H 0.5655 0.0789 1.1495
C23 C 0.7016(7) 0.0140(3) 1.1045(4)
H17 H 0.7045 -0.0072 1.1605
C24 C 0.7783(7) -0.0053(2) 1.0267(4)
H18 H 0.8343 -0.0399 1.0286
C25 C 0.7700(6) 0.0277(2) 0.9459(4)
H19 H 0.8209 0.0141 0.8929
Cu1 Cu 0.26711(7) 0.38378(3) 1.15452(4)
Cu2 Cu 0.11758(7) 0.38516(3) 1.31000(4)
I1 I 0.23659(4) 0.288260(15) 1.25076(2)
I2 I 0.08351(4) 0.472810(17) 1.19083(3)
N1 N 0.2430(4) 0.36389(17) 1.0111(3)
N2 N 0.5115(4) 0.34950(17) 1.0145(3)
N3 N 0.4829(4) 0.42154(16) 1.1306(3)
N4 N 0.5378(4) 0.24984(16) 1.0150(2)
N5 N 0.4020(4) 0.13240(16) 0.8674(3)
N6 N 0.5401(4) 0.14994(16) 1.0085(3)
N7 N 0.6938(4) 0.07816(18) 0.9383(3)
Cu2C Cu 0.61758(7) 0.11484(3) 0.81000(4)
N5C N -0.0980(4) 0.36760(16) 1.3674(3)
N7C N 0.1938(4) 0.42184(18) 1.4383(3)
loop_
_geom_bond_atom_site_label_1
_geom_bond_atom_site_label_2
_geom_bond_site_symmetry_1
_geom_bond_site_symmetry_2
C1 H1 1_555 1_555
C2 C1 1_555 1_555
H2 C2 1_555 1_555
C3 C2 1_555 1_555
H3 C3 1_555 1_555
C4 C3 1_555 1_555
H4 C4 1_555 1_555
C5 C4 1_555 1_555
C6 C7 1_555 1_555
C7 H5 1_555 1_555
C8 C7 1_555 1_555
H6 C8 1_555 1_555
C9 C8 1_555 1_555
H7 C9 1_555 1_555
C10 C9 1_555 1_555
H8 C10 1_555 1_555
C11 C12 1_555 1_555
C12 H9 1_555 1_555
C13 C12 1_555 1_555
H10 C13 1_555 1_555
C14 C13 1_555 1_555
H11 C14 1_555 1_555
C15 C14 1_555 1_555
C16 C17 1_555 1_555
C17 H12 1_555 1_555
C18 C17 1_555 1_555
H13 C18 1_555 1_555
C19 C18 1_555 1_555
H14 C19 1_555 1_555
C20 C19 1_555 1_555
H15 C20 1_555 1_555
C21 C22 1_555 1_555
C22 H16 1_555 1_555
C23 C22 1_555 1_555
H17 C23 1_555 1_555
C24 C23 1_555 1_555
H18 C24 1_555 1_555
C25 C24 1_555 1_555
H19 C25 1_555 1_555
Cu1 I1 1_555 1_555
Cu2 I1 1_555 1_555
I2 Cu1 1_555 1_555
N1 C1 1_555 1_555
N2 C5 1_555 1_555
N3 C6 1_555 1_555
N4 C11 1_555 1_555
N5 C16 1_555 1_555
N6 C15 1_555 1_555
N7 C21 1_555 1_555
Cu2C N5 1_555 1_555
N5C Cu2 1_555 1_555
N7C Cu2 1_555 1_555
C5 N1 1_555 1_555
C6 N2 1_555 1_555
C10 N3 1_555 1_555
C11 N2 1_555 1_555
C15 N4 1_555 1_555
C16 N6 1_555 1_555
C20 N5 1_555 1_555
C21 N6 1_555 1_555
C25 N7 1_555 1_555
Cu1 N1 1_555 1_555
Cu1 N3 1_555 1_555
Cu2 I2 1_555 1_555
N7 Cu2C 1_555 1_555

#END
