
#######################################################################
#
#                 Cambridge Crystallographic Data Centre
#                                CCDC 
#
#######################################################################
#
# If this CIF has been generated from an entry in the Cambridge 
# Structural Database, then it will include bibliographic, chemical, 
# crystal, experimental, refinement or atomic coordinate data resulting 
# from the CCDC's data processing and validation procedures.
#
#######################################################################

data_CAQNAL
_symmetry_cell_setting           monoclinic
_symmetry_space_group_name_H-M   'C 2/c'
_symmetry_Int_Tables_number      15
_space_group_name_Hall           '-C 2yn'
loop_
_symmetry_equiv_pos_site_id
_symmetry_equiv_pos_as_xyz
1 x,y,z
2 -x,y,1/2-z
3 1/2+x,1/2+y,z
4 1/2-x,1/2+y,1/2-z
5 -x,-y,-z
6 x,-y,1/2+z
7 1/2-x,1/2-y,-z
8 1/2+x,1/2-y,1/2+z
_cell_length_a                   9.7052(8)
_cell_length_b                   15.6248(12)
_cell_length_c                   30.199(2)
_cell_angle_alpha                90
_cell_angle_beta                 95.2010(10)
_cell_angle_gamma                90
_cell_volume                     4560.58
loop_
_atom_site_label
_atom_site_type_symbol
_atom_site_fract_x
_atom_site_fract_y
_atom_site_fract_z
Cu1 Cu 0.58719(7) 0.05321(5) 0.48565(2)
C1 C 0.5329(7) 0.2215(4) 0.52483(18)
H1 H 0.5611 0.2000 0.5529
C2 C 0.4349(9) 0.2780(5) 0.5214(2)
H2 H 0.3966 0.2981 0.5466
C3 C 0.3888(9) 0.3074(5) 0.4799(3)
H3 H 0.3128 0.3438 0.4761
C4 C 0.4574(7) 0.2821(4) 0.44396(19)
H4 H 0.4304 0.3028 0.4156
C5 C 0.5654(5) 0.2264(3) 0.45074(15)
C6 C 0.7371(5) 0.1368(3) 0.41478(16)
C7 C 0.8365(6) 0.1412(4) 0.38468(17)
H5 H 0.8345 0.1858 0.3642
C8 C 0.9364(7) 0.0808(5) 0.3850(2)
H6 H 0.9989 0.0809 0.3634
C9 C 0.9445(7) 0.0188(5) 0.4178(3)
H7 H 1.0155 -0.0213 0.4201
C10 C 0.8430(7) 0.0190(5) 0.4468(3)
H8 H 0.8478 -0.0220 0.4692
C11 C 0.6009(5) 0.2435(4) 0.37210(14)
C12 C 0.5122(6) 0.2055(4) 0.34008(16)
H9 H 0.4741 0.1523 0.3454
C13 C 0.4792(6) 0.2463(4) 0.29956(16)
H10 H 0.4192 0.2197 0.2780
C14 C 0.5327(6) 0.3240(4) 0.29080(14)
C15 C 0.6192(6) 0.3629(4) 0.32400(15)
H11 H 0.6554 0.4167 0.3190
C16 C 0.6523(6) 0.3234(4) 0.36399(16)
H12 H 0.7099 0.3508 0.3858
C17 C 0.5000 0.4586(5) 0.2500
C18 C 0.3999(7) 0.5035(4) 0.26962(18)
H13 H 0.3320 0.4742 0.2833
C19 C 0.3994(7) 0.5919(4) 0.26910(17)
H14 H 0.3301 0.6216 0.2819
C20 C 0.5000 0.6358(5) 0.2500
C21 C 0.5360(6) 0.7715(4) 0.29029(17)
C22 C 0.4836(8) 0.8500(5) 0.2977(2)
H15 H 0.4219 0.8766 0.2767
C23 C 0.5252(10) 0.8884(5) 0.3373(3)
H16 H 0.4914 0.9424 0.3433
C24 C 0.6142(9) 0.8497(7) 0.3679(3)
H17 H 0.6443 0.8772 0.3943
C25 C 0.6589(8) 0.7693(6) 0.3591(2)
H18 H 0.7166 0.7412 0.3806
I1 I 0.34788(4) 0.02272(3) 0.440196(12)
N1 N 0.5956(5) 0.1926(3) 0.49026(14)
N2 N 0.6347(4) 0.1995(3) 0.41408(12)
N3 N 0.7377(5) 0.0748(3) 0.44481(16)
N4 N 0.5000 0.3667(4) 0.2500
N5 N 0.5000 0.7278(5) 0.2500
N6 N 0.6225(6) 0.7285(4) 0.31998(16)
Cu1D Cu 0.41281(7) -0.05321(5) 0.51435(2)
Cu1A Cu 0.41281(7) 0.05321(5) 0.01435(2)
C1A C 0.4671(7) 0.2215(4) -0.02483(18)
H1A H 0.4389 0.2000 -0.0529
C2A C 0.5651(9) 0.2780(5) -0.0214(2)
H2A H 0.6034 0.2981 -0.0466
C3A C 0.6112(9) 0.3074(5) 0.0201(3)
H3A H 0.6872 0.3438 0.0239
C4A C 0.5426(7) 0.2821(4) 0.05604(19)
H4A H 0.5696 0.3028 0.0844
C5A C 0.4346(5) 0.2264(3) 0.04926(15)
C6A C 0.2629(5) 0.1368(3) 0.08522(16)
C7A C 0.1635(6) 0.1412(4) 0.11532(17)
H5A H 0.1655 0.1858 0.1358
C8A C 0.0636(7) 0.0808(5) 0.1150(2)
H6A H 0.0011 0.0809 0.1366
C9A C 0.0555(7) 0.0188(5) 0.0822(3)
H7A H -0.0155 -0.0213 0.0799
C10A C 0.1570(7) 0.0190(5) 0.0532(3)
H8A H 0.1522 -0.0220 0.0308
C11A C 0.3991(5) 0.2435(4) 0.12790(14)
C12A C 0.4878(6) 0.2055(4) 0.15992(16)
H9A H 0.5259 0.1523 0.1546
C13A C 0.5208(6) 0.2463(4) 0.20044(16)
H10A H 0.5808 0.2197 0.2220
C14A C 0.4673(6) 0.3240(4) 0.20920(14)
C15A C 0.3808(6) 0.3629(4) 0.17600(15)
H11A H 0.3446 0.4167 0.1810
C16A C 0.3477(6) 0.3234(4) 0.13601(16)
H12A H 0.2901 0.3508 0.1142
C18A C 0.6001(7) 0.5035(4) 0.23038(18)
H13A H 0.6680 0.4742 0.2167
C19A C 0.6006(7) 0.5919(4) 0.23090(17)
H14A H 0.6699 0.6216 0.2181
C21A C 0.4640(6) 0.7715(4) 0.20971(17)
C22A C 0.5164(8) 0.8500(5) 0.2023(2)
H15A H 0.5781 0.8766 0.2233
C23A C 0.4748(10) 0.8884(5) 0.1627(3)
H16A H 0.5086 0.9424 0.1567
C24A C 0.3858(9) 0.8497(7) 0.1321(3)
H17A H 0.3557 0.8772 0.1057
C25A C 0.3411(8) 0.7693(6) 0.1409(2)
H18A H 0.2834 0.7412 0.1194
I1D I 0.65212(4) -0.02272(3) 0.559804(12)
N1A N 0.4044(5) 0.1926(3) 0.00974(14)
N1D N 0.4044(5) -0.1926(3) 0.50974(14)
N2A N 0.3653(4) 0.1995(3) 0.08592(12)
N3A N 0.2623(5) 0.0748(3) 0.05519(16)
N3D N 0.2623(5) -0.0748(3) 0.55519(16)
N6A N 0.3775(6) 0.7285(4) 0.18002(16)
loop_
_geom_bond_atom_site_label_1
_geom_bond_atom_site_label_2
_geom_bond_site_symmetry_1
_geom_bond_site_symmetry_2
Cu1 I1 1_555 1_555
C1 H1 1_555 1_555
C2 C1 1_555 1_555
H2 C2 1_555 1_555
C3 C2 1_555 1_555
H3 C3 1_555 1_555
C4 C3 1_555 1_555
H4 C4 1_555 1_555
C5 C4 1_555 1_555
C6 C7 1_555 1_555
C7 H5 1_555 1_555
C8 C7 1_555 1_555
H6 C8 1_555 1_555
C9 C8 1_555 1_555
H7 C9 1_555 1_555
C10 C9 1_555 1_555
H8 C10 1_555 1_555
C11 C12 1_555 1_555
C12 H9 1_555 1_555
C13 C12 1_555 1_555
H10 C13 1_555 1_555
C14 C13 1_555 1_555
C15 C14 1_555 1_555
H11 C15 1_555 1_555
C16 C11 1_555 1_555
H12 C16 1_555 1_555
C17 C18 1_555 1_555
C18 H13 1_555 1_555
C19 C18 1_555 1_555
H14 C19 1_555 1_555
C20 C19 1_555 1_555
C21 C22 1_555 1_555
C22 H15 1_555 1_555
C23 C22 1_555 1_555
H16 C23 1_555 1_555
C24 C23 1_555 1_555
H17 C24 1_555 1_555
C25 C24 1_555 1_555
H18 C25 1_555 1_555
I1 Cu1D 1_555 1_555
N1 Cu1 1_555 1_555
N2 C5 1_555 1_555
N3 Cu1 1_555 1_555
N4 C14 1_555 1_555
N5 C20 1_555 1_555
N6 C21 1_555 1_555
Cu1D I1D 1_555 1_555
Cu1A N1A 1_555 1_555
C1A H1A 1_555 1_555
C2A C1A 1_555 1_555
H2A C2A 1_555 1_555
C3A C2A 1_555 1_555
H3A C3A 1_555 1_555
C4A C3A 1_555 1_555
H4A C4A 1_555 1_555
C5A C4A 1_555 1_555
C6A C7A 1_555 1_555
C7A H5A 1_555 1_555
C8A C7A 1_555 1_555
H6A C8A 1_555 1_555
C9A C8A 1_555 1_555
H7A C9A 1_555 1_555
C10A C9A 1_555 1_555
H8A C10A 1_555 1_555
C11A C12A 1_555 1_555
C12A H9A 1_555 1_555
C13A C12A 1_555 1_555
H10A C13A 1_555 1_555
C14A N4 1_555 1_555
C15A C14A 1_555 1_555
H11A C15A 1_555 1_555
C16A C11A 1_555 1_555
H12A C16A 1_555 1_555
C18A C17 1_555 1_555
H13A C18A 1_555 1_555
C19A C20 1_555 1_555
H14A C19A 1_555 1_555
C21A N5 1_555 1_555
C22A C21A 1_555 1_555
H15A C22A 1_555 1_555
C23A C22A 1_555 1_555
H16A C23A 1_555 1_555
C24A C23A 1_555 1_555
H17A C24A 1_555 1_555
C25A C24A 1_555 1_555
H18A C25A 1_555 1_555
I1D Cu1 1_555 1_555
N1A C1A 1_555 1_555
N1D Cu1D 1_555 1_555
N2A C5A 1_555 1_555
N3A Cu1A 1_555 1_555
N3D Cu1D 1_555 1_555
N6A C21A 1_555 1_555
C1 N1 1_555 1_555
C5 N1 1_555 1_555
C6 N2 1_555 1_555
C6 N3 1_555 1_555
C10 N3 1_555 1_555
C11 N2 1_555 1_555
C15 C16 1_555 1_555
C17 N4 1_555 1_555
C21 N5 1_555 1_555
C25 N6 1_555 1_555
C5A N1A 1_555 1_555
C6A N2A 1_555 1_555
C6A N3A 1_555 1_555
C10A N3A 1_555 1_555
C11A N2A 1_555 1_555
C13A C14A 1_555 1_555
C15A C16A 1_555 1_555
C18A C19A 1_555 1_555
C25A N6A 1_555 1_555

#END
