
#######################################################################
#
#                 Cambridge Crystallographic Data Centre
#                                CCDC 
#
#######################################################################
#
# If this CIF has been generated from an entry in the Cambridge 
# Structural Database, then it will include bibliographic, chemical, 
# crystal, experimental, refinement or atomic coordinate data resulting 
# from the CCDC's data processing and validation procedures.
#
#######################################################################

data_CAQNIT
_symmetry_cell_setting           monoclinic
_symmetry_space_group_name_H-M   'P 21/n'
_symmetry_Int_Tables_number      14
_space_group_name_Hall           '-P 2yn'
loop_
_symmetry_equiv_pos_site_id
_symmetry_equiv_pos_as_xyz
1 x,y,z
2 1/2-x,1/2+y,1/2-z
3 -x,-y,-z
4 1/2+x,1/2-y,1/2+z
_cell_length_a                   9.913(2)
_cell_length_b                   6.6138(13)
_cell_length_c                   25.912(5)
_cell_angle_alpha                90
_cell_angle_beta                 90.35(3)
_cell_angle_gamma                90
_cell_volume                     1698.83
loop_
_atom_site_label
_atom_site_type_symbol
_atom_site_fract_x
_atom_site_fract_y
_atom_site_fract_z
Co1 Co 0.37731(5) 0.43094(8) 0.13563(2)
Co2 Co 0.25031(5) 0.18089(8) 0.25035(2)
O1 O 0.4425(3) 0.4401(5) 0.06101(12)
O3 O 0.3375(3) 0.4300(4) 0.21570(11)
O4 O 1.0587(3) 0.6011(5) 0.22277(13)
O5 O 1.0571(3) 0.2612(5) 0.22529(13)
O6 O -0.2727(4) 0.6233(6) 0.01939(15)
O7 O -0.3076(3) 0.3088(6) 0.04521(14)
N1 N 0.5944(4) 0.4296(5) 0.16118(15)
N2 N 0.1676(4) 0.4397(6) 0.10495(15)
N3 N 0.3716(3) 0.0988(5) 0.13993(13)
N4 N 0.2979(3) 0.0292(5) 0.18031(14)
N5 N 0.2986(3) -0.1664(5) 0.18012(14)
N6 N 0.3723(3) -0.2369(5) 0.14032(13)
N7 N 0.5002(5) -0.0717(7) 0.07539(19)
C1 C 1.0045(4) 0.4303(6) 0.21696(16)
C2 C 0.8610(4) 0.4315(6) 0.19768(17)
C3 C 0.8009(5) 0.6059(7) 0.1797(2)
H1 H 0.8483 0.7273 0.1796
C4 C 0.6694(4) 0.5983(7) 0.1619(2)
H2 H 0.6306 0.7172 0.1497
C5 C 0.6550(4) 0.2609(7) 0.1786(2)
H3 H 0.6061 0.1409 0.1782
C6 C 0.7858(4) 0.2562(7) 0.1969(2)
H4 H 0.8231 0.1355 0.2087
C7 C 0.1154(5) 0.6097(8) 0.08499(19)
H5 H 0.1680 0.7262 0.0860
C8 C -0.0121(5) 0.6227(8) 0.06295(19)
H6 H -0.0427 0.7444 0.0492
C9 C -0.0929(5) 0.4533(7) 0.06158(17)
C10 C -0.2352(5) 0.4632(8) 0.03990(18)
C11 C -0.0402(5) 0.2752(8) 0.08083(19)
H7 H -0.0906 0.1567 0.0795
C12 C 0.0884(5) 0.2739(8) 0.10222(19)
H8 H 0.1218 0.1528 0.1153
C13 C 0.4157(4) -0.0691(6) 0.11625(17)
H9 H 0.412(3) 0.439(8) 0.2299(19)
H10 H 0.389(3) 0.415(7) 0.0373(12)
H11 H 0.5199(16) 0.412(7) 0.0517(15)
H14 H 0.515(7) -0.214(13) 0.059(3)
H15 H 0.535(6) 0.025(10) 0.066(2)
Co1_2 Co 0.37731(5) -0.56906(8) 0.13563(2)
Co2A Co 0.24969(5) 0.68089(8) 0.24965(2)
Co2A_2 Co 1.24969(5) 0.68089(8) 0.24965(2)
Co2_2 Co 1.25031(5) 0.18089(8) 0.25035(2)
Co2A_3 Co 0.24969(5) -0.31911(8) 0.24965(2)
O3A O 0.1625(3) -0.0700(4) 0.28430(11)
O4A O 0.4413(3) 0.1011(5) 0.27723(13)
O5_2 O 0.0571(3) 0.2612(5) 0.22529(13)
N5A N 0.2014(3) 0.3336(5) 0.31988(14)
N6_2 N 0.3723(3) 0.7631(5) 0.14032(13)
H9A H 0.088(3) -0.061(8) 0.2701(19)
O2 O -0.1974(8) 0.9997(11) -0.0187(3)
H12 H -0.274(3) 0.984(16) -0.030(3)
H13 H -0.202(8) 1.054(13) 0.0099(17)
loop_
_geom_bond_atom_site_label_1
_geom_bond_atom_site_label_2
_geom_bond_site_symmetry_1
_geom_bond_site_symmetry_2
Co1 O1 1_555 1_555
Co2 O3 1_555 1_555
O1 H10 1_555 1_555
O2 H12 1_555 1_555
O3 Co1 1_555 1_555
O4 C1 1_555 1_555
O5 C1 1_555 1_555
O6 C10 1_555 1_555
O7 C10 1_555 1_555
N1 Co1 1_555 1_555
N2 Co1 1_555 1_555
N3 Co1 1_555 1_555
N4 Co2 1_555 1_555
N5 N4 1_555 1_555
N6 N5 1_555 1_555
N7 C13 1_555 1_555
C1 C2 1_555 1_555
C2 C3 1_555 1_555
C3 H1 1_555 1_555
C4 N1 1_555 1_555
H2 C4 1_555 1_555
C5 N1 1_555 1_555
H3 C5 1_555 1_555
C6 C2 1_555 1_555
H4 C6 1_555 1_555
C7 N2 1_555 1_555
H5 C7 1_555 1_555
C8 C7 1_555 1_555
H6 C8 1_555 1_555
C9 C8 1_555 1_555
C10 C9 1_555 1_555
C11 C9 1_555 1_555
H7 C11 1_555 1_555
C12 N2 1_555 1_555
H8 C12 1_555 1_555
C13 N3 1_555 1_555
H9 O3 1_555 1_555
H11 O1 1_555 1_555
H13 O2 1_555 1_555
H14 N7 1_555 1_555
H15 N7 1_555 1_555
Co1_2 N6 1_555 1_555
Co2A O3 1_555 1_555
Co2A_2 O4 1_555 1_555
Co2_2 O5 1_555 1_555
Co2A_3 N5 1_555 1_555
O3A Co2 1_555 1_555
O4A Co2 1_555 1_555
O5_2 Co2 1_555 1_555
N5A Co2 1_555 1_555
N6_2 Co1 1_555 1_555
H9A O3A 1_555 1_555
N3 N4 1_555 1_555
N6 C13 1_555 1_555
C3 C4 1_555 1_555
C5 C6 1_555 1_555
C11 C12 1_555 1_555
Co2A_3 O3A 1_555 1_555

#END
