
#######################################################################
#
#                 Cambridge Crystallographic Data Centre
#                                CCDC 
#
#######################################################################
#
# If this CIF has been generated from an entry in the Cambridge 
# Structural Database, then it will include bibliographic, chemical, 
# crystal, experimental, refinement or atomic coordinate data resulting 
# from the CCDC's data processing and validation procedures.
#
#######################################################################

data_CAQSUK
_symmetry_cell_setting           monoclinic
_symmetry_space_group_name_H-M   'C 2/c'
_symmetry_Int_Tables_number      15
_space_group_name_Hall           '-C 2yn'
loop_
_symmetry_equiv_pos_site_id
_symmetry_equiv_pos_as_xyz
1 x,y,z
2 -x,y,1/2-z
3 1/2+x,1/2+y,z
4 1/2-x,1/2+y,1/2-z
5 -x,-y,-z
6 x,-y,1/2+z
7 1/2-x,1/2-y,-z
8 1/2+x,1/2-y,1/2+z
_cell_length_a                   14.9433(7)
_cell_length_b                   17.8985(6)
_cell_length_c                   9.8606(5)
_cell_angle_alpha                90
_cell_angle_beta                 110.394(6)
_cell_angle_gamma                90
_cell_volume                     2472.03
loop_
_atom_site_label
_atom_site_type_symbol
_atom_site_fract_x
_atom_site_fract_y
_atom_site_fract_z
Rh1 Rh 0.46971(3) 0.44114(2) 0.61496(4)
O1 O 0.4325(2) 0.47588(18) 0.3711(3)
O2 O 0.3798(2) 0.47695(19) 0.1312(4)
O3 O 0.5470(2) 0.35838(18) 0.5758(3)
O4 O 0.3787(2) 0.35707(19) 0.5978(3)
C1 C 0.3818(3) 0.4501(3) 0.2500(5)
C2 C 0.3210(3) 0.3820(3) 0.2451(5)
H1 H 0.2699 0.3792 0.1504
H2 H 0.2931 0.3857 0.3212
H3 H 0.3607 0.3370 0.2604
C3 C 0.5053(3) 0.2943(3) 0.5600(5)
C4 C 0.5479(3) 0.2333(3) 0.5171(5)
H4 H 0.6010 0.2458 0.4897
C5 C 0.5259(4) 0.1583(3) 0.5077(6)
H5 H 0.5651 0.1273 0.4735
C6 C 0.4548(4) 0.1220(3) 0.5414(6)
H6 H 0.4547 0.0690 0.5358
C7 C 0.3842(4) 0.1535(3) 0.5819(6)
H7 H 0.3413 0.1191 0.6001
C8 C 0.3664(3) 0.2279(3) 0.6001(5)
H8 H 0.3120 0.2365 0.6267
C9 C 0.4142(3) 0.2925(3) 0.5862(5)
Rh1A Rh 0.53029(3) 0.44114(2) 0.88504(4)
Rh1D Rh 0.53029(3) 0.55886(2) 0.38504(4)
Rh1E Rh 0.46971(3) 0.55886(2) 0.11496(4)
O1D O 0.5675(2) 0.52412(18) 0.6289(3)
O2E O 0.3798(2) 0.52305(19) 0.6312(4)
C10 C 0.2471(3) 0.5940(3) 0.3045(6)
H9 H 0.3043 0.5824 0.3897
H10 H 0.2651 0.5910 0.2171
Cl1 Cl 0.20795(9) 0.68521(8) 0.32124(16)
Cl2 Cl 0.15674(10) 0.52764(8) 0.29147(19)
loop_
_geom_bond_atom_site_label_1
_geom_bond_atom_site_label_2
_geom_bond_site_symmetry_1
_geom_bond_site_symmetry_2
Rh1 O1 1_555 1_555
O1 C1 1_555 1_555
O2 C1 1_555 1_555
O3 Rh1 1_555 1_555
O4 Rh1 1_555 1_555
C1 C2 1_555 1_555
C2 H1 1_555 1_555
H2 C2 1_555 1_555
H3 C2 1_555 1_555
C3 O3 1_555 1_555
C4 C3 1_555 1_555
H4 C4 1_555 1_555
C5 C4 1_555 1_555
H5 C5 1_555 1_555
C6 C5 1_555 1_555
H6 C6 1_555 1_555
C7 C6 1_555 1_555
H7 C7 1_555 1_555
C8 C7 1_555 1_555
H8 C8 1_555 1_555
C9 O4 1_555 1_555
C10 H9 1_555 1_555
H10 C10 1_555 1_555
Cl1 C10 1_555 1_555
Cl2 C10 1_555 1_555
Rh1A Rh1 1_555 1_555
Rh1D O1 1_555 1_555
Rh1E O2 1_555 1_555
O1D Rh1 1_555 1_555
O2E Rh1 1_555 1_555
C3 C9 1_555 1_555
C8 C9 1_555 1_555
Rh1D Rh1E 1_555 1_555
Rh1D O1D 1_555 1_555

#END
