
#######################################################################
#
#                 Cambridge Crystallographic Data Centre
#                                CCDC 
#
#######################################################################
#
# If this CIF has been generated from an entry in the Cambridge 
# Structural Database, then it will include bibliographic, chemical, 
# crystal, experimental, refinement or atomic coordinate data resulting 
# from the CCDC's data processing and validation procedures.
#
#######################################################################

data_CAQWAS
_symmetry_cell_setting           monoclinic
_symmetry_space_group_name_H-M   'P 21/a'
_symmetry_Int_Tables_number      14
_space_group_name_Hall           '-P 2yab'
loop_
_symmetry_equiv_pos_site_id
_symmetry_equiv_pos_as_xyz
1 x,y,z
2 1/2-x,1/2+y,-z
3 -x,-y,-z
4 1/2+x,1/2-y,z
_cell_length_a                   12.730(3)
_cell_length_b                   15.443(3)
_cell_length_c                   15.324(3)
_cell_angle_alpha                90
_cell_angle_beta                 93.93(2)
_cell_angle_gamma                90
_cell_volume                     3005.45
loop_
_atom_site_label
_atom_site_type_symbol
_atom_site_fract_x
_atom_site_fract_y
_atom_site_fract_z
O1 O 0.8181(5) 0.0992(4) 0.0406(4)
O2 O 0.6372(5) -0.0122(5) 0.0454(4)
O3 O 0.6910(5) -0.1701(5) 0.1391(4)
O4 O 0.8025(6) -0.1780(5) 0.3111(5)
O5 O 0.7932(6) -0.0678(5) 0.4340(4)
O6 O 0.7044(6) 0.1008(5) 0.4300(5)
O7 O 0.7500(6) 0.2149(4) 0.3055(5)
O8 O 0.8754(5) 0.2067(5) 0.1604(5)
N1 N 0.4984(8) -0.0188(8) 0.2703(7)
N2 N 1.0128(9) 0.004(1) 0.2539(9)
C1 C 0.9169(8) 0.1315(7) 0.0379(7)
C2 C 0.9494(8) 0.1894(7) 0.1039(7)
C3 C 1.0495(9) 0.2248(7) 0.1053(8)
C4 C 1.1160(9) 0.2073(8) 0.041(1)
C5 C 1.0856(9) 0.1511(8) -0.0243(9)
C6 C 0.9860(9) 0.1113(7) -0.0278(7)
C7 C 0.7690(8) 0.0591(7) -0.0373(7)
C8 C 0.6562(8) 0.0463(7) -0.0231(7)
C9 C 0.6163(7) -0.0974(7) 0.0151(7)
C10 C 0.5957(8) -0.1530(7) 0.0901(7)
C11 C 0.676(1) -0.2313(8) 0.2019(9)
C12 C 0.782(1) -0.2507(8) 0.2557(8)
C13 C 0.8855(9) -0.1843(8) 0.3727(7)
C14 C 0.8805(9) -0.1229(8) 0.4382(7)
C15 C 0.970(1) -0.1247(9) 0.5045(8)
C16 C 1.0496(1) -0.189(1) 0.491(1)
C17 C 1.043(1) -0.246(1) 0.431(1)
C18 C 0.964(1) -0.2450(10) 0.3686(9)
C19 C 0.758(1) -0.0200(8) 0.5093(7)
C20 C 0.666(1) 0.0347(9) 0.4812(9)
C21 C 0.6268(9) 0.1566(8) 0.3993(8)
C22 C 0.6807(9) 0.2361(7) 0.3699(7)
C23 C 0.809(1) 0.2888(7) 0.2733(8)
C24 C 0.9037(9) 0.2619(8) 0.2316(8)
C25 C 0.4148(8) -0.0172(8) 0.2677(8)
C26 C 1.0989(9) -0.005(1) 0.2596(9)
Cs1 Cs 0.75851(5) 0.01806(4) 0.23571(4)
Ag1 Ag 0.25403(6) -0.01167(6) 0.26337(6)
H1 H 1.0749 0.2639 0.1522
H2 H 1.1858 0.2295 0.0424
H3 H 1.1306 0.1376 -0.0730
H4 H 0.9631 0.0680 -0.0762
H5 H 0.7840 0.0945 -0.0890
H6 H 0.8051 0.0036 -0.0484
H7 H 0.6226 0.0308 -0.0782
H8 H 0.6322 0.1046 -0.0095
H9 H 0.5583 -0.0993 -0.0285
H10 H 0.6768 -0.1218 -0.0129
H11 H 0.5615 -0.2072 0.0699
H12 H 0.5463 -0.1245 0.1251
H13 H 0.6268 -0.2138 0.2434
H14 H 0.6491 -0.2864 0.1773
H15 H 0.8379 -0.2570 0.2141
H16 H 0.7818 -0.3038 0.2875
H17 H 0.9644 -0.0765 0.5554
H18 H 1.1067 -0.1785 0.5446
H19 H 1.1070 -0.2791 0.4370
H20 H 0.9689 -0.2851 0.3251
H21 H 0.7505 -0.0617 0.5576
H22 H 0.8224 0.0150 0.5345
H23 H 0.6364 0.0544 0.5324
H24 H 0.6194 -0.0034 0.4498
H25 H 0.5854 0.1345 0.3505
H26 H 0.5803 0.1723 0.4439
H27 H 0.7207 0.2645 0.4200
H28 H 0.6316 0.2809 0.3476
H29 H 0.7644 0.3207 0.2308
H30 H 0.8268 0.3289 0.3211
H31 H 0.9490 0.2308 0.2760
H32 H 0.9429 0.3106 0.2144
C26_2 C 0.0989(9) -0.005(1) 0.2596(9)
Ag1_2 Ag 1.25403(6) -0.01167(6) 0.26337(6)
loop_
_geom_bond_atom_site_label_1
_geom_bond_atom_site_label_2
_geom_bond_site_symmetry_1
_geom_bond_site_symmetry_2
O1 C1 1_555 1_555
O2 C8 1_555 1_555
O3 C10 1_555 1_555
O4 C12 1_555 1_555
O5 C14 1_555 1_555
O6 C20 1_555 1_555
O7 C22 1_555 1_555
O8 C2 1_555 1_555
N1 C25 1_555 1_555
N2 C26 1_555 1_555
C1 C2 1_555 1_555
C2 C3 1_555 1_555
C3 C4 1_555 1_555
C4 C5 1_555 1_555
C5 C6 1_555 1_555
C6 C1 1_555 1_555
C7 O1 1_555 1_555
C8 C7 1_555 1_555
C9 O2 1_555 1_555
C10 C9 1_555 1_555
C11 O3 1_555 1_555
C12 C11 1_555 1_555
C13 O4 1_555 1_555
C14 C13 1_555 1_555
C15 C14 1_555 1_555
C16 C15 1_555 1_555
C17 C16 1_555 1_555
C18 C13 1_555 1_555
C19 O5 1_555 1_555
C20 C19 1_555 1_555
C21 O6 1_555 1_555
C22 C21 1_555 1_555
C23 O7 1_555 1_555
C24 O8 1_555 1_555
C25 Ag1 1_555 1_555
C26 Ag1_2 1_555 1_555
Cs1 O1 1_555 1_555
Ag1 C26_2 1_555 1_555
H1 C3 1_555 1_555
H2 C4 1_555 1_555
H3 C5 1_555 1_555
H4 C6 1_555 1_555
H5 C7 1_555 1_555
H6 C7 1_555 1_555
H7 C8 1_555 1_555
H8 C8 1_555 1_555
H9 C9 1_555 1_555
H10 C9 1_555 1_555
H11 C10 1_555 1_555
H12 C10 1_555 1_555
H13 C11 1_555 1_555
H14 C11 1_555 1_555
H15 C12 1_555 1_555
H16 C12 1_555 1_555
H17 C15 1_555 1_555
H18 C16 1_555 1_555
H19 C17 1_555 1_555
H20 C18 1_555 1_555
H21 C19 1_555 1_555
H22 C19 1_555 1_555
H23 C20 1_555 1_555
H24 C20 1_555 1_555
H25 C21 1_555 1_555
H26 C21 1_555 1_555
H27 C22 1_555 1_555
H28 C22 1_555 1_555
H29 C23 1_555 1_555
H30 C23 1_555 1_555
H31 C24 1_555 1_555
H32 C24 1_555 1_555
O2 Cs1 1_555 1_555
O3 Cs1 1_555 1_555
O4 Cs1 1_555 1_555
O5 Cs1 1_555 1_555
O6 Cs1 1_555 1_555
O7 Cs1 1_555 1_555
O8 Cs1 1_555 1_555
N1 Cs1 1_555 1_555
N2 Cs1 1_555 1_555
C17 C18 1_555 1_555
C23 C24 1_555 1_555

#END
