
#######################################################################
#
#                 Cambridge Crystallographic Data Centre
#                                CCDC 
#
#######################################################################
#
# If this CIF has been generated from an entry in the Cambridge 
# Structural Database, then it will include bibliographic, chemical, 
# crystal, experimental, refinement or atomic coordinate data resulting 
# from the CCDC's data processing and validation procedures.
#
#######################################################################

data_CAQXUN
_symmetry_cell_setting           monoclinic
_symmetry_space_group_name_H-M   'P 21/c'
_symmetry_Int_Tables_number      14
_space_group_name_Hall           '-P 2ybc'
loop_
_symmetry_equiv_pos_site_id
_symmetry_equiv_pos_as_xyz
1 x,y,z
2 x,1/2-y,1/2+z
3 -x,-y,-z
4 -x,1/2+y,1/2-z
_cell_length_a                   9.281(4)
_cell_length_b                   17.555(8)
_cell_length_c                   7.564(4)
_cell_angle_alpha                90.00
_cell_angle_beta                 105.90(3)
_cell_angle_gamma                90.00
_cell_volume                     1185.24
loop_
_atom_site_label
_atom_site_type_symbol
_atom_site_fract_x
_atom_site_fract_y
_atom_site_fract_z
Br1 Br -0.0072(2) -0.22462(8) -0.0209(2)
Br2 Br -0.63075(15) -0.00254(8) 0.2251(2)
N1 N -0.1344(11) -0.0850(5) 0.2568(14)
N2 N -0.2363(11) 0.0235(6) 0.3602(15)
C1 C -0.2320(13) -0.0490(7) 0.3229(17)
H1 H -0.3076(13) -0.0788(7) 0.3461(17)
C2 C -0.1285(14) 0.0672(7) 0.3262(17)
H2 H -0.1267(14) 0.1190(7) 0.3523(17)
C3 C -0.0214(16) 0.0370(7) 0.2538(20)
H3 H 0.0534(16) 0.0670(7) 0.2289(20)
C4 C -0.0300(15) -0.0405(7) 0.2195(19)
H4 H 0.0402(15) -0.0626(7) 0.1682(19)
N3 N -0.5373(11) -0.3315(6) 0.0272(14)
C5 C -0.6109(17) -0.2038(9) -0.0577(23)
H5 H -0.6852(17) -0.1691(9) -0.1137(23)
C6 C -0.6405(15) -0.2808(8) -0.0584(20)
H6 H -0.7356(15) -0.2981(8) -0.1207(20)
N4 N -0.3631(11) -0.2296(6) 0.1110(15)
C7 C -0.4037(14) -0.3027(8) 0.1105(19)
H7 H -0.3312(14) -0.3366(8) 0.1748(19)
C8 C -0.4698(15) -0.1802(7) 0.0274(19)
H8 H -0.4467(15) -0.1287(7) 0.0277(19)
Cu1 Cu -0.1411(2) -0.20042(9) 0.2138(3)
Cu2 Cu -0.4109(2) 0.05794(9) 0.4632(3)
Br2B Br -0.36925(15) 0.00254(8) 0.7749(2)
Cu2B Cu -0.5891(2) -0.05794(9) 0.5368(3)
Br1A Br -0.0072(2) -0.27538(8) 0.4791(2)
N3C N -0.4627(11) 0.1685(6) 0.4728(14)
Cu2C Cu -0.5891(2) -0.44206(9) 0.0368(3)
Cu1A Cu -0.1411(2) -0.29958(9) -0.2862(3)
loop_
_geom_bond_atom_site_label_1
_geom_bond_atom_site_label_2
_geom_bond_site_symmetry_1
_geom_bond_site_symmetry_2
Br1 Cu1 1_555 1_555
Br2 Cu2 1_555 1_555
N1 C1 1_555 1_555
N2 C1 1_555 1_555
C1 H1 1_555 1_555
C2 N2 1_555 1_555
H2 C2 1_555 1_555
C3 C2 1_555 1_555
H3 C3 1_555 1_555
C4 N1 1_555 1_555
H4 C4 1_555 1_555
N3 C6 1_555 1_555
C5 H5 1_555 1_555
C6 C5 1_555 1_555
H6 C6 1_555 1_555
N4 C7 1_555 1_555
C7 N3 1_555 1_555
H7 C7 1_555 1_555
C8 C5 1_555 1_555
H8 C8 1_555 1_555
Cu1 N1 1_555 1_555
Cu2 N2 1_555 1_555
Br2B Cu2 1_555 1_555
Cu2B Br2 1_555 1_555
Br1A Cu1 1_555 1_555
N3C Cu2 1_555 1_555
Cu2C N3 1_555 1_555
Cu1A Br1 1_555 1_555
C3 C4 1_555 1_555
N4 Cu1 1_555 1_555
N4 C8 1_555 1_555
Br2B Cu2B 1_555 1_555

#END
