
#######################################################################
#
#                 Cambridge Crystallographic Data Centre
#                                CCDC 
#
#######################################################################
#
# If this CIF has been generated from an entry in the Cambridge 
# Structural Database, then it will include bibliographic, chemical, 
# crystal, experimental, refinement or atomic coordinate data resulting 
# from the CCDC's data processing and validation procedures.
#
#######################################################################

data_CAQXOH
_symmetry_cell_setting           orthorhombic
_symmetry_space_group_name_H-M   'C m c a'
_symmetry_Int_Tables_number      64
_space_group_name_Hall           '-C 2ac 2'
loop_
_symmetry_equiv_pos_site_id
_symmetry_equiv_pos_as_xyz
1 x,y,z
2 1/2+x,1/2+y,z
3 x,1/2+y,1/2-z
4 x,1/2-y,1/2+z
5 -x,y,z
6 1/2+x,y,1/2-z
7 1/2+x,-y,1/2+z
8 1/2-x,1/2+y,z
9 -x,-y,-z
10 1/2-x,1/2-y,-z
11 -x,1/2-y,1/2+z
12 -x,1/2+y,1/2-z
13 x,-y,-z
14 1/2-x,-y,1/2+z
15 1/2-x,y,1/2-z
16 1/2+x,1/2-y,-z
_cell_length_a                   12.270(3)
_cell_length_b                   14.400(3)
_cell_length_c                   12.691(3)
_cell_angle_alpha                90
_cell_angle_beta                 90
_cell_angle_gamma                90
_cell_volume                     2242.35
loop_
_atom_site_label
_atom_site_type_symbol
_atom_site_fract_x
_atom_site_fract_y
_atom_site_fract_z
Cl1 Cl 0.30243(7) 0.37308(7) 0.11471(7)
N1 N 0.0551(2) 0.2586(2) 0.1712(2)
C1 C 0.1064(3) 0.1821(3) 0.1419(3)
H1 H 0.1822(3) 0.1835(3) 0.1401(3)
C2 C 0.0558(4) 0.1005(2) 0.1138(3)
H2 H 0.0955(4) 0.0478(2) 0.0957(3)
N2 N 0.0548(2) 0.4895(2) 0.1578(2)
C3 C 0.1060(4) 0.5621(3) 0.1186(3)
H3 H 0.1817(4) 0.5600(3) 0.1162(3)
C4 C 0.0562(4) 0.6399(3) 0.0813(3)
H4 H 0.0960(4) 0.6905(3) 0.0570(3)
Cu1 Cu 0.13062(4) 0.37698(3) 0.21621(4)
N1D N -0.0551(2) 0.2586(2) 0.1712(2)
C1D C -0.1064(3) 0.1821(3) 0.1419(3)
H1D H -0.1822(3) 0.1835(3) 0.1401(3)
C2D C -0.0558(4) 0.1005(2) 0.1138(3)
H2D H -0.0955(4) 0.0478(2) 0.0957(3)
N2D N -0.0548(2) 0.4895(2) 0.1578(2)
C3D C -0.1060(4) 0.5621(3) 0.1186(3)
H3D H -0.1817(4) 0.5600(3) 0.1162(3)
C4D C -0.0562(4) 0.6399(3) 0.0813(3)
H4D H -0.0960(4) 0.6905(3) 0.0570(3)
Cl1N Cl 0.19757(7) 0.37308(7) 0.38529(7)
Cu1N Cu 0.36938(4) 0.37698(3) 0.28379(4)
Cu1D Cu -0.13062(4) 0.37698(3) 0.21621(4)
N1N N 0.4449(2) 0.2586(2) 0.3288(2)
N2N N 0.4452(2) 0.4895(2) 0.3422(2)
loop_
_geom_bond_atom_site_label_1
_geom_bond_atom_site_label_2
_geom_bond_site_symmetry_1
_geom_bond_site_symmetry_2
Cl1 Cu1 1_555 1_555
N1 C1 1_555 1_555
C1 H1 1_555 1_555
C2 C1 1_555 1_555
H2 C2 1_555 1_555
N2 C3 1_555 1_555
C3 H3 1_555 1_555
C4 C3 1_555 1_555
H4 C4 1_555 1_555
Cu1 N1 1_555 1_555
N1D N1 1_555 1_555
C1D N1D 1_555 1_555
H1D C1D 1_555 1_555
C2D C2 1_555 1_555
H2D C2D 1_555 1_555
N2D N2 1_555 1_555
C3D N2D 1_555 1_555
H3D C3D 1_555 1_555
C4D C4 1_555 1_555
H4D C4D 1_555 1_555
Cl1N Cu1 1_555 1_555
Cu1N Cl1 1_555 1_555
Cu1D N1D 1_555 1_555
N1N Cu1N 1_555 1_555
N2N Cu1N 1_555 1_555
N2 Cu1 1_555 1_555
C1D C2D 1_555 1_555
N2D Cu1D 1_555 1_555
C3D C4D 1_555 1_555
Cl1N Cu1N 1_555 1_555

#END
