
#######################################################################
#
#                 Cambridge Crystallographic Data Centre
#                                CCDC 
#
#######################################################################
#
# If this CIF has been generated from an entry in the Cambridge 
# Structural Database, then it will include bibliographic, chemical, 
# crystal, experimental, refinement or atomic coordinate data resulting 
# from the CCDC's data processing and validation procedures.
#
#######################################################################

data_CAQXAT
_symmetry_cell_setting           monoclinic
_symmetry_space_group_name_H-M   'C 2/m'
_symmetry_Int_Tables_number      12
_space_group_name_Hall           '-C 2y'
loop_
_symmetry_equiv_pos_site_id
_symmetry_equiv_pos_as_xyz
1 x,y,z
2 1/2+x,1/2+y,z
3 x,-y,z
4 1/2+x,1/2-y,z
5 -x,-y,-z
6 1/2-x,1/2-y,-z
7 -x,y,-z
8 1/2-x,1/2+y,-z
_cell_length_a                   8.967(4)
_cell_length_b                   12.539(6)
_cell_length_c                   5.995(2)
_cell_angle_alpha                90
_cell_angle_beta                 100.33(3)
_cell_angle_gamma                90
_cell_volume                     663.135
loop_
_atom_site_label
_atom_site_type_symbol
_atom_site_fract_x
_atom_site_fract_y
_atom_site_fract_z
I1 I -0.25018(6) -0.5000 -0.00025(9)
Cu1 Cu -0.46318(14) -0.5000 0.2390(2)
N1 N -0.5346(5) -0.6401(3) -0.4099(7)
C1 C -0.5699(7) -0.2675(4) -0.3264(10)
H1 H -0.6199(7) -0.2687(4) -0.2033(10)
C2 C -0.5374(8) -0.1699(5) -0.4102(13)
H2 H -0.4348(8) -0.1066(5) -0.6524(13)
I1D I -0.74982(6) -0.5000 0.00025(9)
Cu1D Cu -0.53682(14) -0.5000 -0.2390(2)
N1D N -0.4654(5) -0.3599(3) 0.4099(7)
N1F N -0.4654(5) -0.6401(3) -0.5901(7)
Cu1_2 Cu -0.46318(14) -0.5000 -0.7610(2)
N1D_2 N -0.4654(5) -0.3599(3) -0.5901(7)
N1B N -0.5346(5) -0.3599(3) -0.4099(7)
C2F C -0.4626(8) -0.1699(5) -0.5898(13)
C1F C -0.4301(7) -0.2675(4) -0.6736(10)
H1F H -0.3801(7) -0.2687(4) -0.7967(10)
H2F H -0.5652(8) -0.1066(5) -0.3476(13)
C1D C -0.4301(7) -0.7325(4) -0.6736(10)
H1D H -0.3801(7) -0.7313(4) -0.7967(10)
C2D C -0.4626(8) -0.8301(5) -0.5898(13)
C2B C -0.5374(8) -0.8301(5) -0.4102(13)
C1B C -0.5699(7) -0.7325(4) -0.3264(10)
H1B H -0.6199(7) -0.7313(4) -0.2033(10)
H2D H -0.5652(8) -0.8934(5) -0.3476(13)
H2B H -0.4348(8) -0.8934(5) -0.6524(13)
N1F_2 N -0.4654(5) -0.6401(3) 0.4099(7)
loop_
_geom_bond_atom_site_label_1
_geom_bond_atom_site_label_2
_geom_bond_site_symmetry_1
_geom_bond_site_symmetry_2
I1 Cu1 1_555 1_555
Cu1 I1D 1_555 1_555
N1 Cu1D 1_555 1_555
C1 H1 1_555 1_555
C2 C1 1_555 1_555
H2 C2F 1_555 1_555
I1D Cu1D 1_555 1_555
Cu1D I1 1_555 1_555
N1D Cu1 1_555 1_555
N1F N1 1_555 1_555
Cu1_2 N1F 1_555 1_555
N1D_2 Cu1_2 1_555 1_555
N1B C1 1_555 1_555
C2F C2 1_555 1_555
C1F N1D_2 1_555 1_555
H1F C1F 1_555 1_555
H2F C2 1_555 1_555
C1D N1F 1_555 1_555
H1D C1D 1_555 1_555
C2D C1D 1_555 1_555
C2B C2D 1_555 1_555
C1B N1 1_555 1_555
H1B C1B 1_555 1_555
H2D C2B 1_555 1_555
H2B C2D 1_555 1_555
N1F_2 Cu1 1_555 1_555
Cu1D N1B 1_555 1_555
N1D_2 N1B 1_555 1_555
C2F C1F 1_555 1_555
C2B C1B 1_555 1_555

#END
