
#######################################################################
#
#                 Cambridge Crystallographic Data Centre
#                                CCDC 
#
#######################################################################
#
# If this CIF has been generated from an entry in the Cambridge 
# Structural Database, then it will include bibliographic, chemical, 
# crystal, experimental, refinement or atomic coordinate data resulting 
# from the CCDC's data processing and validation procedures.
#
#######################################################################

data_CAQZIE
_symmetry_cell_setting           monoclinic
_symmetry_space_group_name_H-M   'C 2/c'
_symmetry_Int_Tables_number      15
_space_group_name_Hall           '-C 2yn'
loop_
_symmetry_equiv_pos_site_id
_symmetry_equiv_pos_as_xyz
1 x,y,z
2 1/2+x,1/2+y,z
3 -x,y,1/2-z
4 1/2-x,1/2+y,1/2-z
5 -x,-y,-z
6 1/2-x,1/2-y,-z
7 x,-y,1/2+z
8 1/2+x,1/2-y,1/2+z
_cell_length_a                   7.8551(4)
_cell_length_b                   17.3253(8)
_cell_length_c                   32.4115(15)
_cell_angle_alpha                90
_cell_angle_beta                 92.440(2)
_cell_angle_gamma                90
_cell_volume                     4406.95
loop_
_atom_site_label
_atom_site_type_symbol
_atom_site_fract_x
_atom_site_fract_y
_atom_site_fract_z
Zn1 Zn 0.40783(16) 0.67136(7) 0.51057(4)
C1 C 0.5403(15) 0.6915(7) 0.4274(3)
H1 H 0.5536 0.7425 0.4359
C2 C 0.5887(17) 0.6711(6) 0.3886(3)
H2 H 0.6341 0.7084 0.3716
C3 C 0.5711(12) 0.5971(6) 0.3747(3)
C4 C 0.6241(13) 0.5745(6) 0.3330(3)
C5 C 0.667(2) 0.6297(7) 0.3049(4)
H3 H 0.6585 0.6819 0.3112
C6 C 0.724(2) 0.6064(8) 0.2669(4)
H4 H 0.7555 0.6442 0.2483
C7 C 0.6968(17) 0.4811(7) 0.2821(4)
H5 H 0.7096 0.4295 0.2749
C8 C 0.6374(16) 0.4985(7) 0.3203(3)
H6 H 0.6060 0.4589 0.3378
C9 C 0.5013(13) 0.5443(6) 0.4018(3)
H7 H 0.4844 0.4933 0.3937
C10 C 0.4575(13) 0.5678(6) 0.4405(3)
H8 H 0.4139 0.5316 0.4584
C11 C 0.4966(12) 0.8218(6) 0.5261(3)
C12 C 0.3596(14) 0.9360(7) 0.6625(3)
C13 C 0.6999(13) 1.0892(6) 0.5622(3)
C14 C 0.5047(12) 0.8893(5) 0.5558(3)
C15 C 0.4315(12) 0.8838(6) 0.5932(3)
H9 H 0.3771 0.8383 0.6003
C16 C 0.4372(12) 0.9448(6) 0.6208(3)
C17 C 0.5197(12) 1.0122(5) 0.6099(3)
H10 H 0.5237 1.0534 0.6284
C18 C 0.5967(11) 1.0200(5) 0.5722(3)
C19 C 0.5888(11) 0.9569(5) 0.5457(3)
H11 H 0.6410 0.9600 0.5205
N1 N 0.4752(10) 0.6407(5) 0.4532(2)
N2 N 0.7356(13) 0.5340(6) 0.2557(3)
O1 O 0.3775(9) 0.7730(4) 0.5321(2)
O2 O 0.5980(9) 0.8169(4) 0.4985(2)
O3 O 0.3126(12) 0.8714(5) 0.6738(2)
O4 O 0.3529(11) 0.9977(4) 0.6841(2)
H12 H 0.3096 0.9881 0.7061
O5 O 0.7217(12) 1.1399(4) 0.5884(2)
O6 O 0.7573(9) 1.0897(4) 0.52631(19)
O7 O 0.6309(10) 0.6329(4) 0.5405(2)
Zn1A Zn 0.90783(16) 1.17136(7) 0.51057(4)
O6A O 0.2573(9) 0.5897(4) 0.52631(19)
O8 O 0.624(2) 0.6613(8) 0.6224(4)
O9 O 0.865(4) 0.6572(9) 0.6919(6)
O10 O 0.740(3) 0.2863(8) 0.3385(4)
loop_
_geom_bond_atom_site_label_1
_geom_bond_atom_site_label_2
_geom_bond_site_symmetry_1
_geom_bond_site_symmetry_2
Zn1 N1 1_555 1_555
C1 H1 1_555 1_555
C2 C1 1_555 1_555
H2 C2 1_555 1_555
C3 C2 1_555 1_555
C4 C3 1_555 1_555
C5 C4 1_555 1_555
H3 C5 1_555 1_555
C6 C5 1_555 1_555
H4 C6 1_555 1_555
C7 H5 1_555 1_555
C8 C4 1_555 1_555
H6 C8 1_555 1_555
C9 C3 1_555 1_555
H7 C9 1_555 1_555
C10 C9 1_555 1_555
H8 C10 1_555 1_555
C11 C14 1_555 1_555
C12 C16 1_555 1_555
C13 C18 1_555 1_555
C14 C15 1_555 1_555
C15 H9 1_555 1_555
C16 C15 1_555 1_555
C17 C16 1_555 1_555
H10 C17 1_555 1_555
C18 C17 1_555 1_555
C19 C14 1_555 1_555
H11 C19 1_555 1_555
N1 C1 1_555 1_555
N2 C6 1_555 1_555
O1 Zn1 1_555 1_555
O2 C11 1_555 1_555
O3 C12 1_555 1_555
O4 C12 1_555 1_555
H12 O4 1_555 1_555
O5 C13 1_555 1_555
O6 C13 1_555 1_555
O7 Zn1 1_555 1_555
Zn1A O6 1_555 1_555
O6A Zn1 1_555 1_555
C7 C8 1_555 1_555
C7 N2 1_555 1_555
C10 N1 1_555 1_555
C11 O1 1_555 1_555
C18 C19 1_555 1_555

#END
