
#######################################################################
#
#                 Cambridge Crystallographic Data Centre
#                                CCDC 
#
#######################################################################
#
# If this CIF has been generated from an entry in the Cambridge 
# Structural Database, then it will include bibliographic, chemical, 
# crystal, experimental, refinement or atomic coordinate data resulting 
# from the CCDC's data processing and validation procedures.
#
#######################################################################

data_CARCII
_symmetry_cell_setting           orthorhombic
_symmetry_space_group_name_H-M   'P b n 21'
_symmetry_Int_Tables_number      33
_space_group_name_Hall           'P 2c -2ab'
loop_
_symmetry_equiv_pos_site_id
_symmetry_equiv_pos_as_xyz
1 x,y,z
2 -x,-y,1/2+z
3 1/2+x,1/2-y,1/2+z
4 1/2-x,1/2+y,z
_cell_length_a                   9.4183(2)
_cell_length_b                   21.2326(4)
_cell_length_c                   37.9387(8)
_cell_angle_alpha                90
_cell_angle_beta                 90
_cell_angle_gamma                90
_cell_volume                     7586.79
loop_
_atom_site_label
_atom_site_type_symbol
_atom_site_fract_x
_atom_site_fract_y
_atom_site_fract_z
Gd1 Gd 0.04122(18) 0.22696(7) 0.12595(3)
Gd2 Gd 0.04185(18) 0.22631(7) -0.17328(3)
Cu1 Cu 0.2076(5) 0.48393(19) -0.19534(15)
Cu2 Cu 0.2077(5) 0.48422(17) 0.14823(15)
Cu3 Cu 0.1296(5) 0.22401(18) -0.0239(2)
S1 S -0.1142(14) 0.2454(8) -0.2571(4)
S2 S -0.2993(18) 0.1856(14) 0.0958(6)
S3 S -0.2948(10) 0.1578(3) -0.1532(4)
S4 S 0.1905(10) 0.5078(5) -0.2826(3)
S5 S -0.1074(17) 0.2476(6) 0.2130(4)
N1 N 0.298(2) 0.4079(11) -0.1800(7)
N2 N 0.387(3) 0.5213(12) -0.1798(9)
N3 N 0.004(3) 0.2607(12) -0.0556(8)
N4 N 0.033(2) 0.2767(10) 0.0100(7)
O1 O -0.2063(18) 0.2139(8) 0.1162(5)
O2 O 0.171(2) 0.1846(10) 0.0786(7)
O3 O 0.2278(18) 0.3002(8) 0.1273(6)
O4 O -0.014(2) 0.2182(9) -0.2346(6)
O5 O 0.0293(18) 0.4335(8) -0.1947(5)
O6 O -0.0329(19) 0.3292(9) -0.1933(6)
O7 O 0.5034(17) 0.6159(8) 0.1242(6)
O8 O 0.271(2) 0.6684(9) 0.1517(6)
O9 O -0.032(3) 0.2727(11) 0.0701(9)
O10 O 0.2377(19) 0.3017(9) -0.1693(6)
O11 O 0.243(2) 0.1984(11) -0.0658(6)
O12 O -0.014(3) 0.2762(10) -0.1170(8)
O13 O 0.029(2) 0.2221(9) 0.1895(6)
O14 O 0.2007(19) 0.1806(8) 0.0182(5)
O15 O 0.1480(19) 0.5737(8) -0.1987(5)
O16 O 0.490(2) 0.6126(11) -0.1743(8)
O17 O 0.250(2) 0.6683(8) -0.1970(5)
O18 O -0.208(2) 0.2131(11) -0.1728(7)
O19 O 0.257(2) 0.4662(8) -0.2543(5)
N5 N 0.287(2) 0.4053(12) 0.1296(8)
O20 O 0.0330(18) 0.4289(8) 0.1574(5)
O21 O 0.1650(18) 0.5749(7) 0.1609(5)
N6 N 0.382(2) 0.5168(9) 0.1299(7)
O22 O -0.035(2) 0.3344(10) 0.1426(7)
O23 O 0.186(2) 0.1869(10) -0.1205(7)
C1 C 0.450(3) 0.4132(13) -0.1692(9)
C2 C 0.515(3) 0.3627(14) -0.1528(9)
C3 C 0.646(4) 0.3705(17) -0.1528(11)
C4 C 0.720(3) 0.4412(13) -0.1439(9)
C5 C 0.619(3) 0.4824(11) -0.1522(7)
C6 C 0.497(3) 0.4780(13) -0.1641(9)
C7 C -0.058(3) 0.3193(13) -0.0427(8)
C8 C 0.216(3) 0.3567(11) -0.1784(7)
C9 C 0.024(3) 0.2519(17) -0.0903(10)
C10 C 0.054(3) 0.2556(16) 0.0411(10)
C11 C 0.108(9) 0.197(4) -0.093(2)
C12 C 0.406(3) 0.5792(12) -0.1798(8)
C13 C 0.261(3) 0.6097(11) -0.1912(7)
C14 C -0.214(4) 0.4086(17) -0.0397(10)
C15 C -0.296(4) 0.3810(18) -0.0035(11)
C16 C -0.226(6) 0.330(3) 0.0247(17)
C17 C 0.258(3) 0.6130(14) 0.1520(9)
C18 C -0.480(9) 0.178(4) -0.160(2)
C19 C -0.077(4) 0.2046(16) 0.2524(10)
C20 C -0.033(5) 0.308(2) 0.2349(15)
C21 C 0.381(3) 0.5781(12) 0.1324(8)
C22 C -0.101(4) 0.2985(15) -0.0060(9)
C23 C 0.070(2) 0.3771(9) 0.1442(6)
C24 C 0.040(3) 0.3694(14) -0.1904(9)
C25 C 0.191(3) 0.3576(12) 0.1335(8)
C26 C -0.138(4) 0.1876(17) -0.2937(11)
C27 C 0.153(2) 0.2059(9) 0.0460(5)
C28 C -0.037(5) 0.329(2) -0.2773(16)
C29 C 0.315(4) 0.5629(15) -0.2998(10)
C30 C 0.186(5) 0.446(2) -0.3208(13)
C31 C -0.147(3) 0.3563(14) -0.0610(9)
C32 C -0.471(4) 0.1841(18) 0.1053(12)
S6 S 0.2030(19) 0.5078(7) 0.2337(4)
C33 C 0.183(4) 0.4639(17) 0.2720(10)
C34 C 0.421(3) 0.4102(11) 0.1194(7)
C35 C 0.476(3) 0.4731(11) 0.1220(8)
C36 C 0.709(3) 0.4309(13) 0.1036(9)
C37 C 0.529(2) 0.3594(10) 0.1172(7)
C38 C 0.627(3) 0.4895(13) 0.1135(8)
C39 C 0.674(3) 0.3745(13) 0.1018(8)
C40 C 0.358(5) 0.557(2) 0.2429(13)
O26 O -0.088(7) 0.112(3) -0.024(4)
C41 C -0.242(7) 0.146(3) 0.0693(19)
C42 C -0.292(14) 0.184(6) -0.093(3)
O27 O 0.307(3) 0.4698(14) 0.2067(9)
Gd1C Gd 0.45878(18) 0.72696(7) 0.12595(3)
Gd2C Gd 0.45815(18) 0.72631(7) -0.17328(3)
O7C O -0.0034(17) 0.1159(8) 0.1242(6)
O8C O 0.229(2) 0.1684(9) 0.1517(6)
O16C O 0.010(2) 0.1126(11) -0.1743(8)
O17C O 0.250(2) 0.1683(8) -0.1970(5)
O24 O 0.892(2) 0.4993(10) 0.3921(6)
O25 O 0.872(5) 0.1648(19) 0.473(2)
loop_
_geom_bond_atom_site_label_1
_geom_bond_atom_site_label_2
_geom_bond_site_symmetry_1
_geom_bond_site_symmetry_2
Gd1 O1 1_555 1_555
Gd2 O4 1_555 1_555
Cu1 N1 1_555 1_555
Cu2 N5 1_555 1_555
Cu3 N3 1_555 1_555
S1 O4 1_555 1_555
S2 O1 1_555 1_555
S3 O18 1_555 1_555
S4 O19 1_555 1_555
S5 O13 1_555 1_555
N1 C1 1_555 1_555
N2 Cu1 1_555 1_555
N3 C7 1_555 1_555
N4 Cu3 1_555 1_555
O2 Gd1 1_555 1_555
O3 Gd1 1_555 1_555
O5 Cu1 1_555 1_555
O6 Gd2 1_555 1_555
O7 C21 1_555 1_555
O8 C17 1_555 1_555
O9 Gd1 1_555 1_555
O10 Gd2 1_555 1_555
O11 Cu3 1_555 1_555
O12 Gd2 1_555 1_555
O13 Gd1 1_555 1_555
O14 Cu3 1_555 1_555
O15 Cu1 1_555 1_555
O16 C12 1_555 1_555
O17 C13 1_555 1_555
O18 Gd2 1_555 1_555
O19 Cu1 1_555 1_555
N5 C25 1_555 1_555
O20 Cu2 1_555 1_555
O21 Cu2 1_555 1_555
N6 Cu2 1_555 1_555
O22 Gd1 1_555 1_555
O23 Gd2 1_555 1_555
C1 C2 1_555 1_555
C2 C3 1_555 1_555
C3 C4 1_555 1_555
C4 C5 1_555 1_555
C5 C6 1_555 1_555
C6 N2 1_555 1_555
C7 C22 1_555 1_555
C8 N1 1_555 1_555
C9 N3 1_555 1_555
C10 N4 1_555 1_555
C11 O11 1_555 1_555
C12 N2 1_555 1_555
C13 O15 1_555 1_555
C14 C15 1_555 1_555
C15 C16 1_555 1_555
C16 C22 1_555 1_555
C17 O21 1_555 1_555
C18 S3 1_555 1_555
C19 S5 1_555 1_555
C20 S5 1_555 1_555
C21 N6 1_555 1_555
C22 N4 1_555 1_555
C23 O20 1_555 1_555
C24 O5 1_555 1_555
C25 O3 1_555 1_555
C26 S1 1_555 1_555
C27 O2 1_555 1_555
C28 S1 1_555 1_555
C29 S4 1_555 1_555
C30 S4 1_555 1_555
C31 C7 1_555 1_555
C32 S2 1_555 1_555
S6 C33 1_555 1_555
C34 N5 1_555 1_555
C35 N6 1_555 1_555
C36 C38 1_555 1_555
C37 C34 1_555 1_555
C38 C35 1_555 1_555
C39 C36 1_555 1_555
C40 S6 1_555 1_555
O26 Cu3 1_555 1_555
C41 S2 1_555 1_555
C42 S3 1_555 1_555
O27 Cu2 1_555 1_555
Gd1C O7 1_555 1_555
Gd2C O16 1_555 1_555
O7C Gd1 1_555 1_555
O8C Gd1 1_555 1_555
O16C Gd2 1_555 1_555
O17C Gd2 1_555 1_555
O6 C24 1_555 1_555
O8 Gd1C 1_555 1_555
O9 C10 1_555 1_555
O10 C8 1_555 1_555
O12 C9 1_555 1_555
O14 C27 1_555 1_555
O17 Gd2C 1_555 1_555
O22 C23 1_555 1_555
O23 C11 1_555 1_555
C1 C6 1_555 1_555
C8 C24 1_555 1_555
C9 C11 1_555 1_555
C10 C27 1_555 1_555
C12 C13 1_555 1_555
C14 C31 1_555 1_555
C17 C21 1_555 1_555
C23 C25 1_555 1_555
S6 O27 1_555 1_555
C34 C35 1_555 1_555
C37 C39 1_555 1_555

#END
