
#######################################################################
#
#                 Cambridge Crystallographic Data Centre
#                                CCDC 
#
#######################################################################
#
# If this CIF has been generated from an entry in the Cambridge 
# Structural Database, then it will include bibliographic, chemical, 
# crystal, experimental, refinement or atomic coordinate data resulting 
# from the CCDC's data processing and validation procedures.
#
#######################################################################

data_CARWOH
_symmetry_cell_setting           orthorhombic
_symmetry_space_group_name_H-M   'P b c m'
_symmetry_Int_Tables_number      57
_space_group_name_Hall           '-P 2c 2b'
loop_
_symmetry_equiv_pos_site_id
_symmetry_equiv_pos_as_xyz
1 x,y,z
2 -x,-y,1/2+z
3 x,1/2-y,-z
4 -x,1/2+y,1/2-z
5 -x,-y,-z
6 x,y,1/2-z
7 -x,1/2+y,z
8 x,1/2-y,1/2+z
_cell_length_a                   8.668(4)
_cell_length_b                   18.944(2)
_cell_length_c                   18.196(1)
_cell_angle_alpha                90
_cell_angle_beta                 90
_cell_angle_gamma                90
_cell_volume                     2987.9
loop_
_atom_site_label
_atom_site_type_symbol
_atom_site_fract_x
_atom_site_fract_y
_atom_site_fract_z
Ag1 Ag 0.2798(1) 0.2500 -0.5000
S1 S 0.3515(3) 0.1635(1) -0.4004(1)
S2 S 0.0845(3) 0.2903(1) -0.1001(1)
O1 O 0.374(1) 0.1066(4) -0.2500
O2 O -0.034(1) 0.3055(6) -0.2500
C1 C 0.2718(9) 0.2021(4) -0.3204(4)
C2 C 0.315(1) 0.1645(6) -0.2500
C3 C 0.1602(8) 0.2516(4) -0.1796(3)
C4 C 0.085(1) 0.2733(5) -0.2500
C5 C 0.559(1) 0.1579(6) -0.3823(5)
C6 C 0.627(2) 0.1177(8) -0.4473(7)
C7 C 0.628(1) 0.2285(8) -0.3701(8)
C8 C 0.103(1) 0.3866(5) -0.1163(5)
C9 C 0.268(2) 0.4078(6) -0.1241(8)
C10 C 0.022(2) 0.4218(6) -0.0534(7)
H1 H 0.6194 0.1462 -0.4931
H2 H 0.7228 0.1049 -0.4355
H3 H 0.5718 0.0676 -0.4503
H4 H 0.7350 0.2218 -0.3612
H5 H 0.6120 0.2560 -0.4119
H6 H 0.5806 0.2487 -0.3283
H7 H 0.2716 0.4579 -0.1308
H8 H 0.3112 0.3853 -0.1654
H9 H 0.3220 0.3957 -0.0809
H10 H -0.0811 0.4073 -0.0528
H11 H 0.0288 0.4715 -0.0605
H12 H 0.0727 0.4093 -0.0092
H13 H 0.5730 0.1306 -0.3392
H14 H 0.0510 0.3978 -0.1606
C1E C 0.2718(9) 0.2021(4) -0.1796(4)
S1E S 0.3515(3) 0.1635(1) -0.0996(1)
Ag1E Ag 0.2798(1) 0.2500 0.0000
S1G S 0.3515(3) 0.3365(1) 0.0996(1)
S2B S 0.0845(3) 0.2097(1) 0.1001(1)
S2G S 0.0845(3) 0.2097(1) -0.6001(1)
C5E C 0.559(1) 0.1579(6) -0.1177(5)
C6E C 0.627(2) 0.1177(8) -0.0527(7)
H1E H 0.6194 0.1462 -0.0069
H2E H 0.7228 0.1049 -0.0645
H3E H 0.5718 0.0676 -0.0497
C7E C 0.628(1) 0.2285(8) -0.1299(8)
H4E H 0.7350 0.2218 -0.1388
H5E H 0.6120 0.2560 -0.0881
H6E H 0.5806 0.2487 -0.1717
H13E H 0.5730 0.1306 -0.1608
S1B S 0.3515(3) 0.3365(1) -0.5996(1)
S2E S 0.0845(3) 0.2903(1) -0.3999(1)
C3E C 0.1602(8) 0.2516(4) -0.3204(3)
C8E C 0.103(1) 0.3866(5) -0.3837(5)
C9E C 0.268(2) 0.4078(6) -0.3759(8)
C10E C 0.022(2) 0.4218(6) -0.4466(7)
H14E H 0.0510 0.3978 -0.3394
H7E H 0.2716 0.4579 -0.3692
H8E H 0.3112 0.3853 -0.3346
H9E H 0.3220 0.3957 -0.4191
H10E H -0.0811 0.4073 -0.4472
H11E H 0.0288 0.4715 -0.4395
H12E H 0.0727 0.4093 -0.4908
Cl1 Cl 0.9112(5) 0.0737(2) -0.2500
O3 O 0.754(1) 0.0633(7) -0.2500
O4 O 0.978(2) 0.0101(7) -0.2500
O5 O 0.962(2) 0.1072(8) -0.3062(9)
O5E O 0.962(2) 0.1072(8) -0.1938(9)
O6 O 0.539(2) 0.1403(9) -0.7500
C11 C 0.617(3) 0.087(1) -0.7500
C12 C 0.673(2) 0.0559(9) -0.8210(9)
H15 H 0.7327 0.0147 -0.8106
H16 H 0.5853 0.0434 -0.8487
H17 H 0.7328 0.0896 -0.8450
C12E C 0.673(2) 0.0559(9) -0.6790(9)
H15E H 0.7327 0.0147 -0.6894
H16E H 0.5853 0.0434 -0.6513
H17E H 0.7328 0.0896 -0.6550
loop_
_geom_bond_atom_site_label_1
_geom_bond_atom_site_label_2
_geom_bond_site_symmetry_1
_geom_bond_site_symmetry_2
Ag1 S1 1_555 1_555
Cl1 O3 1_555 1_555
S1 C1 1_555 1_555
S2 C3 1_555 1_555
O1 C2 1_555 1_555
O2 C4 1_555 1_555
O4 Cl1 1_555 1_555
O5 Cl1 1_555 1_555
O6 C11 1_555 1_555
C1 C2 1_555 1_555
C2 C1E 1_555 1_555
C3 C4 1_555 1_555
C4 C3E 1_555 1_555
C5 S1 1_555 1_555
C6 C5 1_555 1_555
C7 C5 1_555 1_555
C8 S2 1_555 1_555
C9 C8 1_555 1_555
C10 C8 1_555 1_555
C11 C12 1_555 1_555
C12 H15 1_555 1_555
H1 C6 1_555 1_555
H2 C6 1_555 1_555
H3 C6 1_555 1_555
H4 C7 1_555 1_555
H5 C7 1_555 1_555
H6 C7 1_555 1_555
H7 C9 1_555 1_555
H8 C9 1_555 1_555
H9 C9 1_555 1_555
H10 C10 1_555 1_555
H11 C10 1_555 1_555
H12 C10 1_555 1_555
H13 C5 1_555 1_555
H14 C8 1_555 1_555
H16 C12 1_555 1_555
H17 C12 1_555 1_555
C1E C3 1_555 1_555
S1E C1E 1_555 1_555
Ag1E S2 1_555 1_555
S1G Ag1E 1_555 1_555
S2B Ag1E 1_555 1_555
S2G Ag1 1_555 1_555
C5E S1E 1_555 1_555
C6E C5E 1_555 1_555
H1E C6E 1_555 1_555
H2E C6E 1_555 1_555
H3E C6E 1_555 1_555
C7E C5E 1_555 1_555
H4E C7E 1_555 1_555
H5E C7E 1_555 1_555
H6E C7E 1_555 1_555
H13E C5E 1_555 1_555
S1B Ag1 1_555 1_555
S2E Ag1 1_555 1_555
O5E Cl1 1_555 1_555
C12E C11 1_555 1_555
H15E C12E 1_555 1_555
H16E C12E 1_555 1_555
H17E C12E 1_555 1_555
C3E C1 1_555 1_555
C8E S2E 1_555 1_555
C9E C8E 1_555 1_555
C10E C8E 1_555 1_555
H14E C8E 1_555 1_555
H7E C9E 1_555 1_555
H8E C9E 1_555 1_555
H9E C9E 1_555 1_555
H10E C10E 1_555 1_555
H11E C10E 1_555 1_555
H12E C10E 1_555 1_555
S1E Ag1E 1_555 1_555
S2E C3E 1_555 1_555

#END
