
#######################################################################
#
#                 Cambridge Crystallographic Data Centre
#                                CCDC 
#
#######################################################################
#
# If this CIF has been generated from an entry in the Cambridge 
# Structural Database, then it will include bibliographic, chemical, 
# crystal, experimental, refinement or atomic coordinate data resulting 
# from the CCDC's data processing and validation procedures.
#
#######################################################################

data_CASQEU
_symmetry_cell_setting           triclinic
_symmetry_space_group_name_H-M   'P -1'
_symmetry_Int_Tables_number      2
_space_group_name_Hall           '-P 1'
loop_
_symmetry_equiv_pos_site_id
_symmetry_equiv_pos_as_xyz
1 x,y,z
2 -x,-y,-z
_cell_length_a                   8.3070(9)
_cell_length_b                   13.6280(15)
_cell_length_c                   14.8286(15)
_cell_angle_alpha                86.207(1)
_cell_angle_beta                 79.341(1)
_cell_angle_gamma                83.864(1)
_cell_volume                     1638.45
loop_
_atom_site_label
_atom_site_type_symbol
_atom_site_fract_x
_atom_site_fract_y
_atom_site_fract_z
O1 O -0.1731(3) 0.38621(16) 0.04534(15)
O2 O -0.0729(3) 0.40758(18) 0.76361(16)
O3 O -0.1250(3) 0.51830(16) 0.11388(15)
C1 C -0.1770(4) 0.4344(2) 0.1152(2)
C2 C -0.2538(4) 0.3907(2) 0.2055(2)
C3 C -0.2908(5) 0.2935(3) 0.2146(2)
H1 H -0.2666 0.2551 0.1634
C4 C -0.3623(5) 0.2523(3) 0.2974(2)
H2 H -0.3849 0.1867 0.3012
C5 C -0.2883(5) 0.4450(3) 0.2840(2)
H3 H -0.2607 0.5096 0.2807
C6 C -0.3626(5) 0.4043(3) 0.3663(2)
H4 H -0.3878 0.4430 0.4173
Co1 Co -0.08883(5) 0.41699(3) -0.08851(3)
S1 S -0.62865(12) 0.90517(7) -0.04386(7)
O4 O -0.2860(3) 0.3587(2) 0.85870(16)
N1 N -0.5034(4) 0.9997(2) -0.1881(3)
N2 N -0.4133(4) 0.9099(2) -0.1884(2)
N3 N -0.2278(3) 0.5615(2) -0.09344(18)
N4 N -0.9405(3) 1.2754(2) -0.08950(19)
C7 C -0.3835(4) 0.7519(2) -0.1068(2)
F1 F -0.5588(4) 0.1130(2) 0.42300(18)
C8 C -0.1832(4) 0.6230(3) -0.1660(2)
H5 H -0.0986 0.6004 -0.2124
C9 C -0.4623(4) 0.8523(2) -0.1179(2)
F2 F -0.7742(3) 0.2578(3) 0.54103(18)
C10 C -0.2826(4) 0.3490(3) 0.6981(2)
C11 C -0.2097(4) 0.3733(3) 0.7783(2)
C12 C -0.9493(4) 1.2053(3) -0.0218(2)
H6 H -1.0263 1.2165 0.0315
C13 C -0.6210(4) 1.0080(2) -0.1172(3)
F3 F -0.7015(3) 0.4003(2) 0.48918(18)
C14 C -0.4015(4) 0.3071(3) 0.3757(2)
C15 C -0.4319(4) 0.6885(3) -0.0319(2)
H7 H -0.5175 0.7088 0.0149
F4 F -0.7260(3) 0.2916(3) 0.39682(18)
F5 F -0.5304(4) 0.1193(2) 0.56276(17)
C16 C -0.7345(4) 1.0995(2) -0.1044(2)
C17 C -0.4203(4) 0.3006(3) 0.5503(2)
C18 C -0.3513(4) 0.5950(2) -0.0280(2)
H8 H -0.3842 0.5531 0.0226
C19 C -0.4482(4) 0.3395(3) 0.7084(2)
H9 H -0.5149 0.3485 0.7655
C20 C -0.4907(4) 0.2670(3) 0.4689(2)
C21 C -0.8275(5) 1.2573(3) -0.1640(3)
H10 H -0.8185 1.3051 -0.2119
F6 F -0.3191(4) 0.11639(19) 0.45621(18)
C22 C -0.2556(4) 0.7171(3) -0.1753(2)
H11 H -0.2199 0.7573 -0.2266
C23 C -0.8503(5) 1.1173(3) -0.0270(3)
H12 H -0.8618 1.0704 0.0216
C24 C -0.5169(5) 0.3167(3) 0.6354(2)
H13 H -0.6297 0.3122 0.6437
C25 C -0.1863(5) 0.3352(3) 0.6134(2)
H14 H -0.0747 0.3432 0.6048
C26 C -0.2537(5) 0.3095(3) 0.5410(3)
H15 H -0.1856 0.2979 0.4847
C27 C -0.7232(5) 1.1720(3) -0.1740(3)
H16 H -0.6455 1.1631 -0.2274
C28 C -0.4766(7) 0.1532(3) 0.4775(3)
C29 C -0.6741(5) 0.3046(4) 0.4742(3)
O2_2 O -0.0729(3) 0.40758(18) -0.23639(16)
O3A O 0.1250(3) 0.48170(16) -0.11388(15)
Co1_2 Co -0.08883(5) 0.41699(3) 0.91149(3)
Co1A Co 0.08883(5) 0.58301(3) 0.08851(3)
Co1_3 Co -1.08883(5) 1.41699(3) -0.08851(3)
O4_2 O -0.2860(3) 0.3587(2) -0.14130(16)
N4_2 N 0.0595(3) 0.2754(2) -0.08950(19)
O5 O 0.0552(7) -0.0658(4) 0.8247(4)
N5 N -0.0653(9) 0.0188(6) 0.7177(6)
C30 C 0.0133(11) -0.0533(9) 0.7518(6)
H17 H 0.0443 -0.1062 0.7137
C31 C -0.1206(15) 0.1007(9) 0.7749(10)
H18 H -0.1062 0.0819 0.8367
H19 H -0.2350 0.1199 0.7742
H20 H -0.0578 0.1552 0.7523
C32 C -0.1233(18) 0.0195(13) 0.6375(8)
H21 H -0.0612 0.0607 0.5918
H22 H -0.2372 0.0449 0.6472
H23 H -0.1123 -0.0466 0.6168
loop_
_geom_bond_atom_site_label_1
_geom_bond_atom_site_label_2
_geom_bond_site_symmetry_1
_geom_bond_site_symmetry_2
O1 C1 1_555 1_555
O2 C11 1_555 1_555
O3 C1 1_555 1_555
C1 C2 1_555 1_555
C2 C3 1_555 1_555
C3 H1 1_555 1_555
C4 C3 1_555 1_555
H2 C4 1_555 1_555
C5 C2 1_555 1_555
H3 C5 1_555 1_555
C6 C5 1_555 1_555
H4 C6 1_555 1_555
Co1 O1 1_555 1_555
S1 C9 1_555 1_555
O4 C11 1_555 1_555
N1 N2 1_555 1_555
N2 C9 1_555 1_555
N3 Co1 1_555 1_555
N4 C12 1_555 1_555
C7 C9 1_555 1_555
F1 C28 1_555 1_555
C8 N3 1_555 1_555
H5 C8 1_555 1_555
F2 C29 1_555 1_555
C10 C11 1_555 1_555
C12 H6 1_555 1_555
C13 S1 1_555 1_555
F3 C29 1_555 1_555
C14 C4 1_555 1_555
C15 C7 1_555 1_555
H7 C15 1_555 1_555
F4 C29 1_555 1_555
F5 C28 1_555 1_555
C16 C13 1_555 1_555
C17 C20 1_555 1_555
C18 N3 1_555 1_555
H8 C18 1_555 1_555
C19 C10 1_555 1_555
H9 C19 1_555 1_555
C20 C14 1_555 1_555
C21 N4 1_555 1_555
H10 C21 1_555 1_555
F6 C28 1_555 1_555
C22 C7 1_555 1_555
H11 C22 1_555 1_555
C23 C12 1_555 1_555
H12 C23 1_555 1_555
C24 C17 1_555 1_555
H13 C24 1_555 1_555
C25 C10 1_555 1_555
H14 C25 1_555 1_555
C26 C17 1_555 1_555
H15 C26 1_555 1_555
C27 C16 1_555 1_555
H16 C27 1_555 1_555
C28 C20 1_555 1_555
C29 C20 1_555 1_555
O5 C30 1_555 1_555
N5 C30 1_555 1_555
C30 H17 1_555 1_555
C31 N5 1_555 1_555
H18 C31 1_555 1_555
H19 C31 1_555 1_555
H20 C31 1_555 1_555
C32 N5 1_555 1_555
H21 C32 1_555 1_555
H22 C32 1_555 1_555
H23 C32 1_555 1_555
O2_2 Co1 1_555 1_555
O3A Co1 1_555 1_555
Co1_2 O2 1_555 1_555
Co1A O3 1_555 1_555
Co1_3 N4 1_555 1_555
O4_2 Co1 1_555 1_555
N4_2 Co1 1_555 1_555
C6 C14 1_555 1_555
O4 Co1_2 1_555 1_555
N1 C13 1_555 1_555
C8 C22 1_555 1_555
C15 C18 1_555 1_555
C16 C23 1_555 1_555
C19 C24 1_555 1_555
C21 C27 1_555 1_555
C25 C26 1_555 1_555

#END
