
#######################################################################
#
#                 Cambridge Crystallographic Data Centre
#                                CCDC 
#
#######################################################################
#
# If this CIF has been generated from an entry in the Cambridge 
# Structural Database, then it will include bibliographic, chemical, 
# crystal, experimental, refinement or atomic coordinate data resulting 
# from the CCDC's data processing and validation procedures.
#
#######################################################################

data_CASSOF
_symmetry_cell_setting           hexagonal
_symmetry_space_group_name_H-M   'P 65 2 2'
_symmetry_Int_Tables_number      179
_space_group_name_Hall           "P 65 2' (0,0,1)"
loop_
_symmetry_equiv_pos_site_id
_symmetry_equiv_pos_as_xyz
1 x,y,z
2 -y,x-y,2/3+z
3 -x+y,-x,1/3+z
4 -x,-y,1/2+z
5 y,-x+y,1/6+z
6 x-y,x,5/6+z
7 y,x,2/3-z
8 x-y,-y,-z
9 -x,-x+y,1/3-z
10 -y,-x,1/6-z
11 -x+y,y,1/2-z
12 x,x-y,5/6-z
_cell_length_a                   10.5446(3)
_cell_length_b                   10.5446(3)
_cell_length_c                   68.265(3)
_cell_angle_alpha                90
_cell_angle_beta                 90
_cell_angle_gamma                120
_cell_volume                     6573.38
loop_
_atom_site_label
_atom_site_type_symbol
_atom_site_fract_x
_atom_site_fract_y
_atom_site_fract_z
Cd1 Cd 0.52100(4) 0.0000 0.0000
Cl1 Cl 0.30320(16) -0.36468(16) 0.01815(2)
O1 O 0.4301(5) -0.2192(4) 0.01897(6)
C1 C 0.3813(6) 0.2145(6) 0.04644(7)
H1 H 0.4303 0.3005 0.0537
C2 C 0.2190(6) 0.2244(6) 0.08286(7)
C3 C 0.1457(5) 0.1553(6) 0.06349(7)
H2 H 0.0512 0.0672 0.0661
C4 C 0.2314(6) 0.1191(6) 0.04935(7)
C5 C 0.2039(6) 0.3418(6) 0.08638(7)
N1 N 0.1192(6) 0.3602(5) 0.07195(6)
H3 H 0.0760 0.4107 0.0730
C6 C 0.4557(6) 0.1803(6) 0.03285(7)
H4 H 0.5546 0.2461 0.0308
C7 C 0.2884(6) 0.1775(6) 0.09631(8)
C8 C 0.1663(6) -0.0083(6) 0.03817(7)
H5 H 0.0668 -0.0750 0.0395
N2 N 0.3917(5) 0.0560(5) 0.02242(6)
C9 C 0.2503(6) -0.0351(6) 0.02515(7)
H6 H 0.2052 -0.1215 0.0179
O2 O 0.2478(5) -0.4017(5) 0.03747(6)
C10 C 0.1187(6) 0.2756(6) 0.05445(8)
H7 H 0.2021 0.3394 0.0461
C11 C 0.3453(6) 0.2642(7) 0.11367(8)
C12 C 0.3034(7) 0.0549(7) 0.09395(9)
H8 H 0.2683 -0.0007 0.0826
O3 O 0.3453(6) -0.4651(6) 0.01149(7)
C13 C 0.2605(7) 0.4271(8) 0.10311(9)
H9 H 0.2491 0.5079 0.1053
O4 O 0.1952(5) -0.3634(6) 0.00563(6)
C14 C 0.3691(8) 0.0136(10) 0.10811(10)
H10 H 0.3770 -0.0697 0.1063
C15 C 0.4125(8) 0.2186(9) 0.12799(9)
H11 H 0.4489 0.2728 0.1394
C16 C 0.3327(7) 0.3895(8) 0.11613(9)
H12 H 0.3754 0.4485 0.1270
C17 C 0.4242(9) 0.0977(11) 0.12525(11)
H13 H 0.4689 0.0701 0.1348
C18 C -0.0198(6) 0.2156(6) 0.04258(7)
C19 C -0.0114(6) 0.2337(6) 0.02238(8)
H14 H 0.0790 0.2833 0.0161
C20 C -0.1572(6) 0.1370(7) 0.05081(8)
H15 H -0.1678 0.1214 0.0643
C21 C -0.1381(6) 0.1773(7) 0.01182(7)
H16 H -0.1312 0.1937 -0.0016
C22 C -0.2777(6) 0.0824(7) 0.03896(8)
H17 H -0.3697 0.0296 0.0447
N3 N -0.2705(5) 0.1005(5) 0.01966(6)
Cd1_2 Cd -0.47900(4) 0.0000 0.0000
Cl1G Cl 0.66788(23) 0.36468(16) -0.01815(2)
O1G O 0.6493(6) 0.2192(4) -0.01897(6)
C1G C 0.1668(8) -0.2145(6) -0.04644(7)
H1G H 0.1298 -0.3005 -0.0537
C2G C -0.0054(8) -0.2244(6) -0.08286(7)
C3G C -0.0096(8) -0.1553(6) -0.06349(7)
H2G H -0.0160 -0.0672 -0.0661
C4G C 0.1123(8) -0.1191(6) -0.04935(7)
C5G C -0.1379(8) -0.3418(6) -0.08638(7)
N1G N -0.2410(8) -0.3602(5) -0.07195(6)
H3G H -0.3347 -0.4107 -0.0730
C6G C 0.2754(8) -0.1803(6) -0.03285(7)
H4G H 0.3085 -0.2461 -0.0308
C7G C 0.1109(8) -0.1775(6) -0.09631(8)
C8G C 0.1746(8) 0.0083(6) -0.03817(7)
H5G H 0.1418 0.0750 -0.0395
N2G N 0.3357(7) -0.0560(5) -0.02242(6)
C9G C 0.2854(8) 0.0351(6) -0.02515(7)
H6G H 0.3267 0.1215 -0.0179
O2G O 0.6495(7) 0.4017(5) -0.03747(6)
C10G C -0.1569(8) -0.2756(6) -0.05445(8)
H7G H -0.1373 -0.3394 -0.0461
C11G C 0.0811(9) -0.2642(7) -0.11367(8)
C12G C 0.2485(10) -0.0549(7) -0.09395(9)
H8G H 0.2690 0.0007 -0.0826
O3G O 0.8104(8) 0.4651(6) -0.01149(7)
C13G C -0.1666(11) -0.4271(8) -0.10311(9)
H9G H -0.2588 -0.5079 -0.1053
O4G O 0.5586(8) 0.3634(6) -0.00563(6)
C14G C 0.3555(13) -0.0136(10) -0.10811(10)
H10G H 0.4467 0.0697 -0.1063
C15G C 0.1939(12) -0.2186(9) -0.12799(9)
H11G H 0.1761 -0.2728 -0.1394
C16G C -0.0568(11) -0.3895(8) -0.11613(9)
H12G H -0.0731 -0.4485 -0.1270
C17G C 0.3265(14) -0.0977(11) -0.12525(11)
H13G H 0.3988 -0.0701 -0.1348
C18G C -0.2354(8) -0.2156(6) -0.04258(7)
C19G C -0.2451(8) -0.2337(6) -0.02238(8)
H14G H -0.2043 -0.2833 -0.0161
C20G C -0.2942(9) -0.1370(7) -0.05081(8)
H15G H -0.2892 -0.1214 -0.0643
C21G C -0.3154(9) -0.1773(7) -0.01182(7)
H16G H -0.3249 -0.1937 0.0016
C22G C -0.3601(9) -0.0824(7) -0.03896(8)
H17G H -0.3993 -0.0296 -0.0447
N3_2 N 0.7295(5) 0.1005(5) 0.01966(6)
N3G N -0.3710(7) -0.1005(5) -0.01966(6)
N3G_2 N 0.6290(7) -0.1005(5) -0.01966(6)
loop_
_geom_bond_atom_site_label_1
_geom_bond_atom_site_label_2
_geom_bond_site_symmetry_1
_geom_bond_site_symmetry_2
Cd1 O1 1_555 1_555
Cl1 O1 1_555 1_555
C1 H1 1_555 1_555
C2 C3 1_555 1_555
C3 H2 1_555 1_555
C4 C1 1_555 1_555
C5 C2 1_555 1_555
N1 C5 1_555 1_555
H3 N1 1_555 1_555
C6 C1 1_555 1_555
H4 C6 1_555 1_555
C7 C2 1_555 1_555
C8 C4 1_555 1_555
H5 C8 1_555 1_555
N2 Cd1 1_555 1_555
C9 C8 1_555 1_555
H6 C9 1_555 1_555
O2 Cl1 1_555 1_555
C10 C3 1_555 1_555
H7 C10 1_555 1_555
C11 C7 1_555 1_555
C12 C7 1_555 1_555
H8 C12 1_555 1_555
O3 Cl1 1_555 1_555
C13 C5 1_555 1_555
H9 C13 1_555 1_555
O4 Cl1 1_555 1_555
C14 C12 1_555 1_555
H10 C14 1_555 1_555
C15 C11 1_555 1_555
H11 C15 1_555 1_555
C16 C11 1_555 1_555
H12 C16 1_555 1_555
C17 C14 1_555 1_555
H13 C17 1_555 1_555
C18 C10 1_555 1_555
C19 C18 1_555 1_555
H14 C19 1_555 1_555
C20 C18 1_555 1_555
H15 C20 1_555 1_555
C21 C19 1_555 1_555
H16 C21 1_555 1_555
C22 C20 1_555 1_555
H17 C22 1_555 1_555
N3 C21 1_555 1_555
Cd1_2 N3 1_555 1_555
Cl1G O1G 1_555 1_555
O1G Cd1 1_555 1_555
C1G H1G 1_555 1_555
C2G C3G 1_555 1_555
C3G H2G 1_555 1_555
C4G C1G 1_555 1_555
C5G C2G 1_555 1_555
N1G C5G 1_555 1_555
H3G N1G 1_555 1_555
C6G C1G 1_555 1_555
H4G C6G 1_555 1_555
C7G C2G 1_555 1_555
C8G C4G 1_555 1_555
H5G C8G 1_555 1_555
N2G Cd1 1_555 1_555
C9G C8G 1_555 1_555
H6G C9G 1_555 1_555
O2G Cl1G 1_555 1_555
C10G C3G 1_555 1_555
H7G C10G 1_555 1_555
C11G C7G 1_555 1_555
C12G C7G 1_555 1_555
H8G C12G 1_555 1_555
O3G Cl1G 1_555 1_555
C13G C5G 1_555 1_555
H9G C13G 1_555 1_555
O4G Cl1G 1_555 1_555
C14G C12G 1_555 1_555
H10G C14G 1_555 1_555
C15G C11G 1_555 1_555
H11G C15G 1_555 1_555
C16G C11G 1_555 1_555
H12G C16G 1_555 1_555
C17G C14G 1_555 1_555
H13G C17G 1_555 1_555
C18G C10G 1_555 1_555
C19G C18G 1_555 1_555
H14G C19G 1_555 1_555
C20G C18G 1_555 1_555
H15G C20G 1_555 1_555
C21G C19G 1_555 1_555
H16G C21G 1_555 1_555
C22G C20G 1_555 1_555
H17G C22G 1_555 1_555
N3_2 Cd1 1_555 1_555
N3G Cd1_2 1_555 1_555
N3G_2 Cd1 1_555 1_555
C3 C4 1_555 1_555
N1 C10 1_555 1_555
C6 N2 1_555 1_555
N2 C9 1_555 1_555
C13 C16 1_555 1_555
C15 C17 1_555 1_555
C22 N3 1_555 1_555
C3G C4G 1_555 1_555
N1G C10G 1_555 1_555
C6G N2G 1_555 1_555
N2G C9G 1_555 1_555
C13G C16G 1_555 1_555
C15G C17G 1_555 1_555
C21G N3G 1_555 1_555
C22G N3G 1_555 1_555

#END
