
#######################################################################
#
#                 Cambridge Crystallographic Data Centre
#                                CCDC 
#
#######################################################################
#
# If this CIF has been generated from an entry in the Cambridge 
# Structural Database, then it will include bibliographic, chemical, 
# crystal, experimental, refinement or atomic coordinate data resulting 
# from the CCDC's data processing and validation procedures.
#
#######################################################################

data_CASVIC
_symmetry_cell_setting           monoclinic
_symmetry_space_group_name_H-M   'P 21/n'
_symmetry_Int_Tables_number      14
_space_group_name_Hall           '-P 2yn'
loop_
_symmetry_equiv_pos_site_id
_symmetry_equiv_pos_as_xyz
1 x,y,z
2 1/2-x,1/2+y,1/2-z
3 -x,-y,-z
4 1/2+x,1/2-y,1/2+z
_cell_length_a                   7.3668(11)
_cell_length_b                   8.1540(12)
_cell_length_c                   14.090(2)
_cell_angle_alpha                90.00
_cell_angle_beta                 103.935(2)
_cell_angle_gamma                90.00
_cell_volume                     821.462
loop_
_atom_site_label
_atom_site_type_symbol
_atom_site_fract_x
_atom_site_fract_y
_atom_site_fract_z
Mn1 Mn 0.0000 1.0000 1.0000
P1 P 0.18439(10) 0.77382(9) 0.84370(5)
P2 P -0.42710(10) 0.81644(9) 0.65777(5)
O1 O 0.2872(3) 0.6125(3) 0.85485(15)
O2 O -0.6127(3) 0.8783(3) 0.58865(17)
O3 O 0.0680(3) 0.8047(3) 0.91512(15)
O4 O -0.4149(3) 0.8570(3) 0.76334(15)
N1 N -0.0682(4) 0.9401(3) 0.70274(19)
O5 O 0.3191(3) 0.9217(3) 0.84456(16)
O6 O -0.4039(3) 0.6384(3) 0.63611(15)
C1 C 0.0278(4) 0.7770(4) 0.7225(2)
O7 O 0.2824(4) 1.1038(4) 1.0305(2)
C2 C -0.2453(4) 0.9375(4) 0.6232(2)
H1 H 0.341(8) 1.064(8) 1.004(5)
H2 H 0.402(5) 0.897(5) 0.813(3)
H3 H -0.060(5) 0.693(4) 0.719(2)
H4 H -0.218(5) 0.893(5) 0.565(3)
H5 H -0.094(5) 0.977(5) 0.758(3)
H6 H -0.286(6) 1.049(5) 0.612(3)
H7 H 0.098(5) 0.762(5) 0.674(3)
H8 H 0.009(6) 1.008(5) 0.690(3)
H9 H -0.656(7) 0.944(6) 0.607(3)
H10 H 0.323(9) 1.128(8) 1.089(5)
Mn1C Mn -0.5000 0.5000 0.5000
Mn1C_2 Mn 0.5000 1.5000 1.5000
P1B P -0.18439(10) 1.22618(9) 1.15630(5)
P2B P 0.42710(10) 1.18356(9) 1.34223(5)
O1B O -0.2872(3) 1.3875(3) 1.14515(15)
O2B O 0.6127(3) 1.1217(3) 1.41135(17)
O3B O -0.0680(3) 1.1953(3) 1.08488(15)
O4B O 0.4149(3) 1.1430(3) 1.23666(15)
N1B N 0.0682(4) 1.0599(3) 1.29726(19)
O5B O -0.3191(3) 1.0783(3) 1.15544(16)
O6B O 0.4039(3) 1.3616(3) 1.36389(15)
O6C O 0.0961(3) 0.8616(3) 1.13611(15)
O6A O -0.0961(3) 1.1384(3) 0.86389(15)
C1B C -0.0278(4) 1.2230(4) 1.2775(2)
O7B O -0.2824(4) 0.8962(4) 0.9695(2)
C2B C 0.2453(4) 1.0625(4) 1.3768(2)
H1B H -0.341(8) 0.936(8) 0.996(5)
H2B H -0.402(5) 1.103(5) 1.187(3)
H3B H 0.060(5) 1.307(4) 1.281(2)
H4B H 0.218(5) 1.107(5) 1.435(3)
H5B H 0.094(5) 1.023(5) 1.242(3)
H6B H 0.286(6) 0.951(5) 1.388(3)
H7B H -0.098(5) 1.238(5) 1.326(3)
H8B H -0.009(6) 0.992(5) 1.310(3)
H9B H 0.656(7) 1.056(6) 1.393(3)
H10B H -0.323(9) 0.872(8) 0.911(5)
loop_
_geom_bond_atom_site_label_1
_geom_bond_atom_site_label_2
_geom_bond_site_symmetry_1
_geom_bond_site_symmetry_2
Mn1 O3 1_555 1_555
P1 O1 1_555 1_555
P2 O2 1_555 1_555
O2 H9 1_555 1_555
O3 P1 1_555 1_555
O4 P2 1_555 1_555
N1 C1 1_555 1_555
O5 P1 1_555 1_555
O6 P2 1_555 1_555
C1 P1 1_555 1_555
O7 Mn1 1_555 1_555
C2 P2 1_555 1_555
H1 O7 1_555 1_555
H2 O5 1_555 1_555
H3 C1 1_555 1_555
H4 C2 1_555 1_555
H5 N1 1_555 1_555
H6 C2 1_555 1_555
H7 C1 1_555 1_555
H8 N1 1_555 1_555
H10 O7 1_555 1_555
Mn1C O6 1_555 1_555
Mn1C_2 O6B 1_555 1_555
P1B O1B 1_555 1_555
P2B O2B 1_555 1_555
O2B H9B 1_555 1_555
O3B Mn1 1_555 1_555
O4B P2B 1_555 1_555
N1B C1B 1_555 1_555
O5B P1B 1_555 1_555
O6B P2B 1_555 1_555
O6C Mn1 1_555 1_555
O6A Mn1 1_555 1_555
C1B P1B 1_555 1_555
O7B Mn1 1_555 1_555
C2B P2B 1_555 1_555
H1B O7B 1_555 1_555
H2B O5B 1_555 1_555
H3B C1B 1_555 1_555
H4B C2B 1_555 1_555
H5B N1B 1_555 1_555
H6B C2B 1_555 1_555
H7B C1B 1_555 1_555
H8B N1B 1_555 1_555
H10B O7B 1_555 1_555
N1 C2 1_555 1_555
P1B O3B 1_555 1_555
N1B C2B 1_555 1_555

#END
