
#######################################################################
#
#                 Cambridge Crystallographic Data Centre
#                                CCDC 
#
#######################################################################
#
# If this CIF has been generated from an entry in the Cambridge 
# Structural Database, then it will include bibliographic, chemical, 
# crystal, experimental, refinement or atomic coordinate data resulting 
# from the CCDC's data processing and validation procedures.
#
#######################################################################

data_CASXAW
_symmetry_cell_setting           triclinic
_symmetry_space_group_name_H-M   'P -1'
_symmetry_Int_Tables_number      2
_space_group_name_Hall           '-P 1'
loop_
_symmetry_equiv_pos_site_id
_symmetry_equiv_pos_as_xyz
1 x,y,z
2 -x,-y,-z
_cell_length_a                   11.978(2)
_cell_length_b                   12.008(2)
_cell_length_c                   13.607(3)
_cell_angle_alpha                116.14(3)
_cell_angle_beta                 108.85(3)
_cell_angle_gamma                93.86(3)
_cell_volume                     1611.29
loop_
_atom_site_label
_atom_site_type_symbol
_atom_site_fract_x
_atom_site_fract_y
_atom_site_fract_z
I1 I 0.5000 0.5000 0.0000
Ag1 Ag 0.92084(6) 0.18971(6) -0.14288(5)
Ag2 Ag 1.0000 0.5000 0.0000
Mo1 Mo 0.61684(5) 0.33147(6) -0.19063(5)
Mo2 Mo 0.69704(5) 0.64891(6) -0.05204(5)
Mo3 Mo 0.41833(5) 0.18179(6) -0.14007(5)
O1 O 0.5784(4) 0.3659(5) -0.0253(4)
O2 O 0.4868(4) 0.5062(5) 0.1367(4)
O3 O 0.3527(4) 0.3726(5) -0.0893(4)
O4 O 0.4570(5) 0.2231(5) -0.2491(4)
O5 O 0.7397(4) 0.4878(5) -0.0789(4)
O6 O 0.5968(5) 0.7658(5) -0.0108(4)
O7 O 0.7041(5) 0.2264(6) -0.1820(5)
O8 O 0.5991(5) 0.3320(6) -0.3197(4)
O9 O 0.8400(5) 0.7443(6) 0.0398(5)
O10 O 0.6730(5) 0.6324(5) -0.1896(4)
O11 O 0.2747(5) 0.0883(6) -0.2356(5)
O12 O 0.5080(5) 0.0794(6) -0.1290(5)
O13 O 0.6309(6) 0.1647(7) -0.5831(5)
O14 O 0.7575(6) 0.2260(6) -0.6498(5)
O15 O 1.2104(5) 0.1906(8) 0.2762(6)
O16 O 1.0977(6) 0.0969(6) 0.3333(5)
O17 O 0.7180(5) 0.4830(6) -0.4324(5)
O18 O 0.8424(5) 0.5652(6) -0.4887(5)
N1 N 0.9279(6) 0.1945(7) -0.2989(6)
N2 N 0.9084(6) 0.1397(6) -0.0095(5)
N3 N 1.0160(6) 0.5253(7) -0.1425(5)
C1 C 0.8331(7) 0.1907(8) -0.3874(6)
H1 H 0.7571 0.1851 -0.3832
C2 C 0.8426(7) 0.1948(8) -0.4844(6)
C3 C 0.9557(9) 0.2061(11) -0.4887(8)
H2 H 0.9654 0.2124 -0.5514
C4 C 1.0536(9) 0.2081(14) -0.4016(9)
H3 H 1.1299 0.2126 -0.4050
C5 C 1.0357(8) 0.2031(11) -0.3067(8)
H4 H 1.1025 0.2060 -0.2462
C6 C 0.7330(8) 0.1933(8) -0.5774(7)
C7 C 1.0053(7) 0.1541(7) 0.0813(6)
H5 H 1.0814 0.1915 0.0909
C8 C 0.9992(7) 0.1159(7) 0.1635(6)
C9 C 0.8852(7) 0.0588(8) 0.1471(7)
H6 H 0.8769 0.0305 0.1986
C10 C 0.7860(7) 0.0447(9) 0.0544(7)
H7 H 0.7091 0.0073 0.0430
C11 C 0.7977(7) 0.0852(8) -0.0229(7)
H8 H 0.7284 0.0751 -0.0853
C12 C 1.1118(8) 0.1404(8) 0.2629(6)
C13 C 0.9198(7) 0.5160(7) -0.2330(6)
H9 H 0.8420 0.4910 -0.2381
C14 C 0.9316(6) 0.5423(7) -0.3197(6)
C15 C 1.0473(7) 0.5804(8) -0.3112(7)
H10 H 1.0584 0.5992 -0.3673
C16 C 1.1457(7) 0.5899(9) -0.2185(8)
H11 H 1.2242 0.6160 -0.2112
C17 C 1.1281(8) 0.5608(9) -0.1360(7)
H12 H 1.1955 0.5660 -0.0747
C18 C 0.8195(7) 0.5276(7) -0.4178(6)
Na1 Na 0.5408(3) 0.4820(3) -0.3880(2)
O20 O 0.4579(5) 0.3292(6) -0.5930(5)
O21 O 0.3538(5) 0.4170(7) -0.3676(5)
Ag1A Ag 1.07916(6) 0.81029(6) 0.14288(5)
Ag1A_2 Ag 0.07916(6) 0.81029(6) 0.14288(5)
Ag1_2 Ag -0.07916(6) 0.18971(6) -0.14288(5)
Mo1A Mo 0.38316(5) 0.66853(6) 0.19063(5)
Mo2A Mo 0.30296(5) 0.35109(6) 0.05204(5)
Mo3A Mo 0.58167(5) 0.81821(6) 0.14007(5)
O1A O 0.4216(4) 0.6341(5) 0.0253(4)
O2A O 0.5132(4) 0.4938(5) -0.1367(4)
O3A O 0.6473(4) 0.6274(5) 0.0893(4)
O4A O 0.5430(5) 0.7769(5) 0.2491(4)
O5A O 0.2603(4) 0.5122(5) 0.0789(4)
O6A O 0.4032(5) 0.2342(5) 0.0108(4)
O7A O 1.2959(5) 0.7736(6) 0.1820(5)
O7A_2 O 0.2959(5) 0.7736(6) 0.1820(5)
O8A O 0.4009(5) 0.6680(6) 0.3197(4)
O9A O 1.1600(5) 0.2557(6) -0.0398(5)
O9A_2 O 0.1600(5) 0.2557(6) -0.0398(5)
O10A O 0.3270(5) 0.3676(5) 0.1896(4)
O11A O 0.7253(5) 0.9117(6) 0.2356(5)
O12A O 0.4920(5) 0.9206(6) 0.1290(5)
O13A O 1.3691(6) 0.8353(7) 0.5831(5)
O14A O 1.2425(6) 0.7740(6) 0.6498(5)
O15A O 0.7896(5) 0.8094(8) -0.2762(6)
O16A O 0.9023(6) 0.9031(6) -0.3333(5)
O17A O 1.2820(5) 0.5170(6) 0.4324(5)
O17A_2 O 0.2820(5) 0.5170(6) 0.4324(5)
O18A O 1.1576(5) 0.4348(6) 0.4887(5)
N1A N 1.0721(6) 0.8055(7) 0.2989(6)
N2A N 1.0916(6) 0.8603(6) 0.0095(5)
N3A N 0.9840(6) 0.4747(7) 0.1425(5)
C1A C 1.1669(7) 0.8093(8) 0.3874(6)
H1A H 1.2429 0.8149 0.3832
C2A C 1.1574(7) 0.8052(8) 0.4844(6)
C3A C 1.0443(9) 0.7939(11) 0.4887(8)
H2A H 1.0346 0.7876 0.5514
C4A C 0.9464(9) 0.7919(14) 0.4016(9)
H3A H 0.8701 0.7874 0.4050
C5A C 0.9643(8) 0.7969(11) 0.3067(8)
H4A H 0.8975 0.7940 0.2462
C6A C 1.2670(8) 0.8067(8) 0.5774(7)
C7A C 0.9947(7) 0.8459(7) -0.0813(6)
H5A H 0.9186 0.8085 -0.0909
C8A C 1.0008(7) 0.8841(7) -0.1635(6)
C9A C 1.1148(7) 0.9412(8) -0.1471(7)
H6A H 1.1231 0.9695 -0.1986
C10A C 1.2140(7) 0.9553(9) -0.0544(7)
H7A H 1.2909 0.9927 -0.0430
C11A C 1.2023(7) 0.9148(8) 0.0229(7)
H8A H 1.2716 0.9249 0.0853
C12A C 0.8882(8) 0.8596(8) -0.2629(6)
C13A C 1.0802(7) 0.4840(7) 0.2330(6)
H9A H 1.1580 0.5090 0.2381
C14A C 1.0684(6) 0.4577(7) 0.3197(6)
C15A C 0.9527(7) 0.4196(8) 0.3112(7)
H10A H 0.9416 0.4008 0.3673
C16A C 0.8543(7) 0.4101(9) 0.2185(8)
H11A H 0.7758 0.3840 0.2112
C17A C 0.8719(8) 0.4392(9) 0.1360(7)
H12A H 0.8045 0.4340 0.0747
C18A C 1.1805(7) 0.4724(7) 0.4178(6)
Na1A Na 1.4592(3) 0.5180(3) 0.3880(2)
Na1A_2 Na 0.4592(3) 0.5180(3) -0.6120(2)
Na1A_3 Na 0.4592(3) 0.5180(3) 0.3880(2)
Na1_2 Na 0.5408(3) 0.4820(3) 0.6120(2)
O20A O 0.5421(5) 0.6708(6) -0.4070(5)
O20_2 O 0.4579(5) 0.3292(6) 0.4070(5)
O20A_2 O 0.5421(5) 0.6708(6) 0.5930(5)
O21A O 0.6462(5) 0.5830(7) 0.3676(5)
O19 O 1.4205(11) 0.0242(9) 1.3815(12)
O22 O 1.3061(6) 0.1473(7) 1.5137(5)
O23 O 0.5513(7) 0.1776(8) 0.1788(6)
loop_
_geom_bond_atom_site_label_1
_geom_bond_atom_site_label_2
_geom_bond_site_symmetry_1
_geom_bond_site_symmetry_2
I1 O1 1_555 1_555
Ag1 O7 1_555 1_555
Ag2 N3 1_555 1_555
Mo1 O1 1_555 1_555
Mo2 O5 1_555 1_555
Mo3 O1 1_555 1_555
O2 I1 1_555 1_555
O3 I1 1_555 1_555
O4 Mo1 1_555 1_555
O5 Mo1 1_555 1_555
O6 Mo2 1_555 1_555
O7 Mo1 1_555 1_555
O8 Mo1 1_555 1_555
O9 Mo2 1_555 1_555
O10 Mo2 1_555 1_555
O11 Mo3 1_555 1_555
O12 Mo3 1_555 1_555
O13 C6 1_555 1_555
O14 C6 1_555 1_555
O15 C12 1_555 1_555
O16 C12 1_555 1_555
O17 C18 1_555 1_555
O18 C18 1_555 1_555
N1 Ag1 1_555 1_555
N2 Ag1 1_555 1_555
N3 C13 1_555 1_555
C1 N1 1_555 1_555
H1 C1 1_555 1_555
C2 C1 1_555 1_555
C3 C2 1_555 1_555
H2 C3 1_555 1_555
C4 C3 1_555 1_555
H3 C4 1_555 1_555
C5 N1 1_555 1_555
H4 C5 1_555 1_555
C6 C2 1_555 1_555
C7 N2 1_555 1_555
H5 C7 1_555 1_555
C8 C7 1_555 1_555
C9 C8 1_555 1_555
H6 C9 1_555 1_555
C10 C9 1_555 1_555
H7 C10 1_555 1_555
C11 N2 1_555 1_555
H8 C11 1_555 1_555
C12 C8 1_555 1_555
C13 H9 1_555 1_555
C14 C13 1_555 1_555
C15 C14 1_555 1_555
H10 C15 1_555 1_555
C16 C15 1_555 1_555
H11 C16 1_555 1_555
C17 N3 1_555 1_555
H12 C17 1_555 1_555
C18 C14 1_555 1_555
Na1 O8 1_555 1_555
O20 Na1 1_555 1_555
O21 Na1 1_555 1_555
Ag1A O9 1_555 1_555
Ag1A_2 O7A_2 1_555 1_555
Ag1_2 O9A_2 1_555 1_555
Mo1A O2 1_555 1_555
Mo2A O2 1_555 1_555
Mo3A O6 1_555 1_555
O1A I1 1_555 1_555
O2A I1 1_555 1_555
O3A I1 1_555 1_555
O4A Mo1A 1_555 1_555
O5A Mo1A 1_555 1_555
O6A Mo3 1_555 1_555
O7A Ag1A 1_555 1_555
O7A_2 Mo1A 1_555 1_555
O8A Mo1A 1_555 1_555
O9A Ag1 1_555 1_555
O9A_2 Mo2A 1_555 1_555
O10A Mo2A 1_555 1_555
O11A Mo3A 1_555 1_555
O12A Mo3A 1_555 1_555
O13A C6A 1_555 1_555
O14A C6A 1_555 1_555
O15A C12A 1_555 1_555
O16A C12A 1_555 1_555
O17A C18A 1_555 1_555
O17A_2 Na1A_3 1_555 1_555
O18A C18A 1_555 1_555
N1A Ag1A 1_555 1_555
N2A Ag1A 1_555 1_555
N3A Ag2 1_555 1_555
C1A N1A 1_555 1_555
H1A C1A 1_555 1_555
C2A C1A 1_555 1_555
C3A C2A 1_555 1_555
H2A C3A 1_555 1_555
C4A C3A 1_555 1_555
H3A C4A 1_555 1_555
C5A N1A 1_555 1_555
H4A C5A 1_555 1_555
C6A C2A 1_555 1_555
C7A N2A 1_555 1_555
H5A C7A 1_555 1_555
C8A C7A 1_555 1_555
C9A C8A 1_555 1_555
H6A C9A 1_555 1_555
C10A C9A 1_555 1_555
H7A C10A 1_555 1_555
C11A N2A 1_555 1_555
H8A C11A 1_555 1_555
C12A C8A 1_555 1_555
C13A N3A 1_555 1_555
H9A C13A 1_555 1_555
C14A C13A 1_555 1_555
C15A C14A 1_555 1_555
H10A C15A 1_555 1_555
C16A C15A 1_555 1_555
H11A C16A 1_555 1_555
C17A N3A 1_555 1_555
H12A C17A 1_555 1_555
C18A C14A 1_555 1_555
Na1A O17A 1_555 1_555
Na1A_2 O20 1_555 1_555
Na1A_3 O8A 1_555 1_555
Na1_2 O20_2 1_555 1_555
O20A Na1 1_555 1_555
O20_2 Na1A_3 1_555 1_555
O20A_2 Na1A_3 1_555 1_555
O21A Na1A_3 1_555 1_555
Mo1 O2A 1_555 1_555
Mo2 O2A 1_555 1_555
Mo2 O3A 1_555 1_555
Mo3 O3 1_555 1_555
Mo3 O4 1_555 1_555
O3 Mo2A 1_555 1_555
O10 Na1 1_555 1_555
O17 Na1 1_555 1_555
C4 C5 1_555 1_555
C10 C11 1_555 1_555
C16 C17 1_555 1_555
Mo1A O1A 1_555 1_555
Mo2A O5A 1_555 1_555
Mo2A O6A 1_555 1_555
Mo3A O1A 1_555 1_555
Mo3A O3A 1_555 1_555
Mo3A O4A 1_555 1_555
O10A Na1A_3 1_555 1_555
C4A C5A 1_555 1_555
C10A C11A 1_555 1_555
C16A C17A 1_555 1_555
Na1A_2 O20A 1_555 1_555
Na1_2 O20A_2 1_555 1_555

#END
