
#######################################################################
#
#                 Cambridge Crystallographic Data Centre
#                                CCDC 
#
#######################################################################
#
# If this CIF has been generated from an entry in the Cambridge 
# Structural Database, then it will include bibliographic, chemical, 
# crystal, experimental, refinement or atomic coordinate data resulting 
# from the CCDC's data processing and validation procedures.
#
#######################################################################

data_CATART03
_symmetry_cell_setting           orthorhombic
_symmetry_space_group_name_H-M   'P 21 21 21'
_symmetry_Int_Tables_number      19
_space_group_name_Hall           'P 2ac 2ab'
loop_
_symmetry_equiv_pos_site_id
_symmetry_equiv_pos_as_xyz
1 x,y,z
2 1/2+x,1/2-y,-z
3 -x,1/2+y,1/2-z
4 1/2-x,-y,1/2+z
_cell_length_a                   9.62282(5)
_cell_length_b                   10.56490(5)
_cell_length_c                   9.21970(5)
_cell_angle_alpha                90
_cell_angle_beta                 90
_cell_angle_gamma                90
_cell_volume                     937.313
loop_
_atom_site_label
_atom_site_type_symbol
_atom_site_fract_x
_atom_site_fract_y
_atom_site_fract_z
Ca1 Ca 0.31888(12) 0.67711(11) 0.18607(12)
C1 C 0.6431(5) 0.7041(5) 0.1100(5)
C2 C 0.6610(4) 0.7244(4) 0.2737(4)
C3 C 0.7264(4) 0.8578(4) 0.2978(5)
C4 C 0.7393(6) 0.8938(4) 0.4586(5)
O1 O 0.52995(31) 0.67443(33) 0.05799(32)
O2 O 0.7542(4) 0.71629(26) 0.03846(30)
O3 O 0.52583(30) 0.71848(25) 0.33948(30)
O4 O 0.64527(27) 0.95202(28) 0.22697(29)
O5 O 0.76481(32) 0.81064(29) 0.54827(29)
O6 O 0.73265(35) 1.01333(30) 0.48459(29)
O7 O 0.33264(29) 0.90874(25) 0.22878(29)
O8 O 0.07098(30) 0.67537(30) 0.19507(33)
H1 H 0.73745 0.65724 0.31088
H2 H 0.82622 0.85715 0.24906
H3 H 0.54536 0.66017 0.42869
H4 H 0.68697 0.96557 0.12369
H5 H 0.3173 0.94108 0.12941
H6 H 0.44378 0.92899 0.23431
H7 H 0.01081 0.64136 0.28389
H8 H 0.01866 0.72218 0.13378
Ca1A Ca 0.81888(12) 0.82289(11) -0.18607(12)
Ca1B Ca 0.68112(12) 1.17711(11) 0.31393(12)
Ca1A_2 Ca 0.81888(12) 0.82289(11) 0.81393(12)
O2A O 0.2542(4) 0.78371(26) -0.03846(30)
O4B O 0.35473(27) 0.45202(28) 0.27303(29)
O5A O 0.26481(32) 0.68936(29) 0.45173(29)
O6B O 0.26735(35) 0.51333(30) 0.01541(29)
H4B H 0.31303 0.46557 0.37631
O9 O 0.58557(34) 0.42592(27) 0.92961(30)
H9 H 0.5567 0.49918 0.97356
H10 H 0.61222 0.35707 0.99741
O10 O 0.42657(33) 0.06140(28) 0.92682(33)
H11 H 0.47062 -0.01494 0.89237
H12 H 0.33613 0.06947 0.86861
loop_
_geom_bond_atom_site_label_1
_geom_bond_atom_site_label_2
_geom_bond_site_symmetry_1
_geom_bond_site_symmetry_2
Ca1 O1 1_555 1_555
C1 C2 1_555 1_555
C2 C3 1_555 1_555
C3 C4 1_555 1_555
C4 O5 1_555 1_555
O1 C1 1_555 1_555
O2 C1 1_555 1_555
O3 Ca1 1_555 1_555
O4 C3 1_555 1_555
O5 Ca1A_2 1_555 1_555
O6 C4 1_555 1_555
O7 Ca1 1_555 1_555
O8 Ca1 1_555 1_555
H1 C2 1_555 1_555
H2 C3 1_555 1_555
H3 O3 1_555 1_555
H4 O4 1_555 1_555
H5 O7 1_555 1_555
H6 O7 1_555 1_555
H7 O8 1_555 1_555
H8 O8 1_555 1_555
O9 H9 1_555 1_555
H10 O9 1_555 1_555
O10 H11 1_555 1_555
H12 O10 1_555 1_555
Ca1A O2 1_555 1_555
Ca1B O4 1_555 1_555
O2A Ca1 1_555 1_555
O4B Ca1 1_555 1_555
O5A Ca1 1_555 1_555
O6B Ca1 1_555 1_555
H4B O4B 1_555 1_555
C2 O3 1_555 1_555
O6 Ca1B 1_555 1_555

#END
