
#######################################################################
#
#                 Cambridge Crystallographic Data Centre
#                                CCDC 
#
#######################################################################
#
# If this CIF has been generated from an entry in the Cambridge 
# Structural Database, then it will include bibliographic, chemical, 
# crystal, experimental, refinement or atomic coordinate data resulting 
# from the CCDC's data processing and validation procedures.
#
#######################################################################

data_CATDOS
_symmetry_cell_setting           monoclinic
_symmetry_space_group_name_H-M   'C 2/c'
_symmetry_Int_Tables_number      15
_space_group_name_Hall           '-C 2yn'
loop_
_symmetry_equiv_pos_site_id
_symmetry_equiv_pos_as_xyz
1 x,y,z
2 -x,y,1/2-z
3 1/2+x,1/2+y,z
4 1/2-x,1/2+y,1/2-z
5 -x,-y,-z
6 x,-y,1/2+z
7 1/2-x,1/2-y,-z
8 1/2+x,1/2-y,1/2+z
_cell_length_a                   20.586(4)
_cell_length_b                   9.6360(19)
_cell_length_c                   21.571(4)
_cell_angle_alpha                90
_cell_angle_beta                 107.00(3)
_cell_angle_gamma                90
_cell_volume                     4092
loop_
_atom_site_label
_atom_site_type_symbol
_atom_site_fract_x
_atom_site_fract_y
_atom_site_fract_z
Ag1 Ag 0.02125(3) 0.38175(6) 0.04665(3)
N1 N -0.0273(3) 0.2179(6) -0.0201(3)
N2 N -0.3926(3) 0.0066(6) -0.3890(3)
C5 C -0.0714(5) 0.1316(8) -0.0047(4)
H7 H -0.0819 0.1465 0.0349
C6 C -0.1021(4) 0.0219(8) -0.0435(4)
H8 H -0.1326 -0.0370 -0.0304
C7 C -0.0882(4) -0.0021(7) -0.1017(3)
C8 C -0.0422(4) 0.0863(8) -0.1168(4)
H9 H -0.0306 0.0741 -0.1560
C9 C -0.0131(4) 0.1919(8) -0.0752(4)
H10 H 0.0191 0.2496 -0.0864
C10 C -0.1239(5) -0.1175(7) -0.1472(4)
H11 H -0.1400 -0.1892 -0.1222
H12 H -0.0915 -0.1617 -0.1671
C11 C -0.1846(4) -0.0587(7) -0.2006(3)
H13 H -0.2171 -0.0152 -0.1805
H14 H -0.1684 0.0138 -0.2250
C12 C -0.2207(4) -0.1723(8) -0.2471(4)
H15 H -0.1888 -0.2139 -0.2683
H16 H -0.2358 -0.2462 -0.2226
C13 C -0.2811(4) -0.1145(6) -0.2978(3)
C14 C -0.3473(4) -0.1241(7) -0.2919(4)
H17 H -0.3554 -0.1725 -0.2565
C15 C -0.4002(4) -0.0620(8) -0.3382(3)
H18 H -0.4445 -0.0688 -0.3334
C16 C -0.3298(4) 0.0171(8) -0.3949(3)
H19 H -0.3237 0.0652 -0.4313
C17 C -0.2735(4) -0.0388(8) -0.3505(3)
H20 H -0.2297 -0.0259 -0.3558
Ag1G Ag 0.52125(3) 0.11825(6) 0.54665(3)
Ag1G_2 Ag -0.47875(3) 0.11825(6) -0.45335(3)
N1G N 0.4727(3) 0.2821(6) 0.4799(3)
N2G N 0.1074(3) 0.4934(6) 0.1110(3)
N2_2 N 0.6074(3) 0.0066(6) 0.6110(3)
C5G C 0.4286(5) 0.3684(8) 0.4953(4)
H7G H 0.4181 0.3535 0.5349
C6G C 0.3979(4) 0.4781(8) 0.4565(4)
H8G H 0.3674 0.5370 0.4696
C7G C 0.4118(4) 0.5021(7) 0.3983(3)
C8G C 0.4578(4) 0.4137(8) 0.3832(4)
H9G H 0.4694 0.4259 0.3440
C9G C 0.4869(4) 0.3081(8) 0.4248(4)
H10G H 0.5191 0.2504 0.4136
C10G C 0.3761(5) 0.6175(7) 0.3528(4)
H11G H 0.3600 0.6892 0.3778
H12G H 0.4085 0.6617 0.3329
C11G C 0.3154(4) 0.5587(7) 0.2994(3)
H13G H 0.2829 0.5152 0.3195
H14G H 0.3316 0.4862 0.2750
C12G C 0.2793(4) 0.6723(8) 0.2529(4)
H15G H 0.3112 0.7139 0.2317
H16G H 0.2642 0.7462 0.2774
C13G C 0.2189(4) 0.6145(6) 0.2022(3)
C14G C 0.1527(4) 0.6241(7) 0.2081(4)
H17G H 0.1446 0.6725 0.2435
C15G C 0.0998(4) 0.5620(8) 0.1618(3)
H18G H 0.0555 0.5688 0.1666
C16G C 0.1702(4) 0.4829(8) 0.1051(3)
H19G H 0.1763 0.4348 0.0687
C17G C 0.2265(4) 0.5388(8) 0.1495(3)
H20G H 0.2703 0.5259 0.1442
C1 C -0.1002(4) 0.4466(8) 0.0987(3)
C2 C -0.1650(4) 0.4434(8) 0.1176(3)
H1 H -0.1538 0.4319 0.1652
H2 H -0.1888 0.5333 0.1061
C3 C -0.2108(5) 0.3301(14) 0.0854(5)
H3 H -0.1909 0.2427 0.1069
H4 H -0.2542 0.3439 0.0957
C4 C -0.2280(5) 0.3059(10) 0.0160(4)
H5 H -0.1846 0.2939 0.0056
H6 H -0.2486 0.3929 -0.0054
O1 O -0.0565(3) 0.3560(6) 0.1202(3)
O3 O -0.0923(3) 0.5414(6) 0.0603(2)
C1F C -0.3998(4) 0.0534(8) -0.0987(3)
C2F C -0.3350(4) 0.0566(8) -0.1176(3)
H1F H -0.3462 0.0681 -0.1652
H2F H -0.3112 -0.0333 -0.1061
C3F C -0.2892(5) 0.1699(14) -0.0854(5)
H3F H -0.3091 0.2573 -0.1069
H4F H -0.2458 0.1561 -0.0957
C4F C -0.2720(5) 0.1941(10) -0.0160(4)
H5F H -0.3154 0.2061 -0.0056
H6F H -0.2514 0.1071 0.0054
O1F O -0.4435(3) 0.1440(6) -0.1202(3)
O3F O -0.4077(3) -0.0414(6) -0.0603(2)
O2 O -0.5000 -0.2368(8) -0.2500
O4 O -0.5000 0.0468(9) -0.2500
O5 O -0.1140(4) 0.1316(6) -0.3303(4)
O6 O -0.0621(4) 0.1287(5) 0.1990(4)
O7 O -0.1765(3) 0.7684(6) 0.0352(3)
loop_
_geom_bond_atom_site_label_1
_geom_bond_atom_site_label_2
_geom_bond_site_symmetry_1
_geom_bond_site_symmetry_2
Ag1 N1 1_555 1_555
N1 C5 1_555 1_555
N2 C15 1_555 1_555
C1 C2 1_555 1_555
C2 H1 1_555 1_555
H2 C2 1_555 1_555
C3 C2 1_555 1_555
H3 C3 1_555 1_555
H4 C3 1_555 1_555
C4 C3 1_555 1_555
H5 C4 1_555 1_555
H6 C4 1_555 1_555
C5 H7 1_555 1_555
C6 C5 1_555 1_555
H8 C6 1_555 1_555
C7 C6 1_555 1_555
C8 C7 1_555 1_555
H9 C8 1_555 1_555
C9 N1 1_555 1_555
H10 C9 1_555 1_555
C10 C7 1_555 1_555
H11 C10 1_555 1_555
H12 C10 1_555 1_555
C11 C10 1_555 1_555
H13 C11 1_555 1_555
H14 C11 1_555 1_555
C12 C11 1_555 1_555
H15 C12 1_555 1_555
H16 C12 1_555 1_555
C13 C12 1_555 1_555
C14 C13 1_555 1_555
H17 C14 1_555 1_555
C15 C14 1_555 1_555
H18 C15 1_555 1_555
C16 N2 1_555 1_555
H19 C16 1_555 1_555
C17 C13 1_555 1_555
H20 C17 1_555 1_555
O1 C1 1_555 1_555
O3 C1 1_555 1_555
Ag1G N1G 1_555 1_555
Ag1G_2 N2 1_555 1_555
N1G C5G 1_555 1_555
N2G Ag1 1_555 1_555
N2_2 Ag1G 1_555 1_555
C1F C2F 1_555 1_555
C2F H1F 1_555 1_555
H2F C2F 1_555 1_555
C3F C2F 1_555 1_555
H3F C3F 1_555 1_555
H4F C3F 1_555 1_555
C4F C4 1_555 1_555
H5F C4F 1_555 1_555
H6F C4F 1_555 1_555
C5G H7G 1_555 1_555
C6G C5G 1_555 1_555
H8G C6G 1_555 1_555
C7G C6G 1_555 1_555
C8G C7G 1_555 1_555
H9G C8G 1_555 1_555
C9G N1G 1_555 1_555
H10G C9G 1_555 1_555
C10G C7G 1_555 1_555
H11G C10G 1_555 1_555
H12G C10G 1_555 1_555
C11G C10G 1_555 1_555
H13G C11G 1_555 1_555
H14G C11G 1_555 1_555
C12G C11G 1_555 1_555
H15G C12G 1_555 1_555
H16G C12G 1_555 1_555
C13G C12G 1_555 1_555
C14G C13G 1_555 1_555
H17G C14G 1_555 1_555
C15G N2G 1_555 1_555
H18G C15G 1_555 1_555
C16G N2G 1_555 1_555
H19G C16G 1_555 1_555
C17G C13G 1_555 1_555
H20G C17G 1_555 1_555
O1F C1F 1_555 1_555
O3F C1F 1_555 1_555
C8 C9 1_555 1_555
C16 C17 1_555 1_555
C3F C4F 1_555 1_555
C8G C9G 1_555 1_555
C14G C15G 1_555 1_555
C16G C17G 1_555 1_555

#END
