
#######################################################################
#
#                 Cambridge Crystallographic Data Centre
#                                CCDC 
#
#######################################################################
#
# If this CIF has been generated from an entry in the Cambridge 
# Structural Database, then it will include bibliographic, chemical, 
# crystal, experimental, refinement or atomic coordinate data resulting 
# from the CCDC's data processing and validation procedures.
#
#######################################################################

data_CATDEH
_symmetry_cell_setting           rhombohedral
_symmetry_space_group_name_H-M   'R -3'
_symmetry_Int_Tables_number      148
_space_group_name_Hall           '-R 3'
loop_
_symmetry_equiv_pos_site_id
_symmetry_equiv_pos_as_xyz
1 x,y,z
2 -y,x-y,z
3 -x+y,-x,z
4 2/3+x,1/3+y,1/3+z
5 2/3-y,1/3+x-y,1/3+z
6 2/3-x+y,1/3-x,1/3+z
7 1/3+x,2/3+y,2/3+z
8 1/3-y,2/3+x-y,2/3+z
9 1/3-x+y,2/3-x,2/3+z
10 -x,-y,-z
11 y,-x+y,-z
12 x-y,x,-z
13 1/3-x,2/3-y,2/3-z
14 1/3+y,2/3-x+y,2/3-z
15 1/3+x-y,2/3+x,2/3-z
16 2/3-x,1/3-y,1/3-z
17 2/3+y,1/3-x+y,1/3-z
18 2/3+x-y,1/3+x,1/3-z
_cell_length_a                   32.9114(13)
_cell_length_b                   32.9114(13)
_cell_length_c                   9.4246(5)
_cell_angle_alpha                90
_cell_angle_beta                 90
_cell_angle_gamma                120.00
_cell_volume                     8840.69
loop_
_atom_site_label
_atom_site_type_symbol
_atom_site_fract_x
_atom_site_fract_y
_atom_site_fract_z
Zn1 Zn 0.5000 0.0000 0.5000
N1 N 0.49871(7) 0.05848(8) 0.5720(2)
N2 N 0.53396(8) 0.00058(8) 0.6858(2)
C1 C 0.47464(9) 0.07751(9) 0.5082(3)
C2 C 0.47691(11) 0.11454(10) 0.5973(3)
H1 H 0.4634 0.1336 0.5775
C3 C 0.50185(11) 0.11682(10) 0.7138(3)
H2 H 0.5093 0.1378 0.7914
C4 C 0.51520(9) 0.08118(9) 0.6982(3)
C5 C 0.54045(9) 0.07107(9) 0.7999(3)
C6 C 0.54993(9) 0.03412(10) 0.7908(3)
C7 C 0.58066(11) 0.02711(11) 0.8854(3)
H3 H 0.5959 0.0451 0.9675
C8 C 0.58364(11) -0.00982(11) 0.8351(3)
H4 H 0.6014 -0.0226 0.8748
C9 C 0.55451(10) -0.02622(10) 0.7091(3)
C10 C 0.45000(9) 0.06261(10) 0.3797(3)
C11 C 0.55957(10) 0.10374(10) 0.9247(3)
C12 C 0.54452(11) 0.08779(12) 1.0615(3)
H5 H 0.5225 0.0556 1.0776
C13 C 0.56168(14) 0.11891(14) 1.1757(4)
H6 H 0.5513 0.1080 1.2694
C14 C 0.59380(16) 0.16559(14) 1.1523(4)
H7 H 0.6052 0.1868 1.2300
C15 C 0.60938(16) 0.18164(14) 1.0174(5)
H8 H 0.6317 0.2138 1.0022
C16 C 0.59253(12) 0.15086(12) 0.9033(4)
H9 H 0.6035 0.1620 0.8102
C17 C 0.42458(10) 0.08756(10) 0.3354(3)
C18 C 0.38426(11) 0.07979(11) 0.4050(3)
H10 H 0.3718 0.0577 0.4804
C19 C 0.41650(10) 0.14279(11) 0.1913(3)
H11 H 0.4281 0.1651 0.1163
N3 N 0.37792(8) 0.13546(9) 0.2583(3)
C20 C 0.36228(10) 0.10447(11) 0.3637(3)
H12 H 0.3348 0.0990 0.4130
C21 C 0.44082(11) 0.11962(11) 0.2252(3)
H13 H 0.4681 0.1257 0.1735
Zn1M Zn 0.3333 0.1667 0.1667
Zn1D Zn 0.6667 -0.1667 0.8333
N1I N 0.50129(7) -0.05848(8) 0.4280(2)
N2I N 0.46604(8) -0.00058(8) 0.3142(2)
C1I C 0.52536(9) -0.07751(9) 0.4918(3)
C2I C 0.52309(11) -0.11454(10) 0.4027(3)
H1I H 0.5366 -0.1336 0.4225
C3I C 0.49815(11) -0.11682(10) 0.2862(3)
H2I H 0.4907 -0.1378 0.2086
C4I C 0.48480(9) -0.08118(9) 0.3018(3)
C5I C 0.45955(9) -0.07107(9) 0.2001(3)
C6I C 0.45007(9) -0.03412(10) 0.2092(3)
C7I C 0.41934(11) -0.02711(11) 0.1146(3)
H3I H 0.4041 -0.0451 0.0325
C8I C 0.41636(11) 0.00982(11) 0.1649(3)
H4I H 0.3986 0.0226 0.1252
C9I C 0.44549(10) 0.02622(10) 0.2909(3)
C10I C 0.55000(9) -0.06261(10) 0.6203(3)
C11I C 0.44043(10) -0.10374(10) 0.0753(3)
C12I C 0.45548(11) -0.08779(12) -0.0615(3)
H5I H 0.4775 -0.0556 -0.0776
C13I C 0.43832(14) -0.11891(14) -0.1757(4)
H6I H 0.4487 -0.1080 -0.2694
C14I C 0.40620(16) -0.16559(14) -0.1523(4)
H7I H 0.3948 -0.1868 -0.2300
C15I C 0.39062(16) -0.18164(14) -0.0174(5)
H8I H 0.3683 -0.2138 -0.0022
C16I C 0.40747(12) -0.15086(12) 0.0967(4)
H9I H 0.3965 -0.1620 0.1898
C17I C 0.57542(10) -0.08756(10) 0.6646(3)
C18I C 0.61574(11) -0.07979(11) 0.5950(3)
H10I H 0.6282 -0.0577 0.5196
C19I C 0.58350(10) -0.14279(11) 0.8087(3)
H11I H 0.5719 -0.1651 0.8837
N3I N 0.62208(8) -0.13546(9) 0.7417(3)
N3E N 0.42421(12) -0.04459(8) 0.5916(3)
N3N N 0.57579(12) 0.04459(8) 0.4084(3)
C20I C 0.63772(10) -0.10447(11) 0.6363(3)
H12I H 0.6652 -0.0990 0.5870
C21I C 0.55918(11) -0.11962(11) 0.7748(3)
H13I H 0.5319 -0.1257 0.8265
O1 O 0.6340(7) 0.2549(5) 0.4472(16)
C22 C 0.6224(11) 0.2120(7) 0.533(2)
loop_
_geom_bond_atom_site_label_1
_geom_bond_atom_site_label_2
_geom_bond_site_symmetry_1
_geom_bond_site_symmetry_2
Zn1 N1 1_555 1_555
N1 C1 1_555 1_555
N2 Zn1 1_555 1_555
C1 C2 1_555 1_555
C2 H1 1_555 1_555
C3 C2 1_555 1_555
H2 C3 1_555 1_555
C4 N1 1_555 1_555
C5 C4 1_555 1_555
C6 N2 1_555 1_555
C7 C6 1_555 1_555
H3 C7 1_555 1_555
C8 C7 1_555 1_555
H4 C8 1_555 1_555
C9 N2 1_555 1_555
C10 C1 1_555 1_555
C11 C5 1_555 1_555
C12 C11 1_555 1_555
H5 C12 1_555 1_555
C13 C12 1_555 1_555
H6 C13 1_555 1_555
C14 C13 1_555 1_555
H7 C14 1_555 1_555
C15 C14 1_555 1_555
H8 C15 1_555 1_555
C16 C11 1_555 1_555
H9 C16 1_555 1_555
C17 C10 1_555 1_555
C18 C17 1_555 1_555
H10 C18 1_555 1_555
C19 H11 1_555 1_555
N3 C19 1_555 1_555
C20 C18 1_555 1_555
H12 C20 1_555 1_555
C21 C17 1_555 1_555
H13 C21 1_555 1_555
O1 C22 1_555 1_555
Zn1M N3 1_555 1_555
Zn1D N3I 1_555 1_555
N1I Zn1 1_555 1_555
N2I Zn1 1_555 1_555
C1I N1I 1_555 1_555
C2I C1I 1_555 1_555
H1I C2I 1_555 1_555
C3I C2I 1_555 1_555
H2I C3I 1_555 1_555
C4I N1I 1_555 1_555
C5I C4I 1_555 1_555
C6I N2I 1_555 1_555
C7I C6I 1_555 1_555
H3I C7I 1_555 1_555
C8I C7I 1_555 1_555
H4I C8I 1_555 1_555
C9I C10 1_555 1_555
C10I C9 1_555 1_555
C11I C5I 1_555 1_555
C12I C11I 1_555 1_555
H5I C12I 1_555 1_555
C13I C12I 1_555 1_555
H6I C13I 1_555 1_555
C14I C13I 1_555 1_555
H7I C14I 1_555 1_555
C15I C14I 1_555 1_555
H8I C15I 1_555 1_555
C16I C11I 1_555 1_555
H9I C16I 1_555 1_555
C17I C10I 1_555 1_555
C18I C17I 1_555 1_555
H10I C18I 1_555 1_555
C19I H11I 1_555 1_555
N3I C19I 1_555 1_555
N3E Zn1 1_555 1_555
N3N Zn1 1_555 1_555
C20I C18I 1_555 1_555
H12I C20I 1_555 1_555
C21I C17I 1_555 1_555
H13I C21I 1_555 1_555
C3 C4 1_555 1_555
C5 C6 1_555 1_555
C8 C9 1_555 1_555
C15 C16 1_555 1_555
C19 C21 1_555 1_555
N3 C20 1_555 1_555
N2I C9I 1_555 1_555
C1I C10I 1_555 1_555
C3I C4I 1_555 1_555
C5I C6I 1_555 1_555
C8I C9I 1_555 1_555
C15I C16I 1_555 1_555
C19I C21I 1_555 1_555
N3I C20I 1_555 1_555

#END
