
#######################################################################
#
#                 Cambridge Crystallographic Data Centre
#                                CCDC 
#
#######################################################################
#
# If this CIF has been generated from an entry in the Cambridge 
# Structural Database, then it will include bibliographic, chemical, 
# crystal, experimental, refinement or atomic coordinate data resulting 
# from the CCDC's data processing and validation procedures.
#
#######################################################################

data_CATPAL01
_symmetry_cell_setting           monoclinic
_symmetry_space_group_name_H-M   'P 21/c'
_symmetry_Int_Tables_number      14
_space_group_name_Hall           '-P 2ybc'
loop_
_symmetry_equiv_pos_site_id
_symmetry_equiv_pos_as_xyz
1 x,y,z
2 x,1/2-y,1/2+z
3 -x,-y,-z
4 -x,1/2+y,1/2-z
_cell_length_a                   7.0688(6)
_cell_length_b                   21.680(2)
_cell_length_c                   6.5903(5)
_cell_angle_alpha                90.00
_cell_angle_beta                 92.812(2)
_cell_angle_gamma                90.00
_cell_volume                     1008.76
loop_
_atom_site_label
_atom_site_type_symbol
_atom_site_fract_x
_atom_site_fract_y
_atom_site_fract_z
Ca1 Ca 0.1645(3) -0.21450(8) -0.0058(3)
O1 O 0.2526(9) -0.1845(3) 0.3283(8)
O2 O 0.2241(8) -0.1835(3) 0.6607(8)
O3 O 0.2758(9) 0.1399(3) 0.3313(9)
O4 O 0.2564(9) 0.1386(3) 0.6686(9)
O5 O -0.0932(9) -0.2492(3) 0.2478(9)
O6 O -0.0353(9) -0.1265(3) 0.0020(10)
O7 O 0.4820(10) -0.1752(4) -0.0046(10)
C1 C 0.2402(11) -0.1547(4) 0.4931(13)
C2 C 0.2497(11) -0.0867(4) 0.4926(12)
C3 C 0.2248(12) -0.0546(4) 0.6724(13)
H1 H 0.2050(12) -0.0766(4) 0.7942(13)
C4 C 0.2289(13) 0.0103(4) 0.6739(13)
H2 H 0.2095(13) 0.0320(4) 0.7965(13)
C5 C 0.2610(11) 0.0432(4) 0.4969(12)
C6 C 0.2877(13) 0.0106(4) 0.3177(13)
H3 H 0.3101(13) 0.0323(4) 0.1960(13)
C7 C 0.2816(12) -0.0545(4) 0.3166(13)
H4 H 0.2996(12) -0.0764(4) 0.1940(13)
C8 C 0.2649(11) 0.1116(4) 0.4998(13)
O2A O 0.2241(8) -0.3165(3) 0.1607(8)
Ca1A Ca 0.1645(3) -0.28550(8) 0.4942(3)
Ca1_2 Ca 0.1645(3) -0.21450(8) 0.9942(3)
O1A O 0.2526(9) -0.3155(3) -0.1717(8)
O2_2 O 0.2241(8) -0.1835(3) -0.3393(8)
O5A O -0.0932(9) -0.2508(3) -0.2522(9)
loop_
_geom_bond_atom_site_label_1
_geom_bond_atom_site_label_2
_geom_bond_site_symmetry_1
_geom_bond_site_symmetry_2
Ca1 O1 1_555 1_555
O1 C1 1_555 1_555
O2 C1 1_555 1_555
O3 C8 1_555 1_555
O4 C8 1_555 1_555
O5 Ca1 1_555 1_555
O6 Ca1 1_555 1_555
O7 Ca1 1_555 1_555
C1 C2 1_555 1_555
C2 C3 1_555 1_555
C3 H1 1_555 1_555
C4 C3 1_555 1_555
H2 C4 1_555 1_555
C5 C4 1_555 1_555
C6 C5 1_555 1_555
H3 C6 1_555 1_555
C7 C2 1_555 1_555
H4 C7 1_555 1_555
C8 C5 1_555 1_555
O2A Ca1 1_555 1_555
Ca1A O1 1_555 1_555
Ca1_2 O2 1_555 1_555
O1A Ca1 1_555 1_555
O2_2 Ca1 1_555 1_555
O5A Ca1 1_555 1_555
O2 Ca1A 1_555 1_555
O5 Ca1A 1_555 1_555
C6 C7 1_555 1_555
O2A Ca1A 1_555 1_555

#END
