
#######################################################################
#
#                 Cambridge Crystallographic Data Centre
#                                CCDC 
#
#######################################################################
#
# If this CIF has been generated from an entry in the Cambridge 
# Structural Database, then it will include bibliographic, chemical, 
# crystal, experimental, refinement or atomic coordinate data resulting 
# from the CCDC's data processing and validation procedures.
#
#######################################################################

data_CATPAL03
_symmetry_cell_setting           monoclinic
_symmetry_space_group_name_H-M   'P 21/c'
_symmetry_Int_Tables_number      14
_space_group_name_Hall           '-P 2ybc'
loop_
_symmetry_equiv_pos_site_id
_symmetry_equiv_pos_as_xyz
1 x,y,z
2 -x,1/2+y,1/2-z
3 -x,-y,-z
4 x,1/2-y,1/2+z
_cell_length_a                   7.0982(5)
_cell_length_b                   21.6400(15)
_cell_length_c                   6.5856(5)
_cell_angle_alpha                90
_cell_angle_beta                 92.217(7)
_cell_angle_gamma                90
_cell_volume                     1010.82
loop_
_atom_site_label
_atom_site_type_symbol
_atom_site_fract_x
_atom_site_fract_y
_atom_site_fract_z
Ca1 Ca 0.33522(11) 0.71437(3) 0.50533(11)
C1 C 0.2494(5) 0.58639(18) 0.0061(5)
C2 C 0.2697(6) 0.55379(19) -0.1717(6)
H1 H 0.2872 0.5751 -0.2921
C3 C 0.2645(6) 0.49009(19) -0.1740(6)
H2 H 0.2789 0.4690 -0.2954
C4 C 0.2380(5) 0.45727(18) 0.0033(5)
C5 C 0.2166(6) 0.48997(19) 0.1814(6)
H3 H 0.1983 0.4686 0.3017
C6 C 0.2219(6) 0.55384(19) 0.1837(6)
H4 H 0.2071 0.5750 0.3049
C7 C 0.2585(5) 0.65521(19) 0.0069(5)
C8 C 0.2340(5) 0.38767(19) 0.0005(6)
O1 O 0.5346(4) 0.62649(12) 0.4978(4)
H5 H 0.6078 0.6243 0.3754
H6 H 0.6171 0.6220 0.6077
O2 O 0.2522(4) 0.68437(12) 0.1710(4)
O3 O 0.2744(4) 0.68362(12) -0.1593(4)
O4 O 0.5926(4) 0.75057(13) 0.7519(4)
H7 H 0.6750 0.7162 0.7847
H8 H 0.6672 0.7821 0.7112
O5 O 0.2246(4) 0.35995(12) 0.1677(4)
O6 O 0.0188(4) 0.67606(17) 0.5046(5)
H9 H -0.0370 0.6722 0.3876
H10 H -0.0425 0.6674 0.6102
O7 O 0.2405(4) 0.36095(12) -0.1680(4)
Ca1C Ca 0.33522(11) 0.78563(3) 0.00533(11)
Ca1_2 Ca 0.33522(11) 0.71437(3) -0.49467(11)
Ca1C_2 Ca 0.33522(11) 0.78563(3) 1.00533(11)
O2C O 0.2522(4) 0.81563(12) 0.6710(4)
O3_2 O 0.2744(4) 0.68362(12) 0.8407(4)
O3C O 0.2744(4) 0.81638(12) 0.3407(4)
O4C O 0.5926(4) 0.74943(13) 0.2519(4)
H7C H 0.6750 0.7838 0.2847
H8C H 0.6672 0.7179 0.2112
loop_
_geom_bond_atom_site_label_1
_geom_bond_atom_site_label_2
_geom_bond_site_symmetry_1
_geom_bond_site_symmetry_2
Ca1 O1 1_555 1_555
C1 C2 1_555 1_555
C2 H1 1_555 1_555
C3 C2 1_555 1_555
H2 C3 1_555 1_555
C4 C3 1_555 1_555
C5 C4 1_555 1_555
H3 C5 1_555 1_555
C6 C1 1_555 1_555
H4 C6 1_555 1_555
C7 C1 1_555 1_555
C8 C4 1_555 1_555
O1 H5 1_555 1_555
H6 O1 1_555 1_555
O2 Ca1 1_555 1_555
O3 C7 1_555 1_555
O4 Ca1 1_555 1_555
H7 O4 1_555 1_555
H8 O4 1_555 1_555
O5 C8 1_555 1_555
O6 Ca1 1_555 1_555
H9 O6 1_555 1_555
H10 O6 1_555 1_555
O7 C8 1_555 1_555
Ca1C O2 1_555 1_555
Ca1_2 O3 1_555 1_555
Ca1C_2 O4 1_555 1_555
O2C Ca1 1_555 1_555
O3_2 Ca1 1_555 1_555
O3C Ca1 1_555 1_555
O4C Ca1 1_555 1_555
H7C O4C 1_555 1_555
H8C O4C 1_555 1_555
C5 C6 1_555 1_555
C7 O2 1_555 1_555
O3 Ca1C 1_555 1_555
Ca1C O3C 1_555 1_555
Ca1C O4C 1_555 1_555
Ca1C_2 O2C 1_555 1_555
Ca1C_2 O3_2 1_555 1_555

#END
