
#######################################################################
#
#                 Cambridge Crystallographic Data Centre
#                                CCDC 
#
#######################################################################
#
# If this CIF has been generated from an entry in the Cambridge 
# Structural Database, then it will include bibliographic, chemical, 
# crystal, experimental, refinement or atomic coordinate data resulting 
# from the CCDC's data processing and validation procedures.
#
#######################################################################

data_CAVBUX
_symmetry_cell_setting           triclinic
_symmetry_space_group_name_H-M   'P -1'
_symmetry_Int_Tables_number      2
_space_group_name_Hall           '-P 1'
loop_
_symmetry_equiv_pos_site_id
_symmetry_equiv_pos_as_xyz
1 x,y,z
2 -x,-y,-z
_cell_length_a                   8.1813(3)
_cell_length_b                   8.5535(3)
_cell_length_c                   12.3031(5)
_cell_angle_alpha                75.609(1)
_cell_angle_beta                 79.145(2)
_cell_angle_gamma                67.157(2)
_cell_volume                     764.458
loop_
_atom_site_label
_atom_site_type_symbol
_atom_site_fract_x
_atom_site_fract_y
_atom_site_fract_z
Zn1 Zn 0.37543(14) 0.77348(13) 0.28360(9)
Zn2 Zn 0.53212(15) 1.23013(12) 0.03744(8)
P1 P 0.7073(3) 0.8188(3) 0.11933(19)
H1 H 0.879(12) 0.738(12) 0.130(8)
P2 P 0.3179(3) 0.5362(3) 0.17671(19)
H2 H 0.155(10) 0.515(10) 0.177(6)
O1 O 0.6846(11) 1.0044(8) 0.1091(7)
O2 O 0.6176(9) 0.7463(9) 0.2293(6)
O3 O 0.6667(10) 0.7792(10) 0.0171(6)
O4 O 0.3110(9) 0.6959(8) 0.0874(6)
O5 O 0.4621(10) 0.3719(8) 0.1492(6)
O6 O 0.3322(10) 0.5650(8) 0.2914(5)
N1 N 0.3392(10) 0.8596(9) 0.4324(6)
N2 N 0.1635(10) 1.0001(9) 0.2466(6)
C1 C 0.4282(14) 0.7879(14) 0.5243(8)
H3 H 0.5162 0.6784 0.5278
C2 C 0.3942(16) 0.8708(16) 0.6144(9)
H4 H 0.4599 0.8184 0.6762
C3 C 0.2620(16) 1.0315(16) 0.6112(9)
H5 H 0.2357 1.0870 0.6719
C4 C 0.1668(13) 1.1115(12) 0.5159(8)
C5 C 0.2127(11) 1.0209(11) 0.4271(7)
C6 C 0.1191(12) 1.0937(11) 0.3298(7)
C7 C -0.0180(12) 1.2567(11) 0.3198(8)
C8 C -0.1107(13) 1.3201(12) 0.2235(9)
H6 H -0.2028 1.4273 0.2151
C9 C -0.0643(14) 1.2229(14) 0.1427(9)
H7 H -0.1256 1.2629 0.0789
C10 C 0.0749(12) 1.0637(12) 0.1552(7)
H8 H 0.1072 0.9997 0.0985
C11 C 0.0259(16) 1.2772(14) 0.5064(10)
H9 H -0.0049 1.3370 0.5653
C12 C -0.0639(15) 1.3493(13) 0.4129(10)
H10 H -0.1544 1.4574 0.4083
Zn2A Zn 0.46788(15) 0.76987(12) -0.03744(8)
Zn2_2 Zn 0.53212(15) 0.23013(12) 0.03744(8)
O3A O 0.3333(10) 1.2208(10) -0.0171(6)
O4A O 0.6890(9) 1.3041(8) -0.0874(6)
O5_2 O 0.4621(10) 1.3719(8) 0.1492(6)
loop_
_geom_bond_atom_site_label_1
_geom_bond_atom_site_label_2
_geom_bond_site_symmetry_1
_geom_bond_site_symmetry_2
Zn1 O2 1_555 1_555
Zn2 O1 1_555 1_555
P1 H1 1_555 1_555
P2 H2 1_555 1_555
O1 P1 1_555 1_555
O2 P1 1_555 1_555
O3 P1 1_555 1_555
O4 P2 1_555 1_555
O5 P2 1_555 1_555
O6 Zn1 1_555 1_555
N1 Zn1 1_555 1_555
N2 Zn1 1_555 1_555
C1 N1 1_555 1_555
H3 C1 1_555 1_555
C2 C1 1_555 1_555
H4 C2 1_555 1_555
C3 C2 1_555 1_555
H5 C3 1_555 1_555
C4 C3 1_555 1_555
C5 N1 1_555 1_555
C6 N2 1_555 1_555
C7 C6 1_555 1_555
C8 C7 1_555 1_555
H6 C8 1_555 1_555
C9 C8 1_555 1_555
H7 C9 1_555 1_555
C10 N2 1_555 1_555
H8 C10 1_555 1_555
C11 C4 1_555 1_555
H9 C11 1_555 1_555
C12 C7 1_555 1_555
H10 C12 1_555 1_555
Zn2A O3 1_555 1_555
Zn2_2 O5 1_555 1_555
O3A Zn2 1_555 1_555
O4A Zn2 1_555 1_555
O5_2 Zn2 1_555 1_555
P2 O6 1_555 1_555
O4 Zn2A 1_555 1_555
C4 C5 1_555 1_555
C5 C6 1_555 1_555
C9 C10 1_555 1_555
C11 C12 1_555 1_555

#END
