
#######################################################################
#
#                 Cambridge Crystallographic Data Centre
#                                CCDC 
#
#######################################################################
#
# If this CIF has been generated from an entry in the Cambridge 
# Structural Database, then it will include bibliographic, chemical, 
# crystal, experimental, refinement or atomic coordinate data resulting 
# from the CCDC's data processing and validation procedures.
#
#######################################################################

data_CAVGUD
_symmetry_cell_setting           triclinic
_symmetry_space_group_name_H-M   'P -1'
_symmetry_Int_Tables_number      2
_space_group_name_Hall           '-P 1'
loop_
_symmetry_equiv_pos_site_id
_symmetry_equiv_pos_as_xyz
1 x,y,z
2 -x,-y,-z
_cell_length_a                   10.8233(16)
_cell_length_b                   15.163(2)
_cell_length_c                   18.137(3)
_cell_angle_alpha                82.755(2)
_cell_angle_beta                 74.833(2)
_cell_angle_gamma                71.208(2)
_cell_volume                     2716.86
loop_
_atom_site_label
_atom_site_type_symbol
_atom_site_fract_x
_atom_site_fract_y
_atom_site_fract_z
Cd1 Cd 0.12647(4) 0.45417(3) 0.06873(3)
Br1 Br -0.01913(6) 0.37515(4) 0.01996(4)
Br4 Br -0.01020(7) 0.54047(5) 0.19350(4)
N1 N 0.4102(5) 0.4227(4) -0.1548(3)
N2 N 0.3084(5) 0.4267(4) -0.0310(3)
C2 C 0.6656(6) 0.7491(4) -0.1184(4)
C3 C 0.4463(6) 0.4032(4) -0.0380(4)
C4 C 0.7211(7) 0.3647(4) -0.0852(4)
H1 H 0.8158 0.3519 -0.0997
N5 N 0.6171(5) 0.7146(4) -0.2206(3)
N6 N 0.7528(5) 0.6612(4) -0.1405(3)
C5 C 0.5170(7) 0.4794(4) -0.2827(3)
C7 C 0.5827(7) 0.6207(5) -0.3098(4)
C8 C 0.5118(6) 0.4018(4) -0.1156(4)
C11 C 0.7159(7) 0.4846(5) -0.3777(4)
H4 H 0.7903 0.4543 -0.4165
C13 C 0.5811(6) 0.7818(4) -0.1689(4)
C15 C 0.6564(7) 0.3632(5) -0.0068(4)
H6 H 0.7090 0.3475 0.0301
C18 C 0.7193(7) 0.6439(4) -0.2001(4)
H8 H 0.7617 0.5877 -0.2265
C21 C 0.4929(7) 0.5738(5) -0.2695(4)
C22 C 0.6506(7) 0.3840(5) -0.1406(4)
H9 H 0.6936 0.3853 -0.1934
C23 C 0.2933(6) 0.4361(4) -0.1019(4)
H10 H 0.2086 0.4508 -0.1142
C25 C 0.3715(7) 0.6221(5) -0.2090(4)
H12 H 0.3961 0.6147 -0.1597
H13 H 0.2996 0.5943 -0.2045
H14 H 0.3403 0.6886 -0.2235
C30 C 0.6988(7) 0.5747(5) -0.3646(4)
C33 C 0.8019(8) 0.6219(6) -0.4077(5)
H22 H 0.8771 0.5769 -0.4397
H23 H 0.8349 0.6456 -0.3712
H24 H 0.7606 0.6739 -0.4401
C34 C 0.6291(7) 0.4337(5) -0.3366(4)
C35 C 0.6659(8) 0.3300(5) -0.3505(5)
H25 H 0.6805 0.2933 -0.3033
H26 H 0.7481 0.3121 -0.3911
H27 H 0.5925 0.3182 -0.3658
C42 C 0.5196(6) 0.3840(4) 0.0173(4)
H36 H 0.4766 0.3851 0.0701
C43 C 0.4225(7) 0.4270(5) -0.2382(4)
H37 H 0.3326 0.4575 -0.2486
H38 H 0.4545 0.3627 -0.2561
C44 C 0.6569(7) 0.8004(5) -0.0578(4)
H39 H 0.7139 0.7768 -0.0233
C45 C 0.4816(7) 0.8699(5) -0.1608(4)
H40 H 0.4234 0.8929 -0.1947
C46 C 0.5674(7) 0.7183(5) -0.2887(4)
H41 H 0.6180 0.7491 -0.3319
H42 H 0.4715 0.7557 -0.2792
C48 C 0.4744(8) 0.9201(5) -0.1009(5)
H45 H 0.4084 0.9794 -0.0932
C49 C 0.5616(8) 0.8871(5) -0.0499(4)
H46 H 0.5542 0.9250 -0.0101
Cd1A Cd -0.12647(4) 0.54583(3) -0.06873(3)
Cd1A_2 Cd 0.87353(4) 0.54583(3) -0.06873(3)
Br1A Br 0.01913(6) 0.62485(4) -0.01996(4)
N6A N 0.2472(5) 0.3388(4) 0.1405(3)
Cd2 Cd -0.35876(5) 0.05284(3) 0.43342(3)
Br2 Br -0.61870(6) 0.12487(4) 0.48196(4)
Br3 Br -0.30214(7) -0.03024(5) 0.30597(4)
N3 N 0.3024(5) -0.0713(4) 0.3397(3)
C1 C 0.1748(7) 0.0857(5) 0.2326(4)
N4 N -0.1210(5) 0.2245(4) 0.2863(3)
C6 C 0.1309(7) 0.0020(5) 0.1189(4)
H2 H 0.1175 -0.0257 0.0787
N7 N 0.2920(5) -0.0753(4) 0.4642(3)
N8 N -0.2769(6) 0.1703(4) 0.3665(3)
C9 C 0.1810(6) -0.0955(4) 0.4553(4)
C10 C 0.3610(7) -0.0623(5) 0.3941(4)
H3 H 0.4434 -0.0481 0.3833
C12 C 0.0728(6) 0.1328(5) 0.1944(4)
C14 C -0.1769(7) 0.1538(5) 0.3049(4)
H5 H -0.1476 0.0989 0.2769
C16 C 0.2534(6) -0.0063(5) 0.2135(4)
C17 C 0.0839(6) -0.1079(4) 0.3502(4)
H7 H 0.0867 -0.1045 0.2972
C19 C 0.0489(7) 0.0906(5) 0.1396(4)
C20 C -0.1902(7) 0.2921(5) 0.3389(4)
C24 C -0.0201(7) -0.1283(5) 0.4049(4)
H11 H -0.0917 -0.1381 0.3893
C26 C 0.3158(9) -0.1455(5) 0.1306(5)
H15 H 0.4087 -0.1468 0.1070
H16 H 0.2779 -0.1635 0.0934
H17 H 0.3139 -0.1894 0.1752
C27 C 0.2333(7) -0.0478(5) 0.1557(4)
C28 C -0.0702(9) 0.1356(6) 0.1021(5)
H18 H -0.1520 0.1600 0.1418
H19 H -0.0821 0.0888 0.0743
H20 H -0.0524 0.1868 0.0665
C29 C -0.0221(7) -0.1347(5) 0.4836(4)
H21 H -0.0927 -0.1519 0.5197
C31 C 0.1851(6) -0.0927(4) 0.3771(4)
C32 C -0.2885(7) 0.2568(5) 0.3895(4)
C36 C 0.1972(7) 0.1315(5) 0.2958(4)
H28 H 0.1647 0.1994 0.2882
H29 H 0.2932 0.1121 0.2946
H30 H 0.1479 0.1125 0.3455
C37 C -0.3764(8) 0.3094(5) 0.4512(4)
H31 H -0.4444 0.2873 0.4852
C38 C -0.1771(8) 0.3775(5) 0.3488(5)
H32 H -0.1115 0.4016 0.3144
C39 C 0.0761(7) -0.1166(5) 0.5090(4)
H33 H 0.0720 -0.1186 0.5621
C40 C -0.3618(9) 0.3926(5) 0.4609(5)
H34 H -0.4198 0.4288 0.5027
C41 C -0.2631(9) 0.4258(5) 0.4107(5)
H35 H -0.2552 0.4839 0.4197
C47 C -0.0163(7) 0.2290(5) 0.2179(4)
H43 H 0.0388 0.2651 0.2278
H44 H -0.0581 0.2617 0.1756
C50 C 0.3587(7) -0.0606(5) 0.2569(4)
H47 H 0.4035 -0.1232 0.2359
H48 H 0.4276 -0.0282 0.2489
Cd2A Cd -0.64124(5) -0.05284(3) 0.56658(3)
Cd2A_2 Cd 0.35876(5) -0.05284(3) 0.56658(3)
Br2A Br -0.38130(6) -0.12487(4) 0.51804(4)
N7A N -0.2920(5) 0.0753(4) 0.5358(3)
Cl1 Cl 0.3175(2) 0.21381(17) -0.15293(16)
Cl3 Cl 0.1384(3) 0.1125(2) -0.0755(2)
C51 C 0.1607(10) 0.2003(6) -0.1436(5)
H49 H 0.0897 0.2594 -0.1282
H50 H 0.1535 0.1844 -0.1933
Cl2 Cl 0.3487(3) 0.3139(3) -0.3785(2)
Cl4 Cl 0.0711(4) 0.3601(3) -0.3881(2)
C52 C 0.1998(10) 0.2900(7) -0.3460(7)
H51 H 0.1703 0.2972 -0.2901
H52 H 0.2145 0.2240 -0.3553
loop_
_geom_bond_atom_site_label_1
_geom_bond_atom_site_label_2
_geom_bond_site_symmetry_1
_geom_bond_site_symmetry_2
Cd1 Br1 1_555 1_555
Cd2 Br2 1_555 1_555
Br1 Cd1A 1_555 1_555
Br2 Cd2A 1_555 1_555
Br3 Cd2 1_555 1_555
Br4 Cd1 1_555 1_555
N1 C8 1_555 1_555
N2 Cd1 1_555 1_555
N3 C10 1_555 1_555
C1 C12 1_555 1_555
N4 C14 1_555 1_555
C2 N6 1_555 1_555
C3 N2 1_555 1_555
C4 H1 1_555 1_555
N5 C13 1_555 1_555
N6 C18 1_555 1_555
C5 C21 1_555 1_555
C6 H2 1_555 1_555
N7 C9 1_555 1_555
C7 C21 1_555 1_555
N8 Cd2 1_555 1_555
C8 C3 1_555 1_555
C9 C31 1_555 1_555
C10 N7 1_555 1_555
H3 C10 1_555 1_555
C11 H4 1_555 1_555
C12 C19 1_555 1_555
C13 C2 1_555 1_555
C14 N8 1_555 1_555
H5 C14 1_555 1_555
C15 C4 1_555 1_555
H6 C15 1_555 1_555
C16 C1 1_555 1_555
C17 H7 1_555 1_555
C18 N5 1_555 1_555
H8 C18 1_555 1_555
C19 C6 1_555 1_555
C20 N4 1_555 1_555
C21 C25 1_555 1_555
C22 C4 1_555 1_555
H9 C22 1_555 1_555
C23 N1 1_555 1_555
H10 C23 1_555 1_555
C24 C17 1_555 1_555
H11 C24 1_555 1_555
C25 H12 1_555 1_555
H13 C25 1_555 1_555
H14 C25 1_555 1_555
C26 H15 1_555 1_555
H16 C26 1_555 1_555
H17 C26 1_555 1_555
C27 C6 1_555 1_555
C28 C19 1_555 1_555
H18 C28 1_555 1_555
H19 C28 1_555 1_555
H20 C28 1_555 1_555
C29 C24 1_555 1_555
H21 C29 1_555 1_555
C30 C7 1_555 1_555
C31 N3 1_555 1_555
C32 N8 1_555 1_555
C33 C30 1_555 1_555
H22 C33 1_555 1_555
H23 C33 1_555 1_555
H24 C33 1_555 1_555
C34 C5 1_555 1_555
C35 C34 1_555 1_555
H25 C35 1_555 1_555
H26 C35 1_555 1_555
H27 C35 1_555 1_555
C36 C1 1_555 1_555
H28 C36 1_555 1_555
H29 C36 1_555 1_555
H30 C36 1_555 1_555
C37 C32 1_555 1_555
H31 C37 1_555 1_555
C38 C20 1_555 1_555
H32 C38 1_555 1_555
C39 C9 1_555 1_555
H33 C39 1_555 1_555
C40 C37 1_555 1_555
H34 C40 1_555 1_555
C41 C38 1_555 1_555
H35 C41 1_555 1_555
Cl1 C51 1_555 1_555
Cl2 C52 1_555 1_555
Cl3 C51 1_555 1_555
C42 C3 1_555 1_555
H36 C42 1_555 1_555
C43 N1 1_555 1_555
H37 C43 1_555 1_555
H38 C43 1_555 1_555
C44 C2 1_555 1_555
H39 C44 1_555 1_555
C45 C13 1_555 1_555
H40 C45 1_555 1_555
C46 N5 1_555 1_555
H41 C46 1_555 1_555
H42 C46 1_555 1_555
C47 N4 1_555 1_555
H43 C47 1_555 1_555
H44 C47 1_555 1_555
C48 C45 1_555 1_555
H45 C48 1_555 1_555
C49 C44 1_555 1_555
H46 C49 1_555 1_555
Cl4 C52 1_555 1_555
C50 N3 1_555 1_555
H47 C50 1_555 1_555
H48 C50 1_555 1_555
C51 H49 1_555 1_555
H50 C51 1_555 1_555
C52 H51 1_555 1_555
H52 C52 1_555 1_555
Cd1A Br1A 1_555 1_555
Cd1A_2 N6 1_555 1_555
Cd2A Br2A 1_555 1_555
Cd2A_2 N7 1_555 1_555
Br1A Cd1 1_555 1_555
Br2A Cd2 1_555 1_555
N6A Cd1 1_555 1_555
N7A Cd2 1_555 1_555
N2 C23 1_555 1_555
C5 C43 1_555 1_555
C7 C46 1_555 1_555
C8 C22 1_555 1_555
C11 C30 1_555 1_555
C11 C34 1_555 1_555
C12 C47 1_555 1_555
C15 C42 1_555 1_555
C16 C27 1_555 1_555
C16 C50 1_555 1_555
C17 C31 1_555 1_555
C20 C32 1_555 1_555
C26 C27 1_555 1_555
C29 C39 1_555 1_555
C40 C41 1_555 1_555
C48 C49 1_555 1_555

#END
