
#######################################################################
#
#                 Cambridge Crystallographic Data Centre
#                                CCDC 
#
#######################################################################
#
# If this CIF has been generated from an entry in the Cambridge 
# Structural Database, then it will include bibliographic, chemical, 
# crystal, experimental, refinement or atomic coordinate data resulting 
# from the CCDC's data processing and validation procedures.
#
#######################################################################

data_CAVLUI
_symmetry_cell_setting           monoclinic
_symmetry_space_group_name_H-M   'P 21/c'
_symmetry_Int_Tables_number      14
_space_group_name_Hall           '-P 2ybc'
loop_
_symmetry_equiv_pos_site_id
_symmetry_equiv_pos_as_xyz
1 x,y,z
2 -x,1/2+y,1/2-z
3 -x,-y,-z
4 x,1/2-y,1/2+z
_cell_length_a                   11.367(5)
_cell_length_b                   24.599(9)
_cell_length_c                   9.050(4)
_cell_angle_alpha                90
_cell_angle_beta                 112.970(5)
_cell_angle_gamma                90
_cell_volume                     2329.88
loop_
_atom_site_label
_atom_site_type_symbol
_atom_site_fract_x
_atom_site_fract_y
_atom_site_fract_z
Zn1 Zn -0.05877(7) 0.45214(3) 0.29939(9)
Fe1 Fe -0.02457(11) 0.32205(4) -0.16912(13)
O1 O -0.1378(5) 0.43022(18) 0.0490(6)
O2 O -0.0745(5) 0.36162(18) 0.2157(7)
O3 O 0.0085(5) 0.4229(2) -0.4726(6)
O4 O 0.0783(5) 0.46770(18) -0.2390(7)
N1 N -0.2470(5) 0.4519(2) 0.3019(7)
N2 N -0.8694(5) 0.4506(2) 0.3063(7)
C1 C -0.1166(7) 0.3810(3) 0.0776(9)
C2 C -0.1482(7) 0.3428(3) -0.0613(9)
C3 C -0.2016(7) 0.3573(3) -0.2282(10)
C4 C -0.2133(8) 0.3078(3) -0.3194(10)
C5 C -0.1632(8) 0.2648(3) -0.2081(10)
C6 C -0.1247(8) 0.2854(3) -0.0514(10)
C7 C 0.0544(6) 0.4252(3) -0.3231(9)
C8 C 0.0895(7) 0.3724(3) -0.2357(9)
C9 C 0.0829(8) 0.3209(3) -0.3045(10)
C10 C 0.1289(9) 0.2820(3) -0.1804(13)
C11 C 0.1649(9) 0.3099(4) -0.0323(11)
C12 C 0.1402(7) 0.3659(3) -0.0663(9)
C13 C -0.3315(8) 0.4900(4) 0.2339(13)
C14 C -0.4522(8) 0.4905(4) 0.2329(15)
C15 C -0.4939(6) 0.4498(3) 0.3021(9)
C16 C -0.4067(7) 0.4093(3) 0.3716(12)
C17 C -0.2864(7) 0.4131(3) 0.3693(11)
C18 C -0.6234(6) 0.4492(3) 0.3029(9)
C19 C -0.7132(6) 0.4877(3) 0.2173(9)
C20 C -0.8343(6) 0.4875(3) 0.2221(10)
C21 C -0.7857(7) 0.4116(3) 0.3816(10)
C22 C -0.6651(7) 0.4090(3) 0.3798(11)
H1 H -0.2271 0.3943 -0.2727
H2 H -0.2474 0.3047 -0.4378
H3 H -0.1572 0.2263 -0.2364
H4 H -0.0875 0.2639 0.0487
H5 H 0.0507 0.3130 -0.4209
H6 H 0.1354 0.2423 -0.1943
H7 H 0.2007 0.2933 0.0758
H8 H 0.1557 0.3954 0.0137
H9 H -0.3078 0.5188 0.1828
H10 H -0.5074 0.5195 0.1834
H11 H -0.4287 0.3794 0.4202
H12 H -0.2279 0.3854 0.4206
H13 H -0.6924 0.5140 0.1559
H14 H -0.8935 0.5143 0.1644
H15 H -0.8101 0.3849 0.4382
H16 H -0.6106 0.3800 0.4308
Zn1_2 Zn -1.05877(7) 0.45214(3) 0.29939(9)
Zn1_3 Zn -0.05877(7) 0.45214(3) -0.70061(9)
Zn1B Zn 0.05877(7) 0.54786(3) -0.29939(9)
O3_2 O 0.0085(5) 0.4229(2) 0.5274(6)
O4B O -0.0783(5) 0.53230(18) 0.2390(7)
N2_2 N 0.1306(5) 0.4506(2) 0.3063(7)
loop_
_geom_bond_atom_site_label_1
_geom_bond_atom_site_label_2
_geom_bond_site_symmetry_1
_geom_bond_site_symmetry_2
Zn1 O1 1_555 1_555
Fe1 C2 1_555 1_555
O1 C1 1_555 1_555
O2 Zn1 1_555 1_555
O3 C7 1_555 1_555
O4 C7 1_555 1_555
N1 Zn1 1_555 1_555
N2 C20 1_555 1_555
C1 O2 1_555 1_555
C2 C1 1_555 1_555
C3 Fe1 1_555 1_555
C4 Fe1 1_555 1_555
C5 Fe1 1_555 1_555
C6 Fe1 1_555 1_555
C7 C8 1_555 1_555
C8 Fe1 1_555 1_555
C9 Fe1 1_555 1_555
C10 Fe1 1_555 1_555
C11 Fe1 1_555 1_555
C12 Fe1 1_555 1_555
C13 N1 1_555 1_555
C14 C13 1_555 1_555
C15 C14 1_555 1_555
C16 C15 1_555 1_555
C17 N1 1_555 1_555
C18 C15 1_555 1_555
C19 C18 1_555 1_555
C20 C19 1_555 1_555
C21 N2 1_555 1_555
C22 C18 1_555 1_555
H1 C3 1_555 1_555
H2 C4 1_555 1_555
H3 C5 1_555 1_555
H4 C6 1_555 1_555
H5 C9 1_555 1_555
H6 C10 1_555 1_555
H7 C11 1_555 1_555
H8 C12 1_555 1_555
H9 C13 1_555 1_555
H10 C14 1_555 1_555
H11 C16 1_555 1_555
H12 C17 1_555 1_555
H13 C19 1_555 1_555
H14 C20 1_555 1_555
H15 C21 1_555 1_555
H16 C22 1_555 1_555
Zn1_2 N2 1_555 1_555
Zn1_3 O3 1_555 1_555
Zn1B O4 1_555 1_555
O3_2 Zn1 1_555 1_555
O4B Zn1 1_555 1_555
N2_2 Zn1 1_555 1_555
C2 C3 1_555 1_555
C2 C6 1_555 1_555
C3 C4 1_555 1_555
C4 C5 1_555 1_555
C5 C6 1_555 1_555
C8 C9 1_555 1_555
C8 C12 1_555 1_555
C9 C10 1_555 1_555
C10 C11 1_555 1_555
C11 C12 1_555 1_555
C16 C17 1_555 1_555
C21 C22 1_555 1_555

#END
