
#######################################################################
#
#                 Cambridge Crystallographic Data Centre
#                                CCDC 
#
#######################################################################
#
# If this CIF has been generated from an entry in the Cambridge 
# Structural Database, then it will include bibliographic, chemical, 
# crystal, experimental, refinement or atomic coordinate data resulting 
# from the CCDC's data processing and validation procedures.
#
#######################################################################

data_CAVMUJ03
_symmetry_cell_setting           monoclinic
_symmetry_space_group_name_H-M   'C 2/c'
_symmetry_Int_Tables_number      15
_space_group_name_Hall           '-C 2yn'
loop_
_symmetry_equiv_pos_site_id
_symmetry_equiv_pos_as_xyz
1 x,y,z
2 -x,y,1/2-z
3 1/2+x,1/2+y,z
4 1/2-x,1/2+y,1/2-z
5 -x,-y,-z
6 x,-y,1/2+z
7 1/2-x,1/2-y,-z
8 1/2+x,1/2-y,1/2+z
_cell_length_a                   21.50501(26)
_cell_length_b                   6.63008(7)
_cell_length_c                   7.27431(20)
_cell_angle_alpha                90
_cell_angle_beta                 113.5427(14)
_cell_angle_gamma                90
_cell_volume                     950.839
loop_
_atom_site_label
_atom_site_type_symbol
_atom_site_fract_x
_atom_site_fract_y
_atom_site_fract_z
Sc1 Sc 0.00000 0.0000 0.0000
O1 O 0.00000 0.1484(7) 0.2500
O2 O 0.06518(19) -0.2012(6) 0.1786(7)
O3 O 0.08441(16) -0.1761(6) 0.5012(6)
C1 C 0.18542(20) -0.2473(9) 0.4567(10)
C2 C 0.20474(24) -0.2596(9) 0.2910(8)
C3 C 0.22200(28) -0.1998(10) 0.6457(9)
C4 C 0.10565(23) -0.1994(9) 0.3602(10)
Sc1A Sc 0.00000 0.0000 -0.5000
Sc1A_2 Sc 0.00000 0.0000 0.5000
Sc1B Sc 0.50000 -0.5000 1.0000
Sc1C Sc 0.50000 -0.5000 0.5000
Sc1B_2 Sc -0.50000 0.5000 -1.0000
Sc1C_2 Sc -0.50000 0.5000 -0.5000
O1D O 0.00000 -0.1484(7) -0.2500
O1F O 0.50000 -0.6484(7) 0.7500
O1B O 0.50000 -0.3516(7) 1.2500
O2F O 0.43482(19) -0.2988(6) 0.8214(7)
O2D O -0.06518(19) 0.2012(6) -0.1786(7)
O2B O 0.56518(19) -0.7012(6) 1.1786(7)
O2B_2 O -0.43482(19) 0.2988(6) -0.8214(7)
O3F O 0.41559(16) -0.3239(6) 0.4988(6)
O3A O -0.08441(16) -0.1761(6) -0.0012(6)
O3E O 0.08441(16) 0.1761(6) 0.0012(6)
O3D O -0.08441(16) 0.1761(6) -0.5012(6)
O3C O 0.41559(16) -0.6761(6) 0.9988(6)
O3G O 0.58441(16) -0.3239(6) 1.0012(6)
O3B O -0.41559(16) 0.3239(6) -0.4988(6)
C1F C 0.31458(20) -0.2527(9) 0.5433(10)
C1D C -0.18542(20) 0.2473(9) -0.4567(10)
C1B C -0.31458(20) 0.2527(9) -0.5433(10)
C2F C 0.29526(24) -0.2404(9) 0.7090(8)
C2D C -0.20474(24) 0.2596(9) -0.2910(8)
C2B C -0.29526(24) 0.2404(9) -0.7090(8)
C3F C 0.27800(28) -0.3002(10) 0.3543(9)
C3D C -0.22200(28) 0.1998(10) -0.6457(9)
C3B C -0.27800(28) 0.3002(10) -0.3543(9)
C4F C 0.39435(23) -0.3006(9) 0.6398(10)
C4D C -0.10565(23) 0.1994(9) -0.3602(10)
C4B C -0.39435(23) 0.3006(9) -0.6398(10)
loop_
_geom_bond_atom_site_label_1
_geom_bond_atom_site_label_2
_geom_bond_site_symmetry_1
_geom_bond_site_symmetry_2
Sc1 O1 1_555 1_555
O1 Sc1A_2 1_555 1_555
O2 Sc1 1_555 1_555
O3 C4 1_555 1_555
C1 C2 1_555 1_555
C2 C3F 1_555 1_555
C3 C1 1_555 1_555
C4 O2 1_555 1_555
Sc1A O1D 1_555 1_555
Sc1A_2 O3 1_555 1_555
Sc1B O1F 1_555 1_555
Sc1C O1F 1_555 1_555
Sc1B_2 O2B_2 1_555 1_555
Sc1C_2 O3B 1_555 1_555
O1D Sc1 1_555 1_555
O1B Sc1B 1_555 1_555
O2F Sc1B 1_555 1_555
O2D Sc1 1_555 1_555
O2B Sc1B 1_555 1_555
O2B_2 C4B 1_555 1_555
O3F Sc1C 1_555 1_555
O3A Sc1 1_555 1_555
O3E Sc1 1_555 1_555
O3D Sc1A 1_555 1_555
O3C Sc1B 1_555 1_555
O3G Sc1B 1_555 1_555
O3B C4B 1_555 1_555
C1F C2F 1_555 1_555
C1D C2D 1_555 1_555
C1B C2B 1_555 1_555
C2F C3 1_555 1_555
C2D C3B 1_555 1_555
C2B C3D 1_555 1_555
C3F C1F 1_555 1_555
C3D C1D 1_555 1_555
C3B C1B 1_555 1_555
C4F O2F 1_555 1_555
C4D O2D 1_555 1_555
C4B C1B 1_555 1_555
C1 C4 1_555 1_555
O3F C4F 1_555 1_555
O3D C4D 1_555 1_555
C1F C4F 1_555 1_555
C1D C4D 1_555 1_555

#END
