
#######################################################################
#
#                 Cambridge Crystallographic Data Centre
#                                CCDC 
#
#######################################################################
#
# If this CIF has been generated from an entry in the Cambridge 
# Structural Database, then it will include bibliographic, chemical, 
# crystal, experimental, refinement or atomic coordinate data resulting 
# from the CCDC's data processing and validation procedures.
#
#######################################################################

data_CAVMUJ01
_symmetry_cell_setting           monoclinic
_symmetry_space_group_name_H-M   'P 21/c'
_symmetry_Int_Tables_number      14
_space_group_name_Hall           '-P 2ybc'
loop_
_symmetry_equiv_pos_site_id
_symmetry_equiv_pos_as_xyz
1 x,y,z
2 -x,1/2+y,1/2-z
3 -x,-y,-z
4 x,1/2-y,1/2+z
_cell_length_a                   20.32979(19)
_cell_length_b                   7.32576(8)
_cell_length_c                   11.83829(16)
_cell_angle_alpha                90
_cell_angle_beta                 105.2058(12)
_cell_angle_gamma                90
_cell_volume                     1701.36
loop_
_atom_site_label
_atom_site_type_symbol
_atom_site_fract_x
_atom_site_fract_y
_atom_site_fract_z
Sc1 Sc -0.00284(27) 0.9122(8) 0.2463(5)
Sc2 Sc 0.49384(26) 1.0781(8) 0.2460(6)
O1 O 0.5141(5) 0.8357(19) 0.1728(11)
O2 O 0.4014(6) 0.9747(17) 0.2545(13)
O3 O 0.0871(6) 0.9870(16) 0.3602(12)
O4 O 0.0153(5) 0.6672(18) 0.3423(11)
O5 O 0.4347(6) 1.3355(20) 0.5714(12)
O6 O 0.4151(6) 0.6778(23) 0.2938(11)
O7 O 0.0908(6) 1.2889(17) 0.3534(11)
O8 O 0.0712(6) 0.5050(16) 0.1569(12)
O9 O 0.0470(6) 0.8064(20) 0.1298(11)
O10 O 0.4442(6) 1.0246(17) 0.5935(12)
C1 C 0.4103(7) 1.1687(25) 0.5666(15)
C2 C 0.1903(7) 0.8819(22) 0.1600(15)
C3 C 0.2571(9) 0.9424(22) 0.1916(16)
C4 C 0.2995(8) 1.3309(22) 0.4882(16)
C5 C 0.1236(7) 1.1377(25) 0.3761(16)
C6 C 0.2350(8) 0.9732(19) 0.4392(18)
C7 C 0.2021(6) 1.1448(22) 0.4258(16)
C8 C 0.2283(8) 1.3251(22) 0.4503(17)
C9 C 0.3355(6) 1.1624(24) 0.4974(16)
C10 C 0.1682(7) 0.7015(24) 0.1701(16)
C11 C 0.3042(8) 0.9844(21) 0.4856(19)
C12 C 0.0933(7) 0.6707(28) 0.1539(17)
C13 C 0.2136(8) 0.5626(23) 0.2131(18)
C14 C 0.2983(7) 0.7825(24) 0.2231(16)
C15 C 0.2832(8) 0.5977(24) 0.2389(16)
C16 C 0.3750(7) 0.8140(27) 0.2583(18)
Sc1A Sc 0.00284(27) 0.4122(8) 0.2537(5)
Sc1A_2 Sc 0.00284(27) 1.4122(8) 0.2537(5)
Sc2A Sc 0.50616(26) 0.5781(8) 0.2540(6)
Sc2C Sc 0.49384(26) 1.4219(8) 0.7460(6)
Sc2B Sc 0.50616(26) 0.9219(8) 0.7540(6)
O1A O 0.4859(5) 1.3357(19) 0.3272(11)
O4A O -0.0153(5) 1.1672(18) 0.1577(11)
O5C O 0.4347(6) 1.1645(20) 0.0714(12)
O6A O 0.5849(6) 1.1778(23) 0.2062(11)
O7A O -0.0908(6) 0.7889(17) 0.1466(11)
O8A O -0.0712(6) 1.0050(16) 0.3431(12)
O10B O 0.5558(6) 0.9754(17) 0.4065(12)
loop_
_geom_bond_atom_site_label_1
_geom_bond_atom_site_label_2
_geom_bond_site_symmetry_1
_geom_bond_site_symmetry_2
Sc1 O3 1_555 1_555
Sc2 O1 1_555 1_555
O1 Sc2A 1_555 1_555
O2 Sc2 1_555 1_555
O3 C5 1_555 1_555
O4 Sc1 1_555 1_555
O5 C1 1_555 1_555
O6 C16 1_555 1_555
O7 C5 1_555 1_555
O8 C12 1_555 1_555
O9 Sc1 1_555 1_555
O10 C1 1_555 1_555
C1 C9 1_555 1_555
C2 C3 1_555 1_555
C3 C14 1_555 1_555
C4 C8 1_555 1_555
C5 C7 1_555 1_555
C6 C7 1_555 1_555
C7 C8 1_555 1_555
C9 C4 1_555 1_555
C10 C2 1_555 1_555
C11 C6 1_555 1_555
C12 O9 1_555 1_555
C13 C10 1_555 1_555
C14 C15 1_555 1_555
C15 C13 1_555 1_555
C16 O2 1_555 1_555
Sc1A O4 1_555 1_555
Sc1A_2 O7 1_555 1_555
Sc2A O6 1_555 1_555
Sc2C O5 1_555 1_555
Sc2B O10 1_555 1_555
O1A Sc2 1_555 1_555
O4A Sc1 1_555 1_555
O5C Sc2 1_555 1_555
O6A Sc2 1_555 1_555
O7A Sc1 1_555 1_555
O8A Sc1 1_555 1_555
O10B Sc2 1_555 1_555
O8 Sc1A 1_555 1_555
C9 C11 1_555 1_555
C10 C12 1_555 1_555
C14 C16 1_555 1_555
Sc1A_2 O4A 1_555 1_555

#END
