
#######################################################################
#
#                 Cambridge Crystallographic Data Centre
#                                CCDC 
#
#######################################################################
#
# If this CIF has been generated from an entry in the Cambridge 
# Structural Database, then it will include bibliographic, chemical, 
# crystal, experimental, refinement or atomic coordinate data resulting 
# from the CCDC's data processing and validation procedures.
#
#######################################################################

data_CAVMET
_symmetry_cell_setting           triclinic
_symmetry_space_group_name_H-M   'P -1'
_symmetry_Int_Tables_number      2
_space_group_name_Hall           '-P 1'
loop_
_symmetry_equiv_pos_site_id
_symmetry_equiv_pos_as_xyz
1 x,y,z
2 -x,-y,-z
_cell_length_a                   8.940(5)
_cell_length_b                   12.349(6)
_cell_length_c                   15.288(8)
_cell_angle_alpha                78.383(18)
_cell_angle_beta                 87.636(18)
_cell_angle_gamma                87.59(2)
_cell_volume                     1650.83
loop_
_atom_site_label
_atom_site_type_symbol
_atom_site_fract_x
_atom_site_fract_y
_atom_site_fract_z
Zn1 Zn 0.31269(7) -0.60213(6) 0.48966(4)
Fe1 Fe -0.17062(10) -0.78668(7) 0.36184(6)
O1 O 0.1227(5) -0.6937(4) 0.5080(3)
O2 O 0.2479(5) -0.7581(4) 0.4002(3)
O3 O -0.2618(5) -0.5065(4) 0.4306(3)
O4 O -0.4865(5) -0.5775(4) 0.4223(3)
O5 O 0.2260(5) -0.2310(4) 0.0965(3)
O6 O -0.2267(5) -0.3651(4) 0.2088(3)
O7 O -0.1313(5) 0.1006(4) -0.2720(3)
O8 O -0.5868(5) -0.0162(4) -0.1505(3)
N1 N 0.2144(6) -0.4944(4) 0.3748(3)
N2 N 0.0000(6) -0.2967(4) 0.1552(3)
N3 N -0.3600(5) 0.0461(4) -0.2082(3)
N4 N -0.5739(6) 0.2741(4) -0.4120(3)
C1 C 0.1330(7) -0.7558(5) 0.4506(4)
C2 C -0.3482(7) -0.5713(5) 0.4033(4)
C3 C 0.0056(7) -0.8271(5) 0.4462(4)
C4 C -0.1311(7) -0.8324(5) 0.4964(4)
C5 C -0.2209(8) -0.9112(6) 0.4690(5)
C6 C -0.1385(8) -0.9556(6) 0.4006(5)
C7 C 0.0009(8) -0.9043(5) 0.3862(5)
C8 C -0.2884(7) -0.6360(5) 0.3368(4)
C9 C -0.3677(7) -0.7190(5) 0.3067(4)
C10 C -0.2750(9) -0.7606(6) 0.2427(5)
C11 C -0.1374(9) -0.7046(6) 0.2342(5)
C12 C -0.1459(7) -0.6288(6) 0.2932(4)
C13 C 0.2514(7) -0.5061(5) 0.2909(4)
C14 C 0.1822(7) -0.4438(6) 0.2171(4)
C15 C 0.0725(7) -0.3643(5) 0.2310(4)
C16 C 0.0357(7) -0.3525(5) 0.3159(4)
C17 C 0.1069(6) -0.4203(5) 0.3869(4)
C18 C 0.0904(7) -0.2323(5) 0.0889(4)
C19 C 0.0139(6) -0.1646(5) 0.0097(4)
C20 C 0.0976(6) -0.1022(5) -0.0590(4)
C21 C 0.0250(7) -0.0365(5) -0.1318(4)
C22 C -0.1270(7) -0.0318(5) -0.1349(4)
C23 C -0.2017(7) 0.0440(5) -0.2109(4)
C24 C -0.2309(7) -0.2272(5) 0.0758(4)
C25 C -0.4504(7) -0.0208(5) -0.1437(4)
C26 C -0.3754(7) -0.0928(5) -0.0691(4)
C27 C -0.4576(7) -0.1565(5) -0.0015(4)
C28 C -0.3845(7) -0.2255(6) 0.0703(4)
C29 C -0.1428(7) -0.1624(5) 0.0068(4)
C30 C -0.2167(7) -0.0940(5) -0.0660(4)
C31 C -0.1603(7) -0.3026(5) 0.1522(4)
C32 C -0.4323(7) 0.1241(5) -0.2795(4)
C33 C -0.4198(7) 0.2342(6) -0.2847(4)
C34 C -0.4936(7) 0.3071(5) -0.3523(4)
C35 C -0.5797(8) 0.1660(5) -0.4086(5)
C36 C -0.5105(7) 0.0857(6) -0.3438(4)
H1 H -0.1597 -0.7885 0.5424
H2 H -0.3227 -0.9318 0.4927
H3 H -0.1734 -1.0120 0.3691
H4 H 0.0812 -0.9183 0.3430
H5 H -0.4697 -0.7433 0.3271
H6 H -0.3010 -0.8182 0.2098
H7 H -0.0511 -0.7160 0.1940
H8 H -0.0662 -0.5787 0.3015
H9 H 0.3269 -0.5585 0.2821
H10 H 0.2084 -0.4545 0.1592
H11 H -0.0372 -0.2991 0.3265
H12 H 0.0783 -0.4136 0.4454
H13 H 0.2027 -0.1038 -0.0569
H14 H 0.0821 0.0048 -0.1790
H15 H -0.5627 -0.1542 -0.0030
H16 H -0.4415 -0.2709 0.1151
H17 H -0.3629 0.2608 -0.2436
H18 H -0.4856 0.3835 -0.3556
H19 H -0.6335 0.1422 -0.4524
H20 H -0.5162 0.0097 -0.3434
Zn1_2 Zn -0.68731(7) 0.39787(6) -0.51034(4)
Zn1A Zn -0.31269(7) -0.39787(6) 0.51034(4)
Zn1_3 Zn -0.68731(7) -0.60213(6) 0.48966(4)
O3A O 0.2618(5) -0.4935(4) 0.5694(3)
O4_2 O 0.5135(5) -0.5775(4) 0.4223(3)
N4_2 N 0.4261(6) -0.7259(4) 0.5880(3)
loop_
_geom_bond_atom_site_label_1
_geom_bond_atom_site_label_2
_geom_bond_site_symmetry_1
_geom_bond_site_symmetry_2
Zn1 O1 1_555 1_555
Fe1 C3 1_555 1_555
O1 C1 1_555 1_555
O2 Zn1 1_555 1_555
O3 C2 1_555 1_555
O4 C2 1_555 1_555
O5 C18 1_555 1_555
O6 C31 1_555 1_555
O7 C23 1_555 1_555
O8 C25 1_555 1_555
N1 Zn1 1_555 1_555
N2 C15 1_555 1_555
N3 C23 1_555 1_555
N4 C34 1_555 1_555
C1 O2 1_555 1_555
C2 C8 1_555 1_555
C3 C1 1_555 1_555
C4 Fe1 1_555 1_555
C5 Fe1 1_555 1_555
C6 Fe1 1_555 1_555
C7 Fe1 1_555 1_555
C8 Fe1 1_555 1_555
C9 Fe1 1_555 1_555
C10 Fe1 1_555 1_555
C11 Fe1 1_555 1_555
C12 Fe1 1_555 1_555
C13 N1 1_555 1_555
C14 C13 1_555 1_555
C15 C14 1_555 1_555
C16 C15 1_555 1_555
C17 N1 1_555 1_555
C18 N2 1_555 1_555
C19 C18 1_555 1_555
C20 C19 1_555 1_555
C21 C20 1_555 1_555
C22 C21 1_555 1_555
C23 C22 1_555 1_555
C24 C28 1_555 1_555
C25 N3 1_555 1_555
C26 C25 1_555 1_555
C27 C26 1_555 1_555
C28 C27 1_555 1_555
C29 C19 1_555 1_555
C30 C22 1_555 1_555
C31 N2 1_555 1_555
C32 N3 1_555 1_555
C33 C32 1_555 1_555
C34 C33 1_555 1_555
C35 N4 1_555 1_555
C36 C32 1_555 1_555
H1 C4 1_555 1_555
H2 C5 1_555 1_555
H3 C6 1_555 1_555
H4 C7 1_555 1_555
H5 C9 1_555 1_555
H6 C10 1_555 1_555
H7 C11 1_555 1_555
H8 C12 1_555 1_555
H9 C13 1_555 1_555
H10 C14 1_555 1_555
H11 C16 1_555 1_555
H12 C17 1_555 1_555
H13 C20 1_555 1_555
H14 C21 1_555 1_555
H15 C27 1_555 1_555
H16 C28 1_555 1_555
H17 C33 1_555 1_555
H18 C34 1_555 1_555
H19 C35 1_555 1_555
H20 C36 1_555 1_555
Zn1_2 N4 1_555 1_555
Zn1A O3 1_555 1_555
Zn1_3 O4 1_555 1_555
O3A Zn1 1_555 1_555
O4_2 Zn1 1_555 1_555
N4_2 Zn1 1_555 1_555
C3 C4 1_555 1_555
C3 C7 1_555 1_555
C4 C5 1_555 1_555
C5 C6 1_555 1_555
C6 C7 1_555 1_555
C8 C9 1_555 1_555
C8 C12 1_555 1_555
C9 C10 1_555 1_555
C10 C11 1_555 1_555
C11 C12 1_555 1_555
C16 C17 1_555 1_555
C24 C29 1_555 1_555
C24 C31 1_555 1_555
C26 C30 1_555 1_555
C29 C30 1_555 1_555
C35 C36 1_555 1_555

#END
