
#######################################################################
#
#                 Cambridge Crystallographic Data Centre
#                                CCDC 
#
#######################################################################
#
# If this CIF has been generated from an entry in the Cambridge 
# Structural Database, then it will include bibliographic, chemical, 
# crystal, experimental, refinement or atomic coordinate data resulting 
# from the CCDC's data processing and validation procedures.
#
#######################################################################

data_CAVRUO
_symmetry_cell_setting           monoclinic
_symmetry_space_group_name_H-M   'P 21/c'
_symmetry_Int_Tables_number      14
_space_group_name_Hall           '-P 2ybc'
loop_
_symmetry_equiv_pos_site_id
_symmetry_equiv_pos_as_xyz
1 x,y,z
2 -x,1/2+y,1/2-z
3 -x,-y,-z
4 x,1/2-y,1/2+z
_cell_length_a                   11.4211(3)
_cell_length_b                   8.5517(2)
_cell_length_c                   13.4463(3)
_cell_angle_alpha                90
_cell_angle_beta                 93.083(2)
_cell_angle_gamma                90
_cell_volume                     1311.4
loop_
_atom_site_label
_atom_site_type_symbol
_atom_site_fract_x
_atom_site_fract_y
_atom_site_fract_z
Co1 Co 1.0000 0.0000 0.5000
O1 O 1.00481(15) 0.0376(2) 0.65705(13)
H1 H 0.9340(16) 0.018(4) 0.671(3)
H2 H 1.050(2) -0.022(4) 0.689(2)
O5 O 0.60033(14) 0.28353(18) 0.68966(11)
O6 O 0.81705(13) 0.06325(19) 0.49083(11)
O7 O 0.77688(15) 0.0108(2) 0.64899(13)
N1 N 0.53947(17) 0.0688(2) 0.77121(14)
H7 H 0.5154 -0.0286 0.7646
N2 N 0.83594(18) -0.0602(2) 0.97197(15)
N3 N 0.94130(17) -0.2682(2) 1.01438(15)
C1 C 0.53259(18) 0.0661(2) 0.59236(15)
C2 C 0.61887(19) 0.0200(2) 0.52863(16)
C3 C 0.41496(18) 0.0467(3) 0.56319(16)
H8 H 0.3566 0.0793 0.6065
C4 C 0.56218(18) 0.1479(3) 0.68957(16)
C5 C 0.5521(2) 0.1344(3) 0.87150(17)
H9 H 0.5839 0.2419 0.8679
H10 H 0.4740 0.1409 0.8998
C6 C 0.6335(2) 0.0359(3) 0.94026(18)
H11 H 0.6079 -0.0746 0.9368
H12 H 0.6276 0.0720 1.0098
C7 C 0.7602(2) 0.0466(3) 0.91232(18)
H13 H 0.7884 0.1551 0.9225
H14 H 0.7650 0.0208 0.8409
C8 C 0.8758(2) -0.1995(3) 0.94239(18)
H15 H 0.8593 -0.2432 0.8782
C9 C 0.9416(2) -0.1674(3) 1.09418(18)
H16 H 0.9808 -0.1852 1.1573
C10 C 0.8772(2) -0.0384(3) 1.0688(2)
H17 H 0.8635 0.0494 1.1099
C11 C 0.74786(19) 0.0333(3) 0.55886(16)
Co1A Co 1.0000 -0.5000 1.0000
Co1_2 Co 0.0000 0.0000 0.5000
Co1A_2 Co 0.0000 0.5000 0.0000
O1B O 0.99519(15) -0.0376(2) 0.34295(13)
H1B H 1.0660(16) -0.018(4) 0.329(3)
H2B H 0.950(2) 0.022(4) 0.311(2)
O5B O 0.39967(14) -0.28353(18) 0.31034(11)
O6B O 0.18295(13) -0.06325(19) 0.50917(11)
O6B_2 O 1.18295(13) -0.06325(19) 0.50917(11)
O7B O 0.22312(15) -0.0108(2) 0.35101(13)
N1B N 0.46053(17) -0.0688(2) 0.22879(14)
H7B H 0.4846 0.0286 0.2354
N2B N 0.16406(18) 0.0602(2) 0.02803(15)
N3B N 0.05870(17) 0.2682(2) -0.01438(15)
N3C N 0.94130(17) -0.2318(2) 0.51438(15)
N3A N 1.05870(17) 0.2318(2) 0.48562(15)
C1B C 0.46741(18) -0.0661(2) 0.40764(15)
C2B C 0.38113(19) -0.0200(2) 0.47137(16)
C3B C 0.58504(18) -0.0467(3) 0.43681(16)
H8B H 0.6434 -0.0793 0.3935
C4B C 0.43782(18) -0.1479(3) 0.31043(16)
C5B C 0.4479(2) -0.1344(3) 0.12850(17)
H9B H 0.4161 -0.2419 0.1321
H10B H 0.5260 -0.1409 0.1002
C6B C 0.3665(2) -0.0359(3) 0.05974(18)
H11B H 0.3921 0.0746 0.0632
H12B H 0.3724 -0.0720 -0.0098
C7B C 0.2398(2) -0.0466(3) 0.08768(18)
H13B H 0.2116 -0.1551 0.0775
H14B H 0.2350 -0.0208 0.1591
C8B C 0.1242(2) 0.1995(3) 0.05761(18)
H15B H 0.1407 0.2432 0.1218
C9B C 0.0584(2) 0.1674(3) -0.09418(18)
H16B H 0.0192 0.1852 -0.1573
C10B C 0.1228(2) 0.0384(3) -0.0688(2)
H17B H 0.1365 -0.0494 -0.1099
C11B C 0.25214(19) -0.0333(3) 0.44114(16)
O2 O 0.20358(19) -0.4089(3) 0.21735(16)
H3 H 0.210(4) -0.406(5) 0.1564(14)
H4 H 0.247(3) -0.342(4) 0.247(3)
O4 O 0.3016(2) 0.2596(3) 0.25391(18)
H5 H 0.273(4) 0.177(3) 0.290(3)
H6 H 0.258(3) 0.339(3) 0.280(3)
O3? O 0.1430(14) -0.3019(19) 0.2689(12)
loop_
_geom_bond_atom_site_label_1
_geom_bond_atom_site_label_2
_geom_bond_site_symmetry_1
_geom_bond_site_symmetry_2
Co1 O1 1_555 1_555
O1 H1 1_555 1_555
H2 O1 1_555 1_555
O2 H3 1_555 1_555
H4 O2 1_555 1_555
O4 H5 1_555 1_555
H6 O4 1_555 1_555
O5 C4 1_555 1_555
O6 Co1 1_555 1_555
O7 C11 1_555 1_555
N1 H7 1_555 1_555
N2 C7 1_555 1_555
N3 C8 1_555 1_555
C1 C2 1_555 1_555
C2 C11 1_555 1_555
C3 C1 1_555 1_555
H8 C3 1_555 1_555
C4 N1 1_555 1_555
C5 N1 1_555 1_555
H9 C5 1_555 1_555
H10 C5 1_555 1_555
C6 C5 1_555 1_555
H11 C6 1_555 1_555
H12 C6 1_555 1_555
C7 C6 1_555 1_555
H13 C7 1_555 1_555
H14 C7 1_555 1_555
C8 N2 1_555 1_555
H15 C8 1_555 1_555
C9 N3 1_555 1_555
H16 C9 1_555 1_555
C10 N2 1_555 1_555
H17 C10 1_555 1_555
C11 O6 1_555 1_555
Co1A N3 1_555 1_555
Co1_2 O6B 1_555 1_555
Co1A_2 N3B 1_555 1_555
O1B Co1 1_555 1_555
H1B O1B 1_555 1_555
H2B O1B 1_555 1_555
O5B C4B 1_555 1_555
O6B C11B 1_555 1_555
O6B_2 Co1 1_555 1_555
O7B C11B 1_555 1_555
N1B H7B 1_555 1_555
N2B C7B 1_555 1_555
N3B C8B 1_555 1_555
N3C Co1 1_555 1_555
N3A Co1 1_555 1_555
C1B C2B 1_555 1_555
C2B C3 1_555 1_555
C3B C2 1_555 1_555
H8B C3B 1_555 1_555
C4B N1B 1_555 1_555
C5B N1B 1_555 1_555
H9B C5B 1_555 1_555
H10B C5B 1_555 1_555
C6B C5B 1_555 1_555
H11B C6B 1_555 1_555
H12B C6B 1_555 1_555
C7B C6B 1_555 1_555
H13B C7B 1_555 1_555
H14B C7B 1_555 1_555
C8B N2B 1_555 1_555
H15B C8B 1_555 1_555
C9B N3B 1_555 1_555
H16B C9B 1_555 1_555
C10B N2B 1_555 1_555
H17B C10B 1_555 1_555
C11B C2B 1_555 1_555
C1 C4 1_555 1_555
C9 C10 1_555 1_555
C1B C3B 1_555 1_555
C1B C4B 1_555 1_555
C9B C10B 1_555 1_555

#END
