
#######################################################################
#
#                 Cambridge Crystallographic Data Centre
#                                CCDC 
#
#######################################################################
#
# If this CIF has been generated from an entry in the Cambridge 
# Structural Database, then it will include bibliographic, chemical, 
# crystal, experimental, refinement or atomic coordinate data resulting 
# from the CCDC's data processing and validation procedures.
#
#######################################################################

data_CAVTOK
_symmetry_cell_setting           monoclinic
_symmetry_space_group_name_H-M   'P 21/n'
_symmetry_Int_Tables_number      14
_space_group_name_Hall           '-P 2yn'
loop_
_symmetry_equiv_pos_site_id
_symmetry_equiv_pos_as_xyz
1 x,y,z
2 1/2-x,1/2+y,1/2-z
3 -x,-y,-z
4 1/2+x,1/2-y,1/2+z
_cell_length_a                   10.562(2)
_cell_length_b                   10.559(2)
_cell_length_c                   13.894(3)
_cell_angle_alpha                90
_cell_angle_beta                 95.28(3)
_cell_angle_gamma                90
_cell_volume                     1542.94
loop_
_atom_site_label
_atom_site_type_symbol
_atom_site_fract_x
_atom_site_fract_y
_atom_site_fract_z
Sr1 Sr 0.49539(3) 0.71067(2) 0.74856(3)
N1 N 0.8384(2) 0.4000(2) 0.74520(17)
N2 N 0.4550(2) 0.7345(3) 0.55929(19)
N3 N 0.3535(3) 0.7281(3) 0.4145(2)
N4 N 0.3285(2) 0.5283(2) 0.72365(18)
N5 N 0.1778(2) 0.3753(2) 0.71324(18)
C1 C 0.3710(3) 0.4255(3) 0.6763(2)
N6 N 0.6864(2) 0.5513(2) 0.74548(18)
N7 N 0.5292(2) 0.6932(3) 0.93946(19)
C2 C 0.8576(3) 0.4894(3) 0.6765(2)
C3 C 0.4811(3) 0.7740(4) 1.0048(3)
C4 C 0.2122(3) 0.4915(3) 0.7422(2)
C5 C 0.4320(3) 0.8280(4) 0.4149(3)
C6 C 0.4944(3) 0.8315(3) 0.5034(3)
C7 C 0.7345(3) 0.4430(3) 0.7834(2)
C8 C 0.3699(3) 0.6742(3) 0.5017(3)
N8 N 0.6071(3) 0.6465(4) 1.0858(2)
C9 C 0.5289(4) 0.7452(4) 1.0945(3)
C10 C 0.6057(4) 0.6191(4) 0.9927(3)
C11 C 0.2811(3) 0.3347(3) 0.6702(2)
C12 C 0.7665(3) 0.5787(3) 0.6760(2)
H1 H 0.326(2) 0.604(3) 0.5168(19)
H2 H 0.755(2) 0.650(3) 0.6346(19)
H3 H 0.283(3) 0.259(3) 0.641(2)
H4 H 0.164(2) 0.542(2) 0.7778(17)
H5 H 0.547(2) 0.886(2) 0.5255(19)
H6 H 0.425(3) 0.836(3) 0.988(2)
H7 H 0.922(2) 0.483(2) 0.6345(17)
H8 H 0.519(3) 0.783(3) 1.149(2)
H9 H 0.303(3) 0.705(3) 0.372(2)
H10 H 0.441(3) 0.423(3) 0.6536(19)
H11 H 0.697(2) 0.404(2) 0.8357(18)
H12 H 0.637(3) 0.548(3) 0.965(2)
H13 H 0.437(3) 0.882(3) 0.3655(19)
H14 H 0.644(3) 0.610(3) 1.126(2)
Sr1A Sr 1.00461(3) 0.21067(2) 0.75144(3)
Sr1A_2 Sr 0.00461(3) 0.21067(2) 0.75144(3)
N1A N 0.6616(2) 0.9000(2) 0.75480(17)
N5A N 0.3222(2) 0.8753(2) 0.78676(18)
loop_
_geom_bond_atom_site_label_1
_geom_bond_atom_site_label_2
_geom_bond_site_symmetry_1
_geom_bond_site_symmetry_2
Sr1 N2 1_555 1_555
N1 C2 1_555 1_555
N2 C6 1_555 1_555
N3 C5 1_555 1_555
N4 Sr1 1_555 1_555
N5 C4 1_555 1_555
C1 N4 1_555 1_555
N6 Sr1 1_555 1_555
N7 Sr1 1_555 1_555
C2 C12 1_555 1_555
C3 N7 1_555 1_555
C4 N4 1_555 1_555
C5 C6 1_555 1_555
C6 H5 1_555 1_555
C7 N1 1_555 1_555
C8 N2 1_555 1_555
N8 C9 1_555 1_555
C9 C3 1_555 1_555
C10 N7 1_555 1_555
C11 N5 1_555 1_555
C12 N6 1_555 1_555
H1 C8 1_555 1_555
H2 C12 1_555 1_555
H3 C11 1_555 1_555
H4 C4 1_555 1_555
H6 C3 1_555 1_555
H7 C2 1_555 1_555
H8 C9 1_555 1_555
H9 N3 1_555 1_555
H10 C1 1_555 1_555
H11 C7 1_555 1_555
H12 C10 1_555 1_555
H13 C5 1_555 1_555
H14 N8 1_555 1_555
Sr1A N1 1_555 1_555
Sr1A_2 N5 1_555 1_555
N1A Sr1 1_555 1_555
N5A Sr1 1_555 1_555
N3 C8 1_555 1_555
C1 C11 1_555 1_555
N6 C7 1_555 1_555
N8 C10 1_555 1_555

#END
