
#######################################################################
#
#                 Cambridge Crystallographic Data Centre
#                                CCDC 
#
#######################################################################
#
# If this CIF has been generated from an entry in the Cambridge 
# Structural Database, then it will include bibliographic, chemical, 
# crystal, experimental, refinement or atomic coordinate data resulting 
# from the CCDC's data processing and validation procedures.
#
#######################################################################

data_CAWCUA
_symmetry_cell_setting           monoclinic
_symmetry_space_group_name_H-M   'P 21/c'
_symmetry_Int_Tables_number      14
_space_group_name_Hall           '-P 2ybc'
loop_
_symmetry_equiv_pos_site_id
_symmetry_equiv_pos_as_xyz
1 x,y,z
2 -x,1/2+y,1/2-z
3 -x,-y,-z
4 x,1/2-y,1/2+z
_cell_length_a                   6.414(4)
_cell_length_b                   35.60(2)
_cell_length_c                   16.205(10)
_cell_angle_alpha                90
_cell_angle_beta                 90.463(7)
_cell_angle_gamma                90
_cell_volume                     3700.1
loop_
_atom_site_label
_atom_site_type_symbol
_atom_site_fract_x
_atom_site_fract_y
_atom_site_fract_z
Ba1 Ba 0.73479(18) 0.23704(3) 0.79545(7)
S1 S 1.2119(7) 0.29602(13) 0.7007(3)
S2 S 0.2572(8) 0.17590(12) 0.7124(3)
O1 O 1.0056(19) 0.2897(3) 0.7314(8)
O2 O 1.2325(18) 0.2879(4) 0.6144(7)
O4 O 1.3717(19) 0.2778(3) 0.7524(8)
O5 O 1.096(2) 0.2435(3) 0.8898(8)
H3 H 1.02(2) 0.262(3) 0.911(11)
H4 H 1.19(2) 0.257(4) 0.866(11)
O6 O 0.725(2) 0.3082(3) 0.8593(8)
O7 O 0.544(2) 0.2305(4) 0.9513(8)
H5 H 0.409(6) 0.228(6) 0.958(11)
H6 H 0.58(3) 0.239(6) 1.001(5)
O8 O 0.4278(19) 0.1849(3) 0.7688(7)
O10 O 0.3140(19) 0.1834(3) 0.6277(7)
O11 O 0.0642(19) 0.1928(3) 0.7323(7)
O12 O 0.776(2) 0.1663(3) 0.8637(8)
N1 N 0.954(2) 0.3589(4) 0.7900(10)
H9 H 0.9268 0.3349 0.7975
N2 N 0.833(2) 0.3841(4) 0.8222(10)
N3 N 0.544(2) 0.1154(4) 0.7957(9)
H10 H 0.5622 0.1396 0.8038
N4 N 0.677(2) 0.0906(4) 0.8244(9)
C1 C 1.253(3) 0.3438(6) 0.7074(12)
C2 C 1.443(3) 0.3599(5) 0.6657(11)
C3 C 1.474(3) 0.3990(5) 0.6617(10)
C4 C 1.330(3) 0.4231(5) 0.7001(12)
H11 H 1.3529 0.4494 0.6984
C5 C 1.162(3) 0.4098(5) 0.7389(12)
H12 H 1.0653 0.4265 0.7635
C6 C 1.129(3) 0.3696(5) 0.7431(13)
C7 C 1.598(3) 0.3361(6) 0.6312(12)
H13 H 1.5813 0.3097 0.6342
C8 C 1.766(3) 0.3500(5) 0.5949(10)
H14 H 1.8642 0.3335 0.5706
C9 C 1.800(3) 0.3892(5) 0.5921(12)
H15 H 1.9239 0.3989 0.5687
C10 C 1.655(3) 0.4130(6) 0.6227(12)
H16 H 1.6744 0.4393 0.6180
C11 C 0.661(3) 0.3729(5) 0.8650(12)
C12 C 0.611(3) 0.3340(5) 0.8820(10)
C13 C 0.417(3) 0.3274(5) 0.9250(11)
H17 H 0.3780 0.3024 0.9380
C14 C 0.295(3) 0.3552(6) 0.9466(11)
H18 H 0.1663 0.3494 0.9720
C15 C 0.349(3) 0.3948(5) 0.9331(11)
C16 C 0.532(3) 0.4037(5) 0.8905(11)
C17 C 0.213(3) 0.4225(5) 0.9586(13)
H19 H 0.0823 0.4156 0.9817
C18 C 0.264(3) 0.4598(6) 0.9507(13)
H20 H 0.1767 0.4789 0.9720
C19 C 0.452(3) 0.4690(5) 0.9099(13)
H21 H 0.4903 0.4945 0.9018
C20 C 0.576(3) 0.4413(5) 0.8827(10)
H22 H 0.7019 0.4481 0.8564
C21 C 0.228(3) 0.1259(5) 0.7155(11)
C22 C 0.048(3) 0.1107(5) 0.6716(11)
C23 C 0.023(3) 0.0712(5) 0.6678(11)
C24 C 0.182(3) 0.0478(5) 0.7038(12)
H23 H 0.1696 0.0213 0.6996
C25 C 0.347(3) 0.0627(5) 0.7434(12)
H24 H 0.4501 0.0466 0.7667
C26 C 0.369(3) 0.1011(5) 0.7506(12)
C27 C -0.106(3) 0.1328(5) 0.6337(11)
H25 H -0.0942 0.1594 0.6341
C28 C -0.274(3) 0.1158(5) 0.5959(12)
H26 H -0.3784 0.1311 0.5708
C29 C -0.297(3) 0.0769(5) 0.5934(12)
H27 H -0.4128 0.0657 0.5658
C30 C -0.151(3) 0.0554(5) 0.6310(11)
H28 H -0.1689 0.0289 0.6322
C31 C 0.844(3) 0.1019(5) 0.8665(12)
C32 C 0.896(3) 0.1405(5) 0.8848(12)
C33 C 1.098(3) 0.1484(5) 0.9248(10)
H29 H 1.1385 0.1736 0.9354
C34 C 1.221(3) 0.1206(5) 0.9457(11)
H30 H 1.3489 0.1268 0.9723
C35 C 1.177(3) 0.0810(5) 0.9316(11)
C36 C 0.989(3) 0.0712(5) 0.8918(13)
C37 C 1.320(3) 0.0525(5) 0.9527(12)
H31 H 1.4497 0.0588 0.9775
C38 C 1.270(3) 0.0156(6) 0.9376(12)
H32 H 1.3675 -0.0036 0.9513
C39 C 1.073(3) 0.0059(6) 0.9011(12)
H33 H 1.0375 -0.0197 0.8920
C40 C 0.937(3) 0.0334(5) 0.8798(11)
H34 H 0.8055 0.0270 0.8564
Ba1_2 Ba 1.73479(18) 0.23704(3) 0.79545(7)
Ba1_3 Ba -0.26521(18) 0.23704(3) 0.79545(7)
O4_2 O 0.3717(19) 0.2778(3) 0.7524(8)
O11_2 O 1.0642(19) 0.1928(3) 0.7323(7)
O3 O 0.6641(17) 0.2332(4) 0.6222(7)
H1 H 0.538(11) 0.224(5) 0.618(9)
H2 H 0.71(2) 0.227(5) 0.572(5)
O9 O 1.0406(19) 0.2272(3) 0.5421(8)
H7 H 1.07(3) 0.2512(11) 0.550(11)
H8 H 1.14(2) 0.218(4) 0.575(10)
loop_
_geom_bond_atom_site_label_1
_geom_bond_atom_site_label_2
_geom_bond_site_symmetry_1
_geom_bond_site_symmetry_2
Ba1 O1 1_555 1_555
S1 O1 1_555 1_555
S2 O8 1_555 1_555
O2 S1 1_555 1_555
O3 H1 1_555 1_555
H2 O3 1_555 1_555
O4 S1 1_555 1_555
O5 Ba1 1_555 1_555
H3 O5 1_555 1_555
H4 O5 1_555 1_555
O6 Ba1 1_555 1_555
O7 Ba1 1_555 1_555
H5 O7 1_555 1_555
H6 O7 1_555 1_555
O8 Ba1 1_555 1_555
O9 H7 1_555 1_555
H8 O9 1_555 1_555
O10 S2 1_555 1_555
O11 S2 1_555 1_555
O12 Ba1 1_555 1_555
N1 H9 1_555 1_555
N2 N1 1_555 1_555
N3 H10 1_555 1_555
N4 N3 1_555 1_555
C1 S1 1_555 1_555
C2 C1 1_555 1_555
C3 C2 1_555 1_555
C4 C3 1_555 1_555
H11 C4 1_555 1_555
C5 C4 1_555 1_555
H12 C5 1_555 1_555
C6 N1 1_555 1_555
C7 C2 1_555 1_555
H13 C7 1_555 1_555
C8 C7 1_555 1_555
H14 C8 1_555 1_555
C9 C8 1_555 1_555
H15 C9 1_555 1_555
C10 C3 1_555 1_555
H16 C10 1_555 1_555
C11 N2 1_555 1_555
C12 O6 1_555 1_555
C13 C12 1_555 1_555
H17 C13 1_555 1_555
C14 C13 1_555 1_555
H18 C14 1_555 1_555
C15 C14 1_555 1_555
C16 C11 1_555 1_555
C17 C15 1_555 1_555
H19 C17 1_555 1_555
C18 C17 1_555 1_555
H20 C18 1_555 1_555
C19 C18 1_555 1_555
H21 C19 1_555 1_555
C20 C16 1_555 1_555
H22 C20 1_555 1_555
C21 S2 1_555 1_555
C22 C21 1_555 1_555
C23 C22 1_555 1_555
C24 C23 1_555 1_555
H23 C24 1_555 1_555
C25 C24 1_555 1_555
H24 C25 1_555 1_555
C26 N3 1_555 1_555
C27 C22 1_555 1_555
H25 C27 1_555 1_555
C28 C27 1_555 1_555
H26 C28 1_555 1_555
C29 C28 1_555 1_555
H27 C29 1_555 1_555
C30 C23 1_555 1_555
H28 C30 1_555 1_555
C31 N4 1_555 1_555
C32 O12 1_555 1_555
C33 C32 1_555 1_555
H29 C33 1_555 1_555
C34 C33 1_555 1_555
H30 C34 1_555 1_555
C35 C34 1_555 1_555
C36 C31 1_555 1_555
C37 C35 1_555 1_555
H31 C37 1_555 1_555
C38 C37 1_555 1_555
H32 C38 1_555 1_555
C39 C38 1_555 1_555
H33 C39 1_555 1_555
C40 C36 1_555 1_555
H34 C40 1_555 1_555
Ba1_2 O4 1_555 1_555
Ba1_3 O11 1_555 1_555
O4_2 Ba1 1_555 1_555
O11_2 Ba1 1_555 1_555
C1 C6 1_555 1_555
C5 C6 1_555 1_555
C9 C10 1_555 1_555
C11 C12 1_555 1_555
C15 C16 1_555 1_555
C19 C20 1_555 1_555
C21 C26 1_555 1_555
C25 C26 1_555 1_555
C29 C30 1_555 1_555
C31 C32 1_555 1_555
C35 C36 1_555 1_555
C39 C40 1_555 1_555

#END
