
#######################################################################
#
#                 Cambridge Crystallographic Data Centre
#                                CCDC 
#
#######################################################################
#
# If this CIF has been generated from an entry in the Cambridge 
# Structural Database, then it will include bibliographic, chemical, 
# crystal, experimental, refinement or atomic coordinate data resulting 
# from the CCDC's data processing and validation procedures.
#
#######################################################################

data_CAWDAH
_symmetry_cell_setting           monoclinic
_symmetry_space_group_name_H-M   'P 21/n'
_symmetry_Int_Tables_number      14
_space_group_name_Hall           '-P 2yn'
loop_
_symmetry_equiv_pos_site_id
_symmetry_equiv_pos_as_xyz
1 x,y,z
2 1/2-x,1/2+y,1/2-z
3 -x,-y,-z
4 1/2+x,1/2-y,1/2+z
_cell_length_a                   10.9574(11)
_cell_length_b                   6.6139(7)
_cell_length_c                   29.664(3)
_cell_angle_alpha                90
_cell_angle_beta                 97.846(3)
_cell_angle_gamma                90
_cell_volume                     2129.66
loop_
_atom_site_label
_atom_site_type_symbol
_atom_site_fract_x
_atom_site_fract_y
_atom_site_fract_z
Na1 Na -0.15025(13) -0.7293(2) 0.53747(5)
S1 S 0.03252(9) -0.76542(14) 0.44206(3)
N1 N 0.0188(3) -0.5491(5) 0.34668(11)
N2 N 0.0163(3) -0.4543(5) 0.30767(10)
N3 N -0.4865(3) -0.8818(6) 0.44638(11)
O1 O -0.0588(2) -0.7370(4) 0.47227(8)
O2 O 0.1163(2) -0.9316(4) 0.45515(9)
O3 O 0.0988(2) -0.5815(4) 0.43438(8)
O4 O 0.1631(2) -0.2639(4) 0.38334(8)
O5 O -0.3470(3) -0.7133(5) 0.49692(10)
C1 C -0.0530(3) -0.8356(6) 0.38814(12)
C2 C -0.0509(3) -0.7266(6) 0.34833(12)
C3 C -0.1195(3) -0.7956(6) 0.30693(13)
H1 H -0.1199 -0.7184 0.2799
C4 C -0.1839(3) -0.9695(6) 0.30583(13)
H2 H -0.2274 -1.0140 0.2777
C5 C -0.1887(3) -1.0878(6) 0.34515(13)
C6 C -0.1233(3) -1.0202(6) 0.38731(12)
C7 C -0.2538(3) -1.2726(6) 0.34335(14)
H3 H -0.2971 -1.3177 0.3152
C8 C -0.2552(4) -1.3878(6) 0.38171(14)
H4 H -0.2984 -1.5127 0.3801
C9 C -0.1926(3) -1.3203(6) 0.42339(14)
H5 H -0.1945 -1.3998 0.4500
C10 C -0.1287(3) -1.1416(6) 0.42643(13)
H6 H -0.0875 -1.0985 0.4551
C11 C 0.0780(3) -0.2818(6) 0.30555(12)
C12 C 0.1482(3) -0.1813(6) 0.34491(13)
C13 C 0.1979(3) 0.0160(6) 0.33771(13)
H7 H 0.2396 0.0877 0.3630
C14 C 0.1870(3) 0.1015(6) 0.29621(13)
H8 H 0.2221 0.2312 0.2930
C15 C 0.1237(3) 0.0025(6) 0.25631(13)
C16 C 0.0687(3) -0.1883(6) 0.26039(13)
C17 C 0.1155(4) 0.0956(6) 0.21347(13)
H9 H 0.1524 0.2242 0.2107
C18 C 0.0544(4) 0.0021(7) 0.17539(14)
H10 H 0.0492 0.0658 0.1465
C19 C 0.0004(4) -0.1858(7) 0.17950(14)
H11 H -0.0414 -0.2505 0.1532
C20 C 0.0069(3) -0.2793(6) 0.22124(13)
H12 H -0.0311 -0.4073 0.2235
C21 C -0.3762(4) -0.8547(7) 0.47070(15)
H13 H -0.3148 -0.9530 0.4675
C22 C -0.5861(4) -0.7380(7) 0.44868(16)
H14 H -0.6576 -0.8086 0.4576
H15 H -0.6088 -0.6753 0.4188
H16 H -0.5588 -0.6332 0.4712
C23 C -0.5123(4) -1.0621(7) 0.41840(15)
H17 H -0.4385 -1.1471 0.4208
H18 H -0.5360 -1.0222 0.3866
H19 H -0.5798 -1.1380 0.4290
H20 H 0.060(4) -0.500(7) 0.3706(16)
Na1B Na 0.15025(13) -1.2707(2) 0.46253(5)
Na1B_2 Na 0.15025(13) -0.2707(2) 0.46253(5)
O2B O -0.1163(2) -1.0684(4) 0.54485(9)
O3B O -0.0988(2) -0.4185(4) 0.56562(8)
O4B O -0.1631(2) -0.7361(4) 0.61666(8)
loop_
_geom_bond_atom_site_label_1
_geom_bond_atom_site_label_2
_geom_bond_site_symmetry_1
_geom_bond_site_symmetry_2
Na1 O1 1_555 1_555
S1 O1 1_555 1_555
N1 N2 1_555 1_555
N2 C11 1_555 1_555
N3 C21 1_555 1_555
O2 S1 1_555 1_555
O3 S1 1_555 1_555
O4 C12 1_555 1_555
O5 Na1 1_555 1_555
C1 S1 1_555 1_555
C2 N1 1_555 1_555
C3 C2 1_555 1_555
H1 C3 1_555 1_555
C4 C3 1_555 1_555
H2 C4 1_555 1_555
C5 C4 1_555 1_555
C6 C1 1_555 1_555
C7 C5 1_555 1_555
H3 C7 1_555 1_555
C8 C7 1_555 1_555
H4 C8 1_555 1_555
C9 C8 1_555 1_555
H5 C9 1_555 1_555
C10 C6 1_555 1_555
H6 C10 1_555 1_555
C11 C12 1_555 1_555
C12 C13 1_555 1_555
C13 H7 1_555 1_555
C14 C13 1_555 1_555
H8 C14 1_555 1_555
C15 C14 1_555 1_555
C16 C11 1_555 1_555
C17 C15 1_555 1_555
H9 C17 1_555 1_555
C18 C17 1_555 1_555
H10 C18 1_555 1_555
C19 C18 1_555 1_555
H11 C19 1_555 1_555
C20 C16 1_555 1_555
H12 C20 1_555 1_555
C21 O5 1_555 1_555
H13 C21 1_555 1_555
C22 N3 1_555 1_555
H14 C22 1_555 1_555
H15 C22 1_555 1_555
H16 C22 1_555 1_555
C23 N3 1_555 1_555
H17 C23 1_555 1_555
H18 C23 1_555 1_555
H19 C23 1_555 1_555
H20 N1 1_555 1_555
Na1B O2 1_555 1_555
Na1B_2 O3 1_555 1_555
O2B Na1 1_555 1_555
O3B Na1 1_555 1_555
O4B Na1 1_555 1_555
O4 Na1B_2 1_555 1_555
C1 C2 1_555 1_555
C5 C6 1_555 1_555
C9 C10 1_555 1_555
C15 C16 1_555 1_555
C19 C20 1_555 1_555

#END
