
#######################################################################
#
#                 Cambridge Crystallographic Data Centre
#                                CCDC 
#
#######################################################################
#
# If this CIF has been generated from an entry in the Cambridge 
# Structural Database, then it will include bibliographic, chemical, 
# crystal, experimental, refinement or atomic coordinate data resulting 
# from the CCDC's data processing and validation procedures.
#
#######################################################################

data_CAWJIU
_symmetry_cell_setting           monoclinic
_symmetry_space_group_name_H-M   'P 21/c'
_symmetry_Int_Tables_number      14
_space_group_name_Hall           '-P 2ybc'
loop_
_symmetry_equiv_pos_site_id
_symmetry_equiv_pos_as_xyz
1 x,y,z
2 -x,1/2+y,1/2-z
3 -x,-y,-z
4 x,1/2-y,1/2+z
_cell_length_a                   9.5284(5)
_cell_length_b                   19.5335(11)
_cell_length_c                   8.6508(5)
_cell_angle_alpha                90
_cell_angle_beta                 90.5960(10)
_cell_angle_gamma                90
_cell_volume                     1610.03
loop_
_atom_site_label
_atom_site_type_symbol
_atom_site_fract_x
_atom_site_fract_y
_atom_site_fract_z
Zn1 Zn 0.07717(3) 0.532262(13) 0.14360(3)
C1 C 0.2047(2) 0.38707(11) 0.4732(2)
C2 C 0.3065(2) 0.33567(11) 0.4851(2)
C3 C 0.3145(2) 0.29621(12) 0.6197(3)
H1 H 0.3823 0.2607 0.6280
C4 C 0.2245(2) 0.30855(11) 0.7407(3)
H2 H 0.2317 0.2818 0.8321
C5 C 0.1228(2) 0.36004(11) 0.7302(2)
C6 C 0.1147(2) 0.39900(11) 0.5957(2)
H3 H 0.0466 0.4343 0.5875
C7 C 0.1949(2) 0.43086(12) 0.3309(2)
O1 O 0.27438(19) 0.41821(9) 0.21926(18)
O2 O 0.10646(17) 0.47879(8) 0.33291(18)
O3 O 0.39935(18) 0.32335(9) 0.37129(18)
H4 H 0.3808 0.3485 0.2951
N1 N 0.02977(19) 0.37689(9) 0.85281(19)
C8 C 0.0026(2) 0.33238(11) 0.9595(2)
H5 H 0.0439 0.2884 0.9483
C9 C -0.0848(2) 0.34273(12) 1.0949(2)
C10 C -0.1257(2) 0.40726(12) 1.1541(2)
C11 C -0.2002(2) 0.40836(13) 1.2935(3)
H6 H -0.2226 0.4511 1.3393
C12 C -0.2415(3) 0.34905(15) 1.3649(3)
H7 H -0.2932 0.3515 1.4580
C13 C -0.2086(3) 0.28544(14) 1.3027(3)
H8 H -0.2416 0.2446 1.3495
C14 C -0.1273(3) 0.28270(13) 1.1719(3)
H9 H -0.0992 0.2394 1.1329
O4 O -0.09474(17) 0.46656(8) 1.08419(17)
O5 O 0.26987(16) 0.58541(9) 0.17951(18)
S1 S 0.40088(6) 0.56214(3) 0.09709(7)
C15 C 0.4775(3) 0.63886(15) 0.0241(3)
H10 H 0.4173 0.6577 -0.0580
H11 H 0.5703 0.6286 -0.0176
H12 H 0.4868 0.6724 0.1080
C16 C 0.5256(3) 0.54388(15) 0.2470(4)
H13 H 0.5247 0.5808 0.3236
H14 H 0.6195 0.5402 0.2026
H15 H 0.5011 0.5006 0.2971
Zn1B Zn -0.07717(3) 0.467738(13) 0.85640(3)
Zn1_2 Zn 0.07717(3) 0.532262(13) 1.14360(3)
N1B N -0.02977(19) 0.62311(9) 0.14719(19)
O4_2 O -0.09474(17) 0.46656(8) 0.08419(17)
O4B O 0.09474(17) 0.53344(8) -0.08419(17)
loop_
_geom_bond_atom_site_label_1
_geom_bond_atom_site_label_2
_geom_bond_site_symmetry_1
_geom_bond_site_symmetry_2
Zn1 O2 1_555 1_555
C1 C2 1_555 1_555
C2 C3 1_555 1_555
C3 H1 1_555 1_555
C4 C3 1_555 1_555
H2 C4 1_555 1_555
C5 C4 1_555 1_555
C6 C1 1_555 1_555
H3 C6 1_555 1_555
C7 C1 1_555 1_555
O1 C7 1_555 1_555
O2 C7 1_555 1_555
O3 C2 1_555 1_555
H4 O3 1_555 1_555
N1 C5 1_555 1_555
C8 N1 1_555 1_555
H5 C8 1_555 1_555
C9 C8 1_555 1_555
C10 C9 1_555 1_555
C11 C10 1_555 1_555
H6 C11 1_555 1_555
C12 C11 1_555 1_555
H7 C12 1_555 1_555
C13 C12 1_555 1_555
H8 C13 1_555 1_555
C14 C9 1_555 1_555
H9 C14 1_555 1_555
O4 C10 1_555 1_555
O5 Zn1 1_555 1_555
S1 O5 1_555 1_555
C15 S1 1_555 1_555
H10 C15 1_555 1_555
H11 C15 1_555 1_555
H12 C15 1_555 1_555
C16 S1 1_555 1_555
H13 C16 1_555 1_555
H14 C16 1_555 1_555
H15 C16 1_555 1_555
Zn1B N1 1_555 1_555
Zn1_2 O4 1_555 1_555
N1B Zn1 1_555 1_555
O4_2 Zn1 1_555 1_555
O4B Zn1 1_555 1_555
C5 C6 1_555 1_555
C13 C14 1_555 1_555
O4 Zn1B 1_555 1_555

#END
