
#######################################################################
#
#                 Cambridge Crystallographic Data Centre
#                                CCDC 
#
#######################################################################
#
# If this CIF has been generated from an entry in the Cambridge 
# Structural Database, then it will include bibliographic, chemical, 
# crystal, experimental, refinement or atomic coordinate data resulting 
# from the CCDC's data processing and validation procedures.
#
#######################################################################

data_CAWJAN
_symmetry_cell_setting           monoclinic
_symmetry_space_group_name_H-M   'P 21/n'
_symmetry_Int_Tables_number      14
_space_group_name_Hall           '-P 2yn'
loop_
_symmetry_equiv_pos_site_id
_symmetry_equiv_pos_as_xyz
1 x,y,z
2 1/2-x,1/2+y,1/2-z
3 -x,-y,-z
4 1/2+x,1/2-y,1/2+z
_cell_length_a                   16.3252(13)
_cell_length_b                   6.7977(5)
_cell_length_c                   24.1637(19)
_cell_angle_alpha                90
_cell_angle_beta                 104.0090(10)
_cell_angle_gamma                90
_cell_volume                     2601.78
loop_
_atom_site_label
_atom_site_type_symbol
_atom_site_fract_x
_atom_site_fract_y
_atom_site_fract_z
Ba1 Ba 0.752180(9) 0.80992(2) 0.509174(7)
O1 O 0.86266(12) 1.1487(3) 0.56322(10)
O2 O 0.66408(12) 1.1560(3) 0.47297(10)
O3 O 0.77964(12) 0.4505(3) 0.45730(9)
H1 H 0.8274 0.3853 0.4665
H2 H 0.7400 0.3687 0.4595
O4 O 0.73393(13) 0.4550(3) 0.57623(10)
H3 H 0.7700 0.3687 0.5726
H4 H 0.6871 0.4006 0.5606
N1 N 1.08792(15) 1.3307(4) 0.41655(11)
N2 N 1.08552(14) 1.2094(3) 0.52471(10)
N3 N 0.93658(14) 1.2550(4) 0.50041(10)
N4 N 1.00604(14) 1.1424(4) 0.59343(10)
N5 N 1.22287(14) 1.0494(4) 0.60012(10)
N6 N 0.39113(15) 1.3543(4) 0.57940(11)
N7 N 0.42432(14) 1.2265(4) 0.47908(10)
N8 N 0.57068(14) 1.2664(4) 0.52160(11)
N9 N 0.52576(14) 1.1534(4) 0.42555(11)
N10 N 0.30291(15) 1.0804(4) 0.38879(11)
C1 C 1.0885(2) 1.3745(6) 0.36283(13)
H7 H 1.1423 1.3847 0.3535
C2 C 1.0164(2) 1.4047(6) 0.32025(14)
H8 H 1.0197 1.4337 0.2820
C3 C 0.9402(2) 1.3950(6) 0.33402(13)
H9 H 0.8888 1.4148 0.3052
C4 C 0.93707(18) 1.3532(5) 0.38916(13)
H10 H 0.8843 1.3488 0.4001
C5 C 1.01277(17) 1.3194(4) 0.42941(12)
C6 C 1.01159(16) 1.2596(4) 0.48887(11)
C7 C 0.93234(18) 1.1816(4) 0.55267(13)
C8 C 1.07732(17) 1.1562(4) 0.57645(12)
C9 C 1.15521(17) 1.0961(4) 0.61960(12)
C10 C 1.15521(19) 1.0785(5) 0.67688(13)
H11 H 1.1067 1.1175 0.6901
C11 C 1.2259(2) 1.0045(6) 0.71452(13)
H12 H 1.2276 0.9941 0.7544
C12 C 1.2938(2) 0.9488(5) 0.69439(13)
H13 H 1.3426 0.8906 0.7193
C13 C 1.28988(19) 0.9756(5) 0.63733(13)
H14 H 1.3381 0.9398 0.6233
C14 C 0.37546(19) 1.4096(5) 0.62874(13)
H15 H 0.3176 1.4279 0.6299
C15 C 0.4374(2) 1.4429(6) 0.67794(14)
H16 H 0.4229 1.4817 0.7126
C16 C 0.5202(2) 1.4192(6) 0.67596(14)
H17 H 0.5648 1.4388 0.7096
C17 C 0.53829(19) 1.3652(5) 0.62545(13)
H18 H 0.5957 1.3482 0.6230
C18 C 0.47220(17) 1.3347(4) 0.57773(12)
C19 C 0.49025(17) 1.2736(4) 0.52246(12)
C20 C 0.58862(18) 1.1918(4) 0.47311(13)
C21 C 0.44779(17) 1.1718(4) 0.43173(12)
C22 C 0.37966(17) 1.1172(4) 0.38031(12)
C23 C 0.3969(2) 1.1008(5) 0.32729(13)
H19 H 0.4526 1.1284 0.3228
C24 C 0.3337(2) 1.0428(6) 0.28149(15)
H20 H 0.3437 1.0331 0.2441
C25 C 0.2555(2) 0.9998(6) 0.29002(14)
H21 H 0.2108 0.9544 0.2591
C26 C 0.2431(2) 1.0197(6) 0.34406(15)
H22 H 0.1883 0.9907 0.3500
Ba1B Ba 1.247820(9) 1.19008(2) 0.490826(7)
Ba1B_2 Ba 0.247820(9) 1.19008(2) 0.490826(7)
N1B N 0.91208(15) 0.6693(4) 0.58345(11)
N2B N 0.91448(14) 0.7906(3) 0.47529(10)
N5B N 0.77713(14) 0.9506(4) 0.39988(10)
N6B N 0.60887(15) 0.6457(4) 0.42060(11)
N7B N 0.57568(14) 0.7735(4) 0.52092(10)
N10B N 0.69709(15) 0.9196(4) 0.61121(11)
O5 O 0.9543(2) 1.1263(7) 0.70049(16)
H5 H 0.9568 1.1370 0.6659
H6 H 0.9975 1.1873 0.7193
loop_
_geom_bond_atom_site_label_1
_geom_bond_atom_site_label_2
_geom_bond_site_symmetry_1
_geom_bond_site_symmetry_2
Ba1 O1 1_555 1_555
O1 C7 1_555 1_555
O2 Ba1 1_555 1_555
O3 Ba1 1_555 1_555
H1 O3 1_555 1_555
H2 O3 1_555 1_555
O4 Ba1 1_555 1_555
H3 O4 1_555 1_555
H4 O4 1_555 1_555
O5 H5 1_555 1_555
H6 O5 1_555 1_555
N1 C1 1_555 1_555
N2 C6 1_555 1_555
N3 C6 1_555 1_555
N4 C7 1_555 1_555
N5 C9 1_555 1_555
N6 C14 1_555 1_555
N7 C19 1_555 1_555
N8 C19 1_555 1_555
N9 C20 1_555 1_555
N10 C22 1_555 1_555
C1 H7 1_555 1_555
C2 C1 1_555 1_555
H8 C2 1_555 1_555
C3 C2 1_555 1_555
H9 C3 1_555 1_555
C4 C3 1_555 1_555
H10 C4 1_555 1_555
C5 N1 1_555 1_555
C6 C5 1_555 1_555
C7 N3 1_555 1_555
C8 N2 1_555 1_555
C9 C8 1_555 1_555
C10 C9 1_555 1_555
H11 C10 1_555 1_555
C11 C10 1_555 1_555
H12 C11 1_555 1_555
C12 C11 1_555 1_555
H13 C12 1_555 1_555
C13 N5 1_555 1_555
H14 C13 1_555 1_555
C14 H15 1_555 1_555
C15 C14 1_555 1_555
H16 C15 1_555 1_555
C16 C15 1_555 1_555
H17 C16 1_555 1_555
C17 C16 1_555 1_555
H18 C17 1_555 1_555
C18 N6 1_555 1_555
C19 C18 1_555 1_555
C20 O2 1_555 1_555
C21 N7 1_555 1_555
C22 C21 1_555 1_555
C23 C22 1_555 1_555
H19 C23 1_555 1_555
C24 C23 1_555 1_555
H20 C24 1_555 1_555
C25 C24 1_555 1_555
H21 C25 1_555 1_555
C26 N10 1_555 1_555
H22 C26 1_555 1_555
Ba1B N1 1_555 1_555
Ba1B_2 N6 1_555 1_555
N1B Ba1 1_555 1_555
N2B Ba1 1_555 1_555
N5B Ba1 1_555 1_555
N6B Ba1 1_555 1_555
N7B Ba1 1_555 1_555
N10B Ba1 1_555 1_555
N2 Ba1B 1_555 1_555
N4 C8 1_555 1_555
N5 Ba1B 1_555 1_555
N7 Ba1B_2 1_555 1_555
N8 C20 1_555 1_555
N9 C21 1_555 1_555
N10 Ba1B_2 1_555 1_555
C4 C5 1_555 1_555
C12 C13 1_555 1_555
C17 C18 1_555 1_555
C25 C26 1_555 1_555

#END
