
#######################################################################
#
#                 Cambridge Crystallographic Data Centre
#                                CCDC 
#
#######################################################################
#
# If this CIF has been generated from an entry in the Cambridge 
# Structural Database, then it will include bibliographic, chemical, 
# crystal, experimental, refinement or atomic coordinate data resulting 
# from the CCDC's data processing and validation procedures.
#
#######################################################################

data_CAWWON
_symmetry_cell_setting           monoclinic
_symmetry_space_group_name_H-M   'P 21/n'
_symmetry_Int_Tables_number      14
_space_group_name_Hall           '-P 2yn'
loop_
_symmetry_equiv_pos_site_id
_symmetry_equiv_pos_as_xyz
1 x,y,z
2 1/2-x,1/2+y,1/2-z
3 -x,-y,-z
4 1/2+x,1/2-y,1/2+z
_cell_length_a                   8.757(2)
_cell_length_b                   13.284(3)
_cell_length_c                   9.7045(12)
_cell_angle_alpha                90
_cell_angle_beta                 112.198(13)
_cell_angle_gamma                90
_cell_volume                     1045.23
loop_
_atom_site_label
_atom_site_type_symbol
_atom_site_fract_x
_atom_site_fract_y
_atom_site_fract_z
Cu1 Cu 0.39461(3) 0.612439(17) 0.87400(2)
Cl1 Cl 0.52512(6) 0.72403(4) 0.77730(5)
Cl2 Cl 0.27902(6) 0.49751(3) 0.97799(5)
N1 N 0.1649(3) 0.42563(14) 0.4997(2)
N2 N 0.2408(2) 0.49619(13) 0.45233(18)
N3 N 0.3266(3) 0.55955(14) 0.55442(19)
N4 N 0.3090(2) 0.53061(12) 0.67823(16)
C1 C 0.2102(3) 0.44990(16) 0.6418(2)
H1 H 0.1771 0.4149 0.7088
C2 C 0.2265(4) 0.5027(2) 0.2973(2)
H2 H 0.2701 0.5660 0.2813
H3 H 0.1126 0.4977 0.2324
H4 H 0.2876 0.4488 0.2766
N5 N 0.14007(19) 0.71573(13) 0.75258(17)
N6 N 0.00727(18) 0.74639(12) 0.77508(16)
N7 N -0.09332(19) 0.80140(13) 0.66664(17)
N8 N -0.02507(18) 0.80663(11) 0.56659(15)
C3 C 0.1156(2) 0.75401(15) 0.62013(18)
H5 H 0.1871 0.7455 0.5705
C4 C -0.0180(3) 0.72606(18) 0.9131(2)
H6 H -0.1340 0.7265 0.8937
H7 H 0.0272 0.6613 0.9511
H8 H 0.0361 0.7770 0.9852
Cu1B Cu 0.60539(3) 0.387561(17) 1.12600(2)
Cu1C Cu -0.10539(3) 0.887561(17) 0.37400(2)
Cl2B Cl 0.72098(6) 0.50249(3) 1.02201(5)
N8C N 0.47493(18) 0.69337(11) 1.06659(15)
loop_
_geom_bond_atom_site_label_1
_geom_bond_atom_site_label_2
_geom_bond_site_symmetry_1
_geom_bond_site_symmetry_2
Cu1 Cl1 1_555 1_555
Cl2 Cu1 1_555 1_555
N1 N2 1_555 1_555
N2 N3 1_555 1_555
N3 N4 1_555 1_555
N4 Cu1 1_555 1_555
C1 N1 1_555 1_555
H1 C1 1_555 1_555
C2 N2 1_555 1_555
H2 C2 1_555 1_555
H3 C2 1_555 1_555
H4 C2 1_555 1_555
N5 Cu1 1_555 1_555
N6 N5 1_555 1_555
N7 N6 1_555 1_555
N8 N7 1_555 1_555
C3 N5 1_555 1_555
H5 C3 1_555 1_555
C4 N6 1_555 1_555
H6 C4 1_555 1_555
H7 C4 1_555 1_555
H8 C4 1_555 1_555
Cu1B Cl2 1_555 1_555
Cu1C N8 1_555 1_555
Cl2B Cu1 1_555 1_555
N8C Cu1 1_555 1_555
N4 C1 1_555 1_555
N8 C3 1_555 1_555
Cu1B Cl2B 1_555 1_555

#END
