
#######################################################################
#
#                 Cambridge Crystallographic Data Centre
#                                CCDC 
#
#######################################################################
#
# If this CIF has been generated from an entry in the Cambridge 
# Structural Database, then it will include bibliographic, chemical, 
# crystal, experimental, refinement or atomic coordinate data resulting 
# from the CCDC's data processing and validation procedures.
#
#######################################################################

data_CAWXAZ
_symmetry_cell_setting           orthorhombic
_symmetry_space_group_name_H-M   'P 21 21 21'
_symmetry_Int_Tables_number      19
_space_group_name_Hall           'P 2ac 2ab'
loop_
_symmetry_equiv_pos_site_id
_symmetry_equiv_pos_as_xyz
1 x,y,z
2 1/2-x,-y,1/2+z
3 -x,1/2+y,1/2-z
4 1/2+x,1/2-y,-z
_cell_length_a                   9.744(2)
_cell_length_b                   9.755(3)
_cell_length_c                   14.407(5)
_cell_angle_alpha                90
_cell_angle_beta                 90
_cell_angle_gamma                90
_cell_volume                     1369.42
loop_
_atom_site_label
_atom_site_type_symbol
_atom_site_fract_x
_atom_site_fract_y
_atom_site_fract_z
N1 N 0.4502(11) 0.0316(9) 0.9259(6)
N2 N 0.2178(9) 0.1993(11) 0.6744(6)
C1 C 0.4412(12) -0.0485(11) 0.9834(7)
C2 C 0.2982(10) 0.1914(13) 0.7327(7)
N3 N 0.4426(9) 0.3657(8) 0.9123(6)
N4 N 0.8831(8) 0.1948(10) 0.6620(5)
N5 N 0.4302(12) 0.6151(8) 1.0100(6)
N6 N 0.6352(8) 0.1812(11) 0.7611(5)
C3 C 0.3357(12) 0.3974(11) 0.9651(8)
C4 C 0.2233(11) 0.2918(12) 0.9754(8)
H1 H 0.1502(37) 0.3292(31) 1.0123(45)
H2 H 0.2595(22) 0.2116(33) 1.0053(49)
H3 H 0.1887(55) 0.2676(59) 0.9152(9)
C5 C 0.3291(12) 0.5235(11) 1.0126(7)
H4 H 0.2510(12) 0.5436(11) 1.0471(7)
C6 C 0.5372(11) 0.5813(11) 0.9586(7)
H5 H 0.6116(11) 0.6409(11) 0.9560(7)
C7 C 0.5424(11) 0.4604(11) 0.9087(7)
H6 H 0.6181(11) 0.4440(11) 0.8710(7)
C8 C 0.8520(11) 0.0853(11) 0.7159(7)
C9 C 0.9560(12) -0.0269(12) 0.7261(9)
H7 H 0.9101(13) -0.1115(20) 0.7401(55)
H8 H 1.0182(51) -0.0045(40) 0.7755(38)
H9 H 1.0063(56) -0.0365(56) 0.6691(20)
C10 C 0.7281(11) 0.0813(13) 0.7629(7)
H10 H 0.7086(11) 0.0037(13) 0.7981(7)
C11 C 0.6697(11) 0.2886(12) 0.7080(7)
H11 H 0.6099(11) 0.3627(12) 0.7040(7)
C12 C 0.7897(11) 0.2923(11) 0.6598(7)
H12 H 0.8068(11) 0.3686(11) 0.6229(7)
Cu1 Cu 0.43665(15) 0.1757(2) 0.82811(8)
Cu2 Cu 0.4255(2) -0.1865(2) 1.07812(8)
N2A N 0.2822(9) -0.1993(11) 1.1744(6)
N4A N 0.6169(8) -0.1948(10) 1.1620(5)
N5_2 N 0.4302(12) -0.3849(8) 1.0100(6)
Cu2A Cu 0.0745(2) 0.1865(2) 0.57812(8)
Cu2A_2 Cu 1.0745(2) 0.1865(2) 0.57812(8)
Cu2_2 Cu 0.4255(2) 0.8135(2) 1.07812(8)
loop_
_geom_bond_atom_site_label_1
_geom_bond_atom_site_label_2
_geom_bond_site_symmetry_1
_geom_bond_site_symmetry_2
N1 C1 1_555 1_555
N2 C2 1_555 1_555
C1 Cu2 1_555 1_555
C2 Cu1 1_555 1_555
N3 C3 1_555 1_555
N4 C8 1_555 1_555
N5 C5 1_555 1_555
N6 C10 1_555 1_555
C3 C4 1_555 1_555
C4 H1 1_555 1_555
H2 C4 1_555 1_555
H3 C4 1_555 1_555
C5 C3 1_555 1_555
H4 C5 1_555 1_555
C6 N5 1_555 1_555
H5 C6 1_555 1_555
C7 N3 1_555 1_555
H6 C7 1_555 1_555
C8 C9 1_555 1_555
C9 H7 1_555 1_555
H8 C9 1_555 1_555
H9 C9 1_555 1_555
C10 C8 1_555 1_555
H10 C10 1_555 1_555
C11 N6 1_555 1_555
H11 C11 1_555 1_555
C12 N4 1_555 1_555
H12 C12 1_555 1_555
Cu1 N1 1_555 1_555
Cu2 N2A 1_555 1_555
N4A Cu2 1_555 1_555
N5_2 Cu2 1_555 1_555
Cu2A N2 1_555 1_555
Cu2A_2 N4 1_555 1_555
Cu2_2 N5 1_555 1_555
N3 Cu1 1_555 1_555
N6 Cu1 1_555 1_555
C6 C7 1_555 1_555
C11 C12 1_555 1_555

#END
