
#######################################################################
#
#                 Cambridge Crystallographic Data Centre
#                                CCDC 
#
#######################################################################
#
# If this CIF has been generated from an entry in the Cambridge 
# Structural Database, then it will include bibliographic, chemical, 
# crystal, experimental, refinement or atomic coordinate data resulting 
# from the CCDC's data processing and validation procedures.
#
#######################################################################

data_CAXLAP
_symmetry_cell_setting           monoclinic
_symmetry_space_group_name_H-M   'C 2'
_symmetry_Int_Tables_number      5
_space_group_name_Hall           'C 2y'
loop_
_symmetry_equiv_pos_site_id
_symmetry_equiv_pos_as_xyz
1 x,y,z
2 -x,y,-z
3 1/2+x,1/2+y,z
4 1/2-x,1/2+y,-z
_cell_length_a                   16.727(6)
_cell_length_b                   11.640(4)
_cell_length_c                   11.270(4)
_cell_angle_alpha                90
_cell_angle_beta                 114.468(3)
_cell_angle_gamma                90
_cell_volume                     1997.23
loop_
_atom_site_label
_atom_site_type_symbol
_atom_site_fract_x
_atom_site_fract_y
_atom_site_fract_z
Mn1 Mn 0.0000 0.14613(4) 0.5000
Mn2 Mn 0.0000 0.15610(4) 0.0000
O1 O 0.10459(11) 0.12840(16) 0.43327(16)
O2 O 0.04896(10) 0.16795(16) 0.22014(14)
O3 O 0.12082(10) 0.15032(18) -0.01988(15)
O4 O 0.23082(12) 0.20722(17) -0.06749(18)
O5 O 0.08630(10) 0.15419(18) 0.70662(14)
N1 N 0.0000 0.3417(3) 0.5000
N2 N 0.0000 0.9504(3) 0.5000
N3 N 0.0000 0.3518(3) 0.0000
N4 N 0.0000 0.9615(3) 0.0000
C1 C 0.10616(16) 0.1229(2) 0.3226(2)
C2 C 0.17817(17) 0.0560(2) 0.3083(2)
C3 C 0.18399(18) -0.0621(2) 0.3298(2)
H1 H 0.1465 -0.0980 0.3630
C4 C 0.2437(2) -0.1280(2) 0.3033(3)
H2 H 0.2467 -0.2086 0.3178
C5 C 0.29912(18) -0.0758(2) 0.2555(2)
H3 H 0.3396 -0.1206 0.2360
C6 C 0.29499(17) 0.0419(2) 0.2364(2)
H4 H 0.3338 0.0774 0.2053
C7 C 0.23461(17) 0.1099(2) 0.2621(2)
C8 C 0.23415(17) 0.2358(2) 0.2443(2)
C9 C 0.24968(18) 0.3108(2) 0.3494(2)
H5 H 0.2597 0.2804 0.4326
C10 C 0.2505(2) 0.4291(2) 0.3326(3)
H6 H 0.2592 0.4790 0.4036
C11 C 0.23890(19) 0.4746(2) 0.2131(3)
H7 H 0.2393 0.5554 0.2016
C12 C 0.22662(17) 0.4010(2) 0.1099(2)
H8 H 0.2220 0.4318 0.0293
C13 C 0.22095(16) 0.2826(2) 0.1231(2)
C14 C 0.19049(16) 0.2077(2) 0.0038(2)
C15 C 0.04290(18) 0.4017(2) 0.4428(3)
H9 H 0.0738 0.3606 0.4020
C16 C 0.04430(19) 0.5204(2) 0.4404(3)
H10 H 0.0753 0.5594 0.3983
C17 C 0.0000 0.5821(4) 0.5000
C18 C 0.0000 0.7095(3) 0.5000
C19 C -0.02014(19) 0.7720(2) 0.3859(2)
H11 H -0.0333 0.7333 0.3057
C20 C -0.02085(18) 0.8907(2) 0.3897(2)
H12 H -0.0369 0.9317 0.3103
C21 C 0.01671(18) 0.4122(2) -0.0887(3)
H13 H 0.0280 0.3714 -0.1531
C22 C 0.01822(19) 0.5307(2) -0.0910(3)
H14 H 0.0317 0.5693 -0.1547
C23 C 0.0000 0.5937(3) 0.0000
C24 C 0.0000 0.7201(3) 0.0000
C25 C 0.06784(18) 0.7829(2) -0.0117(3)
H15 H 0.1149 0.7441 -0.0209
C26 C 0.06592(17) 0.9021(2) -0.0099(2)
H16 H 0.1131 0.9434 -0.0158
Mn1_2 Mn 0.0000 1.14613(4) 0.5000
Mn2_2 Mn 0.0000 1.15610(4) 0.0000
Mn2_3 Mn 0.0000 0.15610(4) 1.0000
O1A O -0.10459(11) 0.12840(16) 0.56673(16)
O2A O -0.04896(10) 0.16795(16) 0.77986(14)
O2A_2 O -0.04896(10) 0.16795(16) -0.22014(14)
O3A O -0.12082(10) 0.15032(18) 1.01988(15)
O3A_2 O -0.12082(10) 0.15032(18) 0.01988(15)
O4A O -0.23082(12) 0.20722(17) 1.06749(18)
O5A O -0.08630(10) 0.15419(18) 0.29338(14)
N2_2 N 0.0000 -0.0496(3) 0.5000
N4_2 N 0.0000 -0.0385(3) 0.0000
C1A C -0.10616(16) 0.1229(2) 0.6774(2)
C2A C -0.17817(17) 0.0560(2) 0.6917(2)
C3A C -0.18399(18) -0.0621(2) 0.6702(2)
H1A H -0.1465 -0.0980 0.6370
C4A C -0.2437(2) -0.1280(2) 0.6967(3)
H2A H -0.2467 -0.2086 0.6822
C5A C -0.29912(18) -0.0758(2) 0.7445(2)
H3A H -0.3396 -0.1206 0.7640
C6A C -0.29499(17) 0.0419(2) 0.7636(2)
H4A H -0.3338 0.0774 0.7947
C7A C -0.23461(17) 0.1099(2) 0.7379(2)
C8A C -0.23415(17) 0.2358(2) 0.7557(2)
C9A C -0.24968(18) 0.3108(2) 0.6506(2)
H5A H -0.2597 0.2804 0.5674
C10A C -0.2505(2) 0.4291(2) 0.6674(3)
H6A H -0.2592 0.4790 0.5964
C11A C -0.23890(19) 0.4746(2) 0.7869(3)
H7A H -0.2393 0.5554 0.7984
C12A C -0.22662(17) 0.4010(2) 0.8901(2)
H8A H -0.2220 0.4318 0.9707
C13A C -0.22095(16) 0.2826(2) 0.8769(2)
C14A C -0.19049(16) 0.2077(2) 0.9962(2)
C15A C -0.04290(18) 0.4017(2) 0.5572(3)
H9A H -0.0738 0.3606 0.5980
C16A C -0.04430(19) 0.5204(2) 0.5596(3)
H10A H -0.0753 0.5594 0.6017
C19A C 0.02014(19) 0.7720(2) 0.6141(2)
H11A H 0.0333 0.7333 0.6943
C20A C 0.02085(18) 0.8907(2) 0.6103(2)
H12A H 0.0369 0.9317 0.6897
C21A C -0.01671(18) 0.4122(2) 0.0887(3)
H13A H -0.0280 0.3714 0.1531
C22A C -0.01822(19) 0.5307(2) 0.0910(3)
H14A H -0.0317 0.5693 0.1547
C25A C -0.06784(18) 0.7829(2) 0.0117(3)
H15A H -0.1149 0.7441 0.0209
C26A C -0.06592(17) 0.9021(2) 0.0099(2)
H16A H -0.1131 0.9434 0.0158
loop_
_geom_bond_atom_site_label_1
_geom_bond_atom_site_label_2
_geom_bond_site_symmetry_1
_geom_bond_site_symmetry_2
Mn1 O1 1_555 1_555
Mn2 O2 1_555 1_555
O1 C1 1_555 1_555
O2 C1 1_555 1_555
O3 Mn2 1_555 1_555
O4 C14 1_555 1_555
O5 Mn1 1_555 1_555
N1 Mn1 1_555 1_555
N2 C20 1_555 1_555
N3 Mn2 1_555 1_555
N4 C26 1_555 1_555
C1 C2 1_555 1_555
C2 C3 1_555 1_555
C3 H1 1_555 1_555
C4 C3 1_555 1_555
H2 C4 1_555 1_555
C5 C4 1_555 1_555
H3 C5 1_555 1_555
C6 C5 1_555 1_555
H4 C6 1_555 1_555
C7 C2 1_555 1_555
C8 C7 1_555 1_555
C9 C8 1_555 1_555
H5 C9 1_555 1_555
C10 C9 1_555 1_555
H6 C10 1_555 1_555
C11 C10 1_555 1_555
H7 C11 1_555 1_555
C12 C11 1_555 1_555
H8 C12 1_555 1_555
C13 C8 1_555 1_555
C14 O3 1_555 1_555
C15 N1 1_555 1_555
H9 C15 1_555 1_555
C16 C15 1_555 1_555
H10 C16 1_555 1_555
C17 C16 1_555 1_555
C18 C17 1_555 1_555
C19 C18 1_555 1_555
H11 C19 1_555 1_555
C20 C19 1_555 1_555
H12 C20 1_555 1_555
C21 N3 1_555 1_555
H13 C21 1_555 1_555
C22 C21 1_555 1_555
H14 C22 1_555 1_555
C23 C22 1_555 1_555
C24 C23 1_555 1_555
C25 C24 1_555 1_555
H15 C25 1_555 1_555
C26 C25 1_555 1_555
H16 C26 1_555 1_555
Mn1_2 N2 1_555 1_555
Mn2_2 N4 1_555 1_555
Mn2_3 O2A 1_555 1_555
O1A Mn1 1_555 1_555
O2A C1A 1_555 1_555
O2A_2 Mn2 1_555 1_555
O3A Mn2_3 1_555 1_555
O3A_2 Mn2 1_555 1_555
O4A C14A 1_555 1_555
O5A Mn1 1_555 1_555
N2_2 Mn1 1_555 1_555
N4_2 Mn2 1_555 1_555
C1A O1A 1_555 1_555
C2A C1A 1_555 1_555
C3A C2A 1_555 1_555
H1A C3A 1_555 1_555
C4A C3A 1_555 1_555
H2A C4A 1_555 1_555
C5A C4A 1_555 1_555
H3A C5A 1_555 1_555
C6A C5A 1_555 1_555
H4A C6A 1_555 1_555
C7A C2A 1_555 1_555
C8A C7A 1_555 1_555
C9A C8A 1_555 1_555
H5A C9A 1_555 1_555
C10A C9A 1_555 1_555
H6A C10A 1_555 1_555
C11A C10A 1_555 1_555
H7A C11A 1_555 1_555
C12A C11A 1_555 1_555
H8A C12A 1_555 1_555
C13A C8A 1_555 1_555
C14A O3A 1_555 1_555
C15A N1 1_555 1_555
H9A C15A 1_555 1_555
C16A C17 1_555 1_555
H10A C16A 1_555 1_555
C19A C18 1_555 1_555
H11A C19A 1_555 1_555
C20A N2 1_555 1_555
H12A C20A 1_555 1_555
C21A N3 1_555 1_555
H13A C21A 1_555 1_555
C22A C23 1_555 1_555
H14A C22A 1_555 1_555
C25A C24 1_555 1_555
H15A C25A 1_555 1_555
C26A N4 1_555 1_555
H16A C26A 1_555 1_555
C6 C7 1_555 1_555
C12 C13 1_555 1_555
C13 C14 1_555 1_555
C6A C7A 1_555 1_555
C12A C13A 1_555 1_555
C13A C14A 1_555 1_555
C15A C16A 1_555 1_555
C19A C20A 1_555 1_555
C21A C22A 1_555 1_555
C25A C26A 1_555 1_555

#END
