
#######################################################################
#
#                 Cambridge Crystallographic Data Centre
#                                CCDC 
#
#######################################################################
#
# If this CIF has been generated from an entry in the Cambridge 
# Structural Database, then it will include bibliographic, chemical, 
# crystal, experimental, refinement or atomic coordinate data resulting 
# from the CCDC's data processing and validation procedures.
#
#######################################################################

data_CAXMOF
_symmetry_cell_setting           monoclinic
_symmetry_space_group_name_H-M   'P 21/c'
_symmetry_Int_Tables_number      14
_space_group_name_Hall           '-P 2ybc'
loop_
_symmetry_equiv_pos_site_id
_symmetry_equiv_pos_as_xyz
1 x,y,z
2 -x,1/2+y,1/2-z
3 -x,-y,-z
4 x,1/2-y,1/2+z
_cell_length_a                   7.3051(3)
_cell_length_b                   20.3203(8)
_cell_length_c                   29.5008(18)
_cell_angle_alpha                90
_cell_angle_beta                 92.816(5)
_cell_angle_gamma                90
_cell_volume                     4373.86
loop_
_atom_site_label
_atom_site_type_symbol
_atom_site_fract_x
_atom_site_fract_y
_atom_site_fract_z
O3 O 0.2859(7) 0.9499(3) 0.79991(19)
H32 H 0.1912 0.9663 0.7970
H33 H 0.3334 0.9294 0.7804
O8 O 0.0695(8) 0.9905(2) 0.2005(2)
H48 H 0.1432 0.9897 0.1762
H49 H 0.1288 0.9614 0.2187
O9 O 0.3870(8) 1.4693(2) 0.64953(19)
H50 H 0.4049 1.4380 0.6196
H51 H 0.4012 1.4388 0.6711
Ni1 Ni 0.73090(8) 0.73521(3) 0.74394(2)
O1 O 0.5308(5) 0.78037(15) 0.69887(11)
N1 N 0.7033(6) 0.80734(19) 0.79277(13)
H1 H 0.6048 0.8324 0.7838
N2 N 0.9319(5) 0.79550(19) 0.71863(13)
H2 H 1.0431 0.7797 0.7287
N3 N 0.7618(6) 0.66382(19) 0.69567(14)
H3 H 0.8616 0.6396 0.7048
C2 C 0.5151(8) 0.7388(3) 0.84070(17)
H6 H 0.4101 0.7600 0.8255
H7 H 0.4870 0.7328 0.8722
O2 O 0.3766(6) 0.8517(2) 0.73912(13)
C3 C 0.3191(6) 0.94359(19) 0.58071(15)
C4 C 0.4361(7) 0.8311(2) 0.70332(18)
C5 C 0.3923(6) 0.8696(2) 0.66007(15)
N4 N 0.5331(6) 0.6746(2) 0.77000(15)
H8 H 0.4214 0.6901 0.7600
C6 C 0.9301(8) 0.7994(3) 0.66849(18)
H9 H 0.8157 0.8191 0.6572
H10 H 1.0294 0.8276 0.6597
C7 C 0.3177(6) 0.9329(2) 0.66234(16)
H11 H 0.2923 0.9509 0.6903
C8 C 0.2485(6) 0.9534(2) 0.49724(15)
H12 H 0.2451 0.9077 0.4956
C9 C 0.2561(6) 1.0898(2) 0.50202(14)
C10 C 0.2869(6) 0.9833(2) 0.53875(15)
C11 C 0.4284(7) 0.8447(2) 0.61810(16)
H13 H 0.4783 0.8028 0.6160
C12 C 0.2817(7) 0.9685(2) 0.62322(15)
H14 H 0.2311 1.0103 0.6252
C13 C 0.3922(6) 0.8808(2) 0.57910(15)
H15 H 0.4172 0.8626 0.5512
C14 C 0.2155(6) 1.0581(2) 0.46107(15)
H16 H 0.1883 1.0832 0.4352
C15 C 0.5377(8) 0.6737(3) 0.82032(19)
H17 H 0.4411 0.6450 0.8301
H18 H 0.6538 0.6553 0.8315
C16 C 0.6716(8) 0.7828(3) 0.83891(17)
H19 H 0.7804 0.7597 0.8505
H20 H 0.6527 0.8200 0.8587
C17 C 0.8681(8) 0.8487(3) 0.7897(2)
H21 H 0.9726 0.8272 0.8048
H22 H 0.8495 0.8906 0.8045
C18 C 0.7949(8) 0.6883(3) 0.64982(18)
H23 H 0.8161 0.6510 0.6303
H24 H 0.6851 0.7105 0.6379
C19 C 0.9047(8) 0.8598(2) 0.74013(19)
H25 H 0.8018 0.8824 0.7251
H26 H 1.0132 0.8868 0.7376
C20 C 0.2918(6) 1.0519(2) 0.54026(15)
H27 H 0.3200 1.0727 0.5678
C21 C 0.5998(8) 0.6204(3) 0.6986(2)
H28 H 0.6236 0.5782 0.6847
H29 H 0.4944 0.6402 0.6826
C22 C 0.5608(8) 0.6107(3) 0.7481(2)
H30 H 0.4520 0.5838 0.7504
H31 H 0.6628 0.5879 0.7634
C24 C 1.127(2) 0.7057(7) 0.6524(5)
H37 H 1.2181 0.7385 0.6470
H38 H 1.1379 0.6703 0.6311
H39 H 1.1451 0.6890 0.6827
C25 C 0.3647(8) 1.2629(2) 0.54308(18)
H40 H 0.4423 1.2829 0.5649
C26 C 0.2424(8) 1.3007(2) 0.51686(19)
C27 C 0.2561(7) 1.1629(2) 0.50557(15)
C28 C 0.1313(9) 1.2687(3) 0.4846(2)
H41 H 0.0496 1.2933 0.4663
C29 C 0.3718(7) 1.1951(2) 0.53692(16)
H42 H 0.4568 1.1707 0.5544
C30 C 0.1376(8) 1.2010(2) 0.47852(19)
H43 H 0.0620 1.1811 0.4562
O4 O -0.0680(5) 0.80899(16) 0.28895(11)
O5 O 0.0926(6) 0.88098(19) 0.25091(13)
C31 C 0.1723(6) 0.9569(2) 0.41354(15)
C32 C 0.0805(6) 0.8944(2) 0.33068(16)
C33 C 0.2084(7) 0.9860(2) 0.37224(16)
H44 H 0.2652 1.0269 0.3721
C34 C 0.1621(6) 0.9556(2) 0.33180(16)
H45 H 0.1861 0.9766 0.3047
C35 C 0.2146(6) 0.9901(2) 0.45777(15)
C36 C 0.0309(7) 0.8593(3) 0.28625(18)
C37 C 0.0460(6) 0.8649(2) 0.37158(16)
H46 H -0.0091 0.8236 0.3715
C38 C 0.0907(6) 0.8948(2) 0.41230(16)
H47 H 0.0666 0.8736 0.4393
Ni2 Ni 0.0000 1.5000 0.5000
O6 O 0.1316(7) 1.40598(18) 0.49695(16)
C39 C 0.2296(9) 1.3749(3) 0.5259(2)
O7 O 0.3091(7) 1.39712(19) 0.55934(18)
N5 N -0.0651(8) 1.4874(2) 0.43169(19)
H52 H -0.1451 1.5200 0.4232
N6 N 0.2376(8) 1.5437(3) 0.4806(2)
H53 H 0.3297 1.5136 0.4836
C40 C 0.1061(11) 1.4993(4) 0.4074(3)
H54 H 0.0770 1.5089 0.3756
H55 H 0.1845 1.4608 0.4093
C41 C -0.1537(12) 1.4253(3) 0.4197(3)
H56 H -0.0696 1.3892 0.4263
H57 H -0.1866 1.4247 0.3874
C42 C 0.2027(12) 1.5583(4) 0.4305(3)
H58 H 0.3180 1.5666 0.4166
H59 H 0.1267 1.5972 0.4268
C43 C 0.2961(12) 1.6038(4) 0.5054(3)
H60 H 0.4087 1.6210 0.4939
H61 H 0.2023 1.6376 0.5024
C44 C -0.441(3) 1.3730(11) 0.4324(8)
H62 H -0.4629 1.3754 0.4001
H63 H -0.5542 1.3788 0.4470
H64 H -0.3898 1.3307 0.4404
N8 N 0.9503(8) 0.7338(3) 0.64754(18)
N9 N -0.3250(11) 1.4166(4) 0.4464(3)
Ni1B Ni -0.73090(8) 2.26479(3) 0.25606(2)
Ni1C Ni -0.26910(8) 0.76479(3) 0.24394(2)
Ni1A Ni 0.26910(8) 2.23521(3) 0.75606(2)
O1B O -0.5308(5) 2.21963(15) 0.30113(11)
N1B N -0.7033(6) 2.19266(19) 0.20723(13)
H1B H -0.6048 2.1676 0.2162
N2B N -0.9319(5) 2.20450(19) 0.28137(13)
H2B H -1.0431 2.2203 0.2713
N3B N -0.7618(6) 2.33618(19) 0.30433(14)
H3B H -0.8616 2.3604 0.2952
C2B C -0.5151(8) 2.2612(3) 0.15930(17)
H6B H -0.4101 2.2400 0.1745
H7B H -0.4870 2.2672 0.1278
O2B O -0.3766(6) 2.1483(2) 0.26088(13)
C3B C -0.3191(6) 2.05641(19) 0.41929(15)
C4B C -0.4361(7) 2.1689(2) 0.29668(18)
C5B C -0.3923(6) 2.1304(2) 0.33993(15)
N4B N -0.5331(6) 2.3254(2) 0.23000(15)
H8B H -0.4214 2.3099 0.2400
C6B C -0.9301(8) 2.2006(3) 0.33151(18)
H9B H -0.8157 2.1809 0.3428
H10B H -1.0294 2.1724 0.3403
C7B C -0.3177(6) 2.0671(2) 0.33766(16)
H11B H -0.2923 2.0491 0.3097
C8B C -0.2485(6) 2.0466(2) 0.50276(15)
H12B H -0.2451 2.0923 0.5044
C9B C -0.2561(6) 1.9102(2) 0.49798(14)
C10B C -0.2869(6) 2.0167(2) 0.46125(15)
C11B C -0.4284(7) 2.1553(2) 0.38190(16)
H13B H -0.4783 2.1972 0.3840
C12B C -0.2817(7) 2.0315(2) 0.37678(15)
H14B H -0.2311 1.9897 0.3748
C13B C -0.3922(6) 2.1192(2) 0.42090(15)
H15B H -0.4172 2.1374 0.4488
C14B C -0.2155(6) 1.9419(2) 0.53893(15)
H16B H -0.1883 1.9168 0.5648
C15B C -0.5377(8) 2.3263(3) 0.17968(19)
H17B H -0.4411 2.3550 0.1699
H18B H -0.6538 2.3447 0.1685
C16B C -0.6716(8) 2.2172(3) 0.16109(17)
H19B H -0.7804 2.2403 0.1495
H20B H -0.6527 2.1800 0.1413
C17B C -0.8681(8) 2.1513(3) 0.2103(2)
H21B H -0.9726 2.1728 0.1952
H22B H -0.8495 2.1094 0.1955
C18B C -0.7949(8) 2.3117(3) 0.35018(18)
H23B H -0.8161 2.3490 0.3697
H24B H -0.6851 2.2895 0.3621
C19B C -0.9047(8) 2.1402(2) 0.25987(19)
H25B H -0.8018 2.1176 0.2749
H26B H -1.0132 2.1132 0.2624
C20B C -0.2918(6) 1.9481(2) 0.45974(15)
H27B H -0.3200 1.9273 0.4322
C21B C -0.5998(8) 2.3796(3) 0.3014(2)
H28B H -0.6236 2.4218 0.3153
H29B H -0.4944 2.3598 0.3174
C22B C -0.5608(8) 2.3893(3) 0.2519(2)
H30B H -0.4520 2.4162 0.2496
H31B H -0.6628 2.4121 0.2366
C24B C -1.127(2) 2.2943(7) 0.3476(5)
H37B H -1.2181 2.2615 0.3530
H38B H -1.1379 2.3297 0.3689
H39B H -1.1451 2.3110 0.3173
C25B C -0.3647(8) 1.7371(2) 0.45692(18)
H40B H -0.4423 1.7171 0.4351
C26B C -0.2424(8) 1.6993(2) 0.48314(19)
C27B C -0.2561(7) 1.8371(2) 0.49443(15)
C28B C -0.1313(9) 1.7313(3) 0.5154(2)
H41B H -0.0496 1.7067 0.5337
C29B C -0.3718(7) 1.8049(2) 0.46308(16)
H42B H -0.4568 1.8293 0.4456
C30B C -0.1376(8) 1.7990(2) 0.52148(19)
H43B H -0.0620 1.8189 0.5438
O4B O 0.0680(5) 2.19101(16) 0.71105(11)
O4C O 0.9320(5) 0.69101(16) 0.78895(11)
O4A O -0.9320(5) 2.30899(16) 0.21105(11)
O5B O -0.0926(6) 2.11902(19) 0.74909(13)
C31B C -0.1723(6) 2.0431(2) 0.58646(15)
C32B C -0.0805(6) 2.1056(2) 0.66932(16)
C33B C -0.2084(7) 2.0140(2) 0.62776(16)
H44B H -0.2652 1.9731 0.6279
C34B C -0.1621(6) 2.0444(2) 0.66820(16)
H45B H -0.1861 2.0234 0.6953
C35B C -0.2146(6) 2.0099(2) 0.54223(15)
C36B C -0.0309(7) 2.1407(3) 0.71375(18)
C37B C -0.0460(6) 2.1351(2) 0.62842(16)
H46B H 0.0091 2.1764 0.6285
C38B C -0.0907(6) 2.1052(2) 0.58770(16)
H47B H -0.0666 2.1264 0.5607
O6B O -0.1316(7) 1.59402(18) 0.50305(16)
C39B C -0.2296(9) 1.6251(3) 0.4741(2)
O7B O -0.3091(7) 1.60288(19) 0.44066(18)
N5B N 0.0651(8) 1.5126(2) 0.56831(19)
H52B H 0.1451 1.4800 0.5768
N6B N -0.2376(8) 1.4563(3) 0.5194(2)
H53B H -0.3297 1.4864 0.5164
C40B C -0.1061(11) 1.5007(4) 0.5926(3)
H54B H -0.0770 1.4911 0.6244
H55B H -0.1845 1.5392 0.5907
C41B C 0.1537(12) 1.5747(3) 0.5803(3)
H56B H 0.0696 1.6108 0.5737
H57B H 0.1866 1.5753 0.6126
C42B C -0.2027(12) 1.4417(4) 0.5695(3)
H58B H -0.3180 1.4334 0.5834
H59B H -0.1267 1.4028 0.5732
C43B C -0.2961(12) 1.3962(4) 0.4946(3)
H60B H -0.4087 1.3790 0.5061
H61B H -0.2023 1.3624 0.4976
C44B C 0.441(3) 1.6270(11) 0.5676(8)
H62B H 0.4629 1.6246 0.5999
H63B H 0.5542 1.6212 0.5530
H64B H 0.3898 1.6693 0.5596
N8B N -0.9503(8) 2.2662(3) 0.35246(18)
N9B N 0.3250(11) 1.5834(4) 0.5536(3)
C1? C 0.9503(8) 0.7338(3) 0.64754(18)
H4? H 0.9751 0.7401 0.6158
H5? H 1.0571 0.7127 0.6619
C23? C 0.3471(12) 0.7725(5) 0.8384(3)
H34? H 0.3121 0.7821 0.8073
H35? H 0.3580 0.8129 0.8553
H36? H 0.2555 0.7452 0.8512
C45? C -0.3250(11) 1.4166(4) 0.4464(3)
H65? H -0.3916 1.4579 0.4457
H66? H -0.4027 1.3841 0.4310
N7? N 0.5151(8) 0.7388(3) 0.84070(17)
loop_
_geom_bond_atom_site_label_1
_geom_bond_atom_site_label_2
_geom_bond_site_symmetry_1
_geom_bond_site_symmetry_2
Ni1 O1 1_555 1_555
O1 C4 1_555 1_555
N1 Ni1 1_555 1_555
H1 N1 1_555 1_555
N2 Ni1 1_555 1_555
H2 N2 1_555 1_555
N3 Ni1 1_555 1_555
H3 N3 1_555 1_555
C2 H6 1_555 1_555
H7 C2 1_555 1_555
O2 C4 1_555 1_555
C3 C10 1_555 1_555
C4 C5 1_555 1_555
C5 C7 1_555 1_555
N4 Ni1 1_555 1_555
H8 N4 1_555 1_555
C6 N2 1_555 1_555
H9 C6 1_555 1_555
H10 C6 1_555 1_555
C7 H11 1_555 1_555
C8 H12 1_555 1_555
C9 C14 1_555 1_555
C10 C8 1_555 1_555
C11 C5 1_555 1_555
H13 C11 1_555 1_555
C12 C3 1_555 1_555
H14 C12 1_555 1_555
C13 C3 1_555 1_555
H15 C13 1_555 1_555
C14 H16 1_555 1_555
C15 C2 1_555 1_555
H17 C15 1_555 1_555
H18 C15 1_555 1_555
C16 N1 1_555 1_555
H19 C16 1_555 1_555
H20 C16 1_555 1_555
C17 N1 1_555 1_555
H21 C17 1_555 1_555
H22 C17 1_555 1_555
C18 N3 1_555 1_555
H23 C18 1_555 1_555
H24 C18 1_555 1_555
C19 N2 1_555 1_555
H25 C19 1_555 1_555
H26 C19 1_555 1_555
C20 C9 1_555 1_555
H27 C20 1_555 1_555
C21 N3 1_555 1_555
H28 C21 1_555 1_555
H29 C21 1_555 1_555
C22 N4 1_555 1_555
H30 C22 1_555 1_555
H31 C22 1_555 1_555
O3 H32 1_555 1_555
H33 O3 1_555 1_555
C24 H37 1_555 1_555
H38 C24 1_555 1_555
H39 C24 1_555 1_555
C25 H40 1_555 1_555
C26 C25 1_555 1_555
C27 C9 1_555 1_555
C28 C26 1_555 1_555
H41 C28 1_555 1_555
C29 C25 1_555 1_555
H42 C29 1_555 1_555
C30 C27 1_555 1_555
H43 C30 1_555 1_555
O4 C36 1_555 1_555
O5 C36 1_555 1_555
C31 C33 1_555 1_555
C32 C34 1_555 1_555
C33 H44 1_555 1_555
C34 C33 1_555 1_555
H45 C34 1_555 1_555
C35 C8 1_555 1_555
C36 C32 1_555 1_555
C37 C32 1_555 1_555
H46 C37 1_555 1_555
C38 C31 1_555 1_555
H47 C38 1_555 1_555
Ni2 O6 1_555 1_555
O6 C39 1_555 1_555
C39 C26 1_555 1_555
O7 C39 1_555 1_555
O8 H48 1_555 1_555
H49 O8 1_555 1_555
O9 H50 1_555 1_555
H51 O9 1_555 1_555
N5 Ni2 1_555 1_555
H52 N5 1_555 1_555
N6 Ni2 1_555 1_555
H53 N6 1_555 1_555
C40 N5 1_555 1_555
H54 C40 1_555 1_555
H55 C40 1_555 1_555
C41 N5 1_555 1_555
H56 C41 1_555 1_555
H57 C41 1_555 1_555
C42 N6 1_555 1_555
H58 C42 1_555 1_555
H59 C42 1_555 1_555
C43 N6 1_555 1_555
H60 C43 1_555 1_555
H61 C43 1_555 1_555
C44 H62 1_555 1_555
H63 C44 1_555 1_555
H64 C44 1_555 1_555
N8 C6 1_555 1_555
N9 C41 1_555 1_555
Ni1B O1B 1_555 1_555
Ni1C O4 1_555 1_555
Ni1A O4B 1_555 1_555
O1B C4B 1_555 1_555
N1B Ni1B 1_555 1_555
H1B N1B 1_555 1_555
N2B Ni1B 1_555 1_555
H2B N2B 1_555 1_555
N3B Ni1B 1_555 1_555
H3B N3B 1_555 1_555
C2B H6B 1_555 1_555
H7B C2B 1_555 1_555
O2B C4B 1_555 1_555
C3B C10B 1_555 1_555
C4B C5B 1_555 1_555
C5B C7B 1_555 1_555
N4B Ni1B 1_555 1_555
H8B N4B 1_555 1_555
C6B N2B 1_555 1_555
H9B C6B 1_555 1_555
H10B C6B 1_555 1_555
C7B H11B 1_555 1_555
C8B H12B 1_555 1_555
C9B C14B 1_555 1_555
C10B C8B 1_555 1_555
C11B C5B 1_555 1_555
H13B C11B 1_555 1_555
C12B C3B 1_555 1_555
H14B C12B 1_555 1_555
C13B C3B 1_555 1_555
H15B C13B 1_555 1_555
C14B H16B 1_555 1_555
C15B C2B 1_555 1_555
H17B C15B 1_555 1_555
H18B C15B 1_555 1_555
C16B N1B 1_555 1_555
H19B C16B 1_555 1_555
H20B C16B 1_555 1_555
C17B N1B 1_555 1_555
H21B C17B 1_555 1_555
H22B C17B 1_555 1_555
C18B N3B 1_555 1_555
H23B C18B 1_555 1_555
H24B C18B 1_555 1_555
C19B N2B 1_555 1_555
H25B C19B 1_555 1_555
H26B C19B 1_555 1_555
C20B C9B 1_555 1_555
H27B C20B 1_555 1_555
C21B N3B 1_555 1_555
H28B C21B 1_555 1_555
H29B C21B 1_555 1_555
C22B N4B 1_555 1_555
H30B C22B 1_555 1_555
H31B C22B 1_555 1_555
C24B H37B 1_555 1_555
H38B C24B 1_555 1_555
H39B C24B 1_555 1_555
C25B H40B 1_555 1_555
C26B C25B 1_555 1_555
C27B C9B 1_555 1_555
C28B C26B 1_555 1_555
H41B C28B 1_555 1_555
C29B C25B 1_555 1_555
H42B C29B 1_555 1_555
C30B C27B 1_555 1_555
H43B C30B 1_555 1_555
O4B C36B 1_555 1_555
O4C Ni1 1_555 1_555
O4A Ni1B 1_555 1_555
O5B C36B 1_555 1_555
C31B C33B 1_555 1_555
C32B C34B 1_555 1_555
C33B H44B 1_555 1_555
C34B C33B 1_555 1_555
H45B C34B 1_555 1_555
C35B C8B 1_555 1_555
C36B C32B 1_555 1_555
C37B C32B 1_555 1_555
H46B C37B 1_555 1_555
C38B C31B 1_555 1_555
H47B C38B 1_555 1_555
O6B Ni2 1_555 1_555
C39B C26B 1_555 1_555
O7B C39B 1_555 1_555
N5B Ni2 1_555 1_555
H52B N5B 1_555 1_555
N6B Ni2 1_555 1_555
H53B N6B 1_555 1_555
C40B N5B 1_555 1_555
H54B C40B 1_555 1_555
H55B C40B 1_555 1_555
C41B N5B 1_555 1_555
H56B C41B 1_555 1_555
H57B C41B 1_555 1_555
C42B N6B 1_555 1_555
H58B C42B 1_555 1_555
H59B C42B 1_555 1_555
C43B N9 1_555 1_555
H60B C43B 1_555 1_555
H61B C43B 1_555 1_555
C44B H62B 1_555 1_555
H63B C44B 1_555 1_555
H64B C44B 1_555 1_555
N8B C6B 1_555 1_555
N9B C43 1_555 1_555
C2 C16 1_555 1_555
N4 C15 1_555 1_555
C7 C12 1_555 1_555
C10 C20 1_555 1_555
C11 C13 1_555 1_555
C14 C35 1_555 1_555
C17 C19 1_555 1_555
C18 N8 1_555 1_555
C21 C22 1_555 1_555
C24 N8 1_555 1_555
C27 C29 1_555 1_555
C28 C30 1_555 1_555
C31 C35 1_555 1_555
C37 C38 1_555 1_555
C40 C42 1_555 1_555
C44 N9 1_555 1_555
C2B C16B 1_555 1_555
N4B C15B 1_555 1_555
C7B C12B 1_555 1_555
C10B C20B 1_555 1_555
C11B C13B 1_555 1_555
C14B C35B 1_555 1_555
C17B C19B 1_555 1_555
C18B N8B 1_555 1_555
C21B C22B 1_555 1_555
C24B N8B 1_555 1_555
C27B C29B 1_555 1_555
C28B C30B 1_555 1_555
C31B C35B 1_555 1_555
C37B C38B 1_555 1_555
O6B C39B 1_555 1_555
N6B C43B 1_555 1_555
C40B C42B 1_555 1_555
C41B N9B 1_555 1_555
C44B N9B 1_555 1_555

#END
