
#######################################################################
#
#                 Cambridge Crystallographic Data Centre
#                                CCDC 
#
#######################################################################
#
# If this CIF has been generated from an entry in the Cambridge 
# Structural Database, then it will include bibliographic, chemical, 
# crystal, experimental, refinement or atomic coordinate data resulting 
# from the CCDC's data processing and validation procedures.
#
#######################################################################

data_CAXRUQ
_symmetry_cell_setting           trigonal
_symmetry_space_group_name_H-M   'P -3 c 1'
_symmetry_Int_Tables_number      165
_space_group_name_Hall           '-P 3 2"c'
loop_
_symmetry_equiv_pos_site_id
_symmetry_equiv_pos_as_xyz
1 x,y,z
2 -y,x-y,z
3 -x+y,-x,z
4 x-y,-y,1/2-z
5 -x,-x+y,1/2-z
6 y,x,1/2-z
7 -x,-y,-z
8 y,-x+y,-z
9 x-y,x,-z
10 -x+y,y,1/2+z
11 x,x-y,1/2+z
12 -y,-x,1/2+z
_cell_length_a                   23.5252(4)
_cell_length_b                   23.5252(4)
_cell_length_c                   17.8727(7)
_cell_angle_alpha                90
_cell_angle_beta                 90
_cell_angle_gamma                120
_cell_volume                     8566.18
loop_
_atom_site_label
_atom_site_type_symbol
_atom_site_fract_x
_atom_site_fract_y
_atom_site_fract_z
Ag1 Ag -0.3494 0.000000(12) 0.2500
Fe1 Fe 0.0000 0.41762(2) 0.2500
O1 O 0.06688(9) 0.38946(9) 0.25498(18)
O2 O 0.00578(13) 0.42323(11) 0.13917(12)
O3 O -0.07231(10) 0.43813(10) 0.24148(15)
N1 N -0.00300(19) 0.38502(15) -0.13365(13)
N2 N -0.27764(15) 0.44867(16) 0.23347(18)
N3 N 0.24273(13) 0.33396(15) 0.2604(2)
C1 C -0.03966(14) 0.41513(14) 0.09358(16)
C2 C -0.09711(15) 0.41580(16) 0.11273(18)
H1 H -0.1290 0.4066 0.0750
C3 C -0.10931(13) 0.42956(14) 0.18568(17)
C4 C -0.02837(15) 0.40449(15) 0.01429(17)
C5 C 0.0084(2) 0.3747(2) -0.00112(18)
H2 H 0.0257 0.3607 0.0383
C6 C 0.0195(2) 0.3656(2) -0.0760(2)
H3 H 0.0442 0.3446 -0.0864
C7 C -0.03761(16) 0.41485(16) -0.11797(18)
H4 H -0.0534 0.4293 -0.1584
C8 C -0.05128(15) 0.42545(16) -0.04577(17)
H5 H -0.0760 0.4467 -0.0371
C9 C -0.16808(14) 0.43566(14) 0.20063(18)
C10 C -0.18890(16) 0.43299(16) 0.27422(19)
H6 H -0.1664 0.4268 0.3147
C11 C -0.24413(17) 0.4398(2) 0.2869(2)
H7 H -0.2583 0.4378 0.3371
C12 C -0.25837(17) 0.4499(2) 0.1636(2)
H8 H -0.2828 0.4551 0.1246
C13 C -0.20429(15) 0.44390(17) 0.14425(19)
H9 H -0.1922 0.4454 0.0933
C14 C 0.05985(13) 0.33225(14) 0.2536(3)
C15 C 0.0000 0.27387(18) 0.2500
H10 H 0.0000 0.2335 0.2500
C16 C 0.12232(14) 0.33035(15) 0.2579(3)
C17 C 0.17788(16) 0.38403(17) 0.2862(2)
H11 H 0.1759 0.4207 0.3051
C18 C 0.23592(17) 0.38360(19) 0.2868(3)
H12 H 0.2735 0.4207 0.3070
C20 C 0.1901(2) 0.2836(2) 0.2294(4)
H16 H 0.1945 0.2491 0.2078
C21 C 0.12892(18) 0.2793(2) 0.2274(3)
H17 H 0.0923 0.2422 0.2056
Ag1B Ag 0.349400(12) 0.3494 0.2500
Ag1G Ag 0.000000(12) 0.349400(12) -0.2500
Ag1G_2 Ag 0.000000(12) 0.349400(12) 0.7500
O1D O -0.06688(9) 0.32258(13) 0.24502(18)
O2D O -0.00578(13) 0.41745(17) 0.36083(12)
O3D O 0.07231(10) 0.51044(14) 0.25852(15)
N1K N -0.38502(15) 0.00300(19) 0.36635(13)
N1H N -0.38802(24) -0.00300(19) 0.13365(13)
N1D N 0.00300(19) 0.38802(24) 0.63365(13)
N2D N 0.27764(15) 0.72631(22) 0.26653(18)
N3D N -0.24273(13) 0.09123(20) 0.2396(2)
N3A N -0.33396(15) -0.09123(20) 0.2604(2)
C1D C 0.03966(14) 0.45479(20) 0.40642(16)
C2D C 0.09711(15) 0.51291(22) 0.38727(18)
H1D H 0.1290 0.5356 0.4250
C3D C 0.10931(13) 0.53887(19) 0.31432(17)
C4D C 0.02837(15) 0.43286(21) 0.48571(17)
C5D C -0.0084(2) 0.3663(3) 0.50112(18)
H2D H -0.0257 0.3350 0.4617
C6D C -0.0195(2) 0.3461(3) 0.5760(2)
H3D H -0.0442 0.3004 0.5864
C7D C 0.03761(16) 0.45246(23) 0.61797(18)
H4D H 0.0534 0.4827 0.6584
C8D C 0.05128(15) 0.47673(22) 0.54577(17)
H5D H 0.0760 0.5227 0.5371
C9D C 0.16808(14) 0.60374(20) 0.29937(18)
C10D C 0.18890(16) 0.62189(23) 0.22578(19)
H6D H 0.1664 0.5932 0.1853
C11D C 0.24413(17) 0.68393(26) 0.2131(2)
H7D H 0.2583 0.6961 0.1629
C12D C 0.25837(17) 0.70827(26) 0.3364(2)
H8D H 0.2828 0.7379 0.3754
C13D C 0.20429(15) 0.64819(23) 0.35575(19)
H9D H 0.1922 0.6376 0.4067
C14D C -0.05985(13) 0.27240(19) 0.2464(3)
C16D C -0.12232(14) 0.20803(21) 0.2421(3)
C17D C -0.17788(16) 0.20615(23) 0.2138(2)
H11D H -0.1759 0.2448 0.1949
C18D C -0.23592(17) 0.14768(25) 0.2132(3)
H12D H -0.2735 0.1472 0.1930
C20D C -0.1901(2) 0.0935(3) 0.2706(4)
H16D H -0.1945 0.0546 0.2922
C21D C -0.12892(18) 0.15038(27) 0.2726(3)
H17D H -0.0923 0.1499 0.2944
S1 S -0.20614(6) 0.54500(6) -0.02355(8)
O4 O -0.26195(17) 0.47420(16) -0.0230(2)
C19 C -0.1588(3) 0.5513(3) -0.1041(3)
H13 H -0.1283 0.5357 -0.0919
H14 H -0.1339 0.5972 -0.1202
H15 H -0.1881 0.5245 -0.1446
C22 C -0.2432(4) 0.5900(4) -0.0601(9)
H18 H -0.2140 0.6216 -0.0975
H19 H -0.2505 0.6134 -0.0193
H20 H -0.2853 0.5594 -0.0835
F1 F 0.0777(5) 0.2897(5) 0.0510(6)
F2 F 0.1224(10) 0.2516(13) -0.0178(16)
F3 F 0.0495(10) 0.1842(7) 0.0557(9)
F4 F 0.0223(8) 0.2232(6) -0.0326(9)
B1 B 0.0638(9) 0.2361(6) 0.0213(9)
O5 O -0.19901(15) 0.39821(17) -0.03816(19)
loop_
_geom_bond_atom_site_label_1
_geom_bond_atom_site_label_2
_geom_bond_site_symmetry_1
_geom_bond_site_symmetry_2
Ag1 N1K 1_555 1_555
Fe1 O1 1_555 1_555
S1 O4 1_555 1_555
F1 B1 1_555 1_555
F2 B1 1_555 1_555
F3 B1 1_555 1_555
F4 B1 1_555 1_555
O1 C14 1_555 1_555
O2 Fe1 1_555 1_555
O3 Fe1 1_555 1_555
N1 C6 1_555 1_555
N2 C11 1_555 1_555
N3 C18 1_555 1_555
C1 O2 1_555 1_555
C2 C1 1_555 1_555
H1 C2 1_555 1_555
C3 O3 1_555 1_555
C4 C1 1_555 1_555
C5 C4 1_555 1_555
H2 C5 1_555 1_555
C6 C5 1_555 1_555
H3 C6 1_555 1_555
C7 N1 1_555 1_555
H4 C7 1_555 1_555
C8 C4 1_555 1_555
H5 C8 1_555 1_555
C9 C3 1_555 1_555
C10 C9 1_555 1_555
H6 C10 1_555 1_555
C11 C10 1_555 1_555
H7 C11 1_555 1_555
C12 N2 1_555 1_555
H8 C12 1_555 1_555
C13 C9 1_555 1_555
H9 C13 1_555 1_555
C14 C15 1_555 1_555
C15 H10 1_555 1_555
C16 C14 1_555 1_555
C17 C16 1_555 1_555
H11 C17 1_555 1_555
C18 C17 1_555 1_555
H12 C18 1_555 1_555
C19 S1 1_555 1_555
H13 C19 1_555 1_555
H14 C19 1_555 1_555
H15 C19 1_555 1_555
C20 N3 1_555 1_555
H16 C20 1_555 1_555
C21 C16 1_555 1_555
H17 C21 1_555 1_555
C22 S1 1_555 1_555
H18 C22 1_555 1_555
H19 C22 1_555 1_555
H20 C22 1_555 1_555
Ag1B N3 1_555 1_555
Ag1G N1 1_555 1_555
Ag1G_2 N1D 1_555 1_555
O1D Fe1 1_555 1_555
O2D Fe1 1_555 1_555
O3D Fe1 1_555 1_555
N1H Ag1 1_555 1_555
N1D C6D 1_555 1_555
N2D C11D 1_555 1_555
N3D Ag1 1_555 1_555
N3A Ag1 1_555 1_555
C1D O2D 1_555 1_555
C2D C1D 1_555 1_555
H1D C2D 1_555 1_555
C3D O3D 1_555 1_555
C4D C1D 1_555 1_555
C5D C4D 1_555 1_555
H2D C5D 1_555 1_555
C6D C5D 1_555 1_555
H3D C6D 1_555 1_555
C7D N1D 1_555 1_555
H4D C7D 1_555 1_555
C8D C4D 1_555 1_555
H5D C8D 1_555 1_555
C9D C3D 1_555 1_555
C10D C9D 1_555 1_555
H6D C10D 1_555 1_555
C11D C10D 1_555 1_555
H7D C11D 1_555 1_555
C12D N2D 1_555 1_555
H8D C12D 1_555 1_555
C13D C9D 1_555 1_555
H9D C13D 1_555 1_555
C14D C15 1_555 1_555
C16D C14D 1_555 1_555
C17D C16D 1_555 1_555
H11D C17D 1_555 1_555
C18D N3D 1_555 1_555
H12D C18D 1_555 1_555
C20D N3D 1_555 1_555
H16D C20D 1_555 1_555
C21D C16D 1_555 1_555
H17D C21D 1_555 1_555
C2 C3 1_555 1_555
C7 C8 1_555 1_555
C12 C13 1_555 1_555
C20 C21 1_555 1_555
O1D C14D 1_555 1_555
C2D C3D 1_555 1_555
C7D C8D 1_555 1_555
C12D C13D 1_555 1_555
C17D C18D 1_555 1_555
C20D C21D 1_555 1_555

#END
