
#######################################################################
#
#                 Cambridge Crystallographic Data Centre
#                                CCDC 
#
#######################################################################
#
# If this CIF has been generated from an entry in the Cambridge 
# Structural Database, then it will include bibliographic, chemical, 
# crystal, experimental, refinement or atomic coordinate data resulting 
# from the CCDC's data processing and validation procedures.
#
#######################################################################

data_CAXREY
_symmetry_cell_setting           monoclinic
_symmetry_space_group_name_H-M   'C 2/c'
_symmetry_Int_Tables_number      15
_space_group_name_Hall           '-C 2yn'
loop_
_symmetry_equiv_pos_site_id
_symmetry_equiv_pos_as_xyz
1 x,y,z
2 1/2+x,1/2+y,z
3 -x,y,1/2-z
4 1/2-x,1/2+y,1/2-z
5 -x,-y,-z
6 1/2-x,1/2-y,-z
7 x,-y,1/2+z
8 1/2+x,1/2-y,1/2+z
_cell_length_a                   11.56(1)
_cell_length_b                   6.966(5)
_cell_length_c                   15.50(2)
_cell_angle_alpha                90
_cell_angle_beta                 122.3(1)
_cell_angle_gamma                90
_cell_volume                     1055.03
loop_
_atom_site_label
_atom_site_type_symbol
_atom_site_fract_x
_atom_site_fract_y
_atom_site_fract_z
Tl1 Tl 0.00000 0.06520 0.25000
Br1 Br 0.00000 0.42380 0.25000
Br2 Br 0.22530 -0.10600 0.35130
O1 O 0.02000 0.04520 0.09470
C1 C -0.09060 0.13290 0.00080
C2 C 0.04720 -0.14440 0.07140
Br2B Br -0.22530 -0.10600 0.14870
O1B O -0.02000 0.04520 0.40530
C2D C -0.04720 0.14440 -0.07140
C1D C 0.09060 -0.13290 -0.00080
C1B C 0.09060 0.13290 0.49920
C2B C -0.04720 -0.14440 0.42860
O1D O -0.02000 -0.04520 -0.09470
C2F C 0.04720 0.14440 0.57140
C1F C -0.09060 -0.13290 0.50080
Tl1D Tl 0.00000 -0.06520 -0.25000
O1F O 0.02000 -0.04520 0.59470
Br1D Br 0.00000 -0.42380 -0.25000
Br2D Br -0.22530 0.10600 -0.35130
Br2F Br 0.22530 0.10600 -0.14870
O1F_2 O 0.02000 -0.04520 -0.40530
Tl1D_2 Tl 0.00000 -0.06520 0.75000
loop_
_geom_bond_atom_site_label_1
_geom_bond_atom_site_label_2
_geom_bond_site_symmetry_1
_geom_bond_site_symmetry_2
Tl1 Br1 1_555 1_555
Br2 Tl1 1_555 1_555
O1 Tl1 1_555 1_555
C1 O1 1_555 1_555
C2 O1 1_555 1_555
Br2B Tl1 1_555 1_555
O1B Tl1 1_555 1_555
C2D C1 1_555 1_555
C1D C2 1_555 1_555
C1B O1B 1_555 1_555
C2B O1B 1_555 1_555
O1D C2D 1_555 1_555
C2F C1B 1_555 1_555
C1F C2B 1_555 1_555
Tl1D O1D 1_555 1_555
O1F C2F 1_555 1_555
Br1D Tl1D 1_555 1_555
Br2D Tl1D 1_555 1_555
Br2F Tl1D 1_555 1_555
O1F_2 Tl1D 1_555 1_555
Tl1D_2 O1F 1_555 1_555
C1D O1D 1_555 1_555
C1F O1F 1_555 1_555

#END
