
#######################################################################
#
#                 Cambridge Crystallographic Data Centre
#                                CCDC 
#
#######################################################################
#
# If this CIF has been generated from an entry in the Cambridge 
# Structural Database, then it will include bibliographic, chemical, 
# crystal, experimental, refinement or atomic coordinate data resulting 
# from the CCDC's data processing and validation procedures.
#
#######################################################################

data_CAXROK
_symmetry_cell_setting           orthorhombic
_symmetry_space_group_name_H-M   'P 21 c a'
_symmetry_Int_Tables_number      29
_space_group_name_Hall           'P -2ac 2a'
loop_
_symmetry_equiv_pos_site_id
_symmetry_equiv_pos_as_xyz
1 x,y,z
2 1/2+x,-y,-z
3 1/2+x,y,1/2-z
4 x,-y,1/2+z
_cell_length_a                   9.7470(2)
_cell_length_b                   12.7120(2)
_cell_length_c                   31.1260(5)
_cell_angle_alpha                90
_cell_angle_beta                 90
_cell_angle_gamma                90
_cell_volume                     3856.63
loop_
_atom_site_label
_atom_site_type_symbol
_atom_site_fract_x
_atom_site_fract_y
_atom_site_fract_z
La1 La 0.13720(7) 0.37616(3) 0.123601(10)
O1 O 0.0362(5) 0.4735(4) 0.06144(15)
O2 O -0.0017(5) 0.2594(4) 0.07706(16)
O3 O 0.1085(5) 0.4650(4) 0.19443(15)
O4 O 0.0300(5) 0.2602(4) 0.17733(16)
O5 O 0.3824(6) 0.3960(5) 0.14300(19)
O6 O 0.2647(5) 0.2039(4) 0.12674(16)
O7 O 0.2200(6) 0.5737(4) 0.12065(17)
N1 N -0.2118(7) 0.6396(5) -0.05023(19)
N2 N -0.2152(9) -0.0081(6) 0.0596(3)
N3 N -0.1366(8) 0.6513(6) 0.3023(2)
N4 N -0.1893(9) 0.0008(6) 0.2056(3)
N5 N 0.3073(9) -0.1059(7) 0.1005(3)
N6 N 0.8635(7) 0.4412(6) 0.1352(2)
C1 C -0.0513(11) 0.4590(9) 0.0340(3)
C2 C -0.1152(9) 0.3611(7) 0.0242(2)
H1 H -0.1783 0.3583 0.0009
C3 C -0.0890(9) 0.2687(7) 0.0474(3)
C4 C -0.1730(8) 0.1711(7) 0.0378(2)
C5 C -0.2761(10) 0.1628(8) 0.0082(3)
H2 H -0.2995 0.2213 -0.0093
C6 C -0.3460(15) 0.0691(8) 0.0040(3)
H3 H -0.4155 0.0618 -0.0171
C7 C -0.3154(10) -0.0115(8) 0.0300(3)
H4 H -0.3673 -0.0745 0.0273
C8 C -0.1467(9) 0.0850(7) 0.0625(3)
H5 H -0.0755 0.0903 0.0833
C9 C -0.1014(8) 0.5528(7) 0.0095(2)
C10 C -0.1633(9) 0.5518(9) -0.0302(3)
H6 H -0.1727 0.4862 -0.0445
C11 C -0.1992(9) 0.7306(8) -0.0298(3)
H7 H -0.2353 0.7921 -0.0429
C12 C -0.1346(9) 0.7401(8) 0.0105(3)
H8 H -0.1259 0.8067 0.0241
C13 C -0.0853(9) 0.6522(7) 0.0294(3)
H9 H -0.0395 0.6570 0.0563
C14 C 0.0172(9) 0.4585(7) 0.2231(2)
C15 C -0.0512(8) 0.3669(7) 0.2339(3)
H10 H -0.1109 0.3691 0.2580
C16 C -0.0392(8) 0.2727(7) 0.2123(2)
C17 C -0.1190(10) 0.1782(7) 0.2258(3)
C18 C -0.1906(10) 0.1686(8) 0.2636(3)
H11 H -0.1926 0.2250 0.2836
C19 C -0.2597(10) 0.0764(8) 0.2722(3)
H12 H -0.3092 0.0687 0.2983
C20 C -0.2568(11) -0.0047(9) 0.2428(4)
H13 H -0.3052 -0.0675 0.2494
C21 C -0.1231(10) 0.0892(7) 0.1984(3)
H14 H -0.0732 0.0939 0.1723
C22 C -0.0203(9) 0.5598(7) 0.2451(3)
C23 C -0.0959(10) 0.5654(8) 0.2818(3)
H15 H -0.1225 0.5002 0.2942
C24 C -0.1029(11) 0.7401(9) 0.2839(3)
H16 H -0.1265 0.8037 0.2981
C25 C -0.0348(11) 0.7467(9) 0.2450(3)
H17 H -0.0200 0.8129 0.2316
C26 C 0.0115(10) 0.6540(8) 0.2260(3)
H18 H 0.0641 0.6559 0.2003
C27 C 0.4972(10) 0.3474(9) 0.1347(4)
C28 C 0.5030(7) 0.2397(7) 0.1270(3)
H19 H 0.5905 0.2085 0.1228
C29 C 0.3884(8) 0.1755(7) 0.1252(3)
C30 C 0.4072(8) 0.0590(7) 0.1217(3)
C31 C 0.3031(12) -0.0020(8) 0.1061(3)
H20 H 0.2202 0.0328 0.0986
C32 C 0.4203(15) -0.1552(11) 0.1117(4)
H21 H 0.4248 -0.2292 0.1077
C33 C 0.5319(13) -0.1047(9) 0.1289(5)
H22 H 0.6110 -0.1429 0.1376
C34 C 0.5256(10) 0.0041(9) 0.1333(4)
H23 H 0.6025 0.0413 0.1442
C35 C 0.6186(11) 0.4168(6) 0.1341(2)
C36 C 0.7516(12) 0.3803(8) 0.1355(3)
H24 H 0.7648 0.3063 0.1368
C37 C 0.8435(8) 0.5434(8) 0.1338(3)
H25 H 0.9217 0.5881 0.1343
C38 C 0.7161(8) 0.5895(7) 0.1315(3)
H26 H 0.7064 0.6638 0.1304
C39 C 0.6035(7) 0.5248(7) 0.1308(3)
H27 H 0.5144 0.5544 0.1281
La1A La -0.36280(7) 0.62384(3) -0.123601(10)
La1_2 La 1.13720(7) 0.37616(3) 0.123601(10)
N1A N 0.2882(7) 0.3604(5) 0.05023(19)
N6_2 N -0.1365(7) 0.4412(6) 0.1352(2)
O8 O 0.0852(6) 0.7591(5) 0.1055(2)
O9 O -0.1411(11) 0.8634(7) 0.1328(3)
loop_
_geom_bond_atom_site_label_1
_geom_bond_atom_site_label_2
_geom_bond_site_symmetry_1
_geom_bond_site_symmetry_2
La1 O1 1_555 1_555
O1 C1 1_555 1_555
O2 La1 1_555 1_555
O3 La1 1_555 1_555
O4 La1 1_555 1_555
O5 La1 1_555 1_555
O6 La1 1_555 1_555
O7 La1 1_555 1_555
N1 C10 1_555 1_555
N2 C7 1_555 1_555
N3 C23 1_555 1_555
N4 C20 1_555 1_555
N5 C31 1_555 1_555
N6 C36 1_555 1_555
C1 C2 1_555 1_555
C2 H1 1_555 1_555
C3 O2 1_555 1_555
C4 C3 1_555 1_555
C5 C4 1_555 1_555
H2 C5 1_555 1_555
C6 C5 1_555 1_555
H3 C6 1_555 1_555
C7 C6 1_555 1_555
H4 C7 1_555 1_555
C8 N2 1_555 1_555
H5 C8 1_555 1_555
C9 C1 1_555 1_555
C10 C9 1_555 1_555
H6 C10 1_555 1_555
C11 N1 1_555 1_555
H7 C11 1_555 1_555
C12 C11 1_555 1_555
H8 C12 1_555 1_555
C13 C9 1_555 1_555
H9 C13 1_555 1_555
C14 O3 1_555 1_555
C15 C14 1_555 1_555
H10 C15 1_555 1_555
C16 O4 1_555 1_555
C17 C16 1_555 1_555
C18 C17 1_555 1_555
H11 C18 1_555 1_555
C19 C18 1_555 1_555
H12 C19 1_555 1_555
C20 C19 1_555 1_555
H13 C20 1_555 1_555
C21 N4 1_555 1_555
H14 C21 1_555 1_555
C22 C14 1_555 1_555
C23 C22 1_555 1_555
H15 C23 1_555 1_555
C24 N3 1_555 1_555
H16 C24 1_555 1_555
C25 C24 1_555 1_555
H17 C25 1_555 1_555
C26 C22 1_555 1_555
H18 C26 1_555 1_555
C27 O5 1_555 1_555
C28 C27 1_555 1_555
H19 C28 1_555 1_555
C29 O6 1_555 1_555
C30 C29 1_555 1_555
C31 C30 1_555 1_555
H20 C31 1_555 1_555
C32 N5 1_555 1_555
H21 C32 1_555 1_555
C33 C32 1_555 1_555
H22 C33 1_555 1_555
C34 C30 1_555 1_555
H23 C34 1_555 1_555
C35 C27 1_555 1_555
C36 C35 1_555 1_555
H24 C36 1_555 1_555
C37 N6 1_555 1_555
H25 C37 1_555 1_555
C38 C37 1_555 1_555
H26 C38 1_555 1_555
C39 C35 1_555 1_555
H27 C39 1_555 1_555
La1A N1 1_555 1_555
La1_2 N6 1_555 1_555
N1A La1 1_555 1_555
N6_2 La1 1_555 1_555
C2 C3 1_555 1_555
C4 C8 1_555 1_555
C12 C13 1_555 1_555
C15 C16 1_555 1_555
C17 C21 1_555 1_555
C25 C26 1_555 1_555
C28 C29 1_555 1_555
C33 C34 1_555 1_555
C38 C39 1_555 1_555

#END
