
#######################################################################
#
#                 Cambridge Crystallographic Data Centre
#                                CCDC 
#
#######################################################################
#
# If this CIF has been generated from an entry in the Cambridge 
# Structural Database, then it will include bibliographic, chemical, 
# crystal, experimental, refinement or atomic coordinate data resulting 
# from the CCDC's data processing and validation procedures.
#
#######################################################################

data_CAXSIF
_symmetry_cell_setting           triclinic
_symmetry_space_group_name_H-M   'P -1'
_symmetry_Int_Tables_number      2
_space_group_name_Hall           '-P 1'
loop_
_symmetry_equiv_pos_site_id
_symmetry_equiv_pos_as_xyz
1 x,y,z
2 -x,-y,-z
_cell_length_a                   11.7140(3)
_cell_length_b                   14.0930(5)
_cell_length_c                   15.5890(6)
_cell_angle_alpha                100.969(2)
_cell_angle_beta                 109.712(2)
_cell_angle_gamma                103.542(2)
_cell_volume                     2251.12
loop_
_atom_site_label
_atom_site_type_symbol
_atom_site_fract_x
_atom_site_fract_y
_atom_site_fract_z
Ag1 Ag 0.08566(5) -0.50038(5) -0.27677(4)
Ag2 Ag 0.84249(5) -0.17715(5) -0.74424(4)
Fe1 Fe 0.55878(9) -0.21113(8) -0.41131(7)
O1 O 0.6885(4) -0.2778(4) -0.4206(3)
O2 O 0.4291(4) -0.3398(4) -0.5067(3)
O3 O 0.5813(4) -0.1513(4) -0.5130(3)
O4 O 0.4194(4) -0.1496(4) -0.4237(3)
O5 O 0.5197(4) -0.2564(4) -0.3087(3)
O6 O 0.7037(4) -0.0996(4) -0.3090(3)
O7 O 0.1554(7) -0.6440(5) -0.2240(5)
O8 O 0.1784(7) -0.5309(5) -0.0982(5)
O9 O 0.2674(7) -0.6491(5) -0.0853(5)
N1 N 0.9246(5) -0.4137(5) -0.5773(4)
N2 N 0.0981(5) -0.5213(4) -0.7279(4)
N3 N 0.6656(5) -0.1432(5) -0.7434(4)
N4 N 0.0018(5) -0.1445(5) -0.5914(4)
N5 N 0.2689(6) -0.3571(5) -0.1951(5)
N6 N 1.0580(6) 0.1109(5) -0.1665(4)
N7 N 0.2004(7) -0.6086(5) -0.1367(6)
C1 C 1.0264(6) -0.3783(6) -0.4936(5)
H1 H 1.1030 -0.3908 -0.4928
C2 C 1.0288(7) -0.3252(6) -0.4089(5)
H2 H 1.1055 -0.2980 -0.3526
C3 C 0.9160(6) -0.3132(6) -0.4089(5)
H3 H 0.9139 -0.2769 -0.3518
C4 C 0.8042(6) -0.3537(5) -0.4920(4)
C5 C 0.8153(6) -0.4008(6) -0.5760(5)
H4 H 0.7417 -0.4246 -0.6344
C6 C 0.6803(6) -0.3429(5) -0.4945(5)
C7 C 0.5652(7) -0.4028(6) -0.5683(5)
H5 H 0.5680 -0.4462 -0.6217
C8 C 0.4432(6) -0.4042(5) -0.5701(5)
C9 C 0.3268(6) -0.4798(5) -0.6472(5)
C10 C 0.3230(7) -0.5683(5) -0.7014(5)
H6 H 0.3994 -0.5849 -0.6931
C11 C 0.2060(7) -0.6346(6) -0.7694(6)
H7 H 0.2023 -0.6971 -0.8081
C12 C 0.0951(8) -0.6112(6) -0.7814(6)
H8 H 0.0155 -0.6582 -0.8275
C13 C 0.2095(6) -0.4578(6) -0.6643(5)
H9 H 0.2120 -0.3944 -0.6281
C14 C 0.4952(6) -0.1373(5) -0.5810(5)
C15 C 0.5273(6) -0.1232(5) -0.6620(5)
C16 C 0.6235(7) -0.1547(6) -0.6739(5)
H10 H 0.6643 -0.1872 -0.6302
C17 C 0.6065(6) -0.0966(6) -0.8036(5)
H11 H 0.6343 -0.0863 -0.8527
C18 C 0.5080(7) -0.0631(6) -0.7975(5)
H12 H 0.4679 -0.0322 -0.8430
C19 C 0.4673(7) -0.0738(6) -0.7268(6)
H13 H 0.4007 -0.0490 -0.7209
C20 C 0.3774(7) -0.1330(6) -0.5776(5)
H14 H 0.3158 -0.1259 -0.6320
C21 C 0.3449(6) -0.1385(5) -0.4987(5)
C22 C 0.2191(6) -0.1295(5) -0.5033(5)
C23 C 0.1160(6) -0.1514(5) -0.5869(5)
H15 H 0.1255 -0.1725 -0.6450
C24 C -0.0126(7) -0.1166(5) -0.5098(5)
H16 H -0.0927 -0.1112 -0.5117
C25 C 0.0874(6) -0.0953(5) -0.4224(5)
H17 H 0.0751 -0.0759 -0.3652
C26 C 0.2041(7) -0.1023(5) -0.4180(5)
H18 H 0.2727 -0.0889 -0.3585
C27 C 0.5577(7) -0.2051(6) -0.2211(5)
C28 C 0.4694(6) -0.2405(5) -0.1748(5)
C29 C 0.3540(6) -0.3201(5) -0.2307(5)
H19 H 0.3352 -0.3489 -0.2961
C30 C 0.2928(8) -0.3142(7) -0.1053(6)
H20 H 0.2332 -0.3407 -0.0800
C31 C 0.3994(9) -0.2334(8) -0.0473(7)
H21 H 0.4113 -0.2035 0.0164
C32 C 0.4911(8) -0.1943(8) -0.0809(6)
H22 H 0.5660 -0.1381 -0.0411
C33 C 0.6644(6) -0.1194(5) -0.1749(5)
H23 H 0.6893 -0.0892 -0.1087
C34 C 0.7389(6) -0.0739(5) -0.2195(5)
C35 C 0.8643(7) 0.0097(6) -0.1624(5)
C36 C 0.9419(6) 0.0380(6) -0.2098(5)
H24 H 0.9119 0.0045 -0.2760
C37 C 1.0998(8) 0.1554(7) -0.0726(6)
H25 H 1.1830 0.2046 -0.0408
C38 C 1.0274(9) 0.1334(8) -0.0187(6)
H26 H 1.0592 0.1673 0.0475
C39 C 0.9070(8) 0.0596(7) -0.0669(6)
H27 H 0.8538 0.0435 -0.0337
Ag1A Ag 0.91434(5) -0.49962(5) -0.72323(4)
Ag1A_2 Ag -0.08566(5) -0.49962(5) -0.72323(4)
Ag2A Ag 1.15751(5) 0.17715(5) -0.25576(4)
Ag2_2 Ag -0.15751(5) -0.17715(5) -0.74424(4)
Ag2A_2 Ag 0.15751(5) -0.82285(5) -0.25576(4)
O7A O 0.8446(7) -0.3560(5) -0.7760(5)
N1A N 0.0754(5) -0.5863(5) -0.4227(4)
N2A N -0.0981(5) -0.4787(4) -0.2721(4)
N4_2 N 1.0018(5) -0.1445(5) -0.5914(4)
N6A N 0.9420(6) -0.1109(5) -0.8335(4)
Cl1 Cl 0.5158(3) -0.5110(3) -0.8432(2)
Cl2 Cl 0.3697(3) -0.3694(2) -0.8443(2)
C42 C 0.4517(10) -0.4276(9) -0.9013(7)
H31 H 0.5222 -0.3742 -0.9030
H32 H 0.3924 -0.4665 -0.9679
O10 O 0.7325(7) 0.0254(5) 0.0657(4)
O11 O 0.7861(8) 0.1182(6) 0.2087(5)
O12 O 0.9003(9) 0.1597(6) 0.1340(7)
N9 N 0.8117(8) 0.1047(6) 0.1379(6)
N8 N 0.1465(10) -0.2580(9) -0.7953(7)
C40 C 0.0429(14) -0.3557(11) -0.9762(8)
H28 H 0.0415 -0.4268 -0.9854
H29 H 0.0939 -0.3225 -1.0072
H30 H -0.0449 -0.3541 -1.0044
C41 C 0.1021(13) -0.2994(14) -0.8698(12)
loop_
_geom_bond_atom_site_label_1
_geom_bond_atom_site_label_2
_geom_bond_site_symmetry_1
_geom_bond_site_symmetry_2
Ag1 O7 1_555 1_555
Ag2 N3 1_555 1_555
Fe1 O1 1_555 1_555
Cl1 C42 1_555 1_555
Cl2 C42 1_555 1_555
O1 C6 1_555 1_555
O2 Fe1 1_555 1_555
O3 Fe1 1_555 1_555
O4 Fe1 1_555 1_555
O5 Fe1 1_555 1_555
O6 Fe1 1_555 1_555
O7 N7 1_555 1_555
O8 N7 1_555 1_555
O9 N7 1_555 1_555
O10 N9 1_555 1_555
O11 N9 1_555 1_555
O12 N9 1_555 1_555
N1 C1 1_555 1_555
N2 C12 1_555 1_555
N3 C16 1_555 1_555
N4 C23 1_555 1_555
N5 Ag1 1_555 1_555
N6 C36 1_555 1_555
N8 C41 1_555 1_555
C1 H1 1_555 1_555
C2 C1 1_555 1_555
H2 C2 1_555 1_555
C3 C2 1_555 1_555
H3 C3 1_555 1_555
C4 C3 1_555 1_555
C5 N1 1_555 1_555
H4 C5 1_555 1_555
C6 C4 1_555 1_555
C7 C6 1_555 1_555
H5 C7 1_555 1_555
C8 O2 1_555 1_555
C9 C8 1_555 1_555
C10 C9 1_555 1_555
H6 C10 1_555 1_555
C11 C10 1_555 1_555
H7 C11 1_555 1_555
C12 C11 1_555 1_555
H8 C12 1_555 1_555
C13 N2 1_555 1_555
H9 C13 1_555 1_555
C14 O3 1_555 1_555
C15 C14 1_555 1_555
C16 C15 1_555 1_555
H10 C16 1_555 1_555
C17 N3 1_555 1_555
H11 C17 1_555 1_555
C18 C17 1_555 1_555
H12 C18 1_555 1_555
C19 C15 1_555 1_555
H13 C19 1_555 1_555
C20 C14 1_555 1_555
H14 C20 1_555 1_555
C21 O4 1_555 1_555
C22 C21 1_555 1_555
C23 C22 1_555 1_555
H15 C23 1_555 1_555
C24 N4 1_555 1_555
H16 C24 1_555 1_555
C25 C24 1_555 1_555
H17 C25 1_555 1_555
C26 C22 1_555 1_555
H18 C26 1_555 1_555
C27 O5 1_555 1_555
C28 C27 1_555 1_555
C29 N5 1_555 1_555
H19 C29 1_555 1_555
C30 N5 1_555 1_555
H20 C30 1_555 1_555
C31 C30 1_555 1_555
H21 C31 1_555 1_555
C32 C28 1_555 1_555
H22 C32 1_555 1_555
C33 C27 1_555 1_555
H23 C33 1_555 1_555
C34 O6 1_555 1_555
C35 C34 1_555 1_555
C36 C35 1_555 1_555
H24 C36 1_555 1_555
C37 N6 1_555 1_555
H25 C37 1_555 1_555
C38 C37 1_555 1_555
H26 C38 1_555 1_555
C39 C35 1_555 1_555
H27 C39 1_555 1_555
C40 H28 1_555 1_555
H29 C40 1_555 1_555
H30 C40 1_555 1_555
C41 C40 1_555 1_555
C42 H31 1_555 1_555
H32 C42 1_555 1_555
Ag1A N1 1_555 1_555
Ag1A_2 N2 1_555 1_555
Ag2A N6 1_555 1_555
Ag2_2 N4 1_555 1_555
Ag2A_2 O7 1_555 1_555
O7A Ag2 1_555 1_555
N1A Ag1 1_555 1_555
N2A Ag1 1_555 1_555
N4_2 Ag2 1_555 1_555
N6A Ag2 1_555 1_555
C4 C5 1_555 1_555
C7 C8 1_555 1_555
C9 C13 1_555 1_555
C18 C19 1_555 1_555
C20 C21 1_555 1_555
C25 C26 1_555 1_555
C28 C29 1_555 1_555
C31 C32 1_555 1_555
C33 C34 1_555 1_555
C38 C39 1_555 1_555
Ag1A O7A 1_555 1_555

#END
