
#######################################################################
#
#                 Cambridge Crystallographic Data Centre
#                                CCDC 
#
#######################################################################
#
# If this CIF has been generated from an entry in the Cambridge 
# Structural Database, then it will include bibliographic, chemical, 
# crystal, experimental, refinement or atomic coordinate data resulting 
# from the CCDC's data processing and validation procedures.
#
#######################################################################

data_CAXSAX
_symmetry_cell_setting           monoclinic
_symmetry_space_group_name_H-M   'C 2/c'
_symmetry_Int_Tables_number      15
_space_group_name_Hall           '-C 2yn'
loop_
_symmetry_equiv_pos_site_id
_symmetry_equiv_pos_as_xyz
1 x,y,z
2 -x,y,1/2-z
3 1/2+x,1/2+y,z
4 1/2-x,1/2+y,1/2-z
5 -x,-y,-z
6 x,-y,1/2+z
7 1/2-x,1/2-y,-z
8 1/2+x,1/2-y,1/2+z
_cell_length_a                   13.378(2)
_cell_length_b                   23.544(3)
_cell_length_c                   18.052(3)
_cell_angle_alpha                90
_cell_angle_beta                 102.387(2)
_cell_angle_gamma                90
_cell_volume                     5553.51
loop_
_atom_site_label
_atom_site_type_symbol
_atom_site_fract_x
_atom_site_fract_y
_atom_site_fract_z
Ag1 Ag -1.0000 0.35893(4) -0.2500
Fe1 Fe -0.5000 0.08267(7) -0.2500
O1 O -0.3861(4) 0.0268(2) -0.2243(3)
N1 N -0.0639(8) -0.0858(4) -0.1675(6)
C1 C -0.0965(11) -0.0768(7) -0.1048(8)
H1 H -0.0595 -0.0934 -0.0606
O3 O -0.5041(5) 0.0811(2) -0.1399(3)
N2 N -0.4997(6) 0.1048(3) 0.1345(4)
C2 C -0.1798(11) -0.0451(6) -0.0991(7)
H2 H -0.1979 -0.0410 -0.0524
O4 O -0.6061(4) 0.1442(3) -0.2617(3)
N3 N -0.8630(7) 0.2952(3) -0.2494(5)
C3 C -0.2357(7) -0.0197(4) -0.1611(5)
C4 C -0.2062(8) -0.0291(4) -0.2263(6)
H3 H -0.2425 -0.0131 -0.2711
C5 C -0.1211(9) -0.0628(6) -0.2269(7)
H4 H -0.1040 -0.0694 -0.2734
C6 C -0.3284(7) 0.0160(4) -0.1592(5)
C7 C -0.3484(7) 0.0347(4) -0.0900(5)
H5 H -0.3005 0.0267 -0.0457
C8 C -0.4363(8) 0.0645(4) -0.0841(5)
C9 C -0.4373(7) 0.0618(4) 0.1261(5)
H6 H -0.4087 0.0404 0.1687
C10 C -0.4129(7) 0.0473(4) 0.0576(5)
H7 H -0.3685 0.0174 0.0549
C11 C -0.4562(7) 0.0785(4) -0.0071(4)
C12 C -0.5211(9) 0.1202(4) 0.0006(5)
H8 H -0.5541 0.1406 -0.0417
C13 C -0.5400(9) 0.1333(5) 0.0725(5)
H9 H -0.5831 0.1637 0.0764
C14 C -0.7706(9) 0.3124(5) -0.2121(6)
H10 H -0.7659 0.3455 -0.1836
C15 C -0.6817(8) 0.2831(4) -0.2142(6)
H11 H -0.6187 0.2975 -0.1893
C16 C -0.6869(7) 0.2315(4) -0.2539(5)
C17 C -0.7818(8) 0.2137(4) -0.2899(6)
H12 H -0.7901 0.1798 -0.3170
C18 C -0.8674(8) 0.2475(5) -0.2854(6)
H13 H -0.9316 0.2345 -0.3100
C19 C -0.5928(7) 0.1978(4) -0.2549(5)
C20 C -0.5000 0.2261(5) -0.2500
H14 H -0.5000 0.2656 -0.2500
Ag1F Ag -0.5000 0.14107(4) 0.2500
Ag1_2 Ag 0.0000 0.35893(4) -0.2500
Ag1F_2 Ag -0.5000 0.14107(4) -0.7500
O1A O -0.6139(4) 0.0268(2) -0.2757(3)
N1A N -0.9361(8) -0.0858(4) -0.3325(6)
C1A C -0.9035(11) -0.0768(7) -0.3952(8)
H1A H -0.9405 -0.0934 -0.4394
O3A O -0.4959(5) 0.0811(2) -0.3601(3)
N2F N -1.0003(6) 0.3952(3) -0.1345(4)
N2G N -0.9997(6) 0.3952(3) -0.3655(4)
N2A N -0.5003(6) 0.1048(3) -0.6345(4)
C2A C -0.8202(11) -0.0451(6) -0.4009(7)
H2A H -0.8021 -0.0410 -0.4476
O4A O -0.3939(4) 0.1442(3) -0.2383(3)
N3A N -1.1370(7) 0.2952(3) -0.2506(5)
N3A_2 N -0.1370(7) 0.2952(3) -0.2506(5)
C3A C -0.7643(7) -0.0197(4) -0.3389(5)
C4A C -0.7938(8) -0.0291(4) -0.2737(6)
H3A H -0.7575 -0.0131 -0.2289
C5A C -0.8789(9) -0.0628(6) -0.2731(7)
H4A H -0.8960 -0.0694 -0.2266
C6A C -0.6716(7) 0.0160(4) -0.3408(5)
C7A C -0.6516(7) 0.0347(4) -0.4100(5)
H5A H -0.6995 0.0267 -0.4543
C8A C -0.5637(8) 0.0645(4) -0.4159(5)
C9A C -0.5627(7) 0.0618(4) -0.6261(5)
H6A H -0.5913 0.0404 -0.6687
C10A C -0.5871(7) 0.0473(4) -0.5576(5)
H7A H -0.6315 0.0174 -0.5549
C11A C -0.5438(7) 0.0785(4) -0.4929(4)
C12A C -0.4789(9) 0.1202(4) -0.5006(5)
H8A H -0.4459 0.1406 -0.4583
C13A C -0.4600(9) 0.1333(5) -0.5725(5)
H9A H -0.4169 0.1637 -0.5764
C14A C -0.2294(9) 0.3124(5) -0.2879(6)
H10A H -0.2341 0.3455 -0.3164
C15A C -0.3183(8) 0.2831(4) -0.2858(6)
H11A H -0.3813 0.2975 -0.3107
C16A C -0.3131(7) 0.2315(4) -0.2461(5)
C17A C -0.2182(8) 0.2137(4) -0.2101(6)
H12A H -0.2099 0.1798 -0.1830
C18A C -0.1326(8) 0.2475(5) -0.2146(6)
H13A H -0.0684 0.2345 -0.1900
C19A C -0.4072(7) 0.1978(4) -0.2451(5)
S1 S -0.8307(4) 0.1701(2) -0.4944(2)
O2 O -0.8722(18) 0.1227(13) -0.4669(17)
C21 C -0.9244(14) 0.2233(8) -0.5230(11)
H15 H -0.9820 0.2074 -0.5579
H16 H -0.8958 0.2537 -0.5472
H17 H -0.9464 0.2377 -0.4793
C22 C -0.8163(13) 0.1536(8) -0.5863(8)
H18 H -0.7855 0.1168 -0.5862
H19 H -0.7733 0.1815 -0.6026
H20 H -0.8822 0.1535 -0.6203
F1 F -0.6549(8) 0.2578(4) 0.0745(5)
P1 P -0.7500 0.2500 0.0000
F2 F -0.6706(7) 0.2257(4) -0.0460(5)
F3 F -0.7708(8) 0.1874(3) 0.0269(5)
F1F F -0.8451(8) 0.2422(4) -0.0745(5)
F2F F -0.8294(7) 0.2743(4) 0.0460(5)
F3F F -0.7292(8) 0.3126(3) -0.0269(5)
S3 S -0.1239(7) -0.0436(4) 0.1444(5)
O5 O -0.1842(8) -0.0101(5) 0.0827(5)
C23 C -0.0451(17) -0.0907(12) 0.1373(18)
H21 H 0.0176 -0.0734 0.1312
H22 H -0.0720 -0.1140 0.0940
H23 H -0.0324 -0.1137 0.1823
C24 C -0.2112(17) -0.1065(7) 0.1492(10)
H30 H -0.1783 -0.1408 0.1383
H31 H -0.2742 -0.1016 0.1125
H32 H -0.2252 -0.1088 0.1990
S2? S -0.1604(12) -0.0757(6) 0.0870(9)
H24? H -0.0755 -0.1273 0.1405
H25? H 0.0142 -0.0867 0.1777
H26? H -0.0255 -0.0871 0.0894
H27? H -0.2735 -0.0934 0.1616
H28? H -0.1776 -0.1326 0.1874
H29? H -0.2266 -0.1253 0.1009
O6? O -0.7288(18) 0.1904(11) -0.4552(11)
loop_
_geom_bond_atom_site_label_1
_geom_bond_atom_site_label_2
_geom_bond_site_symmetry_1
_geom_bond_site_symmetry_2
Ag1 N3 1_555 1_555
Fe1 O1 1_555 1_555
S1 O2 1_555 1_555
F1 P1 1_555 1_555
O1 C6 1_555 1_555
N1 C1 1_555 1_555
C1 H1 1_555 1_555
P1 F2 1_555 1_555
O3 Fe1 1_555 1_555
N2 C9 1_555 1_555
C2 C1 1_555 1_555
H2 C2 1_555 1_555
S3 O5 1_555 1_555
F3 P1 1_555 1_555
O4 Fe1 1_555 1_555
N3 C14 1_555 1_555
C3 C2 1_555 1_555
C4 C3 1_555 1_555
H3 C4 1_555 1_555
C5 N1 1_555 1_555
H4 C5 1_555 1_555
C6 C3 1_555 1_555
C7 C6 1_555 1_555
H5 C7 1_555 1_555
C8 O3 1_555 1_555
C9 H6 1_555 1_555
C10 C9 1_555 1_555
H7 C10 1_555 1_555
C11 C8 1_555 1_555
C12 C11 1_555 1_555
H8 C12 1_555 1_555
C13 N2 1_555 1_555
H9 C13 1_555 1_555
C14 H10 1_555 1_555
C15 C14 1_555 1_555
H11 C15 1_555 1_555
C16 C15 1_555 1_555
C17 C16 1_555 1_555
H12 C17 1_555 1_555
C18 N3 1_555 1_555
H13 C18 1_555 1_555
C19 O4 1_555 1_555
C20 C19 1_555 1_555
H14 C20 1_555 1_555
C21 S1 1_555 1_555
H15 C21 1_555 1_555
H16 C21 1_555 1_555
H17 C21 1_555 1_555
C22 S1 1_555 1_555
H18 C22 1_555 1_555
H19 C22 1_555 1_555
H20 C22 1_555 1_555
C23 S3 1_555 1_555
H21 C23 1_555 1_555
H22 C23 1_555 1_555
H23 C23 1_555 1_555
C24 S3 1_555 1_555
H30 C24 1_555 1_555
H31 C24 1_555 1_555
H32 C24 1_555 1_555
Ag1F N2 1_555 1_555
Ag1_2 N3A_2 1_555 1_555
Ag1F_2 N2A 1_555 1_555
F1F P1 1_555 1_555
O1A Fe1 1_555 1_555
N1A C1A 1_555 1_555
C1A H1A 1_555 1_555
F2F P1 1_555 1_555
O3A Fe1 1_555 1_555
N2F Ag1 1_555 1_555
N2G Ag1 1_555 1_555
N2A C9A 1_555 1_555
C2A C1A 1_555 1_555
H2A C2A 1_555 1_555
F3F P1 1_555 1_555
O4A Fe1 1_555 1_555
N3A Ag1 1_555 1_555
N3A_2 C14A 1_555 1_555
C3A C2A 1_555 1_555
C4A C3A 1_555 1_555
H3A C4A 1_555 1_555
C5A N1A 1_555 1_555
H4A C5A 1_555 1_555
C6A O1A 1_555 1_555
C7A C6A 1_555 1_555
H5A C7A 1_555 1_555
C8A O3A 1_555 1_555
C9A H6A 1_555 1_555
C10A C9A 1_555 1_555
H7A C10A 1_555 1_555
C11A C8A 1_555 1_555
C12A C11A 1_555 1_555
H8A C12A 1_555 1_555
C13A N2A 1_555 1_555
H9A C13A 1_555 1_555
C14A H10A 1_555 1_555
C15A C14A 1_555 1_555
H11A C15A 1_555 1_555
C16A C15A 1_555 1_555
C17A C16A 1_555 1_555
H12A C17A 1_555 1_555
C18A N3A_2 1_555 1_555
H13A C18A 1_555 1_555
C19A C20 1_555 1_555
C4 C5 1_555 1_555
C7 C8 1_555 1_555
C10 C11 1_555 1_555
C12 C13 1_555 1_555
C16 C19 1_555 1_555
C17 C18 1_555 1_555
O4A C19A 1_555 1_555
C3A C6A 1_555 1_555
C4A C5A 1_555 1_555
C7A C8A 1_555 1_555
C10A C11A 1_555 1_555
C12A C13A 1_555 1_555
C16A C19A 1_555 1_555
C17A C18A 1_555 1_555

#END
