
#######################################################################
#
#                 Cambridge Crystallographic Data Centre
#                                CCDC 
#
#######################################################################
#
# If this CIF has been generated from an entry in the Cambridge 
# Structural Database, then it will include bibliographic, chemical, 
# crystal, experimental, refinement or atomic coordinate data resulting 
# from the CCDC's data processing and validation procedures.
#
#######################################################################

data_CAXTOM
_symmetry_cell_setting           monoclinic
_symmetry_space_group_name_H-M   'C c'
_symmetry_Int_Tables_number      9
_space_group_name_Hall           'C -2yc'
loop_
_symmetry_equiv_pos_site_id
_symmetry_equiv_pos_as_xyz
1 x,y,z
2 x,-y,1/2+z
3 1/2+x,1/2+y,z
4 1/2+x,1/2-y,1/2+z
_cell_length_a                   24.127(5)
_cell_length_b                   41.811(8)
_cell_length_c                   20.186(4)
_cell_angle_alpha                90
_cell_angle_beta                 115.27(3)
_cell_angle_gamma                90
_cell_volume                     18414.5
loop_
_atom_site_label
_atom_site_type_symbol
_atom_site_fract_x
_atom_site_fract_y
_atom_site_fract_z
Zn1 Zn 0.09034(3) 0.339797(13) 0.04505(4)
Zn2 Zn 0.019193(11) 0.336679(6) -0.165311(14)
Zn3 Zn 0.163866(14) 0.390655(7) 0.24769(2)
O1 O 0.13296(11) 0.31647(7) -0.02779(15)
O2 O 0.09424(9) 0.31378(5) -0.15008(12)
O3 O 0.95919(9) 0.30989(5) -0.15299(14)
O4 O 0.99764(13) 0.31748(7) -0.03452(19)
O5 O 0.52579(13) -0.11737(5) -0.15496(16)
O6 O 0.56582(15) -0.11847(6) -0.03260(16)
O7 O -0.02279(12) 0.33787(6) -0.27851(13)
O8 O 0.18818(18) 0.36318(13) 0.1343(3)
O9 O 0.22883(12) 0.36285(7) 0.2474(2)
O10 O 0.20493(18) 0.39659(10) 0.3609(3)
O11 O 1.05367(10) 0.36743(5) 0.11991(13)
O12 O 1.09436(9) 0.36498(4) 0.24284(14)
O13 O 0.0954(5) 0.29535(11) 0.1132(3)
O14 O 0.6827(4) -0.06806(15) 0.1936(6)
O15 O 0.6058(5) -0.06368(11) 0.2222(3)
C1 C 0.13484(12) 0.30892(7) -0.08704(19)
C2 C 0.95891(13) 0.30685(7) -0.0928(2)
C3 C 0.90901(13) 0.28693(7) -0.08855(19)
C4 C 0.86444(16) 0.27312(9) -0.1506(2)
H1 H 0.8670 0.2752 -0.1950
C5 C 0.81500(16) 0.25597(9) -0.1479(2)
H2 H 0.7855 0.2470 -0.1904
C6 C 0.90556(17) 0.28139(10) -0.0195(2)
H3 H 0.9366 0.2888 0.0240
C7 C 0.85686(17) 0.26541(10) -0.0186(2)
H4 H 0.8543 0.2629 0.0258
C8 C 0.5482(2) -0.10346(8) -0.0904(3)
C9 C 0.18975(12) 0.29091(7) -0.08395(17)
C10 C 0.19389(14) 0.27963(9) -0.14518(18)
H5 H 0.1612 0.2827 -0.1907
C11 C 0.24492(13) 0.26402(9) -0.14110(17)
H6 H 0.2470 0.2579 -0.1843
C12 C 0.29343(12) 0.25703(7) -0.07518(16)
C13 C 0.29069(15) 0.26855(11) -0.01334(19)
H7 H 0.3243 0.2655 0.0314
C14 C 0.24004(16) 0.28450(11) -0.0143(2)
H8 H 0.2386 0.2909 0.0290
C15 C 0.34747(12) 0.23962(6) -0.07307(15)
C16 C 0.34186(12) 0.21397(8) -0.11965(16)
H9 H 0.3029 0.2079 -0.1534
C17 C 0.39118(12) 0.19758(7) -0.11753(17)
H10 H 0.3851 0.1807 -0.1498
C18 C 0.45175(10) 0.20570(5) -0.06713(15)
C19 C 0.45789(13) 0.23193(8) -0.02328(18)
H11 H 0.4970 0.2392 0.0071
C20 C 0.40764(14) 0.24775(8) -0.02320(19)
H12 H 0.4136 0.2641 0.0104
C21 C 0.50403(11) 0.18716(6) -0.06682(15)
C22 C 0.55706(12) 0.20361(5) -0.06315(17)
H13 H 0.5609 0.2256 -0.0558
C23 C 0.60363(11) 0.18580(6) -0.07084(16)
C24 C 0.65779(11) 0.20300(6) -0.07272(16)
C25 C 0.68466(14) 0.19209(7) -0.11688(19)
H14 H 0.6695 0.1736 -0.1444
C26 C 0.73301(14) 0.20769(7) -0.1212(2)
H15 H 0.7480 0.2004 -0.1540
C27 C 0.76005(13) 0.23415(7) -0.07767(17)
C28 C 0.81005(13) 0.25247(8) -0.08250(18)
C29 C 0.73216(15) 0.24541(8) -0.0343(2)
H16 H 0.7472 0.2640 -0.0075
C30 C 0.68235(13) 0.22989(7) -0.02933(19)
H17 H 0.6662 0.2374 0.0022
C31 C 0.59966(11) 0.15354(6) -0.07685(17)
H18 H 0.6311 0.1421 -0.0811
C32 C 0.54843(12) 0.13678(5) -0.07685(17)
C33 C 0.54679(13) 0.10114(6) -0.08114(17)
C34 C 0.5275(2) 0.08319(7) -0.0368(3)
H19 H 0.5158 0.0932 -0.0037
C35 C 0.5258(3) 0.05022(7) -0.0427(3)
H20 H 0.5103 0.0386 -0.0152
C36 C 0.54591(19) 0.03403(6) -0.0867(2)
C37 C 0.5479(2) -0.00121(7) -0.0845(2)
C38 C 0.5677(2) -0.01833(9) -0.0222(2)
H21 H 0.5824 -0.0072 0.0220
C39 C 0.5675(2) -0.05362(8) -0.0195(2)
H22 H 0.5774 -0.0649 0.0238
C40 C 0.5512(2) -0.06900(8) -0.0879(2)
C41 C 0.5340(2) -0.05016(9) -0.1546(2)
H23 H 0.5239 -0.0604 -0.1992
C42 C 0.5326(3) -0.01777(8) -0.1517(2)
H24 H 0.5215 -0.0061 -0.1946
C43 C 0.56473(19) 0.05184(7) -0.1307(3)
H25 H 0.5779 0.0414 -0.1622
C44 C 0.56447(17) 0.08545(6) -0.1291(2)
H26 H 0.5762 0.0971 -0.1603
C45 C 0.50209(12) 0.15369(6) -0.07203(17)
H27 H 0.4684 0.1428 -0.0722
C46 C 0.22728(18) 0.35338(12) 0.1911(3)
C47 C 0.28339(16) 0.33748(10) 0.1904(3)
C48 C 0.3277(2) 0.32309(12) 0.2551(3)
H28 H 0.3247 0.3243 0.2995
C49 C 0.3740(2) 0.30764(11) 0.2489(3)
H29 H 0.4010 0.2966 0.2901
C50 C 0.38508(13) 0.30649(8) 0.19028(19)
C51 C 0.3441(2) 0.32613(13) 0.1262(3)
H30 H 0.3527 0.3285 0.0857
C52 C 0.2935(2) 0.34071(11) 0.1279(3)
H31 H 0.2666 0.3525 0.0880
C53 C 0.43746(13) 0.29072(7) 0.1844(2)
C54 C 0.45725(16) 0.26100(8) 0.2182(2)
H32 H 0.4384 0.2520 0.2454
C55 C 0.50511(13) 0.24474(7) 0.2113(2)
H33 H 0.5172 0.2249 0.2338
C56 C 0.53494(12) 0.25722(6) 0.17211(16)
C57 C 0.51551(13) 0.28735(6) 0.14075(17)
H34 H 0.5351 0.2967 0.1147
C58 C 0.46887(13) 0.30356(6) 0.14683(18)
H35 H 0.4579 0.3236 0.1254
C59 C 0.58545(11) 0.24027(6) 0.16537(15)
C60 C 0.63311(11) 0.25621(6) 0.16024(14)
H36 H 0.6330 0.2784 0.1594
C61 C 0.68232(10) 0.23949(6) 0.15627(13)
C62 C 0.73626(11) 0.25777(6) 0.15778(14)
C63 C 0.79470(12) 0.24500(7) 0.19164(18)
H37 H 0.7998 0.2245 0.2111
C64 C 0.84528(13) 0.26195(8) 0.19711(19)
H38 H 0.8842 0.2533 0.2226
C65 C 0.83891(12) 0.29201(7) 0.16486(16)
C66 C 0.89272(11) 0.31112(7) 0.17014(15)
C67 C 0.89081(14) 0.32931(8) 0.11219(19)
H39 H 0.8542 0.3312 0.0703
C68 C 0.94206(15) 0.34462(8) 0.1154(2)
H40 H 0.9399 0.3563 0.0752
C69 C 0.99510(13) 0.34302(7) 0.17539(18)
C70 C 1.05268(14) 0.35967(7) 0.18043(19)
C71 C 0.99921(16) 0.32499(9) 0.2366(2)
H41 H 1.0355 0.3245 0.2793
C72 C 0.94918(16) 0.30843(9) 0.23186(17)
H42 H 0.9524 0.2951 0.2702
C73 C 0.77804(13) 0.30496(7) 0.12952(18)
H43 H 0.7718 0.3253 0.1091
C74 C 0.72991(12) 0.28740(7) 0.12610(18)
H44 H 0.6907 0.2958 0.1011
C75 C 0.68147(11) 0.20656(6) 0.15461(14)
H45 H 0.7136 0.1954 0.1513
C76 C 0.63159(11) 0.18949(6) 0.15793(15)
C77 C 0.58483(11) 0.20613(5) 0.16213(15)
H46 H 0.5517 0.1951 0.1629
C78 C 0.63304(12) 0.15358(6) 0.16108(17)
C79 C 0.65380(16) 0.13573(7) 0.12072(18)
H47 H 0.6680 0.1459 0.0900
C80 C 0.6545(2) 0.10309(8) 0.1237(2)
H48 H 0.6706 0.0917 0.0964
C81 C 0.63187(17) 0.08640(7) 0.1667(2)
C82 C 0.6115(2) 0.10462(8) 0.2094(2)
H49 H 0.5979 0.0946 0.2407
C83 C 0.61148(16) 0.13815(7) 0.2055(2)
H50 H 0.5967 0.1501 0.2334
C84 C 0.63733(17) 0.05107(5) 0.1782(2)
C85 C 0.68479(18) 0.03394(7) 0.1732(3)
H51 H 0.7152 0.0446 0.1653
C86 C 0.6867(2) 0.00083(7) 0.1800(3)
H52 H 0.7185 -0.0106 0.1767
C87 C 0.6412(2) -0.01515(5) 0.1918(2)
C88 C 0.5938(2) 0.00197(7) 0.1968(3)
H53 H 0.5633 -0.0087 0.2047
C89 C 0.59183(19) 0.03508(7) 0.1900(3)
H54 H 0.5601 0.0465 0.1933
C90 C 0.6431(4) -0.05149(11) 0.2017(4)
Zn1_2 Zn 1.09034(3) 0.339797(13) 0.04505(4)
Zn1B Zn 0.59034(3) -0.160203(13) 0.04505(4)
Zn2_2 Zn 1.019193(11) 0.336679(6) -0.165311(14)
Zn2B Zn 0.519193(11) -0.163321(6) -0.165311(14)
Zn3_2 Zn 1.163866(14) 0.390655(7) 0.24769(2)
Zn3B Zn 0.663866(14) -0.109345(7) 0.24769(2)
O3_2 O -0.04081(9) 0.30989(5) -0.15299(14)
O4_2 O -0.00236(13) 0.31748(7) -0.03452(19)
O5B O 0.02579(13) 0.38263(5) -0.15496(16)
O6B O 0.06582(15) 0.38153(6) -0.03260(16)
O11_2 O 0.05367(10) 0.36743(5) 0.11991(13)
O12_2 O 0.09436(9) 0.36498(4) 0.24284(14)
O14B O 0.1827(4) 0.43194(15) 0.1936(6)
O15B O 0.1058(5) 0.43632(11) 0.2222(3)
loop_
_geom_bond_atom_site_label_1
_geom_bond_atom_site_label_2
_geom_bond_site_symmetry_1
_geom_bond_site_symmetry_2
Zn1 O1 1_555 1_555
Zn2 O2 1_555 1_555
Zn3 O9 1_555 1_555
O1 C1 1_555 1_555
O2 C1 1_555 1_555
O3 C2 1_555 1_555
O4 C2 1_555 1_555
O5 C8 1_555 1_555
O6 C8 1_555 1_555
O7 Zn2 1_555 1_555
O8 Zn1 1_555 1_555
O9 C46 1_555 1_555
O10 Zn3 1_555 1_555
O11 C70 1_555 1_555
O12 C70 1_555 1_555
O13 Zn1 1_555 1_555
O14 C90 1_555 1_555
O15 C90 1_555 1_555
C1 C9 1_555 1_555
C2 C3 1_555 1_555
C3 C4 1_555 1_555
C4 H1 1_555 1_555
C5 C4 1_555 1_555
H2 C5 1_555 1_555
C6 C3 1_555 1_555
H3 C6 1_555 1_555
C7 C6 1_555 1_555
H4 C7 1_555 1_555
C8 C40 1_555 1_555
C9 C10 1_555 1_555
C10 H5 1_555 1_555
C11 C10 1_555 1_555
H6 C11 1_555 1_555
C12 C11 1_555 1_555
C13 C12 1_555 1_555
H7 C13 1_555 1_555
C14 C9 1_555 1_555
H8 C14 1_555 1_555
C15 C12 1_555 1_555
C16 C15 1_555 1_555
H9 C16 1_555 1_555
C17 C16 1_555 1_555
H10 C17 1_555 1_555
C18 C17 1_555 1_555
C19 C18 1_555 1_555
H11 C19 1_555 1_555
C20 C15 1_555 1_555
H12 C20 1_555 1_555
C21 C18 1_555 1_555
C22 C21 1_555 1_555
H13 C22 1_555 1_555
C23 C22 1_555 1_555
C24 C23 1_555 1_555
C25 C24 1_555 1_555
H14 C25 1_555 1_555
C26 C25 1_555 1_555
H15 C26 1_555 1_555
C27 C26 1_555 1_555
C28 C5 1_555 1_555
C29 C27 1_555 1_555
H16 C29 1_555 1_555
C30 C24 1_555 1_555
H17 C30 1_555 1_555
C31 C23 1_555 1_555
H18 C31 1_555 1_555
C32 C31 1_555 1_555
C33 C32 1_555 1_555
C34 C33 1_555 1_555
H19 C34 1_555 1_555
C35 C34 1_555 1_555
H20 C35 1_555 1_555
C36 C35 1_555 1_555
C37 C36 1_555 1_555
C38 C37 1_555 1_555
H21 C38 1_555 1_555
C39 C38 1_555 1_555
H22 C39 1_555 1_555
C40 C39 1_555 1_555
C41 C40 1_555 1_555
H23 C41 1_555 1_555
C42 C37 1_555 1_555
H24 C42 1_555 1_555
C43 C36 1_555 1_555
H25 C43 1_555 1_555
C44 C33 1_555 1_555
H26 C44 1_555 1_555
C45 C21 1_555 1_555
H27 C45 1_555 1_555
C46 O8 1_555 1_555
C47 C46 1_555 1_555
C48 C47 1_555 1_555
H28 C48 1_555 1_555
C49 C48 1_555 1_555
H29 C49 1_555 1_555
C50 C49 1_555 1_555
C51 C50 1_555 1_555
H30 C51 1_555 1_555
C52 C47 1_555 1_555
H31 C52 1_555 1_555
C53 C50 1_555 1_555
C54 C53 1_555 1_555
H32 C54 1_555 1_555
C55 C54 1_555 1_555
H33 C55 1_555 1_555
C56 C55 1_555 1_555
C57 C56 1_555 1_555
H34 C57 1_555 1_555
C58 C53 1_555 1_555
H35 C58 1_555 1_555
C59 C56 1_555 1_555
C60 C59 1_555 1_555
H36 C60 1_555 1_555
C61 C60 1_555 1_555
C62 C61 1_555 1_555
C63 C62 1_555 1_555
H37 C63 1_555 1_555
C64 C63 1_555 1_555
H38 C64 1_555 1_555
C65 C64 1_555 1_555
C66 C65 1_555 1_555
C67 C66 1_555 1_555
H39 C67 1_555 1_555
C68 C67 1_555 1_555
H40 C68 1_555 1_555
C69 C68 1_555 1_555
C70 C69 1_555 1_555
C71 C69 1_555 1_555
H41 C71 1_555 1_555
C72 C66 1_555 1_555
H42 C72 1_555 1_555
C73 C65 1_555 1_555
H43 C73 1_555 1_555
C74 C62 1_555 1_555
H44 C74 1_555 1_555
C75 C61 1_555 1_555
H45 C75 1_555 1_555
C76 C75 1_555 1_555
C77 C59 1_555 1_555
H46 C77 1_555 1_555
C78 C76 1_555 1_555
C79 C78 1_555 1_555
H47 C79 1_555 1_555
C80 C79 1_555 1_555
H48 C80 1_555 1_555
C81 C80 1_555 1_555
C82 C81 1_555 1_555
H49 C82 1_555 1_555
C83 C78 1_555 1_555
H50 C83 1_555 1_555
C84 C81 1_555 1_555
C85 C84 1_555 1_555
H51 C85 1_555 1_555
C86 C85 1_555 1_555
H52 C86 1_555 1_555
C87 C86 1_555 1_555
C88 C87 1_555 1_555
H53 C88 1_555 1_555
C89 C84 1_555 1_555
H54 C89 1_555 1_555
C90 C87 1_555 1_555
Zn1_2 O4 1_555 1_555
Zn1B O6 1_555 1_555
Zn2_2 O3 1_555 1_555
Zn2B O5 1_555 1_555
Zn3_2 O12 1_555 1_555
Zn3B O14 1_555 1_555
O3_2 Zn2 1_555 1_555
O4_2 Zn1 1_555 1_555
O5B Zn2 1_555 1_555
O6B Zn1 1_555 1_555
O11_2 Zn1 1_555 1_555
O12_2 Zn3 1_555 1_555
O14B Zn3 1_555 1_555
O15B Zn3 1_555 1_555
O11 Zn1_2 1_555 1_555
O15 Zn3B 1_555 1_555
C7 C28 1_555 1_555
C13 C14 1_555 1_555
C19 C20 1_555 1_555
C27 C28 1_555 1_555
C29 C30 1_555 1_555
C32 C45 1_555 1_555
C41 C42 1_555 1_555
C43 C44 1_555 1_555
C51 C52 1_555 1_555
C57 C58 1_555 1_555
C71 C72 1_555 1_555
C73 C74 1_555 1_555
C76 C77 1_555 1_555
C82 C83 1_555 1_555
C88 C89 1_555 1_555

#END
