
#######################################################################
#
#                 Cambridge Crystallographic Data Centre
#                                CCDC 
#
#######################################################################
#
# If this CIF has been generated from an entry in the Cambridge 
# Structural Database, then it will include bibliographic, chemical, 
# crystal, experimental, refinement or atomic coordinate data resulting 
# from the CCDC's data processing and validation procedures.
#
#######################################################################

data_CAXTIG
_symmetry_cell_setting           monoclinic
_symmetry_space_group_name_H-M   'C 2/c'
_symmetry_Int_Tables_number      15
_space_group_name_Hall           '-C 2yn'
loop_
_symmetry_equiv_pos_site_id
_symmetry_equiv_pos_as_xyz
1 x,y,z
2 -x,y,1/2-z
3 1/2+x,1/2+y,z
4 1/2-x,1/2+y,1/2-z
5 -x,-y,-z
6 x,-y,1/2+z
7 1/2-x,1/2-y,-z
8 1/2+x,1/2-y,1/2+z
_cell_length_a                   19.834(4)
_cell_length_b                   42.111(8)
_cell_length_c                   12.913(3)
_cell_angle_alpha                90
_cell_angle_beta                 118.69(3)
_cell_angle_gamma                90
_cell_volume                     9461.21
loop_
_atom_site_label
_atom_site_type_symbol
_atom_site_fract_x
_atom_site_fract_y
_atom_site_fract_z
Zn1 Zn 0.06589(2) -0.135431(8) 0.70526(3)
O1 O 0.0338(2) -0.09203(6) 0.7029(3)
O2 O 0.39953(13) 0.33652(6) 1.6584(2)
O3 O 0.47782(15) 0.34262(5) 1.57785(18)
O4 O 0.15580(12) -0.13295(4) 0.65600(18)
C1 C 0.0000 -0.07898(13) 0.7500
C2 C 0.0000 -0.04299(12) 0.7500
C3 C -0.0320(3) -0.02614(9) 0.8095(5)
H1 H -0.0535 -0.0373 0.8487
C4 C -0.0324(3) 0.00670(9) 0.8114(4)
H2 H -0.0534 0.0175 0.8521
C5 C 0.0000 0.02393(11) 0.7500
C6 C 0.0000 0.05890(9) 0.7500
C7 C -0.0077(3) 0.07573(7) 0.6539(3)
H3 H -0.0142 0.0647 0.5873
C8 C -0.0062(2) 0.10879(7) 0.6533(3)
H4 H -0.0093 0.1195 0.5882
C9 C 0.0000 0.12576(9) 0.7500
C10 C 0.0000 0.16114(8) 0.7500
C11 C 0.04746(16) 0.17747(6) 0.8519(2)
H5 H 0.0792 0.1662 0.9203
C12 C 0.04852(15) 0.21060(6) 0.8539(2)
C13 C 0.10257(16) 0.22838(6) 0.9621(2)
C14 C 0.13850(18) 0.25576(7) 0.9558(3)
H6 H 0.1282 0.2637 0.8824
C15 C 0.1892(2) 0.27143(7) 1.0565(3)
H7 H 0.2131 0.2897 1.0494
C16 C 0.20621(17) 0.26129(7) 1.1676(2)
C17 C 0.26099(19) 0.27840(7) 1.2756(2)
C18 C 0.2490(2) 0.28156(9) 1.3746(3)
H8 H 0.2067 0.2721 1.3746
C19 C 0.3008(2) 0.29886(9) 1.4714(3)
H9 H 0.2923 0.3009 1.5359
C20 C 0.36493(19) 0.31335(8) 1.4757(3)
C21 C 0.4192(2) 0.33243(8) 1.5781(3)
C22 C 0.37482(19) 0.30988(9) 1.3765(3)
H10 H 0.4169 0.3194 1.3758
C23 C 0.3255(2) 0.29320(9) 1.2821(3)
H11 H 0.3347 0.2914 1.2183
C24 C 0.1678(2) 0.23349(8) 1.1730(3)
H12 H 0.1767 0.2259 1.2461
C25 C 0.11832(18) 0.21773(7) 1.0735(2)
H13 H 0.0944 0.1994 1.0799
C26 C 0.0000 0.22692(8) 0.7500
H14 H 0.0000 0.2490 0.7500
Zn1A Zn -0.06589(2) -0.135431(8) 0.79474(3)
Zn1C Zn 0.43411(2) 0.364569(8) 1.79474(3)
Zn1B Zn 0.56589(2) 0.364569(8) 1.70526(3)
Zn1B_2 Zn -0.43411(2) 0.364569(8) -0.29474(3)
Zn1C_2 Zn -0.56589(2) 0.364569(8) -0.20526(3)
O1A O -0.0338(2) -0.09203(6) 0.7971(3)
O2A O -0.39953(13) 0.33652(6) -0.1584(2)
O2C O 0.10047(13) -0.16348(6) 0.8416(2)
O2B O -0.10047(13) -0.16348(6) 0.6584(2)
O3A O -0.47782(15) 0.34262(5) -0.07785(18)
O3B O -0.02218(15) -0.15738(5) 0.57785(18)
O3C O 0.02218(15) -0.15738(5) 0.92215(18)
O4A O -0.15580(12) -0.13295(4) 0.84400(18)
C3A C 0.0320(3) -0.02614(9) 0.6905(5)
H1A H 0.0535 -0.0373 0.6513
C4A C 0.0324(3) 0.00670(9) 0.6886(4)
H2A H 0.0534 0.0175 0.6479
C7A C 0.0077(3) 0.07573(7) 0.8461(3)
H3A H 0.0142 0.0647 0.9127
C8A C 0.0062(2) 0.10879(7) 0.8467(3)
H4A H 0.0093 0.1195 0.9118
C11A C -0.04746(16) 0.17747(6) 0.6481(2)
H5A H -0.0792 0.1662 0.5797
C12A C -0.04852(15) 0.21060(6) 0.6461(2)
C13A C -0.10257(16) 0.22838(6) 0.5379(2)
C14A C -0.13850(18) 0.25576(7) 0.5442(3)
H6A H -0.1282 0.2637 0.6176
C15A C -0.1892(2) 0.27143(7) 0.4435(3)
H7A H -0.2131 0.2897 0.4506
C16A C -0.20621(17) 0.26129(7) 0.3324(2)
C17A C -0.26099(19) 0.27840(7) 0.2244(2)
C18A C -0.2490(2) 0.28156(9) 0.1254(3)
H8A H -0.2067 0.2721 0.1254
C19A C -0.3008(2) 0.29886(9) 0.0286(3)
H9A H -0.2923 0.3009 -0.0359
C20A C -0.36493(19) 0.31335(8) 0.0243(3)
C21A C -0.4192(2) 0.33243(8) -0.0781(3)
C22A C -0.37482(19) 0.30988(9) 0.1235(3)
H10A H -0.4169 0.3194 0.1242
C23A C -0.3255(2) 0.29320(9) 0.2179(3)
H11A H -0.3347 0.2914 0.2817
C24A C -0.1678(2) 0.23349(8) 0.3270(3)
H12A H -0.1767 0.2259 0.2539
C25A C -0.11832(18) 0.21773(7) 0.4265(2)
H13A H -0.0944 0.1994 0.4201
loop_
_geom_bond_atom_site_label_1
_geom_bond_atom_site_label_2
_geom_bond_site_symmetry_1
_geom_bond_site_symmetry_2
Zn1 O1 1_555 1_555
O1 C1 1_555 1_555
O2 C21 1_555 1_555
O3 C21 1_555 1_555
O4 Zn1 1_555 1_555
C1 C2 1_555 1_555
C2 C3 1_555 1_555
C3 H1 1_555 1_555
C4 C3 1_555 1_555
H2 C4 1_555 1_555
C5 C4 1_555 1_555
C6 C5 1_555 1_555
C7 C6 1_555 1_555
H3 C7 1_555 1_555
C8 C7 1_555 1_555
H4 C8 1_555 1_555
C9 C8 1_555 1_555
C10 C9 1_555 1_555
C11 C10 1_555 1_555
H5 C11 1_555 1_555
C12 C11 1_555 1_555
C13 C12 1_555 1_555
C14 C13 1_555 1_555
H6 C14 1_555 1_555
C15 C14 1_555 1_555
H7 C15 1_555 1_555
C16 C15 1_555 1_555
C17 C16 1_555 1_555
C18 C17 1_555 1_555
H8 C18 1_555 1_555
C19 C18 1_555 1_555
H9 C19 1_555 1_555
C20 C19 1_555 1_555
C21 C20 1_555 1_555
C22 C20 1_555 1_555
H10 C22 1_555 1_555
C23 C17 1_555 1_555
H11 C23 1_555 1_555
C24 C16 1_555 1_555
H12 C24 1_555 1_555
C25 C13 1_555 1_555
H13 C25 1_555 1_555
C26 C12 1_555 1_555
H14 C26 1_555 1_555
Zn1A O1A 1_555 1_555
Zn1C O2 1_555 1_555
Zn1B O3 1_555 1_555
Zn1B_2 O2A 1_555 1_555
Zn1C_2 O3A 1_555 1_555
O1A C1 1_555 1_555
O2A C21A 1_555 1_555
O2C Zn1 1_555 1_555
O2B Zn1A 1_555 1_555
O3A C21A 1_555 1_555
O3B Zn1 1_555 1_555
O3C Zn1A 1_555 1_555
O4A Zn1A 1_555 1_555
C3A C2 1_555 1_555
H1A C3A 1_555 1_555
C4A C5 1_555 1_555
H2A C4A 1_555 1_555
C7A C6 1_555 1_555
H3A C7A 1_555 1_555
C8A C9 1_555 1_555
H4A C8A 1_555 1_555
C11A C10 1_555 1_555
H5A C11A 1_555 1_555
C12A C26 1_555 1_555
C13A C12A 1_555 1_555
C14A C13A 1_555 1_555
H6A C14A 1_555 1_555
C15A C14A 1_555 1_555
H7A C15A 1_555 1_555
C16A C15A 1_555 1_555
C17A C16A 1_555 1_555
C18A C17A 1_555 1_555
H8A C18A 1_555 1_555
C19A C18A 1_555 1_555
H9A C19A 1_555 1_555
C20A C19A 1_555 1_555
C21A C20A 1_555 1_555
C22A C20A 1_555 1_555
H10A C22A 1_555 1_555
C23A C17A 1_555 1_555
H11A C23A 1_555 1_555
C24A C16A 1_555 1_555
H12A C24A 1_555 1_555
C25A C13A 1_555 1_555
H13A C25A 1_555 1_555
C22 C23 1_555 1_555
C24 C25 1_555 1_555
C3A C4A 1_555 1_555
C7A C8A 1_555 1_555
C11A C12A 1_555 1_555
C22A C23A 1_555 1_555
C24A C25A 1_555 1_555

#END
