
#######################################################################
#
#                 Cambridge Crystallographic Data Centre
#                                CCDC 
#
#######################################################################
#
# If this CIF has been generated from an entry in the Cambridge 
# Structural Database, then it will include bibliographic, chemical, 
# crystal, experimental, refinement or atomic coordinate data resulting 
# from the CCDC's data processing and validation procedures.
#
#######################################################################

data_CAXXOQ
_symmetry_cell_setting           monoclinic
_symmetry_space_group_name_H-M   'P 21/m'
_symmetry_Int_Tables_number      11
_space_group_name_Hall           '-P 2yb'
loop_
_symmetry_equiv_pos_site_id
_symmetry_equiv_pos_as_xyz
1 x,y,z
2 -x,1/2+y,-z
3 -x,-y,-z
4 x,1/2-y,z
_cell_length_a                   5.606(3)
_cell_length_b                   6.830(4)
_cell_length_c                   11.891(7)
_cell_angle_alpha                90
_cell_angle_beta                 99.379(7)
_cell_angle_gamma                90
_cell_volume                     449.208
loop_
_atom_site_label
_atom_site_type_symbol
_atom_site_fract_x
_atom_site_fract_y
_atom_site_fract_z
Cu1 Cu 0.61701(10) 0.2500 0.75913(5)
N1 N 0.2456(7) 0.2500 0.6321(4)
N2 N 0.0970(7) 0.2500 0.5299(4)
N3 N -0.1303(7) 0.2500 0.5463(3)
N4 N -0.1335(7) 0.2500 0.6592(3)
C1 C 0.1720(9) 0.2500 0.8356(4)
C2 C 0.0965(8) 0.2500 0.7090(4)
O1 O 0.3965(6) 0.2500 0.8737(3)
O2 O 0.0052(6) 0.2500 0.8942(3)
N5 N 0.6197(5) 0.5478(4) 0.7630(2)
C3 C 0.5615(7) 0.6484(5) 0.6670(3)
H1 H 0.5191 0.5801 0.5970
C4 C 0.6774(8) 0.6482(6) 0.8597(3)
H2 H 0.7192 0.5796 0.9297
Cu1_2 Cu -0.38299(10) 0.2500 0.75913(5)
Cu1_3 Cu 0.61701(10) 1.2500 0.75913(5)
N4_2 N 0.8665(7) 0.2500 0.6592(3)
O2_2 O 1.0052(6) 0.2500 0.8942(3)
N5C N 0.6197(5) 0.9522(4) 0.7630(2)
N5C_2 N 0.6197(5) -0.0478(4) 0.7630(2)
C3C C 0.5615(7) 0.8516(5) 0.6670(3)
H1C H 0.5191 0.9199 0.5970
C4C C 0.6774(8) 0.8518(6) 0.8597(3)
H2C H 0.7192 0.9204 0.9297
loop_
_geom_bond_atom_site_label_1
_geom_bond_atom_site_label_2
_geom_bond_site_symmetry_1
_geom_bond_site_symmetry_2
Cu1 N1 1_555 1_555
N1 N2 1_555 1_555
N2 N3 1_555 1_555
N3 N4 1_555 1_555
N4 C2 1_555 1_555
C1 C2 1_555 1_555
C2 N1 1_555 1_555
O1 Cu1 1_555 1_555
O2 C1 1_555 1_555
N5 Cu1 1_555 1_555
C3 N5 1_555 1_555
H1 C3 1_555 1_555
C4 N5 1_555 1_555
H2 C4 1_555 1_555
Cu1_2 N4 1_555 1_555
Cu1_3 N5C 1_555 1_555
N4_2 Cu1 1_555 1_555
O2_2 Cu1 1_555 1_555
N5C C3C 1_555 1_555
N5C_2 Cu1 1_555 1_555
C3C C3 1_555 1_555
H1C C3C 1_555 1_555
C4C C4 1_555 1_555
H2C C4C 1_555 1_555
C1 O1 1_555 1_555
O2 Cu1_2 1_555 1_555
N5C C4C 1_555 1_555

#END
