
#######################################################################
#
#                 Cambridge Crystallographic Data Centre
#                                CCDC 
#
#######################################################################
#
# If this CIF has been generated from an entry in the Cambridge 
# Structural Database, then it will include bibliographic, chemical, 
# crystal, experimental, refinement or atomic coordinate data resulting 
# from the CCDC's data processing and validation procedures.
#
#######################################################################

data_CAXYAD
_symmetry_cell_setting           monoclinic
_symmetry_space_group_name_H-M   'P 21/c'
_symmetry_Int_Tables_number      14
_space_group_name_Hall           '-P 2ybc'
loop_
_symmetry_equiv_pos_site_id
_symmetry_equiv_pos_as_xyz
1 x,y,z
2 -x,1/2+y,1/2-z
3 -x,-y,-z
4 x,1/2-y,1/2+z
_cell_length_a                   7.5502(19)
_cell_length_b                   12.884(3)
_cell_length_c                   10.036(3)
_cell_angle_alpha                90
_cell_angle_beta                 98.038(3)
_cell_angle_gamma                90
_cell_volume                     966.678
loop_
_atom_site_label
_atom_site_type_symbol
_atom_site_fract_x
_atom_site_fract_y
_atom_site_fract_z
Cu1 Cu 0.20176(3) 0.554369(18) 0.63487(2)
O1 O 0.18756(19) 0.67975(11) 0.74700(14)
O2 O 0.0206(2) 0.81974(11) 0.77350(15)
C1 C 0.0488(3) 0.73735(16) 0.7188(2)
C2 C -0.0845(3) 0.69193(15) 0.6101(2)
N1 N -0.0446(2) 0.60091(13) 0.55948(16)
N2 N -0.1863(2) 0.57649(13) 0.47009(17)
N3 N -0.3077(2) 0.65054(13) 0.46841(17)
N4 N -0.2464(2) 0.72471(13) 0.55710(17)
N5 N 0.4261(2) 0.51918(13) 0.75291(16)
C3 C 0.9309(3) 0.46703(16) 0.9927(2)
H1 H 0.9465 0.4023 1.0381
C4 C 0.4620(3) 0.42904(15) 0.8181(2)
H2 H 0.3735 0.3761 0.8095
C5 C 0.6245(3) 0.41074(16) 0.8978(2)
H3 H 0.6458 0.3462 0.9429
C6 C 0.7569(3) 0.48734(16) 0.91165(19)
C7 C 0.7150(3) 0.58178(16) 0.8466(2)
H4 H 0.7995 0.6368 0.8555
C8 C 0.5508(3) 0.59500(16) 0.7695(2)
H5 H 0.5242 0.6599 0.7264
O3 O 0.30892(19) 0.64331(12) 0.47462(15)
H6 H 0.4045 0.6442 0.4450
H7 H 0.2363 0.6621 0.4054
Cu1B Cu -0.20176(3) 0.445631(18) 0.36513(2)
Cu1B_2 Cu 1.79824(3) 0.445631(18) 1.36513(2)
O1B O -0.18756(19) 0.32025(11) 0.25300(14)
O2B O -0.0206(2) 0.18026(11) 0.22650(15)
C1B C -0.0488(3) 0.26265(16) 0.2812(2)
C2B C 0.0845(3) 0.30807(15) 0.3899(2)
N1B N 0.0446(2) 0.39909(13) 0.44052(16)
N2B N 0.1863(2) 0.42351(13) 0.52991(17)
N3B N 0.3077(2) 0.34946(13) 0.53159(17)
N4B N 0.2464(2) 0.27529(13) 0.44290(17)
N5B N 1.5739(2) 0.48082(13) 1.24709(16)
N5B_2 N -0.4261(2) 0.48082(13) 0.24709(16)
C3B C 1.0691(3) 0.53297(16) 1.0073(2)
H1B H 1.0535 0.5977 0.9619
C4B C 1.5380(3) 0.57096(15) 1.1819(2)
H2B H 1.6265 0.6239 1.1905
C5B C 1.3755(3) 0.58926(16) 1.1022(2)
H3B H 1.3542 0.6538 1.0571
C6B C 1.2431(3) 0.51266(16) 1.08835(19)
C7B C 1.2850(3) 0.41822(16) 1.1534(2)
H4B H 1.2005 0.3632 1.1445
C8B C 1.4492(3) 0.40500(16) 1.2305(2)
H5B H 1.4758 0.3401 1.2736
O3B O -0.30892(19) 0.35669(12) 0.52538(15)
H6B H -0.4045 0.3558 0.5550
H7B H -0.2363 0.3379 0.5946
loop_
_geom_bond_atom_site_label_1
_geom_bond_atom_site_label_2
_geom_bond_site_symmetry_1
_geom_bond_site_symmetry_2
Cu1 O1 1_555 1_555
O1 C1 1_555 1_555
O2 C1 1_555 1_555
C1 C2 1_555 1_555
C2 N1 1_555 1_555
N1 Cu1 1_555 1_555
N2 N1 1_555 1_555
N3 N2 1_555 1_555
N4 C2 1_555 1_555
N5 Cu1 1_555 1_555
C3 H1 1_555 1_555
C4 N5 1_555 1_555
H2 C4 1_555 1_555
C5 C4 1_555 1_555
H3 C5 1_555 1_555
C6 C3 1_555 1_555
C7 C6 1_555 1_555
H4 C7 1_555 1_555
C8 N5 1_555 1_555
H5 C8 1_555 1_555
O3 Cu1 1_555 1_555
H6 O3 1_555 1_555
H7 O3 1_555 1_555
Cu1B N2 1_555 1_555
Cu1B_2 N5B 1_555 1_555
O1B Cu1B 1_555 1_555
O2B C1B 1_555 1_555
C1B O1B 1_555 1_555
C2B C1B 1_555 1_555
N1B Cu1B 1_555 1_555
N2B Cu1 1_555 1_555
N3B N2B 1_555 1_555
N4B C2B 1_555 1_555
N5B C4B 1_555 1_555
N5B_2 Cu1B 1_555 1_555
C3B C3 1_555 1_555
H1B C3B 1_555 1_555
C4B H2B 1_555 1_555
C5B C4B 1_555 1_555
H3B C5B 1_555 1_555
C6B C3B 1_555 1_555
C7B C6B 1_555 1_555
H4B C7B 1_555 1_555
C8B N5B 1_555 1_555
H5B C8B 1_555 1_555
O3B Cu1B 1_555 1_555
H6B O3B 1_555 1_555
H7B O3B 1_555 1_555
N3 N4 1_555 1_555
C5 C6 1_555 1_555
C7 C8 1_555 1_555
C2B N1B 1_555 1_555
N1B N2B 1_555 1_555
N3B N4B 1_555 1_555
C5B C6B 1_555 1_555
C7B C8B 1_555 1_555

#END
