
#######################################################################
#
#                 Cambridge Crystallographic Data Centre
#                                CCDC 
#
#######################################################################
#
# If this CIF has been generated from an entry in the Cambridge 
# Structural Database, then it will include bibliographic, chemical, 
# crystal, experimental, refinement or atomic coordinate data resulting 
# from the CCDC's data processing and validation procedures.
#
#######################################################################

data_CAXYUX
_symmetry_cell_setting           orthorhombic
_symmetry_space_group_name_H-M   'C 2 2 21'
_symmetry_Int_Tables_number      20
_space_group_name_Hall           'C 2n 2'
loop_
_symmetry_equiv_pos_site_id
_symmetry_equiv_pos_as_xyz
1 x,y,z
2 -x,-y,1/2+z
3 -x,y,1/2-z
4 x,-y,-z
5 1/2+x,1/2+y,z
6 1/2-x,1/2-y,1/2+z
7 1/2-x,1/2+y,1/2-z
8 1/2+x,1/2-y,-z
_cell_length_a                   18.061(4)
_cell_length_b                   31.309(6)
_cell_length_c                   15.114(3)
_cell_angle_alpha                90
_cell_angle_beta                 90
_cell_angle_gamma                90
_cell_volume                     8546.54
loop_
_atom_site_label
_atom_site_type_symbol
_atom_site_fract_x
_atom_site_fract_y
_atom_site_fract_z
C1 C 0.8812(3) 0.75882(16) 0.2635(4)
H1 H 0.8715 0.7667 0.3217
C2 C 0.8744(3) 0.72926(19) 0.1358(4)
H2 H 0.8577 0.7129 0.0884
C3 C 0.9356(3) 0.75273(19) 0.1362(4)
H3 H 0.9694 0.7553 0.0901
C4 C 1.0000 0.7993(2) 0.2500
C5 C 0.6000(3) 0.76459(15) 0.2414(4)
H4 H 0.5905 0.7555 0.1840
C6 C 0.6485(3) 0.77241(18) 0.3694(4)
H5 H 0.6801 0.7692 0.4175
C7 C 0.5912(3) 0.7990(2) 0.3665(4)
H6 H 0.5754 0.8173 0.4112
C8 C 0.5000 0.8211(2) 0.2500
C9 C 0.7148(3) 0.66618(17) 0.0946(3)
C10 C 0.7237(3) 0.64610(16) 0.0048(3)
C11 C 0.7827(3) 0.61905(19) -0.0103(3)
H7 H 0.8156 0.6133 0.0356
C12 C 0.7941(3) 0.60040(18) -0.0919(4)
H8 H 0.8348 0.5829 -0.1019
C13 C 0.7440(4) 0.60830(17) -0.1578(3)
C14 C 0.6841(3) 0.63394(18) -0.1454(3)
H9 H 0.6504 0.6385 -0.1910
C15 C 0.6741(3) 0.65320(17) -0.0636(3)
H10 H 0.6337 0.6711 -0.0546
C16 C 0.7509(3) 0.60793(18) -0.3166(3)
C17 C 0.7687(3) 0.65040(18) -0.3250(3)
H11 H 0.7812 0.6664 -0.2754
C18 C 0.7679(3) 0.66902(17) -0.4075(3)
H12 H 0.7803 0.6977 -0.4131
C19 C 0.7489(3) 0.64590(18) -0.4820(3)
C20 C 0.7305(4) 0.60329(19) -0.4707(3)
H13 H 0.7169 0.5872 -0.5198
C21 C 0.7318(4) 0.58434(18) -0.3893(3)
H14 H 0.7197 0.5556 -0.3833
C22 C 0.7487(3) 0.6657(2) -0.5721(3)
Cd2 Cd 0.73635(2) 0.698725(12) 0.26197(2)
N1 N 0.8393(2) 0.73287(14) 0.2168(3)
N2 N 0.9396(2) 0.77245(13) 0.2168(3)
N3 N 0.6544(2) 0.75033(13) 0.2913(3)
N4 N 0.5603(2) 0.79402(13) 0.2848(3)
O1 O 0.7511(3) 0.65001(11) 0.1564(2)
O2 O 0.6753(2) 0.69820(13) 0.1046(2)
O3 O 0.7741(2) 0.70268(13) -0.5821(2)
O4 O 0.7238(2) 0.64434(12) -0.6358(2)
O9 O 0.7549(2) 0.58598(10) -0.2374(2)
C1B C 1.1188(3) 0.75882(16) 0.2365(4)
H1B H 1.1285 0.7667 0.1783
C2B C 1.1256(3) 0.72926(19) 0.3642(4)
H2B H 1.1423 0.7129 0.4116
C3B C 1.0644(3) 0.75273(19) 0.3638(4)
H3B H 1.0306 0.7553 0.4099
C5B C 0.4000(3) 0.76459(15) 0.2586(4)
H4B H 0.4095 0.7555 0.3160
C6B C 0.3515(3) 0.77241(18) 0.1306(4)
H5B H 0.3199 0.7692 0.0825
C7B C 0.4088(3) 0.7990(2) 0.1335(4)
H6B H 0.4246 0.8173 0.0888
C9B C 1.2852(3) 0.66618(17) 0.4054(3)
C10B C 1.2763(3) 0.64610(16) 0.4952(3)
C11B C 1.2173(3) 0.61905(19) 0.5103(3)
H7B H 1.1844 0.6133 0.4644
C12B C 1.2059(3) 0.60040(18) 0.5919(4)
H8B H 1.1652 0.5829 0.6019
C13B C 1.2560(4) 0.60830(17) 0.6578(3)
C14B C 1.3159(3) 0.63394(18) 0.6454(3)
H9B H 1.3496 0.6385 0.6910
C15B C 1.3259(3) 0.65320(17) 0.5636(3)
H10B H 1.3663 0.6711 0.5546
C16B C 1.2491(3) 0.60793(18) 0.8166(3)
C17B C 1.2313(3) 0.65040(18) 0.8250(3)
H11B H 1.2188 0.6664 0.7754
C18B C 1.2321(3) 0.66902(17) 0.9075(3)
H12B H 1.2197 0.6977 0.9131
C19B C 1.2511(3) 0.64590(18) 0.9820(3)
C20B C 1.2695(4) 0.60329(19) 0.9707(3)
H13B H 1.2831 0.5872 1.0198
C21B C 1.2682(4) 0.58434(18) 0.8893(3)
H14B H 1.2803 0.5556 0.8833
C22B C 1.2513(3) 0.6657(2) 1.0721(3)
Cd2B Cd 1.26365(2) 0.698725(12) 0.23803(2)
Cd2_2 Cd 0.73635(2) 0.698725(12) -0.73803(2)
Cd2B_2 Cd 0.26365(2) 0.698725(12) 0.23803(2)
Cd2B_3 Cd 1.26365(2) 0.698725(12) 1.23803(2)
N1B N 1.1607(2) 0.73287(14) 0.2832(3)
N2B N 1.0604(2) 0.77245(13) 0.2832(3)
N3B N 0.3456(2) 0.75033(13) 0.2087(3)
N3B_2 N 1.3456(2) 0.75033(13) 0.2087(3)
N4B N 0.4397(2) 0.79402(13) 0.2152(3)
O1B O 1.2489(3) 0.65001(11) 0.3436(2)
O2B O 1.3247(2) 0.69820(13) 0.3954(2)
O3_2 O 0.7741(2) 0.70268(13) 0.4179(2)
O3B O 1.2259(2) 0.70268(13) 0.0821(2)
O3B_2 O 1.2259(2) 0.70268(13) 1.0821(2)
O4_2 O 0.7238(2) 0.64434(12) 0.3642(2)
O4B O 1.2762(2) 0.64434(12) 0.1358(2)
O4B_2 O 1.2762(2) 0.64434(12) 1.1358(2)
O9B O 1.2451(2) 0.58598(10) 0.7374(2)
C23 C 0.4969(4) 0.92100(17) 0.0834(4)
C24 C 0.5001(4) 0.90108(14) -0.0063(3)
C25 C 0.4579(3) 0.91708(18) -0.0752(3)
H15 H 0.4294 0.9414 -0.0658
C26 C 0.4567(3) 0.89807(18) -0.1571(4)
H16 H 0.4268 0.9088 -0.2019
C27 C 0.5006(4) 0.86286(15) -0.1716(3)
C28 C 0.5439(3) 0.84649(18) -0.1049(4)
H17 H 0.5737 0.8228 -0.1156
C29 C 0.5431(3) 0.86496(17) -0.0227(3)
H18 H 0.5716 0.8533 0.0225
C30 C 0.9913(4) 0.90615(17) 0.4189(3)
C31 C 0.9951(4) 0.88530(15) 0.5074(3)
C32 C 1.0362(3) 0.84845(19) 0.5202(4)
H19 H 1.0621 0.8367 0.4730
C33 C 1.0392(3) 0.82911(18) 0.6009(4)
H20 H 1.0686 0.8050 0.6089
C34 C 0.9990(4) 0.84507(14) 0.6703(3)
C35 C 0.9567(3) 0.88107(18) 0.6589(4)
H21 H 0.9296 0.8919 0.7062
C36 C 0.9541(3) 0.90112(17) 0.5790(3)
H22 H 0.9251 0.9254 0.5719
C37 C 0.8562(3) 0.99799(17) 0.2739(4)
H23 H 0.8399 0.9824 0.3226
C38 C 0.9157(3) 1.01813(19) 0.1611(4)
H24 H 0.9500 1.0189 0.1151
C39 C 0.8638(3) 1.04764(19) 0.1750(4)
H25 H 0.8552 1.0722 0.1419
C40 C 0.7605(3) 1.05430(18) 0.2844(5)
H26 H 0.7592 1.0490 0.3476
H27 H 0.7629 1.0850 0.2754
C41 C 0.6490(3) 1.00783(16) 0.2771(4)
H28 H 0.6553 0.9955 0.3325
C42 C 0.6661(4) 1.0466(2) 0.1615(5)
H29 H 0.6852 1.0661 0.1213
C43 C 0.6073(3) 1.0218(2) 0.1497(4)
H30 H 0.5781 1.0210 0.0990
Cd1 Cd 1.0000 0.937379(15) 0.2500
Cd3 Cd 0.5000 0.953652(16) 0.2500
N5 N 0.9120(2) 0.98676(13) 0.2228(3)
N6 N 0.8264(2) 1.03454(12) 0.2469(3)
N7 N 0.6935(2) 1.03783(12) 0.2442(4)
N8 N 0.5963(2) 0.99777(14) 0.2238(3)
O5 O 0.4611(2) 0.95479(14) 0.0953(3)
O6 O 0.5301(3) 0.90309(11) 0.1460(2)
O7 O 0.9607(3) 0.94193(12) 0.4097(3)
O8 O 1.0197(2) 0.88632(11) 0.3532(2)
O10 O 0.5000 0.84039(15) -0.2500
O11 O 1.0000 0.82281(14) 0.7500
C23B C 0.5031(4) 0.92100(17) -0.5834(4)
C24B C 0.4999(4) 0.90108(14) -0.4937(3)
C25B C 0.5421(3) 0.91708(18) -0.4248(3)
H15B H 0.5706 0.9414 -0.4342
C26B C 0.5433(3) 0.89807(18) -0.3429(4)
H16B H 0.5732 0.9088 -0.2981
C27B C 0.4994(4) 0.86286(15) -0.3284(3)
C28B C 0.4561(3) 0.84649(18) -0.3951(4)
H17B H 0.4263 0.8228 -0.3844
C29B C 0.4569(3) 0.86496(17) -0.4773(3)
H18B H 0.4284 0.8533 -0.5225
C30B C 1.0087(4) 0.90615(17) 1.0811(3)
C31B C 1.0049(4) 0.88530(15) 0.9926(3)
C32B C 0.9638(3) 0.84845(19) 0.9798(4)
H19B H 0.9379 0.8367 1.0270
C33B C 0.9608(3) 0.82911(18) 0.8991(4)
H20B H 0.9314 0.8050 0.8911
C34B C 1.0010(4) 0.84507(14) 0.8297(3)
C35B C 1.0433(3) 0.88107(18) 0.8411(4)
H21B H 1.0704 0.8919 0.7938
C36B C 1.0459(3) 0.90112(17) 0.9210(3)
H22B H 1.0749 0.9254 0.9281
C37B C 1.1438(3) 0.99799(17) 0.2261(4)
H23B H 1.1601 0.9824 0.1774
C38B C 1.0843(3) 1.01813(19) 0.3389(4)
H24B H 1.0500 1.0189 0.3849
C39B C 1.1362(3) 1.04764(19) 0.3250(4)
H25B H 1.1448 1.0722 0.3581
C40B C 1.2395(3) 1.05430(18) 0.2156(5)
H26B H 1.2408 1.0490 0.1524
H27B H 1.2371 1.0850 0.2246
C41B C 1.3510(3) 1.00783(16) 0.2229(4)
H28B H 1.3447 0.9955 0.1675
C42B C 1.3339(4) 1.0466(2) 0.3385(5)
H29B H 1.3148 1.0661 0.3787
C43B C 1.3927(3) 1.0218(2) 0.3503(4)
H30B H 1.4219 1.0210 0.4010
Cd1_2 Cd 1.0000 0.937379(15) 1.2500
Cd3_2 Cd 0.5000 0.953652(16) -0.7500
Cd3_3 Cd 1.5000 0.953652(16) 0.2500
N5B N 1.0880(2) 0.98676(13) 0.2772(3)
N6B N 1.1736(2) 1.03454(12) 0.2531(3)
N7B N 1.3065(2) 1.03783(12) 0.2558(4)
N8B N 1.4037(2) 0.99777(14) 0.2762(3)
N8B_2 N 0.4037(2) 0.99777(14) 0.2762(3)
O5B O 0.5389(2) 0.95479(14) -0.5953(3)
O5B_2 O 0.5389(2) 0.95479(14) 0.4047(3)
O6B O 0.4699(3) 0.90309(11) -0.6460(2)
O6B_2 O 0.4699(3) 0.90309(11) 0.3540(2)
O7B O 1.0393(3) 0.94193(12) 1.0903(3)
O7B_2 O 1.0393(3) 0.94193(12) 0.0903(3)
O8B O 0.9803(2) 0.88632(11) 1.1468(2)
O8B_2 O 0.9803(2) 0.88632(11) 0.1468(2)
O12 O 0.5992(3) 0.75287(13) -0.0080(3)
O13 O 0.1232(4) 0.0000 0.0000
O14 O 0.2836(9) 0.0000 0.0000
loop_
_geom_bond_atom_site_label_1
_geom_bond_atom_site_label_2
_geom_bond_site_symmetry_1
_geom_bond_site_symmetry_2
C1 H1 1_555 1_555
C2 H2 1_555 1_555
C3 C2 1_555 1_555
H3 C3 1_555 1_555
C4 N2 1_555 1_555
C5 H4 1_555 1_555
C6 H5 1_555 1_555
C7 C6 1_555 1_555
H6 C7 1_555 1_555
C8 N4 1_555 1_555
C9 C10 1_555 1_555
C10 C11 1_555 1_555
C11 H7 1_555 1_555
C12 C11 1_555 1_555
H8 C12 1_555 1_555
C13 C12 1_555 1_555
C14 C13 1_555 1_555
H9 C14 1_555 1_555
C15 C10 1_555 1_555
H10 C15 1_555 1_555
C16 C17 1_555 1_555
C17 H11 1_555 1_555
C18 C17 1_555 1_555
H12 C18 1_555 1_555
C19 C18 1_555 1_555
C20 C19 1_555 1_555
H13 C20 1_555 1_555
C21 C16 1_555 1_555
H14 C21 1_555 1_555
C22 C19 1_555 1_555
C23 C24 1_555 1_555
C24 C25 1_555 1_555
C25 H15 1_555 1_555
C26 C25 1_555 1_555
H16 C26 1_555 1_555
C27 C26 1_555 1_555
C28 C27 1_555 1_555
H17 C28 1_555 1_555
C29 C24 1_555 1_555
H18 C29 1_555 1_555
C30 C31 1_555 1_555
C31 C32 1_555 1_555
C32 H19 1_555 1_555
C33 C32 1_555 1_555
H20 C33 1_555 1_555
C34 C33 1_555 1_555
C35 C34 1_555 1_555
H21 C35 1_555 1_555
C36 C31 1_555 1_555
H22 C36 1_555 1_555
C37 H23 1_555 1_555
C38 H24 1_555 1_555
C39 C38 1_555 1_555
H25 C39 1_555 1_555
C40 H26 1_555 1_555
H27 C40 1_555 1_555
C41 H28 1_555 1_555
C42 H29 1_555 1_555
C43 C42 1_555 1_555
H30 C43 1_555 1_555
Cd1 N5 1_555 1_555
Cd2 N1 1_555 1_555
Cd3 N8 1_555 1_555
N1 C1 1_555 1_555
N2 C1 1_555 1_555
N3 C5 1_555 1_555
N4 C5 1_555 1_555
N5 C37 1_555 1_555
N6 C37 1_555 1_555
N7 C40 1_555 1_555
N8 C41 1_555 1_555
O1 C9 1_555 1_555
O2 C9 1_555 1_555
O3 C22 1_555 1_555
O4 C22 1_555 1_555
O5 C23 1_555 1_555
O6 C23 1_555 1_555
O7 C30 1_555 1_555
O8 C30 1_555 1_555
O9 C13 1_555 1_555
O10 C27 1_555 1_555
O11 C34 1_555 1_555
C1B H1B 1_555 1_555
C2B H2B 1_555 1_555
C3B C2B 1_555 1_555
H3B C3B 1_555 1_555
C5B H4B 1_555 1_555
C6B H5B 1_555 1_555
C7B C6B 1_555 1_555
H6B C7B 1_555 1_555
C9B C10B 1_555 1_555
C10B C11B 1_555 1_555
C11B H7B 1_555 1_555
C12B C11B 1_555 1_555
H8B C12B 1_555 1_555
C13B C12B 1_555 1_555
C14B C13B 1_555 1_555
H9B C14B 1_555 1_555
C15B C10B 1_555 1_555
H10B C15B 1_555 1_555
C16B C17B 1_555 1_555
C17B H11B 1_555 1_555
C18B C17B 1_555 1_555
H12B C18B 1_555 1_555
C19B C18B 1_555 1_555
C20B C19B 1_555 1_555
H13B C20B 1_555 1_555
C21B C16B 1_555 1_555
H14B C21B 1_555 1_555
C22B C19B 1_555 1_555
C23B C24B 1_555 1_555
C24B C25B 1_555 1_555
C25B H15B 1_555 1_555
C26B C25B 1_555 1_555
H16B C26B 1_555 1_555
C27B O10 1_555 1_555
C28B C27B 1_555 1_555
H17B C28B 1_555 1_555
C29B C24B 1_555 1_555
H18B C29B 1_555 1_555
C30B C31B 1_555 1_555
C31B C32B 1_555 1_555
C32B H19B 1_555 1_555
C33B C32B 1_555 1_555
H20B C33B 1_555 1_555
C34B O11 1_555 1_555
C35B C34B 1_555 1_555
H21B C35B 1_555 1_555
C36B C31B 1_555 1_555
H22B C36B 1_555 1_555
C37B H23B 1_555 1_555
C38B H24B 1_555 1_555
C39B C38B 1_555 1_555
H25B C39B 1_555 1_555
C40B H26B 1_555 1_555
H27B C40B 1_555 1_555
C41B H28B 1_555 1_555
C42B H29B 1_555 1_555
C43B C42B 1_555 1_555
H30B C43B 1_555 1_555
Cd1_2 O7B 1_555 1_555
Cd2B N1B 1_555 1_555
Cd2_2 O3 1_555 1_555
Cd2B_2 N3B 1_555 1_555
Cd2B_3 O3B_2 1_555 1_555
Cd3_2 O5B 1_555 1_555
Cd3_3 N8B 1_555 1_555
N1B C1B 1_555 1_555
N2B C4 1_555 1_555
N3B C5B 1_555 1_555
N3B_2 Cd2B 1_555 1_555
N4B C8 1_555 1_555
N5B Cd1 1_555 1_555
N6B C37B 1_555 1_555
N7B C40B 1_555 1_555
N8B C41B 1_555 1_555
N8B_2 Cd3 1_555 1_555
O1B C9B 1_555 1_555
O2B C9B 1_555 1_555
O3_2 Cd2 1_555 1_555
O3B Cd2B 1_555 1_555
O3B_2 C22B 1_555 1_555
O4_2 Cd2 1_555 1_555
O4B Cd2B 1_555 1_555
O4B_2 C22B 1_555 1_555
O5B C23B 1_555 1_555
O5B_2 Cd3 1_555 1_555
O6B C23B 1_555 1_555
O6B_2 Cd3 1_555 1_555
O7B C30B 1_555 1_555
O7B_2 Cd1 1_555 1_555
O8B C30B 1_555 1_555
O8B_2 Cd1 1_555 1_555
O9B C13B 1_555 1_555
C2 N1 1_555 1_555
C3 N2 1_555 1_555
C6 N3 1_555 1_555
C7 N4 1_555 1_555
C14 C15 1_555 1_555
C16 O9 1_555 1_555
C20 C21 1_555 1_555
C28 C29 1_555 1_555
C35 C36 1_555 1_555
C38 N5 1_555 1_555
C39 N6 1_555 1_555
C40 N6 1_555 1_555
C41 N7 1_555 1_555
C42 N7 1_555 1_555
C43 N8 1_555 1_555
Cd1 O7 1_555 1_555
Cd1 O8 1_555 1_555
Cd2 N3 1_555 1_555
Cd2 O1 1_555 1_555
Cd2 O2 1_555 1_555
Cd3 O5 1_555 1_555
Cd3 O6 1_555 1_555
O4 Cd2_2 1_555 1_555
C1B N2B 1_555 1_555
C2B N1B 1_555 1_555
C3B N2B 1_555 1_555
C5B N4B 1_555 1_555
C6B N3B 1_555 1_555
C7B N4B 1_555 1_555
C14B C15B 1_555 1_555
C16B O9B 1_555 1_555
C20B C21B 1_555 1_555
C26B C27B 1_555 1_555
C28B C29B 1_555 1_555
C33B C34B 1_555 1_555
C35B C36B 1_555 1_555
C37B N5B 1_555 1_555
C38B N5B 1_555 1_555
C39B N6B 1_555 1_555
C40B N6B 1_555 1_555
C41B N7B 1_555 1_555
C42B N7B 1_555 1_555
C43B N8B 1_555 1_555
Cd1_2 O8B 1_555 1_555
Cd2B O1B 1_555 1_555
Cd2B O2B 1_555 1_555
Cd2B_3 O4B_2 1_555 1_555
Cd3_2 O6B 1_555 1_555

#END
