
#######################################################################
#
#                 Cambridge Crystallographic Data Centre
#                                CCDC 
#
#######################################################################
#
# If this CIF has been generated from an entry in the Cambridge 
# Structural Database, then it will include bibliographic, chemical, 
# crystal, experimental, refinement or atomic coordinate data resulting 
# from the CCDC's data processing and validation procedures.
#
#######################################################################

data_CAXYIL
_symmetry_cell_setting           monoclinic
_symmetry_space_group_name_H-M   'P 21/n'
_symmetry_Int_Tables_number      14
_space_group_name_Hall           '-P 2yn'
loop_
_symmetry_equiv_pos_site_id
_symmetry_equiv_pos_as_xyz
1 x,y,z
2 1/2-x,1/2+y,1/2-z
3 -x,-y,-z
4 1/2+x,1/2-y,1/2+z
_cell_length_a                   10.100(2)
_cell_length_b                   22.427(5)
_cell_length_c                   11.398(2)
_cell_angle_alpha                90
_cell_angle_beta                 101.35(3)
_cell_angle_gamma                90
_cell_volume                     2531.3
loop_
_atom_site_label
_atom_site_type_symbol
_atom_site_fract_x
_atom_site_fract_y
_atom_site_fract_z
C1 C 0.1518(5) 0.8514(2) 0.0240(4)
C2 C 0.1420(5) 0.9122(2) -0.0326(4)
C3 C 0.0993(5) 0.9198(2) -0.1538(4)
H1 H 0.0742 0.8870 -0.2032
C4 C 0.0938(5) 0.9770(2) -0.2020(4)
C5 C 0.1312(5) 1.0258(2) -0.1291(4)
H2 H 0.1264 1.0638 -0.1620
C6 C 0.1755(5) 1.0183(2) -0.0080(5)
C7 C 0.1798(5) 0.9613(2) 0.0393(5)
H3 H 0.2088 0.9559 0.1212
C8 C 0.0501(5) 0.9875(2) -0.3318(5)
C9 C 0.2171(5) 1.0708(2) 0.0704(5)
C10 C 0.1509(5) 0.6246(2) 0.0341(5)
C11 C 0.1434(5) 0.5643(2) -0.0234(4)
C12 C 0.1803(5) 0.5134(2) 0.0433(4)
H4 H 0.2091 0.5166 0.1257
C13 C 0.1756(5) 0.4582(2) -0.0091(4)
C14 C 0.1322(5) 0.4528(2) -0.1325(4)
H5 H 0.1279 0.4156 -0.1691
C15 C 0.0960(5) 0.5034(2) -0.1992(4)
C16 C 0.0990(5) 0.5586(2) -0.1447(4)
H6 H 0.0707 0.5922 -0.1906
C17 C 0.2134(6) 0.4037(2) 0.0656(5)
C18 C 0.0514(5) 0.5007(2) -0.3316(5)
C19 C -0.0900(5) 0.7755(2) 0.1446(5)
H7 H -0.0979 0.8043 0.0848
C20 C -0.0148(6) 0.7044(2) 0.2632(5)
H8 H 0.0408 0.6741 0.3009
C21 C -0.1334(6) 0.7206(2) 0.2896(5)
H9 H -0.1747 0.7042 0.3482
C22 C -0.3044(5) 0.7998(2) 0.2061(5)
H10 H -0.3030 0.8341 0.1545
H11 H -0.3102 0.8142 0.2852
C23 C -0.4296(6) 0.7168(3) 0.0839(6)
H12 H -0.3592 0.6992 0.0549
C24 C -0.5600(6) 0.7012(3) 0.0593(6)
H13 H -0.5951 0.6702 0.0083
C25 C -0.5470(6) 0.7737(3) 0.1774(5)
H14 H -0.5691 0.8038 0.2263
N1 N 0.0111(4) 0.73927(18) 0.1722(4)
N2 N -0.1817(4) 0.7664(2) 0.2130(4)
N3 N -0.4216(4) 0.7637(2) 0.1598(4)
N4 N -0.6344(4) 0.73642(19) 0.1183(4)
O1 O 0.1244(4) 0.80632(15) -0.0414(3)
O2 O 0.1860(4) 0.84632(15) 0.1358(3)
O3 O 0.0125(4) 0.94199(17) -0.3964(3)
H15 H -0.0137 0.9525 -0.4661
O4 O 0.0528(4) 1.03873(16) -0.3730(3)
O5 O 0.2450(5) 1.05623(16) 0.1828(3)
H16 H 0.2642 1.0863 0.2236
O6 O 0.2237(4) 1.12053(16) 0.0332(3)
O7 O 0.1287(4) 0.66911(14) -0.0333(3)
O8 O 0.1780(4) 0.62943(15) 0.1447(3)
O9 O 0.2483(5) 0.41700(16) 0.1785(3)
H17 H 0.2652 0.3863 0.2177
O10 O 0.2093(5) 0.35442(17) 0.0266(3)
O11 O 0.0481(4) 0.44909(16) -0.3791(3)
H18 H 0.0336 0.4524 -0.4521
O12 O 0.0220(4) 0.54760(17) -0.3882(3)
Zn1 Zn 0.16344(6) 0.73885(3) 0.08370(6)
N4_2 N 0.3656(4) 0.73642(19) 0.1183(4)
Zn1_2 Zn -0.83656(6) 0.73885(3) 0.08370(6)
loop_
_geom_bond_atom_site_label_1
_geom_bond_atom_site_label_2
_geom_bond_site_symmetry_1
_geom_bond_site_symmetry_2
C1 C2 1_555 1_555
C2 C3 1_555 1_555
C3 H1 1_555 1_555
C4 C3 1_555 1_555
C5 C4 1_555 1_555
H2 C5 1_555 1_555
C6 C5 1_555 1_555
C7 C2 1_555 1_555
H3 C7 1_555 1_555
C8 C4 1_555 1_555
C9 C6 1_555 1_555
C10 C11 1_555 1_555
C11 C12 1_555 1_555
C12 H4 1_555 1_555
C13 C12 1_555 1_555
C14 C13 1_555 1_555
H5 C14 1_555 1_555
C15 C14 1_555 1_555
C16 C11 1_555 1_555
H6 C16 1_555 1_555
C17 C13 1_555 1_555
C18 C15 1_555 1_555
C19 H7 1_555 1_555
C20 H8 1_555 1_555
C21 C20 1_555 1_555
H9 C21 1_555 1_555
C22 H10 1_555 1_555
H11 C22 1_555 1_555
C23 H12 1_555 1_555
C24 C23 1_555 1_555
H13 C24 1_555 1_555
C25 H14 1_555 1_555
N1 C19 1_555 1_555
N2 C19 1_555 1_555
N3 C22 1_555 1_555
N4 C24 1_555 1_555
O1 C1 1_555 1_555
O2 C1 1_555 1_555
O3 C8 1_555 1_555
H15 O3 1_555 1_555
O4 C8 1_555 1_555
O5 C9 1_555 1_555
H16 O5 1_555 1_555
O6 C9 1_555 1_555
O7 C10 1_555 1_555
O8 C10 1_555 1_555
O9 C17 1_555 1_555
H17 O9 1_555 1_555
O10 C17 1_555 1_555
O11 C18 1_555 1_555
H18 O11 1_555 1_555
O12 C18 1_555 1_555
Zn1 N1 1_555 1_555
N4_2 Zn1 1_555 1_555
Zn1_2 N4 1_555 1_555
C6 C7 1_555 1_555
C15 C16 1_555 1_555
C20 N1 1_555 1_555
C21 N2 1_555 1_555
C22 N2 1_555 1_555
C23 N3 1_555 1_555
C25 N3 1_555 1_555
C25 N4 1_555 1_555
O1 Zn1 1_555 1_555
O2 Zn1 1_555 1_555
O7 Zn1 1_555 1_555
O8 Zn1 1_555 1_555

#END
