
#######################################################################
#
#                 Cambridge Crystallographic Data Centre
#                                CCDC 
#
#######################################################################
#
# If this CIF has been generated from an entry in the Cambridge 
# Structural Database, then it will include bibliographic, chemical, 
# crystal, experimental, refinement or atomic coordinate data resulting 
# from the CCDC's data processing and validation procedures.
#
#######################################################################

data_CAXYOR
_symmetry_cell_setting           monoclinic
_symmetry_space_group_name_H-M   'P 21/n'
_symmetry_Int_Tables_number      14
_space_group_name_Hall           '-P 2yn'
loop_
_symmetry_equiv_pos_site_id
_symmetry_equiv_pos_as_xyz
1 x,y,z
2 1/2-x,1/2+y,1/2-z
3 -x,-y,-z
4 1/2+x,1/2-y,1/2+z
_cell_length_a                   8.8150(18)
_cell_length_b                   14.859(3)
_cell_length_c                   15.580(3)
_cell_angle_alpha                90
_cell_angle_beta                 92.25(3)
_cell_angle_gamma                90
_cell_volume                     2039.13
loop_
_atom_site_label
_atom_site_type_symbol
_atom_site_fract_x
_atom_site_fract_y
_atom_site_fract_z
C1 C 0.0200(10) 1.0881(7) 0.6795(7)
C2 C -0.0510(10) 0.9992(6) 0.6549(6)
C3 C -0.0326(12) 0.9265(6) 0.7104(6)
H1 H 0.0264 0.9326 0.7609
C4 C -0.1009(13) 0.8460(6) 0.6911(7)
H2 H -0.0884 0.7976 0.7287
C5 C -0.1872(10) 0.8362(6) 0.6172(6)
C6 C -0.2009(12) 0.9067(6) 0.5597(7)
H3 H -0.2542 0.8991 0.5075
C7 C -0.1352(12) 0.9881(6) 0.5803(7)
H4 H -0.1484 1.0365 0.5428
C8 C 0.0409(15) 0.4215(7) 0.6258(6)
C9 C -0.0414(11) 0.5117(5) 0.6182(5)
C10 C -0.1859(12) 0.5217(6) 0.6437(7)
H5 H -0.2368 0.4719 0.6643
C11 C -0.2597(11) 0.6037(7) 0.6401(7)
H6 H -0.3579 0.6095 0.6591
C12 C -0.1846(10) 0.6765(6) 0.6076(6)
C13 C -0.0397(10) 0.6690(6) 0.5798(6)
H7 H 0.0095 0.7187 0.5576
C14 C 0.0332(10) 0.5858(6) 0.5852(6)
H8 H 0.1317 0.5799 0.5666
C15 C 0.4120(10) 1.1551(6) 0.6764(6)
H9 H 0.3781 1.1126 0.7150
C16 C 0.5469(11) 1.1550(6) 0.6422(6)
H10 H 0.6247 1.1137 0.6529
C17 C 0.4160(10) 1.2692(6) 0.5938(5)
H11 H 0.3887 1.3214 0.5640
C18 C 0.6721(8) 1.2517(7) 0.5314(5)
H12 H 0.6780 1.3167 0.5267
H13 H 0.7677 1.2305 0.5569
C19 C 0.6414(9) 1.2589(6) 0.3736(5)
H14 H 0.6427 1.3214 0.3701
C20 C 0.6198(13) 1.1197(7) 0.3390(6)
H15 H 0.6043 1.0672 0.3074
C21 C 0.6372(13) 1.1256(7) 0.4258(7)
H16 H 0.6390 1.0775 0.4640
N1 N 0.3290(8) 1.2282(4) 0.6457(4)
N2 N 0.5500(7) 1.2281(5) 0.5877(4)
N3 N 0.6514(8) 1.2140(5) 0.4472(4)
N4 N 0.6293(8) 1.2062(5) 0.3059(4)
O1 O -0.0120(8) 1.1555(4) 0.6308(5)
O2 O 0.1061(9) 1.0939(5) 0.7437(5)
O3 O 0.1830(9) 0.4185(5) 0.6177(5)
O4 O -0.0387(9) 0.3542(5) 0.6430(4)
O5 O -0.2638(6) 0.7569(4) 0.5988(4)
Zn1 Zn 0.11209(11) 1.25868(6) 0.67977(6)
N4C N 0.1293(8) 1.2938(5) 0.8059(4)
O4_2 O -0.0387(9) 1.3542(5) 0.6430(4)
Zn1C Zn 0.61209(11) 1.24132(6) 0.17977(6)
Zn1_2 Zn 0.11209(11) 0.25868(6) 0.67977(6)
O6 O 0.4009(9) 0.5309(6) 0.5607(7)
H17 H 0.3541 0.4838 0.5843
H18 H 0.4892 0.5298 0.5849
loop_
_geom_bond_atom_site_label_1
_geom_bond_atom_site_label_2
_geom_bond_site_symmetry_1
_geom_bond_site_symmetry_2
C1 C2 1_555 1_555
C2 C3 1_555 1_555
C3 H1 1_555 1_555
C4 C3 1_555 1_555
H2 C4 1_555 1_555
C5 C4 1_555 1_555
C6 C5 1_555 1_555
H3 C6 1_555 1_555
C7 C2 1_555 1_555
H4 C7 1_555 1_555
C8 C9 1_555 1_555
C9 C10 1_555 1_555
C10 H5 1_555 1_555
C11 C10 1_555 1_555
H6 C11 1_555 1_555
C12 C11 1_555 1_555
C13 C12 1_555 1_555
H7 C13 1_555 1_555
C14 C9 1_555 1_555
H8 C14 1_555 1_555
C15 H9 1_555 1_555
C16 C15 1_555 1_555
H10 C16 1_555 1_555
C17 H11 1_555 1_555
C18 H12 1_555 1_555
H13 C18 1_555 1_555
C19 H14 1_555 1_555
C20 H15 1_555 1_555
C21 C20 1_555 1_555
H16 C21 1_555 1_555
N1 C15 1_555 1_555
N2 C16 1_555 1_555
N3 C18 1_555 1_555
N4 C19 1_555 1_555
O1 C1 1_555 1_555
O2 C1 1_555 1_555
O3 C8 1_555 1_555
O4 C8 1_555 1_555
O5 C5 1_555 1_555
Zn1 N1 1_555 1_555
O6 H17 1_555 1_555
H18 O6 1_555 1_555
N4C Zn1 1_555 1_555
O4_2 Zn1 1_555 1_555
Zn1C N4 1_555 1_555
Zn1_2 O4 1_555 1_555
C6 C7 1_555 1_555
C12 O5 1_555 1_555
C13 C14 1_555 1_555
C17 N1 1_555 1_555
C17 N2 1_555 1_555
C18 N2 1_555 1_555
C19 N3 1_555 1_555
C20 N4 1_555 1_555
C21 N3 1_555 1_555
O1 Zn1 1_555 1_555

#END
