
#######################################################################
#
#                 Cambridge Crystallographic Data Centre
#                                CCDC 
#
#######################################################################
#
# If this CIF has been generated from an entry in the Cambridge 
# Structural Database, then it will include bibliographic, chemical, 
# crystal, experimental, refinement or atomic coordinate data resulting 
# from the CCDC's data processing and validation procedures.
#
#######################################################################

data_CAYHOB
_symmetry_cell_setting           triclinic
_symmetry_space_group_name_H-M   'P -1'
_symmetry_Int_Tables_number      2
_space_group_name_Hall           '-P 1'
loop_
_symmetry_equiv_pos_site_id
_symmetry_equiv_pos_as_xyz
1 x,y,z
2 -x,-y,-z
_cell_length_a                   7.1015(3)
_cell_length_b                   9.3503(4)
_cell_length_c                   10.0191(4)
_cell_angle_alpha                116.376(4)
_cell_angle_beta                 91.428(4)
_cell_angle_gamma                91.882(4)
_cell_volume                     595.121
loop_
_atom_site_label
_atom_site_type_symbol
_atom_site_fract_x
_atom_site_fract_y
_atom_site_fract_z
C1 C 0.3100(2) 0.35032(18) 0.66113(18)
C2 C 0.0006(2) 0.32582(19) 0.27889(17)
C3 C 0.3584(2) 0.32255(18) 0.41141(17)
C4 C -0.1827(2) 0.0961(2) 0.26358(18)
C5 C 0.0530(2) 0.23804(17) 0.47255(17)
C6 C 0.2362(2) 0.30740(18) 0.51526(17)
C7 C -0.0476(2) 0.22349(18) 0.34472(17)
C8 C -0.2163(2) 0.1753(2) 0.58640(19)
C9 C -0.2368(3) 0.1514(2) 0.72513(19)
C10 C -0.1448(2) 0.2843(2) 0.86649(19)
N1 N 0.37230(18) 0.38466(16) 0.77882(15)
N2 N 0.0383(2) 0.41147(17) 0.22835(16)
N3 N 0.4564(2) 0.33009(17) 0.32496(16)
N4 N -0.2860(2) -0.01005(18) 0.19363(16)
O1 O -0.01457(14) 0.18047(12) 0.56389(12)
O2 O -0.23370(16) 0.43431(14) 0.90994(13)
O3 O 0.47361(18) 0.29083(15) 1.02722(16)
Fe1 Fe 0.5000 0.5000 1.0000
H1 H 0.478(3) 0.296(2) 1.109(3)
H2 H 0.416(3) 0.213(3) 0.969(2)
H3 H -0.182(3) 0.482(2) 0.876(2)
H4 H -0.269(2) 0.277(2) 0.5966(18)
H5 H -0.270(2) 0.086(2) 0.5015(19)
H6 H -0.181(2) 0.051(2) 0.7093(19)
H7 H -0.370(3) 0.140(2) 0.736(2)
H8 H -0.005(3) 0.303(2) 0.8524(19)
H9 H -0.161(3) 0.255(2) 0.953(2)
C1A C 0.6900(2) 0.64968(18) 1.33887(18)
C2A C 0.9994(2) 0.67418(19) 1.72111(17)
C3A C 0.6416(2) 0.67745(18) 1.58859(17)
C4A C 1.1827(2) 0.9039(2) 1.73642(18)
C5A C 0.9470(2) 0.76196(17) 1.52745(17)
C6A C 0.7638(2) 0.69260(18) 1.48474(17)
C7A C 1.0476(2) 0.77651(18) 1.65528(17)
C8A C 1.2163(2) 0.8247(2) 1.41360(19)
C9A C 1.2368(3) 0.8486(2) 1.27487(19)
C10A C 1.1448(2) 0.7157(2) 1.13351(19)
N1A N 0.62770(18) 0.61534(16) 1.22118(15)
N2A N 0.9617(2) 0.58853(17) 1.77165(16)
N3A N 0.5436(2) 0.66991(17) 1.67504(16)
N4A N 1.2860(2) 1.01005(18) 1.80637(16)
O1A O 1.01457(14) 0.81953(12) 1.43611(12)
O2A O 1.23370(16) 0.56569(14) 1.09006(13)
O2A_2 O 0.23370(16) 0.56569(14) 1.09006(13)
O2_2 O 0.76630(16) 0.43431(14) 0.90994(13)
O3A O 0.52639(18) 0.70917(15) 0.97278(16)
Fe1_2 Fe -0.5000 0.5000 1.0000
Fe1_3 Fe 1.5000 0.5000 1.0000
H1A H 0.522(3) 0.704(2) 0.891(3)
H2A H 0.584(3) 0.787(3) 1.031(2)
H3A H 1.182(3) 0.518(2) 1.124(2)
H3A_2 H 0.182(3) 0.518(2) 1.124(2)
H3_2 H 0.818(3) 0.482(2) 0.876(2)
H4A H 1.269(2) 0.723(2) 1.4034(18)
H5A H 1.270(2) 0.914(2) 1.4985(19)
H6A H 1.181(2) 0.949(2) 1.2907(19)
H7A H 1.370(3) 0.860(2) 1.264(2)
H8A H 1.005(3) 0.697(2) 1.1476(19)
H9A H 1.161(3) 0.745(2) 1.047(2)
loop_
_geom_bond_atom_site_label_1
_geom_bond_atom_site_label_2
_geom_bond_site_symmetry_1
_geom_bond_site_symmetry_2
C1 C6 1_555 1_555
C2 C7 1_555 1_555
C3 C6 1_555 1_555
C4 C7 1_555 1_555
C5 C6 1_555 1_555
C7 C5 1_555 1_555
C8 C9 1_555 1_555
C9 C10 1_555 1_555
C10 O2 1_555 1_555
N1 C1 1_555 1_555
N2 C2 1_555 1_555
N3 C3 1_555 1_555
N4 C4 1_555 1_555
O1 C5 1_555 1_555
O2 H3 1_555 1_555
O3 Fe1 1_555 1_555
Fe1 N1 1_555 1_555
H1 O3 1_555 1_555
H2 O3 1_555 1_555
H4 C8 1_555 1_555
H5 C8 1_555 1_555
H6 C9 1_555 1_555
H7 C9 1_555 1_555
H8 C10 1_555 1_555
H9 C10 1_555 1_555
C1A C6A 1_555 1_555
C2A C7A 1_555 1_555
C3A C6A 1_555 1_555
C4A C7A 1_555 1_555
C5A C6A 1_555 1_555
C7A C5A 1_555 1_555
C8A C9A 1_555 1_555
C9A C10A 1_555 1_555
C10A O2A 1_555 1_555
N1A Fe1 1_555 1_555
N2A C2A 1_555 1_555
N3A C3A 1_555 1_555
N4A C4A 1_555 1_555
O1A C5A 1_555 1_555
O2A Fe1_3 1_555 1_555
O2A_2 Fe1 1_555 1_555
O2_2 Fe1 1_555 1_555
O3A Fe1 1_555 1_555
Fe1_2 O2 1_555 1_555
H1A O3A 1_555 1_555
H2A O3A 1_555 1_555
H3A O2A 1_555 1_555
H3A_2 O2A_2 1_555 1_555
H3_2 O2_2 1_555 1_555
H4A C8A 1_555 1_555
H5A C8A 1_555 1_555
H6A C9A 1_555 1_555
H7A C9A 1_555 1_555
H8A C10A 1_555 1_555
H9A C10A 1_555 1_555
C8 O1 1_555 1_555
C1A N1A 1_555 1_555
C8A O1A 1_555 1_555

#END
