
#######################################################################
#
#                 Cambridge Crystallographic Data Centre
#                                CCDC 
#
#######################################################################
#
# If this CIF has been generated from an entry in the Cambridge 
# Structural Database, then it will include bibliographic, chemical, 
# crystal, experimental, refinement or atomic coordinate data resulting 
# from the CCDC's data processing and validation procedures.
#
#######################################################################

data_CAYKEU
_symmetry_cell_setting           orthorhombic
_symmetry_space_group_name_H-M   'C m c m'
_symmetry_Int_Tables_number      63
_space_group_name_Hall           '-C 2n 2'
loop_
_symmetry_equiv_pos_site_id
_symmetry_equiv_pos_as_xyz
1 x,y,z
2 -x,-y,1/2+z
3 -x,y,1/2-z
4 x,-y,-z
5 1/2+x,1/2+y,z
6 1/2-x,1/2-y,1/2+z
7 1/2-x,1/2+y,1/2-z
8 1/2+x,1/2-y,-z
9 -x,-y,-z
10 x,y,1/2-z
11 x,-y,1/2+z
12 -x,y,z
13 1/2-x,1/2-y,-z
14 1/2+x,1/2+y,1/2-z
15 1/2+x,1/2-y,1/2+z
16 1/2-x,1/2+y,z
_cell_length_a                   21.859(4)
_cell_length_b                   11.5288(18)
_cell_length_c                   21.861(3)
_cell_angle_alpha                90
_cell_angle_beta                 90
_cell_angle_gamma                90
_cell_volume                     5509.15
loop_
_atom_site_label
_atom_site_type_symbol
_atom_site_fract_x
_atom_site_fract_y
_atom_site_fract_z
Pr1 Pr 0.0000 0.04248(5) 0.65343(3)
Pr2 Pr -0.09344(3) -0.18290(5) 0.7500
S1 S -0.32982(12) -0.30994(19) 0.63205(10)
O1 O -0.1256(3) -0.1253(6) 0.6515(3)
O3 O -0.0634(3) -0.0698(5) 0.5765(3)
O5 O -0.3904(3) -0.3585(6) 0.6370(3)
O7 O -0.3255(4) -0.1936(6) 0.6562(3)
O9 O -0.2829(4) -0.3854(7) 0.6577(3)
O10 O 0.0000 -0.1597(6) 0.6889(3)
H1 H 0.0000 -0.1933 0.6543
O11 O -0.0601(4) 0.0236(6) 0.7500
H2 H -0.0942 0.0589 0.7500
O12 O 0.0000 0.1439(7) 0.5490(4)
O13 O 0.0000 0.2603(8) 0.6778(6)
O14 O -0.1912(5) -0.0524(8) 0.7500
O15 O -0.1940(5) -0.3037(10) 0.7500
O16 O -0.0769(5) -0.3717(7) 0.6836(6)
C1 C -0.1122(4) -0.1142(7) 0.5952(4)
C2 C -0.1583(4) -0.1587(7) 0.5510(4)
C3 C -0.2120(4) -0.2045(7) 0.5718(4)
H3 H -0.2194 -0.2051 0.6137
C4 C -0.2563(4) -0.2505(7) 0.5325(4)
C5 C -0.3123(4) -0.3012(7) 0.5524(4)
C6 C -0.3532(4) -0.3448(7) 0.5123(4)
H4 H -0.3894 -0.3775 0.5267
Pr1D Pr -0.5000 -0.45752(5) 0.65343(3)
Pr1B Pr 0.0000 0.04248(5) 0.84657(3)
Pr1C Pr 0.0000 -0.04248(5) 0.34657(3)
Pr1G Pr -0.5000 -0.54248(5) 0.34657(3)
Pr2B Pr 0.09344(3) -0.18290(5) 0.7500
Pr2E Pr -0.40656(3) -0.31710(5) 0.2500
S1L S -0.17018(12) -0.19006(19) 0.36795(10)
O1L O -0.3744(3) -0.3747(6) 0.3485(3)
O1I O -0.1256(3) -0.1253(6) 0.8485(3)
O3L O -0.4366(3) -0.4302(5) 0.4235(3)
O3K O 0.0634(3) -0.0698(5) 0.5765(3)
O5L O -0.1096(3) -0.1415(6) 0.3630(3)
O5D O 0.1096(3) 0.1415(6) 0.6370(3)
O5O O -0.1096(3) 0.1415(6) 0.6370(3)
O7L O -0.1745(4) -0.3064(6) 0.3438(3)
O9L O -0.2171(4) -0.1146(7) 0.3423(3)
O10B O 0.0000 -0.1597(6) 0.8111(3)
H1B H 0.0000 -0.1933 0.8457
O11B O 0.0601(4) 0.0236(6) 0.7500
H2B H 0.0942 0.0589 0.7500
O16I O -0.0769(5) -0.3717(7) 0.8164(6)
C1L C -0.3878(4) -0.3858(7) 0.4048(4)
C2L C -0.3417(4) -0.3413(7) 0.4490(4)
C3L C -0.2880(4) -0.2955(7) 0.4282(4)
H3L H -0.2806 -0.2949 0.3863
C4L C -0.2437(4) -0.2495(7) 0.4675(4)
C5L C -0.1877(4) -0.1988(7) 0.4476(4)
C6L C -0.1468(4) -0.1552(7) 0.4877(4)
H4L H -0.1106 -0.1225 0.4733
O2 O -0.3299(5) 0.0271(8) 0.6102(5)
O4 O -0.4043(7) -0.1112(11) 0.7500
O6 O -0.3942(9) 0.0000 0.5000
O8 O 0.0000 0.3792(13) 0.5486(11)
loop_
_geom_bond_atom_site_label_1
_geom_bond_atom_site_label_2
_geom_bond_site_symmetry_1
_geom_bond_site_symmetry_2
Pr1 O3 1_555 1_555
Pr2 O1 1_555 1_555
S1 O5 1_555 1_555
O1 C1 1_555 1_555
O3 C1 1_555 1_555
O5 Pr1D 1_555 1_555
O7 S1 1_555 1_555
O9 S1 1_555 1_555
O10 Pr1 1_555 1_555
H1 O10 1_555 1_555
O11 Pr1 1_555 1_555
H2 O11 1_555 1_555
O12 Pr1 1_555 1_555
O13 Pr1 1_555 1_555
O14 Pr2 1_555 1_555
O15 Pr2 1_555 1_555
O16 Pr2 1_555 1_555
C1 C2 1_555 1_555
C2 C3 1_555 1_555
C3 H3 1_555 1_555
C4 C3 1_555 1_555
C5 S1 1_555 1_555
C6 C5 1_555 1_555
H4 C6 1_555 1_555
Pr1B O11 1_555 1_555
Pr1C O5L 1_555 1_555
Pr1G O3L 1_555 1_555
Pr2B O10 1_555 1_555
Pr2E O1L 1_555 1_555
S1L O5L 1_555 1_555
O1L C1L 1_555 1_555
O1I Pr2 1_555 1_555
O3L C1L 1_555 1_555
O3K Pr1 1_555 1_555
O5D Pr1 1_555 1_555
O5O Pr1 1_555 1_555
O7L S1L 1_555 1_555
O9L S1L 1_555 1_555
O10B Pr2 1_555 1_555
H1B O10B 1_555 1_555
O11B Pr1 1_555 1_555
H2B O11B 1_555 1_555
O16I Pr2 1_555 1_555
C1L C2L 1_555 1_555
C2L C6 1_555 1_555
C3L C2L 1_555 1_555
H3L C3L 1_555 1_555
C4L C4 1_555 1_555
C5L S1L 1_555 1_555
C6L C2 1_555 1_555
H4L C6L 1_555 1_555
Pr2 O10 1_555 1_555
Pr2 O11 1_555 1_555
C4 C5 1_555 1_555
Pr1B O10B 1_555 1_555
Pr1B O11B 1_555 1_555
Pr2B O10B 1_555 1_555
Pr2B O11B 1_555 1_555
C3L C4L 1_555 1_555
C4L C5L 1_555 1_555
C5L C6L 1_555 1_555

#END
