
#######################################################################
#
#                 Cambridge Crystallographic Data Centre
#                                CCDC 
#
#######################################################################
#
# If this CIF has been generated from an entry in the Cambridge 
# Structural Database, then it will include bibliographic, chemical, 
# crystal, experimental, refinement or atomic coordinate data resulting 
# from the CCDC's data processing and validation procedures.
#
#######################################################################

data_CAYLIZ
_symmetry_cell_setting           triclinic
_symmetry_space_group_name_H-M   'P -1'
_symmetry_Int_Tables_number      2
_space_group_name_Hall           '-P 1'
loop_
_symmetry_equiv_pos_site_id
_symmetry_equiv_pos_as_xyz
1 x,y,z
2 -x,-y,-z
_cell_length_a                   7.00090(10)
_cell_length_b                   10.83150(10)
_cell_length_c                   12.01550(10)
_cell_angle_alpha                95.8500(10)
_cell_angle_beta                 103.6300(10)
_cell_angle_gamma                90.1370(10)
_cell_volume                     880.538
loop_
_atom_site_label
_atom_site_type_symbol
_atom_site_fract_x
_atom_site_fract_y
_atom_site_fract_z
Dy1 Dy 0.28452(2) 0.396526(14) 0.211986(12)
S1 S 0.21996(12) 0.24526(7) -0.09431(7)
S2 S 0.07462(12) 0.30639(8) 0.45792(7)
O1 O 0.0643(3) -0.3366(2) -0.1294(2)
O2 O -0.1467(4) -0.1885(2) -0.1704(2)
O3 O 0.2787(4) 0.3233(2) 0.0151(2)
O4 O 0.3307(4) 0.2822(2) -0.1749(2)
O5 O 0.0088(4) 0.2425(2) -0.1414(2)
O6 O 0.4414(4) -0.2016(2) 0.3215(3)
H1 H 0.5247 -0.2201 0.2852
O7 O 0.5133(5) -0.0108(3) 0.2874(3)
O8 O 0.2013(4) 0.3471(2) 0.3870(2)
O9 O 0.1431(4) 0.3591(2) 0.5772(2)
O10 O -0.1313(4) 0.3284(3) 0.4123(3)
O11 O 0.5277(4) 0.2499(2) 0.2686(2)
H2 H 0.5073 0.1721 0.2651
H3 H 0.6421 0.2683 0.3104
O12 O 0.5961(4) 0.4608(2) 0.1670(2)
H4 H 0.7032 0.4222 0.1739
H5 H 0.6411 0.5346 0.1718
O13 O 0.0997(4) 0.5625(2) 0.2828(2)
H6 H 0.0411 0.5583 0.3368
H7 H 0.0867 0.6252 0.2448
O14 O 0.2349(4) 0.5647(2) 0.0928(2)
H8 H 0.1633 0.6251 0.1060
H9 H 0.2168 0.5491 0.0202
O15 O 0.4962(4) 0.5145(3) 0.3761(2)
H10 H 0.6105 0.5482 0.3922
H11 H 0.4449 0.5577 0.4240
C1 C 0.3687(5) -0.1549(3) -0.0292(3)
H12 H 0.3944 -0.2370 -0.0160
C2 C 0.1834(5) -0.1243(3) -0.0868(3)
C3 C 0.1402(5) 0.0009(3) -0.1043(3)
H13 H 0.0139 0.0217 -0.1411
C4 C 0.2835(5) 0.0907(3) -0.0671(3)
C5 C 0.4798(5) 0.0632(3) -0.0100(3)
C6 C 0.0254(5) -0.2216(3) -0.1307(3)
C7 C 0.1599(5) -0.1133(3) 0.4372(3)
H14 H 0.1781 -0.1985 0.4287
C8 C 0.2715(5) -0.0353(3) 0.3939(3)
C9 C 0.2431(5) 0.0933(3) 0.4051(3)
H15 H 0.3214 0.1458 0.3767
C10 C 0.1024(5) 0.1427(3) 0.4568(3)
C11 C -0.0158(5) 0.0651(3) 0.5048(3)
C12 C 0.4204(6) -0.0804(3) 0.3293(3)
Dy1A Dy -0.28452(2) -0.396526(14) -0.211986(12)
Dy1_2 Dy 1.28452(2) 0.396526(14) 0.211986(12)
Dy1A_2 Dy -0.28452(2) -0.396526(14) 0.788014(12)
Dy1A_3 Dy 0.71548(2) -0.396526(14) -0.211986(12)
S1A S 0.78004(12) -0.24526(7) 0.09431(7)
S2A S -0.07462(12) -0.30639(8) 0.54208(7)
O1A O 0.9357(3) 0.3366(2) 0.1294(2)
O1A_2 O -0.0643(3) 0.3366(2) 0.1294(2)
O2A O 1.1467(4) 0.1885(2) 0.1704(2)
O2A_2 O 0.1467(4) 0.1885(2) 0.1704(2)
O3A O 0.7213(4) -0.3233(2) -0.0151(2)
O3A_2 O -0.2787(4) -0.3233(2) -0.0151(2)
O4A O 0.6693(4) -0.2822(2) 0.1749(2)
O5A O 0.9912(4) -0.2425(2) 0.1414(2)
O6A O -0.4414(4) 0.2016(2) 0.6785(3)
H1A H -0.5247 0.2201 0.7148
O7A O -0.5133(5) 0.0108(3) 0.7126(3)
O8A O -0.2013(4) -0.3471(2) 0.6130(2)
O8A_2 O -0.2013(4) -0.3471(2) -0.3870(2)
O9A O -0.1431(4) -0.3591(2) 0.4228(2)
O10A O 0.1313(4) -0.3284(3) 0.5877(3)
O11A O -0.5277(4) -0.2499(2) -0.2686(2)
H2A H -0.5073 -0.1721 -0.2651
H3A H -0.6421 -0.2683 -0.3104
O12A O -0.5961(4) -0.4608(2) -0.1670(2)
H4A H -0.7032 -0.4222 -0.1739
H5A H -0.6411 -0.5346 -0.1718
O13A O -0.0997(4) -0.5625(2) -0.2828(2)
H6A H -0.0411 -0.5583 -0.3368
H7A H -0.0867 -0.6252 -0.2448
O14A O -0.2349(4) -0.5647(2) -0.0928(2)
H8A H -0.1633 -0.6251 -0.1060
H9A H -0.2168 -0.5491 -0.0202
O15A O -0.4962(4) -0.5145(3) -0.3761(2)
H10A H -0.6105 -0.5482 -0.3922
H11A H -0.4449 -0.5577 -0.4240
C1A C 0.6313(5) 0.1549(3) 0.0292(3)
H12A H 0.6056 0.2370 0.0160
C2A C 0.8166(5) 0.1243(3) 0.0868(3)
C3A C 0.8598(5) -0.0009(3) 0.1043(3)
H13A H 0.9861 -0.0217 0.1411
C4A C 0.7165(5) -0.0907(3) 0.0671(3)
C5A C 0.5202(5) -0.0632(3) 0.0100(3)
C6A C 0.9746(5) 0.2216(3) 0.1307(3)
C6A_2 C -0.0254(5) 0.2216(3) 0.1307(3)
C7A C -0.1599(5) 0.1133(3) 0.5628(3)
H14A H -0.1781 0.1985 0.5713
C8A C -0.2715(5) 0.0353(3) 0.6061(3)
C9A C -0.2431(5) -0.0933(3) 0.5949(3)
H15A H -0.3214 -0.1458 0.6233
C10A C -0.1024(5) -0.1427(3) 0.5432(3)
C11A C 0.0158(5) -0.0651(3) 0.4952(3)
C12A C -0.4204(6) 0.0804(3) 0.6707(3)
loop_
_geom_bond_atom_site_label_1
_geom_bond_atom_site_label_2
_geom_bond_site_symmetry_1
_geom_bond_site_symmetry_2
Dy1 O3 1_555 1_555
S1 O3 1_555 1_555
S2 O8 1_555 1_555
O1 C6 1_555 1_555
O2 C6 1_555 1_555
O4 S1 1_555 1_555
O5 S1 1_555 1_555
O6 H1 1_555 1_555
O7 C12 1_555 1_555
O8 Dy1 1_555 1_555
O9 S2 1_555 1_555
O10 S2 1_555 1_555
O11 Dy1 1_555 1_555
H2 O11 1_555 1_555
H3 O11 1_555 1_555
O12 Dy1 1_555 1_555
H4 O12 1_555 1_555
H5 O12 1_555 1_555
O13 Dy1 1_555 1_555
H6 O13 1_555 1_555
H7 O13 1_555 1_555
O14 Dy1 1_555 1_555
H8 O14 1_555 1_555
H9 O14 1_555 1_555
O15 Dy1 1_555 1_555
H10 O15 1_555 1_555
H11 O15 1_555 1_555
C1 H12 1_555 1_555
C2 C1 1_555 1_555
C3 C2 1_555 1_555
H13 C3 1_555 1_555
C4 S1 1_555 1_555
C5 C4 1_555 1_555
C6 C2 1_555 1_555
C7 H14 1_555 1_555
C8 C7 1_555 1_555
C9 C8 1_555 1_555
H15 C9 1_555 1_555
C10 S2 1_555 1_555
C11 C10 1_555 1_555
C12 O6 1_555 1_555
Dy1A O1 1_555 1_555
Dy1_2 O1A 1_555 1_555
Dy1A_2 O8A 1_555 1_555
Dy1A_3 O3A 1_555 1_555
S1A O3A 1_555 1_555
S2A O8A 1_555 1_555
O1A C6A 1_555 1_555
O1A_2 Dy1 1_555 1_555
O2A Dy1_2 1_555 1_555
O2A_2 Dy1 1_555 1_555
O3A_2 Dy1A 1_555 1_555
O4A S1A 1_555 1_555
O5A S1A 1_555 1_555
O6A H1A 1_555 1_555
O7A C12A 1_555 1_555
O8A_2 Dy1A 1_555 1_555
O9A S2A 1_555 1_555
O10A S2A 1_555 1_555
O11A Dy1A 1_555 1_555
H2A O11A 1_555 1_555
H3A O11A 1_555 1_555
O12A Dy1A 1_555 1_555
H4A O12A 1_555 1_555
H5A O12A 1_555 1_555
O13A Dy1A 1_555 1_555
H6A O13A 1_555 1_555
H7A O13A 1_555 1_555
O14A Dy1A 1_555 1_555
H8A O14A 1_555 1_555
H9A O14A 1_555 1_555
O15A Dy1A 1_555 1_555
H10A O15A 1_555 1_555
H11A O15A 1_555 1_555
C1A C5 1_555 1_555
H12A C1A 1_555 1_555
C2A C1A 1_555 1_555
C3A C2A 1_555 1_555
H13A C3A 1_555 1_555
C4A S1A 1_555 1_555
C5A C1 1_555 1_555
C6A O2A 1_555 1_555
C6A_2 O1A_2 1_555 1_555
C7A C11 1_555 1_555
H14A C7A 1_555 1_555
C8A C7A 1_555 1_555
C9A C8A 1_555 1_555
H15A C9A 1_555 1_555
C10A S2A 1_555 1_555
C11A C7 1_555 1_555
C12A O6A 1_555 1_555
O2 Dy1A 1_555 1_555
C3 C4 1_555 1_555
C5 C5A 1_555 1_555
C8 C12 1_555 1_555
C9 C10 1_555 1_555
C11 C11A 1_555 1_555
O2A_2 C6A_2 1_555 1_555
C2A C6A 1_555 1_555
C3A C4A 1_555 1_555
C4A C5A 1_555 1_555
C8A C12A 1_555 1_555
C9A C10A 1_555 1_555
C10A C11A 1_555 1_555

#END
