
#######################################################################
#
#                 Cambridge Crystallographic Data Centre
#                                CCDC 
#
#######################################################################
#
# If this CIF has been generated from an entry in the Cambridge 
# Structural Database, then it will include bibliographic, chemical, 
# crystal, experimental, refinement or atomic coordinate data resulting 
# from the CCDC's data processing and validation procedures.
#
#######################################################################

data_CAYLOF
_symmetry_cell_setting           monoclinic
_symmetry_space_group_name_H-M   'P 21/m'
_symmetry_Int_Tables_number      11
_space_group_name_Hall           '-P 2yb'
loop_
_symmetry_equiv_pos_site_id
_symmetry_equiv_pos_as_xyz
1 x,y,z
2 -x,1/2+y,-z
3 -x,-y,-z
4 x,1/2-y,z
_cell_length_a                   10.871(2)
_cell_length_b                   6.7535(12)
_cell_length_c                   11.859(2)
_cell_angle_alpha                90
_cell_angle_beta                 96.180(2)
_cell_angle_gamma                90
_cell_volume                     865.596
loop_
_atom_site_label
_atom_site_type_symbol
_atom_site_fract_x
_atom_site_fract_y
_atom_site_fract_z
Er1 Er 0.31665(2) -0.2500 0.22397(2)
S1 S -0.35255(14) 0.2500 0.29414(13)
S2 S 0.28322(13) 0.2500 0.34819(13)
O1 O -0.1633(4) 0.2500 -0.0822(4)
O3 O 0.0417(4) 0.2500 -0.0586(4)
H3 H 0.0322 0.2500 -0.1281
O4 O -0.1345(4) 0.2500 0.6822(4)
O5 O 0.0695(4) 0.2500 0.7301(4)
O6 O -0.4343(4) 0.2500 0.1879(4)
O7 O -0.3639(3) 0.4290(5) 0.3612(3)
O8 O 0.2924(3) 0.0741(5) 0.2786(3)
O9 O 0.3654(4) 0.2500 0.4497(4)
O10 O 0.3980(3) -0.0391(5) 0.0896(3)
H4 H 0.4576 0.0360 0.1144
H5 H 0.3577 0.0099 0.0308
O11 O 0.5420(4) -0.2500 0.2532(4)
H6 H 0.5591 -0.1353 0.2800
O12 O 0.3837(5) -0.2500 0.4195(4)
H7 H 0.4174 -0.1482 0.4517
C1 C 0.0364(5) 0.2500 0.1807(5)
H8 H 0.1142 0.2500 0.1548
C2 C -0.0682(6) 0.2500 0.1039(5)
C3 C -0.1864(5) 0.2500 0.1420(5)
H9 H -0.2564 0.2500 0.0896
C4 C -0.1991(5) 0.2500 0.2546(5)
C5 C -0.1061(5) 0.2500 0.4564(5)
H10 H -0.1845 0.2500 0.4809
C6 C -0.0047(5) 0.2500 0.5342(5)
C7 C 0.1160(5) 0.2500 0.4990(5)
H11 H 0.1852 0.2500 0.5525
C8 C 0.1297(5) 0.2500 0.3857(5)
C9 C -0.0944(5) 0.2500 0.3376(5)
C10 C 0.0261(5) 0.2500 0.3002(5)
C11 C -0.0608(6) 0.2500 -0.0218(5)
C12 C -0.0287(5) 0.2500 0.6574(5)
Er1_2 Er 0.31665(2) 0.7500 0.22397(2)
Er1A Er -0.31665(2) 0.2500 -0.22397(2)
Er1A_2 Er -0.31665(2) 0.2500 0.77603(2)
O1A O 0.1633(4) -0.2500 0.0822(4)
O4A O 0.1345(4) -0.2500 0.3178(4)
O7C O -0.3639(3) 0.0710(5) 0.3612(3)
O8C O 0.2924(3) 0.4259(5) 0.2786(3)
O8C_2 O 0.2924(3) -0.5741(5) 0.2786(3)
O10C O 0.3980(3) -0.4609(5) 0.0896(3)
H4C H 0.4576 -0.5360 0.1144
H5C H 0.3577 -0.5099 0.0308
H6C H 0.5591 -0.3647 0.2800
H7C H 0.4174 -0.3518 0.4517
O2 O 0.3026(5) 0.2500 -0.0610(5)
H1 H 0.2243 0.2500 -0.0619
H2 H 0.3621 0.2500 -0.1020
loop_
_geom_bond_atom_site_label_1
_geom_bond_atom_site_label_2
_geom_bond_site_symmetry_1
_geom_bond_site_symmetry_2
Er1 O8 1_555 1_555
S1 O6 1_555 1_555
S2 O8 1_555 1_555
O1 C11 1_555 1_555
O2 H1 1_555 1_555
H2 O2 1_555 1_555
O3 H3 1_555 1_555
O4 C12 1_555 1_555
O5 C12 1_555 1_555
O7 S1 1_555 1_555
O9 S2 1_555 1_555
O10 Er1 1_555 1_555
H4 O10 1_555 1_555
H5 O10 1_555 1_555
O11 Er1 1_555 1_555
H6 O11 1_555 1_555
O12 Er1 1_555 1_555
H7 O12 1_555 1_555
C1 H8 1_555 1_555
C2 C1 1_555 1_555
C3 C2 1_555 1_555
H9 C3 1_555 1_555
C4 S1 1_555 1_555
C5 H10 1_555 1_555
C6 C5 1_555 1_555
C7 C6 1_555 1_555
H11 C7 1_555 1_555
C8 S2 1_555 1_555
C9 C4 1_555 1_555
C10 C1 1_555 1_555
C11 O3 1_555 1_555
C12 C6 1_555 1_555
Er1_2 O8C 1_555 1_555
Er1A O1 1_555 1_555
Er1A_2 O4 1_555 1_555
O1A Er1 1_555 1_555
O4A Er1 1_555 1_555
O7C S1 1_555 1_555
O8C S2 1_555 1_555
O8C_2 Er1 1_555 1_555
O10C Er1 1_555 1_555
H4C O10C 1_555 1_555
H5C O10C 1_555 1_555
H6C O11 1_555 1_555
H7C O12 1_555 1_555
C2 C11 1_555 1_555
C3 C4 1_555 1_555
C5 C9 1_555 1_555
C7 C8 1_555 1_555
C8 C10 1_555 1_555
C9 C10 1_555 1_555

#END
