
#######################################################################
#
#                 Cambridge Crystallographic Data Centre
#                                CCDC 
#
#######################################################################
#
# If this CIF has been generated from an entry in the Cambridge 
# Structural Database, then it will include bibliographic, chemical, 
# crystal, experimental, refinement or atomic coordinate data resulting 
# from the CCDC's data processing and validation procedures.
#
#######################################################################

data_CAYRIE
_symmetry_cell_setting           rhombohedral
_symmetry_space_group_name_H-M   'R -3'
_symmetry_Int_Tables_number      148
_space_group_name_Hall           '-R 3'
loop_
_symmetry_equiv_pos_site_id
_symmetry_equiv_pos_as_xyz
1 x,y,z
2 -y,x-y,z
3 -x+y,-x,z
4 2/3+x,1/3+y,1/3+z
5 2/3-y,1/3+x-y,1/3+z
6 2/3-x+y,1/3-x,1/3+z
7 1/3+x,2/3+y,2/3+z
8 1/3-y,2/3+x-y,2/3+z
9 1/3-x+y,2/3-x,2/3+z
10 -x,-y,-z
11 y,-x+y,-z
12 x-y,x,-z
13 1/3-x,2/3-y,2/3-z
14 1/3+y,2/3-x+y,2/3-z
15 1/3+x-y,2/3+x,2/3-z
16 2/3-x,1/3-y,1/3-z
17 2/3+y,1/3-x+y,1/3-z
18 2/3+x-y,1/3+x,1/3-z
_cell_length_a                   33.0866(4)
_cell_length_b                   33.0866(4)
_cell_length_c                   9.4360(2)
_cell_angle_alpha                90
_cell_angle_beta                 90
_cell_angle_gamma                120.00
_cell_volume                     8945.88
loop_
_atom_site_label
_atom_site_type_symbol
_atom_site_fract_x
_atom_site_fract_y
_atom_site_fract_z
Zn1 Zn 0.5000 0.0000 0.0000
N1 N 0.53422(10) 0.00048(10) 0.1845(3)
N2 N 0.49822(10) 0.05792(10) 0.0725(3)
C1 C 0.55440(13) -0.02648(13) 0.2074(4)
C2 C 0.58319(14) -0.01037(14) 0.3336(4)
H1 H 0.6005 -0.0234 0.3735
C3 C 0.58073(14) 0.02658(14) 0.3837(4)
H2 H 0.5963 0.0447 0.4649
C4 C 0.54990(12) 0.03332(12) 0.2902(3)
C5 C 0.54005(11) 0.06985(12) 0.3005(3)
C6 C 0.51490(12) 0.08015(12) 0.2005(3)
C7 C 0.50165(13) 0.11576(14) 0.2167(4)
H3 H 0.5092 0.1367 0.2941
C8 C 0.47646(14) 0.11336(13) 0.1006(4)
H4 H 0.4627 0.1321 0.0817
C9 C 0.47441(12) 0.07703(12) 0.0107(3)
C10 C 0.55016(12) -0.06258(12) 0.1173(4)
C11 C 0.55895(13) 0.10178(13) 0.4271(4)
C12 C 0.59226(16) 0.14816(15) 0.4058(5)
H5 H 0.6035 0.1595 0.3132
C13 C 0.6093(2) 0.17849(17) 0.5241(6)
H6 H 0.6323 0.2103 0.5108
C14 C 0.59299(19) 0.16226(17) 0.6573(5)
H7 H 0.6046 0.1830 0.7359
C15 C 0.55964(17) 0.11596(17) 0.6788(4)
H8 H 0.5481 0.1049 0.7714
C16 C 0.54287(14) 0.08528(15) 0.5621(4)
H9 H 0.5205 0.0533 0.5762
C17 C 0.57533(13) -0.08766(12) 0.1625(3)
C18 C 0.61539(14) -0.08020(14) 0.0926(4)
H10 H 0.6276 -0.0587 0.0163
C19 C 0.63754(12) -0.10448(14) 0.1351(4)
H11 H 0.6649 -0.0991 0.0861
N3 N 0.62232(10) -0.13476(11) 0.2402(3)
C20 C 0.58375(13) -0.14199(13) 0.3068(4)
H12 H 0.5723 -0.1640 0.3821
C21 C 0.55939(14) -0.11922(14) 0.2726(4)
H13 H 0.5323 -0.1253 0.3241
Zn1D Zn 0.6667 -0.1667 0.3333
Zn1M Zn 0.3333 0.1667 -0.3333
N1I N 0.46578(10) -0.00048(10) -0.1845(3)
N2I N 0.50178(10) -0.05792(10) -0.0725(3)
C1I C 0.44560(13) 0.02648(13) -0.2074(4)
C2I C 0.41681(14) 0.01037(14) -0.3336(4)
H1I H 0.3995 0.0234 -0.3735
C3I C 0.41927(14) -0.02658(14) -0.3837(4)
H2I H 0.4037 -0.0447 -0.4649
C4I C 0.45010(12) -0.03332(12) -0.2902(3)
C5I C 0.45995(11) -0.06985(12) -0.3005(3)
C6I C 0.48510(12) -0.08015(12) -0.2005(3)
C7I C 0.49835(13) -0.11576(14) -0.2167(4)
H3I H 0.4908 -0.1367 -0.2941
C8I C 0.52354(14) -0.11336(13) -0.1006(4)
H4I H 0.5373 -0.1321 -0.0817
C9I C 0.52559(12) -0.07703(12) -0.0107(3)
C10I C 0.44984(12) 0.06258(12) -0.1173(4)
C11I C 0.44105(13) -0.10178(13) -0.4271(4)
C12I C 0.40774(16) -0.14816(15) -0.4058(5)
H5I H 0.3965 -0.1595 -0.3132
C13I C 0.3907(2) -0.17849(17) -0.5241(6)
H6I H 0.3677 -0.2103 -0.5108
C14I C 0.40701(19) -0.16226(17) -0.6573(5)
H7I H 0.3954 -0.1830 -0.7359
C15I C 0.44036(17) -0.11596(17) -0.6788(4)
H8I H 0.4519 -0.1049 -0.7714
C16I C 0.45713(14) -0.08528(15) -0.5621(4)
H9I H 0.4795 -0.0533 -0.5762
C17I C 0.42467(13) 0.08766(12) -0.1625(3)
C18I C 0.38461(14) 0.08020(14) -0.0926(4)
H10I H 0.3724 0.0587 -0.0163
C19I C 0.36246(12) 0.10448(14) -0.1351(4)
H11I H 0.3351 0.0991 -0.0861
N3I N 0.37768(10) 0.13476(11) -0.2402(3)
N3Q N 0.42375(15) -0.04435(10) 0.0931(3)
N3H N 0.57625(15) 0.04435(10) -0.0931(3)
C20I C 0.41625(13) 0.14199(13) -0.3068(4)
H12I H 0.4277 0.1640 -0.3821
C21I C 0.44061(14) 0.11922(14) -0.2726(4)
H13I H 0.4677 0.1253 -0.3241
C22 C 0.5969(8) 0.1940(8) 0.035(3)
O1 O 0.6420(7) 0.2619(7) 0.199(2)
C23 C 0.6399(11) 0.2378(11) 0.059(3)
loop_
_geom_bond_atom_site_label_1
_geom_bond_atom_site_label_2
_geom_bond_site_symmetry_1
_geom_bond_site_symmetry_2
Zn1 N1 1_555 1_555
N1 C1 1_555 1_555
N2 Zn1 1_555 1_555
C1 C2 1_555 1_555
C2 H1 1_555 1_555
C3 C2 1_555 1_555
H2 C3 1_555 1_555
C4 N1 1_555 1_555
C5 C4 1_555 1_555
C6 N2 1_555 1_555
C7 C6 1_555 1_555
H3 C7 1_555 1_555
C8 C7 1_555 1_555
H4 C8 1_555 1_555
C9 N2 1_555 1_555
C10 C1 1_555 1_555
C11 C5 1_555 1_555
C12 C11 1_555 1_555
H5 C12 1_555 1_555
C13 C12 1_555 1_555
H6 C13 1_555 1_555
C14 C13 1_555 1_555
H7 C14 1_555 1_555
C15 C14 1_555 1_555
H8 C15 1_555 1_555
C16 C11 1_555 1_555
H9 C16 1_555 1_555
C17 C10 1_555 1_555
C18 C17 1_555 1_555
H10 C18 1_555 1_555
C19 C18 1_555 1_555
H11 C19 1_555 1_555
N3 C19 1_555 1_555
C20 N3 1_555 1_555
H12 C20 1_555 1_555
C21 C17 1_555 1_555
H13 C21 1_555 1_555
C22 C23 1_555 1_555
O1 C23 1_555 1_555
Zn1D N3 1_555 1_555
Zn1M N3I 1_555 1_555
N1I Zn1 1_555 1_555
N2I Zn1 1_555 1_555
C1I N1I 1_555 1_555
C2I C1I 1_555 1_555
H1I C2I 1_555 1_555
C3I C2I 1_555 1_555
H2I C3I 1_555 1_555
C4I N1I 1_555 1_555
C5I C4I 1_555 1_555
C6I N2I 1_555 1_555
C7I C6I 1_555 1_555
H3I C7I 1_555 1_555
C8I C7I 1_555 1_555
H4I C8I 1_555 1_555
C9I C10 1_555 1_555
C10I C9 1_555 1_555
C11I C5I 1_555 1_555
C12I C11I 1_555 1_555
H5I C12I 1_555 1_555
C13I C12I 1_555 1_555
H6I C13I 1_555 1_555
C14I C13I 1_555 1_555
H7I C14I 1_555 1_555
C15I C14I 1_555 1_555
H8I C15I 1_555 1_555
C16I C11I 1_555 1_555
H9I C16I 1_555 1_555
C17I C10I 1_555 1_555
C18I C17I 1_555 1_555
H10I C18I 1_555 1_555
C19I C18I 1_555 1_555
H11I C19I 1_555 1_555
N3I C19I 1_555 1_555
N3Q Zn1 1_555 1_555
N3H Zn1 1_555 1_555
C20I N3I 1_555 1_555
H12I C20I 1_555 1_555
C21I C17I 1_555 1_555
H13I C21I 1_555 1_555
C3 C4 1_555 1_555
C5 C6 1_555 1_555
C8 C9 1_555 1_555
C15 C16 1_555 1_555
C20 C21 1_555 1_555
N2I C9I 1_555 1_555
C1I C10I 1_555 1_555
C3I C4I 1_555 1_555
C5I C6I 1_555 1_555
C8I C9I 1_555 1_555
C15I C16I 1_555 1_555
C20I C21I 1_555 1_555

#END
