
#######################################################################
#
#                 Cambridge Crystallographic Data Centre
#                                CCDC 
#
#######################################################################
#
# If this CIF has been generated from an entry in the Cambridge 
# Structural Database, then it will include bibliographic, chemical, 
# crystal, experimental, refinement or atomic coordinate data resulting 
# from the CCDC's data processing and validation procedures.
#
#######################################################################

data_CAYVAA
_symmetry_cell_setting           orthorhombic
_symmetry_space_group_name_H-M   'P c c n'
_symmetry_Int_Tables_number      56
_space_group_name_Hall           '-P 2ab 2ac'
loop_
_symmetry_equiv_pos_site_id
_symmetry_equiv_pos_as_xyz
1 x,y,z
2 1/2-x,1/2-y,z
3 -x,1/2+y,1/2-z
4 1/2+x,-y,1/2-z
5 -x,-y,-z
6 1/2+x,1/2+y,-z
7 x,1/2-y,1/2+z
8 1/2-x,y,1/2+z
_cell_length_a                   13.8965(18)
_cell_length_b                   19.237(2)
_cell_length_c                   22.753(3)
_cell_angle_alpha                90
_cell_angle_beta                 90
_cell_angle_gamma                90
_cell_volume                     6082.49
loop_
_atom_site_label
_atom_site_type_symbol
_atom_site_fract_x
_atom_site_fract_y
_atom_site_fract_z
Co1 Co 0.2500 1.2500 0.22078(5)
Co2 Co 0.2500 0.7500 0.16249(5)
O1 O 0.3364(3) 1.16112(19) 0.21667(16)
O2 O 0.2294(3) 1.0769(2) 0.2288(2)
O3 O 0.3312(3) 0.84066(19) 0.16353(16)
O4 O 0.4790(3) 0.8071(2) 0.1884(2)
O5 O 0.6534(3) 1.0350(2) 0.2197(3)
H1 H 0.6854 1.0017 0.2308
O6 O 0.1212(3) 1.1898(2) 0.22174(17)
O7 O 0.3809(3) 0.6913(2) 0.16577(19)
N1 N 0.2500 1.2500 0.1274(3)
N2 N 0.2500 1.2500 -0.1842(3)
N3 N 0.2500 0.7500 0.2567(3)
N4 N 0.2500 0.7500 0.5678(3)
C1 C 0.3127(4) 1.0981(3) 0.2203(2)
C2 C 0.3917(4) 1.0452(3) 0.2129(2)
C3 C 0.4876(4) 1.0647(3) 0.2186(3)
H2 H 0.5039 1.1107 0.2263
C4 C 0.5581(4) 1.0148(3) 0.2125(3)
C5 C 0.5349(4) 0.9467(3) 0.1999(3)
H3 H 0.5835 0.9138 0.1955
C6 C 0.4400(4) 0.9272(3) 0.1939(2)
C7 C 0.3680(4) 0.9759(3) 0.2004(2)
H4 H 0.3039 0.9629 0.1965
C8 C 0.4148(4) 0.8525(3) 0.1811(2)
C9 C 0.2248(4) 1.1939(3) 0.0959(2)
H5 H 0.2072 1.1538 0.1162
C10 C 0.2234(4) 1.1921(3) 0.0359(2)
H6 H 0.2044 1.1518 0.0166
C11 C 0.2500 1.2500 0.0036(3)
C12 C 0.2500 1.2500 -0.0622(3)
C13 C 0.3116(4) 1.2918(3) -0.0936(2)
H7 H 0.3538 1.3213 -0.0740
C14 C 0.3106(4) 1.2901(3) -0.1538(3)
H8 H 0.3539 1.3179 -0.1742
C15 C 0.2706(5) 0.6936(3) 0.2876(3)
H9 H 0.2838 0.6529 0.2671
C16 C 0.2736(5) 0.6912(3) 0.3479(3)
H10 H 0.2914 0.6505 0.3671
C17 C 0.2500 0.7500 0.3796(4)
C18 C 0.2500 0.7500 0.4457(3)
C19 C 0.2620(4) 0.6897(3) 0.4778(2)
H11 H 0.2709 0.6477 0.4583
C20 C 0.2611(4) 0.6911(3) 0.5381(3)
H12 H 0.2684 0.6497 0.5587
H13 H 0.0970 1.1498 0.2138
H14 H 0.0744 1.2145 0.2350
H15 H 0.4154 0.7181 0.1876
H16 H 0.4200 0.6605 0.1521
Co1F Co 0.2500 1.2500 -0.27922(5)
Co2F Co 0.2500 0.7500 0.66249(5)
Co2_2 Co 0.2500 1.7500 0.16249(5)
O1A O 0.1636(3) 1.33888(19) 0.21667(16)
O2A O 0.2706(3) 1.4231(2) 0.2288(2)
O3A O 0.1688(3) 1.65934(19) 0.16353(16)
O3A_2 O 0.1688(3) 0.65934(19) 0.16353(16)
O4A O 0.0210(3) 1.6929(2) 0.1884(2)
O5A O -0.1534(3) 1.4650(2) 0.2197(3)
H1A H -0.1854 1.4983 0.2308
O6A O 0.3788(3) 1.3102(2) 0.22174(17)
O7A O 0.1191(3) 0.8087(2) 0.16577(19)
N2F N 0.2500 1.2500 0.3158(3)
N4F N 0.2500 0.7500 0.0678(3)
C1A C 0.1873(4) 1.4019(3) 0.2203(2)
C2A C 0.1083(4) 1.4548(3) 0.2129(2)
C3A C 0.0124(4) 1.4353(3) 0.2186(3)
H2A H -0.0039 1.3893 0.2263
C4A C -0.0581(4) 1.4852(3) 0.2125(3)
C5A C -0.0349(4) 1.5533(3) 0.1999(3)
H3A H -0.0835 1.5862 0.1955
C6A C 0.0600(4) 1.5728(3) 0.1939(2)
C7A C 0.1320(4) 1.5241(3) 0.2004(2)
H4A H 0.1961 1.5371 0.1965
C8A C 0.0852(4) 1.6475(3) 0.1811(2)
C9A C 0.2752(4) 1.3061(3) 0.0959(2)
H5A H 0.2928 1.3462 0.1162
C10A C 0.2766(4) 1.3079(3) 0.0359(2)
H6A H 0.2956 1.3482 0.0166
C13A C 0.1884(4) 1.2082(3) -0.0936(2)
H7A H 0.1462 1.1787 -0.0740
C14A C 0.1894(4) 1.2099(3) -0.1538(3)
H8A H 0.1461 1.1821 -0.1742
C15A C 0.2294(5) 0.8064(3) 0.2876(3)
H9A H 0.2162 0.8471 0.2671
C16A C 0.2264(5) 0.8088(3) 0.3479(3)
H10A H 0.2086 0.8495 0.3671
C19A C 0.2380(4) 0.8103(3) 0.4778(2)
H11A H 0.2291 0.8523 0.4583
C20A C 0.2389(4) 0.8089(3) 0.5381(3)
H12A H 0.2316 0.8503 0.5587
H13A H 0.4030 1.3502 0.2138
H14A H 0.4256 1.2855 0.2350
H15A H 0.0846 0.7819 0.1876
H16A H 0.0800 0.8395 0.1521
S1 S 0.5139(2) 0.52335(15) 0.08920(14)
O8 O 0.5036(5) 0.5917(3) 0.1169(3)
C21 C 0.4089(10) 0.4833(7) 0.0942(7)
H17 H 0.3947 0.4742 0.1348
H18 H 0.4116 0.4402 0.0731
H19 H 0.3595 0.5122 0.0778
C22 C 0.5707(14) 0.4727(7) 0.1359(5)
H20 H 0.6274 0.4959 0.1499
H21 H 0.5887 0.4302 0.1166
H22 H 0.5292 0.4623 0.1685
N5 N -0.0293(4) 0.3104(3) 0.5553(3)
N6 N 0.1655(6) -0.0184(4) 0.4796(4)
C23 C -0.0265(5) 0.2880(4) 0.5000(4)
H23 H -0.0453 0.3188 0.4707
C24 C 0.0016(4) 0.2236(4) 0.4831(3)
H24 H 0.0011 0.2120 0.4434
C25 C 0.0314(5) 0.1743(4) 0.5243(3)
C26 C 0.0268(5) 0.1962(4) 0.5829(3)
H25 H 0.0450 0.1661 0.6129
C27 C -0.0048(5) 0.2625(4) 0.5963(3)
H26 H -0.0095 0.2750 0.6357
C28 C 0.0716(5) 0.1070(4) 0.5090(3)
C29 C 0.1067(5) 0.0944(4) 0.4520(4)
H27 H 0.1000 0.1275 0.4225
C30 C 0.1517(6) 0.0309(5) 0.4409(4)
H28 H 0.1737 0.0231 0.4029
C31 C 0.1291(7) -0.0072(5) 0.5326(5)
H29 H 0.1352 -0.0420 0.5607
C32 C 0.0832(5) 0.0525(4) 0.5481(3)
H30 H 0.0589 0.0568 0.5860
loop_
_geom_bond_atom_site_label_1
_geom_bond_atom_site_label_2
_geom_bond_site_symmetry_1
_geom_bond_site_symmetry_2
Co1 O1 1_555 1_555
Co2 O3 1_555 1_555
O1 C1 1_555 1_555
O2 C1 1_555 1_555
O3 C8 1_555 1_555
O4 C8 1_555 1_555
O5 H1 1_555 1_555
O6 Co1 1_555 1_555
O7 Co2 1_555 1_555
N1 Co1 1_555 1_555
N2 C14 1_555 1_555
N3 Co2 1_555 1_555
N4 C20 1_555 1_555
C1 C2 1_555 1_555
C2 C3 1_555 1_555
C3 H2 1_555 1_555
C4 O5 1_555 1_555
C5 C4 1_555 1_555
H3 C5 1_555 1_555
C6 C5 1_555 1_555
C7 C2 1_555 1_555
H4 C7 1_555 1_555
C8 C6 1_555 1_555
C9 N1 1_555 1_555
H5 C9 1_555 1_555
C10 C9 1_555 1_555
H6 C10 1_555 1_555
C11 C10 1_555 1_555
C12 C11 1_555 1_555
C13 C12 1_555 1_555
H7 C13 1_555 1_555
C14 C13 1_555 1_555
H8 C14 1_555 1_555
C15 N3 1_555 1_555
H9 C15 1_555 1_555
C16 C15 1_555 1_555
H10 C16 1_555 1_555
C17 C16 1_555 1_555
C18 C17 1_555 1_555
C19 C18 1_555 1_555
H11 C19 1_555 1_555
C20 C19 1_555 1_555
H12 C20 1_555 1_555
H13 O6 1_555 1_555
H14 O6 1_555 1_555
H15 O7 1_555 1_555
H16 O7 1_555 1_555
S1 O8 1_555 1_555
C21 S1 1_555 1_555
H17 C21 1_555 1_555
H18 C21 1_555 1_555
H19 C21 1_555 1_555
C22 S1 1_555 1_555
H20 C22 1_555 1_555
H21 C22 1_555 1_555
H22 C22 1_555 1_555
N5 C23 1_555 1_555
N6 C30 1_555 1_555
C23 H23 1_555 1_555
C24 C23 1_555 1_555
H24 C24 1_555 1_555
C25 C24 1_555 1_555
C26 C25 1_555 1_555
H25 C26 1_555 1_555
C27 N5 1_555 1_555
H26 C27 1_555 1_555
C28 C25 1_555 1_555
C29 C28 1_555 1_555
H27 C29 1_555 1_555
C30 C29 1_555 1_555
H28 C30 1_555 1_555
C31 N6 1_555 1_555
H29 C31 1_555 1_555
C32 C28 1_555 1_555
H30 C32 1_555 1_555
Co1F N2 1_555 1_555
Co2F N4 1_555 1_555
Co2_2 O3A 1_555 1_555
O1A Co1 1_555 1_555
O2A C1A 1_555 1_555
O3A C8A 1_555 1_555
O3A_2 Co2 1_555 1_555
O4A C8A 1_555 1_555
O5A H1A 1_555 1_555
O6A Co1 1_555 1_555
O7A Co2 1_555 1_555
N2F Co1 1_555 1_555
N4F Co2 1_555 1_555
C1A O1A 1_555 1_555
C2A C1A 1_555 1_555
C3A C2A 1_555 1_555
H2A C3A 1_555 1_555
C4A O5A 1_555 1_555
C5A C4A 1_555 1_555
H3A C5A 1_555 1_555
C6A C5A 1_555 1_555
C7A C2A 1_555 1_555
H4A C7A 1_555 1_555
C8A C6A 1_555 1_555
C9A N1 1_555 1_555
H5A C9A 1_555 1_555
C10A C11 1_555 1_555
H6A C10A 1_555 1_555
C13A C12 1_555 1_555
H7A C13A 1_555 1_555
C14A N2 1_555 1_555
H8A C14A 1_555 1_555
C15A N3 1_555 1_555
H9A C15A 1_555 1_555
C16A C17 1_555 1_555
H10A C16A 1_555 1_555
C19A C18 1_555 1_555
H11A C19A 1_555 1_555
C20A N4 1_555 1_555
H12A C20A 1_555 1_555
H13A O6A 1_555 1_555
H14A O6A 1_555 1_555
H15A O7A 1_555 1_555
H16A O7A 1_555 1_555
C3 C4 1_555 1_555
C6 C7 1_555 1_555
C26 C27 1_555 1_555
C31 C32 1_555 1_555
C3A C4A 1_555 1_555
C6A C7A 1_555 1_555
C9A C10A 1_555 1_555
C13A C14A 1_555 1_555
C15A C16A 1_555 1_555
C19A C20A 1_555 1_555

#END
