
#######################################################################
#
#                 Cambridge Crystallographic Data Centre
#                                CCDC 
#
#######################################################################
#
# If this CIF has been generated from an entry in the Cambridge 
# Structural Database, then it will include bibliographic, chemical, 
# crystal, experimental, refinement or atomic coordinate data resulting 
# from the CCDC's data processing and validation procedures.
#
#######################################################################

data_CAZJEU
_symmetry_cell_setting           monoclinic
_symmetry_space_group_name_H-M   'P 21/c'
_symmetry_Int_Tables_number      14
_space_group_name_Hall           '-P 2ybc'
loop_
_symmetry_equiv_pos_site_id
_symmetry_equiv_pos_as_xyz
1 x,y,z
2 -x,1/2+y,1/2-z
3 -x,-y,-z
4 x,1/2-y,1/2+z
_cell_length_a                   7.6317(5)
_cell_length_b                   17.5148(9)
_cell_length_c                   17.2043(10)
_cell_angle_alpha                90
_cell_angle_beta                 97.406(4)
_cell_angle_gamma                90
_cell_volume                     2280.47
loop_
_atom_site_label
_atom_site_type_symbol
_atom_site_fract_x
_atom_site_fract_y
_atom_site_fract_z
Co1 Co 0.17138(10) 0.62924(4) 0.74236(5)
S1 S 0.2609(2) 0.41574(8) 0.49741(8)
O1 O 0.1984(5) 0.59510(19) 0.6293(2)
O2 O 0.0488(5) 0.4855(2) 0.6169(2)
O3 O 0.6149(5) 0.0653(2) 0.7126(2)
O4 O 0.3342(6) 0.0325(3) 0.7042(3)
S2 S 0.5688(2) 0.21799(9) 0.79134(9)
O5 O -0.0106(5) 0.5451(2) 0.7531(2)
H1 H -0.1207 0.5533 0.7530
H2 H -0.0052 0.5173 0.7130
N1 N 0.0141(6) 0.7264(2) 0.7155(3)
N2 N 0.1600(6) 0.6798(3) 0.8528(3)
C1 C -0.0628(9) 0.7453(4) 0.6428(4)
H3 H -0.0609 0.7105 0.6021
C2 C -0.1431(10) 0.8145(4) 0.6279(5)
H4 H -0.1955 0.8260 0.5774
C3 C -0.1472(11) 0.8669(4) 0.6866(5)
H5 H -0.2018 0.9140 0.6769
C4 C -0.0681(9) 0.8478(3) 0.7603(4)
H6 H -0.0675 0.8824 0.8014
C5 C 0.0107(8) 0.7770(3) 0.7733(3)
C6 C 0.0978(8) 0.7521(3) 0.8507(3)
C7 C 0.1174(9) 0.7989(4) 0.9154(4)
H7 H 0.0758 0.8488 0.9122
C8 C 0.2014(10) 0.7695(4) 0.9857(4)
H8 H 0.2190 0.8002 1.0302
C9 C 0.2585(10) 0.6948(4) 0.9893(4)
H9 H 0.3092 0.6733 1.0363
C10 C 0.2380(10) 0.6530(4) 0.9211(4)
H10 H 0.2810 0.6033 0.9228
C11 C 0.4619(8) 0.0737(3) 0.7301(4)
C12 C 0.4218(8) 0.1368(3) 0.7859(4)
H11 H 0.4254 0.1152 0.8380
H12 H 0.3023 0.1547 0.7700
C13 C 0.4875(8) 0.2723(3) 0.7074(3)
C14 C 0.3968(9) 0.2407(3) 0.6399(4)
H13 H 0.3794 0.1882 0.6363
C15 C 0.5176(8) 0.3507(3) 0.7093(4)
H14 H 0.5793 0.3729 0.7538
C16 C 0.3328(8) 0.2873(3) 0.5787(4)
H15 H 0.2696 0.2655 0.5344
C17 C 0.4574(8) 0.3957(3) 0.6462(3)
H16 H 0.4828 0.4476 0.6475
C18 C 0.3582(7) 0.3643(3) 0.5801(3)
C19 C 0.2633(7) 0.5133(3) 0.5306(3)
H17 H 0.3853 0.5281 0.5462
H18 H 0.2178 0.5453 0.4865
C20 C 0.1596(7) 0.5307(3) 0.5978(3)
Co1A Co 0.82862(10) 0.12924(4) 0.75764(5)
O3A O 0.3851(5) 0.5653(2) 0.7874(2)
S2A S 0.4312(2) 0.71799(9) 0.70866(9)
O6 O 0.519(4) 0.4620(16) 0.9328(17)
H19 H 0.5512 0.5044 0.9541
H20 H 0.4456 0.4745 0.8935
O7 O 0.832(4) 0.5342(16) 0.9700(18)
H21 H 0.8667 0.5386 1.0188
H22 H 0.7485 0.5016 0.9661
O8? O 0.696(5) 0.524(2) 0.967(2)
H23? H 0.7472 0.5242 1.0137
H24? H 0.7159 0.5651 0.9426
loop_
_geom_bond_atom_site_label_1
_geom_bond_atom_site_label_2
_geom_bond_site_symmetry_1
_geom_bond_site_symmetry_2
Co1 O1 1_555 1_555
S1 C18 1_555 1_555
O1 C20 1_555 1_555
O2 C20 1_555 1_555
O3 C11 1_555 1_555
O4 C11 1_555 1_555
S2 C12 1_555 1_555
O5 Co1 1_555 1_555
H1 O5 1_555 1_555
H2 O5 1_555 1_555
N1 Co1 1_555 1_555
N2 Co1 1_555 1_555
C1 N1 1_555 1_555
H3 C1 1_555 1_555
C2 C1 1_555 1_555
H4 C2 1_555 1_555
C3 C2 1_555 1_555
H5 C3 1_555 1_555
C4 C3 1_555 1_555
H6 C4 1_555 1_555
C5 N1 1_555 1_555
C6 N2 1_555 1_555
C7 C6 1_555 1_555
H7 C7 1_555 1_555
C8 C7 1_555 1_555
H8 C8 1_555 1_555
C9 C8 1_555 1_555
H9 C9 1_555 1_555
C10 N2 1_555 1_555
H10 C10 1_555 1_555
C11 C12 1_555 1_555
C12 H11 1_555 1_555
H12 C12 1_555 1_555
C13 S2 1_555 1_555
C14 C13 1_555 1_555
H13 C14 1_555 1_555
C15 C13 1_555 1_555
H14 C15 1_555 1_555
C16 C14 1_555 1_555
H15 C16 1_555 1_555
C17 C15 1_555 1_555
H16 C17 1_555 1_555
C18 C16 1_555 1_555
C19 S1 1_555 1_555
H17 C19 1_555 1_555
H18 C19 1_555 1_555
C20 C19 1_555 1_555
O6 H19 1_555 1_555
H20 O6 1_555 1_555
O7 H21 1_555 1_555
H22 O7 1_555 1_555
Co1A O3 1_555 1_555
O3A Co1 1_555 1_555
S2A Co1 1_555 1_555
S2 Co1A 1_555 1_555
C4 C5 1_555 1_555
C5 C6 1_555 1_555
C9 C10 1_555 1_555
C17 C18 1_555 1_555

#END
