
#######################################################################
#
#                 Cambridge Crystallographic Data Centre
#                                CCDC 
#
#######################################################################
#
# If this CIF has been generated from an entry in the Cambridge 
# Structural Database, then it will include bibliographic, chemical, 
# crystal, experimental, refinement or atomic coordinate data resulting 
# from the CCDC's data processing and validation procedures.
#
#######################################################################

data_CAZJAQ
_symmetry_cell_setting           monoclinic
_symmetry_space_group_name_H-M   'C 2/c'
_symmetry_Int_Tables_number      15
_space_group_name_Hall           '-C 2yn'
loop_
_symmetry_equiv_pos_site_id
_symmetry_equiv_pos_as_xyz
1 x,y,z
2 -x,y,1/2-z
3 1/2+x,1/2+y,z
4 1/2-x,1/2+y,1/2-z
5 -x,-y,-z
6 x,-y,1/2+z
7 1/2-x,1/2-y,-z
8 1/2+x,1/2-y,1/2+z
_cell_length_a                   20.4182(4)
_cell_length_b                   12.8989(4)
_cell_length_c                   7.9506(3)
_cell_angle_alpha                90
_cell_angle_beta                 90.923(2)
_cell_angle_gamma                90
_cell_volume                     2093.7
loop_
_atom_site_label
_atom_site_type_symbol
_atom_site_fract_x
_atom_site_fract_y
_atom_site_fract_z
Co1 Co 0.5000 0.273499(18) 0.7500
S1 S 0.323535(19) 0.37715(4) 0.21737(5)
O1 O 0.45768(5) 0.27354(7) 0.50287(12)
O2 O 0.42854(6) 0.43956(8) 0.49390(13)
O3 O 0.42819(6) 0.38198(8) 0.81396(14)
H1 H 0.4316(11) 0.4307(14) 0.880(2)
H2 H 0.4243(11) 0.4064(16) 0.7208(19)
N1 N 0.55900(6) 0.14476(9) 0.68409(15)
C1 C 0.28257(7) 0.30573(13) 0.3765(2)
C2 C 0.28273(8) 0.34022(13) 0.5415(2)
H3 H 0.3044 0.4013 0.5699
C3 C 0.24915(8) 0.21557(14) 0.3357(2)
H4 H 0.2481 0.1923 0.2250
C4 C 0.40698(7) 0.33455(12) 0.25204(17)
H5 H 0.4097 0.2613 0.2256
H6 H 0.4350 0.3713 0.1748
C5 C 0.43308(6) 0.35128(10) 0.43071(16)
C6 C 0.61733(8) 0.15031(13) 0.6107(2)
H7 H 0.6365 0.2150 0.5963
C7 C 0.65031(10) 0.06320(16) 0.5552(2)
H8 H 0.6914 0.0691 0.5072
C8 C 0.62108(10) -0.03236(15) 0.5724(3)
H9 H 0.6415 -0.0918 0.5326
C9 C 0.56151(10) -0.03884(12) 0.6488(2)
H10 H 0.5411 -0.1028 0.6616
C10 C 0.53188(8) 0.05099(10) 0.70678(18)
Co1F Co 0.0000 0.226501(18) 0.2500
S1F S 0.176465(19) 0.12285(4) 0.78263(5)
O1F O 0.04232(5) 0.22646(7) 0.49713(12)
O1A O 0.54232(5) 0.27354(7) 0.99713(12)
O2F O 0.07146(6) 0.06044(8) 0.50610(13)
O3A O 0.57181(6) 0.38198(8) 0.68604(14)
H1A H 0.5684(11) 0.4307(14) 0.620(2)
H2A H 0.5757(11) 0.4064(16) 0.7792(19)
N1A N 0.44100(6) 0.14476(9) 0.81591(15)
C1F C 0.21743(7) 0.19427(13) 0.6235(2)
C2F C 0.21727(8) 0.15978(13) 0.4585(2)
H3F H 0.1956 0.0987 0.4301
C3F C 0.25085(8) 0.28443(14) 0.6643(2)
H4F H 0.2519 0.3077 0.7750
C4F C 0.09302(7) 0.16545(12) 0.74796(17)
H5F H 0.0903 0.2387 0.7744
H6F H 0.0650 0.1287 0.8252
C5F C 0.06692(6) 0.14872(10) 0.56929(16)
C6A C 0.38267(8) 0.15031(13) 0.8893(2)
H7A H 0.3635 0.2150 0.9037
C7A C 0.34969(10) 0.06320(16) 0.9448(2)
H8A H 0.3086 0.0691 0.9928
C8A C 0.37892(10) -0.03236(15) 0.9276(3)
H9A H 0.3585 -0.0918 0.9674
C9A C 0.43849(10) -0.03884(12) 0.8512(2)
H10A H 0.4589 -0.1028 0.8384
C10A C 0.46812(8) 0.05099(10) 0.79322(18)
loop_
_geom_bond_atom_site_label_1
_geom_bond_atom_site_label_2
_geom_bond_site_symmetry_1
_geom_bond_site_symmetry_2
Co1 O1 1_555 1_555
S1 C1 1_555 1_555
O1 C5 1_555 1_555
O2 C5 1_555 1_555
O3 Co1 1_555 1_555
H1 O3 1_555 1_555
H2 O3 1_555 1_555
N1 Co1 1_555 1_555
C1 C2 1_555 1_555
C2 H3 1_555 1_555
C3 C1 1_555 1_555
H4 C3 1_555 1_555
C4 S1 1_555 1_555
H5 C4 1_555 1_555
H6 C4 1_555 1_555
C5 C4 1_555 1_555
C6 N1 1_555 1_555
H7 C6 1_555 1_555
C7 C6 1_555 1_555
H8 C7 1_555 1_555
C8 C7 1_555 1_555
H9 C8 1_555 1_555
C9 C8 1_555 1_555
H10 C9 1_555 1_555
C10 N1 1_555 1_555
Co1F O1F 1_555 1_555
S1F C1F 1_555 1_555
O1F C5F 1_555 1_555
O1A Co1 1_555 1_555
O2F C5F 1_555 1_555
O3A Co1 1_555 1_555
H1A O3A 1_555 1_555
H2A O3A 1_555 1_555
N1A Co1 1_555 1_555
C1F C2F 1_555 1_555
C2F C3 1_555 1_555
H3F C2F 1_555 1_555
C3F C2 1_555 1_555
H4F C3F 1_555 1_555
C4F S1F 1_555 1_555
H5F C4F 1_555 1_555
H6F C4F 1_555 1_555
C5F C4F 1_555 1_555
C6A N1A 1_555 1_555
H7A C6A 1_555 1_555
C7A C6A 1_555 1_555
H8A C7A 1_555 1_555
C8A C7A 1_555 1_555
H9A C8A 1_555 1_555
C9A C8A 1_555 1_555
H10A C9A 1_555 1_555
C10A C10 1_555 1_555
C9 C10 1_555 1_555
N1A C10A 1_555 1_555
C1F C3F 1_555 1_555
C9A C10A 1_555 1_555

#END
