
#######################################################################
#
#                 Cambridge Crystallographic Data Centre
#                                CCDC 
#
#######################################################################
#
# If this CIF has been generated from an entry in the Cambridge 
# Structural Database, then it will include bibliographic, chemical, 
# crystal, experimental, refinement or atomic coordinate data resulting 
# from the CCDC's data processing and validation procedures.
#
#######################################################################

data_CAZLOF
_symmetry_cell_setting           monoclinic
_symmetry_space_group_name_H-M   'P 21/n'
_symmetry_Int_Tables_number      14
_space_group_name_Hall           '-P 2yn'
loop_
_symmetry_equiv_pos_site_id
_symmetry_equiv_pos_as_xyz
1 x,y,z
2 1/2-x,1/2+y,1/2-z
3 -x,-y,-z
4 1/2+x,1/2-y,1/2+z
_cell_length_a                   10.9497(17)
_cell_length_b                   5.5811(8)
_cell_length_c                   16.998(3)
_cell_angle_alpha                90
_cell_angle_beta                 99.186(3)
_cell_angle_gamma                90
_cell_volume                     1025.45
loop_
_atom_site_label
_atom_site_type_symbol
_atom_site_fract_x
_atom_site_fract_y
_atom_site_fract_z
Ag1 Ag 0.15947(16) -0.2327(3) 0.41554(9)
Ag2 Ag 0.43572(14) -0.2440(3) 0.39255(9)
Ag3 Ag 0.32189(14) -0.7804(2) 0.46553(9)
Ag4 Ag 0.65338(13) -0.2473(2) 0.72304(9)
P1 P 0.3845(4) -0.2426(7) 0.5817(3)
P2 P -0.0688(4) -0.2408(7) 0.6874(2)
O1 O 0.3280(11) -0.339(2) 0.4996(7)
O2 O -0.0511(17) -0.247(3) 0.4639(10)
O3 O 0.5178(10) -0.332(2) 0.6063(8)
O4 O 0.3743(12) 0.029(2) 0.5845(7)
O5 O -0.1368(12) -0.334(2) 0.6086(7)
O6 O -0.0555(11) 0.034(2) 0.6864(7)
O7 O -0.1347(11) -0.324(2) 0.7565(7)
C1 C 0.2925(16) -0.364(3) 0.6534(10)
H1 H 0.2837 -0.5355 0.6453
H2 H 0.3367 -0.3380 0.7069
C2 C 0.1658(15) -0.254(3) 0.6470(10)
H3 H 0.1745 -0.0845 0.6596
H4 H 0.1240 -0.2681 0.5925
C3 C 0.0868(15) -0.369(3) 0.7019(10)
H5 H 0.0813 -0.5402 0.6916
H6 H 0.1255 -0.3463 0.7568
Ag1B Ag -0.15947(16) -0.7673(3) 0.58446(9)
Ag1B_2 Ag -0.15947(16) 0.2327(3) 0.58446(9)
Ag2B Ag 0.56428(14) -0.7560(3) 0.60745(9)
Ag2B_2 Ag 0.56428(14) 0.2440(3) 0.60745(9)
Ag2C Ag -0.06428(14) -0.2560(3) 0.89255(9)
Ag3B Ag 0.67811(14) -0.2196(2) 0.53447(9)
Ag3_2 Ag 0.32189(14) 0.2196(2) 0.46553(9)
Ag3B_2 Ag -0.32189(14) -0.2196(2) 0.53447(9)
Ag4A Ag -0.15338(13) 0.2527(2) 0.77696(9)
Ag4_2 Ag -0.34662(13) -0.2473(2) 0.72304(9)
Ag4A_2 Ag -0.15338(13) -0.7473(2) 0.77696(9)
O3B O 0.4822(10) -0.668(2) 0.3937(8)
O4B O 0.6257(12) -0.029(2) 0.4155(7)
O4_2 O 0.3743(12) -0.971(2) 0.5845(7)
O5B O 0.1368(12) -0.666(2) 0.3914(7)
O6B O 0.0555(11) -0.034(2) 0.3136(7)
O6A O 0.5555(11) -0.466(2) 0.8136(7)
O7C O 0.3653(11) -0.176(2) 0.2565(7)
O7_2 O 0.8653(11) -0.324(2) 0.7565(7)
O7A O 0.6347(11) 0.176(2) 0.7435(7)
loop_
_geom_bond_atom_site_label_1
_geom_bond_atom_site_label_2
_geom_bond_site_symmetry_1
_geom_bond_site_symmetry_2
Ag1 O1 1_555 1_555
Ag2 O1 1_555 1_555
Ag3 O1 1_555 1_555
Ag4 O3 1_555 1_555
P1 O1 1_555 1_555
P2 O5 1_555 1_555
O2 Ag1 1_555 1_555
O3 P1 1_555 1_555
O4 P1 1_555 1_555
O5 Ag1B 1_555 1_555
O6 P2 1_555 1_555
O7 P2 1_555 1_555
C1 P1 1_555 1_555
H1 C1 1_555 1_555
H2 C1 1_555 1_555
C2 C1 1_555 1_555
H3 C2 1_555 1_555
H4 C2 1_555 1_555
C3 P2 1_555 1_555
H5 C3 1_555 1_555
H6 C3 1_555 1_555
Ag1B_2 O6 1_555 1_555
Ag2B O3 1_555 1_555
Ag2B_2 O4 1_555 1_555
Ag2C O7 1_555 1_555
Ag3B O3 1_555 1_555
Ag3_2 O4 1_555 1_555
Ag3B_2 O5 1_555 1_555
Ag4A O6 1_555 1_555
Ag4_2 O7 1_555 1_555
Ag4A_2 O7 1_555 1_555
O3B Ag2 1_555 1_555
O4B Ag2 1_555 1_555
O4_2 Ag3 1_555 1_555
O5B Ag1 1_555 1_555
O6B Ag1 1_555 1_555
O6A Ag4 1_555 1_555
O7C Ag2 1_555 1_555
O7_2 Ag4 1_555 1_555
O7A Ag4 1_555 1_555
Ag3 O3B 1_555 1_555
Ag3 O5B 1_555 1_555
C2 C3 1_555 1_555
Ag2B O4_2 1_555 1_555
Ag2B_2 O7A 1_555 1_555
Ag3B O4B 1_555 1_555

#END
