
#######################################################################
#
#                 Cambridge Crystallographic Data Centre
#                                CCDC 
#
#######################################################################
#
# If this CIF has been generated from an entry in the Cambridge 
# Structural Database, then it will include bibliographic, chemical, 
# crystal, experimental, refinement or atomic coordinate data resulting 
# from the CCDC's data processing and validation procedures.
#
#######################################################################

data_CAZTOO
_symmetry_cell_setting           monoclinic
_symmetry_space_group_name_H-M   'P 21/n'
_symmetry_Int_Tables_number      14
_space_group_name_Hall           '-P 2yn'
loop_
_symmetry_equiv_pos_site_id
_symmetry_equiv_pos_as_xyz
1 x,y,z
2 1/2-x,1/2+y,1/2-z
3 -x,-y,-z
4 1/2+x,1/2-y,1/2+z
_cell_length_a                   14.839(3)
_cell_length_b                   20.741(5)
_cell_length_c                   24.297(5)
_cell_angle_alpha                90
_cell_angle_beta                 95.691(4)
_cell_angle_gamma                90
_cell_volume                     7441.17
loop_
_atom_site_label
_atom_site_type_symbol
_atom_site_fract_x
_atom_site_fract_y
_atom_site_fract_z
C19 C 0.7344(5) 0.1592(4) 0.2511(3)
H37 H 0.6960 0.1865 0.2263
H38 H 0.7096 0.1591 0.2866
C20 C 0.7302(5) 0.0916(4) 0.2285(3)
H39 H 0.7717 0.0642 0.2512
H40 H 0.6695 0.0745 0.2292
C21 C 0.7491(5) 0.0299(4) 0.1492(3)
H41 H 0.6900 0.0113 0.1528
H42 H 0.7946 0.0022 0.1682
C22 C 0.7640(5) 0.0345(4) 0.0899(3)
H43 H 0.7524 -0.0070 0.0722
H44 H 0.7225 0.0657 0.0717
C23 C 0.8721(5) 0.0618(4) 0.0286(3)
H45 H 0.8348 0.0964 0.0119
H46 H 0.8570 0.0225 0.0081
C24 C 0.9696(5) 0.0774(4) 0.0259(3)
H47 H 1.0058 0.0427 0.0434
H48 H 0.9813 0.0789 -0.0126
C25 C 0.9696(5) 0.1936(4) 0.0177(3)
H49 H 0.9048 0.1899 0.0078
H50 H 0.9988 0.1918 -0.0163
C26 C 0.9891(5) 0.2581(3) 0.0446(3)
H51 H 1.0539 0.2660 0.0488
H52 H 0.9602 0.2921 0.0218
C27 C 0.9546(4) 0.3207(3) 0.1209(3)
H53 H 0.9149 0.3488 0.0976
H54 H 1.0151 0.3388 0.1239
C28 C 0.9216(4) 0.3152(3) 0.1771(3)
H55 H 0.9632 0.2891 0.2010
H56 H 0.9182 0.3576 0.1936
C29 C 0.9783(5) 0.1677(4) 0.3043(3)
H57 H 0.9924 0.2128 0.2987
H58 H 1.0096 0.1540 0.3392
C30 C 0.8775(5) 0.1594(4) 0.3053(3)
H59 H 0.8638 0.1138 0.3068
H60 H 0.8594 0.1791 0.3387
C31 C 0.8187(5) 0.2582(3) 0.2682(3)
H61 H 0.8781 0.2743 0.2819
H62 H 0.7784 0.2656 0.2966
C32 C 0.7844(4) 0.2961(4) 0.2168(3)
H63 H 0.7217 0.2844 0.2064
H64 H 0.7859 0.3416 0.2259
C33 C 1.1019(5) 0.1316(4) 0.2594(3)
H65 H 1.1313 0.1140 0.2936
H66 H 1.1220 0.1757 0.2559
C34 C 1.1267(5) 0.0935(4) 0.2125(3)
H67 H 1.1919 0.0885 0.2147
H68 H 1.0996 0.0510 0.2132
C35 C 1.0989(5) 0.1381(4) 0.0659(3)
H69 H 1.1193 0.1821 0.0724
H70 H 1.1274 0.1216 0.0345
C36 C 1.1295(5) 0.0981(4) 0.1161(4)
H71 H 1.1075 0.0542 0.1111
H72 H 1.1952 0.0969 0.1216
K2 K 0.91165(8) 0.15576(7) 0.15681(5)
N3 N 0.9998(4) 0.1381(3) 0.0521(2)
N4 N 0.8253(3) 0.1873(3) 0.2583(2)
O7 O 0.8546(3) 0.0537(2) 0.08506(19)
O8 O 0.7542(3) 0.0920(2) 0.17305(19)
O9 O 1.0949(3) 0.1260(2) 0.1624(2)
O10 O 1.0070(3) 0.1302(2) 0.2607(2)
O11 O 0.9550(3) 0.2578(2) 0.09750(17)
O12 O 0.8342(3) 0.2861(2) 0.17096(17)
As1 As 0.35776(4) 0.13120(3) 0.27653(2)
As2 As 0.51190(4) 0.15871(3) 0.29997(3)
As3 As 0.57779(4) 0.06189(3) 0.34874(3)
As4 As 0.39077(4) 0.13479(3) 0.43137(2)
As5 As 0.33053(4) 0.06789(3) 0.35715(3)
As6 As 0.53449(4) 0.15773(3) 0.40208(3)
As7 As 0.45133(4) -0.00925(3) 0.34405(3)
As8 As 0.06999(5) 0.32576(3) 0.37441(3)
As9 As 0.11553(4) 0.35660(3) 0.28199(3)
As10 As 0.22348(4) 0.44136(3) 0.30080(2)
As11 As 0.16047(5) 0.38769(4) 0.43957(3)
As12 As 0.17537(4) 0.48243(3) 0.38622(2)
As13 As -0.02442(4) 0.40165(3) 0.31526(3)
As14 As 0.02175(4) 0.50662(3) 0.34552(3)
C37 C 0.5744(6) 0.3461(4) 0.3237(4)
H73 H 0.5988 0.3079 0.3427
H74 H 0.6198 0.3624 0.3011
C38 C 0.5564(7) 0.3954(5) 0.3649(4)
H75 H 0.6129 0.4074 0.3859
H76 H 0.5169 0.3774 0.3904
N5 N 0.1667(8) 0.6318(6) 0.4857(5)
C39 C 0.1683(9) 0.7067(7) 0.5573(6)
Cs1 Cs 0.5000 0.0000 0.5000
Cs2 Cs 0.01448(6) 0.52143(4) 0.50429(4)
Cs3 Cs 0.32241(3) 0.28355(2) 0.356251(18)
N6 N 0.4939(4) 0.3287(3) 0.2880(3)
H77 H 0.4429 0.3467 0.2924
H78 H 0.4971 0.3002 0.2625
N7 N 0.5154(6) 0.4512(4) 0.3398(3)
H79 H 0.5041 0.4531 0.3045
H80 H 0.5018 0.4832 0.3600
C40 C 0.2149(9) 0.6716(7) 0.5275(6)
N8 N 0.1030(5) 0.7455(4) 0.5253(3)
Zn1 Zn 0.39868(5) 0.01899(4) 0.24272(3)
As1B As 0.64224(4) -0.13120(3) 0.72347(2)
As2B As 0.48810(4) -0.15871(3) 0.70003(3)
As3B As 0.42221(4) -0.06189(3) 0.65126(3)
As4B As 0.60923(4) -0.13479(3) 0.56863(2)
As5B As 0.66947(4) -0.06789(3) 0.64285(3)
As6B As 0.46551(4) -0.15773(3) 0.59792(3)
As7B As 0.54867(4) 0.00925(3) 0.65595(3)
As8A As 0.43001(5) -0.17424(3) 0.12559(3)
As8B As 0.93001(5) -0.32576(3) 0.62559(3)
As9A As 0.38447(4) -0.14340(3) 0.21801(3)
As9B As 0.88447(4) -0.35660(3) 0.71801(3)
As10A As 0.27652(4) -0.05864(3) 0.19920(2)
As10B As 0.77652(4) -0.44136(3) 0.69920(2)
As10C As 0.72348(4) 0.05864(3) 0.80080(2)
As11A As 0.33953(5) -0.11231(4) 0.06043(3)
As11B As -0.16047(5) 0.61231(4) 0.56043(3)
As11B_2 As 0.83953(5) -0.38769(4) 0.56043(3)
As11C As 0.66047(5) 0.11231(4) -0.06043(3)
As12A As 0.32463(4) -0.01757(3) 0.11378(2)
As12B As -0.17537(4) 0.51757(3) 0.61378(2)
As12C As 0.67537(4) 0.01757(3) -0.11378(2)
As13A As 0.52442(4) -0.09835(3) 0.18474(3)
As14A As 0.47825(4) 0.00662(3) 0.15448(3)
As14B As -0.02175(4) 0.49338(3) 0.65448(3)
As14C As 0.52175(4) -0.00662(3) 0.84552(3)
As14C_2 As 0.52175(4) -0.00662(3) -0.15448(3)
C37B C 0.4256(6) -0.3461(4) 0.6763(4)
H73B H 0.4012 -0.3079 0.6573
H74B H 0.3802 -0.3624 0.6989
C38B C 0.4436(7) -0.3954(5) 0.6351(4)
H75B H 0.3871 -0.4074 0.6141
H76B H 0.4831 -0.3774 0.6096
N5A N 0.3333(8) 0.1318(6) 0.0143(5)
C39A C 0.3317(9) 0.2067(7) -0.0573(6)
Cs2A Cs 0.48552(6) 0.02143(4) -0.00429(4)
Cs2B Cs -0.01448(6) 0.47857(4) 0.49571(4)
Cs2C Cs 0.51448(6) -0.02143(4) 0.00429(4)
Cs3B Cs 0.67759(3) -0.28355(2) 0.643749(18)
Cs3A Cs 0.17759(3) -0.21645(2) 0.143749(18)
N6B N 0.5061(4) -0.3287(3) 0.7120(3)
H77B H 0.5571 -0.3467 0.7076
H78B H 0.5029 -0.3002 0.7375
N7B N 0.4846(6) -0.4512(4) 0.6602(3)
H79B H 0.4959 -0.4531 0.6955
H80B H 0.4982 -0.4832 0.6400
C40A C 0.2851(9) 0.1716(7) -0.0275(6)
N8A N 0.3970(5) 0.2455(4) -0.0253(3)
Zn1B Zn 0.60132(5) -0.01899(4) 0.75728(3)
Zn1A Zn 0.10132(5) 0.51899(4) 0.25728(3)
C1 C -0.2133(4) 0.7934(3) 0.4540(3)
H1 H -0.2453 0.7998 0.4176
H2 H -0.2581 0.7852 0.4796
C2 C -0.0519(5) 0.6846(3) 0.3980(3)
H3 H -0.0972 0.6550 0.3811
H4 H -0.0241 0.6649 0.4317
C3 C 0.0184(5) 0.6965(4) 0.3593(3)
H5 H 0.0426 0.6557 0.3478
H6 H -0.0084 0.7188 0.3266
C4 C 0.1657(5) 0.7405(4) 0.3539(3)
H7 H 0.1450 0.7565 0.3173
H8 H 0.1928 0.6984 0.3498
C5 C 0.2349(5) 0.7856(4) 0.3813(3)
H9 H 0.2523 0.7703 0.4186
H10 H 0.2884 0.7842 0.3614
C6 C 0.1982(4) 0.8830(4) 0.3290(3)
H11 H 0.1779 0.8509 0.3014
H12 H 0.2581 0.8971 0.3213
C7 C 0.1355(4) 0.9391(3) 0.3231(3)
H13 H 0.1518 0.9701 0.3523
H14 H 0.1400 0.9602 0.2878
C8 C -0.0196(4) 0.9653(3) 0.3120(3)
H15 H -0.0170 0.9775 0.2736
H16 H -0.0054 1.0030 0.3348
C9 C -0.1136(4) 0.9419(3) 0.3202(2)
H17 H -0.1582 0.9731 0.3053
H18 H -0.1255 0.9013 0.3009
C10 C -0.2117(4) 0.9189(3) 0.3874(2)
H19 H -0.2318 0.8799 0.3680
H20 H -0.2514 0.9539 0.3742
C11 C -0.2145(4) 0.9101(3) 0.4491(2)
H21 H -0.1899 0.9483 0.4681
H22 H -0.2771 0.9057 0.4569
C12 C -0.1482(4) 0.8570(4) 0.5316(2)
H23 H -0.1277 0.8152 0.5458
H24 H -0.2056 0.8661 0.5459
C13 C 0.0747(4) 0.9319(3) 0.5610(3)
H25 H 0.0713 0.9372 0.6004
H26 H 0.0658 0.9737 0.5434
C14 C 0.1645(4) 0.9063(3) 0.5512(2)
H27 H 0.2117 0.9317 0.5713
H28 H 0.1704 0.8621 0.5641
C15 C 0.2569(4) 0.8797(4) 0.4811(3)
H29 H 0.2560 0.8340 0.4894
H30 H 0.3073 0.8991 0.5037
C16 C 0.2679(4) 0.8895(4) 0.4215(3)
H31 H 0.2599 0.9349 0.4128
H32 H 0.3293 0.8779 0.4149
C17 C -0.1529(4) 0.7349(3) 0.4523(3)
H33 H -0.1180 0.7292 0.4879
H34 H -0.1895 0.6966 0.4445
C18 C -0.0808(4) 0.9070(4) 0.5530(3)
H35 H -0.0974 0.9486 0.5367
H36 H -0.0801 0.9106 0.5928
K1 K 0.02264(8) 0.85071(7) 0.42865(5)
N1 N 0.2051(3) 0.8524(3) 0.3842(2)
N2 N -0.1632(3) 0.8532(3) 0.4709(2)
O1 O 0.1734(3) 0.9090(2) 0.49340(17)
O2 O 0.0061(3) 0.8885(2) 0.53890(17)
O3 O 0.0442(3) 0.9166(2) 0.32629(16)
O4 O -0.1195(3) 0.9334(2) 0.37757(16)
O5 O -0.0940(3) 0.7436(2) 0.41079(18)
O6 O 0.0894(3) 0.7346(2) 0.38633(18)
loop_
_geom_bond_atom_site_label_1
_geom_bond_atom_site_label_2
_geom_bond_site_symmetry_1
_geom_bond_site_symmetry_2
C1 H1 1_555 1_555
H2 C1 1_555 1_555
C2 H3 1_555 1_555
H4 C2 1_555 1_555
C3 C2 1_555 1_555
H5 C3 1_555 1_555
H6 C3 1_555 1_555
C4 H7 1_555 1_555
H8 C4 1_555 1_555
C5 C4 1_555 1_555
H9 C5 1_555 1_555
H10 C5 1_555 1_555
C6 H11 1_555 1_555
H12 C6 1_555 1_555
C7 C6 1_555 1_555
H13 C7 1_555 1_555
H14 C7 1_555 1_555
C8 H15 1_555 1_555
H16 C8 1_555 1_555
C9 C8 1_555 1_555
H17 C9 1_555 1_555
H18 C9 1_555 1_555
C10 H19 1_555 1_555
H20 C10 1_555 1_555
C11 C10 1_555 1_555
H21 C11 1_555 1_555
H22 C11 1_555 1_555
C12 H23 1_555 1_555
H24 C12 1_555 1_555
C13 H25 1_555 1_555
H26 C13 1_555 1_555
C14 C13 1_555 1_555
H27 C14 1_555 1_555
H28 C14 1_555 1_555
C15 H29 1_555 1_555
H30 C15 1_555 1_555
C16 C15 1_555 1_555
H31 C16 1_555 1_555
H32 C16 1_555 1_555
C17 C1 1_555 1_555
H33 C17 1_555 1_555
H34 C17 1_555 1_555
C18 C12 1_555 1_555
H35 C18 1_555 1_555
H36 C18 1_555 1_555
K1 N1 1_555 1_555
N1 C5 1_555 1_555
N2 C1 1_555 1_555
O1 C14 1_555 1_555
O2 C13 1_555 1_555
O3 C7 1_555 1_555
O4 C9 1_555 1_555
O5 C2 1_555 1_555
O6 C3 1_555 1_555
C19 H37 1_555 1_555
H38 C19 1_555 1_555
C20 C19 1_555 1_555
H39 C20 1_555 1_555
H40 C20 1_555 1_555
C21 H41 1_555 1_555
H42 C21 1_555 1_555
C22 C21 1_555 1_555
H43 C22 1_555 1_555
H44 C22 1_555 1_555
C23 H45 1_555 1_555
H46 C23 1_555 1_555
C24 C23 1_555 1_555
H47 C24 1_555 1_555
H48 C24 1_555 1_555
C25 H49 1_555 1_555
H50 C25 1_555 1_555
C26 C25 1_555 1_555
H51 C26 1_555 1_555
H52 C26 1_555 1_555
C27 H53 1_555 1_555
H54 C27 1_555 1_555
C28 C27 1_555 1_555
H55 C28 1_555 1_555
H56 C28 1_555 1_555
C29 H57 1_555 1_555
H58 C29 1_555 1_555
C30 C29 1_555 1_555
H59 C30 1_555 1_555
H60 C30 1_555 1_555
C31 H61 1_555 1_555
H62 C31 1_555 1_555
C32 C31 1_555 1_555
H63 C32 1_555 1_555
H64 C32 1_555 1_555
C33 H65 1_555 1_555
H66 C33 1_555 1_555
C34 C33 1_555 1_555
H67 C34 1_555 1_555
H68 C34 1_555 1_555
C35 H69 1_555 1_555
H70 C35 1_555 1_555
C36 C35 1_555 1_555
H71 C36 1_555 1_555
H72 C36 1_555 1_555
K2 N3 1_555 1_555
N3 C24 1_555 1_555
N4 C19 1_555 1_555
O7 C22 1_555 1_555
O8 C20 1_555 1_555
O9 C34 1_555 1_555
O10 C29 1_555 1_555
O11 C26 1_555 1_555
O12 C28 1_555 1_555
As1 As2 1_555 1_555
As2 As3 1_555 1_555
As3 As6 1_555 1_555
As4 As5 1_555 1_555
As5 As1 1_555 1_555
As6 As2 1_555 1_555
As7 As3 1_555 1_555
As8 As9 1_555 1_555
As9 As10 1_555 1_555
As10 As12 1_555 1_555
As11 As8 1_555 1_555
As12 As11 1_555 1_555
As13 As8 1_555 1_555
As14 As12 1_555 1_555
C37 H73 1_555 1_555
H74 C37 1_555 1_555
C38 C37 1_555 1_555
H75 C38 1_555 1_555
H76 C38 1_555 1_555
N5 Cs2 1_555 1_555
C39 C40 1_555 1_555
Cs1 As4 1_555 1_555
Cs2 As11 1_555 1_555
Cs3 As1 1_555 1_555
N6 C37 1_555 1_555
H77 N6 1_555 1_555
H78 N6 1_555 1_555
N7 C38 1_555 1_555
H79 N7 1_555 1_555
H80 N7 1_555 1_555
C40 N5 1_555 1_555
N8 C39 1_555 1_555
Zn1 As1 1_555 1_555
As1B As2B 1_555 1_555
As2B As3B 1_555 1_555
As3B As6B 1_555 1_555
As4B Cs1 1_555 1_555
As5B As1B 1_555 1_555
As6B As2B 1_555 1_555
As7B Cs1 1_555 1_555
As8A As9A 1_555 1_555
As8B As9B 1_555 1_555
As9A As10A 1_555 1_555
As9B As10B 1_555 1_555
As10A Zn1 1_555 1_555
As10B Cs3B 1_555 1_555
As10C Zn1B 1_555 1_555
As11A As8A 1_555 1_555
As11B Cs2 1_555 1_555
As11B_2 As8B 1_555 1_555
As11C As12C 1_555 1_555
As12A As10A 1_555 1_555
As12B Cs2 1_555 1_555
As12C As14C_2 1_555 1_555
As13A As8A 1_555 1_555
As14A Zn1 1_555 1_555
As14B Cs2 1_555 1_555
As14C Zn1B 1_555 1_555
As14C_2 Cs2A 1_555 1_555
C37B H73B 1_555 1_555
H74B C37B 1_555 1_555
C38B C37B 1_555 1_555
H75B C38B 1_555 1_555
H76B C38B 1_555 1_555
N5A Cs2A 1_555 1_555
C39A C40A 1_555 1_555
Cs2A As11A 1_555 1_555
Cs2B As11 1_555 1_555
Cs2C As11A 1_555 1_555
Cs3B As1B 1_555 1_555
Cs3A As8A 1_555 1_555
N6B C37B 1_555 1_555
H77B N6B 1_555 1_555
H78B N6B 1_555 1_555
N7B C38B 1_555 1_555
H79B N7B 1_555 1_555
H80B N7B 1_555 1_555
C40A N5A 1_555 1_555
N8A C39A 1_555 1_555
Zn1B As1B 1_555 1_555
Zn1A As10 1_555 1_555
C4 O6 1_555 1_555
C6 N1 1_555 1_555
C8 O3 1_555 1_555
C10 O4 1_555 1_555
C11 N2 1_555 1_555
C12 N2 1_555 1_555
C15 O1 1_555 1_555
C16 N1 1_555 1_555
C17 O5 1_555 1_555
C18 O2 1_555 1_555
K1 N2 1_555 1_555
K1 O1 1_555 1_555
K1 O2 1_555 1_555
K1 O3 1_555 1_555
K1 O4 1_555 1_555
K1 O5 1_555 1_555
K1 O6 1_555 1_555
C21 O8 1_555 1_555
C23 O7 1_555 1_555
C25 N3 1_555 1_555
C27 O11 1_555 1_555
C30 N4 1_555 1_555
C31 N4 1_555 1_555
C32 O12 1_555 1_555
C33 O10 1_555 1_555
C35 N3 1_555 1_555
C36 O9 1_555 1_555
K2 N4 1_555 1_555
K2 O7 1_555 1_555
K2 O8 1_555 1_555
K2 O9 1_555 1_555
K2 O10 1_555 1_555
K2 O11 1_555 1_555
K2 O12 1_555 1_555
As4 As6 1_555 1_555
As4 Cs3 1_555 1_555
As5 As7 1_555 1_555
As7 Cs1 1_555 1_555
As7 Zn1 1_555 1_555
As8 Cs3 1_555 1_555
As9 As13 1_555 1_555
As9 Cs3 1_555 1_555
As10 Cs3 1_555 1_555
As11 Cs3 1_555 1_555
As12 Cs2 1_555 1_555
As12 Cs2B 1_555 1_555
As13 As14 1_555 1_555
As14 Cs2 1_555 1_555
As14 Cs2B 1_555 1_555
As14 Zn1A 1_555 1_555
Cs2 Cs2B 1_555 1_555
Cs3 N6 1_555 1_555
As3B As7B 1_555 1_555
As4B As5B 1_555 1_555
As4B As6B 1_555 1_555
As4B Cs3B 1_555 1_555
As5B As7B 1_555 1_555
As7B Zn1B 1_555 1_555
As8B Cs3B 1_555 1_555
As9A As13A 1_555 1_555
As9A Cs3A 1_555 1_555
As9B Cs3B 1_555 1_555
As10A Cs3A 1_555 1_555
As11A As12A 1_555 1_555
As11A Cs3A 1_555 1_555
As11B As12B 1_555 1_555
As11B Cs2B 1_555 1_555
As11B_2 Cs3B 1_555 1_555
As11C Cs2A 1_555 1_555
As11C Cs2C 1_555 1_555
As12A As14A 1_555 1_555
As12A Cs2A 1_555 1_555
As12A Cs2C 1_555 1_555
As12B As14B 1_555 1_555
As12B Cs2B 1_555 1_555
As12C Cs2A 1_555 1_555
As12C Cs2C 1_555 1_555
As13A As14A 1_555 1_555
As14A Cs2A 1_555 1_555
As14A Cs2C 1_555 1_555
As14B Cs2B 1_555 1_555
As14C_2 Cs2C 1_555 1_555
Cs2A Cs2C 1_555 1_555
Cs3B N6B 1_555 1_555

#END
