
#######################################################################
#
#                 Cambridge Crystallographic Data Centre
#                                CCDC 
#
#######################################################################
#
# If this CIF has been generated from an entry in the Cambridge 
# Structural Database, then it will include bibliographic, chemical, 
# crystal, experimental, refinement or atomic coordinate data resulting 
# from the CCDC's data processing and validation procedures.
#
#######################################################################

data_CBZONC01
_symmetry_cell_setting           monoclinic
_symmetry_space_group_name_H-M   'P 21/n'
_symmetry_Int_Tables_number      14
_space_group_name_Hall           '-P 2yn'
loop_
_symmetry_equiv_pos_site_id
_symmetry_equiv_pos_as_xyz
1 x,y,z
2 1/2-x,1/2+y,1/2-z
3 -x,-y,-z
4 1/2+x,1/2-y,1/2+z
_cell_length_a                   3.866(1)
_cell_length_b                   17.464(5)
_cell_length_c                   10.813(3)
_cell_angle_alpha                90
_cell_angle_beta                 97.81(3)
_cell_angle_gamma                90
_cell_volume                     723.277
loop_
_atom_site_label
_atom_site_type_symbol
_atom_site_fract_x
_atom_site_fract_y
_atom_site_fract_z
Cl1 Cl -0.2676(2) 0.08766(6) -0.02908(8)
Cu1 Cu 0.2933(2) 0.04532(4) 0.08594(5)
N1 N 0.2772(10) 0.0793(2) 0.2543(3)
C1 C 0.1338(9) 0.1314(2) 0.4636(3)
C2 C 0.1911(10) 0.0858(3) 0.5694(4)
C3 C 0.1071(11) 0.1130(3) 0.6811(4)
C4 C -0.0298(12) 0.1846(3) 0.6861(4)
C5 C -0.0856(13) 0.2305(3) 0.5837(5)
C6 C -0.0032(12) 0.2041(3) 0.4700(4)
C7 C 0.2150(10) 0.1024(3) 0.3469(4)
H1 H 0.269(11) 0.037(2) 0.563(4)
H2 H 0.146(13) 0.074(3) 0.750(5)
H3 H -0.087(14) 0.205(3) 0.756(5)
H4 H -0.174(14) 0.280(4) 0.585(5)
H5 H -0.039(12) 0.231(3) 0.406(5)
Cu1_2 Cu -0.7067(2) 0.04532(4) 0.08594(5)
Cu1B Cu -0.2933(2) -0.04532(4) -0.08594(5)
Cl1_2 Cl 0.7324(2) 0.08766(6) -0.02908(8)
Cl1B Cl 0.2676(2) -0.08766(6) 0.02908(8)
Cl1B_2 Cl -0.7324(2) -0.08766(6) 0.02908(8)
N1B N -0.2772(10) -0.0793(2) -0.2543(3)
Cu1B_2 Cu 0.7067(2) -0.04532(4) -0.08594(5)
C7B C -0.2150(10) -0.1024(3) -0.3469(4)
C1B C -0.1338(9) -0.1314(2) -0.4636(3)
C2B C -0.1911(10) -0.0858(3) -0.5694(4)
C6B C 0.0032(12) -0.2041(3) -0.4700(4)
C3B C -0.1071(11) -0.1130(3) -0.6811(4)
H1B H -0.269(11) -0.037(2) -0.563(4)
C5B C 0.0856(13) -0.2305(3) -0.5837(5)
H5B H 0.039(12) -0.231(3) -0.406(5)
C4B C 0.0298(12) -0.1846(3) -0.6861(4)
H2B H -0.146(13) -0.074(3) -0.750(5)
H4B H 0.174(14) -0.280(4) -0.585(5)
H3B H 0.087(14) -0.205(3) -0.756(5)
loop_
_geom_bond_atom_site_label_1
_geom_bond_atom_site_label_2
_geom_bond_site_symmetry_1
_geom_bond_site_symmetry_2
Cl1 Cu1 1_555 1_555
Cu1 N1 1_555 1_555
N1 C7 1_555 1_555
C1 C2 1_555 1_555
C2 C3 1_555 1_555
C3 C4 1_555 1_555
C4 C5 1_555 1_555
C5 C6 1_555 1_555
C6 C1 1_555 1_555
C7 C1 1_555 1_555
H1 C2 1_555 1_555
H2 C3 1_555 1_555
H3 C4 1_555 1_555
H4 C5 1_555 1_555
H5 C6 1_555 1_555
Cu1_2 Cl1 1_555 1_555
Cu1B Cl1 1_555 1_555
Cl1_2 Cu1 1_555 1_555
Cl1B Cu1 1_555 1_555
Cl1B_2 Cu1_2 1_555 1_555
N1B Cu1B 1_555 1_555
Cu1B_2 Cl1_2 1_555 1_555
C7B N1B 1_555 1_555
C1B C7B 1_555 1_555
C2B C1B 1_555 1_555
C6B C1B 1_555 1_555
C3B C2B 1_555 1_555
H1B C2B 1_555 1_555
C5B C6B 1_555 1_555
H5B C6B 1_555 1_555
C4B C3B 1_555 1_555
H2B C3B 1_555 1_555
H4B C5B 1_555 1_555
H3B C4B 1_555 1_555
Cu1B Cl1B 1_555 1_555
Cu1B Cl1B_2 1_555 1_555
Cl1B Cu1B_2 1_555 1_555
C5B C4B 1_555 1_555

#END
