
#######################################################################
#
#                 Cambridge Crystallographic Data Centre
#                                CCDC 
#
#######################################################################
#
# If this CIF has been generated from an entry in the Cambridge 
# Structural Database, then it will include bibliographic, chemical, 
# crystal, experimental, refinement or atomic coordinate data resulting 
# from the CCDC's data processing and validation procedures.
#
#######################################################################

data_CDLGLU01
_symmetry_cell_setting           orthorhombic
_symmetry_space_group_name_H-M   'P 21 21 21'
_symmetry_Int_Tables_number      19
_space_group_name_Hall           'P 2ac 2ab'
loop_
_symmetry_equiv_pos_site_id
_symmetry_equiv_pos_as_xyz
1 x,y,z
2 1/2-x,-y,1/2+z
3 1/2+x,1/2-y,-z
4 -x,1/2+y,1/2-z
_cell_length_a                   11.5747(13)
_cell_length_b                   10.7639(7)
_cell_length_c                   7.2556(7)
_cell_angle_alpha                90
_cell_angle_beta                 90
_cell_angle_gamma                90
_cell_volume                     903.967
loop_
_atom_site_label
_atom_site_type_symbol
_atom_site_fract_x
_atom_site_fract_y
_atom_site_fract_z
C1 C 0.6499(2) 0.5379(3) 0.7856(4)
C2 C 0.5568(2) 0.4673(3) 0.6788(4)
C3 C 0.4681(2) 0.4144(3) 0.8142(4)
C4 C 0.5197(2) 0.3252(3) 0.9536(4)
C5 C 0.4311(3) 0.2722(3) 1.0872(4)
N1 N 0.6060(2) 0.3700(2) 0.5605(3)
O1 O 0.7534(2) 0.5024(3) 0.7778(3)
O2 O 0.6147(2) 0.6275(2) 0.8808(3)
O3 O 0.4688(2) 0.2115(2) 1.2244(3)
O4 O 0.3251(2) 0.2872(2) 1.0650(3)
O5 O 0.7685(3) 0.1180(2) 0.5462(3)
Cd1 Cd 0.79094(2) 0.31636(2) 0.63940(2)
H1 H 0.521(4) 0.523(4) 0.606(5)
H2 H 0.432(4) 0.497(4) 0.879(5)
H3 H 0.408(4) 0.383(5) 0.756(6)
H4 H 0.584(4) 0.365(5) 1.023(5)
H5 H 0.559(4) 0.251(4) 0.903(6)
H6 H 0.611(4) 0.393(4) 0.461(5)
H7 H 0.557(4) 0.311(4) 0.541(5)
H8 H 0.786(4) 0.071(5) 0.585(7)
H9 H 0.740(4) 0.109(5) 0.456(6)
Cd1A Cd 0.70906(2) 0.68364(2) 1.13940(2)
Cd1B Cd 0.29094(2) 0.18364(2) 1.36060(2)
O2A O 0.8853(2) 0.3725(2) 0.3808(3)
O3B O 0.9688(2) 0.2885(2) 0.7756(3)
O4B O 0.8251(2) 0.2128(2) 0.9350(3)
O6 O 0.6809(2) 0.1068(2) 1.1992(3)
H10 H 0.715(4) 0.135(6) 1.149(5)
H11 H 0.611(4) 0.133(5) 1.209(6)
loop_
_geom_bond_atom_site_label_1
_geom_bond_atom_site_label_2
_geom_bond_site_symmetry_1
_geom_bond_site_symmetry_2
C1 C2 1_555 1_555
C2 C3 1_555 1_555
C3 C4 1_555 1_555
C4 C5 1_555 1_555
C5 O3 1_555 1_555
N1 C2 1_555 1_555
O1 C1 1_555 1_555
O2 C1 1_555 1_555
O3 Cd1B 1_555 1_555
O4 C5 1_555 1_555
O5 Cd1 1_555 1_555
O6 H10 1_555 1_555
Cd1 N1 1_555 1_555
H1 C2 1_555 1_555
H2 C3 1_555 1_555
H3 C3 1_555 1_555
H4 C4 1_555 1_555
H5 C4 1_555 1_555
H6 N1 1_555 1_555
H7 N1 1_555 1_555
H8 O5 1_555 1_555
H9 O5 1_555 1_555
H11 O6 1_555 1_555
Cd1A O2 1_555 1_555
Cd1B O4 1_555 1_555
O2A Cd1 1_555 1_555
O3B Cd1 1_555 1_555
O4B Cd1 1_555 1_555
O1 Cd1 1_555 1_555

#END
