
#######################################################################
#
#                 Cambridge Crystallographic Data Centre
#                                CCDC 
#
#######################################################################
#
# If this CIF has been generated from an entry in the Cambridge 
# Structural Database, then it will include bibliographic, chemical, 
# crystal, experimental, refinement or atomic coordinate data resulting 
# from the CCDC's data processing and validation procedures.
#
#######################################################################

data_CDMALD
_symmetry_cell_setting           monoclinic
_symmetry_space_group_name_H-M   'P 21/c'
_symmetry_Int_Tables_number      14
_space_group_name_Hall           '-P 2ybc'
loop_
_symmetry_equiv_pos_site_id
_symmetry_equiv_pos_as_xyz
1 x,y,z
2 -x,1/2+y,1/2-z
3 -x,-y,-z
4 x,1/2-y,1/2+z
_cell_length_a                   8.729(2)
_cell_length_b                   14.285(6)
_cell_length_c                   11.622(4)
_cell_angle_alpha                90
_cell_angle_beta                 102.66(2)
_cell_angle_gamma                90
_cell_volume                     1413.96
loop_
_atom_site_label
_atom_site_type_symbol
_atom_site_fract_x
_atom_site_fract_y
_atom_site_fract_z
Cd1 Cd -0.26952 -0.29328 0.36540
Cd2 Cd -0.65691 -0.11834 0.16473
C1 C -0.33310 -0.10030 0.20980
C2 C -0.16270 -0.08810 0.21900
C3 C -0.10130 -0.04820 0.13770
C4 C -0.18920 -0.00770 0.02440
C5 C -0.76660 -0.29880 0.10610
C6 C -0.79820 -0.40140 0.08670
C7 C -0.78720 -0.44830 -0.00910
C8 C -0.74130 -0.40700 -0.11430
H1 H 0.01700 -0.04000 0.14500
H2 H -0.52400 -0.37400 0.44000
H3 H -0.08000 -0.22300 0.56700
H4 H -0.23000 -0.20300 0.59300
H5 H -0.08600 -0.11000 0.29300
H6 H -0.83700 -0.43800 0.15100
H7 H -0.80300 -0.52200 -0.01800
H8 H 0.05300 -0.34800 0.38400
H9 H 0.05100 -0.26600 0.33900
H10 H -0.35500 -0.40900 0.17900
H11 H -0.32700 -0.35300 0.11000
H12 H -0.58500 -0.28500 0.38500
O1 O -0.37950 -0.15900 0.27630
O2 O -0.34790 -0.35110 0.17880
O3 O -0.51170 -0.32310 0.39930
O4 O -0.17000 -0.20860 0.52500
O5 O -0.42820 -0.05170 0.13710
O6 O -0.22910 -0.05690 -0.06570
O7 O -0.20840 0.07980 0.02100
O8 O -0.87410 -0.24570 0.11750
O9 O -0.62800 -0.26990 0.11940
O10 O -0.74580 -0.32190 -0.13160
O11 O -0.70540 -0.46460 -0.18780
O12 O -0.01710 -0.30580 0.33420
O6C O -0.22910 -0.44310 0.43430
O7B O -0.79160 -0.07980 -0.02100
O11C O -0.70540 -0.03540 0.31220
Cd2B Cd -0.34309 0.11834 -0.16473
Cd1C Cd -0.26952 -0.20672 -0.13460
Cd2C Cd -0.65691 -0.38166 -0.33527
loop_
_geom_bond_atom_site_label_1
_geom_bond_atom_site_label_2
_geom_bond_site_symmetry_1
_geom_bond_site_symmetry_2
Cd1 O1 1_555 1_555
Cd2 O1 1_555 1_555
C1 C2 1_555 1_555
C2 C3 1_555 1_555
C3 C4 1_555 1_555
C4 O6 1_555 1_555
C5 C6 1_555 1_555
C6 C7 1_555 1_555
C7 C8 1_555 1_555
C8 O10 1_555 1_555
H1 C3 1_555 1_555
H2 O3 1_555 1_555
H3 O4 1_555 1_555
H4 O4 1_555 1_555
H5 C2 1_555 1_555
H6 C6 1_555 1_555
H7 C7 1_555 1_555
H8 O12 1_555 1_555
H9 O12 1_555 1_555
H10 O2 1_555 1_555
H11 O2 1_555 1_555
H12 O3 1_555 1_555
O1 C1 1_555 1_555
O2 Cd1 1_555 1_555
O3 Cd1 1_555 1_555
O4 Cd1 1_555 1_555
O5 Cd2 1_555 1_555
O6 Cd1C 1_555 1_555
O7 C4 1_555 1_555
O8 Cd2 1_555 1_555
O9 Cd2 1_555 1_555
O11 C8 1_555 1_555
O12 Cd1 1_555 1_555
O6C Cd1 1_555 1_555
O7B Cd2 1_555 1_555
O11C Cd2 1_555 1_555
Cd2B O7 1_555 1_555
Cd2C O11 1_555 1_555
C1 O5 1_555 1_555
C5 O8 1_555 1_555
C5 O9 1_555 1_555

#END
