
#######################################################################
#
#                 Cambridge Crystallographic Data Centre
#                                CCDC 
#
#######################################################################
#
# If this CIF has been generated from an entry in the Cambridge 
# Structural Database, then it will include bibliographic, chemical, 
# crystal, experimental, refinement or atomic coordinate data resulting 
# from the CCDC's data processing and validation procedures.
#
#######################################################################

data_CDPYCL05
_symmetry_cell_setting           monoclinic
_symmetry_space_group_name_H-M   'P 21/n'
_symmetry_Int_Tables_number      14
_space_group_name_Hall           '-P 2yn'
loop_
_symmetry_equiv_pos_site_id
_symmetry_equiv_pos_as_xyz
1 x,y,z
2 1/2-x,1/2+y,1/2-z
3 -x,-y,-z
4 1/2+x,1/2-y,1/2+z
_cell_length_a                   17.680(6)
_cell_length_b                   8.597(3)
_cell_length_c                   3.7847(13)
_cell_angle_alpha                90
_cell_angle_beta                 93.013(6)
_cell_angle_gamma                90
_cell_volume                     574.46
loop_
_atom_site_label
_atom_site_type_symbol
_atom_site_fract_x
_atom_site_fract_y
_atom_site_fract_z
Cd1 Cd 0.0000 0.0000 0.0000
Cl1 Cl -0.07818(5) 0.14132(11) 0.5197(3)
N1 N 0.08813(18) 0.2025(4) -0.0275(9)
C1 C 0.1595(2) 0.1784(5) 0.0560(11)
H1 H 0.1746 0.0769 0.1296
C2 C 0.2141(2) 0.2913(5) 0.0437(12)
H2 H 0.2655 0.2671 0.1070
C3 C 0.1944(3) 0.4394(5) -0.0605(12)
H3 H 0.2315 0.5189 -0.0706
C4 C 0.1217(3) 0.4685(5) -0.1471(12)
H4 H 0.1057 0.5697 -0.2193
C5 C 0.0695(2) 0.3473(5) -0.1294(11)
H5 H 0.0179 0.3686 -0.1933
Cl1_2 Cl -0.07818(5) 0.14132(11) -0.4803(3)
Cl1B Cl 0.07818(5) -0.14132(11) -0.5197(3)
Cl1B_2 Cl 0.07818(5) -0.14132(11) 0.4803(3)
N1B N -0.08813(18) -0.2025(4) 0.0275(9)
C1B C -0.1595(2) -0.1784(5) -0.0560(11)
H1B H -0.1746 -0.0769 -0.1296
C2B C -0.2141(2) -0.2913(5) -0.0437(12)
H2B H -0.2655 -0.2671 -0.1070
C3B C -0.1944(3) -0.4394(5) 0.0605(12)
H3B H -0.2315 -0.5189 0.0706
C4B C -0.1217(3) -0.4685(5) 0.1471(12)
H4B H -0.1057 -0.5697 0.2193
C5B C -0.0695(2) -0.3473(5) 0.1294(11)
H5B H -0.0179 -0.3686 0.1933
Cd1_2 Cd 0.0000 0.0000 -1.0000
Cd1B Cd 0.0000 0.0000 1.0000
loop_
_geom_bond_atom_site_label_1
_geom_bond_atom_site_label_2
_geom_bond_site_symmetry_1
_geom_bond_site_symmetry_2
Cd1 Cl1 1_555 1_555
Cl1 Cd1B 1_555 1_555
N1 Cd1 1_555 1_555
C1 N1 1_555 1_555
H1 C1 1_555 1_555
C2 C1 1_555 1_555
H2 C2 1_555 1_555
C3 C2 1_555 1_555
H3 C3 1_555 1_555
C4 C3 1_555 1_555
H4 C4 1_555 1_555
C5 N1 1_555 1_555
H5 C5 1_555 1_555
Cl1_2 Cd1 1_555 1_555
Cl1B Cd1 1_555 1_555
Cl1B_2 Cd1 1_555 1_555
N1B Cd1 1_555 1_555
C1B N1B 1_555 1_555
H1B C1B 1_555 1_555
C2B C1B 1_555 1_555
H2B C2B 1_555 1_555
C3B C2B 1_555 1_555
H3B C3B 1_555 1_555
C4B C3B 1_555 1_555
H4B C4B 1_555 1_555
C5B N1B 1_555 1_555
H5B C5B 1_555 1_555
Cd1_2 Cl1_2 1_555 1_555
Cd1B Cl1B_2 1_555 1_555
C4 C5 1_555 1_555
Cl1B Cd1_2 1_555 1_555
C4B C5B 1_555 1_555

#END
