
#######################################################################
#
#                 Cambridge Crystallographic Data Centre
#                                CCDC 
#
#######################################################################
#
# If this CIF has been generated from an entry in the Cambridge 
# Structural Database, then it will include bibliographic, chemical, 
# crystal, experimental, refinement or atomic coordinate data resulting 
# from the CCDC's data processing and validation procedures.
#
#######################################################################

data_CDPYCL01
_symmetry_cell_setting           monoclinic
_symmetry_space_group_name_H-M   'P 21/n'
_symmetry_Int_Tables_number      14
_space_group_name_Hall           '-P 2yn'
loop_
_symmetry_equiv_pos_site_id
_symmetry_equiv_pos_as_xyz
1 x,y,z
2 1/2-x,1/2+y,1/2-z
3 -x,-y,-z
4 1/2+x,1/2-y,1/2+z
_cell_length_a                   17.78
_cell_length_b                   8.67
_cell_length_c                   3.81
_cell_angle_alpha                90
_cell_angle_beta                 91.6
_cell_angle_gamma                90
_cell_volume                     587.092
loop_
_atom_site_label
_atom_site_type_symbol
_atom_site_fract_x
_atom_site_fract_y
_atom_site_fract_z
Cd1 Cd 0.00000 0.00000 0.00000
Cl1 Cl 0.07850 -0.13920 -0.49080
C1 C 0.15980 0.17480 -0.06000
C2 C 0.21440 0.28850 -0.04340
C3 C 0.19490 0.43550 0.07040
C4 C 0.12080 0.46390 0.15290
C5 C 0.06990 0.34570 0.13180
N1 N 0.08720 0.20370 0.02300
Cl1_2 Cl 0.07850 -0.13920 0.50920
Cl1B Cl -0.07850 0.13920 0.49080
Cl1B_2 Cl -0.07850 0.13920 -0.50920
N1B N -0.08720 -0.20370 -0.02300
Cd1_2 Cd 0.00000 0.00000 -1.00000
Cd1_3 Cd 0.00000 0.00000 1.00000
C1B C -0.15980 -0.17480 0.06000
C5B C -0.06990 -0.34570 -0.13180
C2B C -0.21440 -0.28850 0.04340
C4B C -0.12080 -0.46390 -0.15290
C3B C -0.19490 -0.43550 -0.07040
loop_
_geom_bond_atom_site_label_1
_geom_bond_atom_site_label_2
_geom_bond_site_symmetry_1
_geom_bond_site_symmetry_2
Cd1 Cl1 1_555 1_555
Cl1 Cd1_2 1_555 1_555
C1 C2 1_555 1_555
C2 C3 1_555 1_555
C3 C4 1_555 1_555
C4 C5 1_555 1_555
C5 N1 1_555 1_555
N1 Cd1 1_555 1_555
Cl1_2 Cd1 1_555 1_555
Cl1B Cd1 1_555 1_555
Cl1B_2 Cd1 1_555 1_555
N1B Cd1 1_555 1_555
Cd1_2 Cl1B_2 1_555 1_555
Cd1_3 Cl1_2 1_555 1_555
C1B N1B 1_555 1_555
C5B N1B 1_555 1_555
C2B C1B 1_555 1_555
C4B C5B 1_555 1_555
C3B C2B 1_555 1_555
C1 N1 1_555 1_555
Cl1B Cd1_3 1_555 1_555
C4B C3B 1_555 1_555

#END
