
#######################################################################
#
#                 Cambridge Crystallographic Data Centre
#                                CCDC 
#
#######################################################################
#
# If this CIF has been generated from an entry in the Cambridge 
# Structural Database, then it will include bibliographic, chemical, 
# crystal, experimental, refinement or atomic coordinate data resulting 
# from the CCDC's data processing and validation procedures.
#
#######################################################################

data_CDSRCB10
_symmetry_cell_setting           triclinic
_symmetry_space_group_name_H-M   'P -1'
_symmetry_Int_Tables_number      2
_space_group_name_Hall           '-P 1'
loop_
_symmetry_equiv_pos_site_id
_symmetry_equiv_pos_as_xyz
1 x,y,z
2 -x,-y,-z
_cell_length_a                   5.410(4)
_cell_length_b                   7.562(4)
_cell_length_c                   8.020(6)
_cell_angle_alpha                92.06(4)
_cell_angle_beta                 105.07(4)
_cell_angle_gamma                104.60(4)
_cell_volume                     304.774
loop_
_atom_site_label
_atom_site_type_symbol
_atom_site_fract_x
_atom_site_fract_y
_atom_site_fract_z
Ag1 Ag 0.0604(2) 0.2409(1) 0.0250(1)
N1 N -0.3406(19) 0.3840(14) 0.1445(12)
O1 O -0.1071(18) 0.4823(14) 0.1740(13)
O2 O -0.5140(18) 0.4456(14) 0.1768(13)
O3 O -0.3958(21) 0.2233(14) 0.0765(14)
C1 C 0.4503(27) -0.1385(18) 0.3590(17)
C2 C 0.2804(24) -0.0061(16) 0.3495(15)
O4 O 0.1007(18) -0.0192(12) 0.2190(11)
N2 N 0.3396(19) 0.1206(13) 0.4840(12)
C3 C 0.1854(26) 0.2555(19) 0.4764(15)
H1 H 0.5733 -0.1037 0.2795
H2 H 0.3121 -0.2471 0.3537
H3 H 0.1729 0.3233 0.3742
H4 H 0.2361 0.2873 0.5749
H5 H 0.0966 0.2037 0.3984
O1A O 0.1071(18) 0.5177(14) -0.1740(13)
O4A O -0.1007(18) 0.0192(12) -0.2190(11)
Ag1A Ag -0.0604(2) 0.7591(1) -0.0250(1)
O2_2 O 0.4860(18) 0.4456(14) 0.1768(13)
Ag1A_2 Ag -0.0604(2) -0.2409(1) -0.0250(1)
N2A N 0.6604(19) -0.1206(13) 0.5160(12)
C1A C 0.5497(27) 0.1385(18) 0.6410(17)
N1A N 0.3406(19) 0.6160(14) -0.1445(12)
O2A O -0.4860(18) 0.5544(14) -0.1768(13)
O3A O 0.3958(21) 0.7767(14) -0.0765(14)
O4_2 O 0.1007(18) 0.9808(12) 0.2190(11)
O4A_2 O -0.1007(18) 1.0192(12) -0.2190(11)
C2A C 0.7196(24) 0.0061(16) 0.6505(15)
C3A C 0.8146(26) -0.2555(19) 0.5236(15)
H1A H 0.4267 0.1037 0.7205
H2A H 0.6879 0.2471 0.6463
O2A_2 O 0.5140(18) 0.5544(14) -0.1768(13)
H3A H 0.8271 -0.3233 0.6258
H4A H 0.7639 -0.2873 0.4251
H5A H 0.9034 -0.2037 0.6016
Ag1_2 Ag -0.9396(2) 0.2409(1) 0.0250(1)
Ag1A_3 Ag 0.9396(2) 0.7591(1) -0.0250(1)
O4A_3 O 0.8993(18) 0.0192(12) 0.7810(11)
Ag1_3 Ag 1.0604(2) 0.2409(1) 1.0250(1)
Ag1A_4 Ag 0.9396(2) -0.2409(1) 0.9750(1)
loop_
_geom_bond_atom_site_label_1
_geom_bond_atom_site_label_2
_geom_bond_site_symmetry_1
_geom_bond_site_symmetry_2
Ag1 O1 1_555 1_555
N1 O1 1_555 1_555
O1 Ag1A 1_555 1_555
O2 N1 1_555 1_555
O3 Ag1 1_555 1_555
C1 C2 1_555 1_555
C2 O4 1_555 1_555
O4 Ag1 1_555 1_555
N2 C2 1_555 1_555
C3 N2 1_555 1_555
H1 C1 1_555 1_555
H2 C1 1_555 1_555
H3 C3 1_555 1_555
H4 C3 1_555 1_555
H5 C3 1_555 1_555
O1A Ag1 1_555 1_555
O4A Ag1 1_555 1_555
Ag1A O1A 1_555 1_555
O2_2 Ag1 1_555 1_555
Ag1A_2 O4 1_555 1_555
N2A C1 1_555 1_555
C1A N2 1_555 1_555
N1A O1A 1_555 1_555
O2A Ag1A 1_555 1_555
O3A Ag1A 1_555 1_555
O4_2 Ag1A 1_555 1_555
O4A_2 Ag1A 1_555 1_555
C2A N2A 1_555 1_555
C3A N2A 1_555 1_555
H1A C1A 1_555 1_555
H2A C1A 1_555 1_555
O2A_2 N1A 1_555 1_555
H3A C3A 1_555 1_555
H4A C3A 1_555 1_555
H5A C3A 1_555 1_555
Ag1_2 O2 1_555 1_555
Ag1A_3 O2A_2 1_555 1_555
O4A_3 C2A 1_555 1_555
Ag1_3 O4A_3 1_555 1_555
Ag1A_4 O4A_3 1_555 1_555
N1 O3 1_555 1_555
O4A Ag1A_2 1_555 1_555
C1A C2A 1_555 1_555
N1A O3A 1_555 1_555

#END
