
#######################################################################
#
#                 Cambridge Crystallographic Data Centre
#                                CCDC 
#
#######################################################################
#
# If this CIF has been generated from an entry in the Cambridge 
# Structural Database, then it will include bibliographic, chemical, 
# crystal, experimental, refinement or atomic coordinate data resulting 
# from the CCDC's data processing and validation procedures.
#
#######################################################################

data_CEACET
_symmetry_cell_setting           monoclinic
_symmetry_space_group_name_H-M   'P 1 1 21/b'
_symmetry_Int_Tables_number      14
_space_group_name_Hall           '-P 2bc'
loop_
_symmetry_equiv_pos_site_id
_symmetry_equiv_pos_as_xyz
1 x,y,z
2 -x,1/2-y,1/2+z
3 -x,-y,-z
4 x,1/2+y,1/2-z
_cell_length_a                   8.427(5)
_cell_length_b                   15.03(1)
_cell_length_c                   8.010(5)
_cell_angle_alpha                90
_cell_angle_beta                 90
_cell_angle_gamma                93.90(7)
_cell_volume                     1012.18
loop_
_atom_site_label
_atom_site_type_symbol
_atom_site_fract_x
_atom_site_fract_y
_atom_site_fract_z
Ce1 Ce 0.54920 0.21500 0.62510
C1 C 0.64200 0.09700 0.98200
C2 C 0.74900 0.01900 1.05800
C3 C 0.80200 0.29800 0.39400
C4 C 0.93700 0.31100 0.27300
C5 C 0.28900 0.11700 0.43500
C6 C 0.13800 0.07800 0.34100
O1 O 0.66900 0.10300 0.42600
O2 O 0.64500 0.11000 0.82700
O3 O 0.57700 0.14400 1.08500
O4 O 0.65500 0.28700 0.33700
O5 O 0.81500 0.27900 0.54200
O6 O 0.35500 0.19200 0.37700
O7 O 0.34200 0.08400 0.55600
O3A O 0.42300 0.35600 0.58500
O4A O 0.34500 0.21300 0.83700
O6A O 0.64500 0.30800 0.87700
Ce1A Ce 0.45080 0.28500 1.12510
Ce1A_2 Ce 0.45080 0.28500 0.12510
loop_
_geom_bond_atom_site_label_1
_geom_bond_atom_site_label_2
_geom_bond_site_symmetry_1
_geom_bond_site_symmetry_2
Ce1 O1 1_555 1_555
C1 C2 1_555 1_555
C3 C4 1_555 1_555
C5 C6 1_555 1_555
O2 Ce1 1_555 1_555
O3 C1 1_555 1_555
O4 Ce1 1_555 1_555
O5 Ce1 1_555 1_555
O6 Ce1 1_555 1_555
O7 Ce1 1_555 1_555
O3A Ce1 1_555 1_555
O4A Ce1 1_555 1_555
O6A Ce1 1_555 1_555
Ce1A O3 1_555 1_555
Ce1A_2 O4 1_555 1_555
C1 O2 1_555 1_555
C3 O4 1_555 1_555
C3 O5 1_555 1_555
C5 O6 1_555 1_555
C5 O7 1_555 1_555
O6 Ce1A_2 1_555 1_555
O4A Ce1A 1_555 1_555
O6A Ce1A 1_555 1_555

#END
