
#######################################################################
#
#                 Cambridge Crystallographic Data Centre
#                                CCDC 
#
#######################################################################
#
# If this CIF has been generated from an entry in the Cambridge 
# Structural Database, then it will include bibliographic, chemical, 
# crystal, experimental, refinement or atomic coordinate data resulting 
# from the CCDC's data processing and validation procedures.
#
#######################################################################

data_CEBCUJ
_symmetry_cell_setting           orthorhombic
_symmetry_space_group_name_H-M   'C 2 2 21'
_symmetry_Int_Tables_number      20
_space_group_name_Hall           'C 2n 2'
loop_
_symmetry_equiv_pos_site_id
_symmetry_equiv_pos_as_xyz
1 x,y,z
2 -x,-y,1/2+z
3 -x,y,1/2-z
4 x,-y,-z
5 1/2+x,1/2+y,z
6 1/2-x,1/2-y,1/2+z
7 1/2-x,1/2+y,1/2-z
8 1/2+x,1/2-y,-z
_cell_length_a                   6.8874(7)
_cell_length_b                   7.6896(8)
_cell_length_c                   29.879(5)
_cell_angle_alpha                90
_cell_angle_beta                 90
_cell_angle_gamma                90
_cell_volume                     1582.43
loop_
_atom_site_label
_atom_site_type_symbol
_atom_site_fract_x
_atom_site_fract_y
_atom_site_fract_z
Zn1 Zn 0.0000 0.82540(4) 0.2500
O1 O 0.1163(2) 0.6694(2) 0.20432(5)
O2 O 0.2257(3) 0.9161(2) 0.17507(6)
O3 O 0.0966(2) 0.8337(2) 0.07173(5)
O4 O -0.2662(2) 0.8287(2) 0.21058(5)
H1 H -0.319(4) 0.920(4) 0.2055(10)
H2 H -0.248(4) 0.813(4) 0.1840(9)
O5 O 0.0000 1.0833(3) 0.2500
H3 H -0.071(4) 1.158(4) 0.2625(8)
C1 C 0.2072(3) 0.7571(3) 0.17416(8)
C2 C 0.2913(4) 0.6457(3) 0.13706(7)
H4 H 0.3894 0.5667 0.1502
H5 H 0.1861 0.5726 0.1245
C3 C 0.2756(3) 0.8271(3) 0.07024(7)
C4 C 0.3905(4) 0.9155(4) 0.03411(9)
C5 C 0.5922(4) 0.9132(4) 0.03326(10)
H6 H 0.6618 0.8517 0.0557
C6 C 0.6919(6) 1.0000 0.0000
H7 H 0.8299 1.0000 0.0000
C7 C 0.2906(6) 1.0000 0.0000
H8 H 0.1527 1.0000 0.0000
N1 N 0.3802(3) 0.7407(3) 0.10109(6)
H9 H 0.509(4) 0.739(3) 0.0995(8)
Zn1A Zn 0.0000 1.17460(4) -0.2500
O1C O 0.1163(2) 1.3306(2) -0.20432(5)
O1B O -0.1163(2) 0.6694(2) 0.29568(5)
O2C O 0.2257(3) 1.0839(2) -0.17507(6)
O3C O 0.0966(2) 1.1663(2) -0.07173(5)
O4B O 0.2662(2) 0.8287(2) 0.28942(5)
H1B H 0.319(4) 0.920(4) 0.2945(10)
H2B H 0.248(4) 0.813(4) 0.3160(9)
H3B H 0.071(4) 1.158(4) 0.2375(8)
C1C C 0.2072(3) 1.2429(3) -0.17416(8)
C2C C 0.2913(4) 1.3543(3) -0.13706(7)
H4C H 0.3894 1.4333 -0.1502
H5C H 0.1861 1.4274 -0.1245
C3C C 0.2756(3) 1.1729(3) -0.07024(7)
C4C C 0.3905(4) 1.0845(4) -0.03411(9)
C5C C 0.5922(4) 1.0868(4) -0.03326(10)
H6C H 0.6618 1.1483 -0.0557
N1C N 0.3802(3) 1.2593(3) -0.10109(6)
H9C H 0.509(4) 1.261(3) -0.0995(8)
O6 O 0.2933(3) 1.2071(2) 0.12496(6)
H10 H 0.289(4) 1.103(4) 0.1305(10)
H11 H 0.395(4) 1.223(4) 0.1110(9)
loop_
_geom_bond_atom_site_label_1
_geom_bond_atom_site_label_2
_geom_bond_site_symmetry_1
_geom_bond_site_symmetry_2
Zn1 O1 1_555 1_555
O1 C1 1_555 1_555
O2 C1 1_555 1_555
O3 C3 1_555 1_555
O4 Zn1 1_555 1_555
H1 O4 1_555 1_555
H2 O4 1_555 1_555
O5 Zn1 1_555 1_555
H3 O5 1_555 1_555
C1 C2 1_555 1_555
C2 H4 1_555 1_555
H5 C2 1_555 1_555
C3 C4 1_555 1_555
C4 C5 1_555 1_555
C5 H6 1_555 1_555
C6 C5 1_555 1_555
H7 C6 1_555 1_555
C7 C4 1_555 1_555
H8 C7 1_555 1_555
N1 C2 1_555 1_555
H9 N1 1_555 1_555
O6 H10 1_555 1_555
H11 O6 1_555 1_555
Zn1A O1C 1_555 1_555
O1C C1C 1_555 1_555
O1B Zn1 1_555 1_555
O2C C1C 1_555 1_555
O3C C3C 1_555 1_555
O4B Zn1 1_555 1_555
H1B O4B 1_555 1_555
H2B O4B 1_555 1_555
H3B O5 1_555 1_555
C1C C2C 1_555 1_555
C2C H4C 1_555 1_555
H5C C2C 1_555 1_555
C3C C4C 1_555 1_555
C4C C7 1_555 1_555
C5C C6 1_555 1_555
H6C C5C 1_555 1_555
N1C C2C 1_555 1_555
H9C N1C 1_555 1_555
C3 N1 1_555 1_555
C3C N1C 1_555 1_555
C4C C5C 1_555 1_555

#END
