
#######################################################################
#
#                 Cambridge Crystallographic Data Centre
#                                CCDC 
#
#######################################################################
#
# If this CIF has been generated from an entry in the Cambridge 
# Structural Database, then it will include bibliographic, chemical, 
# crystal, experimental, refinement or atomic coordinate data resulting 
# from the CCDC's data processing and validation procedures.
#
#######################################################################

data_CEBCIX
_symmetry_cell_setting           monoclinic
_symmetry_space_group_name_H-M   'C c'
_symmetry_Int_Tables_number      9
_space_group_name_Hall           'C -2yc'
loop_
_symmetry_equiv_pos_site_id
_symmetry_equiv_pos_as_xyz
1 x,y,z
2 x,-y,1/2+z
3 1/2+x,1/2+y,z
4 1/2+x,1/2-y,1/2+z
_cell_length_a                   6.9305(12)
_cell_length_b                   7.8963(13)
_cell_length_c                   30.874(6)
_cell_angle_alpha                90
_cell_angle_beta                 90.20(3)
_cell_angle_gamma                90
_cell_volume                     1689.58
loop_
_atom_site_label
_atom_site_type_symbol
_atom_site_fract_x
_atom_site_fract_y
_atom_site_fract_z
Mn1 Mn 0.9449(2) 0.7680(2) 0.88468(9)
C1 C 1.2164(17) 0.7581(19) 0.9660(4)
C2 C 1.2814(19) 0.6440(18) 1.0033(5)
H1 H 1.1682 0.5798 1.0140
H2 H 1.3756 0.5609 0.9920
C3 C 1.2630(19) 0.8225(17) 1.0674(5)
C4 C 1.3810(10) 0.9126(12) 1.1025(3)
C5 C 1.5816(10) 0.9124(12) 1.1027(3)
H3 H 1.6505 0.8529 1.0808
C6 C 1.6814(7) 0.9994(13) 1.1348(3)
H4 H 1.8185 0.9993 1.1349
C7 C 1.5807(10) 1.0864(12) 1.1667(3)
H5 H 1.6489 1.1459 1.1886
C8 C 1.3801(10) 1.0866(12) 1.1665(3)
C9 C 1.2803(7) 0.9996(13) 1.1344(3)
H6 H 1.1432 0.9997 1.1343
C10 C 1.2634(18) 1.1762(17) 1.2017(5)
C11 C 1.280(2) 1.3540(18) 1.2660(5)
H7 H 1.1656 1.4168 1.2553
H8 H 1.3723 1.4385 1.2773
C12 C 1.2155(17) 1.242(2) 1.3035(4)
N1 N 1.3679(15) 0.7322(16) 1.0395(4)
H9 H 1.4937 0.7261 1.0432
N2 N 1.3662(14) 1.2710(16) 1.2305(4)
H10 H 1.4916 1.2808 1.2268
O1 O 1.2517(14) 0.9104(13) 0.9663(3)
O2 O 1.1341(15) 0.6792(14) 0.9347(4)
O3 O 1.0889(13) 0.8369(12) 1.0647(4)
O4 O 1.0886(13) 1.1634(12) 1.2045(4)
O5 O 1.2482(15) 1.0866(12) 1.3028(3)
O6 O 1.1347(14) 1.3161(13) 1.3345(4)
O7 O 0.9690(17) 1.0413(11) 0.8851(5)
H11 H 0.8939 1.1185 0.8840
H12 H 1.0221 1.0522 0.8607
O8 O 0.8786(13) 0.4970(11) 0.8846(3)
H13 H 0.7800 0.4737 0.9066
H14 H 0.8301 0.4640 0.8560
O9 O 0.7089(15) 0.8109(14) 0.8363(4)
H15 H 0.6785 0.7037 0.8218
H16 H 0.7517 0.8939 0.8147
O10 O 0.7108(16) 0.8117(13) 0.9327(4)
H17 H 0.5966 0.8561 0.9177
H18 H 0.6783 0.7043 0.9468
Mn1A Mn 0.9449(2) 1.2320(2) 1.38468(9)
O6A O 1.1347(14) 0.6839(13) 0.8345(4)
O11 O 0.7830(13) 0.6970(13) 0.7536(3)
O12 O 0.7826(13) 0.7011(14) 1.0155(3)
loop_
_geom_bond_atom_site_label_1
_geom_bond_atom_site_label_2
_geom_bond_site_symmetry_1
_geom_bond_site_symmetry_2
Mn1 O2 1_555 1_555
C1 C2 1_555 1_555
C2 H1 1_555 1_555
H2 C2 1_555 1_555
C3 C4 1_555 1_555
C4 C5 1_555 1_555
C5 H3 1_555 1_555
C6 C5 1_555 1_555
H4 C6 1_555 1_555
C7 C6 1_555 1_555
H5 C7 1_555 1_555
C8 C7 1_555 1_555
C9 C4 1_555 1_555
H6 C9 1_555 1_555
C10 C8 1_555 1_555
C11 H7 1_555 1_555
H8 C11 1_555 1_555
C12 C11 1_555 1_555
N1 C2 1_555 1_555
H9 N1 1_555 1_555
N2 C10 1_555 1_555
H10 N2 1_555 1_555
O1 C1 1_555 1_555
O2 C1 1_555 1_555
O3 C3 1_555 1_555
O4 C10 1_555 1_555
O5 C12 1_555 1_555
O6 C12 1_555 1_555
O7 Mn1 1_555 1_555
H11 O7 1_555 1_555
H12 O7 1_555 1_555
O8 Mn1 1_555 1_555
H13 O8 1_555 1_555
H14 O8 1_555 1_555
O9 Mn1 1_555 1_555
H15 O9 1_555 1_555
H16 O9 1_555 1_555
O10 Mn1 1_555 1_555
H17 O10 1_555 1_555
H18 O10 1_555 1_555
Mn1A O6 1_555 1_555
O6A Mn1 1_555 1_555
C3 N1 1_555 1_555
C8 C9 1_555 1_555
C11 N2 1_555 1_555

#END
