
#######################################################################
#
#                 Cambridge Crystallographic Data Centre
#                                CCDC 
#
#######################################################################
#
# If this CIF has been generated from an entry in the Cambridge 
# Structural Database, then it will include bibliographic, chemical, 
# crystal, experimental, refinement or atomic coordinate data resulting 
# from the CCDC's data processing and validation procedures.
#
#######################################################################

data_CEBCOD
_symmetry_cell_setting           monoclinic
_symmetry_space_group_name_H-M   'P 2/c'
_symmetry_Int_Tables_number      13
_space_group_name_Hall           '-P 2yc'
loop_
_symmetry_equiv_pos_site_id
_symmetry_equiv_pos_as_xyz
1 x,y,z
2 -x,y,1/2-z
3 -x,-y,-z
4 x,-y,1/2+z
_cell_length_a                   15.211(3)
_cell_length_b                   6.8469(14)
_cell_length_c                   8.1434(16)
_cell_angle_alpha                90
_cell_angle_beta                 92.16(3)
_cell_angle_gamma                90
_cell_volume                     847.518
loop_
_atom_site_label
_atom_site_type_symbol
_atom_site_fract_x
_atom_site_fract_y
_atom_site_fract_z
Cu1 Cu 0.5000 0.0000 1.0000
C1 C 0.3442(3) 0.2532(7) 0.9962(8)
C2 C 0.2719(3) 0.3359(7) 1.0991(7)
H1 H 0.2476 0.2292 1.1658
H2 H 0.2980 0.4339 1.1759
C3 C 0.1386(3) 0.3220(7) 0.9228(7)
C4 C 0.0684(4) 0.4333(7) 0.8327(7)
C5 C 0.0662(4) 0.6386(8) 0.8314(8)
H3 H 0.1113 0.7106 0.8878
C6 C 0.0000 0.3382(11) 0.7500
H4 H 0.0000 0.1995 0.7500
C7 C 0.0000 0.7338(11) 0.7500
H5 H 0.0000 0.8725 0.7500
N1 N 0.2002(3) 0.4270(6) 1.0039(6)
H6 H 0.211(4) 0.570(5) 1.006(7)
O1 O 0.4063(2) 0.1699(5) 1.0820(4)
O2 O 0.3410(2) 0.2666(5) 0.8446(5)
O3 O 0.1403(3) 0.1399(5) 0.9212(5)
O4 O 0.5000 -0.1556(7) 1.2500
H7 H 0.4529 -0.2202 1.2609
O5 O 0.5892(2) 0.1914(5) 1.0848(5)
H8 H 0.5859 0.1832 1.1884
H9 H 0.6393 0.2367 1.0614
Cu1A Cu 0.5000 0.0000 1.5000
Cu1A_2 Cu -0.5000 0.0000 0.5000
C1A C -0.3442(3) 0.2532(7) 0.5038(8)
C2A C -0.2719(3) 0.3359(7) 0.4009(7)
H1A H -0.2476 0.2292 0.3342
H2A H -0.2980 0.4339 0.3241
C3A C -0.1386(3) 0.3220(7) 0.5772(7)
C4A C -0.0684(4) 0.4333(7) 0.6673(7)
C5A C -0.0662(4) 0.6386(8) 0.6686(8)
H3A H -0.1113 0.7106 0.6122
N1A N -0.2002(3) 0.4270(6) 0.4961(6)
H6A H -0.211(4) 0.570(5) 0.494(7)
O1A O -0.4063(2) 0.1699(5) 0.4180(4)
O1B O 0.5937(2) -0.1699(5) 0.9180(4)
O2A O -0.3410(2) 0.2666(5) 0.6554(5)
O3A O -0.1403(3) 0.1399(5) 0.5788(5)
O4B O 0.5000 0.1556(7) 0.7500
H7A H 0.5471 -0.2202 1.2391
H7B H 0.5471 0.2202 0.7391
H7C H 0.4529 0.2202 0.7609
O5B O 0.4108(2) -0.1914(5) 0.9152(5)
H8B H 0.4141 -0.1832 0.8116
H9B H 0.3607 -0.2367 0.9386
O6 O 0.2443(2) 0.8381(5) 0.0466(5)
H10 H 0.2059 0.9215 0.0144
H11 H 0.2619 0.8644 0.1444
loop_
_geom_bond_atom_site_label_1
_geom_bond_atom_site_label_2
_geom_bond_site_symmetry_1
_geom_bond_site_symmetry_2
Cu1 O1 1_555 1_555
C1 C2 1_555 1_555
C2 H1 1_555 1_555
H2 C2 1_555 1_555
C3 C4 1_555 1_555
C4 C5 1_555 1_555
C5 H3 1_555 1_555
C6 C4 1_555 1_555
H4 C6 1_555 1_555
C7 C5 1_555 1_555
H5 C7 1_555 1_555
N1 C2 1_555 1_555
H6 N1 1_555 1_555
O1 C1 1_555 1_555
O2 C1 1_555 1_555
O3 C3 1_555 1_555
O4 Cu1 1_555 1_555
H7 O4 1_555 1_555
O5 Cu1 1_555 1_555
H8 O5 1_555 1_555
H9 O5 1_555 1_555
O6 H10 1_555 1_555
H11 O6 1_555 1_555
Cu1A O4 1_555 1_555
Cu1A_2 O1A 1_555 1_555
C1A C2A 1_555 1_555
C2A H1A 1_555 1_555
H2A C2A 1_555 1_555
C3A C4A 1_555 1_555
C4A C6 1_555 1_555
C5A C7 1_555 1_555
H3A C5A 1_555 1_555
N1A C2A 1_555 1_555
H6A N1A 1_555 1_555
O1A C1A 1_555 1_555
O1B Cu1 1_555 1_555
O2A C1A 1_555 1_555
O3A C3A 1_555 1_555
O4B Cu1 1_555 1_555
H7A O4 1_555 1_555
H7B O4B 1_555 1_555
H7C O4B 1_555 1_555
O5B Cu1 1_555 1_555
H8B O5B 1_555 1_555
H9B O5B 1_555 1_555
C3 N1 1_555 1_555
C3A N1A 1_555 1_555
C4A C5A 1_555 1_555

#END
