
#######################################################################
#
#                 Cambridge Crystallographic Data Centre
#                                CCDC 
#
#######################################################################
#
# If this CIF has been generated from an entry in the Cambridge 
# Structural Database, then it will include bibliographic, chemical, 
# crystal, experimental, refinement or atomic coordinate data resulting 
# from the CCDC's data processing and validation procedures.
#
#######################################################################

data_CEBJAV
_symmetry_cell_setting           orthorhombic
_symmetry_space_group_name_H-M   'P 21 21 2'
_symmetry_Int_Tables_number      18
_space_group_name_Hall           'P 2 2ab'
loop_
_symmetry_equiv_pos_site_id
_symmetry_equiv_pos_as_xyz
1 x,y,z
2 -x,-y,z
3 1/2+x,1/2-y,-z
4 1/2-x,1/2+y,-z
_cell_length_a                   14.214(5)
_cell_length_b                   16.048(5)
_cell_length_c                   5.310(5)
_cell_angle_alpha                90
_cell_angle_beta                 90
_cell_angle_gamma                90
_cell_volume                     1211.24
loop_
_atom_site_label
_atom_site_type_symbol
_atom_site_fract_x
_atom_site_fract_y
_atom_site_fract_z
C1 C 0.5744(8) -0.5757(9) -0.521(3)
C2 C 0.6824(11) -0.6709(11) -0.253(3)
C3 C 0.6984(11) -0.5959(10) -0.168(3)
C4 C 0.5109(14) -0.5424(12) -0.699(3)
C5 C 0.4738(12) -0.6039(10) -0.869(3)
C6 C 0.7447(13) -0.8300(12) -0.394(3)
H1 H 0.6844 -0.8408 -0.4775
H2 H 0.7729 -0.8830 -0.3416
H3 H 0.7871 -0.8014 -0.5108
C7 C 0.8501(13) -0.4940(12) -0.056(4)
H4 H 0.8123 -0.4485 -0.1260
H5 H 0.8882 -0.5191 -0.1900
H6 H 0.8916 -0.4721 0.0758
Ag1 Ag 0.39898(8) -0.79582(8) -1.0252(2)
N1 N 0.4439(10) -0.6539(8) -1.006(3)
N2 N 0.4767(8) -0.8504(8) -1.526(3)
O1 O 0.4005(7) -0.8108(8) -1.513(2)
O2 O 0.5115(10) -0.8627(9) -1.727(2)
O3 O 0.5154(9) -0.8707(8) -1.320(2)
S1 S 0.5996(2) -0.6821(2) -0.5002(6)
S2 S 0.6342(3) -0.5151(3) -0.3100(8)
S3 S 0.7250(3) -0.7641(3) -0.1154(9)
S4 S 0.7751(3) -0.5702(3) 0.0737(9)
C1A C 0.4256(8) -0.4243(9) -0.521(3)
C2A C 0.3176(11) -0.3291(11) -0.253(3)
C3A C 0.3016(11) -0.4041(10) -0.168(3)
C4A C 0.4891(14) -0.4576(12) -0.699(3)
C5A C 0.5262(12) -0.3961(10) -0.869(3)
C6A C 0.2553(13) -0.1700(12) -0.394(3)
H1A H 0.3156 -0.1592 -0.4775
H2A H 0.2271 -0.1170 -0.3416
H3A H 0.2129 -0.1986 -0.5108
C7A C 0.1499(13) -0.5060(12) -0.056(4)
H4A H 0.1877 -0.5515 -0.1260
H5A H 0.1118 -0.4809 -0.1900
H6A H 0.1084 -0.5279 0.0758
Ag1A Ag 0.60102(8) -0.20418(8) -1.0252(2)
Ag1_2 Ag 0.39898(8) -0.79582(8) -2.0252(2)
Ag1_3 Ag 0.39898(8) -0.79582(8) -0.0252(2)
Ag1B Ag 0.89898(8) -0.70418(8) 0.0252(2)
Ag1C Ag 0.10102(8) -0.29582(8) 0.0252(2)
N1A N 0.5561(10) -0.3461(8) -1.006(3)
N2_2 N 0.4767(8) -0.8504(8) -0.526(3)
O1A O 0.5995(7) -0.1892(8) -1.513(2)
O1_2 O 0.4005(7) -0.8108(8) -0.513(2)
O2A O 0.4885(10) -0.1373(9) -0.727(2)
O2_2 O 0.5115(10) -0.8627(9) -0.727(2)
O3A O 0.4846(9) -0.1293(8) -1.320(2)
O3_2 O 0.5154(9) -0.8707(8) -0.320(2)
S1A S 0.4004(2) -0.3179(2) -0.5002(6)
S2A S 0.3658(3) -0.4849(3) -0.3100(8)
S3C S 0.7750(3) -0.2641(3) -0.8846(9)
S3B S 0.2250(3) -0.7359(3) -0.8846(9)
S3A S 0.2750(3) -0.2359(3) -0.1154(9)
S4B S 0.2751(3) -0.9298(3) -1.0737(9)
S4C S 0.7249(3) -0.0702(3) -1.0737(9)
S4A S 0.2249(3) -0.4298(3) 0.0737(9)
loop_
_geom_bond_atom_site_label_1
_geom_bond_atom_site_label_2
_geom_bond_site_symmetry_1
_geom_bond_site_symmetry_2
C1 C4 1_555 1_555
C2 C3 1_555 1_555
C3 S2 1_555 1_555
C4 C5 1_555 1_555
C5 N1 1_555 1_555
C6 H1 1_555 1_555
H2 C6 1_555 1_555
H3 C6 1_555 1_555
C7 H4 1_555 1_555
H5 C7 1_555 1_555
H6 C7 1_555 1_555
Ag1 N1 1_555 1_555
N2 O1 1_555 1_555
O1 Ag1 1_555 1_555
O2 N2 1_555 1_555
O3 Ag1 1_555 1_555
S1 C1 1_555 1_555
S2 C1 1_555 1_555
S3 C2 1_555 1_555
S4 C3 1_555 1_555
C1A C4A 1_555 1_555
C2A C3A 1_555 1_555
C3A S2A 1_555 1_555
C4A C4 1_555 1_555
C5A C4A 1_555 1_555
C6A H1A 1_555 1_555
H2A C6A 1_555 1_555
H3A C6A 1_555 1_555
C7A H4A 1_555 1_555
H5A C7A 1_555 1_555
H6A C7A 1_555 1_555
Ag1A N1A 1_555 1_555
Ag1_2 O2 1_555 1_555
Ag1_3 O1_2 1_555 1_555
Ag1B S3 1_555 1_555
Ag1C S3A 1_555 1_555
N1A C5A 1_555 1_555
N2_2 O1_2 1_555 1_555
O1A Ag1A 1_555 1_555
O2A Ag1A 1_555 1_555
O2_2 Ag1 1_555 1_555
O3A Ag1A 1_555 1_555
O3_2 Ag1_3 1_555 1_555
S1A C1A 1_555 1_555
S2A C1A 1_555 1_555
S3C Ag1A 1_555 1_555
S3B Ag1 1_555 1_555
S3A C2A 1_555 1_555
S4B Ag1 1_555 1_555
S4C Ag1A 1_555 1_555
S4A C3A 1_555 1_555
C2 S1 1_555 1_555
C6 S3 1_555 1_555
C7 S4 1_555 1_555
N2 O3 1_555 1_555
S4 Ag1B 1_555 1_555
C2A S1A 1_555 1_555
C6A S3A 1_555 1_555
C7A S4A 1_555 1_555
Ag1C S4A 1_555 1_555
N2_2 O2_2 1_555 1_555
N2_2 O3_2 1_555 1_555

#END
