
#######################################################################
#
#                 Cambridge Crystallographic Data Centre
#                                CCDC 
#
#######################################################################
#
# If this CIF has been generated from an entry in the Cambridge 
# Structural Database, then it will include bibliographic, chemical, 
# crystal, experimental, refinement or atomic coordinate data resulting 
# from the CCDC's data processing and validation procedures.
#
#######################################################################

data_CEBJEZ
_symmetry_cell_setting           monoclinic
_symmetry_space_group_name_H-M   'C 2'
_symmetry_Int_Tables_number      5
_space_group_name_Hall           'C 2y'
loop_
_symmetry_equiv_pos_site_id
_symmetry_equiv_pos_as_xyz
1 x,y,z
2 -x,y,-z
3 1/2+x,1/2+y,z
4 1/2-x,1/2+y,-z
_cell_length_a                   22.395(3)
_cell_length_b                   5.7611(4)
_cell_length_c                   11.5488(13)
_cell_angle_alpha                90
_cell_angle_beta                 91.371(14)
_cell_angle_gamma                90
_cell_volume                     1489.6
loop_
_atom_site_label
_atom_site_type_symbol
_atom_site_fract_x
_atom_site_fract_y
_atom_site_fract_z
C1 C -0.0680(3) -0.317(3) 0.4482(6)
C2 C -0.1079(5) 0.011(2) 0.3144(7)
C3 C -0.1566(5) -0.097(3) 0.3566(8)
C4 C -0.0324(4) -0.481(2) 0.5054(8)
C5 C -0.0628(5) -0.653(2) 0.5701(10)
C6 C -0.0444(4) 0.2119(18) 0.1365(9)
H1 H -0.0480 0.0654 0.0974
H2 H -0.0085 0.2134 0.1836
H3 H -0.0430 0.3346 0.0804
C7 C -0.2654(4) -0.283(3) 0.2929(13)
H4 H -0.2731 -0.3595 0.3649
H5 H -0.2394 -0.3779 0.2478
H6 H -0.3024 -0.2593 0.2508
C8 C -0.1069(6) -0.241(3) -0.1432(10)
N1 N -0.0868(4) -0.7851(19) 0.6222(9)
S1 S -0.03823(10) -0.1054(5) 0.3616(2)
S2 S -0.14564(8) -0.3078(6) 0.45803(18)
S3 S -0.10768(11) 0.2537(5) 0.2267(2)
S4 S -0.23021(11) -0.0064(6) 0.3215(2)
S5 S -0.15399(9) -0.3161(6) -0.02563(17)
O1 O -0.2035(3) -0.1620(16) -0.0355(8)
O2 O -0.1704(4) -0.5536(15) -0.0485(6)
O3 O -0.1174(3) -0.2826(13) 0.0755(6)
Ag1 Ag -0.20353(3) 0.16926(15) 0.10544(6)
F1 F -0.1357(4) -0.2641(14) -0.2445(6)
F2 F -0.0907(4) -0.0159(17) -0.1333(7)
F3 F -0.0589(4) -0.366(3) -0.1432(9)
C1A C 0.0680(3) -0.317(3) 0.5518(6)
C2A C 0.1079(5) 0.011(2) 0.6856(7)
C3A C 0.1566(5) -0.097(3) 0.6434(8)
C4A C 0.0324(4) -0.481(2) 0.4946(8)
C5A C 0.0628(5) -0.653(2) 0.4299(10)
C6A C 0.0444(4) 0.2119(18) 0.8635(9)
H1A H 0.0480 0.0654 0.9026
H2A H 0.0085 0.2134 0.8164
H3A H 0.0430 0.3346 0.9196
C7A C 0.2654(4) -0.283(3) 0.7071(13)
H4A H 0.2731 -0.3595 0.6351
H5A H 0.2394 -0.3779 0.7522
H6A H 0.3024 -0.2593 0.7492
C8C C -0.3931(6) 0.259(3) 0.1432(10)
N1A N 0.0868(4) -0.7851(19) 0.3778(9)
S1A S 0.03823(10) -0.1054(5) 0.6384(2)
S2A S 0.14564(8) -0.3078(6) 0.54197(18)
S3A S 0.10768(11) 0.2537(5) 0.7733(2)
S4A S 0.23021(11) -0.0064(6) 0.6785(2)
S5C S -0.34601(9) 0.1839(6) 0.02563(17)
O1A O 0.2035(3) -0.1620(16) 1.0355(8)
O1B O 0.2965(3) 0.3380(16) 0.9645(8)
O1C O -0.2965(3) 0.3380(16) 0.0355(8)
O2A O 0.1704(4) 0.4464(15) 1.0485(6)
O2_2 O -0.1704(4) 0.4464(15) -0.0485(6)
O2C O -0.3296(4) -0.0536(15) 0.0485(6)
O3C O -0.3826(3) 0.2174(13) -0.0755(6)
Ag1A Ag 0.20353(3) 0.16926(15) 0.89456(6)
Ag1C Ag -0.29647(3) -0.33074(15) -0.10544(6)
Ag1_2 Ag -0.20353(3) -0.83074(15) 0.10544(6)
Ag1C_2 Ag -0.29647(3) 0.66926(15) -0.10544(6)
F1C F -0.3643(4) 0.2359(14) 0.2445(6)
F2C F -0.4093(4) 0.4841(17) 0.1333(7)
F3C F -0.4411(4) 0.134(3) 0.1432(9)
loop_
_geom_bond_atom_site_label_1
_geom_bond_atom_site_label_2
_geom_bond_site_symmetry_1
_geom_bond_site_symmetry_2
C1 C4 1_555 1_555
C2 C3 1_555 1_555
C3 S2 1_555 1_555
C4 C5 1_555 1_555
C5 N1 1_555 1_555
C6 H1 1_555 1_555
H2 C6 1_555 1_555
H3 C6 1_555 1_555
C7 H4 1_555 1_555
H5 C7 1_555 1_555
H6 C7 1_555 1_555
C8 S5 1_555 1_555
S1 C1 1_555 1_555
S2 C1 1_555 1_555
S3 C2 1_555 1_555
S4 C3 1_555 1_555
S5 O1 1_555 1_555
O1 Ag1 1_555 1_555
O2 S5 1_555 1_555
O3 S5 1_555 1_555
Ag1 S3 1_555 1_555
F1 C8 1_555 1_555
F2 C8 1_555 1_555
F3 C8 1_555 1_555
C1A C4A 1_555 1_555
C2A C3A 1_555 1_555
C3A S2A 1_555 1_555
C4A C4 1_555 1_555
C5A C4A 1_555 1_555
C6A H1A 1_555 1_555
H2A C6A 1_555 1_555
H3A C6A 1_555 1_555
C7A H4A 1_555 1_555
H5A C7A 1_555 1_555
H6A C7A 1_555 1_555
C8C S5C 1_555 1_555
N1A C5A 1_555 1_555
S1A C1A 1_555 1_555
S2A C1A 1_555 1_555
S3A C2A 1_555 1_555
S4A C3A 1_555 1_555
S5C O1C 1_555 1_555
O1A Ag1A 1_555 1_555
O1B Ag1A 1_555 1_555
O1C Ag1 1_555 1_555
O2A Ag1A 1_555 1_555
O2_2 Ag1 1_555 1_555
O2C S5C 1_555 1_555
O3C S5C 1_555 1_555
Ag1A S3A 1_555 1_555
Ag1C O1 1_555 1_555
Ag1_2 O2 1_555 1_555
Ag1C_2 O1C 1_555 1_555
F1C C8C 1_555 1_555
F2C C8C 1_555 1_555
F3C C8C 1_555 1_555
C2 S1 1_555 1_555
C6 S3 1_555 1_555
C7 S4 1_555 1_555
S4 Ag1 1_555 1_555
C2A S1A 1_555 1_555
C6A S3A 1_555 1_555
C7A S4A 1_555 1_555
S4A Ag1A 1_555 1_555
O2C Ag1C 1_555 1_555

#END
