
#######################################################################
#
#                 Cambridge Crystallographic Data Centre
#                                CCDC 
#
#######################################################################
#
# If this CIF has been generated from an entry in the Cambridge 
# Structural Database, then it will include bibliographic, chemical, 
# crystal, experimental, refinement or atomic coordinate data resulting 
# from the CCDC's data processing and validation procedures.
#
#######################################################################

data_CEBLUR
_symmetry_cell_setting           monoclinic
_symmetry_space_group_name_H-M   'C c'
_symmetry_Int_Tables_number      9
_space_group_name_Hall           'C -2yc'
loop_
_symmetry_equiv_pos_site_id
_symmetry_equiv_pos_as_xyz
1 x,y,z
2 x,-y,1/2+z
3 1/2+x,1/2+y,z
4 1/2+x,1/2-y,1/2+z
_cell_length_a                   15.717(3)
_cell_length_b                   9.922(2)
_cell_length_c                   11.047(2)
_cell_angle_alpha                90
_cell_angle_beta                 101.348(4)
_cell_angle_gamma                90
_cell_volume                     1689.04
loop_
_atom_site_label
_atom_site_type_symbol
_atom_site_fract_x
_atom_site_fract_y
_atom_site_fract_z
Zn1 Zn -0.11761(16) 0.06000(4) -0.7735(2)
S1 S -0.06268(16) 0.4833(3) -0.30582(18)
S2 S -0.17442(14) 0.4806(3) -0.24008(18)
S3 S -0.3705(2) -0.1888(5) -0.8354(4)
S4 S 0.1369(2) -0.1894(5) -0.7258(3)
N1 N -0.0964(6) 0.1783(9) -0.6232(8)
N2 N -0.1357(6) 0.1814(10) 0.0730(7)
N3 N -0.2239(8) -0.0369(12) -0.7758(10)
N4 N -0.0108(7) -0.0345(12) -0.7776(9)
C1 C -0.2882(8) -0.1010(13) -0.7946(11)
C2 C 0.0488(9) -0.0945(12) -0.7503(11)
C3 C -0.1625(7) 0.1997(11) -0.5552(9)
H1 H -0.2141 0.1519 -0.5775
C4 C -0.1539(7) 0.2880(11) -0.4576(9)
H2 H -0.1980 0.2968 -0.4130
C5 C -0.0824(7) 0.3601(11) -0.4281(9)
C6 C -0.0117(7) 0.3469(14) -0.4940(10)
H3 H 0.0389 0.3976 -0.4747
C7 C -0.0262(8) 0.2503(14) -0.5902(10)
H4 H 0.0182 0.2370 -0.6337
C8 C -0.2109(7) 0.2547(13) 0.0372(11)
H5 H -0.2561 0.2441 0.0795
C9 C -0.2196(7) 0.3403(14) -0.0569(10)
H6 H -0.2715 0.3875 -0.0790
C10 C -0.1574(7) 0.3617(10) -0.1211(9)
C11 C -0.0792(8) 0.2837(12) -0.0834(10)
H7 H -0.0326 0.2925 -0.1232
C12 C -0.0762(8) 0.1954(11) 0.0141(10)
H8 H -0.0266 0.1430 0.0373
Zn1_2 Zn -0.11761(16) 0.06000(4) 0.2265(2)
N2_2 N -0.1357(6) 0.1814(10) -0.9270(7)
loop_
_geom_bond_atom_site_label_1
_geom_bond_atom_site_label_2
_geom_bond_site_symmetry_1
_geom_bond_site_symmetry_2
Zn1 N1 1_555 1_555
S1 S2 1_555 1_555
S2 C10 1_555 1_555
S3 C1 1_555 1_555
S4 C2 1_555 1_555
N1 C3 1_555 1_555
N2 C8 1_555 1_555
N3 Zn1 1_555 1_555
N4 Zn1 1_555 1_555
C1 N3 1_555 1_555
C2 N4 1_555 1_555
C3 H1 1_555 1_555
C4 C3 1_555 1_555
H2 C4 1_555 1_555
C5 S1 1_555 1_555
C6 C5 1_555 1_555
H3 C6 1_555 1_555
C7 N1 1_555 1_555
H4 C7 1_555 1_555
C8 H5 1_555 1_555
C9 C8 1_555 1_555
H6 C9 1_555 1_555
C10 C9 1_555 1_555
C11 C10 1_555 1_555
H7 C11 1_555 1_555
C12 N2 1_555 1_555
H8 C12 1_555 1_555
Zn1_2 N2 1_555 1_555
N2_2 Zn1 1_555 1_555
C4 C5 1_555 1_555
C6 C7 1_555 1_555
C11 C12 1_555 1_555

#END
