
#######################################################################
#
#                 Cambridge Crystallographic Data Centre
#                                CCDC 
#
#######################################################################
#
# If this CIF has been generated from an entry in the Cambridge 
# Structural Database, then it will include bibliographic, chemical, 
# crystal, experimental, refinement or atomic coordinate data resulting 
# from the CCDC's data processing and validation procedures.
#
#######################################################################

data_CECBOC
_symmetry_cell_setting           triclinic
_symmetry_space_group_name_H-M   'P -1'
_symmetry_Int_Tables_number      2
_space_group_name_Hall           '-P 1'
loop_
_symmetry_equiv_pos_site_id
_symmetry_equiv_pos_as_xyz
1 x,y,z
2 -x,-y,-z
_cell_length_a                   9.1408(3)
_cell_length_b                   12.0072(4)
_cell_length_c                   12.7159(5)
_cell_angle_alpha                116.100(2)
_cell_angle_beta                 96.9030(10)
_cell_angle_gamma                100.861(2)
_cell_volume                     1197.79
loop_
_atom_site_label
_atom_site_type_symbol
_atom_site_fract_x
_atom_site_fract_y
_atom_site_fract_z
Mn1 Mn 0.4268(2) 0.46304(18) 0.35884(19)
Cl1 Cl 0.4144(5) 0.1046(4) -0.0208(4)
Cl2 Cl 0.1789(5) -0.1472(4) -0.0626(4)
Cl3 Cl -0.0278(4) -0.1290(4) 0.1193(4)
Cl4 Cl -0.0018(4) 0.1387(4) 0.3372(4)
Cl5 Cl 0.7963(4) 0.7896(4) 0.3375(4)
Cl6 Cl 0.7967(4) 1.0631(4) 0.5313(4)
Cl7 Cl 0.5833(5) 1.0908(3) 0.7129(4)
Cl8 Cl 0.3733(4) 0.8423(3) 0.6939(3)
O1 O 0.4371(10) 0.3301(8) 0.2156(8)
O3 O 0.2465(10) 0.3497(8) 0.3515(8)
O4 O 0.5988(9) 0.5785(8) 0.3601(8)
O5 O 0.4242(9) 0.6010(8) 0.5098(8)
N1 N 0.2842(12) 0.5335(11) 0.2380(10)
N2 N 0.0138(12) 0.4724(10) 0.3408(10)
C1 C 0.333(2) 0.5146(19) 0.1391(16)
H1 H 0.4066 0.4694 0.1214
C2 C 0.2830(19) 0.5568(17) 0.0614(16)
H2 H 0.3294 0.5483 -0.0020
C3 C 0.1647(18) 0.6112(15) 0.0777(13)
H3 H 0.1239 0.6364 0.0238
C4 C 0.1068(17) 0.6280(15) 0.1785(14)
H4 H 0.0290 0.6688 0.1944
C5 C 0.1615(13) 0.5861(11) 0.2532(12)
C6 C 0.1038(14) 0.6032(12) 0.3621(14)
H5 H 0.0386 0.6610 0.3776
H6 H 0.1889 0.6402 0.4315
C7 C -0.0582(15) 0.4816(13) 0.4442(11)
H7 H -0.1159 0.5452 0.4617
H8 H -0.1292 0.3992 0.4205
C8 C 0.3253(15) 0.2203(12) 0.1837(12)
C9 C 0.3048(15) 0.1050(12) 0.0795(12)
C10 C 0.1975(16) -0.0025(12) 0.0617(13)
C11 C 0.1051(14) 0.0047(12) 0.1425(13)
C12 C 0.1164(13) 0.1275(13) 0.2405(13)
C13 C 0.2285(16) 0.2302(12) 0.2566(13)
C14 C 0.6008(14) 0.7003(11) 0.4391(12)
C15 C 0.6870(13) 0.8044(15) 0.4388(13)
C16 C 0.6805(15) 0.9327(12) 0.5294(13)
C17 C 0.5842(18) 0.9385(12) 0.5984(13)
C18 C 0.4934(13) 0.8316(12) 0.5999(11)
C19 C 0.5037(16) 0.7146(13) 0.5219(14)
Mn1A Mn 0.5732(2) 0.53696(18) 0.64116(19)
Mn1A_2 Mn -0.4268(2) 0.53696(18) 0.64116(19)
Cl1A Cl 0.5856(5) 0.8954(4) 1.0208(4)
Cl2A Cl 0.8211(5) 1.1472(4) 1.0626(4)
Cl3A Cl 1.0278(4) 1.1290(4) 0.8807(4)
Cl4A Cl 1.0018(4) 0.8613(4) 0.6628(4)
Cl5A Cl 0.2037(4) 0.2104(4) 0.6625(4)
Cl6A Cl 0.2033(4) -0.0631(4) 0.4687(4)
Cl7A Cl 0.4167(5) -0.0908(3) 0.2871(4)
Cl8A Cl 0.6267(4) 0.1577(3) 0.3061(3)
O1A O 0.5629(10) 0.6699(8) 0.7844(8)
O3A O 0.7535(10) 0.6503(8) 0.6485(8)
O4A O 0.4012(9) 0.4215(8) 0.6399(8)
O5A O 0.5758(9) 0.3990(8) 0.4902(8)
N1A N -0.2842(12) 0.4665(11) 0.7620(10)
N1A_2 N 0.7158(12) 0.4665(11) 0.7620(10)
N2A N -0.0138(12) 0.5276(10) 0.6592(10)
C1A C -0.333(2) 0.4854(19) 0.8609(16)
H1A H -0.4066 0.5306 0.8786
C2A C -0.2830(19) 0.4432(17) 0.9386(16)
H2A H -0.3294 0.4517 1.0020
C3A C -0.1647(18) 0.3888(15) 0.9223(13)
H3A H -0.1239 0.3636 0.9762
C4A C -0.1068(17) 0.3720(15) 0.8215(14)
H4A H -0.0290 0.3312 0.8056
C5A C -0.1615(13) 0.4139(11) 0.7468(12)
C6A C -0.1038(14) 0.3968(12) 0.6379(14)
H5A H -0.0386 0.3390 0.6224
H6A H -0.1889 0.3598 0.5685
C7A C 0.0582(15) 0.5184(13) 0.5558(11)
H7A H 0.1159 0.4548 0.5383
H8A H 0.1292 0.6008 0.5795
C8A C 0.6747(15) 0.7797(12) 0.8163(12)
C9A C 0.6952(15) 0.8950(12) 0.9205(12)
C10A C 0.8025(16) 1.0025(12) 0.9383(13)
C11A C 0.8949(14) 0.9953(12) 0.8575(13)
C12A C 0.8836(13) 0.8725(13) 0.7595(13)
C13A C 0.7715(16) 0.7698(12) 0.7434(13)
C14A C 0.3992(14) 0.2997(11) 0.5609(12)
C15A C 0.3130(13) 0.1956(15) 0.5612(13)
C16A C 0.3195(15) 0.0673(12) 0.4706(13)
C17A C 0.4158(18) 0.0615(12) 0.4016(13)
C18A C 0.5066(13) 0.1684(12) 0.4001(11)
C19A C 0.4963(16) 0.2854(13) 0.4781(14)
O2 O -0.2582(10) 0.4252(9) 0.1956(9)
loop_
_geom_bond_atom_site_label_1
_geom_bond_atom_site_label_2
_geom_bond_site_symmetry_1
_geom_bond_site_symmetry_2
Mn1 O1 1_555 1_555
Cl1 C9 1_555 1_555
Cl2 C10 1_555 1_555
Cl3 C11 1_555 1_555
Cl4 C12 1_555 1_555
Cl5 C15 1_555 1_555
Cl6 C16 1_555 1_555
Cl7 C17 1_555 1_555
Cl8 C18 1_555 1_555
O1 C8 1_555 1_555
O3 Mn1 1_555 1_555
O4 Mn1 1_555 1_555
O5 Mn1 1_555 1_555
N1 Mn1 1_555 1_555
N2 C6 1_555 1_555
C1 N1 1_555 1_555
H1 C1 1_555 1_555
C2 C1 1_555 1_555
H2 C2 1_555 1_555
C3 C2 1_555 1_555
H3 C3 1_555 1_555
C4 C3 1_555 1_555
H4 C4 1_555 1_555
C5 N1 1_555 1_555
C6 C5 1_555 1_555
H5 C6 1_555 1_555
H6 C6 1_555 1_555
C7 N2 1_555 1_555
H7 C7 1_555 1_555
H8 C7 1_555 1_555
C8 C9 1_555 1_555
C9 C10 1_555 1_555
C10 C11 1_555 1_555
C11 C12 1_555 1_555
C12 C13 1_555 1_555
C13 O3 1_555 1_555
C14 O4 1_555 1_555
C15 C14 1_555 1_555
C16 C15 1_555 1_555
C17 C16 1_555 1_555
C18 C17 1_555 1_555
C19 O5 1_555 1_555
Mn1A O5 1_555 1_555
Mn1A_2 N1A 1_555 1_555
Cl1A C9A 1_555 1_555
Cl2A C10A 1_555 1_555
Cl3A C11A 1_555 1_555
Cl4A C12A 1_555 1_555
Cl5A C15A 1_555 1_555
Cl6A C16A 1_555 1_555
Cl7A C17A 1_555 1_555
Cl8A C18A 1_555 1_555
O1A Mn1A 1_555 1_555
O3A Mn1A 1_555 1_555
O4A Mn1A 1_555 1_555
O5A Mn1 1_555 1_555
N1A C1A 1_555 1_555
N1A_2 Mn1A 1_555 1_555
N2A C6A 1_555 1_555
C1A H1A 1_555 1_555
C2A C1A 1_555 1_555
H2A C2A 1_555 1_555
C3A C2A 1_555 1_555
H3A C3A 1_555 1_555
C4A C3A 1_555 1_555
H4A C4A 1_555 1_555
C5A N1A 1_555 1_555
C6A C5A 1_555 1_555
H5A C6A 1_555 1_555
H6A C6A 1_555 1_555
C7A C7 1_555 1_555
H7A C7A 1_555 1_555
H8A C7A 1_555 1_555
C8A O1A 1_555 1_555
C9A C8A 1_555 1_555
C10A C9A 1_555 1_555
C11A C10A 1_555 1_555
C12A C11A 1_555 1_555
C13A O3A 1_555 1_555
C14A O4A 1_555 1_555
C15A C14A 1_555 1_555
C16A C15A 1_555 1_555
C17A C16A 1_555 1_555
C18A C17A 1_555 1_555
C19A O5A 1_555 1_555
C4 C5 1_555 1_555
C8 C13 1_555 1_555
C14 C19 1_555 1_555
C18 C19 1_555 1_555
Mn1A O5A 1_555 1_555
N2A C7A 1_555 1_555
C4A C5A 1_555 1_555
C8A C13A 1_555 1_555
C12A C13A 1_555 1_555
C14A C19A 1_555 1_555
C18A C19A 1_555 1_555

#END
