
#######################################################################
#
#                 Cambridge Crystallographic Data Centre
#                                CCDC 
#
#######################################################################
#
# If this CIF has been generated from an entry in the Cambridge 
# Structural Database, then it will include bibliographic, chemical, 
# crystal, experimental, refinement or atomic coordinate data resulting 
# from the CCDC's data processing and validation procedures.
#
#######################################################################

data_CECNII
_symmetry_cell_setting           monoclinic
_symmetry_space_group_name_H-M   'C 2/c'
_symmetry_Int_Tables_number      15
_space_group_name_Hall           '-C 2yn'
loop_
_symmetry_equiv_pos_site_id
_symmetry_equiv_pos_as_xyz
1 x,y,z
2 1/2+x,1/2+y,z
3 -x,y,1/2-z
4 1/2-x,1/2+y,1/2-z
5 -x,-y,-z
6 1/2-x,1/2-y,-z
7 x,-y,1/2+z
8 1/2+x,1/2-y,1/2+z
_cell_length_a                   19.672(4)
_cell_length_b                   17.197(2)
_cell_length_c                   13.680(5)
_cell_angle_alpha                90
_cell_angle_beta                 126.67(2)
_cell_angle_gamma                90
_cell_volume                     3712.01
loop_
_atom_site_label
_atom_site_type_symbol
_atom_site_fract_x
_atom_site_fract_y
_atom_site_fract_z
Cu1 Cu 0.5000 0.06547(8) 0.7500
P1 P 0.5000 0.23683(17) 0.7500
P2 P 0.57241(13) -0.01083(12) 0.92250(18)
S1 S 0.41810(13) 0.17198(12) 0.75378(19)
O1 O 0.4560(4) 0.3001(3) 0.6438(5)
C1 C 0.4161(5) 0.2792(5) 0.5177(7)
H1 H 0.4213 0.2230 0.5122
C2 C 0.4615(6) 0.3206(6) 0.4766(8)
H2 H 0.5197 0.3042 0.5253
H3 H 0.4589 0.3756 0.4855
H4 H 0.4353 0.3085 0.3926
C3 C 0.3234(6) 0.3003(5) 0.4453(8)
H5 H 0.2978 0.2717 0.4759
H6 H 0.2955 0.2875 0.3611
H7 H 0.3180 0.3550 0.4529
C4 C 0.6028(5) -0.1050(5) 0.8980(6)
C5 C 0.6520(6) -0.1046(6) 0.8558(8)
H8 H 0.6670 -0.0574 0.8404
C6 C 0.6786(6) -0.1727(7) 0.8367(9)
H9 H 0.7131 -0.1713 0.8111
C7 C 0.6548(6) -0.2430(6) 0.8549(8)
H10 H 0.6713 -0.2893 0.8394
C8 C 0.6062(7) -0.2440(6) 0.8965(10)
H11 H 0.5908 -0.2912 0.9112
C9 C 0.5807(6) -0.1763(5) 0.9163(9)
H12 H 0.5471 -0.1783 0.9432
C10 C 0.6730(5) 0.0199(5) 1.0644(7)
C11 C 0.7119(6) -0.0237(5) 1.1706(8)
H13 H 0.6866 -0.0695 1.1704
C12 C 0.7867(7) -0.0002(6) 1.2753(8)
H14 H 0.8121 -0.0311 1.3446
C13 C 0.8253(6) 0.0676(6) 1.2810(9)
H15 H 0.8751 0.0843 1.3536
C14 C 0.7879(6) 0.1102(6) 1.1756(9)
H16 H 0.8142 0.1553 1.1758
C15 C 0.7113(5) 0.0870(5) 1.0684(7)
H17 H 0.6860 0.1176 0.9989
C16 C 0.5091(5) -0.0357(4) 0.9772(7)
H18 H 0.4561 -0.0592 0.9114
H19 H 0.5398 -0.0734 1.0426
Cu1F Cu 0.5000 -0.06547(8) 1.2500
P2D P 0.42759(13) 0.01083(12) 1.07750(18)
P2B P 0.42759(13) -0.01083(12) 0.57750(18)
S1B S 0.58190(13) 0.17198(12) 0.74622(19)
O1B O 0.5440(4) 0.3001(3) 0.8562(5)
C1B C 0.5839(5) 0.2792(5) 0.9823(7)
H1B H 0.5787 0.2230 0.9878
C2B C 0.5385(6) 0.3206(6) 1.0234(8)
H2B H 0.4803 0.3042 0.9747
H3B H 0.5411 0.3756 1.0145
H4B H 0.5647 0.3085 1.1074
C3B C 0.6766(6) 0.3003(5) 1.0547(8)
H5B H 0.7022 0.2717 1.0241
H6B H 0.7045 0.2875 1.1389
H7B H 0.6820 0.3550 1.0471
C4D C 0.3972(5) 0.1050(5) 1.1020(6)
C5D C 0.3480(6) 0.1046(6) 1.1442(8)
H8D H 0.3330 0.0574 1.1596
C6D C 0.3214(6) 0.1727(7) 1.1633(9)
H9D H 0.2869 0.1713 1.1889
C7D C 0.3452(6) 0.2430(6) 1.1451(8)
H10D H 0.3287 0.2893 1.1606
C8D C 0.3938(7) 0.2440(6) 1.1035(10)
H11D H 0.4092 0.2912 1.0888
C9D C 0.4193(6) 0.1763(5) 1.0837(9)
H12D H 0.4529 0.1783 1.0568
C10D C 0.3270(5) -0.0199(5) 0.9356(7)
C11D C 0.2881(6) 0.0237(5) 0.8294(8)
H13D H 0.3134 0.0695 0.8296
C12D C 0.2133(7) 0.0002(6) 0.7247(8)
H14D H 0.1879 0.0311 0.6554
C13D C 0.1747(6) -0.0676(6) 0.7190(9)
H15D H 0.1249 -0.0843 0.6464
C14D C 0.2121(6) -0.1102(6) 0.8244(9)
H16D H 0.1858 -0.1553 0.8242
C15D C 0.2887(5) -0.0870(5) 0.9316(7)
H17D H 0.3140 -0.1176 1.0011
C16D C 0.4909(5) 0.0357(4) 1.0228(7)
H18D H 0.5439 0.0592 1.0886
H19D H 0.4602 0.0734 0.9574
Cl1 Cl 0.5620(4) 0.5324(2) 0.8771(4)
C17 C 0.5000 0.4796(10) 0.7500
Cl1B Cl 0.4380(4) 0.5324(2) 0.6229(4)
loop_
_geom_bond_atom_site_label_1
_geom_bond_atom_site_label_2
_geom_bond_site_symmetry_1
_geom_bond_site_symmetry_2
Cu1 P2 1_555 1_555
P1 S1 1_555 1_555
P2 C4 1_555 1_555
S1 Cu1 1_555 1_555
O1 P1 1_555 1_555
Cl1 C17 1_555 1_555
C1 O1 1_555 1_555
H1 C1 1_555 1_555
C2 C1 1_555 1_555
H2 C2 1_555 1_555
H3 C2 1_555 1_555
H4 C2 1_555 1_555
C3 C1 1_555 1_555
H5 C3 1_555 1_555
H6 C3 1_555 1_555
H7 C3 1_555 1_555
C4 C5 1_555 1_555
C5 H8 1_555 1_555
C6 C5 1_555 1_555
H9 C6 1_555 1_555
C7 C6 1_555 1_555
H10 C7 1_555 1_555
C8 C7 1_555 1_555
H11 C8 1_555 1_555
C9 C4 1_555 1_555
H12 C9 1_555 1_555
C10 P2 1_555 1_555
C11 C10 1_555 1_555
H13 C11 1_555 1_555
C12 C11 1_555 1_555
H14 C12 1_555 1_555
C13 C12 1_555 1_555
H15 C13 1_555 1_555
C14 C13 1_555 1_555
H16 C14 1_555 1_555
C15 C10 1_555 1_555
H17 C15 1_555 1_555
C16 P2 1_555 1_555
H18 C16 1_555 1_555
H19 C16 1_555 1_555
C17 Cl1B 1_555 1_555
Cu1F P2D 1_555 1_555
P2D C4D 1_555 1_555
P2B Cu1 1_555 1_555
S1B Cu1 1_555 1_555
O1B P1 1_555 1_555
C1B O1B 1_555 1_555
H1B C1B 1_555 1_555
C2B C1B 1_555 1_555
H2B C2B 1_555 1_555
H3B C2B 1_555 1_555
H4B C2B 1_555 1_555
C3B C1B 1_555 1_555
H5B C3B 1_555 1_555
H6B C3B 1_555 1_555
H7B C3B 1_555 1_555
C4D C5D 1_555 1_555
C5D H8D 1_555 1_555
C6D C5D 1_555 1_555
H9D C6D 1_555 1_555
C7D C6D 1_555 1_555
H10D C7D 1_555 1_555
C8D C7D 1_555 1_555
H11D C8D 1_555 1_555
C9D C4D 1_555 1_555
H12D C9D 1_555 1_555
C10D P2D 1_555 1_555
C11D C10D 1_555 1_555
H13D C11D 1_555 1_555
C12D C11D 1_555 1_555
H14D C12D 1_555 1_555
C13D C12D 1_555 1_555
H15D C13D 1_555 1_555
C14D C13D 1_555 1_555
H16D C14D 1_555 1_555
C15D C10D 1_555 1_555
H17D C15D 1_555 1_555
C16D C16 1_555 1_555
H18D C16D 1_555 1_555
H19D C16D 1_555 1_555
P1 S1B 1_555 1_555
C8 C9 1_555 1_555
C14 C15 1_555 1_555
P2D C16D 1_555 1_555
C8D C9D 1_555 1_555
C14D C15D 1_555 1_555

#END
