
#######################################################################
#
#                 Cambridge Crystallographic Data Centre
#                                CCDC 
#
#######################################################################
#
# If this CIF has been generated from an entry in the Cambridge 
# Structural Database, then it will include bibliographic, chemical, 
# crystal, experimental, refinement or atomic coordinate data resulting 
# from the CCDC's data processing and validation procedures.
#
#######################################################################

data_CECRUY01
_symmetry_cell_setting           orthorhombic
_symmetry_space_group_name_H-M   'P b c a'
_symmetry_Int_Tables_number      61
_space_group_name_Hall           '-P 2ac 2ab'
loop_
_symmetry_equiv_pos_site_id
_symmetry_equiv_pos_as_xyz
1 x,y,z
2 1/2-x,-y,1/2+z
3 -x,1/2+y,1/2-z
4 1/2+x,1/2-y,-z
5 -x,-y,-z
6 1/2+x,y,1/2-z
7 x,1/2-y,1/2+z
8 1/2-x,1/2+y,z
_cell_length_a                   12.6264(12)
_cell_length_b                   9.3602(9)
_cell_length_c                   14.3011(14)
_cell_angle_alpha                90
_cell_angle_beta                 90
_cell_angle_gamma                90
_cell_volume                     1690.18
loop_
_atom_site_label
_atom_site_type_symbol
_atom_site_fract_x
_atom_site_fract_y
_atom_site_fract_z
Cd1 Cd 0.67829(3) 0.06127(4) 0.63093(2)
N1 N 0.4810(4) 0.2100(5) 0.6279(3)
O1 O 0.5268(4) 0.1708(7) 0.7003(3)
O2 O 0.5323(4) 0.1904(7) 0.5547(3)
O3 O 0.3926(4) 0.2618(5) 0.6283(3)
N2 N 0.6411(4) -0.2472(5) 0.6321(3)
O4 O 0.7383(3) -0.2088(4) 0.6328(2)
O5 O 0.5721(3) -0.1515(4) 0.6351(3)
O6 O 0.6183(3) -0.3758(4) 0.6289(3)
N3 N 0.7250(4) 0.0205(5) 0.4752(3)
C1 C 0.6645(4) 0.0653(6) 0.4053(4)
H1 H 0.6013 0.1161 0.4195
C2 C 0.6898(4) 0.0407(6) 0.3124(4)
H2 H 0.6428 0.0724 0.2649
N4 N 0.7791(4) -0.0269(5) 0.2883(3)
C3 C 0.8414(4) -0.0713(6) 0.3582(4)
H3 H 0.9055 -0.1199 0.3441
C4 C 0.8138(4) -0.0476(6) 0.4516(4)
H4 H 0.8597 -0.0809 0.4995
Cd1G Cd 0.82171(3) -0.43873(4) 0.63093(2)
Cd1A Cd 0.82171(3) -0.06127(4) 0.13093(2)
Cd1G_2 Cd 0.82171(3) 0.56127(4) 0.63093(2)
Cd1A_2 Cd 0.82171(3) -0.06127(4) 1.13093(2)
N1G N 1.0190(4) -0.2900(5) 0.6279(3)
O1G O 0.9732(4) -0.3292(7) 0.7003(3)
O2G O 0.9677(4) -0.3096(7) 0.5547(3)
O3G O 1.1074(4) -0.2382(5) 0.6283(3)
N2G N 0.8589(4) 0.2528(5) 0.6321(3)
O4G O 0.7617(3) 0.2912(4) 0.6328(2)
O4G_2 O 0.7617(3) -0.7088(4) 0.6328(2)
O5G O 0.9279(3) -0.6515(4) 0.6351(3)
O5G_2 O 0.9279(3) 0.3485(4) 0.6351(3)
O6G O 0.8817(3) 0.1242(4) 0.6289(3)
N3G N 0.7750(4) -0.4795(5) 0.4752(3)
N3A N 0.7750(4) -0.0205(5) 0.9752(3)
C1A C 0.8355(4) -0.0653(6) 0.9053(4)
H1A H 0.8987 -0.1161 0.9195
C2A C 0.8102(4) -0.0407(6) 0.8124(4)
H2A H 0.8572 -0.0724 0.7649
N4A N 0.7209(4) 0.0269(5) 0.7883(3)
N4F N 0.7791(4) -0.4731(5) 0.7883(3)
C3A C 0.6586(4) 0.0713(6) 0.8582(4)
H3A H 0.5945 0.1199 0.8441
C4A C 0.6862(4) 0.0476(6) 0.9516(4)
H4A H 0.6403 0.0809 0.9995
loop_
_geom_bond_atom_site_label_1
_geom_bond_atom_site_label_2
_geom_bond_site_symmetry_1
_geom_bond_site_symmetry_2
Cd1 O1 1_555 1_555
N1 O1 1_555 1_555
O2 Cd1 1_555 1_555
O3 N1 1_555 1_555
N2 O4 1_555 1_555
O4 Cd1 1_555 1_555
O5 Cd1 1_555 1_555
O6 N2 1_555 1_555
N3 Cd1 1_555 1_555
C1 N3 1_555 1_555
H1 C1 1_555 1_555
C2 C1 1_555 1_555
H2 C2 1_555 1_555
N4 C2 1_555 1_555
C3 N4 1_555 1_555
H3 C3 1_555 1_555
C4 N3 1_555 1_555
H4 C4 1_555 1_555
Cd1G O4 1_555 1_555
Cd1A N4 1_555 1_555
Cd1G_2 O4G 1_555 1_555
Cd1A_2 N3A 1_555 1_555
N1G O1G 1_555 1_555
O1G Cd1G 1_555 1_555
O2G Cd1G 1_555 1_555
O3G N1G 1_555 1_555
N2G O4G 1_555 1_555
O4G Cd1 1_555 1_555
O4G_2 Cd1G 1_555 1_555
O5G Cd1G 1_555 1_555
O5G_2 Cd1G_2 1_555 1_555
O6G Cd1 1_555 1_555
N3G Cd1G 1_555 1_555
N3A C1A 1_555 1_555
C1A H1A 1_555 1_555
C2A C1A 1_555 1_555
H2A C2A 1_555 1_555
N4A Cd1 1_555 1_555
N4F Cd1G 1_555 1_555
C3A N4A 1_555 1_555
H3A C3A 1_555 1_555
C4A N3A 1_555 1_555
H4A C4A 1_555 1_555
N1 O2 1_555 1_555
N2 O5 1_555 1_555
O6 Cd1G 1_555 1_555
C3 C4 1_555 1_555
N1G O2G 1_555 1_555
N2G O5G_2 1_555 1_555
N2G O6G 1_555 1_555
C2A N4A 1_555 1_555
C3A C4A 1_555 1_555

#END
