
#######################################################################
#
#                 Cambridge Crystallographic Data Centre
#                                CCDC 
#
#######################################################################
#
# If this CIF has been generated from an entry in the Cambridge 
# Structural Database, then it will include bibliographic, chemical, 
# crystal, experimental, refinement or atomic coordinate data resulting 
# from the CCDC's data processing and validation procedures.
#
#######################################################################

data_CECSAF
_symmetry_cell_setting           orthorhombic
_symmetry_space_group_name_H-M   'P c a 21'
_symmetry_Int_Tables_number      29
_space_group_name_Hall           'P 2c -2ac'
loop_
_symmetry_equiv_pos_site_id
_symmetry_equiv_pos_as_xyz
1 x,y,z
2 -x,-y,1/2+z
3 1/2+x,-y,z
4 1/2-x,y,1/2+z
_cell_length_a                   6.9943(8)
_cell_length_b                   15.806(2)
_cell_length_c                   10.7350(10)
_cell_angle_alpha                90
_cell_angle_beta                 90
_cell_angle_gamma                90
_cell_volume                     1186.77
loop_
_atom_site_label
_atom_site_type_symbol
_atom_site_fract_x
_atom_site_fract_y
_atom_site_fract_z
Cd1 Cd 0.513929(18) 0.750593(8) 0.33458(12)
N1 N 0.1322(3) 0.64457(12) 0.35706(18)
O1 O 0.3005(2) 0.63714(9) 0.31025(17)
O2 O 0.0608(3) 0.58303(13) 0.4105(2)
O3 O 0.0474(2) 0.71175(11) 0.3475(2)
N2 N 0.8457(3) 0.88055(11) 0.3143(2)
O4 O 0.7231(2) 0.85479(11) 0.39507(16)
O5 O 0.8251(3) 0.85874(11) 0.20470(16)
O6 O 0.9771(2) 0.92754(11) 0.3464(2)
N3 N 0.6311(3) 0.66662(13) 0.5019(2)
C1 C 0.5747(3) 0.58761(15) 0.52905(19)
H1 H 0.4848 0.5602 0.4764
C2 C 0.6442(3) 0.54566(16) 0.6315(2)
H2 H 0.6101 0.4886 0.6478
C3 C 0.7645(3) 0.58902(14) 0.7092(2)
H3 H 0.8090 0.5620 0.7828
N4 N 0.8216(3) 0.66832(13) 0.68504(19)
C4 C 0.7530(4) 0.70316(12) 0.5808(3)
H4 H 0.7947 0.7588 0.5612
N5 N 0.3632(3) 0.82528(13) 0.17385(19)
C5 C 0.3726(4) 0.90961(16) 0.1650(2)
H5 H 0.4535 0.9398 0.2205
C6 C 0.2692(4) 0.95354(13) 0.0785(3)
H6 H 0.2710 1.0136 0.0756
C7 C 0.1628(3) 0.90700(16) -0.0039(2)
H7 H 0.0902 0.9361 -0.0652
N6 N 0.1567(3) 0.82199(13) -0.0018(2)
C8 C 0.2551(5) 0.78501(12) 0.0902(3)
H8 H 0.2473 0.7252 0.0966
Cd1C Cd 0.986071(18) 0.750593(8) 0.83458(12)
Cd1C_2 Cd -0.013929(18) 0.750593(8) -0.16542(12)
N4C N 0.6784(3) 0.66832(13) 0.18504(19)
N6C N 0.3433(3) 0.82199(13) 0.4982(2)
loop_
_geom_bond_atom_site_label_1
_geom_bond_atom_site_label_2
_geom_bond_site_symmetry_1
_geom_bond_site_symmetry_2
Cd1 O1 1_555 1_555
N1 O1 1_555 1_555
O2 N1 1_555 1_555
O3 N1 1_555 1_555
N2 O4 1_555 1_555
O4 Cd1 1_555 1_555
O5 N2 1_555 1_555
O6 N2 1_555 1_555
N3 Cd1 1_555 1_555
C1 N3 1_555 1_555
H1 C1 1_555 1_555
C2 C1 1_555 1_555
H2 C2 1_555 1_555
C3 C2 1_555 1_555
H3 C3 1_555 1_555
N4 C3 1_555 1_555
C4 N3 1_555 1_555
H4 C4 1_555 1_555
N5 Cd1 1_555 1_555
C5 N5 1_555 1_555
H5 C5 1_555 1_555
C6 C5 1_555 1_555
H6 C6 1_555 1_555
C7 C6 1_555 1_555
H7 C7 1_555 1_555
N6 C7 1_555 1_555
C8 N5 1_555 1_555
H8 C8 1_555 1_555
Cd1C N4 1_555 1_555
Cd1C_2 N6 1_555 1_555
N4C Cd1 1_555 1_555
N6C Cd1 1_555 1_555
N4 C4 1_555 1_555
N6 C8 1_555 1_555

#END
