
#######################################################################
#
#                 Cambridge Crystallographic Data Centre
#                                CCDC 
#
#######################################################################
#
# If this CIF has been generated from an entry in the Cambridge 
# Structural Database, then it will include bibliographic, chemical, 
# crystal, experimental, refinement or atomic coordinate data resulting 
# from the CCDC's data processing and validation procedures.
#
#######################################################################

data_CECVIR
_symmetry_cell_setting           monoclinic
_symmetry_space_group_name_H-M   'C 2/c'
_symmetry_Int_Tables_number      15
_space_group_name_Hall           '-C 2yn'
loop_
_symmetry_equiv_pos_site_id
_symmetry_equiv_pos_as_xyz
1 x,y,z
2 -x,y,1/2-z
3 1/2+x,1/2+y,z
4 1/2-x,1/2+y,1/2-z
5 -x,-y,-z
6 x,-y,1/2+z
7 1/2-x,1/2-y,-z
8 1/2+x,1/2-y,1/2+z
_cell_length_a                   24.980(5)
_cell_length_b                   6.5472(13)
_cell_length_c                   17.278(4)
_cell_angle_alpha                90
_cell_angle_beta                 103.96(3)
_cell_angle_gamma                90
_cell_volume                     2742.34
loop_
_atom_site_label
_atom_site_type_symbol
_atom_site_fract_x
_atom_site_fract_y
_atom_site_fract_z
Ag1 Ag 0.7500 0.7500 0.0000
N1 N 0.71269(19) 0.5045(7) 0.0491(3)
N2 N 0.64601(17) 0.3056(7) 0.0731(3)
C1 C 0.5346(2) 0.5513(8) 0.0761(3)
C2 C 0.6586(2) 0.4756(9) 0.0373(3)
H1 H 0.6322 0.5635 0.0076
C3 C 0.5113(2) 0.3182(8) -0.0380(3)
C4 C 0.6954(2) 0.2111(8) 0.1094(3)
C5 C 0.7369(2) 0.3386(9) 0.0942(3)
C6 C 0.5443(2) 0.3710(8) 0.0366(3)
C7 C 0.5677(2) 0.6069(9) 0.1527(3)
H2 H 0.5969 0.5233 0.1774
C8 C 0.5912(2) 0.2303(9) 0.0784(3)
H3 H 0.5906 0.2177 0.1341
H4 H 0.5853 0.0955 0.0546
C9 C 0.4878(3) 0.0937(10) -0.1540(4)
H5 H 0.4951 -0.0230 -0.1803
C10 C 0.5203(2) 0.1410(9) -0.0816(4)
H6 H 0.5496 0.0550 -0.0593
C11 C 0.7071(3) 0.0326(9) 0.1535(4)
H7 H 0.6792 -0.0495 0.1638
C12 C 0.7620(3) -0.0175(10) 0.1815(4)
H8 H 0.7715 -0.1367 0.2109
C13 C 0.8036(3) 0.1082(11) 0.1664(4)
H9 H 0.8402 0.0702 0.1864
C14 C 0.5573(2) 0.7799(9) 0.1902(4)
H10 H 0.5798 0.8151 0.2396
C15 C 0.7924(2) 0.2854(10) 0.1232(4)
H11 H 0.8206 0.3669 0.1135
Ag1B Ag 0.2500 0.2500 0.0000
N1D N 0.28731(19) 0.4955(7) -0.0491(3)
N1F N 0.78731(19) 0.9955(7) -0.0491(3)
N2D N 0.35399(17) 0.6944(7) -0.0731(3)
C1D C 0.4654(2) 0.4487(8) -0.0761(3)
C2D C 0.3414(2) 0.5244(9) -0.0373(3)
H1D H 0.3678 0.4365 -0.0076
C3D C 0.4887(2) 0.6818(8) 0.0380(3)
C4D C 0.3046(2) 0.7889(8) -0.1094(3)
C5D C 0.2631(2) 0.6614(9) -0.0942(3)
C6D C 0.4557(2) 0.6290(8) -0.0366(3)
C7D C 0.4323(2) 0.3931(9) -0.1527(3)
H2D H 0.4031 0.4767 -0.1774
C8D C 0.4088(2) 0.7697(9) -0.0784(3)
H3D H 0.4094 0.7823 -0.1341
H4D H 0.4147 0.9045 -0.0546
C9D C 0.5122(3) 0.9063(10) 0.1540(4)
H5D H 0.5049 1.0230 0.1803
C10D C 0.4797(2) 0.8590(9) 0.0816(4)
H6D H 0.4504 0.9450 0.0593
C11D C 0.2929(3) 0.9674(9) -0.1535(4)
H7D H 0.3208 1.0495 -0.1638
C12D C 0.2380(3) 1.0175(10) -0.1815(4)
H8D H 0.2285 1.1367 -0.2109
C13D C 0.1964(3) 0.8918(11) -0.1664(4)
H9D H 0.1598 0.9298 -0.1864
C14D C 0.4427(2) 0.2201(9) -0.1902(4)
H10D H 0.4202 0.1849 -0.2396
C15D C 0.2076(2) 0.7146(10) -0.1232(4)
H11D H 0.1794 0.6331 -0.1135
Ag2 Ag 0.5000 0.48981(13) 0.2500
N3 N 0.4046(2) 0.2521(9) 0.1480(4)
O1 O 0.37198(19) 0.1697(7) 0.0922(3)
O2 O 0.4363(2) 0.3849(8) 0.1328(3)
O3 O 0.4065(3) 0.2081(8) 0.2170(3)
N3A N 0.5954(2) 0.2521(9) 0.3520(4)
O1A O 0.62802(19) 0.1697(7) 0.4078(3)
O2A O 0.5637(2) 0.3849(8) 0.3672(3)
O3A O 0.5935(3) 0.2081(8) 0.2830(3)
loop_
_geom_bond_atom_site_label_1
_geom_bond_atom_site_label_2
_geom_bond_site_symmetry_1
_geom_bond_site_symmetry_2
Ag1 N1 1_555 1_555
N1 C2 1_555 1_555
N2 C2 1_555 1_555
C1 C6 1_555 1_555
C2 H1 1_555 1_555
C3 C6 1_555 1_555
C4 N2 1_555 1_555
C5 N1 1_555 1_555
C6 C8 1_555 1_555
C7 C1 1_555 1_555
H2 C7 1_555 1_555
C8 N2 1_555 1_555
H3 C8 1_555 1_555
H4 C8 1_555 1_555
C9 H5 1_555 1_555
C10 C3 1_555 1_555
H6 C10 1_555 1_555
C11 C4 1_555 1_555
H7 C11 1_555 1_555
C12 C11 1_555 1_555
H8 C12 1_555 1_555
C13 C12 1_555 1_555
H9 C13 1_555 1_555
C14 C7 1_555 1_555
H10 C14 1_555 1_555
C15 C5 1_555 1_555
H11 C15 1_555 1_555
Ag2 O2 1_555 1_555
N3 O1 1_555 1_555
O2 N3 1_555 1_555
O3 N3 1_555 1_555
Ag1B N1D 1_555 1_555
N1D C2D 1_555 1_555
N1F Ag1 1_555 1_555
N2D C2D 1_555 1_555
C1D C3 1_555 1_555
C2D H1D 1_555 1_555
C3D C1 1_555 1_555
C4D N2D 1_555 1_555
C5D N1D 1_555 1_555
C6D C1D 1_555 1_555
C7D C1D 1_555 1_555
H2D C7D 1_555 1_555
C8D N2D 1_555 1_555
H3D C8D 1_555 1_555
H4D C8D 1_555 1_555
C9D C14 1_555 1_555
H5D C9D 1_555 1_555
C10D C3D 1_555 1_555
H6D C10D 1_555 1_555
C11D C4D 1_555 1_555
H7D C11D 1_555 1_555
C12D C11D 1_555 1_555
H8D C12D 1_555 1_555
C13D C12D 1_555 1_555
H9D C13D 1_555 1_555
C14D C9 1_555 1_555
H10D C14D 1_555 1_555
C15D C5D 1_555 1_555
H11D C15D 1_555 1_555
N3A O1A 1_555 1_555
O2A Ag2 1_555 1_555
O3A N3A 1_555 1_555
C4 C5 1_555 1_555
C9 C10 1_555 1_555
C13 C15 1_555 1_555
C3D C6D 1_555 1_555
C4D C5D 1_555 1_555
C6D C8D 1_555 1_555
C7D C14D 1_555 1_555
C9D C10D 1_555 1_555
C13D C15D 1_555 1_555
N3A O2A 1_555 1_555

#END
