
#######################################################################
#
#                 Cambridge Crystallographic Data Centre
#                                CCDC 
#
#######################################################################
#
# If this CIF has been generated from an entry in the Cambridge 
# Structural Database, then it will include bibliographic, chemical, 
# crystal, experimental, refinement or atomic coordinate data resulting 
# from the CCDC's data processing and validation procedures.
#
#######################################################################

data_CECVOX
_symmetry_cell_setting           monoclinic
_symmetry_space_group_name_H-M   'P 21/c'
_symmetry_Int_Tables_number      14
_space_group_name_Hall           '-P 2ybc'
loop_
_symmetry_equiv_pos_site_id
_symmetry_equiv_pos_as_xyz
1 x,y,z
2 -x,1/2+y,1/2-z
3 -x,-y,-z
4 x,1/2-y,1/2+z
_cell_length_a                   7.6822(8)
_cell_length_b                   19.039(2)
_cell_length_c                   19.1684(18)
_cell_angle_alpha                90
_cell_angle_beta                 107.432(4)
_cell_angle_gamma                90
_cell_volume                     2674.84
loop_
_atom_site_label
_atom_site_type_symbol
_atom_site_fract_x
_atom_site_fract_y
_atom_site_fract_z
Ni1 Ni 0.0000 -0.5000 0.5000
Cl1 Cl 0.29339(9) -0.44213(4) 0.55473(4)
O1 O -0.0909(3) -0.12612(11) 0.58282(11)
O2 O -0.4275(3) 0.13157(11) 0.31366(11)
N1 N -0.2586(3) -0.01407(11) 0.42927(12)
N2 N -0.1097(3) -0.14252(12) 0.46427(13)
N3 N -0.1430(3) -0.39819(11) 0.49317(12)
N4 N -0.3411(3) 0.02348(13) 0.28741(13)
N5 N -0.0180(3) 0.02437(11) 0.10711(12)
C1 C -0.1336(4) -0.10497(15) 0.51957(15)
C2 C -0.2166(4) -0.03320(14) 0.49941(14)
C3 C -0.2428(4) 0.01018(16) 0.55336(16)
H1 H -0.2101 -0.0050 0.6028
C4 C -0.3171(4) 0.07555(17) 0.53410(16)
H2 H -0.3366 0.1064 0.5700
C5 C -0.3629(4) 0.09585(16) 0.46163(16)
H3 H -0.4167 0.1404 0.4467
C6 C -0.3289(3) 0.05000(14) 0.41134(14)
C7 C -0.3711(4) 0.07215(15) 0.33260(15)
C8 C -0.0152(4) -0.20960(15) 0.47661(17)
H4 H 0.0832 -0.2073 0.5237
H5 H 0.0432 -0.2169 0.4376
C9 C -0.1338(4) -0.27255(14) 0.47823(14)
C10 C -0.3199(4) -0.26881(15) 0.46779(16)
H6 H -0.3816 -0.2250 0.4582
C11 C -0.4144(4) -0.32972(16) 0.47151(16)
H7 H -0.5417 -0.3281 0.4654
C12 C -0.3233(4) -0.39237(15) 0.48413(15)
H8 H -0.3902 -0.4338 0.4866
C13 C -0.0544(4) -0.33824(14) 0.48939(14)
H9 H 0.0724 -0.3413 0.4948
C14 C -0.3636(4) 0.03758(17) 0.21066(14)
H10 H -0.4293 0.0826 0.1968
H11 H -0.4389 0.0000 0.1805
C15 C -0.1824(3) 0.04147(14) 0.19447(14)
C16 C -0.0250(4) 0.06378(15) 0.24615(15)
H12 H -0.0267 0.0769 0.2938
C17 C 0.1352(4) 0.06667(16) 0.22728(15)
H13 H 0.2450 0.0825 0.2616
C18 C 0.1334(4) 0.04617(15) 0.15787(15)
H14 H 0.2444 0.0476 0.1457
C19 C -0.1722(4) 0.02244(14) 0.12611(14)
H15 H -0.2808 0.0071 0.0906
H16 H -0.143(6) -0.121(3) 0.421(3)
H17 H -0.289(7) -0.015(2) 0.306(3)
Ni1A Ni 0.0000 -1.0000 1.0000
Ni1A_2 Ni 0.0000 0.0000 0.0000
Cl1B Cl -0.29339(9) -0.55787(4) 0.44527(4)
O1B O 0.0909(3) -0.87388(11) 0.41718(11)
O2B O 0.4275(3) -1.13157(11) 0.68634(11)
N1B N 0.2586(3) -0.98593(11) 0.57073(12)
N2B N 0.1097(3) -0.85748(12) 0.53573(13)
N3B N 0.1430(3) -0.60181(11) 0.50683(12)
N4B N 0.3411(3) -1.02348(13) 0.71259(13)
N5B N 0.0180(3) -1.02437(11) 0.89289(12)
N5A N 0.0180(3) -0.47563(11) 0.39289(12)
N5C N -0.0180(3) -0.52437(11) 0.60711(12)
C1B C 0.1336(4) -0.89503(15) 0.48043(15)
C2B C 0.2166(4) -0.96680(14) 0.50059(14)
C3B C 0.2428(4) -1.01018(16) 0.44664(16)
H1B H 0.2101 -0.9950 0.3972
C4B C 0.3171(4) -1.07555(17) 0.46590(16)
H2B H 0.3366 -1.1064 0.4300
C5B C 0.3629(4) -1.09585(16) 0.53837(16)
H3B H 0.4167 -1.1404 0.5533
C6B C 0.3289(3) -1.05000(14) 0.58866(14)
C7B C 0.3711(4) -1.07215(15) 0.66740(15)
C8B C 0.0152(4) -0.79040(15) 0.52339(17)
H4B H -0.0832 -0.7927 0.4763
H5B H -0.0432 -0.7831 0.5624
C9B C 0.1338(4) -0.72745(14) 0.52177(14)
C10B C 0.3199(4) -0.73119(15) 0.53221(16)
H6B H 0.3816 -0.7750 0.5418
C11B C 0.4144(4) -0.67028(16) 0.52849(16)
H7B H 0.5417 -0.6719 0.5346
C12B C 0.3233(4) -0.60763(15) 0.51587(15)
H8B H 0.3902 -0.5662 0.5134
C13B C 0.0544(4) -0.66176(14) 0.51061(14)
H9B H -0.0724 -0.6587 0.5052
C14B C 0.3636(4) -1.03758(17) 0.78934(14)
H10B H 0.4293 -1.0826 0.8032
H11B H 0.4389 -1.0000 0.8195
C15B C 0.1824(3) -1.04147(14) 0.80553(14)
C16B C 0.0250(4) -1.06378(15) 0.75385(15)
H12B H 0.0267 -1.0769 0.7062
C17B C -0.1352(4) -1.06667(16) 0.77272(15)
H13B H -0.2450 -1.0825 0.7384
C18B C -0.1334(4) -1.04617(15) 0.84213(15)
H14B H -0.2444 -1.0476 0.8543
C19B C 0.1722(4) -1.02244(14) 0.87389(14)
H15B H 0.2808 -1.0071 0.9094
H16B H 0.143(6) -0.879(3) 0.579(3)
H17B H 0.289(7) -0.985(2) 0.694(3)
O3 O -0.1777(4) -0.11447(13) 0.30310(14)
N6 N -0.2511(5) -0.20905(16) 0.22920(16)
C20 C -0.2059(7) -0.1441(2) 0.2437(2)
H18 H -0.1932 -0.1163 0.2044
C21 C -0.2747(8) -0.2423(3) 0.1592(2)
H19 H -0.2411 -0.2093 0.1262
H20 H -0.4025 -0.2563 0.1382
H21 H -0.1965 -0.2840 0.1658
C22 C -0.2702(6) -0.2536(2) 0.2878(2)
H22 H -0.1527 -0.2758 0.3125
H23 H -0.3616 -0.2900 0.2676
H24 H -0.3092 -0.2251 0.3230
O4 O -0.7336(4) -0.22197(15) 0.36157(15)
N7 N -0.7526(4) -0.19078(16) 0.24524(15)
C23 C -0.7580(5) -0.2355(2) 0.2968(2)
H25 H -0.7834 -0.2831 0.2824
C24 C -0.7856(8) -0.2117(3) 0.1698(2)
H26 H -0.8119 -0.2621 0.1649
H27 H -0.6772 -0.2016 0.1546
H28 H -0.8900 -0.1855 0.1387
C25 C -0.7108(8) -0.1183(2) 0.2631(3)
H29 H -0.8120 -0.0963 0.2763
H30 H -0.6929 -0.0940 0.2207
H31 H -0.5991 -0.1150 0.3044
loop_
_geom_bond_atom_site_label_1
_geom_bond_atom_site_label_2
_geom_bond_site_symmetry_1
_geom_bond_site_symmetry_2
Ni1 Cl1 1_555 1_555
O1 C1 1_555 1_555
O2 C7 1_555 1_555
N1 C2 1_555 1_555
N2 C1 1_555 1_555
N3 Ni1 1_555 1_555
N4 C7 1_555 1_555
N5 C18 1_555 1_555
C1 C2 1_555 1_555
C2 C3 1_555 1_555
C3 H1 1_555 1_555
C4 C3 1_555 1_555
H2 C4 1_555 1_555
C5 C4 1_555 1_555
H3 C5 1_555 1_555
C6 N1 1_555 1_555
C7 C6 1_555 1_555
C8 N2 1_555 1_555
H4 C8 1_555 1_555
H5 C8 1_555 1_555
C9 C8 1_555 1_555
C10 C9 1_555 1_555
H6 C10 1_555 1_555
C11 C10 1_555 1_555
H7 C11 1_555 1_555
C12 N3 1_555 1_555
H8 C12 1_555 1_555
C13 N3 1_555 1_555
H9 C13 1_555 1_555
C14 N4 1_555 1_555
H10 C14 1_555 1_555
H11 C14 1_555 1_555
C15 C14 1_555 1_555
C16 C15 1_555 1_555
H12 C16 1_555 1_555
C17 C16 1_555 1_555
H13 C17 1_555 1_555
C18 C17 1_555 1_555
H14 C18 1_555 1_555
C19 N5 1_555 1_555
H15 C19 1_555 1_555
H16 N2 1_555 1_555
H17 N4 1_555 1_555
O3 C20 1_555 1_555
N6 C20 1_555 1_555
C20 H18 1_555 1_555
C21 N6 1_555 1_555
H19 C21 1_555 1_555
H20 C21 1_555 1_555
H21 C21 1_555 1_555
C22 N6 1_555 1_555
H22 C22 1_555 1_555
H23 C22 1_555 1_555
H24 C22 1_555 1_555
O4 C23 1_555 1_555
N7 C23 1_555 1_555
C23 H25 1_555 1_555
C24 N7 1_555 1_555
H26 C24 1_555 1_555
H27 C24 1_555 1_555
H28 C24 1_555 1_555
C25 N7 1_555 1_555
H29 C25 1_555 1_555
H30 C25 1_555 1_555
H31 C25 1_555 1_555
Ni1A N5B 1_555 1_555
Ni1A_2 N5 1_555 1_555
Cl1B Ni1 1_555 1_555
O1B C1B 1_555 1_555
O2B C7B 1_555 1_555
N1B C2B 1_555 1_555
N2B C1B 1_555 1_555
N3B Ni1 1_555 1_555
N4B C7B 1_555 1_555
N5B C18B 1_555 1_555
N5A Ni1 1_555 1_555
N5C Ni1 1_555 1_555
C1B C2B 1_555 1_555
C2B C3B 1_555 1_555
C3B H1B 1_555 1_555
C4B C3B 1_555 1_555
H2B C4B 1_555 1_555
C5B C4B 1_555 1_555
H3B C5B 1_555 1_555
C6B N1B 1_555 1_555
C7B C6B 1_555 1_555
C8B N2B 1_555 1_555
H4B C8B 1_555 1_555
H5B C8B 1_555 1_555
C9B C8B 1_555 1_555
C10B C9B 1_555 1_555
H6B C10B 1_555 1_555
C11B C10B 1_555 1_555
H7B C11B 1_555 1_555
C12B N3B 1_555 1_555
H8B C12B 1_555 1_555
C13B N3B 1_555 1_555
H9B C13B 1_555 1_555
C14B N4B 1_555 1_555
H10B C14B 1_555 1_555
H11B C14B 1_555 1_555
C15B C14B 1_555 1_555
C16B C15B 1_555 1_555
H12B C16B 1_555 1_555
C17B C16B 1_555 1_555
H13B C17B 1_555 1_555
C18B C17B 1_555 1_555
H14B C18B 1_555 1_555
C19B N5B 1_555 1_555
H15B C19B 1_555 1_555
H16B N2B 1_555 1_555
H17B N4B 1_555 1_555
C5 C6 1_555 1_555
C9 C13 1_555 1_555
C11 C12 1_555 1_555
C15 C19 1_555 1_555
C5B C6B 1_555 1_555
C9B C13B 1_555 1_555
C11B C12B 1_555 1_555
C15B C19B 1_555 1_555

#END
