
#######################################################################
#
#                 Cambridge Crystallographic Data Centre
#                                CCDC 
#
#######################################################################
#
# If this CIF has been generated from an entry in the Cambridge 
# Structural Database, then it will include bibliographic, chemical, 
# crystal, experimental, refinement or atomic coordinate data resulting 
# from the CCDC's data processing and validation procedures.
#
#######################################################################

data_CECVIQ
_symmetry_cell_setting           monoclinic
_symmetry_space_group_name_H-M   'P 21/c'
_symmetry_Int_Tables_number      14
_space_group_name_Hall           '-P 2ybc'
loop_
_symmetry_equiv_pos_site_id
_symmetry_equiv_pos_as_xyz
1 x,y,z
2 -x,1/2+y,1/2-z
3 -x,-y,-z
4 x,1/2-y,1/2+z
_cell_length_a                   6.754(5)
_cell_length_b                   11.937(2)
_cell_length_c                   13.456(5)
_cell_angle_alpha                90
_cell_angle_beta                 100.381(5)
_cell_angle_gamma                90
_cell_volume                     1067.1
loop_
_atom_site_label
_atom_site_type_symbol
_atom_site_fract_x
_atom_site_fract_y
_atom_site_fract_z
Pr1 Pr -0.05196(3) 0.168866(19) 0.245069(16)
O1 O -0.3768(5) 0.0989(3) 0.2808(2)
O2 O -0.7123(5) 0.0928(3) 0.2419(2)
O3 O -0.8339(5) 0.1679(3) -0.2291(3)
O4 O -0.9259(5) 0.0141(3) -0.1547(2)
O5 O -0.0772(5) 0.2573(3) -0.0884(2)
O6 O 0.0024(5) 0.2428(3) 0.0795(2)
O7 O 0.0211(7) 0.0150(3) 0.3792(3)
O8 O -0.2677(5) 0.3479(3) 0.2178(3)
N1 N -0.3496(6) 0.1615(3) 0.0957(3)
C1 C -0.5420(7) 0.1023(4) 0.2193(3)
C2 C -0.5272(7) 0.1200(4) 0.1098(3)
C3 C -0.6821(7) 0.0952(4) 0.0299(3)
H1 H -0.8003 0.0615 0.0411
C4 C -0.6549(7) 0.1223(4) -0.0668(3)
C5 C -0.8193(6) 0.0993(4) -0.1571(3)
C6 C -0.4763(7) 0.1728(4) -0.0813(3)
H2 H -0.4590 0.1960 -0.1451
C7 C -0.3249(7) 0.1873(4) 0.0024(3)
C8 C -0.1175(6) 0.2330(4) -0.0040(3)
H3 H -0.244(9) 0.413(3) 0.244(4)
H4 H -0.375(7) 0.361(6) 0.177(5)
H5 H 0.010(16) -0.053(3) 0.362(8)
H6 H 0.123(11) 0.017(9) 0.425(7)
Pr1_2 Pr -1.05196(3) 0.168866(19) 0.245069(16)
Pr1C Pr -1.05196(3) 0.331134(19) -0.254931(16)
Pr1B Pr -0.94804(3) -0.168866(19) -0.245069(16)
Pr1C_2 Pr -0.05196(3) 0.331134(19) -0.254931(16)
O2_2 O 0.2877(5) 0.0928(3) 0.2419(2)
O3C O 0.1661(5) 0.3321(3) 0.2709(3)
O4B O -0.0741(5) -0.0141(3) 0.1547(2)
O5C O -0.0772(5) 0.2427(3) 0.4116(2)
O9 O -0.6433(12) 0.3815(10) 0.0831(5)
H7 H -0.754(11) 0.344(10) 0.071(11)
H8 H -0.66(2) 0.420(10) 0.133(9)
O10 O 0.354(2) -0.052(2) 0.5150(15)
H9 H 0.409(15) 0.007(5) 0.539(8)
H10 H 0.449(13) -0.092(10) 0.504(14)
loop_
_geom_bond_atom_site_label_1
_geom_bond_atom_site_label_2
_geom_bond_site_symmetry_1
_geom_bond_site_symmetry_2
Pr1 O1 1_555 1_555
O1 C1 1_555 1_555
O2 C1 1_555 1_555
O3 C5 1_555 1_555
O4 C5 1_555 1_555
O5 C8 1_555 1_555
O6 Pr1 1_555 1_555
O7 Pr1 1_555 1_555
O8 Pr1 1_555 1_555
N1 Pr1 1_555 1_555
C1 C2 1_555 1_555
C2 N1 1_555 1_555
C3 C2 1_555 1_555
H1 C3 1_555 1_555
C4 C3 1_555 1_555
C5 C4 1_555 1_555
C6 C4 1_555 1_555
H2 C6 1_555 1_555
C7 N1 1_555 1_555
C8 O6 1_555 1_555
O9 H7 1_555 1_555
O10 H9 1_555 1_555
H3 O8 1_555 1_555
H4 O8 1_555 1_555
H5 O7 1_555 1_555
H6 O7 1_555 1_555
H8 O9 1_555 1_555
H10 O10 1_555 1_555
Pr1_2 O2 1_555 1_555
Pr1C O3 1_555 1_555
Pr1B O4 1_555 1_555
Pr1C_2 O5 1_555 1_555
O2_2 Pr1 1_555 1_555
O3C Pr1 1_555 1_555
O4B Pr1 1_555 1_555
O5C Pr1 1_555 1_555
C6 C7 1_555 1_555
C7 C8 1_555 1_555

#END
