
#######################################################################
#
#                 Cambridge Crystallographic Data Centre
#                                CCDC 
#
#######################################################################
#
# If this CIF has been generated from an entry in the Cambridge 
# Structural Database, then it will include bibliographic, chemical, 
# crystal, experimental, refinement or atomic coordinate data resulting 
# from the CCDC's data processing and validation procedures.
#
#######################################################################

data_CECYUF
_symmetry_cell_setting           monoclinic
_symmetry_space_group_name_H-M   'P 21/c'
_symmetry_Int_Tables_number      14
_space_group_name_Hall           '-P 2ybc'
loop_
_symmetry_equiv_pos_site_id
_symmetry_equiv_pos_as_xyz
1 x,y,z
2 -x,1/2+y,1/2-z
3 -x,-y,-z
4 x,1/2-y,1/2+z
_cell_length_a                   8.468(9)
_cell_length_b                   23.28(3)
_cell_length_c                   13.933(15)
_cell_angle_alpha                90
_cell_angle_beta                 98.012(18)
_cell_angle_gamma                90
_cell_volume                     2719.87
loop_
_atom_site_label
_atom_site_type_symbol
_atom_site_fract_x
_atom_site_fract_y
_atom_site_fract_z
Hg1 Hg 0.74828(7) 0.61853(3) -0.20931(5)
I1 I 0.94006(15) 0.59030(6) -0.33893(10)
I2 I 0.44073(13) 0.59272(5) -0.21092(12)
N1 N 0.3691(15) 0.6041(5) 0.3269(11)
N2 N 0.7895(12) 0.7188(5) -0.1827(9)
N3 N -0.1257(14) 0.9174(4) 0.4480(9)
C1 C 0.4236(16) 0.6291(5) 0.2464(12)
C2 C 0.497(2) 0.6029(6) 0.1758(12)
H1 H 0.5144 0.5634 0.1760
C3 C 0.5425(17) 0.6383(7) 0.1043(13)
H2 H 0.5845 0.6214 0.0528
C4 C 0.5284(17) 0.6980(5) 0.1064(13)
C5 C 0.4481(15) 0.7231(5) 0.1777(12)
H3 H 0.4299 0.7626 0.1769
C6 C 0.3946(16) 0.6886(6) 0.2513(12)
C7 C 0.3178(15) 0.7012(5) 0.3365(10)
C8 C 0.2608(14) 0.7498(6) 0.3717(12)
H4 H 0.2643 0.7845 0.3391
C9 C 0.1952(15) 0.7464(5) 0.4599(11)
C10 C 0.1930(17) 0.6942(6) 0.5043(10)
H5 H 0.1532 0.6924 0.5632
C11 C 0.2458(17) 0.6444(6) 0.4674(11)
H6 H 0.2409 0.6096 0.4996
C12 C 0.3065(15) 0.6478(6) 0.3811(12)
C13 C 0.8600(18) 0.7468(7) -0.2504(11)
H7 H 0.8931 0.7266 -0.3017
C14 C 0.8825(19) 0.8046(7) -0.2433(13)
H8 H 0.9295 0.8236 -0.2908
C15 C 0.837(2) 0.8355(7) -0.1676(14)
H9 H 0.8548 0.8749 -0.1630
C16 C 0.7663(18) 0.8069(6) -0.0990(13)
H10 H 0.7353 0.8262 -0.0462
C17 C 0.7417(15) 0.7475(6) -0.1110(13)
C18 C 0.6712(16) 0.7144(6) -0.0362(12)
H11 H 0.6845 0.6748 -0.0382
C19 C 0.5919(16) 0.7335(6) 0.0333(12)
H12 H 0.5750 0.7729 0.0359
C20 C -0.2008(18) 0.9599(7) 0.4882(15)
H13 H -0.2885 0.9769 0.4514
C21 C -0.155(2) 0.9801(6) 0.5820(15)
H14 H -0.2069 1.0106 0.6071
C22 C -0.027(2) 0.9523(8) 0.6362(12)
H15 H 0.0073 0.9640 0.6995
C23 C 0.0483(19) 0.9078(7) 0.5972(13)
H16 H 0.1317 0.8888 0.6347
C24 C 0.0006(17) 0.8906(6) 0.5010(13)
C25 C 0.0735(15) 0.8452(6) 0.4517(14)
H17 H 0.0826 0.8495 0.3863
C26 C 0.1286(15) 0.7968(6) 0.4978(12)
H18 H 0.1226 0.7960 0.5639
C27 C 0.4010(19) 0.5453(6) 0.3553(13)
H19 H 0.3819 0.5209 0.2983
H20 H 0.3278 0.5336 0.3993
C28 C 0.569(2) 0.5364(8) 0.4038(16)
H21 H 0.5835 0.4969 0.4232
H22 H 0.5892 0.5607 0.4598
H23 H 0.6422 0.5458 0.3593
Hg1C Hg -0.25172(7) 0.88147(3) 0.29069(5)
N3C N 0.8743(14) 0.5826(4) -0.0520(9)
loop_
_geom_bond_atom_site_label_1
_geom_bond_atom_site_label_2
_geom_bond_site_symmetry_1
_geom_bond_site_symmetry_2
Hg1 I1 1_555 1_555
I2 Hg1 1_555 1_555
N1 C1 1_555 1_555
N2 Hg1 1_555 1_555
N3 C20 1_555 1_555
C1 C2 1_555 1_555
C2 H1 1_555 1_555
C3 C2 1_555 1_555
H2 C3 1_555 1_555
C4 C3 1_555 1_555
C5 C4 1_555 1_555
H3 C5 1_555 1_555
C6 C1 1_555 1_555
C7 C6 1_555 1_555
C8 C7 1_555 1_555
H4 C8 1_555 1_555
C9 C8 1_555 1_555
C10 C9 1_555 1_555
H5 C10 1_555 1_555
C11 C10 1_555 1_555
H6 C11 1_555 1_555
C12 N1 1_555 1_555
C13 N2 1_555 1_555
H7 C13 1_555 1_555
C14 C13 1_555 1_555
H8 C14 1_555 1_555
C15 C14 1_555 1_555
H9 C15 1_555 1_555
C16 C15 1_555 1_555
H10 C16 1_555 1_555
C17 N2 1_555 1_555
C18 C17 1_555 1_555
H11 C18 1_555 1_555
C19 C4 1_555 1_555
H12 C19 1_555 1_555
C20 H13 1_555 1_555
C21 C20 1_555 1_555
H14 C21 1_555 1_555
C22 C21 1_555 1_555
H15 C22 1_555 1_555
C23 C22 1_555 1_555
H16 C23 1_555 1_555
C24 N3 1_555 1_555
C25 C24 1_555 1_555
H17 C25 1_555 1_555
C26 C9 1_555 1_555
H18 C26 1_555 1_555
C27 N1 1_555 1_555
H19 C27 1_555 1_555
H20 C27 1_555 1_555
C28 C27 1_555 1_555
H21 C28 1_555 1_555
H22 C28 1_555 1_555
H23 C28 1_555 1_555
Hg1C N3 1_555 1_555
N3C Hg1 1_555 1_555
C5 C6 1_555 1_555
C7 C12 1_555 1_555
C11 C12 1_555 1_555
C16 C17 1_555 1_555
C18 C19 1_555 1_555
C23 C24 1_555 1_555
C25 C26 1_555 1_555

#END
