
#######################################################################
#
#                 Cambridge Crystallographic Data Centre
#                                CCDC 
#
#######################################################################
#
# If this CIF has been generated from an entry in the Cambridge 
# Structural Database, then it will include bibliographic, chemical, 
# crystal, experimental, refinement or atomic coordinate data resulting 
# from the CCDC's data processing and validation procedures.
#
#######################################################################

data_CEDCEU
_symmetry_cell_setting           monoclinic
_symmetry_space_group_name_H-M   'P 21/c'
_symmetry_Int_Tables_number      14
_space_group_name_Hall           '-P 2ybc'
loop_
_symmetry_equiv_pos_site_id
_symmetry_equiv_pos_as_xyz
1 x,y,z
2 -x,1/2+y,1/2-z
3 -x,-y,-z
4 x,1/2-y,1/2+z
_cell_length_a                   9.2153(15)
_cell_length_b                   16.654(2)
_cell_length_c                   20.342(3)
_cell_angle_alpha                90
_cell_angle_beta                 93.664(15)
_cell_angle_gamma                90
_cell_volume                     3115.54
loop_
_atom_site_label
_atom_site_type_symbol
_atom_site_fract_x
_atom_site_fract_y
_atom_site_fract_z
Mn1 Mn 0.46615(6) 0.83860(3) 0.22149(3)
Fe1 Fe 0.40586(6) 0.73279(3) -0.02341(2)
N1 N 0.2888(4) 0.77840(19) 0.24106(15)
N2 N 0.5269(4) 0.83092(17) -0.03984(14)
N3 N 0.2513(4) 0.66070(18) -0.01289(15)
O1 O 0.3698(3) 0.93719(15) 0.22180(13)
N4 N 0.5524(4) 0.72942(18) 0.22154(15)
N5 N 0.5166(4) 0.64518(18) 0.02544(14)
O2 O 0.6419(3) 0.88459(16) 0.19874(14)
N6 N 0.2591(4) 0.79549(19) -0.06772(15)
C1 C 0.2378(4) 0.9530(2) 0.23881(17)
C2 C 0.1181(4) 0.6827(3) -0.04499(19)
C3 C 0.1230(5) 0.7592(3) -0.07563(19)
N7 N 0.3946(4) 0.8137(2) 0.11297(15)
C4 C 0.7703(5) 0.7654(2) 0.16832(19)
C5 C 0.3908(4) 0.7832(2) 0.06274(18)
C6 C 0.7487(4) 0.8503(2) 0.16930(18)
C7 C 0.4684(4) 0.8113(2) 0.39199(17)
C8 C 0.2693(5) 0.6003(3) 0.0315(2)
C9 C 0.6597(5) 0.6335(2) 0.03519(19)
H1 H 0.7225 0.6710 0.0185
C10 C 0.4266(5) 0.5899(2) 0.05009(18)
O3 O 0.2187(4) 0.9093(2) -0.13132(19)
C11 C 0.6618(5) 0.8486(2) -0.0186(2)
H2 H 0.7147 0.8111 0.0069
C12 C 0.4490(5) 0.8871(2) -0.07523(18)
C13 C 0.6720(5) 0.7108(2) 0.19605(19)
H3 H 0.6967 0.6567 0.1957
C14 C 0.9888(5) 0.7838(3) 0.1092(2)
H4 H 1.0685 0.7624 0.0894
C15 C 0.2955(5) 0.8663(2) -0.0947(2)
C16 C 0.6489(5) 0.9775(3) -0.0707(2)
H5 H 0.6909 1.0262 -0.0814
C17 C 0.8930(5) 0.7347(3) 0.1384(2)
H6 H 0.9090 0.6796 0.1386
O4 O 0.1754(4) 0.5573(2) 0.05352(18)
C18 C 0.1713(5) 0.8096(3) 0.25963(18)
H7 H 0.0994 0.7748 0.2724
C19 C -0.0020(5) 0.7895(3) -0.1090(2)
H8 H -0.0020 0.8406 -0.1274
C20 C 0.3033(5) 0.6902(3) 0.2325(2)
H9 H 0.2758 0.6754 0.1873
H10 H 0.2399 0.6623 0.2612
C21 C 0.5095(5) 0.9602(3) -0.0919(2)
H11 H 0.4550 0.9971 -0.1174
C22 C 0.1415(4) 0.8946(3) 0.26230(18)
C23 C 0.9652(5) 0.8662(3) 0.1097(2)
H12 H 1.0300 0.8998 0.0898
C24 C 0.7274(5) 0.9211(3) -0.0328(2)
H13 H 0.8225 0.9317 -0.0172
C25 C -0.1282(5) 0.6672(4) -0.0873(2)
H14 H -0.2119 0.6362 -0.0930
C26 C 0.1863(5) 1.0316(3) 0.2325(2)
H15 H 0.2442 1.0703 0.2141
C27 C 0.7181(6) 0.5679(3) 0.0692(2)
H16 H 0.8182 0.5604 0.0736
C28 C 0.0066(5) 0.9195(3) 0.2835(2)
H17 H -0.0548 0.8813 0.3002
C29 C 0.8489(5) 0.8992(3) 0.1385(2)
H18 H 0.8360 0.9546 0.1378
C30 C 0.4782(6) 0.5248(3) 0.0870(2)
H19 H 0.4143 0.4891 0.1051
C31 C -0.0083(5) 0.6370(3) -0.0517(2)
H20 H -0.0117 0.5865 -0.0323
C32 C 0.4581(5) 0.6676(2) 0.2495(2)
H21 H 0.4764 0.6650 0.2970
H22 H 0.4785 0.6153 0.2313
C33 C -0.1256(5) 0.7429(4) -0.1144(3)
H23 H -0.2090 0.7629 -0.1368
C34 C 0.6263(7) 0.5143(3) 0.0962(2)
H24 H 0.6637 0.4710 0.1207
C35 C 0.0524(5) 1.0535(3) 0.2528(2)
H25 H 0.0217 1.1065 0.2480
C36 C -0.0377(6) 0.9978(4) 0.2805(3)
H26 H -0.1257 1.0133 0.2966
N8 N 0.5001(4) 0.83382(19) 0.34132(15)
Fe1C Fe 0.40586(6) 0.76721(3) 0.47659(2)
C7C C 0.4684(4) 0.6887(2) -0.10801(17)
loop_
_geom_bond_atom_site_label_1
_geom_bond_atom_site_label_2
_geom_bond_site_symmetry_1
_geom_bond_site_symmetry_2
Mn1 N1 1_555 1_555
Fe1 N2 1_555 1_555
N1 C18 1_555 1_555
N2 C11 1_555 1_555
N3 Fe1 1_555 1_555
O1 Mn1 1_555 1_555
N4 Mn1 1_555 1_555
N5 Fe1 1_555 1_555
O2 Mn1 1_555 1_555
N6 Fe1 1_555 1_555
C1 O1 1_555 1_555
C2 N3 1_555 1_555
C3 N6 1_555 1_555
N7 Mn1 1_555 1_555
C4 C6 1_555 1_555
C5 Fe1 1_555 1_555
C6 O2 1_555 1_555
C7 N8 1_555 1_555
C8 N3 1_555 1_555
C9 N5 1_555 1_555
H1 C9 1_555 1_555
C10 N5 1_555 1_555
O3 C15 1_555 1_555
C11 H2 1_555 1_555
C12 N2 1_555 1_555
C13 N4 1_555 1_555
H3 C13 1_555 1_555
C14 H4 1_555 1_555
C15 N6 1_555 1_555
C16 H5 1_555 1_555
C17 C4 1_555 1_555
H6 C17 1_555 1_555
O4 C8 1_555 1_555
C18 H7 1_555 1_555
C19 C3 1_555 1_555
H8 C19 1_555 1_555
C20 N1 1_555 1_555
H9 C20 1_555 1_555
H10 C20 1_555 1_555
C21 C12 1_555 1_555
H11 C21 1_555 1_555
C22 C1 1_555 1_555
C23 C14 1_555 1_555
H12 C23 1_555 1_555
C24 C11 1_555 1_555
H13 C24 1_555 1_555
C25 H14 1_555 1_555
C26 C1 1_555 1_555
H15 C26 1_555 1_555
C27 C9 1_555 1_555
H16 C27 1_555 1_555
C28 C22 1_555 1_555
H17 C28 1_555 1_555
C29 C6 1_555 1_555
H18 C29 1_555 1_555
C30 C10 1_555 1_555
H19 C30 1_555 1_555
C31 C2 1_555 1_555
H20 C31 1_555 1_555
C32 N4 1_555 1_555
H21 C32 1_555 1_555
H22 C32 1_555 1_555
C33 C19 1_555 1_555
H23 C33 1_555 1_555
C34 C27 1_555 1_555
H24 C34 1_555 1_555
C35 C26 1_555 1_555
H25 C35 1_555 1_555
C36 C28 1_555 1_555
H26 C36 1_555 1_555
N8 Mn1 1_555 1_555
Fe1C C7 1_555 1_555
C7C Fe1 1_555 1_555
C2 C3 1_555 1_555
N7 C5 1_555 1_555
C4 C13 1_555 1_555
C8 C10 1_555 1_555
C12 C15 1_555 1_555
C14 C17 1_555 1_555
C16 C21 1_555 1_555
C16 C24 1_555 1_555
C18 C22 1_555 1_555
C20 C32 1_555 1_555
C23 C29 1_555 1_555
C25 C31 1_555 1_555
C25 C33 1_555 1_555
C30 C34 1_555 1_555
C35 C36 1_555 1_555

#END
