
#######################################################################
#
#                 Cambridge Crystallographic Data Centre
#                                CCDC 
#
#######################################################################
#
# If this CIF has been generated from an entry in the Cambridge 
# Structural Database, then it will include bibliographic, chemical, 
# crystal, experimental, refinement or atomic coordinate data resulting 
# from the CCDC's data processing and validation procedures.
#
#######################################################################

data_CEDHAV
_symmetry_cell_setting           triclinic
_symmetry_space_group_name_H-M   'P -1'
_symmetry_Int_Tables_number      2
_space_group_name_Hall           '-P 1'
loop_
_symmetry_equiv_pos_site_id
_symmetry_equiv_pos_as_xyz
1 x,y,z
2 -x,-y,-z
_cell_length_a                   8.2349(2)
_cell_length_b                   8.9772(2)
_cell_length_c                   10.5483(3)
_cell_angle_alpha                78.4337(12)
_cell_angle_beta                 73.9809(14)
_cell_angle_gamma                64.4630(11)
_cell_volume                     673.299
loop_
_atom_site_label
_atom_site_type_symbol
_atom_site_fract_x
_atom_site_fract_y
_atom_site_fract_z
La1 La 0.00171(2) -0.198892(19) 0.181733(15)
Cl1 Cl -0.10529(11) -0.08047(10) -0.07469(8)
O1 O -0.1196(3) -0.2936(2) 0.4232(2)
O2 O 0.2358(3) -0.4458(3) 0.3052(2)
O3 O 0.1352(4) -0.1382(3) 0.3486(2)
O4 O 0.3079(3) -0.3265(3) 0.0269(2)
O5 O 0.0350(3) -0.4755(3) 0.1290(2)
O6 O -0.3154(3) -0.2090(3) 0.2023(2)
O7 O -0.2538(3) 0.0596(3) 0.2772(3)
C1 C 0.0054(4) -0.4173(3) 0.5006(3)
H1 H -0.0342 -0.3878 0.5920
C2 C 0.1955(4) -0.4188(4) 0.4430(3)
H2 H 0.2848 -0.5111 0.4879
C3 C 0.2095(5) -0.2580(4) 0.4516(3)
H3 H 0.1416 -0.2171 0.5373
H4 H 0.3374 -0.2772 0.4422
H5 H -0.194(4) -0.220(3) 0.467(3)
H6 H 0.345(3) -0.477(5) 0.275(3)
H7 H 0.171(5) -0.063(3) 0.338(4)
H8 H 0.408(4) -0.294(5) 0.007(4)
H9 H 0.312(6) -0.377(5) -0.041(3)
H10 H -0.049(4) -0.520(5) 0.133(4)
H11 H 0.153(3) -0.549(4) 0.095(4)
H12 H -0.414(4) -0.121(3) 0.242(4)
H13 H -0.334(5) -0.306(3) 0.234(4)
H14 H -0.375(3) 0.080(5) 0.323(4)
H15 H -0.236(5) 0.158(3) 0.263(4)
La1A La -0.00171(2) 0.198892(19) -0.181733(15)
La1A_2 La -0.00171(2) -0.801108(19) 0.818267(15)
Cl1A Cl 0.10529(11) 0.08047(10) 0.07469(8)
O1A O 0.1196(3) -0.7064(2) 0.5768(2)
O1A_2 O 0.1196(3) 0.2936(2) -0.4232(2)
O2A O -0.2358(3) -0.5542(3) 0.6948(2)
O2A_2 O -0.2358(3) 0.4458(3) -0.3052(2)
O3A O -0.1352(4) -0.8618(3) 0.6514(2)
O3A_2 O -0.1352(4) 0.1382(3) -0.3486(2)
O4A O -0.3079(3) 0.3265(3) -0.0269(2)
O5A O -0.0350(3) 0.4755(3) -0.1290(2)
O6A O 0.3154(3) 0.2090(3) -0.2023(2)
O7A O 0.2538(3) -0.0596(3) -0.2772(3)
C1A C -0.0054(4) -0.5827(3) 0.4994(3)
H1A H 0.0342 -0.6122 0.4080
C2A C -0.1955(4) -0.5812(4) 0.5570(3)
H2A H -0.2848 -0.4889 0.5121
C3A C -0.2095(5) -0.7420(4) 0.5484(3)
H3A H -0.1416 -0.7829 0.4627
H4A H -0.3374 -0.7228 0.5578
H5A H 0.194(4) -0.780(3) 0.533(3)
H5A_2 H 0.194(4) 0.220(3) -0.467(3)
H6A H -0.345(3) -0.523(5) 0.725(3)
H6A_2 H -0.345(3) 0.477(5) -0.275(3)
H7A H -0.171(5) -0.937(3) 0.662(4)
H7A_2 H -0.171(5) 0.063(3) -0.338(4)
H8A H -0.408(4) 0.294(5) -0.007(4)
H9A H -0.312(6) 0.377(5) 0.041(3)
H10A H 0.049(4) 0.520(5) -0.133(4)
H11A H -0.153(3) 0.549(4) -0.095(4)
H12A H 0.414(4) 0.121(3) -0.242(4)
H13A H 0.334(5) 0.306(3) -0.234(4)
H14A H 0.375(3) -0.080(5) -0.323(4)
H15A H 0.236(5) -0.158(3) -0.263(4)
Cl2 Cl 0.33842(11) -0.44851(9) -0.24350(8)
Cl3 Cl -0.65205(12) 0.07216(11) 0.35385(9)
O8 O 0.6222(4) -0.2592(3) -0.0620(3)
H16 H 0.646(7) -0.204(5) -0.006(4)
H17 H 0.623(7) -0.190(5) -0.143(3)
loop_
_geom_bond_atom_site_label_1
_geom_bond_atom_site_label_2
_geom_bond_site_symmetry_1
_geom_bond_site_symmetry_2
La1 Cl1 1_555 1_555
Cl1 La1A 1_555 1_555
O1 La1 1_555 1_555
O2 La1 1_555 1_555
O3 La1 1_555 1_555
O4 La1 1_555 1_555
O5 La1 1_555 1_555
O6 La1 1_555 1_555
O7 La1 1_555 1_555
O8 H16 1_555 1_555
C1 O1 1_555 1_555
H1 C1 1_555 1_555
C2 O2 1_555 1_555
H2 C2 1_555 1_555
C3 O3 1_555 1_555
H3 C3 1_555 1_555
H4 C3 1_555 1_555
H5 O1 1_555 1_555
H6 O2 1_555 1_555
H7 O3 1_555 1_555
H8 O4 1_555 1_555
H9 O4 1_555 1_555
H10 O5 1_555 1_555
H11 O5 1_555 1_555
H12 O6 1_555 1_555
H13 O6 1_555 1_555
H14 O7 1_555 1_555
H15 O7 1_555 1_555
H17 O8 1_555 1_555
La1A Cl1A 1_555 1_555
La1A_2 O1A 1_555 1_555
Cl1A La1 1_555 1_555
O1A C1A 1_555 1_555
O1A_2 La1A 1_555 1_555
O2A La1A_2 1_555 1_555
O2A_2 La1A 1_555 1_555
O3A La1A_2 1_555 1_555
O3A_2 La1A 1_555 1_555
O4A La1A 1_555 1_555
O5A La1A 1_555 1_555
O6A La1A 1_555 1_555
O7A La1A 1_555 1_555
C1A C1 1_555 1_555
H1A C1A 1_555 1_555
C2A O2A 1_555 1_555
H2A C2A 1_555 1_555
C3A O3A 1_555 1_555
H3A C3A 1_555 1_555
H4A C3A 1_555 1_555
H5A O1A 1_555 1_555
H5A_2 O1A_2 1_555 1_555
H6A O2A 1_555 1_555
H6A_2 O2A_2 1_555 1_555
H7A O3A 1_555 1_555
H7A_2 O3A_2 1_555 1_555
H8A O4A 1_555 1_555
H9A O4A 1_555 1_555
H10A O5A 1_555 1_555
H11A O5A 1_555 1_555
H12A O6A 1_555 1_555
H13A O6A 1_555 1_555
H14A O7A 1_555 1_555
H15A O7A 1_555 1_555
C1 C2 1_555 1_555
C2 C3 1_555 1_555
C1A C2A 1_555 1_555
C2A C3A 1_555 1_555

#END
