
#######################################################################
#
#                 Cambridge Crystallographic Data Centre
#                                CCDC 
#
#######################################################################
#
# If this CIF has been generated from an entry in the Cambridge 
# Structural Database, then it will include bibliographic, chemical, 
# crystal, experimental, refinement or atomic coordinate data resulting 
# from the CCDC's data processing and validation procedures.
#
#######################################################################

data_CEDLED
_symmetry_cell_setting           orthorhombic
_symmetry_space_group_name_H-M   'P c a n'
_symmetry_Int_Tables_number      60
_space_group_name_Hall           '-P 2n 2c'
loop_
_symmetry_equiv_pos_site_id
_symmetry_equiv_pos_as_xyz
1 x,y,z
2 1/2-x,1/2-y,1/2+z
3 x,-y,1/2-z
4 1/2-x,1/2+y,-z
5 -x,-y,-z
6 1/2+x,1/2+y,1/2-z
7 -x,y,1/2+z
8 1/2+x,1/2-y,z
_cell_length_a                   13.9126(10)
_cell_length_b                   15.0856(13)
_cell_length_c                   21.6595(18)
_cell_angle_alpha                90
_cell_angle_beta                 90
_cell_angle_gamma                90
_cell_volume                     4545.89
loop_
_atom_site_label
_atom_site_type_symbol
_atom_site_fract_x
_atom_site_fract_y
_atom_site_fract_z
Cu1 Cu 0.13646(2) 0.355094(19) 0.108271(14)
O1 O 0.00874(11) 0.40114(11) 0.09707(9)
O2 O -0.13201(13) 0.36478(11) 0.05997(8)
O3 O -0.22866(16) 0.16257(14) 0.00575(9)
O4 O -0.23577(11) 0.19123(11) 0.10880(7)
N1 N 0.07348(9) 0.24172(7) 0.08179(6)
C1 C 0.11586(7) 0.15830(9) 0.08056(7)
H1 H 0.1817 0.1525 0.0870
C2 C 0.05989(9) 0.08356(7) 0.06977(7)
H2 H 0.0882 0.0277 0.0689
C3 C -0.03845(9) 0.09224(7) 0.06021(7)
H3 H -0.0759 0.0422 0.0530
C4 C -0.08083(7) 0.17567(9) 0.06144(7)
C5 C -0.02486(9) 0.25040(7) 0.07223(7)
C6 C -0.05745(19) 0.34361(15) 0.07337(11)
C7 C -0.18515(18) 0.18827(16) 0.05696(11)
N2 N 0.19474(11) 0.47785(9) 0.11418(7)
C8 C 0.18437(11) 0.54266(11) 0.06905(6)
H4 H 0.1398 0.5351 0.0375
C9 C 0.24056(12) 0.61879(10) 0.07113(7)
H5 H 0.2336 0.6621 0.0409
C10 C 0.30713(11) 0.63010(10) 0.11833(8)
C11 C 0.31750(11) 0.56529(12) 0.16346(7)
H6 H 0.3620 0.5729 0.1950
C12 C 0.26131(12) 0.48917(10) 0.16138(6)
H7 H 0.2683 0.4458 0.1916
C13 C 0.37758(19) 0.7099(2) 0.10945(13)
H8 H 0.3776 0.7462 0.1464
H9 H 0.3558 0.7463 0.0753
C14 C 0.4826(2) 0.6762(2) 0.09615(13)
H10 H 0.4984 0.6292 0.1249
H11 H 0.4854 0.6519 0.0547
C15 C 0.5524(2) 0.7460(2) 0.10176(13)
H12 H 0.5278 0.7968 0.0793
H13 H 0.6101 0.7266 0.0805
C16 C 0.58313(14) 0.77904(12) 0.16692(6)
C17 C 0.54693(13) 0.85821(11) 0.19009(7)
H14 H 0.5117 0.8958 0.1646
C18 C 0.56332(12) 0.88126(9) 0.25133(7)
H15 H 0.5391 0.9342 0.2668
N3 N 0.61591(12) 0.82513(11) 0.28940(6)
C19 C 0.65211(12) 0.74596(11) 0.26623(7)
H16 H 0.6873 0.7084 0.2917
C20 C 0.63572(13) 0.72291(10) 0.20499(7)
H17 H 0.6599 0.6699 0.1895
Cu1G Cu -0.36354(2) 0.144906(19) 0.108271(14)
Cu1E Cu 0.63646(2) 0.855094(19) 0.391729(14)
O4G O 0.26423(11) 0.30877(11) 0.10880(7)
N3E N 0.11591(12) 0.32513(11) 0.21060(6)
C21 C 0.1652(5) 0.4395(3) -0.0853(3)
O5 O 0.0976(3) 0.43056(19) -0.05290(17)
O6 O 0.2405(3) 0.4554(2) -0.11001(16)
C22 C 0.4042(6) 0.2640(6) 0.2126(3)
O7 O 0.4245(3) 0.3419(3) 0.2092(2)
O8 O 0.3632(3) 0.1947(3) 0.2109(2)
loop_
_geom_bond_atom_site_label_1
_geom_bond_atom_site_label_2
_geom_bond_site_symmetry_1
_geom_bond_site_symmetry_2
Cu1 O1 1_555 1_555
O1 C6 1_555 1_555
O2 C6 1_555 1_555
O3 C7 1_555 1_555
O4 C7 1_555 1_555
N1 Cu1 1_555 1_555
C1 N1 1_555 1_555
H1 C1 1_555 1_555
C2 C1 1_555 1_555
H2 C2 1_555 1_555
C3 C2 1_555 1_555
H3 C3 1_555 1_555
C4 C3 1_555 1_555
C5 N1 1_555 1_555
C6 C5 1_555 1_555
C7 C4 1_555 1_555
N2 Cu1 1_555 1_555
C8 N2 1_555 1_555
H4 C8 1_555 1_555
C9 C8 1_555 1_555
H5 C9 1_555 1_555
C10 C9 1_555 1_555
C11 C10 1_555 1_555
H6 C11 1_555 1_555
C12 N2 1_555 1_555
H7 C12 1_555 1_555
C13 C10 1_555 1_555
H8 C13 1_555 1_555
H9 C13 1_555 1_555
C14 C13 1_555 1_555
H10 C14 1_555 1_555
H11 C14 1_555 1_555
C15 C14 1_555 1_555
H12 C15 1_555 1_555
H13 C15 1_555 1_555
C16 C15 1_555 1_555
C17 C16 1_555 1_555
H14 C17 1_555 1_555
C18 C17 1_555 1_555
H15 C18 1_555 1_555
N3 C18 1_555 1_555
C19 N3 1_555 1_555
H16 C19 1_555 1_555
C20 C16 1_555 1_555
H17 C20 1_555 1_555
C21 O5 1_555 1_555
O6 C21 1_555 1_555
C22 O7 1_555 1_555
O8 C22 1_555 1_555
Cu1G O4 1_555 1_555
Cu1E N3 1_555 1_555
O4G Cu1 1_555 1_555
N3E Cu1 1_555 1_555
C4 C5 1_555 1_555
C11 C12 1_555 1_555
C19 C20 1_555 1_555

#END
