
#######################################################################
#
#                 Cambridge Crystallographic Data Centre
#                                CCDC 
#
#######################################################################
#
# If this CIF has been generated from an entry in the Cambridge 
# Structural Database, then it will include bibliographic, chemical, 
# crystal, experimental, refinement or atomic coordinate data resulting 
# from the CCDC's data processing and validation procedures.
#
#######################################################################

data_CEDWEO
_symmetry_cell_setting           monoclinic
_symmetry_space_group_name_H-M   'C 2/c'
_symmetry_Int_Tables_number      15
_space_group_name_Hall           '-C 2yn'
loop_
_symmetry_equiv_pos_site_id
_symmetry_equiv_pos_as_xyz
1 x,y,z
2 1/2+x,1/2+y,z
3 -x,y,1/2-z
4 1/2-x,1/2+y,1/2-z
5 -x,-y,-z
6 1/2-x,1/2-y,-z
7 x,-y,1/2+z
8 1/2+x,1/2-y,1/2+z
_cell_length_a                   13.61(3)
_cell_length_b                   10.895(19)
_cell_length_c                   13.23(3)
_cell_angle_alpha                90.00
_cell_angle_beta                 117.39(4)
_cell_angle_gamma                90.00
_cell_volume                     1741.84
loop_
_atom_site_label
_atom_site_type_symbol
_atom_site_fract_x
_atom_site_fract_y
_atom_site_fract_z
Cu1 Cu 0.5000 -0.66891(4) 0.2500
O1 O 0.40838(15) -0.54450(18) 0.26939(17)
O2 O 0.3006(2) -0.5895(2) 0.08803(19)
N1 N 0.08445(18) -0.2967(2) 0.21366(19)
C1 C 0.3194(2) -0.5346(3) 0.1762(2)
C2 C 0.2345(2) -0.4505(2) 0.1845(2)
C3 C 0.2325(2) -0.4419(3) 0.2865(2)
H1 H 0.2820 -0.4873 0.3486
C4 C 0.1555(2) -0.3644(3) 0.2976(2)
H2 H 0.1548 -0.3609 0.3675
C5 C 0.0839(2) -0.3014(3) 0.1097(2)
C6 C 0.0107(3) -0.2252(4) 0.0211(3)
H3 H -0.0401 -0.1770 0.0319
C7 C 0.0138(4) -0.2216(5) -0.0809(3)
H4 H -0.0338 -0.1699 -0.1386
C8 C 0.0891(4) -0.2960(5) -0.0981(3)
H5 H 0.0915 -0.2921 -0.1671
C9 C 0.1583(3) -0.3736(4) -0.0158(3)
H6 H 0.2058 -0.4239 -0.0299
C10 C 0.1587(2) -0.3785(3) 0.0915(2)
Cu1A Cu 0.0000 -0.16891(4) 0.2500
Cu1A_2 Cu 1.0000 -0.16891(4) 0.2500
O1B O 0.59162(15) -0.54450(18) 0.23061(17)
O2B O 0.6994(2) -0.5895(2) 0.41197(19)
N1A N 0.58445(18) -0.7967(2) 0.21366(19)
N1C N 0.41555(18) -0.7967(2) 0.28634(19)
N1B N 0.91555(18) -0.2967(2) 0.28634(19)
C1B C 0.6806(2) -0.5346(3) 0.3238(2)
C2B C 0.7655(2) -0.4505(2) 0.3155(2)
C3B C 0.7675(2) -0.4419(3) 0.2135(2)
H1B H 0.7180 -0.4873 0.1514
C4B C 0.8445(2) -0.3644(3) 0.2024(2)
H2B H 0.8452 -0.3609 0.1325
C5B C 0.9161(2) -0.3014(3) 0.3903(2)
C6B C 0.9893(3) -0.2252(4) 0.4789(3)
H3B H 1.0401 -0.1770 0.4681
C7B C 0.9862(4) -0.2216(5) 0.5809(3)
H4B H 1.0338 -0.1699 0.6386
C8B C 0.9109(4) -0.2960(5) 0.5981(3)
H5B H 0.9085 -0.2921 0.6671
C9B C 0.8417(3) -0.3736(4) 0.5158(3)
H6B H 0.7942 -0.4239 0.5299
C10B C 0.8413(2) -0.3785(3) 0.4085(2)
loop_
_geom_bond_atom_site_label_1
_geom_bond_atom_site_label_2
_geom_bond_site_symmetry_1
_geom_bond_site_symmetry_2
Cu1 O1 1_555 1_555
O1 C1 1_555 1_555
O2 C1 1_555 1_555
N1 C4 1_555 1_555
C1 C2 1_555 1_555
C2 C3 1_555 1_555
C3 H1 1_555 1_555
C4 C3 1_555 1_555
H2 C4 1_555 1_555
C5 N1 1_555 1_555
C6 C5 1_555 1_555
H3 C6 1_555 1_555
C7 C6 1_555 1_555
H4 C7 1_555 1_555
C8 C7 1_555 1_555
H5 C8 1_555 1_555
C9 C8 1_555 1_555
H6 C9 1_555 1_555
C10 C2 1_555 1_555
Cu1A N1 1_555 1_555
Cu1A_2 N1B 1_555 1_555
O1B Cu1 1_555 1_555
O2B C1B 1_555 1_555
N1A Cu1 1_555 1_555
N1C Cu1 1_555 1_555
N1B C4B 1_555 1_555
C1B O1B 1_555 1_555
C2B C1B 1_555 1_555
C3B C2B 1_555 1_555
H1B C3B 1_555 1_555
C4B C3B 1_555 1_555
H2B C4B 1_555 1_555
C5B N1B 1_555 1_555
C6B C5B 1_555 1_555
H3B C6B 1_555 1_555
C7B C6B 1_555 1_555
H4B C7B 1_555 1_555
C8B C7B 1_555 1_555
H5B C8B 1_555 1_555
C9B C8B 1_555 1_555
H6B C9B 1_555 1_555
C10B C2B 1_555 1_555
C5 C10 1_555 1_555
C9 C10 1_555 1_555
C5B C10B 1_555 1_555
C9B C10B 1_555 1_555

#END
