
#######################################################################
#
#                 Cambridge Crystallographic Data Centre
#                                CCDC 
#
#######################################################################
#
# If this CIF has been generated from an entry in the Cambridge 
# Structural Database, then it will include bibliographic, chemical, 
# crystal, experimental, refinement or atomic coordinate data resulting 
# from the CCDC's data processing and validation procedures.
#
#######################################################################

data_CEDXAL
_symmetry_cell_setting           monoclinic
_symmetry_space_group_name_H-M   'P 21/n'
_symmetry_Int_Tables_number      14
_space_group_name_Hall           '-P 2yn'
loop_
_symmetry_equiv_pos_site_id
_symmetry_equiv_pos_as_xyz
1 x,y,z
2 1/2-x,1/2+y,1/2-z
3 -x,-y,-z
4 1/2+x,1/2-y,1/2+z
_cell_length_a                   12.439
_cell_length_b                   8.941
_cell_length_c                   9.321
_cell_angle_alpha                90
_cell_angle_beta                 90.88
_cell_angle_gamma                90
_cell_volume                     1036.53
loop_
_atom_site_label
_atom_site_type_symbol
_atom_site_fract_x
_atom_site_fract_y
_atom_site_fract_z
Fe1 Fe -0.5000 -0.5000 0.5000
S1 S -0.87560(2) -0.42056(4) 0.44562(4)
C1 C -0.74720(7) -0.44332(9) 0.42790(9)
N1 N -0.65536(7) -0.4600(1) 0.4139(1)
N2 N -0.45308(6) -0.26620(7) 0.46876(8)
N3 N -0.46547(8) -0.18795(8) 0.34203(9)
C2 C -0.41186(9) -0.06371(8) 0.3593(1)
N4 N -0.36519(6) -0.05646(7) 0.49105(8)
C3 C -0.39440(8) -0.18530(9) 0.55602(9)
C4 C -0.29363(8) 0.05970(9) 0.5478(1)
N5 N -0.06843(6) -0.05814(8) 0.21458(7)
N6 N -0.0975(1) -0.20193(9) 0.2506(1)
C5 C -0.1374(1) -0.1940(1) 0.3796(1)
N7 N -0.13684(6) -0.05158(8) 0.42866(7)
C6 C -0.40687(8) -0.4712(1) 0.1781(1)
C7 C -0.17919(7) 0.0036(1) 0.56394(8)
H1 H -0.3952 0.0150 0.2976
H2 H -0.3554 -0.2234 0.6625
H3 H -0.3163 -0.7783 0.0878
H4 H -0.4126 -0.3468 0.1686
H5 H -0.3039 0.1360 0.4679
H6 H -0.3272 0.0919 0.6345
H7 H -0.1689 -0.0721 0.6410
H8 H -0.1298 0.0936 0.5899
Fe1C Fe 0.0000 0.0000 0.0000
Fe1C_2 Fe 0.0000 -1.0000 0.0000
S1B S -0.12440(2) -0.57944(4) 0.55438(4)
C1B C -0.25280(7) -0.55668(9) 0.57210(9)
N1B N -0.34464(7) -0.5400(1) 0.5861(1)
N2A N -0.04692(6) -0.76620(7) 0.03124(8)
N2B N -0.54692(6) -0.73380(7) 0.53124(8)
N3A N -0.03453(8) -0.68795(8) 0.15797(9)
C2A C -0.08814(9) -0.56371(8) 0.1407(1)
N4A N -0.13481(6) -0.55646(7) 0.00895(8)
C3A C -0.10560(8) -0.68530(9) -0.05602(9)
C4A C -0.20637(8) -0.44030(9) -0.0478(1)
N5C N -0.56843(6) -0.44186(8) 0.71458(7)
N5A N -0.43157(6) -0.55814(8) 0.28542(7)
N6A N -0.4025(1) -0.70193(9) 0.2494(1)
C5A C -0.3626(1) -0.6940(1) 0.1204(1)
N7A N -0.36316(6) -0.55158(8) 0.07134(7)
C6A C -0.09313(8) 0.0288(1) 0.3219(1)
C7A C -0.32081(7) -0.4964(1) -0.06394(8)
H1A H -0.1048 -0.4850 0.2024
H2A H -0.1446 -0.7234 -0.1625
H3A H -0.1837 -0.2783 0.4122
H4A H -0.0874 0.1532 0.3314
H5A H -0.1961 -0.3640 0.0321
H6A H -0.1728 -0.4081 -0.1345
H7A H -0.3311 -0.5721 -0.1410
H8A H -0.3702 -0.4064 -0.0899
loop_
_geom_bond_atom_site_label_1
_geom_bond_atom_site_label_2
_geom_bond_site_symmetry_1
_geom_bond_site_symmetry_2
Fe1 N1 1_555 1_555
S1 C1 1_555 1_555
C1 N1 1_555 1_555
N2 Fe1 1_555 1_555
N3 N2 1_555 1_555
C2 N3 1_555 1_555
N4 C2 1_555 1_555
C3 N2 1_555 1_555
C4 N4 1_555 1_555
N5 N6 1_555 1_555
N6 C5 1_555 1_555
C5 N7 1_555 1_555
N7 C7 1_555 1_555
C6 H4 1_555 1_555
C7 C4 1_555 1_555
H1 C2 1_555 1_555
H2 C3 1_555 1_555
H3 C5A 1_555 1_555
H5 C4 1_555 1_555
H6 C4 1_555 1_555
H7 C7 1_555 1_555
H8 C7 1_555 1_555
Fe1C N5 1_555 1_555
Fe1C_2 N2A 1_555 1_555
S1B C1B 1_555 1_555
C1B N1B 1_555 1_555
N1B Fe1 1_555 1_555
N2A N3A 1_555 1_555
N2B Fe1 1_555 1_555
N3A C2A 1_555 1_555
C2A N4A 1_555 1_555
N4A C3A 1_555 1_555
C3A N2A 1_555 1_555
C4A N4A 1_555 1_555
N5C Fe1 1_555 1_555
N5A Fe1 1_555 1_555
N6A N5A 1_555 1_555
C5A N6A 1_555 1_555
N7A C6 1_555 1_555
C6A N5 1_555 1_555
C7A C4A 1_555 1_555
H1A C2A 1_555 1_555
H2A C3A 1_555 1_555
H3A C5 1_555 1_555
H4A C6A 1_555 1_555
H5A C4A 1_555 1_555
H6A C4A 1_555 1_555
H7A C7A 1_555 1_555
H8A C7A 1_555 1_555
N4 C3 1_555 1_555
N7 C6A 1_555 1_555
C6 N5A 1_555 1_555
C5A N7A 1_555 1_555
N7A C7A 1_555 1_555

#END
