
#######################################################################
#
#                 Cambridge Crystallographic Data Centre
#                                CCDC 
#
#######################################################################
#
# If this CIF has been generated from an entry in the Cambridge 
# Structural Database, then it will include bibliographic, chemical, 
# crystal, experimental, refinement or atomic coordinate data resulting 
# from the CCDC's data processing and validation procedures.
#
#######################################################################

data_CEFHOM
_symmetry_cell_setting           monoclinic
_symmetry_space_group_name_H-M   'P 21/c'
_symmetry_Int_Tables_number      14
_space_group_name_Hall           '-P 2ybc'
loop_
_symmetry_equiv_pos_site_id
_symmetry_equiv_pos_as_xyz
1 x,y,z
2 -x,1/2+y,1/2-z
3 -x,-y,-z
4 x,1/2-y,1/2+z
_cell_length_a                   8.767(2)
_cell_length_b                   12.426(3)
_cell_length_c                   13.159(5)
_cell_angle_alpha                90
_cell_angle_beta                 108.26(3)
_cell_angle_gamma                90
_cell_volume                     1361.34
loop_
_atom_site_label
_atom_site_type_symbol
_atom_site_fract_x
_atom_site_fract_y
_atom_site_fract_z
Cu1 Cu 0.53009(2) 0.529307(15) 0.136932(15)
K1 K 0.10262(4) 0.38634(3) -0.06404(3)
K2 K 0.86027(5) 0.61378(3) 0.38164(3)
O1 O 0.86577(14) 0.45133(10) 0.22512(10)
O2 O 0.20044(14) 0.60207(10) 0.03346(10)
O3 O 0.41091(14) 0.39928(10) 0.08061(10)
O4 O 0.65548(14) 0.66325(10) 0.16771(9)
O5 O 0.43256(15) 0.22059(10) 0.09720(10)
O6 O 0.61938(14) 0.84124(10) 0.16679(10)
O7 O 0.52488(16) 0.52800(10) 0.30436(10)
H1 H 0.4781(7) 0.4699(8) 0.3201(2)
H2 H 0.5029(3) 0.5835(8) 0.3278(3)
O8 O 0.10231(16) 0.33982(12) 0.13939(11)
H3 H 0.0333(11) 0.3648(4) 0.1612(4)
H4 H 0.1900(14) 0.3541(3) 0.1987(10)
O9 O 0.10864(15) 0.15821(11) -0.09001(11)
H5 H 0.1868(13) 0.1471(2) -0.1103(4)
H6 H 0.0246(14) 0.1349(4) -0.1428(9)
N1 N 0.71631(17) 0.42739(12) 0.18069(11)
N2 N 0.34617(17) 0.62774(12) 0.07855(11)
N3 N 0.86325(19) 0.16875(13) 0.23004(13)
N4 N 0.19141(19) 0.88673(13) 0.03683(13)
C1 C 0.7741(2) 0.23825(14) 0.20181(13)
C2 C 0.2811(2) 0.81670(14) 0.06281(13)
C3 C 0.66627(19) 0.32726(14) 0.16742(13)
C4 C 0.3926(2) 0.72992(14) 0.09515(13)
C5 C 0.4904(2) 0.31178(13) 0.11168(13)
C6 C 0.5671(2) 0.74813(14) 0.14657(13)
K1B K -0.10262(4) 0.61366(3) 0.06404(3)
K1A K 0.89738(4) 0.88634(3) 0.56404(3)
K1B_2 K 0.89738(4) 0.61366(3) 0.06404(3)
K1C K 1.10262(4) 0.11366(3) 0.43596(3)
K2A K 0.13973(5) 0.11378(3) 0.11836(3)
K2B K 0.13973(5) 0.38622(3) -0.38164(3)
K2B_2 K 1.13973(5) 0.38622(3) 0.61836(3)
K2A_2 K 0.13973(5) 1.11378(3) 0.11836(3)
K2C K -0.13973(5) 0.88622(3) -0.11836(3)
O1B O 0.13423(14) 0.54867(10) -0.22512(10)
O2B O -0.20044(14) 0.39793(10) -0.03346(10)
O4B O 0.34452(14) 0.33675(10) -0.16771(9)
O5A O 0.56744(15) 0.72059(10) 0.40280(10)
O8A O 0.89769(16) 0.83982(12) 0.36061(11)
H3A H 0.9667(11) 0.8648(4) 0.3388(4)
H4A H 0.8100(14) 0.8541(3) 0.3013(10)
O9A O 0.89136(15) 0.65821(11) 0.59001(11)
H5A H 0.8132(13) 0.6471(2) 0.6103(4)
H6A H 0.9754(14) 0.6349(4) 0.6428(9)
N3C N -0.13675(19) 0.33125(13) -0.26996(13)
N4A N 0.80859(19) 0.38673(13) 0.46317(13)
N4C N 1.19141(19) 0.61327(13) 0.53683(13)
loop_
_geom_bond_atom_site_label_1
_geom_bond_atom_site_label_2
_geom_bond_site_symmetry_1
_geom_bond_site_symmetry_2
Cu1 O3 1_555 1_555
K1 O2 1_555 1_555
K2 O1 1_555 1_555
O1 N1 1_555 1_555
O2 N2 1_555 1_555
O3 K1 1_555 1_555
O4 Cu1 1_555 1_555
O5 C5 1_555 1_555
O6 C6 1_555 1_555
O7 Cu1 1_555 1_555
H1 O7 1_555 1_555
H2 O7 1_555 1_555
O8 K1 1_555 1_555
H3 O8 1_555 1_555
H4 O8 1_555 1_555
O9 K1 1_555 1_555
H5 O9 1_555 1_555
H6 O9 1_555 1_555
N1 Cu1 1_555 1_555
N2 Cu1 1_555 1_555
N3 C1 1_555 1_555
N4 C2 1_555 1_555
C1 C3 1_555 1_555
C2 C4 1_555 1_555
C3 N1 1_555 1_555
C4 N2 1_555 1_555
C5 O3 1_555 1_555
C6 O4 1_555 1_555
K1B O2 1_555 1_555
K1A O8A 1_555 1_555
K1B_2 O1 1_555 1_555
K1C N3 1_555 1_555
K2A O5 1_555 1_555
K2B O1B 1_555 1_555
K2B_2 N4A 1_555 1_555
K2A_2 N4 1_555 1_555
K2C N4 1_555 1_555
O1B K1 1_555 1_555
O2B K1 1_555 1_555
O4B K1 1_555 1_555
O5A K2 1_555 1_555
O8A K2 1_555 1_555
H3A O8A 1_555 1_555
H4A O8A 1_555 1_555
O9A K2 1_555 1_555
H5A O9A 1_555 1_555
H6A O9A 1_555 1_555
N3C K1 1_555 1_555
N4A K2 1_555 1_555
N4C K2 1_555 1_555
K2 O4 1_555 1_555
K2 O7 1_555 1_555
O4 K1B_2 1_555 1_555
O8 K2A 1_555 1_555
O9 K2A 1_555 1_555
C3 C5 1_555 1_555
C4 C6 1_555 1_555
K1B O2B 1_555 1_555
K1A O9A 1_555 1_555
K2B O4B 1_555 1_555
K2B_2 N4C 1_555 1_555

#END
