
#######################################################################
#
#                 Cambridge Crystallographic Data Centre
#                                CCDC 
#
#######################################################################
#
# If this CIF has been generated from an entry in the Cambridge 
# Structural Database, then it will include bibliographic, chemical, 
# crystal, experimental, refinement or atomic coordinate data resulting 
# from the CCDC's data processing and validation procedures.
#
#######################################################################

data_CEFLAC
_symmetry_cell_setting           orthorhombic
_symmetry_space_group_name_H-M   'P b c n'
_symmetry_Int_Tables_number      60
_space_group_name_Hall           '-P 2n 2ab'
loop_
_symmetry_equiv_pos_site_id
_symmetry_equiv_pos_as_xyz
1 x,y,z
2 1/2-x,1/2-y,1/2+z
3 -x,y,1/2-z
4 1/2+x,1/2-y,-z
5 -x,-y,-z
6 1/2+x,1/2+y,1/2-z
7 x,-y,1/2+z
8 1/2-x,1/2+y,z
_cell_length_a                   11.2806(4)
_cell_length_b                   16.3703(7)
_cell_length_c                   9.0253(3)
_cell_angle_alpha                90
_cell_angle_beta                 90
_cell_angle_gamma                90
_cell_volume                     1666.67
loop_
_atom_site_label
_atom_site_type_symbol
_atom_site_fract_x
_atom_site_fract_y
_atom_site_fract_z
C1 C 0.85967(16) 0.48653(12) 0.8087(2)
H1 H 0.9127 0.5069 0.8785
C2 C 0.76108(18) 0.52549(13) 0.7609(2)
H2 H 0.7344 0.5768 0.7899
C3 C 0.77741(16) 0.40688(11) 0.6505(2)
H3 H 0.7616 0.3627 0.5889
C4 C 0.57558(18) 0.56487(12) 0.5293(3)
H4 H 0.6266 0.6082 0.5487
C5 C 0.60153(15) 0.48748(11) 0.5802(2)
C6 C 0.52718(19) 0.42289(12) 0.5509(3)
H5 H 0.5461 0.3709 0.5851
C7 C 1.08521(15) 0.29993(11) 0.43626(19)
C8 C 1.05530(18) 0.30159(14) 0.2748(2)
H6 H 1.1169 0.3027 0.2064
N1 N 0.86960(13) 0.41195(10) 0.73829(16)
N2 N 0.70833(13) 0.47384(9) 0.66080(18)
Ni1 Ni 1.0000 0.323481(18) 0.7500
O1 O 1.00329(10) 0.31848(9) 0.52371(16)
O2 O 1.18776(11) 0.27709(9) 0.47076(14)
O3 O 0.86671(12) 0.23178(8) 0.74938(13)
H7 H 0.8214 0.2383 0.8237
H8 H 0.8264 0.2356 0.6701
C1D C 0.14033(16) 0.51347(12) 0.1913(2)
H1D H 0.0873 0.4931 0.1215
C2D C 0.23892(18) 0.47451(13) 0.2391(2)
H2D H 0.2656 0.4232 0.2101
C3D C 0.22259(16) 0.59312(11) 0.3495(2)
H3D H 0.2384 0.6373 0.4111
C4D C 0.42442(18) 0.43513(12) 0.4707(3)
H4D H 0.3734 0.3918 0.4513
C5D C 0.39847(15) 0.51252(11) 0.4198(2)
C6D C 0.47282(19) 0.57711(12) 0.4491(3)
H5D H 0.4539 0.6291 0.4149
C7B C 0.91479(15) 0.29993(11) 0.06374(19)
C8B C 0.94470(18) 0.30159(14) 0.2252(2)
H6B H 0.8831 0.3027 0.2936
N1D N 0.13040(13) 0.58805(10) 0.26171(16)
N1B N 1.13040(13) 0.41195(10) 0.76171(16)
N2D N 0.29167(13) 0.52616(9) 0.33920(18)
Ni1D Ni 0.0000 0.676519(18) 0.2500
Ni1_2 Ni 1.0000 0.323481(18) -0.2500
O1B O 0.99671(10) 0.31848(9) -0.02371(16)
O1B_2 O 0.99671(10) 0.31848(9) 0.97629(16)
O2B O 0.81224(11) 0.27709(9) 0.02924(14)
O3B O 1.13329(12) 0.23178(8) 0.75062(13)
H7B H 1.1786 0.2383 0.6763
H8B H 1.1736 0.2356 0.8299
loop_
_geom_bond_atom_site_label_1
_geom_bond_atom_site_label_2
_geom_bond_site_symmetry_1
_geom_bond_site_symmetry_2
C1 H1 1_555 1_555
C2 C1 1_555 1_555
H2 C2 1_555 1_555
C3 H3 1_555 1_555
C4 H4 1_555 1_555
C5 C4 1_555 1_555
C6 C5 1_555 1_555
H5 C6 1_555 1_555
C7 C8 1_555 1_555
C8 H6 1_555 1_555
N1 C1 1_555 1_555
N2 C2 1_555 1_555
Ni1 N1 1_555 1_555
O1 C7 1_555 1_555
O2 C7 1_555 1_555
O3 Ni1 1_555 1_555
H7 O3 1_555 1_555
H8 O3 1_555 1_555
C1D H1D 1_555 1_555
C2D C1D 1_555 1_555
H2D C2D 1_555 1_555
C3D H3D 1_555 1_555
C4D C6 1_555 1_555
H4D C4D 1_555 1_555
C5D C4D 1_555 1_555
C6D C4 1_555 1_555
H5D C6D 1_555 1_555
C7B C8B 1_555 1_555
C8B C8 1_555 1_555
H6B C8B 1_555 1_555
N1D C1D 1_555 1_555
N1B Ni1 1_555 1_555
N2D C2D 1_555 1_555
Ni1D N1D 1_555 1_555
Ni1_2 O1B 1_555 1_555
O1B C7B 1_555 1_555
O1B_2 Ni1 1_555 1_555
O2B C7B 1_555 1_555
O3B Ni1 1_555 1_555
H7B O3B 1_555 1_555
H8B O3B 1_555 1_555
C3 N1 1_555 1_555
C3 N2 1_555 1_555
C5 N2 1_555 1_555
Ni1 O1 1_555 1_555
C3D N1D 1_555 1_555
C3D N2D 1_555 1_555
C5D C6D 1_555 1_555
C5D N2D 1_555 1_555

#END
