
#######################################################################
#
#                 Cambridge Crystallographic Data Centre
#                                CCDC 
#
#######################################################################
#
# If this CIF has been generated from an entry in the Cambridge 
# Structural Database, then it will include bibliographic, chemical, 
# crystal, experimental, refinement or atomic coordinate data resulting 
# from the CCDC's data processing and validation procedures.
#
#######################################################################

data_CEGFEA
_symmetry_cell_setting           monoclinic
_symmetry_space_group_name_H-M   'P 21/n'
_symmetry_Int_Tables_number      14
_space_group_name_Hall           '-P 2yn'
loop_
_symmetry_equiv_pos_site_id
_symmetry_equiv_pos_as_xyz
1 x,y,z
2 1/2-x,1/2+y,1/2-z
3 -x,-y,-z
4 1/2+x,1/2-y,1/2+z
_cell_length_a                   7.8906(7)
_cell_length_b                   5.9706(5)
_cell_length_c                   10.8708(9)
_cell_angle_alpha                90
_cell_angle_beta                 92.4520(10)
_cell_angle_gamma                90
_cell_volume                     511.672
loop_
_atom_site_label
_atom_site_type_symbol
_atom_site_fract_x
_atom_site_fract_y
_atom_site_fract_z
Ag1 Ag 0.5000 0.0000 1.0000
Ag2 Ag 0.5000 0.5000 0.5000
N1 N 0.4681(3) 0.0824(4) 0.8158(2)
N2 N 0.4725(3) 0.2586(4) 0.6359(2)
C1 C 0.3824(4) -0.0462(5) 0.7280(3)
H1 H 0.3313 -0.1838 0.7418
C2 C 0.6193(5) 0.4476(6) 0.8144(3)
H2 H 0.6382 0.4158 0.9004
H3 H 0.5577 0.5856 0.8047
H4 H 0.7264 0.4608 0.7763
C3 C 0.3850(4) 0.0598(6) 0.6197(3)
H5 H 0.3360 0.0080 0.5458
C4 C 0.5201(3) 0.2639(5) 0.7553(2)
Ag2_2 Ag 0.5000 -0.5000 1.5000
N1B N 0.5319(3) -0.0824(4) 1.1842(2)
N2B N 0.5275(3) -0.2586(4) 1.3641(2)
N2B_2 N 0.5275(3) 0.7414(4) 0.3641(2)
C1B C 0.6176(4) 0.0462(5) 1.2720(3)
H1B H 0.6687 0.1838 1.2582
C2B C 0.3807(5) -0.4476(6) 1.1856(3)
H2B H 0.3618 -0.4158 1.0996
H3B H 0.4423 -0.5856 1.1953
H4B H 0.2736 -0.4608 1.2237
C3B C 0.6150(4) -0.0598(6) 1.3803(3)
H5B H 0.6640 -0.0080 1.4542
C4B C 0.4799(3) -0.2639(5) 1.2447(2)
loop_
_geom_bond_atom_site_label_1
_geom_bond_atom_site_label_2
_geom_bond_site_symmetry_1
_geom_bond_site_symmetry_2
Ag1 N1 1_555 1_555
Ag2 N2 1_555 1_555
N1 C1 1_555 1_555
N2 C3 1_555 1_555
C1 H1 1_555 1_555
C2 H2 1_555 1_555
H3 C2 1_555 1_555
H4 C2 1_555 1_555
C3 C1 1_555 1_555
H5 C3 1_555 1_555
C4 N1 1_555 1_555
Ag2_2 N2B 1_555 1_555
N1B Ag1 1_555 1_555
N2B C3B 1_555 1_555
N2B_2 Ag2 1_555 1_555
C1B N1B 1_555 1_555
H1B C1B 1_555 1_555
C2B H2B 1_555 1_555
H3B C2B 1_555 1_555
H4B C2B 1_555 1_555
C3B C1B 1_555 1_555
H5B C3B 1_555 1_555
C4B N1B 1_555 1_555
N2 C4 1_555 1_555
C2 C4 1_555 1_555
N2B C4B 1_555 1_555
C2B C4B 1_555 1_555

#END
