
#######################################################################
#
#                 Cambridge Crystallographic Data Centre
#                                CCDC 
#
#######################################################################
#
# If this CIF has been generated from an entry in the Cambridge 
# Structural Database, then it will include bibliographic, chemical, 
# crystal, experimental, refinement or atomic coordinate data resulting 
# from the CCDC's data processing and validation procedures.
#
#######################################################################

data_CEGFEA14
_symmetry_cell_setting           monoclinic
_symmetry_space_group_name_H-M   'P 21/n'
_symmetry_Int_Tables_number      14
_space_group_name_Hall           '-P 2yn'
loop_
_symmetry_equiv_pos_site_id
_symmetry_equiv_pos_as_xyz
1 x,y,z
2 1/2-x,1/2+y,1/2-z
3 -x,-y,-z
4 1/2+x,1/2-y,1/2+z
_cell_length_a                   6.828(2)
_cell_length_b                   5.4298(3)
_cell_length_c                   10.8209(5)
_cell_angle_alpha                90
_cell_angle_beta                 96.076(11)
_cell_angle_gamma                90
_cell_volume                     398.928
loop_
_atom_site_label
_atom_site_type_symbol
_atom_site_fract_x
_atom_site_fract_y
_atom_site_fract_z
Ag1 Ag 0.5000 0.5000 0.5000
Ag2 Ag 0.5000 1.0000 1.0000
C1 C 0.371(5) 0.941(3) 0.6776(12)
C2 C 0.4826(14) 0.7390(16) 0.7441(8)
C3 C 0.6200(15) 0.3835(17) 0.7802(9)
C4 C 0.6282(15) 0.510(2) 0.8882(8)
N1 N 0.5275(15) 0.5290(17) 0.6887(8)
N2 N 0.5412(15) 0.7377(17) 0.8661(8)
H1 H 0.3556 1.0726 0.7338
H2 H 0.4416 0.9987 0.6120
H3 H 0.2456 0.8831 0.6444
H4 H 0.6697 0.2222 0.7697
H5 H 0.6847 0.4518 0.9668
Ag2_2 Ag 0.5000 0.0000 0.0000
C1B C 0.629(5) 0.059(3) 0.3224(12)
C2B C 0.5174(14) 0.2610(16) 0.2559(8)
C3B C 0.3800(15) 0.6165(17) 0.2198(9)
C4B C 0.3718(15) 0.490(2) 0.1118(8)
N1B N 0.4725(15) 0.4710(17) 0.3113(8)
N2B N 0.4588(15) 0.2623(17) 0.1339(8)
N2B_2 N 0.4588(15) 1.2623(17) 1.1339(8)
H1B H 0.6444 -0.0726 0.2662
H2B H 0.5584 0.0013 0.3880
H3B H 0.7544 0.1169 0.3556
H4B H 0.3303 0.7778 0.2303
H5B H 0.3153 0.5482 0.0332
loop_
_geom_bond_atom_site_label_1
_geom_bond_atom_site_label_2
_geom_bond_site_symmetry_1
_geom_bond_site_symmetry_2
Ag1 N1 1_555 1_555
Ag2 N2 1_555 1_555
C1 C2 1_555 1_555
C2 N1 1_555 1_555
C3 C4 1_555 1_555
C4 N2 1_555 1_555
N1 C3 1_555 1_555
N2 C2 1_555 1_555
H1 C1 1_555 1_555
H2 C1 1_555 1_555
H3 C1 1_555 1_555
H4 C3 1_555 1_555
H5 C4 1_555 1_555
Ag2_2 N2B 1_555 1_555
C1B C2B 1_555 1_555
C2B N1B 1_555 1_555
C3B C4B 1_555 1_555
C4B N2B 1_555 1_555
N1B Ag1 1_555 1_555
N2B C2B 1_555 1_555
N2B_2 Ag2 1_555 1_555
H1B C1B 1_555 1_555
H2B C1B 1_555 1_555
H3B C1B 1_555 1_555
H4B C3B 1_555 1_555
H5B C4B 1_555 1_555
C3B N1B 1_555 1_555

#END
