
#######################################################################
#
#                 Cambridge Crystallographic Data Centre
#                                CCDC 
#
#######################################################################
#
# If this CIF has been generated from an entry in the Cambridge 
# Structural Database, then it will include bibliographic, chemical, 
# crystal, experimental, refinement or atomic coordinate data resulting 
# from the CCDC's data processing and validation procedures.
#
#######################################################################

data_CEGFEA05
_symmetry_cell_setting           monoclinic
_symmetry_space_group_name_H-M   'P 21/n'
_symmetry_Int_Tables_number      14
_space_group_name_Hall           '-P 2yn'
loop_
_symmetry_equiv_pos_site_id
_symmetry_equiv_pos_as_xyz
1 x,y,z
2 1/2-x,1/2+y,1/2-z
3 -x,-y,-z
4 1/2+x,1/2-y,1/2+z
_cell_length_a                   7.7378(6)
_cell_length_b                   5.9245(4)
_cell_length_c                   10.9232(9)
_cell_angle_alpha                90
_cell_angle_beta                 92.821(3)
_cell_angle_gamma                90
_cell_volume                     500.141
loop_
_atom_site_label
_atom_site_type_symbol
_atom_site_fract_x
_atom_site_fract_y
_atom_site_fract_z
Ag1 Ag 0.5000 0.5000 0.5000
Ag2 Ag 0.5000 1.0000 1.0000
C1 C 0.3782(8) 0.9537(11) 0.6869(6)
C2 C 0.4790(7) 0.7625(11) 0.7447(5)
C3 C 0.6161(7) 0.4467(11) 0.7714(5)
C4 C 0.6147(7) 0.5569(11) 0.8806(5)
N1 N 0.5316(6) 0.5793(8) 0.6841(4)
N2 N 0.5270(6) 0.7585(9) 0.8645(4)
H1 H 0.3805 1.0823 0.7396
H2 H 0.4265 0.9962 0.6122
H3 H 0.2606 0.9096 0.6693
H4 H 0.6668 0.3072 0.7577
H5 H 0.6649 0.5056 0.9541
Ag2_2 Ag 0.5000 0.0000 0.0000
C1B C 0.6218(8) 0.0463(11) 0.3131(6)
C2B C 0.5210(7) 0.2375(11) 0.2553(5)
C3B C 0.3839(7) 0.5533(11) 0.2286(5)
C4B C 0.3853(7) 0.4431(11) 0.1194(5)
N1B N 0.4684(6) 0.4207(8) 0.3159(4)
N2B N 0.4730(6) 0.2415(9) 0.1355(4)
N2B_2 N 0.4730(6) 1.2415(9) 1.1355(4)
H1B H 0.6195 -0.0823 0.2604
H2B H 0.5735 0.0038 0.3878
H3B H 0.7394 0.0904 0.3307
H4B H 0.3332 0.6928 0.2423
H5B H 0.3351 0.4944 0.0459
loop_
_geom_bond_atom_site_label_1
_geom_bond_atom_site_label_2
_geom_bond_site_symmetry_1
_geom_bond_site_symmetry_2
Ag1 N1 1_555 1_555
Ag2 N2 1_555 1_555
C1 C2 1_555 1_555
C2 N1 1_555 1_555
C3 C4 1_555 1_555
C4 N2 1_555 1_555
N1 C3 1_555 1_555
N2 C2 1_555 1_555
H1 C1 1_555 1_555
H2 C1 1_555 1_555
H3 C1 1_555 1_555
H4 C3 1_555 1_555
H5 C4 1_555 1_555
Ag2_2 N2B 1_555 1_555
C1B C2B 1_555 1_555
C2B N1B 1_555 1_555
C3B C4B 1_555 1_555
C4B N2B 1_555 1_555
N1B Ag1 1_555 1_555
N2B C2B 1_555 1_555
N2B_2 Ag2 1_555 1_555
H1B C1B 1_555 1_555
H2B C1B 1_555 1_555
H3B C1B 1_555 1_555
H4B C3B 1_555 1_555
H5B C4B 1_555 1_555
C3B N1B 1_555 1_555

#END
