
#######################################################################
#
#                 Cambridge Crystallographic Data Centre
#                                CCDC 
#
#######################################################################
#
# If this CIF has been generated from an entry in the Cambridge 
# Structural Database, then it will include bibliographic, chemical, 
# crystal, experimental, refinement or atomic coordinate data resulting 
# from the CCDC's data processing and validation procedures.
#
#######################################################################

data_CEGFEA08
_symmetry_cell_setting           monoclinic
_symmetry_space_group_name_H-M   'P 21/n'
_symmetry_Int_Tables_number      14
_space_group_name_Hall           '-P 2yn'
loop_
_symmetry_equiv_pos_site_id
_symmetry_equiv_pos_as_xyz
1 x,y,z
2 1/2-x,1/2+y,1/2-z
3 -x,-y,-z
4 1/2+x,1/2-y,1/2+z
_cell_length_a                   7.433(2)
_cell_length_b                   5.8092(3)
_cell_length_c                   10.9101(5)
_cell_angle_alpha                90
_cell_angle_beta                 93.736(10)
_cell_angle_gamma                90
_cell_volume                     470.095
loop_
_atom_site_label
_atom_site_type_symbol
_atom_site_fract_x
_atom_site_fract_y
_atom_site_fract_z
Ag1 Ag 0.5000 0.5000 0.5000
Ag2 Ag 0.5000 1.0000 1.0000
C1 C 0.376(7) 0.951(4) 0.682(2)
C2 C 0.4804(15) 0.762(2) 0.7434(12)
C3 C 0.6173(15) 0.435(2) 0.7731(16)
C4 C 0.6157(15) 0.547(3) 0.8818(13)
N1 N 0.5312(16) 0.571(2) 0.6853(12)
N2 N 0.5290(16) 0.755(2) 0.8635(12)
H1 H 0.3552 1.0683 0.7404
H2 H 0.4422 1.0136 0.6183
H3 H 0.2639 0.8938 0.6485
H4 H 0.6689 0.2878 0.7602
H5 H 0.6663 0.4917 0.9584
Ag2_2 Ag 0.5000 0.0000 0.0000
C1B C 0.624(7) 0.049(4) 0.318(2)
C2B C 0.5196(15) 0.238(2) 0.2566(12)
C3B C 0.3827(15) 0.565(2) 0.2269(16)
C4B C 0.3843(15) 0.453(3) 0.1182(13)
N1B N 0.4688(16) 0.429(2) 0.3147(12)
N2B N 0.4710(16) 0.245(2) 0.1365(12)
N2B_2 N 0.4710(16) 1.245(2) 1.1365(12)
H1B H 0.6448 -0.0683 0.2596
H2B H 0.5578 -0.0136 0.3817
H3B H 0.7361 0.1062 0.3515
H4B H 0.3311 0.7122 0.2398
H5B H 0.3337 0.5083 0.0416
loop_
_geom_bond_atom_site_label_1
_geom_bond_atom_site_label_2
_geom_bond_site_symmetry_1
_geom_bond_site_symmetry_2
Ag1 N1 1_555 1_555
Ag2 N2 1_555 1_555
C1 C2 1_555 1_555
C2 N1 1_555 1_555
C3 C4 1_555 1_555
C4 N2 1_555 1_555
N1 C3 1_555 1_555
N2 C2 1_555 1_555
H1 C1 1_555 1_555
H2 C1 1_555 1_555
H3 C1 1_555 1_555
H4 C3 1_555 1_555
H5 C4 1_555 1_555
Ag2_2 N2B 1_555 1_555
C1B C2B 1_555 1_555
C2B N1B 1_555 1_555
C3B C4B 1_555 1_555
C4B N2B 1_555 1_555
N1B Ag1 1_555 1_555
N2B C2B 1_555 1_555
N2B_2 Ag2 1_555 1_555
H1B C1B 1_555 1_555
H2B C1B 1_555 1_555
H3B C1B 1_555 1_555
H4B C3B 1_555 1_555
H5B C4B 1_555 1_555
C3B N1B 1_555 1_555

#END
