
#######################################################################
#
#                 Cambridge Crystallographic Data Centre
#                                CCDC 
#
#######################################################################
#
# If this CIF has been generated from an entry in the Cambridge 
# Structural Database, then it will include bibliographic, chemical, 
# crystal, experimental, refinement or atomic coordinate data resulting 
# from the CCDC's data processing and validation procedures.
#
#######################################################################

data_CEGFAV
_symmetry_cell_setting           triclinic
_symmetry_space_group_name_H-M   'P -1'
_symmetry_Int_Tables_number      2
_space_group_name_Hall           '-P 1'
loop_
_symmetry_equiv_pos_site_id
_symmetry_equiv_pos_as_xyz
1 x,y,z
2 -x,-y,-z
_cell_length_a                   12.2522(9)
_cell_length_b                   13.8727(10)
_cell_length_c                   22.2931(16)
_cell_angle_alpha                79.7430(10)
_cell_angle_beta                 80.8290(10)
_cell_angle_gamma                64.0770(10)
_cell_volume                     3339.2
loop_
_atom_site_label
_atom_site_type_symbol
_atom_site_fract_x
_atom_site_fract_y
_atom_site_fract_z
Al1 Al -0.39758(7) 0.48358(6) 0.37347(4)
Cl1 Cl -0.27410(6) 0.32505(5) 0.41791(3)
F1 F -0.07391(14) -0.09000(11) 0.57991(6)
F2 F -0.01388(14) -0.30094(12) 0.60703(7)
F3 F 0.00675(14) -0.39508(12) 0.72577(7)
F4 F -0.03232(14) -0.26980(12) 0.81621(7)
F5 F -0.09310(13) -0.06389(11) 0.79161(6)
F6 F -0.23122(13) 0.13582(11) 0.53246(6)
F7 F -0.44483(13) 0.16507(12) 0.50924(7)
F8 F -0.60912(14) 0.13254(14) 0.60005(8)
F9 F -0.54934(14) 0.07929(13) 0.71904(7)
F10 F -0.33475(13) 0.05670(12) 0.74440(6)
F11 F 0.07156(13) 0.01786(12) 0.72619(7)
F12 F 0.08569(15) 0.10635(13) 0.81947(7)
F13 F -0.11052(16) 0.27591(13) 0.86252(7)
F14 F -0.32534(15) 0.35398(12) 0.81001(7)
F15 F -0.34340(14) 0.26531(12) 0.71860(7)
F16 F 0.12851(13) -0.06669(11) 0.60515(6)
F17 F 0.26211(13) 0.01169(12) 0.53079(7)
F18 F 0.17501(14) 0.22529(12) 0.48602(7)
F19 F -0.06221(14) 0.35909(11) 0.51858(7)
F20 F -0.20138(13) 0.28241(11) 0.59803(7)
F21 F -0.50672(14) 0.40836(12) 0.13922(7)
F22 F -0.38848(15) 0.49865(13) 0.05473(8)
F23 F -0.28054(17) 0.40914(14) -0.05028(8)
F24 F -0.28826(16) 0.22087(13) -0.06671(7)
F25 F -0.40264(14) 0.12964(12) 0.01564(7)
F26 F -0.71157(14) 0.38388(12) 0.22430(7)
F27 F -0.92163(15) 0.54357(12) 0.19933(7)
F28 F -1.00859(15) 0.57620(13) 0.08914(9)
F29 F -0.87555(15) 0.43764(14) 0.00433(8)
F30 F -0.66883(13) 0.26880(12) 0.03052(7)
F31 F -0.31349(13) 0.02540(12) 0.13052(7)
F32 F -0.27987(15) -0.17577(13) 0.12445(8)
F33 F -0.47345(17) -0.22162(13) 0.12054(9)
F34 F -0.70459(15) -0.05566(13) 0.12346(8)
F35 F -0.73949(13) 0.14056(12) 0.12930(7)
F36 F -0.67332(14) 0.17031(12) 0.24918(7)
F37 F -0.62131(16) 0.14458(13) 0.36448(7)
F38 F -0.41336(16) 0.15289(13) 0.38812(7)
F39 F -0.26052(15) 0.18764(13) 0.29326(7)
F40 F -0.30853(14) 0.21207(13) 0.17864(7)
N1 N -0.3040(2) 0.52573(17) 0.30786(10)
N2 N -0.49394(19) 0.45562(17) 0.32695(10)
B1 B -0.1351(3) 0.0687(2) 0.66224(14)
B2 B -0.5396(3) 0.2167(2) 0.13751(14)
C1 C -0.4849(3) 0.5906(2) 0.42860(13)
H1 H -0.5256 0.6613 0.4050
H2 H -0.4276 0.5936 0.4535
H3 H -0.5458 0.5714 0.4554
C2 C -0.2985(3) 0.5040(2) 0.25142(13)
H4 H -0.2408 0.5182 0.2218
C3 C -0.3689(3) 0.4626(2) 0.23211(13)
H5 H -0.3503 0.4437 0.1916
C4 C -0.4651(3) 0.4465(2) 0.26731(12)
H6 H -0.5144 0.4274 0.2473
C5 C -0.2426(2) 0.5883(2) 0.31723(13)
C6 C -0.2395(3) 0.6728(2) 0.27394(14)
H7 H -0.2775 0.6892 0.2372
C7 C -0.1814(3) 0.7329(3) 0.28435(15)
H8 H -0.1789 0.7902 0.2545
C8 C -0.1271(3) 0.7108(3) 0.33732(16)
H9 H -0.0862 0.7520 0.3438
C9 C -0.1319(3) 0.6288(2) 0.38118(14)
H10 H -0.0957 0.6145 0.4183
C10 C -0.1892(2) 0.5674(2) 0.37134(13)
H11 H -0.1921 0.5108 0.4016
C11 C -0.6049(2) 0.4489(2) 0.35500(12)
C12 C -0.6080(3) 0.4008(2) 0.41520(13)
H12 H -0.5378 0.3738 0.4370
C13 C -0.7125(3) 0.3921(2) 0.44346(14)
H13 H -0.7139 0.3590 0.4846
C14 C -0.8147(3) 0.4313(2) 0.41231(14)
H14 H -0.8865 0.4247 0.4316
C15 C -0.8123(3) 0.4803(2) 0.35295(14)
H15 H -0.8828 0.5074 0.3314
C16 C -0.7085(3) 0.4904(2) 0.32426(13)
H16 H -0.7084 0.5258 0.2836
C17 C -0.0843(2) -0.0633(2) 0.68277(11)
C18 C -0.0636(2) -0.1327(2) 0.63962(11)
C19 C -0.0325(2) -0.2411(2) 0.65209(12)
C20 C -0.0213(2) -0.2895(2) 0.71134(13)
C21 C -0.0408(2) -0.2257(2) 0.75635(12)
C22 C -0.0717(2) -0.1184(2) 0.74134(12)
C23 C -0.2705(2) 0.0982(2) 0.64119(12)
C24 C -0.3069(2) 0.1228(2) 0.58274(12)
C25 C -0.4181(3) 0.1362(2) 0.56875(12)
C26 C -0.5018(3) 0.1222(2) 0.61374(13)
C27 C -0.4716(3) 0.0958(2) 0.67308(13)
C28 C -0.3593(3) 0.0848(2) 0.68515(12)
C29 C -0.1373(2) 0.13369(19) 0.71825(11)
C30 C -0.0309(2) 0.1019(2) 0.74572(12)
C31 C -0.0206(3) 0.1463(2) 0.79374(12)
C32 C -0.1206(3) 0.2318(2) 0.81556(12)
C33 C -0.2271(3) 0.2701(2) 0.78945(12)
C34 C -0.2336(2) 0.2211(2) 0.74186(12)
C35 C -0.0472(2) 0.1039(2) 0.60687(11)
C36 C 0.0721(2) 0.0419(2) 0.58675(11)
C37 C 0.1454(2) 0.0813(2) 0.54716(12)
C38 C 0.1022(3) 0.1877(2) 0.52419(12)
C39 C -0.0164(3) 0.2542(2) 0.54081(12)
C40 C -0.0864(2) 0.2119(2) 0.58185(12)
C41 C -0.4580(2) 0.2618(2) 0.08402(12)
C42 C -0.4516(2) 0.3582(2) 0.08833(12)
C43 C -0.3931(3) 0.4075(2) 0.04529(13)
C44 C -0.3374(3) 0.3617(2) -0.00734(13)
C45 C -0.3425(3) 0.2675(2) -0.01526(12)
C46 C -0.4018(2) 0.2210(2) 0.02929(12)
C47 C -0.6785(2) 0.3135(2) 0.12963(12)
C48 C -0.7495(2) 0.3892(2) 0.16956(12)
C49 C -0.8586(3) 0.4749(2) 0.15746(13)
C50 C -0.9030(3) 0.4916(2) 0.10213(15)
C51 C -0.8360(3) 0.4209(2) 0.06029(13)
C52 C -0.7290(2) 0.3363(2) 0.07441(12)
C53 C -0.5270(2) 0.0961(2) 0.12885(11)
C54 C -0.4133(3) 0.0083(2) 0.12812(12)
C55 C -0.3934(3) -0.0961(2) 0.12488(13)
C56 C -0.4907(3) -0.1200(2) 0.12255(13)
C57 C -0.6042(3) -0.0376(2) 0.12358(12)
C58 C -0.6188(2) 0.0656(2) 0.12681(12)
C59 C -0.4971(2) 0.1974(2) 0.20719(12)
C60 C -0.5687(2) 0.1763(2) 0.25780(12)
C61 C -0.5448(3) 0.1624(2) 0.31781(13)
C62 C -0.4403(3) 0.1664(2) 0.32901(13)
C63 C -0.3628(3) 0.1827(2) 0.28162(13)
C64 C -0.3918(3) 0.1967(2) 0.22253(12)
C65 C -0.0445(3) -0.0412(3) 0.94344(16)
H17 H -0.0663 0.0342 0.9388
C66 C -0.1178(3) -0.0839(3) 0.98253(15)
H18 H -0.1893 -0.0376 1.0044
C67 C -0.0866(3) -0.1931(3) 0.98939(14)
H19 H -0.1356 -0.2226 1.0164
C68 C 0.0156(3) -0.2589(3) 0.95695(14)
H20 H 0.0371 -0.3342 0.9612
C69 C 0.0877(3) -0.2164(3) 0.91808(14)
H21 H 0.1580 -0.2627 0.8954
C70 C 0.0585(2) -0.1075(2) 0.91185(11)
H22 H 0.1094 -0.0788 0.8859
Li1 Li -0.2926(2) 0.1615(2) 0.44268(11)
Li2 Li -0.1203(2) -0.1192(2) 0.87702(11)
Li2A Li -0.8797(2) 0.1192(2) 0.12298(11)
F34A F -0.29541(15) 0.05566(13) 0.87654(8)
F35A F -0.26051(13) -0.14056(12) 0.87070(7)
F16A F -0.12851(13) 0.06669(11) 0.39485(6)
F17A F -0.26211(13) -0.01169(12) 0.46921(7)
Li1A Li 0.2926(2) -0.1615(2) 0.55732(11)
loop_
_geom_bond_atom_site_label_1
_geom_bond_atom_site_label_2
_geom_bond_site_symmetry_1
_geom_bond_site_symmetry_2
Al1 Cl1 1_555 1_555
Cl1 Li1 1_555 1_555
F1 C18 1_555 1_555
F2 C19 1_555 1_555
F3 C20 1_555 1_555
F4 C21 1_555 1_555
F5 C22 1_555 1_555
F6 C24 1_555 1_555
F7 C25 1_555 1_555
F8 C26 1_555 1_555
F9 C27 1_555 1_555
F10 C28 1_555 1_555
F11 C30 1_555 1_555
F12 C31 1_555 1_555
F13 C32 1_555 1_555
F14 C33 1_555 1_555
F15 C34 1_555 1_555
F16 C36 1_555 1_555
F17 C37 1_555 1_555
F18 C38 1_555 1_555
F19 C39 1_555 1_555
F20 C40 1_555 1_555
F21 C42 1_555 1_555
F22 C43 1_555 1_555
F23 C44 1_555 1_555
F24 C45 1_555 1_555
F25 C46 1_555 1_555
F26 C48 1_555 1_555
F27 C49 1_555 1_555
F28 C50 1_555 1_555
F29 C51 1_555 1_555
F30 C52 1_555 1_555
F31 C54 1_555 1_555
F32 C55 1_555 1_555
F33 C56 1_555 1_555
F34 C57 1_555 1_555
F35 C58 1_555 1_555
F36 C60 1_555 1_555
F37 C61 1_555 1_555
F38 C62 1_555 1_555
F39 C63 1_555 1_555
F40 C64 1_555 1_555
N1 Al1 1_555 1_555
N2 Al1 1_555 1_555
B1 C17 1_555 1_555
B2 C41 1_555 1_555
C1 Al1 1_555 1_555
H1 C1 1_555 1_555
H2 C1 1_555 1_555
H3 C1 1_555 1_555
C2 N1 1_555 1_555
H4 C2 1_555 1_555
C3 C2 1_555 1_555
H5 C3 1_555 1_555
C4 N2 1_555 1_555
H6 C4 1_555 1_555
C5 N1 1_555 1_555
C6 C5 1_555 1_555
H7 C6 1_555 1_555
C7 C6 1_555 1_555
H8 C7 1_555 1_555
C8 C7 1_555 1_555
H9 C8 1_555 1_555
C9 C8 1_555 1_555
H10 C9 1_555 1_555
C10 C5 1_555 1_555
H11 C10 1_555 1_555
C11 N2 1_555 1_555
C12 C11 1_555 1_555
H12 C12 1_555 1_555
C13 C12 1_555 1_555
H13 C13 1_555 1_555
C14 C13 1_555 1_555
H14 C14 1_555 1_555
C15 C14 1_555 1_555
H15 C15 1_555 1_555
C16 C11 1_555 1_555
H16 C16 1_555 1_555
C17 C18 1_555 1_555
C18 C19 1_555 1_555
C19 C20 1_555 1_555
C20 C21 1_555 1_555
C21 C22 1_555 1_555
C22 C17 1_555 1_555
C23 B1 1_555 1_555
C24 C23 1_555 1_555
C25 C24 1_555 1_555
C26 C25 1_555 1_555
C27 C26 1_555 1_555
C28 C23 1_555 1_555
C29 B1 1_555 1_555
C30 C29 1_555 1_555
C31 C30 1_555 1_555
C32 C31 1_555 1_555
C33 C32 1_555 1_555
C34 C29 1_555 1_555
C35 B1 1_555 1_555
C36 C35 1_555 1_555
C37 C36 1_555 1_555
C38 C37 1_555 1_555
C39 C38 1_555 1_555
C40 C35 1_555 1_555
C41 C42 1_555 1_555
C42 C43 1_555 1_555
C43 C44 1_555 1_555
C44 C45 1_555 1_555
C45 C46 1_555 1_555
C46 C41 1_555 1_555
C47 B2 1_555 1_555
C48 C47 1_555 1_555
C49 C48 1_555 1_555
C50 C49 1_555 1_555
C51 C50 1_555 1_555
C52 C47 1_555 1_555
C53 B2 1_555 1_555
C54 C53 1_555 1_555
C55 C54 1_555 1_555
C56 C55 1_555 1_555
C57 C56 1_555 1_555
C58 C53 1_555 1_555
C59 B2 1_555 1_555
C60 C59 1_555 1_555
C61 C60 1_555 1_555
C62 C61 1_555 1_555
C63 C62 1_555 1_555
C64 C59 1_555 1_555
C65 H17 1_555 1_555
C66 C65 1_555 1_555
H18 C66 1_555 1_555
C67 C66 1_555 1_555
H19 C67 1_555 1_555
C68 C67 1_555 1_555
H20 C68 1_555 1_555
C69 C68 1_555 1_555
H21 C69 1_555 1_555
C70 C65 1_555 1_555
H22 C70 1_555 1_555
Li1 F6 1_555 1_555
Li2 F4 1_555 1_555
Li2A F34 1_555 1_555
F34A Li2 1_555 1_555
F35A Li2 1_555 1_555
F16A Li1 1_555 1_555
F17A Li1 1_555 1_555
Li1A F16 1_555 1_555
F5 Li2 1_555 1_555
F7 Li1 1_555 1_555
F17 Li1A 1_555 1_555
F35 Li2A 1_555 1_555
F38 Li1 1_555 1_555
C3 C4 1_555 1_555
C9 C10 1_555 1_555
C15 C16 1_555 1_555
C27 C28 1_555 1_555
C33 C34 1_555 1_555
C39 C40 1_555 1_555
C51 C52 1_555 1_555
C57 C58 1_555 1_555
C63 C64 1_555 1_555
C65 Li2 1_555 1_555
C66 Li2 1_555 1_555
C67 Li2 1_555 1_555
C68 Li2 1_555 1_555
C69 C70 1_555 1_555
C69 Li2 1_555 1_555
C70 Li2 1_555 1_555

#END
