
#######################################################################
#
#                 Cambridge Crystallographic Data Centre
#                                CCDC 
#
#######################################################################
#
# If this CIF has been generated from an entry in the Cambridge 
# Structural Database, then it will include bibliographic, chemical, 
# crystal, experimental, refinement or atomic coordinate data resulting 
# from the CCDC's data processing and validation procedures.
#
#######################################################################

data_CEGJOO
_symmetry_cell_setting           orthorhombic
_symmetry_space_group_name_H-M   'I c 2 m'
_symmetry_Int_Tables_number      46
_space_group_name_Hall           'I -2c -2c'
loop_
_symmetry_equiv_pos_site_id
_symmetry_equiv_pos_as_xyz
1 x,y,z
2 -x,y,-z
3 -x,y,1/2+z
4 x,y,1/2-z
5 1/2+x,1/2+y,1/2+z
6 1/2-x,1/2+y,1/2-z
7 1/2-x,1/2+y,z
8 1/2+x,1/2+y,-z
_cell_length_a                   6.056(1)
_cell_length_b                   8.866(1)
_cell_length_c                   22.610(2)
_cell_angle_alpha                90
_cell_angle_beta                 90
_cell_angle_gamma                90
_cell_volume                     1213.99
loop_
_atom_site_label
_atom_site_type_symbol
_atom_site_fract_x
_atom_site_fract_y
_atom_site_fract_z
Zn1 Zn 0.75418(8) 0.90463(17) 0.884796(16)
C1 C 0.5000 0.8928(9) 1.0000
H1 H 0.5000 0.9976 1.0000
N1 N 0.5942(6) 0.8240(5) 0.95465(16)
C2 C 0.5894(6) 0.6673(6) 0.95240(19)
C3 C 0.5000 0.5889(7) 1.0000
H2 H 0.5000 0.4840 1.0000
O1 O 0.6751(6) 0.6155(4) 0.90562(15)
C4 C 0.7297(10) 0.8913(14) 0.7500
H3 H 0.8666 0.8437 0.7500
N2 N 0.6404(6) 0.9223(5) 0.80187(15)
C5 C 0.4456(7) 1.0010(5) 0.8034(2)
C6 C 0.3451(12) 1.0413(9) 0.7500
H4 H 0.2127 1.0945 0.7500
O2 O 0.3678(6) 1.0297(5) 0.85528(14)
O3 O 1.0624(6) 0.8235(5) 0.88649(17)
H5 H 1.1545 0.8955 0.8696
H6 H 1.0973 0.7335 0.8800
Zn1A Zn 0.24582(8) 0.90463(17) 1.115204(16)
Zn1F Zn 0.74582(8) 0.40463(17) 0.884796(16)
Zn1G Zn 0.25418(8) 0.40463(17) 1.115204(16)
Zn1C Zn 0.75418(8) 0.90463(17) 0.615204(16)
N1A N 0.4058(6) 0.8240(5) 1.04535(16)
C2A C 0.4106(6) 0.6673(6) 1.04760(19)
O1A O 0.3249(6) 0.6155(4) 1.09438(15)
O1F O 0.8249(6) 1.1155(4) 0.90562(15)
O1G O 0.1751(6) 1.1155(4) 1.09438(15)
N2C N 0.6404(6) 0.9223(5) 0.69813(15)
N2A N 0.3596(6) 0.9223(5) 1.19813(15)
C5C C 0.4456(7) 1.0010(5) 0.6966(2)
O2C O 0.3678(6) 1.0297(5) 0.64472(14)
O3A O -0.0624(6) 0.8235(5) 1.11351(17)
H5A H -0.1545 0.8955 1.1304
H6A H -0.0973 0.7335 1.1200
loop_
_geom_bond_atom_site_label_1
_geom_bond_atom_site_label_2
_geom_bond_site_symmetry_1
_geom_bond_site_symmetry_2
Zn1 N1 1_555 1_555
C1 H1 1_555 1_555
N1 C1 1_555 1_555
C2 N1 1_555 1_555
C3 C2 1_555 1_555
H2 C3 1_555 1_555
O1 C2 1_555 1_555
C4 H3 1_555 1_555
N2 Zn1 1_555 1_555
C5 N2 1_555 1_555
C6 C5 1_555 1_555
H4 C6 1_555 1_555
O2 C5 1_555 1_555
O3 Zn1 1_555 1_555
H5 O3 1_555 1_555
H6 O3 1_555 1_555
Zn1A N1A 1_555 1_555
Zn1F O1 1_555 1_555
Zn1G O1A 1_555 1_555
Zn1C N2C 1_555 1_555
N1A C1 1_555 1_555
C2A C3 1_555 1_555
O1A C2A 1_555 1_555
O1F Zn1 1_555 1_555
O1G Zn1A 1_555 1_555
N2C C4 1_555 1_555
N2A Zn1A 1_555 1_555
C5C C6 1_555 1_555
O2C C5C 1_555 1_555
O3A Zn1A 1_555 1_555
H5A O3A 1_555 1_555
H6A O3A 1_555 1_555
C4 N2 1_555 1_555
N1A C2A 1_555 1_555
N2C C5C 1_555 1_555

#END
