
#######################################################################
#
#                 Cambridge Crystallographic Data Centre
#                                CCDC 
#
#######################################################################
#
# If this CIF has been generated from an entry in the Cambridge 
# Structural Database, then it will include bibliographic, chemical, 
# crystal, experimental, refinement or atomic coordinate data resulting 
# from the CCDC's data processing and validation procedures.
#
#######################################################################

data_CEGPEK
_symmetry_cell_setting           monoclinic
_symmetry_space_group_name_H-M   'P 21/c'
_symmetry_Int_Tables_number      14
_space_group_name_Hall           '-P 2ybc'
loop_
_symmetry_equiv_pos_site_id
_symmetry_equiv_pos_as_xyz
1 x,y,z
2 -x,1/2+y,1/2-z
3 -x,-y,-z
4 x,1/2-y,1/2+z
_cell_length_a                   20.86690(10)
_cell_length_b                   15.00740(10)
_cell_length_c                   11.67850(10)
_cell_angle_alpha                90
_cell_angle_beta                 99.367(6)
_cell_angle_gamma                90
_cell_volume                     3608.45
loop_
_atom_site_label
_atom_site_type_symbol
_atom_site_fract_x
_atom_site_fract_y
_atom_site_fract_z
Li1 Li 0.41128(17) 0.4187(2) 0.7717(3)
Li2 Li 0.47643(16) 0.7262(2) 0.4638(3)
Li3 Li 0.33513(16) 0.8309(2) 0.7389(3)
Li4 Li 0.27607(16) 0.4744(2) 0.5360(3)
Li5 Li 0.22779(17) 0.4924(2) 0.9853(3)
Li6 Li 0.16671(16) 0.1762(2) 0.2761(3)
O1 O 0.58603(6) 0.54323(9) 0.66423(12)
O2 O 0.56192(6) 0.66257(9) 0.54483(12)
O3 O 0.45958(7) 0.70592(9) 0.63446(12)
H1 H 0.4212(6) 0.7053(16) 0.642(2)
O4 O 0.53077(7) 0.70068(9) 0.86204(12)
H2 H 0.5696(6) 0.6971(19) 0.857(2)
O5 O 0.42170(6) 0.66385(9) 0.93550(12)
O6 O 0.40425(6) 0.53639(9) 0.83263(12)
C1 C 0.55061(9) 0.60858(13) 0.62494(17)
C2 C 0.48762(9) 0.62233(13) 0.67732(17)
H3 H 0.4565 0.5735 0.6485
C3 C 0.50067(9) 0.61947(13) 0.81429(17)
H4 H 0.5306 0.5687 0.8397
C4 C 0.43734(9) 0.60598(13) 0.86536(17)
O7 O 0.16010(6) 0.72198(9) 0.82517(12)
O8 O 0.17816(6) 0.60763(9) 0.95398(12)
O9 O 0.28065(7) 0.55019(9) 0.87347(12)
H5 H 0.3197(6) 0.5487(16) 0.866(2)
O10 O 0.21982(7) 0.53959(9) 0.64394(12)
H6 H 0.1806(5) 0.5365(15) 0.6494(19)
O11 O 0.32345(6) 0.58919(9) 0.56073(12)
O12 O 0.33723(6) 0.71540(9) 0.66757(12)
C5 C 0.19253(9) 0.65482(13) 0.87067(17)
C6 C 0.25511(9) 0.63185(13) 0.82129(17)
H7 H 0.2877 0.6800 0.8453
C7 C 0.24356(9) 0.62568(13) 0.68381(17)
H8 H 0.2104 0.6713 0.6522
C8 C 0.30652(9) 0.64397(13) 0.63324(17)
O13 O 0.15889(6) 0.29257(9) 0.34023(12)
O14 O 0.19160(6) 0.40523(9) 0.46530(12)
O15 O 0.29031(7) 0.44839(9) 0.36641(12)
H9 H 0.3286(6) 0.4441(17) 0.358(2)
O16 O 0.20996(7) 0.45133(9) 0.14458(12)
H10 H 0.1709(5) 0.4483(14) 0.1481(18)
O17 O 0.31434(6) 0.42009(9) 0.05366(12)
O18 O 0.34138(6) 0.29544(9) 0.16030(12)
C9 C 0.19819(9) 0.35458(13) 0.37976(17)
C10 C 0.25930(9) 0.36792(13) 0.32139(17)
H11 H 0.2897 0.3172 0.3443
C11 C 0.24229(9) 0.37007(13) 0.18495(17)
H12 H 0.2129 0.3189 0.1587
C12 C 0.30456(9) 0.36146(13) 0.12876(17)
O19 O 0.35478(7) 0.38799(10) 0.61385(13)
H13 H 0.3421(12) 0.3371(9) 0.625(2)
H14 H 0.3760(11) 0.3767(17) 0.5613(17)
O20 O 0.25168(8) 0.86775(12) 0.76961(15)
H15 H 0.2232(12) 0.844(2) 0.800(3)
H16 H 0.2487(13) 0.9219(7) 0.772(2)
O21 O 0.39981(7) 0.63842(10) 0.39094(13)
H17 H 0.4134(13) 0.5903(11) 0.373(2)
H18 H 0.3787(11) 0.6275(16) 0.4421(16)
O22 O 0.49720(7) 0.37853(11) 0.76185(14)
H19 H 0.5317(8) 0.4004(15) 0.794(2)
H20 H 0.5002(11) 0.3243(7) 0.770(2)
O23 O 0.37682(7) 0.34019(10) 0.88657(14)
H21 H 0.3957(11) 0.2938(11) 0.909(2)
H22 H 0.3671(12) 0.3627(16) 0.9457(15)
O24 O 0.14462(7) 0.41714(10) 0.88690(14)
H23 H 0.1237(12) 0.4523(15) 0.841(2)
H24 H 0.1206(11) 0.3995(17) 0.9320(19)
O25 O 0.11645(7) 0.17309(11) 0.11856(13)
H25 H 0.1007(12) 0.2182(11) 0.086(2)
H26 H 0.1348(12) 0.1473(16) 0.0703(18)
O26 O 0.25107(7) 0.13441(11) 0.25632(13)
H27 H 0.2529(13) 0.0794(7) 0.255(2)
H28 H 0.2867(8) 0.1491(17) 0.294(2)
O27 O 0.37140(7) 0.90803(10) 0.62503(14)
H29 H 0.3562(13) 0.9566(10) 0.605(2)
H30 H 0.3757(12) 0.8869(16) 0.5622(13)
Li2C Li 0.47643(16) 0.7738(2) 0.9638(3)
Li3C Li 0.33513(16) 0.6691(2) 0.2389(3)
Li5_2 Li 0.22779(17) 0.4924(2) -0.0147(3)
Li6C Li 0.16671(16) 0.3238(2) 0.7761(3)
O4C O 0.53077(7) 0.79932(9) 0.36204(12)
H2C H 0.5696(6) 0.8029(19) 0.357(2)
O5C O 0.42170(6) 0.83615(9) 0.43550(12)
O16_2 O 0.20996(7) 0.45133(9) 1.14458(12)
H10_2 H 0.1709(5) 0.4483(14) 1.1481(18)
O17_2 O 0.31434(6) 0.42009(9) 1.05366(12)
O21C O 0.39981(7) 0.86158(10) 0.89094(13)
H17C H 0.4134(13) 0.9097(11) 0.873(2)
H18C H 0.3787(11) 0.8725(16) 0.9421(16)
O24C O 0.14462(7) 0.08286(10) 0.38690(14)
H23C H 0.1237(12) 0.0477(15) 0.341(2)
H24C H 0.1206(11) 0.1005(17) 0.4320(19)
Li7 Li 0.07691(17) 0.9287(2) 0.7302(3)
Li8 Li -0.02420(16) 1.2616(2) 0.9633(3)
O28 O -0.07619(6) 1.14832(9) 0.93732(12)
O29 O -0.09700(6) 1.03126(9) 0.81269(12)
O30 O 0.02834(7) 1.19764(9) 0.85637(12)
H31 H 0.0678(5) 1.1967(17) 0.855(2)
O31 O -0.03970(7) 1.21041(9) 0.62909(12)
H32 H -0.0775(6) 1.2168(18) 0.639(2)
O32 O 0.08174(6) 1.04105(9) 0.65034(12)
O33 O 0.05859(6) 1.15928(9) 0.53053(12)
C13 C -0.06307(9) 1.09812(13) 0.85589(17)
C14 C -0.00058(9) 1.11744(13) 0.80408(17)
H33 H 0.0305 1.0672 0.8258
C15 C -0.01446(9) 1.12452(13) 0.66760(17)
H34 H -0.0477 1.0785 0.6375
C16 C 0.04702(9) 1.10737(13) 0.61204(17)
O34 O 0.10368(7) 0.83597(10) 0.62520(14)
H35 H 0.1239(11) 0.7984(13) 0.6681(19)
H36 H 0.1257(11) 0.8514(16) 0.5748(17)
O35 O 0.13354(8) 0.92878(11) 0.88276(14)
H37 H 0.1209(13) 0.9017(17) 0.9367(17)
H38 H 0.1508(10) 0.9742(10) 0.9120(18)
O36 O -0.00497(7) 0.88371(11) 0.76336(14)
H39 H -0.0318(12) 0.9051(19) 0.800(2)
H40 H -0.0042(13) 0.8296(8) 0.775(2)
Li8C Li -0.02420(16) 1.2384(2) 0.4633(3)
Li8A Li 0.02420(16) 0.7616(2) 0.5367(3)
O31C O -0.03970(7) 1.28959(9) 1.12909(12)
H32C H -0.0775(6) 1.2832(18) 1.139(2)
O33C O 0.05859(6) 1.34072(9) 1.03053(12)
O34A O -0.10368(7) 1.33597(10) 0.87480(14)
H35A H -0.1239(11) 1.2984(13) 0.8319(19)
H36A H -0.1257(11) 1.3514(16) 0.9252(17)
loop_
_geom_bond_atom_site_label_1
_geom_bond_atom_site_label_2
_geom_bond_site_symmetry_1
_geom_bond_site_symmetry_2
Li1 O6 1_555 1_555
Li2 O2 1_555 1_555
Li3 O12 1_555 1_555
Li4 O10 1_555 1_555
Li5 O8 1_555 1_555
Li6 O13 1_555 1_555
O1 C1 1_555 1_555
O2 C1 1_555 1_555
O3 Li2 1_555 1_555
H1 O3 1_555 1_555
O4 H2 1_555 1_555
O5 C4 1_555 1_555
O6 C4 1_555 1_555
C1 C2 1_555 1_555
C2 O3 1_555 1_555
H3 C2 1_555 1_555
C3 O4 1_555 1_555
H4 C3 1_555 1_555
C4 C3 1_555 1_555
O7 C5 1_555 1_555
O8 C5 1_555 1_555
O9 Li5 1_555 1_555
H5 O9 1_555 1_555
O10 H6 1_555 1_555
O11 Li4 1_555 1_555
O12 C8 1_555 1_555
C5 C6 1_555 1_555
C6 O9 1_555 1_555
H7 C6 1_555 1_555
C7 O10 1_555 1_555
H8 C7 1_555 1_555
C8 O11 1_555 1_555
O13 C9 1_555 1_555
O14 Li4 1_555 1_555
O15 Li4 1_555 1_555
H9 O15 1_555 1_555
O16 H10 1_555 1_555
O17 C12 1_555 1_555
O18 C12 1_555 1_555
C9 O14 1_555 1_555
C10 O15 1_555 1_555
H11 C10 1_555 1_555
C11 O16 1_555 1_555
H12 C11 1_555 1_555
C12 C11 1_555 1_555
O19 Li1 1_555 1_555
H13 O19 1_555 1_555
H14 O19 1_555 1_555
O20 Li3 1_555 1_555
H15 O20 1_555 1_555
H16 O20 1_555 1_555
O21 Li2 1_555 1_555
H17 O21 1_555 1_555
H18 O21 1_555 1_555
O22 Li1 1_555 1_555
H19 O22 1_555 1_555
H20 O22 1_555 1_555
O23 Li1 1_555 1_555
H21 O23 1_555 1_555
H22 O23 1_555 1_555
O24 Li5 1_555 1_555
H23 O24 1_555 1_555
H24 O24 1_555 1_555
O25 Li6 1_555 1_555
H25 O25 1_555 1_555
H26 O25 1_555 1_555
O26 Li6 1_555 1_555
H27 O26 1_555 1_555
H28 O26 1_555 1_555
O27 Li3 1_555 1_555
H29 O27 1_555 1_555
H30 O27 1_555 1_555
Li7 O32 1_555 1_555
Li8 O28 1_555 1_555
O28 C13 1_555 1_555
O29 C13 1_555 1_555
O30 Li8 1_555 1_555
H31 O30 1_555 1_555
O31 H32 1_555 1_555
O32 C16 1_555 1_555
O33 C16 1_555 1_555
C13 C14 1_555 1_555
C14 O30 1_555 1_555
H33 C14 1_555 1_555
C15 O31 1_555 1_555
H34 C15 1_555 1_555
C16 C15 1_555 1_555
O34 Li7 1_555 1_555
H35 O34 1_555 1_555
H36 O34 1_555 1_555
O35 Li7 1_555 1_555
H37 O35 1_555 1_555
H38 O35 1_555 1_555
O36 Li7 1_555 1_555
H39 O36 1_555 1_555
H40 O36 1_555 1_555
Li2C O4 1_555 1_555
Li3C O21 1_555 1_555
Li5_2 O16 1_555 1_555
Li6C O24 1_555 1_555
O4C Li2 1_555 1_555
H2C O4C 1_555 1_555
O5C Li2 1_555 1_555
O16_2 Li5 1_555 1_555
H10_2 O16_2 1_555 1_555
O17_2 Li5 1_555 1_555
O21C Li3 1_555 1_555
H17C O21C 1_555 1_555
H18C O21C 1_555 1_555
O24C Li6 1_555 1_555
H23C O24C 1_555 1_555
H24C O24C 1_555 1_555
Li8C O31 1_555 1_555
Li8A O34 1_555 1_555
O31C Li8 1_555 1_555
H32C O31C 1_555 1_555
O33C Li8 1_555 1_555
O34A Li8 1_555 1_555
H35A O34A 1_555 1_555
H36A O34A 1_555 1_555
Li4 O19 1_555 1_555
O5 Li2C 1_555 1_555
C2 C3 1_555 1_555
C6 C7 1_555 1_555
C7 C8 1_555 1_555
O17 Li5_2 1_555 1_555
C9 C10 1_555 1_555
C10 C11 1_555 1_555
O33 Li8C 1_555 1_555
C14 C15 1_555 1_555
Li2C O21C 1_555 1_555

#END
