
#######################################################################
#
#                 Cambridge Crystallographic Data Centre
#                                CCDC 
#
#######################################################################
#
# If this CIF has been generated from an entry in the Cambridge 
# Structural Database, then it will include bibliographic, chemical, 
# crystal, experimental, refinement or atomic coordinate data resulting 
# from the CCDC's data processing and validation procedures.
#
#######################################################################

data_CEGWUH
_symmetry_cell_setting           triclinic
_symmetry_space_group_name_H-M   'P -1'
_symmetry_Int_Tables_number      2
_space_group_name_Hall           '-P 1'
loop_
_symmetry_equiv_pos_site_id
_symmetry_equiv_pos_as_xyz
1 x,y,z
2 -x,-y,-z
_cell_length_a                   5.688(2)
_cell_length_b                   8.916(3)
_cell_length_c                   13.176(5)
_cell_angle_alpha                71.365(5)
_cell_angle_beta                 82.003(5)
_cell_angle_gamma                88.528(6)
_cell_volume                     626.896
loop_
_atom_site_label
_atom_site_type_symbol
_atom_site_fract_x
_atom_site_fract_y
_atom_site_fract_z
Cd1 Cd 0.5000 0.0000 1.0000
S1 S 0.22336(11) 0.20292(7) 1.07512(5)
O1 O 0.0697(3) 0.28251(18) 0.49308(12)
N1 N 0.4446(3) 0.1591(2) 0.81440(15)
N2 N 0.4015(4) 0.3510(2) 0.60285(16)
N3 N -0.0794(4) 0.0766(2) 0.63062(16)
N4 N -0.2097(4) 0.0951(2) 0.54388(16)
N5 N -0.0538(4) 0.4081(2) 0.29014(17)
N6 N -0.4297(4) 0.2741(3) 0.2291(2)
N7 N -0.1774(3) 0.1587(2) 0.98589(17)
C1 C 0.5850(4) 0.2868(3) 0.76240(19)
H1 H 0.7008 0.3130 0.7976
C2 C 0.5631(5) 0.3807(3) 0.6583(2)
H2 H 0.6649 0.4679 0.6258
C3 C 0.2608(4) 0.2237(3) 0.65507(18)
C4 C 0.2814(4) 0.1280(3) 0.75982(18)
H3 H 0.1797 0.0407 0.7924
C5 C 0.0795(4) 0.1884(3) 0.59652(17)
C6 C -0.1154(4) 0.2164(3) 0.46647(18)
C7 C -0.1814(4) 0.2844(3) 0.35743(18)
C8 C -0.3684(5) 0.2173(3) 0.3281(2)
H4 H -0.4524 0.1311 0.3786
C9 C -0.3035(5) 0.3975(3) 0.1619(2)
H5 H -0.3415 0.4417 0.0922
C10 C -0.1185(5) 0.4629(3) 0.1912(2)
H6 H -0.0348 0.5488 0.1403
C11 C -0.0093(4) 0.1760(3) 1.02144(17)
Cd1_2 Cd -0.5000 0.0000 1.0000
Cd1_3 Cd 1.5000 0.0000 1.0000
S1A S 0.77664(11) -0.20292(7) 0.92488(5)
O1A O 0.9303(3) -0.28251(18) 1.50692(12)
N1A N 0.5554(3) -0.1591(2) 1.18560(15)
N2A N 0.5985(4) -0.3510(2) 1.39715(16)
N3A N 1.0794(4) -0.0766(2) 1.36938(16)
N4A N 1.2097(4) -0.0951(2) 1.45612(16)
N5A N 1.0538(4) -0.4081(2) 1.70986(17)
N6A N 1.4297(4) -0.2741(3) 1.7709(2)
N7A N 1.1774(3) -0.1587(2) 1.01411(17)
N7_2 N 0.8226(3) 0.1587(2) 0.98589(17)
N7A_2 N 0.1774(3) -0.1587(2) 1.01411(17)
C1A C 0.4150(4) -0.2868(3) 1.23760(19)
H1A H 0.2992 -0.3130 1.2024
C2A C 0.4369(5) -0.3807(3) 1.3417(2)
H2A H 0.3351 -0.4679 1.3742
C3A C 0.7392(4) -0.2237(3) 1.34493(18)
C4A C 0.7186(4) -0.1280(3) 1.24018(18)
H3A H 0.8203 -0.0407 1.2076
C5A C 0.9205(4) -0.1884(3) 1.40348(17)
C6A C 1.1154(4) -0.2164(3) 1.53353(18)
C7A C 1.1814(4) -0.2844(3) 1.64257(18)
C8A C 1.3684(5) -0.2173(3) 1.6719(2)
H4A H 1.4524 -0.1311 1.6214
C9A C 1.3035(5) -0.3975(3) 1.8381(2)
H5A H 1.3415 -0.4417 1.9078
C10A C 1.1185(5) -0.4629(3) 1.8088(2)
H6A H 1.0348 -0.5488 1.8597
C11A C 1.0093(4) -0.1760(3) 0.97856(17)
loop_
_geom_bond_atom_site_label_1
_geom_bond_atom_site_label_2
_geom_bond_site_symmetry_1
_geom_bond_site_symmetry_2
Cd1 S1 1_555 1_555
S1 C11 1_555 1_555
O1 C5 1_555 1_555
N1 Cd1 1_555 1_555
N2 C2 1_555 1_555
N3 N4 1_555 1_555
N4 C6 1_555 1_555
N5 C7 1_555 1_555
N6 C8 1_555 1_555
N7 C11 1_555 1_555
C1 N1 1_555 1_555
H1 C1 1_555 1_555
C2 C1 1_555 1_555
H2 C2 1_555 1_555
C3 N2 1_555 1_555
C4 N1 1_555 1_555
H3 C4 1_555 1_555
C5 N3 1_555 1_555
C6 O1 1_555 1_555
C7 C6 1_555 1_555
C8 C7 1_555 1_555
H4 C8 1_555 1_555
C9 N6 1_555 1_555
H5 C9 1_555 1_555
C10 N5 1_555 1_555
H6 C10 1_555 1_555
Cd1_2 N7 1_555 1_555
Cd1_3 N7A 1_555 1_555
S1A Cd1 1_555 1_555
O1A C5A 1_555 1_555
N1A Cd1 1_555 1_555
N2A C2A 1_555 1_555
N3A N4A 1_555 1_555
N4A C6A 1_555 1_555
N5A C7A 1_555 1_555
N6A C8A 1_555 1_555
N7A C11A 1_555 1_555
N7_2 Cd1 1_555 1_555
N7A_2 Cd1 1_555 1_555
C1A N1A 1_555 1_555
H1A C1A 1_555 1_555
C2A C1A 1_555 1_555
H2A C2A 1_555 1_555
C3A N2A 1_555 1_555
C4A N1A 1_555 1_555
H3A C4A 1_555 1_555
C5A N3A 1_555 1_555
C6A O1A 1_555 1_555
C7A C6A 1_555 1_555
C8A C7A 1_555 1_555
H4A C8A 1_555 1_555
C9A N6A 1_555 1_555
H5A C9A 1_555 1_555
C10A N5A 1_555 1_555
H6A C10A 1_555 1_555
C11A S1A 1_555 1_555
C3 C4 1_555 1_555
C3 C5 1_555 1_555
C9 C10 1_555 1_555
C3A C4A 1_555 1_555
C3A C5A 1_555 1_555
C9A C10A 1_555 1_555

#END
