
#######################################################################
#
#                 Cambridge Crystallographic Data Centre
#                                CCDC 
#
#######################################################################
#
# If this CIF has been generated from an entry in the Cambridge 
# Structural Database, then it will include bibliographic, chemical, 
# crystal, experimental, refinement or atomic coordinate data resulting 
# from the CCDC's data processing and validation procedures.
#
#######################################################################

data_CEHCIC
_symmetry_cell_setting           monoclinic
_symmetry_space_group_name_H-M   'P 21/n'
_symmetry_Int_Tables_number      14
_space_group_name_Hall           '-P 2yn'
loop_
_symmetry_equiv_pos_site_id
_symmetry_equiv_pos_as_xyz
1 x,y,z
2 1/2-x,1/2+y,1/2-z
3 -x,-y,-z
4 1/2+x,1/2-y,1/2+z
_cell_length_a                   7.5827(9)
_cell_length_b                   21.9042(19)
_cell_length_c                   11.2062(17)
_cell_angle_alpha                90
_cell_angle_beta                 108.499(5)
_cell_angle_gamma                90
_cell_volume                     1765.1
loop_
_atom_site_label
_atom_site_type_symbol
_atom_site_fract_x
_atom_site_fract_y
_atom_site_fract_z
Cd1 Cd 0.20660(3) 0.030860(10) 0.14902(2)
N1 N 0.1513(4) -0.03554(13) 0.3017(3)
N2 N 0.3129(4) 0.07672(14) 0.3531(2)
C1 C 0.2057(4) -0.01568(17) 0.4226(3)
C2 C 0.6071(5) 0.17349(14) -0.0237(3)
C3 C 0.2931(4) 0.04329(17) 0.4500(3)
O1 O 0.4492(4) 0.08253(14) 0.1030(3)
C4 C 0.4201(5) 0.17007(15) -0.0292(3)
C5 C 0.3477(5) 0.12403(18) 0.0436(3)
C6 C 0.0707(5) -0.08956(18) 0.2764(4)
H1 H 0.0306 -0.1033 0.1916
C7 C 0.3247(6) 0.0274(2) 0.6720(4)
H2 H 0.3666 0.0416 0.7565
C8 C 0.6540(6) 0.21595(17) -0.1013(4)
H3 H 0.7800 0.2191 -0.0990
O2 O 0.1813(4) 0.12709(17) 0.0393(3)
C9 C 0.2923(6) 0.20969(18) -0.1093(4)
H4 H 0.1663 0.2083 -0.1110
C10 C 0.0955(6) -0.1076(2) 0.4899(4)
H5 H 0.0752 -0.1325 0.5537
C11 C 0.4410(6) 0.1210(2) 0.5990(4)
H6 H 0.4853 0.1364 0.6824
C12 C 0.2389(6) -0.0268(2) 0.6459(4)
H7 H 0.2168 -0.0496 0.7118
C13 C 0.3538(5) 0.0640(2) 0.5756(3)
C14 C 0.1801(5) -0.0510(2) 0.5209(3)
C15 C 0.3420(6) 0.25059(18) -0.1855(4)
H8 H 0.2514 0.2764 -0.2404
C16 C 0.4625(6) 0.1543(2) 0.5020(5)
H9 H 0.5213 0.1931 0.5169
C17 C 0.5227(7) 0.25366(18) -0.1815(4)
H10 H 0.5590 0.2818 -0.2339
C18 C 0.3959(6) 0.13029(19) 0.3791(4)
H11 H 0.4115 0.1537 0.3118
C19 C 0.0417(6) -0.1275(2) 0.3689(4)
H12 H -0.0145 -0.1664 0.3475
C20 C 0.7588(5) 0.13389(15) 0.0599(3)
H13 H 0.8789 0.1555 0.0764
H14 H 0.7361 0.1288 0.1415
C21 C 0.7768(4) 0.07160(15) 0.0083(3)
O3 O 0.8894(4) 0.03389(11) 0.0770(3)
O4 O 0.6829(4) 0.05963(12) -0.1026(2)
Cd1_2 Cd 1.20660(3) 0.030860(10) 0.14902(2)
Cd1B Cd 0.79340(3) -0.030860(10) -0.14902(2)
O3_2 O -0.1106(4) 0.03389(11) 0.0770(3)
O4B O 0.3171(4) -0.05963(12) 0.1026(2)
loop_
_geom_bond_atom_site_label_1
_geom_bond_atom_site_label_2
_geom_bond_site_symmetry_1
_geom_bond_site_symmetry_2
Cd1 N1 1_555 1_555
N1 C1 1_555 1_555
N2 Cd1 1_555 1_555
C1 C3 1_555 1_555
C2 C4 1_555 1_555
C3 N2 1_555 1_555
O1 Cd1 1_555 1_555
C4 C5 1_555 1_555
C5 O1 1_555 1_555
C6 N1 1_555 1_555
H1 C6 1_555 1_555
C7 H2 1_555 1_555
C8 C2 1_555 1_555
H3 C8 1_555 1_555
O2 Cd1 1_555 1_555
C9 C4 1_555 1_555
H4 C9 1_555 1_555
C10 H5 1_555 1_555
C11 H6 1_555 1_555
C12 C7 1_555 1_555
H7 C12 1_555 1_555
C13 C3 1_555 1_555
C14 C1 1_555 1_555
C15 C9 1_555 1_555
H8 C15 1_555 1_555
C16 C11 1_555 1_555
H9 C16 1_555 1_555
C17 C8 1_555 1_555
H10 C17 1_555 1_555
C18 N2 1_555 1_555
H11 C18 1_555 1_555
C19 C6 1_555 1_555
H12 C19 1_555 1_555
C20 C2 1_555 1_555
H13 C20 1_555 1_555
H14 C20 1_555 1_555
C21 C20 1_555 1_555
O3 C21 1_555 1_555
O4 C21 1_555 1_555
Cd1_2 O3 1_555 1_555
Cd1B O4 1_555 1_555
O3_2 Cd1 1_555 1_555
O4B Cd1 1_555 1_555
C5 O2 1_555 1_555
C7 C13 1_555 1_555
C10 C14 1_555 1_555
C10 C19 1_555 1_555
C11 C13 1_555 1_555
C12 C14 1_555 1_555
C15 C17 1_555 1_555
C16 C18 1_555 1_555

#END
