
#######################################################################
#
#                 Cambridge Crystallographic Data Centre
#                                CCDC 
#
#######################################################################
#
# If this CIF has been generated from an entry in the Cambridge 
# Structural Database, then it will include bibliographic, chemical, 
# crystal, experimental, refinement or atomic coordinate data resulting 
# from the CCDC's data processing and validation procedures.
#
#######################################################################

data_CEHFUR
_symmetry_cell_setting           orthorhombic
_symmetry_space_group_name_H-M   'P b c a'
_symmetry_Int_Tables_number      61
_space_group_name_Hall           '-P 2ac 2ab'
loop_
_symmetry_equiv_pos_site_id
_symmetry_equiv_pos_as_xyz
1 x,y,z
2 1/2-x,-y,1/2+z
3 -x,1/2+y,1/2-z
4 1/2+x,1/2-y,-z
5 -x,-y,-z
6 1/2+x,y,1/2-z
7 x,1/2-y,1/2+z
8 1/2-x,1/2+y,z
_cell_length_a                   19.6319(3)
_cell_length_b                   13.6365(3)
_cell_length_c                   23.4334(4)
_cell_angle_alpha                90
_cell_angle_beta                 90
_cell_angle_gamma                90
_cell_volume                     6273.36
loop_
_atom_site_label
_atom_site_type_symbol
_atom_site_fract_x
_atom_site_fract_y
_atom_site_fract_z
C1 C 0.18163(15) 0.7514(2) 0.17947(12)
C2 C 0.11659(15) 0.7362(2) 0.21212(12)
C3 C 0.05500(15) 0.7483(2) 0.18347(13)
H1 H 0.0552 0.7684 0.1456
C4 C -0.00659(16) 0.7307(3) 0.21068(15)
H2 H -0.0474 0.7391 0.1911
C5 C -0.00705(16) 0.7007(2) 0.26717(14)
H3 H -0.0482 0.6890 0.2856
C6 C 0.05396(15) 0.6883(2) 0.29629(13)
H4 H 0.0533 0.6678 0.3341
C7 C 0.11615(15) 0.7061(2) 0.26944(12)
C8 C 0.17953(15) 0.6945(2) 0.30520(12)
C9 C 0.41625(15) 0.7477(2) 0.06731(12)
C10 C 0.46316(15) 0.7995(2) 0.02644(13)
C11 C 0.53062(16) 0.8130(3) 0.04380(15)
H5 H 0.5452 0.7867 0.0783
C12 C 0.57564(17) 0.8645(3) 0.01045(17)
H6 H 0.6202 0.8736 0.0228
C13 C 0.55500(17) 0.9029(3) -0.04141(16)
H7 H 0.5857 0.9369 -0.0643
C14 C 0.48788(16) 0.8901(3) -0.05903(14)
H8 H 0.4738 0.9164 -0.0937
C15 C 0.44170(15) 0.8385(2) -0.02562(13)
C16 C 0.37171(16) 0.8207(3) -0.05093(12)
C17 C 0.27582(16) 0.6118(2) 0.03891(13)
H9 H 0.3005 0.6526 0.0147
C18 C 0.21070(15) 0.4910(2) 0.06919(13)
H10 H 0.1831 0.4356 0.0700
C19 C 0.23203(15) 0.5449(2) 0.11414(13)
H11 H 0.2209 0.5325 0.1520
C20 C 0.31757(15) 0.8775(2) 0.23274(13)
H12 H 0.2793 0.8522 0.2510
C21 C 0.40550(15) 0.9714(2) 0.21292(13)
H13 H 0.4379 1.0211 0.2146
C22 C 0.40101(15) 0.8997(2) 0.17339(13)
H14 H 0.4307 0.8913 0.1429
C23 C 0.20103(19) 0.6636(3) 0.49126(15)
H15 H 0.2379 0.7017 0.5026
C24 C 0.1044(2) 0.5881(5) 0.49216(18)
H16 H 0.0623 0.5639 0.5039
C25 C 0.13220(18) 0.5764(3) 0.44071(15)
H17 H 0.1129 0.5419 0.4105
C26 C 0.32920(16) 0.5565(2) 0.26800(14)
H18 H 0.2989 0.5954 0.2475
C27 C 0.41206(16) 0.4541(2) 0.28762(15)
H19 H 0.4485 0.4110 0.2839
C28 C 0.38190(16) 0.4833(2) 0.33680(15)
H20 H 0.3942 0.4627 0.3732
Cu1 Cu 0.304025(17) 0.73664(3) 0.137390(15)
Cu2 Cu 0.263710(19) 0.59995(3) 0.380463(16)
N1 N 0.27290(12) 0.62104(19) 0.09542(11)
N2 N 0.23846(14) 0.5358(2) 0.02198(12)
H21 H 0.2326 0.5176 -0.0128
N3 N 0.34517(12) 0.84042(19) 0.18537(10)
N4 N 0.35236(13) 0.9559(2) 0.25030(11)
H22 H 0.3432 0.9907 0.2799
N5 N 0.19404(13) 0.6237(2) 0.43948(11)
N6 N 0.14836(17) 0.6416(4) 0.52447(15)
H23 H 0.1431 0.6580 0.5596
N7 N 0.32999(13) 0.5485(2) 0.32439(11)
N8 N 0.37813(13) 0.5009(2) 0.24462(12)
H24 H 0.3867 0.4956 0.2088
O1 O 0.23519(10) 0.70792(16) 0.19797(8)
O2 O 0.18215(12) 0.8032(2) 0.13569(10)
O3 O 0.35525(10) 0.78159(16) 0.07025(8)
O4 O 0.43841(12) 0.68148(19) 0.09812(10)
O5 O 0.19210(11) 0.60611(16) 0.32160(9)
O6 O 0.21334(11) 0.76681(17) 0.31966(9)
O7 O 0.33733(11) 0.89766(18) -0.06230(9)
O8 O 0.35475(12) 0.73514(18) -0.06222(10)
Cu2F Cu 0.263710(19) 0.90005(3) -0.119537(16)
O7F O 0.33733(11) 0.60234(18) 0.43770(9)
O9 O 0.74161(13) 0.41083(18) 0.10284(10)
O10 O 0.42323(16) 0.4878(2) 0.13214(11)
O11 O 0.4726(2) 0.8862(4) 0.4327(2)
O12? O 0.4394(7) 0.8972(10) 0.3760(6)
loop_
_geom_bond_atom_site_label_1
_geom_bond_atom_site_label_2
_geom_bond_site_symmetry_1
_geom_bond_site_symmetry_2
C1 C2 1_555 1_555
C2 C3 1_555 1_555
C3 H1 1_555 1_555
C4 C3 1_555 1_555
H2 C4 1_555 1_555
C5 C4 1_555 1_555
H3 C5 1_555 1_555
C6 C5 1_555 1_555
H4 C6 1_555 1_555
C7 C2 1_555 1_555
C8 C7 1_555 1_555
C9 C10 1_555 1_555
C10 C11 1_555 1_555
C11 H5 1_555 1_555
C12 C11 1_555 1_555
H6 C12 1_555 1_555
C13 C12 1_555 1_555
H7 C13 1_555 1_555
C14 C13 1_555 1_555
H8 C14 1_555 1_555
C15 C10 1_555 1_555
C16 C15 1_555 1_555
C17 H9 1_555 1_555
C18 H10 1_555 1_555
C19 C18 1_555 1_555
H11 C19 1_555 1_555
C20 H12 1_555 1_555
C21 H13 1_555 1_555
C22 C21 1_555 1_555
H14 C22 1_555 1_555
C23 H15 1_555 1_555
C24 H16 1_555 1_555
C25 C24 1_555 1_555
H17 C25 1_555 1_555
C26 H18 1_555 1_555
C27 H19 1_555 1_555
C28 C27 1_555 1_555
H20 C28 1_555 1_555
Cu1 N1 1_555 1_555
Cu2 N5 1_555 1_555
N1 C17 1_555 1_555
N2 C17 1_555 1_555
H21 N2 1_555 1_555
N3 C20 1_555 1_555
N4 C20 1_555 1_555
H22 N4 1_555 1_555
N5 C23 1_555 1_555
N6 C23 1_555 1_555
H23 N6 1_555 1_555
N7 C26 1_555 1_555
N8 C26 1_555 1_555
H24 N8 1_555 1_555
O1 C1 1_555 1_555
O2 C1 1_555 1_555
O3 C9 1_555 1_555
O4 C9 1_555 1_555
O5 C8 1_555 1_555
O6 C8 1_555 1_555
O7 C16 1_555 1_555
O8 C16 1_555 1_555
Cu2F O7 1_555 1_555
O7F Cu2 1_555 1_555
C6 C7 1_555 1_555
C14 C15 1_555 1_555
C18 N2 1_555 1_555
C19 N1 1_555 1_555
C21 N4 1_555 1_555
C22 N3 1_555 1_555
C24 N6 1_555 1_555
C25 N5 1_555 1_555
C27 N8 1_555 1_555
C28 N7 1_555 1_555
Cu1 N3 1_555 1_555
Cu1 O1 1_555 1_555
Cu1 O2 1_555 1_555
Cu1 O3 1_555 1_555
Cu2 N7 1_555 1_555
Cu2 O5 1_555 1_555

#END
