
#######################################################################
#
#                 Cambridge Crystallographic Data Centre
#                                CCDC 
#
#######################################################################
#
# If this CIF has been generated from an entry in the Cambridge 
# Structural Database, then it will include bibliographic, chemical, 
# crystal, experimental, refinement or atomic coordinate data resulting 
# from the CCDC's data processing and validation procedures.
#
#######################################################################

data_CEHNEJ
_symmetry_cell_setting           triclinic
_symmetry_space_group_name_H-M   'P -1'
_symmetry_Int_Tables_number      2
_space_group_name_Hall           '-P 1'
loop_
_symmetry_equiv_pos_site_id
_symmetry_equiv_pos_as_xyz
1 x,y,z
2 -x,-y,-z
_cell_length_a                   11.5400(2)
_cell_length_b                   14.9643(2)
_cell_length_c                   21.4525(4)
_cell_angle_alpha                109.435(1)
_cell_angle_beta                 89.949(1)
_cell_angle_gamma                112.812(2)
_cell_volume                     3185.08
loop_
_atom_site_label
_atom_site_type_symbol
_atom_site_fract_x
_atom_site_fract_y
_atom_site_fract_z
C1 C 0.0777(7) -0.7002(5) 0.1418(3)
H1 H 0.0013 -0.7095 0.1150
H2 H 0.1423 -0.7045 0.1119
C2 C -0.0634(6) -0.8665(5) 0.1538(3)
H3 H -0.1330 -0.8812 0.1227
C3 C 0.0539(6) -0.8764(5) 0.2263(4)
H4 H 0.0826 -0.9003 0.2565
C4 C 0.1219(6) -0.7883(6) 0.2160(4)
H5 H 0.2056 -0.7395 0.2366
C5 C -0.4218(6) -1.2219(5) 0.1009(4)
H6 H -0.4100 -1.2742 0.1125
C6 C -0.6137(7) -1.3427(6) 0.0138(4)
H7 H -0.5895 -1.3985 0.0162
H8 H -0.6213 -1.3486 -0.0335
C7 C -0.5004(7) -1.1465(6) 0.0520(4)
H9 H -0.5519 -1.1352 0.0234
C8 C -0.3997(6) -1.0729(6) 0.0985(3)
H10 H -0.3685 -1.0001 0.1086
C9 C -0.2667(6) -1.0690(5) 0.3249(3)
H11 H -0.3134 -1.1421 0.3053
C10 C -0.1763(6) -0.9111(6) 0.3997(3)
H12 H -0.1465 -0.8539 0.4410
C11 C -0.1577(7) -0.9084(5) 0.3380(3)
H13 H -0.1139 -0.8474 0.3282
C12 C -0.2971(7) -1.0537(6) 0.4430(4)
H14 H -0.2272 -1.0269 0.4800
H15 H -0.3284 -1.1303 0.4245
C13 C -0.4025(6) -1.0252(5) 0.4706(3)
C14 C -0.4250(7) -0.9424(6) 0.4663(4)
H16 H -0.3740 -0.9024 0.4424
C15 C -0.4801(7) -1.0831(6) 0.5038(4)
H17 H -0.4687 -1.1415 0.5065
C16 C -1.1413(6) -1.2448(5) 0.1347(3)
H18 H -1.1770 -1.2585 0.0909
C17 C -1.0559(7) -1.2622(6) 0.2191(4)
H19 H -1.0212 -1.2888 0.2452
C18 C -1.0701(7) -1.1718(6) 0.2402(4)
H20 H -1.0470 -1.1232 0.2848
C19 C -1.1018(8) -1.4067(6) 0.1055(4)
H21 H -1.1682 -1.4366 0.0662
H22 H -1.1213 -1.4572 0.1285
C20 C -0.9742(7) -1.3882(5) 0.0827(4)
C21 C -0.9520(7) -1.3678(5) 0.0236(4)
H23 H -1.0170 -1.3646 -0.0016
C22 C -0.8357(7) -1.3524(5) 0.0022(3)
H24 H -0.8211 -1.3377 -0.0376
C23 C -0.7397(6) -1.3578(5) 0.0376(3)
C24 C -0.7626(7) -1.3777(6) 0.0965(4)
H25 H -0.6977 -1.3805 0.1221
C25 C -0.8790(7) -1.3933(6) 0.1178(4)
H26 H -0.8936 -1.4078 0.1577
C26 C 0.1285(7) -0.5956(5) 0.1969(3)
C27 C 0.0476(7) -0.5481(5) 0.2240(4)
H27 H -0.0402 -0.5808 0.2066
C28 C 0.0961(6) -0.4530(5) 0.2764(4)
H28 H 0.0414 -0.4199 0.2941
C29 C 0.2228(7) -0.4061(5) 0.3030(3)
C30 C 0.3031(7) -0.4537(6) 0.2772(4)
H29 H 0.3899 -0.4230 0.2962
C31 C 0.2543(7) -0.5476(6) 0.2226(4)
H30 H 0.3098 -0.5787 0.2030
C32 C 0.2790(8) -0.3001(5) 0.3587(3)
H31 H 0.2130 -0.2900 0.3861
H32 H 0.3484 -0.2964 0.3879
C33 C 0.3034(6) -0.1334(5) 0.3461(3)
H33 H 0.2484 -0.1185 0.3770
C34 C 0.4311(7) -0.1236(5) 0.2741(4)
H34 H 0.4838 -0.0995 0.2441
C35 C 0.4105(7) -0.2125(6) 0.2848(4)
H35 H 0.4455 -0.2614 0.2647
C36 C 0.2987(6) 0.2208(6) 0.3991(4)
H36 H 0.3631 0.2729 0.3877
C37 C 0.2274(8) 0.3423(6) 0.4861(4)
H37 H 0.3072 0.3979 0.4838
H38 H 0.2254 0.3480 0.5333
C38 C 0.1721(6) 0.0730(6) 0.4012(3)
H39 H 0.1301 0.0001 0.3908
C39 C 0.3023(6) 0.0694(5) 0.1753(3)
H40 H 0.3287 0.1425 0.1947
C40 C 0.2361(7) -0.0882(6) 0.1003(3)
H41 H 0.2091 -0.1450 0.0589
C41 C 0.2520(7) -0.0922(5) 0.1623(3)
H42 H 0.2359 -0.1533 0.1718
C42 C 0.2571(6) 0.0545(6) 0.0579(3)
H43 H 0.3013 0.0287 0.0211
H44 H 0.3014 0.1312 0.0768
C43 C 0.1227(6) 0.0252(5) 0.0295(3)
C44 C 0.0180(7) -0.0568(6) 0.0343(4)
H45 H 0.0293 -0.0966 0.0585
C45 C 0.1028(6) 0.0825(6) -0.0046(3)
H46 H 0.1724 0.1402 -0.0079
C46 C -0.3972(6) 0.2447(5) 0.3654(3)
H47 H -0.4193 0.2589 0.4092
C47 C -0.2958(7) 0.2616(6) 0.2809(4)
H48 H -0.2354 0.2883 0.2545
C48 C -0.3992(6) 0.1711(6) 0.2602(4)
H49 H -0.4244 0.1223 0.2157
C49 C -0.1981(7) 0.4063(6) 0.3946(4)
H50 H -0.2353 0.4355 0.4338
H51 H -0.1679 0.4570 0.3718
C50 C -0.0877(7) 0.3885(5) 0.4177(4)
C51 C 0.0123(7) 0.3933(6) 0.3824(4)
H52 H 0.0116 0.4077 0.3425
C52 C 0.1139(7) 0.3778(6) 0.4034(4)
H53 H 0.1817 0.3810 0.3779
C53 C 0.1165(6) 0.3577(5) 0.4621(3)
C54 C 0.0160(7) 0.3525(5) 0.4982(3)
H54 H 0.0168 0.3382 0.5381
C55 C -0.0859(7) 0.3680(5) 0.4764(4)
H55 H -0.1543 0.3645 0.5016
N1 N 0.0449(5) -0.7838(4) 0.1696(3)
N2 N -0.0617(5) -0.9269(4) 0.1875(3)
N3 N -0.3501(5) -1.1217(4) 0.1288(3)
N4 N -0.5129(5) -1.2402(4) 0.0544(3)
N5 N -0.2123(5) -1.0079(4) 0.2915(3)
N6 N -0.2467(5) -1.0130(4) 0.3906(3)
N7 N -1.1236(5) -1.1607(4) 0.1868(3)
N8 N -1.1025(5) -1.3081(4) 0.1514(3)
N9 N 0.3290(5) -0.2168(4) 0.3305(3)
N10 N 0.3647(5) -0.0741(4) 0.3129(3)
N11 N 0.2702(5) 0.1208(4) 0.3714(3)
N12 N 0.2256(6) 0.2395(5) 0.4454(3)
C56 C 0.1449(7) 0.1456(6) 0.4476(4)
H56 H 0.0823 0.1341 0.4761
N13 N 0.2951(5) 0.0074(4) 0.2090(3)
N14 N 0.2668(5) 0.0131(4) 0.1098(3)
N15 N -0.4637(5) 0.1597(4) 0.3134(3)
N16 N -0.2955(5) 0.3078(4) 0.3486(3)
Zn1 Zn -0.19321(7) -1.05551(6) 0.19443(4)
Zn2 Zn 0.36182(7) 0.05506(6) 0.30608(4)
C1_2 C 1.0777(7) -0.7002(5) 0.1418(3)
H1_2 H 1.0013 -0.7095 0.1150
H2_2 H 1.1423 -0.7045 0.1119
C2_2 C 0.9366(6) -0.8665(5) 0.1538(3)
H3_2 H 0.8670 -0.8812 0.1227
C3_2 C 1.0539(6) -0.8764(5) 0.2263(4)
H4_2 H 1.0826 -0.9003 0.2565
C4_2 C 1.1219(6) -0.7883(6) 0.2160(4)
H5_2 H 1.2056 -0.7395 0.2366
C5_2 C 0.5782(6) -1.2219(5) 0.1009(4)
H6_2 H 0.5900 -1.2742 0.1125
C6_2 C 0.3863(7) -1.3427(6) 0.0138(4)
H7_2 H 0.4105 -1.3985 0.0162
H8_2 H 0.3787 -1.3486 -0.0335
C7_2 C 0.4996(7) -1.1465(6) 0.0520(4)
H9_2 H 0.4481 -1.1352 0.0234
C8_2 C 0.6003(6) -1.0729(6) 0.0985(3)
H10_2 H 0.6315 -1.0001 0.1086
C9A C -0.7333(6) -0.9310(5) 0.6751(3)
H11A H -0.6866 -0.8579 0.6947
C10A C -0.8237(6) -1.0889(6) 0.6003(3)
H12A H -0.8535 -1.1461 0.5590
C11A C -0.8423(7) -1.0916(5) 0.6620(3)
H13A H -0.8861 -1.1526 0.6718
C12A C -0.7029(7) -0.9463(6) 0.5570(4)
H14A H -0.7728 -0.9731 0.5200
H15A H -0.6716 -0.8697 0.5755
C13A C -0.5975(6) -0.9748(5) 0.5294(3)
C14A C -0.5750(7) -1.0576(6) 0.5337(4)
H16A H -0.6260 -1.0976 0.5576
C15A C -0.5199(7) -0.9169(6) 0.4962(4)
H17A H -0.5313 -0.8585 0.4935
C16_2 C -0.1413(6) -1.2448(5) 0.1347(3)
H18_2 H -0.1770 -1.2585 0.0909
C17_2 C -0.0559(7) -1.2622(6) 0.2191(4)
H19_2 H -0.0212 -1.2888 0.2452
C18_2 C -0.0701(7) -1.1718(6) 0.2402(4)
H20_2 H -0.0470 -1.1232 0.2848
C19_2 C -0.1018(8) -1.4067(6) 0.1055(4)
H21_2 H -0.1682 -1.4366 0.0662
H22_2 H -0.1213 -1.4572 0.1285
C20_2 C 0.0258(7) -1.3882(5) 0.0827(4)
C21_2 C 0.0480(7) -1.3678(5) 0.0236(4)
H23_2 H -0.0170 -1.3646 -0.0016
C22_2 C 0.1643(7) -1.3524(5) 0.0022(3)
H24_2 H 0.1789 -1.3377 -0.0376
C23_2 C 0.2603(6) -1.3578(5) 0.0376(3)
C24_2 C 0.2374(7) -1.3777(6) 0.0965(4)
H25_2 H 0.3023 -1.3805 0.1221
C25_2 C 0.1210(7) -1.3933(6) 0.1178(4)
H26_2 H 0.1064 -1.4078 0.1577
C26_2 C 1.1285(7) -0.5956(5) 0.1969(3)
C27_2 C 1.0476(7) -0.5481(5) 0.2240(4)
H27_2 H 0.9598 -0.5808 0.2066
C28_2 C 1.0961(6) -0.4530(5) 0.2764(4)
H28_2 H 1.0414 -0.4199 0.2941
C29_2 C 1.2228(7) -0.4061(5) 0.3030(3)
C30_2 C 1.3031(7) -0.4537(6) 0.2772(4)
H29_2 H 1.3899 -0.4230 0.2962
C31_2 C 1.2543(7) -0.5476(6) 0.2226(4)
H30_2 H 1.3098 -0.5787 0.2030
C32_2 C 1.2790(8) -0.3001(5) 0.3587(3)
H31_2 H 1.2130 -0.2900 0.3861
H32_2 H 1.3484 -0.2964 0.3879
C33_2 C 1.3034(6) -0.1334(5) 0.3461(3)
H33_2 H 1.2484 -0.1185 0.3770
C34_2 C 1.4311(7) -0.1236(5) 0.2741(4)
H34_2 H 1.4838 -0.0995 0.2441
C35_2 C 1.4105(7) -0.2125(6) 0.2848(4)
H35_2 H 1.4455 -0.2614 0.2647
C36_2 C 1.2987(6) 0.2208(6) 0.3991(4)
H36_2 H 1.3631 0.2729 0.3877
C37_2 C 1.2274(8) 0.3423(6) 0.4861(4)
H37_2 H 1.3072 0.3979 0.4838
H38_2 H 1.2254 0.3480 0.5333
C38_2 C 1.1721(6) 0.0730(6) 0.4012(3)
H39_2 H 1.1301 0.0001 0.3908
C39A C -0.3023(6) -0.0694(5) -0.1753(3)
H40A H -0.3287 -0.1425 -0.1947
C40A C -0.2361(7) 0.0882(6) -0.1003(3)
H41A H -0.2091 0.1450 -0.0589
C41A C -0.2520(7) 0.0922(5) -0.1623(3)
H42A H -0.2359 0.1533 -0.1718
C42A C -0.2571(6) -0.0545(6) -0.0579(3)
H43A H -0.3013 -0.0287 -0.0211
H44A H -0.3014 -0.1312 -0.0768
C43A C -0.1227(6) -0.0252(5) -0.0295(3)
C44A C -0.0180(7) 0.0568(6) -0.0343(4)
H45A H -0.0293 0.0966 -0.0585
C45A C -0.1028(6) -0.0825(6) 0.0046(3)
H46A H -0.1724 -0.1402 0.0079
C46_2 C 0.6028(6) 0.2447(5) 0.3654(3)
H47_2 H 0.5807 0.2589 0.4092
C47_2 C 0.7042(7) 0.2616(6) 0.2809(4)
H48_2 H 0.7646 0.2883 0.2545
C48_2 C 0.6008(6) 0.1711(6) 0.2602(4)
H49_2 H 0.5756 0.1223 0.2157
C49_2 C 0.8019(7) 0.4063(6) 0.3946(4)
H50_2 H 0.7647 0.4355 0.4338
H51_2 H 0.8321 0.4570 0.3718
C50_2 C 0.9123(7) 0.3885(5) 0.4177(4)
C51_2 C 1.0123(7) 0.3933(6) 0.3824(4)
H52_2 H 1.0116 0.4077 0.3425
C52_2 C 1.1139(7) 0.3778(6) 0.4034(4)
H53_2 H 1.1817 0.3810 0.3779
C53_2 C 1.1165(6) 0.3577(5) 0.4621(3)
C54_2 C 1.0160(7) 0.3525(5) 0.4982(3)
H54_2 H 1.0168 0.3382 0.5381
C55_2 C 0.9141(7) 0.3680(5) 0.4764(4)
H55_2 H 0.8457 0.3645 0.5016
N1_2 N 1.0449(5) -0.7838(4) 0.1696(3)
N2_2 N 0.9383(5) -0.9269(4) 0.1875(3)
N3_2 N 0.6499(5) -1.1217(4) 0.1288(3)
N4_2 N 0.4871(5) -1.2402(4) 0.0544(3)
N5A N -0.7877(5) -0.9921(4) 0.7085(3)
N5_2 N 0.7877(5) -1.0079(4) 0.2915(3)
N6A N -0.7533(5) -0.9870(4) 0.6094(3)
N7_2 N -0.1236(5) -1.1607(4) 0.1868(3)
N7_3 N 0.8764(5) -1.1607(4) 0.1868(3)
N8_2 N -0.1025(5) -1.3081(4) 0.1514(3)
N9_2 N 1.3290(5) -0.2168(4) 0.3305(3)
N10_2 N 1.3647(5) -0.0741(4) 0.3129(3)
N11_2 N 1.2702(5) 0.1208(4) 0.3714(3)
N12_2 N 1.2256(6) 0.2395(5) 0.4454(3)
C56_2 C 1.1449(7) 0.1456(6) 0.4476(4)
H56_2 H 1.0823 0.1341 0.4761
N13A N -0.2951(5) -0.0074(4) -0.2090(3)
N13_2 N 1.2951(5) 0.0074(4) 0.2090(3)
N14A N -0.2668(5) -0.0131(4) -0.1098(3)
N15_2 N 0.5363(5) 0.1597(4) 0.3134(3)
N15_3 N 1.5363(5) 0.1597(4) 0.3134(3)
N16_2 N 0.7045(5) 0.3078(4) 0.3486(3)
Zn1_2 Zn 0.80679(7) -1.05551(6) 0.19443(4)
Zn1_3 Zn -1.19321(7) -1.05551(6) 0.19443(4)
Zn1A Zn -0.80679(7) -0.94449(6) 0.80557(4)
Zn2_2 Zn 1.36182(7) 0.05506(6) 0.30608(4)
Zn2_3 Zn -0.63818(7) 0.05506(6) 0.30608(4)
Zn2A Zn -0.36182(7) -0.05506(6) -0.30608(4)
N17 N -0.3628(7) -1.3990(6) -0.0573(3)
O1 O -0.3623(7) -1.3267(7) -0.0738(5)
O2 O -0.2792(9) -1.3808(9) -0.0155(4)
O3 O -0.4445(8) -1.4842(7) -0.0864(4)
N18 N 0.5356(6) 0.3997(6) 0.5567(3)
O4 O 0.4645(7) 0.3280(7) 0.5730(5)
O5 O 0.6020(8) 0.3842(9) 0.5159(4)
O6 O 0.5390(9) 0.4851(7) 0.5866(5)
N19 N -0.3140(6) -0.8036(4) 0.0992(3)
O7 O -0.2690(7) -0.8537(5) 0.0584(3)
O8 O -0.4280(6) -0.8417(6) 0.1026(3)
O9 O -0.2492(7) -0.7142(6) 0.1362(3)
N20 N -0.0108(5) -1.1970(5) 0.4010(3)
O10 O -0.0877(7) -1.1589(6) 0.3979(3)
O11 O -0.0379(9) -1.2860(6) 0.3644(3)
O12 O 0.0851(6) -1.1476(6) 0.4410(3)
O13 O 0.4207(6) -0.6592(5) 0.2970(4)
H57 H 0.455(11) -0.600(5) 0.328(5)
H58 H 0.470(10) -0.663(10) 0.269(5)
O14 O -0.4205(7) -1.3426(5) 0.2021(4)
H59 H -0.438(14) -1.398(6) 0.169(4)
H60 H -0.381(13) -1.346(10) 0.234(4)
O15 O 0.3197(7) 0.3406(8) 0.6786(4)
H61 H 0.365(9) 0.309(9) 0.661(6)
H62 H 0.250(7) 0.312(10) 0.653(5)
O16 O -0.5218(9) -1.3418(8) -0.1797(4)
H63 H -0.450(5) -1.308(10) -0.156(6)
H64 H -0.572(9) -1.317(10) -0.160(6)
O17 O -0.2140(7) -0.4998(7) 0.2508(6)
H65 H -0.270(10) -0.516(13) 0.219(4)
H66 H -0.244(12) -0.485(13) 0.287(3)
loop_
_geom_bond_atom_site_label_1
_geom_bond_atom_site_label_2
_geom_bond_site_symmetry_1
_geom_bond_site_symmetry_2
C1 H1 1_555 1_555
H2 C1 1_555 1_555
C2 H3 1_555 1_555
C3 H4 1_555 1_555
C4 C3 1_555 1_555
H5 C4 1_555 1_555
C5 H6 1_555 1_555
C6 H7 1_555 1_555
H8 C6 1_555 1_555
C7 H9 1_555 1_555
C8 C7 1_555 1_555
H10 C8 1_555 1_555
C9 H11 1_555 1_555
C10 H12 1_555 1_555
C11 C10 1_555 1_555
H13 C11 1_555 1_555
C12 H14 1_555 1_555
H15 C12 1_555 1_555
C13 C12 1_555 1_555
C14 C13 1_555 1_555
H16 C14 1_555 1_555
C15 C13 1_555 1_555
H17 C15 1_555 1_555
C16 H18 1_555 1_555
C17 H19 1_555 1_555
C18 C17 1_555 1_555
H20 C18 1_555 1_555
C19 H21 1_555 1_555
H22 C19 1_555 1_555
C20 C19 1_555 1_555
C21 C20 1_555 1_555
H23 C21 1_555 1_555
C22 C21 1_555 1_555
H24 C22 1_555 1_555
C23 C6 1_555 1_555
C24 C23 1_555 1_555
H25 C24 1_555 1_555
C25 C20 1_555 1_555
H26 C25 1_555 1_555
C26 C1 1_555 1_555
C27 C26 1_555 1_555
H27 C27 1_555 1_555
C28 C27 1_555 1_555
H28 C28 1_555 1_555
C29 C28 1_555 1_555
C30 C29 1_555 1_555
H29 C30 1_555 1_555
C31 C26 1_555 1_555
H30 C31 1_555 1_555
C32 C29 1_555 1_555
H31 C32 1_555 1_555
H32 C32 1_555 1_555
C33 H33 1_555 1_555
C34 H34 1_555 1_555
C35 C34 1_555 1_555
H35 C35 1_555 1_555
C36 H36 1_555 1_555
C37 H37 1_555 1_555
H38 C37 1_555 1_555
C38 H39 1_555 1_555
C39 H40 1_555 1_555
C40 H41 1_555 1_555
C41 C40 1_555 1_555
H42 C41 1_555 1_555
C42 H43 1_555 1_555
H44 C42 1_555 1_555
C43 C42 1_555 1_555
C44 C43 1_555 1_555
H45 C44 1_555 1_555
C45 C43 1_555 1_555
H46 C45 1_555 1_555
C46 H47 1_555 1_555
C47 H48 1_555 1_555
C48 C47 1_555 1_555
H49 C48 1_555 1_555
C49 H50 1_555 1_555
H51 C49 1_555 1_555
C50 C49 1_555 1_555
C51 C50 1_555 1_555
H52 C51 1_555 1_555
C52 C51 1_555 1_555
H53 C52 1_555 1_555
C53 C37 1_555 1_555
C54 C53 1_555 1_555
H54 C54 1_555 1_555
C55 C50 1_555 1_555
H55 C55 1_555 1_555
N1 C1 1_555 1_555
N2 C2 1_555 1_555
N3 C5 1_555 1_555
N4 C5 1_555 1_555
N5 C9 1_555 1_555
N6 C9 1_555 1_555
N7 C16 1_555 1_555
N8 C16 1_555 1_555
N9 C32 1_555 1_555
N10 C33 1_555 1_555
N11 C36 1_555 1_555
N12 C36 1_555 1_555
C56 C38 1_555 1_555
H56 C56 1_555 1_555
N13 C39 1_555 1_555
N14 C39 1_555 1_555
N15 C46 1_555 1_555
N16 C46 1_555 1_555
Zn1 N2 1_555 1_555
Zn2 N10 1_555 1_555
N17 O1 1_555 1_555
O2 N17 1_555 1_555
O3 N17 1_555 1_555
N18 O4 1_555 1_555
O5 N18 1_555 1_555
O6 N18 1_555 1_555
N19 O7 1_555 1_555
O8 N19 1_555 1_555
O9 N19 1_555 1_555
N20 O10 1_555 1_555
O11 N20 1_555 1_555
O12 N20 1_555 1_555
O13 H57 1_555 1_555
H58 O13 1_555 1_555
O14 H59 1_555 1_555
H60 O14 1_555 1_555
O15 H61 1_555 1_555
H62 O15 1_555 1_555
O16 H63 1_555 1_555
H64 O16 1_555 1_555
O17 H65 1_555 1_555
H66 O17 1_555 1_555
C1_2 H1_2 1_555 1_555
H2_2 C1_2 1_555 1_555
C2_2 H3_2 1_555 1_555
C3_2 H4_2 1_555 1_555
C4_2 C3_2 1_555 1_555
H5_2 C4_2 1_555 1_555
C5_2 H6_2 1_555 1_555
C6_2 H7_2 1_555 1_555
H8_2 C6_2 1_555 1_555
C7_2 H9_2 1_555 1_555
C8_2 C7_2 1_555 1_555
H10_2 C8_2 1_555 1_555
C9A H11A 1_555 1_555
C10A H12A 1_555 1_555
C11A C10A 1_555 1_555
H13A C11A 1_555 1_555
C12A H14A 1_555 1_555
H15A C12A 1_555 1_555
C13A C12A 1_555 1_555
C14A C15 1_555 1_555
H16A C14A 1_555 1_555
C15A C14 1_555 1_555
H17A C15A 1_555 1_555
C16_2 H18_2 1_555 1_555
C17_2 H19_2 1_555 1_555
C18_2 C17_2 1_555 1_555
H20_2 C18_2 1_555 1_555
C19_2 H21_2 1_555 1_555
H22_2 C19_2 1_555 1_555
C20_2 C19_2 1_555 1_555
C21_2 C20_2 1_555 1_555
H23_2 C21_2 1_555 1_555
C22_2 C21_2 1_555 1_555
H24_2 C22_2 1_555 1_555
C23_2 C6_2 1_555 1_555
C24_2 C23_2 1_555 1_555
H25_2 C24_2 1_555 1_555
C25_2 C20_2 1_555 1_555
H26_2 C25_2 1_555 1_555
C26_2 C1_2 1_555 1_555
C27_2 C26_2 1_555 1_555
H27_2 C27_2 1_555 1_555
C28_2 C27_2 1_555 1_555
H28_2 C28_2 1_555 1_555
C29_2 C28_2 1_555 1_555
C30_2 C29_2 1_555 1_555
H29_2 C30_2 1_555 1_555
C31_2 C26_2 1_555 1_555
H30_2 C31_2 1_555 1_555
C32_2 C29_2 1_555 1_555
H31_2 C32_2 1_555 1_555
H32_2 C32_2 1_555 1_555
C33_2 H33_2 1_555 1_555
C34_2 H34_2 1_555 1_555
C35_2 C34_2 1_555 1_555
H35_2 C35_2 1_555 1_555
C36_2 H36_2 1_555 1_555
C37_2 H37_2 1_555 1_555
H38_2 C37_2 1_555 1_555
C38_2 H39_2 1_555 1_555
C39A H40A 1_555 1_555
C40A H41A 1_555 1_555
C41A C40A 1_555 1_555
H42A C41A 1_555 1_555
C42A H43A 1_555 1_555
H44A C42A 1_555 1_555
C43A C42A 1_555 1_555
C44A C45 1_555 1_555
H45A C44A 1_555 1_555
C45A C44 1_555 1_555
H46A C45A 1_555 1_555
C46_2 H47_2 1_555 1_555
C47_2 H48_2 1_555 1_555
C48_2 C47_2 1_555 1_555
H49_2 C48_2 1_555 1_555
C49_2 H50_2 1_555 1_555
H51_2 C49_2 1_555 1_555
C50_2 C49_2 1_555 1_555
C51_2 C50_2 1_555 1_555
H52_2 C51_2 1_555 1_555
C52_2 C51_2 1_555 1_555
H53_2 C52_2 1_555 1_555
C53_2 C37_2 1_555 1_555
C54_2 C53_2 1_555 1_555
H54_2 C54_2 1_555 1_555
C55_2 C50_2 1_555 1_555
H55_2 C55_2 1_555 1_555
N1_2 C1_2 1_555 1_555
N2_2 C2_2 1_555 1_555
N3_2 C5_2 1_555 1_555
N4_2 C5_2 1_555 1_555
N5A C9A 1_555 1_555
N5_2 Zn1_2 1_555 1_555
N6A C9A 1_555 1_555
N7_2 Zn1 1_555 1_555
N7_3 Zn1_2 1_555 1_555
N8_2 C16_2 1_555 1_555
N9_2 C32_2 1_555 1_555
N10_2 C33_2 1_555 1_555
N11_2 C36_2 1_555 1_555
N12_2 C36_2 1_555 1_555
C56_2 C38_2 1_555 1_555
H56_2 C56_2 1_555 1_555
N13A C39A 1_555 1_555
N13_2 Zn2_2 1_555 1_555
N14A C39A 1_555 1_555
N15_2 Zn2 1_555 1_555
N15_3 Zn2_2 1_555 1_555
N16_2 C46_2 1_555 1_555
Zn1_2 N2_2 1_555 1_555
Zn1_3 N7 1_555 1_555
Zn1A N5A 1_555 1_555
Zn2_2 N10_2 1_555 1_555
Zn2_3 N15 1_555 1_555
Zn2A N13A 1_555 1_555
C2 N1 1_555 1_555
C3 N2 1_555 1_555
C4 N1 1_555 1_555
C6 N4 1_555 1_555
C7 N4 1_555 1_555
C8 N3 1_555 1_555
C10 N6 1_555 1_555
C11 N5 1_555 1_555
C12 N6 1_555 1_555
C17 N8 1_555 1_555
C18 N7 1_555 1_555
C19 N8 1_555 1_555
C22 C23 1_555 1_555
C24 C25 1_555 1_555
C30 C31 1_555 1_555
C33 N9 1_555 1_555
C34 N10 1_555 1_555
C35 N9 1_555 1_555
C37 N12 1_555 1_555
C38 N11 1_555 1_555
C40 N14 1_555 1_555
C41 N13 1_555 1_555
C42 N14 1_555 1_555
C47 N16 1_555 1_555
C48 N15 1_555 1_555
C49 N16 1_555 1_555
C52 C53 1_555 1_555
C54 C55 1_555 1_555
N3 Zn1 1_555 1_555
N5 Zn1 1_555 1_555
N11 Zn2 1_555 1_555
N12 C56 1_555 1_555
N13 Zn2 1_555 1_555
C2_2 N1_2 1_555 1_555
C3_2 N2_2 1_555 1_555
C4_2 N1_2 1_555 1_555
C6_2 N4_2 1_555 1_555
C7_2 N4_2 1_555 1_555
C8_2 N3_2 1_555 1_555
C10A N6A 1_555 1_555
C11A N5A 1_555 1_555
C12A N6A 1_555 1_555
C13A C14A 1_555 1_555
C13A C15A 1_555 1_555
C16_2 N7_2 1_555 1_555
C17_2 N8_2 1_555 1_555
C18_2 N7_2 1_555 1_555
C19_2 N8_2 1_555 1_555
C22_2 C23_2 1_555 1_555
C24_2 C25_2 1_555 1_555
C30_2 C31_2 1_555 1_555
C33_2 N9_2 1_555 1_555
C34_2 N10_2 1_555 1_555
C35_2 N9_2 1_555 1_555
C37_2 N12_2 1_555 1_555
C38_2 N11_2 1_555 1_555
C40A N14A 1_555 1_555
C41A N13A 1_555 1_555
C42A N14A 1_555 1_555
C43A C44A 1_555 1_555
C43A C45A 1_555 1_555
C46_2 N15_2 1_555 1_555
C47_2 N16_2 1_555 1_555
C48_2 N15_2 1_555 1_555
C49_2 N16_2 1_555 1_555
C52_2 C53_2 1_555 1_555
C54_2 C55_2 1_555 1_555
N3_2 Zn1_2 1_555 1_555
N11_2 Zn2_2 1_555 1_555
N12_2 C56_2 1_555 1_555

#END
