
#######################################################################
#
#                 Cambridge Crystallographic Data Centre
#                                CCDC 
#
#######################################################################
#
# If this CIF has been generated from an entry in the Cambridge 
# Structural Database, then it will include bibliographic, chemical, 
# crystal, experimental, refinement or atomic coordinate data resulting 
# from the CCDC's data processing and validation procedures.
#
#######################################################################

data_CEHXIX
_symmetry_cell_setting           monoclinic
_symmetry_space_group_name_H-M   'C 2/c'
_symmetry_Int_Tables_number      15
_space_group_name_Hall           '-C 2yn'
loop_
_symmetry_equiv_pos_site_id
_symmetry_equiv_pos_as_xyz
1 x,y,z
2 1/2+x,1/2+y,z
3 -x,y,1/2-z
4 1/2-x,1/2+y,1/2-z
5 -x,-y,-z
6 1/2-x,1/2-y,-z
7 x,-y,1/2+z
8 1/2+x,1/2-y,1/2+z
_cell_length_a                   17.3504(17)
_cell_length_b                   7.7177(8)
_cell_length_c                   38.050(4)
_cell_angle_alpha                90
_cell_angle_beta                 93.483(2)
_cell_angle_gamma                90
_cell_volume                     5085.68
loop_
_atom_site_label
_atom_site_type_symbol
_atom_site_fract_x
_atom_site_fract_y
_atom_site_fract_z
Ag1 Ag 0.85214(4) 0.61826(10) 0.276668(18)
Pd1 Pd 0.96816(3) 0.82844(6) 0.374280(12)
S1 S 1.06636(9) 0.7655(2) 0.41698(4)
S2 S 1.04027(9) 1.0552(2) 0.36219(4)
S3 S 0.89825(9) 0.8727(2) 0.32114(4)
O3 O 0.9018(3) 0.9250(6) 0.44270(12)
O4 O 0.8241(3) 0.9894(7) 0.39485(11)
O5 O 0.8953(3) 0.6335(6) 0.38960(12)
O6 O 0.8273(3) 0.4116(8) 0.37534(16)
O7 O 0.9256(3) 0.4744(7) 0.34556(15)
O8 O 0.7197(4) 0.5499(10) 0.2959(2)
O9 O 0.6420(3) 0.3607(8) 0.27149(17)
O10 O 0.7580(4) 0.3677(11) 0.2593(2)
O11 O 0.9434(4) 0.3786(10) 0.25966(19)
O12 O 1.0000 0.6129(12) 0.2500
N2 N 0.8826(3) 0.5015(7) 0.36929(16)
N3 N 0.7062(3) 0.4275(9) 0.27533(15)
N4 N 1.0000 0.4567(12) 0.2500
C1 C 0.8243(4) 0.9359(11) 0.43063(18)
H1 H 0.7976 1.0188 0.4442
H2 H 0.7995 0.8254 0.4324
C2 C 0.9438(4) 1.0732(9) 0.44882(15)
C3 C 0.9145(5) 1.2415(10) 0.44661(18)
H3 H 0.8610 1.2605 0.4399
C4 C 0.9619(6) 1.3779(11) 0.4539(2)
H4 H 0.9414 1.4934 0.4523
C5 C 1.0389(6) 1.3541(10) 0.4637(2)
H5 H 1.0724 1.4509 0.4690
C6 C 1.0662(4) 1.1870(10) 0.46553(18)
H6 H 1.1198 1.1689 0.4724
C7 C 1.0210(4) 1.0451(9) 0.45801(16)
C8 C 1.0498(4) 0.8641(8) 0.45946(16)
H7 H 1.0133 0.7941 0.4710
H8 H 1.0974 0.8616 0.4737
C9 C 1.1473(4) 0.8964(10) 0.40341(18)
H9 H 1.1529 0.9970 0.4182
H10 H 1.1941 0.8302 0.4063
C10 C 1.1348(4) 0.9531(10) 0.36513(18)
H11 H 1.1358 0.8551 0.3496
H12 H 1.1740 1.0337 0.3591
C11 C 1.0186(4) 1.1035(10) 0.31557(17)
H13 H 0.9881 1.2073 0.3136
H14 H 1.0661 1.1250 0.3046
C12 C 0.9766(4) 0.9621(9) 0.29651(16)
H15 H 1.0123 0.8711 0.2919
H16 H 0.9556 1.0052 0.2743
C13 C 0.8348(4) 1.0618(9) 0.32478(17)
H17 H 0.8602 1.1463 0.3399
H18 H 0.8255 1.1133 0.3020
C14 C 0.7604(4) 1.0141(9) 0.33891(17)
C15 C 0.6920(4) 1.0113(11) 0.3182(2)
H19 H 0.6934 1.0305 0.2933
C16 C 0.6228(4) 0.9819(10) 0.3322(2)
H20 H 0.5763 0.9852 0.3172
C17 C 0.6185(4) 0.9480(10) 0.3672(2)
H21 H 0.5694 0.9252 0.3767
C18 C 0.6860(4) 0.9468(9) 0.3892(2)
H22 H 0.6839 0.9233 0.4139
C19 C 0.7557(3) 0.9796(8) 0.37503(17)
Ag1C Ag 0.64786(4) 1.11826(10) 0.223332(18)
Ag1C_2 Ag 0.64786(4) 0.11826(10) 0.223332(18)
Ag1B Ag 1.14786(4) 0.61826(10) 0.223332(18)
Pd1C Pd 0.53184(3) 1.32844(6) 0.125720(12)
S1C S 0.43364(9) 1.2655(2) 0.08302(4)
S2C S 0.45973(9) 1.5552(2) 0.13781(4)
S3C S 0.60175(9) 1.3727(2) 0.17886(4)
O3C O 0.5982(3) 1.4250(6) 0.05730(12)
O4C O 0.6759(3) 1.4894(7) 0.10515(11)
O5C O 0.6047(3) 1.1335(6) 0.11040(12)
O6C O 0.6727(3) 0.9116(8) 0.12466(16)
O7C O 0.5744(3) 0.9744(7) 0.15444(15)
O8C O 0.7803(4) 1.0499(10) 0.2041(2)
O9C O 0.8580(3) 0.8607(8) 0.22851(17)
O9_2 O 0.6420(3) 1.3607(8) 0.27149(17)
O10C O 0.7420(4) 0.8677(11) 0.2407(2)
O11B O 1.0566(4) 0.3786(10) 0.24034(19)
O11C O 0.5566(4) 0.8786(10) 0.24034(19)
N2C N 0.6174(3) 1.0015(7) 0.13071(16)
N3C N 0.7938(3) 0.9275(9) 0.22467(15)
C1C C 0.6757(4) 1.4359(11) 0.06937(18)
H1C H 0.7024 1.5188 0.0558
H2C H 0.7005 1.3254 0.0676
C2C C 0.5562(4) 1.5732(9) 0.05118(15)
C3C C 0.5855(5) 1.7415(10) 0.05339(18)
H3C H 0.6390 1.7605 0.0601
C4C C 0.5381(6) 1.8779(11) 0.0461(2)
H4C H 0.5586 1.9934 0.0477
C5C C 0.4611(6) 1.8541(10) 0.0363(2)
H5C H 0.4276 1.9509 0.0310
C6C C 0.4338(4) 1.6870(10) 0.03447(18)
H6C H 0.3802 1.6689 0.0276
C7C C 0.4790(4) 1.5451(9) 0.04199(16)
C8C C 0.4502(4) 1.3641(8) 0.04054(16)
H7C H 0.4867 1.2941 0.0290
H8C H 0.4026 1.3616 0.0263
C9C C 0.3527(4) 1.3964(10) 0.09659(18)
H9C H 0.3471 1.4970 0.0818
H10C H 0.3059 1.3302 0.0937
C10C C 0.3652(4) 1.4531(10) 0.13487(18)
H11C H 0.3642 1.3551 0.1504
H12C H 0.3260 1.5337 0.1409
C11C C 0.4814(4) 1.6035(10) 0.18443(17)
H13C H 0.5119 1.7073 0.1864
H14C H 0.4339 1.6250 0.1954
C12C C 0.5234(4) 1.4621(9) 0.20349(16)
H15C H 0.4877 1.3711 0.2081
H16C H 0.5444 1.5052 0.2257
C13C C 0.6652(4) 1.5618(9) 0.17522(17)
H17C H 0.6398 1.6463 0.1601
H18C H 0.6745 1.6133 0.1980
C14C C 0.7396(4) 1.5141(9) 0.16109(17)
C15C C 0.8080(4) 1.5113(11) 0.1818(2)
H19C H 0.8066 1.5305 0.2067
C16C C 0.8772(4) 1.4819(10) 0.1678(2)
H20C H 0.9237 1.4852 0.1828
C17C C 0.8815(4) 1.4480(10) 0.1328(2)
H21C H 0.9306 1.4252 0.1233
C18C C 0.8140(4) 1.4468(9) 0.1108(2)
H22C H 0.8161 1.4233 0.0861
C19C C 0.7443(3) 1.4796(8) 0.12497(17)
O1 O 1.2227(7) 0.722(3) 0.4781(3)
O2 O 1.2480(13) 0.467(4) 0.5208(6)
N1 N 1.2331(12) 0.568(8) 0.5071(6)
loop_
_geom_bond_atom_site_label_1
_geom_bond_atom_site_label_2
_geom_bond_site_symmetry_1
_geom_bond_site_symmetry_2
O1 N1 1_555 1_555
O2 N1 1_555 1_555
Ag1 S3 1_555 1_555
Pd1 S1 1_555 1_555
S1 C8 1_555 1_555
S2 Pd1 1_555 1_555
S3 Pd1 1_555 1_555
O3 C1 1_555 1_555
O4 C1 1_555 1_555
O5 Pd1 1_555 1_555
O6 N2 1_555 1_555
O7 N2 1_555 1_555
O8 Ag1 1_555 1_555
O9 N3 1_555 1_555
O10 Ag1 1_555 1_555
O11 Ag1 1_555 1_555
O12 N4 1_555 1_555
N2 O5 1_555 1_555
N3 O8 1_555 1_555
N4 O11 1_555 1_555
C1 H1 1_555 1_555
H2 C1 1_555 1_555
C2 O3 1_555 1_555
C3 C2 1_555 1_555
H3 C3 1_555 1_555
C4 C3 1_555 1_555
H4 C4 1_555 1_555
C5 C4 1_555 1_555
H5 C5 1_555 1_555
C6 C5 1_555 1_555
H6 C6 1_555 1_555
C7 C2 1_555 1_555
C8 C7 1_555 1_555
H7 C8 1_555 1_555
H8 C8 1_555 1_555
C9 S1 1_555 1_555
H9 C9 1_555 1_555
H10 C9 1_555 1_555
C10 S2 1_555 1_555
H11 C10 1_555 1_555
H12 C10 1_555 1_555
C11 S2 1_555 1_555
H13 C11 1_555 1_555
H14 C11 1_555 1_555
C12 S3 1_555 1_555
H15 C12 1_555 1_555
H16 C12 1_555 1_555
C13 S3 1_555 1_555
H17 C13 1_555 1_555
H18 C13 1_555 1_555
C14 C13 1_555 1_555
C15 C14 1_555 1_555
H19 C15 1_555 1_555
C16 C15 1_555 1_555
H20 C16 1_555 1_555
C17 C16 1_555 1_555
H21 C17 1_555 1_555
C18 C17 1_555 1_555
H22 C18 1_555 1_555
C19 O4 1_555 1_555
Ag1C S3C 1_555 1_555
Ag1C_2 O9 1_555 1_555
Ag1B O11B 1_555 1_555
Pd1C S1C 1_555 1_555
S1C C8C 1_555 1_555
S2C Pd1C 1_555 1_555
S3C Pd1C 1_555 1_555
O3C C1C 1_555 1_555
O4C C1C 1_555 1_555
O5C Pd1C 1_555 1_555
O6C N2C 1_555 1_555
O7C N2C 1_555 1_555
O8C Ag1C 1_555 1_555
O9C Ag1 1_555 1_555
O9_2 Ag1C 1_555 1_555
O10C Ag1C 1_555 1_555
O11B N4 1_555 1_555
O11C Ag1C 1_555 1_555
N2C O5C 1_555 1_555
N3C O8C 1_555 1_555
C1C H1C 1_555 1_555
H2C C1C 1_555 1_555
C2C O3C 1_555 1_555
C3C C2C 1_555 1_555
H3C C3C 1_555 1_555
C4C C3C 1_555 1_555
H4C C4C 1_555 1_555
C5C C4C 1_555 1_555
H5C C5C 1_555 1_555
C6C C5C 1_555 1_555
H6C C6C 1_555 1_555
C7C C2C 1_555 1_555
C8C C7C 1_555 1_555
H7C C8C 1_555 1_555
H8C C8C 1_555 1_555
C9C S1C 1_555 1_555
H9C C9C 1_555 1_555
H10C C9C 1_555 1_555
C10C S2C 1_555 1_555
H11C C10C 1_555 1_555
H12C C10C 1_555 1_555
C11C S2C 1_555 1_555
H13C C11C 1_555 1_555
H14C C11C 1_555 1_555
C12C S3C 1_555 1_555
H15C C12C 1_555 1_555
H16C C12C 1_555 1_555
C13C S3C 1_555 1_555
H17C C13C 1_555 1_555
H18C C13C 1_555 1_555
C14C C13C 1_555 1_555
C15C C14C 1_555 1_555
H19C C15C 1_555 1_555
C16C C15C 1_555 1_555
H20C C16C 1_555 1_555
C17C C16C 1_555 1_555
H21C C17C 1_555 1_555
C18C C17C 1_555 1_555
H22C C18C 1_555 1_555
C19C O4C 1_555 1_555
O10 N3 1_555 1_555
C6 C7 1_555 1_555
C9 C10 1_555 1_555
C11 C12 1_555 1_555
C14 C19 1_555 1_555
C18 C19 1_555 1_555
O9C N3C 1_555 1_555
O10C N3C 1_555 1_555
C6C C7C 1_555 1_555
C9C C10C 1_555 1_555
C11C C12C 1_555 1_555
C14C C19C 1_555 1_555
C18C C19C 1_555 1_555

#END
