
#######################################################################
#
#                 Cambridge Crystallographic Data Centre
#                                CCDC 
#
#######################################################################
#
# If this CIF has been generated from an entry in the Cambridge 
# Structural Database, then it will include bibliographic, chemical, 
# crystal, experimental, refinement or atomic coordinate data resulting 
# from the CCDC's data processing and validation procedures.
#
#######################################################################

data_CEHXOE
_symmetry_cell_setting           orthorhombic
_symmetry_space_group_name_H-M   'P c c a'
_symmetry_Int_Tables_number      54
_space_group_name_Hall           '-P 2a 2ac'
loop_
_symmetry_equiv_pos_site_id
_symmetry_equiv_pos_as_xyz
1 x,y,z
2 1/2-x,-y,z
3 1/2+x,-y,1/2-z
4 -x,y,1/2-z
5 -x,-y,-z
6 1/2+x,y,-z
7 1/2-x,y,1/2+z
8 x,-y,1/2+z
_cell_length_a                   10.406(2)
_cell_length_b                   13.102(3)
_cell_length_c                   12.723(3)
_cell_angle_alpha                90
_cell_angle_beta                 90
_cell_angle_gamma                90
_cell_volume                     1734.65
loop_
_atom_site_label
_atom_site_type_symbol
_atom_site_fract_x
_atom_site_fract_y
_atom_site_fract_z
Zn1 Zn -0.02376(6) 0.14405(5) 0.37845(4)
O1 O -0.0053(8) 0.2861(4) 0.3377(4)
O2 O 0.0000 0.0690(5) 0.2500
N1 N -0.1933(6) 0.1270(5) 0.6215(3)
N2 N -0.2009(4) 0.1257(4) 0.4351(4)
N3 N -0.2974(5) 0.1226(5) 0.3637(4)
N4 N -0.4055(4) 0.1212(4) 0.4122(4)
N5 N -0.3846(4) 0.1225(4) 0.5176(4)
C1 C 0.0000 0.3293(9) 0.2500
C2 C 0.0554(19) 0.4417(11) 0.2513(13)
C3 C 0.066(3) 0.4945(14) 0.1579(15)
C4 C 0.062(4) 0.4956(15) 0.3476(16)
C5 C 0.082(5) 0.5975(19) 0.157(2)
C6 C 0.103(10) 0.5968(19) 0.350(3)
C7 C 0.083(5) 0.6511(17) 0.252(2)
C8 C -0.2565(5) 0.1250(4) 0.5288(4)
Zn1C Zn 0.02376(6) 0.14405(5) 0.12155(4)
Zn1E Zn -0.52376(6) 0.14405(5) 0.62155(4)
Zn1E_2 Zn 0.47624(6) 0.14405(5) 0.62155(4)
O1C O 0.0053(8) 0.2861(4) 0.1623(4)
N1E N 0.3067(6) 0.1270(5) 0.3785(3)
N2E N 0.2991(4) 0.1257(4) 0.5649(4)
N2C N 0.2009(4) 0.1257(4) 0.0649(4)
N3E N 0.2026(5) 0.1226(5) 0.6363(4)
N4E N 0.0945(4) 0.1212(4) 0.5878(4)
N5E N 0.1154(4) 0.1225(4) 0.4824(4)
N5F N -0.1154(4) 0.1225(4) 0.0176(4)
C2C C -0.0554(19) 0.4417(11) 0.2487(13)
C3C C -0.066(3) 0.4945(14) 0.3421(15)
C4C C -0.062(4) 0.4956(15) 0.1524(16)
C5C C -0.082(5) 0.5975(19) 0.343(2)
C6C C -0.103(10) 0.5968(19) 0.150(3)
C7C C -0.083(5) 0.6511(17) 0.248(2)
C8E C 0.2435(5) 0.1250(4) 0.4712(4)
loop_
_geom_bond_atom_site_label_1
_geom_bond_atom_site_label_2
_geom_bond_site_symmetry_1
_geom_bond_site_symmetry_2
Zn1 O1 1_555 1_555
O1 C1 1_555 1_555
O2 Zn1 1_555 1_555
N1 C8 1_555 1_555
N2 Zn1 1_555 1_555
N3 N2 1_555 1_555
N4 N3 1_555 1_555
N5 N4 1_555 1_555
C1 C2 1_555 1_555
C2 C3 1_555 1_555
C3 C5 1_555 1_555
C4 C2 1_555 1_555
C5 C7 1_555 1_555
C6 C4 1_555 1_555
C7 C6 1_555 1_555
C8 N2 1_555 1_555
Zn1C O2 1_555 1_555
Zn1E N5 1_555 1_555
Zn1E_2 N2E 1_555 1_555
O1C C1 1_555 1_555
N1E C8E 1_555 1_555
N2E N3E 1_555 1_555
N2C Zn1C 1_555 1_555
N3E N4E 1_555 1_555
N4E N5E 1_555 1_555
N5E Zn1 1_555 1_555
N5F Zn1C 1_555 1_555
C2C C1 1_555 1_555
C3C C4 1_555 1_555
C4C C3 1_555 1_555
C5C C3C 1_555 1_555
C6C C4C 1_555 1_555
C7C C7 1_555 1_555
C8E N2E 1_555 1_555
N5 C8 1_555 1_555
C2 C2C 1_555 1_555
Zn1C O1C 1_555 1_555
N5E C8E 1_555 1_555
C2C C3C 1_555 1_555
C2C C4C 1_555 1_555
C5C C7C 1_555 1_555
C6C C7C 1_555 1_555

#END
