
#######################################################################
#
#                 Cambridge Crystallographic Data Centre
#                                CCDC 
#
#######################################################################
#
# If this CIF has been generated from an entry in the Cambridge 
# Structural Database, then it will include bibliographic, chemical, 
# crystal, experimental, refinement or atomic coordinate data resulting 
# from the CCDC's data processing and validation procedures.
#
#######################################################################

data_CEJNEK01
_symmetry_cell_setting           monoclinic
_symmetry_space_group_name_H-M   'P 21/c'
_symmetry_Int_Tables_number      14
_space_group_name_Hall           '-P 2ybc'
loop_
_symmetry_equiv_pos_site_id
_symmetry_equiv_pos_as_xyz
1 x,y,z
2 x,1/2-y,1/2+z
3 -x,-y,-z
4 -x,1/2+y,1/2-z
_cell_length_a                   6.133(2)
_cell_length_b                   7.314(3)
_cell_length_c                   18.036(3)
_cell_angle_alpha                90
_cell_angle_beta                 96.92(2)
_cell_angle_gamma                90
_cell_volume                     803.143
loop_
_atom_site_label
_atom_site_type_symbol
_atom_site_fract_x
_atom_site_fract_y
_atom_site_fract_z
Ag1 Ag 0.67352(10) 0.51914(7) 0.22899(3)
N1 N 1.0177(11) 0.2815(7) 0.1673(3)
O1 O 0.8897(9) 0.3987(7) 0.1392(3)
O2 O 1.0025(10) 0.2291(8) 0.2321(3)
O3 O 1.1538(12) 0.2134(9) 0.1331(4)
S1 S 0.5340(3) 0.30007(19) 0.31801(8)
C1 C 0.3664(13) 0.4159(9) 0.3799(4)
C2 C 0.3409(13) 0.3036(10) 0.4469(4)
O4 O 0.5445(8) 0.2661(7) 0.4916(2)
C3 C 0.6878(15) 0.1534(11) 0.4547(5)
C4 C 0.7616(13) 0.2470(10) 0.3881(4)
H1 H 0.429(11) 0.523(9) 0.400(4)
H2 H 0.241(16) 0.434(12) 0.347(5)
H3 H 0.239(10) 0.370(8) 0.480(3)
H4 H 0.284(11) 0.182(9) 0.436(3)
H5 H 0.809(15) 0.116(13) 0.501(5)
H6 H 0.630(14) 0.067(11) 0.440(4)
H7 H 0.838(10) 0.364(9) 0.398(3)
H8 H 0.843(10) 0.179(8) 0.367(3)
O2C O 0.9975(10) 0.7291(8) 0.2679(3)
S1C S 0.4660(3) 0.80007(19) 0.18199(8)
Ag1C Ag 1.32648(10) 0.01914(7) 0.27101(3)
Ag1C_2 Ag 0.32648(10) 0.01914(7) 0.27101(3)
loop_
_geom_bond_atom_site_label_1
_geom_bond_atom_site_label_2
_geom_bond_site_symmetry_1
_geom_bond_site_symmetry_2
Ag1 O1 1_555 1_555
N1 O1 1_555 1_555
O2 N1 1_555 1_555
O3 N1 1_555 1_555
S1 Ag1 1_555 1_555
C1 S1 1_555 1_555
C2 C1 1_555 1_555
O4 C2 1_555 1_555
C3 O4 1_555 1_555
C4 S1 1_555 1_555
H1 C1 1_555 1_555
H2 C1 1_555 1_555
H3 C2 1_555 1_555
H4 C2 1_555 1_555
H5 C3 1_555 1_555
H6 C3 1_555 1_555
H7 C4 1_555 1_555
H8 C4 1_555 1_555
O2C Ag1 1_555 1_555
S1C Ag1 1_555 1_555
Ag1C O2 1_555 1_555
Ag1C_2 S1 1_555 1_555
C3 C4 1_555 1_555

#END
