
#######################################################################
#
#                 Cambridge Crystallographic Data Centre
#                                CCDC 
#
#######################################################################
#
# If this CIF has been generated from an entry in the Cambridge 
# Structural Database, then it will include bibliographic, chemical, 
# crystal, experimental, refinement or atomic coordinate data resulting 
# from the CCDC's data processing and validation procedures.
#
#######################################################################

data_CEJQOX02
_symmetry_cell_setting           orthorhombic
_symmetry_space_group_name_H-M   'P b c n'
_symmetry_Int_Tables_number      60
_space_group_name_Hall           '-P 2n 2ab'
loop_
_symmetry_equiv_pos_site_id
_symmetry_equiv_pos_as_xyz
1 x,y,z
2 1/2+x,1/2+y,1/2-z
3 x,-y,1/2+z
4 1/2-x,1/2+y,z
5 -x,-y,-z
6 1/2-x,1/2-y,1/2+z
7 -x,y,1/2-z
8 1/2+x,1/2-y,-z
_cell_length_a                   11.8408(2)
_cell_length_b                   9.105(1)
_cell_length_c                   21.3108(2)
_cell_angle_alpha                90
_cell_angle_beta                 90
_cell_angle_gamma                90
_cell_volume                     2297.53
loop_
_atom_site_label
_atom_site_type_symbol
_atom_site_fract_x
_atom_site_fract_y
_atom_site_fract_z
Mo1 Mo -0.54660(4) -0.53343(4) -0.16686(2)
Cu1 Cu -0.65574(6) -0.13556(7) -0.15438(3)
O1 O -0.5000 -0.5564(7) -0.2500
O2 O -0.4319(4) -0.5260(5) -0.1190(3)
O3 O -0.6288(3) -0.6805(4) -0.14587(17)
O4 O -0.6218(3) -0.3729(4) -0.15884(16)
N1 N -0.6436(3) -0.0834(4) -0.24205(16)
N2 N -0.6455(3) 0.0935(5) -0.56608(17)
C1 C -0.6410(4) 0.0574(5) -0.2611(2)
H1 H -0.6426 0.1313 -0.2310
C2 C -0.6359(4) 0.0963(6) -0.3237(2)
H2 H -0.6331 0.1949 -0.3349
C3 C -0.6351(4) -0.0121(5) -0.3700(2)
C4 C -0.6337(4) -0.1558(5) -0.3501(2)
H3 H -0.6300 -0.2317 -0.3792
C5 C -0.6377(4) -0.1871(5) -0.2866(2)
H4 H -0.6362 -0.2850 -0.2742
C6 C -0.6377(4) 0.0266(5) -0.4373(2)
C7 C -0.6957(5) -0.0615(6) -0.4802(2)
H5 H -0.7340 -0.1445 -0.4662
C8 C -0.6964(5) -0.0266(6) -0.5426(2)
H6 H -0.7339 -0.0889 -0.5701
C9 C -0.5849(4) 0.1491(5) -0.4615(2)
H7 H -0.5456 0.2121 -0.4349
C10 C -0.5901(4) 0.1787(5) -0.5251(2)
H8 H -0.5533 0.2617 -0.5402
Mo1F Mo -0.45340(4) -0.53343(4) -0.33314(2)
N1B N -0.6436(3) 0.0834(4) 0.25795(16)
N2B N -0.6455(3) -0.0935(5) -0.06608(17)
C1B C -0.6410(4) -0.0574(5) 0.2389(2)
H1B H -0.6426 -0.1313 0.2690
C2B C -0.6359(4) -0.0963(6) 0.1763(2)
H2B H -0.6331 -0.1949 0.1651
C3B C -0.6351(4) 0.0121(5) 0.1300(2)
C4B C -0.6337(4) 0.1558(5) 0.1499(2)
H3B H -0.6300 0.2317 0.1208
C5B C -0.6377(4) 0.1871(5) 0.2134(2)
H4B H -0.6362 0.2850 0.2258
C6B C -0.6377(4) -0.0266(5) 0.0627(2)
C7B C -0.6957(5) 0.0615(6) 0.0198(2)
H5B H -0.7340 0.1445 0.0338
C8B C -0.6964(5) 0.0266(6) -0.0426(2)
H6B H -0.7339 0.0889 -0.0701
C9B C -0.5849(4) -0.1491(5) 0.0385(2)
H7B H -0.5456 -0.2121 0.0651
C10B C -0.5901(4) -0.1787(5) -0.0251(2)
H8B H -0.5533 -0.2617 -0.0402
O2F O -0.5681(4) -0.5260(5) -0.3810(3)
O3F O -0.3712(3) -0.6805(4) -0.35413(17)
O4F O -0.3782(3) -0.3729(4) -0.34116(16)
Cu1F Cu -0.34426(6) -0.13556(7) -0.34562(3)
Cu1B Cu -0.65574(6) 0.13556(7) -0.65438(3)
Cu1B_2 Cu -0.65574(6) 0.13556(7) 0.34562(3)
N1F N -0.3564(3) -0.0834(4) -0.25795(16)
N2D N -0.3545(3) -0.0935(5) -0.43392(17)
loop_
_geom_bond_atom_site_label_1
_geom_bond_atom_site_label_2
_geom_bond_site_symmetry_1
_geom_bond_site_symmetry_2
Mo1 O1 1_555 1_555
Cu1 O4 1_555 1_555
O1 Mo1F 1_555 1_555
O2 Mo1 1_555 1_555
O3 Mo1 1_555 1_555
O4 Mo1 1_555 1_555
N1 Cu1 1_555 1_555
N2 C8 1_555 1_555
C1 N1 1_555 1_555
H1 C1 1_555 1_555
C2 C1 1_555 1_555
H2 C2 1_555 1_555
C3 C2 1_555 1_555
C4 C3 1_555 1_555
H3 C4 1_555 1_555
C5 N1 1_555 1_555
H4 C5 1_555 1_555
C6 C3 1_555 1_555
C7 C6 1_555 1_555
H5 C7 1_555 1_555
C8 C7 1_555 1_555
H6 C8 1_555 1_555
C9 C6 1_555 1_555
H7 C9 1_555 1_555
C10 N2 1_555 1_555
H8 C10 1_555 1_555
Mo1F O2F 1_555 1_555
N1B C1B 1_555 1_555
N2B Cu1 1_555 1_555
C1B H1B 1_555 1_555
C2B C1B 1_555 1_555
H2B C2B 1_555 1_555
C3B C2B 1_555 1_555
C4B C3B 1_555 1_555
H3B C4B 1_555 1_555
C5B N1B 1_555 1_555
H4B C5B 1_555 1_555
C6B C3B 1_555 1_555
C7B C6B 1_555 1_555
H5B C7B 1_555 1_555
C8B N2B 1_555 1_555
H6B C8B 1_555 1_555
C9B C6B 1_555 1_555
H7B C9B 1_555 1_555
C10B N2B 1_555 1_555
H8B C10B 1_555 1_555
O3F Mo1F 1_555 1_555
O4F Mo1F 1_555 1_555
Cu1F O4F 1_555 1_555
Cu1B N2 1_555 1_555
Cu1B_2 N1B 1_555 1_555
N1F Cu1F 1_555 1_555
N2D Cu1F 1_555 1_555
C4 C5 1_555 1_555
C9 C10 1_555 1_555
C4B C5B 1_555 1_555
C7B C8B 1_555 1_555
C9B C10B 1_555 1_555

#END
