
#######################################################################
#
#                 Cambridge Crystallographic Data Centre
#                                CCDC 
#
#######################################################################
#
# If this CIF has been generated from an entry in the Cambridge 
# Structural Database, then it will include bibliographic, chemical, 
# crystal, experimental, refinement or atomic coordinate data resulting 
# from the CCDC's data processing and validation procedures.
#
#######################################################################

data_CEJRAM
_symmetry_cell_setting           monoclinic
_symmetry_space_group_name_H-M   'P 21/n'
_symmetry_Int_Tables_number      14
_space_group_name_Hall           '-P 2yn'
loop_
_symmetry_equiv_pos_site_id
_symmetry_equiv_pos_as_xyz
1 x,y,z
2 1/2-x,1/2+y,1/2-z
3 -x,-y,-z
4 1/2+x,1/2-y,1/2+z
_cell_length_a                   11.977(3)
_cell_length_b                   8.9260(16)
_cell_length_c                   17.987(4)
_cell_angle_alpha                90
_cell_angle_beta                 90.7567(7)
_cell_angle_gamma                90
_cell_volume                     1922.76
loop_
_atom_site_label
_atom_site_type_symbol
_atom_site_fract_x
_atom_site_fract_y
_atom_site_fract_z
Cl1 Cl 1.17190(6) 0.06270(7) 0.90146(4)
O4 O 1.1092(3) 0.0468(3) 0.83389(13)
O5 O 1.2571(3) 0.1735(3) 0.89301(15)
O6 O 1.10158(19) 0.1048(3) 0.96151(12)
O7 O 1.2237(3) -0.0785(3) 0.91839(14)
O8 O 1.5436(7) 0.0938(8) 0.9210(5)
C17 C 1.4562(6) 0.0347(8) 0.9692(5)
O8B O 1.4564(7) -0.0938(8) 1.0790(5)
C17B C 1.5438(6) -0.0347(8) 1.0308(5)
Cu1 Cu 0.73567(2) -0.01807(3) 0.685037(14)
O1 O 0.70816(14) -0.18018(17) 0.57812(9)
O2 O 0.75395(13) -0.24346(15) 0.71881(9)
O3 O 0.71783(14) -0.48490(15) 0.70200(9)
N1 N 0.69755(15) 0.13554(19) 0.60067(10)
N2 N 0.88927(16) 0.0200(2) 0.65218(11)
N3 N 0.57294(16) -0.00341(19) 0.70234(11)
C1 C 0.7969(2) 0.2348(3) 0.59690(14)
C2 C 0.90144(19) 0.1425(3) 0.60932(13)
C3 C 1.0043(3) 0.1841(3) 0.58276(17)
C4 C 1.0967(3) 0.0980(4) 0.60015(19)
C5 C 1.0836(3) -0.0296(4) 0.6425(2)
C6 C 0.9796(3) -0.0649(3) 0.66808(17)
C7 C 0.59614(19) 0.2165(3) 0.62483(13)
C8 C 0.52328(18) 0.1174(3) 0.67108(12)
C9 C 0.4121(2) 0.1509(3) 0.68412(14)
C10 C 0.3509(3) 0.0588(4) 0.72944(15)
C11 C 0.4008(3) -0.0677(4) 0.75949(17)
C12 C 0.5116(2) -0.0949(3) 0.74490(15)
C13 C 0.6813(3) 0.0575(3) 0.52774(12)
C14 C 0.6315(2) -0.0966(3) 0.53439(13)
C15 C 0.6703(3) -0.3226(3) 0.60346(15)
C16 C 0.71917(17) -0.3512(3) 0.68016(12)
H1 H 0.796(3) 0.287(3) 0.5514(15)
H2 H 0.7919(19) 0.307(3) 0.6374(13)
H3 H 1.008(3) 0.266(4) 0.551(2)
H4 H 1.167(3) 0.126(4) 0.5836(19)
H5 H 1.149(3) -0.093(4) 0.6537(19)
H6 H 0.963(3) -0.154(4) 0.6956(19)
H7 H 0.553(3) 0.255(3) 0.5802(15)
H8 H 0.618(2) 0.294(3) 0.6552(14)
H9 H 0.383(3) 0.232(4) 0.6604(17)
H10 H 0.281(3) 0.080(4) 0.7392(17)
H11 H 0.362(3) -0.132(4) 0.7883(18)
H12 H 0.547(3) -0.175(4) 0.7634(16)
H13 H 0.633(3) 0.123(3) 0.4943(15)
H14 H 0.752(3) 0.053(3) 0.5063(17)
H15 H 0.619(2) -0.137(3) 0.4872(15)
H16 H 0.556(3) -0.096(3) 0.5587(14)
H17 H 0.583(3) -0.326(4) 0.6056(19)
H18 H 0.701(4) -0.395(5) 0.571(3)
Cu1A Cu 0.76433(2) -0.51807(3) 0.814963(14)
O3A O 0.78217(14) 0.01510(15) 0.79800(9)
loop_
_geom_bond_atom_site_label_1
_geom_bond_atom_site_label_2
_geom_bond_site_symmetry_1
_geom_bond_site_symmetry_2
Cu1 O1 1_555 1_555
Cl1 O4 1_555 1_555
O1 C14 1_555 1_555
O2 Cu1 1_555 1_555
O3 C16 1_555 1_555
O5 Cl1 1_555 1_555
O6 Cl1 1_555 1_555
O7 Cl1 1_555 1_555
O8 C17 1_555 1_555
N1 Cu1 1_555 1_555
N2 Cu1 1_555 1_555
N3 Cu1 1_555 1_555
C1 N1 1_555 1_555
C2 N2 1_555 1_555
C3 C2 1_555 1_555
C4 C3 1_555 1_555
C5 C4 1_555 1_555
C6 N2 1_555 1_555
C7 N1 1_555 1_555
C8 N3 1_555 1_555
C9 C8 1_555 1_555
C10 C9 1_555 1_555
C11 C10 1_555 1_555
C12 N3 1_555 1_555
C13 N1 1_555 1_555
C14 C13 1_555 1_555
C15 O1 1_555 1_555
C16 O2 1_555 1_555
C17 C17B 1_555 1_555
H1 C1 1_555 1_555
H2 C1 1_555 1_555
H3 C3 1_555 1_555
H4 C4 1_555 1_555
H5 C5 1_555 1_555
H6 C6 1_555 1_555
H7 C7 1_555 1_555
H8 C7 1_555 1_555
H9 C9 1_555 1_555
H10 C10 1_555 1_555
H11 C11 1_555 1_555
H12 C12 1_555 1_555
H13 C13 1_555 1_555
H14 C13 1_555 1_555
H15 C14 1_555 1_555
H16 C14 1_555 1_555
H17 C15 1_555 1_555
H18 C15 1_555 1_555
Cu1A O3 1_555 1_555
O3A Cu1 1_555 1_555
O8B C17B 1_555 1_555
C1 C2 1_555 1_555
C5 C6 1_555 1_555
C7 C8 1_555 1_555
C11 C12 1_555 1_555
C15 C16 1_555 1_555

#END
