
#######################################################################
#
#                 Cambridge Crystallographic Data Centre
#                                CCDC 
#
#######################################################################
#
# If this CIF has been generated from an entry in the Cambridge 
# Structural Database, then it will include bibliographic, chemical, 
# crystal, experimental, refinement or atomic coordinate data resulting 
# from the CCDC's data processing and validation procedures.
#
#######################################################################

data_CEJVUJ
_symmetry_cell_setting           monoclinic
_symmetry_space_group_name_H-M   'C 2/c'
_symmetry_Int_Tables_number      15
_space_group_name_Hall           '-C 2yn'
loop_
_symmetry_equiv_pos_site_id
_symmetry_equiv_pos_as_xyz
1 x,y,z
2 1/2+x,1/2+y,z
3 -x,y,1/2-z
4 1/2-x,1/2+y,1/2-z
5 -x,-y,-z
6 1/2-x,1/2-y,-z
7 x,-y,1/2+z
8 1/2+x,1/2-y,1/2+z
_cell_length_a                   23.160(5)
_cell_length_b                   8.8204(15)
_cell_length_c                   16.447(4)
_cell_angle_alpha                90
_cell_angle_beta                 123.514(4)
_cell_angle_gamma                90
_cell_volume                     2801.24
loop_
_atom_site_label
_atom_site_type_symbol
_atom_site_fract_x
_atom_site_fract_y
_atom_site_fract_z
Co1 Co 0.7500 0.7500 0.5000
S1 S 0.61542(6) 0.90978(11) 0.62642(10)
O1 O 0.71268(9) 0.5311(2) 0.49721(13)
N1 N 0.56554(10) 0.9238(2) 0.25806(15)
N2 N 0.62555(10) 0.9261(2) 0.34586(15)
N3 N 0.65423(10) 0.7925(3) 0.36140(15)
N4 N 0.70538(11) 0.8301(3) 0.57186(16)
N5 N 0.69385(12) 0.3378(2) 0.56973(17)
C1 C 0.61204(13) 0.7004(3) 0.28249(18)
C2 C 0.61913(16) 0.5488(3) 0.2634(2)
H1 H 0.6584 0.4896 0.3083
C3 C 0.56594(18) 0.4909(4) 0.1759(2)
H2 H 0.5688 0.3890 0.1597
C4 C 0.50736(18) 0.5777(4) 0.1096(2)
H3 H 0.4716 0.5317 0.0507
C5 C 0.49999(16) 0.7256(4) 0.1267(2)
H4 H 0.4605 0.7840 0.0816
C6 C 0.55439(13) 0.7854(3) 0.21516(19)
C7 C 0.52119(13) 1.0566(3) 0.2275(2)
H5 H 0.4896 1.0573 0.1555
H6 H 0.5500 1.1493 0.2476
C8 C 0.66793(14) 0.8618(3) 0.5946(2)
C9 C 0.71782(13) 0.4727(3) 0.5694(2)
H7 H 0.7406 0.5291 0.6285
C10 C 0.6581(2) 0.2456(4) 0.4828(3)
H8 H 0.6551 0.3006 0.4288
H9 H 0.6113 0.2229 0.4661
H10 H 0.6836 0.1508 0.4944
C11 C 0.7031(2) 0.2743(4) 0.6579(3)
H11 H 0.7269 0.3482 0.7110
H12 H 0.7309 0.1815 0.6759
H13 H 0.6578 0.2504 0.6461
Co1G Co 0.2500 0.7500 0.0000
S1E S 0.88458(6) 0.59022(11) 0.37358(10)
O1E O 0.78732(9) 0.9689(2) 0.50279(13)
N1B N 0.43446(10) 0.9238(2) 0.24194(15)
N2B N 0.37445(10) 0.9261(2) 0.15414(15)
N3B N 0.34577(10) 0.7925(3) 0.13860(15)
N3E N 0.84577(10) 0.7075(3) 0.63860(15)
N4E N 0.79462(11) 0.6699(3) 0.42814(16)
N5E N 0.80615(12) 1.1622(2) 0.43027(17)
C1B C 0.38796(13) 0.7004(3) 0.21751(18)
C2B C 0.38087(16) 0.5488(3) 0.2366(2)
H1B H 0.3416 0.4896 0.1917
C3B C 0.43406(18) 0.4909(4) 0.3241(2)
H2B H 0.4312 0.3890 0.3403
C4B C 0.49264(18) 0.5777(4) 0.3904(2)
H3B H 0.5284 0.5317 0.4493
C5B C 0.50001(16) 0.7256(4) 0.3733(2)
H4B H 0.5395 0.7840 0.4184
C6B C 0.44561(13) 0.7854(3) 0.28484(19)
C7B C 0.47881(13) 1.0566(3) 0.2725(2)
H5B H 0.5104 1.0573 0.3445
H6B H 0.4500 1.1493 0.2524
C8E C 0.83207(14) 0.6382(3) 0.4054(2)
C9E C 0.78218(13) 1.0273(3) 0.4306(2)
H7E H 0.7594 0.9709 0.3715
C10E C 0.8419(2) 1.2544(4) 0.5172(3)
H8E H 0.8449 1.1994 0.5712
H9E H 0.8887 1.2771 0.5339
H10E H 0.8164 1.3492 0.5056
C11E C 0.7969(2) 1.2257(4) 0.3421(3)
H11E H 0.7731 1.1518 0.2890
H12E H 0.7691 1.3185 0.3241
H13E H 0.8422 1.2496 0.3539
loop_
_geom_bond_atom_site_label_1
_geom_bond_atom_site_label_2
_geom_bond_site_symmetry_1
_geom_bond_site_symmetry_2
Co1 O1 1_555 1_555
S1 C8 1_555 1_555
O1 C9 1_555 1_555
N1 N2 1_555 1_555
N2 N3 1_555 1_555
N3 Co1 1_555 1_555
N4 Co1 1_555 1_555
N5 C9 1_555 1_555
C1 N3 1_555 1_555
C2 C1 1_555 1_555
H1 C2 1_555 1_555
C3 C2 1_555 1_555
H2 C3 1_555 1_555
C4 C3 1_555 1_555
H3 C4 1_555 1_555
C5 C4 1_555 1_555
H4 C5 1_555 1_555
C6 N1 1_555 1_555
C7 N1 1_555 1_555
H5 C7 1_555 1_555
H6 C7 1_555 1_555
C8 N4 1_555 1_555
C9 H7 1_555 1_555
C10 N5 1_555 1_555
H8 C10 1_555 1_555
H9 C10 1_555 1_555
H10 C10 1_555 1_555
C11 N5 1_555 1_555
H11 C11 1_555 1_555
H12 C11 1_555 1_555
H13 C11 1_555 1_555
Co1G N3B 1_555 1_555
S1E C8E 1_555 1_555
O1E Co1 1_555 1_555
N1B N2B 1_555 1_555
N2B N3B 1_555 1_555
N3B C1B 1_555 1_555
N3E Co1 1_555 1_555
N4E Co1 1_555 1_555
N5E C9E 1_555 1_555
C1B C2B 1_555 1_555
C2B H1B 1_555 1_555
C3B C2B 1_555 1_555
H2B C3B 1_555 1_555
C4B C3B 1_555 1_555
H3B C4B 1_555 1_555
C5B C4B 1_555 1_555
H4B C5B 1_555 1_555
C6B N1B 1_555 1_555
C7B C7 1_555 1_555
H5B C7B 1_555 1_555
H6B C7B 1_555 1_555
C8E N4E 1_555 1_555
C9E O1E 1_555 1_555
H7E C9E 1_555 1_555
C10E N5E 1_555 1_555
H8E C10E 1_555 1_555
H9E C10E 1_555 1_555
H10E C10E 1_555 1_555
C11E N5E 1_555 1_555
H11E C11E 1_555 1_555
H12E C11E 1_555 1_555
H13E C11E 1_555 1_555
C1 C6 1_555 1_555
C5 C6 1_555 1_555
N1B C7B 1_555 1_555
C1B C6B 1_555 1_555
C5B C6B 1_555 1_555

#END
