
#######################################################################
#
#                 Cambridge Crystallographic Data Centre
#                                CCDC 
#
#######################################################################
#
# If this CIF has been generated from an entry in the Cambridge 
# Structural Database, then it will include bibliographic, chemical, 
# crystal, experimental, refinement or atomic coordinate data resulting 
# from the CCDC's data processing and validation procedures.
#
#######################################################################

data_CEJXIA
_symmetry_cell_setting           monoclinic
_symmetry_space_group_name_H-M   'P 21/c'
_symmetry_Int_Tables_number      14
_space_group_name_Hall           '-P 2ybc'
loop_
_symmetry_equiv_pos_site_id
_symmetry_equiv_pos_as_xyz
1 x,y,z
2 -x,1/2+y,1/2-z
3 -x,-y,-z
4 x,1/2-y,1/2+z
_cell_length_a                   14.586(2)
_cell_length_b                   12.8224(13)
_cell_length_c                   6.8699(8)
_cell_angle_alpha                90
_cell_angle_beta                 92.404(12)
_cell_angle_gamma                90
_cell_volume                     1283.73
loop_
_atom_site_label
_atom_site_type_symbol
_atom_site_fract_x
_atom_site_fract_y
_atom_site_fract_z
Tb1 Tb -0.448450(11) -0.629230(13) 0.61304(3)
N1 N 0.0555(2) -0.2938(3) 0.0330(6)
N2 N -0.0821(3) -0.4815(3) 0.2907(7)
O1 O 0.32906(18) -0.2461(2) -0.0767(4)
O2 O -0.34539(19) -0.5370(2) 0.4361(5)
O3 O 0.3714(2) -0.3865(2) 0.0941(5)
O4 O -0.5326(2) -0.5498(2) 0.3167(5)
O5 O -0.3970(2) -0.3849(2) 0.3124(6)
O6 O -0.49412(19) -0.7125(2) 0.2826(5)
C1 C 0.3106(3) -0.3262(3) 0.0170(6)
C2 C 0.2125(3) -0.3505(3) 0.0496(6)
C3 C 0.1868(3) -0.4387(3) 0.1490(7)
H1 H 0.2307 -0.4880 0.1877
C4 C 0.0970(3) -0.4539(3) 0.1907(7)
H2 H 0.0792 -0.5138 0.2557
C5 C 0.0339(3) -0.3802(3) 0.1360(7)
C6 C 0.1444(3) -0.2807(3) -0.0083(7)
H3 H 0.1605 -0.2221 -0.0789
C7 C -0.0628(3) -0.3948(4) 0.1907(7)
C8 C -0.1288(3) -0.3225(4) 0.1369(7)
H4 H -0.1134 -0.2635 0.0664
C9 C -0.2173(3) -0.3384(4) 0.1886(8)
H5 H -0.2623 -0.2894 0.1551
C10 C -0.3348(3) -0.4513(3) 0.3508(7)
C11 C -0.2400(3) -0.4273(3) 0.2909(7)
C12 C -0.1706(3) -0.4976(4) 0.3370(7)
H6 H -0.1851 -0.5585 0.4025
C13 C -0.5285(3) -0.6299(3) 0.2150(7)
H7 H -0.551(3) -0.639(3) 0.082(7)
Tb1A Tb 0.448450(11) -0.129230(13) -0.11304(3)
Tb1B Tb 0.448450(11) -0.370770(13) 0.38696(3)
Tb1B_2 Tb -0.551550(11) -0.370770(13) 0.38696(3)
Tb1C Tb -0.448450(11) -0.870770(13) 0.11304(3)
O1A O -0.32906(18) -0.7461(2) 0.5767(4)
O3B O -0.3714(2) -0.6135(2) 0.9059(5)
O4B O -0.4674(2) -0.4502(2) 0.6833(5)
O5B O -0.6030(2) -0.6151(2) 0.6876(6)
O6C O -0.49412(19) -0.7875(2) 0.7826(5)
loop_
_geom_bond_atom_site_label_1
_geom_bond_atom_site_label_2
_geom_bond_site_symmetry_1
_geom_bond_site_symmetry_2
Tb1 O2 1_555 1_555
N1 C5 1_555 1_555
N2 C7 1_555 1_555
O1 C1 1_555 1_555
O2 C10 1_555 1_555
O3 C1 1_555 1_555
O4 Tb1 1_555 1_555
O5 C10 1_555 1_555
O6 Tb1 1_555 1_555
C1 C2 1_555 1_555
C2 C3 1_555 1_555
C3 H1 1_555 1_555
C4 C3 1_555 1_555
H2 C4 1_555 1_555
C5 C4 1_555 1_555
C6 N1 1_555 1_555
H3 C6 1_555 1_555
C7 C5 1_555 1_555
C8 C7 1_555 1_555
H4 C8 1_555 1_555
C9 C8 1_555 1_555
H5 C9 1_555 1_555
C10 C11 1_555 1_555
C11 C9 1_555 1_555
C12 N2 1_555 1_555
H6 C12 1_555 1_555
C13 O4 1_555 1_555
H7 C13 1_555 1_555
Tb1A O1 1_555 1_555
Tb1B O3 1_555 1_555
Tb1B_2 O4 1_555 1_555
Tb1C O6 1_555 1_555
O1A Tb1 1_555 1_555
O3B Tb1 1_555 1_555
O4B Tb1 1_555 1_555
O5B Tb1 1_555 1_555
O6C Tb1 1_555 1_555
O5 Tb1B_2 1_555 1_555
O6 C13 1_555 1_555
C2 C6 1_555 1_555
C11 C12 1_555 1_555
Tb1B_2 O4B 1_555 1_555

#END
