
#######################################################################
#
#                 Cambridge Crystallographic Data Centre
#                                CCDC 
#
#######################################################################
#
# If this CIF has been generated from an entry in the Cambridge 
# Structural Database, then it will include bibliographic, chemical, 
# crystal, experimental, refinement or atomic coordinate data resulting 
# from the CCDC's data processing and validation procedures.
#
#######################################################################

data_CEJXIZ
_symmetry_cell_setting           triclinic
_symmetry_space_group_name_H-M   'P -1'
_symmetry_Int_Tables_number      2
_space_group_name_Hall           '-P 1'
loop_
_symmetry_equiv_pos_site_id
_symmetry_equiv_pos_as_xyz
1 x,y,z
2 -x,-y,-z
_cell_length_a                   8.9121(5)
_cell_length_b                   10.395
_cell_length_c                   11.1144(3)
_cell_angle_alpha                64.720(5)
_cell_angle_beta                 88.462(10)
_cell_angle_gamma                80.164(10)
_cell_volume                     916.129
loop_
_atom_site_label
_atom_site_type_symbol
_atom_site_fract_x
_atom_site_fract_y
_atom_site_fract_z
Pb1 Pb -0.96372(4) 0.78159(4) 0.26244(3)
Pb2 Pb -0.67634(4) 0.37592(4) 0.49479(3)
P1 P -1.0722(3) 0.4150(3) 0.3938(2)
S1 S -0.7094(3) 0.9818(3) -0.2687(2)
N1 N -1.0773(9) 0.4856(9) 0.1227(8)
H1 H -1.0882 0.5784 0.1126
C1 C -0.5878(11) 0.8926(10) -0.1216(9)
C2 C -0.6398(10) 0.7969(9) -0.0052(9)
H2 H -0.7393 0.7801 -0.0026
C3 C -0.5425(11) 0.7260(9) 0.1081(9)
C4 C -0.3938(11) 0.7475(9) 0.1030(9)
H3 H -0.3285 0.6967 0.1786
C5 C -0.3390(11) 0.8452(10) -0.0146(9)
C6 C -0.4390(12) 0.9201(11) -0.1291(10)
H4 H -0.4065 0.9864 -0.2078
C7 C -0.5971(11) 0.6196(10) 0.2369(9)
C8 C -0.1787(11) 0.8758(10) -0.0217(10)
C9 C -1.1480(11) 0.3982(11) 0.2491(9)
H5 H -1.2575 0.4305 0.2392
H6 H -1.1281 0.2974 0.2650
C10 C -0.9105(11) 0.4280(11) 0.1233(10)
H7 H -0.8565 0.4310 0.1964
H8 H -0.8973 0.3280 0.1370
C11 C -1.1555(12) 0.4847(12) 0.0056(10)
H9 H -1.1464 0.3859 0.0169
H10 H -1.2632 0.5235 0.0023
O1 O -0.7365(8) 0.6059(8) 0.2429(7)
O2 O -0.5012(9) 0.5480(8) 0.3319(7)
O3 O -0.0793(8) 0.7713(7) 0.0621(7)
O4 O -0.1547(9) 0.9930(8) -0.0955(9)
O5 O -0.9135(9) 0.3260(8) 0.4293(8)
O6 O -1.0761(8) 0.5752(7) 0.3427(7)
O7 O -1.1833(8) 0.3639(8) 0.5041(7)
O8 O -0.6256(11) 0.9608(11) -0.3743(8)
O9 O -0.8473(9) 0.9198(9) -0.2386(8)
O10 O -0.7410(9) 1.1338(8) -0.2934(8)
O11 O -0.6307(10) 0.2514(10) 0.3347(9)
O12 O -0.4003(10) 0.1995(9) 0.5595(9)
Pb1_2 Pb -1.96372(4) 0.78159(4) 0.26244(3)
Pb1_3 Pb 0.03628(4) 0.78159(4) 0.26244(3)
Pb1A Pb -0.03628(4) 1.21841(4) -0.26244(3)
Pb1A_2 Pb -1.03628(4) 0.21841(4) 0.73756(3)
Pb1A_3 Pb -1.03628(4) 1.21841(4) -0.26244(3)
Pb1A_4 Pb -1.03628(4) 0.21841(4) -0.26244(3)
Pb1_4 Pb -0.96372(4) 0.78159(4) -0.73756(3)
Pb1A_5 Pb -2.03628(4) 1.21841(4) -0.26244(3)
Pb2_2 Pb -1.67634(4) 0.37592(4) 0.49479(3)
Pb2_3 Pb -0.67634(4) 1.37592(4) -0.50521(3)
Pb2A Pb -1.32366(4) 0.62408(4) -0.49479(3)
Pb2_4 Pb -1.67634(4) 1.37592(4) -0.50521(3)
P1A P -0.9278(3) 0.5850(3) -0.3938(2)
S1_2 S -1.7094(3) 0.9818(3) -0.2687(2)
N1A N -0.9227(9) 0.5144(9) -0.1227(8)
H1A H -0.9118 0.4216 -0.1126
C1_2 C -1.5878(11) 0.8926(10) -0.1216(9)
C2_2 C -1.6398(10) 0.7969(9) -0.0052(9)
H2_2 H -1.7393 0.7801 -0.0026
C3_2 C -1.5425(11) 0.7260(9) 0.1081(9)
C4_2 C -1.3938(11) 0.7475(9) 0.1030(9)
H3_2 H -1.3285 0.6967 0.1786
C5_2 C -1.3390(11) 0.8452(10) -0.0146(9)
C6_2 C -1.4390(12) 0.9201(11) -0.1291(10)
H4_2 H -1.4065 0.9864 -0.2078
C7_2 C -1.5971(11) 0.6196(10) 0.2369(9)
C8_2 C -1.1787(11) 0.8758(10) -0.0217(10)
C9A C -0.8520(11) 0.6018(11) -0.2491(9)
H5A H -0.7425 0.5695 -0.2392
H6A H -0.8719 0.7026 -0.2650
C10A C -1.0895(11) 0.5720(11) -0.1233(10)
H7A H -1.1435 0.5690 -0.1964
H8A H -1.1027 0.6720 -0.1370
C11A C -0.8445(12) 0.5153(12) -0.0056(10)
H9A H -0.8536 0.6141 -0.0169
H10A H -0.7368 0.4765 -0.0023
O1_2 O -1.7365(8) 0.6059(8) 0.2429(7)
O2_2 O -1.5012(9) 0.5480(8) 0.3319(7)
O3_2 O -1.0793(8) 0.7713(7) 0.0621(7)
O3_3 O -2.0793(8) 0.7713(7) 0.0621(7)
O4_2 O -1.1547(9) 0.9930(8) -0.0955(9)
O4A O -0.8453(9) 1.0070(8) 0.0955(9)
O4A_2 O -1.8453(9) 1.0070(8) 0.0955(9)
O5A O -1.0865(9) 0.6740(8) -0.4293(8)
O5_2 O -1.9135(9) 0.3260(8) 0.4293(8)
O6A O -0.9239(8) 0.4248(7) -0.3427(7)
O6_2 O -2.0761(8) 0.5752(7) 0.3427(7)
O7A O -0.8167(8) 0.6361(8) -0.5041(7)
O7A_2 O -0.8167(8) 0.6361(8) 0.4959(7)
O7A_3 O -1.8167(8) 0.6361(8) 0.4959(7)
O8_2 O -1.6256(11) 0.9608(11) -0.3743(8)
O9_2 O -1.8473(9) 0.9198(9) -0.2386(8)
O10_2 O -1.7410(9) 1.1338(8) -0.2934(8)
O10A O -1.2590(9) 0.8662(8) 0.2934(8)
O10_3 O -0.7410(9) 0.1338(8) 0.7066(8)
O10A_2 O -2.2590(9) 0.8662(8) 0.2934(8)
O10_4 O -1.7410(9) 0.1338(8) 0.7066(8)
O11_2 O -1.6307(10) 0.2514(10) 0.3347(9)
O12_2 O -1.4003(10) 0.1995(9) 0.5595(9)
O13 O -0.1400(16) 0.9396(13) 0.6258(14)
loop_
_geom_bond_atom_site_label_1
_geom_bond_atom_site_label_2
_geom_bond_site_symmetry_1
_geom_bond_site_symmetry_2
Pb1 O1 1_555 1_555
Pb2 O2 1_555 1_555
P1 C9 1_555 1_555
S1 C1 1_555 1_555
N1 H1 1_555 1_555
C1 C2 1_555 1_555
C2 H2 1_555 1_555
C3 C2 1_555 1_555
C4 C3 1_555 1_555
H3 C4 1_555 1_555
C5 C4 1_555 1_555
C6 C1 1_555 1_555
H4 C6 1_555 1_555
C7 C3 1_555 1_555
C8 C5 1_555 1_555
C9 N1 1_555 1_555
H5 C9 1_555 1_555
H6 C9 1_555 1_555
C10 N1 1_555 1_555
H7 C10 1_555 1_555
H8 C10 1_555 1_555
C11 N1 1_555 1_555
H9 C11 1_555 1_555
H10 C11 1_555 1_555
O1 C7 1_555 1_555
O2 C7 1_555 1_555
O3 C8 1_555 1_555
O4 C8 1_555 1_555
O5 Pb2 1_555 1_555
O6 Pb1 1_555 1_555
O7 P1 1_555 1_555
O8 S1 1_555 1_555
O9 S1 1_555 1_555
O10 S1 1_555 1_555
O11 Pb2 1_555 1_555
O12 Pb2 1_555 1_555
Pb1_2 O1_2 1_555 1_555
Pb1_3 O3 1_555 1_555
Pb1A O4 1_555 1_555
Pb1A_2 O7 1_555 1_555
Pb1A_3 O10 1_555 1_555
Pb1A_4 O6A 1_555 1_555
Pb1_4 O7A 1_555 1_555
Pb1A_5 O10_2 1_555 1_555
Pb2_2 O2_2 1_555 1_555
Pb2_3 O10 1_555 1_555
Pb2A O5A 1_555 1_555
Pb2_4 O10_2 1_555 1_555
P1A C9A 1_555 1_555
S1_2 C1_2 1_555 1_555
N1A H1A 1_555 1_555
C1_2 C2_2 1_555 1_555
C2_2 H2_2 1_555 1_555
C3_2 C2_2 1_555 1_555
C4_2 C3_2 1_555 1_555
H3_2 C4_2 1_555 1_555
C5_2 C4_2 1_555 1_555
C6_2 C1_2 1_555 1_555
H4_2 C6_2 1_555 1_555
C7_2 C3_2 1_555 1_555
C8_2 C5_2 1_555 1_555
C9A N1A 1_555 1_555
H5A C9A 1_555 1_555
H6A C9A 1_555 1_555
C10A C11 1_555 1_555
H7A C10A 1_555 1_555
H8A C10A 1_555 1_555
C11A C10 1_555 1_555
H9A C11A 1_555 1_555
H10A C11A 1_555 1_555
O1_2 C7_2 1_555 1_555
O2_2 C7_2 1_555 1_555
O3_2 Pb1 1_555 1_555
O3_3 Pb1_2 1_555 1_555
O4_2 Pb1A_3 1_555 1_555
O4A Pb1 1_555 1_555
O4A_2 Pb1_2 1_555 1_555
O5A P1A 1_555 1_555
O5_2 Pb2_2 1_555 1_555
O6A P1A 1_555 1_555
O6_2 Pb1_2 1_555 1_555
O7A P1A 1_555 1_555
O7A_2 Pb1 1_555 1_555
O7A_3 Pb1_2 1_555 1_555
O8_2 S1_2 1_555 1_555
O9_2 S1_2 1_555 1_555
O10_2 S1_2 1_555 1_555
O10A Pb1 1_555 1_555
O10_3 Pb2 1_555 1_555
O10A_2 Pb1_2 1_555 1_555
O10_4 Pb2_2 1_555 1_555
O11_2 Pb2_2 1_555 1_555
O12_2 Pb2_2 1_555 1_555
P1 O5 1_555 1_555
P1 O6 1_555 1_555
C5 C6 1_555 1_555
Pb1A_2 O10_3 1_555 1_555
N1A C10A 1_555 1_555
N1A C11A 1_555 1_555
C5_2 C6_2 1_555 1_555
C8_2 O3_2 1_555 1_555
C8_2 O4_2 1_555 1_555

#END
