
#######################################################################
#
#                 Cambridge Crystallographic Data Centre
#                                CCDC 
#
#######################################################################
#
# If this CIF has been generated from an entry in the Cambridge 
# Structural Database, then it will include bibliographic, chemical, 
# crystal, experimental, refinement or atomic coordinate data resulting 
# from the CCDC's data processing and validation procedures.
#
#######################################################################

data_CEJZOH
_symmetry_cell_setting           triclinic
_symmetry_space_group_name_H-M   'P -1'
_symmetry_Int_Tables_number      2
_space_group_name_Hall           '-P 1'
loop_
_symmetry_equiv_pos_site_id
_symmetry_equiv_pos_as_xyz
1 x,y,z
2 -x,-y,-z
_cell_length_a                   11.276(4)
_cell_length_b                   11.488(5)
_cell_length_c                   13.795(5)
_cell_angle_alpha                92.934(7)
_cell_angle_beta                 114.139(7)
_cell_angle_gamma                103.139(7)
_cell_volume                     1567
loop_
_atom_site_label
_atom_site_type_symbol
_atom_site_fract_x
_atom_site_fract_y
_atom_site_fract_z
Cu1 Cu 0.5000 0.5000 1.0000
O1 O 0.3978(2) 0.53456(19) 1.07853(16)
C1 C 0.2272(3) 0.5878(3) 1.1111(3)
F1 F 0.1117(2) 0.6168(2) 1.06199(18)
F2 F 0.3160(2) 0.6864(2) 1.17625(18)
F3 F 0.2078(3) 0.5071(2) 1.1708(2)
C2 C 0.2763(3) 0.5389(3) 1.0330(3)
C3 C 0.1866(3) 0.5016(3) 0.9256(3)
H1 H 0.104(3) 0.504(3) 0.904(2)
C4 C 0.2248(3) 0.4534(3) 0.8516(2)
C5 C 0.1192(3) 0.4054(3) 0.7358(3)
F4 F -0.00580(17) 0.40940(16) 0.72026(15)
F5 F 0.1525(12) 0.4720(8) 0.6664(10)
F6 F 0.122(3) 0.298(3) 0.7033(18)
O2 O 0.3381(2) 0.44122(18) 0.86652(16)
Cu2 Cu 0.0000 0.0000 0.5000
O3 O -0.11643(19) 0.07139(17) 0.54404(15)
C6 C -0.2655(3) 0.1860(3) 0.5375(3)
F7 F -0.2796(19) 0.2939(12) 0.527(2)
F8 F -0.249(4) 0.174(4) 0.633(3)
F9 F -0.386(3) 0.108(3) 0.473(2)
C7 C -0.1540(3) 0.1624(3) 0.5092(2)
C8 C -0.1096(3) 0.2369(3) 0.4488(3)
H2 H -0.140(3) 0.295(3) 0.432(2)
C9 C -0.0075(3) 0.2228(3) 0.4215(2)
C10 C 0.0383(4) 0.3169(3) 0.3589(3)
F10 F 0.0966(2) 0.42598(19) 0.41916(16)
F11 F -0.0674(2) 0.32520(18) 0.27129(15)
F12 F 0.1253(3) 0.2878(3) 0.3282(3)
O4 O 0.05531(19) 0.14359(17) 0.44177(15)
O5 O 0.5091(2) 0.29677(19) 1.03727(17)
N1 N 0.4161(3) 0.2139(2) 1.04691(19)
C11 C 0.4293(4) 0.1839(3) 1.1551(3)
C12 C 0.5281(6) 0.1053(4) 1.1868(3)
H3 H 0.5410 0.0834 1.2559
H4 H 0.6131 0.1500 1.1903
H5 H 0.4920 0.0333 1.1341
C13 C 0.4852(5) 0.2985(3) 1.2360(3)
H6 H 0.4184 0.3427 1.2196
H7 H 0.5644 0.3475 1.2329
H8 H 0.5083 0.2783 1.3069
C14 C 0.2804(4) 0.1128(3) 1.1238(3)
C15 C 0.2582(5) 0.0137(5) 1.1847(4)
H9 H 0.3114 -0.0402 1.1832
H10 H 0.1643 -0.0303 1.1522
H11 H 0.2844 0.0475 1.2579
C16 C 0.1898(5) 0.1963(4) 1.1220(4)
H12 H 0.0997 0.1478 1.1032
H13 H 0.1881 0.2489 1.0699
H14 H 0.2252 0.2441 1.1919
N2 N 0.2368(3) 0.0641(2) 1.0074(2)
O6 O 0.1320(3) -0.0230(2) 0.95371(19)
C17 C 0.3119(3) 0.1337(3) 0.9673(2)
C18 C 0.2866(3) 0.1226(3) 0.8554(2)
C19 C 0.1725(3) 0.0513(3) 0.7662(2)
H15 H 0.096(3) 0.004(3) 0.766(2)
N3 N 0.1866(2) 0.0630(2) 0.67566(18)
N4 N 0.3102(2) 0.1417(2) 0.70746(18)
C20 C 0.3638(3) 0.1786(3) 0.6298(3)
H16 H 0.301(3) 0.136(3) 0.559(2)
H17 H 0.448(3) 0.159(2) 0.649(2)
C21 C 0.3809(4) 0.3114(3) 0.6219(3)
H18 H 0.433(3) 0.356(3) 0.692(2)
H19 H 0.300(3) 0.332(2) 0.599(2)
C22 C 0.4426(4) 0.3479(3) 0.5447(3)
H20 H 0.518(3) 0.328(3) 0.566(2)
H21 H 0.372(3) 0.300(3) 0.462(3)
C23 C 0.4726(4) 0.4818(3) 0.5402(3)
H22 H 0.541(3) 0.524(3) 0.611(2)
H23 H 0.403(3) 0.501(3) 0.529(2)
C24 C 0.3718(3) 0.1788(3) 0.8134(2)
H24 H 0.447(3) 0.227(3) 0.844(2)
Cu1_2 Cu 0.5000 0.5000 0.0000
O1A O 0.6022(2) 0.46544(19) 0.92147(16)
C1A C 0.7728(3) 0.4122(3) 0.8889(3)
F1A F 0.8883(2) 0.3832(2) 0.93801(18)
F2A F 0.6840(2) 0.3136(2) 0.82375(18)
F3A F 0.7922(3) 0.4929(2) 0.8292(2)
C2A C 0.7237(3) 0.4611(3) 0.9670(3)
C3A C 0.8134(3) 0.4984(3) 1.0744(3)
H1A H 0.896(3) 0.496(3) 1.096(2)
C4A C 0.7752(3) 0.5466(3) 1.1484(2)
C5A C 0.8808(3) 0.5946(3) 1.2642(3)
F4A F 1.00580(17) 0.59060(16) 1.27974(15)
F5A F 0.8475(12) 0.5280(8) 1.3336(10)
F6A F 0.878(3) 0.702(3) 1.2967(18)
O2A O 0.6619(2) 0.55878(18) 1.13348(16)
Cu2_2 Cu 1.0000 1.0000 0.5000
O3A O 0.11643(19) -0.07139(17) 0.45596(15)
C6A C 0.2655(3) -0.1860(3) 0.4625(3)
F7A F 0.2796(19) -0.2939(12) 0.473(2)
F8A F 0.249(4) -0.174(4) 0.367(3)
F9A F 0.386(3) -0.108(3) 0.527(2)
C7A C 0.1540(3) -0.1624(3) 0.4908(2)
C8A C 0.1096(3) -0.2369(3) 0.5512(3)
H2A H 0.140(3) -0.295(3) 0.568(2)
C9A C 0.0075(3) -0.2228(3) 0.5785(2)
C10A C -0.0383(4) -0.3169(3) 0.6411(3)
F10A F -0.0966(2) -0.42598(19) 0.58084(16)
F11A F 0.0674(2) -0.32520(18) 0.72871(15)
F12A F -0.1253(3) -0.2878(3) 0.6718(3)
O4A O -0.05531(19) -0.14359(17) 0.55823(15)
O5A O 0.4909(2) 0.70323(19) -0.03727(17)
O5A_2 O 0.4909(2) 0.70323(19) 0.96273(17)
N1A N 0.5839(3) 0.7861(2) -0.04691(19)
C11A C 0.5707(4) 0.8161(3) -0.1551(3)
C12A C 0.4719(6) 0.8947(4) -0.1868(3)
H3A H 0.4590 0.9166 -0.2559
H4A H 0.3869 0.8500 -0.1903
H5A H 0.5080 0.9667 -0.1341
C13A C 0.5148(5) 0.7015(3) -0.2360(3)
H6A H 0.5816 0.6573 -0.2196
H7A H 0.4356 0.6525 -0.2329
H8A H 0.4917 0.7217 -0.3069
C14A C 0.7196(4) 0.8872(3) -0.1238(3)
C15A C 0.7418(5) 0.9863(5) -0.1847(4)
H9A H 0.6886 1.0402 -0.1832
H10A H 0.8357 1.0303 -0.1522
H11A H 0.7156 0.9525 -0.2579
C16A C 0.8102(5) 0.8037(4) -0.1220(4)
H12A H 0.9003 0.8522 -0.1032
H13A H 0.8119 0.7511 -0.0699
H14A H 0.7748 0.7559 -0.1919
N2A N 0.7632(3) 0.9359(2) -0.0074(2)
O6A O 0.8680(3) 1.0230(2) 0.04629(19)
C17A C 0.6881(3) 0.8663(3) 0.0327(2)
C18A C 0.7134(3) 0.8774(3) 0.1446(2)
C19A C 0.8275(3) 0.9487(3) 0.2338(2)
H15A H 0.904(3) 0.996(3) 0.234(2)
N3A N 0.8134(2) 0.9370(2) 0.32434(18)
N3A_2 N -0.1866(2) -0.0630(2) 0.32434(18)
N4A N 0.6898(2) 0.8583(2) 0.29254(18)
C20A C 0.6362(3) 0.8214(3) 0.3702(3)
H16A H 0.699(3) 0.864(3) 0.441(2)
H17A H 0.552(3) 0.841(2) 0.351(2)
C21A C 0.6191(4) 0.6886(3) 0.3781(3)
H18A H 0.567(3) 0.644(3) 0.308(2)
H19A H 0.700(3) 0.668(2) 0.401(2)
C22A C 0.5574(4) 0.6521(3) 0.4553(3)
H20A H 0.482(3) 0.672(3) 0.434(2)
H21A H 0.628(3) 0.700(3) 0.538(3)
C23A C 0.5274(4) 0.5182(3) 0.4598(3)
H22A H 0.459(3) 0.476(3) 0.389(2)
H23A H 0.597(3) 0.499(3) 0.471(2)
C24A C 0.6282(3) 0.8212(3) 0.1866(2)
H24A H 0.553(3) 0.773(3) 0.156(2)
O7 O 0.3173(12) -0.1826(11) 1.0055(10)
F13? F 0.1493(18) 0.4672(14) 0.6700(15)
F14? F 0.100(3) 0.285(3) 0.711(2)
F15? F -0.291(2) 0.2959(17) 0.510(2)
F16? F -0.226(4) 0.188(4) 0.646(3)
F17? F -0.378(4) 0.098(3) 0.485(2)
loop_
_geom_bond_atom_site_label_1
_geom_bond_atom_site_label_2
_geom_bond_site_symmetry_1
_geom_bond_site_symmetry_2
Cu1 O1 1_555 1_555
O1 C2 1_555 1_555
C1 F1 1_555 1_555
F2 C1 1_555 1_555
F3 C1 1_555 1_555
C2 C1 1_555 1_555
C3 C2 1_555 1_555
H1 C3 1_555 1_555
C4 C3 1_555 1_555
C5 C4 1_555 1_555
F4 C5 1_555 1_555
F5 C5 1_555 1_555
F6 C5 1_555 1_555
O2 Cu1 1_555 1_555
Cu2 O3 1_555 1_555
O3 C7 1_555 1_555
C6 F7 1_555 1_555
F8 C6 1_555 1_555
F9 C6 1_555 1_555
C7 C6 1_555 1_555
C8 C7 1_555 1_555
H2 C8 1_555 1_555
C9 C8 1_555 1_555
C10 C9 1_555 1_555
F10 C10 1_555 1_555
F11 C10 1_555 1_555
F12 C10 1_555 1_555
O4 Cu2 1_555 1_555
O5 Cu1 1_555 1_555
N1 O5 1_555 1_555
C11 N1 1_555 1_555
C12 C11 1_555 1_555
H3 C12 1_555 1_555
H4 C12 1_555 1_555
H5 C12 1_555 1_555
C13 C11 1_555 1_555
H6 C13 1_555 1_555
H7 C13 1_555 1_555
H8 C13 1_555 1_555
C14 C11 1_555 1_555
C15 C14 1_555 1_555
H9 C15 1_555 1_555
H10 C15 1_555 1_555
H11 C15 1_555 1_555
C16 C14 1_555 1_555
H12 C16 1_555 1_555
H13 C16 1_555 1_555
H14 C16 1_555 1_555
N2 C14 1_555 1_555
O6 N2 1_555 1_555
C17 N1 1_555 1_555
C18 C17 1_555 1_555
C19 C18 1_555 1_555
H15 C19 1_555 1_555
N3 Cu2 1_555 1_555
N4 N3 1_555 1_555
C20 N4 1_555 1_555
H16 C20 1_555 1_555
H17 C20 1_555 1_555
C21 C20 1_555 1_555
H18 C21 1_555 1_555
H19 C21 1_555 1_555
C22 C21 1_555 1_555
H20 C22 1_555 1_555
H21 C22 1_555 1_555
C23 C22 1_555 1_555
H22 C23 1_555 1_555
H23 C23 1_555 1_555
C24 C18 1_555 1_555
H24 C24 1_555 1_555
Cu1_2 O5A 1_555 1_555
O1A Cu1 1_555 1_555
C1A F1A 1_555 1_555
F2A C1A 1_555 1_555
F3A C1A 1_555 1_555
C2A O1A 1_555 1_555
C3A C2A 1_555 1_555
H1A C3A 1_555 1_555
C4A C3A 1_555 1_555
C5A C4A 1_555 1_555
F4A C5A 1_555 1_555
F5A C5A 1_555 1_555
F6A C5A 1_555 1_555
O2A Cu1 1_555 1_555
Cu2_2 N3A 1_555 1_555
O3A Cu2 1_555 1_555
C6A F7A 1_555 1_555
F8A C6A 1_555 1_555
F9A C6A 1_555 1_555
C7A O3A 1_555 1_555
C8A C7A 1_555 1_555
H2A C8A 1_555 1_555
C9A C8A 1_555 1_555
C10A C9A 1_555 1_555
F10A C10A 1_555 1_555
F11A C10A 1_555 1_555
F12A C10A 1_555 1_555
O4A Cu2 1_555 1_555
O5A N1A 1_555 1_555
O5A_2 Cu1 1_555 1_555
N1A C11A 1_555 1_555
C11A C12A 1_555 1_555
C12A H3A 1_555 1_555
H4A C12A 1_555 1_555
H5A C12A 1_555 1_555
C13A C11A 1_555 1_555
H6A C13A 1_555 1_555
H7A C13A 1_555 1_555
H8A C13A 1_555 1_555
C14A C11A 1_555 1_555
C15A C14A 1_555 1_555
H9A C15A 1_555 1_555
H10A C15A 1_555 1_555
H11A C15A 1_555 1_555
C16A C14A 1_555 1_555
H12A C16A 1_555 1_555
H13A C16A 1_555 1_555
H14A C16A 1_555 1_555
N2A C14A 1_555 1_555
O6A N2A 1_555 1_555
C17A N1A 1_555 1_555
C18A C17A 1_555 1_555
C19A C18A 1_555 1_555
H15A C19A 1_555 1_555
N3A C19A 1_555 1_555
N3A_2 Cu2 1_555 1_555
N4A N3A 1_555 1_555
C20A N4A 1_555 1_555
H16A C20A 1_555 1_555
H17A C20A 1_555 1_555
C21A C20A 1_555 1_555
H18A C21A 1_555 1_555
H19A C21A 1_555 1_555
C22A C21A 1_555 1_555
H20A C22A 1_555 1_555
H21A C22A 1_555 1_555
C23A C23 1_555 1_555
H22A C23A 1_555 1_555
H23A C23A 1_555 1_555
C24A C18A 1_555 1_555
H24A C24A 1_555 1_555
C4 O2 1_555 1_555
C9 O4 1_555 1_555
N2 C17 1_555 1_555
C19 N3 1_555 1_555
N4 C24 1_555 1_555
C1A C2A 1_555 1_555
C4A O2A 1_555 1_555
C6A C7A 1_555 1_555
C9A O4A 1_555 1_555
N2A C17A 1_555 1_555
N4A C24A 1_555 1_555
C22A C23A 1_555 1_555

#END
