
#######################################################################
#
#                 Cambridge Crystallographic Data Centre
#                                CCDC 
#
#######################################################################
#
# If this CIF has been generated from an entry in the Cambridge 
# Structural Database, then it will include bibliographic, chemical, 
# crystal, experimental, refinement or atomic coordinate data resulting 
# from the CCDC's data processing and validation procedures.
#
#######################################################################

data_CEKLOU
_symmetry_cell_setting           monoclinic
_symmetry_space_group_name_H-M   'P 21/n'
_symmetry_Int_Tables_number      14
_space_group_name_Hall           '-P 2yn'
loop_
_symmetry_equiv_pos_site_id
_symmetry_equiv_pos_as_xyz
1 x,y,z
2 1/2-x,1/2+y,1/2-z
3 -x,-y,-z
4 1/2+x,1/2-y,1/2+z
_cell_length_a                   9.776(3)
_cell_length_b                   6.1552(18)
_cell_length_c                   19.019(3)
_cell_angle_alpha                90
_cell_angle_beta                 98.150(18)
_cell_angle_gamma                90
_cell_volume                     1132.88
loop_
_atom_site_label
_atom_site_type_symbol
_atom_site_fract_x
_atom_site_fract_y
_atom_site_fract_z
C1 C 0.6598(3) 0.2102(5) 0.07152(16)
C2 C 0.7292(4) 0.0345(5) 0.03261(18)
H1 H 0.6650 -0.0894 0.0221
H2 H 0.7503 0.0930 -0.0131
C3 C 0.8683(3) -0.2219(5) 0.11388(15)
H3 H 0.7978 -0.3269 0.1160
C4 C 0.9799(4) 0.0695(5) 0.08576(19)
H4 H 0.9998 0.2038 0.0647
C5 C 1.0673(4) -0.0491(6) 0.1322(2)
H5 H 1.1606 -0.0145 0.1498
C6 C 1.0476(4) -0.4008(7) 0.19935(19)
H6 H 1.1376 -0.4518 0.1874
H7 H 0.9828 -0.5251 0.1932
C7 C 1.0669(3) -0.3313(7) 0.27708(17)
N1 N 0.8567(3) -0.0416(4) 0.07481(14)
N2 N 0.9952(3) -0.2298(4) 0.14929(14)
O1 O 0.5356(2) 0.2513(4) 0.04444(11)
O2 O 0.7224(2) 0.3013(4) 0.12439(12)
O3 O 1.1065(3) -0.4737(5) 0.32147(14)
O4 O 1.0435(3) -0.1356(5) 0.29130(12)
Zn1 Zn 0.43654(4) 0.43394(6) 0.105955(18)
Cl1 Cl 0.21872(8) 0.47326(13) 0.05384(4)
O5 O 0.5320(3) 0.7205(5) 0.1215(3)
H8 H 0.469(5) 0.825(9) 0.137(3)
H9 H 0.623(3) 0.738(11) 0.148(3)
O4A O 0.4565(3) 0.3644(5) 0.20870(12)
Zn1A Zn 1.06346(4) -0.06606(6) 0.394045(18)
O6 O 0.7291(3) -0.3736(5) 0.24390(14)
H10 H 0.720(6) -0.531(3) 0.248(2)
H11 H 0.727(5) -0.309(6) 0.2904(15)
loop_
_geom_bond_atom_site_label_1
_geom_bond_atom_site_label_2
_geom_bond_site_symmetry_1
_geom_bond_site_symmetry_2
C1 C2 1_555 1_555
C2 H1 1_555 1_555
H2 C2 1_555 1_555
C3 H3 1_555 1_555
C4 H4 1_555 1_555
C5 C4 1_555 1_555
H5 C5 1_555 1_555
C6 H6 1_555 1_555
H7 C6 1_555 1_555
C7 C6 1_555 1_555
N1 C2 1_555 1_555
N2 C3 1_555 1_555
O1 C1 1_555 1_555
O2 C1 1_555 1_555
O3 C7 1_555 1_555
O4 C7 1_555 1_555
Zn1 O1 1_555 1_555
Cl1 Zn1 1_555 1_555
O5 Zn1 1_555 1_555
H8 O5 1_555 1_555
H9 O5 1_555 1_555
O6 H10 1_555 1_555
H11 O6 1_555 1_555
O4A Zn1 1_555 1_555
Zn1A O4 1_555 1_555
C3 N1 1_555 1_555
C4 N1 1_555 1_555
C5 N2 1_555 1_555
C6 N2 1_555 1_555

#END
