
#######################################################################
#
#                 Cambridge Crystallographic Data Centre
#                                CCDC 
#
#######################################################################
#
# If this CIF has been generated from an entry in the Cambridge 
# Structural Database, then it will include bibliographic, chemical, 
# crystal, experimental, refinement or atomic coordinate data resulting 
# from the CCDC's data processing and validation procedures.
#
#######################################################################

data_CEKSEQ
_symmetry_cell_setting           monoclinic
_symmetry_space_group_name_H-M   'P 21/c'
_symmetry_Int_Tables_number      14
_space_group_name_Hall           '-P 2ybc'
loop_
_symmetry_equiv_pos_site_id
_symmetry_equiv_pos_as_xyz
1 x,y,z
2 x,1/2-y,1/2+z
3 -x,-y,-z
4 -x,1/2+y,1/2-z
_cell_length_a                   8.730(2)
_cell_length_b                   10.189(2)
_cell_length_c                   7.1470(10)
_cell_angle_alpha                90
_cell_angle_beta                 100.02(3)
_cell_angle_gamma                90
_cell_volume                     626.029
loop_
_atom_site_label
_atom_site_type_symbol
_atom_site_fract_x
_atom_site_fract_y
_atom_site_fract_z
Mn1 Mn -0.5000 0.0000 -0.5000
O1 O -0.41580(18) 0.54475(14) -0.70434(19)
O2 O -0.26144(17) 0.62313(13) -0.44780(19)
O3 O -0.67945(19) 0.12965(15) -0.4261(2)
N1 N -0.31913(19) 0.16293(15) -0.4957(2)
C1 C -0.3617(2) 0.28655(17) -0.5449(2)
C2 C -0.2657(2) 0.39390(17) -0.4946(2)
C3 C -0.1186(2) 0.12782(19) 0.1100(3)
C4 C -0.0702(2) 0.2557(2) 0.1528(3)
C5 C -0.1737(2) 0.35664(19) 0.0963(3)
C6 C -0.3189(2) 0.53071(18) -0.5539(2)
H1 H -0.466(3) 0.202(2) -0.114(3)
H2 H -0.056(3) 0.060(3) 0.141(4)
H3 H 0.032(3) 0.272(3) 0.223(4)
H4 H -0.143(3) 0.447(3) 0.124(4)
H5 H -0.697(4) 0.122(3) -0.305(5)
H6 H -0.694(4) 0.207(3) -0.467(5)
Mn1A Mn -0.5000 0.5000 -1.0000
O1A O -0.41580(18) -0.04475(14) -0.20434(19)
C6A C -0.3189(2) -0.03071(18) -0.0539(2)
O2A O -0.26144(17) -0.12313(13) 0.05220(19)
C2A C -0.2657(2) 0.10610(17) 0.0054(2)
C1A C -0.3617(2) 0.21345(17) -0.0449(2)
N1A N -0.31913(19) 0.33707(15) 0.0043(2)
Mn1A_2 Mn -0.5000 0.5000 0.0000
O1C O -0.58420(18) 0.04475(14) -0.79566(19)
O3B O -0.32055(19) -0.12965(15) -0.5739(2)
N1B N -0.68087(19) -0.16293(15) -0.5043(2)
C5A C -0.1737(2) 0.14336(19) -0.4037(3)
C4A C -0.0702(2) 0.2443(2) -0.3472(3)
C3A C -0.1186(2) 0.37218(19) -0.3900(3)
H2A H -0.056(3) 0.440(3) -0.359(4)
H3A H 0.032(3) 0.228(3) -0.277(4)
H4A H -0.143(3) 0.053(3) -0.376(4)
H1A H -0.466(3) 0.298(2) -0.614(3)
H5B H -0.303(4) -0.122(3) -0.695(5)
H6B H -0.306(4) -0.207(3) -0.533(5)
loop_
_geom_bond_atom_site_label_1
_geom_bond_atom_site_label_2
_geom_bond_site_symmetry_1
_geom_bond_site_symmetry_2
Mn1 O3 1_555 1_555
O1 C6 1_555 1_555
O2 C6 1_555 1_555
O3 H5 1_555 1_555
N1 Mn1 1_555 1_555
C1 N1 1_555 1_555
C2 C1 1_555 1_555
C3 C4 1_555 1_555
C4 C5 1_555 1_555
C5 H4 1_555 1_555
C6 C2 1_555 1_555
H1 C1A 1_555 1_555
H2 C3 1_555 1_555
H3 C4 1_555 1_555
H6 O3 1_555 1_555
Mn1A O1 1_555 1_555
O1A Mn1 1_555 1_555
C6A O1A 1_555 1_555
O2A C6A 1_555 1_555
C2A C3 1_555 1_555
C1A C2A 1_555 1_555
N1A C5 1_555 1_555
Mn1A_2 N1A 1_555 1_555
O1C Mn1 1_555 1_555
O3B Mn1 1_555 1_555
N1B Mn1 1_555 1_555
C5A N1 1_555 1_555
C4A C5A 1_555 1_555
C3A C2 1_555 1_555
H2A C3A 1_555 1_555
H3A C4A 1_555 1_555
H4A C5A 1_555 1_555
H1A C1 1_555 1_555
H5B O3B 1_555 1_555
H6B O3B 1_555 1_555
C6A C2A 1_555 1_555
C1A N1A 1_555 1_555
C4A C3A 1_555 1_555

#END
