
#######################################################################
#
#                 Cambridge Crystallographic Data Centre
#                                CCDC 
#
#######################################################################
#
# If this CIF has been generated from an entry in the Cambridge 
# Structural Database, then it will include bibliographic, chemical, 
# crystal, experimental, refinement or atomic coordinate data resulting 
# from the CCDC's data processing and validation procedures.
#
#######################################################################

data_CEKSEQ01
_symmetry_cell_setting           monoclinic
_symmetry_space_group_name_H-M   'P 21/c'
_symmetry_Int_Tables_number      14
_space_group_name_Hall           '-P 2ybc'
loop_
_symmetry_equiv_pos_site_id
_symmetry_equiv_pos_as_xyz
1 x,y,z
2 -x,1/2+y,1/2-z
3 -x,-y,-z
4 x,1/2-y,1/2+z
_cell_length_a                   8.7340(17)
_cell_length_b                   10.182(2)
_cell_length_c                   7.1369(14)
_cell_angle_alpha                90
_cell_angle_beta                 99.98(3)
_cell_angle_gamma                90
_cell_volume                     625.078
loop_
_atom_site_label
_atom_site_type_symbol
_atom_site_fract_x
_atom_site_fract_y
_atom_site_fract_z
Mn1 Mn 0.5000 0.0000 0.0000
O1 O 0.5842(2) -0.04457(17) 0.2963(2)
O2 O 0.7386(2) -0.12303(16) 0.5521(2)
O3 O 0.3207(2) 0.12972(16) 0.0744(2)
H1 H 0.2323 0.0988 0.0855
H2 H 0.3392 0.2112 0.0920
N1 N 0.6807(2) 0.33716(18) 0.5037(3)
C1 C 0.6383(3) 0.2137(2) 0.4553(3)
H3 H 0.5399 0.1993 0.3847
C2 C 0.9302(3) 0.2556(3) 0.6523(4)
H4 H 1.0301 0.2730 0.7167
C3 C 0.6811(3) -0.0306(2) 0.4456(3)
C4 C 0.8814(3) 0.1281(2) 0.6097(3)
H5 H 0.9467 0.0578 0.6507
C5 C 0.7347(3) 0.1059(2) 0.5057(3)
C6 C 0.8264(3) 0.3563(2) 0.5966(3)
H6 H 0.8591 0.4421 0.6248
Mn1A Mn 0.5000 0.5000 0.5000
Mn1A_2 Mn 0.5000 -0.5000 -0.5000
O1B O 0.4158(2) 0.04457(17) -0.2963(2)
O2B O 0.2614(2) 0.12303(16) -0.5521(2)
O3B O 0.6793(2) -0.12972(16) -0.0744(2)
H1B H 0.7677 -0.0988 -0.0855
H2B H 0.6608 -0.2112 -0.0920
N1B N 0.3193(2) -0.33716(18) -0.5037(3)
N1A N 0.3193(2) -0.16284(18) -0.0037(3)
N1C N 0.6807(2) 0.16284(18) 0.0037(3)
C1B C 0.3617(3) -0.2137(2) -0.4553(3)
H3B H 0.4601 -0.1993 -0.3847
C2B C 0.0698(3) -0.2556(3) -0.6523(4)
H4B H -0.0301 -0.2730 -0.7167
C3B C 0.3189(3) 0.0306(2) -0.4456(3)
C4B C 0.1186(3) -0.1281(2) -0.6097(3)
H5B H 0.0533 -0.0578 -0.6507
C5B C 0.2653(3) -0.1059(2) -0.5057(3)
C6B C 0.1736(3) -0.3563(2) -0.5966(3)
H6B H 0.1409 -0.4421 -0.6248
loop_
_geom_bond_atom_site_label_1
_geom_bond_atom_site_label_2
_geom_bond_site_symmetry_1
_geom_bond_site_symmetry_2
Mn1 O1 1_555 1_555
O1 C3 1_555 1_555
O2 C3 1_555 1_555
O3 Mn1 1_555 1_555
H1 O3 1_555 1_555
H2 O3 1_555 1_555
N1 C1 1_555 1_555
C1 H3 1_555 1_555
C2 H4 1_555 1_555
C3 C5 1_555 1_555
C4 C2 1_555 1_555
H5 C4 1_555 1_555
C5 C1 1_555 1_555
C6 N1 1_555 1_555
H6 C6 1_555 1_555
Mn1A N1 1_555 1_555
Mn1A_2 N1B 1_555 1_555
O1B Mn1 1_555 1_555
O2B C3B 1_555 1_555
O3B Mn1 1_555 1_555
H1B O3B 1_555 1_555
H2B O3B 1_555 1_555
N1B C1B 1_555 1_555
N1A Mn1 1_555 1_555
N1C Mn1 1_555 1_555
C1B H3B 1_555 1_555
C2B H4B 1_555 1_555
C3B O1B 1_555 1_555
C4B C2B 1_555 1_555
H5B C4B 1_555 1_555
C5B C1B 1_555 1_555
C6B N1B 1_555 1_555
H6B C6B 1_555 1_555
C2 C6 1_555 1_555
C4 C5 1_555 1_555
C2B C6B 1_555 1_555
C3B C5B 1_555 1_555
C4B C5B 1_555 1_555

#END
