
#######################################################################
#
#                 Cambridge Crystallographic Data Centre
#                                CCDC 
#
#######################################################################
#
# If this CIF has been generated from an entry in the Cambridge 
# Structural Database, then it will include bibliographic, chemical, 
# crystal, experimental, refinement or atomic coordinate data resulting 
# from the CCDC's data processing and validation procedures.
#
#######################################################################

data_CEKVUL
_symmetry_cell_setting           monoclinic
_symmetry_space_group_name_H-M   'P 21/c'
_symmetry_Int_Tables_number      14
_space_group_name_Hall           '-P 2ybc'
loop_
_symmetry_equiv_pos_site_id
_symmetry_equiv_pos_as_xyz
1 x,y,z
2 -x,1/2+y,1/2-z
3 -x,-y,-z
4 x,1/2-y,1/2+z
_cell_length_a                   14.9469(7)
_cell_length_b                   6.6581(2)
_cell_length_c                   12.6986(5)
_cell_angle_alpha                90
_cell_angle_beta                 103.505(5)
_cell_angle_gamma                90
_cell_volume                     1228.8
loop_
_atom_site_label
_atom_site_type_symbol
_atom_site_fract_x
_atom_site_fract_y
_atom_site_fract_z
Sr1 Sr 0.47417(2) 0.06495(5) 0.32338(2)
O1 O 0.39156(17) 0.2856(4) 0.15237(17)
O2 O 0.41985(18) 0.3662(4) -0.00501(18)
O3 O 0.47387(16) 0.0675(3) -0.14438(18)
O4 O 0.40637(16) -0.2151(3) -0.21377(18)
O5 O 0.28224(18) 0.0764(4) 0.27725(19)
H1 H 0.3204 0.0929 0.3378
N1 N 0.2822(2) -0.0350(4) 0.0643(2)
N2 N 0.2973(2) -0.2295(5) -0.0704(2)
C1 C 0.3865(2) 0.2501(5) 0.0537(2)
C2 C 0.3405(2) 0.0569(5) 0.0101(2)
C3 C 0.3514(2) -0.0629(5) -0.0741(3)
C4 C 0.4144(2) -0.0670(5) -0.1496(2)
C5 C 0.2577(2) -0.2084(5) 0.0144(3)
C6 C 0.1979(2) -0.3619(5) 0.0455(3)
C7 C 0.1597(3) -0.5151(6) -0.0236(4)
H2 H 0.1693 -0.5188 -0.0934
C8 C 0.1078(3) -0.6626(7) 0.0091(4)
H3 H 0.0824 -0.7635 -0.0393
C9 C 0.0925(3) -0.6644(7) 0.1118(4)
C10 C 0.1305(3) -0.5127(7) 0.1809(4)
H4 H 0.1210 -0.5111 0.2508
C11 C 0.1831(3) -0.3604(6) 0.1494(3)
H5 H 0.2080 -0.2589 0.1977
C12 C 0.0358(3) -0.8298(7) 0.1479(4)
H6 H 0.0646 -0.9574 0.1436
H7 H 0.0320 -0.8055 0.2213
H8 H -0.0250 -0.8306 0.1017
H9 H 0.2735 0.0368 0.2122
H10 H 0.295(3) -0.326(7) -0.106(3)
Sr1A Sr 0.52583(2) 0.56495(5) 0.17662(2)
Sr1C Sr 0.47417(2) 0.43505(5) -0.17662(2)
Sr1B Sr 0.52583(2) -0.06495(5) -0.32338(2)
Sr1C_2 Sr 0.47417(2) -0.56495(5) -0.17662(2)
O1A O 0.60844(17) -0.2144(4) 0.34763(17)
O2C O 0.41985(18) 0.1338(4) 0.49499(18)
O2A O 0.58015(18) -0.1338(4) 0.50501(18)
O3B O 0.52613(16) -0.0675(3) 0.14438(18)
O3C O 0.47387(16) 0.4325(3) 0.35562(18)
O4B O 0.59363(16) 0.2151(3) 0.21377(18)
O4C O 0.40637(16) -0.2849(3) 0.28623(18)
loop_
_geom_bond_atom_site_label_1
_geom_bond_atom_site_label_2
_geom_bond_site_symmetry_1
_geom_bond_site_symmetry_2
Sr1 O1 1_555 1_555
O1 C1 1_555 1_555
O2 C1 1_555 1_555
O3 C4 1_555 1_555
O4 C4 1_555 1_555
O5 Sr1 1_555 1_555
H1 O5 1_555 1_555
N1 C2 1_555 1_555
N2 C3 1_555 1_555
C1 C2 1_555 1_555
C2 C3 1_555 1_555
C3 C4 1_555 1_555
C5 N1 1_555 1_555
C6 C5 1_555 1_555
C7 C6 1_555 1_555
H2 C7 1_555 1_555
C8 C7 1_555 1_555
H3 C8 1_555 1_555
C9 C8 1_555 1_555
C10 C9 1_555 1_555
H4 C10 1_555 1_555
C11 C6 1_555 1_555
H5 C11 1_555 1_555
C12 C9 1_555 1_555
H6 C12 1_555 1_555
H7 C12 1_555 1_555
H8 C12 1_555 1_555
H9 O5 1_555 1_555
H10 N2 1_555 1_555
Sr1A O1 1_555 1_555
Sr1C O2 1_555 1_555
Sr1B O3 1_555 1_555
Sr1C_2 O4 1_555 1_555
O1A Sr1 1_555 1_555
O2C Sr1 1_555 1_555
O2A Sr1 1_555 1_555
O3B Sr1 1_555 1_555
O3C Sr1 1_555 1_555
O4B Sr1 1_555 1_555
O4C Sr1 1_555 1_555
O2 Sr1A 1_555 1_555
O3 Sr1C 1_555 1_555
O4 Sr1B 1_555 1_555
N2 C5 1_555 1_555
C10 C11 1_555 1_555
Sr1A O3C 1_555 1_555
Sr1A O4B 1_555 1_555

#END
