
#######################################################################
#
#                 Cambridge Crystallographic Data Centre
#                                CCDC 
#
#######################################################################
#
# If this CIF has been generated from an entry in the Cambridge 
# Structural Database, then it will include bibliographic, chemical, 
# crystal, experimental, refinement or atomic coordinate data resulting 
# from the CCDC's data processing and validation procedures.
#
#######################################################################

data_CEKZUP
_symmetry_cell_setting           monoclinic
_symmetry_space_group_name_H-M   'P 21/n'
_symmetry_Int_Tables_number      14
_space_group_name_Hall           '-P 2yn'
loop_
_symmetry_equiv_pos_site_id
_symmetry_equiv_pos_as_xyz
1 x,y,z
2 1/2-x,1/2+y,1/2-z
3 -x,-y,-z
4 1/2+x,1/2-y,1/2+z
_cell_length_a                   9.3449(4)
_cell_length_b                   12.1331(5)
_cell_length_c                   13.3493(5)
_cell_angle_alpha                90
_cell_angle_beta                 91.9478(5)
_cell_angle_gamma                90
_cell_volume                     1512.7
loop_
_atom_site_label
_atom_site_type_symbol
_atom_site_fract_x
_atom_site_fract_y
_atom_site_fract_z
Cd1 Cd 0.135450(14) 0.560487(11) 0.558792(10)
O1 O 0.02954(19) 0.57461(16) 0.39594(13)
O2 O 0.23619(19) 0.65560(14) 0.41977(12)
O3 O 0.27478(16) 0.90372(13) 0.00652(12)
O4 O 0.45119(16) 0.83027(14) 0.10494(13)
N1 N 0.2667(2) 0.59421(17) 0.69587(13)
N2 N 0.4319(2) 0.59724(17) 0.81615(14)
C1 C 0.1342(2) 0.62698(17) 0.36392(15)
C2 C 0.1278(2) 0.65851(17) 0.25510(15)
C3 C 0.2316(2) 0.72567(16) 0.21528(14)
H1 H 0.3116 0.7462 0.2542
C4 C 0.2155(2) 0.76225(16) 0.11680(15)
C5 C 0.0962(2) 0.72957(19) 0.05891(16)
H2 H 0.0838 0.7567 -0.0060
C6 C -0.0043(2) 0.65771(19) 0.09574(18)
C7 C 0.0119(2) 0.62395(19) 0.19474(17)
H3 H -0.0560 0.5773 0.2213
C8 C 0.3233(2) 0.83889(17) 0.07275(15)
C9 C -0.1305(3) 0.6189(3) 0.0317(2)
H4 H -0.1218 0.6458 -0.0355
H5 H -0.2175 0.6463 0.0588
H6 H -0.1326 0.5398 0.0310
C10 C 0.2271(3) 0.6701(2) 0.76748(18)
H7 H 0.1440 0.7122 0.7652
C11 C 0.3294(3) 0.6724(2) 0.84082(18)
H8 H 0.3304 0.7167 0.8977
C12 C 0.3908(2) 0.55212(18) 0.72762(17)
C13 C 0.4754(3) 0.4709(3) 0.6725(2)
H9 H 0.4240 0.4503 0.6118
H10 H 0.4914 0.4067 0.7134
H11 H 0.5658 0.5027 0.6563
C14 C 0.5411(3) 0.4815(2) 0.95532(18)
H12 H 0.4910 0.4198 0.9240
H13 H 0.6345 0.4553 0.9787
C15 C 0.5621(3) 0.5711(2) 0.8759(2)
H14 H 0.5961 0.6377 0.9092
H15 H 0.6356 0.5472 0.8312
Cd1B Cd -0.135450(14) 0.439513(11) 0.441208(10)
Cd1A Cd 0.364550(14) 1.060487(11) -0.058792(10)
Cd1C Cd 0.635450(14) 0.939513(11) 0.058792(10)
Cd1B_2 Cd 0.864550(14) 0.439513(11) 1.441208(10)
Cd1C_2 Cd -0.364550(14) -0.060487(11) 1.058792(10)
Cd1A_2 Cd -0.635450(14) 0.060487(11) 0.941208(10)
O1B O -0.02954(19) 0.42539(16) 0.60406(13)
O2B O -0.23619(19) 0.34440(14) 0.58023(12)
O3B O -0.27478(16) 0.09628(13) 0.99348(12)
O3A O 0.22522(16) 0.40372(13) 0.49348(12)
O3C O -0.22522(16) 0.59628(13) 0.50652(12)
O4B O -0.45119(16) 0.16973(14) 0.89506(13)
O4C O -0.04881(16) 0.66973(14) 0.60494(13)
O4A O 0.04881(16) 0.33027(14) 0.39506(13)
N1B N 0.7333(2) 0.40579(17) 1.30413(13)
N1B_2 N -0.2667(2) 0.40579(17) 0.30413(13)
N2B N 0.5681(2) 0.40276(17) 1.18385(14)
C1B C -0.1342(2) 0.37302(17) 0.63608(15)
C2B C -0.1278(2) 0.34149(17) 0.74490(15)
C3B C -0.2316(2) 0.27433(16) 0.78472(14)
H1B H -0.3116 0.2538 0.7458
C4B C -0.2155(2) 0.23775(16) 0.88320(15)
C5B C -0.0962(2) 0.27043(19) 0.94109(16)
H2B H -0.0838 0.2433 1.0060
C6B C 0.0043(2) 0.34229(19) 0.90426(18)
C7B C -0.0119(2) 0.37605(19) 0.80526(17)
H3B H 0.0560 0.4227 0.7787
C8B C -0.3233(2) 0.16111(17) 0.92725(15)
C9B C 0.1305(3) 0.3811(3) 0.9683(2)
H4B H 0.1218 0.3542 1.0355
H5B H 0.2175 0.3537 0.9412
H6B H 0.1326 0.4602 0.9690
C10B C 0.7729(3) 0.3299(2) 1.23252(18)
H7B H 0.8560 0.2878 1.2348
C11B C 0.6706(3) 0.3276(2) 1.15918(18)
H8B H 0.6696 0.2833 1.1023
C12B C 0.6092(2) 0.44788(18) 1.27238(17)
C13B C 0.5246(3) 0.5291(3) 1.3275(2)
H9B H 0.5760 0.5497 1.3882
H10B H 0.5086 0.5933 1.2866
H11B H 0.4342 0.4973 1.3437
C14B C 0.4589(3) 0.5185(2) 1.04468(18)
H12B H 0.5090 0.5802 1.0760
H13B H 0.3655 0.5447 1.0213
C15B C 0.4379(3) 0.4289(2) 1.1241(2)
H14B H 0.4039 0.3623 1.0908
H15B H 0.3644 0.4528 1.1688
loop_
_geom_bond_atom_site_label_1
_geom_bond_atom_site_label_2
_geom_bond_site_symmetry_1
_geom_bond_site_symmetry_2
Cd1 O1 1_555 1_555
O1 C1 1_555 1_555
O2 Cd1 1_555 1_555
O3 C8 1_555 1_555
O4 C8 1_555 1_555
N1 Cd1 1_555 1_555
N2 C11 1_555 1_555
C1 O2 1_555 1_555
C2 C1 1_555 1_555
C3 C2 1_555 1_555
H1 C3 1_555 1_555
C4 C3 1_555 1_555
C5 C4 1_555 1_555
H2 C5 1_555 1_555
C6 C5 1_555 1_555
C7 C2 1_555 1_555
H3 C7 1_555 1_555
C8 C4 1_555 1_555
C9 C6 1_555 1_555
H4 C9 1_555 1_555
H5 C9 1_555 1_555
H6 C9 1_555 1_555
C10 N1 1_555 1_555
H7 C10 1_555 1_555
C11 C10 1_555 1_555
H8 C11 1_555 1_555
C12 N1 1_555 1_555
C13 C12 1_555 1_555
H9 C13 1_555 1_555
H10 C13 1_555 1_555
H11 C13 1_555 1_555
C14 H12 1_555 1_555
H13 C14 1_555 1_555
C15 N2 1_555 1_555
H14 C15 1_555 1_555
H15 C15 1_555 1_555
Cd1B O1 1_555 1_555
Cd1A O3 1_555 1_555
Cd1C O4 1_555 1_555
Cd1B_2 N1B 1_555 1_555
Cd1C_2 O3B 1_555 1_555
Cd1A_2 O4B 1_555 1_555
O1B Cd1 1_555 1_555
O2B Cd1B 1_555 1_555
O3B C8B 1_555 1_555
O3A Cd1 1_555 1_555
O3C Cd1B 1_555 1_555
O4B C8B 1_555 1_555
O4C Cd1 1_555 1_555
O4A Cd1B 1_555 1_555
N1B C10B 1_555 1_555
N1B_2 Cd1B 1_555 1_555
N2B C11B 1_555 1_555
C1B O1B 1_555 1_555
C2B C1B 1_555 1_555
C3B C2B 1_555 1_555
H1B C3B 1_555 1_555
C4B C3B 1_555 1_555
C5B C4B 1_555 1_555
H2B C5B 1_555 1_555
C6B C5B 1_555 1_555
C7B C2B 1_555 1_555
H3B C7B 1_555 1_555
C8B C4B 1_555 1_555
C9B C6B 1_555 1_555
H4B C9B 1_555 1_555
H5B C9B 1_555 1_555
H6B C9B 1_555 1_555
C10B H7B 1_555 1_555
C11B C10B 1_555 1_555
H8B C11B 1_555 1_555
C12B N1B 1_555 1_555
C13B C12B 1_555 1_555
H9B C13B 1_555 1_555
H10B C13B 1_555 1_555
H11B C13B 1_555 1_555
C14B C14 1_555 1_555
H12B C14B 1_555 1_555
H13B C14B 1_555 1_555
C15B N2B 1_555 1_555
H14B C15B 1_555 1_555
H15B C15B 1_555 1_555
N2 C12 1_555 1_555
C6 C7 1_555 1_555
C14 C15 1_555 1_555
Cd1B O1B 1_555 1_555
O2B C1B 1_555 1_555
N2B C12B 1_555 1_555
C6B C7B 1_555 1_555
C14B C15B 1_555 1_555

#END
