
#######################################################################
#
#                 Cambridge Crystallographic Data Centre
#                                CCDC 
#
#######################################################################
#
# If this CIF has been generated from an entry in the Cambridge 
# Structural Database, then it will include bibliographic, chemical, 
# crystal, experimental, refinement or atomic coordinate data resulting 
# from the CCDC's data processing and validation procedures.
#
#######################################################################

data_CEKZEZ
_symmetry_cell_setting           monoclinic
_symmetry_space_group_name_H-M   'P 21/c'
_symmetry_Int_Tables_number      14
_space_group_name_Hall           '-P 2ybc'
loop_
_symmetry_equiv_pos_site_id
_symmetry_equiv_pos_as_xyz
1 x,y,z
2 -x,1/2+y,1/2-z
3 -x,-y,-z
4 x,1/2-y,1/2+z
_cell_length_a                   10.109(2)
_cell_length_b                   11.779(2)
_cell_length_c                   19.049(4)
_cell_angle_alpha                90
_cell_angle_beta                 99.02(3)
_cell_angle_gamma                90
_cell_volume                     2240.19
loop_
_atom_site_label
_atom_site_type_symbol
_atom_site_fract_x
_atom_site_fract_y
_atom_site_fract_z
Cu1 Cu 0.0000 0.0000 0.0000
Cu2 Cu 0.01325(3) -0.003148(19) 0.240949(15)
N1 N -0.0751(3) 0.3356(2) 0.03863(16)
N2 N -0.0286(2) 0.1666(2) 0.00151(11)
C1 C -0.0471(3) 0.2402(2) -0.05488(17)
H1 H -0.0412 0.2211 -0.1017
C2 C -0.0473(3) 0.2285(2) 0.05709(16)
H2 H -0.0418 0.2005 0.1031
C3 C -0.0748(4) 0.3439(3) -0.03235(19)
H3 H -0.0908 0.4090 -0.0600
N3 N -0.0630(2) 0.15018(15) 0.23932(11)
N4 N -0.0731(2) 0.33892(15) 0.24599(11)
H4 H -0.090(3) 0.389(3) 0.0666(18)
C4 C 0.0051(2) 0.24715(16) 0.25266(12)
H5 H 0.0977 0.2503 0.2653
C5 C -0.1952(3) 0.1833(2) 0.22306(14)
H6 H -0.2680 0.1350 0.2112
C6 C -0.2014(3) 0.2978(2) 0.22713(14)
H7 H -0.2790 0.3414 0.2186
O1 O 0.1374(3) 0.01961(17) 0.38353(13)
O2 O 0.19346(16) 0.05569(14) 0.27834(9)
C7 C 0.6194(5) -0.0663(5) 0.3018(3)
H8 H 0.6640 -0.0613 0.2627
C8 C 0.5306(5) 0.0167(4) 0.3140(3)
H9 H 0.5187 0.0788 0.2835
C9 C 0.6423(5) -0.1571(5) 0.3477(3)
H10 H 0.7089 -0.2097 0.3430
C10 C 0.4593(3) 0.0118(3) 0.3686(2)
C11 C 0.5647(5) -0.1689(4) 0.4011(3)
H11 H 0.5736 -0.2328 0.4301
C12 C 0.4742(4) -0.0852(4) 0.4109(2)
H12 H 0.4219 -0.0936 0.4466
C13 C 0.3543(3) 0.0981(3) 0.37782(19)
H13 H 0.3727 0.1684 0.3547
H14 H 0.3562 0.1135 0.4280
C14 C 0.2170(3) 0.0543(2) 0.34578(15)
O3 O -0.04695(18) -0.01052(13) 0.09620(9)
O4 O -0.15828(16) -0.05809(13) 0.18183(8)
C15 C -0.3652(3) 0.1372(4) -0.1150(2)
H15 H -0.3868 0.1856 -0.1537
C16 C -0.3170(4) 0.0313(4) -0.12430(18)
H16 H -0.3047 0.0077 -0.1694
C17 C -0.2859(3) -0.0422(3) -0.06654(16)
H17 H -0.2529 -0.1144 -0.0735
C18 C -0.3818(3) 0.1723(3) -0.0476(2)
H18 H -0.4134 0.2450 -0.0408
C19 C -0.3038(3) -0.0085(2) 0.00103(15)
C20 C -0.3513(3) 0.0994(3) 0.00982(17)
H19 H -0.3632 0.1236 0.0549
C21 C -0.2705(3) -0.0868(3) 0.06420(15)
H20 H -0.3478 -0.0922 0.0884
H21 H -0.2526 -0.1621 0.0473
C22 C -0.1514(2) -0.04866(19) 0.11684(13)
Cu2B Cu -0.01325(3) 0.003148(19) -0.240949(15)
Cu2A Cu -0.01325(3) 0.496852(19) 0.259051(15)
Cu2A_2 Cu -0.01325(3) -0.503148(19) 0.259051(15)
N1B N 0.0751(3) -0.3356(2) -0.03863(16)
N2B N 0.0286(2) -0.1666(2) -0.00151(11)
C1B C 0.0471(3) -0.2402(2) 0.05488(17)
H1B H 0.0412 -0.2211 0.1017
C2B C 0.0473(3) -0.2285(2) -0.05709(16)
H2B H 0.0418 -0.2005 -0.1031
C3B C 0.0748(4) -0.3439(3) 0.03235(19)
H3B H 0.0908 -0.4090 0.0600
N3A N 0.0630(2) -0.34982(15) 0.26068(11)
N3B N 0.0630(2) -0.15018(15) -0.23932(11)
N4A N 0.0731(2) -0.16108(15) 0.25401(11)
N4C N -0.0731(2) 0.16108(15) -0.25401(11)
H4B H 0.090(3) -0.389(3) -0.0666(18)
C4A C -0.0051(2) -0.25285(16) 0.24734(12)
H5A H -0.0977 -0.2497 0.2347
C5A C 0.1952(3) -0.3167(2) 0.27694(14)
H6A H 0.2680 -0.3650 0.2888
C6A C 0.2014(3) -0.2022(2) 0.27287(14)
H7A H 0.2790 -0.1586 0.2814
O1B O -0.1374(3) -0.01961(17) -0.38353(13)
O2B O -0.19346(16) -0.05569(14) -0.27834(9)
C7B C -0.6194(5) 0.0663(5) -0.3018(3)
H8B H -0.6640 0.0613 -0.2627
C8B C -0.5306(5) -0.0167(4) -0.3140(3)
H9B H -0.5187 -0.0788 -0.2835
C9B C -0.6423(5) 0.1571(5) -0.3477(3)
H10B H -0.7089 0.2097 -0.3430
C10B C -0.4593(3) -0.0118(3) -0.3686(2)
C11B C -0.5647(5) 0.1689(4) -0.4011(3)
H11B H -0.5736 0.2328 -0.4301
C12B C -0.4742(4) 0.0852(4) -0.4109(2)
H12B H -0.4219 0.0936 -0.4466
C13B C -0.3543(3) -0.0981(3) -0.37782(19)
H13B H -0.3727 -0.1684 -0.3547
H14B H -0.3562 -0.1135 -0.4280
C14B C -0.2170(3) -0.0543(2) -0.34578(15)
O3B O 0.04695(18) 0.01052(13) -0.09620(9)
O4B O 0.15828(16) 0.05809(13) -0.18183(8)
C15B C 0.3652(3) -0.1372(4) 0.1150(2)
H15B H 0.3868 -0.1856 0.1537
C16B C 0.3170(4) -0.0313(4) 0.12430(18)
H16B H 0.3047 -0.0077 0.1694
C17B C 0.2859(3) 0.0422(3) 0.06654(16)
H17B H 0.2529 0.1144 0.0735
C18B C 0.3818(3) -0.1723(3) 0.0476(2)
H18B H 0.4134 -0.2450 0.0408
C19B C 0.3038(3) 0.0085(2) -0.00103(15)
C20B C 0.3513(3) -0.0994(3) -0.00982(17)
H19B H 0.3632 -0.1236 -0.0549
C21B C 0.2705(3) 0.0868(3) -0.06420(15)
H20B H 0.3478 0.0922 -0.0884
H21B H 0.2526 0.1621 -0.0473
C22B C 0.1514(2) 0.04866(19) -0.11684(13)
loop_
_geom_bond_atom_site_label_1
_geom_bond_atom_site_label_2
_geom_bond_site_symmetry_1
_geom_bond_site_symmetry_2
Cu1 N2 1_555 1_555
Cu2 N3 1_555 1_555
N1 C2 1_555 1_555
N2 C1 1_555 1_555
C1 H1 1_555 1_555
C2 N2 1_555 1_555
H2 C2 1_555 1_555
C3 N1 1_555 1_555
H3 C3 1_555 1_555
N3 C4 1_555 1_555
N4 C4 1_555 1_555
H4 N1 1_555 1_555
C4 H5 1_555 1_555
C5 N3 1_555 1_555
H6 C5 1_555 1_555
C6 N4 1_555 1_555
H7 C6 1_555 1_555
O1 C14 1_555 1_555
O2 Cu2 1_555 1_555
C7 H8 1_555 1_555
C8 C7 1_555 1_555
H9 C8 1_555 1_555
C9 C7 1_555 1_555
H10 C9 1_555 1_555
C10 C8 1_555 1_555
C11 C9 1_555 1_555
H11 C11 1_555 1_555
C12 C10 1_555 1_555
H12 C12 1_555 1_555
C13 C10 1_555 1_555
H13 C13 1_555 1_555
H14 C13 1_555 1_555
C14 O2 1_555 1_555
O3 Cu1 1_555 1_555
O4 Cu2 1_555 1_555
C15 H15 1_555 1_555
C16 C15 1_555 1_555
H16 C16 1_555 1_555
C17 C16 1_555 1_555
H17 C17 1_555 1_555
C18 C15 1_555 1_555
H18 C18 1_555 1_555
C19 C17 1_555 1_555
C20 C18 1_555 1_555
H19 C20 1_555 1_555
C21 C19 1_555 1_555
H20 C21 1_555 1_555
H21 C21 1_555 1_555
C22 O3 1_555 1_555
Cu2B N3B 1_555 1_555
Cu2A N4 1_555 1_555
Cu2A_2 N3A 1_555 1_555
N1B C2B 1_555 1_555
N2B Cu1 1_555 1_555
C1B N2B 1_555 1_555
H1B C1B 1_555 1_555
C2B N2B 1_555 1_555
H2B C2B 1_555 1_555
C3B N1B 1_555 1_555
H3B C3B 1_555 1_555
N3A C4A 1_555 1_555
N4A Cu2 1_555 1_555
N4C Cu2B 1_555 1_555
H4B N1B 1_555 1_555
C4A N4A 1_555 1_555
H5A C4A 1_555 1_555
C5A N3A 1_555 1_555
H6A C5A 1_555 1_555
C6A N4A 1_555 1_555
H7A C6A 1_555 1_555
O1B C14B 1_555 1_555
O2B Cu2B 1_555 1_555
C7B H8B 1_555 1_555
C8B C7B 1_555 1_555
H9B C8B 1_555 1_555
C9B C7B 1_555 1_555
H10B C9B 1_555 1_555
C10B C8B 1_555 1_555
C11B C9B 1_555 1_555
H11B C11B 1_555 1_555
C12B C10B 1_555 1_555
H12B C12B 1_555 1_555
C13B C10B 1_555 1_555
H13B C13B 1_555 1_555
H14B C13B 1_555 1_555
C14B O2B 1_555 1_555
O3B Cu1 1_555 1_555
O4B Cu2B 1_555 1_555
C15B H15B 1_555 1_555
C16B C15B 1_555 1_555
H16B C16B 1_555 1_555
C17B C16B 1_555 1_555
H17B C17B 1_555 1_555
C18B C15B 1_555 1_555
H18B C18B 1_555 1_555
C19B C17B 1_555 1_555
C20B C18B 1_555 1_555
H19B C20B 1_555 1_555
C21B C19B 1_555 1_555
H20B C21B 1_555 1_555
H21B C21B 1_555 1_555
C22B O3B 1_555 1_555
C1 C3 1_555 1_555
C5 C6 1_555 1_555
C11 C12 1_555 1_555
C13 C14 1_555 1_555
O4 C22 1_555 1_555
C19 C20 1_555 1_555
C21 C22 1_555 1_555
C1B C3B 1_555 1_555
C5A C6A 1_555 1_555
C11B C12B 1_555 1_555
C13B C14B 1_555 1_555
O4B C22B 1_555 1_555
C19B C20B 1_555 1_555
C21B C22B 1_555 1_555

#END
