
#######################################################################
#
#                 Cambridge Crystallographic Data Centre
#                                CCDC 
#
#######################################################################
#
# If this CIF has been generated from an entry in the Cambridge 
# Structural Database, then it will include bibliographic, chemical, 
# crystal, experimental, refinement or atomic coordinate data resulting 
# from the CCDC's data processing and validation procedures.
#
#######################################################################

data_CEKZOJ
_symmetry_cell_setting           monoclinic
_symmetry_space_group_name_H-M   'P 21/n'
_symmetry_Int_Tables_number      14
_space_group_name_Hall           '-P 2yn'
loop_
_symmetry_equiv_pos_site_id
_symmetry_equiv_pos_as_xyz
1 x,y,z
2 1/2-x,1/2+y,1/2-z
3 -x,-y,-z
4 1/2+x,1/2-y,1/2+z
_cell_length_a                   9.131(2)
_cell_length_b                   20.516(4)
_cell_length_c                   11.364(3)
_cell_angle_alpha                90
_cell_angle_beta                 104.558(5)
_cell_angle_gamma                90
_cell_volume                     2060.49
loop_
_atom_site_label
_atom_site_type_symbol
_atom_site_fract_x
_atom_site_fract_y
_atom_site_fract_z
Cd1 Cd 0.294063(18) 0.389493(8) 0.561851(14)
O1 O -0.2798(2) 0.13217(11) 0.41623(16)
H1 H -0.2748 0.1522 0.3549
O2 O 0.2014(2) 0.31311(9) 0.69760(16)
O3 O -0.0730(2) 0.17719(9) 0.94872(15)
O4 O 0.0927(2) 0.31965(9) 0.50287(16)
O5 O -0.2115(2) 0.09484(8) 0.85830(16)
N1 N 0.5000(2) 0.40616(9) 0.71720(18)
N2 N 0.7900(2) 0.50754(9) 1.42863(18)
N3 N 0.8377(2) 0.41775(9) 1.34026(18)
C1 C -0.0039(2) 0.24058(11) 0.6145(2)
C2 C -0.0932(3) 0.21280(11) 0.5090(2)
H2 H -0.0874 0.2284 0.4334
N4 N 0.7190(2) 0.39381(10) 0.84971(19)
C3 C 0.1025(2) 0.29467(11) 0.6048(2)
C4 C -0.1908(3) 0.16193(12) 0.5160(2)
C5 C 0.9595(3) 0.52033(13) 1.2891(2)
H3 H 0.9939 0.5594 1.3342
H4 H 1.0451 0.4943 1.2841
H5 H 0.9023 0.5316 1.2087
C6 C -0.0134(2) 0.21775(11) 0.7277(2)
H6 H 0.0462 0.2362 0.7984
C7 C -0.1124(2) 0.16722(10) 0.7345(2)
C8 C -0.1319(3) 0.14471(11) 0.8556(2)
C9 C 0.8623(3) 0.48274(11) 1.3517(2)
C10 C 0.6087(3) 0.36417(12) 0.7650(2)
C11 C 0.8894(3) 0.37334(12) 1.2577(2)
H7 H 0.9983 0.3771 1.2716
H8 H 0.8667 0.3288 1.2759
C12 C -0.1990(3) 0.13938(11) 0.6292(2)
H9 H -0.2637 0.1051 0.6343
C13 C 0.8617(3) 0.36480(15) 0.9181(2)
H10 H 0.8887 0.3299 0.8700
H11 H 0.9405 0.3976 0.9294
C14 C 0.6107(4) 0.29438(13) 0.7309(3)
H12 H 0.5117 0.2817 0.6847
H13 H 0.6393 0.2683 0.8031
H14 H 0.6822 0.2881 0.6828
C15 C 0.7176(3) 0.45596(12) 1.4682(2)
H15 H 0.6583 0.4590 1.5236
C16 C 0.6777(4) 0.45739(13) 0.8553(3)
H16 H 0.7320 0.4896 0.9056
C17 C 0.8583(3) 0.33797(13) 1.0407(2)
H17 H 0.7861 0.3024 1.0289
H18 H 0.9572 0.3202 1.0790
C18 C 0.5440(4) 0.46460(13) 0.7746(3)
H19 H 0.4892 0.5032 0.7595
C19 C 0.7461(3) 0.40065(12) 1.4145(2)
H20 H 0.7108 0.3591 1.4253
C20 C 0.8164(4) 0.38733(14) 1.1262(3)
H21 H 0.7074 0.3875 1.1140
H22 H 0.8467 0.4304 1.1062
Cd1C Cd -0.205937(18) 0.110507(8) 1.061851(14)
Cd1B Cd 0.705937(18) 0.610507(8) 1.438149(14)
O3C O 0.4270(2) 0.32281(9) 0.44872(15)
O5C O 0.2885(2) 0.40516(8) 0.35830(16)
N2B N 0.2100(2) 0.49246(9) 0.57137(18)
loop_
_geom_bond_atom_site_label_1
_geom_bond_atom_site_label_2
_geom_bond_site_symmetry_1
_geom_bond_site_symmetry_2
Cd1 O2 1_555 1_555
O1 H1 1_555 1_555
O2 C3 1_555 1_555
O3 C8 1_555 1_555
O4 Cd1 1_555 1_555
O5 C8 1_555 1_555
N1 Cd1 1_555 1_555
N2 C9 1_555 1_555
N3 C9 1_555 1_555
C1 C2 1_555 1_555
C2 H2 1_555 1_555
N4 C10 1_555 1_555
C3 O4 1_555 1_555
C4 O1 1_555 1_555
C5 H3 1_555 1_555
H4 C5 1_555 1_555
H5 C5 1_555 1_555
C6 C1 1_555 1_555
H6 C6 1_555 1_555
C7 C6 1_555 1_555
C8 C7 1_555 1_555
C9 C5 1_555 1_555
C10 N1 1_555 1_555
C11 N3 1_555 1_555
H7 C11 1_555 1_555
H8 C11 1_555 1_555
C12 C4 1_555 1_555
H9 C12 1_555 1_555
C13 N4 1_555 1_555
H10 C13 1_555 1_555
H11 C13 1_555 1_555
C14 C10 1_555 1_555
H12 C14 1_555 1_555
H13 C14 1_555 1_555
H14 C14 1_555 1_555
C15 N2 1_555 1_555
H15 C15 1_555 1_555
C16 N4 1_555 1_555
H16 C16 1_555 1_555
C17 C13 1_555 1_555
H17 C17 1_555 1_555
H18 C17 1_555 1_555
C18 N1 1_555 1_555
H19 C18 1_555 1_555
C19 N3 1_555 1_555
H20 C19 1_555 1_555
C20 C11 1_555 1_555
H21 C20 1_555 1_555
H22 C20 1_555 1_555
Cd1C O3 1_555 1_555
Cd1B N2 1_555 1_555
O3C Cd1 1_555 1_555
O5C Cd1 1_555 1_555
N2B Cd1 1_555 1_555
O5 Cd1C 1_555 1_555
C1 C3 1_555 1_555
C2 C4 1_555 1_555
C7 C12 1_555 1_555
C15 C19 1_555 1_555
C16 C18 1_555 1_555
C17 C20 1_555 1_555

#END
