
#######################################################################
#
#                 Cambridge Crystallographic Data Centre
#                                CCDC 
#
#######################################################################
#
# If this CIF has been generated from an entry in the Cambridge 
# Structural Database, then it will include bibliographic, chemical, 
# crystal, experimental, refinement or atomic coordinate data resulting 
# from the CCDC's data processing and validation procedures.
#
#######################################################################

data_CELGEH
_symmetry_cell_setting           monoclinic
_symmetry_space_group_name_H-M   'P 21/c'
_symmetry_Int_Tables_number      14
_space_group_name_Hall           '-P 2ybc'
loop_
_symmetry_equiv_pos_site_id
_symmetry_equiv_pos_as_xyz
1 x,y,z
2 -x,1/2+y,1/2-z
3 -x,-y,-z
4 x,1/2-y,1/2+z
_cell_length_a                   10.465(2)
_cell_length_b                   15.003(3)
_cell_length_c                   38.178(8)
_cell_angle_alpha                90
_cell_angle_beta                 96.371(3)
_cell_angle_gamma                90
_cell_volume                     5957.17
loop_
_atom_site_label
_atom_site_type_symbol
_atom_site_fract_x
_atom_site_fract_y
_atom_site_fract_z
C1 C 0.2653(15) 1.4194(7) 0.0292(3)
H1 H 0.1842 1.4512 0.0273
H2 H 0.3324 1.4642 0.0308
C2 C 0.2701(12) 1.3775(7) -0.0010(3)
H3 H 0.3325 1.4093 -0.0133
H4 H 0.1872 1.3867 -0.0146
C3 C 0.3702(6) 1.1030(5) 0.05963(19)
C4 C 0.4027(6) 1.0092(5) 0.05930(18)
C5 C 0.4007(6) 0.9597(5) 0.02789(18)
H5 H 0.3766 0.9873 0.0064
C6 C 0.4334(7) 0.8725(5) 0.0288(2)
H6 H 0.4319 0.8397 0.0081
C7 C 0.4691(6) 0.8332(5) 0.0610(2)
H7 H 0.4920 0.7732 0.0614
C8 C 0.4394(6) 0.9637(5) 0.09077(18)
C9 C 0.4430(6) 1.0114(5) 0.12407(17)
C46 C 0.7713(6) 0.7320(5) 0.1259(2)
C47 C 0.8907(6) 0.6883(4) 0.11506(18)
C48 C 0.8828(7) 0.6122(5) 0.0951(2)
H36 H 0.8028 0.5869 0.0883
C49 C 0.9911(7) 0.5728(5) 0.0849(2)
H37 H 0.9839 0.5206 0.0716
C50 C 1.1105(7) 0.6102(4) 0.09411(19)
H38 H 1.1834 0.5828 0.0872
C51 C 1.1226(6) 0.6878(4) 0.11345(18)
C52 C 1.0108(6) 0.7269(4) 0.12383(17)
H39 H 1.0172 0.7796 0.1368
C53 C 1.2519(6) 0.7322(5) 0.12292(19)
O3 O 1.2595(4) 0.8020(3) 0.13973(14)
O4 O 1.3498(4) 0.6917(3) 0.11362(13)
C62 C 0.4867(6) 1.0068(5) 0.18427(18)
H48 H 0.5163 0.9760 0.2047
C63 C 0.4490(6) 1.0942(5) 0.18736(19)
H49 H 0.4487 1.1201 0.2095
C64 C 0.4124(6) 1.1421(5) 0.15776(19)
H50 H 0.3906 1.2020 0.1594
C65 C 0.4078(6) 1.1009(4) 0.12472(18)
C66 C 0.3708(6) 1.1477(5) 0.09197(19)
C67 C 0.3102(6) 1.2767(5) 0.0623(2)
C68 C 0.2770(8) 1.3728(5) 0.0640(2)
H51 H 0.3425 1.4025 0.0798
H52 H 0.1961 1.3784 0.0740
C69 C 0.2993(9) 1.2833(6) -0.0041(2)
H53 H 0.3773 1.2776 -0.0155
H54 H 0.2303 1.2554 -0.0193
C70 C 0.3170(7) 1.2328(5) 0.0303(2)
N9 N 0.4725(5) 0.8760(4) 0.09143(14)
N10 N 0.4830(5) 0.9644(4) 0.15384(15)
N11 N 0.3434(5) 1.1460(4) 0.02886(15)
N12 N 0.3369(5) 1.2346(4) 0.09274(16)
O8 O 0.6640(4) 0.7088(3) 0.11016(13)
O9 O 0.7823(4) 0.7896(3) 0.14959(15)
Pb1 Pb 0.51779(2) 0.788682(18) 0.148680(7)
O3_2 O 0.2595(4) 0.8020(3) 0.13973(14)
O4_2 O 0.3498(4) 0.6917(3) 0.11362(13)
Pb1_2 Pb 1.51779(2) 0.788682(18) 0.148680(7)
C10 C 0.7598(7) 0.9890(6) 0.0589(2)
H8 H 0.7606 0.9599 0.0374
C11 C 0.8002(6) 0.9419(5) 0.0887(2)
H9 H 0.8292 0.8835 0.0872
C12 C 0.7968(6) 0.9826(5) 0.1207(2)
H10 H 0.8216 0.9515 0.1415
C13 C 0.7558(6) 1.0712(5) 0.12202(19)
C14 C 0.7513(6) 1.1174(5) 0.15508(19)
C15 C 0.7775(6) 1.1187(5) 0.2155(2)
C16 C 0.8125(8) 1.0697(5) 0.2493(2)
H11 H 0.9008 1.0494 0.2500
H12 H 0.7583 1.0173 0.2495
C17 C 0.7996(11) 1.1235(7) 0.2823(2)
H13 H 0.7452 1.0900 0.2966
H14 H 0.8841 1.1271 0.2956
C18 C 0.7523(19) 1.2068(10) 0.2788(3)
H15 H 0.8096 1.2428 0.2948
H16 H 0.6713 1.2048 0.2890
C19 C 0.7275(8) 1.2582(6) 0.2483(3)
H17 H 0.7875 1.3077 0.2497
H18 H 0.6416 1.2829 0.2476
C20 C 0.7375(7) 1.2090(5) 0.2148(2)
C21 C 0.7124(6) 1.2068(5) 0.1545(2)
C22 C 0.6772(6) 1.2521(5) 0.1212(2)
C23 C 0.6425(7) 1.3430(5) 0.1208(3)
H19 H 0.6379 1.3743 0.1416
C24 C 0.6157(8) 1.3838(6) 0.0887(3)
H20 H 0.5967 1.4443 0.0872
C25 C 0.6176(7) 1.3333(7) 0.0590(3)
H21 H 0.5954 1.3619 0.0376
C26 C 0.6796(6) 1.2074(5) 0.0896(2)
C27 C 0.7186(6) 1.1135(5) 0.0898(2)
N1 N 0.7197(5) 1.0731(4) 0.05803(16)
N2 N 0.6482(6) 1.2467(5) 0.05762(18)
N3 N 0.7842(5) 1.0744(4) 0.18574(16)
N4 N 0.7063(5) 1.2527(4) 0.18498(19)
C28 C 0.8580(7) 0.5292(6) 0.3009(3)
H22 H 0.8357 0.4966 0.2804
C29 C 0.8585(11) 0.4861(9) 0.3341(5)
H23 H 0.8371 0.4261 0.3353
C30 C 0.8895(12) 0.5319(12) 0.3632(4)
H24 H 0.8880 0.5034 0.3847
C31 C 0.9250(8) 0.6225(8) 0.3629(4)
C32 C 0.9643(10) 0.6749(13) 0.3946(3)
C33 C 1.005(2) 0.673(2) 0.4530(7)
C34 C 1.011(2) 0.6265(19) 0.4869(4)
H25 H 0.9259 0.6050 0.4898
H26 H 1.0662 0.5746 0.4857
C35 C 1.054(2) 0.672(2) 0.5151(6)
H27 H 1.0986 0.6297 0.5311
H28 H 0.9776 0.6899 0.5257
C36 C 1.139(2) 0.7549(16) 0.5170(5)
H29 H 1.2283 0.7365 0.5176
H30 H 1.1302 0.7866 0.5388
C37 C 1.1042(14) 0.8214(15) 0.4842(4)
H31 H 1.0413 0.8651 0.4898
H32 H 1.1806 0.8527 0.4787
C38 C 1.0470(16) 0.7617(18) 0.4515(5)
C39 C 1.0019(9) 0.7608(12) 0.3912(3)
C40 C 1.0033(8) 0.8022(8) 0.3572(3)
C41 C 1.0432(9) 0.8897(8) 0.3534(3)
H33 H 1.0665 0.9247 0.3732
C42 C 1.0481(9) 0.9238(7) 0.3203(3)
H34 H 1.0769 0.9815 0.3168
C43 C 1.0086(7) 0.8689(6) 0.2923(2)
H35 H 1.0113 0.8923 0.2699
C44 C 0.9647(7) 0.7505(6) 0.3271(3)
C45 C 0.9237(7) 0.6593(6) 0.3286(3)
C54 C 0.3637(9) 1.0815(5) 0.2934(2)
C55 C 0.4668(7) 1.0138(5) 0.3037(2)
C56 C 0.5405(9) 1.0194(6) 0.3356(2)
H40 H 0.5231 1.0635 0.3515
C57 C 0.6401(10) 0.9605(6) 0.3444(2)
H41 H 0.6899 0.9655 0.3660
C58 C 0.6658(8) 0.8949(5) 0.3214(2)
H42 H 0.7319 0.8546 0.3278
C59 C 0.5946(7) 0.8876(5) 0.2886(2)
C60 C 0.4950(6) 0.9485(4) 0.28013(18)
H43 H 0.4468 0.9451 0.2582
C61 C 0.6288(7) 0.8226(5) 0.2617(3)
N5 N 0.8885(6) 0.6147(5) 0.2985(2)
N6 N 0.9670(6) 0.7860(4) 0.29433(18)
N7 N 0.9625(11) 0.6289(12) 0.4248(4)
N8 N 1.0419(8) 0.8081(8) 0.4212(3)
O5 O 0.3536(7) 1.1468(4) 0.31176(18)
O6 O 0.2942(6) 1.0670(4) 0.26527(18)
O7 O 0.5995(7) 0.8355(4) 0.23083(18)
O10 O 0.6935(5) 0.7549(3) 0.27402(16)
Pb2 Pb 0.83209(3) 0.69970(2) 0.239626(10)
O5A O 0.6464(7) 0.6468(4) 0.18824(18)
O6A O 0.7058(6) 0.5670(4) 0.23473(18)
Pb2A Pb 0.16791(3) 1.19970(2) 0.260374(10)
O1 O 0.9003(8) 0.8724(5) 0.20657(19)
H44 H 0.857(7) 0.920(3) 0.204(2)
H47 H 0.979(8) 0.884(10) 0.20(2)
O2 O 0.4940(8) 0.5945(5) 0.0676(2)
H45 H 0.50(7) 0.59(3) 0.038(7)
H46 H 0.529(12) 0.547(6) 0.079(4)
loop_
_geom_bond_atom_site_label_1
_geom_bond_atom_site_label_2
_geom_bond_site_symmetry_1
_geom_bond_site_symmetry_2
C1 H1 1_555 1_555
H2 C1 1_555 1_555
C2 C1 1_555 1_555
H3 C2 1_555 1_555
H4 C2 1_555 1_555
C3 C4 1_555 1_555
C4 C5 1_555 1_555
C5 H5 1_555 1_555
C6 C5 1_555 1_555
H6 C6 1_555 1_555
C7 C6 1_555 1_555
H7 C7 1_555 1_555
C8 C4 1_555 1_555
C9 C8 1_555 1_555
C10 H8 1_555 1_555
C11 C10 1_555 1_555
H9 C11 1_555 1_555
C12 C11 1_555 1_555
H10 C12 1_555 1_555
C13 C12 1_555 1_555
C14 C13 1_555 1_555
C15 C16 1_555 1_555
C16 H11 1_555 1_555
H12 C16 1_555 1_555
C17 C16 1_555 1_555
H13 C17 1_555 1_555
H14 C17 1_555 1_555
C18 C17 1_555 1_555
H15 C18 1_555 1_555
H16 C18 1_555 1_555
C19 C18 1_555 1_555
H17 C19 1_555 1_555
H18 C19 1_555 1_555
C20 C15 1_555 1_555
C21 C14 1_555 1_555
C22 C21 1_555 1_555
C23 C22 1_555 1_555
H19 C23 1_555 1_555
C24 C23 1_555 1_555
H20 C24 1_555 1_555
C25 C24 1_555 1_555
H21 C25 1_555 1_555
C26 C22 1_555 1_555
C27 C13 1_555 1_555
C28 H22 1_555 1_555
C29 C28 1_555 1_555
H23 C29 1_555 1_555
C30 C29 1_555 1_555
H24 C30 1_555 1_555
C31 C30 1_555 1_555
C32 C31 1_555 1_555
C33 C34 1_555 1_555
C34 H25 1_555 1_555
H26 C34 1_555 1_555
C35 C34 1_555 1_555
H27 C35 1_555 1_555
H28 C35 1_555 1_555
C36 C35 1_555 1_555
H29 C36 1_555 1_555
H30 C36 1_555 1_555
C37 C36 1_555 1_555
H31 C37 1_555 1_555
H32 C37 1_555 1_555
C38 C33 1_555 1_555
C39 C32 1_555 1_555
C40 C39 1_555 1_555
C41 C40 1_555 1_555
H33 C41 1_555 1_555
C42 C41 1_555 1_555
H34 C42 1_555 1_555
C43 C42 1_555 1_555
H35 C43 1_555 1_555
C44 C40 1_555 1_555
C45 C31 1_555 1_555
C46 C47 1_555 1_555
C47 C48 1_555 1_555
C48 H36 1_555 1_555
C49 C48 1_555 1_555
H37 C49 1_555 1_555
C50 C49 1_555 1_555
H38 C50 1_555 1_555
C51 C50 1_555 1_555
C52 C47 1_555 1_555
H39 C52 1_555 1_555
C53 C51 1_555 1_555
C54 C55 1_555 1_555
C55 C56 1_555 1_555
C56 H40 1_555 1_555
C57 C56 1_555 1_555
H41 C57 1_555 1_555
C58 C57 1_555 1_555
H42 C58 1_555 1_555
C59 C58 1_555 1_555
C60 C55 1_555 1_555
H43 C60 1_555 1_555
C61 C59 1_555 1_555
N1 C10 1_555 1_555
N2 C25 1_555 1_555
N3 C14 1_555 1_555
N4 C20 1_555 1_555
N5 C28 1_555 1_555
N6 C43 1_555 1_555
N7 C32 1_555 1_555
N8 C38 1_555 1_555
O1 H44 1_555 1_555
O2 H45 1_555 1_555
O3 C53 1_555 1_555
O4 C53 1_555 1_555
O5 C54 1_555 1_555
O6 C54 1_555 1_555
O7 C61 1_555 1_555
H46 O2 1_555 1_555
H47 O1 1_555 1_555
C62 H48 1_555 1_555
C63 C62 1_555 1_555
H49 C63 1_555 1_555
C64 C63 1_555 1_555
H50 C64 1_555 1_555
C65 C9 1_555 1_555
C66 C3 1_555 1_555
C67 C68 1_555 1_555
C68 C1 1_555 1_555
H51 C68 1_555 1_555
H52 C68 1_555 1_555
C69 C2 1_555 1_555
H53 C69 1_555 1_555
H54 C69 1_555 1_555
C70 C67 1_555 1_555
N9 C7 1_555 1_555
N10 C9 1_555 1_555
N11 C3 1_555 1_555
N12 C66 1_555 1_555
O8 C46 1_555 1_555
O9 C46 1_555 1_555
O10 C61 1_555 1_555
Pb1 N9 1_555 1_555
Pb2 N5 1_555 1_555
O3_2 Pb1 1_555 1_555
O4_2 Pb1 1_555 1_555
O5A Pb2 1_555 1_555
O6A Pb2 1_555 1_555
Pb1_2 O3 1_555 1_555
Pb2A O5 1_555 1_555
C8 N9 1_555 1_555
C15 N3 1_555 1_555
C19 C20 1_555 1_555
C21 N4 1_555 1_555
C26 C27 1_555 1_555
C26 N2 1_555 1_555
C27 N1 1_555 1_555
C33 N7 1_555 1_555
C37 C38 1_555 1_555
C39 N8 1_555 1_555
C44 C45 1_555 1_555
C44 N6 1_555 1_555
C45 N5 1_555 1_555
C51 C52 1_555 1_555
C59 C60 1_555 1_555
N6 Pb2 1_555 1_555
O4 Pb1_2 1_555 1_555
O6 Pb2A 1_555 1_555
C62 N10 1_555 1_555
C64 C65 1_555 1_555
C65 C66 1_555 1_555
C67 N12 1_555 1_555
C69 C70 1_555 1_555
C70 N11 1_555 1_555
N10 Pb1 1_555 1_555
O8 Pb1 1_555 1_555
O10 Pb2 1_555 1_555

#END
