
#######################################################################
#
#                 Cambridge Crystallographic Data Centre
#                                CCDC 
#
#######################################################################
#
# If this CIF has been generated from an entry in the Cambridge 
# Structural Database, then it will include bibliographic, chemical, 
# crystal, experimental, refinement or atomic coordinate data resulting 
# from the CCDC's data processing and validation procedures.
#
#######################################################################

data_CELHEI
_symmetry_cell_setting           monoclinic
_symmetry_space_group_name_H-M   'P 21/c'
_symmetry_Int_Tables_number      14
_space_group_name_Hall           '-P 2ybc'
loop_
_symmetry_equiv_pos_site_id
_symmetry_equiv_pos_as_xyz
1 x,y,z
2 -x,1/2+y,1/2-z
3 -x,-y,-z
4 x,1/2-y,1/2+z
_cell_length_a                   3.59260(10)
_cell_length_b                   13.7451(3)
_cell_length_c                   14.8042(3)
_cell_angle_alpha                90
_cell_angle_beta                 95.4290(10)
_cell_angle_gamma                90
_cell_volume                     727.762
loop_
_atom_site_label
_atom_site_type_symbol
_atom_site_fract_x
_atom_site_fract_y
_atom_site_fract_z
O1 O 0.8110(3) 0.29071(7) 0.16145(7)
Na1 Na 0.73610(18) 0.12659(5) 0.11804(4)
C1 C 0.7708(3) 0.46073(9) 0.15890(8)
C2 C 0.5459(4) 0.42169(9) 0.31686(9)
O2 O 0.4090(3) 0.45743(8) 0.38205(7)
O3 O 0.9639(3) 0.36804(8) 0.03844(7)
N1 N 0.6245(4) 0.58387(8) 0.25069(8)
O4 O 1.1936(3) 0.16426(8) 0.02122(7)
H1 H 1.1363 0.2233 0.0108
H2 H 1.2565 0.1350 -0.0207
C3 C 0.7272(4) 0.61882(10) 0.17384(10)
H3 H 0.7432 0.6835 0.1554
O5 O 0.6004(4) 0.32872(7) 0.31048(7)
H4 H 0.6857 0.3174 0.2572
C4 C 0.6509(3) 0.48422(9) 0.24217(8)
C5 C 0.8542(4) 0.36719(9) 0.11534(9)
N2 N 0.8138(3) 0.54796(8) 0.11679(8)
H5 H 0.8860 0.5580 0.0634
Na1A Na 0.26390(18) 0.62659(5) 0.38196(4)
Na1_2 Na 1.73610(18) 0.12659(5) 0.11804(4)
O2A O 0.5910(3) -0.04257(8) 0.11795(7)
N1A N 0.3755(4) 0.08387(8) 0.24931(8)
O4_2 O 0.1936(3) 0.16426(8) 0.02122(7)
H1_2 H 0.1363 0.2233 0.0108
H2_2 H 0.2565 0.1350 -0.0207
loop_
_geom_bond_atom_site_label_1
_geom_bond_atom_site_label_2
_geom_bond_site_symmetry_1
_geom_bond_site_symmetry_2
O1 Na1 1_555 1_555
Na1 O4 1_555 1_555
C1 C4 1_555 1_555
C2 O2 1_555 1_555
O2 Na1A 1_555 1_555
O3 C5 1_555 1_555
N1 C3 1_555 1_555
O4 H1 1_555 1_555
H2 O4 1_555 1_555
C3 H3 1_555 1_555
O5 C2 1_555 1_555
H4 O5 1_555 1_555
C4 C2 1_555 1_555
C5 O1 1_555 1_555
N2 C1 1_555 1_555
H5 N2 1_555 1_555
Na1A N1 1_555 1_555
Na1_2 O4 1_555 1_555
O2A Na1 1_555 1_555
N1A Na1 1_555 1_555
O4_2 Na1 1_555 1_555
H1_2 O4_2 1_555 1_555
H2_2 O4_2 1_555 1_555
C1 C5 1_555 1_555
N1 C4 1_555 1_555
C3 N2 1_555 1_555

#END
