
#######################################################################
#
#                 Cambridge Crystallographic Data Centre
#                                CCDC 
#
#######################################################################
#
# If this CIF has been generated from an entry in the Cambridge 
# Structural Database, then it will include bibliographic, chemical, 
# crystal, experimental, refinement or atomic coordinate data resulting 
# from the CCDC's data processing and validation procedures.
#
#######################################################################

data_CELJUA
_symmetry_cell_setting           tetragonal
_symmetry_space_group_name_H-M   'P 41 21 2'
_symmetry_Int_Tables_number      92
_space_group_name_Hall           'P 4abw 2nw'
loop_
_symmetry_equiv_pos_site_id
_symmetry_equiv_pos_as_xyz
1 x,y,z
2 1/2-y,1/2+x,1/4+z
3 1/2+y,1/2-x,3/4+z
4 1/2+x,1/2-y,3/4-z
5 1/2-x,1/2+y,1/4-z
6 -x,-y,1/2+z
7 y,x,-z
8 -y,-x,1/2-z
_cell_length_a                   8.5721(10)
_cell_length_b                   8.5721(10)
_cell_length_c                   43.284(7)
_cell_angle_alpha                90
_cell_angle_beta                 90
_cell_angle_gamma                90
_cell_volume                     3180.55
loop_
_atom_site_label
_atom_site_type_symbol
_atom_site_fract_x
_atom_site_fract_y
_atom_site_fract_z
Cu1 Cu 0.97673(7) 0.34113(6) 0.892358(12)
N1 N 1.0303(4) 0.3347(4) 0.93719(7)
N2 N 1.1418(4) 0.4310(4) 1.09772(8)
O1 O 1.2293(4) 0.3820(3) 0.87989(6)
O2 O 1.4553(3) 0.9327(3) 0.85430(6)
O3 O 1.2271(4) 0.9431(4) 0.82995(7)
H1 H 1.2204 0.9256 0.8109
O4 O 1.2435(3) 0.6946(3) 0.89054(7)
H2 H 1.1566 0.6518 0.8876
O5 O 1.4633(4) 0.3845(3) 0.85750(6)
O6 O 1.2054(4) 0.6367(3) 0.82328(7)
C1 C 0.9554(6) 0.2445(5) 0.95727(9)
H3 H 0.8831 0.1700 0.9496
C2 C 0.9775(5) 0.2541(5) 0.98848(9)
H4 H 0.9215 0.1869 1.0020
C3 C 1.0822(5) 0.3623(5) 1.00049(10)
C4 C 1.1647(5) 0.4520(5) 0.97933(9)
H5 H 1.2410 0.5244 0.9862
C5 C 1.1347(5) 0.4352(5) 0.94825(10)
H6 H 1.1912 0.4981 0.9341
C6 C 1.1061(5) 0.3835(5) 1.03471(10)
C7 C 1.2238(5) 0.5122(5) 1.07716(10)
H7 H 1.2958 0.5879 1.0845
C8 C 1.2094(5) 0.4917(5) 1.04607(10)
H8 H 1.2707 0.5522 1.0323
C9 C 1.0240(5) 0.2967(5) 1.05583(9)
H9 H 0.9523 0.2193 1.0491
C10 C 1.0462(5) 0.3227(5) 1.08676(9)
H10 H 0.9904 0.2599 1.1011
C11 C 1.3410(6) 0.8719(6) 0.84068(10)
C12 C 1.3391(6) 0.6923(5) 0.83816(9)
H11 H 1.4323 0.6590 0.8259
C13 C 1.3553(6) 0.6269(5) 0.87101(9)
H12 H 1.4610 0.6559 0.8789
C14 C 1.3457(6) 0.4488(5) 0.86970(10)
Cu1A Cu 1.15887(6) 0.47673(7) 1.142358(12)
Cu1C Cu 1.47673(7) 1.15887(6) 0.857642(12)
Cu1C_2 Cu 1.47673(7) 0.15887(6) 0.857642(12)
N2B N 0.9310(4) 0.3582(4) 0.84772(8)
O2C O 0.9553(3) 0.5673(3) 0.89570(6)
O5C O 0.9633(4) 0.1155(3) 0.89250(6)
O7 O 0.7266(4) 0.9412(4) 0.98975(7)
O8 O 0.7157(4) 0.5145(4) 0.98615(7)
O9 O 0.4514(13) 0.6922(13) 0.9437(2)
loop_
_geom_bond_atom_site_label_1
_geom_bond_atom_site_label_2
_geom_bond_site_symmetry_1
_geom_bond_site_symmetry_2
Cu1 N1 1_555 1_555
N1 C1 1_555 1_555
N2 C7 1_555 1_555
O1 Cu1 1_555 1_555
O2 C11 1_555 1_555
O3 H1 1_555 1_555
O4 H2 1_555 1_555
O5 C14 1_555 1_555
O6 C12 1_555 1_555
C1 H3 1_555 1_555
C2 C1 1_555 1_555
H4 C2 1_555 1_555
C3 C2 1_555 1_555
C4 C3 1_555 1_555
H5 C4 1_555 1_555
C5 N1 1_555 1_555
H6 C5 1_555 1_555
C6 C3 1_555 1_555
C7 H7 1_555 1_555
C8 C6 1_555 1_555
H8 C8 1_555 1_555
C9 C6 1_555 1_555
H9 C9 1_555 1_555
C10 N2 1_555 1_555
H10 C10 1_555 1_555
C11 O3 1_555 1_555
C12 C11 1_555 1_555
H11 C12 1_555 1_555
C13 O4 1_555 1_555
H12 C13 1_555 1_555
C14 O1 1_555 1_555
Cu1A N2 1_555 1_555
Cu1C O2 1_555 1_555
Cu1C_2 O5 1_555 1_555
N2B Cu1 1_555 1_555
O2C Cu1 1_555 1_555
O5C Cu1 1_555 1_555
C4 C5 1_555 1_555
C7 C8 1_555 1_555
C9 C10 1_555 1_555
C12 C13 1_555 1_555
C13 C14 1_555 1_555

#END
