
#######################################################################
#
#                 Cambridge Crystallographic Data Centre
#                                CCDC 
#
#######################################################################
#
# If this CIF has been generated from an entry in the Cambridge 
# Structural Database, then it will include bibliographic, chemical, 
# crystal, experimental, refinement or atomic coordinate data resulting 
# from the CCDC's data processing and validation procedures.
#
#######################################################################

data_CELLUC
_symmetry_cell_setting           triclinic
_symmetry_space_group_name_H-M   'P -1'
_symmetry_Int_Tables_number      2
_space_group_name_Hall           '-P 1'
loop_
_symmetry_equiv_pos_site_id
_symmetry_equiv_pos_as_xyz
1 x,y,z
2 -x,-y,-z
_cell_length_a                   8.9107(14)
_cell_length_b                   10.3801(17)
_cell_length_c                   12.910(2)
_cell_angle_alpha                106.420(10)
_cell_angle_beta                 109.590(11)
_cell_angle_gamma                98.640(12)
_cell_volume                     1038.68
loop_
_atom_site_label
_atom_site_type_symbol
_atom_site_fract_x
_atom_site_fract_y
_atom_site_fract_z
Cd1 Cd 0.170489(15) 0.941835(12) 0.369358(12)
Na1 Na -0.49485(8) 0.66519(7) 0.46676(6)
S1 S -0.48382(5) 0.33771(4) 0.27851(4)
O1 O -0.55413(15) 0.37011(15) 0.17419(11)
O2 O -0.54074(16) 0.19135(13) 0.25983(13)
O3 O -0.50099(15) 0.42786(13) 0.38017(11)
C1 C -0.26767(19) 0.37101(16) 0.31487(14)
C2 C -0.1783(2) 0.50076(16) 0.32798(14)
H1 H -0.2322 0.5689 0.3167
C3 C -0.00892(19) 0.52873(15) 0.35787(14)
C4 C 0.0708(2) 0.42646(16) 0.37538(14)
H2 H 0.1844 0.4447 0.3957
C5 C -0.0189(2) 0.29713(16) 0.36250(14)
C6 C -0.1886(2) 0.26968(16) 0.33223(14)
H3 H -0.2486 0.1832 0.3237
C7 C 0.0845(2) 0.67020(16) 0.37039(15)
O4 O -0.00013(16) 0.75515(12) 0.35525(13)
O5 O 0.23537(15) 0.69811(12) 0.39474(12)
C8 C 0.0650(2) 0.18378(17) 0.37619(15)
O6 O 0.21713(15) 0.20956(13) 0.41211(13)
O7 O -0.02714(15) 0.06174(11) 0.34578(11)
O8 O 0.0975(2) 0.85452(15) 0.16819(12)
C9 C 0.1679(3) 0.9053(2) 0.11636(19)
H4 H 0.2683 0.9729 0.1621
N1 N 0.1136(2) 0.87254(19) 0.00170(15)
C10 C 0.2087(3) 0.9430(3) -0.0492(2)
H5 H 0.2946 1.0218 0.0121
H6 H 0.1366 0.9740 -0.1052
H7 H 0.2574 0.8792 -0.0881
C11 C -0.0414(3) 0.7687(3) -0.0773(2)
H8 H -0.0197 0.6880 -0.1219
H9 H -0.1081 0.8067 -0.1300
H10 H -0.0992 0.7426 -0.0324
O9 O -0.46295(18) 0.72226(14) 0.30964(12)
C12 C -0.5672(3) 0.6609(2) 0.2086(2)
H11 H -0.6641 0.6012 0.1984
N2 N -0.5518(3) 0.67341(19) 0.11298(16)
C13 C -0.6794(4) 0.5923(3) -0.0036(2)
H12 H -0.7603 0.5258 0.0024
H13 H -0.6301 0.5441 -0.0529
H14 H -0.7318 0.6536 -0.0373
C14 C -0.4017(4) 0.7664(3) 0.1246(2)
H15 H -0.4087 0.8609 0.1475
H16 H -0.3905 0.7409 0.0506
H17 H -0.3072 0.7583 0.1835
O10 O 0.25576(17) 1.02107(13) 0.57237(12)
H18 H 0.182(2) 0.996(2) 0.5930(19)
H19 H 0.306(2) 1.1040(8) 0.6114(16)
O11 O 0.43246(17) 1.03696(18) 0.39289(14)
H20 H 0.442(3) 1.089(2) 0.356(2)
H21 H 0.501(2) 0.992(2) 0.392(2)
Cd1_2 Cd 0.170489(15) -0.058165(12) 0.369358(12)
Na1A Na -0.50515(8) 0.33481(7) 0.53324(6)
Na1_2 Na 0.50515(8) 0.66519(7) 0.46676(6)
Na1A_2 Na 0.49485(8) 0.33481(7) 0.53324(6)
O3A O -0.49901(15) 0.57214(13) 0.61983(11)
O5_2 O -0.76463(15) 0.69811(12) 0.39474(12)
O6_2 O 0.21713(15) 1.20956(13) 0.41211(13)
O6A O -0.21713(15) 0.79044(13) 0.58789(13)
O7_2 O -0.02714(15) 1.06174(11) 0.34578(11)
loop_
_geom_bond_atom_site_label_1
_geom_bond_atom_site_label_2
_geom_bond_site_symmetry_1
_geom_bond_site_symmetry_2
Cd1 O4 1_555 1_555
Na1 O3 1_555 1_555
S1 O1 1_555 1_555
O2 S1 1_555 1_555
O3 S1 1_555 1_555
C1 S1 1_555 1_555
C2 C1 1_555 1_555
H1 C2 1_555 1_555
C3 C2 1_555 1_555
C4 C3 1_555 1_555
H2 C4 1_555 1_555
C5 C4 1_555 1_555
C6 C1 1_555 1_555
H3 C6 1_555 1_555
C7 C3 1_555 1_555
O4 C7 1_555 1_555
O5 Cd1 1_555 1_555
C8 C5 1_555 1_555
O6 C8 1_555 1_555
O7 C8 1_555 1_555
O8 Cd1 1_555 1_555
C9 O8 1_555 1_555
H4 C9 1_555 1_555
N1 C9 1_555 1_555
C10 N1 1_555 1_555
H5 C10 1_555 1_555
H6 C10 1_555 1_555
H7 C10 1_555 1_555
C11 N1 1_555 1_555
H8 C11 1_555 1_555
H9 C11 1_555 1_555
H10 C11 1_555 1_555
O9 Na1 1_555 1_555
C12 O9 1_555 1_555
H11 C12 1_555 1_555
N2 C12 1_555 1_555
C13 N2 1_555 1_555
H12 C13 1_555 1_555
H13 C13 1_555 1_555
H14 C13 1_555 1_555
C14 N2 1_555 1_555
H15 C14 1_555 1_555
H16 C14 1_555 1_555
H17 C14 1_555 1_555
O10 Cd1 1_555 1_555
H18 O10 1_555 1_555
H19 O10 1_555 1_555
O11 Cd1 1_555 1_555
H20 O11 1_555 1_555
H21 O11 1_555 1_555
Cd1_2 O6 1_555 1_555
Na1A O3 1_555 1_555
Na1_2 O5 1_555 1_555
Na1A_2 O6 1_555 1_555
O3A Na1 1_555 1_555
O5_2 Na1 1_555 1_555
O6_2 Cd1 1_555 1_555
O6A Na1 1_555 1_555
O7_2 Cd1 1_555 1_555
C5 C6 1_555 1_555
C7 O5 1_555 1_555
O7 Cd1_2 1_555 1_555
Na1A O3A 1_555 1_555

#END
