
#######################################################################
#
#                 Cambridge Crystallographic Data Centre
#                                CCDC 
#
#######################################################################
#
# If this CIF has been generated from an entry in the Cambridge 
# Structural Database, then it will include bibliographic, chemical, 
# crystal, experimental, refinement or atomic coordinate data resulting 
# from the CCDC's data processing and validation procedures.
#
#######################################################################

data_CELMAJ
_symmetry_cell_setting           triclinic
_symmetry_space_group_name_H-M   'P -1'
_symmetry_Int_Tables_number      2
_space_group_name_Hall           '-P 1'
loop_
_symmetry_equiv_pos_site_id
_symmetry_equiv_pos_as_xyz
1 x,y,z
2 -x,-y,-z
_cell_length_a                   8.936(2)
_cell_length_b                   12.821(2)
_cell_length_c                   17.109(3)
_cell_angle_alpha                102.640(10)
_cell_angle_beta                 93.320(10)
_cell_angle_gamma                100.240(10)
_cell_volume                     1872.59
loop_
_atom_site_label
_atom_site_type_symbol
_atom_site_fract_x
_atom_site_fract_y
_atom_site_fract_z
Cd1 Cd 0.64097(6) 0.86071(5) 0.37088(4)
Cd2 Cd 0.70391(6) 0.36693(5) 0.06685(4)
S1 S 0.8358(2) 0.72818(16) 0.48554(12)
O1 O 0.6921(5) 0.7385(4) 0.4459(3)
O2 O 0.9226(5) 0.8304(4) 0.5323(3)
O3 O 0.8120(6) 0.6446(4) 0.5306(3)
C1 C 0.9445(8) 0.6846(6) 0.4060(5)
C2 C 0.8715(8) 0.6139(5) 0.3351(4)
H1 H 0.7667 0.5876 0.3305
C3 C 0.9553(8) 0.5826(6) 0.2709(4)
C4 C 1.1118(8) 0.6232(6) 0.2787(5)
H2 H 1.1682 0.6015 0.2361
C5 C 1.1860(8) 0.6954(6) 0.3486(5)
C6 C 1.1007(8) 0.7260(6) 0.4119(4)
H3 H 1.1485 0.7747 0.4589
C7 C 0.8773(9) 0.5090(6) 0.1938(5)
O4 O 0.9509(6) 0.4835(5) 0.1361(3)
O5 O 0.7349(6) 0.4762(5) 0.1925(3)
C8 C 1.3516(9) 0.7488(6) 0.3533(5)
O6 O 1.4319(6) 0.7208(5) 0.3003(4)
O7 O 1.4008(6) 0.8296(4) 0.4140(3)
S2 S 1.4709(2) 1.06603(15) 0.31517(12)
O8 O 1.5001(6) 1.1429(4) 0.2652(4)
O9 O 1.5952(6) 1.0083(4) 0.3202(4)
O10 O 1.4279(6) 1.1175(5) 0.3924(4)
C9 C 1.3112(9) 0.9650(6) 0.2677(5)
C10 C 1.1717(8) 0.9571(5) 0.2978(5)
H4 H 1.1611 1.0042 0.3460
C11 C 1.0468(8) 0.8805(5) 0.2579(4)
C12 C 1.0639(8) 0.8136(6) 0.1856(4)
H5 H 0.9797 0.7635 0.1570
C13 C 1.2051(8) 0.8195(5) 0.1542(4)
C14 C 1.3297(8) 0.8933(5) 0.1966(4)
H6 H 1.4257 0.8953 0.1779
C15 C 0.9007(7) 0.8698(6) 0.2954(5)
O11 O 0.7812(6) 0.8110(4) 0.2558(3)
O12 O 0.9002(5) 0.9197(4) 0.3670(3)
C16 C 1.2268(9) 0.7449(6) 0.0768(5)
O13 O 1.3615(6) 0.7527(4) 0.0557(3)
O14 O 1.1161(6) 0.6790(4) 0.0363(3)
O15 O 0.7134(7) 0.5122(4) 0.0033(4)
Na1 Na 1.0000 1.0000 0.5000
O16 O 0.7075(6) 0.9897(4) 0.4983(3)
Na2 Na 1.0000 0.5000 0.0000
O17 O 0.4510(6) 0.3172(5) 0.0832(4)
C21 C 0.4015(10) 0.2235(8) 0.0859(6)
H19 H 0.4729 0.1824 0.0965
N2 N 0.2578(9) 0.1747(7) 0.0755(5)
C22 C 0.2120(13) 0.0640(10) 0.0829(8)
H20 H 0.3010 0.0329 0.0885
H21 H 0.1572 0.0632 0.1294
H22 H 0.1472 0.0221 0.0357
C23 C 0.1363(11) 0.2296(11) 0.0572(8)
H23 H 0.1755 0.3066 0.0675
H24 H 0.0976 0.2026 0.0015
H25 H 0.0554 0.2160 0.0904
O18 O 0.7521(7) 0.2223(5) 0.1176(4)
C24 C 0.8221(11) 0.2306(8) 0.1844(6)
H26 H 0.8553 0.2999 0.2175
N3 N 0.8518(9) 0.1463(6) 0.2106(5)
C25 C 0.7945(11) 0.0377(8) 0.1630(6)
H27 H 0.7496 0.0412 0.1115
H28 H 0.8771 -0.0011 0.1555
H29 H 0.7186 0.0005 0.1901
C26 C 0.9317(12) 0.1613(9) 0.2896(6)
H30 H 0.9523 0.2373 0.3162
H31 H 0.8694 0.1207 0.3209
H32 H 1.0263 0.1361 0.2841
Cd1A Cd 1.35903(6) 1.13929(5) 0.62912(4)
Cd1_2 Cd 1.64097(6) 0.86071(5) 0.37088(4)
Cd1A_2 Cd 0.35903(6) 1.13929(5) 0.62912(4)
Cd2A Cd 1.29609(6) 1.63307(5) 0.93315(4)
Cd2A_2 Cd 1.29609(6) 0.63307(5) -0.06685(4)
Cd2_2 Cd 0.70391(6) 1.36693(5) 1.06685(4)
S1A S 1.1642(2) 1.27182(16) 0.51446(12)
O1A O 1.3079(5) 1.2615(4) 0.5541(3)
O2A O 1.0774(5) 1.1696(4) 0.4677(3)
O3A O 1.1880(6) 1.3554(4) 0.4694(3)
C1A C 1.0555(8) 1.3154(6) 0.5940(5)
C2A C 1.1285(8) 1.3861(5) 0.6649(4)
H1A H 1.2333 1.4124 0.6695
C3A C 1.0447(8) 1.4174(6) 0.7291(4)
C4A C 0.8882(8) 1.3768(6) 0.7213(5)
H2A H 0.8318 1.3985 0.7639
C5A C 0.8140(8) 1.3046(6) 0.6514(5)
C6A C 0.8993(8) 1.2740(6) 0.5881(4)
H3A H 0.8515 1.2253 0.5411
C7A C 1.1227(9) 1.4910(6) 0.8062(5)
O4A O 1.0491(6) 1.5165(5) 0.8639(3)
O4A_2 O 1.0491(6) 0.5165(5) -0.1361(3)
O5A O 1.2651(6) 1.5238(5) 0.8075(3)
C8A C 0.6484(9) 1.2512(6) 0.6467(5)
O6A O 0.5681(6) 1.2792(5) 0.6997(4)
O6_2 O 0.4319(6) 0.7208(5) 0.3003(4)
O6A_2 O 1.5681(6) 1.2792(5) 0.6997(4)
O7A O 0.5992(6) 1.1704(4) 0.5860(3)
O7_2 O 0.4008(6) 0.8296(4) 0.4140(3)
O7A_2 O 1.5992(6) 1.1704(4) 0.5860(3)
S2A S 0.5291(2) 0.93397(15) 0.68483(12)
O8A O 0.4999(6) 0.8571(4) 0.7348(4)
O9A O 0.4048(6) 0.9917(4) 0.6798(4)
O9_2 O 0.5952(6) 1.0083(4) 0.3202(4)
O9A_2 O 1.4048(6) 0.9917(4) 0.6798(4)
O10A O 0.5721(6) 0.8825(5) 0.6076(4)
C9A C 0.6888(9) 1.0350(6) 0.7323(5)
C10A C 0.8283(8) 1.0429(5) 0.7022(5)
H4A H 0.8389 0.9958 0.6540
C11A C 0.9532(8) 1.1195(5) 0.7421(4)
C12A C 0.9361(8) 1.1864(6) 0.8144(4)
H5A H 1.0203 1.2365 0.8430
C13A C 0.7949(8) 1.1805(5) 0.8458(4)
C14A C 0.6703(8) 1.1067(5) 0.8034(4)
H6A H 0.5743 1.1047 0.8221
C15A C 1.0993(7) 1.1302(6) 0.7046(5)
O11A O 1.2188(6) 1.1890(4) 0.7442(3)
O12A O 1.0998(5) 1.0803(4) 0.6330(3)
C16A C 0.7732(9) 1.2551(6) 0.9232(5)
O13A O 0.6385(6) 1.2473(4) 0.9443(3)
O13A_2 O 0.6385(6) 0.2473(4) -0.0557(3)
O13_2 O 1.3615(6) 1.7527(4) 1.0557(3)
O14A O 0.8839(6) 1.3210(4) 0.9637(3)
O14A_2 O 0.8839(6) 0.3210(4) -0.0363(3)
O14_2 O 1.1161(6) 1.6790(4) 1.0363(3)
O15A O 1.2866(7) 0.4878(4) -0.0033(4)
O15A_2 O 1.2866(7) 1.4878(4) 0.9967(4)
O16A O 1.2925(6) 1.0103(4) 0.5017(3)
Na2_2 Na 1.0000 1.5000 1.0000
O17A O 1.5490(6) 1.6828(5) 0.9168(4)
C21A C 1.5985(10) 1.7765(8) 0.9141(6)
H19A H 1.5271 1.8176 0.9035
N2A N 1.7422(9) 1.8253(7) 0.9245(5)
C22A C 1.7880(13) 1.9360(10) 0.9171(8)
H20A H 1.6990 1.9671 0.9115
H21A H 1.8428 1.9368 0.8706
H22A H 1.8528 1.9779 0.9643
C23A C 1.8637(11) 1.7704(11) 0.9428(8)
H23A H 1.8245 1.6934 0.9325
H24A H 1.9024 1.7974 0.9985
H25A H 1.9446 1.7840 0.9096
O18A O 1.2479(7) 1.7777(5) 0.8824(4)
C24A C 1.1779(11) 1.7694(8) 0.8156(6)
H26A H 1.1447 1.7001 0.7825
N3A N 1.1482(9) 1.8537(6) 0.7894(5)
C25A C 1.2055(11) 1.9623(8) 0.8370(6)
H27A H 1.2504 1.9588 0.8885
H28A H 1.1229 2.0011 0.8445
H29A H 1.2814 1.9995 0.8099
C26A C 1.0683(12) 1.8387(9) 0.7104(6)
H30A H 1.0477 1.7627 0.6838
H31A H 1.1306 1.8793 0.6791
H32A H 0.9737 1.8639 0.7159
N1 N 0.4561(10) 0.3490(6) 0.3867(6)
H7 H 0.4508 0.2780 0.3640
H8 H 0.3756 0.3539 0.4156
C17 C 0.4404(17) 0.4050(11) 0.3230(9)
H9 H 0.5162 0.3902 0.2859
H10 H 0.4598 0.4830 0.3458
C18 C 0.2862(18) 0.3710(13) 0.2784(9)
H11 H 0.2682 0.2944 0.2538
H12 H 0.2796 0.4111 0.2375
H13 H 0.2109 0.3854 0.3150
C19 C 0.6028(13) 0.3894(10) 0.4451(9)
H14 H 0.6163 0.4678 0.4644
H15 H 0.5897 0.3573 0.4912
C20 C 0.7391(16) 0.3645(11) 0.4110(9)
H16 H 0.7293 0.2869 0.3942
H17 H 0.8254 0.3939 0.4506
H18 H 0.7536 0.3961 0.3654
O19 O 0.4226(8) 0.5509(5) 0.1581(4)
O20 O -0.6705(8) 0.2865(6) -0.0960(4)
loop_
_geom_bond_atom_site_label_1
_geom_bond_atom_site_label_2
_geom_bond_site_symmetry_1
_geom_bond_site_symmetry_2
Cd1 O1 1_555 1_555
Cd2 O4 1_555 1_555
S1 O1 1_555 1_555
O2 S1 1_555 1_555
O3 S1 1_555 1_555
C1 S1 1_555 1_555
C2 C1 1_555 1_555
H1 C2 1_555 1_555
C3 C2 1_555 1_555
C4 C3 1_555 1_555
H2 C4 1_555 1_555
C5 C4 1_555 1_555
C6 C1 1_555 1_555
H3 C6 1_555 1_555
C7 C3 1_555 1_555
O4 C7 1_555 1_555
O5 Cd2 1_555 1_555
C8 C5 1_555 1_555
O6 C8 1_555 1_555
O7 C8 1_555 1_555
S2 O8 1_555 1_555
O9 S2 1_555 1_555
O10 S2 1_555 1_555
C9 S2 1_555 1_555
C10 C9 1_555 1_555
H4 C10 1_555 1_555
C11 C10 1_555 1_555
C12 C11 1_555 1_555
H5 C12 1_555 1_555
C13 C12 1_555 1_555
C14 C9 1_555 1_555
H6 C14 1_555 1_555
C15 C11 1_555 1_555
O11 Cd1 1_555 1_555
O12 Cd1 1_555 1_555
C16 C13 1_555 1_555
O13 C16 1_555 1_555
O14 C16 1_555 1_555
O15 Cd2 1_555 1_555
Na1 O2 1_555 1_555
O16 Cd1 1_555 1_555
Na2 O4 1_555 1_555
N1 H7 1_555 1_555
H8 N1 1_555 1_555
C17 N1 1_555 1_555
H9 C17 1_555 1_555
H10 C17 1_555 1_555
C18 C17 1_555 1_555
H11 C18 1_555 1_555
H12 C18 1_555 1_555
H13 C18 1_555 1_555
C19 N1 1_555 1_555
H14 C19 1_555 1_555
H15 C19 1_555 1_555
C20 C19 1_555 1_555
H16 C20 1_555 1_555
H17 C20 1_555 1_555
H18 C20 1_555 1_555
O17 Cd2 1_555 1_555
C21 O17 1_555 1_555
H19 C21 1_555 1_555
N2 C21 1_555 1_555
C22 N2 1_555 1_555
H20 C22 1_555 1_555
H21 C22 1_555 1_555
H22 C22 1_555 1_555
C23 N2 1_555 1_555
H23 C23 1_555 1_555
H24 C23 1_555 1_555
H25 C23 1_555 1_555
O18 Cd2 1_555 1_555
C24 O18 1_555 1_555
H26 C24 1_555 1_555
N3 C24 1_555 1_555
C25 N3 1_555 1_555
H27 C25 1_555 1_555
H28 C25 1_555 1_555
H29 C25 1_555 1_555
C26 N3 1_555 1_555
H30 C26 1_555 1_555
H31 C26 1_555 1_555
H32 C26 1_555 1_555
Cd1A O1A 1_555 1_555
Cd1_2 O6 1_555 1_555
Cd1A_2 O6A 1_555 1_555
Cd2A O4A 1_555 1_555
Cd2A_2 O13 1_555 1_555
Cd2_2 O13A 1_555 1_555
S1A O1A 1_555 1_555
O2A Na1 1_555 1_555
O3A S1A 1_555 1_555
C1A S1A 1_555 1_555
C2A C1A 1_555 1_555
H1A C2A 1_555 1_555
C3A C2A 1_555 1_555
C4A C3A 1_555 1_555
H2A C4A 1_555 1_555
C5A C4A 1_555 1_555
C6A C1A 1_555 1_555
H3A C6A 1_555 1_555
C7A C3A 1_555 1_555
O4A C7A 1_555 1_555
O4A_2 Na2 1_555 1_555
O5A Cd2A 1_555 1_555
C8A C5A 1_555 1_555
O6A C8A 1_555 1_555
O6_2 Cd1 1_555 1_555
O6A_2 Cd1A 1_555 1_555
O7A Cd1A_2 1_555 1_555
O7_2 Cd1 1_555 1_555
O7A_2 Cd1A 1_555 1_555
S2A O8A 1_555 1_555
O9A Cd1A_2 1_555 1_555
O9_2 Cd1 1_555 1_555
O9A_2 Cd1A 1_555 1_555
O10A S2A 1_555 1_555
C9A S2A 1_555 1_555
C10A C9A 1_555 1_555
H4A C10A 1_555 1_555
C11A C10A 1_555 1_555
C12A C11A 1_555 1_555
H5A C12A 1_555 1_555
C13A C12A 1_555 1_555
C14A C9A 1_555 1_555
H6A C14A 1_555 1_555
C15A C11A 1_555 1_555
O11A Cd1A 1_555 1_555
O12A Na1 1_555 1_555
C16A C13A 1_555 1_555
O13A C16A 1_555 1_555
O13A_2 Cd2 1_555 1_555
O13_2 Cd2A 1_555 1_555
O14A Cd2_2 1_555 1_555
O14A_2 Cd2 1_555 1_555
O14_2 Cd2A 1_555 1_555
O15A Na2 1_555 1_555
O15A_2 Cd2A 1_555 1_555
O16A Na1 1_555 1_555
Na2_2 O4A 1_555 1_555
O17A Cd2A 1_555 1_555
C21A O17A 1_555 1_555
H19A C21A 1_555 1_555
N2A C21A 1_555 1_555
C22A N2A 1_555 1_555
H20A C22A 1_555 1_555
H21A C22A 1_555 1_555
H22A C22A 1_555 1_555
C23A N2A 1_555 1_555
H23A C23A 1_555 1_555
H24A C23A 1_555 1_555
H25A C23A 1_555 1_555
O18A Cd2A 1_555 1_555
C24A O18A 1_555 1_555
H26A C24A 1_555 1_555
N3A C24A 1_555 1_555
C25A N3A 1_555 1_555
H27A C25A 1_555 1_555
H28A C25A 1_555 1_555
H29A C25A 1_555 1_555
C26A N3A 1_555 1_555
H30A C26A 1_555 1_555
H31A C26A 1_555 1_555
H32A C26A 1_555 1_555
C5 C6 1_555 1_555
C7 O5 1_555 1_555
O7 Cd1_2 1_555 1_555
O9 Cd1_2 1_555 1_555
C13 C14 1_555 1_555
C15 O11 1_555 1_555
C15 O12 1_555 1_555
O12 Na1 1_555 1_555
O14 Na2 1_555 1_555
O14 Cd2A_2 1_555 1_555
O15 Na2 1_555 1_555
Na1 O16 1_555 1_555
Na2 O14A_2 1_555 1_555
Cd1A O12A 1_555 1_555
Cd1A O16A 1_555 1_555
Cd2A_2 O4A_2 1_555 1_555
Cd2A_2 O15A 1_555 1_555
S1A O2A 1_555 1_555
C5A C6A 1_555 1_555
C7A O5A 1_555 1_555
C8A O7A 1_555 1_555
S2A O9A 1_555 1_555
C13A C14A 1_555 1_555
C15A O11A 1_555 1_555
C15A O12A 1_555 1_555
C16A O14A 1_555 1_555
O14A Na2_2 1_555 1_555
O14_2 Na2_2 1_555 1_555
O15A_2 Na2_2 1_555 1_555

#END
