
#######################################################################
#
#                 Cambridge Crystallographic Data Centre
#                                CCDC 
#
#######################################################################
#
# If this CIF has been generated from an entry in the Cambridge 
# Structural Database, then it will include bibliographic, chemical, 
# crystal, experimental, refinement or atomic coordinate data resulting 
# from the CCDC's data processing and validation procedures.
#
#######################################################################

data_CELTIY
_symmetry_cell_setting           monoclinic
_symmetry_space_group_name_H-M   'P 21/n'
_symmetry_Int_Tables_number      14
_space_group_name_Hall           '-P 2yn'
loop_
_symmetry_equiv_pos_site_id
_symmetry_equiv_pos_as_xyz
1 x,y,z
2 1/2-x,1/2+y,1/2-z
3 -x,-y,-z
4 1/2+x,1/2-y,1/2+z
_cell_length_a                   8.4384(2)
_cell_length_b                   17.1177(4)
_cell_length_c                   17.6279(4)
_cell_angle_alpha                90
_cell_angle_beta                 102.7820(10)
_cell_angle_gamma                90
_cell_volume                     2483.18
loop_
_atom_site_label
_atom_site_type_symbol
_atom_site_fract_x
_atom_site_fract_y
_atom_site_fract_z
Co1 Co 0.29751(2) 0.002003(12) 0.231807(12)
N1 N 0.15759(16) -0.06357(8) 0.29912(8)
N2 N 0.43568(16) 0.06440(8) 0.16317(8)
O1 O 0.20468(14) -0.19261(7) 0.13918(7)
C1 C 0.54785(19) 0.03813(9) 0.12672(9)
H1 H 0.5975 -0.0105 0.1357
C2 C 0.08856(19) -0.03768(10) 0.35558(9)
H2 H 0.1030 0.0123 0.3766
O3 O 0.38553(14) -0.10142(6) 0.19023(7)
N3 N 0.39703(17) 0.13627(8) 0.13407(8)
H7 H 0.3269 0.1664 0.1479
N4 N 0.10289(19) -0.13731(8) 0.28527(9)
H8 H 0.1285 -0.1675 0.2509
C4 C -0.00856(19) -0.09540(9) 0.37919(9)
C5 C 0.58190(18) 0.09274(9) 0.07322(9)
C7 C 0.4827(2) 0.15488(10) 0.08036(10)
H11 H 0.4758 0.2016 0.0529
C8 C 0.0037(2) -0.15781(10) 0.33175(11)
H12 H -0.0478 -0.2058 0.3319
O4 O 0.28160(14) -0.39882(6) 0.21769(7)
N5 N 1.08781(16) 0.00619(8) 0.13868(8)
N6 N -0.49833(16) -0.00467(8) 0.32666(8)
C9 C -0.37122(19) -0.05256(10) 0.33527(9)
H13 H -0.3551 -0.0881 0.2978
O5 O 0.28424(16) -0.28594(7) 0.28193(8)
C10 C 0.98449(19) 0.06425(9) 0.11279(9)
H14 H 1.0018 0.1161 0.1283
N7 N 1.01694(16) -0.05848(8) 0.10246(8)
H15 H 1.0584 -0.1045 0.1091
N8 N -0.47562(16) 0.03603(8) 0.39345(8)
H16 H -0.5413 0.0711 0.4033
C11 C -0.26452(19) -0.04273(10) 0.40802(9)
C12 C 0.84686(18) 0.03763(9) 0.05945(9)
C13 C -0.3361(2) 0.01472(10) 0.44312(10)
H17 H -0.2957 0.0354 0.4924
C14 C 0.87284(19) -0.04169(10) 0.05452(9)
H18 H 0.8035 -0.0771 0.0237
C15 C 0.70055(19) 0.08446(10) 0.02106(9)
H19 H 0.6471 0.0590 -0.0270
H20 H 0.7350 0.1359 0.0082
C16 C -0.1111(2) -0.08859(10) 0.43859(10)
H21 H -0.0486 -0.0631 0.4848
H22 H -0.1394 -0.1405 0.4533
C17 C 0.48525(19) -0.22734(9) 0.17469(10)
C18 C 0.47417(19) -0.30343(9) 0.20289(10)
C19 C 0.6068(2) -0.35387(10) 0.20917(11)
H23 H 0.5999 -0.4045 0.2273
C20 C 0.7484(2) -0.32948(11) 0.18868(13)
H24 H 0.8364 -0.3633 0.1939
C21 C 0.7582(2) -0.25461(12) 0.16039(13)
H25 H 0.8526 -0.2382 0.1461
C22 C 0.6277(2) -0.20415(10) 0.15331(12)
H26 H 0.6351 -0.1540 0.1340
C23 C 0.3477(2) -0.16969(9) 0.16766(9)
C24 C 0.33283(19) -0.33079(9) 0.23558(9)
Co1_2 Co -0.70249(2) 0.002003(12) 0.231807(12)
Co1_3 Co 1.29751(2) 0.002003(12) 0.231807(12)
Co1A Co 0.20249(2) -0.497997(12) 0.268193(12)
O4A O 0.21840(14) 0.10118(6) 0.28231(7)
N5_2 N 0.08781(16) 0.00619(8) 0.13868(8)
N6_2 N 0.50167(16) -0.00467(8) 0.32666(8)
O2 O 0.1326(4) -0.33343(17) 0.04986(17)
H3 H 0.1554 -0.2941 0.0766
C3 C -0.1156(4) -0.2659(2) -0.0215(2)
H4 H -0.1737 -0.2551 -0.0737
H5 H -0.0852 -0.2177 0.0056
H6 H -0.1838 -0.2954 0.0049
C6 C 0.0351(5) -0.3126(3) -0.0236(2)
H9 H 0.0025 -0.3601 -0.0530
H10 H 0.1013 -0.2826 -0.0517
C25? C -0.1107(8) -0.3188(4) -0.0548(4)
C26? C 0.0371(6) -0.2822(4) -0.0140(3)
H27? H -0.1503 -0.2925 -0.1033
H28? H -0.1907 -0.3158 -0.0237
H29? H -0.0898 -0.3726 -0.0645
H30? H 0.1388 -0.2936 0.0930
H31? H 0.0160 -0.2283 -0.0026
H32? H 0.1167 -0.2828 -0.0461
O6? O 0.1000(4) -0.3247(2) 0.0585(2)
loop_
_geom_bond_atom_site_label_1
_geom_bond_atom_site_label_2
_geom_bond_site_symmetry_1
_geom_bond_site_symmetry_2
Co1 N1 1_555 1_555
N1 C2 1_555 1_555
N2 Co1 1_555 1_555
O1 C23 1_555 1_555
C1 N2 1_555 1_555
H1 C1 1_555 1_555
C2 H2 1_555 1_555
O2 H3 1_555 1_555
C3 H4 1_555 1_555
H5 C3 1_555 1_555
H6 C3 1_555 1_555
O3 Co1 1_555 1_555
N3 N2 1_555 1_555
H7 N3 1_555 1_555
N4 N1 1_555 1_555
H8 N4 1_555 1_555
C4 C2 1_555 1_555
C5 C1 1_555 1_555
C6 O2 1_555 1_555
H9 C6 1_555 1_555
H10 C6 1_555 1_555
C7 N3 1_555 1_555
H11 C7 1_555 1_555
C8 N4 1_555 1_555
H12 C8 1_555 1_555
O4 C24 1_555 1_555
N5 C10 1_555 1_555
N6 C9 1_555 1_555
C9 H13 1_555 1_555
O5 C24 1_555 1_555
C10 H14 1_555 1_555
N7 N5 1_555 1_555
H15 N7 1_555 1_555
N8 N6 1_555 1_555
H16 N8 1_555 1_555
C11 C9 1_555 1_555
C12 C10 1_555 1_555
C13 N8 1_555 1_555
H17 C13 1_555 1_555
C14 N7 1_555 1_555
H18 C14 1_555 1_555
C15 C5 1_555 1_555
H19 C15 1_555 1_555
H20 C15 1_555 1_555
C16 C4 1_555 1_555
H21 C16 1_555 1_555
H22 C16 1_555 1_555
C17 C18 1_555 1_555
C18 C19 1_555 1_555
C19 H23 1_555 1_555
C20 C19 1_555 1_555
H24 C20 1_555 1_555
C21 C20 1_555 1_555
H25 C21 1_555 1_555
C22 C17 1_555 1_555
H26 C22 1_555 1_555
C23 O3 1_555 1_555
C24 C18 1_555 1_555
Co1_2 N6 1_555 1_555
Co1_3 N5 1_555 1_555
Co1A O4 1_555 1_555
O4A Co1 1_555 1_555
N5_2 Co1 1_555 1_555
N6_2 Co1 1_555 1_555
C3 C6 1_555 1_555
C4 C8 1_555 1_555
C5 C7 1_555 1_555
C11 C13 1_555 1_555
C11 C16 1_555 1_555
C12 C14 1_555 1_555
C12 C15 1_555 1_555
C17 C23 1_555 1_555
C21 C22 1_555 1_555

#END
