
#######################################################################
#
#                 Cambridge Crystallographic Data Centre
#                                CCDC 
#
#######################################################################
#
# If this CIF has been generated from an entry in the Cambridge 
# Structural Database, then it will include bibliographic, chemical, 
# crystal, experimental, refinement or atomic coordinate data resulting 
# from the CCDC's data processing and validation procedures.
#
#######################################################################

data_CELTAQ
_symmetry_cell_setting           triclinic
_symmetry_space_group_name_H-M   'P -1'
_symmetry_Int_Tables_number      2
_space_group_name_Hall           '-P 1'
loop_
_symmetry_equiv_pos_site_id
_symmetry_equiv_pos_as_xyz
1 x,y,z
2 -x,-y,-z
_cell_length_a                   8.8840(17)
_cell_length_b                   9.2436(17)
_cell_length_c                   9.2474(17)
_cell_angle_alpha                60.728(5)
_cell_angle_beta                 72.206(5)
_cell_angle_gamma                70.267(6)
_cell_volume                     614.332
loop_
_atom_site_label
_atom_site_type_symbol
_atom_site_fract_x
_atom_site_fract_y
_atom_site_fract_z
Co1 Co 0.0000 0.0000 0.0000
N1 N -0.0658(3) -0.1596(3) 0.2580(3)
O1 O -0.2392(3) 0.1518(3) 0.0129(3)
H1 H -0.285(5) 0.219(5) -0.068(6)
H2 H -0.278(5) 0.173(5) 0.093(5)
C1 C -0.0065(4) -0.2109(4) 0.3960(4)
H3 H 0.0817 -0.1787 0.3966
N3 N -0.1917(3) -0.2353(3) 0.3137(3)
H7 H -0.2519 -0.2233 0.2496
C3 C -0.0936(3) -0.3195(4) 0.5400(4)
C4 C -0.2115(4) -0.3314(4) 0.4808(4)
H8 H -0.2903 -0.3945 0.5447
N4 N -0.0884(3) -0.1341(3) 0.9208(3)
C5 C -0.2569(3) -0.1706(4) 0.8116(4)
H10 H -0.3505 -0.1568 0.7767
N5 N -0.2391(3) -0.0841(3) 0.8845(3)
H11 H -0.3146 -0.0060 0.9056
C6 C -0.1120(4) -0.2833(4) 0.7978(3)
C7 C -0.0105(3) -0.2557(4) 0.8677(4)
H12 H 0.0969 -0.3144 0.8761
C8 C -0.0685(4) -0.4050(4) 0.7204(4)
H13 H -0.1340 -0.4893 0.7863
H14 H 0.0444 -0.4644 0.7254
Co1_2 Co 0.0000 0.0000 1.0000
Co1_3 Co 0.0000 0.0000 -1.0000
N1A N 0.0658(3) 0.1596(3) -0.2580(3)
O1A O 0.2392(3) -0.1518(3) -0.0129(3)
H1A H 0.285(5) -0.219(5) 0.068(6)
H2A H 0.278(5) -0.173(5) -0.093(5)
C1A C 0.0065(4) 0.2109(4) -0.3960(4)
H3A H -0.0817 0.1787 -0.3966
N3A N 0.1917(3) 0.2353(3) -0.3137(3)
H7A H 0.2519 0.2233 -0.2496
C3A C 0.0936(3) 0.3195(4) -0.5400(4)
C4A C 0.2115(4) 0.3314(4) -0.4808(4)
H8A H 0.2903 0.3945 -0.5447
N4_2 N -0.0884(3) -0.1341(3) -0.0792(3)
N4A N 0.0884(3) 0.1341(3) 0.0792(3)
N4A_2 N 0.0884(3) 0.1341(3) -0.9208(3)
C5A C 0.2569(3) 0.1706(4) -0.8116(4)
H10A H 0.3505 0.1568 -0.7767
N5A N 0.2391(3) 0.0841(3) -0.8845(3)
H11A H 0.3146 0.0060 -0.9056
C6A C 0.1120(4) 0.2833(4) -0.7978(3)
C7A C 0.0105(3) 0.2557(4) -0.8677(4)
H12A H -0.0969 0.3144 -0.8761
C8A C 0.0685(4) 0.4050(4) -0.7204(4)
H13A H 0.1340 0.4893 -0.7863
H14A H -0.0444 0.4644 -0.7254
C2 C 0.6442(4) 0.1377(5) 0.4282(4)
H4 H 0.6924 0.0210 0.4481
H5 H 0.5548 0.1424 0.5171
H6 H 0.7238 0.1888 0.4249
O5 O 0.5875(3) 0.2277(3) 0.2717(3)
H9 H 0.558(5) 0.323(6) 0.256(5)
N2 N 0.5329(3) 0.6347(4) 0.2297(4)
O2 O 0.6567(8) 0.5318(7) 0.2850(10)
O3 O 0.5087(3) 0.7877(3) 0.1962(3)
O4 O 0.4353(3) 0.5819(3) 0.2024(3)
O6? O 0.6191(15) 0.5185(15) 0.3483(16)
O7? O 0.6802(12) 0.5545(13) 0.2230(15)
loop_
_geom_bond_atom_site_label_1
_geom_bond_atom_site_label_2
_geom_bond_site_symmetry_1
_geom_bond_site_symmetry_2
Co1 N1 1_555 1_555
N1 C1 1_555 1_555
O1 Co1 1_555 1_555
H1 O1 1_555 1_555
H2 O1 1_555 1_555
C1 H3 1_555 1_555
C2 H4 1_555 1_555
H5 C2 1_555 1_555
H6 C2 1_555 1_555
N2 O2 1_555 1_555
N3 N1 1_555 1_555
H7 N3 1_555 1_555
C3 C1 1_555 1_555
O3 N2 1_555 1_555
C4 N3 1_555 1_555
H8 C4 1_555 1_555
O4 N2 1_555 1_555
N4 N5 1_555 1_555
O5 C2 1_555 1_555
H9 O5 1_555 1_555
C5 H10 1_555 1_555
N5 C5 1_555 1_555
H11 N5 1_555 1_555
C6 C5 1_555 1_555
C7 N4 1_555 1_555
H12 C7 1_555 1_555
C8 C3 1_555 1_555
H13 C8 1_555 1_555
H14 C8 1_555 1_555
Co1_2 N4 1_555 1_555
Co1_3 N4A_2 1_555 1_555
N1A Co1 1_555 1_555
O1A Co1 1_555 1_555
H1A O1A 1_555 1_555
H2A O1A 1_555 1_555
C1A N1A 1_555 1_555
H3A C1A 1_555 1_555
N3A N1A 1_555 1_555
H7A N3A 1_555 1_555
C3A C1A 1_555 1_555
C4A N3A 1_555 1_555
H8A C4A 1_555 1_555
N4_2 Co1 1_555 1_555
N4A Co1 1_555 1_555
N4A_2 N5A 1_555 1_555
C5A H10A 1_555 1_555
N5A C5A 1_555 1_555
H11A N5A 1_555 1_555
C6A C5A 1_555 1_555
C7A N4A_2 1_555 1_555
H12A C7A 1_555 1_555
C8A C3A 1_555 1_555
H13A C8A 1_555 1_555
H14A C8A 1_555 1_555
C3 C4 1_555 1_555
C6 C7 1_555 1_555
C6 C8 1_555 1_555
C3A C4A 1_555 1_555
C6A C7A 1_555 1_555
C6A C8A 1_555 1_555

#END
