
#######################################################################
#
#                 Cambridge Crystallographic Data Centre
#                                CCDC 
#
#######################################################################
#
# If this CIF has been generated from an entry in the Cambridge 
# Structural Database, then it will include bibliographic, chemical, 
# crystal, experimental, refinement or atomic coordinate data resulting 
# from the CCDC's data processing and validation procedures.
#
#######################################################################

data_CELVIA
_symmetry_cell_setting           triclinic
_symmetry_space_group_name_H-M   'P -1'
_symmetry_Int_Tables_number      2
_space_group_name_Hall           '-P 1'
loop_
_symmetry_equiv_pos_site_id
_symmetry_equiv_pos_as_xyz
1 x,y,z
2 -x,-y,-z
_cell_length_a                   8.7340(3)
_cell_length_b                   8.8034(3)
_cell_length_c                   9.5943(3)
_cell_angle_alpha                85.0680(10)
_cell_angle_beta                 89.4750(10)
_cell_angle_gamma                65.3650(10)
_cell_volume                     667.779
loop_
_atom_site_label
_atom_site_type_symbol
_atom_site_fract_x
_atom_site_fract_y
_atom_site_fract_z
Co1 Co 0.0000 0.0000 0.0000
O1 O 0.10675(16) -0.08456(16) -0.19163(14)
N1 N 0.09814(19) 0.18753(19) -0.00706(17)
C1 C 0.1715(2) 0.2510(2) -0.1037(2)
H1 H 0.1833 0.2252 -0.1963
O3 O 0.04406(17) 0.11797(16) -0.36642(14)
N2 N 0.1091(2) 0.25612(19) 0.11030(17)
H4 H 0.0714 0.2358 0.1896
C2 C 0.2285(2) 0.3608(2) -0.0488(2)
C3 C 0.1857(2) 0.3601(2) 0.0889(2)
H7 H 0.2061 0.4206 0.1556
N3 N 0.76886(19) 0.17143(19) -0.09913(16)
C4 C 0.6111(2) 0.2268(2) -0.0543(2)
H8 H 0.5799 0.1819 0.0265
N4 N 0.75884(19) 0.26972(19) -0.21726(17)
H9 H 0.8436 0.2616 -0.2674
C5 C 0.4991(2) 0.3597(2) -0.1429(2)
C6 C 0.5997(2) 0.3821(2) -0.2470(2)
H10 H 0.5637 0.4611 -0.3243
C7 C 0.3135(2) 0.4597(2) -0.1246(2)
H11 H 0.2980 0.5550 -0.0732
H12 H 0.2592 0.5029 -0.2161
C8 C 0.1291(2) -0.0281(2) -0.3109(2)
C9 C 0.2722(2) -0.1467(2) -0.3945(2)
H13 H 0.3363 -0.2486 -0.3352
H14 H 0.2245 -0.1771 -0.4727
C10 C 0.3900(2) -0.0709(2) -0.4497(2)
C11 C 0.4982(2) -0.0452(2) -0.3594(2)
H15 H 0.4977 -0.0749 -0.2641
C12 C 0.3925(2) -0.0242(2) -0.5916(2)
H16 H 0.3205 -0.0394 -0.6542
Co1_2 Co -1.0000 0.0000 0.0000
Co1_3 Co 1.0000 0.0000 -1.0000
Co1_4 Co 1.0000 0.0000 0.0000
O1A O 0.89325(16) 0.08456(16) -0.80837(14)
O1A_2 O -0.10675(16) 0.08456(16) 0.19163(14)
N1A N -0.09814(19) -0.18753(19) 0.00706(17)
C1A C -0.1715(2) -0.2510(2) 0.1037(2)
H1A H -0.1833 -0.2252 0.1963
O3A O 0.95594(17) -0.11797(16) -0.63358(14)
N2A N -0.1091(2) -0.25612(19) -0.11030(17)
H4A H -0.0714 -0.2358 -0.1896
C2A C -0.2285(2) -0.3608(2) 0.0488(2)
C3A C -0.1857(2) -0.3601(2) -0.0889(2)
H7A H -0.2061 -0.4206 -0.1556
N3A N -0.76886(19) -0.17143(19) 0.09913(16)
N3_2 N -0.23114(19) 0.17143(19) -0.09913(16)
N3A_2 N 0.23114(19) -0.17143(19) 0.09913(16)
C4A C -0.6111(2) -0.2268(2) 0.0543(2)
H8A H -0.5799 -0.1819 -0.0265
N4A N -0.75884(19) -0.26972(19) 0.21726(17)
H9A H -0.8436 -0.2616 0.2674
C5A C -0.4991(2) -0.3597(2) 0.1429(2)
C6A C -0.5997(2) -0.3821(2) 0.2470(2)
H10A H -0.5637 -0.4611 0.3243
C7A C -0.3135(2) -0.4597(2) 0.1246(2)
H11A H -0.2980 -0.5550 0.0732
H12A H -0.2592 -0.5029 0.2161
C8A C 0.8709(2) 0.0281(2) -0.6891(2)
C9A C 0.7278(2) 0.1467(2) -0.6055(2)
H13A H 0.6637 0.2486 -0.6648
H14A H 0.7755 0.1771 -0.5273
C10A C 0.6100(2) 0.0709(2) -0.5503(2)
C11A C 0.5018(2) 0.0452(2) -0.6406(2)
H15A H 0.5023 0.0749 -0.7359
C12A C 0.6075(2) 0.0242(2) -0.4084(2)
H16A H 0.6795 0.0394 -0.3458
O2 O 0.2591(2) 0.4230(2) 0.5052(2)
H2 H 0.182(3) 0.388(3) 0.458(3)
H3 H 0.352(5) 0.331(5) 0.541(6)
O4 O 0.0300(2) 0.3140(2) 0.39693(17)
H5 H 0.047(3) 0.237(3) 0.467(3)
H6 H -0.070(4) 0.406(4) 0.417(3)
loop_
_geom_bond_atom_site_label_1
_geom_bond_atom_site_label_2
_geom_bond_site_symmetry_1
_geom_bond_site_symmetry_2
Co1 O1 1_555 1_555
O1 C8 1_555 1_555
N1 Co1 1_555 1_555
C1 N1 1_555 1_555
H1 C1 1_555 1_555
O2 H2 1_555 1_555
H3 O2 1_555 1_555
O3 C8 1_555 1_555
N2 N1 1_555 1_555
H4 N2 1_555 1_555
O4 H5 1_555 1_555
H6 O4 1_555 1_555
C2 C1 1_555 1_555
C3 N2 1_555 1_555
H7 C3 1_555 1_555
N3 C4 1_555 1_555
C4 H8 1_555 1_555
N4 N3 1_555 1_555
H9 N4 1_555 1_555
C5 C4 1_555 1_555
C6 N4 1_555 1_555
H10 C6 1_555 1_555
C7 C2 1_555 1_555
H11 C7 1_555 1_555
H12 C7 1_555 1_555
C8 C9 1_555 1_555
C9 H13 1_555 1_555
H14 C9 1_555 1_555
C10 C9 1_555 1_555
C11 C10 1_555 1_555
H15 C11 1_555 1_555
C12 C10 1_555 1_555
H16 C12 1_555 1_555
Co1_2 N3A 1_555 1_555
Co1_3 O1A 1_555 1_555
Co1_4 N3 1_555 1_555
O1A C8A 1_555 1_555
O1A_2 Co1 1_555 1_555
N1A Co1 1_555 1_555
C1A N1A 1_555 1_555
H1A C1A 1_555 1_555
O3A C8A 1_555 1_555
N2A N1A 1_555 1_555
H4A N2A 1_555 1_555
C2A C1A 1_555 1_555
C3A N2A 1_555 1_555
H7A C3A 1_555 1_555
N3A C4A 1_555 1_555
N3_2 Co1 1_555 1_555
N3A_2 Co1 1_555 1_555
C4A H8A 1_555 1_555
N4A N3A 1_555 1_555
H9A N4A 1_555 1_555
C5A C4A 1_555 1_555
C6A N4A 1_555 1_555
H10A C6A 1_555 1_555
C7A C2A 1_555 1_555
H11A C7A 1_555 1_555
H12A C7A 1_555 1_555
C8A C9A 1_555 1_555
C9A H13A 1_555 1_555
H14A C9A 1_555 1_555
C10A C9A 1_555 1_555
C11A C12 1_555 1_555
H15A C11A 1_555 1_555
C12A C11 1_555 1_555
H16A C12A 1_555 1_555
C2 C3 1_555 1_555
C5 C6 1_555 1_555
C5 C7 1_555 1_555
C2A C3A 1_555 1_555
C5A C6A 1_555 1_555
C5A C7A 1_555 1_555
C10A C11A 1_555 1_555
C10A C12A 1_555 1_555

#END
