
#######################################################################
#
#                 Cambridge Crystallographic Data Centre
#                                CCDC 
#
#######################################################################
#
# If this CIF has been generated from an entry in the Cambridge 
# Structural Database, then it will include bibliographic, chemical, 
# crystal, experimental, refinement or atomic coordinate data resulting 
# from the CCDC's data processing and validation procedures.
#
#######################################################################

data_CELZEA
_symmetry_cell_setting           monoclinic
_symmetry_space_group_name_H-M   'C 2/c'
_symmetry_Int_Tables_number      15
_space_group_name_Hall           '-C 2yn'
loop_
_symmetry_equiv_pos_site_id
_symmetry_equiv_pos_as_xyz
1 x,y,z
2 -x,y,1/2-z
3 1/2+x,1/2+y,z
4 1/2-x,1/2+y,1/2-z
5 -x,-y,-z
6 x,-y,1/2+z
7 1/2-x,1/2-y,-z
8 1/2+x,1/2-y,1/2+z
_cell_length_a                   20.8424(8)
_cell_length_b                   10.6114(3)
_cell_length_c                   9.0023(4)
_cell_angle_alpha                90
_cell_angle_beta                 111.686(4)
_cell_angle_gamma                90
_cell_volume                     1850.09
loop_
_atom_site_label
_atom_site_type_symbol
_atom_site_fract_x
_atom_site_fract_y
_atom_site_fract_z
Mo1 Mo 0.234976(11) 0.64843(2) 0.23633(2)
P1 P 0.30926(3) 0.40483(6) 0.46108(7)
O1 O 0.28788(8) 0.48920(15) 0.31161(17)
O2 O 0.25240(8) 0.39869(15) 0.52654(17)
O3 O 0.32820(8) 0.27473(15) 0.41328(18)
O4 O 0.30312(8) 0.74517(15) 0.31525(18)
O5 O 0.19576(9) 0.64819(17) 0.37088(19)
O6 O 0.14801(9) 0.50823(16) 0.09369(19)
C1 C 0.38574(12) 0.4670(3) 0.6088(3)
H1 H 0.3747 0.5496 0.6446
H2 H 0.4005 0.4099 0.7024
C2 C 0.44540(12) 0.4840(2) 0.5530(3)
C3 C 0.46653(13) 0.6033(2) 0.5299(3)
H3 H 0.4436 0.6750 0.5499
C4 C 0.52074(13) 0.6198(2) 0.4780(3)
H4 H 0.5349 0.7025 0.4634
H5 H 0.1210(15) 0.466(3) 0.147(4)
H6 H 0.1649(19) 0.438(2) 0.049(4)
P1D P 0.69074(3) 0.59517(6) 0.53892(7)
O1D O 0.71212(8) 0.51080(15) 0.68839(17)
O2D O 0.74760(8) 0.60131(15) 0.47346(17)
O3D O 0.67180(8) 0.72527(15) 0.58672(18)
C1D C 0.61426(12) 0.5330(3) 0.3912(3)
H1D H 0.6253 0.4504 0.3554
H2D H 0.5995 0.5901 0.2976
C2D C 0.55460(12) 0.5160(2) 0.4470(3)
C3D C 0.53347(13) 0.3967(2) 0.4701(3)
H3D H 0.5564 0.3250 0.4501
C4D C 0.47926(13) 0.3802(2) 0.5220(3)
H4D H 0.4651 0.2975 0.5366
Mo1A Mo 0.765024(11) 0.64843(2) 0.26367(2)
O4A O 0.69688(8) 0.74517(15) 0.18475(18)
O5A O 0.80424(9) 0.64819(17) 0.12912(19)
O6A O 0.85199(9) 0.50823(16) 0.40631(19)
H5A H 0.8790(15) 0.466(3) 0.353(4)
H6A H 0.8351(19) 0.438(2) 0.451(4)
Mo1C Mo 0.265024(11) 0.14843(2) 0.26367(2)
Mo1D Mo 0.765024(11) 0.35157(2) 0.76367(2)
Mo1E Mo 0.234976(11) 0.35157(2) 0.73633(2)
Mo1G Mo 0.734976(11) 0.85157(2) 0.73633(2)
O1A O 0.71212(8) 0.48920(15) 0.18839(17)
O2E O 0.25240(8) 0.60131(15) 0.02654(17)
O3B O 0.82820(8) 0.77473(15) 0.41328(18)
O3C O 0.17180(8) 0.77473(15) 0.08672(18)
O7 O 0.07754(13) 0.3995(2) 0.2668(2)
H7 H 0.0373(14) 0.455(3) 0.239(5)
H8 H 0.099(2) 0.427(4) 0.3778(19)
loop_
_geom_bond_atom_site_label_1
_geom_bond_atom_site_label_2
_geom_bond_site_symmetry_1
_geom_bond_site_symmetry_2
Mo1 O1 1_555 1_555
P1 O1 1_555 1_555
O2 P1 1_555 1_555
O3 P1 1_555 1_555
O4 Mo1 1_555 1_555
O5 Mo1 1_555 1_555
O6 Mo1 1_555 1_555
C1 P1 1_555 1_555
H1 C1 1_555 1_555
H2 C1 1_555 1_555
C2 C1 1_555 1_555
C3 C2 1_555 1_555
H3 C3 1_555 1_555
C4 C3 1_555 1_555
H4 C4 1_555 1_555
H5 O6 1_555 1_555
H6 O6 1_555 1_555
O7 H7 1_555 1_555
H8 O7 1_555 1_555
P1D O1D 1_555 1_555
O1D Mo1D 1_555 1_555
O2D P1D 1_555 1_555
O3D P1D 1_555 1_555
C1D P1D 1_555 1_555
H1D C1D 1_555 1_555
H2D C1D 1_555 1_555
C2D C4 1_555 1_555
C3D C2D 1_555 1_555
H3D C3D 1_555 1_555
C4D C2 1_555 1_555
H4D C4D 1_555 1_555
Mo1A O2D 1_555 1_555
O4A Mo1A 1_555 1_555
O5A Mo1A 1_555 1_555
O6A Mo1A 1_555 1_555
H5A O6A 1_555 1_555
H6A O6A 1_555 1_555
Mo1C O3 1_555 1_555
Mo1E O2 1_555 1_555
Mo1G O3D 1_555 1_555
O1A Mo1A 1_555 1_555
O2E Mo1 1_555 1_555
O3B Mo1A 1_555 1_555
O3C Mo1 1_555 1_555
C1D C2D 1_555 1_555
C3D C4D 1_555 1_555

#END
