
#######################################################################
#
#                 Cambridge Crystallographic Data Centre
#                                CCDC 
#
#######################################################################
#
# If this CIF has been generated from an entry in the Cambridge 
# Structural Database, then it will include bibliographic, chemical, 
# crystal, experimental, refinement or atomic coordinate data resulting 
# from the CCDC's data processing and validation procedures.
#
#######################################################################

data_CELZIE
_symmetry_cell_setting           tetragonal
_symmetry_space_group_name_H-M   'I 41/a'
_symmetry_Int_Tables_number      88
_space_group_name_Hall           '-I 4ad'
loop_
_symmetry_equiv_pos_site_id
_symmetry_equiv_pos_as_xyz
1 x,y,z
2 -x,1/2-y,z
3 1/2-x,-y,1/2+z
4 1/4-y,3/4+x,3/4+z
5 3/4-y,1/4+x,1/4+z
6 1/4+y,1/4-x,1/4+z
7 3/4+y,3/4-x,3/4+z
8 1/2+x,1/2+y,1/2+z
9 -x,-y,-z
10 x,1/2+y,-z
11 1/2+x,y,1/2-z
12 3/4+y,1/4-x,1/4-z
13 1/4+y,3/4-x,3/4-z
14 3/4-y,3/4+x,3/4-z
15 1/4-y,1/4+x,1/4-z
16 1/2-x,1/2-y,1/2-z
_cell_length_a                   21.36092(26)
_cell_length_b                   21.36092(26)
_cell_length_c                   10.56985(20)
_cell_angle_alpha                90
_cell_angle_beta                 90
_cell_angle_gamma                90
_cell_volume                     4822.91
loop_
_atom_site_label
_atom_site_type_symbol
_atom_site_fract_x
_atom_site_fract_y
_atom_site_fract_z
Al1 Al 0.24061(21) 0.06675(22) 0.30403(46)
O1 O 0.65452(26) 0.06393(41) 0.18093(72)
O2 O 0.32487(23) 0.07042(39) 0.28602(70)
O3 O 0.38295(37) 0.01078(35) 0.42240(49)
O4 O 0.61477(33) -0.00134(36) 0.32859(63)
O5 O 0.25076(40) 0.01209(37) 0.43601(99)
C1 C 0.54436(26) 0.04670(48) 0.20063(85)
O6 O 0.45736(43) 0.10631(45) -0.08014(78)
C2 C 0.42109(29) 0.07129(55) 0.12478(76)
C3 C 0.61117(31) 0.04073(32) 0.24583(66)
C4 C 0.50683(81) 0.10935(90) -0.1691(17)
C5 C 0.53258(28) 0.06730(50) 0.08123(84)
C6 C 0.49504(35) 0.03673(44) 0.2931(10)
C7 C 0.37462(29) 0.04456(32) 0.32504(66)
C8 C 0.43749(30) 0.05016(44) 0.24826(76)
C9 C 0.46981(38) 0.07772(56) 0.03962(72)
Al1M Al 0.68325(22) -0.00939(21) 0.44597(46)
Al1E Al 0.31675(22) 0.00939(21) 0.55403(46)
Al1J Al 0.74061(21) 0.06675(22) 0.19597(46)
O1J O 0.15452(26) 0.06393(41) 0.31907(72)
O3C O 0.23922(35) 0.13295(37) 0.17240(49)
O4L O 0.24866(36) 0.13523(33) 0.42141(63)
O5C O 0.23791(37) 0.00076(40) 0.18601(99)
O7 O 0.32339(38) 0.09331(44) -0.13561(67)
loop_
_geom_bond_atom_site_label_1
_geom_bond_atom_site_label_2
_geom_bond_site_symmetry_1
_geom_bond_site_symmetry_2
Al1 O2 1_555 1_555
O1 C3 1_555 1_555
O2 C7 1_555 1_555
O3 C7 1_555 1_555
O4 C3 1_555 1_555
O5 Al1 1_555 1_555
C1 C3 1_555 1_555
O6 C4 1_555 1_555
C2 C8 1_555 1_555
C5 C1 1_555 1_555
C6 C1 1_555 1_555
C7 C8 1_555 1_555
C8 C6 1_555 1_555
C9 O6 1_555 1_555
Al1M O4 1_555 1_555
Al1E O3 1_555 1_555
Al1J O1 1_555 1_555
O1J Al1 1_555 1_555
O3C Al1 1_555 1_555
O4L Al1 1_555 1_555
O5C Al1 1_555 1_555
O5 Al1E 1_555 1_555
C2 C9 1_555 1_555
C5 C9 1_555 1_555

#END
