
#######################################################################
#
#                 Cambridge Crystallographic Data Centre
#                                CCDC 
#
#######################################################################
#
# If this CIF has been generated from an entry in the Cambridge 
# Structural Database, then it will include bibliographic, chemical, 
# crystal, experimental, refinement or atomic coordinate data resulting 
# from the CCDC's data processing and validation procedures.
#
#######################################################################

data_CEMDUU
_symmetry_cell_setting           monoclinic
_symmetry_space_group_name_H-M   'P 21/n'
_symmetry_Int_Tables_number      14
_space_group_name_Hall           '-P 2yn'
loop_
_symmetry_equiv_pos_site_id
_symmetry_equiv_pos_as_xyz
1 x,y,z
2 1/2-x,1/2+y,1/2-z
3 -x,-y,-z
4 1/2+x,1/2-y,1/2+z
_cell_length_a                   7.3637(6)
_cell_length_b                   23.166(2)
_cell_length_c                   12.4250(10)
_cell_angle_alpha                90
_cell_angle_beta                 94.427(2)
_cell_angle_gamma                90
_cell_volume                     2113.23
loop_
_atom_site_label
_atom_site_type_symbol
_atom_site_fract_x
_atom_site_fract_y
_atom_site_fract_z
K1 K 0.00000 0.50000 0.50000
K2 K 0.50000 0.50000 0.50000
N1 N 0.2223(4) 0.60164(12) 0.5002(2)
C1 C 0.2939(4) 0.62296(11) 0.5947(2)
C2 C 0.3597(4) 0.68127(11) 0.6099(3)
C3 C 0.3344(5) 0.71624(15) 0.5149(3)
C4 C 0.2588(5) 0.69502(16) 0.4215(3)
C5 C 0.2063(4) 0.63718(11) 0.4176(2)
C6 C 0.4428(4) 0.69954(14) 0.7148(2)
N2 N 0.2576(4) 0.52947(10) 0.6757(2)
C7 C 0.3135(4) 0.58333(14) 0.6906(2)
C8 C 0.3893(4) 0.60468(14) 0.7918(3)
C9 C 0.4074(4) 0.56717(15) 0.8803(2)
C10 C 0.3433(5) 0.51235(16) 0.8628(3)
C11 C 0.2723(4) 0.49491(15) 0.7625(3)
C12 C 0.4565(4) 0.66428(13) 0.7995(2)
N3 N -0.2726(3) 0.60124(10) 0.50146(17)
C13 C -0.1931(4) 0.62208(13) 0.5987(2)
C14 C -0.1400(4) 0.67923(16) 0.6082(3)
C15 C -0.1559(4) 0.71750(14) 0.5206(3)
C16 C -0.2349(5) 0.69618(15) 0.4240(3)
C17 C -0.2892(6) 0.6386(2) 0.4182(3)
C18 C -0.0657(5) 0.70129(14) 0.7081(3)
N4 N -0.2428(3) 0.52854(12) 0.67733(18)
C19 C -0.1795(4) 0.58555(11) 0.6883(2)
C20 C -0.1045(4) 0.60755(14) 0.7879(2)
C21 C -0.0986(5) 0.56973(18) 0.8761(3)
C22 C -0.1561(5) 0.51251(17) 0.8671(2)
C23 C -0.2298(5) 0.49497(15) 0.7631(2)
C24 C -0.0477(5) 0.66577(18) 0.7955(4)
H1 H 0.37878 0.75611 0.52557
H2 H 0.24856 0.72025 0.36106
H3 H 0.15150 0.62345 0.35198
H4 H 0.48020 0.74011 0.72113
H5 H 0.44617 0.57566 0.95338
H6 H 0.35529 0.48376 0.91907
H7 H 0.21751 0.45735 0.75738
H8 H 0.51239 0.67695 0.86669
H9 H -0.12127 0.75639 0.52215
H10 H -0.26143 0.71884 0.35878
H11 H -0.34048 0.62210 0.35004
H12 H -0.01781 0.73829 0.71655
H13 H -0.03711 0.58627 0.94192
H14 H -0.15264 0.48800 0.92914
H15 H -0.26012 0.45476 0.75121
H16 H 0.00199 0.68053 0.86514
K1_2 K 1.00000 0.50000 0.50000
K2_2 K -0.50000 0.50000 0.50000
N1B N -0.2223(4) 0.39836(12) 0.4998(2)
N1B_2 N 0.7777(4) 0.39836(12) 0.4998(2)
C1B C -0.2939(4) 0.37704(11) 0.4053(2)
C2B C -0.3597(4) 0.31873(11) 0.3901(3)
C3B C -0.3344(5) 0.28376(15) 0.4851(3)
C4B C -0.2588(5) 0.30498(16) 0.5785(3)
C5B C -0.2063(4) 0.36282(11) 0.5824(2)
C6B C -0.4428(4) 0.30046(14) 0.2852(2)
N2B N -0.2576(4) 0.47053(10) 0.3243(2)
N2B_2 N 0.7424(4) 0.47053(10) 0.3243(2)
C7B C -0.3135(4) 0.41667(14) 0.3094(2)
C8B C -0.3893(4) 0.39532(14) 0.2082(3)
C9B C -0.4074(4) 0.43283(15) 0.1197(2)
C10B C -0.3433(5) 0.48765(16) 0.1372(3)
C11B C -0.2723(4) 0.50509(15) 0.2375(3)
C12B C -0.4565(4) 0.33572(13) 0.2005(2)
N3B N 0.2726(3) 0.39876(10) 0.49854(17)
N3_2 N 0.7274(3) 0.60124(10) 0.50146(17)
C13B C 0.1931(4) 0.37792(13) 0.4013(2)
C14B C 0.1400(4) 0.32077(16) 0.3918(3)
C15B C 0.1559(4) 0.28250(14) 0.4794(3)
C16B C 0.2349(5) 0.30382(15) 0.5760(3)
C17B C 0.2892(6) 0.3614(2) 0.5818(3)
C18B C 0.0657(5) 0.29871(14) 0.2919(3)
N4B N 0.2428(3) 0.47146(12) 0.32267(18)
N4_2 N 0.7572(3) 0.52854(12) 0.67733(18)
C19B C 0.1795(4) 0.41445(11) 0.3117(2)
C20B C 0.1045(4) 0.39245(14) 0.2121(2)
C21B C 0.0986(5) 0.43027(18) 0.1239(3)
C22B C 0.1561(5) 0.48749(17) 0.1329(2)
C23B C 0.2298(5) 0.50503(15) 0.2369(2)
C24B C 0.0477(5) 0.33423(18) 0.2045(4)
H1B H -0.37878 0.24389 0.47443
H2B H -0.24856 0.27975 0.63894
H3B H -0.15150 0.37655 0.64802
H4B H -0.48020 0.25989 0.27887
H5B H -0.44617 0.42434 0.04662
H6B H -0.35529 0.51624 0.08093
H7B H -0.21751 0.54265 0.24262
H8B H -0.51239 0.32305 0.13331
H9B H 0.12127 0.24361 0.47785
H10B H 0.26143 0.28116 0.64122
H11B H 0.34048 0.37790 0.64996
H12B H 0.01781 0.26171 0.28345
H13B H 0.03711 0.41373 0.05808
H14B H 0.15264 0.51200 0.07086
H15B H 0.26012 0.54524 0.24879
H16B H -0.00199 0.31947 0.13486
S2 S 0.9760(7) 0.64062(17) 1.1445(4)
C26 C 1.213(2) 0.6449(7) 1.1340(11)
N6 N 1.376(2) 0.6400(8) 1.1613(15)
S1? S 1.5497(6) 0.64535(12) 1.1337(2)
C25? C 1.2922(14) 0.6436(5) 1.1302(9)
N5? N 1.1151(9) 0.6481(3) 1.1216(5)
S3? S 1.0832(11) 0.64811(18) 1.1265(4)
C27? C 0.8558(18) 0.6453(6) 1.1173(10)
N7? N 0.703(2) 0.6448(7) 1.0883(12)
loop_
_geom_bond_atom_site_label_1
_geom_bond_atom_site_label_2
_geom_bond_site_symmetry_1
_geom_bond_site_symmetry_2
K1 N1 1_555 1_555
K2 N1 1_555 1_555
N1 C1 1_555 1_555
C1 C2 1_555 1_555
C2 C3 1_555 1_555
C3 C4 1_555 1_555
C4 C5 1_555 1_555
C5 N1 1_555 1_555
C6 C2 1_555 1_555
N2 K1 1_555 1_555
C7 C1 1_555 1_555
C8 C7 1_555 1_555
C9 C8 1_555 1_555
C10 C9 1_555 1_555
C11 N2 1_555 1_555
C12 C6 1_555 1_555
N3 K1 1_555 1_555
C13 N3 1_555 1_555
C14 C13 1_555 1_555
C15 C14 1_555 1_555
C16 C15 1_555 1_555
C17 N3 1_555 1_555
C18 C14 1_555 1_555
N4 K1 1_555 1_555
C19 C13 1_555 1_555
C20 C19 1_555 1_555
C21 C20 1_555 1_555
C22 C21 1_555 1_555
C23 N4 1_555 1_555
C24 C18 1_555 1_555
S2 C26 1_555 1_555
C26 N6 1_555 1_555
H1 C3 1_555 1_555
H2 C4 1_555 1_555
H3 C5 1_555 1_555
H4 C6 1_555 1_555
H5 C9 1_555 1_555
H6 C10 1_555 1_555
H7 C11 1_555 1_555
H8 C12 1_555 1_555
H9 C15 1_555 1_555
H10 C16 1_555 1_555
H11 C17 1_555 1_555
H12 C18 1_555 1_555
H13 C21 1_555 1_555
H14 C22 1_555 1_555
H15 C23 1_555 1_555
H16 C24 1_555 1_555
K1_2 N1B_2 1_555 1_555
K2_2 N3 1_555 1_555
N1B K1 1_555 1_555
N1B_2 K2 1_555 1_555
C1B N1B 1_555 1_555
C2B C1B 1_555 1_555
C3B C2B 1_555 1_555
C4B C3B 1_555 1_555
C5B N1B 1_555 1_555
C6B C2B 1_555 1_555
N2B K1 1_555 1_555
N2B_2 K2 1_555 1_555
C7B C1B 1_555 1_555
C8B C7B 1_555 1_555
C9B C8B 1_555 1_555
C10B C9B 1_555 1_555
C11B N2B 1_555 1_555
C12B C6B 1_555 1_555
N3B K1 1_555 1_555
N3_2 K2 1_555 1_555
C13B N3B 1_555 1_555
C14B C13B 1_555 1_555
C15B C14B 1_555 1_555
C16B C15B 1_555 1_555
C17B N3B 1_555 1_555
C18B C14B 1_555 1_555
N4B K1 1_555 1_555
N4_2 K2 1_555 1_555
C19B C13B 1_555 1_555
C20B C19B 1_555 1_555
C21B C20B 1_555 1_555
C22B C21B 1_555 1_555
C23B N4B 1_555 1_555
C24B C18B 1_555 1_555
H1B C3B 1_555 1_555
H2B C4B 1_555 1_555
H3B C5B 1_555 1_555
H4B C6B 1_555 1_555
H5B C9B 1_555 1_555
H6B C10B 1_555 1_555
H7B C11B 1_555 1_555
H8B C12B 1_555 1_555
H9B C15B 1_555 1_555
H10B C16B 1_555 1_555
H11B C17B 1_555 1_555
H12B C18B 1_555 1_555
H13B C21B 1_555 1_555
H14B C22B 1_555 1_555
H15B C23B 1_555 1_555
H16B C24B 1_555 1_555
K2 N2 1_555 1_555
K2 N3B 1_555 1_555
K2 N4B 1_555 1_555
N2 C7 1_555 1_555
C8 C12 1_555 1_555
C10 C11 1_555 1_555
C16 C17 1_555 1_555
N4 C19 1_555 1_555
N4 K2_2 1_555 1_555
C20 C24 1_555 1_555
C22 C23 1_555 1_555
K1_2 N2B_2 1_555 1_555
K1_2 N3_2 1_555 1_555
K1_2 N4_2 1_555 1_555
K2_2 N1B 1_555 1_555
K2_2 N2B 1_555 1_555
C4B C5B 1_555 1_555
N2B C7B 1_555 1_555
C8B C12B 1_555 1_555
C10B C11B 1_555 1_555
C16B C17B 1_555 1_555
N4B C19B 1_555 1_555
C20B C24B 1_555 1_555
C22B C23B 1_555 1_555

#END
