
#######################################################################
#
#                 Cambridge Crystallographic Data Centre
#                                CCDC 
#
#######################################################################
#
# If this CIF has been generated from an entry in the Cambridge 
# Structural Database, then it will include bibliographic, chemical, 
# crystal, experimental, refinement or atomic coordinate data resulting 
# from the CCDC's data processing and validation procedures.
#
#######################################################################

data_CEMFAC
_symmetry_cell_setting           monoclinic
_symmetry_space_group_name_H-M   'P 21/n'
_symmetry_Int_Tables_number      14
_space_group_name_Hall           '-P 2yn'
loop_
_symmetry_equiv_pos_site_id
_symmetry_equiv_pos_as_xyz
1 x,y,z
2 1/2-x,1/2+y,1/2-z
3 -x,-y,-z
4 1/2+x,1/2-y,1/2+z
_cell_length_a                   7.3408(4)
_cell_length_b                   23.3720(10)
_cell_length_c                   11.8664(6)
_cell_angle_alpha                90
_cell_angle_beta                 91.0320(10)
_cell_angle_gamma                90
_cell_volume                     2035.58
loop_
_atom_site_label
_atom_site_type_symbol
_atom_site_fract_x
_atom_site_fract_y
_atom_site_fract_z
Na1 Na 0.00000 0.50000 0.50000
Na2 Na 0.50000 0.50000 0.50000
N1 N 0.1107(6) 0.59658(16) 0.4927(3)
C1 C 0.1845(6) 0.61804(14) 0.5852(4)
C2 C 0.2255(6) 0.67909(15) 0.6048(4)
C3 C 0.1877(6) 0.71724(17) 0.5150(3)
C4 C 0.1075(6) 0.6948(2) 0.4192(5)
C5 C 0.0780(7) 0.6378(2) 0.4092(4)
C6 C 0.3053(7) 0.6987(2) 0.7105(4)
N2 N 0.2033(5) 0.52247(12) 0.6628(3)
C7 C 0.2316(5) 0.57818(16) 0.6792(3)
C8 C 0.3085(6) 0.60177(16) 0.7814(3)
C9 C 0.3519(6) 0.55919(19) 0.8680(3)
C10 C 0.3178(6) 0.50386(17) 0.8471(4)
C11 C 0.2416(7) 0.48474(19) 0.7484(4)
C12 C 0.3418(6) 0.66081(19) 0.7940(4)
N3 N -0.3898(5) 0.59946(16) 0.4924(4)
C13 C -0.3080(7) 0.6214(2) 0.5936(4)
C14 C -0.2732(7) 0.6758(2) 0.6043(4)
C15 C -0.3178(8) 0.7126(2) 0.5130(5)
C16 C -0.3885(8) 0.6927(2) 0.4143(4)
C17 C -0.4300(7) 0.6329(2) 0.4111(4)
C18 C -0.1973(6) 0.6964(2) 0.7065(4)
N4 N -0.2962(7) 0.5227(2) 0.6598(4)
C19 C -0.2631(7) 0.5818(2) 0.6788(5)
C20 C -0.1909(7) 0.5998(3) 0.7814(5)
C21 C -0.1487(8) 0.5645(2) 0.8663(5)
C22 C -0.1760(8) 0.5051(3) 0.8527(4)
C23 C -0.2500(7) 0.4892(2) 0.7420(4)
C24 C -0.1579(7) 0.6613(2) 0.7944(4)
H1 H 0.21761 0.75919 0.52031
H2 H 0.07792 0.72113 0.35371
H3 H 0.04204 0.62202 0.33760
H4 H 0.33593 0.73995 0.70967
H5 H 0.39522 0.57117 0.94329
H6 H 0.35180 0.47686 0.90268
H7 H 0.21220 0.44465 0.73996
H8 H 0.39819 0.67485 0.86171
H9 H -0.30245 0.75103 0.52370
H10 H -0.41644 0.71449 0.35483
H11 H -0.50267 0.61929 0.34702
H12 H -0.17453 0.73510 0.72708
H13 H -0.09148 0.57858 0.93079
H14 H -0.15322 0.47645 0.91256
H15 H -0.26375 0.45073 0.72408
H16 H -0.11748 0.67529 0.86616
Na1_2 Na 1.00000 0.50000 0.50000
Na2_2 Na -0.50000 0.50000 0.50000
N1B N -0.1107(6) 0.40342(16) 0.5073(3)
C1B C -0.1845(6) 0.38196(14) 0.4148(4)
C2B C -0.2255(6) 0.32091(15) 0.3952(4)
C3B C -0.1877(6) 0.28276(17) 0.4850(3)
C4B C -0.1075(6) 0.3052(2) 0.5808(5)
C5B C -0.0780(7) 0.3622(2) 0.5908(4)
C6B C -0.3053(7) 0.3013(2) 0.2895(4)
N2B N -0.2033(5) 0.47753(12) 0.3372(3)
N2B_2 N 0.7967(5) 0.47753(12) 0.3372(3)
C7B C -0.2316(5) 0.42182(16) 0.3208(3)
C8B C -0.3085(6) 0.39823(16) 0.2186(3)
C9B C -0.3519(6) 0.44081(19) 0.1320(3)
C10B C -0.3178(6) 0.49614(17) 0.1529(4)
C11B C -0.2416(7) 0.51526(19) 0.2516(4)
C12B C -0.3418(6) 0.33919(19) 0.2060(4)
N3B N 0.3898(5) 0.40054(16) 0.5076(4)
N3_2 N 0.6102(5) 0.59946(16) 0.4924(4)
C13B C 0.3080(7) 0.3786(2) 0.4064(4)
C14B C 0.2732(7) 0.3242(2) 0.3957(4)
C15B C 0.3178(8) 0.2874(2) 0.4870(5)
C16B C 0.3885(8) 0.3073(2) 0.5857(4)
C17B C 0.4300(7) 0.3671(2) 0.5889(4)
C18B C 0.1973(6) 0.3036(2) 0.2935(4)
N4B N 0.2962(7) 0.4773(2) 0.3402(4)
N4_2 N 0.7038(7) 0.5227(2) 0.6598(4)
C19B C 0.2631(7) 0.4182(2) 0.3212(5)
C20B C 0.1909(7) 0.4002(3) 0.2186(5)
C21B C 0.1487(8) 0.4355(2) 0.1337(5)
C22B C 0.1760(8) 0.4949(3) 0.1473(4)
C23B C 0.2500(7) 0.5108(2) 0.2580(4)
C24B C 0.1579(7) 0.3387(2) 0.2056(4)
H1B H -0.21761 0.24081 0.47969
H2B H -0.07792 0.27887 0.64629
H3B H -0.04204 0.37798 0.66240
H4B H -0.33593 0.26005 0.29033
H5B H -0.39522 0.42883 0.05671
H6B H -0.35180 0.52314 0.09732
H7B H -0.21220 0.55535 0.26004
H8B H -0.39819 0.32515 0.13829
H9B H 0.30245 0.24897 0.47630
H10B H 0.41644 0.28551 0.64517
H11B H 0.50267 0.38071 0.65298
H12B H 0.17453 0.26490 0.27292
H13B H 0.09148 0.42142 0.06921
H14B H 0.15322 0.52355 0.08744
H15B H 0.26375 0.54927 0.27592
H16B H 0.11748 0.32471 0.13384
S1 S 1.4660(8) 0.6486(2) 1.1169(3)
C25 C 1.258(2) 0.6441(7) 1.1101(14)
N5 N 1.101(3) 0.6370(9) 1.0739(16)
S2? S 0.9373(9) 0.64917(13) 1.1215(3)
C26? C 1.1859(14) 0.6484(4) 1.1295(8)
N6? N 1.4158(16) 0.6454(6) 1.1268(12)
loop_
_geom_bond_atom_site_label_1
_geom_bond_atom_site_label_2
_geom_bond_site_symmetry_1
_geom_bond_site_symmetry_2
Na1 N1 1_555 1_555
Na2 N2 1_555 1_555
N1 C1 1_555 1_555
C1 C2 1_555 1_555
C2 C3 1_555 1_555
C3 C4 1_555 1_555
C4 C5 1_555 1_555
C5 N1 1_555 1_555
C6 C2 1_555 1_555
N2 Na1 1_555 1_555
C7 C1 1_555 1_555
C8 C7 1_555 1_555
C9 C8 1_555 1_555
C10 C9 1_555 1_555
C11 N2 1_555 1_555
C12 C6 1_555 1_555
N3 C13 1_555 1_555
C13 C14 1_555 1_555
C14 C15 1_555 1_555
C15 C16 1_555 1_555
C16 C17 1_555 1_555
C17 N3 1_555 1_555
C18 C14 1_555 1_555
N4 Na1 1_555 1_555
C19 C13 1_555 1_555
C20 C19 1_555 1_555
C21 C20 1_555 1_555
C22 C21 1_555 1_555
C23 N4 1_555 1_555
C24 C18 1_555 1_555
S1 C25 1_555 1_555
C25 N5 1_555 1_555
H1 C3 1_555 1_555
H2 C4 1_555 1_555
H3 C5 1_555 1_555
H4 C6 1_555 1_555
H5 C9 1_555 1_555
H6 C10 1_555 1_555
H7 C11 1_555 1_555
H8 C12 1_555 1_555
H9 C15 1_555 1_555
H10 C16 1_555 1_555
H11 C17 1_555 1_555
H12 C18 1_555 1_555
H13 C21 1_555 1_555
H14 C22 1_555 1_555
H15 C23 1_555 1_555
H16 C24 1_555 1_555
Na1_2 N2B_2 1_555 1_555
Na2_2 N3 1_555 1_555
N1B Na1 1_555 1_555
C1B N1B 1_555 1_555
C2B C1B 1_555 1_555
C3B C2B 1_555 1_555
C4B C3B 1_555 1_555
C5B N1B 1_555 1_555
C6B C2B 1_555 1_555
N2B Na1 1_555 1_555
N2B_2 Na2 1_555 1_555
C7B C1B 1_555 1_555
C8B C7B 1_555 1_555
C9B C8B 1_555 1_555
C10B C9B 1_555 1_555
C11B N2B 1_555 1_555
C12B C6B 1_555 1_555
N3B Na2 1_555 1_555
N3_2 Na2 1_555 1_555
C13B N3B 1_555 1_555
C14B C13B 1_555 1_555
C15B C14B 1_555 1_555
C16B C15B 1_555 1_555
C17B N3B 1_555 1_555
C18B C14B 1_555 1_555
N4B Na1 1_555 1_555
N4_2 Na2 1_555 1_555
C19B C13B 1_555 1_555
C20B C19B 1_555 1_555
C21B C20B 1_555 1_555
C22B C21B 1_555 1_555
C23B N4B 1_555 1_555
C24B C18B 1_555 1_555
H1B C3B 1_555 1_555
H2B C4B 1_555 1_555
H3B C5B 1_555 1_555
H4B C6B 1_555 1_555
H5B C9B 1_555 1_555
H6B C10B 1_555 1_555
H7B C11B 1_555 1_555
H8B C12B 1_555 1_555
H9B C15B 1_555 1_555
H10B C16B 1_555 1_555
H11B C17B 1_555 1_555
H12B C18B 1_555 1_555
H13B C21B 1_555 1_555
H14B C22B 1_555 1_555
H15B C23B 1_555 1_555
H16B C24B 1_555 1_555
Na2 N4B 1_555 1_555
N2 C7 1_555 1_555
C8 C12 1_555 1_555
C10 C11 1_555 1_555
N4 C19 1_555 1_555
N4 Na2_2 1_555 1_555
C20 C24 1_555 1_555
C22 C23 1_555 1_555
Na1_2 N4_2 1_555 1_555
Na2_2 N2B 1_555 1_555
C4B C5B 1_555 1_555
N2B C7B 1_555 1_555
C8B C12B 1_555 1_555
C10B C11B 1_555 1_555
C16B C17B 1_555 1_555
N4B C19B 1_555 1_555
C20B C24B 1_555 1_555
C22B C23B 1_555 1_555

#END
