
#######################################################################
#
#                 Cambridge Crystallographic Data Centre
#                                CCDC 
#
#######################################################################
#
# If this CIF has been generated from an entry in the Cambridge 
# Structural Database, then it will include bibliographic, chemical, 
# crystal, experimental, refinement or atomic coordinate data resulting 
# from the CCDC's data processing and validation procedures.
#
#######################################################################

data_CEMFIK
_symmetry_cell_setting           monoclinic
_symmetry_space_group_name_H-M   'P 21/n'
_symmetry_Int_Tables_number      14
_space_group_name_Hall           '-P 2yn'
loop_
_symmetry_equiv_pos_site_id
_symmetry_equiv_pos_as_xyz
1 x,y,z
2 1/2-x,1/2+y,1/2-z
3 -x,-y,-z
4 1/2+x,1/2-y,1/2+z
_cell_length_a                   7.6887(7)
_cell_length_b                   12.713(2)
_cell_length_c                   23.718(3)
_cell_angle_alpha                90
_cell_angle_beta                 94.555(2)
_cell_angle_gamma                90
_cell_volume                     2311.03
loop_
_atom_site_label
_atom_site_type_symbol
_atom_site_fract_x
_atom_site_fract_y
_atom_site_fract_z
Rb1 Rb 0.50000 0.50000 0.50000
Rb2 Rb 1.00000 0.50000 0.50000
N1 N 0.7621(5) 0.3230(3) 0.52937(17)
C1 C 0.7107(5) 0.3077(3) 0.58333(18)
C2 C 0.6472(5) 0.2103(3) 0.6015(2)
C3 C 0.6355(6) 0.1263(4) 0.5620(2)
C4 C 0.6878(7) 0.1411(4) 0.5086(2)
C5 C 0.7497(6) 0.2411(4) 0.4942(2)
C6 C 0.5962(6) 0.1980(4) 0.6580(2)
N2 N 0.7804(5) 0.4899(3) 0.60343(18)
C7 C 0.7214(5) 0.3962(3) 0.62178(18)
C8 C 0.6675(5) 0.3821(4) 0.6767(2)
C9 C 0.6769(7) 0.4681(4) 0.7138(2)
C10 C 0.7390(7) 0.5631(4) 0.6952(2)
C11 C 0.7893(6) 0.5698(3) 0.6398(2)
C12 C 0.6042(6) 0.2811(4) 0.6939(2)
N3 N 0.2555(5) 0.3181(3) 0.52700(17)
C13 C 0.2107(5) 0.3007(3) 0.58124(19)
C14 C 0.1530(6) 0.2022(3) 0.5992(2)
C15 C 0.1423(7) 0.1184(4) 0.5598(2)
C16 C 0.1856(8) 0.1363(4) 0.5059(3)
C17 C 0.2400(7) 0.2361(4) 0.4913(2)
C18 C 0.1032(7) 0.1896(4) 0.6558(2)
N4 N 0.2741(5) 0.4836(3) 0.60191(17)
C19 C 0.2209(5) 0.3878(3) 0.61990(19)
C20 C 0.1721(6) 0.3726(4) 0.6756(2)
C21 C 0.1759(7) 0.4594(4) 0.7126(2)
C22 C 0.2295(8) 0.5554(4) 0.6935(2)
C23 C 0.2788(6) 0.5635(4) 0.6382(2)
C24 C 0.1141(6) 0.2703(4) 0.6927(2)
H1 H 0.59251 0.05951 0.57271
H2 H 0.68316 0.08504 0.48178
H3 H 0.78372 0.25115 0.45681
H4 H 0.55530 0.13199 0.67008
H5 H 0.64178 0.46178 0.75139
H6 H 0.74758 0.62261 0.71978
H7 H 0.83296 0.63529 0.62792
H8 H 0.56821 0.27254 0.73111
H9 H 0.10691 0.05053 0.57106
H10 H 0.17698 0.08102 0.47860
H11 H 0.26824 0.24784 0.45342
H12 H 0.06462 0.12236 0.66777
H13 H 0.14369 0.45207 0.75042
H14 H 0.23314 0.61533 0.71807
H15 H 0.31671 0.63014 0.62589
H16 H 0.08332 0.25940 0.73038
Rb1_2 Rb 1.50000 0.50000 0.50000
Rb2_2 Rb 0.00000 0.50000 0.50000
N1B N 0.2379(5) 0.6770(3) 0.47063(17)
N1B_2 N 1.2379(5) 0.6770(3) 0.47063(17)
C1B C 0.2893(5) 0.6923(3) 0.41667(18)
C2B C 0.3528(5) 0.7897(3) 0.3985(2)
C3B C 0.3645(6) 0.8737(4) 0.4380(2)
C4B C 0.3122(7) 0.8589(4) 0.4914(2)
C5B C 0.2503(6) 0.7589(4) 0.5058(2)
C6B C 0.4038(6) 0.8020(4) 0.3420(2)
N2B N 0.2196(5) 0.5101(3) 0.39657(18)
N2B_2 N 1.2196(5) 0.5101(3) 0.39657(18)
C7B C 0.2786(5) 0.6038(3) 0.37822(18)
C8B C 0.3325(5) 0.6179(4) 0.3233(2)
C9B C 0.3231(7) 0.5319(4) 0.2862(2)
C10B C 0.2610(7) 0.4369(4) 0.3048(2)
C11B C 0.2107(6) 0.4302(3) 0.3602(2)
C12B C 0.3958(6) 0.7189(4) 0.3061(2)
N3B N 0.7445(5) 0.6819(3) 0.47300(17)
N3_2 N 1.2555(5) 0.3181(3) 0.52700(17)
C13B C 0.7893(5) 0.6993(3) 0.41876(19)
C14B C 0.8470(6) 0.7978(3) 0.4008(2)
C15B C 0.8577(7) 0.8816(4) 0.4402(2)
C16B C 0.8144(8) 0.8637(4) 0.4941(3)
C17B C 0.7600(7) 0.7639(4) 0.5087(2)
C18B C 0.8968(7) 0.8104(4) 0.3442(2)
N4B N 0.7259(5) 0.5164(3) 0.39809(17)
N4_2 N 1.2741(5) 0.4836(3) 0.60191(17)
C19B C 0.7791(5) 0.6122(3) 0.38010(19)
C20B C 0.8279(6) 0.6274(4) 0.3244(2)
C21B C 0.8241(7) 0.5406(4) 0.2874(2)
C22B C 0.7705(8) 0.4446(4) 0.3065(2)
C23B C 0.7212(6) 0.4365(4) 0.3618(2)
C24B C 0.8859(6) 0.7297(4) 0.3073(2)
H1B H 0.40749 0.94049 0.42729
H2B H 0.31684 0.91496 0.51822
H3B H 0.21628 0.74885 0.54319
H4B H 0.44470 0.86801 0.32992
H5B H 0.35822 0.53822 0.24861
H6B H 0.25242 0.37739 0.28022
H7B H 0.16704 0.36471 0.37208
H8B H 0.43179 0.72746 0.26889
H9B H 0.89309 0.94947 0.42894
H10B H 0.82302 0.91898 0.52140
H11B H 0.73176 0.75216 0.54658
H12B H 0.93538 0.87764 0.33223
H13B H 0.85631 0.54793 0.24958
H14B H 0.76686 0.38467 0.28193
H15B H 0.68329 0.36986 0.37411
H16B H 0.91668 0.74060 0.26962
I1 I 0.44876(5) 0.34382(3) 0.851118(14)
O1 O 0.4512(7) 0.9488(4) 0.6419(3)
C25 C 0.5460(8) 0.8523(7) 0.6486(3)
H17 H 0.33820 0.92620 0.63470
H18 H 0.50680 0.81680 0.68080
H19 H 0.67060 0.86460 0.65440
H20 H 0.52250 0.81100 0.61600
loop_
_geom_bond_atom_site_label_1
_geom_bond_atom_site_label_2
_geom_bond_site_symmetry_1
_geom_bond_site_symmetry_2
Rb1 N1 1_555 1_555
Rb2 N1 1_555 1_555
N1 C1 1_555 1_555
C1 C2 1_555 1_555
C2 C3 1_555 1_555
C3 C4 1_555 1_555
C4 C5 1_555 1_555
C5 N1 1_555 1_555
C6 C2 1_555 1_555
N2 Rb1 1_555 1_555
C7 C1 1_555 1_555
C8 C7 1_555 1_555
C9 C8 1_555 1_555
C10 C9 1_555 1_555
C11 N2 1_555 1_555
C12 C6 1_555 1_555
N3 Rb1 1_555 1_555
C13 N3 1_555 1_555
C14 C13 1_555 1_555
C15 C14 1_555 1_555
C16 C15 1_555 1_555
C17 N3 1_555 1_555
C18 C14 1_555 1_555
N4 Rb1 1_555 1_555
C19 C13 1_555 1_555
C20 C19 1_555 1_555
C21 C20 1_555 1_555
C22 C21 1_555 1_555
C23 N4 1_555 1_555
C24 C18 1_555 1_555
O1 C25 1_555 1_555
C25 H18 1_555 1_555
H1 C3 1_555 1_555
H2 C4 1_555 1_555
H3 C5 1_555 1_555
H4 C6 1_555 1_555
H5 C9 1_555 1_555
H6 C10 1_555 1_555
H7 C11 1_555 1_555
H8 C12 1_555 1_555
H9 C15 1_555 1_555
H10 C16 1_555 1_555
H11 C17 1_555 1_555
H12 C18 1_555 1_555
H13 C21 1_555 1_555
H14 C22 1_555 1_555
H15 C23 1_555 1_555
H16 C24 1_555 1_555
H17 O1 1_555 1_555
H19 C25 1_555 1_555
H20 C25 1_555 1_555
Rb1_2 N1B_2 1_555 1_555
Rb2_2 N3 1_555 1_555
N1B Rb1 1_555 1_555
N1B_2 Rb2 1_555 1_555
C1B N1B 1_555 1_555
C2B C1B 1_555 1_555
C3B C2B 1_555 1_555
C4B C3B 1_555 1_555
C5B N1B 1_555 1_555
C6B C2B 1_555 1_555
N2B Rb1 1_555 1_555
N2B_2 Rb2 1_555 1_555
C7B C1B 1_555 1_555
C8B C7B 1_555 1_555
C9B C8B 1_555 1_555
C10B C9B 1_555 1_555
C11B N2B 1_555 1_555
C12B C6B 1_555 1_555
N3B Rb1 1_555 1_555
N3_2 Rb2 1_555 1_555
C13B N3B 1_555 1_555
C14B C13B 1_555 1_555
C15B C14B 1_555 1_555
C16B C15B 1_555 1_555
C17B N3B 1_555 1_555
C18B C14B 1_555 1_555
N4B Rb1 1_555 1_555
N4_2 Rb2 1_555 1_555
C19B C13B 1_555 1_555
C20B C19B 1_555 1_555
C21B C20B 1_555 1_555
C22B C21B 1_555 1_555
C23B N4B 1_555 1_555
C24B C18B 1_555 1_555
H1B C3B 1_555 1_555
H2B C4B 1_555 1_555
H3B C5B 1_555 1_555
H4B C6B 1_555 1_555
H5B C9B 1_555 1_555
H6B C10B 1_555 1_555
H7B C11B 1_555 1_555
H8B C12B 1_555 1_555
H9B C15B 1_555 1_555
H10B C16B 1_555 1_555
H11B C17B 1_555 1_555
H12B C18B 1_555 1_555
H13B C21B 1_555 1_555
H14B C22B 1_555 1_555
H15B C23B 1_555 1_555
H16B C24B 1_555 1_555
Rb2 N2 1_555 1_555
Rb2 N3B 1_555 1_555
Rb2 N4B 1_555 1_555
N2 C7 1_555 1_555
C8 C12 1_555 1_555
C10 C11 1_555 1_555
C16 C17 1_555 1_555
N4 C19 1_555 1_555
N4 Rb2_2 1_555 1_555
C20 C24 1_555 1_555
C22 C23 1_555 1_555
Rb1_2 N2B_2 1_555 1_555
Rb1_2 N3_2 1_555 1_555
Rb1_2 N4_2 1_555 1_555
Rb2_2 N1B 1_555 1_555
Rb2_2 N2B 1_555 1_555
C4B C5B 1_555 1_555
N2B C7B 1_555 1_555
C8B C12B 1_555 1_555
C10B C11B 1_555 1_555
C16B C17B 1_555 1_555
N4B C19B 1_555 1_555
C20B C24B 1_555 1_555
C22B C23B 1_555 1_555

#END
