
#######################################################################
#
#                 Cambridge Crystallographic Data Centre
#                                CCDC 
#
#######################################################################
#
# If this CIF has been generated from an entry in the Cambridge 
# Structural Database, then it will include bibliographic, chemical, 
# crystal, experimental, refinement or atomic coordinate data resulting 
# from the CCDC's data processing and validation procedures.
#
#######################################################################

data_CEMGAD
_symmetry_cell_setting           orthorhombic
_symmetry_space_group_name_H-M   'P b c n'
_symmetry_Int_Tables_number      60
_space_group_name_Hall           '-P 2n 2ab'
loop_
_symmetry_equiv_pos_site_id
_symmetry_equiv_pos_as_xyz
1 x,y,z
2 1/2-x,1/2-y,1/2+z
3 1/2+x,1/2-y,-z
4 -x,y,1/2-z
5 -x,-y,-z
6 1/2+x,1/2+y,1/2-z
7 1/2-x,1/2+y,z
8 x,-y,1/2+z
_cell_length_a                   21.9750(10)
_cell_length_b                   14.3251(9)
_cell_length_c                   44.539(3)
_cell_angle_alpha                90
_cell_angle_beta                 90
_cell_angle_gamma                90
_cell_volume                     14020.6
loop_
_atom_site_label
_atom_site_type_symbol
_atom_site_fract_x
_atom_site_fract_y
_atom_site_fract_z
Na1 Na 0.52890(8) -0.00705(14) 0.53973(5)
Na2 Na 0.47069(9) -0.01749(14) 0.62151(5)
Na3 Na 0.52792(9) -0.02218(13) 0.70607(6)
N1 N 0.59361(18) 0.1137(3) 0.51872(8)
C1 C 0.5648(2) 0.1981(3) 0.51742(9)
C2 C 0.5964(2) 0.2841(3) 0.51584(10)
C3 C 0.6610(2) 0.2807(4) 0.51512(10)
C4 C 0.6895(2) 0.1955(4) 0.51564(11)
C5 C 0.6540(2) 0.1146(4) 0.51764(10)
C6 C 0.5641(3) 0.3698(3) 0.51500(11)
N2 N 0.46797(18) 0.1159(3) 0.51787(8)
C7 C 0.4987(2) 0.1995(3) 0.51714(9)
C8 C 0.4679(2) 0.2862(3) 0.51629(10)
C9 C 0.4038(2) 0.2851(4) 0.51619(10)
C10 C 0.3735(2) 0.2021(4) 0.51722(10)
C11 C 0.4072(2) 0.1199(3) 0.51836(10)
C12 C 0.5025(3) 0.3710(3) 0.51543(11)
N3 N 0.46886(17) -0.1337(3) 0.55911(8)
C13 C 0.4993(2) -0.2164(3) 0.55970(10)
C14 C 0.4685(2) -0.3029(3) 0.56064(10)
C15 C 0.4040(3) -0.3021(4) 0.56115(11)
C16 C 0.3741(2) -0.2187(4) 0.56050(11)
C17 C 0.4081(2) -0.1363(4) 0.55963(10)
C18 C 0.5027(3) -0.3886(3) 0.56086(11)
N4 N 0.59414(17) -0.1316(3) 0.55787(8)
C19 C 0.5652(2) -0.2161(3) 0.55938(10)
C20 C 0.5970(2) -0.3016(4) 0.56021(10)
C21 C 0.6614(3) -0.2985(4) 0.56069(11)
C22 C 0.6898(2) -0.2138(4) 0.56067(11)
C23 C 0.6544(2) -0.1324(4) 0.55892(10)
C24 C 0.5639(3) -0.3876(3) 0.56083(11)
N5 N 0.53148(19) 0.1010(3) 0.59559(9)
C25 C 0.5015(2) 0.1840(3) 0.59465(10)
C26 C 0.5320(2) 0.2702(3) 0.59287(10)
C27 C 0.5956(3) 0.2698(4) 0.59215(11)
C28 C 0.6264(2) 0.1851(4) 0.59359(11)
C29 C 0.5918(2) 0.1031(3) 0.59533(10)
C30 C 0.4976(3) 0.3554(4) 0.59173(11)
N6 N 0.40663(18) 0.0989(3) 0.59721(9)
C31 C 0.4355(2) 0.1827(3) 0.59494(10)
C32 C 0.4026(2) 0.2681(4) 0.59354(10)
C33 C 0.3394(2) 0.2640(4) 0.59274(11)
C34 C 0.3105(2) 0.1803(4) 0.59372(11)
C35 C 0.3453(2) 0.0997(4) 0.59617(11)
C36 C 0.4363(3) 0.3546(4) 0.59208(11)
N7 N 0.4027(2) -0.1454(3) 0.63609(8)
C37 C 0.4308(2) -0.2296(4) 0.63659(9)
C38 C 0.3988(2) -0.3154(4) 0.63791(10)
C39 C 0.3353(2) -0.3100(4) 0.64003(11)
C40 C 0.3065(2) -0.2239(5) 0.64035(11)
C41 C 0.3421(2) -0.1440(4) 0.63826(11)
C42 C 0.4306(3) -0.4026(4) 0.63726(11)
N8 N 0.52808(19) -0.1508(3) 0.63529(8)
C43 C 0.4972(2) -0.2328(3) 0.63590(9)
C44 C 0.5267(2) -0.3200(3) 0.63645(10)
C45 C 0.5908(2) -0.3203(4) 0.63621(11)
C46 C 0.6225(2) -0.2382(4) 0.63584(10)
C47 C 0.5886(2) -0.1545(4) 0.63545(10)
C48 C 0.4924(3) -0.4049(3) 0.63668(11)
N9 N 0.5886(2) 0.0848(3) 0.67330(9)
C49 C 0.5606(3) 0.1695(4) 0.67148(10)
C50 C 0.5935(3) 0.2540(4) 0.66929(11)
C51 C 0.6572(3) 0.2491(5) 0.66796(12)
C52 C 0.6841(3) 0.1639(5) 0.66838(12)
C53 C 0.6494(3) 0.0839(5) 0.67139(12)
C54 C 0.5611(4) 0.3413(5) 0.66870(13)
N10 N 0.4632(2) 0.0911(3) 0.67346(9)
C55 C 0.4952(3) 0.1727(4) 0.67201(10)
C56 C 0.4648(3) 0.2602(4) 0.67103(11)
C57 C 0.4013(3) 0.2596(5) 0.67182(12)
C58 C 0.3695(3) 0.1776(5) 0.67334(12)
C59 C 0.4030(3) 0.0937(5) 0.67392(12)
C60 C 0.5015(4) 0.3436(4) 0.66970(12)
N11 N 0.47353(16) -0.1633(2) 0.71160(9)
C61 C 0.5058(2) -0.2446(3) 0.71196(11)
C62 C 0.4766(2) -0.3327(3) 0.71215(11)
C63 C 0.4124(2) -0.3346(4) 0.71263(12)
C64 C 0.3807(2) -0.2532(4) 0.71228(12)
C65 C 0.4127(2) -0.1688(3) 0.71194(12)
C66 C 0.5128(2) -0.4158(3) 0.71246(12)
N12 N 0.59937(16) -0.1554(2) 0.71182(10)
C67 C 0.5720(2) -0.2404(3) 0.71208(11)
C68 C 0.6053(2) -0.3252(3) 0.71254(12)
C69 C 0.6696(2) -0.3193(4) 0.71387(12)
C70 C 0.6964(2) -0.2349(4) 0.71402(13)
C71 C 0.6597(2) -0.1537(3) 0.71273(12)
C72 C 0.5739(3) -0.4120(3) 0.71247(12)
N13 N 0.5629(3) 0.0800(4) 0.74982(11)
C73 C 0.5327(3) 0.1631(4) 0.74992(13)
C74 C 0.5647(4) 0.2496(4) 0.74981(13)
C75 C 0.6277(5) 0.2470(6) 0.75043(14)
C76 C 0.6570(4) 0.1623(7) 0.75056(16)
C77 C 0.6232(4) 0.0796(5) 0.75024(14)
C78 C 0.5298(4) 0.3345(4) 0.7498(2)
H1 H 0.68443 0.33691 0.51412
H2 H 0.73213 0.19248 0.51473
H3 H 0.67509 0.05599 0.51822
H4 H 0.58680 0.42773 0.51463
H5 H 0.38094 0.34111 0.51489
H6 H 0.32949 0.19940 0.51758
H7 H 0.38599 0.06106 0.51879
H8 H 0.48137 0.42972 0.51455
H9 H 0.38208 -0.35974 0.56194
H10 H 0.33082 -0.21691 0.56121
H11 H 0.38651 -0.07812 0.55915
H12 H 0.48144 -0.44624 0.56140
H13 H 0.68481 -0.35437 0.56155
H14 H 0.73362 -0.20987 0.56205
H15 H 0.67463 -0.07265 0.55835
H16 H 0.58595 -0.44531 0.56114
H17 H 0.61788 0.32764 0.59069
H18 H 0.66965 0.18365 0.59334
H19 H 0.61341 0.04588 0.59637
H20 H 0.51884 0.41415 0.59022
H21 H 0.31584 0.32121 0.59201
H22 H 0.26696 0.17561 0.59243
H23 H 0.32448 0.04081 0.59729
H24 H 0.41482 0.41274 0.59124
H25 H 0.31138 -0.36598 0.64107
H26 H 0.26377 -0.21908 0.64230
H27 H 0.32216 -0.08439 0.63891
H28 H 0.40757 -0.45856 0.63771
H29 H 0.61257 -0.37969 0.63598
H30 H 0.66588 -0.23723 0.63605
H31 H 0.61014 -0.09640 0.63551
H32 H 0.51333 -0.46391 0.63611
H33 H 0.68155 0.30523 0.66620
H34 H 0.72809 0.15809 0.66640
H35 H 0.66954 0.02421 0.67188
H36 H 0.58436 0.39734 0.66669
H37 H 0.37944 0.31728 0.67105
H38 H 0.32508 0.17637 0.67422
H39 H 0.38141 0.03484 0.67484
H40 H 0.48165 0.40255 0.67024
H41 H 0.39119 -0.39292 0.71359
H42 H 0.33677 -0.25246 0.71177
H43 H 0.39013 -0.11179 0.71274
H44 H 0.49285 -0.47480 0.71222
H45 H 0.69344 -0.37520 0.71483
H46 H 0.74018 -0.22929 0.71414
H47 H 0.67965 -0.09406 0.71337
H48 H 0.59669 -0.46882 0.71243
H49 H 0.65115 0.30272 0.74980
H50 H 0.70195 0.15889 0.75126
H51 H 0.64419 0.02032 0.75027
H52 H 0.55183 0.39386 0.74950
Na1D Na 0.47110(8) 0.00705(14) 0.46027(5)
Na2D Na 0.52931(9) 0.01749(14) 0.37849(5)
Na3D Na 0.47208(9) 0.02218(13) 0.29393(6)
Na3C Na 0.47208(9) -0.02218(13) 0.79393(6)
N1D N 0.40639(18) -0.1137(3) 0.48128(8)
C1D C 0.4352(2) -0.1981(3) 0.48258(9)
C2D C 0.4036(2) -0.2841(3) 0.48416(10)
C3D C 0.3390(2) -0.2807(4) 0.48488(10)
C4D C 0.3105(2) -0.1955(4) 0.48436(11)
C5D C 0.3460(2) -0.1146(4) 0.48236(10)
C6D C 0.4359(3) -0.3698(3) 0.48500(11)
N2D N 0.53203(18) -0.1159(3) 0.48213(8)
C7D C 0.5013(2) -0.1995(3) 0.48286(9)
C8D C 0.5321(2) -0.2862(3) 0.48371(10)
C9D C 0.5962(2) -0.2851(4) 0.48381(10)
C10D C 0.6265(2) -0.2021(4) 0.48278(10)
C11D C 0.5928(2) -0.1199(3) 0.48164(10)
C12D C 0.4975(3) -0.3710(3) 0.48457(11)
N3D N 0.53114(17) 0.1337(3) 0.44089(8)
C13D C 0.5007(2) 0.2164(3) 0.44030(10)
C14D C 0.5315(2) 0.3029(3) 0.43936(10)
C15D C 0.5960(3) 0.3021(4) 0.43885(11)
C16D C 0.6259(2) 0.2187(4) 0.43950(11)
C17D C 0.5919(2) 0.1363(4) 0.44037(10)
C18D C 0.4973(3) 0.3886(3) 0.43914(11)
N4D N 0.40586(17) 0.1316(3) 0.44213(8)
C19D C 0.4348(2) 0.2161(3) 0.44062(10)
C20D C 0.4030(2) 0.3016(4) 0.43979(10)
C21D C 0.3386(3) 0.2985(4) 0.43931(11)
C22D C 0.3102(2) 0.2138(4) 0.43933(11)
C23D C 0.3456(2) 0.1324(4) 0.44108(10)
C24D C 0.4361(3) 0.3876(3) 0.43917(11)
N5D N 0.46852(19) -0.1010(3) 0.40441(9)
C25D C 0.4985(2) -0.1840(3) 0.40535(10)
C26D C 0.4680(2) -0.2702(3) 0.40713(10)
C27D C 0.4044(3) -0.2698(4) 0.40785(11)
C28D C 0.3736(2) -0.1851(4) 0.40641(11)
C29D C 0.4082(2) -0.1031(3) 0.40467(10)
C30D C 0.5024(3) -0.3554(4) 0.40827(11)
N6D N 0.59337(18) -0.0989(3) 0.40279(9)
C31D C 0.5645(2) -0.1827(3) 0.40506(10)
C32D C 0.5974(2) -0.2681(4) 0.40646(10)
C33D C 0.6606(2) -0.2640(4) 0.40726(11)
C34D C 0.6895(2) -0.1803(4) 0.40628(11)
C35D C 0.6547(2) -0.0997(4) 0.40383(11)
C36D C 0.5637(3) -0.3546(4) 0.40792(11)
N7D N 0.5973(2) 0.1454(3) 0.36391(8)
C37D C 0.5692(2) 0.2296(4) 0.36341(9)
C38D C 0.6012(2) 0.3154(4) 0.36209(10)
C39D C 0.6647(2) 0.3100(4) 0.35997(11)
C40D C 0.6935(2) 0.2239(5) 0.35965(11)
C41D C 0.6579(2) 0.1440(4) 0.36174(11)
C42D C 0.5694(3) 0.4026(4) 0.36274(11)
N8D N 0.47192(19) 0.1508(3) 0.36471(8)
C43D C 0.5028(2) 0.2328(3) 0.36410(9)
C44D C 0.4733(2) 0.3200(3) 0.36355(10)
C45D C 0.4092(2) 0.3203(4) 0.36379(11)
C46D C 0.3775(2) 0.2382(4) 0.36416(10)
C47D C 0.4114(2) 0.1545(4) 0.36455(10)
C48D C 0.5076(3) 0.4049(3) 0.36332(11)
N9D N 0.4114(2) -0.0848(3) 0.32670(9)
C49D C 0.4394(3) -0.1695(4) 0.32852(10)
C50D C 0.4065(3) -0.2540(4) 0.33071(11)
C51D C 0.3428(3) -0.2491(5) 0.33204(12)
C52D C 0.3159(3) -0.1639(5) 0.33162(12)
C53D C 0.3506(3) -0.0839(5) 0.32861(12)
C54D C 0.4389(4) -0.3413(5) 0.33130(13)
N10D N 0.5368(2) -0.0911(3) 0.32654(9)
C55D C 0.5048(3) -0.1727(4) 0.32799(10)
C56D C 0.5352(3) -0.2602(4) 0.32897(11)
C57D C 0.5987(3) -0.2596(5) 0.32818(12)
C58D C 0.6305(3) -0.1776(5) 0.32666(12)
C59D C 0.5970(3) -0.0937(5) 0.32608(12)
C60D C 0.4985(4) -0.3436(4) 0.33030(12)
N11D N 0.52647(16) 0.1633(2) 0.28840(9)
C61D C 0.4942(2) 0.2446(3) 0.28804(11)
C62D C 0.5234(2) 0.3327(3) 0.28785(11)
C63D C 0.5876(2) 0.3346(4) 0.28737(12)
C64D C 0.6193(2) 0.2532(4) 0.28772(12)
C65D C 0.5873(2) 0.1688(3) 0.28806(12)
C66D C 0.4872(2) 0.4158(3) 0.28754(12)
N12D N 0.40063(16) 0.1554(2) 0.28818(10)
C67D C 0.4280(2) 0.2404(3) 0.28792(11)
C68D C 0.3947(2) 0.3252(3) 0.28746(12)
C69D C 0.3304(2) 0.3193(4) 0.28613(12)
C70D C 0.3036(2) 0.2349(4) 0.28598(13)
C71D C 0.3403(2) 0.1537(3) 0.28727(12)
C72D C 0.4261(3) 0.4120(3) 0.28753(12)
N13C N 0.4371(3) 0.0800(4) 0.75018(11)
N13G N 0.5629(3) -0.0800(4) 0.24982(11)
N13D N 0.4371(3) -0.0800(4) 0.25018(11)
C73C C 0.4673(3) 0.1631(4) 0.75008(13)
C74C C 0.4353(4) 0.2496(4) 0.75019(13)
C75C C 0.3723(5) 0.2470(6) 0.74957(14)
C76C C 0.3430(4) 0.1623(7) 0.74944(16)
C77C C 0.3768(4) 0.0796(5) 0.74976(14)
C78C C 0.4702(4) 0.3345(4) 0.7502(2)
H1D H 0.31557 -0.33691 0.48588
H2D H 0.26787 -0.19248 0.48527
H3D H 0.32491 -0.05599 0.48178
H4D H 0.41320 -0.42773 0.48537
H5D H 0.61906 -0.34111 0.48511
H6D H 0.67051 -0.19940 0.48242
H7D H 0.61401 -0.06106 0.48121
H8D H 0.51863 -0.42972 0.48545
H9D H 0.61792 0.35974 0.43806
H10D H 0.66918 0.21691 0.43879
H11D H 0.61349 0.07812 0.44085
H12D H 0.51856 0.44624 0.43860
H13D H 0.31519 0.35437 0.43845
H14D H 0.26638 0.20987 0.43795
H15D H 0.32537 0.07265 0.44165
H16D H 0.41405 0.44531 0.43886
H17D H 0.38212 -0.32764 0.40931
H18D H 0.33035 -0.18365 0.40666
H19D H 0.38659 -0.04588 0.40363
H20D H 0.48116 -0.41415 0.40978
H21D H 0.68416 -0.32121 0.40799
H22D H 0.73304 -0.17561 0.40757
H23D H 0.67552 -0.04081 0.40271
H24D H 0.58518 -0.41274 0.40876
H25D H 0.68862 0.36598 0.35893
H26D H 0.73623 0.21908 0.35770
H27D H 0.67784 0.08439 0.36109
H28D H 0.59243 0.45856 0.36229
H29D H 0.38743 0.37969 0.36402
H30D H 0.33412 0.23723 0.36395
H31D H 0.38986 0.09640 0.36449
H32D H 0.48667 0.46391 0.36389
H33D H 0.31845 -0.30523 0.33380
H34D H 0.27191 -0.15809 0.33360
H35D H 0.33046 -0.02421 0.32812
H36D H 0.41564 -0.39734 0.33331
H37D H 0.62056 -0.31728 0.32895
H38D H 0.67492 -0.17637 0.32578
H39D H 0.61859 -0.03484 0.32516
H40D H 0.51835 -0.40255 0.32976
H41D H 0.60881 0.39292 0.28641
H42D H 0.66323 0.25246 0.28823
H43D H 0.60987 0.11179 0.28726
H44D H 0.50715 0.47480 0.28778
H45D H 0.30656 0.37520 0.28517
H46D H 0.25982 0.22929 0.28586
H47D H 0.32035 0.09406 0.28663
H48D H 0.40331 0.46882 0.28757
H49C H 0.34885 0.30272 0.75020
H50C H 0.29805 0.15889 0.74874
H51C H 0.35581 0.02032 0.74973
H52C H 0.44817 0.39386 0.75050
P1 P 0.22008(5) -0.00776(10) 0.53927(3)
F1 F 0.21924(15) -0.0107(2) 0.57480(7)
F2 F 0.21997(14) 0.1041(2) 0.53977(7)
F3 F 0.22024(15) -0.0062(3) 0.50295(7)
F4 F 0.22058(13) -0.1193(2) 0.53777(6)
F5 F 0.29271(11) -0.0084(2) 0.53907(7)
F6 F 0.14702(12) -0.0086(3) 0.53852(9)
P2 P 0.77961(6) -0.02527(10) 0.61668(3)
F7 F 0.70698(14) -0.0229(3) 0.61648(8)
F8 F 0.77782(15) -0.1369(2) 0.61609(8)
F9 F 0.85252(16) -0.0272(3) 0.61814(11)
F10 F 0.78124(16) 0.0863(2) 0.61889(10)
F11 F 0.78200(17) -0.0226(3) 0.58101(8)
F12 F 0.77807(17) -0.0285(3) 0.65231(8)
P3 P 0.22241(6) -0.03878(11) 0.70586(5)
F13 F 0.29337(15) -0.0327(3) 0.69962(11)
F14 F 0.21893(16) 0.0728(2) 0.70507(13)
F15 F 0.15061(15) -0.0456(3) 0.70812(15)
F16 F 0.22551(15) -0.1506(2) 0.70370(11)
F17 F 0.2303(3) -0.0404(4) 0.73962(10)
F18 F 0.2137(3) -0.0374(4) 0.66917(13)
loop_
_geom_bond_atom_site_label_1
_geom_bond_atom_site_label_2
_geom_bond_site_symmetry_1
_geom_bond_site_symmetry_2
Na1 N1 1_555 1_555
Na2 N3 1_555 1_555
Na3 N9 1_555 1_555
N1 C1 1_555 1_555
C1 C2 1_555 1_555
C2 C3 1_555 1_555
C3 C4 1_555 1_555
C4 C5 1_555 1_555
C5 N1 1_555 1_555
C6 C2 1_555 1_555
N2 Na1 1_555 1_555
C7 C1 1_555 1_555
C8 C7 1_555 1_555
C9 C8 1_555 1_555
C10 C9 1_555 1_555
C11 N2 1_555 1_555
C12 C6 1_555 1_555
N3 Na1 1_555 1_555
C13 N3 1_555 1_555
C14 C13 1_555 1_555
C15 C14 1_555 1_555
C16 C15 1_555 1_555
C17 N3 1_555 1_555
C18 C14 1_555 1_555
N4 Na1 1_555 1_555
C19 C13 1_555 1_555
C20 C19 1_555 1_555
C21 C20 1_555 1_555
C22 C21 1_555 1_555
C23 N4 1_555 1_555
C24 C18 1_555 1_555
N5 Na1 1_555 1_555
C25 N5 1_555 1_555
C26 C25 1_555 1_555
C27 C26 1_555 1_555
C28 C27 1_555 1_555
C29 N5 1_555 1_555
C30 C26 1_555 1_555
N6 Na2 1_555 1_555
C31 C25 1_555 1_555
C32 C31 1_555 1_555
C33 C32 1_555 1_555
C34 C33 1_555 1_555
C35 N6 1_555 1_555
C36 C30 1_555 1_555
N7 Na2 1_555 1_555
C37 N7 1_555 1_555
C38 C37 1_555 1_555
C39 C38 1_555 1_555
C40 C39 1_555 1_555
C41 N7 1_555 1_555
C42 C38 1_555 1_555
N8 Na2 1_555 1_555
C43 C37 1_555 1_555
C44 C43 1_555 1_555
C45 C44 1_555 1_555
C46 C45 1_555 1_555
C47 N8 1_555 1_555
C48 C42 1_555 1_555
N9 C49 1_555 1_555
C49 C50 1_555 1_555
C50 C51 1_555 1_555
C51 C52 1_555 1_555
C52 C53 1_555 1_555
C53 N9 1_555 1_555
C54 C50 1_555 1_555
N10 Na2 1_555 1_555
C55 C49 1_555 1_555
C56 C55 1_555 1_555
C57 C56 1_555 1_555
C58 C57 1_555 1_555
C59 N10 1_555 1_555
C60 C54 1_555 1_555
N11 Na3 1_555 1_555
C61 N11 1_555 1_555
C62 C61 1_555 1_555
C63 C62 1_555 1_555
C64 C63 1_555 1_555
C65 N11 1_555 1_555
C66 C62 1_555 1_555
N12 Na3 1_555 1_555
C67 C61 1_555 1_555
C68 C67 1_555 1_555
C69 C68 1_555 1_555
C70 C69 1_555 1_555
C71 N12 1_555 1_555
C72 C66 1_555 1_555
N13 Na3 1_555 1_555
C73 N13 1_555 1_555
C74 C73 1_555 1_555
C75 C74 1_555 1_555
C76 C75 1_555 1_555
C77 N13 1_555 1_555
C78 C74 1_555 1_555
P1 F1 1_555 1_555
F2 P1 1_555 1_555
F3 P1 1_555 1_555
F4 P1 1_555 1_555
F5 P1 1_555 1_555
F6 P1 1_555 1_555
P2 F7 1_555 1_555
F8 P2 1_555 1_555
F9 P2 1_555 1_555
F10 P2 1_555 1_555
F11 P2 1_555 1_555
F12 P2 1_555 1_555
P3 F13 1_555 1_555
F14 P3 1_555 1_555
F15 P3 1_555 1_555
F16 P3 1_555 1_555
F17 P3 1_555 1_555
F18 P3 1_555 1_555
H1 C3 1_555 1_555
H2 C4 1_555 1_555
H3 C5 1_555 1_555
H4 C6 1_555 1_555
H5 C9 1_555 1_555
H6 C10 1_555 1_555
H7 C11 1_555 1_555
H8 C12 1_555 1_555
H9 C15 1_555 1_555
H10 C16 1_555 1_555
H11 C17 1_555 1_555
H12 C18 1_555 1_555
H13 C21 1_555 1_555
H14 C22 1_555 1_555
H15 C23 1_555 1_555
H16 C24 1_555 1_555
H17 C27 1_555 1_555
H18 C28 1_555 1_555
H19 C29 1_555 1_555
H20 C30 1_555 1_555
H21 C33 1_555 1_555
H22 C34 1_555 1_555
H23 C35 1_555 1_555
H24 C36 1_555 1_555
H25 C39 1_555 1_555
H26 C40 1_555 1_555
H27 C41 1_555 1_555
H28 C42 1_555 1_555
H29 C45 1_555 1_555
H30 C46 1_555 1_555
H31 C47 1_555 1_555
H32 C48 1_555 1_555
H33 C51 1_555 1_555
H34 C52 1_555 1_555
H35 C53 1_555 1_555
H36 C54 1_555 1_555
H37 C57 1_555 1_555
H38 C58 1_555 1_555
H39 C59 1_555 1_555
H40 C60 1_555 1_555
H41 C63 1_555 1_555
H42 C64 1_555 1_555
H43 C65 1_555 1_555
H44 C66 1_555 1_555
H45 C69 1_555 1_555
H46 C70 1_555 1_555
H47 C71 1_555 1_555
H48 C72 1_555 1_555
H49 C75 1_555 1_555
H50 C76 1_555 1_555
H51 C77 1_555 1_555
H52 C78 1_555 1_555
Na1D N2 1_555 1_555
Na2D N3D 1_555 1_555
Na3D N9D 1_555 1_555
Na3C N13 1_555 1_555
N1D Na1D 1_555 1_555
C1D N1D 1_555 1_555
C2D C1D 1_555 1_555
C3D C2D 1_555 1_555
C4D C3D 1_555 1_555
C5D N1D 1_555 1_555
C6D C2D 1_555 1_555
N2D Na1 1_555 1_555
C7D C1D 1_555 1_555
C8D C7D 1_555 1_555
C9D C8D 1_555 1_555
C10D C9D 1_555 1_555
C11D N2D 1_555 1_555
C12D C6D 1_555 1_555
N3D Na1D 1_555 1_555
C13D N3D 1_555 1_555
C14D C13D 1_555 1_555
C15D C14D 1_555 1_555
C16D C15D 1_555 1_555
C17D N3D 1_555 1_555
C18D C14D 1_555 1_555
N4D Na1D 1_555 1_555
C19D C13D 1_555 1_555
C20D C19D 1_555 1_555
C21D C20D 1_555 1_555
C22D C21D 1_555 1_555
C23D N4D 1_555 1_555
C24D C18D 1_555 1_555
N5D Na1D 1_555 1_555
C25D N5D 1_555 1_555
C26D C25D 1_555 1_555
C27D C26D 1_555 1_555
C28D C27D 1_555 1_555
C29D N5D 1_555 1_555
C30D C26D 1_555 1_555
N6D Na2D 1_555 1_555
C31D C25D 1_555 1_555
C32D C31D 1_555 1_555
C33D C32D 1_555 1_555
C34D C33D 1_555 1_555
C35D N6D 1_555 1_555
C36D C30D 1_555 1_555
N7D Na2D 1_555 1_555
C37D N7D 1_555 1_555
C38D C37D 1_555 1_555
C39D C38D 1_555 1_555
C40D C39D 1_555 1_555
C41D N7D 1_555 1_555
C42D C38D 1_555 1_555
N8D Na2D 1_555 1_555
C43D C37D 1_555 1_555
C44D C43D 1_555 1_555
C45D C44D 1_555 1_555
C46D C45D 1_555 1_555
C47D N8D 1_555 1_555
C48D C42D 1_555 1_555
N9D C49D 1_555 1_555
C49D C50D 1_555 1_555
C50D C51D 1_555 1_555
C51D C52D 1_555 1_555
C52D C53D 1_555 1_555
C53D N9D 1_555 1_555
C54D C50D 1_555 1_555
N10D Na2D 1_555 1_555
C55D C49D 1_555 1_555
C56D C55D 1_555 1_555
C57D C56D 1_555 1_555
C58D C57D 1_555 1_555
C59D N10D 1_555 1_555
C60D C54D 1_555 1_555
N11D Na3D 1_555 1_555
C61D N11D 1_555 1_555
C62D C61D 1_555 1_555
C63D C62D 1_555 1_555
C64D C63D 1_555 1_555
C65D N11D 1_555 1_555
C66D C62D 1_555 1_555
N12D Na3D 1_555 1_555
C67D C61D 1_555 1_555
C68D C67D 1_555 1_555
C69D C68D 1_555 1_555
C70D C69D 1_555 1_555
C71D N12D 1_555 1_555
C72D C66D 1_555 1_555
N13C Na3 1_555 1_555
N13G Na3D 1_555 1_555
N13D Na3D 1_555 1_555
C73C C73 1_555 1_555
C74C C73C 1_555 1_555
C75C C74C 1_555 1_555
C76C C75C 1_555 1_555
C77C N13C 1_555 1_555
C78C C78 1_555 1_555
H1D C3D 1_555 1_555
H2D C4D 1_555 1_555
H3D C5D 1_555 1_555
H4D C6D 1_555 1_555
H5D C9D 1_555 1_555
H6D C10D 1_555 1_555
H7D C11D 1_555 1_555
H8D C12D 1_555 1_555
H9D C15D 1_555 1_555
H10D C16D 1_555 1_555
H11D C17D 1_555 1_555
H12D C18D 1_555 1_555
H13D C21D 1_555 1_555
H14D C22D 1_555 1_555
H15D C23D 1_555 1_555
H16D C24D 1_555 1_555
H17D C27D 1_555 1_555
H18D C28D 1_555 1_555
H19D C29D 1_555 1_555
H20D C30D 1_555 1_555
H21D C33D 1_555 1_555
H22D C34D 1_555 1_555
H23D C35D 1_555 1_555
H24D C36D 1_555 1_555
H25D C39D 1_555 1_555
H26D C40D 1_555 1_555
H27D C41D 1_555 1_555
H28D C42D 1_555 1_555
H29D C45D 1_555 1_555
H30D C46D 1_555 1_555
H31D C47D 1_555 1_555
H32D C48D 1_555 1_555
H33D C51D 1_555 1_555
H34D C52D 1_555 1_555
H35D C53D 1_555 1_555
H36D C54D 1_555 1_555
H37D C57D 1_555 1_555
H38D C58D 1_555 1_555
H39D C59D 1_555 1_555
H40D C60D 1_555 1_555
H41D C63D 1_555 1_555
H42D C64D 1_555 1_555
H43D C65D 1_555 1_555
H44D C66D 1_555 1_555
H45D C69D 1_555 1_555
H46D C70D 1_555 1_555
H47D C71D 1_555 1_555
H48D C72D 1_555 1_555
H49C C75C 1_555 1_555
H50C C76C 1_555 1_555
H51C C77C 1_555 1_555
H52C C78C 1_555 1_555
Na2 N5 1_555 1_555
Na3 N10 1_555 1_555
N2 C7 1_555 1_555
C8 C12 1_555 1_555
C10 C11 1_555 1_555
C16 C17 1_555 1_555
N4 C19 1_555 1_555
C20 C24 1_555 1_555
C22 C23 1_555 1_555
C28 C29 1_555 1_555
N6 C31 1_555 1_555
C32 C36 1_555 1_555
C34 C35 1_555 1_555
C40 C41 1_555 1_555
N8 C43 1_555 1_555
C44 C48 1_555 1_555
C46 C47 1_555 1_555
N10 C55 1_555 1_555
C56 C60 1_555 1_555
C58 C59 1_555 1_555
C64 C65 1_555 1_555
N12 C67 1_555 1_555
C68 C72 1_555 1_555
C70 C71 1_555 1_555
C76 C77 1_555 1_555
Na1D N2D 1_555 1_555
Na2D N5D 1_555 1_555
Na3D N10D 1_555 1_555
Na3C N13C 1_555 1_555
C4D C5D 1_555 1_555
N2D C7D 1_555 1_555
C8D C12D 1_555 1_555
C10D C11D 1_555 1_555
C16D C17D 1_555 1_555
N4D C19D 1_555 1_555
C20D C24D 1_555 1_555
C22D C23D 1_555 1_555
C28D C29D 1_555 1_555
N6D C31D 1_555 1_555
C32D C36D 1_555 1_555
C34D C35D 1_555 1_555
C40D C41D 1_555 1_555
N8D C43D 1_555 1_555
C44D C48D 1_555 1_555
C46D C47D 1_555 1_555
N10D C55D 1_555 1_555
C56D C60D 1_555 1_555
C58D C59D 1_555 1_555
C64D C65D 1_555 1_555
N12D C67D 1_555 1_555
C68D C72D 1_555 1_555
C70D C71D 1_555 1_555
N13C C73C 1_555 1_555
C74C C78C 1_555 1_555
C76C C77C 1_555 1_555

#END
