
#######################################################################
#
#                 Cambridge Crystallographic Data Centre
#                                CCDC 
#
#######################################################################
#
# If this CIF has been generated from an entry in the Cambridge 
# Structural Database, then it will include bibliographic, chemical, 
# crystal, experimental, refinement or atomic coordinate data resulting 
# from the CCDC's data processing and validation procedures.
#
#######################################################################

data_CEMPAN
_symmetry_cell_setting           triclinic
_symmetry_space_group_name_H-M   'P -1'
_symmetry_Int_Tables_number      2
_space_group_name_Hall           '-P 1'
loop_
_symmetry_equiv_pos_site_id
_symmetry_equiv_pos_as_xyz
1 x,y,z
2 -x,-y,-z
_cell_length_a                   9.0904(5)
_cell_length_b                   11.3426(7)
_cell_length_c                   13.3583(7)
_cell_angle_alpha                73.018(3)
_cell_angle_beta                 78.884(3)
_cell_angle_gamma                67.506(2)
_cell_volume                     1211.95
loop_
_atom_site_label
_atom_site_type_symbol
_atom_site_fract_x
_atom_site_fract_y
_atom_site_fract_z
U1 U 0.373001(12) 0.655538(9) 0.690737(8)
Cu1 Cu 0.81488(4) 0.85657(3) 0.61398(3)
S1 S 0.16219(9) 0.95486(7) 0.78114(6)
S2 S 0.31469(10) 0.36878(7) 0.65447(6)
O1 O 0.3914(3) 0.5837(2) 0.82616(17)
O2 O 0.3603(3) 0.7283(2) 0.55487(17)
O3 O 0.5087(3) 0.79613(19) 0.69293(16)
O4 O 0.6618(3) 0.88413(19) 0.73452(16)
O5 O 0.1781(3) 0.8481(2) 0.73218(18)
O6 O 0.0035(3) 1.0035(2) 0.83056(17)
O7 O 0.2181(3) 1.0537(2) 0.70644(17)
O8 O 0.1110(3) 0.65568(19) 0.69045(17)
O9 O -0.1284(2) 0.66128(17) 0.67232(17)
O10 O 0.4068(3) 0.44422(19) 0.67060(19)
O11 O 0.4166(3) 0.23626(19) 0.65270(19)
O12 O 0.2198(3) 0.4406(2) 0.56551(18)
O13 O 0.6618(3) 0.55137(19) 0.64222(17)
H1 H 0.7193 0.5796 0.6539
H2 H 0.6740 0.5566 0.5813
O14 O 0.6595(3) 0.8982(2) 0.49666(17)
H3 H 0.7002 0.9381 0.4338
H4 H 0.5954 0.8582 0.5028
N1 N 0.9939(3) 0.8461(2) 0.49660(19)
N2 N 1.1551(3) 0.9701(2) 0.39589(19)
C1 C 0.5474(4) 0.8414(3) 0.7556(2)
C2 C 0.4593(4) 0.8390(3) 0.8629(2)
C3 C 0.2929(4) 0.8811(3) 0.8829(2)
C4 C 0.2235(4) 0.8688(3) 0.9853(2)
H5 H 0.1128 0.9017 0.9983
C5 C 0.3183(5) 0.8077(3) 1.0688(3)
H6 H 0.2708 0.7965 1.1374
C6 C 0.4808(4) 0.7639(4) 1.0503(3)
H7 H 0.5439 0.7217 1.1064
C7 C 0.5525(4) 0.7822(3) 0.9479(3)
H8 H 0.6633 0.7564 0.9360
C8 C 0.0069(4) 0.6029(3) 0.7084(2)
C9 C 0.0389(4) 0.4700(3) 0.7818(2)
C10 C 0.1753(4) 0.3608(3) 0.7686(2)
C11 C 0.2059(4) 0.2424(3) 0.8445(3)
H9 H 0.2935 0.1690 0.8339
C12 C 0.1034(5) 0.2351(3) 0.9370(3)
H10 H 0.1255 0.1572 0.9892
C13 C -0.0286(5) 0.3410(3) 0.9516(3)
H11 H -0.0945 0.3356 1.0141
C14 C -0.0649(4) 0.4577(3) 0.8724(3)
H12 H -0.1590 0.5275 0.8804
C15 C 1.0405(3) 0.9493(2) 0.4706(2)
C16 C 1.0701(4) 0.7523(3) 0.4417(2)
H13 H 1.0408 0.6784 0.4570
C17 C 1.1898(4) 0.7655(3) 0.3640(2)
H14 H 1.2426 0.7009 0.3268
C18 C 1.2306(4) 0.8770(3) 0.3420(2)
H15 H 1.3111 0.8874 0.2892
N1A N 1.0061(3) 1.1539(2) 0.50340(19)
N2A N 0.8449(3) 1.0299(2) 0.60411(19)
C15A C 0.9595(3) 1.0507(2) 0.5294(2)
C16A C 0.9299(4) 1.2477(3) 0.5583(2)
H13A H 0.9592 1.3216 0.5430
C17A C 0.8102(4) 1.2345(3) 0.6360(2)
H14A H 0.7574 1.2991 0.6732
C18A C 0.7694(4) 1.1230(3) 0.6580(2)
H15A H 0.6889 1.1126 0.7108
U1A U 1.626999(12) 1.344462(9) 0.309263(8)
Cu1A Cu 1.18512(4) 1.14343(3) 0.38602(3)
S1A S 1.83781(9) 1.04514(7) 0.21886(6)
S2A S 1.68531(10) 1.63122(7) 0.34553(6)
O1A O 1.6086(3) 1.4163(2) 0.17384(17)
O2A O 1.6397(3) 1.2717(2) 0.44513(17)
O3A O 1.4913(3) 1.20387(19) 0.30707(16)
O4A O 1.3382(3) 1.11587(19) 0.26548(16)
O5A O 1.8219(3) 1.1519(2) 0.26782(18)
O6A O 1.9965(3) 0.9965(2) 0.16944(17)
O7A O 1.7819(3) 0.9463(2) 0.29356(17)
O8A O 1.8890(3) 1.34432(19) 0.30955(17)
O9A O 2.1284(2) 1.33872(17) 0.32768(17)
O10A O 1.5932(3) 1.55578(19) 0.32940(19)
O11A O 1.5834(3) 1.76374(19) 0.34730(19)
O12A O 1.7802(3) 1.5594(2) 0.43449(18)
O13A O 1.3382(3) 1.44863(19) 0.35778(17)
H1A H 1.2807 1.4204 0.3461
H2A H 1.3260 1.4434 0.4187
O14A O 1.3405(3) 1.1018(2) 0.50334(17)
H3A H 1.2998 1.0619 0.5662
H4A H 1.4046 1.1418 0.4972
C1A C 1.4526(4) 1.1586(3) 0.2444(2)
C2A C 1.5407(4) 1.1610(3) 0.1371(2)
C3A C 1.7071(4) 1.1189(3) 0.1171(2)
C4A C 1.7765(4) 1.1312(3) 0.0147(2)
H5A H 1.8872 1.0983 0.0017
C5A C 1.6817(5) 1.1923(3) -0.0688(3)
H6A H 1.7292 1.2035 -0.1374
C6A C 1.5192(4) 1.2361(4) -0.0503(3)
H7A H 1.4561 1.2783 -0.1064
C7A C 1.4475(4) 1.2178(3) 0.0521(3)
H8A H 1.3367 1.2436 0.0640
C8A C 1.9931(4) 1.3971(3) 0.2916(2)
C9A C 1.9611(4) 1.5300(3) 0.2182(2)
C10A C 1.8247(4) 1.6392(3) 0.2314(2)
C11A C 1.7941(4) 1.7576(3) 0.1555(3)
H9A H 1.7065 1.8310 0.1661
C12A C 1.8966(5) 1.7649(3) 0.0630(3)
H10A H 1.8745 1.8428 0.0108
C13A C 2.0286(5) 1.6590(3) 0.0484(3)
H11A H 2.0945 1.6644 -0.0141
C14A C 2.0649(4) 1.5423(3) 0.1276(3)
H12A H 2.1590 1.4725 0.1196
Cu1_2 Cu -0.18512(4) 0.85657(3) 0.61398(3)
Cu1A_2 Cu 2.18512(4) 1.14343(3) 0.38602(3)
O9_2 O 0.8716(2) 0.66128(17) 0.67232(17)
O9A_2 O 1.1284(2) 1.33872(17) 0.32768(17)
loop_
_geom_bond_atom_site_label_1
_geom_bond_atom_site_label_2
_geom_bond_site_symmetry_1
_geom_bond_site_symmetry_2
U1 O1 1_555 1_555
Cu1 O4 1_555 1_555
S1 O5 1_555 1_555
S2 O10 1_555 1_555
O2 U1 1_555 1_555
O3 U1 1_555 1_555
O4 C1 1_555 1_555
O5 U1 1_555 1_555
O6 S1 1_555 1_555
O7 S1 1_555 1_555
O8 U1 1_555 1_555
O9 C8 1_555 1_555
O10 U1 1_555 1_555
O11 S2 1_555 1_555
O12 S2 1_555 1_555
O13 U1 1_555 1_555
H1 O13 1_555 1_555
H2 O13 1_555 1_555
O14 Cu1 1_555 1_555
H3 O14 1_555 1_555
H4 O14 1_555 1_555
N1 Cu1 1_555 1_555
N2 C15 1_555 1_555
C1 O3 1_555 1_555
C2 C1 1_555 1_555
C3 S1 1_555 1_555
C4 C3 1_555 1_555
H5 C4 1_555 1_555
C5 C4 1_555 1_555
H6 C5 1_555 1_555
C6 C5 1_555 1_555
H7 C6 1_555 1_555
C7 C2 1_555 1_555
H8 C7 1_555 1_555
C8 O8 1_555 1_555
C9 C8 1_555 1_555
C10 S2 1_555 1_555
C11 C10 1_555 1_555
H9 C11 1_555 1_555
C12 C11 1_555 1_555
H10 C12 1_555 1_555
C13 C12 1_555 1_555
H11 C13 1_555 1_555
C14 C9 1_555 1_555
H12 C14 1_555 1_555
C15 N1 1_555 1_555
C16 N1 1_555 1_555
H13 C16 1_555 1_555
C17 C16 1_555 1_555
H14 C17 1_555 1_555
C18 N2 1_555 1_555
H15 C18 1_555 1_555
N1A C15A 1_555 1_555
N2A Cu1 1_555 1_555
C15A C15 1_555 1_555
C16A N1A 1_555 1_555
H13A C16A 1_555 1_555
C17A C16A 1_555 1_555
H14A C17A 1_555 1_555
C18A N2A 1_555 1_555
H15A C18A 1_555 1_555
U1A O1A 1_555 1_555
Cu1A N2 1_555 1_555
S1A O5A 1_555 1_555
S2A O10A 1_555 1_555
O2A U1A 1_555 1_555
O3A U1A 1_555 1_555
O4A Cu1A 1_555 1_555
O5A U1A 1_555 1_555
O6A S1A 1_555 1_555
O7A S1A 1_555 1_555
O8A U1A 1_555 1_555
O9A C8A 1_555 1_555
O10A U1A 1_555 1_555
O11A S2A 1_555 1_555
O12A S2A 1_555 1_555
O13A U1A 1_555 1_555
H1A O13A 1_555 1_555
H2A O13A 1_555 1_555
O14A Cu1A 1_555 1_555
H3A O14A 1_555 1_555
H4A O14A 1_555 1_555
C1A O3A 1_555 1_555
C2A C1A 1_555 1_555
C3A S1A 1_555 1_555
C4A C3A 1_555 1_555
H5A C4A 1_555 1_555
C5A C4A 1_555 1_555
H6A C5A 1_555 1_555
C6A C5A 1_555 1_555
H7A C6A 1_555 1_555
C7A C2A 1_555 1_555
H8A C7A 1_555 1_555
C8A O8A 1_555 1_555
C9A C8A 1_555 1_555
C10A S2A 1_555 1_555
C11A C10A 1_555 1_555
H9A C11A 1_555 1_555
C12A C11A 1_555 1_555
H10A C12A 1_555 1_555
C13A C12A 1_555 1_555
H11A C13A 1_555 1_555
C14A C9A 1_555 1_555
H12A C14A 1_555 1_555
Cu1_2 O9 1_555 1_555
Cu1A_2 O9A 1_555 1_555
O9_2 Cu1 1_555 1_555
O9A_2 Cu1A 1_555 1_555
C2 C3 1_555 1_555
C6 C7 1_555 1_555
C9 C10 1_555 1_555
C13 C14 1_555 1_555
C17 C18 1_555 1_555
N1A Cu1A 1_555 1_555
N2A C15A 1_555 1_555
C17A C18A 1_555 1_555
O4A C1A 1_555 1_555
C2A C3A 1_555 1_555
C6A C7A 1_555 1_555
C9A C10A 1_555 1_555
C13A C14A 1_555 1_555

#END
