
#######################################################################
#
#                 Cambridge Crystallographic Data Centre
#                                CCDC 
#
#######################################################################
#
# If this CIF has been generated from an entry in the Cambridge 
# Structural Database, then it will include bibliographic, chemical, 
# crystal, experimental, refinement or atomic coordinate data resulting 
# from the CCDC's data processing and validation procedures.
#
#######################################################################

data_CEMQAO
_symmetry_cell_setting           triclinic
_symmetry_space_group_name_H-M   'P -1'
_symmetry_Int_Tables_number      2
_space_group_name_Hall           '-P 1'
loop_
_symmetry_equiv_pos_site_id
_symmetry_equiv_pos_as_xyz
1 x,y,z
2 -x,-y,-z
_cell_length_a                   14.8569(7)
_cell_length_b                   16.3899(7)
_cell_length_c                   20.0779(8)
_cell_angle_alpha                88.442(3)
_cell_angle_beta                 70.273(2)
_cell_angle_gamma                66.815(2)
_cell_volume                     4198.75
loop_
_atom_site_label
_atom_site_type_symbol
_atom_site_fract_x
_atom_site_fract_y
_atom_site_fract_z
U1 U -0.183391(15) 0.871271(13) 0.341469(9)
U2 U 0.178001(15) 0.648293(13) 0.410286(9)
U3 U 0.159037(18) 0.641631(14) 0.757275(10)
U4 U -0.188685(16) 0.859055(14) 1.000116(10)
S1 S -0.27948(12) 0.97323(10) 0.52515(7)
S2 S -0.34946(16) 1.03249(14) 0.26221(11)
S3 S 0.29171(12) 0.54707(10) 0.22762(7)
S4 S 0.32922(11) 0.47582(9) 0.60186(7)
S5 S 0.27755(13) 0.53198(11) 0.88315(8)
S6 S -0.32417(12) 0.95964(11) 0.87819(8)
O1 O -0.1299(4) 0.9488(3) 0.3099(2)
O2 O -0.2376(4) 0.7944(3) 0.3757(2)
O3 O 0.2135(3) 0.7376(3) 0.3824(2)
O4 O 0.1436(3) 0.5584(3) 0.43819(19)
O5 O 0.2228(3) 0.7126(3) 0.7549(2)
O6 O 0.0959(3) 0.5689(3) 0.76172(19)
O7 O -0.1662(3) 0.9550(3) 1.00879(18)
O8 O -0.2108(4) 0.7631(3) 0.9906(2)
O9 O -0.0843(3) 0.8334(3) 0.41560(19)
O10 O 0.0030(3) 0.7454(4) 0.4789(2)
O11 O -0.2835(3) 0.9697(2) 0.45292(18)
O12 O -0.1888(4) 0.9849(3) 0.5251(2)
O13 O -0.3775(4) 1.0384(3) 0.5733(2)
O14 O -0.1900(3) 0.8288(3) 0.22899(17)
O15 O -0.1790(3) 0.8223(3) 0.11642(18)
O16 O -0.3319(4) 0.9830(4) 0.3235(3)
O17 O -0.4072(4) 1.1194(3) 0.2844(2)
O18 O -0.3855(4) 0.9888(3) 0.2189(3)
O19 O -0.0141(3) 0.7604(3) 0.27313(19)
O20 O 0.0846(3) 0.6776(3) 0.33202(18)
O21 O 0.2896(3) 0.5565(3) 0.3014(2)
O22 O 0.2095(4) 0.5237(3) 0.2240(2)
O23 O 0.3962(4) 0.4879(4) 0.1829(2)
O24 O 0.1694(3) 0.6823(2) 0.52854(17)
O25 O 0.1596(3) 0.6894(3) 0.64014(18)
O26 O 0.3083(3) 0.5315(3) 0.66680(19)
O27 O 0.3889(4) 0.3832(3) 0.6039(2)
O28 O 0.3739(3) 0.5117(3) 0.53872(19)
O29 O 0.0739(3) 0.6808(3) 0.88029(19)
O30 O -0.0075(3) 0.7723(3) 0.9822(2)
O31 O 0.2723(4) 0.5407(3) 0.8107(2)
O32 O 0.3780(4) 0.4646(3) 0.8792(2)
O33 O 0.1894(4) 0.5192(3) 0.9316(2)
O34 O -0.0074(3) 0.7579(3) 0.7720(2)
O35 O -0.1052(3) 0.8402(3) 0.87623(18)
O36 O -0.3152(3) 0.9481(3) 0.9491(2)
O37 O -0.4318(3) 1.0126(3) 0.8855(2)
O38 O -0.2508(3) 0.9909(3) 0.8318(2)
O39 O 0.3516(3) 0.5677(3) 0.41403(19)
H1 H 0.3536 0.5395 0.4496
H2 H 0.4081 0.5380 0.3793
O40 O -0.3624(4) 0.9304(5) 1.0899(2)
H3 H -0.3673 0.9579 1.1306
H4 H -0.4336 0.9489 1.1026
C1 C -0.0802(4) 0.7898(5) 0.4681(3)
C2 C -0.1778(5) 0.7897(4) 0.5227(3)
C3 C -0.2687(4) 0.8665(4) 0.5528(3)
C4 C -0.3534(5) 0.8604(5) 0.6045(3)
H5 H -0.4142 0.9119 0.6249
C5 C -0.3500(6) 0.7786(5) 0.6271(4)
H6 H -0.4070 0.7756 0.6634
C6 C -0.2626(7) 0.7032(5) 0.5955(4)
H7 H -0.2613 0.6480 0.6087
C7 C -0.1762(6) 0.7071(4) 0.5446(4)
H8 H -0.1163 0.6549 0.5243
C8 C -0.1774(4) 0.8594(4) 0.1697(3)
C9 C -0.1509(4) 0.9410(4) 0.1617(3)
C10 C -0.2256(4) 1.0233(5) 0.1986(3)
C11 C -0.1920(6) 1.0933(4) 0.1920(4)
H9 H -0.2404 1.1507 0.2132
C12 C -0.0881(5) 1.0791(4) 0.1547(3)
H10 H -0.0674 1.1261 0.1524
C13 C -0.0178(5) 0.9970(4) 0.1219(3)
H11 H 0.0516 0.9873 0.0973
C14 C -0.0483(5) 0.9266(4) 0.1245(3)
H12 H 0.0003 0.8701 0.1013
C15 C 0.0732(4) 0.7207(4) 0.2801(3)
C16 C 0.1680(4) 0.7243(4) 0.2237(3)
C17 C 0.2688(5) 0.6544(4) 0.1993(3)
C18 C 0.3511(5) 0.6676(5) 0.1488(3)
H13 H 0.4172 0.6206 0.1314
C19 C 0.3360(7) 0.7491(6) 0.1243(4)
H14 H 0.3923 0.7577 0.0920
C20 C 0.2391(7) 0.8173(5) 0.1471(3)
H15 H 0.2294 0.8721 0.1296
C21 C 0.1549(6) 0.8060(4) 0.1959(3)
H16 H 0.0889 0.8529 0.2105
C22 C 0.1560(4) 0.6521(3) 0.5879(2)
C23 C 0.1331(4) 0.5708(4) 0.5983(3)
C24 C 0.2035(5) 0.4886(4) 0.6047(3)
C25 C 0.1773(5) 0.4160(4) 0.6162(3)
H17 H 0.2261 0.3608 0.6198
C26 C 0.0777(6) 0.4263(5) 0.6225(3)
H18 H 0.0598 0.3775 0.6296
C27 C 0.0057(6) 0.5074(5) 0.6182(3)
H19 H -0.0616 0.5138 0.6238
C28 C 0.0315(5) 0.5807(4) 0.6056(3)
H20 H -0.0178 0.6357 0.6020
C29 C 0.0753(5) 0.7226(4) 0.9327(3)
C30 C 0.1776(5) 0.7135(4) 0.9358(3)
C31 C 0.2704(5) 0.6361(5) 0.9128(3)
C32 C 0.3613(6) 0.6377(5) 0.9153(3)
H21 H 0.4223 0.5853 0.9019
C33 C 0.3631(6) 0.7159(6) 0.9373(4)
H22 H 0.4258 0.7165 0.9364
C34 C 0.2720(6) 0.7934(6) 0.9607(4)
H23 H 0.2727 0.8462 0.9759
C35 C 0.1789(6) 0.7911(5) 0.9610(3)
H24 H 0.1168 0.8422 0.9784
C36 C -0.0950(5) 0.7961(4) 0.8220(3)
C37 C -0.1867(5) 0.7855(4) 0.8145(3)
C38 C -0.2910(5) 0.8509(4) 0.8399(3)
C39 C -0.3707(6) 0.8330(6) 0.8323(4)
H25 H -0.4392 0.8762 0.8478
C40 C -0.3452(8) 0.7471(7) 0.8003(4)
H26 H -0.3985 0.7338 0.7960
C41 C -0.2457(8) 0.6838(6) 0.7756(4)
H27 H -0.2312 0.6276 0.7553
C42 C -0.1670(6) 0.7032(4) 0.7809(3)
H28 H -0.0983 0.6606 0.7618
U4_2 U -0.188685(16) 0.859055(14) 0.000116(10)
O15_2 O -0.1790(3) 0.8223(3) 1.11642(18)
O43 O -0.5000 1.0000 0.5000
O44 O 0.5089(4) 0.4747(4) 0.2932(2)
O45 O 0.4189(12) 0.8785(10) 0.9732(7)
O46 O 0.5041(16) 0.3239(15) 0.2547(12)
O48 O 0.439(2) 0.213(2) 0.9747(13)
N1 N 0.0536(4) 0.0511(3) 0.3523(2)
C43 C -0.0287(5) 0.0786(5) 0.4239(3)
H29 H -0.0731 0.0474 0.4290
H30 H -0.0698 0.1418 0.4298
H31 H 0.0032 0.0643 0.4595
C44 C 0.1135(5) 0.1092(5) 0.3411(3)
H32 H 0.0672 0.1702 0.3423
H33 H 0.1695 0.0896 0.2957
H34 H 0.1418 0.1048 0.3782
C45 C 0.1247(6) -0.0453(4) 0.3457(4)
H35 H 0.1605 -0.0532 0.3788
H36 H 0.1751 -0.0641 0.2981
H37 H 0.0842 -0.0806 0.3560
C46 C 0.0058(5) 0.0642(4) 0.2959(3)
H38 H -0.0430 0.1254 0.3016
H39 H -0.0302 0.0258 0.3002
H40 H 0.0599 0.0499 0.2497
N2 N 0.3949(4) 0.7635(3) 0.5552(2)
C47 C 0.3711(5) 0.7437(5) 0.4930(3)
H41 H 0.3402 0.7984 0.4747
H42 H 0.3229 0.7156 0.5075
H43 H 0.4346 0.7044 0.4566
C48 C 0.4349(6) 0.6794(5) 0.5855(4)
H44 H 0.5059 0.6436 0.5556
H45 H 0.3923 0.6472 0.5881
H46 H 0.4326 0.6928 0.6324
C49 C 0.2977(5) 0.8289(4) 0.6092(4)
H47 H 0.3131 0.8429 0.6491
H48 H 0.2468 0.8036 0.6249
H49 H 0.2704 0.8824 0.5885
C50 C 0.4746(5) 0.8021(4) 0.5324(3)
H50 H 0.5373 0.7603 0.4969
H51 H 0.4902 0.8141 0.5728
H52 H 0.4476 0.8567 0.5129
N3 N 0.9664(4) 0.4306(4) 0.8817(2)
C51 C 1.0290(7) 0.4082(5) 0.8035(3)
H53 H 1.0706 0.4424 0.7898
H54 H 0.9824 0.4222 0.7773
H55 H 1.0741 0.3456 0.7931
C52 C 1.0366(5) 0.4064(5) 0.9235(3)
H56 H 1.0790 0.4400 0.9116
H57 H 1.0810 0.3437 0.9126
H58 H 0.9953 0.4199 0.9735
C53 C 0.9034(5) 0.3761(5) 0.9003(3)
H59 H 0.9496 0.3137 0.8895
H60 H 0.8581 0.3900 0.8732
H61 H 0.8620 0.3894 0.9503
C54 C 0.8974(6) 0.5285(5) 0.8978(3)
H62 H 0.8607 0.5437 0.9483
H63 H 0.8477 0.5425 0.8741
H64 H 0.9394 0.5620 0.8813
N4 N 0.4510(5) 0.2399(5) 0.7531(3)
C55 C 0.3388(7) 0.3041(7) 0.7929(6)
H65 H 0.3028 0.2731 0.8249
H66 H 0.3045 0.3275 0.7594
H67 H 0.3379 0.3523 0.8195
C56 C 0.5113(8) 0.2958(7) 0.7254(5)
H68 H 0.4952 0.3220 0.6852
H69 H 0.5855 0.2611 0.7114
H70 H 0.4897 0.3423 0.7625
C57 C 0.4447(9) 0.1919(7) 0.6942(5)
H71 H 0.4145 0.1505 0.7140
H72 H 0.5114 0.1604 0.6573
H73 H 0.3987 0.2361 0.6746
C58 C 0.4885(9) 0.1826(8) 0.8018(6)
H74 H 0.4301 0.1838 0.8421
H75 H 0.5311 0.2031 0.8177
H76 H 0.5296 0.1226 0.7783
S7? S -0.3577(3) 1.0713(3) 0.2084(2)
O41? O -0.3690(9) 0.9562(9) 0.3584(6)
O42? O -0.3967(10) 1.1419(9) 0.1677(7)
O47? O 0.400(3) 0.292(3) 0.9934(16)
loop_
_geom_bond_atom_site_label_1
_geom_bond_atom_site_label_2
_geom_bond_site_symmetry_1
_geom_bond_site_symmetry_2
U1 O1 1_555 1_555
U2 O3 1_555 1_555
U3 O5 1_555 1_555
U4 O7 1_555 1_555
S1 O11 1_555 1_555
S2 O16 1_555 1_555
S3 O21 1_555 1_555
S4 O26 1_555 1_555
S5 O31 1_555 1_555
S6 O36 1_555 1_555
O2 U1 1_555 1_555
O4 U2 1_555 1_555
O6 U3 1_555 1_555
O8 U4 1_555 1_555
O9 U1 1_555 1_555
O10 U2 1_555 1_555
O11 U1 1_555 1_555
O12 S1 1_555 1_555
O13 S1 1_555 1_555
O14 U1 1_555 1_555
O15 C8 1_555 1_555
O16 U1 1_555 1_555
O17 S2 1_555 1_555
O18 S2 1_555 1_555
O19 U1 1_555 1_555
O20 U2 1_555 1_555
O21 U2 1_555 1_555
O22 S3 1_555 1_555
O23 S3 1_555 1_555
O24 U2 1_555 1_555
O25 U3 1_555 1_555
O26 U3 1_555 1_555
O27 S4 1_555 1_555
O28 S4 1_555 1_555
O29 U3 1_555 1_555
O30 U4 1_555 1_555
O31 U3 1_555 1_555
O32 S5 1_555 1_555
O33 S5 1_555 1_555
O34 U3 1_555 1_555
O35 U4 1_555 1_555
O36 U4 1_555 1_555
O37 S6 1_555 1_555
O38 S6 1_555 1_555
O39 U2 1_555 1_555
H1 O39 1_555 1_555
H2 O39 1_555 1_555
O40 U4 1_555 1_555
H3 O40 1_555 1_555
H4 O40 1_555 1_555
C1 O9 1_555 1_555
C2 C1 1_555 1_555
C3 S1 1_555 1_555
C4 C3 1_555 1_555
H5 C4 1_555 1_555
C5 C4 1_555 1_555
H6 C5 1_555 1_555
C6 C5 1_555 1_555
H7 C6 1_555 1_555
C7 C2 1_555 1_555
H8 C7 1_555 1_555
C8 O14 1_555 1_555
C9 C8 1_555 1_555
C10 S2 1_555 1_555
C11 C10 1_555 1_555
H9 C11 1_555 1_555
C12 C11 1_555 1_555
H10 C12 1_555 1_555
C13 C12 1_555 1_555
H11 C13 1_555 1_555
C14 C9 1_555 1_555
H12 C14 1_555 1_555
C15 O19 1_555 1_555
C16 C15 1_555 1_555
C17 S3 1_555 1_555
C18 C17 1_555 1_555
H13 C18 1_555 1_555
C19 C18 1_555 1_555
H14 C19 1_555 1_555
C20 C19 1_555 1_555
H15 C20 1_555 1_555
C21 C16 1_555 1_555
H16 C21 1_555 1_555
C22 O24 1_555 1_555
C23 C22 1_555 1_555
C24 S4 1_555 1_555
C25 C24 1_555 1_555
H17 C25 1_555 1_555
C26 C25 1_555 1_555
H18 C26 1_555 1_555
C27 C26 1_555 1_555
H19 C27 1_555 1_555
C28 C23 1_555 1_555
H20 C28 1_555 1_555
C29 O29 1_555 1_555
C30 C29 1_555 1_555
C31 S5 1_555 1_555
C32 C31 1_555 1_555
H21 C32 1_555 1_555
C33 C32 1_555 1_555
H22 C33 1_555 1_555
C34 C33 1_555 1_555
H23 C34 1_555 1_555
C35 C30 1_555 1_555
H24 C35 1_555 1_555
C36 O34 1_555 1_555
C37 C36 1_555 1_555
C38 S6 1_555 1_555
C39 C38 1_555 1_555
H25 C39 1_555 1_555
C40 C39 1_555 1_555
H26 C40 1_555 1_555
C41 C40 1_555 1_555
H27 C41 1_555 1_555
C42 C37 1_555 1_555
H28 C42 1_555 1_555
N1 C43 1_555 1_555
C43 H29 1_555 1_555
H30 C43 1_555 1_555
H31 C43 1_555 1_555
C44 N1 1_555 1_555
H32 C44 1_555 1_555
H33 C44 1_555 1_555
H34 C44 1_555 1_555
C45 N1 1_555 1_555
H35 C45 1_555 1_555
H36 C45 1_555 1_555
H37 C45 1_555 1_555
C46 N1 1_555 1_555
H38 C46 1_555 1_555
H39 C46 1_555 1_555
H40 C46 1_555 1_555
N2 C47 1_555 1_555
C47 H41 1_555 1_555
H42 C47 1_555 1_555
H43 C47 1_555 1_555
C48 N2 1_555 1_555
H44 C48 1_555 1_555
H45 C48 1_555 1_555
H46 C48 1_555 1_555
C49 N2 1_555 1_555
H47 C49 1_555 1_555
H48 C49 1_555 1_555
H49 C49 1_555 1_555
C50 N2 1_555 1_555
H50 C50 1_555 1_555
H51 C50 1_555 1_555
H52 C50 1_555 1_555
N3 C51 1_555 1_555
C51 H53 1_555 1_555
H54 C51 1_555 1_555
H55 C51 1_555 1_555
C52 N3 1_555 1_555
H56 C52 1_555 1_555
H57 C52 1_555 1_555
H58 C52 1_555 1_555
C53 N3 1_555 1_555
H59 C53 1_555 1_555
H60 C53 1_555 1_555
H61 C53 1_555 1_555
C54 N3 1_555 1_555
H62 C54 1_555 1_555
H63 C54 1_555 1_555
H64 C54 1_555 1_555
N4 C55 1_555 1_555
C55 H65 1_555 1_555
H66 C55 1_555 1_555
H67 C55 1_555 1_555
C56 N4 1_555 1_555
H68 C56 1_555 1_555
H69 C56 1_555 1_555
H70 C56 1_555 1_555
C57 N4 1_555 1_555
H71 C57 1_555 1_555
H72 C57 1_555 1_555
H73 C57 1_555 1_555
C58 N4 1_555 1_555
H74 C58 1_555 1_555
H75 C58 1_555 1_555
H76 C58 1_555 1_555
U4_2 O15 1_555 1_555
O15_2 U4 1_555 1_555
O10 C1 1_555 1_555
O20 C15 1_555 1_555
O25 C22 1_555 1_555
O30 C29 1_555 1_555
O35 C36 1_555 1_555
C2 C3 1_555 1_555
C6 C7 1_555 1_555
C9 C10 1_555 1_555
C13 C14 1_555 1_555
C16 C17 1_555 1_555
C20 C21 1_555 1_555
C23 C24 1_555 1_555
C27 C28 1_555 1_555
C30 C31 1_555 1_555
C34 C35 1_555 1_555
C37 C38 1_555 1_555
C41 C42 1_555 1_555

#END
