
#######################################################################
#
#                 Cambridge Crystallographic Data Centre
#                                CCDC 
#
#######################################################################
#
# If this CIF has been generated from an entry in the Cambridge 
# Structural Database, then it will include bibliographic, chemical, 
# crystal, experimental, refinement or atomic coordinate data resulting 
# from the CCDC's data processing and validation procedures.
#
#######################################################################

data_CEMTUK
_symmetry_cell_setting           monoclinic
_symmetry_space_group_name_H-M   'P 21/n'
_symmetry_Int_Tables_number      14
_space_group_name_Hall           '-P 2yn'
loop_
_symmetry_equiv_pos_site_id
_symmetry_equiv_pos_as_xyz
1 x,y,z
2 1/2-x,1/2+y,1/2-z
3 -x,-y,-z
4 1/2+x,1/2-y,1/2+z
_cell_length_a                   11.5598(3)
_cell_length_b                   19.7777(5)
_cell_length_c                   12.8335(3)
_cell_angle_alpha                90
_cell_angle_beta                 109.256(2)
_cell_angle_gamma                90
_cell_volume                     2769.93
loop_
_atom_site_label
_atom_site_type_symbol
_atom_site_fract_x
_atom_site_fract_y
_atom_site_fract_z
Ag1 Ag 0.08922(4) 0.162824(17) 0.65223(3)
N1 N 0.0893(3) 0.26987(18) 0.6712(3)
C1 C 0.0457(6) 0.2978(2) 0.7470(5)
H1 H 0.0189 0.2683 0.7929
C2 C 0.0379(5) 0.3653(3) 0.7616(5)
H2 H 0.0075 0.3816 0.8172
C3 C 0.0745(4) 0.4114(2) 0.6952(3)
C4 C 0.1202(4) 0.3827(2) 0.6183(4)
H3 H 0.1481 0.4110 0.5716
C5 C 0.1252(4) 0.3138(2) 0.6092(4)
H4 H 0.1565 0.2961 0.5549
N2 N 0.0646(3) 0.48088(17) 0.7136(3)
C6 C 0.0348(5) 0.5005(2) 0.8123(4)
H5 H 0.0425 0.5496 0.8220
H6 H 0.0915 0.4781 0.8773
H7 H -0.0493 0.4868 0.8035
C7 C 0.0929(4) 0.5298(2) 0.6478(4)
O1 O 0.1452(4) 0.51761(17) 0.5820(3)
C8 C 0.0569(4) 0.6007(2) 0.6601(4)
S1 S 0.15105(10) 0.66248(5) 0.63644(10)
C9 C 0.0595(4) 0.7258(2) 0.6585(3)
C10 C -0.0415(4) 0.6998(2) 0.6775(4)
H8 H -0.1039 0.7268 0.6894
C11 C -0.0427(4) 0.6286(2) 0.6775(4)
H9 H -0.1068 0.6027 0.6886
C12 C 0.0929(4) 0.7968(2) 0.6412(4)
O2 O 0.1259(4) 0.80922(17) 0.5631(3)
N3 N 0.0806(3) 0.84459(17) 0.7154(3)
C13 C 0.0590(5) 0.8244(2) 0.8180(4)
H10 H 0.0599 0.7750 0.8234
H11 H -0.0208 0.8415 0.8172
H12 H 0.1236 0.8433 0.8815
C14 C 0.0819(4) 0.9147(2) 0.6941(4)
C15 C 0.0300(5) 0.9589(3) 0.7503(4)
H13 H -0.0075 0.9416 0.8004
C16 C 0.0326(5) 1.0267(2) 0.7338(5)
H14 H -0.0030 1.0556 0.7741
N4 N 0.0826(3) 1.05507(18) 0.6638(3)
C17 C 0.1319(4) 1.0127(2) 0.6092(4)
H15 H 0.1680 1.0313 0.5589
C18 C 0.1333(4) 0.9438(2) 0.6219(4)
H16 H 0.1697 0.9160 0.5808
Ag1_2 Ag 0.08922(4) 1.162824(17) 0.65223(3)
N4_2 N 0.0826(3) 0.05507(18) 0.6638(3)
P1 P 0.30439(12) 1.15692(6) 1.45546(10)
F1 F 0.4404(4) 1.1644(3) 1.4600(5)
F2 F 0.1678(4) 1.1549(2) 1.4549(4)
F3 F 0.3113(5) 1.07821(19) 1.4517(3)
F4 F 0.2574(4) 1.16102(17) 1.3254(3)
F5 F 0.2989(4) 1.23759(18) 1.4630(3)
F6 F 0.3491(4) 1.15388(18) 1.5873(3)
C19 C 0.2250(7) 1.0863(4) 1.0764(6)
H17 H 0.2575 1.1082 1.1497
H18 H 0.2914 1.0855 1.0436
Cl1 Cl 0.1020(2) 1.13429(13) 0.99163(16)
Cl2 Cl 0.1816(2) 1.00286(14) 1.09299(18)
C20 C 0.2708(9) 0.8390(3) 1.3854(9)
H19 H 0.3525 0.8182 1.4003
H20 H 0.2336 0.8194 1.4380
Cl3 Cl 0.1825(2) 0.81998(16) 1.2559(3)
Cl4 Cl 0.28801(18) 0.92577(10) 1.40739(15)
loop_
_geom_bond_atom_site_label_1
_geom_bond_atom_site_label_2
_geom_bond_site_symmetry_1
_geom_bond_site_symmetry_2
Ag1 N1 1_555 1_555
N1 C1 1_555 1_555
C1 H1 1_555 1_555
C2 C1 1_555 1_555
H2 C2 1_555 1_555
C3 C2 1_555 1_555
C4 C3 1_555 1_555
H3 C4 1_555 1_555
C5 N1 1_555 1_555
H4 C5 1_555 1_555
N2 C3 1_555 1_555
C6 N2 1_555 1_555
H5 C6 1_555 1_555
H6 C6 1_555 1_555
H7 C6 1_555 1_555
C7 N2 1_555 1_555
O1 C7 1_555 1_555
C8 C7 1_555 1_555
S1 C8 1_555 1_555
C9 S1 1_555 1_555
C10 C9 1_555 1_555
H8 C10 1_555 1_555
C11 C8 1_555 1_555
H9 C11 1_555 1_555
C12 C9 1_555 1_555
O2 C12 1_555 1_555
N3 C12 1_555 1_555
C13 N3 1_555 1_555
H10 C13 1_555 1_555
H11 C13 1_555 1_555
H12 C13 1_555 1_555
C14 N3 1_555 1_555
C15 C14 1_555 1_555
H13 C15 1_555 1_555
C16 C15 1_555 1_555
H14 C16 1_555 1_555
N4 C16 1_555 1_555
C17 N4 1_555 1_555
H15 C17 1_555 1_555
C18 C14 1_555 1_555
H16 C18 1_555 1_555
P1 F1 1_555 1_555
F2 P1 1_555 1_555
F3 P1 1_555 1_555
F4 P1 1_555 1_555
F5 P1 1_555 1_555
F6 P1 1_555 1_555
C19 H17 1_555 1_555
H18 C19 1_555 1_555
Cl1 C19 1_555 1_555
Cl2 C19 1_555 1_555
C20 H19 1_555 1_555
H20 C20 1_555 1_555
Cl3 C20 1_555 1_555
Cl4 C20 1_555 1_555
Ag1_2 N4 1_555 1_555
N4_2 Ag1 1_555 1_555
C4 C5 1_555 1_555
C10 C11 1_555 1_555
C17 C18 1_555 1_555

#END
