
#######################################################################
#
#                 Cambridge Crystallographic Data Centre
#                                CCDC 
#
#######################################################################
#
# If this CIF has been generated from an entry in the Cambridge 
# Structural Database, then it will include bibliographic, chemical, 
# crystal, experimental, refinement or atomic coordinate data resulting 
# from the CCDC's data processing and validation procedures.
#
#######################################################################

data_CEMVEX
_symmetry_cell_setting           monoclinic
_symmetry_space_group_name_H-M   'P 21/c'
_symmetry_Int_Tables_number      14
_space_group_name_Hall           '-P 2ybc'
loop_
_symmetry_equiv_pos_site_id
_symmetry_equiv_pos_as_xyz
1 x,y,z
2 -x,1/2+y,1/2-z
3 -x,-y,-z
4 x,1/2-y,1/2+z
_cell_length_a                   14.3901(4)
_cell_length_b                   12.5772(4)
_cell_length_c                   21.7574(8)
_cell_angle_alpha                90
_cell_angle_beta                 124.537(2)
_cell_angle_gamma                90
_cell_volume                     3243.81
loop_
_atom_site_label
_atom_site_type_symbol
_atom_site_fract_x
_atom_site_fract_y
_atom_site_fract_z
Cu1 Cu 0.02039(3) -0.16430(4) -0.23525(2)
As1 As -0.00776(2) -0.39289(2) 0.042137(16)
Mo1 Mo 0.01613(2) -0.34875(2) -0.112519(14)
Mo2 Mo -0.23166(2) -0.42867(2) -0.159108(14)
Mo3 Mo 0.25084(2) -0.41491(2) 0.046407(14)
C1 C 0.2470(3) -0.0736(3) -0.16584(19)
H1 H 0.2311 -0.0452 -0.2103
C2 C 0.2285(3) -0.1560(3) -0.09007(18)
H2 H 0.2000 -0.1966 -0.0686
C3 C 0.4191(3) -0.1229(3) 0.02599(17)
H3 H 0.3884 -0.1544 0.0516
H4 H 0.4469 -0.0526 0.0467
C4 C 0.5152(3) -0.1900(3) 0.03914(18)
H5 H 0.5596 -0.1499 0.0264
H6 H 0.4859 -0.2526 0.0076
C5 C 0.5882(3) -0.2227(3) 0.11970(19)
H7 H 0.6079 -0.1603 0.1510
H8 H 0.5460 -0.2705 0.1303
C6 C 0.7955(3) -0.3819(3) 0.13009(19)
H9 H 0.8213 -0.4351 0.1137
C7 C 0.7948(3) -0.2581(3) 0.19419(19)
H10 H 0.8167 -0.2062 0.2304
C8 C -0.0219(3) -0.2672(2) 0.08451(16)
C9 C 0.0683(3) -0.2295(3) 0.15091(19)
H11 H 0.1374 -0.2645 0.1754
C10 C 0.0552(4) -0.1389(4) 0.1809(2)
H12 H 0.1153 -0.1131 0.2265
C11 C -0.0457(4) -0.0871(4) 0.1438(3)
H13 H -0.0533 -0.0252 0.1640
C12 C -0.1362(4) -0.1248(3) 0.0773(3)
H14 H -0.2047 -0.0888 0.0527
C13 C -0.1250(3) -0.2165(3) 0.0471(2)
H15 H -0.1860 -0.2435 0.0023
N1 N 0.1730(2) -0.1325(2) -0.16201(14)
N2 N 0.3440(2) -0.0594(3) -0.10155(16)
N3 N 0.3294(2) -0.1134(2) -0.05370(14)
N4 N 0.6911(2) -0.2755(3) 0.13789(15)
N5 N 0.6887(2) -0.3553(3) 0.09466(17)
N6 N 0.8641(2) -0.3245(2) 0.19260(15)
O1 O -0.03568(19) -0.22294(18) -0.14029(12)
O2 O 0.08263(19) -0.3725(2) -0.15566(12)
O3 O -0.11690(16) -0.43077(16) -0.17776(10)
O4 O -0.06774(16) -0.36504(16) -0.04937(10)
O5 O -0.27919(18) -0.30190(18) -0.18708(12)
O6 O -0.32773(17) -0.50528(19) -0.23240(11)
O7 O 0.13178(16) -0.42209(16) 0.08843(10)
O8 O -0.27642(16) -0.44939(16) -0.09262(11)
O9 O -0.08136(16) -0.49225(16) 0.04934(10)
O10 O 0.34638(18) -0.33745(18) 0.11940(12)
O11 O 0.31036(18) -0.43921(19) -0.00087(12)
O12 O 0.14388(16) -0.30864(15) -0.01495(10)
Cu1C Cu 1.02039(3) -0.33570(4) 0.26475(2)
Mo1B Mo -0.01613(2) -0.65125(2) 0.112519(14)
Mo2B Mo 0.23166(2) -0.57133(2) 0.159108(14)
Mo3B Mo -0.25084(2) -0.58509(2) -0.046407(14)
N6C N -0.1359(2) -0.1755(2) -0.30740(15)
O7B O -0.13178(16) -0.57791(16) -0.08843(10)
O8B O 0.27642(16) -0.55061(16) 0.09262(11)
O9B O 0.08136(16) -0.50775(16) -0.04934(10)
Cu2 Cu 1.0000 0.0000 0.0000
Cu3 Cu 0.5000 -0.5000 0.0000
C14 C 0.7738(3) 0.0882(3) -0.0917(2)
H16 H 0.7955 0.1534 -0.0673
C15 C 0.7836(3) -0.0666(3) -0.1235(2)
H17 H 0.8094 -0.1321 -0.1279
C16 C 0.5767(3) -0.1002(3) -0.21240(19)
H18 H 0.5909 -0.1473 -0.2415
H19 H 0.5142 -0.0541 -0.2466
C17 C 0.5463(3) -0.1653(3) -0.16777(19)
H20 H 0.6139 -0.1984 -0.1262
H21 H 0.5163 -0.1184 -0.1475
C18 C 0.4606(3) -0.2500(3) -0.21412(18)
H22 H 0.3921 -0.2170 -0.2550
H23 H 0.4896 -0.2961 -0.2353
C19 C 0.3402(3) -0.3746(3) -0.1323(2)
H24 H 0.2809 -0.3899 -0.1280
C20 C 0.5011(3) -0.3745(3) -0.11137(18)
H25 H 0.5769 -0.3870 -0.0912
N7 N 0.8481(2) 0.0103(3) -0.07722(17)
N8 N 0.6687(3) 0.0641(2) -0.14308(19)
N9 N 0.6770(2) -0.0361(2) -0.16264(16)
N10 N 0.4345(2) -0.3133(2) -0.16977(14)
N11 N 0.3300(2) -0.3115(3) -0.18375(17)
N12 N 0.4451(2) -0.4152(2) -0.08583(15)
C14B C 0.2262(3) -1.0882(3) 0.0917(2)
H16B H 0.2045 -1.1534 0.0673
C15B C 0.2164(3) -0.9334(3) 0.1235(2)
H17B H 0.1906 -0.8679 0.1279
C16B C 0.4233(3) -0.8998(3) 0.21240(19)
H18B H 0.4091 -0.8527 0.2415
H19B H 0.4858 -0.9459 0.2466
C17B C 0.4537(3) -0.8347(3) 0.16777(19)
H20B H 0.3861 -0.8016 0.1262
H21B H 0.4837 -0.8816 0.1475
C18B C 0.5394(3) -0.7500(3) 0.21412(18)
H22B H 0.6079 -0.7830 0.2550
H23B H 0.5104 -0.7039 0.2353
C19B C 0.6598(3) -0.6254(3) 0.1323(2)
H24B H 0.7191 -0.6101 0.1280
C20B C 0.4989(3) -0.6255(3) 0.11137(18)
H25B H 0.4231 -0.6130 0.0912
N7B N 0.1519(2) -1.0103(3) 0.07722(17)
N8B N 0.3313(3) -1.0641(2) 0.14308(19)
N9B N 0.3230(2) -0.9639(2) 0.16264(16)
N10B N 0.5655(2) -0.6867(2) 0.16977(14)
N11B N 0.6700(2) -0.6885(3) 0.18375(17)
N12B N 0.5549(2) -0.5848(2) 0.08583(15)
Cu2_2 Cu 0.0000 -1.0000 0.0000
N7B_2 N 1.1519(2) -0.0103(3) 0.07722(17)
loop_
_geom_bond_atom_site_label_1
_geom_bond_atom_site_label_2
_geom_bond_site_symmetry_1
_geom_bond_site_symmetry_2
Cu1 N1 1_555 1_555
As1 C8 1_555 1_555
Mo1 O1 1_555 1_555
Mo2 O3 1_555 1_555
Mo3 O7 1_555 1_555
C1 H1 1_555 1_555
C2 H2 1_555 1_555
C3 H3 1_555 1_555
H4 C3 1_555 1_555
C4 C3 1_555 1_555
H5 C4 1_555 1_555
H6 C4 1_555 1_555
C5 C4 1_555 1_555
H7 C5 1_555 1_555
H8 C5 1_555 1_555
C6 H9 1_555 1_555
C7 H10 1_555 1_555
C8 C9 1_555 1_555
C9 H11 1_555 1_555
C10 C9 1_555 1_555
H12 C10 1_555 1_555
C11 C10 1_555 1_555
H13 C11 1_555 1_555
C12 C11 1_555 1_555
H14 C12 1_555 1_555
C13 C8 1_555 1_555
H15 C13 1_555 1_555
N1 C1 1_555 1_555
N2 C1 1_555 1_555
N3 C2 1_555 1_555
N4 C5 1_555 1_555
N5 C6 1_555 1_555
N6 C6 1_555 1_555
O1 Cu1 1_555 1_555
O2 Mo1 1_555 1_555
O3 Mo1 1_555 1_555
O4 As1 1_555 1_555
O5 Mo2 1_555 1_555
O6 Mo2 1_555 1_555
O7 As1 1_555 1_555
O8 Mo2 1_555 1_555
O9 As1 1_555 1_555
O10 Mo3 1_555 1_555
O11 Mo3 1_555 1_555
O12 Mo1 1_555 1_555
Cu2 N7 1_555 1_555
Cu3 N12 1_555 1_555
C14 H16 1_555 1_555
C15 H17 1_555 1_555
C16 H18 1_555 1_555
H19 C16 1_555 1_555
C17 C16 1_555 1_555
H20 C17 1_555 1_555
H21 C17 1_555 1_555
C18 C17 1_555 1_555
H22 C18 1_555 1_555
H23 C18 1_555 1_555
C19 H24 1_555 1_555
C20 H25 1_555 1_555
N7 C14 1_555 1_555
N8 C14 1_555 1_555
N9 C15 1_555 1_555
N10 C18 1_555 1_555
N11 C19 1_555 1_555
N12 C19 1_555 1_555
Cu1C N6 1_555 1_555
Mo1B O9 1_555 1_555
Mo2B O7 1_555 1_555
Mo3B O8 1_555 1_555
N6C Cu1 1_555 1_555
O7B Mo2 1_555 1_555
O8B Mo3 1_555 1_555
O9B Mo1 1_555 1_555
C14B H16B 1_555 1_555
C15B H17B 1_555 1_555
C16B H18B 1_555 1_555
H19B C16B 1_555 1_555
C17B C16B 1_555 1_555
H20B C17B 1_555 1_555
H21B C17B 1_555 1_555
C18B C17B 1_555 1_555
H22B C18B 1_555 1_555
H23B C18B 1_555 1_555
C19B H24B 1_555 1_555
C20B H25B 1_555 1_555
N7B C14B 1_555 1_555
N8B C14B 1_555 1_555
N9B C15B 1_555 1_555
N10B C18B 1_555 1_555
N11B C19B 1_555 1_555
N12B Cu3 1_555 1_555
Cu2_2 N7B 1_555 1_555
N7B_2 Cu2 1_555 1_555
Mo1 O4 1_555 1_555
Mo2 O4 1_555 1_555
Mo3 O12 1_555 1_555
Mo3 O9B 1_555 1_555
C2 N1 1_555 1_555
C3 N3 1_555 1_555
C7 N4 1_555 1_555
C7 N6 1_555 1_555
C12 C13 1_555 1_555
N2 N3 1_555 1_555
N4 N5 1_555 1_555
O9 Mo3B 1_555 1_555
C15 N7 1_555 1_555
C16 N9 1_555 1_555
C20 N10 1_555 1_555
C20 N12 1_555 1_555
N8 N9 1_555 1_555
N10 N11 1_555 1_555
Mo2B O8B 1_555 1_555
Mo3B O7B 1_555 1_555
C15B N7B 1_555 1_555
C16B N9B 1_555 1_555
C19B N12B 1_555 1_555
C20B N10B 1_555 1_555
C20B N12B 1_555 1_555
N8B N9B 1_555 1_555
N10B N11B 1_555 1_555

#END
