
#######################################################################
#
#                 Cambridge Crystallographic Data Centre
#                                CCDC 
#
#######################################################################
#
# If this CIF has been generated from an entry in the Cambridge 
# Structural Database, then it will include bibliographic, chemical, 
# crystal, experimental, refinement or atomic coordinate data resulting 
# from the CCDC's data processing and validation procedures.
#
#######################################################################

data_CENVOH
_symmetry_cell_setting           triclinic
_symmetry_space_group_name_H-M   'P -1'
_symmetry_Int_Tables_number      2
_space_group_name_Hall           '-P 1'
loop_
_symmetry_equiv_pos_site_id
_symmetry_equiv_pos_as_xyz
1 x,y,z
2 -x,-y,-z
_cell_length_a                   8.8890(18)
_cell_length_b                   11.762(2)
_cell_length_c                   12.092(2)
_cell_angle_alpha                103.54(3)
_cell_angle_beta                 101.54(3)
_cell_angle_gamma                93.54(3)
_cell_volume                     1196.41
loop_
_atom_site_label
_atom_site_type_symbol
_atom_site_fract_x
_atom_site_fract_y
_atom_site_fract_z
Ag1 Ag 0.32538(4) 0.25026(3) 0.81762(3)
S1 S 0.62341(11) 0.08459(8) 0.78775(8)
S2 S -0.36641(11) 0.44817(10) 0.92908(8)
N1 N 0.3478(4) 0.0861(3) 0.6573(3)
N2 N 0.6583(3) -0.1540(2) 1.0357(2)
N3 N 0.0627(4) 0.2975(3) 0.8330(3)
N4 N -0.6012(4) 0.4070(3) 0.7484(3)
C1 C 0.2317(5) 0.0454(4) 0.5630(4)
H1 H 0.1512 0.0910 0.5509
C2 C 0.2264(5) -0.0601(4) 0.4838(4)
H2 H 0.1438 -0.0854 0.4198
C3 C 0.3441(6) -0.1272(4) 0.5005(3)
H3 H 0.3414 -0.1999 0.4487
C4 C 0.4675(5) -0.0871(3) 0.5946(3)
H4 H 0.5504 -0.1307 0.6064
C5 C 0.4634(4) 0.0206(3) 0.6708(3)
C6 C 0.6327(4) -0.0140(3) 0.8772(3)
C7 C 0.5171(4) -0.1033(3) 0.8669(3)
H5 H 0.4291 -0.1179 0.8069
C8 C 0.5360(4) -0.1698(3) 0.9477(3)
H6 H 0.4582 -0.2296 0.9401
C9 C 0.7684(4) -0.0674(3) 1.0445(3)
H7 H 0.8546 -0.0545 1.1058
C10 C 0.7617(4) 0.0036(3) 0.9687(3)
H8 H 0.8418 0.0622 0.9783
C11 C -0.0378(4) 0.3339(3) 0.7554(3)
H9 H -0.0173 0.3270 0.6818
C12 C -0.1705(4) 0.3812(3) 0.7767(3)
H10 H -0.2367 0.4056 0.7191
C13 C -0.2028(4) 0.3915(3) 0.8851(3)
C14 C -0.0999(4) 0.3541(3) 0.9676(3)
H11 H -0.1179 0.3597 1.0418
C15 C 0.0292(4) 0.3086(3) 0.9379(3)
H12 H 0.0976 0.2840 0.9941
C16 C -0.4734(4) 0.4792(3) 0.8007(3)
C17 C -0.4270(5) 0.5733(3) 0.7614(4)
H13 H -0.3366 0.6223 0.8007
C18 C -0.5172(6) 0.5931(4) 0.6628(4)
H14 H -0.4877 0.6553 0.6335
C19 C -0.6491(6) 0.5212(5) 0.6090(4)
H15 H -0.7126 0.5339 0.5429
C20 C -0.6874(5) 0.4297(4) 0.6535(4)
H16 H -0.7782 0.3805 0.6159
Ag1A Ag 0.67462(4) -0.25026(3) 1.18238(3)
Ag1_2 Ag -0.67462(4) 0.25026(3) 0.81762(3)
N2A N 0.3417(3) 0.1540(2) 0.9643(2)
N4_2 N 0.3988(4) 0.4070(3) 0.7484(3)
Sb1 Sb 0.02095(3) 0.25025(2) 0.31673(2)
F1 F -0.0240(5) 0.2804(4) 0.4631(3)
F2 F -0.0173(6) 0.0897(3) 0.3010(3)
F3 F 0.0706(5) 0.2205(4) 0.1726(3)
F4 F 0.0663(5) 0.4094(3) 0.3370(4)
F5 F 0.2263(4) 0.2454(3) 0.3859(3)
F6 F -0.1801(4) 0.2541(5) 0.2461(4)
loop_
_geom_bond_atom_site_label_1
_geom_bond_atom_site_label_2
_geom_bond_site_symmetry_1
_geom_bond_site_symmetry_2
Ag1 N1 1_555 1_555
S1 C5 1_555 1_555
S2 C13 1_555 1_555
N1 C1 1_555 1_555
N2 C8 1_555 1_555
N3 Ag1 1_555 1_555
N4 C16 1_555 1_555
C1 H1 1_555 1_555
C2 C1 1_555 1_555
H2 C2 1_555 1_555
C3 C2 1_555 1_555
H3 C3 1_555 1_555
C4 C3 1_555 1_555
H4 C4 1_555 1_555
C5 N1 1_555 1_555
C6 S1 1_555 1_555
C7 C6 1_555 1_555
H5 C7 1_555 1_555
C8 C7 1_555 1_555
H6 C8 1_555 1_555
C9 N2 1_555 1_555
H7 C9 1_555 1_555
C10 C6 1_555 1_555
H8 C10 1_555 1_555
C11 N3 1_555 1_555
H9 C11 1_555 1_555
C12 C11 1_555 1_555
H10 C12 1_555 1_555
C13 C12 1_555 1_555
C14 C13 1_555 1_555
H11 C14 1_555 1_555
C15 N3 1_555 1_555
H12 C15 1_555 1_555
C16 S2 1_555 1_555
C17 C16 1_555 1_555
H13 C17 1_555 1_555
C18 C17 1_555 1_555
H14 C18 1_555 1_555
C19 C18 1_555 1_555
H15 C19 1_555 1_555
C20 N4 1_555 1_555
H16 C20 1_555 1_555
Sb1 F1 1_555 1_555
F2 Sb1 1_555 1_555
F3 Sb1 1_555 1_555
F4 Sb1 1_555 1_555
F5 Sb1 1_555 1_555
F6 Sb1 1_555 1_555
Ag1A N2 1_555 1_555
Ag1_2 N4 1_555 1_555
N2A Ag1 1_555 1_555
N4_2 Ag1 1_555 1_555
C4 C5 1_555 1_555
C9 C10 1_555 1_555
C14 C15 1_555 1_555
C19 C20 1_555 1_555

#END
