
#######################################################################
#
#                 Cambridge Crystallographic Data Centre
#                                CCDC 
#
#######################################################################
#
# If this CIF has been generated from an entry in the Cambridge 
# Structural Database, then it will include bibliographic, chemical, 
# crystal, experimental, refinement or atomic coordinate data resulting 
# from the CCDC's data processing and validation procedures.
#
#######################################################################

data_CEOXDH03
_symmetry_cell_setting           monoclinic
_symmetry_space_group_name_H-M   'P 21/c'
_symmetry_Int_Tables_number      14
_space_group_name_Hall           '-P 2ybc'
loop_
_symmetry_equiv_pos_site_id
_symmetry_equiv_pos_as_xyz
1 x,y,z
2 -x,1/2+y,1/2-z
3 -x,-y,-z
4 x,1/2-y,1/2+z
_cell_length_a                   11.297(2)
_cell_length_b                   9.6650(19)
_cell_length_c                   10.413(2)
_cell_angle_alpha                90
_cell_angle_beta                 114.59(3)
_cell_angle_gamma                90
_cell_volume                     1033.84
loop_
_atom_site_label
_atom_site_type_symbol
_atom_site_fract_x
_atom_site_fract_y
_atom_site_fract_z
Ce1 Ce 0.810764(11) 0.046214(15) 0.668591(13)
O1 O 0.60587(15) 0.1043(2) 0.46116(19)
O2 O 0.39302(16) 0.0706(2) 0.3401(2)
O3 O 1.12607(17) 0.1008(2) 1.1164(2)
O4 O 0.99259(16) 0.1400(2) 0.89137(18)
O5 O 1.15717(16) -0.0653(2) 0.5636(2)
O6 O 1.02962(16) -0.0262(2) 0.67669(19)
O7 O 0.70068(18) 0.1922(3) 0.7946(2)
H1 H 0.7483 0.1962 0.8792
H2 H 0.6873 0.2734 0.7601
O8 O 0.8284(2) 0.2974(2) 0.6142(2)
H3 H 0.8559 0.3422 0.6877
H4 H 0.8810 0.3050 0.5753
O9 O 0.78984(18) -0.1963(2) 0.5745(2)
H5 H 0.8142 -0.2513 0.6404
H6 H 0.8368 -0.2050 0.5290
C1 C 0.4998(2) 0.0510(3) 0.4431(3)
C2 C 1.0343(2) 0.0697(3) 1.0022(3)
C3 C 1.0546(2) -0.0266(3) 0.5695(3)
Ce1B Ce 0.189236(11) -0.046214(15) 0.331409(13)
Ce1B_2 Ce 1.189236(11) -0.046214(15) 0.331409(13)
Ce1B_3 Ce 1.189236(11) -0.046214(15) 1.331409(13)
O1B O 0.39413(15) -0.1043(2) 0.53884(19)
O2B O 0.60698(16) -0.0706(2) 0.6599(2)
O3B O 0.87393(17) -0.1008(2) 0.8836(2)
O3_2 O 0.12607(17) 0.1008(2) 0.1164(2)
O4B O 1.00741(16) -0.1400(2) 1.10863(18)
O4B_2 O 0.00741(16) -0.1400(2) 0.10863(18)
O5B O 0.84283(16) 0.0653(2) 0.4364(2)
O5_2 O 0.15717(16) -0.0653(2) 0.5636(2)
O6B O 0.97038(16) 0.0262(2) 0.32331(19)
O6B_2 O -0.02962(16) 0.0262(2) 0.32331(19)
O7B O 0.29932(18) -0.1922(3) 0.2054(2)
H1B H 0.2517 -0.1962 0.1208
H2B H 0.3127 -0.2734 0.2399
O8B O 0.1716(2) -0.2974(2) 0.3858(2)
H3B H 0.1441 -0.3422 0.3123
H4B H 0.1190 -0.3050 0.4247
O9B O 0.21016(18) 0.1963(2) 0.4255(2)
H5B H 0.1858 0.2513 0.3596
H6B H 0.1632 0.2050 0.4710
C1B C 0.5002(2) -0.0510(3) 0.5569(3)
C2B C 0.9657(2) -0.0697(3) 0.9978(3)
C3B C 0.9454(2) 0.0266(3) 0.4305(3)
O10 O 0.5756(4) -0.3042(6) 0.7949(6)
H7 H 0.5767 -0.3794 0.7530
H8 H 0.6115 -0.3168 0.8837
O11 O 0.5873(10) 0.0308(12) 1.021(2)
H9 H 0.5244 0.0878 0.9943
H10 H 0.5589 -0.0504 1.0221
H11? H 0.7131 -0.1588 1.2272
H12? H 0.6676 -0.0248 1.2239
H13? H 0.5424 -0.1484 0.9295
H14? H 0.4909 -0.2317 0.8102
O12? O 0.6615(6) -0.0973(8) 1.1753(10)
O13? O 0.5608(6) -0.2021(9) 0.8757(7)
loop_
_geom_bond_atom_site_label_1
_geom_bond_atom_site_label_2
_geom_bond_site_symmetry_1
_geom_bond_site_symmetry_2
Ce1 O1 1_555 1_555
O1 C1 1_555 1_555
O2 C1 1_555 1_555
O3 C2 1_555 1_555
O4 Ce1 1_555 1_555
O5 C3 1_555 1_555
O6 Ce1 1_555 1_555
O7 Ce1 1_555 1_555
H1 O7 1_555 1_555
H2 O7 1_555 1_555
O8 Ce1 1_555 1_555
H3 O8 1_555 1_555
H4 O8 1_555 1_555
O9 Ce1 1_555 1_555
H5 O9 1_555 1_555
H6 O9 1_555 1_555
C1 C1B 1_555 1_555
C2 O4 1_555 1_555
C3 O6 1_555 1_555
O10 H7 1_555 1_555
H8 O10 1_555 1_555
O11 H9 1_555 1_555
H10 O11 1_555 1_555
Ce1B O2 1_555 1_555
Ce1B_2 O5 1_555 1_555
Ce1B_3 O3 1_555 1_555
O1B Ce1B 1_555 1_555
O2B Ce1 1_555 1_555
O3B Ce1 1_555 1_555
O3_2 Ce1B 1_555 1_555
O4B Ce1B_3 1_555 1_555
O4B_2 Ce1B 1_555 1_555
O5B Ce1 1_555 1_555
O5_2 Ce1B 1_555 1_555
O6B Ce1B_2 1_555 1_555
O6B_2 Ce1B 1_555 1_555
O7B Ce1B 1_555 1_555
H1B O7B 1_555 1_555
H2B O7B 1_555 1_555
O8B Ce1B 1_555 1_555
H3B O8B 1_555 1_555
H4B O8B 1_555 1_555
O9B Ce1B 1_555 1_555
H5B O9B 1_555 1_555
H6B O9B 1_555 1_555
C1B O1B 1_555 1_555
C2B C2 1_555 1_555
C3B C3 1_555 1_555
O2B C1B 1_555 1_555
O3B C2B 1_555 1_555
O4B C2B 1_555 1_555
O5B C3B 1_555 1_555
O6B C3B 1_555 1_555

#END
