
#######################################################################
#
#                 Cambridge Crystallographic Data Centre
#                                CCDC 
#
#######################################################################
#
# If this CIF has been generated from an entry in the Cambridge 
# Structural Database, then it will include bibliographic, chemical, 
# crystal, experimental, refinement or atomic coordinate data resulting 
# from the CCDC's data processing and validation procedures.
#
#######################################################################

data_CEOXDH
_symmetry_cell_setting           monoclinic
_symmetry_space_group_name_H-M   'P 21/c'
_symmetry_Int_Tables_number      14
_space_group_name_Hall           '-P 2ybc'
loop_
_symmetry_equiv_pos_site_id
_symmetry_equiv_pos_as_xyz
1 x,y,z
2 -x,1/2+y,1/2-z
3 -x,-y,-z
4 x,1/2-y,1/2+z
_cell_length_a                   11.347
_cell_length_b                   9.630
_cell_length_c                   10.392
_cell_angle_alpha                90
_cell_angle_beta                 114.52
_cell_angle_gamma                90
_cell_volume                     1033.14
loop_
_atom_site_label
_atom_site_type_symbol
_atom_site_fract_x
_atom_site_fract_y
_atom_site_fract_z
Ce1 Ce 0.31090 0.45320 0.66880
C1 C 0.00220 0.54710 0.56110
C2 C 0.44520 0.48070 0.42280
C3 C 0.46370 0.56730 0.99610
O1 O 0.11360 0.56890 0.66530
O2 O 0.10920 0.39440 0.45900
O3 O 0.34000 0.44170 0.42760
O4 O 0.52970 0.52850 0.67300
O5 O 0.37040 0.60390 0.87970
O6 O 0.49020 0.35520 0.88870
O7 O 0.20340 0.30090 0.80120
O8 O 0.29220 0.70050 0.58010
O9 O 0.32680 0.19890 0.60460
C1B C -0.00220 0.45290 0.43890
O2B O -0.10920 0.60560 0.54100
C2B C 0.55480 0.51930 0.57720
O4B O 0.47030 0.47150 0.32700
C3B C 0.53630 0.43270 1.00390
O6B O 0.50980 0.64480 1.11130
O1B O -0.11360 0.43110 0.33470
Ce1B Ce -0.31090 0.54680 0.33120
O3B O 0.66000 0.55830 0.57240
Ce1B_2 Ce 0.68910 0.54680 0.33120
O5B O 0.62960 0.39610 1.12030
Ce1B_3 Ce 0.68910 0.54680 1.33120
O3B_2 O -0.34000 0.55830 0.57240
O4B_2 O -0.52970 0.47150 0.32700
O5B_2 O -0.37040 0.39610 0.12030
O6B_2 O -0.49020 0.64480 0.11130
O7B O -0.20340 0.69910 0.19880
O8B O -0.29220 0.29950 0.41990
O9B O -0.32680 0.80110 0.39540
O10 O 0.05970 0.45050 -0.00090
loop_
_geom_bond_atom_site_label_1
_geom_bond_atom_site_label_2
_geom_bond_site_symmetry_1
_geom_bond_site_symmetry_2
Ce1 O1 1_555 1_555
C1 O1 1_555 1_555
C2 O3 1_555 1_555
C3 O5 1_555 1_555
O2 Ce1 1_555 1_555
O3 Ce1 1_555 1_555
O4 Ce1 1_555 1_555
O5 Ce1 1_555 1_555
O6 Ce1 1_555 1_555
O7 Ce1 1_555 1_555
O8 Ce1 1_555 1_555
O9 Ce1 1_555 1_555
C1B C1 1_555 1_555
O2B C1 1_555 1_555
C2B C2 1_555 1_555
O4B C2 1_555 1_555
C3B C3 1_555 1_555
O6B C3 1_555 1_555
O1B C1B 1_555 1_555
Ce1B O2B 1_555 1_555
O3B C2B 1_555 1_555
Ce1B_2 O4B 1_555 1_555
O5B C3B 1_555 1_555
Ce1B_3 O6B 1_555 1_555
O3B_2 Ce1B 1_555 1_555
O4B_2 Ce1B 1_555 1_555
O5B_2 Ce1B 1_555 1_555
O6B_2 Ce1B 1_555 1_555
O7B Ce1B 1_555 1_555
O8B Ce1B 1_555 1_555
O9B Ce1B 1_555 1_555
O2 C1B 1_555 1_555
O4 C2B 1_555 1_555
O6 C3B 1_555 1_555
O1B Ce1B 1_555 1_555
O3B Ce1B_2 1_555 1_555
O5B Ce1B_3 1_555 1_555

#END
