
#######################################################################
#
#                 Cambridge Crystallographic Data Centre
#                                CCDC 
#
#######################################################################
#
# If this CIF has been generated from an entry in the Cambridge 
# Structural Database, then it will include bibliographic, chemical, 
# crystal, experimental, refinement or atomic coordinate data resulting 
# from the CCDC's data processing and validation procedures.
#
#######################################################################

data_CEPJEO
_symmetry_cell_setting           orthorhombic
_symmetry_space_group_name_H-M   'P 21 21 21'
_symmetry_Int_Tables_number      19
_space_group_name_Hall           'P 2ac 2ab'
loop_
_symmetry_equiv_pos_site_id
_symmetry_equiv_pos_as_xyz
1 x,y,z
2 1/2+x,1/2-y,-z
3 -x,1/2+y,1/2-z
4 1/2-x,-y,1/2+z
_cell_length_a                   8.7313(4)
_cell_length_b                   15.8302(8)
_cell_length_c                   19.5981(9)
_cell_angle_alpha                90
_cell_angle_beta                 90
_cell_angle_gamma                90
_cell_volume                     2708.81
loop_
_atom_site_label
_atom_site_type_symbol
_atom_site_fract_x
_atom_site_fract_y
_atom_site_fract_z
Cu1 Cu 0.81985(7) 0.47422(4) 0.73347(3)
O1 O 0.9132(4) 0.6149(2) 0.7779(2)
O2 O 0.7920(4) 0.5572(2) 0.9063(2)
O3 O 0.9939(5) 0.5786(2) 1.0188(2)
O4 O 1.1681(5) 0.7341(2) 1.0159(2)
O5 O 1.0864(4) 0.6956(2) 0.8341(2)
O6 O 1.2694(5) 0.8420(2) 0.8202(2)
O7 O 0.8005(4) 0.4267(2) 0.8244(2)
O8 O 0.8169(6) 0.2889(2) 0.8054(2)
N1 N 0.8440(5) 0.5419(3) 0.6453(2)
N2 N 0.6113(5) 0.5239(3) 0.7334(2)
N3 N 1.0308(5) 0.4368(3) 0.7110(2)
C1 C 0.9380(6) 0.6579(3) 0.8398(2)
C2 C 0.9397(6) 0.5935(3) 0.8977(3)
C3 C 0.9844(6) 0.6381(3) 0.9635(3)
C4 C 1.1342(6) 0.6861(3) 0.9559(2)
C5 C 1.1236(6) 0.7450(3) 0.8932(2)
C6 C 1.2778(6) 0.7860(3) 0.8781(3)
C7 C 0.8781(6) 0.6695(3) 0.7215(3)
C8 C 0.9255(7) 0.6242(3) 0.6568(3)
C9 C 0.6866(7) 0.5551(4) 0.6176(3)
C10 C 0.5753(6) 0.5656(3) 0.6749(3)
C11 C 0.4422(7) 0.6133(4) 0.6688(3)
C12 C 0.3433(6) 0.6171(4) 0.7248(3)
C13 C 0.3769(6) 0.5725(4) 0.7833(3)
C14 C 0.5137(6) 0.5260(4) 0.7860(3)
C15 C 0.9417(6) 0.4881(3) 0.6014(3)
C16 C 1.0651(6) 0.4487(3) 0.6443(3)
C17 C 1.2057(7) 0.4245(4) 0.6182(3)
C18 C 1.3127(7) 0.3864(4) 0.6607(3)
C19 C 1.2763(6) 0.3748(3) 0.7299(3)
C20 C 1.1330(6) 0.4013(3) 0.7534(3)
C21 C 0.7998(6) 0.3487(3) 0.8446(3)
C22 C 0.7752(9) 0.3342(4) 0.9197(3)
H1 H 0.8594 0.6997 0.8468
H2 H 1.0102 0.5475 0.8831
H3 H 0.8953 0.6743 0.9742
H4 H 1.2236 0.6495 0.9537
H5 H 1.0486 0.7908 0.9004
H6 H 1.3152 0.8202 0.9135
H7 H 1.3492 0.7482 0.8715
H8 H 0.9265 0.7143 0.7208
H9 H 0.7715 0.6883 0.7298
H10 H 0.9216 0.6527 0.6132
H11 H 1.0276 0.6077 0.6682
H12 H 0.6650 0.4989 0.5973
H13 H 0.6850 0.6119 0.5893
H14 H 0.4227 0.6567 0.6294
H15 H 0.2496 0.6546 0.7262
H16 H 0.3153 0.5831 0.8187
H17 H 0.5371 0.4936 0.8244
H18 H 0.9780 0.5226 0.5717
H19 H 0.8780 0.4416 0.5837
H20 H 1.2347 0.4417 0.5768
H21 H 1.4121 0.3705 0.6435
H22 H 1.3536 0.3615 0.7663
H23 H 1.1022 0.4021 0.7996
H24 H 0.7790 0.5145 0.8784
H25 H 1.0589 0.5405 0.9992
H26 H 1.0701 0.7570 1.0162
H27 H 1.2395 0.8120 0.7843
H28 H 0.6782 0.3576 0.9330
H29 H 0.8556 0.3612 0.9450
H30 H 0.7761 0.2747 0.9289
Cu1B Cu 1.18015(7) 0.97422(4) 0.76653(3)
O6B O 0.7306(5) 0.3420(2) 0.6798(2)
Cl1 Cl 1.2587(2) 0.39714(9) 0.95726(7)
O9 O 1.3088(8) 0.4753(4) 0.9266(3)
O10 O 1.2356(10) 0.3348(4) 0.9074(3)
O11 O 1.1143(8) 0.4140(4) 0.9917(5)
O12 O 1.3613(10) 0.3688(4) 1.0068(4)
O13 O 1.5204(5) 0.6148(3) 0.9582(2)
loop_
_geom_bond_atom_site_label_1
_geom_bond_atom_site_label_2
_geom_bond_site_symmetry_1
_geom_bond_site_symmetry_2
Cu1 O1 1_555 1_555
O1 C1 1_555 1_555
O2 C2 1_555 1_555
O3 C3 1_555 1_555
O4 C4 1_555 1_555
O5 C1 1_555 1_555
O6 C6 1_555 1_555
O7 Cu1 1_555 1_555
O8 C21 1_555 1_555
N1 Cu1 1_555 1_555
N2 Cu1 1_555 1_555
N3 Cu1 1_555 1_555
C1 C2 1_555 1_555
C2 C3 1_555 1_555
C3 C4 1_555 1_555
C4 C5 1_555 1_555
C5 O5 1_555 1_555
C6 C5 1_555 1_555
C7 O1 1_555 1_555
C8 N1 1_555 1_555
C9 N1 1_555 1_555
C10 N2 1_555 1_555
C11 C10 1_555 1_555
C12 C11 1_555 1_555
C13 C12 1_555 1_555
C14 N2 1_555 1_555
C15 N1 1_555 1_555
C16 N3 1_555 1_555
C17 C16 1_555 1_555
C18 C17 1_555 1_555
C19 C18 1_555 1_555
C20 N3 1_555 1_555
C21 O7 1_555 1_555
C22 C21 1_555 1_555
H1 C1 1_555 1_555
H2 C2 1_555 1_555
H3 C3 1_555 1_555
H4 C4 1_555 1_555
H5 C5 1_555 1_555
H6 C6 1_555 1_555
H7 C6 1_555 1_555
H8 C7 1_555 1_555
H9 C7 1_555 1_555
H10 C8 1_555 1_555
H11 C8 1_555 1_555
H12 C9 1_555 1_555
H13 C9 1_555 1_555
H14 C11 1_555 1_555
H15 C12 1_555 1_555
H16 C13 1_555 1_555
H17 C14 1_555 1_555
H18 C15 1_555 1_555
H19 C15 1_555 1_555
H20 C17 1_555 1_555
H21 C18 1_555 1_555
H22 C19 1_555 1_555
H23 C20 1_555 1_555
H24 O2 1_555 1_555
H25 O3 1_555 1_555
H26 O4 1_555 1_555
H27 O6 1_555 1_555
H28 C22 1_555 1_555
H29 C22 1_555 1_555
H30 C22 1_555 1_555
Cl1 O9 1_555 1_555
O10 Cl1 1_555 1_555
O11 Cl1 1_555 1_555
O12 Cl1 1_555 1_555
Cu1B O6 1_555 1_555
O6B Cu1 1_555 1_555
C7 C8 1_555 1_555
C9 C10 1_555 1_555
C13 C14 1_555 1_555
C15 C16 1_555 1_555
C19 C20 1_555 1_555

#END
