
#######################################################################
#
#                 Cambridge Crystallographic Data Centre
#                                CCDC 
#
#######################################################################
#
# If this CIF has been generated from an entry in the Cambridge 
# Structural Database, then it will include bibliographic, chemical, 
# crystal, experimental, refinement or atomic coordinate data resulting 
# from the CCDC's data processing and validation procedures.
#
#######################################################################

data_CEPLAM01
_symmetry_cell_setting           orthorhombic
_symmetry_space_group_name_H-M   'P 21 21 21'
_symmetry_Int_Tables_number      19
_space_group_name_Hall           'P 2ac 2ab'
loop_
_symmetry_equiv_pos_site_id
_symmetry_equiv_pos_as_xyz
1 x,y,z
2 1/2+x,1/2-y,-z
3 -x,1/2+y,1/2-z
4 1/2-x,-y,1/2+z
_cell_length_a                   10.0375(14)
_cell_length_b                   15.2234(18)
_cell_length_c                   18.925(2)
_cell_angle_alpha                90
_cell_angle_beta                 90
_cell_angle_gamma                90
_cell_volume                     2891.83
loop_
_atom_site_label
_atom_site_type_symbol
_atom_site_fract_x
_atom_site_fract_y
_atom_site_fract_z
Ni1 Ni 0.49447(5) 0.30440(3) -0.00305(3)
O1 O 0.5715(3) 0.18173(18) -0.01972(16)
O2 O 0.4839(4) 0.11548(19) 0.07494(17)
O3 O 0.4585(3) -0.55966(18) -0.00534(19)
O4 O 0.6518(3) -0.61335(19) -0.03765(16)
O5 O 0.7807(3) -0.20710(19) -0.06589(18)
O6 O 0.3213(3) 0.2626(2) 0.04256(18)
N1 N 0.5786(4) 0.3237(3) 0.2122(2)
N2 N 0.6890(5) 0.3697(3) 0.1921(2)
N3 N 0.5752(4) 0.3168(2) 0.09784(19)
N4 N -0.0633(4) 0.2199(3) 0.22164(19)
N5 N -0.0726(4) 0.2000(2) 0.10790(19)
N6 N -0.1738(5) 0.1724(3) 0.2114(2)
C1 C 0.3940(5) 0.2987(4) 0.2946(2)
C2 C 0.3082(5) 0.3680(3) 0.2807(2)
C3 C 0.1691(6) 0.3534(3) 0.2834(2)
C4 C 0.1222(5) 0.2699(3) 0.2982(2)
C5 C 0.2078(6) 0.2011(3) 0.3124(3)
C6 C 0.3471(6) 0.2151(3) 0.3116(3)
C7 C 0.5438(5) 0.3134(4) 0.2876(2)
H1 H 0.5698 0.3662 0.3138
H2 H 0.5920 0.2632 0.3076
C8 C 0.3631(6) 0.4576(3) 0.2603(3)
H3 H 0.4484 0.4667 0.2833
H4 H 0.3013 0.5029 0.2751
H5 H 0.3747 0.4602 0.2094
C9 C 0.0723(6) 0.4281(4) 0.2700(3)
H6 H 0.0043 0.4090 0.2370
H7 H 0.1200 0.4778 0.2502
H8 H 0.0308 0.4453 0.3141
C10 C -0.0271(6) 0.2515(4) 0.2932(2)
H9 H -0.0518 0.2070 0.3283
H10 H -0.0768 0.3053 0.3038
C11 C 0.1547(8) 0.1084(4) 0.3279(4)
H11 H 0.0588 0.1108 0.3340
H12 H 0.1956 0.0861 0.3707
H13 H 0.1761 0.0699 0.2887
C12 C 0.4436(7) 0.1395(4) 0.3260(4)
H14 H 0.5320 0.1555 0.3100
H15 H 0.4139 0.0874 0.3009
H16 H 0.4458 0.1274 0.3764
C13 C 0.6805(5) 0.3632(3) 0.1223(3)
H17 H 0.7434 0.3890 0.0919
C14 C 0.5121(5) 0.2927(3) 0.1566(2)
H18 H 0.4334 0.2593 0.1585
C15 C -0.1743(6) 0.1619(3) 0.1411(2)
H19 H -0.2410 0.1303 0.1172
C16 C -0.0041(6) 0.2368(3) 0.1601(2)
H20 H 0.0744 0.2698 0.1546
C17 C 0.6121(4) 0.0293(3) -0.0040(2)
C18 C 0.6255(5) -0.0387(3) 0.0444(2)
H21 H 0.5970 -0.0302 0.0912
C19 C 0.6799(5) -0.1184(3) 0.0252(2)
H22 H 0.6909 -0.1636 0.0585
C20 C 0.7174(5) -0.1300(3) -0.0436(2)
C21 C 0.7081(5) -0.0634(3) -0.0924(2)
H23 H 0.7363 -0.0723 -0.1392
C22 C 0.6569(5) 0.0167(3) -0.0718(2)
H24 H 0.6527 0.0632 -0.1045
C23 C 0.7251(5) -0.2882(3) -0.0510(2)
C24 C 0.8122(5) -0.3576(3) -0.0509(2)
H25 H 0.9042 -0.3474 -0.0555
C25 C 0.7649(5) -0.4425(3) -0.0441(2)
H26 H 0.8244 -0.4901 -0.0461
C26 C 0.6300(5) -0.4576(3) -0.0342(2)
C27 C 0.5429(5) -0.3863(3) -0.0318(2)
H27 H 0.4513 -0.3958 -0.0248
C28 C 0.5903(5) -0.3017(3) -0.0398(2)
H28 H 0.5316 -0.2536 -0.0377
C29 C 0.5514(4) 0.1148(3) 0.0201(2)
C30 C 0.5763(5) -0.5478(3) -0.0249(2)
H29 H 0.310(4) 0.2080(13) 0.034(2)
H30 H 0.242(3) 0.283(3) 0.048(3)
Ni1_2 Ni 0.49447(5) -0.69560(3) -0.00305(3)
Ni1A Ni -0.00553(5) 0.19560(3) 0.00305(3)
O3_2 O 0.4585(3) 0.44034(18) -0.00534(19)
O4_2 O 0.6518(3) 0.38665(19) -0.03765(16)
N5A N 0.4274(4) 0.3000(2) -0.10790(19)
loop_
_geom_bond_atom_site_label_1
_geom_bond_atom_site_label_2
_geom_bond_site_symmetry_1
_geom_bond_site_symmetry_2
Ni1 O1 1_555 1_555
O1 C29 1_555 1_555
O2 C29 1_555 1_555
O3 C30 1_555 1_555
O4 C30 1_555 1_555
O5 C20 1_555 1_555
O6 Ni1 1_555 1_555
N1 N2 1_555 1_555
N2 C13 1_555 1_555
N3 Ni1 1_555 1_555
N4 N6 1_555 1_555
N5 C15 1_555 1_555
N6 C15 1_555 1_555
C1 C2 1_555 1_555
C2 C3 1_555 1_555
C3 C4 1_555 1_555
C4 C5 1_555 1_555
C5 C6 1_555 1_555
C6 C1 1_555 1_555
C7 N1 1_555 1_555
H1 C7 1_555 1_555
H2 C7 1_555 1_555
C8 C2 1_555 1_555
H3 C8 1_555 1_555
H4 C8 1_555 1_555
H5 C8 1_555 1_555
C9 C3 1_555 1_555
H6 C9 1_555 1_555
H7 C9 1_555 1_555
H8 C9 1_555 1_555
C10 N4 1_555 1_555
H9 C10 1_555 1_555
H10 C10 1_555 1_555
C11 C5 1_555 1_555
H11 C11 1_555 1_555
H12 C11 1_555 1_555
H13 C11 1_555 1_555
C12 C6 1_555 1_555
H14 C12 1_555 1_555
H15 C12 1_555 1_555
H16 C12 1_555 1_555
C13 N3 1_555 1_555
H17 C13 1_555 1_555
C14 N1 1_555 1_555
H18 C14 1_555 1_555
C15 H19 1_555 1_555
C16 N4 1_555 1_555
H20 C16 1_555 1_555
C17 C18 1_555 1_555
C18 H21 1_555 1_555
C19 C18 1_555 1_555
H22 C19 1_555 1_555
C20 C19 1_555 1_555
C21 C20 1_555 1_555
H23 C21 1_555 1_555
C22 C17 1_555 1_555
H24 C22 1_555 1_555
C23 O5 1_555 1_555
C24 C23 1_555 1_555
H25 C24 1_555 1_555
C25 C24 1_555 1_555
H26 C25 1_555 1_555
C26 C25 1_555 1_555
C27 C26 1_555 1_555
H27 C27 1_555 1_555
C28 C23 1_555 1_555
H28 C28 1_555 1_555
C29 C17 1_555 1_555
C30 C26 1_555 1_555
H29 O6 1_555 1_555
H30 O6 1_555 1_555
Ni1_2 O3 1_555 1_555
Ni1A N5 1_555 1_555
O3_2 Ni1 1_555 1_555
O4_2 Ni1 1_555 1_555
N5A Ni1 1_555 1_555
O4 Ni1_2 1_555 1_555
N3 C14 1_555 1_555
N5 C16 1_555 1_555
C1 C7 1_555 1_555
C4 C10 1_555 1_555
C21 C22 1_555 1_555
C27 C28 1_555 1_555

#END
