
#######################################################################
#
#                 Cambridge Crystallographic Data Centre
#                                CCDC 
#
#######################################################################
#
# If this CIF has been generated from an entry in the Cambridge 
# Structural Database, then it will include bibliographic, chemical, 
# crystal, experimental, refinement or atomic coordinate data resulting 
# from the CCDC's data processing and validation procedures.
#
#######################################################################

data_CEPQOF
_symmetry_cell_setting           tetragonal
_symmetry_space_group_name_H-M   'P 41 21 2'
_symmetry_Int_Tables_number      92
_space_group_name_Hall           'P 4abw 2nw'
loop_
_symmetry_equiv_pos_site_id
_symmetry_equiv_pos_as_xyz
1 x,y,z
2 -x,-y,1/2+z
3 1/2+x,1/2-y,3/4-z
4 1/2-x,1/2+y,1/4-z
5 -y,-x,1/2-z
6 y,x,-z
7 1/2+y,1/2-x,3/4+z
8 1/2-y,1/2+x,1/4+z
_cell_length_a                   17.3533(16)
_cell_length_b                   17.3533(16)
_cell_length_c                   30.802(6)
_cell_angle_alpha                90
_cell_angle_beta                 90
_cell_angle_gamma                90
_cell_volume                     9275.62
loop_
_atom_site_label
_atom_site_type_symbol
_atom_site_fract_x
_atom_site_fract_y
_atom_site_fract_z
Ni1 Ni 0.68372(2) 0.16795(2) 0.562770(14)
Ni2 Ni 0.18125(2) 0.33551(2) 0.560901(13)
O1 O 0.31585(15) 0.29579(13) 0.56186(8)
O2 O -0.18356(15) 0.20715(14) 0.55928(9)
O3 O 0.17867(13) 0.31699(14) 0.49472(7)
H1 H 0.1945 0.3544 0.4793
H2 H 0.1369 0.2979 0.4851
O4 O 0.17876(14) 0.15254(16) 0.54843(8)
O5 O 0.10205(15) 0.25080(14) 0.56513(9)
N1 N 0.48629(17) 0.03153(16) 0.57217(10)
N2 N -0.01308(19) 0.47498(19) 0.56340(11)
O6 O 0.27180(14) 0.41301(16) 0.55285(8)
O7 O 0.67798(15) 0.35417(16) 0.57185(11)
N3 N -0.17904(18) 0.33683(19) 0.44581(9)
O8 O 0.60124(14) 0.25329(13) 0.56183(8)
O9 O -0.22548(13) 0.08811(14) 0.56323(8)
N4 N 0.69106(16) 0.17411(16) 0.62962(9)
C1 C 0.5450(2) 0.37652(19) 0.56231(13)
C2 C -0.09026(19) 0.1064(2) 0.56126(12)
N5 N -0.16013(15) 0.30936(15) 0.37743(9)
C3 C 0.0473(2) 0.1279(2) 0.55957(12)
C4 C -0.0028(2) 0.0016(2) 0.56439(16)
O10 O 0.4492(2) 0.62859(18) 0.56004(18)
N6 N 0.65809(19) 0.19687(19) 0.69682(10)
C5 C 0.47056(19) 0.3479(2) 0.55999(11)
H3 H 0.4626 0.2949 0.5597
C6 C -0.1283(2) 0.2536(2) 0.40261(12)
H4 H -0.1023 0.2105 0.3922
N7 N 0.59987(16) 0.08570(16) 0.56505(9)
C7 C 0.5560(2) 0.4562(2) 0.56200(14)
H5 H 0.6054 0.4769 0.5634
C8 C -0.1721(2) 0.1370(2) 0.56122(12)
O11 O 0.5698(2) 0.6109(2) 0.5598(2)
C9 C 0.11598(19) 0.1810(2) 0.55728(11)
C10 C 0.40729(19) 0.3974(2) 0.55803(11)
C11 C 0.37130(19) 0.0883(2) 0.60559(11)
H6 H 0.3730 0.1359 0.5891
H7 H 0.4036 0.0948 0.6310
C12 C 0.2533(2) 0.1446(2) 0.64012(11)
H8 H 0.2520 0.1854 0.6186
H9 H 0.2006 0.1331 0.6483
C13 C 0.6147(2) 0.3241(2) 0.56552(12)
N8 N 0.09714(16) 0.41628(17) 0.55682(9)
N9 N 0.0104(2) -0.0819(2) 0.56872(16)
C14 C -0.0958(2) 0.4861(3) 0.57499(16)
H10 H -0.1080 0.4529 0.5994
H11 H -0.1030 0.5389 0.5844
C15 C 0.0599(2) 0.0497(2) 0.56146(13)
H12 H 0.1097 0.0299 0.5608
C16 C 0.3265(2) 0.3661(2) 0.55698(11)
C17 C 0.4929(2) 0.5033(2) 0.55953(18)
O12 O 0.0743(2) -0.1049(2) 0.5711(2)
C18 C -0.0776(2) 0.0282(2) 0.56383(14)
H13 H -0.1188 -0.0060 0.5652
C19 C 0.28906(18) 0.07338(19) 0.62000(12)
H14 H 0.2586 0.0575 0.5952
H15 H 0.2885 0.0317 0.6410
C20 C 0.4029(2) 0.0239(2) 0.57825(13)
H16 H 0.3918 -0.0250 0.5921
H17 H 0.3776 0.0242 0.5502
C21 C -0.02772(19) 0.1560(2) 0.55975(11)
H18 H -0.0361 0.2089 0.5588
C22 C 0.4186(2) 0.4758(2) 0.55752(13)
H19 H 0.3770 0.5094 0.5559
C23 C 0.5255(2) 0.0980(2) 0.57003(12)
H20 H 0.5031 0.1466 0.5718
C24 C 0.0269(2) 0.4113(2) 0.57200(12)
H21 H 0.0075 0.3689 0.5868
C25 C 0.0342(3) 0.5229(2) 0.54122(14)
H22 H 0.0222 0.5716 0.5306
C26 C -0.1357(2) 0.4013(3) 0.51293(13)
H23 H -0.1235 0.3581 0.5317
H24 H -0.0911 0.4109 0.4947
C27 C 0.6170(3) 0.2304(3) 0.73357(14)
H25 H 0.5942 0.1892 0.7506
H26 H 0.5754 0.2624 0.7227
C28 C 0.7218(3) 0.1516(2) 0.69885(14)
H27 H 0.7466 0.1338 0.7237
C29 C 0.6418(2) 0.2088(2) 0.65519(12)
H28 H 0.6005 0.2382 0.6454
C30 C 0.6678(3) 0.2782(3) 0.76264(13)
H29 H 0.6986 0.2442 0.7806
H30 H 0.6356 0.3089 0.7818
C31 C -0.1398(2) 0.2698(2) 0.44505(13)
H31 H -0.1239 0.2407 0.4688
C32 C 0.5381(2) -0.0260(2) 0.56734(12)
H32 H 0.5278 -0.0785 0.5668
C33 C -0.1503(3) 0.4699(3) 0.53990(15)
H33 H -0.1517 0.5145 0.5209
H34 H -0.2012 0.4647 0.5526
C34 C 0.6077(2) 0.0082(2) 0.56345(12)
H35 H 0.6542 -0.0178 0.5602
C35 C -0.1908(2) 0.3586(2) 0.40508(12)
H36 H -0.2173 0.4030 0.3970
C36 C 0.7415(3) 0.1380(2) 0.65745(14)
H37 H 0.7833 0.1084 0.6488
N10 N 0.5043(2) 0.5868(2) 0.56015(18)
C37 C -0.2029(3) 0.3799(3) 0.48456(14)
H38 H -0.2388 0.3488 0.5012
H39 H -0.2295 0.4264 0.4756
O13 O -0.0441(2) -0.1242(2) 0.5716(2)
C38 C 0.1017(2) 0.4861(2) 0.53773(12)
H40 H 0.1453 0.5057 0.5241
N11 N 0.29492(16) 0.17204(16) 0.67825(9)
C39 C 0.2801(2) 0.1541(2) 0.71976(11)
H41 H 0.2400 0.1223 0.7287
C40 C 0.3580(2) 0.2188(2) 0.67853(12)
H42 H 0.3818 0.2404 0.6544
N12 N 0.32953(17) 0.18708(16) 0.74612(9)
C41 C 0.3793(2) 0.2278(2) 0.72034(12)
H43 H 0.422(3) 0.262(2) 0.7360(13)
N4D N 0.82589(16) 0.30894(16) 0.87038(9)
N6D N 0.80313(19) 0.34191(19) 0.80318(10)
C27D C 0.7696(3) 0.3830(3) 0.76643(14)
H25D H 0.8108 0.4058 0.7494
H26D H 0.7376 0.4246 0.7773
C28D C 0.8484(2) 0.2782(3) 0.80115(14)
H27D H 0.8662 0.2534 0.7763
C29D C 0.7912(2) 0.3582(2) 0.84481(12)
H28D H 0.7618 0.3995 0.8546
C30D C 0.7218(3) 0.3322(3) 0.73736(13)
H29D H 0.7558 0.3014 0.7194
H30D H 0.6911 0.3644 0.7182
C36D C 0.8620(2) 0.2585(3) 0.84255(14)
H37D H 0.8916 0.2167 0.8512
Ni1D Ni 0.83205(2) 0.31628(2) 0.937230(14)
Ni2D Ni 0.66449(2) 0.81875(2) 0.939099(13)
O1D O 0.70421(13) 0.68415(15) 0.93814(8)
O2D O 0.79285(14) 1.18356(15) 0.94072(9)
O3D O 0.68301(14) 0.82133(13) 1.00528(7)
H1D H 0.6456 0.8055 1.0207
H2D H 0.7021 0.8631 1.0149
O4D O 0.84746(16) 0.82124(14) 0.95157(8)
O5D O 0.74920(14) 0.89795(15) 0.93487(9)
N1D N 0.96847(16) 0.51371(17) 0.92783(10)
N2D N 0.52502(19) 1.01308(19) 0.93660(11)
O6D O 0.58699(16) 0.72820(14) 0.94715(8)
O7D O 0.64583(16) 0.32202(15) 0.92815(11)
N3D N 0.66317(19) 1.17904(18) 1.05419(9)
O8D O 0.74671(13) 0.39876(14) 0.93817(8)
O9D O 0.91189(14) 1.22548(13) 0.93677(8)
C1D C 0.62348(19) 0.4550(2) 0.93769(13)
C2D C 0.8936(2) 1.09026(19) 0.93874(12)
N5D N 0.69064(15) 1.16013(15) 1.12257(9)
C3D C 0.8721(2) 0.9527(2) 0.94043(12)
C4D C 0.9984(2) 1.0028(2) 0.93561(16)
O10D O 0.37141(18) 0.5508(2) 0.93996(18)
C5D C 0.6521(2) 0.52944(19) 0.94001(11)
H3D H 0.7051 0.5374 0.9403
C6D C 0.7464(2) 1.1283(2) 1.09739(12)
H4D H 0.7895 1.1023 1.1078
N7D N 0.91430(16) 0.40013(16) 0.93495(9)
C7D C 0.5438(2) 0.4440(2) 0.93800(14)
H5D H 0.5231 0.3946 0.9366
C8D C 0.8630(2) 1.1721(2) 0.93878(12)
O11D O 0.3891(2) 0.4302(2) 0.9402(2)
C9D C 0.8190(2) 0.88402(19) 0.94272(11)
C10D C 0.6026(2) 0.59271(19) 0.94197(11)
C11D C 0.9117(2) 0.62870(19) 0.89441(11)
H6D H 0.8641 0.6270 0.9109
H7D H 0.9052 0.5964 0.8690
C12D C 0.8554(2) 0.7467(2) 0.85988(11)
H8D H 0.8146 0.7480 0.8814
H9D H 0.8669 0.7994 0.8517
C13D C 0.6759(2) 0.3853(2) 0.93448(12)
N8D N 0.58372(17) 0.90286(16) 0.94318(9)
N9D N 1.0819(2) 0.9896(2) 0.93128(16)
C14D C 0.5139(3) 1.0958(2) 0.92501(16)
H10D H 0.5471 1.1080 0.9006
H11D H 0.4611 1.1030 0.9156
C15D C 0.9503(2) 0.9401(2) 0.93854(13)
H12D H 0.9701 0.8903 0.9392
C16D C 0.6339(2) 0.6735(2) 0.94302(11)
C17D C 0.4967(2) 0.5071(2) 0.94047(18)
O12D O 1.1049(2) 0.9257(2) 0.9289(2)
C18D C 0.9718(2) 1.0776(2) 0.93617(14)
H13D H 1.0060 1.1188 0.9348
C19D C 0.92662(19) 0.71094(18) 0.88000(12)
H14D H 0.9425 0.7414 0.9048
H15D H 0.9683 0.7115 0.8590
C20D C 0.9761(2) 0.5971(2) 0.92175(13)
H16D H 1.0250 0.6082 0.9079
H17D H 0.9758 0.6224 0.9498
C21D C 0.8440(2) 1.02772(19) 0.94025(11)
H18D H 0.7911 1.0361 0.9412
C22D C 0.5242(2) 0.5814(2) 0.94248(13)
H19D H 0.4906 0.6230 0.9441
C23D C 0.9020(2) 0.4745(2) 0.92997(12)
H20D H 0.8534 0.4969 0.9282
C24D C 0.5887(2) 0.9731(2) 0.92800(12)
H21D H 0.6311 0.9925 0.9132
C25D C 0.4771(2) 0.9658(3) 0.95878(14)
H22D H 0.4284 0.9778 0.9694
C26D C 0.5987(3) 1.1357(2) 0.98707(13)
H23D H 0.6419 1.1235 0.9683
H24D H 0.5891 1.0911 1.0053
C31D C 0.7302(2) 1.1398(2) 1.05495(13)
H31D H 0.7593 1.1239 1.0312
C32D C 1.0260(2) 0.4619(2) 0.93266(12)
H32D H 1.0785 0.4722 0.9332
C33D C 0.5301(3) 1.1503(3) 0.96010(15)
H33D H 0.4855 1.1517 0.9791
H34D H 0.5353 1.2012 0.9474
C34D C 0.9918(2) 0.3923(2) 0.93655(12)
H35D H 1.0178 0.3458 0.9398
C35D C 0.6414(2) 1.1908(2) 1.09492(12)
H36D H 0.5970 1.2173 1.1030
N10D N 0.4132(2) 0.4957(2) 0.93985(18)
C37D C 0.6201(3) 1.2029(3) 1.01544(14)
H38D H 0.6512 1.2388 0.9988
H39D H 0.5736 1.2295 1.0244
O13D O 1.1242(2) 1.0441(2) 0.9284(2)
C38D C 0.5139(2) 0.8983(2) 0.96227(12)
H40D H 0.4943 0.8547 0.9759
N11D N 0.82796(16) 0.70508(16) 0.82175(9)
C39D C 0.8459(2) 0.7199(2) 0.78024(11)
H41D H 0.8777 0.7600 0.7713
C40D C 0.7812(2) 0.6420(2) 0.82147(12)
H42D H 0.7596 0.6182 0.8456
N12D N 0.81292(16) 0.67047(17) 0.75388(9)
C41D C 0.7722(2) 0.6207(2) 0.77966(12)
H43D H 0.738(2) 0.578(3) 0.7640(13)
Ni1_2 Ni -0.31628(2) 0.16795(2) 0.562770(14)
Ni1C Ni 0.81628(2) 0.66795(2) 0.687230(14)
Ni1D_2 Ni 0.83205(2) 1.31628(2) 0.937230(14)
Ni1G Ni 0.33205(2) 0.18372(2) 0.812770(14)
Ni2B Ni 0.68125(2) 1.16449(2) 1.189099(13)
Ni2F Ni -0.16449(2) 0.31875(2) 0.310901(13)
O2_2 O 0.81644(15) 0.20715(14) 0.55928(9)
O2D_2 O 0.79285(14) 0.18356(15) 0.94072(9)
O9_2 O 0.77452(13) 0.08811(14) 0.56323(8)
O9D_2 O 0.91189(14) 0.22548(13) 0.93677(8)
N5C N 0.66013(15) 0.80936(15) 0.87257(9)
N5G N 0.19064(15) 0.33987(15) 0.62743(9)
N12B N 0.82953(17) 0.31292(16) 1.00388(9)
N12F N 0.68708(16) 0.17047(17) 0.49612(9)
O14 O -0.1682(3) 0.3197(2) 0.62470(13)
H44 H -0.1775 0.3496 0.6035
H45 H -0.2029 0.2853 0.6263
O15 O 0.5689(3) 0.7842(2) 0.5630(2)
H46 H 0.6150 0.7986 0.5585
H47 H 0.5400 0.8013 0.5429
O16 O 0.7305(4) 0.4335(4) 0.6405(2)
H48 H 0.7791 0.4304 0.6431
H49 H 0.7192 0.4663 0.6211
loop_
_geom_bond_atom_site_label_1
_geom_bond_atom_site_label_2
_geom_bond_site_symmetry_1
_geom_bond_site_symmetry_2
Ni1 O8 1_555 1_555
Ni2 O1 1_555 1_555
O1 C16 1_555 1_555
O2 C8 1_555 1_555
O3 Ni2 1_555 1_555
H1 O3 1_555 1_555
H2 O3 1_555 1_555
O4 C9 1_555 1_555
O5 Ni2 1_555 1_555
N1 C20 1_555 1_555
N2 C14 1_555 1_555
O6 Ni2 1_555 1_555
O7 C13 1_555 1_555
N3 C31 1_555 1_555
O8 C13 1_555 1_555
O9 C8 1_555 1_555
N4 Ni1 1_555 1_555
C1 C5 1_555 1_555
C2 C8 1_555 1_555
N5 C6 1_555 1_555
C3 C9 1_555 1_555
C4 N9 1_555 1_555
O10 N10 1_555 1_555
N6 C27 1_555 1_555
C5 H3 1_555 1_555
C6 H4 1_555 1_555
N7 Ni1 1_555 1_555
C7 C1 1_555 1_555
H5 C7 1_555 1_555
O11 N10 1_555 1_555
C9 O5 1_555 1_555
C10 C5 1_555 1_555
C11 H6 1_555 1_555
H7 C11 1_555 1_555
C12 H8 1_555 1_555
H9 C12 1_555 1_555
C13 C1 1_555 1_555
N8 Ni2 1_555 1_555
N9 O12 1_555 1_555
C14 H10 1_555 1_555
H11 C14 1_555 1_555
C15 C3 1_555 1_555
H12 C15 1_555 1_555
C16 O6 1_555 1_555
C17 C7 1_555 1_555
C18 C2 1_555 1_555
H13 C18 1_555 1_555
C19 C11 1_555 1_555
H14 C19 1_555 1_555
H15 C19 1_555 1_555
C20 C11 1_555 1_555
H16 C20 1_555 1_555
H17 C20 1_555 1_555
C21 C2 1_555 1_555
H18 C21 1_555 1_555
C22 C10 1_555 1_555
H19 C22 1_555 1_555
C23 N1 1_555 1_555
H20 C23 1_555 1_555
C24 N2 1_555 1_555
H21 C24 1_555 1_555
C25 N2 1_555 1_555
H22 C25 1_555 1_555
C26 H23 1_555 1_555
H24 C26 1_555 1_555
C27 H25 1_555 1_555
H26 C27 1_555 1_555
C28 N6 1_555 1_555
H27 C28 1_555 1_555
C29 N4 1_555 1_555
H28 C29 1_555 1_555
C30 C27 1_555 1_555
H29 C30 1_555 1_555
H30 C30 1_555 1_555
C31 C6 1_555 1_555
H31 C31 1_555 1_555
C32 N1 1_555 1_555
H32 C32 1_555 1_555
C33 C14 1_555 1_555
H33 C33 1_555 1_555
H34 C33 1_555 1_555
C34 N7 1_555 1_555
H35 C34 1_555 1_555
C35 N3 1_555 1_555
H36 C35 1_555 1_555
C36 N4 1_555 1_555
H37 C36 1_555 1_555
N10 C17 1_555 1_555
C37 N3 1_555 1_555
H38 C37 1_555 1_555
H39 C37 1_555 1_555
O13 N9 1_555 1_555
C38 N8 1_555 1_555
H40 C38 1_555 1_555
N11 C12 1_555 1_555
C39 N11 1_555 1_555
H41 C39 1_555 1_555
C40 N11 1_555 1_555
H42 C40 1_555 1_555
N12 C39 1_555 1_555
C41 C40 1_555 1_555
H43 C41 1_555 1_555
O14 H44 1_555 1_555
H45 O14 1_555 1_555
O15 H46 1_555 1_555
H47 O15 1_555 1_555
O16 H48 1_555 1_555
H49 O16 1_555 1_555
N4D C29D 1_555 1_555
N6D C27D 1_555 1_555
C27D H25D 1_555 1_555
H26D C27D 1_555 1_555
C28D N6D 1_555 1_555
H27D C28D 1_555 1_555
C29D N6D 1_555 1_555
H28D C29D 1_555 1_555
C30D C30 1_555 1_555
H29D C30D 1_555 1_555
H30D C30D 1_555 1_555
C36D N4D 1_555 1_555
H37D C36D 1_555 1_555
Ni1D N4D 1_555 1_555
Ni2D O1D 1_555 1_555
O1D C16D 1_555 1_555
O2D C8D 1_555 1_555
O3D Ni2D 1_555 1_555
H1D O3D 1_555 1_555
H2D O3D 1_555 1_555
O4D C9D 1_555 1_555
O5D Ni2D 1_555 1_555
N1D C20D 1_555 1_555
N2D C14D 1_555 1_555
O6D Ni2D 1_555 1_555
O7D C13D 1_555 1_555
N3D C31D 1_555 1_555
O8D Ni1D 1_555 1_555
O9D C8D 1_555 1_555
C1D C5D 1_555 1_555
C2D C8D 1_555 1_555
N5D C6D 1_555 1_555
C3D C9D 1_555 1_555
C4D N9D 1_555 1_555
O10D N10D 1_555 1_555
C5D H3D 1_555 1_555
C6D H4D 1_555 1_555
N7D Ni1D 1_555 1_555
C7D C1D 1_555 1_555
H5D C7D 1_555 1_555
O11D N10D 1_555 1_555
C9D O5D 1_555 1_555
C10D C5D 1_555 1_555
C11D H6D 1_555 1_555
H7D C11D 1_555 1_555
C12D H8D 1_555 1_555
H9D C12D 1_555 1_555
C13D O8D 1_555 1_555
N8D Ni2D 1_555 1_555
N9D O12D 1_555 1_555
C14D H10D 1_555 1_555
H11D C14D 1_555 1_555
C15D C3D 1_555 1_555
H12D C15D 1_555 1_555
C16D O6D 1_555 1_555
C17D C7D 1_555 1_555
C18D C2D 1_555 1_555
H13D C18D 1_555 1_555
C19D C11D 1_555 1_555
H14D C19D 1_555 1_555
H15D C19D 1_555 1_555
C20D C11D 1_555 1_555
H16D C20D 1_555 1_555
H17D C20D 1_555 1_555
C21D C2D 1_555 1_555
H18D C21D 1_555 1_555
C22D C10D 1_555 1_555
H19D C22D 1_555 1_555
C23D N1D 1_555 1_555
H20D C23D 1_555 1_555
C24D N2D 1_555 1_555
H21D C24D 1_555 1_555
C25D N2D 1_555 1_555
H22D C25D 1_555 1_555
C26D H23D 1_555 1_555
H24D C26D 1_555 1_555
C31D C6D 1_555 1_555
H31D C31D 1_555 1_555
C32D N1D 1_555 1_555
H32D C32D 1_555 1_555
C33D C14D 1_555 1_555
H33D C33D 1_555 1_555
H34D C33D 1_555 1_555
C34D N7D 1_555 1_555
H35D C34D 1_555 1_555
C35D N3D 1_555 1_555
H36D C35D 1_555 1_555
N10D C17D 1_555 1_555
C37D N3D 1_555 1_555
H38D C37D 1_555 1_555
H39D C37D 1_555 1_555
O13D N9D 1_555 1_555
C38D N8D 1_555 1_555
H40D C38D 1_555 1_555
N11D C12D 1_555 1_555
C39D N11D 1_555 1_555
H41D C39D 1_555 1_555
C40D N11D 1_555 1_555
H42D C40D 1_555 1_555
N12D C39D 1_555 1_555
C41D C40D 1_555 1_555
H43D C41D 1_555 1_555
Ni1_2 O2 1_555 1_555
Ni1C N12D 1_555 1_555
Ni1D_2 O2D 1_555 1_555
Ni1G N12 1_555 1_555
Ni2B N5D 1_555 1_555
Ni2F N5 1_555 1_555
O2_2 Ni1 1_555 1_555
O2D_2 Ni1D 1_555 1_555
O9_2 Ni1 1_555 1_555
O9D_2 Ni1D 1_555 1_555
N5C Ni2D 1_555 1_555
N5G Ni2 1_555 1_555
N12B Ni1D 1_555 1_555
N12F Ni1 1_555 1_555
O9 Ni1_2 1_555 1_555
N5 C35 1_555 1_555
C3 C21 1_555 1_555
C4 C15 1_555 1_555
C4 C18 1_555 1_555
N6 C29 1_555 1_555
N7 C23 1_555 1_555
C10 C16 1_555 1_555
C12 C19 1_555 1_555
N8 C24 1_555 1_555
C17 C22 1_555 1_555
C25 C38 1_555 1_555
C26 C33 1_555 1_555
C26 C37 1_555 1_555
C28 C36 1_555 1_555
C32 C34 1_555 1_555
N12 C41 1_555 1_555
C27D C30D 1_555 1_555
C28D C36D 1_555 1_555
O9D Ni1D_2 1_555 1_555
C1D C13D 1_555 1_555
N5D C35D 1_555 1_555
C3D C21D 1_555 1_555
C4D C15D 1_555 1_555
C4D C18D 1_555 1_555
N7D C23D 1_555 1_555
C10D C16D 1_555 1_555
C12D C19D 1_555 1_555
N8D C24D 1_555 1_555
C17D C22D 1_555 1_555
C25D C38D 1_555 1_555
C26D C33D 1_555 1_555
C26D C37D 1_555 1_555
C32D C34D 1_555 1_555
N12D C41D 1_555 1_555

#END
