
#######################################################################
#
#                 Cambridge Crystallographic Data Centre
#                                CCDC 
#
#######################################################################
#
# If this CIF has been generated from an entry in the Cambridge 
# Structural Database, then it will include bibliographic, chemical, 
# crystal, experimental, refinement or atomic coordinate data resulting 
# from the CCDC's data processing and validation procedures.
#
#######################################################################

data_CEQQIZ
_symmetry_cell_setting           monoclinic
_symmetry_space_group_name_H-M   'P 21/c'
_symmetry_Int_Tables_number      14
_space_group_name_Hall           '-P 2ybc'
loop_
_symmetry_equiv_pos_site_id
_symmetry_equiv_pos_as_xyz
1 x,y,z
2 -x,1/2+y,1/2-z
3 -x,-y,-z
4 x,1/2-y,1/2+z
_cell_length_a                   9.6684(7)
_cell_length_b                   7.3752(5)
_cell_length_c                   20.9665(14)
_cell_angle_alpha                90
_cell_angle_beta                 102.3550(10)
_cell_angle_gamma                90
_cell_volume                     1460.42
loop_
_atom_site_label
_atom_site_type_symbol
_atom_site_fract_x
_atom_site_fract_y
_atom_site_fract_z
Cu1 Cu 0.68553(3) 0.47340(4) 0.610350(12)
O1 O 0.47572(17) 0.4977(2) 0.57955(8)
S1 S 0.75789(7) -0.00768(8) 0.60346(3)
N1 N 0.66853(19) 0.4529(3) 0.70207(9)
O2 O 0.31746(16) 0.5148(2) 0.48456(8)
O3 O 0.6634(2) 0.1440(3) 0.60127(10)
O4 O 0.9016(2) 0.0308(3) 0.63482(11)
C1 C 0.9657(2) 0.5403(3) 0.69449(11)
N2 N 0.8970(2) 0.5681(3) 0.74519(10)
C2 C 0.4394(2) 0.5038(3) 0.51839(11)
C3 C 0.5456(2) 0.3861(3) 0.71406(11)
C4 C 0.7665(2) 0.5120(3) 0.75329(11)
C5 C 0.9703(3) 0.4512(4) 0.58929(12)
C6 C 0.7395(3) 0.5167(4) 0.81654(12)
C7 C 1.1112(3) 0.5724(4) 0.70728(13)
N3 N 0.8942(2) 0.4839(2) 0.63592(9)
O5 O 0.7019(2) -0.1762(3) 0.62118(10)
F1 F 0.8626(2) -0.1680(3) 0.51391(10)
F2 F 0.8078(3) 0.1091(3) 0.49275(9)
C8 C 1.1843(3) 0.5440(4) 0.65898(14)
F3 F 0.6472(2) -0.0952(3) 0.48313(9)
C9 C 0.7690(4) -0.0413(4) 0.51878(14)
C10 C 1.1129(3) 0.4789(4) 0.59892(14)
C11 C 0.6134(3) 0.4542(4) 0.82669(13)
C12 C 0.5143(3) 0.3850(4) 0.77421(12)
H1 H 0.485(3) 0.342(4) 0.6774(14)
H2 H 0.435(3) 0.341(3) 0.7802(12)
H3 H 0.918(3) 0.402(4) 0.5481(13)
H4 H 1.151(3) 0.620(4) 0.7470(14)
H5 H 1.158(3) 0.453(4) 0.5660(15)
H6 H 0.811(3) 0.563(4) 0.8487(16)
H7 H 1.280(3) 0.563(4) 0.6659(15)
H8 H 0.942(3) 0.590(4) 0.7746(14)
H9 H 0.600(3) 0.456(4) 0.8643(15)
Cu1B Cu 0.31447(3) 0.52660(4) 0.389650(12)
Cu1_2 Cu 0.68553(3) -0.52660(4) 0.610350(12)
Cu1_3 Cu 0.68553(3) 1.47340(4) 0.610350(12)
O1B O 0.52428(17) 0.5023(2) 0.42045(8)
S1_2 S 0.75789(7) 0.99232(8) 0.60346(3)
N1B N 0.33147(19) 0.5471(3) 0.29793(9)
O2B O 0.68254(16) 0.4852(2) 0.51544(8)
O3_2 O 0.6634(2) 1.1440(3) 0.60127(10)
O3B O 0.3366(2) 0.8560(3) 0.39873(10)
O4_2 O 0.9016(2) 1.0308(3) 0.63482(11)
C1B C 0.0343(2) 0.4597(3) 0.30551(11)
N2B N 0.1030(2) 0.4319(3) 0.25481(10)
C2B C 0.5606(2) 0.4962(3) 0.48161(11)
C3B C 0.4544(2) 0.6139(3) 0.28594(11)
C4B C 0.2335(2) 0.4880(3) 0.24671(11)
C5B C 0.0297(3) 0.5488(4) 0.41071(12)
C6B C 0.2605(3) 0.4833(4) 0.18346(12)
C7B C -0.1112(3) 0.4276(4) 0.29272(13)
N3B N 0.1058(2) 0.5161(2) 0.36408(9)
O5_2 O 0.7019(2) 0.8238(3) 0.62118(10)
O5B O 0.2981(2) 0.1762(3) 0.37882(10)
F1_2 F 0.8626(2) 0.8320(3) 0.51391(10)
F2_2 F 0.8078(3) 1.1091(3) 0.49275(9)
C8B C -0.1843(3) 0.4560(4) 0.34102(14)
F3_2 F 0.6472(2) 0.9048(3) 0.48313(9)
C9_2 C 0.7690(4) 0.9587(4) 0.51878(14)
C10B C -0.1129(3) 0.5211(4) 0.40108(14)
C11B C 0.3866(3) 0.5458(4) 0.17331(13)
C12B C 0.4857(3) 0.6150(4) 0.22579(12)
H1B H 0.515(3) 0.658(4) 0.3226(14)
H2B H 0.565(3) 0.659(3) 0.2198(12)
H3B H 0.082(3) 0.598(4) 0.4519(13)
H4B H -0.151(3) 0.380(4) 0.2530(14)
H5B H -0.158(3) 0.547(4) 0.4340(15)
H6B H 0.189(3) 0.437(4) 0.1513(16)
H7B H -0.280(3) 0.437(4) 0.3341(15)
H8B H 0.058(3) 0.410(4) 0.2254(14)
H9B H 0.400(3) 0.544(4) 0.1357(15)
loop_
_geom_bond_atom_site_label_1
_geom_bond_atom_site_label_2
_geom_bond_site_symmetry_1
_geom_bond_site_symmetry_2
Cu1 O1 1_555 1_555
O1 C2 1_555 1_555
S1 O3 1_555 1_555
N1 Cu1 1_555 1_555
O2 C2 1_555 1_555
O3 Cu1 1_555 1_555
O4 S1 1_555 1_555
C1 N2 1_555 1_555
N2 C4 1_555 1_555
C2 C2B 1_555 1_555
C3 N1 1_555 1_555
C4 N1 1_555 1_555
C5 N3 1_555 1_555
C6 C4 1_555 1_555
C7 C1 1_555 1_555
N3 Cu1 1_555 1_555
O5 S1 1_555 1_555
F1 C9 1_555 1_555
F2 C9 1_555 1_555
C8 C7 1_555 1_555
F3 C9 1_555 1_555
C9 S1 1_555 1_555
C10 C5 1_555 1_555
C11 C6 1_555 1_555
C12 C3 1_555 1_555
H1 C3 1_555 1_555
H2 C12 1_555 1_555
H3 C5 1_555 1_555
H4 C7 1_555 1_555
H5 C10 1_555 1_555
H6 C6 1_555 1_555
H7 C8 1_555 1_555
H8 N2 1_555 1_555
H9 C11 1_555 1_555
Cu1B O2 1_555 1_555
Cu1_2 O5 1_555 1_555
Cu1_3 O3_2 1_555 1_555
O1B Cu1B 1_555 1_555
S1_2 O3_2 1_555 1_555
N1B Cu1B 1_555 1_555
O2B Cu1 1_555 1_555
O3B Cu1B 1_555 1_555
O4_2 S1_2 1_555 1_555
C1B N2B 1_555 1_555
N2B C4B 1_555 1_555
C2B O1B 1_555 1_555
C3B N1B 1_555 1_555
C4B N1B 1_555 1_555
C5B N3B 1_555 1_555
C6B C4B 1_555 1_555
C7B C1B 1_555 1_555
N3B Cu1B 1_555 1_555
O5_2 Cu1 1_555 1_555
O5B Cu1B 1_555 1_555
F1_2 C9_2 1_555 1_555
F2_2 C9_2 1_555 1_555
C8B C7B 1_555 1_555
F3_2 C9_2 1_555 1_555
C9_2 S1_2 1_555 1_555
C10B C5B 1_555 1_555
C11B C6B 1_555 1_555
C12B C3B 1_555 1_555
H1B C3B 1_555 1_555
H2B C12B 1_555 1_555
H3B C5B 1_555 1_555
H4B C7B 1_555 1_555
H5B C10B 1_555 1_555
H6B C6B 1_555 1_555
H7B C8B 1_555 1_555
H8B N2B 1_555 1_555
H9B C11B 1_555 1_555
C1 N3 1_555 1_555
C8 C10 1_555 1_555
C11 C12 1_555 1_555
S1_2 O5_2 1_555 1_555
O2B C2B 1_555 1_555
C1B N3B 1_555 1_555
C8B C10B 1_555 1_555
C11B C12B 1_555 1_555

#END
