
#######################################################################
#
#                 Cambridge Crystallographic Data Centre
#                                CCDC 
#
#######################################################################
#
# If this CIF has been generated from an entry in the Cambridge 
# Structural Database, then it will include bibliographic, chemical, 
# crystal, experimental, refinement or atomic coordinate data resulting 
# from the CCDC's data processing and validation procedures.
#
#######################################################################

data_CEQQOF
_symmetry_cell_setting           monoclinic
_symmetry_space_group_name_H-M   'P 21/c'
_symmetry_Int_Tables_number      14
_space_group_name_Hall           '-P 2ybc'
loop_
_symmetry_equiv_pos_site_id
_symmetry_equiv_pos_as_xyz
1 x,y,z
2 -x,1/2+y,1/2-z
3 -x,-y,-z
4 x,1/2-y,1/2+z
_cell_length_a                   13.0440(6)
_cell_length_b                   10.3950(5)
_cell_length_c                   20.7090(9)
_cell_angle_alpha                90
_cell_angle_beta                 112.4480(10)
_cell_angle_gamma                90
_cell_volume                     2595.21
loop_
_atom_site_label
_atom_site_type_symbol
_atom_site_fract_x
_atom_site_fract_y
_atom_site_fract_z
Pb1 Pb 0.282609(9) 0.630179(10) 0.490959(6)
O1 O 0.1264(2) 0.6802(3) 0.55100(15)
O2 O 0.1067(2) 0.4753(2) 0.57442(13)
O3 O -0.12543(19) 0.5680(2) 0.54720(12)
O4 O -0.1163(2) 0.4016(2) 0.61627(13)
O5 O 0.3489(2) 0.6939(2) 0.41110(13)
O6 O 0.3278(2) 0.4845(2) 0.39990(13)
O7 O 0.5693(2) 0.5104(3) 0.43523(13)
O8 O 0.6284(2) 0.3972(3) 0.36611(15)
N1 N 0.1957(2) 0.8518(3) 0.46733(15)
N2 N 0.4159(2) 0.8091(3) 0.54270(13)
C1 C 0.0406(3) 0.5184(4) 0.73865(18)
H1 H -0.0119 0.5065 0.7617
C2 C 0.0989(3) 0.3993(4) 0.7300(2)
H2 H 0.0754 0.3150 0.7307
C3 C 0.1898(3) 0.4356(4) 0.72111(19)
H3 H 0.2411 0.3813 0.7140
C4 C 0.1956(3) 0.5791(4) 0.72457(18)
H4 H 0.2695 0.6164 0.7363
C5 C 0.1022(3) 0.6341(3) 0.65722(18)
H5 H 0.1048 0.7281 0.6608
C6 C -0.0062(3) 0.5877(3) 0.66661(17)
H6 H -0.0450 0.6649 0.6723
C7 C 0.1409(3) 0.6049(4) 0.7773(2)
H7 H 0.1850 0.5744 0.8240
H8 H 0.1208 0.6944 0.7787
C8 C 0.1130(3) 0.5988(3) 0.58994(18)
C9 C -0.0874(2) 0.5122(3) 0.60565(17)
C10 C 0.4453(3) 0.4712(4) 0.2432(2)
H9 H 0.5009 0.4528 0.2233
C11 C 0.3872(4) 0.3557(4) 0.2571(2)
H10 H 0.4125 0.2713 0.2621
C12 C 0.2944(4) 0.3956(4) 0.2609(2)
H11 H 0.2428 0.3446 0.2699
C13 C 0.2860(3) 0.5376(4) 0.24822(18)
H12 H 0.2109 0.5737 0.2323
C14 C 0.3450(4) 0.5503(5) 0.1969(2)
H13 H 0.3045 0.5104 0.1520
H14 H 0.3638 0.6385 0.1907
C15 C 0.3744(3) 0.6043(3) 0.31370(18)
H15 H 0.3716 0.6967 0.3038
C16 C 0.4869(3) 0.5518(3) 0.31203(18)
H16 H 0.5269 0.6260 0.3041
C17 C 0.3513(3) 0.5875(3) 0.37948(17)
C18 C 0.5665(3) 0.4814(3) 0.37507(18)
C19 C 0.0878(3) 0.8710(3) 0.4326(2)
H17 H 0.0427 0.8010 0.4121
C20 C 0.0399(3) 0.9929(4) 0.4257(2)
H18 H -0.0359 1.0032 0.4011
C21 C 0.1042(3) 1.0963(4) 0.4551(2)
H19 H 0.0726 1.1776 0.4509
C22 C 0.2187(3) 1.0799(4) 0.49209(19)
C23 C 0.2933(4) 1.1847(4) 0.5244(2)
H20 H 0.2657 1.2679 0.5215
C24 C 0.4015(3) 1.1629(4) 0.5585(2)
H21 H 0.4484 1.2321 0.5778
C25 C 0.4473(3) 1.0365(3) 0.56623(17)
C26 C 0.5605(3) 1.0106(3) 0.60242(18)
H22 H 0.6096 1.0772 0.6231
C27 C 0.5983(3) 0.8865(3) 0.60714(18)
H23 H 0.6732 0.8683 0.6306
C28 C 0.5231(3) 0.7882(3) 0.57637(17)
H24 H 0.5494 0.7043 0.5796
C29 C 0.3769(3) 0.9315(3) 0.53632(16)
C30 C 0.2611(3) 0.9535(3) 0.49768(16)
Pb1B Pb -0.282609(9) 0.369821(10) 0.509041(6)
Pb1B_2 Pb 0.717391(9) 0.369821(10) 0.509041(6)
O3B O 0.12543(19) 0.4320(2) 0.45280(12)
O4B O 0.1163(2) 0.5984(2) 0.38373(13)
O7B O 0.4307(2) 0.4896(3) 0.56477(13)
O8B O 0.3716(2) 0.6028(3) 0.63389(15)
loop_
_geom_bond_atom_site_label_1
_geom_bond_atom_site_label_2
_geom_bond_site_symmetry_1
_geom_bond_site_symmetry_2
Pb1 O1 1_555 1_555
O1 C8 1_555 1_555
O2 C8 1_555 1_555
O3 C9 1_555 1_555
O4 C9 1_555 1_555
O5 Pb1 1_555 1_555
O6 Pb1 1_555 1_555
O7 C18 1_555 1_555
O8 C18 1_555 1_555
N1 Pb1 1_555 1_555
N2 Pb1 1_555 1_555
C1 H1 1_555 1_555
C2 C1 1_555 1_555
H2 C2 1_555 1_555
C3 C2 1_555 1_555
H3 C3 1_555 1_555
C4 C3 1_555 1_555
H4 C4 1_555 1_555
C5 C4 1_555 1_555
H5 C5 1_555 1_555
C6 C1 1_555 1_555
H6 C6 1_555 1_555
C7 C1 1_555 1_555
H7 C7 1_555 1_555
H8 C7 1_555 1_555
C8 C5 1_555 1_555
C9 C6 1_555 1_555
C10 H9 1_555 1_555
C11 C10 1_555 1_555
H10 C11 1_555 1_555
C12 C11 1_555 1_555
H11 C12 1_555 1_555
C13 C12 1_555 1_555
H12 C13 1_555 1_555
C14 C10 1_555 1_555
H13 C14 1_555 1_555
H14 C14 1_555 1_555
C15 C13 1_555 1_555
H15 C15 1_555 1_555
C16 C10 1_555 1_555
H16 C16 1_555 1_555
C17 O5 1_555 1_555
C18 C16 1_555 1_555
C19 N1 1_555 1_555
H17 C19 1_555 1_555
C20 C19 1_555 1_555
H18 C20 1_555 1_555
C21 C20 1_555 1_555
H19 C21 1_555 1_555
C22 C21 1_555 1_555
C23 C22 1_555 1_555
H20 C23 1_555 1_555
C24 C23 1_555 1_555
H21 C24 1_555 1_555
C25 C24 1_555 1_555
C26 C25 1_555 1_555
H22 C26 1_555 1_555
C27 C26 1_555 1_555
H23 C27 1_555 1_555
C28 N2 1_555 1_555
H24 C28 1_555 1_555
C29 N2 1_555 1_555
C30 N1 1_555 1_555
Pb1B O3 1_555 1_555
Pb1B_2 O7 1_555 1_555
O3B Pb1 1_555 1_555
O4B Pb1 1_555 1_555
O7B Pb1 1_555 1_555
O8B Pb1 1_555 1_555
O4 Pb1B 1_555 1_555
O6 C17 1_555 1_555
O8 Pb1B_2 1_555 1_555
C4 C7 1_555 1_555
C5 C6 1_555 1_555
C13 C14 1_555 1_555
C15 C16 1_555 1_555
C15 C17 1_555 1_555
C22 C30 1_555 1_555
C25 C29 1_555 1_555
C27 C28 1_555 1_555
C29 C30 1_555 1_555

#END
