
#######################################################################
#
#                 Cambridge Crystallographic Data Centre
#                                CCDC 
#
#######################################################################
#
# If this CIF has been generated from an entry in the Cambridge 
# Structural Database, then it will include bibliographic, chemical, 
# crystal, experimental, refinement or atomic coordinate data resulting 
# from the CCDC's data processing and validation procedures.
#
#######################################################################

data_CEQTEY
_symmetry_cell_setting           triclinic
_symmetry_space_group_name_H-M   'P -1'
_symmetry_Int_Tables_number      2
_space_group_name_Hall           '-P 1'
loop_
_symmetry_equiv_pos_site_id
_symmetry_equiv_pos_as_xyz
1 x,y,z
2 -x,-y,-z
_cell_length_a                   13.271(4)
_cell_length_b                   13.631(4)
_cell_length_c                   14.627(4)
_cell_angle_alpha                103.591(6)
_cell_angle_beta                 92.396(6)
_cell_angle_gamma                116.855(6)
_cell_volume                     2260.87
loop_
_atom_site_label
_atom_site_type_symbol
_atom_site_fract_x
_atom_site_fract_y
_atom_site_fract_z
B1 B 0.6614(5) 1.2183(4) 0.7383(4)
H1 H 0.6763 1.2959 0.7395
C1 C 0.4188(4) 0.9522(4) 0.5923(3)
H2 H 0.3776 0.8725 0.5717
C2 C 0.3918(4) 1.0218(4) 0.5625(4)
H3 H 0.3273 1.0002 0.5189
C3 C 0.4747(4) 1.1319(4) 0.6067(3)
H4 H 0.4796 1.1990 0.5975
C4 C 0.8497(4) 1.1005(5) 0.6820(3)
H5 H 0.8699 1.0426 0.6766
C5 C 0.9154(5) 1.1982(4) 0.6681(3)
H6 H 0.9873 1.2212 0.6505
C6 C 0.8571(4) 1.2625(4) 0.6847(4)
H7 H 0.8806 1.3362 0.6797
C7 C 0.6119(4) 1.0973(4) 0.9370(3)
H8 H 0.6003 1.0397 0.9655
C8 C 0.6231(4) 1.2024(4) 0.9837(3)
H9 H 0.6184 1.2273 1.0474
C9 C 0.6420(4) 1.2618(4) 0.9205(3)
H10 H 0.6530 1.3363 0.9324
C10 C 0.6018(4) 0.8542(4) 0.6273(4)
C11 C 0.7017(4) 0.9281(4) 0.8026(4)
C12 C 0.4718(4) 0.8575(4) 0.7625(3)
C13 C 0.5065(4) 0.4932(4) 0.3200(3)
C14 C 0.5143(4) 0.4841(4) 0.2177(3)
C15 C 0.6379(4) 0.5066(4) 0.2053(4)
H11 H 0.6902 0.5871 0.2310
H12 H 0.6407 0.4826 0.1387
H13 H 0.6593 0.4642 0.2387
C16 C 0.4344(4) 0.3645(4) 0.1501(3)
H14 H 0.4636 0.3130 0.1555
H15 H 0.4302 0.3689 0.0856
H16 H 0.3592 0.3369 0.1668
C17 C 0.4966(4) 0.5801(4) 0.1877(4)
H17 H 0.4493 0.6006 0.2273
H18 H 0.4602 0.5515 0.1221
H19 H 0.5697 0.6464 0.1956
C18 C 0.7059(4) 0.5244(4) 0.5167(3)
C19 C 0.8243(4) 0.5322(4) 0.5236(3)
C20 C 0.9025(5) 0.6264(5) 0.4844(4)
H20 H 0.8941 0.6936 0.5095
H21 H 0.9804 0.6439 0.5026
H22 H 0.8830 0.6022 0.4161
C21 C 0.8676(4) 0.5697(4) 0.6299(3)
H23 H 0.8290 0.5062 0.6556
H24 H 0.9486 0.5957 0.6408
H25 H 0.8527 0.6311 0.6607
C22 C 0.8175(4) 0.4109(4) 0.4905(3)
H26 H 0.7711 0.3700 0.4284
H27 H 0.8933 0.4198 0.4879
H28 H 0.7841 0.3687 0.5350
C23 C 0.8772(4) 0.9893(4) 1.1362(3)
C24 C 0.8085(4) 0.9878(4) 1.2119(3)
C25 C 0.8477(5) 0.9388(5) 1.2815(4)
H29 H 0.9232 0.9944 1.3156
H30 H 0.7955 0.9209 1.3260
H31 H 0.8489 0.8704 1.2467
C26 C 0.8349(4) 1.1063(4) 1.2688(3)
H32 H 0.8149 1.1431 1.2282
H33 H 0.7913 1.1012 1.3200
H34 H 0.9152 1.1503 1.2948
C27 C 0.6780(4) 0.9214(4) 1.1756(3)
H35 H 0.6583 0.8477 1.1328
H36 H 0.6383 0.9114 1.2288
H37 H 0.6564 0.9639 1.1425
C28 C 1.0302(4) 1.2073(3) 1.0103(3)
C29 C 1.0496(4) 1.3219(4) 1.0134(3)
C30 C 0.9446(4) 1.3177(4) 0.9573(3)
H38 H 0.8751 1.2603 0.9694
H39 H 0.9471 1.3912 0.9777
H40 H 0.9470 1.2991 0.8902
C31 C 1.0963(4) 1.4051(4) 1.1142(3)
H41 H 1.1759 1.4271 1.1309
H42 H 1.0883 1.4720 1.1161
H43 H 1.0542 1.3682 1.1588
C32 C 1.1444(4) 1.3735(4) 0.9568(4)
H44 H 1.1157 1.3368 0.8898
H45 H 1.1695 1.4542 0.9698
H46 H 1.2077 1.3620 0.9751
Fe1 Fe 0.61018(6) 0.97215(6) 0.73408(5)
N1 N 0.5170(3) 1.0146(3) 0.6584(3)
N2 N 0.5493(3) 1.1220(3) 0.6676(2)
N3 N 0.7479(3) 1.0907(3) 0.7053(3)
N4 N 0.7604(3) 1.1938(3) 0.7091(3)
N5 N 0.6199(3) 1.0890(3) 0.8452(3)
N6 N 0.6427(3) 1.1944(3) 0.8344(3)
N7 N 0.6018(3) 0.7843(3) 0.5683(3)
N8 N 0.7625(3) 0.9086(3) 0.8435(3)
N9 N 0.3919(3) 0.7879(3) 0.7766(3)
O1 O 0.6955(3) 0.6129(3) 0.5296(2)
O2 O 0.5406(3) 0.5886(3) 0.3789(2)
O3 O 0.6195(3) 0.4228(3) 0.4962(2)
O4 O 0.4671(3) 0.3982(3) 0.3426(2)
O5 O 0.8262(3) 0.9533(3) 1.0498(2)
O6 O 0.9436(3) 1.1202(3) 0.9528(2)
O7 O 1.1022(3) 1.1972(3) 1.0623(2)
O8 O 0.9847(3) 1.0292(3) 1.1593(2)
Ru1 Ru 0.53681(3) 0.59652(3) 0.51863(3)
Ru2 Ru 0.91934(3) 0.96091(3) 0.94474(3)
O3A O 0.3805(3) 0.5772(3) 0.5038(2)
O4A O 0.5329(3) 0.6018(3) 0.6574(2)
O7A O 0.8978(3) 0.8028(3) 0.9377(2)
O8A O 1.0153(3) 0.9708(3) 0.8407(2)
Ru1A Ru 0.46319(3) 0.40348(3) 0.48137(3)
Ru2A Ru 1.08066(3) 1.03909(3) 1.05526(3)
O9 O 0.1107(5) 0.5787(5) 0.7883(4)
H47 H 0.1523 0.6290 0.7620
H48 H 0.1458 0.5434 0.8013
O10 O 0.1756(6) 0.0676(6) 0.5124(4)
H49 H 0.1954 0.1377 0.5183
H50 H 0.1093 0.0351 0.5269
loop_
_geom_bond_atom_site_label_1
_geom_bond_atom_site_label_2
_geom_bond_site_symmetry_1
_geom_bond_site_symmetry_2
B1 H1 1_555 1_555
C1 H2 1_555 1_555
C2 C1 1_555 1_555
H3 C2 1_555 1_555
C3 C2 1_555 1_555
H4 C3 1_555 1_555
C4 H5 1_555 1_555
C5 C4 1_555 1_555
H6 C5 1_555 1_555
C6 C5 1_555 1_555
H7 C6 1_555 1_555
C7 H8 1_555 1_555
C8 C7 1_555 1_555
H9 C8 1_555 1_555
C9 C8 1_555 1_555
H10 C9 1_555 1_555
C10 Fe1 1_555 1_555
C11 Fe1 1_555 1_555
C12 Fe1 1_555 1_555
C13 C14 1_555 1_555
C14 C15 1_555 1_555
C15 H11 1_555 1_555
H12 C15 1_555 1_555
H13 C15 1_555 1_555
C16 C14 1_555 1_555
H14 C16 1_555 1_555
H15 C16 1_555 1_555
H16 C16 1_555 1_555
C17 C14 1_555 1_555
H17 C17 1_555 1_555
H18 C17 1_555 1_555
H19 C17 1_555 1_555
C18 C19 1_555 1_555
C19 C20 1_555 1_555
C20 H20 1_555 1_555
H21 C20 1_555 1_555
H22 C20 1_555 1_555
C21 C19 1_555 1_555
H23 C21 1_555 1_555
H24 C21 1_555 1_555
H25 C21 1_555 1_555
C22 C19 1_555 1_555
H26 C22 1_555 1_555
H27 C22 1_555 1_555
H28 C22 1_555 1_555
C23 C24 1_555 1_555
C24 C25 1_555 1_555
C25 H29 1_555 1_555
H30 C25 1_555 1_555
H31 C25 1_555 1_555
C26 C24 1_555 1_555
H32 C26 1_555 1_555
H33 C26 1_555 1_555
H34 C26 1_555 1_555
C27 C24 1_555 1_555
H35 C27 1_555 1_555
H36 C27 1_555 1_555
H37 C27 1_555 1_555
C28 C29 1_555 1_555
C29 C30 1_555 1_555
C30 H38 1_555 1_555
H39 C30 1_555 1_555
H40 C30 1_555 1_555
C31 C29 1_555 1_555
H41 C31 1_555 1_555
H42 C31 1_555 1_555
H43 C31 1_555 1_555
C32 C29 1_555 1_555
H44 C32 1_555 1_555
H45 C32 1_555 1_555
H46 C32 1_555 1_555
Fe1 N1 1_555 1_555
N1 C1 1_555 1_555
N2 B1 1_555 1_555
N3 C4 1_555 1_555
N4 B1 1_555 1_555
N5 C7 1_555 1_555
N6 B1 1_555 1_555
N7 C10 1_555 1_555
N8 C11 1_555 1_555
N9 C12 1_555 1_555
O1 C18 1_555 1_555
O2 C13 1_555 1_555
O3 C18 1_555 1_555
O4 C13 1_555 1_555
O5 C23 1_555 1_555
O6 C28 1_555 1_555
O7 C28 1_555 1_555
O8 C23 1_555 1_555
O9 H47 1_555 1_555
H48 O9 1_555 1_555
O10 H49 1_555 1_555
H50 O10 1_555 1_555
Ru1 N7 1_555 1_555
Ru2 N8 1_555 1_555
O3A Ru1 1_555 1_555
O4A Ru1 1_555 1_555
O7A Ru2 1_555 1_555
O8A Ru2 1_555 1_555
Ru1A O3 1_555 1_555
Ru2A O7 1_555 1_555
C3 N2 1_555 1_555
C6 N4 1_555 1_555
C9 N6 1_555 1_555
Fe1 N3 1_555 1_555
Fe1 N5 1_555 1_555
N1 N2 1_555 1_555
N3 N4 1_555 1_555
N5 N6 1_555 1_555
O1 Ru1 1_555 1_555
O2 Ru1 1_555 1_555
O4 Ru1A 1_555 1_555
O5 Ru2 1_555 1_555
O6 Ru2 1_555 1_555
O8 Ru2A 1_555 1_555
Ru1 Ru1A 1_555 1_555
Ru2 Ru2A 1_555 1_555

#END
