
#######################################################################
#
#                 Cambridge Crystallographic Data Centre
#                                CCDC 
#
#######################################################################
#
# If this CIF has been generated from an entry in the Cambridge 
# Structural Database, then it will include bibliographic, chemical, 
# crystal, experimental, refinement or atomic coordinate data resulting 
# from the CCDC's data processing and validation procedures.
#
#######################################################################

data_CERDUY
_symmetry_cell_setting           monoclinic
_symmetry_space_group_name_H-M   'P 21/n'
_symmetry_Int_Tables_number      14
_space_group_name_Hall           '-P 2yn'
loop_
_symmetry_equiv_pos_site_id
_symmetry_equiv_pos_as_xyz
1 x,y,z
2 1/2+x,1/2-y,1/2+z
3 -x,-y,-z
4 1/2-x,1/2+y,1/2-z
_cell_length_a                   7.5401(7)
_cell_length_b                   13.2643(4)
_cell_length_c                   8.6973(9)
_cell_angle_alpha                90
_cell_angle_beta                 114.954(2)
_cell_angle_gamma                90
_cell_volume                     788.649
loop_
_atom_site_label
_atom_site_type_symbol
_atom_site_fract_x
_atom_site_fract_y
_atom_site_fract_z
Mn1 Mn 0.0000 0.0000 0.0000
N1 N 0.2152(4) 0.1135(2) -0.0046(3)
N2 N 0.5062(4) 0.2002(2) 0.0077(5)
N3 N 0.7939(4) 0.1220(2) -0.0041(3)
N4 N 0.1422(3) 0.0047(2) 0.2879(3)
C1 C 0.3553(4) 0.1499(2) 0.0001(4)
C2 C 0.6553(4) 0.1547(2) 0.0006(4)
C3 C 0.1547(5) -0.0776(2) 0.3789(4)
H1 H 0.0983(5) -0.1376(2) 0.3213(4)
C4 C 0.2461(5) -0.0795(2) 0.5536(4)
H2 H 0.2499(5) -0.1391(2) 0.6133(4)
C5 C 0.3316(5) 0.0071(2) 0.6389(4)
H3 H 0.3976(5) 0.0076(2) 0.7578(4)
C6 C 0.3187(5) 0.0927(2) 0.5470(4)
H4 H 0.3752(5) 0.1533(2) 0.6021(4)
C7 C 0.2221(5) 0.0891(2) 0.3732(4)
H5 H 0.2116(5) 0.1487(2) 0.3114(4)
N3_2 N -0.2061(4) 0.1220(2) -0.0041(3)
Mn1_2 Mn 1.0000 0.0000 0.0000
N1B N 0.7848(4) -0.1135(2) 0.0046(3)
C1B C 0.6447(4) -0.1499(2) -0.0001(4)
N2B N 0.4938(4) -0.2002(2) -0.0077(5)
C2B C 0.3447(4) -0.1547(2) -0.0006(4)
N3B N 0.2061(4) -0.1220(2) 0.0041(3)
N1B_2 N -0.2152(4) -0.1135(2) 0.0046(3)
N4B N -0.1422(3) -0.0047(2) -0.2879(3)
C3B C -0.1547(5) 0.0776(2) -0.3789(4)
H1B H -0.0983(5) 0.1376(2) -0.3213(4)
C4B C -0.2461(5) 0.0795(2) -0.5536(4)
H2B H -0.2499(5) 0.1391(2) -0.6133(4)
C5B C -0.3316(5) -0.0071(2) -0.6389(4)
H3B H -0.3976(5) -0.0076(2) -0.7578(4)
C6B C -0.3187(5) -0.0927(2) -0.5470(4)
H4B H -0.3752(5) -0.1533(2) -0.6021(4)
C7B C -0.2221(5) -0.0891(2) -0.3732(4)
H5B H -0.2116(5) -0.1487(2) -0.3114(4)
loop_
_geom_bond_atom_site_label_1
_geom_bond_atom_site_label_2
_geom_bond_site_symmetry_1
_geom_bond_site_symmetry_2
Mn1 N1 1_555 1_555
N1 C1 1_555 1_555
N2 C1 1_555 1_555
N3 C2 1_555 1_555
N4 Mn1 1_555 1_555
C2 N2 1_555 1_555
C3 N4 1_555 1_555
H1 C3 1_555 1_555
C4 C3 1_555 1_555
H2 C4 1_555 1_555
C5 C4 1_555 1_555
H3 C5 1_555 1_555
C6 C5 1_555 1_555
H4 C6 1_555 1_555
C7 N4 1_555 1_555
H5 C7 1_555 1_555
N3_2 Mn1 1_555 1_555
Mn1_2 N3 1_555 1_555
N1B Mn1_2 1_555 1_555
C1B N1B 1_555 1_555
N2B C1B 1_555 1_555
C2B N2B 1_555 1_555
N3B Mn1 1_555 1_555
N1B_2 Mn1 1_555 1_555
N4B Mn1 1_555 1_555
C3B N4B 1_555 1_555
H1B C3B 1_555 1_555
C4B C3B 1_555 1_555
H2B C4B 1_555 1_555
C5B C4B 1_555 1_555
H3B C5B 1_555 1_555
C6B C5B 1_555 1_555
H4B C6B 1_555 1_555
C7B N4B 1_555 1_555
H5B C7B 1_555 1_555
C6 C7 1_555 1_555
C2B N3B 1_555 1_555
C6B C7B 1_555 1_555

#END
