
#######################################################################
#
#                 Cambridge Crystallographic Data Centre
#                                CCDC 
#
#######################################################################
#
# If this CIF has been generated from an entry in the Cambridge 
# Structural Database, then it will include bibliographic, chemical, 
# crystal, experimental, refinement or atomic coordinate data resulting 
# from the CCDC's data processing and validation procedures.
#
#######################################################################

data_CERGAH01
_symmetry_cell_setting           monoclinic
_symmetry_space_group_name_H-M   'C 2/c'
_symmetry_Int_Tables_number      15
_space_group_name_Hall           '-C 2yn'
loop_
_symmetry_equiv_pos_site_id
_symmetry_equiv_pos_as_xyz
1 x,y,z
2 1/2+x,1/2+y,z
3 x,-y,1/2+z
4 1/2+x,1/2-y,1/2+z
5 -x,-y,-z
6 1/2-x,1/2-y,-z
7 -x,y,1/2-z
8 1/2-x,1/2+y,1/2-z
_cell_length_a                   6.707(2)
_cell_length_b                   17.188(5)
_cell_length_c                   13.096(5)
_cell_angle_alpha                90
_cell_angle_beta                 90.54(2)
_cell_angle_gamma                90
_cell_volume                     1509.64
loop_
_atom_site_label
_atom_site_type_symbol
_atom_site_fract_x
_atom_site_fract_y
_atom_site_fract_z
Mn1 Mn 0.0000 0.39290(5) -0.2500
N1 N 0.1677(4) 0.2869(2) -0.1951(2)
C1 C 0.0919(5) 0.2171(2) -0.2187(3)
C2 C 0.1831(6) 0.1495(2) -0.1856(4)
H1 H 0.1290(6) 0.1013(2) -0.2026(4)
C3 C 0.3538(7) 0.1539(3) -0.1275(4)
H2 H 0.4149(7) 0.1088(3) -0.1034(4)
C4 C 0.4333(7) 0.2252(3) -0.1055(4)
H3 H 0.5506(7) 0.2296(3) -0.0675(4)
C5 C 0.3359(6) 0.2899(3) -0.1408(3)
H4 H 0.3901(6) 0.3385(3) -0.1260(3)
N2 N 0.1964(6) 0.3980(2) -0.3856(3)
C6 C 0.2551(6) 0.4179(2) -0.4619(3)
N3 N 0.3331(5) 0.4329(2) -0.5481(3)
C7 C 0.2558(6) 0.4847(2) -0.6084(3)
N4 N 0.1967(6) 0.5271(2) -0.6671(3)
C1F C -0.0919(5) 0.2171(2) -0.2813(3)
N1F N -0.1677(4) 0.2869(2) -0.3049(2)
N4B N 0.1967(6) 0.4729(2) -0.1671(3)
Mn1B Mn 0.0000 0.60710(5) -0.7500
N4D N -0.1967(6) 0.4729(2) -0.3329(3)
N2F N -0.1964(6) 0.3980(2) -0.1144(3)
C5F C -0.3359(6) 0.2899(3) -0.3592(3)
C4F C -0.4333(7) 0.2252(3) -0.3945(4)
C3F C -0.3538(7) 0.1539(3) -0.3725(4)
C2F C -0.1831(6) 0.1495(2) -0.3144(4)
H1F H -0.1290(6) 0.1013(2) -0.2974(4)
H2F H -0.4149(7) 0.1088(3) -0.3966(4)
H3F H -0.5506(7) 0.2296(3) -0.4325(4)
H4F H -0.3901(6) 0.3385(3) -0.3740(3)
C6F C -0.2551(6) 0.4179(2) -0.0381(3)
N3F N -0.3331(5) 0.4329(2) 0.0481(3)
C7F C -0.2558(6) 0.4847(2) 0.1084(3)
N4F N -0.1967(6) 0.5271(2) 0.1671(3)
Mn1B_2 Mn 0.0000 0.60710(5) 0.2500
loop_
_geom_bond_atom_site_label_1
_geom_bond_atom_site_label_2
_geom_bond_site_symmetry_1
_geom_bond_site_symmetry_2
Mn1 N1 1_555 1_555
N1 C1 1_555 1_555
C1 C2 1_555 1_555
C2 H1 1_555 1_555
C3 C2 1_555 1_555
H2 C3 1_555 1_555
C4 C3 1_555 1_555
H3 C4 1_555 1_555
C5 N1 1_555 1_555
H4 C5 1_555 1_555
N2 Mn1 1_555 1_555
C6 N2 1_555 1_555
N3 C6 1_555 1_555
C7 N3 1_555 1_555
N4 C7 1_555 1_555
C1F C1 1_555 1_555
N1F Mn1 1_555 1_555
N4B Mn1 1_555 1_555
Mn1B N4 1_555 1_555
N4D Mn1 1_555 1_555
N2F Mn1 1_555 1_555
C5F N1F 1_555 1_555
C4F C5F 1_555 1_555
C3F C4F 1_555 1_555
C2F C1F 1_555 1_555
H1F C2F 1_555 1_555
H2F C3F 1_555 1_555
H3F C4F 1_555 1_555
H4F C5F 1_555 1_555
C6F N2F 1_555 1_555
N3F C6F 1_555 1_555
C7F N3F 1_555 1_555
N4F C7F 1_555 1_555
Mn1B_2 N4F 1_555 1_555
C4 C5 1_555 1_555
C1F N1F 1_555 1_555
C3F C2F 1_555 1_555

#END
