
#######################################################################
#
#                 Cambridge Crystallographic Data Centre
#                                CCDC 
#
#######################################################################
#
# If this CIF has been generated from an entry in the Cambridge 
# Structural Database, then it will include bibliographic, chemical, 
# crystal, experimental, refinement or atomic coordinate data resulting 
# from the CCDC's data processing and validation procedures.
#
#######################################################################

data_CERGAH
_symmetry_cell_setting           monoclinic
_symmetry_space_group_name_H-M   'C 2/c'
_symmetry_Int_Tables_number      15
_space_group_name_Hall           '-C 2yn'
loop_
_symmetry_equiv_pos_site_id
_symmetry_equiv_pos_as_xyz
1 x,y,z
2 1/2+x,1/2+y,z
3 x,-y,1/2+z
4 1/2+x,1/2-y,1/2+z
5 -x,-y,-z
6 1/2-x,1/2-y,-z
7 -x,y,1/2-z
8 1/2-x,1/2+y,1/2-z
_cell_length_a                   6.6769(3)
_cell_length_b                   17.2008(2)
_cell_length_c                   13.0142(4)
_cell_angle_alpha                90
_cell_angle_beta                 90.110(2)
_cell_angle_gamma                90
_cell_volume                     1494.65
loop_
_atom_site_label
_atom_site_type_symbol
_atom_site_fract_x
_atom_site_fract_y
_atom_site_fract_z
Mn1 Mn 0.0000 0.38919(4) -0.2500
N1 N 0.1682(5) 0.28320(15) -0.1948(2)
N2 N 0.1989(5) 0.46899(18) -0.1666(2)
N3 N 0.1998(6) 0.6049(2) 0.1131(2)
N4 N 0.3369(5) 0.5660(2) -0.0501(3)
C1 C 0.0933(5) 0.21308(19) -0.2186(3)
C2 C 0.1858(6) 0.1455(2) -0.1855(4)
H1 H 0.1304 0.0963 -0.2023
C3 C 0.3586(6) 0.1501(3) -0.1280(4)
H2 H 0.4221 0.1041 -0.1042
C4 C 0.4388(6) 0.2217(3) -0.1052(4)
H3 H 0.5600 0.2264 -0.0674
C5 C 0.3364(6) 0.2864(2) -0.1394(3)
H4 H 0.3886 0.3362 -0.1225
C6 C 0.2586(5) 0.5130(2) -0.1086(3)
C7 C 0.2587(5) 0.5837(2) 0.0367(3)
C1F C -0.0933(5) 0.21308(19) -0.2814(3)
N1F N -0.1682(5) 0.28320(15) -0.3052(2)
N3B N 0.1998(6) 0.3951(2) -0.3869(2)
Mn1B Mn 0.0000 0.61081(4) 0.2500
N2D N -0.1989(5) 0.53101(18) 0.1666(2)
C6D C -0.2586(5) 0.4870(2) 0.1086(3)
N4D N -0.3369(5) 0.4340(2) 0.0501(3)
C7D C -0.2587(5) 0.4163(2) -0.0367(3)
N3D N -0.1998(6) 0.3951(2) -0.1131(2)
N2F N -0.1989(5) 0.46899(18) -0.3334(2)
C5F C -0.3364(6) 0.2864(2) -0.3606(3)
C4F C -0.4388(6) 0.2217(3) -0.3948(4)
C3F C -0.3586(6) 0.1501(3) -0.3720(4)
C2F C -0.1858(6) 0.1455(2) -0.3145(4)
H1F H -0.1304 0.0963 -0.2977
H2F H -0.4221 0.1041 -0.3958
H3F H -0.5600 0.2264 -0.4326
H4F H -0.3886 0.3362 -0.3775
loop_
_geom_bond_atom_site_label_1
_geom_bond_atom_site_label_2
_geom_bond_site_symmetry_1
_geom_bond_site_symmetry_2
Mn1 N1 1_555 1_555
N1 C1 1_555 1_555
N2 Mn1 1_555 1_555
N3 C7 1_555 1_555
N4 C6 1_555 1_555
C1 C2 1_555 1_555
C2 H1 1_555 1_555
C3 C2 1_555 1_555
H2 C3 1_555 1_555
C4 C3 1_555 1_555
H3 C4 1_555 1_555
C5 N1 1_555 1_555
H4 C5 1_555 1_555
C6 N2 1_555 1_555
C7 N4 1_555 1_555
C1F C1 1_555 1_555
N1F Mn1 1_555 1_555
N3B Mn1 1_555 1_555
Mn1B N3 1_555 1_555
N2D Mn1B 1_555 1_555
C6D N2D 1_555 1_555
N4D C6D 1_555 1_555
C7D N4D 1_555 1_555
N3D Mn1 1_555 1_555
N2F Mn1 1_555 1_555
C5F N1F 1_555 1_555
C4F C5F 1_555 1_555
C3F C4F 1_555 1_555
C2F C1F 1_555 1_555
H1F C2F 1_555 1_555
H2F C3F 1_555 1_555
H3F C4F 1_555 1_555
H4F C5F 1_555 1_555
C4 C5 1_555 1_555
C1F N1F 1_555 1_555
C7D N3D 1_555 1_555
C3F C2F 1_555 1_555

#END
