
#######################################################################
#
#                 Cambridge Crystallographic Data Centre
#                                CCDC 
#
#######################################################################
#
# If this CIF has been generated from an entry in the Cambridge 
# Structural Database, then it will include bibliographic, chemical, 
# crystal, experimental, refinement or atomic coordinate data resulting 
# from the CCDC's data processing and validation procedures.
#
#######################################################################

data_CERSIC
_symmetry_cell_setting           monoclinic
_symmetry_space_group_name_H-M   'P 21/c'
_symmetry_Int_Tables_number      14
_space_group_name_Hall           '-P 2ybc'
loop_
_symmetry_equiv_pos_site_id
_symmetry_equiv_pos_as_xyz
1 x,y,z
2 -x,1/2+y,1/2-z
3 -x,-y,-z
4 x,1/2-y,1/2+z
_cell_length_a                   17.6086(9)
_cell_length_b                   7.3070(4)
_cell_length_c                   8.0274(4)
_cell_angle_alpha                90
_cell_angle_beta                 94.156(3)
_cell_angle_gamma                90
_cell_volume                     1030.14
loop_
_atom_site_label
_atom_site_type_symbol
_atom_site_fract_x
_atom_site_fract_y
_atom_site_fract_z
C1 C 0.24797(10) 0.4475(3) 0.6745(2)
C2 C 0.31073(11) 0.5624(3) 0.6977(2)
C3 C 0.37822(13) 0.5030(4) 0.7788(3)
H1 H 0.4198 0.5813 0.7935
C4 C 0.38277(13) 0.3263(4) 0.8371(3)
C5 C 0.32165(13) 0.2101(3) 0.8171(3)
H2 H 0.3255 0.0910 0.8578
C6 C 0.25390(12) 0.2711(3) 0.7357(3)
H3 H 0.2123 0.1925 0.7225
C7 C 0.12457(10) 0.3980(3) 0.5403(2)
H4 H 0.1456 0.2813 0.5090
H5 H 0.0958 0.4471 0.4428
C8 C 0.07072(9) 0.3657(2) 0.67561(19)
Cl1 Cl 0.46775(4) 0.24655(15) 0.93438(10)
Cl2 Cl 0.30464(4) 0.78156(9) 0.61813(10)
H6 H 0.1289(17) 0.688(4) 1.122(3)
H7 H 0.0742(18) 0.708(4) 1.217(4)
Mn1 Mn 0.0000 0.5000 1.0000
O1 O 0.18541(7) 0.51888(18) 0.58644(17)
O2 O 0.07817(7) 0.45681(18) 0.80688(14)
O3 O 0.01929(8) 0.24947(18) 0.64218(17)
O4 O 0.09381(9) 0.6388(2) 1.15280(19)
C1B C -0.24797(10) 0.5525(3) 1.3255(2)
C2B C -0.31073(11) 0.4376(3) 1.3023(2)
C3B C -0.37822(13) 0.4970(4) 1.2212(3)
H1B H -0.4198 0.4187 1.2065
C4B C -0.38277(13) 0.6737(4) 1.1629(3)
C5B C -0.32165(13) 0.7899(3) 1.1829(3)
H2B H -0.3255 0.9090 1.1422
C6B C -0.25390(12) 0.7289(3) 1.2643(3)
H3B H -0.2123 0.8075 1.2775
C7B C -0.12457(10) 0.6020(3) 1.4597(2)
H4B H -0.1456 0.7187 1.4910
H5B H -0.0958 0.5529 1.5572
C8B C -0.07072(9) 0.6343(2) 1.32439(19)
Cl1B Cl -0.46775(4) 0.75345(15) 1.06562(10)
Cl2B Cl -0.30464(4) 0.21844(9) 1.38187(10)
H6B H -0.1289(17) 0.312(4) 0.878(3)
H7B H -0.0742(18) 0.292(4) 0.783(4)
Mn1C Mn 0.0000 0.0000 0.5000
Mn1C_2 Mn 0.0000 1.0000 1.5000
O1B O -0.18541(7) 0.48112(18) 1.41356(17)
O2B O -0.07817(7) 0.54319(18) 1.19312(14)
O3B O -0.01929(8) 0.75053(18) 1.35782(17)
O3C O 0.01929(8) 0.25053(18) 1.14218(17)
O3A O -0.01929(8) 0.74947(18) 0.85782(17)
O4B O -0.09381(9) 0.3612(2) 0.84720(19)
loop_
_geom_bond_atom_site_label_1
_geom_bond_atom_site_label_2
_geom_bond_site_symmetry_1
_geom_bond_site_symmetry_2
C1 C2 1_555 1_555
C2 C3 1_555 1_555
C3 H1 1_555 1_555
C4 C3 1_555 1_555
C5 C4 1_555 1_555
H2 C5 1_555 1_555
C6 C1 1_555 1_555
H3 C6 1_555 1_555
C7 H4 1_555 1_555
H5 C7 1_555 1_555
C8 C7 1_555 1_555
Cl1 C4 1_555 1_555
Cl2 C2 1_555 1_555
H6 O4 1_555 1_555
H7 O4 1_555 1_555
Mn1 O2 1_555 1_555
O1 C1 1_555 1_555
O2 C8 1_555 1_555
O3 C8 1_555 1_555
O4 Mn1 1_555 1_555
C1B C2B 1_555 1_555
C2B C3B 1_555 1_555
C3B H1B 1_555 1_555
C4B C3B 1_555 1_555
C5B C4B 1_555 1_555
H2B C5B 1_555 1_555
C6B C1B 1_555 1_555
H3B C6B 1_555 1_555
C7B H4B 1_555 1_555
H5B C7B 1_555 1_555
C8B C7B 1_555 1_555
Cl1B C4B 1_555 1_555
Cl2B C2B 1_555 1_555
H6B O4B 1_555 1_555
H7B O4B 1_555 1_555
Mn1C O3 1_555 1_555
Mn1C_2 O3B 1_555 1_555
O1B C1B 1_555 1_555
O2B Mn1 1_555 1_555
O3B C8B 1_555 1_555
O3C Mn1 1_555 1_555
O3A Mn1 1_555 1_555
O4B Mn1 1_555 1_555
C5 C6 1_555 1_555
C7 O1 1_555 1_555
C5B C6B 1_555 1_555
C7B O1B 1_555 1_555
C8B O2B 1_555 1_555

#END
