
#######################################################################
#
#                 Cambridge Crystallographic Data Centre
#                                CCDC 
#
#######################################################################
#
# If this CIF has been generated from an entry in the Cambridge 
# Structural Database, then it will include bibliographic, chemical, 
# crystal, experimental, refinement or atomic coordinate data resulting 
# from the CCDC's data processing and validation procedures.
#
#######################################################################

data_CESVOM
_symmetry_cell_setting           monoclinic
_symmetry_space_group_name_H-M   'C 2/c'
_symmetry_Int_Tables_number      15
_space_group_name_Hall           '-C 2yn'
loop_
_symmetry_equiv_pos_site_id
_symmetry_equiv_pos_as_xyz
1 x,y,z
2 1/2+x,1/2+y,z
3 -x,y,1/2-z
4 1/2-x,1/2+y,1/2-z
5 -x,-y,-z
6 1/2-x,1/2-y,-z
7 x,-y,1/2+z
8 1/2+x,1/2-y,1/2+z
_cell_length_a                   19.967(4)
_cell_length_b                   17.158(3)
_cell_length_c                   14.276(3)
_cell_angle_alpha                90
_cell_angle_beta                 129.623(5)
_cell_angle_gamma                90
_cell_volume                     3767.23
loop_
_atom_site_label
_atom_site_type_symbol
_atom_site_fract_x
_atom_site_fract_y
_atom_site_fract_z
Zn1 Zn 0.31277(5) 0.90847(5) 0.72481(7)
C1 C 0.4638(5) 0.7923(4) 0.8490(7)
H1 H 0.4214 0.7538 0.8156
C2 C 0.5510(6) 0.7708(5) 0.9242(9)
H2 H 0.5661 0.7183 0.9376
C3 C 0.6143(6) 0.8264(5) 0.9784(9)
H3 H 0.6728 0.8126 1.0301
C4 C 0.5893(5) 0.9037(4) 0.9544(7)
H4 H 0.6309 0.9431 0.9895
C5 C 0.5024(4) 0.9219(3) 0.8784(5)
N1 N 0.4399(3) 0.8658(3) 0.8240(4)
C6 C 0.4691(4) 1.0014(3) 0.8494(5)
C7 C 0.5252(5) 1.0657(4) 0.8955(6)
H5 H 0.5852 1.0592 0.9468
C8 C 0.4884(6) 1.1389(4) 0.8624(7)
H6 H 0.5243 1.1825 0.8913
C9 C 0.4003(6) 1.1489(5) 0.7879(8)
H7 H 0.3754 1.1983 0.7662
C10 C 0.3508(6) 1.0830(4) 0.7467(8)
H8 H 0.2907 1.0885 0.6956
N2 N 0.3843(3) 1.0100(3) 0.7761(5)
C11 C 0.1884(4) 0.9271(5) 0.5067(6)
C12 C 0.1188(3) 0.9301(4) 0.3716(5)
C13 C 0.1463(4) 0.9275(4) 0.3035(5)
H9 H 0.2051 0.9216 0.3425
C14 C 0.0867(4) 0.9335(5) 0.1779(6)
H10 H 0.1057 0.9358 0.1331
C15 C -0.0002(3) 0.9359(4) 0.1202(6)
H11 H -0.0400 0.9387 0.0358
C16 C 0.0301(3) 0.9344(3) 0.3146(4)
O1 O 0.1838(3) 0.9681(4) 0.5742(5)
O2 O 0.2515(3) 0.8854(3) 0.5493(5)
C17 C 0.2688(6) 0.8443(6) 0.8339(8)
C18 C 0.2358(6) 0.8220(5) 0.8978(8)
C19 C 0.1656(7) 0.8605(6) 0.8758(10)
H12 H 0.1398 0.8991 0.8165
C20 C 0.1288(7) 0.8485(6) 0.9312(10)
H13 H 0.0838 0.8788 0.9151
C21 C 0.1662(6) 0.7868(5) 1.0130(9)
H14 H 0.1487 0.7756 1.0583
C22 C 0.2698(6) 0.7584(5) 0.9731(8)
O3 O 0.2885(4) 0.9112(4) 0.8426(6)
O4 O 0.2681(5) 0.7959(5) 0.7661(7)
Zn1B Zn -0.31277(5) 0.90847(5) -0.22481(7)
Zn1E Zn 0.18723(5) 0.59153(5) 1.27519(7)
C1B C -0.4638(5) 0.7923(4) -0.3490(7)
H1B H -0.4214 0.7538 -0.3156
C2B C -0.5510(6) 0.7708(5) -0.4242(9)
H2B H -0.5661 0.7183 -0.4376
C3B C -0.6143(6) 0.8264(5) -0.4784(9)
H3B H -0.6728 0.8126 -0.5301
C4B C -0.5893(5) 0.9037(4) -0.4544(7)
H4B H -0.6309 0.9431 -0.4895
C5B C -0.5024(4) 0.9219(3) -0.3784(5)
N1B N -0.4399(3) 0.8658(3) -0.3240(4)
C6B C -0.4691(4) 1.0014(3) -0.3494(5)
C7B C -0.5252(5) 1.0657(4) -0.3955(6)
H5B H -0.5852 1.0592 -0.4468
C8B C -0.4884(6) 1.1389(4) -0.3624(7)
H6B H -0.5243 1.1825 -0.3913
C9B C -0.4003(6) 1.1489(5) -0.2879(8)
H7B H -0.3754 1.1983 -0.2662
C10B C -0.3508(6) 1.0830(4) -0.2467(8)
H8B H -0.2907 1.0885 -0.1956
N2B N -0.3843(3) 1.0100(3) -0.2761(5)
C11B C -0.1884(4) 0.9271(5) -0.0067(6)
C12B C -0.1188(3) 0.9301(4) 0.1284(5)
C13B C -0.1463(4) 0.9275(4) 0.1965(5)
H9B H -0.2051 0.9216 0.1575
C14B C -0.0867(4) 0.9335(5) 0.3221(6)
H10B H -0.1057 0.9358 0.3669
C15B C 0.0002(3) 0.9359(4) 0.3798(6)
H11B H 0.0400 0.9387 0.4642
C16B C -0.0301(3) 0.9344(3) 0.1854(4)
O1B O -0.1838(3) 0.9681(4) -0.0742(5)
O2B O -0.2515(3) 0.8854(3) -0.0493(5)
C17E C 0.2312(6) 0.6557(6) 1.1661(8)
C18E C 0.2642(6) 0.6780(5) 1.1022(8)
C19E C 0.3344(7) 0.6395(6) 1.1242(10)
H12E H 0.3602 0.6009 1.1835
C20E C 0.3712(7) 0.6515(6) 1.0688(10)
H13E H 0.4162 0.6212 1.0849
C21E C 0.3338(6) 0.7132(5) 0.9870(9)
H14E H 0.3513 0.7244 0.9417
C22E C 0.2302(6) 0.7416(5) 1.0269(8)
O3E O 0.2115(4) 0.5888(4) 1.1574(6)
O3B O -0.2885(4) 0.9112(4) -0.3426(6)
O4E O 0.2319(5) 0.7041(5) 1.2339(7)
O4B O -0.2681(5) 0.7959(5) -0.2661(7)
loop_
_geom_bond_atom_site_label_1
_geom_bond_atom_site_label_2
_geom_bond_site_symmetry_1
_geom_bond_site_symmetry_2
Zn1 N1 1_555 1_555
C1 H1 1_555 1_555
C2 C1 1_555 1_555
H2 C2 1_555 1_555
C3 C2 1_555 1_555
H3 C3 1_555 1_555
C4 C3 1_555 1_555
H4 C4 1_555 1_555
C5 C4 1_555 1_555
N1 C1 1_555 1_555
C6 C5 1_555 1_555
C7 C6 1_555 1_555
H5 C7 1_555 1_555
C8 C7 1_555 1_555
H6 C8 1_555 1_555
C9 C8 1_555 1_555
H7 C9 1_555 1_555
C10 C9 1_555 1_555
H8 C10 1_555 1_555
N2 Zn1 1_555 1_555
C11 C12 1_555 1_555
C12 C13 1_555 1_555
C13 H9 1_555 1_555
C14 C13 1_555 1_555
H10 C14 1_555 1_555
C15 C14 1_555 1_555
H11 C15 1_555 1_555
C16 C12 1_555 1_555
O1 Zn1 1_555 1_555
O2 Zn1 1_555 1_555
C17 C18 1_555 1_555
C18 C19 1_555 1_555
C19 H12 1_555 1_555
C20 C19 1_555 1_555
H13 C20 1_555 1_555
C21 C20 1_555 1_555
H14 C21 1_555 1_555
C22 C18 1_555 1_555
O3 Zn1 1_555 1_555
O4 Zn1 1_555 1_555
Zn1B N1B 1_555 1_555
Zn1E O3E 1_555 1_555
C1B H1B 1_555 1_555
C2B C1B 1_555 1_555
H2B C2B 1_555 1_555
C3B C2B 1_555 1_555
H3B C3B 1_555 1_555
C4B C3B 1_555 1_555
H4B C4B 1_555 1_555
C5B C4B 1_555 1_555
N1B C1B 1_555 1_555
C6B C5B 1_555 1_555
C7B C6B 1_555 1_555
H5B C7B 1_555 1_555
C8B C7B 1_555 1_555
H6B C8B 1_555 1_555
C9B C8B 1_555 1_555
H7B C9B 1_555 1_555
C10B C9B 1_555 1_555
H8B C10B 1_555 1_555
N2B Zn1B 1_555 1_555
C11B C12B 1_555 1_555
C12B C13B 1_555 1_555
C13B H9B 1_555 1_555
C14B C13B 1_555 1_555
H10B C14B 1_555 1_555
C15B C16 1_555 1_555
H11B C15B 1_555 1_555
C16B C15 1_555 1_555
O1B Zn1B 1_555 1_555
O2B Zn1B 1_555 1_555
C17E C18E 1_555 1_555
C18E C19E 1_555 1_555
C19E H12E 1_555 1_555
C20E C19E 1_555 1_555
H13E C20E 1_555 1_555
C21E C22 1_555 1_555
H14E C21E 1_555 1_555
C22E C21 1_555 1_555
O3E C17E 1_555 1_555
O3B Zn1B 1_555 1_555
O4E Zn1E 1_555 1_555
O4B Zn1B 1_555 1_555
C5 N1 1_555 1_555
C6 N2 1_555 1_555
C10 N2 1_555 1_555
C11 O1 1_555 1_555
C11 O2 1_555 1_555
C16 C16B 1_555 1_555
C17 O3 1_555 1_555
C17 O4 1_555 1_555
C22 C22E 1_555 1_555
C5B N1B 1_555 1_555
C6B N2B 1_555 1_555
C10B N2B 1_555 1_555
C11B O1B 1_555 1_555
C11B O2B 1_555 1_555
C12B C16B 1_555 1_555
C14B C15B 1_555 1_555
C17E O4E 1_555 1_555
C18E C22E 1_555 1_555
C20E C21E 1_555 1_555

#END
