
#######################################################################
#
#                 Cambridge Crystallographic Data Centre
#                                CCDC 
#
#######################################################################
#
# If this CIF has been generated from an entry in the Cambridge 
# Structural Database, then it will include bibliographic, chemical, 
# crystal, experimental, refinement or atomic coordinate data resulting 
# from the CCDC's data processing and validation procedures.
#
#######################################################################

data_CETCHG01
_symmetry_cell_setting           triclinic
_symmetry_space_group_name_H-M   'P -1'
_symmetry_Int_Tables_number      2
_space_group_name_Hall           '-P 1'
loop_
_symmetry_equiv_pos_site_id
_symmetry_equiv_pos_as_xyz
1 x,y,z
2 -x,-y,-z
_cell_length_a                   18.53(1)
_cell_length_b                   10.174(6)
_cell_length_c                   11.016(6)
_cell_angle_alpha                112.82(4)
_cell_angle_beta                 97.17(5)
_cell_angle_gamma                91.15(6)
_cell_volume                     1893.93
loop_
_atom_site_label
_atom_site_type_symbol
_atom_site_fract_x
_atom_site_fract_y
_atom_site_fract_z
Cl1 Cl 0.15370 0.00410 0.46890
Cl2 Cl 0.25180 -0.23660 0.13600
S1 S 0.36690 -0.12130 0.43950
S2 S 0.33960 0.11870 0.69190
N1 N 0.45400 -0.03900 0.66900
C1 C 0.39200 -0.01100 0.61000
C2 C 0.47400 0.03200 0.81600
C3 C 0.52300 0.16900 0.85800
C4 C 0.50400 -0.14400 0.59600
C5 C 0.48500 -0.29600 0.58700
S3 S 0.19210 -0.28890 -0.39280
S4 S 0.32600 -0.19840 -0.18770
N2 N 0.25500 -0.45800 -0.28300
C6 C 0.25700 -0.32600 -0.28500
C7 C 0.31300 -0.49400 -0.19800
C8 C 0.37600 -0.54100 -0.27600
C9 C 0.19300 -0.56500 -0.35400
C10 C 0.13300 -0.54800 -0.26700
S5 S 0.17200 0.13770 -0.12420
S6 S 0.11630 -0.11080 -0.06730
N3 N 0.03700 0.01500 -0.20400
C11 C 0.10100 0.01000 -0.13900
C12 C 0.02000 0.11400 -0.26800
C13 C -0.00900 0.24800 -0.16200
C14 C -0.02400 -0.09600 -0.22300
C15 C -0.02100 -0.23000 -0.34700
S7 S 0.34590 0.11940 0.13600
S8 S 0.23710 0.22050 0.33080
N4 N 0.28700 0.36700 0.20200
C16 C 0.28800 0.24600 0.21700
C17 C 0.32000 0.39300 0.09900
C18 C 0.39900 0.46600 0.15900
C19 C 0.24400 0.48400 0.28300
C20 C 0.16900 0.47900 0.21700
Hg1 Hg 0.27831 0.01250 0.36395
Hg2 Hg 0.22751 -0.03220 0.67548
Hg3 Hg 0.24803 -0.06940 -0.00289
Hg2_2 Hg 0.22751 -0.03220 -0.32452
Cl1_2 Cl 0.15370 0.00410 -0.53110
S2_2 S 0.33960 0.11870 -0.30810
loop_
_geom_bond_atom_site_label_1
_geom_bond_atom_site_label_2
_geom_bond_site_symmetry_1
_geom_bond_site_symmetry_2
Cl1 Hg1 1_555 1_555
Cl2 Hg1 1_555 1_555
S1 C1 1_555 1_555
S2 C1 1_555 1_555
N1 C1 1_555 1_555
C2 N1 1_555 1_555
C3 C2 1_555 1_555
C4 N1 1_555 1_555
C5 C4 1_555 1_555
S3 C6 1_555 1_555
S4 C6 1_555 1_555
N2 C6 1_555 1_555
C7 N2 1_555 1_555
C8 C7 1_555 1_555
C9 N2 1_555 1_555
C10 C9 1_555 1_555
S5 C11 1_555 1_555
S6 C11 1_555 1_555
N3 C11 1_555 1_555
C12 N3 1_555 1_555
C13 C12 1_555 1_555
C14 N3 1_555 1_555
C15 C14 1_555 1_555
S7 C16 1_555 1_555
S8 C16 1_555 1_555
N4 C16 1_555 1_555
C17 N4 1_555 1_555
C18 C17 1_555 1_555
C19 N4 1_555 1_555
C20 C19 1_555 1_555
Hg1 S1 1_555 1_555
Hg2 Cl1 1_555 1_555
Hg3 Cl2 1_555 1_555
Hg2_2 S3 1_555 1_555
Cl1_2 Hg2_2 1_555 1_555
S2_2 Hg2_2 1_555 1_555
S2 Hg2 1_555 1_555
S4 Hg3 1_555 1_555
S5 Hg2_2 1_555 1_555
S6 Hg3 1_555 1_555
S7 Hg3 1_555 1_555
S8 Hg1 1_555 1_555

#END
