
#######################################################################
#
#                 Cambridge Crystallographic Data Centre
#                                CCDC 
#
#######################################################################
#
# If this CIF has been generated from an entry in the Cambridge 
# Structural Database, then it will include bibliographic, chemical, 
# crystal, experimental, refinement or atomic coordinate data resulting 
# from the CCDC's data processing and validation procedures.
#
#######################################################################

data_CETGAK
_symmetry_cell_setting           monoclinic
_symmetry_space_group_name_H-M   'C 2/c'
_symmetry_Int_Tables_number      15
_space_group_name_Hall           '-C 2yn'
loop_
_symmetry_equiv_pos_site_id
_symmetry_equiv_pos_as_xyz
1 x,y,z
2 1/2+x,1/2+y,z
3 -x,y,1/2-z
4 1/2-x,1/2+y,1/2-z
5 -x,-y,-z
6 1/2-x,1/2-y,-z
7 x,-y,1/2+z
8 1/2+x,1/2-y,1/2+z
_cell_length_a                   20.433(15)
_cell_length_b                   6.762(5)
_cell_length_c                   13.529(12)
_cell_angle_alpha                90
_cell_angle_beta                 122.77(2)
_cell_angle_gamma                90
_cell_volume                     1571.78
loop_
_atom_site_label
_atom_site_type_symbol
_atom_site_fract_x
_atom_site_fract_y
_atom_site_fract_z
U1 U 0.371217(13) 0.59334(3) 0.510194(19)
O1 O 0.2706(2) 0.6116(7) 0.4248(4)
O2 O 0.4719(2) 0.5750(7) 0.5955(4)
N1 N 0.3851(3) 0.8128(7) 0.3739(4)
C1 C 0.3953(5) 1.0043(9) 0.3710(6)
H1 H 0.4019 1.0944 0.4276
N2 N 0.3948(3) 1.0499(7) 0.2749(5)
H2 H 0.4005 1.1669 0.2557
C2 C 0.3840(4) 0.8823(8) 0.2119(5)
C3 C 0.3774(4) 0.9002(9) 0.0991(5)
O3 O 0.3664(3) 0.7481(6) 0.0401(4)
O4 O 0.3823(3) 1.0721(6) 0.0696(4)
C4 C 0.3795(3) 0.7335(8) 0.2773(5)
C5 C 0.3680(4) 0.5200(8) 0.2632(5)
O5 O 0.3667(3) 0.4300(6) 0.1816(4)
O6 O 0.3629(2) 0.4377(5) 0.3424(4)
U1F U 0.371217(13) 0.40666(3) 0.010194(19)
U1F_2 U 0.371217(13) 1.40666(3) 0.010194(19)
O3F O 0.3664(3) 0.2519(6) 0.5401(4)
O4F O 0.3823(3) 0.9279(6) 0.5696(4)
O5F O 0.3667(3) 0.5700(6) 0.6816(4)
loop_
_geom_bond_atom_site_label_1
_geom_bond_atom_site_label_2
_geom_bond_site_symmetry_1
_geom_bond_site_symmetry_2
U1 O1 1_555 1_555
O2 U1 1_555 1_555
N1 U1 1_555 1_555
C1 N1 1_555 1_555
H1 C1 1_555 1_555
N2 C1 1_555 1_555
H2 N2 1_555 1_555
C2 N2 1_555 1_555
C3 C2 1_555 1_555
O3 C3 1_555 1_555
O4 C3 1_555 1_555
C4 N1 1_555 1_555
C5 C4 1_555 1_555
O5 C5 1_555 1_555
O6 U1 1_555 1_555
U1F O3 1_555 1_555
U1F_2 O4 1_555 1_555
O3F U1 1_555 1_555
O4F U1 1_555 1_555
O5F U1 1_555 1_555
C2 C4 1_555 1_555
C5 O6 1_555 1_555
O5 U1F 1_555 1_555

#END
