
#######################################################################
#
#                 Cambridge Crystallographic Data Centre
#                                CCDC 
#
#######################################################################
#
# If this CIF has been generated from an entry in the Cambridge 
# Structural Database, then it will include bibliographic, chemical, 
# crystal, experimental, refinement or atomic coordinate data resulting 
# from the CCDC's data processing and validation procedures.
#
#######################################################################

data_CETHEQ
_symmetry_cell_setting           rhombohedral
_symmetry_space_group_name_H-M   'R 3 m'
_symmetry_Int_Tables_number      160
_space_group_name_Hall           'R 3 -2"'
loop_
_symmetry_equiv_pos_site_id
_symmetry_equiv_pos_as_xyz
1 x,y,z
2 -y,x-y,z
3 -x+y,-x,z
4 -y,-x,z
5 -x+y,y,z
6 x,x-y,z
7 2/3+x,1/3+y,1/3+z
8 2/3-y,1/3+x-y,1/3+z
9 2/3-x+y,1/3-x,1/3+z
10 2/3-y,1/3-x,1/3+z
11 2/3-x+y,1/3+y,1/3+z
12 2/3+x,1/3+x-y,1/3+z
13 1/3+x,2/3+y,2/3+z
14 1/3-y,2/3+x-y,2/3+z
15 1/3-x+y,2/3-x,2/3+z
16 1/3-y,2/3-x,2/3+z
17 1/3-x+y,2/3+y,2/3+z
18 1/3+x,2/3+x-y,2/3+z
_cell_length_a                   24.9131(14)
_cell_length_b                   24.9131(14)
_cell_length_c                   10.8608(12)
_cell_angle_alpha                90
_cell_angle_beta                 90
_cell_angle_gamma                120
_cell_volume                     5837.78
loop_
_atom_site_label
_atom_site_type_symbol
_atom_site_fract_x
_atom_site_fract_y
_atom_site_fract_z
O1 O 0.4692(7) 0.3513(8) 1.1057(12)
Cu1 Cu 0.53150(4) 0.46850(4) 0.73309(13)
Cu2 Cu 0.45478(5) 0.43069(5) 0.99348(8)
O2 O 0.5375(2) 0.4625(2) 0.9130(8)
H1 H 0.5562 0.4438 0.9220
O3 O 0.5048(2) 0.4952(2) 1.1121(9)
C1 C 0.4217(5) 0.3414(4) 0.6678(8)
C2 C 0.4400(5) 0.3404(5) 0.5412(9)
H2 H 0.4762 0.3805 0.5208
H3 H 0.4056 0.3324 0.4860
H4 H 0.4504 0.3076 0.5315
C3 C 0.3754(4) 0.3143(4) 0.8422(9)
C4 C 0.3309(5) 0.2777(5) 0.9449(10)
H5 H 0.3421 0.3032 1.0195
H6 H 0.3334 0.2403 0.9614
H7 H 0.2886 0.2658 0.9203
N1 N 0.4513(3) 0.3887(3) 0.7436(7)
N2 N 0.4211(3) 0.3717(4) 0.8579(7)
N3 N 0.3728(4) 0.2930(3) 0.7274(7)
O4 O 0.5822(3) 0.4178(3) 0.6737(11)
H8 H 0.6189 0.4430 0.6627
O5 O 0.5128(3) 0.4872(3) 0.5687(10)
O6 O 0.4644(5) 0.5356(5) 0.649(3)
C5 C 0.4837(8) 0.5163(8) 0.559(2)
H9 H 0.4752 0.5248 0.4784
H10 H 0.4626 0.3208 1.1505
H11 H 0.5060 0.3673 1.0779
O7 O 0.4730(3) 0.5270(3) 0.8684(16)
H12 H 0.4396 0.5061 0.8273
H8C H 0.5570 0.3811 0.6627
H12C H 0.4939 0.5604 0.8273
O1C O 0.6487(8) 0.5308(7) 1.1057(12)
Cu2C Cu 0.56931(5) 0.54522(5) 0.99348(8)
C1C C 0.6586(4) 0.5783(5) 0.6678(8)
C2C C 0.6596(5) 0.5600(5) 0.5412(9)
H2C H 0.6195 0.5238 0.5208
H3C H 0.6676 0.5944 0.4860
H4C H 0.6924 0.5496 0.5315
C3C C 0.6857(4) 0.6246(4) 0.8422(9)
C4C C 0.7223(5) 0.6691(5) 0.9449(10)
H5C H 0.6968 0.6579 1.0195
H6C H 0.7597 0.6666 0.9614
H7C H 0.7342 0.7114 0.9203
N1C N 0.6113(3) 0.5487(3) 0.7436(7)
N2C N 0.6283(4) 0.5789(3) 0.8579(7)
N3C N 0.7070(3) 0.6272(4) 0.7274(7)
H10C H 0.6792 0.5374 1.1505
H11C H 0.6327 0.4940 1.0779
Cu2N Cu 0.30924(7) 0.21189(5) 0.66015(8)
Cu2Q Cu 0.78811(5) 0.69076(7) 0.66015(8)
N3G N 0.3737(3) 0.4131(5) 1.0607(7)
N3J N 0.5869(5) 0.6263(3) 1.0607(7)
O8 O 0.4428(6) 0.5572(6) 0.220(3)
H13 H 0.4041 0.5408 0.2027
H13C H 0.4592 0.5959 0.2027
loop_
_geom_bond_atom_site_label_1
_geom_bond_atom_site_label_2
_geom_bond_site_symmetry_1
_geom_bond_site_symmetry_2
O1 Cu2 1_555 1_555
Cu1 O2 1_555 1_555
Cu2 O2 1_555 1_555
O2 H1 1_555 1_555
O3 Cu2 1_555 1_555
C1 C2 1_555 1_555
C2 H2 1_555 1_555
H3 C2 1_555 1_555
H4 C2 1_555 1_555
C3 C4 1_555 1_555
C4 H5 1_555 1_555
H6 C4 1_555 1_555
H7 C4 1_555 1_555
N1 Cu1 1_555 1_555
N2 Cu2 1_555 1_555
N3 C1 1_555 1_555
O4 Cu1 1_555 1_555
H8 O4 1_555 1_555
O5 Cu1 1_555 1_555
O6 C5 1_555 1_555
C5 O5 1_555 1_555
H9 C5 1_555 1_555
H10 O1 1_555 1_555
H11 O1 1_555 1_555
O7 Cu2 1_555 1_555
H12 O7 1_555 1_555
O8 H13 1_555 1_555
H8C O4 1_555 1_555
H12C O7 1_555 1_555
O1C Cu2C 1_555 1_555
Cu2C Cu2 1_555 1_555
C1C C2C 1_555 1_555
C2C H2C 1_555 1_555
H3C C2C 1_555 1_555
H4C C2C 1_555 1_555
C3C C4C 1_555 1_555
C4C H5C 1_555 1_555
H6C C4C 1_555 1_555
H7C C4C 1_555 1_555
N1C Cu1 1_555 1_555
N2C Cu2C 1_555 1_555
N3C C1C 1_555 1_555
H10C O1C 1_555 1_555
H11C O1C 1_555 1_555
Cu2N N3 1_555 1_555
Cu2Q N3C 1_555 1_555
N3G Cu2 1_555 1_555
N3J Cu2C 1_555 1_555
H13C O8 1_555 1_555
O2 Cu2C 1_555 1_555
O3 Cu2C 1_555 1_555
C1 N1 1_555 1_555
C3 N2 1_555 1_555
C3 N3 1_555 1_555
N1 N2 1_555 1_555
O7 Cu2C 1_555 1_555
C1C N1C 1_555 1_555
C3C N2C 1_555 1_555
C3C N3C 1_555 1_555
N1C N2C 1_555 1_555

#END
