
#######################################################################
#
#                 Cambridge Crystallographic Data Centre
#                                CCDC 
#
#######################################################################
#
# If this CIF has been generated from an entry in the Cambridge 
# Structural Database, then it will include bibliographic, chemical, 
# crystal, experimental, refinement or atomic coordinate data resulting 
# from the CCDC's data processing and validation procedures.
#
#######################################################################

data_CETPIB
_symmetry_cell_setting           tetragonal
_symmetry_space_group_name_H-M   'P 4/n b m'
_symmetry_Int_Tables_number      125
_space_group_name_Hall           '-P 4a 2b'
loop_
_symmetry_equiv_pos_site_id
_symmetry_equiv_pos_as_xyz
1 x,y,z
2 1/2-y,x,z
3 y,1/2-x,z
4 y,x,-z
5 1/2-x,1/2-y,z
6 1/2-x,y,-z
7 x,1/2-y,-z
8 1/2-y,1/2-x,-z
9 -x,-y,-z
10 1/2+y,-x,-z
11 -y,1/2+x,-z
12 -y,-x,z
13 1/2+x,1/2+y,-z
14 1/2+x,-y,z
15 -x,1/2+y,z
16 1/2+y,1/2+x,z
_cell_length_a                   9.6901(4)
_cell_length_b                   9.6901(4)
_cell_length_c                   6.6193(4)
_cell_angle_alpha                90
_cell_angle_beta                 90
_cell_angle_gamma                90
_cell_volume                     621.539
loop_
_atom_site_label
_atom_site_type_symbol
_atom_site_fract_x
_atom_site_fract_y
_atom_site_fract_z
Cu1 Cu 0.2500 0.2500 0.5000
N1 N 0.1012(3) 0.3988(3) 0.5000
C1 C 0.0930(3) 0.4916(3) 0.3522(4)
H1 H 0.1564 0.4885 0.2469
F2 F 0.2500 0.2500 0.1665(6)
H2 H 0.2500 0.2500 0.0000
Cu1L Cu -0.2500 0.7500 0.5000
Cu1_2 Cu 0.2500 0.2500 -0.5000
Cu1L_2 Cu -0.2500 -0.2500 0.5000
N1O N -0.1012(3) 0.6012(3) 0.5000
N1A N 0.1012(3) 0.1012(3) 0.5000
N1N N -0.1012(3) -0.1012(3) 0.5000
N1B N 0.3988(3) 0.3988(3) 0.5000
N1C N 0.3988(3) 0.1012(3) 0.5000
C1O C -0.0084(3) 0.5930(3) 0.3522(4)
C1H C -0.0930(3) 0.5084(3) 0.6478(4)
C1G C 0.0084(3) 0.4070(3) 0.6478(4)
C1A C 0.0084(3) 0.0930(3) 0.3522(4)
C1N C -0.0930(3) -0.0084(3) 0.3522(4)
C1I C -0.0084(3) -0.0930(3) 0.6478(4)
C1F C 0.0930(3) 0.0084(3) 0.6478(4)
H1G H 0.0115 0.3436 0.7531
H1H H -0.1564 0.5115 0.7531
H1O H -0.0115 0.6564 0.2469
H1A H 0.0115 0.1564 0.2469
H1F H 0.1564 0.0115 0.7531
H1I H -0.0115 -0.1564 0.7531
H1N H -0.1564 -0.0115 0.2469
F2C F 0.2500 0.2500 -0.1665(6)
F2C_2 F 0.2500 0.2500 0.8335(6)
B1 B 0.2500 0.7500 0.0000
F1 F 0.3340(4) 0.6660(4) 0.1056(10)
F1O F 0.1660(4) 0.8340(4) 0.1056(10)
F1I F 0.1660(4) 0.6660(4) -0.1056(10)
F1J F 0.3340(4) 0.8340(4) -0.1056(10)
loop_
_geom_bond_atom_site_label_1
_geom_bond_atom_site_label_2
_geom_bond_site_symmetry_1
_geom_bond_site_symmetry_2
Cu1 N1 1_555 1_555
N1 C1 1_555 1_555
C1 H1 1_555 1_555
B1 F1 1_555 1_555
F2 Cu1 1_555 1_555
H2 F2 1_555 1_555
Cu1L N1O 1_555 1_555
Cu1_2 F2C 1_555 1_555
Cu1L_2 N1N 1_555 1_555
N1O C1O 1_555 1_555
N1A Cu1 1_555 1_555
N1N C1N 1_555 1_555
N1B Cu1 1_555 1_555
N1C Cu1 1_555 1_555
C1O C1 1_555 1_555
C1H N1O 1_555 1_555
C1G N1 1_555 1_555
C1A N1A 1_555 1_555
C1N C1A 1_555 1_555
C1I N1N 1_555 1_555
C1F N1A 1_555 1_555
H1G C1G 1_555 1_555
H1H C1H 1_555 1_555
H1O C1O 1_555 1_555
H1A C1A 1_555 1_555
H1F C1F 1_555 1_555
H1I C1I 1_555 1_555
H1N C1N 1_555 1_555
F1O B1 1_555 1_555
F1I B1 1_555 1_555
F1J B1 1_555 1_555
F2C H2 1_555 1_555
F2C_2 Cu1 1_555 1_555
C1H C1G 1_555 1_555
C1I C1F 1_555 1_555

#END
