
#######################################################################
#
#                 Cambridge Crystallographic Data Centre
#                                CCDC 
#
#######################################################################
#
# If this CIF has been generated from an entry in the Cambridge 
# Structural Database, then it will include bibliographic, chemical, 
# crystal, experimental, refinement or atomic coordinate data resulting 
# from the CCDC's data processing and validation procedures.
#
#######################################################################

data_CEVLAQ
_symmetry_cell_setting           orthorhombic
_symmetry_space_group_name_H-M   'P b c a'
_symmetry_Int_Tables_number      61
_space_group_name_Hall           '-P 2ac 2ab'
loop_
_symmetry_equiv_pos_site_id
_symmetry_equiv_pos_as_xyz
1 x,y,z
2 1/2-x,-y,1/2+z
3 1/2+x,1/2-y,-z
4 -x,1/2+y,1/2-z
5 -x,-y,-z
6 1/2+x,y,1/2-z
7 1/2-x,1/2+y,z
8 x,1/2-y,1/2+z
_cell_length_a                   16.283(3)
_cell_length_b                   9.485(2)
_cell_length_c                   18.115(3)
_cell_angle_alpha                90
_cell_angle_beta                 90
_cell_angle_gamma                90
_cell_volume                     2797.76
loop_
_atom_site_label
_atom_site_type_symbol
_atom_site_fract_x
_atom_site_fract_y
_atom_site_fract_z
Cu1 Cu 0.02840 0.22390 0.16810
S1 S -0.09220 0.28210 0.22940
N1 N 0.05500 0.03750 0.20560
N2 N 0.12370 0.36810 0.15860
N3 N 0.02170 0.26280 0.05540
C1 C -0.06890 0.43470 0.26690
C2 C 0.13560 0.41090 0.08800
C3 C 0.07960 0.35490 0.03370
C4 C 0.08700 0.40070 -0.04120
C5 C 0.15030 0.49620 -0.05950
C6 C 0.20320 0.54600 -0.01050
C7 C 0.19800 0.50550 0.06650
C8 C 0.24800 0.55640 0.12210
C9 C 0.23630 0.51520 0.19180
C10 C 0.17310 0.42250 0.20960
C11 C 0.02850 0.34980 -0.09100
C12 C -0.02870 0.25940 -0.06810
C13 C -0.03040 0.21300 0.00590
C14 C -0.09650 0.10590 0.03320
C15 C 0.15730 0.36960 0.29090
C1C C 0.06890 -0.06530 0.23310
N1C N -0.05500 0.53750 0.29440
S1C S 0.09220 -0.21790 0.27060
Cu1C Cu -0.02840 0.72390 0.33190
Cu1C_2 Cu -0.02840 -0.27610 0.33190
S1C_2 S 0.09220 0.78210 0.27060
N2C N -0.12370 0.86810 0.34140
N3C N -0.02170 0.76280 0.44460
C2C C -0.13560 0.91090 0.41200
C10C C -0.17310 0.92250 0.29040
C3C C -0.07960 0.85490 0.46630
C13C C 0.03040 0.71300 0.49410
C7C C -0.19800 1.00550 0.43350
C9C C -0.23630 1.01520 0.30820
C15C C -0.15730 0.86960 0.20910
C4C C -0.08700 0.90070 0.54120
C12C C 0.02870 0.75940 0.56810
C14C C 0.09650 0.60590 0.46680
C6C C -0.20320 1.04600 0.51050
C8C C -0.24800 1.05640 0.37790
C5C C -0.15030 0.99620 0.55950
C11C C -0.02850 0.84980 0.59100
loop_
_geom_bond_atom_site_label_1
_geom_bond_atom_site_label_2
_geom_bond_site_symmetry_1
_geom_bond_site_symmetry_2
Cu1 S1 1_555 1_555
S1 C1 1_555 1_555
N1 Cu1 1_555 1_555
N2 Cu1 1_555 1_555
N3 Cu1 1_555 1_555
C1 N1C 1_555 1_555
C2 N2 1_555 1_555
C3 N3 1_555 1_555
C4 C3 1_555 1_555
C5 C4 1_555 1_555
C6 C5 1_555 1_555
C7 C2 1_555 1_555
C8 C7 1_555 1_555
C9 C8 1_555 1_555
C10 N2 1_555 1_555
C11 C4 1_555 1_555
C12 C11 1_555 1_555
C13 N3 1_555 1_555
C14 C13 1_555 1_555
C15 C10 1_555 1_555
C1C N1 1_555 1_555
N1C Cu1C 1_555 1_555
S1C C1C 1_555 1_555
Cu1C S1C_2 1_555 1_555
Cu1C_2 S1C 1_555 1_555
N2C Cu1C 1_555 1_555
N3C Cu1C 1_555 1_555
C2C N2C 1_555 1_555
C10C N2C 1_555 1_555
C3C N3C 1_555 1_555
C13C N3C 1_555 1_555
C7C C2C 1_555 1_555
C9C C10C 1_555 1_555
C15C C10C 1_555 1_555
C4C C3C 1_555 1_555
C12C C13C 1_555 1_555
C14C C13C 1_555 1_555
C6C C7C 1_555 1_555
C8C C7C 1_555 1_555
C5C C4C 1_555 1_555
C11C C4C 1_555 1_555
C2 C3 1_555 1_555
C6 C7 1_555 1_555
C9 C10 1_555 1_555
C12 C13 1_555 1_555
C2C C3C 1_555 1_555
C9C C8C 1_555 1_555
C12C C11C 1_555 1_555
C6C C5C 1_555 1_555

#END
