
#######################################################################
#
#                 Cambridge Crystallographic Data Centre
#                                CCDC 
#
#######################################################################
#
# If this CIF has been generated from an entry in the Cambridge 
# Structural Database, then it will include bibliographic, chemical, 
# crystal, experimental, refinement or atomic coordinate data resulting 
# from the CCDC's data processing and validation procedures.
#
#######################################################################

data_CEVPUP
_symmetry_cell_setting           monoclinic
_symmetry_space_group_name_H-M   'P 21/c'
_symmetry_Int_Tables_number      14
_space_group_name_Hall           '-P 2ybc'
loop_
_symmetry_equiv_pos_site_id
_symmetry_equiv_pos_as_xyz
1 x,y,z
2 -x,1/2+y,1/2-z
3 -x,-y,-z
4 x,1/2-y,1/2+z
_cell_length_a                   13.8742(13)
_cell_length_b                   12.7193(12)
_cell_length_c                   10.4184(10)
_cell_angle_alpha                90
_cell_angle_beta                 92.106(2)
_cell_angle_gamma                90
_cell_volume                     1837.29
loop_
_atom_site_label
_atom_site_type_symbol
_atom_site_fract_x
_atom_site_fract_y
_atom_site_fract_z
C1 C 0.3523(2) -0.4338(3) -0.4771(3)
H1 H 0.3520 -0.4801 -0.5462
C2 C 0.4233(3) -0.4391(3) -0.3809(4)
H2 H 0.4710 -0.4901 -0.3851
C3 C 0.2819(3) -0.3584(3) -0.4680(4)
N1 N 0.2016(2) -0.3341(2) -0.5457(3)
Cd1 Cd 0.166290(19) -0.39818(2) -0.73937(3)
N2 N 0.2045(2) -0.2208(2) -0.3789(3)
C4 C 0.1582(3) -0.2521(3) -0.4890(4)
C5 C -0.3001(2) -0.4082(3) -0.1507(3)
C6 C 0.3552(3) -0.2920(3) -0.2677(4)
H3 H 0.3563 -0.2451 -0.1992
C7 C 0.2836(2) -0.2871(3) -0.3635(3)
N3 N 0.0191(2) -0.4556(3) -0.7679(3)
N4 N -0.2383(2) -0.4453(2) -0.2432(3)
C8 C -0.4053(3) -0.4006(4) 0.0206(4)
H4 H -0.4382 -0.4335 0.0855
C9 C -0.2123(3) -0.3621(3) -0.3102(4)
C10 C -0.3107(3) -0.2998(3) -0.1668(4)
C11 C -0.1510(3) -0.3631(3) -0.4257(4)
H5 H -0.1297 -0.4346 -0.4404
H6 H -0.1904 -0.3418 -0.5001
C12 C 0.0686(2) -0.2038(3) -0.5414(3)
H7 H 0.0574 -0.1397 -0.4938
H8 H 0.0788 -0.1839 -0.6297
C13 C -0.3473(3) -0.4600(4) -0.0553(4)
H9 H -0.3402 -0.5321 -0.0427
C14 C -0.3697(3) -0.2402(4) -0.0896(4)
H10 H -0.3769 -0.1681 -0.1012
N5 N -0.2529(2) -0.2735(3) -0.2676(3)
H11 H -0.2445 -0.2113 -0.2977
C15 C 0.4249(3) -0.3690(3) -0.2772(4)
H12 H 0.4735 -0.3743 -0.2138
C16 C -0.4163(3) -0.2923(4) 0.0033(4)
H13 H -0.4564 -0.2552 0.0567
C17 C -0.0222(3) -0.2698(4) -0.5392(4)
H14 H -0.0091 -0.3370 -0.5791
H15 H -0.0718 -0.2352 -0.5917
C18 C -0.0601(3) -0.2897(4) -0.4144(4)
H16 H -0.0108 -0.3227 -0.3596
H17 H -0.0776 -0.2236 -0.3752
S1 S -0.17918(8) -0.48248(10) -0.78931(14)
C19 C -0.0633(3) -0.4667(3) -0.7772(4)
Cd1B Cd -0.166290(19) -0.60182(2) -0.26063(3)
Cd1C Cd 0.166290(19) -0.10182(2) -0.23937(3)
N2C N 0.2045(2) -0.2792(2) -0.8789(3)
N4B N 0.2383(2) -0.5547(2) -0.7568(3)
loop_
_geom_bond_atom_site_label_1
_geom_bond_atom_site_label_2
_geom_bond_site_symmetry_1
_geom_bond_site_symmetry_2
C1 H1 1_555 1_555
C2 C1 1_555 1_555
H2 C2 1_555 1_555
C3 C1 1_555 1_555
N1 C3 1_555 1_555
Cd1 N1 1_555 1_555
N2 C4 1_555 1_555
C4 N1 1_555 1_555
C5 N4 1_555 1_555
C6 H3 1_555 1_555
C7 C3 1_555 1_555
N3 Cd1 1_555 1_555
N4 C9 1_555 1_555
C8 H4 1_555 1_555
C9 C11 1_555 1_555
C10 C5 1_555 1_555
C11 H5 1_555 1_555
H6 C11 1_555 1_555
C12 C4 1_555 1_555
H7 C12 1_555 1_555
H8 C12 1_555 1_555
C13 C5 1_555 1_555
H9 C13 1_555 1_555
C14 C10 1_555 1_555
H10 C14 1_555 1_555
N5 C9 1_555 1_555
H11 N5 1_555 1_555
C15 C2 1_555 1_555
H12 C15 1_555 1_555
C16 C8 1_555 1_555
H13 C16 1_555 1_555
C17 C12 1_555 1_555
H14 C17 1_555 1_555
H15 C17 1_555 1_555
C18 C11 1_555 1_555
H16 C18 1_555 1_555
H17 C18 1_555 1_555
S1 C19 1_555 1_555
C19 N3 1_555 1_555
Cd1B N4 1_555 1_555
Cd1C N2 1_555 1_555
N2C Cd1 1_555 1_555
N4B Cd1 1_555 1_555
N2 C7 1_555 1_555
C6 C7 1_555 1_555
C6 C15 1_555 1_555
C8 C13 1_555 1_555
C10 N5 1_555 1_555
C14 C16 1_555 1_555
C17 C18 1_555 1_555

#END
