
#######################################################################
#
#                 Cambridge Crystallographic Data Centre
#                                CCDC 
#
#######################################################################
#
# If this CIF has been generated from an entry in the Cambridge 
# Structural Database, then it will include bibliographic, chemical, 
# crystal, experimental, refinement or atomic coordinate data resulting 
# from the CCDC's data processing and validation procedures.
#
#######################################################################

data_CEVQIE
_symmetry_cell_setting           orthorhombic
_symmetry_space_group_name_H-M   'P 21 21 21'
_symmetry_Int_Tables_number      19
_space_group_name_Hall           'P 2ac 2ab'
loop_
_symmetry_equiv_pos_site_id
_symmetry_equiv_pos_as_xyz
1 x,y,z
2 1/2-x,-y,1/2+z
3 -x,1/2+y,1/2-z
4 1/2+x,1/2-y,-z
_cell_length_a                   6.8056(4)
_cell_length_b                   7.1840(7)
_cell_length_c                   19.3412(12)
_cell_angle_alpha                90
_cell_angle_beta                 90
_cell_angle_gamma                90
_cell_volume                     945.619
loop_
_atom_site_label
_atom_site_type_symbol
_atom_site_fract_x
_atom_site_fract_y
_atom_site_fract_z
C1 C -0.1646(11) -0.0726(10) 0.0590(3)
H1 H -0.0619 -0.1434 0.0768
N1 N -0.2668(8) 0.0366(8) 0.1025(3)
C2 C -0.2049(10) -0.0849(10) -0.0108(3)
H2 H -0.1328 -0.1644 -0.0390
C3 C -0.4168(10) 0.1323(10) 0.0768(3)
H3 H -0.4925 0.2041 0.1067
C4 C -0.3546(9) 0.0232(8) -0.0382(3)
C5 C -0.4649(10) 0.1290(10) 0.0072(3)
H4 H -0.5710 0.1979 -0.0090
C6 C -0.3936(9) 0.0390(8) -0.1141(3)
O1 O -0.3516(7) -0.0978(6) -0.1530(2)
O2 O -0.4684(7) 0.1902(6) -0.1339(2)
Nd1 Nd -0.11957(4) 0.14017(4) 0.224140(14)
Cr1 Cr 0.32783(13) 0.12029(12) 0.27822(5)
O3 O 0.5316(6) 0.1535(7) 0.2353(2)
O4 O 0.3742(7) 0.0577(7) 0.3551(2)
O5 O 0.1817(6) -0.0418(6) 0.2394(2)
O6 O 0.1807(6) 0.3068(5) 0.2768(2)
O1A O -0.1484(7) 0.0978(6) 0.3470(2)
O2C O 0.0316(7) 0.3098(6) 0.1339(2)
Nd1C Nd -0.61957(4) 0.35983(4) -0.224140(14)
Nd1B Nd 0.11957(4) -0.35983(4) 0.275860(14)
Nd1_2 Nd 0.88043(4) 0.14017(4) 0.224140(14)
Nd1B_2 Nd 0.11957(4) 0.64017(4) 0.275860(14)
Nd1A Nd -0.38043(4) -0.14017(4) -0.275860(14)
O3_2 O -0.4684(6) 0.1535(7) 0.2353(2)
O5B O -0.1817(6) 0.4582(6) 0.2606(2)
O6B O -0.1807(6) -0.1932(5) 0.2232(2)
loop_
_geom_bond_atom_site_label_1
_geom_bond_atom_site_label_2
_geom_bond_site_symmetry_1
_geom_bond_site_symmetry_2
C1 H1 1_555 1_555
N1 C1 1_555 1_555
C2 C1 1_555 1_555
H2 C2 1_555 1_555
C3 N1 1_555 1_555
H3 C3 1_555 1_555
C4 C2 1_555 1_555
C5 C3 1_555 1_555
H4 C5 1_555 1_555
C6 C4 1_555 1_555
O1 C6 1_555 1_555
O2 C6 1_555 1_555
Nd1 N1 1_555 1_555
Cr1 O3 1_555 1_555
O3 Nd1_2 1_555 1_555
O4 Cr1 1_555 1_555
O5 Nd1 1_555 1_555
O6 Nd1 1_555 1_555
O1A Nd1 1_555 1_555
O2C Nd1 1_555 1_555
Nd1C O2 1_555 1_555
Nd1B O5 1_555 1_555
Nd1B_2 O6 1_555 1_555
Nd1A O1 1_555 1_555
O3_2 Nd1 1_555 1_555
O5B Nd1 1_555 1_555
O6B Nd1 1_555 1_555
C4 C5 1_555 1_555
Cr1 O5 1_555 1_555
Cr1 O6 1_555 1_555
Nd1B O6B 1_555 1_555
Nd1B_2 O5B 1_555 1_555

#END
