
#######################################################################
#
#                 Cambridge Crystallographic Data Centre
#                                CCDC 
#
#######################################################################
#
# If this CIF has been generated from an entry in the Cambridge 
# Structural Database, then it will include bibliographic, chemical, 
# crystal, experimental, refinement or atomic coordinate data resulting 
# from the CCDC's data processing and validation procedures.
#
#######################################################################

data_CEVVIJ
_symmetry_cell_setting           triclinic
_symmetry_space_group_name_H-M   'P -1'
_symmetry_Int_Tables_number      2
_space_group_name_Hall           '-P 1'
loop_
_symmetry_equiv_pos_site_id
_symmetry_equiv_pos_as_xyz
1 x,y,z
2 -x,-y,-z
_cell_length_a                   6.2355(17)
_cell_length_b                   7.740(2)
_cell_length_c                   14.117(4)
_cell_angle_alpha                77.720(5)
_cell_angle_beta                 81.673(5)
_cell_angle_gamma                79.000(5)
_cell_volume                     649.635
loop_
_atom_site_label
_atom_site_type_symbol
_atom_site_fract_x
_atom_site_fract_y
_atom_site_fract_z
Br1 Br 1.52045(8) 1.25764(7) 0.13042(4)
C1 C 0.8575(8) 0.8445(6) 0.3592(4)
H1 H 0.7368 0.7995 0.3486
C2 C 0.9030(9) 1.0053(7) 0.3040(4)
H2 H 0.8132 1.0655 0.2561
C3 C 1.1914(8) 0.9864(6) 0.3886(4)
H3 H 1.3062 1.0348 0.4025
C4 C 1.1517(8) 0.8225(6) 0.4430(4)
C5 C 1.2896(8) 0.7150(6) 0.5200(4)
C6 C 1.0637(8) 1.6110(6) 0.0770(3)
H4 H 1.2077 1.5760 0.0515
C7 C 0.9398(8) 1.7574(7) 0.0257(4)
H5 H 1.0010 1.8189 -0.0328
C8 C 0.6509(8) 1.7210(6) 0.1440(4)
C9 C 0.7778(8) 1.5753(7) 0.1953(4)
H6 H 0.7167 1.5164 0.2545
C10 C 0.4139(8) 1.7814(7) 0.1751(4)
Mn1 Mn 1.0000 0.5000 0.5000
Mn2 Mn 1.16637(12) 1.29703(10) 0.23246(6)
Mn3 Mn 0.5000 2.0000 0.0000
N1 N 0.9828(6) 0.7534(5) 0.4268(3)
N2 N 1.0736(7) 1.0785(5) 0.3172(3)
N3 N 0.9871(6) 1.5150(5) 0.1627(3)
N4 N 0.7333(7) 1.8115(5) 0.0592(3)
O1 O 1.2417(6) 0.5583(4) 0.5553(2)
O2 O 1.4293(6) 0.7803(5) 0.5450(3)
O3 O 0.3281(6) 1.7182(5) 0.2540(3)
O4 O 0.3107(5) 1.8950(4) 0.1092(2)
O5 O 1.2418(6) 0.4092(4) 0.3602(2)
H7 H 1.3578 0.3198 0.3890
Br1A Br 0.47955(8) -0.25764(7) 0.86958(4)
C1A C 1.1425(8) 0.1555(6) 0.6408(4)
H1A H 1.2632 0.2005 0.6514
C2A C 1.0970(9) -0.0053(7) 0.6960(4)
H2A H 1.1868 -0.0655 0.7439
C3A C 0.8086(8) 0.0136(6) 0.6114(4)
H3A H 0.6938 -0.0348 0.5975
C4A C 0.8483(8) 0.1775(6) 0.5570(4)
C5A C 0.7104(8) 0.2850(6) 0.4800(4)
C6A C 0.9363(8) -0.6110(6) 0.9230(3)
H4A H 0.7923 -0.5760 0.9485
C7A C 1.0602(8) -0.7574(7) 0.9743(4)
H5A H 0.9990 -0.8189 1.0328
C8A C 1.3491(8) -0.7210(6) 0.8560(4)
C9A C 1.2222(8) -0.5753(7) 0.8047(4)
H6A H 1.2833 -0.5164 0.7455
C10A C 1.5861(8) -0.7814(7) 0.8249(4)
Mn2A Mn 0.83363(12) -0.29703(10) 0.76754(6)
Mn2_2 Mn 1.16637(12) 0.29703(10) 0.23246(6)
Mn2A_2 Mn 0.83363(12) 0.70297(10) 0.76754(6)
Mn3_2 Mn 1.5000 -1.0000 1.0000
N1A N 1.0172(6) 0.2466(5) 0.5732(3)
N2A N 0.9264(7) -0.0785(5) 0.6828(3)
N3A N 1.0129(6) -0.5150(5) 0.8373(3)
N4A N 1.2667(7) -0.8115(5) 0.9408(3)
N4A_2 N 0.2667(7) 2.1885(5) -0.0592(3)
O1A O 0.7583(6) 0.4417(4) 0.4447(2)
O2A O 0.5707(6) 0.2197(5) 0.4550(3)
O3A O 1.6719(6) -0.7182(5) 0.7460(3)
O4A O 1.6893(5) -0.8950(4) 0.8908(2)
O4A_2 O 0.6893(5) 2.1050(4) -0.1092(2)
O5A O 0.7582(6) 0.5908(4) 0.6398(2)
O5_2 O 1.2418(6) 1.4092(4) 0.3602(2)
O5A_2 O 0.7582(6) -0.4092(4) 0.6398(2)
H7A H 0.6422 0.6802 0.6110
H7_2 H 1.3578 1.3198 0.3890
H7A_2 H 0.6422 -0.3198 0.6110
loop_
_geom_bond_atom_site_label_1
_geom_bond_atom_site_label_2
_geom_bond_site_symmetry_1
_geom_bond_site_symmetry_2
Br1 Mn2 1_555 1_555
C1 H1 1_555 1_555
C2 C1 1_555 1_555
H2 C2 1_555 1_555
C3 H3 1_555 1_555
C4 C3 1_555 1_555
C5 C4 1_555 1_555
C6 H4 1_555 1_555
C7 C6 1_555 1_555
H5 C7 1_555 1_555
C8 C9 1_555 1_555
C9 H6 1_555 1_555
C10 C8 1_555 1_555
Mn1 N1 1_555 1_555
Mn2 N2 1_555 1_555
Mn3 N4 1_555 1_555
N1 C1 1_555 1_555
N2 C2 1_555 1_555
N3 C6 1_555 1_555
N4 C7 1_555 1_555
O1 C5 1_555 1_555
O2 C5 1_555 1_555
O3 C10 1_555 1_555
O4 C10 1_555 1_555
O5 Mn1 1_555 1_555
H7 O5 1_555 1_555
Br1A Mn2A 1_555 1_555
C1A H1A 1_555 1_555
C2A C1A 1_555 1_555
H2A C2A 1_555 1_555
C3A H3A 1_555 1_555
C4A C3A 1_555 1_555
C5A C4A 1_555 1_555
C6A H4A 1_555 1_555
C7A C6A 1_555 1_555
H5A C7A 1_555 1_555
C8A C9A 1_555 1_555
C9A H6A 1_555 1_555
C10A C8A 1_555 1_555
Mn2A N2A 1_555 1_555
Mn2_2 O5 1_555 1_555
Mn2A_2 O5A 1_555 1_555
Mn3_2 N4A 1_555 1_555
N1A Mn1 1_555 1_555
N2A C2A 1_555 1_555
N3A C6A 1_555 1_555
N4A C7A 1_555 1_555
N4A_2 Mn3 1_555 1_555
O1A Mn1 1_555 1_555
O2A C5A 1_555 1_555
O3A C10A 1_555 1_555
O4A C10A 1_555 1_555
O4A_2 Mn3 1_555 1_555
O5A Mn1 1_555 1_555
O5_2 Mn2 1_555 1_555
O5A_2 Mn2A 1_555 1_555
H7A O5A 1_555 1_555
H7_2 O5_2 1_555 1_555
H7A_2 O5A_2 1_555 1_555
C3 N2 1_555 1_555
C4 N1 1_555 1_555
C8 N4 1_555 1_555
C9 N3 1_555 1_555
Mn1 O1 1_555 1_555
Mn2 N3 1_555 1_555
Mn3 O4 1_555 1_555
C1A N1A 1_555 1_555
C3A N2A 1_555 1_555
C4A N1A 1_555 1_555
C5A O1A 1_555 1_555
C8A N4A 1_555 1_555
C9A N3A 1_555 1_555
Mn2A N3A 1_555 1_555
Mn3_2 O4A 1_555 1_555

#END
