
#######################################################################
#
#                 Cambridge Crystallographic Data Centre
#                                CCDC 
#
#######################################################################
#
# If this CIF has been generated from an entry in the Cambridge 
# Structural Database, then it will include bibliographic, chemical, 
# crystal, experimental, refinement or atomic coordinate data resulting 
# from the CCDC's data processing and validation procedures.
#
#######################################################################

data_CEVYIM01
_symmetry_cell_setting           monoclinic
_symmetry_space_group_name_H-M   'P 21/c'
_symmetry_Int_Tables_number      14
_space_group_name_Hall           '-P 2ybc'
loop_
_symmetry_equiv_pos_site_id
_symmetry_equiv_pos_as_xyz
1 x,y,z
2 -x,1/2+y,1/2-z
3 -x,-y,-z
4 x,1/2-y,1/2+z
_cell_length_a                   7.0611(5)
_cell_length_b                   19.9516(14)
_cell_length_c                   11.7724(8)
_cell_angle_alpha                90
_cell_angle_beta                 92.5430(10)
_cell_angle_gamma                90
_cell_volume                     1656.87
loop_
_atom_site_label
_atom_site_type_symbol
_atom_site_fract_x
_atom_site_fract_y
_atom_site_fract_z
Zn1 Zn 0.77501(8) 0.15677(2) 0.41058(4)
C1 C 0.0760(6) 0.2569(2) 0.3863(3)
H1 H 0.0055 0.2986 0.3967
C2 C 0.0193(7) 0.2297(2) 0.2678(4)
C3 C 0.2835(6) 0.2730(2) 0.4023(4)
H2 H 0.3130 0.3081 0.3489
H3 H 0.3053 0.2912 0.4782
C4 C 0.4212(7) 0.2165(3) 0.3877(4)
C5 C 0.8131(7) 0.0275(2) 0.2771(4)
H4 H 0.8317 0.0557 0.2158
C6 C 0.8192(8) -0.0408(3) 0.2597(5)
H5 H 0.8393 -0.0583 0.1880
C7 C 0.7944(8) -0.0824(2) 0.3515(5)
H6 H 0.7991 -0.1287 0.3428
C8 C 0.7631(7) -0.0549(2) 0.4554(4)
H7 H 0.7467 -0.0824 0.5180
C9 C 0.7559(6) 0.0146(2) 0.4670(4)
C10 C 0.7255(6) 0.0486(2) 0.5763(4)
C11 C 0.6949(7) 0.0153(3) 0.6764(4)
H8 H 0.6907 -0.0313 0.6783
C12 C 0.6708(8) 0.0518(3) 0.7728(4)
H9 H 0.6530 0.0300 0.8414
C13 C 0.6727(8) 0.1204(3) 0.7692(4)
H10 H 0.6559 0.1458 0.8342
C14 C 0.6999(7) 0.1503(2) 0.6673(4)
H11 H 0.6997 0.1968 0.6639
O1 O 0.0158(4) 0.21008(15) 0.4694(2)
O2 O -0.1047(5) 0.18417(16) 0.2627(3)
O3 O 0.0892(5) 0.25636(16) 0.1858(3)
O4 O 0.5917(5) 0.23082(18) 0.4190(4)
O5 O 0.3706(6) 0.16214(17) 0.3477(3)
N1 N 0.7818(5) 0.05476(18) 0.3777(3)
N2 N 0.7270(5) 0.11575(18) 0.5714(3)
H12 H 0.032(10) 0.229(3) 0.534(3)
Zn1_2 Zn -0.22499(8) 0.15677(2) 0.41058(4)
O1_2 O 1.0158(4) 0.21008(15) 0.4694(2)
O2_2 O 0.8953(5) 0.18417(16) 0.2627(3)
O6 O -0.2737(8) 0.1525(2) 0.0536(3)
H13 H -0.234(10) 0.160(3) 0.121(2)
H14 H -0.346(9) 0.119(2) 0.050(5)
O7 O 0.3691(8) 0.1048(3) 0.1259(4)
H15 H 0.340(8) 0.118(3) 0.192(3)
H16 H 0.482(4) 0.117(4) 0.114(5)
O8 O 0.0422(7) 0.0695(3) 0.0060(4)
H17 H 0.039(9) 0.0279(8) 0.019(6)
H18 H -0.058(6) 0.088(3) 0.027(6)
loop_
_geom_bond_atom_site_label_1
_geom_bond_atom_site_label_2
_geom_bond_site_symmetry_1
_geom_bond_site_symmetry_2
Zn1 O4 1_555 1_555
C1 H1 1_555 1_555
C2 C1 1_555 1_555
C3 C1 1_555 1_555
H2 C3 1_555 1_555
H3 C3 1_555 1_555
C4 C3 1_555 1_555
C5 H4 1_555 1_555
C6 C5 1_555 1_555
H5 C6 1_555 1_555
C7 C6 1_555 1_555
H6 C7 1_555 1_555
C8 C7 1_555 1_555
H7 C8 1_555 1_555
C9 C8 1_555 1_555
C10 C9 1_555 1_555
C11 C10 1_555 1_555
H8 C11 1_555 1_555
C12 C11 1_555 1_555
H9 C12 1_555 1_555
C13 C12 1_555 1_555
H10 C13 1_555 1_555
C14 C13 1_555 1_555
H11 C14 1_555 1_555
O1 C1 1_555 1_555
O2 C2 1_555 1_555
O3 C2 1_555 1_555
O4 C4 1_555 1_555
O5 C4 1_555 1_555
N1 Zn1 1_555 1_555
N2 Zn1 1_555 1_555
H12 O1 1_555 1_555
O6 H13 1_555 1_555
H14 O6 1_555 1_555
O7 H15 1_555 1_555
H16 O7 1_555 1_555
O8 H17 1_555 1_555
H18 O8 1_555 1_555
Zn1_2 O1 1_555 1_555
O1_2 Zn1 1_555 1_555
O2_2 Zn1 1_555 1_555
C5 N1 1_555 1_555
C9 N1 1_555 1_555
C10 N2 1_555 1_555
C14 N2 1_555 1_555
O2 Zn1_2 1_555 1_555

#END
