
#######################################################################
#
#                 Cambridge Crystallographic Data Centre
#                                CCDC 
#
#######################################################################
#
# If this CIF has been generated from an entry in the Cambridge 
# Structural Database, then it will include bibliographic, chemical, 
# crystal, experimental, refinement or atomic coordinate data resulting 
# from the CCDC's data processing and validation procedures.
#
#######################################################################

data_CEVYIL01
_symmetry_cell_setting           monoclinic
_symmetry_space_group_name_H-M   'P 21/c'
_symmetry_Int_Tables_number      14
_space_group_name_Hall           '-P 2ybc'
loop_
_symmetry_equiv_pos_site_id
_symmetry_equiv_pos_as_xyz
1 x,y,z
2 -x,1/2+y,1/2-z
3 -x,-y,-z
4 x,1/2-y,1/2+z
_cell_length_a                   8.410(1)
_cell_length_b                   12.676(2)
_cell_length_c                   17.216(2)
_cell_angle_alpha                90
_cell_angle_beta                 95.20(1)
_cell_angle_gamma                90
_cell_volume                     1827.76
loop_
_atom_site_label
_atom_site_type_symbol
_atom_site_fract_x
_atom_site_fract_y
_atom_site_fract_z
Cu1 Cu 0.15347(6) 0.53577(4) 0.21595(3)
Cu2 Cu -0.41191(6) 0.29040(4) 0.18602(3)
O1 O -0.2977(3) 0.4024(2) 0.24890(18)
O2 O -0.0896(4) 0.4322(3) 0.1795(2)
O3 O 0.1753(4) 0.4640(3) 0.31660(17)
O4 O 0.1381(4) 0.4396(3) 0.44032(18)
O5 O 0.3456(3) 0.6861(2) 0.23396(17)
O6 O 0.5262(4) 0.7388(3) 0.1550(2)
O7 O 0.3279(4) 0.4482(2) 0.18196(17)
O8 O 0.5180(3) 0.3983(2) 0.10962(17)
N1 N -0.0266(4) 0.6225(3) 0.2478(2)
H1 H 0.0126 0.6693 0.2849
N2 N 0.1371(4) 0.6224(3) 0.1190(2)
H2 H 0.0853 0.5843 0.0796
C1 C -0.1411(5) 0.5519(3) 0.2827(2)
H3 H -0.2410 0.5907 0.2863
C2 C -0.1772(5) 0.4543(3) 0.2311(2)
C3 C -0.0748(5) 0.5213(4) 0.3646(2)
H4 H -0.1491 0.4725 0.3853
H5 H -0.0721 0.5842 0.3968
C4 C 0.0907(5) 0.4712(3) 0.3738(2)
C5 C 0.2980(5) 0.6482(3) 0.0978(2)
H6 H 0.2881 0.7009 0.0560
C6 C 0.3997(5) 0.6951(3) 0.1675(2)
C7 C 0.3779(5) 0.5506(3) 0.0677(2)
H7 H 0.3118 0.5245 0.0227
H8 H 0.4793 0.5718 0.0499
C8 C 0.4087(5) 0.4603(3) 0.1247(2)
C9 C -0.0966(5) 0.6826(4) 0.1790(3)
H9 H -0.1550 0.7432 0.1957
H10 H -0.1696 0.6382 0.1467
C10 C 0.0392(5) 0.7177(3) 0.1340(3)
H11 H -0.0019 0.7497 0.0850
H12 H 0.1041 0.7695 0.1638
O9 O -0.5587(4) 0.1896(2) 0.13100(18)
H13 H -0.5315 0.1258 0.1396
H14 H -0.5875 0.2103 0.0849
O10 O -0.1992(4) 0.2334(3) 0.1194(2)
H15 H -0.2184 0.2101 0.0732
H16 H -0.1482 0.2894 0.1106
Cu2A Cu 0.41191(6) 0.79040(4) 0.31398(3)
Cu2_2 Cu 0.58809(6) 0.29040(4) 0.18602(3)
O5A O -0.3456(3) 0.1861(2) 0.26604(17)
O8_2 O -0.4820(3) 0.3983(2) 0.10962(17)
O11 O -0.5027(4) 0.9811(3) 0.13862(19)
H17 H -0.5558 0.9491 0.1711
H18 H -0.4032 0.9677 0.1424
O12 O 0.6782(4) 0.7302(3) 0.51833(19)
H19 H 0.6287 0.7454 0.5578
H20 H 0.7144 0.6693 0.5307
O13 O 0.3074(5) 0.8864(3) 0.0079(2)
H21 H 0.3894 0.9065 0.0366
H22 H 0.2616 0.9413 -0.0117
O14 O 0.9250(6) 0.8683(4) 0.4631(3)
H23 H 0.8593 0.8185 0.4685
H24 H 0.8630 0.9108 0.4369
loop_
_geom_bond_atom_site_label_1
_geom_bond_atom_site_label_2
_geom_bond_site_symmetry_1
_geom_bond_site_symmetry_2
Cu1 O2 1_555 1_555
Cu2 O1 1_555 1_555
O1 C2 1_555 1_555
O2 C2 1_555 1_555
O3 Cu1 1_555 1_555
O4 C4 1_555 1_555
O5 Cu1 1_555 1_555
O6 C6 1_555 1_555
O7 Cu1 1_555 1_555
O8 C8 1_555 1_555
N1 Cu1 1_555 1_555
H1 N1 1_555 1_555
N2 Cu1 1_555 1_555
H2 N2 1_555 1_555
C1 N1 1_555 1_555
H3 C1 1_555 1_555
C2 C1 1_555 1_555
C3 C1 1_555 1_555
H4 C3 1_555 1_555
H5 C3 1_555 1_555
C4 O3 1_555 1_555
C5 N2 1_555 1_555
H6 C5 1_555 1_555
C6 O5 1_555 1_555
C7 C5 1_555 1_555
H7 C7 1_555 1_555
H8 C7 1_555 1_555
C8 O7 1_555 1_555
C9 N1 1_555 1_555
H9 C9 1_555 1_555
H10 C9 1_555 1_555
C10 N2 1_555 1_555
H11 C10 1_555 1_555
H12 C10 1_555 1_555
O9 Cu2 1_555 1_555
H13 O9 1_555 1_555
H14 O9 1_555 1_555
O10 Cu2 1_555 1_555
H15 O10 1_555 1_555
H16 O10 1_555 1_555
O11 H17 1_555 1_555
H18 O11 1_555 1_555
O12 H19 1_555 1_555
H20 O12 1_555 1_555
O13 H21 1_555 1_555
H22 O13 1_555 1_555
O14 H23 1_555 1_555
H24 O14 1_555 1_555
Cu2A O5 1_555 1_555
Cu2_2 O8 1_555 1_555
O5A Cu2 1_555 1_555
O8_2 Cu2 1_555 1_555
C3 C4 1_555 1_555
C5 C6 1_555 1_555
C7 C8 1_555 1_555
C9 C10 1_555 1_555

#END
