
#######################################################################
#
#                 Cambridge Crystallographic Data Centre
#                                CCDC 
#
#######################################################################
#
# If this CIF has been generated from an entry in the Cambridge 
# Structural Database, then it will include bibliographic, chemical, 
# crystal, experimental, refinement or atomic coordinate data resulting 
# from the CCDC's data processing and validation procedures.
#
#######################################################################

data_CEWDOZ
_symmetry_cell_setting           monoclinic
_symmetry_space_group_name_H-M   'P 21/c'
_symmetry_Int_Tables_number      14
_space_group_name_Hall           '-P 2ybc'
loop_
_symmetry_equiv_pos_site_id
_symmetry_equiv_pos_as_xyz
1 x,y,z
2 -x,1/2+y,1/2-z
3 -x,-y,-z
4 x,1/2-y,1/2+z
_cell_length_a                   15.788(2)
_cell_length_b                   10.040(5)
_cell_length_c                   11.544(4)
_cell_angle_alpha                90
_cell_angle_beta                 109.688(6)
_cell_angle_gamma                90
_cell_volume                     1722.89
loop_
_atom_site_label
_atom_site_type_symbol
_atom_site_fract_x
_atom_site_fract_y
_atom_site_fract_z
Cu1 Cu 0.29395(2) 0.19157(3) 0.63402(3)
Cl1 Cl 0.28265(4) 0.09055(6) 0.82128(5)
N1 N 0.40762(14) 0.2801(2) 0.69801(19)
N2 N 0.53558(14) 0.3432(2) 0.83635(19)
N3 N 0.78418(14) 0.4187(2) 1.31108(19)
N4 N 0.84696(14) 0.3362(2) 1.34921(19)
N5 N 1.08432(13) 0.4163(2) 1.83113(18)
C1 C 1.14844(18) 0.4954(3) 2.0163(2)
H1 H 1.1625 0.5493 2.0857
C2 C 0.46183(17) 0.2665(3) 0.8124(2)
H2 H 0.4505 0.2106 0.8698
C3 C 0.44924(18) 0.3710(3) 0.6451(2)
H3 H 0.4267 0.4002 0.5640
C4 C 0.52791(19) 0.4111(3) 0.7293(2)
H4 H 0.5686 0.4720 0.7174
C5 C 0.60231(17) 0.3600(3) 0.9558(2)
C6 C 0.64969(19) 0.2508(3) 1.0176(3)
H5 H 0.6405 0.1672 0.9806
C7 C 0.71108(18) 0.2671(3) 1.1354(3)
H6 H 0.7435 0.1944 1.1778
C8 C 0.72383(16) 0.3922(3) 1.1897(2)
C9 C 0.67567(18) 0.5012(3) 1.1276(2)
H7 H 0.6842 0.5845 1.1651
C10 C 0.61454(17) 0.4858(3) 1.0092(2)
H8 H 0.5824 0.5585 0.9664
C11 C 0.90423(16) 0.3612(2) 1.4726(2)
C12 C 0.99100(18) 0.3107(2) 1.5054(2)
H9 H 1.0084 0.2632 1.4480
C13 C 1.05225(17) 0.3304(2) 1.6232(2)
H10 H 1.1110 0.2995 1.6443
C14 C 1.02347(16) 0.3971(2) 1.7082(2)
C15 C 0.93566(17) 0.4451(3) 1.6775(2)
H11 H 0.9173 0.4877 1.7365
C16 C 0.87631(17) 0.4292(2) 1.5595(2)
H12 H 0.8183 0.4633 1.5377
C17 C 1.08394(18) 0.5210(3) 1.9079(2)
H13 H 1.0464 0.5951 1.8885
N6 N 1.19054(14) 0.3768(2) 2.00862(18)
C18 C 1.15036(16) 0.3316(3) 1.8956(2)
H14 H 1.1653 0.2529 1.8647
Cu1C Cu 1.29395(2) 0.30843(3) 2.13402(3)
N6C N 0.19054(14) 0.1232(2) 0.50862(18)
loop_
_geom_bond_atom_site_label_1
_geom_bond_atom_site_label_2
_geom_bond_site_symmetry_1
_geom_bond_site_symmetry_2
Cu1 Cl1 1_555 1_555
N1 Cu1 1_555 1_555
N2 C2 1_555 1_555
N3 N4 1_555 1_555
N4 C11 1_555 1_555
N5 C14 1_555 1_555
C1 H1 1_555 1_555
C2 N1 1_555 1_555
H2 C2 1_555 1_555
C3 N1 1_555 1_555
H3 C3 1_555 1_555
C4 N2 1_555 1_555
H4 C4 1_555 1_555
C5 N2 1_555 1_555
C6 C5 1_555 1_555
H5 C6 1_555 1_555
C7 C6 1_555 1_555
H6 C7 1_555 1_555
C8 N3 1_555 1_555
C9 C8 1_555 1_555
H7 C9 1_555 1_555
C10 C5 1_555 1_555
H8 C10 1_555 1_555
C11 C12 1_555 1_555
C12 H9 1_555 1_555
C13 C12 1_555 1_555
H10 C13 1_555 1_555
C14 C13 1_555 1_555
C15 C14 1_555 1_555
H11 C15 1_555 1_555
C16 C11 1_555 1_555
H12 C16 1_555 1_555
C17 N5 1_555 1_555
H13 C17 1_555 1_555
N6 C1 1_555 1_555
C18 N5 1_555 1_555
H14 C18 1_555 1_555
Cu1C N6 1_555 1_555
N6C Cu1 1_555 1_555
C1 C17 1_555 1_555
C3 C4 1_555 1_555
C7 C8 1_555 1_555
C9 C10 1_555 1_555
C15 C16 1_555 1_555
N6 C18 1_555 1_555

#END
