
#######################################################################
#
#                 Cambridge Crystallographic Data Centre
#                                CCDC 
#
#######################################################################
#
# If this CIF has been generated from an entry in the Cambridge 
# Structural Database, then it will include bibliographic, chemical, 
# crystal, experimental, refinement or atomic coordinate data resulting 
# from the CCDC's data processing and validation procedures.
#
#######################################################################

data_CEWFOB
_symmetry_cell_setting           monoclinic
_symmetry_space_group_name_H-M   'P 21'
_symmetry_Int_Tables_number      4
_space_group_name_Hall           'P 2yb'
loop_
_symmetry_equiv_pos_site_id
_symmetry_equiv_pos_as_xyz
1 x,y,z
2 -x,1/2+y,-z
_cell_length_a                   10.8883(3)
_cell_length_b                   29.2108(7)
_cell_length_c                   11.3297(4)
_cell_angle_alpha                90
_cell_angle_beta                 118.486(4)
_cell_angle_gamma                90
_cell_volume                     3167.22
loop_
_atom_site_label
_atom_site_type_symbol
_atom_site_fract_x
_atom_site_fract_y
_atom_site_fract_z
S1 S 0.62196(16) 0.37132(6) 1.31287(17)
C1 C 0.6767(6) 0.3614(2) 1.1896(6)
C2 C 0.6508(7) 0.3219(2) 1.1152(7)
H1 H 0.6015 0.2979 1.1271
C3 C 0.6980(6) 0.3184(2) 1.0241(6)
H2 H 0.6807 0.2913 0.9756
N1 N 0.7679(5) 0.35149(19) 0.9999(5)
C4 C 0.7894(7) 0.3898(2) 1.0711(7)
H3 H 0.8354 0.4138 1.0549
C5 C 0.7477(7) 0.3959(2) 1.1668(6)
H4 H 0.7674 0.4231 1.2153
S2 S 0.51903(16) 0.31378(6) 1.31494(17)
C6 C 0.3441(6) 0.3229(2) 1.1883(6)
C7 C 0.2987(7) 0.3606(3) 1.1047(7)
H5 H 0.3612 0.3833 1.1102
C8 C 0.1601(6) 0.3638(2) 1.0140(7)
H6 H 0.1308 0.3895 0.9588
N2 N 0.0625(5) 0.33248(18) 0.9985(5)
C9 C 0.1114(7) 0.2958(2) 1.0810(7)
H7 H 0.048 0.2729 1.0711
C10 C 0.2461(6) 0.2901(2) 1.1770(7)
H8 H 0.2724 0.2649 1.234
Mn1 Mn -0.16645(9) 0.34223(3) 0.83429(9)
N3 N -0.1302(6) 0.4146(2) 0.8360(6)
C11 C -0.1742(6) 0.4510(2) 0.8343(5)
S3 S -0.2385(2) 0.50076(7) 0.8324(2)
N4 N -0.1979(6) 0.2692(2) 0.8326(5)
C12 C -0.2020(8) 0.2306(3) 0.8238(7)
S4 S -0.2081(5) 0.17535(10) 0.8127(4)
S5 S 0.03950(16) 0.31679(6) 0.35079(16)
C13 C -0.0103(6) 0.3259(2) 0.4760(6)
C14 C 0.0225(7) 0.3630(2) 0.5556(6)
H9 H 0.0751 0.3866 0.5471
C15 C -0.0236(7) 0.3656(3) 0.6508(6)
H10 H 0.0008 0.3913 0.7057
N5 N -0.1010(5) 0.33322(18) 0.6685(5)
C16 C -0.1311(7) 0.2976(2) 0.5899(7)
H11 H -0.1829 0.2743 0.6009
C17 C -0.0918(7) 0.2920(2) 0.4919(7)
H12 H -0.1191 0.2662 0.4373
S6 S 0.14753(16) 0.37404(6) 0.35629(16)
C18 C 0.3217(6) 0.3629(2) 0.4783(6)
C19 C 0.3672(7) 0.3233(2) 0.5559(6)
H13 H 0.3056 0.2997 0.5458
C20 C 0.5065(6) 0.3205(2) 0.6479(7)
H14 H 0.5362 0.2943 0.7008
N6 N 0.6031(5) 0.35210(19) 0.6680(5)
C21 C 0.5574(7) 0.3890(2) 0.5923(6)
H15 H 0.6214 0.4119 0.6039
C22 C 0.4203(7) 0.3955(2) 0.4974(6)
H16 H 0.3943 0.422 0.4458
N1_2 N -0.2321(5) 0.35149(19) 0.9999(5)
Mn1_2 Mn 0.83355(9) 0.34223(3) 0.83429(9)
N6_2 N -0.3969(5) 0.35210(19) 0.6680(5)
Mn2 Mn 0.21575(10) 0.54430(3) 0.83289(10)
S7 S 0.00586(17) 0.51426(6) 1.31123(17)
C23 C 0.0576(6) 0.5249(2) 1.1856(6)
C24 C 0.1225(7) 0.4899(2) 1.1573(7)
H17 H 0.1362 0.4619 1.201
C25 C 0.1679(7) 0.4963(2) 1.0631(6)
H18 H 0.2112 0.472 1.0444
N7 N 0.1521(5) 0.53603(18) 0.9977(5)
C26 C 0.0886(6) 0.5695(2) 1.0288(6)
H19 H 0.0761 0.5974 0.9852
C27 C 0.0405(6) 0.5655(2) 1.1206(6)
H20 H -0.0029 0.5901 1.138
S8 S -0.09609(16) 0.57190(7) 1.31516(17)
C28 C -0.2728(6) 0.5626(2) 1.1887(6)
C29 C -0.3149(7) 0.5267(2) 1.1022(7)
H21 H -0.2508 0.5052 1.1043
C30 C -0.4563(7) 0.5229(3) 1.0099(7)
H22 H -0.4848 0.4977 0.9528
N8 N -0.5533(5) 0.55291(19) 0.9982(5)
C31 C -0.5086(6) 0.5876(2) 1.0827(7)
H23 H -0.5744 0.6089 1.0776
C32 C -0.3694(7) 0.5948(2) 1.1794(7)
H24 H -0.3431 0.6203 1.2352
N9 N 0.2434(6) 0.4713(2) 0.8330(6)
C33 C 0.3047(6) 0.4377(2) 0.8342(6)
S9 S 0.3847(2) 0.39197(7) 0.8345(2)
N10 N 0.1877(6) 0.6168(2) 0.8301(6)
C34 C 0.1842(8) 0.6560(3) 0.8177(7)
S10 S 0.1824(6) 0.71111(11) 0.8058(4)
S11 S -0.46945(16) 0.51203(6) 0.35424(17)
C35 C -0.2935(6) 0.5236(2) 0.4774(6)
C36 C -0.2469(6) 0.5640(2) 0.5456(7)
H25 H -0.3088 0.588 0.5301
C37 C -0.1103(6) 0.5687(2) 0.6357(6)
H26 H -0.0812 0.5966 0.68
N11 N -0.0131(5) 0.53562(18) 0.6657(5)
C38 C -0.0596(6) 0.4961(2) 0.5996(7)
H27 H 0.0041 0.4725 0.6172
C39 C -0.1978(7) 0.4886(2) 0.5064(7)
H28 H -0.2261 0.4604 0.4638
S12 S -0.57711(16) 0.56932(6) 0.34739(16)
C40 C -0.6248(6) 0.5613(2) 0.4762(6)
C41 C -0.7115(7) 0.5933(2) 0.4859(7)
H29 H -0.7431 0.618 0.4268
C42 C -0.7514(6) 0.5888(2) 0.5840(6)
H30 H -0.8052 0.6118 0.5931
N12 N -0.7156(5) 0.5520(2) 0.6685(5)
C43 C -0.6318(8) 0.5218(3) 0.6546(7)
H31 H -0.6038 0.4965 0.7113
C44 C -0.5841(7) 0.5250(2) 0.5641(7)
H32 H -0.5242 0.5028 0.5615
Mn2_2 Mn -0.78425(10) 0.54430(3) 0.83289(10)
N8_2 N 0.4467(5) 0.55291(19) 0.9982(5)
N12_2 N 0.2844(5) 0.5520(2) 0.6685(5)
S13 S 0.1750(11) 0.1694(4) 0.0023(10)
C45 C 0.271(2) 0.2037(9) -0.054(3)
C46 C 0.186(2) 0.2326(8) -0.149(2)
H33 H 0.0893 0.2336 -0.1868
C47 C 0.271(2) 0.2621(8) -0.183(2)
H34 H 0.2315 0.2895 -0.2261
N13 N 0.404(2) 0.2529(9) -0.157(3)
C48 C 0.465(2) 0.2177(9) -0.094(3)
H35 H 0.5423 0.2061 -0.0994
C49 C 0.410(2) 0.1947(12) -0.010(4)
H36 H 0.4643 0.1763 0.0637
S14 S 0.3212(10) 0.1308(2) 0.1511(13)
C50 C 0.308(2) 0.1608(6) 0.2846(18)
C51 C 0.414(2) 0.1756(7) 0.400(2)
H37 H 0.5063 0.1709 0.421
C52 C 0.378(3) 0.1994(13) 0.493(3)
H38 H 0.4465 0.2094 0.5768
N14 N 0.236(3) 0.2068(9) 0.451(2)
C53 C 0.155(3) 0.1895(8) 0.344(3)
H39 H 0.0662 0.185 0.3338
C54 C 0.170(2) 0.1738(8) 0.226(2)
H40 H 0.1025 0.173 0.1362
O1 O 0.419(3) 0.2022(7) 0.683(3)
S15? S 0.4547(12) 0.1629(4) 0.1448(11)
C55? C 0.344(3) 0.1915(14) -0.006(4)
C56? C 0.205(3) 0.1955(13) -0.070(3)
H41? H 0.1512 0.1893 -0.0289
C57? C 0.144(3) 0.2102(11) -0.209(3)
H42? H 0.0541 0.2017 -0.2716
N15? N 0.229(3) 0.2383(10) -0.243(2)
C58? C 0.326(3) 0.2534(9) -0.134(3)
H43? H 0.3331 0.2845 -0.1141
C59? C 0.428(3) 0.2206(12) -0.038(3)
H44? H 0.5238 0.2193 -0.0068
S16? S 0.290(2) 0.1373(9) 0.1615(17)
C60? C 0.343(4) 0.1787(15) 0.292(4)
C61? C 0.483(4) 0.1855(18) 0.363(4)
H45? H 0.5466 0.1818 0.3317
C62? C 0.515(4) 0.199(2) 0.498(4)
H46? H 0.6076 0.2073 0.5553
N16? N 0.424(4) 0.202(2) 0.549(4)
C63? C 0.304(5) 0.185(2) 0.481(4)
H47? H 0.2536 0.176 0.5234
C64? C 0.243(4) 0.179(2) 0.335(4)
H48? H 0.148 0.1766 0.2771
O2? O 0.198(3) 0.1977(10) 0.553(3)
loop_
_geom_bond_atom_site_label_1
_geom_bond_atom_site_label_2
_geom_bond_site_symmetry_1
_geom_bond_site_symmetry_2
S1 C1 1_555 1_555
C1 C2 1_555 1_555
C2 H1 1_555 1_555
C3 C2 1_555 1_555
H2 C3 1_555 1_555
N1 C3 1_555 1_555
C4 N1 1_555 1_555
H3 C4 1_555 1_555
C5 C1 1_555 1_555
H4 C5 1_555 1_555
S2 S1 1_555 1_555
C6 S2 1_555 1_555
C7 C6 1_555 1_555
H5 C7 1_555 1_555
C8 C7 1_555 1_555
H6 C8 1_555 1_555
N2 C8 1_555 1_555
C9 N2 1_555 1_555
H7 C9 1_555 1_555
C10 C6 1_555 1_555
H8 C10 1_555 1_555
Mn1 N2 1_555 1_555
N3 Mn1 1_555 1_555
C11 N3 1_555 1_555
S3 C11 1_555 1_555
N4 Mn1 1_555 1_555
C12 N4 1_555 1_555
S4 C12 1_555 1_555
S5 C13 1_555 1_555
C13 C14 1_555 1_555
C14 H9 1_555 1_555
C15 C14 1_555 1_555
H10 C15 1_555 1_555
N5 Mn1 1_555 1_555
C16 N5 1_555 1_555
H11 C16 1_555 1_555
C17 C13 1_555 1_555
H12 C17 1_555 1_555
S6 S5 1_555 1_555
C18 S6 1_555 1_555
C19 C18 1_555 1_555
H13 C19 1_555 1_555
C20 C19 1_555 1_555
H14 C20 1_555 1_555
N6 C20 1_555 1_555
C21 N6 1_555 1_555
H15 C21 1_555 1_555
C22 C18 1_555 1_555
H16 C22 1_555 1_555
Mn2 N7 1_555 1_555
S7 C23 1_555 1_555
C23 C24 1_555 1_555
C24 H17 1_555 1_555
C25 C24 1_555 1_555
H18 C25 1_555 1_555
N7 C25 1_555 1_555
C26 N7 1_555 1_555
H19 C26 1_555 1_555
C27 C23 1_555 1_555
H20 C27 1_555 1_555
S8 S7 1_555 1_555
C28 S8 1_555 1_555
C29 C28 1_555 1_555
H21 C29 1_555 1_555
C30 C29 1_555 1_555
H22 C30 1_555 1_555
N8 C30 1_555 1_555
C31 N8 1_555 1_555
H23 C31 1_555 1_555
C32 C28 1_555 1_555
H24 C32 1_555 1_555
N9 Mn2 1_555 1_555
C33 N9 1_555 1_555
S9 C33 1_555 1_555
N10 Mn2 1_555 1_555
C34 N10 1_555 1_555
S10 C34 1_555 1_555
S11 C35 1_555 1_555
C35 C36 1_555 1_555
C36 H25 1_555 1_555
C37 C36 1_555 1_555
H26 C37 1_555 1_555
N11 Mn2 1_555 1_555
C38 N11 1_555 1_555
H27 C38 1_555 1_555
C39 C35 1_555 1_555
H28 C39 1_555 1_555
S12 S11 1_555 1_555
C40 S12 1_555 1_555
C41 C40 1_555 1_555
H29 C41 1_555 1_555
C42 C41 1_555 1_555
H30 C42 1_555 1_555
N12 C42 1_555 1_555
C43 N12 1_555 1_555
H31 C43 1_555 1_555
C44 C40 1_555 1_555
H32 C44 1_555 1_555
S13 C45 1_555 1_555
C45 C46 1_555 1_555
C46 H33 1_555 1_555
C47 C46 1_555 1_555
H34 C47 1_555 1_555
N13 C47 1_555 1_555
C48 N13 1_555 1_555
H35 C48 1_555 1_555
C49 C45 1_555 1_555
H36 C49 1_555 1_555
S14 S13 1_555 1_555
C50 S14 1_555 1_555
C51 C50 1_555 1_555
H37 C51 1_555 1_555
C52 C51 1_555 1_555
H38 C52 1_555 1_555
N14 C52 1_555 1_555
C53 N14 1_555 1_555
H39 C53 1_555 1_555
C54 C50 1_555 1_555
H40 C54 1_555 1_555
N1_2 Mn1 1_555 1_555
Mn1_2 N1 1_555 1_555
N6_2 Mn1 1_555 1_555
Mn2_2 N8 1_555 1_555
N8_2 Mn2 1_555 1_555
N12_2 Mn2 1_555 1_555
C4 C5 1_555 1_555
C9 C10 1_555 1_555
C15 N5 1_555 1_555
C16 C17 1_555 1_555
N6 Mn1_2 1_555 1_555
C21 C22 1_555 1_555
C26 C27 1_555 1_555
C31 C32 1_555 1_555
C37 N11 1_555 1_555
C38 C39 1_555 1_555
N12 Mn2_2 1_555 1_555
C43 C44 1_555 1_555
C48 C49 1_555 1_555
C53 C54 1_555 1_555

#END
