
#######################################################################
#
#                 Cambridge Crystallographic Data Centre
#                                CCDC 
#
#######################################################################
#
# If this CIF has been generated from an entry in the Cambridge 
# Structural Database, then it will include bibliographic, chemical, 
# crystal, experimental, refinement or atomic coordinate data resulting 
# from the CCDC's data processing and validation procedures.
#
#######################################################################

data_CEXGIV
_symmetry_cell_setting           monoclinic
_symmetry_space_group_name_H-M   'P 21/c'
_symmetry_Int_Tables_number      14
_space_group_name_Hall           '-P 2ybc'
loop_
_symmetry_equiv_pos_site_id
_symmetry_equiv_pos_as_xyz
1 x,y,z
2 -x,1/2+y,1/2-z
3 -x,-y,-z
4 x,1/2-y,1/2+z
_cell_length_a                   14.739(6)
_cell_length_b                   21.924(7)
_cell_length_c                   19.524(6)
_cell_angle_alpha                90
_cell_angle_beta                 101.03(3)
_cell_angle_gamma                90
_cell_volume                     6192.4
loop_
_atom_site_label
_atom_site_type_symbol
_atom_site_fract_x
_atom_site_fract_y
_atom_site_fract_z
Fe1 Fe -0.16358 -0.19164 -0.37664
Cl1 Cl -0.16190 -0.17450 -0.25960
O1 O 0.22380 -0.18390 -0.08740
N1 N 0.14940 -0.19620 -0.20490
N2 N -0.02520 -0.04220 -0.15610
C1 C 0.17110 -0.23170 -0.31960
C2 C 0.20600 -0.22450 -0.24310
C3 C 0.29630 -0.23870 -0.20310
C4 C 0.34250 -0.25780 -0.26920
C5 C 0.32310 -0.27400 -0.32560
C6 C 0.22420 -0.25260 -0.35910
C7 C 0.15450 -0.17440 -0.12780
C8 C 0.07990 -0.13070 -0.11570
C9 C 0.03220 -0.08750 -0.16350
C10 C -0.04000 -0.04250 -0.08130
C11 C -0.00280 -0.08220 -0.03340
C12 C 0.06050 -0.11740 -0.04440
O2 O -0.18740 -0.44340 -0.12390
O3 O -0.62620 -0.10880 -0.28180
O4 O -0.26360 0.10780 -0.28260
N3 N -0.08300 -0.26820 -0.35930
N4 N -0.27870 -0.24590 -0.39260
N5 N -0.24520 -0.11760 -0.40750
N6 N -0.04880 -0.14000 -0.37510
N7 N -0.20650 -0.38700 -0.22250
N8 N -0.16210 -0.29480 0.00520
N9 N -0.51280 -0.14420 -0.33530
N10 N -0.37840 -0.21860 -0.14210
N11 N -0.14850 0.04210 -0.28610
N12 N -0.30220 0.03510 -0.09560
C14 C 0.01320 -0.26920 -0.34710
C15 C 0.04220 -0.33110 -0.33250
C16 C -0.03360 -0.36600 -0.33490
C17 C -0.11400 -0.32790 -0.35160
C18 C -0.20400 -0.34560 -0.35710
C19 C -0.40590 -0.19320 -0.08630
C20 C -0.46850 -0.15130 -0.08420
C21 C -0.51270 -0.12930 -0.14890
C22 C -0.10480 0.02960 -0.39850
C23 C -0.12050 0.06690 -0.34560
C24 C -0.10320 0.13030 -0.35160
C25 C -0.07370 0.15110 -0.40730
C26 C -0.06000 0.11620 -0.45910
C27 C -0.07500 0.05240 -0.45540
C28 C -0.21640 0.06230 -0.26060
C29 C -0.24260 0.02900 -0.20150
C30 C -0.27230 0.06120 -0.14850
C31 C -0.30250 -0.02480 -0.09520
C32 C -0.27450 -0.06150 -0.14360
C33 C -0.24710 -0.03380 -0.19860
H1 H 0.10500 -0.34600 -0.32300
H2 H -0.03500 -0.40900 -0.32800
H3 H -0.39700 -0.36700 -0.37900
H4 H -0.49600 -0.27700 -0.42200
H5 H -0.43200 -0.04000 -0.45500
H6 H -0.29100 0.02400 -0.43300
C34 C -0.27950 -0.30810 -0.37680
C35 C -0.37530 -0.32700 -0.38620
C36 C -0.42740 -0.27830 -0.40910
C37 C -0.36770 -0.22770 -0.41130
C38 C -0.39540 -0.16750 -0.43060
C39 C -0.33910 -0.11770 -0.42740
C40 C -0.37000 -0.05400 -0.44060
C41 C -0.29470 -0.01990 -0.43030
C42 C -0.21430 -0.05800 -0.40910
C43 C -0.12430 -0.03920 -0.39510
C44 C -0.04640 -0.07630 -0.38000
C45 C 0.04810 -0.05790 -0.36260
C46 C 0.10140 -0.10710 -0.35010
C47 C 0.04140 -0.15880 -0.35750
C48 C 0.07150 -0.21880 -0.34410
C49 C -0.22160 -0.41040 -0.34300
C50 C -0.22290 -0.43090 -0.27530
C51 C -0.24120 -0.49160 -0.26300
C52 C -0.25730 -0.53220 -0.31860
C53 C -0.25630 -0.51450 -0.38490
C54 C -0.23700 -0.45360 -0.39680
C55 C -0.18970 -0.39290 -0.15240
C56 C -0.17480 -0.33690 -0.11030
C57 C -0.17580 -0.34160 -0.03960
C58 C -0.14770 -0.24030 -0.02110
C59 C -0.14310 -0.23100 -0.09010
C60 C -0.15580 -0.28090 -0.13510
C61 C -0.49820 -0.15670 -0.45310
C62 C -0.55450 -0.14280 -0.40730
C63 C -0.64870 -0.13070 -0.43010
C64 C -0.68550 -0.13660 -0.50060
C65 C -0.63470 -0.15060 -0.54760
C66 C -0.53650 -0.16090 -0.52580
C67 C -0.54820 -0.13190 -0.27920
C68 C -0.49240 -0.15210 -0.21120
C69 C -0.42580 -0.19590 -0.20690
H7 H 0.07100 -0.01600 -0.36600
H8 H 0.16800 -0.10800 -0.33700
H9 H -0.24300 -0.50500 -0.21800
H10 H -0.26800 -0.57400 -0.30800
H11 H -0.26300 -0.54400 -0.42000
H12 H -0.24100 -0.43900 -0.44600
H13 H -0.18400 -0.38200 -0.02100
H14 H -0.13800 -0.20600 0.01100
H15 H -0.13100 -0.19300 -0.10700
H16 H -0.15400 -0.27400 -0.18300
H17 H -0.68600 -0.12000 -0.39800
H18 H -0.74800 -0.13000 -0.51400
H19 H -0.66100 -0.15500 -0.59400
H20 H -0.49600 -0.16800 -0.55800
H21 H -0.40200 -0.21100 -0.24400
H22 H -0.36700 -0.21200 -0.04700
H23 H -0.56500 -0.10300 -0.15000
H24 H -0.11500 0.15800 -0.31400
H25 H -0.06200 0.19400 -0.40800
H26 H -0.03500 0.13400 -0.49800
H27 H -0.06500 0.02500 -0.49200
H28 H -0.26400 0.10600 -0.14900
H29 H -0.32500 -0.04500 -0.05400
H30 H -0.27700 -0.10600 -0.14000
H31 H -0.22300 -0.05900 -0.23200
H32 H 0.31700 -0.23200 -0.14900
H33 H 0.40600 -0.26700 -0.24600
H34 H 0.36400 -0.29100 -0.35900
H35 H 0.19900 -0.25600 -0.41200
H36 H 0.04800 -0.08900 -0.21300
H37 H -0.07900 -0.01200 -0.06800
H38 H 0.09800 -0.13700 -0.00600
H39 H -0.20500 -0.34300 -0.23800
H40 H -0.44500 -0.15100 -0.32700
H41 H -0.11300 0.00800 -0.26400
H42 H 0.08500 -0.18900 -0.23100
N8C N -0.16210 -0.20520 -0.49480
Fe1C Fe -0.16358 -0.30836 0.12336
Cl2 Cl -0.56640 -0.86140 -0.30630
Cl3 Cl -0.50870 -0.95730 -0.21440
C13 C -0.50040 -0.92620 -0.29880
Cl4 Cl -0.56030 -0.97060 -0.36910
O5 O -0.37520 -0.86430 -0.01880
loop_
_geom_bond_atom_site_label_1
_geom_bond_atom_site_label_2
_geom_bond_site_symmetry_1
_geom_bond_site_symmetry_2
Fe1 Cl1 1_555 1_555
Cl2 C13 1_555 1_555
Cl3 C13 1_555 1_555
O1 C7 1_555 1_555
N1 C2 1_555 1_555
N2 C9 1_555 1_555
C1 C2 1_555 1_555
C2 C3 1_555 1_555
C3 C4 1_555 1_555
C4 C5 1_555 1_555
C5 C6 1_555 1_555
C6 C1 1_555 1_555
C7 N1 1_555 1_555
C8 C7 1_555 1_555
C9 C8 1_555 1_555
C10 N2 1_555 1_555
C11 C10 1_555 1_555
C12 C8 1_555 1_555
C13 Cl4 1_555 1_555
O2 C55 1_555 1_555
O3 C67 1_555 1_555
O4 C28 1_555 1_555
N3 Fe1 1_555 1_555
N4 Fe1 1_555 1_555
N5 Fe1 1_555 1_555
N6 Fe1 1_555 1_555
N7 C50 1_555 1_555
N8 C57 1_555 1_555
N9 C62 1_555 1_555
N10 C19 1_555 1_555
N11 C23 1_555 1_555
N12 C30 1_555 1_555
C14 N3 1_555 1_555
C15 C14 1_555 1_555
C16 C15 1_555 1_555
C17 N3 1_555 1_555
C18 C17 1_555 1_555
C19 C20 1_555 1_555
C20 C21 1_555 1_555
C21 C68 1_555 1_555
C22 C23 1_555 1_555
C23 C24 1_555 1_555
C24 C25 1_555 1_555
C25 C26 1_555 1_555
C26 C27 1_555 1_555
C27 C22 1_555 1_555
C28 N11 1_555 1_555
C29 C28 1_555 1_555
C30 C29 1_555 1_555
C31 N12 1_555 1_555
C32 C31 1_555 1_555
C33 C29 1_555 1_555
H1 C15 1_555 1_555
H2 C16 1_555 1_555
H3 C35 1_555 1_555
H4 C36 1_555 1_555
H5 C40 1_555 1_555
H6 C41 1_555 1_555
C34 N4 1_555 1_555
C35 C34 1_555 1_555
C36 C35 1_555 1_555
C37 N4 1_555 1_555
C38 C37 1_555 1_555
C39 N5 1_555 1_555
C40 C39 1_555 1_555
C41 C40 1_555 1_555
C42 N5 1_555 1_555
C43 C22 1_555 1_555
C44 N6 1_555 1_555
C45 C44 1_555 1_555
C46 C45 1_555 1_555
C47 N6 1_555 1_555
C48 C1 1_555 1_555
C49 C18 1_555 1_555
C50 C49 1_555 1_555
C51 C50 1_555 1_555
C52 C51 1_555 1_555
C53 C52 1_555 1_555
C54 C49 1_555 1_555
C55 N7 1_555 1_555
C56 C55 1_555 1_555
C57 C56 1_555 1_555
C58 N8 1_555 1_555
C59 C58 1_555 1_555
C60 C56 1_555 1_555
C61 C38 1_555 1_555
C62 C61 1_555 1_555
C63 C62 1_555 1_555
C64 C63 1_555 1_555
C65 C64 1_555 1_555
C66 C61 1_555 1_555
C67 N9 1_555 1_555
C68 C67 1_555 1_555
C69 N10 1_555 1_555
H7 C45 1_555 1_555
H8 C46 1_555 1_555
H9 C51 1_555 1_555
H10 C52 1_555 1_555
H11 C53 1_555 1_555
H12 C54 1_555 1_555
H13 C57 1_555 1_555
H14 C58 1_555 1_555
H15 C59 1_555 1_555
H16 C60 1_555 1_555
H17 C63 1_555 1_555
H18 C64 1_555 1_555
H19 C65 1_555 1_555
H20 C66 1_555 1_555
H21 C69 1_555 1_555
H22 C19 1_555 1_555
H23 C21 1_555 1_555
H24 C24 1_555 1_555
H25 C25 1_555 1_555
H26 C26 1_555 1_555
H27 C27 1_555 1_555
H28 C30 1_555 1_555
H29 C31 1_555 1_555
H30 C32 1_555 1_555
H31 C33 1_555 1_555
H32 C3 1_555 1_555
H33 C4 1_555 1_555
H34 C5 1_555 1_555
H35 C6 1_555 1_555
H36 C9 1_555 1_555
H37 C10 1_555 1_555
H38 C12 1_555 1_555
H39 N7 1_555 1_555
H40 N9 1_555 1_555
H41 N11 1_555 1_555
H42 N1 1_555 1_555
N8C Fe1 1_555 1_555
Fe1C N8 1_555 1_555
C11 C12 1_555 1_555
C14 C48 1_555 1_555
C16 C17 1_555 1_555
C18 C34 1_555 1_555
C32 C33 1_555 1_555
C36 C37 1_555 1_555
C38 C39 1_555 1_555
C41 C42 1_555 1_555
C42 C43 1_555 1_555
C43 C44 1_555 1_555
C46 C47 1_555 1_555
C47 C48 1_555 1_555
C53 C54 1_555 1_555
C59 C60 1_555 1_555
C65 C66 1_555 1_555
C68 C69 1_555 1_555

#END
