
#######################################################################
#
#                 Cambridge Crystallographic Data Centre
#                                CCDC 
#
#######################################################################
#
# If this CIF has been generated from an entry in the Cambridge 
# Structural Database, then it will include bibliographic, chemical, 
# crystal, experimental, refinement or atomic coordinate data resulting 
# from the CCDC's data processing and validation procedures.
#
#######################################################################

data_CEXHUJ
_symmetry_cell_setting           monoclinic
_symmetry_space_group_name_H-M   'P 21/c'
_symmetry_Int_Tables_number      14
_space_group_name_Hall           '-P 2ybc'
loop_
_symmetry_equiv_pos_site_id
_symmetry_equiv_pos_as_xyz
1 x,y,z
2 -x,1/2+y,1/2-z
3 -x,-y,-z
4 x,1/2-y,1/2+z
_cell_length_a                   15.7911(14)
_cell_length_b                   25.454(2)
_cell_length_c                   16.3779(14)
_cell_angle_alpha                90
_cell_angle_beta                 109.8240(10)
_cell_angle_gamma                90
_cell_volume                     6192.92
loop_
_atom_site_label
_atom_site_type_symbol
_atom_site_fract_x
_atom_site_fract_y
_atom_site_fract_z
Sb1 Sb 0.0000 0.5000 0.5000
F1 F 0.0787(6) 0.5569(4) 0.5335(6)
F2 F 0.0462(6) 0.4800(5) 0.4128(6)
F3 F 0.0807(5) 0.4554(3) 0.5802(5)
F1B F -0.0787(6) 0.4431(4) 0.4665(6)
F2B F -0.0462(6) 0.5200(5) 0.5872(6)
F3B F -0.0807(5) 0.5446(3) 0.4198(5)
Sb2 Sb 0.5000 0.5000 1.0000
F4 F 0.4889(10) 0.4771(5) 0.8903(5)
F5 F 0.4271(11) 0.4515(6) 1.0188(7)
F6 F 0.4178(16) 0.5502(9) 0.9685(13)
F4B F 0.5111(10) 0.5229(5) 1.1097(5)
F5B F 0.5729(11) 0.5485(6) 0.9812(7)
F6B F 0.5822(16) 0.4498(9) 1.0315(13)
C49 C 0.3230(8) 0.6465(4) 0.8088(6)
H38 H 0.3836 0.6347 0.8319
C50 C 0.2811(7) 0.6509(3) 0.7219(6)
H39 H 0.3141 0.6433 0.6844
C51 C 0.1922(6) 0.6660(3) 0.6859(6)
H40 H 0.1634 0.6672 0.6247
C52 C 0.1457(9) 0.6793(4) 0.7414(10)
H41 H 0.0848 0.6907 0.7190
C53 C 0.1899(11) 0.6756(5) 0.8298(10)
H42 H 0.1588 0.6846 0.8684
C54 C 0.2764(10) 0.6594(5) 0.8626(7)
H43 H 0.3051 0.6570 0.9236
C55 C 0.0710(8) 0.1554(4) -0.0540(8)
H44 H 0.0656 0.1202 -0.0744
C56 C 0.1264(7) 0.1905(5) -0.0772(7)
H45 H 0.1589 0.1793 -0.1133
C57 C 0.1343(6) 0.2420(4) -0.0473(8)
H46 H 0.1722 0.2660 -0.0631
C58 C 0.0867(7) 0.2584(4) 0.0056(9)
H47 H 0.0921 0.2936 0.0260
C59 C 0.0313(6) 0.2233(6) 0.0287(7)
H48 H -0.0012 0.2346 0.0649
C60 C 0.0234(7) 0.1718(5) -0.0011(8)
H49 H -0.0145 0.1479 0.0147
Ag1 Ag 0.14291(2) 0.378865(19) 0.87946(2)
Co1 Co 0.51437(4) 0.35739(2) 0.49414(3)
C1 C 0.5677(3) 0.27769(19) 0.6329(3)
H1 H 0.6132 0.2638 0.6133
C2 C 0.5516(3) 0.26046(19) 0.7080(3)
H2 H 0.5831 0.2336 0.7467
C3 C 0.4818(3) 0.28990(19) 0.7142(3)
H3 H 0.4554 0.2875 0.7582
C4 C 0.4560(3) 0.32493(17) 0.6418(3)
C5 C 0.3844(3) 0.36096(18) 0.6193(3)
C6 C 0.3600(3) 0.39317(17) 0.5466(3)
C7 C 0.2876(3) 0.42981(18) 0.5216(3)
H4 H 0.2445 0.4356 0.5494
C8 C 0.2922(3) 0.45525(19) 0.4492(3)
H5 H 0.2529 0.4820 0.4171
C9 C 0.3666(3) 0.43382(18) 0.4319(3)
H6 H 0.3854 0.4443 0.3851
C10 C 0.3310(3) 0.36527(18) 0.6780(3)
C11 C 0.3631(3) 0.3931(2) 0.7552(3)
H7 H 0.4210 0.4089 0.7723
C12 C 0.3112(3) 0.3975(2) 0.8065(3)
H8 H 0.3345 0.4165 0.8593
C13 C 0.1979(3) 0.3495(2) 0.7119(3)
H9 H 0.1396 0.3343 0.6962
C14 C 0.2464(3) 0.3426(2) 0.6567(3)
H10 H 0.2222 0.3227 0.6049
C15 C -0.4405(3) 0.44353(19) 0.6209(3)
H11 H -0.5002 0.4569 0.6012
C16 C -0.3718(3) 0.4616(2) 0.6957(3)
H12 H -0.3770 0.4879 0.7348
C17 C -0.2962(3) 0.4336(2) 0.7009(3)
H13 H -0.2384 0.4372 0.7439
C18 C -0.3204(3) 0.3981(2) 0.6303(3)
C19 C -0.2658(3) 0.3619(2) 0.6098(3)
C20 C -0.2929(3) 0.3253(2) 0.5425(3)
C21 C -0.2386(4) 0.2888(2) 0.5157(3)
H14 H -0.1750 0.2852 0.5397
C22 C -0.2955(4) 0.2602(3) 0.4490(3)
H15 H -0.2791 0.2325 0.4184
C23 C -0.3832(3) 0.2794(2) 0.4341(3)
H16 H -0.4357 0.2668 0.3903
C24 C -0.1692(3) 0.3613(2) 0.6666(3)
C25 C -0.1354(4) 0.3236(3) 0.7294(4)
H17 H -0.1722 0.2951 0.7344
C26 C -0.1110(3) 0.3992(3) 0.6592(4)
H18 H -0.1302 0.4247 0.6143
C27 C -0.0478(4) 0.3276(3) 0.7850(4)
H19 H -0.0257 0.3013 0.8283
C28 C -0.0235(4) 0.4001(3) 0.7176(4)
H20 H 0.0164 0.4267 0.7118
C29 C 0.3949(4) 0.2664(2) 1.4351(3)
H21 H 0.4129 0.2513 1.4914
C30 C 0.3259(4) 0.2466(2) 1.3625(3)
H22 H 0.2902 0.2163 1.3610
C31 C 0.3201(3) 0.2792(2) 1.2949(3)
H23 H 0.2785 0.2761 1.2375
C32 C 0.3869(3) 0.31833(18) 1.3253(3)
C33 C 0.4097(3) 0.35818(19) 1.2789(3)
C34 C 0.4787(3) 0.39436(19) 1.3118(3)
C35 C 0.5102(3) 0.4321(2) 1.2655(3)
H24 H 0.4881 0.4379 1.2046
C36 C 0.5795(3) 0.4588(2) 1.3261(3)
H25 H 0.6145 0.4865 1.3150
C37 C 0.5882(3) 0.43677(19) 1.4083(3)
H26 H 0.6311 0.4477 1.4618
C38 C 0.3526(3) 0.36322(19) 1.1858(3)
C39 C 0.2958(8) 0.4072(5) 1.1553(7)
H27 H 0.2946 0.4346 1.1944
C40 C 0.2425(10) 0.4105(6) 1.0694(11)
H28 H 0.2073 0.4413 1.0498
C41 C 0.3491(9) 0.3262(7) 1.1239(7)
H29 H 0.3870 0.2962 1.1386
C42 C 0.2907(9) 0.3326(7) 1.0406(7)
H30 H 0.2882 0.3057 0.9996
N1 N 0.5110(2) 0.31613(14) 0.5926(2)
N2 N 0.4074(2) 0.39686(15) 0.4898(2)
N3 N 0.2285(3) 0.37618(18) 0.7861(3)
N4 N -0.4115(2) 0.40550(15) 0.5812(2)
N5 N -0.3823(2) 0.31803(16) 0.4903(2)
N6 N 0.0063(3) 0.3653(2) 0.7812(3)
N7 N 0.4318(2) 0.30925(15) 1.4143(2)
N8 N 0.5286(2) 0.39903(15) 1.4004(2)
N9 N 0.2385(3) 0.37325(19) 1.0142(2)
N10 N 0.1383(11) 0.4784(5) 0.8777(10)
C47 C 0.1626(10) 0.5010(6) 0.8218(12)
C48 C 0.2010 0.5248 0.7521
H35 H 0.2669 0.5236 0.7747
H36 H 0.1809 0.5613 0.7400
H37 H 0.1787 0.5042 0.6985
Ag1_2 Ag -0.85709(2) 0.378865(19) 0.87946(2)
Ag1_3 Ag 1.14291(2) 0.378865(19) 0.87946(2)
Ag1_4 Ag 0.14291(2) 0.378865(19) -0.12054(2)
Co1_2 Co -0.48563(4) 0.35739(2) 0.49414(3)
Co1_3 Co 0.51437(4) 0.35739(2) 1.49414(3)
C1_2 C -0.4323(3) 0.27769(19) 0.6329(3)
H1_2 H -0.3868 0.2638 0.6133
C2_2 C -0.4484(3) 0.26046(19) 0.7080(3)
H2_2 H -0.4169 0.2336 0.7467
C3_2 C -0.5182(3) 0.28990(19) 0.7142(3)
H3_2 H -0.5446 0.2875 0.7582
C4_2 C -0.5440(3) 0.32493(17) 0.6418(3)
C5_2 C -0.6156(3) 0.36096(18) 0.6193(3)
C6_2 C -0.6400(3) 0.39317(17) 0.5466(3)
C7_2 C -0.7124(3) 0.42981(18) 0.5216(3)
H4_2 H -0.7555 0.4356 0.5494
C8_2 C -0.7078(3) 0.45525(19) 0.4492(3)
H5_2 H -0.7471 0.4820 0.4171
C9_2 C -0.6334(3) 0.43382(18) 0.4319(3)
H6_2 H -0.6146 0.4443 0.3851
C10_2 C -0.6690(3) 0.36527(18) 0.6780(3)
C11_2 C -0.6369(3) 0.3931(2) 0.7552(3)
H7_2 H -0.5790 0.4089 0.7723
C12_2 C -0.6888(3) 0.3975(2) 0.8065(3)
H8_2 H -0.6655 0.4165 0.8593
C13_2 C -0.8021(3) 0.3495(2) 0.7119(3)
H9_2 H -0.8604 0.3343 0.6962
C14_2 C -0.7536(3) 0.3426(2) 0.6567(3)
H10_2 H -0.7778 0.3227 0.6049
C15_2 C 0.5595(3) 0.44353(19) 0.6209(3)
H11_2 H 0.4998 0.4569 0.6012
C16_2 C 0.6282(3) 0.4616(2) 0.6957(3)
H12_2 H 0.6230 0.4879 0.7348
C17_2 C 0.7038(3) 0.4336(2) 0.7009(3)
H13_2 H 0.7616 0.4372 0.7439
C18_2 C 0.6796(3) 0.3981(2) 0.6303(3)
C19_2 C 0.7342(3) 0.3619(2) 0.6098(3)
C20_2 C 0.7071(3) 0.3253(2) 0.5425(3)
C21_2 C 0.7614(4) 0.2888(2) 0.5157(3)
H14_2 H 0.8250 0.2852 0.5397
C22_2 C 0.7045(4) 0.2602(3) 0.4490(3)
H15_2 H 0.7209 0.2325 0.4184
C23_2 C 0.6168(3) 0.2794(2) 0.4341(3)
H16_2 H 0.5643 0.2668 0.3903
C24_2 C 0.8308(3) 0.3613(2) 0.6666(3)
C25_2 C 0.8646(4) 0.3236(3) 0.7294(4)
H17_2 H 0.8278 0.2951 0.7344
C26_2 C 0.8890(3) 0.3992(3) 0.6592(4)
H18_2 H 0.8698 0.4247 0.6143
C27_2 C 0.9522(4) 0.3276(3) 0.7850(4)
H19_2 H 0.9743 0.3013 0.8283
C28_2 C 0.9765(4) 0.4001(3) 0.7176(4)
H20_2 H 1.0164 0.4267 0.7118
C29_2 C 0.3949(4) 0.2664(2) 0.4351(3)
H21_2 H 0.4129 0.2513 0.4914
C30_2 C 0.3259(4) 0.2466(2) 0.3625(3)
H22_2 H 0.2902 0.2163 0.3610
C31_2 C 0.3201(3) 0.2792(2) 0.2949(3)
H23_2 H 0.2785 0.2761 0.2375
C32_2 C 0.3869(3) 0.31833(18) 0.3253(3)
C33_2 C 0.4097(3) 0.35818(19) 0.2789(3)
C34_2 C 0.4787(3) 0.39436(19) 0.3118(3)
C35_2 C 0.5102(3) 0.4321(2) 0.2655(3)
H24_2 H 0.4881 0.4379 0.2046
C36_2 C 0.5795(3) 0.4588(2) 0.3261(3)
H25_2 H 0.6145 0.4865 0.3150
C37_2 C 0.5882(3) 0.43677(19) 0.4083(3)
H26_2 H 0.6311 0.4477 0.4618
C38_2 C 0.3526(3) 0.36322(19) 0.1858(3)
C39_2 C 0.2958(8) 0.4072(5) 0.1553(7)
H27_2 H 0.2946 0.4346 0.1944
C40_2 C 0.2425(10) 0.4105(6) 0.0694(11)
H28_2 H 0.2073 0.4413 0.0498
C41_2 C 0.3491(9) 0.3262(7) 0.1239(7)
H29_2 H 0.3870 0.2962 0.1386
C42_2 C 0.2907(9) 0.3326(7) 0.0406(7)
H30_2 H 0.2882 0.3057 -0.0004
N1_2 N -0.4890(2) 0.31613(14) 0.5926(2)
N2_2 N -0.5926(2) 0.39686(15) 0.4898(2)
N3_2 N -0.7715(3) 0.37618(18) 0.7861(3)
N4_2 N 0.5885(2) 0.40550(15) 0.5812(2)
N5_2 N 0.6177(2) 0.31803(16) 0.4903(2)
N6_2 N 1.0063(3) 0.3653(2) 0.7812(3)
N6_3 N -0.9937(3) 0.3653(2) 0.7812(3)
N7_2 N 0.4318(2) 0.30925(15) 0.4143(2)
N7_3 N -0.5682(2) 0.30925(15) 0.4143(2)
N8_2 N 0.5286(2) 0.39903(15) 0.4004(2)
N8_3 N -0.4714(2) 0.39903(15) 0.4004(2)
N9_2 N 0.2385(3) 0.37325(19) 0.0142(2)
N9_3 N -0.7615(3) 0.37325(19) 1.0142(2)
N10_2 N -0.8617(11) 0.4784(5) 0.8777(10)
C47_2 C -0.8374(10) 0.5010(6) 0.8218(12)
C48_2 C -0.7990 0.5248 0.7521
H35_2 H -0.7331 0.5236 0.7747
H36_2 H -0.8191 0.5613 0.7400
H37_2 H -0.8213 0.5042 0.6985
C43? C 0.2671(9) 0.3825(9) 0.1676(7)
H31? H 0.2442 0.3912 0.2125
C44? C 0.2144(10) 0.3890(10) 0.0788(10)
H32? H 0.1577 0.4059 0.0656
C45? C 0.3819(7) 0.3483(4) 0.1174(7)
H33? H 0.4404 0.3341 0.1286
C46? C 0.3240(8) 0.3548(5) 0.0339(7)
H34? H 0.3446 0.3458 -0.0125
Sb3? Sb 0.03258(8) 0.27238(6) 0.04825(8)
F7? F -0.0826(10) 0.2824(9) -0.0255(16)
F8? F 0.1485(10) 0.2647(8) 0.1227(12)
F9? F 0.0063(12) 0.2078(11) 0.079(2)
F10? F 0.0375(18) 0.3415(10) 0.011(2)
F11? F 0.064(2) 0.2497(17) -0.0392(13)
F12? F 0.004(2) 0.2998(15) 0.1391(15)
loop_
_geom_bond_atom_site_label_1
_geom_bond_atom_site_label_2
_geom_bond_site_symmetry_1
_geom_bond_site_symmetry_2
Ag1 N3 1_555 1_555
Co1 N1 1_555 1_555
C1 H1 1_555 1_555
C2 C1 1_555 1_555
H2 C2 1_555 1_555
C3 C2 1_555 1_555
H3 C3 1_555 1_555
C4 C3 1_555 1_555
C5 C4 1_555 1_555
C6 C5 1_555 1_555
C7 C6 1_555 1_555
H4 C7 1_555 1_555
C8 C7 1_555 1_555
H5 C8 1_555 1_555
C9 C8 1_555 1_555
H6 C9 1_555 1_555
C10 C5 1_555 1_555
C11 C10 1_555 1_555
H7 C11 1_555 1_555
C12 C11 1_555 1_555
H8 C12 1_555 1_555
C13 H9 1_555 1_555
C14 C10 1_555 1_555
H10 C14 1_555 1_555
C15 H11 1_555 1_555
C16 C15 1_555 1_555
H12 C16 1_555 1_555
C17 C16 1_555 1_555
H13 C17 1_555 1_555
C18 C17 1_555 1_555
C19 C18 1_555 1_555
C20 C19 1_555 1_555
C21 C20 1_555 1_555
H14 C21 1_555 1_555
C22 C21 1_555 1_555
H15 C22 1_555 1_555
C23 C22 1_555 1_555
H16 C23 1_555 1_555
C24 C19 1_555 1_555
C25 C24 1_555 1_555
H17 C25 1_555 1_555
C26 C24 1_555 1_555
H18 C26 1_555 1_555
C27 C25 1_555 1_555
H19 C27 1_555 1_555
C28 C26 1_555 1_555
H20 C28 1_555 1_555
C29 H21 1_555 1_555
C30 C29 1_555 1_555
H22 C30 1_555 1_555
C31 C30 1_555 1_555
H23 C31 1_555 1_555
C32 C31 1_555 1_555
C33 C32 1_555 1_555
C34 C33 1_555 1_555
C35 C34 1_555 1_555
H24 C35 1_555 1_555
C36 C35 1_555 1_555
H25 C36 1_555 1_555
C37 C36 1_555 1_555
H26 C37 1_555 1_555
C38 C33 1_555 1_555
C39 C38 1_555 1_555
H27 C39 1_555 1_555
C40 C39 1_555 1_555
H28 C40 1_555 1_555
C41 C38 1_555 1_555
H29 C41 1_555 1_555
C42 C41 1_555 1_555
H30 C42 1_555 1_555
N1 C1 1_555 1_555
N2 Co1 1_555 1_555
N3 C12 1_555 1_555
N4 C15 1_555 1_555
N5 C20 1_555 1_555
N6 Ag1 1_555 1_555
N7 C29 1_555 1_555
N8 C34 1_555 1_555
N9 Ag1 1_555 1_555
Sb1 F1 1_555 1_555
F2 Sb1 1_555 1_555
F3 Sb1 1_555 1_555
Sb2 F4 1_555 1_555
F5 Sb2 1_555 1_555
F6 Sb2 1_555 1_555
N10 Ag1 1_555 1_555
C47 N10 1_555 1_555
C48 C47 1_555 1_555
H35 C48 1_555 1_555
H36 C48 1_555 1_555
H37 C48 1_555 1_555
C49 H38 1_555 1_555
C50 C49 1_555 1_555
H39 C50 1_555 1_555
C51 C50 1_555 1_555
H40 C51 1_555 1_555
C52 C51 1_555 1_555
H41 C52 1_555 1_555
C53 C52 1_555 1_555
H42 C53 1_555 1_555
C54 C49 1_555 1_555
H43 C54 1_555 1_555
C55 H44 1_555 1_555
C56 C55 1_555 1_555
H45 C56 1_555 1_555
C57 C56 1_555 1_555
H46 C57 1_555 1_555
C58 C57 1_555 1_555
H47 C58 1_555 1_555
C59 C58 1_555 1_555
H48 C59 1_555 1_555
C60 C55 1_555 1_555
H49 C60 1_555 1_555
Ag1_2 N3_2 1_555 1_555
Ag1_3 N6_2 1_555 1_555
Ag1_4 N9_2 1_555 1_555
Co1_2 N4 1_555 1_555
Co1_3 N7 1_555 1_555
C1_2 H1_2 1_555 1_555
C2_2 C1_2 1_555 1_555
H2_2 C2_2 1_555 1_555
C3_2 C2_2 1_555 1_555
H3_2 C3_2 1_555 1_555
C4_2 C3_2 1_555 1_555
C5_2 C4_2 1_555 1_555
C6_2 C5_2 1_555 1_555
C7_2 C6_2 1_555 1_555
H4_2 C7_2 1_555 1_555
C8_2 C7_2 1_555 1_555
H5_2 C8_2 1_555 1_555
C9_2 C8_2 1_555 1_555
H6_2 C9_2 1_555 1_555
C10_2 C5_2 1_555 1_555
C11_2 C10_2 1_555 1_555
H7_2 C11_2 1_555 1_555
C12_2 C11_2 1_555 1_555
H8_2 C12_2 1_555 1_555
C13_2 H9_2 1_555 1_555
C14_2 C10_2 1_555 1_555
H10_2 C14_2 1_555 1_555
C15_2 H11_2 1_555 1_555
C16_2 C15_2 1_555 1_555
H12_2 C16_2 1_555 1_555
C17_2 C16_2 1_555 1_555
H13_2 C17_2 1_555 1_555
C18_2 C17_2 1_555 1_555
C19_2 C18_2 1_555 1_555
C20_2 C19_2 1_555 1_555
C21_2 C20_2 1_555 1_555
H14_2 C21_2 1_555 1_555
C22_2 C21_2 1_555 1_555
H15_2 C22_2 1_555 1_555
C23_2 C22_2 1_555 1_555
H16_2 C23_2 1_555 1_555
C24_2 C19_2 1_555 1_555
C25_2 C24_2 1_555 1_555
H17_2 C25_2 1_555 1_555
C26_2 C24_2 1_555 1_555
H18_2 C26_2 1_555 1_555
C27_2 C25_2 1_555 1_555
H19_2 C27_2 1_555 1_555
C28_2 C26_2 1_555 1_555
H20_2 C28_2 1_555 1_555
C29_2 H21_2 1_555 1_555
C30_2 C29_2 1_555 1_555
H22_2 C30_2 1_555 1_555
C31_2 C30_2 1_555 1_555
H23_2 C31_2 1_555 1_555
C32_2 C31_2 1_555 1_555
C33_2 C32_2 1_555 1_555
C34_2 C33_2 1_555 1_555
C35_2 C34_2 1_555 1_555
H24_2 C35_2 1_555 1_555
C36_2 C35_2 1_555 1_555
H25_2 C36_2 1_555 1_555
C37_2 C36_2 1_555 1_555
H26_2 C37_2 1_555 1_555
C38_2 C33_2 1_555 1_555
C39_2 C38_2 1_555 1_555
H27_2 C39_2 1_555 1_555
C40_2 C39_2 1_555 1_555
H28_2 C40_2 1_555 1_555
C41_2 C38_2 1_555 1_555
H29_2 C41_2 1_555 1_555
C42_2 C41_2 1_555 1_555
H30_2 C42_2 1_555 1_555
N1_2 Co1_2 1_555 1_555
N2_2 Co1_2 1_555 1_555
N3_2 C12_2 1_555 1_555
N4_2 Co1 1_555 1_555
N5_2 Co1 1_555 1_555
N6_2 C27_2 1_555 1_555
N6_3 Ag1_2 1_555 1_555
N7_2 Co1 1_555 1_555
N7_3 Co1_2 1_555 1_555
N8_2 Co1 1_555 1_555
N8_3 Co1_2 1_555 1_555
N9_2 C40_2 1_555 1_555
N9_3 Ag1_2 1_555 1_555
F1B Sb1 1_555 1_555
F2B Sb1 1_555 1_555
F3B Sb1 1_555 1_555
F4B Sb2 1_555 1_555
F5B Sb2 1_555 1_555
F6B Sb2 1_555 1_555
N10_2 Ag1_2 1_555 1_555
C47_2 N10_2 1_555 1_555
C48_2 C47_2 1_555 1_555
H35_2 C48_2 1_555 1_555
H36_2 C48_2 1_555 1_555
H37_2 C48_2 1_555 1_555
C4 N1 1_555 1_555
C6 N2 1_555 1_555
C9 N2 1_555 1_555
C13 C14 1_555 1_555
C13 N3 1_555 1_555
C18 N4 1_555 1_555
C23 N5 1_555 1_555
C27 N6 1_555 1_555
C28 N6 1_555 1_555
C32 N7 1_555 1_555
C37 N8 1_555 1_555
C40 N9 1_555 1_555
C42 N9 1_555 1_555
N5 Co1_2 1_555 1_555
N8 Co1_3 1_555 1_555
C53 C54 1_555 1_555
C59 C60 1_555 1_555
C1_2 N1_2 1_555 1_555
C4_2 N1_2 1_555 1_555
C6_2 N2_2 1_555 1_555
C9_2 N2_2 1_555 1_555
C13_2 C14_2 1_555 1_555
C13_2 N3_2 1_555 1_555
C15_2 N4_2 1_555 1_555
C18_2 N4_2 1_555 1_555
C20_2 N5_2 1_555 1_555
C23_2 N5_2 1_555 1_555
C28_2 N6_2 1_555 1_555
C29_2 N7_2 1_555 1_555
C32_2 N7_2 1_555 1_555
C34_2 N8_2 1_555 1_555
C37_2 N8_2 1_555 1_555
C42_2 N9_2 1_555 1_555

#END
