
#######################################################################
#
#                 Cambridge Crystallographic Data Centre
#                                CCDC 
#
#######################################################################
#
# If this CIF has been generated from an entry in the Cambridge 
# Structural Database, then it will include bibliographic, chemical, 
# crystal, experimental, refinement or atomic coordinate data resulting 
# from the CCDC's data processing and validation procedures.
#
#######################################################################

data_CEXLAT
_symmetry_cell_setting           monoclinic
_symmetry_space_group_name_H-M   'P 21/n'
_symmetry_Int_Tables_number      14
_space_group_name_Hall           '-P 2yn'
loop_
_symmetry_equiv_pos_site_id
_symmetry_equiv_pos_as_xyz
1 x,y,z
2 1/2-x,1/2+y,1/2-z
3 -x,-y,-z
4 1/2+x,1/2-y,1/2+z
_cell_length_a                   7.8410(4)
_cell_length_b                   11.6990(7)
_cell_length_c                   12.0084(7)
_cell_angle_alpha                90
_cell_angle_beta                 100.9430(10)
_cell_angle_gamma                90
_cell_volume                     1081.52
loop_
_atom_site_label
_atom_site_type_symbol
_atom_site_fract_x
_atom_site_fract_y
_atom_site_fract_z
La1 La 0.62107(3) 0.31399(2) 0.32586(2)
Na1 Na 0.6428(3) 0.7940(2) 0.4268(2)
Na2 Na 0.8874(2) 0.6879(2) 0.6665(2)
O1 O 0.7053(5) 0.4773(3) 0.4665(3)
O2 O 0.6152(4) 0.6156(3) 0.5690(3)
O3 O 0.5319(5) 0.5064(3) 0.2351(3)
O4 O 0.6390(5) 0.6846(3) 0.2494(3)
O5 O 0.8582(5) 0.4261(3) 0.2457(3)
O6 O 0.9374(5) 0.6001(3) 0.1986(3)
O7 O 0.5832(5) 0.2823(4) 0.1122(3)
O8 O 0.4189(5) 0.2199(4) -0.0473(3)
O9 O 0.2985(5) 0.2969(3) 0.2059(3)
O10 O 0.1324(5) 0.2764(4) 0.0334(3)
O11 O 0.7341(6) 0.8873(4) 0.5995(4)
H1 H 0.819(5) 0.931(5) 0.625(5)
H2 H 0.652(6) 0.899(6) 0.635(6)
C1 C 0.5940(5) 0.5262(4) 0.5106(4)
C2 C 0.6515(6) 0.5782(4) 0.2394(4)
C3 C 0.8327(6) 0.5310(4) 0.2273(4)
C4 C 0.4387(6) 0.2578(4) 0.0506(4)
C5 C 0.2780(6) 0.2784(4) 0.1024(4)
La1B La 0.37893(3) 0.68601(2) 0.67414(2)
La1A La 0.87893(3) 0.81399(2) 0.17414(2)
La1C La 0.12107(3) 0.18601(2) -0.17414(2)
La1A_2 La 0.87893(3) -0.18601(2) 0.17414(2)
La1C_2 La 1.12107(3) 0.18601(2) 0.82586(2)
Na1B Na 0.3572(3) 0.2060(2) 0.5732(2)
Na1A Na 0.8572(3) 0.2940(2) 0.0732(2)
Na1A_2 Na -0.1428(3) 0.2940(2) 0.0732(2)
Na1_2 Na 0.6428(3) -0.2060(2) 0.4268(2)
Na1B_2 Na 1.3572(3) 0.2060(2) 0.5732(2)
Na2B Na 0.1126(2) 0.3121(2) 0.3335(2)
Na2C Na 0.3874(2) 0.8121(2) 0.1665(2)
Na2B_2 Na 1.1126(2) 0.3121(2) 0.3335(2)
Na2A Na 0.6126(2) 0.1879(2) -0.1665(2)
Na2C_2 Na 0.3874(2) -0.1879(2) 0.1665(2)
Na2A_2 Na 0.6126(2) 0.1879(2) 0.8335(2)
O1B O 0.2947(5) 0.5227(3) 0.5335(3)
O2B O 0.3848(4) 0.3844(3) 0.4310(3)
O3A O 0.9681(5) 0.0064(3) 0.2649(3)
O3B O 0.4681(5) 0.4936(3) 0.7649(3)
O4A O 0.8610(5) 0.1846(3) 0.2506(3)
O4C O 1.1390(5) 0.8154(3) 0.7494(3)
O4C_2 O 0.1390(5) 0.8154(3) 0.7494(3)
O4B O 0.3610(5) 0.3154(3) 0.7506(3)
O4A_2 O -0.1390(5) 0.1846(3) 0.2506(3)
O5A O 0.6418(5) -0.0739(3) 0.2543(3)
O5A_2 O 0.6418(5) 0.9261(3) 0.2543(3)
O5B O 1.1418(5) 0.5739(3) 0.7543(3)
O5B_2 O 0.1418(5) 0.5739(3) 0.7543(3)
O5C O 0.3582(5) 0.0739(3) 0.7457(3)
O5_2 O -0.1418(5) 0.4261(3) 0.2457(3)
O6A O 0.5626(5) 0.1001(3) 0.3014(3)
O6C O 0.4374(5) 0.8999(3) 0.6986(3)
O7C O 1.0832(5) 0.2177(4) 0.6122(3)
O7A O 0.9168(5) 0.7823(4) 0.3878(3)
O7B O 0.4168(5) 0.7177(4) 0.8878(3)
O7C_2 O 0.0832(5) 0.2177(4) 0.6122(3)
O8C O 0.9189(5) 0.2801(4) 0.4527(3)
O8A O 1.0811(5) 0.7199(4) 0.5473(3)
O8A_2 O 0.0811(5) 0.7199(4) 0.5473(3)
O8C_2 O -0.0811(5) 0.2801(4) 0.4527(3)
O9C O 0.7985(5) 0.2031(3) 0.7059(3)
O9B O 0.7015(5) 0.7031(3) 0.7941(3)
O10C O 0.6324(5) 0.2236(4) 0.5334(3)
O10A O 0.3676(5) 0.7764(4) 0.4666(3)
O11B O 0.2659(6) 0.1127(4) 0.4005(4)
H1B H 0.181(5) 0.069(5) 0.375(5)
H2B H 0.348(6) 0.101(6) 0.365(6)
C1B C 0.4060(5) 0.4738(4) 0.4894(4)
C2A C 0.8485(6) 0.0782(4) 0.2606(4)
C3A C 0.6673(6) 0.0310(4) 0.2727(4)
C4C C 0.9387(6) 0.2422(4) 0.5506(4)
C5C C 0.7780(6) 0.2216(4) 0.6024(4)
loop_
_geom_bond_atom_site_label_1
_geom_bond_atom_site_label_2
_geom_bond_site_symmetry_1
_geom_bond_site_symmetry_2
La1 O1 1_555 1_555
Na1 O2 1_555 1_555
Na2 O2 1_555 1_555
O1 C1 1_555 1_555
O2 C1 1_555 1_555
O3 La1 1_555 1_555
O4 Na1 1_555 1_555
O5 La1 1_555 1_555
O6 C3 1_555 1_555
O7 La1 1_555 1_555
O8 C4 1_555 1_555
O9 La1 1_555 1_555
O10 C5 1_555 1_555
O11 Na1 1_555 1_555
H1 O11 1_555 1_555
H2 O11 1_555 1_555
C1 C1B 1_555 1_555
C2 O3 1_555 1_555
C3 O5 1_555 1_555
C4 O7 1_555 1_555
C5 O9 1_555 1_555
La1B O2 1_555 1_555
La1A O4 1_555 1_555
La1C O8 1_555 1_555
La1A_2 O3A 1_555 1_555
La1C_2 O7C 1_555 1_555
Na1B O2B 1_555 1_555
Na1A O5 1_555 1_555
Na1A_2 O10 1_555 1_555
Na1_2 O5A 1_555 1_555
Na1B_2 O7C 1_555 1_555
Na2B O9 1_555 1_555
Na2C O4 1_555 1_555
Na2B_2 O5 1_555 1_555
Na2A O8 1_555 1_555
Na2C_2 O5A 1_555 1_555
Na2A_2 O4B 1_555 1_555
O1B La1B 1_555 1_555
O2B La1 1_555 1_555
O3A C2A 1_555 1_555
O3B La1B 1_555 1_555
O4A La1 1_555 1_555
O4C Na2 1_555 1_555
O4C_2 La1B 1_555 1_555
O4B Na1B 1_555 1_555
O4A_2 Na1A_2 1_555 1_555
O5A La1A_2 1_555 1_555
O5A_2 Na1 1_555 1_555
O5B Na2 1_555 1_555
O5B_2 La1B 1_555 1_555
O5C Na1B 1_555 1_555
O5_2 Na1A_2 1_555 1_555
O6A La1 1_555 1_555
O6C La1B 1_555 1_555
O7C C4C 1_555 1_555
O7A Na1 1_555 1_555
O7B La1B 1_555 1_555
O7C_2 Na1B 1_555 1_555
O8C La1 1_555 1_555
O8A Na2 1_555 1_555
O8A_2 La1B 1_555 1_555
O8C_2 Na2B 1_555 1_555
O9C La1C_2 1_555 1_555
O9B Na2 1_555 1_555
O10C La1 1_555 1_555
O10A Na1 1_555 1_555
O11B Na1B 1_555 1_555
H1B O11B 1_555 1_555
H2B O11B 1_555 1_555
C1B O1B 1_555 1_555
C2A O4A 1_555 1_555
C3A O5A 1_555 1_555
C4C O8C 1_555 1_555
C5C O9C 1_555 1_555
Na2 O11 1_555 1_555
O4 C2 1_555 1_555
O6 La1A 1_555 1_555
O7 Na1A 1_555 1_555
O10 La1C 1_555 1_555
C2 C3 1_555 1_555
C4 C5 1_555 1_555
La1B O9B 1_555 1_555
La1B O10A 1_555 1_555
La1A O5A_2 1_555 1_555
La1A O7A 1_555 1_555
Na1B O10C 1_555 1_555
Na1A O4A 1_555 1_555
Na2B O2B 1_555 1_555
Na2B O4A_2 1_555 1_555
Na2B O5_2 1_555 1_555
Na2B O11B 1_555 1_555
Na2C O5A_2 1_555 1_555
Na2B_2 O4A 1_555 1_555
Na2B_2 O8C 1_555 1_555
Na2A_2 O5C 1_555 1_555
Na2A_2 O9C 1_555 1_555
O2B C1B 1_555 1_555
O6A C3A 1_555 1_555
O10C C5C 1_555 1_555
C2A C3A 1_555 1_555
C4C C5C 1_555 1_555

#END
