
#######################################################################
#
#                 Cambridge Crystallographic Data Centre
#                                CCDC 
#
#######################################################################
#
# If this CIF has been generated from an entry in the Cambridge 
# Structural Database, then it will include bibliographic, chemical, 
# crystal, experimental, refinement or atomic coordinate data resulting 
# from the CCDC's data processing and validation procedures.
#
#######################################################################

data_CEYMAW
_symmetry_cell_setting           triclinic
_symmetry_space_group_name_H-M   'P -1'
_symmetry_Int_Tables_number      2
_space_group_name_Hall           '-P 1'
loop_
_symmetry_equiv_pos_site_id
_symmetry_equiv_pos_as_xyz
1 x,y,z
2 -x,-y,-z
_cell_length_a                   7.4241(15)
_cell_length_b                   12.493(3)
_cell_length_c                   12.627(3)
_cell_angle_alpha                74.51(3)
_cell_angle_beta                 78.00(3)
_cell_angle_gamma                85.82(3)
_cell_volume                     1103.76
loop_
_atom_site_label
_atom_site_type_symbol
_atom_site_fract_x
_atom_site_fract_y
_atom_site_fract_z
Cu1 Cu 0.06682(12) 0.32142(7) 0.74778(7)
N1 N 0.0047(8) 0.4569(5) 0.8085(5)
N2 N 0.3133(8) 0.3929(5) 0.6948(5)
C1 C 0.2551(9) -0.0271(5) 0.2562(6)
C2 C 0.2093(8) 0.0390(5) 0.3437(5)
C3 C 0.1037(10) 0.1356(6) 0.3234(6)
H1 H 0.0547 0.1575 0.2569
C4 C 0.0687(10) 0.2006(6) 0.3992(6)
H2 H -0.0034 0.2668 0.3836
C5 C 0.1363(8) 0.1709(5) 0.4963(5)
C6 C 0.2368(10) 0.0736(6) 0.5182(6)
H3 H 0.2811 0.0504 0.5863
C7 C 0.2746(10) 0.0083(6) 0.4418(5)
H4 H 0.3462 -0.0581 0.4578
C8 C 0.0987(8) 0.2415(6) 0.5774(6)
C9 C 0.4135(9) 0.0299(5) 0.1629(5)
C10 C 0.5953(9) 0.0051(6) 0.1767(6)
H5 H 0.6206 -0.0496 0.2406
C11 C 0.7389(9) 0.0609(6) 0.0961(5)
H6 H 0.8624 0.0441 0.1053
C12 C 0.3778(9) 0.1083(6) 0.0694(5)
H7 H 0.2543 0.1251 0.0601
C13 C 0.5214(9) 0.1627(6) -0.0110(6)
H8 H 0.4959 0.2154 -0.0761
C14 C 0.7034(9) 0.1406(6) 0.0029(5)
C15 C 0.8580(9) 0.2021(6) -0.0821(6)
C16 C -0.1504(11) 0.4845(7) 0.8678(6)
H9 H -0.2546 0.4391 0.8824
C17 C -0.1682(14) 0.5780(8) 0.9102(7)
H10 H -0.2832 0.5963 0.9514
C18 C -0.0209(15) 0.6422(7) 0.8922(7)
H11 H -0.0301 0.7037 0.9240
C19 C 0.1455(14) 0.6181(6) 0.8265(7)
C20 C 0.3090(18) 0.6822(8) 0.7976(9)
H12 H 0.3078 0.7464 0.8245
C21 C 0.4648(17) 0.6542(8) 0.7335(10)
H13 H 0.5682 0.7012 0.7124
C22 C 0.4763(12) 0.5541(7) 0.6967(7)
C23 C 0.3184(10) 0.4891(6) 0.7237(6)
C24 C 0.1544(11) 0.5228(6) 0.7893(6)
C25 C 0.6333(13) 0.5160(9) 0.6329(8)
H14 H 0.7424 0.5583 0.6091
C26 C 0.6293(11) 0.4196(9) 0.6054(7)
H15 H 0.7371 0.3927 0.5645
C27 C 0.4662(11) 0.3582(7) 0.6368(7)
H16 H 0.4655 0.2906 0.6160
O1 O 0.1389(7) 0.2028(4) 0.6732(4)
O2 O 0.0352(7) 0.3375(4) 0.5485(4)
O3 O 0.8244(7) 0.2573(4) -0.1786(4)
O4 O 1.0128(7) 0.2001(4) -0.0596(4)
O5 O 0.3031(8) -0.1377(5) 0.3088(5)
H17 H 0.2709 -0.1814 0.2762
O6 O 0.107(4) -0.020(2) 0.205(2)
H18 H 0.0364 -0.0735 0.2397
Cu1_2 Cu 1.06682(12) 0.32142(7) -0.25222(7)
O3_2 O -0.1756(7) 0.2573(4) 0.8214(4)
O4_2 O 0.0128(7) 0.2001(4) 0.9404(4)
loop_
_geom_bond_atom_site_label_1
_geom_bond_atom_site_label_2
_geom_bond_site_symmetry_1
_geom_bond_site_symmetry_2
Cu1 N1 1_555 1_555
N1 C16 1_555 1_555
N2 Cu1 1_555 1_555
C1 C2 1_555 1_555
C2 C3 1_555 1_555
C3 H1 1_555 1_555
C4 C3 1_555 1_555
H2 C4 1_555 1_555
C5 C4 1_555 1_555
C6 C5 1_555 1_555
H3 C6 1_555 1_555
C7 C2 1_555 1_555
H4 C7 1_555 1_555
C8 C5 1_555 1_555
C9 C1 1_555 1_555
C10 C9 1_555 1_555
H5 C10 1_555 1_555
C11 C10 1_555 1_555
H6 C11 1_555 1_555
C12 C9 1_555 1_555
H7 C12 1_555 1_555
C13 C12 1_555 1_555
H8 C13 1_555 1_555
C14 C11 1_555 1_555
C15 C14 1_555 1_555
C16 H9 1_555 1_555
C17 C16 1_555 1_555
H10 C17 1_555 1_555
C18 C17 1_555 1_555
H11 C18 1_555 1_555
C19 C18 1_555 1_555
C20 C19 1_555 1_555
H12 C20 1_555 1_555
C21 C20 1_555 1_555
H13 C21 1_555 1_555
C22 C21 1_555 1_555
C23 N2 1_555 1_555
C24 N1 1_555 1_555
C25 C22 1_555 1_555
H14 C25 1_555 1_555
C26 C25 1_555 1_555
H15 C26 1_555 1_555
C27 N2 1_555 1_555
H16 C27 1_555 1_555
O1 Cu1 1_555 1_555
O2 Cu1 1_555 1_555
O3 C15 1_555 1_555
O4 C15 1_555 1_555
O5 C1 1_555 1_555
H17 O5 1_555 1_555
O6 C1 1_555 1_555
H18 O6 1_555 1_555
Cu1_2 O3 1_555 1_555
O3_2 Cu1 1_555 1_555
O4_2 Cu1 1_555 1_555
C6 C7 1_555 1_555
C8 O1 1_555 1_555
C8 O2 1_555 1_555
C13 C14 1_555 1_555
C19 C24 1_555 1_555
C22 C23 1_555 1_555
C23 C24 1_555 1_555
C26 C27 1_555 1_555
O4 Cu1_2 1_555 1_555

#END
