
#######################################################################
#
#                 Cambridge Crystallographic Data Centre
#                                CCDC 
#
#######################################################################
#
# If this CIF has been generated from an entry in the Cambridge 
# Structural Database, then it will include bibliographic, chemical, 
# crystal, experimental, refinement or atomic coordinate data resulting 
# from the CCDC's data processing and validation procedures.
#
#######################################################################

data_CEYSOP
_symmetry_cell_setting           orthorhombic
_symmetry_space_group_name_H-M   'C 2 2 21'
_symmetry_Int_Tables_number      20
_space_group_name_Hall           'C 2n 2'
loop_
_symmetry_equiv_pos_site_id
_symmetry_equiv_pos_as_xyz
1 x,y,z
2 -x,-y,1/2+z
3 -x,y,1/2-z
4 x,-y,-z
5 1/2+x,1/2+y,z
6 1/2-x,1/2-y,1/2+z
7 1/2-x,1/2+y,1/2-z
8 1/2+x,1/2-y,-z
_cell_length_a                   10.710(10)
_cell_length_b                   20.088(18)
_cell_length_c                   27.63(3)
_cell_angle_alpha                90
_cell_angle_beta                 90
_cell_angle_gamma                90
_cell_volume                     5944.39
loop_
_atom_site_label
_atom_site_type_symbol
_atom_site_fract_x
_atom_site_fract_y
_atom_site_fract_z
O6 O 0.4600(11) 0.0944(5) 0.2898(4)
O7 O 0.6441(16) 0.0418(9) 0.2661(7)
O8 O 0.5000 0.0026(8) 0.2500
Cl2 Cl 0.5281(4) 0.0595(2) 0.2485(2)
O6B O 0.5400(11) 0.0944(5) 0.2102(4)
O7B O 0.3559(16) 0.0418(9) 0.2339(7)
Cl2B Cl 0.4719(4) 0.0595(2) 0.2515(2)
O9 O 0.5839(16) 0.4603(8) 0.2461(8)
Ni1 Ni 0.67739(8) 0.21372(5) 0.51569(3)
O1 O 0.4934(4) 0.2220(3) 0.49272(19)
O2 O 0.3586(4) 0.2951(3) 0.45976(17)
C1 C 0.4663(7) 0.2759(4) 0.4716(2)
C2 C 0.5732(7) 0.3265(4) 0.4601(3)
H1 H 0.5688 0.3625 0.4850
C3 C 0.5559(7) 0.3590(4) 0.4118(3)
H2 H 0.6181 0.3952 0.4084
H3 H 0.4719 0.3794 0.4106
C4 C 0.5694(7) 0.3125(4) 0.3704(3)
C5 C 0.6735(8) 0.3095(4) 0.3364(3)
C6 C 0.7790(8) 0.3471(6) 0.3303(3)
H4 H 0.7988 0.3809 0.3532
C7 C 0.8580(10) 0.3361(7) 0.2907(4)
H5 H 0.9276 0.3644 0.2851
C8 C 0.8330(10) 0.2827(7) 0.2594(4)
H6 H 0.8891 0.2735 0.2336
C9 C 0.7292(9) 0.2436(6) 0.2653(3)
H7 H 0.7123 0.2076 0.2440
C10 C 0.6495(7) 0.2586(4) 0.3036(3)
N1 N 0.5357(7) 0.2303(4) 0.3161(2)
H8 H 0.4992 0.1971 0.3009
C11 C 0.4889(9) 0.2626(4) 0.3564(3)
H9 H 0.4126 0.2520 0.3721
C12 C 0.6738(9) 0.1300(4) 0.6067(3)
H10 H 0.7377 0.1603 0.6159
C13 C 0.6359(9) 0.0851(5) 0.6406(3)
H11 H 0.6702 0.0844 0.6723
C14 C 0.5456(9) 0.0412(6) 0.6263(4)
H12 H 0.5149 0.0087 0.6482
C15 C 0.4999(10) 0.0443(5) 0.5801(4)
H13 H 0.4378 0.0138 0.5696
C16 C 0.5440(9) 0.0914(5) 0.5495(4)
H14 H 0.5122 0.0932 0.5175
C17 C 0.8122(10) 0.0954(5) 0.4685(3)
H15 H 0.8466 0.0926 0.5001
C18 C 0.8546(9) 0.0519(5) 0.4346(4)
H16 H 0.9136 0.0183 0.4424
C19 C 0.8084(11) 0.0587(6) 0.3887(4)
H17 H 0.8381 0.0309 0.3633
C20 C 0.7197(12) 0.1056(6) 0.3795(4)
H18 H 0.6865 0.1104 0.3478
C21 C 0.6780(10) 0.1462(4) 0.4164(3)
H19 H 0.6139 0.1777 0.4099
C22 C 0.7209(9) 0.3275(5) 0.5869(3)
H20 H 0.7934 0.3342 0.5677
C23 C 0.7048(14) 0.3659(6) 0.6275(5)
H21 H 0.7636 0.3989 0.6368
C24 C 0.5962(19) 0.3533(9) 0.6544(5)
H22 H 0.5824 0.3772 0.6836
C25 C 0.5105(13) 0.3079(7) 0.6397(4)
H23 H 0.4352 0.3013 0.6572
C26 C 0.5350(9) 0.2734(6) 0.6005(3)
H24 H 0.4762 0.2408 0.5904
N2 N 0.6955(5) 0.2928(3) 0.4660(2)
H25 H 0.7539 0.3227 0.4771
H26 H 0.7223 0.2767 0.4366
N3 N 0.6303(6) 0.1353(4) 0.5628(2)
N4 N 0.7241(6) 0.1426(4) 0.4602(3)
N5 N 0.6402(6) 0.2817(4) 0.5734(2)
Ni1G Ni 1.17739(8) 0.28628(5) 0.48431(3)
Ni1G_2 Ni 0.17739(8) 0.28628(5) 0.48431(3)
O1G O 0.9934(4) 0.2780(3) 0.50728(19)
O2G O 0.8586(4) 0.2049(3) 0.54024(17)
O2_2 O 1.3586(4) 0.2951(3) 0.45976(17)
C1G C 0.9663(7) 0.2241(4) 0.5284(2)
C2G C 1.0732(7) 0.1735(4) 0.5399(3)
H1G H 1.0688 0.1375 0.5150
C3G C 1.0559(7) 0.1410(4) 0.5882(3)
H2G H 1.1181 0.1048 0.5916
H3G H 0.9719 0.1206 0.5894
C4G C 1.0694(7) 0.1875(4) 0.6296(3)
C5G C 1.1735(8) 0.1905(4) 0.6636(3)
C6G C 1.2790(8) 0.1529(6) 0.6697(3)
H4G H 1.2988 0.1191 0.6468
C7G C 1.3580(10) 0.1639(7) 0.7093(4)
H5G H 1.4276 0.1356 0.7149
C8G C 1.3330(10) 0.2173(7) 0.7406(4)
H6G H 1.3891 0.2265 0.7664
C9G C 1.2292(9) 0.2564(6) 0.7347(3)
H7G H 1.2123 0.2924 0.7560
C10G C 1.1495(7) 0.2414(4) 0.6964(3)
N1G N 1.0357(7) 0.2697(4) 0.6839(2)
H8G H 0.9992 0.3029 0.6991
C11G C 0.9889(9) 0.2374(4) 0.6436(3)
H9G H 0.9126 0.2480 0.6279
C12G C 1.1738(9) 0.3700(4) 0.3933(3)
H10G H 1.2377 0.3397 0.3841
C13G C 1.1359(9) 0.4149(5) 0.3594(3)
H11G H 1.1702 0.4156 0.3277
C14G C 1.0456(9) 0.4588(6) 0.3737(4)
H12G H 1.0149 0.4913 0.3518
C15G C 0.9999(10) 0.4557(5) 0.4199(4)
H13G H 0.9378 0.4862 0.4304
C16G C 1.0440(9) 0.4086(5) 0.4505(4)
H14G H 1.0122 0.4068 0.4825
C17G C 1.3122(10) 0.4046(5) 0.5315(3)
H15G H 1.3466 0.4074 0.4999
C18G C 1.3546(9) 0.4481(5) 0.5654(4)
H16G H 1.4136 0.4817 0.5576
C19G C 1.3084(11) 0.4413(6) 0.6113(4)
H17G H 1.3381 0.4691 0.6367
C20G C 1.2197(12) 0.3944(6) 0.6205(4)
H18G H 1.1865 0.3896 0.6522
C21G C 1.1780(10) 0.3538(4) 0.5836(3)
H19G H 1.1139 0.3223 0.5901
C22G C 1.2209(9) 0.1725(5) 0.4131(3)
H20G H 1.2934 0.1658 0.4323
C23G C 1.2048(14) 0.1341(6) 0.3725(5)
H21G H 1.2636 0.1011 0.3632
C24G C 1.0962(19) 0.1467(9) 0.3456(5)
H22G H 1.0824 0.1228 0.3164
C25G C 1.0105(13) 0.1921(7) 0.3603(4)
H23G H 0.9352 0.1987 0.3428
C26G C 1.0350(9) 0.2266(6) 0.3995(3)
H24G H 0.9762 0.2592 0.4096
N2G N 1.1955(5) 0.2072(3) 0.5340(2)
H25G H 1.2539 0.1773 0.5229
H26G H 1.2223 0.2233 0.5634
N3G N 1.1303(6) 0.3647(4) 0.4372(2)
N4G N 1.2241(6) 0.3574(4) 0.5398(3)
N5G N 1.1402(6) 0.2183(4) 0.4266(2)
O3? O 0.1765(17) -0.0026(8) 0.5585(6)
O4? O 0.0900(14) 0.0000 0.5000
O5? O 0.2793(6) 0.0587(4) 0.4984(3)
Cl1? Cl 0.2095(3) -0.0029(2) 0.51186(15)
loop_
_geom_bond_atom_site_label_1
_geom_bond_atom_site_label_2
_geom_bond_site_symmetry_1
_geom_bond_site_symmetry_2
Ni1 O1 1_555 1_555
O1 C1 1_555 1_555
O2 C1 1_555 1_555
O6 Cl2 1_555 1_555
O7 Cl2 1_555 1_555
O8 Cl2 1_555 1_555
C1 C2 1_555 1_555
C2 H1 1_555 1_555
C3 C2 1_555 1_555
H2 C3 1_555 1_555
H3 C3 1_555 1_555
C4 C3 1_555 1_555
C5 C4 1_555 1_555
C6 C5 1_555 1_555
H4 C6 1_555 1_555
C7 C6 1_555 1_555
H5 C7 1_555 1_555
C8 C7 1_555 1_555
H6 C8 1_555 1_555
C9 C8 1_555 1_555
H7 C9 1_555 1_555
C10 C5 1_555 1_555
N1 C10 1_555 1_555
H8 N1 1_555 1_555
C11 C4 1_555 1_555
H9 C11 1_555 1_555
C12 H10 1_555 1_555
C13 C12 1_555 1_555
H11 C13 1_555 1_555
C14 C13 1_555 1_555
H12 C14 1_555 1_555
C15 C14 1_555 1_555
H13 C15 1_555 1_555
C16 C15 1_555 1_555
H14 C16 1_555 1_555
C17 H15 1_555 1_555
C18 C17 1_555 1_555
H16 C18 1_555 1_555
C19 C18 1_555 1_555
H17 C19 1_555 1_555
C20 C19 1_555 1_555
H18 C20 1_555 1_555
C21 C20 1_555 1_555
H19 C21 1_555 1_555
C22 H20 1_555 1_555
C23 C22 1_555 1_555
H21 C23 1_555 1_555
C24 C23 1_555 1_555
H22 C24 1_555 1_555
C25 C24 1_555 1_555
H23 C25 1_555 1_555
C26 C25 1_555 1_555
H24 C26 1_555 1_555
Cl2 O6B 1_555 1_555
N2 Ni1 1_555 1_555
H25 N2 1_555 1_555
H26 N2 1_555 1_555
N3 Ni1 1_555 1_555
N4 Ni1 1_555 1_555
N5 Ni1 1_555 1_555
Ni1G O1G 1_555 1_555
Ni1G_2 O2 1_555 1_555
O1G C1G 1_555 1_555
O2G Ni1 1_555 1_555
O2_2 Ni1G 1_555 1_555
O6B Cl2B 1_555 1_555
O7B Cl2 1_555 1_555
C1G O2G 1_555 1_555
C2G C1G 1_555 1_555
H1G C2G 1_555 1_555
C3G C2G 1_555 1_555
H2G C3G 1_555 1_555
H3G C3G 1_555 1_555
C4G C3G 1_555 1_555
C5G C4G 1_555 1_555
C6G C5G 1_555 1_555
H4G C6G 1_555 1_555
C7G C6G 1_555 1_555
H5G C7G 1_555 1_555
C8G C7G 1_555 1_555
H6G C8G 1_555 1_555
C9G C8G 1_555 1_555
H7G C9G 1_555 1_555
C10G C5G 1_555 1_555
N1G C10G 1_555 1_555
H8G N1G 1_555 1_555
C11G C4G 1_555 1_555
H9G C11G 1_555 1_555
C12G H10G 1_555 1_555
C13G C12G 1_555 1_555
H11G C13G 1_555 1_555
C14G C13G 1_555 1_555
H12G C14G 1_555 1_555
C15G C14G 1_555 1_555
H13G C15G 1_555 1_555
C16G C15G 1_555 1_555
H14G C16G 1_555 1_555
C17G H15G 1_555 1_555
C18G C17G 1_555 1_555
H16G C18G 1_555 1_555
C19G C18G 1_555 1_555
H17G C19G 1_555 1_555
C20G C19G 1_555 1_555
H18G C20G 1_555 1_555
C21G C20G 1_555 1_555
H19G C21G 1_555 1_555
C22G H20G 1_555 1_555
C23G C22G 1_555 1_555
H21G C23G 1_555 1_555
C24G C23G 1_555 1_555
H22G C24G 1_555 1_555
C25G C24G 1_555 1_555
H23G C25G 1_555 1_555
C26G C25G 1_555 1_555
H24G C26G 1_555 1_555
Cl2B O6 1_555 1_555
N2G Ni1G 1_555 1_555
H25G N2G 1_555 1_555
H26G N2G 1_555 1_555
N3G Ni1G 1_555 1_555
N4G Ni1G 1_555 1_555
N5G Ni1G 1_555 1_555
O7 Cl2B 1_555 1_555
O8 Cl2B 1_555 1_555
C2 N2 1_555 1_555
C9 C10 1_555 1_555
N1 C11 1_555 1_555
C12 N3 1_555 1_555
C16 N3 1_555 1_555
C17 N4 1_555 1_555
C21 N4 1_555 1_555
C22 N5 1_555 1_555
C26 N5 1_555 1_555
Cl2 Cl2B 1_555 1_555
O7B Cl2B 1_555 1_555
C2G N2G 1_555 1_555
C9G C10G 1_555 1_555
N1G C11G 1_555 1_555
C12G N3G 1_555 1_555
C16G N3G 1_555 1_555
C17G N4G 1_555 1_555
C21G N4G 1_555 1_555
C22G N5G 1_555 1_555
C26G N5G 1_555 1_555

#END
