
#######################################################################
#
#                 Cambridge Crystallographic Data Centre
#                                CCDC 
#
#######################################################################
#
# If this CIF has been generated from an entry in the Cambridge 
# Structural Database, then it will include bibliographic, chemical, 
# crystal, experimental, refinement or atomic coordinate data resulting 
# from the CCDC's data processing and validation procedures.
#
#######################################################################

data_CEYTAC03
_symmetry_cell_setting           monoclinic
_symmetry_space_group_name_H-M   'P 21/n'
_symmetry_Int_Tables_number      14
_space_group_name_Hall           '-P 2yn'
loop_
_symmetry_equiv_pos_site_id
_symmetry_equiv_pos_as_xyz
1 x,y,z
2 1/2-x,1/2+y,1/2-z
3 -x,-y,-z
4 1/2+x,1/2-y,1/2+z
_cell_length_a                   9.9606(11)
_cell_length_b                   9.2552(10)
_cell_length_c                   16.0258(17)
_cell_angle_alpha                90
_cell_angle_beta                 96.7310(10)
_cell_angle_gamma                90
_cell_volume                     1467.19
loop_
_atom_site_label
_atom_site_type_symbol
_atom_site_fract_x
_atom_site_fract_y
_atom_site_fract_z
Co1 Co 0.53583(2) 0.68097(3) 0.262822(16)
C1 C 0.37537(19) 0.5426(2) 0.10736(13)
H1 H 0.4580 0.5296 0.0867
C2 C 0.2585(2) 0.5371(2) 0.05193(13)
H2 H 0.2608 0.5127 -0.0042
C3 C 0.13787(19) 0.5691(2) 0.08269(12)
H3 H 0.0581 0.5718 0.0462
C4 C 0.13466(17) 0.5970(2) 0.16740(12)
C5 C 0.00306(18) 0.6552(2) 0.19284(13)
C6 C 0.25558(17) 0.5856(2) 0.22078(11)
C7 C 0.27054(17) 0.5951(2) 0.31426(11)
C8 C 0.17665(18) 0.5474(2) 0.36693(12)
C9 C 0.05467(18) 0.4544(2) 0.33655(12)
C10 C 0.2049(2) 0.5694(2) 0.45245(12)
H4 H 0.1417 0.5434 0.4881
C11 C 0.3267(2) 0.6299(3) 0.48540(13)
H5 H 0.3463 0.6459 0.5428
C12 C 0.4182(2) 0.6657(2) 0.43041(13)
H6 H 0.5023 0.7017 0.4521
N1 N 0.37437(14) 0.56600(17) 0.18955(10)
N2 N 0.39072(15) 0.65069(18) 0.34729(10)
O1 O 0.00969(14) 0.76091(17) 0.24139(10)
O2 O -0.10456(12) 0.59816(16) 0.15776(10)
O3 O 0.07235(13) 0.36514(15) 0.28084(8)
O4 O -0.05092(13) 0.46875(16) 0.37270(9)
O5 O 0.64774(14) 0.49439(16) 0.30506(10)
H7 H 0.6086 0.4220 0.2853
O6 O 0.64846(14) 0.69656(16) 0.16294(10)
H8 H 0.6351 0.7754 0.1401
O7 O 0.65251(15) 0.80922(16) 0.34727(11)
H9 H 0.6303 0.8940 0.3397
H10 H 0.7304(18) 0.802(3) 0.3606(18)
H11 H 0.7244(17) 0.488(3) 0.3055(17)
H12 H 0.7272(19) 0.671(3) 0.1622(17)
Co1A Co -0.03583(2) 0.18097(3) 0.237178(16)
O3A O 0.42765(13) 0.86514(15) 0.21916(8)
O8 O 0.58723(15) 0.2658(2) 0.10067(11)
H13 H 0.577(4) 0.175(2) 0.093(2)
H14 H 0.550(3) 0.281(3) 0.1426(14)
loop_
_geom_bond_atom_site_label_1
_geom_bond_atom_site_label_2
_geom_bond_site_symmetry_1
_geom_bond_site_symmetry_2
Co1 N1 1_555 1_555
C1 H1 1_555 1_555
C2 C1 1_555 1_555
H2 C2 1_555 1_555
C3 C2 1_555 1_555
H3 C3 1_555 1_555
C4 C3 1_555 1_555
C5 C4 1_555 1_555
C6 C4 1_555 1_555
C7 C6 1_555 1_555
C8 C7 1_555 1_555
C9 C8 1_555 1_555
C10 C8 1_555 1_555
H4 C10 1_555 1_555
C11 C10 1_555 1_555
H5 C11 1_555 1_555
C12 C11 1_555 1_555
H6 C12 1_555 1_555
N1 C1 1_555 1_555
N2 Co1 1_555 1_555
O1 C5 1_555 1_555
O2 C5 1_555 1_555
O3 C9 1_555 1_555
O4 C9 1_555 1_555
O5 Co1 1_555 1_555
H7 O5 1_555 1_555
O6 Co1 1_555 1_555
H8 O6 1_555 1_555
O7 Co1 1_555 1_555
H9 O7 1_555 1_555
H10 O7 1_555 1_555
H11 O5 1_555 1_555
H12 O6 1_555 1_555
O8 H13 1_555 1_555
H14 O8 1_555 1_555
Co1A O3 1_555 1_555
O3A Co1 1_555 1_555
C6 N1 1_555 1_555
C7 N2 1_555 1_555
C12 N2 1_555 1_555

#END
