
#######################################################################
#
#                 Cambridge Crystallographic Data Centre
#                                CCDC 
#
#######################################################################
#
# If this CIF has been generated from an entry in the Cambridge 
# Structural Database, then it will include bibliographic, chemical, 
# crystal, experimental, refinement or atomic coordinate data resulting 
# from the CCDC's data processing and validation procedures.
#
#######################################################################

data_CEYTOQ
_symmetry_cell_setting           monoclinic
_symmetry_space_group_name_H-M   'C 2/c'
_symmetry_Int_Tables_number      15
_space_group_name_Hall           '-C 2yn'
loop_
_symmetry_equiv_pos_site_id
_symmetry_equiv_pos_as_xyz
1 x,y,z
2 1/2+x,1/2+y,z
3 -x,y,1/2-z
4 1/2-x,1/2+y,1/2-z
5 -x,-y,-z
6 1/2-x,1/2-y,-z
7 x,-y,1/2+z
8 1/2+x,1/2-y,1/2+z
_cell_length_a                   23.665(3)
_cell_length_b                   11.9532(13)
_cell_length_c                   23.153(3)
_cell_angle_alpha                90
_cell_angle_beta                 111.868(2)
_cell_angle_gamma                90
_cell_volume                     6078.08
loop_
_atom_site_label
_atom_site_type_symbol
_atom_site_fract_x
_atom_site_fract_y
_atom_site_fract_z
Gd1 Gd 0.036273(7) 0.170749(13) 0.398526(8)
O1 O 0.12410(11) 0.0430(2) 0.43738(11)
O2 O 0.07555(11) 0.0811(2) 0.49974(11)
O3 O 0.05974(10) -0.10298(19) 0.60347(11)
O4 O 0.00858(12) 0.0120(2) 0.63959(13)
O5 O -0.04716(12) 0.2258(2) 0.29207(11)
O6 O 0.01181(11) 0.3569(2) 0.34951(11)
O7 O 0.08664(12) 0.1528(2) 0.32698(12)
H1 H 0.0680 0.1751 0.2895
H2 H 0.1126 0.1010 0.3323
N1 N 0.20092(13) -0.1245(3) 0.63698(15)
N2 N 0.20069(15) 0.1326(3) 0.63720(17)
N3 N -0.06300(14) 0.5871(3) 0.20179(15)
N4 N 0.12255(13) 0.3036(2) 0.45699(14)
N5 N 0.01722(13) 0.2937(2) 0.47986(13)
C1 C 0.11582(15) 0.0277(3) 0.48766(17)
C2 C 0.15357(15) -0.0572(3) 0.53256(17)
C3 C 0.17434(18) -0.1504(3) 0.5111(2)
H3 H 0.1658 -0.1587 0.4687
C4 C 0.20757(19) -0.2309(3) 0.5521(2)
H4 H 0.2215 -0.2942 0.5382
C5 C 0.21945(18) -0.2149(3) 0.6140(2)
H5 H 0.2416 -0.2695 0.6418
C6 C 0.16803(14) -0.0473(3) 0.59623(17)
C7 C 0.15587(15) 0.0571(3) 0.62597(16)
C8 C 0.1968(2) 0.2246(4) 0.6679(2)
H6 H 0.2274 0.2779 0.6758
C9 C 0.1507(2) 0.2459(3) 0.6887(2)
H7 H 0.1508 0.3113 0.7105
C10 C 0.10400(18) 0.1694(3) 0.67674(18)
H8 H 0.0724 0.1816 0.6907
C11 C 0.10560(15) 0.0729(3) 0.64312(16)
C12 C 0.05526(15) -0.0106(3) 0.62778(15)
C13 C -0.03114(16) 0.3269(3) 0.30114(16)
C14 C -0.06443(15) 0.4144(3) 0.25407(16)
C15 C -0.12784(16) 0.4106(3) 0.22552(18)
H9 H -0.1496 0.3512 0.2330
C16 C -0.15729(17) 0.4953(4) 0.1865(2)
H10 H -0.1995 0.4943 0.1668
C17 C -0.12368(19) 0.5825(4) 0.1768(2)
H11 H -0.1444 0.6413 0.1514
C18 C -0.03401(14) 0.5028(3) 0.23880(16)
C19 C 0.17215(17) 0.3138(3) 0.44389(19)
H12 H 0.1741 0.2740 0.4101
C20 C 0.22167(18) 0.3805(4) 0.4777(2)
H13 H 0.2554 0.3855 0.4664
C21 C 0.21976(18) 0.4381(4) 0.5275(2)
H14 H 0.2530 0.4809 0.5516
C22 C 0.16778(18) 0.4334(3) 0.54282(19)
C23 C 0.1613(2) 0.4937(3) 0.5928(2)
H15 H 0.1935 0.5375 0.6181
C24 C 0.1097(2) 0.4890(3) 0.6047(2)
H16 H 0.1069 0.5300 0.6377
C25 C 0.05901(18) 0.4216(3) 0.56716(18)
C26 C 0.0049(2) 0.4117(3) 0.57872(19)
H17 H 0.0003 0.4511 0.6113
C27 C -0.0406(2) 0.3444(3) 0.5421(2)
H18 H -0.0763 0.3365 0.5497
C28 C -0.03286(18) 0.2868(3) 0.49237(19)
H19 H -0.0645 0.2417 0.4672
C29 C 0.06344(16) 0.3596(3) 0.51763(16)
C30 C 0.11875(16) 0.3654(3) 0.50517(17)
Gd1D Gd -0.036273(7) -0.170749(13) 0.601474(8)
Gd1B Gd -0.036273(7) 0.170749(13) 0.101474(8)
O1D O -0.12410(11) -0.0430(2) 0.56262(11)
O2D O -0.07555(11) -0.0811(2) 0.50026(11)
O3D O -0.05974(10) 0.10298(19) 0.39653(11)
O4D O -0.00858(12) -0.0120(2) 0.36041(13)
O5B O 0.04716(12) 0.2258(2) 0.20793(11)
O5D O 0.04716(12) -0.2258(2) 0.70793(11)
O6B O -0.01181(11) 0.3569(2) 0.15049(11)
O6D O -0.01181(11) -0.3569(2) 0.65049(11)
O7D O -0.08664(12) -0.1528(2) 0.67302(12)
H1D H -0.0680 -0.1751 0.7105
H2D H -0.1126 -0.1010 0.6677
N1D N -0.20092(13) 0.1245(3) 0.36302(15)
N2D N -0.20069(15) -0.1326(3) 0.36280(17)
N3B N 0.06300(14) 0.5871(3) 0.29821(15)
N4D N -0.12255(13) -0.3036(2) 0.54301(14)
N5D N -0.01722(13) -0.2937(2) 0.52014(13)
C1D C -0.11582(15) -0.0277(3) 0.51234(17)
C2D C -0.15357(15) 0.0572(3) 0.46744(17)
C3D C -0.17434(18) 0.1504(3) 0.4889(2)
H3D H -0.1658 0.1587 0.5313
C4D C -0.20757(19) 0.2309(3) 0.4479(2)
H4D H -0.2215 0.2942 0.4618
C5D C -0.21945(18) 0.2149(3) 0.3860(2)
H5D H -0.2416 0.2695 0.3582
C6D C -0.16803(14) 0.0473(3) 0.40377(17)
C7D C -0.15587(15) -0.0571(3) 0.37403(16)
C8D C -0.1968(2) -0.2246(4) 0.3321(2)
H6D H -0.2274 -0.2779 0.3242
C9D C -0.1507(2) -0.2459(3) 0.3113(2)
H7D H -0.1508 -0.3113 0.2895
C10D C -0.10400(18) -0.1694(3) 0.32326(18)
H8D H -0.0724 -0.1816 0.3093
C11D C -0.10560(15) -0.0729(3) 0.35688(16)
C12D C -0.05526(15) 0.0106(3) 0.37222(15)
C13B C 0.03114(16) 0.3269(3) 0.19886(16)
C14B C 0.06443(15) 0.4144(3) 0.24593(16)
C15B C 0.12784(16) 0.4106(3) 0.27448(18)
H9B H 0.1496 0.3512 0.2670
C16B C 0.15729(17) 0.4953(4) 0.3135(2)
H10B H 0.1995 0.4943 0.3332
C17B C 0.12368(19) 0.5825(4) 0.3232(2)
H11B H 0.1444 0.6413 0.3486
C18B C 0.03401(14) 0.5028(3) 0.26120(16)
C19D C -0.17215(17) -0.3138(3) 0.55611(19)
H12D H -0.1741 -0.2740 0.5899
C20D C -0.22167(18) -0.3805(4) 0.5223(2)
H13D H -0.2554 -0.3855 0.5336
C21D C -0.21976(18) -0.4381(4) 0.4725(2)
H14D H -0.2530 -0.4809 0.4484
C22D C -0.16778(18) -0.4334(3) 0.45718(19)
C23D C -0.1613(2) -0.4937(3) 0.4072(2)
H15D H -0.1935 -0.5375 0.3819
C24D C -0.1097(2) -0.4890(3) 0.3953(2)
H16D H -0.1069 -0.5300 0.3623
C25D C -0.05901(18) -0.4216(3) 0.43284(18)
C26D C -0.0049(2) -0.4117(3) 0.42128(19)
H17D H -0.0003 -0.4511 0.3887
C27D C 0.0406(2) -0.3444(3) 0.4579(2)
H18D H 0.0763 -0.3365 0.4503
C28D C 0.03286(18) -0.2868(3) 0.50763(19)
H19D H 0.0645 -0.2417 0.5328
C29D C -0.06344(16) -0.3596(3) 0.48237(16)
C30D C -0.11875(16) -0.3654(3) 0.49483(17)
O8 O 0.0692(2) 0.8301(3) 0.3294(3)
H20 H 0.0410 0.8160 0.2926
H21 H 0.0524 0.8362 0.3578
O9 O 0.16779(19) 0.9631(4) 0.33291(17)
H22 H 0.1488 0.9084 0.3417
H23 H 0.1903 0.9464 0.3127
O10 O 0.17404(18) 0.8683(3) 0.74562(18)
H24 H 0.1898 0.9073 0.7800
H25 H 0.1913 0.8816 0.7193
loop_
_geom_bond_atom_site_label_1
_geom_bond_atom_site_label_2
_geom_bond_site_symmetry_1
_geom_bond_site_symmetry_2
Gd1 O1 1_555 1_555
O1 C1 1_555 1_555
O2 Gd1 1_555 1_555
O3 C12 1_555 1_555
O4 C12 1_555 1_555
O5 Gd1 1_555 1_555
O6 Gd1 1_555 1_555
O7 Gd1 1_555 1_555
H1 O7 1_555 1_555
H2 O7 1_555 1_555
N1 C5 1_555 1_555
N2 C7 1_555 1_555
N3 C17 1_555 1_555
N4 Gd1 1_555 1_555
N5 Gd1 1_555 1_555
C1 O2 1_555 1_555
C2 C1 1_555 1_555
C3 C2 1_555 1_555
H3 C3 1_555 1_555
C4 C3 1_555 1_555
H4 C4 1_555 1_555
C5 C4 1_555 1_555
H5 C5 1_555 1_555
C6 N1 1_555 1_555
C7 C6 1_555 1_555
C8 N2 1_555 1_555
H6 C8 1_555 1_555
C9 C8 1_555 1_555
H7 C9 1_555 1_555
C10 C9 1_555 1_555
H8 C10 1_555 1_555
C11 C7 1_555 1_555
C12 C11 1_555 1_555
C13 O5 1_555 1_555
C14 C13 1_555 1_555
C15 C14 1_555 1_555
H9 C15 1_555 1_555
C16 C15 1_555 1_555
H10 C16 1_555 1_555
C17 C16 1_555 1_555
H11 C17 1_555 1_555
C18 N3 1_555 1_555
C19 N4 1_555 1_555
H12 C19 1_555 1_555
C20 C19 1_555 1_555
H13 C20 1_555 1_555
C21 C20 1_555 1_555
H14 C21 1_555 1_555
C22 C21 1_555 1_555
C23 C22 1_555 1_555
H15 C23 1_555 1_555
C24 C23 1_555 1_555
H16 C24 1_555 1_555
C25 C24 1_555 1_555
C26 C25 1_555 1_555
H17 C26 1_555 1_555
C27 C26 1_555 1_555
H18 C27 1_555 1_555
C28 N5 1_555 1_555
H19 C28 1_555 1_555
C29 N5 1_555 1_555
C30 N4 1_555 1_555
O8 H20 1_555 1_555
H21 O8 1_555 1_555
O9 H22 1_555 1_555
H23 O9 1_555 1_555
O10 H24 1_555 1_555
H25 O10 1_555 1_555
Gd1D O3 1_555 1_555
Gd1B O5B 1_555 1_555
O1D Gd1D 1_555 1_555
O2D Gd1D 1_555 1_555
O3D Gd1 1_555 1_555
O4D Gd1 1_555 1_555
O5B C13B 1_555 1_555
O5D Gd1D 1_555 1_555
O6B Gd1B 1_555 1_555
O6D Gd1D 1_555 1_555
O7D Gd1D 1_555 1_555
H1D O7D 1_555 1_555
H2D O7D 1_555 1_555
N1D C5D 1_555 1_555
N2D C7D 1_555 1_555
N3B C17B 1_555 1_555
N4D Gd1D 1_555 1_555
N5D Gd1D 1_555 1_555
C1D O1D 1_555 1_555
C2D C1D 1_555 1_555
C3D C2D 1_555 1_555
H3D C3D 1_555 1_555
C4D C3D 1_555 1_555
H4D C4D 1_555 1_555
C5D C4D 1_555 1_555
H5D C5D 1_555 1_555
C6D N1D 1_555 1_555
C7D C6D 1_555 1_555
C8D N2D 1_555 1_555
H6D C8D 1_555 1_555
C9D C8D 1_555 1_555
H7D C9D 1_555 1_555
C10D C9D 1_555 1_555
H8D C10D 1_555 1_555
C11D C7D 1_555 1_555
C12D O3D 1_555 1_555
C13B O6B 1_555 1_555
C14B C13B 1_555 1_555
C15B C14B 1_555 1_555
H9B C15B 1_555 1_555
C16B C15B 1_555 1_555
H10B C16B 1_555 1_555
C17B C16B 1_555 1_555
H11B C17B 1_555 1_555
C18B C18 1_555 1_555
C19D N4D 1_555 1_555
H12D C19D 1_555 1_555
C20D C19D 1_555 1_555
H13D C20D 1_555 1_555
C21D C20D 1_555 1_555
H14D C21D 1_555 1_555
C22D C21D 1_555 1_555
C23D C22D 1_555 1_555
H15D C23D 1_555 1_555
C24D C23D 1_555 1_555
H16D C24D 1_555 1_555
C25D C24D 1_555 1_555
C26D C25D 1_555 1_555
H17D C26D 1_555 1_555
C27D C26D 1_555 1_555
H18D C27D 1_555 1_555
C28D N5D 1_555 1_555
H19D C28D 1_555 1_555
C29D N5D 1_555 1_555
C30D N4D 1_555 1_555
O4 Gd1D 1_555 1_555
O6 C13 1_555 1_555
C2 C6 1_555 1_555
C10 C11 1_555 1_555
C14 C18 1_555 1_555
C22 C30 1_555 1_555
C25 C29 1_555 1_555
C27 C28 1_555 1_555
C29 C30 1_555 1_555
O2D C1D 1_555 1_555
O4D C12D 1_555 1_555
N3B C18B 1_555 1_555
C2D C6D 1_555 1_555
C10D C11D 1_555 1_555
C11D C12D 1_555 1_555
C14B C18B 1_555 1_555
C22D C30D 1_555 1_555
C25D C29D 1_555 1_555
C27D C28D 1_555 1_555
C29D C30D 1_555 1_555

#END
