
#######################################################################
#
#                 Cambridge Crystallographic Data Centre
#                                CCDC 
#
#######################################################################
#
# If this CIF has been generated from an entry in the Cambridge 
# Structural Database, then it will include bibliographic, chemical, 
# crystal, experimental, refinement or atomic coordinate data resulting 
# from the CCDC's data processing and validation procedures.
#
#######################################################################

data_CEYYEL
_symmetry_cell_setting           monoclinic
_symmetry_space_group_name_H-M   'C 2/c'
_symmetry_Int_Tables_number      15
_space_group_name_Hall           '-C 2yn'
loop_
_symmetry_equiv_pos_site_id
_symmetry_equiv_pos_as_xyz
1 x,y,z
2 1/2+x,1/2+y,z
3 -x,y,1/2-z
4 1/2-x,1/2+y,1/2-z
5 -x,-y,-z
6 1/2-x,1/2-y,-z
7 x,-y,1/2+z
8 1/2+x,1/2-y,1/2+z
_cell_length_a                   27.345(4)
_cell_length_b                   11.2530(16)
_cell_length_c                   12.1068(16)
_cell_angle_alpha                90
_cell_angle_beta                 104.197(2)
_cell_angle_gamma                90
_cell_volume                     3611.64
loop_
_atom_site_label
_atom_site_type_symbol
_atom_site_fract_x
_atom_site_fract_y
_atom_site_fract_z
Cd1 Cd 0.305867(8) 0.581677(16) 0.522602(15)
O1 O 0.23589(8) 0.63913(18) 0.38282(15)
O2 O 0.20913(8) 0.82187(17) 0.32677(15)
O3 O 0.11474(8) 0.8247(2) 0.14319(19)
O4 O 0.16824(10) 0.94874(18) 0.0929(2)
O5 O 0.37438(9) 0.5180(2) 0.66383(18)
H1 H 0.3763 0.5585 0.7239
H2 H 0.4020 0.4944 0.6509
N1 N 0.24943(9) 0.56031(18) 0.05756(18)
N2 N 0.35077(9) 0.7168(2) 0.44224(19)
N3 N 0.45662(12) 1.1074(3) 0.1022(3)
C1 C 0.22190(10) 0.7183(2) 0.3100(2)
C2 C 0.21942(10) 0.6865(2) 0.1870(2)
C3 C 0.24985(11) 0.5957(2) 0.1640(2)
H3 H 0.2715 0.5575 0.2249
C4 C 0.21698(11) 0.6141(2) -0.0290(2)
H4 H 0.2155 0.5886 -0.1029
C5 C 0.18556(11) 0.7058(2) -0.0136(2)
H5 H 0.1637 0.7410 -0.0760
C6 C 0.18693(10) 0.7447(2) 0.0962(2)
C7 C 0.15367(11) 0.8481(2) 0.1126(2)
C8 C 0.33584(12) 0.8299(3) 0.4267(3)
H6 H 0.3114 0.8570 0.4622
C9 C 0.35497(12) 0.9086(3) 0.3600(3)
H7 H 0.3429 0.9861 0.3503
C10 C 0.39205(11) 0.8719(3) 0.3079(2)
C11 C 0.40836(12) 0.7556(3) 0.3269(3)
H8 H 0.4338 0.7273 0.2950
C12 C 0.38709(12) 0.6820(3) 0.3927(3)
H9 H 0.3985 0.6040 0.4033
C13 C 0.41323(11) 0.9541(3) 0.2349(2)
C14 C 0.41170(13) 1.0755(3) 0.2467(3)
H10 H 0.3960 1.1091 0.2992
C15 C 0.43395(14) 1.1474(3) 0.1791(3)
H11 H 0.4327 1.2292 0.1889
C16 C 0.45651(14) 0.9899(4) 0.0896(3)
H12 H 0.4714 0.9592 0.0344
C17 C 0.43603(14) 0.9101(3) 0.1522(3)
H13 H 0.4374 0.8288 0.1395
Cd1E Cd 0.194133(8) 0.918323(16) 0.477398(15)
Cd1C Cd 0.194133(8) 1.081677(16) -0.022602(15)
Cd1F Cd 0.305867(8) 0.418323(16) 0.022602(15)
O2E O 0.29087(8) 0.67813(17) 0.67323(15)
O4C O 0.33176(10) 0.44874(18) 0.4071(2)
N1F N 0.24943(9) 0.43969(18) 0.55756(18)
O6 O 0.01382(12) 0.1906(3) 0.5363(3)
H14 H 0.0448 0.1939 0.5705
H15 H -0.0061 0.2400 0.5538
O7 O 0.46910(13) 0.4590(5) 0.6387(3)
H16 H 0.4611 0.3908 0.6636
H17 H 0.4872 0.4540 0.5897
loop_
_geom_bond_atom_site_label_1
_geom_bond_atom_site_label_2
_geom_bond_site_symmetry_1
_geom_bond_site_symmetry_2
Cd1 O1 1_555 1_555
O1 C1 1_555 1_555
O2 C1 1_555 1_555
O3 C7 1_555 1_555
O4 C7 1_555 1_555
O5 Cd1 1_555 1_555
H1 O5 1_555 1_555
H2 O5 1_555 1_555
N1 C3 1_555 1_555
N2 Cd1 1_555 1_555
N3 C15 1_555 1_555
C1 C2 1_555 1_555
C2 C3 1_555 1_555
C3 H3 1_555 1_555
C4 N1 1_555 1_555
H4 C4 1_555 1_555
C5 C4 1_555 1_555
H5 C5 1_555 1_555
C6 C2 1_555 1_555
C7 C6 1_555 1_555
C8 N2 1_555 1_555
H6 C8 1_555 1_555
C9 C8 1_555 1_555
H7 C9 1_555 1_555
C10 C9 1_555 1_555
C11 C10 1_555 1_555
H8 C11 1_555 1_555
C12 N2 1_555 1_555
H9 C12 1_555 1_555
C13 C10 1_555 1_555
C14 C13 1_555 1_555
H10 C14 1_555 1_555
C15 C14 1_555 1_555
H11 C15 1_555 1_555
C16 N3 1_555 1_555
H12 C16 1_555 1_555
C17 C13 1_555 1_555
H13 C17 1_555 1_555
O6 H14 1_555 1_555
H15 O6 1_555 1_555
O7 H16 1_555 1_555
H17 O7 1_555 1_555
Cd1E O2 1_555 1_555
Cd1C O4 1_555 1_555
Cd1F N1 1_555 1_555
O2E Cd1 1_555 1_555
O4C Cd1 1_555 1_555
N1F Cd1 1_555 1_555
C5 C6 1_555 1_555
C11 C12 1_555 1_555
C16 C17 1_555 1_555

#END
