
#######################################################################
#
#                 Cambridge Crystallographic Data Centre
#                                CCDC 
#
#######################################################################
#
# If this CIF has been generated from an entry in the Cambridge 
# Structural Database, then it will include bibliographic, chemical, 
# crystal, experimental, refinement or atomic coordinate data resulting 
# from the CCDC's data processing and validation procedures.
#
#######################################################################

data_CEYZIQ
_symmetry_cell_setting           triclinic
_symmetry_space_group_name_H-M   'P -1'
_symmetry_Int_Tables_number      2
_space_group_name_Hall           '-P 1'
loop_
_symmetry_equiv_pos_site_id
_symmetry_equiv_pos_as_xyz
1 x,y,z
2 -x,-y,-z
_cell_length_a                   8.8405(10)
_cell_length_b                   9.3771(10)
_cell_length_c                   9.4739(10)
_cell_angle_alpha                75.093(10)
_cell_angle_beta                 67.273(10)
_cell_angle_gamma                63.340(10)
_cell_volume                     644.015
loop_
_atom_site_label
_atom_site_type_symbol
_atom_site_fract_x
_atom_site_fract_y
_atom_site_fract_z
O1 O 0.5613(2) 0.34919(18) 0.56038(17)
O2 O 0.38641(19) 0.21624(17) 0.65552(17)
O3 O 1.00198(19) -0.21686(17) 0.60467(17)
O4 O 0.89526(19) -0.34664(18) 0.53047(17)
C1 C 0.5390(3) 0.2186(2) 0.6182(2)
C2 C 0.6952(3) 0.0677(2) 0.6396(2)
H1 H 0.6889 0.0470 0.7492
H2 H 0.8069 0.0837 0.5783
C3 C 0.7008(3) -0.0780(2) 0.5918(2)
H3 H 0.6046 -0.1096 0.6690
H4 H 0.6766 -0.0478 0.4922
C4 C 0.8758(3) -0.2205(2) 0.5758(2)
O5 O 0.7556(2) 0.43194(18) 0.21961(17)
H5 H 0.871(3) 0.372(3) 0.157(3)
H6 H 0.698(4) 0.515(3) 0.157(3)
O6 O 0.7981(2) 0.32884(18) 0.72898(17)
H7 H 0.878(3) 0.222(2) 0.730(4)
H8 H 0.691(3) 0.336(4) 0.805(3)
O7 O 0.9944(2) 0.55118(19) 0.22121(17)
H9 H 0.958(4) 0.618(3) 0.139(3)
H10 H 1.081(3) 0.575(4) 0.229(3)
O8 O 0.5345(2) 0.64482(19) 0.69552(17)
H11 H 0.423(3) 0.641(4) 0.723(3)
H12 H 0.549(4) 0.648(4) 0.786(2)
Ce1 Ce 0.767621(12) 0.498490(11) 0.465514(11)
O1A O 0.4387(2) 0.65081(18) 0.43962(17)
O2A O 0.61359(19) 0.78376(17) 0.34448(17)
O3A O 0.99802(19) 0.21686(17) 0.39533(17)
O4_2 O 0.89526(19) 0.65336(18) 0.53047(17)
O4A O 1.10474(19) 0.34664(18) 0.46953(17)
Ce1A Ce 0.232379(12) 0.501510(11) 0.534486(11)
Ce1A_2 Ce 1.232379(12) -0.498490(11) 0.534486(11)
Ce1_2 Ce 0.767621(12) -0.501510(11) 0.465514(11)
O9 O 0.0878(2) 0.2695(2) 0.03776(18)
H13 H 0.178(3) 0.282(4) 0.059(4)
H14 H 0.143(4) 0.166(2) 0.008(4)
O10 O 0.2573(2) 0.00693(19) -0.12223(19)
H15 H 0.320(4) 0.061(3) -0.206(3)
H16 H 0.336(4) -0.084(3) -0.080(3)
O11 O 0.9787(2) -0.0209(2) 0.2573(2)
H17 H 0.892(4) 0.011(4) 0.210(4)
H18 H 0.973(5) 0.073(3) 0.276(4)
Cl1 Cl 0.54969(7) 0.69967(6) 1.00321(6)
loop_
_geom_bond_atom_site_label_1
_geom_bond_atom_site_label_2
_geom_bond_site_symmetry_1
_geom_bond_site_symmetry_2
O1 C1 1_555 1_555
O2 C1 1_555 1_555
O3 C4 1_555 1_555
O4 C4 1_555 1_555
C1 C2 1_555 1_555
C2 H1 1_555 1_555
H2 C2 1_555 1_555
C3 C2 1_555 1_555
H3 C3 1_555 1_555
H4 C3 1_555 1_555
C4 C3 1_555 1_555
O5 H5 1_555 1_555
H6 O5 1_555 1_555
O6 H7 1_555 1_555
H8 O6 1_555 1_555
O7 H9 1_555 1_555
H10 O7 1_555 1_555
O8 H11 1_555 1_555
H12 O8 1_555 1_555
O9 H13 1_555 1_555
H14 O9 1_555 1_555
O10 H15 1_555 1_555
H16 O10 1_555 1_555
O11 H17 1_555 1_555
H18 O11 1_555 1_555
Ce1 O1 1_555 1_555
O1A Ce1 1_555 1_555
O2A Ce1 1_555 1_555
O3A Ce1 1_555 1_555
O4_2 Ce1 1_555 1_555
O4A Ce1 1_555 1_555
Ce1A O1 1_555 1_555
Ce1A_2 O3 1_555 1_555
Ce1_2 O4 1_555 1_555
O2 Ce1A 1_555 1_555
O4 Ce1A_2 1_555 1_555
O5 Ce1 1_555 1_555
O6 Ce1 1_555 1_555
O7 Ce1 1_555 1_555
O8 Ce1 1_555 1_555
O1A Ce1A 1_555 1_555

#END
