
#######################################################################
#
#                 Cambridge Crystallographic Data Centre
#                                CCDC 
#
#######################################################################
#
# If this CIF has been generated from an entry in the Cambridge 
# Structural Database, then it will include bibliographic, chemical, 
# crystal, experimental, refinement or atomic coordinate data resulting 
# from the CCDC's data processing and validation procedures.
#
#######################################################################

data_CEZCAN
_symmetry_cell_setting           orthorhombic
_symmetry_space_group_name_H-M   'P 21 21 21'
_symmetry_Int_Tables_number      19
_space_group_name_Hall           'P 2ac 2ab'
loop_
_symmetry_equiv_pos_site_id
_symmetry_equiv_pos_as_xyz
1 x,y,z
2 1/2+x,1/2-y,-z
3 -x,1/2+y,1/2-z
4 1/2-x,-y,1/2+z
_cell_length_a                   4.4753(4)
_cell_length_b                   14.4641(12)
_cell_length_c                   18.6331(15)
_cell_angle_alpha                90
_cell_angle_beta                 90
_cell_angle_gamma                90
_cell_volume                     1206.14
loop_
_atom_site_label
_atom_site_type_symbol
_atom_site_fract_x
_atom_site_fract_y
_atom_site_fract_z
Ag1 Ag 0.80437(10) 0.30947(2) 0.560973(18)
Cl1 Cl 0.7973(3) 0.29631(7) 0.42189(5)
F1 F 0.7408(7) 0.2906(2) 0.79043(17)
N1 N 0.9351(9) 0.4327(3) 0.69425(19)
N2 N 0.7011(10) 0.5666(3) 0.69037(18)
N3 N 0.6334(10) 0.5086(3) 0.63185(19)
C1 C 0.7795(12) 0.4264(3) 0.6330(2)
C2 C 0.8883(11) 0.5160(3) 0.7264(2)
C3 C 1.1386(11) 0.3711(3) 0.7343(2)
H1 H 1.3438 0.3621 0.7046
C4 C 1.1992(14) 0.4285(3) 0.8031(2)
H2 H 1.0939 0.3958 0.8487
H3 H 1.4366 0.4320 0.8131
C5 C 1.0723(12) 0.5267(4) 0.7929(2)
H4 H 0.9366 0.5473 0.8381
H5 H 1.2488 0.5767 0.7853
C6 C 0.9988(13) 0.2788(3) 0.7487(3)
H6 H 0.9415 0.2458 0.6986
H7 H 1.1556 0.2350 0.7767
C7 C 0.4234(11) 0.5423(3) 0.5799(2)
C8 C 0.3309(12) 0.4862(3) 0.5237(2)
H8 H 0.4168 0.4183 0.5182
C9 C 0.1249(11) 0.5202(3) 0.4747(2)
H9 H 0.0513 0.4776 0.4319
C10 C 0.0146(12) 0.6091(3) 0.4814(2)
H10 H -0.1395 0.6352 0.4432
C11 C 0.1070(11) 0.6640(3) 0.5383(3)
H11 H 0.0184 0.7315 0.5445
C12 C 0.3146(12) 0.6309(3) 0.5871(2)
H12 H 0.3893 0.6735 0.6298
Ag1A Ag 0.30437(10) 0.19053(2) 0.439027(18)
Ag1A_2 Ag 1.30437(10) 0.19053(2) 0.439027(18)
Cl1A Cl 0.2973(3) 0.20369(7) 0.57811(5)
Cl1A_2 Cl 1.2973(3) 0.20369(7) 0.57811(5)
loop_
_geom_bond_atom_site_label_1
_geom_bond_atom_site_label_2
_geom_bond_site_symmetry_1
_geom_bond_site_symmetry_2
Ag1 Cl1 1_555 1_555
Cl1 Ag1A 1_555 1_555
F1 C6 1_555 1_555
N1 C1 1_555 1_555
N2 N3 1_555 1_555
N3 C1 1_555 1_555
C1 Ag1 1_555 1_555
C2 N1 1_555 1_555
C3 N1 1_555 1_555
H1 C3 1_555 1_555
C4 C3 1_555 1_555
H2 C4 1_555 1_555
H3 C4 1_555 1_555
C5 C2 1_555 1_555
H4 C5 1_555 1_555
H5 C5 1_555 1_555
C6 C3 1_555 1_555
H6 C6 1_555 1_555
H7 C6 1_555 1_555
C7 N3 1_555 1_555
C8 C7 1_555 1_555
H8 C8 1_555 1_555
C9 C8 1_555 1_555
H9 C9 1_555 1_555
C10 C9 1_555 1_555
H10 C10 1_555 1_555
C11 C10 1_555 1_555
H11 C11 1_555 1_555
C12 C7 1_555 1_555
H12 C12 1_555 1_555
Ag1A Cl1A 1_555 1_555
Ag1A_2 Cl1 1_555 1_555
Cl1A Ag1 1_555 1_555
Cl1A_2 Ag1 1_555 1_555
N2 C2 1_555 1_555
C4 C5 1_555 1_555
C11 C12 1_555 1_555
Ag1A_2 Cl1A_2 1_555 1_555

#END
