
#######################################################################
#
#                 Cambridge Crystallographic Data Centre
#                                CCDC 
#
#######################################################################
#
# If this CIF has been generated from an entry in the Cambridge 
# Structural Database, then it will include bibliographic, chemical, 
# crystal, experimental, refinement or atomic coordinate data resulting 
# from the CCDC's data processing and validation procedures.
#
#######################################################################

data_CEZDES
_symmetry_cell_setting           triclinic
_symmetry_space_group_name_H-M   'P -1'
_symmetry_Int_Tables_number      2
_space_group_name_Hall           '-P 1'
loop_
_symmetry_equiv_pos_site_id
_symmetry_equiv_pos_as_xyz
1 x,y,z
2 -x,-y,-z
_cell_length_a                   10.1742(4)
_cell_length_b                   11.7158(5)
_cell_length_c                   13.8012(5)
_cell_angle_alpha                95.6190(10)
_cell_angle_beta                 90.2230(10)
_cell_angle_gamma                94.1080(10)
_cell_volume                     1632.88
loop_
_atom_site_label
_atom_site_type_symbol
_atom_site_fract_x
_atom_site_fract_y
_atom_site_fract_z
Cu1 Cu 0.12246(4) 0.53378(4) 0.53922(3)
I1 I -0.02105(2) 0.675867(18) 0.452402(15)
N1 N 0.2901(2) 0.5223(2) 0.45590(18)
N2 N 0.7053(2) 0.4083(3) 0.27495(19)
N3 N 0.8084(3) 0.3816(2) 0.32830(19)
N4 N 0.8409(3) 0.2791(2) 0.29350(19)
C1 C 0.3463(3) 0.6173(3) 0.4211(2)
H1 H 0.3068 0.6863 0.4341
C2 C 0.4594(3) 0.6169(3) 0.3671(2)
H2 H 0.4942 0.6844 0.3437
C3 C 0.5218(3) 0.5157(3) 0.3476(2)
C4 C 0.4650(3) 0.4172(3) 0.3834(2)
H3 H 0.5034 0.3475 0.3719
C5 C 0.3503(3) 0.4245(3) 0.4364(2)
H4 H 0.3128 0.3580 0.4599
C6 C 0.6490(3) 0.5185(3) 0.2920(2)
H5 H 0.6335 0.5472 0.2297
H6 H 0.7128 0.5724 0.3278
C7 C 0.6704(3) 0.3217(3) 0.2067(2)
H7 H 0.6024 0.3183 0.1611
C8 C 0.7566(3) 0.2396(3) 0.2189(2)
C9 C 0.7708(4) 0.1286(3) 0.1605(3)
C10 C 0.6683(5) 0.0763(4) 0.1027(4)
H8 H 0.5887 0.1105 0.1007
C11 C 0.6839(8) -0.0259(5) 0.0483(5)
H9 H 0.6144 -0.0596 0.0090
C12 C 0.7971(7) -0.0791(4) 0.0499(4)
H10 H 0.8054 -0.1487 0.0127
C13 C 0.8981(7) -0.0292(5) 0.1068(5)
H11 H 0.9769 -0.0648 0.1086
C14 C 0.8850(5) 0.0742(4) 0.1622(4)
H12 H 0.9551 0.1072 0.2012
Cu1A Cu -0.12246(4) 0.46622(4) 0.46078(3)
Cu1A_2 Cu 0.87754(4) 0.46622(4) 0.46078(3)
I1A I 0.02105(2) 0.324133(18) 0.547598(15)
N3A N 0.1916(3) 0.6184(2) 0.67170(19)
Cu2 Cu 0.62517(4) 0.53831(4) -0.03150(3)
I2 I 0.47489(2) 0.672162(18) 0.076921(15)
N5 N 0.7916(2) 0.5275(2) 0.05388(18)
N6 N 1.2077(2) 0.4082(2) 0.21139(18)
N7 N 1.3044(3) 0.3763(2) 0.14949(18)
N8 N 1.3261(3) 0.2689(2) 0.16189(19)
C15 C 0.8542(3) 0.4301(3) 0.0529(2)
H13 H 0.8175 0.3644 0.0166
C16 C 0.9706(3) 0.4232(3) 0.1035(2)
H14 H 1.0105 0.3540 0.1009
C17 C 1.0270(3) 0.5193(3) 0.1579(2)
C18 C 0.9616(3) 0.6198(3) 0.1603(2)
H15 H 0.9958 0.6862 0.1970
C19 C 0.8464(3) 0.6203(3) 0.1082(2)
H16 H 0.8041 0.6883 0.1107
C20 C 1.1551(3) 0.5205(3) 0.2134(2)
H17 H 1.2197 0.5730 0.1861
H18 H 1.1415 0.5495 0.2806
C21 C 1.1671(3) 0.3213(3) 0.2629(2)
H19 H 1.1013 0.3210 0.3095
C22 C 1.2430(3) 0.2328(3) 0.2322(2)
C23 C 1.2403(4) 0.1159(3) 0.2620(3)
C24 C 1.1570(5) 0.0836(4) 0.3355(3)
H20 H 1.1067 0.1376 0.3688
C25 C 1.1488(6) -0.0286(4) 0.3594(4)
H21 H 1.0919 -0.0497 0.4082
C26 C 1.2219(6) -0.1075(4) 0.3129(4)
H22 H 1.2144 -0.1831 0.3286
C27 C 1.3049(7) -0.0772(5) 0.2442(5)
H23 H 1.3568 -0.1315 0.2131
C28 C 1.3153(6) 0.0355(4) 0.2182(4)
H24 H 1.3743 0.0553 0.1703
Cu2A Cu 0.37483(4) 0.46169(4) 0.03150(3)
Cu2A_2 Cu 1.37483(4) 0.46169(4) 0.03150(3)
I2A I 0.52511(2) 0.327838(18) -0.076921(15)
N7A N 0.6956(3) 0.6237(2) -0.14949(18)
N9 N 0.5354(10) 0.1377(9) 0.4400(8)
C29 C 0.6072(13) 0.0756(11) 0.4117(9)
C30 C 0.6763(13) -0.0274(9) 0.3836(8)
H25 H 0.6555 -0.0836 0.4285
H26 H 0.7696 -0.0079 0.3849
H27 H 0.6492 -0.0584 0.3191
loop_
_geom_bond_atom_site_label_1
_geom_bond_atom_site_label_2
_geom_bond_site_symmetry_1
_geom_bond_site_symmetry_2
Cu1 I1 1_555 1_555
I1 Cu1A 1_555 1_555
N1 Cu1 1_555 1_555
N2 N3 1_555 1_555
N3 N4 1_555 1_555
N4 C8 1_555 1_555
C1 N1 1_555 1_555
H1 C1 1_555 1_555
C2 C1 1_555 1_555
H2 C2 1_555 1_555
C3 C2 1_555 1_555
C4 C3 1_555 1_555
H3 C4 1_555 1_555
C5 N1 1_555 1_555
H4 C5 1_555 1_555
C6 N2 1_555 1_555
H5 C6 1_555 1_555
H6 C6 1_555 1_555
C7 N2 1_555 1_555
H7 C7 1_555 1_555
C8 C7 1_555 1_555
C9 C8 1_555 1_555
C10 C9 1_555 1_555
H8 C10 1_555 1_555
C11 C10 1_555 1_555
H9 C11 1_555 1_555
C12 C11 1_555 1_555
H10 C12 1_555 1_555
C13 C12 1_555 1_555
H11 C13 1_555 1_555
C14 C9 1_555 1_555
H12 C14 1_555 1_555
Cu2 I2 1_555 1_555
I2 Cu2A 1_555 1_555
N5 Cu2 1_555 1_555
N6 N7 1_555 1_555
N7 N8 1_555 1_555
N8 C22 1_555 1_555
C15 N5 1_555 1_555
H13 C15 1_555 1_555
C16 C15 1_555 1_555
H14 C16 1_555 1_555
C17 C16 1_555 1_555
C18 C17 1_555 1_555
H15 C18 1_555 1_555
C19 N5 1_555 1_555
H16 C19 1_555 1_555
C20 N6 1_555 1_555
H17 C20 1_555 1_555
H18 C20 1_555 1_555
C21 N6 1_555 1_555
H19 C21 1_555 1_555
C22 C21 1_555 1_555
C23 C22 1_555 1_555
C24 C23 1_555 1_555
H20 C24 1_555 1_555
C25 C24 1_555 1_555
H21 C25 1_555 1_555
C26 C25 1_555 1_555
H22 C26 1_555 1_555
C27 C26 1_555 1_555
H23 C27 1_555 1_555
C28 C23 1_555 1_555
H24 C28 1_555 1_555
N9 C29 1_555 1_555
C29 C30 1_555 1_555
C30 H25 1_555 1_555
H26 C30 1_555 1_555
H27 C30 1_555 1_555
Cu1A I1A 1_555 1_555
Cu1A_2 N3 1_555 1_555
I1A Cu1 1_555 1_555
N3A Cu1 1_555 1_555
Cu2A I2A 1_555 1_555
Cu2A_2 N7 1_555 1_555
I2A Cu2 1_555 1_555
N7A Cu2 1_555 1_555
C3 C6 1_555 1_555
C4 C5 1_555 1_555
C13 C14 1_555 1_555
C17 C20 1_555 1_555
C18 C19 1_555 1_555
C27 C28 1_555 1_555

#END
