
#######################################################################
#
#                 Cambridge Crystallographic Data Centre
#                                CCDC 
#
#######################################################################
#
# If this CIF has been generated from an entry in the Cambridge 
# Structural Database, then it will include bibliographic, chemical, 
# crystal, experimental, refinement or atomic coordinate data resulting 
# from the CCDC's data processing and validation procedures.
#
#######################################################################

data_CEZDAN
_symmetry_cell_setting           tetragonal
_symmetry_space_group_name_H-M   'P 4/n c c'
_symmetry_Int_Tables_number      130
_space_group_name_Hall           '-P 4a 2ac'
loop_
_symmetry_equiv_pos_site_id
_symmetry_equiv_pos_as_xyz
1 x,y,z
2 1/2+y,1/2+x,1/2-z
3 y,1/2-x,z
4 1/2-y,x,z
5 1/2-x,1/2-y,z
6 1/2+x,-y,1/2-z
7 -x,1/2+y,1/2-z
8 -y,-x,1/2-z
9 -x,-y,-z
10 1/2-y,1/2-x,1/2+z
11 -y,1/2+x,-z
12 1/2+y,-x,-z
13 1/2+x,1/2+y,-z
14 1/2-x,y,1/2+z
15 x,1/2-y,1/2+z
16 y,x,1/2+z
_cell_length_a                   14.574(3)
_cell_length_b                   14.574(3)
_cell_length_c                   17.964(4)
_cell_angle_alpha                90
_cell_angle_beta                 90
_cell_angle_gamma                90
_cell_volume                     3815.58
loop_
_atom_site_label
_atom_site_type_symbol
_atom_site_fract_x
_atom_site_fract_y
_atom_site_fract_z
C9 C 0.829(2) 0.696(3) 0.757(2)
H9 H 0.8150 0.6317 0.7612
H10 H 0.8817 0.7099 0.7870
H11 H 0.8415 0.7107 0.7061
C10 C 0.7500 0.7500 0.7832(19)
O2 O 0.7500 0.7500 0.8530(17)
C9C C 0.804(3) 0.829(2) 0.757(2)
C9B C 0.696(3) 0.671(2) 0.757(2)
C9D C 0.671(2) 0.804(3) 0.757(2)
H9C H 0.8683 0.8150 0.7612
H9B H 0.6317 0.6850 0.7612
H9D H 0.6850 0.8683 0.7612
H10C H 0.7901 0.8817 0.7870
H10B H 0.7099 0.6183 0.7870
H10D H 0.6183 0.7901 0.7870
H11C H 0.7893 0.8415 0.7061
H11B H 0.7107 0.6585 0.7061
H11D H 0.6585 0.7893 0.7061
Fe1 Fe 0.7500 0.2500 0.7500
S1 S 0.51342(12) 0.48658(12) 0.7500
N1 N 0.8207(3) 0.3281(3) 0.83865(18)
O1 O 0.9676(3) 0.4190(3) 1.07435(18)
H1 H 0.9786 0.4469 1.1130
N2 N 0.6477(3) 0.3523(3) 0.7500
C1 C 0.9516(4) 0.4834(4) 1.0152(2)
C2 C 0.5932(4) 0.4068(4) 0.7500
C3 C 0.9033(3) 0.4282(3) 0.9539(2)
C4 C 0.9032(3) 0.3342(3) 0.9535(3)
H2 H 0.9307 0.3021 0.9923
C5 C 0.8625(3) 0.2870(3) 0.8959(2)
H3 H 0.8642 0.2233 0.8969
C6 C 0.8177(4) 0.4201(3) 0.8407(3)
H4 H 0.7875 0.4506 0.8024
C7 C 0.8569(4) 0.4719(3) 0.8964(3)
H5 H 0.8523 0.5355 0.8955
C8 C 0.8940(4) 0.5611(5) 1.0429(3)
H6 H 0.9267 0.5937 1.0810
H7 H 0.8378 0.5375 1.0631
H8 H 0.8805 0.6020 1.0025
Fe1L Fe 1.2500 0.7500 1.2500
Fe1L_2 Fe 1.2500 0.7500 0.2500
S1A S 0.98658(12) 0.01342(12) 0.7500
N1H N 1.1793(3) 0.6719(3) 1.16135(18)
N1A N 0.8281(3) 0.3207(3) 0.66135(18)
N1I N 1.1719(3) 0.6793(3) 0.33865(18)
N1D N 0.6793(3) 0.1719(3) 0.83865(18)
N1G N 0.6719(3) 0.1793(3) 0.66135(18)
O1H O 1.0324(3) 0.5810(3) 0.92565(18)
O1A O 0.9190(3) 0.4676(3) 0.42565(18)
O1I O 1.0810(3) 0.5324(3) 0.57435(18)
H1H H 1.0214 0.5531 0.8870
H1A H 0.9469 0.4786 0.3870
H1I H 1.0531 0.5214 0.6130
N2A N 0.8523(3) 0.1477(3) 0.7500
C1H C 1.0484(4) 0.5166(4) 0.9848(2)
C1A C 0.9834(4) 0.4516(4) 0.4848(2)
C1I C 1.0166(4) 0.5484(4) 0.5152(2)
C2A C 0.9068(4) 0.0932(4) 0.7500
C3H C 1.0967(3) 0.5718(3) 1.0461(2)
C3A C 0.9282(3) 0.4033(3) 0.5461(2)
C3I C 1.0718(3) 0.5967(3) 0.4539(2)
C4H C 1.0968(3) 0.6658(3) 1.0465(3)
C4A C 0.8342(3) 0.4032(3) 0.5465(3)
C4I C 1.1658(3) 0.5968(3) 0.4535(3)
H2H H 1.0693 0.6979 1.0077
H2A H 0.8021 0.4307 0.5077
H2I H 1.1979 0.5693 0.4923
C5H C 1.1375(3) 0.7130(3) 1.1041(2)
C5A C 0.7870(3) 0.3625(3) 0.6041(2)
C5I C 1.2130(3) 0.6375(3) 0.3959(2)
H3H H 1.1358 0.7767 1.1031
H3A H 0.7233 0.3642 0.6031
H3I H 1.2767 0.6358 0.3969
C6H C 1.1823(4) 0.5799(3) 1.1593(3)
C6A C 0.9201(3) 0.3177(4) 0.6593(3)
C6I C 1.0799(3) 0.6823(4) 0.3407(3)
H4H H 1.2125 0.5494 1.1976
H4A H 0.9506 0.2875 0.6976
H4I H 1.0494 0.7125 0.3024
C7H C 1.1431(4) 0.5281(3) 1.1036(3)
C7A C 0.9719(3) 0.3569(4) 0.6036(3)
C7I C 1.0281(3) 0.6431(4) 0.3964(3)
H5H H 1.1477 0.4645 1.1045
H5A H 1.0355 0.3523 0.6045
H5I H 0.9645 0.6477 0.3955
C8H C 1.1060(4) 0.4389(5) 0.9571(3)
C8A C 1.0611(5) 0.3940(4) 0.4571(3)
C8I C 0.9389(5) 0.6060(4) 0.5429(3)
H6H H 1.0733 0.4063 0.9190
H6A H 1.0937 0.4267 0.4190
H6I H 0.9063 0.5733 0.5810
H7H H 1.1622 0.4625 0.9369
H7A H 1.0375 0.3378 0.4369
H7I H 0.9625 0.6622 0.5631
H8H H 1.1195 0.3980 0.9975
H8A H 1.1020 0.3805 0.4975
H8I H 0.8980 0.6195 0.5025
loop_
_geom_bond_atom_site_label_1
_geom_bond_atom_site_label_2
_geom_bond_site_symmetry_1
_geom_bond_site_symmetry_2
Fe1 N1 1_555 1_555
S1 C2 1_555 1_555
N1 C5 1_555 1_555
O1 H1 1_555 1_555
N2 Fe1 1_555 1_555
C1 O1 1_555 1_555
C2 N2 1_555 1_555
C3 C1 1_555 1_555
C4 C3 1_555 1_555
H2 C4 1_555 1_555
C5 C4 1_555 1_555
H3 C5 1_555 1_555
C6 N1 1_555 1_555
H4 C6 1_555 1_555
C7 C3 1_555 1_555
H5 C7 1_555 1_555
C8 C1 1_555 1_555
H6 C8 1_555 1_555
H7 C8 1_555 1_555
H8 C8 1_555 1_555
C9 H9 1_555 1_555
H10 C9 1_555 1_555
H11 C9 1_555 1_555
C10 C9 1_555 1_555
O2 C10 1_555 1_555
Fe1L N1H 1_555 1_555
Fe1L_2 N1I 1_555 1_555
S1A C2A 1_555 1_555
N1H C5H 1_555 1_555
N1A Fe1 1_555 1_555
N1I C5I 1_555 1_555
N1D Fe1 1_555 1_555
N1G Fe1 1_555 1_555
O1H H1H 1_555 1_555
O1A H1A 1_555 1_555
O1I H1I 1_555 1_555
N2A Fe1 1_555 1_555
C1H C1 1_555 1_555
C1A O1A 1_555 1_555
C1I O1I 1_555 1_555
C2A N2A 1_555 1_555
C3H C1H 1_555 1_555
C3A C1A 1_555 1_555
C3I C1I 1_555 1_555
C4H C3H 1_555 1_555
C4A C3A 1_555 1_555
C4I C3I 1_555 1_555
H2H C4H 1_555 1_555
H2A C4A 1_555 1_555
H2I C4I 1_555 1_555
C5H C4H 1_555 1_555
C5A N1A 1_555 1_555
C5I C4I 1_555 1_555
H3H C5H 1_555 1_555
H3A C5A 1_555 1_555
H3I C5I 1_555 1_555
C6H N1H 1_555 1_555
C6A N1A 1_555 1_555
C6I N1I 1_555 1_555
H4H C6H 1_555 1_555
H4A C6A 1_555 1_555
H4I C6I 1_555 1_555
C7H C3H 1_555 1_555
C7A C3A 1_555 1_555
C7I C3I 1_555 1_555
H5H C7H 1_555 1_555
H5A C7A 1_555 1_555
H5I C7I 1_555 1_555
C8H C1H 1_555 1_555
C8A C1A 1_555 1_555
C8I C1I 1_555 1_555
H6H C8H 1_555 1_555
H6A C8A 1_555 1_555
H6I C8I 1_555 1_555
H7H C8H 1_555 1_555
H7A C8A 1_555 1_555
H7I C8I 1_555 1_555
H8H C8H 1_555 1_555
H8A C8A 1_555 1_555
H8I C8I 1_555 1_555
C9C C10 1_555 1_555
C9B C10 1_555 1_555
C9D C10 1_555 1_555
H9C C9C 1_555 1_555
H9B C9B 1_555 1_555
H9D C9D 1_555 1_555
H10C C9C 1_555 1_555
H10B C9B 1_555 1_555
H10D C9D 1_555 1_555
H11C C9C 1_555 1_555
H11B C9B 1_555 1_555
H11D C9D 1_555 1_555
C6 C7 1_555 1_555
O1H C1H 1_555 1_555
C1A C1I 1_555 1_555
C4A C5A 1_555 1_555
C6H C7H 1_555 1_555
C6A C7A 1_555 1_555
C6I C7I 1_555 1_555

#END
