
#######################################################################
#
#                 Cambridge Crystallographic Data Centre
#                                CCDC 
#
#######################################################################
#
# If this CIF has been generated from an entry in the Cambridge 
# Structural Database, then it will include bibliographic, chemical, 
# crystal, experimental, refinement or atomic coordinate data resulting 
# from the CCDC's data processing and validation procedures.
#
#######################################################################

data_CEZGOD
_symmetry_cell_setting           monoclinic
_symmetry_space_group_name_H-M   'P 21/c'
_symmetry_Int_Tables_number      14
_space_group_name_Hall           '-P 2ybc'
loop_
_symmetry_equiv_pos_site_id
_symmetry_equiv_pos_as_xyz
1 x,y,z
2 x,1/2-y,1/2+z
3 -x,-y,-z
4 -x,1/2+y,1/2-z
_cell_length_a                   10.9449(10)
_cell_length_b                   13.788(2)
_cell_length_c                   22.261(4)
_cell_angle_alpha                90
_cell_angle_beta                 91.290(10)
_cell_angle_gamma                90
_cell_volume                     3358.52
loop_
_atom_site_label
_atom_site_type_symbol
_atom_site_fract_x
_atom_site_fract_y
_atom_site_fract_z
Pd1 Pd 0.63437(5) -0.30302(4) -0.28918(3)
Pd2 Pd 0.43837(6) -0.37024(4) -0.16734(3)
Pd3 Pd 0.37580(5) -0.07517(4) -0.14391(2)
S1 S 0.44135(18) 0.03619(14) -0.21873(9)
S2 S 0.47018(17) -0.20508(13) -0.19473(8)
N1 N 0.6606(6) 0.0886(4) -0.2533(3)
N2 N 0.6484(6) 0.0322(5) -0.1519(3)
N3 N 0.4633(5) -0.2364(4) -0.3119(2)
N4 N 0.2882(6) -0.1592(5) -0.2715(3)
C1 C 0.5984(7) 0.0529(5) -0.2061(3)
C2 C 0.7669(8) 0.0532(6) -0.1436(4)
C3 C 0.8191(10) 0.0373(11) -0.0808(4)
H1 H 0.7570 0.0110 -0.0558
H2 H 0.8469 0.0981 -0.0645
H3 H 0.8864 -0.0071 -0.0823
C4 C 0.8371(8) 0.0888(7) -0.1894(4)
H4 H 0.9199 0.1013 -0.1832
C5 C 0.7810(8) 0.1055(6) -0.2448(4)
C6 C 0.8508(9) 0.1459(10) -0.2969(5)
H5 H 0.7971 0.1515 -0.3314
H6 H 0.9172 0.1032 -0.3060
H7 H 0.8825 0.2088 -0.2865
C7 C 0.3987(7) -0.1988(5) -0.2659(3)
C8 C 0.4110(7) -0.2342(5) -0.3675(3)
C9 C 0.4841(9) -0.2755(7) -0.4174(4)
H8 H 0.5610 -0.2986 -0.4015
H9 H 0.4981 -0.2261 -0.4468
H10 H 0.4400 -0.3283 -0.4358
C10 C 0.2953(9) -0.1947(7) -0.3753(4)
H11 H 0.2577 -0.1937 -0.4132
C11 C 0.2376(7) -0.1577(6) -0.3275(4)
C12 C 0.1099(10) -0.1142(11) -0.3318(6)
H12 H 0.0854 -0.0937 -0.2927
H13 H 0.0536 -0.1620 -0.3471
H14 H 0.1102 -0.0594 -0.3584
C13 C 0.7554(9) -0.1811(7) -0.2927(5)
H15 H 0.8005 -0.1731 -0.3294
H16 H 0.7253 -0.1206 -0.2764
C14 C 0.8026(8) -0.2487(7) -0.2509(4)
C15 C 0.8083(10) -0.2259(10) -0.1843(5)
H17 H 0.7947 -0.1578 -0.1784
H18 H 0.8874 -0.2433 -0.1681
H19 H 0.7466 -0.2623 -0.1642
C16 C 0.8174(8) -0.3423(7) -0.2739(5)
H20 H 0.8323 -0.3934 -0.2446
H21 H 0.8673 -0.3481 -0.3092
C17 C 0.4551(11) -0.5086(7) -0.1233(4)
H22 H 0.3840 -0.5505 -0.1254
H23 H 0.5317 -0.5428 -0.1280
C18 C 0.4541(10) -0.4345(7) -0.0798(4)
C19 C 0.3488(13) -0.4263(9) -0.0368(5)
H24 H 0.3002 -0.4842 -0.0391
H25 H 0.2992 -0.3713 -0.0477
H26 H 0.3804 -0.4181 0.0034
C20 C 0.5406(10) -0.3613(8) -0.0866(4)
H27 H 0.6252 -0.3819 -0.0882
H28 H 0.5292 -0.3031 -0.0629
C21 C 0.2998(12) 0.0180(8) -0.0782(5)
H29 H 0.3495 0.0300 -0.0424
H30 H 0.2570 0.0751 -0.0931
C22 C 0.2344(10) -0.0697(7) -0.0800(4)
C23 C 0.1061(11) -0.0751(14) -0.1024(10)
H31 H 0.0730 -0.0108 -0.1058
H32 H 0.0587 -0.1121 -0.0747
H33 H 0.1034 -0.1059 -0.1410
C24 C 0.3045(10) -0.1524(8) -0.0713(4)
H34 H 0.2651 -0.2137 -0.0808
H35 H 0.3549 -0.1546 -0.0349
S1C S 0.55865(18) -0.46381(14) -0.28127(9)
Pd1C Pd 0.36563(5) 0.19698(4) -0.21082(3)
N1C N 0.3394(6) -0.4114(4) -0.2467(3)
Pd2C Pd 0.56163(6) 0.12976(4) -0.33266(3)
O1 O 0.4027(13) 0.1221(10) -0.9514(6)
S3 S 0.1289(4) 0.2540(4) -0.0268(2)
O2 O 0.0697(11) 0.2199(9) -0.0782(6)
O3 O 0.1520(14) 0.1853(11) 0.0205(7)
O4 O 0.2348(18) 0.3195(14) -0.0417(8)
C25 C 0.053(2) 0.3450(16) 0.0095(10)
F1 F 0.142(2) 0.4018(15) 0.0418(9)
F2 F -0.034(2) 0.3945(17) -0.0171(10)
F3 F -0.027(3) 0.309(3) 0.0516(16)
F4? F 0.0555(17) 0.4209(13) 0.9624(8)
F5? F -0.068(3) 0.279(2) 1.0011(14)
F6? F 0.085(2) 0.3793(15) 1.0572(9)
loop_
_geom_bond_atom_site_label_1
_geom_bond_atom_site_label_2
_geom_bond_site_symmetry_1
_geom_bond_site_symmetry_2
Pd1 N3 1_555 1_555
Pd2 S2 1_555 1_555
Pd3 S1 1_555 1_555
S1 C1 1_555 1_555
S2 Pd3 1_555 1_555
N1 C1 1_555 1_555
N2 C1 1_555 1_555
N3 C7 1_555 1_555
N4 C7 1_555 1_555
C2 N2 1_555 1_555
C3 C2 1_555 1_555
H1 C3 1_555 1_555
H2 C3 1_555 1_555
H3 C3 1_555 1_555
C4 C2 1_555 1_555
H4 C4 1_555 1_555
C5 N1 1_555 1_555
C6 C5 1_555 1_555
H5 C6 1_555 1_555
H6 C6 1_555 1_555
H7 C6 1_555 1_555
C7 S2 1_555 1_555
C8 N3 1_555 1_555
C9 C8 1_555 1_555
H8 C9 1_555 1_555
H9 C9 1_555 1_555
H10 C9 1_555 1_555
C10 C8 1_555 1_555
H11 C10 1_555 1_555
C11 N4 1_555 1_555
C12 C11 1_555 1_555
H12 C12 1_555 1_555
H13 C12 1_555 1_555
H14 C12 1_555 1_555
C13 Pd1 1_555 1_555
H15 C13 1_555 1_555
H16 C13 1_555 1_555
C14 Pd1 1_555 1_555
C15 C14 1_555 1_555
H17 C15 1_555 1_555
H18 C15 1_555 1_555
H19 C15 1_555 1_555
C16 Pd1 1_555 1_555
H20 C16 1_555 1_555
H21 C16 1_555 1_555
C17 Pd2 1_555 1_555
H22 C17 1_555 1_555
H23 C17 1_555 1_555
C18 Pd2 1_555 1_555
C19 C18 1_555 1_555
H24 C19 1_555 1_555
H25 C19 1_555 1_555
H26 C19 1_555 1_555
C20 Pd2 1_555 1_555
H27 C20 1_555 1_555
H28 C20 1_555 1_555
C21 Pd3 1_555 1_555
H29 C21 1_555 1_555
H30 C21 1_555 1_555
C22 Pd3 1_555 1_555
C23 C22 1_555 1_555
H31 C23 1_555 1_555
H32 C23 1_555 1_555
H33 C23 1_555 1_555
C24 Pd3 1_555 1_555
H34 C24 1_555 1_555
H35 C24 1_555 1_555
S3 O2 1_555 1_555
O3 S3 1_555 1_555
O4 S3 1_555 1_555
C25 S3 1_555 1_555
F1 C25 1_555 1_555
F2 C25 1_555 1_555
F3 C25 1_555 1_555
S1C Pd1 1_555 1_555
Pd1C S1 1_555 1_555
N1C Pd2 1_555 1_555
Pd2C N1 1_555 1_555
C4 C5 1_555 1_555
C10 C11 1_555 1_555
C13 C14 1_555 1_555
C14 C16 1_555 1_555
C17 C18 1_555 1_555
C18 C20 1_555 1_555
C21 C22 1_555 1_555
C22 C24 1_555 1_555

#END
