
#######################################################################
#
#                 Cambridge Crystallographic Data Centre
#                                CCDC 
#
#######################################################################
#
# If this CIF has been generated from an entry in the Cambridge 
# Structural Database, then it will include bibliographic, chemical, 
# crystal, experimental, refinement or atomic coordinate data resulting 
# from the CCDC's data processing and validation procedures.
#
#######################################################################

data_CEZJUO
_symmetry_cell_setting           monoclinic
_symmetry_space_group_name_H-M   'P 21/n'
_symmetry_Int_Tables_number      14
_space_group_name_Hall           '-P 2yn'
loop_
_symmetry_equiv_pos_site_id
_symmetry_equiv_pos_as_xyz
1 x,y,z
2 1/2-x,1/2+y,1/2-z
3 -x,-y,-z
4 1/2+x,1/2-y,1/2+z
_cell_length_a                   11.94090(10)
_cell_length_b                   8.75380(10)
_cell_length_c                   38.6259(4)
_cell_angle_alpha                90
_cell_angle_beta                 95.2160(10)
_cell_angle_gamma                90
_cell_volume                     4020.78
loop_
_atom_site_label
_atom_site_type_symbol
_atom_site_fract_x
_atom_site_fract_y
_atom_site_fract_z
Cd1 Cd 0.323460(19) -1.05132(3) 0.208640(6)
N1 N 0.2998(2) -1.1868(3) 0.15638(7)
N2 N 0.4766(2) -1.3146(3) 0.08996(7)
H1 H 0.5268 -1.2445 0.0936
N3 N 1.3578(2) -2.2173(3) -0.13154(8)
H2 H 1.3141 -2.2931 -0.1284
N4 N 1.5899(2) -2.1575(3) -0.18669(7)
O1 O 0.4350(2) -1.5324(4) 0.06087(9)
O2 O 1.3887(2) -1.9680(3) -0.11773(7)
O3 O 0.14430(18) -1.1016(3) 0.22562(6)
O4 O 0.14542(18) -0.9060(3) 0.19032(6)
O5 O 0.12426(17) -0.7777(3) 0.26129(6)
O6 O -0.01528(19) -0.6512(3) 0.27961(7)
O7 O 0.32924(18) -0.9140(3) 0.26204(6)
C1 C 0.2006(3) -1.2494(4) 0.14509(9)
H3 H 0.1392 -1.2326 0.1578
C2 C 0.1861(3) -1.3366(4) 0.11576(9)
H4 H 0.1160 -1.3784 0.1089
C3 C 0.2757(3) -1.3630(4) 0.09628(9)
H5 H 0.2669 -1.4225 0.0763
C4 C 0.3784(3) -1.2992(4) 0.10719(9)
C5 C 0.3861(3) -1.2141(4) 0.13753(9)
H6 H 0.4558 -1.1732 0.1453
C6 C 0.4997(3) -1.4304(5) 0.06804(9)
C7 C 0.6145(3) -1.4194(4) 0.05458(10)
H7 H 0.6707 -1.4035 0.0740
H8 H 0.6161 -1.3316 0.0393
C8 C 0.6443(3) -1.5616(5) 0.03494(10)
H9 H 0.5870 -1.5791 0.0159
H10 H 0.6447 -1.6490 0.0504
C9 C 0.7586(3) -1.5494(5) 0.02048(9)
H11 H 0.7571 -1.4643 0.0044
H12 H 0.8153 -1.5276 0.0394
C10 C 0.7919(3) -1.6922(4) 0.00206(10)
H13 H 0.7361 -1.7129 -0.0172
H14 H 0.7919 -1.7778 0.0180
C11 C 0.9073(3) -1.6806(5) -0.01166(10)
H15 H 0.9636 -1.6649 0.0078
H16 H 0.9084 -1.5922 -0.0268
C12 C 0.9381(3) -1.8221(4) -0.03173(10)
H17 H 0.9383 -1.9101 -0.0164
H18 H 0.8807 -1.8390 -0.0508
C13 C 1.0518(3) -1.8112(5) -0.04628(10)
H19 H 1.0534 -1.7198 -0.0604
H20 H 1.1098 -1.8011 -0.0272
C14 C 1.0781(3) -1.9481(5) -0.06803(10)
H21 H 1.0216 -1.9557 -0.0876
H22 H 1.0733 -2.0398 -0.0541
C15 C 1.1939(3) -1.9421(4) -0.08167(10)
H23 H 1.1973 -1.8549 -0.0970
H24 H 1.2506 -1.9280 -0.0623
C16 C 1.2199(3) -2.0855(4) -0.10108(10)
H25 H 1.1599 -2.1028 -0.1193
H26 H 1.2206 -2.1713 -0.0852
C17 C 1.3307(3) -2.0815(4) -0.11718(9)
C18 C 1.4491(3) -2.2468(4) -0.15092(9)
C19 C 1.4861(3) -2.3948(4) -0.15467(10)
H27 H 1.4522 -2.4752 -0.1438
C20 C 1.5745(3) -2.4219(4) -0.17482(10)
H28 H 1.5987 -2.5212 -0.1784
C21 C 1.6260(3) -2.3002(4) -0.18955(9)
H29 H 1.6880 -2.3186 -0.2019
C22 C 1.5017(3) -2.1319(4) -0.16803(9)
H30 H 1.4750 -2.0325 -0.1666
C23 C 0.0970(3) -0.9890(4) 0.21066(8)
C24 C -0.0245(2) -0.9603(4) 0.21616(8)
C25 C -0.1043(3) -1.0450(4) 0.19598(9)
H31 H -0.0811 -1.1152 0.1800
C26 C -0.2174(3) -1.0262(4) 0.19935(10)
H32 H -0.2702 -1.0836 0.1858
C27 C -0.2520(3) -0.9217(5) 0.22298(10)
H33 H -0.3282 -0.9086 0.2253
C28 C -0.1741(3) -0.8373(4) 0.24293(9)
H34 H -0.1982 -0.7668 0.2587
C29 C -0.0599(2) -0.8551(4) 0.24005(8)
C30 C 0.0211(3) -0.7562(4) 0.26188(8)
Cd1A Cd 0.176540(19) -0.55132(3) 0.291360(6)
Cd1B Cd 1.676540(19) -1.94868(3) -0.208640(6)
N4B N 0.4101(2) -0.8425(3) 0.18669(7)
O5A O 0.37574(17) -1.2777(3) 0.23871(6)
O6A O 0.51528(19) -1.1512(3) 0.22039(7)
N5 N 1.1991(3) -2.5242(4) -0.13543(9)
N6 N 0.9370(2) -2.3017(3) -0.13433(8)
H35 H 0.9011 -2.2451 -0.1498
O8 O 0.9494(2) -2.3636(3) -0.07760(7)
C31 C 1.1952(4) -2.5533(5) -0.16953(12)
H36 H 1.2542 -2.6070 -0.1779
C32 C 1.1079(4) -2.5073(5) -0.19263(12)
H37 H 1.1072 -2.5313 -0.2161
C33 C 1.0220(3) -2.4258(4) -0.18072(9)
H38 H 0.9626 -2.3928 -0.1961
C34 C 1.0232(3) -2.3923(4) -0.14575(9)
C35 C 1.1130(3) -2.4465(5) -0.12409(10)
H39 H 1.1136 -2.4281 -0.1004
C36 C 0.9033(3) -2.2927(4) -0.10139(10)
C37 C 0.8025(3) -2.1916(5) -0.09844(10)
H40 H 0.8209 -2.0886 -0.1052
H41 H 0.7411 -2.2275 -0.1146
C38 C 0.7638(3) -2.1877(4) -0.06242(9)
H42 H 0.7476 -2.2913 -0.0555
H43 H 0.8248 -2.1497 -0.0464
C39 C 0.6615(3) -2.0906(4) -0.05904(10)
H44 H 0.6014 -2.1251 -0.0758
H45 H 0.6788 -1.9858 -0.0647
C40 C 0.6208(3) -2.0953(4) -0.02311(10)
H46 H 0.6822 -2.0642 -0.0064
H47 H 0.6022 -2.2001 -0.0179
C41 C 0.5198(3) -1.9962(5) -0.01797(10)
H48 H 0.5384 -1.8910 -0.0229
H49 H 0.4584 -2.0265 -0.0347
N5B N -0.1991(3) -1.4758(4) 0.13543(9)
N6B N 0.0630(2) -1.6983(3) 0.13433(8)
H35B H 0.0989 -1.7549 0.1498
O8B O 0.0506(2) -1.6364(3) 0.07760(7)
C31B C -0.1952(4) -1.4467(5) 0.16953(12)
H36B H -0.2542 -1.3930 0.1779
C32B C -0.1079(4) -1.4927(5) 0.19263(12)
H37B H -0.1072 -1.4687 0.2161
C33B C -0.0220(3) -1.5742(4) 0.18072(9)
H38B H 0.0374 -1.6072 0.1961
C34B C -0.0232(3) -1.6077(4) 0.14575(9)
C35B C -0.1130(3) -1.5535(5) 0.12409(10)
H39B H -0.1136 -1.5719 0.1004
C36B C 0.0967(3) -1.7073(4) 0.10139(10)
C37B C 0.1975(3) -1.8084(5) 0.09844(10)
H40B H 0.1791 -1.9114 0.1052
H41B H 0.2589 -1.7725 0.1146
C38B C 0.2362(3) -1.8123(4) 0.06242(9)
H42B H 0.2524 -1.7087 0.0555
H43B H 0.1752 -1.8503 0.0464
C39B C 0.3385(3) -1.9094(4) 0.05904(10)
H44B H 0.3986 -1.8749 0.0758
H45B H 0.3212 -2.0142 0.0647
C40B C 0.3792(3) -1.9047(4) 0.02311(10)
H46B H 0.3178 -1.9358 0.0064
H47B H 0.3978 -1.7999 0.0179
C41B C 0.4802(3) -2.0038(5) 0.01797(10)
H48B H 0.4616 -2.1090 0.0229
H49B H 0.5416 -1.9735 0.0347
loop_
_geom_bond_atom_site_label_1
_geom_bond_atom_site_label_2
_geom_bond_site_symmetry_1
_geom_bond_site_symmetry_2
Cd1 N1 1_555 1_555
N1 C1 1_555 1_555
N2 H1 1_555 1_555
N3 H2 1_555 1_555
N4 C21 1_555 1_555
O1 C6 1_555 1_555
O2 C17 1_555 1_555
O3 Cd1 1_555 1_555
O4 Cd1 1_555 1_555
O5 C30 1_555 1_555
O6 C30 1_555 1_555
O7 Cd1 1_555 1_555
C1 H3 1_555 1_555
C2 C1 1_555 1_555
H4 C2 1_555 1_555
C3 C2 1_555 1_555
H5 C3 1_555 1_555
C4 N2 1_555 1_555
C5 N1 1_555 1_555
H6 C5 1_555 1_555
C6 N2 1_555 1_555
C7 C6 1_555 1_555
H7 C7 1_555 1_555
H8 C7 1_555 1_555
C8 C7 1_555 1_555
H9 C8 1_555 1_555
H10 C8 1_555 1_555
C9 C8 1_555 1_555
H11 C9 1_555 1_555
H12 C9 1_555 1_555
C10 C9 1_555 1_555
H13 C10 1_555 1_555
H14 C10 1_555 1_555
C11 C10 1_555 1_555
H15 C11 1_555 1_555
H16 C11 1_555 1_555
C12 C11 1_555 1_555
H17 C12 1_555 1_555
H18 C12 1_555 1_555
C13 C12 1_555 1_555
H19 C13 1_555 1_555
H20 C13 1_555 1_555
C14 C13 1_555 1_555
H21 C14 1_555 1_555
H22 C14 1_555 1_555
C15 C14 1_555 1_555
H23 C15 1_555 1_555
H24 C15 1_555 1_555
C16 C15 1_555 1_555
H25 C16 1_555 1_555
H26 C16 1_555 1_555
C17 N3 1_555 1_555
C18 N3 1_555 1_555
C19 C18 1_555 1_555
H27 C19 1_555 1_555
C20 C19 1_555 1_555
H28 C20 1_555 1_555
C21 C20 1_555 1_555
H29 C21 1_555 1_555
C22 N4 1_555 1_555
H30 C22 1_555 1_555
C23 O3 1_555 1_555
C24 C23 1_555 1_555
C25 C24 1_555 1_555
H31 C25 1_555 1_555
C26 C25 1_555 1_555
H32 C26 1_555 1_555
C27 C26 1_555 1_555
H33 C27 1_555 1_555
C28 C27 1_555 1_555
H34 C28 1_555 1_555
C29 C24 1_555 1_555
C30 C29 1_555 1_555
N5 C31 1_555 1_555
N6 H35 1_555 1_555
O8 C36 1_555 1_555
C31 H36 1_555 1_555
C32 C31 1_555 1_555
H37 C32 1_555 1_555
C33 C32 1_555 1_555
H38 C33 1_555 1_555
C34 N6 1_555 1_555
C35 N5 1_555 1_555
H39 C35 1_555 1_555
C36 N6 1_555 1_555
C37 C36 1_555 1_555
H40 C37 1_555 1_555
H41 C37 1_555 1_555
C38 C37 1_555 1_555
H42 C38 1_555 1_555
H43 C38 1_555 1_555
C39 C38 1_555 1_555
H44 C39 1_555 1_555
H45 C39 1_555 1_555
C40 C39 1_555 1_555
H46 C40 1_555 1_555
H47 C40 1_555 1_555
C41 C40 1_555 1_555
H48 C41 1_555 1_555
H49 C41 1_555 1_555
Cd1A O5 1_555 1_555
Cd1B N4 1_555 1_555
N4B Cd1 1_555 1_555
O5A Cd1 1_555 1_555
O6A Cd1 1_555 1_555
N5B C31B 1_555 1_555
N6B H35B 1_555 1_555
O8B C36B 1_555 1_555
C31B H36B 1_555 1_555
C32B C31B 1_555 1_555
H37B C32B 1_555 1_555
C33B C32B 1_555 1_555
H38B C33B 1_555 1_555
C34B N6B 1_555 1_555
C35B N5B 1_555 1_555
H39B C35B 1_555 1_555
C36B N6B 1_555 1_555
C37B C36B 1_555 1_555
H40B C37B 1_555 1_555
H41B C37B 1_555 1_555
C38B C37B 1_555 1_555
H42B C38B 1_555 1_555
H43B C38B 1_555 1_555
C39B C38B 1_555 1_555
H44B C39B 1_555 1_555
H45B C39B 1_555 1_555
C40B C39B 1_555 1_555
H46B C40B 1_555 1_555
H47B C40B 1_555 1_555
C41B C41 1_555 1_555
H48B C41B 1_555 1_555
H49B C41B 1_555 1_555
O4 C23 1_555 1_555
O6 Cd1A 1_555 1_555
C3 C4 1_555 1_555
C4 C5 1_555 1_555
C16 C17 1_555 1_555
C18 C22 1_555 1_555
C28 C29 1_555 1_555
C33 C34 1_555 1_555
C34 C35 1_555 1_555
C33B C34B 1_555 1_555
C34B C35B 1_555 1_555
C40B C41B 1_555 1_555

#END
