
#######################################################################
#
#                 Cambridge Crystallographic Data Centre
#                                CCDC 
#
#######################################################################
#
# If this CIF has been generated from an entry in the Cambridge 
# Structural Database, then it will include bibliographic, chemical, 
# crystal, experimental, refinement or atomic coordinate data resulting 
# from the CCDC's data processing and validation procedures.
#
#######################################################################

data_CEZMOL
_symmetry_cell_setting           monoclinic
_symmetry_space_group_name_H-M   'C c'
_symmetry_Int_Tables_number      9
_space_group_name_Hall           'C -2yc'
loop_
_symmetry_equiv_pos_site_id
_symmetry_equiv_pos_as_xyz
1 x,y,z
2 x,-y,1/2+z
3 1/2+x,1/2+y,z
4 1/2+x,1/2-y,1/2+z
_cell_length_a                   8.4231(17)
_cell_length_b                   17.513(3)
_cell_length_c                   20.761(4)
_cell_angle_alpha                90
_cell_angle_beta                 100.89(3)
_cell_angle_gamma                90
_cell_volume                     3007.38
loop_
_atom_site_label
_atom_site_type_symbol
_atom_site_fract_x
_atom_site_fract_y
_atom_site_fract_z
O1 O 0.4547(15) 0.4712(7) 0.3839(7)
O2 O 0.6076(18) 0.3731(8) 0.4245(8)
C1 C 0.596(2) 0.4453(11) 0.4084(10)
O3 O 0.0386(15) 0.4297(7) 0.1066(7)
O4 O -0.1159(18) 0.3278(7) 0.0743(8)
C2 C -0.100(2) 0.4018(11) 0.0859(10)
U1 U 0.81580(7) 0.84744(4) 0.38306(4)
U2 U -0.32080(6) 0.80681(4) 0.11868(4)
Ca1 Ca 0.0886(5) 0.6715(2) 0.1656(2)
O5 O 0.7588(16) 0.8738(8) 0.4595(7)
O6 O 0.1115(16) 0.7387(7) 0.0657(7)
O7 O 0.8676(16) 0.8253(7) 0.3101(7)
O8 O 0.1479(17) 0.5800(7) 0.0859(7)
O9 O -0.3847(17) 0.7893(7) 0.1952(7)
O10 O 0.0307(18) 0.6774(7) 0.2760(7)
O11 O -0.2680(18) 0.8220(7) 0.0456(8)
O12 O 0.1637(17) 0.5478(7) 0.2169(7)
O13 O 0.9689(16) 0.7298(8) 0.4239(7)
O14 O 0.7076(16) 0.7190(7) 0.3931(7)
O15 O 0.3528(16) 0.6971(9) 0.2237(8)
O16 O 0.7051(14) 0.5708(6) 0.4072(6)
O17 O 0.6337(14) 0.9493(7) 0.3246(7)
O18 O 0.5247(19) 0.8365(8) 0.3313(8)
O19 O 0.2466(14) 0.8776(7) 0.2499(7)
O20 O -0.030(2) 0.8051(7) 0.1771(9)
O21 O -0.1576(15) 0.9151(7) 0.1692(7)
O22 O -0.1976(15) 0.6765(7) 0.1224(7)
O23 O -0.4582(14) 0.6872(8) 0.0782(7)
O24 O -0.2018(15) 0.5252(7) 0.0941(7)
C3 C 0.847(3) 0.6889(12) 0.4142(11)
C4 C 0.849(2) 0.6083(11) 0.4210(9)
C5 C 0.966(2) 0.5579(9) 0.4420(9)
H1 H 1.0751 0.5698 0.4562
C6 C 0.898(2) 0.4832(11) 0.4393(11)
H2 H 0.9525 0.4369 0.4478
C7 C 0.734(2) 0.4948(10) 0.4211(10)
C8 C 0.511(2) 0.9038(13) 0.3122(9)
C9 C 0.359(2) 0.9303(10) 0.2758(10)
C10 C 0.2971(19) 1.0012(10) 0.2631(8)
H3 H 0.3516 1.0472 0.2731
C11 C 0.135(2) 0.9923(10) 0.2318(9)
H4 H 0.0587 1.0310 0.2204
C12 C 0.111(2) 0.9175(10) 0.2217(10)
C13 C -0.034(3) 0.8775(12) 0.1879(11)
C14 C -0.331(2) 0.6476(9) 0.0939(10)
C15 C -0.347(2) 0.5637(10) 0.0816(10)
C16 C -0.465(2) 0.5168(12) 0.0591(11)
H5 H -0.5742 0.5299 0.0482
C17 C -0.401(2) 0.4426(10) 0.0539(9)
H6 H -0.4546 0.3986 0.0370
C18 C -0.241(2) 0.4512(9) 0.0795(9)
O1B O 0.9547(15) 0.9712(7) 0.3839(7)
O2B O 1.1076(18) 0.8731(8) 0.4245(8)
O3B O -0.4614(15) 0.9297(7) 0.1066(7)
O4B O -0.6159(18) 0.8278(7) 0.0743(8)
U1B U 0.31580(7) 0.34744(4) 0.38306(4)
U2B U 0.17920(6) 0.30681(4) 0.11868(4)
O25 O 0.335(3) 0.6310(9) 0.3526(10)
O26 O 0.3933(16) 0.7671(9) 0.4431(8)
loop_
_geom_bond_atom_site_label_1
_geom_bond_atom_site_label_2
_geom_bond_site_symmetry_1
_geom_bond_site_symmetry_2
O1 C1 1_555 1_555
O2 C1 1_555 1_555
C1 C7 1_555 1_555
O3 C2 1_555 1_555
O4 C2 1_555 1_555
C2 C18 1_555 1_555
U1 O5 1_555 1_555
U2 O9 1_555 1_555
Ca1 O6 1_555 1_555
O7 U1 1_555 1_555
O8 Ca1 1_555 1_555
O10 Ca1 1_555 1_555
O11 U2 1_555 1_555
O12 Ca1 1_555 1_555
O13 U1 1_555 1_555
O14 U1 1_555 1_555
O15 Ca1 1_555 1_555
O16 C4 1_555 1_555
O17 U1 1_555 1_555
O18 U1 1_555 1_555
O19 C9 1_555 1_555
O20 U2 1_555 1_555
O21 U2 1_555 1_555
O22 U2 1_555 1_555
O23 U2 1_555 1_555
O24 C15 1_555 1_555
C3 O13 1_555 1_555
C4 C3 1_555 1_555
C5 C4 1_555 1_555
H1 C5 1_555 1_555
C6 C5 1_555 1_555
H2 C6 1_555 1_555
C7 O16 1_555 1_555
C8 O17 1_555 1_555
C9 C8 1_555 1_555
C10 C9 1_555 1_555
H3 C10 1_555 1_555
C11 C10 1_555 1_555
H4 C11 1_555 1_555
C12 O19 1_555 1_555
C13 O20 1_555 1_555
C14 O22 1_555 1_555
C15 C14 1_555 1_555
C16 C15 1_555 1_555
H5 C16 1_555 1_555
C17 C16 1_555 1_555
H6 C17 1_555 1_555
C18 O24 1_555 1_555
O1B U1 1_555 1_555
O2B U1 1_555 1_555
O3B U2 1_555 1_555
O4B U2 1_555 1_555
U1B O1 1_555 1_555
U2B O3 1_555 1_555
O2 U1B 1_555 1_555
O4 U2B 1_555 1_555
Ca1 O20 1_555 1_555
Ca1 O22 1_555 1_555
O14 C3 1_555 1_555
O18 C8 1_555 1_555
O21 C13 1_555 1_555
O23 C14 1_555 1_555
C6 C7 1_555 1_555
C11 C12 1_555 1_555
C12 C13 1_555 1_555
C17 C18 1_555 1_555

#END
