
#######################################################################
#
#                 Cambridge Crystallographic Data Centre
#                                CCDC 
#
#######################################################################
#
# If this CIF has been generated from an entry in the Cambridge 
# Structural Database, then it will include bibliographic, chemical, 
# crystal, experimental, refinement or atomic coordinate data resulting 
# from the CCDC's data processing and validation procedures.
#
#######################################################################

data_CEZPEE
_symmetry_cell_setting           tetragonal
_symmetry_space_group_name_H-M   'P 43 21 2'
_symmetry_Int_Tables_number      96
_space_group_name_Hall           'P 4nw 2abw'
loop_
_symmetry_equiv_pos_site_id
_symmetry_equiv_pos_as_xyz
1 x,y,z
2 -x,-y,1/2+z
3 1/2-y,1/2+x,3/4+z
4 1/2+y,1/2-x,1/4+z
5 1/2-x,1/2+y,3/4-z
6 1/2+x,1/2-y,1/4-z
7 y,x,-z
8 -y,-x,1/2-z
_cell_length_a                   8.6397(12)
_cell_length_b                   8.6397(12)
_cell_length_c                   32.425(7)
_cell_angle_alpha                90
_cell_angle_beta                 90
_cell_angle_gamma                90
_cell_volume                     2420.35
loop_
_atom_site_label
_atom_site_type_symbol
_atom_site_fract_x
_atom_site_fract_y
_atom_site_fract_z
Ag1 Ag -0.01700(5) 0.18390(5) 0.061932(15)
O1 O -0.0717(6) 0.3626(7) 0.13042(17)
O2 O -0.2722(6) 0.3193(6) 0.09489(16)
O3 O -0.2857(6) 0.4659(6) 0.14863(16)
N1 N 0.1336(5) 0.3733(5) 0.03972(13)
N2 N 0.4713(5) 0.8099(6) 0.07501(16)
H1 H 0.4197 0.8944 0.0723
N3 N 0.8603(5) 0.9618(5) 0.05845(13)
N4 N -0.2107(6) 0.3820(6) 0.12476(15)
C1 C 0.1496(7) 0.4054(7) -0.00064(17)
H2 H 0.0953 0.3465 -0.0198
C2 C 0.2441(6) 0.5229(7) -0.01435(16)
H3 H 0.2545 0.5412 -0.0425
C3 C 0.3233(7) 0.6136(6) 0.01358(16)
H4 H 0.3850 0.6950 0.0045
C4 C 0.3099(6) 0.5821(6) 0.05552(16)
C5 C 0.2141(6) 0.4584(6) 0.06666(17)
H5 H 0.2058 0.4340 0.0945
C6 C 0.3909(7) 0.6713(8) 0.08845(17)
H6 H 0.3153 0.7006 0.1091
H7 H 0.4653 0.6033 0.1017
C7 C 0.6274(6) 0.8107(6) 0.06643(14)
C8 C 0.7090(6) 0.9502(5) 0.06698(16)
H8 H 0.6553 1.0401 0.0736
C9 C 0.9375(7) 0.8328(7) 0.04940(18)
H9 H 1.0426 0.8392 0.0434
C10 C 0.8665(7) 0.6907(7) 0.04862(18)
H10 H 0.9236 0.6026 0.0422
C11 C 0.7115(7) 0.6781(7) 0.05732(17)
H11 H 0.6633 0.5818 0.0571
Ag1_2 Ag 0.98300(5) 1.18390(5) 0.061932(15)
Ag1E Ag -0.51700(5) 0.31610(5) 0.188068(15)
O3E O 0.2143(6) 0.0341(6) 0.10137(16)
N3_2 N -0.1397(5) -0.0382(5) 0.05845(13)
loop_
_geom_bond_atom_site_label_1
_geom_bond_atom_site_label_2
_geom_bond_site_symmetry_1
_geom_bond_site_symmetry_2
Ag1 O2 1_555 1_555
O1 N4 1_555 1_555
O2 N4 1_555 1_555
O3 N4 1_555 1_555
N1 Ag1 1_555 1_555
N2 H1 1_555 1_555
N3 C8 1_555 1_555
C1 N1 1_555 1_555
H2 C1 1_555 1_555
C2 C1 1_555 1_555
H3 C2 1_555 1_555
C3 C2 1_555 1_555
H4 C3 1_555 1_555
C4 C3 1_555 1_555
C5 N1 1_555 1_555
H5 C5 1_555 1_555
C6 N2 1_555 1_555
H6 C6 1_555 1_555
H7 C6 1_555 1_555
C7 N2 1_555 1_555
C8 C7 1_555 1_555
H8 C8 1_555 1_555
C9 N3 1_555 1_555
H9 C9 1_555 1_555
C10 C9 1_555 1_555
H10 C10 1_555 1_555
C11 C7 1_555 1_555
H11 C11 1_555 1_555
Ag1_2 N3 1_555 1_555
Ag1E O3 1_555 1_555
O3E Ag1 1_555 1_555
N3_2 Ag1 1_555 1_555
C4 C5 1_555 1_555
C4 C6 1_555 1_555
C10 C11 1_555 1_555

#END
