
#######################################################################
#
#                 Cambridge Crystallographic Data Centre
#                                CCDC 
#
#######################################################################
#
# If this CIF has been generated from an entry in the Cambridge 
# Structural Database, then it will include bibliographic, chemical, 
# crystal, experimental, refinement or atomic coordinate data resulting 
# from the CCDC's data processing and validation procedures.
#
#######################################################################

data_CEZPAA
_symmetry_cell_setting           orthorhombic
_symmetry_space_group_name_H-M   'P b c a'
_symmetry_Int_Tables_number      61
_space_group_name_Hall           '-P 2ac 2ab'
loop_
_symmetry_equiv_pos_site_id
_symmetry_equiv_pos_as_xyz
1 x,y,z
2 1/2-x,-y,1/2+z
3 1/2+x,1/2-y,-z
4 -x,1/2+y,1/2-z
5 -x,-y,-z
6 1/2+x,y,1/2-z
7 1/2-x,1/2+y,z
8 x,1/2-y,1/2+z
_cell_length_a                   17.2479(5)
_cell_length_b                   14.5923(4)
_cell_length_c                   21.1904(6)
_cell_angle_alpha                90
_cell_angle_beta                 90
_cell_angle_gamma                90
_cell_volume                     5333.34
loop_
_atom_site_label
_atom_site_type_symbol
_atom_site_fract_x
_atom_site_fract_y
_atom_site_fract_z
Ag1 Ag 0.452948(12) 0.815594(14) 0.515103(10)
P1 P 0.46723(4) 0.79452(5) 0.62603(3)
O1 O 0.58148(15) 0.7977(2) 0.45267(14)
O2 O 0.5786(2) 0.70786(19) 0.37306(14)
O3 O 0.6765(2) 0.7103(2) 0.4340(2)
N1 N 0.39877(15) 0.67342(16) 0.47587(12)
N2 N 0.20565(16) 0.58399(17) 0.50053(12)
H1 H 0.1848 0.6354 0.5108
N3 N 0.09467(13) 0.39272(14) 0.43099(10)
N4 N 0.61253(18) 0.7375(2) 0.41970(15)
C1 C 0.32410(19) 0.66602(18) 0.48816(14)
H2 H 0.2972 0.7193 0.4982
C2 C 0.28243(18) 0.58369(19) 0.48717(13)
C3 C 0.3249(2) 0.50510(19) 0.47166(15)
H3 H 0.3010 0.4481 0.4700
C4 C 0.4020(2) 0.5138(2) 0.45896(16)
H4 H 0.4309 0.4619 0.4490
C5 C 0.43780(19) 0.5975(2) 0.46061(16)
H5 H 0.4903 0.6017 0.4509
C6 C 0.1565(2) 0.5041(2) 0.49866(15)
H6 H 0.1082 0.5185 0.5199
H7 H 0.1815 0.4554 0.5223
C7 C 0.13811(16) 0.46904(18) 0.43355(13)
C8 C 0.16348(18) 0.51220(19) 0.37956(14)
H8 H 0.1930 0.5654 0.3823
C9 C 0.14493(19) 0.4763(2) 0.32161(15)
H9 H 0.1619 0.5048 0.2848
C10 C 0.10130(19) 0.3983(2) 0.31858(14)
H10 H 0.0883 0.3727 0.2798
C11 C 0.07699(18) 0.3585(2) 0.37385(14)
H11 H 0.0470 0.3056 0.3717
C12 C 0.42796(16) 0.87931(18) 0.68060(13)
C13 C 0.43088(17) 0.97075(19) 0.66350(15)
H12 H 0.4511 0.9874 0.6245
C14 C 0.40369(19) 1.0378(2) 0.7045(2)
H13 H 0.4059 1.0992 0.6928
C15 C 0.37383(19) 1.0138(2) 0.7617(2)
H14 H 0.3553 1.0590 0.7887
C16 C 0.3709(2) 0.9235(3) 0.77975(18)
H15 H 0.3506 0.9074 0.8189
C17 C 0.39848(18) 0.8566(2) 0.73908(15)
H16 H 0.3971 0.7954 0.7514
C18 C 0.41440(17) 0.68937(17) 0.64396(13)
C19 C 0.45182(19) 0.60523(19) 0.64937(14)
H17 H 0.5057 0.6027 0.6506
C20 C 0.4090(3) 0.5255(2) 0.65294(16)
H18 H 0.4343 0.4693 0.6556
C21 C 0.3297(3) 0.5282(3) 0.65256(16)
H19 H 0.3013 0.4742 0.6550
C22 C 0.2924(2) 0.6107(3) 0.64859(16)
H20 H 0.2385 0.6125 0.6493
C23 C 0.33411(19) 0.6915(2) 0.64357(15)
H21 H 0.3082 0.7472 0.6400
C24 C 0.56574(15) 0.77329(17) 0.65387(13)
C25 C 0.58895(17) 0.78882(19) 0.71593(14)
H22 H 0.5533 0.8104 0.7453
C26 C 0.66467(19) 0.7724(2) 0.73414(16)
H23 H 0.6799 0.7835 0.7755
C27 C 0.71743(19) 0.7398(2) 0.69101(17)
H24 H 0.7682 0.7286 0.7035
C28 C 0.69580(18) 0.7237(2) 0.62994(17)
H25 H 0.7317 0.7009 0.6012
C29 C 0.62018(16) 0.74131(19) 0.61069(15)
H26 H 0.6060 0.7317 0.5689
Ag1F Ag 0.047052(12) 0.315594(14) 0.515103(10)
N3F N 0.40533(13) 0.89272(14) 0.43099(10)
loop_
_geom_bond_atom_site_label_1
_geom_bond_atom_site_label_2
_geom_bond_site_symmetry_1
_geom_bond_site_symmetry_2
Ag1 P1 1_555 1_555
P1 C12 1_555 1_555
O1 Ag1 1_555 1_555
O2 N4 1_555 1_555
O3 N4 1_555 1_555
N1 Ag1 1_555 1_555
N2 H1 1_555 1_555
N3 C7 1_555 1_555
N4 O1 1_555 1_555
C1 N1 1_555 1_555
H2 C1 1_555 1_555
C2 N2 1_555 1_555
C3 C2 1_555 1_555
H3 C3 1_555 1_555
C4 C3 1_555 1_555
H4 C4 1_555 1_555
C5 N1 1_555 1_555
H5 C5 1_555 1_555
C6 N2 1_555 1_555
H6 C6 1_555 1_555
H7 C6 1_555 1_555
C7 C6 1_555 1_555
C8 C7 1_555 1_555
H8 C8 1_555 1_555
C9 C8 1_555 1_555
H9 C9 1_555 1_555
C10 C9 1_555 1_555
H10 C10 1_555 1_555
C11 N3 1_555 1_555
H11 C11 1_555 1_555
C12 C13 1_555 1_555
C13 H12 1_555 1_555
C14 C13 1_555 1_555
H13 C14 1_555 1_555
C15 C14 1_555 1_555
H14 C15 1_555 1_555
C16 C15 1_555 1_555
H15 C16 1_555 1_555
C17 C12 1_555 1_555
H16 C17 1_555 1_555
C18 P1 1_555 1_555
C19 C18 1_555 1_555
H17 C19 1_555 1_555
C20 C19 1_555 1_555
H18 C20 1_555 1_555
C21 C20 1_555 1_555
H19 C21 1_555 1_555
C22 C21 1_555 1_555
H20 C22 1_555 1_555
C23 C18 1_555 1_555
H21 C23 1_555 1_555
C24 P1 1_555 1_555
C25 C24 1_555 1_555
H22 C25 1_555 1_555
C26 C25 1_555 1_555
H23 C26 1_555 1_555
C27 C26 1_555 1_555
H24 C27 1_555 1_555
C28 C27 1_555 1_555
H25 C28 1_555 1_555
C29 C24 1_555 1_555
H26 C29 1_555 1_555
Ag1F N3 1_555 1_555
N3F Ag1 1_555 1_555
C1 C2 1_555 1_555
C4 C5 1_555 1_555
C10 C11 1_555 1_555
C16 C17 1_555 1_555
C22 C23 1_555 1_555
C28 C29 1_555 1_555

#END
