
#######################################################################
#
#                 Cambridge Crystallographic Data Centre
#                                CCDC 
#
#######################################################################
#
# If this CIF has been generated from an entry in the Cambridge 
# Structural Database, then it will include bibliographic, chemical, 
# crystal, experimental, refinement or atomic coordinate data resulting 
# from the CCDC's data processing and validation procedures.
#
#######################################################################

data_CEZTOR
_symmetry_cell_setting           monoclinic
_symmetry_space_group_name_H-M   'P 21/n'
_symmetry_Int_Tables_number      14
_space_group_name_Hall           '-P 2yn'
loop_
_symmetry_equiv_pos_site_id
_symmetry_equiv_pos_as_xyz
1 x,y,z
2 1/2-x,1/2+y,1/2-z
3 -x,-y,-z
4 1/2+x,1/2-y,1/2+z
_cell_length_a                   10.1936(15)
_cell_length_b                   9.0611(13)
_cell_length_c                   20.667(3)
_cell_angle_alpha                90
_cell_angle_beta                 102.475(3)
_cell_angle_gamma                90
_cell_volume                     1863.84
loop_
_atom_site_label
_atom_site_type_symbol
_atom_site_fract_x
_atom_site_fract_y
_atom_site_fract_z
Zn1 Zn 0.0000 0.0000 -0.5000
O1 O 0.1092(6) 0.4258(7) -0.0555(2)
O2 O 0.3051(3) 0.3286(4) -0.04126(15)
N1 N -0.0483(2) -0.0632(3) -0.41266(11)
N2 N 0.0994(2) 0.1785(3) -0.45397(12)
N3 N 0.1911(3) 0.3583(3) -0.07470(14)
C1 C -0.1669(3) -0.2953(3) -0.45056(14)
C2 C -0.1158(3) -0.1893(3) -0.40206(14)
C3 C -0.1194(3) -0.1997(4) -0.33276(15)
H1 H -0.1601 -0.2761 -0.3124
C4 C -0.0542(3) -0.0804(4) -0.30222(15)
H2 H -0.0410 -0.0567 -0.2565
C5 C -0.0084(3) 0.0039(3) -0.35223(15)
C6 C 0.0681(3) 0.1337(3) -0.34025(13)
C7 C 0.1166(3) 0.2138(3) -0.38794(14)
C8 C 0.1894(3) 0.3511(3) -0.37523(15)
H3 H 0.2153 0.3998 -0.3337
C9 C 0.2136(3) 0.3971(3) -0.43346(15)
H4 H 0.2588 0.4852 -0.4408
C10 C -0.1583(3) -0.2885(3) -0.51729(14)
C11 C -0.2365(3) -0.4259(3) -0.42937(14)
C12 C -0.1801(3) -0.5663(3) -0.42823(16)
H5 H -0.0973 -0.5796 -0.4415
C13 C -0.2451(4) -0.6865(4) -0.40775(17)
H6 H -0.2072 -0.7822 -0.4080
C14 C -0.3640(4) -0.6689(4) -0.38709(17)
C15 C -0.4200(4) -0.5315(5) -0.3876(2)
H7 H -0.5018 -0.5188 -0.3733
C16 C -0.3571(3) -0.4103(4) -0.4091(2)
H8 H -0.3973 -0.3155 -0.4099
C17 C -0.4308(6) -0.8002(5) -0.3626(3)
H9 H -0.3619 -0.8691 -0.3399
H10 H -0.4851 -0.7667 -0.3317
H11 H -0.4887 -0.8500 -0.4003
C18 C 0.1001(3) 0.1923(3) -0.27130(14)
C19 C 0.0025(3) 0.2664(4) -0.24545(16)
H12 H -0.0856 0.2773 -0.2718
C20 C 0.0328(3) 0.3237(4) -0.18218(16)
H13 H -0.0330 0.3774 -0.1656
C21 C 0.1595(3) 0.3023(3) -0.14317(14)
C22 C 0.2585(3) 0.2317(4) -0.16715(15)
H14 H 0.3461 0.2203 -0.1402
C23 C 0.2283(3) 0.1774(4) -0.23152(15)
H15 H 0.2962 0.1292 -0.2487
Zn1C Zn 0.5000 0.5000 0.0000
Zn1C_2 Zn -0.5000 -0.5000 -1.0000
O1B O -0.1092(6) -0.4258(7) -0.9445(2)
O2B O -0.3051(3) -0.3286(4) -0.95874(15)
O2C O -0.1949(3) 0.1714(4) -0.54126(15)
O2A O 0.1949(3) -0.1714(4) -0.45874(15)
N1B N 0.0483(2) 0.0632(3) -0.58734(11)
N2B N -0.0994(2) -0.1785(3) -0.54603(12)
N3B N -0.1911(3) -0.3583(3) -0.92530(14)
C1B C 0.1669(3) 0.2953(3) -0.54944(14)
C2B C 0.1158(3) 0.1893(3) -0.59794(14)
C3B C 0.1194(3) 0.1997(4) -0.66724(15)
H1B H 0.1601 0.2761 -0.6876
C4B C 0.0542(3) 0.0804(4) -0.69778(15)
H2B H 0.0410 0.0567 -0.7435
C5B C 0.0084(3) -0.0039(3) -0.64777(15)
C6B C -0.0681(3) -0.1337(3) -0.65975(13)
C7B C -0.1166(3) -0.2138(3) -0.61206(14)
C8B C -0.1894(3) -0.3511(3) -0.62477(15)
H3B H -0.2153 -0.3998 -0.6663
C9B C -0.2136(3) -0.3971(3) -0.56654(15)
H4B H -0.2588 -0.4852 -0.5592
C10B C 0.1583(3) 0.2885(3) -0.48271(14)
C11B C 0.2365(3) 0.4259(3) -0.57063(14)
C12B C 0.1801(3) 0.5663(3) -0.57177(16)
H5B H 0.0973 0.5796 -0.5585
C13B C 0.2451(4) 0.6865(4) -0.59225(17)
H6B H 0.2072 0.7822 -0.5920
C14B C 0.3640(4) 0.6689(4) -0.61291(17)
C15B C 0.4200(4) 0.5315(5) -0.6124(2)
H7B H 0.5018 0.5188 -0.6267
C16B C 0.3571(3) 0.4103(4) -0.5909(2)
H8B H 0.3973 0.3155 -0.5901
C17B C 0.4308(6) 0.8002(5) -0.6374(3)
H9B H 0.3619 0.8691 -0.6601
H10B H 0.4851 0.7667 -0.6683
H11B H 0.4887 0.8500 -0.5997
C18B C -0.1001(3) -0.1923(3) -0.72870(14)
C19B C -0.0025(3) -0.2664(4) -0.75455(16)
H12B H 0.0856 -0.2773 -0.7282
C20B C -0.0328(3) -0.3237(4) -0.81782(16)
H13B H 0.0330 -0.3774 -0.8344
C21B C -0.1595(3) -0.3023(3) -0.85683(14)
C22B C -0.2585(3) -0.2317(4) -0.83285(15)
H14B H -0.3461 -0.2203 -0.8598
C23B C -0.2283(3) -0.1774(4) -0.76848(15)
H15B H -0.2962 -0.1292 -0.7513
loop_
_geom_bond_atom_site_label_1
_geom_bond_atom_site_label_2
_geom_bond_site_symmetry_1
_geom_bond_site_symmetry_2
Zn1 N1 1_555 1_555
O1 N3 1_555 1_555
O2 N3 1_555 1_555
N1 C2 1_555 1_555
N2 Zn1 1_555 1_555
N3 C21 1_555 1_555
C1 C2 1_555 1_555
C2 C3 1_555 1_555
C3 H1 1_555 1_555
C4 C3 1_555 1_555
H2 C4 1_555 1_555
C5 N1 1_555 1_555
C6 C5 1_555 1_555
C7 N2 1_555 1_555
C8 C7 1_555 1_555
H3 C8 1_555 1_555
C9 C8 1_555 1_555
H4 C9 1_555 1_555
C10 C1 1_555 1_555
C11 C1 1_555 1_555
C12 C11 1_555 1_555
H5 C12 1_555 1_555
C13 C12 1_555 1_555
H6 C13 1_555 1_555
C14 C13 1_555 1_555
C15 C14 1_555 1_555
H7 C15 1_555 1_555
C16 C11 1_555 1_555
H8 C16 1_555 1_555
C17 C14 1_555 1_555
H9 C17 1_555 1_555
H10 C17 1_555 1_555
H11 C17 1_555 1_555
C18 C6 1_555 1_555
C19 C18 1_555 1_555
H12 C19 1_555 1_555
C20 C19 1_555 1_555
H13 C20 1_555 1_555
C21 C20 1_555 1_555
C22 C21 1_555 1_555
H14 C22 1_555 1_555
C23 C18 1_555 1_555
H15 C23 1_555 1_555
Zn1C O2 1_555 1_555
Zn1C_2 O2B 1_555 1_555
O1B N3B 1_555 1_555
O2B N3B 1_555 1_555
O2C Zn1 1_555 1_555
O2A Zn1 1_555 1_555
N1B Zn1 1_555 1_555
N2B Zn1 1_555 1_555
N3B C21B 1_555 1_555
C1B C2B 1_555 1_555
C2B N1B 1_555 1_555
C3B C2B 1_555 1_555
H1B C3B 1_555 1_555
C4B C3B 1_555 1_555
H2B C4B 1_555 1_555
C5B N1B 1_555 1_555
C6B C5B 1_555 1_555
C7B N2B 1_555 1_555
C8B C7B 1_555 1_555
H3B C8B 1_555 1_555
C9B C10 1_555 1_555
H4B C9B 1_555 1_555
C10B N2 1_555 1_555
C11B C1B 1_555 1_555
C12B C11B 1_555 1_555
H5B C12B 1_555 1_555
C13B C12B 1_555 1_555
H6B C13B 1_555 1_555
C14B C13B 1_555 1_555
C15B C14B 1_555 1_555
H7B C15B 1_555 1_555
C16B C11B 1_555 1_555
H8B C16B 1_555 1_555
C17B C14B 1_555 1_555
H9B C17B 1_555 1_555
H10B C17B 1_555 1_555
H11B C17B 1_555 1_555
C18B C6B 1_555 1_555
C19B C18B 1_555 1_555
H12B C19B 1_555 1_555
C20B C19B 1_555 1_555
H13B C20B 1_555 1_555
C21B C20B 1_555 1_555
C22B C21B 1_555 1_555
H14B C22B 1_555 1_555
C23B C18B 1_555 1_555
H15B C23B 1_555 1_555
C4 C5 1_555 1_555
C6 C7 1_555 1_555
C9 C10B 1_555 1_555
C10 N2B 1_555 1_555
C15 C16 1_555 1_555
C22 C23 1_555 1_555
C1B C10B 1_555 1_555
C4B C5B 1_555 1_555
C6B C7B 1_555 1_555
C8B C9B 1_555 1_555
C15B C16B 1_555 1_555
C22B C23B 1_555 1_555

#END
