
#######################################################################
#
#                 Cambridge Crystallographic Data Centre
#                                CCDC 
#
#######################################################################
#
# If this CIF has been generated from an entry in the Cambridge 
# Structural Database, then it will include bibliographic, chemical, 
# crystal, experimental, refinement or atomic coordinate data resulting 
# from the CCDC's data processing and validation procedures.
#
#######################################################################

data_CEZWEK
_symmetry_cell_setting           monoclinic
_symmetry_space_group_name_H-M   'C 2/c'
_symmetry_Int_Tables_number      15
_space_group_name_Hall           '-C 2yn'
loop_
_symmetry_equiv_pos_site_id
_symmetry_equiv_pos_as_xyz
1 x,y,z
2 1/2+x,1/2+y,z
3 -x,y,1/2-z
4 1/2-x,1/2+y,1/2-z
5 -x,-y,-z
6 1/2-x,1/2-y,-z
7 x,-y,1/2+z
8 1/2+x,1/2-y,1/2+z
_cell_length_a                   25.300(5)
_cell_length_b                   10.910(2)
_cell_length_c                   19.079(4)
_cell_angle_alpha                90
_cell_angle_beta                 120.79(3)
_cell_angle_gamma                90
_cell_volume                     4523.96
loop_
_atom_site_label
_atom_site_type_symbol
_atom_site_fract_x
_atom_site_fract_y
_atom_site_fract_z
Zn1 Zn 0.202745(17) 0.07247(4) 0.21478(2)
F1 F -0.05400(9) -0.2387(2) 0.15797(13)
O1 O 0.11362(10) 0.3234(2) 0.03874(16)
O2 O 0.17580(10) 0.1871(3) 0.12660(15)
O3 O 0.11720(9) 0.0016(2) 0.16920(14)
O4 O 0.30412(12) 0.0930(3) 0.2421(2)
O5 O 0.25327(10) -0.0757(3) 0.22608(17)
O6 O 0.27355(10) -0.3691(2) 0.17564(14)
O7 O 0.25143(13) -0.2181(3) 0.08776(18)
O8 O 0.5000 -0.2721(3) 0.2500
N1 N -0.27173(12) -0.0849(3) 0.08187(17)
H1 H -0.3073 -0.1153 0.0745
H2 H -0.2659 -0.0103 0.1048
N2 N -0.16281(12) -0.1027(3) 0.06891(16)
N3 N -0.04180(12) 0.1890(3) 0.01592(17)
C1 C 0.12218(15) 0.2312(3) 0.0812(2)
C2 C 0.06783(14) 0.1694(3) 0.0774(2)
C3 C 0.06921(14) 0.0614(3) 0.1201(2)
C4 C 0.00961(14) 0.0171(3) 0.1043(2)
C5 C 0.00433(14) -0.0917(3) 0.1392(2)
H3 H 0.0393 -0.1382 0.1719
C6 C -0.05148(15) -0.1304(3) 0.1258(2)
C7 C -0.10634(13) -0.0626(3) 0.07828(19)
C8 C -0.10163(14) 0.0417(3) 0.0413(2)
H4 H -0.1369 0.0869 0.0076
C9 C -0.04458(14) 0.0818(3) 0.05340(19)
C10 C 0.01254(15) 0.2264(3) 0.0277(2)
H5 H 0.0129 0.2964 0.0001
C11 C -0.09767(15) 0.2595(3) -0.0346(2)
H6 H -0.1287 0.2203 -0.0854
C12 C -0.12145(16) 0.3330(4) 0.0084(2)
H7 H -0.0977 0.3339 0.0675
H8 H -0.1657 0.3369 -0.0153
C13 C -0.09461(17) 0.3951(4) -0.0362(3)
H9 H -0.1226 0.4366 -0.0869
H10 H -0.0546 0.4335 -0.0040
C14 C -0.15975(15) -0.1213(4) 0.1479(2)
H11 H -0.1490 -0.0444 0.1776
H12 H -0.1276 -0.1801 0.1802
C15 C -0.22010(15) -0.1672(3) 0.1369(2)
H13 H -0.2282 -0.2492 0.1142
H14 H -0.2171 -0.1710 0.1897
C16 C -0.27548(14) -0.0740(4) 0.0020(2)
H15 H -0.3087 -0.0188 -0.0330
H16 H -0.2844 -0.1536 -0.0243
C17 C -0.21561(13) -0.0260(3) 0.0130(2)
H17 H -0.2185 -0.0230 -0.0397
H18 H -0.2089 0.0570 0.0342
C18 C 0.35352(14) -0.0926(3) 0.2444(2)
C19 C 0.34629(14) -0.2060(3) 0.2086(2)
C20 C 0.39680(15) -0.2643(3) 0.2130(2)
H19 H 0.3922 -0.3412 0.1896
C21 C 0.45352(14) -0.2081(3) 0.2520(2)
C22 C 0.46201(15) -0.0975(4) 0.2905(2)
H20 H 0.5009 -0.0622 0.3193
C23 C 0.41198(15) -0.0398(4) 0.2860(2)
H21 H 0.4172 0.0359 0.3111
C24 C 0.30066(15) -0.0200(4) 0.2373(2)
C25 C 0.28451(15) -0.2659(4) 0.1531(2)
Zn1B Zn 0.797255(17) 0.07247(4) 0.28522(2)
Zn1C Zn 0.297255(17) -0.42753(4) 0.28522(2)
Zn1A Zn 0.702745(17) -0.42753(4) 0.21478(2)
F1B F 1.05400(9) -0.2387(2) 0.34203(13)
O1B O 0.88638(10) 0.3234(2) 0.46126(16)
O2B O 0.82420(10) 0.1871(3) 0.37340(15)
O3B O 0.88280(9) 0.0016(2) 0.33080(14)
O4B O 0.69588(12) 0.0930(3) 0.2579(2)
O5B O 0.74673(10) -0.0757(3) 0.27392(17)
O6B O 0.72645(10) -0.3691(2) 0.32436(14)
O6C O 0.22645(10) 0.1309(2) 0.32436(14)
O6A O 0.77355(10) 0.1309(2) 0.17564(14)
O7B O 0.74857(13) -0.2181(3) 0.41224(18)
N1B N 1.27173(12) -0.0849(3) 0.41813(17)
H1B H 1.3073 -0.1153 0.4255
H2B H 1.2659 -0.0103 0.3952
N2B N 1.16281(12) -0.1027(3) 0.43109(16)
N3B N 1.04180(12) 0.1890(3) 0.48408(17)
C1B C 0.87782(15) 0.2312(3) 0.4188(2)
C2B C 0.93217(14) 0.1694(3) 0.4226(2)
C3B C 0.93079(14) 0.0614(3) 0.3799(2)
C4B C 0.99039(14) 0.0171(3) 0.3957(2)
C5B C 0.99567(14) -0.0917(3) 0.3608(2)
H3B H 0.9607 -0.1382 0.3281
C6B C 1.05148(15) -0.1304(3) 0.3742(2)
C7B C 1.10634(13) -0.0626(3) 0.42172(19)
C8B C 1.10163(14) 0.0417(3) 0.4587(2)
H4B H 1.1369 0.0869 0.4924
C9B C 1.04458(14) 0.0818(3) 0.44660(19)
C10B C 0.98746(15) 0.2264(3) 0.4723(2)
H5B H 0.9871 0.2964 0.4999
C11B C 1.09767(15) 0.2595(3) 0.5346(2)
H6B H 1.1287 0.2203 0.5854
C12B C 1.12145(16) 0.3330(4) 0.4916(2)
H7B H 1.0977 0.3339 0.4325
H8B H 1.1657 0.3369 0.5153
C13B C 1.09461(17) 0.3951(4) 0.5362(3)
H9B H 1.1226 0.4366 0.5869
H10B H 1.0546 0.4335 0.5040
C14B C 1.15975(15) -0.1213(4) 0.3521(2)
H11B H 1.1490 -0.0444 0.3224
H12B H 1.1276 -0.1801 0.3198
C15B C 1.22010(15) -0.1672(3) 0.3631(2)
H13B H 1.2282 -0.2492 0.3858
H14B H 1.2171 -0.1710 0.3103
C16B C 1.27548(14) -0.0740(4) 0.4980(2)
H15B H 1.3087 -0.0188 0.5330
H16B H 1.2844 -0.1536 0.5243
C17B C 1.21561(13) -0.0260(3) 0.4870(2)
H17B H 1.2185 -0.0230 0.5397
H18B H 1.2089 0.0570 0.4658
C18B C 0.64648(14) -0.0926(3) 0.2556(2)
C19B C 0.65371(14) -0.2060(3) 0.2914(2)
C20B C 0.60320(15) -0.2643(3) 0.2870(2)
H19B H 0.6078 -0.3412 0.3104
C21B C 0.54648(14) -0.2081(3) 0.2480(2)
C22B C 0.53799(15) -0.0975(4) 0.2095(2)
H20B H 0.4991 -0.0622 0.1807
C23B C 0.58802(15) -0.0398(4) 0.2140(2)
H21B H 0.5828 0.0359 0.1889
C24B C 0.69934(15) -0.0200(4) 0.2627(2)
C25B C 0.71549(15) -0.2659(4) 0.3469(2)
loop_
_geom_bond_atom_site_label_1
_geom_bond_atom_site_label_2
_geom_bond_site_symmetry_1
_geom_bond_site_symmetry_2
Zn1 O2 1_555 1_555
F1 C6 1_555 1_555
O1 C1 1_555 1_555
O2 C1 1_555 1_555
O3 Zn1 1_555 1_555
O4 Zn1 1_555 1_555
O5 Zn1 1_555 1_555
O6 C25 1_555 1_555
O7 C25 1_555 1_555
O8 C21 1_555 1_555
N1 H1 1_555 1_555
H2 N1 1_555 1_555
N2 C7 1_555 1_555
N3 C9 1_555 1_555
C1 C2 1_555 1_555
C2 C3 1_555 1_555
C3 O3 1_555 1_555
C4 C3 1_555 1_555
C5 C4 1_555 1_555
H3 C5 1_555 1_555
C6 C5 1_555 1_555
C7 C6 1_555 1_555
C8 C7 1_555 1_555
H4 C8 1_555 1_555
C9 C4 1_555 1_555
C10 N3 1_555 1_555
H5 C10 1_555 1_555
C11 N3 1_555 1_555
H6 C11 1_555 1_555
C12 C11 1_555 1_555
H7 C12 1_555 1_555
H8 C12 1_555 1_555
C13 C11 1_555 1_555
H9 C13 1_555 1_555
H10 C13 1_555 1_555
C14 N2 1_555 1_555
H11 C14 1_555 1_555
H12 C14 1_555 1_555
C15 N1 1_555 1_555
H13 C15 1_555 1_555
H14 C15 1_555 1_555
C16 N1 1_555 1_555
H15 C16 1_555 1_555
H16 C16 1_555 1_555
C17 N2 1_555 1_555
H17 C17 1_555 1_555
H18 C17 1_555 1_555
C18 C19 1_555 1_555
C19 C20 1_555 1_555
C20 H19 1_555 1_555
C21 C20 1_555 1_555
C22 C21 1_555 1_555
H20 C22 1_555 1_555
C23 C18 1_555 1_555
H21 C23 1_555 1_555
C24 O4 1_555 1_555
C25 C19 1_555 1_555
Zn1B O2B 1_555 1_555
Zn1C O6 1_555 1_555
Zn1A O6B 1_555 1_555
F1B C6B 1_555 1_555
O1B C1B 1_555 1_555
O2B C1B 1_555 1_555
O3B Zn1B 1_555 1_555
O4B Zn1B 1_555 1_555
O5B Zn1B 1_555 1_555
O6B C25B 1_555 1_555
O6C Zn1 1_555 1_555
O6A Zn1B 1_555 1_555
O7B C25B 1_555 1_555
N1B H1B 1_555 1_555
H2B N1B 1_555 1_555
N2B C7B 1_555 1_555
N3B C9B 1_555 1_555
C1B C2B 1_555 1_555
C2B C3B 1_555 1_555
C3B O3B 1_555 1_555
C4B C3B 1_555 1_555
C5B C4B 1_555 1_555
H3B C5B 1_555 1_555
C6B C5B 1_555 1_555
C7B C6B 1_555 1_555
C8B C7B 1_555 1_555
H4B C8B 1_555 1_555
C9B C4B 1_555 1_555
C10B N3B 1_555 1_555
H5B C10B 1_555 1_555
C11B N3B 1_555 1_555
H6B C11B 1_555 1_555
C12B C11B 1_555 1_555
H7B C12B 1_555 1_555
H8B C12B 1_555 1_555
C13B C11B 1_555 1_555
H9B C13B 1_555 1_555
H10B C13B 1_555 1_555
C14B N2B 1_555 1_555
H11B C14B 1_555 1_555
H12B C14B 1_555 1_555
C15B N1B 1_555 1_555
H13B C15B 1_555 1_555
H14B C15B 1_555 1_555
C16B N1B 1_555 1_555
H15B C16B 1_555 1_555
H16B C16B 1_555 1_555
C17B N2B 1_555 1_555
H17B C17B 1_555 1_555
H18B C17B 1_555 1_555
C18B C19B 1_555 1_555
C19B C20B 1_555 1_555
C20B H19B 1_555 1_555
C21B O8 1_555 1_555
C22B C21B 1_555 1_555
H20B C22B 1_555 1_555
C23B C18B 1_555 1_555
H21B C23B 1_555 1_555
C24B O4B 1_555 1_555
C25B C19B 1_555 1_555
O5 C24 1_555 1_555
C2 C10 1_555 1_555
C8 C9 1_555 1_555
C12 C13 1_555 1_555
C14 C15 1_555 1_555
C16 C17 1_555 1_555
C18 C24 1_555 1_555
C22 C23 1_555 1_555
O5B C24B 1_555 1_555
C2B C10B 1_555 1_555
C8B C9B 1_555 1_555
C12B C13B 1_555 1_555
C14B C15B 1_555 1_555
C16B C17B 1_555 1_555
C18B C24B 1_555 1_555
C20B C21B 1_555 1_555
C22B C23B 1_555 1_555

#END
