
#######################################################################
#
#                 Cambridge Crystallographic Data Centre
#                                CCDC 
#
#######################################################################
#
# If this CIF has been generated from an entry in the Cambridge 
# Structural Database, then it will include bibliographic, chemical, 
# crystal, experimental, refinement or atomic coordinate data resulting 
# from the CCDC's data processing and validation procedures.
#
#######################################################################

data_CEZWEJ
_symmetry_cell_setting           orthorhombic
_symmetry_space_group_name_H-M   'P c a 21'
_symmetry_Int_Tables_number      29
_space_group_name_Hall           'P 2c -2ac'
loop_
_symmetry_equiv_pos_site_id
_symmetry_equiv_pos_as_xyz
1 x,y,z
2 1/2-x,y,1/2+z
3 1/2+x,-y,z
4 -x,-y,1/2+z
_cell_length_a                   33.826(8)
_cell_length_b                   5.119(1)
_cell_length_c                   9.872(3)
_cell_angle_alpha                90
_cell_angle_beta                 90
_cell_angle_gamma                90
_cell_volume                     1709.39
loop_
_atom_site_label
_atom_site_type_symbol
_atom_site_fract_x
_atom_site_fract_y
_atom_site_fract_z
Cd1 Cd 0.03320 0.23080 0.00000
O1 O -0.00850 -0.07010 0.09600
C1 C 0.14980 -0.09280 -0.36440
C2 C 0.16570 0.09350 -0.44440
C3 C 0.20490 0.17780 -0.41130
C4 C 0.22630 0.07090 -0.30830
C5 C 0.20880 -0.09260 -0.23190
C6 C 0.17050 -0.19440 -0.25840
S1 S 0.10230 -0.20730 -0.41710
C7 C 0.08330 -0.39800 -0.27520
C8 C 0.06670 -0.24890 -0.15440
O2 O 0.05950 -0.00480 -0.17180
O3 O 0.06060 -0.37480 -0.05080
H1 H 0.14200 0.23900 -0.50000
H2 H 0.21800 0.26000 -0.50200
H3 H 0.21800 -0.15300 -0.12300
H4 H 0.16100 -0.36900 -0.20500
H5 H 0.06400 -0.37100 -0.30500
H6 H 0.10400 -0.47400 -0.26600
H7 H -0.00100 -0.28700 0.11600
C9 C 0.128300 0.298400 0.169300
C10 C 0.15070 0.24040 0.06010
C11 C 0.184500 0.376400 0.027900
C12 C 0.195200 0.572900 0.111500
C13 C 0.174800 0.639000 0.224600
C14 C 0.139900 0.505000 0.249300
S2 S 0.086200 0.098900 0.198200
C15 C 0.059900 0.242000 0.337400
C16 C 0.030200 0.463600 0.305100
O4 O 0.015600 0.472400 0.191300
O5 O 0.022400 0.610100 0.405200
H8 H 0.14200 0.12200 0.00100
H9 H 0.20000 0.20100 -0.03000
H10 H 0.22000 0.69600 0.11500
H11 H 0.18400 0.80000 0.30500
H12 H 0.12200 0.55200 0.33300
H13 H 0.08000 0.29100 0.38900
H14 H 0.04100 0.07100 0.35100
O3_2 O 0.06060 0.62520 -0.05080
O5C O -0.022400 0.389900 -0.094800
Cd1_2 Cd 0.03320 -0.76920 0.00000
Cd1C Cd -0.03320 0.76920 0.50000
loop_
_geom_bond_atom_site_label_1
_geom_bond_atom_site_label_2
_geom_bond_site_symmetry_1
_geom_bond_site_symmetry_2
Cd1 O1 1_555 1_555
O1 H7 1_555 1_555
C1 C2 1_555 1_555
C2 C3 1_555 1_555
C3 C4 1_555 1_555
C4 C5 1_555 1_555
C5 C6 1_555 1_555
C6 C1 1_555 1_555
S1 C1 1_555 1_555
C7 S1 1_555 1_555
C8 C7 1_555 1_555
O2 Cd1 1_555 1_555
O3 C8 1_555 1_555
H1 C2 1_555 1_555
H2 C3 1_555 1_555
H3 C5 1_555 1_555
H4 C6 1_555 1_555
H5 C7 1_555 1_555
H6 C7 1_555 1_555
C9 C10 1_555 1_555
C10 C11 1_555 1_555
C11 C12 1_555 1_555
C12 C13 1_555 1_555
C13 C14 1_555 1_555
C14 C9 1_555 1_555
S2 Cd1 1_555 1_555
C15 S2 1_555 1_555
C16 C15 1_555 1_555
O4 Cd1 1_555 1_555
O5 C16 1_555 1_555
H8 C10 1_555 1_555
H9 C11 1_555 1_555
H10 C12 1_555 1_555
H11 C13 1_555 1_555
H12 C14 1_555 1_555
H13 C15 1_555 1_555
H14 C15 1_555 1_555
O3_2 Cd1 1_555 1_555
O5C Cd1 1_555 1_555
Cd1_2 O3 1_555 1_555
Cd1C O5 1_555 1_555
C8 O2 1_555 1_555
C9 S2 1_555 1_555
C16 O4 1_555 1_555

#END
