
#######################################################################
#
#                 Cambridge Crystallographic Data Centre
#                                CCDC 
#
#######################################################################
#
# If this CIF has been generated from an entry in the Cambridge 
# Structural Database, then it will include bibliographic, chemical, 
# crystal, experimental, refinement or atomic coordinate data resulting 
# from the CCDC's data processing and validation procedures.
#
#######################################################################

data_CEZWIO
_symmetry_cell_setting           monoclinic
_symmetry_space_group_name_H-M   'C 2/c'
_symmetry_Int_Tables_number      15
_space_group_name_Hall           '-C 2yn'
loop_
_symmetry_equiv_pos_site_id
_symmetry_equiv_pos_as_xyz
1 x,y,z
2 1/2+x,1/2+y,z
3 -x,y,1/2-z
4 1/2-x,1/2+y,1/2-z
5 -x,-y,-z
6 1/2-x,1/2-y,-z
7 x,-y,1/2+z
8 1/2+x,1/2-y,1/2+z
_cell_length_a                   24.763(5)
_cell_length_b                   12.380(3)
_cell_length_c                   17.729(4)
_cell_angle_alpha                90
_cell_angle_beta                 113.20(3)
_cell_angle_gamma                90
_cell_volume                     4995.6
loop_
_atom_site_label
_atom_site_type_symbol
_atom_site_fract_x
_atom_site_fract_y
_atom_site_fract_z
Zn1 Zn -0.212574(13) -0.09718(3) -0.20125(2)
F1 F 0.03797(8) 0.17138(16) -0.13769(14)
O1 O -0.14322(9) -0.3421(2) -0.03847(16)
O3 O -0.19659(8) -0.2176(2) -0.12289(14)
O4 O -0.13182(8) -0.04207(18) -0.14817(13)
O5 O -0.28939(11) -0.0515(2) -0.19934(18)
O6 O -0.25043(11) 0.0827(3) -0.2376(2)
O7 O -0.25001(11) 0.2301(3) -0.09638(17)
O8 O -0.27412(9) 0.3640(2) -0.18572(13)
O9 O -0.5000 0.3773(2) -0.2500
N1 N 0.24873(12) 0.0634(3) -0.08266(19)
H1 H 0.2831 0.0968 -0.0730
H2 H 0.2469 0.0039 -0.1128
N2 N 0.13824(11) 0.0448(2) -0.06791(16)
C1 C -0.14736(12) -0.2585(3) -0.07901(18)
C2 C -0.09187(11) -0.2058(2) -0.07565(17)
C3 C -0.08858(11) -0.1034(2) -0.10870(16)
C4 C -0.03012(11) -0.0656(2) -0.09543(16)
C5 C -0.02251(12) 0.0363(2) -0.12367(17)
H3 H -0.0549 0.0807 -0.1496
C6 C 0.03205(13) 0.0708(3) -0.11328(19)
C7 C 0.08278(11) 0.0073(3) -0.07596(18)
C8 C 0.07542(12) -0.0924(3) -0.04580(18)
H4 H 0.1081 -0.1356 -0.0188
C9 C 0.01967(11) -0.1289(2) -0.05535(17)
C10 C -0.04142(11) -0.2640(3) -0.03738(18)
H5 H -0.0448 -0.3319 -0.0172
N3 N 0.01266(9) -0.2302(2) -0.02673(14)
C11 C 0.06253(13) -0.2998(3) 0.0116(2)
H6 H 0.0800 -0.3214 -0.0270
C12 C 0.1055(3) -0.2930(7) 0.0932(4)
H8 H 0.0995 -0.2399 0.1295
H9 H 0.1462 -0.3052 0.1019
C13 C 0.0640(3) -0.3879(6) 0.0672(5)
H10 H 0.0796 -0.4571 0.0595
H11 H 0.0328 -0.3916 0.0872
C16 C 0.14164(15) 0.0806(3) -0.1457(2)
H16 H 0.1098 0.1304 -0.1738
H17 H 0.1375 0.0187 -0.1811
C17 C 0.20013(17) 0.1357(3) -0.1282(3)
H18 H 0.2027 0.1562 -0.1795
H19 H 0.2029 0.2008 -0.0964
C18 C 0.24575(16) 0.0320(5) -0.0039(2)
H20 H 0.2494 0.0958 0.0295
H21 H 0.2781 -0.0161 0.0258
C19 C 0.18809(12) -0.0240(3) -0.0189(2)
H22 H 0.1862 -0.0915 -0.0476
H23 H 0.1858 -0.0404 0.0332
C20 C -0.34448(12) 0.1098(2) -0.23343(18)
C21 C -0.34134(11) 0.2161(2) -0.20691(17)
C22 C -0.39276(11) 0.2699(2) -0.21509(17)
H24 H -0.3907 0.3413 -0.1977
C23 C -0.44723(10) 0.2185(2) -0.24893(16)
C24 C -0.45009(12) 0.1150(2) -0.2796(2)
H25 H -0.4863 0.0815 -0.3057
C25 C -0.39907(13) 0.0611(3) -0.27174(19)
H26 H -0.4014 -0.0085 -0.2924
C26 C -0.29071(13) 0.0445(3) -0.22317(19)
C27 C -0.28336(12) 0.2717(3) -0.15982(19)
C28 C -0.5000 0.2797(3) -0.2500
Zn1B Zn -0.787426(13) -0.09718(3) -0.29875(2)
Zn1C Zn -0.287426(13) 0.40282(3) -0.29875(2)
Zn1A Zn -0.712574(13) 0.40282(3) -0.20125(2)
F1B F -1.03797(8) 0.17138(16) -0.36231(14)
O1B O -0.85678(9) -0.3421(2) -0.46153(16)
O3B O -0.80341(8) -0.2176(2) -0.37711(14)
O4B O -0.86818(8) -0.04207(18) -0.35183(13)
O5B O -0.71061(11) -0.0515(2) -0.30066(18)
O6B O -0.74957(11) 0.0827(3) -0.2624(2)
O7B O -0.74999(11) 0.2301(3) -0.40362(17)
O8B O -0.72588(9) 0.3640(2) -0.31428(13)
O8C O -0.22588(9) -0.1360(2) -0.31428(13)
O8A O -0.77412(9) -0.1360(2) -0.18572(13)
N1B N -1.24873(12) 0.0634(3) -0.41734(19)
H1B H -1.2831 0.0968 -0.4270
H2B H -1.2469 0.0039 -0.3872
N2B N -1.13824(11) 0.0448(2) -0.43209(16)
C1B C -0.85264(12) -0.2585(3) -0.42099(18)
C2B C -0.90813(11) -0.2058(2) -0.42435(17)
C3B C -0.91142(11) -0.1034(2) -0.39130(16)
C4B C -0.96988(11) -0.0656(2) -0.40457(16)
C5B C -0.97749(12) 0.0363(2) -0.37633(17)
H3B H -0.9451 0.0807 -0.3504
C6B C -1.03205(13) 0.0708(3) -0.38672(19)
C7B C -1.08278(11) 0.0073(3) -0.42404(18)
C8B C -1.07542(12) -0.0924(3) -0.45420(18)
H4B H -1.1081 -0.1356 -0.4812
C9B C -1.01967(11) -0.1289(2) -0.44465(17)
C10B C -0.95858(11) -0.2640(3) -0.46262(18)
H5B H -0.9552 -0.3319 -0.4828
N3B N -1.01266(9) -0.2302(2) -0.47327(14)
C11B C -1.06253(13) -0.2998(3) -0.5116(2)
H6B H -1.0800 -0.3214 -0.4730
C12B C -1.1055(3) -0.2930(7) -0.5932(4)
H8B H -1.0995 -0.2399 -0.6295
H9B H -1.1462 -0.3052 -0.6019
C13B C -1.0640(3) -0.3879(6) -0.5672(5)
H10B H -1.0796 -0.4571 -0.5595
H11B H -1.0328 -0.3916 -0.5872
C16B C -1.14164(15) 0.0806(3) -0.3543(2)
H16B H -1.1098 0.1304 -0.3262
H17B H -1.1375 0.0187 -0.3189
C17B C -1.20013(17) 0.1357(3) -0.3718(3)
H18B H -1.2027 0.1562 -0.3205
H19B H -1.2029 0.2008 -0.4036
C18B C -1.24575(16) 0.0320(5) -0.4961(2)
H20B H -1.2494 0.0958 -0.5295
H21B H -1.2781 -0.0161 -0.5258
C19B C -1.18809(12) -0.0240(3) -0.4811(2)
H22B H -1.1862 -0.0915 -0.4524
H23B H -1.1858 -0.0404 -0.5332
C20B C -0.65552(12) 0.1098(2) -0.26657(18)
C21B C -0.65866(11) 0.2161(2) -0.29309(17)
C22B C -0.60724(11) 0.2699(2) -0.28491(17)
H24B H -0.6093 0.3413 -0.3023
C23B C -0.55277(10) 0.2185(2) -0.25107(16)
C24B C -0.54991(12) 0.1150(2) -0.2204(2)
H25B H -0.5137 0.0815 -0.1943
C25B C -0.60093(13) 0.0611(3) -0.22826(19)
H26B H -0.5986 -0.0085 -0.2076
C26B C -0.70929(13) 0.0445(3) -0.27683(19)
C27B C -0.71664(12) 0.2717(3) -0.34018(19)
O2 O 0.4221(4) -0.0447(9) 0.6016(5)
O10 O 0.1762(4) -0.3603(9) -0.0216(6)
O11 O 0.1466(6) -0.2391(14) 0.2019(9)
O12 O 0.5000 -0.1311(10) 0.7500
O13 O 0.3836(5) -0.1351(11) 0.6406(8)
H7? H 0.0842 -0.2754 0.0681
C14? C 0.1037(4) -0.3461(8) -0.0188(6)
H12? H 0.1452 -0.3424 0.0161
H13? H 0.0943 -0.3419 -0.0772
C15? C 0.0643(4) -0.4157(6) 0.0099(7)
H14? H 0.0316 -0.4530 -0.0316
H15? H 0.0824 -0.4535 0.0617
loop_
_geom_bond_atom_site_label_1
_geom_bond_atom_site_label_2
_geom_bond_site_symmetry_1
_geom_bond_site_symmetry_2
Zn1 O3 1_555 1_555
F1 C6 1_555 1_555
O1 C1 1_555 1_555
O3 C1 1_555 1_555
O4 Zn1 1_555 1_555
O5 Zn1 1_555 1_555
O6 Zn1 1_555 1_555
O7 C27 1_555 1_555
O8 C27 1_555 1_555
O9 C28 1_555 1_555
N1 H1 1_555 1_555
H2 N1 1_555 1_555
N2 C7 1_555 1_555
C1 C2 1_555 1_555
C2 C3 1_555 1_555
C3 O4 1_555 1_555
C4 C3 1_555 1_555
C5 C4 1_555 1_555
H3 C5 1_555 1_555
C6 C5 1_555 1_555
C7 C6 1_555 1_555
C8 C7 1_555 1_555
H4 C8 1_555 1_555
C9 C4 1_555 1_555
C10 C2 1_555 1_555
H5 C10 1_555 1_555
N3 C9 1_555 1_555
C11 N3 1_555 1_555
H6 C11 1_555 1_555
C12 C11 1_555 1_555
H8 C12 1_555 1_555
H9 C12 1_555 1_555
C13 C11 1_555 1_555
H10 C13 1_555 1_555
H11 C13 1_555 1_555
C16 N2 1_555 1_555
H16 C16 1_555 1_555
H17 C16 1_555 1_555
C17 N1 1_555 1_555
H18 C17 1_555 1_555
H19 C17 1_555 1_555
C18 N1 1_555 1_555
H20 C18 1_555 1_555
H21 C18 1_555 1_555
C19 N2 1_555 1_555
H22 C19 1_555 1_555
H23 C19 1_555 1_555
C20 C21 1_555 1_555
C21 C22 1_555 1_555
C22 H24 1_555 1_555
C23 C22 1_555 1_555
C24 C23 1_555 1_555
H25 C24 1_555 1_555
C25 C20 1_555 1_555
H26 C25 1_555 1_555
C26 O5 1_555 1_555
C27 C21 1_555 1_555
C28 C23 1_555 1_555
Zn1B O3B 1_555 1_555
Zn1C O8 1_555 1_555
Zn1A O8B 1_555 1_555
F1B C6B 1_555 1_555
O1B C1B 1_555 1_555
O3B C1B 1_555 1_555
O4B Zn1B 1_555 1_555
O5B Zn1B 1_555 1_555
O6B Zn1B 1_555 1_555
O7B C27B 1_555 1_555
O8B C27B 1_555 1_555
O8C Zn1 1_555 1_555
O8A Zn1B 1_555 1_555
N1B H1B 1_555 1_555
H2B N1B 1_555 1_555
N2B C7B 1_555 1_555
C1B C2B 1_555 1_555
C2B C3B 1_555 1_555
C3B O4B 1_555 1_555
C4B C3B 1_555 1_555
C5B C4B 1_555 1_555
H3B C5B 1_555 1_555
C6B C5B 1_555 1_555
C7B C6B 1_555 1_555
C8B C7B 1_555 1_555
H4B C8B 1_555 1_555
C9B C4B 1_555 1_555
C10B C2B 1_555 1_555
H5B C10B 1_555 1_555
N3B C9B 1_555 1_555
C11B N3B 1_555 1_555
H6B C11B 1_555 1_555
C12B C11B 1_555 1_555
H8B C12B 1_555 1_555
H9B C12B 1_555 1_555
C13B C11B 1_555 1_555
H10B C13B 1_555 1_555
H11B C13B 1_555 1_555
C16B N2B 1_555 1_555
H16B C16B 1_555 1_555
H17B C16B 1_555 1_555
C17B N1B 1_555 1_555
H18B C17B 1_555 1_555
H19B C17B 1_555 1_555
C18B N1B 1_555 1_555
H20B C18B 1_555 1_555
H21B C18B 1_555 1_555
C19B N2B 1_555 1_555
H22B C19B 1_555 1_555
H23B C19B 1_555 1_555
C20B C21B 1_555 1_555
C21B C22B 1_555 1_555
C22B H24B 1_555 1_555
C23B C28 1_555 1_555
C24B C23B 1_555 1_555
H25B C24B 1_555 1_555
C25B C20B 1_555 1_555
H26B C25B 1_555 1_555
C26B O5B 1_555 1_555
C27B C21B 1_555 1_555
O6 C26 1_555 1_555
C8 C9 1_555 1_555
C10 N3 1_555 1_555
C12 C13 1_555 1_555
C16 C17 1_555 1_555
C18 C19 1_555 1_555
C20 C26 1_555 1_555
C24 C25 1_555 1_555
O6B C26B 1_555 1_555
C8B C9B 1_555 1_555
C10B N3B 1_555 1_555
C12B C13B 1_555 1_555
C16B C17B 1_555 1_555
C18B C19B 1_555 1_555
C20B C26B 1_555 1_555
C22B C23B 1_555 1_555
C24B C25B 1_555 1_555

#END
