
#######################################################################
#
#                 Cambridge Crystallographic Data Centre
#                                CCDC 
#
#######################################################################
#
# If this CIF has been generated from an entry in the Cambridge 
# Structural Database, then it will include bibliographic, chemical, 
# crystal, experimental, refinement or atomic coordinate data resulting 
# from the CCDC's data processing and validation procedures.
#
#######################################################################

data_CEZXUC
_symmetry_cell_setting           monoclinic
_symmetry_space_group_name_H-M   'P 21/c'
_symmetry_Int_Tables_number      14
_space_group_name_Hall           '-P 2ybc'
loop_
_symmetry_equiv_pos_site_id
_symmetry_equiv_pos_as_xyz
1 x,y,z
2 -x,1/2+y,1/2-z
3 -x,-y,-z
4 x,1/2-y,1/2+z
_cell_length_a                   11.8261(10)
_cell_length_b                   10.6657(10)
_cell_length_c                   21.1912(18)
_cell_angle_alpha                90
_cell_angle_beta                 122.422(5)
_cell_angle_gamma                90
_cell_volume                     2256.27
loop_
_atom_site_label
_atom_site_type_symbol
_atom_site_fract_x
_atom_site_fract_y
_atom_site_fract_z
Cd1 Cd 1.06599(4) -0.09349(5) 0.29177(3)
C1 C 0.8550(7) 0.1234(6) 0.1800(4)
C2 C 0.7605(6) 0.0108(7) 0.1401(4)
H1 H 0.7941 -0.0377 0.1148
H2 H 0.7613 -0.0430 0.1773
C3 C 0.5532(7) 0.1042(7) 0.1123(4)
C4 C 0.5967(9) 0.1175(9) 0.1872(5)
H3 H 0.6784 0.0841 0.2245
C5 C 0.5159(10) 0.1813(12) 0.2052(5)
H4 H 0.5478 0.1941 0.2555
C6 C 0.3937(8) 0.2260(9) 0.1540(5)
C7 C 0.3493(8) 0.2091(9) 0.0791(5)
H5 H 0.2652 0.2383 0.0420
C8 C 0.4305(7) 0.1487(8) 0.0593(5)
H6 H 0.4001 0.1387 0.0091
C9 C 0.3119(10) 0.2954(13) 0.1803(6)
H7 H 0.2993 0.2387 0.2119
H8 H 0.3651 0.3653 0.2113
C10 C 0.1789(9) 0.3441(10) 0.1219(5)
H9 H 0.1331 0.2808 0.0834
H10 H 0.1913 0.4172 0.0990
C11 C 0.0905(8) 0.3802(7) 0.1515(5)
C12 C 1.1174(9) -0.0280(8) 0.1621(5)
H11 H 1.1295 0.0492 0.1854
C13 C 1.1490(9) -0.0400(9) 0.1085(5)
H12 H 1.1847 0.0284 0.0978
C14 C 1.1291(7) -0.1507(9) 0.0703(4)
C15 C 1.0755(8) -0.2480(8) 0.0889(5)
H13 H 1.0572 -0.3244 0.0640
C16 C 1.0482(8) -0.2316(7) 0.1458(5)
H14 H 1.0139 -0.2990 0.1583
C17 C 1.1707(9) -0.1655(12) 0.0163(5)
H15 H 1.1616 -0.0857 -0.0079
H16 H 1.1117 -0.2251 -0.0219
C18 C 1.3185(11) -0.212(2) 0.0545(8)
H17 H 1.3627 -0.1573 0.0376
H18 H 1.3612 -0.1979 0.1077
C19 C 1.3434(15) -0.3158(13) 0.0469(15)
H19 H 1.3009 -0.3281 -0.0065
H20 H 1.2959 -0.3692 0.0622
C20 C 1.4818(10) -0.3706(10) 0.0824(9)
C21 C 1.5980(9) -0.3042(8) 0.1157(6)
H21 H 1.5956 -0.2171 0.1163
C22 C 1.7190(8) -0.3655(8) 0.1487(5)
H22 H 1.7965 -0.3171 0.1729
C23 C 1.6180(9) -0.5524(9) 0.1138(9)
H23 H 1.6220 -0.6393 0.1117
C24 C 1.4947(10) -0.4956(10) 0.0815(12)
H24 H 1.4181 -0.5451 0.0584
N1 N 1.0694(7) -0.1247(6) 0.1817(4)
N2 N 1.7326(6) -0.4868(5) 0.1484(4)
O1 O 0.9674(5) 0.0968(4) 0.2349(3)
O2 O 0.8144(5) 0.2302(4) 0.1534(3)
O3 O 0.6263(5) 0.0475(5) 0.0871(3)
O4 O -0.0129(6) 0.4423(6) 0.1111(4)
O5 O 0.1207(5) 0.3369(6) 0.2139(3)
Cd1A Cd -0.06599(4) 0.40651(5) 0.20823(3)
Cd1A_2 Cd 0.93401(4) 0.40651(5) 0.20823(3)
Cd1A_3 Cd 1.93401(4) -0.59349(5) 0.20823(3)
N2A N 1.2674(6) 0.0132(5) 0.3516(4)
O2A O 1.1856(5) -0.2698(4) 0.3466(3)
O4A O 1.0129(6) -0.0577(6) 0.3889(4)
O5A O 0.8793(5) -0.1631(6) 0.2861(3)
loop_
_geom_bond_atom_site_label_1
_geom_bond_atom_site_label_2
_geom_bond_site_symmetry_1
_geom_bond_site_symmetry_2
Cd1 N1 1_555 1_555
C1 C2 1_555 1_555
C2 H1 1_555 1_555
H2 C2 1_555 1_555
C3 C4 1_555 1_555
C4 H3 1_555 1_555
C5 C4 1_555 1_555
H4 C5 1_555 1_555
C6 C5 1_555 1_555
C7 C6 1_555 1_555
H5 C7 1_555 1_555
C8 C3 1_555 1_555
H6 C8 1_555 1_555
C9 C6 1_555 1_555
H7 C9 1_555 1_555
H8 C9 1_555 1_555
C10 C9 1_555 1_555
H9 C10 1_555 1_555
H10 C10 1_555 1_555
C11 C10 1_555 1_555
C12 H11 1_555 1_555
C13 C12 1_555 1_555
H12 C13 1_555 1_555
C14 C13 1_555 1_555
C15 C14 1_555 1_555
H13 C15 1_555 1_555
C16 C15 1_555 1_555
H14 C16 1_555 1_555
C17 C14 1_555 1_555
H15 C17 1_555 1_555
H16 C17 1_555 1_555
C18 C17 1_555 1_555
H17 C18 1_555 1_555
H18 C18 1_555 1_555
C19 C18 1_555 1_555
H19 C19 1_555 1_555
H20 C19 1_555 1_555
C20 C19 1_555 1_555
C21 C20 1_555 1_555
H21 C21 1_555 1_555
C22 C21 1_555 1_555
H22 C22 1_555 1_555
C23 H23 1_555 1_555
C24 C20 1_555 1_555
H24 C24 1_555 1_555
N1 C12 1_555 1_555
N2 C22 1_555 1_555
O1 Cd1 1_555 1_555
O2 C1 1_555 1_555
O3 C2 1_555 1_555
O4 C11 1_555 1_555
O5 C11 1_555 1_555
Cd1A O4 1_555 1_555
Cd1A_2 O2 1_555 1_555
Cd1A_3 N2 1_555 1_555
N2A Cd1 1_555 1_555
O2A Cd1 1_555 1_555
O4A Cd1 1_555 1_555
O5A Cd1 1_555 1_555
C1 O1 1_555 1_555
C3 O3 1_555 1_555
C7 C8 1_555 1_555
C16 N1 1_555 1_555
C23 C24 1_555 1_555
C23 N2 1_555 1_555
O5 Cd1A 1_555 1_555

#END
