
#######################################################################
#
#                 Cambridge Crystallographic Data Centre
#                                CCDC 
#
#######################################################################
#
# If this CIF has been generated from an entry in the Cambridge 
# Structural Database, then it will include bibliographic, chemical, 
# crystal, experimental, refinement or atomic coordinate data resulting 
# from the CCDC's data processing and validation procedures.
#
#######################################################################

data_CHTOLS
_symmetry_cell_setting           triclinic
_symmetry_space_group_name_H-M   'P -1'
_symmetry_Int_Tables_number      2
_space_group_name_Hall           '-P 1'
loop_
_symmetry_equiv_pos_site_id
_symmetry_equiv_pos_as_xyz
1 x,y,z
2 -x,-y,-z
_cell_length_a                   14.827(3)
_cell_length_b                   15.747(3)
_cell_length_c                   11.218(1)
_cell_angle_alpha                103.68(1)
_cell_angle_beta                 107.71(1)
_cell_angle_gamma                91.79(1)
_cell_volume                     2409.17
loop_
_atom_site_label
_atom_site_type_symbol
_atom_site_fract_x
_atom_site_fract_y
_atom_site_fract_z
Ag1 Ag -0.01160 0.23540 0.13300
Ag2 Ag 0.09690 0.03110 0.19610
Ag3 Ag 0.03990 0.17750 0.37850
Ag4 Ag 0.00650 0.16940 -0.13350
Ag5 Ag -0.02300 0.11990 -0.42870
Ag6 Ag -0.11710 0.07050 0.14160
C1 C 0.21000 0.32500 0.33800
C2 C 0.06500 0.33600 -0.26500
C3 C 0.04600 0.38300 -0.13900
C4 C -0.01500 0.45900 -0.16000
C5 C 0.03800 0.52200 -0.21400
C6 C 0.05700 0.47700 -0.33900
C7 C 0.11100 0.39700 -0.32000
C8 C 0.27400 0.36900 0.47300
C9 C -0.21400 0.24700 -0.09400
C10 C -0.17700 0.29300 -0.17500
C11 C -0.26400 0.36800 -0.19400
C12 C -0.36300 0.32600 -0.24600
C13 C -0.39500 0.27900 -0.17100
C14 C -0.31700 0.20000 -0.13100
C15 C 0.38000 0.37600 0.47300
C16 C 0.21100 0.04600 0.51900
C17 C 0.27500 -0.03000 0.47100
C18 C 0.37600 -0.01300 0.56400
C19 C 0.42600 0.08300 0.58700
C20 C 0.36000 0.15300 0.62300
C21 C 0.26200 0.13700 0.53100
C22 C 0.38700 0.42700 0.36800
C23 C 0.24300 0.11200 0.06500
C24 C 0.27900 0.10600 -0.05100
C25 C 0.38700 0.14700 -0.00200
C26 C 0.44000 0.08900 0.07500
C27 C 0.41000 0.10600 0.20100
C28 C 0.30600 0.06600 0.15500
C29 C 0.32100 0.38500 0.23900
C30 C -0.18900 0.23600 0.34300
C31 C -0.20200 0.26900 0.45400
C32 C -0.23400 0.37800 0.44300
C33 C -0.33900 0.35200 0.36300
C34 C -0.33500 0.30400 0.22800
C35 C -0.29800 0.20300 0.25500
C36 C 0.21200 0.37500 0.22700
S1 S 0.08600 0.31620 0.34070
S2 S 0.09870 0.22370 -0.24740
S3 S -0.13600 0.15790 -0.06030
S4 S 0.08980 0.02700 0.40650
S5 S 0.11860 0.06980 0.00960
S6 S -0.13910 0.12990 0.35000
Ag4A Ag -0.00650 -0.16940 0.13350
Ag5_2 Ag -0.02300 0.11990 0.57130
Ag2A Ag -0.09690 -0.03110 -0.19610
Ag3_2 Ag 0.03990 0.17750 -0.62150
S4A S -0.08980 -0.02700 -0.40650
S6_2 S -0.13910 0.12990 -0.65000
S5A S -0.11860 -0.06980 -0.00960
Ag5A Ag 0.02300 -0.11990 0.42870
Ag6A Ag 0.11710 -0.07050 -0.14160
loop_
_geom_bond_atom_site_label_1
_geom_bond_atom_site_label_2
_geom_bond_site_symmetry_1
_geom_bond_site_symmetry_2
Ag1 Ag3 1_555 1_555
Ag2 Ag3 1_555 1_555
Ag3 Ag6 1_555 1_555
Ag4 Ag1 1_555 1_555
Ag5 Ag4 1_555 1_555
Ag6 Ag1 1_555 1_555
C1 C8 1_555 1_555
C2 C3 1_555 1_555
C3 C4 1_555 1_555
C4 C5 1_555 1_555
C5 C6 1_555 1_555
C6 C7 1_555 1_555
C7 C2 1_555 1_555
C8 C15 1_555 1_555
C9 C10 1_555 1_555
C10 C11 1_555 1_555
C11 C12 1_555 1_555
C12 C13 1_555 1_555
C13 C14 1_555 1_555
C14 C9 1_555 1_555
C15 C22 1_555 1_555
C16 C17 1_555 1_555
C17 C18 1_555 1_555
C18 C19 1_555 1_555
C19 C20 1_555 1_555
C20 C21 1_555 1_555
C21 C16 1_555 1_555
C22 C29 1_555 1_555
C23 C24 1_555 1_555
C24 C25 1_555 1_555
C25 C26 1_555 1_555
C26 C27 1_555 1_555
C27 C28 1_555 1_555
C28 C23 1_555 1_555
C29 C36 1_555 1_555
C30 C31 1_555 1_555
C31 C32 1_555 1_555
C32 C33 1_555 1_555
C33 C34 1_555 1_555
C34 C35 1_555 1_555
C35 C30 1_555 1_555
C36 C1 1_555 1_555
S1 Ag1 1_555 1_555
S2 Ag4 1_555 1_555
S3 Ag1 1_555 1_555
S4 Ag2 1_555 1_555
S5 Ag2 1_555 1_555
S6 Ag3 1_555 1_555
Ag4A Ag2 1_555 1_555
Ag5_2 Ag3 1_555 1_555
Ag2A Ag4 1_555 1_555
Ag3_2 Ag5 1_555 1_555
S4A Ag5 1_555 1_555
S6_2 Ag5 1_555 1_555
S5A Ag6 1_555 1_555
Ag5A S4 1_555 1_555
Ag6A S5 1_555 1_555
Ag2 Ag6 1_555 1_555
Ag3 S1 1_555 1_555
Ag3 S4 1_555 1_555
Ag4 S3 1_555 1_555
Ag4 S5 1_555 1_555
Ag5 S2 1_555 1_555
Ag6 S3 1_555 1_555
Ag6 S6 1_555 1_555
C1 S1 1_555 1_555
C2 S2 1_555 1_555
C9 S3 1_555 1_555
C16 S4 1_555 1_555
C23 S5 1_555 1_555
C30 S6 1_555 1_555
S6 Ag5_2 1_555 1_555
Ag4A Ag5A 1_555 1_555
Ag4A S5A 1_555 1_555
Ag2A Ag6A 1_555 1_555
Ag2A S4A 1_555 1_555
Ag2A S5A 1_555 1_555
Ag3_2 S6_2 1_555 1_555

#END
