
#######################################################################
#
#                 Cambridge Crystallographic Data Centre
#                                CCDC 
#
#######################################################################
#
# If this CIF has been generated from an entry in the Cambridge 
# Structural Database, then it will include bibliographic, chemical, 
# crystal, experimental, refinement or atomic coordinate data resulting 
# from the CCDC's data processing and validation procedures.
#
#######################################################################

data_CIBNEI
_symmetry_cell_setting           triclinic
_symmetry_space_group_name_H-M   'P -1'
_symmetry_Int_Tables_number      2
_space_group_name_Hall           '-P 1'
loop_
_symmetry_equiv_pos_site_id
_symmetry_equiv_pos_as_xyz
1 x,y,z
2 -x,-y,-z
_cell_length_a                   10.2230(4)
_cell_length_b                   12.1165(5)
_cell_length_c                   12.9755(5)
_cell_angle_alpha                74.697(3)
_cell_angle_beta                 76.106(3)
_cell_angle_gamma                71.311(4)
_cell_volume                     1447.07
loop_
_atom_site_label
_atom_site_type_symbol
_atom_site_fract_x
_atom_site_fract_y
_atom_site_fract_z
Dy1 Dy 0.19380(3) 0.72201(2) 0.54879(2)
Dy2 Dy 0.79418(3) 0.77893(2) 0.39698(2)
O1 O 0.1846(4) 0.8552(3) 0.3807(3)
O2 O 0.0021(4) 0.8326(3) 0.3292(3)
O3 O -0.0415(4) 1.0927(3) 0.3875(3)
O4 O -0.1348(4) 1.2483(3) 0.2689(3)
O5 O 0.5810(5) 0.4842(4) 0.1808(4)
O6 O 0.3495(4) 0.8274(3) 0.5544(3)
O7 O 0.5639(4) 0.8526(3) 0.4969(3)
O8 O 0.4256(4) 0.6430(3) 0.4587(3)
O9 O 0.6407(4) 0.6649(3) 0.4029(3)
O10 O 0.9616(4) 0.5791(3) 0.3813(3)
O11 O 0.8775(4) 0.6905(3) 0.2358(3)
O12 O 1.0298(4) 0.3020(3) 0.4216(3)
O13 O 1.2248(4) 0.3412(3) 0.4245(3)
O14 O 1.6782(4) -0.0677(3) 0.2763(3)
O15 O 0.2028(4) 0.5860(3) 0.4421(3)
H1 H 0.1209 0.5796 0.4478
H2 H 0.2566 0.5184 0.4649
O16 O 0.2667(4) 0.5437(3) 0.6681(3)
H3 H 0.2868 0.4864 0.6357
H4 H 0.3389 0.5433 0.6900
O17 O 0.7894(4) 0.9314(3) 0.4830(3)
H5 H 0.7051 0.9639 0.5085
H6 H 0.8241 0.9834 0.4368
C1 C 0.0998(6) 0.8797(5) 0.3172(5)
C2 C -0.0544(6) 1.1447(5) 0.2901(5)
C3 C 0.1162(6) 0.9696(5) 0.2122(4)
C4 C 0.0334(6) 1.0882(5) 0.1980(5)
C5 C 0.0425(7) 1.1620(6) 0.0948(5)
H7 H -0.0148 1.2397 0.0848
C6 C 0.1351(8) 1.1210(6) 0.0081(6)
H8 H 0.1399 1.1707 -0.0601
C7 C 0.2216(8) 1.0052(6) 0.0228(5)
H9 H 0.2859 0.9772 -0.0350
C8 C 0.2109(7) 0.9322(5) 0.1243(5)
C9 C 0.5312(7) 0.6903(5) 0.1718(5)
H10 H 0.6193 0.6839 0.1848
C10 C 0.4377(7) 0.7971(6) 0.1578(5)
H11 H 0.4631 0.8626 0.1623
C11 C 0.2713(7) 0.7209(6) 0.1304(6)
H12 H 0.1824 0.7315 0.1167
C12 C 0.3628(8) 0.6100(6) 0.1432(6)
H13 H 0.3351 0.5469 0.1357
C13 C 0.4985(7) 0.5868(5) 0.1674(5)
C14 C 0.4737(6) 0.8005(5) 0.5077(4)
C15 C 0.5175(6) 0.6924(5) 0.4512(4)
C16 C 0.9573(6) 0.5962(5) 0.2812(5)
C17 C 1.1304(6) 0.3474(5) 0.3770(4)
C18 C 1.1425(6) 0.4006(5) 0.2576(4)
C19 C 1.0538(6) 0.5098(5) 0.2137(4)
C20 C 1.0657(6) 0.5470(5) 0.1015(4)
H14 H 1.0051 0.6182 0.0729
C21 C 1.1650(6) 0.4813(5) 0.0315(5)
H15 H 1.1696 0.5064 -0.0432
C22 C 1.2571(6) 0.3778(5) 0.0749(5)
H16 H 1.3266 0.3338 0.0289
C23 C 1.2474(6) 0.3386(5) 0.1860(4)
C24 C 1.4329(6) 0.0259(5) 0.2873(5)
H17 H 1.4103 -0.0457 0.3169
C25 C 1.3303(6) 0.1257(5) 0.2680(4)
H18 H 1.2380 0.1215 0.2855
C26 C 1.4906(6) 0.2394(5) 0.2019(5)
H19 H 1.5090 0.3128 0.1731
C27 C 1.5990(6) 0.1412(5) 0.2211(5)
H20 H 1.6897 0.1488 0.2062
C28 C 1.5761(6) 0.0263(5) 0.2638(4)
N1 N 0.3085(5) 0.8146(4) 0.1374(4)
N2 N 1.3559(5) 0.2337(4) 0.2236(4)
Dy1A Dy -0.19380(3) 1.27799(2) 0.45121(2)
Dy1A_2 Dy 0.80620(3) 0.27799(2) 0.45121(2)
Dy2_2 Dy -0.20582(3) 0.77893(2) 0.39698(2)
Dy2_3 Dy 1.79418(3) -0.22107(2) 0.39698(2)
Dy2A Dy 1.20582(3) 0.22107(2) 0.60302(2)
O2_2 O 1.0021(4) 0.8326(3) 0.3292(3)
O3A O 0.0415(4) 0.9073(3) 0.6125(3)
O4A O 0.1348(4) 0.7517(3) 0.7311(3)
O12A O -0.0298(4) 0.6980(3) 0.5784(3)
O13A O 0.7752(4) 0.6588(3) 0.5755(3)
O14_2 O 0.6782(4) 0.9323(3) 0.2763(3)
loop_
_geom_bond_atom_site_label_1
_geom_bond_atom_site_label_2
_geom_bond_site_symmetry_1
_geom_bond_site_symmetry_2
Dy1 O1 1_555 1_555
Dy2 O7 1_555 1_555
O1 C1 1_555 1_555
O2 C1 1_555 1_555
O3 C2 1_555 1_555
O4 C2 1_555 1_555
O5 C13 1_555 1_555
O6 Dy1 1_555 1_555
O7 C14 1_555 1_555
O8 Dy1 1_555 1_555
O9 Dy2 1_555 1_555
O10 Dy2 1_555 1_555
O11 Dy2 1_555 1_555
O12 C17 1_555 1_555
O13 C17 1_555 1_555
O14 C28 1_555 1_555
O15 Dy1 1_555 1_555
H1 O15 1_555 1_555
H2 O15 1_555 1_555
O16 Dy1 1_555 1_555
H3 O16 1_555 1_555
H4 O16 1_555 1_555
O17 Dy2 1_555 1_555
H5 O17 1_555 1_555
H6 O17 1_555 1_555
C1 C3 1_555 1_555
C2 C4 1_555 1_555
C3 C4 1_555 1_555
C4 C5 1_555 1_555
C5 H7 1_555 1_555
C6 C5 1_555 1_555
H8 C6 1_555 1_555
C7 C6 1_555 1_555
H9 C7 1_555 1_555
C8 C3 1_555 1_555
C9 H10 1_555 1_555
C10 C9 1_555 1_555
H11 C10 1_555 1_555
C11 H12 1_555 1_555
C12 C11 1_555 1_555
H13 C12 1_555 1_555
C13 C9 1_555 1_555
C14 O6 1_555 1_555
C15 O8 1_555 1_555
C16 O10 1_555 1_555
C17 C18 1_555 1_555
C18 C19 1_555 1_555
C19 C16 1_555 1_555
C20 C19 1_555 1_555
H14 C20 1_555 1_555
C21 C20 1_555 1_555
H15 C21 1_555 1_555
C22 C21 1_555 1_555
H16 C22 1_555 1_555
C23 C18 1_555 1_555
C24 H17 1_555 1_555
C25 C24 1_555 1_555
H18 C25 1_555 1_555
C26 H19 1_555 1_555
C27 C26 1_555 1_555
H20 C27 1_555 1_555
C28 C24 1_555 1_555
N1 C8 1_555 1_555
N2 C23 1_555 1_555
Dy1A O3 1_555 1_555
Dy1A_2 O12 1_555 1_555
Dy2_2 O2 1_555 1_555
Dy2_3 O14 1_555 1_555
Dy2A O13 1_555 1_555
O2_2 Dy2 1_555 1_555
O3A Dy1 1_555 1_555
O4A Dy1 1_555 1_555
O12A Dy1 1_555 1_555
O13A Dy2 1_555 1_555
O14_2 Dy2 1_555 1_555
O4 Dy1A 1_555 1_555
O9 C15 1_555 1_555
O11 C16 1_555 1_555
C7 C8 1_555 1_555
C10 N1 1_555 1_555
C11 N1 1_555 1_555
C12 C13 1_555 1_555
C14 C15 1_555 1_555
C22 C23 1_555 1_555
C25 N2 1_555 1_555
C26 N2 1_555 1_555
C27 C28 1_555 1_555

#END
