
#######################################################################
#
#                 Cambridge Crystallographic Data Centre
#                                CCDC 
#
#######################################################################
#
# If this CIF has been generated from an entry in the Cambridge 
# Structural Database, then it will include bibliographic, chemical, 
# crystal, experimental, refinement or atomic coordinate data resulting 
# from the CCDC's data processing and validation procedures.
#
#######################################################################

data_CIBPIO
_symmetry_cell_setting           triclinic
_symmetry_space_group_name_H-M   'P -1'
_symmetry_Int_Tables_number      2
_space_group_name_Hall           '-P 1'
loop_
_symmetry_equiv_pos_site_id
_symmetry_equiv_pos_as_xyz
1 x,y,z
2 -x,-y,-z
_cell_length_a                   10.1992(6)
_cell_length_b                   12.4966(5)
_cell_length_c                   13.2905(7)
_cell_angle_alpha                72.375(4)
_cell_angle_beta                 73.510(5)
_cell_angle_gamma                69.764(5)
_cell_volume                     1484.08
loop_
_atom_site_label
_atom_site_type_symbol
_atom_site_fract_x
_atom_site_fract_y
_atom_site_fract_z
Pr1 Pr 0.68316(2) 0.722777(19) 0.54041(2)
Pr2 Pr 0.30819(2) 0.783400(18) 0.40274(2)
O1 O 0.7304(3) 0.8746(3) 0.3680(3)
O2 O 0.5397(3) 0.8312(2) 0.3647(3)
O3 O 0.4750(3) 1.0918(3) 0.3888(3)
O4 O 0.3927(4) 1.2528(3) 0.2706(3)
O5 O 1.0864(4) 0.4889(3) 0.1865(3)
O6 O 0.0566(3) 0.8558(3) 0.4923(3)
O7 O -0.1523(3) 0.8163(3) 0.5599(3)
O8 O 0.1487(3) 0.6770(2) 0.3926(3)
O9 O -0.0645(3) 0.6436(3) 0.4562(3)
O10 O 0.4444(3) 0.6940(2) 0.5723(3)
O11 O 0.2496(3) 0.6474(2) 0.5864(3)
O12 O 0.5871(4) 0.2977(2) 0.7656(3)
O13 O 0.5254(3) 0.4250(2) 0.6190(3)
O14 O -0.2095(3) 1.0497(3) 0.7260(3)
O15 O 0.7187(4) 0.5807(3) 0.4347(3)
H1 H 0.7390 0.5118 0.4739
H2 H 0.6425 0.5940 0.4131
O16 O 0.7602(4) 0.5359(3) 0.6670(3)
H3 H 0.7463 0.5483 0.7292
H4 H 0.7121 0.4912 0.6698
O17 O 0.2787(3) 0.9405(3) 0.4929(3)
H5 H 0.2629 1.0064 0.4482
H6 H 0.3545 0.9279 0.5147
C1 C 0.6295(5) 0.8884(4) 0.3242(4)
C2 C 0.4629(5) 1.1470(4) 0.2934(4)
C3 C 0.6232(4) 0.9699(3) 0.2152(4)
C4 C 0.5390(5) 1.0889(4) 0.1995(4)
C5 C 0.5310(6) 1.1557(4) 0.0965(4)
H7 H 0.4732 1.2327 0.0872
C6 C 0.6067(7) 1.1112(4) 0.0065(5)
H8 H 0.5983 1.1569 -0.0623
C7 C 0.6955(7) 0.9968(5) 0.0207(5)
H9 H 0.7494 0.9658 -0.0386
C8 C 0.7025(5) 0.9304(4) 0.1232(4)
C9 C 1.0274(6) 0.6918(4) 0.1772(5)
H10 H 1.1132 0.6846 0.1937
C10 C 0.9301(5) 0.7979(4) 0.1618(5)
H11 H 0.9503 0.8620 0.1689
C11 C 0.7752(5) 0.7212(4) 0.1220(5)
H12 H 0.6897 0.7321 0.1028
C12 C 0.8705(6) 0.6133(4) 0.1353(5)
H13 H 0.8502 0.5522 0.1223
C13 C 1.0003(5) 0.5903(4) 0.1686(4)
C14 C -0.0279(5) 0.7978(4) 0.5061(4)
C15 C 0.0231(5) 0.6960(4) 0.4473(4)
C16 C 0.3474(4) 0.6450(3) 0.6266(4)
C17 C 0.5221(4) 0.3987(4) 0.7183(4)
C18 C 0.3439(4) 0.5941(3) 0.7439(4)
C19 C 0.4347(4) 0.4854(3) 0.7867(4)
C20 C 0.4319(5) 0.4513(4) 0.8964(4)
H14 H 0.4954 0.3811 0.9233
C21 C 0.3379(5) 0.5181(4) 0.9675(4)
H15 H 0.3391 0.4943 1.0408
C22 C 0.2412(5) 0.6220(4) 0.9264(4)
H16 H 0.1746 0.6670 0.9727
C23 C 0.2442(4) 0.6577(3) 0.8179(4)
C24 C 0.0390(5) 0.9657(4) 0.7262(4)
H17 H 0.0555 1.0388 0.7018
C25 C 0.1491(5) 0.8698(4) 0.7456(4)
H18 H 0.2397 0.8783 0.7341
C26 C -0.0012(5) 0.7495(4) 0.7962(4)
H19 H -0.0138 0.6750 0.8196
C27 C -0.1157(5) 0.8441(4) 0.7776(4)
H20 H -0.2048 0.8329 0.7889
C28 C -0.1016(5) 0.9587(4) 0.7416(4)
N1 N 0.8040(4) 0.8138(3) 0.1364(3)
N2 N 0.1308(4) 0.7611(3) 0.7817(3)
Pr1_2 Pr -0.31684(2) 0.722777(19) 0.54041(2)
Pr1A Pr 0.31684(2) 1.277223(19) 0.45959(2)
Pr2A Pr -0.30819(2) 1.216600(18) 0.59726(2)
Pr2A_2 Pr 0.69181(2) 0.216600(18) 0.59726(2)
O3A O 0.5250(3) 0.9082(3) 0.6112(3)
O4A O 0.6073(4) 0.7472(3) 0.7294(3)
O7_2 O 0.8477(3) 0.8163(3) 0.5599(3)
O9_2 O 0.9355(3) 0.6436(3) 0.4562(3)
O12A O 0.4129(4) 0.7023(2) 0.2344(3)
O13A O 0.4746(3) 0.5750(2) 0.3810(3)
O14A O 0.2095(3) 0.9503(3) 0.2740(3)
loop_
_geom_bond_atom_site_label_1
_geom_bond_atom_site_label_2
_geom_bond_site_symmetry_1
_geom_bond_site_symmetry_2
Pr1 O1 1_555 1_555
Pr2 O2 1_555 1_555
O1 C1 1_555 1_555
O2 C1 1_555 1_555
O3 C2 1_555 1_555
O4 C2 1_555 1_555
O5 C13 1_555 1_555
O6 Pr2 1_555 1_555
O7 C14 1_555 1_555
O8 Pr2 1_555 1_555
O9 C15 1_555 1_555
O10 Pr1 1_555 1_555
O11 Pr2 1_555 1_555
O12 C17 1_555 1_555
O13 C17 1_555 1_555
O14 C28 1_555 1_555
O15 Pr1 1_555 1_555
H1 O15 1_555 1_555
H2 O15 1_555 1_555
O16 Pr1 1_555 1_555
H3 O16 1_555 1_555
H4 O16 1_555 1_555
O17 Pr2 1_555 1_555
H5 O17 1_555 1_555
H6 O17 1_555 1_555
C1 C3 1_555 1_555
C2 C4 1_555 1_555
C3 C4 1_555 1_555
C4 C5 1_555 1_555
C5 H7 1_555 1_555
C6 C5 1_555 1_555
H8 C6 1_555 1_555
C7 C6 1_555 1_555
H9 C7 1_555 1_555
C8 C3 1_555 1_555
C9 H10 1_555 1_555
C10 C9 1_555 1_555
H11 C10 1_555 1_555
C11 H12 1_555 1_555
C12 C11 1_555 1_555
H13 C12 1_555 1_555
C13 C9 1_555 1_555
C14 O6 1_555 1_555
C15 O8 1_555 1_555
C16 O10 1_555 1_555
C17 C19 1_555 1_555
C18 C16 1_555 1_555
C19 C18 1_555 1_555
C20 C19 1_555 1_555
H14 C20 1_555 1_555
C21 C20 1_555 1_555
H15 C21 1_555 1_555
C22 C21 1_555 1_555
H16 C22 1_555 1_555
C23 C18 1_555 1_555
C24 H17 1_555 1_555
C25 C24 1_555 1_555
H18 C25 1_555 1_555
C26 H19 1_555 1_555
C27 C26 1_555 1_555
H20 C27 1_555 1_555
C28 C24 1_555 1_555
N1 C8 1_555 1_555
N2 C23 1_555 1_555
Pr1_2 O7 1_555 1_555
Pr1A O3 1_555 1_555
Pr2A O14 1_555 1_555
Pr2A_2 O12 1_555 1_555
O3A Pr1 1_555 1_555
O4A Pr1 1_555 1_555
O7_2 Pr1 1_555 1_555
O9_2 Pr1 1_555 1_555
O12A Pr2 1_555 1_555
O13A Pr2 1_555 1_555
O14A Pr2 1_555 1_555
O4 Pr1A 1_555 1_555
O9 Pr1_2 1_555 1_555
O11 C16 1_555 1_555
O13 Pr2A_2 1_555 1_555
C7 C8 1_555 1_555
C10 N1 1_555 1_555
C11 N1 1_555 1_555
C12 C13 1_555 1_555
C14 C15 1_555 1_555
C22 C23 1_555 1_555
C25 N2 1_555 1_555
C26 N2 1_555 1_555
C27 C28 1_555 1_555

#END
