
#######################################################################
#
#                 Cambridge Crystallographic Data Centre
#                                CCDC 
#
#######################################################################
#
# If this CIF has been generated from an entry in the Cambridge 
# Structural Database, then it will include bibliographic, chemical, 
# crystal, experimental, refinement or atomic coordinate data resulting 
# from the CCDC's data processing and validation procedures.
#
#######################################################################

data_CIBPUA
_symmetry_cell_setting           triclinic
_symmetry_space_group_name_H-M   'P -1'
_symmetry_Int_Tables_number      2
_space_group_name_Hall           '-P 1'
loop_
_symmetry_equiv_pos_site_id
_symmetry_equiv_pos_as_xyz
1 x,y,z
2 -x,-y,-z
_cell_length_a                   10.1999(10)
_cell_length_b                   12.0085(12)
_cell_length_c                   12.9253(10)
_cell_angle_alpha                74.968(8)
_cell_angle_beta                 76.328(8)
_cell_angle_gamma                71.456(9)
_cell_volume                     1428.99
loop_
_atom_site_label
_atom_site_type_symbol
_atom_site_fract_x
_atom_site_fract_y
_atom_site_fract_z
Yb1 Yb 0.803616(19) 0.777298(16) 0.451284(17)
Yb2 Yb 1.209390(19) 0.721844(16) 0.604146(17)
O1 O 1.0219(3) 0.8013(3) 0.4179(3)
O2 O 1.2171(3) 0.8373(3) 0.4288(3)
O3 O 0.9586(3) 1.0805(3) 0.3821(3)
O4 O 0.8721(3) 1.1916(3) 0.2367(3)
O5 O 1.6759(4) 0.4277(3) 0.2777(3)
O6 O 0.6511(3) 0.6714(3) 0.4472(3)
O7 O 0.4346(3) 0.6483(3) 0.5028(3)
O8 O 0.5763(3) 0.8566(3) 0.5428(3)
O9 O 0.3587(3) 0.8374(3) 0.5952(3)
O10 O 0.8222(3) 0.6486(3) 0.6162(3)
O11 O 1.0039(3) 0.6693(3) 0.6715(3)
O12 O 1.0465(3) 0.4083(3) 0.6107(3)
O13 O 1.1410(3) 0.2535(3) 0.7286(3)
O14 O 0.4171(4) 1.0188(3) 0.8188(4)
O15 O 0.7312(4) 0.9525(3) 0.3359(3)
H1 H 0.7039 0.9416 0.2830
H2 H 0.6990 1.0213 0.3403
O16 O 0.7988(3) 0.9121(3) 0.5550(3)
H3 H 0.8772 0.9217 0.5569
H4 H 0.7445 0.9797 0.5407
O17 O 1.2126(3) 0.5725(3) 0.5191(3)
H5 H 1.1324 0.5685 0.5254
H6 H 1.2786 0.5106 0.5364
N1 N 1.3536(4) 0.7321(3) 0.2249(3)
N2 N 0.6923(4) 0.6870(3) 0.8603(4)
C1 C 1.1232(5) 0.8448(4) 0.3775(4)
C2 C 0.9531(5) 1.0975(4) 0.2831(4)
C3 C 1.1405(5) 0.8999(4) 0.2583(4)
C4 C 1.0509(4) 1.0106(4) 0.2144(4)
C5 C 1.0642(5) 1.0479(4) 0.1026(4)
H7 H 1.0030 1.1192 0.0739
C6 C 1.1651(5) 0.9830(4) 0.0319(5)
H8 H 1.1710 1.0091 -0.0430
C7 C 1.2571(5) 0.8780(4) 0.0759(4)
H9 H 1.3270 0.8336 0.0302
C8 C 1.2458(5) 0.8390(4) 0.1869(4)
C9 C 1.4298(5) 0.5231(4) 0.2885(4)
H10 H 1.4067 0.4510 0.3181
C10 C 1.3264(5) 0.6248(4) 0.2691(4)
H11 H 1.2338 0.6212 0.2865
C11 C 1.4903(5) 0.7369(4) 0.2038(4)
H12 H 1.5097 0.8107 0.1764
C12 C 1.5977(5) 0.6371(4) 0.2219(5)
H13 H 1.6890 0.6437 0.2057
C13 C 1.5741(5) 0.5227(4) 0.2648(4)
C14 C 0.5250(5) 0.6994(4) 0.4935(4)
C15 C 0.4831(5) 0.8085(4) 0.5482(4)
C16 C 0.9058(5) 0.6233(4) 0.6807(4)
C17 C 1.0600(5) 0.3564(4) 0.7068(4)
C18 C 0.8874(5) 0.5323(4) 0.7867(4)
C19 C 0.9702(5) 0.4127(4) 0.8002(4)
C20 C 0.9588(6) 0.3386(5) 0.9023(5)
H14 H 1.0162 0.2604 0.9118
C21 C 0.8636(7) 0.3784(5) 0.9909(5)
H15 H 0.8580 0.3284 1.0591
C22 C 0.7780(6) 0.4941(5) 0.9741(5)
H16 H 0.7122 0.5222 1.0315
C23 C 0.7888(6) 0.5683(4) 0.8736(5)
C24 C 0.4679(6) 0.8103(4) 0.8291(5)
H17 H 0.3793 0.8170 0.8167
C25 C 0.5599(6) 0.7027(5) 0.8429(5)
H18 H 0.5333 0.6362 0.8406
C26 C 0.7289(6) 0.7818(5) 0.8644(6)
H19 H 0.8190 0.7721 0.8757
C27 C 0.6386(6) 0.8922(5) 0.8526(6)
H20 H 0.6681 0.9561 0.8577
C28 C 0.5008(6) 0.9152(5) 0.8328(5)
Yb1A Yb 1.196384(19) 0.222702(16) 0.548716(17)
Yb2_2 Yb 0.209390(19) 0.721844(16) 0.604146(17)
Yb2A Yb 0.790610(19) 1.278156(16) 0.395854(17)
Yb2A_2 Yb 1.790610(19) 0.278156(16) 0.395854(17)
O3A O 1.0414(3) 0.9195(3) 0.6179(3)
O4A O 1.1279(3) 0.8084(3) 0.7633(3)
O5A O 1.3241(4) 0.5723(3) 0.7223(3)
O7_2 O 1.4346(3) 0.6483(3) 0.5028(3)
O9_2 O 1.3587(3) 0.8374(3) 0.5952(3)
O12A O 0.9535(3) 0.5917(3) 0.3893(3)
O13A O 0.8590(3) 0.7465(3) 0.2714(3)
loop_
_geom_bond_atom_site_label_1
_geom_bond_atom_site_label_2
_geom_bond_site_symmetry_1
_geom_bond_site_symmetry_2
Yb1 O1 1_555 1_555
Yb2 O2 1_555 1_555
O1 C1 1_555 1_555
O2 C1 1_555 1_555
O3 C2 1_555 1_555
O4 C2 1_555 1_555
O5 C13 1_555 1_555
O6 Yb1 1_555 1_555
O7 C14 1_555 1_555
O8 Yb1 1_555 1_555
O9 C15 1_555 1_555
O10 Yb1 1_555 1_555
O11 Yb2 1_555 1_555
O12 C17 1_555 1_555
O13 C17 1_555 1_555
O14 C28 1_555 1_555
O15 Yb1 1_555 1_555
H1 O15 1_555 1_555
H2 O15 1_555 1_555
O16 Yb1 1_555 1_555
H3 O16 1_555 1_555
H4 O16 1_555 1_555
O17 Yb2 1_555 1_555
H5 O17 1_555 1_555
H6 O17 1_555 1_555
N1 C8 1_555 1_555
N2 C23 1_555 1_555
C1 C3 1_555 1_555
C2 C4 1_555 1_555
C3 C4 1_555 1_555
C4 C5 1_555 1_555
C5 H7 1_555 1_555
C6 C5 1_555 1_555
H8 C6 1_555 1_555
C7 C6 1_555 1_555
H9 C7 1_555 1_555
C8 C3 1_555 1_555
C9 H10 1_555 1_555
C10 N1 1_555 1_555
H11 C10 1_555 1_555
C11 N1 1_555 1_555
H12 C11 1_555 1_555
C12 C11 1_555 1_555
H13 C12 1_555 1_555
C13 C9 1_555 1_555
C14 O6 1_555 1_555
C15 O8 1_555 1_555
C16 O10 1_555 1_555
C17 C19 1_555 1_555
C18 C16 1_555 1_555
C19 C18 1_555 1_555
C20 C19 1_555 1_555
H14 C20 1_555 1_555
C21 C20 1_555 1_555
H15 C21 1_555 1_555
C22 C21 1_555 1_555
H16 C22 1_555 1_555
C23 C18 1_555 1_555
C24 H17 1_555 1_555
C25 N2 1_555 1_555
H18 C25 1_555 1_555
C26 N2 1_555 1_555
H19 C26 1_555 1_555
C27 C26 1_555 1_555
H20 C27 1_555 1_555
C28 C24 1_555 1_555
Yb1A O12 1_555 1_555
Yb2_2 O7 1_555 1_555
Yb2A O3 1_555 1_555
Yb2A_2 O5 1_555 1_555
O3A Yb2 1_555 1_555
O4A Yb2 1_555 1_555
O5A Yb2 1_555 1_555
O7_2 Yb2 1_555 1_555
O9_2 Yb2 1_555 1_555
O12A Yb1 1_555 1_555
O13A Yb1 1_555 1_555
O4 Yb2A 1_555 1_555
O9 Yb2_2 1_555 1_555
O11 C16 1_555 1_555
O13 Yb1A 1_555 1_555
C7 C8 1_555 1_555
C9 C10 1_555 1_555
C12 C13 1_555 1_555
C14 C15 1_555 1_555
C22 C23 1_555 1_555
C24 C25 1_555 1_555
C27 C28 1_555 1_555

#END
