
#######################################################################
#
#                 Cambridge Crystallographic Data Centre
#                                CCDC 
#
#######################################################################
#
# If this CIF has been generated from an entry in the Cambridge 
# Structural Database, then it will include bibliographic, chemical, 
# crystal, experimental, refinement or atomic coordinate data resulting 
# from the CCDC's data processing and validation procedures.
#
#######################################################################

data_CIBQAH
_symmetry_cell_setting           triclinic
_symmetry_space_group_name_H-M   'P -1'
_symmetry_Int_Tables_number      2
_space_group_name_Hall           '-P 1'
loop_
_symmetry_equiv_pos_site_id
_symmetry_equiv_pos_as_xyz
1 x,y,z
2 -x,-y,-z
_cell_length_a                   10.2113(5)
_cell_length_b                   12.0766(7)
_cell_length_c                   12.9701(7)
_cell_angle_alpha                74.784(5)
_cell_angle_beta                 76.254(5)
_cell_angle_gamma                71.416(5)
_cell_volume                     1442.02
loop_
_atom_site_label
_atom_site_type_symbol
_atom_site_fract_x
_atom_site_fract_y
_atom_site_fract_z
Er1 Er 0.80464(4) 0.27751(3) -0.04909(3)
Er2 Er 0.20806(4) 0.22148(3) 0.10373(3)
O1 O 0.8201(6) 0.1468(4) 0.1182(5)
O2 O 1.0026(6) 0.1675(5) 0.1722(5)
O3 O 1.0446(6) -0.0923(4) 0.1129(5)
O4 O 1.1393(6) -0.2472(4) 0.2303(5)
O5 O 0.4187(7) 0.5173(5) 0.3182(6)
O6 O 0.6510(6) 0.1716(5) -0.0527(5)
O7 O 0.4357(6) 0.1485(4) 0.0024(5)
O8 O 0.5753(6) 0.3561(5) 0.0422(5)
O9 O 0.3587(6) 0.3356(4) 0.0975(4)
O10 O 0.2197(6) 0.3391(4) -0.0732(5)
O11 O 0.0256(6) 0.3015(4) -0.0810(5)
O12 O -0.0397(5) 0.5802(4) -0.1184(4)
O13 O -0.1260(6) 0.6918(4) -0.2644(5)
O14 O 0.6750(6) -0.0705(5) -0.2228(5)
O15 O 0.7304(6) 0.4545(4) -0.1663(5)
H1 H 0.7184 0.4400 -0.2236
H2 H 0.6534 0.4957 -0.1365
O16 O 0.7982(6) 0.4133(4) 0.0571(5)
H3 H 0.8805 0.4194 0.0509
H4 H 0.7444 0.4812 0.0347
O17 O 0.2111(6) 0.0712(4) 0.0179(5)
H5 H 0.1303 0.0595 0.0331
H6 H 0.2710 0.0072 0.0405
N1 N 0.6914(8) 0.1868(5) 0.3600(6)
N2 N 0.3543(6) 0.2323(5) -0.2751(5)
C1 C 0.9055(9) 0.1216(7) 0.1840(7)
C2 C 1.0578(9) -0.1445(7) 0.2088(7)
C3 C 0.8848(9) 0.0325(7) 0.2850(7)
C4 C 0.9674(9) -0.0875(7) 0.3014(7)
C5 C 0.9564(10) -0.1621(8) 0.4023(8)
H7 H 1.0112 -0.2408 0.4110
C6 C 0.8652(11) -0.1216(8) 0.4905(9)
H8 H 0.8621 -0.1711 0.5588
C7 C 0.7778(11) -0.0053(8) 0.4756(8)
H9 H 0.7137 0.0224 0.5336
C8 C 0.7872(10) 0.0685(7) 0.3741(8)
C9 C 0.4674(10) 0.3108(7) 0.3275(8)
H10 H 0.3794 0.3177 0.3140
C10 C 0.5620(10) 0.2025(7) 0.3415(8)
H11 H 0.5365 0.1363 0.3381
C11 C 0.7291(11) 0.2804(8) 0.3652(8)
H12 H 0.8195 0.2700 0.3760
C12 C 0.6386(11) 0.3908(8) 0.3552(9)
H13 H 0.6672 0.4535 0.3630
C13 C 0.5015(10) 0.4145(8) 0.3333(8)
C14 C 0.5253(8) 0.2007(6) -0.0077(7)
C15 C 0.4847(9) 0.3080(7) 0.0490(7)
C16 C 0.1266(8) 0.3446(6) -0.1232(7)
C17 C -0.0464(8) 0.5976(6) -0.2177(7)
C18 C 0.1406(8) 0.3993(6) -0.2417(7)
C19 C 0.0506(8) 0.5100(6) -0.2866(7)
C20 C 0.0654(9) 0.5485(7) -0.3982(7)
H14 H 0.0059 0.6205 -0.4269
C21 C 0.1662(9) 0.4832(7) -0.4686(8)
H15 H 0.1720 0.5091 -0.5432
C22 C 0.2579(9) 0.3783(7) -0.4248(7)
H16 H 0.3267 0.3337 -0.4706
C23 C 0.2481(9) 0.3400(7) -0.3151(7)
C24 C 0.4331(9) 0.0250(7) -0.2132(7)
H17 H 0.4111 -0.0471 -0.1837
C25 C 0.3261(9) 0.1251(7) -0.2315(7)
H18 H 0.2340 0.1204 -0.2142
C26 C 0.4898(9) 0.2394(7) -0.2987(7)
H19 H 0.5088 0.3127 -0.3288
C27 C 0.5971(9) 0.1388(7) -0.2780(7)
H20 H 0.6881 0.1457 -0.2918
C28 C 0.5743(9) 0.0236(7) -0.2360(7)
Er1_2 Er -0.19536(4) 0.27751(3) -0.04909(3)
Er1A Er 1.19536(4) -0.27751(3) 0.04909(3)
Er2_2 Er 1.20806(4) 0.22148(3) 0.10373(3)
Er2A Er -0.20806(4) 0.77852(3) -0.10373(3)
Er2A_2 Er 0.79194(4) -0.22148(3) -0.10373(3)
O2_2 O 0.0026(6) 0.1675(5) 0.1722(5)
O3A O 0.9554(6) 0.0923(4) -0.1129(5)
O4A O 0.8607(6) 0.2472(4) -0.2303(5)
O11_2 O 1.0256(6) 0.3015(4) -0.0810(5)
O12A O 0.0397(5) 0.4198(4) 0.1184(4)
O13A O 0.1260(6) 0.3082(4) 0.2644(5)
O14A O 0.3250(6) 0.0705(5) 0.2228(5)
loop_
_geom_bond_atom_site_label_1
_geom_bond_atom_site_label_2
_geom_bond_site_symmetry_1
_geom_bond_site_symmetry_2
Er1 O1 1_555 1_555
Er2 O7 1_555 1_555
O1 C1 1_555 1_555
O2 C1 1_555 1_555
O3 C2 1_555 1_555
O4 C2 1_555 1_555
O5 C13 1_555 1_555
O6 Er1 1_555 1_555
O7 C14 1_555 1_555
O8 Er1 1_555 1_555
O9 Er2 1_555 1_555
O10 Er2 1_555 1_555
O11 C16 1_555 1_555
O12 C17 1_555 1_555
O13 C17 1_555 1_555
O14 C28 1_555 1_555
O15 Er1 1_555 1_555
H1 O15 1_555 1_555
H2 O15 1_555 1_555
O16 Er1 1_555 1_555
H3 O16 1_555 1_555
H4 O16 1_555 1_555
O17 Er2 1_555 1_555
H5 O17 1_555 1_555
H6 O17 1_555 1_555
N1 C8 1_555 1_555
N2 C23 1_555 1_555
C1 C3 1_555 1_555
C2 C4 1_555 1_555
C3 C4 1_555 1_555
C4 C5 1_555 1_555
C5 H7 1_555 1_555
C6 C5 1_555 1_555
H8 C6 1_555 1_555
C7 C6 1_555 1_555
H9 C7 1_555 1_555
C8 C3 1_555 1_555
C9 H10 1_555 1_555
C10 N1 1_555 1_555
H11 C10 1_555 1_555
C11 N1 1_555 1_555
H12 C11 1_555 1_555
C12 C11 1_555 1_555
H13 C12 1_555 1_555
C13 C9 1_555 1_555
C14 O6 1_555 1_555
C15 O8 1_555 1_555
C16 O10 1_555 1_555
C17 C19 1_555 1_555
C18 C16 1_555 1_555
C19 C18 1_555 1_555
C20 C19 1_555 1_555
H14 C20 1_555 1_555
C21 C20 1_555 1_555
H15 C21 1_555 1_555
C22 C21 1_555 1_555
H16 C22 1_555 1_555
C23 C18 1_555 1_555
C24 H17 1_555 1_555
C25 N2 1_555 1_555
H18 C25 1_555 1_555
C26 N2 1_555 1_555
H19 C26 1_555 1_555
C27 C26 1_555 1_555
H20 C27 1_555 1_555
C28 C24 1_555 1_555
Er1_2 O11 1_555 1_555
Er1A O3 1_555 1_555
Er2_2 O2 1_555 1_555
Er2A O12 1_555 1_555
Er2A_2 O14 1_555 1_555
O2_2 Er2 1_555 1_555
O3A Er1 1_555 1_555
O4A Er1 1_555 1_555
O11_2 Er1 1_555 1_555
O12A Er2 1_555 1_555
O13A Er2 1_555 1_555
O14A Er2 1_555 1_555
O4 Er1A 1_555 1_555
O9 C15 1_555 1_555
O13 Er2A 1_555 1_555
C7 C8 1_555 1_555
C9 C10 1_555 1_555
C12 C13 1_555 1_555
C14 C15 1_555 1_555
C22 C23 1_555 1_555
C24 C25 1_555 1_555
C27 C28 1_555 1_555

#END
