
#######################################################################
#
#                 Cambridge Crystallographic Data Centre
#                                CCDC 
#
#######################################################################
#
# If this CIF has been generated from an entry in the Cambridge 
# Structural Database, then it will include bibliographic, chemical, 
# crystal, experimental, refinement or atomic coordinate data resulting 
# from the CCDC's data processing and validation procedures.
#
#######################################################################

data_CIBQEL
_symmetry_cell_setting           triclinic
_symmetry_space_group_name_H-M   'P -1'
_symmetry_Int_Tables_number      2
_space_group_name_Hall           '-P 1'
loop_
_symmetry_equiv_pos_site_id
_symmetry_equiv_pos_as_xyz
1 x,y,z
2 -x,-y,-z
_cell_length_a                   7.7424(3)
_cell_length_b                   10.6628(6)
_cell_length_c                   12.8135(4)
_cell_angle_alpha                112.188(4)
_cell_angle_beta                 93.106(3)
_cell_angle_gamma                104.943(4)
_cell_volume                     932.691
loop_
_atom_site_label
_atom_site_type_symbol
_atom_site_fract_x
_atom_site_fract_y
_atom_site_fract_z
La1 La 0.18288(3) 0.05786(2) 0.659058(17)
O1 O 0.2678(4) 0.3030(3) 0.6399(2)
O2 O 0.1004(4) 0.1228(3) 0.4859(2)
O3 O 0.0311(4) 0.0646(3) 0.2486(2)
O4 O 0.3287(5) 0.1049(4) 0.2689(3)
O5 O 0.3369(4) 0.2161(3) -0.1452(2)
O6 O 0.2755(4) -0.1026(3) 0.4771(2)
O7 O 0.4838(4) -0.1278(3) 0.3636(2)
O8 O -0.0460(4) 0.2011(4) 0.7264(3)
H1 H -0.0889 0.1946 0.7733
H2 H -0.1120 0.1857 0.6780
O9 O 0.3211(4) -0.1028(3) 0.7190(2)
H3 H 0.2609 -0.1505 0.7380
H4 H 0.4090 -0.0619 0.7536
C1 C 0.1923(5) 0.2538(4) 0.5382(3)
C2 C 0.1928(6) 0.1434(4) 0.2871(3)
C3 C 0.2778(7) 0.5397(5) 0.3716(4)
H5 H 0.2986 0.6027 0.3363
C4 C 0.2705(8) 0.5874(5) 0.4869(4)
H6 H 0.2835 0.6829 0.5293
C5 C 0.2440(7) 0.4945(5) 0.5392(3)
H7 H 0.2449 0.5285 0.6177
C6 C 0.2160(5) 0.3502(4) 0.4766(3)
C7 C 0.2180(5) 0.2986(4) 0.3582(3)
C8 C 0.2540(6) 0.3969(5) 0.3092(3)
C9 C 0.4514(6) 0.3677(5) 0.0487(3)
H8 H 0.5596 0.4103 0.0307
C10 C 0.4274(6) 0.4099(5) 0.1595(3)
H9 H 0.5203 0.4807 0.2163
C11 C 0.1344(6) 0.2486(5) 0.1057(3)
H10 H 0.0267 0.2092 0.1260
C12 C 0.1516(6) 0.2033(5) -0.0053(3)
H11 H 0.0553 0.1338 -0.0603
C13 C 0.3131(6) 0.2593(5) -0.0400(3)
C14 C 0.4302(6) -0.0671(4) 0.4534(3)
N1 N 0.2717(5) 0.3514(4) 0.1894(3)
O6A O 0.7245(4) 0.1026(3) 0.5229(2)
O7A O 0.5162(4) 0.1278(3) 0.6364(2)
C14A C 0.5698(6) 0.0671(4) 0.5466(3)
La1A La -0.18288(3) -0.05786(2) 0.340942(17)
O1A O -0.2678(4) -0.3030(3) 0.3601(2)
O2A O -0.1004(4) -0.1228(3) 0.5141(2)
O3A O -0.0311(4) -0.0646(3) 0.7514(2)
O4A O -0.3287(5) -0.1049(4) 0.7311(3)
O5A O -0.3369(4) -0.2161(3) 1.1452(2)
O8A O 0.0460(4) -0.2011(4) 0.2736(3)
H1A H 0.0889 -0.1946 0.2267
H2A H 0.1120 -0.1857 0.3220
O9A O -0.3211(4) 0.1028(3) 0.2810(2)
H3A H -0.2609 0.1505 0.2620
H4A H -0.4090 0.0619 0.2464
C1A C -0.1923(5) -0.2538(4) 0.4618(3)
C2A C -0.1928(6) -0.1434(4) 0.7129(3)
C3A C -0.2778(7) -0.5397(5) 0.6284(4)
H5A H -0.2986 -0.6027 0.6637
C4A C -0.2705(8) -0.5874(5) 0.5131(4)
H6A H -0.2835 -0.6829 0.4707
C5A C -0.2440(7) -0.4945(5) 0.4608(3)
H7A H -0.2449 -0.5285 0.3823
C6A C -0.2160(5) -0.3502(4) 0.5234(3)
C7A C -0.2180(5) -0.2986(4) 0.6418(3)
C8A C -0.2540(6) -0.3969(5) 0.6908(3)
C9A C -0.4514(6) -0.3677(5) 0.9513(3)
H8A H -0.5596 -0.4103 0.9693
C10A C -0.4274(6) -0.4099(5) 0.8405(3)
H9A H -0.5203 -0.4807 0.7837
C11A C -0.1344(6) -0.2486(5) 0.8943(3)
H10A H -0.0267 -0.2092 0.8740
C12A C -0.1516(6) -0.2033(5) 1.0053(3)
H11A H -0.0553 -0.1338 1.0603
C13A C -0.3131(6) -0.2593(5) 1.0400(3)
N1A N -0.2717(5) -0.3514(4) 0.8106(3)
La1_2 La 0.18288(3) 0.05786(2) -0.340942(17)
La1A_2 La -0.18288(3) -0.05786(2) 1.340942(17)
La1A_3 La 0.81712(3) -0.05786(2) 0.340942(17)
O5_2 O 0.3369(4) 0.2161(3) 0.8548(2)
O5A_2 O -0.3369(4) -0.2161(3) 0.1452(2)
O6A_2 O -0.2755(4) 0.1026(3) 0.5229(2)
O7_2 O -0.5162(4) -0.1278(3) 0.3636(2)
O10 O 0.7068(6) 0.1727(5) 0.8812(3)
H12 H 0.6980 0.1009 0.8425
H13 H 0.6194 0.1835 0.8754
O11 O 0.2862(16) 0.805(2) 0.8881(15)
H14 H 0.2508 0.8106 0.9509
H15 H 0.3767 0.7739 0.8726
O12 O 0.9024(15) 0.4882(10) 0.1532(14)
O13? O 0.320(2) 0.927(2) 0.9543(15)
H16? H 0.4305 0.9731 0.9839
H17? H 0.2956 0.9686 1.0165
O14? O 1.012(8) 0.522(4) 0.062(3)
H18? H 0.9379 0.5657 0.1827
H19? H 0.9807 0.4676 0.1875
H20? H 1.1116 0.5740 0.0564
H21? H 0.9501 0.5790 0.0692
loop_
_geom_bond_atom_site_label_1
_geom_bond_atom_site_label_2
_geom_bond_site_symmetry_1
_geom_bond_site_symmetry_2
La1 O1 1_555 1_555
O1 C1 1_555 1_555
O2 La1 1_555 1_555
O3 C2 1_555 1_555
O4 C2 1_555 1_555
O5 C13 1_555 1_555
O6 La1 1_555 1_555
O7 C14 1_555 1_555
O8 La1 1_555 1_555
H1 O8 1_555 1_555
H2 O8 1_555 1_555
O9 La1 1_555 1_555
H3 O9 1_555 1_555
H4 O9 1_555 1_555
C1 O2 1_555 1_555
C2 C7 1_555 1_555
C3 H5 1_555 1_555
C4 C3 1_555 1_555
H6 C4 1_555 1_555
C5 C4 1_555 1_555
H7 C5 1_555 1_555
C6 C1 1_555 1_555
C7 C6 1_555 1_555
C8 C3 1_555 1_555
C9 H8 1_555 1_555
C10 C9 1_555 1_555
H9 C10 1_555 1_555
C11 H10 1_555 1_555
C12 C11 1_555 1_555
H11 C12 1_555 1_555
C13 C9 1_555 1_555
C14 O6 1_555 1_555
N1 C8 1_555 1_555
O10 H12 1_555 1_555
H13 O10 1_555 1_555
O11 H14 1_555 1_555
H15 O11 1_555 1_555
O6A C14A 1_555 1_555
O7A La1 1_555 1_555
C14A C14 1_555 1_555
La1A O2 1_555 1_555
O1A La1A 1_555 1_555
O2A La1 1_555 1_555
O3A La1 1_555 1_555
O4A C2A 1_555 1_555
O5A C13A 1_555 1_555
O8A La1A 1_555 1_555
H1A O8A 1_555 1_555
H2A O8A 1_555 1_555
O9A La1A 1_555 1_555
H3A O9A 1_555 1_555
H4A O9A 1_555 1_555
C1A O1A 1_555 1_555
C2A O3A 1_555 1_555
C3A H5A 1_555 1_555
C4A C3A 1_555 1_555
H6A C4A 1_555 1_555
C5A C4A 1_555 1_555
H7A C5A 1_555 1_555
C6A C1A 1_555 1_555
C7A C2A 1_555 1_555
C8A C3A 1_555 1_555
C9A H8A 1_555 1_555
C10A C9A 1_555 1_555
H9A C10A 1_555 1_555
C11A H10A 1_555 1_555
C12A C11A 1_555 1_555
H11A C12A 1_555 1_555
C13A C9A 1_555 1_555
N1A C8A 1_555 1_555
La1_2 O5 1_555 1_555
La1A_2 O5A 1_555 1_555
La1A_3 O7 1_555 1_555
O5_2 La1 1_555 1_555
O5A_2 La1A 1_555 1_555
O6A_2 La1A 1_555 1_555
O7_2 La1A 1_555 1_555
O3 La1A 1_555 1_555
C5 C6 1_555 1_555
C7 C8 1_555 1_555
C10 N1 1_555 1_555
C11 N1 1_555 1_555
C12 C13 1_555 1_555
O6A La1A_3 1_555 1_555
O7A C14A 1_555 1_555
La1A O2A 1_555 1_555
O2A C1A 1_555 1_555
C5A C6A 1_555 1_555
C6A C7A 1_555 1_555
C7A C8A 1_555 1_555
C10A N1A 1_555 1_555
C11A N1A 1_555 1_555
C12A C13A 1_555 1_555

#END
