
#######################################################################
#
#                 Cambridge Crystallographic Data Centre
#                                CCDC 
#
#######################################################################
#
# If this CIF has been generated from an entry in the Cambridge 
# Structural Database, then it will include bibliographic, chemical, 
# crystal, experimental, refinement or atomic coordinate data resulting 
# from the CCDC's data processing and validation procedures.
#
#######################################################################

data_CIBREL
_symmetry_cell_setting           monoclinic
_symmetry_space_group_name_H-M   'P 21'
_symmetry_Int_Tables_number      4
_space_group_name_Hall           'P 2yb'
loop_
_symmetry_equiv_pos_site_id
_symmetry_equiv_pos_as_xyz
1 x,y,z
2 -x,1/2+y,-z
_cell_length_a                   14.4666(10)
_cell_length_b                   13.4725(9)
_cell_length_c                   19.8680(14)
_cell_angle_alpha                90
_cell_angle_beta                 93.0460(10)
_cell_angle_gamma                90
_cell_volume                     3866.83
loop_
_atom_site_label
_atom_site_type_symbol
_atom_site_fract_x
_atom_site_fract_y
_atom_site_fract_z
Cd1 Cd 0.96485(2) 0.77697(3) 1.245597(17)
Cd2 Cd 0.54661(3) 0.77289(3) 0.723522(18)
C1 C 0.8547(4) 0.7538(4) 0.7797(3)
C2 C 0.7662(4) 0.7823(5) 0.7589(2)
H1 H 0.7582 0.8445 0.7391
C3 C 0.7035(5) 0.6382(5) 0.7945(4)
H2 H 0.6520 0.5979 0.7993
C4 C 0.7885(6) 0.6040(5) 0.8177(4)
H3 H 0.7943 0.5428 0.8392
C5 C 0.8633(5) 0.6608(5) 0.8088(4)
H4 H 0.9217 0.6371 0.8224
C6 C 0.9366(4) 0.8228(5) 0.7712(3)
H5 H 0.9819 0.7896 0.7448
H6 H 0.9156 0.8816 0.7467
C7 C 1.0482(4) 0.8008(4) 0.8674(3)
C8 C 1.0839(4) 0.8319(4) 0.9359(3)
H7 H 1.1502 0.8166 0.9382
C9 C 1.0760(6) 0.9406(5) 0.9576(3)
H8 H 1.1292 0.9781 0.9442
H9 H 1.0204 0.9704 0.9369
C10 C 1.0720(7) 0.9400(5) 1.0338(3)
H10 H 1.0129 0.9657 1.0469
H11 H 1.1209 0.9811 1.0541
C11 C 1.0841(4) 0.8319(4) 1.0568(3)
C12 C 1.0424(3) 0.7738(6) 0.9944(2)
C13 C 1.0717(6) 0.6642(5) 0.9928(3)
H12 H 1.0377 0.6309 0.9566
H13 H 1.0590 0.6332 1.0348
H14 H 1.1368 0.6599 0.9859
C14 C 0.9375(4) 0.7796(9) 0.9917(3)
H15 H 0.9142 0.7393 1.0269
H16 H 0.9131 0.7561 0.9488
H17 H 0.9187 0.8472 0.9979
C15 C 1.1867(4) 0.8078(5) 1.0740(3)
H18 H 1.1934 0.7381 1.0827
H19 H 1.2078 0.8446 1.1132
H20 H 1.2228 0.8258 1.0367
C16 C 1.0332(5) 0.8107(5) 1.1208(3)
C17 C 0.6802(4) 0.6350(5) 1.2061(3)
C18 C 0.7546(4) 0.6977(5) 1.2144(3)
H21 H 0.7427 0.7644 1.2222
C19 C 0.8587(5) 0.5748(5) 1.2006(3)
H22 H 0.9197 0.5534 1.1992
C20 C 0.7900(5) 0.5063(5) 1.1905(4)
H23 H 0.8040 0.4404 1.1815
C21 C 0.6996(5) 0.5368(5) 1.1938(3)
H24 H 0.6516 0.4912 1.1878
C22 C 0.5834(4) 0.6721(5) 1.2113(3)
H25 H 0.5514 0.6290 1.2415
H26 H 0.5857 0.7379 1.2310
C23 C 0.5370(4) 0.7503(4) 1.1051(3)
C24 C 0.4723(4) 0.7471(4) 1.0421(3)
H27 H 0.4210 0.7023 1.0509
C25 C 0.4316(5) 0.8491(5) 1.0231(3)
H28 H 0.3767 0.8616 1.0477
H29 H 0.4764 0.9009 1.0340
C26 C 0.4077(5) 0.8479(5) 0.9490(4)
H30 H 0.4399 0.9009 0.9270
H31 H 0.3417 0.8572 0.9404
C27 C 0.4379(4) 0.7456(4) 0.9218(3)
C28 C 0.5159(4) 0.7125(4) 0.9757(3)
C29 C 0.5324(6) 0.5999(5) 0.9770(4)
H32 H 0.5756 0.5836 1.0137
H33 H 0.5571 0.5794 0.9353
H34 H 0.4749 0.5663 0.9829
C30 C 0.6072(4) 0.7641(6) 0.9652(3)
H35 H 0.6331 0.7390 0.9250
H36 H 0.6494 0.7517 1.0032
H37 H 0.5970 0.8343 0.9606
C31 C 0.3555(5) 0.6774(6) 0.9168(4)
H38 H 0.3747 0.6127 0.9028
H39 H 0.3101 0.7033 0.8845
H40 H 0.3291 0.6725 0.9600
C32 C 0.4782(4) 0.7516(4) 0.8513(3)
C33 C 1.2377(4) 0.7419(5) 1.6831(3)
C34 C 1.3297(5) 0.7323(5) 1.6991(3)
H41 H 1.3499 0.6727 1.7185
C35 C 1.3631(6) 0.8849(5) 1.6628(4)
H42 H 1.4056 0.9352 1.6558
C36 C 1.2739(7) 0.9018(6) 1.6454(5)
H43 H 1.2555 0.9624 1.6266
C37 C 1.2095(6) 0.8291(6) 1.6555(5)
H44 H 1.1473 0.8398 1.6434
C38 C 1.1708(5) 0.6579(6) 1.6957(3)
H45 H 1.2024 0.6076 1.7231
H46 H 1.1200 0.6834 1.7206
C39 C 1.0510(4) 0.6324(5) 1.6047(3)
C40 C 1.0274(5) 0.5779(5) 1.5400(3)
H47 H 1.0586 0.5133 1.5427
C41 C 0.9235(5) 0.5585(6) 1.5282(4)
H48 H 0.9098 0.4888 1.5347
H49 H 0.8886 0.5973 1.5592
C42 C 0.8992(5) 0.5891(6) 1.4565(3)
H50 H 0.8699 0.6539 1.4553
H51 H 0.8569 0.5416 1.4348
C43 C 0.9895(4) 0.5921(4) 1.4210(3)
C44 C 1.0600(4) 0.6326(4) 1.4758(3)
C45 C 1.1593(5) 0.6114(6) 1.4633(3)
H52 H 1.1983 0.6401 1.4987
H53 H 1.1742 0.6396 1.4208
H54 H 1.1689 0.5409 1.4622
C46 C 1.0508(5) 0.7455(4) 1.4830(3)
H55 H 1.0694 0.7771 1.4426
H56 H 1.0896 0.7678 1.5206
H57 H 0.9875 0.7621 1.4902
C47 C 1.0153(6) 0.4858(5) 1.3991(4)
H58 H 0.9694 0.4617 1.3665
H59 H 1.0180 0.4428 1.4377
H60 H 1.0746 0.4869 1.3796
C48 C 0.9834(4) 0.6592(5) 1.3578(3)
C49 C 1.1956(5) 0.9847(6) 1.3315(4)
H61 H 1.1974 1.0457 1.3534
C50 C 1.1131(5) 0.9428(5) 1.3117(3)
H62 H 1.0593 0.9782 1.3190
C51 C 1.1838(4) 0.8071(4) 1.2719(3)
H63 H 1.1795 0.7448 1.2520
C52 C 1.2711(4) 0.8433(4) 1.2880(3)
C53 C 1.2763(5) 0.9359(6) 1.3188(4)
H64 H 1.3334 0.9643 1.3306
C54 C 1.3565(4) 0.7881(6) 1.2704(3)
H65 H 1.3378 0.7263 1.2485
H66 H 1.3888 0.8271 1.2381
C55 C 1.4211(4) 0.6789(4) 1.3592(3)
C56 C 1.5004(4) 0.6581(4) 1.4102(3)
H67 H 1.5198 0.5899 1.4012
C57 C 1.5882(5) 0.7204(7) 1.4085(4)
H68 H 1.6327 0.6886 1.3807
H69 H 1.5740 0.7857 1.3901
C58 C 1.6263(5) 0.7286(6) 1.4798(3)
H70 H 1.6213 0.7965 1.4955
H71 H 1.6912 0.7099 1.4827
C59 C 1.5705(4) 0.6589(4) 1.5238(3)
C60 C 1.4739(4) 0.6585(4) 1.4849(3)
C61 C 1.4154(5) 0.5677(6) 1.5008(4)
H72 H 1.3521 0.5795 1.4860
H73 H 1.4192 0.5558 1.5485
H74 H 1.4382 0.5107 1.4778
C62 C 1.4202(5) 0.7515(6) 1.4997(3)
H75 H 1.4033 0.7505 1.5458
H76 H 1.3653 0.7544 1.4705
H77 H 1.4579 0.8087 1.4923
C63 C 1.6164(6) 0.5557(6) 1.5250(4)
H78 H 1.6796 0.5615 1.5420
H79 H 1.6147 0.5289 1.4802
H80 H 1.5836 0.5123 1.5537
C64 C 1.5656(4) 0.6933(5) 1.5967(3)
N1 N 0.6915(4) 0.7258(4) 0.7655(2)
N2 N 0.9804(3) 0.8526(3) 0.8360(2)
N3 N 0.8436(3) 0.6695(4) 1.2121(2)
N4 N 0.5305(3) 0.6766(4) 1.1471(3)
N5 N 1.3937(4) 0.8015(3) 1.6891(3)
N6 N 1.1340(4) 0.6132(4) 1.6341(3)
N7 N 1.1047(3) 0.8543(4) 1.2827(2)
N8 N 1.4207(3) 0.7652(4) 1.3271(2)
O1 O 1.0797(3) 0.7267(3) 0.8408(2)
O2 O 0.9867(4) 0.8764(4) 1.1465(2)
O3 O 1.0422(3) 0.7270(3) 1.1479(2)
O4 O 0.5913(3) 0.8190(3) 1.1167(2)
O5 O 0.4878(3) 0.6745(3) 0.8177(2)
O6 O 0.4988(4) 0.8353(3) 0.8282(2)
O7 O 0.9998(3) 0.6935(4) 1.6287(2)
O8 O 1.0324(3) 0.6406(3) 1.3092(2)
O9 O 0.9288(3) 0.7308(4) 1.3554(2)
O10 O 1.3625(3) 0.6165(3) 1.3460(2)
O11 O 1.5925(4) 0.7776(5) 1.6124(2)
O12 O 1.5340(3) 0.6382(3) 1.6392(2)
O13 O 0.5832(4) 0.9441(3) 0.7195(2)
O14 O 0.8683(4) 0.9084(3) 1.2633(3)
H81 H 0.949(3) 0.902(3) 0.852(2)
H82 H 0.492(3) 0.629(3) 1.145(3)
H83 H 1.153(4) 0.565(3) 1.608(2)
H84 H 1.462(3) 0.813(3) 1.336(2)
Cd2_2 Cd 1.54661(3) 0.77289(3) 1.723522(18)
N5_2 N 0.3937(4) 0.8015(3) 0.6891(3)
O11_2 O 0.5925(4) 0.7776(5) 0.6124(2)
O12_2 O 0.5340(3) 0.6382(3) 0.6392(2)
O15 O 0.4872(5) 0.4729(4) 0.8075(3)
O16 O 0.4144(3) 0.5074(3) 0.1484(2)
O17 O 0.4686(3) 0.4531(3) 0.6730(2)
O18 O 0.1929(3) 0.5440(3) 0.2801(2)
O19 O 0.1226(3) 0.5407(3) 0.1484(2)
O20 O 0.2706(4) 0.5229(6) 0.0608(3)
O21 O 0.8636(3) 0.0287(3) 0.1522(2)
O22 O 0.7393(5) 0.9296(5) 0.0609(3)
O23 O 0.7255(3) 0.9462(5) 0.3481(3)
O24 O 0.8335(4) 0.8576(5) 0.4419(3)
O25 O 0.8259(5) 0.7839(8) 0.5758(3)
loop_
_geom_bond_atom_site_label_1
_geom_bond_atom_site_label_2
_geom_bond_site_symmetry_1
_geom_bond_site_symmetry_2
Cd1 N3 1_555 1_555
Cd2 N1 1_555 1_555
C1 C2 1_555 1_555
C2 H1 1_555 1_555
C3 H2 1_555 1_555
C4 C3 1_555 1_555
H3 C4 1_555 1_555
C5 C1 1_555 1_555
H4 C5 1_555 1_555
C6 C1 1_555 1_555
H5 C6 1_555 1_555
H6 C6 1_555 1_555
C7 C8 1_555 1_555
C8 H7 1_555 1_555
C9 C8 1_555 1_555
H8 C9 1_555 1_555
H9 C9 1_555 1_555
C10 C9 1_555 1_555
H10 C10 1_555 1_555
H11 C10 1_555 1_555
C11 C10 1_555 1_555
C12 C8 1_555 1_555
C13 C12 1_555 1_555
H12 C13 1_555 1_555
H13 C13 1_555 1_555
H14 C13 1_555 1_555
C14 C12 1_555 1_555
H15 C14 1_555 1_555
H16 C14 1_555 1_555
H17 C14 1_555 1_555
C15 C11 1_555 1_555
H18 C15 1_555 1_555
H19 C15 1_555 1_555
H20 C15 1_555 1_555
C16 C11 1_555 1_555
C17 C18 1_555 1_555
C18 H21 1_555 1_555
C19 H22 1_555 1_555
C20 C19 1_555 1_555
H23 C20 1_555 1_555
C21 C17 1_555 1_555
H24 C21 1_555 1_555
C22 C17 1_555 1_555
H25 C22 1_555 1_555
H26 C22 1_555 1_555
C23 C24 1_555 1_555
C24 H27 1_555 1_555
C25 C24 1_555 1_555
H28 C25 1_555 1_555
H29 C25 1_555 1_555
C26 C25 1_555 1_555
H30 C26 1_555 1_555
H31 C26 1_555 1_555
C27 C26 1_555 1_555
C28 C24 1_555 1_555
C29 C28 1_555 1_555
H32 C29 1_555 1_555
H33 C29 1_555 1_555
H34 C29 1_555 1_555
C30 C28 1_555 1_555
H35 C30 1_555 1_555
H36 C30 1_555 1_555
H37 C30 1_555 1_555
C31 C27 1_555 1_555
H38 C31 1_555 1_555
H39 C31 1_555 1_555
H40 C31 1_555 1_555
C32 C27 1_555 1_555
C33 C34 1_555 1_555
C34 H41 1_555 1_555
C35 H42 1_555 1_555
C36 C35 1_555 1_555
H43 C36 1_555 1_555
C37 C33 1_555 1_555
H44 C37 1_555 1_555
C38 C33 1_555 1_555
H45 C38 1_555 1_555
H46 C38 1_555 1_555
C39 C40 1_555 1_555
C40 H47 1_555 1_555
C41 C40 1_555 1_555
H48 C41 1_555 1_555
H49 C41 1_555 1_555
C42 C41 1_555 1_555
H50 C42 1_555 1_555
H51 C42 1_555 1_555
C43 C42 1_555 1_555
C44 C40 1_555 1_555
C45 C44 1_555 1_555
H52 C45 1_555 1_555
H53 C45 1_555 1_555
H54 C45 1_555 1_555
C46 C44 1_555 1_555
H55 C46 1_555 1_555
H56 C46 1_555 1_555
H57 C46 1_555 1_555
C47 C43 1_555 1_555
H58 C47 1_555 1_555
H59 C47 1_555 1_555
H60 C47 1_555 1_555
C48 C43 1_555 1_555
C49 H61 1_555 1_555
C50 C49 1_555 1_555
H62 C50 1_555 1_555
C51 H63 1_555 1_555
C52 C51 1_555 1_555
C53 C49 1_555 1_555
H64 C53 1_555 1_555
C54 C52 1_555 1_555
H65 C54 1_555 1_555
H66 C54 1_555 1_555
C55 C56 1_555 1_555
C56 H67 1_555 1_555
C57 C56 1_555 1_555
H68 C57 1_555 1_555
H69 C57 1_555 1_555
C58 C57 1_555 1_555
H70 C58 1_555 1_555
H71 C58 1_555 1_555
C59 C58 1_555 1_555
C60 C56 1_555 1_555
C61 C60 1_555 1_555
H72 C61 1_555 1_555
H73 C61 1_555 1_555
H74 C61 1_555 1_555
C62 C60 1_555 1_555
H75 C62 1_555 1_555
H76 C62 1_555 1_555
H77 C62 1_555 1_555
C63 C59 1_555 1_555
H78 C63 1_555 1_555
H79 C63 1_555 1_555
H80 C63 1_555 1_555
C64 C59 1_555 1_555
N1 C2 1_555 1_555
N2 C6 1_555 1_555
N3 C18 1_555 1_555
N4 C22 1_555 1_555
N5 C34 1_555 1_555
N6 C38 1_555 1_555
N7 Cd1 1_555 1_555
N8 C54 1_555 1_555
O1 C7 1_555 1_555
O2 Cd1 1_555 1_555
O3 Cd1 1_555 1_555
O4 C23 1_555 1_555
O5 Cd2 1_555 1_555
O6 Cd2 1_555 1_555
O7 C39 1_555 1_555
O8 Cd1 1_555 1_555
O9 Cd1 1_555 1_555
O10 C55 1_555 1_555
O11 C64 1_555 1_555
O12 C64 1_555 1_555
O13 Cd2 1_555 1_555
O14 Cd1 1_555 1_555
H81 N2 1_555 1_555
H82 N4 1_555 1_555
H83 N6 1_555 1_555
H84 N8 1_555 1_555
Cd2_2 N5 1_555 1_555
N5_2 Cd2 1_555 1_555
O11_2 Cd2 1_555 1_555
O12_2 Cd2 1_555 1_555
C3 N1 1_555 1_555
C4 C5 1_555 1_555
C7 N2 1_555 1_555
C11 C12 1_555 1_555
C16 O2 1_555 1_555
C16 O3 1_555 1_555
C19 N3 1_555 1_555
C20 C21 1_555 1_555
C23 N4 1_555 1_555
C27 C28 1_555 1_555
C32 O5 1_555 1_555
C32 O6 1_555 1_555
C35 N5 1_555 1_555
C36 C37 1_555 1_555
C39 N6 1_555 1_555
C43 C44 1_555 1_555
C48 O8 1_555 1_555
C48 O9 1_555 1_555
C50 N7 1_555 1_555
C51 N7 1_555 1_555
C52 C53 1_555 1_555
C55 N8 1_555 1_555
C59 C60 1_555 1_555
O11 Cd2_2 1_555 1_555
O12 Cd2_2 1_555 1_555

#END
