
#######################################################################
#
#                 Cambridge Crystallographic Data Centre
#                                CCDC 
#
#######################################################################
#
# If this CIF has been generated from an entry in the Cambridge 
# Structural Database, then it will include bibliographic, chemical, 
# crystal, experimental, refinement or atomic coordinate data resulting 
# from the CCDC's data processing and validation procedures.
#
#######################################################################

data_CIBSOV
_symmetry_cell_setting           orthorhombic
_symmetry_space_group_name_H-M   'P b c a'
_symmetry_Int_Tables_number      61
_space_group_name_Hall           '-P 2ac 2ab'
loop_
_symmetry_equiv_pos_site_id
_symmetry_equiv_pos_as_xyz
1 x,y,z
2 1/2-x,1/2+y,z
3 x,1/2-y,1/2+z
4 1/2+x,y,1/2-z
5 -x,-y,-z
6 1/2+x,1/2-y,-z
7 -x,1/2+y,1/2-z
8 1/2-x,-y,1/2+z
_cell_length_a                   16.055(3)
_cell_length_b                   26.78(1)
_cell_length_c                   12.295(5)
_cell_angle_alpha                90
_cell_angle_beta                 90
_cell_angle_gamma                90
_cell_volume                     5286.27
loop_
_atom_site_label
_atom_site_type_symbol
_atom_site_fract_x
_atom_site_fract_y
_atom_site_fract_z
W1 W 0.03815(3) 0.13828(2) 0.26211(4)
Cu1 Cu -0.0672(1) 0.19243(8) 0.1448(1)
Cu2 Cu 0.1173(1) 0.20669(8) 0.1422(1)
Cu3 Cu 0.0183(1) 0.22171(7) 0.3859(2)
Cl1 Cl 0.0234(2) 0.2199(1) 0.5824(2)
S1 S 0.0359(2) 0.1447(1) 0.0778(3)
S2 S 0.1397(2) 0.1913(2) 0.3201(3)
S3 S -0.0846(2) 0.1726(2) 0.3210(3)
N1 N -0.1589(6) 0.2202(5) 0.0593(9)
N2 N -0.2862(7) 0.2657(5) -0.0605(10)
N3 N 0.0056(9) 0.2927(6) 0.353(1)
C1 C 0.095(1) 0.0585(6) 0.235(2)
C2 C 0.126(1) 0.0728(6) 0.330(2)
C3 C 0.059(1) 0.0791(7) 0.403(1)
C4 C -0.012(1) 0.0634(7) 0.347(2)
C5 C 0.011(1) 0.0529(6) 0.247(1)
C6 C 0.145(2) 0.0460(9) 0.131(2)
C7 C 0.217(1) 0.0797(8) 0.359(3)
C8 C 0.063(2) 0.0914(8) 0.522(2)
C9 C -0.098(2) 0.0564(9) 0.396(3)
C10 C -0.048(2) 0.0335(8) 0.153(2)
C11 C -0.1940(8) 0.1985(6) -0.025(1)
C12 C -0.2583(9) 0.2201(6) -0.084(1)
C13 C -0.2491(9) 0.2891(6) 0.022(1)
C14 C -0.1868(8) 0.2668(6) 0.082(1)
C15 C 0.0071(10) 0.3336(8) 0.326(1)
C16 C 0.011(1) 0.3861(8) 0.298(2)
H1 H 0.1833 0.0187 0.1455
H2 H 0.1073 0.0364 0.0730
H3 H 0.1768 0.0752 0.1081
H4 H 0.2464 0.0483 0.3501
H5 H 0.2417 0.1047 0.3114
H6 H 0.2216 0.0907 0.4339
H7 H 0.1192 0.1014 0.5415
H8 H 0.0248 0.1186 0.5380
H9 H 0.0474 0.0623 0.5645
H10 H -0.0972 0.0671 0.4716
H11 H -0.1380 0.0762 0.3559
H12 H -0.1134 0.0215 0.3925
H13 H -0.0913 0.0580 0.1385
H14 H -0.0155 0.0284 0.0871
H15 H -0.0736 0.0021 0.1741
H16 H -0.1741 0.1658 -0.0464
H17 H -0.2835 0.2015 -0.1428
H18 H -0.2665 0.3227 0.0410
H19 H -0.1622 0.2849 0.1422
H20 H 0.0692 0.3960 0.2903
H21 H -0.0175 0.3917 0.2296
H22 H -0.0147 0.4058 0.3547
Cl1B Cl 0.0234(2) 0.2801(1) 0.0824(2)
Cu2B Cu 0.1173(1) 0.29331(8) 0.6422(1)
N2E N 0.2138(7) 0.2343(5) 0.0605(10)
Cu2E Cu -0.3827(1) 0.29331(8) -0.1422(1)
P1 P 0.2698(3) 0.4133(2) 0.2823(4)
F1 F 0.2052(8) 0.3713(5) 0.252(1)
F2 F 0.3060(9) 0.4112(6) 0.163(1)
F3 F 0.3368(8) 0.4527(5) 0.311(1)
F4 F 0.233(1) 0.4127(6) 0.399(1)
F5 F 0.2070(7) 0.4539(4) 0.247(1)
F6 F 0.3328(8) 0.3713(5) 0.318(2)
loop_
_geom_bond_atom_site_label_1
_geom_bond_atom_site_label_2
_geom_bond_site_symmetry_1
_geom_bond_site_symmetry_2
W1 Cu1 1_555 1_555
Cu1 S1 1_555 1_555
Cu2 W1 1_555 1_555
Cu3 W1 1_555 1_555
Cl1 Cu3 1_555 1_555
S1 W1 1_555 1_555
S2 W1 1_555 1_555
S3 W1 1_555 1_555
P1 F1 1_555 1_555
F2 P1 1_555 1_555
F3 P1 1_555 1_555
F4 P1 1_555 1_555
F5 P1 1_555 1_555
F6 P1 1_555 1_555
N1 Cu1 1_555 1_555
N2 C12 1_555 1_555
N3 Cu3 1_555 1_555
C1 W1 1_555 1_555
C2 W1 1_555 1_555
C3 W1 1_555 1_555
C4 W1 1_555 1_555
C5 W1 1_555 1_555
C6 C1 1_555 1_555
C7 C2 1_555 1_555
C8 C3 1_555 1_555
C9 C4 1_555 1_555
C10 C5 1_555 1_555
C11 N1 1_555 1_555
C12 C11 1_555 1_555
C13 N2 1_555 1_555
C14 N1 1_555 1_555
C15 N3 1_555 1_555
C16 C15 1_555 1_555
H1 C6 1_555 1_555
H2 C6 1_555 1_555
H3 C6 1_555 1_555
H4 C7 1_555 1_555
H5 C7 1_555 1_555
H6 C7 1_555 1_555
H7 C8 1_555 1_555
H8 C8 1_555 1_555
H9 C8 1_555 1_555
H10 C9 1_555 1_555
H11 C9 1_555 1_555
H12 C9 1_555 1_555
H13 C10 1_555 1_555
H14 C10 1_555 1_555
H15 C10 1_555 1_555
H16 C11 1_555 1_555
H17 C12 1_555 1_555
H18 C13 1_555 1_555
H19 C14 1_555 1_555
H20 C16 1_555 1_555
H21 C16 1_555 1_555
H22 C16 1_555 1_555
Cl1B Cu2 1_555 1_555
Cu2B Cl1 1_555 1_555
N2E Cu2 1_555 1_555
Cu2E N2 1_555 1_555
Cu1 S3 1_555 1_555
Cu2 S1 1_555 1_555
Cu2 S2 1_555 1_555
Cu3 S2 1_555 1_555
Cu3 S3 1_555 1_555
C1 C2 1_555 1_555
C1 C5 1_555 1_555
C2 C3 1_555 1_555
C3 C4 1_555 1_555
C4 C5 1_555 1_555
C13 C14 1_555 1_555

#END
