
#######################################################################
#
#                 Cambridge Crystallographic Data Centre
#                                CCDC 
#
#######################################################################
#
# If this CIF has been generated from an entry in the Cambridge 
# Structural Database, then it will include bibliographic, chemical, 
# crystal, experimental, refinement or atomic coordinate data resulting 
# from the CCDC's data processing and validation procedures.
#
#######################################################################

data_CIBSAI
_symmetry_cell_setting           rhombohedral
_symmetry_space_group_name_H-M   'R -3'
_symmetry_Int_Tables_number      148
_space_group_name_Hall           '-R 3'
loop_
_symmetry_equiv_pos_site_id
_symmetry_equiv_pos_as_xyz
1 x,y,z
2 -y,x-y,z
3 -x+y,-x,z
4 2/3+x,1/3+y,1/3+z
5 2/3-y,1/3+x-y,1/3+z
6 2/3-x+y,1/3-x,1/3+z
7 1/3+x,2/3+y,2/3+z
8 1/3-y,2/3+x-y,2/3+z
9 1/3-x+y,2/3-x,2/3+z
10 -x,-y,-z
11 y,-x+y,-z
12 x-y,x,-z
13 1/3-x,2/3-y,2/3-z
14 1/3+y,2/3-x+y,2/3-z
15 1/3+x-y,2/3+x,2/3-z
16 2/3-x,1/3-y,1/3-z
17 2/3+y,1/3-x+y,1/3-z
18 2/3+x-y,1/3+x,1/3-z
_cell_length_a                   19.7466(6)
_cell_length_b                   19.7466(6)
_cell_length_c                   13.4891(8)
_cell_angle_alpha                90
_cell_angle_beta                 90
_cell_angle_gamma                120.00
_cell_volume                     4555.1
loop_
_atom_site_label
_atom_site_type_symbol
_atom_site_fract_x
_atom_site_fract_y
_atom_site_fract_z
Ni1 Ni 0.73244(2) 0.61971(2) 0.14095(3)
Cl1 Cl 0.84566(4) 0.61457(4) 0.08332(6)
O1 O 0.74266(13) 0.69031(13) 0.01342(15)
N1 N 0.65708(16) 0.54147(14) 0.04710(19)
O2 O 0.69535(13) 0.67508(15) -0.14165(16)
O3 O 0.69147(14) 0.51357(13) 0.22187(17)
C1 C 0.64575(19) 0.56578(18) -0.0398(2)
C2 C 0.69941(16) 0.65145(17) -0.0578(2)
C3 C 0.6118(2) 0.4692(2) 0.0786(3)
C4 C 0.6313(2) 0.4566(2) 0.1837(3)
C5 C 0.5862(3) 0.5146(2) -0.1025(3)
H1 H 0.5786 0.5309 -0.1641
O4 O 0.5874(2) 0.3953(2) 0.2267(2)
C6 C 0.5506(3) 0.4154(3) 0.0210(3)
H2 H 0.5181 0.3645 0.0433
C7 C 0.5389(4) 0.4391(3) -0.0704(4)
H3 H 0.4985 0.4035 -0.1108
Ni1O Ni 0.93423(2) 0.71362(2) 0.19238(3)
Ni1E Ni 0.55394(3) 0.60089(2) 0.47428(3)
Ni1G Ni 0.71362(2) 0.77940(3) -0.19238(3)
Ni1N Ni 0.44606(3) 0.39911(2) 0.52572(3)
Ni1J Ni 0.61971(2) 0.88727(3) -0.14095(3)
Ni1M Ni 0.95304(2) 0.55394(3) 0.52572(3)
Ni1K Ni 1.11273(3) 0.73244(2) -0.14095(3)
Ni1G_2 Ni 0.71362(2) 0.77940(3) 0.80762(3)
Ni1E_2 Ni 0.55394(3) 0.60089(2) -0.52572(3)
Cl1O Cl 0.82101(4) 0.71876(4) 0.25001(6)
Cl1E Cl 0.43558(6) 0.48767(4) 0.41665(6)
Cl1N Cl 0.56442(6) 0.51233(4) 0.58335(6)
Cl1G Cl 0.71876(4) 0.89776(6) -0.25001(6)
Cl1J Cl 0.61457(4) 0.76891(6) -0.08332(6)
O1E O 0.61432(18) 0.59067(13) 0.34675(15)
O1O O 0.92401(13) 0.64302(13) 0.31991(15)
O1K O 1.05235(18) 0.74266(13) -0.01342(15)
O1G O 0.64302(13) 0.71902(18) 0.68009(15)
O1G_2 O 0.64302(13) 0.71902(18) -0.31991(15)
O1N O 0.38568(18) 0.40933(13) 0.65325(15)
O1J O 0.69031(13) 0.94765(18) -0.01342(15)
N1E N 0.55106(21) 0.67625(16) 0.38043(19)
N1O N 1.00959(16) 0.79186(14) 0.28623(19)
N1K N 1.11561(21) 0.65708(16) -0.04710(19)
N1G N 0.79186(14) 0.78228(21) 0.71377(19)
N1G_2 N 0.79186(14) 0.78228(21) -0.28623(19)
N1N N 0.44894(21) 0.32375(16) 0.61957(19)
N1J N 0.54147(14) 0.88439(21) -0.04710(19)
O2E O 0.64640(20) 0.63798(13) 0.19168(16)
O2O O 0.97132(13) 0.65825(15) 0.47498(16)
O2K O 1.02027(20) 0.69535(13) 0.14165(16)
O2G O 0.65825(15) 0.68694(20) 0.52502(16)
O2G_2 O 0.65825(15) 0.68694(20) -0.47498(16)
O2P O 0.34175(15) 0.31306(20) 0.47498(16)
O2L O 0.63798(13) 0.99159(15) -0.19168(16)
O3E O 0.48877(19) 0.64186(14) 0.55520(17)
O3O O 0.97520(14) 0.81976(13) 0.11146(17)
O3K O 1.17790(19) 0.69147(14) -0.22187(17)
O3G O 0.81976(13) 0.84457(19) 0.88854(17)
O3G_2 O 0.81976(13) 0.84457(19) -0.11146(17)
O3N O 0.51123(19) 0.35814(14) 0.44480(17)
O3J O 0.51357(13) 0.82210(19) -0.22187(17)
C1E C 0.58670(26) 0.68758(19) 0.2935(2)
C1O C 1.02092(19) 0.76755(18) 0.3731(2)
C1K C 1.07997(26) 0.64575(19) 0.0398(2)
C1G C 0.76755(18) 0.74664(26) 0.6269(2)
C1G_2 C 0.76755(18) 0.74664(26) -0.3731(2)
C2E C 0.61871(23) 0.63392(16) 0.2755(2)
C2O C 0.96726(16) 0.68188(17) 0.3911(2)
C2K C 1.04796(23) 0.69941(16) 0.0578(2)
C2G C 0.68188(17) 0.71463(23) 0.6089(2)
C2G_2 C 0.68188(17) 0.71463(23) -0.3911(2)
C3E C 0.5241(3) 0.7215(2) 0.4119(3)
C3O C 1.0549(2) 0.8641(2) 0.2547(3)
C3K C 1.1426(3) 0.6118(2) -0.0786(3)
C3G C 0.8641(2) 0.8093(3) 0.7453(3)
C3G_2 C 0.8641(2) 0.8093(3) -0.2547(3)
C4E C 0.4920(3) 0.7020(2) 0.5170(3)
C4O C 1.0354(2) 0.8767(2) 0.1496(3)
C4K C 1.1747(3) 0.6313(2) -0.1837(3)
C4G C 0.8767(2) 0.8414(3) 0.8504(3)
C4G_2 C 0.8767(2) 0.8414(3) -0.1496(3)
C5E C 0.5951(4) 0.7471(3) 0.2308(3)
C5O C 1.0805(3) 0.8187(2) 0.4358(3)
C5K C 1.0716(4) 0.5862(3) 0.1025(3)
C5G C 0.8187(2) 0.7383(4) 0.5642(3)
C5G_2 C 0.8187(2) 0.7383(4) -0.4358(3)
H1E H 0.6190 0.7547 0.1692
H1O H 1.0881 0.8024 0.4974
H1K H 1.0477 0.5786 0.1641
H1G H 0.8024 0.7144 0.5026
H1G_2 H 0.8024 0.7144 -0.4974
O4E O 0.4746(3) 0.7459(2) 0.5600(2)
O4O O 1.0793(2) 0.9380(2) 0.1066(2)
O4K O 1.1921(3) 0.5874(2) -0.2267(2)
O4G O 0.9380(2) 0.8588(3) 0.8934(2)
O4G_2 O 0.9380(2) 0.8588(3) -0.1066(2)
C6E C 0.5315(4) 0.7827(3) 0.3543(3)
C6O C 1.1161(3) 0.9179(3) 0.3123(3)
C6K C 1.1352(4) 0.5506(3) -0.0210(3)
C6G C 0.9179(3) 0.8019(4) 0.6877(3)
C6G_2 C 0.9179(3) 0.8019(4) -0.3123(3)
H2E H 0.5131 0.8152 0.3766
H2O H 1.1486 0.9688 0.2900
H2K H 1.1536 0.5181 -0.0433
H2G H 0.9688 0.8203 0.7100
H2G_2 H 0.9688 0.8203 -0.2900
C7E C 0.5669(5) 0.7944(4) 0.2629(4)
C7O C 1.1278(4) 0.8942(3) 0.4037(4)
C7K C 1.0998(5) 0.5389(4) 0.0704(4)
C7G C 0.8942(3) 0.7665(5) 0.5963(4)
C7G_2 C 0.8942(3) 0.7665(5) -0.4037(4)
H3E H 0.5717 0.8348 0.2225
H3O H 1.1682 0.9298 0.4441
H3K H 1.0950 0.4985 0.1108
H3G H 0.9298 0.7617 0.5559
H3G_2 H 0.9298 0.7617 -0.4441
Na1 Na 0.47693(9) 0.85541(8) 0.61335(11)
O5 O 0.3333 0.6667 0.6667
H4? H 0.2907 0.6428 0.6989
H5? H 0.3688 0.7132 0.6535
O6? O 0.3333 0.6667 0.217(3)
H6? H 0.3333 0.6667 0.2805
H7? H 0.3771 0.6703 0.2307
loop_
_geom_bond_atom_site_label_1
_geom_bond_atom_site_label_2
_geom_bond_site_symmetry_1
_geom_bond_site_symmetry_2
Ni1 Cl1 1_555 1_555
Cl1 Ni1O 1_555 1_555
O1 Ni1 1_555 1_555
N1 Ni1 1_555 1_555
O2 C2 1_555 1_555
O3 Ni1 1_555 1_555
C1 N1 1_555 1_555
C2 O1 1_555 1_555
C3 N1 1_555 1_555
C4 O3 1_555 1_555
C5 C1 1_555 1_555
H1 C5 1_555 1_555
O4 C4 1_555 1_555
C6 C3 1_555 1_555
H2 C6 1_555 1_555
C7 C5 1_555 1_555
H3 C7 1_555 1_555
Ni1O Cl1O 1_555 1_555
Ni1E Cl1E 1_555 1_555
Ni1G O2 1_555 1_555
Ni1N Cl1E 1_555 1_555
Ni1J Cl1G 1_555 1_555
Ni1M O2O 1_555 1_555
Ni1K O1K 1_555 1_555
Ni1G_2 O1G 1_555 1_555
Ni1E_2 O2G_2 1_555 1_555
Cl1O Ni1 1_555 1_555
Cl1N Ni1E 1_555 1_555
Cl1G Ni1G 1_555 1_555
Cl1J Ni1G 1_555 1_555
O1E Ni1E 1_555 1_555
O1O Ni1O 1_555 1_555
O1K C2K 1_555 1_555
O1G C2G 1_555 1_555
O1G_2 Ni1G 1_555 1_555
O1N Ni1N 1_555 1_555
O1J Ni1J 1_555 1_555
N1E Ni1E 1_555 1_555
N1O Ni1O 1_555 1_555
N1K Ni1K 1_555 1_555
N1G Ni1G_2 1_555 1_555
N1G_2 Ni1G 1_555 1_555
N1N Ni1N 1_555 1_555
N1J Ni1J 1_555 1_555
O2E Ni1 1_555 1_555
O2O C2O 1_555 1_555
O2K Ni1O 1_555 1_555
O2G Ni1E 1_555 1_555
O2G_2 C2G_2 1_555 1_555
O2P Ni1N 1_555 1_555
O2L Ni1J 1_555 1_555
O3E Ni1E 1_555 1_555
O3O Ni1O 1_555 1_555
O3K Ni1K 1_555 1_555
O3G Ni1G_2 1_555 1_555
O3G_2 Ni1G 1_555 1_555
O3N Ni1N 1_555 1_555
O3J Ni1J 1_555 1_555
C1E N1E 1_555 1_555
C1O N1O 1_555 1_555
C1K N1K 1_555 1_555
C1G N1G 1_555 1_555
C1G_2 N1G_2 1_555 1_555
C2E O1E 1_555 1_555
C2O O1O 1_555 1_555
C2K O2K 1_555 1_555
C2G O2G 1_555 1_555
C2G_2 O1G_2 1_555 1_555
C3E N1E 1_555 1_555
C3O N1O 1_555 1_555
C3K N1K 1_555 1_555
C3G N1G 1_555 1_555
C3G_2 N1G_2 1_555 1_555
C4E O3E 1_555 1_555
C4O O3O 1_555 1_555
C4K O3K 1_555 1_555
C4G O3G 1_555 1_555
C4G_2 O3G_2 1_555 1_555
C5E C1E 1_555 1_555
C5O C1O 1_555 1_555
C5K C1K 1_555 1_555
C5G C1G 1_555 1_555
C5G_2 C1G_2 1_555 1_555
H1E C5E 1_555 1_555
H1O C5O 1_555 1_555
H1K C5K 1_555 1_555
H1G C5G 1_555 1_555
H1G_2 C5G_2 1_555 1_555
O4E C4E 1_555 1_555
O4O C4O 1_555 1_555
O4K C4K 1_555 1_555
O4G C4G 1_555 1_555
O4G_2 C4G_2 1_555 1_555
C6E C3E 1_555 1_555
C6O C3O 1_555 1_555
C6K C3K 1_555 1_555
C6G C3G 1_555 1_555
C6G_2 C3G_2 1_555 1_555
H2E C6E 1_555 1_555
H2O C6O 1_555 1_555
H2K C6K 1_555 1_555
H2G C6G 1_555 1_555
H2G_2 C6G_2 1_555 1_555
C7E C5E 1_555 1_555
C7O C5O 1_555 1_555
C7K C5K 1_555 1_555
C7G C5G 1_555 1_555
C7G_2 C5G_2 1_555 1_555
H3E C7E 1_555 1_555
H3O C7O 1_555 1_555
H3K C7K 1_555 1_555
H3G C7G 1_555 1_555
H3G_2 C7G_2 1_555 1_555
C1 C2 1_555 1_555
C3 C4 1_555 1_555
C6 C7 1_555 1_555
Ni1N Cl1N 1_555 1_555
Ni1J Cl1J 1_555 1_555
O2E C2E 1_555 1_555
C1E C2E 1_555 1_555
C1O C2O 1_555 1_555
C1K C2K 1_555 1_555
C1G C2G 1_555 1_555
C1G_2 C2G_2 1_555 1_555
C3E C4E 1_555 1_555
C3O C4O 1_555 1_555
C3K C4K 1_555 1_555
C3G C4G 1_555 1_555
C3G_2 C4G_2 1_555 1_555
C6E C7E 1_555 1_555
C6O C7O 1_555 1_555
C6K C7K 1_555 1_555
C6G C7G 1_555 1_555
C6G_2 C7G_2 1_555 1_555

#END
