
#######################################################################
#
#                 Cambridge Crystallographic Data Centre
#                                CCDC 
#
#######################################################################
#
# If this CIF has been generated from an entry in the Cambridge 
# Structural Database, then it will include bibliographic, chemical, 
# crystal, experimental, refinement or atomic coordinate data resulting 
# from the CCDC's data processing and validation procedures.
#
#######################################################################

data_CIBYIX
_symmetry_cell_setting           triclinic
_symmetry_space_group_name_H-M   'P -1'
_symmetry_Int_Tables_number      2
_space_group_name_Hall           '-P 1'
loop_
_symmetry_equiv_pos_site_id
_symmetry_equiv_pos_as_xyz
1 x,y,z
2 -x,-y,-z
_cell_length_a                   7.6087(7)
_cell_length_b                   8.2197(9)
_cell_length_c                   10.8531(10)
_cell_angle_alpha                91.839(3)
_cell_angle_beta                 102.255(3)
_cell_angle_gamma                92.915(3)
_cell_volume                     661.801
loop_
_atom_site_label
_atom_site_type_symbol
_atom_site_fract_x
_atom_site_fract_y
_atom_site_fract_z
Ca1 Ca 0.23444(16) 0.36178(16) 0.83661(11)
O1 O 0.1694(6) 0.6277(5) 0.9076(4)
O2 O 0.2632(7) 0.8879(6) 0.9404(4)
H1 H 0.3057 0.9601 0.9030
N1 N 0.3408(7) 0.5683(6) 0.3499(4)
N2 N 0.2123(7) 0.3797(7) 0.4511(4)
N3 N 0.3577(6) 0.8041(6) 0.5664(4)
O3 O 0.1113(7) 0.0563(7) 0.3731(4)
O4 O 0.1693(7) 0.0895(6) 0.1846(4)
H2 H 0.2025 0.1644 0.1453
C1 C 0.2368(8) 0.7532(8) 0.8708(5)
C2 C 0.2816(7) 0.5311(8) 0.4570(5)
C3 C 0.2817(8) 0.7507(8) 0.7452(5)
N4 N 0.2505(6) 0.6085(7) 0.6720(4)
C4 C 0.3034(7) 0.4316(8) 0.2707(5)
C5 C 0.3501(7) 0.8747(7) 0.6813(5)
C6 C 0.1635(9) 0.1442(8) 0.2995(6)
C7 C 0.2237(7) 0.3172(7) 0.3340(5)
C8 C 0.2968(7) 0.6450(7) 0.5650(5)
O5 O 0.3722(6) 1.1053(6) 0.8170(4)
O6 O 0.4860(6) 1.1240(6) 0.6435(4)
C9 C 0.4079(8) 1.0472(7) 0.7146(5)
O7 O 0.2940(6) 0.3167(6) 0.0670(4)
C10 C 0.3594(7) 0.4337(8) 0.1466(5)
O8 O 0.4647(5) 0.5467(6) 0.1318(4)
O9 O 0.0654(6) 0.2536(6) 0.6408(4)
H3 H 0.0270 0.1519 0.6292
H4 H 0.1069 0.2875 0.5761
O10 O -0.0445(6) 0.2575(7) 0.8771(4)
H5 H -0.0899 0.1651 0.8557
H6 H -0.1034 0.2986 0.9468
H7 H 0.411(9) 0.856(9) 0.499(6)
H8 H 0.399(9) 0.666(9) 0.338(6)
Ca1_2 Ca 0.23444(16) 0.36178(16) -0.16339(11)
Ca1_3 Ca 0.23444(16) 1.36178(16) 0.83661(11)
Ca1A Ca 0.76556(16) 0.63822(16) 0.16339(11)
O5_2 O 0.3722(6) 0.1053(6) 0.8170(4)
O7_2 O 0.2940(6) 0.3167(6) 1.0670(4)
O8A O 0.5353(5) 0.4533(6) 0.8682(4)
loop_
_geom_bond_atom_site_label_1
_geom_bond_atom_site_label_2
_geom_bond_site_symmetry_1
_geom_bond_site_symmetry_2
Ca1 O1 1_555 1_555
O1 C1 1_555 1_555
O2 H1 1_555 1_555
N1 C2 1_555 1_555
N2 C2 1_555 1_555
N3 C5 1_555 1_555
O3 C6 1_555 1_555
O4 H2 1_555 1_555
C1 O2 1_555 1_555
C2 C8 1_555 1_555
C3 C1 1_555 1_555
N4 Ca1 1_555 1_555
C4 N1 1_555 1_555
C5 C3 1_555 1_555
C6 O4 1_555 1_555
C7 N2 1_555 1_555
C8 N3 1_555 1_555
O5 C9 1_555 1_555
O6 C9 1_555 1_555
C9 C5 1_555 1_555
O7 C10 1_555 1_555
C10 C4 1_555 1_555
O8 C10 1_555 1_555
O9 Ca1 1_555 1_555
H3 O9 1_555 1_555
H4 O9 1_555 1_555
O10 Ca1 1_555 1_555
H5 O10 1_555 1_555
H6 O10 1_555 1_555
H7 N3 1_555 1_555
H8 N1 1_555 1_555
Ca1_2 O7 1_555 1_555
Ca1_3 O5 1_555 1_555
Ca1A O8 1_555 1_555
O5_2 Ca1 1_555 1_555
O7_2 Ca1 1_555 1_555
O8A Ca1 1_555 1_555
C3 N4 1_555 1_555
N4 C8 1_555 1_555
C4 C7 1_555 1_555
C6 C7 1_555 1_555

#END
