
#######################################################################
#
#                 Cambridge Crystallographic Data Centre
#                                CCDC 
#
#######################################################################
#
# If this CIF has been generated from an entry in the Cambridge 
# Structural Database, then it will include bibliographic, chemical, 
# crystal, experimental, refinement or atomic coordinate data resulting 
# from the CCDC's data processing and validation procedures.
#
#######################################################################

data_CIBYAO
_symmetry_cell_setting           monoclinic
_symmetry_space_group_name_H-M   'C 2/c'
_symmetry_Int_Tables_number      15
_space_group_name_Hall           '-C 2yn'
loop_
_symmetry_equiv_pos_site_id
_symmetry_equiv_pos_as_xyz
1 x,y,z
2 1/2+x,1/2+y,z
3 -x,y,1/2-z
4 1/2-x,1/2+y,1/2-z
5 -x,-y,-z
6 1/2-x,1/2-y,-z
7 x,-y,1/2+z
8 1/2+x,1/2-y,1/2+z
_cell_length_a                   27.312(5)
_cell_length_b                   8.0939(15)
_cell_length_c                   14.201(3)
_cell_angle_alpha                90
_cell_angle_beta                 96.70(2)
_cell_angle_gamma                90
_cell_volume                     3117.84
loop_
_atom_site_label
_atom_site_type_symbol
_atom_site_fract_x
_atom_site_fract_y
_atom_site_fract_z
C1 C 0.41870(16) 0.1543(6) 0.4700(3)
H1 H 0.4523 0.1566 0.4647
C2 C 0.38680(16) 0.2192(6) 0.3974(3)
H2 H 0.3988 0.2621 0.3439
C3 C 0.33650(15) 0.2204(5) 0.4045(3)
C4 C 0.32098(16) 0.1527(6) 0.4855(3)
H3 H 0.2876 0.1521 0.4933
C5 C 0.35501(16) 0.0862(6) 0.5547(3)
H4 H 0.3438 0.0386 0.6077
C6 C 0.29878(16) 0.3019(5) 0.3335(3)
C7 C 0.28198(17) 0.4280(6) 0.1767(3)
H5 H 0.3001 0.5258 0.1616
H6 H 0.2527 0.4642 0.2035
C8 C 0.26643(16) 0.3336(5) 0.0862(3)
C9 C 0.22596(17) 0.2304(6) 0.0773(3)
C10 C 0.29007(16) 0.3499(6) 0.0058(3)
C11 C 0.44131(18) -0.3100(6) 0.6536(3)
C12 C 0.44326(16) -0.4946(6) 0.6446(3)
H7 H 0.4659 -0.5388 0.6950
H8 H 0.4540 -0.5231 0.5847
H9 H 0.4110 -0.5398 0.6482
C13 C 0.44824(17) 0.1693(5) 0.8385(3)
C14 C 0.41893(16) 0.2850(5) 0.8910(3)
H10 H 0.4045 0.2256 0.9393
H11 H 0.3933 0.3339 0.8478
H12 H 0.4401 0.3702 0.9198
F1 F 0.33024(10) 0.4477(4) 0.0085(2)
F2 F 0.20092(11) 0.2081(4) 0.15285(18)
N1 N 0.40348(12) 0.0877(4) 0.5483(2)
N2 N 0.31262(13) 0.3313(5) 0.2474(2)
H13 H 0.3440 0.2989 0.2250
O1 O 0.47915(12) -0.2250(4) 0.6389(2)
O2 O 0.40343(12) -0.2418(4) 0.6734(2)
O3 O 0.42802(11) 0.1103(4) 0.7630(2)
O4 O 0.49117(12) 0.1392(4) 0.8738(2)
O5 O 0.25846(11) 0.3390(4) 0.3563(2)
Zn1 Zn 0.452840(19) 0.00062(7) 0.65635(3)
C1E C 0.08130(16) 0.3457(6) -0.4700(3)
H1E H 0.0477 0.3434 -0.4647
C2E C 0.11320(16) 0.2808(6) -0.3974(3)
H2E H 0.1012 0.2379 -0.3439
C3E C 0.16350(15) 0.2796(5) -0.4045(3)
C4E C 0.17902(16) 0.3473(6) -0.4855(3)
H3E H 0.2124 0.3479 -0.4933
C5E C 0.14499(16) 0.4138(6) -0.5547(3)
H4E H 0.1562 0.4614 -0.6077
C6E C 0.20122(16) 0.1981(5) -0.3335(3)
C7E C 0.21802(17) 0.0720(6) -0.1767(3)
H5E H 0.1999 -0.0258 -0.1616
H6E H 0.2473 0.0358 -0.2035
C8E C 0.23357(16) 0.1664(5) -0.0862(3)
C9E C 0.27404(17) 0.2696(6) -0.0773(3)
C10E C 0.20993(16) 0.1501(6) -0.0058(3)
C11E C 0.05869(18) 0.8100(6) -0.6536(3)
C12E C 0.05674(16) 0.9946(6) -0.6446(3)
H7E H 0.0341 1.0388 -0.6950
H8E H 0.0460 1.0231 -0.5847
H9E H 0.0890 1.0398 -0.6482
C13B C 0.55176(17) 0.1693(5) 0.6615(3)
C14B C 0.58107(16) 0.2850(5) 0.6090(3)
H10B H 0.5955 0.2256 0.5607
H11B H 0.6067 0.3339 0.6522
H12B H 0.5599 0.3702 0.5802
F1E F 0.16976(10) 0.0523(4) -0.0085(2)
F2E F 0.29908(11) 0.2919(4) -0.15285(18)
N1E N 0.09652(12) 0.4123(4) -0.5483(2)
N2E N 0.18738(13) 0.1687(5) -0.2474(2)
H13E H 0.1560 0.2011 -0.2250
O1E O 0.02085(12) 0.7250(4) -0.6389(2)
O2E O 0.09657(12) 0.7418(4) -0.6734(2)
O3B O 0.57198(11) 0.1103(4) 0.7370(2)
O3E O 0.07198(11) 0.3897(4) -0.7630(2)
O4B O 0.50883(12) 0.1392(4) 0.6262(2)
O4G O -0.00883(12) 0.3608(4) -0.6262(2)
O5E O 0.24154(11) 0.1610(4) -0.3563(2)
Zn1E Zn 0.047160(19) 0.49938(7) -0.65635(3)
Zn1B Zn 0.547160(19) 0.00062(7) 0.84365(3)
loop_
_geom_bond_atom_site_label_1
_geom_bond_atom_site_label_2
_geom_bond_site_symmetry_1
_geom_bond_site_symmetry_2
C1 H1 1_555 1_555
C2 C1 1_555 1_555
H2 C2 1_555 1_555
C3 C2 1_555 1_555
C4 C3 1_555 1_555
H3 C4 1_555 1_555
C5 C4 1_555 1_555
H4 C5 1_555 1_555
C6 C3 1_555 1_555
C7 H5 1_555 1_555
H6 C7 1_555 1_555
C8 C7 1_555 1_555
C9 C8 1_555 1_555
C10 C8 1_555 1_555
C11 C12 1_555 1_555
C12 H7 1_555 1_555
H8 C12 1_555 1_555
H9 C12 1_555 1_555
C13 C14 1_555 1_555
C14 H10 1_555 1_555
H11 C14 1_555 1_555
H12 C14 1_555 1_555
F1 C10 1_555 1_555
F2 C9 1_555 1_555
N1 C1 1_555 1_555
N2 C6 1_555 1_555
H13 N2 1_555 1_555
O1 C11 1_555 1_555
O2 C11 1_555 1_555
O3 C13 1_555 1_555
O4 C13 1_555 1_555
O5 C6 1_555 1_555
Zn1 N1 1_555 1_555
C1E H1E 1_555 1_555
C2E C1E 1_555 1_555
H2E C2E 1_555 1_555
C3E C2E 1_555 1_555
C4E C3E 1_555 1_555
H3E C4E 1_555 1_555
C5E C4E 1_555 1_555
H4E C5E 1_555 1_555
C6E C3E 1_555 1_555
C7E H5E 1_555 1_555
H6E C7E 1_555 1_555
C8E C7E 1_555 1_555
C9E C10 1_555 1_555
C10E C9 1_555 1_555
C11E C12E 1_555 1_555
C12E H7E 1_555 1_555
H8E C12E 1_555 1_555
H9E C12E 1_555 1_555
C13B C14B 1_555 1_555
C14B H10B 1_555 1_555
H11B C14B 1_555 1_555
H12B C14B 1_555 1_555
F1E C10E 1_555 1_555
F2E C9E 1_555 1_555
N1E C1E 1_555 1_555
N2E C6E 1_555 1_555
H13E N2E 1_555 1_555
O1E C11E 1_555 1_555
O2E C11E 1_555 1_555
O3B C13B 1_555 1_555
O3E Zn1E 1_555 1_555
O4B Zn1 1_555 1_555
O4G Zn1E 1_555 1_555
O5E C6E 1_555 1_555
Zn1E N1E 1_555 1_555
Zn1B O4 1_555 1_555
C5 N1 1_555 1_555
C7 N2 1_555 1_555
O1 Zn1 1_555 1_555
O2 Zn1 1_555 1_555
O3 Zn1 1_555 1_555
C5E N1E 1_555 1_555
C7E N2E 1_555 1_555
C8E C9E 1_555 1_555
C8E C10E 1_555 1_555
C13B O4B 1_555 1_555
O1E Zn1E 1_555 1_555
O2E Zn1E 1_555 1_555
O3B Zn1B 1_555 1_555

#END
