
#######################################################################
#
#                 Cambridge Crystallographic Data Centre
#                                CCDC 
#
#######################################################################
#
# If this CIF has been generated from an entry in the Cambridge 
# Structural Database, then it will include bibliographic, chemical, 
# crystal, experimental, refinement or atomic coordinate data resulting 
# from the CCDC's data processing and validation procedures.
#
#######################################################################

data_CIBZIY
_symmetry_cell_setting           triclinic
_symmetry_space_group_name_H-M   'P -1'
_symmetry_Int_Tables_number      2
_space_group_name_Hall           '-P 1'
loop_
_symmetry_equiv_pos_site_id
_symmetry_equiv_pos_as_xyz
1 x,y,z
2 -x,-y,-z
_cell_length_a                   9.8854(3)
_cell_length_b                   11.5996(5)
_cell_length_c                   13.9493(6)
_cell_angle_alpha                99.922(2)
_cell_angle_beta                 109.989(1)
_cell_angle_gamma                101.495(2)
_cell_volume                     1421.92
loop_
_atom_site_label
_atom_site_type_symbol
_atom_site_fract_x
_atom_site_fract_y
_atom_site_fract_z
Sn1 Sn 0.33364(3) 0.05602(3) 0.71722(3)
Sn2 Sn 0.83933(3) -0.04704(3) 0.78299(3)
F1 F 0.4814(4) 0.3520(4) 0.3923(3)
F2 F 1.2055(6) -0.5143(4) 0.7994(4)
O1 O 0.4727(3) 0.1831(3) 0.6752(3)
O2 O 0.6615(4) 0.1036(3) 0.7327(3)
O3 O 0.9640(3) -0.1719(3) 0.8267(3)
O4 O 1.1336(4) -0.0941(3) 0.7683(3)
C1 C 0.6070(5) 0.1766(4) 0.6899(4)
C2 C 0.6948(5) 0.2652(4) 0.6508(4)
C3 C 0.8547(5) 0.2654(5) 0.6772(4)
C4 C 0.6262(5) 0.3322(4) 0.5942(4)
C5 C 0.6927(6) 0.4223(4) 0.5494(4)
C6 C 0.6183(7) 0.4298(5) 0.4478(5)
C7 C 0.6735(9) 0.5089(7) 0.3993(6)
C8 C 0.8117(11) 0.5882(6) 0.4562(7)
C9 C 0.8908(9) 0.5879(6) 0.5579(7)
C10 C 0.8348(7) 0.5075(5) 0.6061(5)
C11 C 0.1526(6) 0.1291(5) 0.6578(5)
C12 C 0.4517(6) 0.1101(5) 0.8825(4)
C13 C 0.3191(7) -0.1048(5) 0.6132(4)
C14 C 1.0873(5) -0.1657(4) 0.8122(4)
C15 C 1.1697(5) -0.2546(4) 0.8511(4)
C16 C 1.3102(5) -0.2505(5) 0.8312(5)
C17 C 1.1200(5) -0.3269(4) 0.9031(4)
C18 C 1.1876(5) -0.4159(4) 0.9504(4)
C19 C 1.2324(7) -0.5028(5) 0.9007(5)
C20 C 1.2978(8) -0.5852(6) 0.9422(7)
C21 C 1.3159(9) -0.5811(7) 1.0443(8)
C22 C 1.2707(8) -0.4980(8) 1.0999(6)
C23 C 1.2011(8) -0.4129(7) 1.0574(5)
C24 C 0.6804(6) -0.1217(6) 0.8417(5)
C25 C 1.0016(6) 0.1138(5) 0.8885(4)
C26 C 0.7753(6) -0.0972(5) 0.6181(4)
H1 H 0.89218 0.30403 0.63218
H2 H 0.86125 0.18302 0.66667
H3 H 0.91345 0.30930 0.74964
H4 H 0.52522 0.32104 0.58146
H5 H 0.61879 0.50855 0.33016
H6 H 0.85285 0.64316 0.42557
H7 H 0.98477 0.64349 0.59547
H8 H 0.89013 0.50930 0.67557
H9 H 0.11377 0.10650 0.58195
H10 H 0.18631 0.21628 0.68332
H11 H 0.07517 0.09771 0.68097
H12 H 0.38721 0.07887 0.91583
H13 H 0.48446 0.19744 0.90625
H14 H 0.53724 0.07856 0.90082
H15 H 0.39058 -0.14356 0.64976
H16 H 0.34019 -0.08523 0.55467
H17 H 0.21990 -0.15895 0.58752
H18 H 1.36978 -0.29126 0.87584
H19 H 1.36616 -0.16713 0.84638
H20 H 1.28439 -0.29035 0.75847
H21 H 1.03155 -0.32041 0.91043
H22 H 1.32828 -0.64076 0.90353
H23 H 1.35971 -0.63557 1.07671
H24 H 1.28673 -0.49778 1.16967
H25 H 1.16693 -0.35948 1.09490
H26 H 0.58208 -0.12275 0.79578
H27 H 0.70402 -0.07279 0.91131
H28 H 0.68293 -0.20332 0.84462
H29 H 1.09978 0.10235 0.90511
H30 H 0.98373 0.13173 0.95220
H31 H 0.99491 0.18021 0.85620
H32 H 0.68553 -0.07499 0.58453
H33 H 0.75716 -0.18366 0.59412
H34 H 0.85402 -0.05581 0.60027
Sn1_2 Sn 1.33364(3) 0.05602(3) 0.71722(3)
O4_2 O 0.1336(4) -0.0941(3) 0.7683(3)
loop_
_geom_bond_atom_site_label_1
_geom_bond_atom_site_label_2
_geom_bond_site_symmetry_1
_geom_bond_site_symmetry_2
Sn1 O1 1_555 1_555
Sn2 O2 1_555 1_555
F1 C6 1_555 1_555
F2 C19 1_555 1_555
O1 C1 1_555 1_555
O2 C1 1_555 1_555
O3 Sn2 1_555 1_555
O4 C14 1_555 1_555
C1 C2 1_555 1_555
C2 C3 1_555 1_555
C3 H1 1_555 1_555
C4 C2 1_555 1_555
C5 C4 1_555 1_555
C6 C5 1_555 1_555
C7 C6 1_555 1_555
C8 C7 1_555 1_555
C9 C8 1_555 1_555
C10 C5 1_555 1_555
C11 Sn1 1_555 1_555
C12 Sn1 1_555 1_555
C13 Sn1 1_555 1_555
C14 O3 1_555 1_555
C15 C14 1_555 1_555
C16 C15 1_555 1_555
C17 C15 1_555 1_555
C18 C17 1_555 1_555
C19 C18 1_555 1_555
C20 C19 1_555 1_555
C21 C20 1_555 1_555
C22 C21 1_555 1_555
C23 C18 1_555 1_555
C24 Sn2 1_555 1_555
C25 Sn2 1_555 1_555
C26 Sn2 1_555 1_555
H2 C3 1_555 1_555
H3 C3 1_555 1_555
H4 C4 1_555 1_555
H5 C7 1_555 1_555
H6 C8 1_555 1_555
H7 C9 1_555 1_555
H8 C10 1_555 1_555
H9 C11 1_555 1_555
H10 C11 1_555 1_555
H11 C11 1_555 1_555
H12 C12 1_555 1_555
H13 C12 1_555 1_555
H14 C12 1_555 1_555
H15 C13 1_555 1_555
H16 C13 1_555 1_555
H17 C13 1_555 1_555
H18 C16 1_555 1_555
H19 C16 1_555 1_555
H20 C16 1_555 1_555
H21 C17 1_555 1_555
H22 C20 1_555 1_555
H23 C21 1_555 1_555
H24 C22 1_555 1_555
H25 C23 1_555 1_555
H26 C24 1_555 1_555
H27 C24 1_555 1_555
H28 C24 1_555 1_555
H29 C25 1_555 1_555
H30 C25 1_555 1_555
H31 C25 1_555 1_555
H32 C26 1_555 1_555
H33 C26 1_555 1_555
H34 C26 1_555 1_555
Sn1_2 O4 1_555 1_555
O4_2 Sn1 1_555 1_555
C9 C10 1_555 1_555
C22 C23 1_555 1_555

#END
