
#######################################################################
#
#                 Cambridge Crystallographic Data Centre
#                                CCDC 
#
#######################################################################
#
# If this CIF has been generated from an entry in the Cambridge 
# Structural Database, then it will include bibliographic, chemical, 
# crystal, experimental, refinement or atomic coordinate data resulting 
# from the CCDC's data processing and validation procedures.
#
#######################################################################

data_CICCUO
_symmetry_cell_setting           monoclinic
_symmetry_space_group_name_H-M   'P 21/c'
_symmetry_Int_Tables_number      14
_space_group_name_Hall           '-P 2ybc'
loop_
_symmetry_equiv_pos_site_id
_symmetry_equiv_pos_as_xyz
1 x,y,z
2 -x,1/2+y,1/2-z
3 -x,-y,-z
4 x,1/2-y,1/2+z
_cell_length_a                   26.469(11)
_cell_length_b                   9.561(4)
_cell_length_c                   8.490(4)
_cell_angle_alpha                90
_cell_angle_beta                 95.351(8)
_cell_angle_gamma                90
_cell_volume                     2139.2
loop_
_atom_site_label
_atom_site_type_symbol
_atom_site_fract_x
_atom_site_fract_y
_atom_site_fract_z
I1 I 0.256416(15) -0.25775(5) 0.32597(5)
I2 I 0.396577(16) -0.11229(5) 0.53352(5)
Ag1 Ag 0.286980(19) -0.04245(6) 0.54562(6)
Ag2 Ag 0.35881(2) -0.34732(6) 0.33099(6)
Fe1 Fe 0.09023(3) -0.01541(10) 0.71226(11)
N1 N 0.23163(19) 0.2242(5) 0.6821(6)
N2 N 0.29229(19) 0.2914(6) 0.5538(6)
N3 N 0.3986(2) 0.4778(6) 0.5089(6)
C1 C 0.0740(3) -0.0354(7) 0.9415(8)
H1 H 0.0716 0.0393 1.0142
C2 C 0.0338(3) -0.0911(8) 0.8370(9)
H2 H -0.0005 -0.0604 0.8297
C3 C 0.0528(2) -0.1990(7) 0.7462(8)
H3 H 0.0341 -0.2529 0.6669
C4 C 0.1059(3) -0.2121(8) 0.7961(8)
H4 H 0.1286 -0.2767 0.7548
C5 C 0.1188(3) -0.1141(7) 0.9159(8)
H5 H 0.1515 -0.1017 0.9706
C6 C 0.1346(2) 0.0164(7) 0.5336(7)
H6 H 0.1585 -0.0476 0.4981
C7 C 0.0828(2) 0.0269(7) 0.4743(8)
H7 H 0.0659 -0.0278 0.3922
C8 C 0.0611(2) 0.1350(6) 0.5612(7)
H8 H 0.0266 0.1636 0.5479
C9 C 0.0997(2) 0.1945(7) 0.6726(7)
H9 H 0.0958 0.2697 0.7434
C10 C 0.1446(2) 0.1177(7) 0.6549(7)
C11 C 0.1943(2) 0.1353(7) 0.7579(8)
H10 H 0.1873 0.1782 0.8598
H11 H 0.2094 0.0420 0.7810
C12 C 0.2325(2) 0.3680(7) 0.6939(7)
H12 H 0.2103 0.4250 0.7480
C13 C 0.2715(3) 0.4117(7) 0.6121(7)
H13 H 0.2823 0.5052 0.5980
C14 C 0.2680(2) 0.1734(7) 0.5945(8)
C15 C 0.3353(2) 0.2973(7) 0.4555(8)
H14 H 0.3265 0.3600 0.3642
H15 H 0.3414 0.2027 0.4138
C16 C 0.3831(2) 0.3496(7) 0.5481(7)
C17 C 0.4099(2) 0.2681(7) 0.6629(7)
H16 H 0.3979 0.1772 0.6850
C18 C 0.4537(2) 0.3173(7) 0.7450(9)
H17 H 0.4713 0.2640 0.8272
C19 C 0.4709(3) 0.4470(8) 0.7032(8)
H18 H 0.5018 0.4832 0.7530
C20 C 0.4426(3) 0.5244(8) 0.5874(9)
H19 H 0.4547 0.6143 0.5617
I1C I 0.256416(15) -0.24225(5) 0.82597(5)
I2C I 0.396577(16) -0.38771(5) 0.03352(5)
Ag1C Ag 0.286980(19) -0.45755(6) 0.04562(6)
Ag2_2 Ag 0.35881(2) 0.65268(6) 0.33099(6)
Ag2C Ag 0.35881(2) -0.15268(6) 0.83099(6)
N3_2 N 0.3986(2) -0.5222(6) 0.5089(6)
loop_
_geom_bond_atom_site_label_1
_geom_bond_atom_site_label_2
_geom_bond_site_symmetry_1
_geom_bond_site_symmetry_2
I1 Ag1 1_555 1_555
I2 Ag1 1_555 1_555
Ag1 C14 1_555 1_555
Ag2 I1 1_555 1_555
Fe1 C1 1_555 1_555
N1 C11 1_555 1_555
N2 C13 1_555 1_555
N3 C16 1_555 1_555
C1 H1 1_555 1_555
C2 Fe1 1_555 1_555
H2 C2 1_555 1_555
C3 Fe1 1_555 1_555
H3 C3 1_555 1_555
C4 Fe1 1_555 1_555
H4 C4 1_555 1_555
C5 Fe1 1_555 1_555
H5 C5 1_555 1_555
C6 Fe1 1_555 1_555
H6 C6 1_555 1_555
C7 Fe1 1_555 1_555
H7 C7 1_555 1_555
C8 Fe1 1_555 1_555
H8 C8 1_555 1_555
C9 Fe1 1_555 1_555
H9 C9 1_555 1_555
C10 Fe1 1_555 1_555
C11 C10 1_555 1_555
H10 C11 1_555 1_555
H11 C11 1_555 1_555
C12 N1 1_555 1_555
H12 C12 1_555 1_555
C13 C12 1_555 1_555
H13 C13 1_555 1_555
C14 N1 1_555 1_555
C15 N2 1_555 1_555
H14 C15 1_555 1_555
H15 C15 1_555 1_555
C16 C15 1_555 1_555
C17 C16 1_555 1_555
H16 C17 1_555 1_555
C18 C17 1_555 1_555
H17 C18 1_555 1_555
C19 C18 1_555 1_555
H18 C19 1_555 1_555
C20 N3 1_555 1_555
H19 C20 1_555 1_555
I1C Ag1 1_555 1_555
I2C Ag2 1_555 1_555
Ag1C I1 1_555 1_555
Ag2_2 N3 1_555 1_555
Ag2C I2 1_555 1_555
N3_2 Ag2 1_555 1_555
I2 Ag2 1_555 1_555
N2 C14 1_555 1_555
C1 C2 1_555 1_555
C1 C5 1_555 1_555
C2 C3 1_555 1_555
C3 C4 1_555 1_555
C4 C5 1_555 1_555
C6 C7 1_555 1_555
C6 C10 1_555 1_555
C7 C8 1_555 1_555
C8 C9 1_555 1_555
C9 C10 1_555 1_555
C19 C20 1_555 1_555
I1C Ag2C 1_555 1_555
I2C Ag1C 1_555 1_555

#END
