
#######################################################################
#
#                 Cambridge Crystallographic Data Centre
#                                CCDC 
#
#######################################################################
#
# If this CIF has been generated from an entry in the Cambridge 
# Structural Database, then it will include bibliographic, chemical, 
# crystal, experimental, refinement or atomic coordinate data resulting 
# from the CCDC's data processing and validation procedures.
#
#######################################################################

data_CICLIL
_symmetry_cell_setting           triclinic
_symmetry_space_group_name_H-M   'P -1'
_symmetry_Int_Tables_number      2
_space_group_name_Hall           '-P 1'
loop_
_symmetry_equiv_pos_site_id
_symmetry_equiv_pos_as_xyz
1 x,y,z
2 -x,-y,-z
_cell_length_a                   10.975(2)
_cell_length_b                   11.641(2)
_cell_length_c                   13.659(3)
_cell_angle_alpha                92.24(3)
_cell_angle_beta                 96.77(3)
_cell_angle_gamma                115.10(3)
_cell_volume                     1561.54
loop_
_atom_site_label
_atom_site_type_symbol
_atom_site_fract_x
_atom_site_fract_y
_atom_site_fract_z
Ni1 Ni 0.5000 0.5000 0.5000
Ni2 Ni -0.5000 0.0000 0.0000
O1 O 0.3324(4) 0.5011(3) 0.6597(3)
O2 O 0.4599(5) 0.8358(4) 0.4747(3)
O3 O -0.6184(4) -0.1195(3) 0.1791(3)
O4 O -0.5455(4) 0.2919(3) 0.1509(3)
N1 N 0.2653(8) 0.7645(6) 0.6651(6)
N2 N 0.3934(4) 0.5577(4) 0.5906(3)
N3 N 0.5194(4) 0.6680(4) 0.4451(3)
H1 H 0.555(5) 0.693(4) 0.391(2)
N4 N -0.6832(7) 0.0884(6) 0.3251(4)
N5 N -0.5764(4) -0.0199(4) 0.1326(3)
N6 N -0.4985(4) 0.1755(4) 0.0283(3)
H2 H -0.467(5) 0.238(3) -0.009(3)
N7 N -0.3009(4) 0.0721(4) 0.0773(3)
N8 N 0.3185(4) 0.3979(4) 0.4013(3)
C1 C 0.3228(7) 0.7216(6) 0.6219(5)
C2 C 0.3904(5) 0.6658(5) 0.5689(4)
C3 C 0.4632(6) 0.7251(5) 0.4895(4)
C4 C 0.5406(10) 0.9087(6) 0.4019(5)
H3 H 0.6368 0.9300 0.4232
H4 H 0.5292 0.9873 0.3962
H5 H 0.5100 0.8577 0.3375
C5 C -0.6394(7) 0.0881(6) 0.2552(5)
C6 C -0.5844(6) 0.0841(5) 0.1671(4)
C7 C -0.5376(5) 0.1894(5) 0.1091(4)
C8 C -0.4950(8) 0.4039(6) 0.0987(5)
H6 H -0.3988 0.4291 0.0936
H7 H -0.5042 0.4735 0.1348
H8 H -0.5473 0.3855 0.0321
C9 C -0.2688(4) 0.0177(4) 0.1536(3)
H9 H -0.3335 -0.0636 0.1664
C10 C -0.1441(4) 0.0749(4) 0.2157(3)
H10 H -0.1252 0.0327 0.2694
C11 C -0.0485(5) 0.1928(4) 0.1990(3)
C12 C -0.0809(5) 0.2461(5) 0.1181(4)
H11 H -0.0168 0.3260 0.1023
C13 C -0.2049(5) 0.1849(5) 0.0601(4)
H12 H -0.2241 0.2243 0.0046
C14 C 0.0794(5) 0.2609(4) 0.2688(3)
C15 C 0.1973(5) 0.3430(5) 0.2375(4)
H13 H 0.1994 0.3547 0.1692
C16 C 0.3118(5) 0.4078(5) 0.3050(3)
H14 H 0.3919 0.4638 0.2811
C17 C 0.2047(5) 0.3174(5) 0.4308(3)
H15 H 0.2061 0.3057 0.4993
C18 C 0.0846(5) 0.2497(5) 0.3680(3)
H16 H 0.0054 0.1953 0.3937
O3A O -0.3816(4) 0.1195(3) -0.1791(3)
O4A O -0.4545(4) -0.2919(3) -0.1509(3)
N4A N -0.3168(7) -0.0884(6) -0.3251(4)
N5A N -0.4236(4) 0.0199(4) -0.1326(3)
N6A N -0.5015(4) -0.1755(4) -0.0283(3)
H2A H -0.533(5) -0.238(3) 0.009(3)
N7A N -0.6991(4) -0.0721(4) -0.0773(3)
N8A N -1.3185(4) -0.3979(4) -0.4013(3)
C5A C -0.3606(7) -0.0881(6) -0.2552(5)
C6A C -0.4156(6) -0.0841(5) -0.1671(4)
C7A C -0.4624(5) -0.1894(5) -0.1091(4)
C8A C -0.5050(8) -0.4039(6) -0.0987(5)
H6A H -0.6012 -0.4291 -0.0936
H7A H -0.4958 -0.4735 -0.1348
H8A H -0.4527 -0.3855 -0.0321
C9A C -0.7312(4) -0.0177(4) -0.1536(3)
H9A H -0.6665 0.0636 -0.1664
C10A C -0.8559(4) -0.0749(4) -0.2157(3)
H10A H -0.8748 -0.0327 -0.2694
C11A C -0.9515(5) -0.1928(4) -0.1990(3)
C12A C -0.9191(5) -0.2461(5) -0.1181(4)
H11A H -0.9832 -0.3260 -0.1023
C13A C -0.7951(5) -0.1849(5) -0.0601(4)
H12A H -0.7759 -0.2243 -0.0046
C14A C -1.0794(5) -0.2609(4) -0.2688(3)
C15A C -1.1973(5) -0.3430(5) -0.2375(4)
H13A H -1.1994 -0.3547 -0.1692
C16A C -1.3118(5) -0.4078(5) -0.3050(3)
H14A H -1.3919 -0.4638 -0.2811
C17A C -1.2047(5) -0.3174(5) -0.4308(3)
H15A H -1.2061 -0.3057 -0.4993
C18A C -1.0846(5) -0.2497(5) -0.3680(3)
H16A H -1.0054 -0.1953 -0.3937
O1A O 0.6676(4) 0.4989(3) 0.3403(3)
O2A O 0.5401(5) 0.1642(4) 0.5253(3)
N1A N 0.7347(8) 0.2355(6) 0.3349(6)
N2A N 0.6066(4) 0.4423(4) 0.4094(3)
N3A N 0.4806(4) 0.3320(4) 0.5549(3)
H1A H 0.445(5) 0.307(4) 0.609(2)
C1A C 0.6772(7) 0.2784(6) 0.3781(5)
C2A C 0.6096(5) 0.3342(5) 0.4311(4)
C3A C 0.5368(6) 0.2749(5) 0.5105(4)
C4A C 0.4594(10) 0.0913(6) 0.5981(5)
H3A H 0.3632 0.0700 0.5768
H4A H 0.4708 0.0127 0.6038
H5A H 0.4900 0.1423 0.6625
Ni1_2 Ni -1.5000 -0.5000 -0.5000
N8A_2 N 0.6815(4) 0.6021(4) 0.5987(3)
O5 O -0.0535(10) 0.5605(7) 0.1397(5)
N9 N 0.0365(6) 0.6050(6) 0.2980(5)
C19 C -0.0628(11) 0.5471(8) 0.2262(7)
H17 H -0.1485 0.4906 0.2425
C20 C 0.1775(11) 0.6780(11) 0.2882(10)
H18 H 0.2305 0.6333 0.3146
H19 H 0.2118 0.7621 0.3253
H20 H 0.1860 0.6882 0.2181
C21 C 0.0186(11) 0.5844(14) 0.3977(9)
H21 H -0.0787 0.5397 0.4019
H22 H 0.0577 0.6666 0.4383
H23 H 0.0645 0.5326 0.4221
loop_
_geom_bond_atom_site_label_1
_geom_bond_atom_site_label_2
_geom_bond_site_symmetry_1
_geom_bond_site_symmetry_2
Ni1 N2 1_555 1_555
Ni2 N5 1_555 1_555
O1 N2 1_555 1_555
O2 C3 1_555 1_555
O3 N5 1_555 1_555
O4 C7 1_555 1_555
N1 C1 1_555 1_555
N2 C2 1_555 1_555
N3 Ni1 1_555 1_555
H1 N3 1_555 1_555
N4 C5 1_555 1_555
N5 C6 1_555 1_555
N6 Ni2 1_555 1_555
H2 N6 1_555 1_555
N7 Ni2 1_555 1_555
N8 Ni1 1_555 1_555
C1 C2 1_555 1_555
C2 C3 1_555 1_555
C3 N3 1_555 1_555
C4 O2 1_555 1_555
H3 C4 1_555 1_555
H4 C4 1_555 1_555
H5 C4 1_555 1_555
C5 C6 1_555 1_555
C6 C7 1_555 1_555
C7 N6 1_555 1_555
C8 O4 1_555 1_555
H6 C8 1_555 1_555
H7 C8 1_555 1_555
H8 C8 1_555 1_555
C9 N7 1_555 1_555
H9 C9 1_555 1_555
C10 C9 1_555 1_555
H10 C10 1_555 1_555
C11 C10 1_555 1_555
C12 C11 1_555 1_555
H11 C12 1_555 1_555
C13 N7 1_555 1_555
H12 C13 1_555 1_555
C14 C11 1_555 1_555
C15 C14 1_555 1_555
H13 C15 1_555 1_555
C16 N8 1_555 1_555
H14 C16 1_555 1_555
C17 N8 1_555 1_555
H15 C17 1_555 1_555
C18 C14 1_555 1_555
H16 C18 1_555 1_555
O5 C19 1_555 1_555
N9 C19 1_555 1_555
C19 H17 1_555 1_555
C20 N9 1_555 1_555
H18 C20 1_555 1_555
H19 C20 1_555 1_555
H20 C20 1_555 1_555
C21 N9 1_555 1_555
H21 C21 1_555 1_555
H22 C21 1_555 1_555
H23 C21 1_555 1_555
O3A N5A 1_555 1_555
O4A C7A 1_555 1_555
N4A C5A 1_555 1_555
N5A Ni2 1_555 1_555
N6A Ni2 1_555 1_555
H2A N6A 1_555 1_555
N7A Ni2 1_555 1_555
N8A C16A 1_555 1_555
C5A C6A 1_555 1_555
C6A N5A 1_555 1_555
C7A N6A 1_555 1_555
C8A O4A 1_555 1_555
H6A C8A 1_555 1_555
H7A C8A 1_555 1_555
H8A C8A 1_555 1_555
C9A N7A 1_555 1_555
H9A C9A 1_555 1_555
C10A C9A 1_555 1_555
H10A C10A 1_555 1_555
C11A C10A 1_555 1_555
C12A C11A 1_555 1_555
H11A C12A 1_555 1_555
C13A N7A 1_555 1_555
H12A C13A 1_555 1_555
C14A C11A 1_555 1_555
C15A C14A 1_555 1_555
H13A C15A 1_555 1_555
C16A C15A 1_555 1_555
H14A C16A 1_555 1_555
C17A N8A 1_555 1_555
H15A C17A 1_555 1_555
C18A C14A 1_555 1_555
H16A C18A 1_555 1_555
O1A N2A 1_555 1_555
O2A C3A 1_555 1_555
N1A C1A 1_555 1_555
N2A Ni1 1_555 1_555
N3A Ni1 1_555 1_555
H1A N3A 1_555 1_555
C1A C2A 1_555 1_555
C2A N2A 1_555 1_555
C3A N3A 1_555 1_555
C4A O2A 1_555 1_555
H3A C4A 1_555 1_555
H4A C4A 1_555 1_555
H5A C4A 1_555 1_555
Ni1_2 N8A 1_555 1_555
N8A_2 Ni1 1_555 1_555
C12 C13 1_555 1_555
C15 C16 1_555 1_555
C17 C18 1_555 1_555
C6A C7A 1_555 1_555
C12A C13A 1_555 1_555
C17A C18A 1_555 1_555
C2A C3A 1_555 1_555

#END
