
#######################################################################
#
#                 Cambridge Crystallographic Data Centre
#                                CCDC 
#
#######################################################################
#
# If this CIF has been generated from an entry in the Cambridge 
# Structural Database, then it will include bibliographic, chemical, 
# crystal, experimental, refinement or atomic coordinate data resulting 
# from the CCDC's data processing and validation procedures.
#
#######################################################################

data_CICNOT
_symmetry_cell_setting           monoclinic
_symmetry_space_group_name_H-M   'C 2/c'
_symmetry_Int_Tables_number      15
_space_group_name_Hall           '-C 2yn'
loop_
_symmetry_equiv_pos_site_id
_symmetry_equiv_pos_as_xyz
1 x,y,z
2 -x,y,1/2-z
3 1/2+x,1/2+y,z
4 1/2-x,1/2+y,1/2-z
5 -x,-y,-z
6 x,-y,1/2+z
7 1/2-x,1/2-y,-z
8 1/2+x,1/2-y,1/2+z
_cell_length_a                   19.4834(14)
_cell_length_b                   13.7283(10)
_cell_length_c                   6.8460(5)
_cell_angle_alpha                90
_cell_angle_beta                 103.2990(10)
_cell_angle_gamma                90
_cell_volume                     1782.02
loop_
_atom_site_label
_atom_site_type_symbol
_atom_site_fract_x
_atom_site_fract_y
_atom_site_fract_z
Ag1 Ag 0.403608(10) 0.932718(16) 0.51777(3)
Ag2 Ag 0.5000 0.91260(2) 0.2500
C1 C 0.39032(13) 0.91690(18) 0.1745(4)
C2 C 0.32704(12) 0.90710(17) 0.1208(3)
C3 C 0.25278(12) 0.89005(17) 0.0445(3)
C4 C 0.20405(13) 0.90538(18) 0.1619(4)
H1 H 0.2195 0.9286 0.2955
C5 C 0.13279(14) 0.8869(2) 0.0840(5)
H2 H 0.0997 0.8979 0.1642
C6 C 0.11000(14) 0.8524(2) -0.1100(5)
H3 H 0.0613 0.8388 -0.1609
C7 C 0.15673(13) 0.83724(19) -0.2308(4)
H4 H 0.1404 0.8147 -0.3646
C8 C 0.22834(13) 0.85547(17) -0.1537(4)
C9 C 0.27775(13) 0.84179(18) -0.2768(4)
N1 N 0.31757(13) 0.83358(18) -0.3753(3)
O1 O 0.5000 0.8592(2) 0.7500
O2 O 0.47084(11) 0.72287(18) 0.5957(3)
N2 N 0.5000 0.7661(2) 0.7500
O2A O 0.52916(11) 0.72287(18) 0.9043(3)
Ag1A Ag 0.596392(10) 0.932718(16) -0.01777(3)
C1A C 0.60968(13) 0.91690(18) 0.3255(4)
C2A C 0.67296(12) 0.90710(17) 0.3792(3)
C3A C 0.74722(12) 0.89005(17) 0.4555(3)
C4A C 0.79595(13) 0.90538(18) 0.3381(4)
H1A H 0.7805 0.9286 0.2045
C5A C 0.86721(14) 0.8869(2) 0.4160(5)
H2A H 0.9003 0.8979 0.3358
C6A C 0.89000(14) 0.8524(2) 0.6100(5)
H3A H 0.9387 0.8388 0.6609
C7A C 0.84327(13) 0.83724(19) 0.7308(4)
H4A H 0.8596 0.8147 0.8646
C8A C 0.77166(13) 0.85547(17) 0.6537(4)
C9A C 0.72225(13) 0.84179(18) 0.7768(4)
N1A N 0.68243(13) 0.83358(18) 0.8753(3)
Ag1_2 Ag 0.403608(10) 0.932718(16) -0.48223(3)
Ag1A_2 Ag 0.596392(10) 0.932718(16) 0.98223(3)
Ag1D Ag 0.596392(10) 1.067282(16) 0.48223(3)
Ag1E Ag 0.403608(10) 1.067282(16) 0.01777(3)
Ag2D Ag 0.5000 1.08740(2) -0.2500
Ag2D_2 Ag 0.5000 1.08740(2) 0.7500
C1D C 0.60968(13) 1.08310(18) -0.1745(4)
C1E C 0.39032(13) 1.08310(18) 0.6745(4)
N1_2 N 0.31757(13) 0.83358(18) 0.6247(3)
N1A_2 N 0.68243(13) 0.83358(18) -0.1247(3)
O1_2 O 0.5000 0.8592(2) -0.2500
loop_
_geom_bond_atom_site_label_1
_geom_bond_atom_site_label_2
_geom_bond_site_symmetry_1
_geom_bond_site_symmetry_2
Ag1 Ag2 1_555 1_555
Ag2 C1 1_555 1_555
C1 Ag1 1_555 1_555
C2 C1 1_555 1_555
C3 C2 1_555 1_555
C4 C3 1_555 1_555
H1 C4 1_555 1_555
C5 C4 1_555 1_555
H2 C5 1_555 1_555
C6 C5 1_555 1_555
H3 C6 1_555 1_555
C7 C6 1_555 1_555
H4 C7 1_555 1_555
C8 C3 1_555 1_555
C9 C8 1_555 1_555
N1 C9 1_555 1_555
O1 Ag1 1_555 1_555
O2 N2 1_555 1_555
N2 O1 1_555 1_555
O2A N2 1_555 1_555
Ag1A Ag2 1_555 1_555
C1A Ag2 1_555 1_555
C2A C1A 1_555 1_555
C3A C2A 1_555 1_555
C4A C3A 1_555 1_555
H1A C4A 1_555 1_555
C5A C4A 1_555 1_555
H2A C5A 1_555 1_555
C6A C5A 1_555 1_555
H3A C6A 1_555 1_555
C7A C6A 1_555 1_555
H4A C7A 1_555 1_555
C8A C3A 1_555 1_555
C9A C8A 1_555 1_555
N1A C9A 1_555 1_555
Ag1_2 N1 1_555 1_555
Ag1A_2 O1 1_555 1_555
Ag1D Ag2 1_555 1_555
Ag1E Ag2 1_555 1_555
Ag2D Ag1A 1_555 1_555
Ag2D_2 Ag1 1_555 1_555
C1D Ag1A 1_555 1_555
C1E Ag1 1_555 1_555
N1_2 Ag1 1_555 1_555
N1A_2 Ag1A 1_555 1_555
O1_2 Ag1A 1_555 1_555
C1 Ag1E 1_555 1_555
C7 C8 1_555 1_555
Ag1A C1A 1_555 1_555
C1A Ag1D 1_555 1_555
C7A C8A 1_555 1_555
N1A Ag1A_2 1_555 1_555
Ag1_2 Ag2D 1_555 1_555
Ag1_2 O1_2 1_555 1_555
Ag1A_2 Ag2D_2 1_555 1_555
Ag1D Ag2D_2 1_555 1_555
Ag1E Ag2D 1_555 1_555
Ag2D C1D 1_555 1_555
Ag2D_2 C1E 1_555 1_555

#END
