
#######################################################################
#
#                 Cambridge Crystallographic Data Centre
#                                CCDC 
#
#######################################################################
#
# If this CIF has been generated from an entry in the Cambridge 
# Structural Database, then it will include bibliographic, chemical, 
# crystal, experimental, refinement or atomic coordinate data resulting 
# from the CCDC's data processing and validation procedures.
#
#######################################################################

data_CICRAJ
_symmetry_cell_setting           monoclinic
_symmetry_space_group_name_H-M   'P 21/c'
_symmetry_Int_Tables_number      14
_space_group_name_Hall           '-P 2ybc'
loop_
_symmetry_equiv_pos_site_id
_symmetry_equiv_pos_as_xyz
1 x,y,z
2 -x,1/2+y,1/2-z
3 -x,-y,-z
4 x,1/2-y,1/2+z
_cell_length_a                   11.0896(7)
_cell_length_b                   11.2775(9)
_cell_length_c                   15.9495(14)
_cell_angle_alpha                90
_cell_angle_beta                 98.391(7)
_cell_angle_gamma                90
_cell_volume                     1973.34
loop_
_atom_site_label
_atom_site_type_symbol
_atom_site_fract_x
_atom_site_fract_y
_atom_site_fract_z
Fe1 Fe 0.5000 1.0000 0.0000
C1 C 0.5561(5) 1.0400(5) 0.2014(3)
H1 H 0.6081 1.0987 0.1833
C2 C 0.5480(4) 1.0344(4) 0.2868(3)
H2 H 0.5945 1.0865 0.3256
C3 C 0.4720(4) 0.9524(4) 0.3146(3)
C4 C 0.4088(4) 0.8779(4) 0.2539(3)
H3 H 0.3554 0.8191 0.2702
C5 C 0.4238(4) 0.8895(4) 0.1701(3)
H4 H 0.3796 0.8374 0.1301
C6 C 0.4559(4) 0.9427(4) 0.4040(3)
H5 H 0.4024 0.8846 0.4210
C7 C 0.9492(4) 0.6376(4) -0.0218(3)
H6 H 1.0173 0.6646 -0.0463
C8 C 0.8479(4) 0.7179(4) -0.0152(3)
C9 C 0.7404(4) 0.6824(4) 0.0117(3)
H7 H 0.7297 0.6019 0.0265
C10 C 0.6498(4) 0.7628(4) 0.0172(3)
H8 H 0.5771 0.7357 0.0359
C11 C 0.7623(4) 0.9124(4) -0.0284(3)
H9 H 0.7711 0.9937 -0.0418
C12 C 0.8571(4) 0.8377(4) -0.0365(3)
H10 H 0.9282 0.8668 -0.0563
N1 N 0.4961(3) 0.9690(3) 0.1421(2)
N2 N 0.5136(3) 1.0125(3) 0.4589(2)
N3 N 0.9467(3) 0.5314(4) 0.0051(3)
N4 N 0.6580(3) 0.8785(3) -0.0027(2)
C13 C 0.7109(4) 1.1701(4) 0.0684(3)
N5 N 0.6224(3) 1.1394(3) 0.0265(2)
S1 S 0.83257(11) 1.21017(18) 0.13176(10)
C1B C 0.4439(5) 0.9600(5) 0.7986(3)
H1B H 0.3919 0.9013 0.8167
C2B C 0.4520(4) 0.9656(4) 0.7132(3)
H2B H 0.4055 0.9135 0.6744
C3B C 0.5280(4) 1.0476(4) 0.6854(3)
C4B C 0.5912(4) 1.1221(4) 0.7461(3)
H3B H 0.6446 1.1809 0.7298
C5B C 0.5762(4) 1.1105(4) 0.8299(3)
H4B H 0.6204 1.1626 0.8699
C6B C 0.5441(4) 1.0573(4) 0.5960(3)
H5B H 0.5976 1.1154 0.5790
N1B N 0.5039(3) 1.0310(3) 0.8579(2)
N2B N 0.4864(3) 0.9875(3) 0.5411(2)
C7B C 1.0508(4) 0.3624(4) 0.0218(3)
H6B H 0.9827 0.3354 0.0463
C8B C 1.1521(4) 0.2821(4) 0.0152(3)
C9B C 1.2596(4) 0.3176(4) -0.0117(3)
H7B H 1.2703 0.3981 -0.0265
C10B C 1.3502(4) 0.2372(4) -0.0172(3)
H8B H 1.4229 0.2643 -0.0359
C11B C 1.2377(4) 0.0876(4) 0.0284(3)
H9B H 1.2289 0.0063 0.0418
C12B C 1.1429(4) 0.1623(4) 0.0365(3)
H10B H 1.0718 0.1332 0.0563
N3B N 1.0533(3) 0.4686(4) -0.0051(3)
N4B N 1.3420(3) 0.1215(3) 0.0027(2)
C13B C 0.2891(4) 0.8299(4) -0.0684(3)
N5B N 0.3776(3) 0.8606(3) -0.0265(2)
S1B S 0.16743(11) 0.78983(18) -0.13176(10)
Fe1_2 Fe 0.5000 1.0000 1.0000
Fe1_3 Fe 1.5000 0.0000 0.0000
N1B_2 N 0.5039(3) 1.0310(3) -0.1421(2)
N4B_2 N 0.3420(3) 1.1215(3) 0.0027(2)
C14 C -0.1653(5) 0.6173(6) 0.2330(3)
H11 H -0.1915 0.5397 0.2449
C15 C -0.2364(4) 0.7148(8) 0.2471(3)
H12 H -0.3112 0.7038 0.2686
C16 C -0.1982(6) 0.8284(6) 0.2298(4)
H13 H -0.2468 0.8950 0.2394
C17 C -0.0888(6) 0.8445(3) 0.1984(3)
H14 H -0.0627 0.9222 0.1865
C18 C -0.0177(4) 0.7471(4) 0.1843(3)
C19 C -0.0560(5) 0.6335(3) 0.2016(3)
H15 H -0.0074 0.5669 0.1920
N6 N 0.1009(7) 0.7614(9) 0.1503(5)
O1 O 0.1588(6) 0.6754(11) 0.1504(6)
O2 O 0.1145(8) 0.8676(11) 0.1345(6)
loop_
_geom_bond_atom_site_label_1
_geom_bond_atom_site_label_2
_geom_bond_site_symmetry_1
_geom_bond_site_symmetry_2
Fe1 N1 1_555 1_555
C1 H1 1_555 1_555
C2 C1 1_555 1_555
H2 C2 1_555 1_555
C3 C2 1_555 1_555
C4 C3 1_555 1_555
H3 C4 1_555 1_555
C5 C4 1_555 1_555
H4 C5 1_555 1_555
C6 C3 1_555 1_555
H5 C6 1_555 1_555
C7 H6 1_555 1_555
C8 C7 1_555 1_555
C9 C8 1_555 1_555
H7 C9 1_555 1_555
C10 C9 1_555 1_555
H8 C10 1_555 1_555
C11 H9 1_555 1_555
C12 C8 1_555 1_555
H10 C12 1_555 1_555
N1 C1 1_555 1_555
N2 C6 1_555 1_555
N3 C7 1_555 1_555
N4 Fe1 1_555 1_555
C13 N5 1_555 1_555
N5 Fe1 1_555 1_555
S1 C13 1_555 1_555
C14 H11 1_555 1_555
C15 C14 1_555 1_555
H12 C15 1_555 1_555
C16 C15 1_555 1_555
H13 C16 1_555 1_555
C17 C16 1_555 1_555
H14 C17 1_555 1_555
C18 C17 1_555 1_555
C19 C14 1_555 1_555
H15 C19 1_555 1_555
N6 C18 1_555 1_555
O1 N6 1_555 1_555
O2 N6 1_555 1_555
C1B H1B 1_555 1_555
C2B C1B 1_555 1_555
H2B C2B 1_555 1_555
C3B C2B 1_555 1_555
C4B C3B 1_555 1_555
H3B C4B 1_555 1_555
C5B C4B 1_555 1_555
H4B C5B 1_555 1_555
C6B C3B 1_555 1_555
H5B C6B 1_555 1_555
N1B C1B 1_555 1_555
N2B N2 1_555 1_555
C7B H6B 1_555 1_555
C8B C7B 1_555 1_555
C9B C8B 1_555 1_555
H7B C9B 1_555 1_555
C10B C9B 1_555 1_555
H8B C10B 1_555 1_555
C11B H9B 1_555 1_555
C12B C8B 1_555 1_555
H10B C12B 1_555 1_555
N3B N3 1_555 1_555
N4B C10B 1_555 1_555
C13B N5B 1_555 1_555
N5B Fe1 1_555 1_555
S1B C13B 1_555 1_555
Fe1_2 N1B 1_555 1_555
Fe1_3 N4B 1_555 1_555
N1B_2 Fe1 1_555 1_555
N4B_2 Fe1 1_555 1_555
C5 N1 1_555 1_555
C10 N4 1_555 1_555
C11 C12 1_555 1_555
C11 N4 1_555 1_555
C18 C19 1_555 1_555
C5B N1B 1_555 1_555
C6B N2B 1_555 1_555
C7B N3B 1_555 1_555
C11B C12B 1_555 1_555
C11B N4B 1_555 1_555

#END
