
#######################################################################
#
#                 Cambridge Crystallographic Data Centre
#                                CCDC 
#
#######################################################################
#
# If this CIF has been generated from an entry in the Cambridge 
# Structural Database, then it will include bibliographic, chemical, 
# crystal, experimental, refinement or atomic coordinate data resulting 
# from the CCDC's data processing and validation procedures.
#
#######################################################################

data_CICSOW01
_symmetry_cell_setting           rhombohedral
_symmetry_space_group_name_H-M   'R -3'
_symmetry_Int_Tables_number      148
_space_group_name_Hall           '-R 3'
loop_
_symmetry_equiv_pos_site_id
_symmetry_equiv_pos_as_xyz
1 x,y,z
2 1/3+x,2/3+y,2/3+z
3 2/3+x,1/3+y,1/3+z
4 -y,x-y,z
5 2/3-y,1/3+x-y,1/3+z
6 2/3+y,1/3-x+y,1/3-z
7 -x+y,-x,z
8 2/3-x+y,1/3-x,1/3+z
9 2/3+x-y,1/3+x,1/3-z
10 -x,-y,-z
11 2/3-x,1/3-y,1/3-z
12 1/3-x,2/3-y,2/3-z
13 y,-x+y,-z
14 1/3+y,2/3-x+y,2/3-z
15 1/3-y,2/3+x-y,2/3+z
16 x-y,x,-z
17 1/3+x-y,2/3+x,2/3-z
18 1/3-x+y,2/3-x,2/3+z
_cell_length_a                   10.938
_cell_length_b                   10.938
_cell_length_c                   34.555
_cell_angle_alpha                90
_cell_angle_beta                 90
_cell_angle_gamma                120.0
_cell_volume                     3580.28
loop_
_atom_site_label
_atom_site_type_symbol
_atom_site_fract_x
_atom_site_fract_y
_atom_site_fract_z
N1 N 0.1862(3) 0.0839(3) 0.03549(9)
N2 N 0.2102(4) 0.1757(4) 0.0664(1)
N3 N 0.3142(3) 0.0544(3) 0.07730(9)
N4 N 0.3735(3) -0.0117(3) 0.09713(9)
N5 N 0.5149(4) -0.0882(4) 0.1135(1)
N6 N 0.3880(3) -0.1626(3) 0.13368(9)
C1 C 0.2493(4) 0.0124(4) 0.0426(1)
C2 C 0.2866(5) 0.1543(4) 0.0911(1)
C3 C 0.5019(5) 0.0006(5) 0.0914(1)
C4 C 0.3065(4) -0.1139(4) 0.1238(1)
H1 H 0.255(5) -0.057(5) 0.028(1)
H2 H 0.326(5) 0.202(5) 0.115(1)
H3 H 0.566(5) 0.067(5) 0.076(1)
H4 H 0.212(5) -0.141(5) 0.132(1)
Fe1 Fe 0.0000 0.0000 0.0000
Fe2 Fe -0.3333 0.3333 -0.1667
N1C N -0.0839(3) 0.1023(4) 0.03549(9)
N2C N -0.1757(4) 0.0345(6) 0.0664(1)
N3C N -0.0544(3) 0.2598(4) 0.07730(9)
N4C N 0.0117(3) 0.3852(4) 0.09713(9)
N5C N 0.0882(4) 0.6031(6) 0.1135(1)
N6C N 0.1626(3) 0.5506(4) 0.13368(9)
C1C C -0.0124(4) 0.2369(6) 0.0426(1)
C2C C -0.1543(4) 0.1323(6) 0.0911(1)
C3C C -0.0006(5) 0.5013(7) 0.0914(1)
C4C C 0.1139(4) 0.4204(6) 0.1238(1)
H1C H 0.057(5) 0.312(7) 0.028(1)
H2C H -0.202(5) 0.124(7) 0.115(1)
H3C H -0.067(5) 0.499(7) 0.076(1)
H4C H 0.141(5) 0.353(7) 0.132(1)
N1F N -0.1023(4) -0.1862(3) 0.03549(9)
N1I N -0.1862(3) -0.0839(3) -0.03549(9)
N2I N -0.2102(4) -0.1757(4) -0.0664(1)
N3I N -0.3142(3) -0.0544(3) -0.07730(9)
N4I N -0.3735(3) 0.0117(3) -0.09713(9)
N5I N -0.5149(4) 0.0882(4) -0.1135(1)
N6I N -0.3880(3) 0.1626(3) -0.13368(9)
C1I C -0.2493(4) -0.0124(4) -0.0426(1)
C2I C -0.2866(5) -0.1543(4) -0.0911(1)
C3I C -0.5019(5) -0.0006(5) -0.0914(1)
C4I C -0.3065(4) 0.1139(4) -0.1238(1)
H1I H -0.255(5) 0.057(5) -0.028(1)
H2I H -0.326(5) -0.202(5) -0.115(1)
H3I H -0.566(5) -0.067(5) -0.076(1)
H4I H -0.212(5) 0.141(5) -0.132(1)
N1L N 0.0839(3) -0.1023(4) -0.03549(9)
N1O N 0.1023(4) 0.1862(3) -0.03549(9)
Fe2B Fe 0.3334 0.6666 0.1666
Fe2B_2 Fe 0.3334 -0.3334 0.1666
N1L_2 N 0.0839(3) 0.8977(4) -0.03549(9)
N2L N 0.1757(4) 0.9655(6) -0.0664(1)
N3L N 0.0544(3) 0.7402(4) -0.07730(9)
N4L N -0.0117(3) 0.6148(4) -0.09713(9)
N5L N -0.0882(4) 0.3969(6) -0.1135(1)
N6L N -0.1626(3) 0.4494(4) -0.13368(9)
C1L C 0.0124(4) 0.7631(6) -0.0426(1)
C2L C 0.1543(4) 0.8677(6) -0.0911(1)
C3L C 0.0006(5) 0.4987(7) -0.0914(1)
C4L C -0.1139(4) 0.5796(6) -0.1238(1)
H1L H -0.057(5) 0.688(7) -0.028(1)
H2L H 0.202(5) 0.876(7) -0.115(1)
H3L H 0.067(5) 0.501(7) -0.076(1)
H4L H -0.141(5) 0.647(7) -0.132(1)
N1N N -0.7506(3) -0.2310(4) -0.29784(9)
N2N N -0.8424(4) -0.2988(6) -0.2669(1)
N3N N -0.7211(3) -0.0735(4) -0.25603(9)
N4N N -0.6550(3) 0.0519(4) -0.23620(9)
N5N N -0.5785(4) 0.2698(6) -0.2198(1)
N6N N -0.5041(3) 0.2173(4) -0.19965(9)
C1N C -0.6791(4) -0.0964(6) -0.2907(1)
C2N C -0.8210(4) -0.2010(6) -0.2422(1)
C3N C -0.6673(5) 0.1680(7) -0.2419(1)
C4N C -0.5528(4) 0.0871(6) -0.2095(1)
H1N H -0.610(5) -0.021(7) -0.305(1)
H2N H -0.869(5) -0.209(7) -0.218(1)
H3N H -0.734(5) 0.166(7) -0.257(1)
H4N H -0.526(5) 0.020(7) -0.201(1)
N1O_2 N -0.8977(4) 0.1862(3) -0.03549(9)
N2O N -0.9655(6) 0.2102(4) -0.0664(1)
N3O N -0.7402(4) 0.3142(3) -0.07730(9)
N4O N -0.6148(4) 0.3735(3) -0.09713(9)
N5O N -0.3969(6) 0.5149(4) -0.1135(1)
N6O N -0.4494(4) 0.3880(3) -0.13368(9)
C1O C -0.7631(6) 0.2493(4) -0.0426(1)
C2O C -0.8677(6) 0.2866(5) -0.0911(1)
C3O C -0.4987(7) 0.5019(5) -0.0914(1)
C4O C -0.5796(6) 0.3065(4) -0.1238(1)
H1O H -0.688(7) 0.255(5) -0.028(1)
H2O H -0.876(7) 0.326(5) -0.115(1)
H3O H -0.501(7) 0.566(5) -0.076(1)
H4O H -0.647(7) 0.212(5) -0.132(1)
N6Q N -0.2173(4) 0.2787(3) -0.19965(9)
N6A N -0.2787(3) 0.5041(3) -0.19965(9)
Fe1L Fe 0.0000 1.0000 0.0000
Fe1N Fe -0.6667 -0.3333 -0.3333
Fe1O Fe -1.0000 0.0000 0.0000
Cl1 Cl 0.6667 0.3333 0.15258(6)
O1 O 0.7782(9) 0.324(1) 0.1658(2)
O2 O 0.6667 0.3333 0.1114(2)
O1C O 0.676(1) 0.4542(13) 0.1658(2)
O1F O 0.5458(13) 0.2218(9) 0.1658(2)
Cl2 Cl 0.6667 0.3333 0.00192(6)
O3 O 0.6667 0.3333 -0.0385(2)
O4 O 0.6899(6) 0.2247(5) 0.0157(2)
O4C O 0.7753(5) 0.4652(8) 0.0157(2)
O4F O 0.5348(8) 0.3101(6) 0.0157(2)
loop_
_geom_bond_atom_site_label_1
_geom_bond_atom_site_label_2
_geom_bond_site_symmetry_1
_geom_bond_site_symmetry_2
N1 N2 1_555 1_555
N2 C2 1_555 1_555
N3 N4 1_555 1_555
N4 C3 1_555 1_555
N5 N6 1_555 1_555
N6 C4 1_555 1_555
C1 N1 1_555 1_555
C2 N3 1_555 1_555
C3 N5 1_555 1_555
C4 N4 1_555 1_555
Cl1 O1 1_555 1_555
Cl2 O3 1_555 1_555
O2 Cl1 1_555 1_555
O4 Cl2 1_555 1_555
H1 C1 1_555 1_555
H2 C2 1_555 1_555
H3 C3 1_555 1_555
H4 C4 1_555 1_555
Fe1 N1 1_555 1_555
Fe2 N6I 1_555 1_555
O1C Cl1 1_555 1_555
O1F Cl1 1_555 1_555
O4C Cl2 1_555 1_555
O4F Cl2 1_555 1_555
N1C Fe1 1_555 1_555
N2C N1C 1_555 1_555
N3C N4C 1_555 1_555
N4C C3C 1_555 1_555
N5C N6C 1_555 1_555
N6C C4C 1_555 1_555
C1C N1C 1_555 1_555
C2C N2C 1_555 1_555
C3C N5C 1_555 1_555
C4C N4C 1_555 1_555
H1C C1C 1_555 1_555
H2C C2C 1_555 1_555
H3C C3C 1_555 1_555
H4C C4C 1_555 1_555
N1F Fe1 1_555 1_555
N1I Fe1 1_555 1_555
N2I N1I 1_555 1_555
N3I N4I 1_555 1_555
N4I C3I 1_555 1_555
N5I N6I 1_555 1_555
N6I C4I 1_555 1_555
C1I N1I 1_555 1_555
C2I N2I 1_555 1_555
C3I N5I 1_555 1_555
C4I N4I 1_555 1_555
H1I C1I 1_555 1_555
H2I C2I 1_555 1_555
H3I C3I 1_555 1_555
H4I C4I 1_555 1_555
N1L Fe1 1_555 1_555
N1O Fe1 1_555 1_555
Fe2B N6C 1_555 1_555
Fe2B_2 N6 1_555 1_555
N1L_2 N2L 1_555 1_555
N2L C2L 1_555 1_555
N3L N4L 1_555 1_555
N4L C3L 1_555 1_555
N5L N6L 1_555 1_555
N6L Fe2 1_555 1_555
C1L N1L_2 1_555 1_555
C2L N3L 1_555 1_555
C3L N5L 1_555 1_555
C4L N4L 1_555 1_555
H1L C1L 1_555 1_555
H2L C2L 1_555 1_555
H3L C3L 1_555 1_555
H4L C4L 1_555 1_555
N1N N2N 1_555 1_555
N2N C2N 1_555 1_555
N3N N4N 1_555 1_555
N4N C3N 1_555 1_555
N5N N6N 1_555 1_555
N6N Fe2 1_555 1_555
C1N N1N 1_555 1_555
C2N N3N 1_555 1_555
C3N N5N 1_555 1_555
C4N N4N 1_555 1_555
H1N C1N 1_555 1_555
H2N C2N 1_555 1_555
H3N C3N 1_555 1_555
H4N C4N 1_555 1_555
N1O_2 N2O 1_555 1_555
N2O C2O 1_555 1_555
N3O N4O 1_555 1_555
N4O C3O 1_555 1_555
N5O N6O 1_555 1_555
N6O Fe2 1_555 1_555
C1O N1O_2 1_555 1_555
C2O N3O 1_555 1_555
C3O N5O 1_555 1_555
C4O N4O 1_555 1_555
H1O C1O 1_555 1_555
H2O C2O 1_555 1_555
H3O C3O 1_555 1_555
H4O C4O 1_555 1_555
N6Q Fe2 1_555 1_555
N6A Fe2 1_555 1_555
Fe1L N1L_2 1_555 1_555
Fe1N N1N 1_555 1_555
Fe1O N1O_2 1_555 1_555
N3 C1 1_555 1_555
N3C C2C 1_555 1_555
N3C C1C 1_555 1_555
N3I C2I 1_555 1_555
N3I C1I 1_555 1_555
N3L C1L 1_555 1_555
N6L C4L 1_555 1_555
N3N C1N 1_555 1_555
N6N C4N 1_555 1_555
N3O C1O 1_555 1_555
N6O C4O 1_555 1_555

#END
