
#######################################################################
#
#                 Cambridge Crystallographic Data Centre
#                                CCDC 
#
#######################################################################
#
# If this CIF has been generated from an entry in the Cambridge 
# Structural Database, then it will include bibliographic, chemical, 
# crystal, experimental, refinement or atomic coordinate data resulting 
# from the CCDC's data processing and validation procedures.
#
#######################################################################

data_CICVIV
_symmetry_cell_setting           monoclinic
_symmetry_space_group_name_H-M   'P 21/n'
_symmetry_Int_Tables_number      14
_space_group_name_Hall           '-P 2yn'
loop_
_symmetry_equiv_pos_site_id
_symmetry_equiv_pos_as_xyz
1 x,y,z
2 1/2-x,1/2+y,1/2-z
3 -x,-y,-z
4 1/2+x,1/2-y,1/2+z
_cell_length_a                   9.4189(7)
_cell_length_b                   26.248(2)
_cell_length_c                   11.4511(9)
_cell_angle_alpha                90
_cell_angle_beta                 95.6180(10)
_cell_angle_gamma                90
_cell_volume                     2817.43
loop_
_atom_site_label
_atom_site_type_symbol
_atom_site_fract_x
_atom_site_fract_y
_atom_site_fract_z
Co1 Co 0.5000 0.0000 1.0000
Co2 Co 0.10689(5) 0.090667(17) 0.94622(4)
Co3 Co 0.28131(5) -0.111970(18) 1.06902(4)
O1 O 0.3261(2) -0.05151(9) 0.9632(2)
O2 O 0.0809(3) -0.07536(9) 0.9778(2)
O3 O 0.1270(3) 0.01505(9) 0.9040(2)
O4 O 0.0716(3) 0.16530(10) 1.0064(2)
O5 O -0.0395(3) 0.25159(10) 0.9611(2)
H1 H -0.0399 0.2472 0.8902
O6 O -0.2018(3) 0.17744(10) 0.9896(3)
O7 O 0.4382(3) 0.03886(9) 0.8526(2)
O8 O 0.5312(3) 0.12877(10) 0.8466(2)
O9 O 0.2680(3) 0.11504(9) 0.8534(2)
N1 N 0.1800(3) -0.10279(13) 0.2197(3)
N2 N 0.0341(3) -0.10086(12) 0.2151(3)
N3 N 0.1230(3) -0.09825(13) 0.3994(3)
N4 N -0.0350(4) 0.26037(14) 1.7225(3)
N5 N -0.0736(5) 0.30876(15) 1.6859(3)
N6 N -0.0504(4) 0.26255(13) 1.5299(3)
N7 N 0.3653(3) 0.04641(12) 0.1142(3)
N8 N 0.2496(3) 0.07914(11) 0.1006(2)
N9 N 0.3247(3) 0.07622(12) 0.2868(2)
P1 P 0.17122(9) -0.03941(3) 0.91123(7)
P2 P -0.05357(10) 0.19828(3) 1.02400(8)
P3 P 0.40488(9) 0.09320(3) 0.81622(7)
C1 C 0.1583(4) -0.06151(13) 0.7598(3)
C2 C 0.2532(4) -0.09569(16) 0.7169(3)
H2 H 0.3254 -0.1098 0.7681
C3 C 0.2424(5) -0.10923(18) 0.5983(3)
H3 H 0.3077 -0.1315 0.5698
C4 C 0.1324(4) -0.08867(15) 0.5244(3)
C5 C 0.0324(4) -0.05700(16) 0.5658(3)
H4 H -0.0441 -0.0452 0.5156
C6 C 0.0465(4) -0.04278(15) 0.6827(3)
H5 H -0.0193 -0.0205 0.7102
C7 C 0.0017(4) -0.09809(14) 0.3230(3)
H6 H -0.0907 -0.0963 0.3450
C8 C 0.2315(4) -0.10146(17) 0.3303(3)
H7 H 0.3279 -0.1025 0.3572
C9 C -0.0491(4) 0.21803(14) 1.1762(3)
C10 C 0.0771(5) 0.2224(2) 1.2474(4)
H8 H 0.1630 0.2155 1.2169
C11 C 0.0776(5) 0.2370(2) 1.3651(4)
H9 H 0.1631 0.2398 1.4127
C12 C -0.0491(5) 0.24707(15) 1.4089(3)
C13 C -0.1766(5) 0.2439(3) 1.3398(4)
H10 H -0.2620 0.2517 1.3701
C14 C -0.1751(5) 0.2289(2) 1.2233(4)
H11 H -0.2609 0.2260 1.1762
C15 C -0.0843(6) 0.30844(17) 1.5715(4)
H12 H -0.1118 0.3364 1.5247
C16 C -0.0214(6) 0.23376(18) 1.6277(4)
H13 H 0.0047 0.1996 1.6273
C17 C 0.3787(4) 0.09017(13) 0.6557(3)
C18 C 0.3498(4) 0.04299(14) 0.6011(3)
H14 H 0.3426 0.0141 0.6470
C19 C 0.3318(4) 0.03873(14) 0.4802(3)
H15 H 0.3150 0.0071 0.4450
C20 C 0.3390(4) 0.08188(14) 0.4123(3)
C21 C 0.3634(4) 0.12957(15) 0.4629(3)
H16 H 0.3659 0.1586 0.4165
C22 C 0.3840(4) 0.13303(14) 0.5849(3)
H17 H 0.4017 0.1647 0.6197
C23 C 0.2285(4) 0.09625(14) 0.2045(3)
H18 H 0.1571 0.1191 0.2196
C24 C 0.4063(4) 0.04537(16) 0.2256(3)
H19 H 0.4821 0.0259 0.2593
Co2B Co -0.10689(5) -0.090667(17) 0.05378(4)
Co3B Co -0.28131(5) 0.111970(18) -0.06902(4)
O1B O -0.3261(2) 0.05151(9) 0.0368(2)
O2B O -0.0809(3) 0.07536(9) 0.0222(2)
O3B O -0.1270(3) -0.01505(9) 0.0960(2)
O4B O -0.0716(3) -0.16530(10) -0.0064(2)
O5B O 0.0395(3) -0.25159(10) 0.0389(2)
H1B H 0.0399 -0.2472 0.1098
O6B O 0.2018(3) -0.17744(10) 0.0104(3)
O7B O -0.4382(3) -0.03886(9) 0.1474(2)
O8B O -0.5312(3) -0.12877(10) 0.1534(2)
O9B O -0.2680(3) -0.11504(9) 0.1466(2)
N1B N -0.1800(3) 0.10279(13) 0.7803(3)
N2B N -0.0341(3) 0.10086(12) 0.7849(3)
N3B N -0.1230(3) 0.09825(13) 0.6006(3)
N4B N 0.0350(4) -0.26037(14) -0.7225(3)
N5B N 0.0736(5) -0.30876(15) -0.6859(3)
N6B N 0.0504(4) -0.26255(13) -0.5299(3)
N7B N -0.3653(3) -0.04641(12) 0.8858(3)
N8B N -0.2496(3) -0.07914(11) 0.8994(2)
N9B N -0.3247(3) -0.07622(12) 0.7132(2)
P1B P -0.17122(9) 0.03941(3) 0.08877(7)
P2B P 0.05357(10) -0.19828(3) -0.02400(8)
P3B P -0.40488(9) -0.09320(3) 0.18378(7)
C1B C -0.1583(4) 0.06151(13) 0.2402(3)
C2B C -0.2532(4) 0.09569(16) 0.2831(3)
H2B H -0.3254 0.1098 0.2319
C3B C -0.2424(5) 0.10923(18) 0.4017(3)
H3B H -0.3077 0.1315 0.4302
C4B C -0.1324(4) 0.08867(15) 0.4756(3)
C5B C -0.0324(4) 0.05700(16) 0.4342(3)
H4B H 0.0441 0.0452 0.4844
C6B C -0.0465(4) 0.04278(15) 0.3173(3)
H5B H 0.0193 0.0205 0.2898
C7B C -0.0017(4) 0.09809(14) 0.6770(3)
H6B H 0.0907 0.0963 0.6550
C8B C -0.2315(4) 0.10146(17) 0.6697(3)
H7B H -0.3279 0.1025 0.6428
C9B C 0.0491(4) -0.21803(14) -0.1762(3)
C10B C -0.0771(5) -0.2224(2) -0.2474(4)
H8B H -0.1630 -0.2155 -0.2169
C11B C -0.0776(5) -0.2370(2) -0.3651(4)
H9B H -0.1631 -0.2398 -0.4127
C12B C 0.0491(5) -0.24707(15) -0.4089(3)
C13B C 0.1766(5) -0.2439(3) -0.3398(4)
H10B H 0.2620 -0.2517 -0.3701
C14B C 0.1751(5) -0.2289(2) -0.2233(4)
H11B H 0.2609 -0.2260 -0.1762
C15B C 0.0843(6) -0.30844(17) -0.5715(4)
H12B H 0.1118 -0.3364 -0.5247
C16B C 0.0214(6) -0.23376(18) -0.6277(4)
H13B H -0.0047 -0.1996 -0.6273
C17B C -0.3787(4) -0.09017(13) 0.3443(3)
C18B C -0.3498(4) -0.04299(14) 0.3989(3)
H14B H -0.3426 -0.0141 0.3530
C19B C -0.3318(4) -0.03873(14) 0.5198(3)
H15B H -0.3150 -0.0071 0.5550
C20B C -0.3390(4) -0.08188(14) 0.5877(3)
C21B C -0.3634(4) -0.12957(15) 0.5371(3)
H16B H -0.3659 -0.1586 0.5835
C22B C -0.3840(4) -0.13303(14) 0.4151(3)
H17B H -0.4017 -0.1647 0.3803
C23B C -0.2285(4) -0.09625(14) 0.7955(3)
H18B H -0.1571 -0.1191 0.7804
C24B C -0.4063(4) -0.04537(16) 0.7744(3)
H19B H -0.4821 -0.0259 0.7407
Co1_2 Co -0.5000 0.0000 0.0000
Co1_3 Co -0.5000 0.0000 1.0000
Co1_4 Co 0.5000 0.0000 0.0000
Co2_2 Co 0.10689(5) 0.090667(17) -0.05378(4)
Co2B_2 Co -0.10689(5) -0.090667(17) 1.05378(4)
Co3_2 Co -0.71869(5) -0.111970(18) 0.06902(4)
Co3_3 Co 0.28131(5) -0.111970(18) 0.06902(4)
Co3B_2 Co -0.28131(5) 0.111970(18) 0.93098(4)
Co3B_3 Co 0.71869(5) 0.111970(18) 0.93098(4)
O1B_2 O 0.6739(2) 0.05151(9) 1.0368(2)
O2_2 O 0.0809(3) -0.07536(9) -0.0222(2)
O2B_2 O -0.0809(3) 0.07536(9) 1.0222(2)
O6_2 O -0.2018(3) 0.17744(10) -0.0104(3)
O6B_2 O 0.2018(3) -0.17744(10) 1.0104(3)
O7B_2 O 0.5618(3) -0.03886(9) 1.1474(2)
O8_2 O -0.4688(3) 0.12877(10) -0.1534(2)
O8B_2 O 0.4688(3) -0.12877(10) 1.1534(2)
N1_2 N 0.1800(3) -0.10279(13) 1.2197(3)
N1B_2 N -0.1800(3) 0.10279(13) -0.2197(3)
N7_2 N 0.3653(3) 0.04641(12) 1.1142(3)
N7B_2 N 0.6347(3) -0.04641(12) 0.8858(3)
N8_2 N 0.2496(3) 0.07914(11) 1.1006(2)
N8B_2 N -0.2496(3) -0.07914(11) -0.1006(2)
loop_
_geom_bond_atom_site_label_1
_geom_bond_atom_site_label_2
_geom_bond_site_symmetry_1
_geom_bond_site_symmetry_2
Co1 O1 1_555 1_555
Co2 O3 1_555 1_555
Co3 O1 1_555 1_555
O1 P1 1_555 1_555
O2 Co3 1_555 1_555
O3 P1 1_555 1_555
O4 Co2 1_555 1_555
O5 H1 1_555 1_555
O6 P2 1_555 1_555
O7 Co1 1_555 1_555
O8 P3 1_555 1_555
O9 Co2 1_555 1_555
N1 N2 1_555 1_555
N2 C7 1_555 1_555
N3 C4 1_555 1_555
N4 N5 1_555 1_555
N5 C15 1_555 1_555
N6 C12 1_555 1_555
N7 N8 1_555 1_555
N8 C23 1_555 1_555
N9 C20 1_555 1_555
P1 O2 1_555 1_555
P2 O4 1_555 1_555
P3 O7 1_555 1_555
C1 P1 1_555 1_555
C2 C1 1_555 1_555
H2 C2 1_555 1_555
C3 C2 1_555 1_555
H3 C3 1_555 1_555
C4 C3 1_555 1_555
C5 C4 1_555 1_555
H4 C5 1_555 1_555
C6 C1 1_555 1_555
H5 C6 1_555 1_555
C7 N3 1_555 1_555
H6 C7 1_555 1_555
C8 N1 1_555 1_555
H7 C8 1_555 1_555
C9 P2 1_555 1_555
C10 C9 1_555 1_555
H8 C10 1_555 1_555
C11 C10 1_555 1_555
H9 C11 1_555 1_555
C12 C11 1_555 1_555
C13 C12 1_555 1_555
H10 C13 1_555 1_555
C14 C9 1_555 1_555
H11 C14 1_555 1_555
C15 N6 1_555 1_555
H12 C15 1_555 1_555
C16 N4 1_555 1_555
H13 C16 1_555 1_555
C17 P3 1_555 1_555
C18 C17 1_555 1_555
H14 C18 1_555 1_555
C19 C18 1_555 1_555
H15 C19 1_555 1_555
C20 C19 1_555 1_555
C21 C20 1_555 1_555
H16 C21 1_555 1_555
C22 C17 1_555 1_555
H17 C22 1_555 1_555
C23 N9 1_555 1_555
H18 C23 1_555 1_555
C24 N7 1_555 1_555
H19 C24 1_555 1_555
Co2B N2 1_555 1_555
Co3B O1B 1_555 1_555
O1B P1B 1_555 1_555
O2B Co3B 1_555 1_555
O3B Co2B 1_555 1_555
O4B Co2B 1_555 1_555
O5B H1B 1_555 1_555
O6B P2B 1_555 1_555
O7B P3B 1_555 1_555
O8B P3B 1_555 1_555
O9B Co2B 1_555 1_555
N1B N2B 1_555 1_555
N2B Co2 1_555 1_555
N3B C4B 1_555 1_555
N4B N5B 1_555 1_555
N5B C15B 1_555 1_555
N6B C12B 1_555 1_555
N7B N8B 1_555 1_555
N8B C23B 1_555 1_555
N9B C20B 1_555 1_555
P1B O2B 1_555 1_555
P2B O4B 1_555 1_555
P3B O9B 1_555 1_555
C1B P1B 1_555 1_555
C2B C1B 1_555 1_555
H2B C2B 1_555 1_555
C3B C2B 1_555 1_555
H3B C3B 1_555 1_555
C4B C3B 1_555 1_555
C5B C4B 1_555 1_555
H4B C5B 1_555 1_555
C6B C1B 1_555 1_555
H5B C6B 1_555 1_555
C7B N2B 1_555 1_555
H6B C7B 1_555 1_555
C8B N1B 1_555 1_555
H7B C8B 1_555 1_555
C9B P2B 1_555 1_555
C10B C9B 1_555 1_555
H8B C10B 1_555 1_555
C11B C10B 1_555 1_555
H9B C11B 1_555 1_555
C12B C11B 1_555 1_555
C13B C12B 1_555 1_555
H10B C13B 1_555 1_555
C14B C9B 1_555 1_555
H11B C14B 1_555 1_555
C15B N6B 1_555 1_555
H12B C15B 1_555 1_555
C16B N4B 1_555 1_555
H13B C16B 1_555 1_555
C17B P3B 1_555 1_555
C18B C17B 1_555 1_555
H14B C18B 1_555 1_555
C19B C18B 1_555 1_555
H15B C19B 1_555 1_555
C20B C19B 1_555 1_555
C21B C20B 1_555 1_555
H16B C21B 1_555 1_555
C22B C17B 1_555 1_555
H17B C22B 1_555 1_555
C23B N9B 1_555 1_555
H18B C23B 1_555 1_555
C24B N7B 1_555 1_555
H19B C24B 1_555 1_555
Co1_2 O1B 1_555 1_555
Co1_3 N7B 1_555 1_555
Co1_4 N7 1_555 1_555
Co2_2 N8 1_555 1_555
Co2B_2 O2 1_555 1_555
Co3_2 O8B 1_555 1_555
Co3_3 N1 1_555 1_555
Co3B_2 O6 1_555 1_555
Co3B_3 O8 1_555 1_555
O1B_2 Co1 1_555 1_555
O2_2 Co2B 1_555 1_555
O2B_2 Co2 1_555 1_555
O6_2 Co3B 1_555 1_555
O6B_2 Co3 1_555 1_555
O7B_2 Co1 1_555 1_555
O8_2 Co3B 1_555 1_555
O8B_2 Co3 1_555 1_555
N1_2 Co3 1_555 1_555
N1B_2 Co3B 1_555 1_555
N7_2 Co1 1_555 1_555
N7B_2 Co1 1_555 1_555
N8_2 Co2 1_555 1_555
N8B_2 Co2B 1_555 1_555
O5 P2 1_555 1_555
O9 P3 1_555 1_555
N3 C8 1_555 1_555
N6 C16 1_555 1_555
N9 C24 1_555 1_555
C5 C6 1_555 1_555
C13 C14 1_555 1_555
C21 C22 1_555 1_555
O2B Co2_2 1_555 1_555
O3B P1B 1_555 1_555
O5B P2B 1_555 1_555
O6B Co3_3 1_555 1_555
O7B Co1_2 1_555 1_555
N1B Co3B_2 1_555 1_555
N3B C7B 1_555 1_555
N3B C8B 1_555 1_555
N6B C16B 1_555 1_555
N8B Co2B_2 1_555 1_555
N9B C24B 1_555 1_555
C5B C6B 1_555 1_555
C13B C14B 1_555 1_555
C21B C22B 1_555 1_555
Co3_3 O2_2 1_555 1_555
Co3B_2 O2B_2 1_555 1_555
Co3B_3 O1B_2 1_555 1_555
N7_2 N8_2 1_555 1_555

#END
