
#######################################################################
#
#                 Cambridge Crystallographic Data Centre
#                                CCDC 
#
#######################################################################
#
# If this CIF has been generated from an entry in the Cambridge 
# Structural Database, then it will include bibliographic, chemical, 
# crystal, experimental, refinement or atomic coordinate data resulting 
# from the CCDC's data processing and validation procedures.
#
#######################################################################

data_CICZOF
_symmetry_cell_setting           tetragonal
_symmetry_space_group_name_H-M   'I 41/a'
_symmetry_Int_Tables_number      88
_space_group_name_Hall           '-I 4ad'
loop_
_symmetry_equiv_pos_site_id
_symmetry_equiv_pos_as_xyz
1 x,y,z
2 3/4-y,1/4+x,1/4+z
3 1/2-x,-y,1/2+z
4 3/4+y,3/4-x,3/4+z
5 1/2+x,1/2+y,1/2+z
6 1/4-y,3/4+x,3/4+z
7 -x,1/2-y,z
8 1/4+y,1/4-x,1/4+z
9 -x,-y,-z
10 1/4+y,3/4-x,3/4-z
11 1/2+x,y,1/2-z
12 1/4-y,1/4+x,1/4-z
13 1/2-x,1/2-y,1/2-z
14 3/4+y,1/4-x,1/4-z
15 x,1/2+y,-z
16 3/4-y,3/4+x,3/4-z
_cell_length_a                   19.904(3)
_cell_length_b                   19.904(3)
_cell_length_c                   26.180(5)
_cell_angle_alpha                90
_cell_angle_beta                 90
_cell_angle_gamma                90
_cell_volume                     10371.7
loop_
_atom_site_label
_atom_site_type_symbol
_atom_site_fract_x
_atom_site_fract_y
_atom_site_fract_z
C1 C 0.19616(15) 0.54648(15) 0.85569(10)
H1 H 0.1785 0.5116 0.8752
C2 C 0.22644(17) 0.60706(16) 0.79227(11)
H2 H 0.2340 0.6218 0.7591
C3 C 0.24146(17) 0.64187(17) 0.83504(12)
H3 H 0.2609 0.6843 0.8369
C4 C 0.21953(18) 0.62357(19) 0.92907(11)
H4 H 0.2580 0.6516 0.9370
H5 H 0.2209 0.5844 0.9510
C5 C 0.15511(18) 0.66246(17) 0.93845(10)
C6 C 0.0977(2) 0.63052(17) 0.95384(12)
H6 H 0.0993 0.5850 0.9617
C7 C 0.03755(18) 0.66437(16) 0.95801(12)
H7 H -0.0003 0.6416 0.9696
C8 C 0.03254(16) 0.73188(16) 0.94524(9)
C9 C 0.09147(17) 0.76451(17) 0.93017(11)
H8 H 0.0901 0.8100 0.9222
C10 C 0.15167(17) 0.73036(17) 0.92687(11)
H9 H 0.1903 0.7531 0.9168
C11 C 0.20060(15) 0.43457(15) 0.65548(10)
H10 H 0.1783 0.4718 0.6422
C12 C 0.24377(17) 0.36374(18) 0.70739(11)
H11 H 0.2577 0.3428 0.7373
C13 C 0.25398(17) 0.33980(17) 0.65951(11)
H12 H 0.2752 0.2998 0.6506
C14 C 0.21704(16) 0.37909(16) 0.57151(10)
H13 H 0.2543 0.3544 0.5567
H14 H 0.2156 0.4232 0.5558
C15 C 0.15199(15) 0.34229(14) 0.56132(9)
C16 C 0.15264(16) 0.27577(15) 0.54584(10)
H15 H 0.1932 0.2549 0.5380
C17 C 0.09298(16) 0.24020(16) 0.54197(11)
H16 H 0.0941 0.1956 0.5314
C18 C 0.03155(14) 0.26957(14) 0.55346(9)
C19 C 0.03183(16) 0.33710(15) 0.56771(10)
H17 H -0.0086 0.3584 0.5750
C20 C 0.09100(16) 0.37289(15) 0.57118(11)
H18 H 0.0898 0.4181 0.5802
C21 C 0.15406(14) 0.37526(14) 0.82522(9)
C22 C 0.13040(13) 0.31492(14) 0.85493(9)
C23 C 0.09501(15) 0.26547(15) 0.82874(10)
H19 H 0.0847 0.2718 0.7944
C24 C 0.07496(17) 0.20703(16) 0.85302(12)
H20 H 0.0514 0.1743 0.8351
C25 C 0.09018(17) 0.19753(16) 0.90402(12)
H21 H 0.0765 0.1585 0.9206
C26 C 0.12586(15) 0.24626(15) 0.93036(10)
H22 H 0.1364 0.2393 0.9646
C27 C 0.14610(13) 0.30533(14) 0.90659(9)
C28 C 0.18078(14) 0.35858(15) 0.93751(9)
Co1 Co 0.159817(19) 0.476337(19) 0.758616(12)
N1 N 0.19833(12) 0.54678(12) 0.80536(8)
N2 N 0.22242(13) 0.60244(12) 0.87492(9)
N3 N 0.20970(12) 0.42377(12) 0.70487(8)
N4 N 0.22704(12) 0.38593(12) 0.62705(8)
O1 O 0.10956(10) 0.40826(10) 0.80031(7)
O2 O 0.21443(10) 0.38956(10) 0.82369(6)
O3 O 0.16409(10) 0.41846(10) 0.93221(7)
O4 O 0.22572(10) 0.33897(10) 0.96877(6)
C1F C -0.19616(15) 0.95352(15) 0.85569(10)
H1F H -0.1785 0.9884 0.8752
C2F C -0.22644(17) 0.89294(16) 0.79227(11)
H2F H -0.2340 0.8782 0.7591
C3F C -0.24146(17) 0.85813(17) 0.83504(12)
H3F H -0.2609 0.8157 0.8369
C4F C -0.21953(18) 0.87643(19) 0.92907(11)
H4F H -0.2580 0.8484 0.9370
H5F H -0.2209 0.9156 0.9510
C5F C -0.15511(18) 0.83754(17) 0.93845(10)
C6F C -0.0977(2) 0.86948(17) 0.95384(12)
H6F H -0.0993 0.9150 0.9617
C7F C -0.03755(18) 0.83563(16) 0.95801(12)
H7F H 0.0003 0.8584 0.9696
C8F C -0.03254(16) 0.76812(16) 0.94524(9)
C9F C -0.09147(17) 0.73549(17) 0.93017(11)
H8F H -0.0901 0.6900 0.9222
C10F C -0.15167(17) 0.76964(17) 0.92687(11)
H9F H -0.1903 0.7469 0.9168
N1F N -0.19833(12) 0.95322(12) 0.80536(8)
N2F N -0.22242(13) 0.89756(12) 0.87492(9)
C11F C -0.20060(15) 0.06543(15) 0.65548(10)
H10F H -0.1783 0.0282 0.6422
C12F C -0.24377(17) 0.13626(18) 0.70739(11)
H11F H -0.2577 0.1572 0.7373
C13F C -0.25398(17) 0.16020(17) 0.65951(11)
H12F H -0.2752 0.2002 0.6506
C14F C -0.21704(16) 0.12091(16) 0.57151(10)
H13F H -0.2543 0.1456 0.5567
H14F H -0.2156 0.0768 0.5558
C15F C -0.15199(15) 0.15771(14) 0.56132(9)
C16F C -0.15264(16) 0.22423(15) 0.54584(10)
H15F H -0.1932 0.2451 0.5380
C17F C -0.09298(16) 0.25980(16) 0.54197(11)
H16F H -0.0941 0.3044 0.5314
C18F C -0.03155(14) 0.23043(14) 0.55346(9)
C19F C -0.03183(16) 0.16290(15) 0.56771(10)
H17F H 0.0086 0.1416 0.5750
C20F C -0.09100(16) 0.12711(15) 0.57118(11)
H18F H -0.0898 0.0819 0.5802
N3F N -0.20970(12) 0.07623(12) 0.70487(8)
N4F N -0.22704(12) 0.11407(12) 0.62705(8)
C21F C -0.15406(14) 0.12474(14) 0.82522(9)
C22F C -0.13040(13) 0.18508(14) 0.85493(9)
C23F C -0.09501(15) 0.23453(15) 0.82874(10)
H19F H -0.0847 0.2282 0.7944
C24F C -0.07496(17) 0.29297(16) 0.85302(12)
H20F H -0.0514 0.3257 0.8351
C25F C -0.09018(17) 0.30247(16) 0.90402(12)
H21F H -0.0765 0.3415 0.9206
C26F C -0.12586(15) 0.25374(15) 0.93036(10)
H22F H -0.1364 0.2607 0.9646
C27F C -0.14610(13) 0.19467(14) 0.90659(9)
C28F C -0.18078(14) 0.14142(15) 0.93751(9)
Co1F Co -0.159817(19) 0.023663(19) 0.758616(12)
O1F O -0.10956(10) 0.09174(10) 0.80031(7)
O2F O -0.21443(10) 0.11044(10) 0.82369(6)
O3F O -0.16409(10) 0.08154(10) 0.93221(7)
O4F O -0.22572(10) 0.16103(10) 0.96877(6)
Co1A Co 0.273663(19) 0.409817(19) 1.008616(12)
Co1F_2 Co -0.159817(19) 1.023663(19) 0.758616(12)
Co1G Co -0.273663(19) 0.090183(19) 1.008616(12)
N1F_2 N -0.19833(12) -0.04678(12) 0.80536(8)
O4C O 0.08897(10) 0.52428(10) 0.71877(6)
O4E O -0.08897(10) -0.02428(10) 0.71877(6)
O5 O 0.03316(15) 0.44729(17) 0.88889(13)
H23 H 0.0585 0.4378 0.9140
H24 H 0.0502 0.4302 0.8621
loop_
_geom_bond_atom_site_label_1
_geom_bond_atom_site_label_2
_geom_bond_site_symmetry_1
_geom_bond_site_symmetry_2
C1 H1 1_555 1_555
C2 H2 1_555 1_555
C3 C2 1_555 1_555
H3 C3 1_555 1_555
C4 H4 1_555 1_555
H5 C4 1_555 1_555
C5 C4 1_555 1_555
C6 C5 1_555 1_555
H6 C6 1_555 1_555
C7 C6 1_555 1_555
H7 C7 1_555 1_555
C8 C7 1_555 1_555
C9 C8 1_555 1_555
H8 C9 1_555 1_555
C10 C5 1_555 1_555
H9 C10 1_555 1_555
C11 H10 1_555 1_555
C12 H11 1_555 1_555
C13 C12 1_555 1_555
H12 C13 1_555 1_555
C14 H13 1_555 1_555
H14 C14 1_555 1_555
C15 C14 1_555 1_555
C16 C15 1_555 1_555
H15 C16 1_555 1_555
C17 C16 1_555 1_555
H16 C17 1_555 1_555
C18 C17 1_555 1_555
C19 C18 1_555 1_555
H17 C19 1_555 1_555
C20 C15 1_555 1_555
H18 C20 1_555 1_555
C21 C22 1_555 1_555
C22 C23 1_555 1_555
C23 H19 1_555 1_555
C24 C23 1_555 1_555
H20 C24 1_555 1_555
C25 C24 1_555 1_555
H21 C25 1_555 1_555
C26 C25 1_555 1_555
H22 C26 1_555 1_555
C27 C22 1_555 1_555
C28 C27 1_555 1_555
Co1 N1 1_555 1_555
N1 C1 1_555 1_555
N2 C1 1_555 1_555
N3 C11 1_555 1_555
N4 C11 1_555 1_555
O1 C21 1_555 1_555
O2 C21 1_555 1_555
O3 C28 1_555 1_555
O4 C28 1_555 1_555
O5 H23 1_555 1_555
H24 O5 1_555 1_555
C1F H1F 1_555 1_555
C2F H2F 1_555 1_555
C3F C2F 1_555 1_555
H3F C3F 1_555 1_555
C4F H4F 1_555 1_555
H5F C4F 1_555 1_555
C5F C4F 1_555 1_555
C6F C5F 1_555 1_555
H6F C6F 1_555 1_555
C7F C6F 1_555 1_555
H7F C7F 1_555 1_555
C8F C8 1_555 1_555
C9F C8F 1_555 1_555
H8F C9F 1_555 1_555
C10F C5F 1_555 1_555
H9F C10F 1_555 1_555
N1F C1F 1_555 1_555
N2F C1F 1_555 1_555
C11F H10F 1_555 1_555
C12F H11F 1_555 1_555
C13F C12F 1_555 1_555
H12F C13F 1_555 1_555
C14F H13F 1_555 1_555
H14F C14F 1_555 1_555
C15F C14F 1_555 1_555
C16F C15F 1_555 1_555
H15F C16F 1_555 1_555
C17F C16F 1_555 1_555
H16F C17F 1_555 1_555
C18F C18 1_555 1_555
C19F C18F 1_555 1_555
H17F C19F 1_555 1_555
C20F C15F 1_555 1_555
H18F C20F 1_555 1_555
N3F C11F 1_555 1_555
N4F C11F 1_555 1_555
C21F C22F 1_555 1_555
C22F C23F 1_555 1_555
C23F H19F 1_555 1_555
C24F C23F 1_555 1_555
H20F C24F 1_555 1_555
C25F C24F 1_555 1_555
H21F C25F 1_555 1_555
C26F C25F 1_555 1_555
H22F C26F 1_555 1_555
C27F C22F 1_555 1_555
C28F C27F 1_555 1_555
Co1F N3F 1_555 1_555
O1F C21F 1_555 1_555
O2F C21F 1_555 1_555
O3F C28F 1_555 1_555
O4F C28F 1_555 1_555
Co1A O4 1_555 1_555
Co1F_2 N1F 1_555 1_555
Co1G O4F 1_555 1_555
N1F_2 Co1F 1_555 1_555
O4C Co1 1_555 1_555
O4E Co1F 1_555 1_555
C2 N1 1_555 1_555
C3 N2 1_555 1_555
C4 N2 1_555 1_555
C9 C10 1_555 1_555
C12 N3 1_555 1_555
C13 N4 1_555 1_555
C14 N4 1_555 1_555
C19 C20 1_555 1_555
C26 C27 1_555 1_555
Co1 N3 1_555 1_555
Co1 O1 1_555 1_555
C2F N1F 1_555 1_555
C3F N2F 1_555 1_555
C4F N2F 1_555 1_555
C7F C8F 1_555 1_555
C9F C10F 1_555 1_555
C12F N3F 1_555 1_555
C13F N4F 1_555 1_555
C14F N4F 1_555 1_555
C17F C18F 1_555 1_555
C19F C20F 1_555 1_555
C26F C27F 1_555 1_555
Co1F O1F 1_555 1_555

#END
