
#######################################################################
#
#                 Cambridge Crystallographic Data Centre
#                                CCDC 
#
#######################################################################
#
# If this CIF has been generated from an entry in the Cambridge 
# Structural Database, then it will include bibliographic, chemical, 
# crystal, experimental, refinement or atomic coordinate data resulting 
# from the CCDC's data processing and validation procedures.
#
#######################################################################

data_CIDBAU
_symmetry_cell_setting           monoclinic
_symmetry_space_group_name_H-M   'C 2/c'
_symmetry_Int_Tables_number      15
_space_group_name_Hall           '-C 2yn'
loop_
_symmetry_equiv_pos_site_id
_symmetry_equiv_pos_as_xyz
1 x,y,z
2 -x,y,1/2-z
3 1/2+x,1/2+y,z
4 1/2-x,1/2+y,1/2-z
5 -x,-y,-z
6 x,-y,1/2+z
7 1/2-x,1/2-y,-z
8 1/2+x,1/2-y,1/2+z
_cell_length_a                   17.175(5)
_cell_length_b                   12.034(3)
_cell_length_c                   8.324(2)
_cell_angle_alpha                90
_cell_angle_beta                 113.606(5)
_cell_angle_gamma                90
_cell_volume                     1576.47
loop_
_atom_site_label
_atom_site_type_symbol
_atom_site_fract_x
_atom_site_fract_y
_atom_site_fract_z
Cu1 Cu 0.2500 0.2500 0.5000
O1 O 0.16284(14) 0.34900(19) 0.3379(3)
O2 O 0.23449(15) 0.5093(2) 0.4234(3)
N1 N 0.33707(17) 0.2994(2) 0.4068(3)
C1 C 0.4172(2) 0.3199(3) 0.5145(5)
H1 H 0.4301 0.3234 0.6354
C2 C 0.4821(2) 0.3361(3) 0.4609(4)
H2 H 0.5372 0.3523 0.5433
C3 C 0.4657(2) 0.3283(3) 0.2812(4)
C4 C 0.3810(2) 0.3126(3) 0.1703(4)
H3 H 0.3655 0.3109 0.0484
C5 C 0.3197(2) 0.2996(3) 0.2344(4)
H4 H 0.2630 0.2904 0.1545
C6 C 0.1726(2) 0.4530(3) 0.3241(4)
C7 C 0.1056(2) 0.5120(3) 0.1772(5)
H5 H 0.1163 0.5866 0.1594
C8 C 0.0328(2) 0.4699(3) 0.0695(4)
H6 H 0.0226 0.3947 0.0841
O3 O 0.18477(17) 0.1039(2) 0.2711(4)
H7 H 0.208(2) 0.083(4) 0.200(6)
H8 H 0.200(2) 0.062(3) 0.340(5)
O1D O -0.16284(14) 0.65100(19) -0.3379(3)
O2D O -0.23449(15) 0.4907(2) -0.4234(3)
C6D C -0.1726(2) 0.5470(3) -0.3241(4)
C7D C -0.1056(2) 0.4880(3) -0.1772(5)
H5D H -0.1163 0.4134 -0.1594
C8D C -0.0328(2) 0.5301(3) -0.0695(4)
H6D H -0.0226 0.6053 -0.0841
N1A N 0.66293(17) 0.2994(2) 0.0932(3)
C1A C 0.5828(2) 0.3199(3) -0.0145(5)
H1A H 0.5699 0.3234 -0.1354
C2A C 0.5179(2) 0.3361(3) 0.0391(4)
H2A H 0.4628 0.3523 -0.0433
C3A C 0.5343(2) 0.3283(3) 0.2188(4)
C4A C 0.6190(2) 0.3126(3) 0.3297(4)
H3A H 0.6345 0.3109 0.4516
C5A C 0.6803(2) 0.2996(3) 0.2656(4)
H4A H 0.7370 0.2904 0.3455
O3F O 0.31523(17) 0.3961(2) 0.7289(4)
H7F H 0.292(2) 0.417(4) 0.800(6)
H8F H 0.300(2) 0.438(3) 0.660(5)
Cu1A Cu 0.7500 0.2500 0.0000
Cu1B Cu -0.2500 0.7500 -0.5000
O1F O 0.33716(14) 0.15100(19) 0.6621(3)
N1F N 0.16293(17) 0.2006(2) 0.5932(3)
loop_
_geom_bond_atom_site_label_1
_geom_bond_atom_site_label_2
_geom_bond_site_symmetry_1
_geom_bond_site_symmetry_2
Cu1 O1 1_555 1_555
O1 C6 1_555 1_555
O2 C6 1_555 1_555
N1 Cu1 1_555 1_555
C1 N1 1_555 1_555
H1 C1 1_555 1_555
C2 C1 1_555 1_555
H2 C2 1_555 1_555
C3 C2 1_555 1_555
C4 C3 1_555 1_555
H3 C4 1_555 1_555
C5 N1 1_555 1_555
H4 C5 1_555 1_555
C6 C7 1_555 1_555
C7 H5 1_555 1_555
C8 C7 1_555 1_555
H6 C8 1_555 1_555
O3 Cu1 1_555 1_555
H7 O3 1_555 1_555
H8 O3 1_555 1_555
O1D C6D 1_555 1_555
O2D C6D 1_555 1_555
C6D C7D 1_555 1_555
C7D H5D 1_555 1_555
C8D C8 1_555 1_555
H6D C8D 1_555 1_555
N1A C1A 1_555 1_555
C1A H1A 1_555 1_555
C2A C1A 1_555 1_555
H2A C2A 1_555 1_555
C3A C3 1_555 1_555
C4A C3A 1_555 1_555
H3A C4A 1_555 1_555
C5A N1A 1_555 1_555
H4A C5A 1_555 1_555
O3F Cu1 1_555 1_555
H7F O3F 1_555 1_555
H8F O3F 1_555 1_555
Cu1A N1A 1_555 1_555
Cu1B O1D 1_555 1_555
O1F Cu1 1_555 1_555
N1F Cu1 1_555 1_555
C4 C5 1_555 1_555
C7D C8D 1_555 1_555
C2A C3A 1_555 1_555
C4A C5A 1_555 1_555

#END
