
#######################################################################
#
#                 Cambridge Crystallographic Data Centre
#                                CCDC 
#
#######################################################################
#
# If this CIF has been generated from an entry in the Cambridge 
# Structural Database, then it will include bibliographic, chemical, 
# crystal, experimental, refinement or atomic coordinate data resulting 
# from the CCDC's data processing and validation procedures.
#
#######################################################################

data_CIDGEC
_symmetry_cell_setting           tetragonal
_symmetry_space_group_name_H-M   'P 4/n c c'
_symmetry_Int_Tables_number      130
_space_group_name_Hall           '-P 4a 2ac'
loop_
_symmetry_equiv_pos_site_id
_symmetry_equiv_pos_as_xyz
1 x,y,z
2 1/2-y,x,z
3 y,1/2-x,z
4 1/2+y,1/2+x,1/2-z
5 1/2-x,1/2-y,z
6 -x,1/2+y,1/2-z
7 1/2+x,-y,1/2-z
8 -y,-x,1/2-z
9 -x,-y,-z
10 1/2+y,-x,-z
11 -y,1/2+x,-z
12 1/2-y,1/2-x,1/2+z
13 1/2+x,1/2+y,-z
14 x,1/2-y,1/2+z
15 1/2-x,y,1/2+z
16 y,x,1/2+z
_cell_length_a                   14.7260(10)
_cell_length_b                   14.7260(10)
_cell_length_c                   17.899(3)
_cell_angle_alpha                90
_cell_angle_beta                 90
_cell_angle_gamma                90
_cell_volume                     3881.49
loop_
_atom_site_label
_atom_site_type_symbol
_atom_site_fract_x
_atom_site_fract_y
_atom_site_fract_z
Fe1 Fe 0.7500 0.2500 0.7500
S1 S 0.5178(3) 0.4822(3) 0.7500
C1 C 0.5966(11) 0.4034(11) 0.7500
N1 N 0.6506(8) 0.3494(8) 0.7500
N2 N 0.6713(9) 0.1793(8) 0.6620(5)
C2 C 0.7115(11) 0.1362(11) 0.6046(9)
H1 H 0.7746 0.1342 0.6041
C3 C 0.6668(12) 0.0954(11) 0.5470(9)
H2 H 0.6993 0.0694 0.5079
C4 C 0.5745(12) 0.0927(10) 0.5469(7)
C5 C 0.5311(10) 0.1416(10) 0.6033(9)
H3 H 0.4681 0.1468 0.6032
C6 C 0.5808(11) 0.1822(11) 0.6589(8)
H4 H 0.5499 0.2134 0.6962
C7 C 0.5194(11) 0.0455(11) 0.4865(8)
O1 O 0.5819(8) 0.0288(8) 0.4269(5)
H5 H 0.5537 0.0169 0.3886
C8 C 0.4442(12) 0.1050(12) 0.4558(9)
H6 H 0.4121 0.0727 0.4174
H7 H 0.4699 0.1595 0.4353
H8 H 0.4029 0.1205 0.4953
Fe1L Fe 0.2500 -0.2500 0.2500
Fe1L_2 Fe 0.2500 -0.2500 1.2500
S1C S 0.9822(3) 0.0178(3) 0.7500
C1C C 0.9034(11) 0.0966(11) 0.7500
N1C N 0.8494(8) 0.1506(8) 0.7500
N2H N 0.3287(9) -0.1793(8) 0.3380(5)
N2C N 0.6793(8) 0.1713(9) 0.8380(5)
N2K N 0.3207(8) -0.1713(9) 1.1620(5)
N2D N 0.8287(9) 0.3207(8) 0.6620(5)
N2G N 0.8207(8) 0.3287(9) 0.8380(5)
C2H C 0.2885(11) -0.1362(11) 0.3954(9)
C2C C 0.6362(11) 0.2115(11) 0.8954(9)
C2K C 0.3638(11) -0.2115(11) 1.1046(9)
H1H H 0.2254 -0.1342 0.3959
H1C H 0.6342 0.2746 0.8959
H1K H 0.3658 -0.2746 1.1041
C3H C 0.3332(12) -0.0954(11) 0.4530(9)
C3C C 0.5954(11) 0.1668(12) 0.9530(9)
C3K C 0.4046(11) -0.1668(12) 1.0470(9)
H2H H 0.3007 -0.0694 0.4921
H2C H 0.5694 0.1993 0.9921
H2K H 0.4306 -0.1993 1.0079
C4H C 0.4255(12) -0.0927(10) 0.4531(7)
C4C C 0.5927(10) 0.0745(12) 0.9531(7)
C4K C 0.4073(10) -0.0745(12) 1.0469(7)
C5H C 0.4689(10) -0.1416(10) 0.3967(9)
C5C C 0.6416(10) 0.0311(10) 0.8967(9)
C5K C 0.3584(10) -0.0311(10) 1.1033(9)
H3H H 0.5319 -0.1468 0.3968
H3C H 0.6468 -0.0319 0.8968
H3K H 0.3532 0.0319 1.1032
C6H C 0.4192(11) -0.1822(11) 0.3411(8)
C6C C 0.6822(11) 0.0808(11) 0.8411(8)
C6K C 0.3178(11) -0.0808(11) 1.1589(8)
H4H H 0.4501 -0.2134 0.3038
H4C H 0.7134 0.0499 0.8038
H4K H 0.2866 -0.0499 1.1962
C7H C 0.4806(11) -0.0455(11) 0.5135(8)
C7C C 0.5455(11) 0.0194(11) 1.0135(8)
C7K C 0.4545(11) -0.0194(11) 0.9865(8)
O1H O 0.4181(8) -0.0288(8) 0.5731(5)
O1C O 0.5288(8) 0.0819(8) 1.0731(5)
O1K O 0.4712(8) -0.0819(8) 0.9269(5)
H5H H 0.4463 -0.0169 0.6114
H5C H 0.5169 0.0537 1.1114
H5K H 0.4831 -0.0537 0.8886
C8H C 0.5558(12) -0.1050(12) 0.5442(9)
C8C C 0.6050(12) -0.0558(12) 1.0442(9)
C8K C 0.3950(12) 0.0558(12) 0.9558(9)
H6H H 0.5879 -0.0727 0.5826
H6C H 0.5727 -0.0879 1.0826
H6K H 0.4273 0.0879 0.9174
H7H H 0.5301 -0.1595 0.5647
H7C H 0.6595 -0.0301 1.0647
H7K H 0.3405 0.0301 0.9353
H8H H 0.5971 -0.1205 0.5047
H8C H 0.6205 -0.0971 1.0047
H8K H 0.3795 0.0971 0.9953
loop_
_geom_bond_atom_site_label_1
_geom_bond_atom_site_label_2
_geom_bond_site_symmetry_1
_geom_bond_site_symmetry_2
Fe1 N1 1_555 1_555
S1 C1 1_555 1_555
C1 N1 1_555 1_555
N2 Fe1 1_555 1_555
C2 N2 1_555 1_555
H1 C2 1_555 1_555
C3 C2 1_555 1_555
H2 C3 1_555 1_555
C4 C3 1_555 1_555
C5 C4 1_555 1_555
H3 C5 1_555 1_555
C6 N2 1_555 1_555
H4 C6 1_555 1_555
C7 C4 1_555 1_555
O1 C7 1_555 1_555
H5 O1 1_555 1_555
C8 C7 1_555 1_555
H6 C8 1_555 1_555
H7 C8 1_555 1_555
H8 C8 1_555 1_555
Fe1L N2H 1_555 1_555
Fe1L_2 N2K 1_555 1_555
S1C C1C 1_555 1_555
C1C N1C 1_555 1_555
N1C Fe1 1_555 1_555
N2H C2H 1_555 1_555
N2C Fe1 1_555 1_555
N2K C2K 1_555 1_555
N2D Fe1 1_555 1_555
N2G Fe1 1_555 1_555
C2H H1H 1_555 1_555
C2C N2C 1_555 1_555
C2K H1K 1_555 1_555
H1C C2C 1_555 1_555
C3H C2H 1_555 1_555
C3C C2C 1_555 1_555
C3K C2K 1_555 1_555
H2H C3H 1_555 1_555
H2C C3C 1_555 1_555
H2K C3K 1_555 1_555
C4H C3H 1_555 1_555
C4C C3C 1_555 1_555
C4K C3K 1_555 1_555
C5H C4H 1_555 1_555
C5C C4C 1_555 1_555
C5K C4K 1_555 1_555
H3H C5H 1_555 1_555
H3C C5C 1_555 1_555
H3K C5K 1_555 1_555
C6H N2H 1_555 1_555
C6C N2C 1_555 1_555
C6K N2K 1_555 1_555
H4H C6H 1_555 1_555
H4C C6C 1_555 1_555
H4K C6K 1_555 1_555
C7H C7 1_555 1_555
C7C C4C 1_555 1_555
C7K C4K 1_555 1_555
O1H C7H 1_555 1_555
O1C C7C 1_555 1_555
O1K C7K 1_555 1_555
H5H O1H 1_555 1_555
H5C O1C 1_555 1_555
H5K O1K 1_555 1_555
C8H C7H 1_555 1_555
C8C C7C 1_555 1_555
C8K C7K 1_555 1_555
H6H C8H 1_555 1_555
H6C C8C 1_555 1_555
H6K C8K 1_555 1_555
H7H C8H 1_555 1_555
H7C C8C 1_555 1_555
H7K C8K 1_555 1_555
H8H C8H 1_555 1_555
H8C C8C 1_555 1_555
H8K C8K 1_555 1_555
C5 C6 1_555 1_555
C4H C7H 1_555 1_555
C5H C6H 1_555 1_555
C5C C6C 1_555 1_555
C5K C6K 1_555 1_555
C7C C7K 1_555 1_555

#END
