
#######################################################################
#
#                 Cambridge Crystallographic Data Centre
#                                CCDC 
#
#######################################################################
#
# If this CIF has been generated from an entry in the Cambridge 
# Structural Database, then it will include bibliographic, chemical, 
# crystal, experimental, refinement or atomic coordinate data resulting 
# from the CCDC's data processing and validation procedures.
#
#######################################################################

data_CIDVIV
_symmetry_cell_setting           monoclinic
_symmetry_space_group_name_H-M   'P 21/c'
_symmetry_Int_Tables_number      14
_space_group_name_Hall           '-P 2ybc'
loop_
_symmetry_equiv_pos_site_id
_symmetry_equiv_pos_as_xyz
1 x,y,z
2 -x,1/2+y,1/2-z
3 -x,-y,-z
4 x,1/2-y,1/2+z
_cell_length_a                   17.724(3)
_cell_length_b                   11.2234(10)
_cell_length_c                   19.6969(10)
_cell_angle_alpha                90
_cell_angle_beta                 106.593(8)
_cell_angle_gamma                90
_cell_volume                     3755.01
loop_
_atom_site_label
_atom_site_type_symbol
_atom_site_fract_x
_atom_site_fract_y
_atom_site_fract_z
Co1 Co 0.18854(3) 0.00145(5) 0.29753(3)
Na1 Na -0.00022(10) -0.25109(17) 0.01879(8)
O1 O 0.26673(16) -0.0889(3) 0.28393(15)
O2 O 0.26619(16) 0.0950(3) 0.34969(16)
O3 O 0.06911(16) -0.1477(3) 0.11612(14)
O4 O 0.06953(16) 0.1454(3) 0.41960(14)
O5 O 0.0267(3) -0.3948(4) -0.0515(2)
O6 O -0.0281(3) -0.1059(4) -0.0657(2)
N1 N 0.10906(18) -0.0756(3) 0.22915(16)
N2 N 0.10905(18) 0.0755(3) 0.32629(16)
C1 C 0.3304(2) -0.2547(4) 0.2510(2)
C2 C 0.3274(3) -0.3450(5) 0.2031(2)
C3 C 0.2622(2) -0.3694(4) 0.1456(2)
C4 C 0.1973(2) -0.2969(4) 0.1378(2)
C5 C 0.1955(2) -0.2062(4) 0.18535(19)
C6 C 0.2632(2) -0.1819(4) 0.2415(2)
C7 C 0.1206(2) -0.1400(4) 0.17421(19)
C8 C 0.0321(2) -0.0403(4) 0.2315(2)
C9 C -0.0390(2) -0.0827(4) 0.1871(2)
C10 C -0.1094(3) -0.0413(5) 0.1964(3)
C11 C -0.1095(3) 0.0411(5) 0.2474(3)
C12 C -0.0386(2) 0.0820(4) 0.2928(2)
C13 C 0.0321(2) 0.0397(4) 0.2848(2)
C14 C 0.1208(2) 0.1390(3) 0.38773(19)
C15 C 0.1951(2) 0.2077(3) 0.41440(19)
C16 C 0.2616(2) 0.1865(4) 0.3909(2)
C17 C 0.3279(2) 0.2620(4) 0.4151(2)
C18 C 0.3251(3) 0.3506(4) 0.4628(2)
C19 C 0.2608(2) 0.3712(4) 0.4884(2)
C20 C 0.1968(2) 0.2966(4) 0.4632(2)
C21 C 0.4056(3) -0.2298(6) 0.3121(3)
C22 C 0.4681(4) -0.3265(7) 0.3158(4)
H1 H 0.4808 -0.3294 0.2716
H2 H 0.4480 -0.4024 0.3249
H3 H 0.5147 -0.3079 0.3533
C23 C 0.4400(4) -0.1107(7) 0.2951(4)
H4 H 0.4507 -0.1167 0.2501
H5 H 0.4880 -0.0936 0.3313
H6 H 0.4028 -0.0478 0.2934
C24 C 0.3883(4) -0.2252(9) 0.3821(3)
H7 H 0.4360 -0.2090 0.4188
H8 H 0.3672 -0.3004 0.3911
H9 H 0.3506 -0.1634 0.3812
C25 C 0.2609(3) -0.4692(4) 0.0917(3)
C26 C 0.3364(4) -0.5403(7) 0.1102(4)
H10 H 0.3331 -0.6010 0.0751
H11 H 0.3443 -0.5767 0.1558
H12 H 0.3798 -0.4883 0.1114
C27 C 0.2461(5) -0.4158(6) 0.0177(3)
H13 H 0.1983 -0.3701 0.0062
H14 H 0.2414 -0.4787 -0.0163
H15 H 0.2893 -0.3649 0.0166
C28 C 0.1934(4) -0.5551(6) 0.0915(4)
H16 H 0.1445 -0.5122 0.0795
H17 H 0.2025 -0.5899 0.1377
H18 H 0.1910 -0.6169 0.0573
C29 C 0.2595(3) 0.4694(4) 0.5420(2)
C30 C 0.1907(4) 0.5533(5) 0.5081(3)
H19 H 0.1885 0.6155 0.5409
H20 H 0.1423 0.5092 0.4963
H21 H 0.1983 0.5877 0.4659
C31 C 0.2479(4) 0.4151(6) 0.6090(3)
H22 H 0.2470 0.4773 0.6422
H23 H 0.2904 0.3613 0.6296
H24 H 0.1989 0.3724 0.5975
C32 C 0.3346(4) 0.5428(6) 0.5619(4)
H25 H 0.3310 0.6028 0.5956
H26 H 0.3415 0.5802 0.5203
H27 H 0.3786 0.4918 0.5825
C33 C 0.4018(3) 0.2431(7) 0.3900(3)
C34 C 0.3805(5) 0.2453(9) 0.3101(4)
H28 H 0.4270 0.2328 0.2952
H29 H 0.3578 0.3212 0.2931
H30 H 0.3430 0.1834 0.2911
C35 C 0.4398(4) 0.1249(7) 0.4201(5)
H31 H 0.4859 0.1116 0.4049
H32 H 0.4030 0.0612 0.4035
H33 H 0.4542 0.1277 0.4709
C36 C 0.4639(4) 0.3412(8) 0.4192(4)
H34 H 0.5093 0.3271 0.4030
H35 H 0.4790 0.3399 0.4701
H36 H 0.4419 0.4177 0.4027
H37 H 0.151(2) 0.309(3) 0.4772(19)
H38 H 0.370(2) -0.396(4) 0.209(2)
H39 H -0.037(2) -0.140(4) 0.154(2)
H40 H -0.039(2) 0.143(4) 0.325(2)
H41 H 0.369(3) 0.407(4) 0.478(2)
H42 H -0.159(3) -0.075(4) 0.169(2)
H43 H -0.159(3) 0.075(5) 0.252(3)
H44 H 0.152(3) -0.314(4) 0.100(2)
Na1A Na 0.00022(10) 0.24891(17) 0.48121(8)
O4A O -0.06953(16) -0.3546(3) 0.08040(14)
loop_
_geom_bond_atom_site_label_1
_geom_bond_atom_site_label_2
_geom_bond_site_symmetry_1
_geom_bond_site_symmetry_2
Co1 O1 1_555 1_555
Na1 O3 1_555 1_555
O1 C6 1_555 1_555
O2 Co1 1_555 1_555
O3 C7 1_555 1_555
O4 C14 1_555 1_555
O5 Na1 1_555 1_555
O6 Na1 1_555 1_555
N1 Co1 1_555 1_555
N2 Co1 1_555 1_555
C1 C2 1_555 1_555
C2 C3 1_555 1_555
C3 C4 1_555 1_555
C4 C5 1_555 1_555
C5 C6 1_555 1_555
C6 C1 1_555 1_555
C7 N1 1_555 1_555
C8 N1 1_555 1_555
C9 C8 1_555 1_555
C10 C9 1_555 1_555
C11 C10 1_555 1_555
C12 C11 1_555 1_555
C13 N2 1_555 1_555
C14 N2 1_555 1_555
C15 C14 1_555 1_555
C16 O2 1_555 1_555
C17 C16 1_555 1_555
C18 C17 1_555 1_555
C19 C18 1_555 1_555
C20 C15 1_555 1_555
C21 C1 1_555 1_555
C22 C21 1_555 1_555
H1 C22 1_555 1_555
H2 C22 1_555 1_555
H3 C22 1_555 1_555
C23 C21 1_555 1_555
H4 C23 1_555 1_555
H5 C23 1_555 1_555
H6 C23 1_555 1_555
C24 C21 1_555 1_555
H7 C24 1_555 1_555
H8 C24 1_555 1_555
H9 C24 1_555 1_555
C25 C3 1_555 1_555
C26 C25 1_555 1_555
H10 C26 1_555 1_555
H11 C26 1_555 1_555
H12 C26 1_555 1_555
C27 C25 1_555 1_555
H13 C27 1_555 1_555
H14 C27 1_555 1_555
H15 C27 1_555 1_555
C28 C25 1_555 1_555
H16 C28 1_555 1_555
H17 C28 1_555 1_555
H18 C28 1_555 1_555
C29 C19 1_555 1_555
C30 C29 1_555 1_555
H19 C30 1_555 1_555
H20 C30 1_555 1_555
H21 C30 1_555 1_555
C31 C29 1_555 1_555
H22 C31 1_555 1_555
H23 C31 1_555 1_555
H24 C31 1_555 1_555
C32 C29 1_555 1_555
H25 C32 1_555 1_555
H26 C32 1_555 1_555
H27 C32 1_555 1_555
C33 C17 1_555 1_555
C34 C33 1_555 1_555
H28 C34 1_555 1_555
H29 C34 1_555 1_555
H30 C34 1_555 1_555
C35 C33 1_555 1_555
H31 C35 1_555 1_555
H32 C35 1_555 1_555
H33 C35 1_555 1_555
C36 C33 1_555 1_555
H34 C36 1_555 1_555
H35 C36 1_555 1_555
H36 C36 1_555 1_555
H37 C20 1_555 1_555
H38 C2 1_555 1_555
H39 C9 1_555 1_555
H40 C12 1_555 1_555
H41 C18 1_555 1_555
H42 C10 1_555 1_555
H43 C11 1_555 1_555
H44 C4 1_555 1_555
Na1A O4 1_555 1_555
O4A Na1 1_555 1_555
C5 C7 1_555 1_555
C8 C13 1_555 1_555
C12 C13 1_555 1_555
C15 C16 1_555 1_555
C19 C20 1_555 1_555

#END
