
#######################################################################
#
#                 Cambridge Crystallographic Data Centre
#                                CCDC 
#
#######################################################################
#
# If this CIF has been generated from an entry in the Cambridge 
# Structural Database, then it will include bibliographic, chemical, 
# crystal, experimental, refinement or atomic coordinate data resulting 
# from the CCDC's data processing and validation procedures.
#
#######################################################################

data_CIDZIA
_symmetry_cell_setting           triclinic
_symmetry_space_group_name_H-M   'P -1'
_symmetry_Int_Tables_number      2
_space_group_name_Hall           '-P 1'
loop_
_symmetry_equiv_pos_site_id
_symmetry_equiv_pos_as_xyz
1 x,y,z
2 -x,-y,-z
_cell_length_a                   9.7481(8)
_cell_length_b                   10.3759(9)
_cell_length_c                   15.8213(14)
_cell_angle_alpha                95.2340(10)
_cell_angle_beta                 95.1930(10)
_cell_angle_gamma                116.1770(10)
_cell_volume                     1414.74
loop_
_atom_site_label
_atom_site_type_symbol
_atom_site_fract_x
_atom_site_fract_y
_atom_site_fract_z
Ni1 Ni 0.0000 0.0000 0.0000
O1 O 0.0058(2) -0.1264(2) -0.10682(12)
O2 O -0.1356(2) -0.1889(3) 0.04430(15)
H1 H -0.149(5) -0.149(4) 0.084(3)
H2 H -0.117(4) -0.251(4) 0.049(2)
C1 C 0.1043(3) -0.0895(3) -0.15795(15)
N1 N -0.2093(3) -1.0088(2) -0.05625(14)
Ni2 Ni 0.5000 0.0000 -0.5000
O3 O 0.1963(2) 0.0393(2) -0.16384(12)
O4 O 0.4766(3) -0.1891(2) -0.56964(14)
H3 H 0.546(5) -0.192(4) -0.573(3)
H4 H 0.421(5) -0.265(5) -0.538(3)
N2 N 0.2849(3) -0.0479(3) -0.57554(15)
C2 C 0.1146(3) -0.2080(3) -0.21441(16)
O5 O 0.3837(2) -0.1089(2) -0.40902(12)
N3 N -0.1458(3) -0.2638(3) -0.48772(17)
H5 H -0.0636 -0.2650 -0.4639
C3 C 0.0481(4) -0.3495(3) -0.1973(2)
H6 H -0.0082 -0.3730 -0.1518
O6 O 0.3080(3) -0.3416(3) -0.45726(18)
N4 N -0.4861(3) -0.7346(2) -0.11438(16)
H7 H -0.5669 -0.8158 -0.1321
C4 C 0.0649(5) -0.4560(4) -0.2476(3)
H8 H 0.0192 -0.5510 -0.2361
O7 O -0.2501(2) -0.1911(3) -0.59382(14)
C5 C 0.1492(5) -0.4222(4) -0.3150(2)
H9 H 0.1612 -0.4944 -0.3480
C6 C 0.2158(3) -0.2815(3) -0.33361(18)
O8 O -0.2301(3) -0.6261(3) -0.0690(2)
C7 C 0.1971(3) -0.1752(3) -0.28339(16)
H10 H 0.2403 -0.0807 -0.2960
C8 C 0.3100(3) -0.2425(3) -0.40593(18)
C9 C 0.2786(3) -0.0372(4) -0.6588(2)
H11 H 0.3701 -0.0047 -0.6823
C10 C 0.1439(4) -0.0716(5) -0.7119(2)
H12 H 0.1452 -0.0599 -0.7694
C11 C 0.0069(3) -0.1236(4) -0.6785(2)
H13 H -0.0855 -0.1456 -0.7127
C12 C 0.0092(3) -0.1424(3) -0.59336(18)
C13 C 0.1506(3) -0.1005(3) -0.54399(17)
H14 H 0.1526 -0.1093 -0.4860
C14 C -0.1400(3) -0.2019(3) -0.55784(17)
C15 C -0.2870(3) -0.3298(4) -0.4497(2)
H15 H -0.3645 -0.4116 -0.4897
H16 H -0.3264 -0.2596 -0.4393
C16 C -0.2604(4) -0.3807(4) -0.3669(2)
H17 H -0.1794 -0.2996 -0.3281
H18 H -0.2250 -0.4537 -0.3779
C17 C -0.4042(4) -0.4439(4) -0.3241(2)
H19 H -0.4860 -0.5228 -0.3638
H20 H -0.4375 -0.3697 -0.3117
C18 C -0.3817(3) -0.5006(3) -0.2414(2)
H21 H -0.2985 -0.4226 -0.2019
H22 H -0.3514 -0.5769 -0.2537
C19 C -0.5268(3) -0.5598(3) -0.1988(2)
H23 H -0.5641 -0.4873 -0.1931
H24 H -0.6062 -0.6449 -0.2357
C20 C -0.5028(3) -0.6006(3) -0.1110(2)
H25 H -0.4108 -0.5218 -0.0775
H26 H -0.5900 -0.6122 -0.0818
C21 C -0.3540(3) -0.7375(3) -0.0917(2)
C22 C -0.3240(4) -1.1311(3) -0.1001(2)
H27 H -0.3139 -1.2163 -0.1024
C23 C -0.4561(4) -1.1355(4) -0.1419(3)
H28 H -0.5340 -1.2227 -0.1714
C24 C -0.4725(4) -1.0101(3) -0.1398(2)
H29 H -0.5612 -1.0113 -0.1678
C25 C -0.3549(3) -0.8825(3) -0.09536(19)
C26 C -0.2270(3) -0.8887(3) -0.05357(18)
H30 H -0.1492 -0.8038 -0.0218
N1A N 0.2093(3) 0.0088(2) 0.05625(14)
N2A N -0.2849(3) -0.9521(3) 0.57554(15)
N3A N 0.1458(3) -0.7362(3) 0.48772(17)
H5A H 0.0636 -0.7350 0.4639
N4A N 0.4861(3) -0.2654(2) 0.11438(16)
H7A H 0.5669 -0.1842 0.1321
O7A O 0.2501(2) -0.8089(3) 0.59382(14)
O8A O 0.2301(3) -0.3739(3) 0.0690(2)
C9A C -0.2786(3) -0.9628(4) 0.6588(2)
H11A H -0.3701 -0.9953 0.6823
C10A C -0.1439(4) -0.9284(5) 0.7119(2)
H12A H -0.1452 -0.9401 0.7694
C11A C -0.0069(3) -0.8764(4) 0.6785(2)
H13A H 0.0855 -0.8544 0.7127
C12A C -0.0092(3) -0.8576(3) 0.59336(18)
C13A C -0.1506(3) -0.8995(3) 0.54399(17)
H14A H -0.1526 -0.8907 0.4860
C14A C 0.1400(3) -0.7981(3) 0.55784(17)
C15A C 0.2870(3) -0.6702(4) 0.4497(2)
H15A H 0.3645 -0.5884 0.4897
H16A H 0.3264 -0.7404 0.4393
C16A C 0.2604(4) -0.6193(4) 0.3669(2)
H17A H 0.1794 -0.7004 0.3281
H18A H 0.2250 -0.5463 0.3779
C17A C 0.4042(4) -0.5561(4) 0.3241(2)
H19A H 0.4860 -0.4772 0.3638
H20A H 0.4375 -0.6303 0.3117
C18A C 0.3817(3) -0.4994(3) 0.2414(2)
H21A H 0.2985 -0.5774 0.2019
H22A H 0.3514 -0.4231 0.2537
C19A C 0.5268(3) -0.4402(3) 0.1988(2)
H23A H 0.5641 -0.5127 0.1931
H24A H 0.6062 -0.3551 0.2357
C20A C 0.5028(3) -0.3994(3) 0.1110(2)
H25A H 0.4108 -0.4782 0.0775
H26A H 0.5900 -0.3878 0.0818
C21A C 0.3540(3) -0.2625(3) 0.0917(2)
C22A C 0.3240(4) 0.1311(3) 0.1001(2)
H27A H 0.3139 0.2163 0.1024
C23A C 0.4561(4) 0.1355(4) 0.1419(3)
H28A H 0.5340 0.2227 0.1714
C24A C 0.4725(4) 0.0101(3) 0.1398(2)
H29A H 0.5612 0.0113 0.1678
C25A C 0.3549(3) -0.1175(3) 0.09536(19)
C26A C 0.2270(3) -0.1113(3) 0.05357(18)
H30A H 0.1492 -0.1962 0.0218
O1A O -0.0058(2) 0.1264(2) 0.10682(12)
C1A C -0.1043(3) 0.0895(3) 0.15795(15)
O3A O -0.1963(2) -0.0393(2) 0.16384(12)
C2A C -0.1146(3) 0.2080(3) 0.21441(16)
O5A O -0.3837(2) 0.1089(2) 0.40902(12)
C3A C -0.0481(4) 0.3495(3) 0.1973(2)
H6A H 0.0082 0.3730 0.1518
O6A O -0.3080(3) 0.3416(3) 0.45726(18)
C4A C -0.0649(5) 0.4560(4) 0.2476(3)
H8A H -0.0192 0.5510 0.2361
C5A C -0.1492(5) 0.4222(4) 0.3150(2)
H9A H -0.1612 0.4944 0.3480
C6A C -0.2158(3) 0.2815(3) 0.33361(18)
C7A C -0.1971(3) 0.1752(3) 0.28339(16)
H10A H -0.2403 0.0807 0.2960
C8A C -0.3100(3) 0.2425(3) 0.40593(18)
O2A O 0.1356(2) 0.1889(3) -0.04430(15)
H1A H 0.149(5) 0.149(4) -0.084(3)
H2A H 0.117(4) 0.251(4) -0.049(2)
O4A O 0.5234(3) 0.1891(2) -0.43036(14)
H3A H 0.454(5) 0.192(4) -0.427(3)
H4A H 0.579(5) 0.265(5) -0.462(3)
Ni1_2 Ni 0.0000 -1.0000 0.0000
N1_2 N -0.2093(3) -0.0088(2) -0.05625(14)
Ni2_2 Ni -0.5000 -1.0000 0.5000
Ni2_3 Ni -0.5000 0.0000 0.5000
N2A_2 N 0.7151(3) 0.0479(3) -0.42446(15)
O5A_2 O 0.6163(2) 0.1089(2) -0.59098(12)
O9 O -0.0781(4) -0.4117(3) 0.0688(2)
H31 H -0.159(6) -0.449(5) 0.088(3)
H32 H 0.024(6) -0.390(5) 0.070(3)
loop_
_geom_bond_atom_site_label_1
_geom_bond_atom_site_label_2
_geom_bond_site_symmetry_1
_geom_bond_site_symmetry_2
Ni1 O1 1_555 1_555
O1 C1 1_555 1_555
O2 Ni1 1_555 1_555
H1 O2 1_555 1_555
H2 O2 1_555 1_555
C1 O3 1_555 1_555
N1 C22 1_555 1_555
Ni2 O4 1_555 1_555
O4 H3 1_555 1_555
H4 O4 1_555 1_555
N2 Ni2 1_555 1_555
C2 C1 1_555 1_555
O5 Ni2 1_555 1_555
N3 H5 1_555 1_555
C3 C2 1_555 1_555
H6 C3 1_555 1_555
O6 C8 1_555 1_555
N4 H7 1_555 1_555
C4 C3 1_555 1_555
H8 C4 1_555 1_555
O7 C14 1_555 1_555
C5 C4 1_555 1_555
H9 C5 1_555 1_555
C6 C5 1_555 1_555
O8 C21 1_555 1_555
C7 C2 1_555 1_555
H10 C7 1_555 1_555
C8 O5 1_555 1_555
C9 N2 1_555 1_555
H11 C9 1_555 1_555
C10 C9 1_555 1_555
H12 C10 1_555 1_555
C11 C10 1_555 1_555
H13 C11 1_555 1_555
C12 C11 1_555 1_555
C13 N2 1_555 1_555
H14 C13 1_555 1_555
C14 N3 1_555 1_555
C15 N3 1_555 1_555
H15 C15 1_555 1_555
H16 C15 1_555 1_555
C16 C15 1_555 1_555
H17 C16 1_555 1_555
H18 C16 1_555 1_555
C17 C16 1_555 1_555
H19 C17 1_555 1_555
H20 C17 1_555 1_555
C18 C17 1_555 1_555
H21 C18 1_555 1_555
H22 C18 1_555 1_555
C19 C18 1_555 1_555
H23 C19 1_555 1_555
H24 C19 1_555 1_555
C20 N4 1_555 1_555
H25 C20 1_555 1_555
H26 C20 1_555 1_555
C21 N4 1_555 1_555
C22 H27 1_555 1_555
C23 C22 1_555 1_555
H28 C23 1_555 1_555
C24 C23 1_555 1_555
H29 C24 1_555 1_555
C25 C21 1_555 1_555
C26 N1 1_555 1_555
H30 C26 1_555 1_555
O9 H31 1_555 1_555
H32 O9 1_555 1_555
N1A Ni1 1_555 1_555
N2A C9A 1_555 1_555
N3A H5A 1_555 1_555
N4A H7A 1_555 1_555
O7A C14A 1_555 1_555
O8A C21A 1_555 1_555
C9A H11A 1_555 1_555
C10A C9A 1_555 1_555
H12A C10A 1_555 1_555
C11A C10A 1_555 1_555
H13A C11A 1_555 1_555
C12A C11A 1_555 1_555
C13A N2A 1_555 1_555
H14A C13A 1_555 1_555
C14A N3A 1_555 1_555
C15A N3A 1_555 1_555
H15A C15A 1_555 1_555
H16A C15A 1_555 1_555
C16A C15A 1_555 1_555
H17A C16A 1_555 1_555
H18A C16A 1_555 1_555
C17A C16A 1_555 1_555
H19A C17A 1_555 1_555
H20A C17A 1_555 1_555
C18A C17A 1_555 1_555
H21A C18A 1_555 1_555
H22A C18A 1_555 1_555
C19A C18A 1_555 1_555
H23A C19A 1_555 1_555
H24A C19A 1_555 1_555
C20A N4A 1_555 1_555
H25A C20A 1_555 1_555
H26A C20A 1_555 1_555
C21A N4A 1_555 1_555
C22A N1A 1_555 1_555
H27A C22A 1_555 1_555
C23A C22A 1_555 1_555
H28A C23A 1_555 1_555
C24A C23A 1_555 1_555
H29A C24A 1_555 1_555
C25A C21A 1_555 1_555
C26A N1A 1_555 1_555
H30A C26A 1_555 1_555
O1A Ni1 1_555 1_555
C1A O1A 1_555 1_555
O3A C1A 1_555 1_555
C2A C1A 1_555 1_555
O5A C8A 1_555 1_555
C3A C2A 1_555 1_555
H6A C3A 1_555 1_555
O6A C8A 1_555 1_555
C4A C3A 1_555 1_555
H8A C4A 1_555 1_555
C5A C4A 1_555 1_555
H9A C5A 1_555 1_555
C6A C5A 1_555 1_555
C7A C2A 1_555 1_555
H10A C7A 1_555 1_555
C8A C6A 1_555 1_555
O2A Ni1 1_555 1_555
H1A O2A 1_555 1_555
H2A O2A 1_555 1_555
O4A Ni2 1_555 1_555
H3A O4A 1_555 1_555
H4A O4A 1_555 1_555
Ni1_2 N1 1_555 1_555
N1_2 Ni1 1_555 1_555
Ni2_2 N2A 1_555 1_555
Ni2_3 O5A 1_555 1_555
N2A_2 Ni2 1_555 1_555
O5A_2 Ni2 1_555 1_555
C6 C7 1_555 1_555
C6 C8 1_555 1_555
C12 C13 1_555 1_555
C12 C14 1_555 1_555
C19 C20 1_555 1_555
C24 C25 1_555 1_555
C25 C26 1_555 1_555
C12A C13A 1_555 1_555
C12A C14A 1_555 1_555
C19A C20A 1_555 1_555
C24A C25A 1_555 1_555
C25A C26A 1_555 1_555
C6A C7A 1_555 1_555

#END
