
#######################################################################
#
#                 Cambridge Crystallographic Data Centre
#                                CCDC 
#
#######################################################################
#
# If this CIF has been generated from an entry in the Cambridge 
# Structural Database, then it will include bibliographic, chemical, 
# crystal, experimental, refinement or atomic coordinate data resulting 
# from the CCDC's data processing and validation procedures.
#
#######################################################################

data_CIDZOG
_symmetry_cell_setting           monoclinic
_symmetry_space_group_name_H-M   'C 2/m'
_symmetry_Int_Tables_number      12
_space_group_name_Hall           '-C 2y'
loop_
_symmetry_equiv_pos_site_id
_symmetry_equiv_pos_as_xyz
1 x,y,z
2 -x,y,-z
3 1/2+x,1/2+y,z
4 1/2-x,1/2+y,-z
5 -x,-y,-z
6 x,-y,z
7 1/2-x,1/2-y,-z
8 1/2+x,1/2-y,z
_cell_length_a                   10.9037(7)
_cell_length_b                   30.1470(19)
_cell_length_c                   7.7824(5)
_cell_angle_alpha                90
_cell_angle_beta                 118.2570(10)
_cell_angle_gamma                90
_cell_volume                     2253.33
loop_
_atom_site_label
_atom_site_type_symbol
_atom_site_fract_x
_atom_site_fract_y
_atom_site_fract_z
Ni1 Ni 0.0000 0.128731(7) 1.0000
N1 N 0.21623(13) 0.12518(4) 1.09682(19)
O1 O 0.02510(17) 0.17670(4) 1.1991(2)
H1 H 0.001(3) 0.2011(10) 1.203(4)
H2 H 0.062(3) 0.1656(10) 1.307(4)
O2 O 0.45894(12) 0.23605(4) 1.2004(2)
C1 C 0.27677(15) 0.08506(5) 1.1365(2)
H3 H 0.2207 0.0600 1.1076
N2 N 0.66015(13) 0.19824(4) 1.3653(2)
H4 H 0.6987 0.1728 1.4051
C2 C 0.41875(16) 0.07961(5) 1.2183(3)
H5 H 0.4574 0.0513 1.2434
O3 O -0.02905(10) 0.08085(3) 0.79907(15)
C3 C 0.50305(16) 0.11650(5) 1.2625(3)
H6 H 0.5993 0.1135 1.3206
O4 O -0.15461(12) 0.11869(4) 0.52221(16)
C4 C 0.44195(14) 0.15813(5) 1.2191(2)
C5 C 0.29809(15) 0.16072(5) 1.1351(2)
H7 H 0.2566 0.1886 1.1039
C6 C 0.52181(15) 0.20078(5) 1.2610(2)
C7 C 0.74728(16) 0.23773(5) 1.4131(3)
H8 H 0.7109 0.2574 1.3011
H9 H 0.8409 0.2292 1.4419
C8 C -0.10810(14) 0.08345(4) 0.6176(2)
C9 C -0.15098(14) 0.04010(4) 0.5085(2)
C10 C -0.11343(19) 0.0000 0.6090(3)
H10 H -0.0628 0.0000 0.7444
C11 C -0.22705(16) 0.03979(5) 0.3061(2)
H11 H -0.2524 0.0664 0.2377
C12 C -0.2652(3) 0.0000 0.2061(3)
H12 H -0.3168 0.0000 0.0708
N1F N 1.28377(13) 0.37482(4) 1.90318(19)
O2F O 1.04106(12) 0.26395(4) 1.7996(2)
C1F C 1.22323(15) 0.41494(5) 1.8635(2)
H3F H 1.2793 0.4400 1.8924
N2F N 0.83985(13) 0.30176(4) 1.6347(2)
H4F H 0.8013 0.3272 1.5949
C2F C 1.08125(16) 0.42039(5) 1.7817(3)
H5F H 1.0426 0.4487 1.7566
C3F C 0.99695(16) 0.38350(5) 1.7375(3)
H6F H 0.9007 0.3865 1.6794
C4F C 1.05805(14) 0.34187(5) 1.7809(2)
C5F C 1.20191(15) 0.33928(5) 1.8649(2)
H7F H 1.2434 0.3114 1.8961
C6F C 0.97819(15) 0.29922(5) 1.7390(2)
C7F C 0.75272(16) 0.26227(5) 1.5869(3)
H8F H 0.7891 0.2426 1.6989
H9F H 0.6591 0.2708 1.5581
O3E O -0.02905(10) -0.08085(3) 0.79907(15)
O4E O -0.15461(12) -0.11869(4) 0.52221(16)
C8E C -0.10810(14) -0.08345(4) 0.6176(2)
C9E C -0.15098(14) -0.04010(4) 0.5085(2)
C11E C -0.22705(16) -0.03979(5) 0.3061(2)
H11E H -0.2524 -0.0664 0.2377
O1A O -0.02510(17) 0.17670(4) 0.8009(2)
H1A H -0.001(3) 0.2011(10) 0.797(4)
H2A H -0.062(3) 0.1656(10) 0.693(4)
Ni1D Ni 0.0000 -0.128731(7) 1.0000
Ni1F Ni 1.5000 0.371269(7) 2.0000
N1A N -0.21623(13) 0.12518(4) 0.90318(19)
O3A O 0.02905(10) 0.08085(3) 1.20093(15)
loop_
_geom_bond_atom_site_label_1
_geom_bond_atom_site_label_2
_geom_bond_site_symmetry_1
_geom_bond_site_symmetry_2
Ni1 N1 1_555 1_555
N1 C1 1_555 1_555
O1 Ni1 1_555 1_555
H1 O1 1_555 1_555
H2 O1 1_555 1_555
O2 C6 1_555 1_555
C1 H3 1_555 1_555
N2 H4 1_555 1_555
C2 C1 1_555 1_555
H5 C2 1_555 1_555
O3 Ni1 1_555 1_555
C3 C2 1_555 1_555
H6 C3 1_555 1_555
O4 C8 1_555 1_555
C4 C3 1_555 1_555
C5 N1 1_555 1_555
H7 C5 1_555 1_555
C6 N2 1_555 1_555
C7 N2 1_555 1_555
H8 C7 1_555 1_555
H9 C7 1_555 1_555
C8 O3 1_555 1_555
C9 C8 1_555 1_555
C10 C9 1_555 1_555
H10 C10 1_555 1_555
C11 C9 1_555 1_555
H11 C11 1_555 1_555
C12 C11 1_555 1_555
H12 C12 1_555 1_555
N1F C1F 1_555 1_555
O2F C6F 1_555 1_555
C1F H3F 1_555 1_555
N2F H4F 1_555 1_555
C2F C1F 1_555 1_555
H5F C2F 1_555 1_555
C3F C2F 1_555 1_555
H6F C3F 1_555 1_555
C4F C3F 1_555 1_555
C5F N1F 1_555 1_555
H7F C5F 1_555 1_555
C6F N2F 1_555 1_555
C7F C7 1_555 1_555
H8F C7F 1_555 1_555
H9F C7F 1_555 1_555
O3E C8E 1_555 1_555
O4E C8E 1_555 1_555
C8E C9E 1_555 1_555
C9E C10 1_555 1_555
C11E C12 1_555 1_555
H11E C11E 1_555 1_555
O1A Ni1 1_555 1_555
H1A O1A 1_555 1_555
H2A O1A 1_555 1_555
Ni1D O3E 1_555 1_555
Ni1F N1F 1_555 1_555
N1A Ni1 1_555 1_555
O3A Ni1 1_555 1_555
C4 C5 1_555 1_555
C4 C6 1_555 1_555
N2F C7F 1_555 1_555
C4F C5F 1_555 1_555
C4F C6F 1_555 1_555
C9E C11E 1_555 1_555

#END
