
#######################################################################
#
#                 Cambridge Crystallographic Data Centre
#                                CCDC 
#
#######################################################################
#
# If this CIF has been generated from an entry in the Cambridge 
# Structural Database, then it will include bibliographic, chemical, 
# crystal, experimental, refinement or atomic coordinate data resulting 
# from the CCDC's data processing and validation procedures.
#
#######################################################################

data_CIDZEV
_symmetry_cell_setting           monoclinic
_symmetry_space_group_name_H-M   'P 21/a'
_symmetry_Int_Tables_number      14
_space_group_name_Hall           '-P 2yab'
loop_
_symmetry_equiv_pos_site_id
_symmetry_equiv_pos_as_xyz
1 x,y,z
2 1/2-x,1/2+y,-z
3 -x,-y,-z
4 1/2+x,1/2-y,z
_cell_length_a                   8.045(3)
_cell_length_b                   8.335(3)
_cell_length_c                   11.588(4)
_cell_angle_alpha                90
_cell_angle_beta                 93.22(3)
_cell_angle_gamma                90
_cell_volume                     775.807
loop_
_atom_site_label
_atom_site_type_symbol
_atom_site_fract_x
_atom_site_fract_y
_atom_site_fract_z
Co1 Co 0.0000 0.0000 0.0000
N1 N 0.2185(3) -0.1072(3) -0.0566(2)
N2 N 0.2842(3) -0.2259(3) -0.0820(2)
N3 N 0.3565(3) -0.3419(3) -0.1104(2)
N4 N -0.0121(3) -0.1689(3) 0.1406(2)
C1 C -0.0740(3) -0.1275(4) 0.2420(2)
H1 H -0.0912 -0.0192 0.2565
C2 C -0.1132(4) -0.2368(4) 0.3252(2)
H2 H -0.1561 -0.2025 0.3939
C3 C -0.0875(3) -0.4002(4) 0.3050(2)
C4 C -0.0181(3) -0.4420(4) 0.2026(2)
H3 H 0.0044 -0.5491 0.1869
C5 C 0.0176(3) -0.3250(3) 0.1241(2)
H4 H 0.0647 -0.3559 0.0560
C6 C -0.1378(3) -0.5223(4) 0.3911(2)
O1 O -0.2126(3) -0.4811(3) 0.4743(2)
C7 C -0.0943(4) -0.6950(4) 0.3713(3)
H5 H 0.0244 -0.7057 0.3695
H6 H -0.1457 -0.7301 0.2989
H7 H -0.1336 -0.7594 0.4327
Co1C Co 0.5000 -0.5000 0.0000
Co1C_2 Co -0.5000 0.5000 0.0000
N1B N -0.2185(3) 0.1072(3) 0.0566(2)
N2B N -0.2842(3) 0.2259(3) 0.0820(2)
N3B N -0.3565(3) 0.3419(3) 0.1104(2)
N3C N -0.1435(3) -0.1581(3) -0.1104(2)
N3A N 0.1435(3) 0.1581(3) 0.1104(2)
N4B N 0.0121(3) 0.1689(3) -0.1406(2)
C1B C 0.0740(3) 0.1275(4) -0.2420(2)
H1B H 0.0912 0.0192 -0.2565
C2B C 0.1132(4) 0.2368(4) -0.3252(2)
H2B H 0.1561 0.2025 -0.3939
C3B C 0.0875(3) 0.4002(4) -0.3050(2)
C4B C 0.0181(3) 0.4420(4) -0.2026(2)
H3B H -0.0044 0.5491 -0.1869
C5B C -0.0176(3) 0.3250(3) -0.1241(2)
H4B H -0.0647 0.3559 -0.0560
C6B C 0.1378(3) 0.5223(4) -0.3911(2)
O1B O 0.2126(3) 0.4811(3) -0.4743(2)
C7B C 0.0943(4) 0.6950(4) -0.3713(3)
H5B H -0.0244 0.7057 -0.3695
H6B H 0.1457 0.7301 -0.2989
H7B H 0.1336 0.7594 -0.4327
loop_
_geom_bond_atom_site_label_1
_geom_bond_atom_site_label_2
_geom_bond_site_symmetry_1
_geom_bond_site_symmetry_2
Co1 N1 1_555 1_555
N1 N2 1_555 1_555
N2 N3 1_555 1_555
N3 Co1C 1_555 1_555
N4 Co1 1_555 1_555
C1 N4 1_555 1_555
H1 C1 1_555 1_555
C2 C1 1_555 1_555
H2 C2 1_555 1_555
C3 C2 1_555 1_555
C4 C3 1_555 1_555
H3 C4 1_555 1_555
C5 N4 1_555 1_555
H4 C5 1_555 1_555
C6 C3 1_555 1_555
O1 C6 1_555 1_555
C7 C6 1_555 1_555
H5 C7 1_555 1_555
H6 C7 1_555 1_555
H7 C7 1_555 1_555
Co1C_2 N3B 1_555 1_555
N1B Co1 1_555 1_555
N2B N1B 1_555 1_555
N3B N2B 1_555 1_555
N3C Co1 1_555 1_555
N3A Co1 1_555 1_555
N4B Co1 1_555 1_555
C1B N4B 1_555 1_555
H1B C1B 1_555 1_555
C2B C1B 1_555 1_555
H2B C2B 1_555 1_555
C3B C2B 1_555 1_555
C4B C3B 1_555 1_555
H3B C4B 1_555 1_555
C5B N4B 1_555 1_555
H4B C5B 1_555 1_555
C6B C3B 1_555 1_555
O1B C6B 1_555 1_555
C7B C6B 1_555 1_555
H5B C7B 1_555 1_555
H6B C7B 1_555 1_555
H7B C7B 1_555 1_555
C4 C5 1_555 1_555
C4B C5B 1_555 1_555

#END
