
#######################################################################
#
#                 Cambridge Crystallographic Data Centre
#                                CCDC 
#
#######################################################################
#
# If this CIF has been generated from an entry in the Cambridge 
# Structural Database, then it will include bibliographic, chemical, 
# crystal, experimental, refinement or atomic coordinate data resulting 
# from the CCDC's data processing and validation procedures.
#
#######################################################################

data_CIDZEV01
_symmetry_cell_setting           monoclinic
_symmetry_space_group_name_H-M   'P 21/c'
_symmetry_Int_Tables_number      14
_space_group_name_Hall           '-P 2ybc'
loop_
_symmetry_equiv_pos_site_id
_symmetry_equiv_pos_as_xyz
1 x,y,z
2 -x,1/2+y,1/2-z
3 -x,-y,-z
4 x,1/2-y,1/2+z
_cell_length_a                   11.7309(4)
_cell_length_b                   8.3099(2)
_cell_length_c                   8.2315(2)
_cell_angle_alpha                90
_cell_angle_beta                 92.3500(10)
_cell_angle_gamma                90
_cell_volume                     801.753
loop_
_atom_site_label
_atom_site_type_symbol
_atom_site_fract_x
_atom_site_fract_y
_atom_site_fract_z
Co1 Co 0.0000 0.5000 0.0000
O1 O 0.47148(16) 0.98229(19) -0.2120(3)
N1 N -0.05857(16) 0.6121(2) 0.2131(2)
N2 N -0.08106(14) 0.7291(2) 0.2824(2)
N3 N -0.10742(15) 0.8423(2) 0.3581(2)
N4 N 0.13970(14) 0.67023(18) -0.0152(2)
C1 C 0.12398(18) 0.8268(2) 0.0140(3)
H1 H 0.0564 0.8584 0.0599
C2 C 0.23984(18) 0.6293(2) -0.0779(3)
H2 H 0.2542 0.5208 -0.0958
C3 C 0.20268(18) 0.9437(2) -0.0204(3)
H3 H 0.1881 1.0509 0.0036
C4 C 0.32187(18) 0.7388(3) -0.1170(3)
H4 H 0.3895 0.7044 -0.1608
C5 C 0.30305(16) 0.9013(2) -0.0906(3)
C6 C 0.38916(19) 1.0230(2) -0.1398(3)
C7 C 0.3706(2) 1.1965(3) -0.0984(4)
H5 H 0.4318 1.2600 -0.1381
H6 H 0.3684 1.2082 0.0175
H7 H 0.2995 1.2323 -0.1480
Co1C Co 0.0000 1.0000 0.5000
Co1C_2 Co 0.0000 0.0000 -0.5000
O1B O -0.47148(16) 0.01771(19) 0.2120(3)
N1B N 0.05857(16) 0.3879(2) -0.2131(2)
N2B N 0.08106(14) 0.2709(2) -0.2824(2)
N3B N 0.10742(15) 0.1577(2) -0.3581(2)
N3C N -0.10742(15) 0.6577(2) -0.1419(2)
N3A N 0.10742(15) 0.3423(2) 0.1419(2)
N4B N -0.13970(14) 0.32977(18) 0.0152(2)
C1B C -0.12398(18) 0.1732(2) -0.0140(3)
H1B H -0.0564 0.1416 -0.0599
C2B C -0.23984(18) 0.3707(2) 0.0779(3)
H2B H -0.2542 0.4792 0.0958
C3B C -0.20268(18) 0.0563(2) 0.0204(3)
H3B H -0.1881 -0.0509 -0.0036
C4B C -0.32187(18) 0.2612(3) 0.1170(3)
H4B H -0.3895 0.2956 0.1608
C5B C -0.30305(16) 0.0987(2) 0.0906(3)
C6B C -0.38916(19) -0.0230(2) 0.1398(3)
C7B C -0.3706(2) -0.1965(3) 0.0984(4)
H5B H -0.4318 -0.2600 0.1381
H6B H -0.3684 -0.2082 -0.0175
H7B H -0.2995 -0.2323 0.1480
loop_
_geom_bond_atom_site_label_1
_geom_bond_atom_site_label_2
_geom_bond_site_symmetry_1
_geom_bond_site_symmetry_2
Co1 N1 1_555 1_555
O1 C6 1_555 1_555
N1 N2 1_555 1_555
N2 N3 1_555 1_555
N3 Co1C 1_555 1_555
N4 Co1 1_555 1_555
C1 N4 1_555 1_555
H1 C1 1_555 1_555
C2 N4 1_555 1_555
H2 C2 1_555 1_555
C3 C1 1_555 1_555
H3 C3 1_555 1_555
C4 C2 1_555 1_555
H4 C4 1_555 1_555
C5 C3 1_555 1_555
C6 C5 1_555 1_555
C7 C6 1_555 1_555
H5 C7 1_555 1_555
H6 C7 1_555 1_555
H7 C7 1_555 1_555
Co1C_2 N3B 1_555 1_555
O1B C6B 1_555 1_555
N1B Co1 1_555 1_555
N2B N1B 1_555 1_555
N3B N2B 1_555 1_555
N3C Co1 1_555 1_555
N3A Co1 1_555 1_555
N4B Co1 1_555 1_555
C1B N4B 1_555 1_555
H1B C1B 1_555 1_555
C2B N4B 1_555 1_555
H2B C2B 1_555 1_555
C3B C1B 1_555 1_555
H3B C3B 1_555 1_555
C4B C2B 1_555 1_555
H4B C4B 1_555 1_555
C5B C3B 1_555 1_555
C6B C5B 1_555 1_555
C7B C6B 1_555 1_555
H5B C7B 1_555 1_555
H6B C7B 1_555 1_555
H7B C7B 1_555 1_555
C4 C5 1_555 1_555
C4B C5B 1_555 1_555

#END
