
#######################################################################
#
#                 Cambridge Crystallographic Data Centre
#                                CCDC 
#
#######################################################################
#
# If this CIF has been generated from an entry in the Cambridge 
# Structural Database, then it will include bibliographic, chemical, 
# crystal, experimental, refinement or atomic coordinate data resulting 
# from the CCDC's data processing and validation procedures.
#
#######################################################################

data_CIFCOL
_symmetry_cell_setting           monoclinic
_symmetry_space_group_name_H-M   'P 21/n'
_symmetry_Int_Tables_number      14
_space_group_name_Hall           '-P 2yn'
loop_
_symmetry_equiv_pos_site_id
_symmetry_equiv_pos_as_xyz
1 x,y,z
2 1/2-x,1/2+y,1/2-z
3 -x,-y,-z
4 1/2+x,1/2-y,1/2+z
_cell_length_a                   20.0297(10)
_cell_length_b                   14.8284(7)
_cell_length_c                   22.9351(11)
_cell_angle_alpha                90
_cell_angle_beta                 111.256(1)
_cell_angle_gamma                90
_cell_volume                     6348.5
loop_
_atom_site_label
_atom_site_type_symbol
_atom_site_fract_x
_atom_site_fract_y
_atom_site_fract_z
Zn1 Zn 0.37965(10) 0.54102(4) 0.57474(3)
O1 O 0.32267(18) 0.4774(2) 0.49964(15)
O2 O 0.39469(19) 0.6673(2) 0.56104(15)
O3 O 0.30245(19) 0.5357(2) 0.61140(16)
O4 O -0.04462(19) 0.0188(2) 0.14186(15)
C1 C 0.3408(2) 0.4631(3) 0.4533(2)
C2 C 0.4480(3) 0.6799(3) 0.5464(2)
C3 C 0.3107(3) 0.5025(3) 0.6636(2)
O5 O 0.39296(18) 0.4980(2) 0.44455(16)
C4 C 0.2916(2) 0.4039(3) 0.4030(2)
O6 O 0.4907(2) 0.6195(2) 0.54557(16)
C5 C 0.4630(3) 0.7753(3) 0.5320(2)
H1 H 0.3581 0.4922 0.6920
N1 N 0.2576(3) 0.4812(3) 0.6812(2)
Zn2 Zn 0.5000 0.5000 0.5000
C6 C 0.2319(3) 0.3669(4) 0.4096(3)
C7 C 0.3046(3) 0.3880(4) 0.3485(2)
C8 C 0.4257(4) 0.8453(3) 0.5436(3)
C9 C 0.5141(4) 0.7928(4) 0.5067(3)
C10 C 0.1842(4) 0.4944(5) 0.6398(4)
C11 C 0.2707(5) 0.4434(5) 0.7436(3)
O7 O -0.01538(18) 0.0818(2) 0.06740(15)
H2 H 0.2214 0.3797 0.4459
C12 C 0.1869(3) 0.3107(4) 0.3634(2)
C13 C 0.2586(3) 0.3329(4) 0.3020(3)
H3 H 0.3450 0.4147 0.3428
H4 H 0.3889 0.8338 0.5596
C14 C 0.4411(4) 0.9339(3) 0.5320(3)
C15 C 0.5278(4) 0.8799(3) 0.4931(4)
H5 H 0.5403 0.7443 0.4985
H6 H 0.1833 0.5205 0.6003
H7 H 0.1603 0.5354 0.6595
H8 H 0.1593 0.4362 0.6316
H9 H 0.3217 0.4486 0.7693
H10 H 0.2567 0.3797 0.7397
H11 H 0.2424 0.4766 0.7635
H12 H 0.1460 0.2854 0.3689
C16 C 0.2001(3) 0.2909(3) 0.3100(2)
H13 H 0.2671 0.3238 0.2643
H14 H 0.4159 0.9821 0.5420
C17 C 0.4917(3) 0.9529(3) 0.5065(3)
H15 H 0.5623 0.8903 0.4743
C18 C 0.1511(3) 0.2299(3) 0.2624(2)
C19 C 0.1433(3) 0.2358(4) 0.1992(2)
C20 C 0.1119(3) 0.1665(4) 0.2789(2)
H16 H 0.1727 0.2762 0.1870
C21 C 0.0932(3) 0.1837(4) 0.1542(2)
C22 C 0.0620(3) 0.1127(3) 0.2346(2)
H17 H 0.1188 0.1589 0.3219
H18 H 0.0868 0.1904 0.1113
C23 C 0.0520(2) 0.1207(3) 0.1722(2)
H19 H 0.0347 0.0701 0.2474
C24 C -0.0053(2) 0.0687(3) 0.1240(2)
O2B O 0.60531(19) 1.3327(2) 0.43896(15)
C2B C 0.5520(3) 1.3201(3) 0.4536(2)
O6B O 0.5093(2) 1.3805(2) 0.45443(16)
C5B C 0.5370(3) 1.2247(3) 0.4680(2)
C8B C 0.5743(4) 1.1547(3) 0.4564(3)
C9B C 0.4859(4) 1.2072(4) 0.4933(3)
H4B H 0.6111 1.1662 0.4404
C14B C 0.5589(4) 1.0661(3) 0.4680(3)
C15B C 0.4722(4) 1.1201(3) 0.5069(4)
H5B H 0.4597 1.2557 0.5015
H14B H 0.5841 1.0179 0.4580
C17B C 0.5083(3) 1.0471(3) 0.4935(3)
H15B H 0.4377 1.1097 0.5257
Zn1B Zn 0.62035(10) 0.45898(4) 0.42526(3)
O1B O 0.67733(18) 0.5226(2) 0.50036(15)
O3B O 0.69755(19) 0.4643(2) 0.38860(16)
O4B O 1.04462(19) 0.9812(2) 0.85814(15)
C1B C 0.6592(2) 0.5369(3) 0.5467(2)
C3B C 0.6893(3) 0.4975(3) 0.3364(2)
O5B O 0.60704(18) 0.5020(2) 0.55545(16)
C4B C 0.7084(2) 0.5961(3) 0.5970(2)
H1B H 0.6419 0.5078 0.3080
N1B N 0.7424(3) 0.5188(3) 0.3188(2)
C6B C 0.7681(3) 0.6331(4) 0.5904(3)
C7B C 0.6954(3) 0.6120(4) 0.6515(2)
C10B C 0.8158(4) 0.5056(5) 0.3602(4)
C11B C 0.7293(5) 0.5566(5) 0.2564(3)
O7B O 1.01538(18) 0.9182(2) 0.93260(15)
H2B H 0.7786 0.6203 0.5541
C12B C 0.8131(3) 0.6893(4) 0.6366(2)
C13B C 0.7414(3) 0.6671(4) 0.6980(3)
H3B H 0.6550 0.5853 0.6572
H6B H 0.8167 0.4795 0.3997
H7B H 0.8397 0.4646 0.3405
H8B H 0.8407 0.5638 0.3684
H9B H 0.6783 0.5514 0.2307
H10B H 0.7433 0.6203 0.2603
H11B H 0.7576 0.5234 0.2365
H12B H 0.8540 0.7146 0.6311
C16B C 0.7999(3) 0.7091(3) 0.6900(2)
H13B H 0.7329 0.6762 0.7357
C18B C 0.8489(3) 0.7701(3) 0.7376(2)
C19B C 0.8567(3) 0.7642(4) 0.8008(2)
C20B C 0.8881(3) 0.8335(4) 0.7211(2)
H16B H 0.8273 0.7238 0.8130
C21B C 0.9068(3) 0.8163(4) 0.8458(2)
C22B C 0.9380(3) 0.8873(3) 0.7654(2)
H17B H 0.8812 0.8411 0.6781
H18B H 0.9132 0.8096 0.8887
C23B C 0.9480(2) 0.8793(3) 0.8278(2)
H19B H 0.9653 0.9299 0.7526
C24B C 1.0053(2) 0.9313(3) 0.8760(2)
Zn1A Zn 1.12035(10) 1.04102(4) 0.92526(3)
Zn1B_2 Zn 0.62035(10) 1.45898(4) 0.42526(3)
Zn1C Zn -0.12035(10) -0.04102(4) 0.07474(3)
O2B_2 O 0.60531(19) 0.3327(2) 0.43896(15)
O4A O 0.54462(19) 0.5188(2) 0.35814(15)
O4C O 0.45538(19) 0.4812(2) 0.64186(15)
O6B_2 O 0.5093(2) 0.3805(2) 0.45443(16)
Zn2_2 Zn 0.5000 1.5000 0.5000
Zn2A Zn 0.0000 0.0000 0.0000
Zn2A_2 Zn 1.0000 1.0000 1.0000
O7A O 0.51538(18) 0.5818(2) 0.43260(15)
O7C O 0.48462(18) 0.4182(2) 0.56740(15)
Zn3 Zn 0.37263(4) 0.54248(4) 0.06526(4)
Zn4 Zn 0.5000 0.5000 0.0000
O8 O 0.42723(18) 0.4731(2) 0.14140(15)
O9 O 0.4991(2) 0.4876(3) 0.09018(17)
O10 O 0.91413(18) 0.0811(2) 0.4631(2)
O11 O 0.82561(18) 0.0305(2) 0.49176(16)
O12 O 0.4069(2) 0.6642(2) 0.06473(16)
O13 O 0.43752(17) 0.62010(19) -0.01473(14)
O14 O 0.2848(2) 0.5712(3) 0.08287(19)
C25 C 0.4858(3) 0.4580(3) 0.1350(2)
C26 C 0.5413(3) 0.4020(3) 0.1829(2)
C27 C 0.5295(3) 0.3721(3) 0.2355(2)
H20 H 0.4864 0.3876 0.2414
C28 C 0.5806(3) 0.3196(3) 0.2795(2)
H21 H 0.5724 0.2998 0.3158
C29 C 0.6433(3) 0.2958(3) 0.2714(2)
C30 C 0.6545(3) 0.3257(4) 0.2184(2)
H22 H 0.6974 0.3098 0.2122
C31 C 0.6036(3) 0.3789(4) 0.1744(2)
H23 H 0.6119 0.3992 0.1383
C32 C 0.6979(3) 0.2391(3) 0.3189(2)
C33 C 0.7711(3) 0.2524(3) 0.3340(2)
H24 H 0.7873 0.2988 0.3139
C34 C 0.8202(3) 0.1987(3) 0.3781(2)
H25 H 0.8699 0.2070 0.3871
C35 C 0.7975(2) 0.1328(3) 0.4095(2)
C36 C 0.7248(3) 0.1185(3) 0.3945(2)
H26 H 0.7090 0.0730 0.4157
C37 C 0.6751(3) 0.1704(3) 0.3487(2)
H27 H 0.6253 0.1591 0.3377
C38 C 0.8508(2) 0.0763(3) 0.4588(2)
C39 C 0.4322(2) 0.6782(3) 0.0225(2)
C40 C 0.4546(3) 0.7723(3) 0.0165(2)
C41 C 0.4588(5) 0.8366(4) 0.0621(3)
H28 H 0.4489 0.8198 0.0980
C42 C 0.4774(5) 0.9248(4) 0.0552(4)
H29 H 0.4810 0.9674 0.0872
C43 C 0.4906(3) 0.9522(3) 0.0035(3)
C44 C 0.4868(3) 0.8884(3) -0.0413(3)
H30 H 0.4963 0.9056 -0.0775
C45 C 0.4694(3) 0.7995(3) -0.0345(3)
H31 H 0.4678 0.7567 -0.0658
C46 C 0.2454(4) 0.5144(4) 0.0910(3)
H32 H 0.2163 0.4973 0.0469
C47 C 0.1829(5) 0.6231(5) 0.1283(4)
H33 H 0.2045 0.6643 0.1067
H34 H 0.2050 0.6325 0.1736
H35 H 0.1313 0.6349 0.1146
C48 C 0.1566(4) 0.4604(5) 0.1304(4)
H36 H 0.1658 0.4031 0.1134
H37 H 0.1051 0.4734 0.1133
H38 H 0.1729 0.4563 0.1761
N2 N 0.1944(3) 0.5308(4) 0.1135(3)
O12B O 0.5931(2) 1.3358(2) -0.06473(16)
O13B O 0.56248(17) 1.37990(19) 0.01473(14)
C39B C 0.5678(2) 1.3218(3) -0.0225(2)
C40B C 0.5454(3) 1.2277(3) -0.0165(2)
C41B C 0.5412(5) 1.1634(4) -0.0621(3)
H28B H 0.5511 1.1802 -0.0980
C42B C 0.5226(5) 1.0752(4) -0.0552(4)
H29B H 0.5190 1.0326 -0.0872
C43B C 0.5094(3) 1.0478(3) -0.0035(3)
C44B C 0.5132(3) 1.1116(3) 0.0413(3)
H30B H 0.5037 1.0944 0.0775
C45B C 0.5306(3) 1.2005(3) 0.0345(3)
H31B H 0.5322 1.2433 0.0658
Zn3B Zn 0.62737(4) 0.45752(4) -0.06526(4)
O8B O 0.57277(18) 0.5269(2) -0.14140(15)
O9B O 0.5009(2) 0.5124(3) -0.09018(17)
O10B O 0.08587(18) 0.9189(2) -0.4631(2)
O11B O 0.17439(18) 0.9695(2) -0.49176(16)
O14B O 0.7152(2) 0.4288(3) -0.08287(19)
C25B C 0.5142(3) 0.5420(3) -0.1350(2)
C26B C 0.4587(3) 0.5980(3) -0.1829(2)
C27B C 0.4705(3) 0.6279(3) -0.2355(2)
H20B H 0.5136 0.6124 -0.2414
C28B C 0.4194(3) 0.6804(3) -0.2795(2)
H21B H 0.4276 0.7002 -0.3158
C29B C 0.3567(3) 0.7042(3) -0.2714(2)
C30B C 0.3455(3) 0.6743(4) -0.2184(2)
H22B H 0.3026 0.6902 -0.2122
C31B C 0.3964(3) 0.6211(4) -0.1744(2)
H23B H 0.3881 0.6008 -0.1383
C32B C 0.3021(3) 0.7609(3) -0.3189(2)
C33B C 0.2289(3) 0.7476(3) -0.3340(2)
H24B H 0.2127 0.7012 -0.3139
C34B C 0.1798(3) 0.8013(3) -0.3781(2)
H25B H 0.1301 0.7930 -0.3871
C35B C 0.2025(2) 0.8672(3) -0.4095(2)
C36B C 0.2752(3) 0.8815(3) -0.3945(2)
H26B H 0.2910 0.9270 -0.4157
C37B C 0.3249(3) 0.8296(3) -0.3487(2)
H27B H 0.3747 0.8409 -0.3377
C38B C 0.1492(2) 0.9237(3) -0.4588(2)
C46B C 0.7546(4) 0.4856(4) -0.0910(3)
H32B H 0.7837 0.5027 -0.0469
C47B C 0.8171(5) 0.3769(5) -0.1283(4)
H33B H 0.7955 0.3357 -0.1067
H34B H 0.7950 0.3675 -0.1736
H35B H 0.8687 0.3651 -0.1146
C48B C 0.8434(4) 0.5396(5) -0.1304(4)
H36B H 0.8342 0.5969 -0.1134
H37B H 0.8949 0.5266 -0.1133
H38B H 0.8271 0.5437 -0.1761
N2B N 0.8056(3) 0.4692(4) -0.1135(3)
Zn3A Zn 0.12737(4) 1.04248(4) -0.56526(4)
Zn3B_2 Zn 0.62737(4) 1.45752(4) -0.06526(4)
Zn3C Zn 0.87263(4) -0.04248(4) 0.56526(4)
Zn4_2 Zn 0.5000 1.5000 0.0000
Zn4A Zn 0.0000 1.0000 -0.5000
Zn4A_2 Zn 1.0000 0.0000 0.5000
O10A O 0.58587(18) 0.5811(2) 0.0369(2)
O10C O 0.41413(18) 0.4189(2) -0.0369(2)
O11A O 0.67439(18) 0.5305(2) 0.00824(16)
O11C O 0.32561(18) 0.4695(2) -0.00824(16)
O12B_2 O 0.5931(2) 0.3358(2) -0.06473(16)
O13B_2 O 0.56248(17) 0.37990(19) 0.01473(14)
O15 O 0.1681(7) 0.8872(11) 0.2989(6)
H39 H 0.1323 0.9071 0.3056
H40 H 0.2039 0.8640 0.3275
O16 O 0.0220(9) 0.5620(11) 0.3205(8)
C49 C 0.0855(16) 0.5532(9) 0.3314(8)
H41 H 0.1154 0.5176 0.3652
C50 C 0.0724(7) 0.6589(11) 0.2376(7)
H42 H 0.0230 0.6636 0.2362
H43 H 0.0723 0.6331 0.1983
H44 H 0.0941 0.7191 0.2435
C51 C 0.1896(13) 0.5952(16) 0.2977(9)
H45 H 0.2128 0.5490 0.3291
H46 H 0.2128 0.6536 0.3119
H47 H 0.1941 0.5790 0.2579
N3 N 0.1132(10) 0.6013(7) 0.2892(5)
O17 O 0.2467(5) 0.7888(6) 0.3953(6)
C52 C 0.2425(6) 0.7309(8) 0.4321(7)
C53 C 0.1197(4) 0.7604(6) 0.4142(4)
H48 H 0.1248 0.8053 0.3847
H49 H 0.1072 0.7908 0.4468
H50 H 0.0818 0.7176 0.3918
C54 C 0.1875(6) 0.6463(7) 0.4907(5)
H51 H 0.2355 0.6197 0.5081
H52 H 0.1523 0.5988 0.4720
H53 H 0.1763 0.6762 0.5241
N4 N 0.1854(4) 0.7133(5) 0.4421(4)
O18 O 0.1760(4) 0.6157(5) 0.7664(3)
C55 C 0.1219(6) 0.5965(7) 0.7759(5)
H54 H 0.1197 0.5380 0.7918
C56 C 0.0073(6) 0.6252(10) 0.7833(7)
H55 H 0.0141 0.5648 0.8019
H56 H -0.0365 0.6262 0.7459
H57 H 0.0032 0.6692 0.8137
C57 C 0.0714(9) 0.7416(12) 0.7389(8)
H58 H 0.1165 0.7710 0.7640
H59 H 0.0310 0.7785 0.7395
H60 H 0.0691 0.7351 0.6957
N5 N 0.0675(4) 0.6478(8) 0.7664(4)
O19 O 0.3457(3) 0.0855(3) 0.5714(3)
C58 C 0.2957(4) 0.1293(4) 0.5743(4)
H61 H 0.2539 0.0973 0.5725
C59 C 0.2333(4) 0.2625(6) 0.5851(4)
H62 H 0.1936 0.2195 0.5756
H63 H 0.2190 0.3128 0.5554
H64 H 0.2454 0.2855 0.6277
C60 C 0.3554(5) 0.2702(5) 0.5797(5)
H65 H 0.3929 0.2295 0.5773
H66 H 0.3741 0.3058 0.6183
H67 H 0.3405 0.3107 0.5435
N6 N 0.2949(3) 0.2181(3) 0.5799(2)
Zn5? Zn 0.355(2) 0.5471(14) 0.5779(9)
Zn6? Zn 0.3547(14) 0.5480(13) 0.0828(13)
loop_
_geom_bond_atom_site_label_1
_geom_bond_atom_site_label_2
_geom_bond_site_symmetry_1
_geom_bond_site_symmetry_2
Zn1 O1 1_555 1_555
O1 C1 1_555 1_555
O2 Zn1 1_555 1_555
O3 Zn1 1_555 1_555
O4 C24 1_555 1_555
C1 O5 1_555 1_555
C2 O2 1_555 1_555
C3 O3 1_555 1_555
O5 Zn2 1_555 1_555
C4 C1 1_555 1_555
O6 C2 1_555 1_555
C5 C2 1_555 1_555
H1 C3 1_555 1_555
N1 C3 1_555 1_555
Zn2 O6 1_555 1_555
C6 C4 1_555 1_555
C7 C4 1_555 1_555
C8 C5 1_555 1_555
C9 C5 1_555 1_555
C10 N1 1_555 1_555
C11 N1 1_555 1_555
O7 C24 1_555 1_555
H2 C6 1_555 1_555
C12 C6 1_555 1_555
C13 C7 1_555 1_555
H3 C7 1_555 1_555
H4 C8 1_555 1_555
C14 C8 1_555 1_555
C15 C9 1_555 1_555
H5 C9 1_555 1_555
H6 C10 1_555 1_555
H7 C10 1_555 1_555
H8 C10 1_555 1_555
H9 C11 1_555 1_555
H10 C11 1_555 1_555
H11 C11 1_555 1_555
H12 C12 1_555 1_555
C16 C12 1_555 1_555
H13 C13 1_555 1_555
H14 C14 1_555 1_555
C17 C14 1_555 1_555
H15 C15 1_555 1_555
C18 C16 1_555 1_555
C19 C18 1_555 1_555
C20 C18 1_555 1_555
H16 C19 1_555 1_555
C21 C19 1_555 1_555
C22 C20 1_555 1_555
H17 C20 1_555 1_555
H18 C21 1_555 1_555
C23 C21 1_555 1_555
H19 C22 1_555 1_555
C24 C23 1_555 1_555
Zn3 O8 1_555 1_555
Zn4 O9 1_555 1_555
O8 C25 1_555 1_555
O9 C25 1_555 1_555
O10 C38 1_555 1_555
O11 C38 1_555 1_555
O12 Zn3 1_555 1_555
O13 Zn4 1_555 1_555
O14 Zn3 1_555 1_555
C25 C26 1_555 1_555
C26 C27 1_555 1_555
C27 H20 1_555 1_555
C28 C27 1_555 1_555
H21 C28 1_555 1_555
C29 C28 1_555 1_555
C30 C29 1_555 1_555
H22 C30 1_555 1_555
C31 C26 1_555 1_555
H23 C31 1_555 1_555
C32 C29 1_555 1_555
C33 C32 1_555 1_555
H24 C33 1_555 1_555
C34 C33 1_555 1_555
H25 C34 1_555 1_555
C35 C34 1_555 1_555
C36 C35 1_555 1_555
H26 C36 1_555 1_555
C37 C32 1_555 1_555
H27 C37 1_555 1_555
C38 C35 1_555 1_555
C39 O12 1_555 1_555
C40 C39 1_555 1_555
C41 C40 1_555 1_555
H28 C41 1_555 1_555
C42 C41 1_555 1_555
H29 C42 1_555 1_555
C43 C42 1_555 1_555
C44 C43 1_555 1_555
H30 C44 1_555 1_555
C45 C40 1_555 1_555
H31 C45 1_555 1_555
C46 O14 1_555 1_555
H32 C46 1_555 1_555
C47 H33 1_555 1_555
H34 C47 1_555 1_555
H35 C47 1_555 1_555
C48 H36 1_555 1_555
H37 C48 1_555 1_555
H38 C48 1_555 1_555
N2 C46 1_555 1_555
O15 H39 1_555 1_555
H40 O15 1_555 1_555
O16 C49 1_555 1_555
C49 H41 1_555 1_555
C50 H42 1_555 1_555
H43 C50 1_555 1_555
H44 C50 1_555 1_555
C51 H45 1_555 1_555
H46 C51 1_555 1_555
H47 C51 1_555 1_555
N3 C49 1_555 1_555
O17 C52 1_555 1_555
C52 N4 1_555 1_555
C53 H48 1_555 1_555
H49 C53 1_555 1_555
H50 C53 1_555 1_555
C54 H51 1_555 1_555
H52 C54 1_555 1_555
H53 C54 1_555 1_555
N4 C53 1_555 1_555
O18 C55 1_555 1_555
C55 H54 1_555 1_555
C56 H55 1_555 1_555
H56 C56 1_555 1_555
H57 C56 1_555 1_555
C57 H58 1_555 1_555
H59 C57 1_555 1_555
H60 C57 1_555 1_555
N5 C55 1_555 1_555
O19 C58 1_555 1_555
C58 H61 1_555 1_555
C59 H62 1_555 1_555
H63 C59 1_555 1_555
H64 C59 1_555 1_555
C60 H65 1_555 1_555
H66 C60 1_555 1_555
H67 C60 1_555 1_555
N6 C58 1_555 1_555
O2B C2B 1_555 1_555
C2B O6B 1_555 1_555
O6B Zn2_2 1_555 1_555
C5B C2B 1_555 1_555
C8B C5B 1_555 1_555
C9B C5B 1_555 1_555
H4B C8B 1_555 1_555
C14B C8B 1_555 1_555
C15B C9B 1_555 1_555
H5B C9B 1_555 1_555
H14B C14B 1_555 1_555
C17B C17 1_555 1_555
H15B C15B 1_555 1_555
Zn1B O1B 1_555 1_555
O1B C1B 1_555 1_555
O3B Zn1B 1_555 1_555
O4B C24B 1_555 1_555
C1B O5B 1_555 1_555
C3B O3B 1_555 1_555
O5B Zn2 1_555 1_555
C4B C1B 1_555 1_555
H1B C3B 1_555 1_555
N1B C3B 1_555 1_555
C6B C4B 1_555 1_555
C7B C4B 1_555 1_555
C10B N1B 1_555 1_555
C11B N1B 1_555 1_555
O7B C24B 1_555 1_555
H2B C6B 1_555 1_555
C12B C6B 1_555 1_555
C13B C7B 1_555 1_555
H3B C7B 1_555 1_555
H6B C10B 1_555 1_555
H7B C10B 1_555 1_555
H8B C10B 1_555 1_555
H9B C11B 1_555 1_555
H10B C11B 1_555 1_555
H11B C11B 1_555 1_555
H12B C12B 1_555 1_555
C16B C12B 1_555 1_555
H13B C13B 1_555 1_555
C18B C16B 1_555 1_555
C19B C18B 1_555 1_555
C20B C18B 1_555 1_555
H16B C19B 1_555 1_555
C21B C19B 1_555 1_555
C22B C20B 1_555 1_555
H17B C20B 1_555 1_555
H18B C21B 1_555 1_555
C23B C21B 1_555 1_555
H19B C22B 1_555 1_555
C24B C23B 1_555 1_555
Zn1A O4B 1_555 1_555
Zn1B_2 O2B 1_555 1_555
Zn1C O4 1_555 1_555
O2B_2 Zn1B 1_555 1_555
O4A Zn1B 1_555 1_555
O4C Zn1 1_555 1_555
O6B_2 Zn2 1_555 1_555
Zn2A O7 1_555 1_555
Zn2A_2 O7B 1_555 1_555
O7A Zn2 1_555 1_555
O7C Zn2 1_555 1_555
O12B C39B 1_555 1_555
O13B C39B 1_555 1_555
C39B C40B 1_555 1_555
C40B C41B 1_555 1_555
C41B H28B 1_555 1_555
C42B C41B 1_555 1_555
H29B C42B 1_555 1_555
C43B C43 1_555 1_555
C44B C43B 1_555 1_555
H30B C44B 1_555 1_555
C45B C40B 1_555 1_555
H31B C45B 1_555 1_555
Zn3B O8B 1_555 1_555
O8B C25B 1_555 1_555
O9B Zn4 1_555 1_555
O10B C38B 1_555 1_555
O11B C38B 1_555 1_555
O14B Zn3B 1_555 1_555
C25B O9B 1_555 1_555
C26B C25B 1_555 1_555
C27B C26B 1_555 1_555
H20B C27B 1_555 1_555
C28B C27B 1_555 1_555
H21B C28B 1_555 1_555
C29B C28B 1_555 1_555
C30B C29B 1_555 1_555
H22B C30B 1_555 1_555
C31B C26B 1_555 1_555
H23B C31B 1_555 1_555
C32B C29B 1_555 1_555
C33B C32B 1_555 1_555
H24B C33B 1_555 1_555
C34B C33B 1_555 1_555
H25B C34B 1_555 1_555
C35B C34B 1_555 1_555
C36B C35B 1_555 1_555
H26B C36B 1_555 1_555
C37B C32B 1_555 1_555
H27B C37B 1_555 1_555
C38B C35B 1_555 1_555
C46B O14B 1_555 1_555
H32B C46B 1_555 1_555
C47B H33B 1_555 1_555
H34B C47B 1_555 1_555
H35B C47B 1_555 1_555
C48B H36B 1_555 1_555
H37B C48B 1_555 1_555
H38B C48B 1_555 1_555
N2B C46B 1_555 1_555
Zn3A O11B 1_555 1_555
Zn3B_2 O12B 1_555 1_555
Zn3C O11 1_555 1_555
Zn4_2 O13B 1_555 1_555
Zn4A O10B 1_555 1_555
Zn4A_2 O10 1_555 1_555
O10A Zn4 1_555 1_555
O10C Zn4 1_555 1_555
O11A Zn3B 1_555 1_555
O11C Zn3 1_555 1_555
O12B_2 Zn3B 1_555 1_555
O13B_2 Zn4 1_555 1_555
C13 C16 1_555 1_555
C15 C17 1_555 1_555
C22 C23 1_555 1_555
O13 C39 1_555 1_555
C30 C31 1_555 1_555
C36 C37 1_555 1_555
C44 C45 1_555 1_555
C47 N2 1_555 1_555
C48 N2 1_555 1_555
C50 N3 1_555 1_555
C51 N3 1_555 1_555
C54 N4 1_555 1_555
C56 N5 1_555 1_555
C57 N5 1_555 1_555
C59 N6 1_555 1_555
C60 N6 1_555 1_555
C14B C17B 1_555 1_555
C15B C17B 1_555 1_555
C13B C16B 1_555 1_555
C22B C23B 1_555 1_555
C42B C43B 1_555 1_555
C44B C45B 1_555 1_555
C30B C31B 1_555 1_555
C36B C37B 1_555 1_555
C47B N2B 1_555 1_555
C48B N2B 1_555 1_555

#END
