
#######################################################################
#
#                 Cambridge Crystallographic Data Centre
#                                CCDC 
#
#######################################################################
#
# If this CIF has been generated from an entry in the Cambridge 
# Structural Database, then it will include bibliographic, chemical, 
# crystal, experimental, refinement or atomic coordinate data resulting 
# from the CCDC's data processing and validation procedures.
#
#######################################################################

data_CIFFUU
_symmetry_cell_setting           monoclinic
_symmetry_space_group_name_H-M   'P 21/c'
_symmetry_Int_Tables_number      14
_space_group_name_Hall           '-P 2ybc'
loop_
_symmetry_equiv_pos_site_id
_symmetry_equiv_pos_as_xyz
1 x,y,z
2 -x,1/2+y,1/2-z
3 -x,-y,-z
4 x,1/2-y,1/2+z
_cell_length_a                   7.4479(5)
_cell_length_b                   13.9477(9)
_cell_length_c                   12.7644(8)
_cell_angle_alpha                90
_cell_angle_beta                 103.500(1)
_cell_angle_gamma                90
_cell_volume                     1289.34
loop_
_atom_site_label
_atom_site_type_symbol
_atom_site_fract_x
_atom_site_fract_y
_atom_site_fract_z
Zn1 Zn 0.49208(6) 0.51966(3) 0.85554(4)
O1 O 0.4239(4) 0.40932(19) 0.9384(2)
O2 O 0.2651(4) 0.4340(2) 1.0623(2)
O3 O -0.2715(4) 0.1027(2) 0.6771(3)
O4 O -0.4643(5) 0.1631(3) 0.7659(3)
O5 O 0.5073(4) 0.4427(2) 0.7284(2)
N1 N 0.6279(6) 0.3989(3) 0.5883(3)
C1 C 0.1197(5) 0.3461(3) 0.9083(3)
C2 C 0.1437(6) 0.2937(3) 0.8195(3)
H1 H 0.2544 0.2972 0.7979
C3 C 0.0013(6) 0.2366(3) 0.7639(3)
H2 H 0.0175 0.2009 0.7053
C4 C -0.1648(6) 0.2318(3) 0.7943(3)
C5 C -0.1914(6) 0.2882(3) 0.8791(3)
H3 H -0.3055 0.2885 0.8970
C6 C -0.0487(6) 0.3443(3) 0.9371(3)
H4 H -0.0657 0.3805 0.9952
C7 C 0.2793(5) 0.4014(3) 0.9727(3)
C8 C -0.3125(6) 0.1621(3) 0.7425(3)
C9 C 0.6304(6) 0.4485(3) 0.6769(3)
C10 C 0.8000(7) 0.5093(4) 0.7046(4)
H5 H 0.8781 0.4903 0.7734
H6 H 0.7677 0.5764 0.7084
C11 C 0.8977(8) 0.4926(4) 0.6141(5)
H7 H 1.0238 0.4718 0.6428
H8 H 0.8996 0.5510 0.5731
C12 C 0.7875(8) 0.4150(4) 0.5432(4)
H9 H 0.7497 0.4363 0.4690
H10 H 0.8599 0.3568 0.5459
C13 C 0.4854(8) 0.3300(4) 0.5421(4)
H11 H 0.3860 0.3347 0.5780
H12 H 0.5362 0.2664 0.5510
H13 H 0.4398 0.3432 0.4668
Zn1A Zn -0.49208(6) 0.01966(3) 0.64446(4)
Zn1B Zn 0.50792(6) 0.48034(3) 1.14446(4)
O2B O 0.7349(4) 0.5660(2) 0.9377(2)
O3A O 0.2715(4) 0.6027(2) 0.8229(3)
O4A O 0.4643(5) 0.6631(3) 0.7341(3)
loop_
_geom_bond_atom_site_label_1
_geom_bond_atom_site_label_2
_geom_bond_site_symmetry_1
_geom_bond_site_symmetry_2
Zn1 O1 1_555 1_555
O1 C7 1_555 1_555
O2 C7 1_555 1_555
O3 C8 1_555 1_555
O4 C8 1_555 1_555
O5 Zn1 1_555 1_555
N1 C9 1_555 1_555
C1 C2 1_555 1_555
C2 H1 1_555 1_555
C3 C2 1_555 1_555
H2 C3 1_555 1_555
C4 C3 1_555 1_555
C5 C4 1_555 1_555
H3 C5 1_555 1_555
C6 C1 1_555 1_555
H4 C6 1_555 1_555
C7 C1 1_555 1_555
C8 C4 1_555 1_555
C9 O5 1_555 1_555
C10 C9 1_555 1_555
H5 C10 1_555 1_555
H6 C10 1_555 1_555
C11 C10 1_555 1_555
H7 C11 1_555 1_555
H8 C11 1_555 1_555
C12 N1 1_555 1_555
H9 C12 1_555 1_555
H10 C12 1_555 1_555
C13 N1 1_555 1_555
H11 C13 1_555 1_555
H12 C13 1_555 1_555
H13 C13 1_555 1_555
Zn1A O3 1_555 1_555
Zn1B O2 1_555 1_555
O2B Zn1 1_555 1_555
O3A Zn1 1_555 1_555
O4A Zn1 1_555 1_555
O4 Zn1A 1_555 1_555
C5 C6 1_555 1_555
C11 C12 1_555 1_555

#END
