
#######################################################################
#
#                 Cambridge Crystallographic Data Centre
#                                CCDC 
#
#######################################################################
#
# If this CIF has been generated from an entry in the Cambridge 
# Structural Database, then it will include bibliographic, chemical, 
# crystal, experimental, refinement or atomic coordinate data resulting 
# from the CCDC's data processing and validation procedures.
#
#######################################################################

data_CIFGAB
_symmetry_cell_setting           monoclinic
_symmetry_space_group_name_H-M   'C 2/c'
_symmetry_Int_Tables_number      15
_space_group_name_Hall           '-C 2yn'
loop_
_symmetry_equiv_pos_site_id
_symmetry_equiv_pos_as_xyz
1 x,y,z
2 -x,y,1/2-z
3 1/2+x,1/2+y,z
4 1/2-x,1/2+y,1/2-z
5 -x,-y,-z
6 x,-y,1/2+z
7 1/2-x,1/2-y,-z
8 1/2+x,1/2-y,1/2+z
_cell_length_a                   30.528(5)
_cell_length_b                   19.241(3)
_cell_length_c                   20.103(4)
_cell_angle_alpha                90
_cell_angle_beta                 128.611(3)
_cell_angle_gamma                90
_cell_volume                     9227
loop_
_atom_site_label
_atom_site_type_symbol
_atom_site_fract_x
_atom_site_fract_y
_atom_site_fract_z
Cu1 Cu 0.004766(5) 0.442446(9) 0.190019(9)
Cu2 Cu 0.211166(6) 0.642381(9) 0.740775(9)
Cu3 Cu 0.299300(6) 0.704414(9) 0.767510(9)
O1 O 0.06442(3) 0.50998(5) 0.25988(5)
O2 O 0.14580(3) 0.59370(6) 0.73492(5)
H1 H 0.1599 0.5716 0.7802
H2 H 0.1136 0.5915 0.6978
O3 O 0.05140(3) 0.51811(5) 0.35772(5)
O4 O 0.37977(4) 0.72764(7) 0.80220(7)
H3 H 0.3800 0.7688 0.7886
H4 H 0.4046 0.7227 0.8557
O5 O 0.18863(3) 0.63231(6) 0.62500(5)
O6 O 0.26296(3) 0.68576(6) 0.64854(5)
O7 O 0.25631(3) 0.66607(6) 0.86406(5)
O8 O 0.32768(3) 0.72262(6) 0.88372(5)
O9 O 0.44309(3) 0.87570(6) 1.13128(5)
O10 O 0.44198(3) 0.86553(5) 1.24107(5)
O11 O 0.24804(3) 0.55196(5) 0.76901(6)
O12 O 0.32192(3) 0.60424(5) 0.79371(6)
O13 O 0.31820(3) 0.23709(5) 0.78819(6)
O14 O 0.24542(3) 0.29082(5) 0.76776(6)
O15 O 0.01977(3) 0.43368(6) 0.09949(5)
N1 N -0.01270(5) 0.39158(8) -0.02889(7)
C1 C 0.12421(5) 0.58183(7) 0.37883(8)
C2 C 0.14549(5) 0.59740(8) 0.46143(8)
H5 H 0.1273 0.5800 0.4828
C3 C 0.19334(5) 0.63843(8) 0.51339(8)
C4 C 0.21904(5) 0.66498(8) 0.48057(8)
H6 H 0.2521 0.6923 0.5158
C5 C 0.19669(5) 0.65177(9) 0.39743(8)
H7 H 0.2130 0.6721 0.3744
C6 C 0.15055(5) 0.60902(8) 0.34768(8)
H8 H 0.1366 0.5980 0.2915
C7 C 0.07607(5) 0.53270(8) 0.32777(8)
C8 C 0.21709(5) 0.65328(8) 0.60313(8)
C9 C 0.32104(5) 0.72317(8) 0.99373(8)
C10 C 0.36183(5) 0.77382(7) 1.03960(8)
H9 H 0.3773 0.7948 1.0156
C11 C 0.38089(5) 0.79497(8) 1.12023(8)
C12 C 0.35838(5) 0.76465(8) 1.15511(8)
H10 H 0.3707 0.7787 1.2097
C13 C 0.31727(5) 0.71317(8) 1.10969(8)
H11 H 0.3022 0.6917 1.1340
C14 C 0.29863(5) 0.69347(9) 1.03004(8)
H12 H 0.2701 0.6592 0.9993
C15 C 0.30017(5) 0.70247(7) 0.90729(8)
C16 C 0.42513(4) 0.85008(8) 1.16826(7)
C17 C 0.32429(5) 0.48302(8) 0.80509(8)
C18 C 0.29656(5) 0.42097(7) 0.79258(8)
H13 H 0.2600 0.4217 0.7765
C19 C 0.32256(5) 0.35812(8) 0.80372(8)
C20 C 0.37643(6) 0.35810(9) 0.83038(11)
H14 H 0.3951 0.3153 0.8400
C21 C 0.40308(6) 0.41950(10) 0.84306(14)
H15 H 0.4402 0.4190 0.8610
C22 C 0.37744(6) 0.48138(10) 0.83044(11)
H16 H 0.3966 0.5236 0.8393
C23 C 0.29587(5) 0.55201(8) 0.78833(8)
C24 C 0.29315(5) 0.28987(8) 0.78578(7)
C25 C -0.01847(5) 0.42410(9) 0.02156(8)
C26 C -0.07674(6) 0.45020(11) -0.02962(9)
H17 H -0.0777 0.5013 -0.0363
H18 H -0.0936 0.4384 -0.0021
C27 C -0.10795(8) 0.41422(12) -0.11540(11)
H19 H -0.1338 0.4467 -0.1626
H20 H -0.1296 0.3739 -0.1192
C28 C -0.06090(7) 0.39112(11) -0.11709(9)
H21 H -0.0681 0.3440 -0.1418
H22 H -0.0563 0.4240 -0.1502
C29 C 0.04045(6) 0.35990(12) -0.00210(11)
H23 H 0.0701 0.3683 0.0588
H24 H 0.0511 0.3807 -0.0346
H25 H 0.0352 0.3097 -0.0128
Cu1A Cu -0.004766(5) 0.442446(9) 0.309981(9)
Cu1B Cu 0.504766(5) 0.942446(9) 1.190019(9)
Cu1C Cu 0.495234(5) 0.942446(9) 1.309981(9)
Cu2C Cu 0.288834(6) 0.142381(9) 0.759225(9)
Cu3C Cu 0.200700(6) 0.204414(9) 0.732490(9)
O3A O -0.05140(3) 0.51811(5) 0.14228(5)
O9B O -0.05691(3) 0.37570(6) 0.13128(5)
O10C O 0.05802(3) 0.36553(5) 0.25893(5)
O13C O 0.18180(3) 0.73709(5) 0.71181(6)
O14C O 0.25458(3) 0.79082(5) 0.73224(6)
O16 O 0.18166(4) 0.56081(6) 0.89631(6)
N2 N 0.24371(5) 0.53203(8) 1.03602(8)
C30 C 0.22646(6) 0.53720(9) 0.95617(9)
C31 C 0.27222(6) 0.51114(10) 0.95500(10)
H26 H 0.2875 0.5493 0.9419
H27 H 0.2582 0.4740 0.9120
C32 C 0.31683(7) 0.48301(15) 1.04443(13)
H28 H 0.3191 0.4318 1.0431
H29 H 0.3540 0.5028 1.0685
C33 C 0.29969(6) 0.50403(11) 1.09700(11)
H30 H 0.2995 0.4634 1.1271
H31 H 0.3255 0.5396 1.1395
C34 C 0.21160(7) 0.55614(10) 1.06082(10)
H32 H 0.1731 0.5654 1.0099
H33 H 0.2283 0.5990 1.0941
H34 H 0.2114 0.5206 1.0955
O17 O 0.03118(7) 0.19949(13) 0.53331(11)
N3 N 0.04415(8) 0.14307(13) 0.44848(14)
C35 C 0.02656(9) 0.1934(2) 0.46821(17)
C36 C -0.00416(11) 0.24713(19) 0.39068(18)
H35 H -0.0419 0.2592 0.3720
H36 H 0.0181 0.2903 0.4069
C37 C -0.00807(12) 0.2103(2) 0.3240(2)
H37 H 0.0025 0.2414 0.2970
H38 H -0.0470 0.1941 0.2798
C38 C 0.03417(10) 0.14479(14) 0.36749(15)
H39 H 0.0163 0.1015 0.3344
H40 H 0.0691 0.1534 0.3753
C39 C 0.07456(13) 0.08422(18) 0.5050(2)
H41 H 0.0835 0.0936 0.5603
H42 H 0.1093 0.0771 0.5130
H43 H 0.0513 0.0424 0.4800
O18 O -0.00809(9) 0.08400(17) 0.88070(13)
O19? O 0.04664(10) 0.1365(2) 0.54420(17)
N4? N 0.02297(13) 0.1836(2) 0.4194(2)
C40? C 0.04350(11) 0.13166(19) 0.48502(19)
C41? C 0.06406(13) 0.07609(19) 0.4549(2)
H44? H 0.1050 0.0692 0.4980
H45? H 0.0451 0.0312 0.4452
C42? C 0.05017(19) 0.1021(3) 0.3757(3)
H46? H 0.0850 0.1071 0.3823
H47? H 0.0257 0.0681 0.3296
C43? C 0.02295(15) 0.1660(2) 0.3532(2)
H48? H 0.0432 0.2014 0.3459
H49? H -0.0159 0.1622 0.2994
C44? C 0.00435(19) 0.2461(3) 0.4217(3)
H50? H -0.0184 0.2669 0.3647
H51? H 0.0364 0.2764 0.4617
H52? H -0.0185 0.2407 0.4402
O20? O 0.08140(8) 0.14681(15) 0.78774(13)
H53? H 0.07514(9) 0.1431(4) 0.82392(14)
H54? H 0.10908(10) 0.1746(2) 0.8095(3)
H55? H 0.0218(2) 0.1064(2) 0.9199(2)
H56? H -0.00442(16) 0.0739(3) 0.84271(14)
O21? O 0.05366(9) 0.24802(18) 0.72953(15)
N5? N 0.04716(10) 0.25217(19) 0.83712(18)
C45? C 0.11016(14) 0.1856(3) 0.9276(2)
H57? H 0.0964 0.1379 0.9235
H58? H 0.1472 0.1896 0.9846
C46? C 0.00119(12) 0.3046(2) 0.7911(2)
H59? H 0.0157 0.3483 0.7865
H60? H -0.0132 0.3127 0.8225
H61? H -0.0292 0.2874 0.7339
C47? C 0.07030(12) 0.2304(2) 0.8034(2)
C48? C 0.11955(14) 0.1901(3) 0.8689(2)
H62? H 0.1199 0.1437 0.8478
H63? H 0.1548 0.2149 0.8921
C49? C 0.07675(13) 0.2277(2) 0.92629(19)
H64? H 0.0969 0.2655 0.9686
H65? H 0.0514 0.2035 0.9337
loop_
_geom_bond_atom_site_label_1
_geom_bond_atom_site_label_2
_geom_bond_site_symmetry_1
_geom_bond_site_symmetry_2
Cu1 O1 1_555 1_555
Cu2 Cu3 1_555 1_555
Cu3 O4 1_555 1_555
O1 C7 1_555 1_555
O2 Cu2 1_555 1_555
H1 O2 1_555 1_555
H2 O2 1_555 1_555
O3 C7 1_555 1_555
O4 H3 1_555 1_555
H4 O4 1_555 1_555
O5 Cu2 1_555 1_555
O6 Cu3 1_555 1_555
O7 Cu2 1_555 1_555
O8 Cu3 1_555 1_555
O9 C16 1_555 1_555
O10 C16 1_555 1_555
O11 Cu2 1_555 1_555
O12 Cu3 1_555 1_555
O13 C24 1_555 1_555
O14 C24 1_555 1_555
O15 Cu1 1_555 1_555
N1 C25 1_555 1_555
C1 C2 1_555 1_555
C2 H5 1_555 1_555
C3 C2 1_555 1_555
C4 C3 1_555 1_555
H6 C4 1_555 1_555
C5 C4 1_555 1_555
H7 C5 1_555 1_555
C6 C1 1_555 1_555
H8 C6 1_555 1_555
C7 C1 1_555 1_555
C8 O5 1_555 1_555
C9 C10 1_555 1_555
C10 H9 1_555 1_555
C11 C10 1_555 1_555
C12 C11 1_555 1_555
H10 C12 1_555 1_555
C13 C12 1_555 1_555
H11 C13 1_555 1_555
C14 C9 1_555 1_555
H12 C14 1_555 1_555
C15 O7 1_555 1_555
C16 C11 1_555 1_555
C17 C18 1_555 1_555
C18 H13 1_555 1_555
C19 C18 1_555 1_555
C20 C19 1_555 1_555
H14 C20 1_555 1_555
C21 C20 1_555 1_555
H15 C21 1_555 1_555
C22 C17 1_555 1_555
H16 C22 1_555 1_555
C23 O11 1_555 1_555
C24 C19 1_555 1_555
C25 O15 1_555 1_555
C26 C25 1_555 1_555
H17 C26 1_555 1_555
H18 C26 1_555 1_555
C27 C26 1_555 1_555
H19 C27 1_555 1_555
H20 C27 1_555 1_555
C28 N1 1_555 1_555
H21 C28 1_555 1_555
H22 C28 1_555 1_555
C29 N1 1_555 1_555
H23 C29 1_555 1_555
H24 C29 1_555 1_555
H25 C29 1_555 1_555
O16 C30 1_555 1_555
N2 C30 1_555 1_555
C30 C31 1_555 1_555
C31 H26 1_555 1_555
H27 C31 1_555 1_555
C32 C31 1_555 1_555
H28 C32 1_555 1_555
H29 C32 1_555 1_555
C33 N2 1_555 1_555
H30 C33 1_555 1_555
H31 C33 1_555 1_555
C34 N2 1_555 1_555
H32 C34 1_555 1_555
H33 C34 1_555 1_555
H34 C34 1_555 1_555
O17 C35 1_555 1_555
N3 C35 1_555 1_555
C35 C36 1_555 1_555
C36 H35 1_555 1_555
H36 C36 1_555 1_555
C37 C36 1_555 1_555
H37 C37 1_555 1_555
H38 C37 1_555 1_555
C38 N3 1_555 1_555
H39 C38 1_555 1_555
H40 C38 1_555 1_555
C39 N3 1_555 1_555
H41 C39 1_555 1_555
H42 C39 1_555 1_555
H43 C39 1_555 1_555
Cu1A Cu1 1_555 1_555
Cu1B O9 1_555 1_555
Cu1C O10 1_555 1_555
Cu2C O13 1_555 1_555
Cu3C O14 1_555 1_555
O3A Cu1 1_555 1_555
O9B Cu1 1_555 1_555
O10C Cu1 1_555 1_555
O13C Cu2 1_555 1_555
O14C Cu3 1_555 1_555
O3 Cu1A 1_555 1_555
O6 C8 1_555 1_555
O8 C15 1_555 1_555
O12 C23 1_555 1_555
C3 C8 1_555 1_555
C5 C6 1_555 1_555
C9 C15 1_555 1_555
C13 C14 1_555 1_555
C17 C23 1_555 1_555
C21 C22 1_555 1_555
C27 C28 1_555 1_555
C32 C33 1_555 1_555
C37 C38 1_555 1_555
Cu1B Cu1C 1_555 1_555
Cu2C Cu3C 1_555 1_555

#END
