
#######################################################################
#
#                 Cambridge Crystallographic Data Centre
#                                CCDC 
#
#######################################################################
#
# If this CIF has been generated from an entry in the Cambridge 
# Structural Database, then it will include bibliographic, chemical, 
# crystal, experimental, refinement or atomic coordinate data resulting 
# from the CCDC's data processing and validation procedures.
#
#######################################################################

data_CIFGOP
_symmetry_cell_setting           monoclinic
_symmetry_space_group_name_H-M   'P c'
_symmetry_Int_Tables_number      7
_space_group_name_Hall           'P -2yc'
loop_
_symmetry_equiv_pos_site_id
_symmetry_equiv_pos_as_xyz
1 x,y,z
2 x,-y,1/2+z
_cell_length_a                   7.1781(2)
_cell_length_b                   14.0979(3)
_cell_length_c                   16.0641(4)
_cell_angle_alpha                90
_cell_angle_beta                 121.726(2)
_cell_angle_gamma                90
_cell_volume                     1382.71
loop_
_atom_site_label
_atom_site_type_symbol
_atom_site_fract_x
_atom_site_fract_y
_atom_site_fract_z
Zn1 Zn 0.62382(9) 0.75590(5) 0.55249(4)
Zn2 Zn 1.25047(12) 0.73685(6) 0.66418(6)
O1 O 0.7253(8) 0.7969(3) 0.4648(3)
O2 O 1.0668(8) 0.8526(3) 0.5677(3)
O3 O 0.5529(9) 1.2136(3) 0.1817(4)
O4 O 0.7019(9) 1.1161(3) 0.1261(3)
O5 O 0.6640(8) 0.6157(3) 0.5945(4)
O6 O 0.9776(8) 0.6898(3) 0.6757(4)
O7 O 1.1697(8) 0.3442(3) 1.0348(3)
O8 O 1.3048(8) 0.2619(3) 0.9581(3)
O9 O 1.3231(8) 0.8178(3) 0.7909(3)
O10 O 1.4305(10) 0.6164(3) 0.7501(4)
C1 C 0.8258(10) 0.9325(4) 0.4175(4)
C2 C 0.6930(10) 0.9098(4) 0.3209(4)
H1 H 0.6383 0.8485 0.3035
C3 C 0.6380(11) 0.9774(4) 0.2478(5)
H2 H 0.5511 0.9593 0.1826
C4 C 0.7079(10) 1.0690(4) 0.2692(4)
C5 C 0.8389(10) 1.0980(4) 0.3693(5)
C6 C 0.9092(12) 1.1933(5) 0.3942(5)
H3 H 0.8725 1.2380 0.3453
C7 C 1.0302(14) 1.2187(5) 0.4896(6)
H4 H 1.0671 1.2821 0.5061
C8 C 1.0999(13) 1.1513(5) 0.5633(6)
H5 H 1.1893 1.1701 0.6281
C9 C 1.0417(11) 1.0595(4) 0.5433(5)
H6 H 1.0915 1.0159 0.5941
C10 C 0.9048(10) 1.0291(4) 0.4451(4)
C11 C 0.8795(10) 0.8539(4) 0.4890(4)
C12 C 0.6476(11) 1.1383(4) 0.1868(4)
C13 C 0.9510(10) 0.5398(4) 0.7375(4)
C14 C 1.0805(12) 0.5638(4) 0.8316(5)
H7 H 1.1223 0.6268 0.8479
C15 C 1.1548(11) 0.4955(4) 0.9064(4)
H8 H 1.2395 0.5137 0.9717
C16 C 1.1000(11) 0.3999(4) 0.8816(5)
C17 C 0.9753(10) 0.3730(4) 0.7842(4)
C18 C 0.9231(13) 0.2775(4) 0.7567(5)
H9 H 0.9730 0.2313 0.8051
C19 C 0.8015(13) 0.2507(4) 0.6610(5)
H10 H 0.7769 0.1867 0.6448
C20 C 0.7122(15) 0.3206(5) 0.5861(5)
H11 H 0.6218 0.3028 0.5210
C21 C 0.7602(14) 0.4147(5) 0.6106(5)
H12 H 0.7074 0.4601 0.5613
C22 C 0.8902(11) 0.4439(4) 0.7108(4)
C23 C 0.8587(12) 0.6199(4) 0.6637(5)
C24 C 1.2017(10) 0.3309(4) 0.9679(4)
C25 C 1.2648(12) 0.8983(5) 0.7868(5)
H13 H 1.1753 0.9247 0.7250
C26 C 1.4650(13) 0.9156(5) 0.9639(5)
H14 H 1.5118 0.8530 0.9596
H15 H 1.3881 0.9131 0.9978
H16 H 1.5906 0.9562 0.9988
C27 C 1.2403(14) 1.0512(5) 0.8523(7)
H17 H 1.1889 1.0717 0.7867
H18 H 1.3576 1.0917 0.8978
H19 H 1.1225 1.0544 0.8642
C28 C 1.3929(15) 0.5353(6) 0.7206(6)
H20 H 1.3016 0.5264 0.6534
C29 C 1.6181(16) 0.4664(8) 0.8790(6)
H21 H 1.6462 0.5323 0.8965
H22 H 1.7531 0.4349 0.8977
H23 H 1.5539 0.4378 0.9124
C30 C 1.422(2) 0.3653(6) 0.7374(8)
H24 H 1.2694 0.3614 0.6871
H25 H 1.4527 0.3212 0.7887
H26 H 1.5094 0.3500 0.7103
N1 N 1.3195(10) 0.9532(4) 0.8651(4)
N2 N 1.4707(10) 0.4580(4) 0.7757(4)
Zn1A Zn 0.62382(9) 1.24410(5) 0.05249(4)
Zn1A_2 Zn 1.62382(9) 0.24410(5) 1.05249(4)
Zn2A Zn 0.25047(12) 1.26315(6) 0.16418(6)
Zn2A_2 Zn 1.25047(12) 0.26315(6) 1.16418(6)
O3A O 0.5529(9) 0.7864(3) 0.6817(4)
O3A_2 O 1.5529(9) 0.7864(3) 0.6817(4)
O4A O 0.7019(9) 0.8839(3) 0.6261(3)
O7A O 1.1697(8) 0.6558(3) 0.5348(3)
O8A O 0.3048(8) 0.7381(3) 0.4581(3)
loop_
_geom_bond_atom_site_label_1
_geom_bond_atom_site_label_2
_geom_bond_site_symmetry_1
_geom_bond_site_symmetry_2
Zn1 O1 1_555 1_555
Zn2 O2 1_555 1_555
O1 C11 1_555 1_555
O2 C11 1_555 1_555
O3 C12 1_555 1_555
O4 C12 1_555 1_555
O5 Zn1 1_555 1_555
O6 Zn1 1_555 1_555
O7 C24 1_555 1_555
O8 C24 1_555 1_555
O9 Zn2 1_555 1_555
O10 Zn2 1_555 1_555
C1 C2 1_555 1_555
C2 H1 1_555 1_555
C3 C2 1_555 1_555
H2 C3 1_555 1_555
C4 C3 1_555 1_555
C5 C4 1_555 1_555
C6 C5 1_555 1_555
H3 C6 1_555 1_555
C7 C6 1_555 1_555
H4 C7 1_555 1_555
C8 C7 1_555 1_555
H5 C8 1_555 1_555
C9 C8 1_555 1_555
H6 C9 1_555 1_555
C10 C1 1_555 1_555
C11 C1 1_555 1_555
C12 C4 1_555 1_555
C13 C14 1_555 1_555
C14 H7 1_555 1_555
C15 C14 1_555 1_555
H8 C15 1_555 1_555
C16 C15 1_555 1_555
C17 C16 1_555 1_555
C18 C17 1_555 1_555
H9 C18 1_555 1_555
C19 C18 1_555 1_555
H10 C19 1_555 1_555
C20 C19 1_555 1_555
H11 C20 1_555 1_555
C21 C20 1_555 1_555
H12 C21 1_555 1_555
C22 C13 1_555 1_555
C23 O5 1_555 1_555
C24 C16 1_555 1_555
C25 O9 1_555 1_555
H13 C25 1_555 1_555
C26 H14 1_555 1_555
H15 C26 1_555 1_555
H16 C26 1_555 1_555
C27 H17 1_555 1_555
H18 C27 1_555 1_555
H19 C27 1_555 1_555
C28 O10 1_555 1_555
H20 C28 1_555 1_555
C29 H21 1_555 1_555
H22 C29 1_555 1_555
H23 C29 1_555 1_555
C30 H24 1_555 1_555
H25 C30 1_555 1_555
H26 C30 1_555 1_555
N1 C25 1_555 1_555
N2 C28 1_555 1_555
Zn1A O3 1_555 1_555
Zn1A_2 O8 1_555 1_555
Zn2A O3 1_555 1_555
Zn2A_2 O7 1_555 1_555
O3A Zn1 1_555 1_555
O3A_2 Zn2 1_555 1_555
O4A Zn1 1_555 1_555
O7A Zn2 1_555 1_555
O8A Zn1 1_555 1_555
Zn2 O6 1_555 1_555
O4 Zn1A 1_555 1_555
O6 C23 1_555 1_555
C5 C10 1_555 1_555
C9 C10 1_555 1_555
C13 C23 1_555 1_555
C17 C22 1_555 1_555
C21 C22 1_555 1_555
C26 N1 1_555 1_555
C27 N1 1_555 1_555
C29 N2 1_555 1_555
C30 N2 1_555 1_555

#END
