
#######################################################################
#
#                 Cambridge Crystallographic Data Centre
#                                CCDC 
#
#######################################################################
#
# If this CIF has been generated from an entry in the Cambridge 
# Structural Database, then it will include bibliographic, chemical, 
# crystal, experimental, refinement or atomic coordinate data resulting 
# from the CCDC's data processing and validation procedures.
#
#######################################################################

data_CIFMIP
_symmetry_cell_setting           orthorhombic
_symmetry_space_group_name_H-M   'I b a 2'
_symmetry_Int_Tables_number      45
_space_group_name_Hall           'I 2 -2c'
loop_
_symmetry_equiv_pos_site_id
_symmetry_equiv_pos_as_xyz
1 x,y,z
2 -x,-y,z
3 -x,y,1/2+z
4 x,-y,1/2+z
5 1/2+x,1/2+y,1/2+z
6 1/2-x,1/2-y,1/2+z
7 1/2-x,1/2+y,z
8 1/2+x,1/2-y,z
_cell_length_a                   19.695(4)
_cell_length_b                   21.188(4)
_cell_length_c                   17.820(4)
_cell_angle_alpha                90
_cell_angle_beta                 90
_cell_angle_gamma                90
_cell_volume                     7436.24
loop_
_atom_site_label
_atom_site_type_symbol
_atom_site_fract_x
_atom_site_fract_y
_atom_site_fract_z
O1 O 0.2866(8) 0.9415(7) 0.5544(7)
O2 O 0.2334(10) 0.8498(7) 0.5561(8)
C1 C 0.2616(13) 0.8961(12) 0.5200(14)
C2 C 0.2623(9) 0.8936(9) 0.4366(9)
C3 C 0.2351(14) 0.8410(12) 0.3966(11)
H1 H 0.2220 0.8049 0.4227
C4 C 0.2716(11) 0.9502(9) 0.3173(12)
C5 C 0.2460(12) 0.8997(11) 0.2798(12)
H2 H 0.2399 0.9012 0.2281
C6 C 0.2282(11) 0.8432(9) 0.3217(10)
C7 C 0.1986(9) 0.7860(10) 0.2802(13)
O3 O 0.1795(10) 0.7418(7) 0.3203(7)
O4 O 0.1916(8) 0.7916(8) 0.2127(7)
Co1 Co 0.13432(12) 0.72464(12) 0.16173(14)
Co2 Co 0.16853(12) 0.64409(12) 0.31045(13)
Co3 Co 0.26210(12) 0.60001(12) 0.15875(15)
O5 O 0.3629(7) 0.7454(7) 0.5563(7)
O6 O 0.4360(9) 0.8250(8) 0.5456(8)
H3 H 0.4748 0.8126 0.5538
O7 O 0.3212(6) 0.6588(9) 0.2191(7)
O8 O 0.2725(8) 0.6427(9) 0.3274(8)
O9 O 0.5608(6) 0.8418(7) 0.3059(8)
O10 O 0.3327(8) 1.0475(6) 0.3087(10)
O11 O 0.1546(10) 0.6378(10) 0.4288(10)
O12 O 0.1718(6) 0.6451(7) 0.1938(7)
O13 O 0.2567(9) 1.0207(8) 0.2228(8)
O14 O 0.3466(10) 0.5513(12) 0.1222(12)
O15 O 0.5458(8) 0.7675(8) 0.2171(7)
C8 C 0.2859(8) 0.9468(11) 0.3986(10)
H4 H 0.3095 0.9786 0.4232
C9 C 0.4095(8) 0.7632(10) 0.4360(9)
C10 C 0.3638(10) 0.7236(10) 0.4008(9)
H5 H 0.3275 0.7076 0.4282
C11 C 0.3704(12) 0.7069(11) 0.3262(8)
C12 C 0.4215(11) 0.7314(11) 0.2851(12)
H6 H 0.4243 0.7223 0.2342
C13 C 0.4731(9) 0.7725(9) 0.3203(9)
C14 C 0.4598(11) 0.7899(11) 0.3951(10)
H7 H 0.4865 0.8210 0.4173
C15 C 0.4041(11) 0.7840(15) 0.5196(14)
C16 C 0.3197(9) 0.6643(12) 0.2857(10)
C17 C 0.2877(11) 1.0096(12) 0.2818(9)
C18 C 0.5303(10) 0.7955(11) 0.2772(15)
C19 C 0.160(3) 0.673(2) 0.481(2)
H8 H 0.2030 0.6911 0.4789
N1 N 0.129(3) 0.698(2) 0.542(2)
C20 C 0.083(4) 0.751(4) 0.531(4)
H9 H 0.0471 0.7485 0.5673
H10 H 0.0642 0.7490 0.4814
H11 H 0.1074 0.7896 0.5373
C21 C 0.172(2) 0.707(2) 0.605(2)
H12 H 0.1735 0.7505 0.6182
H13 H 0.2173 0.6924 0.5930
H14 H 0.1551 0.6826 0.6466
H15 H 0.341(3) 0.510(7) 0.101(17)
H16 H 0.386(4) 0.556(12) 0.150(11)
H17 H 0.194(7) 0.665(8) 0.161(11)
O1E O 0.2134(8) 0.5585(7) 0.0544(7)
O2E O 0.2666(10) 0.6502(7) 0.0561(8)
Co1E Co 0.36568(12) 0.77536(12) 0.66173(14)
Co1G Co 0.63432(12) 0.77536(12) 0.16173(14)
Co2F Co 0.33147(12) 1.14409(12) 0.31045(13)
Co2G Co 0.66853(12) 0.85591(12) 0.31045(13)
Co3E Co 0.23790(12) 0.89999(12) 0.65875(15)
Co3F Co 0.23790(12) 1.10001(12) 0.15875(15)
O5E O 0.1371(7) 0.7546(7) 0.0563(7)
O9G O 0.0608(6) 0.6582(7) 0.3059(8)
O10F O 0.1673(8) 0.5475(6) 0.3087(10)
O13F O 0.2433(9) 0.5207(8) 0.2228(8)
O15G O 0.0458(8) 0.7325(8) 0.2171(7)
loop_
_geom_bond_atom_site_label_1
_geom_bond_atom_site_label_2
_geom_bond_site_symmetry_1
_geom_bond_site_symmetry_2
O1 C1 1_555 1_555
O2 C1 1_555 1_555
C1 C2 1_555 1_555
C2 C3 1_555 1_555
C3 H1 1_555 1_555
C4 C5 1_555 1_555
C5 H2 1_555 1_555
C6 C3 1_555 1_555
C7 C6 1_555 1_555
O3 C7 1_555 1_555
O4 C7 1_555 1_555
Co1 O4 1_555 1_555
Co2 O3 1_555 1_555
Co3 O7 1_555 1_555
O5 C15 1_555 1_555
O6 H3 1_555 1_555
O7 C16 1_555 1_555
O8 Co2 1_555 1_555
O9 C18 1_555 1_555
O10 C17 1_555 1_555
O11 Co2 1_555 1_555
O12 Co1 1_555 1_555
O13 C17 1_555 1_555
O14 Co3 1_555 1_555
O15 C18 1_555 1_555
C8 C2 1_555 1_555
H4 C8 1_555 1_555
C9 C10 1_555 1_555
C10 H5 1_555 1_555
C11 C10 1_555 1_555
C12 C11 1_555 1_555
H6 C12 1_555 1_555
C13 C12 1_555 1_555
C14 C9 1_555 1_555
H7 C14 1_555 1_555
C15 O6 1_555 1_555
C16 O8 1_555 1_555
C17 C4 1_555 1_555
C18 C13 1_555 1_555
C19 O11 1_555 1_555
H8 C19 1_555 1_555
N1 C19 1_555 1_555
C20 N1 1_555 1_555
H9 C20 1_555 1_555
H10 C20 1_555 1_555
H11 C20 1_555 1_555
C21 N1 1_555 1_555
H12 C21 1_555 1_555
H13 C21 1_555 1_555
H14 C21 1_555 1_555
H15 O14 1_555 1_555
H16 O14 1_555 1_555
H17 O12 1_555 1_555
O1E Co3 1_555 1_555
O2E Co3 1_555 1_555
Co1E O5 1_555 1_555
Co1G O15 1_555 1_555
Co2F O10 1_555 1_555
Co2G O9 1_555 1_555
Co3E O1 1_555 1_555
Co3F O13 1_555 1_555
O5E Co1 1_555 1_555
O9G Co2 1_555 1_555
O10F Co2 1_555 1_555
O13F Co3 1_555 1_555
O15G Co1 1_555 1_555
O2 Co3E 1_555 1_555
C4 C8 1_555 1_555
C5 C6 1_555 1_555
Co2 O12 1_555 1_555
Co3 O12 1_555 1_555
C9 C15 1_555 1_555
C11 C16 1_555 1_555
C13 C14 1_555 1_555

#END
