
#######################################################################
#
#                 Cambridge Crystallographic Data Centre
#                                CCDC 
#
#######################################################################
#
# If this CIF has been generated from an entry in the Cambridge 
# Structural Database, then it will include bibliographic, chemical, 
# crystal, experimental, refinement or atomic coordinate data resulting 
# from the CCDC's data processing and validation procedures.
#
#######################################################################

data_CIFROZ
_symmetry_cell_setting           monoclinic
_symmetry_space_group_name_H-M   'P 21/n'
_symmetry_Int_Tables_number      14
_space_group_name_Hall           '-P 2yn'
loop_
_symmetry_equiv_pos_site_id
_symmetry_equiv_pos_as_xyz
1 x,y,z
2 1/2-x,1/2+y,1/2-z
3 -x,-y,-z
4 1/2+x,1/2-y,1/2+z
_cell_length_a                   15.154(2)
_cell_length_b                   7.9144(13)
_cell_length_c                   16.439(3)
_cell_angle_alpha                90
_cell_angle_beta                 111.232(11)
_cell_angle_gamma                90
_cell_volume                     1837.78
loop_
_atom_site_label
_atom_site_type_symbol
_atom_site_fract_x
_atom_site_fract_y
_atom_site_fract_z
K1 K 0.68707(11) 0.91279(19) 0.70849(10)
C1 C 0.5321(4) 1.5653(8) 0.5318(4)
H1 H 0.4971 1.6736 0.5228
H2 H 0.5881 1.5838 0.5155
B1 B 0.6181(6) 1.2760(9) 0.6630(5)
H3 H 0.6397 1.2427 0.7246
H4 H 0.6704 1.2643 0.6417
H5 H 0.5655 1.2031 0.6287
P1 P 0.57508(12) 1.5145(2) 0.65103(11)
C2 C 0.4650(4) 1.5092(8) 0.6743(4)
C3 C 0.4667(5) 1.4244(10) 0.7510(4)
H6 H 0.5223 1.3665 0.7862
C4 C 0.3873(6) 1.4250(11) 0.7753(5)
H7 H 0.3890 1.3651 0.8259
C5 C 0.3068(6) 1.5118(12) 0.7265(5)
H8 H 0.2541 1.5155 0.7447
C6 C 0.3030(5) 1.5936(12) 0.6510(5)
H9 H 0.2466 1.6500 0.6161
C7 C 0.3817(5) 1.5933(9) 0.6259(4)
H10 H 0.3784 1.6520 0.5745
O1 O 0.7205(3) 0.8686(6) 0.5596(3)
C8 C 0.6650(6) 0.9562(10) 0.4815(5)
H11 H 0.6652 1.0791 0.4927
H12 H 0.5987 0.9155 0.4605
C9 C 0.7089(10) 0.9207(15) 0.4155(7)
H13 H 0.6687 0.8431 0.3699
H14 H 0.7178 1.0266 0.3874
C10 C 0.8012(8) 0.8415(14) 0.4647(8)
H15 H 0.8521 0.9272 0.4846
H16 H 0.8180 0.7562 0.4286
C11 C 0.7852(6) 0.7593(11) 0.5415(6)
H17 H 0.7580 0.6447 0.5261
H18 H 0.8452 0.7509 0.5923
O2 O 0.6008(4) 0.9002(7) 0.8264(4)
C12 C 0.5045(6) 0.9415(11) 0.7990(6)
H19 H 0.4667 0.8679 0.7501
H20 H 0.4940 1.0607 0.7796
C13 C 0.4779(8) 0.9145(19) 0.8755(9)
H21 H 0.4121 0.8719 0.8571
H22 H 0.4821 1.0218 0.9076
C14 C 0.5443(6) 0.7894(14) 0.9312(6)
H23 H 0.5130 0.6784 0.9277
H24 H 0.5692 0.8271 0.9928
C15 C 0.6235(6) 0.7785(10) 0.8949(5)
H25 H 0.6853 0.8047 0.9409
H26 H 0.6264 0.6637 0.8720
K1B K 0.31293(11) 2.08721(19) 0.29151(10)
K1A K 0.81293(11) 1.41279(19) 0.79151(10)
K1_2 K 0.68707(11) 1.91279(19) 0.70849(10)
K1C K 0.18707(11) 1.58721(19) 0.20849(10)
K1B_2 K 0.31293(11) 1.08721(19) 0.29151(10)
C1B C 0.4679(4) 1.4347(8) 0.4682(4)
H1B H 0.5029 1.3264 0.4772
H2B H 0.4119 1.4162 0.4845
B1B B 0.3819(6) 1.7240(9) 0.3370(5)
B1A B 0.8819(6) 0.7760(9) 0.8370(5)
B1C B 0.1181(6) 2.2240(9) 0.1630(5)
H3B H 0.3603 1.7573 0.2754
H3A H 0.8603 0.7427 0.7754
H3C H 0.1397 2.2573 0.2246
H4B H 0.3296 1.7357 0.3583
H4A H 0.8296 0.7643 0.8583
H4C H 0.1704 2.2357 0.1417
H5B H 0.4345 1.7969 0.3713
H5A H 0.9345 0.7031 0.8713
H5C H 0.0655 2.2969 0.1287
P1B P 0.42492(12) 1.4855(2) 0.34897(11)
P1_2 P 0.57508(12) 0.5145(2) 0.65103(11)
P1A P 0.92492(12) 1.0145(2) 0.84897(11)
P1C P 0.07508(12) 1.9855(2) 0.15103(11)
P1B_2 P 0.42492(12) 2.4855(2) 0.34897(11)
C2B C 0.5350(4) 1.4908(8) 0.3257(4)
C3B C 0.5333(5) 1.5756(10) 0.2490(4)
H6B H 0.4777 1.6335 0.2138
C4B C 0.6127(6) 1.5750(11) 0.2247(5)
H7B H 0.6110 1.6349 0.1741
C5B C 0.6932(6) 1.4882(12) 0.2735(5)
H8B H 0.7459 1.4845 0.2553
C6B C 0.6970(5) 1.4064(12) 0.3490(5)
H9B H 0.7534 1.3500 0.3839
C7B C 0.6183(5) 1.4067(9) 0.3741(4)
H10B H 0.6216 1.3480 0.4255
O1B O 0.2795(3) 2.1314(6) 0.4404(3)
C8B C 0.3350(6) 2.0438(10) 0.5185(5)
H11B H 0.3348 1.9209 0.5073
H12B H 0.4013 2.0845 0.5395
C9B C 0.2911(10) 2.0793(15) 0.5845(7)
H13B H 0.3313 2.1569 0.6301
H14B H 0.2822 1.9734 0.6126
C10B C 0.1988(8) 2.1585(14) 0.5353(8)
H15B H 0.1479 2.0728 0.5154
H16B H 0.1820 2.2438 0.5714
C11B C 0.2148(6) 2.2407(11) 0.4585(6)
H17B H 0.2420 2.3553 0.4739
H18B H 0.1548 2.2491 0.4077
O2B O 0.3992(4) 2.0998(7) 0.1736(4)
C12B C 0.4955(6) 2.0585(11) 0.2010(6)
H19B H 0.5333 2.1321 0.2499
H20B H 0.5060 1.9393 0.2204
C13B C 0.5221(8) 2.0855(19) 0.1245(9)
H21B H 0.5879 2.1281 0.1429
H22B H 0.5179 1.9782 0.0924
C14B C 0.4557(6) 2.2106(14) 0.0688(6)
H23B H 0.4870 2.3216 0.0723
H24B H 0.4308 2.1729 0.0072
C15B C 0.3765(6) 2.2215(10) 0.1051(5)
H25B H 0.3147 2.1953 0.0591
H26B H 0.3736 2.3363 0.1280
loop_
_geom_bond_atom_site_label_1
_geom_bond_atom_site_label_2
_geom_bond_site_symmetry_1
_geom_bond_site_symmetry_2
K1 B1 1_555 1_555
C1 H1 1_555 1_555
H2 C1 1_555 1_555
B1 H3 1_555 1_555
H4 B1 1_555 1_555
H5 B1 1_555 1_555
P1 C1 1_555 1_555
C2 P1 1_555 1_555
C3 C2 1_555 1_555
H6 C3 1_555 1_555
C4 C3 1_555 1_555
H7 C4 1_555 1_555
C5 C4 1_555 1_555
H8 C5 1_555 1_555
C6 C5 1_555 1_555
H9 C6 1_555 1_555
C7 C2 1_555 1_555
H10 C7 1_555 1_555
O1 K1 1_555 1_555
C8 O1 1_555 1_555
H11 C8 1_555 1_555
H12 C8 1_555 1_555
C9 C8 1_555 1_555
H13 C9 1_555 1_555
H14 C9 1_555 1_555
C10 C9 1_555 1_555
H15 C10 1_555 1_555
H16 C10 1_555 1_555
C11 O1 1_555 1_555
H17 C11 1_555 1_555
H18 C11 1_555 1_555
O2 K1 1_555 1_555
C12 O2 1_555 1_555
H19 C12 1_555 1_555
H20 C12 1_555 1_555
C13 C12 1_555 1_555
H21 C13 1_555 1_555
H22 C13 1_555 1_555
C14 C13 1_555 1_555
H23 C14 1_555 1_555
H24 C14 1_555 1_555
C15 O2 1_555 1_555
H25 C15 1_555 1_555
H26 C15 1_555 1_555
K1B B1B 1_555 1_555
K1A B1 1_555 1_555
K1_2 P1 1_555 1_555
K1C B1B 1_555 1_555
K1B_2 P1B 1_555 1_555
C1B C1 1_555 1_555
H1B C1B 1_555 1_555
H2B C1B 1_555 1_555
B1B H3B 1_555 1_555
B1A K1 1_555 1_555
B1C K1B 1_555 1_555
H3A B1A 1_555 1_555
H3C B1C 1_555 1_555
H4B B1B 1_555 1_555
H4A B1A 1_555 1_555
H4C B1C 1_555 1_555
H5B B1B 1_555 1_555
H5A B1A 1_555 1_555
H5C B1C 1_555 1_555
P1B K1C 1_555 1_555
P1_2 K1 1_555 1_555
P1A K1 1_555 1_555
P1C K1B 1_555 1_555
P1B_2 K1B 1_555 1_555
C2B P1B 1_555 1_555
C3B C2B 1_555 1_555
H6B C3B 1_555 1_555
C4B C3B 1_555 1_555
H7B C4B 1_555 1_555
C5B C4B 1_555 1_555
H8B C5B 1_555 1_555
C6B C5B 1_555 1_555
H9B C6B 1_555 1_555
C7B C2B 1_555 1_555
H10B C7B 1_555 1_555
O1B K1B 1_555 1_555
C8B O1B 1_555 1_555
H11B C8B 1_555 1_555
H12B C8B 1_555 1_555
C9B C8B 1_555 1_555
H13B C9B 1_555 1_555
H14B C9B 1_555 1_555
C10B C9B 1_555 1_555
H15B C10B 1_555 1_555
H16B C10B 1_555 1_555
C11B O1B 1_555 1_555
H17B C11B 1_555 1_555
H18B C11B 1_555 1_555
O2B K1B 1_555 1_555
C12B O2B 1_555 1_555
H19B C12B 1_555 1_555
H20B C12B 1_555 1_555
C13B C12B 1_555 1_555
H21B C13B 1_555 1_555
H22B C13B 1_555 1_555
C14B C13B 1_555 1_555
H23B C14B 1_555 1_555
H24B C14B 1_555 1_555
C15B O2B 1_555 1_555
H25B C15B 1_555 1_555
H26B C15B 1_555 1_555
B1 P1 1_555 1_555
P1 K1A 1_555 1_555
C6 C7 1_555 1_555
C10 C11 1_555 1_555
C14 C15 1_555 1_555
K1A P1A 1_555 1_555
K1C P1C 1_555 1_555
C1B P1B 1_555 1_555
B1B P1B 1_555 1_555
B1A P1A 1_555 1_555
B1C P1C 1_555 1_555
C6B C7B 1_555 1_555
C10B C11B 1_555 1_555
C14B C15B 1_555 1_555

#END
