
#######################################################################
#
#                 Cambridge Crystallographic Data Centre
#                                CCDC 
#
#######################################################################
#
# If this CIF has been generated from an entry in the Cambridge 
# Structural Database, then it will include bibliographic, chemical, 
# crystal, experimental, refinement or atomic coordinate data resulting 
# from the CCDC's data processing and validation procedures.
#
#######################################################################

data_CIGFEF
_symmetry_cell_setting           monoclinic
_symmetry_space_group_name_H-M   'C c'
_symmetry_Int_Tables_number      9
_space_group_name_Hall           'C -2yc'
loop_
_symmetry_equiv_pos_site_id
_symmetry_equiv_pos_as_xyz
1 x,y,z
2 x,-y,1/2+z
3 1/2+x,1/2+y,z
4 1/2+x,1/2-y,1/2+z
_cell_length_a                   24.0351(2)
_cell_length_b                   10.06340(10)
_cell_length_c                   18.99820(10)
_cell_angle_alpha                90
_cell_angle_beta                 132.4140(10)
_cell_angle_gamma                90
_cell_volume                     3392.58
loop_
_atom_site_label
_atom_site_type_symbol
_atom_site_fract_x
_atom_site_fract_y
_atom_site_fract_z
Nd1 Nd 0.6564(7) 0.04343(10) 0.6080(9)
Nd2 Nd 0.6581(7) 0.04314(10) 0.3464(9)
S1 S 0.3936(8) -0.2032(6) 0.4375(10)
S2 S 0.4220(8) 0.2970(7) 0.5173(10)
O1 O 0.2707(11) 0.4092(17) 0.4033(15)
O2 O 0.5523(12) -0.099(2) 0.5582(14)
O3 O 0.2520(11) -0.3078(18) 0.3733(15)
O4 O 0.5658(12) 0.1927(16) 0.5850(15)
O5 O 0.7825(11) 0.0518(17) 0.6586(15)
H1 H 0.7868 -0.0166 0.6296
O6 O 0.7405(10) 0.1890(16) 0.7484(13)
H2 H 0.7725 0.1485 0.8079
O7 O 0.5327(13) 0.0318(18) 0.2977(17)
O8 O 0.2135(11) -0.4004(16) 0.2415(15)
O9 O 0.6036(11) 0.0980(16) 0.7140(15)
O10 O 0.5297(11) 0.004(2) 0.4349(14)
O11 O 0.5730(12) 0.1947(15) 0.2075(16)
H3 H 0.5635 0.1599 0.1549
O12 O 0.6491(11) 0.2071(16) 0.5155(14)
C1 C 0.4934(14) 0.2439(19) 0.6233(18)
C2 C 0.6601(15) 0.2842(11) 0.4848(18)
C3 C 0.5054(16) -0.081(3) 0.466(2)
O13 O 0.2833(11) 0.500(2) 0.5146(14)
C4 C 0.2549(13) -0.3264(18) 0.3101(18)
C5 C 0.3843(15) 0.374(2) 0.5595(19)
C6 C 0.4367(13) -0.145(2) 0.4009(17)
O14 O 0.6572(10) 0.2413(13) 0.4125(12)
C7 C 0.5577(16) 0.171(3) 0.642(2)
C8 C 0.6655(12) 0.8018(12) 0.4908(14)
C9 C 0.3241(14) -0.239(2) 0.2624(18)
H4 H 0.2906 -0.2672 0.1993
C10 C 0.3064(14) 0.433(2) 0.4886(17)
C11 C 0.3937(14) -0.164(2) 0.3069(19)
H5 H 0.4065 -0.1323 0.2733
O15 O 0.6631(13) 0.882(2) 0.5264(17)
C12 C 0.6462(10) 0.6670(17) 0.4853(13)
C13 C 0.6442(10) 0.4180(17) 0.4823(13)
C14 C 0.6359(11) 0.469(2) 0.5419(16)
H6 H 0.6302 0.4181 0.5774
C15 C 0.6373(11) 0.615(2) 0.5418(16)
H7 H 0.6325 0.6661 0.5780
S3 S 0.6534(7) 0.5420(3) 0.4285(9)
C16 C 0.5378(16) 0.306(3) 0.1849(19)
H8 H 0.4849 0.2920 0.1296
H9 H 0.5418 0.3339 0.2371
C17 C 0.7444 0.3330 0.7459
H10 H 0.7032 0.3663 0.6822
H11 H 0.7917 0.3599 0.7649
C18 C 0.5619(15) 0.400(3) 0.166(2)
H12 H 0.5292 0.4753 0.1429
H13 H 0.5627 0.3705 0.1190
H14 H 0.6120 0.4239 0.2234
O16 O 0.6463(11) 0.8412(14) 0.4022(13)
C19 C 0.4298(14) 0.354(2) 0.6557(19)
H15 H 0.4189 0.3879 0.6908
C20 C 0.4921(16) 0.281(2) 0.695(2)
H16 H 0.5287 0.2585 0.7588
C21 C 0.3148(13) -0.2615(18) 0.3223(16)
C22 C 0.8494 0.1268 0.7170
H17 H 0.8388 0.2180 0.7213
H18 H 0.8731 0.1268 0.6912
C23 C 0.7383 0.3888 0.8193
H19 H 0.7414 0.4840 0.8212
H20 H 0.7788 0.3536 0.8817
H21 H 0.6910 0.3623 0.7991
C24 C 0.9048 0.0564 0.8225
H22 H 0.9518 0.1035 0.8646
H23 H 0.9138 -0.0342 0.8170
H24 H 0.8811 0.0588 0.8477
Nd1_2 Nd 0.6564(7) 1.04343(10) 0.6080(9)
Nd1C Nd 0.1564(7) -0.54343(10) 0.1080(9)
Nd2_2 Nd 0.6581(7) 1.04314(10) 0.3464(9)
Nd2A Nd 0.6581(7) -0.04314(10) 0.8464(9)
Nd2B Nd 0.1581(7) -0.45686(10) 0.3464(9)
Nd2B_2 Nd 0.1581(7) 0.54314(10) 0.3464(9)
O1B O 0.7707(11) -0.0908(17) 0.4033(15)
O3B O 0.7520(11) 0.1922(18) 0.3733(15)
O8C O 0.7135(11) -0.0996(16) 0.7415(15)
O9A O 0.6036(11) -0.0980(16) 0.2140(15)
O13B O 0.7833(11) 0.000(2) 0.5146(14)
O15_2 O 0.6631(13) -0.118(2) 0.5264(17)
O16_2 O 0.6463(11) -0.1588(14) 0.4022(13)
loop_
_geom_bond_atom_site_label_1
_geom_bond_atom_site_label_2
_geom_bond_site_symmetry_1
_geom_bond_site_symmetry_2
Nd1 O2 1_555 1_555
Nd2 O7 1_555 1_555
S1 C6 1_555 1_555
S2 C1 1_555 1_555
O1 C10 1_555 1_555
O2 C3 1_555 1_555
O3 C4 1_555 1_555
O4 Nd1 1_555 1_555
O5 Nd1 1_555 1_555
H1 O5 1_555 1_555
O6 Nd1 1_555 1_555
H2 O6 1_555 1_555
O8 C4 1_555 1_555
O9 C7 1_555 1_555
O10 Nd1 1_555 1_555
O11 Nd2 1_555 1_555
H3 O11 1_555 1_555
O12 Nd1 1_555 1_555
C1 C7 1_555 1_555
C2 O12 1_555 1_555
C3 O10 1_555 1_555
O13 C10 1_555 1_555
C4 C21 1_555 1_555
C5 S2 1_555 1_555
C6 C3 1_555 1_555
O14 Nd2 1_555 1_555
C7 O4 1_555 1_555
C8 O15 1_555 1_555
C9 H4 1_555 1_555
C10 C5 1_555 1_555
C11 C6 1_555 1_555
H5 C11 1_555 1_555
O15 Nd1_2 1_555 1_555
C12 C8 1_555 1_555
C13 C2 1_555 1_555
C14 C13 1_555 1_555
H6 C14 1_555 1_555
C15 C12 1_555 1_555
H7 C15 1_555 1_555
S3 C12 1_555 1_555
C16 O11 1_555 1_555
H8 C16 1_555 1_555
H9 C16 1_555 1_555
C17 O6 1_555 1_555
H10 C17 1_555 1_555
H11 C17 1_555 1_555
C18 C16 1_555 1_555
H12 C18 1_555 1_555
H13 C18 1_555 1_555
H14 C18 1_555 1_555
O16 C8 1_555 1_555
C19 C5 1_555 1_555
H15 C19 1_555 1_555
C20 C1 1_555 1_555
H16 C20 1_555 1_555
C21 S1 1_555 1_555
C22 O5 1_555 1_555
H17 C22 1_555 1_555
H18 C22 1_555 1_555
C23 C17 1_555 1_555
H19 C23 1_555 1_555
H20 C23 1_555 1_555
H21 C23 1_555 1_555
C24 C22 1_555 1_555
H22 C24 1_555 1_555
H23 C24 1_555 1_555
H24 C24 1_555 1_555
Nd1C O8 1_555 1_555
Nd2_2 O16 1_555 1_555
Nd2A O9 1_555 1_555
Nd2B O3 1_555 1_555
Nd2B_2 O1 1_555 1_555
O1B Nd2 1_555 1_555
O3B Nd2 1_555 1_555
O8C Nd1 1_555 1_555
O9A Nd2 1_555 1_555
O13B Nd2 1_555 1_555
O15_2 Nd1 1_555 1_555
O16_2 Nd2 1_555 1_555
C2 O14 1_555 1_555
O13 Nd2B_2 1_555 1_555
C9 C11 1_555 1_555
C9 C21 1_555 1_555
C13 S3 1_555 1_555
C14 C15 1_555 1_555
C19 C20 1_555 1_555

#END
