
#######################################################################
#
#                 Cambridge Crystallographic Data Centre
#                                CCDC 
#
#######################################################################
#
# If this CIF has been generated from an entry in the Cambridge 
# Structural Database, then it will include bibliographic, chemical, 
# crystal, experimental, refinement or atomic coordinate data resulting 
# from the CCDC's data processing and validation procedures.
#
#######################################################################

data_CIGNIQ
_symmetry_cell_setting           monoclinic
_symmetry_space_group_name_H-M   'P 21/c'
_symmetry_Int_Tables_number      14
_space_group_name_Hall           '-P 2ybc'
loop_
_symmetry_equiv_pos_site_id
_symmetry_equiv_pos_as_xyz
1 x,y,z
2 -x,1/2+y,1/2-z
3 -x,-y,-z
4 x,1/2-y,1/2+z
_cell_length_a                   7.3475(5)
_cell_length_b                   12.1276(4)
_cell_length_c                   12.3570(6)
_cell_angle_alpha                90
_cell_angle_beta                 120.973(4)
_cell_angle_gamma                90
_cell_volume                     944.096
loop_
_atom_site_label
_atom_site_type_symbol
_atom_site_fract_x
_atom_site_fract_y
_atom_site_fract_z
Fe1 Fe 0.26540(3) -0.242960(15) 0.51941(2)
N1 N 0.2764(2) -0.32292(9) 0.67658(12)
C1 C 0.2827(3) -0.27547(13) 0.77519(15)
H1 H 0.2989 -0.1993 0.7828
N2 N 0.26765(19) -0.32918(9) 0.86368(11)
C2 C 0.2485(2) -0.43891(11) 0.85451(13)
C3 C 0.2436(2) -0.49569(12) 0.75578(13)
H2 H 0.2322 -0.5721 0.7499
C4 C 0.2565(2) -0.43276(10) 0.66602(13)
C5 C 0.2478(2) -0.48170(12) 0.54974(14)
C6 C 0.2371(2) -0.49479(11) 0.96194(13)
O1 O 0.24379(18) -0.41295(9) 0.47167(10)
O2 O 0.2424(2) -0.58276(9) 0.53897(13)
O3 O 0.25303(18) -0.43227(8) 1.04763(10)
O4 O 0.2179(2) -0.59664(9) 0.95760(12)
O5 O 0.5990(2) -0.25009(8) 0.62262(15)
H3 H 0.6504 -0.3057 0.6491
H4 H 0.6655 -0.2251 0.6050
O6 O -0.0693(2) -0.23479(8) 0.42801(13)
H5 H -0.1304 -0.2845 0.4249
H6 H -0.1242 -0.1919 0.4440
Fe1C Fe 0.26540(3) -0.257040(15) 1.01941(2)
N2C N 0.26765(19) -0.17082(9) 0.36368(11)
O3C O 0.25303(18) -0.06773(8) 0.54763(10)
O7 O 0.7408(2) -0.45778(11) 0.72437(13)
H7 H 0.7379 -0.4949 0.7735
H8 H 0.7242 -0.4994 0.6602
loop_
_geom_bond_atom_site_label_1
_geom_bond_atom_site_label_2
_geom_bond_site_symmetry_1
_geom_bond_site_symmetry_2
Fe1 N1 1_555 1_555
N1 C1 1_555 1_555
C1 H1 1_555 1_555
N2 C1 1_555 1_555
C2 N2 1_555 1_555
C3 C2 1_555 1_555
H2 C3 1_555 1_555
C4 N1 1_555 1_555
C5 C4 1_555 1_555
C6 C2 1_555 1_555
O1 Fe1 1_555 1_555
O2 C5 1_555 1_555
O3 C6 1_555 1_555
O4 C6 1_555 1_555
O5 Fe1 1_555 1_555
H3 O5 1_555 1_555
H4 O5 1_555 1_555
O6 Fe1 1_555 1_555
H5 O6 1_555 1_555
H6 O6 1_555 1_555
O7 H7 1_555 1_555
H8 O7 1_555 1_555
Fe1C N2 1_555 1_555
N2C Fe1 1_555 1_555
O3C Fe1 1_555 1_555
C3 C4 1_555 1_555
C5 O1 1_555 1_555
O3 Fe1C 1_555 1_555

#END
