
#######################################################################
#
#                 Cambridge Crystallographic Data Centre
#                                CCDC 
#
#######################################################################
#
# If this CIF has been generated from an entry in the Cambridge 
# Structural Database, then it will include bibliographic, chemical, 
# crystal, experimental, refinement or atomic coordinate data resulting 
# from the CCDC's data processing and validation procedures.
#
#######################################################################

data_CIGNUC
_symmetry_cell_setting           monoclinic
_symmetry_space_group_name_H-M   'P 21/c'
_symmetry_Int_Tables_number      14
_space_group_name_Hall           '-P 2ybc'
loop_
_symmetry_equiv_pos_site_id
_symmetry_equiv_pos_as_xyz
1 x,y,z
2 -x,1/2+y,1/2-z
3 -x,-y,-z
4 x,1/2-y,1/2+z
_cell_length_a                   7.2850(10)
_cell_length_b                   12.167(2)
_cell_length_c                   12.254(2)
_cell_angle_alpha                90
_cell_angle_beta                 120.290(10)
_cell_angle_gamma                90
_cell_volume                     937.875
loop_
_atom_site_label
_atom_site_type_symbol
_atom_site_fract_x
_atom_site_fract_y
_atom_site_fract_z
Zn1 Zn 0.26122(6) -0.24332(3) 0.51810(3)
N1 N 0.2694(4) -0.31829(19) 0.6739(2)
C1 C 0.2740(5) -0.2707(2) 0.7726(3)
H1 H 0.2860 -0.1946 0.7787
N2 N 0.2628(4) -0.32427(19) 0.8630(2)
C2 C 0.2486(5) -0.4341(2) 0.8561(3)
C3 C 0.2448(5) -0.4901(2) 0.7564(3)
H2 H 0.2363 -0.5664 0.7513
C4 C 0.2543(5) -0.4279(2) 0.6650(3)
C5 C 0.2466(5) -0.4777(3) 0.5479(3)
C6 C 0.2407(5) -0.4902(2) 0.9651(3)
O1 O 0.2441(4) -0.40937(16) 0.46891(18)
O2 O 0.2431(4) -0.57791(16) 0.5388(2)
O3 O 0.2536(4) -0.42754(16) 1.05139(19)
O4 O 0.2270(4) -0.59168(16) 0.9627(2)
O5 O 0.5968(3) -0.24673(18) 0.62442(19)
H3 H 0.6607 -0.3047 0.6492
H4 H 0.6461 -0.2111 0.5999
O6 O -0.0766(4) -0.23615(17) 0.42407(19)
H5 H -0.1377 -0.2949 0.4266
H6 H -0.0933 -0.1947 0.4558
Zn1C Zn 0.26122(6) -0.25668(3) 1.01810(3)
N2C N 0.2628(4) -0.17573(19) 0.3630(2)
O3C O 0.2536(4) -0.07246(16) 0.55139(19)
O7 O 0.7401(5) -0.4550(2) 0.7254(2)
H7 H 0.7409 -0.4732 0.7748
H8 H 0.7311 -0.4871 0.6766
loop_
_geom_bond_atom_site_label_1
_geom_bond_atom_site_label_2
_geom_bond_site_symmetry_1
_geom_bond_site_symmetry_2
Zn1 N1 1_555 1_555
N1 C1 1_555 1_555
C1 H1 1_555 1_555
N2 C1 1_555 1_555
C2 N2 1_555 1_555
C3 C2 1_555 1_555
H2 C3 1_555 1_555
C4 N1 1_555 1_555
C5 C4 1_555 1_555
C6 C2 1_555 1_555
O1 Zn1 1_555 1_555
O2 C5 1_555 1_555
O3 C6 1_555 1_555
O4 C6 1_555 1_555
O5 Zn1 1_555 1_555
H3 O5 1_555 1_555
H4 O5 1_555 1_555
O6 Zn1 1_555 1_555
H5 O6 1_555 1_555
H6 O6 1_555 1_555
O7 H7 1_555 1_555
H8 O7 1_555 1_555
Zn1C N2 1_555 1_555
N2C Zn1 1_555 1_555
O3C Zn1 1_555 1_555
C3 C4 1_555 1_555
C5 O1 1_555 1_555
O3 Zn1C 1_555 1_555

#END
