
#######################################################################
#
#                 Cambridge Crystallographic Data Centre
#                                CCDC 
#
#######################################################################
#
# If this CIF has been generated from an entry in the Cambridge 
# Structural Database, then it will include bibliographic, chemical, 
# crystal, experimental, refinement or atomic coordinate data resulting 
# from the CCDC's data processing and validation procedures.
#
#######################################################################

data_CIGPEO
_symmetry_cell_setting           monoclinic
_symmetry_space_group_name_H-M   'P 21/c'
_symmetry_Int_Tables_number      14
_space_group_name_Hall           '-P 2ybc'
loop_
_symmetry_equiv_pos_site_id
_symmetry_equiv_pos_as_xyz
1 x,y,z
2 -x,1/2+y,1/2-z
3 -x,-y,-z
4 x,1/2-y,1/2+z
_cell_length_a                   9.928(1)
_cell_length_b                   16.232(1)
_cell_length_c                   13.412(1)
_cell_angle_alpha                90
_cell_angle_beta                 115.14(1)
_cell_angle_gamma                90
_cell_volume                     1956.62
loop_
_atom_site_label
_atom_site_type_symbol
_atom_site_fract_x
_atom_site_fract_y
_atom_site_fract_z
Cu1 Cu -0.39164(3) -0.233275(18) -0.07200(3)
N1 N -0.4242(2) -0.20017(12) 0.08364(17)
C1 C -0.3854(2) -0.23629(15) 0.1806(2)
H1 H -0.3033 -0.2712 0.2045
N2 N -0.4535(2) -0.22711(12) 0.24711(16)
C2 C -0.5706(2) -0.17675(13) 0.2117(2)
C3 C -0.6157(3) -0.13432(15) 0.1143(2)
H2 H -0.6955 -0.0979 0.0918
C4 C -0.5387(2) -0.14755(14) 0.05102(19)
C5 C -0.5787(3) -0.10484(15) -0.0581(2)
O1 O -0.51647(17) -0.13280(10) -0.11725(14)
O2 O -0.6659(2) -0.04720(11) -0.08189(16)
C6 C -0.6531(3) -0.17078(15) 0.2852(2)
O3 O -0.59050(18) -0.20212(11) 0.37933(15)
O4 O -0.7745(2) -0.13572(12) 0.24614(16)
N3 N -0.2073(2) -0.17188(12) -0.06291(17)
C7 C -0.2215(3) -0.09083(16) -0.0899(2)
H3 H -0.3023 -0.0624 -0.0890
C8 C -0.1244(3) -0.04860(17) -0.1183(3)
H4 H -0.1380 0.0072 -0.1353
C9 C -0.0057(3) -0.09064(18) -0.1211(2)
H5 H 0.0604 -0.0641 -0.1429
C10 C 0.0138(3) -0.17104(16) -0.0918(2)
H6 H 0.0950 -0.1996 -0.0918
C11 C -0.0881(3) -0.21136(14) -0.0616(2)
N4 N -0.0605(2) -0.29178(12) -0.0294(2)
H7 H 0.0225 -0.3127 -0.0234
C12 C -0.1312(3) -0.34602(14) 0.0113(2)
N5 N -0.2714(2) -0.33226(11) -0.00278(16)
C13 C -0.3342(3) -0.39036(15) 0.0380(2)
H8 H -0.4308 -0.3813 0.0299
C14 C -0.2653(3) -0.45983(16) 0.0890(2)
H9 H -0.3137 -0.4980 0.1140
C15 C -0.1201(3) -0.47307(17) 0.1035(2)
H10 H -0.0689 -0.5201 0.1393
C16 C -0.0538(3) -0.41644(16) 0.0647(2)
H11 H 0.0435 -0.4246 0.0739
Cu1C Cu -0.39164(3) -0.266725(18) 0.42800(3)
N2C N -0.4535(2) -0.27289(12) -0.25289(16)
O3C O -0.59050(18) -0.29788(11) -0.12067(15)
O5 O -0.0631(2) -0.16231(17) 0.2188(2)
H12 H -0.0947 -0.1845 0.1542
H13 H 0.0323 -0.1598 0.2425
O6 O -0.2476(3) -0.05012(13) 0.27168(19)
H14 H -0.1898 -0.0895 0.2583
H15 H -0.2702 -0.0115 0.2232
O7 O -0.5840(3) -0.43589(15) 0.16810(18)
H16 H -0.6316 -0.4766 0.1706
H17 H -0.5617 -0.4220 0.2460
O8 O -0.7653(2) -0.33243(12) 0.00293(18)
H18 H -0.7054 -0.3698 0.0491
H19 H -0.7228 -0.3242 -0.0393
loop_
_geom_bond_atom_site_label_1
_geom_bond_atom_site_label_2
_geom_bond_site_symmetry_1
_geom_bond_site_symmetry_2
Cu1 N1 1_555 1_555
N1 C1 1_555 1_555
C1 H1 1_555 1_555
N2 C1 1_555 1_555
C2 N2 1_555 1_555
C3 C2 1_555 1_555
H2 C3 1_555 1_555
C4 N1 1_555 1_555
C5 C4 1_555 1_555
O1 Cu1 1_555 1_555
O2 C5 1_555 1_555
C6 C2 1_555 1_555
O3 C6 1_555 1_555
O4 C6 1_555 1_555
N3 Cu1 1_555 1_555
C7 N3 1_555 1_555
H3 C7 1_555 1_555
C8 C7 1_555 1_555
H4 C8 1_555 1_555
C9 C8 1_555 1_555
H5 C9 1_555 1_555
C10 C9 1_555 1_555
H6 C10 1_555 1_555
C11 N3 1_555 1_555
N4 C11 1_555 1_555
H7 N4 1_555 1_555
C12 N4 1_555 1_555
N5 Cu1 1_555 1_555
C13 N5 1_555 1_555
H8 C13 1_555 1_555
C14 C13 1_555 1_555
H9 C14 1_555 1_555
C15 C14 1_555 1_555
H10 C15 1_555 1_555
C16 C12 1_555 1_555
H11 C16 1_555 1_555
O5 H12 1_555 1_555
H13 O5 1_555 1_555
O6 H14 1_555 1_555
H15 O6 1_555 1_555
O7 H16 1_555 1_555
H17 O7 1_555 1_555
O8 H18 1_555 1_555
H19 O8 1_555 1_555
Cu1C N2 1_555 1_555
N2C Cu1 1_555 1_555
O3C Cu1 1_555 1_555
C3 C4 1_555 1_555
C5 O1 1_555 1_555
O3 Cu1C 1_555 1_555
C10 C11 1_555 1_555
C12 N5 1_555 1_555
C15 C16 1_555 1_555

#END
