
#######################################################################
#
#                 Cambridge Crystallographic Data Centre
#                                CCDC 
#
#######################################################################
#
# If this CIF has been generated from an entry in the Cambridge 
# Structural Database, then it will include bibliographic, chemical, 
# crystal, experimental, refinement or atomic coordinate data resulting 
# from the CCDC's data processing and validation procedures.
#
#######################################################################

data_CIGSUI
_symmetry_cell_setting           orthorhombic
_symmetry_space_group_name_H-M   'P 21 21 21'
_symmetry_Int_Tables_number      19
_space_group_name_Hall           'P 2ac 2ab'
loop_
_symmetry_equiv_pos_site_id
_symmetry_equiv_pos_as_xyz
1 x,y,z
2 1/2-x,-y,1/2+z
3 -x,1/2+y,1/2-z
4 1/2+x,1/2-y,-z
_cell_length_a                   8.832(6)
_cell_length_b                   14.517(9)
_cell_length_c                   14.790(9)
_cell_angle_alpha                90
_cell_angle_beta                 90
_cell_angle_gamma                90
_cell_volume                     1896.29
loop_
_atom_site_label
_atom_site_type_symbol
_atom_site_fract_x
_atom_site_fract_y
_atom_site_fract_z
Cu1 Cu 1.01449(4) 0.30729(2) 0.259357(19)
N1 N 0.8317(3) 0.24456(16) 0.31991(15)
N2 N 0.9558(3) 0.20547(16) 0.16326(14)
N3 N 0.9855(3) 0.19401(16) 0.07270(13)
N4 N 0.7589(2) 0.13767(15) 0.10220(14)
N5 N 0.4956(3) 0.14257(19) 0.11514(19)
N6 N 0.7070(3) 0.15485(16) -0.19587(15)
N7 N 1.1632(4) 0.1991(2) 0.3425(2)
N8 N 1.2687(4) 0.0430(2) 0.3383(3)
N9 N 1.1287(4) -0.1003(2) 0.3394(3)
Cl1 Cl 1.03343(8) 0.42560(5) 0.36397(5)
C1 C 0.7927(4) 0.2555(2) 0.40687(19)
H1 H 0.8421 0.3002 0.4408
C2 C 0.6825(4) 0.2032(2) 0.44784(19)
H2 H 0.6588 0.2125 0.5084
C3 C 0.6076(4) 0.1369(2) 0.3986(2)
H3 H 0.5326 0.1011 0.4253
C4 C 0.6459(4) 0.1242(2) 0.3081(2)
H4 H 0.5971 0.0801 0.2729
C5 C 0.7587(3) 0.17905(18) 0.27206(16)
C6 C 0.8200(3) 0.17229(18) 0.17984(17)
C7 C 0.8672(3) 0.15371(18) 0.03682(17)
C8 C 0.6141(3) 0.09263(19) 0.09121(18)
C9 C 0.6095(4) 0.0048(2) 0.0574(2)
H5 H 0.6973 -0.0267 0.0416
C10 C 0.4670(5) -0.0351(2) 0.0480(2)
H6 H 0.4568 -0.0942 0.0245
C11 C 0.3418(4) 0.0144(3) 0.0738(3)
H7 H 0.2454 -0.0110 0.0690
C12 C 0.3615(4) 0.1017(3) 0.1069(3)
H8 H 0.2760 0.1343 0.1246
C13 C 0.8535(3) 0.13950(18) -0.06050(18)
C14 C 0.9838(3) 0.1256(2) -0.11173(18)
H9 H 1.0767 0.1164 -0.0836
C15 C 0.9730(3) 0.1258(2) -0.2055(2)
H10 H 1.0582 0.1158 -0.2411
C16 C 0.8341(3) 0.1409(2) -0.24460(19)
H11 H 0.8274 0.1415 -0.3074
C17 C 0.7164(3) 0.15292(18) -0.10571(17)
H12 H 0.6286 0.1608 -0.0719
C18 C 1.2047(4) 0.1247(2) 0.3403(2)
C19 C 1.1883(4) -0.0308(2) 0.3387(3)
Cu1B Cu 0.98551(4) -0.19271(2) 0.240643(19)
Cu1C Cu 0.51449(4) 0.19271(2) -0.259357(19)
N6C N 1.2070(3) 0.34515(16) 0.19587(15)
N9B N 0.8713(4) 0.3997(2) 0.1606(3)
loop_
_geom_bond_atom_site_label_1
_geom_bond_atom_site_label_2
_geom_bond_site_symmetry_1
_geom_bond_site_symmetry_2
Cu1 N1 1_555 1_555
N1 C1 1_555 1_555
N2 Cu1 1_555 1_555
N3 N2 1_555 1_555
N4 C6 1_555 1_555
N5 C8 1_555 1_555
N6 C16 1_555 1_555
N7 Cu1 1_555 1_555
N8 C18 1_555 1_555
N9 C19 1_555 1_555
Cl1 Cu1 1_555 1_555
C1 H1 1_555 1_555
C2 C1 1_555 1_555
H2 C2 1_555 1_555
C3 C2 1_555 1_555
H3 C3 1_555 1_555
C4 C3 1_555 1_555
H4 C4 1_555 1_555
C5 N1 1_555 1_555
C6 N2 1_555 1_555
C7 N3 1_555 1_555
C8 N4 1_555 1_555
C9 C8 1_555 1_555
H5 C9 1_555 1_555
C10 C9 1_555 1_555
H6 C10 1_555 1_555
C11 C10 1_555 1_555
H7 C11 1_555 1_555
C12 N5 1_555 1_555
H8 C12 1_555 1_555
C13 C7 1_555 1_555
C14 C13 1_555 1_555
H9 C14 1_555 1_555
C15 C14 1_555 1_555
H10 C15 1_555 1_555
C16 C15 1_555 1_555
H11 C16 1_555 1_555
C17 N6 1_555 1_555
H12 C17 1_555 1_555
C18 N7 1_555 1_555
C19 N8 1_555 1_555
Cu1B N9 1_555 1_555
Cu1C N6 1_555 1_555
N6C Cu1 1_555 1_555
N9B Cu1 1_555 1_555
N4 C7 1_555 1_555
C4 C5 1_555 1_555
C5 C6 1_555 1_555
C11 C12 1_555 1_555
C13 C17 1_555 1_555

#END
