
#######################################################################
#
#                 Cambridge Crystallographic Data Centre
#                                CCDC 
#
#######################################################################
#
# If this CIF has been generated from an entry in the Cambridge 
# Structural Database, then it will include bibliographic, chemical, 
# crystal, experimental, refinement or atomic coordinate data resulting 
# from the CCDC's data processing and validation procedures.
#
#######################################################################

data_CIHLOW
_symmetry_cell_setting           triclinic
_symmetry_space_group_name_H-M   'P -1'
_symmetry_Int_Tables_number      2
_space_group_name_Hall           '-P 1'
loop_
_symmetry_equiv_pos_site_id
_symmetry_equiv_pos_as_xyz
1 x,y,z
2 -x,-y,-z
_cell_length_a                   9.7629(14)
_cell_length_b                   10.7730(16)
_cell_length_c                   11.3060(17)
_cell_angle_alpha                62.814(2)
_cell_angle_beta                 89.181(3)
_cell_angle_gamma                69.619(3)
_cell_volume                     976.466
loop_
_atom_site_label
_atom_site_type_symbol
_atom_site_fract_x
_atom_site_fract_y
_atom_site_fract_z
Cu1 Cu 0.14163(2) 0.12095(2) 1.02087(2)
P1 P 0.84201(5) 0.21797(5) 0.82386(5)
P2 P 0.24049(5) 0.00302(5) 0.79687(4)
O1 O 0.89342(13) 0.24806(13) 0.93115(12)
O2 O 0.89857(13) 0.05282(13) 0.85925(12)
O3 O 0.25086(13) 0.03031(13) 0.91603(12)
O4 O 0.13683(13) 0.13522(14) 0.67070(12)
O5 O 0.20832(14) -0.14471(14) 0.84121(13)
H1 H 0.1725 -0.1643 0.9104
O6 O 0.88828(14) 0.30720(14) 0.68611(13)
H2 H 0.9648 0.2507 0.6777
N1 N 0.13885(16) 0.18222(16) 1.16525(15)
N2 N 0.18183(15) 0.30937(16) 0.91745(15)
C1 C 0.1173(2) 0.1059(2) 1.29183(18)
H3 H 0.1000 0.0184 1.3166
C2 C 0.1201(2) 0.1533(2) 1.38684(19)
H4 H 0.1070 0.0975 1.4745
C3 C 0.1429(2) 0.2863(2) 1.3481(2)
H5 H 0.1436 0.3213 1.4094
C4 C 0.1646(2) 0.3662(2) 1.2173(2)
H6 H 0.1798 0.4554 1.1898
C5 C 0.16323(18) 0.31010(19) 1.12822(18)
C6 C 0.18700(18) 0.38333(19) 0.98619(18)
C7 C 0.2121(2) 0.5165(2) 0.9261(2)
H7 H 0.2169 0.5650 0.9751
C8 C 0.2299(2) 0.5761(2) 0.7917(2)
H8 H 0.2475 0.6648 0.7498
C9 C 0.2212(2) 0.5018(2) 0.7207(2)
H9 H 0.2308 0.5409 0.6301
C10 C 0.1979(2) 0.3682(2) 0.78714(19)
H10 H 0.1932 0.3176 0.7400
C11 C 0.42554(19) -0.05398(19) 0.75813(18)
H11 H 0.4940 -0.1324 0.8411
H12 H 0.4267 -0.0969 0.6990
C12 C 0.47912(18) 0.07380(19) 0.69154(18)
C13 C 0.47502(19) 0.1443(2) 0.55198(18)
H13 H 0.4378 0.1129 0.5000
C14 C 0.5259(2) 0.2605(2) 0.49020(19)
H14 H 0.5237 0.3057 0.3974
C15 C 0.5801(2) 0.3095(2) 0.56675(19)
H15 H 0.6158 0.3861 0.5251
C16 C 0.58130(18) 0.24438(19) 0.70587(18)
C17 C 0.53126(18) 0.12664(19) 0.76703(18)
H16 H 0.5325 0.0823 0.8597
C18 C 0.64124(18) 0.29770(19) 0.78870(19)
H17 H 0.6063 0.4071 0.7401
H18 H 0.6038 0.2688 0.8732
Cu1_2 Cu 1.14163(2) 0.12095(2) 1.02087(2)
Cu1A Cu 0.85837(2) -0.12095(2) 0.97913(2)
O1_2 O -0.10658(13) 0.24806(13) 0.93115(12)
O2A O 0.10143(13) -0.05282(13) 1.14075(12)
loop_
_geom_bond_atom_site_label_1
_geom_bond_atom_site_label_2
_geom_bond_site_symmetry_1
_geom_bond_site_symmetry_2
Cu1 O3 1_555 1_555
P1 O1 1_555 1_555
P2 O3 1_555 1_555
O1 Cu1_2 1_555 1_555
O2 P1 1_555 1_555
O4 P2 1_555 1_555
O5 P2 1_555 1_555
H1 O5 1_555 1_555
O6 P1 1_555 1_555
H2 O6 1_555 1_555
N1 Cu1 1_555 1_555
N2 Cu1 1_555 1_555
C1 N1 1_555 1_555
H3 C1 1_555 1_555
C2 C1 1_555 1_555
H4 C2 1_555 1_555
C3 C2 1_555 1_555
H5 C3 1_555 1_555
C4 C3 1_555 1_555
H6 C4 1_555 1_555
C5 N1 1_555 1_555
C6 N2 1_555 1_555
C7 C6 1_555 1_555
H7 C7 1_555 1_555
C8 C7 1_555 1_555
H8 C8 1_555 1_555
C9 C8 1_555 1_555
H9 C9 1_555 1_555
C10 N2 1_555 1_555
H10 C10 1_555 1_555
C11 P2 1_555 1_555
H11 C11 1_555 1_555
H12 C11 1_555 1_555
C12 C11 1_555 1_555
C13 C12 1_555 1_555
H13 C13 1_555 1_555
C14 C13 1_555 1_555
H14 C14 1_555 1_555
C15 C14 1_555 1_555
H15 C15 1_555 1_555
C16 C15 1_555 1_555
C17 C12 1_555 1_555
H16 C17 1_555 1_555
C18 P1 1_555 1_555
H17 C18 1_555 1_555
H18 C18 1_555 1_555
Cu1A O2 1_555 1_555
O1_2 Cu1 1_555 1_555
O2A Cu1 1_555 1_555
C4 C5 1_555 1_555
C5 C6 1_555 1_555
C9 C10 1_555 1_555
C16 C17 1_555 1_555
C16 C18 1_555 1_555

#END
