
#######################################################################
#
#                 Cambridge Crystallographic Data Centre
#                                CCDC 
#
#######################################################################
#
# If this CIF has been generated from an entry in the Cambridge 
# Structural Database, then it will include bibliographic, chemical, 
# crystal, experimental, refinement or atomic coordinate data resulting 
# from the CCDC's data processing and validation procedures.
#
#######################################################################

data_CIHNEO
_symmetry_cell_setting           monoclinic
_symmetry_space_group_name_H-M   'P 21/c'
_symmetry_Int_Tables_number      14
_space_group_name_Hall           '-P 2ybc'
loop_
_symmetry_equiv_pos_site_id
_symmetry_equiv_pos_as_xyz
1 x,y,z
2 -x,1/2+y,1/2-z
3 -x,-y,-z
4 x,1/2-y,1/2+z
_cell_length_a                   10.7962(19)
_cell_length_b                   7.5630(13)
_cell_length_c                   7.3761(12)
_cell_angle_alpha                90
_cell_angle_beta                 92.646(3)
_cell_angle_gamma                90
_cell_volume                     601.629
loop_
_atom_site_label
_atom_site_type_symbol
_atom_site_fract_x
_atom_site_fract_y
_atom_site_fract_z
Cu1 Cu 1.03475(3) 0.31066(4) 1.06277(4)
P1 P 0.85567(6) 0.04641(9) 0.83984(9)
O1 O 1.18594(18) 0.4318(3) 1.1728(3)
H1 H 1.1804 0.5412 1.1543
H2 H 1.1766 0.4295 1.2866
O2 O 0.88350(18) 0.2264(3) 0.9288(3)
O3 O 0.86866(17) -0.1034(2) 0.9801(2)
O4 O 0.93720(17) 0.0075(3) 0.6786(2)
C1 C 0.6984(3) 0.0481(4) 0.7473(4)
H3 H 0.6840 0.1617 0.6831
H4 H 0.6897 -0.0473 0.6556
C2 C 0.5973(3) 0.0246(4) 0.8814(4)
C3 C 0.5261(3) 0.1675(4) 0.9360(4)
H5 H 0.5434 0.2828 0.8928
C4 C 0.4300(3) 0.1430(4) 1.0530(4)
H6 H 0.3825 0.2418 1.0885
P1B P 0.14433(6) -0.04641(9) 1.16016(9)
O2B O 0.11650(18) -0.2264(3) 1.0712(3)
O3B O 0.13134(17) 0.1034(2) 1.0199(2)
O4B O 0.06280(17) -0.0075(3) 1.3214(2)
C1B C 0.3016(3) -0.0481(4) 1.2527(4)
H3B H 0.3160 -0.1617 1.3169
H4B H 0.3103 0.0473 1.3444
C2B C 0.4027(3) -0.0246(4) 1.1186(4)
C3B C 0.4739(3) -0.1675(4) 1.0640(4)
H5B H 0.4566 -0.2828 1.1072
C4B C 0.5700(3) -0.1430(4) 0.9470(4)
H6B H 0.6175 -0.2418 0.9115
Cu1B Cu -0.03475(3) -0.31066(4) 0.93723(4)
O1B O -0.18594(18) -0.4318(3) 0.8272(3)
H1B H -0.1804 -0.5412 0.8457
H2B H -0.1766 -0.4295 0.7134
Cu1_2 Cu 0.03475(3) 0.31066(4) 1.06277(4)
Cu1A Cu -0.03475(3) -0.18934(4) 1.43723(4)
Cu1A_2 Cu 0.96525(3) -0.18934(4) 0.43723(4)
Cu1B_2 Cu 0.96525(3) -0.31066(4) 0.93723(4)
Cu1C Cu 0.03475(3) 0.18934(4) 1.56277(4)
Cu1C_2 Cu 1.03475(3) 0.18934(4) 0.56277(4)
O3_2 O -0.13134(17) -0.1034(2) 0.9801(2)
O3B_2 O 1.13134(17) 0.1034(2) 1.0199(2)
O4A O 0.06280(17) -0.4925(3) 0.8214(2)
O4A_2 O 1.06280(17) 0.5075(3) 0.8214(2)
O4C O -0.06280(17) -0.5075(3) 1.1786(2)
O4C_2 O 0.93720(17) 0.4925(3) 1.1786(2)
loop_
_geom_bond_atom_site_label_1
_geom_bond_atom_site_label_2
_geom_bond_site_symmetry_1
_geom_bond_site_symmetry_2
Cu1 O1 1_555 1_555
P1 O2 1_555 1_555
O1 H1 1_555 1_555
H2 O1 1_555 1_555
O2 Cu1 1_555 1_555
O3 P1 1_555 1_555
O4 P1 1_555 1_555
C1 P1 1_555 1_555
H3 C1 1_555 1_555
H4 C1 1_555 1_555
C2 C1 1_555 1_555
C3 C2 1_555 1_555
H5 C3 1_555 1_555
C4 C3 1_555 1_555
H6 C4 1_555 1_555
P1B O2B 1_555 1_555
O2B Cu1B 1_555 1_555
O3B P1B 1_555 1_555
O4B P1B 1_555 1_555
C1B P1B 1_555 1_555
H3B C1B 1_555 1_555
H4B C1B 1_555 1_555
C2B C4 1_555 1_555
C3B C2B 1_555 1_555
H5B C3B 1_555 1_555
C4B C2 1_555 1_555
H6B C4B 1_555 1_555
Cu1B O1B 1_555 1_555
O1B H1B 1_555 1_555
H2B O1B 1_555 1_555
Cu1_2 O3B 1_555 1_555
Cu1A O4B 1_555 1_555
Cu1A_2 O4 1_555 1_555
Cu1B_2 O3 1_555 1_555
Cu1C O4B 1_555 1_555
Cu1C_2 O4 1_555 1_555
O3_2 Cu1B 1_555 1_555
O3B_2 Cu1 1_555 1_555
O4A Cu1B 1_555 1_555
O4A_2 Cu1 1_555 1_555
O4C Cu1B 1_555 1_555
O4C_2 Cu1 1_555 1_555
C1B C2B 1_555 1_555
C3B C4B 1_555 1_555

#END
