
#######################################################################
#
#                 Cambridge Crystallographic Data Centre
#                                CCDC 
#
#######################################################################
#
# If this CIF has been generated from an entry in the Cambridge 
# Structural Database, then it will include bibliographic, chemical, 
# crystal, experimental, refinement or atomic coordinate data resulting 
# from the CCDC's data processing and validation procedures.
#
#######################################################################

data_CIHPUG
_symmetry_cell_setting           monoclinic
_symmetry_space_group_name_H-M   'P 21/c'
_symmetry_Int_Tables_number      14
_space_group_name_Hall           '-P 2ybc'
loop_
_symmetry_equiv_pos_site_id
_symmetry_equiv_pos_as_xyz
1 x,y,z
2 -x,1/2+y,1/2-z
3 -x,-y,-z
4 x,1/2-y,1/2+z
_cell_length_a                   13.9261(11)
_cell_length_b                   10.9466(9)
_cell_length_c                   12.5532(10)
_cell_angle_alpha                90
_cell_angle_beta                 111.371(2)
_cell_angle_gamma                90
_cell_volume                     1782.07
loop_
_atom_site_label
_atom_site_type_symbol
_atom_site_fract_x
_atom_site_fract_y
_atom_site_fract_z
Ni1 Ni 0.74720(3) 0.91893(4) 0.62788(4)
Ni2 Ni 0.5000 1.0000 0.5000
Ni3 Ni 0.55445(3) 0.72173(4) 0.63412(4)
S1 S 0.58042(6) 0.77736(7) 0.40263(7)
O1 O 0.68656(17) 0.8170(2) 0.46754(19)
O2 O 0.57193(18) 0.7158(2) 0.29547(19)
O3 O 0.54353(18) 0.6882(2) 0.4690(2)
O4 O 0.51095(17) 0.8860(2) 0.37338(19)
O5 O 0.39833(18) 1.1019(2) 0.3757(2)
O6 O 0.5011(2) 0.5507(2) 0.6527(3)
N1 N 0.7089(2) 1.0843(3) 0.5441(2)
N2 N 0.6117(2) 1.1096(2) 0.4860(2)
N3 N 0.6044(2) 1.2172(2) 0.4316(2)
N4 N 0.7688(2) 1.1735(3) 0.5302(2)
N5 N 0.7847(2) 1.4952(3) 0.2949(2)
N6 N 0.7806(2) 0.7485(3) 0.7004(2)
N7 N 0.7082(2) 0.6687(3) 0.6964(2)
N8 N 0.7511(2) 0.5627(3) 0.7403(2)
N9 N 0.8738(2) 0.6972(3) 0.7475(2)
N10 N 1.1079(2) 0.4238(3) 0.8840(2)
C1 C 0.7026(2) 1.2537(3) 0.4604(3)
C2 C 0.7474(2) 1.3654(3) 0.4297(3)
C3 C 0.8208(3) 1.4265(3) 0.5197(3)
H1 H 0.8331 1.4033 0.5965
C4 C 0.8756(3) 1.5208(3) 0.4968(3)
H2 H 0.9257 1.5640 0.5573
C5 C 0.7312(2) 1.4032(3) 0.3184(3)
H3 H 0.6804 1.3624 0.2566
C6 C 0.8567(3) 1.5516(3) 0.3844(3)
H4 H 0.8961 1.6154 0.3691
C7 C 0.8529(3) 0.5834(3) 0.7706(3)
C8 C 0.9320(2) 0.4923(3) 0.8275(3)
C9 C 1.0324(3) 0.5032(3) 0.8287(3)
H5 H 1.0479 0.5693 0.7887
C10 C 1.0851(3) 0.3323(3) 0.9429(3)
H6 H 1.1384 0.2776 0.9849
C11 C 0.9096(3) 0.3946(3) 0.8850(3)
H7 H 0.8415 0.3829 0.8832
C12 C 0.9868(3) 0.3147(3) 0.9447(3)
H8 H 0.9732 0.2488 0.9863
H9 H 0.395(3) 1.086(4) 0.322(4)
H10 H 0.498(4) 0.490(5) 0.619(4)
H11 H 0.505(3) 0.538(4) 0.714(4)
Ni1B Ni 0.25280(3) 1.08107(4) 0.37212(4)
Ni3B Ni 0.44555(3) 1.27827(4) 0.36588(4)
S1B S 0.41958(6) 1.22264(7) 0.59737(7)
O1B O 0.31344(17) 1.1830(2) 0.53246(19)
O2B O 0.42807(18) 1.2842(2) 0.70453(19)
O3B O 0.45647(18) 1.3118(2) 0.5310(2)
O4B O 0.48905(17) 1.1140(2) 0.62662(19)
O5B O 0.60167(18) 0.8981(2) 0.6243(2)
O6B O 0.4989(2) 1.4493(2) 0.3473(3)
N1B N 0.2911(2) 0.9157(3) 0.4559(2)
N2B N 0.3883(2) 0.8904(2) 0.5140(2)
N3B N 0.3956(2) 0.7828(2) 0.5684(2)
N4B N 0.2312(2) 0.8265(3) 0.4698(2)
N5B N 0.2153(2) 0.5048(3) 0.7051(2)
N6B N 0.2194(2) 1.2515(3) 0.2996(2)
N7B N 0.2918(2) 1.3313(3) 0.3036(2)
N8B N 0.2489(2) 1.4373(3) 0.2597(2)
N9B N 0.1262(2) 1.3028(3) 0.2525(2)
N10B N -0.1079(2) 1.5762(3) 0.1160(2)
C1B C 0.2974(2) 0.7463(3) 0.5396(3)
C2B C 0.2526(2) 0.6346(3) 0.5703(3)
C3B C 0.1792(3) 0.5735(3) 0.4803(3)
H1B H 0.1669 0.5967 0.4035
C4B C 0.1244(3) 0.4792(3) 0.5032(3)
H2B H 0.0743 0.4360 0.4427
C5B C 0.2688(2) 0.5968(3) 0.6816(3)
H3B H 0.3196 0.6376 0.7434
C6B C 0.1433(3) 0.4484(3) 0.6156(3)
H4B H 0.1039 0.3846 0.6309
C7B C 0.1471(3) 1.4166(3) 0.2294(3)
C8B C 0.0680(2) 1.5077(3) 0.1725(3)
C9B C -0.0324(3) 1.4968(3) 0.1713(3)
H5B H -0.0479 1.4307 0.2113
C10B C -0.0851(3) 1.6677(3) 0.0571(3)
H6B H -0.1384 1.7224 0.0151
C11B C 0.0904(3) 1.6054(3) 0.1150(3)
H7B H 0.1585 1.6171 0.1168
C12B C 0.0132(3) 1.6853(3) 0.0553(3)
H8B H 0.0268 1.7512 0.0137
H9B H 0.605(3) 0.914(4) 0.678(4)
H10B H 0.502(4) 1.510(5) 0.381(4)
H11B H 0.495(3) 1.462(4) 0.286(4)
Ni1A Ni 0.25280(3) 0.41893(4) 0.87212(4)
Ni1A_2 Ni 1.25280(3) 0.41893(4) 0.87212(4)
Ni1C Ni -0.25280(3) 1.58107(4) 0.12788(4)
Ni1C_2 Ni 0.74720(3) 1.58107(4) 0.12788(4)
Ni3A Ni 0.44555(3) 1.22173(4) 0.86588(4)
Ni3C Ni 0.55445(3) 0.77827(4) 0.13412(4)
O2A O 0.42807(18) 1.2158(2) 0.20453(19)
O2C O 0.57193(18) 0.7842(2) 0.79547(19)
N5A N 0.2153(2) 0.9952(3) 0.2051(2)
N5C N 0.7847(2) 1.0048(3) 0.7949(2)
N10A N 0.8921(2) 0.9238(3) 0.6160(2)
N10C N 0.1079(2) 1.0762(3) 0.3840(2)
O7 O 0.6767(8) 0.3296(11) 0.6812(10)
loop_
_geom_bond_atom_site_label_1
_geom_bond_atom_site_label_2
_geom_bond_site_symmetry_1
_geom_bond_site_symmetry_2
Ni1 O1 1_555 1_555
Ni2 O4 1_555 1_555
Ni3 O3 1_555 1_555
S1 O1 1_555 1_555
O2 S1 1_555 1_555
O3 S1 1_555 1_555
O4 S1 1_555 1_555
O5 Ni2 1_555 1_555
O6 Ni3 1_555 1_555
N1 Ni1 1_555 1_555
N2 Ni2 1_555 1_555
N3 N2 1_555 1_555
N4 N1 1_555 1_555
N5 C5 1_555 1_555
N6 Ni1 1_555 1_555
N7 Ni3 1_555 1_555
N8 N7 1_555 1_555
N9 N6 1_555 1_555
N10 C9 1_555 1_555
C1 N3 1_555 1_555
C2 C1 1_555 1_555
C3 C2 1_555 1_555
H1 C3 1_555 1_555
C4 C3 1_555 1_555
H2 C4 1_555 1_555
C5 C2 1_555 1_555
H3 C5 1_555 1_555
C6 N5 1_555 1_555
H4 C6 1_555 1_555
C7 N8 1_555 1_555
C8 C7 1_555 1_555
C9 C8 1_555 1_555
H5 C9 1_555 1_555
C10 N10 1_555 1_555
H6 C10 1_555 1_555
C11 C8 1_555 1_555
H7 C11 1_555 1_555
C12 C10 1_555 1_555
H8 C12 1_555 1_555
H9 O5 1_555 1_555
H10 O6 1_555 1_555
H11 O6 1_555 1_555
Ni1B O5 1_555 1_555
Ni3B O5 1_555 1_555
S1B O1B 1_555 1_555
O1B Ni1B 1_555 1_555
O2B S1B 1_555 1_555
O3B Ni3B 1_555 1_555
O4B Ni2 1_555 1_555
O5B Ni1 1_555 1_555
O6B Ni3B 1_555 1_555
N1B Ni1B 1_555 1_555
N2B Ni2 1_555 1_555
N3B Ni3 1_555 1_555
N4B N1B 1_555 1_555
N5B C5B 1_555 1_555
N6B Ni1B 1_555 1_555
N7B Ni3B 1_555 1_555
N8B N7B 1_555 1_555
N9B N6B 1_555 1_555
N10B C9B 1_555 1_555
C1B N3B 1_555 1_555
C2B C1B 1_555 1_555
C3B C2B 1_555 1_555
H1B C3B 1_555 1_555
C4B C3B 1_555 1_555
H2B C4B 1_555 1_555
C5B C2B 1_555 1_555
H3B C5B 1_555 1_555
C6B N5B 1_555 1_555
H4B C6B 1_555 1_555
C7B N8B 1_555 1_555
C8B C7B 1_555 1_555
C9B C8B 1_555 1_555
H5B C9B 1_555 1_555
C10B N10B 1_555 1_555
H6B C10B 1_555 1_555
C11B C8B 1_555 1_555
H7B C11B 1_555 1_555
C12B C10B 1_555 1_555
H8B C12B 1_555 1_555
H9B O5B 1_555 1_555
H10B O6B 1_555 1_555
H11B O6B 1_555 1_555
Ni1A N5B 1_555 1_555
Ni1A_2 N10 1_555 1_555
Ni1C N10B 1_555 1_555
Ni1C_2 N5 1_555 1_555
Ni3A O2B 1_555 1_555
Ni3C O2 1_555 1_555
O2A Ni3B 1_555 1_555
O2C Ni3 1_555 1_555
N5A Ni1B 1_555 1_555
N5C Ni1 1_555 1_555
N10A Ni1 1_555 1_555
N10C Ni1B 1_555 1_555
Ni2 O5B 1_555 1_555
Ni3 O5B 1_555 1_555
N1 N2 1_555 1_555
N3 Ni3B 1_555 1_555
N4 C1 1_555 1_555
N6 N7 1_555 1_555
N9 C7 1_555 1_555
C4 C6 1_555 1_555
C11 C12 1_555 1_555
S1B O3B 1_555 1_555
S1B O4B 1_555 1_555
N1B N2B 1_555 1_555
N2B N3B 1_555 1_555
N4B C1B 1_555 1_555
N6B N7B 1_555 1_555
N9B C7B 1_555 1_555
C4B C6B 1_555 1_555
C11B C12B 1_555 1_555

#END
