
#######################################################################
#
#                 Cambridge Crystallographic Data Centre
#                                CCDC 
#
#######################################################################
#
# If this CIF has been generated from an entry in the Cambridge 
# Structural Database, then it will include bibliographic, chemical, 
# crystal, experimental, refinement or atomic coordinate data resulting 
# from the CCDC's data processing and validation procedures.
#
#######################################################################

data_CIHQIV
_symmetry_cell_setting           monoclinic
_symmetry_space_group_name_H-M   'C 2/c'
_symmetry_Int_Tables_number      15
_space_group_name_Hall           '-C 2yn'
loop_
_symmetry_equiv_pos_site_id
_symmetry_equiv_pos_as_xyz
1 x,y,z
2 -x,y,1/2-z
3 1/2+x,1/2+y,z
4 1/2-x,1/2+y,1/2-z
5 -x,-y,-z
6 x,-y,1/2+z
7 1/2-x,1/2-y,-z
8 1/2+x,1/2-y,1/2+z
_cell_length_a                   12.5253(12)
_cell_length_b                   11.4852(11)
_cell_length_c                   29.628(3)
_cell_angle_alpha                90
_cell_angle_beta                 100.792(2)
_cell_angle_gamma                90
_cell_volume                     4186.77
loop_
_atom_site_label
_atom_site_type_symbol
_atom_site_fract_x
_atom_site_fract_y
_atom_site_fract_z
Co1 Co 0.12046(4) 0.24114(4) 0.176976(17)
Co2 Co 0.03275(4) -0.00750(4) 0.072241(17)
S1 S 0.0000 0.11954(11) 0.2500
O1 O -0.0042(2) 0.1953(2) 0.20879(9)
O2 O 0.0994(3) 0.0491(3) 0.25659(11)
O3 O 0.2233(2) 0.2446(3) 0.24356(10)
N1 N 0.1892(2) 0.0764(3) 0.16762(10)
N2 N 0.1523(2) 0.0032(3) 0.13320(11)
N3 N 0.2632(3) 0.0234(3) 0.19843(11)
N4 N 0.2746(3) -0.0865(3) 0.18498(11)
N5 N 0.1032(3) -0.1837(3) 0.07879(11)
N6 N 0.2084(3) -0.3979(3) 0.09804(12)
N7 N 0.0129(2) 0.2365(3) 0.11349(11)
N8 N -0.0254(3) 0.1631(3) 0.07900(11)
N9 N -0.0986(3) 0.2180(3) 0.04802(11)
N10 N -0.1087(3) 0.3279(3) 0.06144(11)
N11 N 0.0550(3) 0.4176(3) 0.17121(10)
N12 N -0.0347(3) 0.6386(3) 0.14927(12)
N13 N 0.2503(2) 0.3180(3) 0.14756(11)
N14 N 0.4144(2) 0.4232(3) 0.11031(11)
N15 N 0.2322(2) 0.3817(3) 0.00049(11)
N16 N 0.2672(3) 0.4157(3) -0.03758(11)
N17 N 0.3686(3) 0.4528(3) -0.02638(11)
N18 N 0.4024(2) 0.4439(3) 0.01925(10)
C1 C 0.2061(3) -0.0963(3) 0.14508(12)
C2 C 0.1831(3) -0.1990(3) 0.11589(13)
C3 C 0.2339(3) -0.3063(3) 0.12501(14)
H1 H 0.2890 -0.3141 0.1516
C4 C 0.1302(3) -0.3821(4) 0.06107(14)
H2 H 0.1101 -0.4456 0.0407
C5 C 0.0772(3) -0.2758(3) 0.05141(13)
H3 H 0.0216 -0.2687 0.0249
C6 C -0.0397(3) 0.3369(3) 0.10176(13)
C7 C -0.0166(3) 0.4377(3) 0.13204(12)
C8 C -0.0613(3) 0.5473(3) 0.12130(13)
H4 H -0.1120 0.5577 0.0934
C9 C 0.0352(3) 0.6177(3) 0.18827(14)
H5 H 0.0553 0.6800 0.2092
C10 C 0.0797(3) 0.5085(3) 0.19946(14)
H6 H 0.1287 0.4981 0.2278
C11 C 0.3383(3) 0.3654(3) 0.17427(13)
H7 H 0.3442 0.3642 0.2067
C12 C 0.4205(3) 0.4159(3) 0.15559(13)
H8 H 0.4826 0.4460 0.1755
C13 C 0.2446(3) 0.3243(3) 0.10218(13)
H9 H 0.1844 0.2901 0.0823
C14 C 0.3239(3) 0.3791(3) 0.08353(13)
C15 C 0.3176(3) 0.3990(3) 0.03461(13)
H10 H 0.208(4) 0.279(5) 0.2623(19)
H11 H 0.205(5) 0.184(6) 0.252(2)
O1A O 0.0042(2) 0.1953(2) 0.29121(9)
O2A O -0.0994(3) 0.0491(3) 0.24341(11)
Co1A Co -0.12046(4) 0.24114(4) 0.323024(17)
Co2A Co -0.03275(4) -0.00750(4) 0.427759(17)
O3A O -0.2233(2) 0.2446(3) 0.25644(10)
N1A N -0.1892(2) 0.0764(3) 0.33238(10)
N2A N -0.1523(2) 0.0032(3) 0.36680(11)
N3A N -0.2632(3) 0.0234(3) 0.30157(11)
N4A N -0.2746(3) -0.0865(3) 0.31502(11)
N5A N -0.1032(3) -0.1837(3) 0.42121(11)
N6A N -0.2084(3) -0.3979(3) 0.40196(12)
N7A N -0.0129(2) 0.2365(3) 0.38651(11)
N8A N 0.0254(3) 0.1631(3) 0.42100(11)
N9A N 0.0986(3) 0.2180(3) 0.45198(11)
N10A N 0.1087(3) 0.3279(3) 0.43856(11)
N11A N -0.0550(3) 0.4176(3) 0.32879(10)
N12A N 0.0347(3) 0.6386(3) 0.35073(12)
N13A N -0.2503(2) 0.3180(3) 0.35244(11)
N14A N -0.4144(2) 0.4232(3) 0.38969(11)
N15A N -0.2322(2) 0.3817(3) 0.49951(11)
N16A N -0.2672(3) 0.4157(3) 0.53758(11)
N17A N -0.3686(3) 0.4528(3) 0.52638(11)
N18A N -0.4024(2) 0.4439(3) 0.48075(10)
C1A C -0.2061(3) -0.0963(3) 0.35492(12)
C2A C -0.1831(3) -0.1990(3) 0.38411(13)
C3A C -0.2339(3) -0.3063(3) 0.37499(14)
H1A H -0.2890 -0.3141 0.3484
C4A C -0.1302(3) -0.3821(4) 0.43893(14)
H2A H -0.1101 -0.4456 0.4593
C5A C -0.0772(3) -0.2758(3) 0.44859(13)
H3A H -0.0216 -0.2687 0.4751
C6A C 0.0397(3) 0.3369(3) 0.39824(13)
C7A C 0.0166(3) 0.4377(3) 0.36796(12)
C8A C 0.0613(3) 0.5473(3) 0.37870(13)
H4A H 0.1120 0.5577 0.4066
C9A C -0.0352(3) 0.6177(3) 0.31173(14)
H5A H -0.0553 0.6800 0.2908
C10A C -0.0797(3) 0.5085(3) 0.30054(14)
H6A H -0.1287 0.4981 0.2722
C11A C -0.3383(3) 0.3654(3) 0.32573(13)
H7A H -0.3442 0.3642 0.2933
C12A C -0.4205(3) 0.4159(3) 0.34441(13)
H8A H -0.4826 0.4460 0.3245
C13A C -0.2446(3) 0.3243(3) 0.39782(13)
H9A H -0.1844 0.2901 0.4177
C14A C -0.3239(3) 0.3791(3) 0.41647(13)
C15A C -0.3176(3) 0.3990(3) 0.46539(13)
H10A H -0.208(4) 0.279(5) 0.2377(19)
H11A H -0.205(5) 0.184(6) 0.248(2)
Co2B Co 0.53275(4) 0.49250(4) 0.072241(17)
Co2C Co -0.53275(4) 0.49250(4) 0.427759(17)
Co2F Co 0.46725(4) 0.50750(4) -0.072241(17)
Co2G Co -0.46725(4) 0.50750(4) 0.572241(17)
N14B N -0.0856(2) -0.0768(3) 0.11031(11)
N14C N 0.0856(2) -0.0768(3) 0.38969(11)
N17F N 0.1314(3) 0.0472(3) 0.02638(11)
N17G N -0.1314(3) 0.0472(3) 0.47362(11)
N18B N -0.0976(2) -0.0561(3) 0.01925(10)
N18C N 0.0976(2) -0.0561(3) 0.48075(10)
loop_
_geom_bond_atom_site_label_1
_geom_bond_atom_site_label_2
_geom_bond_site_symmetry_1
_geom_bond_site_symmetry_2
Co1 O1 1_555 1_555
Co2 N2 1_555 1_555
S1 O1 1_555 1_555
O2 S1 1_555 1_555
O3 Co1 1_555 1_555
N1 Co1 1_555 1_555
N2 N1 1_555 1_555
N3 N1 1_555 1_555
N4 N3 1_555 1_555
N5 Co2 1_555 1_555
N6 C3 1_555 1_555
N7 Co1 1_555 1_555
N8 Co2 1_555 1_555
N9 N8 1_555 1_555
N10 N9 1_555 1_555
N11 Co1 1_555 1_555
N12 C8 1_555 1_555
N13 Co1 1_555 1_555
N14 C12 1_555 1_555
N15 N16 1_555 1_555
N16 N17 1_555 1_555
N17 N18 1_555 1_555
N18 C15 1_555 1_555
C1 N2 1_555 1_555
C2 N5 1_555 1_555
C3 C2 1_555 1_555
H1 C3 1_555 1_555
C4 N6 1_555 1_555
H2 C4 1_555 1_555
C5 N5 1_555 1_555
H3 C5 1_555 1_555
C6 N7 1_555 1_555
C7 N11 1_555 1_555
C8 C7 1_555 1_555
H4 C8 1_555 1_555
C9 N12 1_555 1_555
H5 C9 1_555 1_555
C10 N11 1_555 1_555
H6 C10 1_555 1_555
C11 N13 1_555 1_555
H7 C11 1_555 1_555
C12 C11 1_555 1_555
H8 C12 1_555 1_555
C13 N13 1_555 1_555
H9 C13 1_555 1_555
C14 N14 1_555 1_555
C15 N15 1_555 1_555
H10 O3 1_555 1_555
H11 O3 1_555 1_555
O1A S1 1_555 1_555
O2A S1 1_555 1_555
Co1A O1A 1_555 1_555
Co2A N2A 1_555 1_555
O3A Co1A 1_555 1_555
N1A Co1A 1_555 1_555
N2A N1A 1_555 1_555
N3A N1A 1_555 1_555
N4A N3A 1_555 1_555
N5A Co2A 1_555 1_555
N6A C3A 1_555 1_555
N7A Co1A 1_555 1_555
N8A Co2A 1_555 1_555
N9A N8A 1_555 1_555
N10A N9A 1_555 1_555
N11A Co1A 1_555 1_555
N12A C8A 1_555 1_555
N13A Co1A 1_555 1_555
N14A C12A 1_555 1_555
N15A N16A 1_555 1_555
N16A N17A 1_555 1_555
N17A N18A 1_555 1_555
N18A C15A 1_555 1_555
C1A N2A 1_555 1_555
C2A N5A 1_555 1_555
C3A C2A 1_555 1_555
H1A C3A 1_555 1_555
C4A N6A 1_555 1_555
H2A C4A 1_555 1_555
C5A N5A 1_555 1_555
H3A C5A 1_555 1_555
C6A N7A 1_555 1_555
C7A N11A 1_555 1_555
C8A C7A 1_555 1_555
H4A C8A 1_555 1_555
C9A N12A 1_555 1_555
H5A C9A 1_555 1_555
C10A N11A 1_555 1_555
H6A C10A 1_555 1_555
C11A N13A 1_555 1_555
H7A C11A 1_555 1_555
C12A C11A 1_555 1_555
H8A C12A 1_555 1_555
C13A N13A 1_555 1_555
H9A C13A 1_555 1_555
C14A N14A 1_555 1_555
C15A N15A 1_555 1_555
H10A O3A 1_555 1_555
H11A O3A 1_555 1_555
Co2B N14 1_555 1_555
Co2C N14A 1_555 1_555
Co2F N17 1_555 1_555
Co2G N17A 1_555 1_555
N14B Co2 1_555 1_555
N14C Co2A 1_555 1_555
N17F Co2 1_555 1_555
N17G Co2A 1_555 1_555
N18B Co2 1_555 1_555
N18C Co2A 1_555 1_555
N4 C1 1_555 1_555
N7 N8 1_555 1_555
N10 C6 1_555 1_555
N18 Co2B 1_555 1_555
C1 C2 1_555 1_555
C4 C5 1_555 1_555
C6 C7 1_555 1_555
C9 C10 1_555 1_555
C13 C14 1_555 1_555
C14 C15 1_555 1_555
N4A C1A 1_555 1_555
N7A N8A 1_555 1_555
N10A C6A 1_555 1_555
N18A Co2C 1_555 1_555
C1A C2A 1_555 1_555
C4A C5A 1_555 1_555
C6A C7A 1_555 1_555
C9A C10A 1_555 1_555
C13A C14A 1_555 1_555
C14A C15A 1_555 1_555

#END
