
#######################################################################
#
#                 Cambridge Crystallographic Data Centre
#                                CCDC 
#
#######################################################################
#
# If this CIF has been generated from an entry in the Cambridge 
# Structural Database, then it will include bibliographic, chemical, 
# crystal, experimental, refinement or atomic coordinate data resulting 
# from the CCDC's data processing and validation procedures.
#
#######################################################################

data_CIHQAN
_symmetry_cell_setting           orthorhombic
_symmetry_space_group_name_H-M   'P n m a'
_symmetry_Int_Tables_number      62
_space_group_name_Hall           '-P 2ac 2n'
loop_
_symmetry_equiv_pos_site_id
_symmetry_equiv_pos_as_xyz
1 x,y,z
2 1/2-x,-y,1/2+z
3 -x,1/2+y,-z
4 1/2+x,1/2-y,1/2-z
5 -x,-y,-z
6 1/2+x,y,1/2-z
7 x,1/2-y,z
8 1/2-x,1/2+y,1/2+z
_cell_length_a                   13.6609(7)
_cell_length_b                   20.4183(11)
_cell_length_c                   7.2862(4)
_cell_angle_alpha                90
_cell_angle_beta                 90
_cell_angle_gamma                90
_cell_volume                     2032.36
loop_
_atom_site_label
_atom_site_type_symbol
_atom_site_fract_x
_atom_site_fract_y
_atom_site_fract_z
Ni1 Ni 0.89550(2) 0.2500 0.99188(4)
Ni2 Ni 0.670832(17) 0.326519(11) 1.00482(3)
S1 S 0.76120(4) 0.2500 1.33682(8)
F1 F 0.75373(10) 0.2500 0.9226(2)
F2 F 0.57305(11) 0.2500 1.0294(2)
O1 O 0.86289(13) 0.2500 1.2694(2)
O2 O 0.70966(10) 0.30956(6) 1.27272(18)
O3 O 0.76053(14) 0.2500 1.5392(3)
O4 O 1.03428(15) 0.2500 1.0850(3)
O5 O 0.93208(16) 0.2500 0.7191(3)
O6 O 0.63466(11) 0.34080(7) 0.7337(2)
N1 N 0.88339(11) 0.35135(8) 0.9643(2)
N2 N 0.79758(11) 0.38166(7) 0.9623(2)
N3 N 0.80785(11) 0.44143(7) 0.8907(2)
N4 N 0.95157(11) 0.39037(7) 0.8928(2)
N5 N 0.92365(11) 0.60437(7) 0.6028(2)
C1 C 0.90329(13) 0.44547(8) 0.8496(2)
C2 C 0.94816(13) 0.50266(8) 0.7617(2)
C3 C 0.88866(13) 0.55167(9) 0.6906(3)
C4 C 1.02155(14) 0.61059(9) 0.5863(3)
C5 C 1.08606(14) 0.56386(9) 0.6519(3)
C6 C 1.04974(13) 0.50891(9) 0.7396(3)
H1 H 0.8167(16) 0.5482(10) 0.700(3)
H2 H 1.0473(19) 0.6489(14) 0.527(3)
H3 H 1.1528(16) 0.5689(10) 0.633(3)
H4 H 1.0913(14) 0.4775(10) 0.783(3)
H5 H 1.055(4) 0.272(3) 1.129(8)
H6 H 0.885(3) 0.2500 0.659(6)
H7 H 0.582(2) 0.3542(15) 0.691(4)
H8 H 0.978(3) 0.2500 0.650(6)
H9 H 0.664(2) 0.3204(16) 0.670(5)
O2F O 0.70966(10) 0.19044(6) 1.27272(18)
H5F H 1.055(4) 0.228(3) 1.129(8)
Ni2F Ni 0.670832(17) 0.173481(11) 1.00482(3)
O6F O 0.63466(11) 0.15920(7) 0.7337(2)
N1F N 0.88339(11) 0.14865(8) 0.9643(2)
N2F N 0.79758(11) 0.11834(7) 0.9623(2)
N3F N 0.80785(11) 0.05857(7) 0.8907(2)
N4F N 0.95157(11) 0.10963(7) 0.8928(2)
N5F N 0.92365(11) -0.10437(7) 0.6028(2)
C1F C 0.90329(13) 0.05453(8) 0.8496(2)
C2F C 0.94816(13) -0.00266(8) 0.7617(2)
C3F C 0.88866(13) -0.05167(9) 0.6906(3)
C4F C 1.02155(14) -0.11059(9) 0.5863(3)
C5F C 1.08606(14) -0.06386(9) 0.6519(3)
C6F C 1.04974(13) -0.00891(9) 0.7396(3)
H1F H 0.8167(16) -0.0482(10) 0.700(3)
H2F H 1.0473(19) -0.1489(14) 0.527(3)
H3F H 1.1528(16) -0.0689(10) 0.633(3)
H4F H 1.0913(14) 0.0225(10) 0.783(3)
H7F H 0.582(2) 0.1458(15) 0.691(4)
H9F H 0.664(2) 0.1796(16) 0.670(5)
Ni2A Ni 0.829168(17) 0.673481(11) 0.50482(3)
Ni2G Ni 0.829168(17) -0.173481(11) 0.50482(3)
N5A N 0.57635(11) 0.39563(7) 1.1028(2)
N5G N 0.57635(11) 0.10437(7) 1.1028(2)
loop_
_geom_bond_atom_site_label_1
_geom_bond_atom_site_label_2
_geom_bond_site_symmetry_1
_geom_bond_site_symmetry_2
Ni1 F1 1_555 1_555
Ni2 F1 1_555 1_555
S1 O1 1_555 1_555
F1 Ni2F 1_555 1_555
F2 Ni2 1_555 1_555
O1 Ni1 1_555 1_555
O2 Ni2 1_555 1_555
O3 S1 1_555 1_555
O4 Ni1 1_555 1_555
O5 Ni1 1_555 1_555
O6 Ni2 1_555 1_555
N1 Ni1 1_555 1_555
N2 Ni2 1_555 1_555
N3 N2 1_555 1_555
N4 N1 1_555 1_555
N5 C3 1_555 1_555
C1 N3 1_555 1_555
C2 C1 1_555 1_555
C3 C2 1_555 1_555
C4 N5 1_555 1_555
C5 C4 1_555 1_555
C6 C2 1_555 1_555
H1 C3 1_555 1_555
H2 C4 1_555 1_555
H3 C5 1_555 1_555
H4 C6 1_555 1_555
H5 O4 1_555 1_555
H6 O5 1_555 1_555
H7 O6 1_555 1_555
H8 O5 1_555 1_555
H9 O6 1_555 1_555
O2F S1 1_555 1_555
H5F O4 1_555 1_555
Ni2F F2 1_555 1_555
O6F Ni2F 1_555 1_555
N1F Ni1 1_555 1_555
N2F Ni2F 1_555 1_555
N3F N2F 1_555 1_555
N4F N1F 1_555 1_555
N5F C3F 1_555 1_555
C1F N3F 1_555 1_555
C2F C1F 1_555 1_555
C3F C2F 1_555 1_555
C4F N5F 1_555 1_555
C5F C4F 1_555 1_555
C6F C2F 1_555 1_555
H1F C3F 1_555 1_555
H2F C4F 1_555 1_555
H3F C5F 1_555 1_555
H4F C6F 1_555 1_555
H7F O6F 1_555 1_555
H9F O6F 1_555 1_555
Ni2A N5 1_555 1_555
Ni2G N5F 1_555 1_555
N5A Ni2 1_555 1_555
N5G Ni2F 1_555 1_555
S1 O2 1_555 1_555
N1 N2 1_555 1_555
N4 C1 1_555 1_555
C5 C6 1_555 1_555
O2F Ni2F 1_555 1_555
N1F N2F 1_555 1_555
N4F C1F 1_555 1_555
C5F C6F 1_555 1_555

#END
