
#######################################################################
#
#                 Cambridge Crystallographic Data Centre
#                                CCDC 
#
#######################################################################
#
# If this CIF has been generated from an entry in the Cambridge 
# Structural Database, then it will include bibliographic, chemical, 
# crystal, experimental, refinement or atomic coordinate data resulting 
# from the CCDC's data processing and validation procedures.
#
#######################################################################

data_CIHRUH
_symmetry_cell_setting           monoclinic
_symmetry_space_group_name_H-M   'P 21/n'
_symmetry_Int_Tables_number      14
_space_group_name_Hall           '-P 2yn'
loop_
_symmetry_equiv_pos_site_id
_symmetry_equiv_pos_as_xyz
1 x,y,z
2 1/2-x,1/2+y,1/2-z
3 -x,-y,-z
4 1/2+x,1/2-y,1/2+z
_cell_length_a                   20.053(5)
_cell_length_b                   15.083(4)
_cell_length_c                   22.832(6)
_cell_angle_alpha                90
_cell_angle_beta                 108.943(4)
_cell_angle_gamma                90
_cell_volume                     6531.75
loop_
_atom_site_label
_atom_site_type_symbol
_atom_site_fract_x
_atom_site_fract_y
_atom_site_fract_z
Zn1 Zn 0.13797(8) 0.50936(10) 0.77871(6)
Zn2 Zn 0.60096(8) 0.55769(10) 0.77757(6)
N1 N 0.3067(6) 0.6598(7) 0.7706(4)
N2 N 0.2294(6) 0.5787(7) 0.7955(5)
N3 N 0.3957(7) 0.6497(7) 0.7215(5)
N4 N 0.5016(6) 0.5898(7) 0.7353(4)
N5 N -0.0430(5) 0.6548(7) 0.7648(5)
N6 N 0.0626(6) 0.5883(6) 0.7887(4)
N7 N -0.0990(5) 0.7801(7) 0.7043(4)
N8 N -0.0936(6) 0.9284(7) 0.7063(4)
O1 O 0.1507(5) 0.4216(6) 0.8398(4)
O2 O 0.0459(6) 0.3768(7) 0.7827(4)
O3 O 0.0824(7) 0.1315(9) 1.0137(6)
H1 H 0.1193 0.1329 1.0429
O4 O 0.1083(5) 0.5102(7) 0.6897(4)
O5 O 0.1673(5) 0.3882(7) 0.6952(4)
O6 O 0.0821(6) 0.4645(7) 0.4069(4)
H2 H 0.0630 0.5114 0.3927
O7 O 0.6326(5) 0.5916(6) 0.8649(4)
O8 O 0.6034(5) 0.7341(7) 0.8384(4)
O9 O 0.6927(5) 0.7623(7) 1.1300(4)
H3 H 0.6891 0.7183 1.1498
O10 O 0.6608(5) 0.6162(6) 0.7415(4)
O11 O 0.6342(8) 0.5170(10) 0.6715(6)
O12 O 0.7672(6) 0.8052(9) 0.5432(5)
H4 H 0.7668 0.8564 0.5551
C1 C 0.3427(7) 0.7068(8) 0.7335(5)
H12 H 0.3086 0.7250 0.6945
H13 H 0.3652 0.7597 0.7553
C2 C 0.2461(7) 0.6193(8) 0.7518(5)
H14 H 0.2171 0.6195 0.7107
C3 C 0.2850(7) 0.5954(8) 0.8501(5)
C4 C 0.3346(7) 0.6475(9) 0.8343(5)
C5 C 0.3976(7) 0.6739(10) 0.8785(6)
H15 H 0.4305 0.7074 0.8675
C6 C 0.4091(9) 0.6493(12) 0.9375(7)
H16 H 0.4506 0.6673 0.9675
C7 C 0.3614(9) 0.5979(12) 0.9553(6)
H17 H 0.3711 0.5820 0.9966
C8 C 0.2979(7) 0.5700(11) 0.9102(6)
H18 H 0.2657 0.5351 0.9212
C9 C 0.4643(8) 0.6504(8) 0.7516(6)
H19 H 0.4848 0.6916 0.7825
C10 C 0.4477(8) 0.5455(9) 0.6857(5)
C11 C 0.3823(8) 0.5836(9) 0.6781(6)
C12 C 0.3208(8) 0.5581(10) 0.6310(6)
H20 H 0.2776 0.5857 0.6246
C13 C 0.3301(11) 0.4874(11) 0.5941(7)
H21 H 0.2910 0.4658 0.5630
C14 C 0.3955(10) 0.4483(13) 0.6023(7)
H22 H 0.3988 0.4030 0.5757
C15 C 0.4561(9) 0.4753(10) 0.6491(7)
H23 H 0.4995 0.4481 0.6556
C16 C -0.1090(8) 0.6907(9) 0.7222(6)
H24 H -0.1251 0.6535 0.6857
H25 H -0.1449 0.6902 0.7422
C17 C 0.0025(6) 0.6030(8) 0.7445(6)
H26 H -0.0082 0.5814 0.7043
C18 C 0.0556(7) 0.6349(9) 0.8404(6)
C19 C -0.0089(7) 0.6760(8) 0.8258(5)
C20 C -0.0300(7) 0.7293(10) 0.8662(7)
H27 H -0.0730 0.7589 0.8547
C21 C 0.0186(9) 0.7340(11) 0.9248(7)
H28 H 0.0064 0.7657 0.9548
C22 C 0.0839(10) 0.6949(12) 0.9416(6)
H29 H 0.1150 0.7042 0.9813
C23 C 0.1049(8) 0.6418(11) 0.9008(6)
H30 H 0.1483 0.6130 0.9124
C24 C -0.1171(6) 0.8589(8) 0.7274(5)
H31 H -0.1429 0.8615 0.7546
C25 C -0.0589(7) 0.8999(10) 0.6662(6)
C26 C -0.0618(7) 0.8040(9) 0.6648(5)
C27 C -0.0314(8) 0.7544(11) 0.6292(6)
H32 H -0.0339 0.6928 0.6277
C28 C 0.0030(9) 0.8023(14) 0.5961(6)
H33 H 0.0245 0.7719 0.5716
C29 C 0.0066(7) 0.8926(13) 0.5979(6)
H34 H 0.0302 0.9216 0.5746
C30 C -0.0238(7) 0.9426(9) 0.6334(6)
H35 H -0.0200 1.0041 0.6346
C31 C 0.0980(9) 0.3744(8) 0.8315(6)
C32 C 0.0925(8) 0.3111(8) 0.8805(6)
C33 C 0.1491(9) 0.3016(12) 0.9332(7)
H36 H 0.1897 0.3352 0.9395
C34 C 0.1441(10) 0.2404(13) 0.9770(9)
H37 H 0.1819 0.2325 1.0132
C35 C 0.0861(13) 0.1935(11) 0.9675(10)
C36 C 0.0288(11) 0.2024(14) 0.9164(9)
H38 H -0.0119 0.1694 0.9112
C37 C 0.0331(9) 0.2594(10) 0.8746(7)
H39 H -0.0057 0.2659 0.8390
C38 C 0.1319(8) 0.4515(11) 0.6646(5)
C39 C 0.1204(7) 0.4540(9) 0.5965(5)
C40 C 0.0876(7) 0.5242(9) 0.5634(6)
H40 H 0.0724 0.5699 0.5834
C41 C 0.0756(8) 0.5308(11) 0.5002(6)
H41 H 0.0538 0.5808 0.4784
C42 C 0.0959(8) 0.4634(11) 0.4705(6)
C43 C 0.1257(8) 0.3862(12) 0.5014(7)
H42 H 0.1360 0.3379 0.4804
C44 C 0.1395(8) 0.3851(11) 0.5649(6)
H43 H 0.1624 0.3361 0.5873
C45 C 0.6242(7) 0.6723(11) 0.8786(6)
C46 C 0.6436(7) 0.6948(9) 0.9458(6)
C47 C 0.6429(7) 0.6314(10) 0.9885(7)
H44 H 0.6322 0.5731 0.9758
C48 C 0.6581(7) 0.6528(10) 1.0508(6)
H45 H 0.6553 0.6105 1.0795
C49 C 0.6777(7) 0.7399(10) 1.0685(6)
C50 C 0.6813(8) 0.7990(11) 1.0279(7)
H46 H 0.6969 0.8556 1.0420
C51 C 0.6635(8) 0.7825(11) 0.9659(6)
H47 H 0.6645 0.8271 0.9381
C52 C 0.6609(9) 0.5913(13) 0.6888(8)
C53 C 0.6888(7) 0.6457(10) 0.6495(6)
C54 C 0.6960(7) 0.7307(12) 0.6618(6)
H48 H 0.6829 0.7540 0.6942
C55 C 0.7230(8) 0.7860(12) 0.6266(7)
H49 H 0.7295 0.8460 0.6360
C56 C 0.7403(9) 0.7510(13) 0.5771(7)
C57 C 0.7379(10) 0.6605(15) 0.5661(8)
H50 H 0.7553 0.6345 0.5371
C58 C 0.7079(11) 0.6134(13) 0.6015(7)
H51 H 0.6996 0.5536 0.5921
Zn2A Zn -0.10096(8) 1.05769(10) 0.72243(6)
N8A N 0.5936(6) 0.4284(7) 0.7937(4)
O13 O 0.7051(6) 0.6377(9) 0.2125(4)
H5 H 0.7451 0.6405 0.2374
C59 C 0.6570(10) 0.6198(14) 0.2442(9)
H52 H 0.6757 0.5731 0.2742
H53 H 0.6130 0.5988 0.2149
C60 C 0.6426(16) 0.7017(16) 0.2773(13)
H54 H 0.6700 0.6988 0.3204
H55 H 0.5934 0.7040 0.2731
H56 H 0.6552 0.7539 0.2593
O14 O 0.0249(6) 0.6197(8) 0.3492(5)
H6 H 0.0337 0.6749 0.3531
H7 H 0.0251 0.6065 0.3131
O15 O 0.7869(8) 0.6974(15) 0.8235(7)
H8 H 0.7555 0.6859 0.7891
H9 H 0.7988 0.7511 0.8218
O16 O 0.1757(11) 0.1297(15) 0.1161(9)
H10 H 0.1861 0.1626 0.1481
H11 H 0.1441 0.0944 0.1196
loop_
_geom_bond_atom_site_label_1
_geom_bond_atom_site_label_2
_geom_bond_site_symmetry_1
_geom_bond_site_symmetry_2
Zn1 N2 1_555 1_555
Zn2 N4 1_555 1_555
N1 C1 1_555 1_555
N2 C2 1_555 1_555
N3 C1 1_555 1_555
N4 C9 1_555 1_555
N5 C16 1_555 1_555
N6 Zn1 1_555 1_555
N7 C16 1_555 1_555
N8 C24 1_555 1_555
O1 Zn1 1_555 1_555
O2 C31 1_555 1_555
O3 H1 1_555 1_555
O4 Zn1 1_555 1_555
O5 C38 1_555 1_555
O6 H2 1_555 1_555
O7 Zn2 1_555 1_555
O8 C45 1_555 1_555
O9 H3 1_555 1_555
O10 Zn2 1_555 1_555
O11 C52 1_555 1_555
O12 H4 1_555 1_555
O13 H5 1_555 1_555
O14 H6 1_555 1_555
H7 O14 1_555 1_555
O15 H8 1_555 1_555
H9 O15 1_555 1_555
O16 H10 1_555 1_555
H11 O16 1_555 1_555
C1 H12 1_555 1_555
H13 C1 1_555 1_555
C2 N1 1_555 1_555
H14 C2 1_555 1_555
C3 N2 1_555 1_555
C4 N1 1_555 1_555
C5 C4 1_555 1_555
H15 C5 1_555 1_555
C6 C5 1_555 1_555
H16 C6 1_555 1_555
C7 C6 1_555 1_555
H17 C7 1_555 1_555
C8 C3 1_555 1_555
H18 C8 1_555 1_555
C9 N3 1_555 1_555
H19 C9 1_555 1_555
C10 N4 1_555 1_555
C11 N3 1_555 1_555
C12 C11 1_555 1_555
H20 C12 1_555 1_555
C13 C12 1_555 1_555
H21 C13 1_555 1_555
C14 C13 1_555 1_555
H22 C14 1_555 1_555
C15 C10 1_555 1_555
H23 C15 1_555 1_555
C16 H24 1_555 1_555
H25 C16 1_555 1_555
C17 N5 1_555 1_555
H26 C17 1_555 1_555
C18 N6 1_555 1_555
C19 N5 1_555 1_555
C20 C19 1_555 1_555
H27 C20 1_555 1_555
C21 C20 1_555 1_555
H28 C21 1_555 1_555
C22 C21 1_555 1_555
H29 C22 1_555 1_555
C23 C18 1_555 1_555
H30 C23 1_555 1_555
C24 N7 1_555 1_555
H31 C24 1_555 1_555
C25 N8 1_555 1_555
C26 N7 1_555 1_555
C27 C26 1_555 1_555
H32 C27 1_555 1_555
C28 C27 1_555 1_555
H33 C28 1_555 1_555
C29 C28 1_555 1_555
H34 C29 1_555 1_555
C30 C25 1_555 1_555
H35 C30 1_555 1_555
C31 O1 1_555 1_555
C32 C31 1_555 1_555
C33 C32 1_555 1_555
H36 C33 1_555 1_555
C34 C33 1_555 1_555
H37 C34 1_555 1_555
C35 O3 1_555 1_555
C36 C35 1_555 1_555
H38 C36 1_555 1_555
C37 C32 1_555 1_555
H39 C37 1_555 1_555
C38 O4 1_555 1_555
C39 C38 1_555 1_555
C40 C39 1_555 1_555
H40 C40 1_555 1_555
C41 C40 1_555 1_555
H41 C41 1_555 1_555
C42 O6 1_555 1_555
C43 C42 1_555 1_555
H42 C43 1_555 1_555
C44 C39 1_555 1_555
H43 C44 1_555 1_555
C45 O7 1_555 1_555
C46 C45 1_555 1_555
C47 C46 1_555 1_555
H44 C47 1_555 1_555
C48 C47 1_555 1_555
H45 C48 1_555 1_555
C49 O9 1_555 1_555
C50 C49 1_555 1_555
H46 C50 1_555 1_555
C51 C46 1_555 1_555
H47 C51 1_555 1_555
C52 O10 1_555 1_555
C53 C52 1_555 1_555
C54 C53 1_555 1_555
H48 C54 1_555 1_555
C55 C54 1_555 1_555
H49 C55 1_555 1_555
C56 O12 1_555 1_555
C57 C56 1_555 1_555
H50 C57 1_555 1_555
C58 C53 1_555 1_555
H51 C58 1_555 1_555
C59 O13 1_555 1_555
H52 C59 1_555 1_555
H53 C59 1_555 1_555
C60 C59 1_555 1_555
H54 C60 1_555 1_555
H55 C60 1_555 1_555
H56 C60 1_555 1_555
Zn2A N8 1_555 1_555
N8A Zn2 1_555 1_555
N6 C17 1_555 1_555
C3 C4 1_555 1_555
C7 C8 1_555 1_555
C10 C11 1_555 1_555
C14 C15 1_555 1_555
C18 C19 1_555 1_555
C22 C23 1_555 1_555
C25 C26 1_555 1_555
C29 C30 1_555 1_555
C34 C35 1_555 1_555
C36 C37 1_555 1_555
C41 C42 1_555 1_555
C43 C44 1_555 1_555
C48 C49 1_555 1_555
C50 C51 1_555 1_555
C55 C56 1_555 1_555
C57 C58 1_555 1_555

#END
