
#######################################################################
#
#                 Cambridge Crystallographic Data Centre
#                                CCDC 
#
#######################################################################
#
# If this CIF has been generated from an entry in the Cambridge 
# Structural Database, then it will include bibliographic, chemical, 
# crystal, experimental, refinement or atomic coordinate data resulting 
# from the CCDC's data processing and validation procedures.
#
#######################################################################

data_CIHROB
_symmetry_cell_setting           monoclinic
_symmetry_space_group_name_H-M   'P 21'
_symmetry_Int_Tables_number      4
_space_group_name_Hall           'P 2yb'
loop_
_symmetry_equiv_pos_site_id
_symmetry_equiv_pos_as_xyz
1 x,y,z
2 -x,1/2+y,-z
_cell_length_a                   8.3627(18)
_cell_length_b                   9.983(2)
_cell_length_c                   8.7717(19)
_cell_angle_alpha                90
_cell_angle_beta                 106.515(2)
_cell_angle_gamma                90
_cell_volume                     702.093
loop_
_atom_site_label
_atom_site_type_symbol
_atom_site_fract_x
_atom_site_fract_y
_atom_site_fract_z
Zn1 Zn 0.58377(3) 0.58041(4) 0.44148(3)
N1 N 0.4055(3) 0.6189(3) 0.5751(3)
H1 H 0.3542 0.6853 0.5409
N2 N 0.1998(3) 0.7140(3) 0.0327(3)
N3 N 0.3940(3) 0.6111(3) 0.2185(4)
N4 N 0.1338(3) 0.8625(4) -0.1949(4)
N5 N 0.2495(3) 0.9703(3) -0.3551(3)
O1 O 0.7455(3) 0.5817(5) 0.6745(3)
O2 O 0.7654(4) 0.6356(4) 0.9225(3)
O3 O 0.4901(3) 0.3805(3) 0.4818(3)
O4 O 0.3155(3) 0.2721(3) 0.5872(3)
C1 C 0.6843(4) 0.6167(4) 0.7825(4)
C2 C 0.4968(4) 0.6386(4) 0.7434(4)
H4 H 0.4523 0.5775 0.8071
H5 H 0.4767 0.7291 0.7738
C3 C 0.3700(4) 0.3771(4) 0.5383(4)
C4 C 0.2838(4) 0.5098(4) 0.5480(5)
H6 H 0.1966 0.5253 0.4498
H7 H 0.2326 0.5067 0.6344
C5 C 0.3237(4) 0.7266(4) 0.1699(4)
H8 H 0.3551 0.8073 0.2231
C6 C 0.3115(4) 0.5185(4) 0.1071(5)
H9 H 0.3340 0.4272 0.1106
C7 C 0.1917(4) 0.5817(6) -0.0089(4)
H10 H 0.1191 0.5427 -0.0983
C8 C 0.2447(4) 0.9563(4) -0.2065(4)
H11 H 0.3099 1.0052 -0.1210
C9 C 0.1348(4) 0.8802(4) -0.4429(4)
H12 H 0.1106 0.8678 -0.5522
C10 C 0.0628(4) 0.8128(4) -0.3461(5)
H13 H -0.0181 0.7463 -0.3754
C11 C 0.0929(4) 0.8223(5) -0.0508(4)
H14 H -0.0225 0.7933 -0.0784
H15 H 0.1046 0.8989 0.0195
Zn1A Zn 0.41623(3) 1.08041(4) -0.44148(3)
Zn1A_2 Zn 0.41623(3) 0.08041(4) 0.55852(3)
N5A N 0.7505(3) 0.4703(3) 0.3551(3)
O4A O 0.6845(3) 0.7721(3) 0.4128(3)
O5 O 0.8981(6) 0.7838(5) 0.2076(5)
H2 H 0.8476 0.7706 0.2778
H3 H 0.8402 0.7451 0.1237
loop_
_geom_bond_atom_site_label_1
_geom_bond_atom_site_label_2
_geom_bond_site_symmetry_1
_geom_bond_site_symmetry_2
Zn1 N1 1_555 1_555
N1 H1 1_555 1_555
N2 C5 1_555 1_555
N3 Zn1 1_555 1_555
N4 C8 1_555 1_555
N5 C8 1_555 1_555
O1 Zn1 1_555 1_555
O2 C1 1_555 1_555
O3 Zn1 1_555 1_555
O4 C3 1_555 1_555
O5 H2 1_555 1_555
H3 O5 1_555 1_555
C1 O1 1_555 1_555
C2 N1 1_555 1_555
H4 C2 1_555 1_555
H5 C2 1_555 1_555
C3 O3 1_555 1_555
C4 N1 1_555 1_555
H6 C4 1_555 1_555
H7 C4 1_555 1_555
C5 N3 1_555 1_555
H8 C5 1_555 1_555
C6 N3 1_555 1_555
H9 C6 1_555 1_555
C7 N2 1_555 1_555
H10 C7 1_555 1_555
C8 H11 1_555 1_555
C9 N5 1_555 1_555
H12 C9 1_555 1_555
C10 N4 1_555 1_555
H13 C10 1_555 1_555
C11 N2 1_555 1_555
H14 C11 1_555 1_555
H15 C11 1_555 1_555
Zn1A N5 1_555 1_555
Zn1A_2 O4 1_555 1_555
N5A Zn1 1_555 1_555
O4A Zn1 1_555 1_555
N4 C11 1_555 1_555
C1 C2 1_555 1_555
C3 C4 1_555 1_555
C6 C7 1_555 1_555
C9 C10 1_555 1_555

#END
