
#######################################################################
#
#                 Cambridge Crystallographic Data Centre
#                                CCDC 
#
#######################################################################
#
# If this CIF has been generated from an entry in the Cambridge 
# Structural Database, then it will include bibliographic, chemical, 
# crystal, experimental, refinement or atomic coordinate data resulting 
# from the CCDC's data processing and validation procedures.
#
#######################################################################

data_CIHSIW
_symmetry_cell_setting           triclinic
_symmetry_space_group_name_H-M   'P -1'
_symmetry_Int_Tables_number      2
_space_group_name_Hall           '-P 1'
loop_
_symmetry_equiv_pos_site_id
_symmetry_equiv_pos_as_xyz
1 x,y,z
2 -x,-y,-z
_cell_length_a                   8.159(3)
_cell_length_b                   9.621(3)
_cell_length_c                   9.767(3)
_cell_angle_alpha                74.063(4)
_cell_angle_beta                 74.037(4)
_cell_angle_gamma                67.125(3)
_cell_volume                     666.875
loop_
_atom_site_label
_atom_site_type_symbol
_atom_site_fract_x
_atom_site_fract_y
_atom_site_fract_z
Cu1 Cu 1.23769(6) 0.13056(5) 0.15378(4)
Cl1 Cl 1.47662(11) 0.22262(10) 0.13040(9)
N1 N 1.0147(3) 0.3172(3) 0.2258(3)
N2 N 0.8451(3) 0.4988(3) 0.3820(3)
N3 N 1.1264(4) 0.3216(3) 0.4152(3)
H1 H 1.1174 0.3581 0.4891
H2 H 1.2215 0.2468 0.3899
N4 N 1.0828(4) 0.1873(3) 0.0024(3)
N5 N 0.3234(3) 0.9320(3) 0.2927(3)
C1 C 0.9917(4) 0.3817(3) 0.3391(3)
C2 C 0.7193(4) 0.5621(3) 0.2972(3)
C3 C 0.7392(4) 0.5103(3) 0.1714(3)
H3 H 0.6544 0.5582 0.1111
C4 C 0.8908(4) 0.3846(3) 0.1403(3)
C5 C 0.9303(4) 0.3118(3) 0.0126(3)
C6 C 0.8202(4) 0.3697(4) -0.0903(3)
H4 H 0.7165 0.4559 -0.0814
C7 C 0.8681(5) 0.2966(4) -0.2064(4)
H5 H 0.7985 0.3349 -0.2783
C8 C 1.0190(5) 0.1672(4) -0.2146(4)
H6 H 1.0505 0.1145 -0.2900
C9 C 1.1233(5) 0.1163(4) -0.1094(3)
H7 H 1.2261 0.0291 -0.1161
C10 C 0.4664(4) 0.8126(3) 0.2511(3)
H8 H 0.5061 0.8114 0.1525
C11 C 0.5585(4) 0.6902(3) 0.3483(3)
C12 C 0.4972(4) 0.6939(4) 0.4952(3)
H9 H 0.5564 0.6152 0.5634
C13 C 0.3480(4) 0.8146(4) 0.5399(4)
H10 H 0.3045 0.8179 0.6379
C14 C 0.2649(4) 0.9305(4) 0.4355(3)
H11 H 0.1636 1.0111 0.4656
Cu1_2 Cu 0.23769(6) 1.13056(5) 0.15378(4)
N5_2 N 1.3234(3) -0.0680(3) 0.2927(3)
loop_
_geom_bond_atom_site_label_1
_geom_bond_atom_site_label_2
_geom_bond_site_symmetry_1
_geom_bond_site_symmetry_2
Cu1 Cl1 1_555 1_555
N1 Cu1 1_555 1_555
N2 C1 1_555 1_555
N3 H1 1_555 1_555
H2 N3 1_555 1_555
N4 Cu1 1_555 1_555
N5 C10 1_555 1_555
C1 N1 1_555 1_555
C2 N2 1_555 1_555
C3 C2 1_555 1_555
H3 C3 1_555 1_555
C4 N1 1_555 1_555
C5 N4 1_555 1_555
C6 C5 1_555 1_555
H4 C6 1_555 1_555
C7 C6 1_555 1_555
H5 C7 1_555 1_555
C8 C7 1_555 1_555
H6 C8 1_555 1_555
C9 N4 1_555 1_555
H7 C9 1_555 1_555
C10 H8 1_555 1_555
C11 C2 1_555 1_555
C12 C11 1_555 1_555
H9 C12 1_555 1_555
C13 C12 1_555 1_555
H10 C13 1_555 1_555
C14 N5 1_555 1_555
H11 C14 1_555 1_555
Cu1_2 N5 1_555 1_555
N5_2 Cu1 1_555 1_555
N3 C1 1_555 1_555
C3 C4 1_555 1_555
C4 C5 1_555 1_555
C8 C9 1_555 1_555
C10 C11 1_555 1_555
C13 C14 1_555 1_555

#END
