
#######################################################################
#
#                 Cambridge Crystallographic Data Centre
#                                CCDC 
#
#######################################################################
#
# If this CIF has been generated from an entry in the Cambridge 
# Structural Database, then it will include bibliographic, chemical, 
# crystal, experimental, refinement or atomic coordinate data resulting 
# from the CCDC's data processing and validation procedures.
#
#######################################################################

data_CIHSES
_symmetry_cell_setting           monoclinic
_symmetry_space_group_name_H-M   'P 2/c'
_symmetry_Int_Tables_number      13
_space_group_name_Hall           '-P 2yc'
loop_
_symmetry_equiv_pos_site_id
_symmetry_equiv_pos_as_xyz
1 x,y,z
2 -x,y,1/2-z
3 -x,-y,-z
4 x,-y,1/2+z
_cell_length_a                   9.437(2)
_cell_length_b                   10.634(3)
_cell_length_c                   13.889(3)
_cell_angle_alpha                90
_cell_angle_beta                 108.704(4)
_cell_angle_gamma                90
_cell_volume                     1320.19
loop_
_atom_site_label
_atom_site_type_symbol
_atom_site_fract_x
_atom_site_fract_y
_atom_site_fract_z
Cu1 Cu 0.5000 0.24155(12) 0.2500
Cu2 Cu 0.0000 0.61826(14) 0.2500
Cl1 Cl 0.5000 0.0274(3) 0.2500
N1 N 0.4918(7) 0.2482(6) 0.1049(4)
N2 N -0.0260(7) 0.7270(6) 0.1224(6)
N3 N 0.3233(6) 0.3733(5) 0.1908(4)
N4 N 0.1466(6) 0.5329(6) 0.1952(4)
N5 N 0.2277(6) 0.3870(6) 0.3209(4)
H1 H 0.1742 0.4255 0.3385
C1 C 0.5663(9) 0.1728(9) 0.0637(6)
H2 H 0.6229 0.1082 0.1026
C2 C 0.5631(11) 0.1868(11) -0.0369(7)
H3 H 0.6163 0.1323 -0.0649
C3 C 0.4804(10) 0.2816(10) -0.0929(6)
H4 H 0.4766 0.2929 -0.1601
C4 C 0.4037(9) 0.3598(9) -0.0508(5)
H5 H 0.3483 0.4258 -0.0885
C5 C 0.4082(8) 0.3408(7) 0.0490(5)
C6 C 0.3175(7) 0.4136(7) 0.0979(5)
C7 C 0.2324(7) 0.4286(7) 0.2383(5)
C8 C 0.1450(7) 0.5726(7) 0.1035(5)
C9 C 0.2290(8) 0.5130(7) 0.0505(5)
H6 H 0.2254 0.5393 -0.0141
C10 C 0.0506(8) 0.6819(8) 0.0625(6)
C11 C 0.0366(9) 0.7357(9) -0.0309(7)
H7 H 0.0907 0.7048 -0.0712
C12 C -0.0588(13) 0.8354(11) -0.0625(10)
H8 H -0.0730 0.8704 -0.1262
C13 C -0.1308(12) 0.8823(10) -0.0037(11)
H9 H -0.1926 0.9519 -0.0254
C14 C -0.1157(10) 0.8300(9) 0.0886(10)
H10 H -0.1670 0.8647 0.1293
Cu2_2 Cu 1.0000 0.61826(14) 0.2500
N1A N 0.5082(7) 0.2482(6) 0.3951(4)
N2A N 1.0260(7) 0.7270(6) 0.3776(6)
N2A_2 N 0.0260(7) 0.7270(6) 0.3776(6)
N3A N 0.6767(6) 0.3733(5) 0.3092(4)
N4A N 0.8534(6) 0.5329(6) 0.3048(4)
N4A_2 N -0.1466(6) 0.5329(6) 0.3048(4)
N5A N 0.7723(6) 0.3870(6) 0.1791(4)
H1A H 0.8258 0.4255 0.1615
C1A C 0.4337(9) 0.1728(9) 0.4363(6)
H2A H 0.3771 0.1082 0.3974
C2A C 0.4369(11) 0.1868(11) 0.5369(7)
H3A H 0.3837 0.1323 0.5649
C3A C 0.5196(10) 0.2816(10) 0.5929(6)
H4A H 0.5234 0.2929 0.6601
C4A C 0.5963(9) 0.3598(9) 0.5508(5)
H5A H 0.6517 0.4258 0.5885
C5A C 0.5918(8) 0.3408(7) 0.4510(5)
C6A C 0.6825(7) 0.4136(7) 0.4021(5)
C7A C 0.7676(7) 0.4286(7) 0.2617(5)
C8A C 0.8550(7) 0.5726(7) 0.3965(5)
C9A C 0.7710(8) 0.5130(7) 0.4495(5)
H6A H 0.7746 0.5393 0.5141
C10A C 0.9494(8) 0.6819(8) 0.4375(6)
C11A C 0.9634(9) 0.7357(9) 0.5309(7)
H7A H 0.9093 0.7048 0.5712
C12A C 1.0588(13) 0.8354(11) 0.5625(10)
H8A H 1.0730 0.8704 0.6262
C13A C 1.1308(12) 0.8823(10) 0.5037(11)
H9A H 1.1926 0.9519 0.5254
C14A C 1.1157(10) 0.8300(9) 0.4114(10)
H10A H 1.1670 0.8647 0.3707
loop_
_geom_bond_atom_site_label_1
_geom_bond_atom_site_label_2
_geom_bond_site_symmetry_1
_geom_bond_site_symmetry_2
Cu1 Cl1 1_555 1_555
Cu2 N2 1_555 1_555
N1 Cu1 1_555 1_555
N2 C10 1_555 1_555
N3 Cu1 1_555 1_555
N4 Cu2 1_555 1_555
N5 H1 1_555 1_555
C1 N1 1_555 1_555
H2 C1 1_555 1_555
C2 C1 1_555 1_555
H3 C2 1_555 1_555
C3 C2 1_555 1_555
H4 C3 1_555 1_555
C4 C3 1_555 1_555
H5 C4 1_555 1_555
C5 N1 1_555 1_555
C6 N3 1_555 1_555
C7 N3 1_555 1_555
C8 N4 1_555 1_555
C9 C6 1_555 1_555
H6 C9 1_555 1_555
C10 C8 1_555 1_555
C11 C10 1_555 1_555
H7 C11 1_555 1_555
C12 C11 1_555 1_555
H8 C12 1_555 1_555
C13 C12 1_555 1_555
H9 C13 1_555 1_555
C14 N2 1_555 1_555
H10 C14 1_555 1_555
Cu2_2 N2A 1_555 1_555
N1A Cu1 1_555 1_555
N2A C10A 1_555 1_555
N2A_2 Cu2 1_555 1_555
N3A Cu1 1_555 1_555
N4A Cu2_2 1_555 1_555
N4A_2 Cu2 1_555 1_555
N5A H1A 1_555 1_555
C1A N1A 1_555 1_555
H2A C1A 1_555 1_555
C2A C1A 1_555 1_555
H3A C2A 1_555 1_555
C3A C2A 1_555 1_555
H4A C3A 1_555 1_555
C4A C3A 1_555 1_555
H5A C4A 1_555 1_555
C5A N1A 1_555 1_555
C6A N3A 1_555 1_555
C7A N3A 1_555 1_555
C8A N4A 1_555 1_555
C9A C6A 1_555 1_555
H6A C9A 1_555 1_555
C10A C8A 1_555 1_555
C11A C10A 1_555 1_555
H7A C11A 1_555 1_555
C12A C11A 1_555 1_555
H8A C12A 1_555 1_555
C13A C12A 1_555 1_555
H9A C13A 1_555 1_555
C14A N2A 1_555 1_555
H10A C14A 1_555 1_555
N4 C7 1_555 1_555
N5 C7 1_555 1_555
C4 C5 1_555 1_555
C5 C6 1_555 1_555
C8 C9 1_555 1_555
C13 C14 1_555 1_555
N4A C7A 1_555 1_555
N5A C7A 1_555 1_555
C4A C5A 1_555 1_555
C5A C6A 1_555 1_555
C8A C9A 1_555 1_555
C13A C14A 1_555 1_555

#END
