
#######################################################################
#
#                 Cambridge Crystallographic Data Centre
#                                CCDC 
#
#######################################################################
#
# If this CIF has been generated from an entry in the Cambridge 
# Structural Database, then it will include bibliographic, chemical, 
# crystal, experimental, refinement or atomic coordinate data resulting 
# from the CCDC's data processing and validation procedures.
#
#######################################################################

data_CIHSOC
_symmetry_cell_setting           triclinic
_symmetry_space_group_name_H-M   'P -1'
_symmetry_Int_Tables_number      2
_space_group_name_Hall           '-P 1'
loop_
_symmetry_equiv_pos_site_id
_symmetry_equiv_pos_as_xyz
1 x,y,z
2 -x,-y,-z
_cell_length_a                   7.6471(18)
_cell_length_b                   9.821(2)
_cell_length_c                   11.111(3)
_cell_angle_alpha                70.375(3)
_cell_angle_beta                 85.291(3)
_cell_angle_gamma                69.793(3)
_cell_volume                     737.067
loop_
_atom_site_label
_atom_site_type_symbol
_atom_site_fract_x
_atom_site_fract_y
_atom_site_fract_z
Cu1 Cu 0.50629(8) 0.23347(7) 0.68741(5)
Cu2 Cu 0.74914(9) 0.41365(8) 0.53654(6)
Cl1 Cl 0.82470(15) 0.19458(14) 0.71546(11)
Cl2 Cl 0.43411(16) 0.34845(13) 0.47084(10)
N1 N 0.3899(5) 0.2673(4) 0.8553(3)
N2 N 0.3275(5) 0.3881(4) 1.0158(3)
N3 N 0.4979(5) 0.4624(4) 0.8424(4)
H1 H 0.5074 0.5310 0.8708
H2 H 0.5488 0.4533 0.7723
N4 N 0.3807(5) 0.0651(4) 0.7520(3)
N5 N -0.0573(5) 0.3722(4) 1.4072(3)
C1 C 0.4046(6) 0.3702(5) 0.9070(4)
C2 C 0.2429(5) 0.2886(5) 1.0820(4)
C3 C 0.2362(6) 0.1710(5) 1.0419(4)
H3 H 0.1847 0.0983 1.0917
C4 C 0.3095(5) 0.1666(4) 0.9246(4)
C5 C 0.3049(5) 0.0507(5) 0.8668(4)
C6 C 0.2354(6) -0.0666(5) 0.9284(4)
H4 H 0.1881 -0.0765 1.0095
C7 C 0.2374(6) -0.1691(5) 0.8673(4)
H5 H 0.1917 -0.2491 0.9068
C8 C 0.3082(6) -0.1505(5) 0.7470(5)
H6 H 0.3092 -0.2167 0.7034
C9 C 0.3769(6) -0.0333(5) 0.6929(4)
H7 H 0.4232 -0.0207 0.6113
C10 C -0.0218(6) 0.4848(5) 1.3125(4)
H8 H -0.0675 0.5837 1.3171
C11 C 0.0788(6) 0.4616(5) 1.2087(4)
H9 H 0.0998 0.5435 1.1447
C12 C 0.1491(5) 0.3146(5) 1.2000(4)
C13 C 0.1192(6) 0.1966(5) 1.3005(4)
H10 H 0.1662 0.0960 1.2996
C14 C 0.0188(6) 0.2299(5) 1.4019(4)
H11 H 0.0033 0.1491 1.4702
Cu2A Cu 0.25086(9) 0.58635(8) 0.46346(6)
Cu2_2 Cu -0.25086(9) 0.41365(8) 1.53654(6)
Cl2A Cl 0.56589(16) 0.65155(13) 0.52916(10)
N5_2 N 0.9427(5) 0.3722(4) 0.4072(3)
loop_
_geom_bond_atom_site_label_1
_geom_bond_atom_site_label_2
_geom_bond_site_symmetry_1
_geom_bond_site_symmetry_2
Cu1 Cl1 1_555 1_555
Cu2 Cl1 1_555 1_555
Cl2 Cu1 1_555 1_555
N1 Cu1 1_555 1_555
N2 C1 1_555 1_555
N3 H1 1_555 1_555
H2 N3 1_555 1_555
N4 Cu1 1_555 1_555
N5 C10 1_555 1_555
C1 N1 1_555 1_555
C2 N2 1_555 1_555
C3 C2 1_555 1_555
H3 C3 1_555 1_555
C4 N1 1_555 1_555
C5 N4 1_555 1_555
C6 C5 1_555 1_555
H4 C6 1_555 1_555
C7 C6 1_555 1_555
H5 C7 1_555 1_555
C8 C7 1_555 1_555
H6 C8 1_555 1_555
C9 N4 1_555 1_555
H7 C9 1_555 1_555
C10 H8 1_555 1_555
C11 C10 1_555 1_555
H9 C11 1_555 1_555
C12 C2 1_555 1_555
C13 C12 1_555 1_555
H10 C13 1_555 1_555
C14 N5 1_555 1_555
H11 C14 1_555 1_555
Cu2A Cl2 1_555 1_555
Cu2_2 N5 1_555 1_555
Cl2A Cu2 1_555 1_555
N5_2 Cu2 1_555 1_555
N3 C1 1_555 1_555
C3 C4 1_555 1_555
C4 C5 1_555 1_555
C8 C9 1_555 1_555
C11 C12 1_555 1_555
C13 C14 1_555 1_555

#END
