
#######################################################################
#
#                 Cambridge Crystallographic Data Centre
#                                CCDC 
#
#######################################################################
#
# If this CIF has been generated from an entry in the Cambridge 
# Structural Database, then it will include bibliographic, chemical, 
# crystal, experimental, refinement or atomic coordinate data resulting 
# from the CCDC's data processing and validation procedures.
#
#######################################################################

data_CIJDIJ
_symmetry_cell_setting           triclinic
_symmetry_space_group_name_H-M   'P -1'
_symmetry_Int_Tables_number      2
_space_group_name_Hall           '-P 1'
loop_
_symmetry_equiv_pos_site_id
_symmetry_equiv_pos_as_xyz
1 x,y,z
2 -x,-y,-z
_cell_length_a                   8.8369(6)
_cell_length_b                   9.5269(6)
_cell_length_c                   9.9558(7)
_cell_angle_alpha                105.4250(10)
_cell_angle_beta                 107.0660(10)
_cell_angle_gamma                106.8080(10)
_cell_volume                     708.418
loop_
_atom_site_label
_atom_site_type_symbol
_atom_site_fract_x
_atom_site_fract_y
_atom_site_fract_z
Mn1 Mn 0.5000 0.0000 0.0000
Mn2 Mn 1.20164(4) 0.07919(3) 0.15304(3)
C1 C 1.2949(3) 0.2165(3) 0.5140(2)
H1 H 1.4078 0.2355 0.5242
C2 C 1.2638(3) 0.2593(3) 0.6439(3)
H2 H 1.3539 0.3048 0.7396
C3 C 1.0976(3) 0.2336(3) 0.6294(3)
H3 H 1.0736 0.2614 0.7153
C4 C 0.9671(3) 0.1660(3) 0.4861(2)
H4 H 0.8538 0.1490 0.4733
C5 C 1.0081(3) 0.1241(2) 0.3619(2)
C6 C 0.8694(2) 0.0424(2) 0.2017(2)
C7 C 0.1753(3) -0.5686(3) 0.2337(3)
H5 H 0.1361 -0.5952 0.3043
C8 C 0.1835(3) -0.4257(3) 0.2206(3)
H6 H 0.1511 -0.3585 0.2819
C9 C 0.2397(2) -0.3840(2) 0.1166(2)
C10 C 0.2885(3) -0.4880(2) 0.0301(2)
H7 H 0.3280 -0.4641 -0.0413
C11 C 0.2779(3) -0.6271(2) 0.0511(2)
H8 H 0.3124 -0.6950 -0.0069
C12 C 0.2523(2) -0.2295(2) 0.0962(2)
N1 N 1.1699(2) 0.1493(2) 0.37494(18)
N2 N 0.2207(2) -0.66971(19) 0.15045(19)
N3 N 0.4670(2) 0.1600(2) 0.1876(2)
N4 N 0.5861(3) 0.2726(2) 0.2867(2)
N5 N 0.7021(4) 0.3804(4) 0.3809(4)
O1 O 0.92227(17) 0.01474(16) 0.09618(14)
O2 O 0.71715(18) 0.00588(19) 0.18447(16)
O3 O 0.1903(2) -0.14743(17) 0.16481(18)
O4 O 0.3228(2) -0.19848(17) 0.01004(18)
Mn2A Mn -0.20164(4) -0.07919(3) -0.15304(3)
Mn2_2 Mn 0.20164(4) -0.92081(3) 0.15304(3)
Mn2_3 Mn 0.20164(4) 0.07919(3) 0.15304(3)
Mn2A_2 Mn 0.79836(4) -0.07919(3) -0.15304(3)
Mn2A_3 Mn 0.79836(4) 0.92081(3) -0.15304(3)
C1A C -0.2949(3) -0.2165(3) -0.5140(2)
H1A H -0.4078 -0.2355 -0.5242
C2A C -0.2638(3) -0.2593(3) -0.6439(3)
H2A H -0.3539 -0.3048 -0.7396
C3A C -0.0976(3) -0.2336(3) -0.6294(3)
H3A H -0.0736 -0.2614 -0.7153
C4A C 0.0329(3) -0.1660(3) -0.4861(2)
H4A H 0.1462 -0.1490 -0.4733
C5A C -0.0081(3) -0.1241(2) -0.3619(2)
C6A C 0.1306(2) -0.0424(2) -0.2017(2)
C7A C 0.8247(3) 0.5686(3) -0.2337(3)
H5A H 0.8639 0.5952 -0.3043
C8A C 0.8165(3) 0.4257(3) -0.2206(3)
H6A H 0.8489 0.3585 -0.2819
C9A C 0.7603(2) 0.3840(2) -0.1166(2)
C10A C 0.7115(3) 0.4880(2) -0.0301(2)
H7A H 0.6720 0.4641 0.0413
C11A C 0.7221(3) 0.6271(2) -0.0511(2)
H8A H 0.6876 0.6950 0.0069
C12A C 0.7477(2) 0.2295(2) -0.0962(2)
N1A N -0.1699(2) -0.1493(2) -0.37494(18)
N2A N 0.7793(2) 0.66971(19) -0.15045(19)
N2_2 N 1.2207(2) 0.33029(19) 0.15045(19)
N2A_2 N -0.2207(2) -0.33029(19) -0.15045(19)
N3A N 0.5330(2) -0.1600(2) -0.1876(2)
N3_2 N 1.4670(2) 0.1600(2) 0.1876(2)
N3A_2 N -0.4670(2) -0.1600(2) -0.1876(2)
N4A N 0.4139(3) -0.2726(2) -0.2867(2)
N5A N 0.2979(4) -0.3804(4) -0.3809(4)
O1A O 0.07773(17) -0.01474(16) -0.09618(14)
O1A_2 O 1.07773(17) -0.01474(16) -0.09618(14)
O1_2 O -0.07773(17) 0.01474(16) 0.09618(14)
O2A O 0.28285(18) -0.00588(19) -0.18447(16)
O3A O 0.8097(2) 0.14743(17) -0.16481(18)
O3_2 O 1.1903(2) -0.14743(17) 0.16481(18)
O3A_2 O -0.1903(2) 0.14743(17) -0.16481(18)
O4A O 0.6772(2) 0.19848(17) -0.01004(18)
loop_
_geom_bond_atom_site_label_1
_geom_bond_atom_site_label_2
_geom_bond_site_symmetry_1
_geom_bond_site_symmetry_2
Mn1 N3 1_555 1_555
Mn2 N1 1_555 1_555
C1 H1 1_555 1_555
C2 C1 1_555 1_555
H2 C2 1_555 1_555
C3 C2 1_555 1_555
H3 C3 1_555 1_555
C4 C3 1_555 1_555
H4 C4 1_555 1_555
C5 C4 1_555 1_555
C6 C5 1_555 1_555
C7 H5 1_555 1_555
C8 C7 1_555 1_555
H6 C8 1_555 1_555
C9 C8 1_555 1_555
C10 C9 1_555 1_555
H7 C10 1_555 1_555
C11 C10 1_555 1_555
H8 C11 1_555 1_555
C12 C9 1_555 1_555
N1 C1 1_555 1_555
N2 C7 1_555 1_555
N3 N4 1_555 1_555
N4 N5 1_555 1_555
O1 Mn2 1_555 1_555
O2 Mn1 1_555 1_555
O3 C12 1_555 1_555
O4 Mn1 1_555 1_555
Mn2A N1A 1_555 1_555
Mn2_2 N2 1_555 1_555
Mn2_3 N3 1_555 1_555
Mn2A_2 O1 1_555 1_555
Mn2A_3 N2A 1_555 1_555
C1A H1A 1_555 1_555
C2A C1A 1_555 1_555
H2A C2A 1_555 1_555
C3A C2A 1_555 1_555
H3A C3A 1_555 1_555
C4A C3A 1_555 1_555
H4A C4A 1_555 1_555
C5A C4A 1_555 1_555
C6A C5A 1_555 1_555
C7A H5A 1_555 1_555
C8A C7A 1_555 1_555
H6A C8A 1_555 1_555
C9A C8A 1_555 1_555
C10A C9A 1_555 1_555
H7A C10A 1_555 1_555
C11A C10A 1_555 1_555
H8A C11A 1_555 1_555
C12A C9A 1_555 1_555
N1A C1A 1_555 1_555
N2A C7A 1_555 1_555
N2_2 Mn2 1_555 1_555
N2A_2 Mn2A 1_555 1_555
N3A Mn1 1_555 1_555
N3_2 Mn2 1_555 1_555
N3A_2 Mn2A 1_555 1_555
N4A N3A 1_555 1_555
N5A N4A 1_555 1_555
O1A Mn2A 1_555 1_555
O1A_2 Mn2 1_555 1_555
O1_2 Mn2A 1_555 1_555
O2A Mn1 1_555 1_555
O3A Mn2A_2 1_555 1_555
O3_2 Mn2 1_555 1_555
O3A_2 Mn2A 1_555 1_555
O4A Mn1 1_555 1_555
C5 N1 1_555 1_555
C6 O1 1_555 1_555
C6 O2 1_555 1_555
C11 N2 1_555 1_555
C12 O4 1_555 1_555
O3 Mn2_3 1_555 1_555
Mn2_3 O1A 1_555 1_555
Mn2_3 O1_2 1_555 1_555
Mn2A_2 N3A 1_555 1_555
Mn2A_2 O1A_2 1_555 1_555
C5A N1A 1_555 1_555
C6A O1A 1_555 1_555
C6A O2A 1_555 1_555
C11A N2A 1_555 1_555
C12A O3A 1_555 1_555
C12A O4A 1_555 1_555

#END
