
#######################################################################
#
#                 Cambridge Crystallographic Data Centre
#                                CCDC 
#
#######################################################################
#
# If this CIF has been generated from an entry in the Cambridge 
# Structural Database, then it will include bibliographic, chemical, 
# crystal, experimental, refinement or atomic coordinate data resulting 
# from the CCDC's data processing and validation procedures.
#
#######################################################################

data_CIJDEF
_symmetry_cell_setting           orthorhombic
_symmetry_space_group_name_H-M   'F d d 2'
_symmetry_Int_Tables_number      43
_space_group_name_Hall           'F 2 -2d'
loop_
_symmetry_equiv_pos_site_id
_symmetry_equiv_pos_as_xyz
1 x,y,z
2 -x,-y,z
3 1/4+x,1/4-y,1/4+z
4 1/4-x,1/4+y,1/4+z
5 x,1/2+y,1/2+z
6 -x,1/2-y,1/2+z
7 1/4+x,3/4-y,3/4+z
8 1/4-x,3/4+y,3/4+z
9 1/2+x,y,1/2+z
10 1/2-x,-y,1/2+z
11 3/4+x,1/4-y,3/4+z
12 3/4-x,1/4+y,3/4+z
13 1/2+x,1/2+y,z
14 1/2-x,1/2-y,z
15 3/4+x,3/4-y,1/4+z
16 3/4-x,3/4+y,1/4+z
_cell_length_a                   19.549(3)
_cell_length_b                   27.242(4)
_cell_length_c                   9.6170(13)
_cell_angle_alpha                90
_cell_angle_beta                 90
_cell_angle_gamma                90
_cell_volume                     5121.57
loop_
_atom_site_label
_atom_site_type_symbol
_atom_site_fract_x
_atom_site_fract_y
_atom_site_fract_z
Mn1 Mn 0.05656(3) 0.42461(2) 0.02153(7)
C1 C 0.1287(3) 0.3579(2) 0.2612(7)
H1 H 0.1452 0.3400 0.1859
C2 C 0.1447(4) 0.3426(3) 0.3925(9)
H2 H 0.1716 0.3149 0.4059
C3 C 0.1209(4) 0.3684(3) 0.5033(8)
H3 H 0.1315 0.3583 0.5931
C4 C 0.0808(3) 0.4099(2) 0.4827(5)
H4 H 0.0640 0.4281 0.5572
C5 C 0.0668(3) 0.42315(19) 0.3454(5)
C6 C 0.0276(2) 0.46757(18) 0.3083(4)
C7 C 0.1635(3) 0.51665(17) 0.0209(6)
H5 H 0.1314 0.5325 0.0765
C8 C 0.2209(4) 0.5422(2) -0.0215(7)
H6 H 0.2280 0.5745 0.0064
C9 C 0.2670(4) 0.5188(3) -0.1059(9)
H7 H 0.3057 0.5351 -0.1378
C10 C 0.2555(3) 0.4713(2) -0.1421(7)
H8 H 0.2866 0.4550 -0.1988
C11 C 0.1984(2) 0.44746(18) -0.0955(5)
C12 C 0.1813(3) 0.39491(19) -0.1329(5)
N1 N 0.0904(2) 0.39728(16) 0.2372(4)
N2 N 0.0183(2) 0.47899(13) 0.1752(4)
N3 N 0.0000 0.5000 0.3971(5)
N4 N 0.1526(2) 0.47050(14) -0.0148(3)
N5 N 0.0164(3) 0.45857(16) -0.1691(4)
N6 N 0.0000 0.5000 -0.1666(5)
O1 O -0.02783(17) 0.37637(13) 0.0368(4)
O2 O 0.12799(19) 0.37684(11) -0.0850(4)
Mn1F Mn 0.30656(3) 0.32539(2) -0.22847(7)
Mn1A Mn -0.05656(3) 0.57539(2) 0.02153(7)
Mn1N Mn -0.19344(3) 0.32539(2) 0.27153(7)
C1A C -0.1287(3) 0.6421(2) 0.2612(7)
H1A H -0.1452 0.6600 0.1859
C2A C -0.1447(4) 0.6574(3) 0.3925(9)
H2A H -0.1716 0.6851 0.4059
C3A C -0.1209(4) 0.6316(3) 0.5033(8)
H3A H -0.1315 0.6417 0.5931
C4A C -0.0808(3) 0.5901(2) 0.4827(5)
H4A H -0.0640 0.5719 0.5572
C5A C -0.0668(3) 0.57685(19) 0.3454(5)
C6A C -0.0276(2) 0.53243(18) 0.3083(4)
C7N C -0.0865(3) 0.23335(17) 0.2709(6)
H5N H -0.1186 0.2175 0.3265
C8N C -0.0291(4) 0.2078(2) 0.2285(7)
H6N H -0.0220 0.1755 0.2564
C9N C 0.0170(4) 0.2312(3) 0.1441(9)
H7N H 0.0557 0.2149 0.1122
C10N C 0.0055(3) 0.2787(2) 0.1079(7)
H8N H 0.0366 0.2950 0.0512
C11N C -0.0516(2) 0.30254(18) 0.1545(5)
C12N C -0.0687(3) 0.35509(19) 0.1171(5)
N1A N -0.0904(2) 0.60272(16) 0.2372(4)
N2A N -0.0183(2) 0.52101(13) 0.1752(4)
N4A N -0.1526(2) 0.52950(14) -0.0148(3)
N4N N -0.0974(2) 0.27950(14) 0.2352(3)
N5A N -0.0164(3) 0.54143(16) -0.1691(4)
O1F O 0.22217(17) 0.37363(13) -0.2132(4)
O1A O 0.02783(17) 0.62363(13) 0.0368(4)
O2A O -0.12799(19) 0.62316(11) -0.0850(4)
O2N O -0.12201(19) 0.37316(11) 0.1650(4)
loop_
_geom_bond_atom_site_label_1
_geom_bond_atom_site_label_2
_geom_bond_site_symmetry_1
_geom_bond_site_symmetry_2
Mn1 N1 1_555 1_555
C1 H1 1_555 1_555
C2 C1 1_555 1_555
H2 C2 1_555 1_555
C3 C2 1_555 1_555
H3 C3 1_555 1_555
C4 C3 1_555 1_555
H4 C4 1_555 1_555
C5 C4 1_555 1_555
C6 C5 1_555 1_555
C7 H5 1_555 1_555
C8 C7 1_555 1_555
H6 C8 1_555 1_555
C9 C8 1_555 1_555
H7 C9 1_555 1_555
C10 C9 1_555 1_555
H8 C10 1_555 1_555
C11 C10 1_555 1_555
C12 C11 1_555 1_555
N1 C1 1_555 1_555
N2 Mn1 1_555 1_555
N3 C6 1_555 1_555
N4 Mn1 1_555 1_555
N5 Mn1 1_555 1_555
N6 N5 1_555 1_555
O1 Mn1 1_555 1_555
O2 Mn1 1_555 1_555
Mn1F O1F 1_555 1_555
Mn1A N1A 1_555 1_555
Mn1N N4N 1_555 1_555
C1A H1A 1_555 1_555
C2A C1A 1_555 1_555
H2A C2A 1_555 1_555
C3A C2A 1_555 1_555
H3A C3A 1_555 1_555
C4A C3A 1_555 1_555
H4A C4A 1_555 1_555
C5A C4A 1_555 1_555
C6A N3 1_555 1_555
C7N H5N 1_555 1_555
C8N C7N 1_555 1_555
H6N C8N 1_555 1_555
C9N C8N 1_555 1_555
H7N C9N 1_555 1_555
C10N C9N 1_555 1_555
H8N C10N 1_555 1_555
C11N C10N 1_555 1_555
C12N O1 1_555 1_555
N1A C1A 1_555 1_555
N2A N2 1_555 1_555
N4A Mn1A 1_555 1_555
N4N C7N 1_555 1_555
N5A N6 1_555 1_555
O1F C12 1_555 1_555
O1A Mn1A 1_555 1_555
O2A Mn1A 1_555 1_555
O2N Mn1N 1_555 1_555
C5 N1 1_555 1_555
C6 N2 1_555 1_555
C7 N4 1_555 1_555
C11 N4 1_555 1_555
C12 O2 1_555 1_555
Mn1A N2A 1_555 1_555
Mn1A N5A 1_555 1_555
C5A C6A 1_555 1_555
C5A N1A 1_555 1_555
C6A N2A 1_555 1_555
C11N C12N 1_555 1_555
C11N N4N 1_555 1_555
C12N O2N 1_555 1_555

#END
