
#######################################################################
#
#                 Cambridge Crystallographic Data Centre
#                                CCDC 
#
#######################################################################
#
# If this CIF has been generated from an entry in the Cambridge 
# Structural Database, then it will include bibliographic, chemical, 
# crystal, experimental, refinement or atomic coordinate data resulting 
# from the CCDC's data processing and validation procedures.
#
#######################################################################

data_CIJGIN02
_symmetry_cell_setting           orthorhombic
_symmetry_space_group_name_H-M   'P b c n'
_symmetry_Int_Tables_number      60
_space_group_name_Hall           '-P 2n 2ab'
loop_
_symmetry_equiv_pos_site_id
_symmetry_equiv_pos_as_xyz
1 x,y,z
2 1/2-x,1/2-y,1/2+z
3 1/2+x,1/2-y,-z
4 -x,y,1/2-z
5 -x,-y,-z
6 1/2+x,1/2+y,1/2-z
7 1/2-x,1/2+y,z
8 x,-y,1/2+z
_cell_length_a                   19.365(4)
_cell_length_b                   10.160(2)
_cell_length_c                   16.064(3)
_cell_angle_alpha                90
_cell_angle_beta                 90
_cell_angle_gamma                90
_cell_volume                     3160.57
loop_
_atom_site_label
_atom_site_type_symbol
_atom_site_fract_x
_atom_site_fract_y
_atom_site_fract_z
Fe1 Fe 0.0000 0.5000 0.0000
N1 N 0.14735(13) 0.5236(2) 0.18594(16)
N2 N 0.12384(14) 0.6433(3) 0.30952(17)
N3 N 0.09997(14) 0.5721(3) 0.13328(17)
N4 N 0.10741(15) 0.5580(3) 0.36927(18)
N5 N 0.08012(13) 0.4744(2) 0.08603(17)
N6 N 0.05496(14) 0.6082(3) 0.40996(17)
C1 C 0.17681(17) 0.6101(3) 0.2485(2)
H1 H 0.1943 0.6913 0.2218
H2 H 0.2160 0.5657 0.2764
C2 C 0.11484(18) 0.3640(3) 0.1087(2)
H3 H 0.1099 0.2795 0.0841
C3 C 0.03889(19) 0.7282(3) 0.3754(2)
H4 H 0.0034 0.7858 0.3937
C4 C 0.15804(19) 0.3953(3) 0.1729(2)
H5 H 0.1888 0.3386 0.2018
C5 C 0.08250(19) 0.7502(3) 0.3106(2)
H6 H 0.0836 0.8241 0.2744
N7 N -0.04177(15) 0.3227(3) 0.04510(17)
C6 C -0.05938(19) 0.2296(4) 0.0779(2)
C7 C -0.0812(2) 0.1091(4) 0.1194(3)
H7 H -0.0987 0.0467 0.0780
H8 H -0.1178 0.1296 0.1595
H9 H -0.0418 0.0702 0.1487
N1C N -0.14735(13) 0.5236(2) 0.31406(16)
N2C N -0.12384(14) 0.6433(3) 0.19048(17)
N3C N -0.09997(14) 0.5721(3) 0.36672(17)
N4C N -0.10741(15) 0.5580(3) 0.13073(18)
N5C N -0.08012(13) 0.4744(2) 0.41397(17)
N6C N -0.05496(14) 0.6082(3) 0.09004(17)
C1C C -0.17681(17) 0.6101(3) 0.2515(2)
H1C H -0.1943 0.6913 0.2782
H2C H -0.2160 0.5657 0.2236
C2C C -0.11484(18) 0.3640(3) 0.3913(2)
H3C H -0.1099 0.2795 0.4159
C3C C -0.03889(19) 0.7282(3) 0.1246(2)
H4C H -0.0034 0.7858 0.1063
C4C C -0.15804(19) 0.3953(3) 0.3271(2)
H5C H -0.1888 0.3386 0.2982
C5C C -0.08250(19) 0.7502(3) 0.1894(2)
H6C H -0.0836 0.8241 0.2256
N7D N 0.04177(15) 0.6773(3) -0.04510(17)
C6D C 0.05938(19) 0.7704(4) -0.0779(2)
C7D C 0.0812(2) 0.8909(4) -0.1194(3)
H7D H 0.0987 0.9533 -0.0780
H8D H 0.1178 0.8704 -0.1595
H9D H 0.0418 0.9298 -0.1487
Fe1C Fe 0.0000 0.5000 0.5000
N5D N -0.08012(13) 0.5256(2) -0.08603(17)
N6G N 0.05496(14) 0.3918(3) -0.09004(17)
N8 N 0.2407(8) 0.3044(16) 0.3485(10)
C8 C 0.2370(13) 0.3204(19) 0.4209(15)
C9 C 0.2261(7) 0.3693(16) 0.5013(9)
H10 H 0.2357 0.3000 0.5421
H11 H 0.1780 0.3981 0.5068
H12 H 0.2569 0.4442 0.5112
B1 B 0.3663(2) 0.5006(5) 0.6355(3)
F1 F 0.42596(13) 0.5128(3) 0.68129(17)
F2 F 0.32364(13) 0.4103(2) 0.67288(16)
F3 F 0.38261(16) 0.4562(3) 0.55740(14)
F4 F 0.33395(16) 0.6195(2) 0.6344(2)
N9? N 0.2595(9) 0.3559(18) 0.3492(14)
C10? C 0.2443(17) 0.351(3) 0.409(2)
C11? C 0.2276(10) 0.304(2) 0.5010(12)
H13? H 0.2292 0.3794 0.5388
H14? H 0.2618 0.2382 0.5185
H15? H 0.1813 0.2645 0.5026
loop_
_geom_bond_atom_site_label_1
_geom_bond_atom_site_label_2
_geom_bond_site_symmetry_1
_geom_bond_site_symmetry_2
Fe1 N5 1_555 1_555
N1 N3 1_555 1_555
N2 N4 1_555 1_555
N3 N5 1_555 1_555
N4 N6 1_555 1_555
N5 C2 1_555 1_555
N6 C3 1_555 1_555
C1 N1 1_555 1_555
H1 C1 1_555 1_555
H2 C1 1_555 1_555
C2 H3 1_555 1_555
C3 H4 1_555 1_555
C4 N1 1_555 1_555
H5 C4 1_555 1_555
C5 N2 1_555 1_555
H6 C5 1_555 1_555
N7 Fe1 1_555 1_555
C6 N7 1_555 1_555
C7 C6 1_555 1_555
H7 C7 1_555 1_555
H8 C7 1_555 1_555
H9 C7 1_555 1_555
N8 C8 1_555 1_555
C8 C9 1_555 1_555
C9 H10 1_555 1_555
H11 C9 1_555 1_555
H12 C9 1_555 1_555
B1 F1 1_555 1_555
F2 B1 1_555 1_555
F3 B1 1_555 1_555
F4 B1 1_555 1_555
N1C N3C 1_555 1_555
N2C N4C 1_555 1_555
N3C N5C 1_555 1_555
N4C N6C 1_555 1_555
N5C C2C 1_555 1_555
N6C Fe1 1_555 1_555
C1C N1C 1_555 1_555
H1C C1C 1_555 1_555
H2C C1C 1_555 1_555
C2C H3C 1_555 1_555
C3C N6C 1_555 1_555
H4C C3C 1_555 1_555
C4C N1C 1_555 1_555
H5C C4C 1_555 1_555
C5C N2C 1_555 1_555
H6C C5C 1_555 1_555
N7D Fe1 1_555 1_555
C6D N7D 1_555 1_555
C7D C6D 1_555 1_555
H7D C7D 1_555 1_555
H8D C7D 1_555 1_555
H9D C7D 1_555 1_555
Fe1C N6 1_555 1_555
N5D Fe1 1_555 1_555
N6G Fe1 1_555 1_555
N2 C1 1_555 1_555
C2 C4 1_555 1_555
C3 C5 1_555 1_555
N2C C1C 1_555 1_555
N5C Fe1C 1_555 1_555
C2C C4C 1_555 1_555
C3C C5C 1_555 1_555

#END
