
#######################################################################
#
#                 Cambridge Crystallographic Data Centre
#                                CCDC 
#
#######################################################################
#
# If this CIF has been generated from an entry in the Cambridge 
# Structural Database, then it will include bibliographic, chemical, 
# crystal, experimental, refinement or atomic coordinate data resulting 
# from the CCDC's data processing and validation procedures.
#
#######################################################################

data_CIJHIO01
_symmetry_cell_setting           orthorhombic
_symmetry_space_group_name_H-M   'P b c n'
_symmetry_Int_Tables_number      60
_space_group_name_Hall           '-P 2n 2ab'
loop_
_symmetry_equiv_pos_site_id
_symmetry_equiv_pos_as_xyz
1 x,y,z
2 1/2-x,1/2-y,1/2+z
3 1/2+x,1/2-y,-z
4 -x,y,1/2-z
5 -x,-y,-z
6 1/2+x,1/2+y,1/2-z
7 1/2-x,1/2+y,z
8 x,-y,1/2+z
_cell_length_a                   19.402(4)
_cell_length_b                   10.257(2)
_cell_length_c                   15.580(3)
_cell_angle_alpha                90
_cell_angle_beta                 90
_cell_angle_gamma                90
_cell_volume                     3100.52
loop_
_atom_site_label
_atom_site_type_symbol
_atom_site_fract_x
_atom_site_fract_y
_atom_site_fract_z
Fe1 Fe 0.0000 0.5000 0.0000
N1 N 0.14613(12) 0.5348(2) 0.18254(15)
N2 N 0.12204(12) 0.6472(2) 0.31238(14)
N3 N 0.09654(12) 0.5814(2) 0.13138(15)
N4 N 0.10430(12) 0.5560(2) 0.37000(14)
N5 N 0.07727(12) 0.4840(2) 0.08157(14)
N6 N 0.05167(12) 0.6045(2) 0.41341(15)
C1 C 0.17437(15) 0.6188(3) 0.24898(18)
H1 H 0.2140 0.5751 0.2769
H2 H 0.1910 0.7011 0.2230
C2 C 0.11526(16) 0.3754(3) 0.10159(19)
H3 H 0.1117 0.2924 0.0748
C3 C 0.03701(16) 0.7265(3) 0.38310(19)
H4 H 0.0022 0.7831 0.4042
C4 C 0.15891(17) 0.4074(3) 0.16659(19)
H5 H 0.1913 0.3524 0.1946
C5 C 0.08082(15) 0.7523(3) 0.31789(19)
H6 H 0.0822 0.8285 0.2833
N7 N -0.03769(12) 0.3404(2) 0.04786(15)
C6 C -0.05732(16) 0.2483(3) 0.08028(19)
C7 C -0.0828(2) 0.1310(3) 0.1227(2)
H7 H -0.1002 0.0699 0.0795
H8 H -0.1201 0.1544 0.1622
H9 H -0.0452 0.0900 0.1549
N1C N -0.14613(12) 0.5348(2) 0.31746(15)
N2C N -0.12204(12) 0.6472(2) 0.18762(14)
N3C N -0.09654(12) 0.5814(2) 0.36862(15)
N4C N -0.10430(12) 0.5560(2) 0.13000(14)
N5C N -0.07727(12) 0.4840(2) 0.41843(14)
N6C N -0.05167(12) 0.6045(2) 0.08659(15)
C1C C -0.17437(15) 0.6188(3) 0.25102(18)
H1C H -0.2140 0.5751 0.2231
H2C H -0.1910 0.7011 0.2770
C2C C -0.11526(16) 0.3754(3) 0.39841(19)
H3C H -0.1117 0.2924 0.4252
C3C C -0.03701(16) 0.7265(3) 0.11690(19)
H4C H -0.0022 0.7831 0.0958
C4C C -0.15891(17) 0.4074(3) 0.33341(19)
H5C H -0.1913 0.3524 0.3054
C5C C -0.08082(15) 0.7523(3) 0.18211(19)
H6C H -0.0822 0.8285 0.2167
N7D N 0.03769(12) 0.6596(2) -0.04786(15)
C6D C 0.05732(16) 0.7517(3) -0.08028(19)
C7D C 0.0828(2) 0.8690(3) -0.1227(2)
H7D H 0.1002 0.9301 -0.0795
H8D H 0.1201 0.8456 -0.1622
H9D H 0.0452 0.9100 -0.1549
Fe1C Fe 0.0000 0.5000 0.5000
N5D N -0.07727(12) 0.5160(2) -0.08157(14)
N6G N 0.05167(12) 0.3955(2) -0.08659(15)
Cl1 Cl 0.12944(4) 0.00822(7) 0.13099(5)
O1 O 0.06876(13) -0.0107(2) 0.18190(17)
O2 O 0.17435(12) 0.0972(2) 0.17372(14)
O3 O 0.11023(15) 0.0621(2) 0.04916(15)
O4 O 0.16349(16) -0.1136(2) 0.11945(19)
N9 N 0.2642(8) 0.3723(16) 0.3413(8)
C10 C 0.2491(12) 0.361(2) 0.4090(8)
C11 C 0.2289(9) 0.323(2) 0.4972(9)
H13 H 0.2653 0.3487 0.5375
H14 H 0.2224 0.2283 0.4998
H15 H 0.1858 0.3667 0.5128
N8? N 0.2469(10) 0.3300(19) 0.3402(9)
C8? C 0.2379(15) 0.337(3) 0.4098(10)
C9? C 0.2235(9) 0.3704(17) 0.5004(9)
H10? H 0.2670 0.3818 0.5314
H11? H 0.1969 0.3000 0.5271
H12? H 0.1969 0.4516 0.5029
loop_
_geom_bond_atom_site_label_1
_geom_bond_atom_site_label_2
_geom_bond_site_symmetry_1
_geom_bond_site_symmetry_2
Fe1 N5 1_555 1_555
N1 N3 1_555 1_555
N2 N4 1_555 1_555
N3 N5 1_555 1_555
N4 N6 1_555 1_555
N5 C2 1_555 1_555
N6 C3 1_555 1_555
C1 N1 1_555 1_555
H1 C1 1_555 1_555
H2 C1 1_555 1_555
C2 H3 1_555 1_555
C3 H4 1_555 1_555
C4 N1 1_555 1_555
H5 C4 1_555 1_555
C5 N2 1_555 1_555
H6 C5 1_555 1_555
N7 Fe1 1_555 1_555
C6 N7 1_555 1_555
C7 C6 1_555 1_555
H7 C7 1_555 1_555
H8 C7 1_555 1_555
H9 C7 1_555 1_555
Cl1 O1 1_555 1_555
O2 Cl1 1_555 1_555
O3 Cl1 1_555 1_555
O4 Cl1 1_555 1_555
N9 C10 1_555 1_555
C10 C11 1_555 1_555
C11 H13 1_555 1_555
H14 C11 1_555 1_555
H15 C11 1_555 1_555
N1C N3C 1_555 1_555
N2C N4C 1_555 1_555
N3C N5C 1_555 1_555
N4C N6C 1_555 1_555
N5C C2C 1_555 1_555
N6C Fe1 1_555 1_555
C1C N1C 1_555 1_555
H1C C1C 1_555 1_555
H2C C1C 1_555 1_555
C2C H3C 1_555 1_555
C3C N6C 1_555 1_555
H4C C3C 1_555 1_555
C4C N1C 1_555 1_555
H5C C4C 1_555 1_555
C5C N2C 1_555 1_555
H6C C5C 1_555 1_555
N7D Fe1 1_555 1_555
C6D N7D 1_555 1_555
C7D C6D 1_555 1_555
H7D C7D 1_555 1_555
H8D C7D 1_555 1_555
H9D C7D 1_555 1_555
Fe1C N6 1_555 1_555
N5D Fe1 1_555 1_555
N6G Fe1 1_555 1_555
N2 C1 1_555 1_555
C2 C4 1_555 1_555
C3 C5 1_555 1_555
N2C C1C 1_555 1_555
N5C Fe1C 1_555 1_555
C2C C4C 1_555 1_555
C3C C5C 1_555 1_555

#END
