
#######################################################################
#
#                 Cambridge Crystallographic Data Centre
#                                CCDC 
#
#######################################################################
#
# If this CIF has been generated from an entry in the Cambridge 
# Structural Database, then it will include bibliographic, chemical, 
# crystal, experimental, refinement or atomic coordinate data resulting 
# from the CCDC's data processing and validation procedures.
#
#######################################################################

data_CIJNIS
_symmetry_cell_setting           triclinic
_symmetry_space_group_name_H-M   'P -1'
_symmetry_Int_Tables_number      2
_space_group_name_Hall           '-P 1'
loop_
_symmetry_equiv_pos_site_id
_symmetry_equiv_pos_as_xyz
1 x,y,z
2 -x,-y,-z
_cell_length_a                   7.874(2)
_cell_length_b                   8.702(3)
_cell_length_c                   13.278(6)
_cell_angle_alpha                97.32(4)
_cell_angle_beta                 104.06(3)
_cell_angle_gamma                97.83(3)
_cell_volume                     862.037
loop_
_atom_site_label
_atom_site_type_symbol
_atom_site_fract_x
_atom_site_fract_y
_atom_site_fract_z
O8 O -0.53120 -0.28460 0.16290
H15 H -0.53300 -0.25000 0.20100
H16 H -0.44800 -0.28700 0.13900
O9 O -0.20420 -0.32650 0.11750
H17 H -0.18000 -0.22000 0.14800
H18 H -0.23200 -0.37600 0.19600
O10 O -0.06820 -0.07360 -0.69210
H19 H -0.07400 -0.10400 -0.62700
H20 H -0.15900 -0.09400 -0.72200
Cu1 Cu -0.58450 0.15990 0.37050
Cu2 Cu -1.00000 0.00000 0.00000
O1 O -0.74530 0.10020 0.22820
O2 O -0.81700 0.18120 0.07300
O3 O -0.42550 0.22570 0.50810
O4 O -0.73730 0.01490 0.42820
O5 O -0.42070 -0.05900 0.34060
O6 O -1.13920 0.03350 0.10080
O7 O -1.22830 0.20590 0.00240
N1 N -0.48840 0.33660 0.31520
C1 C -0.72350 0.19470 0.16620
C2 C -0.56990 0.33360 0.20270
C3 C -0.43590 0.31320 0.13650
C4 C -0.36750 0.16040 0.14090
C5 C -1.23570 0.13480 0.07630
C6 C -0.37690 0.45890 0.36920
C7 C -0.28740 0.47730 0.47940
C8 C -0.16570 0.61820 0.52390
C9 C -0.07040 0.64590 0.62880
C10 C -0.09320 0.53220 0.69000
C11 C -0.21200 0.39270 0.64960
C12 C -0.31220 0.36210 0.54320
H1 H -0.61700 0.43100 0.19400
H2 H -0.33900 0.40200 0.16100
H3 H -0.49500 0.33000 0.06900
H4 H -0.46400 0.08000 0.11100
H5 H -0.31100 0.15300 0.21600
H6 H -0.35100 0.55200 0.33600
H7 H -0.15700 0.69100 0.47500
H8 H 0.01100 0.75100 0.65200
H9 H -0.03200 0.55000 0.75500
H10 H -0.22900 0.31600 0.68900
H11 H -0.83600 -0.01900 0.39100
H12 H -0.70000 -0.05500 0.44000
H13 H -0.40800 -0.09400 0.38800
H14 H -0.43200 -0.11900 0.29800
O2A O -1.18300 -0.18120 -0.07300
O6A O -0.86080 -0.03350 -0.10080
C5_2 C -0.23570 0.13480 0.07630
C4_2 C -1.36750 0.16040 0.14090
C1A C -1.27650 -0.19470 -0.16620
C5A C -0.76430 -0.13480 -0.07630
O1A O -1.25470 -0.10020 -0.22820
C2A C -1.43010 -0.33360 -0.20270
O7A O -0.77170 -0.20590 -0.00240
C4A C -0.63250 -0.16040 -0.14090
Cu1A Cu -1.41550 -0.15990 -0.37050
N1A N -1.51160 -0.33660 -0.31520
C3A C -1.56410 -0.31320 -0.13650
H1A H -1.38300 -0.43100 -0.19400
C3A_2 C -0.56410 -0.31320 -0.13650
H4A H -0.53600 -0.08000 -0.11100
H5A H -0.68900 -0.15300 -0.21600
O3A O -1.57450 -0.22570 -0.50810
O4A O -1.26270 -0.01490 -0.42820
O5A O -1.57930 0.05900 -0.34060
C6A C -1.62310 -0.45890 -0.36920
C4A_2 C -1.63250 -0.16040 -0.14090
H2A H -1.66100 -0.40200 -0.16100
H3A H -1.50500 -0.33000 -0.06900
C12A C -1.68780 -0.36210 -0.54320
H11A H -1.16400 0.01900 -0.39100
H12A H -1.30000 0.05500 -0.44000
H13A H -1.59200 0.09400 -0.38800
H14A H -1.56800 0.11900 -0.29800
C7A C -1.71260 -0.47730 -0.47940
H6A H -1.64900 -0.55200 -0.33600
C11A C -1.78800 -0.39270 -0.64960
C8A C -1.83430 -0.61820 -0.52390
C10A C -1.90680 -0.53220 -0.69000
H10A H -1.77100 -0.31600 -0.68900
C9A C -1.92960 -0.64590 -0.62880
H7A H -1.84300 -0.69100 -0.47500
H9A H -1.96800 -0.55000 -0.75500
H8A H -2.01100 -0.75100 -0.65200
loop_
_geom_bond_atom_site_label_1
_geom_bond_atom_site_label_2
_geom_bond_site_symmetry_1
_geom_bond_site_symmetry_2
Cu1 O1 1_555 1_555
Cu2 O2 1_555 1_555
O1 C1 1_555 1_555
O2 C1 1_555 1_555
O3 Cu1 1_555 1_555
O4 Cu1 1_555 1_555
O5 Cu1 1_555 1_555
O6 Cu2 1_555 1_555
O7 C5 1_555 1_555
O8 H15 1_555 1_555
O9 H17 1_555 1_555
O10 H19 1_555 1_555
N1 Cu1 1_555 1_555
C1 C2 1_555 1_555
C2 N1 1_555 1_555
C3 C2 1_555 1_555
C4 C3 1_555 1_555
C5 O6 1_555 1_555
C6 N1 1_555 1_555
C7 C6 1_555 1_555
C8 C7 1_555 1_555
C9 C8 1_555 1_555
C10 C9 1_555 1_555
C11 C10 1_555 1_555
C12 O3 1_555 1_555
H1 C2 1_555 1_555
H2 C3 1_555 1_555
H3 C3 1_555 1_555
H4 C4 1_555 1_555
H5 C4 1_555 1_555
H6 C6 1_555 1_555
H7 C8 1_555 1_555
H8 C9 1_555 1_555
H9 C10 1_555 1_555
H10 C11 1_555 1_555
H11 O4 1_555 1_555
H12 O4 1_555 1_555
H13 O5 1_555 1_555
H14 O5 1_555 1_555
H16 O8 1_555 1_555
H18 O9 1_555 1_555
H20 O10 1_555 1_555
O2A Cu2 1_555 1_555
O6A Cu2 1_555 1_555
C5_2 C4 1_555 1_555
C4_2 C5 1_555 1_555
C1A O2A 1_555 1_555
C5A O6A 1_555 1_555
O1A C1A 1_555 1_555
C2A C1A 1_555 1_555
O7A C5A 1_555 1_555
C4A C5A 1_555 1_555
Cu1A O1A 1_555 1_555
N1A C2A 1_555 1_555
C3A C2A 1_555 1_555
H1A C2A 1_555 1_555
C3A_2 C4A 1_555 1_555
H4A C4A 1_555 1_555
H5A C4A 1_555 1_555
O3A Cu1A 1_555 1_555
O4A Cu1A 1_555 1_555
O5A Cu1A 1_555 1_555
C6A N1A 1_555 1_555
C4A_2 C3A 1_555 1_555
H2A C3A 1_555 1_555
H3A C3A 1_555 1_555
C12A O3A 1_555 1_555
H11A O4A 1_555 1_555
H12A O4A 1_555 1_555
H13A O5A 1_555 1_555
H14A O5A 1_555 1_555
C7A C6A 1_555 1_555
H6A C6A 1_555 1_555
C11A C12A 1_555 1_555
C8A C7A 1_555 1_555
C10A C11A 1_555 1_555
H10A C11A 1_555 1_555
C9A C8A 1_555 1_555
H7A C8A 1_555 1_555
H9A C10A 1_555 1_555
H8A C9A 1_555 1_555
C7 C12 1_555 1_555
C11 C12 1_555 1_555
Cu1A N1A 1_555 1_555
C12A C7A 1_555 1_555
C10A C9A 1_555 1_555

#END
