
#######################################################################
#
#                 Cambridge Crystallographic Data Centre
#                                CCDC 
#
#######################################################################
#
# If this CIF has been generated from an entry in the Cambridge 
# Structural Database, then it will include bibliographic, chemical, 
# crystal, experimental, refinement or atomic coordinate data resulting 
# from the CCDC's data processing and validation procedures.
#
#######################################################################

data_CIJNIT
_symmetry_cell_setting           tetragonal
_symmetry_space_group_name_H-M   'P 43 21 2'
_symmetry_Int_Tables_number      96
_space_group_name_Hall           'P 4nw 2abw'
loop_
_symmetry_equiv_pos_site_id
_symmetry_equiv_pos_as_xyz
1 x,y,z
2 -x,-y,1/2+z
3 1/2-y,1/2+x,3/4+z
4 1/2+y,1/2-x,1/4+z
5 1/2-x,1/2+y,3/4-z
6 1/2+x,1/2-y,1/4-z
7 y,x,-z
8 -y,-x,1/2-z
_cell_length_a                   8.8753(12)
_cell_length_b                   8.8753(12)
_cell_length_c                   43.903(12)
_cell_angle_alpha                90
_cell_angle_beta                 90
_cell_angle_gamma                90
_cell_volume                     3458.28
loop_
_atom_site_label
_atom_site_type_symbol
_atom_site_fract_x
_atom_site_fract_y
_atom_site_fract_z
Co1 Co 0.35042(4) -0.47187(4) 0.054090(8)
O1 O -0.43433(19) -0.4522(2) 0.06558(4)
O2 O -0.4614(2) -0.2077(2) 0.07182(5)
O3 O 0.0599(2) -0.5089(2) 0.05992(4)
O4 O 0.23254(19) -0.4187(2) 0.09112(4)
O5 O -0.0896(3) -0.0695(3) 0.05371(5)
N1 N 0.3117(2) -0.3433(2) 0.01735(5)
N2 N 0.3489(3) -0.1777(3) -0.01969(5)
H1 H 0.3927 -0.1184 -0.0324
N3 N 0.3513(2) -0.6996(2) 0.04997(5)
N4 N 0.4246(3) -0.9324(3) 0.05635(6)
H2 H 0.4811 -1.0078 0.0609
N5 N -0.1773(3) -0.1773(3) 0.09662(5)
H3 H -0.1911 -0.1673 0.1159
C1 C 0.1770(3) -0.3014(3) 0.00554(6)
H4 H 0.0841 -0.3374 0.0121
C2 C 0.1956(3) -0.2022(3) -0.01665(6)
H5 H 0.1197 -0.1573 -0.0281
C3 C 0.4150(3) -0.2659(3) 0.00132(6)
H6 H 0.5185 -0.2725 0.0044
C4 C 0.2388(4) -0.7962(4) 0.04214(10)
H7 H 0.1441 -0.7670 0.0352
C5 C 0.2835(4) -0.9395(3) 0.04579(9)
H8 H 0.2278 -1.0260 0.0418
C6 C 0.4618(3) -0.7875(3) 0.05853(7)
H9 H 0.5549 -0.7531 0.0653
C7 C -0.3852(3) -0.3227(3) 0.07276(6)
C8 C -0.2195(3) -0.3185(3) 0.08242(6)
H10 H -0.1591 -0.3281 0.0638
C9 C -0.1785(3) -0.4517(3) 0.10287(6)
H11 H -0.2047 -0.5444 0.0924
H12 H -0.2386 -0.4464 0.1213
C10 C -0.0119(3) -0.4574(4) 0.11168(6)
H13 H 0.0108 -0.3698 0.1241
H14 H 0.0045 -0.5459 0.1242
C11 C 0.0974(3) -0.4620(3) 0.08555(6)
C12 C -0.1184(3) -0.0623(3) 0.08123(7)
C13 C -0.0862(5) 0.0782(4) 0.09922(8)
H15 H 0.0109 0.1170 0.0936
H16 H -0.0868 0.0549 0.1206
H17 H -0.1620 0.1524 0.0950
Co1_2 Co -0.64958(4) -0.47187(4) 0.054090(8)
O1_2 O 0.56567(19) -0.4522(2) 0.06558(4)
O6 O 0.7894(3) -0.2106(3) 0.0000
H18 H 0.8100 -0.1715 0.0159
H18F H 0.8285 -0.1900 -0.0159
loop_
_geom_bond_atom_site_label_1
_geom_bond_atom_site_label_2
_geom_bond_site_symmetry_1
_geom_bond_site_symmetry_2
Co1 O4 1_555 1_555
O1 C7 1_555 1_555
O2 C7 1_555 1_555
O3 C11 1_555 1_555
O4 C11 1_555 1_555
O5 C12 1_555 1_555
O6 H18 1_555 1_555
N1 Co1 1_555 1_555
N2 H1 1_555 1_555
N3 Co1 1_555 1_555
N4 H2 1_555 1_555
N5 H3 1_555 1_555
C1 N1 1_555 1_555
H4 C1 1_555 1_555
C2 N2 1_555 1_555
H5 C2 1_555 1_555
C3 N1 1_555 1_555
H6 C3 1_555 1_555
C4 N3 1_555 1_555
H7 C4 1_555 1_555
C5 N4 1_555 1_555
H8 C5 1_555 1_555
C6 N3 1_555 1_555
H9 C6 1_555 1_555
C7 C8 1_555 1_555
C8 N5 1_555 1_555
H10 C8 1_555 1_555
C9 C8 1_555 1_555
H11 C9 1_555 1_555
H12 C9 1_555 1_555
C10 C9 1_555 1_555
H13 C10 1_555 1_555
H14 C10 1_555 1_555
C11 C10 1_555 1_555
C12 N5 1_555 1_555
C13 C12 1_555 1_555
H15 C13 1_555 1_555
H16 C13 1_555 1_555
H17 C13 1_555 1_555
Co1_2 O1 1_555 1_555
O1_2 Co1 1_555 1_555
H18F O6 1_555 1_555
N2 C3 1_555 1_555
N4 C6 1_555 1_555
C1 C2 1_555 1_555
C4 C5 1_555 1_555

#END
