
#######################################################################
#
#                 Cambridge Crystallographic Data Centre
#                                CCDC 
#
#######################################################################
#
# If this CIF has been generated from an entry in the Cambridge 
# Structural Database, then it will include bibliographic, chemical, 
# crystal, experimental, refinement or atomic coordinate data resulting 
# from the CCDC's data processing and validation procedures.
#
#######################################################################

data_CIJPUI
_symmetry_cell_setting           triclinic
_symmetry_space_group_name_H-M   'P -1'
_symmetry_Int_Tables_number      2
_space_group_name_Hall           '-P 1'
loop_
_symmetry_equiv_pos_site_id
_symmetry_equiv_pos_as_xyz
1 x,y,z
2 -x,-y,-z
_cell_length_a                   8.408(4)
_cell_length_b                   16.105(8)
_cell_length_c                   17.484(9)
_cell_angle_alpha                72.580(11)
_cell_angle_beta                 82.971(10)
_cell_angle_gamma                88.289(9)
_cell_volume                     2241.9
loop_
_atom_site_label
_atom_site_type_symbol
_atom_site_fract_x
_atom_site_fract_y
_atom_site_fract_z
C1 C 0.6601(4) -0.0196(2) 0.70083(19)
C2 C 0.7707(5) -0.0231(3) 0.6350(2)
C3 C 0.8008(6) -0.0999(3) 0.6172(3)
H1 H 0.8740 -0.1018 0.5734
C4 C 0.7216(6) -0.1736(3) 0.6649(3)
C5 C 0.6179(5) -0.1734(3) 0.7311(3)
H2 H 0.5694 -0.2250 0.7641
C6 C 0.5851(5) -0.0962(3) 0.7493(2)
H3 H 0.5128 -0.0956 0.7939
C7 C 0.5202(4) 0.0646(2) 0.7784(2)
H4 H 0.4270 0.0288 0.7825
H5 H 0.4846 0.1241 0.7703
C8 C 0.5946(3) 0.0342(2) 0.85591(18)
C9 C 0.7404(5) 0.3419(3) 0.7220(2)
C10 C 0.6761(7) 0.4176(3) 0.6725(3)
C11 C 0.6151(6) 0.4184(3) 0.6017(3)
H6 H 0.5714 0.4689 0.5701
C12 C 0.6206(6) 0.3452(3) 0.5798(3)
C13 C 0.6820(6) 0.2694(3) 0.6271(3)
H7 H 0.6844 0.2191 0.6112
C14 C 0.7396(6) 0.2682(3) 0.6976(3)
H8 H 0.7790 0.2165 0.7295
C15 C 0.8547(5) 0.2709(3) 0.8431(3)
H9 H 0.9207 0.2873 0.8781
H10 H 0.9222 0.2401 0.8117
C16 C 0.7230(4) 0.2095(2) 0.8952(2)
C17 C 0.8012(4) 0.2421(3) 1.1669(2)
C18 C 0.7704(5) 0.2918(3) 1.2202(3)
C19 C 0.6779(5) 0.3663(3) 1.2007(3)
H11 H 0.6578 0.3992 1.2363
C20 C 0.6170(6) 0.3906(3) 1.1290(4)
C21 C 0.6456(7) 0.3438(4) 1.0741(4)
H12 H 0.6042 0.3619 1.0249
C22 C 0.7379(6) 0.2690(3) 1.0944(3)
H13 H 0.7572 0.2364 1.0584
C23 C 0.9870(4) 0.1387(3) 1.1337(3)
H14 H 1.0784 0.1085 1.1580
H15 H 1.0276 0.1887 1.0896
C24 C 0.9031(4) 0.0786(2) 1.09947(18)
Cl1 Cl 0.86416(13) 0.07241(8) 0.57423(6)
Cl2 Cl 0.7526(2) -0.27014(11) 0.63853(14)
Cl3 Cl 0.6744(3) 0.51213(9) 0.69923(11)
Cl4 Cl 0.5450(2) 0.34589(11) 0.49010(9)
Cl5 Cl 0.8477(2) 0.26199(12) 1.31099(11)
Cl6 Cl 0.5025(2) 0.48557(11) 1.10507(13)
O1 O 0.7403(2) 0.01592(17) 0.85570(13)
O2 O 0.5065(2) 0.02933(15) 0.92162(12)
O3 O 0.6300(3) 0.06032(15) 0.71042(13)
O4 O 0.5820(3) 0.2304(2) 0.89177(19)
O5 O 0.7743(3) 0.14047(16) 0.94113(16)
O6 O 0.7967(4) 0.34837(18) 0.78922(18)
O7 O 0.9937(2) 0.04562(15) 1.05182(13)
O8 O 0.7578(3) 0.06537(16) 1.11307(14)
O9 O 0.8898(4) 0.16900(19) 1.19271(17)
O10 O 0.8174(3) -0.11850(16) 1.11726(14)
H16 H 0.873(4) -0.108(2) 1.1502(17)
H17 H 0.767(5) -0.1659(16) 1.137(2)
O11 O 0.6496(3) -0.14334(15) 0.99360(15)
H18 H 0.565(3) -0.159(2) 1.024(2)
H19 H 0.698(4) -0.1832(17) 0.980(2)
Tb1 Tb 0.751605(13) -0.008274(9) 1.003281(7)
O2A O 0.4935(2) -0.02933(15) 1.07838(12)
O7A O 1.0063(2) -0.04562(15) 0.94818(13)
Tb1A Tb 0.248395(13) 0.008274(9) 0.996719(7)
Tb1A_2 Tb 1.248395(13) 0.008274(9) 0.996719(7)
C25 C 0.8229(8) 0.6549(4) 1.0391(5)
H20 H 0.7972 0.6790 1.0812
C26 C 0.9148(8) 0.5780(4) 1.0549(4)
H21 H 0.9490 0.5532 1.1054
C27 C 0.9524(5) 0.5408(3) 0.9942(3)
C28 C 0.8986(8) 0.5820(4) 0.9213(5)
H22 H 0.9224 0.5591 0.8784
C29 C 0.8084(8) 0.6580(4) 0.9114(6)
H23 H 0.7726 0.6841 0.8615
N1 N 0.7713(5) 0.6949(3) 0.9701(4)
C25A C 1.1771(8) 0.3451(4) 0.9609(5)
H20A H 1.2028 0.3210 0.9188
C26A C 1.0852(8) 0.4220(4) 0.9451(4)
H21A H 1.0510 0.4468 0.8946
C27A C 1.0476(5) 0.4592(3) 1.0058(3)
C28A C 1.1014(8) 0.4180(4) 1.0787(5)
H22A H 1.0776 0.4409 1.1216
C29A C 1.1916(8) 0.3420(4) 1.0886(6)
H23A H 1.2274 0.3159 1.1385
N1A N 1.2287(5) 0.3051(3) 1.0299(4)
C30 C 0.7586(8) 1.0114(5) 0.3595(3)
H24 H 0.8278 1.0514 0.3216
C31 C 0.6590(6) 1.0419(4) 0.4129(3)
H25 H 0.6615 1.1004 0.4104
C32 C 0.5556(5) 0.9852(3) 0.4699(2)
C33 C 0.5607(6) 0.9007(4) 0.4680(3)
H26 H 0.4940 0.8592 0.5057
C34 C 0.6622(7) 0.8767(5) 0.4113(4)
H27 H 0.6588 0.8192 0.4108
N2 N 0.7652(5) 0.9304(4) 0.3570(3)
C30A C 0.2414(8) 0.9886(5) 0.6405(3)
H24A H 0.1722 0.9486 0.6784
C31A C 0.3410(6) 0.9581(4) 0.5871(3)
H25A H 0.3385 0.8996 0.5896
C32A C 0.4444(5) 1.0148(3) 0.5301(2)
C33A C 0.4393(6) 1.0993(4) 0.5320(3)
H26A H 0.5060 1.1408 0.4943
C34A C 0.3378(7) 1.1233(5) 0.5887(4)
H27A H 0.3412 1.1808 0.5892
N2A N 0.2348(5) 1.0696(4) 0.6430(3)
C35 C 0.1559(12) 0.4697(7) 0.6562(6)
H28 H 0.1803 0.4995 0.6914
C36 C 0.0836(11) 0.5138(6) 0.5874(5)
H29 H 0.0641 0.5730 0.5777
C37 C 0.0415(7) 0.4760(5) 0.5357(4)
C38 C 0.0725(9) 0.3897(6) 0.5535(4)
H30 H 0.0469 0.3582 0.5199
C39 C 0.1445(11) 0.3486(7) 0.6241(5)
H31 H 0.1597 0.2888 0.6365
N3 N 0.1898(8) 0.3858(6) 0.6714(5)
C35A C -0.1559(12) 0.5303(7) 0.3438(6)
H28A H -0.1803 0.5005 0.3086
C36A C -0.0836(11) 0.4862(6) 0.4126(5)
H29A H -0.0641 0.4270 0.4223
C37A C -0.0415(7) 0.5240(5) 0.4643(4)
C38A C -0.0725(9) 0.6103(6) 0.4465(4)
H30A H -0.0469 0.6418 0.4801
C39A C -0.1445(11) 0.6514(7) 0.3759(5)
H31A H -0.1597 0.7112 0.3635
N3A N -0.1898(8) 0.6142(6) 0.3286(5)
O12 O 0.9808(4) 0.8953(2) 0.23619(18)
H32 H 0.929(4) 0.903(3) 0.2775(18)
H33 H 1.070(3) 0.921(3) 0.225(2)
O13 O 0.6745(5) 0.7275(3) 0.1986(2)
H34 H 0.577(2) 0.724(4) 0.194(4)
H35 H 0.699(7) 0.694(4) 0.242(2)
loop_
_geom_bond_atom_site_label_1
_geom_bond_atom_site_label_2
_geom_bond_site_symmetry_1
_geom_bond_site_symmetry_2
C1 C2 1_555 1_555
C2 C3 1_555 1_555
C3 H1 1_555 1_555
C4 C3 1_555 1_555
C5 C4 1_555 1_555
H2 C5 1_555 1_555
C6 C1 1_555 1_555
H3 C6 1_555 1_555
C7 H4 1_555 1_555
H5 C7 1_555 1_555
C8 C7 1_555 1_555
C9 C10 1_555 1_555
C10 C11 1_555 1_555
C11 H6 1_555 1_555
C12 C11 1_555 1_555
C13 C12 1_555 1_555
H7 C13 1_555 1_555
C14 C9 1_555 1_555
H8 C14 1_555 1_555
C15 H9 1_555 1_555
H10 C15 1_555 1_555
C16 C15 1_555 1_555
C17 C18 1_555 1_555
C18 C19 1_555 1_555
C19 H11 1_555 1_555
C20 C19 1_555 1_555
C21 C20 1_555 1_555
H12 C21 1_555 1_555
C22 C17 1_555 1_555
H13 C22 1_555 1_555
C23 H14 1_555 1_555
H15 C23 1_555 1_555
C24 C23 1_555 1_555
Cl1 C2 1_555 1_555
Cl2 C4 1_555 1_555
Cl3 C10 1_555 1_555
Cl4 C12 1_555 1_555
Cl5 C18 1_555 1_555
Cl6 C20 1_555 1_555
O1 C8 1_555 1_555
O2 C8 1_555 1_555
O3 C1 1_555 1_555
O4 C16 1_555 1_555
O5 C16 1_555 1_555
O6 C9 1_555 1_555
O7 C24 1_555 1_555
O8 C24 1_555 1_555
O9 C17 1_555 1_555
O10 H16 1_555 1_555
H17 O10 1_555 1_555
O11 H18 1_555 1_555
H19 O11 1_555 1_555
Tb1 O1 1_555 1_555
C25 H20 1_555 1_555
C26 C25 1_555 1_555
H21 C26 1_555 1_555
C27 C26 1_555 1_555
C28 C27 1_555 1_555
H22 C28 1_555 1_555
C29 C28 1_555 1_555
H23 C29 1_555 1_555
N1 C25 1_555 1_555
C30 H24 1_555 1_555
C31 C30 1_555 1_555
H25 C31 1_555 1_555
C32 C31 1_555 1_555
C33 C32 1_555 1_555
H26 C33 1_555 1_555
C34 C33 1_555 1_555
H27 C34 1_555 1_555
N2 C30 1_555 1_555
C35 H28 1_555 1_555
C36 C35 1_555 1_555
H29 C36 1_555 1_555
C37 C36 1_555 1_555
C38 C37 1_555 1_555
H30 C38 1_555 1_555
C39 C38 1_555 1_555
H31 C39 1_555 1_555
N3 C35 1_555 1_555
O12 H32 1_555 1_555
H33 O12 1_555 1_555
O13 H34 1_555 1_555
H35 O13 1_555 1_555
O2A Tb1 1_555 1_555
O7A Tb1 1_555 1_555
Tb1A O2 1_555 1_555
Tb1A_2 O7 1_555 1_555
C25A H20A 1_555 1_555
C26A C25A 1_555 1_555
H21A C26A 1_555 1_555
C27A C27 1_555 1_555
C28A C27A 1_555 1_555
H22A C28A 1_555 1_555
C29A C28A 1_555 1_555
H23A C29A 1_555 1_555
N1A C25A 1_555 1_555
C30A H24A 1_555 1_555
C31A C30A 1_555 1_555
H25A C31A 1_555 1_555
C32A C32 1_555 1_555
C33A C32A 1_555 1_555
H26A C33A 1_555 1_555
C34A C33A 1_555 1_555
H27A C34A 1_555 1_555
N2A C30A 1_555 1_555
C35A H28A 1_555 1_555
C36A C35A 1_555 1_555
H29A C36A 1_555 1_555
C37A C37 1_555 1_555
C38A C37A 1_555 1_555
H30A C38A 1_555 1_555
C39A C38A 1_555 1_555
H31A C39A 1_555 1_555
N3A C35A 1_555 1_555
C5 C6 1_555 1_555
C7 O3 1_555 1_555
C13 C14 1_555 1_555
C15 O6 1_555 1_555
C21 C22 1_555 1_555
C23 O9 1_555 1_555
O2 Tb1 1_555 1_555
O5 Tb1 1_555 1_555
O7 Tb1 1_555 1_555
O8 Tb1 1_555 1_555
O10 Tb1 1_555 1_555
O11 Tb1 1_555 1_555
C29 N1 1_555 1_555
C34 N2 1_555 1_555
C39 N3 1_555 1_555
O2A Tb1A 1_555 1_555
O7A Tb1A_2 1_555 1_555
C26A C27A 1_555 1_555
C29A N1A 1_555 1_555
C31A C32A 1_555 1_555
C34A N2A 1_555 1_555
C36A C37A 1_555 1_555
C39A N3A 1_555 1_555

#END
