
#######################################################################
#
#                 Cambridge Crystallographic Data Centre
#                                CCDC 
#
#######################################################################
#
# If this CIF has been generated from an entry in the Cambridge 
# Structural Database, then it will include bibliographic, chemical, 
# crystal, experimental, refinement or atomic coordinate data resulting 
# from the CCDC's data processing and validation procedures.
#
#######################################################################

data_CIJREU
_symmetry_cell_setting           triclinic
_symmetry_space_group_name_H-M   'P -1'
_symmetry_Int_Tables_number      2
_space_group_name_Hall           '-P 1'
loop_
_symmetry_equiv_pos_site_id
_symmetry_equiv_pos_as_xyz
1 x,y,z
2 -x,-y,-z
_cell_length_a                   8.2511(16)
_cell_length_b                   10.281(2)
_cell_length_c                   11.884(2)
_cell_angle_alpha                98.705(3)
_cell_angle_beta                 106.467(2)
_cell_angle_gamma                96.835(2)
_cell_volume                     941.585
loop_
_atom_site_label
_atom_site_type_symbol
_atom_site_fract_x
_atom_site_fract_y
_atom_site_fract_z
Mn1 Mn 0.5000 0.0000 0.5000
Cl1 Cl 0.29048(11) -0.02068(8) 0.60685(7)
N1 N 0.4316(3) -0.2192(2) 0.4239(2)
N2 N 0.2115(3) -0.4701(2) 0.5997(2)
N3 N 0.0823(4) -0.6796(3) 0.6249(2)
C1 C 0.3528(4) -0.3053(3) 0.4741(3)
H1 H 0.3231 -0.2712 0.5412
C2 C 0.2291(4) -0.5285(3) 0.4959(3)
C3 C 0.3554(4) -0.4919(3) 0.3310(3)
H2 H 0.3311 -0.5832 0.3001
C4 C 0.1339(5) -1.0258(3) 1.3168(3)
H3 H 0.1060 -1.0809 1.3662
C5 C 0.4341(4) -0.4049(3) 0.2768(3)
H4 H 0.4628 -0.4366 0.2086
C6 C 0.4691(4) -0.2705(3) 0.3254(3)
H5 H 0.5214 -0.2124 0.2883
C7 C 0.3130(4) -0.4420(3) 0.4317(3)
C8 C 0.1700(4) -0.6644(3) 0.4526(3)
H6 H 0.1780 -0.7057 0.3796
C9 C 0.0030(5) -1.0017(3) 1.2249(3)
H7 H -0.1104 -1.0380 1.2141
S1 S 0.00821(12) -0.59912(10) 0.86085(8)
S2 S 0.11659(13) -0.45898(9) 0.78952(7)
C10 C 0.0429(5) -0.9229(4) 1.1494(3)
H8 H -0.0436 -0.9032 1.0882
C11 C 0.0991(4) -0.7361(3) 0.5212(3)
H9 H 0.0616 -0.8275 0.4940
N4 N 0.2995(4) -0.9743(3) 1.3389(2)
C12 C 0.1388(4) -0.5492(3) 0.6559(3)
C13 C 0.3365(4) -0.9010(3) 1.2617(3)
H10 H 0.4510 -0.8673 1.2734
C14 C 0.2137(4) -0.8730(3) 1.1657(3)
N5 N 0.1394(4) -0.7359(3) 1.0183(2)
N6 N 0.3377(4) -0.6383(3) 0.9285(3)
C15 C 0.1853(4) -0.6626(3) 0.9451(3)
C16 C 0.2638(4) -0.7914(3) 1.0846(3)
C17 C 0.4282(5) -0.7710(4) 1.0754(4)
H11 H 0.5154 -0.8079 1.1215
C18 C 0.4581(5) -0.6943(5) 0.9955(4)
H12 H 0.5677 -0.6809 0.9879
N1A N 0.5684(3) -0.7808(2) 1.5761(2)
N2A N 0.7885(3) -0.5299(2) 1.4003(2)
N3A N 0.9177(4) -0.3204(3) 1.3751(2)
C1A C 0.6472(4) -0.6947(3) 1.5259(3)
H1A H 0.6769 -0.7288 1.4588
C2A C 0.7709(4) -0.4715(3) 1.5041(3)
C3A C 0.6446(4) -0.5081(3) 1.6690(3)
H2A H 0.6689 -0.4168 1.6999
C4A C 0.8661(5) 0.0258(3) 0.6832(3)
H3A H 0.8940 0.0809 0.6338
C5A C 0.5659(4) -0.5951(3) 1.7232(3)
H4A H 0.5372 -0.5634 1.7914
C6A C 0.5309(4) -0.7295(3) 1.6746(3)
H5A H 0.4786 -0.7876 1.7117
C7A C 0.6870(4) -0.5580(3) 1.5683(3)
C8A C 0.8300(4) -0.3356(3) 1.5474(3)
H6A H 0.8220 -0.2943 1.6204
C9A C 0.9970(5) 0.0017(3) 0.7751(3)
H7A H 1.1104 0.0380 0.7859
S1A S 0.99179(12) -0.40088(10) 1.13915(8)
S2A S 0.88341(13) -0.54102(9) 1.21048(7)
C10A C 0.9571(5) -0.0771(4) 0.8506(3)
H8A H 1.0436 -0.0968 0.9118
C11A C 0.9009(4) -0.2639(3) 1.4788(3)
H9A H 0.9384 -0.1725 1.5060
N4A N 0.7005(4) -0.0257(3) 0.6611(2)
C12A C 0.8612(4) -0.4508(3) 1.3441(3)
C13A C 0.6635(4) -0.0990(3) 0.7383(3)
H10A H 0.5490 -0.1327 0.7266
C14A C 0.7863(4) -0.1270(3) 0.8343(3)
N5A N 0.8606(4) -0.2641(3) 0.9817(2)
N6A N 0.6623(4) -0.3617(3) 1.0715(3)
C15A C 0.8147(4) -0.3374(3) 1.0549(3)
C16A C 0.7362(4) -0.2086(3) 0.9154(3)
C17A C 0.5718(5) -0.2290(4) 0.9246(4)
H11A H 0.4846 -0.1921 0.8785
C18A C 0.5419(5) -0.3057(5) 1.0045(4)
H12A H 0.4323 -0.3191 1.0121
Cl1A Cl 0.70952(11) 0.02068(8) 0.39315(7)
Mn1_2 Mn 0.5000 -1.0000 1.5000
N1A_2 N 0.5684(3) 0.2192(2) 0.5761(2)
N4_2 N 0.2995(4) 0.0257(3) 0.3389(2)
loop_
_geom_bond_atom_site_label_1
_geom_bond_atom_site_label_2
_geom_bond_site_symmetry_1
_geom_bond_site_symmetry_2
Mn1 Cl1 1_555 1_555
N1 Mn1 1_555 1_555
N2 C2 1_555 1_555
N3 C11 1_555 1_555
C1 N1 1_555 1_555
H1 C1 1_555 1_555
C2 C7 1_555 1_555
C3 H2 1_555 1_555
C4 H3 1_555 1_555
C5 C3 1_555 1_555
H4 C5 1_555 1_555
C6 N1 1_555 1_555
H5 C6 1_555 1_555
C7 C1 1_555 1_555
C8 C2 1_555 1_555
H6 C8 1_555 1_555
C9 C4 1_555 1_555
H7 C9 1_555 1_555
S1 S2 1_555 1_555
S2 C12 1_555 1_555
C10 C9 1_555 1_555
H8 C10 1_555 1_555
C11 C8 1_555 1_555
H9 C11 1_555 1_555
N4 C4 1_555 1_555
C12 N2 1_555 1_555
C13 N4 1_555 1_555
H10 C13 1_555 1_555
C14 C10 1_555 1_555
N5 C15 1_555 1_555
N6 C15 1_555 1_555
C15 S1 1_555 1_555
C16 C14 1_555 1_555
C17 C16 1_555 1_555
H11 C17 1_555 1_555
C18 N6 1_555 1_555
H12 C18 1_555 1_555
N1A C1A 1_555 1_555
N2A C2A 1_555 1_555
N3A C11A 1_555 1_555
C1A H1A 1_555 1_555
C2A C7A 1_555 1_555
C3A H2A 1_555 1_555
C4A H3A 1_555 1_555
C5A C3A 1_555 1_555
H4A C5A 1_555 1_555
C6A N1A 1_555 1_555
H5A C6A 1_555 1_555
C7A C1A 1_555 1_555
C8A C2A 1_555 1_555
H6A C8A 1_555 1_555
C9A C4A 1_555 1_555
H7A C9A 1_555 1_555
S1A S2A 1_555 1_555
S2A C12A 1_555 1_555
C10A C9A 1_555 1_555
H8A C10A 1_555 1_555
C11A C8A 1_555 1_555
H9A C11A 1_555 1_555
N4A Mn1 1_555 1_555
C12A N2A 1_555 1_555
C13A N4A 1_555 1_555
H10A C13A 1_555 1_555
C14A C10A 1_555 1_555
N5A C15A 1_555 1_555
N6A C15A 1_555 1_555
C15A S1A 1_555 1_555
C16A C14A 1_555 1_555
C17A C16A 1_555 1_555
H11A C17A 1_555 1_555
C18A N6A 1_555 1_555
H12A C18A 1_555 1_555
Cl1A Mn1 1_555 1_555
Mn1_2 N4 1_555 1_555
N1A_2 Mn1 1_555 1_555
N4_2 Mn1 1_555 1_555
N3 C12 1_555 1_555
C3 C7 1_555 1_555
C5 C6 1_555 1_555
C13 C14 1_555 1_555
N5 C16 1_555 1_555
C17 C18 1_555 1_555
N1A Mn1_2 1_555 1_555
N3A C12A 1_555 1_555
C3A C7A 1_555 1_555
C4A N4A 1_555 1_555
C5A C6A 1_555 1_555
C13A C14A 1_555 1_555
N5A C16A 1_555 1_555
C17A C18A 1_555 1_555

#END
