
#######################################################################
#
#                 Cambridge Crystallographic Data Centre
#                                CCDC 
#
#######################################################################
#
# If this CIF has been generated from an entry in the Cambridge 
# Structural Database, then it will include bibliographic, chemical, 
# crystal, experimental, refinement or atomic coordinate data resulting 
# from the CCDC's data processing and validation procedures.
#
#######################################################################

data_CIJSUL
_symmetry_cell_setting           triclinic
_symmetry_space_group_name_H-M   'P -1'
_symmetry_Int_Tables_number      2
_space_group_name_Hall           '-P 1'
loop_
_symmetry_equiv_pos_site_id
_symmetry_equiv_pos_as_xyz
1 x,y,z
2 -x,-y,-z
_cell_length_a                   10.299(6)
_cell_length_b                   10.846(6)
_cell_length_c                   16.531(9)
_cell_angle_alpha                75.827(10)
_cell_angle_beta                 86.068(10)
_cell_angle_gamma                88.446(9)
_cell_volume                     1786.04
loop_
_atom_site_label
_atom_site_type_symbol
_atom_site_fract_x
_atom_site_fract_y
_atom_site_fract_z
Cu1 Cu 0.97114(9) 0.00044(8) 0.92298(6)
Cu2 Cu 0.07530(9) 0.41265(7) 0.54575(6)
O1 O 0.8006(5) 0.0588(5) 0.9571(4)
O2 O 0.8471(5) 0.0512(4) 1.0886(3)
C1 C 0.7711(7) 0.0705(6) 1.0292(6)
C2 C 0.6364(7) 0.1118(6) 1.0498(6)
C3 C 0.5934(7) 0.1171(6) 1.1299(6)
H1 H 0.6510 0.0937 1.1738
C4 C 0.4693(8) 0.1555(7) 1.1470(6)
H2 H 0.4408 0.1582 1.2024
C5 C 0.3861(8) 0.1900(7) 1.0842(7)
H3 H 0.3004 0.2182 1.0960
C6 C 0.4249(8) 0.1843(8) 1.0058(7)
H4 H 0.3650 0.2064 0.9632
C7 C 0.5512(8) 0.1466(7) 0.9858(6)
H5 H 0.5784 0.1446 0.9301
O3 O 1.0242(5) 0.1800(4) 0.8882(3)
O4 O 1.0717(5) 0.1777(4) 1.0181(3)
C8 C 1.0613(7) 0.2317(6) 0.9406(5)
C9 C 1.1085(7) 0.3675(7) 0.9138(5)
C10 C 1.1099(8) 0.4268(7) 0.8306(6)
H6 H 1.0785 0.3841 0.7922
C11 C 1.1582(9) 0.5521(7) 0.8018(6)
H7 H 1.1592 0.5946 0.7442
C12 C 1.2026(9) 0.6093(8) 0.8575(7)
H8 H 1.2388 0.6918 0.8382
C13 C 1.1974(9) 0.5525(8) 0.9424(7)
H9 H 1.2241 0.5970 0.9812
C14 C 1.1527(8) 0.4303(7) 0.9690(6)
H10 H 1.1524 0.3884 1.0266
O5 O 0.1578(5) 0.5646(4) 0.5651(3)
O6 O 0.0308(5) 0.7091(4) 0.4877(3)
C15 C 0.1193(7) 0.6789(7) 0.5359(5)
C16 C 0.1901(7) 0.7789(6) 0.5631(5)
C17 C 0.3009(8) 0.7543(7) 0.6053(5)
H11 H 0.3351 0.6700 0.6186
C18 C 0.3651(8) 0.8501(7) 0.6292(6)
H12 H 0.4444 0.8332 0.6563
C19 C 0.3096(9) 0.9704(7) 0.6120(6)
H13 H 0.3497 1.0359 0.6301
C20 C 0.1995(9) 0.9979(7) 0.5701(6)
H14 H 0.1648 1.0819 0.5577
C21 C 0.1385(8) 0.9025(7) 0.5457(5)
H15 H 0.0609 0.9208 0.5169
O7 O -0.0530(5) 0.4215(4) 0.6346(3)
O8 O -0.1781(5) 0.5700(5) 0.5595(3)
C22 C -0.1514(8) 0.4925(7) 0.6290(5)
C23 C -0.2420(8) 0.4900(7) 0.7025(5)
C24 C -0.2190(9) 0.4064(7) 0.7775(6)
H16 H -0.1446 0.3521 0.7820
C25 C -0.3044(10) 0.4018(8) 0.8462(6)
H17 H -0.2859 0.3462 0.8983
C26 C -0.4161(10) 0.4760(9) 0.8414(6)
H18 H -0.4760 0.4703 0.8884
C27 C -0.4376(10) 0.5600(8) 0.7644(7)
H19 H -0.5122 0.6140 0.7593
C28 C -0.3532(8) 0.5651(7) 0.6973(6)
H20 H -0.3708 0.6215 0.6453
N1 N 0.9157(5) -0.0368(5) 0.8092(4)
N2 N 0.6777(7) 0.2154(5) 0.6513(4)
N3 N 0.2187(6) 0.2960(5) 0.6200(4)
C29 C 0.9543(7) -0.1428(7) 0.7882(5)
H21 H 1.0181 -0.1936 0.8203
C30 C 0.9088(8) -0.1854(8) 0.7227(5)
H22 H 0.9402 -0.2626 0.7108
C31 C 0.8162(8) -0.1116(7) 0.6754(5)
H23 H 0.7823 -0.1381 0.6304
C32 C 0.7732(7) 0.0009(7) 0.6939(5)
C33 C 0.8271(7) 0.0345(6) 0.7608(5)
H24 H 0.7996 0.1125 0.7732
C34 C 0.6694(7) 0.0816(6) 0.6449(5)
H25 H 0.6809 0.0784 0.5855
H26 H 0.5824 0.0476 0.6671
C35 C 0.5800(7) 0.2961(6) 0.6036(5)
H27 H 0.6023 0.3862 0.5979
H28 H 0.5834 0.2813 0.5467
C36 C 0.4480(7) 0.2753(6) 0.6403(5)
C37 C 0.4196(8) 0.2170(7) 0.7239(5)
H29 H 0.4887 0.1919 0.7598
C38 C 0.2954(8) 0.1952(7) 0.7553(5)
H30 H 0.2768 0.1551 0.8127
C39 C 0.1932(8) 0.2338(6) 0.7005(5)
H31 H 0.1057 0.2154 0.7210
C40 C 0.3431(7) 0.3120(6) 0.5926(5)
H32 H 0.3609 0.3522 0.5352
H33 H 0.762(3) 0.244(6) 0.626(4)
Cu1A Cu 1.02886(9) -0.00044(8) 1.07702(6)
Cu2A Cu -0.07530(9) 0.58735(7) 0.45425(6)
O2A O 1.1529(5) -0.0512(4) 0.9114(3)
O4A O 0.9283(5) -0.1777(4) 0.9819(3)
O6A O -0.0308(5) 0.2909(4) 0.5123(3)
O8A O 0.1781(5) 0.4300(5) 0.4405(3)
loop_
_geom_bond_atom_site_label_1
_geom_bond_atom_site_label_2
_geom_bond_site_symmetry_1
_geom_bond_site_symmetry_2
Cu1 O1 1_555 1_555
Cu2 O5 1_555 1_555
O1 C1 1_555 1_555
O2 C1 1_555 1_555
C1 C2 1_555 1_555
C2 C3 1_555 1_555
C3 H1 1_555 1_555
C4 C3 1_555 1_555
H2 C4 1_555 1_555
C5 C4 1_555 1_555
H3 C5 1_555 1_555
C6 C5 1_555 1_555
H4 C6 1_555 1_555
C7 C2 1_555 1_555
H5 C7 1_555 1_555
O3 Cu1 1_555 1_555
O4 C8 1_555 1_555
C8 O3 1_555 1_555
C9 C8 1_555 1_555
C10 C9 1_555 1_555
H6 C10 1_555 1_555
C11 C10 1_555 1_555
H7 C11 1_555 1_555
C12 C11 1_555 1_555
H8 C12 1_555 1_555
C13 C12 1_555 1_555
H9 C13 1_555 1_555
C14 C9 1_555 1_555
H10 C14 1_555 1_555
O5 C15 1_555 1_555
O6 C15 1_555 1_555
C15 C16 1_555 1_555
C16 C17 1_555 1_555
C17 H11 1_555 1_555
C18 C17 1_555 1_555
H12 C18 1_555 1_555
C19 C18 1_555 1_555
H13 C19 1_555 1_555
C20 C19 1_555 1_555
H14 C20 1_555 1_555
C21 C16 1_555 1_555
H15 C21 1_555 1_555
O7 Cu2 1_555 1_555
O8 C22 1_555 1_555
C22 O7 1_555 1_555
C23 C22 1_555 1_555
C24 C23 1_555 1_555
H16 C24 1_555 1_555
C25 C24 1_555 1_555
H17 C25 1_555 1_555
C26 C25 1_555 1_555
H18 C26 1_555 1_555
C27 C26 1_555 1_555
H19 C27 1_555 1_555
C28 C23 1_555 1_555
H20 C28 1_555 1_555
N1 Cu1 1_555 1_555
N2 C34 1_555 1_555
N3 Cu2 1_555 1_555
C29 N1 1_555 1_555
H21 C29 1_555 1_555
C30 C29 1_555 1_555
H22 C30 1_555 1_555
C31 C30 1_555 1_555
H23 C31 1_555 1_555
C32 C31 1_555 1_555
C33 N1 1_555 1_555
H24 C33 1_555 1_555
C34 C32 1_555 1_555
H25 C34 1_555 1_555
H26 C34 1_555 1_555
C35 N2 1_555 1_555
H27 C35 1_555 1_555
H28 C35 1_555 1_555
C36 C35 1_555 1_555
C37 C36 1_555 1_555
H29 C37 1_555 1_555
C38 C37 1_555 1_555
H30 C38 1_555 1_555
C39 N3 1_555 1_555
H31 C39 1_555 1_555
C40 N3 1_555 1_555
H32 C40 1_555 1_555
H33 N2 1_555 1_555
Cu1A Cu1 1_555 1_555
Cu2A Cu2 1_555 1_555
O2A Cu1 1_555 1_555
O4A Cu1 1_555 1_555
O6A Cu2 1_555 1_555
O8A Cu2 1_555 1_555
O2 Cu1A 1_555 1_555
C6 C7 1_555 1_555
O4 Cu1A 1_555 1_555
C13 C14 1_555 1_555
O6 Cu2A 1_555 1_555
C20 C21 1_555 1_555
O8 Cu2A 1_555 1_555
C27 C28 1_555 1_555
C32 C33 1_555 1_555
C36 C40 1_555 1_555
C38 C39 1_555 1_555

#END
