
#######################################################################
#
#                 Cambridge Crystallographic Data Centre
#                                CCDC 
#
#######################################################################
#
# If this CIF has been generated from an entry in the Cambridge 
# Structural Database, then it will include bibliographic, chemical, 
# crystal, experimental, refinement or atomic coordinate data resulting 
# from the CCDC's data processing and validation procedures.
#
#######################################################################

data_CIJWUP
_symmetry_cell_setting           monoclinic
_symmetry_space_group_name_H-M   'P 21/n'
_symmetry_Int_Tables_number      14
_space_group_name_Hall           '-P 2yn'
loop_
_symmetry_equiv_pos_site_id
_symmetry_equiv_pos_as_xyz
1 x,y,z
2 1/2-x,1/2+y,1/2-z
3 -x,-y,-z
4 1/2+x,1/2-y,1/2+z
_cell_length_a                   9.746(3)
_cell_length_b                   13.486(4)
_cell_length_c                   17.992(5)
_cell_angle_alpha                90
_cell_angle_beta                 95.445(5)
_cell_angle_gamma                90
_cell_volume                     2354.1
loop_
_atom_site_label
_atom_site_type_symbol
_atom_site_fract_x
_atom_site_fract_y
_atom_site_fract_z
Zn1 Zn 0.64024(5) 0.01567(3) 0.21283(2)
Br1 Br 0.53674(5) 0.21051(3) 0.41336(2)
Br2 Br 1.16438(5) 0.05494(4) 0.16129(2)
Br3 Br 1.30777(4) 0.09609(4) 0.00274(2)
Br4 Br 0.46954(6) 0.20698(3) 0.59172(2)
O1 O 0.8997(3) -0.11381(19) 0.17215(14)
O2 O 0.6653(3) 0.01009(18) 0.32305(14)
C1 C 0.8773(4) -0.0357(3) 0.13923(19)
O3 O 0.8030(3) 0.03585(18) 0.15888(14)
C2 C 1.0708(4) 0.0235(2) 0.06738(18)
C3 C 0.5433(4) 0.0038(2) 0.3427(2)
O4 O 0.4380(3) 0.00160(19) 0.29995(14)
N1 N 0.5597(3) -0.1172(2) 0.17848(16)
C4 C 0.4369(4) -0.2988(3) 0.1383(2)
C5 C 0.5151(4) 0.0897(2) 0.46408(19)
C6 C 0.5270(4) 0.0015(2) 0.42515(18)
C7 C 1.1305(4) 0.0403(3) 0.00137(19)
C8 C 0.9395(4) -0.0173(2) 0.06692(19)
C9 C 0.5596(5) -0.2930(3) 0.1823(3)
H1 H 0.6044 -0.3507 0.1993
C10 C 0.3672(5) -0.3944(3) 0.1153(3)
H2 H 0.3387 -0.3908 0.0623
H3 H 0.2842 -0.3996 0.1409
C11 C 0.4869(4) 0.0881(3) 0.53813(19)
C12 C 0.4418(5) -0.1231(3) 0.1357(3)
H4 H 0.3996 -0.0643 0.1190
C13 C 0.3790(5) -0.2095(3) 0.1149(3)
H5 H 0.2962 -0.2087 0.0846
N2 N 0.5530(3) -0.8528(2) 0.17580(16)
C14 C 0.4351(4) -0.6734(3) 0.1235(2)
C15 C 0.4538(4) -0.8079(3) 0.2098(2)
H6 H 0.4232 -0.8378 0.2518
C16 C 0.5940(5) -0.8078(3) 0.1162(2)
H7 H 0.6626 -0.8375 0.0913
C17 C 0.6168(5) -0.2015(3) 0.2016(3)
H8 H 0.6992 -0.1995 0.2322
C18 C 0.4481(5) -0.4881(3) 0.1296(3)
H9 H 0.4679 -0.4975 0.1830
H10 H 0.5353 -0.4824 0.1079
C19 C 0.3693(5) -0.5780(3) 0.0961(3)
H11 H 0.2752 -0.5758 0.1094
H12 H 0.3666 -0.5753 0.0421
C20 C 0.3948(4) -0.7195(3) 0.1856(2)
H13 H 0.3270 -0.6909 0.2117
C21 C 0.5391(5) -0.7182(3) 0.0894(3)
H14 H 0.5729 -0.6885 0.0481
Br1B Br 0.46326(5) -0.21051(3) 0.58664(2)
Br4B Br 0.53046(6) -0.20698(3) 0.40828(2)
O2B O 0.3347(3) -0.01009(18) 0.67695(14)
C3B C 0.4567(4) -0.0038(2) 0.6573(2)
O4B O 0.5620(3) -0.00160(19) 0.70005(14)
C5B C 0.4849(4) -0.0897(2) 0.53592(19)
C6B C 0.4730(4) -0.0015(2) 0.57485(18)
C11B C 0.5131(4) -0.0881(3) 0.46187(19)
Br2B Br 0.83562(5) -0.05494(4) -0.16129(2)
Br3B Br 0.69223(4) -0.09609(4) -0.00274(2)
O1B O 1.1003(3) 0.11381(19) -0.17215(14)
C1B C 1.1227(4) 0.0357(3) -0.13923(19)
O3B O 1.1970(3) -0.03585(18) -0.15888(14)
C2B C 0.9292(4) -0.0235(2) -0.06738(18)
C7B C 0.8695(4) -0.0403(3) -0.00137(19)
C8B C 1.0605(4) 0.0173(2) -0.06692(19)
Zn1B Zn 0.35976(5) -0.01567(3) 0.78717(2)
N1B N 0.4403(3) 0.1172(2) 0.82152(16)
C4B C 0.5631(4) 0.2988(3) 0.8617(2)
C9B C 0.4404(5) 0.2930(3) 0.8177(3)
H1B H 0.3956 0.3507 0.8007
C10B C 0.6328(5) 0.3944(3) 0.8847(3)
H2B H 0.6613 0.3908 0.9377
H3B H 0.7158 0.3996 0.8591
C12B C 0.5582(5) 0.1231(3) 0.8643(3)
H4B H 0.6004 0.0643 0.8810
C13B C 0.6210(5) 0.2095(3) 0.8851(3)
H5B H 0.7038 0.2087 0.9154
N2B N 0.4470(3) 0.8528(2) 0.82420(16)
C14B C 0.5649(4) 0.6734(3) 0.8765(2)
C15B C 0.5462(4) 0.8079(3) 0.7902(2)
H6B H 0.5768 0.8378 0.7482
C16B C 0.4060(5) 0.8078(3) 0.8838(2)
H7B H 0.3374 0.8375 0.9087
C17B C 0.3832(5) 0.2015(3) 0.7984(3)
H8B H 0.3008 0.1995 0.7678
C18B C 0.5519(5) 0.4881(3) 0.8704(3)
H9B H 0.5321 0.4975 0.8170
H10B H 0.4647 0.4824 0.8921
C19B C 0.6307(5) 0.5780(3) 0.9039(3)
H11B H 0.7248 0.5758 0.8906
H12B H 0.6334 0.5753 0.9579
C20B C 0.6052(4) 0.7195(3) 0.8144(2)
H13B H 0.6730 0.6909 0.7883
C21B C 0.4609(5) 0.7182(3) 0.9106(3)
H14B H 0.4271 0.6885 0.9519
Zn1_2 Zn 0.64024(5) -0.98433(3) 0.21283(2)
Zn1B_2 Zn 0.35976(5) 0.98433(3) 0.78717(2)
Zn1B_3 Zn 1.35976(5) -0.01567(3) -0.21283(2)
O3B_2 O 0.1970(3) -0.03585(18) 0.84112(14)
N2_2 N 0.5530(3) 0.1472(2) 0.17580(16)
N2B_2 N 0.4470(3) -0.1472(2) 0.82420(16)
loop_
_geom_bond_atom_site_label_1
_geom_bond_atom_site_label_2
_geom_bond_site_symmetry_1
_geom_bond_site_symmetry_2
Zn1 O2 1_555 1_555
Br1 C5 1_555 1_555
Br2 C2 1_555 1_555
Br3 C7 1_555 1_555
Br4 C11 1_555 1_555
O1 C1 1_555 1_555
O2 C3 1_555 1_555
C1 O3 1_555 1_555
O3 Zn1 1_555 1_555
C2 C7 1_555 1_555
C3 O4 1_555 1_555
N1 Zn1 1_555 1_555
C4 C9 1_555 1_555
C5 C6 1_555 1_555
C6 C3 1_555 1_555
C7 C8B 1_555 1_555
C8 C1 1_555 1_555
C9 H1 1_555 1_555
C10 C4 1_555 1_555
H2 C10 1_555 1_555
H3 C10 1_555 1_555
C11 C5 1_555 1_555
C12 N1 1_555 1_555
H4 C12 1_555 1_555
C13 C4 1_555 1_555
H5 C13 1_555 1_555
N2 C15 1_555 1_555
C14 C19 1_555 1_555
C15 H6 1_555 1_555
C16 N2 1_555 1_555
H7 C16 1_555 1_555
C17 N1 1_555 1_555
H8 C17 1_555 1_555
C18 C10 1_555 1_555
H9 C18 1_555 1_555
H10 C18 1_555 1_555
C19 C18 1_555 1_555
H11 C19 1_555 1_555
H12 C19 1_555 1_555
C20 C14 1_555 1_555
H13 C20 1_555 1_555
C21 C14 1_555 1_555
H14 C21 1_555 1_555
Br1B C5B 1_555 1_555
Br4B C11B 1_555 1_555
O2B C3B 1_555 1_555
C3B O4B 1_555 1_555
C5B C6B 1_555 1_555
C6B C11 1_555 1_555
C11B C6 1_555 1_555
Br2B C2B 1_555 1_555
Br3B C7B 1_555 1_555
O1B C1B 1_555 1_555
C1B O3B 1_555 1_555
O3B Zn1B_3 1_555 1_555
C2B C7B 1_555 1_555
C7B C8 1_555 1_555
C8B C1B 1_555 1_555
Zn1B O2B 1_555 1_555
N1B Zn1B 1_555 1_555
C4B C9B 1_555 1_555
C9B H1B 1_555 1_555
C10B C4B 1_555 1_555
H2B C10B 1_555 1_555
H3B C10B 1_555 1_555
C12B N1B 1_555 1_555
H4B C12B 1_555 1_555
C13B C4B 1_555 1_555
H5B C13B 1_555 1_555
N2B C15B 1_555 1_555
C14B C19B 1_555 1_555
C15B H6B 1_555 1_555
C16B N2B 1_555 1_555
H7B C16B 1_555 1_555
C17B N1B 1_555 1_555
H8B C17B 1_555 1_555
C18B C10B 1_555 1_555
H9B C18B 1_555 1_555
H10B C18B 1_555 1_555
C19B C18B 1_555 1_555
H11B C19B 1_555 1_555
H12B C19B 1_555 1_555
C20B C14B 1_555 1_555
H13B C20B 1_555 1_555
C21B C14B 1_555 1_555
H14B C21B 1_555 1_555
Zn1_2 N2 1_555 1_555
Zn1B_2 N2B 1_555 1_555
O3B_2 Zn1B 1_555 1_555
N2_2 Zn1 1_555 1_555
N2B_2 Zn1B 1_555 1_555
C2 C8 1_555 1_555
C9 C17 1_555 1_555
C12 C13 1_555 1_555
C15 C20 1_555 1_555
C16 C21 1_555 1_555
C3B C6B 1_555 1_555
C5B C11B 1_555 1_555
C2B C8B 1_555 1_555
C9B C17B 1_555 1_555
C12B C13B 1_555 1_555
C15B C20B 1_555 1_555
C16B C21B 1_555 1_555

#END
