
#######################################################################
#
#                 Cambridge Crystallographic Data Centre
#                                CCDC 
#
#######################################################################
#
# If this CIF has been generated from an entry in the Cambridge 
# Structural Database, then it will include bibliographic, chemical, 
# crystal, experimental, refinement or atomic coordinate data resulting 
# from the CCDC's data processing and validation procedures.
#
#######################################################################

data_CIJZOM
_symmetry_cell_setting           monoclinic
_symmetry_space_group_name_H-M   'P 21/c'
_symmetry_Int_Tables_number      14
_space_group_name_Hall           '-P 2ybc'
loop_
_symmetry_equiv_pos_site_id
_symmetry_equiv_pos_as_xyz
1 x,y,z
2 -x,1/2+y,1/2-z
3 -x,-y,-z
4 x,1/2-y,1/2+z
_cell_length_a                   8.8295(18)
_cell_length_b                   12.453(3)
_cell_length_c                   8.2792(17)
_cell_angle_alpha                90
_cell_angle_beta                 90.16(3)
_cell_angle_gamma                90
_cell_volume                     910.326
loop_
_atom_site_label
_atom_site_type_symbol
_atom_site_fract_x
_atom_site_fract_y
_atom_site_fract_z
Mn1 Mn 0.28285(4) 0.06470(3) 0.10046(5)
O1 O 0.4504(2) 0.17991(17) 0.0443(3)
O2 O 0.6576(3) 0.08194(17) 0.0066(3)
C1 C 0.5888(3) 0.1691(2) 0.0055(3)
C2 C 0.6696(3) 0.2718(2) -0.0408(4)
H1 H 0.6695 0.3186 0.0528
H2 H 0.6098 0.3069 -0.1239
C3 C 0.8314(3) 0.2642(2) -0.1015(4)
H3 H 0.8350 0.2204 -0.1982
H4 H 0.8951 0.2310 -0.0200
C4 C 0.8885(4) 0.3767(2) -0.1385(4)
H5 H 0.8104 0.4133 -0.2001
H6 H 0.8990 0.4145 -0.0367
C5 C 1.0353(3) 0.3886(2) -0.2289(3)
O3 O 1.1308(2) 0.31411(16) -0.2374(3)
O4 O 1.0607(2) 0.47751(17) -0.2967(3)
O5 O 0.1644(2) 0.11279(16) -0.1237(2)
H7 H 0.1463 0.1799 -0.1498
H8 H 0.1044 0.0661 -0.1660
O6 O 0.3858(3) 0.0171(2) 0.3239(3)
H9 H 0.3710 0.0452 0.4127
H10 H 0.4606 -0.0213 0.3233
Mn1B Mn 0.71715(4) -0.06470(3) -0.10046(5)
Mn1C Mn 1.28285(4) 0.43530(3) -0.39954(5)
O2B O 0.3424(3) -0.08194(17) -0.0066(3)
O3C O 0.1308(2) 0.18589(16) 0.2626(3)
O4C O 0.0607(2) 0.02249(17) 0.2033(3)
O7 O 0.3707(3) 0.38771(18) 0.1199(3)
H11 H 0.3873 0.3250 0.1111
H12 H 0.3157 0.3980 0.1954
loop_
_geom_bond_atom_site_label_1
_geom_bond_atom_site_label_2
_geom_bond_site_symmetry_1
_geom_bond_site_symmetry_2
Mn1 O1 1_555 1_555
O1 C1 1_555 1_555
O2 C1 1_555 1_555
C1 C2 1_555 1_555
C2 H1 1_555 1_555
H2 C2 1_555 1_555
C3 C2 1_555 1_555
H3 C3 1_555 1_555
H4 C3 1_555 1_555
C4 C3 1_555 1_555
H5 C4 1_555 1_555
H6 C4 1_555 1_555
C5 C4 1_555 1_555
O3 C5 1_555 1_555
O4 C5 1_555 1_555
O5 Mn1 1_555 1_555
H7 O5 1_555 1_555
H8 O5 1_555 1_555
O6 Mn1 1_555 1_555
H9 O6 1_555 1_555
H10 O6 1_555 1_555
O7 H11 1_555 1_555
H12 O7 1_555 1_555
Mn1B O2 1_555 1_555
Mn1C O3 1_555 1_555
O2B Mn1 1_555 1_555
O3C Mn1 1_555 1_555
O4C Mn1 1_555 1_555
O4 Mn1C 1_555 1_555

#END
