
#######################################################################
#
#                 Cambridge Crystallographic Data Centre
#                                CCDC 
#
#######################################################################
#
# If this CIF has been generated from an entry in the Cambridge 
# Structural Database, then it will include bibliographic, chemical, 
# crystal, experimental, refinement or atomic coordinate data resulting 
# from the CCDC's data processing and validation procedures.
#
#######################################################################

data_CIKCOQ
_symmetry_cell_setting           monoclinic
_symmetry_space_group_name_H-M   'C 2/c'
_symmetry_Int_Tables_number      15
_space_group_name_Hall           '-C 2yn'
loop_
_symmetry_equiv_pos_site_id
_symmetry_equiv_pos_as_xyz
1 x,y,z
2 -x,y,1/2-z
3 1/2+x,1/2+y,z
4 1/2-x,1/2+y,1/2-z
5 -x,-y,-z
6 x,-y,1/2+z
7 1/2-x,1/2-y,-z
8 1/2+x,1/2-y,1/2+z
_cell_length_a                   10.170(2)
_cell_length_b                   20.659(4)
_cell_length_c                   7.6720(15)
_cell_angle_alpha                90
_cell_angle_beta                 104.26(3)
_cell_angle_gamma                90
_cell_volume                     1562.24
loop_
_atom_site_label
_atom_site_type_symbol
_atom_site_fract_x
_atom_site_fract_y
_atom_site_fract_z
Cd1 Cd 0.5000 0.644615(10) 0.7500
O1 O 0.65867(18) 0.56627(9) 0.7960(3)
O2 O 0.7481(2) 0.65886(9) 0.7432(3)
O3 O 0.5275(2) 0.64586(8) 1.0772(2)
N1 N 1.0000 0.25479(12) 0.7500
C1 C 0.8838(2) 0.28842(11) 0.7076(4)
H1 H 0.8023 0.2658 0.6792
C2 C 0.8801(2) 0.35496(11) 0.7044(4)
H2 H 0.7971 0.3763 0.6717
C3 C 1.0000 0.39051(14) 0.7500
C4 C 1.0000 0.46234(14) 0.7500
C5 C 0.8848(2) 0.49668(10) 0.7627(3)
H3 H 0.8075 0.4743 0.7721
C6 C 0.8838(2) 0.56407(10) 0.7614(3)
C7 C 1.0000 0.59732(14) 0.7500
H4 H 1.0000 0.6423 0.7500
C8 C 0.7558(2) 0.59869(11) 0.7693(3)
C9 C 0.4780(4) 0.70257(14) 1.1487(4)
H5 H 0.3797 0.7036 1.1104
H6 H 0.5125 0.7410 1.1024
C10 C 0.4789(3) 0.58863(14) 1.1482(4)
H7 H 0.5154 0.5505 1.1028
H8 H 0.3808 0.5869 1.1082
O1A O 1.34133(18) 0.56627(9) 0.7040(3)
O2A O 1.2519(2) 0.65886(9) 0.7568(3)
C1A C 1.1162(2) 0.28842(11) 0.7924(4)
H1A H 1.1977 0.2658 0.8208
C2A C 1.1199(2) 0.35496(11) 0.7956(4)
H2A H 1.2029 0.3763 0.8283
C5A C 1.1152(2) 0.49668(10) 0.7373(3)
H3A H 1.1925 0.4743 0.7279
C6A C 1.1162(2) 0.56407(10) 0.7386(3)
C8A C 1.2442(2) 0.59869(11) 0.7307(3)
O3A O 0.4725(2) 0.64586(8) 1.4228(2)
C9A C 0.5220(4) 0.70257(14) 1.3513(4)
H5A H 0.6203 0.7036 1.3896
H6A H 0.4875 0.7410 1.3976
C10A C 0.5211(3) 0.58863(14) 1.3518(4)
H7A H 0.4846 0.5505 1.3972
H8A H 0.6192 0.5869 1.3918
Cd1_2 Cd 0.5000 0.644615(10) 1.7500
Cd1_3 Cd 1.5000 0.644615(10) 0.7500
Cd1B Cd 1.0000 0.144615(10) 0.7500
O1A_2 O 0.34133(18) 0.56627(9) 0.7040(3)
O2A_2 O 0.2519(2) 0.65886(9) 0.7568(3)
O3A_2 O 0.4725(2) 0.64586(8) 0.4228(2)
N1B N 0.5000 0.75479(12) 0.7500
loop_
_geom_bond_atom_site_label_1
_geom_bond_atom_site_label_2
_geom_bond_site_symmetry_1
_geom_bond_site_symmetry_2
Cd1 O1 1_555 1_555
O1 C8 1_555 1_555
O2 Cd1 1_555 1_555
O3 Cd1 1_555 1_555
N1 C1 1_555 1_555
C1 H1 1_555 1_555
C2 C1 1_555 1_555
H2 C2 1_555 1_555
C3 C2 1_555 1_555
C4 C3 1_555 1_555
C5 C4 1_555 1_555
H3 C5 1_555 1_555
C6 C5 1_555 1_555
C7 C6 1_555 1_555
H4 C7 1_555 1_555
C8 O2 1_555 1_555
C9 O3 1_555 1_555
H5 C9 1_555 1_555
H6 C9 1_555 1_555
C10 O3 1_555 1_555
H7 C10 1_555 1_555
H8 C10 1_555 1_555
O1A C8A 1_555 1_555
O2A C8A 1_555 1_555
C1A N1 1_555 1_555
H1A C1A 1_555 1_555
C2A C3 1_555 1_555
H2A C2A 1_555 1_555
C5A C4 1_555 1_555
H3A C5A 1_555 1_555
C6A C7 1_555 1_555
C8A C6A 1_555 1_555
O3A C9A 1_555 1_555
C9A C9 1_555 1_555
H5A C9A 1_555 1_555
H6A C9A 1_555 1_555
C10A C10 1_555 1_555
H7A C10A 1_555 1_555
H8A C10A 1_555 1_555
Cd1_2 O3A 1_555 1_555
Cd1_3 O1A 1_555 1_555
Cd1B N1 1_555 1_555
O1A_2 Cd1 1_555 1_555
O2A_2 Cd1 1_555 1_555
O3A_2 Cd1 1_555 1_555
N1B Cd1 1_555 1_555
C6 C8 1_555 1_555
O2A Cd1_3 1_555 1_555
C1A C2A 1_555 1_555
C5A C6A 1_555 1_555
O3A C10A 1_555 1_555

#END
