
#######################################################################
#
#                 Cambridge Crystallographic Data Centre
#                                CCDC 
#
#######################################################################
#
# If this CIF has been generated from an entry in the Cambridge 
# Structural Database, then it will include bibliographic, chemical, 
# crystal, experimental, refinement or atomic coordinate data resulting 
# from the CCDC's data processing and validation procedures.
#
#######################################################################

data_CIKFOT
_symmetry_cell_setting           triclinic
_symmetry_space_group_name_H-M   'P -1'
_symmetry_Int_Tables_number      2
_space_group_name_Hall           '-P 1'
loop_
_symmetry_equiv_pos_site_id
_symmetry_equiv_pos_as_xyz
1 x,y,z
2 -x,-y,-z
_cell_length_a                   5.6716(11)
_cell_length_b                   9.3586(19)
_cell_length_c                   18.379(4)
_cell_angle_alpha                104.11(3)
_cell_angle_beta                 92.62(3)
_cell_angle_gamma                97.36(3)
_cell_volume                     935.291
loop_
_atom_site_label
_atom_site_type_symbol
_atom_site_fract_x
_atom_site_fract_y
_atom_site_fract_z
C1 C 0.2700(7) 1.0971(4) 0.2527(2)
C2 C 0.4330(8) 1.0857(5) 0.3094(3)
H1 H 0.5902 1.1308 0.3118
C3 C 0.3642(9) 1.0083(6) 0.3622(3)
H2 H 0.4747 1.0029 0.4000
C4 C 0.1321(8) 0.9392(4) 0.3587(2)
C5 C -0.0321(8) 0.9468(5) 0.3016(3)
H3 H -0.1879 0.8993 0.2986
C6 C 0.0374(8) 1.0257(5) 0.2490(2)
H4 H -0.0730 1.0306 0.2110
C7 C 0.3512(8) 1.1912(4) 0.1995(2)
H5 H 0.5022 1.2509 0.2210
H6 H 0.2369 1.2596 0.1985
C8 C 0.0624(9) 0.8592(5) 0.4172(2)
C9 C 0.1864(8) 0.5763(4) 0.2571(2)
C10 C 0.3735(8) 0.5831(5) 0.3105(2)
H7 H 0.5216 0.6364 0.3079
C11 C 0.3389(9) 0.5100(5) 0.3679(3)
H8 H 0.4646 0.5140 0.4030
C12 C 0.1184(8) 0.4317(5) 0.3726(2)
C13 C -0.0684(8) 0.4267(5) 0.3200(3)
H9 H -0.2177 0.3754 0.3233
C14 C -0.0330(8) 0.4979(5) 0.2627(2)
H10 H -0.1588 0.4929 0.2275
C15 C 0.2182(8) 0.6536(4) 0.1943(2)
H11 H 0.3557 0.7306 0.2086
H12 H 0.0796 0.7022 0.1891
C16 C 0.0757(9) 0.3514(5) 0.4326(2)
Tb1 Tb 0.11857(3) 0.805982(16) 0.001011(9)
O1 O 0.4485(5) 0.9414(3) 0.09473(16)
O2 O 0.1476(5) 1.0746(3) 0.05658(15)
O3 O 0.5806(5) 1.2025(3) 0.07798(15)
O4 O 0.2226(8) 0.8611(5) 0.4677(2)
H13 H 0.1633 0.8244 0.5001
O5 O -0.1484(7) 0.7943(4) 0.4142(2)
O6 O 0.2475(5) 0.6253(3) 0.04698(15)
O7 O 0.5254(5) 0.5030(3) 0.11309(17)
H14 H 0.5296 0.4135 0.0974
O8 O 0.0894(5) 0.3908(3) 0.08750(15)
O9 O 0.2471(8) 0.3512(5) 0.4789(2)
H15 H 0.1973 0.3128 0.5119
O10 O -0.1321(8) 0.2865(5) 0.4338(2)
O11 O -0.1992(5) 0.7736(3) 0.07871(17)
H16 H -0.2697 0.6898 0.0817
H17 H -0.3121 0.8260 0.0834
P1 P 0.38883(16) 1.09884(9) 0.10367(5)
P2 P 0.25820(17) 0.53493(9) 0.10412(5)
Tb1A Tb -0.11857(3) 0.194018(16) -0.001011(9)
Tb1A_2 Tb -0.11857(3) 1.194018(16) -0.001011(9)
Tb1A_3 Tb 0.88143(3) 1.194018(16) -0.001011(9)
O2A O -0.1476(5) 0.9254(3) -0.05658(15)
O3A O 0.4194(5) 0.7975(3) -0.07798(15)
O8A O -0.0894(5) 0.6092(3) -0.08750(15)
loop_
_geom_bond_atom_site_label_1
_geom_bond_atom_site_label_2
_geom_bond_site_symmetry_1
_geom_bond_site_symmetry_2
C1 C2 1_555 1_555
C2 H1 1_555 1_555
C3 C2 1_555 1_555
H2 C3 1_555 1_555
C4 C3 1_555 1_555
C5 C4 1_555 1_555
H3 C5 1_555 1_555
C6 C1 1_555 1_555
H4 C6 1_555 1_555
C7 C1 1_555 1_555
H5 C7 1_555 1_555
H6 C7 1_555 1_555
C8 C4 1_555 1_555
C9 C10 1_555 1_555
C10 H7 1_555 1_555
C11 C10 1_555 1_555
H8 C11 1_555 1_555
C12 C11 1_555 1_555
C13 C12 1_555 1_555
H9 C13 1_555 1_555
C14 C9 1_555 1_555
H10 C14 1_555 1_555
C15 C9 1_555 1_555
H11 C15 1_555 1_555
H12 C15 1_555 1_555
C16 C12 1_555 1_555
Tb1 O1 1_555 1_555
O1 P1 1_555 1_555
O2 Tb1 1_555 1_555
O3 P1 1_555 1_555
O4 C8 1_555 1_555
H13 O4 1_555 1_555
O5 C8 1_555 1_555
O6 Tb1 1_555 1_555
O7 H14 1_555 1_555
O8 P2 1_555 1_555
O9 C16 1_555 1_555
H15 O9 1_555 1_555
O10 C16 1_555 1_555
O11 Tb1 1_555 1_555
H16 O11 1_555 1_555
H17 O11 1_555 1_555
P1 C7 1_555 1_555
P2 C15 1_555 1_555
Tb1A O8 1_555 1_555
Tb1A_2 O2 1_555 1_555
Tb1A_3 O3 1_555 1_555
O2A Tb1 1_555 1_555
O3A Tb1 1_555 1_555
O8A Tb1 1_555 1_555
C5 C6 1_555 1_555
C13 C14 1_555 1_555
O2 P1 1_555 1_555
O6 P2 1_555 1_555
O7 P2 1_555 1_555
Tb1A_2 O2A 1_555 1_555

#END
