
#######################################################################
#
#                 Cambridge Crystallographic Data Centre
#                                CCDC 
#
#######################################################################
#
# If this CIF has been generated from an entry in the Cambridge 
# Structural Database, then it will include bibliographic, chemical, 
# crystal, experimental, refinement or atomic coordinate data resulting 
# from the CCDC's data processing and validation procedures.
#
#######################################################################

data_CIKGUA
_symmetry_cell_setting           triclinic
_symmetry_space_group_name_H-M   'P -1'
_symmetry_Int_Tables_number      2
_space_group_name_Hall           '-P 1'
loop_
_symmetry_equiv_pos_site_id
_symmetry_equiv_pos_as_xyz
1 x,y,z
2 -x,-y,-z
_cell_length_a                   5.742(3)
_cell_length_b                   9.574(4)
_cell_length_c                   18.271(10)
_cell_angle_alpha                105.130(19)
_cell_angle_beta                 92.58(2)
_cell_angle_gamma                97.44(2)
_cell_volume                     958.183
loop_
_atom_site_label
_atom_site_type_symbol
_atom_site_fract_x
_atom_site_fract_y
_atom_site_fract_z
C1 C 0.2699(9) 1.1000(5) 0.2572(3)
C2 C 0.4311(9) 1.0857(6) 0.3126(3)
H1 H 0.5873 1.1280 0.3148
C3 C 0.3626(9) 1.0087(6) 0.3652(3)
H2 H 0.4715 1.0024 0.4030
C4 C 0.1326(9) 0.9420(5) 0.3607(3)
C5 C -0.0283(9) 0.9512(6) 0.3041(3)
H3 H -0.1827 0.9048 0.3003
C6 C 0.0418(9) 1.0303(6) 0.2529(3)
H4 H -0.0672 1.0363 0.2151
C7 C 0.3501(9) 1.1944(4) 0.2056(2)
H5 H 0.5003 1.2519 0.2280
H6 H 0.2384 1.2625 0.2065
C8 C 0.0622(10) 0.8624(6) 0.4184(3)
C9 C 0.1827(9) 0.5779(5) 0.2633(3)
C10 C 0.3667(9) 0.5817(6) 0.3155(3)
H7 H 0.5135 0.6334 0.3130
C11 C 0.3338(9) 0.5081(6) 0.3725(3)
H8 H 0.4584 0.5106 0.4073
C12 C 0.1155(9) 0.4322(5) 0.3763(3)
C13 C -0.0684(9) 0.4294(6) 0.3243(3)
H9 H -0.2161 0.3793 0.3273
C14 C -0.0352(9) 0.5001(6) 0.2681(3)
H10 H -0.1601 0.4957 0.2330
C15 C 0.2134(9) 0.6550(5) 0.2017(3)
H11 H 0.3462 0.7328 0.2177
H12 H 0.0740 0.6999 0.1961
C16 C 0.0746(9) 0.3517(5) 0.4348(3)
Ce1 Ce 0.12710(3) 0.80412(2) -0.000070(12)
O1 O 0.4644(6) 0.9589(3) 0.0953(2)
O2 O 0.1417(5) 1.0771(3) 0.06289(17)
O3 O 0.5590(5) 1.2174(3) 0.08248(19)
O4 O 0.2195(9) 0.8628(6) 0.4688(3)
H13 H 0.1653 0.8144 0.4968
O5 O -0.1453(7) 0.7979(5) 0.4144(2)
O6 O 0.2590(6) 0.6315(3) 0.05456(19)
O7 O 0.5207(6) 0.5053(4) 0.1200(2)
H14 H 0.5224 0.4174 0.1026
O8 O 0.0905(6) 0.4006(3) 0.09003(19)
O9 O 0.2417(8) 0.3489(5) 0.4810(2)
H15 H 0.2070 0.2820 0.5007
O10 O -0.1325(8) 0.2876(6) 0.4357(3)
O11 O -0.2059(6) 0.7753(4) 0.0819(2)
H16 H -0.2765 0.6914 0.0849
H17 H -0.3188 0.8276 0.0866
P1 P 0.38479(18) 1.10776(11) 0.10759(6)
P2 P 0.26133(18) 0.53986(11) 0.11036(6)
Ce1A Ce -0.12710(3) 0.19588(2) 0.000070(12)
Ce1A_2 Ce -0.12710(3) 1.19588(2) 0.000070(12)
Ce1A_3 Ce 0.87290(3) 1.19588(2) 0.000070(12)
O2A O -0.1417(5) 0.9229(3) -0.06289(17)
O3A O 0.4410(5) 0.7826(3) -0.08248(19)
O8A O -0.0905(6) 0.5994(3) -0.09003(19)
loop_
_geom_bond_atom_site_label_1
_geom_bond_atom_site_label_2
_geom_bond_site_symmetry_1
_geom_bond_site_symmetry_2
C1 C2 1_555 1_555
C2 H1 1_555 1_555
C3 C2 1_555 1_555
H2 C3 1_555 1_555
C4 C3 1_555 1_555
C5 C4 1_555 1_555
H3 C5 1_555 1_555
C6 C1 1_555 1_555
H4 C6 1_555 1_555
C7 C1 1_555 1_555
H5 C7 1_555 1_555
H6 C7 1_555 1_555
C8 C4 1_555 1_555
C9 C10 1_555 1_555
C10 H7 1_555 1_555
C11 C10 1_555 1_555
H8 C11 1_555 1_555
C12 C11 1_555 1_555
C13 C12 1_555 1_555
H9 C13 1_555 1_555
C14 C9 1_555 1_555
H10 C14 1_555 1_555
C15 C9 1_555 1_555
H11 C15 1_555 1_555
H12 C15 1_555 1_555
C16 C12 1_555 1_555
Ce1 O1 1_555 1_555
O1 P1 1_555 1_555
O2 Ce1 1_555 1_555
O3 P1 1_555 1_555
O4 C8 1_555 1_555
H13 O4 1_555 1_555
O5 C8 1_555 1_555
O6 Ce1 1_555 1_555
O7 H14 1_555 1_555
O8 P2 1_555 1_555
O9 C16 1_555 1_555
H15 O9 1_555 1_555
O10 C16 1_555 1_555
O11 Ce1 1_555 1_555
H16 O11 1_555 1_555
H17 O11 1_555 1_555
P1 C7 1_555 1_555
P2 C15 1_555 1_555
Ce1A O8 1_555 1_555
Ce1A_2 O2 1_555 1_555
Ce1A_3 O3 1_555 1_555
O2A Ce1 1_555 1_555
O3A Ce1 1_555 1_555
O8A Ce1 1_555 1_555
C5 C6 1_555 1_555
C13 C14 1_555 1_555
O2 P1 1_555 1_555
O6 P2 1_555 1_555
O7 P2 1_555 1_555
Ce1A_2 O2A 1_555 1_555

#END
