
#######################################################################
#
#                 Cambridge Crystallographic Data Centre
#                                CCDC 
#
#######################################################################
#
# If this CIF has been generated from an entry in the Cambridge 
# Structural Database, then it will include bibliographic, chemical, 
# crystal, experimental, refinement or atomic coordinate data resulting 
# from the CCDC's data processing and validation procedures.
#
#######################################################################

data_CIKGEK
_symmetry_cell_setting           triclinic
_symmetry_space_group_name_H-M   'P -1'
_symmetry_Int_Tables_number      2
_space_group_name_Hall           '-P 1'
loop_
_symmetry_equiv_pos_site_id
_symmetry_equiv_pos_as_xyz
1 x,y,z
2 -x,-y,-z
_cell_length_a                   5.7113(11)
_cell_length_b                   9.4497(19)
_cell_length_c                   18.326(4)
_cell_angle_alpha                104.47(3)
_cell_angle_beta                 92.56(3)
_cell_angle_gamma                97.42(3)
_cell_volume                     946.608
loop_
_atom_site_label
_atom_site_type_symbol
_atom_site_fract_x
_atom_site_fract_y
_atom_site_fract_z
C1 C 0.2708(7) 1.0983(4) 0.2541(2)
C2 C 0.4317(8) 1.0863(5) 0.3109(2)
H1 H 0.5879 1.1312 0.3140
C3 C 0.3618(8) 1.0079(5) 0.3630(2)
H2 H 0.4716 1.0010 0.4005
C4 C 0.1331(8) 0.9410(4) 0.3598(2)
C5 C -0.0298(7) 0.9498(5) 0.3026(2)
H3 H -0.1850 0.9031 0.2993
C6 C 0.0400(7) 1.0282(4) 0.2504(2)
H4 H -0.0696 1.0339 0.2125
C7 C 0.3508(8) 1.1915(4) 0.2019(2)
H5 H 0.5009 1.2504 0.2238
H6 H 0.2376 1.2596 0.2016
C8 C 0.0620(8) 0.8609(4) 0.4176(2)
C9 C 0.1843(7) 0.5769(4) 0.2595(2)
C10 C 0.3694(8) 0.5829(5) 0.3129(2)
H7 H 0.5165 0.6361 0.3105
C11 C 0.3355(8) 0.5094(5) 0.3700(2)
H8 H 0.4602 0.5134 0.4052
C12 C 0.1186(8) 0.4318(4) 0.3742(2)
C13 C -0.0685(8) 0.4281(5) 0.3218(2)
H9 H -0.2170 0.3778 0.3252
C14 C -0.0336(8) 0.4992(5) 0.2648(2)
H10 H -0.1587 0.4946 0.2297
C15 C 0.2162(7) 0.6538(4) 0.1970(2)
H11 H 0.3519 0.7308 0.2120
H12 H 0.0779 0.7012 0.1917
C16 C 0.0745(8) 0.3514(5) 0.4333(2)
Sm1 Sm 0.12159(3) 0.805321(17) 0.000613(9)
O1 O 0.4541(5) 0.9472(3) 0.09532(14)
O2 O 0.1463(4) 1.0759(3) 0.05885(14)
O3 O 0.5726(5) 1.2077(3) 0.07946(14)
O4 O 0.2220(7) 0.8622(4) 0.4681(2)
H13 H 0.1702 0.8102 0.4952
O5 O -0.1469(6) 0.7966(4) 0.41423(19)
O6 O 0.2501(5) 0.6266(3) 0.04984(14)
O7 O 0.5228(5) 0.5036(3) 0.11547(16)
H14 H 0.5235 0.4140 0.1045
O8 O 0.0898(5) 0.3948(3) 0.08854(14)
O9 O 0.2441(7) 0.3503(4) 0.4798(2)
H15 H 0.1948 0.3079 0.5113
O10 O -0.1311(7) 0.2871(5) 0.4345(2)
O11 O -0.2016(5) 0.7743(3) 0.07997(16)
H16 H -0.2721 0.6905 0.0829
H17 H -0.3145 0.8267 0.0847
P1 P 0.38788(16) 1.10198(9) 0.10518(5)
P2 P 0.25857(16) 0.53651(9) 0.10645(5)
Sm1A Sm -0.12159(3) 0.194679(17) -0.000613(9)
Sm1A_2 Sm -0.12159(3) 1.194679(17) -0.000613(9)
Sm1A_3 Sm 0.87841(3) 1.194679(17) -0.000613(9)
O2A O -0.1463(4) 0.9241(3) -0.05885(14)
O3A O 0.4274(5) 0.7923(3) -0.07946(14)
O8A O -0.0898(5) 0.6052(3) -0.08854(14)
loop_
_geom_bond_atom_site_label_1
_geom_bond_atom_site_label_2
_geom_bond_site_symmetry_1
_geom_bond_site_symmetry_2
C1 C2 1_555 1_555
C2 H1 1_555 1_555
C3 C2 1_555 1_555
H2 C3 1_555 1_555
C4 C3 1_555 1_555
C5 C4 1_555 1_555
H3 C5 1_555 1_555
C6 C1 1_555 1_555
H4 C6 1_555 1_555
C7 C1 1_555 1_555
H5 C7 1_555 1_555
H6 C7 1_555 1_555
C8 C4 1_555 1_555
C9 C10 1_555 1_555
C10 H7 1_555 1_555
C11 C10 1_555 1_555
H8 C11 1_555 1_555
C12 C11 1_555 1_555
C13 C12 1_555 1_555
H9 C13 1_555 1_555
C14 C9 1_555 1_555
H10 C14 1_555 1_555
C15 C9 1_555 1_555
H11 C15 1_555 1_555
H12 C15 1_555 1_555
C16 C12 1_555 1_555
Sm1 O1 1_555 1_555
O1 P1 1_555 1_555
O2 Sm1 1_555 1_555
O3 P1 1_555 1_555
O4 C8 1_555 1_555
H13 O4 1_555 1_555
O5 C8 1_555 1_555
O6 Sm1 1_555 1_555
O7 H14 1_555 1_555
O8 P2 1_555 1_555
O9 C16 1_555 1_555
H15 O9 1_555 1_555
O10 C16 1_555 1_555
O11 Sm1 1_555 1_555
H16 O11 1_555 1_555
H17 O11 1_555 1_555
P1 C7 1_555 1_555
P2 C15 1_555 1_555
Sm1A O8 1_555 1_555
Sm1A_2 O2 1_555 1_555
Sm1A_3 O3 1_555 1_555
O2A Sm1 1_555 1_555
O3A Sm1 1_555 1_555
O8A Sm1 1_555 1_555
C5 C6 1_555 1_555
C13 C14 1_555 1_555
O2 P1 1_555 1_555
O6 P2 1_555 1_555
O7 P2 1_555 1_555
Sm1A_2 O2A 1_555 1_555

#END
