
#######################################################################
#
#                 Cambridge Crystallographic Data Centre
#                                CCDC 
#
#######################################################################
#
# If this CIF has been generated from an entry in the Cambridge 
# Structural Database, then it will include bibliographic, chemical, 
# crystal, experimental, refinement or atomic coordinate data resulting 
# from the CCDC's data processing and validation procedures.
#
#######################################################################

data_CIKJIR
_symmetry_cell_setting           triclinic
_symmetry_space_group_name_H-M   'P -1'
_symmetry_Int_Tables_number      2
_space_group_name_Hall           '-P 1'
loop_
_symmetry_equiv_pos_site_id
_symmetry_equiv_pos_as_xyz
1 x,y,z
2 -x,-y,-z
_cell_length_a                   9.3134(19)
_cell_length_b                   9.778(2)
_cell_length_c                   11.839(2)
_cell_angle_alpha                70.28(3)
_cell_angle_beta                 72.01(3)
_cell_angle_gamma                67.68(3)
_cell_volume                     918.43
loop_
_atom_site_label
_atom_site_type_symbol
_atom_site_fract_x
_atom_site_fract_y
_atom_site_fract_z
C1 C 0.3858(3) 0.6420(3) 0.6100(3)
C2 C 0.2512(4) 0.7559(4) 0.5728(3)
H1 H 0.1517 0.7428 0.6088
C3 C 0.2636(4) 0.8885(4) 0.4828(3)
H2 H 0.1729 0.9632 0.4591
C4 C 0.4117(4) 0.9094(4) 0.4282(3)
C5 C 0.5455(4) 0.8002(4) 0.4649(3)
H3 H 0.6443 0.8147 0.4288
C6 C 0.5335(3) 0.6679(4) 0.5561(3)
H4 H 0.6243 0.5959 0.5817
C7 C 0.5597(4) 1.0664(3) 0.2730(3)
H5 H 0.6226 0.9855 0.2316
H6 H 0.6169 1.0629 0.3304
C8 C 0.5337(4) 1.2200(3) 0.1797(3)
C9 C 0.2295(3) 0.4679(4) 0.7208(3)
H7 H 0.2553 0.3576 0.7476
H8 H 0.1955 0.5002 0.6437
C10 C 0.0903(3) 0.5358(4) 0.8149(3)
C11 C 0.5176(3) 0.3833(3) 0.7197(3)
H9 H 0.5922 0.3785 0.6419
H10 H 0.4934 0.2874 0.7531
C12 C 0.5949(3) 0.4016(3) 0.8070(3)
N1 N 0.3728(3) 0.5069(3) 0.6981(2)
O1 O 0.5109(2) 0.4294(3) 0.90842(19)
O2 O 0.7406(2) 0.3862(3) 0.7818(2)
O3 O 0.1055(3) 0.6035(3) 0.8819(2)
O4 O -0.0381(3) 0.5173(3) 0.8193(2)
O5 O 0.4102(3) 1.0447(3) 0.3371(2)
O6 O 0.3957(3) 1.3016(3) 0.1693(2)
O7 O 0.6615(3) 1.2490(3) 0.1191(2)
O8 O 0.7638(3) 0.6956(3) 0.9996(2)
H11 H 0.8525 0.7093 0.9649
H12 H 0.6897 0.7780 0.9842
O9 O 0.9577(4) 0.2170(3) 0.9496(3)
H13 H 1.0000 0.1846 0.8852
H14 H 0.9635 0.1442 1.0137
Sm1 Sm 0.735290(15) 0.464375(17) 0.969090(13)
O1A O 0.4891(2) 0.5706(3) 1.09158(19)
O3A O 0.8945(3) 0.3965(3) 1.1181(2)
O4_2 O 0.9619(3) 0.5173(3) 0.8193(2)
O6A O 0.6043(3) 0.6984(3) 0.8307(2)
O7_2 O 0.6615(3) 0.2490(3) 1.1191(2)
Sm1_2 Sm -0.264710(15) 0.464375(17) 0.969090(13)
Sm1_3 Sm 0.735290(15) 1.464375(17) -0.030910(13)
Sm1A Sm 0.264710(15) 0.535625(17) 1.030910(13)
Sm1A_2 Sm 0.264710(15) 1.535625(17) 0.030910(13)
O10 O 0.9693(5) 0.7667(5) 0.3462(4)
H15 H 1.0421 0.6880 0.3289
H16 H 0.9323 0.7604 0.4220
O11 O 0.1316(4) 0.2942(4) 0.4048(3)
H17 H 0.2226 0.2551 0.3652
H18 H 0.0833 0.3761 0.3597
O12 O 0.0207(7) 0.9671(6) 0.8063(5)
H19 H 0.0658 1.0252 0.7481
H20 H -0.0658 0.9758 0.7926
O14 O 0.2978(10) 0.0046(10) 0.1524(8)
O13? O 0.451(3) -0.014(3) 0.047(2)
loop_
_geom_bond_atom_site_label_1
_geom_bond_atom_site_label_2
_geom_bond_site_symmetry_1
_geom_bond_site_symmetry_2
C1 C2 1_555 1_555
C2 H1 1_555 1_555
C3 C2 1_555 1_555
H2 C3 1_555 1_555
C4 C3 1_555 1_555
C5 C4 1_555 1_555
H3 C5 1_555 1_555
C6 C1 1_555 1_555
H4 C6 1_555 1_555
C7 H5 1_555 1_555
H6 C7 1_555 1_555
C8 C7 1_555 1_555
C9 H7 1_555 1_555
H8 C9 1_555 1_555
C10 C9 1_555 1_555
C11 H9 1_555 1_555
H10 C11 1_555 1_555
C12 C11 1_555 1_555
N1 C1 1_555 1_555
O1 C12 1_555 1_555
O2 C12 1_555 1_555
O3 C10 1_555 1_555
O4 C10 1_555 1_555
O5 C4 1_555 1_555
O6 C8 1_555 1_555
O7 C8 1_555 1_555
O8 H11 1_555 1_555
H12 O8 1_555 1_555
O9 H13 1_555 1_555
H14 O9 1_555 1_555
Sm1 O1 1_555 1_555
O10 H15 1_555 1_555
H16 O10 1_555 1_555
O11 H17 1_555 1_555
H18 O11 1_555 1_555
O12 H19 1_555 1_555
H20 O12 1_555 1_555
O1A Sm1 1_555 1_555
O3A Sm1 1_555 1_555
O4_2 Sm1 1_555 1_555
O6A Sm1 1_555 1_555
O7_2 Sm1 1_555 1_555
Sm1_2 O4 1_555 1_555
Sm1_3 O7 1_555 1_555
Sm1A O1 1_555 1_555
Sm1A_2 O6 1_555 1_555
C5 C6 1_555 1_555
C7 O5 1_555 1_555
C9 N1 1_555 1_555
C11 N1 1_555 1_555
O2 Sm1 1_555 1_555
O3 Sm1A 1_555 1_555
O8 Sm1 1_555 1_555
O9 Sm1 1_555 1_555
O1A Sm1A 1_555 1_555

#END
