
#######################################################################
#
#                 Cambridge Crystallographic Data Centre
#                                CCDC 
#
#######################################################################
#
# If this CIF has been generated from an entry in the Cambridge 
# Structural Database, then it will include bibliographic, chemical, 
# crystal, experimental, refinement or atomic coordinate data resulting 
# from the CCDC's data processing and validation procedures.
#
#######################################################################

data_CIKQEU
_symmetry_cell_setting           trigonal
_symmetry_space_group_name_H-M   'P -3 1 c'
_symmetry_Int_Tables_number      163
_space_group_name_Hall           "-P 3 2'c"
loop_
_symmetry_equiv_pos_site_id
_symmetry_equiv_pos_as_xyz
1 x,y,z
2 -y,x-y,z
3 -x+y,-x,z
4 -y,-x,1/2-z
5 -x+y,y,1/2-z
6 x,x-y,1/2-z
7 -x,-y,-z
8 y,-x+y,-z
9 x-y,x,-z
10 y,x,1/2+z
11 x-y,-y,1/2+z
12 -x,-x+y,1/2+z
_cell_length_a                   16.6972(19)
_cell_length_b                   16.6972(19)
_cell_length_c                   14.3042(18)
_cell_angle_alpha                90
_cell_angle_beta                 90
_cell_angle_gamma                120
_cell_volume                     3453.68
loop_
_atom_site_label
_atom_site_type_symbol
_atom_site_fract_x
_atom_site_fract_y
_atom_site_fract_z
C1 C 0.2118(3) 0.7003(3) 0.1060(5)
C2 C 0.1417(3) 0.7301(3) 0.1141(4)
C3 C 0.0917(4) 0.7139(3) 0.1948(4)
H1 H 0.1012 0.6832 0.2440
C4 C 0.0263(4) 0.7428(3) 0.2048(4)
H2 H -0.0081 0.7311 0.2594
C5 C 0.0149(3) 0.7891(3) 0.1309(4)
C6 C 0.0634(4) 0.8050(4) 0.0492(4)
H3 H 0.0537 0.8355 -0.0001
C7 C 0.1271(4) 0.7753(4) 0.0409(4)
H4 H 0.1603 0.7859 -0.0143
C8 C -0.0219(3) 0.9092(3) 0.1346(3)
C9 C -0.0931(3) 0.9293(3) 0.1346(3)
H5 H -0.1548 0.8826 0.1346
O1 O 0.2259(3) 0.6630(3) 0.1734(4)
O2 O 0.2524(3) 0.7144(3) 0.0270(3)
O3 O 0.3333 0.6667 -0.1352(8)
O4 O -0.0508(2) 0.8165(2) 0.1412(3)
Zn1 Zn 0.3333 0.6667 0.2500
Zn2 Zn 0.3333 0.6667 0.00282(8)
C1A C 0.2997(3) 1.5115(4) 0.1060(5)
C2A C 0.2699(3) 1.4116(4) 0.1141(4)
C3A C 0.2861(3) 1.3778(5) 0.1948(4)
H1A H 0.3168 1.4180 0.2440
C4A C 0.2572(3) 1.2835(5) 0.2048(4)
H2A H 0.2689 1.2608 0.2594
C5A C 0.2109(3) 1.2258(4) 0.1309(4)
C6A C 0.1950(4) 1.2584(6) 0.0492(4)
H3A H 0.1645 1.2182 -0.0001
C7A C 0.2247(4) 1.3518(6) 0.0409(4)
H4A H 0.2141 1.3744 -0.0143
C8A C 0.0908(3) 1.0689(4) 0.1346(3)
C9A C 0.0707(3) 0.9776(4) 0.1346(3)
H5A H 0.1174 0.9626 0.1346
O1A O 0.3370(3) 1.5629(4) 0.1734(4)
O2A O 0.2856(3) 1.5380(4) 0.0270(3)
O4A O 0.1835(2) 1.1327(3) 0.1412(3)
C1B C -0.5115(4) 0.7882(3) 0.1060(5)
C2B C -0.4116(4) 0.8583(3) 0.1141(4)
C3B C -0.3778(5) 0.9083(4) 0.1948(4)
H1B H -0.4180 0.8988 0.2440
C4B C -0.2835(5) 0.9737(4) 0.2048(4)
H2B H -0.2608 1.0081 0.2594
C5B C -0.2258(4) 0.9851(3) 0.1309(4)
C6B C -0.2584(6) 0.9366(4) 0.0492(4)
H3B H -0.2182 0.9463 -0.0001
C7B C -0.3518(6) 0.8729(4) 0.0409(4)
H4B H -0.3744 0.8397 -0.0143
C8B C -0.0689(4) 1.0219(3) 0.1346(3)
C9B C 0.0224(4) 1.0931(3) 0.1346(3)
H5B H 0.0374 1.1548 0.1346
O1B O -0.5629(4) 0.7741(3) 0.1734(4)
O2B O -0.5380(4) 0.7476(3) 0.0270(3)
O4B O -0.1327(3) 1.0508(2) 0.1412(3)
C1A_2 C -0.7003(3) 0.5115(4) 0.1060(5)
C2A_2 C -0.7301(3) 0.4116(4) 0.1141(4)
C3A_2 C -0.7139(3) 0.3778(5) 0.1948(4)
H1A_2 H -0.6832 0.4180 0.2440
C4A_2 C -0.7428(3) 0.2835(5) 0.2048(4)
H2A_2 H -0.7311 0.2608 0.2594
C5A_2 C -0.7891(3) 0.2258(4) 0.1309(4)
C6A_2 C -0.8050(4) 0.2584(6) 0.0492(4)
H3A_2 H -0.8355 0.2182 -0.0001
C7A_2 C -0.7753(4) 0.3518(6) 0.0409(4)
H4A_2 H -0.7859 0.3744 -0.0143
C8A_2 C -0.9092(3) 0.0689(4) 0.1346(3)
C9A_2 C -0.9293(3) -0.0224(4) 0.1346(3)
H5A_2 H -0.8826 -0.0374 0.1346
O1A_2 O -0.6630(3) 0.5629(4) 0.1734(4)
O2A_2 O -0.7144(3) 0.5380(4) 0.0270(3)
O3_2 O -0.6667 0.6667 -0.1352(8)
O4A_2 O -0.8165(2) 0.1327(3) 0.1412(3)
Zn2_2 Zn -0.6667 0.6667 0.00282(8)
C1B_2 C -1.5115(4) -0.2118(3) 0.1060(5)
C2B_2 C -1.4116(4) -0.1417(3) 0.1141(4)
C3B_2 C -1.3778(5) -0.0917(4) 0.1948(4)
H1B_2 H -1.4180 -0.1012 0.2440
C4B_2 C -1.2835(5) -0.0263(4) 0.2048(4)
H2B_2 H -1.2608 0.0081 0.2594
C5B_2 C -1.2258(4) -0.0149(3) 0.1309(4)
C6B_2 C -1.2584(6) -0.0634(4) 0.0492(4)
H3B_2 H -1.2182 -0.0537 -0.0001
C7B_2 C -1.3518(6) -0.1271(4) 0.0409(4)
H4B_2 H -1.3744 -0.1603 -0.0143
C8B_2 C -1.0689(4) 0.0219(3) 0.1346(3)
C9B_2 C -0.9776(4) 0.0931(3) 0.1346(3)
H5B_2 H -0.9626 0.1548 0.1346
O1B_2 O -1.5629(4) -0.2259(3) 0.1734(4)
O2B_2 O -1.5380(4) -0.2524(3) 0.0270(3)
O4B_2 O -1.1327(3) 0.0508(2) 0.1412(3)
C1_2 C -0.7882(3) -0.2997(3) 0.1060(5)
C2_2 C -0.8583(3) -0.2699(3) 0.1141(4)
C3_2 C -0.9083(4) -0.2861(3) 0.1948(4)
H1_2 H -0.8988 -0.3168 0.2440
C4_2 C -0.9737(4) -0.2572(3) 0.2048(4)
H2_2 H -1.0081 -0.2689 0.2594
C5_2 C -0.9851(3) -0.2109(3) 0.1309(4)
C6_2 C -0.9366(4) -0.1950(4) 0.0492(4)
H3_2 H -0.9463 -0.1645 -0.0001
C7_2 C -0.8729(4) -0.2247(4) 0.0409(4)
H4_2 H -0.8397 -0.2141 -0.0143
C8_2 C -1.0219(3) -0.0908(3) 0.1346(3)
C9_2 C -1.0931(3) -0.0707(3) 0.1346(3)
H5_2 H -1.1548 -0.1174 0.1346
O1_2 O -0.7741(3) -0.3370(3) 0.1734(4)
O2_2 O -0.7476(3) -0.2856(3) 0.0270(3)
O4_2 O -1.0508(2) -0.1835(2) 0.1412(3)
O1A_3 O 0.3370(3) 0.5629(4) 0.1734(4)
O1B_3 O 0.4371(4) 0.7741(3) 0.1734(4)
O1C O 0.3370(3) 0.7741(3) 0.3266(4)
O1D O 0.4371(4) 0.6630(3) 0.3266(4)
O1E O 0.2259(3) 0.5629(4) 0.3266(4)
O2_3 O -0.7476(3) 0.7144(3) 0.0270(3)
O2A_3 O 0.2856(3) 0.5380(4) 0.0270(3)
O2B_3 O 0.4620(4) 0.7476(3) 0.0270(3)
Zn1_2 Zn -1.6667 -0.3333 0.2500
Zn1_3 Zn -0.6667 -0.3333 0.2500
Zn1_4 Zn -0.6667 0.6667 0.2500
Zn1_5 Zn 0.3333 1.6667 0.2500
Zn2_3 Zn -1.6667 -0.3333 0.00282(8)
Zn2_4 Zn -0.6667 -0.3333 0.00282(8)
Zn2_5 Zn 0.3333 1.6667 0.00282(8)
C10 C 0.055(3) 0.509(6) -0.047(7)
C11 C -0.046(3) 0.535(2) -0.031(3)
C12 C 0.024(8) 0.557(11) -0.088(12)
C10F C -0.055(3) 0.491(6) 0.047(7)
C11F C 0.046(3) 0.465(2) 0.031(3)
C12F C -0.024(8) 0.443(11) 0.088(12)
loop_
_geom_bond_atom_site_label_1
_geom_bond_atom_site_label_2
_geom_bond_site_symmetry_1
_geom_bond_site_symmetry_2
C1 C2 1_555 1_555
C2 C3 1_555 1_555
C3 H1 1_555 1_555
C4 C3 1_555 1_555
H2 C4 1_555 1_555
C5 C4 1_555 1_555
C6 C5 1_555 1_555
H3 C6 1_555 1_555
C7 C2 1_555 1_555
H4 C7 1_555 1_555
C8 C9 1_555 1_555
C9 H5 1_555 1_555
O1 C1 1_555 1_555
O2 C1 1_555 1_555
O3 Zn2 1_555 1_555
O4 C5 1_555 1_555
Zn1 O1 1_555 1_555
Zn2 O2 1_555 1_555
C10 C12 1_555 1_555
C11 C12 1_555 1_555
C1A C2A 1_555 1_555
C2A C3A 1_555 1_555
C3A H1A 1_555 1_555
C4A C3A 1_555 1_555
H2A C4A 1_555 1_555
C5A C4A 1_555 1_555
C6A C5A 1_555 1_555
H3A C6A 1_555 1_555
C7A C2A 1_555 1_555
H4A C7A 1_555 1_555
C8A C9A 1_555 1_555
C9A C8 1_555 1_555
H5A C9A 1_555 1_555
O1A C1A 1_555 1_555
O2A C1A 1_555 1_555
O4A C5A 1_555 1_555
C1B C2B 1_555 1_555
C2B C3B 1_555 1_555
C3B H1B 1_555 1_555
C4B C3B 1_555 1_555
H2B C4B 1_555 1_555
C5B C4B 1_555 1_555
C6B C5B 1_555 1_555
H3B C6B 1_555 1_555
C7B C2B 1_555 1_555
H4B C7B 1_555 1_555
C8B C9 1_555 1_555
C9B C8A 1_555 1_555
H5B C9B 1_555 1_555
O1B C1B 1_555 1_555
O2B C1B 1_555 1_555
O4B C5B 1_555 1_555
C1A_2 C2A_2 1_555 1_555
C2A_2 C3A_2 1_555 1_555
C3A_2 H1A_2 1_555 1_555
C4A_2 C3A_2 1_555 1_555
H2A_2 C4A_2 1_555 1_555
C5A_2 C4A_2 1_555 1_555
C6A_2 C5A_2 1_555 1_555
H3A_2 C6A_2 1_555 1_555
C7A_2 C2A_2 1_555 1_555
H4A_2 C7A_2 1_555 1_555
C8A_2 C9A_2 1_555 1_555
C9A_2 H5A_2 1_555 1_555
O1A_2 C1A_2 1_555 1_555
O2A_2 C1A_2 1_555 1_555
O3_2 Zn2_2 1_555 1_555
O4A_2 C5A_2 1_555 1_555
Zn2_2 O2B 1_555 1_555
C1B_2 C2B_2 1_555 1_555
C2B_2 C3B_2 1_555 1_555
C3B_2 H1B_2 1_555 1_555
C4B_2 C3B_2 1_555 1_555
H2B_2 C4B_2 1_555 1_555
C5B_2 C4B_2 1_555 1_555
C6B_2 C5B_2 1_555 1_555
H3B_2 C6B_2 1_555 1_555
C7B_2 C2B_2 1_555 1_555
H4B_2 C7B_2 1_555 1_555
C8B_2 C9B_2 1_555 1_555
C9B_2 C8A_2 1_555 1_555
H5B_2 C9B_2 1_555 1_555
O1B_2 C1B_2 1_555 1_555
O2B_2 C1B_2 1_555 1_555
O4B_2 C5B_2 1_555 1_555
C1_2 C2_2 1_555 1_555
C2_2 C3_2 1_555 1_555
C3_2 H1_2 1_555 1_555
C4_2 C3_2 1_555 1_555
H2_2 C4_2 1_555 1_555
C5_2 C4_2 1_555 1_555
C6_2 C5_2 1_555 1_555
H3_2 C6_2 1_555 1_555
C7_2 C2_2 1_555 1_555
H4_2 C7_2 1_555 1_555
C8_2 C9A_2 1_555 1_555
C9_2 C8B_2 1_555 1_555
H5_2 C9_2 1_555 1_555
O1_2 C1_2 1_555 1_555
O2_2 C1_2 1_555 1_555
O4_2 C5_2 1_555 1_555
O1A_3 Zn1 1_555 1_555
O1B_3 Zn1 1_555 1_555
O1C Zn1 1_555 1_555
O1D Zn1 1_555 1_555
O1E Zn1 1_555 1_555
O2_3 Zn2_2 1_555 1_555
O2A_3 Zn2 1_555 1_555
O2B_3 Zn2 1_555 1_555
Zn1_2 O1B_2 1_555 1_555
Zn1_3 O1_2 1_555 1_555
Zn1_4 O1B 1_555 1_555
Zn1_5 O1A 1_555 1_555
Zn2_3 O2B_2 1_555 1_555
Zn2_4 O2_2 1_555 1_555
Zn2_5 O2A 1_555 1_555
C10F C11 1_555 1_555
C11F C10 1_555 1_555
C12F C10F 1_555 1_555
C6 C7 1_555 1_555
C8 O4 1_555 1_555
C6A C7A 1_555 1_555
C8A O4A 1_555 1_555
C6B C7B 1_555 1_555
C8B C9B 1_555 1_555
C8B O4B 1_555 1_555
C6A_2 C7A_2 1_555 1_555
C8A_2 O4A_2 1_555 1_555
O1A_2 Zn1_4 1_555 1_555
O2A_2 Zn2_2 1_555 1_555
C6B_2 C7B_2 1_555 1_555
C8B_2 O4B_2 1_555 1_555
C6_2 C7_2 1_555 1_555
C8_2 C9_2 1_555 1_555
C8_2 O4_2 1_555 1_555
C11F C12F 1_555 1_555

#END
