
#######################################################################
#
#                 Cambridge Crystallographic Data Centre
#                                CCDC 
#
#######################################################################
#
# If this CIF has been generated from an entry in the Cambridge 
# Structural Database, then it will include bibliographic, chemical, 
# crystal, experimental, refinement or atomic coordinate data resulting 
# from the CCDC's data processing and validation procedures.
#
#######################################################################

data_CIKQUK
_symmetry_cell_setting           monoclinic
_symmetry_space_group_name_H-M   'P 21/c'
_symmetry_Int_Tables_number      14
_space_group_name_Hall           '-P 2ybc'
loop_
_symmetry_equiv_pos_site_id
_symmetry_equiv_pos_as_xyz
1 x,y,z
2 -x,1/2+y,1/2-z
3 -x,-y,-z
4 x,1/2-y,1/2+z
_cell_length_a                   13.1405(17)
_cell_length_b                   9.3253(13)
_cell_length_c                   11.0933(15)
_cell_angle_alpha                90
_cell_angle_beta                 101.347(4)
_cell_angle_gamma                90
_cell_volume                     1332.79
loop_
_atom_site_label
_atom_site_type_symbol
_atom_site_fract_x
_atom_site_fract_y
_atom_site_fract_z
Mn1 Mn 0.89842(4) 0.16586(6) 0.16988(5)
Na1 Na 0.84740(12) 0.83212(18) 0.29625(15)
O1 O 0.3653(3) 0.0666(4) -0.3020(3)
O2 O 0.3449(2) 0.2409(3) -0.1814(3)
O3 O 0.7804(2) 0.0173(3) 0.0835(2)
O4 O 0.9125(2) 0.2442(3) -0.0137(2)
O5 O 0.8619(2) 0.4109(3) -0.1573(2)
O6 O 0.98104(19) 0.3750(3) 0.2402(2)
O7 O 0.9480(2) 0.5948(3) 0.3045(2)
N1 N 0.3981(3) 0.1427(4) -0.2121(3)
N2 N 0.7775(2) 0.3404(3) 0.1331(3)
C1 C 0.4994(3) 0.1131(5) -0.1389(3)
C2 C 0.5514(3) -0.0126(5) -0.1585(3)
H1 H 0.5226 -0.0755 -0.2224
C3 C 0.6452(3) -0.0435(4) -0.0836(3)
H2 H 0.6797 -0.1287 -0.0966
C4 C 0.6912(3) 0.0501(4) 0.0132(3)
C5 C 0.6355(3) 0.1781(4) 0.0301(3)
C6 C 0.5413(3) 0.2068(4) -0.0461(3)
H3 H 0.5053 0.2913 -0.0346
C7 C 0.6738(3) 0.2779(4) 0.1361(3)
H4 H 0.6236 0.3559 0.1346
H5 H 0.6777 0.2253 0.2133
C8 C 0.7813(3) 0.4139(4) 0.0140(3)
H6 H 0.7990 0.5150 0.0309
H7 H 0.7120 0.4105 -0.0384
C9 C 0.8586(3) 0.3498(4) -0.0564(3)
C10 C 0.8054(3) 0.4425(4) 0.2357(3)
H8 H 0.7858 0.4026 0.3096
H9 H 0.7670 0.5322 0.2153
C11 C 0.9214(3) 0.4729(4) 0.2611(3)
O8 O 0.8664(2) 0.7491(3) 0.5113(3)
H10 H 0.9315(10) 0.734(5) 0.527(4)
H11 H 0.851(3) 0.664(2) 0.528(4)
Mn1A Mn 1.10158(4) 0.66586(6) 0.33012(5)
Mn1C Mn 0.89842(4) 0.33414(6) -0.33012(5)
Na1_2 Na 0.84740(12) -0.16788(18) 0.29625(15)
Na1A Na 1.15260(12) 0.33212(18) 0.20375(15)
Na1B Na 0.15260(12) 0.16788(18) -0.29625(15)
Na1C Na 0.84740(12) 0.66788(18) -0.20375(15)
O1B O 0.6347(3) 0.9334(4) 0.3020(3)
O2B O 0.6551(2) 0.7591(3) 0.1814(3)
O3_2 O 0.7804(2) 1.0173(3) 0.0835(2)
O5C O 0.8619(2) 0.0891(3) 0.3427(2)
O5C_2 O 0.8619(2) 1.0891(3) 0.3427(2)
O6A O 1.01896(19) 0.8750(3) 0.2598(2)
O7A O 1.0520(2) 0.0948(3) 0.1955(2)
loop_
_geom_bond_atom_site_label_1
_geom_bond_atom_site_label_2
_geom_bond_site_symmetry_1
_geom_bond_site_symmetry_2
Mn1 O3 1_555 1_555
Na1 O7 1_555 1_555
O1 N1 1_555 1_555
O2 N1 1_555 1_555
O3 C4 1_555 1_555
O4 Mn1 1_555 1_555
O5 C9 1_555 1_555
O6 Mn1 1_555 1_555
O7 C11 1_555 1_555
N1 C1 1_555 1_555
N2 Mn1 1_555 1_555
C1 C2 1_555 1_555
C2 H1 1_555 1_555
C3 C2 1_555 1_555
H2 C3 1_555 1_555
C4 C3 1_555 1_555
C5 C4 1_555 1_555
C6 C1 1_555 1_555
H3 C6 1_555 1_555
C7 N2 1_555 1_555
H4 C7 1_555 1_555
H5 C7 1_555 1_555
C8 N2 1_555 1_555
H6 C8 1_555 1_555
H7 C8 1_555 1_555
C9 O4 1_555 1_555
C10 N2 1_555 1_555
H8 C10 1_555 1_555
H9 C10 1_555 1_555
C11 O6 1_555 1_555
O8 Na1 1_555 1_555
H10 O8 1_555 1_555
H11 O8 1_555 1_555
Mn1A O7 1_555 1_555
Mn1C O5 1_555 1_555
Na1_2 O3 1_555 1_555
Na1A O6 1_555 1_555
Na1B O1 1_555 1_555
Na1C O5 1_555 1_555
O1B Na1 1_555 1_555
O2B Na1 1_555 1_555
O3_2 Na1 1_555 1_555
O5C Mn1 1_555 1_555
O5C_2 Na1 1_555 1_555
O6A Na1 1_555 1_555
O7A Mn1 1_555 1_555
O2 Na1B 1_555 1_555
C5 C6 1_555 1_555
C5 C7 1_555 1_555
C8 C9 1_555 1_555
C10 C11 1_555 1_555
Mn1A O6A 1_555 1_555
Na1_2 O5C 1_555 1_555
Na1A O7A 1_555 1_555

#END
