
#######################################################################
#
#                 Cambridge Crystallographic Data Centre
#                                CCDC 
#
#######################################################################
#
# If this CIF has been generated from an entry in the Cambridge 
# Structural Database, then it will include bibliographic, chemical, 
# crystal, experimental, refinement or atomic coordinate data resulting 
# from the CCDC's data processing and validation procedures.
#
#######################################################################

data_CIKRUL
_symmetry_cell_setting           triclinic
_symmetry_space_group_name_H-M   'P -1'
_symmetry_Int_Tables_number      2
_space_group_name_Hall           '-P 1'
loop_
_symmetry_equiv_pos_site_id
_symmetry_equiv_pos_as_xyz
1 x,y,z
2 -x,-y,-z
_cell_length_a                   9.6861(14)
_cell_length_b                   10.2390(12)
_cell_length_c                   11.6714(16)
_cell_angle_alpha                72.355(11)
_cell_angle_beta                 76.570(12)
_cell_angle_gamma                74.039(11)
_cell_volume                     1046.44
loop_
_atom_site_label
_atom_site_type_symbol
_atom_site_fract_x
_atom_site_fract_y
_atom_site_fract_z
Cu1 Cu 0.58381(10) 0.61030(8) 0.61293(7)
N1 N 0.4107(8) 0.6116(6) 0.7509(5)
N2 N -0.2457(8) 0.6152(8) 1.4773(6)
O1 O 0.5839(6) 0.8050(5) 0.6195(4)
O2 O 0.7137(7) 0.6667(5) 0.7605(5)
O3 O 0.5771(6) 1.3230(5) 0.5200(4)
O4 O 0.6231(6) 1.4032(5) 0.6615(5)
I1 I 0.73377(8) 0.97738(6) 1.07188(5)
C1 C 0.6945(10) 1.0066(8) 0.8944(6)
C2 C 0.6672(10) 1.1406(8) 0.8195(7)
H1 H 0.6693 1.2169 0.8460
C3 C 0.6364(8) 1.1609(7) 0.7031(6)
C4 C 0.6320(9) 1.0454(7) 0.6672(7)
H2 H 0.6092 1.0584 0.5908
C5 C 0.6606(9) 0.9112(7) 0.7422(6)
C6 C 0.6939(10) 0.8922(8) 0.8556(7)
H3 H 0.7161 0.8021 0.9061
C7 C 0.6519(10) 0.7842(8) 0.7059(7)
C8 C 0.6103(8) 1.3063(7) 0.6197(6)
C9 C 0.4241(10) 0.5192(8) 0.8593(7)
H4 H 0.5113 0.4532 0.8681
C10 C 0.3146(11) 0.5179(9) 0.9579(7)
H5 H 0.3282 0.4515 1.0314
C11 C 0.1824(9) 0.6160(9) 0.9481(7)
C12 C 0.1702(11) 0.7112(9) 0.8376(7)
H6 H 0.0846 0.7791 0.8268
C13 C 0.2858(10) 0.7065(9) 0.7414(7)
H7 H 0.2753 0.7726 0.6673
C14 C 0.0597(10) 0.6118(10) 1.0556(7)
H8 H -0.0290 0.6720 1.0278
H9 H 0.0447 0.5167 1.0868
C15 C 0.0869(10) 0.6576(9) 1.1573(7)
H10 H 0.0927 0.7556 1.1286
H11 H 0.1798 0.6031 1.1806
C16 C -0.0305(10) 0.6400(10) 1.2677(7)
C17 C -0.0258(10) 0.6817(9) 1.3681(7)
H12 H 0.0504 0.7209 1.3674
C18 C -0.1323(10) 0.6661(9) 1.4696(8)
H13 H -0.1234 0.6931 1.5364
C19 C -0.2467(10) 0.5667(9) 1.3833(7)
H14 H -0.3207 0.5227 1.3882
C20 C -0.1443(11) 0.5788(10) 1.2808(8)
H15 H -0.1519 0.5445 1.2179
Cu1_2 Cu -0.41619(10) 0.61030(8) 1.61293(7)
Cu1_3 Cu 0.58381(10) 1.61030(8) 0.61293(7)
Cu1A Cu 0.41619(10) 1.38970(8) 0.38707(7)
N2_2 N 0.7543(8) 0.6152(8) 0.4773(6)
O3A O 0.4229(6) 0.6770(5) 0.4800(4)
O4_2 O 0.6231(6) 0.4032(5) 0.6615(5)
O5 O 0.3093(14) 0.0269(13) 0.6284(10)
H16 H 0.3400 0.0751 0.5597
H17 H 0.3424 -0.0412 0.6851
O6 O 0.025(4) 0.993(4) 0.613(3)
H18 H 0.0952 0.9449 0.6123
H19 H 0.0111 1.0341 0.6693
O6A O -0.025(4) 1.007(4) 0.387(3)
H18A H -0.0952 1.0551 0.3877
H19A H -0.0111 0.9659 0.3307
O7? O 0.032(5) 0.934(5) 0.526(5)
loop_
_geom_bond_atom_site_label_1
_geom_bond_atom_site_label_2
_geom_bond_site_symmetry_1
_geom_bond_site_symmetry_2
Cu1 N1 1_555 1_555
N1 C9 1_555 1_555
N2 C18 1_555 1_555
O1 Cu1 1_555 1_555
O2 Cu1 1_555 1_555
O3 C8 1_555 1_555
O4 C8 1_555 1_555
I1 C1 1_555 1_555
C1 C2 1_555 1_555
C2 H1 1_555 1_555
C3 C2 1_555 1_555
C4 C3 1_555 1_555
H2 C4 1_555 1_555
C5 C4 1_555 1_555
C6 C1 1_555 1_555
H3 C6 1_555 1_555
C7 O1 1_555 1_555
C8 C3 1_555 1_555
C9 H4 1_555 1_555
C10 C9 1_555 1_555
H5 C10 1_555 1_555
C11 C10 1_555 1_555
C12 C11 1_555 1_555
H6 C12 1_555 1_555
C13 N1 1_555 1_555
H7 C13 1_555 1_555
C14 C11 1_555 1_555
H8 C14 1_555 1_555
H9 C14 1_555 1_555
C15 C14 1_555 1_555
H10 C15 1_555 1_555
H11 C15 1_555 1_555
C16 C15 1_555 1_555
C17 C16 1_555 1_555
H12 C17 1_555 1_555
C18 C17 1_555 1_555
H13 C18 1_555 1_555
C19 N2 1_555 1_555
H14 C19 1_555 1_555
C20 C16 1_555 1_555
H15 C20 1_555 1_555
O5 H16 1_555 1_555
H17 O5 1_555 1_555
O6 H18 1_555 1_555
H19 O6 1_555 1_555
Cu1_2 N2 1_555 1_555
Cu1_3 O4 1_555 1_555
Cu1A O3 1_555 1_555
N2_2 Cu1 1_555 1_555
O3A Cu1 1_555 1_555
O4_2 Cu1 1_555 1_555
O6A H18A 1_555 1_555
H19A O6A 1_555 1_555
O2 C7 1_555 1_555
C5 C6 1_555 1_555
C5 C7 1_555 1_555
C12 C13 1_555 1_555
C19 C20 1_555 1_555

#END
