
#######################################################################
#
#                 Cambridge Crystallographic Data Centre
#                                CCDC 
#
#######################################################################
#
# If this CIF has been generated from an entry in the Cambridge 
# Structural Database, then it will include bibliographic, chemical, 
# crystal, experimental, refinement or atomic coordinate data resulting 
# from the CCDC's data processing and validation procedures.
#
#######################################################################

data_CIKWAU
_symmetry_cell_setting           orthorhombic
_symmetry_space_group_name_H-M   'P 21 21 21'
_symmetry_Int_Tables_number      19
_space_group_name_Hall           'P 2ac 2ab'
loop_
_symmetry_equiv_pos_site_id
_symmetry_equiv_pos_as_xyz
1 x,y,z
2 1/2-x,-y,1/2+z
3 -x,1/2+y,1/2-z
4 1/2+x,1/2-y,-z
_cell_length_a                   13.515(3)
_cell_length_b                   20.493(4)
_cell_length_c                   23.248(5)
_cell_angle_alpha                90
_cell_angle_beta                 90
_cell_angle_gamma                90
_cell_volume                     6438.83
loop_
_atom_site_label
_atom_site_type_symbol
_atom_site_fract_x
_atom_site_fract_y
_atom_site_fract_z
Rb1 Rb -0.12381(8) -0.02226(5) 0.18296(5)
Rb2 Rb -0.39281(8) -0.52202(6) 0.17386(5)
Rb3 Rb -0.36134(8) -0.52627(5) 0.40168(5)
Cu1 Cu -0.10141(13) 0.17881(7) 0.36352(7)
Cu2 Cu -0.12988(11) -0.21119(6) 0.41294(6)
O1 O 0.0302(6) 0.0703(4) 0.2047(3)
O2 O 0.0660(5) -0.0645(4) 0.2285(3)
O3 O -0.0843(6) -0.1581(4) 0.2050(3)
O4 O -0.2792(6) -0.1122(4) 0.2177(3)
O5 O -0.3224(5) 0.0224(5) 0.1933(3)
O6 O -0.1666(6) 0.1135(4) 0.2116(3)
O7 O -0.5517(8) -0.4425(7) 0.1249(5)
O8 O -0.5791(11) -0.5721(11) 0.1265(10)
O9 O -0.4237(10) -0.6584(5) 0.1362(5)
O10 O -0.2399(7) -0.6036(5) 0.1126(4)
O11 O -0.2062(6) -0.4690(5) 0.1282(4)
O12 O -0.3678(9) -0.3845(4) 0.1188(4)
O13 O -0.3034(7) -0.3954(4) 0.4393(4)
O14 O -0.1511(7) -0.4887(5) 0.4330(5)
O15 O -0.2163(6) -0.6143(5) 0.4554(5)
O16 O -0.4045(8) -0.6591(4) 0.4654(5)
O17 O -0.5547(7) -0.5665(4) 0.4547(4)
O18 O -0.4947(6) -0.4371(4) 0.4664(4)
N1 N -0.1240(9) -0.0242(5) 0.3202(4)
N2 N -0.1029(8) 0.0851(5) 0.3567(4)
N3 N -0.1118(8) -0.1257(5) 0.3735(5)
N4 N -0.3397(9) -0.3192(5) 0.3012(5)
N5 N -0.3777(8) -0.4345(5) 0.2906(5)
N6 N -0.2140(8) -0.2669(5) 0.3604(4)
N7 N -0.3554(10) 0.2727(5) 0.2799(5)
N8 N -0.3825(9) 0.3893(5) 0.2841(5)
N9 N -0.2153(10) 0.2188(5) 0.3267(6)
N10 N 0.1273(11) 0.2942(6) 0.4411(6)
N11 N -0.0006(9) 0.2291(5) 0.3982(5)
N12 N 0.1490(9) 0.4120(7) 0.4380(5)
N13 N 0.1332(11) -0.3244(6) 0.4602(5)
N14 N -0.0072(8) -0.2560(5) 0.4377(4)
N15 N 0.2785(8) -0.3037(5) 0.5179(5)
C1 C -0.1120(9) 0.0319(6) 0.3421(5)
C2 C -0.1162(9) -0.0768(6) 0.3503(5)
C3 C -0.3550(9) -0.3802(7) 0.2981(5)
C4 C -0.2697(10) -0.2955(6) 0.3337(5)
C5 C -0.3665(9) 0.3342(7) 0.2823(5)
C6 C -0.2779(11) 0.2468(6) 0.3068(6)
C7 C 0.0570(13) 0.2634(7) 0.4168(7)
C8 C 0.1347(11) 0.3551(9) 0.4383(6)
C9 C 0.0601(10) -0.2848(6) 0.4500(5)
C10 C 0.2115(12) -0.3095(6) 0.4925(6)
C11 C 0.1120(9) 0.0470(6) 0.2366(5)
H1 H 0.0953(9) 0.0438(6) 0.2767(5)
H2 H 0.1664(9) 0.0767(6) 0.2325(5)
C12 C 0.1388(8) -0.0183(6) 0.2151(6)
H3 H 0.1456(8) -0.0159(6) 0.1741(6)
H4 H 0.2008(8) -0.0324(6) 0.2310(6)
C13 C 0.0869(9) -0.1273(7) 0.2100(6)
H5 H 0.1508(9) -0.1404(7) 0.2238(6)
H6 H 0.0876(9) -0.1291(7) 0.1687(6)
C14 C 0.0101(10) -0.1734(6) 0.2306(6)
H7 H 0.0282(10) -0.2178(6) 0.2230(6)
H8 H 0.0046(10) -0.1679(6) 0.2714(6)
C15 C -0.1627(11) -0.1963(6) 0.2274(6)
H9 H -0.1667(11) -0.1926(6) 0.2685(6)
H10 H -0.1513(11) -0.2413(6) 0.2181(6)
C16 C -0.2588(9) -0.1754(7) 0.2010(7)
H11 H -0.2540(9) -0.1775(7) 0.1599(7)
H12 H -0.3113(9) -0.2039(7) 0.2130(7)
C17 C -0.3640(9) -0.0892(7) 0.1928(6)
H13 H -0.4167(9) -0.1190(7) 0.2014(6)
H14 H -0.3563(9) -0.0871(7) 0.1518(6)
C18 C -0.3894(8) -0.0235(7) 0.2158(6)
H15 H -0.4558(8) -0.0116(7) 0.2055(6)
H16 H -0.3847(8) -0.0240(7) 0.2570(6)
C19 C -0.3372(10) 0.0855(6) 0.2147(6)
H17 H -0.3287(10) 0.0853(6) 0.2557(6)
H18 H -0.4025(10) 0.1012(6) 0.2064(6)
C20 C -0.2612(10) 0.1307(6) 0.1907(6)
H19 H -0.2615(10) 0.1260(6) 0.1496(6)
H20 H -0.2756(10) 0.1754(6) 0.1999(6)
C21 C -0.0916(12) 0.1527(6) 0.1904(6)
H21 H -0.1082(12) 0.1978(6) 0.1959(6)
H22 H -0.0849(12) 0.1449(6) 0.1498(6)
C22 C 0.0058(10) 0.1362(6) 0.2194(6)
H23 H 0.0565(10) 0.1657(6) 0.2067(6)
H24 H -0.0014(10) 0.1405(6) 0.2603(6)
C23 C -0.6324(14) -0.4732(13) 0.0964(8)
H25 H -0.6270(14) -0.4610(13) 0.0567(8)
H26 H -0.6907(14) -0.4524(13) 0.1114(8)
C24 C -0.6313(23) -0.5414(16) 0.1010(10)
H27 H -0.6933(23) -0.5484(16) 0.1201(10)
H28 H -0.6396(23) -0.5562(16) 0.0621(10)
C25 C -0.5919(18) -0.6374(13) 0.1379(10)
H29 H -0.6561(18) -0.6531(13) 0.1271(10)
H30 H -0.5869(18) -0.6404(13) 0.1790(10)
C26 C -0.5162(18) -0.6782(10) 0.1142(10)
H31 H -0.5290(18) -0.7229(10) 0.1240(10)
H32 H -0.5173(18) -0.6740(10) 0.0731(10)
C27 C -0.3445(17) -0.6963(9) 0.1136(8)
H33 H -0.3451(17) -0.6950(9) 0.0723(8)
H34 H -0.3513(17) -0.7410(9) 0.1255(8)
C28 C -0.2536(14) -0.6700(8) 0.1335(7)
H35 H -0.2545(14) -0.6695(8) 0.1748(7)
H36 H -0.1993(14) -0.6968(8) 0.1212(7)
C29 C -0.1510(15) -0.5813(10) 0.1249(7)
H37 H -0.1037(15) -0.6096(10) 0.1068(7)
H38 H -0.1389(15) -0.5816(10) 0.1656(7)
C30 C -0.1394(10) -0.5118(10) 0.0987(6)
H39 H -0.0729(10) -0.4968(10) 0.1045(6)
H40 H -0.1527(10) -0.5116(10) 0.0581(6)
C31 C -0.1976(11) -0.4061(9) 0.1104(7)
H41 H -0.2082(11) -0.4038(9) 0.0696(7)
H42 H -0.1325(11) -0.3897(9) 0.1185(7)
C32 C -0.2707(15) -0.3639(8) 0.1378(7)
H43 H -0.2652(15) -0.3697(8) 0.1786(7)
H44 H -0.2608(15) -0.3186(8) 0.1290(7)
C33 C -0.4463(15) -0.3527(8) 0.1441(7)
H45 H -0.4374(15) -0.3063(8) 0.1411(7)
H46 H -0.4493(15) -0.3642(8) 0.1841(7)
C34 C -0.5402(14) -0.3737(10) 0.1175(8)
H47 H -0.5963(14) -0.3508(10) 0.1328(8)
H48 H -0.5355(14) -0.3647(10) 0.0771(8)
C35 C -0.2072(12) -0.3833(7) 0.4637(6)
H49 H -0.2049(12) -0.3984(7) 0.5028(6)
H50 H -0.1932(12) -0.3374(7) 0.4633(6)
C36 C -0.1334(12) -0.4204(6) 0.4310(7)
H51 H -0.1379(12) -0.4062(6) 0.3918(7)
H52 H -0.0679(12) -0.4111(6) 0.4447(7)
C37 C -0.1169(11) -0.5220(8) 0.4761(7)
H53 H -0.1574(11) -0.5118(8) 0.5088(7)
H54 H -0.0503(11) -0.5087(8) 0.4846(7)
C38 C -0.1215(12) -0.5959(7) 0.4686(6)
H55 H -0.0777(12) -0.6070(7) 0.4376(6)
H56 H -0.1005(12) -0.6190(7) 0.5024(6)
C39 C -0.2325(11) -0.6824(7) 0.4614(6)
H57 H -0.2249(11) -0.6957(7) 0.5008(6)
H58 H -0.1851(11) -0.7057(7) 0.4385(6)
C40 C -0.3354(10) -0.6953(7) 0.4405(8)
H59 H -0.3376(10) -0.6901(7) 0.3994(8)
H60 H -0.3502(10) -0.7401(7) 0.4489(8)
C41 C -0.5017(12) -0.6761(7) 0.4457(8)
H61 H -0.5177(12) -0.7208(7) 0.4538(8)
H62 H -0.5080(12) -0.6684(7) 0.4052(8)
C42 C -0.5667(11) -0.6302(7) 0.4765(7)
H63 H -0.6345(11) -0.6437(7) 0.4736(7)
H64 H -0.5480(11) -0.6320(7) 0.5163(7)
C43 C -0.6114(10) -0.5192(8) 0.4840(6)
H65 H -0.5910(10) -0.5167(8) 0.5235(6)
H66 H -0.6803(10) -0.5306(8) 0.4828(6)
C44 C -0.5925(10) -0.4545(6) 0.4576(6)
H67 H -0.6047(10) -0.4587(6) 0.4171(6)
H68 H -0.6362(10) -0.4218(6) 0.4728(6)
C45 C -0.4730(11) -0.3729(7) 0.4484(6)
H69 H -0.5212(11) -0.3427(7) 0.4629(6)
H70 H -0.4761(11) -0.3723(7) 0.4071(6)
C46 C -0.3734(12) -0.3545(5) 0.4650(6)
H71 H -0.3600(12) -0.3106(5) 0.4529(6)
H72 H -0.3702(12) -0.3559(5) 0.5063(6)
Rb3_2 Rb -0.36134(8) 0.47373(5) 0.40168(5)
N8_2 N -0.3825(9) -0.6107(5) 0.2841(5)
N15C N -0.2215(8) -0.1963(5) 0.4821(5)
Rb2_2 Rb -0.39281(8) 0.47798(6) 0.17386(5)
Cu2C Cu 0.37012(11) -0.28881(6) 0.58706(6)
N12B N -0.1490(9) -0.0880(7) 0.0620(5)
Rb1B Rb 0.12381(8) 0.47774(5) 0.31704(5)
loop_
_geom_bond_atom_site_label_1
_geom_bond_atom_site_label_2
_geom_bond_site_symmetry_1
_geom_bond_site_symmetry_2
Rb1 O1 1_555 1_555
Rb2 O7 1_555 1_555
Rb3 O13 1_555 1_555
Cu1 N2 1_555 1_555
Cu2 N3 1_555 1_555
O1 C11 1_555 1_555
O2 Rb1 1_555 1_555
O3 Rb1 1_555 1_555
O4 Rb1 1_555 1_555
O5 Rb1 1_555 1_555
O6 Rb1 1_555 1_555
O7 C23 1_555 1_555
O8 Rb2 1_555 1_555
O9 Rb2 1_555 1_555
O10 Rb2 1_555 1_555
O11 Rb2 1_555 1_555
O12 Rb2 1_555 1_555
O13 C35 1_555 1_555
O14 Rb3 1_555 1_555
O15 Rb3 1_555 1_555
O16 Rb3 1_555 1_555
O17 Rb3 1_555 1_555
O18 Rb3 1_555 1_555
N1 Rb1 1_555 1_555
N2 C1 1_555 1_555
N3 C2 1_555 1_555
N4 C3 1_555 1_555
N5 Rb2 1_555 1_555
N6 Cu2 1_555 1_555
N7 C5 1_555 1_555
N8 C5 1_555 1_555
N9 Cu1 1_555 1_555
N10 C7 1_555 1_555
N11 Cu1 1_555 1_555
N12 C8 1_555 1_555
N13 C9 1_555 1_555
N14 Cu2 1_555 1_555
N15 C10 1_555 1_555
C1 N1 1_555 1_555
C2 N1 1_555 1_555
C3 N5 1_555 1_555
C4 N4 1_555 1_555
C6 N7 1_555 1_555
C7 N11 1_555 1_555
C8 N10 1_555 1_555
C9 N14 1_555 1_555
C10 N13 1_555 1_555
C11 H1 1_555 1_555
H2 C11 1_555 1_555
C12 O2 1_555 1_555
H3 C12 1_555 1_555
H4 C12 1_555 1_555
C13 O2 1_555 1_555
H5 C13 1_555 1_555
H6 C13 1_555 1_555
C14 O3 1_555 1_555
H7 C14 1_555 1_555
H8 C14 1_555 1_555
C15 O3 1_555 1_555
H9 C15 1_555 1_555
H10 C15 1_555 1_555
C16 O4 1_555 1_555
H11 C16 1_555 1_555
H12 C16 1_555 1_555
C17 O4 1_555 1_555
H13 C17 1_555 1_555
H14 C17 1_555 1_555
C18 O5 1_555 1_555
H15 C18 1_555 1_555
H16 C18 1_555 1_555
C19 O5 1_555 1_555
H17 C19 1_555 1_555
H18 C19 1_555 1_555
C20 O6 1_555 1_555
H19 C20 1_555 1_555
H20 C20 1_555 1_555
C21 O6 1_555 1_555
H21 C21 1_555 1_555
H22 C21 1_555 1_555
C22 O1 1_555 1_555
H23 C22 1_555 1_555
H24 C22 1_555 1_555
C23 H25 1_555 1_555
H26 C23 1_555 1_555
C24 O8 1_555 1_555
H27 C24 1_555 1_555
H28 C24 1_555 1_555
C25 O8 1_555 1_555
H29 C25 1_555 1_555
H30 C25 1_555 1_555
C26 O9 1_555 1_555
H31 C26 1_555 1_555
H32 C26 1_555 1_555
C27 O9 1_555 1_555
H33 C27 1_555 1_555
H34 C27 1_555 1_555
C28 O10 1_555 1_555
H35 C28 1_555 1_555
H36 C28 1_555 1_555
C29 O10 1_555 1_555
H37 C29 1_555 1_555
H38 C29 1_555 1_555
C30 O11 1_555 1_555
H39 C30 1_555 1_555
H40 C30 1_555 1_555
C31 O11 1_555 1_555
H41 C31 1_555 1_555
H42 C31 1_555 1_555
C32 O12 1_555 1_555
H43 C32 1_555 1_555
H44 C32 1_555 1_555
C33 O12 1_555 1_555
H45 C33 1_555 1_555
H46 C33 1_555 1_555
C34 O7 1_555 1_555
H47 C34 1_555 1_555
H48 C34 1_555 1_555
C35 H49 1_555 1_555
H50 C35 1_555 1_555
C36 O14 1_555 1_555
H51 C36 1_555 1_555
H52 C36 1_555 1_555
C37 O14 1_555 1_555
H53 C37 1_555 1_555
H54 C37 1_555 1_555
C38 O15 1_555 1_555
H55 C38 1_555 1_555
H56 C38 1_555 1_555
C39 O15 1_555 1_555
H57 C39 1_555 1_555
H58 C39 1_555 1_555
C40 O16 1_555 1_555
H59 C40 1_555 1_555
H60 C40 1_555 1_555
C41 O16 1_555 1_555
H61 C41 1_555 1_555
H62 C41 1_555 1_555
C42 O17 1_555 1_555
H63 C42 1_555 1_555
H64 C42 1_555 1_555
C43 O17 1_555 1_555
H65 C43 1_555 1_555
H66 C43 1_555 1_555
C44 O18 1_555 1_555
H67 C44 1_555 1_555
H68 C44 1_555 1_555
C45 O18 1_555 1_555
H69 C45 1_555 1_555
H70 C45 1_555 1_555
C46 O13 1_555 1_555
H71 C46 1_555 1_555
H72 C46 1_555 1_555
Rb3_2 N8 1_555 1_555
N8_2 Rb2 1_555 1_555
N15C Cu2 1_555 1_555
Rb2_2 N8 1_555 1_555
Cu2C N15 1_555 1_555
N12B Rb1 1_555 1_555
Rb1B N12 1_555 1_555
Rb3 N5 1_555 1_555
Rb3 N8_2 1_555 1_555
N6 C4 1_555 1_555
N9 C6 1_555 1_555
C11 C12 1_555 1_555
C13 C14 1_555 1_555
C15 C16 1_555 1_555
C17 C18 1_555 1_555
C19 C20 1_555 1_555
C21 C22 1_555 1_555
C23 C24 1_555 1_555
C25 C26 1_555 1_555
C27 C28 1_555 1_555
C29 C30 1_555 1_555
C31 C32 1_555 1_555
C33 C34 1_555 1_555
C35 C36 1_555 1_555
C37 C38 1_555 1_555
C39 C40 1_555 1_555
C41 C42 1_555 1_555
C43 C44 1_555 1_555
C45 C46 1_555 1_555

#END
