
#######################################################################
#
#                 Cambridge Crystallographic Data Centre
#                                CCDC 
#
#######################################################################
#
# If this CIF has been generated from an entry in the Cambridge 
# Structural Database, then it will include bibliographic, chemical, 
# crystal, experimental, refinement or atomic coordinate data resulting 
# from the CCDC's data processing and validation procedures.
#
#######################################################################

data_CILQUL
_symmetry_cell_setting           triclinic
_symmetry_space_group_name_H-M   'P -1'
_symmetry_Int_Tables_number      2
_space_group_name_Hall           '-P 1'
loop_
_symmetry_equiv_pos_site_id
_symmetry_equiv_pos_as_xyz
1 x,y,z
2 -x,-y,-z
_cell_length_a                   6.20730(10)
_cell_length_b                   9.9639(2)
_cell_length_c                   11.8651(3)
_cell_angle_alpha                68.9490(10)
_cell_angle_beta                 80.5640(10)
_cell_angle_gamma                88.0400(10)
_cell_volume                     675.358
loop_
_atom_site_label
_atom_site_type_symbol
_atom_site_fract_x
_atom_site_fract_y
_atom_site_fract_z
C1 C 0.3520(5) 0.8485(3) -0.0507(3)
C2 C 0.3592(4) 0.8425(3) 0.0781(3)
C3 C 0.5123(5) 0.7695(3) 0.1493(3)
C4 C 0.5022(5) 0.7823(4) 0.2631(3)
H1 H 0.6057 0.7379 0.3120
C5 C 0.3413(6) 0.8597(4) 0.3038(3)
H2 H 0.3341 0.8671 0.3803
C6 C 0.1904(5) 0.9262(3) 0.2294(3)
H3 H 0.0786 0.9769 0.2571
C7 C 0.6852(5) 0.6757(4) 0.1110(3)
Cu1 Cu 0.0000 1.0000 0.0000
N1 N 0.2020(4) 0.9191(3) 0.1185(2)
O1 O 0.2080(3) 0.9290(2) -0.10447(19)
O2 O 0.4812(4) 0.7783(3) -0.0954(2)
O3 O 0.6231(3) 0.5521(2) 0.1219(2)
O4 O 0.8765(3) 0.7241(2) 0.0786(2)
C1A C -0.3520(5) 1.1515(3) 0.0507(3)
C2A C -0.3592(4) 1.1575(3) -0.0781(3)
C3A C -0.5123(5) 1.2305(3) -0.1493(3)
C4A C -0.5022(5) 1.2177(4) -0.2631(3)
H1A H -0.6057 1.2621 -0.3120
C5A C -0.3413(6) 1.1403(4) -0.3038(3)
H2A H -0.3341 1.1329 -0.3803
C6A C -0.1904(5) 1.0738(3) -0.2294(3)
H3A H -0.0786 1.0231 -0.2571
C7A C -0.6852(5) 1.3243(4) -0.1110(3)
N1A N -0.2020(4) 1.0809(3) -0.1185(2)
O1A O -0.2080(3) 1.0710(2) 0.10447(19)
O2A O -0.4812(4) 1.2217(3) 0.0954(2)
O3A O -0.6231(3) 1.4479(2) -0.1219(2)
O4A O -0.8765(3) 1.2759(2) -0.0786(2)
Cu1_2 Cu -1.0000 1.0000 0.0000
Cu1_3 Cu 1.0000 1.0000 0.0000
O4_2 O -0.1235(3) 0.7241(2) 0.0786(2)
O4A_2 O 0.1235(3) 1.2759(2) -0.0786(2)
C8 C 0.0899(9) 0.4561(5) 0.4891(4)
H4 H 0.0593 0.3577 0.5451
H5 H 0.2208 0.4899 0.5066
C9 C 0.133(2) 0.4578(7) 0.3593(5)
H6 H 0.1233 0.5575 0.3068
H7 H 0.2843 0.4326 0.3446
C10 C 0.0239(9) 0.3834(6) 0.3168(4)
H8 H -0.1214 0.4224 0.3168
H9 H 0.0081 0.2873 0.3785
C11 C 0.0851(6) 0.3626(4) 0.1943(3)
H10 H 0.1845 0.2835 0.2034
H11 H -0.0454 0.3375 0.1702
N2 N 0.1906(4) 0.4952(3) 0.0964(2)
H12 H 0.1005 0.5683 0.0886
H13 H 0.2200 0.4805 0.0258
H14 H 0.3141 0.5158 0.1164
C8A C -0.0899(9) 0.5439(5) 0.5109(4)
H4A H -0.0593 0.6423 0.4549
H5A H -0.2208 0.5101 0.4934
C9A C -0.133(2) 0.5422(7) 0.6407(5)
H6A H -0.1233 0.4425 0.6932
H7A H -0.2843 0.5674 0.6554
C10A C -0.0239(9) 0.6166(6) 0.6832(4)
H8A H 0.1214 0.5776 0.6832
H9A H -0.0081 0.7127 0.6215
C11A C -0.0851(6) 0.6374(4) 0.8057(3)
H10A H -0.1845 0.7165 0.7966
H11A H 0.0454 0.6625 0.8298
N2A N -0.1906(4) 0.5048(3) 0.9036(2)
H12A H -0.1005 0.4317 0.9114
H13A H -0.2200 0.5195 0.9742
H14A H -0.3141 0.4842 0.8836
H15 H 0.656(7) 0.104(4) 0.375(5)
H16 H 0.550(9) 0.185(6) 0.256(2)
O5 O 0.5562(5) 0.1783(4) 0.3376(3)
H17 H 0.050(6) 0.027(9) 0.519(8)
H18 H 0.305(7) 0.096(6) 0.466(4)
O6 O 0.1923(6) 0.0428(5) 0.5294(4)
loop_
_geom_bond_atom_site_label_1
_geom_bond_atom_site_label_2
_geom_bond_site_symmetry_1
_geom_bond_site_symmetry_2
C1 C2 1_555 1_555
C2 C3 1_555 1_555
C3 C4 1_555 1_555
C4 H1 1_555 1_555
C5 C4 1_555 1_555
H2 C5 1_555 1_555
C6 C5 1_555 1_555
H3 C6 1_555 1_555
C7 C3 1_555 1_555
Cu1 N1 1_555 1_555
N1 C2 1_555 1_555
O1 C1 1_555 1_555
O2 C1 1_555 1_555
O3 C7 1_555 1_555
O4 C7 1_555 1_555
C8 H4 1_555 1_555
H5 C8 1_555 1_555
C9 C8 1_555 1_555
H6 C9 1_555 1_555
H7 C9 1_555 1_555
C10 C9 1_555 1_555
H8 C10 1_555 1_555
H9 C10 1_555 1_555
C11 C10 1_555 1_555
H10 C11 1_555 1_555
H11 C11 1_555 1_555
N2 C11 1_555 1_555
H12 N2 1_555 1_555
H13 N2 1_555 1_555
H14 N2 1_555 1_555
H15 O5 1_555 1_555
H16 O5 1_555 1_555
H17 O6 1_555 1_555
H18 O6 1_555 1_555
C1A C2A 1_555 1_555
C2A C3A 1_555 1_555
C3A C4A 1_555 1_555
C4A H1A 1_555 1_555
C5A C4A 1_555 1_555
H2A C5A 1_555 1_555
C6A C5A 1_555 1_555
H3A C6A 1_555 1_555
C7A C3A 1_555 1_555
N1A Cu1 1_555 1_555
O1A Cu1 1_555 1_555
O2A C1A 1_555 1_555
O3A C7A 1_555 1_555
O4A C7A 1_555 1_555
Cu1_2 O4A 1_555 1_555
Cu1_3 O4 1_555 1_555
O4_2 Cu1 1_555 1_555
O4A_2 Cu1 1_555 1_555
C8A C8 1_555 1_555
H4A C8A 1_555 1_555
H5A C8A 1_555 1_555
C9A C8A 1_555 1_555
H6A C9A 1_555 1_555
H7A C9A 1_555 1_555
C10A C9A 1_555 1_555
H8A C10A 1_555 1_555
H9A C10A 1_555 1_555
C11A C10A 1_555 1_555
H10A C11A 1_555 1_555
H11A C11A 1_555 1_555
N2A C11A 1_555 1_555
H12A N2A 1_555 1_555
H13A N2A 1_555 1_555
H14A N2A 1_555 1_555
C6 N1 1_555 1_555
Cu1 O1 1_555 1_555
C1A O1A 1_555 1_555
C2A N1A 1_555 1_555
C6A N1A 1_555 1_555

#END
