
#######################################################################
#
#                 Cambridge Crystallographic Data Centre
#                                CCDC 
#
#######################################################################
#
# If this CIF has been generated from an entry in the Cambridge 
# Structural Database, then it will include bibliographic, chemical, 
# crystal, experimental, refinement or atomic coordinate data resulting 
# from the CCDC's data processing and validation procedures.
#
#######################################################################

data_CILRAS
_symmetry_cell_setting           triclinic
_symmetry_space_group_name_H-M   'P -1'
_symmetry_Int_Tables_number      2
_space_group_name_Hall           '-P 1'
loop_
_symmetry_equiv_pos_site_id
_symmetry_equiv_pos_as_xyz
1 x,y,z
2 -x,-y,-z
_cell_length_a                   9.0345(4)
_cell_length_b                   13.3334(6)
_cell_length_c                   13.4916(6)
_cell_angle_alpha                65.122(2)
_cell_angle_beta                 75.461(2)
_cell_angle_gamma                70.519(2)
_cell_volume                     1378.29
loop_
_atom_site_label
_atom_site_type_symbol
_atom_site_fract_x
_atom_site_fract_y
_atom_site_fract_z
Cu1 Cu 0.23751(6) 0.24180(4) 0.49090(4)
O1 O 0.2525(3) 0.0960(2) 0.6160(2)
O2 O 0.4286(4) -0.0605(2) 0.7036(2)
O3 O 0.8036(4) -0.1585(3) 0.6285(3)
O4 O 0.7508(4) -0.0720(3) 0.7469(3)
O5 O 0.0522(4) 0.5511(2) 0.2848(3)
O6 O 0.2225(3) 0.3864(2) 0.3639(2)
O7 O -0.2845(4) 0.6789(3) 0.3861(3)
O8 O -0.2994(4) 0.5922(3) 0.2822(3)
N1 N 0.0066(4) 0.3074(3) 0.5201(3)
N2 N 0.4710(4) 0.1883(3) 0.4743(3)
C1 C 0.5722(5) 0.2462(4) 0.4022(4)
H1 H 0.5342 0.3145 0.3459
C2 C 0.7324(6) 0.2066(4) 0.4094(4)
H2 H 0.8017 0.2487 0.3596
C3 C 0.7887(6) 0.1038(4) 0.4915(4)
H3 H 0.8965 0.0762 0.4972
C4 C 0.6843(5) 0.0414(3) 0.5658(3)
C5 C 0.5243(5) 0.0878(3) 0.5543(3)
C6 C 0.3932(5) 0.0350(3) 0.6315(3)
C7 C -0.0926(5) 0.2619(4) 0.6061(3)
H4 H -0.0566 0.1885 0.6565
C8 C -0.2482(6) 0.3218(4) 0.6218(4)
H5 H -0.3161 0.2896 0.6830
C9 C -0.3022(5) 0.4297(4) 0.5461(4)
H6 H -0.4061 0.4715 0.5571
C10 C -0.2013(5) 0.4761(3) 0.4533(3)
C11 C 0.0854(5) 0.4551(3) 0.3565(3)
C12 C -0.2652(5) 0.5923(4) 0.3676(3)
C13 C 0.7502(5) -0.0732(4) 0.6533(4)
C14 C -0.0449(5) 0.4128(3) 0.4453(3)
Cu1A Cu -0.23751(6) 0.75820(4) 0.50910(4)
Cu1A_2 Cu 0.76249(6) -0.24180(4) 0.50910(4)
O3A O 0.1964(4) 0.1585(3) 0.3715(3)
O7A O 0.2845(4) 0.3211(3) 0.6139(3)
N3 N 0.7639(5) 0.7130(3) -0.1126(3)
N4 N 0.7226(5) 0.7977(3) 0.1308(3)
C15 C 0.5826(7) 0.8869(5) 0.1540(6)
H7 H 0.5830 0.8874 0.2249
H8 H 0.4873 0.8703 0.1536
H9 H 0.5874 0.9606 0.0984
C16 C 0.8693(6) 0.8167(5) 0.1410(5)
H10 H 0.8878 0.8854 0.0821
H11 H 0.9570 0.7529 0.1371
H12 H 0.8584 0.8241 0.2104
C17 C 0.9043(7) 0.6265(5) -0.1404(6)
H13 H 0.9024 0.5516 -0.0863
H14 H 0.9996 0.6438 -0.1410
H15 H 0.9013 0.6284 -0.2118
C18 C 0.6175(7) 0.6934(5) -0.1221(5)
H16 H 0.6239 0.6932 -0.1941
H17 H 0.5283 0.7533 -0.1109
H18 H 0.6051 0.6209 -0.0674
C19 C 0.6973(9) 0.8030(6) 0.0209(6)
H19 H 0.5868 0.8090 0.0227
H20 H 0.7228 0.8709 -0.0375
C20 C 0.7914(9) 0.7062(6) -0.0018(6)
H21 H 0.7662 0.6382 0.0565
H22 H 0.9021 0.7003 -0.0041
O9 O 0.8126(4) 0.1201(3) 0.1391(3)
O10 O 0.1118(4) 0.9763(3) 0.1702(3)
O11 O 0.3049(4) 0.6087(3) 0.1352(3)
O12 O 0.2863(4) 0.8409(3) 0.0552(3)
O13 O 0.6076(4) 0.4828(3) 0.1867(3)
O14 O 0.7802(4) 0.3538(3) 0.0629(3)
loop_
_geom_bond_atom_site_label_1
_geom_bond_atom_site_label_2
_geom_bond_site_symmetry_1
_geom_bond_site_symmetry_2
Cu1 O1 1_555 1_555
O1 C6 1_555 1_555
O2 C6 1_555 1_555
O3 C13 1_555 1_555
O4 C13 1_555 1_555
O5 C11 1_555 1_555
O6 Cu1 1_555 1_555
O7 C12 1_555 1_555
O8 C12 1_555 1_555
N1 Cu1 1_555 1_555
N2 Cu1 1_555 1_555
C1 N2 1_555 1_555
H1 C1 1_555 1_555
C2 C1 1_555 1_555
H2 C2 1_555 1_555
C3 C2 1_555 1_555
H3 C3 1_555 1_555
C4 C3 1_555 1_555
C5 N2 1_555 1_555
C6 C5 1_555 1_555
C7 N1 1_555 1_555
H4 C7 1_555 1_555
C8 C7 1_555 1_555
H5 C8 1_555 1_555
C9 C8 1_555 1_555
H6 C9 1_555 1_555
C10 C9 1_555 1_555
C11 O6 1_555 1_555
C12 C10 1_555 1_555
C13 C4 1_555 1_555
C14 N1 1_555 1_555
N3 C17 1_555 1_555
N4 C15 1_555 1_555
C15 H7 1_555 1_555
H8 C15 1_555 1_555
H9 C15 1_555 1_555
C16 N4 1_555 1_555
H10 C16 1_555 1_555
H11 C16 1_555 1_555
H12 C16 1_555 1_555
C17 H13 1_555 1_555
H14 C17 1_555 1_555
H15 C17 1_555 1_555
C18 N3 1_555 1_555
H16 C18 1_555 1_555
H17 C18 1_555 1_555
H18 C18 1_555 1_555
C19 N4 1_555 1_555
H19 C19 1_555 1_555
H20 C19 1_555 1_555
C20 N3 1_555 1_555
H21 C20 1_555 1_555
H22 C20 1_555 1_555
Cu1A O7 1_555 1_555
Cu1A_2 O3 1_555 1_555
O3A Cu1 1_555 1_555
O7A Cu1 1_555 1_555
C4 C5 1_555 1_555
C10 C14 1_555 1_555
C11 C14 1_555 1_555
C19 C20 1_555 1_555

#END
