
#######################################################################
#
#                 Cambridge Crystallographic Data Centre
#                                CCDC 
#
#######################################################################
#
# If this CIF has been generated from an entry in the Cambridge 
# Structural Database, then it will include bibliographic, chemical, 
# crystal, experimental, refinement or atomic coordinate data resulting 
# from the CCDC's data processing and validation procedures.
#
#######################################################################

data_CIMSUO
_symmetry_cell_setting           monoclinic
_symmetry_space_group_name_H-M   'P 21/c'
_symmetry_Int_Tables_number      14
_space_group_name_Hall           '-P 2ybc'
loop_
_symmetry_equiv_pos_site_id
_symmetry_equiv_pos_as_xyz
1 x,y,z
2 -x,1/2+y,1/2-z
3 -x,-y,-z
4 x,1/2-y,1/2+z
_cell_length_a                   10.1953(13)
_cell_length_b                   17.293(3)
_cell_length_c                   15.743(2)
_cell_angle_alpha                90
_cell_angle_beta                 125.668(10)
_cell_angle_gamma                90
_cell_volume                     2254.93
loop_
_atom_site_label
_atom_site_type_symbol
_atom_site_fract_x
_atom_site_fract_y
_atom_site_fract_z
Cd1 Cd -0.73182(4) -0.05680(2) 0.40539(3)
O1 O -0.6488(4) -0.0077(3) 0.3132(3)
O2 O -0.4068(5) -0.0347(2) 0.4556(3)
O3 O 0.0373(4) -0.0594(2) 0.4070(3)
O4 O 0.0378(5) 0.0253(2) 0.3024(3)
O5 O -0.5691(6) 0.0914(3) 0.0530(4)
N1 N -0.6075(5) -0.1516(2) 0.5320(3)
N2 N 0.1388(6) -0.1527(3) 1.2687(3)
C1 C -0.4984(6) -0.0121(3) 0.3620(4)
C2 C -0.4271(5) 0.0099(3) 0.3047(4)
C3 C -0.2662(5) -0.0046(3) 0.3481(4)
H1 H -0.2008 -0.0264 0.4144
C4 C -0.2020(6) 0.0132(3) 0.2938(4)
C5 C -0.2983(7) 0.0476(3) 0.1958(4)
H2 H -0.2548 0.0613 0.1599
C6 C -0.4620(7) 0.0613(3) 0.1517(4)
C7 C -0.5262(6) 0.0425(3) 0.2047(4)
H3 H -0.6350 0.0513 0.1746
C8 C -0.0310(6) -0.0082(3) 0.3373(4)
C9 C -0.5100(10) 0.1185(5) -0.0037(5)
H4 H -0.4352 0.1600 0.0340
H5 H -0.5985 0.1368 -0.0710
H6 H -0.4563 0.0771 -0.0126
C10 C -0.4503(6) -0.1657(3) 0.5850(4)
H7 H -0.3927 -0.1421 0.5632
C11 C -0.3685(7) -0.2139(4) 0.6710(5)
H8 H -0.2582 -0.2221 0.7060
C12 C -0.4516(7) -0.2499(3) 0.7048(5)
C13 C -0.6129(7) -0.2346(4) 0.6517(5)
H9 H -0.6725 -0.2569 0.6729
C14 C -0.6862(6) -0.1859(4) 0.5665(4)
H10 H -0.7961 -0.1763 0.5310
C15 C -0.3626(9) -0.3001(4) 0.8001(5)
H11 H -0.4391 -0.3260 0.8082
H12 H -0.3023 -0.3392 0.7923
C16 C -0.2513(10) -0.2530(5) 0.8935(5)
H13 H -0.3144 -0.2166 0.9028
H14 H -0.1836 -0.2231 0.8809
C17 C -0.1390(8) -0.2998(4) 0.9980(5)
H15 H -0.2050 -0.3343 1.0070
H16 H -0.0653 -0.3312 0.9927
C18 C -0.0435(6) -0.2488(3) 1.0920(4)
C19 C -0.0115(10) -0.1711(4) 1.0858(5)
H17 H -0.0526 -0.1492 1.0209
C20 C 0.0797(11) -0.1271(4) 1.1743(5)
H18 H 0.1009 -0.0761 1.1671
C21 C 0.1115(8) -0.2261(4) 1.2758(4)
H19 H 0.1548 -0.2462 1.3419
C22 C 0.0225(7) -0.2749(3) 1.1909(4)
H20 H 0.0076 -0.3262 1.2013
Cd1_2 Cd 0.26818(4) -0.05680(2) 0.40539(3)
Cd1_3 Cd 0.26818(4) -0.05680(2) 1.40539(3)
Cd1B Cd -0.26818(4) 0.05680(2) 0.59461(3)
O2B O -0.5932(5) 0.0347(2) 0.5444(3)
O3_2 O -0.9627(4) -0.0594(2) 0.4070(3)
O4_2 O -0.9622(5) 0.0253(2) 0.3024(3)
N2_2 N -0.8612(6) -0.1527(3) 0.2687(3)
O6 O -0.0249(18) -0.0965(6) 0.8617(8)
loop_
_geom_bond_atom_site_label_1
_geom_bond_atom_site_label_2
_geom_bond_site_symmetry_1
_geom_bond_site_symmetry_2
Cd1 O1 1_555 1_555
O1 C1 1_555 1_555
O2 C1 1_555 1_555
O3 C8 1_555 1_555
O4 C8 1_555 1_555
O5 C6 1_555 1_555
N1 Cd1 1_555 1_555
N2 C20 1_555 1_555
C1 C2 1_555 1_555
C2 C3 1_555 1_555
C3 H1 1_555 1_555
C4 C3 1_555 1_555
C5 C4 1_555 1_555
H2 C5 1_555 1_555
C6 C5 1_555 1_555
C7 C2 1_555 1_555
H3 C7 1_555 1_555
C8 C4 1_555 1_555
C9 O5 1_555 1_555
H4 C9 1_555 1_555
H5 C9 1_555 1_555
H6 C9 1_555 1_555
C10 N1 1_555 1_555
H7 C10 1_555 1_555
C11 C10 1_555 1_555
H8 C11 1_555 1_555
C12 C11 1_555 1_555
C13 C12 1_555 1_555
H9 C13 1_555 1_555
C14 N1 1_555 1_555
H10 C14 1_555 1_555
C15 C12 1_555 1_555
H11 C15 1_555 1_555
H12 C15 1_555 1_555
C16 C15 1_555 1_555
H13 C16 1_555 1_555
H14 C16 1_555 1_555
C17 C16 1_555 1_555
H15 C17 1_555 1_555
H16 C17 1_555 1_555
C18 C17 1_555 1_555
C19 C18 1_555 1_555
H17 C19 1_555 1_555
C20 C19 1_555 1_555
H18 C20 1_555 1_555
C21 N2 1_555 1_555
H19 C21 1_555 1_555
C22 C18 1_555 1_555
H20 C22 1_555 1_555
Cd1_2 O3 1_555 1_555
Cd1_3 N2 1_555 1_555
Cd1B O2 1_555 1_555
O2B Cd1 1_555 1_555
O3_2 Cd1 1_555 1_555
O4_2 Cd1 1_555 1_555
N2_2 Cd1 1_555 1_555
O4 Cd1_2 1_555 1_555
C6 C7 1_555 1_555
C13 C14 1_555 1_555
C21 C22 1_555 1_555

#END
