
#######################################################################
#
#                 Cambridge Crystallographic Data Centre
#                                CCDC 
#
#######################################################################
#
# If this CIF has been generated from an entry in the Cambridge 
# Structural Database, then it will include bibliographic, chemical, 
# crystal, experimental, refinement or atomic coordinate data resulting 
# from the CCDC's data processing and validation procedures.
#
#######################################################################

data_CIMSEY
_symmetry_cell_setting           triclinic
_symmetry_space_group_name_H-M   'P -1'
_symmetry_Int_Tables_number      2
_space_group_name_Hall           '-P 1'
loop_
_symmetry_equiv_pos_site_id
_symmetry_equiv_pos_as_xyz
1 x,y,z
2 -x,-y,-z
_cell_length_a                   8.6236(13)
_cell_length_b                   9.9335(15)
_cell_length_c                   17.025(3)
_cell_angle_alpha                85.637(2)
_cell_angle_beta                 82.101(2)
_cell_angle_gamma                65.338(2)
_cell_volume                     1312.52
loop_
_atom_site_label
_atom_site_type_symbol
_atom_site_fract_x
_atom_site_fract_y
_atom_site_fract_z
Zn1 Zn 0.65623(4) 0.78177(3) 0.187369(17)
Ni1 Ni 1.15202(4) 0.27790(3) 0.18665(2)
O1 O 0.4798(2) 0.69269(19) 0.25099(11)
H1 H 0.5104 0.6053 0.2351
H2 H 0.4771 0.6879 0.3012
O2 O 0.8440(2) 0.86855(19) 0.12855(10)
H3 H 0.9406 0.8319 0.1467
H4 H 0.8630 0.8544 0.0789
O3 O 0.7633(3) 1.0198(2) 0.55814(12)
O4 O 1.4888(3) 0.5464(2) 0.83061(11)
N1 N 0.8508(3) 0.5726(2) 0.18275(13)
N2 N 1.2326(3) 0.3747(3) 0.33433(16)
N3 N 1.4643(3) -0.0089(2) 0.18959(13)
N4 N 1.0737(3) 0.1865(3) 0.03600(15)
N5 N 0.7163(3) 0.8184(2) 0.30517(13)
N6 N 0.9989(3) 0.8025(2) 0.55101(12)
H5 H 1.0535 0.7249 0.5227
N7 N 1.3076(3) 0.7908(2) 0.82316(12)
H6 H 1.2755 0.8742 0.8459
N8 N 1.5769(3) 0.7413(2) 1.07580(13)
C1 C 0.9631(3) 0.4586(3) 0.18361(15)
C2 C 1.2039(3) 0.3373(3) 0.27807(18)
C3 C 1.3452(3) 0.1007(3) 0.18847(15)
C4 C 1.1005(3) 0.2214(3) 0.09351(16)
C5 C 0.6331(3) 0.9466(3) 0.34358(15)
H7 H 0.5425 1.0214 0.3210
C6 C 0.6735(3) 0.9740(3) 0.41390(15)
H8 H 0.6101 1.0649 0.4379
C7 C 0.8902(4) 0.7319(3) 0.41221(18)
H9 H 0.9779 0.6542 0.4349
C8 C 0.8416(4) 0.7133(3) 0.34165(18)
H10 H 0.8995 0.6216 0.3178
C9 C 0.8080(3) 0.8670(3) 0.44925(15)
C10 C 0.8530(4) 0.9040(3) 0.52438(15)
C11 C 1.0737(3) 0.8073(3) 0.61927(15)
C12 C 0.9902(3) 0.9108(3) 0.67922(15)
H11 H 0.8811 0.9847 0.6748
C13 C 1.0717(3) 0.9020(3) 0.74501(15)
H12 H 1.0159 0.9707 0.7849
C14 C 1.3197(3) 0.6937(3) 0.69230(15)
H13 H 1.4308 0.6225 0.6956
C15 C 1.2370(3) 0.7017(3) 0.62705(15)
H14 H 1.2935 0.6336 0.5870
C16 C 1.2338(3) 0.7940(3) 0.75313(15)
C17 C 1.4227(3) 0.6712(3) 0.85784(15)
C18 C 1.4706(3) 0.6976(3) 0.93522(15)
C19 C 1.3661(4) 0.8133(3) 0.98442(17)
H15 H 1.2585 0.8789 0.9714
C20 C 1.6254(4) 0.6014(3) 0.95927(15)
H16 H 1.6974 0.5201 0.9287
C21 C 1.6738(4) 0.6257(3) 1.02909(16)
H17 H 1.7787 0.5589 1.0445
C22 C 1.4238(4) 0.8303(3) 1.05320(17)
H18 H 1.3517 0.9084 1.0858
Zn1_2 Zn 1.65623(4) -0.21823(3) 0.187369(17)
Zn1_3 Zn 1.65623(4) 0.78177(3) 1.187369(17)
N3_2 N 0.4643(3) 0.9911(2) 0.18959(13)
N8_2 N 0.5769(3) 0.7413(2) 0.07580(13)
O5 O 1.2868(3) 0.4962(2) 0.46754(12)
H19 H 1.3496 0.4315 0.4986
H20 H 1.2923 0.4522 0.4257
O6 O 0.5380(3) 1.3202(2) 0.58007(12)
H21 H 0.6041 1.2300 0.5709
H22 H 0.5965 1.3709 0.5669
O7 O 1.1489(3) 0.7188(3) 0.19701(17)
H23 H 1.2270 0.7502 0.1961
H24 H 1.1957 0.6252 0.2031
loop_
_geom_bond_atom_site_label_1
_geom_bond_atom_site_label_2
_geom_bond_site_symmetry_1
_geom_bond_site_symmetry_2
Zn1 O1 1_555 1_555
Ni1 C1 1_555 1_555
O1 H1 1_555 1_555
H2 O1 1_555 1_555
O2 Zn1 1_555 1_555
H3 O2 1_555 1_555
H4 O2 1_555 1_555
O3 C10 1_555 1_555
O4 C17 1_555 1_555
N1 Zn1 1_555 1_555
N2 C2 1_555 1_555
N3 C3 1_555 1_555
N4 C4 1_555 1_555
N5 Zn1 1_555 1_555
N6 H5 1_555 1_555
N7 H6 1_555 1_555
N8 C21 1_555 1_555
C1 N1 1_555 1_555
C2 Ni1 1_555 1_555
C3 Ni1 1_555 1_555
C4 Ni1 1_555 1_555
C5 N5 1_555 1_555
H7 C5 1_555 1_555
C6 C5 1_555 1_555
H8 C6 1_555 1_555
C7 H9 1_555 1_555
C8 N5 1_555 1_555
H10 C8 1_555 1_555
C9 C6 1_555 1_555
C10 N6 1_555 1_555
C11 N6 1_555 1_555
C12 C11 1_555 1_555
H11 C12 1_555 1_555
C13 C12 1_555 1_555
H12 C13 1_555 1_555
C14 H13 1_555 1_555
C15 C11 1_555 1_555
H14 C15 1_555 1_555
C16 N7 1_555 1_555
C17 N7 1_555 1_555
C18 C17 1_555 1_555
C19 C18 1_555 1_555
H15 C19 1_555 1_555
C20 C18 1_555 1_555
H16 C20 1_555 1_555
C21 C20 1_555 1_555
H17 C21 1_555 1_555
C22 N8 1_555 1_555
H18 C22 1_555 1_555
O5 H19 1_555 1_555
H20 O5 1_555 1_555
O6 H21 1_555 1_555
H22 O6 1_555 1_555
O7 H23 1_555 1_555
H24 O7 1_555 1_555
Zn1_2 N3 1_555 1_555
Zn1_3 N8 1_555 1_555
N3_2 Zn1 1_555 1_555
N8_2 Zn1 1_555 1_555
C7 C8 1_555 1_555
C7 C9 1_555 1_555
C9 C10 1_555 1_555
C13 C16 1_555 1_555
C14 C15 1_555 1_555
C14 C16 1_555 1_555
C19 C22 1_555 1_555

#END
