
#######################################################################
#
#                 Cambridge Crystallographic Data Centre
#                                CCDC 
#
#######################################################################
#
# If this CIF has been generated from an entry in the Cambridge 
# Structural Database, then it will include bibliographic, chemical, 
# crystal, experimental, refinement or atomic coordinate data resulting 
# from the CCDC's data processing and validation procedures.
#
#######################################################################

data_CINCAF
_symmetry_cell_setting           monoclinic
_symmetry_space_group_name_H-M   'C c'
_symmetry_Int_Tables_number      9
_space_group_name_Hall           'C -2yc'
loop_
_symmetry_equiv_pos_site_id
_symmetry_equiv_pos_as_xyz
1 x,y,z
2 x,-y,1/2+z
3 1/2+x,1/2+y,z
4 1/2+x,1/2-y,1/2+z
_cell_length_a                   14.749(3)
_cell_length_b                   14.332(3)
_cell_length_c                   13.346(3)
_cell_angle_alpha                90
_cell_angle_beta                 97.06(3)
_cell_angle_gamma                90
_cell_volume                     2799.72
loop_
_atom_site_label
_atom_site_type_symbol
_atom_site_fract_x
_atom_site_fract_y
_atom_site_fract_z
Ag1 Ag 0.77171(2) 0.761745(15) 0.83980(2)
C1 C 0.6844(4) 0.7340(3) 1.0523(3)
H1 H 0.7419 0.7223 1.0871
C2 C 0.6031(4) 0.7227(3) 1.0922(4)
H2 H 0.5954 0.7030 1.1570
C3 C 0.5375(4) 0.7465(3) 1.0176(5)
H3 H 0.4750 0.7464 1.0214
C4 C 0.5366(2) 0.8097(3) 0.8407(3)
H4 H 0.4759 0.7835 0.8246
H5 H 0.5725 0.7912 0.7878
C5 C 0.52945(19) 0.9142(2) 0.8415(3)
C6 C 0.4995(3) 0.9632(4) 0.9214(3)
H6 H 0.4853 0.9301 0.9774
C7 C 0.4903(3) 1.0570(3) 0.9203(3)
H7 H 0.4698 1.0871 0.9750
C8 C 0.51118(19) 1.1088(2) 0.8384(2)
C9 C 0.5413(3) 1.0604(3) 0.7589(3)
H8 H 0.5555 1.0931 0.7027
C10 C 0.5503(3) 0.9659(4) 0.7613(3)
H9 H 0.5713 0.9357 0.7069
C11 C 0.5022(2) 1.2132(3) 0.8333(3)
H10 H 0.5560 1.2387 0.8080
H11 H 0.4497 1.2289 0.7851
C12 C 0.5592(3) 1.2823(3) 0.9992(3)
H12 H 0.6214 1.2809 0.9940
C13 C 0.5198(3) 1.3102(3) 1.0808(3)
H13 H 0.5490 1.3319 1.1421
C14 C 0.4272(3) 1.2996(3) 1.0534(3)
H14 H 0.3831 1.3135 1.0953
C15 C 0.7997(2) 0.6233(3) 0.6466(3)
H15 H 0.8082 0.6734 0.6046
C16 C 0.8183(2) 0.5316(3) 0.6260(3)
H16 H 0.8410 0.5088 0.5688
C17 C 0.7966(2) 0.4810(3) 0.7060(3)
H17 H 0.8020 0.4167 0.7145
C18 C 0.7310(3) 0.5203(2) 0.8643(3)
H18 H 0.7511 0.5682 0.9134
H19 H 0.7567 0.4614 0.8899
C19 C 0.6273(2) 0.5138(2) 0.8543(2)
C20 C 0.5737(3) 0.4936(4) 0.7646(3)
H20 H 0.6013 0.4852 0.7063
C21 C 0.4796(3) 0.4856(3) 0.7598(3)
H21 H 0.4446 0.4714 0.6988
C22 C 0.4373(2) 0.4990(2) 0.8473(3)
C23 C 0.4915(4) 0.5168(4) 0.9354(3)
H22 H 0.4645 0.5241 0.9944
C24 C 0.5857(3) 0.5242(3) 0.9399(3)
H23 H 0.6208 0.5363 1.0013
C25 C 0.3347(3) 0.4946(3) 0.8451(3)
H24 H 0.3202 0.4491 0.8945
H25 H 0.3132 0.5548 0.8654
C26 C 0.2579(3) 0.5287(3) 0.6734(3)
H26 H 0.2593 0.5935 0.6767
C27 C 0.2271(3) 0.4769(3) 0.5915(3)
H27 H 0.2033 0.4983 0.5279
C28 C 0.2388(3) 0.3847(3) 0.6231(3)
H28 H 0.2233 0.3330 0.5825
N1 N 0.6693(2) 0.76380(19) 0.9570(2)
N2 N 0.5782(2) 0.77047(19) 0.9363(3)
N3 N 0.4920(2) 1.25700(18) 0.9276(3)
N4 N 0.4084(2) 1.2670(2) 0.9594(3)
N5 N 0.7673(2) 0.6298(2) 0.7363(2)
N6 N 0.76619(18) 0.54173(19) 0.7700(2)
N7 N 0.28572(19) 0.4704(2) 0.7482(2)
N8 N 0.2753(2) 0.3807(2) 0.7198(2)
Ag1B Ag 0.27171(2) 0.261745(15) 0.83980(2)
Ag1B_2 Ag 0.27171(2) 1.261745(15) 0.83980(2)
N4B N 0.9084(2) 0.7670(2) 0.9594(3)
N8B N 0.7753(2) 0.8807(2) 0.7198(2)
N9 N 0.2829(3) 0.75243(19) 0.8538(5)
O1 O 0.3199(3) 0.7440(3) 0.7766(3)
O2 O 0.3135(5) 0.7970(8) 0.9237(6)
O3 O 0.2182(6) 0.6975(7) 0.8618(7)
O4? O 0.3114(9) 0.7262(13) 0.9337(10)
O5? O 0.2115(7) 0.8001(9) 0.8405(9)
loop_
_geom_bond_atom_site_label_1
_geom_bond_atom_site_label_2
_geom_bond_site_symmetry_1
_geom_bond_site_symmetry_2
Ag1 N1 1_555 1_555
C1 H1 1_555 1_555
C2 C1 1_555 1_555
H2 C2 1_555 1_555
C3 C2 1_555 1_555
H3 C3 1_555 1_555
C4 H4 1_555 1_555
H5 C4 1_555 1_555
C5 C4 1_555 1_555
C6 C5 1_555 1_555
H6 C6 1_555 1_555
C7 C6 1_555 1_555
H7 C7 1_555 1_555
C8 C7 1_555 1_555
C9 C8 1_555 1_555
H8 C9 1_555 1_555
C10 C5 1_555 1_555
H9 C10 1_555 1_555
C11 C8 1_555 1_555
H10 C11 1_555 1_555
H11 C11 1_555 1_555
C12 H12 1_555 1_555
C13 C12 1_555 1_555
H13 C13 1_555 1_555
C14 C13 1_555 1_555
H14 C14 1_555 1_555
C15 H15 1_555 1_555
C16 C15 1_555 1_555
H16 C16 1_555 1_555
C17 C16 1_555 1_555
H17 C17 1_555 1_555
C18 H18 1_555 1_555
H19 C18 1_555 1_555
C19 C18 1_555 1_555
C20 C19 1_555 1_555
H20 C20 1_555 1_555
C21 C20 1_555 1_555
H21 C21 1_555 1_555
C22 C21 1_555 1_555
C23 C22 1_555 1_555
H22 C23 1_555 1_555
C24 C19 1_555 1_555
H23 C24 1_555 1_555
C25 C22 1_555 1_555
H24 C25 1_555 1_555
H25 C25 1_555 1_555
C26 H26 1_555 1_555
C27 C26 1_555 1_555
H27 C27 1_555 1_555
C28 C27 1_555 1_555
H28 C28 1_555 1_555
N1 C1 1_555 1_555
N2 C3 1_555 1_555
N3 C11 1_555 1_555
N4 C14 1_555 1_555
N5 Ag1 1_555 1_555
N6 C17 1_555 1_555
N7 C25 1_555 1_555
N8 C28 1_555 1_555
N9 O1 1_555 1_555
O2 N9 1_555 1_555
O3 N9 1_555 1_555
Ag1B N8 1_555 1_555
Ag1B_2 N4 1_555 1_555
N4B Ag1 1_555 1_555
N8B Ag1 1_555 1_555
C4 N2 1_555 1_555
C9 C10 1_555 1_555
C12 N3 1_555 1_555
C15 N5 1_555 1_555
C18 N6 1_555 1_555
C23 C24 1_555 1_555
C26 N7 1_555 1_555
N1 N2 1_555 1_555
N3 N4 1_555 1_555
N5 N6 1_555 1_555
N7 N8 1_555 1_555

#END
