
#######################################################################
#
#                 Cambridge Crystallographic Data Centre
#                                CCDC 
#
#######################################################################
#
# If this CIF has been generated from an entry in the Cambridge 
# Structural Database, then it will include bibliographic, chemical, 
# crystal, experimental, refinement or atomic coordinate data resulting 
# from the CCDC's data processing and validation procedures.
#
#######################################################################

data_CINKER
_symmetry_cell_setting           triclinic
_symmetry_space_group_name_H-M   'P -1'
_symmetry_Int_Tables_number      2
_space_group_name_Hall           '-P 1'
loop_
_symmetry_equiv_pos_site_id
_symmetry_equiv_pos_as_xyz
1 x,y,z
2 -x,-y,-z
_cell_length_a                   10.0086(6)
_cell_length_b                   14.0943(8)
_cell_length_c                   14.2981(8)
_cell_angle_alpha                82.1220(10)
_cell_angle_beta                 80.2830(10)
_cell_angle_gamma                86.0980(10)
_cell_volume                     1967.17
loop_
_atom_site_label
_atom_site_type_symbol
_atom_site_fract_x
_atom_site_fract_y
_atom_site_fract_z
Cd1 Cd 0.11797(3) 0.88503(2) 0.00080(2)
Cd2 Cd 0.22024(3) 0.66948(3) 0.16740(2)
Cl1 Cl 0.19040(13) 0.85944(9) 0.16646(8)
Cl2 Cl 0.12880(12) 0.69349(9) 0.00972(8)
Cl3 Cl -0.13529(11) 0.91971(9) 0.03755(9)
Cl4 Cl 0.46693(13) 0.64595(12) 0.12733(10)
N1 N 0.3428(4) 0.8795(3) -0.0773(3)
N2 N 0.1220(4) 0.8744(3) -0.1640(3)
N3 N 0.4092(5) 0.8587(3) -0.4668(3)
N4 N 0.6369(5) 0.8598(4) -0.3771(3)
N5 N 0.0013(4) 0.6332(3) 0.2521(3)
N6 N 0.2202(4) 0.6439(3) 0.3374(3)
N7 N -0.0616(4) 0.6124(3) 0.6480(3)
N8 N -0.2876(4) 0.6033(3) 0.5584(3)
Na1 Na 0.9245(10) 0.8929(8) -0.6787(7)
Na2 Na 0.5472(15) 0.8625(10) -0.7778(6)
Na3 Na -0.5831(7) 0.6121(6) 0.8585(6)
Na4 Na -0.1952(10) 0.6497(8) 0.9488(5)
O1 O 0.8860(5) 0.8283(4) -0.4917(3)
O2 O 0.7894(5) 0.9006(4) -0.6145(3)
O3 O 0.5874(8) 0.7791(7) -0.6502(5)
O4 O 0.5000(8) 0.9161(6) -0.6716(4)
O5 O -0.5368(4) 0.5756(4) 0.6736(3)
O6 O -0.4495(4) 0.6210(3) 0.7928(3)
O7 O -0.2038(4) 0.5100(3) 0.8498(3)
O8 O -0.1841(4) 0.6674(3) 0.8412(3)
C1 C 0.4507(5) 0.8813(4) -0.0346(3)
H1 H 0.4364 0.8870 0.0304
C2 C 0.5827(5) 0.8751(5) -0.0815(4)
H2 H 0.6552 0.8758 -0.0487
C3 C 0.6045(5) 0.8680(5) -0.1777(4)
H3 H 0.6924 0.8647 -0.2112
C4 C 0.4945(5) 0.8658(4) -0.2244(3)
C5 C 0.3648(4) 0.8723(3) -0.1720(3)
C6 C 0.2446(5) 0.8688(3) -0.2180(3)
C7 C 0.0133(5) 0.8669(4) -0.2034(4)
H4 H -0.0717 0.8699 -0.1655
C8 C 0.0203(6) 0.8548(5) -0.2993(4)
H5 H -0.0583 0.8491 -0.3243
C9 C 0.1422(6) 0.8517(4) -0.3549(4)
H6 H 0.1487 0.8442 -0.4192
C10 C 0.2613(5) 0.8597(4) -0.3154(3)
C11 C 0.3957(5) 0.8594(4) -0.3715(3)
C12 C 0.5101(5) 0.8608(4) -0.3268(3)
C13 C 0.7902(6) 0.8614(4) -0.5251(4)
C14 C 0.6472(6) 0.8610(4) -0.4706(4)
C15 C 0.5329(6) 0.8597(3) -0.5151(3)
C16 C 0.5445(9) 0.8513(8) -0.6199(5)
C17 C -0.1041(5) 0.6202(4) 0.2102(3)
H7 H -0.0912 0.6251 0.1438
C18 C -0.2313(5) 0.5999(4) 0.2603(4)
H8 H -0.3013 0.5896 0.2280
C19 C -0.2536(5) 0.5950(4) 0.3581(3)
H9 H -0.3388 0.5818 0.3932
C20 C -0.1456(4) 0.6103(3) 0.4040(3)
C21 C -0.0200(4) 0.6264(3) 0.3491(3)
C22 C 0.0993(4) 0.6342(3) 0.3944(3)
C23 C 0.3300(5) 0.6463(4) 0.3780(3)
H10 H 0.4138 0.6527 0.3386
C24 C 0.3256(5) 0.6398(4) 0.4760(3)
H11 H 0.4048 0.6413 0.5017
C25 C 0.2024(5) 0.6311(3) 0.5346(3)
H12 H 0.1971 0.6275 0.6005
C26 C 0.0851(4) 0.6278(3) 0.4947(3)
C27 C -0.0485(4) 0.6169(3) 0.5518(3)
C28 C -0.1630(4) 0.6089(3) 0.5081(3)
C29 C -0.4431(5) 0.5981(4) 0.7067(3)
C30 C -0.2997(5) 0.6021(3) 0.6525(3)
C31 C -0.1855(5) 0.6045(3) 0.6973(3)
C32 C -0.1939(5) 0.5888(4) 0.8053(3)
Cd1A Cd -0.11797(3) 1.11497(2) -0.00080(2)
Cd2A Cd -0.22024(3) 0.33052(3) 0.83260(2)
Cl3A Cl 0.13529(11) 1.08029(9) -0.03755(9)
O7A O 0.2038(4) 0.4900(3) 0.1502(3)
loop_
_geom_bond_atom_site_label_1
_geom_bond_atom_site_label_2
_geom_bond_site_symmetry_1
_geom_bond_site_symmetry_2
Cd1 Cl1 1_555 1_555
Cd2 Cl1 1_555 1_555
Cl2 Cd1 1_555 1_555
Cl3 Cd1 1_555 1_555
Cl4 Cd2 1_555 1_555
N1 Cd1 1_555 1_555
N2 Cd1 1_555 1_555
N3 C11 1_555 1_555
N4 C12 1_555 1_555
N5 Cd2 1_555 1_555
N6 Cd2 1_555 1_555
N7 C27 1_555 1_555
N8 C28 1_555 1_555
Na1 O1 1_555 1_555
Na2 O3 1_555 1_555
Na3 O5 1_555 1_555
Na4 O7 1_555 1_555
O1 C13 1_555 1_555
O2 Na1 1_555 1_555
O3 C16 1_555 1_555
O4 Na2 1_555 1_555
O5 C29 1_555 1_555
O6 Na3 1_555 1_555
O7 C32 1_555 1_555
O8 Na4 1_555 1_555
C1 N1 1_555 1_555
H1 C1 1_555 1_555
C2 C1 1_555 1_555
H2 C2 1_555 1_555
C3 C2 1_555 1_555
H3 C3 1_555 1_555
C4 C3 1_555 1_555
C5 N1 1_555 1_555
C6 N2 1_555 1_555
C7 N2 1_555 1_555
H4 C7 1_555 1_555
C8 C7 1_555 1_555
H5 C8 1_555 1_555
C9 C8 1_555 1_555
H6 C9 1_555 1_555
C10 C6 1_555 1_555
C11 C10 1_555 1_555
C12 C4 1_555 1_555
C13 O2 1_555 1_555
C14 N4 1_555 1_555
C15 N3 1_555 1_555
C16 O4 1_555 1_555
C17 N5 1_555 1_555
H7 C17 1_555 1_555
C18 C17 1_555 1_555
H8 C18 1_555 1_555
C19 C18 1_555 1_555
H9 C19 1_555 1_555
C20 C19 1_555 1_555
C21 N5 1_555 1_555
C22 N6 1_555 1_555
C23 N6 1_555 1_555
H10 C23 1_555 1_555
C24 C23 1_555 1_555
H11 C24 1_555 1_555
C25 C24 1_555 1_555
H12 C25 1_555 1_555
C26 C22 1_555 1_555
C27 C26 1_555 1_555
C28 C20 1_555 1_555
C29 O6 1_555 1_555
C30 N8 1_555 1_555
C31 N7 1_555 1_555
C32 O8 1_555 1_555
Cd1A Cl3 1_555 1_555
Cd2A O7 1_555 1_555
Cl3A Cd1 1_555 1_555
O7A Cd2 1_555 1_555
Cd2 Cl2 1_555 1_555
C4 C5 1_555 1_555
C5 C6 1_555 1_555
C9 C10 1_555 1_555
C11 C12 1_555 1_555
C13 C14 1_555 1_555
C14 C15 1_555 1_555
C15 C16 1_555 1_555
C20 C21 1_555 1_555
C21 C22 1_555 1_555
C25 C26 1_555 1_555
C27 C28 1_555 1_555
C29 C30 1_555 1_555
C30 C31 1_555 1_555
C31 C32 1_555 1_555
Cd1A Cl3A 1_555 1_555

#END
