
#######################################################################
#
#                 Cambridge Crystallographic Data Centre
#                                CCDC 
#
#######################################################################
#
# If this CIF has been generated from an entry in the Cambridge 
# Structural Database, then it will include bibliographic, chemical, 
# crystal, experimental, refinement or atomic coordinate data resulting 
# from the CCDC's data processing and validation procedures.
#
#######################################################################

data_CINNIX
_symmetry_cell_setting           orthorhombic
_symmetry_space_group_name_H-M   'P n a 21'
_symmetry_Int_Tables_number      33
_space_group_name_Hall           'P 2c -2n'
loop_
_symmetry_equiv_pos_site_id
_symmetry_equiv_pos_as_xyz
1 x,y,z
2 -x,-y,1/2+z
3 1/2+x,1/2-y,z
4 1/2-x,1/2+y,1/2+z
_cell_length_a                   6.7491(12)
_cell_length_b                   13.186(2)
_cell_length_c                   17.566(3)
_cell_angle_alpha                90
_cell_angle_beta                 90
_cell_angle_gamma                90
_cell_volume                     1563.26
loop_
_atom_site_label
_atom_site_type_symbol
_atom_site_fract_x
_atom_site_fract_y
_atom_site_fract_z
Tb1 Tb 0.51052(4) 0.461730(19) 0.24126(5)
O1 O 0.5746(9) 0.5481(4) 0.1257(3)
O2 O 0.5641(10) 0.5652(5) -0.0010(3)
O3 O 0.3708(10) 0.2243(5) -0.1409(3)
O4 O 0.4668(12) 0.0895(5) -0.0751(4)
O5 O 0.3063(8) 0.1375(4) 0.2140(3)
O6 O 0.3983(9) 0.2901(4) 0.2571(3)
O7 O 0.1878(8) 0.4984(6) 0.1843(4)
H1 H 0.1546 0.4689 0.1433
H2 H 0.1093 0.5405 0.2052
O8 O 0.2444(9) 0.4546(5) 0.3344(4)
H3 H 0.1412 0.4198 0.3250
H4 H 0.2540 0.4867 0.3762
O9 O 0.6459(9) 0.4270(5) 0.3649(3)
H5 H 0.6903 0.3682 0.3751
H6 H 0.6496 0.4734 0.3985
O10 O 0.4304(9) 0.6282(4) 0.2854(4)
H7 H 0.3682 0.6685 0.2561
H8 H 0.4635 0.6472 0.3298
O11 O 0.8113(9) 0.5681(4) 0.2603(3)
H9 H 0.8985 0.5712 0.2255
H10 H 0.8272 0.6013 0.3014
N1 N 0.4583(9) 0.3614(5) 0.1212(4)
C1 C 0.5474(11) 0.5143(6) 0.0589(5)
C2 C 0.4871(10) 0.4040(5) 0.0542(4)
C3 C 0.4711(11) 0.3492(6) -0.0131(5)
H11 H 0.4792 0.3819 -0.0599
C4 C 0.4429(11) 0.2455(6) -0.0096(4)
C5 C 0.4289(12) 0.1810(7) -0.0818(5)
C6 C 0.4169(12) 0.2012(6) 0.0622(5)
H12 H 0.3990 0.1315 0.0667
C7 C 0.4180(10) 0.2604(6) 0.1247(5)
C8 C 0.3681(11) 0.2250(6) 0.2042(5)
Tb1B Tb 0.01052(4) 0.038270(19) 0.24126(5)
O5B O 0.8063(8) 0.3625(4) 0.2140(3)
O12 O -0.7086(11) 0.7638(6) 0.0171(5)
O13 O -0.5073(10) 0.1876(5) 0.3865(4)
O14 O -0.9157(14) 0.5508(7) 0.0373(5)
O15 O -0.592(2) 0.7764(8) 0.1662(6)
loop_
_geom_bond_atom_site_label_1
_geom_bond_atom_site_label_2
_geom_bond_site_symmetry_1
_geom_bond_site_symmetry_2
Tb1 O1 1_555 1_555
O1 C1 1_555 1_555
O2 C1 1_555 1_555
O3 C5 1_555 1_555
O4 C5 1_555 1_555
O5 C8 1_555 1_555
O6 Tb1 1_555 1_555
O7 Tb1 1_555 1_555
H1 O7 1_555 1_555
H2 O7 1_555 1_555
O8 Tb1 1_555 1_555
H3 O8 1_555 1_555
H4 O8 1_555 1_555
O9 Tb1 1_555 1_555
H5 O9 1_555 1_555
H6 O9 1_555 1_555
O10 Tb1 1_555 1_555
H7 O10 1_555 1_555
H8 O10 1_555 1_555
O11 Tb1 1_555 1_555
H9 O11 1_555 1_555
H10 O11 1_555 1_555
N1 Tb1 1_555 1_555
C1 C2 1_555 1_555
C2 N1 1_555 1_555
C3 C2 1_555 1_555
H11 C3 1_555 1_555
C4 C3 1_555 1_555
C5 C4 1_555 1_555
C6 C4 1_555 1_555
H12 C6 1_555 1_555
C7 N1 1_555 1_555
C8 O6 1_555 1_555
Tb1B O5 1_555 1_555
O5B Tb1 1_555 1_555
C6 C7 1_555 1_555
C7 C8 1_555 1_555

#END
