
#######################################################################
#
#                 Cambridge Crystallographic Data Centre
#                                CCDC 
#
#######################################################################
#
# If this CIF has been generated from an entry in the Cambridge 
# Structural Database, then it will include bibliographic, chemical, 
# crystal, experimental, refinement or atomic coordinate data resulting 
# from the CCDC's data processing and validation procedures.
#
#######################################################################

data_CINNET
_symmetry_cell_setting           orthorhombic
_symmetry_space_group_name_H-M   'P n a 21'
_symmetry_Int_Tables_number      33
_space_group_name_Hall           'P 2c -2n'
loop_
_symmetry_equiv_pos_site_id
_symmetry_equiv_pos_as_xyz
1 x,y,z
2 -x,-y,1/2+z
3 1/2+x,1/2-y,z
4 1/2-x,1/2+y,1/2+z
_cell_length_a                   6.7850(9)
_cell_length_b                   13.2552(17)
_cell_length_c                   17.693(2)
_cell_angle_alpha                90
_cell_angle_beta                 90
_cell_angle_gamma                90
_cell_volume                     1591.25
loop_
_atom_site_label
_atom_site_type_symbol
_atom_site_fract_x
_atom_site_fract_y
_atom_site_fract_z
Eu1 Eu -0.01160(3) 0.462430(16) -0.02856(5)
O1 O -0.0765(7) 0.5475(3) -0.1455(3)
O2 O -0.0609(7) 0.5639(4) -0.2707(3)
O3 O 0.1301(7) 0.2239(3) -0.4100(3)
O4 O 0.0345(8) 0.0888(4) -0.3450(3)
O5 O 0.1912(6) 0.1368(3) -0.0567(2)
O6 O 0.1014(6) 0.2892(3) -0.0133(2)
O7 O -0.3135(5) 0.5705(3) -0.0098(3)
H1 H -0.4013 0.5735 -0.0440
H2 H -0.3274 0.6040 0.0308
O8 O 0.3142(6) 0.4988(4) -0.0861(3)
H3 H 0.3384 0.5572 -0.1035
H4 H 0.4018 0.4530 -0.0882
O9 O 0.0739(6) 0.6313(3) 0.0157(3)
H5 H -0.0159 0.6746 0.0241
H6 H 0.1942 0.6468 0.0225
O10 O -0.1479(7) 0.4273(4) 0.0957(3)
H7 H -0.2507 0.4581 0.1107
H8 H -0.0924 0.3843 0.1243
O11 O 0.2559(7) 0.4547(3) 0.0648(3)
H9 H 0.2491 0.4891 0.1053
H10 H 0.3557 0.4175 0.0566
N1 N 0.0387(6) 0.3604(4) -0.1483(3)
C1 C -0.0449(8) 0.5145(5) -0.2112(4)
C2 C 0.0124(7) 0.4033(4) -0.2161(4)
C3 C 0.0300(8) 0.3497(5) -0.2827(4)
H11 H 0.0225 0.3824 -0.3291
C4 C 0.0595(8) 0.2444(4) -0.2791(4)
C5 C 0.0724(10) 0.1812(6) -0.3505(4)
C6 C 0.0808(9) 0.2008(5) -0.2084(4)
H12 H 0.0961 0.1313 -0.2039
C7 C 0.0794(8) 0.2607(4) -0.1447(4)
C8 C 0.1265(9) 0.2240(5) -0.0651(4)
Eu1B Eu 0.48840(3) 0.037570(16) -0.02856(5)
O5B O -0.3088(6) 0.3632(3) -0.0567(2)
O12 O 0.2908(7) 0.2641(4) -0.7531(4)
O13 O 0.5829(9) 0.4490(4) -0.7323(4)
O14 O 0.4917(7) 0.6883(4) -0.3837(3)
O15 O 0.0960(14) 0.7760(6) -0.1045(4)
loop_
_geom_bond_atom_site_label_1
_geom_bond_atom_site_label_2
_geom_bond_site_symmetry_1
_geom_bond_site_symmetry_2
Eu1 O1 1_555 1_555
O1 C1 1_555 1_555
O2 C1 1_555 1_555
O3 C5 1_555 1_555
O4 C5 1_555 1_555
O5 C8 1_555 1_555
O6 Eu1 1_555 1_555
O7 Eu1 1_555 1_555
H1 O7 1_555 1_555
H2 O7 1_555 1_555
O8 Eu1 1_555 1_555
H3 O8 1_555 1_555
H4 O8 1_555 1_555
O9 Eu1 1_555 1_555
H5 O9 1_555 1_555
H6 O9 1_555 1_555
O10 Eu1 1_555 1_555
H7 O10 1_555 1_555
H8 O10 1_555 1_555
O11 Eu1 1_555 1_555
H9 O11 1_555 1_555
H10 O11 1_555 1_555
N1 Eu1 1_555 1_555
C1 C2 1_555 1_555
C2 N1 1_555 1_555
C3 C2 1_555 1_555
H11 C3 1_555 1_555
C4 C3 1_555 1_555
C5 C4 1_555 1_555
C6 C4 1_555 1_555
H12 C6 1_555 1_555
C7 N1 1_555 1_555
C8 O6 1_555 1_555
Eu1B O5 1_555 1_555
O5B Eu1 1_555 1_555
C6 C7 1_555 1_555
C7 C8 1_555 1_555

#END
