
#######################################################################
#
#                 Cambridge Crystallographic Data Centre
#                                CCDC 
#
#######################################################################
#
# If this CIF has been generated from an entry in the Cambridge 
# Structural Database, then it will include bibliographic, chemical, 
# crystal, experimental, refinement or atomic coordinate data resulting 
# from the CCDC's data processing and validation procedures.
#
#######################################################################

data_CINPAR
_symmetry_cell_setting           triclinic
_symmetry_space_group_name_H-M   'P -1'
_symmetry_Int_Tables_number      2
_space_group_name_Hall           '-P 1'
loop_
_symmetry_equiv_pos_site_id
_symmetry_equiv_pos_as_xyz
1 x,y,z
2 -x,-y,-z
_cell_length_a                   6.6841(5)
_cell_length_b                   9.7404(8)
_cell_length_c                   11.2125(9)
_cell_angle_alpha                70.1110(10)
_cell_angle_beta                 85.0550(10)
_cell_angle_gamma                87.2180(10)
_cell_volume                     683.758
loop_
_atom_site_label
_atom_site_type_symbol
_atom_site_fract_x
_atom_site_fract_y
_atom_site_fract_z
La1 La -0.30350(2) 0.050860(15) -0.287700(14)
O1 O -0.4338(3) 0.1757(2) -0.12681(18)
O2 O -0.5328(4) 0.3679(2) -0.06976(19)
O3 O -0.3421(3) 0.8703(2) -0.39663(19)
O4 O -0.3824(3) 0.8741(2) -0.59356(17)
O5 O -0.1208(3) 0.4073(2) -0.67488(18)
O6 O -0.1663(3) 0.2028(2) -0.50902(18)
O7 O -0.0055(4) 0.1197(3) -0.1899(3)
H1 H -0.0131 0.1823 -0.1521
H2 H 0.1025 0.0687 -0.1832
O8 O 0.0413(3) -0.0562(2) -0.33242(19)
H3 H 0.0523 -0.1153 -0.3737
H4 H 0.1369 0.0029 -0.3464
O9 O -0.2241(4) -0.1810(3) -0.1096(2)
H5 H -0.3054 -0.2396 -0.0560
H6 H -0.1001 -0.2010 -0.1000
O10 O -0.6312(3) -0.0697(2) -0.14091(19)
H7 H -0.6200 -0.0711 -0.0655
H8 H -0.6549 -0.1513 -0.1483
N1 N -0.3078(3) 0.3443(2) -0.3578(2)
C1 C -0.3798(4) 0.4122(3) -0.2769(2)
C2 C -0.3880(4) 0.5620(3) -0.3103(3)
H9 H -0.4311 0.6057 -0.2503
C3 C -0.3309(4) 0.6467(3) -0.4344(2)
C4 C -0.2593(4) 0.5776(3) -0.5196(3)
H10 H -0.2214 0.6315 -0.6037
C5 C -0.2455(4) 0.4262(3) -0.4769(2)
C6 C -0.4547(4) 0.3111(3) -0.1469(3)
C7 C -0.3536(4) 0.8107(3) -0.4772(3)
C8 C -0.1708(4) 0.3408(3) -0.5624(3)
La1_2 La -0.30350(2) 1.050860(15) -0.287700(14)
La1A La -0.69650(2) 0.949140(15) -0.712300(14)
O3_2 O -0.3421(3) -0.1297(2) -0.39663(19)
O4A O -0.6176(3) 0.1259(2) -0.40644(17)
O11 O -0.2246(4) 0.3474(3) -0.8843(2)
H11 H -0.1735 0.3654 -0.8245
H12 H -0.3146 0.4071 -0.9221
O12 O -0.9854(4) 0.6487(3) -0.8852(3)
H13 H -0.9265 0.6214 -0.9439
H14 H -1.0601 0.5873 -0.8289
loop_
_geom_bond_atom_site_label_1
_geom_bond_atom_site_label_2
_geom_bond_site_symmetry_1
_geom_bond_site_symmetry_2
La1 O1 1_555 1_555
O1 C6 1_555 1_555
O2 C6 1_555 1_555
O3 C7 1_555 1_555
O4 C7 1_555 1_555
O5 C8 1_555 1_555
O6 La1 1_555 1_555
O7 La1 1_555 1_555
H1 O7 1_555 1_555
H2 O7 1_555 1_555
O8 La1 1_555 1_555
H3 O8 1_555 1_555
H4 O8 1_555 1_555
O9 La1 1_555 1_555
H5 O9 1_555 1_555
H6 O9 1_555 1_555
O10 La1 1_555 1_555
H7 O10 1_555 1_555
H8 O10 1_555 1_555
N1 La1 1_555 1_555
C1 N1 1_555 1_555
C2 C1 1_555 1_555
H9 C2 1_555 1_555
C3 C2 1_555 1_555
C4 C3 1_555 1_555
H10 C4 1_555 1_555
C5 N1 1_555 1_555
C6 C1 1_555 1_555
C7 C3 1_555 1_555
C8 O6 1_555 1_555
O11 H11 1_555 1_555
H12 O11 1_555 1_555
O12 H13 1_555 1_555
H14 O12 1_555 1_555
La1_2 O3 1_555 1_555
La1A O4 1_555 1_555
O3_2 La1 1_555 1_555
O4A La1 1_555 1_555
C4 C5 1_555 1_555
C5 C8 1_555 1_555

#END
