
#######################################################################
#
#                 Cambridge Crystallographic Data Centre
#                                CCDC 
#
#######################################################################
#
# If this CIF has been generated from an entry in the Cambridge 
# Structural Database, then it will include bibliographic, chemical, 
# crystal, experimental, refinement or atomic coordinate data resulting 
# from the CCDC's data processing and validation procedures.
#
#######################################################################

data_CINZEG
_symmetry_cell_setting           monoclinic
_symmetry_space_group_name_H-M   'P 21/c'
_symmetry_Int_Tables_number      14
_space_group_name_Hall           '-P 2ybc'
loop_
_symmetry_equiv_pos_site_id
_symmetry_equiv_pos_as_xyz
1 x,y,z
2 -x,1/2+y,1/2-z
3 -x,-y,-z
4 x,1/2-y,1/2+z
_cell_length_a                   13.4404(14)
_cell_length_b                   21.237(2)
_cell_length_c                   18.1894(14)
_cell_angle_alpha                90
_cell_angle_beta                 118.357(6)
_cell_angle_gamma                90
_cell_volume                     4568.87
loop_
_atom_site_label
_atom_site_type_symbol
_atom_site_fract_x
_atom_site_fract_y
_atom_site_fract_z
Mo1 Mo 1.25011(2) 0.71780(2) 0.88020(2)
Mo2 Mo 1.32390(2) 0.63808(2) 0.75412(2)
Mo3 Mo 1.10166(2) 0.55259(2) 0.61561(2)
Mo4 Mo 0.87314(2) 0.59728(2) 0.63040(2)
Mo5 Mo 0.98604(2) 0.67466(2) 0.83768(2)
Cu1 Cu 0.82358(3) 0.81329(2) 0.82056(2)
Cu2 Cu 0.73862(3) 0.45654(2) 0.64505(2)
P1 P 1.05749(6) 0.70785(3) 0.67279(4)
P2 P 0.85937(6) 1.06728(3) 0.68598(4)
O1 O 1.13779(16) 0.69560(10) 0.91600(12)
O2 O 1.23915(18) 0.79772(10) 0.88380(14)
O3 O 1.36770(17) 0.70083(10) 0.97281(13)
O4 O 1.30727(17) 0.71478(10) 0.80218(13)
O5 O 1.08426(16) 0.70744(10) 0.76547(12)
O6 O 1.45059(17) 0.61062(11) 0.83144(14)
O7 O 1.35760(18) 0.66741(11) 0.68094(14)
O8 O 1.25296(16) 0.56045(10) 0.70544(12)
O9 O 1.13679(16) 0.66277(10) 0.65799(12)
O10 O 1.12548(17) 0.56748(10) 0.53275(13)
O11 O 1.08975(17) 0.47286(10) 0.61600(13)
O12 O 0.94230(16) 0.57670(10) 0.56471(12)
O13 O 0.84219(17) 0.52125(10) 0.65185(13)
O14 O 0.74263(17) 0.62150(11) 0.55812(13)
O15 O 0.93416(16) 0.69050(10) 0.61860(12)
O16 O 0.88748(16) 0.63637(10) 0.73122(12)
O17 O 0.93417(18) 0.64604(11) 0.89938(13)
O18 O 0.92557(17) 0.75035(10) 0.81644(13)
O19 O 0.9422(2) 0.84512(13) 0.92713(16)
H1 H 0.919(4) 0.824(2) 0.953(3)
H2 H 1.008(2) 0.830(2) 0.947(3)
O20 O 0.7712(2) 0.75436(14) 0.90043(19)
H3 H 0.732(4) 0.737(2) 0.8539(19)
H4 H 0.759(4) 0.7156(10) 0.903(3)
O21 O 0.92830(16) 1.08313(10) 0.64258(12)
O22 O 0.93884(16) 1.06640(10) 0.78116(12)
O23 O 0.76055(16) 1.11392(10) 0.66258(13)
O24 O 0.74350(19) 0.41630(11) 0.54727(14)
H5 H 0.783(3) 0.425(2) 0.525(2)
H6 H 0.752(4) 0.3780(9) 0.552(3)
O25 O 0.5922(2) 0.52392(15) 0.5789(2)
H7 H 0.602(5) 0.5572(17) 0.605(3)
H8 H 0.573(5) 0.517(3) 0.5297(16)
N1 N 0.7126(2) 0.87998(12) 0.81167(16)
N2 N 0.7327(2) 0.81422(12) 0.69718(16)
N3 N 0.6314(2) 0.39292(12) 0.64591(15)
N4 N 0.7799(2) 0.46410(12) 0.76555(15)
C1 C 0.7042(2) 0.91058(15) 0.87198(19)
H9 H 0.7524 0.8999 0.9273
C2 C 0.6239(3) 0.95887(15) 0.8544(2)
H10 H 0.6184 0.9789 0.8978
C3 C 0.5541(3) 0.97617(15) 0.7735(2)
H11 H 0.5019 1.0084 0.7618
C4 C 0.6413(2) 0.89567(14) 0.73121(18)
C5 C 0.5617(2) 0.94485(15) 0.7080(2)
C6 C 0.4951(2) 0.95893(15) 0.6207(2)
H12 H 0.4432 0.9918 0.6044
C7 C 0.5062(3) 0.92533(16) 0.5611(2)
H13 H 0.4611 0.9352 0.5050
C8 C 0.5866(2) 0.87490(15) 0.58402(18)
C9 C 0.6527(2) 0.86044(14) 0.66888(18)
C10 C 0.7514(2) 0.78235(15) 0.64178(19)
H14 H 0.8065 0.7511 0.6607
C11 C 0.6903(3) 0.79457(16) 0.55578(19)
H15 H 0.7060 0.7721 0.5186
C12 C 0.6070(3) 0.84003(16) 0.52659(19)
H16 H 0.5647 0.8476 0.4696
C13 C 0.5498(2) 0.36202(15) 0.58267(19)
H17 H 0.5365 0.3706 0.5286
C14 C 0.4832(2) 0.31698(15) 0.5948(2)
H18 H 0.4249 0.2972 0.5489
C15 C 0.5032(2) 0.30180(15) 0.6738(2)
H19 H 0.4607 0.2708 0.6820
C16 C 0.5893(2) 0.33385(14) 0.7427(2)
C17 C 0.6486(2) 0.38027(14) 0.72420(18)
C18 C 0.7301(2) 0.41882(14) 0.78984(18)
C19 C 0.6174(3) 0.32380(15) 0.8283(2)
H20 H 0.5805 0.2922 0.8415
C20 C 0.6967(3) 0.35931(15) 0.8906(2)
H21 H 0.7143 0.3512 0.9457
C21 C 0.7539(2) 0.40943(15) 0.87249(18)
C22 C 0.8303(3) 0.45163(15) 0.93252(18)
H22 H 0.8490 0.4475 0.9885
C23 C 0.8768(3) 0.49905(15) 0.90704(19)
H23 H 0.9251 0.5282 0.9456
C24 C 0.8514(2) 0.50342(15) 0.82283(18)
H24 H 0.8857 0.5347 0.8069
C25 C 1.0844(2) 0.78609(13) 0.64805(18)
H25 H 1.1623 0.7967 0.6864
H26 H 1.0768 0.7853 0.5923
C26 C 1.0096(2) 0.83855(13) 0.65122(17)
C27 C 0.9309(2) 0.86740(14) 0.57722(18)
H27 H 0.9239 0.8537 0.5264
C28 C 1.0186(2) 0.86041(14) 0.72660(18)
H28 H 1.0700 0.8416 0.7765
C29 C 0.8629(2) 0.91633(14) 0.57856(18)
H29 H 0.8102 0.9345 0.5286
C30 C 0.9518(2) 0.91007(14) 0.72811(18)
H30 H 0.9599 0.9244 0.7790
C31 C 0.8728(2) 0.93855(13) 0.65403(18)
C32 C 0.7958(2) 0.99082(13) 0.65348(18)
H31 H 0.7645 0.9785 0.6896
H32 H 0.7333 0.9945 0.5973
Mo1A Mo 0.74989(2) 1.21780(2) 0.61980(2)
Mo2A Mo 0.67610(2) 1.13808(2) 0.74588(2)
Mo3A Mo 0.89834(2) 1.05259(2) 0.88439(2)
Mo4A Mo 1.12686(2) 1.09728(2) 0.86960(2)
Mo5A Mo 1.01396(2) 1.17466(2) 0.66232(2)
O21A O 1.07170(16) 0.58313(10) 0.85742(12)
O22A O 1.06116(16) 0.56640(10) 0.71884(12)
O23A O 1.23945(16) 0.61392(10) 0.83742(13)
O26 O 0.6724(2) 0.86250(17) 0.3564(2)
H33 H 0.606(2) 0.872(3) 0.348(3)
H34 H 0.666(5) 0.871(3) 0.3085(19)
O27 O 0.6545(2) 0.87676(15) 0.19520(19)
H35 H 0.679(4) 0.8439(16) 0.226(3)
H36 H 0.608(4) 0.8474(19) 0.167(3)
O28 O 0.5231(2) 0.30168(14) 0.40767(17)
H37 H 0.549(4) 0.276(3) 0.442(3)
H38 H 0.561(4) 0.313(2) 0.387(3)
O29 O 0.1520(2) 0.69726(12) 0.50521(15)
H39 H 0.178(3) 0.696(2) 0.5571(12)
H40 H 0.160(4) 0.7351(11) 0.496(3)
loop_
_geom_bond_atom_site_label_1
_geom_bond_atom_site_label_2
_geom_bond_site_symmetry_1
_geom_bond_site_symmetry_2
Mo1 O1 1_555 1_555
Mo2 O4 1_555 1_555
Mo3 O8 1_555 1_555
Mo4 O12 1_555 1_555
Mo5 O1 1_555 1_555
Cu1 O18 1_555 1_555
Cu2 O13 1_555 1_555
P1 O5 1_555 1_555
P2 O21 1_555 1_555
O2 Mo1 1_555 1_555
O3 Mo1 1_555 1_555
O4 Mo1 1_555 1_555
O5 Mo1 1_555 1_555
O6 Mo2 1_555 1_555
O7 Mo2 1_555 1_555
O8 Mo2 1_555 1_555
O9 Mo2 1_555 1_555
O10 Mo3 1_555 1_555
O11 Mo3 1_555 1_555
O12 Mo3 1_555 1_555
O13 Mo4 1_555 1_555
O14 Mo4 1_555 1_555
O15 Mo4 1_555 1_555
O16 Mo4 1_555 1_555
O17 Mo5 1_555 1_555
O18 Mo5 1_555 1_555
O19 Cu1 1_555 1_555
H1 O19 1_555 1_555
H2 O19 1_555 1_555
O20 Cu1 1_555 1_555
H3 O20 1_555 1_555
H4 O20 1_555 1_555
O21 Mo5A 1_555 1_555
O22 P2 1_555 1_555
O23 P2 1_555 1_555
O24 Cu2 1_555 1_555
H5 O24 1_555 1_555
H6 O24 1_555 1_555
O25 Cu2 1_555 1_555
H7 O25 1_555 1_555
H8 O25 1_555 1_555
N1 Cu1 1_555 1_555
N2 Cu1 1_555 1_555
N3 Cu2 1_555 1_555
N4 Cu2 1_555 1_555
C1 N1 1_555 1_555
H9 C1 1_555 1_555
C2 C1 1_555 1_555
H10 C2 1_555 1_555
C3 C2 1_555 1_555
H11 C3 1_555 1_555
C4 N1 1_555 1_555
C5 C3 1_555 1_555
C6 C5 1_555 1_555
H12 C6 1_555 1_555
C7 C6 1_555 1_555
H13 C7 1_555 1_555
C8 C7 1_555 1_555
C9 N2 1_555 1_555
C10 N2 1_555 1_555
H14 C10 1_555 1_555
C11 C10 1_555 1_555
H15 C11 1_555 1_555
C12 C8 1_555 1_555
H16 C12 1_555 1_555
C13 N3 1_555 1_555
H17 C13 1_555 1_555
C14 C13 1_555 1_555
H18 C14 1_555 1_555
C15 C14 1_555 1_555
H19 C15 1_555 1_555
C16 C15 1_555 1_555
C17 N3 1_555 1_555
C18 N4 1_555 1_555
C19 C16 1_555 1_555
H20 C19 1_555 1_555
C20 C19 1_555 1_555
H21 C20 1_555 1_555
C21 C18 1_555 1_555
C22 C21 1_555 1_555
H22 C22 1_555 1_555
C23 C22 1_555 1_555
H23 C23 1_555 1_555
C24 N4 1_555 1_555
H24 C24 1_555 1_555
C25 P1 1_555 1_555
H25 C25 1_555 1_555
H26 C25 1_555 1_555
C26 C25 1_555 1_555
C27 C26 1_555 1_555
H27 C27 1_555 1_555
C28 C26 1_555 1_555
H28 C28 1_555 1_555
C29 C27 1_555 1_555
H29 C29 1_555 1_555
C30 C28 1_555 1_555
H30 C30 1_555 1_555
C31 C29 1_555 1_555
C32 P2 1_555 1_555
H31 C32 1_555 1_555
H32 C32 1_555 1_555
O26 H33 1_555 1_555
H34 O26 1_555 1_555
O27 H35 1_555 1_555
H36 O27 1_555 1_555
O28 H37 1_555 1_555
H38 O28 1_555 1_555
O29 H39 1_555 1_555
H40 O29 1_555 1_555
Mo1A O23 1_555 1_555
Mo2A O23 1_555 1_555
Mo3A O22 1_555 1_555
Mo4A O22 1_555 1_555
O21A Mo5 1_555 1_555
O22A Mo3 1_555 1_555
O23A Mo1 1_555 1_555
Mo2 O23A 1_555 1_555
Mo3 O9 1_555 1_555
Mo4 O22A 1_555 1_555
Mo5 O5 1_555 1_555
Mo5 O16 1_555 1_555
P1 O9 1_555 1_555
P1 O15 1_555 1_555
C4 C5 1_555 1_555
C4 C9 1_555 1_555
C8 C9 1_555 1_555
C11 C12 1_555 1_555
C16 C17 1_555 1_555
C17 C18 1_555 1_555
C20 C21 1_555 1_555
C23 C24 1_555 1_555
C30 C31 1_555 1_555
C31 C32 1_555 1_555

#END
