
#######################################################################
#
#                 Cambridge Crystallographic Data Centre
#                                CCDC 
#
#######################################################################
#
# If this CIF has been generated from an entry in the Cambridge 
# Structural Database, then it will include bibliographic, chemical, 
# crystal, experimental, refinement or atomic coordinate data resulting 
# from the CCDC's data processing and validation procedures.
#
#######################################################################

data_CINZUW
_symmetry_cell_setting           monoclinic
_symmetry_space_group_name_H-M   'P 21/n'
_symmetry_Int_Tables_number      14
_space_group_name_Hall           '-P 2yn'
loop_
_symmetry_equiv_pos_site_id
_symmetry_equiv_pos_as_xyz
1 x,y,z
2 1/2-x,1/2+y,1/2-z
3 -x,-y,-z
4 1/2+x,1/2-y,1/2+z
_cell_length_a                   14.3824(13)
_cell_length_b                   23.955(2)
_cell_length_c                   20.6777(19)
_cell_angle_alpha                90
_cell_angle_beta                 100.325(2)
_cell_angle_gamma                90
_cell_volume                     7008.74
loop_
_atom_site_label
_atom_site_type_symbol
_atom_site_fract_x
_atom_site_fract_y
_atom_site_fract_z
Mo1 Mo 0.54943(4) 0.74094(2) 1.08652(3)
Mo2 Mo 0.59482(4) 0.87294(2) 1.18266(3)
Mo3 Mo 0.43381(4) 0.87303(2) 1.27387(3)
Mo4 Mo 0.32262(4) 0.74131(2) 1.29955(3)
Mo5 Mo 0.44391(3) 0.62244(2) 1.29172(3)
Mo6 Mo 0.55699(3) 0.62080(2) 1.16426(3)
Ni1 Ni 0.74573(5) 0.69167(4) 1.01304(4)
Ni2 Ni 0.46615(5) 0.87275(3) 0.82840(4)
P1 P 0.35190(10) 0.69866(7) 1.14372(8)
P2 P 0.05924(11) 0.75579(7) 0.75943(8)
O1 O 0.8318(3) 0.6544(2) 0.9563(2)
H1 H 0.805(4) 0.630(2) 0.930(3)
H2 H 0.862(4) 0.677(2) 0.936(3)
O2 O 0.8073(3) 0.64462(19) 1.0901(2)
H3 H 0.827(4) 0.6123(13) 1.083(3)
H4 H 0.768(4) 0.637(2) 1.115(3)
O3 O 0.6654(3) 0.72560(18) 1.0778(2)
O4 O 0.4979(3) 0.75556(19) 1.0081(2)
O5 O 0.5168(3) 0.66213(18) 1.0867(2)
O6 O 0.4104(3) 0.74482(18) 1.1188(2)
O7 O 0.5699(3) 0.81284(18) 1.1216(2)
O8 O 0.7084(3) 0.8639(2) 1.2198(2)
O9 O 0.5987(3) 0.92592(19) 1.1290(2)
O10 O 0.5370(3) 0.91151(18) 1.2451(2)
O11 O 0.3502(3) 0.92506(19) 1.2615(2)
O12 O 0.4095(3) 0.85853(19) 1.1563(2)
O13 O 0.4701(3) 0.8723(2) 1.3562(2)
O14 O 0.3520(3) 0.81139(18) 1.2641(2)
O15 O 0.3709(3) 0.75500(18) 1.3792(2)
O16 O 0.2033(3) 0.74779(18) 1.2978(2)
O17 O 0.4939(3) 0.6156(2) 1.3723(2)
O18 O 0.3313(3) 0.66177(18) 1.2998(2)
O19 O 0.3908(3) 0.55869(18) 1.2714(2)
O20 O 0.5577(3) 0.61451(17) 1.2567(2)
O21 O 0.2903(3) 0.72345(18) 1.1896(2)
O22 O 0.4108(3) 0.64998(18) 1.1808(2)
O23 O 0.5175(3) 0.55659(18) 1.1356(2)
O24 O 0.6775(3) 0.61823(18) 1.1669(2)
O25 O 0.0396(3) 0.69341(18) 0.7490(2)
O26 O -0.0229(3) 0.78334(17) 0.7860(2)
O27 O 0.0790(3) 0.78348(17) 0.6961(2)
N1 N 0.6364(4) 0.6402(2) 0.9700(3)
N2 N 0.6727(3) 0.7423(2) 0.9452(2)
N3 N 0.8316(3) 0.7621(2) 1.0236(2)
N4 N 0.5586(3) 0.9240(2) 0.8913(3)
N5 N 0.5571(3) 0.8162(2) 0.8764(2)
N6 N 0.4144(3) 0.7962(2) 0.7841(3)
N7 N 0.5328(3) 0.8945(2) 0.7501(3)
N8 N 0.3748(3) 0.9282(2) 0.7805(3)
N9 N 0.3656(3) 0.8785(2) 0.8891(2)
N10 N 0.3484(4) 0.9672(2) 0.5775(3)
N11 N 0.2507(3) 1.0027(2) 0.7134(2)
N12 N 0.1778(4) 1.0236(2) 0.8641(3)
C1 C 0.6246(5) 0.5878(3) 0.9860(3)
H5 H 0.6710 0.5712 1.0188
C2 C 0.5479(4) 0.5556(3) 0.9573(3)
H6 H 0.5440 0.5172 0.9682
C3 C 0.4774(5) 0.5809(3) 0.9127(3)
H7 H 0.4221 0.5607 0.8939
C4 C 0.4889(4) 0.6359(3) 0.8957(3)
H8 H 0.4407 0.6542 0.8657
C5 C 0.5705(4) 0.6646(3) 0.9226(3)
C6 C 0.5927(4) 0.7232(3) 0.9079(3)
C7 C 0.5426(4) 0.7620(3) 0.8636(3)
C8 C 0.6970(4) 0.7961(3) 0.9499(3)
C9 C 0.6287(4) 0.8358(3) 0.9220(3)
C10 C 0.7954(4) 0.8046(3) 0.9847(3)
C11 C 0.9219(4) 0.7643(3) 1.0525(3)
H9 H 0.9473 0.7342 1.0800
C12 C 0.9803(5) 0.8088(3) 1.0442(3)
H10 H 1.0441 0.8097 1.0665
C13 C 0.9443(4) 0.8514(3) 1.0032(3)
H11 H 0.9835 0.8818 0.9956
C14 C 0.8498(4) 0.8501(3) 0.9726(3)
H12 H 0.8232 0.8795 0.9444
C15 C 0.6228(4) 0.8956(3) 0.9366(3)
C16 C 0.6686(4) 0.9212(3) 0.9927(3)
H13 H 0.7086 0.9002 1.0255
C17 C 0.6560(4) 0.9783(3) 1.0013(3)
H14 H 0.6882 0.9967 1.0395
C18 C 0.5963(4) 1.0075(3) 0.9537(3)
H15 H 0.5885 1.0467 0.9575
C19 C 0.5475(4) 0.9783(3) 0.8997(3)
H16 H 0.5045 0.9982 0.8676
C20 C 0.4709(4) 0.7521(3) 0.8027(3)
C21 C 0.4668(4) 0.7036(3) 0.7658(3)
H17 H 0.5115 0.6745 0.7777
C22 C 0.3963(4) 0.6986(3) 0.7112(3)
H18 H 0.3900 0.6655 0.6855
C23 C 0.3349(4) 0.7430(3) 0.6948(3)
H19 H 0.2845 0.7401 0.6583
C24 C 0.3469(4) 0.7907(3) 0.7312(3)
H20 H 0.3056 0.8213 0.7183
C25 C 0.6212(4) 0.8808(3) 0.7450(3)
H21 H 0.6502 0.8501 0.7701
C26 C 0.6718(4) 0.9089(3) 0.7053(3)
H22 H 0.7339 0.8972 0.7020
C27 C 0.6312(4) 0.9544(3) 0.6701(3)
H23 H 0.6661 0.9756 0.6439
C28 C 0.5373(4) 0.9690(3) 0.6737(3)
H24 H 0.5072 0.9996 0.6493
C29 C 0.4902(4) 0.9375(3) 0.7139(3)
C30 C 0.3940(4) 0.9509(3) 0.7256(3)
C31 C 0.3250(4) 0.9853(3) 0.6880(3)
C32 C 0.2965(4) 0.9411(3) 0.8052(3)
C33 C 0.2382(4) 0.9838(3) 0.7726(3)
C34 C 0.3667(4) 0.8492(3) 0.9439(3)
H25 H 0.4223 0.8290 0.9616
C35 C 0.2912(5) 0.8466(3) 0.9763(3)
H26 H 0.2950 0.8263 1.0161
C36 C 0.2099(4) 0.8746(3) 0.9489(3)
H27 H 0.1557 0.8726 0.9691
C37 C 0.2073(4) 0.9053(3) 0.8925(3)
H28 H 0.1510 0.9241 0.8732
C38 C 0.2870(4) 0.9086(3) 0.8637(3)
C39 C 0.3341(4) 1.0057(3) 0.6219(3)
C40 C 0.3372(5) 1.0623(3) 0.6113(3)
H29 H 0.3221 1.0879 0.6429
C41 C 0.3629(5) 1.0811(3) 0.5532(4)
H30 H 0.3689 1.1199 0.5452
C42 C 0.3793(5) 1.0420(3) 0.5074(4)
H31 H 0.3980 1.0535 0.4677
C43 C 0.3683(5) 0.9860(3) 0.5201(3)
H32 H 0.3751 0.9597 0.4869
C44 C 0.1610(4) 1.0125(3) 0.7989(3)
C45 C 0.0782(4) 1.0272(3) 0.7583(3)
H33 H 0.0697 1.0194 0.7125
C46 C 0.1092(4) 1.0485(3) 0.8884(3)
H34 H 0.1191 1.0556 0.9343
C47 C 0.0241(5) 1.0646(3) 0.8509(4)
H35 H -0.0221 1.0833 0.8704
C48 C 0.0076(5) 1.0531(3) 0.7842(3)
H36 H -0.0507 1.0628 0.7571
C49 C 0.2738(4) 0.6654(3) 1.0763(3)
H37 H 0.3040 0.6300 1.0667
H38 H 0.2151 0.6554 1.0924
C50 C 0.2450(4) 0.6957(3) 1.0122(3)
C51 C 0.3034(4) 0.6920(3) 0.9653(3)
H39 H 0.3631 0.6741 0.9761
C52 C 0.1569(4) 0.7210(3) 0.9934(3)
H40 H 0.1155 0.7228 1.0244
C53 C 0.2749(4) 0.7144(3) 0.9030(3)
H41 H 0.3165 0.7125 0.8722
C54 C 0.1271(5) 0.7437(3) 0.9308(3)
H42 H 0.0674 0.7615 0.9201
C55 C 0.1858(4) 0.7399(3) 0.8845(3)
C56 C 0.1668(4) 0.7663(3) 0.8171(3)
H43 H 0.2189 0.7545 0.7947
H44 H 0.1736 0.8071 0.8240
Mo1C Mo 0.04943(4) 0.75906(2) 0.58652(3)
Mo2C Mo 0.09482(4) 0.62706(2) 0.68266(3)
Mo3C Mo -0.06619(4) 0.62697(2) 0.77387(3)
Mo4C Mo -0.17738(4) 0.75869(2) 0.79955(3)
Mo5C Mo -0.05609(3) 0.87756(2) 0.79172(3)
Mo6C Mo 0.05699(3) 0.87920(2) 0.66426(3)
O25C O 0.5396(3) 0.80659(18) 1.2490(2)
O26C O 0.4771(3) 0.71666(17) 1.2860(2)
O27C O 0.5790(3) 0.71652(17) 1.1961(2)
O28 O 0.2445(6) 0.0065(4) 0.1622(5)
H45 H 0.210(7) 0.021(6) 0.124(3)
H46 H 0.203(6) 0.004(6) 0.187(4)
O29 O 0.2678(5) 0.4083(3) 0.1414(4)
H47 H 0.253(7) 0.405(5) 0.179(2)
H48 H 0.225(6) 0.428(5) 0.119(4)
O30 O 0.3413(4) 0.5117(2) 0.1456(3)
H49 H 0.320(5) 0.533(3) 0.115(2)
H50 H 0.346(5) 0.527(3) 0.1824(17)
O31 O 0.0999(5) 0.7383(3) 0.1576(3)
H51 H 0.086(7) 0.733(4) 0.196(2)
H52 H 0.130(7) 0.771(2) 0.163(4)
O32 O 0.1586(5) 0.8476(3) 0.1958(4)
H53 H 0.151(7) 0.816(3) 0.174(5)
H54 H 0.211(4) 0.844(4) 0.222(4)
O33 O 0.2422(5) 0.9027(3) 1.1063(3)
H55 H 0.204(6) 0.883(3) 1.125(5)
H56 H 0.237(7) 0.9360(13) 1.118(5)
loop_
_geom_bond_atom_site_label_1
_geom_bond_atom_site_label_2
_geom_bond_site_symmetry_1
_geom_bond_site_symmetry_2
Mo1 O3 1_555 1_555
Mo2 O7 1_555 1_555
Mo3 O10 1_555 1_555
Mo4 O14 1_555 1_555
Mo5 O17 1_555 1_555
Mo6 O5 1_555 1_555
Ni1 O1 1_555 1_555
Ni2 N4 1_555 1_555
P1 O6 1_555 1_555
P2 O25 1_555 1_555
O1 H1 1_555 1_555
H2 O1 1_555 1_555
O2 Ni1 1_555 1_555
H3 O2 1_555 1_555
H4 O2 1_555 1_555
O3 Ni1 1_555 1_555
O4 Mo1 1_555 1_555
O5 Mo1 1_555 1_555
O6 Mo1 1_555 1_555
O7 Mo1 1_555 1_555
O8 Mo2 1_555 1_555
O9 Mo2 1_555 1_555
O10 Mo2 1_555 1_555
O11 Mo3 1_555 1_555
O12 Mo3 1_555 1_555
O13 Mo3 1_555 1_555
O14 Mo3 1_555 1_555
O15 Mo4 1_555 1_555
O16 Mo4 1_555 1_555
O18 Mo4 1_555 1_555
O19 Mo5 1_555 1_555
O20 Mo5 1_555 1_555
O21 Mo4 1_555 1_555
O22 Mo5 1_555 1_555
O23 Mo6 1_555 1_555
O24 Mo6 1_555 1_555
O25 Mo2C 1_555 1_555
O26 P2 1_555 1_555
O27 P2 1_555 1_555
N1 Ni1 1_555 1_555
N2 Ni1 1_555 1_555
N3 Ni1 1_555 1_555
N4 C15 1_555 1_555
N5 Ni2 1_555 1_555
N6 Ni2 1_555 1_555
N7 Ni2 1_555 1_555
N8 Ni2 1_555 1_555
N9 Ni2 1_555 1_555
N10 C39 1_555 1_555
N11 C31 1_555 1_555
N12 C44 1_555 1_555
C1 N1 1_555 1_555
H5 C1 1_555 1_555
C2 C1 1_555 1_555
H6 C2 1_555 1_555
C3 C2 1_555 1_555
H7 C3 1_555 1_555
C4 C3 1_555 1_555
H8 C4 1_555 1_555
C5 N1 1_555 1_555
C6 N2 1_555 1_555
C7 N5 1_555 1_555
C8 N2 1_555 1_555
C9 N5 1_555 1_555
C10 N3 1_555 1_555
C11 N3 1_555 1_555
H9 C11 1_555 1_555
C12 C11 1_555 1_555
H10 C12 1_555 1_555
C13 C12 1_555 1_555
H11 C13 1_555 1_555
C14 C10 1_555 1_555
H12 C14 1_555 1_555
C15 C9 1_555 1_555
C16 C15 1_555 1_555
H13 C16 1_555 1_555
C17 C16 1_555 1_555
H14 C17 1_555 1_555
C18 C17 1_555 1_555
H15 C18 1_555 1_555
C19 N4 1_555 1_555
H16 C19 1_555 1_555
C20 N6 1_555 1_555
C21 C20 1_555 1_555
H17 C21 1_555 1_555
C22 C21 1_555 1_555
H18 C22 1_555 1_555
C23 C22 1_555 1_555
H19 C23 1_555 1_555
C24 N6 1_555 1_555
H20 C24 1_555 1_555
C25 N7 1_555 1_555
H21 C25 1_555 1_555
C26 C25 1_555 1_555
H22 C26 1_555 1_555
C27 C26 1_555 1_555
H23 C27 1_555 1_555
C28 C27 1_555 1_555
H24 C28 1_555 1_555
C29 N7 1_555 1_555
C30 N8 1_555 1_555
C31 C30 1_555 1_555
C32 N8 1_555 1_555
C33 N11 1_555 1_555
C34 N9 1_555 1_555
H25 C34 1_555 1_555
C35 C34 1_555 1_555
H26 C35 1_555 1_555
C36 C35 1_555 1_555
H27 C36 1_555 1_555
C37 C36 1_555 1_555
H28 C37 1_555 1_555
C38 N9 1_555 1_555
C39 C31 1_555 1_555
C40 C39 1_555 1_555
H29 C40 1_555 1_555
C41 C40 1_555 1_555
H30 C41 1_555 1_555
C42 C41 1_555 1_555
H31 C42 1_555 1_555
C43 N10 1_555 1_555
H32 C43 1_555 1_555
C44 C33 1_555 1_555
C45 C44 1_555 1_555
H33 C45 1_555 1_555
C46 N12 1_555 1_555
H34 C46 1_555 1_555
C47 C46 1_555 1_555
H35 C47 1_555 1_555
C48 C45 1_555 1_555
H36 C48 1_555 1_555
C49 P1 1_555 1_555
H37 C49 1_555 1_555
H38 C49 1_555 1_555
C50 C49 1_555 1_555
C51 C50 1_555 1_555
H39 C51 1_555 1_555
C52 C50 1_555 1_555
H40 C52 1_555 1_555
C53 C51 1_555 1_555
H41 C53 1_555 1_555
C54 C52 1_555 1_555
H42 C54 1_555 1_555
C55 C53 1_555 1_555
C56 P2 1_555 1_555
H43 C56 1_555 1_555
H44 C56 1_555 1_555
O28 H45 1_555 1_555
H46 O28 1_555 1_555
O29 H47 1_555 1_555
H48 O29 1_555 1_555
O30 H49 1_555 1_555
H50 O30 1_555 1_555
O31 H51 1_555 1_555
H52 O31 1_555 1_555
O32 H53 1_555 1_555
H54 O32 1_555 1_555
O33 H55 1_555 1_555
H56 O33 1_555 1_555
Mo1C O27 1_555 1_555
Mo3C O25 1_555 1_555
Mo4C O26 1_555 1_555
Mo5C O26 1_555 1_555
Mo6C O27 1_555 1_555
O25C Mo2 1_555 1_555
O26C Mo4 1_555 1_555
O27C Mo1 1_555 1_555
Mo3 O25C 1_555 1_555
Mo5 O18 1_555 1_555
Mo5 O26C 1_555 1_555
Mo6 O20 1_555 1_555
Mo6 O22 1_555 1_555
Mo6 O27C 1_555 1_555
P1 O21 1_555 1_555
P1 O22 1_555 1_555
C4 C5 1_555 1_555
C5 C6 1_555 1_555
C6 C7 1_555 1_555
C7 C20 1_555 1_555
C8 C9 1_555 1_555
C8 C10 1_555 1_555
C13 C14 1_555 1_555
C18 C19 1_555 1_555
C23 C24 1_555 1_555
C28 C29 1_555 1_555
C29 C30 1_555 1_555
C32 C33 1_555 1_555
C32 C38 1_555 1_555
C37 C38 1_555 1_555
C42 C43 1_555 1_555
C47 C48 1_555 1_555
C54 C55 1_555 1_555
C55 C56 1_555 1_555

#END
