
#######################################################################
#
#                 Cambridge Crystallographic Data Centre
#                                CCDC 
#
#######################################################################
#
# If this CIF has been generated from an entry in the Cambridge 
# Structural Database, then it will include bibliographic, chemical, 
# crystal, experimental, refinement or atomic coordinate data resulting 
# from the CCDC's data processing and validation procedures.
#
#######################################################################

data_CINZOQ
_symmetry_cell_setting           monoclinic
_symmetry_space_group_name_H-M   'P 21/c'
_symmetry_Int_Tables_number      14
_space_group_name_Hall           '-P 2ybc'
loop_
_symmetry_equiv_pos_site_id
_symmetry_equiv_pos_as_xyz
1 x,y,z
2 -x,1/2+y,1/2-z
3 -x,-y,-z
4 x,1/2-y,1/2+z
_cell_length_a                   15.6642(11)
_cell_length_b                   17.0366(13)
_cell_length_c                   18.1045(13)
_cell_angle_alpha                90
_cell_angle_beta                 110.3660(10)
_cell_angle_gamma                90
_cell_volume                     4529.43
loop_
_atom_site_label
_atom_site_type_symbol
_atom_site_fract_x
_atom_site_fract_y
_atom_site_fract_z
Mo1 Mo 0.11372(2) 0.13930(2) -0.07139(2)
Mo2 Mo 0.04462(2) 0.31458(2) -0.02583(2)
Mo3 Mo 0.23245(2) 0.42683(2) 0.05549(2)
Mo4 Mo 0.42252(2) 0.32077(2) 0.07984(2)
Mo5 Mo 0.36168(2) 0.13227(2) 0.03320(2)
Ni1 Ni 0.33465(2) 0.49020(2) 0.26712(2)
P1 P 0.23556(4) 0.20610(3) 0.41415(3)
P2 P 0.23390(4) 0.23197(3) 0.11265(3)
O1 O 0.23896(11) 0.10683(10) -0.02623(9)
O2 O 0.08138(11) 0.09345(10) -0.16065(9)
O3 O 0.17666(11) 0.27279(9) 0.36926(9)
O4 O 0.02864(11) 0.22633(9) -0.09623(9)
O5 O 0.06657(11) 0.08112(10) -0.01849(10)
O6 O 0.15129(11) 0.22691(9) 0.03412(9)
O7 O 0.18075(11) 0.15070(9) 0.44900(9)
O8 O -0.01133(11) 0.38351(10) -0.09498(10)
O9 O -0.03169(11) 0.28808(10) 0.01730(10)
O10 O 0.12084(11) 0.38176(9) 0.05773(9)
O11 O 0.19580(12) 0.50927(10) 0.00068(10)
O12 O 0.29080(11) 0.30612(9) 0.11437(9)
O13 O 0.34502(11) 0.41092(9) 0.03807(9)
O14 O 0.27036(11) 0.46198(9) 0.15147(9)
O15 O 0.47690(11) 0.35184(10) 0.17561(10)
O16 O 0.49897(12) 0.33961(10) 0.03445(11)
O17 O 0.43989(11) 0.20974(9) 0.10038(9)
O18 O 0.32012(11) 0.23891(9) 0.48018(9)
O19 O 0.40756(11) 0.12457(10) -0.04071(10)
O20 O 0.40210(11) 0.04848(10) 0.08589(10)
O21 O 0.28973(11) 0.15720(9) 0.12097(9)
O22 O 0.35097(13) 0.37138(11) 0.29573(12)
H1 H 0.369(2) 0.3391(19) 0.2743(18)
H2 H 0.371(2) 0.3614(18) 0.3390(19)
O23 O 0.45700(12) 0.48569(12) 0.25107(11)
H3 H 0.471(2) 0.5178(18) 0.2259(18)
H4 H 0.461(2) 0.4418(19) 0.2312(17)
O24 O 0.41047(13) 0.51558(11) 0.38475(10)
H5 H 0.463(2) 0.5182(17) 0.3907(17)
H6 H 0.4127(19) 0.4782(18) 0.4117(17)
O25 O 0.21502(13) 0.48835(11) 0.29081(12)
H7 H 0.210(2) 0.4600(18) 0.3196(19)
H8 H 0.168(2) 0.4842(17) 0.2507(18)
N1 N 0.30976(13) 0.60891(12) 0.23993(11)
N2 N 0.22089(15) 1.00332(12) 0.12687(13)
H9 H 0.2129(19) 1.0529(11) 0.1115(16)
C1 C 0.27312(16) 0.15064(14) 0.34672(13)
H10 H 0.3110 0.1843 0.3259
H11 H 0.3109 0.1059 0.3747
C2 C 0.19230(16) 0.12057(14) 0.27944(14)
C3 C 0.15336(17) 0.04939(14) 0.29097(14)
H12 H 0.1809 0.0209 0.3384
C4 C 0.07563(18) 0.02012(15) 0.23449(15)
H13 H 0.0502 -0.0280 0.2433
C5 C 0.03468(17) 0.06133(15) 0.16463(15)
H14 H -0.0187 0.0414 0.1257
C6 C 0.07223(17) 0.13154(15) 0.15224(14)
H15 H 0.0440 0.1595 0.1045
C7 C 0.15084(16) 0.16209(14) 0.20858(14)
C8 C 0.18865(16) 0.23927(13) 0.19152(13)
H16 H 0.2375 0.2573 0.2399
H17 H 0.1397 0.2792 0.1774
C9 C 0.24408(17) 0.63005(14) 0.17198(14)
H18 H 0.2121 0.5900 0.1366
C10 C 0.35263(17) 0.66648(14) 0.28967(15)
H19 H 0.3983 0.6525 0.3382
C11 C 0.22130(17) 0.70757(14) 0.15153(15)
H20 H 0.1747 0.7198 0.1030
C12 C 0.33320(17) 0.74575(14) 0.27345(15)
H21 H 0.3648 0.7846 0.3105
C13 C 0.26671(16) 0.76749(14) 0.20207(14)
C14 C 0.24778(17) 0.85133(14) 0.17884(14)
C15 C 0.16607(17) 0.87396(15) 0.12082(15)
H22 H 0.1190 0.8365 0.0991
C16 C 0.31353(17) 0.90883(15) 0.21252(15)
H23 H 0.3683 0.8956 0.2539
C17 C 0.15397(17) 0.95064(15) 0.09524(15)
H24 H 0.0988 0.9663 0.0555
C18 C 0.29827(18) 0.98482(15) 0.18520(15)
H25 H 0.3427 1.0242 0.2078
Mo1C Mo 0.11372(2) 0.36070(2) 0.42861(2)
Mo2C Mo 0.04462(2) 0.18542(2) 0.47417(2)
Mo3C Mo 0.23245(2) 0.07317(2) 0.55549(2)
Mo4C Mo 0.42252(2) 0.17923(2) 0.57984(2)
Mo5C Mo 0.36168(2) 0.36773(2) 0.53320(2)
O3C O 0.17666(11) 0.22721(9) -0.13074(9)
O7C O 0.18075(11) 0.34930(9) -0.05100(9)
O18C O 0.32012(11) 0.26109(9) -0.01982(9)
O26 O 0.39587(15) 0.51311(12) 0.93275(12)
H26 H 0.424(2) 0.5546(14) 0.9515(18)
H27 H 0.388(2) 0.4907(18) 0.9711(15)
O27 O 0.06509(13) 0.46705(11) 0.16265(11)
H28 H 0.0408(19) 0.5067(13) 0.1412(16)
H29 H 0.074(2) 0.4407(16) 0.1285(14)
O28 O 0.43625(14) 0.22607(13) 0.27870(13)
H30 H 0.4844(17) 0.2482(19) 0.3110(17)
H31 H 0.447(2) 0.217(2) 0.2371(14)
O29 O 0.53195(15) 0.56976(13) 0.16777(14)
H32 H 0.546(2) 0.6185(12) 0.1825(19)
H33 H 0.554(2) 0.5486(19) 0.1358(17)
N3 N 0.58696(17) 0.27022(17) 0.40881(16)
N4 N 0.9834(2) 0.24759(17) 0.74567(15)
H34 H 1.032(2) 0.245(2) 0.7898(16)
C19 C 0.6234(2) 0.20092(19) 0.43976(18)
H35 H 0.5957 0.1542 0.4137
C20 C 0.6257(2) 0.3349(2) 0.4478(2)
H36 H 0.5996 0.3843 0.4279
C21 C 0.69943(19) 0.19431(18) 0.50772(17)
H37 H 0.7229 0.1441 0.5274
C22 C 0.7018(2) 0.33379(19) 0.5154(2)
H38 H 0.7274 0.3815 0.5405
C23 C 0.74078(19) 0.26194(17) 0.54662(17)
C24 C 0.82488(19) 0.25719(17) 0.61745(16)
C25 C 0.8521(2) 0.31874(18) 0.67234(19)
H39 H 0.8160 0.3648 0.6656
C26 C 0.88061(19) 0.19111(16) 0.63095(15)
H40 H 0.8638 0.1480 0.5955
C27 C 0.9319(3) 0.3114(2) 0.73626(17)
H41 H 0.9502 0.3525 0.7739
C28 C 0.9599(2) 0.18775(18) 0.69533(17)
H42 H 0.9978 0.1427 0.7038
loop_
_geom_bond_atom_site_label_1
_geom_bond_atom_site_label_2
_geom_bond_site_symmetry_1
_geom_bond_site_symmetry_2
Mo1 O1 1_555 1_555
Mo2 O4 1_555 1_555
Mo3 O10 1_555 1_555
Mo4 O12 1_555 1_555
Mo5 O1 1_555 1_555
Ni1 O14 1_555 1_555
P1 O3 1_555 1_555
P2 O6 1_555 1_555
O2 Mo1 1_555 1_555
O3 Mo1C 1_555 1_555
O4 Mo1 1_555 1_555
O5 Mo1 1_555 1_555
O6 Mo1 1_555 1_555
O7 P1 1_555 1_555
O8 Mo2 1_555 1_555
O9 Mo2 1_555 1_555
O10 Mo2 1_555 1_555
O11 Mo3 1_555 1_555
O12 Mo3 1_555 1_555
O13 Mo3 1_555 1_555
O14 Mo3 1_555 1_555
O15 Mo4 1_555 1_555
O16 Mo4 1_555 1_555
O17 Mo4 1_555 1_555
O18 P1 1_555 1_555
O19 Mo5 1_555 1_555
O20 Mo5 1_555 1_555
O21 Mo5 1_555 1_555
O22 Ni1 1_555 1_555
H1 O22 1_555 1_555
H2 O22 1_555 1_555
O23 Ni1 1_555 1_555
H3 O23 1_555 1_555
H4 O23 1_555 1_555
O24 Ni1 1_555 1_555
H5 O24 1_555 1_555
H6 O24 1_555 1_555
O25 Ni1 1_555 1_555
H7 O25 1_555 1_555
H8 O25 1_555 1_555
N1 Ni1 1_555 1_555
N2 H9 1_555 1_555
C1 P1 1_555 1_555
H10 C1 1_555 1_555
H11 C1 1_555 1_555
C2 C1 1_555 1_555
C3 C2 1_555 1_555
H12 C3 1_555 1_555
C4 C3 1_555 1_555
H13 C4 1_555 1_555
C5 C4 1_555 1_555
H14 C5 1_555 1_555
C6 C5 1_555 1_555
H15 C6 1_555 1_555
C7 C2 1_555 1_555
C8 P2 1_555 1_555
H16 C8 1_555 1_555
H17 C8 1_555 1_555
C9 N1 1_555 1_555
H18 C9 1_555 1_555
C10 N1 1_555 1_555
H19 C10 1_555 1_555
C11 C9 1_555 1_555
H20 C11 1_555 1_555
C12 C10 1_555 1_555
H21 C12 1_555 1_555
C13 C11 1_555 1_555
C14 C13 1_555 1_555
C15 C14 1_555 1_555
H22 C15 1_555 1_555
C16 C14 1_555 1_555
H23 C16 1_555 1_555
C17 N2 1_555 1_555
H24 C17 1_555 1_555
C18 N2 1_555 1_555
H25 C18 1_555 1_555
O26 H26 1_555 1_555
H27 O26 1_555 1_555
O27 H28 1_555 1_555
H29 O27 1_555 1_555
O28 H30 1_555 1_555
H31 O28 1_555 1_555
O29 H32 1_555 1_555
H33 O29 1_555 1_555
N3 C19 1_555 1_555
N4 H34 1_555 1_555
C19 H35 1_555 1_555
C20 N3 1_555 1_555
H36 C20 1_555 1_555
C21 C19 1_555 1_555
H37 C21 1_555 1_555
C22 C20 1_555 1_555
H38 C22 1_555 1_555
C23 C21 1_555 1_555
C24 C23 1_555 1_555
C25 C24 1_555 1_555
H39 C25 1_555 1_555
C26 C24 1_555 1_555
H40 C26 1_555 1_555
C27 N4 1_555 1_555
H41 C27 1_555 1_555
C28 N4 1_555 1_555
H42 C28 1_555 1_555
Mo2C O7 1_555 1_555
Mo3C O7 1_555 1_555
Mo4C O18 1_555 1_555
Mo5C O18 1_555 1_555
O3C Mo1 1_555 1_555
O7C Mo2 1_555 1_555
O18C Mo4 1_555 1_555
Mo2 O6 1_555 1_555
Mo3 O7C 1_555 1_555
Mo4 O13 1_555 1_555
Mo5 O17 1_555 1_555
Mo5 O18C 1_555 1_555
P2 O12 1_555 1_555
P2 O21 1_555 1_555
C6 C7 1_555 1_555
C7 C8 1_555 1_555
C12 C13 1_555 1_555
C15 C17 1_555 1_555
C16 C18 1_555 1_555
C22 C23 1_555 1_555
C25 C27 1_555 1_555
C26 C28 1_555 1_555

#END
