
#######################################################################
#
#                 Cambridge Crystallographic Data Centre
#                                CCDC 
#
#######################################################################
#
# If this CIF has been generated from an entry in the Cambridge 
# Structural Database, then it will include bibliographic, chemical, 
# crystal, experimental, refinement or atomic coordinate data resulting 
# from the CCDC's data processing and validation procedures.
#
#######################################################################

data_CIPBOU
_symmetry_cell_setting           triclinic
_symmetry_space_group_name_H-M   'P -1'
_symmetry_Int_Tables_number      2
_space_group_name_Hall           '-P 1'
loop_
_symmetry_equiv_pos_site_id
_symmetry_equiv_pos_as_xyz
1 x,y,z
2 -x,-y,-z
_cell_length_a                   8.9981(6)
_cell_length_b                   20.6917(16)
_cell_length_c                   21.1555(16)
_cell_angle_alpha                113.586(2)
_cell_angle_beta                 96.089(2)
_cell_angle_gamma                95.629(2)
_cell_volume                     3546.51
loop_
_atom_site_label
_atom_site_type_symbol
_atom_site_fract_x
_atom_site_fract_y
_atom_site_fract_z
Mo1 Mo 0.76815(4) -0.05123(2) 0.33278(2)
Mo2 Mo 0.81027(4) 0.02320(2) 0.18393(2)
Cu1 Cu 0.71324(5) 0.24217(2) 0.47972(2)
P1 P 0.70425(10) 0.11011(5) 0.34178(5)
P2 P 0.09102(10) 0.02281(5) 0.30434(5)
F1 F 0.8059(3) -0.14177(11) 0.27953(11)
F2 F 0.7468(2) -0.04586(10) 0.23215(10)
F3 F 0.6155(2) -0.00694(12) 0.13443(11)
F4 F 0.8821(2) -0.05227(12) 0.12482(11)
O1 O 0.7984(3) -0.05195(13) 0.41305(13)
O2 O 0.5679(3) -0.07108(13) 0.31313(12)
O3 O -0.0028(3) -0.02038(12) 0.33413(12)
O4 O 0.7655(3) 0.05430(12) 0.36518(12)
O5 O 0.7828(3) 0.18445(12) 0.39062(12)
O6 O 0.7193(3) 0.09288(13) 0.26555(12)
O7 O 0.8698(3) 0.08645(12) 0.15657(12)
O8 O -0.0062(3) 0.04745(12) 0.25689(12)
O9 O 0.2106(3) -0.01733(12) 0.26695(12)
O10 O 0.9180(3) 0.30408(13) 0.53952(12)
H1 H 0.9086 0.3221 0.5819
N1 N 0.7191(3) 0.17021(15) 0.52214(15)
N2 N 0.5205(3) 0.24800(15) 0.51452(14)
N3 N 0.6373(3) 0.31688(15) 0.45131(15)
C1 C 0.8315(4) 0.13291(19) 0.52503(18)
H2 H 0.9190 0.1401 0.5057
C2 C 0.8253(4) 0.0846(2) 0.55492(19)
H3 H 0.9076 0.0597 0.5570
C3 C 0.6968(4) 0.0733(2) 0.58173(19)
H4 H 0.6894 0.0400 0.6022
C4 C 0.5789(4) 0.11068(19) 0.57862(19)
H5 H 0.4897 0.1032 0.5967
C5 C 0.5926(4) 0.15910(18) 0.54876(17)
C6 C 0.4770(4) 0.20300(18) 0.54274(17)
C7 C 0.3328(4) 0.19953(19) 0.56047(18)
H6 H 0.3001 0.1675 0.5800
C8 C 0.2382(4) 0.24390(19) 0.54897(18)
H7 H 0.1399 0.2428 0.5614
C9 C 0.2853(4) 0.29026(19) 0.51928(17)
H8 H 0.2204 0.3205 0.5110
C10 C 0.4298(4) 0.29058(18) 0.50243(17)
C11 C 0.5009(4) 0.33330(18) 0.46844(17)
C12 C 0.4347(4) 0.3847(2) 0.45372(19)
H9 H 0.3395 0.3958 0.4669
C13 C 0.5099(4) 0.4196(2) 0.4195(2)
H10 H 0.4671 0.4549 0.4089
C14 C 0.6484(4) 0.4017(2) 0.4011(2)
H11 H 0.7018 0.4246 0.3773
C15 C 0.7082(4) 0.35040(19) 0.41753(18)
H12 H 0.8030 0.3383 0.4045
C16 C 0.5056(4) 0.10036(18) 0.34786(18)
H13 H 0.4593 0.0513 0.3147
H14 H 0.4964 0.1043 0.3954
C17 C 0.4116(4) 0.15177(18) 0.33385(17)
C18 C 0.4670(4) 0.19671(18) 0.30373(18)
H15 H 0.5677 0.1967 0.2940
C19 C 0.3788(4) 0.24116(19) 0.28774(19)
H16 H 0.4188 0.2707 0.2669
C20 C 0.2322(4) 0.24235(19) 0.3022(2)
H17 H 0.1712 0.2726 0.2913
C21 C 0.1754(4) 0.19921(18) 0.33262(19)
H18 H 0.0754 0.2006 0.3431
C22 C 0.2630(4) 0.15356(18) 0.34814(18)
C23 C 0.1862(4) 0.10417(18) 0.37577(17)
H19 H 0.1119 0.1282 0.4049
H20 H 0.2624 0.0928 0.4055
Cu2 Cu 0.18346(5) -0.08178(2) 0.17056(2)
O11 O 0.4250(3) -0.09398(14) 0.17746(13)
H21 H 0.468(4) -0.089(2) 0.2165(13)
H22 H 0.485(4) -0.0660(17) 0.171(2)
N4 N 0.1232(3) -0.17259(15) 0.18349(15)
N5 N 0.1289(3) -0.14916(15) 0.07388(15)
N6 N 0.2015(3) -0.01337(15) 0.12289(15)
C24 C 0.2365(4) 0.05784(19) 0.15364(19)
H23 H 0.2602 0.0809 0.2031
C25 C 0.2394(4) 0.0991(2) 0.11562(19)
H24 H 0.2618 0.1497 0.1388
C26 C 0.2093(4) 0.0656(2) 0.04378(19)
H25 H 0.2128 0.0927 0.0167
C27 C 0.1738(4) -0.0085(2) 0.01118(19)
H26 H 0.1530 -0.0326 -0.0383
C28 C 0.1693(4) -0.04657(19) 0.05235(18)
C29 C 0.1246(4) -0.12435(19) 0.02421(18)
C30 C 0.0800(4) -0.1717(2) -0.04598(19)
H27 H 0.0753 -0.1549 -0.0817
C31 C 0.0427(4) -0.2442(2) -0.0622(2)
H28 H 0.0145 -0.2774 -0.1096
C32 C 0.0467(4) -0.2680(2) -0.0094(2)
H29 H 0.0200 -0.3172 -0.0201
C33 C 0.0904(4) -0.21852(19) 0.05923(19)
C34 C 0.0962(4) -0.23253(19) 0.12287(19)
C35 C 0.0770(4) -0.3000(2) 0.1231(2)
H30 H 0.0600 -0.3416 0.0805
C36 C 0.0833(4) -0.3053(2) 0.1866(2)
H31 H 0.0720 -0.3509 0.1880
C37 C 0.1061(4) -0.2441(2) 0.2479(2)
H32 H 0.1084 -0.2468 0.2918
C38 C 0.1255(4) -0.17844(19) 0.2440(2)
H33 H 0.1411 -0.1362 0.2860
Mo1_2 Mo -0.23185(4) -0.05123(2) 0.33278(2)
Mo2_2 Mo -0.18973(4) 0.02320(2) 0.18393(2)
O3_2 O 0.9972(3) -0.02038(12) 0.33413(12)
O8_2 O 0.9938(3) 0.04745(12) 0.25689(12)
Mo3 Mo 1.04970(4) 0.42192(2) 0.30874(2)
Mo4 Mo 0.97843(4) 0.47271(2) 0.14326(2)
Cu3 Cu 0.52337(5) 0.37915(2) 0.12159(2)
P3 P 0.74536(10) 0.48498(5) 0.25948(5)
P4 P 0.18120(10) 0.57576(5) 0.30003(5)
F5 F 0.9594(2) 0.32687(11) 0.26903(11)
F6 F 1.0217(2) 0.40975(10) 0.20310(10)
F7 F 0.8146(2) 0.40353(11) 0.09326(11)
O12 O 1.2341(3) 0.40537(12) 0.29908(12)
O13 O 1.0446(3) 0.43832(13) 0.39447(13)
O14 O 0.8282(3) 0.44282(12) 0.29362(12)
O15 O 0.1050(3) 0.52549(12) 0.32961(12)
O16 O 0.8459(3) 0.51215(12) 0.21797(12)
O17 O 0.9569(3) 0.52997(13) 0.10541(12)
O18 O 1.1146(2) 0.42361(11) 0.09544(11)
O19 O 0.1483(3) 0.54127(12) 0.21936(12)
O20 O 0.1363(3) 0.64841(12) 0.33223(12)
O21 O 0.5948(3) 0.44326(12) 0.21657(12)
O22 O 0.2974(3) 0.35038(14) 0.15387(14)
H34 H 0.230(3) 0.368(2) 0.142(2)
H35 H 0.307(4) 0.365(2) 0.1968(10)
N7 N 0.5823(3) 0.28554(15) 0.11954(15)
N8 N 0.4444(3) 0.31578(15) 0.02470(15)
N9 N 0.4492(3) 0.45039(15) 0.08652(15)
C39 C 0.6547(4) 0.27514(19) 0.17201(19)
H36 H 0.6972 0.3155 0.2139
C40 C 0.6703(4) 0.20756(19) 0.1678(2)
H37 H 0.7220 0.2016 0.2062
C41 C 0.6087(4) 0.14883(19) 0.1063(2)
H38 H 0.6149 0.1019 0.1026
C42 C 0.5384(4) 0.15912(19) 0.05064(19)
H39 H 0.4991 0.1196 0.0076
C43 C 0.5259(4) 0.22785(19) 0.05841(18)
C44 C 0.4484(4) 0.24555(19) 0.00315(18)
C45 C 0.3824(4) 0.1979(2) -0.06406(19)
H40 H 0.3820 0.1481 -0.0791
C46 C 0.3171(4) 0.2250(2) -0.10859(19)
H41 H 0.2741 0.1935 -0.1552
C47 C 0.3139(4) 0.2978(2) -0.08559(19)
H42 H 0.2691 0.3166 -0.1160
C48 C 0.3780(4) 0.34259(19) -0.01687(18)
C49 C 0.3784(4) 0.42071(19) 0.01911(18)
C50 C 0.3074(4) 0.45956(19) -0.01134(19)
H43 H 0.2599 0.4375 -0.0588
C51 C 0.3066(4) 0.5313(2) 0.02839(19)
H44 H 0.2581 0.5592 0.0086
C52 C 0.3769(4) 0.5619(2) 0.09704(19)
H45 H 0.3770 0.6110 0.1253
C53 C 0.4476(4) 0.51985(19) 0.12422(19)
H46 H 0.4967 0.5412 0.1714
C54 C 0.7113(4) 0.56430(17) 0.32996(18)
H47 H 0.6413 0.5502 0.3569
H48 H 0.8079 0.5885 0.3617
C55 C 0.6450(4) 0.61644(17) 0.30605(17)
C56 C 0.7445(4) 0.65848(18) 0.28566(18)
H49 H 0.8477 0.6522 0.2866
C57 C 0.6950(4) 0.70897(18) 0.26427(18)
H50 H 0.7636 0.7366 0.2502
C58 C 0.5442(4) 0.71897(18) 0.26351(18)
H51 H 0.5093 0.7540 0.2498
C59 C 0.4452(4) 0.67692(18) 0.28311(18)
H52 H 0.3423 0.6838 0.2824
C60 C 0.4923(4) 0.62513(18) 0.30367(17)
C61 C 0.3816(4) 0.57789(18) 0.32327(18)
H53 H 0.4037 0.5935 0.3745
H54 H 0.4033 0.5284 0.3013
Mo3_2 Mo 0.04970(4) 0.42192(2) 0.30874(2)
Mo4_2 Mo -0.02157(4) 0.47271(2) 0.14326(2)
O15_2 O 1.1050(3) 0.52549(12) 0.32961(12)
O19_2 O 1.1483(3) 0.54127(12) 0.21936(12)
O23 O 0.0579(3) 0.42052(15) 0.52114(14)
H55 H 0.031(5) 0.4565(15) 0.5502(18)
H56 H 0.056(5) 0.428(2) 0.4860(15)
loop_
_geom_bond_atom_site_label_1
_geom_bond_atom_site_label_2
_geom_bond_site_symmetry_1
_geom_bond_site_symmetry_2
Mo1 F1 1_555 1_555
Mo2 F2 1_555 1_555
Cu1 O5 1_555 1_555
P1 O4 1_555 1_555
P2 O3 1_555 1_555
F2 Mo1 1_555 1_555
F3 Mo2 1_555 1_555
F4 Mo2 1_555 1_555
O1 Mo1 1_555 1_555
O2 Mo1 1_555 1_555
O3 Mo1_2 1_555 1_555
O4 Mo1 1_555 1_555
O5 P1 1_555 1_555
O6 Mo2 1_555 1_555
O7 Mo2 1_555 1_555
O8 P2 1_555 1_555
O9 P2 1_555 1_555
O10 Cu1 1_555 1_555
H1 O10 1_555 1_555
N1 Cu1 1_555 1_555
N2 Cu1 1_555 1_555
N3 Cu1 1_555 1_555
C1 N1 1_555 1_555
H2 C1 1_555 1_555
C2 C1 1_555 1_555
H3 C2 1_555 1_555
C3 C2 1_555 1_555
H4 C3 1_555 1_555
C4 C3 1_555 1_555
H5 C4 1_555 1_555
C5 N1 1_555 1_555
C6 N2 1_555 1_555
C7 C6 1_555 1_555
H6 C7 1_555 1_555
C8 C7 1_555 1_555
H7 C8 1_555 1_555
C9 C8 1_555 1_555
H8 C9 1_555 1_555
C10 N2 1_555 1_555
C11 N3 1_555 1_555
C12 C11 1_555 1_555
H9 C12 1_555 1_555
C13 C12 1_555 1_555
H10 C13 1_555 1_555
C14 C13 1_555 1_555
H11 C14 1_555 1_555
C15 N3 1_555 1_555
H12 C15 1_555 1_555
C16 P1 1_555 1_555
H13 C16 1_555 1_555
H14 C16 1_555 1_555
C17 C16 1_555 1_555
C18 C17 1_555 1_555
H15 C18 1_555 1_555
C19 C18 1_555 1_555
H16 C19 1_555 1_555
C20 C19 1_555 1_555
H17 C20 1_555 1_555
C21 C20 1_555 1_555
H18 C21 1_555 1_555
C22 C17 1_555 1_555
C23 P2 1_555 1_555
H19 C23 1_555 1_555
H20 C23 1_555 1_555
Cu2 O9 1_555 1_555
O11 Cu2 1_555 1_555
H21 O11 1_555 1_555
H22 O11 1_555 1_555
N4 Cu2 1_555 1_555
N5 Cu2 1_555 1_555
N6 Cu2 1_555 1_555
C24 N6 1_555 1_555
H23 C24 1_555 1_555
C25 C24 1_555 1_555
H24 C25 1_555 1_555
C26 C25 1_555 1_555
H25 C26 1_555 1_555
C27 C26 1_555 1_555
H26 C27 1_555 1_555
C28 N6 1_555 1_555
C29 N5 1_555 1_555
C30 C29 1_555 1_555
H27 C30 1_555 1_555
C31 C30 1_555 1_555
H28 C31 1_555 1_555
C32 C31 1_555 1_555
H29 C32 1_555 1_555
C33 N5 1_555 1_555
C34 N4 1_555 1_555
C35 C34 1_555 1_555
H30 C35 1_555 1_555
C36 C35 1_555 1_555
H31 C36 1_555 1_555
C37 C36 1_555 1_555
H32 C37 1_555 1_555
C38 N4 1_555 1_555
H33 C38 1_555 1_555
Mo3 F5 1_555 1_555
Mo4 F6 1_555 1_555
Cu3 O21 1_555 1_555
P3 O14 1_555 1_555
P4 O15 1_555 1_555
F6 Mo3 1_555 1_555
F7 Mo4 1_555 1_555
O12 Mo3 1_555 1_555
O13 Mo3 1_555 1_555
O14 Mo3 1_555 1_555
O15 Mo3_2 1_555 1_555
O16 Mo4 1_555 1_555
O17 Mo4 1_555 1_555
O18 Mo4 1_555 1_555
O19 P4 1_555 1_555
O20 P4 1_555 1_555
O21 P3 1_555 1_555
O22 Cu3 1_555 1_555
H34 O22 1_555 1_555
H35 O22 1_555 1_555
N7 Cu3 1_555 1_555
N8 Cu3 1_555 1_555
N9 Cu3 1_555 1_555
C39 N7 1_555 1_555
H36 C39 1_555 1_555
C40 C39 1_555 1_555
H37 C40 1_555 1_555
C41 C40 1_555 1_555
H38 C41 1_555 1_555
C42 C41 1_555 1_555
H39 C42 1_555 1_555
C43 N7 1_555 1_555
C44 N8 1_555 1_555
C45 C44 1_555 1_555
H40 C45 1_555 1_555
C46 C45 1_555 1_555
H41 C46 1_555 1_555
C47 C46 1_555 1_555
H42 C47 1_555 1_555
C48 N8 1_555 1_555
C49 N9 1_555 1_555
C50 C49 1_555 1_555
H43 C50 1_555 1_555
C51 C50 1_555 1_555
H44 C51 1_555 1_555
C52 C51 1_555 1_555
H45 C52 1_555 1_555
C53 N9 1_555 1_555
H46 C53 1_555 1_555
C54 P3 1_555 1_555
H47 C54 1_555 1_555
H48 C54 1_555 1_555
C55 C54 1_555 1_555
C56 C55 1_555 1_555
H49 C56 1_555 1_555
C57 C56 1_555 1_555
H50 C57 1_555 1_555
C58 C57 1_555 1_555
H51 C58 1_555 1_555
C59 C58 1_555 1_555
H52 C59 1_555 1_555
C60 C55 1_555 1_555
C61 P4 1_555 1_555
H53 C61 1_555 1_555
H54 C61 1_555 1_555
O23 H55 1_555 1_555
H56 O23 1_555 1_555
Mo2_2 O8 1_555 1_555
O3_2 Mo1 1_555 1_555
O8_2 Mo2 1_555 1_555
Mo4_2 O19 1_555 1_555
O15_2 Mo3 1_555 1_555
O19_2 Mo4 1_555 1_555
P1 O6 1_555 1_555
C4 C5 1_555 1_555
C5 C6 1_555 1_555
C9 C10 1_555 1_555
C10 C11 1_555 1_555
C14 C15 1_555 1_555
C21 C22 1_555 1_555
C22 C23 1_555 1_555
C27 C28 1_555 1_555
C28 C29 1_555 1_555
C32 C33 1_555 1_555
C33 C34 1_555 1_555
C37 C38 1_555 1_555
P3 O16 1_555 1_555
C42 C43 1_555 1_555
C43 C44 1_555 1_555
C47 C48 1_555 1_555
C48 C49 1_555 1_555
C52 C53 1_555 1_555
C59 C60 1_555 1_555
C60 C61 1_555 1_555

#END
