
#######################################################################
#
#                 Cambridge Crystallographic Data Centre
#                                CCDC 
#
#######################################################################
#
# If this CIF has been generated from an entry in the Cambridge 
# Structural Database, then it will include bibliographic, chemical, 
# crystal, experimental, refinement or atomic coordinate data resulting 
# from the CCDC's data processing and validation procedures.
#
#######################################################################

data_CIPCUB
_symmetry_cell_setting           monoclinic
_symmetry_space_group_name_H-M   'P 21/c'
_symmetry_Int_Tables_number      14
_space_group_name_Hall           '-P 2ybc'
loop_
_symmetry_equiv_pos_site_id
_symmetry_equiv_pos_as_xyz
1 x,y,z
2 -x,1/2+y,1/2-z
3 -x,-y,-z
4 x,1/2-y,1/2+z
_cell_length_a                   15.7940(5)
_cell_length_b                   13.4071(6)
_cell_length_c                   17.8147(8)
_cell_angle_alpha                90
_cell_angle_beta                 93.021(3)
_cell_angle_gamma                90
_cell_volume                     3767.05
loop_
_atom_site_label
_atom_site_type_symbol
_atom_site_fract_x
_atom_site_fract_y
_atom_site_fract_z
C1 C 1.2851(8) 0.3308(10) -0.2997(6)
H1 H 1.2529 0.2864 -0.3294
C2 C 1.3338(10) 0.3989(11) -0.3330(8)
H2 H 1.3352 0.3995 -0.3851
C3 C 1.3799(9) 0.4654(10) -0.2931(8)
H3 H 1.4133 0.5114 -0.3170
C4 C 1.3774(7) 0.4652(9) -0.2130(7)
C5 C 1.3273(6) 0.3910(8) -0.1833(5)
C6 C 1.3245(6) 0.3849(8) -0.1016(6)
C7 C 1.4236(8) 0.5329(10) -0.1663(9)
H4 H 1.4586 0.5798 -0.1874
C8 C 1.4178(9) 0.5302(10) -0.0929(8)
H5 H 1.4459 0.5783 -0.0634
C9 C 1.3697(7) 0.4561(8) -0.0577(7)
C10 C 1.3668(8) 0.4455(11) 0.0227(8)
H6 H 1.3940 0.4917 0.0545
C11 C 1.3247(8) 0.3685(11) 0.0512(7)
H7 H 1.3246 0.3591 0.1029
C12 C 1.2814(8) 0.3035(10) 0.0029(7)
H8 H 1.2515 0.2518 0.0241
N1 N 1.2824(6) 0.3259(7) -0.2235(5)
N2 N 1.2794(5) 0.3090(7) -0.0713(5)
Ag1 Ag 1.20464(6) 0.20767(8) -0.15078(5)
I1 I 0.45598(5) -0.16865(6) -0.07529(4)
C13 C 0.4746(6) -0.2011(8) 0.0411(5)
I2 I 1.04104(5) 0.16028(7) -0.06043(4)
Cd1 Cd 0.74651(4) 0.01316(5) 0.26068(4)
Ag2 Ag 0.70157(6) 0.23038(8) 0.13086(6)
N3 N 0.7885(6) 0.3285(8) 0.0636(5)
N4 N 0.7735(5) 0.3417(7) 0.2160(5)
C14 C 0.8711(7) 0.4823(9) 0.2213(7)
C15 C 0.8240(6) 0.4091(7) 0.1805(6)
C16 C 0.8789(7) 0.4729(9) 0.0628(7)
C17 C 0.8305(6) 0.4034(8) 0.1015(6)
C18 C 0.8000(8) 0.3205(12) -0.0113(7)
H9 H 0.7731 0.2681 -0.0370
O1 O 0.8714(4) 0.1245(6) 0.2678(4)
O2 O 0.8074(4) 0.0923(6) 0.1584(4)
O3 O 0.6200(4) -0.1073(5) 0.2711(4)
O4 O 0.6783(4) -0.0723(5) 0.1639(4)
C19 C 0.6206(6) -0.1142(7) 0.2007(5)
C20 C 0.8678(7) 0.1311(8) 0.2002(6)
C21 C 0.9384(6) 0.1815(8) 0.1592(6)
C22 C 0.9911(6) 0.2490(7) 0.1982(5)
H10 H 0.9822 0.2635 0.2482
C23 C 0.5393(7) -0.1521(8) 0.0792(6)
H11 H 0.5738 -0.1082 0.0544
C24 C 0.5525(5) -0.1694(7) 0.1563(5)
C25 C 0.7743(8) 0.3412(10) 0.2895(7)
H12 H 0.7444 0.2919 0.3135
C26 C 0.4986(6) -0.2338(7) 0.1918(5)
H13 H 0.5056 -0.2430 0.2435
C27 C 0.4353(6) -0.2841(7) 0.1523(5)
C28 C 0.9187(9) 0.5517(11) 0.1821(10)
H14 H 0.9489 0.6007 0.2092
C29 C 0.8834(9) 0.4616(13) -0.0139(8)
H15 H 0.9118 0.5095 -0.0408
C30 C 0.8191(11) 0.4131(12) 0.3333(8)
H16 H 0.8160 0.4142 0.3853
C31 C 0.8476(9) 0.3829(13) -0.0510(8)
H17 H 0.8555 0.3722 -0.1018
C32 C 0.9221(10) 0.5498(10) 0.1084(11)
H18 H 0.9528 0.5988 0.0848
C33 C 0.8666(9) 0.4802(11) 0.2981(8)
H19 H 0.8974 0.5269 0.3268
C34 C 0.3772(6) -0.3519(7) 0.1935(6)
C35 C 0.4232(6) -0.2683(8) 0.0754(6)
H20 H 0.3811 -0.3025 0.0475
C36 C 1.1165(6) 0.3658(7) 0.2061(6)
C37 C 0.9504(7) 0.1598(8) 0.0869(6)
H21 H 0.9131 0.1178 0.0599
C38 C 1.0709(6) 0.2704(7) 0.0878(5)
H22 H 1.1141 0.3009 0.0626
C39 C 1.0566(6) 0.2945(7) 0.1632(6)
O5 O 1.1081(4) 0.3776(5) 0.2748(4)
O6 O 1.1729(4) 0.4072(5) 0.1688(4)
O7 O 0.3207(4) -0.3973(5) 0.1530(4)
O8 O 0.3850(5) -0.3612(6) 0.2617(4)
C40 C 1.0198(6) 0.2013(8) 0.0533(6)
Ag1B Ag 0.79536(6) -0.20767(8) 0.15078(5)
Ag1C Ag 1.20464(6) 0.29233(8) 0.34922(5)
I1B I 0.54402(5) 0.16865(6) 0.07529(4)
Cd1A Cd 0.25349(4) -0.48684(5) 0.23932(4)
Cd1A_2 Cd 1.25349(4) 0.51316(5) 0.23932(4)
Ag2A Ag 0.29843(6) -0.26962(8) 0.36914(6)
Ag2B Ag 0.29843(6) -0.23038(8) -0.13086(6)
O4B O 1.3217(4) 0.0723(5) -0.1639(4)
O5C O 1.1081(4) 0.1224(5) -0.2252(4)
O6A O 0.8271(4) -0.0928(5) 0.3312(4)
O7A O 0.6793(4) 0.1027(5) 0.3470(4)
O8A O 0.6150(5) 0.1388(6) 0.2383(4)
O9 O 0.7395(10) 0.9946(15) 0.0180(7)
H23 H 0.7398 0.9344 0.0328
H24 H 0.7772 1.0274 0.0433
loop_
_geom_bond_atom_site_label_1
_geom_bond_atom_site_label_2
_geom_bond_site_symmetry_1
_geom_bond_site_symmetry_2
C1 H1 1_555 1_555
C2 C1 1_555 1_555
H2 C2 1_555 1_555
C3 C2 1_555 1_555
H3 C3 1_555 1_555
C4 C3 1_555 1_555
C5 C4 1_555 1_555
C6 C5 1_555 1_555
C7 C4 1_555 1_555
H4 C7 1_555 1_555
C8 C7 1_555 1_555
H5 C8 1_555 1_555
C9 C6 1_555 1_555
C10 C9 1_555 1_555
H6 C10 1_555 1_555
C11 C10 1_555 1_555
H7 C11 1_555 1_555
C12 C11 1_555 1_555
H8 C12 1_555 1_555
N1 C1 1_555 1_555
N2 C6 1_555 1_555
Ag1 N1 1_555 1_555
I1 C13 1_555 1_555
C13 C23 1_555 1_555
I2 Ag1 1_555 1_555
Cd1 O1 1_555 1_555
Ag2 N3 1_555 1_555
N3 C17 1_555 1_555
N4 Ag2 1_555 1_555
C14 C15 1_555 1_555
C15 N4 1_555 1_555
C16 C17 1_555 1_555
C17 C15 1_555 1_555
C18 N3 1_555 1_555
H9 C18 1_555 1_555
O1 C20 1_555 1_555
O2 Cd1 1_555 1_555
O3 Cd1 1_555 1_555
O4 Cd1 1_555 1_555
C19 O3 1_555 1_555
C20 O2 1_555 1_555
C21 C20 1_555 1_555
C22 C21 1_555 1_555
H10 C22 1_555 1_555
C23 H11 1_555 1_555
C24 C19 1_555 1_555
C25 N4 1_555 1_555
H12 C25 1_555 1_555
C26 C24 1_555 1_555
H13 C26 1_555 1_555
C27 C26 1_555 1_555
C28 C14 1_555 1_555
H14 C28 1_555 1_555
C29 C16 1_555 1_555
H15 C29 1_555 1_555
C30 C25 1_555 1_555
H16 C30 1_555 1_555
C31 C18 1_555 1_555
H17 C31 1_555 1_555
C32 C16 1_555 1_555
H18 C32 1_555 1_555
C33 C14 1_555 1_555
H19 C33 1_555 1_555
C34 C27 1_555 1_555
C35 C13 1_555 1_555
H20 C35 1_555 1_555
C36 C39 1_555 1_555
C37 C21 1_555 1_555
H21 C37 1_555 1_555
C38 H22 1_555 1_555
C39 C22 1_555 1_555
O5 C36 1_555 1_555
O6 C36 1_555 1_555
O7 C34 1_555 1_555
O8 C34 1_555 1_555
C40 I2 1_555 1_555
O9 H23 1_555 1_555
H24 O9 1_555 1_555
Ag1B O4 1_555 1_555
Ag1C O5 1_555 1_555
I1B Ag2 1_555 1_555
Cd1A O7 1_555 1_555
Cd1A_2 O6 1_555 1_555
Ag2A O8 1_555 1_555
Ag2B I1 1_555 1_555
O4B Ag1 1_555 1_555
O5C Ag1 1_555 1_555
O6A Cd1 1_555 1_555
O7A Cd1 1_555 1_555
O8A Cd1 1_555 1_555
C5 N1 1_555 1_555
C8 C9 1_555 1_555
C12 N2 1_555 1_555
N2 Ag1 1_555 1_555
Ag2 O2 1_555 1_555
Ag2 O8A 1_555 1_555
O4 C19 1_555 1_555
C23 C24 1_555 1_555
C27 C35 1_555 1_555
C28 C32 1_555 1_555
C29 C31 1_555 1_555
C30 C33 1_555 1_555
C37 C40 1_555 1_555
C38 C39 1_555 1_555
C38 C40 1_555 1_555
O8 Cd1A 1_555 1_555

#END
