
#######################################################################
#
#                 Cambridge Crystallographic Data Centre
#                                CCDC 
#
#######################################################################
#
# If this CIF has been generated from an entry in the Cambridge 
# Structural Database, then it will include bibliographic, chemical, 
# crystal, experimental, refinement or atomic coordinate data resulting 
# from the CCDC's data processing and validation procedures.
#
#######################################################################

data_CIPDAI
_symmetry_cell_setting           monoclinic
_symmetry_space_group_name_H-M   'P 21/c'
_symmetry_Int_Tables_number      14
_space_group_name_Hall           '-P 2ybc'
loop_
_symmetry_equiv_pos_site_id
_symmetry_equiv_pos_as_xyz
1 x,y,z
2 -x,1/2+y,1/2-z
3 -x,-y,-z
4 x,1/2-y,1/2+z
_cell_length_a                   14.0054(3)
_cell_length_b                   15.1789(3)
_cell_length_c                   18.5649(3)
_cell_angle_alpha                90
_cell_angle_beta                 94.108(2)
_cell_angle_gamma                90
_cell_volume                     3936.51
loop_
_atom_site_label
_atom_site_type_symbol
_atom_site_fract_x
_atom_site_fract_y
_atom_site_fract_z
Cd1 Cd -0.74346(3) -0.04280(2) 0.252378(19)
I1 I -0.57809(3) -0.31975(3) -0.06827(2)
I2 I -0.90607(3) -0.34651(3) 0.55240(2)
Ag1 Ag -0.53527(3) 0.02630(3) 0.13609(2)
Ag2 Ag 0.03203(4) 0.12059(3) 0.59933(2)
O1 O -0.6126(3) -0.1671(2) 0.26432(19)
O2 O -0.6574(2) -0.0993(2) 0.16241(18)
C1 C -0.8544(4) -0.1908(3) 0.2884(3)
C2 C -0.9367(4) -0.3321(3) 0.4403(3)
C3 C -0.5667(3) -0.2313(3) 0.1556(3)
C4 C -1.0104(4) -0.3808(3) 0.4046(3)
H1 H -1.0463 -0.4198 0.4303
C5 C -0.6153(4) -0.1617(3) 0.1978(3)
C6 C -0.2055(4) 0.0611(4) 0.3932(3)
C7 C -0.4140(4) -0.0238(4) 0.2753(3)
H2 H -0.4600 -0.0678 0.2767
C8 C -0.5438(4) -0.3051(3) 0.0435(3)
C9 C -0.9771(3) -0.3106(3) 0.2933(3)
H3 H -0.9898 -0.3042 0.2437
O3 O -0.8513(3) -0.1962(3) 0.2222(2)
C10 C -0.2808(4) 0.1038(4) 0.2730(3)
H4 H -0.2365 0.1492 0.2707
C11 C -0.4998(3) -0.2873(3) 0.1907(3)
H5 H -0.4854 -0.2815 0.2401
C12 C -0.2780(4) 0.0493(4) 0.3324(3)
N1 N -0.0675(3) 0.0875(3) 0.5083(2)
C13 C -0.1138(4) 0.0918(4) 0.3825(3)
H6 H -0.0967 0.1042 0.3360
N2 N -0.4156(3) 0.0283(3) 0.2175(2)
O4 O -0.8185(3) -0.1286(2) 0.3261(2)
C14 C -0.9055(3) -0.2601(3) 0.3287(3)
C15 C -0.8847(4) -0.2723(3) 0.4028(3)
H7 H -0.8358 -0.2402 0.4270
C16 C -1.0300(3) -0.3705(3) 0.3306(3)
C17 C -0.2241(4) 0.0427(4) 0.4637(3)
H8 H -0.2835 0.0205 0.4740
N3 N -0.6177(3) 0.0512(3) 0.0353(2)
O5 O 0.1726(4) 0.1930(4) 0.5418(3)
H9 H 0.1769 0.1782 0.4980
H10 H 0.1688 0.2488 0.5415
C18 C -0.5890(3) -0.2407(3) 0.0812(3)
H11 H -0.6339 -0.2038 0.0574
C19 C -0.4763(4) -0.3607(3) 0.0791(3)
H12 H -0.4462 -0.4039 0.0532
C20 C -0.3472(4) -0.0153(4) 0.3330(3)
H13 H -0.3487 -0.0531 0.3723
C21 C -0.0483(4) 0.1039(4) 0.4408(3)
H14 H 0.0123 0.1247 0.4323
C22 C -0.3493(4) 0.0908(4) 0.2167(3)
H15 H -0.3492 0.1275 0.1766
O6 O -1.1162(3) -0.4231(3) 0.2249(2)
C23 C -0.7322(4) 0.0902(4) -0.0910(3)
C24 C -0.4540(4) -0.3519(3) 0.1526(3)
C25 C -1.1076(4) -0.4248(4) 0.2916(3)
C26 C -0.1547(4) 0.0569(4) 0.5188(3)
H16 H -0.1694 0.0446 0.5658
C27 C -0.6466(4) 0.1301(4) -0.0746(3)
H17 H -0.6240 0.1718 -0.1060
C28 C -0.5927(4) 0.1092(4) -0.0115(3)
H18 H -0.5348 0.1384 -0.0019
C29 C -0.7576(5) 0.0285(5) -0.0417(4)
H19 H -0.8150 -0.0019 -0.0497
C30 C -0.6989(5) 0.0111(5) 0.0196(3)
H20 H -0.7183 -0.0316 0.0515
O7 O -0.3683(3) -0.4065(3) 0.2584(2)
O8 O -1.1589(3) -0.4708(3) 0.3290(2)
C31 C -0.3828(4) -0.4126(4) 0.1916(3)
O9 O -0.3407(3) -0.4681(2) 0.1540(2)
C32 C -0.7911(4) 0.1056(4) -0.1593(3)
C33 C -0.7652(4) 0.1634(4) -0.2111(3)
H21 H -0.7112 0.1986 -0.2022
C34 C -0.8738(4) 0.0612(5) -0.1769(3)
H22 H -0.8973 0.0225 -0.1436
C35 C -0.8181(4) 0.1700(4) -0.2762(3)
H23 H -0.7976 0.2093 -0.3102
C36 C -0.9231(4) 0.0719(5) -0.2426(3)
H24 H -0.9795 0.0402 -0.2519
N4 N -0.8957(3) 0.1241(3) -0.2932(2)
Cd1A Cd -1.25654(3) -0.54280(2) 0.247622(19)
Cd1A_2 Cd -0.25654(3) -0.54280(2) 0.247622(19)
Ag1A Ag -0.46473(3) -0.47370(3) 0.36391(2)
Ag2_2 Ag -0.96797(4) 0.12059(3) -0.40067(2)
O6A O -0.8838(3) 0.0769(3) 0.2751(2)
O7A O -0.6317(3) 0.0935(3) 0.2416(2)
O8A O -0.8411(3) 0.0292(3) 0.1710(2)
O9A O -0.6593(3) 0.0319(2) 0.3460(2)
N4_2 N 0.1043(3) 0.1241(3) 0.7068(2)
O10 O -0.7997(4) -0.8494(4) 0.4004(2)
H25 H -0.7642 -0.8944 0.4080
H26 H -0.7652 -0.8052 0.3916
O11 O 0.2680(7) 0.3228(6) 0.6167(5)
H27 H 0.2952 0.3455 0.6546
H28 H 0.2263 0.3583 0.5981
O12? O 0.3399(12) 0.2668(11) 0.6359(9)
H29? H 0.3734 0.2834 0.6734
H30? H 0.3757 0.2414 0.6071
loop_
_geom_bond_atom_site_label_1
_geom_bond_atom_site_label_2
_geom_bond_site_symmetry_1
_geom_bond_site_symmetry_2
Cd1 O1 1_555 1_555
I1 C8 1_555 1_555
I2 C2 1_555 1_555
Ag1 O2 1_555 1_555
Ag2 N1 1_555 1_555
O1 C5 1_555 1_555
O2 Cd1 1_555 1_555
C1 O3 1_555 1_555
C2 C4 1_555 1_555
C3 C5 1_555 1_555
C4 H1 1_555 1_555
C5 O2 1_555 1_555
C6 C12 1_555 1_555
C7 H2 1_555 1_555
C8 C18 1_555 1_555
C9 H3 1_555 1_555
O3 Cd1 1_555 1_555
C10 H4 1_555 1_555
C11 C3 1_555 1_555
H5 C11 1_555 1_555
C12 C10 1_555 1_555
N1 C21 1_555 1_555
C13 C6 1_555 1_555
H6 C13 1_555 1_555
N2 Ag1 1_555 1_555
O4 Cd1 1_555 1_555
C14 C1 1_555 1_555
C15 C2 1_555 1_555
H7 C15 1_555 1_555
C16 C4 1_555 1_555
C17 C6 1_555 1_555
H8 C17 1_555 1_555
N3 Ag1 1_555 1_555
O5 Ag2 1_555 1_555
H9 O5 1_555 1_555
H10 O5 1_555 1_555
C18 C3 1_555 1_555
H11 C18 1_555 1_555
C19 C8 1_555 1_555
H12 C19 1_555 1_555
C20 C7 1_555 1_555
H13 C20 1_555 1_555
C21 C13 1_555 1_555
H14 C21 1_555 1_555
C22 C10 1_555 1_555
H15 C22 1_555 1_555
O6 C25 1_555 1_555
C23 C27 1_555 1_555
C24 C11 1_555 1_555
C25 C16 1_555 1_555
C26 N1 1_555 1_555
H16 C26 1_555 1_555
C27 H17 1_555 1_555
C28 N3 1_555 1_555
H18 C28 1_555 1_555
C29 C23 1_555 1_555
H19 C29 1_555 1_555
C30 N3 1_555 1_555
H20 C30 1_555 1_555
O7 C31 1_555 1_555
O8 C25 1_555 1_555
C31 C24 1_555 1_555
O9 C31 1_555 1_555
C32 C23 1_555 1_555
C33 C32 1_555 1_555
H21 C33 1_555 1_555
C34 C32 1_555 1_555
H22 C34 1_555 1_555
C35 C33 1_555 1_555
H23 C35 1_555 1_555
C36 C34 1_555 1_555
H24 C36 1_555 1_555
N4 C35 1_555 1_555
O10 H25 1_555 1_555
H26 O10 1_555 1_555
O11 H27 1_555 1_555
H28 O11 1_555 1_555
Cd1A O6 1_555 1_555
Cd1A_2 O7 1_555 1_555
Ag1A O7 1_555 1_555
Ag2_2 N4 1_555 1_555
O6A Cd1 1_555 1_555
O7A Cd1 1_555 1_555
O8A Cd1 1_555 1_555
O9A Cd1 1_555 1_555
N4_2 Ag2 1_555 1_555
Ag1 O7A 1_555 1_555
C1 O4 1_555 1_555
C7 N2 1_555 1_555
C9 C14 1_555 1_555
C9 C16 1_555 1_555
C12 C20 1_555 1_555
N2 C22 1_555 1_555
C14 C15 1_555 1_555
C17 C26 1_555 1_555
C19 C24 1_555 1_555
C27 C28 1_555 1_555
C29 C30 1_555 1_555
O8 Cd1A 1_555 1_555
O9 Cd1A_2 1_555 1_555
C36 N4 1_555 1_555

#END
