
#######################################################################
#
#                 Cambridge Crystallographic Data Centre
#                                CCDC 
#
#######################################################################
#
# If this CIF has been generated from an entry in the Cambridge 
# Structural Database, then it will include bibliographic, chemical, 
# crystal, experimental, refinement or atomic coordinate data resulting 
# from the CCDC's data processing and validation procedures.
#
#######################################################################

data_CIQPID
_symmetry_cell_setting           monoclinic
_symmetry_space_group_name_H-M   'P 21/c'
_symmetry_Int_Tables_number      14
_space_group_name_Hall           '-P 2ybc'
loop_
_symmetry_equiv_pos_site_id
_symmetry_equiv_pos_as_xyz
1 x,y,z
2 -x,1/2+y,1/2-z
3 -x,-y,-z
4 x,1/2-y,1/2+z
_cell_length_a                   11.1275(18)
_cell_length_b                   16.408(2)
_cell_length_c                   21.317(3)
_cell_angle_alpha                90
_cell_angle_beta                 115.206(11)
_cell_angle_gamma                90
_cell_volume                     3521.47
loop_
_atom_site_label
_atom_site_type_symbol
_atom_site_fract_x
_atom_site_fract_y
_atom_site_fract_z
Fe1 Fe 0.67416(4) 0.26297(3) 0.07485(2)
O1 O 0.70104(18) 0.37055(12) 0.11655(9)
O2 O 0.59649(18) 0.31463(12) -0.01535(9)
O3 O 0.8591(2) 0.43180(14) 0.32349(9)
O4 O 0.8895(2) 0.30098(13) 0.35527(10)
O5 O 0.5262(2) 0.08440(14) -0.15653(9)
O6 O 0.4052(2) 0.19439(14) -0.20696(10)
O7 O 0.8954(2) -0.06632(12) 0.25072(9)
H1 H 0.9264 -0.0430 0.2895
O8 O 0.7853(2) -0.11991(13) 0.11703(9)
H2 H 0.8195 -0.1465 0.1542
N1 N 0.7530(2) 0.21126(16) 0.16246(11)
N2 N 0.6517(2) 0.15693(14) 0.03680(11)
N3 N 0.8526(2) 0.26968(15) 0.07314(11)
N4 N 1.4952(2) 0.25835(16) 0.07511(11)
C1 C 0.7511(3) 0.39042(19) 0.18040(15)
C2 C 0.7970(3) 0.3321(2) 0.23534(14)
C3 C 0.7948(3) 0.2473(2) 0.22253(14)
H3 H 0.8276 0.2129 0.2621
C4 C 0.7650(3) 0.1255(2) 0.15655(14)
C5 C 0.8286(3) 0.0715(2) 0.21174(14)
H4 H 0.8678 0.0915 0.2579
C6 C 0.8347(3) -0.0100(2) 0.19954(15)
C7 C 0.7783(3) -0.0398(2) 0.13158(15)
C8 C 0.7147(3) 0.0135(2) 0.07701(14)
H5 H 0.6747 -0.0067 0.0309
C9 C 0.7089(3) 0.0956(2) 0.08889(14)
C10 C 0.5978(3) 0.1382(2) -0.02849(14)
H6 H 0.5933 0.0821 -0.0402
C11 C 0.5442(3) 0.1955(2) -0.08461(14)
C12 C 0.5527(3) 0.2806(2) -0.07480(15)
C13 C 0.5161(3) 0.34027(19) -0.13474(14)
H7 H 0.4208 0.3521 -0.1539
H8 H 0.5374 0.3163 -0.1709
H9 H 0.5664 0.3909 -0.1180
C14 C 0.7549(3) 0.48135(18) 0.19141(13)
H10 H 0.7241 0.5091 0.1465
H11 H 0.8461 0.4983 0.2211
H12 H 0.6969 0.4957 0.2138
C15 C 0.4846(3) 0.1613(2) -0.15471(16)
C16 C 0.4658(3) 0.0414(2) -0.22136(14)
H13 H 0.4985 0.0631 -0.2546
H14 H 0.3680 0.0478 -0.2418
C17 C 0.5031(4) -0.0466(2) -0.20612(16)
H15 H 0.5998 -0.0522 -0.1875
H16 H 0.4610 -0.0784 -0.2489
H17 H 0.4729 -0.0667 -0.1720
C18 C 0.8532(3) 0.3517(2) 0.30984(15)
C19 C 0.9156(4) 0.4538(2) 0.39610(14)
H18 H 1.0034 0.4276 0.4211
H19 H 0.8566 0.4359 0.4175
C20 C 0.9299(3) 0.5453(2) 0.39970(15)
H20 H 0.9869 0.5622 0.3775
H21 H 0.9698 0.5626 0.4483
H22 H 0.8421 0.5705 0.3757
C21 C 0.9926(3) 0.24779(19) 0.01503(12)
H23 H 0.9989 0.2337 -0.0267
C22 C 0.8703(3) 0.24951(19) 0.01642(12)
H24 H 0.7944 0.2358 -0.0247
C23 C 0.9630(3) 0.29038(18) 0.12922(14)
H25 H 0.9537 0.3069 0.1696
C24 C 1.0885(3) 0.28924(18) 0.13198(13)
H26 H 1.1628 0.3040 0.1735
C25 C 1.1062(3) 0.26622(19) 0.07336(13)
C26 C 1.2400(3) 0.26216(19) 0.07434(13)
C27 C 1.2605(3) 0.23265(19) 0.01864(13)
H27 H 1.1873 0.2131 -0.0214
C28 C 1.3864(3) 0.23152(19) 0.02095(13)
H28 H 1.3966 0.2105 -0.0180
C29 C 1.4759(3) 0.28364(18) 0.13015(13)
H29 H 1.5513 0.3000 0.1705
C30 C 1.3535(3) 0.28731(19) 0.13149(14)
H30 H 1.3464 0.3071 0.1716
Fe1_2 Fe 1.67416(4) 0.26297(3) 0.07485(2)
N4_2 N 0.4952(2) 0.25835(16) 0.07511(11)
O9 O 0.2371(2) 0.52706(16) -0.02068(13)
H31 H 0.2732 0.5684 -0.0284
C31 C 0.3336(4) 0.4652(2) 0.00941(17)
H32 H 0.3683 0.4482 -0.0238
H33 H 0.2928 0.4184 0.0214
H34 H 0.4065 0.4863 0.0514
O10 O 0.1589(2) 0.25509(16) 0.29597(12)
H35 H 0.2367 0.2596 0.2995
C32 C 0.1501(4) 0.1862(2) 0.33186(19)
H36 H 0.0797 0.1940 0.3474
H37 H 0.2350 0.1775 0.3722
H38 H 0.1294 0.1386 0.3013
O11 O 0.0025(2) 0.51045(17) 0.12622(10)
H39 H -0.0694 0.4934 0.0952
C33 C 0.0907(4) 0.5302(3) 0.09649(18)
H40 H 0.1120 0.4809 0.0774
H41 H 0.1724 0.5534 0.1322
H42 H 0.0487 0.5702 0.0593
loop_
_geom_bond_atom_site_label_1
_geom_bond_atom_site_label_2
_geom_bond_site_symmetry_1
_geom_bond_site_symmetry_2
Fe1 O1 1_555 1_555
O1 C1 1_555 1_555
O2 Fe1 1_555 1_555
O3 C18 1_555 1_555
O4 C18 1_555 1_555
O5 C15 1_555 1_555
O6 C15 1_555 1_555
O7 H1 1_555 1_555
O8 H2 1_555 1_555
N1 Fe1 1_555 1_555
N2 Fe1 1_555 1_555
N3 Fe1 1_555 1_555
N4 C28 1_555 1_555
C1 C2 1_555 1_555
C2 C3 1_555 1_555
C3 N1 1_555 1_555
H3 C3 1_555 1_555
C4 N1 1_555 1_555
C5 C4 1_555 1_555
H4 C5 1_555 1_555
C6 O7 1_555 1_555
C7 O8 1_555 1_555
C8 C7 1_555 1_555
H5 C8 1_555 1_555
C9 N2 1_555 1_555
C10 N2 1_555 1_555
H6 C10 1_555 1_555
C11 C10 1_555 1_555
C12 O2 1_555 1_555
C13 C12 1_555 1_555
H7 C13 1_555 1_555
H8 C13 1_555 1_555
H9 C13 1_555 1_555
C14 C1 1_555 1_555
H10 C14 1_555 1_555
H11 C14 1_555 1_555
H12 C14 1_555 1_555
C15 C11 1_555 1_555
C16 O5 1_555 1_555
H13 C16 1_555 1_555
H14 C16 1_555 1_555
C17 C16 1_555 1_555
H15 C17 1_555 1_555
H16 C17 1_555 1_555
H17 C17 1_555 1_555
C18 C2 1_555 1_555
C19 O3 1_555 1_555
H18 C19 1_555 1_555
H19 C19 1_555 1_555
C20 C19 1_555 1_555
H20 C20 1_555 1_555
H21 C20 1_555 1_555
H22 C20 1_555 1_555
C21 H23 1_555 1_555
C22 N3 1_555 1_555
H24 C22 1_555 1_555
C23 N3 1_555 1_555
H25 C23 1_555 1_555
C24 C23 1_555 1_555
H26 C24 1_555 1_555
C25 C21 1_555 1_555
C26 C25 1_555 1_555
C27 C26 1_555 1_555
H27 C27 1_555 1_555
C28 C27 1_555 1_555
H28 C28 1_555 1_555
C29 N4 1_555 1_555
H29 C29 1_555 1_555
C30 C26 1_555 1_555
H30 C30 1_555 1_555
O9 H31 1_555 1_555
C31 O9 1_555 1_555
H32 C31 1_555 1_555
H33 C31 1_555 1_555
H34 C31 1_555 1_555
O10 H35 1_555 1_555
C32 O10 1_555 1_555
H36 C32 1_555 1_555
H37 C32 1_555 1_555
H38 C32 1_555 1_555
O11 H39 1_555 1_555
C33 O11 1_555 1_555
H40 C33 1_555 1_555
H41 C33 1_555 1_555
H42 C33 1_555 1_555
Fe1_2 N4 1_555 1_555
N4_2 Fe1 1_555 1_555
C4 C9 1_555 1_555
C5 C6 1_555 1_555
C6 C7 1_555 1_555
C8 C9 1_555 1_555
C11 C12 1_555 1_555
C21 C22 1_555 1_555
C24 C25 1_555 1_555
C29 C30 1_555 1_555

#END
