
#######################################################################
#
#                 Cambridge Crystallographic Data Centre
#                                CCDC 
#
#######################################################################
#
# If this CIF has been generated from an entry in the Cambridge 
# Structural Database, then it will include bibliographic, chemical, 
# crystal, experimental, refinement or atomic coordinate data resulting 
# from the CCDC's data processing and validation procedures.
#
#######################################################################

data_CIRMEV
_symmetry_cell_setting           trigonal
_symmetry_space_group_name_H-M   'P 31 2 1'
_symmetry_Int_Tables_number      152
_space_group_name_Hall           'P 31 2"'
loop_
_symmetry_equiv_pos_site_id
_symmetry_equiv_pos_as_xyz
1 x,y,z
2 -y,x-y,1/3+z
3 y,x,-z
4 -x+y,-x,2/3+z
5 -x,-x+y,1/3-z
6 x-y,-y,2/3-z
_cell_length_a                   10.103(1)
_cell_length_b                   10.103(1)
_cell_length_c                   24.584(3)
_cell_angle_alpha                90
_cell_angle_beta                 90
_cell_angle_gamma                120
_cell_volume                     2173.12
loop_
_atom_site_label
_atom_site_type_symbol
_atom_site_fract_x
_atom_site_fract_y
_atom_site_fract_z
Pb1 Pb 0.0000 -0.1265(2) 0.1667
Pb2 Pb 0.2612(1) 0.0000 0.3333
I1 I 0.1429(2) -0.2820(2) 0.2496(1)
I2 I 0.1419(2) 0.1640(2) 0.2423(1)
N1 N 0.2530(26) 0.0060(28) 0.1066(8)
N2 N 0.5132(23) 0.1211(26) 0.2815(7)
C1 C 0.2439(35) -0.0142(38) 0.0502(10)
C2 C 0.3771(34) 0.0409(34) 0.0174(11)
C3 C 0.5068(36) 0.1060(37) 0.0454(11)
C4 C 0.5240(39) 0.1332(42) 0.0981(12)
C5 C 0.3945(35) 0.0818(35) 0.1296(11)
C6 C 0.5792(29) 0.2742(31) 0.2679(9)
C7 C 0.7101(34) 0.3387(35) 0.2340(11)
C8 C 0.7788(37) 0.2687(40) 0.2200(11)
C9 C 0.7109(29) 0.1103(29) 0.2352(9)
C10 C 0.5775(36) 0.0372(36) 0.2632(10)
I1D I -0.1429(2) -0.4249(3) 0.0837(1)
I2D I -0.1419(2) 0.0221(3) 0.0910(1)
N1D N -0.2530(26) -0.2470(38) 0.2267(8)
I1E I 0.4249(3) 0.2820(2) 0.4171(1)
I2E I -0.0221(3) -0.1640(2) 0.4244(1)
N2E N 0.3921(35) -0.1211(26) 0.3852(7)
C1D C -0.2439(35) -0.2581(52) 0.2831(10)
C5D C -0.3945(35) -0.3127(49) 0.2037(11)
Pb1A Pb 0.1265(2) 0.1265(2) 0.5000
C6E C 0.3050(42) -0.2742(31) 0.3988(9)
C10E C 0.5403(51) -0.0372(36) 0.4035(10)
C4D C -0.5240(39) -0.3908(57) 0.2352(12)
C2D C -0.3771(34) -0.3362(48) 0.3159(11)
C9E C 0.6006(41) -0.1103(29) 0.4315(9)
C7E C 0.3714(49) -0.3387(35) 0.4327(11)
C3D C -0.5068(36) -0.4008(52) 0.2879(11)
C8E C 0.5101(54) -0.2687(40) 0.4467(11)
loop_
_geom_bond_atom_site_label_1
_geom_bond_atom_site_label_2
_geom_bond_site_symmetry_1
_geom_bond_site_symmetry_2
Pb1 I1 1_555 1_555
Pb2 I1 1_555 1_555
I2 Pb1 1_555 1_555
N1 Pb1 1_555 1_555
N2 Pb2 1_555 1_555
C1 N1 1_555 1_555
C2 C1 1_555 1_555
C3 C2 1_555 1_555
C4 C3 1_555 1_555
C5 N1 1_555 1_555
C6 N2 1_555 1_555
C7 C6 1_555 1_555
C8 C7 1_555 1_555
C9 C8 1_555 1_555
C10 N2 1_555 1_555
I1D Pb1 1_555 1_555
I2D Pb1 1_555 1_555
N1D Pb1 1_555 1_555
I1E Pb2 1_555 1_555
I2E Pb2 1_555 1_555
N2E Pb2 1_555 1_555
C1D N1D 1_555 1_555
C5D N1D 1_555 1_555
Pb1A I1E 1_555 1_555
C6E N2E 1_555 1_555
C10E N2E 1_555 1_555
C4D C5D 1_555 1_555
C2D C1D 1_555 1_555
C9E C10E 1_555 1_555
C7E C6E 1_555 1_555
C3D C4D 1_555 1_555
C8E C9E 1_555 1_555
Pb2 I2 1_555 1_555
C4 C5 1_555 1_555
C9 C10 1_555 1_555
I2E Pb1A 1_555 1_555
C2D C3D 1_555 1_555
C7E C8E 1_555 1_555

#END
