
#######################################################################
#
#                 Cambridge Crystallographic Data Centre
#                                CCDC 
#
#######################################################################
#
# If this CIF has been generated from an entry in the Cambridge 
# Structural Database, then it will include bibliographic, chemical, 
# crystal, experimental, refinement or atomic coordinate data resulting 
# from the CCDC's data processing and validation procedures.
#
#######################################################################

data_CIRSUS
_symmetry_cell_setting           monoclinic
_symmetry_space_group_name_H-M   'C 2/c'
_symmetry_Int_Tables_number      15
_space_group_name_Hall           '-C 2yn'
loop_
_symmetry_equiv_pos_site_id
_symmetry_equiv_pos_as_xyz
1 x,y,z
2 1/2+x,1/2+y,z
3 -x,y,1/2-z
4 1/2-x,1/2+y,1/2-z
5 -x,-y,-z
6 1/2-x,1/2-y,-z
7 x,-y,1/2+z
8 1/2+x,1/2-y,1/2+z
_cell_length_a                   35.074(5)
_cell_length_b                   10.2001(14)
_cell_length_c                   15.542(2)
_cell_angle_alpha                90
_cell_angle_beta                 110.751(2)
_cell_angle_gamma                90
_cell_volume                     5199.58
loop_
_atom_site_label
_atom_site_type_symbol
_atom_site_fract_x
_atom_site_fract_y
_atom_site_fract_z
Cd1 Cd 0.080532(7) 0.38607(2) 0.303813(17)
Cu1 Cu 0.158808(12) 0.13786(4) 0.34254(3)
O1 O 0.17844(7) 0.2800(2) 0.28257(17)
O2 O 0.12377(8) 0.4063(3) 0.2194(2)
O3 O 0.13493(8) 0.6086(3) -0.06821(17)
O4 O 0.17959(8) 0.7728(2) -0.03851(17)
O5 O 0.09035(7) 0.1296(2) 0.31845(17)
O6 O 0.04104(8) 0.2326(2) 0.20933(18)
O7 O 0.08153(8) -0.3728(2) 0.32122(19)
O8 O 0.03848(8) -0.4678(2) 0.19973(18)
O9 O 0.04001(8) 0.3500(3) 0.3912(2)
H1 H 0.0433 0.4111 0.4298
H2 H 0.0158 0.3325 0.3565
N1 N 0.17452(9) -0.0392(3) 0.4055(2)
N2 N 0.14406(9) 0.0191(3) 0.2307(2)
C1 C 0.15974(11) 0.3779(3) 0.2352(2)
C2 C 0.18460(10) 0.4628(3) 0.1954(2)
C3 C 0.22586(12) 0.4806(4) 0.2408(3)
H3 H 0.2393 0.4349 0.2949
C4 C 0.24733(12) 0.5665(5) 0.2060(3)
H4 H 0.2749 0.5810 0.2384
C5 C 0.22822(11) 0.6311(4) 0.1236(3)
H5 H 0.2428 0.6891 0.1008
C6 C 0.18731(10) 0.6087(3) 0.0752(2)
C7 C 0.16565(10) 0.5257(3) 0.1125(2)
H6 H 0.1380 0.5124 0.0809
C8 C 0.16537(11) 0.6680(3) -0.0182(2)
C9 C 0.05832(11) 0.1282(3) 0.2479(3)
C10 C 0.03921(10) 0.0008(3) 0.2061(2)
C11 C 0.05395(10) -0.1187(3) 0.2470(2)
H7 H 0.0752 -0.1209 0.3036
C12 C 0.03712(10) -0.2351(3) 0.2037(2)
C13 C 0.00546(11) -0.2317(3) 0.1197(2)
H8 H -0.0054 -0.3096 0.0901
C14 C -0.01009(11) -0.1140(3) 0.0798(3)
H9 H -0.0319 -0.1124 0.0242
C15 C 0.00669(11) 0.0022(3) 0.1222(2)
H10 H -0.0038 0.0818 0.0947
C16 C 0.05330(11) -0.3664(3) 0.2446(3)
C17 C 0.19292(13) -0.0586(4) 0.4965(3)
H11 H 0.1991 0.0134 0.5357
C18 C 0.20277(15) -0.1813(5) 0.5328(3)
H12 H 0.2149 -0.1923 0.5961
C19 C 0.19488(16) -0.2870(5) 0.4764(4)
H13 H 0.2025 -0.3704 0.5005
C20 C 0.17563(14) -0.2701(4) 0.3836(4)
H14 H 0.1690 -0.3421 0.3444
C21 C 0.16607(11) -0.1426(3) 0.3484(3)
C22 C 0.14634(10) -0.1110(4) 0.2502(3)
C23 C 0.13060(13) -0.2028(4) 0.1820(3)
H15 H 0.1320 -0.2916 0.1963
C24 C 0.11273(13) -0.1619(5) 0.0923(4)
H16 H 0.1017 -0.2230 0.0457
C25 C 0.11124(13) -0.0309(5) 0.0718(3)
H17 H 0.1001 -0.0019 0.0113
C26 C 0.12682(12) 0.0572(4) 0.1435(3)
H18 H 0.1252 0.1464 0.1303
Cd1F Cd 0.080532(7) 0.61393(2) -0.196187(17)
Cd1_2 Cd 0.080532(7) -0.61393(2) 0.303813(17)
Cu1F Cu 0.158808(12) 0.86214(4) -0.15746(3)
O3F O 0.13493(8) 0.3914(3) 0.43179(17)
O4F O 0.17959(8) 0.2272(2) 0.46149(17)
O7_2 O 0.08153(8) 0.6272(2) 0.32122(19)
O8_2 O 0.03848(8) 0.5322(2) 0.19973(18)
O10 O 0.04971(12) 0.4791(3) 0.0340(2)
H19 H 0.0240 0.4919 0.0236
H20 H 0.0672 0.5007 0.0884
O11 O 0.10059(11) 0.7174(4) 0.4978(2)
H21 H 0.0759 0.7321 0.4969
H22 H 0.1036 0.6829 0.4472
loop_
_geom_bond_atom_site_label_1
_geom_bond_atom_site_label_2
_geom_bond_site_symmetry_1
_geom_bond_site_symmetry_2
Cd1 O2 1_555 1_555
Cu1 O1 1_555 1_555
O1 C1 1_555 1_555
O2 C1 1_555 1_555
O3 C8 1_555 1_555
O4 C8 1_555 1_555
O5 Cd1 1_555 1_555
O6 Cd1 1_555 1_555
O7 C16 1_555 1_555
O8 C16 1_555 1_555
O9 Cd1 1_555 1_555
H1 O9 1_555 1_555
H2 O9 1_555 1_555
N1 Cu1 1_555 1_555
N2 Cu1 1_555 1_555
C1 C2 1_555 1_555
C2 C3 1_555 1_555
C3 H3 1_555 1_555
C4 C3 1_555 1_555
H4 C4 1_555 1_555
C5 C4 1_555 1_555
H5 C5 1_555 1_555
C6 C5 1_555 1_555
C7 C2 1_555 1_555
H6 C7 1_555 1_555
C8 C6 1_555 1_555
C9 O5 1_555 1_555
C10 C9 1_555 1_555
C11 C10 1_555 1_555
H7 C11 1_555 1_555
C12 C11 1_555 1_555
C13 C12 1_555 1_555
H8 C13 1_555 1_555
C14 C13 1_555 1_555
H9 C14 1_555 1_555
C15 C10 1_555 1_555
H10 C15 1_555 1_555
C16 C12 1_555 1_555
C17 N1 1_555 1_555
H11 C17 1_555 1_555
C18 C17 1_555 1_555
H12 C18 1_555 1_555
C19 C18 1_555 1_555
H13 C19 1_555 1_555
C20 C19 1_555 1_555
H14 C20 1_555 1_555
C21 N1 1_555 1_555
C22 N2 1_555 1_555
C23 C22 1_555 1_555
H15 C23 1_555 1_555
C24 C23 1_555 1_555
H16 C24 1_555 1_555
C25 C24 1_555 1_555
H17 C25 1_555 1_555
C26 N2 1_555 1_555
H18 C26 1_555 1_555
O10 H19 1_555 1_555
H20 O10 1_555 1_555
O11 H21 1_555 1_555
H22 O11 1_555 1_555
Cd1F O3 1_555 1_555
Cd1_2 O7 1_555 1_555
Cu1F O4 1_555 1_555
O3F Cd1 1_555 1_555
O4F Cu1 1_555 1_555
O7_2 Cd1 1_555 1_555
O8_2 Cd1 1_555 1_555
Cu1 O5 1_555 1_555
O6 C9 1_555 1_555
O8 Cd1_2 1_555 1_555
C6 C7 1_555 1_555
C14 C15 1_555 1_555
C20 C21 1_555 1_555
C21 C22 1_555 1_555
C25 C26 1_555 1_555

#END
