
#######################################################################
#
#                 Cambridge Crystallographic Data Centre
#                                CCDC 
#
#######################################################################
#
# If this CIF has been generated from an entry in the Cambridge 
# Structural Database, then it will include bibliographic, chemical, 
# crystal, experimental, refinement or atomic coordinate data resulting 
# from the CCDC's data processing and validation procedures.
#
#######################################################################

data_CIRTON
_symmetry_cell_setting           monoclinic
_symmetry_space_group_name_H-M   'P 21/c'
_symmetry_Int_Tables_number      14
_space_group_name_Hall           '-P 2ybc'
loop_
_symmetry_equiv_pos_site_id
_symmetry_equiv_pos_as_xyz
1 x,y,z
2 -x,1/2+y,1/2-z
3 -x,-y,-z
4 x,1/2-y,1/2+z
_cell_length_a                   9.6464(7)
_cell_length_b                   16.4821(12)
_cell_length_c                   10.6570(7)
_cell_angle_alpha                90
_cell_angle_beta                 91.3070(10)
_cell_angle_gamma                90
_cell_volume                     1693.95
loop_
_atom_site_label
_atom_site_type_symbol
_atom_site_fract_x
_atom_site_fract_y
_atom_site_fract_z
Pb1 Pb -0.203627(13) 0.216766(7) 0.622142(12)
S1 S 0.64232(9) 0.36078(6) 0.39563(9)
O1 O 0.0019(3) 0.21737(14) 0.4978(3)
O2 O 0.0344(3) 0.28331(14) 0.6766(3)
O3 O 0.7190(3) 0.28386(17) 0.3902(3)
O4 O 0.6999(3) 0.4151(2) 0.4860(3)
O5 O 0.6205(3) 0.39193(19) 0.2691(3)
N1 N -0.2538(3) 0.09080(18) 0.5031(3)
N2 N -0.0775(3) 0.09933(17) 0.7035(3)
C1 C 0.0749(4) 0.2609(2) 0.5713(4)
C2 C 0.2159(4) 0.28673(18) 0.5287(4)
C3 C 0.2960(4) 0.3401(3) 0.5993(4)
H1 H 0.2625 0.3603 0.6742
C4 C 0.4260(4) 0.3637(2) 0.5597(4)
H2 H 0.4796 0.3995 0.6078
C5 C 0.4752(3) 0.3336(2) 0.4480(3)
C6 C 0.3940(4) 0.2819(2) 0.3749(4)
H3 H 0.4266 0.2628 0.2989
C7 C 0.2648(4) 0.2585(2) 0.4148(4)
H4 H 0.2104 0.2239 0.3655
C8 C -0.3494(5) 0.0885(3) 0.4097(4)
H5 H -0.3860 0.1372 0.3801
C9 C -0.3956(5) 0.0175(3) 0.3559(4)
H6 H -0.4658 0.0178 0.2947
C10 C -0.3356(5) -0.0533(3) 0.3947(4)
H7 H -0.3615 -0.1021 0.3570
C11 C -0.2364(5) -0.0524(2) 0.4899(4)
H8 H -0.1957 -0.1005 0.5175
C12 C -0.1979(4) 0.0210(2) 0.5440(3)
C13 C -0.0964(4) 0.0257(2) 0.6507(3)
C14 C -0.0258(4) -0.0409(2) 0.6970(4)
H9 H -0.0379 -0.0914 0.6595
C15 C 0.0634(4) -0.0321(2) 0.7998(4)
H10 H 0.1116 -0.0767 0.8320
C16 C 0.0798(4) 0.0430(2) 0.8537(4)
H11 H 0.1378 0.0500 0.9238
C17 C 0.0088(4) 0.1076(2) 0.8017(4)
H12 H 0.0215 0.1589 0.8366
Pb1_2 Pb 0.796373(13) 0.216766(7) 0.622142(12)
Pb1C Pb 0.796373(13) 0.283234(7) 0.122142(12)
O3_2 O -0.2810(3) 0.28386(17) 0.3902(3)
O3C O -0.2810(3) 0.21614(17) 0.8902(3)
O5C O -0.3795(3) 0.10807(19) 0.7691(3)
loop_
_geom_bond_atom_site_label_1
_geom_bond_atom_site_label_2
_geom_bond_site_symmetry_1
_geom_bond_site_symmetry_2
Pb1 O1 1_555 1_555
S1 O3 1_555 1_555
O1 C1 1_555 1_555
O2 Pb1 1_555 1_555
O3 Pb1_2 1_555 1_555
O4 S1 1_555 1_555
O5 S1 1_555 1_555
N1 Pb1 1_555 1_555
N2 Pb1 1_555 1_555
C1 O2 1_555 1_555
C2 C1 1_555 1_555
C3 C2 1_555 1_555
H1 C3 1_555 1_555
C4 C3 1_555 1_555
H2 C4 1_555 1_555
C5 S1 1_555 1_555
C6 C5 1_555 1_555
H3 C6 1_555 1_555
C7 C2 1_555 1_555
H4 C7 1_555 1_555
C8 N1 1_555 1_555
H5 C8 1_555 1_555
C9 C8 1_555 1_555
H6 C9 1_555 1_555
C10 C9 1_555 1_555
H7 C10 1_555 1_555
C11 C10 1_555 1_555
H8 C11 1_555 1_555
C12 N1 1_555 1_555
C13 N2 1_555 1_555
C14 C13 1_555 1_555
H9 C14 1_555 1_555
C15 C14 1_555 1_555
H10 C15 1_555 1_555
C16 C15 1_555 1_555
H11 C16 1_555 1_555
C17 N2 1_555 1_555
H12 C17 1_555 1_555
Pb1C O3 1_555 1_555
O3_2 Pb1 1_555 1_555
O3C Pb1 1_555 1_555
O5C Pb1 1_555 1_555
O5 Pb1C 1_555 1_555
C4 C5 1_555 1_555
C6 C7 1_555 1_555
C11 C12 1_555 1_555
C12 C13 1_555 1_555
C16 C17 1_555 1_555

#END
