
#######################################################################
#
#                 Cambridge Crystallographic Data Centre
#                                CCDC 
#
#######################################################################
#
# If this CIF has been generated from an entry in the Cambridge 
# Structural Database, then it will include bibliographic, chemical, 
# crystal, experimental, refinement or atomic coordinate data resulting 
# from the CCDC's data processing and validation procedures.
#
#######################################################################

data_CIRXOR
_symmetry_cell_setting           monoclinic
_symmetry_space_group_name_H-M   'C 2/c'
_symmetry_Int_Tables_number      15
_space_group_name_Hall           '-C 2yn'
loop_
_symmetry_equiv_pos_site_id
_symmetry_equiv_pos_as_xyz
1 x,y,z
2 1/2+x,1/2+y,z
3 -x,y,1/2-z
4 1/2-x,1/2+y,1/2-z
5 -x,-y,-z
6 1/2-x,1/2-y,-z
7 x,-y,1/2+z
8 1/2+x,1/2-y,1/2+z
_cell_length_a                   20.044(4)
_cell_length_b                   16.182(3)
_cell_length_c                   14.539(3)
_cell_angle_alpha                90
_cell_angle_beta                 111.96(3)
_cell_angle_gamma                90
_cell_volume                     4373.6
loop_
_atom_site_label
_atom_site_type_symbol
_atom_site_fract_x
_atom_site_fract_y
_atom_site_fract_z
Zn1 Zn 0.830812(14) 0.656909(16) 0.28862(2)
O1 O 0.93507(11) 0.75196(11) 0.34514(16)
O2 O 0.82109(10) 0.78677(10) 0.28172(14)
O3 O 0.75533(8) 1.08260(10) 0.25869(13)
O4 O 0.83988(10) 1.17988(10) 0.28844(15)
O5 O 1.09121(11) 1.09258(14) 0.4226(2)
O6 O 1.11932(10) 0.96495(15) 0.4355(2)
N1 N 1.07531(12) 1.02036(16) 0.41343(18)
N2 N 0.83053(10) 0.66286(12) 0.13545(15)
N3 N 0.90709(11) 0.55878(12) 0.32835(16)
N4 N 0.82612(10) 0.65948(12) 0.43862(15)
C1 C 0.90778(12) 0.89483(14) 0.32780(18)
C2 C 0.85656(14) 0.95704(15) 0.30205(19)
H1 H 0.8117(13) 0.9431(13) 0.2802(16)
C3 C 0.87586(12) 1.03990(14) 0.31173(17)
C4 C 0.94835(13) 1.06057(15) 0.34837(19)
H2 H 0.9619(12) 1.1191(15) 0.3536(18)
C5 C 0.99852(12) 0.99823(14) 0.37376(19)
C6 C 0.97977(13) 0.91596(16) 0.3637(2)
H3 H 1.0138(14) 0.8803(15) 0.385(2)
C7 C 0.88672(16) 0.80496(15) 0.3174(2)
C8 C 0.82023(13) 1.10753(15) 0.28417(19)
C9 C 0.87962(14) 0.70604(17) 0.1128(2)
H4 H 0.9191(14) 0.7247(15) 0.170(2)
C10 C 0.87396(16) 0.72063(18) 0.0169(2)
H5 H 0.9096(15) 0.7543(18) 0.004(2)
C11 C 0.81621(16) 0.68979(17) -0.0604(2)
H6 H 0.8099(15) 0.7013(17) -0.127(2)
C12 C 0.76656(16) 0.64353(18) -0.0389(2)
H7 H 0.7278(15) 0.6205(16) -0.088(2)
C13 C 0.77560(15) 0.63167(16) 0.0589(2)
H8 H 0.7436(14) 0.5977(16) 0.074(2)
C14 C 0.88654(16) 0.47973(18) 0.3129(2)
H9 H 0.8399(16) 0.4686(18) 0.282(2)
C15 C 0.93422(18) 0.41494(19) 0.3360(3)
H10 H 0.9173(16) 0.3597(17) 0.321(2)
C16 C 1.00583(18) 0.43076(19) 0.3761(3)
H11 H 1.0387(16) 0.3882(18) 0.390(2)
C17 C 1.02824(17) 0.5110(2) 0.3924(3)
H12 H 1.0755(17) 0.5204(19) 0.421(2)
C18 C 0.97792(15) 0.57219(19) 0.3680(3)
H13 H 0.9882(15) 0.6229(17) 0.379(2)
C19 C 0.78935(16) 0.60131(17) 0.4655(2)
H14 H 0.7766(13) 0.5607(15) 0.4210(19)
C20 C 0.77664(17) 0.6043(2) 0.5511(2)
H15 H 0.7548(15) 0.5664(16) 0.564(2)
C21 C 0.80196(15) 0.66963(19) 0.6144(2)
H16 H 0.7920(13) 0.6763(15) 0.6694(19)
C22 C 0.84065(16) 0.72879(18) 0.5899(2)
H17 H 0.8573(14) 0.7699(16) 0.6285(19)
C23 C 0.85128(14) 0.72161(17) 0.5022(2)
H18 H 0.8767(13) 0.7612(15) 0.4856(18)
Zn1C Zn 0.669188(14) 1.156909(16) 0.21138(2)
O3C O 0.74467(8) 0.58260(10) 0.24131(13)
loop_
_geom_bond_atom_site_label_1
_geom_bond_atom_site_label_2
_geom_bond_site_symmetry_1
_geom_bond_site_symmetry_2
Zn1 O1 1_555 1_555
O1 C7 1_555 1_555
O2 Zn1 1_555 1_555
O3 C8 1_555 1_555
O4 C8 1_555 1_555
O5 N1 1_555 1_555
O6 N1 1_555 1_555
N1 C5 1_555 1_555
N2 Zn1 1_555 1_555
N3 Zn1 1_555 1_555
N4 Zn1 1_555 1_555
C1 C2 1_555 1_555
C2 H1 1_555 1_555
C3 C2 1_555 1_555
C4 C3 1_555 1_555
H2 C4 1_555 1_555
C5 C4 1_555 1_555
C6 C1 1_555 1_555
H3 C6 1_555 1_555
C7 O2 1_555 1_555
C8 C3 1_555 1_555
C9 N2 1_555 1_555
H4 C9 1_555 1_555
C10 C9 1_555 1_555
H5 C10 1_555 1_555
C11 C10 1_555 1_555
H6 C11 1_555 1_555
C12 C11 1_555 1_555
H7 C12 1_555 1_555
C13 N2 1_555 1_555
H8 C13 1_555 1_555
C14 N3 1_555 1_555
H9 C14 1_555 1_555
C15 C14 1_555 1_555
H10 C15 1_555 1_555
C16 C15 1_555 1_555
H11 C16 1_555 1_555
C17 C16 1_555 1_555
H12 C17 1_555 1_555
C18 N3 1_555 1_555
H13 C18 1_555 1_555
C19 N4 1_555 1_555
H14 C19 1_555 1_555
C20 C19 1_555 1_555
H15 C20 1_555 1_555
C21 C20 1_555 1_555
H16 C21 1_555 1_555
C22 C21 1_555 1_555
H17 C22 1_555 1_555
C23 N4 1_555 1_555
H18 C23 1_555 1_555
Zn1C O3 1_555 1_555
O3C Zn1 1_555 1_555
C1 C7 1_555 1_555
C5 C6 1_555 1_555
C12 C13 1_555 1_555
C17 C18 1_555 1_555
C22 C23 1_555 1_555

#END
