
#######################################################################
#
#                 Cambridge Crystallographic Data Centre
#                                CCDC 
#
#######################################################################
#
# If this CIF has been generated from an entry in the Cambridge 
# Structural Database, then it will include bibliographic, chemical, 
# crystal, experimental, refinement or atomic coordinate data resulting 
# from the CCDC's data processing and validation procedures.
#
#######################################################################

data_CISGES
_symmetry_cell_setting           orthorhombic
_symmetry_space_group_name_H-M   'P b c a'
_symmetry_Int_Tables_number      61
_space_group_name_Hall           '-P 2ac 2ab'
loop_
_symmetry_equiv_pos_site_id
_symmetry_equiv_pos_as_xyz
1 x,y,z
2 1/2+x,1/2-y,-z
3 -x,1/2+y,1/2-z
4 1/2-x,-y,1/2+z
5 -x,-y,-z
6 1/2-x,1/2+y,z
7 x,1/2-y,1/2+z
8 1/2+x,y,1/2-z
_cell_length_a                   12.2866(5)
_cell_length_b                   7.7334(3)
_cell_length_c                   34.5819(15)
_cell_angle_alpha                90
_cell_angle_beta                 90
_cell_angle_gamma                90
_cell_volume                     3285.88
loop_
_atom_site_label
_atom_site_type_symbol
_atom_site_fract_x
_atom_site_fract_y
_atom_site_fract_z
Eu1 Eu 0.79930(2) 0.93887(3) 0.367386(7)
S1 S 1.09447(17) 0.6678(3) 0.27659(7)
O1 O 0.8991(3) 1.4158(5) 0.36857(12)
S2 S 0.9311(2) 1.3630(4) 0.53737(6)
O2 O 0.7740(3) 0.6691(5) 0.32920(10)
O3 O 0.7481(3) 1.1922(5) 0.40914(10)
O4 O 0.8657(4) 0.8755(5) 0.30153(11)
O5 O 0.9630(4) 0.7585(6) 0.37689(13)
O6 O 0.8671(4) 1.0131(5) 0.43378(12)
O7 O 0.9421(3) 1.1404(5) 0.35896(12)
S3 S 1.1595(3) 1.1003(6) 0.41482(13)
C1 C 0.8361(4) 0.7224(7) 0.30185(15)
C2 C 0.8726(5) 0.5973(8) 0.27126(17)
H1 H 0.8130 0.5776 0.2534
H2 H 0.8900 0.4876 0.2834
C3 C 0.9711(6) 0.6595(8) 0.24867(19)
H3 H 0.9560 0.7741 0.2386
H4 H 0.9823 0.5832 0.2268
C4 C 0.8149(5) 1.1504(7) 0.43570(15)
C5 C 0.9666(4) 1.2939(6) 0.36388(16)
C6 C 1.0863(5) 1.3451(9) 0.3631(2)
H5 H 1.1018 1.4005 0.3386
H6 H 1.0992 1.4295 0.3834
C7 C 1.1643(6) 1.1961(11) 0.3685(3)
H7 H 1.2378 1.2370 0.3638
H8 H 1.1483 1.1082 0.3493
C8 C 0.8302(6) 1.2719(9) 0.46929(18)
H9 H 0.8560 1.3819 0.4594
H10 H 0.7599 1.2919 0.4812
C9 C 0.9070(9) 1.2113(11) 0.4995(2)
H11 H 0.9759 1.1835 0.4873
H12 H 0.8785 1.1057 0.5108
H13 H 0.955(6) 0.656(10) 0.3760(19)
H14 H 0.987(6) 0.767(10) 0.400(2)
Eu1E Eu 0.70070(2) 0.43887(3) 0.367386(7)
Eu1E_2 Eu 0.70070(2) 1.43887(3) 0.367386(7)
O1E O 0.6009(3) 0.9158(5) 0.36857(12)
O2E O 0.7260(3) 1.1691(5) 0.32920(10)
O3E O 0.7519(3) 0.6922(5) 0.40914(10)
loop_
_geom_bond_atom_site_label_1
_geom_bond_atom_site_label_2
_geom_bond_site_symmetry_1
_geom_bond_site_symmetry_2
Eu1 O2 1_555 1_555
S1 C3 1_555 1_555
O1 C5 1_555 1_555
S2 C9 1_555 1_555
O2 C1 1_555 1_555
O3 Eu1 1_555 1_555
O4 Eu1 1_555 1_555
O5 Eu1 1_555 1_555
O6 Eu1 1_555 1_555
O7 Eu1 1_555 1_555
S3 C7 1_555 1_555
C1 O4 1_555 1_555
C2 C1 1_555 1_555
H1 C2 1_555 1_555
H2 C2 1_555 1_555
C3 C2 1_555 1_555
H3 C3 1_555 1_555
H4 C3 1_555 1_555
C4 O3 1_555 1_555
C5 O7 1_555 1_555
C6 C5 1_555 1_555
H5 C6 1_555 1_555
H6 C6 1_555 1_555
C7 C6 1_555 1_555
H7 C7 1_555 1_555
H8 C7 1_555 1_555
C8 C4 1_555 1_555
H9 C8 1_555 1_555
H10 C8 1_555 1_555
C9 C8 1_555 1_555
H11 C9 1_555 1_555
H12 C9 1_555 1_555
H13 O5 1_555 1_555
H14 O5 1_555 1_555
Eu1E O2 1_555 1_555
Eu1E_2 O1 1_555 1_555
O1E Eu1 1_555 1_555
O2E Eu1 1_555 1_555
O3E Eu1 1_555 1_555
O3 Eu1E_2 1_555 1_555
O6 C4 1_555 1_555
Eu1E O3E 1_555 1_555
Eu1E_2 O2E 1_555 1_555

#END
