
#######################################################################
#
#                 Cambridge Crystallographic Data Centre
#                                CCDC 
#
#######################################################################
#
# If this CIF has been generated from an entry in the Cambridge 
# Structural Database, then it will include bibliographic, chemical, 
# crystal, experimental, refinement or atomic coordinate data resulting 
# from the CCDC's data processing and validation procedures.
#
#######################################################################

data_CISJIY
_symmetry_cell_setting           monoclinic
_symmetry_space_group_name_H-M   'P 21'
_symmetry_Int_Tables_number      4
_space_group_name_Hall           'P 2yb'
loop_
_symmetry_equiv_pos_site_id
_symmetry_equiv_pos_as_xyz
1 x,y,z
2 -x,1/2+y,-z
_cell_length_a                   11.410(2)
_cell_length_b                   7.8666(16)
_cell_length_c                   12.977(3)
_cell_angle_alpha                90
_cell_angle_beta                 93.60(3)
_cell_angle_gamma                90
_cell_volume                     1162.49
loop_
_atom_site_label
_atom_site_type_symbol
_atom_site_fract_x
_atom_site_fract_y
_atom_site_fract_z
Y1 Y 0.54058(3) 0.50009(6) 0.47487(2)
O1 O 0.4031(2) 0.4294(4) 0.5838(2)
O2 O 0.3197(2) 0.1730(4) 0.58410(19)
O3 O 0.3979(2) 0.6126(4) 0.3669(2)
O4 O 0.3286(2) 0.8580(4) 0.4220(2)
O5 O 0.4592(2) 0.2268(3) 0.41193(18)
O6 O 0.5883(2) 0.3586(3) 0.3223(2)
C1 C 0.3142(3) 0.3338(5) 0.5894(3)
C2 C 0.1987(4) 0.4113(7) 0.6030(3)
H1 H 0.1327 0.3394 0.6095
C3 C 0.1840(4) 0.5777(7) 0.6064(3)
H2 H 0.2522 0.6450 0.5999
C4 C 0.0738(3) 0.6706(5) 0.6192(3)
C5 C -0.0354(3) 0.5885(5) 0.6151(3)
H3 H -0.0404 0.4704 0.6003
C6 C -0.1362(3) 0.6800(6) 0.6329(3)
H4 H -0.2100 0.6239 0.6304
C7 C -0.1300(4) 0.8537(6) 0.6542(3)
H5 H -0.1992 0.9154 0.6668
C8 C -0.0226(4) 0.9354(6) 0.6569(3)
H6 H -0.0179 1.0538 0.6709
C9 C 0.0787(4) 0.8443(5) 0.6391(3)
H7 H 0.1521 0.9015 0.6405
C10 C 0.3307(3) 0.7398(5) 0.3559(3)
C11 C 0.2528(3) 0.7552(5) 0.2612(3)
H8 H 0.1936 0.8404 0.2584
C12 C 0.2620(3) 0.6541(5) 0.1794(3)
H9 H 0.3215 0.5695 0.1845
C13 C 0.1885(3) 0.6613(5) 0.0819(3)
C14 C 0.0796(3) 0.7433(6) 0.0744(3)
H10 H 0.0508 0.7963 0.1335
C15 C 0.0137(4) 0.7476(7) -0.0190(3)
H11 H -0.0604 0.8033 -0.0237
C16 C 0.0554(4) 0.6708(6) -0.1058(3)
H12 H 0.0104 0.6751 -0.1698
C17 C 0.1623(4) 0.5883(6) -0.0990(3)
H13 H 0.1904 0.5350 -0.1583
C18 C 0.2292(4) 0.5828(6) -0.0052(3)
H14 H 0.3026 0.5254 -0.0008
C19 C 0.5048(3) 0.2557(5) 0.3244(3)
C20 C 0.4483(3) 0.1810(5) 0.2306(3)
H15 H 0.3916 0.0935 0.2362
C21 C 0.4754(3) 0.2342(5) 0.1373(3)
H16 H 0.5405 0.3090 0.1353
C22 C 0.4156(3) 0.1896(5) 0.0378(3)
C23 C 0.3110(4) 0.0968(6) 0.0293(3)
H17 H 0.2774 0.0559 0.0897
C24 C 0.2559(4) 0.0640(6) -0.0673(3)
H18 H 0.1839 0.0031 -0.0723
C25 C 0.3048(3) 0.1192(6) -0.1561(3)
H19 H 0.2673 0.0945 -0.2218
C26 C 0.4086(4) 0.2106(6) -0.1490(3)
H20 H 0.4423 0.2488 -0.2100
C27 C 0.4639(3) 0.2468(6) -0.0526(3)
H21 H 0.5347 0.3105 -0.0482
Y1A Y 0.45942(3) 0.00009(6) 0.52513(2)
Y1A_2 Y 0.45942(3) 1.00009(6) 0.52513(2)
O2A O 0.6803(2) 0.6730(4) 0.41590(19)
O4A O 0.6714(2) 0.3580(4) 0.5780(2)
O5A O 0.5408(2) 0.7268(3) 0.58807(18)
loop_
_geom_bond_atom_site_label_1
_geom_bond_atom_site_label_2
_geom_bond_site_symmetry_1
_geom_bond_site_symmetry_2
Y1 O1 1_555 1_555
O1 C1 1_555 1_555
O2 C1 1_555 1_555
O3 Y1 1_555 1_555
O4 C10 1_555 1_555
O5 Y1 1_555 1_555
O6 Y1 1_555 1_555
C1 C2 1_555 1_555
C2 H1 1_555 1_555
C3 C2 1_555 1_555
H2 C3 1_555 1_555
C4 C3 1_555 1_555
C5 C4 1_555 1_555
H3 C5 1_555 1_555
C6 C5 1_555 1_555
H4 C6 1_555 1_555
C7 C6 1_555 1_555
H5 C7 1_555 1_555
C8 C7 1_555 1_555
H6 C8 1_555 1_555
C9 C4 1_555 1_555
H7 C9 1_555 1_555
C10 O3 1_555 1_555
C11 C10 1_555 1_555
H8 C11 1_555 1_555
C12 C11 1_555 1_555
H9 C12 1_555 1_555
C13 C12 1_555 1_555
C14 C13 1_555 1_555
H10 C14 1_555 1_555
C15 C14 1_555 1_555
H11 C15 1_555 1_555
C16 C15 1_555 1_555
H12 C16 1_555 1_555
C17 C16 1_555 1_555
H13 C17 1_555 1_555
C18 C13 1_555 1_555
H14 C18 1_555 1_555
C19 O5 1_555 1_555
C20 C19 1_555 1_555
H15 C20 1_555 1_555
C21 C20 1_555 1_555
H16 C21 1_555 1_555
C22 C21 1_555 1_555
C23 C22 1_555 1_555
H17 C23 1_555 1_555
C24 C23 1_555 1_555
H18 C24 1_555 1_555
C25 C24 1_555 1_555
H19 C25 1_555 1_555
C26 C25 1_555 1_555
H20 C26 1_555 1_555
C27 C22 1_555 1_555
H21 C27 1_555 1_555
Y1A O2 1_555 1_555
Y1A_2 O4 1_555 1_555
O2A Y1 1_555 1_555
O4A Y1 1_555 1_555
O5A Y1 1_555 1_555
O5 Y1A 1_555 1_555
O6 C19 1_555 1_555
C8 C9 1_555 1_555
C17 C18 1_555 1_555
C26 C27 1_555 1_555
Y1A_2 O5A 1_555 1_555

#END
