
#######################################################################
#
#                 Cambridge Crystallographic Data Centre
#                                CCDC 
#
#######################################################################
#
# If this CIF has been generated from an entry in the Cambridge 
# Structural Database, then it will include bibliographic, chemical, 
# crystal, experimental, refinement or atomic coordinate data resulting 
# from the CCDC's data processing and validation procedures.
#
#######################################################################

data_CISJEU
_symmetry_cell_setting           monoclinic
_symmetry_space_group_name_H-M   'P 21/c'
_symmetry_Int_Tables_number      14
_space_group_name_Hall           '-P 2ybc'
loop_
_symmetry_equiv_pos_site_id
_symmetry_equiv_pos_as_xyz
1 x,y,z
2 -x,1/2+y,1/2-z
3 -x,-y,-z
4 x,1/2-y,1/2+z
_cell_length_a                   5.0186(10)
_cell_length_b                   24.899(5)
_cell_length_c                   9.462(5)
_cell_angle_alpha                90
_cell_angle_beta                 105.38(3)
_cell_angle_gamma                90
_cell_volume                     1140.01
loop_
_atom_site_label
_atom_site_type_symbol
_atom_site_fract_x
_atom_site_fract_y
_atom_site_fract_z
Zn1 Zn 0.21303(7) 0.481595(11) 0.82000(3)
K1 K 0.70902(15) 0.38945(2) 0.89838(8)
P1 P 0.73922(15) 0.55070(3) 0.86116(8)
O1 O 0.5944(4) 0.49687(7) 0.8223(2)
O2 O 1.0341(4) 0.54837(7) 0.8462(2)
O3 O 0.7428(4) 0.56982(7) 1.0156(2)
O4 O 0.6769(7) 0.76349(9) 0.8143(3)
H1 H 0.6950 0.7962 0.8219
O5 O 0.3242(7) 0.78544(9) 0.6262(4)
O6 O -0.2220(5) 0.63272(8) 0.3209(2)
O7 O -0.0057(5) 0.55429(8) 0.3543(2)
C1 C 0.5491(6) 0.60078(11) 0.7367(3)
C2 C 0.5876(7) 0.65532(12) 0.7675(4)
H2 H 0.727(7) 0.6638(13) 0.855(4)
C3 C 0.4251(7) 0.69290(11) 0.6750(4)
C4 C 0.2206(7) 0.67701(12) 0.5530(4)
H3 H 0.100(8) 0.7023(14) 0.495(4)
C5 C 0.1825(6) 0.62211(11) 0.5206(3)
C6 C 0.3512(6) 0.58484(11) 0.6116(3)
H4 H 0.326(6) 0.5485(11) 0.584(3)
C7 C 0.4674(9) 0.75202(13) 0.7017(4)
C8 C -0.0327(7) 0.60291(11) 0.3889(3)
Zn1_2 Zn 1.21303(7) 0.481595(11) 0.82000(3)
Zn1B Zn 0.78697(7) 0.518405(11) 1.18000(3)
Zn1B_2 Zn -0.21303(7) 0.518405(11) 0.18000(3)
K1B K 1.29098(15) 0.61055(2) 1.10162(8)
K1B_2 K 0.29098(15) 0.61055(2) 1.10162(8)
K1A K 0.29098(15) 0.88945(2) 0.60162(8)
K1B_3 K -0.70902(15) 0.61055(2) 0.10162(8)
O2_2 O 0.0341(4) 0.54837(7) 0.8462(2)
O2B O 0.9659(4) 0.45163(7) 1.1538(2)
O3B O 0.2572(4) 0.43018(7) 0.9844(2)
O3B_2 O 1.2572(4) 0.43018(7) 0.9844(2)
O5A O 0.6758(7) 0.28544(9) 0.8738(4)
O6B O 0.2220(5) 0.36728(8) 0.6791(2)
O7B O 0.0057(5) 0.44571(8) 0.6457(2)
loop_
_geom_bond_atom_site_label_1
_geom_bond_atom_site_label_2
_geom_bond_site_symmetry_1
_geom_bond_site_symmetry_2
Zn1 O1 1_555 1_555
K1 O1 1_555 1_555
P1 O1 1_555 1_555
O2 P1 1_555 1_555
O3 P1 1_555 1_555
O4 H1 1_555 1_555
O5 C7 1_555 1_555
O6 C8 1_555 1_555
O7 C8 1_555 1_555
C1 P1 1_555 1_555
C2 C1 1_555 1_555
H2 C2 1_555 1_555
C3 C2 1_555 1_555
C4 C3 1_555 1_555
H3 C4 1_555 1_555
C5 C4 1_555 1_555
C6 C1 1_555 1_555
H4 C6 1_555 1_555
C7 O4 1_555 1_555
C8 C5 1_555 1_555
Zn1_2 O2 1_555 1_555
Zn1B O3 1_555 1_555
Zn1B_2 O7 1_555 1_555
K1B O2 1_555 1_555
K1B_2 O3 1_555 1_555
K1A O5 1_555 1_555
K1B_3 O6 1_555 1_555
O2_2 Zn1 1_555 1_555
O2B K1 1_555 1_555
O3B Zn1 1_555 1_555
O3B_2 K1 1_555 1_555
O5A K1 1_555 1_555
O6B K1 1_555 1_555
O7B Zn1 1_555 1_555
K1 O3B 1_555 1_555
O3 K1B 1_555 1_555
C3 C7 1_555 1_555
C5 C6 1_555 1_555
Zn1_2 O3B_2 1_555 1_555
Zn1B O2B 1_555 1_555
K1B_2 O2_2 1_555 1_555

#END
