
#######################################################################
#
#                 Cambridge Crystallographic Data Centre
#                                CCDC 
#
#######################################################################
#
# If this CIF has been generated from an entry in the Cambridge 
# Structural Database, then it will include bibliographic, chemical, 
# crystal, experimental, refinement or atomic coordinate data resulting 
# from the CCDC's data processing and validation procedures.
#
#######################################################################

data_CISJAQ
_symmetry_cell_setting           triclinic
_symmetry_space_group_name_H-M   'P -1'
_symmetry_Int_Tables_number      2
_space_group_name_Hall           '-P 1'
loop_
_symmetry_equiv_pos_site_id
_symmetry_equiv_pos_as_xyz
1 x,y,z
2 -x,-y,-z
_cell_length_a                   7.4249(3)
_cell_length_b                   8.4637(4)
_cell_length_c                   9.9284(4)
_cell_angle_alpha                80.936(2)
_cell_angle_beta                 81.574(2)
_cell_angle_gamma                73.139(3)
_cell_volume                     586.278
loop_
_atom_site_label
_atom_site_type_symbol
_atom_site_fract_x
_atom_site_fract_y
_atom_site_fract_z
Zn1 Zn 0.24144(11) 0.57666(10) 0.98024(8)
Zn2 Zn 0.09168(12) 0.77747(11) 0.48262(9)
P1 P -0.0826(3) 0.6641(2) 0.7813(2)
O1 O 0.0446(7) 0.6998(7) 0.8702(6)
O2 O -0.1518(7) 0.5099(6) 0.8378(5)
O3 O 0.0009(8) 0.6433(7) 0.6331(5)
O4 O -0.7205(7) 0.8618(7) 0.5437(6)
O5 O -0.9026(8) 1.0903(7) 0.6328(6)
O6 O -0.6158(7) 1.3911(7) 0.8804(6)
O7 O -0.3515(7) 1.2547(6) 0.9810(5)
O8 O 0.2514(8) 0.6282(7) 0.3522(6)
C1 C -0.2875(10) 0.8418(9) 0.7764(7)
C2 C -0.4344(10) 0.8415(9) 0.7039(7)
H1 H -0.4244 0.7512 0.6580
C3 C -0.5962(10) 0.9758(9) 0.6995(7)
C4 C -0.6138(11) 1.1116(9) 0.7675(8)
H2 H -0.7228 1.2001 0.7652
C5 C -0.4665(10) 1.1146(9) 0.8394(7)
C6 C -0.3029(10) 0.9806(9) 0.8415(7)
H3 H -0.2032 0.9842 0.8868
C7 C -0.7518(11) 0.9750(10) 0.6196(7)
C8 C -0.4789(10) 1.2642(9) 0.9064(8)
Zn1A Zn -0.24144(11) 0.42334(10) 1.01976(8)
Zn1_2 Zn -0.75856(11) 1.57666(10) 0.98024(8)
Zn1A_2 Zn -0.24144(11) 1.42334(10) 1.01976(8)
Zn2_2 Zn -0.90832(12) 0.77747(11) 0.48262(9)
Zn2A Zn -1.09168(12) 1.22253(11) 0.51738(9)
O2A O 0.1518(7) 0.4901(6) 1.1622(5)
O4_2 O 0.2795(7) 0.8618(7) 0.5437(6)
O5A O -0.0974(8) 0.9097(7) 0.3672(6)
O6_2 O 0.3842(7) 0.3911(7) 0.8804(6)
O7A O 0.3515(7) 0.7453(6) 1.0190(5)
O9 O -0.398(2) 1.577(2) 0.4354(16)
loop_
_geom_bond_atom_site_label_1
_geom_bond_atom_site_label_2
_geom_bond_site_symmetry_1
_geom_bond_site_symmetry_2
Zn1 O1 1_555 1_555
Zn2 O3 1_555 1_555
P1 O1 1_555 1_555
O2 P1 1_555 1_555
O3 P1 1_555 1_555
O4 C7 1_555 1_555
O5 C7 1_555 1_555
O6 C8 1_555 1_555
O7 C8 1_555 1_555
O8 Zn2 1_555 1_555
C1 P1 1_555 1_555
C2 C1 1_555 1_555
H1 C2 1_555 1_555
C3 C2 1_555 1_555
C4 C3 1_555 1_555
H2 C4 1_555 1_555
C5 C4 1_555 1_555
C6 C1 1_555 1_555
H3 C6 1_555 1_555
C7 C3 1_555 1_555
C8 C5 1_555 1_555
Zn1A O2 1_555 1_555
Zn1_2 O6 1_555 1_555
Zn1A_2 O7 1_555 1_555
Zn2_2 O4 1_555 1_555
Zn2A O5 1_555 1_555
O2A Zn1 1_555 1_555
O4_2 Zn2 1_555 1_555
O5A Zn2 1_555 1_555
O6_2 Zn1 1_555 1_555
O7A Zn1 1_555 1_555
C5 C6 1_555 1_555

#END
