
#######################################################################
#
#                 Cambridge Crystallographic Data Centre
#                                CCDC 
#
#######################################################################
#
# If this CIF has been generated from an entry in the Cambridge 
# Structural Database, then it will include bibliographic, chemical, 
# crystal, experimental, refinement or atomic coordinate data resulting 
# from the CCDC's data processing and validation procedures.
#
#######################################################################

data_CISKEW
_symmetry_cell_setting           orthorhombic
_symmetry_space_group_name_H-M   'P b c a'
_symmetry_Int_Tables_number      61
_space_group_name_Hall           '-P 2ac 2ab'
loop_
_symmetry_equiv_pos_site_id
_symmetry_equiv_pos_as_xyz
1 x,y,z
2 1/2-x,-y,1/2+z
3 -x,1/2+y,1/2-z
4 1/2+x,1/2-y,-z
5 -x,-y,-z
6 1/2+x,y,1/2-z
7 x,1/2-y,1/2+z
8 1/2-x,1/2+y,z
_cell_length_a                   16.2593(5)
_cell_length_b                   9.9918(2)
_cell_length_c                   24.8090(7)
_cell_angle_alpha                90
_cell_angle_beta                 90
_cell_angle_gamma                90
_cell_volume                     4030.46
loop_
_atom_site_label
_atom_site_type_symbol
_atom_site_fract_x
_atom_site_fract_y
_atom_site_fract_z
Th1 Th 0.157312(6) 0.871187(10) 0.631388(4)
S1 S 0.10284(5) 0.78516(7) 0.49125(3)
S2 S 0.10520(5) 0.97498(7) 0.77310(3)
O1 O 0.19354(13) 0.6633(2) 0.58844(8)
O2 O 0.28830(14) 0.51787(19) 0.56136(8)
O3 O 0.08396(13) 0.8367(2) 0.54574(8)
O4 O 0.08055(15) 0.6446(2) 0.48646(10)
O5 O 0.06674(16) 0.8697(2) 0.45018(10)
O6 O 0.19860(13) 1.0743(2) 0.67449(8)
O7 O 0.28553(13) 1.23241(19) 0.70094(8)
O8 O 0.08572(13) 0.9080(2) 0.72150(8)
O9 O 0.08497(15) 1.1172(2) 0.77219(9)
O10 O 0.06799(15) 0.9078(2) 0.81869(9)
O11 O 0.30937(17) 0.8701(2) 0.62804(9)
H1 H 0.3357 0.9342 0.6133
H2 H 0.3481 0.8246 0.6458
O12 O 0.04782(14) 1.0348(2) 0.61816(9)
H3 H 0.0190 1.0572 0.5845
H4 H 0.0440 1.1124 0.6378
O13 O 0.04386(14) 0.7035(2) 0.64820(9)
H5 H 0.0025 0.6988 0.6735
H6 H 0.0404 0.6336 0.6308
C1 C 0.24792(19) 0.6242(2) 0.55570(13)
C2 C 0.2684(2) 0.7121(3) 0.50870(11)
C3 C 0.21195(19) 0.7945(3) 0.48125(12)
C4 C 0.2397(2) 0.8846(3) 0.44288(14)
H7 H 0.2020 0.9378 0.4246
C5 C 0.3225(2) 0.8967(3) 0.43134(14)
H8 H 0.3406 0.9595 0.4063
C6 C 0.3792(2) 0.8132(3) 0.45768(13)
H9 H 0.4350 0.8200 0.4499
C7 C 0.35210(19) 0.7214(3) 0.49510(13)
H10 H 0.3898 0.6647 0.5116
C8 C 0.24944(19) 1.1223(2) 0.70741(13)
C9 C 0.2707(2) 1.0421(3) 0.75639(12)
C10 C 0.21327(19) 0.9628(3) 0.78433(11)
C11 C 0.2398(2) 0.8773(3) 0.82481(14)
H11 H 0.2020 0.8247 0.8433
C12 C 0.3226(2) 0.8703(3) 0.83763(15)
H12 H 0.3401 0.8117 0.8644
C13 C 0.3798(2) 0.9495(3) 0.81100(13)
H13 H 0.4353 0.9448 0.8199
C14 C 0.3529(2) 1.0358(3) 0.77097(13)
H14 H 0.3908 1.0906 0.7535
Th1G Th 0.342688(6) 0.371187(10) 0.631388(4)
Th1G_2 Th 0.342688(6) 1.371187(10) 0.631388(4)
O2G O 0.21170(14) 1.01787(19) 0.56136(8)
O7G O 0.21447(13) 0.73241(19) 0.70094(8)
O14 O 0.04941(14) 0.4916(2) 0.57878(9)
H15 H 0.0619 0.5159 0.5528
H16 H 0.0064 0.4566 0.5682
O15 O 0.06368(14) 1.2506(2) 0.67802(9)
H17 H 0.0738 1.2237 0.7126
H18 H 0.0163 1.2961 0.6763
loop_
_geom_bond_atom_site_label_1
_geom_bond_atom_site_label_2
_geom_bond_site_symmetry_1
_geom_bond_site_symmetry_2
Th1 O1 1_555 1_555
S1 O3 1_555 1_555
S2 O8 1_555 1_555
O1 C1 1_555 1_555
O2 C1 1_555 1_555
O3 Th1 1_555 1_555
O4 S1 1_555 1_555
O5 S1 1_555 1_555
O6 Th1 1_555 1_555
O7 C8 1_555 1_555
O8 Th1 1_555 1_555
O9 S2 1_555 1_555
O10 S2 1_555 1_555
O11 Th1 1_555 1_555
H1 O11 1_555 1_555
H2 O11 1_555 1_555
O12 Th1 1_555 1_555
H3 O12 1_555 1_555
H4 O12 1_555 1_555
O13 Th1 1_555 1_555
H5 O13 1_555 1_555
H6 O13 1_555 1_555
C1 C2 1_555 1_555
C2 C3 1_555 1_555
C3 S1 1_555 1_555
C4 C3 1_555 1_555
H7 C4 1_555 1_555
C5 C4 1_555 1_555
H8 C5 1_555 1_555
C6 C5 1_555 1_555
H9 C6 1_555 1_555
C7 C2 1_555 1_555
H10 C7 1_555 1_555
C8 O6 1_555 1_555
C9 C8 1_555 1_555
C10 S2 1_555 1_555
C11 C10 1_555 1_555
H11 C11 1_555 1_555
C12 C11 1_555 1_555
H12 C12 1_555 1_555
C13 C12 1_555 1_555
H13 C13 1_555 1_555
C14 C9 1_555 1_555
H14 C14 1_555 1_555
O14 H15 1_555 1_555
H16 O14 1_555 1_555
O15 H17 1_555 1_555
H18 O15 1_555 1_555
Th1G O2 1_555 1_555
Th1G_2 O7 1_555 1_555
O2G Th1 1_555 1_555
O7G Th1 1_555 1_555
C6 C7 1_555 1_555
C9 C10 1_555 1_555
C13 C14 1_555 1_555

#END
