
#######################################################################
#
#                 Cambridge Crystallographic Data Centre
#                                CCDC 
#
#######################################################################
#
# If this CIF has been generated from an entry in the Cambridge 
# Structural Database, then it will include bibliographic, chemical, 
# crystal, experimental, refinement or atomic coordinate data resulting 
# from the CCDC's data processing and validation procedures.
#
#######################################################################

data_CISKIZ02
_symmetry_cell_setting           monoclinic
_symmetry_space_group_name_H-M   'P 21'
_symmetry_Int_Tables_number      4
_space_group_name_Hall           'P 2yb'
loop_
_symmetry_equiv_pos_site_id
_symmetry_equiv_pos_as_xyz
1 x,y,z
2 -x,1/2+y,-z
_cell_length_a                   11.550(10)
_cell_length_b                   7.933(7)
_cell_length_c                   13.131(11)
_cell_angle_alpha                90
_cell_angle_beta                 94.093(10)
_cell_angle_gamma                90
_cell_volume                     1200.07
loop_
_atom_site_label
_atom_site_type_symbol
_atom_site_fract_x
_atom_site_fract_y
_atom_site_fract_z
Ho1 Ho 0.95995(2) -0.09871(10) 0.524233(19)
O1 O 0.9146(5) -0.2404(8) 0.6771(4)
O2 O 1.1036(6) 0.0116(9) 0.6300(5)
O3 O 1.0946(5) -0.1740(9) 0.4154(5)
O4 O 1.0412(5) -0.3729(7) 0.5881(4)
O5 O 1.1705(5) 0.2572(8) 0.5783(5)
O6 O 1.1774(5) -0.4270(8) 0.4174(5)
C1 C 0.9967(8) -0.3437(11) 0.6745(6)
C2 C 1.0519(9) -0.4192(12) 0.7696(7)
H1 H 1.1060 -0.5051 0.7647
C3 C 1.0258(8) -0.3669(13) 0.8617(7)
H2 H 0.9634 -0.2931 0.8636
C4 C 1.0850(8) -0.4134(12) 0.9607(6)
C5 C 1.0376(9) -0.3574(15) 1.0499(7)
H3 H 0.9692 -0.2951 1.0455
C6 C 1.0922(10) -0.3945(17) 1.1448(8)
H4 H 1.0593 -0.3582 1.2036
C7 C 1.1932(10) -0.4833(15) 1.1528(8)
H5 H 1.2293 -0.5061 1.2170
C8 C 1.2431(10) -0.5405(15) 1.0655(8)
H6 H 1.3121 -0.6012 1.0708
C9 C 1.1870(9) -0.5045(14) 0.9695(7)
H7 H 1.2192 -0.5427 0.9108
C10 C 1.1683(7) 0.1393(12) 0.6421(6)
C11 C 1.2473(8) 0.1510(13) 0.7365(7)
H8 H 1.3054 0.2324 0.7393
C12 C 1.2388(8) 0.0505(13) 0.8174(7)
H9 H 1.1816 -0.0320 0.8118
C13 C 1.3109(8) 0.0570(13) 0.9144(7)
C14 C 1.2712(10) -0.0227(15) 1.0013(8)
H10 H 1.2009 -0.0804 0.9965
C15 C 1.3367(11) -0.0152(17) 1.0936(8)
H11 H 1.3090 -0.0669 1.1506
C16 C 1.4407(11) 0.0661(17) 1.1029(8)
H12 H 1.4843 0.0686 1.1652
C17 C 1.4813(13) 0.147(3) 1.0163(11)
H13 H 1.5516 0.2043 1.0217
C18 C 1.4176(9) 0.1403(15) 0.9244(7)
H14 H 1.4459 0.1921 0.8677
C19 C 1.1820(8) -0.2701(12) 0.4095(6)
C20 C 1.2974(11) -0.192(2) 0.3955(11)
H15 H 1.3614 -0.2614 0.3891
C21 C 1.3110(12) -0.0258(19) 0.3919(10)
H16 H 1.2450 0.0398 0.3978
C22 C 1.4217(8) 0.0655(12) 0.3794(7)
C23 C 1.5292(8) -0.0156(14) 0.3823(7)
H17 H 1.5341 -0.1311 0.3938
C24 C 1.6280(9) 0.0762(15) 0.3681(8)
H18 H 1.6996 0.0221 0.3732
C25 C 1.6235(10) 0.2452(15) 0.3468(9)
H19 H 1.6906 0.3043 0.3345
C26 C 1.5169(10) 0.3267(16) 0.3439(10)
H20 H 1.5130 0.4415 0.3297
C27 C 1.4159(9) 0.2395(14) 0.3618(9)
H21 H 1.3454 0.2961 0.3622
Ho1A Ho 1.04005(2) -0.59871(10) 0.475767(19)
Ho1A_2 Ho 1.04005(2) 0.40129(10) 0.475767(19)
O4A O 0.9588(5) 0.1271(7) 0.4119(4)
O5A O 0.8295(5) -0.2428(8) 0.4217(5)
O6A O 0.8226(5) 0.0730(8) 0.5826(5)
loop_
_geom_bond_atom_site_label_1
_geom_bond_atom_site_label_2
_geom_bond_site_symmetry_1
_geom_bond_site_symmetry_2
Ho1 O1 1_555 1_555
O1 C1 1_555 1_555
O2 Ho1 1_555 1_555
O3 Ho1 1_555 1_555
O4 Ho1 1_555 1_555
O5 C10 1_555 1_555
O6 C19 1_555 1_555
C1 O4 1_555 1_555
C2 C1 1_555 1_555
H1 C2 1_555 1_555
C3 C2 1_555 1_555
H2 C3 1_555 1_555
C4 C3 1_555 1_555
C5 C4 1_555 1_555
H3 C5 1_555 1_555
C6 C5 1_555 1_555
H4 C6 1_555 1_555
C7 C6 1_555 1_555
H5 C7 1_555 1_555
C8 C7 1_555 1_555
H6 C8 1_555 1_555
C9 C4 1_555 1_555
H7 C9 1_555 1_555
C10 O2 1_555 1_555
C11 C10 1_555 1_555
H8 C11 1_555 1_555
C12 C11 1_555 1_555
H9 C12 1_555 1_555
C13 C12 1_555 1_555
C14 C13 1_555 1_555
H10 C14 1_555 1_555
C15 C14 1_555 1_555
H11 C15 1_555 1_555
C16 C15 1_555 1_555
H12 C16 1_555 1_555
C17 C16 1_555 1_555
H13 C17 1_555 1_555
C18 C13 1_555 1_555
H14 C18 1_555 1_555
C19 O3 1_555 1_555
C20 C19 1_555 1_555
H15 C20 1_555 1_555
C21 C20 1_555 1_555
H16 C21 1_555 1_555
C22 C21 1_555 1_555
C23 C22 1_555 1_555
H17 C23 1_555 1_555
C24 C23 1_555 1_555
H18 C24 1_555 1_555
C25 C24 1_555 1_555
H19 C25 1_555 1_555
C26 C25 1_555 1_555
H20 C26 1_555 1_555
C27 C22 1_555 1_555
H21 C27 1_555 1_555
Ho1A O4 1_555 1_555
Ho1A_2 O5 1_555 1_555
O4A Ho1 1_555 1_555
O5A Ho1 1_555 1_555
O6A Ho1 1_555 1_555
O6 Ho1A 1_555 1_555
C8 C9 1_555 1_555
C17 C18 1_555 1_555
C26 C27 1_555 1_555
Ho1A_2 O4A 1_555 1_555

#END
