
#######################################################################
#
#                 Cambridge Crystallographic Data Centre
#                                CCDC 
#
#######################################################################
#
# If this CIF has been generated from an entry in the Cambridge 
# Structural Database, then it will include bibliographic, chemical, 
# crystal, experimental, refinement or atomic coordinate data resulting 
# from the CCDC's data processing and validation procedures.
#
#######################################################################

data_CISLEX
_symmetry_cell_setting           triclinic
_symmetry_space_group_name_H-M   'P -1'
_symmetry_Int_Tables_number      2
_space_group_name_Hall           '-P 1'
loop_
_symmetry_equiv_pos_site_id
_symmetry_equiv_pos_as_xyz
1 x,y,z
2 -x,-y,-z
_cell_length_a                   7.8491(4)
_cell_length_b                   8.7840(8)
_cell_length_c                   12.3141(11)
_cell_angle_alpha                86.690(4)
_cell_angle_beta                 72.205(5)
_cell_angle_gamma                76.357(5)
_cell_volume                     785.49
loop_
_atom_site_label
_atom_site_type_symbol
_atom_site_fract_x
_atom_site_fract_y
_atom_site_fract_z
U1 U 0.44218(3) 0.43007(3) 0.153620(16)
S1 S 0.52150(19) 0.00345(17) 0.17211(12)
O1 O 0.2535(5) 0.3611(5) 0.1433(3)
O2 O 0.6276(5) 0.5019(5) 0.1670(3)
O3 O 0.5800(5) 0.1563(4) 0.1605(3)
O4 O 0.3742(5) 0.0009(5) 0.2764(3)
O5 O 0.6829(6) -0.1234(5) 0.1578(3)
O6 O 0.6341(5) 0.3693(4) -0.0355(3)
H1 H 0.7341 0.3686 -0.0225
N1 N 0.2036(6) 0.6403(5) 0.2986(4)
N2 N 0.3997(6) 0.3752(5) 0.3715(4)
C1 C 0.4312(7) -0.0081(7) 0.0577(5)
H2 H 0.3976 -0.1079 0.0600
H3 H 0.3208 0.0743 0.0671
C2 C 0.1036(7) 0.7679(7) 0.2658(5)
H4 H 0.1254 0.7850 0.1881
C3 C -0.0330(7) 0.8789(7) 0.3418(5)
H5 H -0.1024 0.9644 0.3144
C4 C -0.0623(7) 0.8594(7) 0.4557(5)
H6 H -0.1527 0.9314 0.5072
C5 C 0.0447(7) 0.7297(7) 0.4954(5)
C6 C 0.1754(7) 0.6186(7) 0.4128(4)
C7 C 0.2815(7) 0.4813(7) 0.4517(4)
C8 C 0.2596(7) 0.4633(7) 0.5688(5)
C9 C 0.1285(8) 0.5786(8) 0.6491(5)
H7 H 0.1154 0.5658 0.7265
C10 C 0.0255(7) 0.7034(7) 0.6147(5)
H8 H -0.0604 0.7749 0.6687
C11 C 0.3697(7) 0.3286(7) 0.6032(5)
H9 H 0.3593 0.3115 0.6800
C12 C 0.4919(7) 0.2237(7) 0.5213(5)
H10 H 0.5679 0.1358 0.5415
C13 C 0.5000(7) 0.2515(7) 0.4071(5)
H11 H 0.5812 0.1782 0.3527
S1A S 0.47850(19) -0.00345(17) -0.17211(12)
O3A O 0.4200(5) -0.1563(4) -0.1605(3)
O4A O 0.6258(5) -0.0009(5) -0.2764(3)
O5A O 0.3171(6) 0.1234(5) -0.1578(3)
C1A C 0.5688(7) 0.0081(7) -0.0577(5)
H2A H 0.6024 0.1079 -0.0600
H3A H 0.6792 -0.0743 -0.0671
U1A U 0.55782(3) -0.43007(3) -0.153620(16)
O1A O 0.7465(5) -0.3611(5) -0.1433(3)
O2A O 0.3724(5) -0.5019(5) -0.1670(3)
O6A O 0.3659(5) -0.3693(4) 0.0355(3)
H1A H 0.2659 -0.3686 0.0225
N1A N 0.7964(6) -0.6403(5) -0.2986(4)
N2A N 0.6003(6) -0.3752(5) -0.3715(4)
C2A C 0.8964(7) -0.7679(7) -0.2658(5)
H4A H 0.8746 -0.7850 -0.1881
C3A C 1.0330(7) -0.8789(7) -0.3418(5)
H5A H 1.1024 -0.9644 -0.3144
C4A C 1.0623(7) -0.8594(7) -0.4557(5)
H6A H 1.1527 -0.9314 -0.5072
C5A C 0.9553(7) -0.7297(7) -0.4954(5)
C6A C 0.8246(7) -0.6186(7) -0.4128(4)
C7A C 0.7185(7) -0.4813(7) -0.4517(4)
C8A C 0.7404(7) -0.4633(7) -0.5688(5)
C9A C 0.8715(8) -0.5786(8) -0.6491(5)
H7A H 0.8846 -0.5658 -0.7265
C10A C 0.9745(7) -0.7034(7) -0.6147(5)
H8A H 1.0604 -0.7749 -0.6687
C11A C 0.6303(7) -0.3286(7) -0.6032(5)
H9A H 0.6407 -0.3115 -0.6800
C12A C 0.5081(7) -0.2237(7) -0.5213(5)
H10A H 0.4321 -0.1358 -0.5415
C13A C 0.5000(7) -0.2515(7) -0.4071(5)
H11A H 0.4188 -0.1782 -0.3527
U1_2 U 0.44218(3) -0.56993(3) 0.153620(16)
U1A_2 U 0.55782(3) 0.56993(3) -0.153620(16)
O6_2 O 0.6341(5) -0.6307(4) -0.0355(3)
O6A_2 O 0.3659(5) 0.6307(4) 0.0355(3)
O7 O 0.9960(5) 0.3501(5) -0.0330(4)
H12 H 1.1308 0.3419 -0.0564
H13 H 0.9870 0.2805 0.0213
O8 O 0.9747(8) 0.0852(8) 0.0947(6)
loop_
_geom_bond_atom_site_label_1
_geom_bond_atom_site_label_2
_geom_bond_site_symmetry_1
_geom_bond_site_symmetry_2
U1 O1 1_555 1_555
S1 O3 1_555 1_555
O2 U1 1_555 1_555
O3 U1 1_555 1_555
O4 S1 1_555 1_555
O5 S1 1_555 1_555
O6 U1 1_555 1_555
H1 O6 1_555 1_555
N1 U1 1_555 1_555
N2 U1 1_555 1_555
C1 S1 1_555 1_555
H2 C1 1_555 1_555
H3 C1 1_555 1_555
C2 N1 1_555 1_555
H4 C2 1_555 1_555
C3 C2 1_555 1_555
H5 C3 1_555 1_555
C4 C3 1_555 1_555
H6 C4 1_555 1_555
C5 C4 1_555 1_555
C6 N1 1_555 1_555
C7 N2 1_555 1_555
C8 C7 1_555 1_555
C9 C8 1_555 1_555
H7 C9 1_555 1_555
C10 C5 1_555 1_555
H8 C10 1_555 1_555
C11 C8 1_555 1_555
H9 C11 1_555 1_555
C12 C11 1_555 1_555
H10 C12 1_555 1_555
C13 N2 1_555 1_555
H11 C13 1_555 1_555
O7 H12 1_555 1_555
H13 O7 1_555 1_555
S1A O3A 1_555 1_555
O3A U1A 1_555 1_555
O4A S1A 1_555 1_555
O5A S1A 1_555 1_555
C1A C1 1_555 1_555
H2A C1A 1_555 1_555
H3A C1A 1_555 1_555
U1A O1A 1_555 1_555
O2A U1A 1_555 1_555
O6A U1A 1_555 1_555
H1A O6A 1_555 1_555
N1A U1A 1_555 1_555
N2A U1A 1_555 1_555
C2A N1A 1_555 1_555
H4A C2A 1_555 1_555
C3A C2A 1_555 1_555
H5A C3A 1_555 1_555
C4A C3A 1_555 1_555
H6A C4A 1_555 1_555
C5A C4A 1_555 1_555
C6A N1A 1_555 1_555
C7A N2A 1_555 1_555
C8A C7A 1_555 1_555
C9A C8A 1_555 1_555
H7A C9A 1_555 1_555
C10A C5A 1_555 1_555
H8A C10A 1_555 1_555
C11A C8A 1_555 1_555
H9A C11A 1_555 1_555
C12A C11A 1_555 1_555
H10A C12A 1_555 1_555
C13A N2A 1_555 1_555
H11A C13A 1_555 1_555
U1_2 O6A 1_555 1_555
U1A_2 O6 1_555 1_555
O6_2 U1A 1_555 1_555
O6A_2 U1 1_555 1_555
C5 C6 1_555 1_555
C6 C7 1_555 1_555
C9 C10 1_555 1_555
C12 C13 1_555 1_555
S1A C1A 1_555 1_555
C5A C6A 1_555 1_555
C6A C7A 1_555 1_555
C9A C10A 1_555 1_555
C12A C13A 1_555 1_555
U1_2 O6_2 1_555 1_555
U1A_2 O6A_2 1_555 1_555

#END
