
#######################################################################
#
#                 Cambridge Crystallographic Data Centre
#                                CCDC 
#
#######################################################################
#
# If this CIF has been generated from an entry in the Cambridge 
# Structural Database, then it will include bibliographic, chemical, 
# crystal, experimental, refinement or atomic coordinate data resulting 
# from the CCDC's data processing and validation procedures.
#
#######################################################################

data_CISLIB
_symmetry_cell_setting           monoclinic
_symmetry_space_group_name_H-M   'C m'
_symmetry_Int_Tables_number      8
_space_group_name_Hall           'C -2y'
loop_
_symmetry_equiv_pos_site_id
_symmetry_equiv_pos_as_xyz
1 x,y,z
2 x,-y,z
3 1/2+x,1/2+y,z
4 1/2+x,1/2-y,z
_cell_length_a                   15.2569(9)
_cell_length_b                   7.0441(5)
_cell_length_c                   5.0841(3)
_cell_angle_alpha                90
_cell_angle_beta                 91.368(4)
_cell_angle_gamma                90
_cell_volume                     546.238
loop_
_atom_site_label
_atom_site_type_symbol
_atom_site_fract_x
_atom_site_fract_y
_atom_site_fract_z
Na1 Na 0.91251(8) 0.5000 0.1486(2)
Na2 Na 0.79943(6) 0.23731(12) 0.54555(17)
S1 S 0.70036(4) 0.5000 0.03295(11)
S2 S 0.41569(4) 0.5000 0.05507(10)
O1 O 0.76055(14) 0.5000 0.2634(4)
O2 O 0.70817(11) 0.3279(2) -0.1222(3)
O3 O 0.35993(14) 0.5000 -0.1824(4)
O4 O 0.40577(9) 0.6721(2) 0.2125(3)
O5 O 0.91127(14) 0.5000 0.6649(4)
O6 O 1.03213(16) 0.5000 0.4465(4)
O7 O 1.03744(16) 0.5000 0.8731(4)
O8 O 0.71021(14) 0.0000 0.3467(5)
H1 H 0.7071 0.0000 0.1665
H2 H 0.6544 0.0000 0.3674
N1 N 0.99471(16) 0.5000 0.6626(5)
C1 C 0.5925(2) 0.5000 0.1624(6)
H3 H 0.5849 0.3878 0.2711
C2 C 0.52443(19) 0.5000 -0.0605(6)
H4 H 0.5329 0.3880 -0.1691
O2A O 0.70817(11) 0.6721(2) -0.1222(3)
O4A O 0.40577(9) 0.3279(2) 0.2125(3)
H3A H 0.5849 0.6122 0.2711
H4A H 0.5329 0.6120 -0.1691
Na2A Na 0.79943(6) -0.23731(12) 0.54555(17)
Na1_2 Na 0.91251(8) 0.5000 1.1486(2)
Na1B Na 0.41251(8) 0.0000 0.1486(2)
Na1B_2 Na 0.41251(8) 1.0000 0.1486(2)
Na2_2 Na 0.79943(6) 0.23731(12) -0.45445(17)
Na2A_2 Na 0.79943(6) 0.76269(12) -0.45445(17)
Na2A_3 Na 0.79943(6) 0.76269(12) 0.54555(17)
Na2B Na 0.29943(6) 0.73731(12) -0.45445(17)
Na2B_2 Na 0.29943(6) 0.73731(12) 0.54555(17)
Na2C Na 0.29943(6) 0.26269(12) -0.45445(17)
Na2C_2 Na 0.29943(6) 0.26269(12) 0.54555(17)
O1_2 O 0.76055(14) -0.5000 0.2634(4)
O2_2 O 0.70817(11) 0.3279(2) 0.8778(3)
O2A_2 O 0.70817(11) -0.3279(2) 0.8778(3)
O3B O 0.85993(14) 0.0000 0.8176(4)
O4B O 0.90577(9) 0.1721(2) 0.2125(3)
O4C O 0.90577(9) -0.1721(2) 0.2125(3)
O4C_2 O 0.90577(9) 0.8279(2) 0.2125(3)
O5_2 O 0.91127(14) -0.5000 0.6649(4)
O5_3 O 0.91127(14) 0.5000 -0.3351(4)
O7_2 O 1.03744(16) 0.5000 -0.1269(4)
loop_
_geom_bond_atom_site_label_1
_geom_bond_atom_site_label_2
_geom_bond_site_symmetry_1
_geom_bond_site_symmetry_2
Na1 O1 1_555 1_555
Na2 O1 1_555 1_555
S1 O1 1_555 1_555
S2 O3 1_555 1_555
O1 Na2A_3 1_555 1_555
O2 S1 1_555 1_555
O3 Na2B 1_555 1_555
O4 S2 1_555 1_555
O5 Na1 1_555 1_555
O6 Na1 1_555 1_555
O7 N1 1_555 1_555
O8 Na2 1_555 1_555
H1 O8 1_555 1_555
H2 O8 1_555 1_555
N1 O5 1_555 1_555
C1 S1 1_555 1_555
H3 C1 1_555 1_555
C2 S2 1_555 1_555
H4 C2 1_555 1_555
O2A S1 1_555 1_555
O4A S2 1_555 1_555
H3A C1 1_555 1_555
H4A C2 1_555 1_555
Na2A O8 1_555 1_555
Na1_2 O5 1_555 1_555
Na1B O4A 1_555 1_555
Na1B_2 O4 1_555 1_555
Na2_2 O2 1_555 1_555
Na2A_2 O2A 1_555 1_555
Na2A_3 O5 1_555 1_555
Na2B_2 O4 1_555 1_555
Na2C O3 1_555 1_555
Na2C_2 O4A 1_555 1_555
O1_2 Na2A 1_555 1_555
O2_2 Na2 1_555 1_555
O2A_2 Na2A 1_555 1_555
O3B Na2 1_555 1_555
O4B Na1 1_555 1_555
O4C Na2A 1_555 1_555
O4C_2 Na1 1_555 1_555
O5_2 Na2A 1_555 1_555
O5_3 Na1 1_555 1_555
O7_2 Na1 1_555 1_555
Na2 O5 1_555 1_555
Na2 O4B 1_555 1_555
O6 N1 1_555 1_555
O7 Na1_2 1_555 1_555
C1 C2 1_555 1_555
Na2A O3B 1_555 1_555
Na2_2 O5_3 1_555 1_555
Na2A_2 O5_3 1_555 1_555
Na2A_3 O4C_2 1_555 1_555

#END
