
#######################################################################
#
#                 Cambridge Crystallographic Data Centre
#                                CCDC 
#
#######################################################################
#
# If this CIF has been generated from an entry in the Cambridge 
# Structural Database, then it will include bibliographic, chemical, 
# crystal, experimental, refinement or atomic coordinate data resulting 
# from the CCDC's data processing and validation procedures.
#
#######################################################################

data_CISSUU
_symmetry_cell_setting           monoclinic
_symmetry_space_group_name_H-M   'P 2/c'
_symmetry_Int_Tables_number      13
_space_group_name_Hall           '-P 2yc'
loop_
_symmetry_equiv_pos_site_id
_symmetry_equiv_pos_as_xyz
1 x,y,z
2 -x,y,1/2-z
3 -x,-y,-z
4 x,-y,1/2+z
_cell_length_a                   18.782(4)
_cell_length_b                   9.3645(19)
_cell_length_c                   18.609(4)
_cell_angle_alpha                90
_cell_angle_beta                 97.15(3)
_cell_angle_gamma                90
_cell_volume                     3247.57
loop_
_atom_site_label
_atom_site_type_symbol
_atom_site_fract_x
_atom_site_fract_y
_atom_site_fract_z
Cu1 Cu 0.20804(7) 0.16777(13) 0.42287(6)
Cu2 Cu 0.30646(7) 0.34805(14) 0.38325(8)
Cu3 Cu 0.18033(8) 0.32938(14) 0.30619(7)
Cu4 Cu 0.27053(8) 0.08843(14) 0.30867(7)
I1 I 0.19110(4) 0.44902(7) 0.44035(4)
I2 I 0.12348(4) 0.06998(7) 0.29974(3)
I3 I 0.34535(4) 0.08638(7) 0.43915(3)
I4 I 0.29720(4) 0.32391(8) 0.23676(4)
N1 N 0.1586(5) 0.0615(8) 0.4979(4)
N2 N 0.0067(5) 0.1055(10) 0.5999(5)
H1 H -0.0199 0.0494 0.6217
N3 N 0.1189(5) 0.5347(9) 0.7415(4)
N4 N 0.3880(4) 0.4887(8) 0.4076(4)
N5 N 0.5725(5) 0.5146(9) 0.3687(4)
H2 H 0.5713 0.4467 0.3374
N6 N 0.7002(5) 0.9214(9) 0.2519(4)
C1 C 0.1738(6) -0.0776(10) 0.5105(5)
H3 H 0.2110 -0.1202 0.4897
C2 C 0.1345(8) -0.1578(12) 0.5542(6)
H4 H 0.1462 -0.2530 0.5637
C3 C 0.0788(7) -0.0966(13) 0.5831(5)
H5 H 0.0509 -0.1513 0.6106
C4 C 0.0635(6) 0.0469(10) 0.5717(5)
C5 C 0.1057(5) 0.1197(11) 0.5285(5)
H6 H 0.0963 0.2162 0.5204
C6 C -0.0119(6) 0.2530(13) 0.5961(5)
H7 H -0.0608 0.2632 0.6072
H8 H -0.0109 0.2855 0.5468
C7 C 0.0360(6) 0.3485(11) 0.6462(5)
C8 C 0.0229(6) 0.4959(12) 0.6472(6)
H9 H -0.0139 0.5357 0.6154
C9 C 0.0651(7) 0.5819(12) 0.6958(7)
H10 H 0.0548 0.6790 0.6961
C10 C 0.1320(7) 0.3975(12) 0.7396(6)
H11 H 0.1709 0.3624 0.7703
C11 C 0.0918(7) 0.3007(12) 0.6947(6)
H12 H 0.1027 0.2039 0.6976
C12 C 0.3817(6) 0.6092(11) 0.4443(6)
H13 H 0.3383 0.6305 0.4610
C13 C 0.4386(6) 0.7033(10) 0.4579(5)
H14 H 0.4331 0.7856 0.4846
C14 C 0.5017(6) 0.6778(10) 0.4330(5)
H15 H 0.5389 0.7437 0.4407
C15 C 0.5106(6) 0.5509(9) 0.3954(5)
C16 C 0.4510(6) 0.4624(10) 0.3842(5)
H16 H 0.4553 0.3785 0.3584
C17 C 0.6391(6) 0.5847(11) 0.3904(5)
H17 H 0.6771 0.5139 0.3939
H18 H 0.6379 0.6241 0.4384
C18 C 0.6579(5) 0.7030(10) 0.3409(4)
C19 C 0.7121(6) 0.7966(12) 0.3636(5)
H19 H 0.7359 0.7886 0.4103
C20 C 0.7318(6) 0.9010(12) 0.3191(5)
H20 H 0.7694 0.9611 0.3366
C21 C 0.6471(6) 0.8295(11) 0.2290(5)
H21 H 0.6239 0.8395 0.1821
C22 C 0.6254(6) 0.7221(11) 0.2712(5)
H22 H 0.5884 0.6616 0.2525
Cu3C Cu 0.18033(8) 0.67062(14) 0.80619(7)
Cu4A Cu 0.72947(8) 1.08843(14) 0.19133(7)
N3C N 0.1189(5) 0.4653(9) 0.2415(4)
N6A N 0.2998(5) -0.0786(9) 0.2481(4)
O1 O 0.5391(15) 0.066(3) 0.3498(15)
O2? O 0.5393(14) 0.183(3) 0.3193(17)
loop_
_geom_bond_atom_site_label_1
_geom_bond_atom_site_label_2
_geom_bond_site_symmetry_1
_geom_bond_site_symmetry_2
Cu1 I1 1_555 1_555
Cu2 I1 1_555 1_555
Cu3 I1 1_555 1_555
Cu4 I2 1_555 1_555
I2 Cu1 1_555 1_555
I3 Cu1 1_555 1_555
I4 Cu2 1_555 1_555
N1 Cu1 1_555 1_555
N2 H1 1_555 1_555
N3 C9 1_555 1_555
N4 Cu2 1_555 1_555
N5 H2 1_555 1_555
N6 C20 1_555 1_555
C1 N1 1_555 1_555
H3 C1 1_555 1_555
C2 C1 1_555 1_555
H4 C2 1_555 1_555
C3 C2 1_555 1_555
H5 C3 1_555 1_555
C4 N2 1_555 1_555
C5 N1 1_555 1_555
H6 C5 1_555 1_555
C6 N2 1_555 1_555
H7 C6 1_555 1_555
H8 C6 1_555 1_555
C7 C6 1_555 1_555
C8 C7 1_555 1_555
H9 C8 1_555 1_555
C9 C8 1_555 1_555
H10 C9 1_555 1_555
C10 N3 1_555 1_555
H11 C10 1_555 1_555
C11 C7 1_555 1_555
H12 C11 1_555 1_555
C12 N4 1_555 1_555
H13 C12 1_555 1_555
C13 C12 1_555 1_555
H14 C13 1_555 1_555
C14 C13 1_555 1_555
H15 C14 1_555 1_555
C15 N5 1_555 1_555
C16 N4 1_555 1_555
H16 C16 1_555 1_555
C17 N5 1_555 1_555
H17 C17 1_555 1_555
H18 C17 1_555 1_555
C18 C17 1_555 1_555
C19 C18 1_555 1_555
H19 C19 1_555 1_555
C20 C19 1_555 1_555
H20 C20 1_555 1_555
C21 N6 1_555 1_555
H21 C21 1_555 1_555
C22 C18 1_555 1_555
H22 C22 1_555 1_555
Cu3C N3 1_555 1_555
Cu4A N6 1_555 1_555
N3C Cu3 1_555 1_555
N6A Cu4 1_555 1_555
Cu2 I3 1_555 1_555
Cu3 I2 1_555 1_555
Cu3 I4 1_555 1_555
Cu4 I3 1_555 1_555
Cu4 I4 1_555 1_555
C3 C4 1_555 1_555
C4 C5 1_555 1_555
C10 C11 1_555 1_555
C14 C15 1_555 1_555
C15 C16 1_555 1_555
C21 C22 1_555 1_555

#END
