
#######################################################################
#
#                 Cambridge Crystallographic Data Centre
#                                CCDC 
#
#######################################################################
#
# If this CIF has been generated from an entry in the Cambridge 
# Structural Database, then it will include bibliographic, chemical, 
# crystal, experimental, refinement or atomic coordinate data resulting 
# from the CCDC's data processing and validation procedures.
#
#######################################################################

data_CISVEH
_symmetry_cell_setting           rhombohedral
_symmetry_space_group_name_H-M   'R -3'
_symmetry_Int_Tables_number      148
_space_group_name_Hall           '-R 3'
loop_
_symmetry_equiv_pos_site_id
_symmetry_equiv_pos_as_xyz
1 x,y,z
2 -y,x-y,z
3 -x+y,-x,z
4 2/3+x,1/3+y,1/3+z
5 2/3-y,1/3+x-y,1/3+z
6 2/3-x+y,1/3-x,1/3+z
7 1/3+x,2/3+y,2/3+z
8 1/3-y,2/3+x-y,2/3+z
9 1/3-x+y,2/3-x,2/3+z
10 -x,-y,-z
11 y,-x+y,-z
12 x-y,x,-z
13 1/3-x,2/3-y,2/3-z
14 1/3+y,2/3-x+y,2/3-z
15 1/3+x-y,2/3+x,2/3-z
16 2/3-x,1/3-y,1/3-z
17 2/3+y,1/3-x+y,1/3-z
18 2/3+x-y,1/3+x,1/3-z
_cell_length_a                   16.587(5)
_cell_length_b                   16.587(5)
_cell_length_c                   44.711(5)
_cell_angle_alpha                90
_cell_angle_beta                 90
_cell_angle_gamma                120
_cell_volume                     10653.2
loop_
_atom_site_label
_atom_site_type_symbol
_atom_site_fract_x
_atom_site_fract_y
_atom_site_fract_z
Dy1 Dy 1.0000 0.0000 0.193672(7)
Dy2 Dy 0.951754(12) 0.099724(12) 0.262547(4)
O1 O 0.42637(19) -0.1845(2) 0.34826(7)
O2 O 1.0000 0.0000 0.28126(10)
O3 O 1.0731(2) 0.1069(2) 0.23134(6)
O4 O 0.7695(2) -0.1406(2) 0.27847(7)
O5 O 0.9550(3) 0.4507(3) 0.12236(10)
O6 O 0.7945(2) 0.0051(2) 0.27495(7)
O7 O 0.9669(3) 0.1131(3) 0.17854(9)
O8 O 0.9019(3) 0.2070(3) 0.27760(9)
N1 N 0.4984(2) -0.1604(3) 0.33040(8)
O9 O 0.9364(2) 0.1708(3) 0.21981(8)
C1 C 0.6540(3) -0.1095(3) 0.29611(9)
N2 N 0.9537(3) 0.3846(3) 0.13894(10)
C2 C 0.7464(3) -0.0796(3) 0.28166(9)
C3 C 0.5171(3) -0.2261(3) 0.32062(10)
H1 H 0.4771 -0.2882 0.3254
O10 O 1.0000 0.0000 0.14070(18)
C4 C 0.9700(5) 0.3203(4) 0.12619(12)
H2 H 0.9821 0.3234 0.1058
C5 C 0.9517(3) 0.2460(3) 0.17346(11)
C6 C 0.9322(5) 0.3106(4) 0.18576(13)
H3 H 0.9179 0.3076 0.2060
C7 C 0.9525(3) 0.1717(3) 0.19225(10)
C8 C 0.9340(5) 0.3801(5) 0.16806(16)
H4 H 0.9214 0.4238 0.1765
C9 C 0.5946(3) -0.2020(3) 0.30363(9)
H5 H 0.6075 -0.2477 0.2971
C10 C 0.6311(3) -0.0436(3) 0.30532(10)
H6 H 0.6685 0.0184 0.2999
C11 C 0.5524(3) -0.0708(3) 0.32262(11)
H7 H 0.5369 -0.0267 0.3289
C12 C 0.9688(4) 0.2500(4) 0.14315(12)
H8 H 0.9795 0.2056 0.1342
H9 H 1.0000 0.0000 0.1206(5)
H10 H 0.9231 0.2483 0.2639
H11 H 0.8502 0.2013 0.2833
H12 H 1.116(2) 0.1661(18) 0.2293(9)
Dy2A Dy 0.900276(12) -0.147970(17) 0.262547(4)
O1A O 1.1845(2) -0.38913(28) 0.34826(7)
O3A O 0.8931(2) -0.0338(3) 0.23134(6)
O4A O 1.1406(2) -0.0899(3) 0.27847(7)
O5A O 0.5493(3) -0.4957(4) 0.12236(10)
O6A O 0.9949(2) -0.2106(3) 0.27495(7)
O7A O 0.8869(3) -0.1462(4) 0.17854(9)
O8A O 0.7930(3) -0.3051(4) 0.27760(9)
N1A N 1.1604(3) -0.3412(4) 0.33040(8)
O9A O 0.8292(3) -0.2344(4) 0.21981(8)
C1A C 1.1095(3) -0.2365(4) 0.29611(9)
N2A N 0.6154(3) -0.4309(4) 0.13894(10)
C2A C 1.0796(3) -0.1740(4) 0.28166(9)
C3A C 1.2261(3) -0.2568(4) 0.32062(10)
H1A H 1.2882 -0.2347 0.3254
C4A C 0.6797(4) -0.3503(6) 0.12619(12)
H2A H 0.6766 -0.3413 0.1058
C5A C 0.7540(3) -0.2943(4) 0.17346(11)
C6A C 0.6894(4) -0.3784(6) 0.18576(13)
H3A H 0.6924 -0.3897 0.2060
C7A C 0.8283(3) -0.2192(4) 0.19225(10)
C8A C 0.6199(5) -0.4461(7) 0.16806(16)
H4A H 0.5762 -0.5024 0.1765
C9A C 1.2020(3) -0.2034(4) 0.30363(9)
H5A H 1.2477 -0.1448 0.2971
C10A C 1.0436(3) -0.3253(4) 0.30532(10)
H6A H 0.9816 -0.3499 0.2999
C11A C 1.0708(3) -0.3768(4) 0.32262(11)
H7A H 1.0267 -0.4364 0.3289
C12A C 0.7500(4) -0.2812(6) 0.14315(12)
H8A H 0.7944 -0.2261 0.1342
H10A H 0.7517 -0.3252 0.2639
H11A H 0.7987 -0.3511 0.2833
H12A H 0.8339(18) -0.0501(27) 0.2293(9)
Dy2B Dy 1.147970(17) 0.048246(12) 0.262547(4)
O1B O 1.38913(28) 0.57363(19) 0.34826(7)
O3B O 1.0338(3) -0.0731(2) 0.23134(6)
O4B O 1.0899(3) 0.2305(2) 0.27847(7)
O5B O 1.4957(4) 0.0450(3) 0.12236(10)
O6B O 1.2106(3) 0.2055(2) 0.27495(7)
O7B O 1.1462(4) 0.0331(3) 0.17854(9)
O8B O 1.3051(4) 0.0981(3) 0.27760(9)
N1B N 1.3412(4) 0.5016(2) 0.33040(8)
O9B O 1.2344(4) 0.0636(2) 0.21981(8)
C1B C 1.2365(4) 0.3460(3) 0.29611(9)
N2B N 1.4309(4) 0.0463(3) 0.13894(10)
C2B C 1.1740(4) 0.2536(3) 0.28166(9)
C3B C 1.2568(4) 0.4829(3) 0.32062(10)
H1B H 1.2347 0.5229 0.3254
C4B C 1.3503(6) 0.0300(5) 0.12619(12)
H2B H 1.3413 0.0179 0.1058
C5B C 1.2943(4) 0.0483(3) 0.17346(11)
C6B C 1.3784(6) 0.0678(5) 0.18576(13)
H3B H 1.3897 0.0821 0.2060
C7B C 1.2192(4) 0.0475(3) 0.19225(10)
C8B C 1.4461(7) 0.0660(5) 0.16806(16)
H4B H 1.5024 0.0786 0.1765
C9B C 1.2034(4) 0.4054(3) 0.30363(9)
H5B H 1.1448 0.3925 0.2971
C10B C 1.3253(4) 0.3689(3) 0.30532(10)
H6B H 1.3499 0.3315 0.2999
C11B C 1.3768(4) 0.4476(3) 0.32262(11)
H7B H 1.4364 0.4631 0.3289
C12B C 1.2812(6) 0.0312(4) 0.14315(12)
H8B H 1.2261 0.0205 0.1342
H10B H 1.3252 0.0769 0.2639
H11B H 1.3511 0.1498 0.2833
H12B H 1.0501(27) -0.116(2) 0.2293(9)
Dy2L Dy 1.381579(12) 0.566943(12) 0.404120(4)
Dy2M Dy 0.433057(12) -0.185363(17) 0.404120(4)
Dy2N Dy 1.185363(17) -0.381579(12) 0.404120(4)
O1L O 0.90696(19) -0.1488(2) 0.31841(7)
O1M O 1.1488(2) 0.05580(28) 0.31841(7)
O1N O 0.94420(28) 0.09304(19) 0.31841(7)
O11 O 0.7177(10) 0.1736(9) 0.2693(3)
O12 O 1.0098(9) 0.3900(9) 0.2652(3)
C13 C 1.0818(13) 0.4051(12) 0.2456(4)
N3 N 1.1124(1) 0.4868(1) 0.2277(1)
C14 C 1.1212(1) 0.5750(1) 0.2412(1)
C15 C 1.1720(1) 0.4959(1) 0.1991(1)
O13 O 0.545(3) 0.121(2) 0.3215(9)
O14 O 0.795(2) 0.329(2) 0.2406(6)
O15 O 0.543(2) 0.070(2) 0.2644(6)
loop_
_geom_bond_atom_site_label_1
_geom_bond_atom_site_label_2
_geom_bond_site_symmetry_1
_geom_bond_site_symmetry_2
Dy1 O3 1_555 1_555
Dy2 O2 1_555 1_555
O1 N1 1_555 1_555
O2 Dy2A 1_555 1_555
O3 Dy2 1_555 1_555
O4 C2 1_555 1_555
O5 N2 1_555 1_555
O6 Dy2 1_555 1_555
O7 Dy1 1_555 1_555
O8 Dy2 1_555 1_555
N1 C3 1_555 1_555
O9 Dy2 1_555 1_555
C1 C2 1_555 1_555
N2 C4 1_555 1_555
C2 O6 1_555 1_555
C3 H1 1_555 1_555
O10 Dy1 1_555 1_555
C4 H2 1_555 1_555
C5 C6 1_555 1_555
C6 H3 1_555 1_555
C7 O7 1_555 1_555
C8 N2 1_555 1_555
H4 C8 1_555 1_555
C9 C1 1_555 1_555
H5 C9 1_555 1_555
C10 C1 1_555 1_555
H6 C10 1_555 1_555
C11 N1 1_555 1_555
H7 C11 1_555 1_555
C12 C4 1_555 1_555
H8 C12 1_555 1_555
H9 O10 1_555 1_555
H10 O8 1_555 1_555
H11 O8 1_555 1_555
H12 O3 1_555 1_555
O12 C13 1_555 1_555
C13 N3 1_555 1_555
N3 C14 1_555 1_555
C15 N3 1_555 1_555
Dy2A O4 1_555 1_555
O1A N1A 1_555 1_555
O3A Dy1 1_555 1_555
O4A C2A 1_555 1_555
O5A N2A 1_555 1_555
O6A Dy2A 1_555 1_555
O7A Dy1 1_555 1_555
O8A Dy2A 1_555 1_555
N1A C3A 1_555 1_555
O9A Dy2A 1_555 1_555
C1A C2A 1_555 1_555
N2A C4A 1_555 1_555
C2A O6A 1_555 1_555
C3A H1A 1_555 1_555
C4A H2A 1_555 1_555
C5A C6A 1_555 1_555
C6A H3A 1_555 1_555
C7A O7A 1_555 1_555
C8A N2A 1_555 1_555
H4A C8A 1_555 1_555
C9A C1A 1_555 1_555
H5A C9A 1_555 1_555
C10A C1A 1_555 1_555
H6A C10A 1_555 1_555
C11A N1A 1_555 1_555
H7A C11A 1_555 1_555
C12A C4A 1_555 1_555
H8A C12A 1_555 1_555
H10A O8A 1_555 1_555
H11A O8A 1_555 1_555
H12A O3A 1_555 1_555
Dy2B O2 1_555 1_555
O1B N1B 1_555 1_555
O3B Dy1 1_555 1_555
O4B Dy2 1_555 1_555
O5B N2B 1_555 1_555
O6B Dy2B 1_555 1_555
O7B Dy1 1_555 1_555
O8B Dy2B 1_555 1_555
N1B C3B 1_555 1_555
O9B Dy2B 1_555 1_555
C1B C2B 1_555 1_555
N2B C4B 1_555 1_555
C2B O4B 1_555 1_555
C3B H1B 1_555 1_555
C4B H2B 1_555 1_555
C5B C6B 1_555 1_555
C6B H3B 1_555 1_555
C7B O7B 1_555 1_555
C8B N2B 1_555 1_555
H4B C8B 1_555 1_555
C9B C1B 1_555 1_555
H5B C9B 1_555 1_555
C10B C1B 1_555 1_555
H6B C10B 1_555 1_555
C11B N1B 1_555 1_555
H7B C11B 1_555 1_555
C12B C4B 1_555 1_555
H8B C12B 1_555 1_555
H10B O8B 1_555 1_555
H11B O8B 1_555 1_555
H12B O3B 1_555 1_555
Dy2L O1B 1_555 1_555
Dy2M O1 1_555 1_555
Dy2N O1A 1_555 1_555
O1L Dy2A 1_555 1_555
O1M Dy2B 1_555 1_555
O1N Dy2 1_555 1_555
Dy2 O3A 1_555 1_555
O3 Dy2B 1_555 1_555
O9 C7 1_555 1_555
C3 C9 1_555 1_555
C5 C7 1_555 1_555
C5 C12 1_555 1_555
C6 C8 1_555 1_555
C10 C11 1_555 1_555
Dy2A O3A 1_555 1_555
Dy2A O3B 1_555 1_555
O4A Dy2B 1_555 1_555
O9A C7A 1_555 1_555
C3A C9A 1_555 1_555
C5A C7A 1_555 1_555
C5A C12A 1_555 1_555
C6A C8A 1_555 1_555
C10A C11A 1_555 1_555
Dy2B O3B 1_555 1_555
O6B C2B 1_555 1_555
O9B C7B 1_555 1_555
C3B C9B 1_555 1_555
C5B C7B 1_555 1_555
C5B C12B 1_555 1_555
C6B C8B 1_555 1_555
C10B C11B 1_555 1_555

#END
