
#######################################################################
#
#                 Cambridge Crystallographic Data Centre
#                                CCDC 
#
#######################################################################
#
# If this CIF has been generated from an entry in the Cambridge 
# Structural Database, then it will include bibliographic, chemical, 
# crystal, experimental, refinement or atomic coordinate data resulting 
# from the CCDC's data processing and validation procedures.
#
#######################################################################

data_CITBEO
_symmetry_cell_setting           triclinic
_symmetry_space_group_name_H-M   'P -1'
_symmetry_Int_Tables_number      2
_space_group_name_Hall           '-P 1'
loop_
_symmetry_equiv_pos_site_id
_symmetry_equiv_pos_as_xyz
1 x,y,z
2 -x,-y,-z
_cell_length_a                   12.729(2)
_cell_length_b                   12.816(2)
_cell_length_c                   12.836(2)
_cell_angle_alpha                62.207(3)
_cell_angle_beta                 68.372(3)
_cell_angle_gamma                89.880(3)
_cell_volume                     1684.92
loop_
_atom_site_label
_atom_site_type_symbol
_atom_site_fract_x
_atom_site_fract_y
_atom_site_fract_z
Cu1 Cu 0.72191(5) 0.01190(5) 0.24545(6)
O1 O 0.7306(3) -0.1478(3) 0.2663(3)
N1 N 0.7993(4) 0.0734(3) 0.0552(4)
C1 C 0.8624(5) 0.5737(6) 0.0782(6)
O2 O 0.5328(3) -0.0132(4) 0.2707(4)
N2 N 0.3359(3) 0.0516(3) 0.5664(4)
C2 C 0.8677(5) 0.4534(5) 0.1353(6)
H1 H 0.9124 0.4250 0.1821
O3 O 0.8881(4) 0.2084(4) 0.2120(5)
N3 N 0.4039(5) 0.1657(4) 0.4738(4)
C3 C 0.7434(7) 0.5423(6) -0.0080(6)
O4 O 0.7173(3) 0.1751(3) 0.2122(3)
N4 N 0.7928(4) 0.1847(4) -0.0367(4)
C4 C 0.8012(6) 0.6210(5) 0.0059(6)
H2 H 0.7988 0.7025 -0.0319
O5 O 0.6343(14) 0.5220(9) -0.1058(14)
N5 N 0.6737(9) 0.5888(7) -0.0834(9)
C5 C 0.7022(5) -0.5685(5) 0.4557(6)
O6 O 0.6627(6) 0.6904(5) -0.1222(7)
N6 N 0.9243(6) 0.6550(6) 0.0987(7)
C6 C 0.7428(6) 0.4188(5) 0.0512(6)
H3 H 0.7001 0.3672 0.0421
O7 O 0.9810(6) 0.6124(7) 0.1604(8)
N7 N 0.7392(6) -0.6784(5) 0.5301(6)
C7 C 0.9797(5) 0.1112(5) -0.4961(5)
H4 H 1.0086 0.1827 -0.4986
H5 H 0.9004 0.1114 -0.4862
O8 O 0.9109(5) 0.7579(5) 0.0581(6)
N8 N 0.5091(5) -0.4831(5) 0.2885(5)
C8 C 0.8058(5) 0.3758(5) 0.1220(5)
O9 O 0.4620(6) -0.3997(5) 0.2532(7)
N9 N 0.9600(4) 0.0676(4) -0.2283(4)
H6 H 1.0333 0.0954 -0.2696
C9 C 0.7663(5) -0.2338(5) 0.3351(5)
O10 O 0.4942(7) -0.5697(5) 0.2806(7)
N10 N 0.8952(3) 0.0920(4) -0.1322(4)
C10 C 0.7136(4) -0.3563(4) 0.3659(5)
O11 O 0.7976(7) -0.6723(5) 0.5831(7)
N11 N 0.3695(4) 0.0549(4) 0.2814(4)
H7 H 0.3156 0.0688 0.2543
C11 C 0.4198(5) 0.1765(5) 0.3633(5)
H8 H 0.4627 0.2447 0.2835
O12 O 0.7103(5) -0.7697(4) 0.5340(6)
N12 N 0.3665(3) 0.0771(3) 0.3783(4)
C12 C 0.5147(6) -0.0988(5) 0.1082(5)
H9 H 0.4821 -0.1750 0.1889
H10 H 0.5949 -0.0756 0.0892
O13 O 0.8372(3) -0.2291(3) 0.3793(4)
C13 C 0.4907(5) 0.1155(5) -0.0013(5)
H11 H 0.4411 0.1696 0.0125
H12 H 0.5692 0.1513 -0.0259
O14 O 0.8064(3) -0.0542(4) -0.1900(3)
C14 C 0.8060(6) 0.2412(5) 0.1881(5)
C15 C 0.7480(5) -0.4600(5) 0.4361(5)
H13 H 0.8009 -0.4562 0.4691
C16 C 0.6243(5) -0.5798(5) 0.4091(5)
H14 H 0.5949 -0.6538 0.4230
C17 C 0.9476(5) -0.1147(5) -0.3773(5)
H15 H 0.8668 -0.1251 -0.3619
H16 H 0.9564 -0.1832 -0.3063
C18 C 0.5922(5) -0.4756(5) 0.3408(5)
C19 C 0.8603(4) 0.0207(4) -0.0045(5)
H17 H 0.8771 -0.0550 0.0355
C20 C 0.3166(4) 0.0010(4) 0.5058(5)
H18 H 0.2743 -0.0765 0.5454
C21 C 0.6352(5) -0.3650(5) 0.3191(5)
H19 H 0.6109 -0.2966 0.2728
C22 C 0.4585(4) 0.0109(4) 0.2299(5)
C23 C 0.9062(4) -0.0010(5) -0.2572(5)
C24 C 0.4518(5) -0.0064(5) 0.1241(5)
H20 H 0.3702 -0.0357 0.1501
C25 C 0.9832(4) -0.0005(5) -0.3807(5)
H21 H 1.0626 0.0046 -0.3880
C26 C 0.8503(5) 0.1912(5) -0.1474(5)
H22 H 0.8594 0.2557 -0.2269
N1A N 1.2007(4) -0.0734(3) -1.0552(4)
N4A N 1.2072(4) -0.1847(4) -0.9633(4)
C7A C 1.0203(5) -0.1112(5) -0.5039(5)
H4A H 0.9914 -0.1827 -0.5014
H5A H 1.0996 -0.1114 -0.5138
N9A N 1.0400(4) -0.0676(4) -0.7717(4)
H6A H 0.9667 -0.0954 -0.7304
N10A N 1.1048(3) -0.0920(4) -0.8678(4)
O14A O 1.1936(3) 0.0542(4) -0.8100(3)
C17A C 1.0524(5) 0.1147(5) -0.6227(5)
H15A H 1.1332 0.1251 -0.6381
H16A H 1.0436 0.1832 -0.6937
C19A C 1.1397(4) -0.0207(4) -0.9955(5)
H17A H 1.1229 0.0550 -1.0355
C23A C 1.0938(4) 0.0010(5) -0.7428(5)
C25A C 1.0168(4) 0.0005(5) -0.6193(5)
H21A H 0.9374 -0.0046 -0.6120
C26A C 1.1497(5) -0.1912(5) -0.8526(5)
H22A H 1.1406 -0.2557 -0.7731
O2A O 0.4672(3) 0.0132(4) -0.2707(4)
C12A C 0.4853(6) 0.0988(5) -0.1082(5)
H9A H 0.5179 0.1750 -0.1889
H10A H 0.4051 0.0756 -0.0892
C13A C 0.5093(5) -0.1155(5) 0.0013(5)
H11A H 0.5589 -0.1696 -0.0125
H12A H 0.4308 -0.1513 0.0259
C22A C 0.5415(4) -0.0109(4) -0.2299(5)
C24A C 0.5482(5) 0.0064(5) -0.1241(5)
H20A H 0.6298 0.0357 -0.1501
N2A N 0.6641(3) -0.0516(3) -0.5664(4)
N3A N 0.5961(5) -0.1657(4) -0.4738(4)
N11A N 0.6305(4) -0.0549(4) -0.2814(4)
H7A H 0.6844 -0.0688 -0.2543
C11A C 0.5802(5) -0.1765(5) -0.3633(5)
H8A H 0.5373 -0.2447 -0.2835
N12A N 0.6335(3) -0.0771(3) -0.3783(4)
C20A C 0.6834(4) -0.0010(4) -0.5058(5)
H18A H 0.7257 0.0765 -0.5454
Cu1A Cu 0.27809(5) -0.01190(5) -0.24545(6)
O1A O 0.2694(3) 0.1478(3) -0.2663(3)
C1A C 0.1376(5) -0.5737(6) -0.0782(6)
C2A C 0.1323(5) -0.4534(5) -0.1353(6)
H1A H 0.0876 -0.4250 -0.1821
O3A O 0.1119(4) -0.2084(4) -0.2120(5)
C3A C 0.2566(7) -0.5423(6) 0.0080(6)
O4A O 0.2827(3) -0.1751(3) -0.2122(3)
C4A C 0.1988(6) -0.6210(5) -0.0059(6)
H2A H 0.2012 -0.7025 0.0319
O5A O 0.3657(14) -0.5220(9) 0.1058(14)
N5A N 0.3263(9) -0.5888(7) 0.0834(9)
C5A C 0.2978(5) 0.5685(5) -0.4557(6)
O6A O 0.3373(6) -0.6904(5) 0.1222(7)
N6A N 0.0757(6) -0.6550(6) -0.0987(7)
C6A C 0.2572(6) -0.4188(5) -0.0512(6)
H3A H 0.2999 -0.3672 -0.0421
O7A O 0.0190(6) -0.6124(7) -0.1604(8)
N7A N 0.2608(6) 0.6784(5) -0.5301(6)
O8A O 0.0891(5) -0.7579(5) -0.0581(6)
N8A N 0.4909(5) 0.4831(5) -0.2885(5)
C8A C 0.1942(5) -0.3758(5) -0.1220(5)
O9A O 0.5380(6) 0.3997(5) -0.2532(7)
C9A C 0.2337(5) 0.2338(5) -0.3351(5)
O10A O 0.5058(7) 0.5697(5) -0.2806(7)
C10A C 0.2864(4) 0.3563(4) -0.3659(5)
O11A O 0.2024(7) 0.6723(5) -0.5831(7)
O12A O 0.2897(5) 0.7697(4) -0.5340(6)
O13A O 0.1628(3) 0.2291(3) -0.3793(4)
C14A C 0.1940(6) -0.2412(5) -0.1881(5)
C15A C 0.2520(5) 0.4600(5) -0.4361(5)
H13A H 0.1991 0.4562 -0.4691
C16A C 0.3757(5) 0.5798(5) -0.4091(5)
H14A H 0.4051 0.6538 -0.4230
C18A C 0.4078(5) 0.4756(5) -0.3408(5)
C21A C 0.3648(5) 0.3650(5) -0.3191(5)
H19A H 0.3891 0.2966 -0.2728
Cu1_2 Cu 0.72191(5) 0.01190(5) -0.75455(6)
Cu1A_2 Cu 0.27809(5) -0.01190(5) 0.75455(6)
Cu1A_3 Cu 1.27809(5) -0.01190(5) -1.24545(6)
N1A_2 N 0.2007(4) -0.0734(3) -0.0552(4)
N2_2 N 0.3359(3) 0.0516(3) -0.4336(4)
N2A_2 N 0.6641(3) -0.0516(3) 0.4336(4)
loop_
_geom_bond_atom_site_label_1
_geom_bond_atom_site_label_2
_geom_bond_site_symmetry_1
_geom_bond_site_symmetry_2
Cu1 O1 1_555 1_555
O1 C9 1_555 1_555
N1 Cu1 1_555 1_555
C1 C2 1_555 1_555
O2 Cu1 1_555 1_555
N2 N3 1_555 1_555
C2 H1 1_555 1_555
O3 C14 1_555 1_555
N3 C11 1_555 1_555
C3 C4 1_555 1_555
O4 Cu1 1_555 1_555
N4 N1 1_555 1_555
C4 C1 1_555 1_555
H2 C4 1_555 1_555
O5 N5 1_555 1_555
N5 C3 1_555 1_555
C5 N7 1_555 1_555
O6 N5 1_555 1_555
N6 C1 1_555 1_555
C6 C3 1_555 1_555
H3 C6 1_555 1_555
O7 N6 1_555 1_555
N7 O11 1_555 1_555
C7 H4 1_555 1_555
H5 C7 1_555 1_555
O8 N6 1_555 1_555
N8 O9 1_555 1_555
C8 C2 1_555 1_555
N9 H6 1_555 1_555
C9 C10 1_555 1_555
O10 N8 1_555 1_555
N10 N9 1_555 1_555
C10 C15 1_555 1_555
N11 H7 1_555 1_555
C11 H8 1_555 1_555
O12 N7 1_555 1_555
N12 N11 1_555 1_555
C12 H9 1_555 1_555
H10 C12 1_555 1_555
O13 C9 1_555 1_555
C13 H11 1_555 1_555
H12 C13 1_555 1_555
O14 C23 1_555 1_555
C14 O4 1_555 1_555
C15 C5 1_555 1_555
H13 C15 1_555 1_555
C16 C5 1_555 1_555
H14 C16 1_555 1_555
C17 H15 1_555 1_555
H16 C17 1_555 1_555
C18 N8 1_555 1_555
C19 N1 1_555 1_555
H17 C19 1_555 1_555
C20 N2 1_555 1_555
H18 C20 1_555 1_555
C21 C10 1_555 1_555
H19 C21 1_555 1_555
C22 O2 1_555 1_555
C23 N9 1_555 1_555
C24 C12 1_555 1_555
H20 C24 1_555 1_555
C25 C7 1_555 1_555
H21 C25 1_555 1_555
C26 N4 1_555 1_555
H22 C26 1_555 1_555
N1A N4A 1_555 1_555
N4A C26A 1_555 1_555
C7A C17 1_555 1_555
H4A C7A 1_555 1_555
H5A C7A 1_555 1_555
N9A H6A 1_555 1_555
N10A N9A 1_555 1_555
O14A C23A 1_555 1_555
C17A C7 1_555 1_555
H15A C17A 1_555 1_555
H16A C17A 1_555 1_555
C19A N1A 1_555 1_555
H17A C19A 1_555 1_555
C23A N9A 1_555 1_555
C25A C7A 1_555 1_555
H21A C25A 1_555 1_555
C26A N10A 1_555 1_555
H22A C26A 1_555 1_555
O2A C22A 1_555 1_555
C12A C13 1_555 1_555
H9A C12A 1_555 1_555
H10A C12A 1_555 1_555
C13A C12 1_555 1_555
H11A C13A 1_555 1_555
H12A C13A 1_555 1_555
C22A C24A 1_555 1_555
C24A C12A 1_555 1_555
H20A C24A 1_555 1_555
N2A N3A 1_555 1_555
N3A C11A 1_555 1_555
N11A C22A 1_555 1_555
H7A N11A 1_555 1_555
C11A H8A 1_555 1_555
N12A N11A 1_555 1_555
C20A N2A 1_555 1_555
H18A C20A 1_555 1_555
Cu1A O2A 1_555 1_555
O1A Cu1A 1_555 1_555
C1A C2A 1_555 1_555
C2A H1A 1_555 1_555
O3A C14A 1_555 1_555
C3A C4A 1_555 1_555
O4A Cu1A 1_555 1_555
C4A C1A 1_555 1_555
H2A C4A 1_555 1_555
O5A N5A 1_555 1_555
N5A C3A 1_555 1_555
C5A N7A 1_555 1_555
O6A N5A 1_555 1_555
N6A C1A 1_555 1_555
C6A C3A 1_555 1_555
H3A C6A 1_555 1_555
O7A N6A 1_555 1_555
N7A O11A 1_555 1_555
O8A N6A 1_555 1_555
N8A O9A 1_555 1_555
C8A C2A 1_555 1_555
C9A O1A 1_555 1_555
O10A N8A 1_555 1_555
C10A C9A 1_555 1_555
O12A N7A 1_555 1_555
O13A C9A 1_555 1_555
C14A O4A 1_555 1_555
C15A C5A 1_555 1_555
H13A C15A 1_555 1_555
C16A C5A 1_555 1_555
H14A C16A 1_555 1_555
C18A N8A 1_555 1_555
C21A C10A 1_555 1_555
H19A C21A 1_555 1_555
Cu1_2 N2A 1_555 1_555
Cu1A_2 N2 1_555 1_555
Cu1A_3 N1A 1_555 1_555
N1A_2 Cu1A 1_555 1_555
N2_2 Cu1A 1_555 1_555
N2A_2 Cu1 1_555 1_555
C6 C8 1_555 1_555
C8 C14 1_555 1_555
N10 C19 1_555 1_555
N10 C26 1_555 1_555
N11 C22 1_555 1_555
C11 N12 1_555 1_555
N12 C20 1_555 1_555
C13 C24 1_555 1_555
C16 C18 1_555 1_555
C17 C25 1_555 1_555
C18 C21 1_555 1_555
C22 C24 1_555 1_555
C23 C25 1_555 1_555
N10A C19A 1_555 1_555
C17A C25A 1_555 1_555
C23A C25A 1_555 1_555
C13A C24A 1_555 1_555
C11A N12A 1_555 1_555
N12A C20A 1_555 1_555
C6A C8A 1_555 1_555
C8A C14A 1_555 1_555
C10A C15A 1_555 1_555
C16A C18A 1_555 1_555
C18A C21A 1_555 1_555

#END
