
#######################################################################
#
#                 Cambridge Crystallographic Data Centre
#                                CCDC 
#
#######################################################################
#
# If this CIF has been generated from an entry in the Cambridge 
# Structural Database, then it will include bibliographic, chemical, 
# crystal, experimental, refinement or atomic coordinate data resulting 
# from the CCDC's data processing and validation procedures.
#
#######################################################################

data_CITDEO
_symmetry_cell_setting           triclinic
_symmetry_space_group_name_H-M   'P -1'
_symmetry_Int_Tables_number      2
_space_group_name_Hall           '-P 1'
loop_
_symmetry_equiv_pos_site_id
_symmetry_equiv_pos_as_xyz
1 x,y,z
2 -x,-y,-z
_cell_length_a                   5.696(2)
_cell_length_b                   7.898(2)
_cell_length_c                   11.900(4)
_cell_angle_alpha                90.86(3)
_cell_angle_beta                 124.48(2)
_cell_angle_gamma                121.00(2)
_cell_volume                     340.804
loop_
_atom_site_label
_atom_site_type_symbol
_atom_site_fract_x
_atom_site_fract_y
_atom_site_fract_z
Cd1 Cd 0.00000 1.00000 1.00000
O1 O -0.53295 0.69819 0.93910
O2 O -1.71064 0.11767 0.24705
O3 O -1.39906 0.00811 0.32123
O4 O -0.18303 1.20818 0.97156
N1 N -0.77573 0.53953 0.80031
C1 C -1.08460 0.50880 0.69256
C2 C -1.32200 0.35999 0.54614
C3 C -1.24158 0.24328 0.50788
C4 C -0.93331 0.26838 0.62401
C5 C -0.70350 0.41683 0.76965
C6 C -1.46904 0.10431 0.34625
H1 H -1.14427 0.57653 0.72136
H2 H -1.55633 0.31415 0.46274
H3 H -0.91860 0.17794 0.56364
H4 H -0.48583 0.45745 0.83712
H5 H -0.37983 1.11351 0.83627
H6 H -0.26538 1.25536 1.04959
O1A O 0.53295 1.30181 1.06090
O2A O 1.71064 1.88233 1.75295
O3A O 1.39906 1.99189 1.67877
N1A N 0.77573 1.46047 1.19969
C1A C 1.08460 1.49120 1.30744
C2A C 1.32200 1.64001 1.45386
C3A C 1.24158 1.75672 1.49212
C4A C 0.93331 1.73162 1.37599
C5A C 0.70350 1.58317 1.23035
C6A C 1.46904 1.89569 1.65375
H1A H 1.14427 1.42347 1.27864
H2A H 1.55633 1.68585 1.53726
H3A H 0.91860 1.82206 1.43636
H4A H 0.48583 1.54255 1.16288
O4A O 0.18303 0.79182 1.02844
H5A H 0.37983 0.88649 1.16373
H6A H 0.26538 0.74464 0.95041
O2_2 O 0.28936 1.11767 1.24705
O2A_2 O -0.28936 0.88233 0.75295
Cd1_2 Cd -2.00000 0.00000 0.00000
Cd1_3 Cd 2.00000 2.00000 2.00000
loop_
_geom_bond_atom_site_label_1
_geom_bond_atom_site_label_2
_geom_bond_site_symmetry_1
_geom_bond_site_symmetry_2
Cd1 O1 1_555 1_555
O1 N1 1_555 1_555
O2 C6 1_555 1_555
O3 C6 1_555 1_555
O4 Cd1 1_555 1_555
N1 C1 1_555 1_555
C1 C2 1_555 1_555
C2 C3 1_555 1_555
C3 C4 1_555 1_555
C4 C5 1_555 1_555
C5 N1 1_555 1_555
C6 C3 1_555 1_555
H1 C1 1_555 1_555
H2 C2 1_555 1_555
H3 C4 1_555 1_555
H4 C5 1_555 1_555
H5 O4 1_555 1_555
H6 O4 1_555 1_555
O1A Cd1 1_555 1_555
O2A C6A 1_555 1_555
O3A C6A 1_555 1_555
N1A O1A 1_555 1_555
C1A N1A 1_555 1_555
C2A C1A 1_555 1_555
C3A C2A 1_555 1_555
C4A C3A 1_555 1_555
C5A N1A 1_555 1_555
C6A C3A 1_555 1_555
H1A C1A 1_555 1_555
H2A C2A 1_555 1_555
H3A C4A 1_555 1_555
H4A C5A 1_555 1_555
O4A Cd1 1_555 1_555
H5A O4A 1_555 1_555
H6A O4A 1_555 1_555
O2_2 Cd1 1_555 1_555
O2A_2 Cd1 1_555 1_555
Cd1_2 O2 1_555 1_555
Cd1_3 O2A 1_555 1_555
C4A C5A 1_555 1_555

#END
