
#######################################################################
#
#                 Cambridge Crystallographic Data Centre
#                                CCDC 
#
#######################################################################
#
# If this CIF has been generated from an entry in the Cambridge 
# Structural Database, then it will include bibliographic, chemical, 
# crystal, experimental, refinement or atomic coordinate data resulting 
# from the CCDC's data processing and validation procedures.
#
#######################################################################

data_CITGOD
_symmetry_cell_setting           triclinic
_symmetry_space_group_name_H-M   'P -1'
_symmetry_Int_Tables_number      2
_space_group_name_Hall           '-P 1'
loop_
_symmetry_equiv_pos_site_id
_symmetry_equiv_pos_as_xyz
1 x,y,z
2 -x,-y,-z
_cell_length_a                   5.905(5)
_cell_length_b                   17.927(5)
_cell_length_c                   22.034(5)
_cell_angle_alpha                106.479(5)
_cell_angle_beta                 97.162(5)
_cell_angle_gamma                99.169(5)
_cell_volume                     2172.26
loop_
_atom_site_label
_atom_site_type_symbol
_atom_site_fract_x
_atom_site_fract_y
_atom_site_fract_z
Hg1 Hg 0.43395(3) 0.807720(13) 0.504426(10)
S1 S 0.6782(3) 0.92630(9) 0.50150(9)
S2 S 0.1918(3) 0.68277(9) 0.49452(8)
N1 N -0.2142(9) 0.7338(4) 0.5295(3)
C1 C -0.0505(10) 0.7144(3) 0.5143(3)
C2 C 0.8908(10) 0.8850(3) 0.4711(3)
C3 C 0.0560(11) 0.9414(4) 0.6658(3)
H1 H -0.0299 0.9804 0.6649
N2 N 1.0423(9) 0.8593(3) 0.4507(3)
C4 C 0.0324(10) 0.9001(4) 0.7085(3)
H2 H -0.0711 0.9098 0.7370
C5 C 0.8137(9) 0.5622(3) 0.6426(3)
C6 C 0.3169(9) 0.8293(3) 0.6659(2)
N3 N 0.3357(8) 0.8687(2) 0.6225(2)
C7 C 0.9638(10) 0.5705(4) 0.7064(3)
H3 H 0.9994 0.5192 0.7053
H4 H 1.1100 0.6069 0.7114
C8 C 0.5040(10) 0.7348(3) 0.7087(3)
H5 H 0.4341 0.7495 0.7446
C9 C 0.4631(9) 0.7707(3) 0.6639(2)
H6 H 0.5345 0.7568 0.6281
C10 C 0.6458(9) 0.6758(3) 0.7069(2)
C11 C 0.8521(10) 0.5998(3) 0.7637(3)
C12 C 0.2090(11) 0.9246(3) 0.6239(3)
H7 H 0.2252 0.9536 0.5952
C13 C 0.9111(11) 0.5823(4) 0.8189(3)
C14 C 0.7406(10) 0.6409(3) 0.6465(2)
H8 H 0.8742 0.6788 0.6446
H9 H 0.6222 0.6330 0.6093
C15 C 0.9547(12) 0.5426(4) 0.5888(3)
H10 H 1.0875 0.5850 0.5970
H11 H 0.8589 0.5365 0.5485
H12 H 1.0065 0.4941 0.5872
C16 C 0.5985(11) 0.4947(3) 0.6277(3)
H13 H 0.6477 0.4451 0.6226
H14 H 0.5005 0.4922 0.5887
H15 H 0.5131 0.5047 0.6625
C17 C 0.8241(13) 0.6152(4) 0.8757(3)
C18 C 1.0864(13) 0.5362(4) 0.8255(3)
N4 N 0.7619(14) 0.6434(4) 0.9226(3)
N5 N 1.2235(13) 0.5007(4) 0.8311(4)
C19 C 0.6976(10) 0.6528(3) 0.7597(3)
H16 H 0.6291 0.6724 0.7951
C20 C 0.1636(10) 0.8441(3) 0.7088(3)
H17 H 0.1504 0.8155 0.7378
Hg1_2 Hg -0.56605(3) 0.807720(13) 0.504426(10)
N1_2 N 0.7858(9) 0.7338(4) 0.5295(3)
Hg2 Hg 1.07833(4) 0.770633(14) 0.311095(11)
S3 S 1.3278(3) 0.89495(10) 0.32402(10)
S4 S 0.8420(3) 0.65474(10) 0.32109(10)
C21 C 0.1716(9) 0.8356(3) -0.0504(2)
C22 C 1.5654(9) 0.8627(3) 0.3043(2)
C23 C -0.0156(11) 0.8762(4) -0.0601(3)
N6 N 1.1323(8) 0.6947(3) 0.1932(2)
C24 C 0.6334(10) 0.6959(3) 0.3519(3)
N7 N 0.2744(11) 0.7493(4) -0.1528(3)
N8 N 1.7326(9) 0.8439(3) 0.2898(3)
N9 N 0.4823(10) 0.7218(3) 0.3715(3)
C25 C 0.5326(10) 0.8618(3) 0.1370(2)
H18 H 0.6789 0.8825 0.1672
H19 H 0.4240 0.8344 0.1570
C26 C 0.2254(9) 0.8976(3) 0.0682(2)
H20 H 0.1002 0.8685 0.0823
H21 H 0.1698 0.9409 0.0571
C27 C 0.4556(9) 0.7973(3) 0.0188(2)
H22 H 0.4877 0.7616 -0.0173
C28 C 0.4359(9) 0.9321(3) 0.1241(2)
C29 C 0.6249(10) 0.9869(3) 0.1067(3)
H23 H 0.7508 1.0099 0.1427
H24 H 0.5607 1.0285 0.0959
H25 H 0.6822 0.9569 0.0705
C30 C 0.2849(9) 0.8435(3) 0.0098(2)
C31 C 1.0197(9) 0.6920(3) 0.1349(2)
C32 C 0.2291(10) 0.7877(4) -0.1073(3)
C33 C 0.7319(9) 0.7506(3) 0.0818(3)
H26 H 0.7507 0.7168 0.0429
C34 C 1.2908(11) 0.6490(4) 0.1946(3)
H27 H 1.3694 0.6513 0.2346
C35 C 0.5726(9) 0.8030(3) 0.0774(2)
C36 C 0.8554(9) 0.7448(3) 0.1346(2)
H28 H 0.8354 0.7766 0.1742
C37 C 0.3521(11) 0.9783(4) 0.1830(3)
H29 H 0.4792 0.9978 0.2189
H30 H 0.2291 0.9441 0.1928
H31 H 0.2948 1.0223 0.1747
N10 N -0.1701(10) 0.9044(4) -0.0684(3)
C38 C 1.3446(11) 0.5989(4) 0.1411(3)
H32 H 1.4559 0.5683 0.1445
C39 C 1.0663(13) 0.6418(4) 0.0789(3)
H33 H 0.9873 0.6393 0.0389
C40 C 1.2294(13) 0.5960(4) 0.0832(3)
H34 H 1.2610 0.5625 0.0458
Hg2_2 Hg 2.07833(4) 0.770633(14) 0.311095(11)
N8_2 N 0.7326(9) 0.8439(3) 0.2898(3)
loop_
_geom_bond_atom_site_label_1
_geom_bond_atom_site_label_2
_geom_bond_site_symmetry_1
_geom_bond_site_symmetry_2
Hg1 S1 1_555 1_555
S1 C2 1_555 1_555
S2 Hg1 1_555 1_555
N1 C1 1_555 1_555
C1 S2 1_555 1_555
C2 N2 1_555 1_555
C3 H1 1_555 1_555
C4 C3 1_555 1_555
H2 C4 1_555 1_555
C5 C7 1_555 1_555
C6 N3 1_555 1_555
N3 Hg1 1_555 1_555
C7 H3 1_555 1_555
H4 C7 1_555 1_555
C8 H5 1_555 1_555
C9 C6 1_555 1_555
H6 C9 1_555 1_555
C10 C8 1_555 1_555
C11 C7 1_555 1_555
C12 C3 1_555 1_555
H7 C12 1_555 1_555
C13 C11 1_555 1_555
C14 C5 1_555 1_555
H8 C14 1_555 1_555
H9 C14 1_555 1_555
C15 C5 1_555 1_555
H10 C15 1_555 1_555
H11 C15 1_555 1_555
H12 C15 1_555 1_555
C16 C5 1_555 1_555
H13 C16 1_555 1_555
H14 C16 1_555 1_555
H15 C16 1_555 1_555
C17 C13 1_555 1_555
C18 C13 1_555 1_555
N4 C17 1_555 1_555
N5 C18 1_555 1_555
C19 C10 1_555 1_555
H16 C19 1_555 1_555
C20 C4 1_555 1_555
H17 C20 1_555 1_555
Hg2 S3 1_555 1_555
S3 C22 1_555 1_555
S4 Hg2 1_555 1_555
C21 C23 1_555 1_555
C22 N8 1_555 1_555
C23 N10 1_555 1_555
N6 Hg2 1_555 1_555
C24 S4 1_555 1_555
N7 C32 1_555 1_555
N8 Hg2_2 1_555 1_555
N9 C24 1_555 1_555
C25 H18 1_555 1_555
H19 C25 1_555 1_555
C26 H20 1_555 1_555
H21 C26 1_555 1_555
C27 H22 1_555 1_555
C28 C25 1_555 1_555
C29 C28 1_555 1_555
H23 C29 1_555 1_555
H24 C29 1_555 1_555
H25 C29 1_555 1_555
C30 C21 1_555 1_555
C31 N6 1_555 1_555
C32 C21 1_555 1_555
C33 H26 1_555 1_555
C34 N6 1_555 1_555
H27 C34 1_555 1_555
C35 C25 1_555 1_555
C36 C31 1_555 1_555
H28 C36 1_555 1_555
C37 C28 1_555 1_555
H29 C37 1_555 1_555
H30 C37 1_555 1_555
H31 C37 1_555 1_555
C38 C34 1_555 1_555
H32 C38 1_555 1_555
C39 C31 1_555 1_555
H33 C39 1_555 1_555
C40 C38 1_555 1_555
H34 C40 1_555 1_555
Hg1_2 N1 1_555 1_555
N1_2 Hg1 1_555 1_555
N8_2 Hg2 1_555 1_555
C6 C20 1_555 1_555
N3 C12 1_555 1_555
C8 C9 1_555 1_555
C10 C14 1_555 1_555
C11 C19 1_555 1_555
C26 C28 1_555 1_555
C26 C30 1_555 1_555
C27 C30 1_555 1_555
C27 C35 1_555 1_555
C33 C35 1_555 1_555
C33 C36 1_555 1_555
C39 C40 1_555 1_555

#END
