
#######################################################################
#
#                 Cambridge Crystallographic Data Centre
#                                CCDC 
#
#######################################################################
#
# If this CIF has been generated from an entry in the Cambridge 
# Structural Database, then it will include bibliographic, chemical, 
# crystal, experimental, refinement or atomic coordinate data resulting 
# from the CCDC's data processing and validation procedures.
#
#######################################################################

data_CITNOK
_symmetry_cell_setting           monoclinic
_symmetry_space_group_name_H-M   'C 2'
_symmetry_Int_Tables_number      5
_space_group_name_Hall           'C 2y'
loop_
_symmetry_equiv_pos_site_id
_symmetry_equiv_pos_as_xyz
1 x,y,z
2 -x,y,-z
3 1/2+x,1/2+y,z
4 1/2-x,1/2+y,-z
_cell_length_a                   24.5378(9)
_cell_length_b                   24.9529(11)
_cell_length_c                   19.2940(7)
_cell_angle_alpha                90
_cell_angle_beta                 121.6010(10)
_cell_angle_gamma                90
_cell_volume                     10061.8
loop_
_atom_site_label
_atom_site_type_symbol
_atom_site_fract_x
_atom_site_fract_y
_atom_site_fract_z
Ni1 Ni 0.5000 1.00028(3) 0.5000
Cl1 Cl 0.41196(8) 1.00049(6) 0.52556(8)
N1 N 0.5496(2) 0.9413(2) 0.5920(3)
C1 C 0.6114(3) 0.9426(3) 0.6453(4)
H1 H 0.6355 0.9694 0.6380
C2 C 0.6438(3) 0.9094(3) 0.7093(3)
H2 H 0.6886 0.9131 0.7458
C3 C 0.6090(3) 0.8688(3) 0.7207(4)
C4 C 0.5467(4) 0.8622(3) 0.6619(5)
H3 H 0.5236 0.8324 0.6642
C5 C 0.5169(4) 0.8979(3) 0.5996(5)
H4 H 0.4727 0.8933 0.5603
C6 C 0.6411(4) 0.8381(4) 0.7907(4)
C7 C 0.6662(4) 0.8085(3) 0.8515(4)
C8 C 0.6986(3) 0.7786(3) 0.9257(4)
C9 C 0.6761(3) 0.7320(3) 0.9376(4)
C10 C 0.6112(4) 0.7027(4) 0.8782(5)
O1 O 0.5762(3) 0.7155(3) 0.8143(3)
N2 N 0.6170(4) 0.6545(3) 0.9244(5)
C11 C 0.6704(4) 0.6526(3) 0.9979(4)
O2 O 0.6817(4) 0.6193(3) 1.0490(4)
C12 C 0.7072(3) 0.6992(3) 1.0071(4)
C13 C 0.7653(4) 0.7119(3) 1.0681(5)
C14 C 0.7929(4) 0.7648(4) 1.0615(5)
C15 C 0.7599(4) 0.7932(3) 0.9899(4)
C16 C 0.8579(4) 0.7872(5) 1.1170(7)
O3 O 0.9007(3) 0.7743(3) 1.1802(4)
N3 N 0.8578(3) 0.8314(3) 1.0659(4)
C17 C 0.8054(5) 0.8370(3) 0.9967(4)
O4 O 0.7886(4) 0.8732(3) 0.9481(4)
C18 C 0.5591(5) 0.6172(4) 0.8797(6)
H5 H 0.5326 0.6405 0.8312
C19 C 0.5198(6) 0.6256(9) 0.9211(8)
H6 H 0.4858 0.5981 0.9024
H7 H 0.4997 0.6615 0.9079
C20 C 0.5683(6) 0.6203(7) 1.0142(7)
H8 H 0.6089 0.6061 1.0236
H9 H 0.5511 0.5957 1.0377
H10 H 0.5755 0.6555 1.0398
C21 C 0.5710(5) 0.5720(5) 0.8358(8)
H11 H 0.6104 0.5794 0.8361
H12 H 0.5349 0.5697 0.7795
H13 H 0.5755 0.5380 0.8637
C22 C 0.9073(6) 0.8763(7) 1.1036(8)
H14 H 0.8817 0.9060 1.0657
C23 C 0.9418(17) 0.8564(11) 1.061(3)
H15 H 0.9098 0.8584 1.0015
H16 H 0.9747 0.8838 1.0717
C24 C 0.9737(8) 0.8040(15) 1.074(2)
H17 H 0.9591 0.7868 1.0215
H18 H 0.9631 0.7812 1.1067
H19 H 1.0202 0.8093 1.1030
C25 C 0.9160(7) 0.8991(6) 1.1830(9)
H20 H 0.9242 0.9377 1.1856
H21 H 0.9523 0.8813 1.2297
H22 H 0.8770 0.8928 1.1840
C26 C 0.8020(3) 0.6822(3) 1.1410(4)
C27 C 0.8343(3) 0.6582(3) 1.2056(4)
C28 C 0.8743(3) 0.6234(3) 1.2726(3)
C29 C 0.8694(3) 0.6267(3) 1.3437(3)
H23 H 0.8404 0.6510 1.3457
C30 C 0.9077(4) 0.5940(2) 1.4084(3)
H24 H 0.9045 0.5956 1.4553
N4 N 0.9503(3) 0.5593(2) 1.4076(2)
C31 C 0.9525(4) 0.5588(3) 1.3425(4)
H25 H 0.9820 0.5345 1.3417
C32 C 0.9165(4) 0.5898(3) 1.2732(3)
H26 H 0.9218 0.5871 1.2280
Cl1A Cl 0.58804(8) 1.00049(6) 0.47444(8)
N1A N 0.4504(2) 0.9413(2) 0.4080(3)
C1A C 0.3886(3) 0.9426(3) 0.3547(4)
H1A H 0.3645 0.9694 0.3620
C2A C 0.3562(3) 0.9094(3) 0.2907(3)
H2A H 0.3114 0.9131 0.2542
C3A C 0.3910(3) 0.8688(3) 0.2793(4)
C4A C 0.4533(4) 0.8622(3) 0.3381(5)
H3A H 0.4764 0.8324 0.3358
C5A C 0.4831(4) 0.8979(3) 0.4004(5)
H4A H 0.5273 0.8933 0.4397
C6A C 0.3589(4) 0.8381(4) 0.2093(4)
C7A C 0.3338(4) 0.8085(3) 0.1485(4)
C8A C 0.3014(3) 0.7786(3) 0.0743(4)
C9A C 0.3239(3) 0.7320(3) 0.0624(4)
C10A C 0.3888(4) 0.7027(4) 0.1218(5)
O1A O 0.4238(3) 0.7155(3) 0.1857(3)
N2A N 0.3830(4) 0.6545(3) 0.0756(5)
C11A C 0.3296(4) 0.6526(3) 0.0021(4)
O2A O 0.3183(4) 0.6193(3) -0.0490(4)
C12A C 0.2928(3) 0.6992(3) -0.0071(4)
C13A C 0.2347(4) 0.7119(3) -0.0681(5)
C14A C 0.2071(4) 0.7648(4) -0.0615(5)
C15A C 0.2401(4) 0.7932(3) 0.0101(4)
C16A C 0.1421(4) 0.7872(5) -0.1170(7)
O3A O 0.0993(3) 0.7743(3) -0.1802(4)
N3A N 0.1422(3) 0.8314(3) -0.0659(4)
C17A C 0.1946(5) 0.8370(3) 0.0033(4)
O4A O 0.2114(4) 0.8732(3) 0.0519(4)
C18A C 0.4409(5) 0.6172(4) 0.1203(6)
H5A H 0.4674 0.6405 0.1688
C19A C 0.4802(6) 0.6256(9) 0.0789(8)
H6A H 0.5142 0.5981 0.0976
H7A H 0.5003 0.6615 0.0921
C20A C 0.4317(6) 0.6203(7) -0.0142(7)
H8A H 0.3911 0.6061 -0.0236
H9A H 0.4489 0.5957 -0.0377
H10A H 0.4245 0.6555 -0.0398
C21A C 0.4290(5) 0.5720(5) 0.1642(8)
H11A H 0.3896 0.5794 0.1639
H12A H 0.4651 0.5697 0.2205
H13A H 0.4245 0.5380 0.1363
C22A C 0.0927(6) 0.8763(7) -0.1036(8)
H14A H 0.1183 0.9060 -0.0657
C23A C 0.0582(17) 0.8564(11) -0.061(3)
H15A H 0.0902 0.8584 -0.0015
H16A H 0.0253 0.8838 -0.0717
C24A C 0.0263(8) 0.8040(15) -0.074(2)
H17A H 0.0409 0.7868 -0.0215
H18A H 0.0369 0.7812 -0.1067
H19A H -0.0202 0.8093 -0.1030
C25A C 0.0840(7) 0.8991(6) -0.1830(9)
H20A H 0.0758 0.9377 -0.1856
H21A H 0.0477 0.8813 -0.2297
H22A H 0.1230 0.8928 -0.1840
C26A C 0.1980(3) 0.6822(3) -0.1410(4)
C27A C 0.1657(3) 0.6582(3) -0.2056(4)
C28A C 0.1257(3) 0.6234(3) -0.2726(3)
C29A C 0.1306(3) 0.6267(3) -0.3437(3)
H23A H 0.1596 0.6510 -0.3457
C30A C 0.0923(4) 0.5940(2) -0.4084(3)
H24A H 0.0955 0.5956 -0.4553
N4A N 0.0497(3) 0.5593(2) -0.4076(2)
C31A C 0.0475(4) 0.5588(3) -0.3425(4)
H25A H 0.0180 0.5345 -0.3417
C32A C 0.0835(4) 0.5898(3) -0.2732(3)
H26A H 0.0782 0.5871 -0.2280
Ni1B Ni 0.0000 0.50028(3) -0.5000
Ni1B_2 Ni 1.0000 0.50028(3) 1.5000
N4B N 0.4503(3) 1.0593(2) 0.4076(2)
N4C N 0.5497(3) 1.0593(2) 0.5924(2)
Ni2 Ni 0.5000 -0.17383(3) 0.0000
Cl2 Cl 0.41408(8) -0.17428(6) 0.02831(8)
N5 N 0.5490(2) -0.11354(19) 0.0893(3)
C35 C 0.6137(3) -0.1146(3) 0.1369(3)
H32 H 0.6370 -0.1398 0.1256
C36 C 0.6473(4) -0.0787(3) 0.2035(4)
H33 H 0.6927 -0.0787 0.2350
C37 C 0.6138(3) -0.0450(3) 0.2208(4)
C38 C 0.5489(5) -0.0453(5) 0.1730(8)
H34 H 0.5232 -0.0242 0.1858
C39 C 0.5219(3) -0.0780(3) 0.1040(5)
H35 H 0.4781 -0.0721 0.0644
C40 C 0.6451(3) -0.0092(3) 0.2930(4)
C41 C 0.6713(3) 0.0149(3) 0.3553(4)
C42 C 0.7029(3) 0.0475(2) 0.4244(3)
C43 C 0.7632(3) 0.0374(3) 0.4915(4)
C44 C 0.8066(4) -0.0115(4) 0.5070(5)
O5 O 0.7983(3) -0.0464(3) 0.4576(3)
N6 N 0.8613(3) -0.0031(3) 0.5830(3)
C45 C 0.8535(4) 0.0417(3) 0.6151(4)
O6 O 0.8970(3) 0.0592(3) 0.6842(3)
C46 C 0.7930(3) 0.0680(3) 0.5605(3)
C47 C 0.7658(3) 0.1108(2) 0.5726(3)
C48 C 0.7054(4) 0.1249(3) 0.5033(4)
C49 C 0.6595(4) 0.1703(3) 0.4909(4)
O7 O 0.6703(3) 0.2065(2) 0.5386(3)
N7 N 0.6067(2) 0.1641(2) 0.4137(3)
C50 C 0.6146(4) 0.1192(3) 0.3775(4)
O8 O 0.5709(2) 0.1057(2) 0.3043(3)
C51 C 0.6740(3) 0.0949(3) 0.4321(3)
C52 C 0.9210(4) -0.0350(4) 0.6172(6)
H36 H 0.9484 -0.0213 0.6741
C53 C 0.9598(6) -0.0255(7) 0.5800(8)
H37 H 1.0050 -0.0307 0.6241
H38 H 0.9494 -0.0551 0.5408
C54 C 0.9581(14) 0.0240(12) 0.538(3)
H39 H 0.9887 0.0212 0.5196
H40 H 0.9696 0.0546 0.5746
H41 H 0.9150 0.0293 0.4901
C55 C 0.9110(6) -0.0931(4) 0.6282(9)
H42 H 0.9324 -0.1155 0.6080
H43 H 0.8650 -0.1010 0.5977
H44 H 0.9288 -0.1004 0.6861
C56 C 0.5524(4) 0.2023(3) 0.3744(5)
H45 H 0.5218 0.1887 0.3183
C57 C 0.5753(5) 0.2545(4) 0.3662(6)
H46 H 0.6083 0.2673 0.4212
H47 H 0.5392 0.2802 0.3441
C58 C 0.6036(6) 0.2558(5) 0.3119(9)
H48 H 0.5791 0.2318 0.2654
H49 H 0.6483 0.2440 0.3433
H50 H 0.6015 0.2924 0.2923
C59 C 0.5165(4) 0.2065(3) 0.4179(6)
H51 H 0.4796 0.2304 0.3874
H52 H 0.5448 0.2210 0.4726
H53 H 0.5016 0.1709 0.4220
C60 C 0.7991(4) 0.1439(3) 0.6454(4)
C61 C 0.8282(3) 0.1716(3) 0.7005(4)
C62 C 0.8657(4) 0.2026(3) 0.7729(4)
C63 C 0.9138(4) 0.2384(3) 0.7718(5)
H54 H 0.9182 0.2393 0.7256
C64 C 0.9519(4) 0.2702(3) 0.8383(3)
H55 H 0.9809 0.2945 0.8364
N8 N 0.9491(2) 0.26754(16) 0.9067(3)
C65 C 0.9084(3) 0.2335(2) 0.9081(3)
H56 H 0.9073 0.2311 0.9565
C66 C 0.8665(4) 0.2008(3) 0.8419(4)
H57 H 0.8384 0.1772 0.8469
Cl2A Cl 0.58592(8) -0.17428(6) -0.02831(8)
N5A N 0.4510(2) -0.11354(19) -0.0893(3)
C35A C 0.3863(3) -0.1146(3) -0.1369(3)
H32A H 0.3630 -0.1398 -0.1256
C36A C 0.3527(4) -0.0787(3) -0.2035(4)
H33A H 0.3073 -0.0787 -0.2350
C37A C 0.3862(3) -0.0450(3) -0.2208(4)
C38A C 0.4511(5) -0.0453(5) -0.1730(8)
H34A H 0.4768 -0.0242 -0.1858
C39A C 0.4781(3) -0.0780(3) -0.1040(5)
H35A H 0.5219 -0.0721 -0.0644
C40A C 0.3549(3) -0.0092(3) -0.2930(4)
C41A C 0.3287(3) 0.0149(3) -0.3553(4)
C42A C 0.2971(3) 0.0475(2) -0.4244(3)
C43A C 0.2368(3) 0.0374(3) -0.4915(4)
C44A C 0.1934(4) -0.0115(4) -0.5070(5)
O5A O 0.2017(3) -0.0464(3) -0.4576(3)
N6A N 0.1387(3) -0.0031(3) -0.5830(3)
C45A C 0.1465(4) 0.0417(3) -0.6151(4)
O6A O 0.1030(3) 0.0592(3) -0.6842(3)
C46A C 0.2070(3) 0.0680(3) -0.5605(3)
C47A C 0.2342(3) 0.1108(2) -0.5726(3)
C48A C 0.2946(4) 0.1249(3) -0.5033(4)
C49A C 0.3405(4) 0.1703(3) -0.4909(4)
O7A O 0.3297(3) 0.2065(2) -0.5386(3)
N7A N 0.3933(2) 0.1641(2) -0.4137(3)
C50A C 0.3854(4) 0.1192(3) -0.3775(4)
O8A O 0.4291(2) 0.1057(2) -0.3043(3)
C51A C 0.3260(3) 0.0949(3) -0.4321(3)
C52A C 0.0790(4) -0.0350(4) -0.6172(6)
H36A H 0.0516 -0.0213 -0.6741
C53A C 0.0402(6) -0.0255(7) -0.5800(8)
H37A H -0.0050 -0.0307 -0.6241
H38A H 0.0506 -0.0551 -0.5408
C54A C 0.0419(14) 0.0240(12) -0.538(3)
H39A H 0.0113 0.0212 -0.5196
H40A H 0.0304 0.0546 -0.5746
H41A H 0.0850 0.0293 -0.4901
C55A C 0.0890(6) -0.0931(4) -0.6282(9)
H42A H 0.0676 -0.1155 -0.6080
H43A H 0.1350 -0.1010 -0.5977
H44A H 0.0712 -0.1004 -0.6861
C56A C 0.4476(4) 0.2023(3) -0.3744(5)
H45A H 0.4782 0.1887 -0.3183
C57A C 0.4247(5) 0.2545(4) -0.3662(6)
H46A H 0.3917 0.2673 -0.4212
H47A H 0.4608 0.2802 -0.3441
C58A C 0.3964(6) 0.2558(5) -0.3119(9)
H48A H 0.4209 0.2318 -0.2654
H49A H 0.3517 0.2440 -0.3433
H50A H 0.3985 0.2924 -0.2923
C59A C 0.4835(4) 0.2065(3) -0.4179(6)
H51A H 0.5204 0.2304 -0.3874
H52A H 0.4552 0.2210 -0.4726
H53A H 0.4984 0.1709 -0.4220
C60A C 0.2009(4) 0.1439(3) -0.6454(4)
C61A C 0.1718(3) 0.1716(3) -0.7005(4)
C62A C 0.1343(4) 0.2026(3) -0.7729(4)
C63A C 0.0862(4) 0.2384(3) -0.7718(5)
H54A H 0.0818 0.2393 -0.7256
C64A C 0.0481(4) 0.2702(3) -0.8383(3)
H55A H 0.0191 0.2945 -0.8364
N8A N 0.0509(2) 0.26754(16) -0.9067(3)
C65A C 0.0916(3) 0.2335(2) -0.9081(3)
H56A H 0.0927 0.2311 -0.9565
C66A C 0.1335(4) 0.2008(3) -0.8419(4)
H57A H 0.1616 0.1772 -0.8469
Ni2B Ni 0.0000 0.32617(3) -1.0000
Ni2B_2 Ni 1.0000 0.32617(3) 1.0000
N8B N 0.4491(2) -0.23246(16) -0.0933(3)
N8C N 0.5509(2) -0.23246(16) 0.0933(3)
Cl3 Cl 0.2622(3) 0.8072(2) 0.7206(4)
Cl4 Cl 0.1461(4) 0.7812(2) 0.7100(3)
C67 C 0.1813(4) 0.8028(3) 0.6596(5)
H61 H 0.1729 0.7744 0.6186
Cl5 Cl 0.16547(14) 0.90488(10) 0.69061(18)
Cl6 Cl 0.0769(2) 0.8457(2) 0.5463(2)
C68 C 0.1689(5) 0.8596(3) 0.6124(4)
H62 H 0.1939 0.8701 0.5870
Cl7 Cl 0.2804(3) 1.0224(3) 0.0511(4)
Cl8 Cl 0.39698(17) 0.97030(13) 0.15515(17)
C69 C 0.3223(9) 0.9585(6) 0.0690(11)
H63 H 0.2995 0.9295 0.0798
Cl9 Cl 0.36797(16) 0.99499(14) -0.0267(2)
Cl10 Cl 0.25332(16) 0.9260(3) -0.0914(2)
C70 C 0.3241(8) 0.9461(5) -0.0041(7)
H64 H 0.3516 0.9134 0.0118
Cl11 Cl 0.7482(2) 0.81278(17) 0.4889(3)
Cl12 Cl 0.61730(18) 0.85269(15) 0.36057(19)
C71 C 0.6922(5) 0.8673(5) 0.4506(8)
H65 H 0.7122 0.8987 0.4400
Cl13 Cl 0.74628(15) 0.90982(19) 0.5943(2)
Cl14 Cl 0.64089(19) 0.83251(18) 0.5397(2)
C72 C 0.6738(4) 0.8840(4) 0.5148(6)
H66 H 0.6420 0.9139 0.4913
O9 O 0.8799(3) 0.9499(3) 0.7870(3)
O10 O 0.2414(3) 0.0283(2) 0.2713(4)
C33? C 0.5509(16) 0.5958(10) 0.9485(15)
H27? H 0.5056 0.5865 0.9276
H28? H 0.5650 0.6228 0.9923
C34? C 0.5937(16) 0.5453(11) 0.9803(14)
H29? H 0.6316 0.5528 1.0338
H30? H 0.6070 0.5353 0.9421
H31? H 0.5696 0.5157 0.9850
H58? H 0.9268 0.0488 0.5366
H59? H 0.9459 0.0155 0.4817
H60? H 1.0006 0.0407 0.5661
loop_
_geom_bond_atom_site_label_1
_geom_bond_atom_site_label_2
_geom_bond_site_symmetry_1
_geom_bond_site_symmetry_2
Ni1 Cl1 1_555 1_555
N1 Ni1 1_555 1_555
C1 N1 1_555 1_555
H1 C1 1_555 1_555
C2 C1 1_555 1_555
H2 C2 1_555 1_555
C3 C2 1_555 1_555
C4 C3 1_555 1_555
H3 C4 1_555 1_555
C5 N1 1_555 1_555
H4 C5 1_555 1_555
C6 C3 1_555 1_555
C7 C6 1_555 1_555
C8 C7 1_555 1_555
C9 C8 1_555 1_555
C10 C9 1_555 1_555
O1 C10 1_555 1_555
N2 C10 1_555 1_555
C11 N2 1_555 1_555
O2 C11 1_555 1_555
C12 C9 1_555 1_555
C13 C12 1_555 1_555
C14 C13 1_555 1_555
C15 C8 1_555 1_555
C16 C14 1_555 1_555
O3 C16 1_555 1_555
N3 C16 1_555 1_555
C17 C15 1_555 1_555
O4 C17 1_555 1_555
C18 N2 1_555 1_555
H5 C18 1_555 1_555
C19 C18 1_555 1_555
H6 C19 1_555 1_555
H7 C19 1_555 1_555
C20 C19 1_555 1_555
H8 C20 1_555 1_555
H9 C20 1_555 1_555
H10 C20 1_555 1_555
C21 C18 1_555 1_555
H11 C21 1_555 1_555
H12 C21 1_555 1_555
H13 C21 1_555 1_555
C22 N3 1_555 1_555
H14 C22 1_555 1_555
C23 C22 1_555 1_555
H15 C23 1_555 1_555
H16 C23 1_555 1_555
C24 C23 1_555 1_555
H17 C24 1_555 1_555
H18 C24 1_555 1_555
H19 C24 1_555 1_555
C25 C22 1_555 1_555
H20 C25 1_555 1_555
H21 C25 1_555 1_555
H22 C25 1_555 1_555
C26 C13 1_555 1_555
C27 C26 1_555 1_555
C28 C27 1_555 1_555
C29 C28 1_555 1_555
H23 C29 1_555 1_555
C30 C29 1_555 1_555
H24 C30 1_555 1_555
N4 C30 1_555 1_555
C31 N4 1_555 1_555
H25 C31 1_555 1_555
C32 C28 1_555 1_555
H26 C32 1_555 1_555
Ni2 Cl2 1_555 1_555
N5 Ni2 1_555 1_555
C35 N5 1_555 1_555
H32 C35 1_555 1_555
C36 C35 1_555 1_555
H33 C36 1_555 1_555
C37 C36 1_555 1_555
C38 C37 1_555 1_555
H34 C38 1_555 1_555
C39 N5 1_555 1_555
H35 C39 1_555 1_555
C40 C37 1_555 1_555
C41 C40 1_555 1_555
C42 C41 1_555 1_555
C43 C42 1_555 1_555
C44 C43 1_555 1_555
O5 C44 1_555 1_555
N6 C44 1_555 1_555
C45 N6 1_555 1_555
O6 C45 1_555 1_555
C46 C43 1_555 1_555
C47 C46 1_555 1_555
C48 C47 1_555 1_555
C49 C48 1_555 1_555
O7 C49 1_555 1_555
N7 C49 1_555 1_555
C50 N7 1_555 1_555
O8 C50 1_555 1_555
C51 C42 1_555 1_555
C52 N6 1_555 1_555
H36 C52 1_555 1_555
C53 C52 1_555 1_555
H37 C53 1_555 1_555
H38 C53 1_555 1_555
C54 C53 1_555 1_555
H39 C54 1_555 1_555
H40 C54 1_555 1_555
H41 C54 1_555 1_555
C55 C52 1_555 1_555
H42 C55 1_555 1_555
H43 C55 1_555 1_555
H44 C55 1_555 1_555
C56 N7 1_555 1_555
H45 C56 1_555 1_555
C57 C56 1_555 1_555
H46 C57 1_555 1_555
H47 C57 1_555 1_555
C58 C57 1_555 1_555
H48 C58 1_555 1_555
H49 C58 1_555 1_555
H50 C58 1_555 1_555
C59 C56 1_555 1_555
H51 C59 1_555 1_555
H52 C59 1_555 1_555
H53 C59 1_555 1_555
C60 C47 1_555 1_555
C61 C60 1_555 1_555
C62 C61 1_555 1_555
C63 C62 1_555 1_555
H54 C63 1_555 1_555
C64 C63 1_555 1_555
H55 C64 1_555 1_555
N8 C64 1_555 1_555
C65 N8 1_555 1_555
H56 C65 1_555 1_555
C66 C62 1_555 1_555
H57 C66 1_555 1_555
Cl3 C67 1_555 1_555
Cl4 C67 1_555 1_555
C67 H61 1_555 1_555
Cl5 C68 1_555 1_555
Cl6 C68 1_555 1_555
C68 C67 1_555 1_555
H62 C68 1_555 1_555
Cl7 C69 1_555 1_555
Cl8 C69 1_555 1_555
C69 H63 1_555 1_555
Cl9 C70 1_555 1_555
Cl10 C70 1_555 1_555
C70 C69 1_555 1_555
H64 C70 1_555 1_555
Cl11 C71 1_555 1_555
Cl12 C71 1_555 1_555
C71 H65 1_555 1_555
Cl13 C72 1_555 1_555
Cl14 C72 1_555 1_555
C72 C71 1_555 1_555
H66 C72 1_555 1_555
Cl1A Ni1 1_555 1_555
N1A Ni1 1_555 1_555
C1A N1A 1_555 1_555
H1A C1A 1_555 1_555
C2A C1A 1_555 1_555
H2A C2A 1_555 1_555
C3A C2A 1_555 1_555
C4A C3A 1_555 1_555
H3A C4A 1_555 1_555
C5A N1A 1_555 1_555
H4A C5A 1_555 1_555
C6A C3A 1_555 1_555
C7A C6A 1_555 1_555
C8A C7A 1_555 1_555
C9A C8A 1_555 1_555
C10A C9A 1_555 1_555
O1A C10A 1_555 1_555
N2A C10A 1_555 1_555
C11A N2A 1_555 1_555
O2A C11A 1_555 1_555
C12A C9A 1_555 1_555
C13A C12A 1_555 1_555
C14A C13A 1_555 1_555
C15A C8A 1_555 1_555
C16A C14A 1_555 1_555
O3A C16A 1_555 1_555
N3A C16A 1_555 1_555
C17A C15A 1_555 1_555
O4A C17A 1_555 1_555
C18A N2A 1_555 1_555
H5A C18A 1_555 1_555
C19A C18A 1_555 1_555
H6A C19A 1_555 1_555
H7A C19A 1_555 1_555
C20A C19A 1_555 1_555
H8A C20A 1_555 1_555
H9A C20A 1_555 1_555
H10A C20A 1_555 1_555
C21A C18A 1_555 1_555
H11A C21A 1_555 1_555
H12A C21A 1_555 1_555
H13A C21A 1_555 1_555
C22A N3A 1_555 1_555
H14A C22A 1_555 1_555
C23A C22A 1_555 1_555
H15A C23A 1_555 1_555
H16A C23A 1_555 1_555
C24A C23A 1_555 1_555
H17A C24A 1_555 1_555
H18A C24A 1_555 1_555
H19A C24A 1_555 1_555
C25A C22A 1_555 1_555
H20A C25A 1_555 1_555
H21A C25A 1_555 1_555
H22A C25A 1_555 1_555
C26A C13A 1_555 1_555
C27A C26A 1_555 1_555
C28A C27A 1_555 1_555
C29A C28A 1_555 1_555
H23A C29A 1_555 1_555
C30A C29A 1_555 1_555
H24A C30A 1_555 1_555
N4A C30A 1_555 1_555
C31A N4A 1_555 1_555
H25A C31A 1_555 1_555
C32A C28A 1_555 1_555
H26A C32A 1_555 1_555
Ni1B N4A 1_555 1_555
Ni1B_2 N4 1_555 1_555
N4B Ni1 1_555 1_555
N4C Ni1 1_555 1_555
Cl2A Ni2 1_555 1_555
N5A Ni2 1_555 1_555
C35A N5A 1_555 1_555
H32A C35A 1_555 1_555
C36A C35A 1_555 1_555
H33A C36A 1_555 1_555
C37A C36A 1_555 1_555
C38A C37A 1_555 1_555
H34A C38A 1_555 1_555
C39A N5A 1_555 1_555
H35A C39A 1_555 1_555
C40A C37A 1_555 1_555
C41A C40A 1_555 1_555
C42A C41A 1_555 1_555
C43A C42A 1_555 1_555
C44A C43A 1_555 1_555
O5A C44A 1_555 1_555
N6A C44A 1_555 1_555
C45A N6A 1_555 1_555
O6A C45A 1_555 1_555
C46A C43A 1_555 1_555
C47A C46A 1_555 1_555
C48A C47A 1_555 1_555
C49A C48A 1_555 1_555
O7A C49A 1_555 1_555
N7A C49A 1_555 1_555
C50A N7A 1_555 1_555
O8A C50A 1_555 1_555
C51A C42A 1_555 1_555
C52A N6A 1_555 1_555
H36A C52A 1_555 1_555
C53A C52A 1_555 1_555
H37A C53A 1_555 1_555
H38A C53A 1_555 1_555
C54A C53A 1_555 1_555
H39A C54A 1_555 1_555
H40A C54A 1_555 1_555
H41A C54A 1_555 1_555
C55A C52A 1_555 1_555
H42A C55A 1_555 1_555
H43A C55A 1_555 1_555
H44A C55A 1_555 1_555
C56A N7A 1_555 1_555
H45A C56A 1_555 1_555
C57A C56A 1_555 1_555
H46A C57A 1_555 1_555
H47A C57A 1_555 1_555
C58A C57A 1_555 1_555
H48A C58A 1_555 1_555
H49A C58A 1_555 1_555
H50A C58A 1_555 1_555
C59A C56A 1_555 1_555
H51A C59A 1_555 1_555
H52A C59A 1_555 1_555
H53A C59A 1_555 1_555
C60A C47A 1_555 1_555
C61A C60A 1_555 1_555
C62A C61A 1_555 1_555
C63A C62A 1_555 1_555
H54A C63A 1_555 1_555
C64A C63A 1_555 1_555
H55A C64A 1_555 1_555
N8A C64A 1_555 1_555
C65A N8A 1_555 1_555
H56A C65A 1_555 1_555
C66A C62A 1_555 1_555
H57A C66A 1_555 1_555
Ni2B N8A 1_555 1_555
Ni2B_2 N8 1_555 1_555
N8B Ni2 1_555 1_555
N8C Ni2 1_555 1_555
C4 C5 1_555 1_555
C11 C12 1_555 1_555
C14 C15 1_555 1_555
N3 C17 1_555 1_555
C31 C32 1_555 1_555
C38 C39 1_555 1_555
C45 C46 1_555 1_555
C48 C51 1_555 1_555
C50 C51 1_555 1_555
C65 C66 1_555 1_555
C4A C5A 1_555 1_555
C11A C12A 1_555 1_555
C14A C15A 1_555 1_555
N3A C17A 1_555 1_555
C31A C32A 1_555 1_555
C38A C39A 1_555 1_555
C45A C46A 1_555 1_555
C48A C51A 1_555 1_555
C50A C51A 1_555 1_555
C65A C66A 1_555 1_555

#END
