
#######################################################################
#
#                 Cambridge Crystallographic Data Centre
#                                CCDC 
#
#######################################################################
#
# If this CIF has been generated from an entry in the Cambridge 
# Structural Database, then it will include bibliographic, chemical, 
# crystal, experimental, refinement or atomic coordinate data resulting 
# from the CCDC's data processing and validation procedures.
#
#######################################################################

data_CITQAZ
_symmetry_cell_setting           triclinic
_symmetry_space_group_name_H-M   'P -1'
_symmetry_Int_Tables_number      2
_space_group_name_Hall           '-P 1'
loop_
_symmetry_equiv_pos_site_id
_symmetry_equiv_pos_as_xyz
1 x,y,z
2 -x,-y,-z
_cell_length_a                   11.2962(8)
_cell_length_b                   11.7757(8)
_cell_length_c                   12.1986(8)
_cell_angle_alpha                89.5340(10)
_cell_angle_beta                 88.8510(10)
_cell_angle_gamma                86.5140(10)
_cell_volume                     1619.3
loop_
_atom_site_label
_atom_site_type_symbol
_atom_site_fract_x
_atom_site_fract_y
_atom_site_fract_z
O23 O 0.3933(6) 0.4138(5) 0.1656(5)
H11 H 0.3827 0.3531 0.2018
H12 H 0.4190 0.4633 0.2079
O24 O 1.1317(9) 1.6976(10) 0.7431(7)
H13 H 1.0660 1.6413 0.7316
H14 H 1.1194 1.7365 0.8010
C1 C 1.0032(11) 1.9223(11) 0.2763(11)
N1 N 1.1612(4) 1.5526(4) 0.0146(4)
O1 O 1.4697(3) 2.0236(3) 0.3914(3)
Mo1 Mo 1.63029(4) 1.93168(3) 0.43626(3)
C2 C 0.9535(5) 1.7799(5) -0.0442(5)
N2 N 1.3654(4) 1.6597(4) 0.0600(4)
O2 O 1.6684(3) 2.0895(3) 0.4597(3)
Cu1 Cu 1.0000 2.0000 0.0000
Mo2 Mo 1.56304(4) 2.19288(4) 0.37053(4)
C3 C 1.0684(7) 1.6023(9) 0.1865(6)
N3 N 0.8387(4) 1.9445(4) 0.0240(4)
O3 O 1.4062(4) 2.2364(3) 0.3317(3)
Cu2 Cu 1.0000 1.5000 0.0000
Mo3 Mo 1.30553(5) 2.11730(5) 0.29044(4)
C4 C 1.1737(5) 1.6041(5) 0.1095(4)
N4 N 0.6383(4) 1.8255(4) 0.0600(4)
O4 O 1.2546(3) 1.9685(4) 0.3276(3)
Cu3 Cu 1.50619(6) 1.73442(7) 0.09925(6)
Mo4 Mo 1.37449(4) 1.85714(4) 0.36222(4)
C5 C 1.2502(5) 1.5535(5) -0.0572(5)
H1 H 1.2440 1.5177 -0.1244
N5 N 1.0189(5) 1.8870(5) 0.4682(4)
O5 O 1.5173(3) 1.8139(3) 0.4490(3)
C6 C 1.3519(5) 1.6063(5) -0.0343(5)
H2 H 1.4133 1.6048 -0.0863
O6 O 1.2920(4) 1.7424(4) 0.3829(4)
C7 C 1.2745(5) 1.6564(6) 0.1323(5)
H3 H 1.2806 1.6909 0.2002
O7 O 1.0141(8) 1.8145(7) 0.2631(7)
C8 C 0.8377(5) 1.8332(4) 0.0005(4)
O8 O 0.9912(10) 1.9926(8) 0.2038(7)
C9 C 0.7396(5) 1.9959(5) 0.0641(5)
H4 H 0.7373 2.0731 0.0798
O9 O 1.0397(4) 1.8436(4) -0.0435(4)
C10 C 0.6396(5) 1.9356(5) 0.0828(5)
H5 H 0.5715 1.9732 0.1120
O10 O 0.9572(4) 1.6809(3) -0.0774(4)
C11 C 0.7385(5) 1.7751(5) 0.0164(5)
H6 H 0.7397 1.6989 -0.0032
O11 O 0.9773(3) 1.5617(4) 0.1503(3)
C12 C 0.9938(7) 1.9693(6) 0.3943(6)
C13 C 1.0258(7) 1.9179(6) 0.5723(6)
H7 H 1.0443 1.8623 0.6249
O12 O 1.4390(3) 1.8349(4) 0.2354(3)
O13 O 1.3711(5) 2.0843(4) 0.1678(4)
O14 O 1.1772(5) 2.1908(5) 0.2596(4)
O15 O 1.6122(4) 2.3218(3) 0.4074(4)
O16 O 1.6294(4) 2.1641(4) 0.2471(4)
O17 O 1.7316(3) 1.8692(3) 0.5268(3)
O18 O 1.6923(3) 1.9048(3) 0.3125(3)
Cu4 Cu 1.5000 1.5000 0.5000
N6 N 1.8743(4) 1.6485(4) 0.4459(4)
N7 N 1.6582(4) 1.5608(4) 0.4924(4)
C14 C 1.7936(5) 1.6404(5) 0.3676(5)
H8 H 1.8113 1.6638 0.2965
O19 O 1.4929(3) 1.5485(3) 0.3469(3)
C15 C 1.6848(5) 1.5978(4) 0.3909(5)
O20 O 1.6087(4) 1.6154(4) 0.2126(3)
C16 C 1.7384(5) 1.5673(5) 0.5696(5)
H9 H 1.7219 1.5419 0.6404
C17 C 1.8463(5) 1.6118(6) 0.5453(5)
H10 H 1.9012 1.6161 0.6007
C18 C 1.5892(5) 1.5874(5) 0.3090(5)
O21 O 1.1349(4) 1.6477(4) 0.5285(4)
Cu5 Cu 1.05175(16) 1.72549(13) 0.39307(14)
O22 O 1.0975(7) 1.5981(7) 0.2936(6)
C1A C 0.9968(11) 2.0777(11) 0.7237(11)
N5A N 0.9811(5) 2.1130(5) 0.5318(4)
O7A O 0.9859(8) 2.1855(7) 0.7369(7)
O8A O 1.0088(10) 2.0074(8) 0.7962(7)
C12A C 1.0062(7) 2.0307(6) 0.6057(6)
C13A C 0.9742(7) 2.0821(6) 0.4277(6)
H7A H 0.9557 2.1377 0.3751
N1A N 0.8388(4) 1.4474(4) -0.0146(4)
O1A O 0.5303(3) 0.9764(3) -0.3914(3)
Mo1A Mo 0.36971(4) 1.06832(3) -0.43626(3)
C2A C 1.0465(5) 1.2201(5) 0.0442(5)
N2A N 0.6346(4) 1.3403(4) -0.0600(4)
O2A O 0.3316(3) 0.9105(3) -0.4597(3)
Mo2A Mo 0.43696(4) 0.80712(4) -0.37053(4)
C3A C 0.9316(7) 1.3977(9) -0.1865(6)
N3A N 1.1613(4) 1.0555(4) -0.0240(4)
O3A O 0.5938(4) 0.7636(3) -0.3317(3)
Mo3A Mo 0.69447(5) 0.88270(5) -0.29044(4)
C4A C 0.8263(5) 1.3959(5) -0.1095(4)
N4A N 1.3617(4) 1.1745(4) -0.0600(4)
O4A O 0.7454(3) 1.0315(4) -0.3276(3)
Cu3A Cu 0.49381(6) 1.26558(7) -0.09925(6)
Mo4A Mo 0.62551(4) 1.14286(4) -0.36222(4)
C5A C 0.7498(5) 1.4465(5) 0.0572(5)
H1A H 0.7560 1.4823 0.1244
O5A O 0.4827(3) 1.1861(3) -0.4490(3)
C6A C 0.6481(5) 1.3937(5) 0.0343(5)
H2A H 0.5867 1.3952 0.0863
O6A O 0.7080(4) 1.2576(4) -0.3829(4)
C7A C 0.7255(5) 1.3436(6) -0.1323(5)
H3A H 0.7194 1.3091 -0.2002
C8A C 1.1623(5) 1.1668(4) -0.0005(4)
C9A C 1.2604(5) 1.0041(5) -0.0641(5)
H4A H 1.2627 0.9269 -0.0798
O9A O 0.9603(4) 1.1564(4) 0.0435(4)
C10A C 1.3604(5) 1.0644(5) -0.0828(5)
H5A H 1.4285 1.0268 -0.1120
O10A O 1.0428(4) 1.3191(3) 0.0774(4)
C11A C 1.2615(5) 1.2249(5) -0.0164(5)
H6A H 1.2603 1.3011 0.0032
O11A O 1.0227(3) 1.4383(4) -0.1503(3)
O12A O 0.5610(3) 1.1651(4) -0.2354(3)
O13A O 0.6289(5) 0.9157(4) -0.1678(4)
O14A O 0.8228(5) 0.8092(5) -0.2596(4)
O15A O 0.3878(4) 0.6782(3) -0.4074(4)
O16A O 0.3706(4) 0.8359(4) -0.2471(4)
O17A O 0.2684(3) 1.1308(3) -0.5268(3)
O18A O 0.3077(3) 1.0952(3) -0.3125(3)
N6A N 0.1257(4) 1.3515(4) -0.4459(4)
N7A N 0.3418(4) 1.4392(4) -0.4924(4)
C14A C 0.2064(5) 1.3596(5) -0.3676(5)
H8A H 0.1887 1.3362 -0.2965
O19A O 0.5071(3) 1.4515(3) -0.3469(3)
C15A C 0.3152(5) 1.4022(4) -0.3909(5)
O20A O 0.3913(4) 1.3846(4) -0.2126(3)
C16A C 0.2616(5) 1.4327(5) -0.5696(5)
H9A H 0.2781 1.4581 -0.6404
C17A C 0.1537(5) 1.3882(6) -0.5453(5)
H10A H 0.0988 1.3839 -0.6007
C18A C 0.4108(5) 1.4126(5) -0.3090(5)
O21A O 0.8651(4) 1.3523(4) -0.5285(4)
Cu5A Cu 0.94825(16) 1.27451(13) -0.39307(14)
O22A O 0.9025(7) 1.4019(7) -0.2936(6)
O1_2 O 0.4697(3) 1.0236(3) -0.6086(3)
O1A_2 O 1.5303(3) 1.9764(3) 0.6086(3)
Mo1_2 Mo 0.63029(4) 0.93168(3) -0.56374(3)
Mo1A_2 Mo 1.36971(4) 2.06832(3) 0.56374(3)
O2_2 O 0.6684(3) 1.0895(3) -0.5403(3)
O2A_2 O 1.3316(3) 1.9105(3) 0.5403(3)
Cu1_2 Cu 1.0000 1.0000 0.0000
Cu1_3 Cu 1.0000 2.0000 1.0000
Mo2_2 Mo 0.56304(4) 1.19288(4) -0.62947(4)
Mo2A_2 Mo 1.43696(4) 1.80712(4) 0.62947(4)
N3A_2 N 1.1613(4) 2.0555(4) -0.0240(4)
Mo3_2 Mo 0.30553(5) 1.11730(5) -0.70956(4)
Mo3A_2 Mo 1.69447(5) 1.88270(5) 0.70956(4)
N4_2 N 1.6383(4) 1.8255(4) 0.0600(4)
N4A_2 N 0.3617(4) 1.1745(4) -0.0600(4)
Cu3_2 Cu 0.50619(6) 1.73442(7) 0.09925(6)
Cu3A_2 Cu 1.49381(6) 1.26558(7) -0.09925(6)
Mo4_2 Mo 0.37449(4) 0.85714(4) -0.63778(4)
Mo4A_2 Mo 1.62551(4) 2.14286(4) 0.63778(4)
N5A_2 N 0.9811(5) 1.1130(5) -0.4682(4)
O5_2 O 0.5173(3) 0.8139(3) -0.5510(3)
O5A_2 O 1.4827(3) 2.1861(3) 0.5510(3)
O7A_2 O 0.9859(8) 1.1855(7) -0.2631(7)
O8A_2 O 1.0088(10) 2.0074(8) -0.2038(7)
O9A_2 O 0.9603(4) 2.1564(4) 0.0435(4)
O15_2 O 1.6122(4) 1.3218(3) 0.4074(4)
O15A_2 O 1.3878(4) 1.6782(3) 0.5926(4)
O17_2 O 0.7316(3) 0.8692(3) -0.4732(3)
O17A_2 O 1.2684(3) 2.1308(3) 0.4732(3)
Cu4_2 Cu 0.5000 0.5000 -0.5000
Cu4_3 Cu 0.5000 1.5000 -0.5000
Cu4_4 Cu 1.5000 2.5000 0.5000
N6_2 N 0.8743(4) 1.6485(4) 0.4459(4)
N6A_2 N 1.1257(4) 1.3515(4) -0.4459(4)
N7A_2 N 1.3418(4) 1.4392(4) 0.5076(4)
O19A_2 O 1.5071(3) 1.4515(3) 0.6531(3)
Cu5_2 Cu 2.05175(16) 1.72549(13) 0.39307(14)
Cu5A_2 Cu -0.05175(16) 1.27451(13) -0.39307(14)
Cu5A_3 Cu 0.94825(16) 2.27451(13) 0.60693(14)
C19? C 1.039(13) 1.73(2) 0.232(12)
O25? O 1.0568(10) 1.6875(11) 0.2595(9)
Cu6? Cu 1.00795(18) 1.73603(16) 0.43228(17)
loop_
_geom_bond_atom_site_label_1
_geom_bond_atom_site_label_2
_geom_bond_site_symmetry_1
_geom_bond_site_symmetry_2
C1 O7 1_555 1_555
N1 Cu2 1_555 1_555
O1 Mo1 1_555 1_555
Mo1 O2 1_555 1_555
C2 C8 1_555 1_555
N2 Cu3 1_555 1_555
O2 Mo2 1_555 1_555
Cu1 N3 1_555 1_555
Mo2 O1 1_555 1_555
C3 C4 1_555 1_555
N3 C8 1_555 1_555
O3 Mo2 1_555 1_555
Cu2 O10 1_555 1_555
Mo3 O1 1_555 1_555
C4 N1 1_555 1_555
N4 C10 1_555 1_555
O4 Mo3 1_555 1_555
Cu3 O12 1_555 1_555
Mo4 O1 1_555 1_555
C5 N1 1_555 1_555
H1 C5 1_555 1_555
N5 C12 1_555 1_555
O5 Mo1 1_555 1_555
C6 N2 1_555 1_555
H2 C6 1_555 1_555
O6 Mo4 1_555 1_555
C7 N2 1_555 1_555
H3 C7 1_555 1_555
O7 Cu5 1_555 1_555
C8 C11 1_555 1_555
O8 C1 1_555 1_555
C9 N3 1_555 1_555
H4 C9 1_555 1_555
O9 C2 1_555 1_555
C10 C9 1_555 1_555
H5 C10 1_555 1_555
O10 C2 1_555 1_555
C11 N4 1_555 1_555
H6 C11 1_555 1_555
O11 C3 1_555 1_555
C12 C1 1_555 1_555
C13 N5 1_555 1_555
H7 C13 1_555 1_555
O12 Mo4 1_555 1_555
O13 Mo3 1_555 1_555
O14 Mo3 1_555 1_555
O15 Mo2 1_555 1_555
O16 Mo2 1_555 1_555
O17 Mo1 1_555 1_555
O18 Mo1 1_555 1_555
Cu4 N7 1_555 1_555
N6 C14 1_555 1_555
N7 C15 1_555 1_555
C14 H8 1_555 1_555
O19 Cu4 1_555 1_555
C15 C14 1_555 1_555
O20 Cu3 1_555 1_555
C16 N7 1_555 1_555
H9 C16 1_555 1_555
C17 N6 1_555 1_555
H10 C17 1_555 1_555
C18 O19 1_555 1_555
O21 Cu5 1_555 1_555
Cu5 N5 1_555 1_555
O22 C3 1_555 1_555
O23 H11 1_555 1_555
H12 O23 1_555 1_555
O24 H13 1_555 1_555
H14 O24 1_555 1_555
C1A O7A 1_555 1_555
N5A C12A 1_555 1_555
O7A Cu5A_3 1_555 1_555
O8A C1A 1_555 1_555
C12A C13 1_555 1_555
C13A C12 1_555 1_555
H7A C13A 1_555 1_555
N1A Cu2 1_555 1_555
O1A Mo1A 1_555 1_555
Mo1A O2A 1_555 1_555
C2A C8A 1_555 1_555
N2A Cu3A 1_555 1_555
O2A Mo2A 1_555 1_555
Mo2A O1A 1_555 1_555
C3A C4A 1_555 1_555
N3A C8A 1_555 1_555
O3A Mo2A 1_555 1_555
Mo3A O1A 1_555 1_555
C4A N1A 1_555 1_555
N4A C10A 1_555 1_555
O4A Mo3A 1_555 1_555
Cu3A O12A 1_555 1_555
Mo4A O1A 1_555 1_555
C5A N1A 1_555 1_555
H1A C5A 1_555 1_555
O5A Mo1A 1_555 1_555
C6A N2A 1_555 1_555
H2A C6A 1_555 1_555
O6A Mo4A 1_555 1_555
C7A N2A 1_555 1_555
H3A C7A 1_555 1_555
C8A C11A 1_555 1_555
C9A N3A 1_555 1_555
H4A C9A 1_555 1_555
O9A C2A 1_555 1_555
C10A C9A 1_555 1_555
H5A C10A 1_555 1_555
O10A Cu2 1_555 1_555
C11A N4A 1_555 1_555
H6A C11A 1_555 1_555
O11A Cu2 1_555 1_555
O12A Mo4A 1_555 1_555
O13A Mo3A 1_555 1_555
O14A Mo3A 1_555 1_555
O15A Mo2A 1_555 1_555
O16A Mo2A 1_555 1_555
O17A Mo1A 1_555 1_555
O18A Mo1A 1_555 1_555
N6A C14A 1_555 1_555
N7A C15A 1_555 1_555
C14A H8A 1_555 1_555
O19A C18A 1_555 1_555
C15A C14A 1_555 1_555
O20A Cu3A 1_555 1_555
C16A N7A 1_555 1_555
H9A C16A 1_555 1_555
C17A N6A 1_555 1_555
H10A C17A 1_555 1_555
C18A C15A 1_555 1_555
O21A Cu5A 1_555 1_555
Cu5A O6A 1_555 1_555
O22A C3A 1_555 1_555
O1_2 Mo1A 1_555 1_555
O1A_2 Mo1 1_555 1_555
Mo1_2 O1A 1_555 1_555
Mo1A_2 O1 1_555 1_555
O2_2 Mo4A 1_555 1_555
O2A_2 Mo4 1_555 1_555
Cu1_2 N3A 1_555 1_555
Cu1_3 O8A 1_555 1_555
Mo2_2 O5A 1_555 1_555
Mo2A_2 O5 1_555 1_555
N3A_2 Cu1 1_555 1_555
Mo3_2 O17A 1_555 1_555
Mo3A_2 O17 1_555 1_555
N4_2 Cu3 1_555 1_555
N4A_2 Cu3A 1_555 1_555
Cu3_2 N4 1_555 1_555
Cu3A_2 N4A 1_555 1_555
Mo4_2 O2A 1_555 1_555
Mo4A_2 O2 1_555 1_555
N5A_2 Cu5A 1_555 1_555
O5_2 Mo2A 1_555 1_555
O5A_2 Mo2 1_555 1_555
O7A_2 Cu5A 1_555 1_555
O8A_2 Cu1 1_555 1_555
O9A_2 Cu1 1_555 1_555
O15_2 Cu4 1_555 1_555
O15A_2 Cu4 1_555 1_555
O17_2 Mo3A 1_555 1_555
O17A_2 Mo3 1_555 1_555
Cu4_2 O15A 1_555 1_555
Cu4_3 N7A 1_555 1_555
Cu4_4 O15 1_555 1_555
N6_2 Cu5 1_555 1_555
N6A_2 Cu5A 1_555 1_555
N7A_2 Cu4 1_555 1_555
O19A_2 Cu4 1_555 1_555
Cu5_2 N6 1_555 1_555
Cu5A_2 N6A 1_555 1_555
Cu5A_3 N5A 1_555 1_555
Cu1 O8 1_555 1_555
Cu1 O9 1_555 1_555
O3 Mo3 1_555 1_555
Cu2 O11 1_555 1_555
C4 C7 1_555 1_555
O4 Mo4 1_555 1_555
Mo4 O5 1_555 1_555
C5 C6 1_555 1_555
O6 Cu5 1_555 1_555
C15 C18 1_555 1_555
O20 C18 1_555 1_555
C16 C17 1_555 1_555
Cu5 O22 1_555 1_555
C1A C12A 1_555 1_555
N5A C13A 1_555 1_555
C2A O10A 1_555 1_555
C3A O11A 1_555 1_555
O3A Mo3A 1_555 1_555
C4A C7A 1_555 1_555
O4A Mo4A 1_555 1_555
Mo4A O5A 1_555 1_555
C5A C6A 1_555 1_555
O9A Cu1_2 1_555 1_555
O19A Cu4_3 1_555 1_555
O20A C18A 1_555 1_555
C16A C17A 1_555 1_555
Cu5A O22A 1_555 1_555
O1_2 Mo1_2 1_555 1_555
O1_2 Mo2_2 1_555 1_555
O1_2 Mo3_2 1_555 1_555
O1_2 Mo4_2 1_555 1_555
O1A_2 Mo1A_2 1_555 1_555
O1A_2 Mo2A_2 1_555 1_555
O1A_2 Mo3A_2 1_555 1_555
O1A_2 Mo4A_2 1_555 1_555
Mo1_2 O2_2 1_555 1_555
Mo1_2 O5_2 1_555 1_555
Mo1_2 O17_2 1_555 1_555
Mo1A_2 O2A_2 1_555 1_555
Mo1A_2 O5A_2 1_555 1_555
Mo1A_2 O17A_2 1_555 1_555
O2_2 Mo2_2 1_555 1_555
O2A_2 Mo2A_2 1_555 1_555
Mo2A_2 O15A_2 1_555 1_555
Mo4_2 O5_2 1_555 1_555
Mo4A_2 O5A_2 1_555 1_555

#END
