
#######################################################################
#
#                 Cambridge Crystallographic Data Centre
#                                CCDC 
#
#######################################################################
#
# If this CIF has been generated from an entry in the Cambridge 
# Structural Database, then it will include bibliographic, chemical, 
# crystal, experimental, refinement or atomic coordinate data resulting 
# from the CCDC's data processing and validation procedures.
#
#######################################################################

data_CITXAF
_symmetry_cell_setting           orthorhombic
_symmetry_space_group_name_H-M   'P b c a'
_symmetry_Int_Tables_number      61
_space_group_name_Hall           '-P 2ac 2ab'
loop_
_symmetry_equiv_pos_site_id
_symmetry_equiv_pos_as_xyz
1 x,y,z
2 1/2-x,-y,1/2+z
3 -x,1/2+y,1/2-z
4 1/2+x,1/2-y,-z
5 -x,-y,-z
6 1/2+x,y,1/2-z
7 x,1/2-y,1/2+z
8 1/2-x,1/2+y,z
_cell_length_a                   11.324(2)
_cell_length_b                   19.659(4)
_cell_length_c                   32.308(7)
_cell_angle_alpha                90
_cell_angle_beta                 90
_cell_angle_gamma                90
_cell_volume                     7192.36
loop_
_atom_site_label
_atom_site_type_symbol
_atom_site_fract_x
_atom_site_fract_y
_atom_site_fract_z
Rb1 Rb 0.63581(4) 0.07585(2) 0.345608(15)
Rb2 Rb 0.90946(4) -0.01035(2) 0.387224(15)
Cl1 Cl 0.31479(13) -0.22434(7) 0.30837(5)
Cl2 Cl 0.73527(19) 0.30143(9) 0.53896(6)
O1 O 0.7392(3) -0.05521(15) 0.33220(10)
O2 O 0.7507(3) 0.07389(16) 0.42068(10)
O3 O 0.4814(4) 0.11198(17) 0.27474(12)
O4 O 0.3665(3) 0.09922(18) 0.19680(11)
O5 O 0.5697(3) 0.21300(16) 0.36878(12)
O6 O 0.5124(3) 0.35228(16) 0.37907(11)
O7 O 1.0388(3) -0.03081(18) 0.46268(11)
O8 O 0.1495(3) 0.03530(19) 0.37614(12)
O9 O 0.3977(3) 0.04697(19) 0.36923(13)
C1 C 0.6473(4) -0.0937(2) 0.32685(16)
C2 C 0.6026(4) -0.1082(2) 0.28631(16)
C3 C 0.5009(5) -0.1480(2) 0.28129(17)
H1 H 0.4712 -0.1569 0.2543
C4 C 0.4438(4) -0.1745(2) 0.31566(18)
C5 C 0.4845(5) -0.1625(2) 0.35505(18)
H2 H 0.4440 -0.1814 0.3781
C6 C 0.5855(4) -0.1228(2) 0.36141(16)
C7 C 0.6657(5) -0.0786(2) 0.24968(17)
H3 H 0.6237 -0.0910 0.2243
H4 H 0.7464 -0.0965 0.2486
H5 H 0.6682 -0.0289 0.2522
C8 C 0.6309(5) -0.1087(3) 0.40456(17)
H6 H 0.5777 -0.1293 0.4249
H7 H 0.6345 -0.0594 0.4091
H8 H 0.7101 -0.1282 0.4076
C9 C 0.7478(4) 0.1242(2) 0.44736(15)
C10 C 0.6624(5) 0.1268(2) 0.47929(16)
C11 C 0.6609(5) 0.1813(3) 0.50709(17)
H9 H 0.6030 0.1827 0.5284
C12 C 0.7422(6) 0.2325(3) 0.50392(19)
C13 C 0.8269(5) 0.2317(3) 0.4734(2)
H10 H 0.8818 0.2681 0.4715
C14 C 0.8329(5) 0.1784(2) 0.44519(17)
C15 C 0.5721(5) 0.0708(3) 0.4817(2)
H11 H 0.5180 0.0797 0.5047
H12 H 0.6121 0.0272 0.4861
H13 H 0.5275 0.0690 0.4557
C16 C 0.9244(5) 0.1767(3) 0.4117(2)
H14 H 0.9718 0.2183 0.4128
H15 H 0.8854 0.1734 0.3847
H16 H 0.9758 0.1371 0.4157
C17 C 0.4222(5) 0.0504(2) 0.26245(16)
H17 H 0.3396 0.0515 0.2725
H18 H 0.4620 0.0109 0.2754
C18 C 0.4228(5) 0.0421(3) 0.21665(16)
H19 H 0.5052 0.0381 0.2067
H20 H 0.3806 -0.0003 0.2092
C19 C 0.4244(5) 0.1619(3) 0.20880(18)
H21 H 0.3825 0.2010 0.1963
H22 H 0.5066 0.1619 0.1984
C20 C 0.4251(6) 0.1693(3) 0.25515(18)
H23 H 0.4674 0.2115 0.2628
H24 H 0.3428 0.1732 0.2653
C21 C 0.6293(5) 0.2654(3) 0.34560(19)
H25 H 0.6534 0.2474 0.3183
H26 H 0.7013 0.2799 0.3606
C22 C 0.5487(5) 0.3256(3) 0.33970(17)
H27 H 0.5904 0.3613 0.3238
H28 H 0.4783 0.3115 0.3237
C23 C 0.4531(5) 0.3001(2) 0.40265(18)
H29 H 0.3808 0.2855 0.3879
H30 H 0.4298 0.3183 0.4300
C24 C 0.5350(5) 0.2397(2) 0.40839(17)
H31 H 0.6060 0.2541 0.4240
H32 H 0.4944 0.2039 0.4245
C25 C 0.9656(5) -0.0666(3) 0.49161(17)
H33 H 1.0159 -0.0923 0.5112
H34 H 0.9153 -0.0996 0.4766
C26 C 1.1118(5) 0.0176(3) 0.48459(18)
H35 H 1.1614 0.0430 0.4646
H36 H 1.1647 -0.0068 0.5040
C27 C 0.2245(5) -0.0233(3) 0.3747(2)
H37 H 0.2328 -0.0387 0.3457
H38 H 0.1882 -0.0607 0.3908
C28 C 0.2023(5) 0.0902(3) 0.3544(2)
H39 H 0.1517 0.1311 0.3569
H40 H 0.2085 0.0785 0.3247
C29 C 0.3231(5) 0.1056(3) 0.3713(2)
H41 H 0.3591 0.1431 0.3551
H42 H 0.3162 0.1207 0.4004
C30 C 0.3443(5) -0.0073(3) 0.3921(2)
H43 H 0.3366 0.0060 0.4215
H44 H 0.3950 -0.0482 0.3906
Rb1E Rb 1.13581(4) 0.07585(2) 0.154392(15)
Rb1E_2 Rb 0.13581(4) 0.07585(2) 0.154392(15)
Rb1G Rb 0.86419(4) -0.42415(2) 0.345608(15)
Rb1_2 Rb 1.63581(4) 0.07585(2) 0.345608(15)
Rb2G Rb 0.59054(4) 0.48965(2) 0.387224(15)
Rb2_2 Rb -0.09054(4) -0.01035(2) 0.387224(15)
Rb2D Rb 1.09054(4) 0.01035(2) 0.612776(15)
Rb2E Rb 1.40946(4) -0.01035(2) 0.112776(15)
Cl1E Cl 0.81479(13) -0.22434(7) 0.19163(5)
Cl2E Cl 1.23527(19) 0.30143(9) -0.03896(6)
O1E O 1.2392(3) -0.05521(15) 0.16780(10)
O1G O 0.7608(3) 0.44479(15) 0.33220(10)
O2E O 1.2507(3) 0.07389(16) 0.07932(10)
O2G O 0.7493(3) 0.57389(16) 0.42068(10)
O3E O 0.9814(4) 0.11198(17) 0.22526(12)
O4E O 0.8665(3) 0.09922(18) 0.30320(11)
O4_2 O 1.3665(3) 0.09922(18) 0.19680(11)
O5G O 0.9303(3) -0.28700(16) 0.36878(12)
O5E O 1.0697(3) 0.21300(16) 0.13122(12)
O6G O 0.9876(3) -0.14772(16) 0.37907(11)
O7D O 0.9612(3) 0.03081(18) 0.53732(11)
O7G O 0.4612(3) 0.46919(18) 0.46268(11)
O8_2 O 1.1495(3) 0.03530(19) 0.37614(12)
O8G O 0.3505(3) 0.53530(19) 0.37614(12)
O9_2 O 1.3977(3) 0.04697(19) 0.36923(13)
O9E O 0.8977(3) 0.04697(19) 0.13077(13)
C1E C 1.1473(4) -0.0937(2) 0.17315(16)
C2E C 1.1026(4) -0.1082(2) 0.21369(16)
C3E C 1.0009(5) -0.1480(2) 0.21871(17)
H1E H 0.9712 -0.1569 0.2457
C4E C 0.9438(4) -0.1745(2) 0.18434(18)
C5E C 0.9845(5) -0.1625(2) 0.14495(18)
H2E H 0.9440 -0.1814 0.1219
C6E C 1.0855(4) -0.1228(2) 0.13859(16)
C7E C 1.1657(5) -0.0786(2) 0.25032(17)
H3E H 1.1237 -0.0910 0.2757
H4E H 1.2464 -0.0965 0.2514
H5E H 1.1682 -0.0289 0.2478
C8E C 1.1309(5) -0.1087(3) 0.09544(17)
H6E H 1.0777 -0.1293 0.0751
H7E H 1.1345 -0.0594 0.0909
H8E H 1.2101 -0.1282 0.0924
C9E C 1.2478(4) 0.1242(2) 0.05264(15)
C10E C 1.1624(5) 0.1268(2) 0.02071(16)
C11E C 1.1609(5) 0.1813(3) -0.00709(17)
H9E H 1.1030 0.1827 -0.0284
C12E C 1.2422(6) 0.2325(3) -0.00392(19)
C13E C 1.3269(5) 0.2317(3) 0.0266(2)
H10E H 1.3818 0.2681 0.0285
C14E C 1.3329(5) 0.1784(2) 0.05481(17)
C15E C 1.0721(5) 0.0708(3) 0.0183(2)
H11E H 1.0180 0.0797 -0.0047
H12E H 1.1121 0.0272 0.0139
H13E H 1.0275 0.0690 0.0443
C16E C 1.4244(5) 0.1767(3) 0.0883(2)
H14E H 1.4718 0.2183 0.0872
H15E H 1.3854 0.1734 0.1153
H16E H 1.4758 0.1371 0.0843
C17E C 0.9222(5) 0.0504(2) 0.23755(16)
H17E H 0.8396 0.0515 0.2275
H18E H 0.9620 0.0109 0.2246
C18E C 0.9228(5) 0.0421(3) 0.28335(16)
H19E H 1.0052 0.0381 0.2933
H20E H 0.8806 -0.0003 0.2908
C19E C 0.9244(5) 0.1619(3) 0.29120(18)
H21E H 0.8825 0.2010 0.3037
H22E H 1.0066 0.1619 0.3016
C20E C 0.9251(6) 0.1693(3) 0.24485(18)
H23E H 0.9674 0.2115 0.2372
H24E H 0.8428 0.1732 0.2347
C21G C 0.8707(5) -0.2346(3) 0.34560(19)
H25G H 0.8466 -0.2526 0.3183
H26G H 0.7987 -0.2201 0.3606
C22G C 0.9513(5) -0.1744(3) 0.33970(17)
H27G H 0.9096 -0.1387 0.3238
H28G H 1.0217 -0.1885 0.3237
C23G C 1.0469(5) -0.1999(2) 0.40265(18)
H29G H 1.1192 -0.2145 0.3879
H30G H 1.0702 -0.1817 0.4300
C24G C 0.9650(5) -0.2603(2) 0.40839(17)
H31G H 0.8940 -0.2459 0.4240
H32G H 1.0056 -0.2961 0.4245
C25D C 1.0344(5) 0.0666(3) 0.50839(17)
H33D H 0.9841 0.0923 0.4888
H34D H 1.0847 0.0996 0.5234
C26D C 0.8882(5) -0.0176(3) 0.51541(18)
H35D H 0.8386 -0.0430 0.5354
H36D H 0.8353 0.0068 0.4960
C27_2 C 1.2245(5) -0.0233(3) 0.3747(2)
H37_2 H 1.2328 -0.0387 0.3457
H38_2 H 1.1882 -0.0607 0.3908
C28_2 C 1.2023(5) 0.0902(3) 0.3544(2)
H39_2 H 1.1517 0.1311 0.3569
H40_2 H 1.2085 0.0785 0.3247
C29_2 C 1.3231(5) 0.1056(3) 0.3713(2)
H41_2 H 1.3591 0.1431 0.3551
H42_2 H 1.3162 0.1207 0.4004
C30_2 C 1.3443(5) -0.0073(3) 0.3921(2)
H43_2 H 1.3366 0.0060 0.4215
H44_2 H 1.3950 -0.0482 0.3906
loop_
_geom_bond_atom_site_label_1
_geom_bond_atom_site_label_2
_geom_bond_site_symmetry_1
_geom_bond_site_symmetry_2
Rb1 O1 1_555 1_555
Rb2 O1 1_555 1_555
Cl1 C4 1_555 1_555
Cl2 C12 1_555 1_555
O1 C1 1_555 1_555
O2 Rb1 1_555 1_555
O3 Rb1 1_555 1_555
O4 C18 1_555 1_555
O5 Rb1 1_555 1_555
O6 C22 1_555 1_555
O7 Rb2 1_555 1_555
O8 C27 1_555 1_555
O9 Rb1 1_555 1_555
C1 C2 1_555 1_555
C2 C3 1_555 1_555
C3 H1 1_555 1_555
C4 C3 1_555 1_555
C5 C4 1_555 1_555
H2 C5 1_555 1_555
C6 C1 1_555 1_555
C7 C2 1_555 1_555
H3 C7 1_555 1_555
H4 C7 1_555 1_555
H5 C7 1_555 1_555
C8 C6 1_555 1_555
H6 C8 1_555 1_555
H7 C8 1_555 1_555
H8 C8 1_555 1_555
C9 O2 1_555 1_555
C10 C9 1_555 1_555
C11 C10 1_555 1_555
H9 C11 1_555 1_555
C12 C11 1_555 1_555
C13 C12 1_555 1_555
H10 C13 1_555 1_555
C14 C9 1_555 1_555
C15 C10 1_555 1_555
H11 C15 1_555 1_555
H12 C15 1_555 1_555
H13 C15 1_555 1_555
C16 C14 1_555 1_555
H14 C16 1_555 1_555
H15 C16 1_555 1_555
H16 C16 1_555 1_555
C17 O3 1_555 1_555
H17 C17 1_555 1_555
H18 C17 1_555 1_555
C18 C17 1_555 1_555
H19 C18 1_555 1_555
H20 C18 1_555 1_555
C19 O4 1_555 1_555
H21 C19 1_555 1_555
H22 C19 1_555 1_555
C20 O3 1_555 1_555
H23 C20 1_555 1_555
H24 C20 1_555 1_555
C21 O5 1_555 1_555
H25 C21 1_555 1_555
H26 C21 1_555 1_555
C22 C21 1_555 1_555
H27 C22 1_555 1_555
H28 C22 1_555 1_555
C23 O6 1_555 1_555
H29 C23 1_555 1_555
H30 C23 1_555 1_555
C24 O5 1_555 1_555
H31 C24 1_555 1_555
H32 C24 1_555 1_555
C25 O7 1_555 1_555
H33 C25 1_555 1_555
H34 C25 1_555 1_555
C26 O7 1_555 1_555
H35 C26 1_555 1_555
H36 C26 1_555 1_555
C27 H37 1_555 1_555
H38 C27 1_555 1_555
C28 O8 1_555 1_555
H39 C28 1_555 1_555
H40 C28 1_555 1_555
C29 O9 1_555 1_555
H41 C29 1_555 1_555
H42 C29 1_555 1_555
C30 O9 1_555 1_555
H43 C30 1_555 1_555
H44 C30 1_555 1_555
Rb1E O1E 1_555 1_555
Rb1E_2 O4 1_555 1_555
Rb1G O5G 1_555 1_555
Rb1_2 O9_2 1_555 1_555
Rb2G O6 1_555 1_555
Rb2_2 O8 1_555 1_555
Rb2D O7D 1_555 1_555
Rb2E O1E 1_555 1_555
Cl1E C4E 1_555 1_555
Cl2E C12E 1_555 1_555
O1E C1E 1_555 1_555
O1G Rb2G 1_555 1_555
O2E Rb1E 1_555 1_555
O2G Rb2G 1_555 1_555
O3E Rb1E 1_555 1_555
O4E Rb1 1_555 1_555
O4_2 Rb1E 1_555 1_555
O5G C21G 1_555 1_555
O5E Rb1E 1_555 1_555
O6G Rb2 1_555 1_555
O7D C25D 1_555 1_555
O7G Rb2G 1_555 1_555
O8_2 Rb2 1_555 1_555
O8G Rb2G 1_555 1_555
O9_2 C29_2 1_555 1_555
O9E Rb1E 1_555 1_555
C1E C2E 1_555 1_555
C2E C3E 1_555 1_555
C3E H1E 1_555 1_555
C4E C3E 1_555 1_555
C5E C4E 1_555 1_555
H2E C5E 1_555 1_555
C6E C1E 1_555 1_555
C7E C2E 1_555 1_555
H3E C7E 1_555 1_555
H4E C7E 1_555 1_555
H5E C7E 1_555 1_555
C8E C6E 1_555 1_555
H6E C8E 1_555 1_555
H7E C8E 1_555 1_555
H8E C8E 1_555 1_555
C9E O2E 1_555 1_555
C10E C9E 1_555 1_555
C11E C10E 1_555 1_555
H9E C11E 1_555 1_555
C12E C11E 1_555 1_555
C13E C12E 1_555 1_555
H10E C13E 1_555 1_555
C14E C9E 1_555 1_555
C15E C10E 1_555 1_555
H11E C15E 1_555 1_555
H12E C15E 1_555 1_555
H13E C15E 1_555 1_555
C16E C14E 1_555 1_555
H14E C16E 1_555 1_555
H15E C16E 1_555 1_555
H16E C16E 1_555 1_555
C17E O3E 1_555 1_555
H17E C17E 1_555 1_555
H18E C17E 1_555 1_555
C18E O4E 1_555 1_555
H19E C18E 1_555 1_555
H20E C18E 1_555 1_555
C19E O4E 1_555 1_555
H21E C19E 1_555 1_555
H22E C19E 1_555 1_555
C20E O3E 1_555 1_555
H23E C20E 1_555 1_555
H24E C20E 1_555 1_555
C21G H25G 1_555 1_555
H26G C21G 1_555 1_555
C22G O6G 1_555 1_555
H27G C22G 1_555 1_555
H28G C22G 1_555 1_555
C23G O6G 1_555 1_555
H29G C23G 1_555 1_555
H30G C23G 1_555 1_555
C24G O5G 1_555 1_555
H31G C24G 1_555 1_555
H32G C24G 1_555 1_555
C25D C26 1_555 1_555
H33D C25D 1_555 1_555
H34D C25D 1_555 1_555
C26D C25 1_555 1_555
H35D C26D 1_555 1_555
H36D C26D 1_555 1_555
C27_2 O8_2 1_555 1_555
H37_2 C27_2 1_555 1_555
H38_2 C27_2 1_555 1_555
C28_2 O8_2 1_555 1_555
H39_2 C28_2 1_555 1_555
H40_2 C28_2 1_555 1_555
C29_2 C28_2 1_555 1_555
H41_2 C29_2 1_555 1_555
H42_2 C29_2 1_555 1_555
C30_2 O9_2 1_555 1_555
H43_2 C30_2 1_555 1_555
H44_2 C30_2 1_555 1_555
Rb2 O2 1_555 1_555
C5 C6 1_555 1_555
C13 C14 1_555 1_555
C19 C20 1_555 1_555
C23 C24 1_555 1_555
C27 C30 1_555 1_555
C28 C29 1_555 1_555
Rb2E O2E 1_555 1_555
O7D C26D 1_555 1_555
C5E C6E 1_555 1_555
C13E C14E 1_555 1_555
C17E C18E 1_555 1_555
C19E C20E 1_555 1_555
C21G C22G 1_555 1_555
C23G C24G 1_555 1_555
C27_2 C30_2 1_555 1_555

#END
