
#######################################################################
#
#                 Cambridge Crystallographic Data Centre
#                                CCDC 
#
#######################################################################
#
# If this CIF has been generated from an entry in the Cambridge 
# Structural Database, then it will include bibliographic, chemical, 
# crystal, experimental, refinement or atomic coordinate data resulting 
# from the CCDC's data processing and validation procedures.
#
#######################################################################

data_CIVXOV02
_symmetry_cell_setting           orthorhombic
_symmetry_space_group_name_H-M   'P b c a'
_symmetry_Int_Tables_number      61
_space_group_name_Hall           '-P 2ac 2ab'
loop_
_symmetry_equiv_pos_site_id
_symmetry_equiv_pos_as_xyz
1 x,y,z
2 1/2-x,-y,1/2+z
3 -x,1/2+y,1/2-z
4 1/2+x,1/2-y,-z
5 -x,-y,-z
6 1/2+x,y,1/2-z
7 x,1/2-y,1/2+z
8 1/2-x,1/2+y,z
_cell_length_a                   13.5455(7)
_cell_length_b                   20.7830(10)
_cell_length_c                   27.2925(13)
_cell_angle_alpha                90
_cell_angle_beta                 90
_cell_angle_gamma                90
_cell_volume                     7683.28
loop_
_atom_site_label
_atom_site_type_symbol
_atom_site_fract_x
_atom_site_fract_y
_atom_site_fract_z
Cu1 Cu 0.34041(9) 0.20201(6) 0.13653(5)
Cu2 Cu 0.26828(9) 0.08188(6) 0.16119(5)
Cu3 Cu 0.15152(9) 0.16204(6) 0.10737(5)
Cu4 Cu 0.32305(10) 0.10963(6) 0.07170(5)
I1 I 0.19630(5) 0.18971(3) 0.20255(2)
I2 I 0.45983(5) 0.09778(3) 0.14385(3)
I3 I 0.27312(5) 0.22954(3) 0.04551(2)
I4 I 0.15893(5) 0.03968(3) 0.08423(2)
S1 S 0.42781(17) 0.29196(12) 0.15885(9)
S2 S 0.25502(19) 0.50935(12) 0.22293(9)
S3 S 0.01328(17) 0.22285(12) 0.08846(8)
S4 S -0.0933(2) 0.43587(14) -0.00768(10)
O1 O 0.5521(5) 0.3615(4) 0.2656(3)
O2 O -0.1294(5) 0.3325(4) 0.1524(3)
N1 N 0.3978(5) 0.3957(3) 0.2460(3)
N2 N -0.0385(6) 0.3887(4) 0.0970(3)
C1 C 0.6152(9) 0.3437(9) 0.1471(5)
H1 H 0.6146 0.3475 0.1829
H2 H 0.6837 0.3363 0.1369
C2 C 0.5805(14) 0.4048(8) 0.1257(10)
H3 H 0.6273 0.4390 0.1340
H4 H 0.5166 0.4160 0.1402
C3 C 0.5692(16) 0.4016(12) 0.0694(10)
H5 H 0.5349 0.4400 0.0574
H6 H 0.6343 0.3995 0.0538
C4 C 0.5108(12) 0.3424(11) 0.0573(6)
H7 H 0.4431 0.3490 0.0689
H8 H 0.5080 0.3385 0.0215
C5 C 0.5473(9) 0.2802(8) 0.0776(5)
H9 H 0.6125 0.2703 0.0640
H10 H 0.5019 0.2454 0.0686
C6 C 0.5536(8) 0.2857(7) 0.1325(5)
H11 H 0.5856 0.2464 0.1456
C7 C 0.4519(7) 0.2858(5) 0.2245(3)
H12 H 0.3953 0.2652 0.2404
H13 H 0.5097 0.2583 0.2297
C8 C 0.4702(7) 0.3513(5) 0.2483(3)
C9 C 0.2960(7) 0.3818(4) 0.2358(3)
H14 H 0.2581 0.3840 0.2663
H15 H 0.2906 0.3379 0.2230
C10 C 0.2523(6) 0.4280(4) 0.1992(3)
H16 H 0.1840 0.4156 0.1921
H17 H 0.2899 0.4260 0.1686
C11 C 0.3848(7) 0.5122(5) 0.2360(4)
H18 H 0.4216 0.5097 0.2052
H19 H 0.4004 0.5536 0.2514
C12 C 0.4188(8) 0.4581(5) 0.2696(4)
H20 H 0.4898 0.4621 0.2759
H21 H 0.3841 0.4609 0.3010
C13 C -0.1356(8) 0.1409(6) 0.0667(4)
H22 H -0.0860 0.1071 0.0622
H23 H -0.1411 0.1649 0.0359
C14 C -0.2356(9) 0.1105(6) 0.0795(6)
H24 H -0.2869 0.1437 0.0785
H25 H -0.2521 0.0779 0.0549
C15 C -0.2346(10) 0.0796(7) 0.1298(7)
H26 H -0.3012 0.0642 0.1376
H27 H -0.1904 0.0423 0.1293
C16 C -0.2019(11) 0.1244(7) 0.1686(5)
H28 H -0.1979 0.1014 0.1998
H29 H -0.2505 0.1590 0.1721
C17 C -0.0997(9) 0.1539(6) 0.1563(4)
H30 H -0.0817 0.1855 0.1814
H31 H -0.0494 0.1200 0.1562
C18 C -0.1035(7) 0.1857(5) 0.1072(4)
H32 H -0.1533 0.2204 0.1092
C19 C 0.0255(7) 0.2875(4) 0.1335(4)
H33 H 0.0221 0.2691 0.1665
H34 H 0.0904 0.3078 0.1297
C20 C -0.0534(7) 0.3377(5) 0.1280(4)
C21 C -0.1157(8) 0.4356(5) 0.0918(4)
H35 H -0.0869 0.4789 0.0914
H36 H -0.1608 0.4328 0.1197
C22 C -0.1727(8) 0.4242(5) 0.0444(4)
H37 H -0.2286 0.4541 0.0425
H38 H -0.1989 0.3802 0.0441
C23 C 0.0028(7) 0.3806(6) 0.0094(4)
H39 H -0.0227 0.3365 0.0075
H40 H 0.0576 0.3844 -0.0139
C24 C 0.0407(7) 0.3933(5) 0.0609(4)
H41 H 0.0924 0.3620 0.0689
H42 H 0.0700 0.4364 0.0623
Cu2G Cu 0.23172(9) 0.58188(6) 0.16119(5)
Cu4C Cu -0.17695(10) 0.39037(6) -0.07170(5)
S2G S 0.24498(19) 0.00935(12) 0.22293(9)
S4C S 0.4067(2) 0.06413(14) 0.00768(10)
loop_
_geom_bond_atom_site_label_1
_geom_bond_atom_site_label_2
_geom_bond_site_symmetry_1
_geom_bond_site_symmetry_2
Cu1 I1 1_555 1_555
Cu2 I1 1_555 1_555
Cu3 I1 1_555 1_555
Cu4 I2 1_555 1_555
I2 Cu1 1_555 1_555
I3 Cu1 1_555 1_555
I4 Cu2 1_555 1_555
S1 Cu1 1_555 1_555
S2 C10 1_555 1_555
S3 Cu3 1_555 1_555
S4 C22 1_555 1_555
O1 C8 1_555 1_555
O2 C20 1_555 1_555
N1 C8 1_555 1_555
N2 C20 1_555 1_555
C1 H1 1_555 1_555
H2 C1 1_555 1_555
C2 C1 1_555 1_555
H3 C2 1_555 1_555
H4 C2 1_555 1_555
C3 C2 1_555 1_555
H5 C3 1_555 1_555
H6 C3 1_555 1_555
C4 C3 1_555 1_555
H7 C4 1_555 1_555
H8 C4 1_555 1_555
C5 C4 1_555 1_555
H9 C5 1_555 1_555
H10 C5 1_555 1_555
C6 S1 1_555 1_555
H11 C6 1_555 1_555
C7 S1 1_555 1_555
H12 C7 1_555 1_555
H13 C7 1_555 1_555
C8 C7 1_555 1_555
C9 N1 1_555 1_555
H14 C9 1_555 1_555
H15 C9 1_555 1_555
C10 C9 1_555 1_555
H16 C10 1_555 1_555
H17 C10 1_555 1_555
C11 S2 1_555 1_555
H18 C11 1_555 1_555
H19 C11 1_555 1_555
C12 N1 1_555 1_555
H20 C12 1_555 1_555
H21 C12 1_555 1_555
C13 H22 1_555 1_555
H23 C13 1_555 1_555
C14 C13 1_555 1_555
H24 C14 1_555 1_555
H25 C14 1_555 1_555
C15 C14 1_555 1_555
H26 C15 1_555 1_555
H27 C15 1_555 1_555
C16 C15 1_555 1_555
H28 C16 1_555 1_555
H29 C16 1_555 1_555
C17 C16 1_555 1_555
H30 C17 1_555 1_555
H31 C17 1_555 1_555
C18 S3 1_555 1_555
H32 C18 1_555 1_555
C19 S3 1_555 1_555
H33 C19 1_555 1_555
H34 C19 1_555 1_555
C20 C19 1_555 1_555
C21 N2 1_555 1_555
H35 C21 1_555 1_555
H36 C21 1_555 1_555
C22 C21 1_555 1_555
H37 C22 1_555 1_555
H38 C22 1_555 1_555
C23 S4 1_555 1_555
H39 C23 1_555 1_555
H40 C23 1_555 1_555
C24 N2 1_555 1_555
H41 C24 1_555 1_555
H42 C24 1_555 1_555
Cu2G S2 1_555 1_555
Cu4C S4 1_555 1_555
S2G Cu2 1_555 1_555
S4C Cu4 1_555 1_555
Cu2 I2 1_555 1_555
Cu3 I3 1_555 1_555
Cu3 I4 1_555 1_555
Cu4 I3 1_555 1_555
Cu4 I4 1_555 1_555
C1 C6 1_555 1_555
C5 C6 1_555 1_555
C11 C12 1_555 1_555
C13 C18 1_555 1_555
C17 C18 1_555 1_555
C23 C24 1_555 1_555

#END
