
#######################################################################
#
#                 Cambridge Crystallographic Data Centre
#                                CCDC 
#
#######################################################################
#
# If this CIF has been generated from an entry in the Cambridge 
# Structural Database, then it will include bibliographic, chemical, 
# crystal, experimental, refinement or atomic coordinate data resulting 
# from the CCDC's data processing and validation procedures.
#
#######################################################################

data_CIWMIG
_symmetry_cell_setting           monoclinic
_symmetry_space_group_name_H-M   'C 2/c'
_symmetry_Int_Tables_number      15
_space_group_name_Hall           '-C 2yn'
loop_
_symmetry_equiv_pos_site_id
_symmetry_equiv_pos_as_xyz
1 x,y,z
2 -x,y,1/2-z
3 1/2+x,1/2+y,z
4 1/2-x,1/2+y,1/2-z
5 -x,-y,-z
6 x,-y,1/2+z
7 1/2-x,1/2-y,-z
8 1/2+x,1/2-y,1/2+z
_cell_length_a                   12.3367(10)
_cell_length_b                   6.6511(7)
_cell_length_c                   15.0426(12)
_cell_angle_alpha                90
_cell_angle_beta                 108.302(8)
_cell_angle_gamma                90
_cell_volume                     1171.85
loop_
_atom_site_label
_atom_site_type_symbol
_atom_site_fract_x
_atom_site_fract_y
_atom_site_fract_z
O1 O 0.18433(16) 0.1845(4) 0.16206(14)
O2 O -0.12795(18) 0.2218(3) -0.02225(15)
O3 O -0.15021(16) 0.3442(4) -0.16168(14)
N1 N 0.2696(2) 0.1961(4) 0.12132(17)
N2 N 0.0777(2) 0.2230(4) 0.09736(18)
N3 N 0.02425(19) 0.3136(4) -0.06813(17)
N4 N -0.0855(2) 0.2895(4) -0.08144(17)
C1 C 0.0981(2) 0.2580(4) 0.0183(2)
C2 C 0.2189(2) 0.2394(4) 0.0339(2)
Sr1 Sr 0.0000 0.43124(6) -0.2500
O4 O 0.0000 0.0654(4) -0.2500
O5 O -0.12715(19) 0.7289(3) -0.33388(16)
H1 H -0.135(3) 0.739(6) -0.391(4)
H2 H -0.047(3) -0.018(4) -0.282(2)
H3 H -0.199(4) 0.758(6) -0.335(3)
O1F O 0.31567(16) 0.3155(4) -0.16206(14)
O2F O 0.62795(18) 0.2782(3) 0.02225(15)
O3F O 0.65021(16) 0.1558(4) 0.16168(14)
N1F N 0.2304(2) 0.3039(4) -0.12132(17)
N2F N 0.4223(2) 0.2770(4) -0.09736(18)
N3F N 0.47575(19) 0.1864(4) 0.06813(17)
N4F N 0.5855(2) 0.2105(4) 0.08144(17)
C1F C 0.4019(2) 0.2420(4) -0.0183(2)
C2F C 0.2811(2) 0.2606(4) -0.0339(2)
H2A H 0.047(3) -0.018(4) -0.218(2)
O5A O 0.12715(19) 0.7289(3) -0.16612(16)
H1A H 0.135(3) 0.739(6) -0.109(4)
H3A H 0.199(4) 0.758(6) -0.165(3)
O3A O 0.15021(16) 0.3442(4) -0.33832(14)
N1G N -0.2304(2) 0.3039(4) -0.37868(17)
N3A N -0.02425(19) 0.3136(4) -0.43187(17)
Sr1F Sr 0.5000 0.06876(6) 0.2500
loop_
_geom_bond_atom_site_label_1
_geom_bond_atom_site_label_2
_geom_bond_site_symmetry_1
_geom_bond_site_symmetry_2
O1 N1 1_555 1_555
O2 N4 1_555 1_555
O3 N4 1_555 1_555
N1 C2 1_555 1_555
N2 O1 1_555 1_555
N3 N4 1_555 1_555
C1 N2 1_555 1_555
C2 C1 1_555 1_555
Sr1 O3 1_555 1_555
O4 Sr1 1_555 1_555
O5 Sr1 1_555 1_555
H1 O5 1_555 1_555
H2 O4 1_555 1_555
H3 O5 1_555 1_555
O1F N1F 1_555 1_555
O2F N4F 1_555 1_555
O3F N4F 1_555 1_555
N1F Sr1 1_555 1_555
N2F O1F 1_555 1_555
N3F N4F 1_555 1_555
C1F N2F 1_555 1_555
C2F C2 1_555 1_555
H2A O4 1_555 1_555
O5A Sr1 1_555 1_555
H1A O5A 1_555 1_555
H3A O5A 1_555 1_555
O3A Sr1 1_555 1_555
N1G Sr1 1_555 1_555
N3A Sr1 1_555 1_555
Sr1F N1 1_555 1_555
N3 C1 1_555 1_555
N3 Sr1 1_555 1_555
O3F Sr1F 1_555 1_555
N1F C2F 1_555 1_555
N3F C1F 1_555 1_555
N3F Sr1F 1_555 1_555
C1F C2F 1_555 1_555

#END
