
#######################################################################
#
#                 Cambridge Crystallographic Data Centre
#                                CCDC 
#
#######################################################################
#
# If this CIF has been generated from an entry in the Cambridge 
# Structural Database, then it will include bibliographic, chemical, 
# crystal, experimental, refinement or atomic coordinate data resulting 
# from the CCDC's data processing and validation procedures.
#
#######################################################################

data_CIWMOM
_symmetry_cell_setting           monoclinic
_symmetry_space_group_name_H-M   'P 2/c'
_symmetry_Int_Tables_number      13
_space_group_name_Hall           '-P 2yc'
loop_
_symmetry_equiv_pos_site_id
_symmetry_equiv_pos_as_xyz
1 x,y,z
2 -x,y,1/2-z
3 -x,-y,-z
4 x,-y,1/2+z
_cell_length_a                   8.0472(5)
_cell_length_b                   6.4775(4)
_cell_length_c                   12.1854(9)
_cell_angle_alpha                90
_cell_angle_beta                 117.209(5)
_cell_angle_gamma                90
_cell_volume                     564.888
loop_
_atom_site_label
_atom_site_type_symbol
_atom_site_fract_x
_atom_site_fract_y
_atom_site_fract_z
Ca1 Ca 0.0000 0.14542(8) 0.2500
O1 O 0.81949(16) 0.3162(2) 0.48251(11)
O2 O 0.44550(16) 0.2347(2) 0.60931(11)
O3 O 0.15666(16) 0.1584(2) 0.47876(11)
O4 O 0.0000 0.4968(3) 0.2500
O5 O 0.16037(18) -0.1355(2) 0.21003(13)
N1 N 0.7437(2) 0.3151(3) 0.35593(13)
N2 N 0.6835(2) 0.2820(3) 0.52134(14)
N3 N 0.34783(19) 0.2183(2) 0.40218(13)
N4 N 0.32436(19) 0.2056(2) 0.50152(13)
C1 C 0.5266(2) 0.2627(3) 0.41943(16)
C2 C 0.5648(2) 0.2853(3) 0.31534(16)
H1 H -0.057(3) 0.568(4) 0.2697(19)
H2 H 0.262(3) -0.155(3) 0.263(2)
H3 H 0.165(3) -0.148(3) 0.149(2)
O1A O 0.18051(16) 0.3162(2) 0.01749(11)
O2A O 0.55450(16) 0.2347(2) -0.10931(11)
O3A O 0.84334(16) 0.1584(2) 0.02124(11)
N1A N 0.2563(2) 0.3151(3) 0.14407(13)
N2A N 0.3165(2) 0.2820(3) -0.02134(14)
N3A N 0.65217(19) 0.2183(2) 0.09782(13)
N4A N 0.67564(19) 0.2056(2) -0.00152(13)
C1A C 0.4734(2) 0.2627(3) 0.08057(16)
C2A C 0.4352(2) 0.2853(3) 0.18466(16)
H1A H 0.057(3) 0.568(4) 0.2303(19)
O5A O -0.16037(18) -0.1355(2) 0.28997(13)
H2A H -0.262(3) -0.155(3) 0.237(2)
H3A H -0.165(3) -0.148(3) 0.351(2)
Ca1_2 Ca 1.0000 0.14542(8) 0.2500
O3A_2 O -0.15666(16) 0.1584(2) 0.02124(11)
N3A_2 N -0.34783(19) 0.2183(2) 0.09782(13)
loop_
_geom_bond_atom_site_label_1
_geom_bond_atom_site_label_2
_geom_bond_site_symmetry_1
_geom_bond_site_symmetry_2
Ca1 O3 1_555 1_555
O1 N1 1_555 1_555
O2 N4 1_555 1_555
O3 N4 1_555 1_555
O4 Ca1 1_555 1_555
O5 Ca1 1_555 1_555
N1 C2 1_555 1_555
N2 O1 1_555 1_555
N3 Ca1 1_555 1_555
N4 N3 1_555 1_555
C1 N2 1_555 1_555
C2 C1 1_555 1_555
H1 O4 1_555 1_555
H2 O5 1_555 1_555
H3 O5 1_555 1_555
O1A N1A 1_555 1_555
O2A N4A 1_555 1_555
O3A N4A 1_555 1_555
N1A C2A 1_555 1_555
N2A O1A 1_555 1_555
N3A N4A 1_555 1_555
C1A N2A 1_555 1_555
C2A C2 1_555 1_555
H1A O4 1_555 1_555
O5A Ca1 1_555 1_555
H2A O5A 1_555 1_555
H3A O5A 1_555 1_555
Ca1_2 O3A 1_555 1_555
O3A_2 Ca1 1_555 1_555
N3A_2 Ca1 1_555 1_555
N3 C1 1_555 1_555
N3A C1A 1_555 1_555
N3A Ca1_2 1_555 1_555
C1A C2A 1_555 1_555

#END
