
#######################################################################
#
#                 Cambridge Crystallographic Data Centre
#                                CCDC 
#
#######################################################################
#
# If this CIF has been generated from an entry in the Cambridge 
# Structural Database, then it will include bibliographic, chemical, 
# crystal, experimental, refinement or atomic coordinate data resulting 
# from the CCDC's data processing and validation procedures.
#
#######################################################################

data_CIWTIL
_symmetry_cell_setting           monoclinic
_symmetry_space_group_name_H-M   'P 21/c'
_symmetry_Int_Tables_number      14
_space_group_name_Hall           '-P 2ybc'
loop_
_symmetry_equiv_pos_site_id
_symmetry_equiv_pos_as_xyz
1 x,y,z
2 -x,1/2+y,1/2-z
3 -x,-y,-z
4 x,1/2-y,1/2+z
_cell_length_a                   10.633(8)
_cell_length_b                   11.324(5)
_cell_length_c                   17.680(14)
_cell_angle_alpha                90
_cell_angle_beta                 98.25(7)
_cell_angle_gamma                90
_cell_volume                     2106.78
loop_
_atom_site_label
_atom_site_type_symbol
_atom_site_fract_x
_atom_site_fract_y
_atom_site_fract_z
Ni1 Ni 0.2155(1) 0.1643(1) 0.1448(1)
N1 N 0.0402(9) 0.0875(7) 0.1410(4)
N2 N 0.1193(9) 0.2739(7) 0.2092(4)
N3 N -0.1716(10) 0.1187(9) 0.1596(6)
N4 N -0.0699(10) 0.3027(8) 0.2625(5)
C1 C -0.0477(11) 0.1426(8) 0.1697(5)
C2 C 0.0059(10) 0.2475(9) 0.2181(5)
O1 O -0.0155(9) -0.0089(7) 0.0953(4)
O2 O 0.1659(8) 0.3689(6) 0.2559(4)
N5 N 0.1567(9) 0.2613(8) 0.0446(4)
N6 N 0.2832(8) 0.0636(8) 0.0607(4)
N7 N 0.1488(10) 0.2569(8) -0.0884(4)
N8 N 0.3437(9) 0.0806(8) -0.0633(4)
C3 C 0.1898(10) 0.2168(9) -0.0172(5)
C4 C 0.2769(10) 0.1166(9) -0.0060(5)
O3 O 0.0603(8) 0.3453(7) 0.0293(4)
O4 O 0.3721(8) -0.0268(7) 0.0686(4)
O5 O 0.2845(9) 0.0715(7) 0.2412(4)
O6 O 0.3777(9) -0.0923(7) 0.2078(4)
O7 O 0.6137(8) -0.2543(7) 0.3425(4)
O8 O 0.6349(9) -0.0695(7) 0.3049(5)
C5 C 0.3404(11) -0.0224(9) 0.2557(5)
C6 C 0.5787(11) -0.1458(9) 0.3371(5)
C7 C 0.3608(11) -0.0589(9) 0.3401(5)
C8 C 0.4647(11) -0.1175(10) 0.3741(5)
C9 C 0.4722(13) -0.1503(11) 0.4518(6)
C10 C 0.3769(13) -0.1226(12) 0.4915(6)
C11 C 0.2698(15) -0.0671(11) 0.4570(6)
C12 C 0.2605(12) -0.0344(10) 0.3801(6)
O7A O 0.3863(8) 0.2457(7) 0.1575(4)
Ni1A Ni 0.7845(1) -0.3357(1) 0.3552(1)
O9 O 0.4345(9) 0.2548(8) 0.8410(4)
O10 O 0.9332(11) 0.0359(8) 0.3697(5)
O11 O 0.8618(11) 0.1786(9) 0.9539(6)
O12 O 0.7078(14) 0.1666(11) 0.3021(9)
loop_
_geom_bond_atom_site_label_1
_geom_bond_atom_site_label_2
_geom_bond_site_symmetry_1
_geom_bond_site_symmetry_2
Ni1 N1 1_555 1_555
N1 C1 1_555 1_555
N2 Ni1 1_555 1_555
N3 C1 1_555 1_555
N4 C2 1_555 1_555
C1 C2 1_555 1_555
C2 N2 1_555 1_555
O1 N1 1_555 1_555
O2 N2 1_555 1_555
N5 Ni1 1_555 1_555
N6 Ni1 1_555 1_555
N7 C3 1_555 1_555
N8 C4 1_555 1_555
C3 N5 1_555 1_555
C4 N6 1_555 1_555
O3 N5 1_555 1_555
O4 N6 1_555 1_555
O5 Ni1 1_555 1_555
O6 C5 1_555 1_555
O7 C6 1_555 1_555
O8 C6 1_555 1_555
C5 O5 1_555 1_555
C6 C8 1_555 1_555
C7 C5 1_555 1_555
C8 C7 1_555 1_555
C9 C8 1_555 1_555
C10 C9 1_555 1_555
C11 C10 1_555 1_555
C12 C7 1_555 1_555
O7A Ni1 1_555 1_555
Ni1A O7 1_555 1_555
C3 C4 1_555 1_555
C11 C12 1_555 1_555

#END
