
#######################################################################
#
#                 Cambridge Crystallographic Data Centre
#                                CCDC 
#
#######################################################################
#
# If this CIF has been generated from an entry in the Cambridge 
# Structural Database, then it will include bibliographic, chemical, 
# crystal, experimental, refinement or atomic coordinate data resulting 
# from the CCDC's data processing and validation procedures.
#
#######################################################################

data_CIWTOS
_symmetry_cell_setting           monoclinic
_symmetry_space_group_name_H-M   'P 21/c'
_symmetry_Int_Tables_number      14
_space_group_name_Hall           '-P 2ybc'
loop_
_symmetry_equiv_pos_site_id
_symmetry_equiv_pos_as_xyz
1 x,y,z
2 -x,1/2+y,1/2-z
3 -x,-y,-z
4 x,1/2-y,1/2+z
_cell_length_a                   15.3413(9)
_cell_length_b                   7.9415(4)
_cell_length_c                   14.9097(9)
_cell_angle_alpha                90
_cell_angle_beta                 117.371(4)
_cell_angle_gamma                90
_cell_volume                     1613.13
loop_
_atom_site_label
_atom_site_type_symbol
_atom_site_fract_x
_atom_site_fract_y
_atom_site_fract_z
C1 C -0.3129(2) 0.1510(3) 0.0633(2)
H1 H -0.3343 0.2598 0.0409
C2 C -0.2287(2) 0.1293(3) 0.15271(19)
H2 H -0.1936 0.2230 0.1886
C3 C -0.24908(16) -0.1569(3) 0.13584(16)
C4 C -0.33418(17) -0.1336(3) 0.04375(17)
C5 C -0.20414(17) -0.3209(3) 0.18826(18)
C6 C -0.40262(17) -0.2658(3) -0.02839(17)
C7 C -0.8269(2) -0.3841(3) -0.4244(2)
H3 H -0.8155 -0.4940 -0.4002
C8 C -0.9085(2) -0.3489(3) -0.51354(19)
H4 H -0.9488 -0.4367 -0.5512
C9 C -0.87144(16) -0.0679(3) -0.49270(16)
C10 C -0.78391(15) -0.1039(3) -0.40504(15)
C11 C -0.91273(18) 0.1024(3) -0.53842(17)
C12 C -0.70304(15) 0.0156(3) -0.33600(16)
Li1 Li -0.4924(3) 0.0277(6) -0.1557(3)
Li2 Li -0.0456(3) -0.1053(5) 0.3065(3)
N1 N -0.36462(15) 0.0222(3) 0.00823(15)
N2 N -0.19698(14) -0.0232(2) 0.18818(14)
N3 N -0.93097(15) -0.1938(3) -0.54689(14)
N4 N -0.76397(16) -0.2636(3) -0.37213(16)
O1 O -0.53187(16) 0.2659(3) -0.13886(16)
O2 O -0.42243(14) 0.0653(2) -0.23731(14)
O3 O -0.99446(13) 0.1034(2) -0.61470(12)
O4 O 0.02158(14) -0.1093(2) 0.22662(14)
O5 O -0.12608(12) -0.3144(2) 0.26734(13)
O6 O -0.24547(15) -0.4600(2) 0.15083(16)
O7 O -0.38628(14) -0.4221(2) -0.00814(14)
O8 O -0.47216(13) -0.2138(2) -0.10579(13)
O9 O -0.62851(13) -0.0447(2) -0.26899(14)
O10 O -0.71593(14) 0.1755(2) -0.34880(15)
O11 O -0.86572(14) 0.2348(2) -0.49878(15)
H5 H 0.017(2) -0.198(3) 0.1844(19)
H6 H -0.3649(19) 0.128(5) -0.208(3)
H7 H -0.767(2) 0.195(7) -0.405(2)
H8 H -0.455(2) 0.141(4) -0.290(2)
H9 H 0.054(3) -0.014(3) 0.221(3)
H10 H -0.294(4) -0.453(11) 0.091(2)
H11 H -0.565(4) 0.324(8) -0.200(3)
H12 H -0.494(4) 0.359(5) -0.106(4)
Li2_2 Li -1.0456(3) -0.1053(5) -0.6935(3)
N3_2 N 0.06903(15) -0.1938(3) 0.45311(14)
O3_2 O 0.00554(13) 0.1034(2) 0.38530(12)
loop_
_geom_bond_atom_site_label_1
_geom_bond_atom_site_label_2
_geom_bond_site_symmetry_1
_geom_bond_site_symmetry_2
C1 H1 1_555 1_555
C2 C1 1_555 1_555
H2 C2 1_555 1_555
C3 C4 1_555 1_555
C4 C6 1_555 1_555
C5 C3 1_555 1_555
C6 O7 1_555 1_555
C7 H3 1_555 1_555
C8 C7 1_555 1_555
H4 C8 1_555 1_555
C9 C10 1_555 1_555
C10 C12 1_555 1_555
C11 C9 1_555 1_555
C12 O9 1_555 1_555
Li1 N1 1_555 1_555
Li2 N2 1_555 1_555
N1 C1 1_555 1_555
N2 C2 1_555 1_555
N3 C8 1_555 1_555
N4 C7 1_555 1_555
O1 Li1 1_555 1_555
O2 Li1 1_555 1_555
O3 C11 1_555 1_555
O4 Li2 1_555 1_555
O5 C5 1_555 1_555
O6 C5 1_555 1_555
O8 C6 1_555 1_555
O9 Li1 1_555 1_555
O10 C12 1_555 1_555
O11 C11 1_555 1_555
H5 O4 1_555 1_555
H6 O2 1_555 1_555
H7 O10 1_555 1_555
H8 O2 1_555 1_555
H9 O4 1_555 1_555
H10 O6 1_555 1_555
H11 O1 1_555 1_555
H12 O1 1_555 1_555
Li2_2 N3 1_555 1_555
N3_2 Li2 1_555 1_555
O3_2 Li2 1_555 1_555
C3 N2 1_555 1_555
C4 N1 1_555 1_555
C9 N3 1_555 1_555
C10 N4 1_555 1_555
Li1 O8 1_555 1_555
Li2 O5 1_555 1_555
O3 Li2_2 1_555 1_555

#END
