
#######################################################################
#
#                 Cambridge Crystallographic Data Centre
#                                CCDC 
#
#######################################################################
#
# If this CIF has been generated from an entry in the Cambridge 
# Structural Database, then it will include bibliographic, chemical, 
# crystal, experimental, refinement or atomic coordinate data resulting 
# from the CCDC's data processing and validation procedures.
#
#######################################################################

data_CIWXEN
_symmetry_cell_setting           monoclinic
_symmetry_space_group_name_H-M   'P 21/c'
_symmetry_Int_Tables_number      14
_space_group_name_Hall           '-P 2ybc'
loop_
_symmetry_equiv_pos_site_id
_symmetry_equiv_pos_as_xyz
1 x,y,z
2 -x,1/2+y,1/2-z
3 -x,-y,-z
4 x,1/2-y,1/2+z
_cell_length_a                   10.142(5)
_cell_length_b                   6.209(5)
_cell_length_c                   12.345(5)
_cell_angle_alpha                90
_cell_angle_beta                 106.184(5)
_cell_angle_gamma                90
_cell_volume                     746.579
loop_
_atom_site_label
_atom_site_type_symbol
_atom_site_fract_x
_atom_site_fract_y
_atom_site_fract_z
O1 O 0.30172(16) 0.9931(3) 0.37814(13)
O2 O 0.08881(15) 1.0037(2) 0.38593(12)
O3 O -0.21649(16) 0.9996(3) 0.10392(13)
N1 N -0.10408(18) 0.9982(3) 0.20039(15)
N2 N 0.17398(18) 0.9984(3) 0.32968(15)
N3 N 0.14164(18) 0.9964(3) 0.21839(14)
N4 N -0.17382(19) 1.0010(3) 0.00732(15)
C1 C -0.0410(2) 0.9991(3) 0.04012(17)
C2 C 0.0044(2) 0.9982(3) 0.16239(17)
O4 O 0.23744(17) 0.5357(3) 0.12395(15)
O5 O 0.4813(2) 0.7882(6) 0.04145(17)
Na1 Na 0.35740(9) 0.87925(15) 0.17646(7)
O6 O 0.54753(18) 0.7377(3) 0.32128(15)
H1 H 0.183(3) 0.517(5) 0.163(2)
H2 H 0.201(3) 0.523(5) 0.060(3)
H3 H 0.486(7) 0.930(6) 0.030(14)
H4 H 0.561(3) 0.726(8) 0.075(4)
H5 H 0.518(5) 0.756(10) 0.383(3)
H6 H 0.624(3) 0.812(6) 0.323(3)
O1B O -0.30172(16) 1.0069(3) -0.37814(13)
O2B O -0.08881(15) 0.9963(2) -0.38593(12)
O3B O 0.21649(16) 1.0004(3) -0.10392(13)
N1B N 0.10408(18) 1.0018(3) -0.20039(15)
N2B N -0.17398(18) 1.0016(3) -0.32968(15)
N3B N -0.14164(18) 1.0036(3) -0.21839(14)
N4B N 0.17382(19) 0.9990(3) -0.00732(15)
C1B C 0.0410(2) 1.0009(3) -0.04012(17)
C2B C -0.0044(2) 1.0018(3) -0.16239(17)
O4B O -0.23744(17) 1.4643(3) -0.12395(15)
O5B O -0.4813(2) 1.2118(6) -0.04145(17)
Na1B Na -0.35740(9) 1.12075(15) -0.17646(7)
O6B O -0.54753(18) 1.2623(3) -0.32128(15)
H1B H -0.183(3) 1.483(5) -0.163(2)
H2B H -0.201(3) 1.477(5) -0.060(3)
H3B H -0.486(7) 1.070(6) -0.030(14)
H4B H -0.561(3) 1.274(8) -0.075(4)
H5B H -0.518(5) 1.244(10) -0.383(3)
H6B H -0.624(3) 1.188(6) -0.323(3)
Na1A Na 0.64260(9) 0.37925(15) 0.32354(7)
Na1C Na -0.64260(9) 1.62075(15) -0.32354(7)
O6A O 0.45247(18) 1.2377(3) 0.17872(15)
O6C O -0.45247(18) 0.7623(3) -0.17872(15)
loop_
_geom_bond_atom_site_label_1
_geom_bond_atom_site_label_2
_geom_bond_site_symmetry_1
_geom_bond_site_symmetry_2
O1 N2 1_555 1_555
O2 N2 1_555 1_555
O3 N1 1_555 1_555
N1 C2 1_555 1_555
N2 N3 1_555 1_555
N3 C2 1_555 1_555
N4 O3 1_555 1_555
C1 N4 1_555 1_555
C2 C1 1_555 1_555
O4 Na1 1_555 1_555
O5 Na1 1_555 1_555
Na1 O1 1_555 1_555
O6 Na1 1_555 1_555
H1 O4 1_555 1_555
H2 O4 1_555 1_555
H3 O5 1_555 1_555
H4 O5 1_555 1_555
H5 O6 1_555 1_555
H6 O6 1_555 1_555
O1B N2B 1_555 1_555
O2B N2B 1_555 1_555
O3B N1B 1_555 1_555
N1B C2B 1_555 1_555
N2B N3B 1_555 1_555
N3B C2B 1_555 1_555
N4B Na1 1_555 1_555
C1B C1 1_555 1_555
C2B C1B 1_555 1_555
O4B Na1B 1_555 1_555
O5B Na1B 1_555 1_555
Na1B N4 1_555 1_555
O6B Na1B 1_555 1_555
H1B O4B 1_555 1_555
H2B O4B 1_555 1_555
H3B O5B 1_555 1_555
H4B O5B 1_555 1_555
H5B O6B 1_555 1_555
H6B O6B 1_555 1_555
Na1A O6 1_555 1_555
Na1C O6B 1_555 1_555
O6A Na1 1_555 1_555
O6C Na1B 1_555 1_555
N3 Na1 1_555 1_555
O1B Na1B 1_555 1_555
O3B N4B 1_555 1_555
N3B Na1B 1_555 1_555
N4B C1B 1_555 1_555

#END
