
#######################################################################
#
#                 Cambridge Crystallographic Data Centre
#                                CCDC 
#
#######################################################################
#
# If this CIF has been generated from an entry in the Cambridge 
# Structural Database, then it will include bibliographic, chemical, 
# crystal, experimental, refinement or atomic coordinate data resulting 
# from the CCDC's data processing and validation procedures.
#
#######################################################################

data_CIWYUE
_symmetry_cell_setting           triclinic
_symmetry_space_group_name_H-M   'P -1'
_symmetry_Int_Tables_number      2
_space_group_name_Hall           '-P 1'
loop_
_symmetry_equiv_pos_site_id
_symmetry_equiv_pos_as_xyz
1 x,y,z
2 -x,-y,-z
_cell_length_a                   11.2260(16)
_cell_length_b                   16.255(2)
_cell_length_c                   19.936(3)
_cell_angle_alpha                98.772(2)
_cell_angle_beta                 91.718(2)
_cell_angle_gamma                105.780(2)
_cell_volume                     3450.07
loop_
_atom_site_label
_atom_site_type_symbol
_atom_site_fract_x
_atom_site_fract_y
_atom_site_fract_z
Fe1 Fe 0.0000 0.0000 0.0000
Fe2 Fe 0.0000 0.0000 0.5000
Fe3 Fe 0.68804(7) 0.43095(5) 0.74800(4)
Ni1 Ni -0.14086(6) -0.32770(4) -0.05645(3)
Ni2 Ni 0.05959(6) -0.01068(4) 0.24981(3)
Ni3 Ni 0.38924(7) 0.25547(5) 0.55371(4)
N1 N -0.0869(4) -0.1968(3) -0.0045(2)
N2 N 0.0820(4) 0.0273(3) 0.1521(2)
N3 N -0.2537(6) 0.0217(5) 0.0366(3)
N4 N -0.1429(4) -0.3777(2) 0.02606(19)
N5 N -0.1381(7) -0.2792(4) -0.1431(3)
H1 H -0.1643 -0.3324 -0.1697
N6 N 0.0394(4) -0.3323(3) -0.0456(2)
N7 N -0.3207(4) -0.3415(3) -0.0332(3)
N8 N -0.0573(5) -0.1237(3) 0.1983(2)
N9 N 0.2221(5) -0.0384(4) 0.2446(3)
H2 H 0.2494 -0.0238 0.2044
N10 N 0.1151(5) 0.1139(3) 0.3027(2)
N11 N -0.0944(5) 0.0192(3) 0.2502(2)
N12 N 0.0334(5) -0.0469(3) 0.3478(2)
N13 N 0.2233(5) 0.1606(3) 0.5098(2)
N14 N -0.1789(8) 0.0989(6) 0.4599(4)
N15 N 0.4918(7) 0.1907(4) 0.5065(5)
N16 N 0.4219(6) 0.3144(4) 0.4755(3)
N17 N 0.2854(8) 0.3511(8) 0.5705(6)
N18 N 0.3539(9) 0.2156(6) 0.6412(4)
H3 H 0.4208 0.2507 0.6682
N19 N 0.5520(5) 0.3441(3) 0.6093(2)
N20 N 0.8270(9) 0.5883(6) 0.6888(5)
N21 N 0.4600(6) 0.4990(4) 0.7703(3)
N22 N 0.5678(7) 0.2656(4) 0.8056(4)
N23 N 0.9187(7) 0.3629(6) 0.7288(4)
N24 N 0.8018(5) 0.5455(3) 0.8839(2)
C1 C -0.0547(5) -0.1224(3) 0.0007(2)
C2 C 0.0535(5) 0.0194(3) 0.0951(2)
C3 C -0.1600(6) 0.0126(4) 0.0238(3)
C4 C -0.0385(5) -0.3921(3) 0.0479(2)
C5 C -0.0382(7) -0.4315(4) 0.1043(3)
H4 H 0.0338 -0.4420 0.1207
C6 C -0.2506(7) -0.4392(4) 0.1135(3)
H5 H -0.3226 -0.4539 0.1362
C7 C -0.2473(5) -0.3998(3) 0.0547(3)
C8 C -0.3493(6) -0.3750(4) 0.0199(4)
C9 C -0.4743(7) -0.3923(5) 0.0493(5)
H6 H -0.4692 -0.3519 0.0905
H7 H -0.4984 -0.4503 0.0590
H8 H -0.5347 -0.3855 0.0170
C10 C -0.4036(7) -0.3137(5) -0.0752(5)
H9 H -0.4793 -0.3608 -0.0864
H10 H -0.4252 -0.2655 -0.0485
C11 C -0.3598(12) -0.2880(9) -0.1365(6)
H11 H -0.3992 -0.3382 -0.1707
H12 H -0.4014 -0.2446 -0.1434
C12 C -0.2425(11) -0.2564(8) -0.1597(6)
H13 H -0.2541 -0.2686 -0.2090
H14 H -0.2211 -0.1938 -0.1471
C13 C -0.0236(10) -0.2584(8) -0.1702(5)
H15 H -0.0404 -0.2816 -0.2184
H16 H 0.0000 -0.1958 -0.1668
C14 C 0.0818(11) -0.2777(8) -0.1517(5)
H17 H 0.1470 -0.2280 -0.1598
H18 H 0.0850 -0.3246 -0.1874
C15 C 0.1298(6) -0.3000(5) -0.0937(4)
H19 H 0.1921 -0.2493 -0.0698
H20 H 0.1713 -0.3440 -0.1082
C16 C 0.0669(5) -0.3618(3) 0.0056(3)
C17 C 0.1912(6) -0.3676(5) 0.0264(4)
H21 H 0.2440 -0.3586 -0.0104
H22 H 0.1844 -0.4240 0.0377
H23 H 0.2260 -0.3241 0.0654
C18 C -0.0958(7) 0.0962(4) 0.2819(3)
C19 C -0.2040(9) 0.1221(6) 0.2775(4)
H24 H -0.2079 0.1759 0.2994
C20 C -0.3044(9) 0.0646(7) 0.2393(5)
H25 H -0.3781 0.0800 0.2361
C21 C -0.3002(7) -0.0143(6) 0.2057(4)
H26 H -0.3688 -0.0518 0.1792
C22 C -0.1915(5) -0.0363(4) 0.2125(3)
C23 C -0.1646(6) -0.1181(4) 0.1825(3)
C24 C -0.2648(7) -0.1874(5) 0.1398(4)
H27 H -0.2568 -0.1821 0.0927
H28 H -0.3442 -0.1815 0.1525
H29 H -0.2579 -0.2432 0.1465
C25 C -0.0163(7) -0.2000(4) 0.1786(3)
H30 H -0.0557 -0.2289 0.1341
H31 H -0.0436 -0.2394 0.2106
C26 C 0.1218(7) -0.1815(5) 0.1760(4)
H32 H 0.1446 -0.1517 0.1377
H33 H 0.1399 -0.2369 0.1656
C27 C 0.2075(8) -0.1296(6) 0.2369(5)
H34 H 0.1752 -0.1503 0.2777
H35 H 0.2884 -0.1398 0.2325
C28 C 0.3156(6) 0.0185(5) 0.2956(4)
H36 H 0.3950 0.0073 0.2876
H37 H 0.2937 0.0054 0.3403
C29 C 0.3284(8) 0.1152(6) 0.2948(4)
H38 H 0.4116 0.1481 0.3133
H39 H 0.3211 0.1230 0.2477
C30 C 0.2412(7) 0.1532(4) 0.3316(3)
H40 H 0.2465 0.1456 0.3788
H41 H 0.2635 0.2149 0.3304
C31 C 0.0197(5) -0.0327(3) 0.4045(3)
C32 C 0.1403(5) 0.1017(3) 0.5042(2)
C33 C -0.1105(6) 0.0632(5) 0.4764(3)
C34 C 0.5409(10) 0.2212(9) 0.4476(5)
C35 C 0.4978(7) 0.2905(6) 0.4392(4)
C36 C 0.5425(10) 0.3394(10) 0.3825(5)
H42 H 0.6018 0.3278 0.3538
C37 C 0.4914(13) 0.3967(8) 0.3785(6)
H43 H 0.5100 0.4236 0.3407
C38 C 0.4096(11) 0.4295(7) 0.4207(6)
H44 H 0.3807 0.4769 0.4158
C39 C 0.3812(8) 0.3789(5) 0.4696(4)
C40 C 0.2988(13) 0.3921(10) 0.5248(10)
C41 C 0.2082(13) 0.3488(10) 0.6231(9)
H45 H 0.1252 0.3164 0.6041
H46 H 0.2060 0.4078 0.6388
C42 C 0.2331(18) 0.3143(15) 0.6807(12)
H47 H 0.1626 0.3123 0.7080
H48 H 0.3033 0.3572 0.7065
C43 C 0.2599(15) 0.2286(12) 0.6788(6)
H49 H 0.2788 0.2221 0.7251
H50 H 0.1849 0.1832 0.6612
C44 C 0.6090(5) 0.3750(4) 0.6593(3)
C45 C 0.7734(7) 0.5302(5) 0.7103(3)
C46 C 0.5433(6) 0.4737(4) 0.7628(3)
C47 C 0.7588(5) 0.4978(3) 0.8354(3)
C48 C 0.6117(6) 0.3271(4) 0.7855(3)
C49 C 0.8310(7) 0.3866(4) 0.7356(3)
C50 C -0.1445(9) -0.4545(5) 0.1351(4)
H51 H -0.1450 -0.4819 0.1728
C51 C 0.0422(10) 0.2299(4) 0.3670(4)
H52 H 0.0553 0.2196 0.4124
H53 H -0.0316 0.2485 0.3634
H54 H 0.1121 0.2741 0.3568
C52 C 0.0275(7) 0.1464(4) 0.3167(3)
C53 C 0.6027(13) 0.1651(13) 0.4143(9)
H55 H 0.6190 0.1282 0.4446
H56 H 0.6798 0.1982 0.4004
H57 H 0.5521 0.1303 0.3750
C54 C 0.2301(13) 0.4602(9) 0.5193(11)
H58 H 0.2308 0.4935 0.5635
H59 H 0.1459 0.4321 0.5018
H60 H 0.2705 0.4980 0.4892
C55 C 0.4999(13) 0.1187(7) 0.5396(7)
H61 H 0.5817 0.1109 0.5330
H62 H 0.4405 0.0672 0.5148
C56 C 0.4804(16) 0.1191(8) 0.6127(8)
H63 H 0.4849 0.0632 0.6222
H64 H 0.5518 0.1619 0.6376
C57 C 0.3712(17) 0.1349(12) 0.6441(8)
H65 H 0.2983 0.0907 0.6221
H66 H 0.3772 0.1282 0.6915
Ni1A Ni 0.14086(6) 0.32770(4) 0.05645(3)
Ni2A Ni -0.05959(6) 0.01068(4) -0.24981(3)
N1A N 0.0869(4) 0.1968(3) 0.0045(2)
N2A N -0.0820(4) -0.0273(3) -0.1521(2)
N3A N 0.2537(6) -0.0217(5) -0.0366(3)
N4A N 0.1429(4) 0.3777(2) -0.02606(19)
N5A N 0.1381(7) 0.2792(4) 0.1431(3)
H1A H 0.1643 0.3324 0.1697
N6A N -0.0394(4) 0.3323(3) 0.0456(2)
N7A N 0.3207(4) 0.3415(3) 0.0332(3)
N8A N 0.0573(5) 0.1237(3) -0.1983(2)
N9A N -0.2221(5) 0.0384(4) -0.2446(3)
H2A H -0.2494 0.0238 -0.2044
N10A N -0.1151(5) -0.1139(3) -0.3027(2)
N11A N 0.0944(5) -0.0192(3) -0.2502(2)
N12A N -0.0334(5) 0.0469(3) -0.3478(2)
C1A C 0.0547(5) 0.1224(3) -0.0007(2)
C2A C -0.0535(5) -0.0194(3) -0.0951(2)
C3A C 0.1600(6) -0.0126(4) -0.0238(3)
C4A C 0.0385(5) 0.3921(3) -0.0479(2)
C5A C 0.0382(7) 0.4315(4) -0.1043(3)
H4A H -0.0338 0.4420 -0.1207
C6A C 0.2506(7) 0.4392(4) -0.1135(3)
H5A H 0.3226 0.4539 -0.1362
C7A C 0.2473(5) 0.3998(3) -0.0547(3)
C8A C 0.3493(6) 0.3750(4) -0.0199(4)
C9A C 0.4743(7) 0.3923(5) -0.0493(5)
H6A H 0.4692 0.3519 -0.0905
H7A H 0.4984 0.4503 -0.0590
H8A H 0.5347 0.3855 -0.0170
C10A C 0.4036(7) 0.3137(5) 0.0752(5)
H9A H 0.4793 0.3608 0.0864
H10A H 0.4252 0.2655 0.0485
C11A C 0.3598(12) 0.2880(9) 0.1365(6)
H11A H 0.3992 0.3382 0.1707
H12A H 0.4014 0.2446 0.1434
C12A C 0.2425(11) 0.2564(8) 0.1597(6)
H13A H 0.2541 0.2686 0.2090
H14A H 0.2211 0.1938 0.1471
C13A C 0.0236(10) 0.2584(8) 0.1702(5)
H15A H 0.0404 0.2816 0.2184
H16A H 0.0000 0.1958 0.1668
C14A C -0.0818(11) 0.2777(8) 0.1517(5)
H17A H -0.1470 0.2280 0.1598
H18A H -0.0850 0.3246 0.1874
C15A C -0.1298(6) 0.3000(5) 0.0937(4)
H19A H -0.1921 0.2493 0.0698
H20A H -0.1713 0.3440 0.1082
C16A C -0.0669(5) 0.3618(3) -0.0056(3)
C17A C -0.1912(6) 0.3676(5) -0.0264(4)
H21A H -0.2440 0.3586 0.0104
H22A H -0.1844 0.4240 -0.0377
H23A H -0.2260 0.3241 -0.0654
C18A C 0.0958(7) -0.0962(4) -0.2819(3)
C19A C 0.2040(9) -0.1221(6) -0.2775(4)
H24A H 0.2079 -0.1759 -0.2994
C20A C 0.3044(9) -0.0646(7) -0.2393(5)
H25A H 0.3781 -0.0800 -0.2361
C21A C 0.3002(7) 0.0143(6) -0.2057(4)
H26A H 0.3688 0.0518 -0.1792
C22A C 0.1915(5) 0.0363(4) -0.2125(3)
C23A C 0.1646(6) 0.1181(4) -0.1825(3)
C24A C 0.2648(7) 0.1874(5) -0.1398(4)
H27A H 0.2568 0.1821 -0.0927
H28A H 0.3442 0.1815 -0.1525
H29A H 0.2579 0.2432 -0.1465
C25A C 0.0163(7) 0.2000(4) -0.1786(3)
H30A H 0.0557 0.2289 -0.1341
H31A H 0.0436 0.2394 -0.2106
C26A C -0.1218(7) 0.1815(5) -0.1760(4)
H32A H -0.1446 0.1517 -0.1377
H33A H -0.1399 0.2369 -0.1656
C27A C -0.2075(8) 0.1296(6) -0.2369(5)
H34A H -0.1752 0.1503 -0.2777
H35A H -0.2884 0.1398 -0.2325
C28A C -0.3156(6) -0.0185(5) -0.2956(4)
H36A H -0.3950 -0.0073 -0.2876
H37A H -0.2937 -0.0054 -0.3403
C29A C -0.3284(8) -0.1152(6) -0.2948(4)
H38A H -0.4116 -0.1481 -0.3133
H39A H -0.3211 -0.1230 -0.2477
C30A C -0.2412(7) -0.1532(4) -0.3316(3)
H40A H -0.2465 -0.1456 -0.3788
H41A H -0.2635 -0.2149 -0.3304
C31A C -0.0197(5) 0.0327(3) -0.4045(3)
C50A C 0.1445(9) 0.4545(5) -0.1351(4)
H51A H 0.1450 0.4819 -0.1728
C51A C -0.0422(10) -0.2299(4) -0.3670(4)
H52A H -0.0553 -0.2196 -0.4124
H53A H 0.0316 -0.2485 -0.3634
H54A H -0.1121 -0.2741 -0.3568
C52A C -0.0275(7) -0.1464(4) -0.3167(3)
Fe3A Fe -0.68804(7) -0.43095(5) 0.25200(4)
Ni3A Ni -0.38924(7) -0.25547(5) 0.44629(4)
N13A N -0.2233(5) -0.1606(3) 0.4902(2)
N15A N -0.4918(7) -0.1907(4) 0.4935(5)
N16A N -0.4219(6) -0.3144(4) 0.5245(3)
N17A N -0.2854(8) -0.3511(8) 0.4295(6)
N18A N -0.3539(9) -0.2156(6) 0.3588(4)
H3A H -0.4208 -0.2507 0.3318
N19A N -0.5520(5) -0.3441(3) 0.3907(2)
N20A N -0.8270(9) -0.5883(6) 0.3112(5)
N21A N -0.4600(6) -0.4990(4) 0.2297(3)
N22A N -0.5678(7) -0.2656(4) 0.1944(4)
N23A N -0.9187(7) -0.3629(6) 0.2712(4)
N24A N -0.8018(5) -0.5455(3) 0.1161(2)
C32A C -0.1403(5) -0.1017(3) 0.4958(2)
C34A C -0.5409(10) -0.2212(9) 0.5524(5)
C35A C -0.4978(7) -0.2905(6) 0.5608(4)
C36A C -0.5425(10) -0.3394(10) 0.6175(5)
H42A H -0.6018 -0.3278 0.6462
C37A C -0.4914(13) -0.3967(8) 0.6215(6)
H43A H -0.5100 -0.4236 0.6593
C38A C -0.4096(11) -0.4295(7) 0.5793(6)
H44A H -0.3807 -0.4769 0.5842
C39A C -0.3812(8) -0.3789(5) 0.5304(4)
C40A C -0.2988(13) -0.3921(10) 0.4752(10)
C41A C -0.2082(13) -0.3488(10) 0.3769(9)
H45A H -0.1252 -0.3164 0.3959
H46A H -0.2060 -0.4078 0.3612
C42A C -0.2331(18) -0.3143(15) 0.3193(12)
H47A H -0.1626 -0.3123 0.2920
H48A H -0.3033 -0.3572 0.2935
C43A C -0.2599(15) -0.2286(12) 0.3212(6)
H49A H -0.2788 -0.2221 0.2749
H50A H -0.1849 -0.1832 0.3388
C44A C -0.6090(5) -0.3750(4) 0.3407(3)
C45A C -0.7734(7) -0.5302(5) 0.2897(3)
C46A C -0.5433(6) -0.4737(4) 0.2372(3)
C47A C -0.7588(5) -0.4978(3) 0.1646(3)
C48A C -0.6117(6) -0.3271(4) 0.2145(3)
C49A C -0.8310(7) -0.3866(4) 0.2644(3)
C53A C -0.6027(13) -0.1651(13) 0.5857(9)
H55A H -0.6190 -0.1282 0.5554
H56A H -0.6798 -0.1982 0.5996
H57A H -0.5521 -0.1303 0.6250
C54A C -0.2301(13) -0.4602(9) 0.4807(11)
H58A H -0.2308 -0.4935 0.4365
H59A H -0.1459 -0.4321 0.4982
H60A H -0.2705 -0.4980 0.5108
C55A C -0.4999(13) -0.1187(7) 0.4604(7)
H61A H -0.5817 -0.1109 0.4670
H62A H -0.4405 -0.0672 0.4852
C56A C -0.4804(16) -0.1191(8) 0.3873(8)
H63A H -0.4849 -0.0632 0.3778
H64A H -0.5518 -0.1619 0.3624
C57A C -0.3712(17) -0.1349(12) 0.3559(8)
H65A H -0.2983 -0.0907 0.3779
H66A H -0.3772 -0.1282 0.3085
N14A N 0.1789(8) -0.0989(6) 0.5401(4)
C33A C 0.1105(6) -0.0632(5) 0.5236(3)
Fe2_2 Fe 0.0000 0.0000 -0.5000
Ni1_2 Ni 0.85914(6) 0.67230(4) 0.94355(3)
Ni1A_2 Ni -0.85914(6) -0.67230(4) 0.05645(3)
N24_2 N -0.1982(5) -0.4545(3) -0.1161(2)
N24A_2 N 0.1982(5) 0.4545(3) 0.1161(2)
C31A_2 C -0.0197(5) 0.0327(3) 0.5955(3)
O1 O 0.3705(7) 0.9990(5) 0.1149(4)
H67 H 0.4088 0.9661 0.0972
H68 H 0.3043 0.9833 0.0917
O2 O 0.2963(8) 0.6097(5) 0.7690(4)
H69 H 0.3185 0.5940 0.8050
H70 H 0.3372 0.5882 0.7393
O3 O 0.5949(8) 0.2202(6) 0.2183(5)
H71 H 0.5165 0.2100 0.2177
H72 H 0.6566 0.2546 0.2397
O4 O 0.5795(7) 0.1224(5) 0.0810(6)
H73 H 0.5207 0.0756 0.0750
H74 H 0.5732 0.1512 0.1194
O5 O 0.4217(10) 0.8372(7) 0.0882(7)
H75 H 0.4143 0.8026 0.0508
H76 H 0.4470 0.8141 0.1192
O6 O 0.8733(10) 0.3372(11) 0.5033(13)
H77 H 0.9258 0.3737 0.4705
H78 H 0.8929 0.3941 0.5191
O7 O 0.1012(11) 0.5673(12) 0.6752(8)
H79 H 0.0567 0.5846 0.7026
H80 H 0.1631 0.5930 0.7008
loop_
_geom_bond_atom_site_label_1
_geom_bond_atom_site_label_2
_geom_bond_site_symmetry_1
_geom_bond_site_symmetry_2
Fe1 C1 1_555 1_555
Fe2 C31 1_555 1_555
Fe3 C44 1_555 1_555
Ni1 N1 1_555 1_555
Ni2 N2 1_555 1_555
Ni3 N13 1_555 1_555
N1 C1 1_555 1_555
N2 C2 1_555 1_555
N3 C3 1_555 1_555
N4 Ni1 1_555 1_555
N5 Ni1 1_555 1_555
H1 N5 1_555 1_555
N6 Ni1 1_555 1_555
N7 Ni1 1_555 1_555
N8 Ni2 1_555 1_555
N9 Ni2 1_555 1_555
H2 N9 1_555 1_555
N10 Ni2 1_555 1_555
N11 Ni2 1_555 1_555
N12 Ni2 1_555 1_555
N13 C32 1_555 1_555
N14 C33 1_555 1_555
N15 Ni3 1_555 1_555
N16 Ni3 1_555 1_555
N17 Ni3 1_555 1_555
N18 Ni3 1_555 1_555
H3 N18 1_555 1_555
N19 Ni3 1_555 1_555
N20 C45 1_555 1_555
N21 C46 1_555 1_555
N22 C48 1_555 1_555
N23 C49 1_555 1_555
N24 C47 1_555 1_555
C2 Fe1 1_555 1_555
C3 Fe1 1_555 1_555
C4 N4 1_555 1_555
C5 C4 1_555 1_555
H4 C5 1_555 1_555
C6 H5 1_555 1_555
C7 N4 1_555 1_555
C8 N7 1_555 1_555
C9 C8 1_555 1_555
H6 C9 1_555 1_555
H7 C9 1_555 1_555
H8 C9 1_555 1_555
C10 N7 1_555 1_555
H9 C10 1_555 1_555
H10 C10 1_555 1_555
C11 C10 1_555 1_555
H11 C11 1_555 1_555
H12 C11 1_555 1_555
C12 N5 1_555 1_555
H13 C12 1_555 1_555
H14 C12 1_555 1_555
C13 N5 1_555 1_555
H15 C13 1_555 1_555
H16 C13 1_555 1_555
C14 C13 1_555 1_555
H17 C14 1_555 1_555
H18 C14 1_555 1_555
C15 N6 1_555 1_555
H19 C15 1_555 1_555
H20 C15 1_555 1_555
C16 N6 1_555 1_555
C17 C16 1_555 1_555
H21 C17 1_555 1_555
H22 C17 1_555 1_555
H23 C17 1_555 1_555
C18 N11 1_555 1_555
C19 C18 1_555 1_555
H24 C19 1_555 1_555
C20 C19 1_555 1_555
H25 C20 1_555 1_555
C21 C20 1_555 1_555
H26 C21 1_555 1_555
C22 N11 1_555 1_555
C23 N8 1_555 1_555
C24 C23 1_555 1_555
H27 C24 1_555 1_555
H28 C24 1_555 1_555
H29 C24 1_555 1_555
C25 N8 1_555 1_555
H30 C25 1_555 1_555
H31 C25 1_555 1_555
C26 C25 1_555 1_555
H32 C26 1_555 1_555
H33 C26 1_555 1_555
C27 N9 1_555 1_555
H34 C27 1_555 1_555
H35 C27 1_555 1_555
C28 N9 1_555 1_555
H36 C28 1_555 1_555
H37 C28 1_555 1_555
C29 C28 1_555 1_555
H38 C29 1_555 1_555
H39 C29 1_555 1_555
C30 N10 1_555 1_555
H40 C30 1_555 1_555
H41 C30 1_555 1_555
C31 N12 1_555 1_555
C32 Fe2 1_555 1_555
C33 Fe2 1_555 1_555
C34 N15 1_555 1_555
C35 N16 1_555 1_555
C36 C35 1_555 1_555
H42 C36 1_555 1_555
C37 C36 1_555 1_555
H43 C37 1_555 1_555
C38 C37 1_555 1_555
H44 C38 1_555 1_555
C39 N16 1_555 1_555
C40 N17 1_555 1_555
C41 N17 1_555 1_555
H45 C41 1_555 1_555
H46 C41 1_555 1_555
C42 C41 1_555 1_555
H47 C42 1_555 1_555
H48 C42 1_555 1_555
C43 N18 1_555 1_555
H49 C43 1_555 1_555
H50 C43 1_555 1_555
C44 N19 1_555 1_555
C45 Fe3 1_555 1_555
C46 Fe3 1_555 1_555
C47 Fe3 1_555 1_555
C48 Fe3 1_555 1_555
C49 Fe3 1_555 1_555
C50 C5 1_555 1_555
H51 C50 1_555 1_555
C51 H52 1_555 1_555
H53 C51 1_555 1_555
H54 C51 1_555 1_555
C52 N10 1_555 1_555
C53 C34 1_555 1_555
H55 C53 1_555 1_555
H56 C53 1_555 1_555
H57 C53 1_555 1_555
C54 C40 1_555 1_555
H58 C54 1_555 1_555
H59 C54 1_555 1_555
H60 C54 1_555 1_555
C55 N15 1_555 1_555
H61 C55 1_555 1_555
H62 C55 1_555 1_555
C56 C55 1_555 1_555
H63 C56 1_555 1_555
H64 C56 1_555 1_555
C57 N18 1_555 1_555
H65 C57 1_555 1_555
H66 C57 1_555 1_555
O1 H67 1_555 1_555
H68 O1 1_555 1_555
O2 H69 1_555 1_555
H70 O2 1_555 1_555
O3 H71 1_555 1_555
H72 O3 1_555 1_555
O4 H73 1_555 1_555
H74 O4 1_555 1_555
O5 H75 1_555 1_555
H76 O5 1_555 1_555
O6 H77 1_555 1_555
H78 O6 1_555 1_555
O7 H79 1_555 1_555
H80 O7 1_555 1_555
Ni1A N1A 1_555 1_555
Ni2A N2A 1_555 1_555
N1A C1A 1_555 1_555
N2A C2A 1_555 1_555
N3A C3A 1_555 1_555
N4A Ni1A 1_555 1_555
N5A Ni1A 1_555 1_555
H1A N5A 1_555 1_555
N6A Ni1A 1_555 1_555
N7A Ni1A 1_555 1_555
N8A Ni2A 1_555 1_555
N9A Ni2A 1_555 1_555
H2A N9A 1_555 1_555
N10A Ni2A 1_555 1_555
N11A Ni2A 1_555 1_555
N12A Ni2A 1_555 1_555
C1A Fe1 1_555 1_555
C2A Fe1 1_555 1_555
C3A Fe1 1_555 1_555
C4A N4A 1_555 1_555
C5A C4A 1_555 1_555
H4A C5A 1_555 1_555
C6A H5A 1_555 1_555
C7A N4A 1_555 1_555
C8A N7A 1_555 1_555
C9A C8A 1_555 1_555
H6A C9A 1_555 1_555
H7A C9A 1_555 1_555
H8A C9A 1_555 1_555
C10A N7A 1_555 1_555
H9A C10A 1_555 1_555
H10A C10A 1_555 1_555
C11A C10A 1_555 1_555
H11A C11A 1_555 1_555
H12A C11A 1_555 1_555
C12A N5A 1_555 1_555
H13A C12A 1_555 1_555
H14A C12A 1_555 1_555
C13A N5A 1_555 1_555
H15A C13A 1_555 1_555
H16A C13A 1_555 1_555
C14A C13A 1_555 1_555
H17A C14A 1_555 1_555
H18A C14A 1_555 1_555
C15A N6A 1_555 1_555
H19A C15A 1_555 1_555
H20A C15A 1_555 1_555
C16A N6A 1_555 1_555
C17A C16A 1_555 1_555
H21A C17A 1_555 1_555
H22A C17A 1_555 1_555
H23A C17A 1_555 1_555
C18A N11A 1_555 1_555
C19A C18A 1_555 1_555
H24A C19A 1_555 1_555
C20A C19A 1_555 1_555
H25A C20A 1_555 1_555
C21A C20A 1_555 1_555
H26A C21A 1_555 1_555
C22A N11A 1_555 1_555
C23A N8A 1_555 1_555
C24A C23A 1_555 1_555
H27A C24A 1_555 1_555
H28A C24A 1_555 1_555
H29A C24A 1_555 1_555
C25A N8A 1_555 1_555
H30A C25A 1_555 1_555
H31A C25A 1_555 1_555
C26A C25A 1_555 1_555
H32A C26A 1_555 1_555
H33A C26A 1_555 1_555
C27A N9A 1_555 1_555
H34A C27A 1_555 1_555
H35A C27A 1_555 1_555
C28A N9A 1_555 1_555
H36A C28A 1_555 1_555
H37A C28A 1_555 1_555
C29A C28A 1_555 1_555
H38A C29A 1_555 1_555
H39A C29A 1_555 1_555
C30A N10A 1_555 1_555
H40A C30A 1_555 1_555
H41A C30A 1_555 1_555
C31A N12A 1_555 1_555
C50A C5A 1_555 1_555
H51A C50A 1_555 1_555
C51A H52A 1_555 1_555
H53A C51A 1_555 1_555
H54A C51A 1_555 1_555
C52A N10A 1_555 1_555
Fe3A C44A 1_555 1_555
Ni3A N13A 1_555 1_555
N13A C32A 1_555 1_555
N15A Ni3A 1_555 1_555
N16A Ni3A 1_555 1_555
N17A Ni3A 1_555 1_555
N18A Ni3A 1_555 1_555
H3A N18A 1_555 1_555
N19A Ni3A 1_555 1_555
N20A C45A 1_555 1_555
N21A C46A 1_555 1_555
N22A C48A 1_555 1_555
N23A C49A 1_555 1_555
N24A C47A 1_555 1_555
C32A Fe2 1_555 1_555
C34A N15A 1_555 1_555
C35A N16A 1_555 1_555
C36A C35A 1_555 1_555
H42A C36A 1_555 1_555
C37A C36A 1_555 1_555
H43A C37A 1_555 1_555
C38A C37A 1_555 1_555
H44A C38A 1_555 1_555
C39A N16A 1_555 1_555
C40A N17A 1_555 1_555
C41A N17A 1_555 1_555
H45A C41A 1_555 1_555
H46A C41A 1_555 1_555
C42A C41A 1_555 1_555
H47A C42A 1_555 1_555
H48A C42A 1_555 1_555
C43A N18A 1_555 1_555
H49A C43A 1_555 1_555
H50A C43A 1_555 1_555
C44A N19A 1_555 1_555
C45A Fe3A 1_555 1_555
C46A Fe3A 1_555 1_555
C47A Fe3A 1_555 1_555
C48A Fe3A 1_555 1_555
C49A Fe3A 1_555 1_555
C53A C34A 1_555 1_555
H55A C53A 1_555 1_555
H56A C53A 1_555 1_555
H57A C53A 1_555 1_555
C54A C40A 1_555 1_555
H58A C54A 1_555 1_555
H59A C54A 1_555 1_555
H60A C54A 1_555 1_555
C55A N15A 1_555 1_555
H61A C55A 1_555 1_555
H62A C55A 1_555 1_555
C56A C55A 1_555 1_555
H63A C56A 1_555 1_555
H64A C56A 1_555 1_555
C57A N18A 1_555 1_555
H65A C57A 1_555 1_555
H66A C57A 1_555 1_555
N14A C33A 1_555 1_555
C33A Fe2 1_555 1_555
Fe2_2 C31A 1_555 1_555
Ni1_2 N24 1_555 1_555
Ni1A_2 N24A 1_555 1_555
N24_2 Ni1 1_555 1_555
N24A_2 Ni1A 1_555 1_555
C31A_2 Fe2 1_555 1_555
C4 C16 1_555 1_555
C6 C7 1_555 1_555
C6 C50 1_555 1_555
C7 C8 1_555 1_555
C11 C12 1_555 1_555
C14 C15 1_555 1_555
C18 C52 1_555 1_555
C21 C22 1_555 1_555
C22 C23 1_555 1_555
C26 C27 1_555 1_555
C29 C30 1_555 1_555
C34 C35 1_555 1_555
C38 C39 1_555 1_555
C39 C40 1_555 1_555
C42 C43 1_555 1_555
C51 C52 1_555 1_555
C56 C57 1_555 1_555
C4A C16A 1_555 1_555
C6A C7A 1_555 1_555
C6A C50A 1_555 1_555
C7A C8A 1_555 1_555
C11A C12A 1_555 1_555
C14A C15A 1_555 1_555
C18A C52A 1_555 1_555
C21A C22A 1_555 1_555
C22A C23A 1_555 1_555
C26A C27A 1_555 1_555
C29A C30A 1_555 1_555
C51A C52A 1_555 1_555
C34A C35A 1_555 1_555
C38A C39A 1_555 1_555
C39A C40A 1_555 1_555
C42A C43A 1_555 1_555
C56A C57A 1_555 1_555

#END
