
#######################################################################
#
#                 Cambridge Crystallographic Data Centre
#                                CCDC 
#
#######################################################################
#
# If this CIF has been generated from an entry in the Cambridge 
# Structural Database, then it will include bibliographic, chemical, 
# crystal, experimental, refinement or atomic coordinate data resulting 
# from the CCDC's data processing and validation procedures.
#
#######################################################################

data_CIWZEP
_symmetry_cell_setting           monoclinic
_symmetry_space_group_name_H-M   'P 21/n'
_symmetry_Int_Tables_number      14
_space_group_name_Hall           '-P 2yn'
loop_
_symmetry_equiv_pos_site_id
_symmetry_equiv_pos_as_xyz
1 x,y,z
2 1/2-x,1/2+y,1/2-z
3 -x,-y,-z
4 1/2+x,1/2-y,1/2+z
_cell_length_a                   26.11(5)
_cell_length_b                   13.91(3)
_cell_length_c                   29.55(6)
_cell_angle_alpha                90
_cell_angle_beta                 94.27(4)
_cell_angle_gamma                90
_cell_volume                     10702.5
loop_
_atom_site_label
_atom_site_type_symbol
_atom_site_fract_x
_atom_site_fract_y
_atom_site_fract_z
Mo1 Mo 0.68058(2) 0.53804(5) 0.84463(2)
Mo2 Mo 0.82432(3) 0.84383(5) 1.15316(2)
Ni1 Ni 0.74271(5) 0.66507(8) 1.00892(3)
Ni2 Ni 0.76317(4) 0.38159(7) 0.71001(3)
Ni3 Ni 0.50109(4) 0.62845(8) 0.75850(4)
Ni4 Ni 0.73190(5) 0.66653(8) 1.27532(4)
N1 N 0.7169(3) 0.6375(5) 0.9429(2)
N2 N 0.7253(3) 0.4895(5) 0.7473(2)
N3 N 0.5783(3) 0.6314(5) 0.7885(3)
N4 N 0.8084(3) 0.5412(7) 0.8556(3)
N5 N 0.7205(4) 0.3448(7) 0.9020(3)
N6 N 0.5869(4) 0.5195(10) 0.9107(3)
N7 N 0.6089(3) 0.3594(6) 0.7986(3)
N8 N 0.7052(3) 0.7649(5) 0.8222(2)
N9 N 0.6727(3) 0.6965(7) 1.0227(2)
N10 N 0.7407(4) 0.8085(6) 0.9959(2)
N11 N 0.8144(3) 0.6311(6) 0.9964(3)
H1 H 0.8331 0.6371 1.0235
N12 N 0.7154(4) 0.5298(6) 1.0231(2)
N13 N 0.7278(3) 0.4348(6) 0.6552(2)
N14 N 0.6980(3) 0.3026(5) 0.7082(3)
N15 N 0.8020(3) 0.3426(6) 0.7704(3)
H2 H 0.7912 0.3835 0.7917
N16 N 0.8176(3) 0.4800(6) 0.6890(3)
N17 N 0.4903(3) 0.7648(6) 0.7704(3)
N18 N 0.4740(3) 0.6258(7) 0.8220(3)
N19 N 0.5108(4) 0.4867(7) 0.7500(4)
H3 H 0.5433 0.4737 0.7615
N20 N 0.5203(3) 0.6878(10) 0.7009(4)
N21 N 0.7719(3) 0.6979(6) 1.0751(2)
N22 N 0.7778(3) 0.7713(5) 1.2466(3)
N23 N 0.8035(4) 1.0009(7) 1.0706(3)
N24 N 0.9210(4) 0.8316(9) 1.0901(3)
N25 N 0.6989(3) 0.8830(7) 1.1418(4)
N26 N 0.8776(4) 0.6290(6) 1.1725(3)
N27 N 0.8097(3) 1.0526(6) 1.2005(3)
N28 N 0.6715(5) 0.7371(9) 1.2605(7)
N29 N 0.7210(6) 0.7488(9) 1.3361(5)
N30 N 0.7945(5) 0.5924(9) 1.3015(5)
H4 H 0.7812 0.5399 1.3148
N31 N 0.7177(5) 0.6178(9) 1.2155(4)
N32 N 0.3912(3) 0.6305(6) 0.7010(3)
C1 C 0.7035(3) 0.6037(6) 0.9089(3)
C2 C 0.7068(3) 0.5096(5) 0.7792(3)
C3 C 0.6149(3) 0.6014(6) 0.8069(3)
C4 C 0.7637(3) 0.5411(6) 0.8512(3)
C5 C 0.7069(4) 0.4120(7) 0.8819(3)
C6 C 0.6183(4) 0.5259(8) 0.8878(3)
C7 C 0.6345(3) 0.4189(6) 0.8159(3)
C8 C 0.6971(3) 0.6861(6) 0.8298(2)
C9 C 0.7001(5) 0.8502(7) 1.0060(4)
C10 C 0.6895(6) 0.9563(8) 1.0025(5)
H5 H 0.7205 0.9897 0.9967
H6 H 0.6772 0.9789 1.0304
H7 H 0.6639 0.9680 0.9780
C11 C 0.6593(5) 0.7862(9) 1.0212(4)
C12 C 0.6086(7) 0.8092(14) 1.0283(6)
H8 H 0.5972 0.8725 1.0261
C13 C 0.5779(6) 0.742(2) 1.0381(7)
H9 H 0.5447 0.7582 1.0447
C14 C 0.5922(6) 0.6443(16) 1.0392(6)
H10 H 0.5691 0.5956 1.0447
C15 C 0.6418(5) 0.6256(10) 1.0318(4)
C16 C 0.6670(5) 0.5310(10) 1.0303(3)
C17 C 0.6360(6) 0.4408(10) 1.0365(5)
H11 H 0.6530 0.4017 1.0598
H12 H 0.6328 0.4054 1.0085
H13 H 0.6024 0.4578 1.0451
C18 C 0.7466(7) 0.4458(8) 1.0140(4)
H14 H 0.7355 0.4214 0.9841
H15 H 0.7398 0.3962 1.0358
C19 C 0.8032(6) 0.4629(10) 1.0159(4)
H16 H 0.8145 0.4841 1.0462
H17 H 0.8201 0.4021 1.0107
C20 C 0.8209(6) 0.5343(9) 0.9830(4)
H18 H 0.8570 0.5232 0.9791
H19 H 0.8021 0.5243 0.9538
C21 C 0.8351(5) 0.7058(10) 0.9660(4)
H20 H 0.8706 0.6905 0.9613
H21 H 0.8157 0.7039 0.9368
C22 C 0.8327(5) 0.8004(10) 0.9842(4)
H22 H 0.8593 0.8383 0.9714
H23 H 0.8415 0.7963 1.0166
C23 C 0.7820(5) 0.8565(8) 0.9770(4)
H24 H 0.7863 0.9195 0.9907
H25 H 0.7737 0.8654 0.9447
C24 C 0.4655(4) 0.7058(11) 0.8377(5)
C25 C 0.4464(7) 0.7224(18) 0.8836(6)
H26 H 0.4096 0.7172 0.8816
H27 H 0.4563 0.7854 0.8941
H28 H 0.4609 0.6751 0.9044
C26 C 0.4764(4) 0.7880(9) 0.8106(5)
C27 C 0.4716(6) 0.8794(13) 0.8229(7)
H29 H 0.4630 0.8960 0.8518
C28 C 0.4792(7) 0.9432(16) 0.7931(10)
H30 H 0.4762 1.0070 0.8019
C29 C 0.4919(5) 0.9268(11) 0.7480(8)
H31 H 0.4951 0.9755 0.7269
C30 C 0.4993(4) 0.8245(9) 0.7383(6)
C31 C 0.5127(4) 0.7787(13) 0.6978(5)
C32 C 0.5148(6) 0.8326(14) 0.6533(5)
H32 H 0.5392 0.8020 0.6351
H33 H 0.5252 0.8978 0.6593
H34 H 0.4815 0.8319 0.6372
C33 C 0.5306(6) 0.6246(17) 0.6606(5)
H35 H 0.5585 0.6513 0.6447
H36 H 0.5002 0.6218 0.6396
C34 C 0.5451(7) 0.5214(19) 0.6781(6)
H37 H 0.5525 0.4834 0.6518
H38 H 0.5769 0.5269 0.6970
C35 C 0.5100(6) 0.4658(12) 0.7034(7)
H39 H 0.4754 0.4762 0.6900
H40 H 0.5179 0.3982 0.6999
C36 C 0.4781(5) 0.4280(9) 0.7750(6)
H41 H 0.4850 0.3607 0.7692
H42 H 0.4425 0.4409 0.7652
C37 C 0.4871(5) 0.4480(11) 0.8236(7)
H43 H 0.5238 0.4558 0.8303
H44 H 0.4768 0.3916 0.8400
C38 C 0.4608(6) 0.5344(11) 0.8428(5)
H45 H 0.4239 0.5253 0.8386
H46 H 0.4700 0.5378 0.8751
C39 C 0.6644(4) 0.3269(9) 0.6735(4)
C40 C 0.6161(5) 0.2692(10) 0.6640(6)
H47 H 0.6133 0.2226 0.6877
H48 H 0.6172 0.2370 0.6354
H49 H 0.5869 0.3114 0.6630
C41 C 0.6811(4) 0.4066(7) 0.6467(3)
C42 C 0.6487(5) 0.4579(11) 0.6122(4)
H50 H 0.6148 0.4412 0.6040
C43 C 0.6728(8) 0.5317(13) 0.5934(4)
H51 H 0.6539 0.5651 0.5706
C44 C 0.7217(7) 0.5632(10) 0.6038(4)
H52 H 0.7353 0.6168 0.5902
C45 C 0.7491(5) 0.5092(6) 0.6360(3)
C46 C 0.8031(6) 0.5265(8) 0.6549(4)
C47 C 0.8348(6) 0.5959(9) 0.6309(5)
H53 H 0.8433 0.6499 0.6502
H54 H 0.8159 0.6177 0.6037
H55 H 0.8659 0.5650 0.6231
C48 C 0.8688(4) 0.4836(9) 0.7117(5)
H56 H 0.8825 0.5479 0.7090
H57 H 0.8910 0.4397 0.6967
C49 C 0.8693(5) 0.4576(9) 0.7603(4)
H58 H 0.8771 0.5021 0.7833
C50 C 0.8566(4) 0.3568(9) 0.7701(4)
H59 H 0.8700 0.3155 0.7473
H60 H 0.8730 0.3388 0.7994
C51 C 0.7854(5) 0.2459(7) 0.7834(3)
H61 H 0.8001 0.2317 0.8138
H62 H 0.7987 0.1991 0.7629
C52 C 0.7271(5) 0.2353(7) 0.7823(4)
H63 H 0.7204 0.1803 0.8012
H64 H 0.7144 0.2913 0.7975
C53 C 0.6941(4) 0.2235(7) 0.7388(4)
H65 H 0.7039 0.1649 0.7239
H66 H 0.6585 0.2167 0.7458
C54 C 0.7909(3) 0.7488(6) 1.1028(3)
C55 C 0.7943(3) 0.7969(6) 1.2139(3)
C56 C 0.8115(4) 0.9452(7) 1.0994(3)
C57 C 0.8869(4) 0.8378(7) 1.1126(3)
C58 C 0.8586(4) 0.7034(7) 1.1671(3)
C59 C 0.7420(4) 0.8694(7) 1.1452(3)
C60 C 0.8171(3) 0.9795(6) 1.1841(3)
C61 C 0.4263(3) 0.6195(6) 0.7263(3)
C62 C 0.6781(7) 0.6538(12) 1.1919(6)
C63 C 0.6689(8) 0.6356(14) 1.1452(7)
H67 H 0.6450 0.6820 1.1321
H68 H 0.6549 0.5722 1.1409
H69 H 0.7006 0.6401 1.1308
C64 C 0.6491(7) 0.7186(12) 1.2199(7)
C65 C 0.6002(7) 0.7673(15) 1.2015(8)
H70 H 0.5860 0.7650 1.1717
C66 C 0.5800(8) 0.8177(15) 1.2386(10)
H71 H 0.5481 0.8453 1.2310
C67 C 0.5988(6) 0.8350(11) 1.2856(8)
H72 H 0.5826 0.8685 1.3077
C68 C 0.6476(6) 0.7889(11) 1.2899(8)
C69 C 0.6839(8) 0.7873(13) 1.3308(8)
C70 C 0.6617(7) 0.8491(12) 1.3686(6)
H73 H 0.6552 0.8089 1.3939
H74 H 0.6301 0.8786 1.3569
H75 H 0.6859 0.8982 1.3782
C71 C 0.7639(7) 0.7408(16) 1.3751(7)
H76 H 0.7845 0.7989 1.3759
H77 H 0.7482 0.7362 1.4038
C72 C 0.7960(9) 0.6609(19) 1.3706(13)
H78 H 0.7734 0.6063 1.3735
H79 H 0.8185 0.6615 1.3983
C73 C 0.8304(8) 0.6301(15) 1.3350(7)
H80 H 0.8491 0.6841 1.3235
H81 H 0.8547 0.5814 1.3464
C74 C 0.8283(6) 0.5547(12) 1.2715(8)
H82 H 0.8511 0.5072 1.2862
H83 H 0.8486 0.6049 1.2587
C75 C 0.7918(9) 0.5099(15) 1.2360(8)
H84 H 0.8132 0.4708 1.2178
H85 H 0.7717 0.4650 1.2525
C76 C 0.7555(8) 0.5554(13) 1.2039(8)
H86 H 0.7756 0.5899 1.1829
H87 H 0.7382 0.5040 1.1867
Mo2C Mo 0.32432(3) 0.65617(5) 0.65316(2)
Ni2A Ni 0.73683(4) 0.88159(7) 0.78999(3)
Ni4A Ni 0.76810(5) 1.16653(8) 1.22468(4)
N8A N 0.7948(3) 0.2649(5) 0.6778(2)
N27A N 0.6903(3) 0.5526(6) 1.2995(3)
N32C N 0.8912(3) 0.8695(6) 1.2010(3)
O1 O 0.5495(4) 0.1885(6) 0.7801(5)
H88 H 0.5456 0.1868 0.8084
H89 H 0.5715 0.2344 0.7904
O2 O 0.7048(7) 0.2132(8) 0.9742(4)
H90 H 0.7235 0.1652 0.9686
H91 H 0.6863 0.2262 0.9501
O3 O 0.5912(4) 0.9438(9) 0.1205(4)
H92 H 0.6235 0.9441 0.1268
H93 H 0.5846 0.9835 0.0990
O4 O 0.5179(5) 0.1253(10) 0.6849(8)
H94 H 0.5402 0.0972 0.6701
H95 H 0.4994 0.1597 0.6664
O5 O 0.7965(7) 0.1665(10) 0.0177(5)
H96 H 0.8149 0.2007 0.0345
H97 H 0.7856 0.1319 0.0387
O6 O 0.9165(4) 0.5306(10) 0.8743(5)
H98 H 0.8888 0.5649 0.8683
H99 H 0.9043 0.4708 0.8859
O7 O 0.5062(6) 0.501(3) 0.9596(5)
H100 H 0.5348 0.4987 0.9477
H101 H 0.4970 0.5593 0.9605
O8 O 0.8361(8) 0.3221(15) 0.9047(8)
H102 H 0.8446 0.2632 0.9041
H103 H 0.8056 0.3250 0.9130
O9 O 0.4943(6) 0.8460(15) 0.1314(7)
H104 H 0.4679 0.8411 0.1128
H105 H 0.5157 0.8822 0.1193
O10 O 0.9075(8) 0.581(2) 0.0802(9)
H106 H 0.9388 0.5654 0.0859
H107 H 0.8960 0.5995 0.1050
O11 O 0.5643(13) 0.0635(17) 0.0495(10)
H108 H 0.5458 0.0882 0.0710
H109 H 0.5449 0.0503 0.0261
O12 O 0.4350(10) 0.7115(16) 0.0858(9)
H110 H 0.4589 0.7045 0.0637
H111 H 0.4200 0.6588 0.0909
O13 O 0.8884(10) 0.237(2) 0.9642(13)
H112 H 0.9116 0.2638 0.9815
H113 H 0.8682 0.2080 0.9809
N33 N 0.5620(12) 0.933(2) 0.9131(10)
C77 C 0.6036(7) 0.7787(14) 0.8991(6)
H114 H 0.5853 0.7519 0.8726
H115 H 0.6017 0.7353 0.9241
H116 H 0.6389 0.7885 0.8932
C78 C 0.5833(9) 0.859(2) 0.9087(7)
loop_
_geom_bond_atom_site_label_1
_geom_bond_atom_site_label_2
_geom_bond_site_symmetry_1
_geom_bond_site_symmetry_2
Mo1 C1 1_555 1_555
Mo2 C54 1_555 1_555
Ni1 N1 1_555 1_555
Ni2 N2 1_555 1_555
Ni3 N3 1_555 1_555
Ni4 N22 1_555 1_555
N1 C1 1_555 1_555
N2 C2 1_555 1_555
N3 C3 1_555 1_555
N4 C4 1_555 1_555
N5 C5 1_555 1_555
N6 C6 1_555 1_555
N7 C7 1_555 1_555
N8 C8 1_555 1_555
N9 Ni1 1_555 1_555
N10 Ni1 1_555 1_555
N11 Ni1 1_555 1_555
H1 N11 1_555 1_555
N12 Ni1 1_555 1_555
N13 Ni2 1_555 1_555
N14 Ni2 1_555 1_555
N15 Ni2 1_555 1_555
H2 N15 1_555 1_555
N16 Ni2 1_555 1_555
N17 Ni3 1_555 1_555
N18 Ni3 1_555 1_555
N19 Ni3 1_555 1_555
H3 N19 1_555 1_555
N20 Ni3 1_555 1_555
N21 Ni1 1_555 1_555
N22 C55 1_555 1_555
N23 C56 1_555 1_555
N24 C57 1_555 1_555
N25 C59 1_555 1_555
N26 C58 1_555 1_555
N27 C60 1_555 1_555
N28 Ni4 1_555 1_555
N29 Ni4 1_555 1_555
N30 Ni4 1_555 1_555
H4 N30 1_555 1_555
N31 Ni4 1_555 1_555
N32 C61 1_555 1_555
C2 Mo1 1_555 1_555
C3 Mo1 1_555 1_555
C4 Mo1 1_555 1_555
C5 Mo1 1_555 1_555
C6 Mo1 1_555 1_555
C7 Mo1 1_555 1_555
C8 Mo1 1_555 1_555
C9 N10 1_555 1_555
C10 C9 1_555 1_555
H5 C10 1_555 1_555
H6 C10 1_555 1_555
H7 C10 1_555 1_555
C11 N9 1_555 1_555
C12 C11 1_555 1_555
H8 C12 1_555 1_555
C13 C12 1_555 1_555
H9 C13 1_555 1_555
C14 C13 1_555 1_555
H10 C14 1_555 1_555
C15 N9 1_555 1_555
C16 N12 1_555 1_555
C17 C16 1_555 1_555
H11 C17 1_555 1_555
H12 C17 1_555 1_555
H13 C17 1_555 1_555
C18 N12 1_555 1_555
H14 C18 1_555 1_555
H15 C18 1_555 1_555
C19 C18 1_555 1_555
H16 C19 1_555 1_555
H17 C19 1_555 1_555
C20 N11 1_555 1_555
H18 C20 1_555 1_555
H19 C20 1_555 1_555
C21 N11 1_555 1_555
H20 C21 1_555 1_555
H21 C21 1_555 1_555
C22 C21 1_555 1_555
H22 C22 1_555 1_555
H23 C22 1_555 1_555
C23 N10 1_555 1_555
H24 C23 1_555 1_555
H25 C23 1_555 1_555
C24 N18 1_555 1_555
C25 C24 1_555 1_555
H26 C25 1_555 1_555
H27 C25 1_555 1_555
H28 C25 1_555 1_555
C26 N17 1_555 1_555
C27 C26 1_555 1_555
H29 C27 1_555 1_555
C28 C27 1_555 1_555
H30 C28 1_555 1_555
C29 C28 1_555 1_555
H31 C29 1_555 1_555
C30 N17 1_555 1_555
C31 N20 1_555 1_555
C32 C31 1_555 1_555
H32 C32 1_555 1_555
H33 C32 1_555 1_555
H34 C32 1_555 1_555
C33 N20 1_555 1_555
H35 C33 1_555 1_555
H36 C33 1_555 1_555
C34 C33 1_555 1_555
H37 C34 1_555 1_555
H38 C34 1_555 1_555
C35 N19 1_555 1_555
H39 C35 1_555 1_555
H40 C35 1_555 1_555
C36 N19 1_555 1_555
H41 C36 1_555 1_555
H42 C36 1_555 1_555
C37 C36 1_555 1_555
H43 C37 1_555 1_555
H44 C37 1_555 1_555
C38 N18 1_555 1_555
H45 C38 1_555 1_555
H46 C38 1_555 1_555
C39 N14 1_555 1_555
C40 C39 1_555 1_555
H47 C40 1_555 1_555
H48 C40 1_555 1_555
H49 C40 1_555 1_555
C41 N13 1_555 1_555
C42 C41 1_555 1_555
H50 C42 1_555 1_555
C43 C42 1_555 1_555
H51 C43 1_555 1_555
C44 C43 1_555 1_555
H52 C44 1_555 1_555
C45 N13 1_555 1_555
C46 N16 1_555 1_555
C47 C46 1_555 1_555
H53 C47 1_555 1_555
H54 C47 1_555 1_555
H55 C47 1_555 1_555
C48 N16 1_555 1_555
H56 C48 1_555 1_555
H57 C48 1_555 1_555
C49 C48 1_555 1_555
H58 C49 1_555 1_555
C50 N15 1_555 1_555
H59 C50 1_555 1_555
H60 C50 1_555 1_555
C51 N15 1_555 1_555
H61 C51 1_555 1_555
H62 C51 1_555 1_555
C52 C51 1_555 1_555
H63 C52 1_555 1_555
H64 C52 1_555 1_555
C53 N14 1_555 1_555
H65 C53 1_555 1_555
H66 C53 1_555 1_555
C54 N21 1_555 1_555
C55 Mo2 1_555 1_555
C56 Mo2 1_555 1_555
C57 Mo2 1_555 1_555
C58 Mo2 1_555 1_555
C59 Mo2 1_555 1_555
C60 Mo2 1_555 1_555
C61 Ni3 1_555 1_555
C62 N31 1_555 1_555
C63 C62 1_555 1_555
H67 C63 1_555 1_555
H68 C63 1_555 1_555
H69 C63 1_555 1_555
C64 N28 1_555 1_555
C65 C64 1_555 1_555
H70 C65 1_555 1_555
C66 C65 1_555 1_555
H71 C66 1_555 1_555
C67 C66 1_555 1_555
H72 C67 1_555 1_555
C68 N28 1_555 1_555
C69 N29 1_555 1_555
C70 C69 1_555 1_555
H73 C70 1_555 1_555
H74 C70 1_555 1_555
H75 C70 1_555 1_555
C71 N29 1_555 1_555
H76 C71 1_555 1_555
H77 C71 1_555 1_555
C72 C71 1_555 1_555
H78 C72 1_555 1_555
H79 C72 1_555 1_555
C73 N30 1_555 1_555
H80 C73 1_555 1_555
H81 C73 1_555 1_555
C74 N30 1_555 1_555
H82 C74 1_555 1_555
H83 C74 1_555 1_555
C75 C74 1_555 1_555
H84 C75 1_555 1_555
H85 C75 1_555 1_555
C76 N31 1_555 1_555
H86 C76 1_555 1_555
H87 C76 1_555 1_555
O1 H88 1_555 1_555
H89 O1 1_555 1_555
O2 H90 1_555 1_555
H91 O2 1_555 1_555
O3 H92 1_555 1_555
H93 O3 1_555 1_555
O4 H94 1_555 1_555
H95 O4 1_555 1_555
O5 H96 1_555 1_555
H97 O5 1_555 1_555
O6 H98 1_555 1_555
H99 O6 1_555 1_555
O7 H100 1_555 1_555
H101 O7 1_555 1_555
O8 H102 1_555 1_555
H103 O8 1_555 1_555
O9 H104 1_555 1_555
H105 O9 1_555 1_555
O10 H106 1_555 1_555
H107 O10 1_555 1_555
O11 H108 1_555 1_555
H109 O11 1_555 1_555
O12 H110 1_555 1_555
H111 O12 1_555 1_555
O13 H112 1_555 1_555
H113 O13 1_555 1_555
N33 C78 1_555 1_555
C77 H114 1_555 1_555
H115 C77 1_555 1_555
H116 C77 1_555 1_555
C78 C77 1_555 1_555
Mo2C N32 1_555 1_555
Ni2A N8 1_555 1_555
Ni4A N27 1_555 1_555
N8A Ni2 1_555 1_555
N27A Ni4 1_555 1_555
N32C Mo2 1_555 1_555
C9 C11 1_555 1_555
C14 C15 1_555 1_555
C15 C16 1_555 1_555
C19 C20 1_555 1_555
C22 C23 1_555 1_555
C24 C26 1_555 1_555
C29 C30 1_555 1_555
C30 C31 1_555 1_555
C34 C35 1_555 1_555
C37 C38 1_555 1_555
C39 C41 1_555 1_555
C44 C45 1_555 1_555
C45 C46 1_555 1_555
C49 C50 1_555 1_555
C52 C53 1_555 1_555
C62 C64 1_555 1_555
C67 C68 1_555 1_555
C68 C69 1_555 1_555
C72 C73 1_555 1_555
C75 C76 1_555 1_555

#END
