
#######################################################################
#
#                 Cambridge Crystallographic Data Centre
#                                CCDC 
#
#######################################################################
#
# If this CIF has been generated from an entry in the Cambridge 
# Structural Database, then it will include bibliographic, chemical, 
# crystal, experimental, refinement or atomic coordinate data resulting 
# from the CCDC's data processing and validation procedures.
#
#######################################################################

data_CIXDUJ
_symmetry_cell_setting           orthorhombic
_symmetry_space_group_name_H-M   'F d d d'
_symmetry_Int_Tables_number      70
_space_group_name_Hall           '-F 2uv 2vw'
loop_
_symmetry_equiv_pos_site_id
_symmetry_equiv_pos_as_xyz
1 x,y,z
2 x,1/2+y,1/2+z
3 x,1/4-y,1/4-z
4 1/2+x,y,1/2+z
5 1/4-x,y,1/4-z
6 1/2+x,1/2+y,z
7 1/4-x,1/4-y,z
8 3/4-x,3/4-y,z
9 3/4-x,y,3/4-z
10 x,3/4-y,3/4-z
11 3/4-x,1/4-y,1/2+z
12 3/4-x,1/2+y,1/4-z
13 1/4-x,3/4-y,1/2+z
14 1/2+x,3/4-y,1/4-z
15 1/4-x,1/2+y,3/4-z
16 1/2+x,1/4-y,3/4-z
17 -x,-y,-z
18 -x,1/2-y,1/2-z
19 -x,3/4+y,3/4+z
20 1/2-x,-y,1/2-z
21 3/4+x,-y,3/4+z
22 1/2-x,1/2-y,-z
23 3/4+x,3/4+y,-z
24 1/4+x,1/4+y,-z
25 1/4+x,-y,1/4+z
26 -x,1/4+y,1/4+z
27 1/4+x,3/4+y,1/2-z
28 1/4+x,1/2-y,3/4+z
29 3/4+x,1/4+y,1/2-z
30 1/2-x,1/4+y,3/4+z
31 3/4+x,1/2-y,1/4+z
32 1/2-x,3/4+y,1/4+z
_cell_length_a                   7.1145(4)
_cell_length_b                   25.8569(15)
_cell_length_c                   43.551(3)
_cell_angle_alpha                90
_cell_angle_beta                 90
_cell_angle_gamma                90
_cell_volume                     8011.59
loop_
_atom_site_label
_atom_site_type_symbol
_atom_site_fract_x
_atom_site_fract_y
_atom_site_fract_z
In1 In 1.1250 -0.11521(3) 0.1250
O1 O 1.3750 -0.1250 0.10095(17)
O2 O 1.0206(9) -0.1753(2) 0.09545(17)
O3 O 0.7164(8) -0.1948(2) 0.09389(13)
C1 C 0.8889(12) -0.2026(3) 0.08717(18)
C2 C 0.9337(11) -0.2488(3) 0.06772(18)
C3 C 1.1069(13) -0.2723(3) 0.0722(2)
H1 H 1.1869 -0.2600 0.0874
C4 C 1.1617(11) -0.3135(3) 0.05439(19)
H2 H 1.2763 -0.3297 0.0580
C5 C 1.0451(12) -0.3310(3) 0.03082(18)
C6 C 0.8738(13) -0.3075(3) 0.02631(19)
H3 H 0.7959 -0.3187 0.0105
C7 C 0.8165(12) -0.2673(3) 0.0451(2)
H4 H 0.6981 -0.2527 0.0425
C8 C 1.1250 -0.3750 0.0105(2)
C9 C 0.9743(16) -0.4002(4) -0.0104(2)
F1 F 0.9136(10) -0.3681(2) -0.03267(12)
F2 F 0.8243(8) -0.4151(2) 0.00518(15)
F3 F 1.0424(10) -0.4419(2) -0.02470(14)
H5 H 1.3749 -0.1250 0.0807
In1G In 1.6250 -0.13479(3) 0.1250
In1G_2 In 0.6250 -0.13479(3) 0.1250
In1B In 1.1250 -0.63479(3) 0.1250
In1E In 1.6250 -0.61521(3) 0.1250
O1D O 0.8750 -0.1250 0.14905(17)
O2F O 1.2294(9) -0.5747(2) 0.09545(17)
O2D O 1.2294(9) -0.1753(2) 0.15455(17)
O3F O 1.5336(8) -0.5552(2) 0.09389(13)
O3G O 1.0336(8) -0.0552(2) 0.09389(13)
O3M O 1.2164(8) -0.0552(2) 0.15611(13)
C1F C 1.3611(12) -0.5474(3) 0.08717(18)
C2F C 1.3163(11) -0.5012(3) 0.06772(18)
C3F C 1.1431(13) -0.4777(3) 0.0722(2)
H1F H 1.0631 -0.4900 0.0874
C4F C 1.0883(11) -0.4365(3) 0.05439(19)
H2F H 0.9737 -0.4203 0.0580
C5F C 1.2049(12) -0.4190(3) 0.03082(18)
C6F C 1.3762(13) -0.4425(3) 0.02631(19)
H3F H 1.4541 -0.4313 0.0105
C7F C 1.4335(12) -0.4827(3) 0.0451(2)
H4F H 1.5519 -0.4973 0.0425
C9F C 1.2757(16) -0.3498(4) -0.0104(2)
F1F F 1.3364(10) -0.3819(2) -0.03267(12)
F2F F 1.4257(8) -0.3349(2) 0.00518(15)
F3F F 1.2076(10) -0.3081(2) -0.02470(14)
H5D H 0.8751 -0.1250 0.1693
loop_
_geom_bond_atom_site_label_1
_geom_bond_atom_site_label_2
_geom_bond_site_symmetry_1
_geom_bond_site_symmetry_2
In1 O1 1_555 1_555
O1 H5 1_555 1_555
O2 In1 1_555 1_555
O3 C1 1_555 1_555
C1 O2 1_555 1_555
C2 C1 1_555 1_555
C3 C2 1_555 1_555
H1 C3 1_555 1_555
C4 C3 1_555 1_555
H2 C4 1_555 1_555
C5 C4 1_555 1_555
C6 C5 1_555 1_555
H3 C6 1_555 1_555
C7 C2 1_555 1_555
H4 C7 1_555 1_555
C8 C5 1_555 1_555
C9 C8 1_555 1_555
F1 C9 1_555 1_555
F2 C9 1_555 1_555
F3 C9 1_555 1_555
In1G O1 1_555 1_555
In1G_2 O3 1_555 1_555
In1B O2F 1_555 1_555
In1E O3F 1_555 1_555
O1D In1 1_555 1_555
O2F C1F 1_555 1_555
O2D In1 1_555 1_555
O3F C1F 1_555 1_555
O3G In1 1_555 1_555
O3M In1 1_555 1_555
C1F C2F 1_555 1_555
C2F C3F 1_555 1_555
C3F H1F 1_555 1_555
C4F C3F 1_555 1_555
H2F C4F 1_555 1_555
C5F C8 1_555 1_555
C6F C5F 1_555 1_555
H3F C6F 1_555 1_555
C7F C2F 1_555 1_555
H4F C7F 1_555 1_555
C9F C8 1_555 1_555
F1F C9F 1_555 1_555
F2F C9F 1_555 1_555
F3F C9F 1_555 1_555
H5D O1D 1_555 1_555
C6 C7 1_555 1_555
In1G_2 O1D 1_555 1_555
C4F C5F 1_555 1_555
C6F C7F 1_555 1_555

#END
