
#######################################################################
#
#                 Cambridge Crystallographic Data Centre
#                                CCDC 
#
#######################################################################
#
# If this CIF has been generated from an entry in the Cambridge 
# Structural Database, then it will include bibliographic, chemical, 
# crystal, experimental, refinement or atomic coordinate data resulting 
# from the CCDC's data processing and validation procedures.
#
#######################################################################

data_CIXKEZ
_symmetry_cell_setting           orthorhombic
_symmetry_space_group_name_H-M   'P 21 21 2'
_symmetry_Int_Tables_number      18
_space_group_name_Hall           'P 2 2ab'
loop_
_symmetry_equiv_pos_site_id
_symmetry_equiv_pos_as_xyz
1 x,y,z
2 1/2+x,1/2-y,-z
3 1/2-x,1/2+y,-z
4 -x,-y,z
_cell_length_a                   7.805(3)
_cell_length_b                   11.068(4)
_cell_length_c                   8.974(8)
_cell_angle_alpha                90
_cell_angle_beta                 90
_cell_angle_gamma                90
_cell_volume                     775.226
loop_
_atom_site_label
_atom_site_type_symbol
_atom_site_fract_x
_atom_site_fract_y
_atom_site_fract_z
Ni1 Ni 0.13529(6) 0.21474(5) -0.21183(6)
O1 O 0.2767(4) 0.1577(2) -0.3840(3)
O2 O 0.2626(4) 0.0719(2) -0.6083(3)
O3 O -0.0491(4) 0.1211(2) -0.3296(3)
O4 O -0.0283(4) 0.2527(2) -0.0473(3)
O5 O -0.1708(4) 0.1737(3) 0.1459(3)
O6 O 0.1675(4) 0.0615(3) -0.0781(3)
O7 O 0.0525(7) 0.3746(5) -0.2794(8)
C1 C 0.1978(5) 0.1023(3) -0.4874(5)
C2 C 0.0101(6) 0.0697(4) -0.4652(4)
C3 C -0.0574(6) 0.1702(4) 0.0482(5)
C4 C 0.0549(6) 0.0575(4) 0.0476(4)
H1 H -0.045(8) 0.103(6) -0.542(6)
H2 H -0.186(8) 0.133(5) -0.322(7)
H3 H 0.124(9) 0.062(5) 0.131(6)
H4 H 0.269(8) 0.057(6) -0.074(6)
H5 H 0.126(9) 0.421(5) -0.353(7)
H6 H -0.047(9) 0.382(6) -0.320(7)
C2C C -0.0101(6) -0.0697(4) -0.4652(4)
O3C O 0.0491(4) -0.1211(2) -0.3296(3)
H2C H 0.186(8) -0.133(5) -0.322(7)
C1C C -0.1978(5) -0.1023(3) -0.4874(5)
O1C O -0.2767(4) -0.1577(2) -0.3840(3)
O2C O -0.2626(4) -0.0719(2) -0.6083(3)
H1C H 0.045(8) -0.103(6) -0.542(6)
C4C C -0.0549(6) -0.0575(4) 0.0476(4)
O6C O -0.1675(4) -0.0615(3) -0.0781(3)
H4C H -0.269(8) -0.057(6) -0.074(6)
C3C C 0.0574(6) -0.1702(4) 0.0482(5)
O4C O 0.0283(4) -0.2527(2) -0.0473(3)
O5C O 0.1708(4) -0.1737(3) 0.1459(3)
H3C H -0.124(9) -0.062(5) 0.131(6)
Ni1C Ni -0.13529(6) -0.21474(5) -0.21183(6)
O5A O 0.3292(4) 0.3263(3) -0.1459(3)
Ni1A Ni -0.36471(6) 0.28526(5) 0.21183(6)
Ni1B Ni 0.36471(6) -0.28526(5) 0.21183(6)
O1A O -0.2233(4) 0.3423(2) 0.3840(3)
O3A O -0.5491(4) 0.3789(2) 0.3296(3)
O4A O -0.5283(4) 0.2473(2) 0.0473(3)
O6A O -0.3325(4) 0.4385(3) 0.0781(3)
O7A O -0.4475(7) 0.1254(5) 0.2794(8)
H2A H -0.686(8) 0.367(5) 0.322(7)
H4A H -0.231(8) 0.443(6) 0.074(6)
H5A H -0.374(9) 0.079(5) 0.353(7)
H6A H -0.547(9) 0.118(6) 0.320(7)
O8 O 0.1151(4) 0.3771(3) 0.2937(4)
H7 H 0.051(9) 0.360(6) 0.335(7)
O9 O 0.0000 0.5000 -0.0061(5)
H8 H -0.010(11) 0.558(5) -0.039(6)
H8C H 0.010(11) 0.442(5) -0.039(6)
loop_
_geom_bond_atom_site_label_1
_geom_bond_atom_site_label_2
_geom_bond_site_symmetry_1
_geom_bond_site_symmetry_2
Ni1 O1 1_555 1_555
O1 C1 1_555 1_555
O2 C1 1_555 1_555
O3 Ni1 1_555 1_555
O4 Ni1 1_555 1_555
O5 C3 1_555 1_555
O6 Ni1 1_555 1_555
O7 Ni1 1_555 1_555
O8 H7 1_555 1_555
O9 H8 1_555 1_555
C1 C2 1_555 1_555
C2 O3 1_555 1_555
C3 O4 1_555 1_555
C4 O6 1_555 1_555
H1 C2 1_555 1_555
H2 O3 1_555 1_555
H3 C4 1_555 1_555
H4 O6 1_555 1_555
H5 O7 1_555 1_555
H6 O7 1_555 1_555
C2C C2 1_555 1_555
O3C C2C 1_555 1_555
H2C O3C 1_555 1_555
C1C C2C 1_555 1_555
O1C C1C 1_555 1_555
O2C C1C 1_555 1_555
H1C C2C 1_555 1_555
C4C C4 1_555 1_555
O6C C4C 1_555 1_555
H4C O6C 1_555 1_555
C3C C4C 1_555 1_555
O4C C3C 1_555 1_555
O5C C3C 1_555 1_555
H3C C4C 1_555 1_555
H8C O9 1_555 1_555
Ni1C O3C 1_555 1_555
O5A Ni1 1_555 1_555
Ni1A O5 1_555 1_555
Ni1B O5C 1_555 1_555
O1A Ni1A 1_555 1_555
O3A Ni1A 1_555 1_555
O4A Ni1A 1_555 1_555
O6A Ni1A 1_555 1_555
O7A Ni1A 1_555 1_555
H2A O3A 1_555 1_555
H4A O6A 1_555 1_555
H5A O7A 1_555 1_555
H6A O7A 1_555 1_555
C3 C4 1_555 1_555
O1C Ni1C 1_555 1_555
O6C Ni1C 1_555 1_555
O4C Ni1C 1_555 1_555

#END
