
#######################################################################
#
#                 Cambridge Crystallographic Data Centre
#                                CCDC 
#
#######################################################################
#
# If this CIF has been generated from an entry in the Cambridge 
# Structural Database, then it will include bibliographic, chemical, 
# crystal, experimental, refinement or atomic coordinate data resulting 
# from the CCDC's data processing and validation procedures.
#
#######################################################################

data_CIXKEZ01
_symmetry_cell_setting           orthorhombic
_symmetry_space_group_name_H-M   'P 21 21 21'
_symmetry_Int_Tables_number      19
_space_group_name_Hall           'P 2ac 2ab'
loop_
_symmetry_equiv_pos_site_id
_symmetry_equiv_pos_as_xyz
1 x,y,z
2 1/2-x,-y,1/2+z
3 -x,1/2+y,1/2-z
4 1/2+x,1/2-y,-z
_cell_length_a                   7.8072(5)
_cell_length_b                   11.0636(8)
_cell_length_c                   17.9361(9)
_cell_angle_alpha                90
_cell_angle_beta                 90
_cell_angle_gamma                90
_cell_volume                     1549.24
loop_
_atom_site_label
_atom_site_type_symbol
_atom_site_fract_x
_atom_site_fract_y
_atom_site_fract_z
Ni1 Ni 0.89538(3) 0.28198(2) 0.362625(14)
Ni2 Ni 0.37479(3) 0.21153(2) 0.151120(14)
O1 O 0.72642(18) 0.23801(13) 0.28237(9)
O2 O 0.57950(19) 0.31173(13) 0.18598(9)
C1 C 0.6965(2) 0.31615(18) 0.23284(12)
C2 C 0.8130(3) 0.42718(18) 0.22766(12)
H1 H 0.8804 0.4216 0.1804
O3 O 0.93045(18) 0.42737(13) 0.28896(9)
H2 H 1.0214 0.4574 0.2756
C3 C 0.7053(2) 0.54235(17) 0.22494(12)
H3 H 0.6316 0.5385 0.1794
O4 O 0.59490(18) 0.55118(13) 0.28856(8)
H4 H 0.4990 0.5297 0.2755
C4 C 0.8147(2) 0.65682(17) 0.21970(12)
O5 O 0.78517(19) 0.74233(13) 0.26340(9)
O6 O 0.9237(2) 0.65827(13) 0.16872(9)
O7 O 1.03870(18) 0.35422(14) 0.44429(9)
O8 O 1.0195(2) 0.43875(15) 0.55646(9)
C5 C 0.9571(3) 0.40782(18) 0.49540(12)
C6 C 0.7696(3) 0.43927(19) 0.48366(12)
H5 H 0.7008 0.4060 0.5260
O9 O 0.71333(18) 0.38595(14) 0.41619(9)
H6 H 0.6109 0.3698 0.4175
C7 C 0.7492(3) 0.57826(19) 0.48167(12)
H7 H 0.8163 0.6139 0.5238
O10 O 0.80952(18) 0.62819(14) 0.41388(9)
H8 H 0.9130 0.6410 0.4142
C8 C 0.5617(3) 0.61165(18) 0.49162(12)
O11 O 0.48718(18) 0.66914(14) 0.44002(9)
O12 O 0.4952(2) 0.58046(15) 0.55139(9)
O13 O 0.83427(19) 0.14688(13) 0.43469(9)
H9 H 0.8930 0.0859 0.4303
H10 H 0.7356 0.1217 0.4369
O14 O 0.30045(18) 0.37481(13) 0.11075(9)
H11 H 0.3738 0.4073 0.0849
H12 H 0.2187 0.3787 0.0821
O6B O 1.0763(2) 0.15827(13) 0.33128(9)
O4B O 0.40510(18) 0.05118(13) 0.21144(8)
O5B O 0.21483(19) 0.24233(13) 0.23660(9)
O10B O 0.19048(18) 0.12819(14) 0.08612(9)
O11B O 0.51282(18) 0.16914(14) 0.05998(9)
Ni2B Ni 0.62521(3) 0.71153(2) 0.348880(14)
Ni1B Ni 1.10462(3) 0.78198(2) 0.137375(14)
H4B H 0.5010 0.0297 0.2245
H8B H 0.0870 0.1410 0.0858
O15 O 1.26101(19) 0.49717(12) 0.24702(10)
H13 H 1.2606 0.4642 0.2061
H14 H 1.2509 0.5679 0.2340
O16 O 0.3784(2) 0.3714(2) 0.39201(11)
H15 H 0.3119 0.3504 0.4250
H16 H 0.3531 0.3550 0.3488
O17 O 1.1467(2) 0.61999(18) 0.40338(13)
H17 H 1.2263 0.6544 0.4244
H18 H 1.1632 0.5493 0.3917
loop_
_geom_bond_atom_site_label_1
_geom_bond_atom_site_label_2
_geom_bond_site_symmetry_1
_geom_bond_site_symmetry_2
Ni1 O1 1_555 1_555
Ni2 O2 1_555 1_555
O1 C1 1_555 1_555
O2 C1 1_555 1_555
C1 C2 1_555 1_555
C2 H1 1_555 1_555
O3 Ni1 1_555 1_555
H2 O3 1_555 1_555
C3 C2 1_555 1_555
H3 C3 1_555 1_555
O4 C3 1_555 1_555
H4 O4 1_555 1_555
C4 C3 1_555 1_555
O5 C4 1_555 1_555
O6 C4 1_555 1_555
O7 Ni1 1_555 1_555
O8 C5 1_555 1_555
C5 O7 1_555 1_555
C6 C5 1_555 1_555
H5 C6 1_555 1_555
O9 Ni1 1_555 1_555
H6 O9 1_555 1_555
C7 C6 1_555 1_555
H7 C7 1_555 1_555
O10 C7 1_555 1_555
H8 O10 1_555 1_555
C8 C7 1_555 1_555
O11 C8 1_555 1_555
O12 C8 1_555 1_555
O13 Ni1 1_555 1_555
H9 O13 1_555 1_555
H10 O13 1_555 1_555
O14 Ni2 1_555 1_555
H11 O14 1_555 1_555
H12 O14 1_555 1_555
O15 H13 1_555 1_555
H14 O15 1_555 1_555
O16 H15 1_555 1_555
H16 O16 1_555 1_555
O17 H17 1_555 1_555
H18 O17 1_555 1_555
O6B Ni1 1_555 1_555
O4B Ni2 1_555 1_555
O5B Ni2 1_555 1_555
O10B Ni2 1_555 1_555
O11B Ni2 1_555 1_555
Ni2B O4 1_555 1_555
Ni1B O6 1_555 1_555
H4B O4B 1_555 1_555
H8B O10B 1_555 1_555
C2 O3 1_555 1_555
O5 Ni2B 1_555 1_555
C6 O9 1_555 1_555
O10 Ni2B 1_555 1_555
O11 Ni2B 1_555 1_555

#END
