
#######################################################################
#
#                 Cambridge Crystallographic Data Centre
#                                CCDC 
#
#######################################################################
#
# If this CIF has been generated from an entry in the Cambridge 
# Structural Database, then it will include bibliographic, chemical, 
# crystal, experimental, refinement or atomic coordinate data resulting 
# from the CCDC's data processing and validation procedures.
#
#######################################################################

data_CIXKEZ02
_symmetry_cell_setting           orthorhombic
_symmetry_space_group_name_H-M   'P 21 21 21'
_symmetry_Int_Tables_number      19
_space_group_name_Hall           'P 2ac 2ab'
loop_
_symmetry_equiv_pos_site_id
_symmetry_equiv_pos_as_xyz
1 x,y,z
2 1/2+x,1/2-y,-z
3 -x,1/2+y,1/2-z
4 1/2-x,-y,1/2+z
_cell_length_a                   7.8141(8)
_cell_length_b                   11.0629(8)
_cell_length_c                   17.9430(14)
_cell_angle_alpha                90
_cell_angle_beta                 90
_cell_angle_gamma                90
_cell_volume                     1551.11
loop_
_atom_site_label
_atom_site_type_symbol
_atom_site_fract_x
_atom_site_fract_y
_atom_site_fract_z
Ni1 Ni 0.12499(4) 1.21143(3) 0.348890(16)
Ni2 Ni -0.39568(4) 1.28194(3) 0.137190(17)
O1 O -0.2270(2) 1.23743(15) 0.21719(9)
O2 O -0.0801(2) 1.31103(14) 0.31412(10)
O3 O -0.4309(2) 1.42694(15) 0.21080(10)
H1 H -0.530(2) 1.442(3) 0.2280(18)
O4 O -0.0948(2) 1.55090(15) 0.21096(10)
H2 H 0.004(2) 1.529(3) 0.2242(18)
O5 O -0.4231(2) 1.65831(14) 0.33168(10)
O6 O -0.2840(2) 1.74266(14) 0.23666(10)
O7 O 0.5194(2) 0.93835(16) 0.55701(10)
O8 O 0.5394(2) 0.85438(16) 0.44440(10)
O9 O 0.2138(2) 0.88573(16) 0.41616(10)
H3 H 0.1053(15) 0.873(3) 0.4137(17)
O10 O 0.3092(2) 1.12840(16) 0.41365(10)
H4 H 0.4180(14) 1.139(3) 0.4139(17)
O11 O -0.0051(2) 1.08098(16) 0.55184(10)
O12 O -0.0132(2) 1.16919(16) 0.43999(10)
O13 O 0.1995(2) 1.37509(16) 0.38924(11)
H5 H 0.294(2) 1.383(3) 0.4136(16)
H6 H 0.122(3) 1.417(3) 0.4110(17)
O14 O -0.3349(2) 1.14719(16) 0.06495(11)
H7 H -0.403(3) 1.0873(19) 0.0641(17)
H8 H -0.2311(19) 1.126(3) 0.063(2)
C1 C -0.1973(3) 1.3160(2) 0.26717(14)
C2 C -0.3139(3) 1.4263(2) 0.27221(14)
H9 H -0.3814 1.4208 0.3195
C3 C -0.2043(3) 1.5424(2) 0.27492(14)
H10 H -0.1300 1.5381 0.3202
C4 C -0.3137(3) 1.6566(2) 0.28082(14)
C5 C 0.4572(3) 0.9078(2) 0.49548(15)
C6 C 0.2695(3) 0.9392(2) 0.48361(14)
H11 H 0.2006 0.9059 0.5259
C7 C 0.2491(3) 1.0784(2) 0.48171(14)
H12 H 0.3166 1.1139 0.5237
C8 C 0.0620(3) 1.1122(2) 0.49183(15)
Ni1B Ni -0.12499(4) 1.71143(3) 0.151110(16)
Ni2B Ni -0.60432(4) 1.78194(3) 0.362810(17)
Ni2B_2 Ni 0.39568(4) 0.78194(3) 0.362810(17)
O4B O 0.0948(2) 1.05090(15) 0.28904(10)
H2B H -0.004(2) 1.029(3) 0.2758(18)
O5B O -0.5769(2) 1.15831(14) 0.16832(10)
O6B O 0.2840(2) 1.24266(14) 0.26334(10)
O8B O -0.5394(2) 1.35438(16) 0.05560(10)
O9B O -0.2138(2) 1.38573(16) 0.08384(10)
H3B H -0.1053(15) 1.373(3) 0.0863(17)
O15 O 0.8776(3) 0.8726(2) 0.39171(12)
H13 H 0.804(3) 0.853(3) 0.4239(13)
H14 H 0.861(5) 0.857(4) 0.3465(8)
O16 O 0.7608(2) 0.99710(16) 0.24708(11)
H15 H 0.752(4) 1.0720(11) 0.2388(18)
H16 H 0.768(4) 0.958(3) 0.2067(11)
O17 O 0.6465(3) 0.11940(19) 0.40387(14)
H17 H 0.735(3) 0.151(3) 0.4232(18)
H18 H 0.673(5) 0.0479(15) 0.391(2)
loop_
_geom_bond_atom_site_label_1
_geom_bond_atom_site_label_2
_geom_bond_site_symmetry_1
_geom_bond_site_symmetry_2
Ni1 O2 1_555 1_555
Ni2 O1 1_555 1_555
O1 C1 1_555 1_555
O2 C1 1_555 1_555
O3 Ni2 1_555 1_555
H1 O3 1_555 1_555
O4 H2 1_555 1_555
O5 C4 1_555 1_555
O6 C4 1_555 1_555
O7 C5 1_555 1_555
O8 C5 1_555 1_555
O9 H3 1_555 1_555
O10 Ni1 1_555 1_555
H4 O10 1_555 1_555
O11 C8 1_555 1_555
O12 Ni1 1_555 1_555
O13 Ni1 1_555 1_555
H5 O13 1_555 1_555
H6 O13 1_555 1_555
O14 Ni2 1_555 1_555
H7 O14 1_555 1_555
H8 O14 1_555 1_555
C1 C2 1_555 1_555
C2 O3 1_555 1_555
H9 C2 1_555 1_555
C3 O4 1_555 1_555
H10 C3 1_555 1_555
C4 C3 1_555 1_555
C5 C6 1_555 1_555
C6 O9 1_555 1_555
H11 C6 1_555 1_555
C7 O10 1_555 1_555
H12 C7 1_555 1_555
C8 O12 1_555 1_555
O15 H13 1_555 1_555
H14 O15 1_555 1_555
O16 H15 1_555 1_555
H16 O16 1_555 1_555
O17 H17 1_555 1_555
H18 O17 1_555 1_555
Ni1B O4 1_555 1_555
Ni2B O5 1_555 1_555
Ni2B_2 O8 1_555 1_555
O4B Ni1 1_555 1_555
H2B O4B 1_555 1_555
O5B Ni2 1_555 1_555
O6B Ni1 1_555 1_555
O8B Ni2 1_555 1_555
O9B Ni2 1_555 1_555
H3B O9B 1_555 1_555
O6 Ni1B 1_555 1_555
O9 Ni2B_2 1_555 1_555
C2 C3 1_555 1_555
C6 C7 1_555 1_555
C7 C8 1_555 1_555

#END
