
#######################################################################
#
#                 Cambridge Crystallographic Data Centre
#                                CCDC 
#
#######################################################################
#
# If this CIF has been generated from an entry in the Cambridge 
# Structural Database, then it will include bibliographic, chemical, 
# crystal, experimental, refinement or atomic coordinate data resulting 
# from the CCDC's data processing and validation procedures.
#
#######################################################################

data_CIXPOP
_symmetry_cell_setting           monoclinic
_symmetry_space_group_name_H-M   'P 2/c'
_symmetry_Int_Tables_number      13
_space_group_name_Hall           '-P 2yc'
loop_
_symmetry_equiv_pos_site_id
_symmetry_equiv_pos_as_xyz
1 x,y,z
2 -x,y,1/2-z
3 -x,-y,-z
4 x,-y,1/2+z
_cell_length_a                   8.0900(16)
_cell_length_b                   6.5096(13)
_cell_length_c                   19.831(4)
_cell_angle_alpha                90
_cell_angle_beta                 98.75(3)
_cell_angle_gamma                90
_cell_volume                     1032.2
loop_
_atom_site_label
_atom_site_type_symbol
_atom_site_fract_x
_atom_site_fract_y
_atom_site_fract_z
C1 C 0.3299(6) 0.7679(9) 0.0348(2)
H1 H 0.3780 0.8716 0.0121
C2 C 0.4315(6) 0.6137(9) 0.0658(3)
H2 H 0.5464 0.6148 0.0656
C3 C 0.3559(7) 0.4587(9) 0.0967(3)
H3 H 0.4203 0.3502 0.1167
C4 C 0.1855(6) 0.4607(8) 0.0988(2)
C5 C 0.0954(5) 0.6243(8) 0.0683(2)
C6 C -0.0915(6) 0.6521(8) 0.0707(2)
C7 C 0.1101(6) 0.2898(9) 0.1356(3)
C8 C 0.3237(7) 0.0895(11) 0.3305(3)
H4 H 0.4114 0.0097 0.3561
H5 H 0.2830 0.1880 0.3600
H6 H 0.3664 0.1601 0.2943
C9 C 0.2477(9) -0.2124(11) 0.2604(4)
H7 H 0.2762 -0.1558 0.2190
H8 H 0.1613 -0.3134 0.2496
H9 H 0.3447 -0.2757 0.2860
N1 N 0.1649(5) 0.7744(7) 0.03620(19)
N2 N 0.1873(6) -0.0461(8) 0.3017(2)
O1 O -0.1607(5) 0.5233(6) 0.1019(2)
O2 O -0.1600(4) 0.8090(6) 0.04214(18)
O3 O 0.0551(4) 0.1333(6) 0.10461(18)
O4 O 0.1185(5) 0.3181(7) 0.19905(19)
Zn1 Zn 0.0000 0.12325(14) 0.2500
Zn2 Zn 0.0000 1.0000 0.0000
H10 H 0.170(10) -0.134(14) 0.343(4)
C1A C -0.3299(6) 0.7679(9) 0.4652(2)
H1A H -0.3780 0.8716 0.4879
C2A C -0.4315(6) 0.6137(9) 0.4342(3)
H2A H -0.5464 0.6148 0.4344
C3A C -0.3559(7) 0.4587(9) 0.4033(3)
H3A H -0.4203 0.3502 0.3833
C4A C -0.1855(6) 0.4607(8) 0.4012(2)
C5A C -0.0954(5) 0.6243(8) 0.4317(2)
C6A C 0.0915(6) 0.6521(8) 0.4293(2)
C7A C -0.1101(6) 0.2898(9) 0.3644(3)
C8A C -0.3237(7) 0.0895(11) 0.1695(3)
H4A H -0.4114 0.0097 0.1439
H5A H -0.2830 0.1880 0.1400
H6A H -0.3664 0.1601 0.2057
C9A C -0.2477(9) -0.2124(11) 0.2396(4)
H7A H -0.2762 -0.1558 0.2810
H8A H -0.1613 -0.3134 0.2504
H9A H -0.3447 -0.2757 0.2140
N1A N -0.1649(5) 0.7744(7) 0.46380(19)
N1B N -0.1649(5) 1.2256(7) -0.03620(19)
N2A N -0.1873(6) -0.0461(8) 0.1983(2)
O1A O 0.1607(5) 0.5233(6) 0.3981(2)
O2A O 0.1600(4) 0.8090(6) 0.45786(18)
O2B O 0.1600(4) 1.1910(6) -0.04214(18)
O3A O -0.0551(4) 0.1333(6) 0.39539(18)
O3_2 O 0.0551(4) 1.1333(6) 0.10461(18)
O3B O -0.0551(4) 0.8667(6) -0.10461(18)
O4A O -0.1185(5) 0.3181(7) 0.30095(19)
Zn2_2 Zn 0.0000 0.0000 0.0000
Zn2C Zn 0.0000 1.0000 0.5000
Zn2C_2 Zn 0.0000 0.0000 0.5000
H10A H -0.170(10) -0.134(14) 0.157(4)
loop_
_geom_bond_atom_site_label_1
_geom_bond_atom_site_label_2
_geom_bond_site_symmetry_1
_geom_bond_site_symmetry_2
C1 H1 1_555 1_555
C2 C1 1_555 1_555
H2 C2 1_555 1_555
C3 C2 1_555 1_555
H3 C3 1_555 1_555
C4 C3 1_555 1_555
C5 C4 1_555 1_555
C6 C5 1_555 1_555
C7 C4 1_555 1_555
C8 H4 1_555 1_555
H5 C8 1_555 1_555
H6 C8 1_555 1_555
C9 H7 1_555 1_555
H8 C9 1_555 1_555
H9 C9 1_555 1_555
N1 C1 1_555 1_555
N2 C8 1_555 1_555
O1 C6 1_555 1_555
O2 C6 1_555 1_555
O3 C7 1_555 1_555
O4 C7 1_555 1_555
Zn1 N2 1_555 1_555
Zn2 N1 1_555 1_555
H10 N2 1_555 1_555
C1A H1A 1_555 1_555
C2A C1A 1_555 1_555
H2A C2A 1_555 1_555
C3A C2A 1_555 1_555
H3A C3A 1_555 1_555
C4A C3A 1_555 1_555
C5A C4A 1_555 1_555
C6A C5A 1_555 1_555
C7A C4A 1_555 1_555
C8A H4A 1_555 1_555
H5A C8A 1_555 1_555
H6A C8A 1_555 1_555
C9A H7A 1_555 1_555
H8A C9A 1_555 1_555
H9A C9A 1_555 1_555
N1A C1A 1_555 1_555
N1B Zn2 1_555 1_555
N2A Zn1 1_555 1_555
O1A C6A 1_555 1_555
O2A C6A 1_555 1_555
O2B Zn2 1_555 1_555
O3A C7A 1_555 1_555
O3_2 Zn2 1_555 1_555
O3B Zn2 1_555 1_555
O4A Zn1 1_555 1_555
Zn2_2 O3 1_555 1_555
Zn2C N1A 1_555 1_555
Zn2C_2 O3A 1_555 1_555
H10A N2A 1_555 1_555
C5 N1 1_555 1_555
C9 N2 1_555 1_555
O2 Zn2 1_555 1_555
O4 Zn1 1_555 1_555
C5A N1A 1_555 1_555
C7A O4A 1_555 1_555
C8A N2A 1_555 1_555
C9A N2A 1_555 1_555
O2A Zn2C 1_555 1_555

#END
