
#######################################################################
#
#                 Cambridge Crystallographic Data Centre
#                                CCDC 
#
#######################################################################
#
# If this CIF has been generated from an entry in the Cambridge 
# Structural Database, then it will include bibliographic, chemical, 
# crystal, experimental, refinement or atomic coordinate data resulting 
# from the CCDC's data processing and validation procedures.
#
#######################################################################

data_CIXROR
_symmetry_cell_setting           triclinic
_symmetry_space_group_name_H-M   'P -1'
_symmetry_Int_Tables_number      2
_space_group_name_Hall           '-P 1'
loop_
_symmetry_equiv_pos_site_id
_symmetry_equiv_pos_as_xyz
1 x,y,z
2 -x,-y,-z
_cell_length_a                   8.8687(4)
_cell_length_b                   10.1811(5)
_cell_length_c                   17.9103(9)
_cell_angle_alpha                76.957(7)
_cell_angle_beta                 76.550(6)
_cell_angle_gamma                70.634(6)
_cell_volume                     1464.26
loop_
_atom_site_label
_atom_site_type_symbol
_atom_site_fract_x
_atom_site_fract_y
_atom_site_fract_z
La1 La 0.745941(15) 0.497242(14) 0.508140(7)
Cl1 Cl 1.1956(2) -0.03680(19) 0.86706(7)
Cl2 Cl 0.7149(2) 0.0065(2) 0.97156(7)
Cl3 Cl 0.7832(2) 0.4748(2) 1.11914(6)
O1 O 0.50951(18) 0.36565(17) 0.54113(9)
O2 O 1.03699(18) 0.35962(16) 0.49050(9)
O3 O 0.8211(2) 0.4628(2) 0.64360(9)
O4 O 0.73887(19) 0.24988(18) 0.58280(10)
O5 O 0.5600(2) 0.5445(2) 0.64241(10)
O6 O 0.7576(2) 0.3586(2) 0.39995(10)
O7 O 1.2164(2) -0.00878(18) 0.53491(12)
O8 O 0.7764(3) 0.4467(3) 0.79723(11)
O9 O 0.8588(2) 0.59323(19) 0.36409(10)
O10 O 1.29443(19) 0.24343(18) 0.48699(10)
O11 O 0.6374(2) 0.02002(19) 0.65409(10)
C1 C 1.1521(3) 0.2452(2) 0.49086(13)
C2 C 1.1121(3) 0.1101(2) 0.49452(15)
H1 H 0.9985 0.1204 0.5209
H2 H 1.1213 0.0940 0.4409
C3 C 1.2040(3) -0.0097(3) 0.61306(17)
C4 C 1.0735(4) 0.0756(3) 0.65673(17)
H3 H 0.9861 0.1397 0.6329
C5 C 1.0712(4) 0.0671(4) 0.73468(19)
H4 H 0.9826 0.1257 0.7648
C6 C 1.1979(5) -0.0269(4) 0.7687(2)
C7 C 1.3274(5) -0.1111(4) 0.7254(2)
H5 H 1.4146 -0.1753 0.7494
C8 C 1.3309(4) -0.1027(3) 0.6477(2)
H6 H 1.4205 -0.1607 0.6177
C9 C 0.6000(3) 0.2562(2) 0.57719(12)
C10 C 0.5307(3) 0.1351(3) 0.61265(15)
H7 H 0.4281 0.1692 0.6485
H8 H 0.5047 0.1015 0.5708
C11 C 0.6488(4) 0.0268(3) 0.72782(16)
C12 C 0.5738(5) 0.1393(4) 0.76535(19)
H9 H 0.5069 0.2233 0.7400
C13 C 0.5951(6) 0.1316(5) 0.8413(2)
H10 H 0.5434 0.2104 0.8676
C14 C 0.6884(7) 0.0129(6) 0.8767(2)
C15 C 0.7662(6) -0.0980(6) 0.8404(2)
H11 H 0.8352 -0.1800 0.8662
C16 C 0.7467(5) -0.0938(4) 0.7653(2)
H12 H 0.8005 -0.1733 0.7398
C17 C 0.6788(3) 0.5069(3) 0.67721(14)
C18 C 0.6442(4) 0.5254(4) 0.76117(17)
H13 H 0.6200 0.6263 0.7643
H14 H 0.5479 0.4948 0.7884
C19 C 0.7680(4) 0.4605(4) 0.87313(17)
C20 C 0.6626(6) 0.5689(5) 0.9082(2)
H15 H 0.5848 0.6402 0.8812
C21 C 0.6701(7) 0.5745(6) 0.9852(2)
H16 H 0.6006 0.6517 1.0099
C22 C 0.7763(6) 0.4696(7) 1.0229(2)
C23 C 0.8809(6) 0.3612(6) 0.9884(2)
H17 H 0.9566 0.2890 1.0162
C24 C 0.8774(5) 0.3557(5) 0.9124(2)
H18 H 0.9504 0.2797 0.8877
C25 C 0.8599(4) 0.3814(3) 0.32717(16)
H19 H 0.8322 0.3437 0.2875
H20 H 0.9747 0.3318 0.3321
C26 C 0.8368(4) 0.5360(3) 0.30287(15)
H21 H 0.9161 0.5526 0.2555
H22 H 0.7264 0.5836 0.2906
H23 H 0.9752 0.5845 0.3583
H24 H 0.6391 0.3783 0.3942
La1A La 0.254059(15) 0.502758(14) 0.491860(7)
La1A_2 La 1.254059(15) 0.502758(14) 0.491860(7)
O1A O 0.49049(18) 0.63435(17) 0.45887(9)
O2A O 0.96301(18) 0.64038(16) 0.50950(9)
O10A O 0.70557(19) 0.75657(18) 0.51301(10)
loop_
_geom_bond_atom_site_label_1
_geom_bond_atom_site_label_2
_geom_bond_site_symmetry_1
_geom_bond_site_symmetry_2
La1 O1 1_555 1_555
Cl1 C6 1_555 1_555
Cl2 C14 1_555 1_555
Cl3 C22 1_555 1_555
O1 C9 1_555 1_555
O2 La1 1_555 1_555
O3 La1 1_555 1_555
O4 La1 1_555 1_555
O5 La1 1_555 1_555
O6 La1 1_555 1_555
O7 C2 1_555 1_555
O8 C18 1_555 1_555
O9 La1 1_555 1_555
O10 C1 1_555 1_555
O11 C10 1_555 1_555
C1 O2 1_555 1_555
C2 C1 1_555 1_555
H1 C2 1_555 1_555
H2 C2 1_555 1_555
C3 O7 1_555 1_555
C4 C3 1_555 1_555
H3 C4 1_555 1_555
C5 C4 1_555 1_555
H4 C5 1_555 1_555
C6 C5 1_555 1_555
C7 C6 1_555 1_555
H5 C7 1_555 1_555
C8 C3 1_555 1_555
H6 C8 1_555 1_555
C9 O4 1_555 1_555
C10 C9 1_555 1_555
H7 C10 1_555 1_555
H8 C10 1_555 1_555
C11 O11 1_555 1_555
C12 C11 1_555 1_555
H9 C12 1_555 1_555
C13 C12 1_555 1_555
H10 C13 1_555 1_555
C14 C13 1_555 1_555
C15 C14 1_555 1_555
H11 C15 1_555 1_555
C16 C11 1_555 1_555
H12 C16 1_555 1_555
C17 O3 1_555 1_555
C18 C17 1_555 1_555
H13 C18 1_555 1_555
H14 C18 1_555 1_555
C19 O8 1_555 1_555
C20 C19 1_555 1_555
H15 C20 1_555 1_555
C21 C20 1_555 1_555
H16 C21 1_555 1_555
C22 C21 1_555 1_555
C23 C22 1_555 1_555
H17 C23 1_555 1_555
C24 C19 1_555 1_555
H18 C24 1_555 1_555
C25 O6 1_555 1_555
H19 C25 1_555 1_555
H20 C25 1_555 1_555
C26 O9 1_555 1_555
H21 C26 1_555 1_555
H22 C26 1_555 1_555
H23 O9 1_555 1_555
H24 O6 1_555 1_555
La1A O1 1_555 1_555
La1A_2 O2 1_555 1_555
O1A La1 1_555 1_555
O2A La1 1_555 1_555
O10A La1 1_555 1_555
O5 C17 1_555 1_555
O10 La1A_2 1_555 1_555
C7 C8 1_555 1_555
C15 C16 1_555 1_555
C23 C24 1_555 1_555
C25 C26 1_555 1_555
La1A O1A 1_555 1_555
La1A_2 O2A 1_555 1_555

#END
