
#######################################################################
#
#                 Cambridge Crystallographic Data Centre
#                                CCDC 
#
#######################################################################
#
# If this CIF has been generated from an entry in the Cambridge 
# Structural Database, then it will include bibliographic, chemical, 
# crystal, experimental, refinement or atomic coordinate data resulting 
# from the CCDC's data processing and validation procedures.
#
#######################################################################

data_CIXSUY
_symmetry_cell_setting           monoclinic
_symmetry_space_group_name_H-M   'P 21/c'
_symmetry_Int_Tables_number      14
_space_group_name_Hall           '-P 2ybc'
loop_
_symmetry_equiv_pos_site_id
_symmetry_equiv_pos_as_xyz
1 x,y,z
2 -x,1/2+y,1/2-z
3 -x,-y,-z
4 x,1/2-y,1/2+z
_cell_length_a                   10.170(2)
_cell_length_b                   16.232(4)
_cell_length_c                   14.686(3)
_cell_angle_alpha                90
_cell_angle_beta                 93.767(4)
_cell_angle_gamma                90
_cell_volume                     2419.12
loop_
_atom_site_label
_atom_site_type_symbol
_atom_site_fract_x
_atom_site_fract_y
_atom_site_fract_z
Sn1 Sn 0.99949(3) 0.912085(19) 0.22027(2)
Sn2 Sn 0.75652(3) 0.593810(19) 0.32806(2)
O1 O 1.0122(3) 0.77836(18) 0.21038(19)
O2 O 0.8118(3) 0.90031(19) 0.1344(2)
O3 O 1.0564(3) 0.89824(19) 0.07667(19)
O4 O 0.8431(3) 0.84817(18) 0.32126(19)
O5 O 0.7554(3) 0.72620(18) 0.34808(19)
O6 O 0.7266(3) 0.89509(19) -0.0077(2)
O7 O 0.9316(3) 0.65604(18) 0.24282(19)
O8 O 0.9721(3) 0.8868(2) -0.0667(2)
N1 N 0.5155(3) 0.6178(2) 0.3356(2)
N2 N 0.6386(3) 0.6451(2) 0.1816(2)
C1 C 0.9353(4) 0.7320(3) 0.2498(3)
C2 C 0.8369(4) 0.7730(3) 0.3116(3)
C3 C 0.8209(4) 0.8964(3) 0.0492(3)
C4 C 0.3204(4) 0.6004(3) 0.4167(3)
H1 H 0.2820 0.5843 0.4696
C5 C 0.5087(4) 0.6607(3) 0.1785(3)
C6 C 0.4546(4) 0.5965(3) 0.4099(3)
H2 H 0.5062 0.5777 0.4603
C7 C 0.4402(4) 0.6443(3) 0.2620(3)
C8 C 0.9616(4) 0.8931(3) 0.0156(3)
C9 C 0.3054(4) 0.6519(3) 0.2662(3)
H3 H 0.2548 0.6729 0.2165
C10 C 0.2460(5) 0.6288(4) 0.3429(4)
H4 H 0.1550 0.6325 0.3447
C11 C 0.4414(5) 0.6889(3) 0.0984(3)
H5 H 0.3510 0.6982 0.0969
C12 C 0.7011(5) 0.6561(3) 0.1057(3)
H6 H 0.7903 0.6432 0.1068
C13 C 0.5089(6) 0.7028(3) 0.0225(3)
H7 H 0.4658 0.7235 -0.0304
C14 C 0.6409(6) 0.6856(3) 0.0256(3)
H8 H 0.6889 0.6938 -0.0254
Sn2C Sn 0.75652(3) 0.906190(19) -0.17194(2)
O6C O 0.7266(3) 0.60491(19) 0.4923(2)
O8C O 0.9721(3) 0.6132(2) 0.4333(2)
C15 C 1.2716(3) 0.8775(2) 0.2574(2)
H9 H 1.1835 0.8618 0.2543
C16 C 1.2480(4) 0.9107(3) 0.4144(3)
C17 C 1.3285(4) 0.9077(3) 0.3338(3)
N3 N 1.2720(4) 0.9724(3) 0.4742(3)
N4 N 1.4603(4) 0.9348(3) 0.3406(3)
C18 C 1.3418(5) 0.8702(3) 0.1863(3)
H10 H 1.3008 0.8492 0.1328
C19 C 1.1547(4) 0.8513(3) 0.4278(3)
H11 H 1.1399 0.8089 0.3858
C20 C 1.5326(4) 0.9248(3) 0.2638(4)
H12 H 1.6207 0.9404 0.2656
C21 C 1.4731(5) 0.8919(3) 0.1859(3)
H13 H 1.5196 0.8844 0.1341
C22 C 1.1041(5) 0.9191(4) 0.5636(4)
H14 H 1.0552 0.9234 0.6147
C23 C 1.0842(5) 0.8555(4) 0.5034(4)
H15 H 1.0224 0.8150 0.5140
C24 C 1.1979(5) 0.9760(4) 0.5465(3)
H16 H 1.2113 1.0197 0.5871
loop_
_geom_bond_atom_site_label_1
_geom_bond_atom_site_label_2
_geom_bond_site_symmetry_1
_geom_bond_site_symmetry_2
Sn1 O1 1_555 1_555
Sn2 O5 1_555 1_555
O1 C1 1_555 1_555
O2 Sn1 1_555 1_555
O3 Sn1 1_555 1_555
O4 Sn1 1_555 1_555
O5 C2 1_555 1_555
O6 C3 1_555 1_555
O7 Sn2 1_555 1_555
O8 C8 1_555 1_555
N1 Sn2 1_555 1_555
N2 Sn2 1_555 1_555
C1 O7 1_555 1_555
C2 O4 1_555 1_555
C3 O2 1_555 1_555
C4 H1 1_555 1_555
C5 N2 1_555 1_555
C6 N1 1_555 1_555
H2 C6 1_555 1_555
C7 N1 1_555 1_555
C8 O3 1_555 1_555
C9 C7 1_555 1_555
H3 C9 1_555 1_555
C10 C4 1_555 1_555
H4 C10 1_555 1_555
C11 C5 1_555 1_555
H5 C11 1_555 1_555
C12 N2 1_555 1_555
H6 C12 1_555 1_555
C13 C11 1_555 1_555
H7 C13 1_555 1_555
C14 C12 1_555 1_555
H8 C14 1_555 1_555
C15 H9 1_555 1_555
C16 C17 1_555 1_555
C17 C15 1_555 1_555
N3 C16 1_555 1_555
N4 C17 1_555 1_555
C18 C15 1_555 1_555
H10 C18 1_555 1_555
C19 C16 1_555 1_555
H11 C19 1_555 1_555
C20 N4 1_555 1_555
H12 C20 1_555 1_555
C21 C18 1_555 1_555
H13 C21 1_555 1_555
C22 H14 1_555 1_555
C23 C19 1_555 1_555
H15 C23 1_555 1_555
C24 N3 1_555 1_555
H16 C24 1_555 1_555
Sn2C O6 1_555 1_555
O6C Sn2 1_555 1_555
O8C Sn2 1_555 1_555
O8 Sn2C 1_555 1_555
C1 C2 1_555 1_555
C3 C8 1_555 1_555
C4 C6 1_555 1_555
C5 C7 1_555 1_555
C9 C10 1_555 1_555
C13 C14 1_555 1_555
C20 C21 1_555 1_555
C22 C23 1_555 1_555
C22 C24 1_555 1_555

#END
