
#######################################################################
#
#                 Cambridge Crystallographic Data Centre
#                                CCDC 
#
#######################################################################
#
# If this CIF has been generated from an entry in the Cambridge 
# Structural Database, then it will include bibliographic, chemical, 
# crystal, experimental, refinement or atomic coordinate data resulting 
# from the CCDC's data processing and validation procedures.
#
#######################################################################

data_CIXXOW
_symmetry_cell_setting           monoclinic
_symmetry_space_group_name_H-M   'P 21/n'
_symmetry_Int_Tables_number      14
_space_group_name_Hall           '-P 2yn'
loop_
_symmetry_equiv_pos_site_id
_symmetry_equiv_pos_as_xyz
1 x,y,z
2 1/2-x,1/2+y,1/2-z
3 -x,-y,-z
4 1/2+x,1/2-y,1/2+z
_cell_length_a                   12.964(9)
_cell_length_b                   16.84(2)
_cell_length_c                   4.454(4)
_cell_angle_alpha                90
_cell_angle_beta                 97.10(7)
_cell_angle_gamma                90
_cell_volume                     964.913
loop_
_atom_site_label
_atom_site_type_symbol
_atom_site_fract_x
_atom_site_fract_y
_atom_site_fract_z
I1 I 0.6615(1) 0.47209(7) 0.7648(3)
Ag1 Ag 0.5320(1) 0.43515(9) 0.2337(3)
N1 N 0.4580(15) 0.3149(9) 0.0709(34)
C1 C 0.3796(19) 0.3180(12) -0.1557(49)
C2 C 0.3257(16) 0.2499(16) -0.2866(45)
C3 C 0.3550(16) 0.1776(13) -0.1813(44)
C4 C 0.4751(22) 0.0985(13) 0.1675(45)
C5 C 0.5599(20) 0.0951(13) 0.3859(58)
C6 C 0.6091(15) 0.1631(14) 0.5001(41)
C7 C 0.5743(17) 0.2355(11) 0.3917(46)
C8 C 0.4397(17) 0.1701(12) 0.0547(44)
C9 C 0.4849(16) 0.2418(12) 0.1628(37)
H1 H 0.357 0.371 -0.233
H2 H 0.268 0.255 -0.452
H3 H 0.317 0.130 -0.259
H4 H 0.440 0.049 0.098
H5 H 0.587 0.043 0.461
H6 H 0.671 0.159 0.660
H7 H 0.610 0.284 0.476
Ag1_2 Ag 0.5320(1) 0.43515(9) 1.2337(3)
Ag1B Ag 0.4680(1) 0.56485(9) 0.7663(3)
I1_2 I 0.6615(1) 0.47209(7) -0.2352(3)
I1B I 0.3385(1) 0.52791(7) 0.2352(3)
I1B_2 I 0.3385(1) 0.52791(7) 1.2352(3)
N1B N 0.5420(15) 0.6851(9) 0.9291(34)
Ag1B_2 Ag 0.4680(1) 0.56485(9) -0.2337(3)
C1B C 0.6204(19) 0.6820(12) 1.1557(49)
C9B C 0.5151(16) 0.7582(12) 0.8372(37)
C2B C 0.6743(16) 0.7501(16) 1.2866(45)
H1B H 0.643 0.629 1.233
C7B C 0.4257(17) 0.7645(11) 0.6083(46)
C8B C 0.5603(17) 0.8299(12) 0.9453(44)
C3B C 0.6450(16) 0.8224(13) 1.1813(44)
H2B H 0.732 0.745 1.452
C6B C 0.3909(15) 0.8369(14) 0.4999(41)
H7B H 0.390 0.716 0.524
C4B C 0.5249(22) 0.9015(13) 0.8325(45)
H3B H 0.683 0.870 1.259
C5B C 0.4401(20) 0.9049(13) 0.6141(58)
H6B H 0.329 0.841 0.340
H4B H 0.560 0.951 0.902
H5B H 0.413 0.957 0.539
loop_
_geom_bond_atom_site_label_1
_geom_bond_atom_site_label_2
_geom_bond_site_symmetry_1
_geom_bond_site_symmetry_2
I1 Ag1 1_555 1_555
Ag1 N1 1_555 1_555
N1 C1 1_555 1_555
C1 C2 1_555 1_555
C2 C3 1_555 1_555
C3 C8 1_555 1_555
C4 C5 1_555 1_555
C5 C6 1_555 1_555
C6 C7 1_555 1_555
C7 C9 1_555 1_555
C8 C4 1_555 1_555
C9 N1 1_555 1_555
H1 C1 1_555 1_555
H2 C2 1_555 1_555
H3 C3 1_555 1_555
H4 C4 1_555 1_555
H5 C5 1_555 1_555
H6 C6 1_555 1_555
H7 C7 1_555 1_555
Ag1_2 I1 1_555 1_555
Ag1B I1 1_555 1_555
I1_2 Ag1 1_555 1_555
I1B Ag1 1_555 1_555
I1B_2 Ag1B 1_555 1_555
N1B Ag1B 1_555 1_555
Ag1B_2 I1B 1_555 1_555
C1B N1B 1_555 1_555
C9B N1B 1_555 1_555
C2B C1B 1_555 1_555
H1B C1B 1_555 1_555
C7B C9B 1_555 1_555
C8B C9B 1_555 1_555
C3B C2B 1_555 1_555
H2B C2B 1_555 1_555
C6B C7B 1_555 1_555
H7B C7B 1_555 1_555
C4B C8B 1_555 1_555
H3B C3B 1_555 1_555
C5B C6B 1_555 1_555
H6B C6B 1_555 1_555
H4B C4B 1_555 1_555
H5B C5B 1_555 1_555
C8 C9 1_555 1_555
Ag1B I1B 1_555 1_555
C8B C3B 1_555 1_555
C4B C5B 1_555 1_555

#END
