
#######################################################################
#
#                 Cambridge Crystallographic Data Centre
#                                CCDC 
#
#######################################################################
#
# If this CIF has been generated from an entry in the Cambridge 
# Structural Database, then it will include bibliographic, chemical, 
# crystal, experimental, refinement or atomic coordinate data resulting 
# from the CCDC's data processing and validation procedures.
#
#######################################################################

data_CIYJAW
_symmetry_cell_setting           triclinic
_symmetry_space_group_name_H-M   'P -1'
_symmetry_Int_Tables_number      2
_space_group_name_Hall           '-P 1'
loop_
_symmetry_equiv_pos_site_id
_symmetry_equiv_pos_as_xyz
1 x,y,z
2 -x,-y,-z
_cell_length_a                   4.9262(10)
_cell_length_b                   8.1890(16)
_cell_length_c                   11.800(2)
_cell_angle_alpha                71.17(3)
_cell_angle_beta                 89.15(3)
_cell_angle_gamma                88.56(3)
_cell_volume                     450.39
loop_
_atom_site_label
_atom_site_type_symbol
_atom_site_fract_x
_atom_site_fract_y
_atom_site_fract_z
Cu1 Cu 0.12118(6) 0.11005(4) 0.59054(3)
P1 P -0.21608(14) 0.25111(9) 0.77830(6)
P2 P -0.40508(13) 0.82909(8) 0.66494(5)
O1 O -0.3382(4) 0.3917(2) 0.67259(16)
O2 O 0.0106(4) 0.1503(3) 0.74057(16)
O3 O -0.4427(5) 0.1268(3) 0.84929(19)
H1 H -0.533(8) 0.118(5) 0.817(3)
O4 O -0.6248(4) 0.9454(2) 0.69032(15)
O5 O -0.2158(4) 0.9263(2) 0.56342(15)
O6 O -0.5447(4) 0.6782(2) 0.63744(19)
H2 H -0.481(8) 0.612(5) 0.645(3)
O7 O -0.0435(4) 0.3279(3) 0.49813(18)
H3 H -0.117(7) 0.373(4) 0.534(3)
H4 H -0.152(7) 0.319(4) 0.453(3)
C1 C -0.0859(5) 0.3367(3) 0.8884(2)
H5 H -0.0040 0.2430 0.9523
H6 H 0.0559 0.4173 0.8517
C2 C -0.2023(5) 0.7322(3) 0.7965(2)
H7 H -0.1312 0.8234 0.8227
H8 H -0.0487 0.6715 0.7750
C3 C -0.3526(5) 0.6067(3) 0.9011(2)
C4 C -0.4468(5) 0.3262(3) 1.0407(2)
H9 H -0.4099 0.2081 1.0684
C5 C -0.2984(5) 0.4284(3) 0.9425(2)
Cu1A Cu -1.12118(6) 0.88995(4) 1.40946(3)
Cu1_2 Cu -0.87882(6) 1.11005(4) 0.59054(3)
Cu1_3 Cu 0.12118(6) 1.11005(4) 0.59054(3)
Cu1A_2 Cu -0.12118(6) 0.88995(4) 0.40946(3)
Cu1A_3 Cu -0.12118(6) -0.11005(4) 1.40946(3)
Cu1_4 Cu -0.87882(6) 0.11005(4) 1.59054(3)
Cu1A_4 Cu -1.12118(6) -0.11005(4) 1.40946(3)
P1A P -0.78392(14) 0.74889(9) 1.22170(6)
P2A P -0.59492(13) 0.17091(8) 1.33506(5)
O1A O -0.6618(4) 0.6083(2) 1.32741(16)
O2A O -1.0106(4) 0.8497(3) 1.25943(16)
O3A O -0.5573(5) 0.8732(3) 1.15071(19)
H1A H -0.467(8) 0.882(5) 1.183(3)
O4A O -0.3752(4) 0.0546(2) 1.30968(15)
O4_2 O 0.3752(4) -0.0546(2) 0.69032(15)
O4A_2 O -1.3752(4) 1.0546(2) 1.30968(15)
O5A O -0.7842(4) 0.0737(2) 1.43658(15)
O5_2 O -0.2158(4) -0.0737(2) 0.56342(15)
O5A_2 O 0.2158(4) 0.0737(2) 0.43658(15)
O5_3 O -1.2158(4) 0.9263(2) 1.56342(15)
O5A_3 O -0.7842(4) 1.0737(2) 1.43658(15)
O6A O -0.4553(4) 0.3218(2) 1.36256(19)
H2A H -0.519(8) 0.388(5) 1.355(3)
O7A O -0.9565(4) 0.6721(3) 1.50187(18)
H3A H -0.883(7) 0.627(4) 1.466(3)
H4A H -0.848(7) 0.681(4) 1.547(3)
C1A C -0.9141(5) 0.6633(3) 1.1116(2)
H5A H -0.9960 0.7570 1.0477
H6A H -1.0559 0.5827 1.1483
C2A C -0.7977(5) 0.2678(3) 1.2035(2)
H7A H -0.8688 0.1766 1.1773
H8A H -0.9513 0.3285 1.2250
C3A C -0.6474(5) 0.3933(3) 1.0989(2)
C4A C -0.5532(5) 0.6738(3) 0.9593(2)
H9A H -0.5901 0.7919 0.9316
C5A C -0.7016(5) 0.5716(3) 1.0575(2)
loop_
_geom_bond_atom_site_label_1
_geom_bond_atom_site_label_2
_geom_bond_site_symmetry_1
_geom_bond_site_symmetry_2
Cu1 O2 1_555 1_555
P1 O1 1_555 1_555
P2 O4 1_555 1_555
O2 P1 1_555 1_555
O3 P1 1_555 1_555
H1 O3 1_555 1_555
O4 Cu1_2 1_555 1_555
O5 P2 1_555 1_555
O6 P2 1_555 1_555
H2 O6 1_555 1_555
O7 Cu1 1_555 1_555
H3 O7 1_555 1_555
H4 O7 1_555 1_555
C1 P1 1_555 1_555
H5 C1 1_555 1_555
H6 C1 1_555 1_555
C2 P2 1_555 1_555
H7 C2 1_555 1_555
H8 C2 1_555 1_555
C3 C2 1_555 1_555
C4 H9 1_555 1_555
C5 C1 1_555 1_555
Cu1A O2A 1_555 1_555
Cu1_3 O5 1_555 1_555
Cu1A_2 O5 1_555 1_555
Cu1A_3 O4A 1_555 1_555
Cu1_4 O5A 1_555 1_555
Cu1A_4 O5A 1_555 1_555
P1A O1A 1_555 1_555
P2A O4A 1_555 1_555
O2A P1A 1_555 1_555
O3A P1A 1_555 1_555
H1A O3A 1_555 1_555
O4_2 Cu1 1_555 1_555
O4A_2 Cu1A 1_555 1_555
O5A P2A 1_555 1_555
O5_2 Cu1 1_555 1_555
O5A_2 Cu1 1_555 1_555
O5_3 Cu1A 1_555 1_555
O5A_3 Cu1A 1_555 1_555
O6A P2A 1_555 1_555
H2A O6A 1_555 1_555
O7A Cu1A 1_555 1_555
H3A O7A 1_555 1_555
H4A O7A 1_555 1_555
C1A P1A 1_555 1_555
H5A C1A 1_555 1_555
H6A C1A 1_555 1_555
C2A P2A 1_555 1_555
H7A C2A 1_555 1_555
H8A C2A 1_555 1_555
C3A C4 1_555 1_555
C4A C3 1_555 1_555
H9A C4A 1_555 1_555
C5A C1A 1_555 1_555
C3 C5 1_555 1_555
C4 C5 1_555 1_555
C2A C3A 1_555 1_555
C3A C5A 1_555 1_555
C4A C5A 1_555 1_555

#END
