
#######################################################################
#
#                 Cambridge Crystallographic Data Centre
#                                CCDC 
#
#######################################################################
#
# If this CIF has been generated from an entry in the Cambridge 
# Structural Database, then it will include bibliographic, chemical, 
# crystal, experimental, refinement or atomic coordinate data resulting 
# from the CCDC's data processing and validation procedures.
#
#######################################################################

data_CIYJOK
_symmetry_cell_setting           monoclinic
_symmetry_space_group_name_H-M   'P 2/n'
_symmetry_Int_Tables_number      13
_space_group_name_Hall           '-P 2yac'
loop_
_symmetry_equiv_pos_site_id
_symmetry_equiv_pos_as_xyz
1 x,y,z
2 1/2-x,y,1/2-z
3 -x,-y,-z
4 1/2+x,-y,1/2+z
_cell_length_a                   14.1255(3)
_cell_length_b                   10.2035(3)
_cell_length_c                   14.8227(3)
_cell_angle_alpha                90
_cell_angle_beta                 108.759(1)
_cell_angle_gamma                90
_cell_volume                     2022.9
loop_
_atom_site_label
_atom_site_type_symbol
_atom_site_fract_x
_atom_site_fract_y
_atom_site_fract_z
Zn1 Zn 0.406130(12) -0.192880(15) -0.475110(11)
O1 O 0.10683(8) 0.13449(11) -0.54900(8)
O2 O 0.26755(9) -0.13528(11) -0.54222(8)
O3 O 0.30514(8) 0.07384(11) -0.50179(8)
O4 O 0.04592(15) 0.29461(14) -0.44633(12)
O5 O 0.11395(12) 0.48576(15) -0.43683(9)
O6 O 0.11666(9) 0.56795(10) -0.77055(8)
O7 O 0.08415(10) 0.91068(11) -0.80244(8)
O8 O 0.07142(9) 0.74431(11) -0.90418(8)
O9 O 0.54205(8) -0.10931(11) -0.42328(8)
N1 N 0.08696(12) 0.38146(15) -0.47808(10)
N2 N 0.38938(9) -0.16731(13) -0.33558(9)
N3 N 0.38676(9) -0.38433(12) -0.43580(9)
C1 C 0.11468(11) 0.23903(15) -0.60250(10)
C2 C 0.10238(11) 0.36412(16) -0.57021(10)
C3 C 0.10559(11) 0.47811(15) -0.62133(10)
H1 H 0.0990 0.5618 -0.5959
C4 C 0.11850(11) 0.46698(14) -0.70972(10)
C5 C 0.13262(11) 0.34251(15) -0.74288(10)
H2 H 0.1426 0.3344 -0.8030
C6 C 0.13230(11) 0.23099(15) -0.68998(10)
H3 H 0.1442 0.1480 -0.7133
C7 C 0.13358(11) 0.00870(15) -0.57360(11)
H4 H 0.1106 0.0002 -0.6439
H5 H 0.0988 -0.0589 -0.5481
C8 C 0.24568(11) -0.01637(15) -0.53542(10)
C9 C 0.10459(14) 0.69702(14) -0.73942(11)
H6 H 0.1654 0.7232 -0.6873
H7 H 0.0473 0.6993 -0.7148
C10 C 0.08627(12) 0.79243(15) -0.82298(11)
C11 C 0.39064(11) -0.05447(17) -0.28930(12)
H8 H 0.3989 0.0251 -0.3192
C12 C 0.38034(12) -0.0490(2) -0.19922(12)
H9 H 0.3808 0.0325 -0.1681
C13 C 0.36941(13) -0.1657(2) -0.15611(12)
H10 H 0.3625 -0.1654 -0.0944
C14 C 0.36859(13) -0.2822(2) -0.20313(12)
H11 H 0.3612 -0.3630 -0.1743
C15 C 0.37874(11) -0.28035(16) -0.29324(11)
C16 C 0.37461(10) -0.40149(15) -0.35014(11)
C17 C 0.35601(13) -0.52542(17) -0.31998(13)
H12 H 0.3497 -0.5373 -0.2586
C18 C 0.34684(13) -0.63111(17) -0.38098(15)
H13 H 0.3336 -0.7162 -0.3619
C19 C 0.35706(13) -0.61237(16) -0.46920(14)
H14 H 0.3498 -0.6836 -0.5122
C20 C 0.37815(12) -0.48731(15) -0.49411(12)
H15 H 0.3868 -0.4742 -0.5544
H16 H 0.5523(16) -0.0445(15) -0.3883(13)
H17 H 0.5761(14) -0.103(2) -0.4581(13)
Zn1A Zn 0.093870(12) 0.807120(15) -1.024890(11)
O8A O 0.42858(9) -0.25569(11) -0.59582(8)
loop_
_geom_bond_atom_site_label_1
_geom_bond_atom_site_label_2
_geom_bond_site_symmetry_1
_geom_bond_site_symmetry_2
Zn1 O2 1_555 1_555
O1 C1 1_555 1_555
O2 C8 1_555 1_555
O3 C8 1_555 1_555
O4 N1 1_555 1_555
O5 N1 1_555 1_555
O6 C4 1_555 1_555
O7 C10 1_555 1_555
O8 C10 1_555 1_555
O9 Zn1 1_555 1_555
N1 C2 1_555 1_555
N2 Zn1 1_555 1_555
N3 Zn1 1_555 1_555
C1 C2 1_555 1_555
C2 C3 1_555 1_555
C3 H1 1_555 1_555
C4 C3 1_555 1_555
C5 C4 1_555 1_555
H2 C5 1_555 1_555
C6 C1 1_555 1_555
H3 C6 1_555 1_555
C7 O1 1_555 1_555
H4 C7 1_555 1_555
H5 C7 1_555 1_555
C8 C7 1_555 1_555
C9 O6 1_555 1_555
H6 C9 1_555 1_555
H7 C9 1_555 1_555
C10 C9 1_555 1_555
C11 N2 1_555 1_555
H8 C11 1_555 1_555
C12 C11 1_555 1_555
H9 C12 1_555 1_555
C13 C12 1_555 1_555
H10 C13 1_555 1_555
C14 C13 1_555 1_555
H11 C14 1_555 1_555
C15 N2 1_555 1_555
C16 N3 1_555 1_555
C17 C16 1_555 1_555
H12 C17 1_555 1_555
C18 C17 1_555 1_555
H13 C18 1_555 1_555
C19 C18 1_555 1_555
H14 C19 1_555 1_555
C20 N3 1_555 1_555
H15 C20 1_555 1_555
H16 O9 1_555 1_555
H17 O9 1_555 1_555
Zn1A O8 1_555 1_555
O8A Zn1 1_555 1_555
C5 C6 1_555 1_555
C14 C15 1_555 1_555
C15 C16 1_555 1_555
C19 C20 1_555 1_555

#END
