
#######################################################################
#
#                 Cambridge Crystallographic Data Centre
#                                CCDC 
#
#######################################################################
#
# If this CIF has been generated from an entry in the Cambridge 
# Structural Database, then it will include bibliographic, chemical, 
# crystal, experimental, refinement or atomic coordinate data resulting 
# from the CCDC's data processing and validation procedures.
#
#######################################################################

data_CIYKOL
_symmetry_cell_setting           monoclinic
_symmetry_space_group_name_H-M   'P 21/n'
_symmetry_Int_Tables_number      14
_space_group_name_Hall           '-P 2yn'
loop_
_symmetry_equiv_pos_site_id
_symmetry_equiv_pos_as_xyz
1 x,y,z
2 1/2-x,1/2+y,1/2-z
3 -x,-y,-z
4 1/2+x,1/2-y,1/2+z
_cell_length_a                   9.7337(18)
_cell_length_b                   13.726(3)
_cell_length_c                   22.469(4)
_cell_angle_alpha                90
_cell_angle_beta                 93.229(3)
_cell_angle_gamma                90
_cell_volume                     2997.2
loop_
_atom_site_label
_atom_site_type_symbol
_atom_site_fract_x
_atom_site_fract_y
_atom_site_fract_z
Pr1 Pr 0.732970(18) -0.705060(14) 0.146660(8)
Pr2 Pr 0.232960(17) -0.437000(14) 0.222180(8)
C1 C 0.5019(3) -0.5157(3) 0.13569(14)
C2 C 0.5901(3) -0.4924(3) 0.08381(14)
C3 C 0.5655(3) -0.4118(3) 0.04707(14)
H1 H 0.4964 -0.3673 0.0543
C4 C 0.6489(3) -0.4007(3) -0.00112(14)
C5 C 0.7540(3) -0.4673(3) -0.00969(14)
H2 H 0.8118 -0.4597 -0.0410
C6 C 0.7706(3) -0.5448(3) 0.02924(14)
C7 C 0.8797(3) -0.6241(3) 0.02227(15)
C8 C 0.8786(4) -0.3541(3) 0.47129(15)
C9 C 0.7596(3) -0.4144(3) 0.44434(14)
C10 C 0.7105(4) -0.4965(3) 0.47216(15)
H3 H 0.7512 -0.5176 0.5083
C11 C 0.5990(4) -0.5470(3) 0.44505(17)
C12 C 0.5418(4) -0.5121(3) 0.39052(16)
H4 H 0.4687 -0.5445 0.3709
C13 C 0.5959(3) -0.4291(3) 0.36648(15)
C14 C 0.5335(3) -0.3836(3) 0.30970(15)
C15 C -0.0543(3) -0.2873(3) 0.23856(15)
C16 C -0.1679(3) -0.2315(3) 0.20462(14)
C17 C -0.1941(3) -0.2395(3) 0.14358(14)
H5 H -0.1386 -0.2778 0.1207
C18 C -0.3070(3) -0.1881(3) 0.11707(15)
C19 C -0.3854(3) -0.1289(3) 0.15365(15)
H6 H -0.4593 -0.0929 0.1375
C20 C -0.3503(3) -0.1257(3) 0.21399(14)
C21 C -0.4338(3) -0.0702(3) 0.25817(15)
N1 N 0.6902(3) -0.5577(2) 0.07573(12)
N2 N 0.7037(3) -0.3788(2) 0.39227(12)
N3 N -0.2441(3) -0.1768(2) 0.23973(12)
O1 O 0.5314(2) -0.59389(19) 0.16395(10)
O2 O 0.4055(2) -0.45775(18) 0.14610(10)
O3 O 0.6323(2) -0.32909(18) -0.04282(10)
H7 H 0.5638 -0.2968 -0.0363
O4 O 0.9423(3) -0.6272(2) -0.02434(11)
O5 O 0.8968(2) -0.68301(19) 0.06634(10)
O6 O 0.9122(2) -0.27921(19) 0.44170(11)
O7 O 0.9325(3) -0.3806(2) 0.52045(12)
O8 O 0.5415(3) -0.6269(2) 0.46763(12)
H8 H 0.5854 -0.6434 0.4982
O9 O 0.4474(2) -0.4342(2) 0.27976(11)
O10 O 0.5710(3) -0.2981(2) 0.29714(11)
O11 O -0.0640(2) -0.29714(19) 0.29426(10)
O12 O 0.0422(2) -0.3201(2) 0.20951(10)
O13 O -0.3343(3) -0.1976(2) 0.05830(10)
H9 H -0.4097 -0.1736 0.0491
O14 O -0.5405(2) -0.0269(2) 0.23821(10)
O15 O -0.3909(2) -0.0741(2) 0.31223(10)
O16 O 0.0911(2) -0.4796(2) 0.12945(10)
H10 H 0.0792 -0.4428 0.0988
H11 H 0.0210 -0.5134 0.1379
O17 O 0.2973(3) -0.6114(2) 0.22473(13)
H12 H 0.3776 -0.6224 0.2133
H13 H 0.2668 -0.6513 0.2498
O18 O 0.3328(3) -0.2650(2) 0.21314(13)
H14 H 0.3245 -0.2482 0.1766
H15 H 0.4143 -0.2693 0.2287
O19 O 0.1962(3) -0.3723(2) 0.32609(11)
H16 H 0.1123 -0.3547 0.3270
H17 H 0.2514 -0.3472 0.3527
Pr1A Pr 0.767030(18) -0.205060(14) 0.353340(8)
Pr1A_2 Pr -0.232970(18) -0.205060(14) 0.353340(8)
Pr2A Pr -0.732960(17) 0.063000(14) 0.277820(8)
N2A N 0.7963(3) -0.8788(2) 0.10773(12)
N3A N 0.7441(3) -0.6768(2) 0.26027(12)
O6A O 0.5878(2) -0.77921(19) 0.05830(11)
O10A O 0.9290(3) -0.7981(2) 0.20286(11)
O11A O 0.5640(2) -0.79714(19) 0.20574(10)
O14A O 0.0405(2) -0.5269(2) 0.26179(10)
O15A O 0.8909(2) -0.5741(2) 0.18777(10)
O20 O 0.8581(3) -0.20932(19) 0.92888(11)
H18 H 0.7851 -0.2411 0.9352
H19 H 0.9305 -0.2426 0.9244
O21 O 0.2391(5) -0.2010(4) 0.1037(2)
H20 H 0.2395 -0.2625 0.1103
H21 H 0.2013 -0.1817 0.0706
loop_
_geom_bond_atom_site_label_1
_geom_bond_atom_site_label_2
_geom_bond_site_symmetry_1
_geom_bond_site_symmetry_2
Pr1 N1 1_555 1_555
Pr2 O2 1_555 1_555
C1 C2 1_555 1_555
C2 C3 1_555 1_555
C3 H1 1_555 1_555
C4 C3 1_555 1_555
C5 C4 1_555 1_555
H2 C5 1_555 1_555
C6 C5 1_555 1_555
C7 C6 1_555 1_555
C8 C9 1_555 1_555
C9 C10 1_555 1_555
C10 H3 1_555 1_555
C11 C10 1_555 1_555
C12 C11 1_555 1_555
H4 C12 1_555 1_555
C13 C12 1_555 1_555
C14 C13 1_555 1_555
C15 C16 1_555 1_555
C16 C17 1_555 1_555
C17 H5 1_555 1_555
C18 C17 1_555 1_555
C19 C18 1_555 1_555
H6 C19 1_555 1_555
C20 C19 1_555 1_555
C21 C20 1_555 1_555
N1 C2 1_555 1_555
N2 C9 1_555 1_555
N3 C16 1_555 1_555
O1 Pr1 1_555 1_555
O2 C1 1_555 1_555
O3 C4 1_555 1_555
H7 O3 1_555 1_555
O4 C7 1_555 1_555
O5 Pr1 1_555 1_555
O6 C8 1_555 1_555
O7 C8 1_555 1_555
O8 C11 1_555 1_555
H8 O8 1_555 1_555
O9 Pr2 1_555 1_555
O10 C14 1_555 1_555
O11 C15 1_555 1_555
O12 Pr2 1_555 1_555
O13 C18 1_555 1_555
H9 O13 1_555 1_555
O14 C21 1_555 1_555
O15 C21 1_555 1_555
O16 Pr2 1_555 1_555
H10 O16 1_555 1_555
H11 O16 1_555 1_555
O17 Pr2 1_555 1_555
H12 O17 1_555 1_555
H13 O17 1_555 1_555
O18 Pr2 1_555 1_555
H14 O18 1_555 1_555
H15 O18 1_555 1_555
O19 Pr2 1_555 1_555
H16 O19 1_555 1_555
H17 O19 1_555 1_555
O20 H18 1_555 1_555
H19 O20 1_555 1_555
O21 H20 1_555 1_555
H21 O21 1_555 1_555
Pr1A N2 1_555 1_555
Pr1A_2 N3 1_555 1_555
Pr2A O14 1_555 1_555
N2A Pr1 1_555 1_555
N3A Pr1 1_555 1_555
O6A Pr1 1_555 1_555
O10A Pr1 1_555 1_555
O11A Pr1 1_555 1_555
O14A Pr2 1_555 1_555
O15A Pr1 1_555 1_555
C1 O1 1_555 1_555
C6 N1 1_555 1_555
C7 O5 1_555 1_555
C13 N2 1_555 1_555
C14 O9 1_555 1_555
C15 O12 1_555 1_555
C20 N3 1_555 1_555
O6 Pr1A 1_555 1_555
O10 Pr1A 1_555 1_555
O11 Pr1A_2 1_555 1_555
O15 Pr1A_2 1_555 1_555

#END
