
#######################################################################
#
#                 Cambridge Crystallographic Data Centre
#                                CCDC 
#
#######################################################################
#
# If this CIF has been generated from an entry in the Cambridge 
# Structural Database, then it will include bibliographic, chemical, 
# crystal, experimental, refinement or atomic coordinate data resulting 
# from the CCDC's data processing and validation procedures.
#
#######################################################################

data_CIYNOO
_symmetry_cell_setting           rhombohedral
_symmetry_space_group_name_H-M   'R -3'
_symmetry_Int_Tables_number      148
_space_group_name_Hall           '-R 3'
loop_
_symmetry_equiv_pos_site_id
_symmetry_equiv_pos_as_xyz
1 x,y,z
2 -y,x-y,z
3 -x+y,-x,z
4 2/3+x,1/3+y,1/3+z
5 2/3-y,1/3+x-y,1/3+z
6 2/3-x+y,1/3-x,1/3+z
7 1/3+x,2/3+y,2/3+z
8 1/3-y,2/3+x-y,2/3+z
9 1/3-x+y,2/3-x,2/3+z
10 -x,-y,-z
11 y,-x+y,-z
12 x-y,x,-z
13 1/3-x,2/3-y,2/3-z
14 1/3+y,2/3-x+y,2/3-z
15 1/3+x-y,2/3+x,2/3-z
16 2/3-x,1/3-y,1/3-z
17 2/3+y,1/3-x+y,1/3-z
18 2/3+x-y,1/3+x,1/3-z
_cell_length_a                   38.759(9)
_cell_length_b                   38.759(9)
_cell_length_c                   20.559(5)
_cell_angle_alpha                90
_cell_angle_beta                 90
_cell_angle_gamma                120.0
_cell_volume                     26747.2
loop_
_atom_site_label
_atom_site_type_symbol
_atom_site_fract_x
_atom_site_fract_y
_atom_site_fract_z
Mn1 Mn 0.10172(2) 0.60268(2) 0.17679(3)
Mn2 Mn 0.0000 0.5000 0.5000
Cr1 Cr 0.07776(2) 0.47317(2) 0.30905(3)
N1 N 0.08602(9) 0.54400(9) 0.2179(1)
N2 N 0.0341(1) 0.49731(10) 0.4168(2)
N3 N 0.1626(1) 0.5389(1) 0.3675(2)
N4 N -0.0111(1) 0.4132(1) 0.2607(2)
N5 N 0.12217(9) 0.44925(10) 0.2009(1)
N6 N 0.0762(1) 0.4110(1) 0.4133(2)
N7 N 0.15844(10) 0.60688(9) 0.1339(2)
N8 N 0.2504(1) 0.6021(1) 0.0341(2)
N9 N 0.07345(9) 0.57159(9) 0.0799(1)
N10 N 0.0392(1) 0.5157(1) -0.1021(2)
N11 N 0.04384(9) 0.59528(9) 0.2194(1)
N12 N -0.0676(1) 0.5744(1) 0.2838(2)
N13 N 0.13588(9) 0.63316(10) 0.2706(2)
N14 N 0.1970(1) 0.6897(1) 0.4415(2)
N15 N -0.0151(1) 0.43780(10) 0.5311(2)
N16 N -0.0360(1) 0.3325(1) 0.6225(2)
N17 N -0.0581(1) 0.4710(1) 0.4402(2)
N18 N -0.1652(2) 0.4066(1) 0.3367(2)
C1 C 0.08154(10) 0.5174(1) 0.2479(2)
C2 C 0.0504(1) 0.4900(1) 0.3778(2)
C3 C 0.1327(1) 0.5154(1) 0.3464(2)
C4 C 0.0210(1) 0.4337(1) 0.2757(2)
C5 C 0.1054(1) 0.4571(1) 0.2381(2)
C6 C 0.0760(1) 0.4320(1) 0.3746(2)
C7 C 0.1758(1) 0.5865(1) 0.1559(2)
C8 C 0.2061(1) 0.5845(1) 0.1258(2)
C9 C 0.2210(1) 0.6041(1) 0.0671(2)
C10 C 0.2040(1) 0.6262(1) 0.0444(2)
C11 C 0.1741(1) 0.6266(1) 0.0781(2)
C12 C 0.2685(2) 0.5799(2) 0.0600(3)
C13 C 0.2625(2) 0.6189(2) -0.0300(3)
C14 C 0.0674(1) 0.5888(1) 0.0281(2)
C15 C 0.0558(1) 0.5719(1) -0.0319(2)
C16 C 0.0497(1) 0.5337(1) -0.0435(2)
C17 C 0.0552(1) 0.5153(1) 0.0106(2)
C18 C 0.0668(1) 0.5348(1) 0.0687(2)
C19 C 0.0317(2) 0.5346(2) -0.1573(2)
C20 C 0.0334(2) 0.4764(1) -0.1116(2)
C21 C 0.0271(1) 0.6159(1) 0.1977(2)
C22 C -0.0089(1) 0.6108(1) 0.2175(2)
C23 C -0.0315(1) 0.5814(1) 0.2633(2)
C24 C -0.0138(1) 0.5597(1) 0.2872(2)
C25 C 0.0222(1) 0.5676(1) 0.2643(2)
C26 C -0.0850(2) 0.5974(2) 0.2592(3)
C27 C -0.0923(2) 0.5413(2) 0.3263(3)
C28 C 0.1377(1) 0.6131(1) 0.3225(2)
C29 C 0.1571(1) 0.6302(1) 0.3792(2)
C30 C 0.1770(1) 0.6712(2) 0.3857(2)
C31 C 0.1756(1) 0.6925(1) 0.3326(2)
C32 C 0.1551(1) 0.6725(1) 0.2777(2)
C33 C 0.1958(2) 0.6671(2) 0.4977(3)
C34 C 0.2185(2) 0.7325(2) 0.4475(3)
C35 C 0.0106(1) 0.4238(1) 0.5273(2)
C36 C 0.0047(1) 0.3896(1) 0.5562(2)
C37 C -0.0299(1) 0.3660(1) 0.5917(2)
C38 C -0.0575(1) 0.3790(1) 0.5926(2)
C39 C -0.0489(1) 0.4138(1) 0.5630(2)
C40 C -0.0055(2) 0.3217(1) 0.6250(3)
C41 C -0.0703(2) 0.3108(1) 0.6642(3)
C42 C -0.0610(1) 0.4515(1) 0.3851(2)
C43 C -0.0950(2) 0.4301(1) 0.3493(2)
C44 C -0.1302(2) 0.4274(1) 0.3709(3)
C45 C -0.1279(2) 0.4477(2) 0.4280(3)
C46 C -0.0922(2) 0.4683(1) 0.4596(2)
C47 C -0.1669(2) 0.3857(2) 0.2776(3)
C48 C -0.2010(2) 0.4045(2) 0.3593(3)
H1 H 0.1659 0.5722 0.1958
H2 H 0.2169 0.5701 0.1458
H3 H 0.2139 0.6417 0.0053
H4 H 0.1634 0.6421 0.0610
H5 H 0.2505 0.5589 0.0855
H6 H 0.2917 0.5976 0.0843
H7 H 0.2770 0.5699 0.0238
H8 H 0.2424 0.6032 -0.0602
H9 H 0.2669 0.6453 -0.0297
H10 H 0.2867 0.6195 -0.0412
H11 H 0.0712 0.6148 0.0340
H12 H 0.0517 0.5861 -0.0656
H13 H 0.0501 0.4888 0.0072
H14 H 0.0704 0.5210 0.1040
H15 H 0.0104 0.5386 -0.1478
H16 H 0.0254 0.5174 -0.1943
H17 H 0.0552 0.5590 -0.1661
H18 H 0.0186 0.4654 -0.1503
H19 H 0.0582 0.4777 -0.1141
H20 H 0.0186 0.4600 -0.0755
H21 H 0.0414 0.6359 0.1655
H22 H -0.0184 0.6270 0.1999
H23 H -0.0274 0.5399 0.3198
H24 H 0.0330 0.5524 0.2813
H25 H -0.0966 0.5873 0.2177
H26 H -0.1057 0.5944 0.2884
H27 H -0.0654 0.6242 0.2563
H28 H -0.1163 0.5414 0.3354
H29 H -0.0784 0.5440 0.3654
H30 H -0.0984 0.5170 0.3053
H31 H 0.1247 0.5850 0.3193
H32 H 0.1573 0.6138 0.4134
H33 H 0.1887 0.7208 0.3341
H34 H 0.1541 0.6878 0.2422
H35 H 0.1980 0.6811 0.5377
H36 H 0.2162 0.6605 0.4969
H37 H 0.1704 0.6425 0.4993
H38 H 0.2003 0.7429 0.4557
H39 H 0.2374 0.7424 0.4827
H40 H 0.2327 0.7455 0.4084
H41 H 0.0346 0.4393 0.5032
H42 H 0.0242 0.3819 0.5509
H43 H -0.0821 0.3637 0.6142
H44 H -0.0682 0.4221 0.5647
H45 H -0.0175 0.2945 0.6392
H46 H 0.0142 0.3383 0.6549
H47 H 0.0052 0.3241 0.5831
H48 H -0.0760 0.3289 0.6869
H49 H -0.0653 0.2956 0.6954
H50 H -0.0930 0.2932 0.6390
H51 H -0.0370 0.4528 0.3696
H52 H -0.0939 0.4173 0.3105
H53 H -0.1507 0.4469 0.4456
H54 H -0.0912 0.4818 0.4987
H55 H -0.1923 0.3748 0.2592
H56 H -0.1614 0.3652 0.2896
H57 H -0.1471 0.4041 0.2498
H58 H -0.2229 0.3777 0.3637
H59 H -0.1977 0.4172 0.4015
H60 H -0.2104 0.4181 0.3302
Mn1I Mn -0.10172(2) 0.39732(2) 0.82321(3)
Mn1Q Mn 0.16571(3) 0.43505(2) 0.15654(3)
Mn1H Mn -0.16571(3) 0.56495(2) 0.84346(3)
Cr1I Cr -0.07776(2) 0.52683(2) 0.69095(3)
N1I N -0.08602(9) 0.45600(9) 0.7821(1)
N2I N -0.0341(1) 0.50269(10) 0.5832(2)
N3I N -0.1626(1) 0.4611(1) 0.6325(2)
N4I N 0.0111(1) 0.5868(1) 0.7393(2)
N5I N -0.12217(9) 0.55075(10) 0.7991(1)
N5P N 0.11592(10) 0.66041(13) 0.1324(1)
N5G N -0.11592(10) 0.33959(13) 0.8676(1)
N6I N -0.0762(1) 0.5890(1) 0.5867(2)
N7I N -0.15844(10) 0.39312(9) 0.8661(2)
N8I N -0.2504(1) 0.3979(1) 0.9659(2)
N9I N -0.07345(9) 0.42841(9) 0.9201(1)
N10I N -0.0392(1) 0.4843(1) 1.1021(2)
N11I N -0.04384(9) 0.40472(9) 0.7806(1)
N12I N 0.0676(1) 0.4256(1) 0.7162(2)
N13I N -0.13588(9) 0.36684(10) 0.7294(2)
N14I N -0.1970(1) 0.3103(1) 0.5585(2)
N15I N 0.0151(1) 0.56220(10) 0.4689(2)
N16I N 0.0360(1) 0.6675(1) 0.3775(2)
N17I N 0.0581(1) 0.5290(1) 0.5598(2)
N18I N 0.1652(2) 0.5934(1) 0.6633(2)
C1I C -0.08154(10) 0.4826(1) 0.7521(2)
C2I C -0.0504(1) 0.5100(1) 0.6222(2)
C3I C -0.1327(1) 0.4846(1) 0.6536(2)
C4I C -0.0210(1) 0.5663(1) 0.7243(2)
C5I C -0.1054(1) 0.5429(1) 0.7619(2)
C6I C -0.0760(1) 0.5680(1) 0.6254(2)
C7I C -0.1758(1) 0.4135(1) 0.8441(2)
C8I C -0.2061(1) 0.4155(1) 0.8742(2)
C9I C -0.2210(1) 0.3959(1) 0.9329(2)
C10I C -0.2040(1) 0.3738(1) 0.9556(2)
C11I C -0.1741(1) 0.3734(1) 0.9219(2)
C12I C -0.2685(2) 0.4201(2) 0.9400(3)
C13I C -0.2625(2) 0.3811(2) 1.0300(3)
C14I C -0.0674(1) 0.4112(1) 0.9719(2)
C15I C -0.0558(1) 0.4281(1) 1.0319(2)
C16I C -0.0497(1) 0.4663(1) 1.0435(2)
C17I C -0.0552(1) 0.4847(1) 0.9894(2)
C18I C -0.0668(1) 0.4652(1) 0.9313(2)
C19I C -0.0317(2) 0.4654(2) 1.1573(2)
C20I C -0.0334(2) 0.5236(1) 1.1116(2)
C21I C -0.0271(1) 0.3841(1) 0.8023(2)
C22I C 0.0089(1) 0.3892(1) 0.7825(2)
C23I C 0.0315(1) 0.4186(1) 0.7367(2)
C24I C 0.0138(1) 0.4403(1) 0.7128(2)
C25I C -0.0222(1) 0.4324(1) 0.7357(2)
C26I C 0.0850(2) 0.4026(2) 0.7408(3)
C27I C 0.0923(2) 0.4587(2) 0.6737(3)
C28I C -0.1377(1) 0.3869(1) 0.6775(2)
C29I C -0.1571(1) 0.3698(1) 0.6208(2)
C30I C -0.1770(1) 0.3288(2) 0.6143(2)
C31I C -0.1756(1) 0.3075(1) 0.6674(2)
C32I C -0.1551(1) 0.3275(1) 0.7223(2)
C33I C -0.1958(2) 0.3329(2) 0.5023(3)
C34I C -0.2185(2) 0.2675(2) 0.5525(3)
C35I C -0.0106(1) 0.5762(1) 0.4727(2)
C36I C -0.0047(1) 0.6104(1) 0.4438(2)
C37I C 0.0299(1) 0.6340(1) 0.4083(2)
C38I C 0.0575(1) 0.6210(1) 0.4074(2)
C39I C 0.0489(1) 0.5862(1) 0.4370(2)
C40I C 0.0055(2) 0.6783(1) 0.3750(3)
C41I C 0.0703(2) 0.6892(1) 0.3358(3)
C42I C 0.0610(1) 0.5485(1) 0.6149(2)
C43I C 0.0950(2) 0.5699(1) 0.6507(2)
C44I C 0.1302(2) 0.5726(1) 0.6291(3)
C45I C 0.1279(2) 0.5523(2) 0.5720(3)
C46I C 0.0922(2) 0.5317(1) 0.5404(2)
C47I C 0.1669(2) 0.6143(2) 0.7224(3)
C48I C 0.2010(2) 0.5955(2) 0.6407(3)
H1I H -0.1659 0.4278 0.8042
H2I H -0.2169 0.4299 0.8542
H3I H -0.2139 0.3583 0.9947
H4I H -0.1634 0.3579 0.9390
H5I H -0.2505 0.4411 0.9145
H6I H -0.2917 0.4024 0.9157
H7I H -0.2770 0.4301 0.9762
H8I H -0.2424 0.3968 1.0602
H9I H -0.2669 0.3547 1.0297
H10I H -0.2867 0.3805 1.0412
H11I H -0.0712 0.3852 0.9660
H12I H -0.0517 0.4139 1.0656
H13I H -0.0501 0.5112 0.9928
H14I H -0.0704 0.4790 0.8960
H15I H -0.0104 0.4614 1.1478
H16I H -0.0254 0.4826 1.1943
H17I H -0.0552 0.4410 1.1661
H18I H -0.0186 0.5346 1.1503
H19I H -0.0582 0.5223 1.1141
H20I H -0.0186 0.5400 1.0755
H21I H -0.0414 0.3641 0.8345
H22I H 0.0184 0.3730 0.8001
H23I H 0.0274 0.4601 0.6802
H24I H -0.0330 0.4476 0.7187
H25I H 0.0966 0.4127 0.7823
H26I H 0.1057 0.4056 0.7116
H27I H 0.0654 0.3758 0.7437
H28I H 0.1163 0.4586 0.6646
H29I H 0.0784 0.4560 0.6346
H30I H 0.0984 0.4830 0.6947
H31I H -0.1247 0.4150 0.6807
H32I H -0.1573 0.3862 0.5866
H33I H -0.1887 0.2792 0.6659
H34I H -0.1541 0.3122 0.7578
H35I H -0.1980 0.3189 0.4623
H36I H -0.2162 0.3395 0.5031
H37I H -0.1704 0.3575 0.5007
H38I H -0.2003 0.2571 0.5443
H39I H -0.2374 0.2576 0.5173
H40I H -0.2327 0.2545 0.5916
H41I H -0.0346 0.5607 0.4968
H42I H -0.0242 0.6181 0.4491
H43I H 0.0821 0.6363 0.3858
H44I H 0.0682 0.5779 0.4353
H45I H 0.0175 0.7055 0.3608
H46I H -0.0142 0.6617 0.3451
H47I H -0.0052 0.6759 0.4169
H48I H 0.0760 0.6711 0.3131
H49I H 0.0653 0.7044 0.3046
H50I H 0.0930 0.7068 0.3610
H51I H 0.0370 0.5472 0.6304
H52I H 0.0939 0.5827 0.6895
H53I H 0.1507 0.5531 0.5544
H54I H 0.0912 0.5182 0.5013
H55I H 0.1923 0.6252 0.7408
H56I H 0.1614 0.6348 0.7104
H57I H 0.1471 0.5959 0.7502
H58I H 0.2229 0.6223 0.6363
H59I H 0.1977 0.5828 0.5985
H60I H 0.2104 0.5819 0.6698
O1 O 0.1152(1) 0.42052(9) 0.5378(2)
H61 H 0.1002 0.4154 0.4930
H62 H 0.1038 0.3927 0.5582
O2 O 0.2195(1) 0.5690(2) 0.4706(2)
H63 H 0.1921 0.5424 0.4845
H64 H 0.2342 0.5653 0.4425
O3 O 0.1763(2) 0.4863(2) 0.4739(3)
H65 H 0.1505 0.4911 0.5031
H66 H 0.1762 0.4659 0.4831
O4 O -0.2738(8) 0.3468(8) 0.2112(9)
O6 O 0.0510(6) 0.3327(6) 0.462(1)
O8 O -0.320(2) 0.288(2) 0.212(3)
O5? O -0.3006(4) 0.3206(5) 0.1744(8)
O7? O -0.3021(7) 0.330(1) 0.358(1)
O9? O -0.273(3) 0.363(3) 0.247(4)
loop_
_geom_bond_atom_site_label_1
_geom_bond_atom_site_label_2
_geom_bond_site_symmetry_1
_geom_bond_site_symmetry_2
Mn1 N1 1_555 1_555
Mn2 N2 1_555 1_555
Cr1 C1 1_555 1_555
O1 H61 1_555 1_555
O2 H63 1_555 1_555
O3 H65 1_555 1_555
N1 C1 1_555 1_555
N2 C2 1_555 1_555
N3 C3 1_555 1_555
N4 C4 1_555 1_555
N5 C5 1_555 1_555
N6 C6 1_555 1_555
N7 Mn1 1_555 1_555
N8 C9 1_555 1_555
N9 Mn1 1_555 1_555
N10 C16 1_555 1_555
N11 Mn1 1_555 1_555
N12 C23 1_555 1_555
N13 Mn1 1_555 1_555
N14 C30 1_555 1_555
N15 Mn2 1_555 1_555
N16 C37 1_555 1_555
N17 Mn2 1_555 1_555
N18 C44 1_555 1_555
C2 Cr1 1_555 1_555
C3 Cr1 1_555 1_555
C4 Cr1 1_555 1_555
C5 Cr1 1_555 1_555
C6 Cr1 1_555 1_555
C7 N7 1_555 1_555
C8 C7 1_555 1_555
C9 C8 1_555 1_555
C10 C9 1_555 1_555
C11 N7 1_555 1_555
C12 N8 1_555 1_555
C13 N8 1_555 1_555
C14 N9 1_555 1_555
C15 C14 1_555 1_555
C16 C15 1_555 1_555
C17 C16 1_555 1_555
C18 N9 1_555 1_555
C19 N10 1_555 1_555
C20 N10 1_555 1_555
C21 N11 1_555 1_555
C22 C21 1_555 1_555
C23 C22 1_555 1_555
C24 C23 1_555 1_555
C25 N11 1_555 1_555
C26 N12 1_555 1_555
C27 N12 1_555 1_555
C28 N13 1_555 1_555
C29 C28 1_555 1_555
C30 C29 1_555 1_555
C31 C30 1_555 1_555
C32 N13 1_555 1_555
C33 N14 1_555 1_555
C34 N14 1_555 1_555
C35 N15 1_555 1_555
C36 C35 1_555 1_555
C37 C36 1_555 1_555
C38 C37 1_555 1_555
C39 N15 1_555 1_555
C40 N16 1_555 1_555
C41 N16 1_555 1_555
C42 N17 1_555 1_555
C43 C42 1_555 1_555
C44 C43 1_555 1_555
C45 C44 1_555 1_555
C46 N17 1_555 1_555
C47 N18 1_555 1_555
C48 N18 1_555 1_555
H1 C7 1_555 1_555
H2 C8 1_555 1_555
H3 C10 1_555 1_555
H4 C11 1_555 1_555
H5 C12 1_555 1_555
H6 C12 1_555 1_555
H7 C12 1_555 1_555
H8 C13 1_555 1_555
H9 C13 1_555 1_555
H10 C13 1_555 1_555
H11 C14 1_555 1_555
H12 C15 1_555 1_555
H13 C17 1_555 1_555
H14 C18 1_555 1_555
H15 C19 1_555 1_555
H16 C19 1_555 1_555
H17 C19 1_555 1_555
H18 C20 1_555 1_555
H19 C20 1_555 1_555
H20 C20 1_555 1_555
H21 C21 1_555 1_555
H22 C22 1_555 1_555
H23 C24 1_555 1_555
H24 C25 1_555 1_555
H25 C26 1_555 1_555
H26 C26 1_555 1_555
H27 C26 1_555 1_555
H28 C27 1_555 1_555
H29 C27 1_555 1_555
H30 C27 1_555 1_555
H31 C28 1_555 1_555
H32 C29 1_555 1_555
H33 C31 1_555 1_555
H34 C32 1_555 1_555
H35 C33 1_555 1_555
H36 C33 1_555 1_555
H37 C33 1_555 1_555
H38 C34 1_555 1_555
H39 C34 1_555 1_555
H40 C34 1_555 1_555
H41 C35 1_555 1_555
H42 C36 1_555 1_555
H43 C38 1_555 1_555
H44 C39 1_555 1_555
H45 C40 1_555 1_555
H46 C40 1_555 1_555
H47 C40 1_555 1_555
H48 C41 1_555 1_555
H49 C41 1_555 1_555
H50 C41 1_555 1_555
H51 C42 1_555 1_555
H52 C43 1_555 1_555
H53 C45 1_555 1_555
H54 C46 1_555 1_555
H55 C47 1_555 1_555
H56 C47 1_555 1_555
H57 C47 1_555 1_555
H58 C48 1_555 1_555
H59 C48 1_555 1_555
H60 C48 1_555 1_555
H62 O1 1_555 1_555
H64 O2 1_555 1_555
H66 O3 1_555 1_555
Mn1I N1I 1_555 1_555
Mn1Q N5 1_555 1_555
Mn1H N5I 1_555 1_555
Cr1I C1I 1_555 1_555
N1I C1I 1_555 1_555
N2I Mn2 1_555 1_555
N3I C3I 1_555 1_555
N4I C4I 1_555 1_555
N5I C5I 1_555 1_555
N5P Mn1 1_555 1_555
N5G Mn1I 1_555 1_555
N6I C6I 1_555 1_555
N7I Mn1I 1_555 1_555
N8I C9I 1_555 1_555
N9I Mn1I 1_555 1_555
N10I C16I 1_555 1_555
N11I Mn1I 1_555 1_555
N12I C23I 1_555 1_555
N13I Mn1I 1_555 1_555
N14I C30I 1_555 1_555
N15I Mn2 1_555 1_555
N16I C37I 1_555 1_555
N17I Mn2 1_555 1_555
N18I C44I 1_555 1_555
C2I Cr1I 1_555 1_555
C3I Cr1I 1_555 1_555
C4I Cr1I 1_555 1_555
C5I Cr1I 1_555 1_555
C6I Cr1I 1_555 1_555
C7I N7I 1_555 1_555
C8I C7I 1_555 1_555
C9I C8I 1_555 1_555
C10I C9I 1_555 1_555
C11I N7I 1_555 1_555
C12I N8I 1_555 1_555
C13I N8I 1_555 1_555
C14I N9I 1_555 1_555
C15I C14I 1_555 1_555
C16I C15I 1_555 1_555
C17I C16I 1_555 1_555
C18I N9I 1_555 1_555
C19I N10I 1_555 1_555
C20I N10I 1_555 1_555
C21I N11I 1_555 1_555
C22I C21I 1_555 1_555
C23I C22I 1_555 1_555
C24I C23I 1_555 1_555
C25I N11I 1_555 1_555
C26I N12I 1_555 1_555
C27I N12I 1_555 1_555
C28I N13I 1_555 1_555
C29I C28I 1_555 1_555
C30I C29I 1_555 1_555
C31I C30I 1_555 1_555
C32I N13I 1_555 1_555
C33I N14I 1_555 1_555
C34I N14I 1_555 1_555
C35I N15I 1_555 1_555
C36I C35I 1_555 1_555
C37I C36I 1_555 1_555
C38I C37I 1_555 1_555
C39I N15I 1_555 1_555
C40I N16I 1_555 1_555
C41I N16I 1_555 1_555
C42I N17I 1_555 1_555
C43I C42I 1_555 1_555
C44I C43I 1_555 1_555
C45I C44I 1_555 1_555
C46I N17I 1_555 1_555
C47I N18I 1_555 1_555
C48I N18I 1_555 1_555
H1I C7I 1_555 1_555
H2I C8I 1_555 1_555
H3I C10I 1_555 1_555
H4I C11I 1_555 1_555
H5I C12I 1_555 1_555
H6I C12I 1_555 1_555
H7I C12I 1_555 1_555
H8I C13I 1_555 1_555
H9I C13I 1_555 1_555
H10I C13I 1_555 1_555
H11I C14I 1_555 1_555
H12I C15I 1_555 1_555
H13I C17I 1_555 1_555
H14I C18I 1_555 1_555
H15I C19I 1_555 1_555
H16I C19I 1_555 1_555
H17I C19I 1_555 1_555
H18I C20I 1_555 1_555
H19I C20I 1_555 1_555
H20I C20I 1_555 1_555
H21I C21I 1_555 1_555
H22I C22I 1_555 1_555
H23I C24I 1_555 1_555
H24I C25I 1_555 1_555
H25I C26I 1_555 1_555
H26I C26I 1_555 1_555
H27I C26I 1_555 1_555
H28I C27I 1_555 1_555
H29I C27I 1_555 1_555
H30I C27I 1_555 1_555
H31I C28I 1_555 1_555
H32I C29I 1_555 1_555
H33I C31I 1_555 1_555
H34I C32I 1_555 1_555
H35I C33I 1_555 1_555
H36I C33I 1_555 1_555
H37I C33I 1_555 1_555
H38I C34I 1_555 1_555
H39I C34I 1_555 1_555
H40I C34I 1_555 1_555
H41I C35I 1_555 1_555
H42I C36I 1_555 1_555
H43I C38I 1_555 1_555
H44I C39I 1_555 1_555
H45I C40I 1_555 1_555
H46I C40I 1_555 1_555
H47I C40I 1_555 1_555
H48I C41I 1_555 1_555
H49I C41I 1_555 1_555
H50I C41I 1_555 1_555
H51I C42I 1_555 1_555
H52I C43I 1_555 1_555
H53I C45I 1_555 1_555
H54I C46I 1_555 1_555
H55I C47I 1_555 1_555
H56I C47I 1_555 1_555
H57I C47I 1_555 1_555
H58I C48I 1_555 1_555
H59I C48I 1_555 1_555
H60I C48I 1_555 1_555
C10 C11 1_555 1_555
C17 C18 1_555 1_555
C24 C25 1_555 1_555
C31 C32 1_555 1_555
C38 C39 1_555 1_555
C45 C46 1_555 1_555
N2I C2I 1_555 1_555
C10I C11I 1_555 1_555
C17I C18I 1_555 1_555
C24I C25I 1_555 1_555
C31I C32I 1_555 1_555
C38I C39I 1_555 1_555
C45I C46I 1_555 1_555

#END
