
#######################################################################
#
#                 Cambridge Crystallographic Data Centre
#                                CCDC 
#
#######################################################################
#
# If this CIF has been generated from an entry in the Cambridge 
# Structural Database, then it will include bibliographic, chemical, 
# crystal, experimental, refinement or atomic coordinate data resulting 
# from the CCDC's data processing and validation procedures.
#
#######################################################################

data_CIYZOA
_symmetry_cell_setting           monoclinic
_symmetry_space_group_name_H-M   'P 21/c'
_symmetry_Int_Tables_number      14
_space_group_name_Hall           '-P 2ybc'
loop_
_symmetry_equiv_pos_site_id
_symmetry_equiv_pos_as_xyz
1 x,y,z
2 -x,1/2+y,1/2-z
3 -x,-y,-z
4 x,1/2-y,1/2+z
_cell_length_a                   5.0300(10)
_cell_length_b                   13.731(3)
_cell_length_c                   20.220(4)
_cell_angle_alpha                90
_cell_angle_beta                 92.19(3)
_cell_angle_gamma                90
_cell_volume                     1395.51
loop_
_atom_site_label
_atom_site_type_symbol
_atom_site_fract_x
_atom_site_fract_y
_atom_site_fract_z
Hg1 Hg 0.52089(14) 0.33593(4) 0.34645(3)
Hg2 Hg 1.0000 0.5000 0.5000
I1 I 0.4547(2) 0.52406(7) 0.37139(6)
I2 I 0.3723(3) 0.15352(7) 0.34949(6)
I3 I 0.9268(3) 0.31535(8) 0.47993(6)
O1 O 1.773(2) 0.4350(9) 0.0351(6)
N1 N 0.824(3) 0.3404(9) 0.2566(6)
N2 N 1.334(2) 0.4196(9) 0.0538(5)
H1 H 1.1760 0.4407 0.0443
C1 C 0.880(3) 0.2605(11) 0.2244(8)
H2 H 0.7967 0.2032 0.2367
C2 C 1.055(3) 0.2560(11) 0.1737(8)
H3 H 1.0929 0.1972 0.1533
C3 C 1.173(3) 0.3422(10) 0.1541(7)
C4 C 1.104(4) 0.4258(11) 0.1866(8)
H4 H 1.1825 0.4846 0.1756
C5 C 0.923(4) 0.4236(11) 0.2345(8)
H5 H 0.8671 0.4820 0.2526
C6 C 1.375(3) 0.3419(11) 0.1010(8)
H6 H 1.5520 0.3480 0.1215
H7 H 1.3668 0.2800 0.0778
C7 C 1.547(3) 0.4593(10) 0.0245(6)
Hg1B Hg 1.47911(14) 0.66407(4) 0.65355(3)
Hg1B_2 Hg 2.47911(14) 0.66407(4) -0.34645(3)
I1B I 1.5453(2) 0.47594(7) 0.62861(6)
I2B I 1.6277(3) 0.84648(7) 0.65051(6)
I3B I 1.0732(3) 0.68465(8) 0.52007(6)
O1B O 1.227(2) 0.5650(9) -0.0351(6)
N1B N 2.176(3) 0.6596(9) -0.2566(6)
N1B_2 N 1.176(3) 0.6596(9) 0.7434(6)
N2B N 1.666(2) 0.5804(9) -0.0538(5)
H1B H 1.8240 0.5593 -0.0443
C1B C 2.120(3) 0.7395(11) -0.2244(8)
H2B H 2.2033 0.7968 -0.2367
C2B C 1.945(3) 0.7440(11) -0.1737(8)
H3B H 1.9071 0.8028 -0.1533
C3B C 1.827(3) 0.6578(10) -0.1541(7)
C4B C 1.896(4) 0.5742(11) -0.1866(8)
H4B H 1.8175 0.5154 -0.1756
C5B C 2.077(4) 0.5764(11) -0.2345(8)
H5B H 2.1329 0.5180 -0.2526
C6B C 1.625(3) 0.6581(11) -0.1010(8)
H6B H 1.4480 0.6520 -0.1215
H7B H 1.6332 0.7200 -0.0778
C7B C 1.453(3) 0.5407(10) -0.0245(6)
loop_
_geom_bond_atom_site_label_1
_geom_bond_atom_site_label_2
_geom_bond_site_symmetry_1
_geom_bond_site_symmetry_2
Hg1 I1 1_555 1_555
Hg2 I3 1_555 1_555
I2 Hg1 1_555 1_555
I3 Hg1 1_555 1_555
O1 C7 1_555 1_555
N1 Hg1 1_555 1_555
N2 H1 1_555 1_555
C1 N1 1_555 1_555
H2 C1 1_555 1_555
C2 C1 1_555 1_555
H3 C2 1_555 1_555
C3 C2 1_555 1_555
C4 C3 1_555 1_555
H4 C4 1_555 1_555
C5 N1 1_555 1_555
H5 C5 1_555 1_555
C6 N2 1_555 1_555
H6 C6 1_555 1_555
H7 C6 1_555 1_555
C7 N2 1_555 1_555
Hg1B I1B 1_555 1_555
Hg1B_2 N1B 1_555 1_555
I2B Hg1B 1_555 1_555
I3B Hg2 1_555 1_555
O1B C7B 1_555 1_555
N1B C1B 1_555 1_555
N1B_2 Hg1B 1_555 1_555
N2B H1B 1_555 1_555
C1B H2B 1_555 1_555
C2B C1B 1_555 1_555
H3B C2B 1_555 1_555
C3B C2B 1_555 1_555
C4B C3B 1_555 1_555
H4B C4B 1_555 1_555
C5B N1B 1_555 1_555
H5B C5B 1_555 1_555
C6B N2B 1_555 1_555
H6B C6B 1_555 1_555
H7B C6B 1_555 1_555
C7B C7 1_555 1_555
C3 C6 1_555 1_555
C4 C5 1_555 1_555
Hg1B I3B 1_555 1_555
N2B C7B 1_555 1_555
C3B C6B 1_555 1_555
C4B C5B 1_555 1_555

#END
