
#######################################################################
#
#                 Cambridge Crystallographic Data Centre
#                                CCDC 
#
#######################################################################
#
# If this CIF has been generated from an entry in the Cambridge 
# Structural Database, then it will include bibliographic, chemical, 
# crystal, experimental, refinement or atomic coordinate data resulting 
# from the CCDC's data processing and validation procedures.
#
#######################################################################

data_CIYZIU
_symmetry_cell_setting           monoclinic
_symmetry_space_group_name_H-M   'C 2/c'
_symmetry_Int_Tables_number      15
_space_group_name_Hall           '-C 2yn'
loop_
_symmetry_equiv_pos_site_id
_symmetry_equiv_pos_as_xyz
1 x,y,z
2 1/2+x,1/2+y,z
3 -x,y,1/2-z
4 1/2-x,1/2+y,1/2-z
5 -x,-y,-z
6 1/2-x,1/2-y,-z
7 x,-y,1/2+z
8 1/2+x,1/2-y,1/2+z
_cell_length_a                   25.158(2)
_cell_length_b                   5.7475(5)
_cell_length_c                   18.8033(17)
_cell_angle_alpha                90
_cell_angle_beta                 124.187(2)
_cell_angle_gamma                90
_cell_volume                     2249.08
loop_
_atom_site_label
_atom_site_type_symbol
_atom_site_fract_x
_atom_site_fract_y
_atom_site_fract_z
Er1 Er 0.133902(8) 0.15608(3) 0.114953(10)
S1 S 0.19246(5) 0.49891(19) -0.06201(6)
S2 S 0.0000 0.1860(3) 0.2500
C1 C 0.13582(18) 0.6648(7) 0.0204(2)
C2 C 0.15313(18) 0.7069(7) -0.0419(2)
C3 C 0.1431(2) 0.9057(8) -0.0882(3)
H1 H 0.1227(19) 1.038(8) -0.083(3)
C4 C 0.1650(2) 0.8905(7) -0.1417(3)
H2 H 0.161(2) 1.021(8) -0.183(3)
C5 C 0.19279(18) 0.6789(7) -0.1349(2)
C6 C 0.22441(18) 0.6017(7) -0.1777(3)
C7 C 0.05199(18) 0.3178(7) 0.1610(2)
C8 C 0.02367(19) 0.3918(7) 0.2079(3)
C9 C 0.0136(3) 0.6111(9) 0.2259(3)
H3 H 0.029(2) 0.753(11) 0.215(3)
O1 O 0.16472(14) -0.1654(5) 0.20931(19)
H4 H 0.1429(15) -0.285(4) 0.192(3)
H5 H 0.2023(7) -0.210(6) 0.235(3)
O2 O 0.15197(14) 0.4715(5) 0.05933(19)
O3 O 0.03448(15) 0.2051(6) -0.02111(19)
H6 H 0.0180(18) 0.087(4) -0.050(3)
H7 H 0.0064(15) 0.305(5) -0.044(3)
O4 O 0.10663(14) 0.8254(5) 0.03056(19)
O5 O 0.26895(13) 0.4512(5) -0.13904(18)
O6 O 0.20668(14) 0.6897(5) -0.24992(17)
O7 O 0.07277(14) 0.4697(5) 0.13331(19)
O8 O 0.05687(13) 0.1031(5) 0.15110(19)
Er1_2 Er 0.133902(8) -0.84392(3) 0.114953(10)
Er1_3 Er 0.133902(8) 1.15608(3) 0.114953(10)
Er1E Er 0.366098(8) 0.34392(3) -0.114953(10)
Er1F Er 0.133902(8) 0.84392(3) -0.385047(10)
Er1B Er -0.133902(8) 0.15608(3) 0.385047(10)
Er1E_2 Er 0.366098(8) -0.65608(3) -0.114953(10)
Er1F_2 Er 0.133902(8) -0.15608(3) -0.385047(10)
S1_2 S 0.19246(5) -0.50109(19) -0.06201(6)
C1_2 C 0.13582(18) -0.3352(7) 0.0204(2)
C2_2 C 0.15313(18) -0.2931(7) -0.0419(2)
C3_2 C 0.1431(2) -0.0943(8) -0.0882(3)
H1_2 H 0.1227(19) 0.038(8) -0.083(3)
C4_2 C 0.1650(2) -0.1095(7) -0.1417(3)
H2_2 H 0.161(2) 0.021(8) -0.183(3)
C5_2 C 0.19279(18) -0.3211(7) -0.1349(2)
C6_2 C 0.22441(18) -0.3983(7) -0.1777(3)
C7B C -0.05199(18) 0.3178(7) 0.3390(2)
C8B C -0.02367(19) 0.3918(7) 0.2921(3)
C9B C -0.0136(3) 0.6111(9) 0.2741(3)
H3B H -0.029(2) 0.753(11) 0.285(3)
O1_2 O 0.16472(14) -1.1654(5) 0.20931(19)
H4_2 H 0.1429(15) -1.285(4) 0.192(3)
H5_2 H 0.2023(7) -1.210(6) 0.235(3)
O2_2 O 0.15197(14) -0.5285(5) 0.05933(19)
O3_2 O 0.03448(15) -0.7949(6) -0.02111(19)
H6_2 H 0.0180(18) -0.913(4) -0.050(3)
H7_2 H 0.0064(15) -0.695(5) -0.044(3)
O4_2 O 0.10663(14) -0.1746(5) 0.03056(19)
O4_3 O 0.10663(14) -1.1746(5) 0.03056(19)
O5_2 O 0.26895(13) -0.5488(5) -0.13904(18)
O5E O 0.23105(13) 0.0488(5) 0.13904(18)
O5E_2 O 0.23105(13) -0.9512(5) 0.13904(18)
O6_2 O 0.20668(14) -0.3103(5) -0.24992(17)
O6F O 0.20668(14) 0.3103(5) 0.25008(17)
O6F_2 O 0.20668(14) -0.6897(5) 0.25008(17)
O7B O -0.07277(14) 0.4697(5) 0.36669(19)
O7_2 O 0.07277(14) -0.5303(5) 0.13331(19)
O8B O -0.05687(13) 0.1031(5) 0.34890(19)
O8_2 O 0.05687(13) -0.8969(5) 0.15110(19)
loop_
_geom_bond_atom_site_label_1
_geom_bond_atom_site_label_2
_geom_bond_site_symmetry_1
_geom_bond_site_symmetry_2
Er1 O1 1_555 1_555
S1 C2 1_555 1_555
S2 C8 1_555 1_555
C1 C2 1_555 1_555
C2 C3 1_555 1_555
C3 H1 1_555 1_555
C4 C3 1_555 1_555
H2 C4 1_555 1_555
C5 S1 1_555 1_555
C6 C5 1_555 1_555
C7 C8 1_555 1_555
C8 C9 1_555 1_555
C9 H3 1_555 1_555
O1 H4 1_555 1_555
H5 O1 1_555 1_555
O2 Er1 1_555 1_555
O3 Er1 1_555 1_555
H6 O3 1_555 1_555
H7 O3 1_555 1_555
O4 C1 1_555 1_555
O5 C6 1_555 1_555
O6 C6 1_555 1_555
O7 Er1 1_555 1_555
O8 Er1 1_555 1_555
Er1_2 O1_2 1_555 1_555
Er1_3 O4 1_555 1_555
Er1E O5 1_555 1_555
Er1F O6 1_555 1_555
Er1B O7B 1_555 1_555
Er1E_2 O5_2 1_555 1_555
Er1F_2 O6_2 1_555 1_555
S1_2 C2_2 1_555 1_555
C1_2 C2_2 1_555 1_555
C2_2 C3_2 1_555 1_555
C3_2 H1_2 1_555 1_555
C4_2 C3_2 1_555 1_555
H2_2 C4_2 1_555 1_555
C5_2 S1_2 1_555 1_555
C6_2 C5_2 1_555 1_555
C7B C8B 1_555 1_555
C8B S2 1_555 1_555
C9B C9 1_555 1_555
H3B C9B 1_555 1_555
O1_2 H4_2 1_555 1_555
H5_2 O1_2 1_555 1_555
O2_2 Er1_2 1_555 1_555
O3_2 Er1_2 1_555 1_555
H6_2 O3_2 1_555 1_555
H7_2 O3_2 1_555 1_555
O4_2 Er1 1_555 1_555
O4_3 Er1_2 1_555 1_555
O5_2 C6_2 1_555 1_555
O5E Er1 1_555 1_555
O5E_2 Er1_2 1_555 1_555
O6_2 C6_2 1_555 1_555
O6F Er1 1_555 1_555
O6F_2 Er1_2 1_555 1_555
O7B C7B 1_555 1_555
O7_2 Er1_2 1_555 1_555
O8B Er1B 1_555 1_555
O8_2 Er1_2 1_555 1_555
C1 O2 1_555 1_555
C4 C5 1_555 1_555
C7 O7 1_555 1_555
C7 O8 1_555 1_555
C1_2 O2_2 1_555 1_555
C1_2 O4_2 1_555 1_555
C4_2 C5_2 1_555 1_555
C7B O8B 1_555 1_555
C8B C9B 1_555 1_555

#END
