
#######################################################################
#
#                 Cambridge Crystallographic Data Centre
#                                CCDC 
#
#######################################################################
#
# If this CIF has been generated from an entry in the Cambridge 
# Structural Database, then it will include bibliographic, chemical, 
# crystal, experimental, refinement or atomic coordinate data resulting 
# from the CCDC's data processing and validation procedures.
#
#######################################################################

data_CIZBEU
_symmetry_cell_setting           orthorhombic
_symmetry_space_group_name_H-M   'P 21 21 21'
_symmetry_Int_Tables_number      19
_space_group_name_Hall           'P 2ac 2ab'
loop_
_symmetry_equiv_pos_site_id
_symmetry_equiv_pos_as_xyz
1 x,y,z
2 1/2+x,1/2-y,-z
3 -x,1/2+y,1/2-z
4 1/2-x,-y,1/2+z
_cell_length_a                   17.2721(3)
_cell_length_b                   20.0008(4)
_cell_length_c                   20.0852(4)
_cell_angle_alpha                90
_cell_angle_beta                 90
_cell_angle_gamma                90
_cell_volume                     6938.55
loop_
_atom_site_label
_atom_site_type_symbol
_atom_site_fract_x
_atom_site_fract_y
_atom_site_fract_z
W1 W 0.648250(13) 0.631435(12) 0.562620(13)
Nd1 Nd 0.412580(19) 0.839162(16) 0.622480(16)
O1 O 0.3874(3) 0.9587(2) 0.6046(3)
O2 O 0.4536(3) 0.8571(2) 0.5077(2)
O3 O 0.3692(3) 0.7316(2) 0.5808(2)
O4 O 0.4370(3) 0.7628(2) 0.7133(2)
O5 O 0.2253(3) 0.8855(3) 0.7883(3)
O6 O 0.6274(3) 0.9278(3) 0.7348(3)
N1 N 0.5350(3) 0.7621(3) 0.5946(3)
N2 N 0.4695(3) 0.5720(3) 0.5730(3)
N3 N 0.5636(4) 0.6707(3) 0.4193(3)
N4 N 0.6574(4) 0.4855(3) 0.4856(4)
N5 N 0.8027(4) 0.5532(3) 0.6217(4)
N6 N 0.7556(3) 0.7505(3) 0.6318(4)
N7 N 0.6135(4) 0.5988(4) 0.7207(3)
N8 N 0.2879(3) 0.8491(3) 0.5486(3)
N9 N 0.4225(3) 0.8990(3) 0.7412(3)
N10 N 0.2876(3) 0.8437(3) 0.6990(3)
N11 N 0.5432(3) 0.8978(3) 0.6540(3)
N12 N 0.3750(4) 1.0555(3) 0.5471(4)
N13 N 0.4199(4) 0.6643(3) 0.7667(3)
N14 N 0.4837(3) 0.8291(3) 0.4025(3)
N15 N 0.3372(3) 0.6638(3) 0.4945(3)
C1 C 0.5742(3) 0.7166(3) 0.5830(3)
C2 C 0.5314(3) 0.5912(3) 0.5679(4)
C3 C 0.5943(4) 0.6571(4) 0.4688(4)
C4 C 0.6529(4) 0.5355(3) 0.5134(3)
C5 C 0.7494(4) 0.5789(4) 0.6018(4)
C6 C 0.6258(4) 0.6113(3) 0.6665(3)
C7 C 0.7185(4) 0.7083(4) 0.6067(4)
C8 C 0.2392(4) 0.8527(3) 0.5089(3)
C9 C 0.3672(4) 0.9892(3) 0.5533(4)
C10 C 0.4101(7) 1.0944(4) 0.5984(5)
H1 H 0.4106 1.1416 0.5852
H2 H 0.4633 1.0790 0.6056
H3 H 0.3804 1.0894 0.6397
C11 C 0.3476(8) 1.0888(4) 0.4867(5)
H4 H 0.3574 1.1369 0.4901
H5 H 0.2919 1.0810 0.4815
H6 H 0.3751 1.0707 0.4480
C12 C 0.4421(4) 0.7010(3) 0.7160(3)
C13 C 0.3783(6) 0.6962(4) 0.8232(4)
H7 H 0.3658 0.6623 0.8567
H8 H 0.3304 0.7168 0.8070
H9 H 0.4114 0.7306 0.8433
C14 C 0.4218(5) 0.5915(4) 0.7656(4)
H10 H 0.4029 0.5741 0.8082
H11 H 0.4751 0.5763 0.7583
H12 H 0.3887 0.5751 0.7295
C15 C 0.5667(4) 0.8417(5) 0.4110(5)
H13 H 0.5937 0.8329 0.3690
H14 H 0.5873 0.8122 0.4457
H15 H 0.5747 0.8884 0.4240
C16 C 0.4353(4) 0.8374(3) 0.4510(3)
C17 C 0.4584(6) 0.8015(7) 0.3383(5)
H16 H 0.5027 0.7988 0.3079
H17 H 0.4186 0.8306 0.3190
H18 H 0.4369 0.7567 0.3451
C18 C 0.3852(4) 0.7004(3) 0.5293(4)
C19 C 0.2555(5) 0.6576(5) 0.5159(4)
H19 H 0.2277 0.6285 0.4848
H20 H 0.2313 0.7019 0.5164
H21 H 0.2535 0.6382 0.5607
C20 C 0.3619(5) 0.6263(4) 0.4379(5)
H22 H 0.3176 0.6023 0.4189
H23 H 0.4017 0.5941 0.4514
H24 H 0.3833 0.6568 0.4044
C21 C 0.4928(4) 0.9174(3) 0.7640(4)
C22 C 0.5056(5) 0.9370(3) 0.8293(4)
H25 H 0.5559 0.9495 0.8439
C23 C 0.4430(5) 0.9379(3) 0.8729(4)
H26 H 0.4498 0.9504 0.9182
C24 C 0.3713(5) 0.9204(3) 0.8491(4)
H27 H 0.3272 0.9222 0.8772
C25 C 0.3641(4) 0.9000(3) 0.7831(3)
C26 C 0.2910(4) 0.8750(4) 0.7541(3)
C27 C 0.1620(4) 0.8614(4) 0.7456(4)
H28 H 0.1331 0.8994 0.7250
C28 C 0.2067(4) 0.8211(4) 0.6928(4)
H29 H 0.1857 0.8284 0.6470
C29 C 0.1083(5) 0.8149(5) 0.7819(5)
H30 H 0.0545 0.8197 0.7655
H31 H 0.1092 0.8237 0.8304
C30 C 0.1404(4) 0.7457(4) 0.7662(4)
C31 C 0.1945(4) 0.7490(4) 0.7168(4)
C32 C 0.2317(4) 0.6918(5) 0.6931(4)
H32 H 0.2696 0.6945 0.6589
C33 C 0.2119(4) 0.6316(5) 0.7208(4)
H33 H 0.2370 0.5921 0.7058
C34 C 0.1564(5) 0.6271(4) 0.7700(4)
H34 H 0.1433 0.5846 0.7879
C35 C 0.1193(5) 0.6845(5) 0.7936(4)
H35 H 0.0808 0.6818 0.8273
C36 C 0.5547(4) 0.9134(3) 0.7146(4)
C37 C 0.6195(4) 0.9043(4) 0.6200(5)
H36 H 0.6323 0.8642 0.5924
C38 C 0.6781(4) 0.9152(4) 0.6774(5)
H37 H 0.7107 0.8745 0.6846
C39 C 0.7276(4) 0.9757(4) 0.6615(5)
H38 H 0.7306 1.0064 0.7001
H39 H 0.7807 0.9622 0.6488
C40 C 0.6873(5) 1.0074(4) 0.6054(5)
C41 C 0.6245(5) 0.9688(4) 0.5805(4)
C42 C 0.5790(6) 0.9904(5) 0.5306(5)
H40 H 0.5378 0.9632 0.5148
C43 C 0.5925(7) 1.0533(5) 0.5022(5)
H41 H 0.5600 1.0692 0.4675
C44 C 0.6995(5) 1.0707(4) 0.5750(5)
H42 H 0.7406 1.0984 0.5900
C45 C 0.6532(7) 1.0920(6) 0.5246(5)
H43 H 0.6627 1.1342 0.5046
W1A W 0.148250(13) 0.868565(12) 0.437380(13)
C8A C 0.7392(4) 0.6473(3) 0.4911(3)
O7 O 0.9298(5) 0.5128(6) 0.7021(4)
C46 C 0.9851(7) 0.4874(7) 0.6584(7)
H44 H 0.9948 0.5200 0.6230
H45 H 0.9660 0.4456 0.6389
H46 H 1.0332 0.4787 0.6827
O8 O 0.3237(4) 0.5309(4) 0.6223(5)
C47 C 0.2908(11) 0.4765(7) 0.5909(11)
H47 H 0.2637 0.4489 0.6238
H48 H 0.3315 0.4500 0.5695
H49 H 0.2540 0.4920 0.5572
N16 N 0.0836(9) 0.5638(8) 0.9320(10)
C48 C 0.0393(7) 0.5360(6) 0.8997(7)
C49 C -0.0178(8) 0.4973(9) 0.8616(7)
H50 H 0.0087 0.4623 0.8362
H51 H -0.0454 0.5271 0.8309
H52 H -0.0550 0.4767 0.8923
N17 N 0.5473(10) 0.7745(8) 0.8760(7)
C50 C 0.6290(8) 0.7593(6) 0.7730(6)
H53 H 0.5947 0.7632 0.7343
H54 H 0.6538 0.7152 0.7729
H55 H 0.6688 0.7941 0.7708
C51 C 0.5870(8) 0.7667(5) 0.8299(6)
N18 N 0.9891(8) 0.7951(8) 0.9310(7)
C52 C 0.9664(9) 0.7443(8) 0.9589(8)
C53 C 0.9307(11) 0.6871(9) 0.9913(9)
H56 H 0.9033 0.7020 1.0314
H57 H 0.9707 0.6547 1.0036
H58 H 0.8938 0.6661 0.9607
C54 C 0.7917(9) 0.6075(6) 0.8224(8)
C55 C 0.7723(7) 0.5352(5) 0.8098(6)
H59 H 0.7690 0.5113 0.8524
H60 H 0.8128 0.5149 0.7822
H61 H 0.7224 0.5322 0.7867
N19 N 0.7829(16) 0.6577(10) 0.8686(13)
N20 N 0.8928(11) 0.8909(15) 0.7276(9)
C56 C 0.8629(16) 0.8512(14) 0.7725(14)
C57 C 0.8114(18) 0.840(3) 0.8335(14)
O9 O 0.2356(13) 0.7411(12) 1.0587(12)
C58 C 0.1738(10) 0.7169(9) 1.0039(10)
O10 O 0.2281(8) 0.7537(6) 0.9321(7)
C59 C 0.302(2) 0.779(3) 0.908(3)
loop_
_geom_bond_atom_site_label_1
_geom_bond_atom_site_label_2
_geom_bond_site_symmetry_1
_geom_bond_site_symmetry_2
W1 C1 1_555 1_555
Nd1 O1 1_555 1_555
O1 C9 1_555 1_555
O2 Nd1 1_555 1_555
O3 Nd1 1_555 1_555
O4 Nd1 1_555 1_555
O5 C26 1_555 1_555
O6 C36 1_555 1_555
N1 Nd1 1_555 1_555
N2 C2 1_555 1_555
N3 C3 1_555 1_555
N4 C4 1_555 1_555
N5 C5 1_555 1_555
N6 C7 1_555 1_555
N7 C6 1_555 1_555
N8 Nd1 1_555 1_555
N9 Nd1 1_555 1_555
N10 Nd1 1_555 1_555
N11 Nd1 1_555 1_555
N12 C9 1_555 1_555
N13 C12 1_555 1_555
N14 C15 1_555 1_555
N15 C18 1_555 1_555
C1 N1 1_555 1_555
C2 W1 1_555 1_555
C3 W1 1_555 1_555
C4 W1 1_555 1_555
C5 W1 1_555 1_555
C6 W1 1_555 1_555
C7 W1 1_555 1_555
C8 N8 1_555 1_555
C10 N12 1_555 1_555
H1 C10 1_555 1_555
H2 C10 1_555 1_555
H3 C10 1_555 1_555
C11 N12 1_555 1_555
H4 C11 1_555 1_555
H5 C11 1_555 1_555
H6 C11 1_555 1_555
C12 O4 1_555 1_555
C13 N13 1_555 1_555
H7 C13 1_555 1_555
H8 C13 1_555 1_555
H9 C13 1_555 1_555
C14 N13 1_555 1_555
H10 C14 1_555 1_555
H11 C14 1_555 1_555
H12 C14 1_555 1_555
C15 H13 1_555 1_555
H14 C15 1_555 1_555
H15 C15 1_555 1_555
C16 O2 1_555 1_555
C17 N14 1_555 1_555
H16 C17 1_555 1_555
H17 C17 1_555 1_555
H18 C17 1_555 1_555
C18 O3 1_555 1_555
C19 N15 1_555 1_555
H19 C19 1_555 1_555
H20 C19 1_555 1_555
H21 C19 1_555 1_555
C20 N15 1_555 1_555
H22 C20 1_555 1_555
H23 C20 1_555 1_555
H24 C20 1_555 1_555
C21 N9 1_555 1_555
C22 C21 1_555 1_555
H25 C22 1_555 1_555
C23 C22 1_555 1_555
H26 C23 1_555 1_555
C24 C23 1_555 1_555
H27 C24 1_555 1_555
C25 N9 1_555 1_555
C26 N10 1_555 1_555
C27 O5 1_555 1_555
H28 C27 1_555 1_555
C28 N10 1_555 1_555
H29 C28 1_555 1_555
C29 C27 1_555 1_555
H30 C29 1_555 1_555
H31 C29 1_555 1_555
C30 C29 1_555 1_555
C31 C28 1_555 1_555
C32 C31 1_555 1_555
H32 C32 1_555 1_555
C33 C32 1_555 1_555
H33 C33 1_555 1_555
C34 C33 1_555 1_555
H34 C34 1_555 1_555
C35 C30 1_555 1_555
H35 C35 1_555 1_555
C36 N11 1_555 1_555
C37 N11 1_555 1_555
H36 C37 1_555 1_555
C38 O6 1_555 1_555
H37 C38 1_555 1_555
C39 C38 1_555 1_555
H38 C39 1_555 1_555
H39 C39 1_555 1_555
C40 C39 1_555 1_555
C41 C37 1_555 1_555
C42 C41 1_555 1_555
H40 C42 1_555 1_555
C43 C42 1_555 1_555
H41 C43 1_555 1_555
C44 C40 1_555 1_555
H42 C44 1_555 1_555
C45 C43 1_555 1_555
H43 C45 1_555 1_555
O7 C46 1_555 1_555
C46 H44 1_555 1_555
H45 C46 1_555 1_555
H46 C46 1_555 1_555
O8 C47 1_555 1_555
C47 H47 1_555 1_555
H48 C47 1_555 1_555
H49 C47 1_555 1_555
N16 C48 1_555 1_555
C48 C49 1_555 1_555
C49 H50 1_555 1_555
H51 C49 1_555 1_555
H52 C49 1_555 1_555
N17 C51 1_555 1_555
C50 H53 1_555 1_555
H54 C50 1_555 1_555
H55 C50 1_555 1_555
C51 C50 1_555 1_555
N18 C52 1_555 1_555
C52 C53 1_555 1_555
C53 H56 1_555 1_555
H57 C53 1_555 1_555
H58 C53 1_555 1_555
C54 C55 1_555 1_555
C55 H59 1_555 1_555
H60 C55 1_555 1_555
H61 C55 1_555 1_555
N19 C54 1_555 1_555
N20 C56 1_555 1_555
C56 C57 1_555 1_555
O9 C58 1_555 1_555
O10 C59 1_555 1_555
W1A C8 1_555 1_555
C8A W1 1_555 1_555
N14 C16 1_555 1_555
C21 C36 1_555 1_555
C24 C25 1_555 1_555
C25 C26 1_555 1_555
C27 C28 1_555 1_555
C30 C31 1_555 1_555
C34 C35 1_555 1_555
C37 C38 1_555 1_555
C40 C41 1_555 1_555
C44 C45 1_555 1_555

#END
