
#######################################################################
#
#                 Cambridge Crystallographic Data Centre
#                                CCDC 
#
#######################################################################
#
# If this CIF has been generated from an entry in the Cambridge 
# Structural Database, then it will include bibliographic, chemical, 
# crystal, experimental, refinement or atomic coordinate data resulting 
# from the CCDC's data processing and validation procedures.
#
#######################################################################

data_CIZWOZ
_symmetry_cell_setting           monoclinic
_symmetry_space_group_name_H-M   'C 2/m'
_symmetry_Int_Tables_number      12
_space_group_name_Hall           '-C 2y'
loop_
_symmetry_equiv_pos_site_id
_symmetry_equiv_pos_as_xyz
1 x,y,z
2 -x,y,-z
3 1/2+x,1/2+y,z
4 1/2-x,1/2+y,-z
5 -x,-y,-z
6 x,-y,z
7 1/2-x,1/2-y,-z
8 1/2+x,1/2-y,z
_cell_length_a                   23.32(2)
_cell_length_b                   10.325(9)
_cell_length_c                   16.528(14)
_cell_angle_alpha                90
_cell_angle_beta                 117.31(2)
_cell_angle_gamma                90
_cell_volume                     3536.02
loop_
_atom_site_label
_atom_site_type_symbol
_atom_site_fract_x
_atom_site_fract_y
_atom_site_fract_z
Cu1 Cu 0.48408(3) 0.0000 0.21502(5)
O1 O 0.4253(2) 0.0000 0.0826(3)
O2 O 0.55939(18) 0.0000 0.1863(3)
Cl1 Cl 0.40006(7) 0.0000 0.25147(12)
Cl2 Cl 0.5495(3) 0.0000 0.3521(3)
O3 O 0.34217(13) 0.2031(2) -0.00452(18)
O4 O 0.36464(11) 0.2073(2) -0.19937(17)
O5 O 0.48390(11) 0.2201(2) 0.19115(18)
N1 N 0.29893(13) 0.3823(2) -0.21942(19)
N2 N 0.28468(14) 0.3813(2) -0.0827(2)
N3 N 0.53614(13) 0.3827(2) 0.29304(18)
N4 N 0.63899(12) 0.3824(2) 0.28758(19)
N5 N 0.33087(13) 0.3830(2) 0.06922(19)
N6 N 0.42725(13) 0.3838(2) 0.21743(18)
C1 C 0.26307(15) 0.3320(3) -0.1730(2)
H1 H 0.2663 0.2392 -0.1706
H2 H 0.2184 0.3541 -0.2088
C2 C 0.29326(19) 0.5000 0.0437(3)
H3 H 0.2615 0.5000 0.0654
C3 C 0.2799(2) 0.5000 -0.2725(3)
H4 H 0.2348 0.5000 -0.3150
C4 C 0.2608(2) 0.5000 -0.0612(3)
H5 H 0.2146 0.5000 -0.0868
C5 C 0.36399(16) 0.3330(3) 0.1627(2)
H6 H 0.3669 0.2405 0.1600
H7 H 0.3379 0.3522 0.1923
C6 C 0.5206(2) 0.5000 0.3294(3)
C7 C 0.60201(16) 0.3301(3) 0.3295(2)
H8 H 0.5997 0.2376 0.3226
H9 H 0.6243 0.3491 0.3935
C8 C 0.4436(2) 0.5000 0.2750(3)
C9 C 0.34367(15) 0.3136(3) -0.2323(2)
C10 C 0.3233(2) 0.5000 -0.3202(3)
H10 H 0.2991 0.5000 -0.3854
C11 C 0.32238(15) 0.3136(3) -0.0047(3)
C12 C 0.48377(14) 0.3203(3) 0.2315(2)
C13 C 0.4092(2) 0.5000 0.3349(3)
H11 H 0.3634 0.5000 0.2966
H12 H 0.4212 0.4241 0.3726
C14 C 0.5492(3) 0.5000 0.4315(4)
H13 H 0.5953 0.5000 0.4558
H14 H 0.5359 0.5759 0.4520
O3A O 0.65783(13) 0.2031(2) 0.00452(18)
O4A O 0.63536(11) 0.2073(2) 0.19937(17)
O5A O 0.51610(11) 0.2201(2) -0.19115(18)
N1A N 0.70107(13) 0.3823(2) 0.21942(19)
N2A N 0.71532(14) 0.3813(2) 0.0827(2)
N3A N 0.46386(13) 0.3827(2) -0.29304(18)
N4A N 0.36101(12) 0.3824(2) -0.28758(19)
N5A N 0.66913(13) 0.3830(2) -0.06922(19)
N6A N 0.57275(13) 0.3838(2) -0.21743(18)
C1A C 0.73693(15) 0.3320(3) 0.1730(2)
H1A H 0.7337 0.2392 0.1706
H2A H 0.7816 0.3541 0.2088
C2A C 0.70674(19) 0.5000 -0.0437(3)
H3A H 0.7385 0.5000 -0.0654
C3A C 0.7201(2) 0.5000 0.2725(3)
H4A H 0.7652 0.5000 0.3150
C4A C 0.7392(2) 0.5000 0.0612(3)
H5A H 0.7854 0.5000 0.0868
C5A C 0.63601(16) 0.3330(3) -0.1627(2)
H6A H 0.6331 0.2405 -0.1600
H7A H 0.6621 0.3522 -0.1923
C6A C 0.4794(2) 0.5000 -0.3294(3)
C7A C 0.39799(16) 0.3301(3) -0.3295(2)
H8A H 0.4003 0.2376 -0.3226
H9A H 0.3757 0.3491 -0.3935
C8A C 0.5564(2) 0.5000 -0.2750(3)
C9A C 0.65633(15) 0.3136(3) 0.2323(2)
C10A C 0.6767(2) 0.5000 0.3202(3)
H10A H 0.7009 0.5000 0.3854
C11A C 0.67762(15) 0.3136(3) 0.0047(3)
C12A C 0.51623(14) 0.3203(3) -0.2315(2)
C13A C 0.5908(2) 0.5000 -0.3349(3)
H11A H 0.6366 0.5000 -0.2966
H12A H 0.5788 0.4241 -0.3726
C14A C 0.4508(3) 0.5000 -0.4315(4)
H13A H 0.4047 0.5000 -0.4558
H14A H 0.4641 0.5759 -0.4520
O3D O 0.65783(13) 0.7969(2) 0.00452(18)
O4D O 0.63536(11) 0.7927(2) 0.19937(17)
O5D O 0.51610(11) 0.7799(2) -0.19115(18)
N1D N 0.70107(13) 0.6177(2) 0.21942(19)
N2D N 0.71532(14) 0.6187(2) 0.0827(2)
N3D N 0.46386(13) 0.6173(2) -0.29304(18)
N4D N 0.36101(12) 0.6176(2) -0.28758(19)
N5D N 0.66913(13) 0.6170(2) -0.06922(19)
N6D N 0.57275(13) 0.6162(2) -0.21743(18)
C1D C 0.73693(15) 0.6680(3) 0.1730(2)
H1D H 0.7337 0.7608 0.1706
H2D H 0.7816 0.6459 0.2088
C5D C 0.63601(16) 0.6670(3) -0.1627(2)
H6D H 0.6331 0.7595 -0.1600
H7D H 0.6621 0.6478 -0.1923
C7D C 0.39799(16) 0.6699(3) -0.3295(2)
H8D H 0.4003 0.7624 -0.3226
H9D H 0.3757 0.6509 -0.3935
C9D C 0.65633(15) 0.6864(3) 0.2323(2)
C11D C 0.67762(15) 0.6864(3) 0.0047(3)
C12D C 0.51623(14) 0.6797(3) -0.2315(2)
H12D H 0.5788 0.5759 -0.3726
H14D H 0.4641 0.4241 -0.4520
O3E O 0.34217(13) 0.7969(2) -0.00452(18)
O4E O 0.36464(11) 0.7927(2) -0.19937(17)
O5E O 0.48390(11) 0.7799(2) 0.19115(18)
N1E N 0.29893(13) 0.6177(2) -0.21942(19)
N2E N 0.28468(14) 0.6187(2) -0.0827(2)
N3E N 0.53614(13) 0.6173(2) 0.29304(18)
N4E N 0.63899(12) 0.6176(2) 0.28758(19)
N5E N 0.33087(13) 0.6170(2) 0.06922(19)
N6E N 0.42725(13) 0.6162(2) 0.21743(18)
C1E C 0.26307(15) 0.6680(3) -0.1730(2)
H1E H 0.2663 0.7608 -0.1706
H2E H 0.2184 0.6459 -0.2088
C5E C 0.36399(16) 0.6670(3) 0.1627(2)
H6E H 0.3669 0.7595 0.1600
H7E H 0.3379 0.6478 0.1923
C7E C 0.60201(16) 0.6699(3) 0.3295(2)
H8E H 0.5997 0.7624 0.3226
H9E H 0.6243 0.6509 0.3935
C9E C 0.34367(15) 0.6864(3) -0.2323(2)
C11E C 0.32238(15) 0.6864(3) -0.0047(3)
C12E C 0.48377(14) 0.6797(3) 0.2315(2)
H12E H 0.4212 0.5759 0.3726
H14E H 0.5359 0.4241 0.4520
Cu1A Cu 0.51592(3) 0.0000 -0.21502(5)
O1A O 0.5747(2) 0.0000 -0.0826(3)
O2A O 0.44061(18) 0.0000 -0.1863(3)
Cl1A Cl 0.59994(7) 0.0000 -0.25147(12)
Cl2A Cl 0.4505(3) 0.0000 -0.3521(3)
Cu1_2 Cu 0.48408(3) 1.0000 0.21502(5)
Cu1A_2 Cu 0.51592(3) 1.0000 -0.21502(5)
O5D_2 O 0.51610(11) -0.2201(2) -0.19115(18)
O5E_2 O 0.48390(11) -0.2201(2) 0.19115(18)
loop_
_geom_bond_atom_site_label_1
_geom_bond_atom_site_label_2
_geom_bond_site_symmetry_1
_geom_bond_site_symmetry_2
Cu1 O1 1_555 1_555
O2 Cu1 1_555 1_555
Cl1 Cu1 1_555 1_555
Cl2 Cu1 1_555 1_555
O3 C11 1_555 1_555
O4 C9 1_555 1_555
O5 Cu1 1_555 1_555
N1 C1 1_555 1_555
N2 C1 1_555 1_555
N3 C6 1_555 1_555
N4 C7 1_555 1_555
N5 C2 1_555 1_555
N6 C5 1_555 1_555
C1 H1 1_555 1_555
H2 C1 1_555 1_555
C2 H3 1_555 1_555
C3 N1 1_555 1_555
H4 C3 1_555 1_555
C4 N2 1_555 1_555
H5 C4 1_555 1_555
C5 N5 1_555 1_555
H6 C5 1_555 1_555
H7 C5 1_555 1_555
C6 C8 1_555 1_555
C7 N3 1_555 1_555
H8 C7 1_555 1_555
H9 C7 1_555 1_555
C8 N6 1_555 1_555
C9 N1 1_555 1_555
C10 C3 1_555 1_555
H10 C10 1_555 1_555
C11 N2 1_555 1_555
C12 O5 1_555 1_555
C13 C8 1_555 1_555
H11 C13 1_555 1_555
H12 C13 1_555 1_555
C14 C6 1_555 1_555
H13 C14 1_555 1_555
H14 C14 1_555 1_555
O3A C11A 1_555 1_555
O4A C9A 1_555 1_555
O5A C12A 1_555 1_555
N1A C1A 1_555 1_555
N2A C1A 1_555 1_555
N3A C6A 1_555 1_555
N4A C9 1_555 1_555
N5A C2A 1_555 1_555
N6A C5A 1_555 1_555
C1A H1A 1_555 1_555
H2A C1A 1_555 1_555
C2A H3A 1_555 1_555
C3A N1A 1_555 1_555
H4A C3A 1_555 1_555
C4A N2A 1_555 1_555
H5A C4A 1_555 1_555
C5A N5A 1_555 1_555
H6A C5A 1_555 1_555
H7A C5A 1_555 1_555
C6A C8A 1_555 1_555
C7A N3A 1_555 1_555
H8A C7A 1_555 1_555
H9A C7A 1_555 1_555
C8A N6A 1_555 1_555
C9A N4 1_555 1_555
C10A N4 1_555 1_555
H10A C10A 1_555 1_555
C11A N2A 1_555 1_555
C12A N3A 1_555 1_555
C13A C8A 1_555 1_555
H11A C13A 1_555 1_555
H12A C13A 1_555 1_555
C14A C6A 1_555 1_555
H13A C14A 1_555 1_555
H14A C14A 1_555 1_555
O3D C11D 1_555 1_555
O4D C9D 1_555 1_555
O5D C12D 1_555 1_555
N1D C3A 1_555 1_555
N2D C4A 1_555 1_555
N3D C6A 1_555 1_555
N4D C10 1_555 1_555
N5D C2A 1_555 1_555
N6D C8A 1_555 1_555
C1D N1D 1_555 1_555
H1D C1D 1_555 1_555
H2D C1D 1_555 1_555
C5D N5D 1_555 1_555
H6D C5D 1_555 1_555
H7D C5D 1_555 1_555
C7D N3D 1_555 1_555
H8D C7D 1_555 1_555
H9D C7D 1_555 1_555
C9D N1D 1_555 1_555
C11D N2D 1_555 1_555
C12D N3D 1_555 1_555
H12D C13A 1_555 1_555
H14D C14A 1_555 1_555
O3E C11E 1_555 1_555
O4E C9E 1_555 1_555
O5E C12E 1_555 1_555
N1E C3 1_555 1_555
N2E C4 1_555 1_555
N3E C6 1_555 1_555
N4E C10A 1_555 1_555
N5E C2 1_555 1_555
N6E C8 1_555 1_555
C1E N1E 1_555 1_555
H1E C1E 1_555 1_555
H2E C1E 1_555 1_555
C5E N5E 1_555 1_555
H6E C5E 1_555 1_555
H7E C5E 1_555 1_555
C7E N3E 1_555 1_555
H8E C7E 1_555 1_555
H9E C7E 1_555 1_555
C9E N4D 1_555 1_555
C11E N2E 1_555 1_555
C12E N3E 1_555 1_555
H12E C13 1_555 1_555
H14E C14 1_555 1_555
Cu1A O5A 1_555 1_555
O1A Cu1A 1_555 1_555
O2A Cu1A 1_555 1_555
Cl1A Cu1A 1_555 1_555
Cl2A Cu1A 1_555 1_555
Cu1_2 O5E 1_555 1_555
Cu1A_2 O5D 1_555 1_555
O5D_2 Cu1A 1_555 1_555
O5E_2 Cu1 1_555 1_555
N3 C12 1_555 1_555
N5 C11 1_555 1_555
N6 C12 1_555 1_555
C2 C4 1_555 1_555
C10 N4A 1_555 1_555
N1A C9A 1_555 1_555
N4A C7A 1_555 1_555
N5A C11A 1_555 1_555
N6A C12A 1_555 1_555
C2A C4A 1_555 1_555
C3A C10A 1_555 1_555
N2D C1D 1_555 1_555
N4D C7D 1_555 1_555
N5D C11D 1_555 1_555
N6D C5D 1_555 1_555
N6D C12D 1_555 1_555
C9D N4E 1_555 1_555
N1E C9E 1_555 1_555
N2E C1E 1_555 1_555
N4E C7E 1_555 1_555
N5E C11E 1_555 1_555
N6E C5E 1_555 1_555
N6E C12E 1_555 1_555

#END
