
#######################################################################
#
#                 Cambridge Crystallographic Data Centre
#                                CCDC 
#
#######################################################################
#
# If this CIF has been generated from an entry in the Cambridge 
# Structural Database, then it will include bibliographic, chemical, 
# crystal, experimental, refinement or atomic coordinate data resulting 
# from the CCDC's data processing and validation procedures.
#
#######################################################################

data_CLGUHG
_symmetry_cell_setting           orthorhombic
_symmetry_space_group_name_H-M   'P 21 21 21'
_symmetry_Int_Tables_number      19
_space_group_name_Hall           'P 2ac 2ab'
loop_
_symmetry_equiv_pos_site_id
_symmetry_equiv_pos_as_xyz
1 x,y,z
2 1/2-x,-y,1/2+z
3 1/2+x,1/2-y,-z
4 -x,1/2+y,1/2-z
_cell_length_a                   11.152(6)
_cell_length_b                   20.565(9)
_cell_length_c                   6.561(2)
_cell_angle_alpha                90
_cell_angle_beta                 90
_cell_angle_gamma                90
_cell_volume                     1504.71
loop_
_atom_site_label
_atom_site_type_symbol
_atom_site_fract_x
_atom_site_fract_y
_atom_site_fract_z
Hg1 Hg 0.18845 -0.54481 -0.42783
Cl1 Cl 0.33360 -0.44570 -0.50970
Cl2 Cl 0.31200 -0.63170 -0.52120
N1 N -0.24000 -0.58100 -0.42800
C1 C -0.31700 -0.53300 -0.44000
N2 N -0.42900 -0.54600 -0.44500
N3 N -0.28400 -0.46800 -0.44200
C2 C -0.16400 -0.46200 -0.43900
C3 C -0.07900 -0.51300 -0.43300
C4 C -0.11800 -0.57400 -0.42800
O1 O -0.04800 -0.62200 -0.41200
N4 N 0.03200 -0.48300 -0.44600
C5 C 0.01500 -0.41900 -0.46000
N5 N -0.10000 -0.40500 -0.45100
C6 C -0.15800 -0.34100 -0.46500
C7 C -0.10800 -0.29100 -0.30700
O2 O -0.15200 -0.30500 -0.11100
C8 C -0.16000 -0.23000 -0.40100
O3 O -0.28500 -0.22200 -0.37300
C9 C -0.14100 -0.24000 -0.63400
O4 O -0.12900 -0.31300 -0.65600
C10 C -0.02800 -0.21100 -0.70300
O5 O 0.00400 -0.23400 -0.90400
Cl1A Cl 0.16640 -0.55430 -0.00970
Hg1A Hg 0.31155 -0.45519 -0.92783
Hg1A_2 Hg 0.31155 -0.45519 0.07217
Cl1A_2 Cl 0.16640 -0.55430 -1.00970
Cl2A Cl 0.18800 -0.36830 -1.02120
N4A N 0.46800 -0.51700 -0.94600
C3A C 0.57900 -0.48700 -0.93300
C5A C 0.48500 -0.58100 -0.96000
C2A C 0.66400 -0.53800 -0.93900
C4A C 0.61800 -0.42600 -0.92800
N5A N 0.60000 -0.59500 -0.95100
N3A N 0.78400 -0.53200 -0.94200
N1A N 0.74000 -0.41900 -0.92800
O1A O 0.54800 -0.37800 -0.91200
C6A C 0.65800 -0.65900 -0.96500
C1A C 0.81700 -0.46700 -0.94000
C7A C 0.60800 -0.70900 -0.80700
O4A O 0.62900 -0.68700 -1.15600
N2A N 0.92900 -0.45400 -0.94500
O2A O 0.65200 -0.69500 -0.61100
C8A C 0.66000 -0.77000 -0.90100
C9A C 0.64100 -0.76000 -1.13400
O3A O 0.78500 -0.77800 -0.87300
C10A C 0.52800 -0.78900 -1.20300
O5A O 0.49600 -0.76600 -1.40400
loop_
_geom_bond_atom_site_label_1
_geom_bond_atom_site_label_2
_geom_bond_site_symmetry_1
_geom_bond_site_symmetry_2
Hg1 Cl1 1_555 1_555
Cl1 Hg1A 1_555 1_555
Cl2 Hg1 1_555 1_555
N1 C1 1_555 1_555
C1 N2 1_555 1_555
N3 C1 1_555 1_555
C2 N3 1_555 1_555
C3 C2 1_555 1_555
C4 N1 1_555 1_555
O1 C4 1_555 1_555
N4 Hg1 1_555 1_555
C5 N4 1_555 1_555
N5 C2 1_555 1_555
C6 N5 1_555 1_555
C7 C6 1_555 1_555
O2 C7 1_555 1_555
C8 C7 1_555 1_555
O3 C8 1_555 1_555
C9 C8 1_555 1_555
O4 C6 1_555 1_555
C10 C9 1_555 1_555
O5 C10 1_555 1_555
Cl1A Hg1 1_555 1_555
Hg1A Cl1A_2 1_555 1_555
Hg1A_2 Cl1A 1_555 1_555
Cl2A Hg1A 1_555 1_555
N4A Hg1A 1_555 1_555
C3A N4A 1_555 1_555
C5A N4A 1_555 1_555
C2A C3A 1_555 1_555
C4A C3A 1_555 1_555
N5A C5A 1_555 1_555
N3A C2A 1_555 1_555
N1A C4A 1_555 1_555
O1A C4A 1_555 1_555
C6A N5A 1_555 1_555
C1A N3A 1_555 1_555
C7A C6A 1_555 1_555
O4A C6A 1_555 1_555
N2A C1A 1_555 1_555
O2A C7A 1_555 1_555
C8A C7A 1_555 1_555
C9A O4A 1_555 1_555
O3A C8A 1_555 1_555
C10A C9A 1_555 1_555
O5A C10A 1_555 1_555
C3 C4 1_555 1_555
C3 N4 1_555 1_555
C5 N5 1_555 1_555
C9 O4 1_555 1_555
C2A N5A 1_555 1_555
N1A C1A 1_555 1_555
C8A C9A 1_555 1_555

#END
