
#######################################################################
#
#                 Cambridge Crystallographic Data Centre
#                                CCDC 
#
#######################################################################
#
# If this CIF has been generated from an entry in the Cambridge 
# Structural Database, then it will include bibliographic, chemical, 
# crystal, experimental, refinement or atomic coordinate data resulting 
# from the CCDC's data processing and validation procedures.
#
#######################################################################

data_COBJUZ
_symmetry_cell_setting           monoclinic
_symmetry_space_group_name_H-M   'C 2/c'
_symmetry_Int_Tables_number      15
_space_group_name_Hall           '-C 2yn'
loop_
_symmetry_equiv_pos_site_id
_symmetry_equiv_pos_as_xyz
1 x,y,z
2 1/2+x,1/2+y,z
3 -x,y,1/2-z
4 1/2-x,1/2+y,1/2-z
5 -x,-y,-z
6 1/2-x,1/2-y,-z
7 x,-y,1/2+z
8 1/2+x,1/2-y,1/2+z
_cell_length_a                   19.9307(16)
_cell_length_b                   9.3985(8)
_cell_length_c                   13.5264(12)
_cell_angle_alpha                90
_cell_angle_beta                 118.321(3)
_cell_angle_gamma                90
_cell_volume                     2230.47
loop_
_atom_site_label
_atom_site_type_symbol
_atom_site_fract_x
_atom_site_fract_y
_atom_site_fract_z
Ho1 Ho 0.132868(9) 0.063674(16) 0.186266(13)
C1 C -0.0107(2) 0.4317(4) 0.1233(3)
C2 C 0.0142(2) 0.5710(4) 0.1266(3)
H1 H 0.0665 0.5893 0.1504
C3 C -0.0374(2) 0.6835(4) 0.0951(3)
C4 C -0.1131(2) 0.6556(4) 0.0674(3)
H2 H -0.1485 0.7316 0.0489
C5 C -0.1360(2) 0.5186(4) 0.0670(3)
C6 C -0.0870(2) 0.4042(4) 0.0913(3)
H3 H -0.1049 0.3094 0.0864
C7 C 0.0424(2) 0.3076(4) 0.1509(3)
C8 C -0.0155(2) 0.8332(4) 0.0817(3)
C9 C 0.2265(2) -0.2128(4) 0.1740(3)
C10 C 0.2358(2) -0.2195(3) 0.2935(3)
N1 N -0.21620(18) 0.4923(3) 0.0327(3)
H4 H -0.2292 0.5380 0.0804
H5 H -0.2240 0.3972 0.0346
H6 H -0.2454 0.5254 -0.0384
O1 O 0.01591(15) 0.1841(3) 0.1461(2)
O2 O 0.11162(15) 0.3260(3) 0.1768(2)
O3 O 0.05179(15) 0.8707(3) 0.1434(2)
O4 O -0.06864(15) 0.9099(2) 0.0086(2)
O5 O 0.18649(15) -0.1115(3) 0.1138(2)
O6 O 0.26030(15) -0.3062(3) 0.1480(2)
O7 O 0.20921(15) -0.1169(3) 0.3232(2)
O8 O 0.26967(15) -0.3271(3) 0.3514(2)
O9 O 0.10655(18) 0.0629(3) 0.3432(2)
H7 H 0.070(3) 0.105(4) 0.345(4)
H8 H 0.120(3) 0.018(5) 0.388(4)
Ho1_2 Ho 0.132868(9) 1.063674(16) 0.186266(13)
Ho1D Ho -0.132868(9) 0.936326(16) -0.186266(13)
Ho1C Ho 0.367132(9) -0.436326(16) 0.313734(13)
O3_2 O 0.05179(15) -0.1293(3) 0.1434(2)
O4D O 0.06864(15) 0.0901(2) -0.0086(2)
O6C O 0.23970(15) 0.1938(3) 0.3520(2)
O8C O 0.23033(15) 0.1729(3) 0.1486(2)
loop_
_geom_bond_atom_site_label_1
_geom_bond_atom_site_label_2
_geom_bond_site_symmetry_1
_geom_bond_site_symmetry_2
Ho1 O1 1_555 1_555
C1 C2 1_555 1_555
C2 H1 1_555 1_555
C3 C2 1_555 1_555
C4 C3 1_555 1_555
H2 C4 1_555 1_555
C5 C4 1_555 1_555
C6 C1 1_555 1_555
H3 C6 1_555 1_555
C7 C1 1_555 1_555
C8 C3 1_555 1_555
C9 C10 1_555 1_555
C10 O7 1_555 1_555
N1 C5 1_555 1_555
H4 N1 1_555 1_555
H5 N1 1_555 1_555
H6 N1 1_555 1_555
O1 C7 1_555 1_555
O2 Ho1 1_555 1_555
O3 C8 1_555 1_555
O4 C8 1_555 1_555
O5 Ho1 1_555 1_555
O6 C9 1_555 1_555
O7 Ho1 1_555 1_555
O8 C10 1_555 1_555
O9 Ho1 1_555 1_555
H7 O9 1_555 1_555
H8 O9 1_555 1_555
Ho1_2 O3 1_555 1_555
Ho1D O4 1_555 1_555
Ho1C O6 1_555 1_555
O3_2 Ho1 1_555 1_555
O4D Ho1 1_555 1_555
O6C Ho1 1_555 1_555
O8C Ho1 1_555 1_555
C5 C6 1_555 1_555
C7 O2 1_555 1_555
C9 O5 1_555 1_555
O8 Ho1C 1_555 1_555

#END
