
#######################################################################
#
#                 Cambridge Crystallographic Data Centre
#                                CCDC 
#
#######################################################################
#
# If this CIF has been generated from an entry in the Cambridge 
# Structural Database, then it will include bibliographic, chemical, 
# crystal, experimental, refinement or atomic coordinate data resulting 
# from the CCDC's data processing and validation procedures.
#
#######################################################################

data_COBNEO
_symmetry_cell_setting           monoclinic
_symmetry_space_group_name_H-M   'P 21/c'
_symmetry_Int_Tables_number      14
_space_group_name_Hall           '-P 2ybc'
loop_
_symmetry_equiv_pos_site_id
_symmetry_equiv_pos_as_xyz
1 x,y,z
2 -x,1/2+y,1/2-z
3 -x,-y,-z
4 x,1/2-y,1/2+z
_cell_length_a                   12.039(5)
_cell_length_b                   16.306(6)
_cell_length_c                   18.520(7)
_cell_angle_alpha                90
_cell_angle_beta                 94.551(6)
_cell_angle_gamma                90
_cell_volume                     3624.16
loop_
_atom_site_label
_atom_site_type_symbol
_atom_site_fract_x
_atom_site_fract_y
_atom_site_fract_z
Ni1 Ni 0.22790(7) 0.47955(5) 0.54940(4)
Co1 Co 0.21378(7) 0.46533(6) 0.26059(5)
Co2 Co 0.17373(8) 0.45791(6) 0.09056(5)
N1 N 0.1299(4) 0.4312(3) 0.4720(3)
N2 N 0.1254(5) 0.4623(4) 0.6238(3)
N3 N 0.3543(5) 0.4901(4) 0.6208(3)
N4 N 0.3066(4) 0.5306(3) 0.4748(3)
O1 O 0.1270(3) 0.4281(3) 0.3456(2)
O2 O 0.2989(4) 0.5259(3) 0.3486(2)
O3 O 0.1334(4) 0.5714(3) 0.2375(2)
O4 O 0.0872(4) 0.5626(3) 0.1171(2)
O5 O 0.0354(4) 0.8368(3) 0.3533(3)
O6 O -0.1259(3) 0.8966(3) 0.3158(2)
O7 O -0.3065(4) 0.6928(3) 0.1424(3)
H1 H -0.3095 0.6560 0.1105
O8 O 0.3656(4) 0.4018(3) 0.2545(2)
O9 O 0.3207(4) 0.4894(3) 0.1654(2)
O10 O 0.6574(4) 0.5819(3) 0.0359(2)
O11 O 0.7582(4) 0.4809(3) -0.0064(2)
O12 O 0.7225(4) 0.2664(4) 0.1892(3)
H2 H 0.6978 0.2468 0.2267
O13 O 0.0321(4) 0.4141(3) 0.0290(2)
H3 H 0.0037 0.4359 -0.0100
H4 H -0.0212 0.3881 0.0459
C1 C 0.1653(5) 0.4498(4) 0.4073(4)
C2 C 0.0352(5) 0.3816(4) 0.4807(3)
C3 C -0.0080(5) 0.3777(4) 0.5501(3)
C4 C -0.1019(6) 0.3300(4) 0.5590(4)
H5 H -0.1305 0.3282 0.6053
C5 C -0.1546(6) 0.2855(4) 0.5034(4)
H6 H -0.2187 0.2535 0.5109
C6 C -0.1120(6) 0.2883(5) 0.4363(4)
H7 H -0.1476 0.2581 0.3972
C7 C -0.0171(6) 0.3350(4) 0.4250(4)
H8 H 0.0118 0.3347 0.3788
C8 C 0.0350(6) 0.4212(4) 0.6160(3)
H9 H -0.0084 0.4185 0.6566
C9 C 0.1543(6) 0.5054(5) 0.6929(4)
H10 H 0.0917 0.4999 0.7241
H11 H 0.1640 0.5645 0.6829
C10 C 0.2593(6) 0.4731(5) 0.7331(4)
H12 H 0.2930 0.5179 0.7636
H13 H 0.2382 0.4290 0.7661
C11 C 0.3470(7) 0.4399(5) 0.6873(4)
H14 H 0.4201 0.4399 0.7158
H15 H 0.3286 0.3825 0.6735
C12 C 0.4390(6) 0.5345(5) 0.6152(4)
H16 H 0.4964 0.5321 0.6535
C13 C 0.4559(6) 0.5891(4) 0.5545(4)
C14 C 0.3935(6) 0.5874(4) 0.4865(4)
C15 C 0.4199(6) 0.6458(5) 0.4340(4)
H17 H 0.3798 0.6459 0.3877
C16 C 0.5027(7) 0.7024(5) 0.4494(5)
H18 H 0.5177 0.7420 0.4138
C17 C 0.5648(7) 0.7030(5) 0.5154(4)
H19 H 0.6238 0.7412 0.5244
C18 C 0.5406(6) 0.6479(5) 0.5677(4)
H20 H 0.5817 0.6494 0.6136
C19 C 0.2648(6) 0.5075(4) 0.4096(4)
C20 C -0.0092(5) 0.6577(4) 0.1895(3)
C21 C 0.0119(6) 0.7186(4) 0.2415(3)
H21 H 0.0834 0.7229 0.2669
C22 C -0.0725(5) 0.7732(4) 0.2563(3)
C23 C -0.1786(6) 0.7632(4) 0.2222(3)
H22 H -0.2374 0.7982 0.2343
C24 C -0.1994(6) 0.7020(4) 0.1704(4)
C25 C -0.1121(6) 0.6507(4) 0.1523(3)
H23 H -0.1241 0.6115 0.1146
C26 C 0.0767(6) 0.5919(4) 0.1797(4)
C27 C -0.0505(6) 0.8396(4) 0.3120(3)
C28 C 0.4973(5) 0.4179(4) 0.1667(3)
C29 C 0.5413(6) 0.4664(4) 0.1159(3)
H24 H 0.5001 0.5132 0.0989
C30 C 0.6414(6) 0.4512(4) 0.0882(4)
C31 C 0.7009(6) 0.3825(5) 0.1127(4)
H25 H 0.7697 0.3696 0.0935
C32 C 0.6593(6) 0.3317(5) 0.1661(4)
C33 C 0.5595(6) 0.3505(4) 0.1939(4)
H26 H 0.5330 0.3179 0.2314
C34 C 0.3899(5) 0.4369(4) 0.1966(3)
C35 C 0.6887(5) 0.5083(5) 0.0353(3)
C36 C 0.2007(7) 0.2716(5) 0.0559(4)
H27 H 0.1368 0.2676 0.0854
H28 H 0.2509 0.2251 0.0667
H29 H 0.1744 0.2707 0.0045
O14 O 0.2594(4) 0.3470(3) 0.0723(2)
H30 H 0.2863 0.3602 0.0329
Co1A Co -0.21378(7) 0.96533(6) 0.23941(5)
Co2A Co -0.17373(8) 0.95791(6) 0.40944(5)
Co2B Co 0.82627(8) 0.54209(6) -0.09056(5)
O6A O 0.1259(3) 0.3966(3) 0.1842(2)
O11B O 0.2418(4) 0.5191(3) 0.0064(2)
C37 C 0.6078(9) 0.1877(7) 0.3627(6)
H31 H 0.6453 0.1528 0.4002
H32 H 0.5272 0.1787 0.3610
H33 H 0.6243 0.2454 0.3738
O15 O 0.6468(8) 0.1676(4) 0.2941(5)
H34 H 0.6874 0.1257 0.2984
loop_
_geom_bond_atom_site_label_1
_geom_bond_atom_site_label_2
_geom_bond_site_symmetry_1
_geom_bond_site_symmetry_2
Ni1 N1 1_555 1_555
Co1 O1 1_555 1_555
Co2 O4 1_555 1_555
N1 C1 1_555 1_555
N2 Ni1 1_555 1_555
N3 Ni1 1_555 1_555
N4 Ni1 1_555 1_555
O1 C1 1_555 1_555
O2 Co1 1_555 1_555
O3 Co1 1_555 1_555
O4 C26 1_555 1_555
O5 C27 1_555 1_555
O6 C27 1_555 1_555
O7 H1 1_555 1_555
O8 Co1 1_555 1_555
O9 Co1 1_555 1_555
O10 C35 1_555 1_555
O11 C35 1_555 1_555
O12 H2 1_555 1_555
O13 Co2 1_555 1_555
H3 O13 1_555 1_555
H4 O13 1_555 1_555
C1 C19 1_555 1_555
C2 N1 1_555 1_555
C3 C2 1_555 1_555
C4 C3 1_555 1_555
H5 C4 1_555 1_555
C5 C4 1_555 1_555
H6 C5 1_555 1_555
C6 C5 1_555 1_555
H7 C6 1_555 1_555
C7 C2 1_555 1_555
H8 C7 1_555 1_555
C8 N2 1_555 1_555
H9 C8 1_555 1_555
C9 N2 1_555 1_555
H10 C9 1_555 1_555
H11 C9 1_555 1_555
C10 C9 1_555 1_555
H12 C10 1_555 1_555
H13 C10 1_555 1_555
C11 N3 1_555 1_555
H14 C11 1_555 1_555
H15 C11 1_555 1_555
C12 N3 1_555 1_555
H16 C12 1_555 1_555
C13 C12 1_555 1_555
C14 N4 1_555 1_555
C15 C14 1_555 1_555
H17 C15 1_555 1_555
C16 C15 1_555 1_555
H18 C16 1_555 1_555
C17 C16 1_555 1_555
H19 C17 1_555 1_555
C18 C13 1_555 1_555
H20 C18 1_555 1_555
C19 N4 1_555 1_555
C20 C21 1_555 1_555
C21 H21 1_555 1_555
C22 C21 1_555 1_555
C23 C22 1_555 1_555
H22 C23 1_555 1_555
C24 O7 1_555 1_555
C25 C20 1_555 1_555
H23 C25 1_555 1_555
C26 O3 1_555 1_555
C27 C22 1_555 1_555
C28 C29 1_555 1_555
C29 H24 1_555 1_555
C30 C29 1_555 1_555
C31 C30 1_555 1_555
H25 C31 1_555 1_555
C32 O12 1_555 1_555
C33 C28 1_555 1_555
H26 C33 1_555 1_555
C34 O8 1_555 1_555
C35 C30 1_555 1_555
C36 H27 1_555 1_555
H28 C36 1_555 1_555
H29 C36 1_555 1_555
O14 Co2 1_555 1_555
H30 O14 1_555 1_555
C37 H31 1_555 1_555
H32 C37 1_555 1_555
H33 C37 1_555 1_555
O15 C37 1_555 1_555
H34 O15 1_555 1_555
Co1A O6 1_555 1_555
Co2A O6 1_555 1_555
Co2B O11 1_555 1_555
O6A Co1 1_555 1_555
O11B Co2 1_555 1_555
Co2 O9 1_555 1_555
Co2 O6A 1_555 1_555
O2 C19 1_555 1_555
O9 C34 1_555 1_555
C3 C8 1_555 1_555
C6 C7 1_555 1_555
C10 C11 1_555 1_555
C13 C14 1_555 1_555
C17 C18 1_555 1_555
C20 C26 1_555 1_555
C23 C24 1_555 1_555
C24 C25 1_555 1_555
C28 C34 1_555 1_555
C31 C32 1_555 1_555
C32 C33 1_555 1_555
C36 O14 1_555 1_555

#END
