
#######################################################################
#
#                 Cambridge Crystallographic Data Centre
#                                CCDC 
#
#######################################################################
#
# If this CIF has been generated from an entry in the Cambridge 
# Structural Database, then it will include bibliographic, chemical, 
# crystal, experimental, refinement or atomic coordinate data resulting 
# from the CCDC's data processing and validation procedures.
#
#######################################################################

data_COCDUV
_symmetry_cell_setting           monoclinic
_symmetry_space_group_name_H-M   'P 21/c'
_symmetry_Int_Tables_number      14
_space_group_name_Hall           '-P 2ybc'
loop_
_symmetry_equiv_pos_site_id
_symmetry_equiv_pos_as_xyz
1 x,y,z
2 -x,1/2+y,1/2-z
3 -x,-y,-z
4 x,1/2-y,1/2+z
_cell_length_a                   7.8231(5)
_cell_length_b                   18.8411(11)
_cell_length_c                   22.8612(13)
_cell_angle_alpha                90
_cell_angle_beta                 90.874(3)
_cell_angle_gamma                90
_cell_volume                     3369.25
loop_
_atom_site_label
_atom_site_type_symbol
_atom_site_fract_x
_atom_site_fract_y
_atom_site_fract_z
N1 N 0.7841(8) 0.3277(3) 0.3454(2)
C1 C 0.8659(8) 0.3664(4) 0.3717(3)
C2 C 0.9698(10) 0.4160(4) 0.4044(4)
H1 H 1.0213 0.4491 0.3780
H2 H 1.0578 0.3907 0.4254
H3 H 0.8998 0.4412 0.4315
C3 C 0.5563(8) 0.1565(3) 0.7190(2)
H4 H 0.6011 0.1337 0.7518
C4 C 0.5219(7) 0.1167(3) 0.6695(2)
H5 H 0.5418 0.0680 0.6694
C5 C 0.4575(7) 0.1503(3) 0.6200(2)
C6 C 0.4259(7) 0.2224(3) 0.6227(2)
H6 H 0.3808 0.2464 0.5904
C7 C 0.4630(8) 0.2588(3) 0.6749(2)
H7 H 0.4410 0.3073 0.6765
C8 C 0.4158(7) 0.1053(3) 0.5673(2)
C9 C 0.4640(7) 0.1304(3) 0.5069(2)
C10 C 0.4151(7) 0.0892(3) 0.4591(2)
H8 H 0.3555 0.0471 0.4646
C11 C 0.4561(7) 0.1114(3) 0.4032(2)
H9 H 0.4247 0.0829 0.3717
C12 C 0.5882(7) 0.2120(3) 0.4390(2)
H10 H 0.6468 0.2541 0.4324
C13 C 0.5548(7) 0.1924(3) 0.4963(2)
H11 H 0.5929 0.2205 0.5273
N2 N 0.5278(6) 0.2273(2) 0.7219(2)
N3 N 0.5390(6) 0.1723(2) 0.39275(19)
O1 O 0.3422(6) 0.0500(2) 0.57338(17)
Ag1 Ag 0.56189(7) 0.21536(2) 0.304402(18)
N2C N 0.5278(6) 0.2727(2) 0.2219(2)
Ag1C Ag 0.56189(7) 0.28464(2) 0.804402(18)
C14 C 1.0746(8) 0.1505(3) 0.7220(2)
H12 H 1.1306 0.1277 0.7528
C15 C 1.0389(7) 0.1124(3) 0.6718(2)
H13 H 1.0675 0.0646 0.6696
C16 C 0.9599(7) 0.1461(3) 0.6248(2)
C17 C 0.9170(7) 0.2177(3) 0.6308(2)
H14 H 0.8642 0.2422 0.6001
C18 C 0.9549(7) 0.2516(3) 0.6835(2)
H15 H 0.9245 0.2991 0.6874
C19 C 0.9165(7) 0.1031(3) 0.5713(2)
C20 C 0.9615(6) 0.1306(3) 0.5117(2)
C21 C 0.9126(7) 0.0914(3) 0.4627(2)
H16 H 0.8556 0.0484 0.4669
C22 C 0.9499(7) 0.1170(3) 0.4075(2)
H17 H 0.9147 0.0907 0.3750
C23 C 1.0856(7) 0.2153(3) 0.4464(2)
H18 H 1.1459 0.2573 0.4410
C24 C 1.0517(7) 0.1934(3) 0.5033(2)
H19 H 1.0887 0.2204 0.5351
C25 C 1.2610(8) 0.0772(3) 0.2463(2)
C26 C 1.2543(13) 0.0133(4) 0.2133(4)
H20 H 1.3684 -0.0026 0.2057
H21 H 1.1949 0.0218 0.1769
H22 H 1.1949 -0.0224 0.2350
C27 C 1.3676(9) 0.3680(4) 0.3742(3)
C28 C 1.4420(12) 0.4293(5) 0.4039(3)
H23 H 1.3658 0.4454 0.4336
H24 H 1.4595 0.4667 0.3761
H25 H 1.5496 0.4162 0.4215
N4 N 1.0320(7) 0.2198(3) 0.7284(2)
N5 N 1.0343(6) 0.1779(2) 0.39872(19)
N6 N 1.2690(9) 0.1298(3) 0.2722(2)
N7 N 1.3044(7) 0.3216(3) 0.3510(2)
O2 O 0.8458(6) 0.0469(2) 0.57687(17)
Ag2 Ag 1.09072(8) 0.22255(3) 0.311134(18)
N4C N 1.0320(7) 0.2802(3) 0.2284(2)
Ag2C Ag 1.09072(8) 0.27745(3) 0.811134(18)
Cl1 Cl 0.25949(18) 0.55381(7) 0.25751(6)
O3 O 0.0949(14) 0.5824(9) 0.2371(7)
O4 O 0.338(2) 0.6108(6) 0.2850(6)
O5 O 0.231(2) 0.4932(5) 0.2884(6)
O6 O 0.345(2) 0.5382(9) 0.2038(5)
Cl2 Cl 0.2608(18) 0.1071(8) 0.0569(7)
O11 O 0.397(2) 0.0993(6) 0.0933(6)
O12 O 0.2269(17) 0.0423(5) 0.0258(4)
O13 O 0.108(2) 0.1198(11) 0.0893(7)
O14 O 0.284(3) 0.1633(8) 0.0170(7)
O7? O 0.176(2) 0.6144(8) 0.2304(8)
O8? O 0.3490(19) 0.5833(7) 0.3065(5)
O9? O 0.1170(15) 0.5127(6) 0.2791(6)
O10? O 0.357(2) 0.5187(11) 0.2195(10)
Cl3? Cl 0.2182(18) 0.1050(8) 0.0564(7)
O15? O 0.188(2) 0.1382(8) 0.1097(6)
O16? O 0.334(3) 0.0523(10) 0.0596(9)
O17? O 0.056(3) 0.0728(11) 0.0383(10)
O18? O 0.257(3) 0.1575(10) 0.0143(9)
loop_
_geom_bond_atom_site_label_1
_geom_bond_atom_site_label_2
_geom_bond_site_symmetry_1
_geom_bond_site_symmetry_2
N1 C1 1_555 1_555
C1 C2 1_555 1_555
C2 H1 1_555 1_555
H2 C2 1_555 1_555
H3 C2 1_555 1_555
C3 H4 1_555 1_555
C4 C3 1_555 1_555
H5 C4 1_555 1_555
C5 C4 1_555 1_555
C6 C5 1_555 1_555
H6 C6 1_555 1_555
C7 C6 1_555 1_555
H7 C7 1_555 1_555
C8 C5 1_555 1_555
C9 C8 1_555 1_555
C10 C9 1_555 1_555
H8 C10 1_555 1_555
C11 C10 1_555 1_555
H9 C11 1_555 1_555
C12 H10 1_555 1_555
C13 C9 1_555 1_555
H11 C13 1_555 1_555
N2 C3 1_555 1_555
N3 C11 1_555 1_555
O1 C8 1_555 1_555
Ag1 N3 1_555 1_555
C14 H12 1_555 1_555
C15 C14 1_555 1_555
H13 C15 1_555 1_555
C16 C15 1_555 1_555
C17 C16 1_555 1_555
H14 C17 1_555 1_555
C18 C17 1_555 1_555
H15 C18 1_555 1_555
C19 C16 1_555 1_555
C20 C19 1_555 1_555
C21 C20 1_555 1_555
H16 C21 1_555 1_555
C22 C21 1_555 1_555
H17 C22 1_555 1_555
C23 H18 1_555 1_555
C24 C20 1_555 1_555
H19 C24 1_555 1_555
C25 C26 1_555 1_555
C26 H20 1_555 1_555
H21 C26 1_555 1_555
H22 C26 1_555 1_555
C27 C28 1_555 1_555
C28 H23 1_555 1_555
H24 C28 1_555 1_555
H25 C28 1_555 1_555
N4 C14 1_555 1_555
N5 C22 1_555 1_555
N6 C25 1_555 1_555
N7 C27 1_555 1_555
O2 C19 1_555 1_555
Ag2 N5 1_555 1_555
Cl1 O3 1_555 1_555
O4 Cl1 1_555 1_555
O5 Cl1 1_555 1_555
O6 Cl1 1_555 1_555
Cl2 O11 1_555 1_555
O12 Cl2 1_555 1_555
O13 Cl2 1_555 1_555
O14 Cl2 1_555 1_555
N2C Ag1 1_555 1_555
Ag1C N2 1_555 1_555
N4C Ag2 1_555 1_555
Ag2C N4 1_555 1_555
C7 N2 1_555 1_555
C12 C13 1_555 1_555
C12 N3 1_555 1_555
C18 N4 1_555 1_555
C23 C24 1_555 1_555
C23 N5 1_555 1_555
N6 Ag2 1_555 1_555
N7 Ag2 1_555 1_555

#END
