
#######################################################################
#
#                 Cambridge Crystallographic Data Centre
#                                CCDC 
#
#######################################################################
#
# If this CIF has been generated from an entry in the Cambridge 
# Structural Database, then it will include bibliographic, chemical, 
# crystal, experimental, refinement or atomic coordinate data resulting 
# from the CCDC's data processing and validation procedures.
#
#######################################################################

data_CODKIR
_symmetry_cell_setting           monoclinic
_symmetry_space_group_name_H-M   'P 21/c'
_symmetry_Int_Tables_number      14
_space_group_name_Hall           '-P 2ybc'
loop_
_symmetry_equiv_pos_site_id
_symmetry_equiv_pos_as_xyz
1 x,y,z
2 -x,1/2+y,1/2-z
3 -x,-y,-z
4 x,1/2-y,1/2+z
_cell_length_a                   10.0552(5)
_cell_length_b                   18.7840(8)
_cell_length_c                   19.1757(9)
_cell_angle_alpha                90
_cell_angle_beta                 104.829(2)
_cell_angle_gamma                90
_cell_volume                     3501.22
loop_
_atom_site_label
_atom_site_type_symbol
_atom_site_fract_x
_atom_site_fract_y
_atom_site_fract_z
Cu1 Cu 0.5000 0.0000 0.5000
Cu2 Cu 0.21873(5) 0.08099(2) 0.43059(2)
Cu3 Cu 0.05983(4) 0.10230(2) 0.25926(2)
O1 O 0.3257(2) -0.00139(11) 0.43162(13)
H1 H 0.2795 -0.0398 0.4261
O2 O 0.0450(3) 0.03238(12) 0.37806(14)
H2 H 0.0341 -0.0092 0.3600
H3 H -0.0318 0.0466 0.3838
O3 O 0.1177(3) 0.16852(12) 0.43058(13)
O4 O 0.0640(3) 0.19148(12) 0.31173(13)
O5 O -0.0418(3) 0.43591(13) 0.22390(14)
O6 O -0.0437(3) 0.52145(12) 0.30425(13)
O7 O 0.0879(3) 0.40936(13) 0.54313(14)
H4 H 0.1092 0.3779 0.5759
O8 O -0.1369(3) 0.10740(14) 0.23472(14)
O9 O -0.2008(3) 0.09745(15) 0.33722(15)
O10 O -0.7417(2) 0.10886(12) 0.26777(13)
O11 O -0.8416(3) 0.16752(13) 0.16774(13)
O12 O -0.4623(3) 0.29050(14) 0.09474(15)
H5 H -0.3834 0.3100 0.1040
N1 N 0.5205(3) 0.10246(14) 0.45529(16)
N2 N 0.4039(3) 0.13957(14) 0.43274(16)
N3 N 0.2643(3) 0.41901(15) 0.05066(16)
N4 N 0.3883(3) 0.44646(15) 0.07985(15)
C1 C 0.6375(4) 0.13259(19) 0.4528(2)
H6 H 0.7172 0.1054 0.4664
C2 C 0.6497(4) 0.2028(2) 0.43106(19)
H7 H 0.7350 0.2219 0.4308
C3 C 0.5314(4) 0.24282(18) 0.41003(18)
C4 C 0.4104(4) 0.20620(18) 0.41103(19)
H8 H 0.3277 0.2307 0.3952
C5 C 0.1984(4) 0.3876(2) 0.0941(2)
H9 H 0.1118 0.3685 0.0739
C6 C 0.2518(4) 0.3819(2) 0.1682(2)
H10 H 0.2010 0.3605 0.1967
C7 C 0.3813(4) 0.40843(17) 0.19887(19)
C8 C 0.4446(4) 0.44147(18) 0.14994(19)
H11 H 0.5315 0.4610 0.1680
C9 C 0.5268(4) 0.32021(18) 0.38663(18)
C10 C 0.4600(4) 0.32536(17) 0.30475(17)
H12 H 0.3686 0.3048 0.2940
H13 H 0.5143 0.2983 0.2789
C11 C 0.4503(4) 0.40424(17) 0.27883(19)
C12 C 0.3624(4) 0.44557(19) 0.32090(19)
H14 H 0.3545 0.4949 0.3055
H15 H 0.2707 0.4254 0.3104
C13 C 0.4278(4) 0.44175(19) 0.4014(2)
H16 H 0.3715 0.4688 0.4269
C14 C 0.4368(4) 0.36378(18) 0.4269(2)
H17 H 0.3452 0.3434 0.4171
H18 H 0.4773 0.3617 0.4786
C15 C 0.6699(4) 0.35407(18) 0.4030(2)
H19 H 0.7271 0.3281 0.3780
H20 H 0.7126 0.3513 0.4544
C16 C 0.6596(4) 0.43229(19) 0.3789(2)
H21 H 0.7522 0.4528 0.3899
C17 C 0.5967(4) 0.43609(19) 0.29795(19)
H22 H 0.6538 0.4099 0.2730
H23 H 0.5928 0.4853 0.2822
C18 C 0.5733(5) 0.4738(2) 0.4188(2)
H24 H 0.5686 0.5233 0.4041
H25 H 0.6147 0.4715 0.4703
C19 C 0.0777(3) 0.20883(17) 0.3761(2)
C20 C -0.0311(4) 0.45722(18) 0.2869(2)
C21 C 0.0532(4) 0.28537(17) 0.39120(18)
C22 C 0.0162(4) 0.33311(17) 0.33418(19)
H26 H -0.0007 0.3168 0.2869
C23 C 0.0044(4) 0.40493(17) 0.34777(19)
C24 C 0.0291(4) 0.42867(18) 0.41819(19)
H27 H 0.0210 0.4769 0.4273
C25 C 0.0660(4) 0.38087(18) 0.47575(19)
C26 C 0.0789(4) 0.30937(17) 0.46236(19)
H28 H 0.1045 0.2774 0.5005
C27 C -0.2201(4) 0.11659(18) 0.2738(2)
C28 C -0.7354(4) 0.14572(18) 0.2130(2)
C29 C -0.3514(4) 0.15395(18) 0.2356(2)
C30 C -0.4774(4) 0.13524(18) 0.24645(19)
H29 H -0.4823 0.1031 0.2826
C31 C -0.5972(4) 0.16474(17) 0.20296(19)
C32 C -0.5902(4) 0.21430(18) 0.1506(2)
H30 H -0.6708 0.2319 0.1202
C33 C -0.4638(4) 0.23785(19) 0.1433(2)
C34 C -0.3450(4) 0.20596(19) 0.1846(2)
H31 H -0.2599 0.2195 0.1782
Cu2B Cu 0.78127(5) -0.08099(2) 0.56941(2)
Cu3B Cu 0.94017(4) -0.10230(2) 0.74074(2)
O1B O 0.6743(2) 0.00139(11) 0.56838(13)
H1B H 0.7205 0.0398 0.5739
O2B O 0.9550(3) -0.03238(12) 0.62194(14)
H2B H 0.9659 0.0092 0.6400
H3B H 1.0318 -0.0466 0.6162
O3B O 0.8823(3) -0.16852(12) 0.56942(13)
O4B O 0.9360(3) -0.19148(12) 0.68827(13)
O5B O 1.0418(3) -0.43591(13) 0.77610(14)
O6B O 1.0437(3) -0.52145(12) 0.69575(13)
O7B O 0.9121(3) -0.40936(13) 0.45687(14)
H4B H 0.8908 -0.3779 0.4241
O8B O 1.1369(3) -0.10740(14) 0.76528(14)
O9B O 1.2008(3) -0.09745(15) 0.66278(15)
O10B O 1.7417(2) -0.10886(12) 0.73223(13)
O11B O 1.8416(3) -0.16752(13) 0.83226(13)
O12B O 1.4623(3) -0.29050(14) 0.90526(15)
H5B H 1.3834 -0.3100 0.8960
N1B N 0.4795(3) -0.10246(14) 0.54471(16)
N2B N 0.5961(3) -0.13957(14) 0.56726(16)
N3B N 0.7357(3) -0.41901(15) 0.94934(16)
N4B N 0.6117(3) -0.44646(15) 0.92015(15)
C1B C 0.3625(4) -0.13259(19) 0.5472(2)
H6B H 0.2828 -0.1054 0.5336
C2B C 0.3503(4) -0.2028(2) 0.56894(19)
H7B H 0.2650 -0.2219 0.5692
C3B C 0.4686(4) -0.24282(18) 0.58997(18)
C4B C 0.5896(4) -0.20620(18) 0.58897(19)
H8B H 0.6723 -0.2307 0.6048
C5B C 0.8016(4) -0.3876(2) 0.9059(2)
H9B H 0.8882 -0.3685 0.9261
C6B C 0.7482(4) -0.3819(2) 0.8318(2)
H10B H 0.7990 -0.3605 0.8033
C7B C 0.6187(4) -0.40843(17) 0.80113(19)
C8B C 0.5554(4) -0.44147(18) 0.85006(19)
H11B H 0.4685 -0.4610 0.8320
C9B C 0.4732(4) -0.32021(18) 0.61337(18)
C10B C 0.5400(4) -0.32536(17) 0.69525(17)
H12B H 0.6314 -0.3048 0.7060
H13B H 0.4857 -0.2983 0.7211
C11B C 0.5497(4) -0.40424(17) 0.72117(19)
C12B C 0.6376(4) -0.44557(19) 0.67910(19)
H14B H 0.6455 -0.4949 0.6945
H15B H 0.7293 -0.4254 0.6896
C13B C 0.5722(4) -0.44175(19) 0.5986(2)
H16B H 0.6285 -0.4688 0.5731
C14B C 0.5632(4) -0.36378(18) 0.5731(2)
H17B H 0.6548 -0.3434 0.5829
H18B H 0.5227 -0.3617 0.5214
C15B C 0.3301(4) -0.35407(18) 0.5970(2)
H19B H 0.2729 -0.3281 0.6220
H20B H 0.2874 -0.3513 0.5456
C16B C 0.3404(4) -0.43229(19) 0.6211(2)
H21B H 0.2478 -0.4528 0.6101
C17B C 0.4033(4) -0.43609(19) 0.70205(19)
H22B H 0.3462 -0.4099 0.7270
H23B H 0.4072 -0.4853 0.7178
C18B C 0.4267(5) -0.4738(2) 0.5812(2)
H24B H 0.4314 -0.5233 0.5959
H25B H 0.3853 -0.4715 0.5297
C19B C 0.9223(3) -0.20883(17) 0.6239(2)
C20B C 1.0311(4) -0.45722(18) 0.7131(2)
C21B C 0.9468(4) -0.28537(17) 0.60880(18)
C22B C 0.9838(4) -0.33311(17) 0.66582(19)
H26B H 1.0007 -0.3168 0.7131
C23B C 0.9956(4) -0.40493(17) 0.65223(19)
C24B C 0.9709(4) -0.42867(18) 0.58181(19)
H27B H 0.9790 -0.4769 0.5727
C25B C 0.9340(4) -0.38087(18) 0.52425(19)
C26B C 0.9211(4) -0.30937(17) 0.53764(19)
H28B H 0.8955 -0.2774 0.4995
C27B C 1.2201(4) -0.11659(18) 0.7262(2)
C28B C 1.7354(4) -0.14572(18) 0.7870(2)
C29B C 1.3514(4) -0.15395(18) 0.7644(2)
C30B C 1.4774(4) -0.13524(18) 0.75355(19)
H29B H 1.4823 -0.1031 0.7174
C31B C 1.5972(4) -0.16474(17) 0.79704(19)
C32B C 1.5902(4) -0.21430(18) 0.8494(2)
H30B H 1.6708 -0.2319 0.8798
C33B C 1.4638(4) -0.23785(19) 0.8567(2)
C34B C 1.3450(4) -0.20596(19) 0.8154(2)
H31B H 1.2599 -0.2195 0.8218
Cu1A Cu 0.5000 -0.5000 1.0000
Cu1A_2 Cu 0.5000 0.5000 0.0000
Cu2A Cu 0.78127(5) -0.41901(2) 1.06941(2)
Cu2C Cu 0.21873(5) 0.41901(2) -0.06941(2)
Cu3_2 Cu -0.94017(4) 0.10230(2) 0.25926(2)
Cu3A Cu -0.05983(4) 0.60230(2) 0.24074(2)
Cu3B_2 Cu 1.94017(4) -0.10230(2) 0.74074(2)
Cu3C Cu 1.05983(4) -0.60230(2) 0.75926(2)
O6A O 0.0437(3) 0.02145(12) 0.19575(13)
O6C O 0.9563(3) -0.02145(12) 0.80425(13)
O10_2 O 0.2583(2) 0.10886(12) 0.26777(13)
O10B_2 O 0.7417(2) -0.10886(12) 0.73223(13)
O11_2 O 0.1584(3) 0.16752(13) 0.16774(13)
O11B_2 O 0.8416(3) -0.16752(13) 0.83226(13)
N3A N 0.7357(3) -0.08099(15) 0.44934(16)
N3C N 0.2643(3) 0.08099(15) 0.55066(16)
N4A N 0.6117(3) -0.05354(15) 0.42015(15)
N4C N 0.3883(3) 0.05354(15) 0.57985(15)
O13 O 0.2150(3) 0.85780(13) 0.38149(15)
H32 H 0.1778 0.8807 0.3432
H33 H 0.1622 0.8236 0.3856
O14 O 0.0684(3) 0.74657(17) 0.40751(18)
H34 H 0.1153 0.7085 0.4176
H35 H -0.0120 0.7357 0.3830
O15 O 0.1912(4) 0.61019(17) 0.41742(16)
H36 H 0.1222 0.5903 0.4271
H37 H 0.1842 0.6056 0.3725
loop_
_geom_bond_atom_site_label_1
_geom_bond_atom_site_label_2
_geom_bond_site_symmetry_1
_geom_bond_site_symmetry_2
Cu1 O1 1_555 1_555
Cu2 O1 1_555 1_555
Cu3 O2 1_555 1_555
O1 H1 1_555 1_555
O2 Cu2 1_555 1_555
H2 O2 1_555 1_555
H3 O2 1_555 1_555
O3 Cu2 1_555 1_555
O4 Cu3 1_555 1_555
O5 C20 1_555 1_555
O6 C20 1_555 1_555
O7 H4 1_555 1_555
O8 Cu3 1_555 1_555
O9 C27 1_555 1_555
O10 C28 1_555 1_555
O11 C28 1_555 1_555
O12 H5 1_555 1_555
N1 Cu1 1_555 1_555
N2 Cu2 1_555 1_555
N3 N4 1_555 1_555
N4 C8 1_555 1_555
C1 N1 1_555 1_555
H6 C1 1_555 1_555
C2 C1 1_555 1_555
H7 C2 1_555 1_555
C3 C2 1_555 1_555
C4 N2 1_555 1_555
H8 C4 1_555 1_555
C5 N3 1_555 1_555
H9 C5 1_555 1_555
C6 C5 1_555 1_555
H10 C6 1_555 1_555
C7 C6 1_555 1_555
C8 C7 1_555 1_555
H11 C8 1_555 1_555
C9 C3 1_555 1_555
C10 C9 1_555 1_555
H12 C10 1_555 1_555
H13 C10 1_555 1_555
C11 C7 1_555 1_555
C12 C11 1_555 1_555
H14 C12 1_555 1_555
H15 C12 1_555 1_555
C13 C12 1_555 1_555
H16 C13 1_555 1_555
C14 C9 1_555 1_555
H17 C14 1_555 1_555
H18 C14 1_555 1_555
C15 C9 1_555 1_555
H19 C15 1_555 1_555
H20 C15 1_555 1_555
C16 C15 1_555 1_555
H21 C16 1_555 1_555
C17 C11 1_555 1_555
H22 C17 1_555 1_555
H23 C17 1_555 1_555
C18 C13 1_555 1_555
H24 C18 1_555 1_555
H25 C18 1_555 1_555
C19 O3 1_555 1_555
C20 C23 1_555 1_555
C21 C19 1_555 1_555
C22 C21 1_555 1_555
H26 C22 1_555 1_555
C23 C22 1_555 1_555
C24 C23 1_555 1_555
H27 C24 1_555 1_555
C25 O7 1_555 1_555
C26 C21 1_555 1_555
H28 C26 1_555 1_555
C27 O8 1_555 1_555
C28 C31 1_555 1_555
C29 C27 1_555 1_555
C30 C29 1_555 1_555
H29 C30 1_555 1_555
C31 C30 1_555 1_555
C32 C31 1_555 1_555
H30 C32 1_555 1_555
C33 O12 1_555 1_555
C34 C29 1_555 1_555
H31 C34 1_555 1_555
O13 H32 1_555 1_555
H33 O13 1_555 1_555
O14 H34 1_555 1_555
H35 O14 1_555 1_555
O15 H36 1_555 1_555
H37 O15 1_555 1_555
Cu2B O1B 1_555 1_555
Cu3B O2B 1_555 1_555
O1B Cu1 1_555 1_555
H1B O1B 1_555 1_555
O2B Cu2B 1_555 1_555
H2B O2B 1_555 1_555
H3B O2B 1_555 1_555
O3B Cu2B 1_555 1_555
O4B Cu3B 1_555 1_555
O5B C20B 1_555 1_555
O6B C20B 1_555 1_555
O7B H4B 1_555 1_555
O8B Cu3B 1_555 1_555
O9B C27B 1_555 1_555
O10B C28B 1_555 1_555
O11B C28B 1_555 1_555
O12B H5B 1_555 1_555
N1B Cu1 1_555 1_555
N2B Cu2B 1_555 1_555
N3B N4B 1_555 1_555
N4B C8B 1_555 1_555
C1B N1B 1_555 1_555
H6B C1B 1_555 1_555
C2B C1B 1_555 1_555
H7B C2B 1_555 1_555
C3B C2B 1_555 1_555
C4B N2B 1_555 1_555
H8B C4B 1_555 1_555
C5B N3B 1_555 1_555
H9B C5B 1_555 1_555
C6B C5B 1_555 1_555
H10B C6B 1_555 1_555
C7B C6B 1_555 1_555
C8B C7B 1_555 1_555
H11B C8B 1_555 1_555
C9B C3B 1_555 1_555
C10B C9B 1_555 1_555
H12B C10B 1_555 1_555
H13B C10B 1_555 1_555
C11B C7B 1_555 1_555
C12B C11B 1_555 1_555
H14B C12B 1_555 1_555
H15B C12B 1_555 1_555
C13B C12B 1_555 1_555
H16B C13B 1_555 1_555
C14B C9B 1_555 1_555
H17B C14B 1_555 1_555
H18B C14B 1_555 1_555
C15B C9B 1_555 1_555
H19B C15B 1_555 1_555
H20B C15B 1_555 1_555
C16B C15B 1_555 1_555
H21B C16B 1_555 1_555
C17B C11B 1_555 1_555
H22B C17B 1_555 1_555
H23B C17B 1_555 1_555
C18B C13B 1_555 1_555
H24B C18B 1_555 1_555
H25B C18B 1_555 1_555
C19B O3B 1_555 1_555
C20B C23B 1_555 1_555
C21B C19B 1_555 1_555
C22B C21B 1_555 1_555
H26B C22B 1_555 1_555
C23B C22B 1_555 1_555
C24B C23B 1_555 1_555
H27B C24B 1_555 1_555
C25B O7B 1_555 1_555
C26B C21B 1_555 1_555
H28B C26B 1_555 1_555
C27B O8B 1_555 1_555
C28B C31B 1_555 1_555
C29B C27B 1_555 1_555
C30B C29B 1_555 1_555
H29B C30B 1_555 1_555
C31B C30B 1_555 1_555
C32B C31B 1_555 1_555
H30B C32B 1_555 1_555
C33B O12B 1_555 1_555
C34B C29B 1_555 1_555
H31B C34B 1_555 1_555
Cu1A N4B 1_555 1_555
Cu1A_2 N4 1_555 1_555
Cu2A N3B 1_555 1_555
Cu2C N3 1_555 1_555
Cu3_2 O10 1_555 1_555
Cu3A O6 1_555 1_555
Cu3B_2 O10B 1_555 1_555
Cu3C O6B 1_555 1_555
O6A Cu3 1_555 1_555
O6C Cu3B 1_555 1_555
O10_2 Cu3 1_555 1_555
O10B_2 Cu3B 1_555 1_555
O11_2 Cu3 1_555 1_555
O11B_2 Cu3B 1_555 1_555
N3A Cu2B 1_555 1_555
N3C Cu2 1_555 1_555
N4A Cu1 1_555 1_555
N4C Cu1 1_555 1_555
O4 C19 1_555 1_555
O11 Cu3_2 1_555 1_555
N1 N2 1_555 1_555
C3 C4 1_555 1_555
C10 C11 1_555 1_555
C13 C14 1_555 1_555
C16 C17 1_555 1_555
C16 C18 1_555 1_555
C24 C25 1_555 1_555
C25 C26 1_555 1_555
C32 C33 1_555 1_555
C33 C34 1_555 1_555
O4B C19B 1_555 1_555
O11B Cu3B_2 1_555 1_555
N1B N2B 1_555 1_555
C3B C4B 1_555 1_555
C10B C11B 1_555 1_555
C13B C14B 1_555 1_555
C16B C17B 1_555 1_555
C16B C18B 1_555 1_555
C24B C25B 1_555 1_555
C25B C26B 1_555 1_555
C32B C33B 1_555 1_555
C33B C34B 1_555 1_555
N3A N4A 1_555 1_555
N3C N4C 1_555 1_555

#END
