
#######################################################################
#
#                 Cambridge Crystallographic Data Centre
#                                CCDC 
#
#######################################################################
#
# If this CIF has been generated from an entry in the Cambridge 
# Structural Database, then it will include bibliographic, chemical, 
# crystal, experimental, refinement or atomic coordinate data resulting 
# from the CCDC's data processing and validation procedures.
#
#######################################################################

data_CODNOA
_symmetry_cell_setting           monoclinic
_symmetry_space_group_name_H-M   'P 21/c'
_symmetry_Int_Tables_number      14
_space_group_name_Hall           '-P 2ybc'
loop_
_symmetry_equiv_pos_site_id
_symmetry_equiv_pos_as_xyz
1 x,y,z
2 -x,1/2+y,1/2-z
3 -x,-y,-z
4 x,1/2-y,1/2+z
_cell_length_a                   8.2839(17)
_cell_length_b                   19.604(4)
_cell_length_c                   19.034(4)
_cell_angle_alpha                90
_cell_angle_beta                 101.23(3)
_cell_angle_gamma                90
_cell_volume                     3031.89
loop_
_atom_site_label
_atom_site_type_symbol
_atom_site_fract_x
_atom_site_fract_y
_atom_site_fract_z
Mn1 Mn 0.32571(4) 0.714623(19) 0.856989(19)
Mn2 Mn 0.67334(4) 0.682887(19) 0.791447(18)
O1 O 0.4332(2) 0.63601(8) 0.79862(9)
O2 O 0.2775(3) 0.58595(11) 0.86350(12)
O3 O 0.4716(3) 0.27246(9) 0.72798(12)
O4 O 0.5916(3) 0.32104(10) 0.64736(11)
O5 O 0.7430(2) 0.69061(11) 0.90550(9)
O6 O 0.5108(2) 0.69851(10) 0.94833(9)
O7 O 0.9043(2) 0.76303(10) 1.29203(9)
O8 O 1.1493(2) 0.76409(12) 1.26169(10)
O9 O 0.1306(3) 0.72472(16) 0.91676(12)
N1 N 0.6162(3) 0.65006(11) 0.67561(11)
N2 N 0.8044(3) 0.58279(11) 0.78603(13)
C1 C 0.4171(3) 0.51557(12) 0.79206(13)
C2 C 0.3659(4) 0.50257(13) 0.72085(14)
H1 H 0.3058 0.5355 0.6916
C3 C 0.4025(4) 0.44022(13) 0.69075(14)
H2 H 0.3637 0.4320 0.6423
C4 C 0.4938(3) 0.39175(12) 0.73176(13)
C5 C 0.6661(3) 0.35902(14) 0.84949(15)
H3 H 0.6977 0.3189 0.8298
C6 C 0.7245(4) 0.37269(17) 0.91950(17)
H4 H 0.7957 0.3420 0.9471
C7 C 0.6788(4) 0.43247(17) 0.95087(16)
H5 H 0.7168 0.4406 0.9994
C8 C 0.5784(4) 0.47898(15) 0.91026(15)
H6 H 0.5509 0.5191 0.9313
C9 C 0.5576(3) 0.40464(12) 0.80528(13)
C10 C 0.5154(3) 0.46698(12) 0.83636(13)
C11 C 0.3720(3) 0.58249(13) 0.82111(14)
C12 C 0.5212(3) 0.32408(13) 0.69924(15)
C13 C 0.7598(3) 0.71499(13) 1.02917(12)
C14 C 0.7305(3) 0.67622(13) 1.08520(13)
H7 H 0.6586 0.6394 1.0765
C15 C 0.8086(3) 0.69173(13) 1.15590(13)
H8 H 0.7851 0.6657 1.1936
C16 C 0.9180(3) 0.74428(13) 1.16999(12)
C17 C 1.0555(3) 0.84449(15) 1.12509(15)
H9 H 1.1154 0.8532 1.1708
C18 C 1.0688(4) 0.88750(17) 1.07043(17)
H10 H 1.1364 0.9256 1.0794
C19 C 0.9824(4) 0.87518(16) 1.00120(16)
H11 H 0.9909 0.9057 0.9647
C20 C 0.8855(3) 0.81877(15) 0.98651(14)
H12 H 0.8300 0.8108 0.9399
C21 C 0.9514(3) 0.78651(13) 1.11304(12)
C22 C 0.8683(3) 0.77198(13) 1.04175(12)
C23 C 0.6638(3) 0.69994(13) 0.95492(13)
C24 C 0.9966(3) 0.75859(13) 1.24689(13)
C25 C 0.5212(4) 0.68283(17) 0.62208(15)
H13 H 0.4717 0.7234 0.6318
C26 C 0.4925(5) 0.6586(2) 0.55125(17)
H14 H 0.4255 0.6828 0.5148
C27 C 0.5636(5) 0.5996(2) 0.53682(19)
H15 H 0.5484 0.5837 0.4899
C28 C 0.7344(6) 0.4978(2) 0.5822(3)
H16 H 0.7224 0.4798 0.5363
C29 C 0.8198(6) 0.4634(2) 0.6368(3)
H17 H 0.8615 0.4207 0.6285
C30 C 0.9439(5) 0.45689(19) 0.7679(3)
H18 H 0.9906 0.4146 0.7624
C31 C 0.9668(4) 0.4863(2) 0.8330(3)
H19 H 1.0293 0.4646 0.8726
C32 C 0.8961(4) 0.54957(16) 0.8403(2)
H20 H 0.9138 0.5696 0.8855
C33 C 0.6600(4) 0.56220(18) 0.59211(18)
C34 C 0.8497(4) 0.48992(16) 0.7082(2)
C35 C 0.6833(3) 0.59022(15) 0.66150(15)
C36 C 0.7825(3) 0.55390(14) 0.72003(17)
H21 H 0.038(3) 0.7309(17) 0.8887(15)
H22 H 0.146(5) 0.6815(17) 0.916(2)
Mn1A Mn 0.67429(4) 0.214623(19) 0.643011(19)
Mn1C Mn 1.32571(4) 0.785377(19) 1.356989(19)
Mn2A Mn 0.32666(4) 0.182887(19) 0.708553(18)
Mn2C Mn 0.67334(4) 0.817113(19) 1.291447(18)
O3A O 0.5284(3) 0.77246(9) 0.77202(12)
O4A O 0.4084(3) 0.82104(10) 0.85264(11)
O7C O 0.9043(2) 0.73697(10) 0.79203(9)
O8C O 0.1493(2) 0.73591(12) 0.76169(10)
loop_
_geom_bond_atom_site_label_1
_geom_bond_atom_site_label_2
_geom_bond_site_symmetry_1
_geom_bond_site_symmetry_2
Mn1 O1 1_555 1_555
Mn2 O1 1_555 1_555
O1 C11 1_555 1_555
O2 C11 1_555 1_555
O3 C12 1_555 1_555
O4 C12 1_555 1_555
O5 Mn2 1_555 1_555
O6 Mn1 1_555 1_555
O7 C24 1_555 1_555
O8 C24 1_555 1_555
O9 Mn1 1_555 1_555
N1 Mn2 1_555 1_555
N2 Mn2 1_555 1_555
C1 C2 1_555 1_555
C2 H1 1_555 1_555
C3 C2 1_555 1_555
H2 C3 1_555 1_555
C4 C3 1_555 1_555
C5 H3 1_555 1_555
C6 C5 1_555 1_555
H4 C6 1_555 1_555
C7 C6 1_555 1_555
H5 C7 1_555 1_555
C8 C7 1_555 1_555
H6 C8 1_555 1_555
C9 C4 1_555 1_555
C10 C1 1_555 1_555
C11 C1 1_555 1_555
C12 C4 1_555 1_555
C13 C14 1_555 1_555
C14 H7 1_555 1_555
C15 C14 1_555 1_555
H8 C15 1_555 1_555
C16 C15 1_555 1_555
C17 H9 1_555 1_555
C18 C17 1_555 1_555
H10 C18 1_555 1_555
C19 C18 1_555 1_555
H11 C19 1_555 1_555
C20 C19 1_555 1_555
H12 C20 1_555 1_555
C21 C16 1_555 1_555
C22 C13 1_555 1_555
C23 O5 1_555 1_555
C24 C16 1_555 1_555
C25 N1 1_555 1_555
H13 C25 1_555 1_555
C26 C25 1_555 1_555
H14 C26 1_555 1_555
C27 C26 1_555 1_555
H15 C27 1_555 1_555
C28 H16 1_555 1_555
C29 C28 1_555 1_555
H17 C29 1_555 1_555
C30 H18 1_555 1_555
C31 C30 1_555 1_555
H19 C31 1_555 1_555
C32 N2 1_555 1_555
H20 C32 1_555 1_555
C33 C27 1_555 1_555
C34 C29 1_555 1_555
C35 N1 1_555 1_555
C36 N2 1_555 1_555
H21 O9 1_555 1_555
H22 O9 1_555 1_555
Mn1A O4 1_555 1_555
Mn1C O8 1_555 1_555
Mn2A O3 1_555 1_555
Mn2C O7 1_555 1_555
O3A Mn2 1_555 1_555
O4A Mn1 1_555 1_555
O7C Mn2 1_555 1_555
O8C Mn1 1_555 1_555
O6 C23 1_555 1_555
C5 C9 1_555 1_555
C8 C10 1_555 1_555
C9 C10 1_555 1_555
C13 C23 1_555 1_555
C17 C21 1_555 1_555
C20 C22 1_555 1_555
C21 C22 1_555 1_555
C28 C33 1_555 1_555
C30 C34 1_555 1_555
C31 C32 1_555 1_555
C33 C35 1_555 1_555
C34 C36 1_555 1_555
C35 C36 1_555 1_555

#END
