
#######################################################################
#
#                 Cambridge Crystallographic Data Centre
#                                CCDC 
#
#######################################################################
#
# If this CIF has been generated from an entry in the Cambridge 
# Structural Database, then it will include bibliographic, chemical, 
# crystal, experimental, refinement or atomic coordinate data resulting 
# from the CCDC's data processing and validation procedures.
#
#######################################################################

data_CODQOD
_symmetry_cell_setting           monoclinic
_symmetry_space_group_name_H-M   'P 21/c'
_symmetry_Int_Tables_number      14
_space_group_name_Hall           '-P 2ybc'
loop_
_symmetry_equiv_pos_site_id
_symmetry_equiv_pos_as_xyz
1 x,y,z
2 -x,1/2+y,1/2-z
3 -x,-y,-z
4 x,1/2-y,1/2+z
_cell_length_a                   12.1598(11)
_cell_length_b                   16.8436(15)
_cell_length_c                   8.9322(8)
_cell_angle_alpha                90
_cell_angle_beta                 109.0400(10)
_cell_angle_gamma                90
_cell_volume                     1729.36
loop_
_atom_site_label
_atom_site_type_symbol
_atom_site_fract_x
_atom_site_fract_y
_atom_site_fract_z
Ce1 Ce 0.951613(12) 0.116472(8) 0.430908(17)
O1 O 0.95234(18) 0.23763(12) 0.5910(3)
O2 O 0.77213(16) 0.22035(11) 0.3387(2)
O3 O 0.81657(18) 0.09153(12) 0.5971(3)
O4 O 0.94050(16) -0.00686(12) 0.6330(2)
O5 O 1.0968(2) 0.21033(15) 0.3767(3)
O6 O 0.81782(16) 0.01226(11) 0.2993(2)
O7 O 0.90015(17) 0.14178(12) 0.1423(2)
O8 O 1.13744(18) 0.11652(11) 0.6610(3)
C1 C 0.8885(2) 0.29830(16) 0.5563(3)
C2 C 0.7927(2) 0.30017(16) 0.3996(3)
C3 C 0.6639(2) 0.20667(16) 0.2232(3)
H1 H 1.0768 0.2342 0.2880
H2 H 1.1523 0.2381 0.4362
C4 C 1.1458(2) -0.02643(17) 0.3431(3)
H3 H 0.7223 0.3216 0.4128
H4 H 0.8148 0.3338 0.3260
C5 C 0.6131(2) 0.25981(17) 0.1035(4)
C6 C 0.6098(2) 0.13581(17) 0.2332(4)
C7 C 1.1966(3) 0.0141(2) 0.2299(4)
C8 C 0.5083(3) 0.24029(17) -0.0113(4)
H5 H 0.6485 0.3083 0.0995
H6 H 0.6435 0.1011 0.3166
C9 C 0.5054(3) 0.11648(16) 0.1191(4)
O9 O 1.30525(19) -0.01754(15) 0.2326(3)
H7 H 1.1419 0.0096 0.1233
H8 H 1.2063 0.0702 0.2561
H9 H 0.4739 0.2758 -0.0930
C10 C 0.4548(2) 0.16831(16) -0.0050(3)
H10 H 0.4691 0.0686 0.1255
C11 C 1.3989(3) -0.00705(19) 0.3690(4)
O10 O 0.35174(16) 0.15265(11) -0.1259(2)
C12 C 1.4023(3) 0.04363(19) 0.4932(4)
C13 C 1.4981(3) -0.05063(19) 0.3786(4)
C14 C 0.3048(2) 0.07569(16) -0.1244(4)
H11 H 1.3368 0.0730 0.4896
H12 H 1.4969 -0.0851 0.2968
H13 H 0.2831 0.0698 -0.0297
H14 H 0.3641 0.0364 -0.1200
C15 C 0.1995(2) 0.05983(16) -0.2681(3)
O4B O 1.05950(16) 0.00686(12) 0.3670(2)
Ce1B Ce 1.048387(12) -0.116472(8) 0.569092(17)
C1C C 0.8885(2) 0.20170(16) 0.0563(3)
O7C O 0.90015(17) 0.35822(12) 0.6423(2)
O3B O 1.18343(18) -0.09153(12) 0.4029(3)
C2C C 0.7927(2) 0.19983(16) -0.1004(3)
O1C O 0.95234(18) 0.26237(12) 0.0910(3)
Ce1C Ce 0.951613(12) 0.383528(8) 0.930908(17)
H4C H 0.8148 0.1662 -0.1740
H3C H 0.7223 0.1784 -0.0872
O2C O 0.77213(16) 0.27965(11) -0.1613(2)
Ce1C_2 Ce 0.951613(12) 0.383528(8) -0.069092(17)
O4C O 0.94050(16) 0.50686(12) 1.1330(2)
O4A O 1.05950(16) 0.49314(12) 0.8670(2)
O6C O 0.81782(16) 0.48774(11) 0.7993(2)
O5C O 1.0968(2) 0.28967(15) 0.8767(3)
O1C_2 O 0.95234(18) 0.26237(12) 1.0910(3)
O3C O 0.81657(18) 0.40847(12) 1.0971(3)
O8C O 1.13744(18) 0.38348(11) 1.1610(3)
O2C_2 O 0.77213(16) 0.27965(11) 0.8387(2)
C3C C 0.6639(2) 0.29333(16) -0.2768(3)
H1C H 1.0768 0.2658 0.7880
H2C H 1.1523 0.2619 0.9362
C5C C 0.6131(2) 0.24019(17) -0.3965(4)
C6C C 0.6098(2) 0.36419(17) -0.2668(4)
C8C C 0.5083(3) 0.25971(17) -0.5113(4)
H5C H 0.6485 0.1917 -0.4005
C9C C 0.5054(3) 0.38352(16) -0.3809(4)
H6C H 0.6435 0.3989 -0.1834
C13B C 1.5019(3) 0.05063(19) 0.6214(4)
C12B C 1.5977(3) -0.04363(19) 0.5068(4)
C10C C 0.4548(2) 0.33169(16) -0.5050(3)
H9C H 0.4739 0.2242 -0.5930
H10C H 0.4691 0.4314 -0.3745
C11B C 1.6011(3) 0.00705(19) 0.6310(4)
H12B H 1.5031 0.0851 0.7032
H11B H 1.6632 -0.0730 0.5104
O8_2 O 0.13744(18) 0.11652(11) -0.3390(3)
O6B O 0.18218(16) -0.01226(11) -0.2993(2)
O10C O 0.35174(16) 0.34735(11) -0.6259(2)
O9B O 1.69475(19) 0.01754(15) 0.7674(3)
Ce1_2 Ce -0.048387(12) 0.116472(8) -0.569092(17)
Ce1B_2 Ce 0.048387(12) -0.116472(8) -0.430908(17)
C14C C 0.3048(2) 0.42431(16) -0.6244(4)
C7B C 1.8034(3) -0.0141(2) 0.7701(4)
C15C C 0.1995(2) 0.44017(16) -0.7681(3)
H13C H 0.2831 0.4302 -0.5297
H14C H 0.3641 0.4636 -0.6200
C4B C 1.8542(2) 0.02643(17) 0.6569(3)
H7B H 1.8581 -0.0096 0.8767
H8B H 1.7937 -0.0702 0.7439
O6A O 0.18218(16) 0.51226(11) -0.7993(2)
O8C_2 O 0.13744(18) 0.38348(11) -0.8390(3)
O4_2 O 1.94050(16) -0.00686(12) 0.6330(2)
O3_2 O 1.81657(18) 0.09153(12) 0.5971(3)
Ce1A Ce 0.048387(12) 0.616472(8) -0.930908(17)
Ce1C_3 Ce -0.048387(12) 0.383528(8) -1.069092(17)
Ce1_3 Ce 1.951613(12) 0.116472(8) 0.430908(17)
Ce1B_3 Ce 2.048387(12) -0.116472(8) 0.569092(17)
O11 O 0.2466(2) 0.28177(17) 0.6423(3)
H15 H 0.2733 0.2364 0.6776
H16 H 0.3058 0.3120 0.6687
loop_
_geom_bond_atom_site_label_1
_geom_bond_atom_site_label_2
_geom_bond_site_symmetry_1
_geom_bond_site_symmetry_2
Ce1 O1 1_555 1_555
O1 C1 1_555 1_555
O2 Ce1 1_555 1_555
O3 Ce1 1_555 1_555
O4 Ce1 1_555 1_555
O5 Ce1 1_555 1_555
O6 Ce1 1_555 1_555
O7 Ce1 1_555 1_555
O8 Ce1 1_555 1_555
C1 C2 1_555 1_555
C2 O2 1_555 1_555
C3 O2 1_555 1_555
H1 O5 1_555 1_555
H2 O5 1_555 1_555
C4 C7 1_555 1_555
H3 C2 1_555 1_555
H4 C2 1_555 1_555
C5 C3 1_555 1_555
C6 C3 1_555 1_555
C7 O9 1_555 1_555
C8 C5 1_555 1_555
H5 C5 1_555 1_555
H6 C6 1_555 1_555
C9 C6 1_555 1_555
O9 C11 1_555 1_555
H7 C7 1_555 1_555
H8 C7 1_555 1_555
H9 C8 1_555 1_555
C10 C8 1_555 1_555
H10 C9 1_555 1_555
C11 C12 1_555 1_555
O10 C10 1_555 1_555
C12 H11 1_555 1_555
C13 C11 1_555 1_555
C14 O10 1_555 1_555
H12 C13 1_555 1_555
H13 C14 1_555 1_555
H14 C14 1_555 1_555
C15 C14 1_555 1_555
O11 H15 1_555 1_555
H16 O11 1_555 1_555
O4B Ce1 1_555 1_555
Ce1B O4 1_555 1_555
C1C O7 1_555 1_555
O7C C1 1_555 1_555
O3B C4 1_555 1_555
C2C C1C 1_555 1_555
O1C C1C 1_555 1_555
Ce1C O7C 1_555 1_555
H4C C2C 1_555 1_555
H3C C2C 1_555 1_555
O2C C2C 1_555 1_555
Ce1C_2 O1C 1_555 1_555
O4C Ce1C 1_555 1_555
O4A Ce1C 1_555 1_555
O6C Ce1C 1_555 1_555
O5C Ce1C 1_555 1_555
O1C_2 Ce1C 1_555 1_555
O3C Ce1C 1_555 1_555
O8C Ce1C 1_555 1_555
O2C_2 Ce1C 1_555 1_555
C3C O2C 1_555 1_555
H1C O5C 1_555 1_555
H2C O5C 1_555 1_555
C5C C3C 1_555 1_555
C6C C3C 1_555 1_555
C8C C5C 1_555 1_555
H5C C5C 1_555 1_555
C9C C6C 1_555 1_555
H6C C6C 1_555 1_555
C13B C12 1_555 1_555
C12B C13 1_555 1_555
C10C C8C 1_555 1_555
H9C C8C 1_555 1_555
H10C C9C 1_555 1_555
C11B C13B 1_555 1_555
H12B C13B 1_555 1_555
H11B C12B 1_555 1_555
O8_2 C15 1_555 1_555
O6B C15 1_555 1_555
O10C C10C 1_555 1_555
O9B C11B 1_555 1_555
Ce1_2 O8_2 1_555 1_555
Ce1B_2 O6B 1_555 1_555
C14C O10C 1_555 1_555
C7B O9B 1_555 1_555
C15C C14C 1_555 1_555
H13C C14C 1_555 1_555
H14C C14C 1_555 1_555
C4B C7B 1_555 1_555
H7B C7B 1_555 1_555
H8B C7B 1_555 1_555
O6A C15C 1_555 1_555
O8C_2 C15C 1_555 1_555
O4_2 C4B 1_555 1_555
O3_2 C4B 1_555 1_555
Ce1A O6A 1_555 1_555
Ce1C_3 O8C_2 1_555 1_555
Ce1_3 O4_2 1_555 1_555
Ce1B_3 O4_2 1_555 1_555
C4 O4B 1_555 1_555
C9 C10 1_555 1_555
O4B Ce1B 1_555 1_555
Ce1B O3B 1_555 1_555
O2C Ce1C_2 1_555 1_555
C9C C10C 1_555 1_555
C12B C11B 1_555 1_555
O3_2 Ce1_3 1_555 1_555

#END
