
#######################################################################
#
#                 Cambridge Crystallographic Data Centre
#                                CCDC 
#
#######################################################################
#
# If this CIF has been generated from an entry in the Cambridge 
# Structural Database, then it will include bibliographic, chemical, 
# crystal, experimental, refinement or atomic coordinate data resulting 
# from the CCDC's data processing and validation procedures.
#
#######################################################################

data_CODQUJ
_symmetry_cell_setting           monoclinic
_symmetry_space_group_name_H-M   'P 21/c'
_symmetry_Int_Tables_number      14
_space_group_name_Hall           '-P 2ybc'
loop_
_symmetry_equiv_pos_site_id
_symmetry_equiv_pos_as_xyz
1 x,y,z
2 -x,1/2+y,1/2-z
3 -x,-y,-z
4 x,1/2-y,1/2+z
_cell_length_a                   12.1121(10)
_cell_length_b                   16.6262(13)
_cell_length_c                   8.9174(7)
_cell_angle_alpha                90
_cell_angle_beta                 109.3610(10)
_cell_angle_gamma                90
_cell_volume                     1694.22
loop_
_atom_site_label
_atom_site_type_symbol
_atom_site_fract_x
_atom_site_fract_y
_atom_site_fract_z
Sm1 Sm 0.452280(10) 0.117247(7) 0.433581(14)
O1 O 0.63283(18) 0.11448(10) 0.6604(2)
O2 O 0.68160(16) -0.01605(11) 0.6985(2)
O3 O 0.84973(16) 0.15142(11) 0.8746(2)
O4 O 1.27388(15) 0.21865(10) 1.3414(2)
O5 O 1.45494(18) 0.23584(12) 1.5945(2)
O6 O 1.39998(17) 0.35696(11) 1.6487(2)
O7 O 0.44233(17) -0.01044(13) 0.6298(2)
O8 O 0.32355(18) 0.09159(12) 0.5986(3)
O9 O 0.19746(19) 0.01890(15) 0.7664(3)
C1 C 0.6963(2) 0.05725(15) 0.7310(3)
C2 C 0.8029(2) 0.07348(16) 0.8755(3)
H1 H 0.7815 0.0673 0.9706
H2 H 0.8626 0.0339 0.8797
C3 C 1.1090(2) 0.13445(16) 1.2372(3)
H3 H 1.1421 0.0998 1.3222
C4 C 1.0031(3) 0.11480(15) 1.1220(4)
H4 H 0.9652 0.0670 1.1292
C5 C 0.9542(2) 0.16716(16) 0.9960(3)
C6 C 1.0089(2) 0.23910(17) 0.9880(3)
H5 H 0.9743 0.2749 0.9057
C7 C 1.1156(2) 0.25833(17) 1.1029(3)
H6 H 1.1531 0.3064 1.0968
C8 C 1.1649(2) 0.20505(15) 1.2256(3)
C9 C 1.2954(2) 0.29960(15) 1.4018(3)
H7 H 1.2246 0.3222 1.4127
H8 H 1.3194 0.3331 1.3290
C10 C 1.3905(2) 0.29692(15) 1.5609(3)
C11 C 0.3585(2) 0.02454(16) 0.6573(3)
C12 C 0.3063(3) -0.0148(2) 0.7700(4)
H9 H 0.2951 -0.0716 0.7443
H10 H 0.3614 -0.0104 0.8772
C13 C 0.0032(3) 0.05148(19) 0.6223(4)
H11 H 0.0050 0.0864 0.7046
C14 C 0.1027(3) 0.00784(19) 0.6304(4)
C15 C 0.0986(3) -0.04385(19) 0.5062(4)
H12 H 0.1646 -0.0734 0.5095
O10 O 0.5933(2) 0.21010(15) 0.3822(3)
H13 H 0.5937 0.2319 0.2961
H14 H 0.6480 0.2336 0.4542
O7B O -0.44233(17) 0.01044(13) 0.3702(2)
O8B O -0.32355(18) -0.09159(12) 0.4014(3)
O9B O -0.19746(19) -0.01890(15) 0.2336(3)
C11B C -0.3585(2) -0.02454(16) 0.3427(3)
C12B C -0.3063(3) 0.0148(2) 0.2300(4)
H9B H -0.2951 0.0716 0.2557
H10B H -0.3614 0.0104 0.1228
C13B C -0.0032(3) -0.05148(19) 0.3777(4)
H11B H -0.0050 -0.0864 0.2954
C14B C -0.1027(3) -0.00784(19) 0.3696(4)
C15B C -0.0986(3) 0.04385(19) 0.4938(4)
H12B H -0.1646 0.0734 0.4905
Sm1B Sm -0.452280(10) -0.117247(7) 0.566419(14)
O1B O -0.63283(18) -0.11448(10) 0.3396(2)
O2B O -0.68160(16) 0.01605(11) 0.3015(2)
O3B O -0.84973(16) -0.15142(11) 0.1254(2)
O4B O -1.27388(15) -0.21865(10) -0.3414(2)
O5B O -1.45494(18) -0.23584(12) -0.5945(2)
O6B O -1.39998(17) -0.35696(11) -0.6487(2)
C1B C -0.6963(2) -0.05725(15) 0.2690(3)
C2B C -0.8029(2) -0.07348(16) 0.1245(3)
H1B H -0.7815 -0.0673 0.0294
H2B H -0.8626 -0.0339 0.1203
C3B C -1.1090(2) -0.13445(16) -0.2372(3)
H3B H -1.1421 -0.0998 -0.3222
C4B C -1.0031(3) -0.11480(15) -0.1220(4)
H4B H -0.9652 -0.0670 -0.1292
C5B C -0.9542(2) -0.16716(16) 0.0040(3)
C6B C -1.0089(2) -0.23910(17) 0.0120(3)
H5B H -0.9743 -0.2749 0.0943
C7B C -1.1156(2) -0.25833(17) -0.1029(3)
H6B H -1.1531 -0.3064 -0.0968
C8B C -1.1649(2) -0.20505(15) -0.2256(3)
C9B C -1.2954(2) -0.29960(15) -0.4018(3)
H7B H -1.2246 -0.3222 -0.4127
H8B H -1.3194 -0.3331 -0.3290
C10B C -1.3905(2) -0.29692(15) -0.5609(3)
O10B O -0.5933(2) -0.21010(15) 0.6178(3)
H13B H -0.5937 -0.2319 0.7039
H14B H -0.6480 -0.2336 0.5458
Sm1_2 Sm -0.547720(10) 0.117247(7) 0.433581(14)
Sm1_3 Sm 1.452280(10) 0.117247(7) 1.433581(14)
Sm1A Sm -1.452280(10) -0.382753(7) -0.933581(14)
Sm1B_2 Sm -1.452280(10) -0.117247(7) -0.433581(14)
Sm1B_3 Sm 0.547720(10) -0.117247(7) 0.566419(14)
Sm1C Sm 1.452280(10) 0.382753(7) 1.933581(14)
O2_2 O -0.31840(16) -0.01605(11) 0.6985(2)
O2B_2 O 0.31840(16) 0.01605(11) 0.3015(2)
O4_2 O 0.27388(15) 0.21865(10) 0.3414(2)
O4B_2 O -0.27388(15) -0.21865(10) 0.6586(2)
O5_2 O 0.45494(18) 0.23584(12) 0.5945(2)
O5B_2 O -0.45494(18) -0.23584(12) 0.4055(2)
O6A O -0.39998(17) -0.14304(11) 0.8513(2)
O6C O 0.39998(17) 0.14304(11) 0.1487(2)
O7_2 O -0.55767(17) -0.01044(13) 0.6298(2)
O7B_2 O 0.55767(17) 0.01044(13) 0.3702(2)
O11 O 0.7455(2) 0.21709(16) 0.1484(3)
H15 H 0.7872 0.2160 0.0883
H16 H 0.7666 0.2597 0.2030
loop_
_geom_bond_atom_site_label_1
_geom_bond_atom_site_label_2
_geom_bond_site_symmetry_1
_geom_bond_site_symmetry_2
Sm1 O1 1_555 1_555
O1 C1 1_555 1_555
O2 C1 1_555 1_555
O3 C2 1_555 1_555
O4 C8 1_555 1_555
O5 C10 1_555 1_555
O6 C10 1_555 1_555
O7 Sm1 1_555 1_555
O8 Sm1 1_555 1_555
O9 C12 1_555 1_555
C1 C2 1_555 1_555
C2 H1 1_555 1_555
H2 C2 1_555 1_555
C3 H3 1_555 1_555
C4 C3 1_555 1_555
H4 C4 1_555 1_555
C5 O3 1_555 1_555
C6 C5 1_555 1_555
H5 C6 1_555 1_555
C7 C6 1_555 1_555
H6 C7 1_555 1_555
C8 C3 1_555 1_555
C9 O4 1_555 1_555
H7 C9 1_555 1_555
H8 C9 1_555 1_555
C10 C9 1_555 1_555
C11 O7 1_555 1_555
C12 C11 1_555 1_555
H9 C12 1_555 1_555
H10 C12 1_555 1_555
C13 H11 1_555 1_555
C14 O9 1_555 1_555
C15 C14 1_555 1_555
H12 C15 1_555 1_555
O10 Sm1 1_555 1_555
H13 O10 1_555 1_555
H14 O10 1_555 1_555
O11 H15 1_555 1_555
H16 O11 1_555 1_555
O7B C11B 1_555 1_555
O8B C11B 1_555 1_555
O9B C12B 1_555 1_555
C11B C12B 1_555 1_555
C12B H9B 1_555 1_555
H10B C12B 1_555 1_555
C13B C15 1_555 1_555
H11B C13B 1_555 1_555
C14B O9B 1_555 1_555
C15B C13 1_555 1_555
H12B C15B 1_555 1_555
Sm1B O7B 1_555 1_555
O1B Sm1B 1_555 1_555
O2B C1B 1_555 1_555
O3B C2B 1_555 1_555
O4B C8B 1_555 1_555
O5B C10B 1_555 1_555
O6B C10B 1_555 1_555
C1B O1B 1_555 1_555
C2B C1B 1_555 1_555
H1B C2B 1_555 1_555
H2B C2B 1_555 1_555
C3B H3B 1_555 1_555
C4B C3B 1_555 1_555
H4B C4B 1_555 1_555
C5B O3B 1_555 1_555
C6B C5B 1_555 1_555
H5B C6B 1_555 1_555
C7B C6B 1_555 1_555
H6B C7B 1_555 1_555
C8B C3B 1_555 1_555
C9B O4B 1_555 1_555
H7B C9B 1_555 1_555
H8B C9B 1_555 1_555
C10B C9B 1_555 1_555
O10B Sm1B 1_555 1_555
H13B O10B 1_555 1_555
H14B O10B 1_555 1_555
Sm1_2 O7B 1_555 1_555
Sm1_3 O4 1_555 1_555
Sm1A O6B 1_555 1_555
Sm1B_2 O4B 1_555 1_555
Sm1B_3 O2 1_555 1_555
Sm1C O6 1_555 1_555
O2_2 Sm1B 1_555 1_555
O2B_2 Sm1 1_555 1_555
O4_2 Sm1 1_555 1_555
O4B_2 Sm1B 1_555 1_555
O5_2 Sm1 1_555 1_555
O5B_2 Sm1B 1_555 1_555
O6A Sm1B 1_555 1_555
O6C Sm1 1_555 1_555
O7_2 Sm1B 1_555 1_555
O7B_2 Sm1 1_555 1_555
O5 Sm1_3 1_555 1_555
O7 Sm1B_3 1_555 1_555
O8 C11 1_555 1_555
C4 C5 1_555 1_555
C7 C8 1_555 1_555
C13 C14 1_555 1_555
O8B Sm1B 1_555 1_555
C13B C14B 1_555 1_555
C14B C15B 1_555 1_555
O2B Sm1_2 1_555 1_555
O5B Sm1B_2 1_555 1_555
C4B C5B 1_555 1_555
C7B C8B 1_555 1_555
Sm1_2 O7_2 1_555 1_555
Sm1B_3 O7B_2 1_555 1_555

#END
