
#######################################################################
#
#                 Cambridge Crystallographic Data Centre
#                                CCDC 
#
#######################################################################
#
# If this CIF has been generated from an entry in the Cambridge 
# Structural Database, then it will include bibliographic, chemical, 
# crystal, experimental, refinement or atomic coordinate data resulting 
# from the CCDC's data processing and validation procedures.
#
#######################################################################

data_CODSIZ
_symmetry_cell_setting           monoclinic
_symmetry_space_group_name_H-M   'P 21/c'
_symmetry_Int_Tables_number      14
_space_group_name_Hall           '-P 2ybc'
loop_
_symmetry_equiv_pos_site_id
_symmetry_equiv_pos_as_xyz
1 x,y,z
2 -x,1/2+y,1/2-z
3 -x,-y,-z
4 x,1/2-y,1/2+z
_cell_length_a                   12.761(3)
_cell_length_b                   14.961(3)
_cell_length_c                   17.532(6)
_cell_angle_alpha                90
_cell_angle_beta                 132.259(19)
_cell_angle_gamma                90
_cell_volume                     2477.28
loop_
_atom_site_label
_atom_site_type_symbol
_atom_site_fract_x
_atom_site_fract_y
_atom_site_fract_z
Cd1 Cd 1.05458(2) -0.056066(14) 0.277556(17)
O1 O 0.8236(3) -0.0814(2) 0.12825(19)
O2 O 0.8876(2) -0.15183(16) 0.26437(17)
O3 O 0.2643(3) -0.40025(19) -0.0676(2)
O4 O 0.1670(3) -0.29756(18) -0.1875(2)
N1 N 1.0418(3) 0.05609(16) 0.3601(2)
N2 N 1.1207(3) 0.12593(18) 0.5025(2)
N3 N 1.1224(3) 0.40492(19) 0.5963(2)
N4 N 1.1157(3) 0.49796(18) 0.6915(2)
C1 C 0.8907(4) 0.1244(3) 0.4652(3)
H1 H 0.9247 0.1509 0.5262
C2 C 0.7509(4) 0.0984(3) 0.3894(3)
H2 H 0.6893 0.1069 0.3999
C3 C 0.6995(4) 0.0596(2) 0.2969(4)
H3 H 0.6040 0.0449 0.2468
C4 C 0.7862(4) 0.0427(2) 0.2787(3)
H4 H 0.7518 0.0162 0.2176
C5 C 0.9290(4) 0.0669(2) 0.3555(3)
C6 C 0.9774(4) 0.1087(2) 0.4451(3)
C7 C 1.1534(4) 0.0924(2) 0.4486(3)
C8 C 1.2974(4) 0.0975(3) 0.4868(3)
H5 H 1.2964 0.0753 0.4349
H6 H 1.3607 0.0620 0.5481
H7 H 1.3288 0.1585 0.5022
C9 C 1.2173(4) 0.1718(2) 0.6018(3)
H8 H 1.3092 0.1429 0.6444
H9 H 1.1820 0.1656 0.6362
C10 C 1.2353(4) 0.2706(2) 0.5927(3)
H10 H 1.2680 0.2766 0.5565
H11 H 1.3083 0.2948 0.6614
C11 C 1.0715(4) 0.4204(2) 0.6426(3)
C12 C 0.9777(4) 0.3576(3) 0.6387(3)
H12 H 0.9460 0.3852 0.6695
H13 H 1.0292 0.3040 0.6758
H14 H 0.8974 0.3429 0.5682
C13 C 1.2008(4) 0.5364(2) 0.6764(3)
C14 C 1.2044(4) 0.4777(2) 0.6157(2)
C15 C 1.2776(4) 0.4977(3) 0.5847(3)
H15 H 1.2795 0.4584 0.5446
C16 C 1.3468(5) 0.5782(3) 0.6164(3)
H16 H 1.3968 0.5938 0.5971
C17 C 1.3444(5) 0.6372(3) 0.6765(3)
H17 H 1.3932 0.6910 0.6970
C18 C 1.2705(4) 0.6171(2) 0.7065(3)
H18 H 1.2681 0.6570 0.7460
C19 C 1.1006(4) 0.3263(3) 0.5366(3)
H19 H 1.0681 0.3460 0.4710
H20 H 1.0271 0.2890 0.5227
C20 C 0.2661(3) -0.3252(2) -0.0992(3)
C21 C 0.7998(3) -0.1360(2) 0.1706(2)
C22 C 0.5103(4) -0.2998(2) 0.0749(3)
H21 H 0.4987 -0.3506 0.0991
C23 C 0.4003(3) -0.2707(2) -0.0254(3)
C24 C 0.6358(3) -0.2538(2) 0.1382(2)
H22 H 0.7078 -0.2726 0.2058
C25 C 0.6567(3) -0.1795(2) 0.1024(2)
C26 C 0.5470(4) -0.1501(3) 0.0034(3)
H23 H 0.5591 -0.0997 -0.0210
C27 C 0.4179(4) -0.1954(2) -0.0607(3)
H24 H 0.3440 -0.1747 -0.1272
Cd1C Cd 0.05458(2) -0.443934(14) -0.222444(17)
Cd1C_2 Cd 1.05458(2) 0.556066(14) 0.777556(17)
O3C O 1.2643(3) -0.09975(19) 0.4324(2)
O4C O 1.1670(3) -0.20244(18) 0.3125(2)
N4C N 1.1157(3) 0.00204(18) 0.1915(2)
loop_
_geom_bond_atom_site_label_1
_geom_bond_atom_site_label_2
_geom_bond_site_symmetry_1
_geom_bond_site_symmetry_2
Cd1 O1 1_555 1_555
O1 C21 1_555 1_555
O2 Cd1 1_555 1_555
O3 C20 1_555 1_555
O4 C20 1_555 1_555
N1 Cd1 1_555 1_555
N2 C6 1_555 1_555
N3 C11 1_555 1_555
N4 C11 1_555 1_555
C1 H1 1_555 1_555
C2 C1 1_555 1_555
H2 C2 1_555 1_555
C3 C2 1_555 1_555
H3 C3 1_555 1_555
C4 C3 1_555 1_555
H4 C4 1_555 1_555
C5 N1 1_555 1_555
C6 C1 1_555 1_555
C7 N1 1_555 1_555
C8 C7 1_555 1_555
H5 C8 1_555 1_555
H6 C8 1_555 1_555
H7 C8 1_555 1_555
C9 N2 1_555 1_555
H8 C9 1_555 1_555
H9 C9 1_555 1_555
C10 C9 1_555 1_555
H10 C10 1_555 1_555
H11 C10 1_555 1_555
C11 C12 1_555 1_555
C12 H12 1_555 1_555
H13 C12 1_555 1_555
H14 C12 1_555 1_555
C13 N4 1_555 1_555
C14 N3 1_555 1_555
C15 C14 1_555 1_555
H15 C15 1_555 1_555
C16 C15 1_555 1_555
H16 C16 1_555 1_555
C17 C16 1_555 1_555
H17 C17 1_555 1_555
C18 C13 1_555 1_555
H18 C18 1_555 1_555
C19 N3 1_555 1_555
H19 C19 1_555 1_555
H20 C19 1_555 1_555
C20 C23 1_555 1_555
C21 O2 1_555 1_555
C22 H21 1_555 1_555
C23 C22 1_555 1_555
C24 C22 1_555 1_555
H22 C24 1_555 1_555
C25 C21 1_555 1_555
C26 C25 1_555 1_555
H23 C26 1_555 1_555
C27 C23 1_555 1_555
H24 C27 1_555 1_555
Cd1C O3 1_555 1_555
Cd1C_2 N4 1_555 1_555
O3C Cd1 1_555 1_555
O4C Cd1 1_555 1_555
N4C Cd1 1_555 1_555
O4 Cd1C 1_555 1_555
N2 C7 1_555 1_555
C4 C5 1_555 1_555
C5 C6 1_555 1_555
C10 C19 1_555 1_555
C13 C14 1_555 1_555
C17 C18 1_555 1_555
C24 C25 1_555 1_555
C26 C27 1_555 1_555

#END
