
#######################################################################
#
#                 Cambridge Crystallographic Data Centre
#                                CCDC 
#
#######################################################################
#
# If this CIF has been generated from an entry in the Cambridge 
# Structural Database, then it will include bibliographic, chemical, 
# crystal, experimental, refinement or atomic coordinate data resulting 
# from the CCDC's data processing and validation procedures.
#
#######################################################################

data_CODTAS
_symmetry_cell_setting           monoclinic
_symmetry_space_group_name_H-M   'P 21/c'
_symmetry_Int_Tables_number      14
_space_group_name_Hall           '-P 2ybc'
loop_
_symmetry_equiv_pos_site_id
_symmetry_equiv_pos_as_xyz
1 x,y,z
2 -x,1/2+y,1/2-z
3 -x,-y,-z
4 x,1/2-y,1/2+z
_cell_length_a                   11.650(2)
_cell_length_b                   15.490(3)
_cell_length_c                   17.108(6)
_cell_angle_alpha                90
_cell_angle_beta                 115.37(2)
_cell_angle_gamma                90
_cell_volume                     2789.55
loop_
_atom_site_label
_atom_site_type_symbol
_atom_site_fract_x
_atom_site_fract_y
_atom_site_fract_z
Zn1 Zn 0.60331(8) 1.03847(6) 0.28258(5)
Zn2 Zn 0.37598(8) 0.99720(5) 0.09391(5)
O1 O 0.4659(5) 0.9608(3) 0.2139(3)
O2 O 0.3531(5) 0.8963(3) 0.0191(3)
O3 O 0.5154(6) 0.8278(4) 0.1249(4)
O4 O 0.3096(7) 0.6936(5) 0.1063(4)
O5 O 0.4540(6) 0.5883(4) 0.1361(4)
O6 O 0.5329(5) 0.9066(4) -0.0658(4)
O7 O 0.3799(7) 0.8819(4) -0.1990(4)
N1 N 0.7777(7) 0.9863(4) 0.3411(5)
N2 N 0.9363(6) 0.8957(4) 0.4093(4)
N3 N 0.9608(5) 0.6227(4) 0.4386(4)
N4 N 0.7925(6) 0.5555(4) 0.4395(4)
C1 C 0.7850(9) 0.5842(6) 0.2931(6)
H1 H 0.6973 0.5682 0.2728
H2 H 0.8277 0.5430 0.2730
H3 H 0.7907 0.6405 0.2714
C2 C 0.8456(7) 0.5858(5) 0.3889(5)
C3 C 0.8784(8) 0.5739(4) 0.5253(5)
C4 C 0.8680(9) 0.5558(6) 0.6018(6)
H4 H 0.7972 0.5284 0.6021
C5 C 0.9720(11) 0.5819(6) 0.6791(7)
H5 H 0.9712 0.5699 0.7321
C6 C 1.0761(10) 0.6254(6) 0.6771(6)
H6 H 1.1414 0.6430 0.7292
C7 C 1.0859(9) 0.6433(6) 0.6006(5)
H7 H 1.1554 0.6720 0.5997
C8 C 0.9848(7) 0.6154(5) 0.5258(6)
C9 C 1.0478(8) 0.6640(6) 0.4071(6)
H8 H 1.0490 0.6300 0.3598
H9 H 1.1331 0.6640 0.4534
C10 C 1.0035(7) 0.8145(5) 0.4477(5)
H10 H 0.9590 0.7843 0.4762
H11 H 1.0888 0.8274 0.4906
C11 C 1.0100(7) 0.7567(5) 0.3761(6)
H12 H 0.9277 0.7564 0.3265
H13 H 1.0713 0.7807 0.3576
C12 C 0.7137(8) 0.8395(6) 0.3715(7)
H14 H 0.6434 0.8662 0.3774
H15 H 0.7541 0.7991 0.4178
H16 H 0.6834 0.8097 0.3171
C13 C 0.8091(7) 0.9086(5) 0.3750(6)
C14 C 0.9927(8) 0.9700(5) 0.4015(5)
C15 C 1.1171(8) 0.9927(6) 0.4226(6)
H17 H 1.1830 0.9538 0.4504
C16 C 1.1414(9) 1.0756(7) 0.4011(7)
H18 H 1.2244 1.0923 0.4145
C17 C 1.0415(9) 1.1337(6) 0.3594(7)
H19 H 1.0593 1.1893 0.3471
C18 C 0.9170(8) 1.1097(6) 0.3362(6)
H20 H 0.8511 1.1482 0.3071
C19 C 0.8911(7) 1.0276(5) 0.3567(5)
C20 C 0.4309(6) 0.8333(4) 0.0488(4)
C21 C 0.4182(6) 0.7608(4) -0.0120(4)
C22 C 0.4092(6) 0.6759(5) 0.0128(5)
C23 C 0.3894(8) 0.6533(5) 0.0924(5)
C24 C 0.4062(7) 0.6063(5) -0.0423(6)
H21 H 0.4062 0.5498 -0.0240
C25 C 0.4032(8) 0.6217(5) -0.1239(6)
H22 H 0.3988 0.5761 -0.1605
C26 C 0.4071(7) 0.7071(5) -0.1490(6)
H23 H 0.4000 0.7186 -0.2042
C27 C 0.4214(6) 0.7753(5) -0.0923(4)
C28 C 0.4442(7) 0.8624(5) -0.1216(5)
Zn1A Zn 0.39669(8) 0.53847(6) 0.21742(5)
Zn1B Zn 0.39669(8) 0.96153(6) -0.28258(5)
Zn2A Zn 0.62402(8) 0.49720(5) 0.40609(5)
Zn2B Zn 0.62402(8) 1.00280(5) -0.09391(5)
O5A O 0.5460(6) 1.0883(4) 0.3639(4)
O6B O 0.4671(5) 1.0934(4) 0.0658(4)
O7B O 0.6201(7) 1.1181(4) 0.1990(4)
N4A N 0.2075(6) 1.0555(4) 0.0605(4)
O8 O 0.7484(9) 0.7343(8) 0.6661(8)
loop_
_geom_bond_atom_site_label_1
_geom_bond_atom_site_label_2
_geom_bond_site_symmetry_1
_geom_bond_site_symmetry_2
Zn1 O1 1_555 1_555
Zn2 O1 1_555 1_555
O2 Zn2 1_555 1_555
O3 C20 1_555 1_555
O4 C23 1_555 1_555
O5 C23 1_555 1_555
O6 C28 1_555 1_555
O7 C28 1_555 1_555
N1 Zn1 1_555 1_555
N2 C10 1_555 1_555
N3 C2 1_555 1_555
N4 C2 1_555 1_555
C1 H1 1_555 1_555
H2 C1 1_555 1_555
H3 C1 1_555 1_555
C2 C1 1_555 1_555
C3 N4 1_555 1_555
C4 C3 1_555 1_555
H4 C4 1_555 1_555
C5 C4 1_555 1_555
H5 C5 1_555 1_555
C6 C5 1_555 1_555
H6 C6 1_555 1_555
C7 C6 1_555 1_555
H7 C7 1_555 1_555
C8 N3 1_555 1_555
C9 N3 1_555 1_555
H8 C9 1_555 1_555
H9 C9 1_555 1_555
C10 H10 1_555 1_555
H11 C10 1_555 1_555
C11 C9 1_555 1_555
H12 C11 1_555 1_555
H13 C11 1_555 1_555
C12 H14 1_555 1_555
H15 C12 1_555 1_555
H16 C12 1_555 1_555
C13 N1 1_555 1_555
C14 N2 1_555 1_555
C15 C14 1_555 1_555
H17 C15 1_555 1_555
C16 C15 1_555 1_555
H18 C16 1_555 1_555
C17 C16 1_555 1_555
H19 C17 1_555 1_555
C18 C17 1_555 1_555
H20 C18 1_555 1_555
C19 N1 1_555 1_555
C20 O2 1_555 1_555
C21 C20 1_555 1_555
C22 C21 1_555 1_555
C23 C22 1_555 1_555
C24 C22 1_555 1_555
H21 C24 1_555 1_555
C25 C24 1_555 1_555
H22 C25 1_555 1_555
C26 C25 1_555 1_555
H23 C26 1_555 1_555
C27 C21 1_555 1_555
C28 C27 1_555 1_555
Zn1A O5 1_555 1_555
Zn1B O7 1_555 1_555
Zn2A N4 1_555 1_555
Zn2B O6 1_555 1_555
O5A Zn1 1_555 1_555
O6B Zn2 1_555 1_555
O7B Zn1 1_555 1_555
N4A Zn2 1_555 1_555
N2 C13 1_555 1_555
C3 C8 1_555 1_555
C7 C8 1_555 1_555
C10 C11 1_555 1_555
C12 C13 1_555 1_555
C14 C19 1_555 1_555
C18 C19 1_555 1_555
C26 C27 1_555 1_555

#END
