
#######################################################################
#
#                 Cambridge Crystallographic Data Centre
#                                CCDC 
#
#######################################################################
#
# If this CIF has been generated from an entry in the Cambridge 
# Structural Database, then it will include bibliographic, chemical, 
# crystal, experimental, refinement or atomic coordinate data resulting 
# from the CCDC's data processing and validation procedures.
#
#######################################################################

data_CODVEY
_symmetry_cell_setting           monoclinic
_symmetry_space_group_name_H-M   'P 21/n'
_symmetry_Int_Tables_number      14
_space_group_name_Hall           '-P 2yn'
loop_
_symmetry_equiv_pos_site_id
_symmetry_equiv_pos_as_xyz
1 x,y,z
2 1/2-x,1/2+y,1/2-z
3 -x,-y,-z
4 1/2+x,1/2-y,1/2+z
_cell_length_a                   11.843(3)
_cell_length_b                   17.539(4)
_cell_length_c                   13.663(3)
_cell_angle_alpha                90
_cell_angle_beta                 91.117(3)
_cell_angle_gamma                90
_cell_volume                     2837.46
loop_
_atom_site_label
_atom_site_type_symbol
_atom_site_fract_x
_atom_site_fract_y
_atom_site_fract_z
Zn1 Zn 0.76232(6) 0.34699(4) 0.67595(5)
Zn2 Zn 0.76455(6) 0.34351(4) 0.91442(5)
N1 N 0.5908(5) 0.3954(3) 0.9169(4)
N2 N 0.5820(5) 0.3980(3) 0.6590(4)
N3 N 0.7880(5) 0.4604(3) 0.6360(4)
N4 N 0.7935(5) 0.4607(3) 0.8969(4)
O1 O 0.4284(4) 0.1620(3) 0.2236(3)
O2 O 0.7155(4) 0.2901(3) 0.7924(3)
O3 O 0.4307(4) 0.1796(3) 0.3864(3)
O4 O 0.7386(4) 0.2814(3) 0.0329(3)
O5 O 0.7466(4) 0.2877(3) 0.5555(3)
O6 O 0.8982(5) 0.3298(4) 0.4788(4)
O7 O 0.8290(5) 0.3737(3) 0.1118(4)
C1 C 0.5864(6) 0.4719(4) 0.6336(5)
C2 C 0.5931(6) 0.4693(4) 0.8893(5)
C3 C 0.7010(6) 0.5047(4) 0.8797(5)
C4 C 0.6956(6) 0.5051(4) 0.6200(5)
C5 C 0.4943(6) 0.5123(4) 0.8721(5)
C6 C 0.4882(6) 0.5169(4) 0.6186(6)
C7 C 0.4736(5) 0.1830(4) 0.3039(5)
C8 C 0.5061(7) 0.5910(4) 0.8423(6)
H1 H 0.4401 0.6201 0.8280
C9 C 0.4816(6) 0.3663(4) 0.6698(5)
H2 H 0.4784 0.3138 0.6864
C10 C 0.3798(7) 0.4060(5) 0.6581(6)
H3 H 0.3096 0.3813 0.6679
C11 C 0.5012(7) 0.5949(4) 0.5885(6)
H4 H 0.4357 0.6253 0.5778
C12 C 0.4898(6) 0.3625(4) 0.9293(6)
H5 H 0.4877 0.3106 0.9487
C13 C 0.3888(6) 0.4008(5) 0.9150(6)
H6 H 0.3192 0.3753 0.9249
C14 C 0.3901(6) 0.4753(5) 0.8868(6)
H7 H 0.3212 0.5022 0.8770
C15 C 0.8888(6) 0.4895(4) 0.6207(6)
H8 H 0.9530 0.4580 0.6320
C16 C 0.6027(8) 0.6258(4) 0.5753(6)
H9 H 0.6079 0.6776 0.5559
C17 C 0.3839(7) 0.4815(5) 0.6323(6)
H10 H 0.3159 0.5096 0.6237
C18 C 0.8944(6) 0.4940(4) 0.8947(6)
H11 H 0.9595 0.4636 0.9074
C19 C 0.6064(7) 0.6239(4) 0.8343(6)
H12 H 0.6104 0.6758 0.8148
C20 C 0.9060(7) 0.5649(5) 0.5885(6)
H13 H 0.9800 0.5838 0.5779
C21 C 0.7044(7) 0.5820(4) 0.5897(5)
C22 C 0.7084(7) 0.5829(4) 0.8542(5)
C23 C 0.8130(8) 0.6104(5) 0.5727(6)
H14 H 0.8222 0.6612 0.5502
C24 C 0.8158(7) 0.6152(4) 0.8521(7)
H15 H 0.8243 0.6674 0.8353
C25 C 0.9094(7) 0.5719(5) 0.8743(7)
H16 H 0.9826 0.5940 0.8760
C26 C 0.5898(5) 0.2175(3) 0.2985(5)
C27 C 0.6470(5) 0.2360(3) 0.3858(5)
H17 H 0.6164 0.2208 0.4466
C28 C 0.6348(5) 0.2379(3) 0.2093(4)
H18 H 0.5983 0.2230 0.1498
C29 C 0.8043(6) 0.3004(4) 0.4791(5)
C30 C 0.7739(5) 0.3141(4) 0.1110(5)
C31 C 0.7352(5) 0.2809(4) 0.2075(5)
C32 C 0.7899(5) 0.2996(4) 0.2935(5)
H19 H 0.8574 0.3288 0.2918
C33 C 0.7475(5) 0.2761(4) 0.3847(5)
Zn1C Zn 0.26232(6) 0.15301(4) 0.17595(5)
Zn2_2 Zn 0.76455(6) 0.34351(4) -0.08558(5)
Zn2C Zn 0.26455(6) 0.15649(4) 0.41442(5)
O1C O 0.9284(4) 0.3380(3) 0.7236(3)
O3C O 0.9307(4) 0.3204(3) 0.8864(3)
O4_2 O 0.7386(4) 0.2814(3) 1.0329(3)
O8 O 0.145(2) 0.5009(18) 0.753(3)
loop_
_geom_bond_atom_site_label_1
_geom_bond_atom_site_label_2
_geom_bond_site_symmetry_1
_geom_bond_site_symmetry_2
Zn1 N2 1_555 1_555
Zn2 N1 1_555 1_555
N1 C2 1_555 1_555
N2 C1 1_555 1_555
N3 Zn1 1_555 1_555
N4 Zn2 1_555 1_555
O1 C7 1_555 1_555
O2 Zn1 1_555 1_555
O3 C7 1_555 1_555
O4 C30 1_555 1_555
O5 Zn1 1_555 1_555
O6 C29 1_555 1_555
O7 C30 1_555 1_555
C1 C4 1_555 1_555
C2 C3 1_555 1_555
C3 N4 1_555 1_555
C4 N3 1_555 1_555
C5 C2 1_555 1_555
C6 C1 1_555 1_555
C7 C26 1_555 1_555
C8 C5 1_555 1_555
H1 C8 1_555 1_555
C9 N2 1_555 1_555
H2 C9 1_555 1_555
C10 C9 1_555 1_555
H3 C10 1_555 1_555
C11 C6 1_555 1_555
H4 C11 1_555 1_555
C12 N1 1_555 1_555
H5 C12 1_555 1_555
C13 C12 1_555 1_555
H6 C13 1_555 1_555
C14 C5 1_555 1_555
H7 C14 1_555 1_555
C15 N3 1_555 1_555
H8 C15 1_555 1_555
C16 C11 1_555 1_555
H9 C16 1_555 1_555
C17 C6 1_555 1_555
H10 C17 1_555 1_555
C18 N4 1_555 1_555
H11 C18 1_555 1_555
C19 C8 1_555 1_555
H12 C19 1_555 1_555
C20 C15 1_555 1_555
H13 C20 1_555 1_555
C21 C4 1_555 1_555
C22 C3 1_555 1_555
C23 C20 1_555 1_555
H14 C23 1_555 1_555
C24 C22 1_555 1_555
H15 C24 1_555 1_555
C25 C18 1_555 1_555
H16 C25 1_555 1_555
C26 C27 1_555 1_555
C27 H17 1_555 1_555
C28 C26 1_555 1_555
H18 C28 1_555 1_555
C29 O5 1_555 1_555
C30 C31 1_555 1_555
C31 C28 1_555 1_555
C32 C31 1_555 1_555
H19 C32 1_555 1_555
C33 C27 1_555 1_555
Zn1C O1 1_555 1_555
Zn2_2 O4 1_555 1_555
Zn2C O3 1_555 1_555
O1C Zn1 1_555 1_555
O3C Zn2 1_555 1_555
O4_2 Zn2 1_555 1_555
Zn2 O2 1_555 1_555
C10 C17 1_555 1_555
C13 C14 1_555 1_555
C16 C21 1_555 1_555
C19 C22 1_555 1_555
C21 C23 1_555 1_555
C24 C25 1_555 1_555
C29 C33 1_555 1_555
C32 C33 1_555 1_555

#END
