
#######################################################################
#
#                 Cambridge Crystallographic Data Centre
#                                CCDC 
#
#######################################################################
#
# If this CIF has been generated from an entry in the Cambridge 
# Structural Database, then it will include bibliographic, chemical, 
# crystal, experimental, refinement or atomic coordinate data resulting 
# from the CCDC's data processing and validation procedures.
#
#######################################################################

data_CODYIF01
_symmetry_cell_setting           triclinic
_symmetry_space_group_name_H-M   'P -1'
_symmetry_Int_Tables_number      2
_space_group_name_Hall           '-P 1'
loop_
_symmetry_equiv_pos_site_id
_symmetry_equiv_pos_as_xyz
1 x,y,z
2 -x,-y,-z
_cell_length_a                   7.2202(9)
_cell_length_b                   13.0624(15)
_cell_length_c                   17.0605(19)
_cell_angle_alpha                77.137(2)
_cell_angle_beta                 80.922(2)
_cell_angle_gamma                83.354(2)
_cell_volume                     1543.56
loop_
_atom_site_label
_atom_site_type_symbol
_atom_site_fract_x
_atom_site_fract_y
_atom_site_fract_z
Na1 Na 0.3722(2) 0.1885(1) 0.5184(1)
Na2 Na 0.2077(2) 0.4525(1) 0.4569(1)
C1 C 0.2608(4) 1.1293(2) -0.2104(2)
C2 C 0.3847(4) 1.0462(2) -0.2283(2)
H1 H 0.4421 1.0467 -0.2811
C3 C 0.4212(4) 0.9627(2) -0.1660(2)
H2 H 0.5018 0.9054 -0.1772
C4 C 0.3394(4) 0.9629(2) -0.0868(2)
C5 C 0.2134(4) 1.0474(2) -0.0709(2)
H3 H 0.1565 1.0478 -0.0181
C6 C 0.1730(4) 1.1299(2) -0.1327(2)
H4 H 0.0873 1.1857 -0.1223
C7 C 0.3975(4) 0.7904(2) 0.1011(2)
C8 C 0.3229(4) 0.7834(2) 0.1822(2)
H5 H 0.2339 0.8359 0.1966
C9 C 0.3784(3) 0.6995(2) 0.2426(2)
C10 C 0.5164(4) 0.6222(2) 0.2196(2)
C11 C 0.5949(4) 0.6310(2) 0.1384(2)
H6 H 0.6875 0.5804 0.1236
C12 C 0.5363(4) 0.7134(2) 0.0806(2)
H7 H 0.5895 0.7183 0.0267
C13 C 0.2949(4) 0.6914(2) 0.3299(2)
C14 C 0.2860(4) 0.4029(2) 0.2022(2)
C15 C 0.1646(4) 0.4878(2) 0.2165(2)
H8 H 0.1214 0.4960 0.2692
C16 C 0.1082(4) 0.5604(2) 0.1512(2)
H9 H 0.0256 0.6181 0.1599
C17 C 0.1725(4) 0.5486(2) 0.0729(2)
C18 C 0.2946(4) 0.4615(2) 0.0600(2)
H10 H 0.3377 0.4532 0.0073
C19 C 0.3520(4) 0.3878(2) 0.1243(2)
H11 H 0.4329 0.3293 0.1159
C20 C 0.0978(4) 0.7016(2) -0.1205(2)
C21 C -0.0082(4) 0.7940(2) -0.1054(2)
H12 H -0.0362 0.8045 -0.0525
C22 C -0.0706(4) 0.8685(2) -0.1673(2)
H13 H -0.1390 0.9299 -0.1567
C23 C -0.0318(4) 0.8526(2) -0.2468(2)
C24 C 0.0782(3) 0.7622(2) -0.2641(2)
C25 C 0.1418(3) 0.6878(2) -0.1995(2)
H14 H 0.2153 0.6277 -0.2099
C26 C 0.1229(4) 0.7441(2) -0.3488(2)
N1 N 0.2292(3) 1.2207(2) -0.2765(1)
N2 N 0.3986(3) 0.8752(2) -0.0281(1)
N3 N 0.3306(3) 0.8777(2) 0.0438(1)
N4 N 0.3442(3) 0.3242(2) 0.2714(1)
N5 N 0.1064(3) 0.6308(2) 0.0113(1)
N6 N 0.1642(3) 0.6190(2) -0.0595(1)
O1 O 0.1096(3) 1.2914(1) -0.2620(1)
O2 O 0.3255(3) 1.2249(2) -0.3419(1)
O3 O 0.3400(3) 0.6066(1) 0.3797(1)
O4 O 0.1865(3) 0.7662(1) 0.3495(1)
O5 O 0.5796(3) 0.5393(1) 0.2727(1)
H15 H 0.5250 0.5414 0.3183
O6 O 0.2971(3) 0.3413(2) 0.3400(1)
O7 O 0.4375(3) 0.2436(2) 0.2585(1)
O8 O 0.0628(3) 0.8174(2) -0.4047(1)
O9 O 0.2128(3) 0.6608(2) -0.3609(1)
O10 O -0.1027(3) 0.9261(1) -0.3056(1)
H16 H -0.0708 0.9087 -0.3493
O11 O -0.0986(3) 0.5138(1) 0.4090(1)
H17 H -0.1401 0.5716 0.3811
H18 H -0.1401 0.4778 0.3848
O12 O 0.0716(3) 0.2902(2) 0.5089(1)
H19 H 0.033(4) 0.262(2) 0.4761(18)
H20 H -0.013(4) 0.280(2) 0.5569(18)
O13 O 0.4991(2) 0.3590(1) 0.4847(1)
H21 H 0.5883 0.3564 0.4388
H22 H 0.5546 0.3737 0.5201
O14 O 0.6857(3) 0.1104(1) 0.5545(1)
H23 H 0.7697 0.1264 0.5028
H24 H 0.7261 0.1436 0.5925
O15 O 0.4546(3) 0.0933(2) 0.4128(1)
H25 H 0.4454 0.1285 0.3629
H26 H 0.3815 0.0418 0.4156
O16 O 0.2056(4) 0.0490(2) 0.5899(2)
H27 H 0.0909 0.0289 0.6167
H28 H 0.2903 -0.0164 0.5879
Na1_2 Na 0.3722(2) 1.1885(1) -0.4816(1)
Na2A Na -0.2077(2) 0.5475(1) 0.5431(1)
O2_2 O 0.3255(3) 0.2249(2) 0.6581(1)
O11A O 0.0986(3) 0.4862(1) 0.5910(1)
loop_
_geom_bond_atom_site_label_1
_geom_bond_atom_site_label_2
_geom_bond_site_symmetry_1
_geom_bond_site_symmetry_2
Na1 O12 1_555 1_555
Na2 O3 1_555 1_555
C1 C2 1_555 1_555
C2 H1 1_555 1_555
C3 C2 1_555 1_555
H2 C3 1_555 1_555
C4 C3 1_555 1_555
C5 C4 1_555 1_555
H3 C5 1_555 1_555
C6 C1 1_555 1_555
H4 C6 1_555 1_555
C7 C8 1_555 1_555
C8 H5 1_555 1_555
C9 C8 1_555 1_555
C10 C9 1_555 1_555
C11 C10 1_555 1_555
H6 C11 1_555 1_555
C12 C7 1_555 1_555
H7 C12 1_555 1_555
C13 C9 1_555 1_555
C14 C15 1_555 1_555
C15 H8 1_555 1_555
C16 C15 1_555 1_555
H9 C16 1_555 1_555
C17 C16 1_555 1_555
C18 C17 1_555 1_555
H10 C18 1_555 1_555
C19 C14 1_555 1_555
H11 C19 1_555 1_555
C20 C21 1_555 1_555
C21 H12 1_555 1_555
C22 C21 1_555 1_555
H13 C22 1_555 1_555
C23 C22 1_555 1_555
C24 C23 1_555 1_555
C25 C20 1_555 1_555
H14 C25 1_555 1_555
C26 C24 1_555 1_555
N1 C1 1_555 1_555
N2 C4 1_555 1_555
N3 C7 1_555 1_555
N4 C14 1_555 1_555
N5 C17 1_555 1_555
N6 C20 1_555 1_555
O1 N1 1_555 1_555
O2 N1 1_555 1_555
O3 C13 1_555 1_555
O4 C13 1_555 1_555
O5 C10 1_555 1_555
H15 O5 1_555 1_555
O6 Na2 1_555 1_555
O7 N4 1_555 1_555
O8 C26 1_555 1_555
O9 C26 1_555 1_555
O10 C23 1_555 1_555
H16 O10 1_555 1_555
O11 Na2 1_555 1_555
H17 O11 1_555 1_555
H18 O11 1_555 1_555
O12 Na2 1_555 1_555
H19 O12 1_555 1_555
H20 O12 1_555 1_555
O13 Na1 1_555 1_555
H21 O13 1_555 1_555
H22 O13 1_555 1_555
O14 Na1 1_555 1_555
H23 O14 1_555 1_555
H24 O14 1_555 1_555
O15 Na1 1_555 1_555
H25 O15 1_555 1_555
H26 O15 1_555 1_555
O16 Na1 1_555 1_555
H27 O16 1_555 1_555
H28 O16 1_555 1_555
Na1_2 O2 1_555 1_555
Na2A O11 1_555 1_555
O2_2 Na1 1_555 1_555
O11A Na2 1_555 1_555
Na2 O13 1_555 1_555
C5 C6 1_555 1_555
C11 C12 1_555 1_555
C18 C19 1_555 1_555
C24 C25 1_555 1_555
N2 N3 1_555 1_555
N4 O6 1_555 1_555
N5 N6 1_555 1_555
Na2A O11A 1_555 1_555

#END
