
#######################################################################
#
#                 Cambridge Crystallographic Data Centre
#                                CCDC 
#
#######################################################################
#
# If this CIF has been generated from an entry in the Cambridge 
# Structural Database, then it will include bibliographic, chemical, 
# crystal, experimental, refinement or atomic coordinate data resulting 
# from the CCDC's data processing and validation procedures.
#
#######################################################################

data_CODZUQ10
_symmetry_cell_setting           triclinic
_symmetry_space_group_name_H-M   'P -1'
_symmetry_Int_Tables_number      2
_space_group_name_Hall           '-P 1'
loop_
_symmetry_equiv_pos_site_id
_symmetry_equiv_pos_as_xyz
1 x,y,z
2 -x,-y,-z
_cell_length_a                   8.394(4)
_cell_length_b                   9.819(8)
_cell_length_c                   10.884(7)
_cell_angle_alpha                101.85(6)
_cell_angle_beta                 97.48(5)
_cell_angle_gamma                112.60(5)
_cell_volume                     788.529
loop_
_atom_site_label
_atom_site_type_symbol
_atom_site_fract_x
_atom_site_fract_y
_atom_site_fract_z
Cu1 Cu 0.2700(1) 0.0816(1) 0.0466(1)
N1 N 0.2493(1) 0.4267(10) 0.4757(7)
C1 C 0.2827(13) 0.3133(11) 0.4153(9)
C2 C 0.2386(13) 0.2625(11) 0.2769(10)
C3 C 0.1621(13) 0.3403(11) 0.2123(9)
C4 C 0.1228(13) 0.4577(11) 0.2820(9)
C5 C 0.1688(14) 0.4989(11) 0.4145(9)
C6 C 0.3662(15) 0.2392(13) 0.4921(10)
C7 C 0.1206(14) 0.3034(12) 0.0710(10)
C8 C 0.0357(13) 0.5419(11) 0.2160(10)
O1 O 0.2748(10) 0.1524(8) 0.2239(6)
O2 O -0.1328(9) 0.4349(8) 0.1282(6)
N2 N 0.1546(10) 0.2053(9) -0.0029(8)
C9 C 0.1085(14) 0.1775(12) -0.1434(9)
C10 C 0.1455(15) 0.0452(13) -0.2133(10)
O3 O 0.2205(10) -0.0117(8) -0.1404(6)
O4 O 0.1027(12) 0.0020(9) -0.3300(7)
P1 P -0.3087(14) 0.3603(3) 0.1803(3)
O5 O -0.4457(9) 0.2591(8) 0.0592(6)
O6 O -0.2672(10) 0.2657(8) 0.2685(7)
O7 O -0.3396(10) 0.4853(8) 0.2621(6)
O8 O 0.3247(11) -0.0792(8) 0.0879(7)
H1 H 0.2887 0.4615 0.5794
H2 H 0.2887 0.1905 0.5518
H3 H 0.3898 0.1518 0.4267
H4 H 0.4975 0.3245 0.5495
H5 H 0.1404 0.5878 0.4701
H6 H 0.0596 0.3674 0.0320
H7 H 0.1288 0.6653 0.2421
H8 H -0.0536 0.5436 0.2824
H9 H 0.1781 0.2790 -0.1705
H10 H -0.0326 0.1480 -0.1733
H11 H -0.2265 0.1833 0.2250
O5_2 O 0.5543(9) 0.2591(8) 0.0592(6)
Cu1_2 Cu -0.7300(1) 0.0816(1) 0.0466(1)
O9 O 0.5396(13) 0.3544(10) -0.1725(8)
O10 O 0.4246(14) -0.0975(11) 0.3245(8)
O11 O 0.1234(17) -0.1523(11) 0.4449(10)
loop_
_geom_bond_atom_site_label_1
_geom_bond_atom_site_label_2
_geom_bond_site_symmetry_1
_geom_bond_site_symmetry_2
Cu1 O1 1_555 1_555
N1 C1 1_555 1_555
C1 C2 1_555 1_555
C2 C3 1_555 1_555
C3 C4 1_555 1_555
C4 C5 1_555 1_555
C5 N1 1_555 1_555
C6 C1 1_555 1_555
C7 C3 1_555 1_555
C8 C4 1_555 1_555
O1 C2 1_555 1_555
O2 C8 1_555 1_555
N2 Cu1 1_555 1_555
C9 N2 1_555 1_555
C10 C9 1_555 1_555
O3 Cu1 1_555 1_555
O4 C10 1_555 1_555
P1 O2 1_555 1_555
O5 P1 1_555 1_555
O6 P1 1_555 1_555
O7 P1 1_555 1_555
O8 Cu1 1_555 1_555
H1 N1 1_555 1_555
H2 C6 1_555 1_555
H3 C6 1_555 1_555
H4 C6 1_555 1_555
H5 C5 1_555 1_555
H6 C7 1_555 1_555
H7 C8 1_555 1_555
H8 C8 1_555 1_555
H9 C9 1_555 1_555
H10 C9 1_555 1_555
H11 O6 1_555 1_555
O5_2 Cu1 1_555 1_555
Cu1_2 O5 1_555 1_555
C7 N2 1_555 1_555
C10 O3 1_555 1_555

#END
