
#######################################################################
#
#                 Cambridge Crystallographic Data Centre
#                                CCDC 
#
#######################################################################
#
# If this CIF has been generated from an entry in the Cambridge 
# Structural Database, then it will include bibliographic, chemical, 
# crystal, experimental, refinement or atomic coordinate data resulting 
# from the CCDC's data processing and validation procedures.
#
#######################################################################

data_COFCEH
_symmetry_cell_setting           hexagonal
_symmetry_space_group_name_H-M   'P 63/m'
_symmetry_Int_Tables_number      176
_space_group_name_Hall           '-P 6c'
loop_
_symmetry_equiv_pos_site_id
_symmetry_equiv_pos_as_xyz
1 x,y,z
2 -y,x-y,z
3 -x+y,-x,z
4 -x,-y,1/2+z
5 y,-x+y,1/2+z
6 x-y,x,1/2+z
7 -x,-y,-z
8 y,-x+y,-z
9 x-y,x,-z
10 x,y,1/2-z
11 -y,x-y,1/2-z
12 -x+y,-x,1/2-z
_cell_length_a                   14.306(4)
_cell_length_b                   14.306(4)
_cell_length_c                   25.130(7)
_cell_angle_alpha                90
_cell_angle_beta                 90
_cell_angle_gamma                120
_cell_volume                     4454.1
loop_
_atom_site_label
_atom_site_type_symbol
_atom_site_fract_x
_atom_site_fract_y
_atom_site_fract_z
I1 I 1.17600(5) 0.47966(5) 0.7500
I2 I 1.3333 0.6667 0.60659(4)
Cu1 Cu 1.21093(9) 0.64792(9) 0.68733(5)
P1 P 0.6667 0.3333 0.63950(18)
S1 S 0.6667 0.3333 0.5706(4)
N1 N 0.7880(5) 0.3975(5) 0.6677(3)
C1 C 0.8718(6) 0.4977(6) 0.6505(3)
C2 C 0.9790(6) 0.5304(6) 0.6706(3)
H1 H 0.9869 0.4820 0.6921
N2 N 1.0654(5) 0.6233(5) 0.6604(3)
C3 C 1.0540(7) 0.6930(7) 0.6272(4)
C4 C 1.1426(8) 0.7935(8) 0.6149(4)
H2 H 1.2094 0.8129 0.6297
C5 C 1.0362(9) 0.8396(9) 0.5601(5)
H3 H 1.0313 0.8884 0.5374
C6 C 1.1335(8) 0.8653(8) 0.5807(5)
H4 H 1.1942 0.9308 0.5722
C7 C 0.9436(8) 0.7430(8) 0.5717(4)
H5 H 0.8770 0.7286 0.5585
C8 C 0.9519(7) 0.6659(7) 0.6044(4)
C9 C 0.8631(7) 0.5681(7) 0.6172(4)
H6 H 0.7962 0.5499 0.6028
N1A N 0.6025(5) 0.3905(7) 0.6677(3)
C1A C 0.5023(6) 0.3741(8) 0.6505(3)
C2A C 0.4696(6) 0.4486(8) 0.6706(3)
H1A H 0.5180 0.5049 0.6921
N2A N 0.3767(5) 0.4421(7) 0.6604(3)
C3A C 0.3070(7) 0.3610(10) 0.6272(4)
C4A C 0.2065(8) 0.3491(11) 0.6149(4)
H2A H 0.1871 0.3965 0.6297
C5A C 0.1604(9) 0.1966(13) 0.5601(5)
H3A H 0.1116 0.1429 0.5374
C6A C 0.1347(8) 0.2682(11) 0.5807(5)
H4A H 0.0692 0.2634 0.5722
C7A C 0.2570(8) 0.2006(11) 0.5717(4)
H5A H 0.2714 0.1484 0.5585
C8A C 0.3341(7) 0.2860(10) 0.6044(4)
C9A C 0.4319(7) 0.2950(10) 0.6172(4)
H6A H 0.4501 0.2463 0.6028
N1B N 0.6095(7) 0.2120(5) 0.6677(3)
C1B C 0.6259(8) 0.1282(6) 0.6505(3)
C2B C 0.5514(8) 0.0210(6) 0.6706(3)
H1B H 0.4951 0.0131 0.6921
N2B N 0.5579(7) -0.0654(5) 0.6604(3)
C3B C 0.6390(10) -0.0540(7) 0.6272(4)
C4B C 0.6509(11) -0.1426(8) 0.6149(4)
H2B H 0.6035 -0.2094 0.6297
C5B C 0.8034(13) -0.0362(9) 0.5601(5)
H3B H 0.8571 -0.0313 0.5374
C6B C 0.7318(11) -0.1335(8) 0.5807(5)
H4B H 0.7366 -0.1942 0.5722
C7B C 0.7994(11) 0.0564(8) 0.5717(4)
H5B H 0.8516 0.1230 0.5585
C8B C 0.7140(10) 0.0481(7) 0.6044(4)
C9B C 0.7050(10) 0.1369(7) 0.6172(4)
H6B H 0.7537 0.2038 0.6028
I1A I 0.52034(5) 0.69634(7) 0.7500
Cu1A Cu 0.35208(9) 0.56301(13) 0.68733(5)
I1B I 0.30366(7) -0.17600(5) 0.7500
I2_2 I 0.3333 -0.3333 0.60659(4)
Cu1B Cu 0.43699(13) -0.21093(9) 0.68733(5)
Cu1I Cu 1.21093(9) 0.64792(9) 0.81267(5)
P1I P 0.6667 0.3333 0.86050(18)
S1I S 0.6667 0.3333 0.9294(4)
N1I N 0.7880(5) 0.3975(5) 0.8323(3)
C1I C 0.8718(6) 0.4977(6) 0.8495(3)
C2I C 0.9790(6) 0.5304(6) 0.8294(3)
H1I H 0.9869 0.4820 0.8079
N2I N 1.0654(5) 0.6233(5) 0.8396(3)
C3I C 1.0540(7) 0.6930(7) 0.8728(4)
C4I C 1.1426(8) 0.7935(8) 0.8851(4)
H2I H 1.2094 0.8129 0.8703
C5I C 1.0362(9) 0.8396(9) 0.9399(5)
H3I H 1.0313 0.8884 0.9626
C6I C 1.1335(8) 0.8653(8) 0.9193(5)
H4I H 1.1942 0.9308 0.9278
C7I C 0.9436(8) 0.7430(8) 0.9283(4)
H5I H 0.8770 0.7286 0.9415
C8I C 0.9519(7) 0.6659(7) 0.8956(4)
C9I C 0.8631(7) 0.5681(7) 0.8828(4)
H6I H 0.7962 0.5499 0.8972
N1J N 0.6025(5) 0.3905(7) 0.8323(3)
C1J C 0.5023(6) 0.3741(8) 0.8495(3)
C2J C 0.4696(6) 0.4486(8) 0.8294(3)
H1J H 0.5180 0.5049 0.8079
N2J N 0.3767(5) 0.4421(7) 0.8396(3)
C3J C 0.3070(7) 0.3610(10) 0.8728(4)
C4J C 0.2065(8) 0.3491(11) 0.8851(4)
H2J H 0.1871 0.3965 0.8703
C5J C 0.1604(9) 0.1966(13) 0.9399(5)
H3J H 0.1116 0.1429 0.9626
C6J C 0.1347(8) 0.2682(11) 0.9193(5)
H4J H 0.0692 0.2634 0.9278
C7J C 0.2570(8) 0.2006(11) 0.9283(4)
H5J H 0.2714 0.1484 0.9415
C8J C 0.3341(7) 0.2860(10) 0.8956(4)
C9J C 0.4319(7) 0.2950(10) 0.8828(4)
H6J H 0.4501 0.2463 0.8972
N1K N 0.6095(7) 0.2120(5) 0.8323(3)
C1K C 0.6259(8) 0.1282(6) 0.8495(3)
C2K C 0.5514(8) 0.0210(6) 0.8294(3)
H1K H 0.4951 0.0131 0.8079
N2K N 0.5579(7) -0.0654(5) 0.8396(3)
C3K C 0.6390(10) -0.0540(7) 0.8728(4)
C4K C 0.6509(11) -0.1426(8) 0.8851(4)
H2K H 0.6035 -0.2094 0.8703
C5K C 0.8034(13) -0.0362(9) 0.9399(5)
H3K H 0.8571 -0.0313 0.9626
C6K C 0.7318(11) -0.1335(8) 0.9193(5)
H4K H 0.7366 -0.1942 0.9278
C7K C 0.7994(11) 0.0564(8) 0.9283(4)
H5K H 0.8516 0.1230 0.9415
C8K C 0.7140(10) 0.0481(7) 0.8956(4)
C9K C 0.7050(10) 0.1369(7) 0.8828(4)
H6K H 0.7537 0.2038 0.8972
Cu1J Cu 0.35208(9) 0.56301(13) 0.81267(5)
Cu1K Cu 0.43699(13) -0.21093(9) 0.81267(5)
I1_2 I 0.17600(5) 0.47966(5) 0.7500
I1A_2 I 0.52034(5) -0.30366(7) 0.7500
I1B_2 I 1.30366(7) 0.82400(5) 0.7500
I2_3 I 0.3333 0.6667 0.60659(4)
I2I I 0.3333 -0.3333 0.89341(4)
I2I_2 I 0.3333 0.6667 0.89341(4)
I2I_3 I 1.3333 0.6667 0.89341(4)
Cu1_2 Cu 0.21093(9) -0.35208(9) 0.68733(5)
Cu1A_2 Cu 0.35208(9) -0.43699(13) 0.68733(5)
Cu1A_3 Cu 1.35208(9) 0.56301(13) 0.68733(5)
Cu1B_2 Cu 0.43699(13) 0.78907(9) 0.68733(5)
Cu1B_3 Cu 1.43699(13) 0.78907(9) 0.68733(5)
Cu1I_2 Cu 0.21093(9) -0.35208(9) 0.81267(5)
Cu1J_2 Cu 1.35208(9) 0.56301(13) 0.81267(5)
Cu1K_2 Cu 0.43699(13) 0.78907(9) 0.81267(5)
loop_
_geom_bond_atom_site_label_1
_geom_bond_atom_site_label_2
_geom_bond_site_symmetry_1
_geom_bond_site_symmetry_2
I1 Cu1 1_555 1_555
I2 Cu1 1_555 1_555
Cu1 N2 1_555 1_555
P1 S1 1_555 1_555
N1 P1 1_555 1_555
C1 N1 1_555 1_555
C2 C1 1_555 1_555
H1 C2 1_555 1_555
N2 C2 1_555 1_555
C3 N2 1_555 1_555
C4 C3 1_555 1_555
H2 C4 1_555 1_555
C5 H3 1_555 1_555
C6 C4 1_555 1_555
H4 C6 1_555 1_555
C7 C5 1_555 1_555
H5 C7 1_555 1_555
C8 C3 1_555 1_555
C9 C1 1_555 1_555
H6 C9 1_555 1_555
N1A P1 1_555 1_555
C1A N1A 1_555 1_555
C2A C1A 1_555 1_555
H1A C2A 1_555 1_555
N2A C2A 1_555 1_555
C3A N2A 1_555 1_555
C4A C3A 1_555 1_555
H2A C4A 1_555 1_555
C5A H3A 1_555 1_555
C6A C4A 1_555 1_555
H4A C6A 1_555 1_555
C7A C5A 1_555 1_555
H5A C7A 1_555 1_555
C8A C3A 1_555 1_555
C9A C1A 1_555 1_555
H6A C9A 1_555 1_555
N1B P1 1_555 1_555
C1B N1B 1_555 1_555
C2B C1B 1_555 1_555
H1B C2B 1_555 1_555
N2B C2B 1_555 1_555
C3B N2B 1_555 1_555
C4B C3B 1_555 1_555
H2B C4B 1_555 1_555
C5B H3B 1_555 1_555
C6B C4B 1_555 1_555
H4B C6B 1_555 1_555
C7B C5B 1_555 1_555
H5B C7B 1_555 1_555
C8B C3B 1_555 1_555
C9B C1B 1_555 1_555
H6B C9B 1_555 1_555
I1A Cu1A 1_555 1_555
Cu1A N2A 1_555 1_555
I1B Cu1B 1_555 1_555
I2_2 Cu1B 1_555 1_555
Cu1B N2B 1_555 1_555
Cu1I I1 1_555 1_555
P1I S1I 1_555 1_555
N1I P1I 1_555 1_555
C1I N1I 1_555 1_555
C2I C1I 1_555 1_555
H1I C2I 1_555 1_555
N2I Cu1I 1_555 1_555
C3I N2I 1_555 1_555
C4I C3I 1_555 1_555
H2I C4I 1_555 1_555
C5I H3I 1_555 1_555
C6I C4I 1_555 1_555
H4I C6I 1_555 1_555
C7I C5I 1_555 1_555
H5I C7I 1_555 1_555
C8I C3I 1_555 1_555
C9I C1I 1_555 1_555
H6I C9I 1_555 1_555
N1J P1I 1_555 1_555
C1J N1J 1_555 1_555
C2J C1J 1_555 1_555
H1J C2J 1_555 1_555
N2J C2J 1_555 1_555
C3J N2J 1_555 1_555
C4J C3J 1_555 1_555
H2J C4J 1_555 1_555
C5J H3J 1_555 1_555
C6J C4J 1_555 1_555
H4J C6J 1_555 1_555
C7J C5J 1_555 1_555
H5J C7J 1_555 1_555
C8J C3J 1_555 1_555
C9J C1J 1_555 1_555
H6J C9J 1_555 1_555
N1K P1I 1_555 1_555
C1K N1K 1_555 1_555
C2K C1K 1_555 1_555
H1K C2K 1_555 1_555
N2K C2K 1_555 1_555
C3K N2K 1_555 1_555
C4K C3K 1_555 1_555
H2K C4K 1_555 1_555
C5K H3K 1_555 1_555
C6K C4K 1_555 1_555
H4K C6K 1_555 1_555
C7K C5K 1_555 1_555
H5K C7K 1_555 1_555
C8K C3K 1_555 1_555
C9K C1K 1_555 1_555
H6K C9K 1_555 1_555
Cu1J I1A 1_555 1_555
Cu1K I1B 1_555 1_555
I1_2 Cu1A 1_555 1_555
I1A_2 Cu1B 1_555 1_555
I1B_2 Cu1 1_555 1_555
I2_3 Cu1A 1_555 1_555
I2I Cu1K 1_555 1_555
I2I_2 Cu1J 1_555 1_555
I2I_3 Cu1I 1_555 1_555
Cu1_2 I1B 1_555 1_555
Cu1A_2 I2_2 1_555 1_555
Cu1A_3 I1 1_555 1_555
Cu1B_2 I1A 1_555 1_555
Cu1B_3 I2 1_555 1_555
Cu1I_2 I1B 1_555 1_555
Cu1J_2 I1 1_555 1_555
Cu1K_2 I1A 1_555 1_555
I2 Cu1A_3 1_555 1_555
C5 C6 1_555 1_555
C7 C8 1_555 1_555
C8 C9 1_555 1_555
C5A C6A 1_555 1_555
C7A C8A 1_555 1_555
C8A C9A 1_555 1_555
C5B C6B 1_555 1_555
C7B C8B 1_555 1_555
C8B C9B 1_555 1_555
I2_2 Cu1_2 1_555 1_555
Cu1I I1B_2 1_555 1_555
C2I N2I 1_555 1_555
C5I C6I 1_555 1_555
C7I C8I 1_555 1_555
C8I C9I 1_555 1_555
N2J Cu1J 1_555 1_555
C5J C6J 1_555 1_555
C7J C8J 1_555 1_555
C8J C9J 1_555 1_555
N2K Cu1K 1_555 1_555
C5K C6K 1_555 1_555
C7K C8K 1_555 1_555
C8K C9K 1_555 1_555
Cu1J I1_2 1_555 1_555
Cu1K I1A_2 1_555 1_555
I1A_2 Cu1A_2 1_555 1_555
I1B_2 Cu1B_3 1_555 1_555
I2_3 Cu1B_2 1_555 1_555
I2I Cu1I_2 1_555 1_555
I2I_2 Cu1K_2 1_555 1_555
I2I_3 Cu1J_2 1_555 1_555

#END
