
#######################################################################
#
#                 Cambridge Crystallographic Data Centre
#                                CCDC 
#
#######################################################################
#
# If this CIF has been generated from an entry in the Cambridge 
# Structural Database, then it will include bibliographic, chemical, 
# crystal, experimental, refinement or atomic coordinate data resulting 
# from the CCDC's data processing and validation procedures.
#
#######################################################################

data_COFNAN
_symmetry_cell_setting           monoclinic
_symmetry_space_group_name_H-M   'P c'
_symmetry_Int_Tables_number      7
_space_group_name_Hall           'P -2yc'
loop_
_symmetry_equiv_pos_site_id
_symmetry_equiv_pos_as_xyz
1 x,y,z
2 x,-y,1/2+z
_cell_length_a                   9.224(4)
_cell_length_b                   20.702(10)
_cell_length_c                   20.512(10)
_cell_angle_alpha                90
_cell_angle_beta                 97.953(8)
_cell_angle_gamma                90
_cell_volume                     3879.2
loop_
_atom_site_label
_atom_site_type_symbol
_atom_site_fract_x
_atom_site_fract_y
_atom_site_fract_z
Sn1 Sn 0.60027(15) 0.71915(6) 0.97967(7)
Sn2 Sn 0.52847(14) 0.98304(6) 1.08764(7)
Sn3 Sn 0.63448(14) 0.78499(6) 1.47681(7)
Sn4 Sn 0.48715(15) 0.51845(7) 1.38105(7)
O1 O 0.7011(17) 0.7813(7) 1.0589(7)
O2 O 0.6003(14) 0.8794(6) 1.0550(7)
O3 O 0.6931(17) 0.7155(7) 1.4046(8)
O4 O 0.6008(17) 0.6162(7) 1.4133(8)
O5 O 0.5080(18) 0.6416(6) 0.8988(7)
O6 O 0.3547(17) 0.5676(7) 0.8468(8)
O7 O 0.4686(15) 0.9201(6) 0.6244(7)
O8 O 0.5693(18) 0.8643(7) 0.5526(7)
S1 S 0.5584(7) 0.7712(3) 1.2137(4)
S2 S 0.8689(6) 0.7854(3) 1.1912(3)
S3 S 0.8081(7) 0.6868(3) 1.2784(3)
S4 S 0.4220(8) 0.6802(3) 0.7093(3)
S5 S 0.4226(8) 0.8257(3) 0.7183(3)
S6 S 0.3278(8) 0.7550(3) 0.8218(3)
C1 C 0.729(3) 0.7477(10) 1.2277(11)
C2 C 0.683(3) 0.8382(10) 1.0845(11)
C3 C 0.787(3) 0.8539(10) 1.1510(11)
H1 H 0.7304 0.8761 1.1806
H2 H 0.8636 0.8831 1.1414
C4 C 0.646(3) 0.6641(11) 1.3811(12)
C5 C 0.654(3) 0.6483(11) 1.3089(11)
H3 H 0.5640 0.6621 1.2824
H4 H 0.6618 0.6018 1.3040
C6 C 0.400(3) 0.7444(12) 0.7457(12)
C7 C 0.398(3) 0.6266(11) 0.8667(12)
C8 C 0.281(3) 0.6739(11) 0.8413(12)
H5 H 0.2138 0.6765 0.8737
H6 H 0.2266 0.6554 0.8018
C9 C 0.520(3) 0.8708(11) 0.6066(11)
C10 C 0.505(3) 0.8042(11) 0.6436(12)
H7 H 0.6004 0.7843 0.6556
H8 H 0.4427 0.7746 0.6160
C11 C 0.724(3) 0.6431(12) 1.0310(11)
C12 C 0.805(3) 0.6019(11) 0.9973(12)
H9 H 0.8011 0.6052 0.9518
C13 C 0.892(3) 0.5552(11) 1.0323(11)
H10 H 0.9588 0.5317 1.0115
C14 C 0.881(3) 0.5438(12) 1.0970(11)
H11 H 0.9312 0.5093 1.1187
C15 C 0.793(3) 0.5839(11) 1.1311(13)
H12 H 0.7915 0.5784 1.1759
C16 C 0.709(3) 0.6321(11) 1.0964(11)
H13 H 0.6434 0.6564 1.1168
C17 C 0.715(3) 0.7657(10) 0.9092(12)
C18 C 0.746(3) 0.7290(12) 0.8563(12)
H14 H 0.6997 0.6893 0.8485
C19 C 0.844(3) 0.7492(11) 0.8142(13)
H15 H 0.8819 0.7218 0.7848
C20 C 0.879(3) 0.8145(11) 0.8207(12)
H16 H 0.9271 0.8325 0.7883
C21 C 0.849(3) 0.8552(12) 0.8705(12)
H17 H 0.8846 0.8972 0.8744
C22 C 0.762(3) 0.8298(11) 0.9141(13)
H18 H 0.7352 0.8559 0.9473
C23 C 0.375(3) 0.7374(12) 0.9969(13)
C24 C 0.320(3) 0.6756(12) 1.0264(13)
H19 H 0.3760 0.6389 1.0373
C25 C 0.170(3) 0.6823(13) 1.0348(13)
H20 H 0.1237 0.6470 1.0507
C26 C 0.086(3) 0.7402(13) 1.0204(13)
H21 H -0.0101 0.7443 1.0285
C27 C 0.158(3) 0.7876(13) 0.9947(13)
H22 H 0.1057 0.8244 0.9797
C28 C 0.303(3) 0.7846(13) 0.9894(13)
H23 H 0.3484 0.8225 0.9791
C29 C 0.415(3) 0.9388(10) 1.1566(11)
C30 C 0.310(2) 0.8932(11) 1.1366(12)
H24 H 0.2940 0.8841 1.0918
C31 C 0.226(3) 0.8595(11) 1.1753(11)
H25 H 0.1552 0.8301 1.1580
C32 C 0.257(3) 0.8732(11) 1.2436(12)
H26 H 0.2133 0.8494 1.2741
C33 C 0.348(3) 0.9203(11) 1.2623(12)
H27 H 0.3618 0.9306 1.3068
C34 C 0.424(3) 0.9553(11) 1.2229(12)
H28 H 0.4817 0.9900 1.2398
C35 C 0.7628(16) 1.0070(9) 1.1105(9)
C36 C 0.8797(16) 0.9851(9) 1.0798(8)
H29 H 0.8579 0.9570 1.0444
C37 C 1.0199(17) 1.0012(9) 1.0969(9)
H30 H 1.0895 0.9912 1.0697
C38 C 1.0601(17) 1.0335(10) 1.1572(9)
H31 H 1.1575 1.0421 1.1731
C39 C 0.9500(18) 1.0515(9) 1.1908(8)
H32 H 0.9746 1.0718 1.2313
C40 C 0.8049(17) 1.0414(9) 1.1688(8)
H33 H 0.7340 1.0575 1.1926
C41 C 0.388(3) 0.9896(12) 0.9947(12)
C42 C 0.406(3) 0.9474(12) 0.9413(12)
H34 H 0.4893 0.9220 0.9418
C43 C 0.296(3) 0.9461(13) 0.8896(12)
H35 H 0.2906 0.9126 0.8590
C44 C 0.181(3) 0.9999(12) 0.8821(13)
H36 H 0.1182 1.0062 0.8432
C45 C 0.177(3) 1.0349(12) 0.9314(13)
H37 H 0.1031 1.0652 0.9319
C46 C 0.277(3) 1.0287(12) 0.9811(12)
H38 H 0.2676 1.0582 1.0146
C47 C 0.4119(17) 0.7547(10) 1.4647(10)
C48 C 0.3143(19) 0.7896(10) 1.4199(10)
H39 H 0.3495 0.8190 1.3916
C49 C 0.1643(19) 0.7803(10) 1.4175(10)
H40 H 0.0988 0.8065 1.3909
C50 C 0.1133(18) 0.7323(10) 1.4548(10)
H41 H 0.0138 0.7229 1.4498
C51 C 0.2094(19) 0.6981(10) 1.4997(10)
H42 H 0.1743 0.6675 1.5269
C52 C 0.3592(19) 0.7097(10) 1.5040(10)
H43 H 0.4240 0.6864 1.5339
C53 C 0.792(3) 0.7464(13) 1.5546(13)
C54 C 0.884(3) 0.7854(13) 1.5958(13)
H44 H 0.8719 0.8298 1.5902
C55 C 0.991(3) 0.7659(13) 1.6438(13)
H45 H 1.0492 0.7940 1.6715
C56 C 1.004(3) 0.7020(12) 1.6466(13)
H46 H 1.0794 0.6849 1.6763
C57 C 0.915(3) 0.6597(13) 1.6099(13)
H47 H 0.9297 0.6156 1.6166
C58 C 0.802(3) 0.6815(13) 1.5614(13)
H48 H 0.7387 0.6533 1.5361
C59 C 0.697(3) 0.8593(11) 1.4164(12)
C60 C 0.799(3) 0.8504(11) 1.3710(11)
H49 H 0.8431 0.8103 1.3687
C61 C 0.835(3) 0.8997(10) 1.3298(11)
H50 H 0.8908 0.8921 1.2962
C62 C 0.783(3) 0.9599(11) 1.3414(12)
H51 H 0.8062 0.9929 1.3139
C63 C 0.710(3) 0.9747(11) 1.3843(11)
H52 H 0.6886 1.0177 1.3919
C64 C 0.657(3) 0.9240(10) 1.4229(12)
H53 H 0.5943 0.9346 1.4531
C65 C 0.440(3) 0.5163(14) 1.4792(13)
C66 C 0.299(3) 0.5085(14) 1.4889(13)
H54 H 0.2352 0.4895 1.4554
C67 C 0.243(3) 0.5272(13) 1.5461(13)
H55 H 0.1426 0.5289 1.5475
C68 C 0.347(3) 0.5436(14) 1.6025(13)
H56 H 0.3183 0.5597 1.6411
C69 C 0.480(3) 0.5347(13) 1.5960(14)
H57 H 0.5479 0.5315 1.6339
C70 C 0.531(4) 0.5293(13) 1.5350(13)
H58 H 0.6307 0.5348 1.5329
C71 C 0.344(3) 0.5722(10) 1.3126(10)
C72 C 0.278(3) 0.6300(10) 1.3254(11)
H59 H 0.2917 0.6436 1.3690
C73 C 0.195(3) 0.6701(11) 1.2808(9)
H60 H 0.1580 0.7095 1.2926
C74 C 0.173(3) 0.6463(10) 1.2173(10)
H61 H 0.1071 0.6668 1.1853
C75 C 0.248(3) 0.5918(10) 1.2016(12)
H62 H 0.2541 0.5838 1.1575
C76 C 0.314(3) 0.5487(11) 1.2481(10)
H63 H 0.3363 0.5066 1.2372
C77 C 0.690(2) 0.4881(10) 1.3462(10)
C78 C 0.671(2) 0.4471(10) 1.2903(10)
H64 H 0.5776 0.4346 1.2711
C79 C 0.796(2) 0.4258(11) 1.2648(11)
H65 H 0.7867 0.3911 1.2356
C80 C 0.932(2) 0.4542(10) 1.2812(10)
H66 H 1.0105 0.4476 1.2578
C81 C 0.940(3) 0.4938(11) 1.3368(10)
H67 H 1.0336 0.5088 1.3523
C82 C 0.831(2) 0.5147(10) 1.3731(10)
H68 H 0.8464 0.5419 1.4094
Sn2A Sn 0.52847(14) 1.01696(6) 0.58764(7)
Sn3_2 Sn 0.63448(14) 0.78499(6) 0.47681(7)
Sn4A Sn 0.48715(15) 0.48155(7) 0.88105(7)
O6A O 0.3547(17) 0.4324(7) 1.3468(8)
O7A O 0.4686(15) 1.0799(6) 1.1244(7)
O8_2 O 0.5693(18) 0.8643(7) 1.5526(7)
loop_
_geom_bond_atom_site_label_1
_geom_bond_atom_site_label_2
_geom_bond_site_symmetry_1
_geom_bond_site_symmetry_2
Sn1 O1 1_555 1_555
Sn2 O2 1_555 1_555
Sn3 O3 1_555 1_555
Sn4 O4 1_555 1_555
O1 C2 1_555 1_555
O2 C2 1_555 1_555
O3 C4 1_555 1_555
O4 C4 1_555 1_555
O5 Sn1 1_555 1_555
O6 C7 1_555 1_555
O7 C9 1_555 1_555
O8 C9 1_555 1_555
S1 C1 1_555 1_555
S2 C1 1_555 1_555
S3 C1 1_555 1_555
S4 C6 1_555 1_555
S5 C6 1_555 1_555
S6 C6 1_555 1_555
C2 C3 1_555 1_555
C3 S2 1_555 1_555
H1 C3 1_555 1_555
H2 C3 1_555 1_555
C4 C5 1_555 1_555
C5 S3 1_555 1_555
H3 C5 1_555 1_555
H4 C5 1_555 1_555
C7 O5 1_555 1_555
C8 S6 1_555 1_555
H5 C8 1_555 1_555
H6 C8 1_555 1_555
C9 C10 1_555 1_555
C10 S5 1_555 1_555
H7 C10 1_555 1_555
H8 C10 1_555 1_555
C11 Sn1 1_555 1_555
C12 C11 1_555 1_555
H9 C12 1_555 1_555
C13 C12 1_555 1_555
H10 C13 1_555 1_555
C14 C13 1_555 1_555
H11 C14 1_555 1_555
C15 C14 1_555 1_555
H12 C15 1_555 1_555
C16 C11 1_555 1_555
H13 C16 1_555 1_555
C17 Sn1 1_555 1_555
C18 C17 1_555 1_555
H14 C18 1_555 1_555
C19 C18 1_555 1_555
H15 C19 1_555 1_555
C20 C19 1_555 1_555
H16 C20 1_555 1_555
C21 C20 1_555 1_555
H17 C21 1_555 1_555
C22 C17 1_555 1_555
H18 C22 1_555 1_555
C23 Sn1 1_555 1_555
C24 C23 1_555 1_555
H19 C24 1_555 1_555
C25 C24 1_555 1_555
H20 C25 1_555 1_555
C26 C25 1_555 1_555
H21 C26 1_555 1_555
C27 C26 1_555 1_555
H22 C27 1_555 1_555
C28 C23 1_555 1_555
H23 C28 1_555 1_555
C29 Sn2 1_555 1_555
C30 C29 1_555 1_555
H24 C30 1_555 1_555
C31 C30 1_555 1_555
H25 C31 1_555 1_555
C32 C31 1_555 1_555
H26 C32 1_555 1_555
C33 C32 1_555 1_555
H27 C33 1_555 1_555
C34 C29 1_555 1_555
H28 C34 1_555 1_555
C35 Sn2 1_555 1_555
C36 C35 1_555 1_555
H29 C36 1_555 1_555
C37 C36 1_555 1_555
H30 C37 1_555 1_555
C38 C37 1_555 1_555
H31 C38 1_555 1_555
C39 C38 1_555 1_555
H32 C39 1_555 1_555
C40 C35 1_555 1_555
H33 C40 1_555 1_555
C41 Sn2 1_555 1_555
C42 C41 1_555 1_555
H34 C42 1_555 1_555
C43 C42 1_555 1_555
H35 C43 1_555 1_555
C44 C43 1_555 1_555
H36 C44 1_555 1_555
C45 C44 1_555 1_555
H37 C45 1_555 1_555
C46 C41 1_555 1_555
H38 C46 1_555 1_555
C47 Sn3 1_555 1_555
C48 C47 1_555 1_555
H39 C48 1_555 1_555
C49 C48 1_555 1_555
H40 C49 1_555 1_555
C50 C49 1_555 1_555
H41 C50 1_555 1_555
C51 C50 1_555 1_555
H42 C51 1_555 1_555
C52 C47 1_555 1_555
H43 C52 1_555 1_555
C53 Sn3 1_555 1_555
C54 C53 1_555 1_555
H44 C54 1_555 1_555
C55 C54 1_555 1_555
H45 C55 1_555 1_555
C56 C55 1_555 1_555
H46 C56 1_555 1_555
C57 C56 1_555 1_555
H47 C57 1_555 1_555
C58 C53 1_555 1_555
H48 C58 1_555 1_555
C59 Sn3 1_555 1_555
C60 C59 1_555 1_555
H49 C60 1_555 1_555
C61 C60 1_555 1_555
H50 C61 1_555 1_555
C62 C61 1_555 1_555
H51 C62 1_555 1_555
C63 C62 1_555 1_555
H52 C63 1_555 1_555
C64 C59 1_555 1_555
H53 C64 1_555 1_555
C65 Sn4 1_555 1_555
C66 C65 1_555 1_555
H54 C66 1_555 1_555
C67 C66 1_555 1_555
H55 C67 1_555 1_555
C68 C67 1_555 1_555
H56 C68 1_555 1_555
C69 C68 1_555 1_555
H57 C69 1_555 1_555
C70 C65 1_555 1_555
H58 C70 1_555 1_555
C71 Sn4 1_555 1_555
C72 C71 1_555 1_555
H59 C72 1_555 1_555
C73 C72 1_555 1_555
H60 C73 1_555 1_555
C74 C73 1_555 1_555
H61 C74 1_555 1_555
C75 C74 1_555 1_555
H62 C75 1_555 1_555
C76 C71 1_555 1_555
H63 C76 1_555 1_555
C77 Sn4 1_555 1_555
C78 C77 1_555 1_555
H64 C78 1_555 1_555
C79 C78 1_555 1_555
H65 C79 1_555 1_555
C80 C79 1_555 1_555
H66 C80 1_555 1_555
C81 C80 1_555 1_555
H67 C81 1_555 1_555
C82 C77 1_555 1_555
H68 C82 1_555 1_555
Sn2A O7 1_555 1_555
Sn3_2 O8 1_555 1_555
Sn4A O6 1_555 1_555
O6A Sn4 1_555 1_555
O7A Sn2 1_555 1_555
O8_2 Sn3 1_555 1_555
C7 C8 1_555 1_555
C15 C16 1_555 1_555
C21 C22 1_555 1_555
C27 C28 1_555 1_555
C33 C34 1_555 1_555
C39 C40 1_555 1_555
C45 C46 1_555 1_555
C51 C52 1_555 1_555
C57 C58 1_555 1_555
C63 C64 1_555 1_555
C69 C70 1_555 1_555
C75 C76 1_555 1_555
C81 C82 1_555 1_555

#END
