
#######################################################################
#
#                 Cambridge Crystallographic Data Centre
#                                CCDC 
#
#######################################################################
#
# If this CIF has been generated from an entry in the Cambridge 
# Structural Database, then it will include bibliographic, chemical, 
# crystal, experimental, refinement or atomic coordinate data resulting 
# from the CCDC's data processing and validation procedures.
#
#######################################################################

data_COFSUN
_symmetry_cell_setting           monoclinic
_symmetry_space_group_name_H-M   'P 21/n'
_symmetry_Int_Tables_number      14
_space_group_name_Hall           '-P 2yn'
loop_
_symmetry_equiv_pos_site_id
_symmetry_equiv_pos_as_xyz
1 x,y,z
2 1/2-x,1/2+y,1/2-z
3 -x,-y,-z
4 1/2+x,1/2-y,1/2+z
_cell_length_a                   21.3913(5)
_cell_length_b                   14.0119(3)
_cell_length_c                   26.0194(7)
_cell_angle_alpha                90
_cell_angle_beta                 97.7030(10)
_cell_angle_gamma                90
_cell_volume                     7728.49
loop_
_atom_site_label
_atom_site_type_symbol
_atom_site_fract_x
_atom_site_fract_y
_atom_site_fract_z
C1 C 0.36764(16) 0.2616(3) -0.31254(15)
H1 H 0.4047 0.2899 -0.2970
C2 C 0.35116(18) 0.2512(3) -0.36661(15)
H2 H 0.3747 0.2703 -0.3924
C3 C 0.29349(17) 0.2071(3) -0.37351(14)
H3 H 0.2698 0.1917 -0.4050
C4 C 0.27664(16) 0.1894(3) -0.32326(14)
C5 C 0.22282(16) 0.1421(3) -0.31053(13)
C6 C 0.21188(15) 0.1224(3) -0.26038(14)
C7 C 0.16235(17) 0.0644(3) -0.24332(15)
H4 H 0.1286 0.0370 -0.2644
C8 C 0.17449(18) 0.0575(3) -0.19017(16)
H5 H 0.1508 0.0244 -0.1685
C9 C 0.22959(17) 0.1100(3) -0.17525(15)
H6 H 0.2481 0.1172 -0.1411
C10 C 0.17554(16) 0.1107(3) -0.35423(13)
C11 C 0.14390(18) 0.1745(3) -0.38859(16)
H7 H 0.1522 0.2394 -0.3846
C12 C 0.09977(17) 0.1434(3) -0.42917(14)
H8 H 0.0794 0.1881 -0.4520
C13 C 0.11631(17) -0.0122(3) -0.40419(14)
H9 H 0.1077 -0.0768 -0.4095
C14 C 0.16085(16) 0.0142(3) -0.36267(14)
H10 H 0.1808 -0.0320 -0.3406
C15 C 0.35702(18) 0.2266(3) -0.10122(14)
H11 H 0.3944 0.1951 -0.1051
C16 C 0.3361(2) 0.2460(4) -0.05362(15)
H12 H 0.3568 0.2304 -0.0210
C17 C 0.2791(2) 0.2926(4) -0.06403(16)
H13 H 0.2540 0.3141 -0.0399
C18 C 0.26600(17) 0.3013(3) -0.11880(14)
C19 C 0.21475(16) 0.3465(3) -0.14632(14)
C20 C 0.20869(16) 0.3647(3) -0.19952(13)
C21 C 0.16323(17) 0.4228(3) -0.23077(15)
H14 H 0.1272 0.4494 -0.2203
C22 C 0.18190(18) 0.4321(3) -0.27808(16)
H15 H 0.1615 0.4662 -0.3061
C23 C 0.23809(17) 0.3800(3) -0.27661(14)
H16 H 0.2611 0.3748 -0.3044
C24 C 0.16346(17) 0.3795(3) -0.11718(14)
C25 C 0.1300(2) 0.3165(3) -0.09067(18)
H17 H 0.1370 0.2513 -0.0932
C26 C 0.0863(2) 0.3492(3) -0.06045(18)
H18 H 0.0644 0.3049 -0.0431
C27 C 0.10659(18) 0.5042(3) -0.08062(16)
H19 H 0.0990 0.5691 -0.0775
C28 C 0.15108(19) 0.4743(3) -0.11153(17)
H20 H 0.1727 0.5194 -0.1286
C29 C 0.48180(17) 0.4127(3) -0.19001(16)
H21 H 0.4787 0.4444 -0.2230
H22 H 0.5249 0.3950 -0.1790
H23 H 0.4677 0.4549 -0.1649
C30 C 0.44147(16) 0.3252(3) -0.19492(13)
C31 C 0.46961(17) 0.2368(3) -0.18698(14)
H24 H 0.5133 0.2352 -0.1787
C32 C 0.43771(16) 0.1496(3) -0.19032(14)
C33 C 0.47357(18) 0.0587(3) -0.18248(18)
H25 H 0.4610 0.0251 -0.1534
H26 H 0.5179 0.0723 -0.1760
H27 H 0.4650 0.0199 -0.2130
C34 C 0.36687(17) 0.7094(4) 0.20150(16)
H28 H 0.4044 0.7361 0.2174
C35 C 0.3503(2) 0.7005(4) 0.14767(17)
H29 H 0.3746 0.7195 0.1224
C36 C 0.29276(19) 0.6595(3) 0.13927(16)
H30 H 0.2696 0.6453 0.1073
C37 C 0.27452(16) 0.6423(3) 0.18903(14)
C38 C 0.22000(16) 0.5947(3) 0.20055(14)
C39 C 0.20896(16) 0.5694(3) 0.25047(14)
C40 C 0.16149(18) 0.5083(3) 0.26513(16)
H31 H 0.1287 0.4811 0.2428
C41 C 0.17221(19) 0.4965(3) 0.31712(17)
H32 H 0.1486 0.4595 0.3372
C42 C 0.22628(18) 0.5512(3) 0.33502(15)
H33 H 0.2442 0.5557 0.3695
C43 C 0.17209(16) 0.5693(3) 0.15560(14)
C44 C 0.16428(17) 0.4786(3) 0.13558(14)
H34 H 0.1889 0.4288 0.1508
C45 C 0.11976(16) 0.4611(3) 0.09266(14)
H35 H 0.1154 0.3993 0.0796
C46 C 0.0907(2) 0.6188(3) 0.08840(18)
H36 H 0.0657 0.6676 0.0725
C47 C 0.1341(2) 0.6406(3) 0.13031(19)
H37 H 0.1382 0.7032 0.1420
C48 C 0.3496(2) 0.6699(4) 0.41211(16)
H38 H 0.3879 0.6407 0.4090
C49 C 0.3245(2) 0.6817(5) 0.45942(18)
H39 H 0.3430 0.6619 0.4921
C50 C 0.2685(2) 0.7272(4) 0.44811(18)
H40 H 0.2412 0.7441 0.4715
C51 C 0.25931(19) 0.7444(3) 0.39370(16)
C52 C 0.21072(18) 0.7964(3) 0.36544(17)
C53 C 0.20684(17) 0.8184(3) 0.31259(17)
C54 C 0.16406(19) 0.8806(3) 0.2820(2)
H41 H 0.1289 0.9103 0.2923
C55 C 0.1841(2) 0.8879(3) 0.2359(2)
H42 H 0.1658 0.9249 0.2082
C56 C 0.23807(18) 0.8297(3) 0.23656(18)
H43 H 0.2608 0.8224 0.2088
C57 C 0.1615(2) 0.8385(4) 0.3943(2)
C58 C 0.1129(2) 0.7880(4) 0.4089(2)
H44 H 0.1080 0.7240 0.3999
C59 C 0.0705(2) 0.8316(4) 0.4371(2)
H45 H 0.0385 0.7942 0.4475
C60 C 0.1182(2) 0.9740(4) 0.4348(2)
H46 H 0.1208 1.0387 0.4426
C61 C 0.1630(2) 0.9322(3) 0.4065(2)
H47 H 0.1945 0.9703 0.3960
C62 C 0.47831(17) 0.8598(3) 0.32288(16)
H48 H 0.4835 0.8821 0.2888
H49 H 0.5188 0.8444 0.3416
H50 H 0.4588 0.9089 0.3410
C63 C 0.43740(16) 0.7728(3) 0.31849(13)
C64 C 0.46555(17) 0.6838(3) 0.32752(16)
H51 H 0.5091 0.6822 0.3368
C65 C 0.43347(18) 0.5964(3) 0.32380(16)
C66 C 0.4695(2) 0.5045(3) 0.3319(2)
H52 H 0.4574 0.4719 0.3615
H53 H 0.5139 0.5179 0.3378
H54 H 0.4602 0.4650 0.3017
N1 N 0.32338(13) 0.2256(2) -0.28649(11)
N2 N 0.25249(13) 0.1486(2) -0.21594(11)
N3 N 0.08564(13) 0.0500(2) -0.43644(10)
N4 N 0.31563(13) 0.2599(2) -0.14067(11)
N5 N 0.25464(12) 0.3386(2) -0.23006(11)
N6 N 0.07423(14) 0.4415(2) -0.05513(11)
N7 N 0.32167(13) 0.6744(2) 0.22703(11)
N8 N 0.24833(13) 0.5959(2) 0.29541(11)
N9 N 0.08282(14) 0.5302(2) 0.06940(11)
N10 N 0.31046(14) 0.7066(3) 0.37252(12)
N11 N 0.25201(13) 0.7865(2) 0.28218(12)
N12 N 0.07240(14) 0.9216(2) 0.45020(12)
O1 O 0.38214(10) 0.34007(18) -0.20878(9)
O2 O 0.37786(11) 0.14018(18) -0.19946(10)
O3 O 0.37842(11) 0.7871(2) 0.30520(10)
O4 O 0.37340(11) 0.58727(19) 0.31428(10)
Cl1 Cl 0.01307(4) 0.15748(7) -0.54971(4)
Cl2 Cl 0.01092(4) 0.67153(7) -0.03467(4)
Co1 Co 0.31885(2) 0.24191(4) -0.213285(17)
Co2 Co 0.31515(2) 0.68965(4) 0.299605(19)
Cd1 Cd 0.0000 0.0000 -0.5000
Cd2 Cd 0.0000 0.5000 0.0000
C1B C -0.36764(16) -0.2616(3) -0.68746(15)
H1B H -0.4047 -0.2899 -0.7030
C2B C -0.35116(18) -0.2512(3) -0.63339(15)
H2B H -0.3747 -0.2703 -0.6076
C3B C -0.29349(17) -0.2071(3) -0.62649(14)
H3B H -0.2698 -0.1917 -0.5950
C4B C -0.27664(16) -0.1894(3) -0.67674(14)
C5B C -0.22282(16) -0.1421(3) -0.68947(13)
C6B C -0.21188(15) -0.1224(3) -0.73962(14)
C7B C -0.16235(17) -0.0644(3) -0.75668(15)
H4B H -0.1286 -0.0370 -0.7356
C8B C -0.17449(18) -0.0575(3) -0.80983(16)
H5B H -0.1508 -0.0244 -0.8315
C9B C -0.22959(17) -0.1100(3) -0.82475(15)
H6B H -0.2481 -0.1172 -0.8589
C10B C -0.17554(16) -0.1107(3) -0.64577(13)
C11B C -0.14390(18) -0.1745(3) -0.61141(16)
H7B H -0.1522 -0.2394 -0.6154
C12B C -0.09977(17) -0.1434(3) -0.57083(14)
H8B H -0.0794 -0.1881 -0.5480
C13B C -0.11631(17) 0.0122(3) -0.59581(14)
H9B H -0.1077 0.0768 -0.5905
C14B C -0.16085(16) -0.0142(3) -0.63733(14)
H10B H -0.1808 0.0320 -0.6594
C15B C -0.35702(18) -0.2266(3) -0.89878(14)
H11B H -0.3944 -0.1951 -0.8949
C16B C -0.3361(2) -0.2460(4) -0.94638(15)
H12B H -0.3568 -0.2304 -0.9790
C17B C -0.2791(2) -0.2926(4) -0.93597(16)
H13B H -0.2540 -0.3141 -0.9601
C18B C -0.26600(17) -0.3013(3) -0.88120(14)
C19B C -0.21475(16) -0.3465(3) -0.85368(14)
C20B C -0.20869(16) -0.3647(3) -0.80048(13)
C21B C -0.16323(17) -0.4228(3) -0.76923(15)
H14B H -0.1272 -0.4494 -0.7797
C22B C -0.18190(18) -0.4321(3) -0.72192(16)
H15B H -0.1615 -0.4662 -0.6939
C23B C -0.23809(17) -0.3800(3) -0.72339(14)
H16B H -0.2611 -0.3748 -0.6956
C24B C -0.16346(17) -0.3795(3) -0.88282(14)
C25B C -0.1300(2) -0.3165(3) -0.90933(18)
H17B H -0.1370 -0.2513 -0.9068
C26B C -0.0863(2) -0.3492(3) -0.93955(18)
H18B H -0.0644 -0.3049 -0.9569
C27B C -0.10659(18) -0.5042(3) -0.91938(16)
H19B H -0.0990 -0.5691 -0.9225
C28B C -0.15108(19) -0.4743(3) -0.88847(17)
H20B H -0.1727 -0.5194 -0.8714
C29B C -0.48180(17) -0.4127(3) -0.80999(16)
H21B H -0.4787 -0.4444 -0.7770
H22B H -0.5249 -0.3950 -0.8210
H23B H -0.4677 -0.4549 -0.8351
C30B C -0.44147(16) -0.3252(3) -0.80508(13)
C31B C -0.46961(17) -0.2368(3) -0.81302(14)
H24B H -0.5133 -0.2352 -0.8213
C32B C -0.43771(16) -0.1496(3) -0.80968(14)
C33B C -0.47357(18) -0.0587(3) -0.81752(18)
H25B H -0.4610 -0.0251 -0.8466
H26B H -0.5179 -0.0723 -0.8240
H27B H -0.4650 -0.0199 -0.7870
N1B N -0.32338(13) -0.2256(2) -0.71351(11)
N2B N -0.25249(13) -0.1486(2) -0.78406(11)
N3B N -0.08564(13) -0.0500(2) -0.56356(10)
N4B N -0.31563(13) -0.2599(2) -0.85933(11)
N5B N -0.25464(12) -0.3386(2) -0.76994(11)
N6B N -0.07423(14) -0.4415(2) -0.94487(11)
O1B O -0.38214(10) -0.34007(18) -0.79122(9)
O2B O -0.37786(11) -0.14018(18) -0.80054(10)
Cl1B Cl -0.01307(4) -0.15748(7) -0.45029(4)
Co1B Co -0.31885(2) -0.24191(4) -0.786715(17)
C34B C -0.36687(17) 0.2906(4) -0.20150(16)
H28B H -0.4044 0.2639 -0.2174
C35B C -0.3503(2) 0.2995(4) -0.14767(17)
H29B H -0.3746 0.2805 -0.1224
C36B C -0.29276(19) 0.3405(3) -0.13927(16)
H30B H -0.2696 0.3547 -0.1073
C37B C -0.27452(16) 0.3577(3) -0.18903(14)
C38B C -0.22000(16) 0.4053(3) -0.20055(14)
C39B C -0.20896(16) 0.4306(3) -0.25047(14)
C40B C -0.16149(18) 0.4917(3) -0.26513(16)
H31B H -0.1287 0.5189 -0.2428
C41B C -0.17221(19) 0.5035(3) -0.31712(17)
H32B H -0.1486 0.5405 -0.3372
C42B C -0.22628(18) 0.4488(3) -0.33502(15)
H33B H -0.2442 0.4443 -0.3695
C43B C -0.17209(16) 0.4307(3) -0.15560(14)
C44B C -0.16428(17) 0.5214(3) -0.13558(14)
H34B H -0.1889 0.5712 -0.1508
C45B C -0.11976(16) 0.5389(3) -0.09266(14)
H35B H -0.1154 0.6007 -0.0796
C46B C -0.0907(2) 0.3812(3) -0.08840(18)
H36B H -0.0657 0.3324 -0.0725
C47B C -0.1341(2) 0.3594(3) -0.13031(19)
H37B H -0.1382 0.2968 -0.1420
C48B C -0.3496(2) 0.3301(4) -0.41211(16)
H38B H -0.3879 0.3593 -0.4090
C49B C -0.3245(2) 0.3183(5) -0.45942(18)
H39B H -0.3430 0.3381 -0.4921
C50B C -0.2685(2) 0.2728(4) -0.44811(18)
H40B H -0.2412 0.2559 -0.4715
C51B C -0.25931(19) 0.2556(3) -0.39370(16)
C52B C -0.21072(18) 0.2036(3) -0.36544(17)
C53B C -0.20684(17) 0.1816(3) -0.31259(17)
C54B C -0.16406(19) 0.1194(3) -0.2820(2)
H41B H -0.1289 0.0897 -0.2923
C55B C -0.1841(2) 0.1121(3) -0.2359(2)
H42B H -0.1658 0.0751 -0.2082
C56B C -0.23807(18) 0.1703(3) -0.23656(18)
H43B H -0.2608 0.1776 -0.2088
C57B C -0.1615(2) 0.1615(4) -0.3943(2)
C58B C -0.1129(2) 0.2120(4) -0.4089(2)
H44B H -0.1080 0.2760 -0.3999
C59B C -0.0705(2) 0.1684(4) -0.4371(2)
H45B H -0.0385 0.2058 -0.4475
C60B C -0.1182(2) 0.0260(4) -0.4348(2)
H46B H -0.1208 -0.0387 -0.4426
C61B C -0.1630(2) 0.0678(3) -0.4065(2)
H47B H -0.1945 0.0297 -0.3960
C62B C -0.47831(17) 0.1402(3) -0.32288(16)
H48B H -0.4835 0.1179 -0.2888
H49B H -0.5188 0.1556 -0.3416
H50B H -0.4588 0.0911 -0.3410
C63B C -0.43740(16) 0.2272(3) -0.31849(13)
C64B C -0.46555(17) 0.3162(3) -0.32752(16)
H51B H -0.5091 0.3178 -0.3368
C65B C -0.43347(18) 0.4036(3) -0.32380(16)
C66B C -0.4695(2) 0.4955(3) -0.3319(2)
H52B H -0.4574 0.5281 -0.3615
H53B H -0.5139 0.4821 -0.3378
H54B H -0.4602 0.5350 -0.3017
N7B N -0.32167(13) 0.3256(2) -0.22703(11)
N8B N -0.24833(13) 0.4041(2) -0.29541(11)
N9B N -0.08282(14) 0.4698(2) -0.06940(11)
N10B N -0.31046(14) 0.2934(3) -0.37252(12)
N11B N -0.25201(13) 0.2135(2) -0.28218(12)
N12B N -0.07240(14) 0.0784(2) -0.45020(12)
O3B O -0.37842(11) 0.2129(2) -0.30520(10)
O4B O -0.37340(11) 0.41273(19) -0.31428(10)
Co2B Co -0.31515(2) 0.31035(4) -0.299605(19)
Cl2B Cl -0.01092(4) 0.32847(7) 0.03467(4)
N6B_2 N -0.07423(14) 0.5585(2) 0.05513(11)
N12_2 N 0.07240(14) -0.0784(2) -0.54980(12)
Cd1_2 Cd 0.0000 1.0000 0.5000
Cd2_2 Cd 0.0000 -0.5000 -1.0000
C67 C 0.0436(4) 0.2734(9) 0.6960(6)
H55 H 0.0807 0.2381 0.7010
C68 C -0.0475(3) 0.3299(7) 0.7337(6)
H56 H -0.0394 0.3933 0.7470
H57 H -0.0719 0.2955 0.7560
H58 H -0.0705 0.3333 0.6995
C69 C 0.0314(5) 0.2427(7) 0.7844(5)
H59 H 0.0013 0.2528 0.8081
H60 H 0.0706 0.2727 0.7976
H61 H 0.0380 0.1754 0.7806
N13 N 0.0065(3) 0.2854(4) 0.7320(3)
O5 O 0.0196(4) 0.3229(4) 0.6458(3)
loop_
_geom_bond_atom_site_label_1
_geom_bond_atom_site_label_2
_geom_bond_site_symmetry_1
_geom_bond_site_symmetry_2
C1 H1 1_555 1_555
C2 C1 1_555 1_555
H2 C2 1_555 1_555
C3 C2 1_555 1_555
H3 C3 1_555 1_555
C4 C3 1_555 1_555
C5 C4 1_555 1_555
C6 C5 1_555 1_555
C7 C6 1_555 1_555
H4 C7 1_555 1_555
C8 C7 1_555 1_555
H5 C8 1_555 1_555
C9 C8 1_555 1_555
H6 C9 1_555 1_555
C10 C5 1_555 1_555
C11 C10 1_555 1_555
H7 C11 1_555 1_555
C12 C11 1_555 1_555
H8 C12 1_555 1_555
C13 H9 1_555 1_555
C14 C10 1_555 1_555
H10 C14 1_555 1_555
C15 H11 1_555 1_555
C16 C15 1_555 1_555
H12 C16 1_555 1_555
C17 C16 1_555 1_555
H13 C17 1_555 1_555
C18 C17 1_555 1_555
C19 C18 1_555 1_555
C20 C19 1_555 1_555
C21 C20 1_555 1_555
H14 C21 1_555 1_555
C22 C21 1_555 1_555
H15 C22 1_555 1_555
C23 C22 1_555 1_555
H16 C23 1_555 1_555
C24 C19 1_555 1_555
C25 C24 1_555 1_555
H17 C25 1_555 1_555
C26 C25 1_555 1_555
H18 C26 1_555 1_555
C27 H19 1_555 1_555
C28 C24 1_555 1_555
H20 C28 1_555 1_555
C29 H21 1_555 1_555
H22 C29 1_555 1_555
H23 C29 1_555 1_555
C30 C29 1_555 1_555
C31 C30 1_555 1_555
H24 C31 1_555 1_555
C32 C31 1_555 1_555
C33 C32 1_555 1_555
H25 C33 1_555 1_555
H26 C33 1_555 1_555
H27 C33 1_555 1_555
C34 H28 1_555 1_555
C35 C34 1_555 1_555
H29 C35 1_555 1_555
C36 C35 1_555 1_555
H30 C36 1_555 1_555
C37 C36 1_555 1_555
C38 C37 1_555 1_555
C39 C38 1_555 1_555
C40 C39 1_555 1_555
H31 C40 1_555 1_555
C41 C40 1_555 1_555
H32 C41 1_555 1_555
C42 C41 1_555 1_555
H33 C42 1_555 1_555
C43 C38 1_555 1_555
C44 C43 1_555 1_555
H34 C44 1_555 1_555
C45 C44 1_555 1_555
H35 C45 1_555 1_555
C46 H36 1_555 1_555
C47 C43 1_555 1_555
H37 C47 1_555 1_555
C48 H38 1_555 1_555
C49 C48 1_555 1_555
H39 C49 1_555 1_555
C50 C49 1_555 1_555
H40 C50 1_555 1_555
C51 C50 1_555 1_555
C52 C51 1_555 1_555
C53 C52 1_555 1_555
C54 C53 1_555 1_555
H41 C54 1_555 1_555
C55 C54 1_555 1_555
H42 C55 1_555 1_555
C56 C55 1_555 1_555
H43 C56 1_555 1_555
C57 C52 1_555 1_555
C58 C57 1_555 1_555
H44 C58 1_555 1_555
C59 C58 1_555 1_555
H45 C59 1_555 1_555
C60 H46 1_555 1_555
C61 C57 1_555 1_555
H47 C61 1_555 1_555
C62 H48 1_555 1_555
H49 C62 1_555 1_555
H50 C62 1_555 1_555
C63 C62 1_555 1_555
C64 C63 1_555 1_555
H51 C64 1_555 1_555
C65 C64 1_555 1_555
C66 C65 1_555 1_555
H52 C66 1_555 1_555
H53 C66 1_555 1_555
H54 C66 1_555 1_555
N1 C1 1_555 1_555
N2 C6 1_555 1_555
N3 C12 1_555 1_555
N4 C15 1_555 1_555
N5 C20 1_555 1_555
N6 C26 1_555 1_555
N7 C34 1_555 1_555
N8 C39 1_555 1_555
N9 C45 1_555 1_555
N10 C48 1_555 1_555
N11 C53 1_555 1_555
N12 C59 1_555 1_555
O1 C30 1_555 1_555
O2 C32 1_555 1_555
O3 C63 1_555 1_555
O4 C65 1_555 1_555
Cl1 Cd1 1_555 1_555
Cl2 Cd2 1_555 1_555
Co1 N1 1_555 1_555
Co2 N7 1_555 1_555
Cd1 N3 1_555 1_555
Cd2 N6 1_555 1_555
C67 H55 1_555 1_555
C68 H56 1_555 1_555
H57 C68 1_555 1_555
H58 C68 1_555 1_555
C69 H59 1_555 1_555
H60 C69 1_555 1_555
H61 C69 1_555 1_555
N13 C67 1_555 1_555
O5 C67 1_555 1_555
C1B H1B 1_555 1_555
C2B C1B 1_555 1_555
H2B C2B 1_555 1_555
C3B C2B 1_555 1_555
H3B C3B 1_555 1_555
C4B C3B 1_555 1_555
C5B C4B 1_555 1_555
C6B C5B 1_555 1_555
C7B C6B 1_555 1_555
H4B C7B 1_555 1_555
C8B C7B 1_555 1_555
H5B C8B 1_555 1_555
C9B C8B 1_555 1_555
H6B C9B 1_555 1_555
C10B C5B 1_555 1_555
C11B C10B 1_555 1_555
H7B C11B 1_555 1_555
C12B C11B 1_555 1_555
H8B C12B 1_555 1_555
C13B H9B 1_555 1_555
C14B C10B 1_555 1_555
H10B C14B 1_555 1_555
C15B H11B 1_555 1_555
C16B C15B 1_555 1_555
H12B C16B 1_555 1_555
C17B C16B 1_555 1_555
H13B C17B 1_555 1_555
C18B C17B 1_555 1_555
C19B C18B 1_555 1_555
C20B C19B 1_555 1_555
C21B C20B 1_555 1_555
H14B C21B 1_555 1_555
C22B C21B 1_555 1_555
H15B C22B 1_555 1_555
C23B C22B 1_555 1_555
H16B C23B 1_555 1_555
C24B C19B 1_555 1_555
C25B C24B 1_555 1_555
H17B C25B 1_555 1_555
C26B C25B 1_555 1_555
H18B C26B 1_555 1_555
C27B H19B 1_555 1_555
C28B C24B 1_555 1_555
H20B C28B 1_555 1_555
C29B H21B 1_555 1_555
H22B C29B 1_555 1_555
H23B C29B 1_555 1_555
C30B C29B 1_555 1_555
C31B C30B 1_555 1_555
H24B C31B 1_555 1_555
C32B C31B 1_555 1_555
C33B C32B 1_555 1_555
H25B C33B 1_555 1_555
H26B C33B 1_555 1_555
H27B C33B 1_555 1_555
N1B C1B 1_555 1_555
N2B C6B 1_555 1_555
N3B Cd1 1_555 1_555
N4B C15B 1_555 1_555
N5B C20B 1_555 1_555
N6B C26B 1_555 1_555
O1B C30B 1_555 1_555
O2B C32B 1_555 1_555
Cl1B Cd1 1_555 1_555
Co1B N1B 1_555 1_555
C34B H28B 1_555 1_555
C35B C34B 1_555 1_555
H29B C35B 1_555 1_555
C36B C35B 1_555 1_555
H30B C36B 1_555 1_555
C37B C36B 1_555 1_555
C38B C37B 1_555 1_555
C39B C38B 1_555 1_555
C40B C39B 1_555 1_555
H31B C40B 1_555 1_555
C41B C40B 1_555 1_555
H32B C41B 1_555 1_555
C42B C41B 1_555 1_555
H33B C42B 1_555 1_555
C43B C38B 1_555 1_555
C44B C43B 1_555 1_555
H34B C44B 1_555 1_555
C45B C44B 1_555 1_555
H35B C45B 1_555 1_555
C46B H36B 1_555 1_555
C47B C43B 1_555 1_555
H37B C47B 1_555 1_555
C48B H38B 1_555 1_555
C49B C48B 1_555 1_555
H39B C49B 1_555 1_555
C50B C49B 1_555 1_555
H40B C50B 1_555 1_555
C51B C50B 1_555 1_555
C52B C51B 1_555 1_555
C53B C52B 1_555 1_555
C54B C53B 1_555 1_555
H41B C54B 1_555 1_555
C55B C54B 1_555 1_555
H42B C55B 1_555 1_555
C56B C55B 1_555 1_555
H43B C56B 1_555 1_555
C57B C52B 1_555 1_555
C58B C57B 1_555 1_555
H44B C58B 1_555 1_555
C59B C58B 1_555 1_555
H45B C59B 1_555 1_555
C60B H46B 1_555 1_555
C61B C57B 1_555 1_555
H47B C61B 1_555 1_555
C62B H48B 1_555 1_555
H49B C62B 1_555 1_555
H50B C62B 1_555 1_555
C63B C62B 1_555 1_555
C64B C63B 1_555 1_555
H51B C64B 1_555 1_555
C65B C64B 1_555 1_555
C66B C65B 1_555 1_555
H52B C66B 1_555 1_555
H53B C66B 1_555 1_555
H54B C66B 1_555 1_555
N7B C34B 1_555 1_555
N8B C39B 1_555 1_555
N9B Cd2 1_555 1_555
N10B C48B 1_555 1_555
N11B C53B 1_555 1_555
N12B Cd1 1_555 1_555
O3B C63B 1_555 1_555
O4B C65B 1_555 1_555
Co2B N7B 1_555 1_555
Cl2B Cd2 1_555 1_555
N6B_2 Cd2 1_555 1_555
N12_2 Cd1 1_555 1_555
Cd1_2 N12 1_555 1_555
Cd2_2 N6B 1_555 1_555
C4 N1 1_555 1_555
C9 N2 1_555 1_555
C13 C14 1_555 1_555
C13 N3 1_555 1_555
C18 N4 1_555 1_555
C23 N5 1_555 1_555
C27 C28 1_555 1_555
C27 N6 1_555 1_555
C37 N7 1_555 1_555
C42 N8 1_555 1_555
C46 C47 1_555 1_555
C46 N9 1_555 1_555
C51 N10 1_555 1_555
C56 N11 1_555 1_555
C60 C61 1_555 1_555
C60 N12 1_555 1_555
N2 Co1 1_555 1_555
N4 Co1 1_555 1_555
N5 Co1 1_555 1_555
N8 Co2 1_555 1_555
N9 Cd2 1_555 1_555
N10 Co2 1_555 1_555
N11 Co2 1_555 1_555
O1 Co1 1_555 1_555
O2 Co1 1_555 1_555
O3 Co2 1_555 1_555
O4 Co2 1_555 1_555
C68 N13 1_555 1_555
C69 N13 1_555 1_555
C4B N1B 1_555 1_555
C9B N2B 1_555 1_555
C12B N3B 1_555 1_555
C13B C14B 1_555 1_555
C13B N3B 1_555 1_555
C18B N4B 1_555 1_555
C23B N5B 1_555 1_555
C27B C28B 1_555 1_555
C27B N6B 1_555 1_555
N2B Co1B 1_555 1_555
N4B Co1B 1_555 1_555
N5B Co1B 1_555 1_555
O1B Co1B 1_555 1_555
O2B Co1B 1_555 1_555
C37B N7B 1_555 1_555
C42B N8B 1_555 1_555
C45B N9B 1_555 1_555
C46B C47B 1_555 1_555
C46B N9B 1_555 1_555
C51B N10B 1_555 1_555
C56B N11B 1_555 1_555
C59B N12B 1_555 1_555
C60B C61B 1_555 1_555
C60B N12B 1_555 1_555
N8B Co2B 1_555 1_555
N10B Co2B 1_555 1_555
N11B Co2B 1_555 1_555
O3B Co2B 1_555 1_555
O4B Co2B 1_555 1_555

#END
