
#######################################################################
#
#                 Cambridge Crystallographic Data Centre
#                                CCDC 
#
#######################################################################
#
# If this CIF has been generated from an entry in the Cambridge 
# Structural Database, then it will include bibliographic, chemical, 
# crystal, experimental, refinement or atomic coordinate data resulting 
# from the CCDC's data processing and validation procedures.
#
#######################################################################

data_COFZON
_symmetry_cell_setting           monoclinic
_symmetry_space_group_name_H-M   'P 21/c'
_symmetry_Int_Tables_number      14
_space_group_name_Hall           '-P 2ybc'
loop_
_symmetry_equiv_pos_site_id
_symmetry_equiv_pos_as_xyz
1 x,y,z
2 -x,1/2+y,1/2-z
3 -x,-y,-z
4 x,1/2-y,1/2+z
_cell_length_a                   9.287(2)
_cell_length_b                   14.235(3)
_cell_length_c                   10.528(2)
_cell_angle_alpha                90
_cell_angle_beta                 95.45(3)
_cell_angle_gamma                90
_cell_volume                     1385.51
loop_
_atom_site_label
_atom_site_type_symbol
_atom_site_fract_x
_atom_site_fract_y
_atom_site_fract_z
Sm1 Sm 0.375387(14) 0.133086(9) 0.030166(13)
C1 C 0.0964(3) 0.2459(2) -0.1519(3)
C2 C -0.0381(3) 0.2769(2) -0.2035(3)
H1 H -0.0454 0.3255 -0.2627
C3 C -0.1606(3) 0.2349(2) -0.1660(3)
H2 H -0.2518 0.2573 -0.1954
C4 C -0.1457(3) 0.1582(2) -0.0832(3)
C5 C -0.0075(3) 0.13381(19) -0.0334(3)
H3 H 0.0029 0.0846 0.0248
C6 C 0.2363(3) 0.28506(19) -0.1915(3)
C7 C -0.2748(3) 0.1015(2) -0.0517(3)
C8 C 0.6111(3) -0.0068(2) 0.2351(3)
C9 C 0.6707(3) 0.0126(2) 0.3695(3)
C10 C 0.7837(4) -0.0392(2) 0.4275(3)
H4 H 0.8264 -0.0864 0.3830
C11 C 0.8325(4) -0.0200(3) 0.5518(3)
H5 H 0.9101 -0.0531 0.5924
C12 C 0.7649(5) 0.0486(3) 0.6146(4)
H6 H 0.7969 0.0600 0.6995
C13 C 0.6112(4) 0.0830(2) 0.4416(3)
H7 H 0.5364 0.1194 0.4029
N1 N 0.1116(2) 0.17702(17) -0.0644(2)
N2 N 0.6565(4) 0.0997(2) 0.5616(3)
O1 O 0.4917(3) 0.26167(16) 0.1512(2)
O2 O 0.2305(2) 0.33231(15) -0.29212(19)
O3 O 0.3486(2) 0.26551(14) -0.12061(19)
O4 O -0.3918(2) 0.14404(16) -0.0481(2)
O5 O -0.2527(2) 0.01578(15) -0.0358(2)
O6 O 0.5192(3) 0.04814(17) 0.1827(2)
O7 O 0.6606(3) -0.07700(16) 0.1840(2)
H8 H 0.5430 0.3057 0.1245
H9 H 0.4709 0.2795 0.2242
Sm1C Sm 0.375387(14) 0.366914(9) -0.469834(13)
Sm1_2 Sm -0.624613(14) 0.133086(9) 0.030166(13)
Sm1B Sm -0.375387(14) -0.133086(9) -0.030166(13)
Sm1B_2 Sm 0.624613(14) -0.133086(9) -0.030166(13)
O2C O 0.2305(2) 0.16769(15) 0.20788(19)
O4_2 O 0.6082(2) 0.14404(16) -0.0481(2)
O5B O 0.2527(2) -0.01578(15) 0.0358(2)
O7B O 0.3394(3) 0.07700(16) -0.1840(2)
loop_
_geom_bond_atom_site_label_1
_geom_bond_atom_site_label_2
_geom_bond_site_symmetry_1
_geom_bond_site_symmetry_2
Sm1 N1 1_555 1_555
C1 C2 1_555 1_555
C2 H1 1_555 1_555
C3 C2 1_555 1_555
H2 C3 1_555 1_555
C4 C3 1_555 1_555
C5 C4 1_555 1_555
H3 C5 1_555 1_555
C6 C1 1_555 1_555
C7 C4 1_555 1_555
C8 C9 1_555 1_555
C9 C10 1_555 1_555
C10 H4 1_555 1_555
C11 C10 1_555 1_555
H5 C11 1_555 1_555
C12 C11 1_555 1_555
H6 C12 1_555 1_555
C13 C9 1_555 1_555
H7 C13 1_555 1_555
N1 C1 1_555 1_555
N2 C12 1_555 1_555
O1 Sm1 1_555 1_555
O2 C6 1_555 1_555
O3 Sm1 1_555 1_555
O4 C7 1_555 1_555
O5 C7 1_555 1_555
O6 Sm1 1_555 1_555
O7 C8 1_555 1_555
H8 O1 1_555 1_555
H9 O1 1_555 1_555
Sm1C O2 1_555 1_555
Sm1_2 O4 1_555 1_555
Sm1B O5 1_555 1_555
Sm1B_2 O7 1_555 1_555
O2C Sm1 1_555 1_555
O4_2 Sm1 1_555 1_555
O5B Sm1 1_555 1_555
O7B Sm1 1_555 1_555
C5 N1 1_555 1_555
C6 O3 1_555 1_555
C8 O6 1_555 1_555
C13 N2 1_555 1_555

#END
