
#######################################################################
#
#                 Cambridge Crystallographic Data Centre
#                                CCDC 
#
#######################################################################
#
# If this CIF has been generated from an entry in the Cambridge 
# Structural Database, then it will include bibliographic, chemical, 
# crystal, experimental, refinement or atomic coordinate data resulting 
# from the CCDC's data processing and validation procedures.
#
#######################################################################

data_COGCOS
_symmetry_cell_setting           orthorhombic
_symmetry_space_group_name_H-M   'P 21 21 21'
_symmetry_Int_Tables_number      19
_space_group_name_Hall           'P 2ac 2ab'
loop_
_symmetry_equiv_pos_site_id
_symmetry_equiv_pos_as_xyz
1 x,y,z
2 1/2-x,-y,1/2+z
3 1/2+x,1/2-y,-z
4 -x,1/2+y,1/2-z
_cell_length_a                   13.4739(3)
_cell_length_b                   17.0161(4)
_cell_length_c                   29.6071(6)
_cell_angle_alpha                90
_cell_angle_beta                 90
_cell_angle_gamma                90
_cell_volume                     6788.12
loop_
_atom_site_label
_atom_site_type_symbol
_atom_site_fract_x
_atom_site_fract_y
_atom_site_fract_z
Co1 Co 0.00992(8) 0.25492(7) 0.36600(3)
O1 O -0.0115(5) 0.3460(4) 0.3286(2)
O2 O -0.0313(5) 0.6733(4) 0.1776(2)
N1 N 0.1221(5) 0.2821(4) 0.4084(2)
N2 N 0.3968(5) 0.2784(4) 0.5956(2)
O3 O -0.1689(6) 0.6202(4) 0.1524(2)
N3 N 0.2081(4) 0.2399(4) 0.4085(2)
H1 H 0.2227 0.2032 0.3897
C1 C -0.0805(7) 0.4458(4) 0.2826(3)
C2 C -0.0849(7) 0.3829(4) 0.3193(3)
C3 C -0.0864(7) 0.5546(4) 0.2126(3)
C4 C -0.0966(7) 0.6191(4) 0.1770(2)
C5 C 0.3856(7) 0.3302(4) 0.5620(3)
C6 C 0.1299(7) 0.3342(4) 0.4408(3)
O4 O -0.1669(5) 0.3680(5) 0.3360(3)
C7 C 0.0108(6) 0.4784(5) 0.2667(3)
N4 N 0.3053(5) 0.2414(5) 0.5972(2)
H2 H 0.2895 0.2055 0.6163
C8 C 0.2936(6) 0.3255(4) 0.5417(3)
C9 C 0.0074(6) 0.5309(5) 0.2291(3)
C10 C 0.2199(6) 0.3251(4) 0.4634(3)
C11 C -0.1732(6) 0.5246(4) 0.2292(3)
H3 H -0.2339 0.5407 0.2174
C12 C -0.1691(7) 0.4688(4) 0.2644(3)
H4 H -0.2277 0.4472 0.2755
C13 C 0.2663(6) 0.2640(5) 0.4423(3)
C14 C 0.2566(8) 0.3732(5) 0.5028(3)
H5 H 0.3098 0.4071 0.4924
H6 H 0.2030 0.4066 0.5132
C15 C 0.2450(6) 0.2689(5) 0.5652(3)
C16 C 0.3684(7) 0.2294(6) 0.4489(3)
H7 H 0.3996 0.2537 0.4744
H8 H 0.4077 0.2385 0.4223
H9 H 0.3628 0.1739 0.4541
C17 C 0.1392(7) 0.2385(7) 0.5606(3)
H10 H 0.1281 0.1977 0.5824
H11 H 0.1295 0.2180 0.5308
H12 H 0.0934 0.2808 0.5659
C18 C 0.0487(8) 0.3921(5) 0.4497(3)
H13 H -0.0046 0.3836 0.4288
H14 H 0.0739 0.4445 0.4461
H15 H 0.0247 0.3854 0.4800
C19 C 0.4755(9) 0.3816(6) 0.5491(4)
H16 H 0.5294 0.3711 0.5695
H17 H 0.4575 0.4361 0.5511
H18 H 0.4957 0.3697 0.5188
C20 C 0.1082(8) 0.4614(6) 0.2849(4)
H19 H 0.1135 0.4294 0.3103
C21 C 0.0989(9) 0.5544(7) 0.2099(4)
H20 H 0.0985 0.5864 0.1844
C22 C 0.1858(9) 0.5319(8) 0.2274(5)
H21 H 0.2443 0.5450 0.2125
C23 C 0.1902(9) 0.4902(7) 0.2665(5)
H22 H 0.2511 0.4819 0.2805
Co1B Co 0.50992(8) 0.24508(7) 0.63400(3)
Co1C Co -0.00992(8) 0.75492(7) 0.13400(3)
O2C O 0.0313(5) 0.1733(4) 0.3224(2)
N2B N -0.1032(5) 0.2216(4) 0.4044(2)
Co2 Co 0.52848(9) -0.25492(7) 0.53901(3)
Co3 Co 0.47220(9) 0.24551(7) 0.30976(4)
O5 O 0.4896(5) 0.1512(4) 0.3456(2)
O6 O 0.4602(5) 0.3300(3) 0.3531(2)
O7 O 0.5520(6) -0.1965(4) 0.4837(2)
O8 O 0.4896(4) 0.6411(3) 0.5151(2)
N5 N 0.1721(5) 0.2497(4) 0.0755(2)
H23 H 0.1897 0.2818 0.0546
N6 N 0.8536(5) 0.2808(4) 0.0784(2)
N7 N 0.3570(5) 0.2253(4) 0.2686(2)
C24 C 0.5734(6) -0.0689(4) 0.4555(3)
N8 N 0.5829(5) 0.2741(4) 0.2685(2)
O9 O 0.3338(5) 0.6632(4) 0.4970(2)
N9 N 0.0810(5) 0.2180(4) 0.0787(2)
C25 C 0.4791(6) -0.0399(5) 0.4419(2)
N10 N 0.7644(4) 0.2431(4) 0.0757(2)
H24 H 0.7497 0.2080 0.0559
C26 C 0.4734(7) 0.0173(4) 0.4071(3)
N11 N 0.2722(5) 0.2678(4) 0.2681(2)
H25 H 0.2598 0.3059 0.2863
N12 N 0.6706(5) 0.2398(5) 0.2688(2)
H26 H 0.6871 0.2038 0.2878
C27 C 0.4205(6) 0.5650(4) 0.4549(2)
C28 C 0.3961(8) 0.3839(4) 0.3530(3)
C29 C 0.3305(6) 0.5385(5) 0.4383(3)
H27 H 0.2716 0.5586 0.4498
C30 C 0.5807(7) -0.1299(4) 0.4932(3)
C31 C 0.5056(6) 0.4768(4) 0.4018(3)
O10 O 0.3224(7) 0.3813(5) 0.3301(3)
C32 C 0.4148(6) 0.6274(4) 0.4917(2)
O11 O 0.6489(6) 0.1275(5) 0.3359(3)
C33 C 0.5115(6) 0.5353(5) 0.4371(3)
C34 C 0.2567(7) 0.1825(4) 0.2143(3)
C35 C 0.2087(6) 0.2429(5) 0.2351(2)
C36 C 0.1759(6) 0.1763(4) 0.1353(3)
C37 C 0.6518(7) 0.0176(5) 0.4016(3)
H28 H 0.7104 0.0348 0.3882
C38 C 0.3274(7) 0.4819(5) 0.4044(3)
H29 H 0.2662 0.4668 0.3928
C39 C 0.5648(7) 0.0481(5) 0.3877(2)
C40 C 0.7028(6) 0.2687(5) 0.1083(3)
C41 C 0.4114(7) 0.4478(4) 0.3877(2)
C42 C 0.7317(7) 0.2669(6) 0.2364(3)
C43 C 0.7540(7) 0.3224(5) 0.1340(3)
C44 C 0.5699(8) 0.1132(5) 0.3532(3)
C45 C 0.2322(6) 0.2256(5) 0.1087(3)
C46 C 0.2149(8) 0.1320(5) 0.1760(3)
H30 H 0.2666 0.0965 0.1659
H31 H 0.1614 0.1002 0.1881
C47 C 0.8466(6) 0.3284(5) 0.1145(3)
O12 O 0.6030(6) -0.1108(4) 0.5305(2)
C48 C 0.6782(7) 0.3217(5) 0.2131(3)
C49 C 0.6560(7) -0.0394(5) 0.4357(3)
H32 H 0.7177 -0.0576 0.4450
C50 C 0.3757(8) 0.0406(5) 0.3932(3)
H33 H 0.3685 0.0761 0.3696
C51 C 0.0839(6) 0.1709(5) 0.1163(2)
C52 C 0.3463(7) 0.1724(5) 0.2347(3)
C53 C 0.7153(8) 0.3692(5) 0.1730(3)
H34 H 0.6612 0.4019 0.1623
H35 H 0.7676 0.4039 0.1834
C54 C 0.5967(8) 0.4516(5) 0.3821(4)
H36 H 0.5946 0.4160 0.3583
C55 C 0.5883(7) 0.3263(5) 0.2334(3)
C56 C 0.3900(7) -0.0667(5) 0.4633(3)
H37 H 0.3940 -0.1027 0.4869
C57 C 0.6069(8) 0.5611(6) 0.4509(3)
H38 H 0.6127 0.5978 0.4740
C58 C 0.8364(7) 0.2385(7) 0.2307(3)
H39 H 0.8506 0.1995 0.2532
H40 H 0.8813 0.2819 0.2342
H41 H 0.8442 0.2160 0.2012
C59 C 0.6865(8) 0.4773(7) 0.3966(4)
H42 H 0.7446 0.4579 0.3838
C60 C 0.2946(7) 0.0121(6) 0.4137(4)
H43 H 0.2323 0.0280 0.4037
C61 C -0.0031(7) 0.1238(6) 0.1305(3)
H44 H 0.0128 0.0952 0.1575
H45 H -0.0205 0.0876 0.1069
H46 H -0.0582 0.1582 0.1363
C62 C 0.9345(7) 0.3800(5) 0.1262(3)
H47 H 0.9877 0.3698 0.1055
H48 H 0.9560 0.3687 0.1564
H49 H 0.9154 0.4343 0.1241
C63 C 0.5019(8) 0.3787(7) 0.2219(4)
H50 H 0.5195 0.4121 0.1970
H51 H 0.4853 0.4104 0.2476
H52 H 0.4458 0.3470 0.2137
C64 C 0.6907(7) 0.5322(7) 0.4304(4)
H53 H 0.7523 0.5505 0.4398
C65 C 0.5981(7) 0.2391(7) 0.1124(3)
H54 H 0.5852 0.2018 0.0888
H55 H 0.5528 0.2824 0.1098
H56 H 0.5895 0.2143 0.1413
C66 C 0.1110(7) 0.2785(6) 0.2274(3)
H57 H 0.1010 0.3206 0.2485
H58 H 0.0602 0.2395 0.2315
H59 H 0.1077 0.2987 0.1972
C67 C 0.3372(7) 0.2510(7) 0.1127(3)
H60 H 0.3532 0.2858 0.0882
H61 H 0.3798 0.2058 0.1115
H62 H 0.3467 0.2779 0.1408
C68 C 0.4283(8) 0.1134(6) 0.2257(4)
H63 H 0.4104 0.0811 0.2004
H64 H 0.4375 0.0809 0.2519
H65 H 0.4889 0.1408 0.2191
C69 C 0.3011(7) -0.0408(7) 0.4498(4)
H66 H 0.2438 -0.0578 0.4643
Co2_2 Co 0.52848(9) 0.74508(7) 0.53901(3)
Co2A Co -0.02848(9) 0.25492(7) 0.03901(3)
Co2A_2 Co 0.97152(9) 0.25492(7) 0.03901(3)
O8_2 O 0.4896(4) -0.3589(3) 0.5151(2)
N6A N 0.6464(5) -0.2808(4) 0.5784(2)
N9A N 0.4190(5) -0.2180(4) 0.5787(2)
loop_
_geom_bond_atom_site_label_1
_geom_bond_atom_site_label_2
_geom_bond_site_symmetry_1
_geom_bond_site_symmetry_2
Co1 O1 1_555 1_555
O1 C2 1_555 1_555
O2 C4 1_555 1_555
N1 Co1 1_555 1_555
N2 C5 1_555 1_555
O3 C4 1_555 1_555
N3 N1 1_555 1_555
H1 N3 1_555 1_555
C1 C2 1_555 1_555
C2 O4 1_555 1_555
C3 C4 1_555 1_555
C5 C8 1_555 1_555
C6 N1 1_555 1_555
C7 C1 1_555 1_555
N4 N2 1_555 1_555
H2 N4 1_555 1_555
C8 C14 1_555 1_555
C9 C3 1_555 1_555
C10 C6 1_555 1_555
C11 C3 1_555 1_555
H3 C11 1_555 1_555
C12 C1 1_555 1_555
H4 C12 1_555 1_555
C13 N3 1_555 1_555
C14 C10 1_555 1_555
H5 C14 1_555 1_555
H6 C14 1_555 1_555
C15 N4 1_555 1_555
C16 C13 1_555 1_555
H7 C16 1_555 1_555
H8 C16 1_555 1_555
H9 C16 1_555 1_555
C17 C15 1_555 1_555
H10 C17 1_555 1_555
H11 C17 1_555 1_555
H12 C17 1_555 1_555
C18 C6 1_555 1_555
H13 C18 1_555 1_555
H14 C18 1_555 1_555
H15 C18 1_555 1_555
C19 C5 1_555 1_555
H16 C19 1_555 1_555
H17 C19 1_555 1_555
H18 C19 1_555 1_555
C20 C7 1_555 1_555
H19 C20 1_555 1_555
C21 C9 1_555 1_555
H20 C21 1_555 1_555
C22 C21 1_555 1_555
H21 C22 1_555 1_555
C23 C20 1_555 1_555
H22 C23 1_555 1_555
Co2 O7 1_555 1_555
Co3 O5 1_555 1_555
O5 C44 1_555 1_555
O6 Co3 1_555 1_555
O7 C30 1_555 1_555
O8 C32 1_555 1_555
N5 H23 1_555 1_555
N6 N10 1_555 1_555
N7 Co3 1_555 1_555
C24 C25 1_555 1_555
N8 Co3 1_555 1_555
O9 C32 1_555 1_555
N9 N5 1_555 1_555
C25 C26 1_555 1_555
N10 H24 1_555 1_555
C26 C39 1_555 1_555
N11 N7 1_555 1_555
H25 N11 1_555 1_555
N12 N8 1_555 1_555
H26 N12 1_555 1_555
C27 C29 1_555 1_555
C28 O6 1_555 1_555
C29 H27 1_555 1_555
C30 C24 1_555 1_555
C31 C33 1_555 1_555
O10 C28 1_555 1_555
C32 C27 1_555 1_555
O11 C44 1_555 1_555
C33 C27 1_555 1_555
C34 C35 1_555 1_555
C35 N11 1_555 1_555
C36 C45 1_555 1_555
C37 H28 1_555 1_555
C38 C29 1_555 1_555
H29 C38 1_555 1_555
C39 C37 1_555 1_555
C40 N10 1_555 1_555
C41 C28 1_555 1_555
C42 N12 1_555 1_555
C43 C40 1_555 1_555
C44 C39 1_555 1_555
C45 N5 1_555 1_555
C46 C34 1_555 1_555
H30 C46 1_555 1_555
H31 C46 1_555 1_555
C47 N6 1_555 1_555
O12 C30 1_555 1_555
C48 C42 1_555 1_555
C49 C24 1_555 1_555
H32 C49 1_555 1_555
C50 C26 1_555 1_555
H33 C50 1_555 1_555
C51 N9 1_555 1_555
C52 N7 1_555 1_555
C53 C43 1_555 1_555
H34 C53 1_555 1_555
H35 C53 1_555 1_555
C54 C31 1_555 1_555
H36 C54 1_555 1_555
C55 N8 1_555 1_555
C56 C25 1_555 1_555
H37 C56 1_555 1_555
C57 C33 1_555 1_555
H38 C57 1_555 1_555
C58 C42 1_555 1_555
H39 C58 1_555 1_555
H40 C58 1_555 1_555
H41 C58 1_555 1_555
C59 C54 1_555 1_555
H42 C59 1_555 1_555
C60 C50 1_555 1_555
H43 C60 1_555 1_555
C61 C51 1_555 1_555
H44 C61 1_555 1_555
H45 C61 1_555 1_555
H46 C61 1_555 1_555
C62 C47 1_555 1_555
H47 C62 1_555 1_555
H48 C62 1_555 1_555
H49 C62 1_555 1_555
C63 C55 1_555 1_555
H50 C63 1_555 1_555
H51 C63 1_555 1_555
H52 C63 1_555 1_555
C64 C57 1_555 1_555
H53 C64 1_555 1_555
C65 C40 1_555 1_555
H54 C65 1_555 1_555
H55 C65 1_555 1_555
H56 C65 1_555 1_555
C66 C35 1_555 1_555
H57 C66 1_555 1_555
H58 C66 1_555 1_555
H59 C66 1_555 1_555
C67 C45 1_555 1_555
H60 C67 1_555 1_555
H61 C67 1_555 1_555
H62 C67 1_555 1_555
C68 C52 1_555 1_555
H63 C68 1_555 1_555
H64 C68 1_555 1_555
H65 C68 1_555 1_555
C69 C56 1_555 1_555
H66 C69 1_555 1_555
Co1B N2 1_555 1_555
Co1C O2 1_555 1_555
O2C Co1 1_555 1_555
N2B Co1 1_555 1_555
Co2_2 O8 1_555 1_555
Co2A N9 1_555 1_555
Co2A_2 N6 1_555 1_555
O8_2 Co2 1_555 1_555
N6A Co2 1_555 1_555
N9A Co2 1_555 1_555
C7 C9 1_555 1_555
C8 C15 1_555 1_555
C10 C13 1_555 1_555
C11 C12 1_555 1_555
C22 C23 1_555 1_555
C31 C41 1_555 1_555
C34 C52 1_555 1_555
C36 C46 1_555 1_555
C36 C51 1_555 1_555
C37 C49 1_555 1_555
C38 C41 1_555 1_555
C43 C47 1_555 1_555
C48 C53 1_555 1_555
C48 C55 1_555 1_555
C59 C64 1_555 1_555
C60 C69 1_555 1_555

#END
