
#######################################################################
#
#                 Cambridge Crystallographic Data Centre
#                                CCDC 
#
#######################################################################
#
# If this CIF has been generated from an entry in the Cambridge 
# Structural Database, then it will include bibliographic, chemical, 
# crystal, experimental, refinement or atomic coordinate data resulting 
# from the CCDC's data processing and validation procedures.
#
#######################################################################

data_COGWOM
_symmetry_cell_setting           monoclinic
_symmetry_space_group_name_H-M   'C 2/c'
_symmetry_Int_Tables_number      15
_space_group_name_Hall           '-C 2yn'
loop_
_symmetry_equiv_pos_site_id
_symmetry_equiv_pos_as_xyz
1 x,y,z
2 -x,y,1/2-z
3 1/2+x,1/2+y,z
4 1/2-x,1/2+y,1/2-z
5 -x,-y,-z
6 x,-y,1/2+z
7 1/2-x,1/2-y,-z
8 1/2+x,1/2-y,1/2+z
_cell_length_a                   25.6110(7)
_cell_length_b                   11.5667(3)
_cell_length_c                   18.5397(6)
_cell_angle_alpha                90
_cell_angle_beta                 114.3450(10)
_cell_angle_gamma                90
_cell_volume                     5003.74
loop_
_atom_site_label
_atom_site_type_symbol
_atom_site_fract_x
_atom_site_fract_y
_atom_site_fract_z
I1 I 1.043423(11) 0.69206(3) 0.442305(16)
Cd1 Cd 1.0000 0.5000 0.5000
N1 N 0.94128(13) 0.4392(3) 0.35629(18)
C1 C 0.75375(16) 0.5221(3) -0.0054(2)
C2 C 0.74765(16) 0.6137(3) -0.0642(2)
C3 C 0.80388(14) 0.4335(3) 0.1225(2)
C4 C 0.80054(15) 0.5179(3) 0.0677(2)
H1 H 0.8298 0.5720 0.0798
C5 C 0.71764(15) 0.3570(3) 0.0395(2)
C6 C 0.71179(15) 0.4363(3) -0.0193(2)
H2 H 0.6802 0.4328 -0.0679
C7 C 0.79446(19) 0.6791(4) -0.0587(3)
H3 H 0.8302 0.6639 -0.0182
C8 C 0.85315(15) 0.4304(3) 0.2022(2)
C9 C 0.69474(18) 0.6381(3) -0.1256(2)
H4 H 0.6627 0.5954 -0.1306
C10 C 0.89258(18) 0.3801(4) 0.3397(2)
H5 H 0.8883 0.3413 0.3808
C11 C 0.84862(18) 0.3735(4) 0.2652(2)
H6 H 0.8159 0.3309 0.2571
C12 C 0.94582(17) 0.4901(4) 0.2947(2)
H7 H 0.9795 0.5300 0.3038
C13 C 0.78905(19) 0.7666(4) -0.1123(3)
H8 H 0.8210 0.8098 -0.1072
C14 C 0.90406(16) 0.4876(4) 0.2186(2)
H9 H 0.9101 0.5246 0.1782
C15 C 0.6895(2) 0.7252(4) -0.1793(2)
C16 C 0.7368(2) 0.7900(3) -0.1730(3)
N2 N 0.76270(13) 0.3545(3) 0.10989(17)
O1 O 0.72694(17) 0.8742(3) -0.22898(19)
O2 O 0.63891(16) 0.7550(3) -0.2403(2)
C17 C 0.67082(15) 0.2708(3) 0.0285(2)
C18 C 0.62986(18) 0.2388(4) -0.0446(2)
H10 H 0.6313 0.2678 -0.0906
C19 C 0.6663(2) 0.2242(5) 0.0940(3)
H11 H 0.6930 0.2425 0.1446
C20 C 0.7741(3) 0.9398(5) -0.2276(4)
H12 H 0.7925 0.9775 -0.1772
H13 H 0.7607 0.9970 -0.2688
H14 H 0.8009 0.8896 -0.2359
N3 N 0.58181(13) 0.1181(3) 0.01358(19)
C21 C 0.58685(18) 0.1639(4) -0.0492(3)
H15 H 0.5596 0.1440 -0.0992
C22 C 0.6212(2) 0.1497(5) 0.0836(3)
H16 H 0.6185 0.1201 0.1286
C23 C 0.5888(3) 0.6941(6) -0.2467(4)
H17 H 0.5922 0.6143 -0.2582
H18 H 0.5558 0.7271 -0.2886
H19 H 0.5846 0.7000 -0.1977
I1D I 0.956577(11) 0.30794(3) 0.557695(16)
N1D N 1.05872(13) 0.5608(3) 0.64371(18)
C1D C 1.24625(16) 0.4779(3) 1.0054(2)
C2D C 1.25235(16) 0.3863(3) 1.0642(2)
C3D C 1.19612(14) 0.5665(3) 0.8775(2)
C4D C 1.19946(15) 0.4821(3) 0.9323(2)
H1D H 1.1702 0.4280 0.9202
C5D C 1.28236(15) 0.6430(3) 0.9605(2)
C6D C 1.28821(15) 0.5637(3) 1.0193(2)
H2D H 1.3198 0.5672 1.0679
C7D C 1.20554(19) 0.3209(4) 1.0587(3)
H3D H 1.1698 0.3361 1.0182
C8D C 1.14685(15) 0.5696(3) 0.7978(2)
C9D C 1.30526(18) 0.3619(3) 1.1256(2)
H4D H 1.3373 0.4046 1.1306
C10D C 1.10742(18) 0.6199(4) 0.6603(2)
H5D H 1.1117 0.6587 0.6192
C11D C 1.15138(18) 0.6265(4) 0.7348(2)
H6D H 1.1841 0.6691 0.7429
C12D C 1.05418(17) 0.5099(4) 0.7053(2)
H7D H 1.0205 0.4700 0.6962
C13D C 1.21095(19) 0.2334(4) 1.1123(3)
H8D H 1.1790 0.1902 1.1072
C14D C 1.09594(16) 0.5124(4) 0.7814(2)
H9D H 1.0899 0.4754 0.8218
C15D C 1.3105(2) 0.2748(4) 1.1793(2)
C16D C 1.2632(2) 0.2100(3) 1.1730(3)
N2D N 1.23730(13) 0.6455(3) 0.89011(17)
O1D O 1.27306(17) 0.1258(3) 1.22898(19)
O2D O 1.36109(16) 0.2450(3) 1.2403(2)
C17D C 1.32918(15) 0.7292(3) 0.9715(2)
C18D C 1.37014(18) 0.7612(4) 1.0446(2)
H10D H 1.3687 0.7322 1.0906
C19D C 1.3337(2) 0.7758(5) 0.9060(3)
H11D H 1.3070 0.7575 0.8554
C20D C 1.2259(3) 0.0602(5) 1.2276(4)
H12D H 1.2075 0.0225 1.1772
H13D H 1.2393 0.0030 1.2688
H14D H 1.1991 0.1104 1.2359
N3D N 1.41819(13) 0.8819(3) 0.98642(19)
C21D C 1.41315(18) 0.8361(4) 1.0492(3)
H15D H 1.4404 0.8560 1.0992
C22D C 1.3788(2) 0.8503(5) 0.9164(3)
H16D H 1.3815 0.8799 0.8714
C23D C 1.4112(3) 0.3059(6) 1.2467(4)
H17D H 1.4078 0.3857 1.2582
H18D H 1.4442 0.2729 1.2886
H19D H 1.4154 0.3000 1.1977
Cd1C Cd 0.5000 0.0000 0.0000
Cd1C_2 Cd 1.5000 1.0000 1.0000
N3C N 0.91819(13) 0.6181(3) 0.48642(19)
N3G N 1.08181(13) 0.3819(3) 0.51358(19)
loop_
_geom_bond_atom_site_label_1
_geom_bond_atom_site_label_2
_geom_bond_site_symmetry_1
_geom_bond_site_symmetry_2
I1 Cd1 1_555 1_555
Cd1 N1 1_555 1_555
N1 C10 1_555 1_555
C1 C2 1_555 1_555
C2 C7 1_555 1_555
C3 C4 1_555 1_555
C4 C1 1_555 1_555
H1 C4 1_555 1_555
C5 C6 1_555 1_555
C6 C1 1_555 1_555
H2 C6 1_555 1_555
C7 H3 1_555 1_555
C8 C3 1_555 1_555
C9 C2 1_555 1_555
H4 C9 1_555 1_555
C10 H5 1_555 1_555
C11 C8 1_555 1_555
H6 C11 1_555 1_555
C12 N1 1_555 1_555
H7 C12 1_555 1_555
C13 C7 1_555 1_555
H8 C13 1_555 1_555
C14 C8 1_555 1_555
H9 C14 1_555 1_555
C15 C9 1_555 1_555
C16 C13 1_555 1_555
N2 C3 1_555 1_555
O1 C16 1_555 1_555
O2 C15 1_555 1_555
C17 C5 1_555 1_555
C18 C17 1_555 1_555
H10 C18 1_555 1_555
C19 C17 1_555 1_555
H11 C19 1_555 1_555
C20 O1 1_555 1_555
H12 C20 1_555 1_555
H13 C20 1_555 1_555
H14 C20 1_555 1_555
N3 C21 1_555 1_555
C21 C18 1_555 1_555
H15 C21 1_555 1_555
C22 C19 1_555 1_555
H16 C22 1_555 1_555
C23 O2 1_555 1_555
H17 C23 1_555 1_555
H18 C23 1_555 1_555
H19 C23 1_555 1_555
I1D Cd1 1_555 1_555
N1D Cd1 1_555 1_555
C1D C2D 1_555 1_555
C2D C7D 1_555 1_555
C3D C4D 1_555 1_555
C4D C1D 1_555 1_555
H1D C4D 1_555 1_555
C5D C6D 1_555 1_555
C6D C1D 1_555 1_555
H2D C6D 1_555 1_555
C7D H3D 1_555 1_555
C8D C3D 1_555 1_555
C9D C2D 1_555 1_555
H4D C9D 1_555 1_555
C10D N1D 1_555 1_555
H5D C10D 1_555 1_555
C11D C8D 1_555 1_555
H6D C11D 1_555 1_555
C12D N1D 1_555 1_555
H7D C12D 1_555 1_555
C13D C7D 1_555 1_555
H8D C13D 1_555 1_555
C14D C8D 1_555 1_555
H9D C14D 1_555 1_555
C15D C9D 1_555 1_555
C16D C13D 1_555 1_555
N2D C3D 1_555 1_555
O1D C16D 1_555 1_555
O2D C15D 1_555 1_555
C17D C5D 1_555 1_555
C18D C17D 1_555 1_555
H10D C18D 1_555 1_555
C19D C17D 1_555 1_555
H11D C19D 1_555 1_555
C20D O1D 1_555 1_555
H12D C20D 1_555 1_555
H13D C20D 1_555 1_555
H14D C20D 1_555 1_555
N3D C21D 1_555 1_555
C21D C18D 1_555 1_555
H15D C21D 1_555 1_555
C22D C19D 1_555 1_555
H16D C22D 1_555 1_555
C23D O2D 1_555 1_555
H17D C23D 1_555 1_555
H18D C23D 1_555 1_555
H19D C23D 1_555 1_555
Cd1C N3 1_555 1_555
Cd1C_2 N3D 1_555 1_555
N3C Cd1 1_555 1_555
N3G Cd1 1_555 1_555
C5 N2 1_555 1_555
C10 C11 1_555 1_555
C12 C14 1_555 1_555
C15 C16 1_555 1_555
N3 C22 1_555 1_555
C5D N2D 1_555 1_555
C10D C11D 1_555 1_555
C12D C14D 1_555 1_555
C15D C16D 1_555 1_555
N3D C22D 1_555 1_555

#END
