
#######################################################################
#
#                 Cambridge Crystallographic Data Centre
#                                CCDC 
#
#######################################################################
#
# If this CIF has been generated from an entry in the Cambridge 
# Structural Database, then it will include bibliographic, chemical, 
# crystal, experimental, refinement or atomic coordinate data resulting 
# from the CCDC's data processing and validation procedures.
#
#######################################################################

data_COHBIM
_symmetry_cell_setting           monoclinic
_symmetry_space_group_name_H-M   'P 21/c'
_symmetry_Int_Tables_number      14
_space_group_name_Hall           '-P 2ybc'
loop_
_symmetry_equiv_pos_site_id
_symmetry_equiv_pos_as_xyz
1 x,y,z
2 -x,1/2+y,1/2-z
3 -x,-y,-z
4 x,1/2-y,1/2+z
_cell_length_a                   7.4245(11)
_cell_length_b                   14.980(2)
_cell_length_c                   17.2929(18)
_cell_angle_alpha                90
_cell_angle_beta                 104.992(5)
_cell_angle_gamma                90
_cell_volume                     1857.83
loop_
_atom_site_label
_atom_site_type_symbol
_atom_site_fract_x
_atom_site_fract_y
_atom_site_fract_z
C1 C -0.4698(6) 0.5762(3) -0.1313(2)
H1 H -0.5470 0.6030 -0.1763
C2 C -0.0216(5) 0.3557(3) 0.1641(2)
C3 C -0.1265(5) 0.4684(3) 0.0786(2)
C4 C 0.0699(5) 0.4975(3) 0.2010(2)
C5 C -0.3553(5) 0.4474(3) -0.0549(2)
H2 H -0.3533 0.3859 -0.0472
C6 C -0.2454(5) 0.5028(3) 0.0020(2)
C7 C -0.3565(6) 0.6285(3) -0.0723(2)
H3 H -0.3584 0.6902 -0.0784
C8 C -0.4684(6) 0.4851(3) -0.1235(2)
H4 H -0.5419 0.4494 -0.1634
C9 C 0.0323(6) 0.8365(3) 0.0991(2)
H5 H -0.0380 0.8552 0.1364
H6 H 0.0690 0.8891 0.0743
C10 C 0.6266(5) 0.7433(3) 0.1409(2)
C11 C 0.2017(5) 0.7834(3) 0.1418(2)
C12 C 0.5342(5) 0.7785(3) 0.2044(2)
H7 H 0.5104 0.7287 0.2363
H8 H 0.6199 0.8187 0.2398
Cu1 Cu -0.07196(6) 0.65541(3) 0.08696(3)
O1 O 0.7802(4) 0.70328(18) 0.16996(16)
N1 N -0.0324(4) 0.5306(2) 0.12922(19)
N2 N 0.0753(5) 0.4110(2) 0.2209(2)
N3 N -0.1263(5) 0.3819(2) 0.09044(19)
N4 N -0.2439(4) 0.5920(2) -0.00631(19)
N5 N 0.1685(5) 0.5542(2) 0.2539(2)
H9 H 0.2335 0.5352 0.2995
H10 H 0.1675 0.6102 0.2427
N6 N -0.0180(5) 0.2690(2) 0.1788(2)
H11 H 0.0458 0.2488 0.2242
H12 H -0.0795 0.2328 0.1430
N7 N -0.0803(5) 0.7763(2) 0.0379(2)
H13 H -0.0335 0.7743 -0.0052
H14 H -0.1988 0.7959 0.0222
N8 N 0.3607(5) 0.8251(2) 0.1708(2)
H15 H 0.3430 0.8621 0.2091
H16 H 0.3796 0.8598 0.1312
O2 O 0.1847(4) 0.70089(18) 0.14939(16)
O3 O 0.5525(4) 0.7556(2) 0.06908(17)
Cu1_2 Cu 0.92804(6) 0.65541(3) 0.08696(3)
O1_2 O -0.2198(4) 0.70328(18) 0.16996(16)
Cl2 Cl 0.2824(5) 0.06803(19) 0.12349(17)
O8 O 0.0958(15) 0.0806(7) 0.1112(6)
O9 O 0.3724(11) 0.0175(5) 0.1832(5)
O10 O 0.2863(12) 0.0243(6) 0.0432(5)
O11 O 0.3643(13) 0.1550(6) 0.1320(6)
O12 O 0.6922(12) 0.9999(5) 0.0754(4)
H17 H 0.7954 0.9739 0.1141
H18 H 0.6649 0.9630 0.0285
O13 O 0.7688(5) 0.1735(3) 0.0387(2)
H19 H 0.666(11) 0.195(5) 0.017(4)
H20 H 0.761(9) 0.127(4) 0.047(4)
Cl1? Cl 0.3304(6) 0.0655(2) 0.11925(18)
O4? O 0.2625(14) 0.0389(7) 0.1962(6)
O5? O 0.4667(12) 0.0044(6) 0.1209(5)
O6? O 0.1702(10) 0.0530(5) 0.0566(4)
O7? O 0.4056(13) 0.1504(6) 0.1156(6)
loop_
_geom_bond_atom_site_label_1
_geom_bond_atom_site_label_2
_geom_bond_site_symmetry_1
_geom_bond_site_symmetry_2
C1 H1 1_555 1_555
C2 N2 1_555 1_555
C3 C6 1_555 1_555
C4 N1 1_555 1_555
C5 H2 1_555 1_555
C6 C5 1_555 1_555
C7 C1 1_555 1_555
H3 C7 1_555 1_555
C8 C1 1_555 1_555
H4 C8 1_555 1_555
C9 H5 1_555 1_555
H6 C9 1_555 1_555
C10 C12 1_555 1_555
C11 C9 1_555 1_555
C12 H7 1_555 1_555
H8 C12 1_555 1_555
Cu1 N1 1_555 1_555
O1 C10 1_555 1_555
N1 C3 1_555 1_555
N2 C4 1_555 1_555
N3 C2 1_555 1_555
N4 C6 1_555 1_555
N5 C4 1_555 1_555
H9 N5 1_555 1_555
H10 N5 1_555 1_555
N6 C2 1_555 1_555
H11 N6 1_555 1_555
H12 N6 1_555 1_555
N7 C9 1_555 1_555
H13 N7 1_555 1_555
H14 N7 1_555 1_555
N8 C11 1_555 1_555
H15 N8 1_555 1_555
H16 N8 1_555 1_555
O2 C11 1_555 1_555
O3 C10 1_555 1_555
Cl2 O8 1_555 1_555
O9 Cl2 1_555 1_555
O10 Cl2 1_555 1_555
O11 Cl2 1_555 1_555
O12 H17 1_555 1_555
H18 O12 1_555 1_555
O13 H19 1_555 1_555
H20 O13 1_555 1_555
Cu1_2 O1 1_555 1_555
O1_2 Cu1 1_555 1_555
C3 N3 1_555 1_555
C5 C8 1_555 1_555
C7 N4 1_555 1_555
C12 N8 1_555 1_555
Cu1 N4 1_555 1_555
Cu1 N7 1_555 1_555
Cu1 O2 1_555 1_555

#END
