
#######################################################################
#
#                 Cambridge Crystallographic Data Centre
#                                CCDC 
#
#######################################################################
#
# If this CIF has been generated from an entry in the Cambridge 
# Structural Database, then it will include bibliographic, chemical, 
# crystal, experimental, refinement or atomic coordinate data resulting 
# from the CCDC's data processing and validation procedures.
#
#######################################################################

data_COHBUY
_symmetry_cell_setting           monoclinic
_symmetry_space_group_name_H-M   'P 21/c'
_symmetry_Int_Tables_number      14
_space_group_name_Hall           '-P 2ybc'
loop_
_symmetry_equiv_pos_site_id
_symmetry_equiv_pos_as_xyz
1 x,y,z
2 -x,1/2+y,1/2-z
3 -x,-y,-z
4 x,1/2-y,1/2+z
_cell_length_a                   16.306(2)
_cell_length_b                   11.578(4)
_cell_length_c                   19.417(3)
_cell_angle_alpha                90
_cell_angle_beta                 90.207(4)
_cell_angle_gamma                90
_cell_volume                     3665.73
loop_
_atom_site_label
_atom_site_type_symbol
_atom_site_fract_x
_atom_site_fract_y
_atom_site_fract_z
Ag1 Ag 0.172209(17) 0.88736(3) 0.312699(15)
Ag2 Ag 0.322177(17) 0.85115(2) 0.385713(14)
Ag3 Ag 0.267320(18) 1.10461(3) 0.402053(18)
O1 O 0.12623(16) 1.0931(2) 0.33124(14)
C1 C 0.3427(2) 0.8569(3) 0.23392(19)
O2 O 0.25807(16) 0.8874(2) -0.02121(13)
C2 C -0.1677(2) 1.1245(3) 0.40067(18)
H1 H -0.2247 1.1247 0.4027
O3 O -0.13988(16) 1.1368(2) 0.21718(13)
O4 O -0.12501(16) 1.1686(2) 0.58134(13)
C3 C -0.0361(2) 1.1293(3) 0.45818(18)
H2 H -0.0055 1.1347 0.4986
C4 C 0.0036(2) 1.1203(3) 0.39525(18)
O5 O 0.38432(15) 0.8350(2) 0.28689(12)
C5 C -0.0431(2) 1.1161(3) 0.33481(18)
H3 H -0.0169 1.1115 0.2924
N1 N -0.10583(19) 0.8647(3) 0.18933(18)
O6 O 0.4254(3) 0.8861(4) 0.4810(2)
H4 H 0.4211 0.8333 0.5130
H5 H 0.4169 0.9536 0.4999
N2 N 0.04838(19) 0.8790(3) 0.24807(18)
O7 O 0.13909(16) 1.1319(2) 0.44299(14)
C6 C -0.1288(2) 1.1186(3) 0.33732(18)
O8 O -0.24014(16) 1.1068(2) 0.52901(13)
C7 C 0.0958(2) 1.1142(3) 0.38920(19)
C8 C -0.1217(2) 1.1302(3) 0.46125(18)
O9 O -0.25219(16) 1.0834(2) 0.27585(13)
C9 C -0.1778(2) 1.1122(3) 0.27207(18)
C10 C 0.1067(3) 0.9601(5) 0.1436(3)
H6 H 0.1538 0.9663 0.1732
H7 H 0.0927 1.0351 0.1261
H8 H 0.1189 0.9093 0.1060
C11 C 0.0360(2) 0.9128(3) 0.1837(2)
C12 C 0.3870(2) 0.8593(3) 0.16615(18)
O10 O 0.26710(16) 0.8784(3) 0.23173(14)
C13 C -0.1655(2) 1.1353(3) 0.52938(18)
C14 C -0.0157(2) 0.8383(3) 0.2837(2)
H9 H -0.0080 0.8136 0.3288
O11 O 0.64179(15) 0.8851(2) 0.15365(14)
O12 O 0.37437(17) 0.8573(3) -0.07911(13)
O13 O 0.64006(17) 0.8196(3) 0.04588(15)
C15 C 0.5128(2) 0.8607(3) 0.10071(17)
C16 C 0.4680(2) 0.8646(3) 0.03979(18)
H10 H 0.4950 0.8648 -0.0023
C17 C 0.4726(2) 0.8589(3) 0.16423(17)
H11 H 0.5027 0.8573 0.2050
C18 C 0.3429(2) 0.8653(3) 0.10509(18)
H12 H 0.2859 0.8674 0.1064
C19 C 0.3827(2) 0.8683(3) 0.04178(17)
C20 C 0.6050(2) 0.8554(3) 0.0988(2)
C21 C -0.0421(2) 0.9042(3) 0.1522(2)
C22 C 0.3352(2) 0.8719(3) -0.02431(19)
C23 C -0.0923(2) 0.8324(3) 0.2549(2)
H13 H -0.1358 0.8056 0.2813
C24 C -0.0563(3) 0.9381(5) 0.0792(2)
H14 H -0.1100 0.9134 0.0650
H15 H -0.0158 0.9021 0.0505
H16 H -0.0522 1.0205 0.0749
Ag4 Ag 0.644929(16) 1.09959(2) 0.195045(14)
N3 N 0.52051(19) 1.0968(3) 0.25480(16)
N4 N 0.37975(19) 1.1032(3) 0.33539(17)
C25 C 0.2955(2) 1.1615(4) 0.2362(2)
H17 H 0.2526 1.1518 0.2694
H18 H 0.2852 1.1123 0.1973
H19 H 0.2970 1.2405 0.2213
C26 C 0.3763(2) 1.1299(3) 0.2683(2)
C27 C 0.4488(2) 1.1302(3) 0.22813(19)
C28 C 0.5220(2) 1.0690(3) 0.3222(2)
H20 H 0.5712 1.0461 0.3423
C29 C 0.4464(2) 1.1673(4) 0.1542(2)
H21 H 0.5010 1.1662 0.1357
H22 H 0.4245 1.2441 0.1511
H23 H 0.4123 1.1153 0.1284
C30 C 0.4525(2) 1.0737(3) 0.3620(2)
H24 H 0.4562 1.0558 0.4086
Ag5 Ag 0.202095(16) 0.86326(2) -0.120747(14)
Ag6 Ag -0.229674(18) 0.87085(3) 0.155140(19)
Ag1B Ag -0.172209(17) 1.11264(3) 0.687301(15)
Ag2B Ag -0.322177(17) 1.14885(2) 0.614287(14)
Ag2C Ag 0.322177(17) 0.64885(2) -0.114287(14)
O3B O 0.13988(16) 0.8632(2) -0.21718(13)
O4A O 0.12501(16) 0.6686(2) -0.08134(13)
O4B O 0.12501(16) 0.8314(2) 0.41866(13)
O8B O 0.24014(16) 0.8932(2) 0.47099(13)
O9_2 O 0.74781(16) 1.0834(2) 0.27585(13)
O11_2 O -0.35821(15) 0.8851(2) 0.15365(14)
O12B O 0.62563(17) 1.1427(3) 0.07911(13)
O12C O 0.37437(17) 0.6427(3) 0.42089(13)
Ag4_2 Ag -0.355071(16) 1.09959(2) 0.195045(14)
Ag4B Ag 0.355071(16) 0.90041(2) -0.195045(14)
Ag5A Ag -0.202095(16) 1.36326(2) 0.620747(14)
Ag5B Ag -0.202095(16) 1.13674(2) 0.120747(14)
Ag6_2 Ag 0.770326(18) 0.87085(3) 0.155140(19)
O14 O 0.2884(2) 0.3990(3) 0.13478(17)
H25 H 0.2795 0.4567 0.1607
H26 H 0.3189 0.4195 0.1015
O15 O 0.1464(2) 1.2022(3) 0.58066(16)
H27 H 0.1850 1.1632 0.5988
H28 H 0.1665 1.2650 0.5657
O16 O 0.2330(2) 0.3928(3) 0.5398(2)
H29 H 0.2328 0.4629 0.5267
H30 H 0.2700 0.3575 0.5174
O17 O 0.3913(3) 0.3871(3) 0.0236(2)
H31 H 0.4434 0.3918 0.0239
H32 H 0.3779 0.3252 0.0029
loop_
_geom_bond_atom_site_label_1
_geom_bond_atom_site_label_2
_geom_bond_site_symmetry_1
_geom_bond_site_symmetry_2
Ag1 O1 1_555 1_555
Ag2 O5 1_555 1_555
Ag3 O1 1_555 1_555
O1 C7 1_555 1_555
C1 O5 1_555 1_555
O2 C22 1_555 1_555
C2 H1 1_555 1_555
O3 C9 1_555 1_555
O4 C13 1_555 1_555
C3 H2 1_555 1_555
C4 C3 1_555 1_555
C5 C4 1_555 1_555
H3 C5 1_555 1_555
N1 C21 1_555 1_555
O6 Ag2 1_555 1_555
H4 O6 1_555 1_555
H5 O6 1_555 1_555
N2 Ag1 1_555 1_555
O7 Ag3 1_555 1_555
C6 C2 1_555 1_555
O8 C13 1_555 1_555
C7 C4 1_555 1_555
C8 C2 1_555 1_555
O9 C9 1_555 1_555
C9 C6 1_555 1_555
C10 H6 1_555 1_555
H7 C10 1_555 1_555
H8 C10 1_555 1_555
C11 N2 1_555 1_555
C12 C1 1_555 1_555
O10 Ag1 1_555 1_555
C13 C8 1_555 1_555
C14 N2 1_555 1_555
H9 C14 1_555 1_555
O11 C20 1_555 1_555
O12 C22 1_555 1_555
O13 C20 1_555 1_555
C15 C16 1_555 1_555
C16 H10 1_555 1_555
C17 C12 1_555 1_555
H11 C17 1_555 1_555
C18 C12 1_555 1_555
H12 C18 1_555 1_555
C19 C16 1_555 1_555
C20 C15 1_555 1_555
C21 C11 1_555 1_555
C22 C19 1_555 1_555
C23 N1 1_555 1_555
H13 C23 1_555 1_555
C24 C21 1_555 1_555
H14 C24 1_555 1_555
H15 C24 1_555 1_555
H16 C24 1_555 1_555
Ag4 O11 1_555 1_555
N3 Ag4 1_555 1_555
N4 Ag3 1_555 1_555
C25 H17 1_555 1_555
H18 C25 1_555 1_555
H19 C25 1_555 1_555
C26 N4 1_555 1_555
C27 N3 1_555 1_555
C28 N3 1_555 1_555
H20 C28 1_555 1_555
C29 C27 1_555 1_555
H21 C29 1_555 1_555
H22 C29 1_555 1_555
H23 C29 1_555 1_555
C30 N4 1_555 1_555
H24 C30 1_555 1_555
Ag5 O2 1_555 1_555
Ag6 N1 1_555 1_555
O14 H25 1_555 1_555
H26 O14 1_555 1_555
O15 H27 1_555 1_555
H28 O15 1_555 1_555
O16 H29 1_555 1_555
H30 O16 1_555 1_555
O17 H31 1_555 1_555
H32 O17 1_555 1_555
Ag1B O4 1_555 1_555
Ag2B O8 1_555 1_555
Ag2C O12 1_555 1_555
O3B Ag5 1_555 1_555
O4A Ag5 1_555 1_555
O4B Ag1 1_555 1_555
O8B Ag2 1_555 1_555
O9_2 Ag4 1_555 1_555
O11_2 Ag6 1_555 1_555
O12B Ag4 1_555 1_555
O12C Ag2 1_555 1_555
Ag4_2 O9 1_555 1_555
Ag4B O12 1_555 1_555
Ag5A O4 1_555 1_555
Ag5B O3 1_555 1_555
Ag6_2 O11 1_555 1_555
C1 O10 1_555 1_555
C3 C8 1_555 1_555
C5 C6 1_555 1_555
O7 C7 1_555 1_555
C10 C11 1_555 1_555
C14 C23 1_555 1_555
C15 C17 1_555 1_555
C18 C19 1_555 1_555
C25 C26 1_555 1_555
C26 C27 1_555 1_555
C28 C30 1_555 1_555
O11_2 Ag4_2 1_555 1_555

#END
