
#######################################################################
#
#                 Cambridge Crystallographic Data Centre
#                                CCDC 
#
#######################################################################
#
# If this CIF has been generated from an entry in the Cambridge 
# Structural Database, then it will include bibliographic, chemical, 
# crystal, experimental, refinement or atomic coordinate data resulting 
# from the CCDC's data processing and validation procedures.
#
#######################################################################

data_COHGOW
_symmetry_cell_setting           triclinic
_symmetry_space_group_name_H-M   'P -1'
_symmetry_Int_Tables_number      2
_space_group_name_Hall           '-P 1'
loop_
_symmetry_equiv_pos_site_id
_symmetry_equiv_pos_as_xyz
1 x,y,z
2 -x,-y,-z
_cell_length_a                   9.574(5)
_cell_length_b                   10.823(6)
_cell_length_c                   11.175(6)
_cell_angle_alpha                97.133(9)
_cell_angle_beta                 110.790(9)
_cell_angle_gamma                111.831(8)
_cell_volume                     960.139
loop_
_atom_site_label
_atom_site_type_symbol
_atom_site_fract_x
_atom_site_fract_y
_atom_site_fract_z
Ni1 Ni -0.38858(5) -0.01855(4) -0.35846(4)
O1 O -0.4091(3) -0.1966(2) -0.3109(3)
O2 O -0.1973(3) -0.0073(3) -0.4058(3)
O3 O -0.4246(3) -0.8631(2) -0.4405(2)
O4 O -0.1830(3) -0.2131(3) -0.3082(4)
O5 O -0.1797(3) -0.6729(3) -0.3524(3)
O6 O -0.8871(4) -0.8018(3) -0.3581(4)
H1 H -0.9788 -0.8190 -0.3597
O7 O -0.8825(3) -0.5937(3) -0.3439(4)
N1 N -0.5627(4) -0.0262(3) -0.2878(3)
N2 N -0.2333(4) 0.1286(3) -0.1695(3)
C1 C -0.4084(4) -0.4147(3) -0.3242(3)
C2 C -0.5648(4) -0.4732(3) -0.3261(3)
H2 H -0.6162 -0.4173 -0.3159
C3 C -0.6461(4) -0.6157(3) -0.3431(4)
C4 C -0.5710(4) -0.7007(3) -0.3620(3)
H3 H -0.6250 -0.7957 -0.3739
C5 C -0.4151(4) -0.6423(3) -0.3629(3)
C6 C -0.3341(4) -0.4996(3) -0.3433(3)
H4 H -0.2294 -0.4606 -0.3430
C7 C -0.3239(4) -0.2623(3) -0.3124(4)
C8 C -0.8162(4) -0.6814(4) -0.3486(4)
C9 C -0.3317(4) -0.7306(3) -0.3868(3)
C10 C -0.7252(5) -0.1136(4) -0.3435(4)
H5 H -0.7707 -0.1819 -0.4242
C11 C -0.8296(5) -0.1061(5) -0.2844(5)
H6 H -0.9421 -0.1698 -0.3250
C12 C -0.7666(6) -0.0057(6) -0.1676(5)
H7 H -0.8363 0.0012 -0.1294
C13 C -0.5960(6) 0.0872(5) -0.1052(4)
C14 C -0.5152(8) 0.1957(6) 0.0184(5)
H8 H -0.5778 0.2073 0.0623
C15 C -0.3511(8) 0.2809(6) 0.0722(5)
H9 H -0.3032 0.3528 0.1507
C16 C -0.2475(6) 0.2641(5) 0.0117(4)
C17 C -0.0730(6) 0.3467(5) 0.0666(5)
H10 H -0.0185 0.4212 0.1441
C18 C 0.0147(6) 0.3158(5) 0.0047(5)
H11 H 0.1301 0.3678 0.0411
C19 C -0.0690(5) 0.2058(4) -0.1137(4)
H12 H -0.0073 0.1861 -0.1546
C20 C -0.3216(5) 0.1573(4) -0.1082(4)
C21 C -0.4981(5) 0.0704(4) -0.1692(4)
H13 H -0.165(6) -0.071(4) -0.367(5)
H14 H -0.104(4) 0.080(3) -0.378(5)
Ni1_2 Ni -0.38858(5) -1.01855(4) -0.35846(4)
Ni1A Ni -0.61142(5) -0.98145(4) -0.64154(4)
O3_2 O -0.4246(3) 0.1369(2) -0.4405(2)
O3A O -0.5754(3) -0.1369(2) -0.5595(2)
loop_
_geom_bond_atom_site_label_1
_geom_bond_atom_site_label_2
_geom_bond_site_symmetry_1
_geom_bond_site_symmetry_2
Ni1 O1 1_555 1_555
O1 C7 1_555 1_555
O2 Ni1 1_555 1_555
O3 C9 1_555 1_555
O4 C7 1_555 1_555
O5 C9 1_555 1_555
O6 H1 1_555 1_555
O7 C8 1_555 1_555
N1 Ni1 1_555 1_555
N2 Ni1 1_555 1_555
C1 C2 1_555 1_555
C2 H2 1_555 1_555
C3 C2 1_555 1_555
C4 C3 1_555 1_555
H3 C4 1_555 1_555
C5 C4 1_555 1_555
C6 C1 1_555 1_555
H4 C6 1_555 1_555
C7 C1 1_555 1_555
C8 O6 1_555 1_555
C9 C5 1_555 1_555
C10 N1 1_555 1_555
H5 C10 1_555 1_555
C11 C10 1_555 1_555
H6 C11 1_555 1_555
C12 C11 1_555 1_555
H7 C12 1_555 1_555
C13 C12 1_555 1_555
C14 C13 1_555 1_555
H8 C14 1_555 1_555
C15 C14 1_555 1_555
H9 C15 1_555 1_555
C16 C15 1_555 1_555
C17 C16 1_555 1_555
H10 C17 1_555 1_555
C18 C17 1_555 1_555
H11 C18 1_555 1_555
C19 N2 1_555 1_555
H12 C19 1_555 1_555
C20 N2 1_555 1_555
C21 N1 1_555 1_555
H13 O2 1_555 1_555
H14 O2 1_555 1_555
Ni1_2 O3 1_555 1_555
Ni1A O3 1_555 1_555
O3_2 Ni1 1_555 1_555
O3A Ni1 1_555 1_555
C3 C8 1_555 1_555
C5 C6 1_555 1_555
C13 C21 1_555 1_555
C16 C20 1_555 1_555
C18 C19 1_555 1_555
C20 C21 1_555 1_555

#END
