
#######################################################################
#
#                 Cambridge Crystallographic Data Centre
#                                CCDC 
#
#######################################################################
#
# If this CIF has been generated from an entry in the Cambridge 
# Structural Database, then it will include bibliographic, chemical, 
# crystal, experimental, refinement or atomic coordinate data resulting 
# from the CCDC's data processing and validation procedures.
#
#######################################################################

data_COHPEU
_symmetry_cell_setting           monoclinic
_symmetry_space_group_name_H-M   'C 2/c'
_symmetry_Int_Tables_number      15
_space_group_name_Hall           '-C 2yn'
loop_
_symmetry_equiv_pos_site_id
_symmetry_equiv_pos_as_xyz
1 x,y,z
2 1/2+x,1/2+y,z
3 -x,y,1/2-z
4 1/2-x,1/2+y,1/2-z
5 -x,-y,-z
6 1/2-x,1/2-y,-z
7 x,-y,1/2+z
8 1/2+x,1/2-y,1/2+z
_cell_length_a                   11.46(1)
_cell_length_b                   6.470(2)
_cell_length_c                   14.44(1)
_cell_angle_alpha                90
_cell_angle_beta                 123.3(1)
_cell_angle_gamma                90
_cell_volume                     894.875
loop_
_atom_site_label
_atom_site_type_symbol
_atom_site_fract_x
_atom_site_fract_y
_atom_site_fract_z
Ga1 Ga 0.0000 0.0454(2) 0.2500
Cl1 Cl 0.0000 0.3779(4) 0.2500
Cl2 Cl 0.1992(2) -0.1094(3) 0.3458(1)
O1 O 0.0147(4) 0.0318(8) 0.1041(5)
C1 C -0.0894(7) 0.1432(11) 0.0048(5)
C2 C 0.0384(8) -0.1724(10) 0.0721(5)
Cl2B Cl -0.1992(2) -0.1094(3) 0.1542(1)
C2D C -0.0384(8) 0.1724(10) -0.0721(5)
O1D O -0.0147(4) -0.0318(8) -0.1041(5)
Ga1D Ga 0.0000 -0.0454(2) -0.2500
C1D C 0.0894(7) -0.1432(11) -0.0048(5)
O1B O -0.0147(4) 0.0318(8) 0.3959(5)
loop_
_geom_bond_atom_site_label_1
_geom_bond_atom_site_label_2
_geom_bond_site_symmetry_1
_geom_bond_site_symmetry_2
Ga1 Cl1 1_555 1_555
Cl2 Ga1 1_555 1_555
O1 Ga1 1_555 1_555
C1 O1 1_555 1_555
C2 O1 1_555 1_555
Cl2B Ga1 1_555 1_555
C2D C1 1_555 1_555
O1D C2D 1_555 1_555
Ga1D O1D 1_555 1_555
C1D C2 1_555 1_555
O1B Ga1 1_555 1_555
O1D C1D 1_555 1_555

#END
