
#######################################################################
#
#                 Cambridge Crystallographic Data Centre
#                                CCDC 
#
#######################################################################
#
# If this CIF has been generated from an entry in the Cambridge 
# Structural Database, then it will include bibliographic, chemical, 
# crystal, experimental, refinement or atomic coordinate data resulting 
# from the CCDC's data processing and validation procedures.
#
#######################################################################

data_COHTUP
_symmetry_cell_setting           monoclinic
_symmetry_space_group_name_H-M   'C 2/c'
_symmetry_Int_Tables_number      15
_space_group_name_Hall           '-C 2yn'
loop_
_symmetry_equiv_pos_site_id
_symmetry_equiv_pos_as_xyz
1 x,y,z
2 1/2+x,1/2+y,z
3 -x,y,1/2-z
4 1/2-x,1/2+y,1/2-z
5 -x,-y,-z
6 1/2-x,1/2-y,-z
7 x,-y,1/2+z
8 1/2+x,1/2-y,1/2+z
_cell_length_a                   23.779(4)
_cell_length_b                   13.998(2)
_cell_length_c                   18.789(5)
_cell_angle_alpha                90.00
_cell_angle_beta                 117.6480(10)
_cell_angle_gamma                90.00
_cell_volume                     5539.96
loop_
_atom_site_label
_atom_site_type_symbol
_atom_site_fract_x
_atom_site_fract_y
_atom_site_fract_z
Zn1 Zn 0.5000 0.55506(4) 0.2500
Zn2 Zn 0.2500 0.7500 0.0000
S1 S 0.36813(4) 0.58728(6) 0.07840(5)
O1 O 0.44558(17) 0.1975(3) -0.0010(3)
O2 O 0.2061(2) 0.3843(2) -0.23887(19)
O3 O 0.40423(11) 0.55717(16) 0.16322(13)
O4 O 0.40595(12) 0.65624(19) 0.05930(16)
O5 O 0.35288(12) 0.50360(18) 0.02646(15)
O6 O 0.30881(11) 0.63318(16) 0.06766(14)
O7 O 0.32591(17) 0.8264(2) -0.0002(2)
O8 O 0.51889(16) 0.6631(3) 0.1851(2)
N1 N 0.52368(15) 0.4532(2) 0.18273(18)
N2 N 0.37316(15) 0.2985(2) 0.00449(19)
N3 N 0.25864(15) 0.3884(2) -0.10315(18)
N4 N 0.23305(14) 0.6832(2) -0.10886(17)
N5 N 0.4114(4) 0.9022(6) 0.0115(5)
C1 C 0.5637(4) 0.7286(6) 0.2034(6)
H1 H 0.5467 0.7915 0.2060
H2 H 0.5780 0.7292 0.1621
H3 H 0.5997 0.7134 0.2556
C2 C 0.3688(5) 0.8555(7) 0.0329(7)
H4 H 0.3836 0.8507 0.0892
C3 C 0.3844(6) 0.9169(7) -0.0796(5)
H5 H 0.3383 0.9256 -0.1038
H6 H 0.3939 0.8609 -0.1033
H7 H 0.4037 0.9737 -0.0897
C4 C 0.4727(6) 0.9341(9) 0.0712(10)
H8 H 0.4777 0.9197 0.1248
H9 H 0.4764 1.0032 0.0659
H10 H 0.5059 0.9013 0.0636
C5 C 0.5766(2) 0.4611(4) 0.1743(3)
H11 H 0.6092 0.5033 0.2088
C6 C 0.5854(2) 0.4110(5) 0.1183(4)
H12 H 0.6230 0.4193 0.1133
C7 C 0.5385(3) 0.3467(4) 0.0679(3)
H13 H 0.5442 0.3100 0.0293
C8 C 0.47906(17) 0.3927(3) 0.1346(2)
H14 H 0.4418 0.3863 0.1408
C9 C 0.48402(19) 0.3382(3) 0.0756(3)
C10 C 0.4334(2) 0.2709(3) 0.0230(3)
C11 C 0.31792(18) 0.2438(2) -0.0386(2)
C12 C 0.3188(2) 0.1447(3) -0.0276(3)
H15 H 0.3572 0.1141 0.0086
C13 C 0.2646(2) 0.0913(3) -0.0688(3)
H16 H 0.2661 0.0239 -0.0626
C14 C 0.2078(2) 0.1355(3) -0.1193(3)
H17 H 0.1702 0.0988 -0.1466
C15 C 0.2064(2) 0.2334(3) -0.1296(2)
H18 H 0.1675 0.2639 -0.1641
C16 C 0.26086(18) 0.2874(2) -0.0903(2)
C17 C 0.2301(2) 0.4293(3) -0.1754(2)
C18 C 0.22860(17) 0.5360(3) -0.1764(2)
C19 C 0.2237(2) 0.5857(3) -0.2420(2)
H19 H 0.2200 0.5525 -0.2881
C20 C 0.2241(3) 0.6834(3) -0.2403(3)
H20 H 0.2206 0.7188 -0.2853
C21 C 0.2296(2) 0.7303(3) -0.1722(3)
H21 H 0.2309 0.7981 -0.1708
C22 C 0.23186(16) 0.5879(2) -0.1114(2)
H22 H 0.2333 0.5540 -0.0668
H23 H 0.2731(18) 0.427(2) -0.0652(16)
H24 H 0.488(2) 0.664(3) 0.145(3)
H25 H 0.3651(18) 0.3551(12) 0.010(2)
Zn2G Zn 0.7500 0.7500 0.5000
S1B S 0.63187(4) 0.58728(6) 0.42160(5)
O1B O 0.55442(17) 0.1975(3) 0.5010(3)
O2B O 0.7939(2) 0.3843(2) 0.73887(19)
O3B O 0.59577(11) 0.55717(16) 0.33678(13)
O4B O 0.59405(12) 0.65624(19) 0.44070(16)
O5B O 0.64712(12) 0.50360(18) 0.47354(15)
O6B O 0.69119(11) 0.63318(16) 0.43234(14)
O6E O 0.19119(11) 0.86682(16) -0.06766(14)
O7E O 0.17409(17) 0.6736(2) 0.0002(2)
O8B O 0.48111(16) 0.6631(3) 0.3149(2)
N1B N 0.47632(15) 0.4532(2) 0.31727(18)
N2B N 0.62684(15) 0.2985(2) 0.49551(19)
N3B N 0.74136(15) 0.3884(2) 0.60315(18)
N4B N 0.76695(14) 0.6832(2) 0.60886(17)
N4E N 0.26695(14) 0.8168(2) 0.10886(17)
N5E N 0.0886(4) 0.5978(6) -0.0115(5)
C1B C 0.4363(4) 0.7286(6) 0.2966(6)
H1B H 0.4533 0.7915 0.2940
H2B H 0.4220 0.7292 0.3379
H3B H 0.4003 0.7134 0.2444
C2E C 0.1312(5) 0.6445(7) -0.0329(7)
H4E H 0.1164 0.6493 -0.0892
C3E C 0.1156(6) 0.5831(7) 0.0796(5)
H5E H 0.1617 0.5744 0.1038
H6E H 0.1061 0.6391 0.1033
H7E H 0.0963 0.5263 0.0897
C4E C 0.0273(6) 0.5659(9) -0.0712(10)
H8E H 0.0223 0.5803 -0.1248
H9E H 0.0236 0.4968 -0.0659
H10E H -0.0059 0.5987 -0.0636
C5B C 0.4234(2) 0.4611(4) 0.3257(3)
H11B H 0.3908 0.5033 0.2912
C6B C 0.4146(2) 0.4110(5) 0.3817(4)
H12B H 0.3770 0.4193 0.3867
C7B C 0.4615(3) 0.3467(4) 0.4321(3)
H13B H 0.4558 0.3100 0.4707
C8B C 0.52094(17) 0.3927(3) 0.3654(2)
H14B H 0.5582 0.3863 0.3592
C9B C 0.51598(19) 0.3382(3) 0.4244(3)
C10B C 0.5666(2) 0.2709(3) 0.4770(3)
C11B C 0.68208(18) 0.2438(2) 0.5386(2)
C12B C 0.6812(2) 0.1447(3) 0.5276(3)
H15B H 0.6428 0.1141 0.4914
C13B C 0.7354(2) 0.0913(3) 0.5688(3)
H16B H 0.7339 0.0239 0.5626
C14B C 0.7922(2) 0.1355(3) 0.6193(3)
H17B H 0.8298 0.0988 0.6466
C15B C 0.7936(2) 0.2334(3) 0.6296(2)
H18B H 0.8325 0.2639 0.6641
C16B C 0.73914(18) 0.2874(2) 0.5903(2)
C17B C 0.7699(2) 0.4293(3) 0.6754(2)
C18B C 0.77140(17) 0.5360(3) 0.6764(2)
C19B C 0.7763(2) 0.5857(3) 0.7420(2)
H19B H 0.7800 0.5525 0.7881
C20B C 0.7759(3) 0.6834(3) 0.7403(3)
H20B H 0.7794 0.7188 0.7853
C21B C 0.7704(2) 0.7303(3) 0.6722(3)
H21B H 0.7691 0.7981 0.6708
C22B C 0.76814(16) 0.5879(2) 0.6114(2)
H22B H 0.7667 0.5540 0.5668
H23B H 0.7269(18) 0.427(2) 0.5652(16)
H24B H 0.512(2) 0.664(3) 0.355(3)
H25B H 0.6349(18) 0.3551(12) 0.490(2)
O9 O 0.5000 0.0724(15) 0.2500
loop_
_geom_bond_atom_site_label_1
_geom_bond_atom_site_label_2
_geom_bond_site_symmetry_1
_geom_bond_site_symmetry_2
Zn1 O3 1_555 1_555
Zn2 O6 1_555 1_555
S1 O3 1_555 1_555
O1 C10 1_555 1_555
O2 C17 1_555 1_555
O4 S1 1_555 1_555
O5 S1 1_555 1_555
O6 S1 1_555 1_555
O7 Zn2 1_555 1_555
O8 Zn1 1_555 1_555
N1 Zn1 1_555 1_555
N2 C10 1_555 1_555
N3 C16 1_555 1_555
N4 Zn2 1_555 1_555
N5 C2 1_555 1_555
C1 O8 1_555 1_555
H1 C1 1_555 1_555
H2 C1 1_555 1_555
H3 C1 1_555 1_555
C2 O7 1_555 1_555
H4 C2 1_555 1_555
C3 N5 1_555 1_555
H5 C3 1_555 1_555
H6 C3 1_555 1_555
H7 C3 1_555 1_555
C4 N5 1_555 1_555
H8 C4 1_555 1_555
H9 C4 1_555 1_555
H10 C4 1_555 1_555
C5 N1 1_555 1_555
H11 C5 1_555 1_555
C6 C5 1_555 1_555
H12 C6 1_555 1_555
C7 C6 1_555 1_555
H13 C7 1_555 1_555
C8 N1 1_555 1_555
H14 C8 1_555 1_555
C9 C7 1_555 1_555
C10 C9 1_555 1_555
C11 N2 1_555 1_555
C12 C11 1_555 1_555
H15 C12 1_555 1_555
C13 C12 1_555 1_555
H16 C13 1_555 1_555
C14 C13 1_555 1_555
H17 C14 1_555 1_555
C15 C14 1_555 1_555
H18 C15 1_555 1_555
C16 C11 1_555 1_555
C17 N3 1_555 1_555
C18 C17 1_555 1_555
C19 C18 1_555 1_555
H19 C19 1_555 1_555
C20 C19 1_555 1_555
H20 C20 1_555 1_555
C21 N4 1_555 1_555
H21 C21 1_555 1_555
C22 N4 1_555 1_555
H22 C22 1_555 1_555
H23 N3 1_555 1_555
H24 O8 1_555 1_555
H25 N2 1_555 1_555
Zn2G O6B 1_555 1_555
S1B O3B 1_555 1_555
O1B C10B 1_555 1_555
O2B C17B 1_555 1_555
O3B Zn1 1_555 1_555
O4B S1B 1_555 1_555
O5B S1B 1_555 1_555
O6B S1B 1_555 1_555
O6E Zn2 1_555 1_555
O7E Zn2 1_555 1_555
O8B Zn1 1_555 1_555
N1B Zn1 1_555 1_555
N2B C10B 1_555 1_555
N3B C16B 1_555 1_555
N4B Zn2G 1_555 1_555
N4E Zn2 1_555 1_555
N5E C2E 1_555 1_555
C1B O8B 1_555 1_555
H1B C1B 1_555 1_555
H2B C1B 1_555 1_555
H3B C1B 1_555 1_555
C2E O7E 1_555 1_555
H4E C2E 1_555 1_555
C3E N5E 1_555 1_555
H5E C3E 1_555 1_555
H6E C3E 1_555 1_555
H7E C3E 1_555 1_555
C4E N5E 1_555 1_555
H8E C4E 1_555 1_555
H9E C4E 1_555 1_555
H10E C4E 1_555 1_555
C5B N1B 1_555 1_555
H11B C5B 1_555 1_555
C6B C5B 1_555 1_555
H12B C6B 1_555 1_555
C7B C6B 1_555 1_555
H13B C7B 1_555 1_555
C8B N1B 1_555 1_555
H14B C8B 1_555 1_555
C9B C7B 1_555 1_555
C10B C9B 1_555 1_555
C11B N2B 1_555 1_555
C12B C11B 1_555 1_555
H15B C12B 1_555 1_555
C13B C12B 1_555 1_555
H16B C13B 1_555 1_555
C14B C13B 1_555 1_555
H17B C14B 1_555 1_555
C15B C14B 1_555 1_555
H18B C15B 1_555 1_555
C16B C11B 1_555 1_555
C17B N3B 1_555 1_555
C18B C17B 1_555 1_555
C19B C18B 1_555 1_555
H19B C19B 1_555 1_555
C20B C19B 1_555 1_555
H20B C20B 1_555 1_555
C21B N4B 1_555 1_555
H21B C21B 1_555 1_555
C22B N4B 1_555 1_555
H22B C22B 1_555 1_555
H23B N3B 1_555 1_555
H24B O8B 1_555 1_555
H25B N2B 1_555 1_555
C8 C9 1_555 1_555
C15 C16 1_555 1_555
C18 C22 1_555 1_555
C20 C21 1_555 1_555
C8B C9B 1_555 1_555
C15B C16B 1_555 1_555
C18B C22B 1_555 1_555
C20B C21B 1_555 1_555

#END
