
#######################################################################
#
#                 Cambridge Crystallographic Data Centre
#                                CCDC 
#
#######################################################################
#
# If this CIF has been generated from an entry in the Cambridge 
# Structural Database, then it will include bibliographic, chemical, 
# crystal, experimental, refinement or atomic coordinate data resulting 
# from the CCDC's data processing and validation procedures.
#
#######################################################################

data_COJGAJ02
_symmetry_cell_setting           monoclinic
_symmetry_space_group_name_H-M   'P 21/c'
_symmetry_Int_Tables_number      14
_space_group_name_Hall           '-P 2ybc'
loop_
_symmetry_equiv_pos_site_id
_symmetry_equiv_pos_as_xyz
1 x,y,z
2 -x,1/2+y,1/2-z
3 -x,-y,-z
4 x,1/2-y,1/2+z
_cell_length_a                   11.1675(8)
_cell_length_b                   7.0642(5)
_cell_length_c                   17.2977(12)
_cell_angle_alpha                90
_cell_angle_beta                 100.7190(10)
_cell_angle_gamma                90
_cell_volume                     1340.8
loop_
_atom_site_label
_atom_site_type_symbol
_atom_site_fract_x
_atom_site_fract_y
_atom_site_fract_z
Cu1 Cu 0.468466(16) 0.82238(3) 0.127776(10)
N1 N 0.33330(12) 0.74055(18) 0.04425(7)
N2 N 0.45458(13) 0.6904(2) -0.05265(8)
N3 N 0.58955(12) 0.81508(18) 0.05770(8)
O1 O 0.37177(10) 0.90608(17) 0.20669(6)
O2 O 0.56548(10) 0.96033(18) 0.21847(7)
O3 O 0.47160(10) 1.03549(16) 0.31883(6)
C1 C 0.22093(15) 0.7360(2) 0.06312(10)
C2 C 0.11798(16) 0.6839(2) 0.01116(11)
C3 C 0.12937(16) 0.6341(3) -0.06510(11)
C4 C 0.24176(15) 0.6369(2) -0.08554(10)
C5 C 0.34383(15) 0.6913(2) -0.02895(9)
C6 C 0.56824(14) 0.7516(2) -0.01648(9)
C7 C 0.66091(15) 0.7434(2) -0.06151(10)
C8 C 0.77637(16) 0.8000(2) -0.02847(10)
C9 C 0.79947(15) 0.8645(2) 0.04895(10)
C10 C 0.70507(14) 0.8708(2) 0.08929(10)
C11 C 0.46996(14) 0.9716(2) 0.25113(9)
H1 H 0.2189(17) 0.769(3) 0.1142(12)
H2 H 0.043(2) 0.680(3) 0.0271(13)
H3 H 0.0618(19) 0.600(3) -0.1017(13)
H4 H 0.2520(17) 0.607(3) -0.1327(13)
H5 H 0.6427(19) 0.702(3) -0.1108(14)
H6 H 0.8355(19) 0.797(3) -0.0581(12)
H7 H 0.8722(19) 0.902(3) 0.0717(12)
H8 H 0.7155(17) 0.913(3) 0.1417(12)
H9 H 0.453(2) 0.635(3) -0.0953(14)
Cu1A Cu 0.531534(16) 1.32238(3) 0.372224(10)
O3A O 0.52840(10) 0.53549(16) 0.18117(6)
O4 O 0.97659(14) 0.2352(2) 0.30642(9)
H10 H 1.026(3) 0.206(4) 0.2872(16)
H11 H 0.924(3) 0.144(4) 0.2978(16)
O5 O 0.84869(14) 0.5666(2) 0.27767(9)
H12 H 0.894(3) 0.487(4) 0.2888(16)
H13 H 0.778(2) 0.532(4) 0.2770(15)
O6 O 0.80754(13) 0.9546(2) 0.29562(9)
H14 H 0.739(2) 0.967(3) 0.2793(14)
H15 H 0.818(2) 0.844(4) 0.2897(16)
loop_
_geom_bond_atom_site_label_1
_geom_bond_atom_site_label_2
_geom_bond_site_symmetry_1
_geom_bond_site_symmetry_2
Cu1 N1 1_555 1_555
N1 C1 1_555 1_555
N2 C5 1_555 1_555
N3 Cu1 1_555 1_555
O1 Cu1 1_555 1_555
O2 Cu1 1_555 1_555
O3 C11 1_555 1_555
C1 C2 1_555 1_555
C2 C3 1_555 1_555
C3 C4 1_555 1_555
C4 C5 1_555 1_555
C5 N1 1_555 1_555
C6 N2 1_555 1_555
C7 C6 1_555 1_555
C8 C7 1_555 1_555
C9 C8 1_555 1_555
C10 N3 1_555 1_555
C11 O1 1_555 1_555
H1 C1 1_555 1_555
H2 C2 1_555 1_555
H3 C3 1_555 1_555
H4 C4 1_555 1_555
H5 C7 1_555 1_555
H6 C8 1_555 1_555
H7 C9 1_555 1_555
H8 C10 1_555 1_555
H9 N2 1_555 1_555
O4 H10 1_555 1_555
O5 H12 1_555 1_555
O6 H14 1_555 1_555
H11 O4 1_555 1_555
H13 O5 1_555 1_555
H15 O6 1_555 1_555
Cu1A O3 1_555 1_555
O3A Cu1 1_555 1_555
N3 C6 1_555 1_555
O2 C11 1_555 1_555
C9 C10 1_555 1_555

#END
