
#######################################################################
#
#                 Cambridge Crystallographic Data Centre
#                                CCDC 
#
#######################################################################
#
# If this CIF has been generated from an entry in the Cambridge 
# Structural Database, then it will include bibliographic, chemical, 
# crystal, experimental, refinement or atomic coordinate data resulting 
# from the CCDC's data processing and validation procedures.
#
#######################################################################

data_COJQEY
_symmetry_cell_setting           triclinic
_symmetry_space_group_name_H-M   'P -1'
_symmetry_Int_Tables_number      2
_space_group_name_Hall           '-P 1'
loop_
_symmetry_equiv_pos_site_id
_symmetry_equiv_pos_as_xyz
1 x,y,z
2 -x,-y,-z
_cell_length_a                   7.5489(8)
_cell_length_b                   9.4986(16)
_cell_length_c                   10.1997(13)
_cell_angle_alpha                86.824(12)
_cell_angle_beta                 76.482(11)
_cell_angle_gamma                85.064(11)
_cell_volume                     707.99
loop_
_atom_site_label
_atom_site_type_symbol
_atom_site_fract_x
_atom_site_fract_y
_atom_site_fract_z
Cu1 Cu 0.60399(3) 0.69988(3) 0.53802(3)
O1 O 0.6189(2) 0.57755(16) 0.69862(16)
C1 C 0.7246(3) 0.4651(2) 0.6647(2)
C2 C 0.7599(3) 0.3653(2) 0.7762(2)
C3 C 0.8504(3) 0.2316(2) 0.7500(2)
H1 H 0.8918 0.2028 0.6617
C4 C 0.8778(3) 0.1423(2) 0.8567(3)
H2 H 0.9382 0.0534 0.8396
C5 C 0.8165(3) 0.1839(2) 0.9884(3)
H3 H 0.8356 0.1231 1.0592
C6 C 0.7265(3) 0.3165(2) 1.0146(2)
H4 H 0.6841 0.3449 1.1029
C7 C 0.7005(3) 0.4064(2) 0.9073(2)
H5 H 0.6419 0.4959 0.9246
N1 N 0.8027(2) 0.43072(18) 0.53943(19)
N2 N 0.7533(2) 0.53713(18) 0.45549(19)
C8 C 0.8005(3) 0.5363(2) 0.3269(2)
H6 H 0.8753 0.4632 0.2809
C9 C 0.7283(3) 0.6585(2) 0.2577(2)
N3 N 0.6223(2) 0.75482(18) 0.3419(2)
C10 C 0.5509(3) 0.8721(2) 0.2886(3)
H7 H 0.4785 0.9380 0.3460
C11 C 0.5818(3) 0.8980(3) 0.1502(3)
H8 H 0.5313 0.9804 0.1154
C12 C 0.6879(3) 0.8006(3) 0.0650(3)
H9 H 0.7093 0.8161 -0.0280
C13 C 0.7624(3) 0.6793(2) 0.1193(2)
H10 H 0.8348 0.6125 0.0630
N4 N 0.3720(2) 0.80822(19) 0.6134(2)
C14 C 0.2148(3) 0.8207(2) 0.6439(2)
N5 N 0.0403(2) 0.8361(2) 0.6977(2)
C15 C -0.0829(3) 0.8418(2) 0.6252(2)
N6 N -0.2047(2) 0.8477(2) 0.5744(2)
Cu1_2 Cu -0.39601(3) 0.69988(3) 0.53802(3)
N6_2 N 0.7953(2) 0.8477(2) 0.5744(2)
loop_
_geom_bond_atom_site_label_1
_geom_bond_atom_site_label_2
_geom_bond_site_symmetry_1
_geom_bond_site_symmetry_2
Cu1 O1 1_555 1_555
O1 C1 1_555 1_555
C1 C2 1_555 1_555
C2 C3 1_555 1_555
C3 H1 1_555 1_555
C4 C3 1_555 1_555
H2 C4 1_555 1_555
C5 C4 1_555 1_555
H3 C5 1_555 1_555
C6 C5 1_555 1_555
H4 C6 1_555 1_555
C7 C2 1_555 1_555
H5 C7 1_555 1_555
N1 C1 1_555 1_555
N2 Cu1 1_555 1_555
C8 N2 1_555 1_555
H6 C8 1_555 1_555
C9 C8 1_555 1_555
N3 Cu1 1_555 1_555
C10 N3 1_555 1_555
H7 C10 1_555 1_555
C11 C10 1_555 1_555
H8 C11 1_555 1_555
C12 C11 1_555 1_555
H9 C12 1_555 1_555
C13 C9 1_555 1_555
H10 C13 1_555 1_555
N4 Cu1 1_555 1_555
C14 N4 1_555 1_555
N5 C14 1_555 1_555
C15 N5 1_555 1_555
N6 C15 1_555 1_555
Cu1_2 N6 1_555 1_555
N6_2 Cu1 1_555 1_555
C6 C7 1_555 1_555
N1 N2 1_555 1_555
C9 N3 1_555 1_555
C12 C13 1_555 1_555

#END
