
#######################################################################
#
#                 Cambridge Crystallographic Data Centre
#                                CCDC 
#
#######################################################################
#
# If this CIF has been generated from an entry in the Cambridge 
# Structural Database, then it will include bibliographic, chemical, 
# crystal, experimental, refinement or atomic coordinate data resulting 
# from the CCDC's data processing and validation procedures.
#
#######################################################################

data_COKDOW
_symmetry_cell_setting           triclinic
_symmetry_space_group_name_H-M   'P -1'
_symmetry_Int_Tables_number      2
_space_group_name_Hall           '-P 1'
loop_
_symmetry_equiv_pos_site_id
_symmetry_equiv_pos_as_xyz
1 x,y,z
2 -x,-y,-z
_cell_length_a                   9.0753(19)
_cell_length_b                   9.997(2)
_cell_length_c                   17.486(4)
_cell_angle_alpha                91.871(3)
_cell_angle_beta                 93.356(3)
_cell_angle_gamma                108.918(2)
_cell_volume                     1495.92
loop_
_atom_site_label
_atom_site_type_symbol
_atom_site_fract_x
_atom_site_fract_y
_atom_site_fract_z
C1 C -0.0338(3) 0.2157(3) -0.13752(15)
H1 H 0.0704 0.2393 -0.1483
C3 C -0.2524(3) 0.1173(3) -0.09150(16)
H5 H -0.3293 0.0581 -0.0636
C5 C -0.2737(3) 0.2143(3) -0.13878(16)
H9 H -0.3657 0.2344 -0.1492
C6 C -0.0982(4) 0.3898(3) -0.22135(16)
H10 H 0.0139 0.4366 -0.2181
H11 H -0.1457 0.4591 -0.2051
C7 C -0.1530(3) 0.3433(3) -0.30422(15)
C8 C -0.2403(3) 0.2057(3) -0.32813(16)
H12 H -0.2708 0.1374 -0.2921
C9 C -0.1118(3) 0.4427(3) -0.35884(16)
H13 H -0.0544 0.5359 -0.3435
C10 C -0.2827(3) 0.1687(3) -0.40510(16)
H14 H -0.3419 0.0757 -0.4200
C11 C -0.1536(3) 0.4069(3) -0.43528(16)
H15 H -0.1250 0.4764 -0.4708
C12 C -0.2387(3) 0.2676(3) -0.46063(15)
C13 C -0.2196(3) 0.0443(3) -0.86909(15)
H16 H -0.2587 -0.0534 -0.8658
C14 C -0.0856(4) 0.2499(3) -0.90013(18)
H17 H -0.0124 0.3229 -0.9227
C15 C -0.1891(4) 0.2668(3) -0.85208(18)
H18 H -0.2006 0.3521 -0.8357
C16 C -0.4051(3) 0.0984(3) -0.78301(15)
H19 H -0.4559 -0.0034 -0.7874
H20 H -0.4805 0.1421 -0.8014
C17 C -0.3579(3) 0.1439(3) -0.69988(15)
C18 C -0.3309(3) 0.0509(3) -0.64879(16)
H21 H -0.3389 -0.0402 -0.6663
C19 C -0.3429(3) 0.2802(3) -0.67217(16)
H22 H -0.3597 0.3448 -0.7058
C20 C -0.2925(4) 0.0905(3) -0.57249(17)
H23 H -0.2757 0.0254 -0.5392
C21 C -0.3033(3) 0.3206(3) -0.59535(15)
H24 H -0.2934 0.4123 -0.5781
C22 C -0.2780(3) 0.2269(3) -0.54356(15)
N1 N -0.1011(3) 0.1190(2) -0.09061(12)
N2 N -0.1335(3) 0.2770(2) -0.16827(12)
N3 N -0.1040(3) 0.1093(2) -0.91083(12)
N4 N -0.2740(3) 0.1356(2) -0.83205(12)
O6 O -0.2405(2) -0.1829(2) -0.01887(13)
H34 H -0.264(4) -0.273(3) -0.0001(16)
H35 H -0.260(4) -0.202(3) -0.0677(17)
Cd1 Cd 0.0000 0.0000 0.0000
C1A C 0.0338(3) -0.2157(3) 0.13752(15)
H1A H -0.0704 -0.2393 0.1483
C3A C 0.2524(3) -0.1173(3) 0.09150(16)
H5A H 0.3293 -0.0581 0.0636
C5A C 0.2737(3) -0.2143(3) 0.13878(16)
H9A H 0.3657 -0.2344 0.1492
C6A C 0.0982(4) -0.3898(3) 0.22135(16)
H10A H -0.0139 -0.4366 0.2181
H11A H 0.1457 -0.4591 0.2051
C7A C 0.1530(3) -0.3433(3) 0.30422(15)
C8A C 0.2403(3) -0.2057(3) 0.32813(16)
H12A H 0.2708 -0.1374 0.2921
C9A C 0.1118(3) -0.4427(3) 0.35884(16)
H13A H 0.0544 -0.5359 0.3435
C10A C 0.2827(3) -0.1687(3) 0.40510(16)
H14A H 0.3419 -0.0757 0.4200
C11A C 0.1536(3) -0.4069(3) 0.43528(16)
H15A H 0.1250 -0.4764 0.4708
C12A C 0.2387(3) -0.2676(3) 0.46063(15)
C13A C 0.2196(3) -0.0443(3) 0.86909(15)
H16A H 0.2587 0.0534 0.8658
C14A C 0.0856(4) -0.2499(3) 0.90013(18)
H17A H 0.0124 -0.3229 0.9227
C15A C 0.1891(4) -0.2668(3) 0.85208(18)
H18A H 0.2006 -0.3521 0.8357
C16A C 0.4051(3) -0.0984(3) 0.78301(15)
H19A H 0.4559 0.0034 0.7874
H20A H 0.4805 -0.1421 0.8014
C17A C 0.3579(3) -0.1439(3) 0.69988(15)
C18A C 0.3309(3) -0.0509(3) 0.64879(16)
H21A H 0.3389 0.0402 0.6663
C19A C 0.3429(3) -0.2802(3) 0.67217(16)
H22A H 0.3597 -0.3448 0.7058
C20A C 0.2925(4) -0.0905(3) 0.57249(17)
H23A H 0.2757 -0.0254 0.5392
C21A C 0.3033(3) -0.3206(3) 0.59535(15)
H24A H 0.2934 -0.4123 0.5781
C22A C 0.2780(3) -0.2269(3) 0.54356(15)
N1A N 0.1011(3) -0.1190(2) 0.09061(12)
N2A N 0.1335(3) -0.2770(2) 0.16827(12)
N3A N 0.1040(3) -0.1093(2) 0.91083(12)
N3_2 N -0.1040(3) 0.1093(2) 0.08917(12)
N3A_2 N 0.1040(3) -0.1093(2) -0.08917(12)
N4A N 0.2740(3) -0.1356(2) 0.83205(12)
O6A O 0.2405(2) 0.1829(2) 0.01887(13)
H34A H 0.264(4) 0.273(3) 0.0001(16)
H35A H 0.260(4) 0.202(3) 0.0677(17)
Cd1_2 Cd 0.0000 0.0000 -1.0000
Cd1_3 Cd 0.0000 0.0000 1.0000
C2 C 0.6781(7) 0.4478(5) -0.0071(3)
H2 H 0.7521 0.3977 -0.0068
H3 H 0.6610 0.4747 -0.0582
H4 H 0.5812 0.3878 0.0099
O2 O 0.7334(5) 0.5632(3) 0.03979(16)
H32 H 0.700(6) 0.548(5) 0.094(3)
C4 C 0.2201(4) 0.1853(4) 0.22933(19)
H6 H 0.2845 0.1844 0.2747
H7 H 0.1615 0.0897 0.2118
H8 H 0.1496 0.2357 0.2408
O4 O 0.3147(3) 0.2523(3) 0.17198(12)
H33 H 0.364(4) 0.350(4) 0.186(2)
C23 C 0.6555(3) 0.6602(3) 0.32356(15)
C24 C 0.5516(4) 0.6272(3) 0.37971(17)
H25 H 0.4465 0.5779 0.3668
C25 C 0.8109(3) 0.7341(3) 0.34368(17)
H26 H 0.8817 0.7571 0.3060
C26 C 0.6040(4) 0.6676(3) 0.45513(17)
H27 H 0.5330 0.6454 0.4928
C27 C 0.8612(4) 0.7735(3) 0.41919(18)
H28 H 0.9661 0.8236 0.4320
C28 C 0.7591(4) 0.7403(3) 0.47631(18)
C29 C 0.8147(5) 0.7839(4) 0.55925(19)
H29 H 0.9248 0.8347 0.5629
H30 H 0.7946 0.7011 0.5885
H31 H 0.7601 0.8437 0.5790
O1 O 0.6914(2) 0.5420(2) 0.19551(11)
O3 O 0.6131(3) 0.7498(2) 0.19071(12)
O5 O 0.4291(2) 0.5280(2) 0.22334(12)
S1 S 0.59163(8) 0.61659(7) 0.22550(4)
loop_
_geom_bond_atom_site_label_1
_geom_bond_atom_site_label_2
_geom_bond_site_symmetry_1
_geom_bond_site_symmetry_2
C1 H1 1_555 1_555
C2 H2 1_555 1_555
H3 C2 1_555 1_555
H4 C2 1_555 1_555
C3 H5 1_555 1_555
C4 H6 1_555 1_555
H7 C4 1_555 1_555
H8 C4 1_555 1_555
C5 C3 1_555 1_555
H9 C5 1_555 1_555
C6 H10 1_555 1_555
H11 C6 1_555 1_555
C7 C6 1_555 1_555
C8 C7 1_555 1_555
H12 C8 1_555 1_555
C9 C7 1_555 1_555
H13 C9 1_555 1_555
C10 C8 1_555 1_555
H14 C10 1_555 1_555
C11 C9 1_555 1_555
H15 C11 1_555 1_555
C12 C10 1_555 1_555
C13 H16 1_555 1_555
C14 H17 1_555 1_555
C15 C14 1_555 1_555
H18 C15 1_555 1_555
C16 H19 1_555 1_555
H20 C16 1_555 1_555
C17 C16 1_555 1_555
C18 C17 1_555 1_555
H21 C18 1_555 1_555
C19 C17 1_555 1_555
H22 C19 1_555 1_555
C20 C18 1_555 1_555
H23 C20 1_555 1_555
C21 C19 1_555 1_555
H24 C21 1_555 1_555
C22 C12 1_555 1_555
C23 C24 1_555 1_555
C24 H25 1_555 1_555
C25 C23 1_555 1_555
H26 C25 1_555 1_555
C26 C24 1_555 1_555
H27 C26 1_555 1_555
C27 C25 1_555 1_555
H28 C27 1_555 1_555
C28 C26 1_555 1_555
C29 C28 1_555 1_555
H29 C29 1_555 1_555
H30 C29 1_555 1_555
H31 C29 1_555 1_555
N1 C1 1_555 1_555
N2 C1 1_555 1_555
N3 C13 1_555 1_555
N4 C13 1_555 1_555
O1 S1 1_555 1_555
O2 C2 1_555 1_555
H32 O2 1_555 1_555
O3 S1 1_555 1_555
O4 C4 1_555 1_555
H33 O4 1_555 1_555
O5 S1 1_555 1_555
O6 H34 1_555 1_555
H35 O6 1_555 1_555
S1 C23 1_555 1_555
Cd1 N1 1_555 1_555
C1A H1A 1_555 1_555
C3A H5A 1_555 1_555
C5A C3A 1_555 1_555
H9A C5A 1_555 1_555
C6A H10A 1_555 1_555
H11A C6A 1_555 1_555
C7A C6A 1_555 1_555
C8A C7A 1_555 1_555
H12A C8A 1_555 1_555
C9A C7A 1_555 1_555
H13A C9A 1_555 1_555
C10A C8A 1_555 1_555
H14A C10A 1_555 1_555
C11A C9A 1_555 1_555
H15A C11A 1_555 1_555
C12A C10A 1_555 1_555
C13A H16A 1_555 1_555
C14A H17A 1_555 1_555
C15A C14A 1_555 1_555
H18A C15A 1_555 1_555
C16A H19A 1_555 1_555
H20A C16A 1_555 1_555
C17A C16A 1_555 1_555
C18A C17A 1_555 1_555
H21A C18A 1_555 1_555
C19A C17A 1_555 1_555
H22A C19A 1_555 1_555
C20A C18A 1_555 1_555
H23A C20A 1_555 1_555
C21A C19A 1_555 1_555
H24A C21A 1_555 1_555
C22A C12A 1_555 1_555
N1A Cd1 1_555 1_555
N2A C1A 1_555 1_555
N3A C13A 1_555 1_555
N3_2 Cd1 1_555 1_555
N3A_2 Cd1 1_555 1_555
N4A C13A 1_555 1_555
O6A Cd1 1_555 1_555
H34A O6A 1_555 1_555
H35A O6A 1_555 1_555
Cd1_2 N3 1_555 1_555
Cd1_3 N3A 1_555 1_555
C3 N1 1_555 1_555
C5 N2 1_555 1_555
C6 N2 1_555 1_555
C11 C12 1_555 1_555
C14 N3 1_555 1_555
C15 N4 1_555 1_555
C16 N4 1_555 1_555
C20 C22 1_555 1_555
C21 C22 1_555 1_555
C27 C28 1_555 1_555
O6 Cd1 1_555 1_555
C1A N1A 1_555 1_555
C3A N1A 1_555 1_555
C5A N2A 1_555 1_555
C6A N2A 1_555 1_555
C11A C12A 1_555 1_555
C14A N3A 1_555 1_555
C15A N4A 1_555 1_555
C16A N4A 1_555 1_555
C20A C22A 1_555 1_555
C21A C22A 1_555 1_555

#END
