
#######################################################################
#
#                 Cambridge Crystallographic Data Centre
#                                CCDC 
#
#######################################################################
#
# If this CIF has been generated from an entry in the Cambridge 
# Structural Database, then it will include bibliographic, chemical, 
# crystal, experimental, refinement or atomic coordinate data resulting 
# from the CCDC's data processing and validation procedures.
#
#######################################################################

data_COKDUB
_symmetry_cell_setting           monoclinic
_symmetry_space_group_name_H-M   'P 2'
_symmetry_Int_Tables_number      3
_space_group_name_Hall           'P 2y'
loop_
_symmetry_equiv_pos_site_id
_symmetry_equiv_pos_as_xyz
1 x,y,z
2 -x,y,-z
_cell_length_a                   13.830(2)
_cell_length_b                   6.023(1)
_cell_length_c                   8.250(1)
_cell_angle_alpha                90
_cell_angle_beta                 97.45(3)
_cell_angle_gamma                90
_cell_volume                     681.408
loop_
_atom_site_label
_atom_site_type_symbol
_atom_site_fract_x
_atom_site_fract_y
_atom_site_fract_z
Hg1 Hg 0.0000 0.0000 0.0000
N1 N 0.1143(5) -0.7241(12) 0.0989(8)
N2 N 0.0778(6) -0.1397(14) -0.1995(10)
C1 C 0.1333(6) -0.5778(15) -0.0426(10)
C2 C 0.1903(7) -0.3587(17) -0.0039(12)
C3 C 0.1784(7) -0.2124(17) -0.1526(12)
Hg1_2 Hg 0.0000 -1.0000 0.0000
N1_2 N 0.1143(5) 0.2759(12) 0.0989(8)
N1A N -0.1143(5) 0.2759(12) -0.0989(8)
C1A C -0.1333(6) 0.4222(15) 0.0426(10)
C2A C -0.1903(7) 0.6413(17) 0.0039(12)
C3A C -0.1784(7) 0.7876(17) 0.1526(12)
N2A N -0.0778(6) 0.8603(14) 0.1995(10)
Hg1_3 Hg 0.0000 1.0000 0.0000
N2A_2 N -0.0778(6) -0.1397(14) 0.1995(10)
Hg2 Hg 0.5000 0.0395(1) 0.5000
N3 N 0.4208(7) -0.8314(16) 0.6914(11)
N4 N 0.3711(8) -0.2175(20) 0.4038(12)
C4 C 0.3783(9) -0.3871(21) 0.5342(14)
C5 C 0.3142(9) -0.5873(21) 0.4861(14)
C6 C 0.3167(8) -0.7555(20) 0.6294(13)
Hg2_2 Hg 0.5000 -0.9605(1) 0.5000
N3_2 N 0.4208(7) 0.1686(16) 0.6914(11)
N3A N 0.5792(7) 0.1686(16) 0.3086(11)
C6A C 0.6833(8) 0.2445(20) 0.3706(13)
C5A C 0.6858(9) 0.4127(21) 0.5139(14)
C4A C 0.6217(9) 0.6129(21) 0.4658(14)
N4A N 0.6289(8) 0.7825(20) 0.5962(12)
Hg2_3 Hg 0.5000 1.0395(1) 0.5000
N4A_2 N 0.6289(8) -0.2175(20) 0.5962(12)
S1 S 0.0000 -0.6269(7) 0.5000
O1 O 0.0313(6) -0.4787(14) 0.3688(9)
O2 O -0.0758(7) -0.7736(16) 0.4243(11)
O1A O -0.0313(6) -0.4787(14) 0.6312(9)
O2A O 0.0758(7) -0.7736(16) 0.5757(11)
S2 S 0.5000 -0.3341(4) 0.0000
O3 O 0.4565(7) -0.4677(13) 0.1203(10)
O4 O 0.5872(5) -0.2026(12) 0.0762(8)
O3A O 0.5435(7) -0.4677(13) -0.1203(10)
O4A O 0.4128(5) -0.2026(12) -0.0762(8)
O5 O 0.1590(9) -0.1162(29) 0.4065(14)
O6 O 0.3431(8) -0.8614(30) 0.1147(13)
loop_
_geom_bond_atom_site_label_1
_geom_bond_atom_site_label_2
_geom_bond_site_symmetry_1
_geom_bond_site_symmetry_2
Hg1 N2 1_555 1_555
Hg2 N4 1_555 1_555
N1 C1 1_555 1_555
N2 C3 1_555 1_555
N3 C6 1_555 1_555
N4 C4 1_555 1_555
S1 O1 1_555 1_555
S2 O3 1_555 1_555
O2 S1 1_555 1_555
O4 S2 1_555 1_555
C1 C2 1_555 1_555
C2 C3 1_555 1_555
C4 C5 1_555 1_555
C5 C6 1_555 1_555
Hg1_2 N1 1_555 1_555
N1_2 Hg1 1_555 1_555
N1A Hg1 1_555 1_555
C1A N1A 1_555 1_555
C2A C1A 1_555 1_555
C3A C2A 1_555 1_555
N2A C3A 1_555 1_555
Hg1_3 N2A 1_555 1_555
N2A_2 Hg1 1_555 1_555
Hg2_2 N3 1_555 1_555
N3_2 Hg2 1_555 1_555
N3A Hg2 1_555 1_555
C6A N3A 1_555 1_555
C5A C6A 1_555 1_555
C4A C5A 1_555 1_555
N4A C4A 1_555 1_555
Hg2_3 N4A 1_555 1_555
N4A_2 Hg2 1_555 1_555
O1A S1 1_555 1_555
O2A S1 1_555 1_555
O3A S2 1_555 1_555
O4A S2 1_555 1_555

#END
