
#######################################################################
#
#                 Cambridge Crystallographic Data Centre
#                                CCDC 
#
#######################################################################
#
# If this CIF has been generated from an entry in the Cambridge 
# Structural Database, then it will include bibliographic, chemical, 
# crystal, experimental, refinement or atomic coordinate data resulting 
# from the CCDC's data processing and validation procedures.
#
#######################################################################

data_COKFOY
_symmetry_cell_setting           monoclinic
_symmetry_space_group_name_H-M   'P 21/c'
_symmetry_Int_Tables_number      14
_space_group_name_Hall           '-P 2ybc'
loop_
_symmetry_equiv_pos_site_id
_symmetry_equiv_pos_as_xyz
1 x,y,z
2 -x,1/2+y,1/2-z
3 -x,-y,-z
4 x,1/2-y,1/2+z
_cell_length_a                   14.862(5)
_cell_length_b                   16.693(6)
_cell_length_c                   34.116(12)
_cell_angle_alpha                90
_cell_angle_beta                 96.453(5)
_cell_angle_gamma                90
_cell_volume                     8410.26
loop_
_atom_site_label
_atom_site_type_symbol
_atom_site_fract_x
_atom_site_fract_y
_atom_site_fract_z
C14 C 0.9009(7) 0.8889(7) 0.6541(4)
H12 H 0.9529 0.8835 0.6415
C18 C 0.8551(6) 0.8548(6) 0.5672(4)
H16 H 0.8923 0.8990 0.5729
C22 C 0.8146(7) 0.8605(6) 0.6349(4)
C28 C 0.8494(7) 0.8211(6) 0.5301(4)
H22 H 0.8801 0.8430 0.5104
C33 C 0.7484(7) 0.7237(7) 0.5511(5)
H27 H 0.7113 0.6795 0.5452
C45 C 0.8352(10) 0.9348(6) 0.7117(4)
C48 C 0.8060(7) 0.8239(7) 0.5966(4)
C55 C 0.9066(9) 0.9245(7) 0.6915(4)
H49 H 0.9629 0.9419 0.7030
C56 C 0.7629(8) 0.9509(9) 0.8081(5)
H50 H 0.7317 0.9993 0.8060
C61 C 0.7533(6) 0.7571(7) 0.5872(4)
H54 H 0.7207 0.7346 0.6061
C62 C 0.7499(8) 0.9076(7) 0.6933(5)
H55 H 0.6983 0.9149 0.7060
C63 C 0.8440(10) 0.9752(7) 0.7504(5)
H56 H 0.9068 0.9909 0.7569
H57 H 0.8081 1.0238 0.7480
C66 C 0.7428(9) 0.8699(7) 0.6563(4)
H59 H 0.6865 0.8504 0.6459
N1 N 0.9344(18) 0.7804(14) 0.4119(6)
C72 C 0.7968(7) 0.7542(7) 0.5234(4)
C74 C 0.8487(8) 0.8558(7) 0.7939(5)
H65 H 0.8888 0.8234 0.7821
C75 C 0.7869(9) 0.7148(8) 0.4832(5)
H66 H 0.7856 0.6572 0.4868
H67 H 0.7291 0.7305 0.4693
C76 C 0.942(2) 0.7116(10) 0.4642(6)
H68 H 0.9651 0.6789 0.4850
C77 C 0.8550(17) 0.7785(12) 0.4269(7)
H69 H 0.8036 0.8057 0.4160
C79 C 0.8074(12) 0.8412(11) 0.8265(5)
H71 H 0.8154 0.7935 0.8406
C80 C 0.9903(14) 0.7398(16) 0.4374(10)
H72 H 1.0521 0.7326 0.4366
N14 N 0.8576(10) 0.7340(8) 0.4589(5)
N15 N 0.8171(6) 0.9294(6) 0.7826(3)
N16 N 0.7547(11) 0.9000(14) 0.8370(5)
C1 C -0.4222(6) 1.3814(6) 0.2835(3)
H1 H -0.4099 1.3447 0.3039
C2 C 1.0320(6) 0.8824(5) 0.1199(2)
C3 C 1.2115(6) 0.7472(6) 0.0142(4)
H2 H 1.1490 0.7512 0.0081
C4 C 0.8772(5) 0.9272(5) 0.1357(3)
H3 H 0.8561 0.8756 0.1299
C5 C 0.9666(5) 0.9434(5) 0.1334(2)
C6 C -0.4601(6) 1.4553(6) 0.2859(3)
H4 H -0.4789 1.4778 0.3086
C7 C 0.6549(6) 1.1104(5) 0.2068(3)
H5 H 0.6100 1.1231 0.1866
C8 C -0.3641(5) 1.3012(5) 0.2307(3)
H6 H -0.3860 1.2939 0.2031
H7 H -0.3818 1.2545 0.2450
C9 C -0.2621(5) 1.3069(5) 0.2351(3)
C10 C 1.2090(7) 0.6996(5) 0.0827(3)
H8 H 1.2551 0.6871 0.1043
H9 H 1.1744 0.6513 0.0761
C11 C 1.3420(6) 0.7271(5) 0.0446(3)
H10 H 1.3864 0.7135 0.0649
C12 C 1.2743(6) 0.7623(5) -0.0110(3)
H11 H 1.2626 0.7786 -0.0372
C13 C 0.0274(6) 1.3277(5) 0.2481(3)
C15 C -0.4319(5) 1.4381(6) 0.2262(3)
H13 H -0.4272 1.4469 0.1996
C16 C 0.9962(6) 1.0190(6) 0.1418(3)
H14 H 1.0565 1.0319 0.1402
C17 C 1.5801(5) 0.9052(6) -0.0177(3)
H15 H 1.5858 0.8977 -0.0443
C19 C 1.1212(6) 0.8864(6) 0.1301(3)
H17 H 1.1455 0.9286 0.1456
C20 C 0.8484(6) 1.0591(6) 0.1557(3)
C21 C 1.7617(5) 1.0233(5) -0.0078(4)
C23 C 0.4259(6) 1.2134(7) 0.2068(3)
H18 H 0.4413 1.1878 0.1843
C24 C 0.0801(6) 1.2968(6) 0.2803(3)
H19 H 0.0542 1.2684 0.2997
C25 C -0.0715(6) 1.3187(5) 0.2429(3)
C26 C 1.5768(5) 0.6025(5) -0.0201(3)
H20 H 1.5707 0.6077 -0.0474
C27 C 1.5684(5) 0.6241(6) 0.0404(3)
H21 H 1.5548 0.6476 0.0638
C29 C 1.1778(6) 0.8283(8) 0.1177(3)
H23 H 1.2399 0.8331 0.1246
C30 C 1.9509(5) 0.4949(5) -0.0029(3)
C31 C 0.7835(7) 1.1237(5) 0.1657(3)
H24 H 0.8156 1.1743 0.1691
H25 H 0.7360 1.1296 0.1440
C32 C 0.0704(6) 1.3712(6) 0.2200(3)
H26 H 0.0362 1.3922 0.1979
C34 C -0.1164(6) 1.2986(5) 0.2742(3)
H28 H -0.0837 1.2889 0.2986
C35 C 0.8162(6) 0.9844(6) 0.1464(3)
H29 H 0.7554 0.9719 0.1471
C36 C -0.1217(6) 1.3302(6) 0.2074(3)
H30 H -0.0919 1.3420 0.1856
C37 C 0.7866(7) 1.0865(6) 0.2379(4)
H31 H 0.8486 1.0786 0.2437
C38 C 1.1462(7) 0.7647(6) 0.0958(3)
C39 C 1.6579(5) 0.4726(5) -0.0188(3)
H32 H 1.6357 0.4696 -0.0466
H33 H 1.6399 0.4239 -0.0063
C40 C -0.2096(6) 1.2926(5) 0.2704(3)
H34 H -0.2379 1.2784 0.2923
C41 C 1.6583(5) 1.0360(5) -0.0124(3)
H35 H 1.6444 1.0845 0.0014
H36 H 1.6370 1.0430 -0.0401
C42 C 0.1770(8) 1.3097(7) 0.2833(4)
H37 H 0.2136 1.2879 0.3046
C43 C 1.5471(5) 0.8886(6) 0.0408(3)
H38 H 1.5239 0.8672 0.0627
C44 C 0.3187(5) 1.3655(6) 0.2619(4)
H39 H 0.3333 1.4150 0.2491
H40 H 0.3391 1.3704 0.2898
C46 C 1.5918(6) 0.9574(6) 0.0406(3)
H41 H 1.6070 0.9914 0.0619
C47 C 0.7241(7) 1.0817(5) 0.2629(3)
H42 H 0.7355 1.0704 0.2897
C49 C 1.8112(7) 1.0255(7) 0.0264(3)
H43 H 1.7825 1.0337 0.0489
C50 C 1.9053(7) 0.4572(6) 0.0240(3)
H44 H 1.9370 0.4372 0.0470
C51 C 0.9370(7) 1.0778(6) 0.1528(3)
H45 H 0.9578 1.1297 0.1581
C52 C 0.9997(6) 0.8193(6) 0.0981(3)
H46 H 0.9378 0.8161 0.0903
C53 C 0.4065(6) 1.2403(5) 0.2672(3)
H47 H 0.4080 1.2364 0.2945
C54 C 1.9061(7) 1.0158(7) 0.0308(3)
H48 H 1.9386 1.0161 0.0557
C57 C 1.8986(6) 1.0034(7) -0.0365(4)
H51 H 1.9272 0.9957 -0.0591
C58 C 1.7607(6) 0.4781(5) -0.0143(3)
C59 C 0.3786(7) 1.2859(7) 0.2082(4)
H52 H 0.3598 1.3188 0.1869
C60 C -0.2168(6) 1.3251(6) 0.2025(3)
H53 H -0.2490 1.3337 0.1779
C64 C 1.9487(5) 1.0061(5) -0.0013(4)
C65 C 1.8116(7) 0.4478(5) 0.0177(3)
H58 H 1.7828 0.4196 0.0362
C67 C 1.8048(7) 1.0116(7) -0.0401(4)
H60 H 1.7717 1.0091 -0.0649
C68 C 1.6125(6) 0.5542(6) 0.0376(3)
H61 H 1.6355 0.5211 0.0583
C69 C 1.8055(7) 0.5141(7) -0.0417(3)
H62 H 1.7736 0.5344 -0.0646
C70 C 1.8985(6) 0.5210(7) -0.0360(3)
H63 H 1.9273 0.5447 -0.0558
C71 C 0.2156(7) 1.3523(6) 0.2562(4)
C73 C 1.0562(6) 0.7583(6) 0.0868(4)
H64 H 1.0316 0.7137 0.0733
C78 C 0.1626(7) 1.3826(6) 0.2253(4)
H70 H 0.1893 1.4125 0.2067
N2 N 0.6396(5) 1.0960(4) 0.2429(2)
N3 N 0.7421(5) 1.1050(4) 0.2024(3)
N4 N 1.2529(5) 0.7264(4) 0.0481(3)
N5 N 1.3591(4) 0.7489(3) 0.0096(2)
N6 N 0.4450(4) 1.1879(4) 0.2446(2)
N7 N 0.3656(4) 1.2988(4) 0.2454(3)
N8 N -0.4657(4) 1.4905(4) 0.2502(2)
N9 N -0.4061(4) 1.3720(4) 0.2455(3)
N10 N 1.5469(4) 0.6549(4) 0.0035(2)
N11 N 1.6164(4) 0.5419(4) -0.0012(3)
N12 N 1.5399(4) 0.8540(4) 0.0049(2)
N13 N 1.6107(4) 0.9681(4) 0.0032(3)
O1 O 0.5064(4) 1.1011(3) 0.32238(16)
O2 O 0.6165(4) 1.2012(4) 0.32831(18)
O3 O 0.6149(4) 1.1033(4) 0.37760(17)
O4 O 0.5020(4) 1.2014(4) 0.36997(19)
S1 S 0.5606(2) 1.15180(18) 0.34974(8)
Zn1 Zn 0.52108(6) 1.09706(6) 0.26589(3)
Zn2 Zn 1.47674(6) 0.75282(5) -0.01277(3)
O5 O 1.4668(6) 0.7437(4) -0.0684(2)
O6 O 1.5019(5) 0.8228(6) -0.1215(2)
S2 S 1.4324(2) 0.7950(2) -0.09983(9)
O7 O 1.3658(5) 0.7527(5) -0.1257(2)
O8 O 1.3936(7) 0.8653(4) -0.0851(3)
C1A C 0.4222(6) 0.8814(6) 0.2165(3)
H1A H 0.4099 0.8447 0.1961
C2A C -1.0320(6) 0.3824(5) 0.3801(2)
C3A C -1.2115(6) 0.2472(6) 0.4858(4)
H2A H -1.1490 0.2512 0.4919
C4A C -0.8772(5) 0.4272(5) 0.3643(3)
H3A H -0.8561 0.3756 0.3701
C5A C -0.9666(5) 0.4434(5) 0.3666(2)
C6A C 0.4601(6) 0.9553(6) 0.2141(3)
H4A H 0.4789 0.9778 0.1914
C7A C -0.6549(6) 0.6104(5) 0.2932(3)
H5A H -0.6100 0.6231 0.3134
C8A C 0.3641(5) 0.8012(5) 0.2693(3)
H6A H 0.3860 0.7939 0.2969
H7A H 0.3818 0.7545 0.2550
C9A C 0.2621(5) 0.8069(5) 0.2649(3)
C10A C -1.2090(7) 0.1996(5) 0.4173(3)
H8A H -1.2551 0.1871 0.3957
H9A H -1.1744 0.1513 0.4239
C11A C -1.3420(6) 0.2271(5) 0.4554(3)
H10A H -1.3864 0.2135 0.4351
C12A C -1.2743(6) 0.2623(5) 0.5110(3)
H11A H -1.2626 0.2786 0.5372
C13A C -0.0274(6) 0.8277(5) 0.2519(3)
C15A C 0.4319(5) 0.9381(6) 0.2738(3)
H13A H 0.4272 0.9469 0.3004
C16A C -0.9962(6) 0.5190(6) 0.3582(3)
H14A H -1.0565 0.5319 0.3598
C17B C 2.4199(5) 1.0948(6) 0.0177(3)
H15B H 2.4142 1.1023 0.0443
C19A C -1.1212(6) 0.3864(6) 0.3699(3)
H17A H -1.1455 0.4286 0.3544
C20A C -0.8484(6) 0.5591(6) 0.3443(3)
C21B C 2.2383(5) 0.9767(5) 0.0078(4)
C23A C -0.4259(6) 0.7134(7) 0.2932(3)
H18A H -0.4413 0.6878 0.3157
C24A C -0.0801(6) 0.7968(6) 0.2197(3)
H19A H -0.0542 0.7684 0.2003
C25A C 0.0715(6) 0.8187(5) 0.2571(3)
C26B C 2.4232(5) 0.3975(5) 0.0201(3)
H20B H 2.4293 0.3923 0.0474
C27B C 2.4316(5) 0.3759(6) -0.0404(3)
H21B H 2.4452 0.3524 -0.0638
C29A C -1.1778(6) 0.3283(8) 0.3823(3)
H23A H -1.2399 0.3331 0.3754
C30B C 2.0491(5) 0.5051(5) 0.0029(3)
C31A C -0.7835(7) 0.6237(5) 0.3343(3)
H24A H -0.8156 0.6743 0.3309
H25A H -0.7360 0.6296 0.3560
C32A C -0.0704(6) 0.8712(6) 0.2800(3)
H26A H -0.0362 0.8922 0.3021
C34A C 0.1164(6) 0.7986(5) 0.2258(3)
H28A H 0.0837 0.7889 0.2014
C35A C -0.8162(6) 0.4844(6) 0.3536(3)
H29A H -0.7554 0.4719 0.3529
C36A C 0.1217(6) 0.8302(6) 0.2926(3)
H30A H 0.0919 0.8420 0.3144
C37A C -0.7866(7) 0.5865(6) 0.2621(4)
H31A H -0.8486 0.5786 0.2563
C38A C -1.1462(7) 0.2647(6) 0.4042(3)
C39B C 2.3421(5) 0.5274(5) 0.0188(3)
H32B H 2.3643 0.5304 0.0466
H33B H 2.3601 0.5761 0.0063
C40A C 0.2096(6) 0.7926(5) 0.2296(3)
H34A H 0.2379 0.7784 0.2077
C41B C 2.3417(5) 0.9640(5) 0.0124(3)
H35B H 2.3556 0.9155 -0.0014
H36B H 2.3630 0.9570 0.0401
C42A C -0.1770(8) 0.8097(7) 0.2167(4)
H37A H -0.2136 0.7879 0.1954
C43B C 2.4529(5) 1.1114(6) -0.0408(3)
H38B H 2.4761 1.1328 -0.0627
C44A C -0.3187(5) 0.8655(6) 0.2381(4)
H39A H -0.3333 0.9150 0.2509
H40A H -0.3391 0.8704 0.2102
C46B C 2.4082(6) 1.0426(6) -0.0406(3)
H41B H 2.3930 1.0086 -0.0619
C47A C -0.7241(7) 0.5817(5) 0.2371(3)
H42A H -0.7355 0.5704 0.2103
C49B C 2.1888(7) 0.9745(7) -0.0264(3)
H43B H 2.2175 0.9663 -0.0489
C50B C 2.0947(7) 0.5428(6) -0.0240(3)
H44B H 2.0630 0.5628 -0.0470
C51A C -0.9370(7) 0.5778(6) 0.3472(3)
H45A H -0.9578 0.6297 0.3419
C52A C -0.9997(6) 0.3193(6) 0.4019(3)
H46A H -0.9378 0.3161 0.4097
C53A C -0.4065(6) 0.7403(5) 0.2328(3)
H47A H -0.4080 0.7364 0.2055
C54B C 2.0939(7) 0.9842(7) -0.0308(3)
H48B H 2.0614 0.9839 -0.0557
C57B C 2.1014(6) 0.9966(7) 0.0365(4)
H51B H 2.0728 1.0043 0.0591
C58B C 2.2393(6) 0.5219(5) 0.0143(3)
C59A C -0.3786(7) 0.7859(7) 0.2918(4)
H52A H -0.3598 0.8188 0.3131
C60A C 0.2168(6) 0.8251(6) 0.2975(3)
H53A H 0.2490 0.8337 0.3221
C64B C 2.0513(5) 0.9939(5) 0.0013(4)
C65B C 2.1884(7) 0.5522(5) -0.0177(3)
H58B H 2.2172 0.5804 -0.0362
C67B C 2.1952(7) 0.9884(7) 0.0401(4)
H60B H 2.2283 0.9909 0.0649
C68B C 2.3875(6) 0.4458(6) -0.0376(3)
H61B H 2.3645 0.4789 -0.0583
C69B C 2.1945(7) 0.4859(7) 0.0417(3)
H62B H 2.2264 0.4656 0.0646
C70B C 2.1015(6) 0.4790(7) 0.0360(3)
H63B H 2.0727 0.4553 0.0558
C71A C -0.2156(7) 0.8523(6) 0.2438(4)
C73A C -1.0562(6) 0.2583(6) 0.4132(4)
H64A H -1.0316 0.2137 0.4267
C78A C -0.1626(7) 0.8826(6) 0.2747(4)
H70A H -0.1893 0.9125 0.2933
N2A N -0.6396(5) 0.5960(4) 0.2571(2)
N3A N -0.7421(5) 0.6050(4) 0.2976(3)
N4A N -1.2529(5) 0.2264(4) 0.4519(3)
N5A N -1.3591(4) 0.2489(3) 0.4904(2)
N6A N -0.4450(4) 0.6879(4) 0.2554(2)
N7A N -0.3656(4) 0.7988(4) 0.2546(3)
N8A N 0.4657(4) 0.9905(4) 0.2498(2)
N8_2 N -0.4657(4) 0.4905(4) 0.2502(2)
N9A N 0.4061(4) 0.8720(4) 0.2545(3)
N10B N 2.4531(4) 0.3451(4) -0.0035(2)
N10A N -1.5469(4) 0.1549(4) 0.4965(2)
N11B N 2.3836(4) 0.4581(4) 0.0012(3)
N12B N 2.4601(4) 1.1460(4) -0.0049(2)
N12A N -1.5399(4) 0.3540(4) 0.4951(2)
N13B N 2.3893(4) 1.0319(4) -0.0032(3)
O1A O -0.5064(4) 0.6011(3) 0.17762(16)
O2A O -0.6165(4) 0.7012(4) 0.17169(18)
O3A O -0.6149(4) 0.6033(4) 0.12240(17)
O4A O -0.5020(4) 0.7014(4) 0.13003(19)
S1A S -0.5606(2) 0.65180(18) 0.15026(8)
Zn1A Zn -0.52108(6) 0.59706(6) 0.23411(3)
Zn1A_2 Zn -0.52108(6) 1.59706(6) 0.23411(3)
Zn2A Zn -1.47674(6) 0.25282(5) 0.51277(3)
Zn2B Zn 2.52326(6) 1.24718(5) 0.01277(3)
Zn2B_2 Zn 2.52326(6) 0.24718(5) 0.01277(3)
O5A O -1.4668(6) 0.2437(4) 0.5684(2)
O6A O -1.5019(5) 0.3228(6) 0.6215(2)
S2A S -1.4324(2) 0.2950(2) 0.59983(9)
O7A O -1.3658(5) 0.2527(5) 0.6257(2)
O8A O -1.3936(7) 0.3653(4) 0.5851(3)
S3? S 1.5380(6) 0.7760(9) -0.0885(4)
O9? O 1.591(2) 0.831(2) -0.0636(8)
O10? O 1.5933(19) 0.7133(16) -0.1007(9)
loop_
_geom_bond_atom_site_label_1
_geom_bond_atom_site_label_2
_geom_bond_site_symmetry_1
_geom_bond_site_symmetry_2
C1 H1 1_555 1_555
C2 C5 1_555 1_555
C3 H2 1_555 1_555
C4 H3 1_555 1_555
C5 C4 1_555 1_555
C6 C1 1_555 1_555
H4 C6 1_555 1_555
C7 H5 1_555 1_555
C8 H6 1_555 1_555
H7 C8 1_555 1_555
C9 C8 1_555 1_555
C10 H8 1_555 1_555
H9 C10 1_555 1_555
C11 H10 1_555 1_555
C12 C3 1_555 1_555
H11 C12 1_555 1_555
C13 C24 1_555 1_555
C14 H12 1_555 1_555
C15 H13 1_555 1_555
C16 C5 1_555 1_555
H14 C16 1_555 1_555
C17 H15 1_555 1_555
C18 H16 1_555 1_555
C19 C2 1_555 1_555
H17 C19 1_555 1_555
C20 C31 1_555 1_555
C21 C41 1_555 1_555
C22 C14 1_555 1_555
C23 H18 1_555 1_555
C24 H19 1_555 1_555
C25 C13 1_555 1_555
C26 H20 1_555 1_555
C27 H21 1_555 1_555
C28 C18 1_555 1_555
H22 C28 1_555 1_555
C29 C19 1_555 1_555
H23 C29 1_555 1_555
C30 C50 1_555 1_555
C31 H24 1_555 1_555
H25 C31 1_555 1_555
C32 C13 1_555 1_555
H26 C32 1_555 1_555
C33 H27 1_555 1_555
C34 C25 1_555 1_555
H28 C34 1_555 1_555
C35 C4 1_555 1_555
H29 C35 1_555 1_555
C36 C25 1_555 1_555
H30 C36 1_555 1_555
C37 H31 1_555 1_555
C38 C10 1_555 1_555
C39 H32 1_555 1_555
H33 C39 1_555 1_555
C40 C9 1_555 1_555
H34 C40 1_555 1_555
C41 H35 1_555 1_555
H36 C41 1_555 1_555
C42 C24 1_555 1_555
H37 C42 1_555 1_555
C43 H38 1_555 1_555
C44 H39 1_555 1_555
H40 C44 1_555 1_555
C45 C55 1_555 1_555
C46 C43 1_555 1_555
H41 C46 1_555 1_555
C47 C37 1_555 1_555
H42 C47 1_555 1_555
C48 C18 1_555 1_555
C49 C21 1_555 1_555
H43 C49 1_555 1_555
C50 H44 1_555 1_555
C51 C16 1_555 1_555
H45 C51 1_555 1_555
C52 C2 1_555 1_555
H46 C52 1_555 1_555
C53 H47 1_555 1_555
C54 C49 1_555 1_555
H48 C54 1_555 1_555
C55 C14 1_555 1_555
H49 C55 1_555 1_555
C56 H50 1_555 1_555
C57 H51 1_555 1_555
C58 C39 1_555 1_555
C59 C23 1_555 1_555
H52 C59 1_555 1_555
C60 C9 1_555 1_555
H53 C60 1_555 1_555
C61 C33 1_555 1_555
H54 C61 1_555 1_555
C62 C45 1_555 1_555
H55 C62 1_555 1_555
C63 C45 1_555 1_555
H56 C63 1_555 1_555
H57 C63 1_555 1_555
C64 C54 1_555 1_555
C65 C50 1_555 1_555
H58 C65 1_555 1_555
C66 C22 1_555 1_555
H59 C66 1_555 1_555
C67 C21 1_555 1_555
H60 C67 1_555 1_555
C68 C27 1_555 1_555
H61 C68 1_555 1_555
C69 C58 1_555 1_555
H62 C69 1_555 1_555
C70 C30 1_555 1_555
H63 C70 1_555 1_555
N1 C77 1_555 1_555
C71 C42 1_555 1_555
C72 C28 1_555 1_555
C73 C38 1_555 1_555
H64 C73 1_555 1_555
C74 H65 1_555 1_555
C75 C72 1_555 1_555
H66 C75 1_555 1_555
H67 C75 1_555 1_555
C76 H68 1_555 1_555
C77 H69 1_555 1_555
C78 C32 1_555 1_555
H70 C78 1_555 1_555
C79 C74 1_555 1_555
H71 C79 1_555 1_555
N2 C7 1_555 1_555
N3 C7 1_555 1_555
N4 C3 1_555 1_555
N5 C11 1_555 1_555
N6 C23 1_555 1_555
N7 C44 1_555 1_555
N8 C6 1_555 1_555
N9 C1 1_555 1_555
N10 C26 1_555 1_555
N11 C26 1_555 1_555
N12 C17 1_555 1_555
N13 C17 1_555 1_555
C80 N1 1_555 1_555
H72 C80 1_555 1_555
N14 C75 1_555 1_555
N15 C56 1_555 1_555
N16 C56 1_555 1_555
O1 S1 1_555 1_555
O2 S1 1_555 1_555
O3 S1 1_555 1_555
O4 S1 1_555 1_555
Zn1 N2 1_555 1_555
Zn2 N5 1_555 1_555
O5 Zn2 1_555 1_555
O6 S2 1_555 1_555
S2 O5 1_555 1_555
O7 S2 1_555 1_555
O8 S2 1_555 1_555
C1A H1A 1_555 1_555
C2A C5A 1_555 1_555
C3A H2A 1_555 1_555
C4A H3A 1_555 1_555
C5A C4A 1_555 1_555
C6A C1A 1_555 1_555
H4A C6A 1_555 1_555
C7A H5A 1_555 1_555
C8A H6A 1_555 1_555
H7A C8A 1_555 1_555
C9A C8A 1_555 1_555
C10A H8A 1_555 1_555
H9A C10A 1_555 1_555
C11A H10A 1_555 1_555
C12A C3A 1_555 1_555
H11A C12A 1_555 1_555
C13A C24A 1_555 1_555
C15A H13A 1_555 1_555
C16A C5A 1_555 1_555
H14A C16A 1_555 1_555
C17B H15B 1_555 1_555
C19A C2A 1_555 1_555
H17A C19A 1_555 1_555
C20A C31A 1_555 1_555
C21B C41B 1_555 1_555
C23A H18A 1_555 1_555
C24A H19A 1_555 1_555
C25A C13A 1_555 1_555
C26B H20B 1_555 1_555
C27B H21B 1_555 1_555
C29A C19A 1_555 1_555
H23A C29A 1_555 1_555
C30B C30 1_555 1_555
C31A H24A 1_555 1_555
H25A C31A 1_555 1_555
C32A C13A 1_555 1_555
H26A C32A 1_555 1_555
C34A C25A 1_555 1_555
H28A C34A 1_555 1_555
C35A C4A 1_555 1_555
H29A C35A 1_555 1_555
C36A C25A 1_555 1_555
H30A C36A 1_555 1_555
C37A H31A 1_555 1_555
C38A C10A 1_555 1_555
C39B H32B 1_555 1_555
H33B C39B 1_555 1_555
C40A C9A 1_555 1_555
H34A C40A 1_555 1_555
C41B H35B 1_555 1_555
H36B C41B 1_555 1_555
C42A C24A 1_555 1_555
H37A C42A 1_555 1_555
C43B H38B 1_555 1_555
C44A H39A 1_555 1_555
H40A C44A 1_555 1_555
C46B C43B 1_555 1_555
H41B C46B 1_555 1_555
C47A C37A 1_555 1_555
H42A C47A 1_555 1_555
C49B C21B 1_555 1_555
H43B C49B 1_555 1_555
C50B C30B 1_555 1_555
H44B C50B 1_555 1_555
C51A C16A 1_555 1_555
H45A C51A 1_555 1_555
C52A C2A 1_555 1_555
H46A C52A 1_555 1_555
C53A H47A 1_555 1_555
C54B C49B 1_555 1_555
H48B C54B 1_555 1_555
C57B H51B 1_555 1_555
C58B C39B 1_555 1_555
C59A C23A 1_555 1_555
H52A C59A 1_555 1_555
C60A C9A 1_555 1_555
H53A C60A 1_555 1_555
C64B C64 1_555 1_555
C65B C50B 1_555 1_555
H58B C65B 1_555 1_555
C67B C21B 1_555 1_555
H60B C67B 1_555 1_555
C68B C27B 1_555 1_555
H61B C68B 1_555 1_555
C69B C58B 1_555 1_555
H62B C69B 1_555 1_555
C70B C30B 1_555 1_555
H63B C70B 1_555 1_555
C71A C42A 1_555 1_555
C73A C38A 1_555 1_555
H64A C73A 1_555 1_555
C78A C32A 1_555 1_555
H70A C78A 1_555 1_555
N2A C7A 1_555 1_555
N3A C7A 1_555 1_555
N4A C3A 1_555 1_555
N5A C11A 1_555 1_555
N6A C23A 1_555 1_555
N7A C44A 1_555 1_555
N8A Zn1 1_555 1_555
N8_2 Zn1A 1_555 1_555
N9A C1A 1_555 1_555
N10B C26B 1_555 1_555
N10A Zn2A 1_555 1_555
N11B C26B 1_555 1_555
N12B C17B 1_555 1_555
N12A Zn2A 1_555 1_555
N13B C17B 1_555 1_555
O1A S1A 1_555 1_555
O2A S1A 1_555 1_555
O3A S1A 1_555 1_555
O4A S1A 1_555 1_555
Zn1A N2A 1_555 1_555
Zn1A_2 N8 1_555 1_555
Zn2A N5A 1_555 1_555
Zn2B N12B 1_555 1_555
Zn2B_2 N10B 1_555 1_555
O5A Zn2A 1_555 1_555
O6A S2A 1_555 1_555
S2A O5A 1_555 1_555
O7A S2A 1_555 1_555
O8A S2A 1_555 1_555
C8 N9 1_555 1_555
C10 N4 1_555 1_555
C11 N4 1_555 1_555
C12 N5 1_555 1_555
C15 N8 1_555 1_555
C15 N9 1_555 1_555
C20 C35 1_555 1_555
C20 C51 1_555 1_555
C22 C48 1_555 1_555
C27 N10 1_555 1_555
C29 C38 1_555 1_555
C31 N3 1_555 1_555
C33 C72 1_555 1_555
C34 C40 1_555 1_555
C36 C60 1_555 1_555
C37 N3 1_555 1_555
C39 N11 1_555 1_555
C41 N13 1_555 1_555
C43 N12 1_555 1_555
C44 C71 1_555 1_555
C46 N13 1_555 1_555
C47 N2 1_555 1_555
C48 C61 1_555 1_555
C52 C73 1_555 1_555
C53 N6 1_555 1_555
C53 N7 1_555 1_555
C57 C64 1_555 1_555
C57 C67 1_555 1_555
C58 C65 1_555 1_555
C59 N7 1_555 1_555
C62 C66 1_555 1_555
C63 N15 1_555 1_555
C68 N11 1_555 1_555
C69 C70 1_555 1_555
C71 C78 1_555 1_555
C74 N15 1_555 1_555
C76 C80 1_555 1_555
C76 N14 1_555 1_555
C77 N14 1_555 1_555
C79 N16 1_555 1_555
N6 Zn1 1_555 1_555
N10 Zn2 1_555 1_555
N12 Zn2 1_555 1_555
O1 Zn1 1_555 1_555
C6A N8A 1_555 1_555
C8A N9A 1_555 1_555
C10A N4A 1_555 1_555
C11A N4A 1_555 1_555
C12A N5A 1_555 1_555
C15A N8A 1_555 1_555
C15A N9A 1_555 1_555
C20A C35A 1_555 1_555
C20A C51A 1_555 1_555
C27B N10B 1_555 1_555
C29A C38A 1_555 1_555
C31A N3A 1_555 1_555
C34A C40A 1_555 1_555
C36A C60A 1_555 1_555
C37A N3A 1_555 1_555
C39B N11B 1_555 1_555
C41B N13B 1_555 1_555
C43B N12B 1_555 1_555
C44A C71A 1_555 1_555
C46B N13B 1_555 1_555
C47A N2A 1_555 1_555
C52A C73A 1_555 1_555
C53A N6A 1_555 1_555
C53A N7A 1_555 1_555
C54B C64B 1_555 1_555
C57B C64B 1_555 1_555
C57B C67B 1_555 1_555
C58B C65B 1_555 1_555
C59A N7A 1_555 1_555
C68B N11B 1_555 1_555
C69B C70B 1_555 1_555
C71A C78A 1_555 1_555
N6A Zn1A 1_555 1_555
O1A Zn1A 1_555 1_555

#END
