
#######################################################################
#
#                 Cambridge Crystallographic Data Centre
#                                CCDC 
#
#######################################################################
#
# If this CIF has been generated from an entry in the Cambridge 
# Structural Database, then it will include bibliographic, chemical, 
# crystal, experimental, refinement or atomic coordinate data resulting 
# from the CCDC's data processing and validation procedures.
#
#######################################################################

data_COKGUF
_symmetry_cell_setting           monoclinic
_symmetry_space_group_name_H-M   'C 2/c'
_symmetry_Int_Tables_number      15
_space_group_name_Hall           '-C 2yn'
loop_
_symmetry_equiv_pos_site_id
_symmetry_equiv_pos_as_xyz
1 x,y,z
2 1/2+x,1/2+y,z
3 -x,y,1/2-z
4 1/2-x,1/2+y,1/2-z
5 -x,-y,-z
6 1/2-x,1/2-y,-z
7 x,-y,1/2+z
8 1/2+x,1/2-y,1/2+z
_cell_length_a                   23.3100(7)
_cell_length_b                   13.6710(5)
_cell_length_c                   18.0310(4)
_cell_angle_alpha                90
_cell_angle_beta                 108.367(2)
_cell_angle_gamma                90
_cell_volume                     5453.24
loop_
_atom_site_label
_atom_site_type_symbol
_atom_site_fract_x
_atom_site_fract_y
_atom_site_fract_z
C1 C 0.15049(12) 0.4244(2) -0.01626(15)
H1 H 0.1653 0.4637 -0.0496
C2 C 0.07780(12) 0.39358(19) 0.04911(15)
H2 H 0.0414 0.4113 0.0588
C3 C 0.34745(12) 0.0737(2) 0.30739(16)
H3 H 0.3444 0.1274 0.3394
C5 C 0.23047(11) -0.16805(18) 0.11080(13)
H5 H 0.2647 -0.1955 0.0962
H6 H 0.1951 -0.2113 0.0888
C6 C 0.30245(11) 0.00201(19) 0.28839(14)
C7 C 0.25077(11) 0.00622(19) 0.31887(14)
H7 H 0.2454 -0.0467 0.3502
C8 C 0.21571(11) -0.06684(18) 0.07490(13)
H8 H 0.2086 -0.0718 0.0179
H9 H 0.2512 -0.0239 0.0969
C9 C 0.35715(11) -0.08215(19) 0.21371(14)
H10 H 0.3603 -0.1352 0.1812
C10 C 0.16361(12) 0.0694(2) 0.34106(14)
H11 H 0.1665 0.1256 0.3767
H12 H 0.1688 0.0088 0.3726
C11 C 0.18115(11) 0.33993(19) 0.01640(14)
H13 H 0.2162 0.3208 0.0038
C12 C 0.40106(12) -0.0103(2) 0.23262(16)
H14 H 0.4344 -0.0140 0.2132
C13 C 0.07717(11) 0.16741(19) 0.24568(14)
H15 H 0.0344 0.1603 0.2131
H16 H 0.0787 0.2133 0.2887
C14 C 0.16085(10) -0.01922(18) 0.08842(14)
H17 H 0.1252 -0.0616 0.0654
H18 H 0.1676 -0.0159 0.1454
C15 C 0.08250(11) 0.25855(19) 0.13829(14)
H19 H 0.0400 0.2627 0.1274
C16 C 0.30828(10) -0.07676(18) 0.24226(13)
C17 C 0.14640(11) 0.08294(18) 0.05444(14)
H20 H 0.1066 0.1033 0.0580
H21 H 0.1434 0.0813 -0.0016
C18 C 0.16134(11) 0.28295(18) 0.06727(13)
C19 C 0.10888(10) 0.31031(18) 0.08499(13)
C20 C 0.39636(13) 0.0670(2) 0.27996(17)
H22 H 0.4270 0.1157 0.2937
C21 C 0.09869(12) 0.4513(2) -0.00046(15)
H23 H 0.0774 0.5087 -0.0232
C22 C 0.10111(12) 0.06872(19) 0.27997(15)
H24 H 0.1023 0.0250 0.2367
H25 H 0.0721 0.0402 0.3040
N1 N 0.11197(9) 0.20882(15) 0.19760(11)
N2 N 0.21301(9) 0.07618(15) 0.30591(11)
S1 S 0.25021(3) -0.16760(4) 0.21763(3)
S2 S 0.20351(3) 0.17385(5) 0.10474(3)
Cu1 Cu 0.203751(13) 0.18877(2) 0.233416(16)
S1C S 0.24979(3) 0.33240(4) 0.28237(3)
Cu1C Cu 0.296249(13) -0.31123(2) 0.266584(16)
C4 C 0.01813(12) 0.1646(2) 0.61048(15)
H4 H 0.0270 0.1890 0.5630
Cl1 Cl -0.04076(4) 0.23491(6) 0.62365(5)
Cl2 Cl 0.08426(3) 0.17685(5) 0.69159(4)
Cl3 Cl -0.00350(3) 0.04046(5) 0.59550(4)
F1 F 0.05789(6) 0.33465(11) 0.39593(8)
F2 F 0.08889(7) 0.29660(12) 0.52544(8)
F3 F 0.06468(8) 0.17590(11) 0.43540(9)
F4 F 0.14970(6) 0.26574(13) 0.45137(8)
B1 B 0.09057(13) 0.2689(2) 0.45212(16)
loop_
_geom_bond_atom_site_label_1
_geom_bond_atom_site_label_2
_geom_bond_site_symmetry_1
_geom_bond_site_symmetry_2
C1 H1 1_555 1_555
C2 H2 1_555 1_555
C3 H3 1_555 1_555
C4 H4 1_555 1_555
C5 H5 1_555 1_555
H6 C5 1_555 1_555
C6 C3 1_555 1_555
C7 C6 1_555 1_555
H7 C7 1_555 1_555
C8 C5 1_555 1_555
H8 C8 1_555 1_555
H9 C8 1_555 1_555
C9 H10 1_555 1_555
C10 H11 1_555 1_555
H12 C10 1_555 1_555
C11 C1 1_555 1_555
H13 C11 1_555 1_555
C12 C9 1_555 1_555
H14 C12 1_555 1_555
C13 H15 1_555 1_555
H16 C13 1_555 1_555
C14 C8 1_555 1_555
H17 C14 1_555 1_555
H18 C14 1_555 1_555
C15 H19 1_555 1_555
C16 C6 1_555 1_555
C17 C14 1_555 1_555
H20 C17 1_555 1_555
H21 C17 1_555 1_555
C18 C11 1_555 1_555
C19 C2 1_555 1_555
C20 C3 1_555 1_555
H22 C20 1_555 1_555
C21 C1 1_555 1_555
H23 C21 1_555 1_555
C22 C10 1_555 1_555
H24 C22 1_555 1_555
H25 C22 1_555 1_555
N1 C13 1_555 1_555
N2 C7 1_555 1_555
S1 C5 1_555 1_555
S2 C17 1_555 1_555
Cu1 N1 1_555 1_555
Cl1 C4 1_555 1_555
Cl2 C4 1_555 1_555
Cl3 C4 1_555 1_555
F1 B1 1_555 1_555
F2 B1 1_555 1_555
F3 B1 1_555 1_555
F4 B1 1_555 1_555
S1C Cu1 1_555 1_555
Cu1C S1 1_555 1_555
C2 C21 1_555 1_555
C9 C16 1_555 1_555
C10 N2 1_555 1_555
C12 C20 1_555 1_555
C13 C22 1_555 1_555
C15 C19 1_555 1_555
C15 N1 1_555 1_555
C16 S1 1_555 1_555
C18 C19 1_555 1_555
C18 S2 1_555 1_555
N2 Cu1 1_555 1_555
S2 Cu1 1_555 1_555

#END
