
#######################################################################
#
#                 Cambridge Crystallographic Data Centre
#                                CCDC 
#
#######################################################################
#
# If this CIF has been generated from an entry in the Cambridge 
# Structural Database, then it will include bibliographic, chemical, 
# crystal, experimental, refinement or atomic coordinate data resulting 
# from the CCDC's data processing and validation procedures.
#
#######################################################################

data_COKJUI
_symmetry_cell_setting           triclinic
_symmetry_space_group_name_H-M   'P -1'
_symmetry_Int_Tables_number      2
_space_group_name_Hall           '-P 1'
loop_
_symmetry_equiv_pos_site_id
_symmetry_equiv_pos_as_xyz
1 x,y,z
2 -x,-y,-z
_cell_length_a                   6.324(3)
_cell_length_b                   7.720(4)
_cell_length_c                   9.399(4)
_cell_angle_alpha                77.53(3)
_cell_angle_beta                 82.46(3)
_cell_angle_gamma                66.62(3)
_cell_volume                     410.727
loop_
_atom_site_label
_atom_site_type_symbol
_atom_site_fract_x
_atom_site_fract_y
_atom_site_fract_z
Mn1 Mn 0.19941(6) 0.59944(5) 0.49805(4)
N1 N 0.5001(4) 0.5905(3) 0.6117(2)
N2 N 0.4791(3) 0.7265(3) 0.6647(2)
N3 N 0.4514(4) 0.8562(4) 0.7171(3)
O1 O 0.0619(3) 0.3990(2) 0.6355(2)
N4 N 0.1568(4) 0.2187(3) 1.0711(2)
H1 H 0.1757 0.1861 1.1635
C1 C 0.3380(5) 0.2214(4) 0.9776(3)
H2 H 0.4819 0.1862 1.0140
C2 C 0.3128(4) 0.2749(4) 0.8308(3)
H3 H 0.4401 0.2721 0.7680
C3 C 0.0925(4) 0.3350(3) 0.7735(3)
C4 C -0.0897(5) 0.3238(4) 0.8753(3)
H4 H -0.2355 0.3555 0.8429
C5 C -0.0519(5) 0.2663(4) 1.0212(3)
H5 H -0.1733 0.2602 1.0870
O2 O 0.1749(3) 0.8755(2) 0.3650(2)
O3 O 0.0253(3) 1.1902(2) 0.3678(2)
C6 C 0.0585(4) 1.0178(3) 0.4227(2)
Mn1A Mn 0.80059(6) 0.40056(5) 0.50195(4)
Mn1A_2 Mn -0.19941(6) 0.40056(5) 0.50195(4)
Mn1A_3 Mn -0.19941(6) 1.40056(5) 0.50195(4)
N1A N 0.4999(4) 0.4095(3) 0.3883(2)
N2A N 0.5209(3) 0.2735(3) 0.3353(2)
N3A N 0.5486(4) 0.1438(4) 0.2829(3)
O1A O -0.0619(3) 0.6010(2) 0.3645(2)
O1_2 O 1.0619(3) 0.3990(2) 0.6355(2)
O1A_2 O 0.9381(3) 0.6010(2) 0.3645(2)
N4A N -0.1568(4) 0.7813(3) -0.0711(2)
H1A H -0.1757 0.8139 -0.1635
C1A C -0.3380(5) 0.7786(4) 0.0224(3)
H2A H -0.4819 0.8138 -0.0140
C2A C -0.3128(4) 0.7251(4) 0.1692(3)
H3A H -0.4401 0.7279 0.2320
C3A C -0.0925(4) 0.6650(3) 0.2265(3)
C4A C 0.0897(5) 0.6762(4) 0.1247(3)
H4A H 0.2355 0.6445 0.1571
C5A C 0.0519(5) 0.7337(4) -0.0212(3)
H5A H 0.1733 0.7398 -0.0870
O2A O -0.1749(3) 1.1245(2) 0.6350(2)
O2A_2 O 0.8251(3) 0.1245(2) 0.6350(2)
O3A O -0.0253(3) 0.8098(2) 0.6322(2)
O3_2 O 1.0253(3) 0.1902(2) 0.3678(2)
C6A C -0.0585(4) 0.9822(3) 0.5773(2)
loop_
_geom_bond_atom_site_label_1
_geom_bond_atom_site_label_2
_geom_bond_site_symmetry_1
_geom_bond_site_symmetry_2
Mn1 N1 1_555 1_555
N1 N2 1_555 1_555
N2 N3 1_555 1_555
O1 Mn1 1_555 1_555
N4 H1 1_555 1_555
C1 N4 1_555 1_555
H2 C1 1_555 1_555
C2 C1 1_555 1_555
H3 C2 1_555 1_555
C3 O1 1_555 1_555
C4 C3 1_555 1_555
H4 C4 1_555 1_555
C5 N4 1_555 1_555
H5 C5 1_555 1_555
O2 Mn1 1_555 1_555
O3 C6 1_555 1_555
C6 O2 1_555 1_555
Mn1A N1 1_555 1_555
Mn1A_2 O1 1_555 1_555
Mn1A_3 O3 1_555 1_555
N1A Mn1 1_555 1_555
N2A N1A 1_555 1_555
N3A N2A 1_555 1_555
O1A Mn1 1_555 1_555
O1_2 Mn1A 1_555 1_555
O1A_2 Mn1A 1_555 1_555
N4A H1A 1_555 1_555
C1A N4A 1_555 1_555
H2A C1A 1_555 1_555
C2A C1A 1_555 1_555
H3A C2A 1_555 1_555
C3A O1A 1_555 1_555
C4A C3A 1_555 1_555
H4A C4A 1_555 1_555
C5A N4A 1_555 1_555
H5A C5A 1_555 1_555
O2A Mn1A_3 1_555 1_555
O2A_2 Mn1A 1_555 1_555
O3A Mn1 1_555 1_555
O3_2 Mn1A 1_555 1_555
C6A C6 1_555 1_555
C2 C3 1_555 1_555
C4 C5 1_555 1_555
Mn1A N1A 1_555 1_555
Mn1A_2 O1A 1_555 1_555
C2A C3A 1_555 1_555
C4A C5A 1_555 1_555
O2A C6A 1_555 1_555
O3A C6A 1_555 1_555

#END
