
#######################################################################
#
#                 Cambridge Crystallographic Data Centre
#                                CCDC 
#
#######################################################################
#
# If this CIF has been generated from an entry in the Cambridge 
# Structural Database, then it will include bibliographic, chemical, 
# crystal, experimental, refinement or atomic coordinate data resulting 
# from the CCDC's data processing and validation procedures.
#
#######################################################################

data_COKKUK
_symmetry_cell_setting           orthorhombic
_symmetry_space_group_name_H-M   'P n n a'
_symmetry_Int_Tables_number      52
_space_group_name_Hall           '-P 2a 2bc'
loop_
_symmetry_equiv_pos_site_id
_symmetry_equiv_pos_as_xyz
1 x,y,z
2 1/2-x,-y,z
3 1/2-x,1/2+y,1/2-z
4 x,1/2-y,1/2-z
5 -x,-y,-z
6 1/2+x,y,-z
7 1/2+x,1/2-y,1/2+z
8 -x,1/2+y,1/2+z
_cell_length_a                   8.7933(7)
_cell_length_b                   17.7457(16)
_cell_length_c                   14.8568(12)
_cell_angle_alpha                90
_cell_angle_beta                 90
_cell_angle_gamma                90
_cell_volume                     2318.3
loop_
_atom_site_label
_atom_site_type_symbol
_atom_site_fract_x
_atom_site_fract_y
_atom_site_fract_z
Cd1 Cd 0.08690(4) 0.2500 0.2500
N1 N 0.2523(4) 0.27625(16) 0.14027(18)
N2 N 0.4210(3) 0.33649(16) 0.0588(2)
O1 O -0.0735(4) 0.38332(19) 0.1996(2)
O2 O -0.0362(3) 0.33023(16) 0.33018(19)
Br1 Br -0.2500 0.5000 0.59589(4)
C1 C -0.2500 0.5000 0.4681(3)
C2 C -0.1734(4) 0.4438(2) 0.4230(2)
H1 H -0.1218 0.4066 0.4548
C3 C -0.1740(4) 0.4434(2) 0.3294(2)
C4 C -0.2500 0.5000 0.2836(3)
H2 H -0.2500 0.5000 0.2210
C5 C -0.0882(4) 0.3818(2) 0.2815(3)
C6 C 0.2575(4) 0.24456(19) 0.0560(2)
H3 H 0.1992 0.2039 0.0368
C7 C 0.3598(5) 0.2814(2) 0.0058(3)
H4 H 0.3845 0.2714 -0.0539
C8 C 0.3532(4) 0.3314(2) 0.1400(2)
C9 C 0.3881(6) 0.3809(3) 0.2184(3)
H5 H 0.3261 0.3664 0.2687
H6 H 0.3673 0.4324 0.2028
H7 H 0.4935 0.3758 0.2341
C10 C 0.5279(4) 0.3954(2) 0.0311(3)
H8 H 0.5815 0.3793 -0.0227
H9 H 0.6024 0.4033 0.0783
C11 C 0.4462(4) 0.4685(2) 0.0122(3)
H10 H 0.3884 0.4830 0.0651
H11 H 0.3750 0.4609 -0.0368
N1D N 0.7477(4) 0.72375(16) -0.14027(18)
N2D N 0.5790(3) 0.66351(16) -0.0588(2)
C6D C 0.7425(4) 0.75544(19) -0.0560(2)
H3D H 0.8008 0.7961 -0.0368
C7D C 0.6402(5) 0.7186(2) -0.0058(3)
H4D H 0.6155 0.7286 0.0539
C8D C 0.6468(4) 0.6686(2) -0.1400(2)
C9D C 0.6119(6) 0.6191(3) -0.2184(3)
H5D H 0.6739 0.6336 -0.2687
H6D H 0.6327 0.5676 -0.2028
H7D H 0.5065 0.6242 -0.2341
C10D C 0.4721(4) 0.6046(2) -0.0311(3)
H8D H 0.4185 0.6207 0.0227
H9D H 0.3976 0.5967 -0.0783
C11D C 0.5538(4) 0.5315(2) -0.0122(3)
H10D H 0.6116 0.5170 -0.0651
H11D H 0.6250 0.5391 0.0368
O1A O -0.4265(4) 0.61668(19) 0.1996(2)
O2A O -0.4638(3) 0.66977(16) 0.33018(19)
C2A C -0.3266(4) 0.5562(2) 0.4230(2)
H1A H -0.3782 0.5934 0.4548
C3A C -0.3260(4) 0.5566(2) 0.3294(2)
C5A C -0.4118(4) 0.6182(2) 0.2815(3)
Cd1A Cd -0.58690(4) 0.7500 0.2500
Cd1D Cd 0.91310(4) 0.7500 -0.2500
N1C N 0.2523(4) 0.22375(16) 0.35973(18)
O2C O -0.0362(3) 0.16977(16) 0.16982(19)
loop_
_geom_bond_atom_site_label_1
_geom_bond_atom_site_label_2
_geom_bond_site_symmetry_1
_geom_bond_site_symmetry_2
Cd1 N1 1_555 1_555
N1 C6 1_555 1_555
N2 C7 1_555 1_555
O1 C5 1_555 1_555
O2 Cd1 1_555 1_555
Br1 C1 1_555 1_555
C1 C2 1_555 1_555
C2 H1 1_555 1_555
C3 C2 1_555 1_555
C4 C3 1_555 1_555
H2 C4 1_555 1_555
C5 O2 1_555 1_555
C6 H3 1_555 1_555
C7 C6 1_555 1_555
H4 C7 1_555 1_555
C8 N1 1_555 1_555
C9 C8 1_555 1_555
H5 C9 1_555 1_555
H6 C9 1_555 1_555
H7 C9 1_555 1_555
C10 N2 1_555 1_555
H8 C10 1_555 1_555
H9 C10 1_555 1_555
C11 C10 1_555 1_555
H10 C11 1_555 1_555
H11 C11 1_555 1_555
N1D C6D 1_555 1_555
N2D C7D 1_555 1_555
C6D H3D 1_555 1_555
C7D C6D 1_555 1_555
H4D C7D 1_555 1_555
C8D N1D 1_555 1_555
C9D C8D 1_555 1_555
H5D C9D 1_555 1_555
H6D C9D 1_555 1_555
H7D C9D 1_555 1_555
C10D N2D 1_555 1_555
H8D C10D 1_555 1_555
H9D C10D 1_555 1_555
C11D C11 1_555 1_555
H10D C11D 1_555 1_555
H11D C11D 1_555 1_555
O1A C5A 1_555 1_555
O2A C5A 1_555 1_555
C2A C1 1_555 1_555
H1A C2A 1_555 1_555
C3A C4 1_555 1_555
C5A C3A 1_555 1_555
Cd1A O2A 1_555 1_555
Cd1D N1D 1_555 1_555
N1C Cd1 1_555 1_555
O2C Cd1 1_555 1_555
N2 C8 1_555 1_555
C3 C5 1_555 1_555
N2D C8D 1_555 1_555
C10D C11D 1_555 1_555
C2A C3A 1_555 1_555

#END
