
#######################################################################
#
#                 Cambridge Crystallographic Data Centre
#                                CCDC 
#
#######################################################################
#
# If this CIF has been generated from an entry in the Cambridge 
# Structural Database, then it will include bibliographic, chemical, 
# crystal, experimental, refinement or atomic coordinate data resulting 
# from the CCDC's data processing and validation procedures.
#
#######################################################################

data_COKMEV
_symmetry_cell_setting           monoclinic
_symmetry_space_group_name_H-M   'P 2/n'
_symmetry_Int_Tables_number      13
_space_group_name_Hall           '-P 2yac'
loop_
_symmetry_equiv_pos_site_id
_symmetry_equiv_pos_as_xyz
1 x,y,z
2 1/2-x,y,1/2-z
3 -x,-y,-z
4 1/2+x,-y,1/2+z
_cell_length_a                   16.5140(4)
_cell_length_b                   11.7929(2)
_cell_length_c                   20.8057(4)
_cell_angle_alpha                90
_cell_angle_beta                 102.894(2)
_cell_angle_gamma                90
_cell_volume                     3949.7
loop_
_atom_site_label
_atom_site_type_symbol
_atom_site_fract_x
_atom_site_fract_y
_atom_site_fract_z
Cd1 Cd 0.2500 0.47541(4) 0.2500
N1 N 0.2500 0.2753(4) 0.2500
N2 N 0.2500 -0.3243(5) 0.2500
N3 N 0.3458(3) 0.4831(3) 0.35101(19)
C1 C 0.2989(4) 0.2157(4) 0.2984(3)
H1 H 0.3346 0.2561 0.3330
C2 C 0.3000(4) 0.0991(4) 0.3005(3)
H2 H 0.3350 0.0609 0.3364
C3 C 0.2500 0.0373(5) 0.2500
C4 C 0.2627(4) -0.2651(4) 0.3065(3)
H3 H 0.2711 -0.3055 0.3469
C5 C 0.2640(4) -0.1491(4) 0.3084(3)
H4 H 0.2745 -0.1107 0.3496
C6 C 0.2500 -0.0876(5) 0.2500
C7 C 0.4179(4) 0.5359(5) 0.3545(3)
H5 H 0.4277 0.5692 0.3153
C8 C 0.4791(4) 0.5451(5) 0.4111(2)
H6 H 0.5291 0.5846 0.4104
C9 C 0.4676(3) 0.4965(4) 0.4691(2)
C10 C 0.3923(3) 0.4423(4) 0.4663(2)
H7 H 0.3811 0.4082 0.5047
C11 C 0.3336(3) 0.4378(4) 0.4074(2)
H8 H 0.2823 0.4009 0.4068
O1 O 0.1388(3) 0.4798(3) 0.30104(19)
H9 H 0.109(3) 0.422(3) 0.299(3)
H10 H 0.138(4) 0.513(5) 0.336(2)
Cd1_2 Cd 0.2500 -0.52459(4) 0.2500
Cd1C Cd 0.7500 0.52459(4) 0.7500
N2_2 N 0.2500 0.6757(5) 0.2500
N3B N 0.6542(3) 0.5169(3) 0.64899(19)
N3A N 0.1542(3) 0.4831(3) 0.14899(19)
C1A C 0.2011(4) 0.2157(4) 0.2016(3)
H1A H 0.1654 0.2561 0.1670
C2A C 0.2000(4) 0.0991(4) 0.1995(3)
H2A H 0.1650 0.0609 0.1636
C4A C 0.2373(4) -0.2651(4) 0.1935(3)
H3A H 0.2289 -0.3055 0.1531
C5A C 0.2360(4) -0.1491(4) 0.1916(3)
H4A H 0.2255 -0.1107 0.1504
C7B C 0.5821(4) 0.4641(5) 0.6455(3)
H5B H 0.5723 0.4308 0.6847
C8B C 0.5209(4) 0.4549(5) 0.5889(2)
H6B H 0.4709 0.4154 0.5896
C9B C 0.5324(3) 0.5035(4) 0.5309(2)
C10B C 0.6077(3) 0.5577(4) 0.5337(2)
H7B H 0.6189 0.5918 0.4953
C11B C 0.6664(3) 0.5622(4) 0.5926(2)
H8B H 0.7177 0.5991 0.5932
O1A O 0.3612(3) 0.4798(3) 0.19896(19)
H9A H 0.391(3) 0.422(3) 0.201(3)
H10A H 0.362(4) 0.513(5) 0.164(2)
Cd2 Cd -0.2500 -0.50123(4) 0.2500
N4 N -0.2500 -0.3003(4) 0.2500
N5 N -0.2500 0.2990(4) 0.2500
N6 N -0.3468(3) -0.5064(3) 0.1497(2)
C12 C -0.3005(3) -0.2408(4) 0.2027(2)
H11 H -0.3369 -0.2813 0.1686
C13 C -0.3027(3) -0.1236(4) 0.2008(2)
H12 H -0.3398 -0.0852 0.1661
C14 C -0.2500 -0.0626(5) 0.2500
C15 C -0.2500 0.0629(5) 0.2500
C16 C -0.2566(3) 0.2410(4) 0.1943(2)
H13 H -0.2614 0.2821 0.1543
C17 C -0.2569(3) 0.1235(4) 0.1917(2)
H14 H -0.2616 0.0851 0.1508
C18 C -0.4216(4) -0.5497(5) 0.1454(3)
H15 H -0.4339 -0.5825 0.1838
C19 C -0.4831(4) -0.5500(5) 0.0880(3)
H16 H -0.5358 -0.5828 0.0877
C20 C -0.4678(3) -0.5026(4) 0.0312(2)
C21 C -0.3884(3) -0.4587(5) 0.0355(3)
H17 H -0.3742 -0.4263 -0.0024
C22 C -0.3304(3) -0.4623(5) 0.0944(3)
H18 H -0.2766 -0.4323 0.0961
O2 O -0.1405(2) -0.5006(3) 0.1950(2)
H19 H -0.112(4) -0.441(3) 0.195(3)
H20 H -0.151(5) -0.525(5) 0.1563(16)
Cd2_2 Cd -0.2500 0.49877(4) 0.2500
Cd2C Cd -0.7500 -0.49877(4) -0.2500
N5_2 N -0.2500 -0.7010(4) 0.2500
N6B N -0.6532(3) -0.4936(3) -0.1497(2)
N6A N -0.1532(3) -0.5064(3) 0.3503(2)
C12A C -0.1995(3) -0.2408(4) 0.2973(2)
H11A H -0.1631 -0.2813 0.3314
C13A C -0.1973(3) -0.1236(4) 0.2992(2)
H12A H -0.1602 -0.0852 0.3339
C16A C -0.2434(3) 0.2410(4) 0.3057(2)
H13A H -0.2386 0.2821 0.3457
C17A C -0.2431(3) 0.1235(4) 0.3083(2)
H14A H -0.2384 0.0851 0.3492
C18B C -0.5784(4) -0.4503(5) -0.1454(3)
H15B H -0.5661 -0.4175 -0.1838
C19B C -0.5169(4) -0.4500(5) -0.0880(3)
H16B H -0.4642 -0.4172 -0.0877
C20B C -0.5322(3) -0.4974(4) -0.0312(2)
C21B C -0.6116(3) -0.5413(5) -0.0355(3)
H17B H -0.6258 -0.5737 0.0024
C22B C -0.6696(3) -0.5377(5) -0.0944(3)
H18B H -0.7234 -0.5677 -0.0961
O2A O -0.3595(2) -0.5006(3) 0.3050(2)
H19A H -0.388(4) -0.441(3) 0.305(3)
H20A H -0.349(5) -0.525(5) 0.3437(16)
N7 N 0.0491(3) 0.2802(4) 0.2811(2)
N8 N -0.0598(3) -0.2948(4) 0.2038(2)
C23 C 0.0032(4) 0.2504(5) 0.2228(3)
H21 H -0.0147 0.3084 0.1911
C24 C -0.0199(4) 0.1414(5) 0.2055(3)
H22 H -0.0537 0.1258 0.1631
C25 C 0.0060(3) 0.0531(5) 0.2499(2)
C26 C 0.0547(5) 0.0836(5) 0.3104(3)
H23 H 0.0741 0.0277 0.3430
C27 C 0.0747(5) 0.1959(5) 0.3227(3)
H24 H 0.1096 0.2143 0.3641
C28 C -0.0158(3) -0.0670(4) 0.2325(3)
C29 C -0.0783(4) -0.0973(4) 0.1781(3)
H25 H -0.1070 -0.0405 0.1495
C30 C -0.0978(4) -0.2099(5) 0.1661(3)
H26 H -0.1407 -0.2284 0.1290
C31 C 0.0002(4) -0.2666(5) 0.2554(3)
H27 H 0.0279 -0.3253 0.2831
C32 C 0.0241(4) -0.1547(5) 0.2708(3)
H28 H 0.0680 -0.1389 0.3077
Cl1 Cl -0.16373(15) 0.29088(13) 0.04105(8)
O3 O -0.1782(3) 0.1844(4) 0.0664(2)
O4 O -0.1798(4) 0.2976(5) -0.0265(3)
O5 O -0.1747(5) 0.3849(6) 0.0761(4)
O6 O -0.0642(5) 0.2895(8) 0.0573(5)
Cl2 Cl -0.2792(3) -0.1850(3) 0.0064(2)
O7 O -0.2329(6) -0.2880(7) 0.0300(4)
O8 O -0.2498(6) -0.0986(7) 0.0547(4)
O9 O -0.2541(8) -0.1577(12) -0.0551(6)
O10 O -0.3651(6) -0.2019(10) -0.0042(6)
O11 O -0.3481(4) 0.3939(6) -0.0899(3)
C33 C -0.399(7) 0.305(13) -0.071(5)
O12? O -0.1445(12) 0.2905(14) -0.0231(7)
O13? O -0.2513(8) 0.3404(13) 0.0360(7)
O14? O -0.1173(7) 0.3620(10) 0.0859(5)
Cl3? Cl -0.2508(4) -0.1693(6) -0.0073(3)
O15? O -0.1686(19) -0.184(2) -0.0075(13)
O16? O -0.2884(15) -0.142(2) 0.0532(11)
O17? O -0.2757(9) -0.0833(13) -0.0561(7)
O18? O -0.2924(13) -0.2710(19) -0.0391(10)
O19? O -0.367(2) 0.112(3) -0.0274(17)
C34? C -0.304(3) 0.0824(18) -0.0630(16)
O20? O -0.4129(10) 0.1984(15) -0.0718(8)
C35? C -0.4982(8) 0.2112(13) -0.0709(7)
O21? O 0.4574(8) 0.0330(11) 0.4210(6)
C36? C 0.4687(11) -0.0647(14) 0.4639(8)
O22? O 0.4637(18) 0.133(2) 0.4617(13)
C37? C 0.500(3) 0.022(3) 0.477(2)
loop_
_geom_bond_atom_site_label_1
_geom_bond_atom_site_label_2
_geom_bond_site_symmetry_1
_geom_bond_site_symmetry_2
Cd1 N1 1_555 1_555
N1 C1 1_555 1_555
N2 C4 1_555 1_555
N3 Cd1 1_555 1_555
C1 H1 1_555 1_555
C2 C1 1_555 1_555
H2 C2 1_555 1_555
C3 C2 1_555 1_555
C4 H3 1_555 1_555
C5 C4 1_555 1_555
H4 C5 1_555 1_555
C6 C3 1_555 1_555
C7 N3 1_555 1_555
H5 C7 1_555 1_555
C8 C7 1_555 1_555
H6 C8 1_555 1_555
C9 C8 1_555 1_555
C10 C9 1_555 1_555
H7 C10 1_555 1_555
C11 N3 1_555 1_555
H8 C11 1_555 1_555
O1 Cd1 1_555 1_555
H9 O1 1_555 1_555
H10 O1 1_555 1_555
Cd2 N4 1_555 1_555
N4 C12 1_555 1_555
N5 C16 1_555 1_555
N6 Cd2 1_555 1_555
C12 H11 1_555 1_555
C13 C12 1_555 1_555
H12 C13 1_555 1_555
C14 C13 1_555 1_555
C15 C14 1_555 1_555
C16 H13 1_555 1_555
C17 C15 1_555 1_555
H14 C17 1_555 1_555
C18 N6 1_555 1_555
H15 C18 1_555 1_555
C19 C18 1_555 1_555
H16 C19 1_555 1_555
C20 C19 1_555 1_555
C21 C20 1_555 1_555
H17 C21 1_555 1_555
C22 N6 1_555 1_555
H18 C22 1_555 1_555
O2 Cd2 1_555 1_555
H19 O2 1_555 1_555
H20 O2 1_555 1_555
N7 C23 1_555 1_555
N8 C30 1_555 1_555
C23 H21 1_555 1_555
C24 C23 1_555 1_555
H22 C24 1_555 1_555
C25 C24 1_555 1_555
C26 C25 1_555 1_555
H23 C26 1_555 1_555
C27 N7 1_555 1_555
H24 C27 1_555 1_555
C28 C25 1_555 1_555
C29 C28 1_555 1_555
H25 C29 1_555 1_555
C30 C29 1_555 1_555
H26 C30 1_555 1_555
C31 N8 1_555 1_555
H27 C31 1_555 1_555
C32 C28 1_555 1_555
H28 C32 1_555 1_555
Cl1 O3 1_555 1_555
O4 Cl1 1_555 1_555
O5 Cl1 1_555 1_555
O6 Cl1 1_555 1_555
Cl2 O7 1_555 1_555
O8 Cl2 1_555 1_555
O9 Cl2 1_555 1_555
O10 Cl2 1_555 1_555
O11 C33 1_555 1_555
Cd1_2 N2 1_555 1_555
Cd1C N3B 1_555 1_555
N2_2 Cd1 1_555 1_555
N3B C7B 1_555 1_555
N3A Cd1 1_555 1_555
C1A N1 1_555 1_555
H1A C1A 1_555 1_555
C2A C3 1_555 1_555
H2A C2A 1_555 1_555
C4A N2 1_555 1_555
H3A C4A 1_555 1_555
C5A C6 1_555 1_555
H4A C5A 1_555 1_555
C7B H5B 1_555 1_555
C8B C7B 1_555 1_555
H6B C8B 1_555 1_555
C9B C9 1_555 1_555
C10B C9B 1_555 1_555
H7B C10B 1_555 1_555
C11B N3B 1_555 1_555
H8B C11B 1_555 1_555
O1A Cd1 1_555 1_555
H9A O1A 1_555 1_555
H10A O1A 1_555 1_555
Cd2_2 N5 1_555 1_555
Cd2C N6B 1_555 1_555
N5_2 Cd2 1_555 1_555
N6B C18B 1_555 1_555
N6A Cd2 1_555 1_555
C12A N4 1_555 1_555
H11A C12A 1_555 1_555
C13A C14 1_555 1_555
H12A C13A 1_555 1_555
C16A N5 1_555 1_555
H13A C16A 1_555 1_555
C17A C15 1_555 1_555
H14A C17A 1_555 1_555
C18B H15B 1_555 1_555
C19B C18B 1_555 1_555
H16B C19B 1_555 1_555
C20B C20 1_555 1_555
C21B C20B 1_555 1_555
H17B C21B 1_555 1_555
C22B N6B 1_555 1_555
H18B C22B 1_555 1_555
O2A Cd2 1_555 1_555
H19A O2A 1_555 1_555
H20A O2A 1_555 1_555
C5 C6 1_555 1_555
C10 C11 1_555 1_555
C16 C17 1_555 1_555
C21 C22 1_555 1_555
C26 C27 1_555 1_555
C31 C32 1_555 1_555
C1A C2A 1_555 1_555
C4A C5A 1_555 1_555
C8B C9B 1_555 1_555
C10B C11B 1_555 1_555
C12A C13A 1_555 1_555
C16A C17A 1_555 1_555
C19B C20B 1_555 1_555
C21B C22B 1_555 1_555

#END
