
#######################################################################
#
#                 Cambridge Crystallographic Data Centre
#                                CCDC 
#
#######################################################################
#
# If this CIF has been generated from an entry in the Cambridge 
# Structural Database, then it will include bibliographic, chemical, 
# crystal, experimental, refinement or atomic coordinate data resulting 
# from the CCDC's data processing and validation procedures.
#
#######################################################################

data_COKMUL
_symmetry_cell_setting           triclinic
_symmetry_space_group_name_H-M   'P -1'
_symmetry_Int_Tables_number      2
_space_group_name_Hall           '-P 1'
loop_
_symmetry_equiv_pos_site_id
_symmetry_equiv_pos_as_xyz
1 x,y,z
2 -x,-y,-z
_cell_length_a                   8.1806(4)
_cell_length_b                   12.3357(4)
_cell_length_c                   15.9290(8)
_cell_angle_alpha                73.757(3)
_cell_angle_beta                 83.508(2)
_cell_angle_gamma                83.782(3)
_cell_volume                     1528.43
loop_
_atom_site_label
_atom_site_type_symbol
_atom_site_fract_x
_atom_site_fract_y
_atom_site_fract_z
U1 U 0.86664(3) 0.23847(2) -0.122099(16)
U2 U 0.90183(4) -0.24720(2) 0.385220(17)
Gd1 Gd 0.45954(4) 0.23773(3) 0.23983(2)
O1 O 0.6669(6) 0.2715(4) 0.1214(3)
O2 O 0.7584(6) 0.3379(4) -0.0190(3)
O3 O 0.6597(6) 0.0992(4) 0.3158(3)
O4 O 0.8340(6) -0.0533(4) 0.3243(3)
O5 O 0.3817(6) 0.2622(4) 0.3819(3)
O6 O 0.3294(6) 0.1949(4) 0.5262(3)
O7 O 0.3856(7) 0.4343(4) 0.1850(3)
O8 O 0.2300(7) 0.5860(4) 0.2051(3)
O9 O 1.0679(6) 0.2829(4) -0.1314(3)
O10 O 0.6693(6) 0.1866(4) -0.1081(3)
O11 O 0.7625(7) -0.2850(4) 0.3232(3)
O12 O 1.0390(7) -0.2082(4) 0.4495(3)
O13 O 0.6628(6) 0.3483(4) 0.2739(3)
H1 H 0.6575 0.4280 0.2390
H2 H 0.6901 0.3414 0.3307
O14 O 0.9711(7) 0.0404(4) -0.1114(3)
O15 O 1.0737(7) -0.1248(4) -0.0260(3)
O16 O 1.0870(8) -0.4232(4) 0.3995(3)
O17 O 1.1668(8) -0.5962(5) 0.4854(3)
O18 O 0.9013(6) 0.2204(4) -0.2654(3)
H3 H 0.8031 0.2002 -0.2806
N1 N 0.3463(7) 0.2717(5) 0.0839(4)
N2 N 0.4996(8) 0.0524(5) 0.1866(4)
N3 N 0.2920(8) 0.0716(5) 0.3470(4)
N4 N 0.1382(8) 0.2916(5) 0.2448(4)
C1 C 0.3324(9) 0.1625(6) 0.0642(5)
H4 H 0.3232 0.1764 0.0019
H5 H 0.2326 0.1300 0.0953
C2 C 0.4800(10) 0.0781(6) 0.0905(5)
H6 H 0.4658 0.0085 0.0761
H7 H 0.5793 0.1088 0.0573
C3 C 0.3822(10) -0.0326(6) 0.2344(5)
H8 H 0.4242 -0.1063 0.2270
H9 H 0.2771 -0.0126 0.2090
C4 C 0.3550(10) -0.0403(6) 0.3328(5)
H10 H 0.2765 -0.0957 0.3610
H11 H 0.4584 -0.0652 0.3594
C5 C 0.1147(9) 0.0919(6) 0.3312(5)
H12 H 0.0517 0.0434 0.3799
H13 H 0.0993 0.0711 0.2784
C6 C 0.0480(9) 0.2139(6) 0.3213(5)
H14 H -0.0686 0.2217 0.3127
H15 H 0.0602 0.2348 0.3745
C7 C 0.0681(9) 0.2873(6) 0.1634(5)
H16 H -0.0385 0.3304 0.1591
H17 H 0.0510 0.2093 0.1674
C8 C 0.1795(9) 0.3343(6) 0.0809(5)
H18 H 0.1290 0.3290 0.0301
H19 H 0.1909 0.4137 0.0746
C9 C 0.4642(9) 0.3397(6) 0.0171(4)
H20 H 0.4332 0.4195 0.0106
H21 H 0.4573 0.3249 -0.0390
C10 C 0.6424(9) 0.3124(6) 0.0419(5)
C11 C 0.6702(9) 0.0058(6) 0.2025(4)
H22 H 0.7444 0.0453 0.1546
H23 H 0.6807 -0.0734 0.2030
C12 C 0.7226(9) 0.0159(6) 0.2887(5)
C13 C 0.3143(9) 0.0694(6) 0.4386(4)
H24 H 0.4088 0.0175 0.4582
H25 H 0.2178 0.0411 0.4762
C14 C 0.3404(8) 0.1855(7) 0.4481(4)
C15 C 0.1131(10) 0.4091(6) 0.2552(5)
H26 H 0.1024 0.4052 0.3172
H27 H 0.0109 0.4454 0.2312
C16 C 0.2531(10) 0.4807(6) 0.2101(5)
C17 C 1.0124(9) -0.0239(6) -0.0396(5)
C18 C 1.0716(12) -0.5047(6) 0.4671(5)
U1A U 0.13336(3) 0.76153(2) 0.122099(16)
U1A_2 U 1.13336(3) -0.23847(2) 0.122099(16)
U2A U 0.09817(4) 1.24720(2) -0.385220(17)
U2A_2 U 0.09817(4) 0.24720(2) 0.614780(17)
U2A_3 U 1.09817(4) -0.75280(2) 0.614780(17)
U2A_4 U 1.09817(4) 0.24720(2) -0.385220(17)
U2_2 U 0.90183(4) 0.75280(2) -0.614780(17)
Gd1A Gd 0.54046(4) 0.76227(3) -0.23983(2)
O1A O 0.3331(6) 0.7285(4) -0.1214(3)
O2A O 0.2416(6) 0.6621(4) 0.0190(3)
O3A O 0.3403(6) 0.9008(4) -0.3158(3)
O4A O 0.1660(6) 1.0533(4) -0.3243(3)
O5A O 0.6183(6) 0.7378(4) -0.3819(3)
O6A O 0.6706(6) 0.8051(4) -0.5262(3)
O6A_2 O 0.6706(6) -0.1949(4) 0.4738(3)
O6_2 O 0.3294(6) 1.1949(4) -0.4738(3)
O7A O 0.6144(7) 0.5657(4) -0.1850(3)
O8A O 0.7700(7) 0.4140(4) -0.2051(3)
O9A O -0.0679(6) 0.7171(4) 0.1314(3)
O10A O 0.3307(6) 0.8134(4) 0.1081(3)
O11A O 0.2375(7) 1.2850(4) -0.3232(3)
O12A O -0.0390(7) 1.2082(4) -0.4495(3)
O13A O 0.3372(6) 0.6517(4) -0.2739(3)
H1A H 0.3425 0.5720 -0.2390
H2A H 0.3099 0.6586 -0.3307
O14A O 1.0289(7) -0.0404(4) 0.1114(3)
O14A_2 O 0.0289(7) 0.9596(4) 0.1114(3)
O15A O 0.9263(7) 0.1248(4) 0.0260(3)
O15_2 O 0.0737(7) 0.8752(4) -0.0260(3)
O16A O 0.9130(8) -0.5768(4) 0.6005(3)
O16A_2 O -0.0870(8) 1.4232(4) -0.3995(3)
O17A O 0.8332(8) -0.4038(5) 0.5146(3)
O17_2 O 0.1668(8) 1.4038(5) -0.5146(3)
O18A O 1.0987(6) -0.2204(4) 0.2654(3)
O18A_2 O 0.0987(6) 0.7796(4) 0.2654(3)
O18_2 O -0.0987(6) 1.2204(4) -0.2654(3)
H3A H 1.1969 -0.2002 0.2806
H3A_2 H 0.1969 0.7998 0.2806
H3_2 H -0.1969 1.2002 -0.2806
N1A N 0.6537(7) 0.7283(5) -0.0839(4)
N2A N 0.5004(8) 0.9476(5) -0.1866(4)
N3A N 0.7080(8) 0.9284(5) -0.3470(4)
N4A N 0.8618(8) 0.7084(5) -0.2448(4)
C1A C 0.6676(9) 0.8375(6) -0.0642(5)
H4A H 0.6768 0.8236 -0.0019
H5A H 0.7674 0.8700 -0.0953
C2A C 0.5200(10) 0.9219(6) -0.0905(5)
H6A H 0.5342 0.9915 -0.0761
H7A H 0.4207 0.8912 -0.0573
C3A C 0.6178(10) 1.0326(6) -0.2344(5)
H8A H 0.5758 1.1063 -0.2270
H9A H 0.7229 1.0126 -0.2090
C4A C 0.6450(10) 1.0403(6) -0.3328(5)
H10A H 0.7235 1.0957 -0.3610
H11A H 0.5416 1.0652 -0.3594
C5A C 0.8853(9) 0.9081(6) -0.3312(5)
H12A H 0.9483 0.9566 -0.3799
H13A H 0.9007 0.9289 -0.2784
C6A C 0.9520(9) 0.7861(6) -0.3213(5)
H14A H 1.0686 0.7783 -0.3127
H15A H 0.9398 0.7652 -0.3745
C7A C 0.9319(9) 0.7127(6) -0.1634(5)
H16A H 1.0385 0.6696 -0.1591
H17A H 0.9490 0.7907 -0.1674
C8A C 0.8205(9) 0.6657(6) -0.0809(5)
H18A H 0.8710 0.6710 -0.0301
H19A H 0.8091 0.5863 -0.0746
C9A C 0.5358(9) 0.6603(6) -0.0171(4)
H20A H 0.5668 0.5805 -0.0106
H21A H 0.5427 0.6751 0.0390
C10A C 0.3576(9) 0.6876(6) -0.0419(5)
C11A C 0.3298(9) 0.9942(6) -0.2025(4)
H22A H 0.2556 0.9547 -0.1546
H23A H 0.3193 1.0734 -0.2030
C12A C 0.2774(9) 0.9841(6) -0.2887(5)
C13A C 0.6857(9) 0.9306(6) -0.4386(4)
H24A H 0.5912 0.9825 -0.4582
H25A H 0.7822 0.9589 -0.4762
C14A C 0.6596(8) 0.8145(7) -0.4481(4)
C15A C 0.8869(10) 0.5909(6) -0.2552(5)
H26A H 0.8976 0.5948 -0.3172
H27A H 0.9891 0.5546 -0.2312
C16A C 0.7469(10) 0.5193(6) -0.2101(5)
C17A C 0.9876(9) 0.0239(6) 0.0396(5)
C18A C 0.9284(12) -0.4953(6) 0.5329(5)
O19 O 0.6005(10) 0.3265(6) -0.3315(6)
O20 O 0.3557(11) 0.4193(7) -0.2083(6)
O21 O 0.7690(14) 0.3674(9) -0.5792(7)
O23 O 0.4889(14) 0.4160(10) -0.4888(7)
O22? O 0.5885(15) 0.3720(10) -0.5399(7)
loop_
_geom_bond_atom_site_label_1
_geom_bond_atom_site_label_2
_geom_bond_site_symmetry_1
_geom_bond_site_symmetry_2
U1 O2 1_555 1_555
U2 O4 1_555 1_555
Gd1 O1 1_555 1_555
O1 C10 1_555 1_555
O2 C10 1_555 1_555
O3 Gd1 1_555 1_555
O4 C12 1_555 1_555
O5 Gd1 1_555 1_555
O6 C14 1_555 1_555
O7 Gd1 1_555 1_555
O8 C16 1_555 1_555
O9 U1 1_555 1_555
O10 U1 1_555 1_555
O11 U2 1_555 1_555
O12 U2 1_555 1_555
O13 Gd1 1_555 1_555
H1 O13 1_555 1_555
H2 O13 1_555 1_555
O14 U1 1_555 1_555
O15 C17 1_555 1_555
O16 U2 1_555 1_555
O17 C18 1_555 1_555
O18 U1 1_555 1_555
H3 O18 1_555 1_555
N1 Gd1 1_555 1_555
N2 Gd1 1_555 1_555
N3 Gd1 1_555 1_555
N4 Gd1 1_555 1_555
C1 N1 1_555 1_555
H4 C1 1_555 1_555
H5 C1 1_555 1_555
C2 N2 1_555 1_555
H6 C2 1_555 1_555
H7 C2 1_555 1_555
C3 N2 1_555 1_555
H8 C3 1_555 1_555
H9 C3 1_555 1_555
C4 N3 1_555 1_555
H10 C4 1_555 1_555
H11 C4 1_555 1_555
C5 N3 1_555 1_555
H12 C5 1_555 1_555
H13 C5 1_555 1_555
C6 N4 1_555 1_555
H14 C6 1_555 1_555
H15 C6 1_555 1_555
C7 N4 1_555 1_555
H16 C7 1_555 1_555
H17 C7 1_555 1_555
C8 N1 1_555 1_555
H18 C8 1_555 1_555
H19 C8 1_555 1_555
C9 N1 1_555 1_555
H20 C9 1_555 1_555
H21 C9 1_555 1_555
C10 C9 1_555 1_555
C11 N2 1_555 1_555
H22 C11 1_555 1_555
H23 C11 1_555 1_555
C12 O3 1_555 1_555
C13 N3 1_555 1_555
H24 C13 1_555 1_555
H25 C13 1_555 1_555
C14 O5 1_555 1_555
C15 N4 1_555 1_555
H26 C15 1_555 1_555
H27 C15 1_555 1_555
C16 O7 1_555 1_555
C17 O14 1_555 1_555
C18 O16 1_555 1_555
U1A O8 1_555 1_555
U1A_2 O15 1_555 1_555
U2A O4A 1_555 1_555
U2A_2 O6 1_555 1_555
U2A_3 O17 1_555 1_555
U2A_4 O18 1_555 1_555
U2_2 O6A 1_555 1_555
Gd1A O1A 1_555 1_555
O1A C10A 1_555 1_555
O2A U1A 1_555 1_555
O3A Gd1A 1_555 1_555
O4A C12A 1_555 1_555
O5A Gd1A 1_555 1_555
O6A C14A 1_555 1_555
O6A_2 U2 1_555 1_555
O6_2 U2A 1_555 1_555
O7A Gd1A 1_555 1_555
O8A U1 1_555 1_555
O9A U1A 1_555 1_555
O10A U1A 1_555 1_555
O11A U2A 1_555 1_555
O12A U2A 1_555 1_555
O13A Gd1A 1_555 1_555
H1A O13A 1_555 1_555
H2A O13A 1_555 1_555
O14A U1A_2 1_555 1_555
O14A_2 U1A 1_555 1_555
O15A U1 1_555 1_555
O15_2 U1A 1_555 1_555
O16A U2A_3 1_555 1_555
O16A_2 U2A 1_555 1_555
O17A U2 1_555 1_555
O17_2 U2A 1_555 1_555
O18A U2 1_555 1_555
O18A_2 U1A 1_555 1_555
O18_2 U2A 1_555 1_555
H3A O18A 1_555 1_555
H3A_2 O18A_2 1_555 1_555
H3_2 O18_2 1_555 1_555
N1A Gd1A 1_555 1_555
N2A Gd1A 1_555 1_555
N3A Gd1A 1_555 1_555
N4A Gd1A 1_555 1_555
C1A N1A 1_555 1_555
H4A C1A 1_555 1_555
H5A C1A 1_555 1_555
C2A N2A 1_555 1_555
H6A C2A 1_555 1_555
H7A C2A 1_555 1_555
C3A N2A 1_555 1_555
H8A C3A 1_555 1_555
H9A C3A 1_555 1_555
C4A N3A 1_555 1_555
H10A C4A 1_555 1_555
H11A C4A 1_555 1_555
C5A N3A 1_555 1_555
H12A C5A 1_555 1_555
H13A C5A 1_555 1_555
C6A N4A 1_555 1_555
H14A C6A 1_555 1_555
H15A C6A 1_555 1_555
C7A N4A 1_555 1_555
H16A C7A 1_555 1_555
H17A C7A 1_555 1_555
C8A N1A 1_555 1_555
H18A C8A 1_555 1_555
H19A C8A 1_555 1_555
C9A N1A 1_555 1_555
H20A C9A 1_555 1_555
H21A C9A 1_555 1_555
C10A O2A 1_555 1_555
C11A N2A 1_555 1_555
H22A C11A 1_555 1_555
H23A C11A 1_555 1_555
C12A O3A 1_555 1_555
C13A N3A 1_555 1_555
H24A C13A 1_555 1_555
H25A C13A 1_555 1_555
C14A O5A 1_555 1_555
C15A N4A 1_555 1_555
H26A C15A 1_555 1_555
H27A C15A 1_555 1_555
C16A O7A 1_555 1_555
C17A C17 1_555 1_555
C18A C18 1_555 1_555
C1 C2 1_555 1_555
C3 C4 1_555 1_555
C5 C6 1_555 1_555
C7 C8 1_555 1_555
C11 C12 1_555 1_555
C13 C14 1_555 1_555
C15 C16 1_555 1_555
U1A_2 O18A 1_555 1_555
O8A C16A 1_555 1_555
O14A C17A 1_555 1_555
O15A C17A 1_555 1_555
O16A C18A 1_555 1_555
O17A C18A 1_555 1_555
C1A C2A 1_555 1_555
C3A C4A 1_555 1_555
C5A C6A 1_555 1_555
C7A C8A 1_555 1_555
C9A C10A 1_555 1_555
C11A C12A 1_555 1_555
C13A C14A 1_555 1_555
C15A C16A 1_555 1_555

#END
