
#######################################################################
#
#                 Cambridge Crystallographic Data Centre
#                                CCDC 
#
#######################################################################
#
# If this CIF has been generated from an entry in the Cambridge 
# Structural Database, then it will include bibliographic, chemical, 
# crystal, experimental, refinement or atomic coordinate data resulting 
# from the CCDC's data processing and validation procedures.
#
#######################################################################

data_COKPOI
_symmetry_cell_setting           orthorhombic
_symmetry_space_group_name_H-M   'F d d d'
_symmetry_Int_Tables_number      70
_space_group_name_Hall           '-F 2uv 2vw'
loop_
_symmetry_equiv_pos_site_id
_symmetry_equiv_pos_as_xyz
1 x,y,z
2 1/4-x,1/4-y,z
3 x,1/4-y,1/4-z
4 1/4-x,y,1/4-z
5 x,1/2+y,1/2+z
6 1/2+x,y,1/2+z
7 1/2+x,1/2+y,z
8 1/4-x,3/4-y,1/2+z
9 x,3/4-y,3/4-z
10 1/4-x,1/2+y,3/4-z
11 3/4-x,1/4-y,1/2+z
12 1/2+x,1/4-y,3/4-z
13 3/4-x,y,3/4-z
14 3/4-x,3/4-y,z
15 1/2+x,3/4-y,1/4-z
16 3/4-x,1/2+y,1/4-z
17 -x,-y,-z
18 3/4+x,3/4+y,-z
19 -x,3/4+y,3/4+z
20 3/4+x,-y,3/4+z
21 -x,1/2-y,1/2-z
22 1/2-x,-y,1/2-z
23 1/2-x,1/2-y,-z
24 3/4+x,1/4+y,1/2-z
25 -x,1/4+y,1/4+z
26 3/4+x,1/2-y,1/4+z
27 1/4+x,3/4+y,1/2-z
28 1/2-x,3/4+y,1/4+z
29 1/4+x,-y,1/4+z
30 1/4+x,1/4+y,-z
31 1/2-x,1/4+y,3/4+z
32 1/4+x,1/2-y,3/4+z
_cell_length_a                   13.963(8)
_cell_length_b                   19.593(11)
_cell_length_c                   36.03(2)
_cell_angle_alpha                90
_cell_angle_beta                 90
_cell_angle_gamma                90
_cell_volume                     9856.98
loop_
_atom_site_label
_atom_site_type_symbol
_atom_site_fract_x
_atom_site_fract_y
_atom_site_fract_z
Ni1 Ni 0.3750 0.3750 0.16716(5)
O1 O -0.1250 0.3750 0.2807(2)
C1 C 0.6250 0.1250 0.0674(5)
H1 H 0.5919 0.0936 0.0838
H2 H 0.6581 0.1564 0.0838
O2 O 0.24317(19) 0.33052(14) 0.18027(7)
O3 O 0.2841(2) 0.42277(18) 0.20963(11)
N1 N 0.4218(3) 0.3035(2) 0.12735(10)
C2 C 0.1351(2) 0.37599(16) 0.22399(8)
C3 C 0.0658(3) 0.32765(19) 0.21423(11)
H3 H 0.0781 0.2963 0.1955
C4 C -0.0225(3) 0.3266(2) 0.23285(14)
H4 H -0.0687 0.2945 0.2265
C5 C -0.0408(3) 0.3740(2) 0.26093(13)
C6 C 0.0280(3) 0.4223(2) 0.27079(12)
H5 H 0.0153 0.4537 0.2895
C7 C 0.1164(3) 0.4233(2) 0.25219(10)
H6 H 0.1626 0.4553 0.2586
C8 C 0.2254(2) 0.37642(14) 0.20379(8)
C9 C 0.5082(3) 0.3162(2) 0.11349(12)
H7 H 0.5402 0.3560 0.1201
C10 C 0.5494(4) 0.2721(3) 0.09004(14)
H8 H 0.6098 0.2814 0.0804
C11 C 0.5040(4) 0.2148(3) 0.08043(15)
C12 C 0.4169(3) 0.2017(3) 0.09450(15)
H9 H 0.3850 0.1618 0.0880
C13 C 0.3758(3) 0.2463(2) 0.11799(12)
H10 H 0.3154 0.2372 0.1277
C14 C 0.5509(5) 0.1647(4) 0.05341(19)
H11 H 0.5016 0.1344 0.0440
H12 H 0.5754 0.1905 0.0325
Ni1_2 Ni -0.6250 0.3750 0.16716(5)
Ni1A Ni 0.8750 -0.1250 0.16716(5)
O2M O -0.49317(19) 0.41948(14) 0.18027(7)
O2M_2 O 0.50683(19) 0.41948(14) 0.18027(7)
O3M O -0.5341(2) 0.32723(18) 0.20963(11)
O3M_2 O 0.4659(2) 0.32723(18) 0.20963(11)
N1A N 0.8282(3) -0.0535(2) 0.12735(10)
N1M N 0.3282(3) 0.4465(2) 0.12735(10)
C2M C -0.3851(2) 0.37401(16) 0.22399(8)
C3M C -0.3158(3) 0.42235(19) 0.21423(11)
H3M H -0.3281 0.4537 0.1955
C4M C -0.2275(3) 0.4234(2) 0.23285(14)
H4M H -0.1813 0.4555 0.2265
C5M C -0.2092(3) 0.3760(2) 0.26093(13)
C6M C -0.2780(3) 0.3277(2) 0.27079(12)
H5M H -0.2653 0.2963 0.2895
C7M C -0.3664(3) 0.3267(2) 0.25219(10)
H6M H -0.4126 0.2947 0.2586
C8M C -0.4754(2) 0.37358(14) 0.20379(8)
C9A C 0.7418(3) -0.0662(2) 0.11349(12)
H7A H 0.7098 -0.1060 0.1201
C10A C 0.7006(4) -0.0221(3) 0.09004(14)
H8A H 0.6402 -0.0314 0.0804
C11A C 0.7460(4) 0.0352(3) 0.08043(15)
C12A C 0.8331(3) 0.0483(3) 0.09450(15)
H9A H 0.8650 0.0882 0.0880
C13A C 0.8742(3) 0.0037(2) 0.11799(12)
H10A H 0.9346 0.0128 0.1277
C14A C 0.6991(5) 0.0853(4) 0.05341(19)
H11A H 0.7484 0.1156 0.0440
H12A H 0.6746 0.0595 0.0325
O4 O 0.1250 0.190(2) 0.1250
H13 H 0.1283 0.1720 0.1034
H13C H 0.1217 0.1720 0.1466
loop_
_geom_bond_atom_site_label_1
_geom_bond_atom_site_label_2
_geom_bond_site_symmetry_1
_geom_bond_site_symmetry_2
Ni1 O2 1_555 1_555
O1 C5 1_555 1_555
C1 H1 1_555 1_555
H2 C1 1_555 1_555
O2 C8 1_555 1_555
O3 Ni1 1_555 1_555
N1 Ni1 1_555 1_555
C2 C3 1_555 1_555
C3 H3 1_555 1_555
C4 C3 1_555 1_555
H4 C4 1_555 1_555
C5 C4 1_555 1_555
C6 C5 1_555 1_555
H5 C6 1_555 1_555
C7 C2 1_555 1_555
H6 C7 1_555 1_555
C8 O3 1_555 1_555
C9 N1 1_555 1_555
H7 C9 1_555 1_555
C10 C9 1_555 1_555
H8 C10 1_555 1_555
C11 C10 1_555 1_555
C12 C11 1_555 1_555
H9 C12 1_555 1_555
C13 N1 1_555 1_555
H10 C13 1_555 1_555
C14 C1 1_555 1_555
H11 C14 1_555 1_555
H12 C14 1_555 1_555
O4 H13 1_555 1_555
Ni1_2 O2M 1_555 1_555
Ni1A N1A 1_555 1_555
O2M C8M 1_555 1_555
O2M_2 Ni1 1_555 1_555
O3M Ni1_2 1_555 1_555
O3M_2 Ni1 1_555 1_555
N1A C9A 1_555 1_555
N1M Ni1 1_555 1_555
C2M C3M 1_555 1_555
C3M H3M 1_555 1_555
C4M C3M 1_555 1_555
H4M C4M 1_555 1_555
C5M O1 1_555 1_555
C6M C5M 1_555 1_555
H5M C6M 1_555 1_555
C7M C2M 1_555 1_555
H6M C7M 1_555 1_555
C8M O3M 1_555 1_555
C9A H7A 1_555 1_555
C10A C9A 1_555 1_555
H8A C10A 1_555 1_555
C11A C10A 1_555 1_555
C12A C11A 1_555 1_555
H9A C12A 1_555 1_555
C13A N1A 1_555 1_555
H10A C13A 1_555 1_555
C14A C1 1_555 1_555
H11A C14A 1_555 1_555
H12A C14A 1_555 1_555
H13C O4 1_555 1_555
C2 C8 1_555 1_555
C6 C7 1_555 1_555
C11 C14 1_555 1_555
C12 C13 1_555 1_555
C2M C8M 1_555 1_555
C4M C5M 1_555 1_555
C6M C7M 1_555 1_555
C11A C14A 1_555 1_555
C12A C13A 1_555 1_555

#END
