
#######################################################################
#
#                 Cambridge Crystallographic Data Centre
#                                CCDC 
#
#######################################################################
#
# If this CIF has been generated from an entry in the Cambridge 
# Structural Database, then it will include bibliographic, chemical, 
# crystal, experimental, refinement or atomic coordinate data resulting 
# from the CCDC's data processing and validation procedures.
#
#######################################################################

data_COKPAU
_symmetry_cell_setting           orthorhombic
_symmetry_space_group_name_H-M   'P n n a'
_symmetry_Int_Tables_number      52
_space_group_name_Hall           '-P 2a 2bc'
loop_
_symmetry_equiv_pos_site_id
_symmetry_equiv_pos_as_xyz
1 x,y,z
2 1/2-x,-y,z
3 1/2-x,1/2+y,1/2-z
4 x,1/2-y,1/2-z
5 -x,-y,-z
6 1/2+x,y,-z
7 1/2+x,1/2-y,1/2+z
8 -x,1/2+y,1/2+z
_cell_length_a                   8.256(3)
_cell_length_b                   14.494(6)
_cell_length_c                   13.663(5)
_cell_angle_alpha                90
_cell_angle_beta                 90
_cell_angle_gamma                90
_cell_volume                     1634.95
loop_
_atom_site_label
_atom_site_type_symbol
_atom_site_fract_x
_atom_site_fract_y
_atom_site_fract_z
Er1 Er 0.02343(4) 0.7500 0.2500
Ag1 Ag 0.44523(7) 0.51042(3) 0.17948(4)
Ag2 Ag -0.2500 1.0000 0.44905(6)
O1 O 0.2205(5) 0.6334(3) 0.2558(3)
O2 O 0.4109(5) 0.5554(3) 0.3360(3)
O3 O 0.3200(5) 0.6630(2) 0.6856(3)
O4 O -0.0711(5) 0.9033(3) 0.5315(3)
O5 O -0.0514(5) 0.8607(2) 0.3772(3)
O6 O 0.7500 0.5000 0.2261(5)
H1 H 0.7647 0.5405 0.2716
N1 N 0.1368(6) 0.7240(3) 0.4124(3)
C1 C 0.2949(7) 0.6103(4) 0.3337(5)
C2 C 0.2423(6) 0.6541(4) 0.4267(5)
C3 C 0.2994(7) 0.6294(4) 0.5171(4)
H2 H 0.3684 0.5790 0.5232
C4 C 0.2545(7) 0.6795(4) 0.6001(4)
C5 C 0.1435(7) 0.7519(3) 0.5854(4)
H3 H 0.1051 0.7860 0.6382
C6 C 0.0926(6) 0.7715(3) 0.4919(5)
C7 C -0.0188(6) 0.8505(4) 0.4664(4)
Er1E Er 0.52343(4) 0.7500 0.7500
Er1E_2 Er 0.52343(4) 0.7500 -0.2500
Ag1C Ag 0.44523(7) 0.98958(3) 0.32052(4)
Ag1A Ag 0.05477(7) 0.48958(3) 0.17948(4)
Ag1B Ag 0.05477(7) 1.01042(3) 0.32052(4)
Ag1C_2 Ag -0.55477(7) 0.98958(3) 0.32052(4)
Ag1F Ag -0.05477(7) 0.98958(3) 0.67948(4)
Ag1A_2 Ag 1.05477(7) 0.48958(3) 0.17948(4)
Ag1E Ag -0.05477(7) 0.51042(3) -0.17948(4)
Ag2B Ag 0.7500 0.5000 0.05095(6)
Ag2B_2 Ag -0.2500 0.5000 0.05095(6)
Ag2_2 Ag 0.7500 1.0000 0.44905(6)
O1C O 0.2205(5) 0.8666(3) 0.2442(3)
O1A O 0.2795(5) 0.3666(3) 0.2558(3)
O1B O 0.2795(5) 1.1334(3) 0.2442(3)
O2C O 0.4109(5) 0.9446(3) 0.1640(3)
O3C O 0.3200(5) 0.8370(2) -0.1856(3)
O3E O -0.1800(5) 0.6630(2) 0.3144(3)
O3F O -0.1800(5) 0.8370(2) 0.1856(3)
O4C O -0.0711(5) 0.5967(3) -0.0315(3)
O4F O 0.4289(5) 0.5967(3) 0.0315(3)
O4A O -0.4289(5) 1.0967(3) 0.5315(3)
O4E O 0.4289(5) 0.9033(3) 0.4685(3)
O5C O -0.0514(5) 0.6393(2) 0.1228(3)
O5B O 0.5514(5) 0.3607(2) 0.1228(3)
O5A O -0.4486(5) 1.1393(2) 0.3772(3)
O5A_2 O 0.5514(5) 1.1393(2) 0.3772(3)
O6B O -0.2500 1.0000 0.2739(5)
O6B_2 O 0.7500 1.0000 0.2739(5)
H1A H 0.7353 0.4595 0.2716
H1B H -0.2647 1.0405 0.2284
H1C H -0.2353 0.9595 0.2284
H1B_2 H 0.7353 1.0405 0.2284
H1C_2 H 0.7647 0.9595 0.2284
N1C N 0.1368(6) 0.7760(3) 0.0876(3)
C1C C 0.2949(7) 0.8897(4) 0.1663(5)
C2C C 0.2423(6) 0.8459(4) 0.0733(5)
C3C C 0.2994(7) 0.8706(4) -0.0171(4)
H2C H 0.3684 0.9210 -0.0232
C4C C 0.2545(7) 0.8205(4) -0.1001(4)
C5C C 0.1435(7) 0.7481(3) -0.0854(4)
H3C H 0.1051 0.7140 -0.1382
C6C C 0.0926(6) 0.7285(3) 0.0081(5)
C7C C -0.0188(6) 0.6495(4) 0.0336(4)
loop_
_geom_bond_atom_site_label_1
_geom_bond_atom_site_label_2
_geom_bond_site_symmetry_1
_geom_bond_site_symmetry_2
Er1 O1 1_555 1_555
Ag1 O1 1_555 1_555
Ag2 O4 1_555 1_555
O1 C1 1_555 1_555
O2 Ag1 1_555 1_555
O3 C4 1_555 1_555
O4 C7 1_555 1_555
O5 Er1 1_555 1_555
O6 Ag1 1_555 1_555
H1 O6 1_555 1_555
N1 Er1 1_555 1_555
C1 O2 1_555 1_555
C2 N1 1_555 1_555
C3 C2 1_555 1_555
H2 C3 1_555 1_555
C4 C3 1_555 1_555
C5 C4 1_555 1_555
H3 C5 1_555 1_555
C6 N1 1_555 1_555
C7 O5 1_555 1_555
Er1E O3 1_555 1_555
Er1E_2 O3C 1_555 1_555
Ag1C O1C 1_555 1_555
Ag1A O1 1_555 1_555
Ag1B O5 1_555 1_555
Ag1C_2 O5A 1_555 1_555
Ag1F O4 1_555 1_555
Ag1A_2 O6 1_555 1_555
Ag1E O4C 1_555 1_555
Ag2B O6 1_555 1_555
Ag2B_2 O4C 1_555 1_555
Ag2_2 O5A_2 1_555 1_555
O1C Er1 1_555 1_555
O1A Ag1 1_555 1_555
O1B Ag1C 1_555 1_555
O2C Ag1C 1_555 1_555
O3C C4C 1_555 1_555
O3E Er1 1_555 1_555
O3F Er1 1_555 1_555
O4C C7C 1_555 1_555
O4F Ag1 1_555 1_555
O4A Ag2 1_555 1_555
O4E Ag1C 1_555 1_555
O5C Er1 1_555 1_555
O5B Ag1 1_555 1_555
O5A Ag2 1_555 1_555
O5A_2 Ag1C 1_555 1_555
O6B Ag2 1_555 1_555
O6B_2 Ag1C 1_555 1_555
H1A O6 1_555 1_555
H1B O6B 1_555 1_555
H1C O6B 1_555 1_555
H1B_2 O6B_2 1_555 1_555
H1C_2 O6B_2 1_555 1_555
N1C Er1 1_555 1_555
C1C O1C 1_555 1_555
C2C N1C 1_555 1_555
C3C C2C 1_555 1_555
H2C C3C 1_555 1_555
C4C C3C 1_555 1_555
C5C C4C 1_555 1_555
H3C C5C 1_555 1_555
C6C N1C 1_555 1_555
C7C O5C 1_555 1_555
Ag2 O5 1_555 1_555
C1 C2 1_555 1_555
C5 C6 1_555 1_555
C6 C7 1_555 1_555
Ag1A O1A 1_555 1_555
Ag1A O5C 1_555 1_555
Ag1B O1C 1_555 1_555
Ag1B O1B 1_555 1_555
Ag1B O6B 1_555 1_555
Ag1C_2 O6B 1_555 1_555
Ag2B O5B 1_555 1_555
Ag2B_2 O5C 1_555 1_555
Ag2_2 O6B_2 1_555 1_555
O2C C1C 1_555 1_555
C1C C2C 1_555 1_555
C5C C6C 1_555 1_555
C6C C7C 1_555 1_555

#END
