
#######################################################################
#
#                 Cambridge Crystallographic Data Centre
#                                CCDC 
#
#######################################################################
#
# If this CIF has been generated from an entry in the Cambridge 
# Structural Database, then it will include bibliographic, chemical, 
# crystal, experimental, refinement or atomic coordinate data resulting 
# from the CCDC's data processing and validation procedures.
#
#######################################################################

data_COKROL
_symmetry_cell_setting           monoclinic
_symmetry_space_group_name_H-M   'C 2/c'
_symmetry_Int_Tables_number      15
_space_group_name_Hall           '-C 2yn'
loop_
_symmetry_equiv_pos_site_id
_symmetry_equiv_pos_as_xyz
1 x,y,z
2 -x,y,1/2-z
3 1/2+x,1/2+y,z
4 1/2-x,1/2+y,1/2-z
5 -x,-y,-z
6 x,-y,1/2+z
7 1/2-x,1/2-y,-z
8 1/2+x,1/2-y,1/2+z
_cell_length_a                   7.6333(3)
_cell_length_b                   24.1332(11)
_cell_length_c                   30.5291(14)
_cell_angle_alpha                90
_cell_angle_beta                 93.505(3)
_cell_angle_gamma                90
_cell_volume                     5613.43
loop_
_atom_site_label
_atom_site_type_symbol
_atom_site_fract_x
_atom_site_fract_y
_atom_site_fract_z
In1 In -0.5000 -0.15117(2) 0.2500
In2 In 0.5000 0.0000 0.0000
O1 O -0.4611(5) -0.08559(19) 0.19453(13)
O2 O -0.2436(4) -0.12114(19) 0.23327(12)
O3 O 1.0902(9) 0.2708(3) 0.2045(2)
O4 O 0.8353(9) 0.3085(2) 0.19777(16)
N1 N 0.2811(5) -0.05044(19) 0.00132(14)
N2 N 0.4450(5) 0.03346(18) 0.06024(13)
C1 C 0.9408(14) 0.2723(4) 0.1875(3)
C2 C 0.7595(7) 0.1464(3) 0.09650(19)
C3 C 0.9881(10) 0.1831(3) 0.1462(2)
H1 H 1.1003 0.1794 0.1604
C4 C 0.8854(11) 0.2301(3) 0.1541(2)
C5 C 0.3102(7) 0.0160(2) 0.08561(17)
C6 C 0.7257(12) 0.2345(3) 0.1321(2)
H2 H 0.6566 0.2659 0.1368
C7 C 0.9240(9) 0.1422(3) 0.1177(2)
H3 H 0.9937 0.1110 0.1127
C8 C 0.5371(7) 0.0741(2) 0.08213(18)
C9 C -0.1753(6) -0.0710(2) 0.16951(17)
C10 C 0.0616(7) -0.0389(2) 0.10877(18)
C11 C 0.1733(7) -0.0555(2) 0.03609(18)
C12 C -0.1149(7) -0.0261(3) 0.10216(19)
H4 H -0.1552 -0.0069 0.0767
C13 C 0.0032(7) -0.0831(3) 0.17663(17)
H5 H 0.0442 -0.1024 0.2020
C14 C -0.2328(7) -0.0416(3) 0.13293(18)
H6 H -0.3519 -0.0320 0.1286
C15 C 0.6866(7) 0.1017(2) 0.06771(18)
C16 C 0.6612(10) 0.1942(3) 0.1032(2)
H7 H 0.5513 0.1990 0.0881
C17 C 0.4607(7) 0.0831(3) 0.12355(19)
H8 H 0.4986 0.1087 0.1453
C18 C 0.1881(6) -0.0247(2) 0.07453(17)
C19 C 0.2327(7) -0.0908(3) -0.02832(18)
C20 C 0.3238(7) 0.0475(3) 0.12507(18)
H9 H 0.2496 0.0443 0.1484
C21 C 0.0847(8) -0.1209(3) -0.0133(2)
H10 H 0.0241 -0.1501 -0.0280
C22 C 0.0506(8) -0.0992(3) 0.0257(2)
H11 H -0.0392 -0.1108 0.0434
C23 C 0.1192(7) -0.0665(3) 0.14602(18)
H12 H 0.2394 -0.0743 0.1509
C24 C -0.3027(7) -0.0926(3) 0.20137(17)
O5 O 0.376(2) 0.0885(8) -0.0296(6)
O1D O 1.4611(5) 0.08559(19) -0.19453(13)
O2D O 1.2436(4) 0.12114(19) -0.23327(12)
O3D O -0.0902(9) -0.2708(3) -0.2045(2)
O4D O 0.1647(9) -0.3085(2) -0.19777(16)
N1D N 0.7189(5) 0.05044(19) -0.00132(14)
N2D N 0.5550(5) -0.03346(18) -0.06024(13)
C1D C 0.0592(14) -0.2723(4) -0.1875(3)
C2D C 0.2405(7) -0.1464(3) -0.09650(19)
C3D C 0.0119(10) -0.1831(3) -0.1462(2)
H1D H -0.1003 -0.1794 -0.1604
C4D C 0.1146(11) -0.2301(3) -0.1541(2)
C5D C 0.6898(7) -0.0160(2) -0.08561(17)
C6D C 0.2743(12) -0.2345(3) -0.1321(2)
H2D H 0.3434 -0.2659 -0.1368
C7D C 0.0760(9) -0.1422(3) -0.1177(2)
H3D H 0.0063 -0.1110 -0.1127
C8D C 0.4629(7) -0.0741(2) -0.08213(18)
C9D C 1.1753(6) 0.0710(2) -0.16951(17)
C10D C 0.9384(7) 0.0389(2) -0.10877(18)
C11D C 0.8267(7) 0.0555(2) -0.03609(18)
C12D C 1.1149(7) 0.0261(3) -0.10216(19)
H4D H 1.1552 0.0069 -0.0767
C13D C 0.9968(7) 0.0831(3) -0.17663(17)
H5D H 0.9558 0.1024 -0.2020
C14D C 1.2328(7) 0.0416(3) -0.13293(18)
H6D H 1.3519 0.0320 -0.1286
C15D C 0.3134(7) -0.1017(2) -0.06771(18)
C16D C 0.3388(10) -0.1942(3) -0.1032(2)
H7D H 0.4487 -0.1990 -0.0881
C17D C 0.5393(7) -0.0831(3) -0.12355(19)
H8D H 0.5014 -0.1087 -0.1453
C18D C 0.8119(6) 0.0247(2) -0.07453(17)
C19D C 0.7673(7) 0.0908(3) 0.02832(18)
C20D C 0.6762(7) -0.0475(3) -0.12507(18)
H9D H 0.7504 -0.0443 -0.1484
C21D C 0.9153(8) 0.1209(3) 0.0133(2)
H10D H 0.9759 0.1501 0.0280
C22D C 0.9494(8) 0.0992(3) -0.0257(2)
H11D H 1.0392 0.1108 -0.0434
C23D C 0.8808(7) 0.0665(3) -0.14602(18)
H12D H 0.7606 0.0743 -0.1509
C24D C 1.3027(7) 0.0926(3) -0.20137(17)
O5D O 0.624(2) -0.0885(8) 0.0296(6)
In1B In 1.0000 0.34883(2) 0.2500
In1D In 1.5000 0.15117(2) -0.2500
In1F In 0.0000 -0.34883(2) -0.2500
O1A O -0.5389(5) -0.08559(19) 0.30547(13)
O2A O -0.7564(4) -0.12114(19) 0.26673(12)
O3B O -0.4098(9) -0.2292(3) 0.2045(2)
O3C O -0.5902(9) -0.2292(3) 0.2955(2)
O4B O -0.6647(9) -0.1915(2) 0.19777(16)
O4C O -0.3353(9) -0.1915(2) 0.30223(16)
loop_
_geom_bond_atom_site_label_1
_geom_bond_atom_site_label_2
_geom_bond_site_symmetry_1
_geom_bond_site_symmetry_2
In1 O1 1_555 1_555
In2 N1 1_555 1_555
O1 C24 1_555 1_555
O2 In1 1_555 1_555
O3 C1 1_555 1_555
O4 C1 1_555 1_555
N1 C11 1_555 1_555
N2 In2 1_555 1_555
C1 C4 1_555 1_555
C2 C7 1_555 1_555
C3 H1 1_555 1_555
C4 C3 1_555 1_555
C5 N2 1_555 1_555
C6 C4 1_555 1_555
H2 C6 1_555 1_555
C7 C3 1_555 1_555
H3 C7 1_555 1_555
C8 N2 1_555 1_555
C9 C13 1_555 1_555
C10 C12 1_555 1_555
C11 C18 1_555 1_555
C12 H4 1_555 1_555
C13 H5 1_555 1_555
C14 C9 1_555 1_555
H6 C14 1_555 1_555
C15 C2 1_555 1_555
C16 C2 1_555 1_555
H7 C16 1_555 1_555
C17 C8 1_555 1_555
H8 C17 1_555 1_555
C18 C5 1_555 1_555
C19 N1 1_555 1_555
C20 C5 1_555 1_555
H9 C20 1_555 1_555
C21 C19 1_555 1_555
H10 C21 1_555 1_555
C22 C11 1_555 1_555
H11 C22 1_555 1_555
C23 C10 1_555 1_555
H12 C23 1_555 1_555
C24 O2 1_555 1_555
O5 In2 1_555 1_555
O1D C24D 1_555 1_555
O2D C24D 1_555 1_555
O3D C1D 1_555 1_555
O4D C1D 1_555 1_555
N1D In2 1_555 1_555
N2D In2 1_555 1_555
C1D C4D 1_555 1_555
C2D C7D 1_555 1_555
C3D H1D 1_555 1_555
C4D C3D 1_555 1_555
C5D N2D 1_555 1_555
C6D C4D 1_555 1_555
H2D C6D 1_555 1_555
C7D C3D 1_555 1_555
H3D C7D 1_555 1_555
C8D N2D 1_555 1_555
C9D C13D 1_555 1_555
C10D C12D 1_555 1_555
C11D N1D 1_555 1_555
C12D H4D 1_555 1_555
C13D H5D 1_555 1_555
C14D C9D 1_555 1_555
H6D C14D 1_555 1_555
C15D C19 1_555 1_555
C16D C2D 1_555 1_555
H7D C16D 1_555 1_555
C17D C8D 1_555 1_555
H8D C17D 1_555 1_555
C18D C5D 1_555 1_555
C19D C15 1_555 1_555
C20D C5D 1_555 1_555
H9D C20D 1_555 1_555
C21D C19D 1_555 1_555
H10D C21D 1_555 1_555
C22D C11D 1_555 1_555
H11D C22D 1_555 1_555
C23D C10D 1_555 1_555
H12D C23D 1_555 1_555
C24D C9D 1_555 1_555
O5D In2 1_555 1_555
In1B O3 1_555 1_555
In1D O1D 1_555 1_555
In1F O3D 1_555 1_555
O1A In1 1_555 1_555
O2A In1 1_555 1_555
O3B In1 1_555 1_555
O3C In1 1_555 1_555
O4B In1 1_555 1_555
O4C In1 1_555 1_555
O4 In1B 1_555 1_555
C6 C16 1_555 1_555
C8 C15 1_555 1_555
C9 C24 1_555 1_555
C10 C18 1_555 1_555
C12 C14 1_555 1_555
C13 C23 1_555 1_555
C17 C20 1_555 1_555
C21 C22 1_555 1_555
O2D In1D 1_555 1_555
O4D In1F 1_555 1_555
N1D C19D 1_555 1_555
C2D C15D 1_555 1_555
C6D C16D 1_555 1_555
C8D C15D 1_555 1_555
C10D C18D 1_555 1_555
C11D C18D 1_555 1_555
C12D C14D 1_555 1_555
C13D C23D 1_555 1_555
C17D C20D 1_555 1_555
C21D C22D 1_555 1_555

#END
