
#######################################################################
#
#                 Cambridge Crystallographic Data Centre
#                                CCDC 
#
#######################################################################
#
# If this CIF has been generated from an entry in the Cambridge 
# Structural Database, then it will include bibliographic, chemical, 
# crystal, experimental, refinement or atomic coordinate data resulting 
# from the CCDC's data processing and validation procedures.
#
#######################################################################

data_COKZEJ
_symmetry_cell_setting           monoclinic
_symmetry_space_group_name_H-M   'P 21/c'
_symmetry_Int_Tables_number      14
_space_group_name_Hall           '-P 2ybc'
loop_
_symmetry_equiv_pos_site_id
_symmetry_equiv_pos_as_xyz
1 x,y,z
2 -x,1/2+y,1/2-z
3 -x,-y,-z
4 x,1/2-y,1/2+z
_cell_length_a                   10.8437(19)
_cell_length_b                   22.932(4)
_cell_length_c                   12.184(2)
_cell_angle_alpha                90
_cell_angle_beta                 103.478(3)
_cell_angle_gamma                90
_cell_volume                     2946.33
loop_
_atom_site_label
_atom_site_type_symbol
_atom_site_fract_x
_atom_site_fract_y
_atom_site_fract_z
C1 C -0.6703(5) 0.75613(15) 0.9061(3)
H1 H -0.6850 0.7807 0.9624
C2 C -0.4663(3) 0.66092(13) 0.6803(2)
H2 H -0.4126 0.6449 0.6389
C3 C -0.5335(3) 0.71493(12) 0.8033(2)
C4 C -0.6325(3) 0.68124(11) 0.7419(2)
C5 C -0.7539(3) 0.68646(13) 0.7598(3)
H3 H -0.8215 0.6653 0.7174
C6 C -0.7697(4) 0.72440(14) 0.8430(3)
H4 H -0.8499 0.7287 0.8569
C7 C -0.5502(4) 0.75262(13) 0.8884(3)
H5 H -0.4834 0.7743 0.9309
C8 C -0.3002(3) 0.72498(16) 0.7951(3)
H6 H -0.2397 0.6931 0.8070
H7 H -0.2908 0.7455 0.8662
C9 C -0.2695(3) 0.76633(13) 0.7084(3)
C10 C -0.3390(3) 0.81655(14) 0.6769(3)
H8 H -0.4108 0.8237 0.7041
C11 C -0.3026(3) 0.85597(14) 0.6056(3)
H9 H -0.3496 0.8899 0.5865
C12 C -0.1976(3) 0.84644(12) 0.5614(2)
C13 C -0.1292(3) 0.79535(14) 0.5913(3)
H10 H -0.0585 0.7877 0.5626
C14 C -0.1658(4) 0.75534(14) 0.6640(3)
H11 H -0.1200 0.7210 0.6827
C15 C -0.1601(3) 0.88895(12) 0.4821(2)
C16 C -0.2528(3) 0.91766(13) 0.4022(3)
H12 H -0.3381 0.9117 0.4003
C17 C -0.2179(3) 0.95533(13) 0.3248(3)
H13 H -0.2804 0.9731 0.2697
C18 C -0.0923(3) 0.96662(12) 0.3287(2)
C19 C -0.0004(3) 0.93897(14) 0.4109(3)
H14 H 0.0850 0.9464 0.4154
C20 C -0.0344(3) 0.90070(15) 0.4855(2)
H15 H 0.0285 0.8823 0.5394
C21 C -0.0560(3) 1.00820(13) 0.2466(2)
H16 H -0.1317 1.0269 0.2024
H17 H -0.0014 1.0383 0.2878
C22 C 0.1361(2) 0.97680(11) 0.1817(2)
H18 H 0.1930 0.9978 0.2364
C23 C -0.0433(3) 0.94117(11) 0.0828(2)
C24 C -0.1687(3) 0.92620(13) 0.0338(3)
H19 H -0.2361 0.9413 0.0599
C25 C -0.1872(3) 0.88788(15) -0.0552(3)
H20 H -0.2693 0.8762 -0.0893
C26 C -0.0860(3) 0.86601(15) -0.0957(3)
H21 H -0.1029 0.8407 -0.1570
C27 C 0.0386(3) 0.88090(13) -0.0474(2)
H22 H 0.1057 0.8658 -0.0740
C28 C 0.0583(2) 0.91966(11) 0.0429(2)
C29 C 0.4137(2) 0.91086(11) -0.1114(2)
C30 C 0.3905(2) 0.90800(11) -0.2385(2)
C31 C 0.3090(3) 0.86480(12) -0.2926(2)
H23 H 0.2688 0.8407 -0.2505
C32 C 0.2865(3) 0.85704(14) -0.4076(2)
H24 H 0.2330 0.8273 -0.4421
C33 C 0.3435(3) 0.89336(14) -0.4718(2)
H25 H 0.3289 0.8882 -0.5495
C34 C 0.4218(3) 0.93711(12) -0.4194(2)
H26 H 0.4583 0.9622 -0.4628
C35 C 0.4481(2) 0.94488(11) -0.3031(2)
C36 C 0.5316(2) 0.99466(12) -0.2529(2)
Co1 Co 0.35017(3) 0.929816(14) 0.08863(3)
N1 N -0.5866(2) 0.64671(10) 0.66529(19)
N2 N -0.4293(3) 0.70092(11) 0.7615(2)
N3 N 0.1709(2) 0.94269(10) 0.10718(18)
N4 N 0.0102(2) 0.97817(10) 0.17039(18)
O1 O 0.31815(17) 0.92913(8) -0.07581(15)
O2 O 0.51248(17) 0.89227(9) -0.05063(15)
O3 O 0.53152(18) 1.00836(8) -0.15126(16)
O4 O 0.5947(2) 1.02059(11) -0.30959(18)
Co1B Co 0.64983(3) 1.070184(14) -0.08863(3)
Co1C Co -0.64983(3) 0.570184(14) 0.58863(3)
N1C N 0.4134(2) 0.85329(10) 0.16529(19)
O3B O 0.46848(18) 0.99164(8) 0.15126(16)
loop_
_geom_bond_atom_site_label_1
_geom_bond_atom_site_label_2
_geom_bond_site_symmetry_1
_geom_bond_site_symmetry_2
C1 H1 1_555 1_555
C2 H2 1_555 1_555
C3 C4 1_555 1_555
C4 C5 1_555 1_555
C5 H3 1_555 1_555
C6 C1 1_555 1_555
H4 C6 1_555 1_555
C7 C1 1_555 1_555
H5 C7 1_555 1_555
C8 H6 1_555 1_555
H7 C8 1_555 1_555
C9 C8 1_555 1_555
C10 C9 1_555 1_555
H8 C10 1_555 1_555
C11 C10 1_555 1_555
H9 C11 1_555 1_555
C12 C11 1_555 1_555
C13 C12 1_555 1_555
H10 C13 1_555 1_555
C14 C9 1_555 1_555
H11 C14 1_555 1_555
C15 C12 1_555 1_555
C16 C15 1_555 1_555
H12 C16 1_555 1_555
C17 C16 1_555 1_555
H13 C17 1_555 1_555
C18 C17 1_555 1_555
C19 C18 1_555 1_555
H14 C19 1_555 1_555
C20 C15 1_555 1_555
H15 C20 1_555 1_555
C21 C18 1_555 1_555
H16 C21 1_555 1_555
H17 C21 1_555 1_555
C22 H18 1_555 1_555
C23 C24 1_555 1_555
C24 H19 1_555 1_555
C25 C24 1_555 1_555
H20 C25 1_555 1_555
C26 C25 1_555 1_555
H21 C26 1_555 1_555
C27 C26 1_555 1_555
H22 C27 1_555 1_555
C28 C23 1_555 1_555
C29 C30 1_555 1_555
C30 C31 1_555 1_555
C31 H23 1_555 1_555
C32 C31 1_555 1_555
H24 C32 1_555 1_555
C33 C32 1_555 1_555
H25 C33 1_555 1_555
C34 C33 1_555 1_555
H26 C34 1_555 1_555
C35 C30 1_555 1_555
C36 C35 1_555 1_555
Co1 N3 1_555 1_555
N1 C2 1_555 1_555
N2 C2 1_555 1_555
N3 C22 1_555 1_555
N4 C21 1_555 1_555
O1 C29 1_555 1_555
O2 C29 1_555 1_555
O3 C36 1_555 1_555
O4 C36 1_555 1_555
Co1B O3 1_555 1_555
Co1C N1 1_555 1_555
N1C Co1 1_555 1_555
O3B Co1 1_555 1_555
C3 C7 1_555 1_555
C3 N2 1_555 1_555
C4 N1 1_555 1_555
C5 C6 1_555 1_555
C8 N2 1_555 1_555
C13 C14 1_555 1_555
C19 C20 1_555 1_555
C22 N4 1_555 1_555
C23 N4 1_555 1_555
C27 C28 1_555 1_555
C28 N3 1_555 1_555
C34 C35 1_555 1_555
Co1 O1 1_555 1_555

#END
