
#######################################################################
#
#                 Cambridge Crystallographic Data Centre
#                                CCDC 
#
#######################################################################
#
# If this CIF has been generated from an entry in the Cambridge 
# Structural Database, then it will include bibliographic, chemical, 
# crystal, experimental, refinement or atomic coordinate data resulting 
# from the CCDC's data processing and validation procedures.
#
#######################################################################

data_COLBOV
_symmetry_cell_setting           orthorhombic
_symmetry_space_group_name_H-M   'P 21 21 2'
_symmetry_Int_Tables_number      18
_space_group_name_Hall           'P 2 2ab'
loop_
_symmetry_equiv_pos_site_id
_symmetry_equiv_pos_as_xyz
1 x,y,z
2 -x,-y,z
3 1/2-x,1/2+y,-z
4 1/2+x,1/2-y,-z
_cell_length_a                   10.2789(9)
_cell_length_b                   24.033(2)
_cell_length_c                   7.4222(6)
_cell_angle_alpha                90
_cell_angle_beta                 90
_cell_angle_gamma                90
_cell_volume                     1833.53
loop_
_atom_site_label
_atom_site_type_symbol
_atom_site_fract_x
_atom_site_fract_y
_atom_site_fract_z
Mn1 Mn -0.00283(2) 0.662684(9) 0.02527(3)
C1 C 0.30611(14) 0.63369(6) 0.0308(2)
C2 C 0.26892(14) 0.73284(6) 0.0162(2)
N1 N 0.18456(13) 0.61733(5) 0.0641(2)
N2 N 0.19506(14) 0.56233(6) 0.1039(2)
N3 N 0.31587(15) 0.54783(6) 0.0903(2)
N4 N 0.39098(13) 0.59193(6) 0.0440(3)
N5 N 0.34392(13) 0.68688(6) -0.0109(2)
H1 H 0.424(2) 0.6917(8) -0.028(3)
N6 N 0.14026(12) 0.73248(5) 0.0343(2)
N7 N 0.10803(13) 0.78645(6) 0.0595(3)
N8 N 0.21163(13) 0.81708(6) 0.0539(3)
N9 N 0.31706(12) 0.78445(5) 0.0265(2)
O1 O -0.04045(15) 0.67034(7) 0.30741(19)
H3 H -0.013(3) 0.6934(11) 0.359(4)
H4 H -0.122(3) 0.6689(12) 0.345(4)
O2 O -0.10653(13) 0.58362(5) 0.0277(2)
H5 H -0.065(2) 0.5565(10) -0.027(4)
H6 H -0.181(3) 0.5747(11) 0.072(4)
O3 O 0.00493(14) 0.65379(5) -0.27210(16)
H7 H -0.003(3) 0.6838(11) -0.311(3)
H8 H 0.085(3) 0.6405(12) -0.322(4)
Mn1C Mn -0.50283(2) 0.837316(9) -0.02527(3)
Mn1C_2 Mn 0.49717(2) 0.837316(9) -0.02527(3)
C1C C -0.19389(14) 0.86631(6) -0.0308(2)
C2C C -0.23108(14) 0.76716(6) -0.0162(2)
N1C N -0.31544(13) 0.88267(5) -0.0641(2)
N2C N -0.30494(14) 0.93767(6) -0.1039(2)
N3C N -0.18413(15) 0.95217(6) -0.0903(2)
N4C N -0.10902(13) 0.90807(6) -0.0440(3)
N5C N -0.15608(13) 0.81312(6) 0.0109(2)
H1C H -0.076(2) 0.8083(8) 0.028(3)
N6C N -0.35974(12) 0.76752(5) -0.0343(2)
N7C N -0.39197(13) 0.71355(6) -0.0595(3)
N8C N -0.28837(13) 0.68292(6) -0.0539(3)
N9C N -0.18294(12) 0.71555(5) -0.0265(2)
N9_2 N -0.68294(12) 0.78445(5) 0.0265(2)
O1C O -0.54045(15) 0.82966(7) -0.30741(19)
H3C H -0.513(3) 0.8066(11) -0.359(4)
H4C H -0.622(3) 0.8311(12) -0.345(4)
O2C O -0.60653(13) 0.91638(5) -0.0277(2)
H5C H -0.565(2) 0.9435(10) 0.027(4)
H6C H -0.681(3) 0.9253(11) -0.072(4)
O3C O -0.49507(14) 0.84621(5) 0.27210(16)
H7C H -0.503(3) 0.8162(11) 0.311(3)
H8C H -0.415(3) 0.8595(12) 0.322(4)
Mn2 Mn 0.36375(2) 0.436187(9) 0.52248(4)
C3 C 0.49154(15) 0.31219(6) 0.4848(2)
C4 C 0.65456(15) 0.38337(6) 0.5456(2)
N10 N 0.38972(13) 0.34597(5) 0.4706(2)
N11 N 0.28780(14) 0.31110(6) 0.4398(2)
N12 N 0.32836(14) 0.26028(6) 0.4375(2)
N13 N 0.45904(13) 0.25915(6) 0.4656(2)
N14 N 0.61673(13) 0.32934(6) 0.5174(3)
H2 H 0.6670(19) 0.3068(8) 0.528(3)
N15 N 0.58226(12) 0.42887(5) 0.5244(2)
N16 N 0.66432(13) 0.47135(6) 0.56559(19)
N17 N 0.77824(14) 0.45170(6) 0.6083(2)
N18 N 0.77573(14) 0.39571(6) 0.5980(2)
O4 O 0.15483(12) 0.42724(6) 0.5285(2)
H9 H 0.104(2) 0.4497(9) 0.473(4)
H10 H 0.113(2) 0.4051(11) 0.579(4)
O5 O 0.36040(15) 0.44579(6) 0.22765(17)
H11 H 0.355(2) 0.4797(10) 0.172(3)
H12 H 0.425(3) 0.4311(12) 0.190(4)
O6 O 0.37292(16) 0.42161(6) 0.81352(18)
H13 H 0.456(3) 0.4204(13) 0.858(4)
H14 H 0.350(3) 0.3906(13) 0.846(4)
Mn2A Mn 0.63625(2) 0.563813(9) 0.52248(4)
C3A C 0.50846(15) 0.68781(6) 0.4848(2)
C4A C 0.34544(15) 0.61663(6) 0.5456(2)
N10A N 0.61028(13) 0.65403(5) 0.4706(2)
N11A N 0.71220(14) 0.68890(6) 0.4398(2)
N12A N 0.67164(14) 0.73972(6) 0.4375(2)
N13A N 0.54096(13) 0.74085(6) 0.4656(2)
N14A N 0.38327(13) 0.67066(6) 0.5174(3)
H2A H 0.3330(19) 0.6932(8) 0.528(3)
N15A N 0.41774(12) 0.57113(5) 0.5244(2)
N16A N 0.33568(13) 0.52865(6) 0.56559(19)
N17A N 0.22176(14) 0.54830(6) 0.6083(2)
N18A N 0.22427(14) 0.60429(6) 0.5980(2)
O4A O 0.84517(12) 0.57276(6) 0.5285(2)
H9A H 0.896(2) 0.5503(9) 0.473(4)
H10A H 0.887(2) 0.5949(11) 0.579(4)
O5A O 0.63960(15) 0.55421(6) 0.22765(17)
H11A H 0.645(2) 0.5203(10) 0.172(3)
H12A H 0.575(3) 0.5689(12) 0.190(4)
O6A O 0.62708(16) 0.57839(6) 0.81352(18)
H13A H 0.544(3) 0.5796(13) 0.858(4)
H14A H 0.650(3) 0.6094(13) 0.846(4)
O7 O 0.0000 0.5000 -0.1832(3)
H15 H 0.052(2) 0.5123(10) -0.251(3)
H15A H -0.052(2) 0.4877(10) -0.251(3)
O8 O 1.0000 0.5000 0.3267(3)
H16 H 0.951(2) 0.4817(10) 0.275(3)
H16A H 1.049(2) 0.5183(10) 0.275(3)
loop_
_geom_bond_atom_site_label_1
_geom_bond_atom_site_label_2
_geom_bond_site_symmetry_1
_geom_bond_site_symmetry_2
Mn1 N1 1_555 1_555
Mn2 N10 1_555 1_555
C1 N1 1_555 1_555
C2 N5 1_555 1_555
C3 N10 1_555 1_555
C4 N14 1_555 1_555
N1 N2 1_555 1_555
N2 N3 1_555 1_555
N3 N4 1_555 1_555
N4 C1 1_555 1_555
N5 C1 1_555 1_555
H1 N5 1_555 1_555
N6 Mn1 1_555 1_555
N7 N6 1_555 1_555
N8 N7 1_555 1_555
N9 C2 1_555 1_555
N10 N11 1_555 1_555
N11 N12 1_555 1_555
N12 N13 1_555 1_555
N13 C3 1_555 1_555
N14 C3 1_555 1_555
H2 N14 1_555 1_555
N15 Mn2 1_555 1_555
N16 N15 1_555 1_555
N17 N16 1_555 1_555
N18 C4 1_555 1_555
O1 Mn1 1_555 1_555
H3 O1 1_555 1_555
H4 O1 1_555 1_555
O2 Mn1 1_555 1_555
H5 O2 1_555 1_555
H6 O2 1_555 1_555
O3 Mn1 1_555 1_555
H7 O3 1_555 1_555
H8 O3 1_555 1_555
O4 Mn2 1_555 1_555
H9 O4 1_555 1_555
H10 O4 1_555 1_555
O5 Mn2 1_555 1_555
H11 O5 1_555 1_555
H12 O5 1_555 1_555
O6 Mn2 1_555 1_555
H13 O6 1_555 1_555
H14 O6 1_555 1_555
O7 H15 1_555 1_555
O8 H16 1_555 1_555
Mn1C N1C 1_555 1_555
Mn1C_2 N9 1_555 1_555
Mn2A N16 1_555 1_555
C1C N1C 1_555 1_555
C2C N5C 1_555 1_555
C3A N10A 1_555 1_555
C4A N14A 1_555 1_555
N1C N2C 1_555 1_555
N2C N3C 1_555 1_555
N3C N4C 1_555 1_555
N4C C1C 1_555 1_555
N5C C1C 1_555 1_555
H1C N5C 1_555 1_555
N6C Mn1C 1_555 1_555
N7C N6C 1_555 1_555
N8C N7C 1_555 1_555
N9C Mn1 1_555 1_555
N9_2 Mn1C 1_555 1_555
N10A Mn2A 1_555 1_555
N11A N10A 1_555 1_555
N12A N11A 1_555 1_555
N13A C3A 1_555 1_555
N14A C3A 1_555 1_555
H2A N14A 1_555 1_555
N15A Mn2A 1_555 1_555
N16A Mn2 1_555 1_555
N17A N16A 1_555 1_555
N18A C4A 1_555 1_555
O1C Mn1C 1_555 1_555
H3C O1C 1_555 1_555
H4C O1C 1_555 1_555
O2C Mn1C 1_555 1_555
H5C O2C 1_555 1_555
H6C O2C 1_555 1_555
O3C Mn1C 1_555 1_555
H7C O3C 1_555 1_555
H8C O3C 1_555 1_555
O4A Mn2A 1_555 1_555
H9A O4A 1_555 1_555
H10A O4A 1_555 1_555
O5A Mn2A 1_555 1_555
H11A O5A 1_555 1_555
H12A O5A 1_555 1_555
O6A Mn2A 1_555 1_555
H13A O6A 1_555 1_555
H14A O6A 1_555 1_555
H15A O7 1_555 1_555
H16A O8 1_555 1_555
C2 N6 1_555 1_555
C4 N15 1_555 1_555
N8 N9 1_555 1_555
N17 N18 1_555 1_555
C2C N6C 1_555 1_555
C2C N9C 1_555 1_555
C4A N15A 1_555 1_555
N8C N9C 1_555 1_555
N12A N13A 1_555 1_555
N15A N16A 1_555 1_555
N17A N18A 1_555 1_555

#END
