
#######################################################################
#
#                 Cambridge Crystallographic Data Centre
#                                CCDC 
#
#######################################################################
#
# If this CIF has been generated from an entry in the Cambridge 
# Structural Database, then it will include bibliographic, chemical, 
# crystal, experimental, refinement or atomic coordinate data resulting 
# from the CCDC's data processing and validation procedures.
#
#######################################################################

data_COLBIP01
_symmetry_cell_setting           trigonal
_symmetry_space_group_name_H-M   'P -3 c 1'
_symmetry_Int_Tables_number      165
_space_group_name_Hall           '-P 3 2"c'
loop_
_symmetry_equiv_pos_site_id
_symmetry_equiv_pos_as_xyz
1 x,y,z
2 -y,x-y,z
3 -x+y,-x,z
4 y,x,1/2-z
5 x-y,-y,1/2-z
6 -x,-x+y,1/2-z
7 -x,-y,-z
8 y,-x+y,-z
9 x-y,x,-z
10 -y,-x,1/2+z
11 -x+y,y,1/2+z
12 x,x-y,1/2+z
_cell_length_a                   14.3137(3)
_cell_length_b                   14.3137(3)
_cell_length_c                   13.7292(7)
_cell_angle_alpha                90
_cell_angle_beta                 90
_cell_angle_gamma                120
_cell_volume                     2436.01
loop_
_atom_site_label
_atom_site_type_symbol
_atom_site_fract_x
_atom_site_fract_y
_atom_site_fract_z
Mn1 Mn -0.502240(18) -0.202450(18) 0.149710(17)
Mn2 Mn 0.0000 0.0000 0.0000
O1 O -0.6667 -0.3333 0.18262(14)
O2 O -0.54142(12) -0.22841(12) -0.00833(10)
O3 O -0.48321(10) -0.16988(10) 0.30737(9)
N1 N -0.46806(12) -0.48282(11) 0.12787(11)
N2 N -0.31830(11) -0.09464(11) 0.13132(10)
N3 N -0.16340(12) 0.04983(11) 0.10606(11)
N4 N -0.26334(11) 0.01531(12) 0.12727(11)
N5 N -0.36239(11) -0.41236(11) 0.11620(11)
N6 N -0.14682(11) -0.03485(11) 0.09382(11)
N7 N -0.52020(11) -0.43135(11) 0.13973(10)
N8 N -0.44999(10) -0.32358(10) 0.13644(10)
C1 C -0.35458(12) -0.31602(13) 0.12147(11)
N9 N -0.25739(11) -0.22301(11) 0.11230(12)
C2 C -0.24328(12) -0.12129(13) 0.11215(11)
H1 H -0.498(2) -0.184(2) -0.043(2)
H2 H -0.554(3) -0.280(2) -0.026(2)
H3 H -0.417(2) -0.131(2) 0.3262(18)
H4 H -0.508(3) -0.134(3) 0.329(2)
Mn1B Mn -0.700210(25) -0.497760(18) 0.149710(17)
Mn1A Mn -0.797550(18) -0.299790(25) 0.149710(17)
Mn1F Mn -0.497760(18) 0.202450(18) -0.149710(17)
Mn1G Mn -0.202450(18) 0.299790(25) -0.149710(17)
Mn1H Mn 0.700210(25) 0.497760(18) -0.149710(17)
Mn1H_2 Mn -0.299790(25) 0.497760(18) -0.149710(17)
Mn1F_2 Mn 0.502240(18) 0.202450(18) -0.149710(17)
Mn1A_2 Mn 0.202450(18) -0.299790(25) 0.149710(17)
Mn1B_2 Mn 0.299790(25) 0.502240(18) 0.149710(17)
Mn1H_3 Mn -0.299790(25) -0.502240(18) -0.149710(17)
Mn1_2 Mn 0.497760(18) -0.202450(18) 0.149710(17)
Mn1A_3 Mn 0.202450(18) 0.700210(25) 0.149710(17)
Mn1G_2 Mn -0.202450(18) -0.700210(25) -0.149710(17)
O1F O -0.3333 0.3333 -0.18262(14)
O1F_2 O 0.6667 0.3333 -0.18262(14)
O1_2 O 0.3333 -0.3333 0.18262(14)
O1_3 O 0.3333 0.6667 0.18262(14)
O1F_3 O -0.3333 -0.6667 -0.18262(14)
O2G O -0.22841(12) 0.31301(17) 0.00833(10)
O2F O 0.54142(12) 0.22841(12) 0.00833(10)
O2A O 0.22841(12) -0.31301(17) -0.00833(10)
O2B O 0.31301(17) 0.54142(12) -0.00833(10)
O2H O -0.31301(17) -0.54142(12) 0.00833(10)
O3G O -0.16988(10) 0.31333(14) -0.30737(9)
O3F O 0.48321(10) 0.16988(10) -0.30737(9)
O3A O 0.16988(10) -0.31333(14) 0.30737(9)
O3B O 0.31333(14) 0.48321(10) 0.30737(9)
O3H O -0.31333(14) -0.48321(10) -0.30737(9)
N1G N -0.48282(11) -0.01476(16) -0.12787(11)
N1F N 0.46806(12) 0.48282(11) -0.12787(11)
N1A N 0.48282(11) 0.01476(16) 0.12787(11)
N1B N -0.01476(16) 0.46806(12) 0.12787(11)
N1H N 0.01476(16) -0.46806(12) -0.12787(11)
N2G N -0.09464(11) 0.22366(16) -0.13132(10)
N2F N 0.31830(11) 0.09464(11) -0.13132(10)
N2A N 0.09464(11) -0.22366(16) 0.13132(10)
N2B N 0.22366(16) 0.31830(11) 0.13132(10)
N2H N -0.22366(16) -0.31830(11) -0.13132(10)
N3G N 0.04983(11) 0.21323(16) -0.10606(11)
N3F N 0.16340(12) -0.04983(11) -0.10606(11)
N3A N -0.04983(11) -0.21323(16) 0.10606(11)
N3B N 0.21323(16) 0.16340(12) 0.10606(11)
N3H N -0.21323(16) -0.16340(12) -0.10606(11)
N4G N 0.01531(12) 0.27865(16) -0.12727(11)
N4F N 0.26334(11) -0.01531(12) -0.12727(11)
N4A N -0.01531(12) -0.27865(16) 0.12727(11)
N4B N 0.27865(16) 0.26334(11) 0.12727(11)
N4H N -0.27865(16) -0.26334(11) -0.12727(11)
N5G N -0.41236(11) -0.04997(16) -0.11620(11)
N5F N 0.36239(11) 0.41236(11) -0.11620(11)
N5A N 0.41236(11) 0.04997(16) 0.11620(11)
N5B N -0.04997(16) 0.36239(11) 0.11620(11)
N5H N 0.04997(16) -0.36239(11) -0.11620(11)
N6G N -0.03485(11) 0.11197(16) -0.09382(11)
N6F N 0.14682(11) 0.03485(11) -0.09382(11)
N6A N 0.03485(11) -0.11197(16) 0.09382(11)
N6B N 0.11197(16) 0.14682(11) 0.09382(11)
N6H N -0.11197(16) -0.14682(11) -0.09382(11)
N7A N -0.56865(11) -0.08885(16) 0.13973(10)
N7G N -0.43135(11) 0.08885(16) -0.13973(10)
N7H N -0.08885(16) 0.47980(11) -0.13973(10)
N7F N 0.52020(11) 0.43135(11) -0.13973(10)
N7A_2 N 0.43135(11) -0.08885(16) 0.13973(10)
N7B N 0.08885(16) 0.52020(11) 0.13973(10)
N7H_2 N -0.08885(16) -0.52020(11) -0.13973(10)
N7G_2 N 0.56865(11) 0.08885(16) -0.13973(10)
N7B_2 N 0.08885(16) -0.47980(11) 0.13973(10)
N7_2 N 0.47980(11) 0.56865(11) 0.13973(10)
N7F_2 N -0.47980(11) -0.56865(11) -0.13973(10)
N8G N -0.32358(10) 0.12641(14) -0.13644(10)
N8F N 0.44999(10) 0.32358(10) -0.13644(10)
N8A N 0.32358(10) -0.12641(14) 0.13644(10)
N8B N 0.12641(14) 0.44999(10) 0.13644(10)
N8H N -0.12641(14) -0.44999(10) -0.13644(10)
C1G C -0.31602(13) 0.03856(18) -0.12147(11)
C1F C 0.35458(12) 0.31602(13) -0.12147(11)
C1A C 0.31602(13) -0.03856(18) 0.12147(11)
C1B C 0.03856(18) 0.35458(12) 0.12147(11)
C1H C -0.03856(18) -0.35458(12) -0.12147(11)
N9G N -0.22301(11) 0.03438(16) -0.11230(12)
N9F N 0.25739(11) 0.22301(11) -0.11230(12)
N9A N 0.22301(11) -0.03438(16) 0.11230(12)
N9B N 0.03438(16) 0.25739(11) 0.11230(12)
N9H N -0.03438(16) -0.25739(11) -0.11230(12)
C2G C -0.12129(13) 0.12199(18) -0.11215(11)
C2F C 0.24328(12) 0.12129(13) -0.11215(11)
C2A C 0.12129(13) -0.12199(18) 0.11215(11)
C2B C 0.12199(18) 0.24328(12) 0.11215(11)
C2H C -0.12199(18) -0.24328(12) -0.11215(11)
H1G H -0.184(2) 0.314(3) 0.043(2)
H1F H 0.498(2) 0.184(2) 0.043(2)
H1A H 0.184(2) -0.314(3) -0.043(2)
H1B H 0.314(3) 0.498(2) -0.043(2)
H1H H -0.314(3) -0.498(2) 0.043(2)
H2G H -0.280(2) 0.274(4) 0.026(2)
H2F H 0.554(3) 0.280(2) 0.026(2)
H2A H 0.280(2) -0.274(4) -0.026(2)
H2B H 0.274(4) 0.554(3) -0.026(2)
H2H H -0.274(4) -0.554(3) 0.026(2)
H3G H -0.131(2) 0.286(3) -0.3262(18)
H3F H 0.417(2) 0.131(2) -0.3262(18)
H3A H 0.131(2) -0.286(3) 0.3262(18)
H3B H 0.286(3) 0.417(2) 0.3262(18)
H3H H -0.286(3) -0.417(2) -0.3262(18)
H4G H -0.134(3) 0.374(4) -0.329(2)
H4F H 0.508(3) 0.134(3) -0.329(2)
H4A H 0.134(3) -0.374(4) 0.329(2)
H4B H 0.374(4) 0.508(3) 0.329(2)
H4H H -0.374(4) -0.508(3) -0.329(2)
loop_
_geom_bond_atom_site_label_1
_geom_bond_atom_site_label_2
_geom_bond_site_symmetry_1
_geom_bond_site_symmetry_2
Mn1 O1 1_555 1_555
Mn2 N6 1_555 1_555
O1 Mn1B 1_555 1_555
O2 Mn1 1_555 1_555
O3 Mn1 1_555 1_555
N1 N5 1_555 1_555
N2 Mn1 1_555 1_555
N3 N4 1_555 1_555
N4 N2 1_555 1_555
N5 C1 1_555 1_555
N6 N3 1_555 1_555
N7 N1 1_555 1_555
N8 Mn1 1_555 1_555
C1 N8 1_555 1_555
N9 C1 1_555 1_555
C2 N2 1_555 1_555
H1 O2 1_555 1_555
H2 O2 1_555 1_555
H3 O3 1_555 1_555
H4 O3 1_555 1_555
Mn1B N7 1_555 1_555
Mn1A O1 1_555 1_555
Mn1F O1F 1_555 1_555
Mn1G O1F 1_555 1_555
Mn1H O1F_2 1_555 1_555
Mn1H_2 O1F 1_555 1_555
Mn1F_2 O1F_2 1_555 1_555
Mn1A_2 O1_2 1_555 1_555
Mn1B_2 O1_3 1_555 1_555
Mn1H_3 O1F_3 1_555 1_555
Mn1_2 O1_2 1_555 1_555
Mn1A_3 O1_3 1_555 1_555
Mn1G_2 O1F_3 1_555 1_555
O2G Mn1G 1_555 1_555
O2F Mn1F_2 1_555 1_555
O2A Mn1A_2 1_555 1_555
O2B Mn1B_2 1_555 1_555
O2H Mn1H_3 1_555 1_555
O3G Mn1G 1_555 1_555
O3F Mn1F_2 1_555 1_555
O3A Mn1A_2 1_555 1_555
O3B Mn1B_2 1_555 1_555
O3H Mn1H_3 1_555 1_555
N1G N5G 1_555 1_555
N1F N5F 1_555 1_555
N1A N5A 1_555 1_555
N1B N5B 1_555 1_555
N1H N5H 1_555 1_555
N2G Mn1G 1_555 1_555
N2F Mn1F_2 1_555 1_555
N2A Mn1A_2 1_555 1_555
N2B Mn1B_2 1_555 1_555
N2H Mn1H_3 1_555 1_555
N3G N4G 1_555 1_555
N3F N4F 1_555 1_555
N3A N4A 1_555 1_555
N3B N4B 1_555 1_555
N3H N4H 1_555 1_555
N4G N2G 1_555 1_555
N4F N2F 1_555 1_555
N4A N2A 1_555 1_555
N4B N2B 1_555 1_555
N4H N2H 1_555 1_555
N5G C1G 1_555 1_555
N5F C1F 1_555 1_555
N5A C1A 1_555 1_555
N5B C1B 1_555 1_555
N5H C1H 1_555 1_555
N6G Mn2 1_555 1_555
N6F Mn2 1_555 1_555
N6A Mn2 1_555 1_555
N6B Mn2 1_555 1_555
N6H Mn2 1_555 1_555
N7A Mn1 1_555 1_555
N7G Mn1F 1_555 1_555
N7H Mn1G 1_555 1_555
N7F Mn1H 1_555 1_555
N7A_2 Mn1_2 1_555 1_555
N7B Mn1A_3 1_555 1_555
N7H_2 Mn1G_2 1_555 1_555
N7G_2 Mn1F_2 1_555 1_555
N7B_2 Mn1A_2 1_555 1_555
N7_2 Mn1B_2 1_555 1_555
N7F_2 Mn1H_3 1_555 1_555
N8G Mn1G 1_555 1_555
N8F Mn1F_2 1_555 1_555
N8A Mn1A_2 1_555 1_555
N8B Mn1B_2 1_555 1_555
N8H Mn1H_3 1_555 1_555
C1G N8G 1_555 1_555
C1F N8F 1_555 1_555
C1A N8A 1_555 1_555
C1B N8B 1_555 1_555
C1H N8H 1_555 1_555
N9G C1G 1_555 1_555
N9F C1F 1_555 1_555
N9A C1A 1_555 1_555
N9B C1B 1_555 1_555
N9H C1H 1_555 1_555
C2G N2G 1_555 1_555
C2F N2F 1_555 1_555
C2A N2A 1_555 1_555
C2B N2B 1_555 1_555
C2H N2H 1_555 1_555
H1G O2G 1_555 1_555
H1F O2F 1_555 1_555
H1A O2A 1_555 1_555
H1B O2B 1_555 1_555
H1H O2H 1_555 1_555
H2G O2G 1_555 1_555
H2F O2F 1_555 1_555
H2A O2A 1_555 1_555
H2B O2B 1_555 1_555
H2H O2H 1_555 1_555
H3G O3G 1_555 1_555
H3F O3F 1_555 1_555
H3A O3A 1_555 1_555
H3B O3B 1_555 1_555
H3H O3H 1_555 1_555
H4G O3G 1_555 1_555
H4F O3F 1_555 1_555
H4A O3A 1_555 1_555
H4B O3B 1_555 1_555
H4H O3H 1_555 1_555
N6 C2 1_555 1_555
N7 N8 1_555 1_555
N9 C2 1_555 1_555
N1G N7G 1_555 1_555
N1F N7F 1_555 1_555
N1A N7A_2 1_555 1_555
N1B N7B 1_555 1_555
N1H N7H_2 1_555 1_555
N3G N6G 1_555 1_555
N3F N6F 1_555 1_555
N3A N6A 1_555 1_555
N3B N6B 1_555 1_555
N3H N6H 1_555 1_555
N6G C2G 1_555 1_555
N6F C2F 1_555 1_555
N6A C2A 1_555 1_555
N6B C2B 1_555 1_555
N6H C2H 1_555 1_555
N7G N8G 1_555 1_555
N7F N8F 1_555 1_555
N7A_2 N8A 1_555 1_555
N7B N8B 1_555 1_555
N7H_2 N8H 1_555 1_555
N9G C2G 1_555 1_555
N9F C2F 1_555 1_555
N9A C2A 1_555 1_555
N9B C2B 1_555 1_555
N9H C2H 1_555 1_555

#END
