
#######################################################################
#
#                 Cambridge Crystallographic Data Centre
#                                CCDC 
#
#######################################################################
#
# If this CIF has been generated from an entry in the Cambridge 
# Structural Database, then it will include bibliographic, chemical, 
# crystal, experimental, refinement or atomic coordinate data resulting 
# from the CCDC's data processing and validation procedures.
#
#######################################################################

data_COLKOE
_symmetry_cell_setting           orthorhombic
_symmetry_space_group_name_H-M   'P n m a'
_symmetry_Int_Tables_number      62
_space_group_name_Hall           '-P 2ac 2n'
loop_
_symmetry_equiv_pos_site_id
_symmetry_equiv_pos_as_xyz
1 x,y,z
2 1/2-x,-y,1/2+z
3 -x,1/2+y,-z
4 1/2+x,1/2-y,1/2-z
5 -x,-y,-z
6 1/2+x,y,1/2-z
7 x,1/2-y,z
8 1/2-x,1/2+y,1/2+z
_cell_length_a                   13.1078(8)
_cell_length_b                   13.9000(8)
_cell_length_c                   13.0177(8)
_cell_angle_alpha                90
_cell_angle_beta                 90
_cell_angle_gamma                90
_cell_volume                     2371.8
loop_
_atom_site_label
_atom_site_type_symbol
_atom_site_fract_x
_atom_site_fract_y
_atom_site_fract_z
Sm1 Sm 0.336525(11) 0.2500 -0.562251(11)
Fe1 Fe 0.26398(3) 0.2500 -0.98150(3)
S1 S 0.48266(5) 0.46524(5) -0.63126(5)
N1 N 0.2803(3) 0.2500 -0.7455(2)
N2 N 0.5282(2) 0.2500 -0.5279(2)
N3 N 0.4988(2) 0.2500 -0.9782(3)
N4 N 0.2784(3) 0.2500 -1.2199(2)
N5 N 0.2592(2) 0.47117(16) -0.9714(2)
C1 C 0.2707(3) 0.2500 -0.8329(3)
C2 C 0.6152(2) 0.2500 -0.5235(2)
C3 C 0.4118(3) 0.2500 -0.9812(3)
C4 C 0.2690(2) 0.2500 -1.1319(2)
C5 C 0.26220(18) 0.38925(17) -0.97733(18)
C6 C 0.4273(2) 0.5739(2) -0.6814(2)
H1 H 0.3555 0.5765 -0.6638
H2 H 0.4607 0.6293 -0.6511
C7 C 0.4392(4) 0.5762(4) -0.7917(3)
H3 H 0.3724 0.5713 -0.8232
H4 H 0.4681 0.6378 -0.8112
C8 C 0.5029(3) 0.5009(4) -0.8314(3)
H5 H 0.5579 0.5294 -0.8709
H6 H 0.4630 0.4612 -0.8776
C9 C 0.5470(2) 0.4394(3) -0.7501(2)
H7 H 0.6194 0.4523 -0.7432
H8 H 0.5383 0.3721 -0.7678
O1 O 0.39428(14) 0.39536(13) -0.62569(15)
O2 O 0.34034(14) 0.35240(14) -0.40366(14)
O3 O 0.18315(14) 0.34979(15) -0.55769(16)
H9 H 0.1233(11) 0.333(2) -0.543(2)
H10 H 0.187(2) 0.4059(11) -0.533(2)
H11 H 0.3312(19) 0.342(2) -0.3413(11)
H12 H 0.3060(19) 0.4035(14) -0.413(3)
Fe1E Fe 0.76398(3) 0.2500 -0.51850(3)
S1F S 0.48266(5) 0.03476(5) -0.63126(5)
N5F N 0.2592(2) 0.02883(16) -0.9714(2)
C2E C 0.1152(2) 0.2500 -0.9765(2)
C5F C 0.26220(18) 0.11075(17) -0.97733(18)
C6F C 0.4273(2) -0.0739(2) -0.6814(2)
H1F H 0.3555 -0.0765 -0.6638
H2F H 0.4607 -0.1293 -0.6511
C7F C 0.4392(4) -0.0762(4) -0.7917(3)
H3F H 0.3724 -0.0713 -0.8232
H4F H 0.4681 -0.1378 -0.8112
C8F C 0.5029(3) -0.0009(4) -0.8314(3)
H5F H 0.5579 -0.0294 -0.8709
H6F H 0.4630 0.0388 -0.8776
C9F C 0.5470(2) 0.0606(3) -0.7501(2)
H7F H 0.6194 0.0477 -0.7432
H8F H 0.5383 0.1279 -0.7678
O1F O 0.39428(14) 0.10464(13) -0.62569(15)
O2F O 0.34034(14) 0.14760(14) -0.40366(14)
O3F O 0.18315(14) 0.15021(15) -0.55769(16)
H9F H 0.1233(11) 0.167(2) -0.543(2)
H10F H 0.187(2) 0.0941(11) -0.533(2)
H11F H 0.3312(19) 0.158(2) -0.3413(11)
H12F H 0.3060(19) 0.0965(14) -0.413(3)
loop_
_geom_bond_atom_site_label_1
_geom_bond_atom_site_label_2
_geom_bond_site_symmetry_1
_geom_bond_site_symmetry_2
Sm1 N1 1_555 1_555
Fe1 C1 1_555 1_555
S1 C6 1_555 1_555
N1 C1 1_555 1_555
N2 Sm1 1_555 1_555
N3 C3 1_555 1_555
N4 C4 1_555 1_555
N5 C5 1_555 1_555
C2 N2 1_555 1_555
C3 Fe1 1_555 1_555
C4 Fe1 1_555 1_555
C5 Fe1 1_555 1_555
C6 H1 1_555 1_555
H2 C6 1_555 1_555
C7 C6 1_555 1_555
H3 C7 1_555 1_555
H4 C7 1_555 1_555
C8 C7 1_555 1_555
H5 C8 1_555 1_555
H6 C8 1_555 1_555
C9 S1 1_555 1_555
H7 C9 1_555 1_555
H8 C9 1_555 1_555
O1 Sm1 1_555 1_555
O2 Sm1 1_555 1_555
O3 Sm1 1_555 1_555
H9 O3 1_555 1_555
H10 O3 1_555 1_555
H11 O2 1_555 1_555
H12 O2 1_555 1_555
Fe1E C2 1_555 1_555
S1F C6F 1_555 1_555
N5F C5F 1_555 1_555
C2E Fe1 1_555 1_555
C5F Fe1 1_555 1_555
C6F H1F 1_555 1_555
H2F C6F 1_555 1_555
C7F C6F 1_555 1_555
H3F C7F 1_555 1_555
H4F C7F 1_555 1_555
C8F C7F 1_555 1_555
H5F C8F 1_555 1_555
H6F C8F 1_555 1_555
C9F S1F 1_555 1_555
H7F C9F 1_555 1_555
H8F C9F 1_555 1_555
O1F Sm1 1_555 1_555
O2F Sm1 1_555 1_555
O3F Sm1 1_555 1_555
H9F O3F 1_555 1_555
H10F O3F 1_555 1_555
H11F O2F 1_555 1_555
H12F O2F 1_555 1_555
S1 O1 1_555 1_555
C8 C9 1_555 1_555
S1F O1F 1_555 1_555
C8F C9F 1_555 1_555

#END
