
#######################################################################
#
#                 Cambridge Crystallographic Data Centre
#                                CCDC 
#
#######################################################################
#
# If this CIF has been generated from an entry in the Cambridge 
# Structural Database, then it will include bibliographic, chemical, 
# crystal, experimental, refinement or atomic coordinate data resulting 
# from the CCDC's data processing and validation procedures.
#
#######################################################################

data_COLNUN
_symmetry_cell_setting           monoclinic
_symmetry_space_group_name_H-M   'P 21/a'
_symmetry_Int_Tables_number      14
_space_group_name_Hall           '-P 2yab'
loop_
_symmetry_equiv_pos_site_id
_symmetry_equiv_pos_as_xyz
1 x,y,z
2 1/2-x,1/2+y,-z
3 -x,-y,-z
4 1/2+x,1/2-y,z
_cell_length_a                   10.9064(3)
_cell_length_b                   11.2569(3)
_cell_length_c                   11.0218(3)
_cell_angle_alpha                90
_cell_angle_beta                 95.096(3)
_cell_angle_gamma                90
_cell_volume                     1347.82
loop_
_atom_site_label
_atom_site_type_symbol
_atom_site_fract_x
_atom_site_fract_y
_atom_site_fract_z
Cu1 Cu 0.47058(5) -0.76384(4) 0.00034(4)
Cu2 Cu 0.65787(4) -0.56128(4) 0.17599(4)
S1 S 0.51356(8) -0.70388(8) 0.20014(8)
S2 S 0.41395(10) -0.63008(9) -0.14463(9)
N1 N 0.5685(3) -0.7501(3) -0.2810(3)
N2 N 0.4525(3) -0.6207(3) -0.3816(3)
N3 N 0.5476(3) -0.9285(3) 0.2806(3)
C1 C 0.6104(4) -0.7550(3) -0.4039(4)
H1 H 0.6157 -0.8363 -0.4323
H2 H 0.6896 -0.7165 -0.4069
C2 C 0.4822(3) -0.6692(3) -0.2729(3)
N4 N 0.7176(3) -0.8404(3) 0.2469(3)
C3 C 0.7601(4) -0.9565(3) 0.2924(4)
H3 H 0.8060 -0.9500 0.3717
H4 H 0.8110 -0.9951 0.2363
C4 C 0.6377(3) -1.0237(3) 0.3005(3)
H5 H 0.6259 -1.0843 0.2381
H6 H 0.6340 -1.0600 0.3799
C5 C 0.5969(3) -0.8295(3) 0.2449(3)
C6 C 0.5080(4) -0.6864(4) -0.4775(3)
H7 H 0.5410 -0.6331 -0.5356
H8 H 0.4491 -0.7397 -0.5204
S3 S 0.28065(8) -0.89625(8) 0.01808(8)
C7 C 0.3562(3) -1.0245(3) 0.0294(3)
Cl1 Cl 0.77851(8) -0.56035(8) 0.37330(8)
N5 N 0.4102(3) -1.1129(3) 0.0367(3)
H9 H 0.409(5) -0.581(5) -0.391(5)
H10 H 0.603(5) -0.781(4) -0.224(5)
H11 H 0.478(5) -0.928(4) 0.289(4)
H12 H 0.765(5) -0.794(5) 0.235(5)
Cu1B Cu 0.52942(5) -1.23616(4) -0.00034(4)
Cu2B Cu 0.34213(4) -0.43872(4) -0.17599(4)
Cu2C Cu 0.15787(4) -0.93872(4) 0.17599(4)
S2B S 0.58605(10) -0.36992(9) 0.14463(9)
S3C S 0.78065(8) -0.60375(8) 0.01808(8)
N5B N 0.5898(3) -0.8871(3) -0.0367(3)
loop_
_geom_bond_atom_site_label_1
_geom_bond_atom_site_label_2
_geom_bond_site_symmetry_1
_geom_bond_site_symmetry_2
Cu1 S1 1_555 1_555
Cu2 S1 1_555 1_555
S1 C5 1_555 1_555
S2 Cu1 1_555 1_555
N1 C1 1_555 1_555
N2 C2 1_555 1_555
N3 C4 1_555 1_555
C1 H1 1_555 1_555
H2 C1 1_555 1_555
C2 S2 1_555 1_555
N4 C3 1_555 1_555
C3 H3 1_555 1_555
H4 C3 1_555 1_555
C4 C3 1_555 1_555
H5 C4 1_555 1_555
H6 C4 1_555 1_555
C5 N3 1_555 1_555
C6 N2 1_555 1_555
H7 C6 1_555 1_555
H8 C6 1_555 1_555
S3 Cu1 1_555 1_555
C7 S3 1_555 1_555
Cl1 Cu2 1_555 1_555
N5 C7 1_555 1_555
H9 N2 1_555 1_555
H10 N1 1_555 1_555
H11 N3 1_555 1_555
H12 N4 1_555 1_555
Cu1B N5 1_555 1_555
Cu2B S2 1_555 1_555
Cu2C S3 1_555 1_555
S2B Cu2 1_555 1_555
S3C Cu2 1_555 1_555
N5B Cu1 1_555 1_555
N1 C2 1_555 1_555
C1 C6 1_555 1_555
N4 C5 1_555 1_555

#END
