
#######################################################################
#
#                 Cambridge Crystallographic Data Centre
#                                CCDC 
#
#######################################################################
#
# If this CIF has been generated from an entry in the Cambridge 
# Structural Database, then it will include bibliographic, chemical, 
# crystal, experimental, refinement or atomic coordinate data resulting 
# from the CCDC's data processing and validation procedures.
#
#######################################################################

data_COLWAC
_symmetry_cell_setting           monoclinic
_symmetry_space_group_name_H-M   'P 21/c'
_symmetry_Int_Tables_number      14
_space_group_name_Hall           '-P 2ybc'
loop_
_symmetry_equiv_pos_site_id
_symmetry_equiv_pos_as_xyz
1 x,y,z
2 -x,1/2+y,1/2-z
3 -x,-y,-z
4 x,1/2-y,1/2+z
_cell_length_a                   11.122(2)
_cell_length_b                   7.5176(15)
_cell_length_c                   8.6417(17)
_cell_angle_alpha                90
_cell_angle_beta                 95.12(3)
_cell_angle_gamma                90
_cell_volume                     719.656
loop_
_atom_site_label
_atom_site_type_symbol
_atom_site_fract_x
_atom_site_fract_y
_atom_site_fract_z
Zn1 Zn -0.5000 0.5000 -0.5000
O1 O 0.33235(19) -0.4456(3) -0.4227(2)
O2 O 0.30469(19) -0.1746(3) -0.5236(3)
O3 O 0.17185(19) 0.0259(3) -0.2497(3)
H1 H 0.1832 0.1332 -0.2254
O4 O -0.4629(2) 0.7737(3) -0.5260(3)
H2 H -0.5325(13) 0.793(5) -0.494(4)
H3 H -0.4037(18) 0.803(5) -0.460(3)
O5 O -0.4263(2) 0.4961(3) -0.2703(3)
H4 H -0.3500(11) 0.483(4) -0.268(4)
H5 H -0.449(3) 0.574(4) -0.207(4)
C1 C 0.2689(3) -0.3087(4) -0.4530(3)
C2 C 0.1445(3) -0.3073(4) -0.3971(4)
H6 H 0.1014 -0.4162 -0.4353
H7 H 0.1525 -0.3121 -0.2822
C3 C 0.0690(2) -0.1489(4) -0.4476(3)
C4 C -0.0186(3) -0.1612(4) -0.5731(3)
H8 H -0.0321 -0.2723 -0.6242
C5 C 0.0863(2) 0.0146(4) -0.3751(3)
Zn1_2 Zn 0.5000 -0.5000 -0.5000
O1B O -0.33235(19) 0.4456(3) -0.5773(2)
O1_2 O -0.66765(19) 0.5544(3) -0.4227(2)
O2B O -0.30469(19) 0.1746(3) -0.4764(3)
O3B O -0.17185(19) -0.0259(3) -0.7503(3)
H1B H -0.1832 -0.1332 -0.7746
O4B O -0.5371(2) 0.2263(3) -0.4740(3)
H2B H -0.4675(13) 0.207(5) -0.506(4)
H3B H -0.5963(18) 0.197(5) -0.540(3)
O5B O -0.5737(2) 0.5039(3) -0.7297(3)
H4B H -0.6500(11) 0.517(4) -0.732(4)
H5B H -0.551(3) 0.426(4) -0.793(4)
C1B C -0.2689(3) 0.3087(4) -0.5470(3)
C2B C -0.1445(3) 0.3073(4) -0.6029(4)
H6B H -0.1014 0.4162 -0.5647
H7B H -0.1525 0.3121 -0.7178
C3B C -0.0690(2) 0.1489(4) -0.5524(3)
C4B C 0.0186(3) 0.1612(4) -0.4269(3)
H8B H 0.0321 0.2723 -0.3758
C5B C -0.0863(2) -0.0146(4) -0.6249(3)
O6 O 0.2650(2) -0.6450(3) -0.1822(3)
H9 H 0.246(3) -0.574(4) -0.114(3)
H10 H 0.286(3) -0.605(4) -0.267(2)
loop_
_geom_bond_atom_site_label_1
_geom_bond_atom_site_label_2
_geom_bond_site_symmetry_1
_geom_bond_site_symmetry_2
Zn1 O4 1_555 1_555
O1 C1 1_555 1_555
O2 C1 1_555 1_555
O3 H1 1_555 1_555
O4 H2 1_555 1_555
H3 O4 1_555 1_555
O5 Zn1 1_555 1_555
H4 O5 1_555 1_555
H5 O5 1_555 1_555
C1 C2 1_555 1_555
C2 H6 1_555 1_555
H7 C2 1_555 1_555
C3 C2 1_555 1_555
C4 C3 1_555 1_555
H8 C4 1_555 1_555
C5 O3 1_555 1_555
O6 H9 1_555 1_555
H10 O6 1_555 1_555
Zn1_2 O1 1_555 1_555
O1B Zn1 1_555 1_555
O1_2 Zn1 1_555 1_555
O2B C1B 1_555 1_555
O3B H1B 1_555 1_555
O4B Zn1 1_555 1_555
H2B O4B 1_555 1_555
H3B O4B 1_555 1_555
O5B Zn1 1_555 1_555
H4B O5B 1_555 1_555
H5B O5B 1_555 1_555
C1B O1B 1_555 1_555
C2B C1B 1_555 1_555
H6B C2B 1_555 1_555
H7B C2B 1_555 1_555
C3B C2B 1_555 1_555
C4B C5 1_555 1_555
H8B C4B 1_555 1_555
C5B C4 1_555 1_555
C3 C5 1_555 1_555
O3B C5B 1_555 1_555
C3B C4B 1_555 1_555
C3B C5B 1_555 1_555

#END
