
#######################################################################
#
#                 Cambridge Crystallographic Data Centre
#                                CCDC 
#
#######################################################################
#
# If this CIF has been generated from an entry in the Cambridge 
# Structural Database, then it will include bibliographic, chemical, 
# crystal, experimental, refinement or atomic coordinate data resulting 
# from the CCDC's data processing and validation procedures.
#
#######################################################################

data_COLXIM
_symmetry_cell_setting           orthorhombic
_symmetry_space_group_name_H-M   'P b c a'
_symmetry_Int_Tables_number      61
_space_group_name_Hall           '-P 2ac 2ab'
loop_
_symmetry_equiv_pos_site_id
_symmetry_equiv_pos_as_xyz
1 x,y,z
2 1/2-x,-y,1/2+z
3 -x,1/2+y,1/2-z
4 1/2+x,1/2-y,-z
5 -x,-y,-z
6 1/2+x,y,1/2-z
7 x,1/2-y,1/2+z
8 1/2-x,1/2+y,z
_cell_length_a                   13.9353(14)
_cell_length_b                   8.9922(9)
_cell_length_c                   20.379(2)
_cell_angle_alpha                90
_cell_angle_beta                 90
_cell_angle_gamma                90
_cell_volume                     2553.67
loop_
_atom_site_label
_atom_site_type_symbol
_atom_site_fract_x
_atom_site_fract_y
_atom_site_fract_z
Co1 Co 0.59595(3) 0.16446(4) 0.331702(18)
N1 N 0.47284(17) 0.0409(2) 0.35749(11)
C1 C 0.5890(2) 0.3838(4) 0.52106(15)
H1 H 0.6264 0.4551 0.5421
N2 N 0.55854(18) 0.2303(2) 0.42836(10)
C2 C 0.4810(2) 0.1732(3) 0.45710(13)
C3 C 0.6116(2) 0.3359(3) 0.45768(14)
C4 C 0.4355(2) -0.0537(3) 0.31330(13)
C5 C 0.3445(2) -0.0091(3) 0.43051(13)
H2 H 0.3147 0.0060 0.4708
C6 C 0.3505(2) -0.1287(3) 0.32483(14)
H3 H 0.3246 -0.1927 0.2936
C7 C 0.3053(2) -0.1053(4) 0.38456(14)
H4 H 0.2482 -0.1544 0.3939
C8 C 0.4289(2) 0.0638(3) 0.41518(13)
C9 C 0.5109(2) 0.3236(3) 0.55147(14)
H5 H 0.4957 0.3532 0.5940
C10 C 0.4533(2) 0.2185(3) 0.51997(13)
H6 H 0.3987 0.1801 0.5400
N3 N 0.69855(18) 0.3254(3) 0.35501(13)
C11 C 0.4966(2) -0.0608(3) 0.25355(13)
N4 N 0.56781(18) 0.0361(2) 0.24750(11)
C12 C 0.6881(2) 0.3900(3) 0.41389(14)
N5 N 0.49261(17) -0.1546(2) 0.20367(11)
N6 N 0.75039(19) 0.5017(3) 0.42100(12)
N7 N 0.5676(2) -0.1115(3) 0.16444(12)
N8 N 0.7714(2) 0.3957(3) 0.32441(13)
N9 N 0.80270(19) 0.5009(3) 0.36375(12)
N10 N 0.61186(19) 0.0017(3) 0.19050(13)
Co1B Co 0.40405(3) -0.33554(4) 0.168298(18)
Co1G Co 0.90405(3) 0.66446(4) 0.331702(18)
N5B N 0.50739(17) 0.3454(2) 0.29633(11)
N9G N 0.69730(19) 0.0009(3) 0.36375(12)
loop_
_geom_bond_atom_site_label_1
_geom_bond_atom_site_label_2
_geom_bond_site_symmetry_1
_geom_bond_site_symmetry_2
Co1 N1 1_555 1_555
N1 C4 1_555 1_555
C1 H1 1_555 1_555
N2 Co1 1_555 1_555
C2 N2 1_555 1_555
C3 C1 1_555 1_555
C4 C6 1_555 1_555
C5 H2 1_555 1_555
C6 H3 1_555 1_555
C7 C5 1_555 1_555
H4 C7 1_555 1_555
C8 N1 1_555 1_555
C9 C1 1_555 1_555
H5 C9 1_555 1_555
C10 C2 1_555 1_555
H6 C10 1_555 1_555
N3 Co1 1_555 1_555
C11 C4 1_555 1_555
N4 Co1 1_555 1_555
C12 C3 1_555 1_555
N5 C11 1_555 1_555
N6 C12 1_555 1_555
N7 N5 1_555 1_555
N8 N3 1_555 1_555
N9 N6 1_555 1_555
N10 N4 1_555 1_555
Co1B N5 1_555 1_555
Co1G N9 1_555 1_555
N5B Co1 1_555 1_555
N9G Co1 1_555 1_555
N2 C3 1_555 1_555
C2 C8 1_555 1_555
C5 C8 1_555 1_555
C6 C7 1_555 1_555
C9 C10 1_555 1_555
N3 C12 1_555 1_555
C11 N4 1_555 1_555
N7 N10 1_555 1_555
N8 N9 1_555 1_555

#END
