
#######################################################################
#
#                 Cambridge Crystallographic Data Centre
#                                CCDC 
#
#######################################################################
#
# If this CIF has been generated from an entry in the Cambridge 
# Structural Database, then it will include bibliographic, chemical, 
# crystal, experimental, refinement or atomic coordinate data resulting 
# from the CCDC's data processing and validation procedures.
#
#######################################################################

data_COMALT01
_symmetry_cell_setting           monoclinic
_symmetry_space_group_name_H-M   'P 21'
_symmetry_Int_Tables_number      4
_space_group_name_Hall           'P 2yb'
loop_
_symmetry_equiv_pos_site_id
_symmetry_equiv_pos_as_xyz
1 x,y,z
2 -x,1/2+y,-z
_cell_length_a                   5.777(5)
_cell_length_b                   9.079(5)
_cell_length_c                   8.411(5)
_cell_angle_alpha                90
_cell_angle_beta                 105.433(5)
_cell_angle_gamma                90
_cell_volume                     425.245
loop_
_atom_site_label
_atom_site_type_symbol
_atom_site_fract_x
_atom_site_fract_y
_atom_site_fract_z
Co1 Co 0.97692(3) 0.89539(3) 0.33155(2)
O1 O 0.9857(2) 0.80155(17) 0.10097(17)
O2 O 1.3350(2) 0.95703(19) 0.38982(19)
O3 O 0.3872(2) 0.68995(19) 0.04513(19)
O4 O 0.8944(2) 1.11245(19) 0.25619(19)
O5 O 0.6224(2) 0.84174(18) 0.22416(18)
O6 O 1.0333(3) 0.43872(16) 0.42710(17)
C1 C 1.0010(3) 0.5589(2) 0.3498(2)
O8 O 1.0451(3) 0.68241(18) 0.41949(19)
C2 C 0.9048(3) 0.5458(2) 0.1627(2)
H1 H 1.0349 0.5059 0.1188
H2 H 0.7735 0.4723 0.1391
C3 C 0.5874(3) 0.7437(2) 0.1141(2)
C4 C 0.8104(3) 0.6859(2) 0.0671(2)
H3 H 0.7663 0.6636 -0.0537
H4 H 0.892(6) 1.150(5) 0.339(5)
H5 H 0.788(6) 1.125(4) 0.171(4)
H6 H 1.359(5) 1.051(4) 0.391(4)
H7 H 1.436(6) 0.912(6) 0.330(4)
H8 H 1.115(5) 0.766(3) 0.086(3)
Co1A Co 1.02308(3) 0.39539(3) 0.66845(2)
O6A O 0.9667(3) 0.93872(16) 0.57290(17)
O7 O 0.5974(3) 0.7509(2) 0.6444(2)
H9 H 0.492(3) 0.806(3) 0.582(3)
H10 H 0.7379(18) 0.779(4) 0.644(5)
loop_
_geom_bond_atom_site_label_1
_geom_bond_atom_site_label_2
_geom_bond_site_symmetry_1
_geom_bond_site_symmetry_2
Co1 O1 1_555 1_555
O1 C4 1_555 1_555
O2 Co1 1_555 1_555
O3 C3 1_555 1_555
O4 Co1 1_555 1_555
O5 Co1 1_555 1_555
O6 C1 1_555 1_555
O7 H9 1_555 1_555
C1 O8 1_555 1_555
O8 Co1 1_555 1_555
C2 C1 1_555 1_555
H1 C2 1_555 1_555
H2 C2 1_555 1_555
C3 O5 1_555 1_555
C4 C2 1_555 1_555
H3 C4 1_555 1_555
H4 O4 1_555 1_555
H5 O4 1_555 1_555
H6 O2 1_555 1_555
H7 O2 1_555 1_555
H8 O1 1_555 1_555
H10 O7 1_555 1_555
Co1A O6 1_555 1_555
O6A Co1 1_555 1_555
C3 C4 1_555 1_555

#END
