
#######################################################################
#
#                 Cambridge Crystallographic Data Centre
#                                CCDC 
#
#######################################################################
#
# If this CIF has been generated from an entry in the Cambridge 
# Structural Database, then it will include bibliographic, chemical, 
# crystal, experimental, refinement or atomic coordinate data resulting 
# from the CCDC's data processing and validation procedures.
#
#######################################################################

data_COMGIV
_symmetry_cell_setting           triclinic
_symmetry_space_group_name_H-M   'P -1'
_symmetry_Int_Tables_number      2
_space_group_name_Hall           '-P 1'
loop_
_symmetry_equiv_pos_site_id
_symmetry_equiv_pos_as_xyz
1 x,y,z
2 -x,-y,-z
_cell_length_a                   6.5567(4)
_cell_length_b                   11.4439(8)
_cell_length_c                   11.5993(8)
_cell_angle_alpha                77.4620(10)
_cell_angle_beta                 76.5110(10)
_cell_angle_gamma                76.1100(10)
_cell_volume                     809.536
loop_
_atom_site_label
_atom_site_type_symbol
_atom_site_fract_x
_atom_site_fract_y
_atom_site_fract_z
Cd1 Cd 1.86062(3) -0.155574(17) 0.158396(17)
O1 O 1.6246(3) -0.0633(2) 0.30915(19)
O2 O 1.5264(3) -0.00414(18) 0.13306(18)
O3 O 1.1097(3) -0.03701(18) 0.11523(18)
O4 O 1.0833(4) 0.16215(18) 0.04534(18)
O5 O 0.7070(3) 0.24970(18) 0.48213(17)
O6 O 0.0192(3) 0.6958(2) 0.2906(2)
O7 O 0.2410(4) 0.6749(2) 0.11786(19)
O8 O 0.6306(3) 0.71787(18) 0.16668(19)
O9 O 0.8068(4) 0.5584(2) 0.0800(2)
O10 O 1.5076(5) -0.3061(3) -0.1164(2)
H1 H 1.5723 -0.3641 -0.0745
H2 H 1.5898 -0.3042 -0.1822
C1 C 1.4876(5) -0.0073(3) 0.2462(3)
C2 C 1.2756(4) 0.0578(2) 0.3059(2)
C3 C 1.2562(5) 0.0847(3) 0.4203(3)
H3 H 1.3729 0.0586 0.4588
C4 C 1.0665(5) 0.1494(3) 0.4779(3)
H4 H 1.0561 0.1672 0.5538
C5 C 0.8948(5) 0.1867(3) 0.4211(2)
C6 C 0.9069(5) 0.1590(2) 0.3088(2)
H5 H 0.7874 0.1827 0.2726
C7 C 1.0982(4) 0.0954(2) 0.2503(2)
C8 C 1.0986(4) 0.0701(2) 0.1283(2)
C9 C 0.1886(5) 0.6455(3) 0.2303(3)
C10 C 0.3354(5) 0.5447(2) 0.2960(2)
C11 C 0.2456(5) 0.4659(3) 0.3926(3)
H6 H 0.0974 0.4796 0.4166
C12 C 0.3685(5) 0.3677(3) 0.4547(3)
H7 H 0.3049 0.3165 0.5197
C13 C 0.5885(5) 0.3478(3) 0.4174(2)
C14 C 0.6831(5) 0.4258(3) 0.3226(3)
H8 H 0.8314 0.4125 0.3002
C15 C 0.5588(5) 0.5235(2) 0.2608(2)
C16 C 0.6739(5) 0.6068(3) 0.1613(3)
Na1 Na 1.4304(2) -0.15261(10) 0.02958(11)
Na2 Na 0.8852(2) 0.36319(11) 0.03741(11)
Cd1_2 Cd 0.86062(3) -0.155574(17) 0.158396(17)
Cd1A Cd 1.13938(3) 0.155574(17) -0.158396(17)
Cd1_3 Cd -0.13938(3) 0.844426(17) 0.158396(17)
Cd1_4 Cd 0.86062(3) 0.844426(17) 0.158396(17)
O2A O 1.4736(3) 0.00414(18) -0.13306(18)
O3_2 O 2.1097(3) -0.03701(18) 0.11523(18)
O4A O 1.9167(4) -0.16215(18) -0.04534(18)
O6_2 O 2.0192(3) -0.3042(2) 0.2906(2)
O7_2 O 2.2410(4) -0.3251(2) 0.11786(19)
O7_3 O 1.2410(4) -0.3251(2) 0.11786(19)
O7A O 0.7590(4) 0.3251(2) -0.11786(19)
O8_2 O 1.6306(3) -0.28213(18) 0.16668(19)
O9A O 1.1932(4) 0.4416(2) -0.0800(2)
O10A O 0.4924(5) 0.3061(3) 0.1164(2)
H1A H 0.4277 0.3641 0.0745
H2A H 0.4102 0.3042 0.1822
Na1_2 Na 2.4304(2) -0.15261(10) 0.02958(11)
Na1A Na 1.5696(2) 0.15261(10) -0.02958(11)
Na1_3 Na 0.4304(2) 0.84739(10) 0.02958(11)
Na2A Na 2.1148(2) -0.36319(11) -0.03741(11)
Na2A_2 Na 0.1148(2) 0.63681(11) -0.03741(11)
Na2A_3 Na 1.1148(2) 0.63681(11) -0.03741(11)
Na2A_4 Na 1.1148(2) -0.36319(11) -0.03741(11)
loop_
_geom_bond_atom_site_label_1
_geom_bond_atom_site_label_2
_geom_bond_site_symmetry_1
_geom_bond_site_symmetry_2
Cd1 O1 1_555 1_555
O1 C1 1_555 1_555
O2 Cd1 1_555 1_555
O3 C8 1_555 1_555
O4 C8 1_555 1_555
O5 C5 1_555 1_555
O6 C9 1_555 1_555
O7 C9 1_555 1_555
O8 C16 1_555 1_555
O9 C16 1_555 1_555
O10 H1 1_555 1_555
H2 O10 1_555 1_555
C1 O2 1_555 1_555
C2 C1 1_555 1_555
C3 C2 1_555 1_555
H3 C3 1_555 1_555
C4 C3 1_555 1_555
H4 C4 1_555 1_555
C5 C4 1_555 1_555
C6 C5 1_555 1_555
H5 C6 1_555 1_555
C7 C2 1_555 1_555
C8 C7 1_555 1_555
C9 C10 1_555 1_555
C10 C11 1_555 1_555
C11 H6 1_555 1_555
C12 C11 1_555 1_555
H7 C12 1_555 1_555
C13 O5 1_555 1_555
C14 C13 1_555 1_555
H8 C14 1_555 1_555
C15 C10 1_555 1_555
C16 C15 1_555 1_555
Na1 O2 1_555 1_555
Na2 O4 1_555 1_555
Cd1_2 O3 1_555 1_555
Cd1A O4 1_555 1_555
Cd1_3 O6 1_555 1_555
Cd1_4 O8 1_555 1_555
O2A Na1 1_555 1_555
O3_2 Cd1 1_555 1_555
O4A Cd1 1_555 1_555
O6_2 Cd1 1_555 1_555
O7_2 Cd1 1_555 1_555
O7_3 Na1 1_555 1_555
O7A Na2 1_555 1_555
O8_2 Cd1 1_555 1_555
O9A Na2 1_555 1_555
O10A Na2 1_555 1_555
H1A O10A 1_555 1_555
H2A O10A 1_555 1_555
Na1_2 O3_2 1_555 1_555
Na1A O2 1_555 1_555
Na1_3 O7 1_555 1_555
Na2A O4A 1_555 1_555
Na2A_2 O7 1_555 1_555
Na2A_3 O9 1_555 1_555
Na2A_4 O10 1_555 1_555
O3 Na1 1_555 1_555
O7 Cd1_3 1_555 1_555
O8 Na1_3 1_555 1_555
O9 Na2 1_555 1_555
O10 Na1 1_555 1_555
C6 C7 1_555 1_555
C12 C13 1_555 1_555
C14 C15 1_555 1_555
Na1 O8_2 1_555 1_555
Cd1_2 O7_3 1_555 1_555
Cd1A O2A 1_555 1_555
Cd1A O7A 1_555 1_555
O2A Na1A 1_555 1_555
O7_2 Na1_2 1_555 1_555
O7_2 Na2A 1_555 1_555
O7_3 Na2A_4 1_555 1_555
O9A Na2A_3 1_555 1_555

#END
