
#######################################################################
#
#                 Cambridge Crystallographic Data Centre
#                                CCDC 
#
#######################################################################
#
# If this CIF has been generated from an entry in the Cambridge 
# Structural Database, then it will include bibliographic, chemical, 
# crystal, experimental, refinement or atomic coordinate data resulting 
# from the CCDC's data processing and validation procedures.
#
#######################################################################

data_COMHES
_symmetry_cell_setting           monoclinic
_symmetry_space_group_name_H-M   'P 21/c'
_symmetry_Int_Tables_number      14
_space_group_name_Hall           '-P 2ybc'
loop_
_symmetry_equiv_pos_site_id
_symmetry_equiv_pos_as_xyz
1 x,y,z
2 -x,1/2+y,1/2-z
3 -x,-y,-z
4 x,1/2-y,1/2+z
_cell_length_a                   12.4830(7)
_cell_length_b                   21.2207(12)
_cell_length_c                   11.9177(7)
_cell_angle_alpha                90
_cell_angle_beta                 96.9940(10)
_cell_angle_gamma                90
_cell_volume                     3133.48
loop_
_atom_site_label
_atom_site_type_symbol
_atom_site_fract_x
_atom_site_fract_y
_atom_site_fract_z
Cu1 Cu 0.46064(8) 0.19776(5) 0.58134(10)
C1 C 0.6693(7) 0.2437(4) 0.6707(8)
H1 H 0.6434 0.2659 0.7290
C2 C 0.6824(8) 0.1896(5) 0.5307(8)
H2 H 0.6641 0.1646 0.4672
C3 C -0.1351(7) 0.2276(5) 0.2166(9)
H3 H -0.1593 0.1980 0.2701
H4 H -0.0955 0.2043 0.1651
C4 C -0.0670(13) 0.2715(8) 0.2745(14)
H5 H -0.1040 0.2902 0.3333
H6 H -0.0533 0.3049 0.2224
C5 C 0.0455(13) 0.2444(9) 0.3306(15)
H7 H 0.0600 0.2044 0.2963
H8 H 0.1030 0.2735 0.3185
C6 C 0.0419(10) 0.2369(9) 0.4386(13)
H9 H -0.0146 0.2069 0.4494
H10 H 0.0231 0.2768 0.4709
N1 N 0.1458(5) 0.2141(4) 0.5003(6)
N2 N 0.1459(5) 0.1762(6) 0.5874(7)
C7 C 0.2466(5) 0.1624(5) 0.6240(7)
H11 H 0.2698 0.1364 0.6849
N3 N 0.3086(4) 0.1917(3) 0.5596(5)
C8 C 0.2464(5) 0.2237(4) 0.4832(6)
H12 H 0.2695 0.2487 0.4267
N4 N 0.6092(5) 0.2096(3) 0.5957(6)
N5 N 0.7816(6) 0.2077(4) 0.5627(8)
N6 N -0.2290(5) 0.2576(4) 0.1526(6)
Cu1C Cu -0.53936(8) 0.30224(5) 0.08134(10)
Cu1C_2 Cu 1.46064(8) 0.30224(5) 1.08134(10)
C1C C -0.3307(7) 0.2563(4) 0.1707(8)
H1C H -0.3566 0.2341 0.2290
C2C C -0.3176(8) 0.3104(5) 0.0307(8)
H2C H -0.3359 0.3354 -0.0328
C3C C 0.8649(7) 0.2724(5) 0.7166(9)
H3C H 0.8407 0.3020 0.7701
H4C H 0.9045 0.2957 0.6651
C4C C 0.9330(13) 0.2285(8) 0.7745(14)
H5C H 0.8960 0.2098 0.8333
H6C H 0.9467 0.1951 0.7224
C5C C 1.0455(13) 0.2556(9) 0.8306(15)
H7C H 1.0600 0.2956 0.7963
H8C H 1.1030 0.2265 0.8185
C6C C 1.0419(10) 0.2631(9) 0.9386(13)
H9C H 0.9854 0.2931 0.9494
H10C H 1.0231 0.2232 0.9709
N1C N 1.1458(5) 0.2859(4) 1.0003(6)
N2C N 1.1459(5) 0.3238(6) 1.0874(7)
C7C C 1.2466(5) 0.3376(5) 1.1240(7)
H11C H 1.2698 0.3636 1.1849
N3C N 1.3086(4) 0.3083(3) 1.0596(5)
N3C_2 N -0.6914(4) 0.3083(3) 0.0596(5)
C8C C 1.2464(5) 0.2763(4) 0.9832(6)
H12C H 1.2695 0.2513 0.9267
N4C N -0.3908(5) 0.2904(3) 0.0957(6)
N5C N -0.2184(6) 0.2923(4) 0.0627(8)
N6C N 0.7710(5) 0.2424(4) 0.6526(6)
P1 P 0.5000 0.0000 1.0000
Mo1 Mo 0.51356(6) -0.15882(3) 1.09140(6)
Mo2 Mo 0.66122(5) 0.05968(3) 1.24356(6)
Mo3 Mo 0.43650(7) -0.03881(4) 1.27522(6)
Mo4 Mo 0.39359(6) 0.11665(3) 1.17078(6)
Mo5 Mo 0.26040(5) -0.08471(3) 1.03138(6)
Mo6 Mo 0.75431(5) -0.06920(3) 1.09031(6)
O1 O 0.5708(6) -0.0602(4) 1.0068(7)
O3 O 0.4427(6) -0.0507(4) 1.0653(7)
O5 O 0.5459(5) 0.1138(3) 1.2348(7)
O6 O 0.4926(5) -0.1137(3) 1.2317(5)
O7 O 0.3742(5) 0.0450(3) 1.2497(8)
O8 O 0.4020(6) -0.0559(3) 1.4005(5)
O9 O 0.3025(5) -0.0629(3) 1.1768(5)
O10 O 0.6626(6) -0.1306(3) 1.1317(5)
O11 O 0.1469(5) -0.1245(3) 1.0372(6)
O12 O 0.7228(6) -0.1012(4) 0.9363(5)
O13 O 0.8747(5) -0.1000(3) 1.1252(6)
O14 O 0.7385(6) 0.0841(3) 1.3574(5)
O15 O 0.7922(5) 0.0065(3) 1.0107(5)
O16 O 0.3682(5) -0.1512(3) 1.0494(5)
O17 O 0.5467(5) -0.1665(3) 0.9457(5)
O18 O 0.5246(5) -0.2321(2) 1.1395(5)
O19 O 0.5680(5) -0.0015(3) 1.3090(7)
O20 O 0.3458(4) 0.1725(3) 1.2462(5)
O21 O 0.7376(5) -0.0182(2) 1.2109(4)
O22 O 0.2770(5) -0.0974(3) 0.8705(4)
Cu2 Cu 1.0000 0.0000 1.0000
C9 C 0.9320(9) -0.0806(6) 0.8081(8)
H13 H 0.9413 -0.1168 0.8522
C10 C 0.9267(7) 0.0122(5) 0.7620(8)
H14 H 0.9308 0.0559 0.7626
C11 C 0.8610(8) -0.0004(6) 0.5568(7)
H15 H 0.7946 -0.0212 0.5265
H16 H 0.8476 0.0446 0.5566
C12 C 0.9484(7) -0.0147(7) 0.4814(7)
H17 H 0.9238 -0.0006 0.4052
H18 H 0.9585 -0.0600 0.4787
N7 N 0.9548(5) -0.0233(4) 0.8502(6)
N8 N 0.8959(8) -0.0823(5) 0.7010(7)
N9 N 0.8919(6) -0.0213(5) 0.6720(5)
Mo1B Mo 0.48644(6) 0.15882(3) 0.90860(6)
Mo2B Mo 0.33878(5) -0.05968(3) 0.75644(6)
Mo3B Mo 0.56350(7) 0.03881(4) 0.72478(6)
Mo4B Mo 0.60641(6) -0.11665(3) 0.82922(6)
Mo5B Mo 0.73960(5) 0.08471(3) 0.96862(6)
Mo6B Mo 0.24569(5) 0.06920(3) 0.90969(6)
O1B O 0.4292(6) 0.0602(4) 0.9932(7)
O3B O 0.5573(6) 0.0507(4) 0.9347(7)
O5B O 0.4541(5) -0.1138(3) 0.7652(7)
O6B O 0.5074(5) 0.1137(3) 0.7683(5)
O7B O 0.6258(5) -0.0450(3) 0.7503(8)
O8B O 0.5980(6) 0.0559(3) 0.5995(5)
O9B O 0.6975(5) 0.0629(3) 0.8232(5)
O10B O 0.3374(6) 0.1306(3) 0.8683(5)
O11B O 0.8531(5) 0.1245(3) 0.9628(6)
O12B O 0.2772(6) 0.1012(4) 1.0637(5)
O13B O 0.1253(5) 0.1000(3) 0.8748(6)
O14B O 0.2615(6) -0.0841(3) 0.6426(5)
O15B O 0.2078(5) -0.0065(3) 0.9893(5)
O15B_2 O 1.2078(5) -0.0065(3) 0.9893(5)
O16B O 0.6318(5) 0.1512(3) 0.9506(5)
O17B O 0.4533(5) 0.1665(3) 1.0543(5)
O18B O 0.4754(5) 0.2321(2) 0.8605(5)
O19B O 0.4320(5) 0.0015(3) 0.6910(7)
O20B O 0.6542(4) -0.1725(3) 0.7538(5)
O21B O 0.2624(5) 0.0182(2) 0.7891(4)
O22B O 0.7230(5) 0.0974(3) 1.1295(4)
Cu2_2 Cu 1.0000 0.0000 0.0000
Cu2_3 Cu 0.0000 0.0000 1.0000
Cu2_4 Cu 1.0000 0.0000 2.0000
C9B C 1.0680(9) 0.0806(6) 0.1919(8)
C9B_2 C 1.0680(9) 0.0806(6) 1.1919(8)
C9_2 C 0.9320(9) -0.0806(6) 1.8081(8)
H13B H 1.0587 0.1168 0.1478
H13B_2 H 1.0587 0.1168 1.1478
H13_2 H 0.9413 -0.1168 1.8522
C10B C 1.0733(7) -0.0122(5) 0.2380(8)
C10B_2 C 1.0733(7) -0.0122(5) 1.2380(8)
C10_2 C 0.9267(7) 0.0122(5) 1.7620(8)
H14B H 1.0692 -0.0559 0.2374
H14B_2 H 1.0692 -0.0559 1.2374
H14_2 H 0.9308 0.0559 1.7626
C11B C 1.1390(8) 0.0004(6) 0.4432(7)
C11B_2 C 1.1390(8) 0.0004(6) 1.4432(7)
C11_2 C 0.8610(8) -0.0004(6) 1.5568(7)
H15B H 1.2054 0.0212 0.4735
H15B_2 H 1.2054 0.0212 1.4735
H15_2 H 0.7946 -0.0212 1.5265
H16B H 1.1524 -0.0446 0.4434
H16B_2 H 1.1524 -0.0446 1.4434
H16_2 H 0.8476 0.0446 1.5566
C12B C 1.0516(7) 0.0147(7) 0.5186(7)
C12B_2 C 1.0516(7) 0.0147(7) 1.5186(7)
C12_2 C 0.9484(7) -0.0147(7) 1.4814(7)
H17B H 1.0762 0.0006 0.5948
H17B_2 H 1.0762 0.0006 1.5948
H17_2 H 0.9238 -0.0006 1.4052
H18B H 1.0415 0.0600 0.5213
H18B_2 H 1.0415 0.0600 1.5213
H18_2 H 0.9585 -0.0600 1.4787
N7B N 1.0452(5) 0.0233(4) 1.1498(6)
N7B_2 N 1.0452(5) 0.0233(4) 0.1498(6)
N7_2 N 0.9548(5) -0.0233(4) 1.8502(6)
N7B_3 N 1.0452(5) 0.0233(4) 2.1498(6)
N8B N 1.1041(8) 0.0823(5) 0.2990(7)
N8B_2 N 1.1041(8) 0.0823(5) 1.2990(7)
N8_2 N 0.8959(8) -0.0823(5) 1.7010(7)
N9B N 1.1081(6) 0.0213(5) 0.3280(5)
N9B_2 N 1.1081(6) 0.0213(5) 1.3280(5)
N9_2 N 0.8919(6) -0.0213(5) 1.6720(5)
O2? O 0.3904(6) -0.0130(4) 0.9500(7)
O4? O 0.4971(7) -0.0241(4) 0.8749(7)
loop_
_geom_bond_atom_site_label_1
_geom_bond_atom_site_label_2
_geom_bond_site_symmetry_1
_geom_bond_site_symmetry_2
P1 O1 1_555 1_555
Mo1 O1 1_555 1_555
Mo2 O5 1_555 1_555
Mo3 O6 1_555 1_555
Mo4 O5 1_555 1_555
Mo5 O3 1_555 1_555
Mo6 O1 1_555 1_555
O3 P1 1_555 1_555
O6 Mo1 1_555 1_555
O7 Mo3 1_555 1_555
O8 Mo3 1_555 1_555
O9 Mo3 1_555 1_555
O10 Mo1 1_555 1_555
O11 Mo5 1_555 1_555
O12 Mo6 1_555 1_555
O13 Mo6 1_555 1_555
O14 Mo2 1_555 1_555
O15 Mo6 1_555 1_555
O16 Mo1 1_555 1_555
O17 Mo1 1_555 1_555
O18 Mo1 1_555 1_555
O19 Mo2 1_555 1_555
O20 Mo4 1_555 1_555
O21 Mo2 1_555 1_555
O22 Mo5 1_555 1_555
Cu1 N3 1_555 1_555
Cu2 O15 1_555 1_555
C1 H1 1_555 1_555
C2 H2 1_555 1_555
C3 H3 1_555 1_555
H4 C3 1_555 1_555
C4 C3 1_555 1_555
H5 C4 1_555 1_555
H6 C4 1_555 1_555
C5 C4 1_555 1_555
H7 C5 1_555 1_555
H8 C5 1_555 1_555
C6 C5 1_555 1_555
H9 C6 1_555 1_555
H10 C6 1_555 1_555
N1 C6 1_555 1_555
N2 N1 1_555 1_555
C7 N2 1_555 1_555
H11 C7 1_555 1_555
N3 C7 1_555 1_555
C8 N1 1_555 1_555
H12 C8 1_555 1_555
C9 H13 1_555 1_555
C10 H14 1_555 1_555
C11 H15 1_555 1_555
H16 C11 1_555 1_555
C12 C11 1_555 1_555
H17 C12 1_555 1_555
H18 C12 1_555 1_555
N4 Cu1 1_555 1_555
N5 C2 1_555 1_555
N6 C3 1_555 1_555
N7 Cu2 1_555 1_555
N8 C9 1_555 1_555
N9 C10 1_555 1_555
Mo1B O1B 1_555 1_555
Mo2B O22 1_555 1_555
Mo3B O6B 1_555 1_555
Mo4B O12 1_555 1_555
Mo5B O15 1_555 1_555
Mo6B O1B 1_555 1_555
O1B P1 1_555 1_555
O3B P1 1_555 1_555
O5B Mo2B 1_555 1_555
O6B Mo1B 1_555 1_555
O7B Mo3B 1_555 1_555
O8B Mo3B 1_555 1_555
O9B Mo3B 1_555 1_555
O10B Mo1B 1_555 1_555
O11B Mo5B 1_555 1_555
O12B Mo4 1_555 1_555
O13B Mo6B 1_555 1_555
O14B Mo2B 1_555 1_555
O15B Mo5 1_555 1_555
O15B_2 Cu2 1_555 1_555
O16B Mo1B 1_555 1_555
O17B Mo4 1_555 1_555
O18B Mo1B 1_555 1_555
O19B Mo2B 1_555 1_555
O20B Mo4B 1_555 1_555
O21B Mo2B 1_555 1_555
O22B Mo2 1_555 1_555
Cu1C N3C_2 1_555 1_555
Cu1C_2 N3C 1_555 1_555
Cu2_2 N7B_2 1_555 1_555
Cu2_3 O15B 1_555 1_555
Cu2_4 N7_2 1_555 1_555
C1C N6 1_555 1_555
H1C C1C 1_555 1_555
C2C H2C 1_555 1_555
C3C H3C 1_555 1_555
H4C C3C 1_555 1_555
C4C C3C 1_555 1_555
H5C C4C 1_555 1_555
H6C C4C 1_555 1_555
C5C C4C 1_555 1_555
H7C C5C 1_555 1_555
H8C C5C 1_555 1_555
C6C C5C 1_555 1_555
H9C C6C 1_555 1_555
H10C C6C 1_555 1_555
N1C C6C 1_555 1_555
N2C N1C 1_555 1_555
C7C N2C 1_555 1_555
H11C C7C 1_555 1_555
N3C C7C 1_555 1_555
C8C N1C 1_555 1_555
H12C C8C 1_555 1_555
C9B H13B 1_555 1_555
C9B_2 H13B_2 1_555 1_555
C9_2 H13_2 1_555 1_555
C10B H14B 1_555 1_555
C10B_2 H14B_2 1_555 1_555
C10_2 H14_2 1_555 1_555
C11B H15B 1_555 1_555
C11B_2 H15B_2 1_555 1_555
C11_2 H15_2 1_555 1_555
H16B C11B 1_555 1_555
H16B_2 C11B_2 1_555 1_555
H16_2 C11_2 1_555 1_555
C12B C12 1_555 1_555
C12B_2 C11B_2 1_555 1_555
C12_2 C11_2 1_555 1_555
H17B C12B 1_555 1_555
H17B_2 C12B_2 1_555 1_555
H17_2 C12_2 1_555 1_555
H18B C12B 1_555 1_555
H18B_2 C12B_2 1_555 1_555
H18_2 C12_2 1_555 1_555
N4C Cu1C 1_555 1_555
N5C N6 1_555 1_555
N6C C1 1_555 1_555
N7B Cu2 1_555 1_555
N7B_2 C9B 1_555 1_555
N7_2 C9_2 1_555 1_555
N7B_3 Cu2_4 1_555 1_555
N8B C9B 1_555 1_555
N8B_2 C9B_2 1_555 1_555
N8_2 C9_2 1_555 1_555
N9B C10B 1_555 1_555
N9B_2 C10B_2 1_555 1_555
N9_2 C10_2 1_555 1_555
Mo1 O3 1_555 1_555
Mo3 O19 1_555 1_555
Mo4 O7 1_555 1_555
Mo5 O9 1_555 1_555
Mo5 O16 1_555 1_555
Mo6 O10 1_555 1_555
Mo6 O21 1_555 1_555
O17 Mo4B 1_555 1_555
C1 N4 1_555 1_555
C2 N4 1_555 1_555
N3 C8 1_555 1_555
C9 N7 1_555 1_555
C10 N7 1_555 1_555
C11 N9 1_555 1_555
N5 N6C 1_555 1_555
N8 N9 1_555 1_555
Mo1B O3B 1_555 1_555
Mo1B O17B 1_555 1_555
Mo3B O19B 1_555 1_555
Mo4B O5B 1_555 1_555
Mo4B O7B 1_555 1_555
Mo5B O3B 1_555 1_555
Mo5B O9B 1_555 1_555
Mo5B O16B 1_555 1_555
Mo5B O22B 1_555 1_555
Mo6B O10B 1_555 1_555
Mo6B O12B 1_555 1_555
Mo6B O15B 1_555 1_555
Mo6B O21B 1_555 1_555
C1C N4C 1_555 1_555
C2C N4C 1_555 1_555
C2C N5C 1_555 1_555
C3C N6C 1_555 1_555
N3C C8C 1_555 1_555
C9B_2 N7B 1_555 1_555
C10B N7B_2 1_555 1_555
C10B_2 N7B 1_555 1_555
C10_2 N7_2 1_555 1_555
C11B C12B 1_555 1_555
C11B N9B 1_555 1_555
C11B_2 N9B_2 1_555 1_555
C11_2 N9_2 1_555 1_555
C12B_2 C12_2 1_555 1_555
N8B N9B 1_555 1_555
N8B_2 N9B_2 1_555 1_555
N8_2 N9_2 1_555 1_555

#END
