
#######################################################################
#
#                 Cambridge Crystallographic Data Centre
#                                CCDC 
#
#######################################################################
#
# If this CIF has been generated from an entry in the Cambridge 
# Structural Database, then it will include bibliographic, chemical, 
# crystal, experimental, refinement or atomic coordinate data resulting 
# from the CCDC's data processing and validation procedures.
#
#######################################################################

data_COMJAR
_symmetry_cell_setting           monoclinic
_symmetry_space_group_name_H-M   'P 21/c'
_symmetry_Int_Tables_number      14
_space_group_name_Hall           '-P 2ybc'
loop_
_symmetry_equiv_pos_site_id
_symmetry_equiv_pos_as_xyz
1 x,y,z
2 -x,1/2+y,1/2-z
3 -x,-y,-z
4 x,1/2-y,1/2+z
_cell_length_a                   26.378(4)
_cell_length_b                   8.3415(7)
_cell_length_c                   9.9395(11)
_cell_angle_alpha                90
_cell_angle_beta                 97.298(11)
_cell_angle_gamma                90
_cell_volume                     2169.29
loop_
_atom_site_label
_atom_site_type_symbol
_atom_site_fract_x
_atom_site_fract_y
_atom_site_fract_z
Ca1 Ca -0.0055(6) 0.0718(16) 0.8139(11)
B1 B 0.0635(3) 0.2563(11) 0.6695(9)
O1 O 0.0382(10) 0.1052(19) 0.609(2)
O2 O 0.0410(10) 0.297(3) 0.7986(16)
O3 O 0.0477(11) 0.382(2) 0.562(2)
C1 C 0.1250(4) 0.229(5) 0.6943(13)
C2 C 0.1563(4) 0.210(5) 0.5740(12)
C3 C 0.2132(4) 0.178(5) 0.6214(12)
C4 C 0.2426(3) 0.153(4) 0.4979(13)
C5 C 0.3003(3) 0.168(4) 0.5477(13)
C6 C 0.3303(4) 0.145(4) 0.4253(12)
C7 C 0.3874(3) 0.128(4) 0.4758(15)
C8 C 0.4181(8) 0.168(4) 0.359(2)
B2 B -0.0915(3) 0.2367(10) 1.0513(8)
O4 O -0.0552(7) 0.261(3) 0.9471(18)
O5 O -0.0721(10) 0.104(2) 1.148(2)
O6 O -0.0822(9) 0.3904(19) 1.131(2)
C9 C -0.1453(4) 0.199(5) 0.9587(13)
C10 C -0.1833(4) 0.200(5) 1.0639(13)
C11 C -0.2384(3) 0.173(4) 0.9948(15)
C12 C -0.2790(4) 0.197(4) 1.0921(16)
C13 C -0.3313(5) 0.152(4) 1.0134(13)
C14 C -0.3698(4) 0.092(4) 1.106(2)
C15 C -0.4232(5) 0.157(4) 1.053(2)
C16 C -0.4609(9) 0.126(5) 1.157(3)
Ca1A Ca 0.0055(6) 0.5718(16) 0.6861(11)
Ca1B Ca 0.0055(6) -0.0718(16) 1.1861(11)
Ca1C Ca -0.0055(6) 0.4282(16) 0.3139(11)
Ca1C_2 Ca -0.0055(6) 0.4282(16) 1.3139(11)
O2A O -0.0410(10) -0.203(3) 0.7014(16)
O3A O -0.0477(11) -0.118(2) 0.938(2)
O3C O 0.0477(11) 0.118(2) 1.062(2)
O5B O 0.0721(10) -0.104(2) 0.852(2)
O6C O -0.0822(9) 0.1096(19) 0.631(2)
loop_
_geom_bond_atom_site_label_1
_geom_bond_atom_site_label_2
_geom_bond_site_symmetry_1
_geom_bond_site_symmetry_2
Ca1 O1 1_555 1_555
B1 O1 1_555 1_555
O2 Ca1 1_555 1_555
O3 B1 1_555 1_555
C1 B1 1_555 1_555
C2 C1 1_555 1_555
C3 C2 1_555 1_555
C4 C3 1_555 1_555
C5 C4 1_555 1_555
C6 C5 1_555 1_555
C7 C6 1_555 1_555
C8 C7 1_555 1_555
B2 O4 1_555 1_555
O4 Ca1 1_555 1_555
O5 B2 1_555 1_555
O6 B2 1_555 1_555
C9 B2 1_555 1_555
C10 C9 1_555 1_555
C11 C10 1_555 1_555
C12 C11 1_555 1_555
C13 C12 1_555 1_555
C14 C13 1_555 1_555
C15 C14 1_555 1_555
C16 C15 1_555 1_555
Ca1A O2 1_555 1_555
Ca1B O5 1_555 1_555
Ca1C O3 1_555 1_555
Ca1C_2 O6 1_555 1_555
O2A Ca1 1_555 1_555
O3A Ca1 1_555 1_555
O3C Ca1 1_555 1_555
O5B Ca1 1_555 1_555
O6C Ca1 1_555 1_555
B1 O2 1_555 1_555
O3 Ca1A 1_555 1_555
Ca1B O3A 1_555 1_555
Ca1B O3C 1_555 1_555

#END
