
#######################################################################
#
#                 Cambridge Crystallographic Data Centre
#                                CCDC 
#
#######################################################################
#
# If this CIF has been generated from an entry in the Cambridge 
# Structural Database, then it will include bibliographic, chemical, 
# crystal, experimental, refinement or atomic coordinate data resulting 
# from the CCDC's data processing and validation procedures.
#
#######################################################################

data_COMPIE
_symmetry_cell_setting           monoclinic
_symmetry_space_group_name_H-M   'I 2/a'
_symmetry_Int_Tables_number      15
_space_group_name_Hall           '-I 2ya'
loop_
_symmetry_equiv_pos_site_id
_symmetry_equiv_pos_as_xyz
1 x,y,z
2 1/2+x,1/2+y,1/2+z
3 1/2-x,y,-z
4 -x,1/2+y,1/2-z
5 -x,-y,-z
6 1/2-x,1/2-y,1/2-z
7 1/2+x,-y,z
8 x,1/2-y,1/2+z
_cell_length_a                   27.4022(13)
_cell_length_b                   16.1293(9)
_cell_length_c                   29.8638(14)
_cell_angle_alpha                90
_cell_angle_beta                 106.916(5)
_cell_angle_gamma                90
_cell_volume                     12628.1
loop_
_atom_site_label
_atom_site_type_symbol
_atom_site_fract_x
_atom_site_fract_y
_atom_site_fract_z
Mn1 Mn 0.05441(4) 1.30158(6) 0.16681(4)
Mn2 Mn 0.00143(4) 1.11664(6) 0.16584(4)
Mn3 Mn 0.11954(4) 1.13082(6) 0.16623(4)
C1 C 0.1168(2) 1.2602(4) 0.0970(2)
C2 C 0.1303(3) 1.2865(4) 0.0543(2)
C3 C 0.1562(3) 1.2319(4) 0.0331(2)
H1 H 0.1649 1.1792 0.0455
C4 C 0.1689(3) 1.2561(5) -0.0062(3)
H2 H 0.1860 1.2196 -0.0206
C5 C 0.1566(3) 1.3325(5) -0.0239(3)
H3 H 0.1651 1.3489 -0.0505
C6 C 0.1313(4) 1.3869(5) -0.0025(3)
H4 H 0.1234 1.4401 -0.0144
C7 C 0.1181(3) 1.3623(5) 0.0358(3)
H5 H 0.1002 1.3985 0.0495
C8 C 0.0369(3) 1.0147(4) 0.1012(2)
C9 C 0.0259(3) 0.9533(4) 0.0636(2)
C10 C 0.0633(3) 0.9085(4) 0.0519(3)
H6 H 0.0969 0.9157 0.0701
C11 C 0.0541(3) 0.8541(5) 0.0150(3)
H7 H 0.0805 0.8259 0.0079
C12 C 0.0042(3) 0.8431(4) -0.0108(3)
H8 H -0.0035 0.8065 -0.0360
C13 C -0.0350(3) 0.8854(4) -0.0001(3)
H9 H -0.0686 0.8766 -0.0179
C14 C -0.0247(3) 0.9401(4) 0.0365(3)
H10 H -0.0512 0.9686 0.0433
C15 C -0.0453(3) 1.2647(4) 0.0999(2)
C16 C -0.0895(3) 1.2956(4) 0.0622(3)
C17 C -0.1384(4) 1.2655(5) 0.0578(4)
H11 H -0.1431 1.2251 0.0784
C18 C -0.1797(5) 1.2951(7) 0.0231(4)
H12 H -0.2123 1.2771 0.0217
C19 C -0.1734(4) 1.3492(6) -0.0083(4)
H13 H -0.2016 1.3671 -0.0322
C20 C -0.1262(4) 1.3784(5) -0.0060(3)
H14 H -0.1222 1.4160 -0.0282
C21 C -0.0839(3) 1.3523(4) 0.0295(3)
H15 H -0.0518 1.3730 0.0312
C22 C 0.0030(3) 1.2395(5) 0.2362(3)
C23 C 0.0128(2) 1.2534(4) 0.2876(2)
C24 C 0.0268(3) 1.1863(4) 0.3189(3)
H16 H 0.0264 1.1324 0.3077
C25 C 0.0411(3) 1.2014(5) 0.3662(3)
H17 H 0.0514 1.1573 0.3868
C26 C 0.0406(3) 1.2794(4) 0.3838(3)
H18 H 0.0505 1.2883 0.4160
C27 C 0.0251(3) 1.3446(4) 0.3533(3)
H19 H 0.0236 1.3977 0.3650
C28 C 0.0118(2) 1.3321(4) 0.3055(3)
H20 H 0.0020 1.3769 0.2852
C29 C 0.1474(3) 1.2632(4) 0.2388(3)
C30 C 0.1743(3) 1.2580(4) 0.2901(3)
C31 C 0.2243(3) 1.2256(4) 0.3054(3)
H21 H 0.2408 1.2093 0.2837
C32 C 0.2488(3) 1.2182(4) 0.3529(3)
H22 H 0.2821 1.1986 0.3635
C33 C 0.2223(3) 1.2407(4) 0.3846(3)
H23 H 0.2378 1.2339 0.4165
C34 C 0.1737(3) 1.2730(4) 0.3693(3)
H24 H 0.1571 1.2892 0.3909
C35 C 0.1499(3) 1.2811(4) 0.3230(2)
H25 H 0.1170 1.3023 0.3131
C36 C 0.0898(3) 1.0363(4) 0.2376(3)
C37 C 0.1048(3) 1.0120(4) 0.2882(3)
C38 C 0.1520(3) 1.0360(4) 0.3189(3)
H26 H 0.1754 1.0645 0.3076
C39 C 0.1636(3) 1.0176(5) 0.3658(3)
H27 H 0.1953 1.0321 0.3859
C40 C 0.1278(3) 0.9768(4) 0.3836(3)
H28 H 0.1352 0.9654 0.4154
C41 C 0.0816(3) 0.9543(4) 0.3529(3)
H29 H 0.0581 0.9261 0.3642
C42 C 0.0697(3) 0.9722(4) 0.3063(3)
H30 H 0.0379 0.9577 0.2866
C43 C 0.0843(4) 1.4718(5) 0.1621(3)
C44 C 0.0629(4) 1.5345(5) 0.1253(4)
C45 C 0.0856(4) 1.6146(6) 0.1310(4)
H31 H 0.1130 1.6270 0.1569
C46 C 0.0654(5) 1.6753(7) 0.0958(5)
H32 H 0.0782 1.7291 0.0984
C47 C 0.0250(5) 1.6501(8) 0.0569(5)
H33 H 0.0106 1.6889 0.0338
C48 C 0.0067(5) 1.5727(8) 0.0519(4)
H34 H -0.0180 1.5585 0.0243
C49 C 0.0235(4) 1.5113(6) 0.0871(4)
H35 H 0.0089 1.4588 0.0844
C50 C -0.2542(3) 0.9688(4) 0.1266(3)
H36 H -0.2489 0.9842 0.0983
C51 C -0.3013(3) 0.9444(4) 0.1272(3)
H37 H -0.3276 0.9426 0.0993
C52 C -0.2729(3) 0.9279(4) 0.2075(3)
H38 H -0.2795 0.9153 0.2356
C53 C -0.2250(3) 0.9514(4) 0.2081(3)
H39 H -0.1994 0.9541 0.2365
C54 C -0.2141(3) 0.9713(4) 0.1669(3)
C55 C -0.1609(3) 0.9977(4) 0.1666(3)
C56 C -0.1202(3) 0.9977(4) 0.2075(3)
H40 H -0.1247 0.9786 0.2354
C57 C -0.0725(3) 1.0266(4) 0.2060(3)
H41 H -0.0456 1.0282 0.2334
C58 C -0.1033(3) 1.0462(4) 0.1270(3)
H42 H -0.0976 1.0623 0.0991
C59 C -0.1505(3) 1.0185(4) 0.1250(3)
H43 H -0.1756 1.0133 0.0965
N1 N -0.3109(2) 0.9225(3) 0.1676(2)
N2 N -0.0649(2) 1.0523(3) 0.1657(2)
O1 O 0.05749(16) 1.1817(2) 0.16440(15)
O2 O 0.10055(17) 1.3138(2) 0.11942(16)
O3 O 0.12340(16) 1.1844(3) 0.10849(15)
O4 O 0.08402(18) 1.0275(2) 0.12304(16)
O5 O 0.00078(17) 1.0508(2) 0.11131(15)
O6 O -0.00473(17) 1.3059(3) 0.10840(15)
O7 O -0.05186(16) 1.2006(3) 0.12105(17)
O8 O 0.00214(16) 1.2996(3) 0.20985(16)
O9 O -0.00229(17) 1.1636(3) 0.22329(16)
O10 O 0.10579(19) 1.3038(3) 0.22709(16)
O11 O 0.16567(16) 1.2264(2) 0.20971(15)
O12 O 0.04654(17) 1.0220(2) 0.21191(16)
O13 O 0.12561(16) 1.0739(2) 0.22410(15)
O14 O 0.05083(19) 1.4204(3) 0.16537(18)
O15 O 0.1304(2) 1.4738(3) 0.1873(2)
Mn3F Mn -0.38046(4) 0.86918(6) 0.16623(4)
N1F N 0.1891(2) 1.0775(3) 0.1676(2)
O16 O 0.2163(4) 0.5549(7) 0.1896(4)
O18 O 0.2516(6) 0.8217(8) 0.0856(5)
O19 O 0.8594(6) 0.2571(9) 0.1937(6)
O21 O 0.1659(10) 0.5095(15) 0.4989(9)
O17? O 0.1950(8) 0.8168(11) 0.0901(8)
O20? O 0.8168(7) 0.2116(10) 0.1734(6)
O22? O 0.2121(9) 0.4574(14) 0.4978(8)
loop_
_geom_bond_atom_site_label_1
_geom_bond_atom_site_label_2
_geom_bond_site_symmetry_1
_geom_bond_site_symmetry_2
Mn1 O1 1_555 1_555
Mn2 N2 1_555 1_555
Mn3 O1 1_555 1_555
C1 C2 1_555 1_555
C2 C3 1_555 1_555
C3 H1 1_555 1_555
C4 C3 1_555 1_555
H2 C4 1_555 1_555
C5 C4 1_555 1_555
H3 C5 1_555 1_555
C6 C5 1_555 1_555
H4 C6 1_555 1_555
C7 C2 1_555 1_555
H5 C7 1_555 1_555
C8 C9 1_555 1_555
C9 C10 1_555 1_555
C10 H6 1_555 1_555
C11 C10 1_555 1_555
H7 C11 1_555 1_555
C12 C11 1_555 1_555
H8 C12 1_555 1_555
C13 C12 1_555 1_555
H9 C13 1_555 1_555
C14 C9 1_555 1_555
H10 C14 1_555 1_555
C15 C16 1_555 1_555
C16 C17 1_555 1_555
C17 H11 1_555 1_555
C18 C17 1_555 1_555
H12 C18 1_555 1_555
C19 C18 1_555 1_555
H13 C19 1_555 1_555
C20 C19 1_555 1_555
H14 C20 1_555 1_555
C21 C16 1_555 1_555
H15 C21 1_555 1_555
C22 C23 1_555 1_555
C23 C24 1_555 1_555
C24 H16 1_555 1_555
C25 C24 1_555 1_555
H17 C25 1_555 1_555
C26 C25 1_555 1_555
H18 C26 1_555 1_555
C27 C26 1_555 1_555
H19 C27 1_555 1_555
C28 C23 1_555 1_555
H20 C28 1_555 1_555
C29 C30 1_555 1_555
C30 C31 1_555 1_555
C31 H21 1_555 1_555
C32 C31 1_555 1_555
H22 C32 1_555 1_555
C33 C32 1_555 1_555
H23 C33 1_555 1_555
C34 C33 1_555 1_555
H24 C34 1_555 1_555
C35 C30 1_555 1_555
H25 C35 1_555 1_555
C36 C37 1_555 1_555
C37 C38 1_555 1_555
C38 H26 1_555 1_555
C39 C38 1_555 1_555
H27 C39 1_555 1_555
C40 C39 1_555 1_555
H28 C40 1_555 1_555
C41 C40 1_555 1_555
H29 C41 1_555 1_555
C42 C37 1_555 1_555
H30 C42 1_555 1_555
C43 C44 1_555 1_555
C44 C45 1_555 1_555
C45 H31 1_555 1_555
C46 C45 1_555 1_555
H32 C46 1_555 1_555
C47 C46 1_555 1_555
H33 C47 1_555 1_555
C48 C47 1_555 1_555
H34 C48 1_555 1_555
C49 C44 1_555 1_555
H35 C49 1_555 1_555
C50 H36 1_555 1_555
C51 C50 1_555 1_555
H37 C51 1_555 1_555
C52 H38 1_555 1_555
C53 C52 1_555 1_555
H39 C53 1_555 1_555
C54 C50 1_555 1_555
C55 C54 1_555 1_555
C56 C55 1_555 1_555
H40 C56 1_555 1_555
C57 C56 1_555 1_555
H41 C57 1_555 1_555
C58 H42 1_555 1_555
C59 C55 1_555 1_555
H43 C59 1_555 1_555
N1 C51 1_555 1_555
N2 C57 1_555 1_555
O1 Mn2 1_555 1_555
O2 Mn1 1_555 1_555
O3 Mn3 1_555 1_555
O4 Mn3 1_555 1_555
O5 Mn2 1_555 1_555
O6 Mn1 1_555 1_555
O7 Mn2 1_555 1_555
O8 Mn1 1_555 1_555
O9 Mn2 1_555 1_555
O10 Mn1 1_555 1_555
O11 Mn3 1_555 1_555
O12 Mn2 1_555 1_555
O13 Mn3 1_555 1_555
O14 Mn1 1_555 1_555
O15 C43 1_555 1_555
Mn3F N1 1_555 1_555
N1F Mn3 1_555 1_555
C1 O2 1_555 1_555
C1 O3 1_555 1_555
C6 C7 1_555 1_555
C8 O4 1_555 1_555
C8 O5 1_555 1_555
C13 C14 1_555 1_555
C15 O6 1_555 1_555
C15 O7 1_555 1_555
C20 C21 1_555 1_555
C22 O8 1_555 1_555
C22 O9 1_555 1_555
C27 C28 1_555 1_555
C29 O10 1_555 1_555
C29 O11 1_555 1_555
C34 C35 1_555 1_555
C36 O12 1_555 1_555
C36 O13 1_555 1_555
C41 C42 1_555 1_555
C43 O14 1_555 1_555
C48 C49 1_555 1_555
C52 N1 1_555 1_555
C53 C54 1_555 1_555
C58 C59 1_555 1_555
C58 N2 1_555 1_555

#END
