
#######################################################################
#
#                 Cambridge Crystallographic Data Centre
#                                CCDC 
#
#######################################################################
#
# If this CIF has been generated from an entry in the Cambridge 
# Structural Database, then it will include bibliographic, chemical, 
# crystal, experimental, refinement or atomic coordinate data resulting 
# from the CCDC's data processing and validation procedures.
#
#######################################################################

data_COMZOV
_symmetry_cell_setting           triclinic
_symmetry_space_group_name_H-M   'P -1'
_symmetry_Int_Tables_number      2
_space_group_name_Hall           '-P 1'
loop_
_symmetry_equiv_pos_site_id
_symmetry_equiv_pos_as_xyz
1 x,y,z
2 -x,-y,-z
_cell_length_a                   8.7368(4)
_cell_length_b                   8.8705(4)
_cell_length_c                   11.4723(5)
_cell_angle_alpha                112.545(2)
_cell_angle_beta                 101.3860(10)
_cell_angle_gamma                103.370(2)
_cell_volume                     757.327
loop_
_atom_site_label
_atom_site_type_symbol
_atom_site_fract_x
_atom_site_fract_y
_atom_site_fract_z
Na1 Na 0.8649(4) 0.2941(3) 0.0384(3)
Co1 Co 0.82161(8) 0.81199(8) 0.56824(6)
Co2 Co 0.5000 0.0000 0.0000
N1 N 0.7610(5) 0.5495(5) 0.5063(4)
C1 C 0.8068(5) 0.4556(6) 0.4046(5)
C2 C 0.7729(5) 0.2794(6) 0.3647(4)
C3 C 0.6880(5) 0.2034(6) 0.4309(5)
H1 H 0.6668 0.0861 0.4072
C4 C 0.6351(5) 0.3024(6) 0.5323(4)
C5 C 0.6789(5) 0.4785(5) 0.5689(4)
C6 C 0.8979(5) 0.5627(6) 0.3494(5)
O1 O 0.9145(4) 0.7253(4) 0.4044(3)
O2 O 0.9523(5) 0.4946(5) 0.2584(4)
C7 C 0.8269(5) 0.1666(5) 0.2542(4)
O3 O 0.9541(4) 0.1314(5) 0.2864(3)
O4 O 0.7398(4) 0.1082(4) 0.1356(3)
C8 C 0.5356(6) 0.2161(5) 0.5987(4)
O5 O 0.6123(4) 0.1763(4) 0.6787(4)
O6 O 0.3819(4) 0.1892(4) 0.5673(4)
C9 C 0.6485(6) 0.6113(6) 0.6857(5)
O7 O 0.5855(5) 0.5606(5) 0.7576(4)
O8 O 0.6902(4) 0.7648(4) 0.6983(3)
O9 O 0.8807(4) 1.0761(4) 0.6633(4)
H2 H 0.803(4) 1.114(6) 0.670(6)
H3 H 0.946(5) 1.132(6) 0.639(6)
O10 O 0.5034(5) -0.2440(5) -0.0417(4)
H4 H 0.531(7) -0.304(7) -0.104(4)
H5 H 0.543(7) -0.255(7) 0.025(3)
O11 O 0.3794(5) -0.0327(4) 0.1397(3)
H6 H 0.411(7) -0.078(6) 0.189(4)
H7 H 0.359(7) 0.053(5) 0.188(4)
O12 O 1.0403(8) 0.1511(10) -0.0421(7)
H8 H 1.046(13) 0.094(11) -0.116(4)
H9 H 1.073(14) 0.113(12) 0.010(7)
O13 O 0.7986(10) 0.4702(7) -0.0484(6)
H10 H 0.758(12) 0.452(11) -0.126(3)
H11 H 0.808(13) 0.569(6) 0.004(6)
Na1A Na 0.1351(4) -0.2941(3) -0.0384(3)
Co1A Co 0.17839(8) -0.81199(8) -0.56824(6)
N1A N 0.2390(5) -0.5495(5) -0.5063(4)
C1A C 0.1932(5) -0.4556(6) -0.4046(5)
C2A C 0.2271(5) -0.2794(6) -0.3647(4)
C3A C 0.3120(5) -0.2034(6) -0.4309(5)
H1A H 0.3332 -0.0861 -0.4072
C4A C 0.3649(5) -0.3024(6) -0.5323(4)
C5A C 0.3211(5) -0.4785(5) -0.5689(4)
C6A C 0.1021(5) -0.5627(6) -0.3494(5)
O1A O 0.0855(4) -0.7253(4) -0.4044(3)
O2A O 0.0477(5) -0.4946(5) -0.2584(4)
C7A C 0.1731(5) -0.1666(5) -0.2542(4)
O3A O 0.0459(4) -0.1314(5) -0.2864(3)
O4A O 0.2602(4) -0.1082(4) -0.1356(3)
C8A C 0.4644(6) -0.2161(5) -0.5987(4)
O5A O 0.3877(4) -0.1763(4) -0.6787(4)
O6A O 0.6181(4) -0.1892(4) -0.5673(4)
C9A C 0.3515(6) -0.6113(6) -0.6857(5)
O7A O 0.4145(5) -0.5606(5) -0.7576(4)
O8A O 0.3098(4) -0.7648(4) -0.6983(3)
O9A O 0.1193(4) -1.0761(4) -0.6633(4)
H2A H 0.197(4) -1.114(6) -0.670(6)
H3A H 0.054(5) -1.132(6) -0.639(6)
O10A O 0.4966(5) 0.2440(5) 0.0417(4)
H4A H 0.469(7) 0.304(7) 0.104(4)
H5A H 0.457(7) 0.255(7) -0.025(3)
O11A O 0.6206(5) 0.0327(4) -0.1397(3)
H6A H 0.589(7) 0.078(6) -0.189(4)
H7A H 0.641(7) -0.053(5) -0.188(4)
O12A O -0.0403(8) -0.1511(10) 0.0421(7)
H8A H -0.046(13) -0.094(11) 0.116(4)
H9A H -0.073(14) -0.113(12) -0.010(7)
O13A O 0.2014(10) -0.4702(7) 0.0484(6)
H10A H 0.242(12) -0.452(11) 0.126(3)
H11A H 0.192(13) -0.569(6) -0.004(6)
Co1_2 Co -0.17839(8) -0.18801(8) -0.43176(6)
Co1_3 Co 0.82161(8) -0.18801(8) -0.43176(6)
Co1A_2 Co 0.17839(8) 0.18801(8) 0.43176(6)
Co1A_3 Co 1.17839(8) 0.18801(8) 0.43176(6)
O3_2 O -0.0459(4) -0.8686(5) -0.7136(3)
O3A_2 O 1.0459(4) 0.8686(5) 0.7136(3)
O6_2 O 0.3819(4) -0.8108(4) -0.4327(4)
O6A_2 O 0.6181(4) 0.8108(4) 0.4327(4)
O14 O 0.6542(8) -0.2959(11) -0.8376(6)
H12 H 0.661(10) -0.256(12) -0.758(3)
H13 H 0.747(5) -0.285(13) -0.845(8)
loop_
_geom_bond_atom_site_label_1
_geom_bond_atom_site_label_2
_geom_bond_site_symmetry_1
_geom_bond_site_symmetry_2
Na1 O2 1_555 1_555
Co1 N1 1_555 1_555
Co2 O4 1_555 1_555
N1 C1 1_555 1_555
C1 C2 1_555 1_555
C2 C3 1_555 1_555
C3 H1 1_555 1_555
C4 C3 1_555 1_555
C5 N1 1_555 1_555
C6 C1 1_555 1_555
O1 Co1 1_555 1_555
O2 C6 1_555 1_555
C7 C2 1_555 1_555
O3 C7 1_555 1_555
O4 Na1 1_555 1_555
C8 C4 1_555 1_555
O5 C8 1_555 1_555
O6 C8 1_555 1_555
C9 C5 1_555 1_555
O7 C9 1_555 1_555
O8 Co1 1_555 1_555
O9 Co1 1_555 1_555
H2 O9 1_555 1_555
H3 O9 1_555 1_555
O10 Co2 1_555 1_555
H4 O10 1_555 1_555
H5 O10 1_555 1_555
O11 Co2 1_555 1_555
H6 O11 1_555 1_555
H7 O11 1_555 1_555
O12 Na1 1_555 1_555
H8 O12 1_555 1_555
H9 O12 1_555 1_555
O13 Na1 1_555 1_555
H10 O13 1_555 1_555
H11 O13 1_555 1_555
O14 H12 1_555 1_555
H13 O14 1_555 1_555
Na1A O11 1_555 1_555
Co1A N1A 1_555 1_555
N1A C1A 1_555 1_555
C1A C2A 1_555 1_555
C2A C3A 1_555 1_555
C3A H1A 1_555 1_555
C4A C3A 1_555 1_555
C5A N1A 1_555 1_555
C6A C1A 1_555 1_555
O1A Co1A 1_555 1_555
O2A Na1A 1_555 1_555
C7A C2A 1_555 1_555
O3A C7A 1_555 1_555
O4A Co2 1_555 1_555
C8A C4A 1_555 1_555
O5A C8A 1_555 1_555
O6A C8A 1_555 1_555
C9A C5A 1_555 1_555
O7A C9A 1_555 1_555
O8A Co1A 1_555 1_555
O9A Co1A 1_555 1_555
H2A O9A 1_555 1_555
H3A O9A 1_555 1_555
O10A Co2 1_555 1_555
H4A O10A 1_555 1_555
H5A O10A 1_555 1_555
O11A Na1 1_555 1_555
H6A O11A 1_555 1_555
H7A O11A 1_555 1_555
O12A Na1A 1_555 1_555
H8A O12A 1_555 1_555
H9A O12A 1_555 1_555
O13A Na1A 1_555 1_555
H10A O13A 1_555 1_555
H11A O13A 1_555 1_555
Co1_2 O3A 1_555 1_555
Co1_3 O6A 1_555 1_555
Co1A_2 O6 1_555 1_555
Co1A_3 O3 1_555 1_555
O3_2 Co1A 1_555 1_555
O3A_2 Co1 1_555 1_555
O6_2 Co1A 1_555 1_555
O6A_2 Co1 1_555 1_555
Co2 O11A 1_555 1_555
C4 C5 1_555 1_555
C6 O1 1_555 1_555
C7 O4 1_555 1_555
C9 O8 1_555 1_555
Na1A O4A 1_555 1_555
C4A C5A 1_555 1_555
C6A O1A 1_555 1_555
C6A O2A 1_555 1_555
C7A O4A 1_555 1_555
C9A O8A 1_555 1_555

#END
