
#######################################################################
#
#                 Cambridge Crystallographic Data Centre
#                                CCDC 
#
#######################################################################
#
# If this CIF has been generated from an entry in the Cambridge 
# Structural Database, then it will include bibliographic, chemical, 
# crystal, experimental, refinement or atomic coordinate data resulting 
# from the CCDC's data processing and validation procedures.
#
#######################################################################

data_CONBIS
_symmetry_cell_setting           monoclinic
_symmetry_space_group_name_H-M   'P 21/c'
_symmetry_Int_Tables_number      14
_space_group_name_Hall           '-P 2ybc'
loop_
_symmetry_equiv_pos_site_id
_symmetry_equiv_pos_as_xyz
1 x,y,z
2 -x,1/2+y,1/2-z
3 -x,-y,-z
4 x,1/2-y,1/2+z
_cell_length_a                   14.0666(3)
_cell_length_b                   10.4948(2)
_cell_length_c                   10.4236(2)
_cell_angle_alpha                90
_cell_angle_beta                 108.798(2)
_cell_angle_gamma                90
_cell_volume                     1456.72
loop_
_atom_site_label
_atom_site_type_symbol
_atom_site_fract_x
_atom_site_fract_y
_atom_site_fract_z
C1 C 0.74295(19) 0.6848(2) 0.3204(3)
H1 H 0.7531 0.6813 0.4179
C2 C 0.80144(19) 0.5779(2) 0.2814(3)
H2 H 0.8709 0.6042 0.2957
C3 C 0.74319(19) 0.5670(2) 0.1289(3)
H3 H 0.7636 0.6377 0.0821
C4 C 0.63463(19) 0.5895(2) 0.1234(2)
H4 H 0.6021 0.5070 0.1238
C5 C 0.7720(2) 0.8178(3) 0.2823(3)
C6 C 0.7988(2) 0.4524(2) 0.3537(3)
C7 C 0.7594(2) 0.4425(3) 0.0628(3)
C8 C 0.57678(19) 0.6620(2) -0.0037(3)
O1 O 0.63915(13) 0.65851(17) 0.24522(18)
O2 O 0.70130(15) 0.89351(17) 0.2238(2)
O3 O 0.86280(16) 0.84219(19) 0.3133(2)
O4 O 0.86582(14) 0.37183(17) 0.34746(19)
O5 O 0.73432(15) 0.4302(2) 0.4066(2)
O6 O 0.83358(15) 0.44558(18) 0.0170(2)
O7 O 0.70506(16) 0.34992(18) 0.0589(2)
O8 O 0.57512(16) 0.60805(18) -0.11095(19)
O9 O 0.53812(16) 0.76769(19) 0.0059(2)
O10 O 0.46276(17) 0.9850(2) 0.1139(2)
H5 H 0.4038(15) 0.979(3) 0.114(4)
H6 H 0.488(2) 1.055(2) 0.131(4)
O11 O 0.42903(15) 0.7198(2) 0.1931(2)
H7 H 0.393(2) 0.706(4) 0.1141(19)
H8 H 0.399(2) 0.739(4) 0.244(3)
O12 O 0.9288(2) 0.2839(2) 0.6097(2)
H9 H 0.940(3) 0.3619(17) 0.624(4)
H10 H 0.941(3) 0.247(3) 0.683(3)
O13 O 1.0054(2) 0.1465(3) 0.4137(3)
H11 H 0.991(3) 0.077(3) 0.369(4)
H12 H 1.050(3) 0.137(4) 0.489(3)
O14 O 0.76505(19) 0.1457(2) 0.2526(2)
H13 H 0.747(3) 0.191(3) 0.182(3)
H14 H 0.747(3) 0.0699(18) 0.235(3)
Zn1 Zn 0.55162(2) 0.83418(3) 0.19735(3)
Cu1 Cu 0.85457(3) 0.20992(3) 0.43106(3)
O6C O 0.83358(15) 0.05442(18) 0.5170(2)
O8C O 0.57512(16) 0.89195(18) 0.38905(19)
Zn1C Zn 0.55162(2) 0.66582(3) -0.30265(3)
Cu1C Cu 0.85457(3) 0.29008(3) -0.06894(3)
O15 O 0.9457(2) 0.9670(3) 0.1422(4)
H15 H 0.918(4) 0.923(4) 0.185(5)
H16 H 0.999(3) 0.935(5) 0.137(6)
loop_
_geom_bond_atom_site_label_1
_geom_bond_atom_site_label_2
_geom_bond_site_symmetry_1
_geom_bond_site_symmetry_2
C1 H1 1_555 1_555
C2 C1 1_555 1_555
H2 C2 1_555 1_555
C3 C2 1_555 1_555
H3 C3 1_555 1_555
C4 C3 1_555 1_555
H4 C4 1_555 1_555
C5 C1 1_555 1_555
C6 C2 1_555 1_555
C7 C3 1_555 1_555
C8 C4 1_555 1_555
O1 C1 1_555 1_555
O2 C5 1_555 1_555
O3 C5 1_555 1_555
O4 C6 1_555 1_555
O5 C6 1_555 1_555
O6 C7 1_555 1_555
O7 C7 1_555 1_555
O8 C8 1_555 1_555
O9 C8 1_555 1_555
O10 H5 1_555 1_555
H6 O10 1_555 1_555
O11 H7 1_555 1_555
H8 O11 1_555 1_555
O12 H9 1_555 1_555
H10 O12 1_555 1_555
O13 H11 1_555 1_555
H12 O13 1_555 1_555
O14 H13 1_555 1_555
H14 O14 1_555 1_555
Zn1 O1 1_555 1_555
Cu1 O4 1_555 1_555
O15 H15 1_555 1_555
H16 O15 1_555 1_555
O6C Cu1 1_555 1_555
O8C Zn1 1_555 1_555
Zn1C O8 1_555 1_555
Cu1C O6 1_555 1_555
C4 O1 1_555 1_555
O2 Zn1 1_555 1_555
O9 Zn1 1_555 1_555
O10 Zn1 1_555 1_555
O11 Zn1 1_555 1_555
O12 Cu1 1_555 1_555
O13 Cu1 1_555 1_555
O14 Cu1 1_555 1_555

#END
