
#######################################################################
#
#                 Cambridge Crystallographic Data Centre
#                                CCDC 
#
#######################################################################
#
# If this CIF has been generated from an entry in the Cambridge 
# Structural Database, then it will include bibliographic, chemical, 
# crystal, experimental, refinement or atomic coordinate data resulting 
# from the CCDC's data processing and validation procedures.
#
#######################################################################

data_CONDIT
_symmetry_cell_setting           triclinic
_symmetry_space_group_name_H-M   'P -1'
_symmetry_Int_Tables_number      2
_space_group_name_Hall           '-P 1'
loop_
_symmetry_equiv_pos_site_id
_symmetry_equiv_pos_as_xyz
1 x,y,z
2 -x,-y,-z
_cell_length_a                   9.4540(19)
_cell_length_b                   11.163(2)
_cell_length_c                   11.515(2)
_cell_angle_alpha                71.56(2)
_cell_angle_beta                 71.90(3)
_cell_angle_gamma                65.56(3)
_cell_volume                     1026.54
loop_
_atom_site_label
_atom_site_type_symbol
_atom_site_fract_x
_atom_site_fract_y
_atom_site_fract_z
As1 As 0.4544(2) 0.14348(18) 0.36161(16)
As2 As 0.1348(2) 0.13091(19) 0.62370(17)
Se1 Se 0.3650(2) 0.30001(18) 0.18571(16)
Se2 Se 0.2563(2) 0.03077(19) 0.44447(17)
Se3 Se 0.6623(2) -0.02167(19) 0.24974(17)
Se4 Se 0.1605(2) 0.34611(17) 0.54709(16)
Mn1 Mn 0.1243(3) 0.4700(3) 0.3162(2)
N1 N 0.2501(17) 0.6197(13) 0.2795(13)
C1 C 0.342(2) 0.615(2) 0.348(2)
H1 H 0.3543 0.5484 0.4208
C2 C 0.420(3) 0.703(2) 0.319(2)
H2 H 0.4751 0.6993 0.3748
C3 C 0.417(2) 0.798(2) 0.206(2)
H3 H 0.4766 0.8541 0.1814
C4 C 0.321(2) 0.8043(19) 0.1316(18)
H4 H 0.3118 0.8678 0.0565
C5 C 0.241(2) 0.7151(17) 0.1711(18)
C6 C 0.126(2) 0.7236(16) 0.1018(14)
C7 C 0.083(2) 0.8234(17) -0.0052(18)
H5 H 0.1324 0.8871 -0.0412
C8 C -0.032(2) 0.8265(17) -0.0558(16)
H6 H -0.0610 0.8929 -0.1257
C9 C -0.105(2) 0.7311(17) -0.0034(14)
H7 H -0.1839 0.7331 -0.0373
C10 C -0.0598(18) 0.6337(14) 0.0995(13)
N2 N 0.0532(15) 0.6313(13) 0.1526(11)
C11 C -0.1308(19) 0.5249(15) 0.1671(13)
C12 C -0.247(2) 0.515(2) 0.1286(16)
H8 H -0.2842 0.5738 0.0581
C13 C -0.310(2) 0.410(2) 0.200(2)
H9 H -0.3955 0.4039 0.1808
C14 C -0.241(2) 0.320(2) 0.2963(19)
H10 H -0.2736 0.2473 0.3399
C15 C -0.128(2) 0.3369(18) 0.3281(17)
H11 H -0.0881 0.2764 0.3970
N3 N -0.0665(15) 0.4374(13) 0.2660(12)
As1A As 0.5456(2) -0.14348(18) 0.63839(16)
As2A As 0.8652(2) -0.13091(19) 0.37630(17)
Se1A Se 0.6350(2) -0.30001(18) 0.81429(16)
Se2A Se 0.7437(2) -0.03077(19) 0.55553(17)
Se3A Se 0.3377(2) 0.02167(19) 0.75026(17)
Se4A Se 0.8395(2) -0.34611(17) 0.45291(16)
Se4A_2 Se -0.1605(2) 0.65389(17) 0.45291(16)
Se4_2 Se 1.1605(2) -0.65389(17) 0.54709(16)
Mn1A Mn 0.8757(3) -0.4700(3) 0.6838(2)
Mn1A_2 Mn -0.1243(3) 0.5300(3) 0.6838(2)
Mn1_2 Mn 1.1243(3) -0.5300(3) 0.3162(2)
N1A N 0.7499(17) -0.6197(13) 0.7205(13)
C1A C 0.658(2) -0.615(2) 0.652(2)
H1A H 0.6457 -0.5484 0.5792
C2A C 0.580(3) -0.703(2) 0.681(2)
H2A H 0.5249 -0.6993 0.6252
C3A C 0.583(2) -0.798(2) 0.794(2)
H3A H 0.5234 -0.8541 0.8186
C4A C 0.679(2) -0.8043(19) 0.8684(18)
H4A H 0.6882 -0.8678 0.9435
C5A C 0.759(2) -0.7151(17) 0.8289(18)
C6A C 0.874(2) -0.7236(16) 0.8982(14)
C7A C 0.917(2) -0.8234(17) 1.0052(18)
H5A H 0.8676 -0.8871 1.0412
C8A C 1.032(2) -0.8265(17) 1.0558(16)
H6A H 1.0610 -0.8929 1.1257
C9A C 1.105(2) -0.7311(17) 1.0034(14)
H7A H 1.1839 -0.7331 1.0373
C10A C 1.0598(18) -0.6337(14) 0.9005(13)
N2A N 0.9468(15) -0.6313(13) 0.8474(11)
C11A C 1.1308(19) -0.5249(15) 0.8329(13)
C12A C 1.247(2) -0.515(2) 0.8714(16)
H8A H 1.2842 -0.5738 0.9419
C13A C 1.310(2) -0.410(2) 0.800(2)
H9A H 1.3955 -0.4039 0.8192
C14A C 1.241(2) -0.320(2) 0.7037(19)
H10A H 1.2736 -0.2473 0.6601
C15A C 1.128(2) -0.3369(18) 0.6719(17)
H11A H 1.0881 -0.2764 0.6030
N3A N 1.0665(15) -0.4374(13) 0.7340(12)
loop_
_geom_bond_atom_site_label_1
_geom_bond_atom_site_label_2
_geom_bond_site_symmetry_1
_geom_bond_site_symmetry_2
As1 Se1 1_555 1_555
As2 Se2 1_555 1_555
Se1 Mn1 1_555 1_555
Se2 As1 1_555 1_555
Se3 As1 1_555 1_555
Se4 As2 1_555 1_555
Mn1 Se4 1_555 1_555
N1 Mn1 1_555 1_555
C1 N1 1_555 1_555
H1 C1 1_555 1_555
C2 C1 1_555 1_555
H2 C2 1_555 1_555
C3 C2 1_555 1_555
H3 C3 1_555 1_555
C4 C3 1_555 1_555
H4 C4 1_555 1_555
C5 N1 1_555 1_555
C6 C5 1_555 1_555
C7 C6 1_555 1_555
H5 C7 1_555 1_555
C8 C7 1_555 1_555
H6 C8 1_555 1_555
C9 C8 1_555 1_555
H7 C9 1_555 1_555
C10 C9 1_555 1_555
N2 Mn1 1_555 1_555
C11 C10 1_555 1_555
C12 C11 1_555 1_555
H8 C12 1_555 1_555
C13 C12 1_555 1_555
H9 C13 1_555 1_555
C14 C13 1_555 1_555
H10 C14 1_555 1_555
C15 C14 1_555 1_555
H11 C15 1_555 1_555
N3 Mn1 1_555 1_555
As1A Se1A 1_555 1_555
As2A Se3 1_555 1_555
Se1A Mn1A 1_555 1_555
Se2A As1A 1_555 1_555
Se3A As2 1_555 1_555
Se4A As2A 1_555 1_555
Se4A_2 Mn1 1_555 1_555
Se4_2 Mn1A 1_555 1_555
Mn1A Se4A 1_555 1_555
Mn1A_2 Se4 1_555 1_555
Mn1_2 Se4A 1_555 1_555
N1A Mn1A 1_555 1_555
C1A N1A 1_555 1_555
H1A C1A 1_555 1_555
C2A C1A 1_555 1_555
H2A C2A 1_555 1_555
C3A C2A 1_555 1_555
H3A C3A 1_555 1_555
C4A C3A 1_555 1_555
H4A C4A 1_555 1_555
C5A N1A 1_555 1_555
C6A C5A 1_555 1_555
C7A C6A 1_555 1_555
H5A C7A 1_555 1_555
C8A C7A 1_555 1_555
H6A C8A 1_555 1_555
C9A C8A 1_555 1_555
H7A C9A 1_555 1_555
C10A C9A 1_555 1_555
N2A Mn1A 1_555 1_555
C11A C10A 1_555 1_555
C12A C11A 1_555 1_555
H8A C12A 1_555 1_555
C13A C12A 1_555 1_555
H9A C13A 1_555 1_555
C14A C13A 1_555 1_555
H10A C14A 1_555 1_555
C15A C14A 1_555 1_555
H11A C15A 1_555 1_555
N3A Mn1A 1_555 1_555
C4 C5 1_555 1_555
C6 N2 1_555 1_555
C10 N2 1_555 1_555
C11 N3 1_555 1_555
C15 N3 1_555 1_555
As1A Se3A 1_555 1_555
As2A Se2A 1_555 1_555
Se4A_2 Mn1A_2 1_555 1_555
Se4_2 Mn1_2 1_555 1_555
C4A C5A 1_555 1_555
C6A N2A 1_555 1_555
C10A N2A 1_555 1_555
C11A N3A 1_555 1_555
C15A N3A 1_555 1_555

#END
