
#######################################################################
#
#                 Cambridge Crystallographic Data Centre
#                                CCDC 
#
#######################################################################
#
# If this CIF has been generated from an entry in the Cambridge 
# Structural Database, then it will include bibliographic, chemical, 
# crystal, experimental, refinement or atomic coordinate data resulting 
# from the CCDC's data processing and validation procedures.
#
#######################################################################

data_CONDEP
_symmetry_cell_setting           triclinic
_symmetry_space_group_name_H-M   'P -1'
_symmetry_Int_Tables_number      2
_space_group_name_Hall           '-P 1'
loop_
_symmetry_equiv_pos_site_id
_symmetry_equiv_pos_as_xyz
1 x,y,z
2 -x,-y,-z
_cell_length_a                   11.8816(15)
_cell_length_b                   12.178(2)
_cell_length_c                   14.233(3)
_cell_angle_alpha                76.916(15)
_cell_angle_beta                 76.219(11)
_cell_angle_gamma                60.801(8)
_cell_volume                     1731.19
loop_
_atom_site_label
_atom_site_type_symbol
_atom_site_fract_x
_atom_site_fract_y
_atom_site_fract_z
As1 As 0.12062(7) 0.86426(7) 0.37088(5)
As2 As 0.41406(8) 0.62454(7) 0.25305(5)
Se1 Se -0.07120(8) 0.86782(7) 0.34519(5)
Se2 Se 0.05061(8) 1.08384(7) 0.36200(6)
Se3 Se 0.24857(9) 0.83686(9) 0.21021(7)
Se4 Se 0.43614(9) 0.52501(8) 0.11927(6)
Se5 Se 0.61379(8) 0.63594(8) 0.21099(6)
Mn1 Mn -0.17867(11) 0.91756(10) 0.51862(8)
Mn2 Mn 0.63833(11) 0.55488(10) 0.04874(8)
N1 N -0.3368(6) 1.1193(5) 0.4949(4)
C1 C -0.3143(8) 1.2125(7) 0.4382(6)
H1 H -0.2313 1.1933 0.4037
C2 C -0.4122(9) 1.3378(7) 0.4297(6)
H2 H -0.3951 1.4010 0.3889
C3 C -0.5327(10) 1.3662(8) 0.4816(7)
H3 H -0.5988 1.4493 0.4777
C4 C -0.5558(8) 1.2702(8) 0.5400(6)
H4 H -0.6376 1.2879 0.5764
C5 C -0.4556(7) 1.1466(7) 0.5440(5)
C6 C -0.4724(7) 1.0368(7) 0.6011(5)
C7 C -0.5917(8) 1.0440(8) 0.6539(6)
H5 H -0.6670 1.1213 0.6560
C8 C -0.5938(9) 0.9328(10) 0.7026(6)
H6 H -0.6718 0.9362 0.7381
C9 C -0.4858(9) 0.8194(8) 0.7001(6)
H7 H -0.4885 0.7452 0.7328
C10 C -0.3701(8) 0.8175(7) 0.6468(5)
N2 N -0.3660(6) 0.9235(6) 0.5979(4)
C11 C -0.2446(8) 0.7006(7) 0.6379(5)
C12 C -0.2303(10) 0.5815(8) 0.6855(6)
H8 H -0.3017 0.5730 0.7236
C13 C -0.1128(12) 0.4798(8) 0.6758(6)
H9 H -0.1035 0.3999 0.7051
C14 C -0.0067(10) 0.4929(7) 0.6232(6)
H10 H 0.0756 0.4233 0.6178
C15 C -0.0254(9) 0.6140(8) 0.5777(6)
H11 H 0.0458 0.6242 0.5412
N3 N -0.1420(7) 0.7149(6) 0.5852(4)
N4 N 0.8069(7) 0.3545(6) 0.0590(5)
C16 C 0.8008(10) 0.2570(8) 0.1225(7)
H12 H 0.7250 0.2715 0.1668
C17 C 0.9016(12) 0.1375(9) 0.1243(8)
H13 H 0.8959 0.0727 0.1711
C18 C 1.0121(12) 0.1133(9) 0.0564(8)
H14 H 1.0811 0.0318 0.0551
C19 C 1.0179(10) 0.2131(9) -0.0098(7)
H15 H 1.0905 0.1984 -0.0576
C20 C 0.9172(8) 0.3340(7) -0.0058(6)
C21 C 0.9204(7) 0.4491(7) -0.0664(5)
C22 C 1.0331(9) 0.4482(9) -0.1249(6)
H16 H 1.1107 0.3733 -0.1307
C23 C 1.0249(9) 0.5629(9) -0.1739(6)
H17 H 1.0988 0.5665 -0.2118
C24 C 0.9083(8) 0.6720(8) -0.1671(5)
H18 H 0.9028 0.7488 -0.2012
C25 C 0.7990(8) 0.6665(7) -0.1090(5)
N5 N 0.8064(6) 0.5552(5) -0.0585(4)
C26 C 0.6677(8) 0.7741(7) -0.0979(5)
C27 C 0.6442(10) 0.8983(7) -0.1425(6)
H19 H 0.7114 0.9147 -0.1796
C28 C 0.5193(11) 0.9930(8) -0.1293(6)
H20 H 0.5011 1.0759 -0.1563
C29 C 0.4193(10) 0.9668(8) -0.0759(6)
H21 H 0.3336 1.0304 -0.0682
C30 C 0.4516(9) 0.8419(8) -0.0340(6)
H22 H 0.3854 0.8231 0.0022
N6 N 0.5711(6) 0.7500(6) -0.0436(4)
Se2A Se -0.05061(8) 0.91616(7) 0.63800(6)
Se4A Se 0.56386(9) 0.47499(8) -0.11927(6)
Mn1A Mn 0.17867(11) 1.08244(10) 0.48138(8)
Mn2A Mn 0.36167(11) 0.44512(10) -0.04874(8)
loop_
_geom_bond_atom_site_label_1
_geom_bond_atom_site_label_2
_geom_bond_site_symmetry_1
_geom_bond_site_symmetry_2
As1 Se1 1_555 1_555
As2 Se3 1_555 1_555
Se1 Mn1 1_555 1_555
Se2 As1 1_555 1_555
Se3 As1 1_555 1_555
Se4 As2 1_555 1_555
Se5 As2 1_555 1_555
Mn1 N1 1_555 1_555
Mn2 Se4 1_555 1_555
N1 C1 1_555 1_555
C1 H1 1_555 1_555
C2 C1 1_555 1_555
H2 C2 1_555 1_555
C3 C2 1_555 1_555
H3 C3 1_555 1_555
C4 C3 1_555 1_555
H4 C4 1_555 1_555
C5 N1 1_555 1_555
C6 C5 1_555 1_555
C7 C6 1_555 1_555
H5 C7 1_555 1_555
C8 C7 1_555 1_555
H6 C8 1_555 1_555
C9 C8 1_555 1_555
H7 C9 1_555 1_555
C10 C9 1_555 1_555
N2 Mn1 1_555 1_555
C11 C10 1_555 1_555
C12 C11 1_555 1_555
H8 C12 1_555 1_555
C13 C12 1_555 1_555
H9 C13 1_555 1_555
C14 C13 1_555 1_555
H10 C14 1_555 1_555
C15 C14 1_555 1_555
H11 C15 1_555 1_555
N3 Mn1 1_555 1_555
N4 Mn2 1_555 1_555
C16 N4 1_555 1_555
H12 C16 1_555 1_555
C17 C16 1_555 1_555
H13 C17 1_555 1_555
C18 C17 1_555 1_555
H14 C18 1_555 1_555
C19 C18 1_555 1_555
H15 C19 1_555 1_555
C20 N4 1_555 1_555
C21 C20 1_555 1_555
C22 C21 1_555 1_555
H16 C22 1_555 1_555
C23 C22 1_555 1_555
H17 C23 1_555 1_555
C24 C23 1_555 1_555
H18 C24 1_555 1_555
C25 C24 1_555 1_555
N5 Mn2 1_555 1_555
C26 C25 1_555 1_555
C27 C26 1_555 1_555
H19 C27 1_555 1_555
C28 C27 1_555 1_555
H20 C28 1_555 1_555
C29 C28 1_555 1_555
H21 C29 1_555 1_555
C30 C29 1_555 1_555
H22 C30 1_555 1_555
N6 Mn2 1_555 1_555
Se2A Mn1 1_555 1_555
Se4A Mn2 1_555 1_555
Mn1A Se2 1_555 1_555
Mn2A Se4 1_555 1_555
Se5 Mn2 1_555 1_555
C4 C5 1_555 1_555
C6 N2 1_555 1_555
C10 N2 1_555 1_555
C11 N3 1_555 1_555
C15 N3 1_555 1_555
C19 C20 1_555 1_555
C21 N5 1_555 1_555
C25 N5 1_555 1_555
C26 N6 1_555 1_555
C30 N6 1_555 1_555
Se4A Mn2A 1_555 1_555

#END
