
#######################################################################
#
#                 Cambridge Crystallographic Data Centre
#                                CCDC 
#
#######################################################################
#
# If this CIF has been generated from an entry in the Cambridge 
# Structural Database, then it will include bibliographic, chemical, 
# crystal, experimental, refinement or atomic coordinate data resulting 
# from the CCDC's data processing and validation procedures.
#
#######################################################################

data_CONPAY
_symmetry_cell_setting           monoclinic
_symmetry_space_group_name_H-M   'C 2/c'
_symmetry_Int_Tables_number      15
_space_group_name_Hall           '-C 2yn'
loop_
_symmetry_equiv_pos_site_id
_symmetry_equiv_pos_as_xyz
1 x,y,z
2 -x,y,1/2-z
3 1/2+x,1/2+y,z
4 1/2-x,1/2+y,1/2-z
5 -x,-y,-z
6 x,-y,1/2+z
7 1/2-x,1/2-y,-z
8 1/2+x,1/2-y,1/2+z
_cell_length_a                   8.5477(17)
_cell_length_b                   18.368(4)
_cell_length_c                   18.434(4)
_cell_angle_alpha                90
_cell_angle_beta                 94.61(3)
_cell_angle_gamma                90
_cell_volume                     2884.85
loop_
_atom_site_label
_atom_site_type_symbol
_atom_site_fract_x
_atom_site_fract_y
_atom_site_fract_z
Zn1 Zn 0.47010(3) 0.053683(14) 0.592276(14)
O1 O 0.45209(17) -0.08091(9) 0.50002(8)
O2 O -0.0981(2) -0.03626(11) 0.61188(13)
O3 O 0.4080(2) -0.14783(9) 0.13154(9)
O4 O 0.2903(2) -0.08110(9) 0.21089(9)
O5 O 0.0707(2) -0.27202(10) 0.37842(9)
O6 O 0.6447(3) 0.01881(13) 0.65843(12)
N1 N 0.2994(2) -0.01964(10) 0.57163(10)
N2 N 0.1551(2) -0.01085(11) 0.60019(11)
H1 H 0.1489 0.0228 0.6323
C1 C 0.0684(3) -0.21546(13) 0.42678(12)
C2 C -0.0754(3) -0.20432(14) 0.45615(13)
H2 H -0.1610 -0.2335 0.4413
C3 C -0.0908(3) -0.15088(15) 0.50643(13)
H3 H -0.1868 -0.1436 0.5257
C4 C 0.0383(3) -0.10675(12) 0.52915(12)
C5 C 0.1830(2) -0.11890(12) 0.50016(11)
C6 C 0.1982(3) -0.17382(12) 0.44910(12)
H4 H 0.2943 -0.1823 0.4303
C7 C 0.3161(2) -0.07185(11) 0.52408(11)
C8 C 0.0240(3) -0.04974(13) 0.58271(14)
C9 C 0.3331(3) -0.27762(13) 0.19901(14)
H5 H 0.3927 -0.2802 0.1590
C10 C 0.2894(4) -0.34077(14) 0.23322(16)
H6 H 0.3172 -0.3859 0.2153
C11 C 0.2049(3) -0.33698(13) 0.29366(14)
H7 H 0.1768 -0.3794 0.3169
C12 C 0.1621(3) -0.27001(13) 0.31964(12)
C13 C 0.2004(3) -0.20657(12) 0.28529(12)
H8 H 0.1686 -0.1617 0.3023
C14 C 0.2876(3) -0.21052(12) 0.22463(12)
C15 C 0.3308(3) -0.14191(12) 0.18723(12)
H9 H 0.722(4) 0.008(2) 0.645(2)
H10 H 0.657(5) 0.040(2) 0.699(2)
Zn1D Zn 0.52990(3) -0.053683(14) 0.407724(14)
Zn1E Zn 0.47010(3) -0.053683(14) 0.092276(14)
O1D O 0.54791(17) 0.08091(9) 0.49998(8)
O3E O 0.4080(2) 0.14783(9) 0.63154(9)
loop_
_geom_bond_atom_site_label_1
_geom_bond_atom_site_label_2
_geom_bond_site_symmetry_1
_geom_bond_site_symmetry_2
Zn1 O6 1_555 1_555
O1 C7 1_555 1_555
O2 C8 1_555 1_555
O3 C15 1_555 1_555
O4 C15 1_555 1_555
O5 C1 1_555 1_555
O6 H9 1_555 1_555
N1 Zn1 1_555 1_555
N2 N1 1_555 1_555
H1 N2 1_555 1_555
C1 C2 1_555 1_555
C2 H2 1_555 1_555
C3 C2 1_555 1_555
H3 C3 1_555 1_555
C4 C3 1_555 1_555
C5 C4 1_555 1_555
C6 C1 1_555 1_555
H4 C6 1_555 1_555
C7 N1 1_555 1_555
C8 N2 1_555 1_555
C9 H5 1_555 1_555
C10 C9 1_555 1_555
H6 C10 1_555 1_555
C11 C10 1_555 1_555
H7 C11 1_555 1_555
C12 O5 1_555 1_555
C13 C12 1_555 1_555
H8 C13 1_555 1_555
C14 C9 1_555 1_555
C15 C14 1_555 1_555
H10 O6 1_555 1_555
Zn1D O1 1_555 1_555
Zn1E O3 1_555 1_555
O1D Zn1 1_555 1_555
O3E Zn1 1_555 1_555
C4 C8 1_555 1_555
C5 C6 1_555 1_555
C5 C7 1_555 1_555
C11 C12 1_555 1_555
C13 C14 1_555 1_555

#END
