
#######################################################################
#
#                 Cambridge Crystallographic Data Centre
#                                CCDC 
#
#######################################################################
#
# If this CIF has been generated from an entry in the Cambridge 
# Structural Database, then it will include bibliographic, chemical, 
# crystal, experimental, refinement or atomic coordinate data resulting 
# from the CCDC's data processing and validation procedures.
#
#######################################################################

data_CONVUX
_symmetry_cell_setting           triclinic
_symmetry_space_group_name_H-M   'P -1'
_symmetry_Int_Tables_number      2
_space_group_name_Hall           '-P 1'
loop_
_symmetry_equiv_pos_site_id
_symmetry_equiv_pos_as_xyz
1 x,y,z
2 -x,-y,-z
_cell_length_a                   7.7474(3)
_cell_length_b                   14.3426(5)
_cell_length_c                   20.2102(7)
_cell_angle_alpha                100.417(2)
_cell_angle_beta                 98.540(2)
_cell_angle_gamma                105.377(2)
_cell_volume                     2083.44
loop_
_atom_site_label
_atom_site_type_symbol
_atom_site_fract_x
_atom_site_fract_y
_atom_site_fract_z
Dy1 Dy 0.941155(18) 0.276697(9) 0.201884(6)
F1 F 0.4713(3) 0.01330(15) 0.28171(14)
F2 F 0.5970(3) 0.1432(2) 0.36431(10)
F3 F 0.1655(3) 0.04285(15) 0.26355(14)
F4 F 0.2662(3) 0.09468(17) 0.37387(12)
O1 O 0.7250(3) 0.19744(16) 0.25843(11)
O2 O 0.4384(3) 0.16644(18) 0.20141(11)
O3 O 1.1825(4) 0.2465(2) 0.14839(14)
O4 O 1.1221(4) 0.42994(18) 0.19411(14)
O5 O 0.7093(4) 0.3572(2) 0.17733(16)
O6 O 0.9656(4) 0.39031(18) 0.30533(12)
O7 O 0.3844(3) 0.28925(16) 0.34699(12)
O8 O 0.1134(3) 0.21557(17) 0.27466(11)
N1 N 0.8419(3) 0.24777(18) 0.07137(12)
N2 N 0.8177(3) 0.09563(18) 0.13596(13)
C1 C 0.7991(5) 0.0206(2) 0.16717(18)
H1 H 0.8194 0.0349 0.2149
C2 C 0.7862(4) 0.0738(2) 0.06627(15)
C3 C 0.8000(4) 0.1540(2) 0.03200(15)
C4 C 0.5551(4) 0.1650(2) 0.24882(14)
C5 C 0.4816(4) 0.1114(2) 0.30293(16)
C6 C 0.8510(5) 0.3219(3) 0.03972(17)
H2 H 0.8788 0.3860 0.0665
C7 C 0.7803(6) 0.2150(3) -0.07129(18)
H3 H 0.7605 0.2046 -0.1189
C8 C 0.7685(5) 0.1344(3) -0.04022(16)
C9 C 0.7223(6) 0.0340(3) -0.07846(19)
H4 H 0.7032 0.0206 -0.1262
C10 C 0.7062(6) -0.0414(3) -0.0468(2)
H5 H 0.6736 -0.1061 -0.0730
C11 C 0.7381(5) -0.0243(3) 0.02651(18)
C12 C 0.7205(6) -0.1008(3) 0.0620(2)
H6 H 0.6883 -0.1667 0.0378
C13 C 0.7509(5) -0.0784(3) 0.1319(2)
H7 H 0.7395 -0.1286 0.1558
C14 C 0.2907(4) 0.1162(2) 0.31176(17)
C15 C 0.8208(5) 0.3085(3) -0.03173(18)
H8 H 0.8283 0.3625 -0.0519
C16 C 0.2595(4) 0.2182(2) 0.31103(14)
H25 H 0.632(6) 0.343(3) 0.148(2)
H26 H 0.672(6) 0.379(3) 0.214(2)
H27 H 1.115(6) 0.488(4) 0.221(2)
H28 H 1.176(6) 0.438(3) 0.169(2)
H29 H 1.228(5) 0.270(3) 0.1296(17)
H30 H 1.255(6) 0.224(3) 0.175(2)
H31 H 1.046(6) 0.439(4) 0.321(2)
H32 H 0.883(6) 0.402(3) 0.313(2)
Dy1_2 Dy 1.941155(18) 0.276697(9) 0.201884(6)
Dy1_3 Dy -0.058845(18) 0.276697(9) 0.201884(6)
F1_2 F 1.4713(3) 0.01330(15) 0.28171(14)
F2_2 F 1.5970(3) 0.1432(2) 0.36431(10)
F3_2 F 1.1655(3) 0.04285(15) 0.26355(14)
F4_2 F 1.2662(3) 0.09468(17) 0.37387(12)
O1_2 O 1.7250(3) 0.19744(16) 0.25843(11)
O2_2 O 1.4384(3) 0.16644(18) 0.20141(11)
O3_2 O 2.1825(4) 0.2465(2) 0.14839(14)
O4_2 O 2.1221(4) 0.42994(18) 0.19411(14)
O5_2 O 1.7093(4) 0.3572(2) 0.17733(16)
O6_2 O 1.9656(4) 0.39031(18) 0.30533(12)
O7_2 O 1.3844(3) 0.28925(16) 0.34699(12)
O8_2 O 1.1134(3) 0.21557(17) 0.27466(11)
O8_3 O 2.1134(3) 0.21557(17) 0.27466(11)
N1_2 N 1.8419(3) 0.24777(18) 0.07137(12)
N2_2 N 1.8177(3) 0.09563(18) 0.13596(13)
C1_2 C 1.7991(5) 0.0206(2) 0.16717(18)
H1_2 H 1.8194 0.0349 0.2149
C2_2 C 1.7862(4) 0.0738(2) 0.06627(15)
C3_2 C 1.8000(4) 0.1540(2) 0.03200(15)
C4_2 C 1.5551(4) 0.1650(2) 0.24882(14)
C5_2 C 1.4816(4) 0.1114(2) 0.30293(16)
C6_2 C 1.8510(5) 0.3219(3) 0.03972(17)
H2_2 H 1.8788 0.3860 0.0665
C7_2 C 1.7803(6) 0.2150(3) -0.07129(18)
H3_2 H 1.7605 0.2046 -0.1189
C8_2 C 1.7685(5) 0.1344(3) -0.04022(16)
C9_2 C 1.7223(6) 0.0340(3) -0.07846(19)
H4_2 H 1.7032 0.0206 -0.1262
C10_2 C 1.7062(6) -0.0414(3) -0.0468(2)
H5_2 H 1.6736 -0.1061 -0.0730
C11_2 C 1.7381(5) -0.0243(3) 0.02651(18)
C12_2 C 1.7205(6) -0.1008(3) 0.0620(2)
H6_2 H 1.6883 -0.1667 0.0378
C13_2 C 1.7509(5) -0.0784(3) 0.1319(2)
H7_2 H 1.7395 -0.1286 0.1558
C14_2 C 1.2907(4) 0.1162(2) 0.31176(17)
C15_2 C 1.8208(5) 0.3085(3) -0.03173(18)
H8_2 H 1.8283 0.3625 -0.0519
C16_2 C 1.2595(4) 0.2182(2) 0.31103(14)
H25_2 H 1.632(6) 0.343(3) 0.148(2)
H26_2 H 1.672(6) 0.379(3) 0.214(2)
H27_2 H 2.115(6) 0.488(4) 0.221(2)
H28_2 H 2.176(6) 0.438(3) 0.169(2)
H29_2 H 2.228(5) 0.270(3) 0.1296(17)
H30_2 H 2.255(6) 0.224(3) 0.175(2)
H31_2 H 2.046(6) 0.439(4) 0.321(2)
H32_2 H 1.883(6) 0.402(3) 0.313(2)
N3 N 0.2398(3) 0.56181(19) 0.36701(13)
N4 N 0.0714(4) 0.60715(19) 0.25295(13)
C17 C 0.3263(5) 0.5415(3) 0.42156(18)
H9 H 0.3316 0.4769 0.4189
C18 C 0.4105(5) 0.6127(3) 0.48330(19)
H10 H 0.4695 0.5953 0.5206
C19 C 0.4046(5) 0.7063(3) 0.48776(18)
H11 H 0.4598 0.7541 0.5284
C20 C 0.3151(4) 0.7326(3) 0.43120(17)
C21 C 0.3000(5) 0.8295(3) 0.4329(2)
H12 H 0.3525 0.8791 0.4729
C22 C 0.2119(5) 0.8510(3) 0.3783(2)
H13 H 0.2036 0.9151 0.3810
C23 C 0.1300(5) 0.7766(2) 0.31549(18)
C24 C 0.0384(5) 0.7963(3) 0.2569(2)
H14 H 0.0288 0.8598 0.2578
C25 C -0.0365(5) 0.7230(3) 0.1989(2)
H15 H -0.0999 0.7349 0.1601
C26 C -0.0155(5) 0.6295(3) 0.19928(18)
H16 H -0.0658 0.5796 0.1593
C27 C 0.1423(4) 0.6797(2) 0.31139(16)
C28 C 0.2352(4) 0.6565(2) 0.37101(15)
N5 N 0.8277(4) 0.6259(2) 0.42811(17)
N6 N 0.6408(4) 0.6247(2) 0.30246(15)
C29 C 0.9785(7) 0.7154(5) 0.5451(3)
H17 H 1.0412 0.7139 0.5876
C30 C 0.9458(6) 0.7999(4) 0.5342(2)
H18 H 0.9855 0.8573 0.5693
C31 C 0.8519(5) 0.8003(3) 0.4699(2)
C32 C 0.8107(6) 0.8866(3) 0.4547(3)
H19 H 0.8470 0.9449 0.4889
C33 C 0.7215(6) 0.8854(3) 0.3927(3)
H20 H 0.6973 0.9430 0.3845
C34 C 0.6626(5) 0.7981(3) 0.3388(2)
C35 C 0.6978(4) 0.7105(2) 0.35156(18)
C36 C 0.7957(4) 0.7113(3) 0.41854(18)
C37 C 0.5519(5) 0.6247(3) 0.2417(2)
H21 H 0.5134 0.5659 0.2080
C38 C 0.5120(6) 0.7077(4) 0.2250(2)
H22 H 0.4484 0.7039 0.1813
C39 C 0.5674(5) 0.7938(3) 0.2734(2)
H23 H 0.5423 0.8501 0.2632
C40 C 0.9169(6) 0.6304(4) 0.4915(3)
H24 H 0.9391 0.5728 0.5003
F5 F 0.2756(3) 0.48194(16) -0.04184(10)
F6 F 0.4354(3) 0.37922(15) -0.05140(10)
O9 O 0.2780(4) 0.4750(2) 0.08938(14)
O10 O 0.3960(4) 0.3485(2) 0.07018(15)
C41 C 0.3562(5) 0.4228(3) 0.05785(17)
C42 C 0.4131(4) 0.4558(2) -0.00702(15)
F5A F 0.7244(3) 0.51806(16) 0.04184(10)
F6A F 0.5646(3) 0.62078(15) 0.05140(10)
O9A O 0.7220(4) 0.5250(2) -0.08938(14)
O10A O 0.6040(4) 0.6515(2) -0.07018(15)
C41A C 0.6438(5) 0.5772(3) -0.05785(17)
C42A C 0.5869(4) 0.5442(2) 0.00702(15)
O11 O 0.6368(4) 0.4268(2) 0.30020(17)
H33 H 0.649(7) 0.483(4) 0.317(3)
H34 H 0.546(8) 0.391(4) 0.325(3)
loop_
_geom_bond_atom_site_label_1
_geom_bond_atom_site_label_2
_geom_bond_site_symmetry_1
_geom_bond_site_symmetry_2
Dy1 O1 1_555 1_555
F1 C5 1_555 1_555
F2 C5 1_555 1_555
F3 C14 1_555 1_555
F4 C14 1_555 1_555
O1 C4 1_555 1_555
O2 C4 1_555 1_555
O3 Dy1 1_555 1_555
O4 Dy1 1_555 1_555
O5 Dy1 1_555 1_555
O6 Dy1 1_555 1_555
O7 C16 1_555 1_555
O8 C16 1_555 1_555
N1 Dy1 1_555 1_555
N2 Dy1 1_555 1_555
C1 N2 1_555 1_555
H1 C1 1_555 1_555
C2 N2 1_555 1_555
C3 N1 1_555 1_555
C4 C5 1_555 1_555
C5 C14 1_555 1_555
C6 N1 1_555 1_555
H2 C6 1_555 1_555
C7 H3 1_555 1_555
C8 C3 1_555 1_555
C9 C8 1_555 1_555
H4 C9 1_555 1_555
C10 C9 1_555 1_555
H5 C10 1_555 1_555
C11 C2 1_555 1_555
C12 C11 1_555 1_555
H6 C12 1_555 1_555
C13 C1 1_555 1_555
H7 C13 1_555 1_555
C14 C16 1_555 1_555
C15 C6 1_555 1_555
H8 C15 1_555 1_555
N3 C17 1_555 1_555
N4 C26 1_555 1_555
C17 H9 1_555 1_555
C18 C17 1_555 1_555
H10 C18 1_555 1_555
C19 C18 1_555 1_555
H11 C19 1_555 1_555
C20 C19 1_555 1_555
C21 C20 1_555 1_555
H12 C21 1_555 1_555
C22 C21 1_555 1_555
H13 C22 1_555 1_555
C23 C22 1_555 1_555
C24 C23 1_555 1_555
H14 C24 1_555 1_555
C25 C24 1_555 1_555
H15 C25 1_555 1_555
C26 C25 1_555 1_555
H16 C26 1_555 1_555
C27 N4 1_555 1_555
C28 N3 1_555 1_555
N5 C36 1_555 1_555
N6 C35 1_555 1_555
C29 H17 1_555 1_555
C30 C29 1_555 1_555
H18 C30 1_555 1_555
C31 C30 1_555 1_555
C32 C31 1_555 1_555
H19 C32 1_555 1_555
C33 C32 1_555 1_555
H20 C33 1_555 1_555
C34 C33 1_555 1_555
C35 C34 1_555 1_555
C36 C31 1_555 1_555
C37 N6 1_555 1_555
H21 C37 1_555 1_555
C38 C37 1_555 1_555
H22 C38 1_555 1_555
C39 C34 1_555 1_555
H23 C39 1_555 1_555
C40 N5 1_555 1_555
H24 C40 1_555 1_555
F5 C42 1_555 1_555
F6 C42 1_555 1_555
O9 C41 1_555 1_555
O10 C41 1_555 1_555
C41 C42 1_555 1_555
C42 C42A 1_555 1_555
O11 H33 1_555 1_555
H25 O5 1_555 1_555
H26 O5 1_555 1_555
H27 O4 1_555 1_555
H28 O4 1_555 1_555
H29 O3 1_555 1_555
H30 O3 1_555 1_555
H31 O6 1_555 1_555
H32 O6 1_555 1_555
H34 O11 1_555 1_555
Dy1_2 O1_2 1_555 1_555
Dy1_3 O8 1_555 1_555
F1_2 C5_2 1_555 1_555
F2_2 C5_2 1_555 1_555
F3_2 C14_2 1_555 1_555
F4_2 C14_2 1_555 1_555
O1_2 C4_2 1_555 1_555
O2_2 C4_2 1_555 1_555
O3_2 Dy1_2 1_555 1_555
O4_2 Dy1_2 1_555 1_555
O5_2 Dy1_2 1_555 1_555
O6_2 Dy1_2 1_555 1_555
O7_2 C16_2 1_555 1_555
O8_2 Dy1 1_555 1_555
O8_3 Dy1_2 1_555 1_555
N1_2 Dy1_2 1_555 1_555
N2_2 Dy1_2 1_555 1_555
C1_2 N2_2 1_555 1_555
H1_2 C1_2 1_555 1_555
C2_2 N2_2 1_555 1_555
C3_2 N1_2 1_555 1_555
C4_2 C5_2 1_555 1_555
C5_2 C14_2 1_555 1_555
C6_2 N1_2 1_555 1_555
H2_2 C6_2 1_555 1_555
C7_2 H3_2 1_555 1_555
C8_2 C3_2 1_555 1_555
C9_2 C8_2 1_555 1_555
H4_2 C9_2 1_555 1_555
C10_2 C9_2 1_555 1_555
H5_2 C10_2 1_555 1_555
C11_2 C2_2 1_555 1_555
C12_2 C11_2 1_555 1_555
H6_2 C12_2 1_555 1_555
C13_2 C1_2 1_555 1_555
H7_2 C13_2 1_555 1_555
C14_2 C16_2 1_555 1_555
C15_2 C6_2 1_555 1_555
H8_2 C15_2 1_555 1_555
C16_2 O8_2 1_555 1_555
F5A C42A 1_555 1_555
F6A C42A 1_555 1_555
O9A C41A 1_555 1_555
O10A C41A 1_555 1_555
C41A C42A 1_555 1_555
H25_2 O5_2 1_555 1_555
H26_2 O5_2 1_555 1_555
H27_2 O4_2 1_555 1_555
H28_2 O4_2 1_555 1_555
H29_2 O3_2 1_555 1_555
H30_2 O3_2 1_555 1_555
H31_2 O6_2 1_555 1_555
H32_2 O6_2 1_555 1_555
C2 C3 1_555 1_555
C7 C8 1_555 1_555
C7 C15 1_555 1_555
C10 C11 1_555 1_555
C12 C13 1_555 1_555
C20 C28 1_555 1_555
C23 C27 1_555 1_555
C27 C28 1_555 1_555
C29 C40 1_555 1_555
C35 C36 1_555 1_555
C38 C39 1_555 1_555
C2_2 C3_2 1_555 1_555
C7_2 C8_2 1_555 1_555
C7_2 C15_2 1_555 1_555
C10_2 C11_2 1_555 1_555
C12_2 C13_2 1_555 1_555

#END
