
#######################################################################
#
#                 Cambridge Crystallographic Data Centre
#                                CCDC 
#
#######################################################################
#
# If this CIF has been generated from an entry in the Cambridge 
# Structural Database, then it will include bibliographic, chemical, 
# crystal, experimental, refinement or atomic coordinate data resulting 
# from the CCDC's data processing and validation procedures.
#
#######################################################################

data_CONVOR
_symmetry_cell_setting           triclinic
_symmetry_space_group_name_H-M   'P -1'
_symmetry_Int_Tables_number      2
_space_group_name_Hall           '-P 1'
loop_
_symmetry_equiv_pos_site_id
_symmetry_equiv_pos_as_xyz
1 x,y,z
2 -x,-y,-z
_cell_length_a                   7.7579(3)
_cell_length_b                   14.3828(5)
_cell_length_c                   20.2949(8)
_cell_angle_alpha                100.227(2)
_cell_angle_beta                 98.622(2)
_cell_angle_gamma                105.514(2)
_cell_volume                     2100.29
loop_
_atom_site_label
_atom_site_type_symbol
_atom_site_fract_x
_atom_site_fract_y
_atom_site_fract_z
Sm1 Sm 0.43836(2) 0.276138(11) 0.202732(8)
F1 F 0.7640(4) 0.0966(2) 0.37684(16)
F2 F 0.6591(4) 0.0441(2) 0.2668(2)
F3 F 1.0921(4) 0.1381(3) 0.36545(14)
F4 F 0.9608(5) 0.0108(2) 0.2837(2)
O1 O 0.6873(4) 0.2474(2) 0.14874(15)
O2 O 0.6216(4) 0.4326(2) 0.19363(16)
O3 O 0.6162(4) 0.2180(3) 0.27821(15)
O4 O 0.4568(4) 0.3932(2) 0.30650(13)
O5 O 1.2197(4) 0.1935(2) 0.26012(14)
O6 O 0.2014(5) 0.3573(2) 0.17578(18)
O7 O 0.8895(5) 0.2888(2) 0.34963(16)
O8 O 0.9351(4) 0.1645(2) 0.20334(14)
N1 N 0.3128(4) 0.0926(2) 0.13432(15)
N2 N 0.3392(4) 0.2460(2) 0.07022(14)
C1 C 0.2935(6) 0.0177(3) 0.1648(2)
H1 H 0.3128 0.0315 0.2124
C2 C 0.2455(7) -0.0815(3) 0.1294(3)
H2 H 0.2319 -0.1318 0.1530
C3 C 0.2188(7) -0.1032(3) 0.0597(3)
H3 H 0.1887 -0.1686 0.0354
C4 C 0.2372(6) -0.0261(3) 0.0251(2)
C5 C 0.2068(8) -0.0425(4) -0.0478(2)
H4 H 0.1750 -0.1069 -0.0740
C6 C 0.2232(7) 0.0328(4) -0.0792(2)
H5 H 0.2048 0.0198 -0.1267
C7 C 0.2685(6) 0.1329(3) -0.04114(19)
C8 C 0.2814(7) 0.2138(4) -0.0720(2)
H6 H 0.2639 0.2038 -0.1193
C9 C 0.3194(7) 0.3072(4) -0.0326(2)
H7 H 0.3259 0.3611 -0.0525
C10 C 0.3484(6) 0.3193(3) 0.03837(19)
H8 H 0.3760 0.3831 0.0650
C11 C 0.2976(5) 0.1522(3) 0.03071(17)
C12 C 0.2829(5) 0.0714(3) 0.06476(18)
C13 C 0.7605(5) 0.2190(3) 0.31341(18)
C14 C 0.7877(5) 0.1165(3) 0.3149(2)
C15 C 1.0508(5) 0.1620(2) 0.25087(17)
C16 C 0.9757(5) 0.1093(3) 0.30469(19)
H25 H 0.674(7) 0.444(3) 0.166(2)
H26 H 0.620(7) 0.482(4) 0.221(3)
H27 H 0.548(4) 0.444(2) 0.320(2)
H28 H 0.352(4) 0.395(4) 0.313(3)
H29 H 0.731(6) 0.282(3) 0.123(2)
H30 H 0.760(6) 0.228(4) 0.176(2)
H31 H 0.115(10) 0.351(5) 0.150(4)
H32 H 0.179(9) 0.379(5) 0.213(3)
Sm1_2 Sm -0.56164(2) 0.276138(11) 0.202732(8)
Sm1_3 Sm 1.43836(2) 0.276138(11) 0.202732(8)
F1_2 F -0.2360(4) 0.0966(2) 0.37684(16)
F2_2 F -0.3409(4) 0.0441(2) 0.2668(2)
F3_2 F 0.0921(4) 0.1381(3) 0.36545(14)
F4_2 F -0.0392(5) 0.0108(2) 0.2837(2)
O1_2 O -0.3127(4) 0.2474(2) 0.14874(15)
O2_2 O -0.3784(4) 0.4326(2) 0.19363(16)
O3_2 O -0.3838(4) 0.2180(3) 0.27821(15)
O4_2 O -0.5432(4) 0.3932(2) 0.30650(13)
O5_2 O 0.2197(4) 0.1935(2) 0.26012(14)
O5_3 O -0.7803(4) 0.1935(2) 0.26012(14)
O6_2 O -0.7986(5) 0.3573(2) 0.17578(18)
O7_2 O -0.1105(5) 0.2888(2) 0.34963(16)
O8_2 O -0.0649(4) 0.1645(2) 0.20334(14)
N1_2 N -0.6872(4) 0.0926(2) 0.13432(15)
N2_2 N -0.6608(4) 0.2460(2) 0.07022(14)
C1_2 C -0.7065(6) 0.0177(3) 0.1648(2)
H1_2 H -0.6872 0.0315 0.2124
C2_2 C -0.7545(7) -0.0815(3) 0.1294(3)
H2_2 H -0.7681 -0.1318 0.1530
C3_2 C -0.7812(7) -0.1032(3) 0.0597(3)
H3_2 H -0.8113 -0.1686 0.0354
C4_2 C -0.7628(6) -0.0261(3) 0.0251(2)
C5_2 C -0.7932(8) -0.0425(4) -0.0478(2)
H4_2 H -0.8250 -0.1069 -0.0740
C6_2 C -0.7768(7) 0.0328(4) -0.0792(2)
H5_2 H -0.7952 0.0198 -0.1267
C7_2 C -0.7315(6) 0.1329(3) -0.04114(19)
C8_2 C -0.7186(7) 0.2138(4) -0.0720(2)
H6_2 H -0.7361 0.2038 -0.1193
C9_2 C -0.6806(7) 0.3072(4) -0.0326(2)
H7_2 H -0.6741 0.3611 -0.0525
C10_2 C -0.6516(6) 0.3193(3) 0.03837(19)
H8_2 H -0.6240 0.3831 0.0650
C11_2 C -0.7024(5) 0.1522(3) 0.03071(17)
C12_2 C -0.7171(5) 0.0714(3) 0.06476(18)
C13_2 C -0.2395(5) 0.2190(3) 0.31341(18)
C14_2 C -0.2123(5) 0.1165(3) 0.3149(2)
C15_2 C 0.0508(5) 0.1620(2) 0.25087(17)
C16_2 C -0.0243(5) 0.1093(3) 0.30469(19)
H25_2 H -0.326(7) 0.444(3) 0.166(2)
H26_2 H -0.380(7) 0.482(4) 0.221(3)
H27_2 H -0.452(4) 0.444(2) 0.320(2)
H28_2 H -0.648(4) 0.395(4) 0.313(3)
H29_2 H -0.269(6) 0.282(3) 0.123(2)
H30_2 H -0.240(6) 0.228(4) 0.176(2)
H31_2 H -0.885(10) 0.351(5) 0.150(4)
H32_2 H -0.821(9) 0.379(5) 0.213(3)
N3 N 0.5691(5) 0.6085(2) 0.25254(16)
N4 N 0.7377(4) 0.5628(2) 0.36620(16)
C17 C 0.4827(7) 0.6302(3) 0.1994(2)
H9 H 0.4327 0.5806 0.1596
C18 C 0.4619(7) 0.7232(4) 0.1993(3)
H10 H 0.3981 0.7348 0.1605
C19 C 0.5362(7) 0.7971(3) 0.2567(3)
H11 H 0.5252 0.8601 0.2573
C20 C 0.6300(6) 0.7775(3) 0.3150(2)
C21 C 0.7123(7) 0.8509(3) 0.3779(3)
H12 H 0.7039 0.9148 0.3809
C22 C 0.8006(6) 0.8294(3) 0.4321(3)
H13 H 0.8545 0.8790 0.4717
C23 C 0.8139(5) 0.7318(3) 0.4305(2)
C24 C 0.9046(6) 0.7067(4) 0.4866(2)
H14 H 0.9606 0.7545 0.5269
C25 C 0.9105(6) 0.6122(4) 0.4818(2)
H15 H 0.9704 0.5947 0.5187
C26 C 0.8253(6) 0.5416(4) 0.4207(2)
H16 H 0.8297 0.4771 0.4179
C27 C 0.7336(5) 0.6572(3) 0.37022(18)
C28 C 0.6404(5) 0.6804(3) 0.31089(19)
N5 N 0.1379(5) 0.6263(3) 0.30195(19)
N6 N 0.3247(6) 0.6233(3) 0.4260(2)
C29 C 0.0483(7) 0.6276(4) 0.2415(3)
H17 H 0.0074 0.5692 0.2076
C30 C 0.0121(7) 0.7113(5) 0.2259(3)
H18 H -0.0500 0.7091 0.1824
C31 C 0.0683(7) 0.7958(4) 0.2747(3)
H19 H 0.0435 0.8524 0.2653
C32 C 0.1643(6) 0.7990(3) 0.3398(3)
C33 C 0.2255(8) 0.8849(4) 0.3941(3)
H20 H 0.2027 0.9430 0.3869
C34 C 0.1966(5) 0.7103(3) 0.3511(2)
C35 C 0.2949(5) 0.7091(3) 0.4174(2)
C36 C 0.3533(6) 0.7968(4) 0.4693(2)
C37 C 0.4471(8) 0.7948(6) 0.5333(3)
H21 H 0.4879 0.8513 0.5687
C38 C 0.4773(9) 0.7099(7) 0.5427(3)
H22 H 0.5387 0.7069 0.5849
C39 C 0.4156(8) 0.6258(6) 0.4885(4)
H23 H 0.4391 0.5681 0.4961
C40 C 0.3157(8) 0.8839(4) 0.4555(3)
H24 H 0.3548 0.9416 0.4900
F5 F 0.7765(3) 0.4836(2) -0.04145(13)
F6 F 0.9327(4) 0.37983(18) -0.05126(13)
O9 O 0.7771(5) 0.4759(3) 0.08908(17)
O10 O 0.8939(5) 0.3496(3) 0.07034(19)
C41 C 0.8563(6) 0.4237(3) 0.05791(19)
C42 C 0.9121(5) 0.4564(3) -0.00714(17)
F5A F 1.2235(3) 0.5164(2) 0.04145(13)
F6A F 1.0673(4) 0.62017(18) 0.05126(13)
O9A O 1.2229(5) 0.5241(3) -0.08908(17)
O10A O 1.1061(5) 0.6504(3) -0.07034(19)
C41A C 1.1437(6) 0.5763(3) -0.05791(19)
C42A C 1.0879(5) 0.5436(3) 0.00714(17)
O11 O 0.1273(6) 0.4276(3) 0.2978(2)
H33 H 0.035(8) 0.398(4) 0.315(3)
H34 H 0.142(8) 0.481(5) 0.311(3)
loop_
_geom_bond_atom_site_label_1
_geom_bond_atom_site_label_2
_geom_bond_site_symmetry_1
_geom_bond_site_symmetry_2
Sm1 O1 1_555 1_555
F1 C14 1_555 1_555
F2 C14 1_555 1_555
F3 C16 1_555 1_555
F4 C16 1_555 1_555
O1 H29 1_555 1_555
O2 Sm1 1_555 1_555
O3 Sm1 1_555 1_555
O4 Sm1 1_555 1_555
O5 C15 1_555 1_555
O6 Sm1 1_555 1_555
O7 C13 1_555 1_555
O8 C15 1_555 1_555
N1 Sm1 1_555 1_555
N2 Sm1 1_555 1_555
C1 N1 1_555 1_555
H1 C1 1_555 1_555
C2 C1 1_555 1_555
H2 C2 1_555 1_555
C3 C2 1_555 1_555
H3 C3 1_555 1_555
C4 C3 1_555 1_555
C5 C4 1_555 1_555
H4 C5 1_555 1_555
C6 C5 1_555 1_555
H5 C6 1_555 1_555
C7 C6 1_555 1_555
C8 C7 1_555 1_555
H6 C8 1_555 1_555
C9 C8 1_555 1_555
H7 C9 1_555 1_555
C10 N2 1_555 1_555
H8 C10 1_555 1_555
C11 N2 1_555 1_555
C12 N1 1_555 1_555
C13 O3 1_555 1_555
C14 C13 1_555 1_555
C15 C16 1_555 1_555
C16 C14 1_555 1_555
N3 C17 1_555 1_555
N4 C26 1_555 1_555
C17 H9 1_555 1_555
C18 C17 1_555 1_555
H10 C18 1_555 1_555
C19 C18 1_555 1_555
H11 C19 1_555 1_555
C20 C19 1_555 1_555
C21 C20 1_555 1_555
H12 C21 1_555 1_555
C22 C21 1_555 1_555
H13 C22 1_555 1_555
C23 C22 1_555 1_555
C24 C23 1_555 1_555
H14 C24 1_555 1_555
C25 C24 1_555 1_555
H15 C25 1_555 1_555
C26 C25 1_555 1_555
H16 C26 1_555 1_555
C27 N4 1_555 1_555
C28 N3 1_555 1_555
N5 C29 1_555 1_555
N6 C35 1_555 1_555
C29 H17 1_555 1_555
C30 C29 1_555 1_555
H18 C30 1_555 1_555
C31 C30 1_555 1_555
H19 C31 1_555 1_555
C32 C31 1_555 1_555
C33 C32 1_555 1_555
H20 C33 1_555 1_555
C34 N5 1_555 1_555
C35 C34 1_555 1_555
C36 C35 1_555 1_555
C37 C36 1_555 1_555
H21 C37 1_555 1_555
C38 C37 1_555 1_555
H22 C38 1_555 1_555
C39 N6 1_555 1_555
H23 C39 1_555 1_555
C40 C33 1_555 1_555
H24 C40 1_555 1_555
F5 C42 1_555 1_555
F6 C42 1_555 1_555
O9 C41 1_555 1_555
O10 C41 1_555 1_555
C41 C42 1_555 1_555
C42 C42A 1_555 1_555
O11 H33 1_555 1_555
H25 O2 1_555 1_555
H26 O2 1_555 1_555
H27 O4 1_555 1_555
H28 O4 1_555 1_555
H30 O1 1_555 1_555
H31 O6 1_555 1_555
H32 O6 1_555 1_555
H34 O11 1_555 1_555
Sm1_2 O1_2 1_555 1_555
Sm1_3 O5 1_555 1_555
F1_2 C14_2 1_555 1_555
F2_2 C14_2 1_555 1_555
F3_2 C16_2 1_555 1_555
F4_2 C16_2 1_555 1_555
O1_2 H29_2 1_555 1_555
O2_2 Sm1_2 1_555 1_555
O3_2 Sm1_2 1_555 1_555
O4_2 Sm1_2 1_555 1_555
O5_2 Sm1 1_555 1_555
O5_3 Sm1_2 1_555 1_555
O6_2 Sm1_2 1_555 1_555
O7_2 C13_2 1_555 1_555
O8_2 C15_2 1_555 1_555
N1_2 Sm1_2 1_555 1_555
N2_2 Sm1_2 1_555 1_555
C1_2 N1_2 1_555 1_555
H1_2 C1_2 1_555 1_555
C2_2 C1_2 1_555 1_555
H2_2 C2_2 1_555 1_555
C3_2 C2_2 1_555 1_555
H3_2 C3_2 1_555 1_555
C4_2 C3_2 1_555 1_555
C5_2 C4_2 1_555 1_555
H4_2 C5_2 1_555 1_555
C6_2 C5_2 1_555 1_555
H5_2 C6_2 1_555 1_555
C7_2 C6_2 1_555 1_555
C8_2 C7_2 1_555 1_555
H6_2 C8_2 1_555 1_555
C9_2 C8_2 1_555 1_555
H7_2 C9_2 1_555 1_555
C10_2 N2_2 1_555 1_555
H8_2 C10_2 1_555 1_555
C11_2 N2_2 1_555 1_555
C12_2 N1_2 1_555 1_555
C13_2 O3_2 1_555 1_555
C14_2 C13_2 1_555 1_555
C15_2 O5_2 1_555 1_555
C16_2 C14_2 1_555 1_555
F5A C42A 1_555 1_555
F6A C42A 1_555 1_555
O9A C41A 1_555 1_555
O10A C41A 1_555 1_555
C41A C42A 1_555 1_555
H25_2 O2_2 1_555 1_555
H26_2 O2_2 1_555 1_555
H27_2 O4_2 1_555 1_555
H28_2 O4_2 1_555 1_555
H30_2 O1_2 1_555 1_555
H31_2 O6_2 1_555 1_555
H32_2 O6_2 1_555 1_555
C4 C12 1_555 1_555
C7 C11 1_555 1_555
C9 C10 1_555 1_555
C11 C12 1_555 1_555
C20 C28 1_555 1_555
C23 C27 1_555 1_555
C27 C28 1_555 1_555
C32 C34 1_555 1_555
C36 C40 1_555 1_555
C38 C39 1_555 1_555
C4_2 C12_2 1_555 1_555
C7_2 C11_2 1_555 1_555
C9_2 C10_2 1_555 1_555
C11_2 C12_2 1_555 1_555
C15_2 C16_2 1_555 1_555

#END
