
#######################################################################
#
#                 Cambridge Crystallographic Data Centre
#                                CCDC 
#
#######################################################################
#
# If this CIF has been generated from an entry in the Cambridge 
# Structural Database, then it will include bibliographic, chemical, 
# crystal, experimental, refinement or atomic coordinate data resulting 
# from the CCDC's data processing and validation procedures.
#
#######################################################################

data_CONWEI
_symmetry_cell_setting           monoclinic
_symmetry_space_group_name_H-M   'P 21/c'
_symmetry_Int_Tables_number      14
_space_group_name_Hall           '-P 2ybc'
loop_
_symmetry_equiv_pos_site_id
_symmetry_equiv_pos_as_xyz
1 x,y,z
2 -x,1/2+y,1/2-z
3 -x,-y,-z
4 x,1/2-y,1/2+z
_cell_length_a                   8.8931(8)
_cell_length_b                   13.0489(11)
_cell_length_c                   9.0386(8)
_cell_angle_alpha                90
_cell_angle_beta                 108.3690(10)
_cell_angle_gamma                90
_cell_volume                     995.442
loop_
_atom_site_label
_atom_site_type_symbol
_atom_site_fract_x
_atom_site_fract_y
_atom_site_fract_z
Ag1 Ag 0.53710(2) 1.162318(14) 0.98856(2)
S1 S 0.33350(6) 1.02051(4) 0.77163(6)
O1 O 0.5027(2) 1.19519(15) 0.7061(2)
O2 O 0.31981(19) 1.24545(13) 0.48992(18)
N1 N 0.0246(2) 1.00248(13) 0.7435(2)
N2 N 0.2094(2) 0.88785(12) 0.91512(19)
C1 C 0.1694(2) 0.96602(14) 0.8130(2)
C2 C -0.0935(2) 0.95759(16) 0.7836(2)
C3 C -0.0637(3) 0.87903(17) 0.8911(3)
H1 H -0.1456 0.8503 0.9207
C4 C 0.0898(3) 0.84355(15) 0.9542(3)
C5 C -0.2585(3) 0.99669(19) 0.7057(3)
H2 H -0.2869 1.0440 0.7738
H3 H -0.3314 0.9402 0.6831
H4 H -0.2625 1.0309 0.6105
C6 C 0.1301(3) 0.7546(2) 1.0652(3)
H5 H 0.1442 0.6942 1.0105
H6 H 0.0456 0.7437 1.1083
H7 H 0.2262 0.7691 1.1478
C7 C 0.2404(2) 1.12748(16) 0.6488(2)
H8 H 0.1665 1.1021 0.5523
H9 H 0.1818 1.1685 0.7014
C8 C 0.3665(2) 1.19341(15) 0.6131(2)
Ag1C Ag 0.53710(2) 1.337682(14) 0.48856(2)
Ag1B Ag 0.46290(2) 0.837682(14) 1.01144(2)
O2C O 0.31981(19) 1.25455(13) 0.98992(18)
N2B N 0.7906(2) 1.11215(12) 1.08488(19)
loop_
_geom_bond_atom_site_label_1
_geom_bond_atom_site_label_2
_geom_bond_site_symmetry_1
_geom_bond_site_symmetry_2
Ag1 S1 1_555 1_555
S1 C1 1_555 1_555
O1 Ag1 1_555 1_555
O2 C8 1_555 1_555
N1 C1 1_555 1_555
N2 C1 1_555 1_555
C2 N1 1_555 1_555
C3 C2 1_555 1_555
H1 C3 1_555 1_555
C4 N2 1_555 1_555
C5 C2 1_555 1_555
H2 C5 1_555 1_555
H3 C5 1_555 1_555
H4 C5 1_555 1_555
C6 C4 1_555 1_555
H5 C6 1_555 1_555
H6 C6 1_555 1_555
H7 C6 1_555 1_555
C7 S1 1_555 1_555
H8 C7 1_555 1_555
H9 C7 1_555 1_555
C8 O1 1_555 1_555
Ag1C O2 1_555 1_555
Ag1B N2 1_555 1_555
O2C Ag1 1_555 1_555
N2B Ag1 1_555 1_555
C3 C4 1_555 1_555
C7 C8 1_555 1_555

#END
