
#######################################################################
#
#                 Cambridge Crystallographic Data Centre
#                                CCDC 
#
#######################################################################
#
# If this CIF has been generated from an entry in the Cambridge 
# Structural Database, then it will include bibliographic, chemical, 
# crystal, experimental, refinement or atomic coordinate data resulting 
# from the CCDC's data processing and validation procedures.
#
#######################################################################

data_CONZIP
_symmetry_cell_setting           monoclinic
_symmetry_space_group_name_H-M   'C 2/m'
_symmetry_Int_Tables_number      12
_space_group_name_Hall           '-C 2y'
loop_
_symmetry_equiv_pos_site_id
_symmetry_equiv_pos_as_xyz
1 x,y,z
2 -x,y,-z
3 1/2+x,1/2+y,z
4 1/2-x,1/2+y,-z
5 -x,-y,-z
6 x,-y,z
7 1/2-x,1/2-y,-z
8 1/2+x,1/2-y,z
_cell_length_a                   15.601(3)
_cell_length_b                   12.438(3)
_cell_length_c                   12.570(3)
_cell_angle_alpha                90
_cell_angle_beta                 110.02(3)
_cell_angle_gamma                90
_cell_volume                     2291.76
loop_
_atom_site_label
_atom_site_type_symbol
_atom_site_fract_x
_atom_site_fract_y
_atom_site_fract_z
I1 I 0.34673(2) 0.5000 0.39121(3)
Cu1 Cu 0.5000 0.61067(6) 0.5000
S1 S 0.51684(12) 1.0000 0.17045(16)
N1 N 0.5339(2) 0.6845(3) 0.3757(3)
O1 O 0.6548(3) 0.7379(3) 0.0642(4)
C1 C 0.4940(3) 0.6602(4) 0.2674(4)
H1 H 0.4433 0.6151 0.2473
C2 C 0.5232(4) 0.6978(4) 0.1833(4)
H2 H 0.4949 0.6753 0.1089
C3 C 0.5949(3) 0.7692(3) 0.2099(3)
C4 C 0.6368(3) 0.7964(4) 0.3217(4)
H3 H 0.6850 0.8451 0.3431
C5 C 0.6058(3) 0.7500(4) 0.4015(3)
H4 H 0.6369 0.7651 0.4775
C6 C 0.6332(3) 0.8044(4) 0.1218(4)
C7 C 0.7143(3) 0.9393(4) 0.0500(4)
H5 H 0.6924 0.9114 -0.0267
H6 H 0.7750 0.9114 0.0892
C8 C 0.6082(4) 1.0000 0.1338(4)
N2 N 0.6517(2) 0.9113(3) 0.1102(3)
I1A I 0.65327(2) 0.5000 0.60879(3)
Cu1D Cu 0.5000 0.38933(6) 0.5000
Cu1D_2 Cu 0.5000 1.38933(6) 0.5000
N1E N 0.5339(2) 1.3155(3) 0.3757(3)
N1A N 0.4661(2) 0.6845(3) 0.6243(3)
O1E O 0.6548(3) 1.2621(3) 0.0642(4)
C1E C 0.4940(3) 1.3398(4) 0.2674(4)
H1E H 0.4433 1.3849 0.2473
C2E C 0.5232(4) 1.3022(4) 0.1833(4)
H2E H 0.4949 1.3247 0.1089
C3E C 0.5949(3) 1.2308(3) 0.2099(3)
C4E C 0.6368(3) 1.2036(4) 0.3217(4)
H3E H 0.6850 1.1549 0.3431
C5E C 0.6058(3) 1.2500(4) 0.4015(3)
H4E H 0.6369 1.2349 0.4775
C6E C 0.6332(3) 1.1956(4) 0.1218(4)
C7E C 0.7143(3) 1.0607(4) 0.0500(4)
H5E H 0.6924 1.0886 -0.0267
H6E H 0.7750 1.0886 0.0892
N2E N 0.6517(2) 1.0887(3) 0.1102(3)
O2 O 0.4018(15) 0.5000 -0.009(2)
O3 O 0.252(2) 0.5000 -0.270(3)
C9 C 0.1865(19) 0.413(2) -0.273(3)
C10 C 0.134(2) 0.439(3) -0.386(3)
C9E C 0.1865(19) 0.587(2) -0.273(3)
C10E C 0.134(2) 0.561(3) -0.386(3)
loop_
_geom_bond_atom_site_label_1
_geom_bond_atom_site_label_2
_geom_bond_site_symmetry_1
_geom_bond_site_symmetry_2
I1 Cu1 1_555 1_555
Cu1 N1 1_555 1_555
S1 C8 1_555 1_555
N1 C1 1_555 1_555
O1 C6 1_555 1_555
O3 C9 1_555 1_555
C1 H1 1_555 1_555
C2 C1 1_555 1_555
H2 C2 1_555 1_555
C3 C2 1_555 1_555
C4 C3 1_555 1_555
H3 C4 1_555 1_555
C5 N1 1_555 1_555
H4 C5 1_555 1_555
C6 C3 1_555 1_555
C7 H5 1_555 1_555
H6 C7 1_555 1_555
C8 N2 1_555 1_555
C9 C10 1_555 1_555
C10 C10E 1_555 1_555
N2 C6 1_555 1_555
I1A Cu1 1_555 1_555
Cu1D I1 1_555 1_555
Cu1D_2 N1E 1_555 1_555
N1E C1E 1_555 1_555
N1A Cu1 1_555 1_555
O1E C6E 1_555 1_555
C1E H1E 1_555 1_555
C2E C1E 1_555 1_555
H2E C2E 1_555 1_555
C3E C2E 1_555 1_555
C4E C3E 1_555 1_555
H3E C4E 1_555 1_555
C5E N1E 1_555 1_555
H4E C5E 1_555 1_555
C6E C3E 1_555 1_555
C7E C7 1_555 1_555
H5E C7E 1_555 1_555
H6E C7E 1_555 1_555
C9E O3 1_555 1_555
C10E C9E 1_555 1_555
N2E C8 1_555 1_555
C4 C5 1_555 1_555
C7 N2 1_555 1_555
I1A Cu1D 1_555 1_555
C4E C5E 1_555 1_555
C6E N2E 1_555 1_555
C7E N2E 1_555 1_555

#END
