
#######################################################################
#
#                 Cambridge Crystallographic Data Centre
#                                CCDC 
#
#######################################################################
#
# If this CIF has been generated from an entry in the Cambridge 
# Structural Database, then it will include bibliographic, chemical, 
# crystal, experimental, refinement or atomic coordinate data resulting 
# from the CCDC's data processing and validation procedures.
#
#######################################################################

data_COPFOC
_symmetry_cell_setting           monoclinic
_symmetry_space_group_name_H-M   'C 2/c'
_symmetry_Int_Tables_number      15
_space_group_name_Hall           '-C 2yn'
loop_
_symmetry_equiv_pos_site_id
_symmetry_equiv_pos_as_xyz
1 x,y,z
2 1/2+x,1/2+y,z
3 -x,y,1/2-z
4 1/2-x,1/2+y,1/2-z
5 -x,-y,-z
6 1/2-x,1/2-y,-z
7 x,-y,1/2+z
8 1/2+x,1/2-y,1/2+z
_cell_length_a                   19.314(3)
_cell_length_b                   7.914(1)
_cell_length_c                   15.060(2)
_cell_angle_alpha                90
_cell_angle_beta                 137.4(1)
_cell_angle_gamma                90
_cell_volume                     1558.13
loop_
_atom_site_label
_atom_site_type_symbol
_atom_site_fract_x
_atom_site_fract_y
_atom_site_fract_z
Cu1 Cu -0.07067(3) 0.18149(4) 0.43648(4)
N1 N 0.0226(2) 0.3256(3) 0.4501(3)
N2 N -0.0793(2) 0.3920(3) 0.5023(3)
N3 N -0.0983(2) -0.0374(4) 0.2608(3)
N4 N -0.2509(2) 0.0577(4) 0.3112(3)
O1 O -0.1618(2) 0.0636(3) 0.4323(2)
O2 O -0.3176(2) -0.0266(4) 0.2818(3)
O3 O -0.2615(2) 0.1379(4) 0.2319(3)
O4 O -0.0574(2) -0.0254(3) 0.3778(2)
O5 O -0.1255(2) 0.0908(4) 0.1983(3)
O6 O -0.1061(4) -0.1777(4) 0.2233(4)
C1 C 0.0754(3) 0.2905(5) 0.4271(3)
C2 C 0.0277(2) 0.4818(4) 0.4862(3)
C3 C -0.1292(3) 0.4249(4) 0.5293(4)
C4 C 0.1301(3) 0.4154(4) 0.4362(4)
H1 H 0.078(3) 0.179(5) 0.411(4)
H2 H -0.159(3) 0.363(5) 0.528(4)
H3 H 0.163(3) 0.401(5) 0.418(4)
O4D O 0.0574(2) 0.0254(3) 0.6222(2)
C2D C -0.0277(2) 0.5182(4) 0.5138(3)
Cu1D Cu 0.07067(3) -0.18149(4) 0.56352(4)
N2D N 0.0793(2) 0.6080(3) 0.4977(3)
C4D C -0.1301(3) 0.5846(4) 0.5638(4)
C3D C 0.1292(3) 0.5751(4) 0.4707(4)
N3D N 0.0983(2) 0.0374(4) 0.7392(3)
N1D N -0.0226(2) 0.6744(3) 0.5499(3)
N1D_2 N -0.0226(2) -0.3256(3) 0.5499(3)
N2D_2 N 0.0793(2) -0.3920(3) 0.4977(3)
O1D O 0.1618(2) -0.0636(3) 0.5677(2)
O3D O 0.2615(2) -0.1379(4) 0.7681(3)
Cu1D_2 Cu 0.07067(3) 0.81851(4) 0.56352(4)
C1D C -0.0754(3) 0.7095(5) 0.5729(3)
H3D H -0.163(3) 0.599(5) 0.582(4)
H2D H 0.159(3) 0.637(5) 0.472(4)
O5D O 0.1255(2) -0.0908(4) 0.8017(3)
O6D O 0.1061(4) 0.1777(4) 0.7767(4)
N4D N 0.2509(2) -0.0577(4) 0.6888(3)
H1D H -0.078(3) 0.821(5) 0.589(4)
O2D O 0.3176(2) 0.0266(4) 0.7182(3)
loop_
_geom_bond_atom_site_label_1
_geom_bond_atom_site_label_2
_geom_bond_site_symmetry_1
_geom_bond_site_symmetry_2
Cu1 N1 1_555 1_555
N1 C1 1_555 1_555
N2 Cu1 1_555 1_555
N3 O4 1_555 1_555
N4 O1 1_555 1_555
O1 Cu1 1_555 1_555
O2 N4 1_555 1_555
O3 Cu1 1_555 1_555
O4 Cu1 1_555 1_555
O5 N3 1_555 1_555
O6 N3 1_555 1_555
C1 C4 1_555 1_555
C2 N1 1_555 1_555
C3 N2 1_555 1_555
C4 H3 1_555 1_555
H1 C1 1_555 1_555
H2 C3 1_555 1_555
O4D Cu1 1_555 1_555
C2D N2 1_555 1_555
Cu1D O4 1_555 1_555
N2D C2 1_555 1_555
C4D C3 1_555 1_555
C3D C4 1_555 1_555
N3D O4D 1_555 1_555
N1D C2D 1_555 1_555
N1D_2 Cu1D 1_555 1_555
N2D_2 Cu1D 1_555 1_555
O1D Cu1D 1_555 1_555
O3D Cu1D 1_555 1_555
Cu1D_2 N2D 1_555 1_555
C1D C4D 1_555 1_555
H3D C4D 1_555 1_555
H2D C3D 1_555 1_555
O5D N3D 1_555 1_555
O6D N3D 1_555 1_555
N4D O1D 1_555 1_555
H1D C1D 1_555 1_555
O2D N4D 1_555 1_555
N4 O3 1_555 1_555
C2 C2D 1_555 1_555
O4D Cu1D 1_555 1_555
N2D C3D 1_555 1_555
N1D Cu1D_2 1_555 1_555
N1D C1D 1_555 1_555
O3D N4D 1_555 1_555

#END
