
#######################################################################
#
#                 Cambridge Crystallographic Data Centre
#                                CCDC 
#
#######################################################################
#
# If this CIF has been generated from an entry in the Cambridge 
# Structural Database, then it will include bibliographic, chemical, 
# crystal, experimental, refinement or atomic coordinate data resulting 
# from the CCDC's data processing and validation procedures.
#
#######################################################################

data_COPTUX
_symmetry_cell_setting           orthorhombic
_symmetry_space_group_name_H-M   'P b c a'
_symmetry_Int_Tables_number      61
_space_group_name_Hall           '-P 2ac 2ab'
loop_
_symmetry_equiv_pos_site_id
_symmetry_equiv_pos_as_xyz
1 x,y,z
2 1/2-x,-y,1/2+z
3 -x,1/2+y,1/2-z
4 1/2+x,1/2-y,-z
5 -x,-y,-z
6 1/2+x,y,1/2-z
7 x,1/2-y,1/2+z
8 1/2-x,1/2+y,z
_cell_length_a                   13.7371(5)
_cell_length_b                   15.6580(5)
_cell_length_c                   19.9617(7)
_cell_angle_alpha                90
_cell_angle_beta                 90
_cell_angle_gamma                90
_cell_volume                     4293.67
loop_
_atom_site_label
_atom_site_type_symbol
_atom_site_fract_x
_atom_site_fract_y
_atom_site_fract_z
Mn1 Mn 0.11976(2) 0.16384(2) 0.443318(18)
Mn2 Mn 0.41267(2) 0.42816(2) 0.508010(18)
C1 C -0.75157(17) 0.44562(16) 0.03788(12)
C2 C -0.65225(16) 0.46377(15) 0.06823(12)
C3 C -0.64051(18) 0.52738(17) 0.11550(14)
H1 H -0.6941 0.5580 0.1308
C4 C -0.54900(19) 0.54520(17) 0.13980(14)
H2 H -0.5409 0.5881 0.1716
C5 C -0.48224(18) 0.43835(16) 0.07319(13)
H3 H -0.4278 0.4079 0.0592
C6 C -0.57119(17) 0.41838(16) 0.04785(13)
H4 H -0.5775 0.3743 0.0169
C7 C -0.37243(19) 0.52687(18) 0.14156(15)
H5 H -0.3714 0.5882 0.1482
H6 H -0.3259 0.5136 0.1065
C8 C -0.3431(2) 0.38884(19) 0.20217(14)
H7 H -0.3260 0.3708 0.1572
H8 H -0.4090 0.3698 0.2111
C9 C -0.3395(2) 0.48389(18) 0.20593(14)
H9 H -0.2734 0.5015 0.2159
H10 H -0.3808 0.5029 0.2424
C10 C -0.30502(19) 0.33133(17) 0.31390(13)
H11 H -0.3663 0.3493 0.3279
C11 C -0.24573(18) 0.28842(16) 0.35748(12)
H12 H -0.2675 0.2754 0.4004
C12 C -0.15314(17) 0.26447(14) 0.33742(12)
C13 C -0.12251(19) 0.28388(19) 0.27324(13)
H13 H -0.0602 0.2693 0.2591
C14 C -0.1854(2) 0.32492(19) 0.23069(14)
H14 H -0.1657 0.3373 0.1872
C15 C -0.08898(17) 0.21376(15) 0.38512(12)
N1 N -0.47181(14) 0.50148(13) 0.11818(11)
N2 N -0.27535(16) 0.34763(14) 0.25112(11)
N3 N 0.29607(17) 0.38320(16) 0.44149(12)
N4 N 0.23652(15) 0.33505(13) 0.45961(11)
N5 N 0.17371(17) 0.29013(15) 0.47686(14)
N6 N 0.02191(15) 0.16162(13) 0.53249(11)
N7 N -0.00119(16) 0.22064(15) 0.56632(12)
N8 N -0.0233(3) 0.2772(2) 0.5997(2)
N9 N 0.04511(13) 0.03010(12) 0.43149(9)
N10 N 0.03447(16) 0.00058(13) 0.37588(11)
N11 N 0.0251(2) -0.0281(2) 0.32388(13)
N12 N 0.19322(18) 0.15917(19) 0.34914(13)
N13 N 0.1558(2) 0.16399(16) 0.29806(13)
N14 N 0.1154(3) 0.1730(3) 0.24684(17)
O1 O -0.13416(13) 0.16135(13) 0.41935(11)
O2 O -0.00036(12) 0.22885(12) 0.38504(9)
O3 O -0.82127(12) 0.48623(12) 0.06174(9)
O4 O -0.75366(12) 0.39208(12) -0.00811(9)
Mn1F Mn -0.88024(2) 0.33616(2) -0.056682(18)
Mn2C Mn -0.08733(2) 0.07184(2) 0.491990(18)
Mn2G Mn 0.08733(2) -0.07184(2) 0.508010(18)
Mn2A Mn -0.91267(2) 0.57184(2) 0.008010(18)
N6C N 0.52191(15) 0.33838(13) 0.46751(11)
N9G N 0.45489(13) 0.53010(12) 0.43149(9)
N9C N 0.54511(13) 0.46990(12) 0.56851(9)
O1C O 0.36584(13) 0.33865(13) 0.58065(11)
O3A O 0.32127(12) 0.51377(12) 0.56174(9)
O4F O 0.24634(12) 0.10792(12) 0.49189(9)
loop_
_geom_bond_atom_site_label_1
_geom_bond_atom_site_label_2
_geom_bond_site_symmetry_1
_geom_bond_site_symmetry_2
Mn1 N5 1_555 1_555
Mn2 N3 1_555 1_555
C1 C2 1_555 1_555
C2 C3 1_555 1_555
C3 H1 1_555 1_555
C4 C3 1_555 1_555
H2 C4 1_555 1_555
C5 H3 1_555 1_555
C6 C2 1_555 1_555
H4 C6 1_555 1_555
C7 H5 1_555 1_555
H6 C7 1_555 1_555
C8 H7 1_555 1_555
H8 C8 1_555 1_555
C9 C7 1_555 1_555
H9 C9 1_555 1_555
H10 C9 1_555 1_555
C10 H11 1_555 1_555
C11 C10 1_555 1_555
H12 C11 1_555 1_555
C12 C11 1_555 1_555
C13 C12 1_555 1_555
H13 C13 1_555 1_555
C14 C13 1_555 1_555
H14 C14 1_555 1_555
C15 C12 1_555 1_555
N1 C4 1_555 1_555
N2 C8 1_555 1_555
N3 N4 1_555 1_555
N4 N5 1_555 1_555
N6 Mn1 1_555 1_555
N7 N6 1_555 1_555
N8 N7 1_555 1_555
N9 Mn1 1_555 1_555
N10 N9 1_555 1_555
N11 N10 1_555 1_555
N12 Mn1 1_555 1_555
N13 N12 1_555 1_555
N14 N13 1_555 1_555
O1 C15 1_555 1_555
O2 Mn1 1_555 1_555
O3 C1 1_555 1_555
O4 C1 1_555 1_555
Mn1F O4 1_555 1_555
Mn2C N6 1_555 1_555
Mn2G N9 1_555 1_555
Mn2A O3 1_555 1_555
N6C Mn2 1_555 1_555
N9G Mn2 1_555 1_555
N9C Mn2 1_555 1_555
O1C Mn2 1_555 1_555
O3A Mn2 1_555 1_555
O4F Mn1 1_555 1_555
C5 C6 1_555 1_555
C5 N1 1_555 1_555
C7 N1 1_555 1_555
C8 C9 1_555 1_555
C10 N2 1_555 1_555
C14 N2 1_555 1_555
C15 O2 1_555 1_555
N9 Mn2C 1_555 1_555
O1 Mn2C 1_555 1_555

#END
