
#######################################################################
#
#                 Cambridge Crystallographic Data Centre
#                                CCDC 
#
#######################################################################
#
# If this CIF has been generated from an entry in the Cambridge 
# Structural Database, then it will include bibliographic, chemical, 
# crystal, experimental, refinement or atomic coordinate data resulting 
# from the CCDC's data processing and validation procedures.
#
#######################################################################

data_COQRIJ
_symmetry_cell_setting           monoclinic
_symmetry_space_group_name_H-M   'C 2/c'
_symmetry_Int_Tables_number      15
_space_group_name_Hall           '-C 2yn'
loop_
_symmetry_equiv_pos_site_id
_symmetry_equiv_pos_as_xyz
1 x,y,z
2 -x,y,1/2-z
3 1/2+x,1/2+y,z
4 1/2-x,1/2+y,1/2-z
5 -x,-y,-z
6 x,-y,1/2+z
7 1/2-x,1/2-y,-z
8 1/2+x,1/2-y,1/2+z
_cell_length_a                   23.1663(39)
_cell_length_b                   6.2759(9)
_cell_length_c                   10.5464(16)
_cell_angle_alpha                90
_cell_angle_beta                 108.653(12)
_cell_angle_gamma                90
_cell_volume                     1452.79
loop_
_atom_site_label
_atom_site_type_symbol
_atom_site_fract_x
_atom_site_fract_y
_atom_site_fract_z
Sr1 Sr 0.00000 0.71972(4) 0.75000
O1 O 0.02732(10) 1.0609(3) 0.8886(2)
N1 N -0.10678(8) 0.2164(3) 0.3018(2)
N2 N -0.20408(9) 0.1441(3) 0.3955(2)
N3 N -0.18511(12) 0.4577(4) 0.5131(3)
O2 O -0.04187(7) 0.5764(2) 0.3562(1)
O3 O -0.08115(7) 0.6612(3) 0.5169(1)
C1 C -0.07786(8) 0.5472(3) 0.4220(2)
C2 C -0.11981(8) 0.3570(3) 0.3834(2)
C3 C -0.16971(9) 0.3213(3) 0.4322(2)
C4 C -0.18913(11) 0.0082(4) 0.3150(3)
C5 C -0.14075(11) 0.0416(4) 0.2679(3)
H1 H -0.213(1) 0.423(5) 0.532(3)
H2 H -0.163(1) 0.566(6) 0.546(3)
H3 H -0.212(1) -0.120(5) 0.293(3)
H4 H -0.133(1) -0.044(5) 0.224(3)
H5 H 0.005(2) 1.197(6) 0.883(4)
H6 H 0.040(2) 1.036(6) 0.973(4)
O2D O 0.04187(7) 0.4236(2) 0.6438(1)
Sr1D Sr 0.00000 0.28028(4) 0.25000
O1A O -0.02732(10) 1.0609(3) 0.6114(2)
H5A H -0.005(2) 1.197(6) 0.617(4)
H6A H -0.040(2) 1.036(6) 0.527(4)
N1D N 0.10678(8) 0.7836(3) 0.6982(2)
N1E N -0.10678(8) 0.7836(3) 0.8018(2)
C2E C -0.11981(8) 0.6430(3) 0.8834(2)
C1E C -0.07786(8) 0.4528(3) 0.9220(2)
O2E O -0.04187(7) 0.4236(2) 0.8562(1)
O3A O 0.08115(7) 0.6612(3) 0.9831(1)
O3E O -0.08115(7) 0.3388(3) 1.0169(1)
Sr1D_2 Sr 0.00000 0.28028(4) 1.25000
C3E C -0.16971(9) 0.6787(3) 0.9322(2)
N2E N -0.20408(9) 0.8559(3) 0.8955(2)
C4E C -0.18913(11) 0.9918(4) 0.8150(3)
C5E C -0.14075(11) 0.9584(4) 0.7679(3)
H4E H -0.133(1) 1.044(5) 0.724(3)
H3E H -0.212(1) 1.120(5) 0.793(3)
N3E N -0.18511(12) 0.5423(4) 1.0131(3)
H1E H -0.213(1) 0.577(5) 1.032(3)
H2E H -0.163(1) 0.434(6) 1.046(3)
loop_
_geom_bond_atom_site_label_1
_geom_bond_atom_site_label_2
_geom_bond_site_symmetry_1
_geom_bond_site_symmetry_2
Sr1 O1 1_555 1_555
O1 H5 1_555 1_555
N1 C2 1_555 1_555
N2 C3 1_555 1_555
N3 C3 1_555 1_555
O2 C1 1_555 1_555
O3 Sr1 1_555 1_555
C1 O3 1_555 1_555
C2 C1 1_555 1_555
C3 C2 1_555 1_555
C4 N2 1_555 1_555
C5 N1 1_555 1_555
H1 N3 1_555 1_555
H2 N3 1_555 1_555
H3 C4 1_555 1_555
H4 C5 1_555 1_555
H6 O1 1_555 1_555
O2D Sr1 1_555 1_555
Sr1D N1 1_555 1_555
O1A Sr1 1_555 1_555
H5A O1A 1_555 1_555
H6A O1A 1_555 1_555
N1D Sr1 1_555 1_555
N1E Sr1 1_555 1_555
C2E N1E 1_555 1_555
C1E C2E 1_555 1_555
O2E Sr1 1_555 1_555
O3A Sr1 1_555 1_555
O3E C1E 1_555 1_555
Sr1D_2 O3E 1_555 1_555
C3E C2E 1_555 1_555
N2E C3E 1_555 1_555
C4E N2E 1_555 1_555
C5E N1E 1_555 1_555
H4E C5E 1_555 1_555
H3E C4E 1_555 1_555
N3E C3E 1_555 1_555
H1E N3E 1_555 1_555
H2E N3E 1_555 1_555
O2 Sr1D 1_555 1_555
C4 C5 1_555 1_555
C1E O2E 1_555 1_555
C4E C5E 1_555 1_555

#END
