
#######################################################################
#
#                 Cambridge Crystallographic Data Centre
#                                CCDC 
#
#######################################################################
#
# If this CIF has been generated from an entry in the Cambridge 
# Structural Database, then it will include bibliographic, chemical, 
# crystal, experimental, refinement or atomic coordinate data resulting 
# from the CCDC's data processing and validation procedures.
#
#######################################################################

data_CORCAO
_symmetry_cell_setting           monoclinic
_symmetry_space_group_name_H-M   'C c'
_symmetry_Int_Tables_number      9
_space_group_name_Hall           'C -2yc'
loop_
_symmetry_equiv_pos_site_id
_symmetry_equiv_pos_as_xyz
1 x,y,z
2 x,-y,1/2+z
3 1/2+x,1/2+y,z
4 1/2+x,1/2-y,1/2+z
_cell_length_a                   16.403(3)
_cell_length_b                   18.069(4)
_cell_length_c                   17.929(4)
_cell_angle_alpha                90
_cell_angle_beta                 104.80(3)
_cell_angle_gamma                90
_cell_volume                     5137.6
loop_
_atom_site_label
_atom_site_type_symbol
_atom_site_fract_x
_atom_site_fract_y
_atom_site_fract_z
As1 As 0.9216(2) 1.5013(2) 1.52538(19)
As2 As 1.4984(2) 1.4923(2) 1.8188(2)
Se1 Se 0.9755(2) 1.3796(2) 1.5406(2)
Se2 Se 0.8045(2) 1.4987(2) 1.5803(2)
Se3 Se 1.0087(2) 1.5712(2) 1.6347(2)
Se4 Se 1.1457(2) 1.52952(19) 1.6330(2)
Se5 Se 1.4297(2) 1.58284(19) 1.8763(2)
Se6 Se 1.6120(2) 1.4452(2) 1.9166(2)
Se7 Se 1.4134(2) 1.3816(2) 1.8138(2)
Se8 Se 1.2781(2) 1.4337(2) 1.7528(2)
Mn1 Mn 1.1196(3) 1.3861(3) 1.6489(3)
Mn2 Mn 0.6944(3) 1.4358(3) 1.4694(3)
Mn3 Mn 1.2945(4) 1.5780(3) 1.7587(3)
N1 N 1.0614(18) 1.3682(15) 1.7496(16)
N2 N 1.1243(14) 1.2639(12) 1.6772(14)
N3 N 1.2043(14) 1.3301(12) 1.5813(12)
N4 N 0.621(2) 1.3882(16) 1.5440(16)
N5 N 0.6954(16) 1.3126(14) 1.4580(15)
N6 N 0.7656(18) 1.4068(15) 1.3787(14)
N7 N 1.1992(17) 1.6230(16) 1.8220(16)
N8 N 1.2763(19) 1.6977(14) 1.7313(17)
N9 N 1.3526(15) 1.6028(13) 1.6592(13)
C1 C 1.033(2) 1.422(2) 1.7883(18)
H1 H 1.0446 1.4706 1.7772
C2 C 0.989(2) 1.411(2) 1.8433(19)
H2 H 0.9657 1.4503 1.8645
C3 C 0.980(2) 1.3383(19) 1.8654(19)
H3 H 0.9573 1.3291 1.9069
C4 C 1.006(2) 1.2779(19) 1.8260(18)
H4 H 0.9946 1.2291 1.8366
C5 C 1.048(2) 1.2969(18) 1.7698(18)
C6 C 1.083(2) 1.2392(18) 1.7323(19)
C7 C 1.077(2) 1.162(2) 1.7373(18)
H5 H 1.0467 1.1437 1.7707
C8 C 1.110(2) 1.113(2) 1.6987(19)
H6 H 1.1035 1.0626 1.7051
C9 C 1.160(2) 1.1404(16) 1.6449(17)
H7 H 1.1862 1.1090 1.6173
C10 C 1.162(2) 1.220(2) 1.6396(19)
C11 C 1.210(2) 1.2516(19) 1.591(2)
C12 C 1.264(2) 1.211(2) 1.5526(18)
H8 H 1.2659 1.1595 1.5531
C13 C 1.313(2) 1.251(2) 1.516(2)
H9 H 1.3487 1.2250 1.4921
C14 C 1.313(3) 1.327(2) 1.511(2)
H10 H 1.3495 1.3515 1.4867
C15 C 1.254(2) 1.369(2) 1.545(2)
H11 H 1.2506 1.4205 1.5424
C16 C 0.580(2) 1.425(2) 1.5878(19)
H12 H 0.5783 1.4765 1.5827
C17 C 0.538(2) 1.396(2) 1.641(2)
H13 H 0.5203 1.4274 1.6741
C18 C 0.524(2) 1.317(2) 1.644(2)
H14 H 0.4900 1.2962 1.6731
C19 C 0.564(2) 1.2778(18) 1.600(2)
H15 H 0.5606 1.2264 1.6004
C20 C 0.615(2) 1.312(2) 1.5519(18)
C21 C 0.659(2) 1.2681(17) 1.5017(18)
C22 C 0.667(2) 1.1922(18) 1.5026(18)
H16 H 0.6461 1.1639 1.5368
C23 C 0.706(2) 1.1596(19) 1.454(2)
H17 H 0.7078 1.1082 1.4512
C24 C 0.744(2) 1.2047(18) 1.4049(18)
H18 H 0.7715 1.1837 1.3710
C25 C 0.736(2) 1.2811(19) 1.411(2)
C26 C 0.776(2) 1.3316(19) 1.3671(19)
C27 C 0.825(2) 1.308(2) 1.3169(19)
H19 H 0.8350 1.2585 1.3101
C28 C 0.859(2) 1.367(2) 1.275(2)
H20 H 0.8923 1.3545 1.2421
C29 C 0.841(2) 1.439(3) 1.286(2)
H21 H 0.8598 1.4763 1.2585
C30 C 0.7944(19) 1.457(2) 1.3402(19)
H22 H 0.7840 1.5069 1.3484
C31 C 1.155(2) 1.581(2) 1.8584(18)
H23 H 1.1668 1.5301 1.8624
C32 C 1.093(2) 1.608(2) 1.891(2)
H24 H 1.0633 1.5759 1.9146
C33 C 1.075(3) 1.683(3) 1.887(2)
H25 H 1.0335 1.7028 1.9085
C34 C 1.124(2) 1.727(2) 1.848(2)
H26 H 1.1123 1.7775 1.8444
C35 C 1.188(2) 1.701(2) 1.814(2)
C36 C 1.237(2) 1.740(2) 1.7711(19)
C37 C 1.232(2) 1.8198(16) 1.7656(18)
H27 H 1.1987 1.8494 1.7887
C38 C 1.285(2) 1.846(2) 1.719(2)
H28 H 1.2902 1.8974 1.7161
C39 C 1.328(2) 1.804(2) 1.6794(19)
H29 H 1.3608 1.8248 1.6501
C40 C 1.320(2) 1.7286(17) 1.684(2)
C41 C 1.360(2) 1.6754(18) 1.6383(17)
C42 C 1.397(3) 1.696(2) 1.580(2)
H30 H 1.4020 1.7461 1.5698
C43 C 1.426(2) 1.644(2) 1.537(2)
H31 H 1.4513 1.6590 1.4987
C44 C 1.4165(17) 1.5652(19) 1.5523(16)
H32 H 1.4326 1.5275 1.5238
C45 C 1.3805(18) 1.5524(18) 1.6146(16)
H33 H 1.3751 1.5030 1.6271
Se6A Se 0.6120(2) 1.5548(2) 1.4166(2)
Mn2A Mn 1.6944(3) 1.5642(3) 1.9694(3)
loop_
_geom_bond_atom_site_label_1
_geom_bond_atom_site_label_2
_geom_bond_site_symmetry_1
_geom_bond_site_symmetry_2
As1 Se1 1_555 1_555
As2 Se5 1_555 1_555
Se1 Mn1 1_555 1_555
Se2 As1 1_555 1_555
Se3 As1 1_555 1_555
Se4 Se3 1_555 1_555
Se5 Mn3 1_555 1_555
Se6 As2 1_555 1_555
Se7 As2 1_555 1_555
Se8 Se7 1_555 1_555
Mn1 Se4 1_555 1_555
Mn2 Se2 1_555 1_555
Mn3 Se4 1_555 1_555
N1 Mn1 1_555 1_555
N2 Mn1 1_555 1_555
N3 Mn1 1_555 1_555
N4 Mn2 1_555 1_555
N5 Mn2 1_555 1_555
N6 Mn2 1_555 1_555
N7 Mn3 1_555 1_555
N8 Mn3 1_555 1_555
N9 Mn3 1_555 1_555
C1 N1 1_555 1_555
H1 C1 1_555 1_555
C2 C1 1_555 1_555
H2 C2 1_555 1_555
C3 C2 1_555 1_555
H3 C3 1_555 1_555
C4 C3 1_555 1_555
H4 C4 1_555 1_555
C5 N1 1_555 1_555
C6 N2 1_555 1_555
C7 C6 1_555 1_555
H5 C7 1_555 1_555
C8 C7 1_555 1_555
H6 C8 1_555 1_555
C9 C8 1_555 1_555
H7 C9 1_555 1_555
C10 N2 1_555 1_555
C11 N3 1_555 1_555
C12 C11 1_555 1_555
H8 C12 1_555 1_555
C13 C12 1_555 1_555
H9 C13 1_555 1_555
C14 C13 1_555 1_555
H10 C14 1_555 1_555
C15 N3 1_555 1_555
H11 C15 1_555 1_555
C16 N4 1_555 1_555
H12 C16 1_555 1_555
C17 C16 1_555 1_555
H13 C17 1_555 1_555
C18 C17 1_555 1_555
H14 C18 1_555 1_555
C19 C18 1_555 1_555
H15 C19 1_555 1_555
C20 N4 1_555 1_555
C21 N5 1_555 1_555
C22 C21 1_555 1_555
H16 C22 1_555 1_555
C23 C22 1_555 1_555
H17 C23 1_555 1_555
C24 C23 1_555 1_555
H18 C24 1_555 1_555
C25 N5 1_555 1_555
C26 N6 1_555 1_555
C27 C26 1_555 1_555
H19 C27 1_555 1_555
C28 C27 1_555 1_555
H20 C28 1_555 1_555
C29 C28 1_555 1_555
H21 C29 1_555 1_555
C30 N6 1_555 1_555
H22 C30 1_555 1_555
C31 N7 1_555 1_555
H23 C31 1_555 1_555
C32 C31 1_555 1_555
H24 C32 1_555 1_555
C33 C32 1_555 1_555
H25 C33 1_555 1_555
C34 C33 1_555 1_555
H26 C34 1_555 1_555
C35 N7 1_555 1_555
C36 N8 1_555 1_555
C37 C36 1_555 1_555
H27 C37 1_555 1_555
C38 C37 1_555 1_555
H28 C38 1_555 1_555
C39 C38 1_555 1_555
H29 C39 1_555 1_555
C40 N8 1_555 1_555
C41 N9 1_555 1_555
C42 C41 1_555 1_555
H30 C42 1_555 1_555
C43 C42 1_555 1_555
H31 C43 1_555 1_555
C44 C43 1_555 1_555
H32 C44 1_555 1_555
C45 N9 1_555 1_555
H33 C45 1_555 1_555
Se6A Mn2 1_555 1_555
Mn2A Se6 1_555 1_555
Se8 Mn1 1_555 1_555
Se8 Mn3 1_555 1_555
C4 C5 1_555 1_555
C5 C6 1_555 1_555
C9 C10 1_555 1_555
C10 C11 1_555 1_555
C14 C15 1_555 1_555
C19 C20 1_555 1_555
C20 C21 1_555 1_555
C24 C25 1_555 1_555
C25 C26 1_555 1_555
C29 C30 1_555 1_555
C34 C35 1_555 1_555
C35 C36 1_555 1_555
C39 C40 1_555 1_555
C40 C41 1_555 1_555
C44 C45 1_555 1_555

#END
