
#######################################################################
#
#                 Cambridge Crystallographic Data Centre
#                                CCDC 
#
#######################################################################
#
# If this CIF has been generated from an entry in the Cambridge 
# Structural Database, then it will include bibliographic, chemical, 
# crystal, experimental, refinement or atomic coordinate data resulting 
# from the CCDC's data processing and validation procedures.
#
#######################################################################

data_CORHEY
_symmetry_cell_setting           monoclinic
_symmetry_space_group_name_H-M   'P 21/c'
_symmetry_Int_Tables_number      14
_space_group_name_Hall           '-P 2ybc'
loop_
_symmetry_equiv_pos_site_id
_symmetry_equiv_pos_as_xyz
1 x,y,z
2 -x,1/2+y,1/2-z
3 -x,-y,-z
4 x,1/2-y,1/2+z
_cell_length_a                   10.420(3)
_cell_length_b                   10.781(4)
_cell_length_c                   17.833(8)
_cell_angle_alpha                90
_cell_angle_beta                 91.849(7)
_cell_angle_gamma                90
_cell_volume                     2002.28
loop_
_atom_site_label
_atom_site_type_symbol
_atom_site_fract_x
_atom_site_fract_y
_atom_site_fract_z
Bi1 Bi 0.200102(16) 0.365989(16) 0.169554(10)
S1 S 0.34553(12) 0.52929(12) 0.24830(7)
S2 S 0.09417(13) 0.63714(11) 0.30189(8)
S3 S -0.06969(12) 0.68439(12) 0.43883(7)
S4 S 0.30077(12) 0.17961(12) 0.25663(7)
S5 S 0.11934(11) 0.03921(11) 0.35597(7)
S6 S -0.13129(12) 0.05672(11) 0.44038(7)
N1 N 0.2586(4) 0.5301(4) 0.3891(2)
N2 N 0.1583(4) 0.5700(4) 0.4301(2)
N3 N 0.0998(4) 0.2726(4) 0.3298(2)
N4 N -0.0004(4) 0.2364(4) 0.3725(2)
C1 C 0.3649(5) 0.3409(4) 0.0934(3)
C2 C 0.3429(5) 0.3373(5) 0.0161(3)
H1 H 0.2575 0.3431 -0.0040
C3 C 0.4439(5) 0.3252(5) -0.0318(3)
H2 H 0.4281 0.3227 -0.0846
C4 C 0.5693(5) 0.3168(5) -0.0020(3)
H3 H 0.6391 0.3088 -0.0347
C5 C 0.5922(5) 0.3202(5) 0.0745(3)
H4 H 0.6777 0.3149 0.0945
C6 C 0.4895(5) 0.3312(5) 0.1227(3)
H5 H 0.5050 0.3321 0.1755
C7 C 0.2401(5) 0.5585(4) 0.3193(3)
C8 C 0.0600(5) 0.6295(4) 0.3962(3)
C9 C 0.1711(5) 0.1773(5) 0.3147(3)
C10 C -0.0107(5) 0.1175(4) 0.3917(3)
H6 H 0.169(6) 0.564(6) 0.4804(12)
H7 H -0.061(4) 0.292(4) 0.382(3)
Bi1A Bi -0.200102(16) -0.134011(16) 0.330446(10)
Bi1A_2 Bi -0.200102(16) 0.865989(16) 0.330446(10)
S3A S 0.06969(12) 0.18439(12) 0.06117(7)
S6A S 0.13129(12) 0.55672(11) 0.05962(7)
O1 O 0.1918(3) 0.5997(3) 0.5850(2)
C11 C 0.3974(5) 0.5063(5) 0.5815(3)
H8 H 0.4781 0.5530 0.5805
H9 H 0.3693 0.4852 0.5301
H10 H 0.4107 0.4301 0.6106
C12 C 0.2976(5) 0.5833(4) 0.6167(3)
C13 C 0.3292(6) 0.6401(5) 0.6909(3)
H11 H 0.2502 0.6693 0.7135
H12 H 0.3875 0.7103 0.6844
H13 H 0.3707 0.5782 0.7238
loop_
_geom_bond_atom_site_label_1
_geom_bond_atom_site_label_2
_geom_bond_site_symmetry_1
_geom_bond_site_symmetry_2
Bi1 S1 1_555 1_555
S1 C7 1_555 1_555
S2 C7 1_555 1_555
S3 C8 1_555 1_555
S4 Bi1 1_555 1_555
S5 C9 1_555 1_555
S6 C10 1_555 1_555
N1 N2 1_555 1_555
N2 C8 1_555 1_555
N3 N4 1_555 1_555
N4 C10 1_555 1_555
C1 Bi1 1_555 1_555
C2 C1 1_555 1_555
H1 C2 1_555 1_555
C3 C2 1_555 1_555
H2 C3 1_555 1_555
C4 C3 1_555 1_555
H3 C4 1_555 1_555
C5 C4 1_555 1_555
H4 C5 1_555 1_555
C6 C1 1_555 1_555
H5 C6 1_555 1_555
C7 N1 1_555 1_555
C8 S2 1_555 1_555
C9 S4 1_555 1_555
C10 S5 1_555 1_555
H6 N2 1_555 1_555
H7 N4 1_555 1_555
O1 C12 1_555 1_555
C11 H8 1_555 1_555
H9 C11 1_555 1_555
H10 C11 1_555 1_555
C12 C11 1_555 1_555
C13 C12 1_555 1_555
H11 C13 1_555 1_555
H12 C13 1_555 1_555
H13 C13 1_555 1_555
Bi1A S6 1_555 1_555
Bi1A_2 S3 1_555 1_555
S3A Bi1 1_555 1_555
S6A Bi1 1_555 1_555
N3 C9 1_555 1_555
C5 C6 1_555 1_555

#END
