
#######################################################################
#
#                 Cambridge Crystallographic Data Centre
#                                CCDC 
#
#######################################################################
#
# If this CIF has been generated from an entry in the Cambridge 
# Structural Database, then it will include bibliographic, chemical, 
# crystal, experimental, refinement or atomic coordinate data resulting 
# from the CCDC's data processing and validation procedures.
#
#######################################################################

data_CORHAS06
_symmetry_cell_setting           monoclinic
_symmetry_space_group_name_H-M   'C 2/c'
_symmetry_Int_Tables_number      15
_space_group_name_Hall           '-C 2yn'
loop_
_symmetry_equiv_pos_site_id
_symmetry_equiv_pos_as_xyz
1 x,y,z
2 -x,y,1/2-z
3 1/2+x,1/2+y,z
4 1/2-x,1/2+y,1/2-z
5 -x,-y,-z
6 x,-y,1/2+z
7 1/2-x,1/2-y,-z
8 1/2+x,1/2-y,1/2+z
_cell_length_a                   14.886(4)
_cell_length_b                   13.839(3)
_cell_length_c                   7.0144(14)
_cell_angle_alpha                90
_cell_angle_beta                 108.50(3)
_cell_angle_gamma                90
_cell_volume                     1370.34
loop_
_atom_site_label
_atom_site_type_symbol
_atom_site_fract_x
_atom_site_fract_y
_atom_site_fract_z
Cu1 Cu 0.0000 0.20077(5) 0.2500
S1 S 0.0000 0.13938(10) 0.7500
O1 O 0.09709(17) 0.10385(19) 0.2565(4)
H1 H 0.1531 0.1218 0.2467
H2 H 0.0855 0.0412 0.2697
O2 O 0.0365(2) 0.1986(2) 0.6178(4)
O3 O 0.07694(18) 0.0761(2) 0.8769(4)
N1 N 0.0905(2) 0.3103(2) 0.2643(5)
C1 C 0.1810(3) 0.3066(3) 0.2738(6)
H3 H 0.2096 0.2466 0.2768
C2 C 0.2345(3) 0.3906(4) 0.2796(7)
H4 H 0.2976 0.3862 0.2851
C3 C 0.1931(3) 0.4793(4) 0.2770(7)
H5 H 0.2282 0.5354 0.2826
C4 C 0.0977(3) 0.4850(3) 0.2658(6)
C5 C 0.0494(3) 0.3982(3) 0.2588(6)
C6 C 0.0466(3) 0.5735(3) 0.2568(7)
H6 H 0.0778 0.6321 0.2602
Cu1_2 Cu 0.0000 0.20077(5) 1.2500
O1A O -0.09709(17) 0.10385(19) 0.2435(4)
H1A H -0.1531 0.1218 0.2533
H2A H -0.0855 0.0412 0.2303
O2A O -0.0365(2) 0.1986(2) 0.8822(4)
O2A_2 O -0.0365(2) 0.1986(2) -0.1178(4)
O3A O -0.07694(18) 0.0761(2) 0.6231(4)
N1A N -0.0905(2) 0.3103(2) 0.2357(5)
C1A C -0.1810(3) 0.3066(3) 0.2262(6)
H3A H -0.2096 0.2466 0.2232
C2A C -0.2345(3) 0.3906(4) 0.2204(7)
H4A H -0.2976 0.3862 0.2149
C3A C -0.1931(3) 0.4793(4) 0.2230(7)
H5A H -0.2282 0.5354 0.2174
C4A C -0.0977(3) 0.4850(3) 0.2342(6)
C5A C -0.0494(3) 0.3982(3) 0.2412(6)
C6A C -0.0466(3) 0.5735(3) 0.2432(7)
H6A H -0.0778 0.6321 0.2398
loop_
_geom_bond_atom_site_label_1
_geom_bond_atom_site_label_2
_geom_bond_site_symmetry_1
_geom_bond_site_symmetry_2
Cu1 O1 1_555 1_555
S1 O2 1_555 1_555
O1 H1 1_555 1_555
H2 O1 1_555 1_555
O2 Cu1 1_555 1_555
O3 S1 1_555 1_555
N1 Cu1 1_555 1_555
C1 N1 1_555 1_555
H3 C1 1_555 1_555
C2 C1 1_555 1_555
H4 C2 1_555 1_555
C3 C2 1_555 1_555
H5 C3 1_555 1_555
C4 C3 1_555 1_555
C5 N1 1_555 1_555
C6 C4 1_555 1_555
H6 C6 1_555 1_555
Cu1_2 O2A 1_555 1_555
O1A Cu1 1_555 1_555
H1A O1A 1_555 1_555
H2A O1A 1_555 1_555
O2A S1 1_555 1_555
O2A_2 Cu1 1_555 1_555
O3A S1 1_555 1_555
N1A Cu1 1_555 1_555
C1A N1A 1_555 1_555
H3A C1A 1_555 1_555
C2A C1A 1_555 1_555
H4A C2A 1_555 1_555
C3A C2A 1_555 1_555
H5A C3A 1_555 1_555
C4A C3A 1_555 1_555
C5A C5 1_555 1_555
C6A C6 1_555 1_555
H6A C6A 1_555 1_555
C4 C5 1_555 1_555
N1A C5A 1_555 1_555
C4A C5A 1_555 1_555
C4A C6A 1_555 1_555

#END
