
#######################################################################
#
#                 Cambridge Crystallographic Data Centre
#                                CCDC 
#
#######################################################################
#
# If this CIF has been generated from an entry in the Cambridge 
# Structural Database, then it will include bibliographic, chemical, 
# crystal, experimental, refinement or atomic coordinate data resulting 
# from the CCDC's data processing and validation procedures.
#
#######################################################################

data_CORHAS08
_symmetry_cell_setting           monoclinic
_symmetry_space_group_name_H-M   'C 2/c'
_symmetry_Int_Tables_number      15
_space_group_name_Hall           '-C 2yn'
loop_
_symmetry_equiv_pos_site_id
_symmetry_equiv_pos_as_xyz
1 x,y,z
2 -x,y,1/2-z
3 1/2+x,1/2+y,z
4 1/2-x,1/2+y,1/2-z
5 -x,-y,-z
6 x,-y,1/2+z
7 1/2-x,1/2-y,-z
8 1/2+x,1/2-y,1/2+z
_cell_length_a                   14.876(4)
_cell_length_b                   13.839(3)
_cell_length_c                   7.0214(17)
_cell_angle_alpha                90
_cell_angle_beta                 108.624(4)
_cell_angle_gamma                90
_cell_volume                     1369.79
loop_
_atom_site_label
_atom_site_type_symbol
_atom_site_fract_x
_atom_site_fract_y
_atom_site_fract_z
Cu1 Cu 0.5000 0.79928(4) 0.7500
S1 S 0.5000 0.86073(9) 0.2500
O1 O 0.59760(19) 0.89706(19) 0.7564(4)
O2 O 0.5370(2) 0.80183(19) 0.1187(4)
O3 O 0.5768(2) 0.9240(2) 0.3773(4)
N1 N 0.4096(2) 0.6898(2) 0.7368(5)
C1 C 0.3189(3) 0.6927(3) 0.7270(7)
H1 H 0.2900 0.7525 0.7245
C2 C 0.2655(3) 0.6090(4) 0.7204(7)
H2 H 0.2021 0.6134 0.7134
C3 C 0.3067(3) 0.5210(4) 0.7244(7)
H3 H 0.2715 0.4650 0.7194
C4 C 0.4027(3) 0.5148(3) 0.7362(6)
C5 C 0.4511(3) 0.6019(3) 0.7428(5)
C6 C 0.4542(3) 0.4259(3) 0.7444(7)
H4 H 0.4232 0.3673 0.7420
O2A O 0.4630(2) 0.80183(19) 0.3813(4)
O3A O 0.4232(2) 0.9240(2) 0.1227(4)
N1A N 0.5904(2) 0.6898(2) 0.7632(5)
C1A C 0.6811(3) 0.6927(3) 0.7730(7)
H1A H 0.7100 0.7525 0.7755
C2A C 0.7345(3) 0.6090(4) 0.7796(7)
H2A H 0.7979 0.6134 0.7866
C3A C 0.6933(3) 0.5210(4) 0.7756(7)
H3A H 0.7285 0.4650 0.7806
C4A C 0.5973(3) 0.5148(3) 0.7638(6)
C5A C 0.5489(3) 0.6019(3) 0.7572(5)
C6A C 0.5458(3) 0.4259(3) 0.7556(7)
H4A H 0.5768 0.3673 0.7580
O1A O 0.40240(19) 0.89706(19) 0.7436(4)
Cu1_2 Cu 0.5000 0.79928(4) -0.2500
O2_2 O 0.5370(2) 0.80183(19) 1.1187(4)
loop_
_geom_bond_atom_site_label_1
_geom_bond_atom_site_label_2
_geom_bond_site_symmetry_1
_geom_bond_site_symmetry_2
Cu1 O1 1_555 1_555
S1 O2 1_555 1_555
O2 Cu1_2 1_555 1_555
O3 S1 1_555 1_555
N1 Cu1 1_555 1_555
C1 N1 1_555 1_555
H1 C1 1_555 1_555
C2 C1 1_555 1_555
H2 C2 1_555 1_555
C3 C2 1_555 1_555
H3 C3 1_555 1_555
C4 C3 1_555 1_555
C5 N1 1_555 1_555
C6 C4 1_555 1_555
H4 C6 1_555 1_555
O2A Cu1 1_555 1_555
O3A S1 1_555 1_555
N1A Cu1 1_555 1_555
C1A N1A 1_555 1_555
H1A C1A 1_555 1_555
C2A C1A 1_555 1_555
H2A C2A 1_555 1_555
C3A C2A 1_555 1_555
H3A C3A 1_555 1_555
C4A C3A 1_555 1_555
C5A C5 1_555 1_555
C6A C6 1_555 1_555
H4A C6A 1_555 1_555
O1A Cu1 1_555 1_555
O2_2 Cu1 1_555 1_555
S1 O2A 1_555 1_555
C4 C5 1_555 1_555
N1A C5A 1_555 1_555
C4A C5A 1_555 1_555
C4A C6A 1_555 1_555

#END
