
#######################################################################
#
#                 Cambridge Crystallographic Data Centre
#                                CCDC 
#
#######################################################################
#
# If this CIF has been generated from an entry in the Cambridge 
# Structural Database, then it will include bibliographic, chemical, 
# crystal, experimental, refinement or atomic coordinate data resulting 
# from the CCDC's data processing and validation procedures.
#
#######################################################################

data_CORMIF10
_symmetry_cell_setting           orthorhombic
_symmetry_space_group_name_H-M   'P b a m'
_symmetry_Int_Tables_number      55
_space_group_name_Hall           '-P 2 2ab'
loop_
_symmetry_equiv_pos_site_id
_symmetry_equiv_pos_as_xyz
1 x,y,z
2 -x,-y,z
3 1/2+x,1/2-y,-z
4 1/2-x,1/2+y,-z
5 -x,-y,-z
6 x,y,-z
7 1/2-x,1/2+y,z
8 1/2+x,1/2-y,z
_cell_length_a                   14.935(2)
_cell_length_b                   13.409(3)
_cell_length_c                   15.959(3)
_cell_angle_alpha                90
_cell_angle_beta                 90
_cell_angle_gamma                90
_cell_volume                     3196
loop_
_atom_site_label
_atom_site_type_symbol
_atom_site_fract_x
_atom_site_fract_y
_atom_site_fract_z
Sn1 Sn 0.2437 0.1522 0.0000
Cl1 Cl 0.3570(2) 0.2797(3) 0.0000
Cl2 Cl 0.1288(3) 0.2751(3) 0.0000
C1 C 0.2508(4) 0.0964(4) 0.1227(3)
C2 C 0.2504(4) -0.0056(4) 0.1401(3)
C3 C 0.2576(4) -0.0387(4) 0.2227(3)
C4 C 0.2652(4) 0.0300(4) 0.2879(3)
C5 C 0.2656(4) 0.1320(4) 0.2705(3)
C6 C 0.2585(4) 0.1652(4) 0.1879(3)
N2 N 0.0857(7) 0.0423(8) 0.0000
C15 C 0.0415(6) 0.0207(7) 0.0687(6)
N3 N 0.4153(7) 0.0417(7) 0.0000
C16 C 0.4578(6) 0.0201(7) 0.0690(6)
H1 H 0.2445 -0.0588 0.0896
H2 H 0.2572 -0.1177 0.2361
H3 H 0.2707 0.0043 0.3518
H4 H 0.2715 0.1852 0.3210
H5 H 0.2588 0.2441 0.1745
H13 H 0.0739 0.0349 0.1280
H14 H 0.4256 0.0354 0.1282
C1E C 0.2508(4) 0.0964(4) -0.1227(3)
C15E C 0.0415(6) 0.0207(7) -0.0687(6)
C15A C -0.0415(6) -0.0207(7) 0.0687(6)
C16E C 0.4578(6) 0.0201(7) -0.0690(6)
C16A C 0.5422(6) -0.0201(7) 0.0690(6)
C2E C 0.2504(4) -0.0056(4) -0.1401(3)
C6E C 0.2585(4) 0.1652(4) -0.1879(3)
C15D C -0.0415(6) -0.0207(7) -0.0687(6)
H13E H 0.0739 0.0349 -0.1280
N2A N -0.0857(7) -0.0423(8) 0.0000
H13A H -0.0739 -0.0349 0.1280
C16D C 0.5422(6) -0.0201(7) -0.0690(6)
H14E H 0.4256 0.0354 -0.1282
N3A N 0.5847(7) -0.0417(7) 0.0000
H14A H 0.5744 -0.0354 0.1282
C3E C 0.2576(4) -0.0387(4) -0.2227(3)
H1E H 0.2445 -0.0588 -0.0896
C5E C 0.2656(4) 0.1320(4) -0.2705(3)
H5E H 0.2588 0.2441 -0.1745
H13D H -0.0739 -0.0349 -0.1280
Sn1A Sn -0.2437 -0.1522 0.0000
H14D H 0.5744 -0.0354 -0.1282
Sn1A_2 Sn 0.7563 -0.1522 0.0000
C4E C 0.2652(4) 0.0300(4) -0.2879(3)
H2E H 0.2572 -0.1177 -0.2361
H4E H 0.2715 0.1852 -0.3210
Cl1A Cl -0.3570(2) -0.2797(3) 0.0000
Cl2A Cl -0.1288(3) -0.2751(3) 0.0000
C1D C -0.2508(4) -0.0964(4) -0.1227(3)
C1A C -0.2508(4) -0.0964(4) 0.1227(3)
N3A_2 N -0.4153(7) -0.0417(7) 0.0000
H3E H 0.2707 0.0043 -0.3518
C2D C -0.2504(4) 0.0056(4) -0.1401(3)
C6D C -0.2585(4) -0.1652(4) -0.1879(3)
C2A C -0.2504(4) 0.0056(4) 0.1401(3)
C6A C -0.2585(4) -0.1652(4) 0.1879(3)
C3D C -0.2576(4) 0.0387(4) -0.2227(3)
H1D H -0.2445 0.0588 -0.0896
C5D C -0.2656(4) -0.1320(4) -0.2705(3)
H5D H -0.2588 -0.2441 -0.1745
C3A C -0.2576(4) 0.0387(4) 0.2227(3)
H1A H -0.2445 0.0588 0.0896
C5A C -0.2656(4) -0.1320(4) 0.2705(3)
H5A H -0.2588 -0.2441 0.1745
C4D C -0.2652(4) -0.0300(4) -0.2879(3)
H2D H -0.2572 0.1177 -0.2361
H4D H -0.2715 -0.1852 -0.3210
C4A C -0.2652(4) -0.0300(4) 0.2879(3)
H2A H -0.2572 0.1177 0.2361
H4A H -0.2715 -0.1852 0.3210
H3D H -0.2707 -0.0043 -0.3518
H3A H -0.2707 -0.0043 0.3518
Sn2 Sn 0.1021 0.2188 0.5000
Cl3 Cl 0.2427(3) 0.2961(4) 0.5000
Cl4 Cl 0.1531(3) 0.0488(3) 0.5000
C7 C 0.0457(5) 0.2230(5) 0.3789(3)
C8 C 0.0703(5) 0.2971(5) 0.3222(3)
C9 C 0.0384(5) 0.2943(5) 0.2401(3)
C10 C -0.0183(5) 0.2173(5) 0.2147(3)
C11 C -0.0430(5) 0.1431(5) 0.2715(3)
C12 C -0.0110(5) 0.1460(5) 0.3536(5)
N1 N 0.0410(8) 0.4070(8) 0.5000
C13 C -0.0464(10) 0.4171(11) 0.5000
C14 C 0.0878(11) 0.4896(13) 0.5000
H6 H 0.1142 0.3567 0.3418
H7 H 0.0575 0.3517 0.1961
H8 H -0.0430 0.2151 0.1512
H9 H -0.0869 0.0835 0.2519
H10 H -0.0302 0.0885 0.3976
H11 H -0.0879 0.3512 0.5000
H12 H 0.1599 0.4846 0.5000
C7E C 0.0457(5) 0.2230(5) 0.6211(3)
C14A C -0.0878(11) 0.5104(13) 0.5000
C13A C 0.0464(10) 0.5829(11) 0.5000
C8E C 0.0703(5) 0.2971(5) 0.6778(3)
C12E C -0.0110(5) 0.1460(5) 0.6464(5)
N1A N -0.0410(8) 0.5930(8) 0.5000
H12A H -0.1599 0.5154 0.5000
H11A H 0.0879 0.6488 0.5000
C9E C 0.0384(5) 0.2943(5) 0.7599(3)
H6E H 0.1142 0.3567 0.6582
C11E C -0.0430(5) 0.1431(5) 0.7285(3)
H10E H -0.0302 0.0885 0.6024
Sn2A Sn -0.1021 0.7812 0.5000
C10E C -0.0183(5) 0.2173(5) 0.7853(3)
H7E H 0.0575 0.3517 0.8039
H9E H -0.0869 0.0835 0.7481
Cl3A Cl -0.2427(3) 0.7039(4) 0.5000
Cl4A Cl -0.1531(3) 0.9512(3) 0.5000
C7D C -0.0457(5) 0.7770(5) 0.6211(3)
C7A C -0.0457(5) 0.7770(5) 0.3789(3)
H8E H -0.0430 0.2151 0.8488
C8D C -0.0703(5) 0.7029(5) 0.6778(3)
C12D C 0.0110(5) 0.8540(5) 0.6464(5)
C8A C -0.0703(5) 0.7029(5) 0.3222(3)
C12A C 0.0110(5) 0.8540(5) 0.3536(5)
C9D C -0.0384(5) 0.7057(5) 0.7599(3)
H6D H -0.1142 0.6433 0.6582
C11D C 0.0430(5) 0.8569(5) 0.7285(3)
H10D H 0.0302 0.9115 0.6024
C9A C -0.0384(5) 0.7057(5) 0.2401(3)
H6A H -0.1142 0.6433 0.3418
C11A C 0.0430(5) 0.8569(5) 0.2715(3)
H10A H 0.0302 0.9115 0.3976
C10D C 0.0183(5) 0.7827(5) 0.7853(3)
H7D H -0.0575 0.6483 0.8039
H9D H 0.0869 0.9165 0.7481
C10A C 0.0183(5) 0.7827(5) 0.2147(3)
H7A H -0.0575 0.6483 0.1961
H9A H 0.0869 0.9165 0.2519
H8D H 0.0430 0.7849 0.8488
H8A H 0.0430 0.7849 0.1512
loop_
_geom_bond_atom_site_label_1
_geom_bond_atom_site_label_2
_geom_bond_site_symmetry_1
_geom_bond_site_symmetry_2
Sn1 Cl1 1_555 1_555
Cl2 Sn1 1_555 1_555
Sn2 Cl3 1_555 1_555
Cl4 Sn2 1_555 1_555
C1 Sn1 1_555 1_555
C2 C1 1_555 1_555
C3 C2 1_555 1_555
C4 C3 1_555 1_555
C5 C4 1_555 1_555
C6 C1 1_555 1_555
C7 Sn2 1_555 1_555
C8 C7 1_555 1_555
C9 C8 1_555 1_555
C10 C9 1_555 1_555
C11 C10 1_555 1_555
C12 C7 1_555 1_555
N1 Sn2 1_555 1_555
C13 N1 1_555 1_555
C14 N1 1_555 1_555
N2 Sn1 1_555 1_555
C15 N2 1_555 1_555
N3 Sn1 1_555 1_555
C16 N3 1_555 1_555
H1 C2 1_555 1_555
H2 C3 1_555 1_555
H3 C4 1_555 1_555
H4 C5 1_555 1_555
H5 C6 1_555 1_555
H6 C8 1_555 1_555
H7 C9 1_555 1_555
H8 C10 1_555 1_555
H9 C11 1_555 1_555
H10 C12 1_555 1_555
H11 C13 1_555 1_555
H12 C14 1_555 1_555
H13 C15 1_555 1_555
H14 C16 1_555 1_555
C1E Sn1 1_555 1_555
C15E N2 1_555 1_555
C15A C15 1_555 1_555
C16E N3 1_555 1_555
C16A C16 1_555 1_555
C2E C1E 1_555 1_555
C6E C1E 1_555 1_555
C15D C15E 1_555 1_555
H13E C15E 1_555 1_555
N2A C15A 1_555 1_555
H13A C15A 1_555 1_555
C16D C16E 1_555 1_555
H14E C16E 1_555 1_555
N3A C16A 1_555 1_555
H14A C16A 1_555 1_555
C3E C2E 1_555 1_555
H1E C2E 1_555 1_555
C5E C6E 1_555 1_555
H5E C6E 1_555 1_555
H13D C15D 1_555 1_555
Sn1A N2A 1_555 1_555
H14D C16D 1_555 1_555
Sn1A_2 N3A 1_555 1_555
C4E C3E 1_555 1_555
H2E C3E 1_555 1_555
H4E C5E 1_555 1_555
Cl1A Sn1A 1_555 1_555
Cl2A Sn1A 1_555 1_555
C1D Sn1A 1_555 1_555
C1A Sn1A 1_555 1_555
N3A_2 Sn1A 1_555 1_555
H3E C4E 1_555 1_555
C2D C1D 1_555 1_555
C6D C1D 1_555 1_555
C2A C1A 1_555 1_555
C6A C1A 1_555 1_555
C3D C2D 1_555 1_555
H1D C2D 1_555 1_555
C5D C6D 1_555 1_555
H5D C6D 1_555 1_555
C3A C2A 1_555 1_555
H1A C2A 1_555 1_555
C5A C6A 1_555 1_555
H5A C6A 1_555 1_555
C4D C3D 1_555 1_555
H2D C3D 1_555 1_555
H4D C5D 1_555 1_555
C4A C3A 1_555 1_555
H2A C3A 1_555 1_555
H4A C5A 1_555 1_555
H3D C4D 1_555 1_555
H3A C4A 1_555 1_555
C7E Sn2 1_555 1_555
C14A C13 1_555 1_555
C13A C14 1_555 1_555
C8E C7E 1_555 1_555
C12E C7E 1_555 1_555
N1A C14A 1_555 1_555
H12A C14A 1_555 1_555
H11A C13A 1_555 1_555
C9E C8E 1_555 1_555
H6E C8E 1_555 1_555
C11E C12E 1_555 1_555
H10E C12E 1_555 1_555
Sn2A N1A 1_555 1_555
C10E C9E 1_555 1_555
H7E C9E 1_555 1_555
H9E C11E 1_555 1_555
Cl3A Sn2A 1_555 1_555
Cl4A Sn2A 1_555 1_555
C7D Sn2A 1_555 1_555
C7A Sn2A 1_555 1_555
H8E C10E 1_555 1_555
C8D C7D 1_555 1_555
C12D C7D 1_555 1_555
C8A C7A 1_555 1_555
C12A C7A 1_555 1_555
C9D C8D 1_555 1_555
H6D C8D 1_555 1_555
C11D C12D 1_555 1_555
H10D C12D 1_555 1_555
C9A C8A 1_555 1_555
H6A C8A 1_555 1_555
C11A C12A 1_555 1_555
H10A C12A 1_555 1_555
C10D C9D 1_555 1_555
H7D C9D 1_555 1_555
H9D C11D 1_555 1_555
C10A C9A 1_555 1_555
H7A C9A 1_555 1_555
H9A C11A 1_555 1_555
H8D C10D 1_555 1_555
H8A C10A 1_555 1_555
C5 C6 1_555 1_555
C11 C12 1_555 1_555
C15D N2A 1_555 1_555
C16D N3A 1_555 1_555
C5E C4E 1_555 1_555
C5D C4D 1_555 1_555
C5A C4A 1_555 1_555
C13A N1A 1_555 1_555
C11E C10E 1_555 1_555
C11D C10D 1_555 1_555
C11A C10A 1_555 1_555

#END
