
#######################################################################
#
#                 Cambridge Crystallographic Data Centre
#                                CCDC 
#
#######################################################################
#
# If this CIF has been generated from an entry in the Cambridge 
# Structural Database, then it will include bibliographic, chemical, 
# crystal, experimental, refinement or atomic coordinate data resulting 
# from the CCDC's data processing and validation procedures.
#
#######################################################################

data_CORSOR01
_symmetry_cell_setting           orthorhombic
_symmetry_space_group_name_H-M   'P 21 21 21'
_symmetry_Int_Tables_number      19
_space_group_name_Hall           'P 2ac 2ab'
loop_
_symmetry_equiv_pos_site_id
_symmetry_equiv_pos_as_xyz
1 x,y,z
2 1/2+x,1/2-y,-z
3 -x,1/2+y,1/2-z
4 1/2-x,-y,1/2+z
_cell_length_a                   10.840(3)
_cell_length_b                   12.048(2)
_cell_length_c                   14.802(2)
_cell_angle_alpha                90
_cell_angle_beta                 90
_cell_angle_gamma                90
_cell_volume                     1933.15
loop_
_atom_site_label
_atom_site_type_symbol
_atom_site_fract_x
_atom_site_fract_y
_atom_site_fract_z
Cu1 Cu 0.148(1) 0.397(1) 0.2918(8)
Cu2 Cu -0.361(1) 0.466(1) 0.3301(9)
O1 O 0.179(7) 0.236(6) 0.305(5)
O2 O 0.242(7) 0.117(7) 0.410(5)
O3 O -0.075(7) 0.403(7) 0.280(5)
O4 O -0.227(7) 0.378(7) 0.377(6)
O5 O 0.156(8) 0.424(6) 0.164(5)
O6 O 0.099(8) 0.555(8) 0.065(6)
O7 O 0.358(9) 0.419(7) 0.325(5)
O8 O 0.496(8) 0.552(7) 0.295(6)
O9 O -0.404(8) 0.479(8) 0.459(6)
O10 O -0.294(7) 0.450(7) 0.206(6)
O11 O -0.241(8) 0.629(7) 0.349(6)
N1 N 0.101(8) 0.386(8) 0.422(6)
N2 N 0.158(9) 0.564(8) 0.304(6)
C1 C 0.185(9) 0.301(9) 0.459(7)
C2 C 0.203(9) 0.209(9) 0.386(8)
C3 C -0.028(10) 0.342(9) 0.430(7)
C4 C -0.115(10) 0.379(10) 0.356(8)
C5 C 0.095(10) 0.601(10) 0.220(8)
C6 C 0.120(11) 0.520(10) 0.143(8)
C7 C 0.288(11) 0.608(11) 0.306(8)
C8 C 0.385(10) 0.517(10) 0.307(8)
C9 C 0.085(10) 0.586(10) 0.389(7)
C10 C 0.117(10) 0.502(10) 0.461(8)
C11 C 0.047(11) 0.522(10) 0.549(8)
C12 C 0.062(12) 0.642(11) 0.580(9)
C13 C 0.022(12) 0.723(11) 0.508(9)
C14 C 0.094(11) 0.706(10) 0.422(8)
H1 H -0.51(5) 0.48(5) 0.49(5)
H2 H -0.20(5) 0.43(5) 0.21(5)
H3 H 0.26(5) 0.33(5) 0.48(5)
H4 H 0.15(5) 0.27(5) 0.52(5)
H5 H -0.06(5) 0.36(5) 0.49(5)
H6 H -0.02(5) 0.26(5) 0.43(5)
H7 H 0.00(5) 0.61(5) 0.23(5)
H8 H 0.12(5) 0.68(5) 0.20(5)
H9 H 0.00(5) 0.58(5) 0.37(5)
H10 H 0.20(5) 0.51(5) 0.48(5)
H11 H 0.08(5) 0.47(5) 0.59(5)
H12 H -0.04(5) 0.50(5) 0.54(5)
H13 H 0.15(5) 0.66(5) 0.59(5)
H14 H 0.01(5) 0.66(5) 0.64(5)
H15 H 0.03(5) 0.80(5) 0.53(5)
H16 H -0.07(5) 0.71(5) 0.50(5)
H17 H 0.18(5) 0.72(5) 0.44(5)
H18 H 0.06(5) 0.76(5) 0.38(5)
H19 H 0.302 0.659 0.247
H20 H 0.299 0.658 0.366
O8_2 O -0.504(8) 0.552(7) 0.295(6)
Cu2_2 Cu 0.639(1) 0.466(1) 0.3301(9)
O12 O 0.519(6) 0.244(9) 0.329(7)
H21 H 0.50(5) 0.19(5) 0.27(5)
H22 H 0.46(5) 0.30(5) 0.35(5)
loop_
_geom_bond_atom_site_label_1
_geom_bond_atom_site_label_2
_geom_bond_site_symmetry_1
_geom_bond_site_symmetry_2
Cu1 O1 1_555 1_555
Cu2 O4 1_555 1_555
O1 C2 1_555 1_555
O2 C2 1_555 1_555
O3 Cu1 1_555 1_555
O4 C4 1_555 1_555
O5 Cu1 1_555 1_555
O6 C6 1_555 1_555
O7 Cu1 1_555 1_555
O8 C8 1_555 1_555
O9 Cu2 1_555 1_555
O10 Cu2 1_555 1_555
O11 Cu2 1_555 1_555
N1 Cu1 1_555 1_555
N2 Cu1 1_555 1_555
C1 N1 1_555 1_555
C2 C1 1_555 1_555
C3 N1 1_555 1_555
C4 O3 1_555 1_555
C5 N2 1_555 1_555
C6 O5 1_555 1_555
C7 N2 1_555 1_555
C8 O7 1_555 1_555
C9 N2 1_555 1_555
C10 N1 1_555 1_555
C11 C10 1_555 1_555
C12 C11 1_555 1_555
C13 C12 1_555 1_555
C14 C9 1_555 1_555
H1 O9 1_555 1_555
H2 O10 1_555 1_555
H3 C1 1_555 1_555
H4 C1 1_555 1_555
H5 C3 1_555 1_555
H6 C3 1_555 1_555
H7 C5 1_555 1_555
H8 C5 1_555 1_555
H9 C9 1_555 1_555
H10 C10 1_555 1_555
H11 C11 1_555 1_555
H12 C11 1_555 1_555
H13 C12 1_555 1_555
H14 C12 1_555 1_555
H15 C13 1_555 1_555
H16 C13 1_555 1_555
H17 C14 1_555 1_555
H18 C14 1_555 1_555
H19 C7 1_555 1_555
H20 C7 1_555 1_555
O12 H21 1_555 1_555
H22 O12 1_555 1_555
O8_2 Cu2 1_555 1_555
Cu2_2 O8 1_555 1_555
C3 C4 1_555 1_555
C5 C6 1_555 1_555
C7 C8 1_555 1_555
C9 C10 1_555 1_555
C13 C14 1_555 1_555

#END
