
#######################################################################
#
#                 Cambridge Crystallographic Data Centre
#                                CCDC 
#
#######################################################################
#
# If this CIF has been generated from an entry in the Cambridge 
# Structural Database, then it will include bibliographic, chemical, 
# crystal, experimental, refinement or atomic coordinate data resulting 
# from the CCDC's data processing and validation procedures.
#
#######################################################################

data_COSFAS
_symmetry_cell_setting           triclinic
_symmetry_space_group_name_H-M   'P -1'
_symmetry_Int_Tables_number      2
_space_group_name_Hall           '-P 1'
loop_
_symmetry_equiv_pos_site_id
_symmetry_equiv_pos_as_xyz
1 x,y,z
2 -x,-y,-z
_cell_length_a                   7.369(3)
_cell_length_b                   8.454(4)
_cell_length_c                   9.391(4)
_cell_angle_alpha                110.31(4)
_cell_angle_beta                 101.28(4)
_cell_angle_gamma                95.30(4)
_cell_volume                     529.833
loop_
_atom_site_label
_atom_site_type_symbol
_atom_site_fract_x
_atom_site_fract_y
_atom_site_fract_z
Zn1 Zn 0.11107(6) -0.13887(6) 0.87083(6)
Zn2 Zn -0.5000 -1.0000 0.5000
O1 O 0.3495(4) -0.0873(4) 1.0417(4)
H1 H 0.441(6) -0.139(7) 1.025(7)
H2 H 0.330(8) -0.096(7) 1.126(5)
O2 O -0.0420(4) -0.1133(4) 0.6667(4)
H3 H -0.105(7) -0.201(5) 0.598(5)
H4 H -0.116(7) -0.043(6) 0.676(7)
O3 O -0.5091(5) -0.7821(4) 0.4470(4)
H5 H -0.436(7) -0.753(7) 0.399(6)
H6 H -0.566(7) -0.710(6) 0.486(7)
O4 O -0.2973(5) -1.0625(4) 0.3671(4)
H7 H -0.202(6) -0.996(6) 0.366(7)
H8 H -0.311(8) -1.143(6) 0.281(5)
O5 O 0.2416(5) -0.5737(4) 0.5551(4)
O6 O 0.2565(4) -0.3011(4) 0.7066(4)
O7 O -0.0980(4) -0.1173(4) 1.0297(4)
O8 O -0.3475(5) -0.2689(4) 1.0541(4)
O9 O -0.2831(4) -0.8759(4) 0.7033(4)
N1 N -0.0219(5) -0.3803(4) 0.8239(4)
C1 C 0.0346(6) -0.5112(5) 0.7228(5)
C2 C -0.0472(6) -0.6787(5) 0.6839(5)
H9 H -0.0003 -0.7675 0.6193
C3 C -0.2005(6) -0.7154(5) 0.7416(5)
C4 C -0.2581(6) -0.5761(5) 0.8466(5)
H10 H -0.3579 -0.5940 0.8896
C5 C -0.1639(6) -0.4127(5) 0.8844(5)
C6 C 0.1916(6) -0.4591(5) 0.6568(5)
C7 C -0.2109(6) -0.2543(5) 0.9997(5)
Zn1A Zn -1.11107(6) -1.86113(6) 0.12917(6)
Zn1A_2 Zn -0.11107(6) 0.13887(6) 1.12917(6)
Zn1_2 Zn -0.88893(6) -2.13887(6) -0.12917(6)
O1A O -1.3495(4) -1.9127(4) -0.0417(4)
H1A H -1.441(6) -1.861(7) -0.025(7)
H2A H -1.330(8) -1.904(7) -0.126(5)
O2A O -0.9580(4) -1.8867(4) 0.3333(4)
H3A H -0.895(7) -1.799(5) 0.402(5)
H4A H -0.884(7) -1.957(6) 0.324(7)
O3A O -0.4909(5) -1.2179(4) 0.5530(4)
H5A H -0.564(7) -1.247(7) 0.601(6)
H6A H -0.434(7) -1.290(6) 0.514(7)
O4A O -0.7027(5) -0.9375(4) 0.6329(4)
H7A H -0.798(6) -1.004(6) 0.634(7)
H8A H -0.689(8) -0.857(6) 0.719(5)
O5A O -1.2416(5) -1.4263(4) 0.4449(4)
O6A O -1.2565(4) -1.6989(4) 0.2934(4)
O7A O -0.9020(4) -1.8827(4) -0.0297(4)
O7A_2 O 0.0980(4) 0.1173(4) 0.9703(4)
O7_2 O -1.0980(4) -2.1173(4) 0.0297(4)
O8A O -0.6525(5) -1.7311(4) -0.0541(4)
O9A O -0.7169(4) -1.1241(4) 0.2967(4)
N1A N -0.9781(5) -1.6197(4) 0.1761(4)
C1A C -1.0346(6) -1.4888(5) 0.2772(5)
C2A C -0.9528(6) -1.3213(5) 0.3161(5)
H9A H -0.9997 -1.2325 0.3807
C3A C -0.7995(6) -1.2846(5) 0.2584(5)
C4A C -0.7419(6) -1.4239(5) 0.1534(5)
H10A H -0.6421 -1.4060 0.1104
C5A C -0.8361(6) -1.5873(5) 0.1156(5)
C6A C -1.1916(6) -1.5409(5) 0.3432(5)
C7A C -0.7891(6) -1.7457(5) 0.0003(5)
loop_
_geom_bond_atom_site_label_1
_geom_bond_atom_site_label_2
_geom_bond_site_symmetry_1
_geom_bond_site_symmetry_2
Zn1 O1 1_555 1_555
Zn2 O3 1_555 1_555
O1 H1 1_555 1_555
H2 O1 1_555 1_555
O2 Zn1 1_555 1_555
H3 O2 1_555 1_555
H4 O2 1_555 1_555
O3 H5 1_555 1_555
H6 O3 1_555 1_555
O4 Zn2 1_555 1_555
H7 O4 1_555 1_555
H8 O4 1_555 1_555
O5 C6 1_555 1_555
O6 Zn1 1_555 1_555
O7 Zn1 1_555 1_555
O8 C7 1_555 1_555
O9 Zn2 1_555 1_555
N1 Zn1 1_555 1_555
C1 N1 1_555 1_555
C2 C1 1_555 1_555
H9 C2 1_555 1_555
C3 O9 1_555 1_555
C4 C3 1_555 1_555
H10 C4 1_555 1_555
C5 N1 1_555 1_555
C6 O6 1_555 1_555
C7 O7 1_555 1_555
Zn1A O1A 1_555 1_555
Zn1A_2 O7 1_555 1_555
Zn1_2 O7A 1_555 1_555
O1A H1A 1_555 1_555
H2A O1A 1_555 1_555
O2A Zn1A 1_555 1_555
H3A O2A 1_555 1_555
H4A O2A 1_555 1_555
O3A Zn2 1_555 1_555
H5A O3A 1_555 1_555
H6A O3A 1_555 1_555
O4A Zn2 1_555 1_555
H7A O4A 1_555 1_555
H8A O4A 1_555 1_555
O5A C6A 1_555 1_555
O6A Zn1A 1_555 1_555
O7A Zn1A 1_555 1_555
O7A_2 Zn1 1_555 1_555
O7_2 Zn1A 1_555 1_555
O8A C7A 1_555 1_555
O9A Zn2 1_555 1_555
N1A Zn1A 1_555 1_555
C1A N1A 1_555 1_555
C2A C1A 1_555 1_555
H9A C2A 1_555 1_555
C3A O9A 1_555 1_555
C4A C3A 1_555 1_555
H10A C4A 1_555 1_555
C5A N1A 1_555 1_555
C6A O6A 1_555 1_555
C7A O7A 1_555 1_555
C1 C6 1_555 1_555
C2 C3 1_555 1_555
C4 C5 1_555 1_555
C5 C7 1_555 1_555
Zn1A_2 O7A_2 1_555 1_555
Zn1_2 O7_2 1_555 1_555
C1A C6A 1_555 1_555
C2A C3A 1_555 1_555
C4A C5A 1_555 1_555
C5A C7A 1_555 1_555

#END
