
#######################################################################
#
#                 Cambridge Crystallographic Data Centre
#                                CCDC 
#
#######################################################################
#
# If this CIF has been generated from an entry in the Cambridge 
# Structural Database, then it will include bibliographic, chemical, 
# crystal, experimental, refinement or atomic coordinate data resulting 
# from the CCDC's data processing and validation procedures.
#
#######################################################################

data_COSGUO
_symmetry_cell_setting           monoclinic
_symmetry_space_group_name_H-M   'C 2/c'
_symmetry_Int_Tables_number      15
_space_group_name_Hall           '-C 2yn'
loop_
_symmetry_equiv_pos_site_id
_symmetry_equiv_pos_as_xyz
1 x,y,z
2 -x,y,1/2-z
3 1/2+x,1/2+y,z
4 1/2-x,1/2+y,1/2-z
5 -x,-y,-z
6 x,-y,1/2+z
7 1/2-x,1/2-y,-z
8 1/2+x,1/2-y,1/2+z
_cell_length_a                   12.3935(6)
_cell_length_b                   13.3918(7)
_cell_length_c                   10.3258(6)
_cell_angle_alpha                90
_cell_angle_beta                 117.390(3)
_cell_angle_gamma                90
_cell_volume                     1521.66
loop_
_atom_site_label
_atom_site_type_symbol
_atom_site_fract_x
_atom_site_fract_y
_atom_site_fract_z
Zn1 Zn 0.16564(3) 0.37671(2) 0.88703(3)
N1 N 0.04863(18) 0.26232(15) 0.8208(2)
N2 N 0.15149(19) 0.47264(15) 1.0243(2)
O1 O 0.17083(15) 0.18522(13) 1.03000(18)
N3 N 0.1529(2) 0.55507(16) 1.2079(2)
C1 C 0.0870(2) 0.17829(19) 0.8953(3)
N4 N 0.1394(2) 0.57285(16) 0.9924(2)
C2 C 0.1605(2) 0.46422(19) 1.1578(3)
C3 C 0.0388(2) 0.08343(19) 0.8253(3)
N5 N 0.1406(2) 0.62097(16) 1.1007(2)
N6 N 0.1801(3) 0.3783(2) 1.2314(3)
C4 C 0.0738(3) -0.0078(2) 0.9001(3)
H1 H 0.166(3) 0.377(2) 1.293(4)
H2 H 0.174(3) 0.328(2) 1.189(3)
C5 C 0.0365(3) -0.0974(2) 0.8256(4)
H3 H 0.123(2) -0.0092(19) 0.997(3)
C6 C 0.0761(5) -0.1951(4) 0.8922(7)
H4 H 0.0385 -0.2460 0.8198
H5 H 0.0531 -0.2036 0.9685
H6 H 0.1628 -0.2000 0.9323
N1A N -0.04863(18) 0.26232(15) 0.6792(2)
C1A C -0.0870(2) 0.17829(19) 0.6047(3)
C3A C -0.0388(2) 0.08343(19) 0.6747(3)
C4A C -0.0738(3) -0.0078(2) 0.5999(3)
C5A C -0.0365(3) -0.0974(2) 0.6744(4)
H3A H -0.123(2) -0.0092(19) 0.503(3)
C6A C -0.0761(5) -0.1951(4) 0.6078(7)
H4A H -0.0385 -0.2460 0.6802
H5A H -0.0531 -0.2036 0.5315
H6A H -0.1628 -0.2000 0.5677
O1A O -0.17083(15) 0.18522(13) 0.47000(18)
Zn1A Zn -0.16564(3) 0.37671(2) 0.61297(3)
N2A N -0.15149(19) 0.47264(15) 0.4757(2)
N3A N -0.1529(2) 0.55507(16) 0.2921(2)
N4A N -0.1394(2) 0.57285(16) 0.5076(2)
C2A C -0.1605(2) 0.46422(19) 0.3422(3)
N5A N -0.1406(2) 0.62097(16) 0.3993(2)
N6A N -0.1801(3) 0.3783(2) 0.2686(3)
H1A H -0.166(3) 0.377(2) 0.207(4)
H2A H -0.174(3) 0.328(2) 0.311(3)
Zn1D Zn -0.16564(3) 0.62329(2) 0.11297(3)
Zn1E Zn 0.16564(3) 0.62329(2) 1.38703(3)
Zn1F Zn 0.33436(3) 0.12329(2) 1.11297(3)
Zn1G Zn -0.33436(3) 0.12329(2) 0.38703(3)
O1F O 0.32917(15) 0.31478(13) 0.97000(18)
O1G O -0.32917(15) 0.31478(13) 0.53000(18)
N3D N -0.1529(2) 0.44493(16) 0.7921(2)
N3E N 0.1529(2) 0.44493(16) 0.7079(2)
loop_
_geom_bond_atom_site_label_1
_geom_bond_atom_site_label_2
_geom_bond_site_symmetry_1
_geom_bond_site_symmetry_2
Zn1 N1 1_555 1_555
N1 C1 1_555 1_555
N2 Zn1 1_555 1_555
O1 C1 1_555 1_555
N3 C2 1_555 1_555
C1 C3 1_555 1_555
N4 N2 1_555 1_555
C2 N2 1_555 1_555
C3 C4 1_555 1_555
N5 N3 1_555 1_555
N6 C2 1_555 1_555
C4 C5 1_555 1_555
H1 N6 1_555 1_555
H2 N6 1_555 1_555
C5 C6 1_555 1_555
H3 C4 1_555 1_555
C6 H4 1_555 1_555
H5 C6 1_555 1_555
H6 C6 1_555 1_555
N1A N1 1_555 1_555
C1A N1A 1_555 1_555
C3A C3 1_555 1_555
C4A C3A 1_555 1_555
C5A C5 1_555 1_555
H3A C4A 1_555 1_555
C6A C5A 1_555 1_555
H4A C6A 1_555 1_555
H5A C6A 1_555 1_555
H6A C6A 1_555 1_555
O1A C1A 1_555 1_555
Zn1A N1A 1_555 1_555
N2A Zn1A 1_555 1_555
N3A C2A 1_555 1_555
N4A N2A 1_555 1_555
C2A N2A 1_555 1_555
N5A N3A 1_555 1_555
N6A C2A 1_555 1_555
H1A N6A 1_555 1_555
H2A N6A 1_555 1_555
Zn1D N3A 1_555 1_555
Zn1E N3 1_555 1_555
Zn1F O1 1_555 1_555
Zn1G O1A 1_555 1_555
O1F Zn1 1_555 1_555
O1G Zn1A 1_555 1_555
N3D Zn1A 1_555 1_555
N3E Zn1 1_555 1_555
N4 N5 1_555 1_555
C1A C3A 1_555 1_555
C4A C5A 1_555 1_555
N4A N5A 1_555 1_555

#END
