
#######################################################################
#
#                 Cambridge Crystallographic Data Centre
#                                CCDC 
#
#######################################################################
#
# If this CIF has been generated from an entry in the Cambridge 
# Structural Database, then it will include bibliographic, chemical, 
# crystal, experimental, refinement or atomic coordinate data resulting 
# from the CCDC's data processing and validation procedures.
#
#######################################################################

data_COSHUO
_symmetry_cell_setting           orthorhombic
_symmetry_space_group_name_H-M   'P 21 21 21'
_symmetry_Int_Tables_number      19
_space_group_name_Hall           'P 2ac 2ab'
loop_
_symmetry_equiv_pos_site_id
_symmetry_equiv_pos_as_xyz
1 x,y,z
2 1/2-x,-y,1/2+z
3 1/2+x,1/2-y,-z
4 -x,1/2+y,1/2-z
_cell_length_a                   7.5551(2)
_cell_length_b                   19.2146(5)
_cell_length_c                   20.4013(5)
_cell_angle_alpha                90
_cell_angle_beta                 90
_cell_angle_gamma                90
_cell_volume                     2961.62
loop_
_atom_site_label
_atom_site_type_symbol
_atom_site_fract_x
_atom_site_fract_y
_atom_site_fract_z
C1 C 0.7127(5) 0.89367(19) 0.80839(17)
C2 C 0.7615(5) 0.9118(2) 0.87263(19)
C3 C 0.8151(6) 0.9803(2) 0.8861(2)
H1 H 0.8452 0.9917 0.9290
C4 C 0.8252(6) 1.0314(2) 0.8391(2)
C5 C 0.7685(6) 1.0135(2) 0.7769(2)
H2 H 0.7691 1.0475 0.7445
C6 C 0.7100(6) 0.94653(19) 0.76032(19)
C7 C 0.6293(6) 0.9384(2) 0.6970(2)
H3 H 0.6224 0.9784 0.6715
C8 C 0.4681(8) 0.8935(3) 0.6093(2)
H4 H 0.5051 0.9373 0.5899
H5 H 0.3427 0.8971 0.6190
C9 C 0.4954(10) 0.8365(3) 0.5603(3)
H6 H 0.4424 0.8505 0.5191
H7 H 0.6215 0.8310 0.5530
C10 C 0.4211(8) 0.7687(3) 0.5795(2)
H8 H 0.4208 0.7381 0.5417
H9 H 0.2993 0.7752 0.5933
C11 C 0.5457(7) 0.6696(3) 0.6286(2)
H10 H 0.5075 0.6495 0.5896
C12 C 0.6232(6) 0.6227(2) 0.67489(19)
C13 C 0.6457(6) 0.5537(2) 0.6540(2)
H11 H 0.6122 0.5419 0.6116
C14 C 0.7153(6) 0.5025(2) 0.6938(2)
C15 C 0.7634(6) 0.5213(2) 0.7562(2)
H12 H 0.8120 0.4877 0.7835
C16 C 0.7424(5) 0.58925(19) 0.78055(19)
C17 C 0.6739(5) 0.64130(18) 0.73894(18)
C18 C 0.8027(6) 0.6019(2) 0.8466(2)
H13 H 0.8623 0.5659 0.8676
C19 C 0.7579(7) 0.6527(3) 0.9922(2)
H14 H 0.8254 0.6553 1.0326
H15 H 0.7000 0.6076 0.9910
C20 C 0.6201(6) 0.7081(3) 0.9929(2)
H16 H 0.5418 0.7019 0.9557
H17 H 0.5500 0.7040 1.0325
C21 C 0.7448(5) 0.8661(2) 0.92808(18)
H18 H 0.7628 0.8855 0.9693
C22 C 0.8877(8) 1.1040(2) 0.8552(3)
H19 H 0.9202 1.1063 0.9006
H20 H 0.7942 1.1366 0.8466
H21 H 0.9885 1.1152 0.8285
C23 C 0.7419(8) 0.4286(2) 0.6692(3)
H22 H 0.7005 0.4251 0.6249
H23 H 0.6765 0.3970 0.6964
H24 H 0.8654 0.4170 0.6709
N1 N 0.5659(5) 0.88303(18) 0.67133(16)
N2 N 0.5214(5) 0.7352(2) 0.63318(16)
N3 N 0.7810(5) 0.65779(17) 0.87801(14)
N4 N 0.7074(4) 0.80112(16) 0.92608(13)
O1 O 1.2530(5) 0.7638(2) 0.75024(15)
O2 O 1.3450(4) 0.7517(2) 0.85820(14)
O4 O 1.1773(7) 0.66417(19) 0.8097(2)
O5 O 1.0488(4) 0.77135(18) 0.83468(18)
O10 O 0.8764(4) 0.65748(16) 0.93818(14)
O11 O 0.6974(4) 0.77468(15) 0.99014(12)
O12 O 0.6630(3) 0.82904(12) 0.79346(12)
O13 O 0.6574(3) 0.70675(13) 0.75941(11)
O14 O 0.9091(5) 0.7913(3) 0.6728(2)
Cl1 Cl 1.20553(14) 0.73725(5) 0.81299(5)
Cu1 Cu 0.69988(6) 0.74596(2) 0.84549(2)
Cu2 Cu 0.60736(7) 0.79045(2) 0.70714(2)
H25 H 0.986(7) 0.798(3) 0.702(2)
H26 H 0.924(9) 0.820(3) 0.642(2)
O2_2 O 0.3450(4) 0.7517(2) 0.85820(14)
Cu1_2 Cu 1.69988(6) 0.74596(2) 0.84549(2)
O3 O 0.3524(10) 0.5785(3) 0.9152(3)
O6 O -0.0063(13) 0.3653(3) 0.9575(4)
O7 O 0.1494(11) 0.4530(7) 0.9851(4)
O8 O -0.1454(9) 0.4679(4) 0.9802(2)
O9 O 0.0145(9) 0.4508(3) 0.8868(2)
Cl2 Cl 0.0057(2) 0.43757(7) 0.95265(6)
loop_
_geom_bond_atom_site_label_1
_geom_bond_atom_site_label_2
_geom_bond_site_symmetry_1
_geom_bond_site_symmetry_2
C1 C2 1_555 1_555
C2 C3 1_555 1_555
C3 H1 1_555 1_555
C4 C3 1_555 1_555
C5 C4 1_555 1_555
H2 C5 1_555 1_555
C6 C1 1_555 1_555
C7 C6 1_555 1_555
H3 C7 1_555 1_555
C8 H4 1_555 1_555
H5 C8 1_555 1_555
C9 C8 1_555 1_555
H6 C9 1_555 1_555
H7 C9 1_555 1_555
C10 C9 1_555 1_555
H8 C10 1_555 1_555
H9 C10 1_555 1_555
C11 H10 1_555 1_555
C12 C11 1_555 1_555
C13 C12 1_555 1_555
H11 C13 1_555 1_555
C14 C13 1_555 1_555
C15 C14 1_555 1_555
H12 C15 1_555 1_555
C16 C15 1_555 1_555
C17 C12 1_555 1_555
C18 C16 1_555 1_555
H13 C18 1_555 1_555
C19 H14 1_555 1_555
H15 C19 1_555 1_555
C20 C19 1_555 1_555
H16 C20 1_555 1_555
H17 C20 1_555 1_555
C21 C2 1_555 1_555
H18 C21 1_555 1_555
C22 C4 1_555 1_555
H19 C22 1_555 1_555
H20 C22 1_555 1_555
H21 C22 1_555 1_555
C23 C14 1_555 1_555
H22 C23 1_555 1_555
H23 C23 1_555 1_555
H24 C23 1_555 1_555
N1 C7 1_555 1_555
N2 C10 1_555 1_555
N3 C18 1_555 1_555
N4 C21 1_555 1_555
O1 Cl1 1_555 1_555
O2 Cl1 1_555 1_555
O4 Cl1 1_555 1_555
O5 Cl1 1_555 1_555
O6 Cl2 1_555 1_555
O7 Cl2 1_555 1_555
O8 Cl2 1_555 1_555
O9 Cl2 1_555 1_555
O10 C19 1_555 1_555
O11 C20 1_555 1_555
O12 C1 1_555 1_555
O13 C17 1_555 1_555
O14 Cu2 1_555 1_555
Cu1 N3 1_555 1_555
Cu2 N1 1_555 1_555
H25 O14 1_555 1_555
H26 O14 1_555 1_555
O2_2 Cu1 1_555 1_555
Cu1_2 O2 1_555 1_555
C5 C6 1_555 1_555
C8 N1 1_555 1_555
C11 N2 1_555 1_555
C16 C17 1_555 1_555
N2 Cu2 1_555 1_555
N3 O10 1_555 1_555
N4 O11 1_555 1_555
N4 Cu1 1_555 1_555
O5 Cu1 1_555 1_555
O12 Cu1 1_555 1_555
O12 Cu2 1_555 1_555
O13 Cu1 1_555 1_555
O13 Cu2 1_555 1_555

#END
