
#######################################################################
#
#                 Cambridge Crystallographic Data Centre
#                                CCDC 
#
#######################################################################
#
# If this CIF has been generated from an entry in the Cambridge 
# Structural Database, then it will include bibliographic, chemical, 
# crystal, experimental, refinement or atomic coordinate data resulting 
# from the CCDC's data processing and validation procedures.
#
#######################################################################

data_COSHAV
_symmetry_cell_setting           monoclinic
_symmetry_space_group_name_H-M   'C 2/c'
_symmetry_Int_Tables_number      15
_space_group_name_Hall           '-C 2yn'
loop_
_symmetry_equiv_pos_site_id
_symmetry_equiv_pos_as_xyz
1 x,y,z
2 -x,y,1/2-z
3 1/2+x,1/2+y,z
4 1/2-x,1/2+y,1/2-z
5 -x,-y,-z
6 x,-y,1/2+z
7 1/2-x,1/2-y,-z
8 1/2+x,1/2-y,1/2+z
_cell_length_a                   14.175(3)
_cell_length_b                   8.9672(18)
_cell_length_c                   20.104(4)
_cell_angle_alpha                90
_cell_angle_beta                 93.01(3)
_cell_angle_gamma                90
_cell_volume                     2551.9
loop_
_atom_site_label
_atom_site_type_symbol
_atom_site_fract_x
_atom_site_fract_y
_atom_site_fract_z
Zn1 Zn 0.32457(3) 0.16066(5) 0.34051(2)
Zn2 Zn 0.5000 0.07142(7) 0.2500
N1 N 0.3079(3) 0.0789(4) 0.43063(17)
N2 N 0.3802(3) 0.0375(5) 0.47682(18)
N3 N 0.3029(2) 0.0040(4) 0.26864(16)
N4 N 0.3793(2) -0.0413(4) 0.23141(18)
N5 N 0.2527(2) -0.1679(4) 0.19478(17)
N6 N 0.1413(3) -0.0657(5) 0.2669(2)
H1 H 0.1299 -0.0045 0.2985
H2 H 0.0966 -0.1202 0.2495
O1 O 0.1556(2) 0.0745(4) 0.39712(17)
O2 O 0.4402(3) -0.0761(5) 0.56846(18)
O3 O 0.4576(2) 0.1991(3) 0.32143(14)
C1 C 0.1076(4) -0.0876(7) 0.5127(3)
H3 H 0.0589 -0.0679 0.4811
C2 C 0.0879(4) -0.1618(7) 0.5710(3)
H4 H 0.0262 -0.1882 0.5792
C3 C 0.1617(4) -0.1964(6) 0.6169(3)
H5 H 0.1488 -0.2450 0.6563
C4 C 0.2528(4) -0.1598(5) 0.6048(2)
H6 H 0.3018 -0.1871 0.6350
C5 C 0.2724(3) -0.0811(5) 0.5470(2)
C6 C 0.1987(3) -0.0423(5) 0.5008(2)
C7 C 0.2191(3) 0.0409(5) 0.4400(2)
C8 C 0.3690(3) -0.0402(6) 0.5332(2)
C9 C 0.3456(3) -0.1414(5) 0.1891(2)
H7 H 0.3820 -0.1892 0.1584
C10 C 0.2296(3) -0.0760(4) 0.2447(2)
Zn1A Zn 0.67543(3) 0.16066(5) 0.15949(2)
N1A N 0.6921(3) 0.0789(4) 0.06937(17)
N2A N 0.6198(3) 0.0375(5) 0.02318(18)
N3A N 0.6971(2) 0.0040(4) 0.23136(16)
N4A N 0.6207(2) -0.0413(4) 0.26859(18)
N5A N 0.7473(2) -0.1679(4) 0.30522(17)
N6A N 0.8587(3) -0.0657(5) 0.2331(2)
H1A H 0.8701 -0.0045 0.2015
H2A H 0.9034 -0.1202 0.2505
O1A O 0.8444(2) 0.0745(4) 0.10288(17)
O2A O 0.5598(3) -0.0761(5) -0.06846(18)
O3A O 0.5424(2) 0.1991(3) 0.17857(14)
C1A C 0.8924(4) -0.0876(7) -0.0127(3)
H3A H 0.9411 -0.0679 0.0189
C2A C 0.9121(4) -0.1618(7) -0.0710(3)
H4A H 0.9738 -0.1882 -0.0792
C3A C 0.8383(4) -0.1964(6) -0.1169(3)
H5A H 0.8512 -0.2450 -0.1563
C4A C 0.7472(4) -0.1598(5) -0.1048(2)
H6A H 0.6982 -0.1871 -0.1350
C5A C 0.7276(3) -0.0811(5) -0.0470(2)
C6A C 0.8013(3) -0.0423(5) -0.0008(2)
C7A C 0.7809(3) 0.0409(5) 0.0600(2)
C8A C 0.6310(3) -0.0402(6) -0.0332(2)
C9A C 0.6544(3) -0.1414(5) 0.3109(2)
H7A H 0.6180 -0.1892 0.3416
C10A C 0.7704(3) -0.0760(4) 0.2553(2)
Zn1B Zn 0.82457(3) -0.33934(5) 0.34051(2)
Zn1C Zn 0.17543(3) -0.33934(5) 0.15949(2)
N5B N 0.7527(2) 0.3321(4) 0.19478(17)
N5C N 0.2473(2) 0.3321(4) 0.30522(17)
loop_
_geom_bond_atom_site_label_1
_geom_bond_atom_site_label_2
_geom_bond_site_symmetry_1
_geom_bond_site_symmetry_2
Zn1 N1 1_555 1_555
Zn2 N4 1_555 1_555
N1 N2 1_555 1_555
N2 C8 1_555 1_555
N3 Zn1 1_555 1_555
N4 N3 1_555 1_555
N5 C9 1_555 1_555
N6 H1 1_555 1_555
H2 N6 1_555 1_555
O1 C7 1_555 1_555
O2 C8 1_555 1_555
O3 Zn1 1_555 1_555
C1 H3 1_555 1_555
C2 C1 1_555 1_555
H4 C2 1_555 1_555
C3 C2 1_555 1_555
H5 C3 1_555 1_555
C4 C3 1_555 1_555
H6 C4 1_555 1_555
C5 C4 1_555 1_555
C6 C1 1_555 1_555
C7 N1 1_555 1_555
C8 C5 1_555 1_555
C9 N4 1_555 1_555
H7 C9 1_555 1_555
C10 N3 1_555 1_555
Zn1A N1A 1_555 1_555
N1A N2A 1_555 1_555
N2A C8A 1_555 1_555
N3A Zn1A 1_555 1_555
N4A Zn2 1_555 1_555
N5A C9A 1_555 1_555
N6A H1A 1_555 1_555
H2A N6A 1_555 1_555
O1A C7A 1_555 1_555
O2A C8A 1_555 1_555
O3A Zn2 1_555 1_555
C1A H3A 1_555 1_555
C2A C1A 1_555 1_555
H4A C2A 1_555 1_555
C3A C2A 1_555 1_555
H5A C3A 1_555 1_555
C4A C3A 1_555 1_555
H6A C4A 1_555 1_555
C5A C4A 1_555 1_555
C6A C1A 1_555 1_555
C7A N1A 1_555 1_555
C8A C5A 1_555 1_555
C9A N4A 1_555 1_555
H7A C9A 1_555 1_555
C10A N3A 1_555 1_555
Zn1B N5A 1_555 1_555
Zn1C N5 1_555 1_555
N5B Zn1A 1_555 1_555
N5C Zn1 1_555 1_555
Zn2 O3 1_555 1_555
N5 C10 1_555 1_555
N6 C10 1_555 1_555
C5 C6 1_555 1_555
C6 C7 1_555 1_555
Zn1A O3A 1_555 1_555
N3A N4A 1_555 1_555
N5A C10A 1_555 1_555
N6A C10A 1_555 1_555
C5A C6A 1_555 1_555
C6A C7A 1_555 1_555

#END
