
#######################################################################
#
#                 Cambridge Crystallographic Data Centre
#                                CCDC 
#
#######################################################################
#
# If this CIF has been generated from an entry in the Cambridge 
# Structural Database, then it will include bibliographic, chemical, 
# crystal, experimental, refinement or atomic coordinate data resulting 
# from the CCDC's data processing and validation procedures.
#
#######################################################################

data_COSKUQ
_symmetry_cell_setting           triclinic
_symmetry_space_group_name_H-M   'P -1'
_symmetry_Int_Tables_number      2
_space_group_name_Hall           '-P 1'
loop_
_symmetry_equiv_pos_site_id
_symmetry_equiv_pos_as_xyz
1 x,y,z
2 -x,-y,-z
_cell_length_a                   12.351(11)
_cell_length_b                   15.533(10)
_cell_length_c                   9.250(4)
_cell_angle_alpha                109.86(4)
_cell_angle_beta                 101.40(6)
_cell_angle_gamma                62.95(6)
_cell_volume                     1484.5
loop_
_atom_site_label
_atom_site_type_symbol
_atom_site_fract_x
_atom_site_fract_y
_atom_site_fract_z
La1 La 0.49354(4) 0.46350(4) 0.2143(1)
O1 O 0.3575(5) 0.4129(4) 0.3074(6)
O2 O 0.4003(5) 0.4753(4) 0.5522(6)
O3 O 0.0706(5) 0.4971(5) 0.8245(7)
O4 O 0.5508(5) 0.6744(4) 0.0004(6)
O5 O 0.5148(5) 0.5876(4) 0.1139(6)
O6 O 0.4312(6) 0.8317(4) 0.6557(7)
O7 O 0.3167(5) 0.6280(4) 0.3611(6)
O8 O 0.2758(4) 0.5643(4) 0.1181(6)
O9 O -0.1797(5) 0.7632(4) 0.0421(7)
C1 C 0.3400(7) 0.4371(6) 0.4474(9)
C2 C 0.2442(7) 0.4166(6) 0.4917(9)
C3 C 0.1983(8) 0.3524(6) 0.3830(10)
C4 C 0.1041(8) 0.3391(7) 0.4242(11)
C5 C 0.0613(8) 0.3863(7) 0.5723(10)
C6 C 0.1113(7) 0.4499(6) 0.6794(9)
C7 C 0.2013(7) 0.4643(6) 0.6371(9)
C8 C 0.5359(7) 0.6625(6) 0.1204(9)
C9 C 0.5457(7) 0.7344(6) 0.2724(9)
C10 C 0.6223(8) 0.7817(7) 0.2896(10)
C11 C 0.6304(9) 0.8498(8) 0.4308(11)
C12 C 0.5653(9) 0.8688(7) 0.5555(10)
C13 C 0.4942(8) 0.8173(6) 0.5334(10)
C14 C 0.4814(7) 0.7504(6) 0.3928(9)
C15 C 0.2437(7) 0.6298(6) 0.2438(9)
C16 C 0.1151(7) 0.7106(6) 0.2551(9)
C17 C 0.0858(8) 0.7965(6) 0.3857(10)
C18 C -0.0344(8) 0.8708(7) 0.3884(11)
C19 C -0.1219(8) 0.8612(7) 0.2752(10)
C20 C -0.0906(7) 0.7732(7) 0.1530(10)
C21 C 0.0281(7) 0.6988(6) 0.1395(9)
O10 O 0.6993(5) 0.3676(4) 0.1028(6)
O11 O 0.6373(5) 0.3080(4) 0.3278(6)
O5A O 0.4852(5) 0.4124(4) -0.1139(6)
La1A La 0.50646(4) 0.53650(4) -0.2143(1)
O2A O 0.5997(5) 0.5247(4) 0.4478(6)
O4A O 0.4492(5) 0.3256(4) -0.0004(6)
La1A_2 La 0.50646(4) 0.53650(4) 0.7857(1)
O12 O 0.8571(5) 0.1340(5) 0.2322(7)
O13 O 0.9169(5) 0.2349(5) 0.1799(8)
O14 O 1.3506(6) 0.0188(5) 0.0498(8)
C22 C 0.9391(8) 0.1540(7) 0.1937(10)
C23 C 1.0624(7) 0.0678(6) 0.1686(9)
C24 C 1.0861(8) -0.0226(7) 0.1928(11)
C25 C 1.2009(9) -0.0994(7) 0.1704(12)
C26 C 1.2910(8) -0.0870(7) 0.1216(11)
C27 C 1.2655(7) 0.0020(6) 0.0973(11)
C28 C 1.1521(7) 0.0814(7) 0.1225(10)
O15 O 0.5537(5) 0.8417(4) 0.9376(7)
O16 O 0.1580(5) 0.4289(4) 0.0890(7)
loop_
_geom_bond_atom_site_label_1
_geom_bond_atom_site_label_2
_geom_bond_site_symmetry_1
_geom_bond_site_symmetry_2
La1 O1 1_555 1_555
O1 C1 1_555 1_555
O2 C1 1_555 1_555
O3 C6 1_555 1_555
O4 C8 1_555 1_555
O5 La1 1_555 1_555
O6 C13 1_555 1_555
O7 La1 1_555 1_555
O8 La1 1_555 1_555
O9 C20 1_555 1_555
C1 C2 1_555 1_555
C2 C3 1_555 1_555
C3 C4 1_555 1_555
C4 C5 1_555 1_555
C5 C6 1_555 1_555
C6 C7 1_555 1_555
C7 C2 1_555 1_555
C8 O5 1_555 1_555
C9 C8 1_555 1_555
C10 C9 1_555 1_555
C11 C10 1_555 1_555
C12 C11 1_555 1_555
C13 C12 1_555 1_555
C14 C9 1_555 1_555
C15 O7 1_555 1_555
C16 C15 1_555 1_555
C17 C16 1_555 1_555
C18 C17 1_555 1_555
C19 C18 1_555 1_555
C20 C19 1_555 1_555
C21 C16 1_555 1_555
O10 La1 1_555 1_555
O11 La1 1_555 1_555
O12 C22 1_555 1_555
O13 C22 1_555 1_555
O14 C27 1_555 1_555
C22 C23 1_555 1_555
C23 C24 1_555 1_555
C24 C25 1_555 1_555
C25 C26 1_555 1_555
C26 C27 1_555 1_555
C27 C28 1_555 1_555
C28 C23 1_555 1_555
O5A La1 1_555 1_555
La1A O4 1_555 1_555
O2A La1 1_555 1_555
O4A La1 1_555 1_555
La1A_2 O2 1_555 1_555
O5 La1A 1_555 1_555
O8 C15 1_555 1_555
C13 C14 1_555 1_555
C20 C21 1_555 1_555
O5A La1A 1_555 1_555

#END
