
#######################################################################
#
#                 Cambridge Crystallographic Data Centre
#                                CCDC 
#
#######################################################################
#
# If this CIF has been generated from an entry in the Cambridge 
# Structural Database, then it will include bibliographic, chemical, 
# crystal, experimental, refinement or atomic coordinate data resulting 
# from the CCDC's data processing and validation procedures.
#
#######################################################################

data_COSLIF
_symmetry_cell_setting           triclinic
_symmetry_space_group_name_H-M   'P -1'
_symmetry_Int_Tables_number      2
_space_group_name_Hall           '-P 1'
loop_
_symmetry_equiv_pos_site_id
_symmetry_equiv_pos_as_xyz
1 x,y,z
2 -x,-y,-z
_cell_length_a                   10.586(4)
_cell_length_b                   11.943(6)
_cell_length_c                   10.027(5)
_cell_angle_alpha                111.11(3)
_cell_angle_beta                 90.53(4)
_cell_angle_gamma                97.26(4)
_cell_volume                     1171.09
loop_
_atom_site_label
_atom_site_type_symbol
_atom_site_fract_x
_atom_site_fract_y
_atom_site_fract_z
Er1 Er 0.49415(3) 0.42952(2) 0.25105(3)
O1 O 0.2194(5) 0.3590(5) -0.0927(6)
O2 O 0.3411(5) 0.3490(5) 0.0810(6)
O3 O 0.2335(7) -0.0663(6) 0.0820(9)
O4 O 0.6740(5) 0.3958(5) 0.3497(6)
O5 O 0.6324(5) 0.4815(4) 0.5771(6)
O6 O 0.9885(6) 0.3967(3) 0.8447(6)
O7 O 0.6105(5) 0.6284(4) 0.3641(5)
O8 O 0.4606(5) 0.6132(4) 0.2032(6)
O9 O 0.4531(7) 1.0421(5) 0.2218(7)
C1 C 0.2545(7) 0.3029(7) -0.0193(8)
C2 C 0.1968(7) 0.1735(7) -0.0518(8)
C3 C 0.1086(8) 0.1153(7) -0.1683(9)
C4 C 0.0618(10) -0.0060(8) -0.1987(10)
C5 C 0.1039(9) -0.0695(8) -0.1200(10)
C6 C 0.1896(8) -0.0096(7) -0.0048(11)
C7 C 0.2361(8) 0.1130(7) 0.0331(10)
C8 C 0.7016(7) 0.4267(6) 0.4817(8)
C9 C 0.8250(7) 0.3924(6) 0.5236(8)
C10 C 0.9110(7) 0.3533(7) 0.4199(9)
C11 C 1.0289(8) 0.3298(7) 0.4618(9)
C12 C 1.0569(8) 0.3438(7) 0.6044(9)
C13 C 0.9659(8) 0.3820(7) 0.7043(9)
C14 C 0.8496(7) 0.4071(7) 0.6654(8)
C15 C 0.5476(7) 0.6767(6) 0.2953(7)
C16 C 0.5742(7) 0.8087(7) 0.3266(8)
C17 C 0.6773(8) 0.8808(7) 0.4236(9)
C18 C 0.7023(9) 1.0026(7) 0.4492(11)
C19 C 0.6269(9) 1.0560(8) 0.3822(10)
C20 C 0.5264(8) 0.9847(7) 0.2868(9)
C21 C 0.4980(8) 0.8627(7) 0.2580(8)
O10 O 0.4027(5) 0.2851(4) 0.3490(5)
O11 O 0.5523(6) 0.2231(5) 0.1032(6)
O12 O 0.6314(5) 0.4405(4) 0.0691(5)
O5A O 0.3676(5) 0.5185(4) 0.4229(6)
Er1A Er 0.50585(3) 0.57048(2) 0.74895(3)
O13 O 0.8399(7) 0.3008(6) 0.0144(9)
loop_
_geom_bond_atom_site_label_1
_geom_bond_atom_site_label_2
_geom_bond_site_symmetry_1
_geom_bond_site_symmetry_2
Er1 O2 1_555 1_555
O1 C1 1_555 1_555
O2 C1 1_555 1_555
O3 C6 1_555 1_555
O4 Er1 1_555 1_555
O5 C8 1_555 1_555
O6 C13 1_555 1_555
O7 Er1 1_555 1_555
O8 Er1 1_555 1_555
O9 C20 1_555 1_555
C1 C2 1_555 1_555
C2 C3 1_555 1_555
C3 C4 1_555 1_555
C4 C5 1_555 1_555
C5 C6 1_555 1_555
C6 C7 1_555 1_555
C7 C2 1_555 1_555
C8 O4 1_555 1_555
C9 C8 1_555 1_555
C10 C9 1_555 1_555
C11 C10 1_555 1_555
C12 C11 1_555 1_555
C13 C12 1_555 1_555
C14 C9 1_555 1_555
C15 O7 1_555 1_555
C16 C15 1_555 1_555
C17 C16 1_555 1_555
C18 C17 1_555 1_555
C19 C18 1_555 1_555
C20 C19 1_555 1_555
C21 C16 1_555 1_555
O10 Er1 1_555 1_555
O11 Er1 1_555 1_555
O12 Er1 1_555 1_555
O5A Er1 1_555 1_555
Er1A O5 1_555 1_555
O8 C15 1_555 1_555
C13 C14 1_555 1_555
C20 C21 1_555 1_555

#END
