
#######################################################################
#
#                 Cambridge Crystallographic Data Centre
#                                CCDC 
#
#######################################################################
#
# If this CIF has been generated from an entry in the Cambridge 
# Structural Database, then it will include bibliographic, chemical, 
# crystal, experimental, refinement or atomic coordinate data resulting 
# from the CCDC's data processing and validation procedures.
#
#######################################################################

data_COSMII
_symmetry_cell_setting           rhombohedral
_symmetry_space_group_name_H-M   'R 3 c'
_symmetry_Int_Tables_number      161
_space_group_name_Hall           'R 3 -2"c'
loop_
_symmetry_equiv_pos_site_id
_symmetry_equiv_pos_as_xyz
1 x,y,z
2 -y,x-y,z
3 -x+y,-x,z
4 -y,-x,1/2+z
5 -x+y,y,1/2+z
6 x,x-y,1/2+z
7 2/3+x,1/3+y,1/3+z
8 2/3-y,1/3+x-y,1/3+z
9 2/3-x+y,1/3-x,1/3+z
10 2/3-y,1/3-x,5/6+z
11 2/3-x+y,1/3+y,5/6+z
12 2/3+x,1/3+x-y,5/6+z
13 1/3+x,2/3+y,2/3+z
14 1/3-y,2/3+x-y,2/3+z
15 1/3-x+y,2/3-x,2/3+z
16 1/3-y,2/3-x,1/6+z
17 1/3-x+y,2/3+y,1/6+z
18 1/3+x,2/3+x-y,1/6+z
_cell_length_a                   31.4162(16)
_cell_length_b                   31.4162(16)
_cell_length_c                   14.1226(14)
_cell_angle_alpha                90
_cell_angle_beta                 90
_cell_angle_gamma                120
_cell_volume                     12071.3
loop_
_atom_site_label
_atom_site_type_symbol
_atom_site_fract_x
_atom_site_fract_y
_atom_site_fract_z
In1 In 0.881484(12) 0.196850(12) -0.48263(2)
O1 O 1.0437(2) 0.3202(2) -0.7193(4)
O2 O 1.0996(2) 0.29875(17) -0.7097(3)
O3 O 0.84075(18) 0.12944(18) -0.1109(3)
O4 O 0.8907(2) 0.1065(3) -0.0527(4)
O5 O 0.8179(3) 0.2096(3) -0.5640(6)
O6 O 0.8940(2) 0.2585(2) -0.5815(4)
O7 O 0.8407(5) 0.2709(5) -0.6578(9)
O8 O 0.8147(2) 0.1325(2) -0.4391(4)
N1 N 0.96212(15) 0.22213(14) -0.5094(3)
N2 N 0.91165(16) 0.17241(15) -0.3600(3)
N3 N 0.8489(3) 0.2453(3) -0.6015(7)
N4 N 0.7403(4) 0.0759(4) -0.3998(10)
C1 C 0.9870(2) 0.25100(19) -0.5823(4)
H1 H 0.9717 0.2636 -0.6202
C2 C 1.0342(2) 0.2628(2) -0.6032(4)
C3 C 1.0560(2) 0.2435(3) -0.5477(5)
H2 H 1.0876 0.2499 -0.5611
C4 C 1.0307(2) 0.2148(3) -0.4725(5)
H3 H 1.0453 0.2017 -0.4337
C5 C 0.9840(2) 0.2050(2) -0.4538(4)
C6 C 0.95605(19) 0.1779(2) -0.3695(4)
C7 C 0.9751(3) 0.1603(3) -0.3025(5)
H4 H 1.0047 0.1610 -0.3125
C8 C 0.9487(3) 0.1414(3) -0.2190(5)
H5 H 0.9610 0.1301 -0.1714
C9 C 0.9048(2) 0.1395(2) -0.2072(4)
C10 C 0.88732(19) 0.15451(19) -0.2800(3)
H6 H 0.8567 0.1521 -0.2733
C11 C 1.0597(2) 0.2963(2) -0.6837(4)
C12 C 0.8770(2) 0.1230(3) -0.1151(4)
C13 C 0.7734(4) 0.1233(4) -0.4156(12)
C14 C 0.7644(5) 0.0428(5) -0.3857(12)
H7 H 0.7486 0.0206 -0.3340
H8 H 0.7987 0.0633 -0.3720
H9 H 0.7605 0.0245 -0.4425
C15 C 0.6894(4) 0.0525(5) -0.3772(12)
H10 H 0.6769 0.0179 -0.3689
H11 H 0.6720 0.0576 -0.4278
H12 H 0.6851 0.0662 -0.3198
C16 C 0.7584(5) 0.1581(5) -0.3858(12)
H13 H 0.7236 0.1410 -0.3739
H14 H 0.7659 0.1820 -0.4349
H15 H 0.7756 0.1744 -0.3290
In1C In 0.803150(12) 0.118516(12) 0.01737(2)
In1M In 1.136483(12) 0.351301(17) -0.81596(2)
O2H O 0.86582(26) 0.2337(2) -0.3764(3)
O3C O 0.87056(18) 0.15925(18) -0.6109(3)
loop_
_geom_bond_atom_site_label_1
_geom_bond_atom_site_label_2
_geom_bond_site_symmetry_1
_geom_bond_site_symmetry_2
In1 O5 1_555 1_555
O1 C11 1_555 1_555
O2 C11 1_555 1_555
O3 C12 1_555 1_555
O4 C12 1_555 1_555
O5 N3 1_555 1_555
O6 In1 1_555 1_555
O7 N3 1_555 1_555
O8 In1 1_555 1_555
N1 In1 1_555 1_555
N2 In1 1_555 1_555
N3 O6 1_555 1_555
N4 C13 1_555 1_555
C1 N1 1_555 1_555
H1 C1 1_555 1_555
C2 C1 1_555 1_555
C3 C2 1_555 1_555
H2 C3 1_555 1_555
C4 C3 1_555 1_555
H3 C4 1_555 1_555
C5 N1 1_555 1_555
C6 N2 1_555 1_555
C7 C6 1_555 1_555
H4 C7 1_555 1_555
C8 C7 1_555 1_555
H5 C8 1_555 1_555
C9 C8 1_555 1_555
C10 N2 1_555 1_555
H6 C10 1_555 1_555
C11 C2 1_555 1_555
C12 C9 1_555 1_555
C13 O8 1_555 1_555
C14 N4 1_555 1_555
H7 C14 1_555 1_555
H8 C14 1_555 1_555
H9 C14 1_555 1_555
C15 N4 1_555 1_555
H10 C15 1_555 1_555
H11 C15 1_555 1_555
H12 C15 1_555 1_555
C16 C13 1_555 1_555
H13 C16 1_555 1_555
H14 C16 1_555 1_555
H15 C16 1_555 1_555
In1C O3 1_555 1_555
In1M O2 1_555 1_555
O2H In1 1_555 1_555
O3C In1 1_555 1_555
C4 C5 1_555 1_555
C5 C6 1_555 1_555
C9 C10 1_555 1_555

#END
