
#######################################################################
#
#                 Cambridge Crystallographic Data Centre
#                                CCDC 
#
#######################################################################
#
# If this CIF has been generated from an entry in the Cambridge 
# Structural Database, then it will include bibliographic, chemical, 
# crystal, experimental, refinement or atomic coordinate data resulting 
# from the CCDC's data processing and validation procedures.
#
#######################################################################

data_COTMAB
_symmetry_cell_setting           monoclinic
_symmetry_space_group_name_H-M   'P 21/c'
_symmetry_Int_Tables_number      14
_space_group_name_Hall           '-P 2ybc'
loop_
_symmetry_equiv_pos_site_id
_symmetry_equiv_pos_as_xyz
1 x,y,z
2 -x,1/2+y,1/2-z
3 -x,-y,-z
4 x,1/2-y,1/2+z
_cell_length_a                   16.7603(7)
_cell_length_b                   8.6907(4)
_cell_length_c                   8.4745(3)
_cell_angle_alpha                90
_cell_angle_beta                 101.1110(11)
_cell_angle_gamma                90
_cell_volume                     1211.25
loop_
_atom_site_label
_atom_site_type_symbol
_atom_site_fract_x
_atom_site_fract_y
_atom_site_fract_z
Pb1 Pb 0.593109(7) -0.063231(13) 0.694083(13)
Cl1 Cl 0.65835(5) -0.24421(10) 0.49843(11)
Cl2 Cl 0.96145(6) 0.38074(13) 1.14830(12)
O1 O 0.54585(14) 0.1223(3) 0.4702(3)
O2 O 0.51421(14) 0.3475(3) 0.3528(3)
O3 O 0.66320(14) 0.2314(3) 0.6833(3)
N1 N 0.75974(17) 0.0067(3) 0.8051(3)
C1 C 0.55407(19) 0.2676(4) 0.4607(4)
C2 C 0.61519(19) 0.3468(3) 0.5903(4)
H1 H 0.6496 0.4146 0.5418
H2 H 0.5872 0.4079 0.6585
C3 C 0.73083(19) 0.2761(4) 0.7904(4)
C4 C 0.78162(19) 0.1517(4) 0.8563(4)
C5 C 0.7502(2) 0.4241(4) 0.8368(5)
H3 H 0.7160 0.5044 0.7944
C6 C 0.85367(19) 0.1823(4) 0.9703(4)
C7 C 0.8088(2) -0.1085(4) 0.8622(5)
H4 H 0.7952 -0.2073 0.8241
C8 C 0.8220(2) 0.4551(4) 0.9486(5)
H5 H 0.8353 0.5561 0.9791
C9 C 0.8720(2) 0.3386(4) 1.0125(4)
C10 C 0.8802(2) -0.0881(4) 0.9773(5)
H6 H 0.9123 -0.1725 1.0157
C11 C 0.9023(2) 0.0561(4) 1.0326(5)
H7 H 0.9490 0.0708 1.1105
Pb1B Pb 0.406891(7) 0.063231(13) 0.305917(13)
Pb1C Pb 0.593109(7) -0.436769(13) 0.194083(13)
Pb1C_2 Pb 0.593109(7) 0.563231(13) 0.194083(13)
Cl1C Cl 0.65835(5) -0.25579(10) 0.99843(11)
O1B O 0.45415(14) -0.1223(3) 0.5298(3)
O2C O 0.51421(14) 0.1525(3) 0.8528(3)
loop_
_geom_bond_atom_site_label_1
_geom_bond_atom_site_label_2
_geom_bond_site_symmetry_1
_geom_bond_site_symmetry_2
Pb1 Cl1 1_555 1_555
Cl1 Pb1C 1_555 1_555
Cl2 C9 1_555 1_555
O1 Pb1 1_555 1_555
O2 C1 1_555 1_555
O3 Pb1 1_555 1_555
N1 Pb1 1_555 1_555
C1 O1 1_555 1_555
C2 O3 1_555 1_555
H1 C2 1_555 1_555
H2 C2 1_555 1_555
C3 O3 1_555 1_555
C4 N1 1_555 1_555
C5 C3 1_555 1_555
H3 C5 1_555 1_555
C6 C4 1_555 1_555
C7 N1 1_555 1_555
H4 C7 1_555 1_555
C8 C5 1_555 1_555
H5 C8 1_555 1_555
C9 C6 1_555 1_555
C10 C7 1_555 1_555
H6 C10 1_555 1_555
C11 C6 1_555 1_555
H7 C11 1_555 1_555
Pb1B O1 1_555 1_555
Pb1C_2 O2 1_555 1_555
Cl1C Pb1 1_555 1_555
O1B Pb1 1_555 1_555
O2C Pb1 1_555 1_555
C1 C2 1_555 1_555
C3 C4 1_555 1_555
C8 C9 1_555 1_555
C10 C11 1_555 1_555
Pb1B O1B 1_555 1_555

#END
