
#######################################################################
#
#                 Cambridge Crystallographic Data Centre
#                                CCDC 
#
#######################################################################
#
# If this CIF has been generated from an entry in the Cambridge 
# Structural Database, then it will include bibliographic, chemical, 
# crystal, experimental, refinement or atomic coordinate data resulting 
# from the CCDC's data processing and validation procedures.
#
#######################################################################

data_COTQAF
_symmetry_cell_setting           orthorhombic
_symmetry_space_group_name_H-M   'P 21 21 2'
_symmetry_Int_Tables_number      18
_space_group_name_Hall           'P 2 2ab'
loop_
_symmetry_equiv_pos_site_id
_symmetry_equiv_pos_as_xyz
1 x,y,z
2 -x,-y,z
3 1/2-x,1/2+y,-z
4 1/2+x,1/2-y,-z
_cell_length_a                   12.8184(10)
_cell_length_b                   17.5539(14)
_cell_length_c                   9.1166(7)
_cell_angle_alpha                90
_cell_angle_beta                 90
_cell_angle_gamma                90
_cell_volume                     2051.35
loop_
_atom_site_label
_atom_site_type_symbol
_atom_site_fract_x
_atom_site_fract_y
_atom_site_fract_z
Cu1 Cu 0.36020(4) 0.20117(3) 0.06254(6)
O1 O 0.3793(2) 0.11099(19) 0.2127(4)
H1 H 0.449(4) 0.097(7) 0.235(13)
H2 H 0.330(5) 0.069(3) 0.211(9)
N1 N 0.5021(3) 0.23634(19) 0.0192(4)
N2 N 0.7101(3) 0.2818(2) -0.0368(4)
C1 C 0.5531(3) 0.2830(2) 0.1093(4)
C2 C 0.6590(3) 0.3058(2) 0.0812(5)
C3 C 0.6571(3) 0.2370(2) -0.1351(4)
C4 C 0.7047(3) 0.2149(2) -0.2683(5)
H3 H 0.7733 0.2318 -0.2904
C5 C 0.6535(3) 0.1698(3) -0.3644(5)
H4 H 0.6867 0.1549 -0.4531
C6 C 0.5508(3) 0.1443(3) -0.3340(5)
H5 H 0.5156 0.1129 -0.4028
C7 C 0.5021(3) 0.1646(2) -0.2070(5)
H6 H 0.4340 0.1462 -0.1864
C8 C 0.5531(3) 0.2130(2) -0.1061(5)
C9 C 0.4982(3) 0.3127(2) 0.2402(4)
C10 C 0.4811(3) 0.2668(3) 0.3632(5)
H7 H 0.5031 0.2151 0.3632
C11 C 0.4315(3) 0.2973(3) 0.4857(5)
H8 H 0.4197 0.2663 0.5695
C12 C 0.3991(3) 0.3730(3) 0.4860(5)
H9 H 0.3655 0.3934 0.5702
C13 C 0.4153(3) 0.4186(3) 0.3652(6)
H10 H 0.3925 0.4701 0.3656
C14 C 0.4659(3) 0.3885(3) 0.2414(5)
H11 H 0.4781 0.4199 0.1582
C15 C 0.7137(3) 0.3579(2) 0.1835(5)
C16 C 0.7280(3) 0.3396(3) 0.3303(5)
H12 H 0.7031 0.2924 0.3670
C17 C 0.7782(3) 0.3899(3) 0.4236(5)
H13 H 0.7884 0.3768 0.5237
C18 C 0.8138(4) 0.4594(3) 0.3709(5)
H14 H 0.8472 0.4941 0.4356
C19 C 0.8009(3) 0.4784(2) 0.2240(5)
H15 H 0.8263 0.5257 0.1879
C20 C 0.7507(3) 0.4280(2) 0.1300(5)
H16 H 0.7413 0.4409 0.0297
Cu1C Cu 0.86020(4) 0.29883(3) -0.06254(6)
N2C N 0.2101(3) 0.2182(2) 0.0368(4)
Cl1 Cl 0.17145(8) 0.41523(6) 0.78310(12)
O2 O 0.2422(3) 0.47766(18) 0.7535(4)
O3 O 0.2215(3) 0.34433(19) 0.7522(4)
O4 O 0.1346(3) 0.4187(2) 0.9297(4)
O5 O 0.0821(3) 0.4234(2) 0.6841(4)
C21 C 0.5000 0.5000 0.7432(7)
H17 H 0.4378 0.4974 0.6791
Cl2 Cl 0.50655(18) 0.41719(10) 0.84645(17)
H17A H 0.5622 0.5026 0.6791
Cl2A Cl 0.49345(18) 0.58281(10) 0.84645(17)
H18? H 0.4378 0.4974 0.6791
loop_
_geom_bond_atom_site_label_1
_geom_bond_atom_site_label_2
_geom_bond_site_symmetry_1
_geom_bond_site_symmetry_2
Cu1 O1 1_555 1_555
O1 H1 1_555 1_555
H2 O1 1_555 1_555
N1 Cu1 1_555 1_555
N2 C2 1_555 1_555
C1 N1 1_555 1_555
C2 C1 1_555 1_555
C3 N2 1_555 1_555
C4 C3 1_555 1_555
H3 C4 1_555 1_555
C5 C4 1_555 1_555
H4 C5 1_555 1_555
C6 C5 1_555 1_555
H5 C6 1_555 1_555
C7 C6 1_555 1_555
H6 C7 1_555 1_555
C8 N1 1_555 1_555
C9 C1 1_555 1_555
C10 C9 1_555 1_555
H7 C10 1_555 1_555
C11 C10 1_555 1_555
H8 C11 1_555 1_555
C12 C11 1_555 1_555
H9 C12 1_555 1_555
C13 C12 1_555 1_555
H10 C13 1_555 1_555
C14 C9 1_555 1_555
H11 C14 1_555 1_555
C15 C2 1_555 1_555
C16 C15 1_555 1_555
H12 C16 1_555 1_555
C17 C16 1_555 1_555
H13 C17 1_555 1_555
C18 C17 1_555 1_555
H14 C18 1_555 1_555
C19 C18 1_555 1_555
H15 C19 1_555 1_555
C20 C15 1_555 1_555
H16 C20 1_555 1_555
Cl1 O2 1_555 1_555
O3 Cl1 1_555 1_555
O4 Cl1 1_555 1_555
O5 Cl1 1_555 1_555
C21 H17 1_555 1_555
Cl2 C21 1_555 1_555
Cu1C N2 1_555 1_555
N2C Cu1 1_555 1_555
H17A C21 1_555 1_555
Cl2A C21 1_555 1_555
C3 C8 1_555 1_555
C7 C8 1_555 1_555
C13 C14 1_555 1_555
C19 C20 1_555 1_555

#END
