
#######################################################################
#
#                 Cambridge Crystallographic Data Centre
#                                CCDC 
#
#######################################################################
#
# If this CIF has been generated from an entry in the Cambridge 
# Structural Database, then it will include bibliographic, chemical, 
# crystal, experimental, refinement or atomic coordinate data resulting 
# from the CCDC's data processing and validation procedures.
#
#######################################################################

data_COVHOM
_symmetry_cell_setting           triclinic
_symmetry_space_group_name_H-M   'P 1'
_symmetry_Int_Tables_number      1
_space_group_name_Hall           'P 1'
loop_
_symmetry_equiv_pos_site_id
_symmetry_equiv_pos_as_xyz
1 x,y,z
_cell_length_a                   10.971(3)
_cell_length_b                   12.137(3)
_cell_length_c                   15.696(4)
_cell_angle_alpha                89.991(2)
_cell_angle_beta                 90.030(1)
_cell_angle_gamma                112.009(3)
_cell_volume                     1937.69
loop_
_atom_site_label
_atom_site_type_symbol
_atom_site_fract_x
_atom_site_fract_y
_atom_site_fract_z
C1 C -0.4620(6) -0.5427(5) 1.4129(4)
H1 H -0.5214 -0.6180 1.4274
C2 C -0.3894(6) -0.5182(6) 1.3418(4)
H2 H -0.3864 -0.5710 1.2997
C3 C -0.3535(5) -0.3572(5) 1.4192(4)
H3 H -0.3198 -0.2783 1.4367
C4 C -0.1473(6) -0.3694(5) 1.2437(4)
H4 H -0.1562 -0.4477 1.2533
C5 C -0.2267(5) -0.3250(5) 1.2846(3)
C6 C -0.2168(6) -0.2084(6) 1.2693(4)
H5 H -0.2733 -0.1789 1.2967
C7 C -0.1233(6) -0.1372(6) 1.2135(4)
H6 H -0.1151 -0.0591 1.2040
C8 C -0.0407(5) -0.1843(5) 1.1712(4)
C9 C -0.0514(6) -0.2987(5) 1.1868(4)
H7 H 0.0046 -0.3293 1.1598
C10 C 0.1174(6) -0.1516(5) 1.0535(4)
C11 C 0.0401(6) -0.2447(6) 0.9994(4)
H8 H -0.0505 -0.2790 1.0068
C12 C 0.0999(7) -0.2842(6) 0.9356(4)
H9 H 0.0485 -0.3445 0.8996
C13 C 0.2378(6) -0.2350(5) 0.9237(3)
C14 C 0.3098(6) -0.1439(6) 0.9786(4)
H10 H 0.4005 -0.1093 0.9719
C15 C 0.2522(6) -0.1037(6) 1.0415(4)
H11 H 0.3041 -0.0431 1.0771
C16 C 0.2995(7) -0.2753(5) 0.8546(4)
C17 C 0.2621(8) -0.3911(6) 0.8301(5)
H12 H 0.1949 -0.4495 0.8594
C18 C 0.3224(9) -0.4232(6) 0.7626(6)
H13 H 0.2950 -0.5034 0.7489
C19 C 0.4616(8) -0.2336(7) 0.7452(5)
H14 H 0.5342 -0.1789 0.7176
C20 C 0.4071(8) -0.1959(6) 0.8110(5)
H15 H 0.4418 -0.1164 0.8271
C21 C 0.1061(6) 0.0181(5) 1.1293(4)
C22 C 0.1615(7) 0.0701(6) 1.2060(4)
H16 H 0.1698 0.0223 1.2502
C23 C 0.2045(7) 0.1919(6) 1.2178(4)
H17 H 0.2414 0.2245 1.2697
C24 C 0.1935(5) 0.2666(6) 1.1530(4)
C25 C 0.1384(6) 0.2111(6) 1.0762(4)
H18 H 0.1308 0.2581 1.0313
C26 C 0.0959(7) 0.0922(6) 1.0648(4)
H19 H 0.0591 0.0596 1.0128
C27 C 0.2398(5) 0.3953(5) 1.1640(4)
C28 C 0.3119(7) 0.4506(7) 1.2351(6)
H20 H 0.3290 0.4052 1.2777
C29 C 0.3596(8) 0.5760(7) 1.2431(6)
H21 H 0.4094 0.6105 1.2909
C30 C 0.2634(10) 0.5932(7) 1.1208(6)
H22 H 0.2440 0.6411 1.0810
C31 C 0.2118(9) 0.4694(7) 1.1062(5)
H23 H 0.1598 0.4379 1.0587
C32 C 0.2488(6) -0.3915(6) 0.5148(6)
C33 C 0.1404(7) -0.3625(6) 0.4659(5)
C34 C 0.0363(9) -0.4743(9) 0.4383(9)
H24 H 0.0549 -0.4934 0.3817
H25 H -0.0469 -0.4651 0.4388
H26 H 0.0330 -0.5371 0.4765
C35 C 0.1919(7) -0.2890(8) 0.3857(5)
H27 H 0.2873 -0.2560 0.3862
H28 H 0.1631 -0.3390 0.3357
C36 C 0.1409(7) -0.1911(6) 0.3827(5)
H29 H 0.1027 -0.1881 0.3274
H30 H 0.2107 -0.1150 0.3938
C37 C 0.0382(5) -0.2210(5) 0.4512(4)
H31 H -0.0427 -0.2804 0.4281
C38 C 0.0892(5) -0.2823(5) 0.5225(4)
C39 C -0.0204(8) -0.3534(7) 0.5802(7)
H32 H 0.0104 -0.3987 0.6188
H33 H -0.0917 -0.4064 0.5469
H34 H -0.0503 -0.3009 0.6121
C40 C 0.2005(7) -0.1875(8) 0.5737(5)
H35 H 0.1664 -0.1344 0.6010
H36 H 0.2703 -0.1434 0.5357
H37 H 0.2336 -0.2262 0.6160
C41 C 0.0060(5) -0.1154(5) 0.4819(4)
C42 C -0.2471(5) 0.1191(5) 0.6202(5)
C43 C -0.3604(5) 0.1417(5) 0.6619(4)
C44 C -0.3552(8) 0.1112(8) 0.7585(6)
H38 H -0.3962 0.0268 0.7664
H39 H -0.4009 0.1502 0.7915
H40 H -0.2652 0.1379 0.7768
C45 C -0.3552(5) 0.2730(5) 0.6521(6)
C46 C -0.3245(6) 0.3150(7) 0.5602(7)
H41 H -0.3366 0.3887 0.5529
H42 H -0.3824 0.2564 0.5225
H43 H -0.2350 0.3263 0.5473
C47 C -0.2579(10) 0.3659(8) 0.7101(11)
H44 H -0.1717 0.3644 0.7026
H45 H -0.2845 0.3482 0.7684
H46 H -0.2564 0.4433 0.6958
C48 C -0.4989(5) 0.2558(5) 0.6751(5)
H47 H -0.5043 0.2603 0.7372
C49 C -0.5347(6) 0.3560(7) 0.6371(7)
C50 C -0.5848(6) 0.1307(7) 0.6483(6)
H48 H -0.6395 0.1331 0.6003
H49 H -0.6415 0.0894 0.6949
C51 C -0.4946(5) 0.0671(5) 0.6236(5)
H50 H -0.4886 0.0627 0.5621
H51 H -0.5268 -0.0129 0.6466
C52 C 0.0226(6) -0.0512(6) 0.7178(4)
H52 H -0.0309 -0.1281 0.7022
C53 C 0.0997(6) -0.0216(5) 0.7893(4)
H53 H 0.1085 -0.0735 0.8302
C54 C 0.1203(5) 0.1373(5) 0.7161(4)
H54 H 0.1495 0.2167 0.6999
C55 C 0.3461(6) 0.1281(5) 0.8823(4)
H55 H 0.3393 0.0508 0.8710
C56 C 0.2565(6) 0.1712(5) 0.8473(3)
C57 C 0.4461(6) 0.2014(5) 0.9343(4)
H56 H 0.5049 0.1715 0.9584
C58 C 0.4610(6) 0.3179(5) 0.9513(3)
C59 C 0.3651(6) 0.3565(6) 0.9159(4)
H57 H 0.3690 0.4327 0.9281
C60 C 0.2670(5) 0.2850(5) 0.8644(4)
H58 H 0.2070 0.3138 0.8407
C61 C 0.6090(7) 0.5896(6) 1.0615(4)
H59 H 0.5846 0.5544 1.1147
C62 C 0.6076(6) 0.5194(5) 0.9911(4)
C63 C 0.6403(7) 0.5714(6) 0.9125(4)
H60 H 0.6375 0.5251 0.8648
C64 C 0.6773(7) 0.6922(6) 0.9047(4)
H61 H 0.6984 0.7260 0.8509
C65 C 0.6846(6) 0.7659(5) 0.9737(4)
C66 C 0.6461(6) 0.7109(6) 1.0531(4)
H62 H 0.6456 0.7566 1.1005
C67 C 0.7303(5) 0.8966(5) 0.9653(4)
C68 C 0.6961(7) 0.9674(7) 1.0224(5)
H63 H 0.6392 0.9331 1.0673
C69 C 0.7474(8) 1.0891(7) 1.0119(6)
H64 H 0.7230 1.1350 1.0507
C70 C 0.8604(7) 1.0783(6) 0.8967(5)
H65 H 0.9174 1.1156 0.8526
C71 C 0.8153(6) 0.9556(6) 0.9003(5)
H66 H 0.8415 0.9132 0.8596
C72 C 0.6186(6) 0.3479(5) 1.0692(4)
C73 C 0.7548(7) 0.3915(6) 1.0797(5)
H67 H 0.8089 0.4478 1.0420
C74 C 0.5399(6) 0.2626(6) 1.1236(4)
H68 H 0.4491 0.2340 1.1170
C75 C 0.5943(7) 0.2188(6) 1.1878(4)
H69 H 0.5393 0.1592 1.2230
C76 C 0.8090(6) 0.3508(6) 1.1462(5)
H70 H 0.8995 0.3826 1.1549
C77 C 0.7274(6) 0.2607(5) 1.2015(4)
C78 C 0.7820(6) 0.2143(5) 1.2725(4)
C79 C 0.6967(7) 0.1650(11) 1.3483(6)
H71 H 0.6103 0.1606 1.3495
C80 C 0.7492(11) 0.1262(13) 1.4163(8)
H72 H 0.6988 0.0984 1.4650
N1 N 0.8793(6) 0.1279(6) 1.4129(4)
C81 C 0.9517(9) 0.1843(11) 1.3540(6)
H73 H 1.0414 0.2005 1.3576
C82 C 0.9045(7) 0.2242(9) 1.2832(6)
H74 H 0.9641 0.2607 1.2401
Cd1 Cd -0.04420(3) 0.07657(3) 0.54145(2)
Cd2 Cd 0.46696(3) -0.41938(3) 0.58775(2)
N2 N 0.0585(6) -0.1081(5) 1.1180(4)
N3 N -0.4378(4) -0.4420(5) 1.4622(3)
N4 N -0.3195(5) -0.3964(4) 1.3452(3)
N5 N 0.4140(6) -0.3486(5) 0.7178(4)
N6 N 0.3373(7) 0.6464(6) 1.1866(5)
N7 N 0.0361(4) 0.0503(4) 0.6722(3)
N8 N 0.1604(4) 0.0980(4) 0.7886(3)
N9 N 0.5637(6) 0.3936(5) 1.0021(3)
N10 N 0.8301(6) 1.1449(6) 0.9494(4)
O1 O -0.4836(8) 0.4555(6) 0.6696(5)
O2 O -0.6174(5) 0.3322(6) 0.5763(6)
O3 O -0.1362(4) 0.1948(4) 0.6175(4)
O4 O -0.2721(4) 0.0181(4) 0.5883(5)
O5 O -0.1008(4) -0.1348(4) 0.5185(4)
O6 O 0.0858(5) -0.0111(4) 0.4710(4)
O7 O 0.2180(5) -0.4839(5) 0.5569(5)
O8 O 0.3656(5) -0.3196(5) 0.5090(4)
O9 O 0.1369(5) 0.2622(5) 0.5283(4)
H75 H 0.1147 0.3173 0.5478
H76 H 0.2020 0.2597 0.5565
O10 O 0.6680(5) -0.2385(6) 0.6049(4)
H77 H 0.7331 -0.2584 0.6151
H78 H 0.6823 -0.1977 0.5593
N1_2 N -0.1207(6) 0.1279(6) 0.4129(4)
Cd1_2 Cd 0.95580(3) 0.07657(3) 1.54145(2)
Cd2_2 Cd -0.53304(3) -0.41938(3) 1.58775(2)
Cd2_3 Cd -0.53304(3) 0.58062(3) 0.58775(2)
N3_2 N 0.5622(4) -0.4420(5) 0.4622(3)
O1_2 O 0.5164(8) -0.5445(6) 0.6696(5)
O2_2 O 0.3826(5) -0.6678(6) 0.5763(6)
O11 O 0.0578(8) 0.3763(7) 0.7138(6)
H79 H -0.0009 0.3221 0.6859
H80 H 0.1153 0.4209 0.6797
O12 O 0.9855(9) 0.3923(8) 0.9037(8)
H81 H 0.9881 0.3492 0.8616
H82 H 0.9732 0.3518 0.9493
O13 O 0.3261(12) 0.1522(10) 0.4122(6)
H83 H 0.2528 0.1029 0.4301
H84 H 0.3708 0.1912 0.4541
O14 O 0.5528(11) 0.8826(9) 0.4350(9)
H85 H 0.5201 0.8344 0.3942
H86 H 0.5062 0.9240 0.4435
O15 O 0.4930(13) 0.8903(10) 0.2028(11)
H87 H 0.4509 0.8261 0.2292
H88 H 0.5210 0.9472 0.2383
loop_
_geom_bond_atom_site_label_1
_geom_bond_atom_site_label_2
_geom_bond_site_symmetry_1
_geom_bond_site_symmetry_2
C1 H1 1_555 1_555
C2 C1 1_555 1_555
H2 C2 1_555 1_555
C3 H3 1_555 1_555
C4 H4 1_555 1_555
C5 C4 1_555 1_555
C6 C5 1_555 1_555
H5 C6 1_555 1_555
C7 C6 1_555 1_555
H6 C7 1_555 1_555
C8 C7 1_555 1_555
C9 C4 1_555 1_555
H7 C9 1_555 1_555
C10 C11 1_555 1_555
C11 H8 1_555 1_555
C12 C11 1_555 1_555
H9 C12 1_555 1_555
C13 C12 1_555 1_555
C14 C13 1_555 1_555
H10 C14 1_555 1_555
C15 C10 1_555 1_555
H11 C15 1_555 1_555
C16 C13 1_555 1_555
C17 C16 1_555 1_555
H12 C17 1_555 1_555
C18 C17 1_555 1_555
H13 C18 1_555 1_555
C19 H14 1_555 1_555
C20 C16 1_555 1_555
H15 C20 1_555 1_555
C21 C22 1_555 1_555
C22 H16 1_555 1_555
C23 C22 1_555 1_555
H17 C23 1_555 1_555
C24 C23 1_555 1_555
C25 C24 1_555 1_555
H18 C25 1_555 1_555
C26 C21 1_555 1_555
H19 C26 1_555 1_555
C27 C24 1_555 1_555
C28 C27 1_555 1_555
H20 C28 1_555 1_555
C29 C28 1_555 1_555
H21 C29 1_555 1_555
C30 H22 1_555 1_555
C31 C27 1_555 1_555
H23 C31 1_555 1_555
C32 C33 1_555 1_555
C33 C34 1_555 1_555
C34 H24 1_555 1_555
H25 C34 1_555 1_555
H26 C34 1_555 1_555
C35 C33 1_555 1_555
H27 C35 1_555 1_555
H28 C35 1_555 1_555
C36 C35 1_555 1_555
H29 C36 1_555 1_555
H30 C36 1_555 1_555
C37 C36 1_555 1_555
H31 C37 1_555 1_555
C38 C33 1_555 1_555
C39 C38 1_555 1_555
H32 C39 1_555 1_555
H33 C39 1_555 1_555
H34 C39 1_555 1_555
C40 C38 1_555 1_555
H35 C40 1_555 1_555
H36 C40 1_555 1_555
H37 C40 1_555 1_555
C41 C37 1_555 1_555
C42 C43 1_555 1_555
C43 C44 1_555 1_555
C44 H38 1_555 1_555
H39 C44 1_555 1_555
H40 C44 1_555 1_555
C45 C43 1_555 1_555
C46 C45 1_555 1_555
H41 C46 1_555 1_555
H42 C46 1_555 1_555
H43 C46 1_555 1_555
C47 C45 1_555 1_555
H44 C47 1_555 1_555
H45 C47 1_555 1_555
H46 C47 1_555 1_555
C48 C45 1_555 1_555
H47 C48 1_555 1_555
C49 C48 1_555 1_555
C50 C48 1_555 1_555
H48 C50 1_555 1_555
H49 C50 1_555 1_555
C51 C43 1_555 1_555
H50 C51 1_555 1_555
H51 C51 1_555 1_555
C52 H52 1_555 1_555
C53 C52 1_555 1_555
H53 C53 1_555 1_555
C54 H54 1_555 1_555
C55 H55 1_555 1_555
C56 C55 1_555 1_555
C57 C55 1_555 1_555
H56 C57 1_555 1_555
C58 C57 1_555 1_555
C59 C58 1_555 1_555
H57 C59 1_555 1_555
C60 C56 1_555 1_555
H58 C60 1_555 1_555
C61 H59 1_555 1_555
C62 C61 1_555 1_555
C63 C62 1_555 1_555
H60 C63 1_555 1_555
C64 C63 1_555 1_555
H61 C64 1_555 1_555
C65 C64 1_555 1_555
C66 C61 1_555 1_555
H62 C66 1_555 1_555
C67 C65 1_555 1_555
C68 C67 1_555 1_555
H63 C68 1_555 1_555
C69 C68 1_555 1_555
H64 C69 1_555 1_555
C70 H65 1_555 1_555
C71 C67 1_555 1_555
H66 C71 1_555 1_555
C72 C73 1_555 1_555
C73 H67 1_555 1_555
C74 C72 1_555 1_555
H68 C74 1_555 1_555
C75 C74 1_555 1_555
H69 C75 1_555 1_555
C76 C73 1_555 1_555
H70 C76 1_555 1_555
C77 C75 1_555 1_555
C78 C77 1_555 1_555
C79 C78 1_555 1_555
H71 C79 1_555 1_555
C80 C79 1_555 1_555
H72 C80 1_555 1_555
N1 C80 1_555 1_555
C81 N1 1_555 1_555
H73 C81 1_555 1_555
C82 C78 1_555 1_555
H74 C82 1_555 1_555
Cd1 N7 1_555 1_555
Cd2 N5 1_555 1_555
N2 C8 1_555 1_555
N3 C1 1_555 1_555
N4 C2 1_555 1_555
N5 C18 1_555 1_555
N6 C29 1_555 1_555
N7 C52 1_555 1_555
N8 C53 1_555 1_555
N9 C58 1_555 1_555
N10 C69 1_555 1_555
O1 C49 1_555 1_555
O2 C49 1_555 1_555
O3 C42 1_555 1_555
O4 C42 1_555 1_555
O5 C41 1_555 1_555
O6 C41 1_555 1_555
O7 C32 1_555 1_555
O8 C32 1_555 1_555
O9 Cd1 1_555 1_555
H75 O9 1_555 1_555
H76 O9 1_555 1_555
O10 Cd2 1_555 1_555
H77 O10 1_555 1_555
H78 O10 1_555 1_555
O11 H79 1_555 1_555
H80 O11 1_555 1_555
O12 H81 1_555 1_555
H82 O12 1_555 1_555
O13 H83 1_555 1_555
H84 O13 1_555 1_555
O14 H85 1_555 1_555
H86 O14 1_555 1_555
O15 H87 1_555 1_555
H88 O15 1_555 1_555
N1_2 Cd1 1_555 1_555
Cd1_2 N1 1_555 1_555
Cd2_2 N3 1_555 1_555
Cd2_3 O1 1_555 1_555
N3_2 Cd2 1_555 1_555
O1_2 Cd2 1_555 1_555
O2_2 Cd2 1_555 1_555
C3 N3 1_555 1_555
C3 N4 1_555 1_555
C5 N4 1_555 1_555
C8 C9 1_555 1_555
C10 N2 1_555 1_555
C14 C15 1_555 1_555
C19 C20 1_555 1_555
C19 N5 1_555 1_555
C21 N2 1_555 1_555
C25 C26 1_555 1_555
C30 C31 1_555 1_555
C30 N6 1_555 1_555
C37 C38 1_555 1_555
C50 C51 1_555 1_555
C54 N7 1_555 1_555
C54 N8 1_555 1_555
C56 N8 1_555 1_555
C59 C60 1_555 1_555
C62 N9 1_555 1_555
C65 C66 1_555 1_555
C70 C71 1_555 1_555
C70 N10 1_555 1_555
C72 N9 1_555 1_555
C76 C77 1_555 1_555
C81 C82 1_555 1_555
Cd1 O3 1_555 1_555
Cd1 O4 1_555 1_555
Cd1 O5 1_555 1_555
Cd1 O6 1_555 1_555
Cd2 O7 1_555 1_555
Cd2 O8 1_555 1_555
O2 Cd2_3 1_555 1_555

#END
