
#######################################################################
#
#                 Cambridge Crystallographic Data Centre
#                                CCDC 
#
#######################################################################
#
# If this CIF has been generated from an entry in the Cambridge 
# Structural Database, then it will include bibliographic, chemical, 
# crystal, experimental, refinement or atomic coordinate data resulting 
# from the CCDC's data processing and validation procedures.
#
#######################################################################

data_COVHOL
_symmetry_cell_setting           triclinic
_symmetry_space_group_name_H-M   'P -1'
_symmetry_Int_Tables_number      2
_space_group_name_Hall           '-P 1'
loop_
_symmetry_equiv_pos_site_id
_symmetry_equiv_pos_as_xyz
1 x,y,z
2 -x,-y,-z
_cell_length_a                   10.144(2)
_cell_length_b                   10.983(2)
_cell_length_c                   16.335(4)
_cell_angle_alpha                93.147(4)
_cell_angle_beta                 98.088(4)
_cell_angle_gamma                104.386(4)
_cell_volume                     1737.63
loop_
_atom_site_label
_atom_site_type_symbol
_atom_site_fract_x
_atom_site_fract_y
_atom_site_fract_z
Ag1 Ag -0.28658(4) -0.45005(3) -0.52688(3)
Ag2 Ag 0.03148(4) -0.53100(4) -0.22092(3)
N1 N -0.2906(3) -0.2416(3) -0.5222(2)
N2 N -0.3988(3) -0.2167(3) -0.5773(2)
N3 N -0.7692(4) -0.0657(4) -0.7705(2)
H1 H -0.8142 -0.1384 -0.7591
N4 N 0.1547(4) -0.2556(3) -0.3136(2)
H2 H 0.1753 -0.3007 -0.3521
C1 C -0.2183(4) -0.1336(4) -0.4841(3)
C2 C -0.0929(4) -0.0999(4) -0.4228(3)
C3 C -0.0285(4) -0.1923(4) -0.3955(3)
H3 H -0.0655 -0.2761 -0.4165
C4 C 0.0882(4) -0.1597(4) -0.3382(2)
C5 C 0.1463(5) -0.0334(4) -0.3084(3)
H4 H 0.2294 -0.0104 -0.2720
C6 C 0.0801(5) 0.0577(4) -0.3329(3)
H5 H 0.1160 0.1411 -0.3106
C7 C -0.0385(5) 0.0247(4) -0.3902(3)
H6 H -0.0825 0.0860 -0.4071
C8 C 0.1873(4) -0.2805(4) -0.2350(3)
C9 C 0.1557(7) -0.2062(5) -0.1645(3)
H7 H 0.2326 -0.1348 -0.1454
H8 H 0.1386 -0.2586 -0.1200
H9 H 0.0755 -0.1774 -0.1828
C10 C 0.2395(5) -0.3841(4) -0.2199(3)
H10 H 0.2979 -0.3719 -0.1654
C11 C 0.2889(4) -0.4553(4) -0.2798(3)
C12 C 0.3478(6) -0.5599(6) -0.2545(5)
H11 H 0.2953 -0.6368 -0.2865
H12 H 0.3446 -0.5686 -0.1966
H13 H 0.4417 -0.5423 -0.2638
C13 C -0.3839(4) -0.0953(4) -0.5687(3)
C14 C -0.4661(4) -0.0194(4) -0.6090(3)
C15 C -0.4344(4) 0.1103(4) -0.5852(3)
H14 H -0.3607 0.1483 -0.5436
C16 C -0.5140(5) 0.1796(5) -0.6246(3)
H15 H -0.4911 0.2664 -0.6109
C17 C -0.6279(5) 0.1252(4) -0.6842(3)
H16 H -0.6843 0.1733 -0.7078
C18 C -0.6556(4) -0.0037(4) -0.7078(3)
C19 C -0.5784(4) -0.0772(4) -0.6712(3)
H17 H -0.5995 -0.1633 -0.6870
C20 C -0.8186(6) -0.0315(5) -0.8440(3)
C21 C -0.7380(10) 0.0897(7) -0.8728(5)
H18 H -0.6416 0.1025 -0.8526
H19 H -0.7686 0.1595 -0.8517
H20 H -0.7528 0.0839 -0.9324
C22 C -0.9276(6) -0.1069(6) -0.8943(4)
H21 H -0.9592 -0.0756 -0.9429
C23 C -0.9983(6) -0.2292(6) -0.8799(4)
C24 C -1.1067(8) -0.3104(3) -0.9459(2)
H22 H -1.0772 -0.3002 -0.9990
H23 H -1.1912 -0.2860 -0.9464
H24 H -1.1210 -0.3972 -0.9346
H25 H -0.3912 -0.4920 -0.3653
H26 H -0.4211 -0.6037 -0.4146
O1 O -0.2718(3) -0.0376(2) -0.5099(2)
O2 O -0.9726(4) -0.2691(4) -0.8111(2)
O3 O 0.2759(3) -0.4316(3) -0.35422(19)
O8 O -0.1151(6) -0.4316(8) -0.1500(5)
O9 O -0.2565(12) -0.3774(7) -0.2571(6)
O10 O -0.3033(6) -0.5793(5) -0.2255(3)
O11 O -0.3278(5) -0.4240(6) -0.1302(3)
O12 O -0.4097(4) -0.5245(3) -0.41554(19)
Cl1 Cl -0.25237(16) -0.45494(16) -0.18882(11)
Ag1A Ag 0.28658(4) -0.54995(3) -0.47312(3)
Ag2A Ag -1.03148(4) -0.46900(4) -0.77908(3)
O2A O -0.0274(4) -0.7309(4) -0.1889(2)
O3A O -0.2759(3) -0.5684(3) -0.64578(19)
C25 C -0.4739(10) -0.7331(11) -0.0777(6)
H27 H -0.4518 -0.6610 -0.1108
Cl3 Cl -0.5128(3) -0.6713(3) 0.00875(16)
Cl4 Cl -0.3182(8) -0.7712(7) -0.0531(5)
Cl5 Cl -0.5966(6) -0.8359(3) -0.1388(2)
O4 O -0.1475(5) -0.6307(5) -0.5020(3)
O5 O -0.1913(5) -0.7274(4) -0.3836(4)
O6 O 0.0320(4) -0.6685(3) -0.4121(3)
O7 O -0.0773(4) -0.5153(3) -0.3731(3)
Cl2 Cl -0.09685(10) -0.63622(9) -0.41641(6)
loop_
_geom_bond_atom_site_label_1
_geom_bond_atom_site_label_2
_geom_bond_site_symmetry_1
_geom_bond_site_symmetry_2
Ag1 N1 1_555 1_555
Ag2 C10 1_555 1_555
N1 N2 1_555 1_555
N2 C13 1_555 1_555
N3 H1 1_555 1_555
N4 H2 1_555 1_555
C1 N1 1_555 1_555
C2 C1 1_555 1_555
C3 C2 1_555 1_555
H3 C3 1_555 1_555
C4 N4 1_555 1_555
C5 C4 1_555 1_555
H4 C5 1_555 1_555
C6 C5 1_555 1_555
H5 C6 1_555 1_555
C7 C2 1_555 1_555
H6 C7 1_555 1_555
C8 N4 1_555 1_555
C9 C8 1_555 1_555
H7 C9 1_555 1_555
H8 C9 1_555 1_555
H9 C9 1_555 1_555
C10 C8 1_555 1_555
H10 C10 1_555 1_555
C11 C10 1_555 1_555
C12 C11 1_555 1_555
H11 C12 1_555 1_555
H12 C12 1_555 1_555
H13 C12 1_555 1_555
C13 C14 1_555 1_555
C14 C15 1_555 1_555
C15 H14 1_555 1_555
C16 C15 1_555 1_555
H15 C16 1_555 1_555
C17 C16 1_555 1_555
H16 C17 1_555 1_555
C18 N3 1_555 1_555
C19 C14 1_555 1_555
H17 C19 1_555 1_555
C20 N3 1_555 1_555
C21 C20 1_555 1_555
H18 C21 1_555 1_555
H19 C21 1_555 1_555
H20 C21 1_555 1_555
C22 C20 1_555 1_555
H21 C22 1_555 1_555
C23 C22 1_555 1_555
C24 C23 1_555 1_555
H22 C24 1_555 1_555
H23 C24 1_555 1_555
H24 C24 1_555 1_555
H25 O12 1_555 1_555
H26 O12 1_555 1_555
C25 H27 1_555 1_555
O1 C1 1_555 1_555
O2 C23 1_555 1_555
O3 C11 1_555 1_555
O4 Cl2 1_555 1_555
O5 Cl2 1_555 1_555
O6 Cl2 1_555 1_555
O7 Cl2 1_555 1_555
O8 Ag2 1_555 1_555
O9 Cl1 1_555 1_555
O10 Cl1 1_555 1_555
O11 Cl1 1_555 1_555
O12 Ag1 1_555 1_555
Cl1 O8 1_555 1_555
Cl3 C25 1_555 1_555
Cl4 C25 1_555 1_555
Cl5 C25 1_555 1_555
Ag1A O3 1_555 1_555
Ag2A O2 1_555 1_555
O2A Ag2 1_555 1_555
O3A Ag1 1_555 1_555
C3 C4 1_555 1_555
C6 C7 1_555 1_555
C13 O1 1_555 1_555
C17 C18 1_555 1_555
C18 C19 1_555 1_555

#END
