
#######################################################################
#
#                 Cambridge Crystallographic Data Centre
#                                CCDC 
#
#######################################################################
#
# If this CIF has been generated from an entry in the Cambridge 
# Structural Database, then it will include bibliographic, chemical, 
# crystal, experimental, refinement or atomic coordinate data resulting 
# from the CCDC's data processing and validation procedures.
#
#######################################################################

data_COVHEA
_symmetry_cell_setting           tetragonal
_symmetry_space_group_name_H-M   'I -4'
_symmetry_Int_Tables_number      82
_space_group_name_Hall           'I -4'
loop_
_symmetry_equiv_pos_site_id
_symmetry_equiv_pos_as_xyz
1 x,y,z
2 1/2+x,1/2+y,1/2+z
3 -y,x,-z
4 1/2-y,1/2+x,1/2-z
5 -x,-y,z
6 1/2-x,1/2-y,1/2+z
7 y,-x,-z
8 1/2+y,1/2-x,1/2-z
_cell_length_a                   11.194(7)
_cell_length_b                   11.194(7)
_cell_length_c                   10.579(7)
_cell_angle_alpha                90
_cell_angle_beta                 90
_cell_angle_gamma                90
_cell_volume                     1325.61
loop_
_atom_site_label
_atom_site_type_symbol
_atom_site_fract_x
_atom_site_fract_y
_atom_site_fract_z
Hg1 Hg 0.5000 0.5000 0.5000
Ba1 Ba 0.0000 0.5000 0.2500
C1 C 0.3353(7) 0.5098(6) 0.3873(7)
N1 N 0.2478(8) 0.5130(7) 0.3355(8)
N2 N 0.0142(7) 0.3545(6) 0.4770(6)
C2 C 0.0988(9) 0.2749(7) 0.4865(11)
C3 C 0.1073(12) 0.1976(11) 0.5909(11)
C4 C 0.0231(11) 0.2007(13) 0.6858(12)
C5 C -0.0649(9) 0.2870(10) 0.6769(10)
C6 C -0.0659(9) 0.3601(8) 0.5745(8)
N1G N 0.0130(7) 0.2522(8) 0.1645(8)
N1C N -0.0130(7) 0.7478(8) 0.1645(8)
N1D N -0.2478(8) 0.4870(7) 0.3355(8)
N2C N 0.1455(6) 0.5142(7) 0.0230(6)
N2D N -0.0142(7) 0.6455(6) 0.4770(6)
N2G N -0.1455(6) 0.4858(7) 0.0230(6)
C2C C 0.2251(7) 0.5988(9) 0.0135(11)
C6C C 0.1399(8) 0.4341(9) -0.0745(8)
C2D C -0.0988(9) 0.7251(7) 0.4865(11)
C6D C 0.0659(9) 0.6399(8) 0.5745(8)
C2G C -0.2251(7) 0.4012(9) 0.0135(11)
C6G C -0.1399(8) 0.5659(9) -0.0745(8)
C3C C 0.3024(11) 0.6073(12) -0.0909(11)
C5C C 0.2130(10) 0.4351(9) -0.1769(10)
C3D C -0.1073(12) 0.8024(11) 0.5909(11)
C5D C 0.0649(9) 0.7130(10) 0.6769(10)
C3G C -0.3024(11) 0.3927(12) -0.0909(11)
C5G C -0.2130(10) 0.5649(9) -0.1769(10)
C1F C 0.5098(6) 0.6647(7) 0.6127(7)
C1B C 0.4902(6) 0.3353(7) 0.6127(7)
C1D C 0.6647(7) 0.4902(6) 0.3873(7)
C4C C 0.2993(13) 0.5231(11) -0.1858(12)
C4D C -0.0231(11) 0.7993(13) 0.6858(12)
C4G C -0.2993(13) 0.4769(11) -0.1858(12)
N1F N 0.5130(7) 0.7522(8) 0.6645(8)
N1B N 0.4870(7) 0.2478(8) 0.6645(8)
N1D_2 N 0.7522(8) 0.4870(7) 0.3355(8)
Ba1A Ba 0.5000 0.0000 0.7500
Ba1A_2 Ba 0.5000 1.0000 0.7500
Ba1_2 Ba 1.0000 0.5000 0.2500
loop_
_geom_bond_atom_site_label_1
_geom_bond_atom_site_label_2
_geom_bond_site_symmetry_1
_geom_bond_site_symmetry_2
Hg1 C1 1_555 1_555
Ba1 N1 1_555 1_555
C1 N1 1_555 1_555
N2 Ba1 1_555 1_555
C2 N2 1_555 1_555
C3 C2 1_555 1_555
C4 C3 1_555 1_555
C5 C4 1_555 1_555
C6 N2 1_555 1_555
N1G Ba1 1_555 1_555
N1C Ba1 1_555 1_555
N1D Ba1 1_555 1_555
N2C Ba1 1_555 1_555
N2D Ba1 1_555 1_555
N2G Ba1 1_555 1_555
C2C N2C 1_555 1_555
C6C N2C 1_555 1_555
C2D N2D 1_555 1_555
C6D N2D 1_555 1_555
C2G N2G 1_555 1_555
C6G N2G 1_555 1_555
C3C C2C 1_555 1_555
C5C C6C 1_555 1_555
C3D C2D 1_555 1_555
C5D C6D 1_555 1_555
C3G C2G 1_555 1_555
C5G C6G 1_555 1_555
C1F Hg1 1_555 1_555
C1B Hg1 1_555 1_555
C1D Hg1 1_555 1_555
C4C C3C 1_555 1_555
C4D C3D 1_555 1_555
C4G C3G 1_555 1_555
N1F C1F 1_555 1_555
N1B C1B 1_555 1_555
N1D_2 C1D 1_555 1_555
Ba1A N1B 1_555 1_555
Ba1A_2 N1F 1_555 1_555
Ba1_2 N1D_2 1_555 1_555
C5 C6 1_555 1_555
C5C C4C 1_555 1_555
C5D C4D 1_555 1_555
C5G C4G 1_555 1_555

#END
