
#######################################################################
#
#                 Cambridge Crystallographic Data Centre
#                                CCDC 
#
#######################################################################
#
# If this CIF has been generated from an entry in the Cambridge 
# Structural Database, then it will include bibliographic, chemical, 
# crystal, experimental, refinement or atomic coordinate data resulting 
# from the CCDC's data processing and validation procedures.
#
#######################################################################

data_COVLIJ
_symmetry_cell_setting           monoclinic
_symmetry_space_group_name_H-M   'P 21/a'
_symmetry_Int_Tables_number      14
_space_group_name_Hall           '-P 2yab'
loop_
_symmetry_equiv_pos_site_id
_symmetry_equiv_pos_as_xyz
1 x,y,z
2 1/2-x,1/2+y,-z
3 -x,-y,-z
4 1/2+x,1/2-y,z
_cell_length_a                   14.9770(10)
_cell_length_b                   13.7190(10)
_cell_length_c                   16.2010(10)
_cell_angle_alpha                90
_cell_angle_beta                 96.031(10)
_cell_angle_gamma                90
_cell_volume                     3310.39
loop_
_atom_site_label
_atom_site_type_symbol
_atom_site_fract_x
_atom_site_fract_y
_atom_site_fract_z
C1 C 0.54464(19) 0.0557(2) 0.77537(18)
C2 C 0.4420(2) 0.0657(2) 0.6266(2)
C3 C 0.3116(2) -0.0460(3) 0.6835(3)
C4 C 0.37483(19) 0.1223(2) 0.7601(2)
C5 C 0.3900(2) -0.0361(3) 0.9072(2)
H1 H 0.3637 0.0253 0.9078
C6 C 0.3963(3) -0.0924(3) 0.9776(2)
H2 H 0.3751 -0.0699 1.0261
C7 C 0.4346(3) -0.1823(3) 0.9743(3)
H3 H 0.4400 -0.2208 1.0219
C8 C 0.45697(19) -0.1582(2) 0.8400(2)
C9 C 0.49242(19) -0.1893(2) 0.7624(2)
C10 C 0.5621(3) -0.2981(3) 0.6865(3)
H4 H 0.5895 -0.3583 0.6812
C11 C 0.5578(3) -0.2343(3) 0.6211(3)
H5 H 0.5809 -0.2509 0.5719
C12 C 0.5183(2) -0.1449(3) 0.6304(2)
H6 H 0.5144 -0.1002 0.5870
C13 C 0.75856(19) 0.2671(2) 0.95799(18)
C14 C 0.8029(2) 0.2624(3) 1.0389(2)
H7 H 0.8367 0.2076 1.0554
C15 C 0.7968(3) 0.3377(4) 1.0938(2)
H8 H 0.8270 0.3329 1.1468
C16 C 0.7470(3) 0.4204(3) 1.0726(2)
H9 H 0.7444 0.4710 1.1104
C17 C 0.7019(2) 0.4263(3) 0.9952(2)
H10 H 0.6674 0.4814 0.9809
C18 C 0.7061(2) 0.3513(2) 0.9364(2)
C19 C 0.6514(2) 0.3626(2) 0.8582(2)
H11 H 0.6141 0.4169 0.8518
C20 C 0.5896(2) 0.3157(2) 0.7190(2)
H12 H 0.5437 0.2646 0.7177
C21 C 0.5415(2) 0.4135(3) 0.7088(2)
H13 H 0.5850 0.4661 0.7139
H14 H 0.5017 0.4214 0.7518
C22 C 0.4874(3) 0.4173(3) 0.6234(3)
H15 H 0.4398 0.3692 0.6211
H16 H 0.4598 0.4811 0.6155
C23 C 0.5452(3) 0.3981(3) 0.5545(2)
H17 H 0.5904 0.4487 0.5543
H18 H 0.5083 0.4002 0.5016
C24 C 0.5909(3) 0.2993(3) 0.5648(2)
H19 H 0.6289 0.2892 0.5206
H20 H 0.5460 0.2481 0.5615
C25 C 0.6472(2) 0.2953(2) 0.6484(2)
H21 H 0.6934 0.3461 0.6493
C26 C 0.6965(2) 0.1312(3) 0.6185(2)
H22 H 0.6708 0.1415 0.5644
C27 C 0.7378(2) 0.0383(3) 0.6373(2)
C28 C 0.7241(3) -0.0354(3) 0.5765(2)
H23 H 0.6919 -0.0210 0.5257
C29 C 0.7571(3) -0.1274(3) 0.5906(3)
H24 H 0.7456 -0.1759 0.5509
C30 C 0.8080(3) -0.1471(3) 0.6653(3)
H25 H 0.8311 -0.2095 0.6750
C31 C 0.8251(2) -0.0772(3) 0.7252(3)
H26 H 0.8605 -0.0922 0.7742
C32 C 0.7893(2) 0.0173(2) 0.7132(2)
Fe1 Fe 0.42842(3) 0.00309(3) 0.73034(3)
Mn1 Mn 0.73469(3) 0.19191(3) 0.79109(3)
N1 N 0.61203(17) 0.0883(2) 0.80076(17)
N2 N 0.4515(3) 0.1004(3) 0.5640(2)
N3 N 0.2446(2) -0.0755(3) 0.6549(3)
N4 N 0.34283(19) 0.1947(2) 0.7766(2)
N5 N 0.42125(16) -0.06833(18) 0.83741(16)
N6 N 0.4648(2) -0.2174(2) 0.90491(19)
N7 N 0.48536(16) -0.12190(18) 0.70202(16)
N8 N 0.5283(2) -0.2772(2) 0.7577(2)
N9 N 0.65021(17) 0.30353(18) 0.79679(16)
N10 N 0.69229(17) 0.20121(19) 0.67054(16)
O1 O 0.76593(15) 0.19279(15) 0.90728(13)
O2 O 0.80644(14) 0.08295(16) 0.77333(13)
Mn1C Mn 0.23469(3) 0.30809(3) 0.79109(3)
N4C N 0.84283(19) 0.3053(2) 0.7766(2)
O3 O 0.95485(19) 0.1162(2) 0.93339(19)
O4 O 1.0276(2) -0.0663(2) 0.8955(2)
loop_
_geom_bond_atom_site_label_1
_geom_bond_atom_site_label_2
_geom_bond_site_symmetry_1
_geom_bond_site_symmetry_2
C1 Fe1 1_555 1_555
C2 Fe1 1_555 1_555
C3 Fe1 1_555 1_555
C4 Fe1 1_555 1_555
C5 H1 1_555 1_555
C6 C5 1_555 1_555
H2 C6 1_555 1_555
C7 C6 1_555 1_555
H3 C7 1_555 1_555
C8 C9 1_555 1_555
C9 N7 1_555 1_555
C10 H4 1_555 1_555
C11 C10 1_555 1_555
H5 C11 1_555 1_555
C12 C11 1_555 1_555
H6 C12 1_555 1_555
C13 C14 1_555 1_555
C14 H7 1_555 1_555
C15 C14 1_555 1_555
H8 C15 1_555 1_555
C16 C15 1_555 1_555
H9 C16 1_555 1_555
C17 C16 1_555 1_555
H10 C17 1_555 1_555
C18 C13 1_555 1_555
C19 C18 1_555 1_555
H11 C19 1_555 1_555
C20 H12 1_555 1_555
C21 C20 1_555 1_555
H13 C21 1_555 1_555
H14 C21 1_555 1_555
C22 C21 1_555 1_555
H15 C22 1_555 1_555
H16 C22 1_555 1_555
C23 C22 1_555 1_555
H17 C23 1_555 1_555
H18 C23 1_555 1_555
C24 C23 1_555 1_555
H19 C24 1_555 1_555
H20 C24 1_555 1_555
C25 C20 1_555 1_555
H21 C25 1_555 1_555
C26 H22 1_555 1_555
C27 C26 1_555 1_555
C28 C27 1_555 1_555
H23 C28 1_555 1_555
C29 C28 1_555 1_555
H24 C29 1_555 1_555
C30 C29 1_555 1_555
H25 C30 1_555 1_555
C31 C30 1_555 1_555
H26 C31 1_555 1_555
C32 C27 1_555 1_555
Fe1 N5 1_555 1_555
Mn1 N1 1_555 1_555
N1 C1 1_555 1_555
N2 C2 1_555 1_555
N3 C3 1_555 1_555
N4 C4 1_555 1_555
N5 C5 1_555 1_555
N6 C7 1_555 1_555
N7 C12 1_555 1_555
N8 C9 1_555 1_555
N9 C19 1_555 1_555
N10 C25 1_555 1_555
O1 C13 1_555 1_555
O2 C32 1_555 1_555
Mn1C N4 1_555 1_555
N4C Mn1 1_555 1_555
C8 N5 1_555 1_555
C8 N6 1_555 1_555
C10 N8 1_555 1_555
C17 C18 1_555 1_555
C20 N9 1_555 1_555
C24 C25 1_555 1_555
C26 N10 1_555 1_555
C31 C32 1_555 1_555
Fe1 N7 1_555 1_555
Mn1 N9 1_555 1_555
Mn1 N10 1_555 1_555
Mn1 O1 1_555 1_555
Mn1 O2 1_555 1_555

#END
