
#######################################################################
#
#                 Cambridge Crystallographic Data Centre
#                                CCDC 
#
#######################################################################
#
# If this CIF has been generated from an entry in the Cambridge 
# Structural Database, then it will include bibliographic, chemical, 
# crystal, experimental, refinement or atomic coordinate data resulting 
# from the CCDC's data processing and validation procedures.
#
#######################################################################

data_COVQAH
_symmetry_cell_setting           triclinic
_symmetry_space_group_name_H-M   'P -1'
_symmetry_Int_Tables_number      2
_space_group_name_Hall           '-P 1'
loop_
_symmetry_equiv_pos_site_id
_symmetry_equiv_pos_as_xyz
1 x,y,z
2 -x,-y,-z
_cell_length_a                   9.529(12)
_cell_length_b                   13.914(16)
_cell_length_c                   14.906(17)
_cell_angle_alpha                81.75(2)
_cell_angle_beta                 76.73(2)
_cell_angle_gamma                87.36(2)
_cell_volume                     1903.48
loop_
_atom_site_label
_atom_site_type_symbol
_atom_site_fract_x
_atom_site_fract_y
_atom_site_fract_z
C1 C 0.4628(6) 0.8914(4) 0.3771(4)
C2 C 0.5110(6) 0.8026(4) 0.4304(4)
C3 C 0.5355(6) 0.8053(4) 0.5178(4)
H1 H 0.5249 0.8635 0.5427
C4 C 0.5756(6) 0.7219(4) 0.5683(4)
H2 H 0.5887 0.7236 0.6280
C5 C 0.5964(5) 0.6362(4) 0.5309(3)
C6 C 0.5731(6) 0.6348(4) 0.4440(4)
H3 H 0.5881 0.5772 0.4181
C7 C 0.5282(6) 0.7161(4) 0.3941(4)
H4 H 0.5094 0.7129 0.3361
C8 C 0.6504(6) 0.5475(4) 0.5815(3)
C9 C 0.6053(6) 0.5252(4) 0.6782(3)
H5 H 0.5409 0.5662 0.7122
C10 C 0.6578(6) 0.4412(4) 0.7232(3)
C11 C 0.7528(6) 0.3810(4) 0.6723(4)
H6 H 0.7889 0.3258 0.7031
C12 C 0.7961(6) 0.4006(4) 0.5758(4)
C13 C 0.7435(6) 0.4839(4) 0.5327(4)
H7 H 0.7715 0.4981 0.4682
C14 C 0.8926(6) 0.3330(4) 0.5217(3)
C15 C 0.8829(6) 0.2339(4) 0.5481(4)
H8 H 0.8149 0.2096 0.6010
C16 C 0.9714(6) 0.1703(4) 0.4979(4)
H9 H 0.9631 0.1038 0.5171
C17 C 1.0727(6) 0.2049(4) 0.4189(3)
C18 C 1.0806(6) 0.3031(4) 0.3908(3)
H10 H 1.1466 0.3269 0.3367
C19 C 0.9945(6) 0.3657(4) 0.4402(4)
H11 H 1.0028 0.4320 0.4198
C20 C 1.1742(6) 0.1361(4) 0.3680(4)
C21 C 0.6055(6) 0.4142(4) 0.8299(4)
C22 C 0.4667(8) 0.4238(6) 0.8690(5)
H12 H 0.4030 0.4516 0.8335
C23 C 0.4173(9) 0.3923(6) 0.9624(5)
H13 H 0.3195 0.3964 0.9897
C24 C 0.5114(8) 0.3553(5) 1.0145(4)
C25 C 0.6556(8) 0.3565(5) 0.9739(5)
H14 H 0.7244 0.3370 1.0083
C26 C 0.6952(9) 0.3885(6) 0.8771(5)
H15 H 0.7925 0.3903 0.8478
C27 C 0.4619(9) 0.3189(5) 1.1142(5)
C28 C 0.6439(7) 1.1101(4) 0.2508(4)
H16 H 0.6264 1.1086 0.3150
C29 C 0.6192(8) 1.0964(5) 0.1174(4)
H17 H 0.5798 1.0828 0.0691
C30 C 0.8893(7) 1.1785(4) 0.2129(5)
H18 H 0.9741 1.1581 0.1697
H19 H 0.8960 1.1496 0.2751
C31 C 0.8898(7) 1.2870(4) 0.2077(4)
C32 C 0.7957(7) 1.3346(5) 0.2694(5)
H20 H 0.7261 1.2998 0.3150
C33 C 0.8014(7) 1.4328(5) 0.2658(5)
H21 H 0.7361 1.4634 0.3097
C34 C 0.9012(7) 1.4879(4) 0.1989(4)
C35 C 0.9990(8) 1.4387(5) 0.1376(5)
H22 H 1.0697 1.4729 0.0923
C36 C 0.9930(8) 1.3394(5) 0.1429(5)
H23 H 1.0607 1.3074 0.1015
C37 C 0.9038(7) 1.5934(4) 0.1937(4)
C38 C 0.8889(8) 1.6385(5) 0.2707(5)
H24 H 0.8804 1.6005 0.3283
C39 C 0.8862(8) 1.7369(5) 0.2664(6)
H25 H 0.8790 1.7648 0.3205
C40 C 0.8941(8) 1.7956(5) 0.1830(6)
C41 C 0.9098(13) 1.7526(6) 0.1060(6)
H26 H 0.9179 1.7905 0.0483
C42 C 0.9141(12) 1.6507(5) 0.1121(6)
H27 H 0.9244 1.6223 0.0581
C43 C 0.8888(9) 1.9031(5) 0.1769(7)
H28 H 0.8516 1.9302 0.1232
H29 H 0.8226 1.9213 0.2319
C44 C 1.2318(10) 1.9983(8) 0.1103(5)
H30 H 1.3142 2.0192 0.0661
C45 C 1.0907(8) 1.9619(4) 0.2351(5)
H31 H 1.0490 1.9513 0.2985
Co1 Co 0.35610(8) 1.02442(5) 0.28145(5)
N1 N 0.5539(6) 1.0808(3) 0.2076(3)
N2 N 0.7637(5) 1.1423(3) 0.1921(3)
N3 N 0.7476(7) 1.1339(4) 0.1067(4)
N4 N 1.0279(7) 1.9443(4) 0.1693(4)
N5 N 1.1181(10) 1.9684(8) 0.0887(5)
N6 N 1.2201(6) 1.9965(4) 0.1991(3)
O1 O 0.4080(5) 0.8827(3) 0.3097(3)
O2 O 0.4725(5) 0.9719(3) 0.4003(3)
O3 O 0.3298(6) 0.2902(5) 1.1399(4)
O4 O 0.5390(6) 0.3125(4) 1.1696(3)
O5 O 1.1706(5) 0.0475(3) 0.3952(3)
O6 O 1.2682(4) 0.1669(3) 0.2954(3)
Co1_2 Co 1.35610(8) 0.02442(5) 0.28145(5)
Co1_3 Co 1.35610(8) 2.02442(5) 0.28145(5)
N6_2 N 0.2201(6) 0.9965(4) 0.1991(3)
O5_2 O 0.1706(5) 1.0475(3) 0.3952(3)
O6_2 O 0.2682(4) 1.1669(3) 0.2954(3)
H32 H 0.800(5) 0.956(2) 0.378(2)
H33 H 0.835(4) 1.007(6) 0.442(4)
O7 O 0.7770(6) 0.9990(4) 0.4110(4)
loop_
_geom_bond_atom_site_label_1
_geom_bond_atom_site_label_2
_geom_bond_site_symmetry_1
_geom_bond_site_symmetry_2
C1 C2 1_555 1_555
C2 C3 1_555 1_555
C3 H1 1_555 1_555
C4 C3 1_555 1_555
H2 C4 1_555 1_555
C5 C4 1_555 1_555
C6 C5 1_555 1_555
H3 C6 1_555 1_555
C7 C2 1_555 1_555
H4 C7 1_555 1_555
C8 C5 1_555 1_555
C9 C8 1_555 1_555
H5 C9 1_555 1_555
C10 C9 1_555 1_555
C11 C10 1_555 1_555
H6 C11 1_555 1_555
C12 C11 1_555 1_555
C13 C8 1_555 1_555
H7 C13 1_555 1_555
C14 C12 1_555 1_555
C15 C14 1_555 1_555
H8 C15 1_555 1_555
C16 C15 1_555 1_555
H9 C16 1_555 1_555
C17 C16 1_555 1_555
C18 C17 1_555 1_555
H10 C18 1_555 1_555
C19 C14 1_555 1_555
H11 C19 1_555 1_555
C20 C17 1_555 1_555
C21 C10 1_555 1_555
C22 C21 1_555 1_555
H12 C22 1_555 1_555
C23 C22 1_555 1_555
H13 C23 1_555 1_555
C24 C23 1_555 1_555
C25 C24 1_555 1_555
H14 C25 1_555 1_555
C26 C21 1_555 1_555
H15 C26 1_555 1_555
C27 C24 1_555 1_555
C28 H16 1_555 1_555
C29 H17 1_555 1_555
C30 H18 1_555 1_555
H19 C30 1_555 1_555
C31 C30 1_555 1_555
C32 C31 1_555 1_555
H20 C32 1_555 1_555
C33 C32 1_555 1_555
H21 C33 1_555 1_555
C34 C33 1_555 1_555
C35 C34 1_555 1_555
H22 C35 1_555 1_555
C36 C31 1_555 1_555
H23 C36 1_555 1_555
C37 C34 1_555 1_555
C38 C37 1_555 1_555
H24 C38 1_555 1_555
C39 C38 1_555 1_555
H25 C39 1_555 1_555
C40 C39 1_555 1_555
C41 C40 1_555 1_555
H26 C41 1_555 1_555
C42 C37 1_555 1_555
H27 C42 1_555 1_555
C43 C40 1_555 1_555
H28 C43 1_555 1_555
H29 C43 1_555 1_555
C44 H30 1_555 1_555
C45 H31 1_555 1_555
Co1 N1 1_555 1_555
N1 C28 1_555 1_555
N2 C28 1_555 1_555
N3 C29 1_555 1_555
N4 C43 1_555 1_555
N5 C44 1_555 1_555
N6 C44 1_555 1_555
O1 C1 1_555 1_555
O2 C1 1_555 1_555
O3 C27 1_555 1_555
O4 C27 1_555 1_555
O5 C20 1_555 1_555
O6 C20 1_555 1_555
H32 O7 1_555 1_555
H33 O7 1_555 1_555
Co1_2 O5 1_555 1_555
Co1_3 N6 1_555 1_555
N6_2 Co1 1_555 1_555
O5_2 Co1 1_555 1_555
O6_2 Co1 1_555 1_555
C6 C7 1_555 1_555
C12 C13 1_555 1_555
C18 C19 1_555 1_555
C25 C26 1_555 1_555
C29 N1 1_555 1_555
C30 N2 1_555 1_555
C35 C36 1_555 1_555
C41 C42 1_555 1_555
C45 N4 1_555 1_555
C45 N6 1_555 1_555
Co1 O1 1_555 1_555
Co1 O2 1_555 1_555
N2 N3 1_555 1_555
N4 N5 1_555 1_555
O6 Co1_2 1_555 1_555

#END
