
#######################################################################
#
#                 Cambridge Crystallographic Data Centre
#                                CCDC 
#
#######################################################################
#
# If this CIF has been generated from an entry in the Cambridge 
# Structural Database, then it will include bibliographic, chemical, 
# crystal, experimental, refinement or atomic coordinate data resulting 
# from the CCDC's data processing and validation procedures.
#
#######################################################################

data_COVYAP
_symmetry_cell_setting           triclinic
_symmetry_space_group_name_H-M   'P -1'
_symmetry_Int_Tables_number      2
_space_group_name_Hall           '-P 1'
loop_
_symmetry_equiv_pos_site_id
_symmetry_equiv_pos_as_xyz
1 x,y,z
2 -x,-y,-z
_cell_length_a                   7.843(2)
_cell_length_b                   9.986(2)
_cell_length_c                   12.320(3)
_cell_angle_alpha                67.609(4)
_cell_angle_beta                 78.650(3)
_cell_angle_gamma                68.577(4)
_cell_volume                     828.651
loop_
_atom_site_label
_atom_site_type_symbol
_atom_site_fract_x
_atom_site_fract_y
_atom_site_fract_z
Cu1 Cu 0.96305(8) 0.68241(8) 0.90984(6)
Cu2 Cu 1.55528(9) 0.96142(8) 1.27515(6)
Cu3 Cu 1.20240(9) 0.86757(8) 0.96765(6)
Cu4 Cu 1.5000 1.0000 1.0000
Cu5 Cu 1.0000 0.5000 0.5000
O1 O 0.8697(5) 0.6132(5) 0.8137(3)
O2 O 0.6895(5) 0.8366(5) 0.6998(4)
O3 O 0.8222(5) 0.7044(5) 0.4847(4)
O4 O 0.5300(5) 0.8418(5) 0.4425(3)
O5 O 0.1403(5) 0.5335(5) 0.5915(4)
O6 O 0.1849(5) 0.3244(5) 0.7555(3)
O7 O 0.1655(5) 0.4304(5) 0.9522(3)
O8 O 0.4377(5) 0.2588(5) 1.0081(4)
O9 O 1.6709(5) 0.9739(4) 1.1095(3)
H1 H 1.7679 0.8728 1.1174
O10 O 1.0503(5) 0.7419(5) 1.0141(4)
H2 H 1.0879 0.6655 1.0736
N1 N 1.0834(6) 0.8146(5) 0.7801(4)
N2 N 1.1890(6) 0.8747(6) 0.8064(4)
N3 N 1.2643(6) 0.9541(5) 0.7100(4)
N4 N 1.3640(6) 0.8964(5) 1.2443(4)
N5 N 1.3424(6) 0.9235(6) 1.1328(4)
N6 N 1.2110(6) 0.8717(6) 1.1263(4)
C1 C 1.2060(7) 0.9467(7) 0.6176(5)
H3 H 1.2372 0.9936 0.5369
C2 C 1.0929(7) 0.8587(7) 0.6622(5)
H4 H 1.0316 0.8331 0.6175
H5 H 1.0524 0.7644 1.2596
H6 H 1.2216 0.7963 1.3951
C3 C 1.1460(7) 0.8107(7) 1.2372(5)
C4 C 1.2399(7) 0.8273(7) 1.3119(5)
C5 C 0.6270(7) 0.6090(6) 0.7309(5)
C6 C 0.5773(7) 0.6375(7) 0.6192(5)
C7 C 0.4470(7) 0.5775(6) 0.6120(5)
H7 H 0.4128 0.5963 0.5365
C8 C 0.3648(7) 0.4915(7) 0.7100(5)
C9 C 0.4222(7) 0.4576(6) 0.8219(5)
C10 C 0.5549(7) 0.5156(7) 0.8284(5)
H8 H 0.5976 0.4897 0.9031
C11 C 0.7380(7) 0.6953(7) 0.7471(5)
C12 C 0.6504(7) 0.7359(7) 0.5076(5)
C13 C 0.2187(7) 0.4415(7) 0.6885(5)
C14 C 0.3394(7) 0.3720(7) 0.9359(5)
Cu1A Cu 0.03695(8) 0.31759(8) 0.09016(6)
Cu2A Cu -0.55528(9) 0.03858(8) -0.27515(6)
Cu3A Cu -0.20240(9) 0.13243(8) 0.03235(6)
O1A O 0.1303(5) 0.3868(5) 0.1863(3)
O2A O 0.3105(5) 0.1634(5) 0.3002(4)
O3A O 0.1778(5) 0.2956(5) 0.5153(4)
O4A O 0.4700(5) 0.1582(5) 0.5575(3)
O5A O 0.8597(5) 0.4665(5) 0.4085(4)
O6A O 0.8151(5) 0.6756(5) 0.2445(3)
O7A O 0.8345(5) 0.5696(5) 0.0478(3)
O8A O 0.5623(5) 0.7412(5) -0.0081(4)
O9A O -0.6709(5) 0.0261(4) -0.1095(3)
H1A H -0.7679 0.1272 -0.1174
O10A O -0.0503(5) 0.2581(5) -0.0141(4)
H2A H -0.0879 0.3345 -0.0736
N1A N -0.0834(6) 0.1854(5) 0.2199(4)
N2A N -0.1890(6) 0.1253(6) 0.1936(4)
N3A N -0.2643(6) 0.0459(5) 0.2900(4)
N4A N -0.3640(6) 0.1036(5) -0.2443(4)
N5A N -0.3424(6) 0.0765(6) -0.1328(4)
N6A N -0.2110(6) 0.1283(6) -0.1263(4)
C1A C -0.2060(7) 0.0533(7) 0.3824(5)
H3A H -0.2372 0.0064 0.4631
C2A C -0.0929(7) 0.1413(7) 0.3378(5)
H4A H -0.0316 0.1669 0.3825
H5A H -0.0524 0.2356 -0.2596
H6A H -0.2216 0.2037 -0.3951
C3A C -0.1460(7) 0.1893(7) -0.2372(5)
C4A C -0.2399(7) 0.1727(7) -0.3119(5)
C5A C 0.3730(7) 0.3910(6) 0.2691(5)
C6A C 0.4227(7) 0.3625(7) 0.3808(5)
C7A C 0.5530(7) 0.4225(6) 0.3880(5)
H7A H 0.5872 0.4037 0.4635
C8A C 0.6352(7) 0.5085(7) 0.2900(5)
C9A C 0.5778(7) 0.5424(6) 0.1781(5)
C10A C 0.4451(7) 0.4844(7) 0.1716(5)
H8A H 0.4024 0.5103 0.0969
C11A C 0.2620(7) 0.3047(7) 0.2529(5)
C12A C 0.3496(7) 0.2641(7) 0.4924(5)
C13A C 0.7813(7) 0.5585(7) 0.3115(5)
C14A C 0.6606(7) 0.6280(7) 0.0641(5)
Cu1_2 Cu -0.03695(8) 0.68241(8) 0.90984(6)
Cu1_3 Cu 0.96305(8) 0.68241(8) -0.09016(6)
Cu1A_2 Cu 0.03695(8) 0.31759(8) 1.09016(6)
Cu1A_3 Cu 1.03695(8) 0.31759(8) 0.09016(6)
Cu2_2 Cu -0.44472(9) -0.03858(8) 0.27515(6)
Cu2_3 Cu 0.55528(9) -0.03858(8) 0.27515(6)
Cu2_4 Cu 0.55528(9) 0.96142(8) 0.27515(6)
Cu2A_2 Cu 0.44472(9) 0.03858(8) 0.72485(6)
Cu2A_3 Cu 0.44472(9) 1.03858(8) 0.72485(6)
Cu2A_4 Cu 1.44472(9) 1.03858(8) 0.72485(6)
Cu3_2 Cu -0.79760(9) -0.13243(8) -0.03235(6)
Cu3_3 Cu 0.20240(9) 0.86757(8) -0.03235(6)
Cu3A_2 Cu 0.79760(9) 0.13243(8) 1.03235(6)
Cu3A_3 Cu 1.79760(9) 1.13243(8) 1.03235(6)
Cu4_2 Cu -0.5000 0.0000 0.0000
Cu4_3 Cu 0.5000 0.0000 1.0000
Cu4_4 Cu 0.5000 1.0000 0.0000
Cu5_2 Cu 0.0000 0.5000 0.5000
O2_2 O -0.3105(5) -0.1634(5) -0.3002(4)
O2A_2 O 1.3105(5) 1.1634(5) 1.3002(4)
O3A_2 O 1.1778(5) 0.2956(5) 0.5153(4)
O4_2 O 1.5300(5) 0.8418(5) 1.4425(3)
O4A_2 O -0.5300(5) 0.1582(5) -0.4425(3)
O5_2 O 1.1403(5) 0.5335(5) 0.5915(4)
O7_2 O 0.1655(5) 0.4304(5) -0.0478(3)
O7_3 O 1.1655(5) 0.4304(5) 0.9522(3)
O7A_2 O -0.1655(5) 0.5696(5) 0.0478(3)
O7A_3 O 0.8345(5) 0.5696(5) 1.0478(3)
O8_2 O -0.5623(5) 0.2588(5) 0.0081(4)
O8_3 O 1.4377(5) 1.2588(5) 1.0081(4)
O8A_2 O 1.5623(5) 0.7412(5) 0.9919(4)
O9_2 O -0.3291(5) -0.0261(4) 0.1095(3)
O9A_2 O 1.3291(5) 1.0261(4) 0.8905(3)
N3_2 N -0.7357(6) -0.0459(5) -0.2900(4)
N3A_2 N 1.7357(6) 1.0459(5) 1.2900(4)
N5A_2 N 1.6576(6) 1.0765(6) 0.8672(4)
loop_
_geom_bond_atom_site_label_1
_geom_bond_atom_site_label_2
_geom_bond_site_symmetry_1
_geom_bond_site_symmetry_2
Cu1 O1 1_555 1_555
Cu2 O9 1_555 1_555
Cu3 O10 1_555 1_555
Cu4 O9 1_555 1_555
Cu5 O3 1_555 1_555
O1 C11 1_555 1_555
O2 C11 1_555 1_555
O3 C12 1_555 1_555
O4 C12 1_555 1_555
O5 C13 1_555 1_555
O6 C13 1_555 1_555
O7 C14 1_555 1_555
O8 C14 1_555 1_555
O9 H1 1_555 1_555
O10 Cu1 1_555 1_555
H2 O10 1_555 1_555
N1 Cu1 1_555 1_555
N2 Cu3 1_555 1_555
N3 N2 1_555 1_555
N4 Cu2 1_555 1_555
N5 Cu4 1_555 1_555
N6 Cu3 1_555 1_555
C1 N3 1_555 1_555
H3 C1 1_555 1_555
C2 N1 1_555 1_555
H4 C2 1_555 1_555
H5 C3 1_555 1_555
H6 C4 1_555 1_555
C3 N6 1_555 1_555
C4 N4 1_555 1_555
C5 C6 1_555 1_555
C6 C7 1_555 1_555
C7 H7 1_555 1_555
C8 C7 1_555 1_555
C9 C8 1_555 1_555
C10 C5 1_555 1_555
H8 C10 1_555 1_555
C11 C5 1_555 1_555
C12 C6 1_555 1_555
C13 C8 1_555 1_555
C14 C9 1_555 1_555
Cu1A O1A 1_555 1_555
Cu2A O9A 1_555 1_555
Cu3A O10A 1_555 1_555
O1A C11A 1_555 1_555
O2A C11A 1_555 1_555
O3A C12A 1_555 1_555
O4A C12A 1_555 1_555
O5A Cu5 1_555 1_555
O6A C13A 1_555 1_555
O7A C14A 1_555 1_555
O8A C14A 1_555 1_555
O9A H1A 1_555 1_555
O10A Cu1A 1_555 1_555
H2A O10A 1_555 1_555
N1A Cu1A 1_555 1_555
N2A Cu3A 1_555 1_555
N3A N2A 1_555 1_555
N4A Cu2A 1_555 1_555
N5A N4A 1_555 1_555
N6A Cu3A 1_555 1_555
C1A N3A 1_555 1_555
H3A C1A 1_555 1_555
C2A N1A 1_555 1_555
H4A C2A 1_555 1_555
H5A C3A 1_555 1_555
H6A C4A 1_555 1_555
C3A N6A 1_555 1_555
C4A N4A 1_555 1_555
C5A C6A 1_555 1_555
C6A C7A 1_555 1_555
C7A H7A 1_555 1_555
C8A C7A 1_555 1_555
C9A C8A 1_555 1_555
C10A C5A 1_555 1_555
H8A C10A 1_555 1_555
C11A C5A 1_555 1_555
C12A C6A 1_555 1_555
C13A O5A 1_555 1_555
C14A C9A 1_555 1_555
Cu1_2 O7 1_555 1_555
Cu1_3 O7A 1_555 1_555
Cu1A_2 O7 1_555 1_555
Cu1A_3 O7A 1_555 1_555
Cu2_2 N3A 1_555 1_555
Cu2_3 O2A 1_555 1_555
Cu2_4 O4 1_555 1_555
Cu2A_2 O4A 1_555 1_555
Cu2A_3 O2 1_555 1_555
Cu2A_4 N3 1_555 1_555
Cu3_2 O9A 1_555 1_555
Cu3_3 O8A 1_555 1_555
Cu3A_2 O8 1_555 1_555
Cu3A_3 O9 1_555 1_555
Cu4_2 O9A 1_555 1_555
Cu4_3 O8 1_555 1_555
Cu4_4 O8A 1_555 1_555
Cu5_2 O5 1_555 1_555
O2_2 Cu2A 1_555 1_555
O2A_2 Cu2 1_555 1_555
O3A_2 Cu5 1_555 1_555
O4_2 Cu2 1_555 1_555
O4A_2 Cu2A 1_555 1_555
O5_2 Cu5 1_555 1_555
O7_2 Cu1A 1_555 1_555
O7_3 Cu1 1_555 1_555
O7A_2 Cu1A 1_555 1_555
O7A_3 Cu1 1_555 1_555
O8_2 Cu3A 1_555 1_555
O8_3 Cu4 1_555 1_555
O8A_2 Cu3 1_555 1_555
O9_2 Cu3A 1_555 1_555
O9A_2 Cu3 1_555 1_555
N3_2 Cu2A 1_555 1_555
N3A_2 Cu2 1_555 1_555
N5A_2 Cu4 1_555 1_555
Cu4 O8A_2 1_555 1_555
Cu4 O9A_2 1_555 1_555
N1 N2 1_555 1_555
N4 N5 1_555 1_555
N5 N6 1_555 1_555
C1 C2 1_555 1_555
C3 C4 1_555 1_555
C9 C10 1_555 1_555
O3A Cu5_2 1_555 1_555
N1A N2A 1_555 1_555
N5A N6A 1_555 1_555
N5A Cu4_2 1_555 1_555
C1A C2A 1_555 1_555
C3A C4A 1_555 1_555
C8A C13A 1_555 1_555
C9A C10A 1_555 1_555
Cu2_2 O9_2 1_555 1_555
Cu2A_4 O9A_2 1_555 1_555
Cu3A_3 O8_3 1_555 1_555
Cu4_2 O8_2 1_555 1_555
Cu4_2 O9_2 1_555 1_555

#END
