
#######################################################################
#
#                 Cambridge Crystallographic Data Centre
#                                CCDC 
#
#######################################################################
#
# If this CIF has been generated from an entry in the Cambridge 
# Structural Database, then it will include bibliographic, chemical, 
# crystal, experimental, refinement or atomic coordinate data resulting 
# from the CCDC's data processing and validation procedures.
#
#######################################################################

data_COWCEY
_symmetry_cell_setting           monoclinic
_symmetry_space_group_name_H-M   'P 21/n'
_symmetry_Int_Tables_number      14
_space_group_name_Hall           '-P 2yn'
loop_
_symmetry_equiv_pos_site_id
_symmetry_equiv_pos_as_xyz
1 x,y,z
2 1/2-x,1/2+y,1/2-z
3 -x,-y,-z
4 1/2+x,1/2-y,1/2+z
_cell_length_a                   9.8956(5)
_cell_length_b                   18.4013(8)
_cell_length_c                   18.8612(10)
_cell_angle_alpha                90
_cell_angle_beta                 97.077(5)
_cell_angle_gamma                90
_cell_volume                     3408.31
loop_
_atom_site_label
_atom_site_type_symbol
_atom_site_fract_x
_atom_site_fract_y
_atom_site_fract_z
Mn1 Mn 0.29216(5) 0.09424(3) 0.59987(3)
C1 C 0.2210(4) 0.66226(19) 0.4651(2)
C2 C 0.1398(4) 0.7221(2) 0.4465(2)
H1 H 0.0717 0.7190 0.4079
C3 C 0.1579(4) 0.7860(2) 0.4839(2)
H2 H 0.1028 0.8260 0.4707
C4 C 0.2586(4) 0.79057(18) 0.5412(2)
C5 C 0.3408(4) 0.7326(2) 0.5592(2)
H3 H 0.4107 0.7362 0.5968
C6 C 0.3204(5) 0.6681(2) 0.5216(2)
H4 H 0.3753 0.6282 0.5351
C7 C 0.2845(5) 0.8630(2) 0.6549(2)
H5 H 0.2827 0.8253 0.6876
C8 C 0.2941(4) 0.9338(2) 0.6699(2)
H6 H 0.2988 0.9538 0.7154
C9 C 0.2856(4) 0.92415(19) 0.5567(2)
H7 H 0.2840 0.9354 0.5085
C10 C 0.2165(4) 0.5991(2) 0.3506(2)
C11 C 0.3162(5) 0.6404(2) 0.3267(2)
H8 H 0.3712 0.6694 0.3586
C12 C 0.3359(4) 0.6396(2) 0.2560(2)
H9 H 0.4040 0.6681 0.2403
C13 C 0.2558(4) 0.5970(2) 0.2084(2)
C14 C 0.1514(4) 0.5566(2) 0.2310(2)
H10 H 0.0951 0.5285 0.1987
C15 C 0.1319(4) 0.5586(2) 0.3024(2)
H11 H 0.0608 0.5324 0.3179
C16 C 0.4119(4) 0.5766(2) 0.1168(2)
H12 H 0.4915 0.5683 0.1475
C17 C 0.3983(4) 0.5761(2) 0.0450(2)
H13 H 0.4685 0.5677 0.0175
C18 C 0.2009(4) 0.5981(2) 0.0750(2)
H14 H 0.1081 0.6071 0.0731
C19 C 0.2821(5) 0.4708(2) 0.4363(2)
H15 H 0.3168 0.4744 0.3928
C20 C 0.2162(4) 0.5299(2) 0.4616(2)
C21 C 0.1632(5) 0.5212(2) 0.5256(2)
H16 H 0.1166 0.5595 0.5436
C22 C 0.1782(5) 0.4563(2) 0.5632(3)
H17 H 0.1405 0.4513 0.6057
C23 C 0.2485(4) 0.3995(2) 0.5380(2)
C24 C 0.2972(4) 0.4071(2) 0.4740(2)
H18 H 0.3416 0.3682 0.4555
C25 C 0.2911(5) 0.3278(2) 0.6506(3)
H19 H 0.2974 0.3654 0.6837
C26 C 0.3042(5) 0.2566(2) 0.6650(3)
H20 H 0.3215 0.2368 0.7106
C27 C 0.2668(4) 0.2655(2) 0.5526(2)
H21 H 0.2529 0.2541 0.5043
C28 C 0.6969(3) 0.12820(19) 0.6864(2)
C29 C 0.6979(4) 0.16676(19) 0.7490(2)
H22 H 0.6161 0.1801 0.7649
C30 C 0.8204(4) 0.1858(2) 0.7886(2)
C31 C 0.9416(4) 0.1649(2) 0.7649(2)
H23 H 1.0239 0.1765 0.7919
C32 C 0.9414(3) 0.1274(2) 0.7019(2)
C33 C 0.8186(3) 0.10954(18) 0.66188(19)
H24 H 0.8181 0.0851 0.6187
C34 C 0.5619(4) 0.10765(19) 0.6455(2)
C35 C 1.0725(4) 0.1068(2) 0.6746(3)
O1 O 0.5511(2) 0.09598(17) 0.58074(15)
O2 O 0.4622(2) 0.10357(13) 0.68110(13)
O3 O 0.8247(3) 0.22565(17) 0.85019(16)
O4 O 1.0730(3) 0.09695(17) 0.60954(18)
O5 O 1.1766(3) 0.10296(18) 0.71746(19)
N1 N 0.2003(4) 0.59659(17) 0.42494(17)
N2 N 0.2776(3) 0.85641(16) 0.58200(17)
N3 N 0.2959(3) 0.97252(15) 0.60799(18)
N4 N 0.2856(3) 0.59168(17) 0.13605(16)
N5 N 0.2642(3) 0.59001(17) 0.01831(16)
N6 N 0.2669(3) 0.33426(17) 0.57820(19)
N7 N 0.2883(3) 0.21724(16) 0.60318(19)
H25 H 0.750(3) 0.241(2) 0.864(2)
Mn1_2 Mn 0.29216(5) 1.09424(3) 0.59987(3)
Mn1_3 Mn 1.29216(5) 0.09424(3) 0.59987(3)
Mn1A Mn 0.20784(5) 0.59424(3) -0.09987(3)
O4_2 O 0.0730(3) 0.09695(17) 0.60954(18)
N3_2 N 0.2959(3) -0.02748(15) 0.60799(18)
N5A N 0.2358(3) 0.09001(17) 0.48169(16)
O6 O 0.5589(4) 0.2312(2) 0.8866(3)
H26 H 0.528(4) 0.2653(17) 0.904(2)
H27 H 0.518(5) 0.1931(17) 0.877(3)
O7 O 0.4109(4) 0.1112(3) 0.8223(2)
H28 H 0.369(5) 0.1495(19) 0.815(3)
H29 H 0.440(4) 0.098(2) 0.7809(17)
loop_
_geom_bond_atom_site_label_1
_geom_bond_atom_site_label_2
_geom_bond_site_symmetry_1
_geom_bond_site_symmetry_2
Mn1 O2 1_555 1_555
C1 C2 1_555 1_555
C2 H1 1_555 1_555
C3 C2 1_555 1_555
H2 C3 1_555 1_555
C4 C3 1_555 1_555
C5 C4 1_555 1_555
H3 C5 1_555 1_555
C6 C1 1_555 1_555
H4 C6 1_555 1_555
C7 H5 1_555 1_555
C8 C7 1_555 1_555
H6 C8 1_555 1_555
C9 H7 1_555 1_555
C10 C11 1_555 1_555
C11 H8 1_555 1_555
C12 C11 1_555 1_555
H9 C12 1_555 1_555
C13 C12 1_555 1_555
C14 C13 1_555 1_555
H10 C14 1_555 1_555
C15 C10 1_555 1_555
H11 C15 1_555 1_555
C16 H12 1_555 1_555
C17 C16 1_555 1_555
H13 C17 1_555 1_555
C18 H14 1_555 1_555
C19 H15 1_555 1_555
C20 C19 1_555 1_555
C21 C20 1_555 1_555
H16 C21 1_555 1_555
C22 C21 1_555 1_555
H17 C22 1_555 1_555
C23 C22 1_555 1_555
C24 C19 1_555 1_555
H18 C24 1_555 1_555
C25 H19 1_555 1_555
C26 C25 1_555 1_555
H20 C26 1_555 1_555
C27 H21 1_555 1_555
C28 C29 1_555 1_555
C29 H22 1_555 1_555
C30 C29 1_555 1_555
C31 C30 1_555 1_555
H23 C31 1_555 1_555
C32 C31 1_555 1_555
C33 C28 1_555 1_555
H24 C33 1_555 1_555
C34 C28 1_555 1_555
C35 C32 1_555 1_555
O1 C34 1_555 1_555
O2 C34 1_555 1_555
O3 C30 1_555 1_555
O4 C35 1_555 1_555
O5 C35 1_555 1_555
N1 C1 1_555 1_555
N2 C4 1_555 1_555
N3 C8 1_555 1_555
N4 C13 1_555 1_555
N5 C17 1_555 1_555
N6 C23 1_555 1_555
N7 Mn1 1_555 1_555
H25 O3 1_555 1_555
O6 H26 1_555 1_555
H27 O6 1_555 1_555
O7 H28 1_555 1_555
H29 O7 1_555 1_555
Mn1_2 N3 1_555 1_555
Mn1_3 O4 1_555 1_555
Mn1A N5 1_555 1_555
O4_2 Mn1 1_555 1_555
N3_2 Mn1 1_555 1_555
N5A Mn1 1_555 1_555
C5 C6 1_555 1_555
C7 N2 1_555 1_555
C9 N2 1_555 1_555
C9 N3 1_555 1_555
C10 N1 1_555 1_555
C14 C15 1_555 1_555
C16 N4 1_555 1_555
C18 N4 1_555 1_555
C18 N5 1_555 1_555
C20 N1 1_555 1_555
C23 C24 1_555 1_555
C25 N6 1_555 1_555
C26 N7 1_555 1_555
C27 N6 1_555 1_555
C27 N7 1_555 1_555
C32 C33 1_555 1_555

#END
