
#######################################################################
#
#                 Cambridge Crystallographic Data Centre
#                                CCDC 
#
#######################################################################
#
# If this CIF has been generated from an entry in the Cambridge 
# Structural Database, then it will include bibliographic, chemical, 
# crystal, experimental, refinement or atomic coordinate data resulting 
# from the CCDC's data processing and validation procedures.
#
#######################################################################

data_COWFUP
_symmetry_cell_setting           orthorhombic
_symmetry_space_group_name_H-M   'P b c m'
_symmetry_Int_Tables_number      57
_space_group_name_Hall           '-P 2c 2b'
loop_
_symmetry_equiv_pos_site_id
_symmetry_equiv_pos_as_xyz
1 x,y,z
2 -x,-y,1/2+z
3 x,1/2-y,-z
4 -x,1/2+y,1/2-z
5 -x,-y,-z
6 x,y,1/2-z
7 -x,1/2+y,z
8 x,1/2-y,1/2+z
_cell_length_a                   11.670(3)
_cell_length_b                   11.175(3)
_cell_length_c                   14.073(3)
_cell_angle_alpha                90
_cell_angle_beta                 90
_cell_angle_gamma                90
_cell_volume                     1835.29
loop_
_atom_site_label
_atom_site_type_symbol
_atom_site_fract_x
_atom_site_fract_y
_atom_site_fract_z
Cu1 Cu 0.4766(1) 0.1134(1) 0.2500
O1 O 0.3582(3) 0.1355(4) 0.1559(3)
O2 O 0.4177(3) 0.3133(3) 0.1013(3)
O3 O 0.4488(5) -0.1004(5) 0.2500
N1 N 0.6058(4) 0.0960(4) 0.1561(3)
C1 C 0.3474(4) 0.2307(5) 0.1052(4)
C2 C 0.2382(4) 0.2373(4) 0.0484(3)
C3 C 0.1346(5) 0.2270(5) 0.0959(4)
C4 C 0.0308(5) 0.2399(6) 0.0487(4)
C5 C 0.6025(5) 0.0982(5) 0.0607(4)
C6 C 0.6997(6) 0.0733(6) 0.0054(5)
C7 C 0.8006(5) 0.0422(5) 0.0488(5)
C8 C 0.8063(5) 0.0393(5) 0.1495(5)
C9 C 0.7076(5) 0.0680(5) 0.1996(4)
C10 C 0.9070(5) 0.0100(6) 0.2012(5)
H1 H 0.133 0.192 0.162
H2 H -0.050 0.245 0.084
H3 H 0.519 0.112 0.040
H4 H 0.693 0.083 -0.074
H5 H 0.876 0.034 0.011
H6 H 0.992 -0.024 0.174
C2B C 0.2382(4) 0.2627(4) -0.0484(3)
C1B C 0.3474(4) 0.2693(5) -0.1052(4)
O1B O 0.3582(3) 0.3645(4) -0.1559(3)
O2B O 0.4177(3) 0.1867(3) -0.1013(3)
C3B C 0.1346(5) 0.2730(5) -0.0959(4)
C4B C 0.0308(5) 0.2601(6) -0.0487(4)
H2B H -0.050 0.255 -0.084
H1B H 0.133 0.308 -0.162
C9E C 0.7076(5) 0.0680(5) 0.3004(4)
N1E N 0.6058(4) 0.0960(4) 0.3439(3)
C5E C 0.6025(5) 0.0982(5) 0.4393(4)
C6E C 0.6997(6) 0.0733(6) 0.4946(5)
C7E C 0.8006(5) 0.0422(5) 0.4512(5)
C8E C 0.8063(5) 0.0393(5) 0.3505(5)
C10E C 0.9070(5) 0.0100(6) 0.2988(5)
H6E H 0.992 -0.024 0.326
H5E H 0.876 0.034 0.489
H4E H 0.693 0.083 0.574
H3E H 0.519 0.112 0.460
O1E O 0.3582(3) 0.1355(4) 0.3441(3)
Cu1B Cu 0.4766(1) 0.3866(1) -0.2500
O4 O 0.1961(9) -0.0661(12) 0.2500
loop_
_geom_bond_atom_site_label_1
_geom_bond_atom_site_label_2
_geom_bond_site_symmetry_1
_geom_bond_site_symmetry_2
Cu1 O1 1_555 1_555
O1 C1 1_555 1_555
O2 C1 1_555 1_555
O3 Cu1 1_555 1_555
N1 Cu1 1_555 1_555
C1 C2 1_555 1_555
C2 C3 1_555 1_555
C3 C4 1_555 1_555
C4 H2 1_555 1_555
C5 N1 1_555 1_555
C6 C5 1_555 1_555
C7 C6 1_555 1_555
C8 C7 1_555 1_555
C9 N1 1_555 1_555
C10 C8 1_555 1_555
H1 C3 1_555 1_555
H3 C5 1_555 1_555
H4 C6 1_555 1_555
H5 C7 1_555 1_555
H6 C10 1_555 1_555
C2B C2 1_555 1_555
C1B C2B 1_555 1_555
O1B C1B 1_555 1_555
O2B C1B 1_555 1_555
C3B C2B 1_555 1_555
C4B C4 1_555 1_555
H2B C4B 1_555 1_555
H1B C3B 1_555 1_555
C9E C9 1_555 1_555
N1E Cu1 1_555 1_555
C5E N1E 1_555 1_555
C6E C5E 1_555 1_555
C7E C6E 1_555 1_555
C8E C9E 1_555 1_555
C10E C10 1_555 1_555
H6E C10E 1_555 1_555
H5E C7E 1_555 1_555
H4E C6E 1_555 1_555
H3E C5E 1_555 1_555
O1E Cu1 1_555 1_555
Cu1B O1B 1_555 1_555
C8 C9 1_555 1_555
C3B C4B 1_555 1_555
C9E N1E 1_555 1_555
C7E C8E 1_555 1_555
C8E C10E 1_555 1_555

#END
