
#######################################################################
#
#                 Cambridge Crystallographic Data Centre
#                                CCDC 
#
#######################################################################
#
# If this CIF has been generated from an entry in the Cambridge 
# Structural Database, then it will include bibliographic, chemical, 
# crystal, experimental, refinement or atomic coordinate data resulting 
# from the CCDC's data processing and validation procedures.
#
#######################################################################

data_COWKUV
_symmetry_cell_setting           monoclinic
_symmetry_space_group_name_H-M   'C 2/c'
_symmetry_Int_Tables_number      15
_space_group_name_Hall           '-C 2yn'
loop_
_symmetry_equiv_pos_site_id
_symmetry_equiv_pos_as_xyz
1 x,y,z
2 -x,y,1/2-z
3 1/2+x,1/2+y,z
4 1/2-x,1/2+y,1/2-z
5 -x,-y,-z
6 x,-y,1/2+z
7 1/2-x,1/2-y,-z
8 1/2+x,1/2-y,1/2+z
_cell_length_a                   19.125(4)
_cell_length_b                   12.927(3)
_cell_length_c                   13.787(3)
_cell_angle_alpha                90
_cell_angle_beta                 129.096(2)
_cell_angle_gamma                90
_cell_volume                     2645.34
loop_
_atom_site_label
_atom_site_type_symbol
_atom_site_fract_x
_atom_site_fract_y
_atom_site_fract_z
C1 C 0.0554(2) 0.4460(3) 0.1884(3)
C2 C 0.4890(2) 0.5513(3) 0.6155(3)
Cd1 Cd 0.267982(14) 0.495744(18) 0.44030(2)
H1 H 0.209(3) 0.692(3) 0.384(5)
H3 H 0.339(3) 0.311(3) 0.565(3)
H4 H 0.172(3) 0.673(3) 0.440(4)
H6 H 0.327(2) 0.281(2) 0.464(3)
N1 N 0.13337(17) 0.4118(2) 0.2944(2)
N2 N 0.1302(2) 0.3055(2) 0.2876(3)
N3 N 0.0552(2) 0.2750(2) 0.1834(3)
N4 N 0.00749(18) 0.3625(2) 0.1207(3)
H7 H -0.0453 0.3638 0.0488
N5 N 0.02828(19) 0.5430(2) 0.1521(3)
H8 H -0.0232 0.5554 0.0809
H9 H 0.0622 0.5934 0.1998
N6 N 0.40370(17) 0.58167(19) 0.5552(2)
N7 N 0.40521(19) 0.6885(2) 0.5549(3)
N8 N 0.4866(2) 0.7225(2) 0.6128(3)
N9 N 0.54015(18) 0.6376(2) 0.6504(3)
H10 H 0.5973 0.6385 0.6901
N10 N 0.51968(19) 0.4541(2) 0.6359(3)
H11 H 0.4829 0.4030 0.6090
H12 H 0.5761 0.4429 0.6758
O1 O 0.17138(15) 0.63967(17) 0.0972(2)
O2 O 0.27534(16) 0.5359(2) 0.2819(2)
O3 O 0.15934(14) 0.45198(17) 0.0822(2)
O4 O 0.28855(15) 0.5374(2) 0.1216(2)
O5 O 0.34353(17) 0.33251(19) 0.5114(2)
O6 O 0.18450(18) 0.6459(2) 0.3968(3)
S1 S 0.22251(5) 0.54015(6) 0.14491(7)
Cd1E Cd 0.267982(14) 0.504256(18) -0.05970(2)
O4E O 0.28855(15) 0.4626(2) 0.6216(2)
H2 H 0.276(3) 0.240(3) 0.252(4)
H5 H 0.2358(18) 0.325(3) 0.181(4)
O7 O 0.28302(18) 0.2884(2) 0.2177(3)
loop_
_geom_bond_atom_site_label_1
_geom_bond_atom_site_label_2
_geom_bond_site_symmetry_1
_geom_bond_site_symmetry_2
C1 N1 1_555 1_555
C2 N6 1_555 1_555
Cd1 N1 1_555 1_555
H1 O6 1_555 1_555
H2 O7 1_555 1_555
H3 O5 1_555 1_555
H4 O6 1_555 1_555
H5 O7 1_555 1_555
H6 O5 1_555 1_555
N1 N2 1_555 1_555
N2 N3 1_555 1_555
N3 N4 1_555 1_555
N4 C1 1_555 1_555
H7 N4 1_555 1_555
N5 C1 1_555 1_555
H8 N5 1_555 1_555
H9 N5 1_555 1_555
N6 Cd1 1_555 1_555
N7 N6 1_555 1_555
N8 N7 1_555 1_555
N9 C2 1_555 1_555
H10 N9 1_555 1_555
N10 C2 1_555 1_555
H11 N10 1_555 1_555
H12 N10 1_555 1_555
O1 S1 1_555 1_555
O2 Cd1 1_555 1_555
O3 S1 1_555 1_555
O4 S1 1_555 1_555
O5 Cd1 1_555 1_555
O6 Cd1 1_555 1_555
S1 O2 1_555 1_555
Cd1E O4 1_555 1_555
O4E Cd1 1_555 1_555
N8 N9 1_555 1_555

#END
