
#######################################################################
#
#                 Cambridge Crystallographic Data Centre
#                                CCDC 
#
#######################################################################
#
# If this CIF has been generated from an entry in the Cambridge 
# Structural Database, then it will include bibliographic, chemical, 
# crystal, experimental, refinement or atomic coordinate data resulting 
# from the CCDC's data processing and validation procedures.
#
#######################################################################

data_COWKIJ
_symmetry_cell_setting           monoclinic
_symmetry_space_group_name_H-M   'P 21/c'
_symmetry_Int_Tables_number      14
_space_group_name_Hall           '-P 2ybc'
loop_
_symmetry_equiv_pos_site_id
_symmetry_equiv_pos_as_xyz
1 x,y,z
2 -x,1/2+y,1/2-z
3 -x,-y,-z
4 x,1/2-y,1/2+z
_cell_length_a                   7.6671(16)
_cell_length_b                   21.327(4)
_cell_length_c                   8.5287(18)
_cell_angle_alpha                90
_cell_angle_beta                 106.559(2)
_cell_angle_gamma                90
_cell_volume                     1336.74
loop_
_atom_site_label
_atom_site_type_symbol
_atom_site_fract_x
_atom_site_fract_y
_atom_site_fract_z
Cu1 Cu 0.5000 0.5000 0.5000
Cl1 Cl 0.13224(7) 0.47467(3) 0.32558(7)
N1 N 0.4198(3) 0.58092(9) 0.5805(2)
N2 N 0.4424(3) 0.67590(11) 0.6959(3)
N3 N 0.2883(3) 0.64640(10) 0.7036(2)
N4 N -0.3277(3) 0.92259(10) 0.6249(2)
N5 N -0.4580(3) 0.95604(10) 0.8026(2)
N6 N -0.5076(3) 0.92258(13) 0.5451(3)
C1 C 0.2770(3) 0.59047(12) 0.6350(3)
H1 H 0.1827 0.5621 0.6264
C2 C 0.5160(3) 0.63466(12) 0.6202(3)
H2 H 0.6251 0.6417 0.5958
C3 C 0.1705(4) 0.67306(14) 0.7949(3)
H3 H 0.2424 0.6807 0.9068
H4 H 0.0771 0.6427 0.7975
C4 C 0.0808(3) 0.73310(12) 0.7233(3)
C5 C 0.1490(4) 0.78970(14) 0.7899(3)
H5 H 0.2552 0.7908 0.8764
C6 C 0.0615(4) 0.84524(13) 0.7297(4)
H6 H 0.1101 0.8832 0.7758
C7 C -0.0961(3) 0.84495(12) 0.6029(3)
C8 C -0.1632(4) 0.78811(13) 0.5340(4)
H7 H -0.2686 0.7870 0.4467
C9 C -0.0751(4) 0.73282(13) 0.5936(4)
H8 H -0.1217 0.6949 0.5455
C10 C -0.1900(4) 0.90584(14) 0.5418(3)
H9 H -0.0999 0.9390 0.5590
H10 H -0.2481 0.9026 0.4252
C11 C -0.3006(3) 0.94246(13) 0.7761(3)
H11 H -0.1874 0.9464 0.8529
C12 C -0.5797(4) 0.94344(14) 0.6573(3)
H12 H -0.7043 0.9491 0.6383
Cu1A Cu -0.5000 1.0000 1.0000
Cu1A_2 Cu 1.5000 0.0000 0.0000
Cl1B Cl 0.86776(7) 0.52533(3) 0.67442(7)
N1B N 0.5802(3) 0.41908(9) 0.4195(2)
N2B N 0.5576(3) 0.32410(11) 0.3041(3)
N3B N 0.7117(3) 0.35360(10) 0.2964(2)
N4B N 1.3277(3) 0.07741(10) 0.3751(2)
N5B N 1.4580(3) 0.04396(10) 0.1974(2)
N5A N 0.4580(3) 0.45604(10) 0.6974(2)
N5C N 0.5420(3) 0.54396(10) 0.3026(2)
N6B N 1.5076(3) 0.07742(13) 0.4549(3)
C1B C 0.7230(3) 0.40953(12) 0.3650(3)
H1B H 0.8173 0.4379 0.3736
C2B C 0.4840(3) 0.36534(12) 0.3798(3)
H2B H 0.3749 0.3583 0.4042
C3B C 0.8295(4) 0.32694(14) 0.2051(3)
H3B H 0.7576 0.3193 0.0932
H4B H 0.9229 0.3573 0.2025
C4B C 0.9192(3) 0.26690(12) 0.2767(3)
C5B C 0.8510(4) 0.21030(14) 0.2101(3)
H5B H 0.7448 0.2092 0.1236
C6B C 0.9385(4) 0.15476(13) 0.2703(4)
H6B H 0.8899 0.1168 0.2242
C7B C 1.0961(3) 0.15505(12) 0.3971(3)
C8B C 1.1632(4) 0.21189(13) 0.4660(4)
H7B H 1.2686 0.2130 0.5533
C9B C 1.0751(4) 0.26718(13) 0.4064(4)
H8B H 1.1217 0.3051 0.4545
C10B C 1.1900(4) 0.09416(14) 0.4582(3)
H9B H 1.0999 0.0610 0.4410
H10B H 1.2481 0.0974 0.5748
C11B C 1.3006(3) 0.05754(13) 0.2239(3)
H11B H 1.1874 0.0536 0.1471
C12B C 1.5797(4) 0.05656(14) 0.3427(3)
H12B H 1.7043 0.0509 0.3617
loop_
_geom_bond_atom_site_label_1
_geom_bond_atom_site_label_2
_geom_bond_site_symmetry_1
_geom_bond_site_symmetry_2
Cu1 Cl1 1_555 1_555
N1 Cu1 1_555 1_555
N2 N3 1_555 1_555
N3 C1 1_555 1_555
N4 N6 1_555 1_555
N5 C11 1_555 1_555
N6 C12 1_555 1_555
C1 N1 1_555 1_555
H1 C1 1_555 1_555
C2 N1 1_555 1_555
H2 C2 1_555 1_555
C3 N3 1_555 1_555
H3 C3 1_555 1_555
H4 C3 1_555 1_555
C4 C3 1_555 1_555
C5 C4 1_555 1_555
H5 C5 1_555 1_555
C6 C5 1_555 1_555
H6 C6 1_555 1_555
C7 C6 1_555 1_555
C8 C7 1_555 1_555
H7 C8 1_555 1_555
C9 C4 1_555 1_555
H8 C9 1_555 1_555
C10 N4 1_555 1_555
H9 C10 1_555 1_555
H10 C10 1_555 1_555
C11 N4 1_555 1_555
H11 C11 1_555 1_555
C12 N5 1_555 1_555
H12 C12 1_555 1_555
Cu1A N5 1_555 1_555
Cu1A_2 N5B 1_555 1_555
Cl1B Cu1 1_555 1_555
N1B Cu1 1_555 1_555
N2B N3B 1_555 1_555
N3B C1B 1_555 1_555
N4B N6B 1_555 1_555
N5B C11B 1_555 1_555
N5A Cu1 1_555 1_555
N5C Cu1 1_555 1_555
N6B C12B 1_555 1_555
C1B N1B 1_555 1_555
H1B C1B 1_555 1_555
C2B N1B 1_555 1_555
H2B C2B 1_555 1_555
C3B N3B 1_555 1_555
H3B C3B 1_555 1_555
H4B C3B 1_555 1_555
C4B C3B 1_555 1_555
C5B C4B 1_555 1_555
H5B C5B 1_555 1_555
C6B C5B 1_555 1_555
H6B C6B 1_555 1_555
C7B C6B 1_555 1_555
C8B C7B 1_555 1_555
H7B C8B 1_555 1_555
C9B C4B 1_555 1_555
H8B C9B 1_555 1_555
C10B N4B 1_555 1_555
H9B C10B 1_555 1_555
H10B C10B 1_555 1_555
C11B N4B 1_555 1_555
H11B C11B 1_555 1_555
C12B N5B 1_555 1_555
H12B C12B 1_555 1_555
N2 C2 1_555 1_555
C7 C10 1_555 1_555
C8 C9 1_555 1_555
N2B C2B 1_555 1_555
C7B C10B 1_555 1_555
C8B C9B 1_555 1_555

#END
