
#######################################################################
#
#                 Cambridge Crystallographic Data Centre
#                                CCDC 
#
#######################################################################
#
# If this CIF has been generated from an entry in the Cambridge 
# Structural Database, then it will include bibliographic, chemical, 
# crystal, experimental, refinement or atomic coordinate data resulting 
# from the CCDC's data processing and validation procedures.
#
#######################################################################

data_COWLAC
_symmetry_cell_setting           monoclinic
_symmetry_space_group_name_H-M   'P 21/c'
_symmetry_Int_Tables_number      14
_space_group_name_Hall           '-P 2ybc'
loop_
_symmetry_equiv_pos_site_id
_symmetry_equiv_pos_as_xyz
1 x,y,z
2 -x,1/2+y,1/2-z
3 -x,-y,-z
4 x,1/2-y,1/2+z
_cell_length_a                   8.8482(18)
_cell_length_b                   9.5706(19)
_cell_length_c                   13.312(3)
_cell_angle_alpha                90
_cell_angle_beta                 102.43(3)
_cell_angle_gamma                90
_cell_volume                     1100.87
loop_
_atom_site_label
_atom_site_type_symbol
_atom_site_fract_x
_atom_site_fract_y
_atom_site_fract_z
C1 C 0.2495(5) 0.5910(5) 0.6721(4)
N1 N 0.3557(4) 0.6945(4) 0.6899(3)
C2 C 0.2618(6) 0.6650(5) 0.3958(4)
N2 N 0.3916(6) 0.5894(5) 0.4029(4)
N3 N 0.1249(5) 0.6326(4) 0.3348(3)
N4 N 0.1112(6) 0.5986(5) 0.6068(4)
Cd1 Cd 0.39160(4) 0.89236(3) 0.59247(2)
Cd2 Cd 0.0000 1.0000 0.5000
Cd3 Cd -0.24551(4) 0.76073(3) 0.30525(2)
N5 N 0.1047(5) 0.8221(4) 0.4202(3)
N6 N 0.0281(5) 0.7335(4) 0.3530(3)
N7 N 0.2527(5) 0.7828(4) 0.4493(3)
N8 N 0.4459(5) 0.5142(4) 0.7809(3)
N9 N 0.4775(5) 0.6425(4) 0.7597(3)
N10 N 0.3053(5) 0.4766(4) 0.7268(3)
O1 O -0.1155(4) 0.8443(4) 0.5908(3)
O2 O -0.3842(4) 0.8986(4) 0.5185(3)
O3 O -0.2700(4) 0.6914(4) 0.4647(3)
O4 O -0.3180(5) 0.7054(4) 0.6336(2)
O5 O 0.1977(4) 1.0148(3) 0.6403(2)
S1 S -0.26961(13) 0.78612(11) 0.55146(8)
H1 H 0.045(7) 0.679(7) 0.600(4)
H2 H 0.382(8) 0.511(7) 0.381(5)
H3 H 0.478(7) 0.612(6) 0.426(4)
H4 H 0.042(8) 0.542(7) 0.607(5)
C1A C 0.7505(5) 1.0910(5) 0.8279(4)
N1A N 0.6443(4) 1.1945(4) 0.8101(3)
N1B N -0.3557(4) 1.3055(4) 0.3101(3)
C2B C -0.2618(6) 1.3350(5) 0.6042(4)
N2B N -0.3916(6) 1.4106(5) 0.5971(4)
N3B N -0.1249(5) 1.3674(4) 0.6652(3)
N4A N 0.8888(6) 1.0986(5) 0.8932(4)
Cd1B Cd -0.39160(4) 1.10764(3) 0.40753(2)
Cd1A Cd 0.60840(4) 0.39236(3) 0.90753(2)
Cd1_2 Cd -0.60840(4) 0.89236(3) 0.59247(2)
Cd1B_2 Cd 0.60840(4) 1.10764(3) 0.40753(2)
Cd1A_2 Cd 0.60840(4) 1.39236(3) 0.90753(2)
Cd3B Cd 0.24551(4) 1.23927(3) 0.69475(2)
Cd3C Cd 0.75449(4) 0.73927(3) 0.80525(2)
Cd3B_2 Cd 0.24551(4) 0.23927(3) 0.69475(2)
Cd3C_2 Cd -0.24551(4) 0.73927(3) 0.80525(2)
Cd3A Cd 0.24551(4) 1.26073(3) 0.19475(2)
N5B N -0.1047(5) 1.1779(4) 0.5798(3)
N6B N -0.0281(5) 1.2665(4) 0.6470(3)
N7B N -0.2527(5) 1.2172(4) 0.5507(3)
N8A N 0.5541(5) 1.0142(4) 0.7191(3)
N8C N -0.5541(5) 0.9858(4) 0.2809(3)
N9A N 0.5225(5) 1.1425(4) 0.7403(3)
N9C N -0.5225(5) 0.8575(4) 0.2597(3)
N10A N 0.6947(5) 0.9766(4) 0.7732(3)
N10B N -0.3053(5) 0.5234(4) 0.2732(3)
N10_2 N 0.3053(5) 1.4766(4) 0.7268(3)
O1B O 0.1155(4) 1.1557(4) 0.4092(3)
O2B O 0.3842(4) 1.1014(4) 0.4815(3)
O2_2 O 0.6158(4) 0.8986(4) 0.5185(3)
O2B_2 O -0.6158(4) 1.1014(4) 0.4815(3)
O3B O 0.2700(4) 1.3086(4) 0.5353(3)
O4B O 0.3180(5) 1.2946(4) 0.3664(2)
O4C O -0.3180(5) 0.7946(4) 0.1336(2)
O4A O 0.3180(5) 1.2054(4) 0.8664(2)
O5B O -0.1977(4) 0.9852(3) 0.3597(2)
S1B S 0.26961(13) 1.21388(11) 0.44854(8)
H1A H 0.955(7) 1.179(7) 0.900(4)
H2B H -0.382(8) 1.489(7) 0.619(5)
H3B H -0.478(7) 1.388(6) 0.574(4)
H4A H 0.958(8) 1.042(7) 0.893(5)
loop_
_geom_bond_atom_site_label_1
_geom_bond_atom_site_label_2
_geom_bond_site_symmetry_1
_geom_bond_site_symmetry_2
C1 N1 1_555 1_555
N1 Cd1 1_555 1_555
C2 N2 1_555 1_555
N2 H2 1_555 1_555
N3 C2 1_555 1_555
N4 C1 1_555 1_555
Cd1 N7 1_555 1_555
Cd2 N5 1_555 1_555
Cd3 N6 1_555 1_555
N5 N6 1_555 1_555
N6 N3 1_555 1_555
N7 C2 1_555 1_555
N8 N9 1_555 1_555
N9 N1 1_555 1_555
N10 C1 1_555 1_555
O1 Cd2 1_555 1_555
O2 S1 1_555 1_555
O3 Cd3 1_555 1_555
O4 S1 1_555 1_555
O5 Cd1 1_555 1_555
S1 O1 1_555 1_555
H1 N4 1_555 1_555
H3 N2 1_555 1_555
H4 N4 1_555 1_555
C1A N1A 1_555 1_555
N1A Cd1A_2 1_555 1_555
N1B Cd1B 1_555 1_555
C2B N2B 1_555 1_555
N2B H2B 1_555 1_555
N3B C2B 1_555 1_555
N4A C1A 1_555 1_555
Cd1B O2 1_555 1_555
Cd1A N8 1_555 1_555
Cd1_2 O2 1_555 1_555
Cd1B_2 O2B 1_555 1_555
Cd3B O5 1_555 1_555
Cd3C N9 1_555 1_555
Cd3B_2 N10 1_555 1_555
Cd3C_2 O4 1_555 1_555
Cd3A O4B 1_555 1_555
N5B Cd2 1_555 1_555
N6B N3B 1_555 1_555
N7B C2B 1_555 1_555
N8A Cd1 1_555 1_555
N8C Cd1B 1_555 1_555
N9A N1A 1_555 1_555
N9C Cd3 1_555 1_555
N10A C1A 1_555 1_555
N10B Cd3 1_555 1_555
N10_2 Cd3B 1_555 1_555
O1B Cd2 1_555 1_555
O2B Cd1 1_555 1_555
O2_2 Cd1 1_555 1_555
O2B_2 Cd1B 1_555 1_555
O3B Cd3B 1_555 1_555
O4B S1B 1_555 1_555
O4C Cd3 1_555 1_555
O4A Cd3B 1_555 1_555
O5B Cd2 1_555 1_555
S1B O1B 1_555 1_555
H1A N4A 1_555 1_555
H3B N2B 1_555 1_555
H4A N4A 1_555 1_555
Cd2 O5 1_555 1_555
Cd3 O5B 1_555 1_555
N5 N7 1_555 1_555
N8 N10 1_555 1_555
O3 S1 1_555 1_555
Cd1B N7B 1_555 1_555
Cd1B O5B 1_555 1_555
Cd1_2 O2B_2 1_555 1_555
Cd1B_2 O2_2 1_555 1_555
Cd3B N6B 1_555 1_555
Cd3B N9A 1_555 1_555
Cd3C N10A 1_555 1_555
N5B N6B 1_555 1_555
N5B N7B 1_555 1_555
N8A N9A 1_555 1_555
N8A N10A 1_555 1_555
N8C N9C 1_555 1_555
O2B S1B 1_555 1_555
O3B S1B 1_555 1_555

#END
