
#######################################################################
#
#                 Cambridge Crystallographic Data Centre
#                                CCDC 
#
#######################################################################
#
# If this CIF has been generated from an entry in the Cambridge 
# Structural Database, then it will include bibliographic, chemical, 
# crystal, experimental, refinement or atomic coordinate data resulting 
# from the CCDC's data processing and validation procedures.
#
#######################################################################

data_COWLAC01
_symmetry_cell_setting           monoclinic
_symmetry_space_group_name_H-M   'P 21/c'
_symmetry_Int_Tables_number      14
_space_group_name_Hall           '-P 2ybc'
loop_
_symmetry_equiv_pos_site_id
_symmetry_equiv_pos_as_xyz
1 x,y,z
2 -x,1/2+y,1/2-z
3 -x,-y,-z
4 x,1/2-y,1/2+z
_cell_length_a                   8.8659(18)
_cell_length_b                   9.5769(19)
_cell_length_c                   13.337(3)
_cell_angle_alpha                90
_cell_angle_beta                 102.91(3)
_cell_angle_gamma                90
_cell_volume                     1103.79
loop_
_atom_site_label
_atom_site_type_symbol
_atom_site_fract_x
_atom_site_fract_y
_atom_site_fract_z
Cd1 Cd 0.0000 0.0000 0.0000
Cd2 Cd 0.39155(3) -0.10745(3) 0.09239(2)
Cd3 Cd 0.24567(3) 0.23908(3) 0.19497(2)
S1 S -0.26959(12) -0.21388(11) 0.05129(7)
O1 O 0.1983(3) 0.0148(3) 0.1396(2)
O2 O -0.3843(4) -0.1016(3) 0.0184(3)
O3 O -0.3163(4) -0.2945(3) 0.1335(2)
O4 O -0.1148(4) -0.1556(4) 0.0903(2)
O5 O -0.2701(4) -0.3080(4) -0.0358(2)
N1 N 0.1244(4) -0.3674(4) -0.1653(3)
N2 N 0.0289(4) -0.2661(4) -0.1471(3)
N3 N 0.1035(4) -0.1780(4) -0.0795(3)
N4 N 0.2535(4) -0.2166(4) -0.0505(3)
N5 N 0.3935(5) -0.4096(5) -0.0972(4)
N6 N 0.6952(4) -0.0236(4) 0.2734(3)
N7 N 0.5527(4) 0.0146(4) 0.2192(3)
N8 N 0.5221(4) 0.1421(4) 0.2407(3)
N9 N 0.6443(4) 0.1948(4) 0.3105(3)
N10 N 0.8904(5) 0.0992(5) 0.3927(4)
C1 C 0.2615(5) -0.3349(5) -0.1043(3)
C2 C 0.7486(5) 0.0908(5) 0.3277(3)
H1 H 0.387(8) -0.478(7) -0.111(5)
H2 H 0.485(10) -0.381(9) -0.060(7)
H3 H 0.925(9) 0.169(8) 0.398(6)
H4 H 0.165(7) -0.021(6) 0.182(5)
H5 H 0.947(8) 0.034(8) 0.380(5)
Cd2B Cd -0.39155(3) 0.10745(3) -0.09239(2)
Cd2_2 Cd -0.60845(3) -0.10745(3) 0.09239(2)
Cd2A Cd 0.60845(3) 0.39255(3) 0.40761(2)
Cd2B_2 Cd 0.60845(3) 0.10745(3) -0.09239(2)
Cd2A_2 Cd 0.60845(3) -0.60745(3) 0.40761(2)
Cd3B Cd -0.24567(3) -0.23908(3) -0.19497(2)
Cd3A Cd -0.24567(3) -0.26092(3) 0.30503(2)
Cd3A_2 Cd 0.75433(3) -0.26092(3) 0.30503(2)
Cd3C Cd 0.24567(3) 0.26092(3) -0.30503(2)
Cd3_2 Cd 0.24567(3) -0.76092(3) 0.19497(2)
S1B S 0.26959(12) 0.21388(11) -0.05129(7)
O1B O -0.1983(3) -0.0148(3) -0.1396(2)
O2B O 0.3843(4) 0.1016(3) -0.0184(3)
O2_2 O 0.6157(4) -0.1016(3) 0.0184(3)
O2B_2 O -0.6157(4) 0.1016(3) -0.0184(3)
O3B O 0.3163(4) 0.2945(3) -0.1335(2)
O3A O 0.3163(4) 0.2055(3) 0.3665(2)
O3C O -0.3163(4) -0.2055(3) -0.3665(2)
O4B O 0.1148(4) 0.1556(4) -0.0903(2)
O5B O 0.2701(4) 0.3080(4) 0.0358(2)
N1B N -0.1244(4) 0.3674(4) 0.1653(3)
N2B N -0.0289(4) 0.2661(4) 0.1471(3)
N3B N -0.1035(4) 0.1780(4) 0.0795(3)
N4B N -0.2535(4) 0.2166(4) 0.0505(3)
N5B N -0.3935(5) 0.4096(5) 0.0972(4)
N6A N 0.3048(4) -0.5236(4) 0.2266(3)
N6A_2 N 0.3048(4) 0.4764(4) 0.2266(3)
N6C N -0.3048(4) -0.4764(4) -0.2266(3)
N7A N 0.4473(4) -0.4854(4) 0.2808(3)
N7B N -0.5527(4) -0.0146(4) -0.2192(3)
N8A N 0.4779(4) -0.3579(4) 0.2593(3)
N8B N -0.5221(4) -0.1421(4) -0.2407(3)
N9A N 0.3557(4) -0.3052(4) 0.1895(3)
N9C N -0.3557(4) 0.3052(4) -0.1895(3)
N10A N 0.1096(5) -0.4008(5) 0.1073(4)
C1B C -0.2615(5) 0.3349(5) 0.1043(3)
C2A C 0.2514(5) -0.4092(5) 0.1723(3)
H1B H -0.387(8) 0.478(7) 0.111(5)
H2B H -0.485(10) 0.381(9) 0.060(7)
H3A H 0.075(9) -0.331(8) 0.102(6)
H4B H -0.165(7) 0.021(6) -0.182(5)
H5A H 0.053(8) -0.466(8) 0.120(5)
loop_
_geom_bond_atom_site_label_1
_geom_bond_atom_site_label_2
_geom_bond_site_symmetry_1
_geom_bond_site_symmetry_2
Cd1 O1 1_555 1_555
Cd2 O1 1_555 1_555
Cd3 O1 1_555 1_555
S1 O2 1_555 1_555
O1 H4 1_555 1_555
O2 Cd2B 1_555 1_555
O3 S1 1_555 1_555
O4 Cd1 1_555 1_555
O5 S1 1_555 1_555
N1 N2 1_555 1_555
N2 N3 1_555 1_555
N3 Cd1 1_555 1_555
N4 Cd2 1_555 1_555
N5 C1 1_555 1_555
N6 N7 1_555 1_555
N7 Cd2 1_555 1_555
N8 Cd3 1_555 1_555
N9 N8 1_555 1_555
N10 C2 1_555 1_555
C1 N1 1_555 1_555
C2 N6 1_555 1_555
H1 N5 1_555 1_555
H2 N5 1_555 1_555
H3 N10 1_555 1_555
H5 N10 1_555 1_555
Cd2B O1B 1_555 1_555
Cd2_2 O2 1_555 1_555
Cd2A N9 1_555 1_555
Cd2B_2 O2B 1_555 1_555
Cd2A_2 N7A 1_555 1_555
Cd3B O5 1_555 1_555
Cd3A O3 1_555 1_555
Cd3A_2 N6 1_555 1_555
Cd3C O3B 1_555 1_555
Cd3_2 N6A 1_555 1_555
S1B O2B 1_555 1_555
O1B Cd1 1_555 1_555
O2B Cd2 1_555 1_555
O2_2 Cd2 1_555 1_555
O2B_2 Cd2B 1_555 1_555
O3B S1B 1_555 1_555
O3A Cd3 1_555 1_555
O3C Cd3B 1_555 1_555
O4B Cd1 1_555 1_555
O5B Cd3 1_555 1_555
N1B N2B 1_555 1_555
N2B Cd3 1_555 1_555
N3B Cd1 1_555 1_555
N4B Cd2B 1_555 1_555
N5B C1B 1_555 1_555
N6A N7A 1_555 1_555
N6A_2 Cd3 1_555 1_555
N6C Cd3B 1_555 1_555
N7A N8A 1_555 1_555
N7B Cd2B 1_555 1_555
N8A Cd3A_2 1_555 1_555
N8B Cd3B 1_555 1_555
N9A Cd2 1_555 1_555
N9C Cd2B 1_555 1_555
N10A C2A 1_555 1_555
C1B N1B 1_555 1_555
C2A N6A 1_555 1_555
H1B N5B 1_555 1_555
H2B N5B 1_555 1_555
H3A N10A 1_555 1_555
H4B O1B 1_555 1_555
H5A N10A 1_555 1_555
S1 O4 1_555 1_555
N2 Cd3B 1_555 1_555
N3 N4 1_555 1_555
N4 C1 1_555 1_555
N7 N8 1_555 1_555
N9 C2 1_555 1_555
Cd2_2 O2B_2 1_555 1_555
Cd2B_2 O2_2 1_555 1_555
Cd3B O1B 1_555 1_555
S1B O4B 1_555 1_555
S1B O5B 1_555 1_555
N2B N3B 1_555 1_555
N3B N4B 1_555 1_555
N4B C1B 1_555 1_555
N7B N8B 1_555 1_555
N8A N9A 1_555 1_555
N9A C2A 1_555 1_555

#END
