
#######################################################################
#
#                 Cambridge Crystallographic Data Centre
#                                CCDC 
#
#######################################################################
#
# If this CIF has been generated from an entry in the Cambridge 
# Structural Database, then it will include bibliographic, chemical, 
# crystal, experimental, refinement or atomic coordinate data resulting 
# from the CCDC's data processing and validation procedures.
#
#######################################################################

data_COWRUD
_symmetry_cell_setting           triclinic
_symmetry_space_group_name_H-M   'P -1'
_symmetry_Int_Tables_number      2
_space_group_name_Hall           '-P 1'
loop_
_symmetry_equiv_pos_site_id
_symmetry_equiv_pos_as_xyz
1 x,y,z
2 -x,-y,-z
_cell_length_a                   9.315(5)
_cell_length_b                   10.302(5)
_cell_length_c                   10.470(6)
_cell_angle_alpha                84.61(2)
_cell_angle_beta                 76.687(17)
_cell_angle_gamma                69.851(13)
_cell_volume                     917.779
loop_
_atom_site_label
_atom_site_type_symbol
_atom_site_fract_x
_atom_site_fract_y
_atom_site_fract_z
Co1 Co 0.0000 1.0000 0.5000
O1 O -0.16134(16) 0.96441(15) 0.65518(14)
O2 O -0.32925(18) 0.93253(18) 0.55056(15)
O3 O -0.85003(17) 1.00228(19) 0.87681(16)
O4 O -0.83652(18) 0.9050(2) 1.07495(15)
H1 H -0.9321 0.9355 1.0850
O5 O 0.4352(2) 0.2533(2) 0.50052(16)
H2 H 0.3992 0.1946 0.4879
O6 O 0.27464(18) 0.26572(18) 0.69705(16)
O7 O 0.96472(17) 0.19633(16) 0.58513(16)
O8 O 0.96946(19) 0.3359(2) 0.73240(19)
H3 H 1.0643 0.3016 0.7061
O9 O -0.17374(18) 1.08242(18) 0.39101(16)
H4 H -0.2457 1.0520 0.4200
H5 H -0.150(3) 1.082(4) 0.3079(10)
C1 C -0.2746(2) 0.9255(2) 0.6515(2)
C2 C -0.3537(2) 0.8733(2) 0.77749(19)
C3 C -0.5167(2) 0.9215(2) 0.8082(2)
H6 H -0.5712 0.9759 0.7473
C4 C -0.5993(2) 0.8895(2) 0.9287(2)
C5 C -0.7729(2) 0.9378(2) 0.9575(2)
C6 C -0.5174(2) 0.8090(2) 1.0199(2)
H7 H -0.5713 0.7904 1.1020
C7 C -0.3551(2) 0.7566(2) 0.9883(2)
H8 H -0.3016 0.7015 1.0495
C8 C -0.2702(2) 0.7847(2) 0.8669(2)
C9 C -0.0977(2) 0.7130(2) 0.8344(2)
C10 C -0.0220(2) 0.6585(2) 0.7098(2)
H9 H -0.0795 0.6708 0.6451
C11 C 0.1367(2) 0.5866(2) 0.6813(2)
H10 H 0.1845 0.5523 0.5974
C12 C 0.2266(2) 0.5646(2) 0.7758(2)
C13 C 0.1512(3) 0.6185(2) 0.9003(2)
H11 H 0.2087 0.6056 0.9651
C14 C -0.0082(2) 0.6912(2) 0.9290(2)
H12 H -0.0560 0.7260 1.0128
C15 C 0.3979(2) 0.4903(2) 0.7453(2)
C16 C 0.4697(2) 0.3732(2) 0.6647(2)
C17 C 0.3801(2) 0.2948(2) 0.6219(2)
C18 C 0.6316(2) 0.3137(2) 0.6347(2)
H13 H 0.6779 0.2403 0.5769
C19 C 0.7251(2) 0.3622(2) 0.6897(2)
C20 C 0.8967(2) 0.2896(2) 0.6627(2)
C21 C 0.6558(3) 0.4767(2) 0.7707(2)
H14 H 0.7173 0.5102 0.8082
C22 C 0.4955(3) 0.5404(2) 0.7951(2)
H15 H 0.4509 0.6192 0.8463
O1A O 0.16134(16) 1.03559(15) 0.34482(14)
O2A O 0.32925(18) 1.06747(18) 0.44944(15)
O3A O 0.85003(17) 0.99772(19) 0.12319(16)
O4A O 0.83652(18) 1.0950(2) -0.07495(15)
H1A H 0.9321 1.0645 -0.0850
O5A O -0.4352(2) 1.7467(2) 0.49948(16)
H2A H -0.3992 1.8054 0.5121
O6A O -0.27464(18) 1.73428(18) 0.30295(16)
O7A O -0.96472(17) 1.80367(16) 0.41487(16)
O8A O -0.96946(19) 1.6641(2) 0.26760(19)
H3A H -1.0643 1.6984 0.2939
O9A O 0.17374(18) 0.91758(18) 0.60899(16)
H4A H 0.2457 0.9480 0.5800
H5A H 0.150(3) 0.918(4) 0.6921(10)
C1A C 0.2746(2) 1.0745(2) 0.3485(2)
C2A C 0.3537(2) 1.1267(2) 0.22251(19)
C3A C 0.5167(2) 1.0785(2) 0.1918(2)
H6A H 0.5712 1.0241 0.2527
C4A C 0.5993(2) 1.1105(2) 0.0713(2)
C5A C 0.7729(2) 1.0622(2) 0.0425(2)
C6A C 0.5174(2) 1.1910(2) -0.0199(2)
H7A H 0.5713 1.2096 -0.1020
C7A C 0.3551(2) 1.2434(2) 0.0117(2)
H8A H 0.3016 1.2985 -0.0495
C8A C 0.2702(2) 1.2153(2) 0.1331(2)
C9A C 0.0977(2) 1.2870(2) 0.1656(2)
C10A C 0.0220(2) 1.3415(2) 0.2902(2)
H9A H 0.0795 1.3292 0.3549
C11A C -0.1367(2) 1.4134(2) 0.3187(2)
H10A H -0.1845 1.4477 0.4026
C12A C -0.2266(2) 1.4354(2) 0.2242(2)
C13A C -0.1512(3) 1.3815(2) 0.0997(2)
H11A H -0.2087 1.3944 0.0349
C14A C 0.0082(2) 1.3088(2) 0.0710(2)
H12A H 0.0560 1.2740 -0.0128
C15A C -0.3979(2) 1.5097(2) 0.2547(2)
C16A C -0.4697(2) 1.6268(2) 0.3353(2)
C17A C -0.3801(2) 1.7052(2) 0.3781(2)
C18A C -0.6316(2) 1.6863(2) 0.3653(2)
H13A H -0.6779 1.7597 0.4231
C19A C -0.7251(2) 1.6378(2) 0.3103(2)
C20A C -0.8967(2) 1.7104(2) 0.3373(2)
C21A C -0.6558(3) 1.5233(2) 0.2293(2)
H14A H -0.7173 1.4898 0.1918
C22A C -0.4955(3) 1.4596(2) 0.2049(2)
H15A H -0.4509 1.3808 0.1537
Co1_2 Co -1.0000 2.0000 0.5000
Co1_3 Co 1.0000 0.0000 0.5000
O7_2 O -0.03528(17) 1.19633(16) 0.58513(16)
O7A_2 O 0.03528(17) 0.80367(16) 0.41487(16)
loop_
_geom_bond_atom_site_label_1
_geom_bond_atom_site_label_2
_geom_bond_site_symmetry_1
_geom_bond_site_symmetry_2
Co1 O1 1_555 1_555
O1 C1 1_555 1_555
O2 C1 1_555 1_555
O3 C5 1_555 1_555
O4 H1 1_555 1_555
O5 H2 1_555 1_555
O6 C17 1_555 1_555
O7 C20 1_555 1_555
O8 H3 1_555 1_555
O9 Co1 1_555 1_555
H4 O9 1_555 1_555
H5 O9 1_555 1_555
C1 C2 1_555 1_555
C2 C3 1_555 1_555
C3 H6 1_555 1_555
C4 C3 1_555 1_555
C5 O4 1_555 1_555
C6 C4 1_555 1_555
H7 C6 1_555 1_555
C7 C6 1_555 1_555
H8 C7 1_555 1_555
C8 C2 1_555 1_555
C9 C8 1_555 1_555
C10 C9 1_555 1_555
H9 C10 1_555 1_555
C11 C10 1_555 1_555
H10 C11 1_555 1_555
C12 C11 1_555 1_555
C13 C12 1_555 1_555
H11 C13 1_555 1_555
C14 C9 1_555 1_555
H12 C14 1_555 1_555
C15 C12 1_555 1_555
C16 C15 1_555 1_555
C17 O5 1_555 1_555
C18 C16 1_555 1_555
H13 C18 1_555 1_555
C19 C18 1_555 1_555
C20 O8 1_555 1_555
C21 C19 1_555 1_555
H14 C21 1_555 1_555
C22 C15 1_555 1_555
H15 C22 1_555 1_555
O1A Co1 1_555 1_555
O2A C1A 1_555 1_555
O3A C5A 1_555 1_555
O4A H1A 1_555 1_555
O5A H2A 1_555 1_555
O6A C17A 1_555 1_555
O7A C20A 1_555 1_555
O8A H3A 1_555 1_555
O9A Co1 1_555 1_555
H4A O9A 1_555 1_555
H5A O9A 1_555 1_555
C1A O1A 1_555 1_555
C2A C1A 1_555 1_555
C3A C2A 1_555 1_555
H6A C3A 1_555 1_555
C4A C3A 1_555 1_555
C5A O4A 1_555 1_555
C6A C4A 1_555 1_555
H7A C6A 1_555 1_555
C7A C6A 1_555 1_555
H8A C7A 1_555 1_555
C8A C2A 1_555 1_555
C9A C8A 1_555 1_555
C10A C9A 1_555 1_555
H9A C10A 1_555 1_555
C11A C10A 1_555 1_555
H10A C11A 1_555 1_555
C12A C11A 1_555 1_555
C13A C12A 1_555 1_555
H11A C13A 1_555 1_555
C14A C9A 1_555 1_555
H12A C14A 1_555 1_555
C15A C12A 1_555 1_555
C16A C15A 1_555 1_555
C17A O5A 1_555 1_555
C18A C16A 1_555 1_555
H13A C18A 1_555 1_555
C19A C18A 1_555 1_555
C20A O8A 1_555 1_555
C21A C19A 1_555 1_555
H14A C21A 1_555 1_555
C22A C15A 1_555 1_555
H15A C22A 1_555 1_555
Co1_2 O7A 1_555 1_555
Co1_3 O7 1_555 1_555
O7_2 Co1 1_555 1_555
O7A_2 Co1 1_555 1_555
C4 C5 1_555 1_555
C7 C8 1_555 1_555
C13 C14 1_555 1_555
C16 C17 1_555 1_555
C19 C20 1_555 1_555
C21 C22 1_555 1_555
C4A C5A 1_555 1_555
C7A C8A 1_555 1_555
C13A C14A 1_555 1_555
C16A C17A 1_555 1_555
C19A C20A 1_555 1_555
C21A C22A 1_555 1_555

#END
