
#######################################################################
#
#                 Cambridge Crystallographic Data Centre
#                                CCDC 
#
#######################################################################
#
# If this CIF has been generated from an entry in the Cambridge 
# Structural Database, then it will include bibliographic, chemical, 
# crystal, experimental, refinement or atomic coordinate data resulting 
# from the CCDC's data processing and validation procedures.
#
#######################################################################

data_COWSEO
_symmetry_cell_setting           monoclinic
_symmetry_space_group_name_H-M   'C 2/c'
_symmetry_Int_Tables_number      15
_space_group_name_Hall           '-C 2yn'
loop_
_symmetry_equiv_pos_site_id
_symmetry_equiv_pos_as_xyz
1 x,y,z
2 -x,y,1/2-z
3 1/2+x,1/2+y,z
4 1/2-x,1/2+y,1/2-z
5 -x,-y,-z
6 x,-y,1/2+z
7 1/2-x,1/2-y,-z
8 1/2+x,1/2-y,1/2+z
_cell_length_a                   24.518(11)
_cell_length_b                   11.307(4)
_cell_length_c                   7.8839(19)
_cell_angle_alpha                90
_cell_angle_beta                 106.809(12)
_cell_angle_gamma                90
_cell_volume                     2092.23
loop_
_atom_site_label
_atom_site_type_symbol
_atom_site_fract_x
_atom_site_fract_y
_atom_site_fract_z
Co1 Co 0.0000 0.5000 0.0000
O1 O 0.06586(7) 0.37671(13) 0.13244(19)
O2 O 0.09683(7) 0.31912(16) -0.0946(2)
O3 O 0.31187(8) 0.23645(19) 0.2105(3)
H1 H 0.3401 0.2153 0.1777
O4 O 0.32633(8) 0.0658(2) 0.3602(3)
O5 O 0.06314(7) 0.60943(14) -0.0225(2)
H2 H 0.0952 0.5818 0.0373
H3 H 0.067(2) 0.627(5) -0.129(7)
O6 O 0.0000 0.42324(18) -0.2500
H4 H 0.0297 0.3810 -0.2360
C1 C 0.09787(9) 0.31555(18) 0.0665(3)
C2 C 0.13937(9) 0.22989(19) 0.1848(3)
C3 C 0.19690(10) 0.2353(2) 0.1946(3)
H5 H 0.2099 0.2940 0.1333
C4 C 0.23514(10) 0.1536(2) 0.2953(3)
C5 C 0.21576(12) 0.0677(3) 0.3917(4)
H6 H 0.2413 0.0137 0.4609
C6 C 0.15905(12) 0.0627(3) 0.3845(4)
H7 H 0.1468 0.0061 0.4509
C7 C 0.11963(10) 0.1415(2) 0.2787(3)
C8 C 0.29557(10) 0.1478(2) 0.2943(3)
C9 C 0.05802(10) 0.12984(19) 0.2633(3)
C10 C 0.03975(11) 0.1257(2) 0.4157(4)
H8 H 0.0664 0.1222 0.5268
C11 C 0.01773(11) 0.1267(2) 0.0980(4)
H9 H 0.0295 0.1254 -0.0040
O1A O -0.06586(7) 0.37671(13) 0.36756(19)
O2A O -0.09683(7) 0.31912(16) 0.5946(2)
O3A O -0.31187(8) 0.23645(19) 0.2895(3)
H1A H -0.3401 0.2153 0.3223
O4A O -0.32633(8) 0.0658(2) 0.1398(3)
C1A C -0.09787(9) 0.31555(18) 0.4335(3)
C2A C -0.13937(9) 0.22989(19) 0.3152(3)
C3A C -0.19690(10) 0.2353(2) 0.3054(3)
H5A H -0.2099 0.2940 0.3667
C4A C -0.23514(10) 0.1536(2) 0.2047(3)
C5A C -0.21576(12) 0.0677(3) 0.1083(4)
H6A H -0.2413 0.0137 0.0391
C6A C -0.15905(12) 0.0627(3) 0.1155(4)
H7A H -0.1468 0.0061 0.0491
C7A C -0.11963(10) 0.1415(2) 0.2213(3)
C8A C -0.29557(10) 0.1478(2) 0.2057(3)
C9A C -0.05802(10) 0.12984(19) 0.2367(3)
C10A C -0.03975(11) 0.1257(2) 0.0843(4)
H8A H -0.0664 0.1222 -0.0268
C11A C -0.01773(11) 0.1267(2) 0.4020(4)
H9A H -0.0295 0.1254 0.5040
H4A H -0.0297 0.3810 -0.2640
O5D O -0.06314(7) 0.39057(14) 0.0225(2)
H2D H -0.0952 0.4182 -0.0373
H3D H -0.067(2) 0.373(5) 0.129(7)
Co1A Co 0.0000 0.5000 -0.5000
Co1A_2 Co 0.0000 0.5000 0.5000
O1D O -0.06586(7) 0.62329(13) -0.13244(19)
O6D O 0.0000 0.57676(18) 0.2500
loop_
_geom_bond_atom_site_label_1
_geom_bond_atom_site_label_2
_geom_bond_site_symmetry_1
_geom_bond_site_symmetry_2
Co1 O1 1_555 1_555
O1 C1 1_555 1_555
O2 C1 1_555 1_555
O3 H1 1_555 1_555
O4 C8 1_555 1_555
O5 Co1 1_555 1_555
H2 O5 1_555 1_555
H3 O5 1_555 1_555
O6 Co1 1_555 1_555
H4 O6 1_555 1_555
C1 C2 1_555 1_555
C2 C3 1_555 1_555
C3 H5 1_555 1_555
C4 C3 1_555 1_555
C5 C4 1_555 1_555
H6 C5 1_555 1_555
C6 C5 1_555 1_555
H7 C6 1_555 1_555
C7 C2 1_555 1_555
C8 O3 1_555 1_555
C9 C7 1_555 1_555
C10 C9 1_555 1_555
H8 C10 1_555 1_555
C11 C9 1_555 1_555
H9 C11 1_555 1_555
O1A C1A 1_555 1_555
O2A C1A 1_555 1_555
O3A H1A 1_555 1_555
O4A C8A 1_555 1_555
C1A C2A 1_555 1_555
C2A C3A 1_555 1_555
C3A H5A 1_555 1_555
C4A C3A 1_555 1_555
C5A C4A 1_555 1_555
H6A C5A 1_555 1_555
C6A C5A 1_555 1_555
H7A C6A 1_555 1_555
C7A C2A 1_555 1_555
C8A O3A 1_555 1_555
C9A C7A 1_555 1_555
C10A C11 1_555 1_555
H8A C10A 1_555 1_555
C11A C10 1_555 1_555
H9A C11A 1_555 1_555
H4A O6 1_555 1_555
O5D Co1 1_555 1_555
H2D O5D 1_555 1_555
H3D O5D 1_555 1_555
Co1A O6 1_555 1_555
Co1A_2 O1A 1_555 1_555
O1D Co1 1_555 1_555
O6D Co1 1_555 1_555
C4 C8 1_555 1_555
C6 C7 1_555 1_555
C4A C8A 1_555 1_555
C6A C7A 1_555 1_555
C9A C10A 1_555 1_555
C9A C11A 1_555 1_555
Co1A_2 O6D 1_555 1_555

#END
