
#######################################################################
#
#                 Cambridge Crystallographic Data Centre
#                                CCDC 
#
#######################################################################
#
# If this CIF has been generated from an entry in the Cambridge 
# Structural Database, then it will include bibliographic, chemical, 
# crystal, experimental, refinement or atomic coordinate data resulting 
# from the CCDC's data processing and validation procedures.
#
#######################################################################

data_COWSAK
_symmetry_cell_setting           triclinic
_symmetry_space_group_name_H-M   'P -1'
_symmetry_Int_Tables_number      2
_space_group_name_Hall           '-P 1'
loop_
_symmetry_equiv_pos_site_id
_symmetry_equiv_pos_as_xyz
1 x,y,z
2 -x,-y,-z
_cell_length_a                   9.3017(6)
_cell_length_b                   10.2884(7)
_cell_length_c                   10.4216(7)
_cell_angle_alpha                84.7190(10)
_cell_angle_beta                 76.5330(10)
_cell_angle_gamma                69.9570(10)
_cell_volume                     911.096
loop_
_atom_site_label
_atom_site_type_symbol
_atom_site_fract_x
_atom_site_fract_y
_atom_site_fract_z
Ni1 Ni 0.5000 0.0000 0.5000
O1 O 0.65795(16) 0.03730(16) 0.34554(14)
O2 O 0.82684(18) 0.06632(18) 0.45124(15)
O3 O 1.34953(17) -0.0022(2) 0.12423(16)
O4 O 1.33676(18) 0.0955(2) -0.07448(16)
H1 H 1.4325 0.0647 -0.0849
O5 O 0.22517(18) 0.73533(19) 0.30162(17)
O6 O 0.0647(2) 0.7491(2) 0.49973(17)
H2 H 0.1015 0.8077 0.5120
O7 O -0.46639(17) 0.80878(17) 0.41455(16)
O8 O -0.47093(19) 0.6655(2) 0.2701(2)
H3 H -0.5659 0.7009 0.2957
O9 O 0.33016(18) 0.08420(18) 0.39300(16)
H4 H 0.2577 0.0539 0.4211
H5 H 0.357(4) 0.079(4) 0.3108(17)
C1 C 0.7718(2) 0.0746(2) 0.3502(2)
C2 C 0.8523(2) 0.1270(2) 0.2236(2)
C3 C 1.0157(2) 0.0782(2) 0.1930(2)
H6 H 1.0700 0.0233 0.2540
C4 C 1.0985(2) 0.1106(2) 0.0724(2)
C5 C 1.2728(2) 0.0623(2) 0.0438(2)
C6 C 1.0176(2) 0.1911(2) -0.0194(2)
H7 H 1.0719 0.2096 -0.1020
C7 C 0.8546(2) 0.2439(2) 0.0130(2)
H8 H 0.8013 0.2998 -0.0480
C8 C 0.7693(2) 0.2153(2) 0.1341(2)
C9 C 0.5969(2) 0.2875(2) 0.1670(2)
C10 C 0.5207(2) 0.3430(2) 0.2910(2)
H9 H 0.5780 0.3314 0.3559
C11 C 0.3618(3) 0.4150(2) 0.3200(2)
H10 H 0.3138 0.4499 0.4042
C12 C 0.2725(2) 0.4360(2) 0.2255(2)
C13 C 0.3484(3) 0.3810(3) 0.1004(2)
H11 H 0.2911 0.3935 0.0354
C14 C 0.5075(3) 0.3083(3) 0.0714(2)
H12 H 0.5555 0.2728 -0.0127
C15 C 0.1007(2) 0.5110(2) 0.2557(2)
C16 C 0.0292(2) 0.6288(2) 0.3356(2)
C17 C 0.1194(2) 0.7069(2) 0.3780(2)
C18 C -0.1328(2) 0.6890(2) 0.3660(2)
H13 H -0.1791 0.7631 0.4236
C19 C -0.2265(2) 0.6399(2) 0.3112(2)
C20 C -0.3984(2) 0.7140(2) 0.3386(2)
C21 C -0.1577(3) 0.5254(3) 0.2314(3)
H14 H -0.2194 0.4915 0.1943
C22 C 0.0032(3) 0.4610(3) 0.2064(3)
H15 H 0.0475 0.3820 0.1551
O1A O -0.65795(16) 0.96270(16) 0.65446(14)
O2A O -0.82684(18) 0.93368(18) 0.54876(15)
O3A O -1.34953(17) 1.0022(2) 0.87577(16)
O4A O -1.33676(18) 0.9045(2) 1.07448(16)
H1A H -1.4325 0.9353 1.0849
O5A O -0.22517(18) 0.26467(19) 0.69838(17)
O6A O -0.0647(2) 0.2509(2) 0.50027(17)
H2A H -0.1015 0.1923 0.4880
O7A O 0.46639(17) 0.19122(17) 0.58545(16)
O8A O 0.47093(19) 0.3345(2) 0.7299(2)
H3A H 0.5659 0.2991 0.7043
C1A C -0.7718(2) 0.9254(2) 0.6498(2)
C2A C -0.8523(2) 0.8730(2) 0.7764(2)
C3A C -1.0157(2) 0.9218(2) 0.8070(2)
H6A H -1.0700 0.9767 0.7460
C4A C -1.0985(2) 0.8894(2) 0.9276(2)
C5A C -1.2728(2) 0.9377(2) 0.9562(2)
C6A C -1.0176(2) 0.8089(2) 1.0194(2)
H7A H -1.0719 0.7904 1.1020
C7A C -0.8546(2) 0.7561(2) 0.9870(2)
H8A H -0.8013 0.7002 1.0480
C8A C -0.7693(2) 0.7847(2) 0.8659(2)
C9A C -0.5969(2) 0.7125(2) 0.8330(2)
C10A C -0.5207(2) 0.6570(2) 0.7090(2)
H9A H -0.5780 0.6686 0.6441
C11A C -0.3618(3) 0.5850(2) 0.6800(2)
H10A H -0.3138 0.5501 0.5958
C12A C -0.2725(2) 0.5640(2) 0.7745(2)
C13A C -0.3484(3) 0.6190(3) 0.8996(2)
H11A H -0.2911 0.6065 0.9646
C14A C -0.5075(3) 0.6917(3) 0.9286(2)
H12A H -0.5555 0.7272 1.0127
C15A C -0.1007(2) 0.4890(2) 0.7443(2)
C16A C -0.0292(2) 0.3712(2) 0.6644(2)
C17A C -0.1194(2) 0.2931(2) 0.6220(2)
C18A C 0.1328(2) 0.3110(2) 0.6340(2)
H13A H 0.1791 0.2369 0.5764
C19A C 0.2265(2) 0.3601(2) 0.6888(2)
C20A C 0.3984(2) 0.2860(2) 0.6614(2)
C21A C 0.1577(3) 0.4746(3) 0.7686(3)
H14A H 0.2194 0.5085 0.8057
C22A C -0.0032(3) 0.5390(3) 0.7936(3)
H15A H -0.0475 0.6180 0.8449
O9A O 0.66984(18) -0.08420(18) 0.60700(16)
H4A H 0.7423 -0.0539 0.5789
H5A H 0.643(4) -0.079(4) 0.6892(17)
Ni1_2 Ni -0.5000 1.0000 0.5000
O1A_2 O 0.34205(16) -0.03730(16) 0.65446(14)
O7_2 O 0.53361(17) -0.19122(17) 0.41455(16)
loop_
_geom_bond_atom_site_label_1
_geom_bond_atom_site_label_2
_geom_bond_site_symmetry_1
_geom_bond_site_symmetry_2
Ni1 O1 1_555 1_555
O1 C1 1_555 1_555
O2 C1 1_555 1_555
O3 C5 1_555 1_555
O4 H1 1_555 1_555
O5 C17 1_555 1_555
O6 H2 1_555 1_555
O7 C20 1_555 1_555
O8 H3 1_555 1_555
O9 Ni1 1_555 1_555
H4 O9 1_555 1_555
H5 O9 1_555 1_555
C1 C2 1_555 1_555
C2 C3 1_555 1_555
C3 H6 1_555 1_555
C4 C3 1_555 1_555
C5 O4 1_555 1_555
C6 C4 1_555 1_555
H7 C6 1_555 1_555
C7 C6 1_555 1_555
H8 C7 1_555 1_555
C8 C2 1_555 1_555
C9 C8 1_555 1_555
C10 C9 1_555 1_555
H9 C10 1_555 1_555
C11 C10 1_555 1_555
H10 C11 1_555 1_555
C12 C11 1_555 1_555
C13 C12 1_555 1_555
H11 C13 1_555 1_555
C14 C9 1_555 1_555
H12 C14 1_555 1_555
C15 C12 1_555 1_555
C16 C15 1_555 1_555
C17 O6 1_555 1_555
C18 C16 1_555 1_555
H13 C18 1_555 1_555
C19 C18 1_555 1_555
C20 O8 1_555 1_555
C21 C19 1_555 1_555
H14 C21 1_555 1_555
C22 C15 1_555 1_555
H15 C22 1_555 1_555
O1A C1A 1_555 1_555
O2A C1A 1_555 1_555
O3A C5A 1_555 1_555
O4A H1A 1_555 1_555
O5A C17A 1_555 1_555
O6A H2A 1_555 1_555
O7A Ni1 1_555 1_555
O8A H3A 1_555 1_555
C1A C2A 1_555 1_555
C2A C3A 1_555 1_555
C3A H6A 1_555 1_555
C4A C3A 1_555 1_555
C5A O4A 1_555 1_555
C6A C4A 1_555 1_555
H7A C6A 1_555 1_555
C7A C6A 1_555 1_555
H8A C7A 1_555 1_555
C8A C2A 1_555 1_555
C9A C8A 1_555 1_555
C10A C9A 1_555 1_555
H9A C10A 1_555 1_555
C11A C10A 1_555 1_555
H10A C11A 1_555 1_555
C12A C11A 1_555 1_555
C13A C12A 1_555 1_555
H11A C13A 1_555 1_555
C14A C9A 1_555 1_555
H12A C14A 1_555 1_555
C15A C12A 1_555 1_555
C16A C15A 1_555 1_555
C17A O6A 1_555 1_555
C18A C16A 1_555 1_555
H13A C18A 1_555 1_555
C19A C18A 1_555 1_555
C20A O7A 1_555 1_555
C21A C19A 1_555 1_555
H14A C21A 1_555 1_555
C22A C15A 1_555 1_555
H15A C22A 1_555 1_555
O9A Ni1 1_555 1_555
H4A O9A 1_555 1_555
H5A O9A 1_555 1_555
Ni1_2 O7 1_555 1_555
O1A_2 Ni1 1_555 1_555
O7_2 Ni1 1_555 1_555
C4 C5 1_555 1_555
C7 C8 1_555 1_555
C13 C14 1_555 1_555
C16 C17 1_555 1_555
C19 C20 1_555 1_555
C21 C22 1_555 1_555
O1A Ni1_2 1_555 1_555
O8A C20A 1_555 1_555
C4A C5A 1_555 1_555
C7A C8A 1_555 1_555
C13A C14A 1_555 1_555
C16A C17A 1_555 1_555
C19A C20A 1_555 1_555
C21A C22A 1_555 1_555

#END
