
#######################################################################
#
#                 Cambridge Crystallographic Data Centre
#                                CCDC 
#
#######################################################################
#
# If this CIF has been generated from an entry in the Cambridge 
# Structural Database, then it will include bibliographic, chemical, 
# crystal, experimental, refinement or atomic coordinate data resulting 
# from the CCDC's data processing and validation procedures.
#
#######################################################################

data_COWTUE
_symmetry_cell_setting           monoclinic
_symmetry_space_group_name_H-M   'P 21/c'
_symmetry_Int_Tables_number      14
_space_group_name_Hall           '-P 2ybc'
loop_
_symmetry_equiv_pos_site_id
_symmetry_equiv_pos_as_xyz
1 x,y,z
2 -x,1/2+y,1/2-z
3 -x,-y,-z
4 x,1/2-y,1/2+z
_cell_length_a                   10.0074(3)
_cell_length_b                   13.9437(4)
_cell_length_c                   7.0100(2)
_cell_angle_alpha                90
_cell_angle_beta                 98.0750(10)
_cell_angle_gamma                90
_cell_volume                     968.478
loop_
_atom_site_label
_atom_site_type_symbol
_atom_site_fract_x
_atom_site_fract_y
_atom_site_fract_z
Cu1 Cu 0.5000 0.5000 0.5000
O1 O 0.48941(13) 0.35774(9) 0.51817(18)
O2 O 0.54186(15) 0.14774(9) 0.50171(19)
O3 O 0.81999(16) 0.12388(10) 0.4362(3)
O4 O 0.94396(16) 0.31672(10) 0.4267(3)
O5 O 0.73063(15) 0.45692(9) 0.4733(2)
O6 O 0.55581(16) 0.51074(9) 0.7781(2)
H1 H 0.544(2) 0.4516(10) 0.841(3)
H2 H 0.514(2) 0.5641(11) 0.831(3)
C1 C 0.59852(19) 0.31596(12) 0.4969(3)
C2 C 0.62393(19) 0.21439(12) 0.4882(3)
C3 C 0.76504(19) 0.20161(13) 0.4559(3)
C4 C 0.8271(2) 0.29809(13) 0.4495(3)
C5 C 0.7214(2) 0.36779(13) 0.4739(3)
Cu2 Cu 1.0000 0.0000 0.5000
N1 N 1.08602(18) 0.05308(14) 0.2800(3)
H3 H 1.1034 0.0053 0.2008
H4 H 1.0298 0.0950 0.2121
N2 N 1.12939(18) 0.08633(13) 0.6650(3)
H5 H 1.0853 0.1188 0.7479
H6 H 1.1944 0.0510 0.7337
C6 C 1.2128(2) 0.10165(18) 0.3592(4)
H7 H 1.2389 0.1466 0.2655
H8 H 1.2844 0.0549 0.3882
C7 C 1.1906(3) 0.15435(17) 0.5407(4)
H9 H 1.2759 0.1779 0.6071
H10 H 1.1311 0.2087 0.5090
Cu1_2 Cu 1.5000 -0.5000 0.5000
O1B O 1.51059(13) -0.35774(9) 0.48183(18)
O1B_2 O 0.51059(13) 0.64226(9) 0.48183(18)
O2B O 1.45814(15) -0.14774(9) 0.49829(19)
O3B O 1.18001(16) -0.12388(10) 0.5638(3)
O4B O 1.05604(16) -0.31672(10) 0.5733(3)
O5B O 1.26937(15) -0.45692(9) 0.5267(2)
O5B_2 O 0.26937(15) 0.54308(9) 0.5267(2)
O6B O 0.44419(16) 0.48926(9) 0.2219(2)
H1B H 0.456(2) 0.5484(10) 0.159(3)
H2B H 0.486(2) 0.4359(11) 0.169(3)
C1B C 1.40148(19) -0.31596(12) 0.5031(3)
C2B C 1.37607(19) -0.21439(12) 0.5118(3)
C3B C 1.23496(19) -0.20161(13) 0.5441(3)
C4B C 1.1729(2) -0.29809(13) 0.5505(3)
C5B C 1.2786(2) -0.36779(13) 0.5261(3)
N1B N 0.91398(18) -0.05308(14) 0.7200(3)
H3B H 0.8966 -0.0053 0.7992
H4B H 0.9702 -0.0950 0.7879
N2B N 0.87061(18) -0.08633(13) 0.3350(3)
H5B H 0.9147 -0.1188 0.2521
H6B H 0.8056 -0.0510 0.2663
C6B C 0.7872(2) -0.10165(18) 0.6408(4)
H7B H 0.7611 -0.1466 0.7345
H8B H 0.7156 -0.0549 0.6118
C7B C 0.8094(3) -0.15435(17) 0.4593(4)
H9B H 0.7241 -0.1779 0.3929
H10B H 0.8689 -0.2087 0.4910
loop_
_geom_bond_atom_site_label_1
_geom_bond_atom_site_label_2
_geom_bond_site_symmetry_1
_geom_bond_site_symmetry_2
Cu1 O1 1_555 1_555
O1 C1 1_555 1_555
O2 C2 1_555 1_555
O3 C3 1_555 1_555
O4 C4 1_555 1_555
O5 Cu1 1_555 1_555
O6 Cu1 1_555 1_555
H1 O6 1_555 1_555
H2 O6 1_555 1_555
C1 C2 1_555 1_555
C2 C3 1_555 1_555
C3 C4 1_555 1_555
C4 C5 1_555 1_555
C5 O5 1_555 1_555
Cu2 O3 1_555 1_555
N1 Cu2 1_555 1_555
H3 N1 1_555 1_555
H4 N1 1_555 1_555
N2 Cu2 1_555 1_555
H5 N2 1_555 1_555
H6 N2 1_555 1_555
C6 N1 1_555 1_555
H7 C6 1_555 1_555
H8 C6 1_555 1_555
C7 N2 1_555 1_555
H9 C7 1_555 1_555
H10 C7 1_555 1_555
Cu1_2 O1B 1_555 1_555
O1B C1B 1_555 1_555
O1B_2 Cu1 1_555 1_555
O2B C2B 1_555 1_555
O3B Cu2 1_555 1_555
O4B C4B 1_555 1_555
O5B Cu1_2 1_555 1_555
O5B_2 Cu1 1_555 1_555
O6B Cu1 1_555 1_555
H1B O6B 1_555 1_555
H2B O6B 1_555 1_555
C1B C2B 1_555 1_555
C2B C3B 1_555 1_555
C3B O3B 1_555 1_555
C4B C3B 1_555 1_555
C5B O5B 1_555 1_555
N1B Cu2 1_555 1_555
H3B N1B 1_555 1_555
H4B N1B 1_555 1_555
N2B Cu2 1_555 1_555
H5B N2B 1_555 1_555
H6B N2B 1_555 1_555
C6B N1B 1_555 1_555
H7B C6B 1_555 1_555
H8B C6B 1_555 1_555
C7B N2B 1_555 1_555
H9B C7B 1_555 1_555
H10B C7B 1_555 1_555
C1 C5 1_555 1_555
C6 C7 1_555 1_555
C1B C5B 1_555 1_555
C4B C5B 1_555 1_555
C6B C7B 1_555 1_555

#END
