
#######################################################################
#
#                 Cambridge Crystallographic Data Centre
#                                CCDC 
#
#######################################################################
#
# If this CIF has been generated from an entry in the Cambridge 
# Structural Database, then it will include bibliographic, chemical, 
# crystal, experimental, refinement or atomic coordinate data resulting 
# from the CCDC's data processing and validation procedures.
#
#######################################################################

data_COWVEQ
_symmetry_cell_setting           triclinic
_symmetry_space_group_name_H-M   'P -1'
_symmetry_Int_Tables_number      2
_space_group_name_Hall           '-P 1'
loop_
_symmetry_equiv_pos_site_id
_symmetry_equiv_pos_as_xyz
1 x,y,z
2 -x,-y,-z
_cell_length_a                   7.1324(13)
_cell_length_b                   10.2575(18)
_cell_length_c                   15.589(3)
_cell_angle_alpha                80.826(3)
_cell_angle_beta                 79.755(3)
_cell_angle_gamma                76.877(3)
_cell_volume                     1084.54
loop_
_atom_site_label
_atom_site_type_symbol
_atom_site_fract_x
_atom_site_fract_y
_atom_site_fract_z
Cu1 Cu 0.39582(14) 0.37224(10) -0.02927(6)
Tb1 Tb 0.35209(5) 0.21997(3) 0.26235(2)
Tb2 Tb 0.73480(5) -0.19373(4) 0.36653(2)
S1 S 0.6327(3) 0.14356(19) 0.44660(12)
C1 C 0.0531(12) 0.5062(8) 0.2933(5)
C2 C 0.1082(12) 0.5214(8) 0.1948(5)
C3 C 0.0427(12) 0.6222(8) 0.1298(5)
H1 H -0.0491 0.7018 0.1360
C4 C 0.1485(11) 0.5745(8) 0.0534(5)
C5 C 0.1508(12) 0.6218(8) -0.0410(5)
C6 C 0.6475(11) 0.1710(8) -0.1164(5)
C7 C 0.6478(11) 0.1248(8) -0.0212(5)
C8 C 0.7381(11) 0.0132(9) 0.0303(5)
H2 H 0.8305 -0.0609 0.0124
C9 C 0.6562(11) 0.0393(8) 0.1157(5)
C10 C 0.6807(12) -0.0378(8) 0.2017(5)
N1 N 0.2415(10) 0.4211(7) 0.1599(4)
N2 N 0.2647(10) 0.4561(7) 0.0735(4)
N3 N 0.5224(10) 0.2088(7) 0.0315(4)
N4 N 0.5288(10) 0.1583(7) 0.1153(4)
O1 O -0.0633(9) 0.5988(6) 0.3293(4)
O2 O 0.1330(8) 0.3944(6) 0.3328(4)
O3 O 0.0446(9) 0.7289(6) -0.0655(4)
O4 O 0.2684(8) 0.5417(6) -0.0920(4)
O5 O 0.5298(8) 0.2858(6) -0.1344(4)
O6 O 0.7532(9) 0.1066(7) -0.1727(4)
O7 O 0.8023(9) -0.1448(6) 0.2113(4)
O8 O 0.5714(8) 0.0083(6) 0.2697(4)
O9 O 0.6074(10) 0.3343(7) 0.2491(4)
H3 H 0.7226 0.3434 0.2498
H4 H 0.5570 0.3974 0.2123
O10 O 0.1089(9) 0.1538(6) 0.2042(4)
H5 H 0.0678 0.1956 0.1573
H6 H 0.1372 0.0699 0.1992
O11 O 0.1527(8) 0.0897(6) 0.3768(4)
H7 H 0.0348 0.1298 0.3897
H8 H 0.2013 0.0666 0.4243
O12 O 0.4648(8) 0.1828(6) 0.3990(3)
O13 O 0.5634(8) 0.1659(6) 0.5394(4)
O14 O 0.7764(9) 0.2264(6) 0.4075(4)
O15 O 0.7247(8) -0.0011(6) 0.4424(4)
O16 O 0.5198(10) -0.2983(7) 0.3127(4)
H9 H 0.5257 -0.3043 0.2584
H10 H 0.5451 -0.3780 0.3392
O17 O 1.0523(9) -0.1454(7) 0.3361(4)
H11 H 1.1435 -0.1652 0.2939
H12 H 1.0977 -0.1112 0.3720
O18 O 0.8810(12) -0.3060(8) 0.4884(5)
H13 H 0.8986 -0.2853 0.5366
H14 H 0.8437 -0.3807 0.4996
Tb2_2 Tb -0.26520(5) 0.80627(4) 0.36653(2)
Tb2A Tb 0.26520(5) 0.19373(4) 0.63347(2)
O1_2 O 0.9367(9) -0.4012(6) 0.3293(4)
O13A O 0.4366(8) -0.1659(6) 0.4606(4)
O19 O 0.737(2) 0.4258(17) 0.5251(11)
H15 H 0.6198 0.4399 0.5501
H16 H 0.7406 0.3953 0.4771
loop_
_geom_bond_atom_site_label_1
_geom_bond_atom_site_label_2
_geom_bond_site_symmetry_1
_geom_bond_site_symmetry_2
Cu1 N2 1_555 1_555
Tb1 N1 1_555 1_555
Tb2 O7 1_555 1_555
S1 O12 1_555 1_555
C1 C2 1_555 1_555
C2 C3 1_555 1_555
C3 H1 1_555 1_555
C4 C3 1_555 1_555
C5 C4 1_555 1_555
C6 C7 1_555 1_555
C7 C8 1_555 1_555
C8 H2 1_555 1_555
C9 C8 1_555 1_555
C10 C9 1_555 1_555
N1 C2 1_555 1_555
N2 C4 1_555 1_555
N3 Cu1 1_555 1_555
N4 Tb1 1_555 1_555
O1 C1 1_555 1_555
O2 Tb1 1_555 1_555
O3 C5 1_555 1_555
O4 Cu1 1_555 1_555
O5 Cu1 1_555 1_555
O6 C6 1_555 1_555
O7 C10 1_555 1_555
O8 Tb1 1_555 1_555
O9 Tb1 1_555 1_555
H3 O9 1_555 1_555
H4 O9 1_555 1_555
O10 Tb1 1_555 1_555
H5 O10 1_555 1_555
H6 O10 1_555 1_555
O11 Tb1 1_555 1_555
H7 O11 1_555 1_555
H8 O11 1_555 1_555
O12 Tb1 1_555 1_555
O13 S1 1_555 1_555
O14 S1 1_555 1_555
O15 Tb2 1_555 1_555
O16 Tb2 1_555 1_555
H9 O16 1_555 1_555
H10 O16 1_555 1_555
O17 Tb2 1_555 1_555
H11 O17 1_555 1_555
H12 O17 1_555 1_555
O18 Tb2 1_555 1_555
H13 O18 1_555 1_555
H14 O18 1_555 1_555
O19 H15 1_555 1_555
H16 O19 1_555 1_555
Tb2_2 O1 1_555 1_555
Tb2A O13 1_555 1_555
O1_2 Tb2 1_555 1_555
O13A Tb2 1_555 1_555
Tb2 O8 1_555 1_555
S1 O15 1_555 1_555
C1 O2 1_555 1_555
C5 O4 1_555 1_555
C6 O5 1_555 1_555
C7 N3 1_555 1_555
C9 N4 1_555 1_555
C10 O8 1_555 1_555
N1 N2 1_555 1_555
N3 N4 1_555 1_555

#END
