
#######################################################################
#
#                 Cambridge Crystallographic Data Centre
#                                CCDC 
#
#######################################################################
#
# If this CIF has been generated from an entry in the Cambridge 
# Structural Database, then it will include bibliographic, chemical, 
# crystal, experimental, refinement or atomic coordinate data resulting 
# from the CCDC's data processing and validation procedures.
#
#######################################################################

data_COWWIV
_symmetry_cell_setting           monoclinic
_symmetry_space_group_name_H-M   'P 21/c'
_symmetry_Int_Tables_number      14
_space_group_name_Hall           '-P 2ybc'
loop_
_symmetry_equiv_pos_site_id
_symmetry_equiv_pos_as_xyz
1 x,y,z
2 -x,1/2+y,1/2-z
3 -x,-y,-z
4 x,1/2-y,1/2+z
_cell_length_a                   12.2024(18)
_cell_length_b                   6.7802(10)
_cell_length_c                   23.664(4)
_cell_angle_alpha                90
_cell_angle_beta                 94.750(2)
_cell_angle_gamma                90
_cell_volume                     1951.11
loop_
_atom_site_label
_atom_site_type_symbol
_atom_site_fract_x
_atom_site_fract_y
_atom_site_fract_z
Cu1 Cu 0.80021(9) 0.65501(17) 0.81108(4)
Dy1 Dy 0.62006(3) 0.65897(5) 0.967274(15)
Dy2 Dy 0.78942(3) 0.89945(6) 1.134566(14)
C1 C 0.4568(7) 0.3120(12) 0.8995(3)
C2 C 0.5300(7) 0.3747(13) 0.8566(4)
C3 C 0.5313(7) 0.3184(13) 0.8000(3)
H1 H 0.4840 0.2326 0.7793
C4 C 0.6201(7) 0.4207(12) 0.7822(3)
C5 C 0.6751(7) 0.4393(13) 0.7291(3)
C6 C 1.0180(6) 0.7537(13) 0.8422(3)
C7 C 0.9627(7) 0.7383(13) 0.8954(3)
C8 C 0.9919(7) 0.7579(12) 0.9533(3)
H2 H 1.0609 0.7854 0.9713
C9 C 0.8952(7) 0.7269(13) 0.9773(3)
C10 C 0.8642(6) 0.7409(12) 1.0354(3)
N1 N 0.6118(6) 0.4985(12) 0.8714(3)
N2 N 0.6656(6) 0.5263(11) 0.8257(3)
N3 N 0.8536(6) 0.6980(10) 0.8879(3)
N4 N 0.8100(5) 0.6906(10) 0.9376(3)
O1 O 0.3918(5) 0.1730(9) 0.8876(3)
O2 O 0.4665(5) 0.4014(8) 0.9470(2)
O3 O 0.6482(5) 0.3500(9) 0.6851(2)
O4 O 0.7557(5) 0.5654(9) 0.7325(2)
O5 O 0.9574(5) 0.7025(11) 0.7980(3)
O6 O 1.1119(5) 0.8135(9) 0.8405(3)
O7 O 0.9302(5) 0.8046(10) 1.0746(2)
O8 O 0.7661(4) 0.7012(9) 1.0450(2)
O9 O 0.7477(6) 0.9812(12) 0.7917(3)
H3 H 0.7267 0.8632 0.7913
H4 H 0.7279 1.0338 0.8215
O10 O 0.5851(7) 0.8919(12) 0.8742(3)
H5 H 0.5558 0.7945 0.8566
H6 H 0.5339 0.9631 0.8847
O11 O 0.6902(5) 0.3399(8) 0.9862(3)
O12 O 0.7466(5) 0.1270(9) 1.0641(2)
O13 O 0.6517(5) -0.0018(9) 0.9790(2)
O14 O 0.5552(5) 0.1958(9) 1.0430(3)
O15 O 0.9610(6) 0.7996(11) 1.1868(3)
H7 H 1.0294 0.8079 1.1840
H8 H 0.9520 0.7495 1.2188
O16 O 0.7641(6) 0.5647(11) 1.1672(3)
H9 H 0.7889 0.4581 1.1553
H10 H 0.7184 0.5369 1.1909
S1 S 0.65896(16) 0.1664(3) 1.01840(9)
Dy1B Dy 0.37994(3) 0.34103(5) 1.032726(15)
Dy1_2 Dy 0.62006(3) -0.34103(5) 0.967274(15)
Dy2B Dy 0.21058(3) 0.10055(6) 0.865434(14)
Dy2C Dy 0.78942(3) 0.60055(6) 0.634566(14)
Dy2B_2 Dy 1.21058(3) 1.10055(6) 0.865434(14)
Dy2_2 Dy 0.78942(3) -0.10055(6) 1.134566(14)
O1B O 0.6082(5) 0.8270(9) 1.1124(3)
O2B O 0.5335(5) 0.5986(8) 1.0530(2)
O3C O 0.6482(5) 1.1500(9) 1.1851(2)
O4C O 0.7557(5) 0.9346(9) 1.2325(2)
O6B O 0.8881(5) 1.1865(9) 1.1595(3)
O12_2 O 0.7466(5) 1.1270(9) 1.0641(2)
O13_2 O 0.6517(5) 0.9982(9) 0.9790(2)
O14B O 0.4448(5) 0.8042(9) 0.9570(3)
O17 O 0.8416(7) 0.2073(13) 0.8847(3)
H11 H 0.8036 0.2404 0.9114
H12 H 0.9086 0.2244 0.8961
loop_
_geom_bond_atom_site_label_1
_geom_bond_atom_site_label_2
_geom_bond_site_symmetry_1
_geom_bond_site_symmetry_2
Cu1 N2 1_555 1_555
Dy1 N1 1_555 1_555
Dy2 O7 1_555 1_555
C1 C2 1_555 1_555
C2 C3 1_555 1_555
C3 H1 1_555 1_555
C4 C3 1_555 1_555
C5 C4 1_555 1_555
C6 C7 1_555 1_555
C7 C8 1_555 1_555
C8 H2 1_555 1_555
C9 C8 1_555 1_555
C10 C9 1_555 1_555
N1 C2 1_555 1_555
N2 C4 1_555 1_555
N3 Cu1 1_555 1_555
N4 Dy1 1_555 1_555
O1 C1 1_555 1_555
O2 Dy1 1_555 1_555
O3 C5 1_555 1_555
O4 Cu1 1_555 1_555
O5 Cu1 1_555 1_555
O6 C6 1_555 1_555
O7 C10 1_555 1_555
O8 Dy1 1_555 1_555
O9 Cu1 1_555 1_555
H3 O9 1_555 1_555
H4 O9 1_555 1_555
O10 Dy1 1_555 1_555
H5 O10 1_555 1_555
H6 O10 1_555 1_555
O11 Dy1 1_555 1_555
O12 S1 1_555 1_555
O13 S1 1_555 1_555
O14 S1 1_555 1_555
O15 Dy2 1_555 1_555
H7 O15 1_555 1_555
H8 O15 1_555 1_555
O16 Dy2 1_555 1_555
H9 O16 1_555 1_555
H10 O16 1_555 1_555
O17 H11 1_555 1_555
H12 O17 1_555 1_555
S1 O11 1_555 1_555
Dy1B O2 1_555 1_555
Dy1_2 O13 1_555 1_555
Dy2B O1 1_555 1_555
Dy2C O3 1_555 1_555
Dy2B_2 O6 1_555 1_555
Dy2_2 O12 1_555 1_555
O1B Dy2 1_555 1_555
O2B Dy1 1_555 1_555
O3C Dy2 1_555 1_555
O4C Dy2 1_555 1_555
O6B Dy2 1_555 1_555
O12_2 Dy2 1_555 1_555
O13_2 Dy1 1_555 1_555
O14B Dy1 1_555 1_555
Dy2 O8 1_555 1_555
C1 O2 1_555 1_555
C5 O4 1_555 1_555
C6 O5 1_555 1_555
C7 N3 1_555 1_555
C9 N4 1_555 1_555
C10 O8 1_555 1_555
N1 N2 1_555 1_555
N3 N4 1_555 1_555
O4 Dy2C 1_555 1_555
O14 Dy1B 1_555 1_555
Dy1B O2B 1_555 1_555

#END
