
#######################################################################
#
#                 Cambridge Crystallographic Data Centre
#                                CCDC 
#
#######################################################################
#
# If this CIF has been generated from an entry in the Cambridge 
# Structural Database, then it will include bibliographic, chemical, 
# crystal, experimental, refinement or atomic coordinate data resulting 
# from the CCDC's data processing and validation procedures.
#
#######################################################################

data_COWWOC
_symmetry_cell_setting           monoclinic
_symmetry_space_group_name_H-M   'C c'
_symmetry_Int_Tables_number      9
_space_group_name_Hall           'C -2yc'
loop_
_symmetry_equiv_pos_site_id
_symmetry_equiv_pos_as_xyz
1 x,y,z
2 x,-y,1/2+z
3 1/2+x,1/2+y,z
4 1/2+x,1/2-y,1/2+z
_cell_length_a                   18.836(2)
_cell_length_b                   5.9540(7)
_cell_length_c                   20.414(2)
_cell_angle_alpha                90
_cell_angle_beta                 97.4300(10)
_cell_angle_gamma                90
_cell_volume                     2270.2
loop_
_atom_site_label
_atom_site_type_symbol
_atom_site_fract_x
_atom_site_fract_y
_atom_site_fract_z
Co1 Co 0.430983(18) 0.70538(5) 0.467026(15)
S1 S 0.43119(4) 0.33581(12) 0.20737(3)
O1 O 0.42165(19) 0.2591(5) 0.34626(12)
O2 O 0.39841(12) 0.6139(4) 0.37330(9)
O3 O 0.45052(12) 0.5994(3) 0.03489(9)
O4 O 0.45655(12) 0.2519(3) 0.07151(9)
O5 O 0.42077(16) 1.0450(3) 0.45534(9)
H1 H 0.4132 1.0767 0.4144
H2 H 0.4306 1.1327 0.4881
N1 N 0.32154(15) 0.6794(4) 0.49196(12)
N2 N 0.17395(15) 0.3271(5) 0.65158(13)
N3 N 0.19321(15) 0.1484(6) 0.78448(12)
N4 N 0.03849(15) -0.1791(4) 0.94073(13)
C1 C 0.42692(16) 0.5368(5) 0.26684(13)
C2 C 0.43629(18) 0.7499(5) 0.24302(14)
H3 H 0.4360 0.8798 0.2683
C3 C 0.44642(17) 0.7476(5) 0.17553(13)
H4 H 0.4531 0.8766 0.1514
C4 C 0.44529(15) 0.5362(5) 0.14964(13)
C5 C 0.41471(16) 0.4642(6) 0.33443(13)
C6 C 0.45220(16) 0.4610(5) 0.08181(13)
C7 C 0.2860(2) 0.4819(6) 0.48332(15)
H5 H 0.2994 0.3806 0.4525
C8 C 0.23102(19) 0.4244(6) 0.51804(16)
H6 H 0.2087 0.2855 0.5110
C9 C 0.20853(19) 0.5717(6) 0.56349(15)
C10 C 0.2424(2) 0.7790(6) 0.57010(17)
H7 H 0.2277 0.8863 0.5986
C11 C 0.2979(2) 0.8254(6) 0.53433(17)
H8 H 0.3200 0.9649 0.5398
C12 C 0.1507(2) 0.5078(7) 0.60441(17)
H9 H 0.1375 0.6386 0.6285
H10 H 0.1086 0.4589 0.5754
C13 C 0.1135(2) 0.2624(8) 0.6867(2)
H11 H 0.0737 0.2136 0.6549
H12 H 0.0979 0.3919 0.7099
C14 C 0.1341(2) 0.0764(7) 0.73531(16)
H13 H 0.0933 0.0355 0.7572
H14 H 0.1485 -0.0548 0.7121
C15 C 0.2540(2) 0.2126(7) 0.75047(18)
H15 H 0.2705 0.0824 0.7282
H16 H 0.2930 0.2641 0.7827
C16 C 0.23371(19) 0.3960(7) 0.70068(17)
H17 H 0.2203 0.5296 0.7233
H18 H 0.2747 0.4329 0.6785
C17 C 0.2157(2) -0.0268(7) 0.83290(16)
H19 H 0.2568 0.0250 0.8626
H20 H 0.2298 -0.1596 0.8103
C18 C 0.06202(19) -0.3293(6) 0.89972(16)
H21 H 0.0384 -0.4663 0.8938
C19 C 0.1199(2) -0.2908(6) 0.86558(17)
H22 H 0.1348 -0.4012 0.8382
C20 C 0.15525(18) -0.0866(6) 0.87256(14)
C21 C 0.1324(2) 0.0653(7) 0.91624(16)
H23 H 0.1560 0.2019 0.9237
C22 C 0.0746(2) 0.0151(6) 0.94901(15)
H24 H 0.0601 0.1207 0.9781
Co1A Co 0.430983(18) 0.29462(5) -0.032974(15)
Co1C Co -0.069017(18) -0.20538(5) 0.967026(15)
O3A O 0.45052(12) 0.4006(3) 0.53489(9)
O4A O 0.45655(12) 0.7481(3) 0.57151(9)
N4C N 0.53849(15) 0.6791(4) 0.44073(13)
loop_
_geom_bond_atom_site_label_1
_geom_bond_atom_site_label_2
_geom_bond_site_symmetry_1
_geom_bond_site_symmetry_2
Co1 O2 1_555 1_555
S1 C1 1_555 1_555
O1 C5 1_555 1_555
O2 C5 1_555 1_555
O3 C6 1_555 1_555
O4 C6 1_555 1_555
O5 Co1 1_555 1_555
H1 O5 1_555 1_555
H2 O5 1_555 1_555
N1 Co1 1_555 1_555
N2 C12 1_555 1_555
N3 C14 1_555 1_555
N4 C18 1_555 1_555
C1 C2 1_555 1_555
C2 H3 1_555 1_555
C3 C2 1_555 1_555
H4 C3 1_555 1_555
C4 S1 1_555 1_555
C5 C1 1_555 1_555
C6 C4 1_555 1_555
C7 N1 1_555 1_555
H5 C7 1_555 1_555
C8 C7 1_555 1_555
H6 C8 1_555 1_555
C9 C8 1_555 1_555
C10 C9 1_555 1_555
H7 C10 1_555 1_555
C11 N1 1_555 1_555
H8 C11 1_555 1_555
C12 C9 1_555 1_555
H9 C12 1_555 1_555
H10 C12 1_555 1_555
C13 N2 1_555 1_555
H11 C13 1_555 1_555
H12 C13 1_555 1_555
C14 C13 1_555 1_555
H13 C14 1_555 1_555
H14 C14 1_555 1_555
C15 N3 1_555 1_555
H15 C15 1_555 1_555
H16 C15 1_555 1_555
C16 N2 1_555 1_555
H17 C16 1_555 1_555
H18 C16 1_555 1_555
C17 N3 1_555 1_555
H19 C17 1_555 1_555
H20 C17 1_555 1_555
C18 H21 1_555 1_555
C19 C18 1_555 1_555
H22 C19 1_555 1_555
C20 C17 1_555 1_555
C21 C20 1_555 1_555
H23 C21 1_555 1_555
C22 N4 1_555 1_555
H24 C22 1_555 1_555
Co1A O3 1_555 1_555
Co1C N4 1_555 1_555
O3A Co1 1_555 1_555
O4A Co1 1_555 1_555
N4C Co1 1_555 1_555
O4 Co1A 1_555 1_555
C3 C4 1_555 1_555
C10 C11 1_555 1_555
C15 C16 1_555 1_555
C19 C20 1_555 1_555
C21 C22 1_555 1_555

#END
