
#######################################################################
#
#                 Cambridge Crystallographic Data Centre
#                                CCDC 
#
#######################################################################
#
# If this CIF has been generated from an entry in the Cambridge 
# Structural Database, then it will include bibliographic, chemical, 
# crystal, experimental, refinement or atomic coordinate data resulting 
# from the CCDC's data processing and validation procedures.
#
#######################################################################

data_COWWOB
_symmetry_cell_setting           triclinic
_symmetry_space_group_name_H-M   'P -1'
_symmetry_Int_Tables_number      2
_space_group_name_Hall           '-P 1'
loop_
_symmetry_equiv_pos_site_id
_symmetry_equiv_pos_as_xyz
1 x,y,z
2 -x,-y,-z
_cell_length_a                   10.440(2)
_cell_length_b                   12.786(3)
_cell_length_c                   20.152(4)
_cell_angle_alpha                108.327(4)
_cell_angle_beta                 96.930(4)
_cell_angle_gamma                102.439(3)
_cell_volume                     2441.58
loop_
_atom_site_label
_atom_site_type_symbol
_atom_site_fract_x
_atom_site_fract_y
_atom_site_fract_z
C1 C 0.5229(4) 0.0168(4) 0.1915(2)
H1 H 0.4400 0.0242 0.2016
C2 C 0.5601(4) 0.0414(4) 0.1347(2)
H2 H 0.5047 0.0686 0.1083
C3 C 0.6789(4) 0.0266(3) 0.1157(2)
C4 C 0.7564(4) -0.0146(3) 0.1570(2)
H3 H 0.8360 -0.0291 0.1453
C5 C 0.7153(4) -0.0338(3) 0.2149(2)
H4 H 0.7702 -0.0594 0.2427
C6 C 0.7178(4) 0.0513(3) 0.0533(2)
C7 C 0.7915(4) 0.0251(3) -0.0464(2)
C8 C 0.7052(4) 0.1362(3) 0.0271(2)
C9 C 0.6537(4) 0.2357(3) 0.0569(2)
C10 C 0.6882(4) 0.2991(4) 0.1297(2)
H5 H 0.7443 0.2792 0.1604
C11 C 0.6382(4) 0.3916(4) 0.1557(2)
H6 H 0.6631 0.4338 0.2043
C12 C 0.5250(4) 0.3643(3) 0.0449(2)
H7 H 0.4692 0.3863 0.0154
C13 C 0.5721(4) 0.2712(4) 0.01414(19)
H8 H 0.5490 0.2326 -0.0350
C14 C 0.8429(4) -0.0293(3) -0.1094(2)
C15 C 0.8413(5) 0.0146(4) -0.1640(2)
H9 H 0.8136 0.0805 -0.1596
C16 C 0.8816(5) -0.0412(4) -0.2253(2)
H10 H 0.8790 -0.0109 -0.2616
C17 C 0.9271(5) -0.1733(4) -0.1824(3)
H11 H 0.9574 -0.2383 -0.1882
C18 C 0.8894(4) -0.1252(4) -0.1186(2)
H12 H 0.8952 -0.1567 -0.0829
C19 C 0.5259(4) 0.1929(4) 0.3632(2)
H13 H 0.5973 0.1995 0.3399
C20 C 0.4780(4) 0.2866(3) 0.3890(2)
H14 H 0.5164 0.3542 0.3821
C21 C 0.3733(4) 0.2818(4) 0.4250(2)
C22 C 0.3245(5) 0.1788(4) 0.4331(3)
H15 H 0.2543 0.1701 0.4570
C23 C 0.3771(5) 0.0893(4) 0.4068(3)
H16 H 0.3432 0.0218 0.4148
C24 C 0.3166(4) 0.3780(3) 0.4545(2)
C25 C 0.3179(4) 0.4711(3) 0.4344(2)
C26 C 0.2196(4) 0.4801(3) 0.5259(2)
C27 C 0.1534(4) 0.5251(3) 0.5850(2)
C28 C 0.1204(5) 0.6273(4) 0.5991(2)
H17 H 0.1369 0.6703 0.5700
C29 C 0.0629(5) 0.6648(4) 0.6565(3)
H18 H 0.0425 0.7346 0.6653
C30 C 0.0634(5) 0.5083(5) 0.6851(3)
H19 H 0.0428 0.4658 0.7141
C31 C 0.1219(5) 0.4637(4) 0.6292(3)
H20 H 0.1401 0.3932 0.6211
C32 C 0.3572(4) 0.4968(4) 0.3724(2)
C33 C 0.3133(4) 0.4138(3) 0.3051(2)
H21 H 0.2564 0.3432 0.2991
C34 C 0.3528(4) 0.4346(3) 0.2478(2)
H22 H 0.3238 0.3765 0.2033
C35 C 0.4747(4) 0.6156(4) 0.3175(2)
H23 H 0.5319 0.6853 0.3221
C36 C 0.4391(5) 0.6006(4) 0.3774(3)
H24 H 0.4697 0.6597 0.4213
C37 C 0.2905(4) -0.1888(3) 0.3088(2)
C38 C 0.1460(4) -0.2267(4) 0.2729(2)
C39 C 0.1085(4) -0.2738(4) 0.1991(2)
H25 H 0.1730 -0.2873 0.1718
C40 C -0.0226(4) -0.3005(4) 0.1662(2)
H26 H -0.0470 -0.3323 0.1167
C41 C -0.1202(4) -0.2802(4) 0.2067(2)
C42 C -0.0826(5) -0.2347(4) 0.2803(2)
H27 H -0.1467 -0.2214 0.3078
C43 C 0.0497(4) -0.2090(4) 0.3130(2)
H28 H 0.0740 -0.1795 0.3626
C44 C -0.2644(4) -0.3117(4) 0.1703(2)
C45 C 0.7734(4) 0.0051(4) 0.4046(2)
C46 C 0.8920(4) 0.0016(4) 0.4532(2)
C47 C 0.9946(4) 0.1014(3) 0.48923(19)
H29 H 0.9907 0.1691 0.4820
C48 C 0.8984(4) -0.0995(4) 0.4645(2)
H30 H 0.8299 -0.1661 0.4406
C49 C 0.2432(4) 0.4953(3) 0.0822(2)
C50 C 0.1166(4) 0.4979(3) 0.0401(2)
C51 C 0.1142(4) 0.5858(4) 0.0142(2)
H31 H 0.1920 0.6442 0.0239
C52 C 0.0010(4) 0.4117(3) 0.0255(2)
H32 H 0.0009 0.3519 0.0424
N1 N 0.6009(3) -0.0182(3) 0.23413(18)
N2 N 0.7771(3) -0.0181(3) 0.00714(17)
H33 H 0.8004 -0.0767 0.0111
N3 N 0.7491(3) 0.1179(3) -0.03576(18)
N4 N 0.9233(4) -0.1338(3) -0.2360(2)
N5 N 0.5556(3) 0.4244(3) 0.11484(18)
N6 N 0.4747(3) 0.0937(3) 0.37010(18)
N7 N 0.2551(4) 0.3845(3) 0.51172(18)
N8 N 0.2554(3) 0.5367(3) 0.48036(17)
H34 H 0.2413 0.6006 0.4806
N9 N 0.0341(4) 0.6089(4) 0.7007(2)
N10 N 0.4316(3) 0.5351(3) 0.25233(16)
O1 O 0.3734(3) -0.1622(2) 0.27082(15)
O2 O 0.3260(3) -0.1761(3) 0.37248(16)
O3 O -0.2959(3) -0.3282(3) 0.10627(15)
O4 O -0.3500(3) -0.3230(3) 0.20978(15)
O5 O 0.7684(3) 0.0972(3) 0.39736(16)
O6 O 0.6821(3) -0.0880(2) 0.37232(14)
O7 O 0.3401(3) 0.5845(3) 0.10321(16)
O8 O 0.2497(3) 0.4071(2) 0.09520(15)
Zn1 Zn 0.54076(4) -0.04742(4) 0.32117(2)
Zn2 Zn 0.48357(4) 0.56088(4) 0.16261(2)
C1A C 1.4771(4) -0.0168(4) 0.8085(2)
H1A H 1.5600 -0.0242 0.7984
C2A C 1.4399(4) -0.0414(4) 0.8653(2)
H2A H 1.4953 -0.0686 0.8917
C3A C 1.3211(4) -0.0266(3) 0.8843(2)
C4A C 1.2436(4) 0.0146(3) 0.8430(2)
H3A H 1.1640 0.0291 0.8547
C5A C 1.2847(4) 0.0338(3) 0.7851(2)
H4A H 1.2298 0.0594 0.7573
C6A C 1.2822(4) -0.0513(3) 0.9467(2)
C7A C 1.2085(4) -0.0251(3) 1.0464(2)
C8A C 1.2948(4) -0.1362(3) 0.9729(2)
C9A C 1.3463(4) -0.2357(3) 0.9431(2)
C10A C 1.3118(4) -0.2991(4) 0.8703(2)
H5A H 1.2557 -0.2792 0.8396
C11A C 1.3618(4) -0.3916(4) 0.8443(2)
H6A H 1.3369 -0.4338 0.7957
C12A C 1.4750(4) -0.3643(3) 0.9551(2)
H7A H 1.5308 -0.3863 0.9846
C13A C 1.4279(4) -0.2712(4) 0.98586(19)
H8A H 1.4510 -0.2326 1.0350
C14A C 1.1571(4) 0.0293(3) 1.1094(2)
C15A C 1.1587(5) -0.0146(4) 1.1640(2)
H9A H 1.1864 -0.0805 1.1596
C16A C 1.1184(5) 0.0412(4) 1.2253(2)
H10A H 1.1210 0.0109 1.2616
C17A C 1.0729(5) 0.1733(4) 1.1824(3)
H11A H 1.0426 0.2383 1.1882
C18A C 1.1106(4) 0.1252(4) 1.1186(2)
H12A H 1.1048 0.1567 1.0829
C19A C 1.4741(4) -0.1929(4) 0.6368(2)
H13A H 1.4027 -0.1995 0.6601
C20A C 1.5220(4) -0.2866(3) 0.6110(2)
H14A H 1.4836 -0.3542 0.6179
C21A C 1.6267(4) -0.2818(4) 0.5750(2)
C22A C 1.6755(5) -0.1788(4) 0.5669(3)
H15A H 1.7457 -0.1701 0.5430
C23A C 1.6229(5) -0.0893(4) 0.5932(3)
H16A H 1.6568 -0.0218 0.5852
C24A C 1.6834(4) -0.3780(3) 0.5455(2)
C25A C 1.6821(4) -0.4711(3) 0.5656(2)
C26A C 1.7804(4) -0.4801(3) 0.4741(2)
C27A C 1.8466(4) -0.5251(3) 0.4150(2)
C28A C 1.8796(5) -0.6273(4) 0.4009(2)
H17A H 1.8631 -0.6703 0.4300
C29A C 1.9371(5) -0.6648(4) 0.3435(3)
H18A H 1.9575 -0.7346 0.3347
C30A C 1.9366(5) -0.5083(5) 0.3149(3)
H19A H 1.9572 -0.4658 0.2859
C31A C 1.8781(5) -0.4637(4) 0.3708(3)
H20A H 1.8599 -0.3932 0.3789
C32A C 1.6428(4) -0.4968(4) 0.6276(2)
C33A C 1.6867(4) -0.4138(3) 0.6949(2)
H21A H 1.7436 -0.3432 0.7009
C34A C 1.6472(4) -0.4346(3) 0.7522(2)
H22A H 1.6762 -0.3765 0.7967
C35A C 1.5253(4) -0.6156(4) 0.6825(2)
H23A H 1.4681 -0.6853 0.6779
C36A C 1.5609(5) -0.6006(4) 0.6226(3)
H24A H 1.5303 -0.6597 0.5787
C37_2 C 1.2905(4) 0.8112(3) 0.3088(2)
C38_2 C 1.1460(4) 0.7733(4) 0.2729(2)
C39_2 C 1.1085(4) 0.7262(4) 0.1991(2)
H25_2 H 1.1730 0.7127 0.1718
C40_2 C 0.9774(4) 0.6995(4) 0.1662(2)
H26_2 H 0.9530 0.6677 0.1167
C41_2 C 0.8798(4) 0.7198(4) 0.2067(2)
C42_2 C 0.9174(5) 0.7653(4) 0.2803(2)
H27_2 H 0.8533 0.7786 0.3078
C43_2 C 1.0497(4) 0.7910(4) 0.3130(2)
H28_2 H 1.0740 0.8205 0.3626
C44_2 C 0.7356(4) 0.6883(4) 0.1703(2)
C45A C 1.2266(4) -0.0051(4) 0.5954(2)
C46A C 1.1080(4) -0.0016(4) 0.5468(2)
C47A C 1.0054(4) -0.1014(3) 0.51077(19)
H29A H 1.0093 -0.1691 0.5180
C48A C 1.1016(4) 0.0995(4) 0.5355(2)
H30A H 1.1701 0.1661 0.5594
C49A C -0.2432(4) 0.5047(3) -0.0822(2)
C50A C -0.1166(4) 0.5021(3) -0.0401(2)
C51A C -0.1142(4) 0.4142(4) -0.0142(2)
H31A H -0.1920 0.3558 -0.0239
C52A C -0.0010(4) 0.5883(3) -0.0255(2)
H32A H -0.0009 0.6481 -0.0424
N1A N 1.3991(3) 0.0182(3) 0.76587(18)
N2A N 1.2229(3) 0.0181(3) 0.99286(17)
H33A H 1.1996 0.0767 0.9889
N3A N 1.2509(3) -0.1179(3) 1.03576(18)
N4A N 1.0767(4) 0.1338(3) 1.2360(2)
N5A N 1.4444(3) -0.4244(3) 0.88516(18)
N5_2 N -0.4444(3) -0.5756(3) 0.11484(18)
N6A N 1.5253(3) -0.0937(3) 0.62990(18)
N7A N 1.7449(4) -0.3845(3) 0.48828(18)
N8A N 1.7446(3) -0.5367(3) 0.51964(17)
H34A H 1.7587 -0.6006 0.5194
N9A N 1.9659(4) -0.6089(4) 0.2993(2)
N10A N 1.5684(3) -0.5351(3) 0.74767(16)
N10_2 N -0.5684(3) -0.4649(3) 0.25233(16)
O1_2 O 1.3734(3) 0.8378(2) 0.27082(15)
O1A O 1.6266(3) 0.1622(2) 0.72918(15)
O2_2 O 1.3260(3) 0.8239(3) 0.37248(16)
O3_2 O 0.7041(3) 0.6718(3) 0.10627(15)
O4_2 O 0.6500(3) 0.6770(3) 0.20978(15)
O5A O 1.2316(3) -0.0972(3) 0.60264(16)
O6A O 1.3179(3) 0.0880(2) 0.62768(14)
O7A O -0.3401(3) 0.4155(3) -0.10321(16)
O7_2 O -0.6599(3) -0.4155(3) 0.10321(16)
O8A O -0.2497(3) 0.5929(2) -0.09520(15)
Zn1A Zn 1.45924(4) 0.04742(4) 0.67883(2)
Zn1_2 Zn 1.54076(4) 0.95258(4) 0.32117(2)
Zn2_2 Zn -0.51643(4) -0.43912(4) 0.16261(2)
Zn2A Zn -0.48357(4) 0.43912(4) -0.16261(2)
Zn2A_2 Zn 1.51643(4) -0.56088(4) 0.83739(2)
O9 O 0.8193(3) 0.7890(3) 0.02287(18)
H35 H 0.792(5) 0.760(4) 0.053(3)
H36 H 0.805(5) 0.731(4) -0.018(3)
O10 O 0.7679(4) 0.2628(3) 0.5289(2)
H37 H 0.753(6) 0.215(5) 0.491(3)
H38 H 0.731(5) 0.256(5) 0.566(3)
loop_
_geom_bond_atom_site_label_1
_geom_bond_atom_site_label_2
_geom_bond_site_symmetry_1
_geom_bond_site_symmetry_2
C1 H1 1_555 1_555
C2 C1 1_555 1_555
H2 C2 1_555 1_555
C3 C2 1_555 1_555
C4 C3 1_555 1_555
H3 C4 1_555 1_555
C5 C4 1_555 1_555
H4 C5 1_555 1_555
C6 C3 1_555 1_555
C7 C14 1_555 1_555
C8 C6 1_555 1_555
C9 C8 1_555 1_555
C10 C9 1_555 1_555
H5 C10 1_555 1_555
C11 C10 1_555 1_555
H6 C11 1_555 1_555
C12 H7 1_555 1_555
C13 C9 1_555 1_555
H8 C13 1_555 1_555
C14 C15 1_555 1_555
C15 H9 1_555 1_555
C16 C15 1_555 1_555
H10 C16 1_555 1_555
C17 H11 1_555 1_555
C18 C14 1_555 1_555
H12 C18 1_555 1_555
C19 H13 1_555 1_555
C20 C19 1_555 1_555
H14 C20 1_555 1_555
C21 C20 1_555 1_555
C22 C21 1_555 1_555
H15 C22 1_555 1_555
C23 C22 1_555 1_555
H16 C23 1_555 1_555
C24 C21 1_555 1_555
C25 C24 1_555 1_555
C26 C27 1_555 1_555
C27 C28 1_555 1_555
C28 H17 1_555 1_555
C29 C28 1_555 1_555
H18 C29 1_555 1_555
C30 H19 1_555 1_555
C31 C27 1_555 1_555
H20 C31 1_555 1_555
C32 C25 1_555 1_555
C33 C32 1_555 1_555
H21 C33 1_555 1_555
C34 C33 1_555 1_555
H22 C34 1_555 1_555
C35 H23 1_555 1_555
C36 C32 1_555 1_555
H24 C36 1_555 1_555
C37 C38 1_555 1_555
C38 C39 1_555 1_555
C39 H25 1_555 1_555
C40 C39 1_555 1_555
H26 C40 1_555 1_555
C41 C40 1_555 1_555
C42 C41 1_555 1_555
H27 C42 1_555 1_555
C43 C38 1_555 1_555
H28 C43 1_555 1_555
C44 C41 1_555 1_555
C45 C46 1_555 1_555
C46 C47 1_555 1_555
C47 H29 1_555 1_555
C48 C46 1_555 1_555
H30 C48 1_555 1_555
C49 C50 1_555 1_555
C50 C51 1_555 1_555
C51 H31 1_555 1_555
C52 C50 1_555 1_555
H32 C52 1_555 1_555
N1 C1 1_555 1_555
N2 C6 1_555 1_555
H33 N2 1_555 1_555
N3 C7 1_555 1_555
N4 C16 1_555 1_555
N5 C11 1_555 1_555
N6 C19 1_555 1_555
N7 C24 1_555 1_555
N8 C25 1_555 1_555
H34 N8 1_555 1_555
N9 C29 1_555 1_555
N10 C34 1_555 1_555
O1 C37 1_555 1_555
O2 C37 1_555 1_555
O3 C44 1_555 1_555
O4 C44 1_555 1_555
O5 C45 1_555 1_555
O6 C45 1_555 1_555
O7 C49 1_555 1_555
O8 C49 1_555 1_555
O9 H35 1_555 1_555
H36 O9 1_555 1_555
O10 H37 1_555 1_555
H38 O10 1_555 1_555
Zn1 N1 1_555 1_555
Zn2 N5 1_555 1_555
C1A H1A 1_555 1_555
C2A C1A 1_555 1_555
H2A C2A 1_555 1_555
C3A C2A 1_555 1_555
C4A C3A 1_555 1_555
H3A C4A 1_555 1_555
C5A C4A 1_555 1_555
H4A C5A 1_555 1_555
C6A C3A 1_555 1_555
C7A C14A 1_555 1_555
C8A C6A 1_555 1_555
C9A C8A 1_555 1_555
C10A C9A 1_555 1_555
H5A C10A 1_555 1_555
C11A C10A 1_555 1_555
H6A C11A 1_555 1_555
C12A H7A 1_555 1_555
C13A C9A 1_555 1_555
H8A C13A 1_555 1_555
C14A C15A 1_555 1_555
C15A H9A 1_555 1_555
C16A C15A 1_555 1_555
H10A C16A 1_555 1_555
C17A H11A 1_555 1_555
C18A C14A 1_555 1_555
H12A C18A 1_555 1_555
C19A H13A 1_555 1_555
C20A C19A 1_555 1_555
H14A C20A 1_555 1_555
C21A C20A 1_555 1_555
C22A C21A 1_555 1_555
H15A C22A 1_555 1_555
C23A C22A 1_555 1_555
H16A C23A 1_555 1_555
C24A C21A 1_555 1_555
C25A C24A 1_555 1_555
C26A C27A 1_555 1_555
C27A C28A 1_555 1_555
C28A H17A 1_555 1_555
C29A C28A 1_555 1_555
H18A C29A 1_555 1_555
C30A H19A 1_555 1_555
C31A C27A 1_555 1_555
H20A C31A 1_555 1_555
C32A C25A 1_555 1_555
C33A C32A 1_555 1_555
H21A C33A 1_555 1_555
C34A C33A 1_555 1_555
H22A C34A 1_555 1_555
C35A H23A 1_555 1_555
C36A C32A 1_555 1_555
H24A C36A 1_555 1_555
C37_2 C38_2 1_555 1_555
C38_2 C39_2 1_555 1_555
C39_2 H25_2 1_555 1_555
C40_2 C39_2 1_555 1_555
H26_2 C40_2 1_555 1_555
C41_2 C40_2 1_555 1_555
C42_2 C41_2 1_555 1_555
H27_2 C42_2 1_555 1_555
C43_2 C38_2 1_555 1_555
H28_2 C43_2 1_555 1_555
C44_2 C41_2 1_555 1_555
C45A C46A 1_555 1_555
C46A C47A 1_555 1_555
C47A C48 1_555 1_555
H29A C47A 1_555 1_555
C48A C47 1_555 1_555
H30A C48A 1_555 1_555
C49A C50A 1_555 1_555
C50A C51A 1_555 1_555
C51A C52 1_555 1_555
H31A C51A 1_555 1_555
C52A C51 1_555 1_555
H32A C52A 1_555 1_555
N1A C1A 1_555 1_555
N2A C6A 1_555 1_555
H33A N2A 1_555 1_555
N3A C7A 1_555 1_555
N4A C16A 1_555 1_555
N5A C11A 1_555 1_555
N5_2 Zn2_2 1_555 1_555
N6A C19A 1_555 1_555
N7A C24A 1_555 1_555
N8A C25A 1_555 1_555
H34A N8A 1_555 1_555
N9A C29A 1_555 1_555
N10A C34A 1_555 1_555
N10_2 Zn2_2 1_555 1_555
O1_2 C37_2 1_555 1_555
O1A Zn1A 1_555 1_555
O2_2 C37_2 1_555 1_555
O3_2 C44_2 1_555 1_555
O4_2 Zn2 1_555 1_555
O5A C45A 1_555 1_555
O6A C45A 1_555 1_555
O7A C49A 1_555 1_555
O7_2 Zn2_2 1_555 1_555
O8A C49A 1_555 1_555
Zn1A N1A 1_555 1_555
Zn1_2 O1_2 1_555 1_555
Zn2_2 O4 1_555 1_555
Zn2A O7A 1_555 1_555
Zn2A_2 N5A 1_555 1_555
C5 N1 1_555 1_555
C7 N2 1_555 1_555
C8 N3 1_555 1_555
C12 C13 1_555 1_555
C12 N5 1_555 1_555
C17 C18 1_555 1_555
C17 N4 1_555 1_555
C23 N6 1_555 1_555
C26 N7 1_555 1_555
C26 N8 1_555 1_555
C30 C31 1_555 1_555
C30 N9 1_555 1_555
C35 C36 1_555 1_555
C35 N10 1_555 1_555
C42 C43 1_555 1_555
N6 Zn1 1_555 1_555
N10 Zn2 1_555 1_555
O1 Zn1 1_555 1_555
O6 Zn1 1_555 1_555
O7 Zn2 1_555 1_555
C5A N1A 1_555 1_555
C7A N2A 1_555 1_555
C8A N3A 1_555 1_555
C12A C13A 1_555 1_555
C12A N5A 1_555 1_555
C17A C18A 1_555 1_555
C17A N4A 1_555 1_555
C23A N6A 1_555 1_555
C26A N7A 1_555 1_555
C26A N8A 1_555 1_555
C30A C31A 1_555 1_555
C30A N9A 1_555 1_555
C35A C36A 1_555 1_555
C35A N10A 1_555 1_555
C42_2 C43_2 1_555 1_555
C44_2 O4_2 1_555 1_555
C46A C48A 1_555 1_555
C50A C52A 1_555 1_555
N6A Zn1A 1_555 1_555
N10A Zn2A_2 1_555 1_555
O6A Zn1A 1_555 1_555

#END
