
#######################################################################
#
#                 Cambridge Crystallographic Data Centre
#                                CCDC 
#
#######################################################################
#
# If this CIF has been generated from an entry in the Cambridge 
# Structural Database, then it will include bibliographic, chemical, 
# crystal, experimental, refinement or atomic coordinate data resulting 
# from the CCDC's data processing and validation procedures.
#
#######################################################################

data_COWXIW
_symmetry_cell_setting           monoclinic
_symmetry_space_group_name_H-M   'P 21/n'
_symmetry_Int_Tables_number      14
_space_group_name_Hall           '-P 2yn'
loop_
_symmetry_equiv_pos_site_id
_symmetry_equiv_pos_as_xyz
1 x,y,z
2 1/2-x,1/2+y,1/2-z
3 -x,-y,-z
4 1/2+x,1/2-y,1/2+z
_cell_length_a                   13.1142(11)
_cell_length_b                   13.0598(10)
_cell_length_c                   15.0037(12)
_cell_angle_alpha                90
_cell_angle_beta                 94.8020(10)
_cell_angle_gamma                90
_cell_volume                     2560.65
loop_
_atom_site_label
_atom_site_type_symbol
_atom_site_fract_x
_atom_site_fract_y
_atom_site_fract_z
C1 C 0.5895(3) 0.1948(3) 0.9074(3)
C2 C 0.5805(4) 0.2043(4) 0.8083(3)
H1 H 0.5797 0.1361 0.7809
C3 C 0.6863(4) 0.2636(4) 0.7903(3)
H2 H 0.6756 0.3370 0.7883
H3 H 0.7107 0.2417 0.7341
C4 C 0.7628(4) 0.2348(4) 0.8685(3)
H4 H 0.8220 0.2008 0.8473
H5 H 0.7856 0.2952 0.9021
C5 C 0.7011(3) 0.1577(3) 0.9303(3)
C6 C 0.5535(4) 0.2976(3) 0.9546(3)
H6 H 0.4923 0.3231 0.9226
H7 H 0.5403 0.2829 1.0153
H8 H 0.6065 0.3483 0.9541
C7 C 0.5144(4) 0.1145(4) 0.9324(4)
H9 H 0.5076 0.0630 0.8867
H10 H 0.5387 0.0837 0.9883
H11 H 0.4490 0.1458 0.9382
C8 C 0.4867(3) 0.2652(3) 0.7714(3)
C9 C 0.7440(3) 0.1654(3) 1.0268(3)
C10 C 0.7344(4) 0.0552(4) 0.8939(3)
H12 H 0.7449 0.0622 0.8317
H13 H 0.7971 0.0338 0.9263
H14 H 0.6823 0.0049 0.9010
C11 C 0.3958(3) 0.7879(3) 0.4781(3)
C12 C 0.3304(3) 0.8505(3) 0.4320(3)
C13 C 0.4788(3) 0.9101(3) 0.4139(2)
C14 C 0.3848(3) 0.7020(3) 0.5380(2)
C15 C 0.4615(3) 0.6259(3) 0.5512(3)
H15 H 0.5209 0.6294 0.5215
C16 C 0.4457(3) 0.5448(3) 0.6102(3)
H16 H 0.4984 0.4978 0.6218
C17 C 0.2867(3) 0.6032(3) 0.6371(3)
H17 H 0.2270 0.5953 0.6659
C18 C 0.2951(3) 0.6872(3) 0.5838(3)
H18 H 0.2421 0.7348 0.5775
C19 C 0.2206(3) 0.8417(3) 0.4060(3)
C20 C 0.1698(3) 0.7484(3) 0.3993(3)
H19 H 0.2029 0.6898 0.4219
C21 C 0.0711(4) 0.7409(4) 0.3596(3)
H20 H 0.0427 0.6759 0.3523
C22 C 0.0610(4) 0.9129(4) 0.3424(3)
H21 H 0.0228 0.9707 0.3253
C23 C 0.1621(3) 0.9262(3) 0.3776(3)
H22 H 0.1902 0.9915 0.3821
C24 C 0.5638(3) 0.9712(3) 0.3811(2)
C25 C 0.5410(3) 1.0569(3) 0.3271(3)
H23 H 0.4734 1.0784 0.3167
C26 C 0.6172(3) 1.1101(3) 0.2893(3)
H24 H 0.6014 1.1697 0.2570
C27 C 0.7399(3) 0.9938(3) 0.3527(3)
H25 H 0.8075 0.9722 0.3619
C28 C 0.6653(3) 0.9410(3) 0.3951(3)
H26 H 0.6834 0.8860 0.4324
Cd1 Cd 0.32522(2) 0.36547(2) 0.698462(17)
N1 N 0.4940(2) 0.8262(2) 0.46780(19)
H27 H 0.5510 0.7938 0.4836
N2 N 0.3815(2) 0.9298(2) 0.3933(2)
N3 N 0.3599(3) 0.5311(2) 0.6504(2)
N4 N 0.0153(3) 0.8187(3) 0.3318(3)
N5 N 0.7183(2) 1.0746(2) 0.2993(2)
O1 O 0.6930(2) 0.1401(2) 1.08948(19)
O2 O 0.8333(2) 0.1993(2) 1.04217(16)
O3 O 0.4010(2) 0.2306(2) 0.7734(2)
O4 O 0.5019(2) 0.3486(2) 0.73380(19)
Cd1C Cd 0.82522(2) 1.13453(2) 0.198462(17)
Cd1C_2 Cd 0.82522(2) 0.13453(2) 1.198462(17)
N5C N 0.2183(2) 0.4254(2) 0.7993(2)
O1C O 0.1930(2) 0.3599(2) 0.58948(19)
O2C O 0.3333(2) 0.3007(2) 0.54217(16)
loop_
_geom_bond_atom_site_label_1
_geom_bond_atom_site_label_2
_geom_bond_site_symmetry_1
_geom_bond_site_symmetry_2
C1 C2 1_555 1_555
C2 H1 1_555 1_555
C3 C2 1_555 1_555
H2 C3 1_555 1_555
H3 C3 1_555 1_555
C4 C3 1_555 1_555
H4 C4 1_555 1_555
H5 C4 1_555 1_555
C5 C1 1_555 1_555
C6 C1 1_555 1_555
H6 C6 1_555 1_555
H7 C6 1_555 1_555
H8 C6 1_555 1_555
C7 C1 1_555 1_555
H9 C7 1_555 1_555
H10 C7 1_555 1_555
H11 C7 1_555 1_555
C8 C2 1_555 1_555
C9 C5 1_555 1_555
C10 C5 1_555 1_555
H12 C10 1_555 1_555
H13 C10 1_555 1_555
H14 C10 1_555 1_555
C11 C12 1_555 1_555
C12 C19 1_555 1_555
C13 C24 1_555 1_555
C14 C11 1_555 1_555
C15 C14 1_555 1_555
H15 C15 1_555 1_555
C16 C15 1_555 1_555
H16 C16 1_555 1_555
C17 H17 1_555 1_555
C18 C14 1_555 1_555
H18 C18 1_555 1_555
C19 C20 1_555 1_555
C20 H19 1_555 1_555
C21 C20 1_555 1_555
H20 C21 1_555 1_555
C22 H21 1_555 1_555
C23 C19 1_555 1_555
H22 C23 1_555 1_555
C24 C25 1_555 1_555
C25 H23 1_555 1_555
C26 C25 1_555 1_555
H24 C26 1_555 1_555
C27 H25 1_555 1_555
C28 C24 1_555 1_555
H26 C28 1_555 1_555
Cd1 N3 1_555 1_555
N1 C11 1_555 1_555
H27 N1 1_555 1_555
N2 C12 1_555 1_555
N3 C16 1_555 1_555
N4 C21 1_555 1_555
N5 C26 1_555 1_555
O1 C9 1_555 1_555
O2 C9 1_555 1_555
O3 C8 1_555 1_555
O4 C8 1_555 1_555
Cd1C N5 1_555 1_555
Cd1C_2 O1 1_555 1_555
N5C Cd1 1_555 1_555
O1C Cd1 1_555 1_555
O2C Cd1 1_555 1_555
C4 C5 1_555 1_555
C13 N1 1_555 1_555
C13 N2 1_555 1_555
C17 C18 1_555 1_555
C17 N3 1_555 1_555
C22 C23 1_555 1_555
C22 N4 1_555 1_555
C27 C28 1_555 1_555
C27 N5 1_555 1_555
Cd1 O3 1_555 1_555
Cd1 O4 1_555 1_555
O2 Cd1C_2 1_555 1_555

#END
