
#######################################################################
#
#                 Cambridge Crystallographic Data Centre
#                                CCDC 
#
#######################################################################
#
# If this CIF has been generated from an entry in the Cambridge 
# Structural Database, then it will include bibliographic, chemical, 
# crystal, experimental, refinement or atomic coordinate data resulting 
# from the CCDC's data processing and validation procedures.
#
#######################################################################

data_COWXES
_symmetry_cell_setting           monoclinic
_symmetry_space_group_name_H-M   'P 21/n'
_symmetry_Int_Tables_number      14
_space_group_name_Hall           '-P 2yn'
loop_
_symmetry_equiv_pos_site_id
_symmetry_equiv_pos_as_xyz
1 x,y,z
2 1/2-x,1/2+y,1/2-z
3 -x,-y,-z
4 1/2+x,1/2-y,1/2+z
_cell_length_a                   10.706(2)
_cell_length_b                   12.227(3)
_cell_length_c                   19.154(4)
_cell_angle_alpha                90
_cell_angle_beta                 96.946(4)
_cell_angle_gamma                90
_cell_volume                     2488.9
loop_
_atom_site_label
_atom_site_type_symbol
_atom_site_fract_x
_atom_site_fract_y
_atom_site_fract_z
C1 C 1.0691(4) 0.8414(3) 1.1844(2)
C2 C 0.9385(5) 0.8401(4) 1.1655(3)
H1 H 0.9034 0.8024 1.1258
C3 C 0.8624(5) 0.8963(4) 1.2071(3)
H2 H 0.7758 0.8974 1.1943
C4 C 0.9126(5) 0.9501(4) 1.2669(3)
H3 H 0.8602 0.9850 1.2952
C5 C 1.0426(4) 0.9522(4) 1.2848(2)
C6 C 1.1198(4) 0.8971(4) 1.2442(2)
H4 H 1.2064 0.8974 1.2569
C7 C 1.1515(5) 0.7809(3) 1.1409(2)
C8 C 1.0989(5) 1.0178(4) 1.3477(2)
C9 C 1.0243(4) 0.4337(4) 0.7860(2)
C10 C 0.8864(5) 0.3946(4) 0.6942(2)
C11 C 1.0067(4) 0.3755(4) 0.6801(2)
C12 C 1.0741(4) 0.4745(4) 0.8549(2)
C13 C 1.1933(4) 0.4430(4) 0.8856(2)
H5 H 1.2404 0.3931 0.8631
C14 C 1.2406(4) 0.4867(4) 0.9499(2)
H6 H 1.3194 0.4638 0.9705
C15 C 1.0637(4) 0.5905(4) 0.9549(2)
H7 H 1.0191 0.6408 0.9786
C16 C 1.0082(5) 0.5501(4) 0.8912(2)
H8 H 0.9282 0.5730 0.8726
C17 C 0.7618(5) 0.3884(4) 0.6528(2)
C18 C 0.6609(5) 0.3418(4) 0.6809(3)
H9 H 0.6710 0.3113 0.7258
C19 C 0.5440(5) 0.3419(4) 0.6402(3)
H10 H 0.4757 0.3128 0.6596
C20 C 0.6233(5) 0.4233(4) 0.5491(3)
H11 H 0.6124 0.4493 0.5031
C21 C 0.7417(5) 0.4302(4) 0.5866(2)
H12 H 0.8072 0.4632 0.5666
C22 C 1.0523(4) 0.3319(4) 0.6162(2)
C23 C 0.9793(4) 0.2616(4) 0.5709(2)
H13 H 0.8982 0.2433 0.5794
C24 C 1.0281(4) 0.2195(4) 0.5135(2)
H14 H 0.9782 0.1723 0.4840
C25 C 1.2132(4) 0.3125(4) 0.5404(2)
H15 H 1.2934 0.3306 0.5301
C26 C 1.1706(5) 0.3581(4) 0.5987(3)
H16 H 1.2214 0.4067 0.6266
N1 N 1.1778(3) 0.5609(3) 0.98411(17)
N2 N 0.8997(4) 0.4317(3) 0.76276(18)
H17 H 0.8380 0.4448 0.7879
N3 N 1.0928(4) 0.4011(3) 0.73728(19)
N4 N 0.5248(5) 0.3816(4) 0.5750(3)
N5 N 1.1433(3) 0.2427(3) 0.49763(17)
O1 O 1.2686(3) 0.7802(3) 1.15885(17)
O2 O 1.1034(3) 0.7266(3) 1.08885(17)
O3 O 1.2154(3) 1.0311(3) 1.35551(16)
O4 O 1.0336(3) 1.0624(3) 1.38658(15)
Zn1 Zn 1.26583(5) 0.65004(4) 1.06949(3)
N5A N 1.3567(3) 0.7427(3) 1.00237(17)
O3A O 1.2846(3) 0.5311(3) 1.14449(16)
O4A O 1.4664(3) 0.5624(3) 1.11342(15)
Zn1A Zn 1.23417(5) 0.15004(4) 0.43051(3)
Zn1A_2 Zn 1.23417(5) 1.15004(4) 1.43051(3)
O5 O 0.0203(7) 0.6311(5) 0.6384(4)
H18 H -0.0464 0.6593 0.6504
H19 H 0.0362 0.6593 0.5999
loop_
_geom_bond_atom_site_label_1
_geom_bond_atom_site_label_2
_geom_bond_site_symmetry_1
_geom_bond_site_symmetry_2
C1 C2 1_555 1_555
C2 H1 1_555 1_555
C3 C2 1_555 1_555
H2 C3 1_555 1_555
C4 C3 1_555 1_555
H3 C4 1_555 1_555
C5 C4 1_555 1_555
C6 C1 1_555 1_555
H4 C6 1_555 1_555
C7 C1 1_555 1_555
C8 C5 1_555 1_555
C9 C12 1_555 1_555
C10 C11 1_555 1_555
C11 C22 1_555 1_555
C12 C13 1_555 1_555
C13 H5 1_555 1_555
C14 C13 1_555 1_555
H6 C14 1_555 1_555
C15 H7 1_555 1_555
C16 C12 1_555 1_555
H8 C16 1_555 1_555
C17 C10 1_555 1_555
C18 C17 1_555 1_555
H9 C18 1_555 1_555
C19 C18 1_555 1_555
H10 C19 1_555 1_555
C20 H11 1_555 1_555
C21 C17 1_555 1_555
H12 C21 1_555 1_555
C22 C23 1_555 1_555
C23 H13 1_555 1_555
C24 C23 1_555 1_555
H14 C24 1_555 1_555
C25 H15 1_555 1_555
C26 C22 1_555 1_555
H16 C26 1_555 1_555
N1 C14 1_555 1_555
N2 C9 1_555 1_555
H17 N2 1_555 1_555
N3 C9 1_555 1_555
N4 C19 1_555 1_555
N5 C24 1_555 1_555
O1 C7 1_555 1_555
O2 C7 1_555 1_555
O3 C8 1_555 1_555
O4 C8 1_555 1_555
Zn1 N1 1_555 1_555
O5 H18 1_555 1_555
H19 O5 1_555 1_555
N5A Zn1 1_555 1_555
O3A Zn1 1_555 1_555
O4A Zn1 1_555 1_555
Zn1A N5 1_555 1_555
Zn1A_2 O3 1_555 1_555
C5 C6 1_555 1_555
C10 N2 1_555 1_555
C11 N3 1_555 1_555
C15 C16 1_555 1_555
C15 N1 1_555 1_555
C20 C21 1_555 1_555
C20 N4 1_555 1_555
C25 C26 1_555 1_555
C25 N5 1_555 1_555
O1 Zn1 1_555 1_555
O2 Zn1 1_555 1_555
O4 Zn1A_2 1_555 1_555

#END
