
#######################################################################
#
#                 Cambridge Crystallographic Data Centre
#                                CCDC 
#
#######################################################################
#
# If this CIF has been generated from an entry in the Cambridge 
# Structural Database, then it will include bibliographic, chemical, 
# crystal, experimental, refinement or atomic coordinate data resulting 
# from the CCDC's data processing and validation procedures.
#
#######################################################################

data_COXGIG
_symmetry_cell_setting           orthorhombic
_symmetry_space_group_name_H-M   'P b c n'
_symmetry_Int_Tables_number      60
_space_group_name_Hall           '-P 2n 2ab'
loop_
_symmetry_equiv_pos_site_id
_symmetry_equiv_pos_as_xyz
1 x,y,z
2 1/2-x,1/2-y,1/2+z
3 -x,y,1/2-z
4 1/2+x,1/2-y,-z
5 -x,-y,-z
6 1/2+x,1/2+y,1/2-z
7 x,-y,1/2+z
8 1/2-x,1/2+y,z
_cell_length_a                   6.8385(12)
_cell_length_b                   15.397(3)
_cell_length_c                   21.537(4)
_cell_angle_alpha                90
_cell_angle_beta                 90
_cell_angle_gamma                90
_cell_volume                     2267.68
loop_
_atom_site_label
_atom_site_type_symbol
_atom_site_fract_x
_atom_site_fract_y
_atom_site_fract_z
Cu1 Cu 0.0000 0.86244(6) 0.2500
Cu2 Cu 0.21712(11) 0.91791(4) 0.46059(3)
N1 N 0.0000 0.2664(3) 0.2500
C1 C 0.0000 0.4465(4) 0.2500
C2 C 0.0586(7) 0.5902(3) 0.3015(2)
H1 H 0.0987 0.5620 0.3375
C3 C 0.0000 0.5422(4) 0.2500
N2 N 0.0987(7) 0.9039(3) 0.3811(2)
C4 C 0.0752(6) 0.2584(3) 0.1409(2)
C5 C 0.0437(6) 0.4005(3) 0.1973(2)
H2 H 0.0768 0.4300 0.1611
C6 C 0.0392(6) 0.3112(3) 0.1975(2)
C7 C 0.1190(8) 0.2957(3) 0.0840(2)
H3 H 0.1310 0.3556 0.0804
C8 C 0.0512(7) 0.8939(3) 0.3307(2)
N3 N 0.0000 0.7242(3) 0.2500
C9 C 0.0571(7) 0.6782(3) 0.2990(2)
H4 H 0.0988 0.7084 0.3340
C10 C 0.0645(8) 0.1693(3) 0.1423(2)
H5 H 0.0351 0.1407 0.1792
C11 C 0.4316(8) 0.9841(3) 0.4909(2)
C12 C 0.1444(9) 0.2433(4) 0.0330(2)
H6 H 0.1695 0.2698 -0.0050
C13 C 0.0970(9) 0.1228(3) 0.0893(3)
H7 H 0.0918 0.0625 0.0919
N4 N 0.1355(7) 0.1578(3) 0.03432(18)
Cu2B Cu -0.21712(11) 0.91791(4) 0.03941(3)
Cu2F Cu 0.21712(11) 0.08209(4) -0.03941(3)
Cu2D Cu -0.21712(11) 0.08209(4) 0.53941(3)
Cu2D_2 Cu 0.78288(11) 1.08209(4) 0.53941(3)
C2B C -0.0586(7) 0.5902(3) 0.1985(2)
H1B H -0.0987 0.5620 0.1625
N2B N -0.0987(7) 0.9039(3) 0.1189(2)
C4B C -0.0752(6) 0.2584(3) 0.3591(2)
C5B C -0.0437(6) 0.4005(3) 0.3027(2)
H2B H -0.0768 0.4300 0.3389
C6B C -0.0392(6) 0.3112(3) 0.3025(2)
C7B C -0.1190(8) 0.2957(3) 0.4160(2)
H3B H -0.1310 0.3556 0.4196
C8B C -0.0512(7) 0.8939(3) 0.1693(2)
C9B C -0.0571(7) 0.6782(3) 0.2010(2)
H4B H -0.0988 0.7084 0.1660
C10B C -0.0645(8) 0.1693(3) 0.3577(2)
H5B H -0.0351 0.1407 0.3208
C11D C 0.5684(8) 1.0159(3) 0.5091(2)
C11B C -0.4316(8) 0.9841(3) 0.0091(2)
C12B C -0.1444(9) 0.2433(4) 0.4670(2)
H6B H -0.1695 0.2698 0.5050
C13B C -0.0970(9) 0.1228(3) 0.4107(3)
H7B H -0.0918 0.0625 0.4081
N4B N -0.1355(7) 0.1578(3) 0.46568(18)
N4F N 0.1355(7) 0.8422(3) 0.53432(18)
N4D N -0.1355(7) 0.8422(3) -0.03432(18)
loop_
_geom_bond_atom_site_label_1
_geom_bond_atom_site_label_2
_geom_bond_site_symmetry_1
_geom_bond_site_symmetry_2
Cu1 C8 1_555 1_555
Cu2 N2 1_555 1_555
N1 C6 1_555 1_555
C1 C3 1_555 1_555
C2 H1 1_555 1_555
C3 C2 1_555 1_555
N2 C8 1_555 1_555
C4 C6 1_555 1_555
C5 C1 1_555 1_555
H2 C5 1_555 1_555
C6 C5 1_555 1_555
C7 C4 1_555 1_555
H3 C7 1_555 1_555
N3 Cu1 1_555 1_555
C9 C2 1_555 1_555
H4 C9 1_555 1_555
C10 C4 1_555 1_555
H5 C10 1_555 1_555
C11 Cu2 1_555 1_555
C12 C7 1_555 1_555
H6 C12 1_555 1_555
C13 C10 1_555 1_555
H7 C13 1_555 1_555
N4 C12 1_555 1_555
Cu2B N2B 1_555 1_555
Cu2F N4 1_555 1_555
Cu2D N4B 1_555 1_555
Cu2D_2 C11D 1_555 1_555
C2B C3 1_555 1_555
H1B C2B 1_555 1_555
N2B C8B 1_555 1_555
C4B C6B 1_555 1_555
C5B C1 1_555 1_555
H2B C5B 1_555 1_555
C6B N1 1_555 1_555
C7B C4B 1_555 1_555
H3B C7B 1_555 1_555
C8B Cu1 1_555 1_555
C9B N3 1_555 1_555
H4B C9B 1_555 1_555
C10B C4B 1_555 1_555
H5B C10B 1_555 1_555
C11D C11 1_555 1_555
C11B Cu2B 1_555 1_555
C12B C7B 1_555 1_555
H6B C12B 1_555 1_555
C13B C10B 1_555 1_555
H7B C13B 1_555 1_555
N4B C12B 1_555 1_555
N4F Cu2 1_555 1_555
N4D Cu2B 1_555 1_555
N3 C9 1_555 1_555
C13 N4 1_555 1_555
C2B C9B 1_555 1_555
C5B C6B 1_555 1_555
C13B N4B 1_555 1_555

#END
