
#######################################################################
#
#                 Cambridge Crystallographic Data Centre
#                                CCDC 
#
#######################################################################
#
# If this CIF has been generated from an entry in the Cambridge 
# Structural Database, then it will include bibliographic, chemical, 
# crystal, experimental, refinement or atomic coordinate data resulting 
# from the CCDC's data processing and validation procedures.
#
#######################################################################

data_COXKOR
_symmetry_cell_setting           triclinic
_symmetry_space_group_name_H-M   'P -1'
_symmetry_Int_Tables_number      2
_space_group_name_Hall           '-P 1'
loop_
_symmetry_equiv_pos_site_id
_symmetry_equiv_pos_as_xyz
1 x,y,z
2 -x,-y,-z
_cell_length_a                   5.7684(3)
_cell_length_b                   7.7746(4)
_cell_length_c                   16.2972(9)
_cell_angle_alpha                98.320(2)
_cell_angle_beta                 98.656(2)
_cell_angle_gamma                93.434(2)
_cell_volume                     712.454
loop_
_atom_site_label
_atom_site_type_symbol
_atom_site_fract_x
_atom_site_fract_y
_atom_site_fract_z
Ag1 Ag 0.29071(5) 0.80069(4) 0.011065(17)
C1 C 0.6718(5) 0.7356(4) -0.2357(2)
C2 C 0.7973(7) 0.6544(5) -0.2938(2)
H1 H 0.9378 0.6082 -0.2759
C3 C 0.7125(8) 0.6419(7) -0.3796(3)
H2 H 0.7974 0.5873 -0.4187
C4 C 0.5062(9) 0.7091(7) -0.4068(3)
H3 H 0.4510 0.6998 -0.4640
C5 C 0.3799(8) 0.7908(7) -0.3491(3)
H4 H 0.2398 0.8369 -0.3675
C6 C 0.4623(7) 0.8040(6) -0.2637(2)
H5 H 0.3769 0.8590 -0.2250
C7 C 0.8568(6) 0.7538(4) 0.2451(2)
C8 C 0.7050(8) 0.6959(6) 0.2946(3)
H6 H 0.5575 0.6419 0.2703
C9 C 0.7738(11) 0.7189(8) 0.3815(3)
H7 H 0.6716 0.6783 0.4147
C10 C 0.9863(11) 0.7990(8) 0.4184(3)
H8 H 1.0294 0.8143 0.4765
C11 C 1.1388(9) 0.8578(7) 0.3686(3)
H9 H 1.2851 0.9136 0.3932
C12 C 1.0746(8) 0.8341(6) 0.2832(3)
H10 H 1.1791 0.8726 0.2502
O1 O 0.8238(4) 0.9589(3) -0.09235(15)
O2 O 0.5728(4) 0.6933(3) -0.08307(15)
O3 O 0.9950(4) 0.6665(3) -0.10942(15)
O4 O 0.7741(4) 0.9145(3) 0.10763(15)
O5 O 0.5318(4) 0.6374(3) 0.10756(17)
O6 O 0.9699(4) 0.6426(3) 0.09276(17)
P1 P 0.77902(13) 0.76524(9) -0.12486(5)
P2 P 0.77226(13) 0.72982(10) 0.13303(5)
Ag1_2 Ag 1.29071(5) 0.80069(4) 0.011065(17)
Ag1A Ag 0.70929(5) 1.19931(4) -0.011065(17)
O1A O 0.1762(4) 1.0411(3) 0.09235(15)
O3_2 O -0.0050(4) 0.6665(3) -0.10942(15)
loop_
_geom_bond_atom_site_label_1
_geom_bond_atom_site_label_2
_geom_bond_site_symmetry_1
_geom_bond_site_symmetry_2
Ag1 O2 1_555 1_555
C1 C2 1_555 1_555
C2 H1 1_555 1_555
C3 C2 1_555 1_555
H2 C3 1_555 1_555
C4 C3 1_555 1_555
H3 C4 1_555 1_555
C5 C4 1_555 1_555
H4 C5 1_555 1_555
C6 C1 1_555 1_555
H5 C6 1_555 1_555
C7 C8 1_555 1_555
C8 H6 1_555 1_555
C9 C8 1_555 1_555
H7 C9 1_555 1_555
C10 C9 1_555 1_555
H8 C10 1_555 1_555
C11 C10 1_555 1_555
H9 C11 1_555 1_555
C12 C7 1_555 1_555
H10 C12 1_555 1_555
O1 P1 1_555 1_555
O2 P1 1_555 1_555
O3 P1 1_555 1_555
O4 P2 1_555 1_555
O5 Ag1 1_555 1_555
O6 P2 1_555 1_555
P1 C1 1_555 1_555
P2 C7 1_555 1_555
Ag1_2 O3 1_555 1_555
Ag1A O1 1_555 1_555
O1A Ag1 1_555 1_555
O3_2 Ag1 1_555 1_555
C5 C6 1_555 1_555
C11 C12 1_555 1_555
O5 P2 1_555 1_555

#END
