
#######################################################################
#
#                 Cambridge Crystallographic Data Centre
#                                CCDC 
#
#######################################################################
#
# If this CIF has been generated from an entry in the Cambridge 
# Structural Database, then it will include bibliographic, chemical, 
# crystal, experimental, refinement or atomic coordinate data resulting 
# from the CCDC's data processing and validation procedures.
#
#######################################################################

data_COXPUC
_symmetry_cell_setting           triclinic
_symmetry_space_group_name_H-M   'P -1'
_symmetry_Int_Tables_number      2
_space_group_name_Hall           '-P 1'
loop_
_symmetry_equiv_pos_site_id
_symmetry_equiv_pos_as_xyz
1 x,y,z
2 -x,-y,-z
_cell_length_a                   11.225(4)
_cell_length_b                   12.390(5)
_cell_length_c                   13.752(5)
_cell_angle_alpha                89.228(7)
_cell_angle_beta                 71.142(6)
_cell_angle_gamma                75.552(6)
_cell_volume                     1747.98
loop_
_atom_site_label
_atom_site_type_symbol
_atom_site_fract_x
_atom_site_fract_y
_atom_site_fract_z
Eu1 Eu 1.26431(4) 0.94254(4) 0.20570(3)
O1 O 1.4483(5) 0.9811(5) 0.2642(4)
O2 O 1.2486(5) 1.0233(5) 0.3779(4)
Eu2 Eu 0.92011(4) 0.86352(3) 0.47647(3)
C1 C 1.3696(7) 1.0275(7) 0.3488(6)
O3 O 0.9584(5) 1.0683(5) 0.4359(4)
C2 C 1.4085(7) 1.0915(7) 0.4200(6)
N1 N 1.3091(6) 1.1438(6) 0.5027(5)
O4 O 1.1393(6) 1.0199(5) 0.6547(5)
O5 O 1.1007(5) 1.2628(5) 0.6445(4)
O6 O 0.8649(5) 1.1621(5) 0.6577(4)
O7 O 1.1479(6) 1.2700(6) 0.3944(5)
N2 N 0.9050(6) 1.3086(6) 0.5184(5)
Eu3 Eu 1.24178(4) 1.45049(4) 0.14246(3)
S1 S 1.07621(18) 0.92700(18) 0.66087(15)
C3 C 1.5346(8) 1.0975(8) 0.4025(7)
C4 C 1.3298(7) 1.2045(7) 0.5705(6)
C5 C 1.2078(8) 1.2674(7) 0.6555(6)
C6 C 0.7615(7) 1.2361(7) 0.6570(6)
C7 C 1.0718(9) 1.3554(8) 0.3777(7)
C8 C 0.9315(8) 1.3815(8) 0.4464(7)
C9 C 0.7807(7) 1.3231(7) 0.5815(6)
O8 O 1.1008(7) 1.4206(6) 0.3084(6)
O9 O 0.9545(5) 0.9481(5) 0.7502(4)
O10 O 0.7121(6) 0.8743(5) 0.8380(5)
O11 O 0.6517(5) 1.2336(5) 0.7148(4)
N3 N 0.7818(7) 0.9926(6) 0.9546(5)
O12 O 0.7966(6) 1.1869(5) 0.8853(4)
O13 O 0.5316(6) 1.1506(6) 0.9271(5)
O14 O 1.1626(6) 0.8208(5) 0.6666(5)
H1 H 1.6021 1.0616 0.3441
C10 C 1.5571(8) 1.1595(8) 0.4753(7)
C11 C 1.4556(8) 1.2121(8) 0.5599(7)
O15 O 1.2182(6) 1.3201(6) 0.7277(5)
C12 C 0.8359(9) 1.4698(9) 0.4336(8)
C13 C 0.6813(9) 1.4108(9) 0.5757(8)
C14 C 0.7521(8) 0.8214(8) 0.9063(6)
C15 C 0.7829(9) 0.8882(8) 0.9792(6)
C16 C 0.8124(10) 1.0597(8) 1.0124(7)
C17 C 0.8169(11) 1.1722(8) 0.9715(8)
H2 H 1.6410 1.1652 0.4664
H3 H 1.4700 1.2523 0.6098
C18 C 0.7083(10) 1.4870(10) 0.5016(9)
H4 H 0.8559 1.5168 0.3808
H5 H 0.5969 1.4192 0.6208
O16 O 0.7635(6) 0.7202(5) 0.9173(5)
C19 C 0.8180(11) 0.8432(8) 1.0622(7)
C20 C 0.8442(14) 1.0236(10) 1.1009(8)
O17 O 0.8379(10) 1.2432(6) 1.0228(6)
O18 O 0.5463(6) 0.6254(5) 0.9983(5)
O19 O 0.6282(7) 0.6545(7) 0.7580(6)
O20 O 0.7635(7) 0.4620(6) 1.0177(5)
O21 O 0.8691(6) 0.3636(5) 0.7867(4)
O22 O 0.9824(7) 0.5179(7) 0.8667(7)
O23 O 0.6029(6) 0.4379(6) 0.8777(5)
H6 H 0.6428 1.5481 0.4974
C21 C 0.8468(14) 0.9146(9) 1.1249(8)
H7 H 0.8223 0.7688 1.0757
H8 H 0.8628 1.0718 1.1418
C22 C 0.4826(8) 0.5538(8) 1.0355(7)
H9 H 0.8676 0.8885 1.1826
Eu2A Eu 1.07989(4) 1.13648(3) 0.52353(3)
O2A O 0.7514(5) 0.9767(5) 0.6221(4)
O3A O 1.0416(5) 0.9317(5) 0.5641(4)
Eu1A Eu 0.73569(4) 1.05746(4) 0.79430(3)
O1A O 0.5517(5) 1.0189(5) 0.7358(4)
O8A O 0.8992(7) 0.5794(6) 0.6916(6)
Eu3A Eu 0.75822(4) 0.54951(4) 0.85754(3)
C22A C 0.5174(8) 0.4462(8) 0.9645(7)
O23A O 0.3971(6) 0.5621(6) 1.1223(5)
O18A O 0.4537(6) 0.3746(5) 1.0017(5)
Eu3_2 Eu 0.24178(4) 0.45049(4) 1.14246(3)
O8_2 O 0.1008(7) 0.4206(6) 1.3084(6)
O19A O 0.3718(7) 0.3455(7) 1.2420(6)
O20A O 0.2365(7) 0.5380(6) 0.9823(5)
O21A O 0.1309(6) 0.6364(5) 1.2133(4)
O22A O 0.0176(7) 0.4821(7) 1.1333(7)
O16A O 0.2365(6) 0.2798(5) 1.0827(5)
C14A C 0.2479(8) 0.1786(8) 1.0937(6)
O10A O 0.2879(6) 0.1257(5) 1.1620(5)
C15A C 0.2171(9) 0.1118(8) 1.0208(6)
Eu2A_2 Eu 0.07989(4) 0.13648(3) 1.52353(3)
Eu1_2 Eu 0.26431(4) -0.05746(4) 1.20570(3)
N3A N 0.2182(7) 0.0074(6) 1.0454(5)
C19A C 0.1820(11) 0.1568(8) 0.9378(7)
O2_2 O 0.2486(5) 0.0233(5) 1.3779(4)
O3A_2 O 0.0416(5) -0.0683(5) 1.5641(4)
O3_2 O -0.0416(5) 0.0683(5) 1.4359(4)
O1_2 O 0.4483(5) -0.0189(5) 1.2642(4)
O6A O 0.1351(5) -0.1621(5) 1.3423(4)
O9A O 0.0455(5) 0.0519(5) 1.2498(4)
O11A O 0.3483(5) -0.2336(5) 1.2852(4)
O12A O 0.2034(6) -0.1869(5) 1.1147(4)
O13A O 0.4684(6) -0.1506(6) 1.0729(5)
C16A C 0.1876(10) -0.0597(8) 0.9876(7)
H7A H 0.1777 0.2312 0.9243
C21A C 0.1532(14) 0.0854(9) 0.8751(8)
Eu1A_2 Eu -0.26431(4) 0.05746(4) 1.79430(3)
Eu2_2 Eu -0.07989(4) -0.13648(3) 1.47647(3)
S1A S -0.07621(18) 0.07300(18) 1.33913(15)
C6A C 0.2385(7) -0.2361(7) 1.3430(6)
C17A C 0.1831(11) -0.1722(8) 1.0285(8)
C20A C 0.1558(14) -0.0236(10) 0.8991(8)
H9A H 0.1324 0.1115 0.8174
O1A_2 O -0.4483(5) 0.0189(5) 1.7358(4)
O2A_2 O -0.2486(5) -0.0233(5) 1.6221(4)
O5A O -0.1007(5) -0.2628(5) 1.3555(4)
O7A O -0.1479(6) -0.2700(6) 1.6056(5)
O4A O -0.1393(6) -0.0199(5) 1.3453(5)
N2A N 0.0950(6) -0.3086(6) 1.4816(5)
N1A N -0.3091(6) -0.1438(6) 1.4973(5)
O14A O -0.1626(6) 0.1792(5) 1.3334(5)
C9A C 0.2193(7) -0.3231(7) 1.4185(6)
O17A O 0.1621(10) -0.2432(6) 0.9772(6)
H8A H 0.1372 -0.0718 0.8582
C1A C -0.3696(7) -0.0275(7) 1.6512(6)
C5A C -0.2078(8) -0.2674(7) 1.3445(6)
C7A C -0.0718(9) -0.3554(8) 1.6223(7)
C8A C 0.0685(8) -0.3815(8) 1.5536(7)
C2A C -0.4085(7) -0.0915(7) 1.5800(6)
C4A C -0.3298(7) -0.2045(7) 1.4295(6)
C13A C 0.3187(9) -0.4108(9) 1.4243(8)
O15A O -0.2182(6) -0.3201(6) 1.2723(5)
O8A_2 O -0.1008(7) -0.4206(6) 1.6916(6)
C12A C 0.1641(9) -0.4698(9) 1.5664(8)
C3A C -0.5346(8) -0.0975(8) 1.5975(7)
C11A C -0.4556(8) -0.2121(8) 1.4401(7)
H5A H 0.4031 -0.4192 1.3792
C18A C 0.2917(10) -0.4870(10) 1.4984(9)
Eu3A_2 Eu -0.24178(4) -0.45049(4) 1.85754(3)
H4A H 0.1441 -0.5168 1.6192
C10A C -0.5571(8) -0.1595(8) 1.5247(7)
H1A H -0.6021 -0.0616 1.6559
H3A H -0.4700 -0.2523 1.3902
H6A H 0.3572 -0.5481 1.5026
H2A H -0.6410 -0.1652 1.5336
O24 O 0.6199(7) 0.5820(8) 0.2106(6)
O25 O 0.8887(9) 0.3240(7) 0.1836(6)
O26 O 0.5820(9) 0.3712(11) 0.2921(9)
O27 O 1.4471(16) 0.8597(16) -0.1287(13)
loop_
_geom_bond_atom_site_label_1
_geom_bond_atom_site_label_2
_geom_bond_site_symmetry_1
_geom_bond_site_symmetry_2
Eu1 O1 1_555 1_555
O1 C1 1_555 1_555
O2 Eu1 1_555 1_555
Eu2 O3 1_555 1_555
C1 O2 1_555 1_555
O3 Eu2A 1_555 1_555
C2 C1 1_555 1_555
N1 C2 1_555 1_555
O4 S1 1_555 1_555
O5 C5 1_555 1_555
O6 C6 1_555 1_555
O7 C7 1_555 1_555
N2 C8 1_555 1_555
Eu3 O8 1_555 1_555
S1 O9 1_555 1_555
C3 C2 1_555 1_555
C4 N1 1_555 1_555
C5 C4 1_555 1_555
C6 C9 1_555 1_555
C7 C8 1_555 1_555
C8 C12 1_555 1_555
C9 N2 1_555 1_555
O8 C7 1_555 1_555
O9 Eu1A 1_555 1_555
O10 C14 1_555 1_555
O11 C6 1_555 1_555
N3 C15 1_555 1_555
O12 C17 1_555 1_555
O13 Eu1A 1_555 1_555
O14 S1 1_555 1_555
H1 C3 1_555 1_555
C10 C3 1_555 1_555
C11 C4 1_555 1_555
O15 C5 1_555 1_555
C12 C18 1_555 1_555
C13 C9 1_555 1_555
C14 C15 1_555 1_555
C15 C19 1_555 1_555
C16 N3 1_555 1_555
C17 C16 1_555 1_555
H2 C10 1_555 1_555
H3 C11 1_555 1_555
C18 C13 1_555 1_555
H4 C12 1_555 1_555
H5 C13 1_555 1_555
O16 C14 1_555 1_555
C19 C21 1_555 1_555
C20 C16 1_555 1_555
O17 C17 1_555 1_555
O18 C22 1_555 1_555
O19 Eu3A 1_555 1_555
O20 Eu3A 1_555 1_555
O21 Eu3A 1_555 1_555
O22 Eu3A 1_555 1_555
O23 Eu3A 1_555 1_555
H6 C18 1_555 1_555
C21 C20 1_555 1_555
H7 C19 1_555 1_555
H8 C20 1_555 1_555
C22 C22A 1_555 1_555
H9 C21 1_555 1_555
Eu2A O2 1_555 1_555
O2A Eu2 1_555 1_555
O3A Eu2 1_555 1_555
Eu1A O6 1_555 1_555
O1A Eu1A 1_555 1_555
O8A Eu3A 1_555 1_555
Eu3A O16 1_555 1_555
C22A O23 1_555 1_555
O23A C22 1_555 1_555
O18A C22A 1_555 1_555
Eu3_2 O23A 1_555 1_555
O8_2 Eu3_2 1_555 1_555
O19A Eu3_2 1_555 1_555
O20A Eu3_2 1_555 1_555
O21A Eu3_2 1_555 1_555
O22A Eu3_2 1_555 1_555
O16A Eu3_2 1_555 1_555
C14A O16A 1_555 1_555
O10A C14A 1_555 1_555
C15A C14A 1_555 1_555
Eu2A_2 O2_2 1_555 1_555
Eu1_2 O10A 1_555 1_555
N3A C15A 1_555 1_555
C19A C15A 1_555 1_555
O2_2 Eu1_2 1_555 1_555
O3A_2 Eu2A_2 1_555 1_555
O3_2 Eu2A_2 1_555 1_555
O1_2 Eu1_2 1_555 1_555
O6A Eu1_2 1_555 1_555
O9A Eu1_2 1_555 1_555
O11A Eu1_2 1_555 1_555
O12A Eu1_2 1_555 1_555
O13A Eu1_2 1_555 1_555
C16A N3A 1_555 1_555
H7A C19A 1_555 1_555
C21A C19A 1_555 1_555
Eu1A_2 O1A_2 1_555 1_555
Eu2_2 O3A_2 1_555 1_555
S1A O3_2 1_555 1_555
C6A O6A 1_555 1_555
C17A O12A 1_555 1_555
C20A C16A 1_555 1_555
H9A C21A 1_555 1_555
O1A_2 C1A 1_555 1_555
O2A_2 Eu1A_2 1_555 1_555
O5A Eu2_2 1_555 1_555
O7A Eu2_2 1_555 1_555
O4A Eu2_2 1_555 1_555
N2A Eu2_2 1_555 1_555
N1A Eu2_2 1_555 1_555
O14A S1A 1_555 1_555
C9A C6A 1_555 1_555
O17A C17A 1_555 1_555
H8A C20A 1_555 1_555
C1A O2A_2 1_555 1_555
C5A O5A 1_555 1_555
C7A O7A 1_555 1_555
C8A N2A 1_555 1_555
C2A N1A 1_555 1_555
C4A N1A 1_555 1_555
C13A C9A 1_555 1_555
O15A C5A 1_555 1_555
O8A_2 C7A 1_555 1_555
C12A C8A 1_555 1_555
C3A C2A 1_555 1_555
C11A C4A 1_555 1_555
H5A C13A 1_555 1_555
C18A C13A 1_555 1_555
Eu3A_2 O8A_2 1_555 1_555
H4A C12A 1_555 1_555
C10A C3A 1_555 1_555
H1A C3A 1_555 1_555
H3A C11A 1_555 1_555
H6A C18A 1_555 1_555
H2A C10A 1_555 1_555
N1 Eu2A 1_555 1_555
O4 Eu2A 1_555 1_555
O5 Eu2A 1_555 1_555
O6 Eu2A 1_555 1_555
O7 Eu2A 1_555 1_555
N2 Eu2A 1_555 1_555
S1 O3A 1_555 1_555
O10 Eu1A 1_555 1_555
O11 Eu1A 1_555 1_555
N3 Eu1A 1_555 1_555
O12 Eu1A 1_555 1_555
C10 C11 1_555 1_555
O18 Eu3A 1_555 1_555
Eu2A O3A 1_555 1_555
O2A Eu1A 1_555 1_555
O18A Eu3_2 1_555 1_555
Eu1_2 N3A 1_555 1_555
O3_2 Eu2_2 1_555 1_555
O6A Eu2_2 1_555 1_555
O9A S1A 1_555 1_555
O11A C6A 1_555 1_555
C16A C17A 1_555 1_555
C21A C20A 1_555 1_555
Eu2_2 O2A_2 1_555 1_555
S1A O4A 1_555 1_555
N2A C9A 1_555 1_555
C1A C2A 1_555 1_555
C5A C4A 1_555 1_555
C7A C8A 1_555 1_555
C12A C18A 1_555 1_555
C11A C10A 1_555 1_555

#END
