
#######################################################################
#
#                 Cambridge Crystallographic Data Centre
#                                CCDC 
#
#######################################################################
#
# If this CIF has been generated from an entry in the Cambridge 
# Structural Database, then it will include bibliographic, chemical, 
# crystal, experimental, refinement or atomic coordinate data resulting 
# from the CCDC's data processing and validation procedures.
#
#######################################################################

data_COXQOV
_symmetry_cell_setting           monoclinic
_symmetry_space_group_name_H-M   'P 21/n'
_symmetry_Int_Tables_number      14
_space_group_name_Hall           '-P 2yn'
loop_
_symmetry_equiv_pos_site_id
_symmetry_equiv_pos_as_xyz
1 x,y,z
2 1/2-x,1/2+y,1/2-z
3 -x,-y,-z
4 1/2+x,1/2-y,1/2+z
_cell_length_a                   9.9227(10)
_cell_length_b                   13.7296(10)
_cell_length_c                   18.8301(10)
_cell_angle_alpha                90
_cell_angle_beta                 102.6733(1)
_cell_angle_gamma                90
_cell_volume                     2502.81
loop_
_atom_site_label
_atom_site_type_symbol
_atom_site_fract_x
_atom_site_fract_y
_atom_site_fract_z
Mn1 Mn 0.3052(1) 0.0648(1) 0.1946(1)
O1 O 0.3268(4) 0.1925(3) 0.1600(2)
O2 O -0.4680(4) 0.0319(3) 0.1998(2)
O3 O 0.3600(4) 0.1064(3) 0.2919(2)
N1 N 0.2822(5) -0.0708(4) 0.2312(3)
O4 O -0.3264(4) -0.0097(3) 0.1314(2)
N2 N 0.2749(5) 0.0175(3) 0.0900(3)
O5 O 0.4208(5) 0.3718(3) 0.1583(3)
O6 O 0.5338(5) 0.2045(3) 0.3941(3)
C1 C 0.3389(6) 0.0583(4) 0.0449(3)
C2 C 0.3950(5) 0.2150(4) 0.1093(3)
C3 C 0.4458(6) 0.0565(5) 0.3434(3)
C4 C 0.4494(7) 0.3102(5) 0.1075(3)
C5 C 0.4115(6) 0.1495(4) 0.0546(3)
C6 C -0.3596(6) 0.0448(4) 0.1796(3)
C7 C 0.1909(6) -0.0684(5) 0.0632(3)
C8 C 0.4449(7) -0.0464(5) 0.3464(3)
C9 C 0.3493(7) -0.1011(5) 0.2935(4)
C10 C -0.2601(7) 0.2761(5) 0.2822(4)
C11 C 0.4857(7) 0.1765(5) 0.0025(4)
C12 C -0.3296(6) 0.1962(5) 0.2492(3)
C13 C 0.1882(6) -0.1414(5) 0.1865(4)
C14 C -0.2676(6) 0.1278(4) 0.2125(3)
C15 C 0.5406(7) 0.1052(5) 0.3979(3)
C16 C 0.5250(8) 0.3326(5) 0.0566(4)
C17 C 0.5362(8) -0.0961(5) 0.4020(4)
C18 C 0.6282(7) 0.2573(6) 0.4482(4)
C19 C -0.1228(7) 0.2873(5) 0.2828(4)
C20 C 0.2254(7) -0.1548(5) 0.1133(4)
C21 C 0.4596(11) 0.4703(6) 0.1536(5)
C22 C 0.6316(7) 0.0547(6) 0.4507(4)
C23 C 0.5442(8) 0.2665(5) 0.0051(4)
C24 C 0.6283(8) -0.0470(6) 0.4518(5)
O7 O -0.0918(4) 0.0157(4) 0.1272(3)
C25 C -0.1261(6) 0.1409(4) 0.2103(3)
C26 C -0.0386(6) 0.0797(5) 0.1730(4)
C27 C -0.0593(7) 0.2202(5) 0.2491(4)
O8 O 0.0882(4) 0.0952(3) 0.1882(3)
H1 H 0.3379(6) 0.0250(4) 0.0018(3)
H2 H 0.2053(6) -0.0857(5) 0.0155(3)
H3 H 0.0941(6) -0.0523(5) 0.0580(3)
H4 H 0.3341(7) -0.1653(5) 0.3054(4)
H5 H -0.3060(7) 0.3225(5) 0.3040(4)
H6 H 0.4950(7) 0.1330(5) -0.0340(4)
H7 H -0.4215(6) 0.1875(5) 0.2515(3)
H8 H 0.0938(6) -0.1183(5) 0.1794(4)
H9 H 0.1944(6) -0.2035(5) 0.2116(4)
H10 H 0.5641(8) 0.3942(5) 0.0572(4)
H11 H 0.5328(8) -0.1637(5) 0.4042(4)
H12 H 0.6138(7) 0.3259(6) 0.4400(4)
H13 H 0.7211(7) 0.2409(6) 0.4456(4)
H14 H 0.6137(7) 0.2407(6) 0.4955(4)
H15 H -0.0739(7) 0.3403(5) 0.3062(4)
H16 H 0.3236(7) -0.1677(5) 0.1211(4)
H17 H 0.1769(7) -0.2114(5) 0.0895(4)
H18 H 0.4342(11) 0.5069(6) 0.1921(5)
H19 H 0.4132(11) 0.4966(6) 0.1075(5)
H20 H 0.5577(11) 0.4742(6) 0.1581(5)
H21 H 0.6954(7) 0.0883(6) 0.4857(4)
H22 H 0.5973(8) 0.2832(5) -0.0280(4)
H23 H 0.6906(8) -0.0809(6) 0.4874(5)
H24 H 0.0349(7) 0.2274(5) 0.2519(4)
H25 H -0.2357(79) 0.0029(51) 0.1215(38)
O2_2 O 0.5320(4) 0.0319(3) 0.1998(2)
Mn1_2 Mn -0.6948(1) 0.0648(1) 0.1946(1)
loop_
_geom_bond_atom_site_label_1
_geom_bond_atom_site_label_2
_geom_bond_site_symmetry_1
_geom_bond_site_symmetry_2
Mn1 O1 1_555 1_555
O1 C2 1_555 1_555
O2 C6 1_555 1_555
O3 Mn1 1_555 1_555
N1 Mn1 1_555 1_555
O4 C6 1_555 1_555
N2 Mn1 1_555 1_555
O5 C4 1_555 1_555
O6 C15 1_555 1_555
C1 N2 1_555 1_555
C2 C4 1_555 1_555
C3 O3 1_555 1_555
C4 C16 1_555 1_555
C5 C1 1_555 1_555
C6 C14 1_555 1_555
C7 N2 1_555 1_555
C8 C3 1_555 1_555
C9 N1 1_555 1_555
C10 C12 1_555 1_555
C11 C5 1_555 1_555
C12 C14 1_555 1_555
C13 N1 1_555 1_555
C14 C25 1_555 1_555
C15 C3 1_555 1_555
C16 C23 1_555 1_555
C17 C8 1_555 1_555
C18 O6 1_555 1_555
C19 C10 1_555 1_555
C20 C7 1_555 1_555
C21 O5 1_555 1_555
C22 C15 1_555 1_555
C23 C11 1_555 1_555
C24 C17 1_555 1_555
O7 C26 1_555 1_555
C25 C26 1_555 1_555
C26 O8 1_555 1_555
C27 C19 1_555 1_555
O8 Mn1 1_555 1_555
H1 C1 1_555 1_555
H2 C7 1_555 1_555
H3 C7 1_555 1_555
H4 C9 1_555 1_555
H5 C10 1_555 1_555
H6 C11 1_555 1_555
H7 C12 1_555 1_555
H8 C13 1_555 1_555
H9 C13 1_555 1_555
H10 C16 1_555 1_555
H11 C17 1_555 1_555
H12 C18 1_555 1_555
H13 C18 1_555 1_555
H14 C18 1_555 1_555
H15 C19 1_555 1_555
H16 C20 1_555 1_555
H17 C20 1_555 1_555
H18 C21 1_555 1_555
H19 C21 1_555 1_555
H20 C21 1_555 1_555
H21 C22 1_555 1_555
H22 C23 1_555 1_555
H23 C24 1_555 1_555
H24 C27 1_555 1_555
H25 O4 1_555 1_555
O2_2 Mn1 1_555 1_555
Mn1_2 O2 1_555 1_555
C2 C5 1_555 1_555
C8 C9 1_555 1_555
C13 C20 1_555 1_555
C22 C24 1_555 1_555
C25 C27 1_555 1_555

#END
