
#######################################################################
#
#                 Cambridge Crystallographic Data Centre
#                                CCDC 
#
#######################################################################
#
# If this CIF has been generated from an entry in the Cambridge 
# Structural Database, then it will include bibliographic, chemical, 
# crystal, experimental, refinement or atomic coordinate data resulting 
# from the CCDC's data processing and validation procedures.
#
#######################################################################

data_COYGON
_symmetry_cell_setting           monoclinic
_symmetry_space_group_name_H-M   'C 2/c'
_symmetry_Int_Tables_number      15
_space_group_name_Hall           '-C 2yn'
loop_
_symmetry_equiv_pos_site_id
_symmetry_equiv_pos_as_xyz
1 x,y,z
2 -x,y,1/2-z
3 1/2+x,1/2+y,z
4 1/2-x,1/2+y,1/2-z
5 -x,-y,-z
6 x,-y,1/2+z
7 1/2-x,1/2-y,-z
8 1/2+x,1/2-y,1/2+z
_cell_length_a                   24.5152(13)
_cell_length_b                   17.8010(9)
_cell_length_c                   12.7952(7)
_cell_angle_alpha                90
_cell_angle_beta                 116.584(2)
_cell_angle_gamma                90
_cell_volume                     4993.44
loop_
_atom_site_label
_atom_site_type_symbol
_atom_site_fract_x
_atom_site_fract_y
_atom_site_fract_z
O1 O 0.1626(3) 0.2426(3) 0.8876(6)
H1 H 0.1835 0.2086 0.9185
H2 H 0.1762 0.2858 0.9032
O2 O 0.1848(8) 0.3983(10) 0.7050(14)
H3 H 0.1846 0.3497 0.6938
H4 H 0.1955 0.3919 0.7862
O3 O 0.0000 0.2163(3) 0.7500
H5 H -0.0178 0.2470 0.6953
Rb1 Rb 0.09303(3) 0.24810(3) 0.63679(5)
C1 C -0.16124(19) 0.2998(3) 0.0904(4)
C2 C -0.1338(2) 0.4324(3) 0.0990(4)
H7 H -0.1509 0.4257 0.0151
H8 H -0.1534 0.4759 0.1133
C3 C -0.0375(2) 0.4262(2) 0.0848(4)
C4 C -0.0326(2) 0.4916(2) 0.2491(4)
C5 C 0.0649(2) 0.4395(2) 0.0976(4)
H9 H 0.0926 0.4819 0.1187
H10 H 0.0433 0.4377 0.0130
C6 C -0.0854(2) 0.3064(3) 0.4268(4)
C7 C -0.1578(2) 0.3651(2) 0.2535(4)
C8 C -0.17684(19) 0.2800(2) 0.2583(4)
C9 C -0.1219(2) 0.1763(2) 0.4094(4)
H11 H -0.1624 0.1595 0.3944
H12 H -0.0970 0.1770 0.4934
C10 C -0.0357(2) 0.1049(2) 0.4145(4)
C11 C -0.1298(2) 0.0759(2) 0.2550(4)
C12 C -0.07774(19) 0.0239(2) 0.2515(4)
C13 C 0.03660(19) 0.0149(3) 0.4009(4)
H13 H 0.0331 -0.0384 0.3830
H14 H 0.0567 0.0200 0.4853
C14 C -0.12058(19) 0.0981(2) 0.0808(4)
C15 C -0.1984(2) 0.1739(2) 0.1051(4)
H15 H -0.2166 0.1761 0.0204
H16 H -0.2299 0.1582 0.1267
C16 C -0.2045(2) 0.4235(3) 0.2487(5)
H17 H -0.2094 0.4207 0.3189
H18 H -0.2429 0.4137 0.1824
H19 H -0.1905 0.4727 0.2417
C17 C -0.1823(2) 0.0341(3) 0.2614(5)
H20 H -0.1674 0.0073 0.3341
H21 H -0.1995 -0.0008 0.1976
H22 H -0.2129 0.0693 0.2565
C18 C -0.2372(2) 0.2702(3) 0.2633(4)
H23 H -0.2697 0.2893 0.1927
H24 H -0.2361 0.2973 0.3291
H25 H -0.2440 0.2179 0.2712
C19 C -0.0608(2) 0.5694(3) 0.2411(4)
H26 H -0.0673 0.5928 0.1688
H27 H -0.0336 0.5997 0.3053
H28 H -0.0990 0.5644 0.2441
C20 C -0.0906(2) -0.0600(2) 0.2478(4)
H29 H -0.0919 -0.0748 0.3188
H30 H -0.0589 -0.0873 0.2397
H31 H -0.1291 -0.0708 0.1824
N1 N -0.1777(2) 0.24869(19) 0.1517(4)
N2 N -0.14841(18) 0.3663(2) 0.1494(3)
N3 N -0.06897(18) 0.4472(2) 0.1450(3)
N4 N 0.02094(18) 0.4524(2) 0.1431(3)
N5 N -0.10073(18) 0.3711(2) 0.3611(3)
N6 N -0.12612(19) 0.25186(19) 0.3648(4)
N7 N -0.09602(17) 0.1226(2) 0.3583(3)
N8 N -0.02379(17) 0.0462(2) 0.3572(3)
N9 N -0.07471(18) 0.0490(2) 0.1456(3)
N10 N -0.15006(17) 0.1177(2) 0.1460(3)
O5 O -0.16117(15) 0.28766(19) -0.0031(3)
O6 O -0.05837(16) 0.39295(19) -0.0081(3)
O7 O -0.04323(16) 0.30023(19) 0.5245(3)
O8 O 0.00191(15) 0.13328(19) 0.5052(3)
O9 O -0.13353(15) 0.11964(19) -0.0186(3)
O1A O -0.1626(3) 0.2426(3) -0.3876(6)
H1A H -0.1835 0.2086 -0.4185
H2A H -0.1762 0.2858 -0.4032
O2A O -0.1848(8) 0.3983(10) -0.2050(14)
H3A H -0.1846 0.3497 -0.1938
H4A H -0.1955 0.3919 -0.2862
O3_2 O 0.0000 0.2163(3) -0.2500
H5A H 0.0178 0.2470 0.8047
H5A_2 H 0.0178 0.2470 -0.1953
H5_2 H -0.0178 0.2470 -0.3047
Rb1A Rb -0.09303(3) 0.24810(3) -0.13679(5)
Rb1A_2 Rb -0.09303(3) 0.24810(3) 0.86321(5)
C1A C 0.16124(19) 0.2998(3) 0.4096(4)
C2A C 0.1338(2) 0.4324(3) 0.4010(4)
H7A H 0.1509 0.4257 0.4849
H8A H 0.1534 0.4759 0.3867
C3A C 0.0375(2) 0.4262(2) 0.4152(4)
C4A C 0.0326(2) 0.4916(2) 0.2509(4)
C5A C -0.0649(2) 0.4395(2) 0.4024(4)
H9A H -0.0926 0.4819 0.3813
H10A H -0.0433 0.4377 0.4870
C6A C 0.0854(2) 0.3064(3) 0.0732(4)
C7A C 0.1578(2) 0.3651(2) 0.2465(4)
C8A C 0.17684(19) 0.2800(2) 0.2417(4)
C9A C 0.1219(2) 0.1763(2) 0.0906(4)
H11A H 0.1624 0.1595 0.1056
H12A H 0.0970 0.1770 0.0066
C10A C 0.0357(2) 0.1049(2) 0.0855(4)
C11A C 0.1298(2) 0.0759(2) 0.2450(4)
C12A C 0.07774(19) 0.0239(2) 0.2485(4)
C13A C -0.03660(19) 0.0149(3) 0.0991(4)
H13A H -0.0331 -0.0384 0.1170
H14A H -0.0567 0.0200 0.0147
C14A C 0.12058(19) 0.0981(2) 0.4192(4)
C15A C 0.1984(2) 0.1739(2) 0.3949(4)
H15A H 0.2166 0.1761 0.4796
H16A H 0.2299 0.1582 0.3733
C16A C 0.2045(2) 0.4235(3) 0.2513(5)
H17A H 0.2094 0.4207 0.1811
H18A H 0.2429 0.4137 0.3176
H19A H 0.1905 0.4727 0.2583
C17A C 0.1823(2) 0.0341(3) 0.2386(5)
H20A H 0.1674 0.0073 0.1659
H21A H 0.1995 -0.0008 0.3024
H22A H 0.2129 0.0693 0.2435
C18A C 0.2372(2) 0.2702(3) 0.2367(4)
H23A H 0.2697 0.2893 0.3073
H24A H 0.2361 0.2973 0.1709
H25A H 0.2440 0.2179 0.2288
C19A C 0.0608(2) 0.5694(3) 0.2589(4)
H26A H 0.0673 0.5928 0.3312
H27A H 0.0336 0.5997 0.1947
H28A H 0.0990 0.5644 0.2559
C20A C 0.0906(2) -0.0600(2) 0.2522(4)
H29A H 0.0919 -0.0748 0.1812
H30A H 0.0589 -0.0873 0.2603
H31A H 0.1291 -0.0708 0.3176
N1A N 0.1777(2) 0.24869(19) 0.3483(4)
N2A N 0.14841(18) 0.3663(2) 0.3506(3)
N3A N 0.06897(18) 0.4472(2) 0.3550(3)
N4A N -0.02094(18) 0.4524(2) 0.3569(3)
N5A N 0.10073(18) 0.3711(2) 0.1389(3)
N6A N 0.12612(19) 0.25186(19) 0.1352(4)
N7A N 0.09602(17) 0.1226(2) 0.1417(3)
N8A N 0.02379(17) 0.0462(2) 0.1428(3)
N9A N 0.07471(18) 0.0490(2) 0.3544(3)
N10A N 0.15006(17) 0.1177(2) 0.3540(3)
O5A O 0.16117(15) 0.28766(19) 0.5031(3)
O6A O 0.05837(16) 0.39295(19) 0.5081(3)
O7A O 0.04323(16) 0.30023(19) -0.0245(3)
O8A O -0.00191(15) 0.13328(19) -0.0052(3)
O9A O 0.13353(15) 0.11964(19) 0.5186(3)
O4 O 0.0000 0.2508(10) 0.2500
H6 H -0.0110 0.2251 0.1862
H6A H 0.0110 0.2251 0.3138
Cl1 Cl 0.25703(10) 0.10660(11) 0.0304(2)
loop_
_geom_bond_atom_site_label_1
_geom_bond_atom_site_label_2
_geom_bond_site_symmetry_1
_geom_bond_site_symmetry_2
O1 H1 1_555 1_555
H2 O1 1_555 1_555
O2 H3 1_555 1_555
H4 O2 1_555 1_555
O3 H5 1_555 1_555
O4 H6 1_555 1_555
Rb1 O1 1_555 1_555
C1 N1 1_555 1_555
C2 H7 1_555 1_555
H8 C2 1_555 1_555
C3 N3 1_555 1_555
C4 C19 1_555 1_555
C5 H9 1_555 1_555
H10 C5 1_555 1_555
C6 N5 1_555 1_555
C7 C8 1_555 1_555
C8 C18 1_555 1_555
C9 H11 1_555 1_555
H12 C9 1_555 1_555
C10 N7 1_555 1_555
C11 C12 1_555 1_555
C12 C20 1_555 1_555
C13 H13 1_555 1_555
H14 C13 1_555 1_555
C14 N9 1_555 1_555
C15 H15 1_555 1_555
H16 C15 1_555 1_555
C16 C7 1_555 1_555
H17 C16 1_555 1_555
H18 C16 1_555 1_555
H19 C16 1_555 1_555
C17 C11 1_555 1_555
H20 C17 1_555 1_555
H21 C17 1_555 1_555
H22 C17 1_555 1_555
C18 H23 1_555 1_555
H24 C18 1_555 1_555
H25 C18 1_555 1_555
C19 H26 1_555 1_555
H27 C19 1_555 1_555
H28 C19 1_555 1_555
C20 H29 1_555 1_555
H30 C20 1_555 1_555
H31 C20 1_555 1_555
N1 C8 1_555 1_555
N2 C1 1_555 1_555
N3 C2 1_555 1_555
N4 C3 1_555 1_555
N5 C7 1_555 1_555
N6 C6 1_555 1_555
N7 C9 1_555 1_555
N8 C10 1_555 1_555
N9 C12 1_555 1_555
N10 C11 1_555 1_555
O5 C1 1_555 1_555
O6 C3 1_555 1_555
O7 Rb1 1_555 1_555
O8 Rb1 1_555 1_555
O9 C14 1_555 1_555
O1A H1A 1_555 1_555
H2A O1A 1_555 1_555
O2A H3A 1_555 1_555
H4A O2A 1_555 1_555
O3_2 H5A_2 1_555 1_555
H5A O3 1_555 1_555
H5_2 O3_2 1_555 1_555
H6A O4 1_555 1_555
Rb1A O5 1_555 1_555
Rb1A_2 O3 1_555 1_555
C1A N1A 1_555 1_555
C2A H7A 1_555 1_555
H8A C2A 1_555 1_555
C3A N3A 1_555 1_555
C4A C4 1_555 1_555
C5A N5 1_555 1_555
H9A C5A 1_555 1_555
H10A C5A 1_555 1_555
C6A N5A 1_555 1_555
C7A C8A 1_555 1_555
C8A C18A 1_555 1_555
C9A H11A 1_555 1_555
H12A C9A 1_555 1_555
C10A N7A 1_555 1_555
C11A C12A 1_555 1_555
C12A C20A 1_555 1_555
C13A N9 1_555 1_555
H13A C13A 1_555 1_555
H14A C13A 1_555 1_555
C14A N9A 1_555 1_555
C15A H15A 1_555 1_555
H16A C15A 1_555 1_555
C16A C7A 1_555 1_555
H17A C16A 1_555 1_555
H18A C16A 1_555 1_555
H19A C16A 1_555 1_555
C17A C11A 1_555 1_555
H20A C17A 1_555 1_555
H21A C17A 1_555 1_555
H22A C17A 1_555 1_555
C18A H23A 1_555 1_555
H24A C18A 1_555 1_555
H25A C18A 1_555 1_555
C19A C4A 1_555 1_555
H26A C19A 1_555 1_555
H27A C19A 1_555 1_555
H28A C19A 1_555 1_555
C20A H29A 1_555 1_555
H30A C20A 1_555 1_555
H31A C20A 1_555 1_555
N1A C8A 1_555 1_555
N2A C1A 1_555 1_555
N3A C2A 1_555 1_555
N4A C4 1_555 1_555
N5A C5 1_555 1_555
N6A C6A 1_555 1_555
N7A C9A 1_555 1_555
N8A C10A 1_555 1_555
N9A C13 1_555 1_555
N10A C11A 1_555 1_555
O5A Rb1 1_555 1_555
O6A Rb1 1_555 1_555
O7A Rb1A 1_555 1_555
O8A Rb1A 1_555 1_555
O9A Rb1 1_555 1_555
O2 Rb1 1_555 1_555
O3 Rb1 1_555 1_555
C2 N2 1_555 1_555
C4 N3 1_555 1_555
C5 N4 1_555 1_555
C6 O7 1_555 1_555
C7 N2 1_555 1_555
C8 N6 1_555 1_555
C9 N6 1_555 1_555
C10 O8 1_555 1_555
C11 N7 1_555 1_555
C12 N8 1_555 1_555
C13 N8 1_555 1_555
C14 N10 1_555 1_555
C15 N1 1_555 1_555
C15 N10 1_555 1_555
N4 C4A 1_555 1_555
O6 Rb1A 1_555 1_555
O9 Rb1A 1_555 1_555
O1A Rb1A 1_555 1_555
O2A Rb1A 1_555 1_555
O3_2 Rb1A 1_555 1_555
C1A O5A 1_555 1_555
C2A N2A 1_555 1_555
C3A N4A 1_555 1_555
C3A O6A 1_555 1_555
C4A N3A 1_555 1_555
C5A N4A 1_555 1_555
C6A O7A 1_555 1_555
C7A N2A 1_555 1_555
C7A N5A 1_555 1_555
C8A N6A 1_555 1_555
C9A N6A 1_555 1_555
C10A O8A 1_555 1_555
C11A N7A 1_555 1_555
C12A N8A 1_555 1_555
C12A N9A 1_555 1_555
C13A N8A 1_555 1_555
C14A N10A 1_555 1_555
C14A O9A 1_555 1_555
C15A N1A 1_555 1_555
C15A N10A 1_555 1_555

#END
