
#######################################################################
#
#                 Cambridge Crystallographic Data Centre
#                                CCDC 
#
#######################################################################
#
# If this CIF has been generated from an entry in the Cambridge 
# Structural Database, then it will include bibliographic, chemical, 
# crystal, experimental, refinement or atomic coordinate data resulting 
# from the CCDC's data processing and validation procedures.
#
#######################################################################

data_COYHIJ
_symmetry_cell_setting           monoclinic
_symmetry_space_group_name_H-M   'C 2/c'
_symmetry_Int_Tables_number      15
_space_group_name_Hall           '-C 2yn'
loop_
_symmetry_equiv_pos_site_id
_symmetry_equiv_pos_as_xyz
1 x,y,z
2 -x,y,1/2-z
3 1/2+x,1/2+y,z
4 1/2-x,1/2+y,1/2-z
5 -x,-y,-z
6 x,-y,1/2+z
7 1/2-x,1/2-y,-z
8 1/2+x,1/2-y,1/2+z
_cell_length_a                   29.983(9)
_cell_length_b                   13.709(3)
_cell_length_c                   14.391(3)
_cell_angle_alpha                90
_cell_angle_beta                 114.93(4)
_cell_angle_gamma                90
_cell_volume                     5364.07
loop_
_atom_site_label
_atom_site_type_symbol
_atom_site_fract_x
_atom_site_fract_y
_atom_site_fract_z
N1 N -0.1645(2) 0.6698(4) 0.2057(4)
C1 C -0.1612(3) 0.5738(5) 0.2034(6)
H1 H -0.1902 0.5390 0.1694
C2 C -0.1216(3) 0.7154(6) 0.2526(6)
H2 H -0.1217 0.7832 0.2532
Zn1 Zn 0.26603(3) 0.75072(6) 0.64612(5)
O1 O 0.29650(17) 0.6436(3) 0.5925(3)
O2 O 0.26532(18) 0.6242(3) 0.4223(4)
O3 O 0.2781(2) 0.3103(4) 0.2786(4)
O4 O 0.2884(3) 0.1755(4) 0.3686(4)
O5 O 0.3514(3) 0.2152(5) 0.7455(5)
O6 O 0.3530(3) 0.3561(4) 0.8095(4)
N2 N 0.1952(2) 0.6756(4) 0.5780(4)
N3 N 0.0194(5) 0.0486(7) 0.3992(10)
N4 N 0.0161(3) 0.5645(5) 0.3937(5)
N5 N 0.3439(3) 0.3027(5) 0.7359(5)
C3 C 0.2851(2) 0.5941(5) 0.5120(6)
C4 C 0.2971(2) 0.4866(4) 0.5255(5)
C5 C 0.2891(2) 0.4281(5) 0.4421(5)
H3 H 0.2779 0.4562 0.3773
C6 C 0.2975(2) 0.3283(5) 0.4522(5)
C7 C 0.2872(3) 0.2641(5) 0.3598(6)
C8 C 0.3142(2) 0.2856(5) 0.5497(5)
H4 H 0.3187 0.2186 0.5583
C9 C 0.3236(3) 0.3461(5) 0.6326(5)
C10 C 0.3152(2) 0.4458(5) 0.6234(5)
H5 H 0.3216 0.4844 0.6808
C11 C -0.1182(3) 0.5215(5) 0.2476(6)
H6 H -0.1191 0.4538 0.2427
C12 C -0.0770(3) 0.6691(6) 0.3003(6)
H7 H -0.0486 0.7056 0.3340
C13 C -0.0740(3) 0.5676(5) 0.2985(5)
C14 C -0.0275(3) 0.5112(6) 0.3475(5)
C15 C -0.0269(3) 0.4128(5) 0.3502(5)
H8 H -0.0563 0.3782 0.3211
C16 C 0.0171(3) 0.3637(6) 0.3960(6)
C17 C 0.0604(3) 0.4158(5) 0.4410(5)
H9 H 0.0901 0.3825 0.4722
C18 C 0.0603(3) 0.5148(5) 0.4404(5)
C19 C 0.1070(3) 0.5700(5) 0.4892(5)
C20 C 0.1509(3) 0.5251(5) 0.5494(6)
H10 H 0.1518 0.4583 0.5612
C21 C 0.1934(3) 0.5794(5) 0.5918(6)
H11 H 0.2225 0.5474 0.6324
C22 C 0.1521(3) 0.7181(5) 0.5218(5)
H12 H 0.1520 0.7853 0.5125
C23 C 0.1081(3) 0.6706(5) 0.4769(5)
H13 H 0.0794 0.7048 0.4387
C24 C 0.0182(3) 0.2538(7) 0.3983(7)
C25 C -0.0219(4) 0.1997(8) 0.3899(9)
H14 H -0.0504 0.2308 0.3843
C26 C -0.0197(5) 0.0975(9) 0.3896(11)
H15 H -0.0476 0.0627 0.3823
C27 C 0.0557(6) 0.1011(11) 0.4087(15)
H16 H 0.0841 0.0682 0.4157
C28 C 0.0581(4) 0.2024(9) 0.4099(12)
H17 H 0.0871 0.2340 0.4187
N1G N 0.3355(2) 0.8302(4) 0.7057(4)
Zn1E Zn 0.26603(3) 0.24928(6) 0.14612(5)
Zn1F Zn 0.23397(3) 0.74928(6) 0.35388(5)
Zn1G Zn -0.23397(3) 0.74928(6) 0.14612(5)
O2F O 0.23468(18) 0.8758(3) 0.5777(4)
O3E O 0.2781(2) 0.6897(4) 0.7786(4)
O7 O 0.0149(5) 0.8506(10) 0.3501(10)
H18 H 0.0276 0.8157 0.3188
H19 H 0.0277 0.8360 0.4134
loop_
_geom_bond_atom_site_label_1
_geom_bond_atom_site_label_2
_geom_bond_site_symmetry_1
_geom_bond_site_symmetry_2
N1 C1 1_555 1_555
C1 H1 1_555 1_555
C2 N1 1_555 1_555
H2 C2 1_555 1_555
Zn1 O1 1_555 1_555
O1 C3 1_555 1_555
O2 C3 1_555 1_555
O3 C7 1_555 1_555
O4 C7 1_555 1_555
O5 N5 1_555 1_555
O6 N5 1_555 1_555
N2 Zn1 1_555 1_555
N3 C26 1_555 1_555
N4 C14 1_555 1_555
N5 C9 1_555 1_555
C3 C4 1_555 1_555
C4 C5 1_555 1_555
C5 H3 1_555 1_555
C6 C5 1_555 1_555
C7 C6 1_555 1_555
C8 C6 1_555 1_555
H4 C8 1_555 1_555
C9 C8 1_555 1_555
C10 C4 1_555 1_555
H5 C10 1_555 1_555
C11 C1 1_555 1_555
H6 C11 1_555 1_555
C12 C2 1_555 1_555
H7 C12 1_555 1_555
C13 C11 1_555 1_555
C14 C13 1_555 1_555
C15 C14 1_555 1_555
H8 C15 1_555 1_555
C16 C15 1_555 1_555
C17 C16 1_555 1_555
H9 C17 1_555 1_555
C18 N4 1_555 1_555
C19 C18 1_555 1_555
C20 C19 1_555 1_555
H10 C20 1_555 1_555
C21 N2 1_555 1_555
H11 C21 1_555 1_555
C22 N2 1_555 1_555
H12 C22 1_555 1_555
C23 C19 1_555 1_555
H13 C23 1_555 1_555
C24 C16 1_555 1_555
C25 C24 1_555 1_555
H14 C25 1_555 1_555
C26 C25 1_555 1_555
H15 C26 1_555 1_555
C27 N3 1_555 1_555
H16 C27 1_555 1_555
C28 C24 1_555 1_555
H17 C28 1_555 1_555
O7 H18 1_555 1_555
H19 O7 1_555 1_555
N1G Zn1 1_555 1_555
Zn1E O3 1_555 1_555
Zn1F O2 1_555 1_555
Zn1G N1 1_555 1_555
O2F Zn1 1_555 1_555
O3E Zn1 1_555 1_555
C9 C10 1_555 1_555
C12 C13 1_555 1_555
C17 C18 1_555 1_555
C20 C21 1_555 1_555
C22 C23 1_555 1_555
C27 C28 1_555 1_555

#END
