
#######################################################################
#
#                 Cambridge Crystallographic Data Centre
#                                CCDC 
#
#######################################################################
#
# If this CIF has been generated from an entry in the Cambridge 
# Structural Database, then it will include bibliographic, chemical, 
# crystal, experimental, refinement or atomic coordinate data resulting 
# from the CCDC's data processing and validation procedures.
#
#######################################################################

data_COYJAD
_symmetry_cell_setting           monoclinic
_symmetry_space_group_name_H-M   'C 2/c'
_symmetry_Int_Tables_number      15
_space_group_name_Hall           '-C 2yn'
loop_
_symmetry_equiv_pos_site_id
_symmetry_equiv_pos_as_xyz
1 x,y,z
2 -x,y,1/2-z
3 1/2+x,1/2+y,z
4 1/2-x,1/2+y,1/2-z
5 -x,-y,-z
6 x,-y,1/2+z
7 1/2-x,1/2-y,-z
8 1/2+x,1/2-y,1/2+z
_cell_length_a                   24.1650(15)
_cell_length_b                   11.2586(7)
_cell_length_c                   20.1253(12)
_cell_angle_alpha                90
_cell_angle_beta                 95.3670(10)
_cell_angle_gamma                90
_cell_volume                     5451.37
loop_
_atom_site_label
_atom_site_type_symbol
_atom_site_fract_x
_atom_site_fract_y
_atom_site_fract_z
Eu1 Eu 0.423698(8) 0.330742(18) 0.206850(10)
C1 C 0.3564(2) 0.5375(5) 0.3049(3)
H1 H 0.3810 0.5865 0.2849
C2 C 0.3254(3) 0.5872(5) 0.3521(3)
H2 H 0.3297 0.6669 0.3636
C3 C 0.2877(2) 0.5165(5) 0.3822(3)
H3 H 0.2666 0.5474 0.4145
C4 C 0.2824(2) 0.3985(5) 0.3626(3)
C5 C 0.3170(2) 0.3554(5) 0.3149(3)
C6 C 0.31165(19) 0.2309(4) 0.2926(2)
C7 C 0.2728(2) 0.1528(4) 0.3185(3)
C8 C 0.2722(2) 0.0327(4) 0.2982(3)
H4 H 0.2478 -0.0214 0.3146
C9 C 0.3090(2) -0.0022(5) 0.2532(3)
H5 H 0.3100 -0.0807 0.2390
C10 C 0.3436(2) 0.0801(5) 0.2300(3)
H6 H 0.3670 0.0547 0.1987
C11 C 0.2386(2) 0.2021(5) 0.3650(3)
C12 C 0.2432(2) 0.3155(5) 0.3877(3)
C13 C 0.1805(2) 0.2356(5) 0.4405(3)
C14 C 0.0172(2) 0.1534(4) 0.6247(3)
C15 C 0.0595(2) 0.1723(4) 0.5760(3)
C16 C 0.0909(2) 0.2751(5) 0.5811(2)
H7 H 0.0863 0.3297 0.6148
C17 C 0.1301(2) 0.2962(5) 0.5346(3)
H8 H 0.1510 0.3657 0.5376
C18 C 0.1377(2) 0.2147(5) 0.4844(2)
C19 C 0.1068(2) 0.1097(5) 0.4822(3)
H9 H 0.1127 0.0518 0.4507
C20 C 0.0674(2) 0.0914(5) 0.5269(3)
H10 H 0.0459 0.0228 0.5236
C21 C 0.3403(2) 0.3078(5) 0.0986(3)
C22 C 0.2938(2) 0.2816(5) 0.0473(2)
C23 C 0.2977(2) 0.1821(5) 0.0056(3)
H11 H 0.3298 0.1360 0.0094
C24 C 0.2456(3) 0.3476(5) 0.0409(3)
H12 H 0.2423 0.4133 0.0683
C25 C 0.4656(2) -0.1082(5) 0.2027(3)
H13 H 0.4429 -0.0674 0.1706
C26 C 0.5000 -0.0459(6) 0.2500
C27 C 0.5000 0.0868(6) 0.2500
C28 C 0.4655(2) -0.2301(5) 0.2038(3)
H14 H 0.4418 -0.2715 0.1729
C29 C 0.5000 -0.2924(6) 0.2500
C30 C 0.5000 -0.4255(5) 0.2500
N1 N 0.35340(17) 0.4250(4) 0.28630(19)
N2 N 0.34697(18) 0.1928(4) 0.2479(2)
N3 N 0.2067(2) 0.3358(4) 0.4341(3)
H15 H 0.2020 0.4011 0.4550
N4 N 0.19769(18) 0.1504(4) 0.3975(2)
O1 O 0.34184(14) 0.4054(3) 0.13151(17)
O2 O 0.37754(15) 0.2289(3) 0.11024(17)
O3 O -0.03065(14) 0.1152(4) 0.60380(17)
O4 O 0.02854(15) 0.1791(3) 0.68536(17)
O5 O 0.46068(15) 0.1379(3) 0.2153(2)
O6 O 0.45696(14) -0.4759(3) 0.22421(18)
C21F C 0.1597(2) 0.1922(5) -0.0986(3)
C22F C 0.2062(2) 0.2184(5) -0.0473(2)
C23F C 0.2023(2) 0.3179(5) -0.0056(3)
H11F H 0.1702 0.3640 -0.0094
C24F C 0.2544(3) 0.1524(5) -0.0409(3)
H12F H 0.2577 0.0867 -0.0683
O1F O 0.15816(14) 0.0946(3) -0.13151(17)
O2F O 0.12246(15) 0.2711(3) -0.11024(17)
C25A C 0.5344(2) -0.1082(5) 0.2973(3)
H13A H 0.5571 -0.0674 0.3294
O5A O 0.53932(15) 0.1379(3) 0.2847(2)
C28A C 0.5345(2) -0.2301(5) 0.2962(3)
H14A H 0.5582 -0.2715 0.3271
O6A O 0.54304(14) -0.4759(3) 0.27579(18)
Eu1A Eu 0.576302(8) 0.330742(18) 0.293150(10)
C1A C 0.6436(2) 0.5375(5) 0.1951(3)
H1A H 0.6190 0.5865 0.2151
C2A C 0.6746(3) 0.5872(5) 0.1479(3)
H2A H 0.6703 0.6669 0.1364
C3A C 0.7123(2) 0.5165(5) 0.1178(3)
H3A H 0.7334 0.5474 0.0855
C4A C 0.7176(2) 0.3985(5) 0.1374(3)
C5A C 0.6830(2) 0.3554(5) 0.1851(3)
C6A C 0.68835(19) 0.2309(4) 0.2074(2)
C7A C 0.7272(2) 0.1528(4) 0.1815(3)
C8A C 0.7278(2) 0.0327(4) 0.2018(3)
H4A H 0.7522 -0.0214 0.1854
C9A C 0.6910(2) -0.0022(5) 0.2468(3)
H5A H 0.6900 -0.0807 0.2610
C10A C 0.6564(2) 0.0801(5) 0.2700(3)
H6A H 0.6330 0.0547 0.3013
C11A C 0.7614(2) 0.2021(5) 0.1350(3)
C12A C 0.7568(2) 0.3155(5) 0.1123(3)
C13A C 0.8195(2) 0.2356(5) 0.0595(3)
C14A C 0.9828(2) 0.1534(4) -0.1247(3)
C15A C 0.9405(2) 0.1723(4) -0.0760(3)
C16A C 0.9091(2) 0.2751(5) -0.0811(2)
H7A H 0.9137 0.3297 -0.1148
C17A C 0.8699(2) 0.2962(5) -0.0346(3)
H8A H 0.8490 0.3657 -0.0376
C18A C 0.8623(2) 0.2147(5) 0.0156(2)
C19A C 0.8932(2) 0.1097(5) 0.0178(3)
H9A H 0.8873 0.0518 0.0493
C20A C 0.9326(2) 0.0914(5) -0.0269(3)
H10A H 0.9541 0.0228 -0.0236
N1A N 0.64660(17) 0.4250(4) 0.21370(19)
N2A N 0.65303(18) 0.1928(4) 0.2521(2)
N3A N 0.7933(2) 0.3358(4) 0.0659(3)
H15A H 0.7980 0.4011 0.0450
N4A N 0.80231(18) 0.1504(4) 0.1025(2)
O3A O 1.03065(14) 0.1152(4) -0.10380(17)
O4A O 0.97146(15) 0.1791(3) -0.18536(17)
Eu1_2 Eu 0.423698(8) -0.669258(18) 0.206850(10)
Eu1A_2 Eu 0.576302(8) -0.669258(18) 0.293150(10)
Eu1F Eu 0.076302(8) 0.169258(18) -0.206850(10)
Eu1F_2 Eu 0.076302(8) 0.169258(18) 0.793150(10)
Eu1F_3 Eu 1.076302(8) 0.169258(18) -0.206850(10)
Eu1G Eu -0.076302(8) 0.169258(18) 0.706850(10)
Eu1G_2 Eu 0.923698(8) 0.169258(18) -0.293150(10)
O1A O 0.65816(14) 0.4054(3) 0.36849(17)
O2A O 0.62246(15) 0.2289(3) 0.38976(17)
O3F O 0.53065(14) 0.3848(4) 0.39620(17)
O3G O 0.46935(14) 0.3848(4) 0.10380(17)
O4F O 0.47146(15) 0.3209(3) 0.31464(17)
O4G O 0.52854(15) 0.3209(3) 0.18536(17)
O6_2 O 0.45696(14) 0.5241(3) 0.22421(18)
O6A_2 O 0.54304(14) 0.5241(3) 0.27579(18)
loop_
_geom_bond_atom_site_label_1
_geom_bond_atom_site_label_2
_geom_bond_site_symmetry_1
_geom_bond_site_symmetry_2
Eu1 N1 1_555 1_555
C1 H1 1_555 1_555
C2 C1 1_555 1_555
H2 C2 1_555 1_555
C3 C2 1_555 1_555
H3 C3 1_555 1_555
C4 C3 1_555 1_555
C5 C4 1_555 1_555
C6 C5 1_555 1_555
C7 C6 1_555 1_555
C8 C7 1_555 1_555
H4 C8 1_555 1_555
C9 C8 1_555 1_555
H5 C9 1_555 1_555
C10 C9 1_555 1_555
H6 C10 1_555 1_555
C11 C7 1_555 1_555
C12 C4 1_555 1_555
C13 C18 1_555 1_555
C14 C15 1_555 1_555
C15 C16 1_555 1_555
C16 H7 1_555 1_555
C17 C16 1_555 1_555
H8 C17 1_555 1_555
C18 C17 1_555 1_555
C19 C18 1_555 1_555
H9 C19 1_555 1_555
C20 C15 1_555 1_555
H10 C20 1_555 1_555
C21 C22 1_555 1_555
C22 C23 1_555 1_555
C23 H11 1_555 1_555
C24 C22 1_555 1_555
H12 C24 1_555 1_555
C25 H13 1_555 1_555
C26 C25 1_555 1_555
C27 C26 1_555 1_555
C28 C25 1_555 1_555
H14 C28 1_555 1_555
C29 C28 1_555 1_555
C30 C29 1_555 1_555
N1 C1 1_555 1_555
N2 Eu1 1_555 1_555
N3 C12 1_555 1_555
H15 N3 1_555 1_555
N4 C11 1_555 1_555
O1 Eu1 1_555 1_555
O2 Eu1 1_555 1_555
O3 C14 1_555 1_555
O4 C14 1_555 1_555
O5 Eu1 1_555 1_555
O6 C30 1_555 1_555
C21F C22F 1_555 1_555
C22F C23F 1_555 1_555
C23F C24 1_555 1_555
H11F C23F 1_555 1_555
C24F C23 1_555 1_555
H12F C24F 1_555 1_555
O1F C21F 1_555 1_555
O2F C21F 1_555 1_555
C25A C26 1_555 1_555
H13A C25A 1_555 1_555
O5A C27 1_555 1_555
C28A C29 1_555 1_555
H14A C28A 1_555 1_555
O6A C30 1_555 1_555
Eu1A O5A 1_555 1_555
C1A H1A 1_555 1_555
C2A C1A 1_555 1_555
H2A C2A 1_555 1_555
C3A C2A 1_555 1_555
H3A C3A 1_555 1_555
C4A C3A 1_555 1_555
C5A C4A 1_555 1_555
C6A C5A 1_555 1_555
C7A C6A 1_555 1_555
C8A C7A 1_555 1_555
H4A C8A 1_555 1_555
C9A C8A 1_555 1_555
H5A C9A 1_555 1_555
C10A C9A 1_555 1_555
H6A C10A 1_555 1_555
C11A C7A 1_555 1_555
C12A C4A 1_555 1_555
C13A C18A 1_555 1_555
C14A C15A 1_555 1_555
C15A C16A 1_555 1_555
C16A H7A 1_555 1_555
C17A C16A 1_555 1_555
H8A C17A 1_555 1_555
C18A C17A 1_555 1_555
C19A C18A 1_555 1_555
H9A C19A 1_555 1_555
C20A C15A 1_555 1_555
H10A C20A 1_555 1_555
N1A Eu1A 1_555 1_555
N2A Eu1A 1_555 1_555
N3A C12A 1_555 1_555
H15A N3A 1_555 1_555
N4A C11A 1_555 1_555
O3A C14A 1_555 1_555
O4A C14A 1_555 1_555
Eu1_2 O6 1_555 1_555
Eu1A_2 O6A 1_555 1_555
Eu1F O1F 1_555 1_555
Eu1F_2 O4 1_555 1_555
Eu1F_3 O3A 1_555 1_555
Eu1G O3 1_555 1_555
Eu1G_2 O4A 1_555 1_555
O1A Eu1A 1_555 1_555
O2A Eu1A 1_555 1_555
O3F Eu1A 1_555 1_555
O3G Eu1 1_555 1_555
O4F Eu1 1_555 1_555
O4G Eu1 1_555 1_555
O6_2 Eu1 1_555 1_555
O6A_2 Eu1A 1_555 1_555
C5 N1 1_555 1_555
C6 N2 1_555 1_555
C10 N2 1_555 1_555
C11 C12 1_555 1_555
C13 N3 1_555 1_555
C13 N4 1_555 1_555
C19 C20 1_555 1_555
C21 O1 1_555 1_555
C21 O2 1_555 1_555
C27 O5 1_555 1_555
O4 Eu1G 1_555 1_555
C22F C24F 1_555 1_555
O2F Eu1F 1_555 1_555
C25A C28A 1_555 1_555
Eu1A O4F 1_555 1_555
Eu1A O4G 1_555 1_555
C1A N1A 1_555 1_555
C5A N1A 1_555 1_555
C6A N2A 1_555 1_555
C10A N2A 1_555 1_555
C11A C12A 1_555 1_555
C13A N3A 1_555 1_555
C13A N4A 1_555 1_555
C19A C20A 1_555 1_555
O4A Eu1F_3 1_555 1_555

#END
