
#######################################################################
#
#                 Cambridge Crystallographic Data Centre
#                                CCDC 
#
#######################################################################
#
# If this CIF has been generated from an entry in the Cambridge 
# Structural Database, then it will include bibliographic, chemical, 
# crystal, experimental, refinement or atomic coordinate data resulting 
# from the CCDC's data processing and validation procedures.
#
#######################################################################

data_COYJOR
_symmetry_cell_setting           orthorhombic
_symmetry_space_group_name_H-M   'P b c a'
_symmetry_Int_Tables_number      61
_space_group_name_Hall           '-P 2ac 2ab'
loop_
_symmetry_equiv_pos_site_id
_symmetry_equiv_pos_as_xyz
1 x,y,z
2 1/2-x,-y,1/2+z
3 -x,1/2+y,1/2-z
4 1/2+x,1/2-y,-z
5 -x,-y,-z
6 1/2+x,y,1/2-z
7 x,1/2-y,1/2+z
8 1/2-x,1/2+y,z
_cell_length_a                   16.6588(15)
_cell_length_b                   17.6541(17)
_cell_length_c                   19.2806(18)
_cell_angle_alpha                90
_cell_angle_beta                 90
_cell_angle_gamma                90
_cell_volume                     5670.35
loop_
_atom_site_label
_atom_site_type_symbol
_atom_site_fract_x
_atom_site_fract_y
_atom_site_fract_z
Eu1 Eu 0.943622(15) 0.066574(14) 0.572491(13)
C1 C 0.7372(3) 0.0519(3) 0.6054(3)
C2 C 0.7387(3) 0.1065(3) 0.5488(3)
C3 C 0.8130(3) 0.1880(3) 0.4805(3)
H1 H 0.8625 0.2081 0.4679
C4 C 0.7451(4) 0.2176(4) 0.4488(4)
H2 H 0.7492 0.2557 0.4157
C5 C 0.6717(4) 0.1891(4) 0.4678(3)
H3 H 0.6252 0.2071 0.4466
C6 C 0.6666(3) 0.1329(3) 0.5191(3)
C7 C 0.5936(3) 0.1034(4) 0.5467(3)
C8 C 0.5926(3) 0.0564(3) 0.6023(3)
C9 C 0.6637(3) 0.0264(3) 0.6329(3)
C10 C 0.6675(4) -0.0249(4) 0.6880(3)
H4 H 0.6203 -0.0428 0.7080
C11 C 0.7397(4) -0.0487(4) 0.7127(3)
H5 H 0.7425 -0.0827 0.7494
C12 C 0.8092(3) -0.0211(4) 0.6818(3)
H6 H 0.8583 -0.0381 0.6987
C13 C 0.4696(3) 0.0806(3) 0.5734(3)
C14 C 0.3809(3) 0.0789(3) 0.5706(3)
C15 C 0.3367(4) 0.0652(4) 0.6307(4)
H7 H 0.3626 0.0591 0.6731
C16 C 0.2541(3) 0.0609(4) 0.6266(3)
H8 H 0.2243 0.0525 0.6666
C17 C 0.2149(3) 0.0688(3) 0.5635(3)
C18 C 0.2592(3) 0.0845(3) 0.5052(3)
H9 H 0.2335 0.0905 0.4627
C19 C 0.3420(3) 0.0916(3) 0.5093(3)
H10 H 0.3713 0.1051 0.4700
C20 C 0.1257(3) 0.0608(3) 0.5596(3)
C21 C 0.9506(3) 0.1576(3) 0.6928(3)
C22 C 0.9650(3) 0.2134(3) 0.7505(3)
C23 C 0.9033(3) 0.2576(4) 0.7717(3)
H11 H 0.8530 0.2524 0.7513
C24 C 0.9150(3) 0.3112(3) 0.8243(3)
H12 H 0.8720 0.3412 0.8382
C25 C 0.9870(3) 0.3204(3) 0.8554(3)
C26 C 1.0542(3) 0.2768(3) 0.8334(3)
C27 C 1.0434(3) 0.2215(3) 0.7804(3)
C28 C 1.1115(4) 0.1819(3) 0.7555(3)
H13 H 1.1058 0.1467 0.7199
C29 C 1.1858(4) 0.1954(4) 0.7837(4)
H14 H 1.2300 0.1691 0.7667
C30 C 1.1965(4) 0.2481(4) 0.8375(4)
H15 H 1.2473 0.2565 0.8561
C31 C 1.1321(4) 0.2865(4) 0.8620(3)
H16 H 1.1391 0.3203 0.8985
C32 C 0.9986(3) 0.3826(3) 0.9080(3)
N1 N 0.8099(2) 0.0282(3) 0.6295(2)
N2 N 0.8122(2) 0.1328(3) 0.5277(2)
N3 N 0.5126(3) 0.0413(3) 0.6200(3)
N4 N 0.5150(3) 0.1186(3) 0.5286(3)
H17 H 0.4987 0.1468 0.4951
O1 O 0.9574(2) 0.0887(2) 0.7014(2)
O2 O 0.9303(2) 0.1848(2) 0.6341(2)
O3 O 0.0825(2) 0.0951(3) 0.6014(2)
O4 O 0.0961(2) 0.0176(2) 0.5134(2)
O5 O 1.0215(2) 0.4456(2) 0.8842(2)
O6 O 0.9820(2) 0.3686(2) 0.96993(19)
Eu1_2 Eu -0.056378(15) 0.066574(14) 0.572491(13)
Eu1B Eu 1.056378(15) 0.566574(14) 0.927509(13)
Eu1D Eu 0.056378(15) -0.066574(14) 0.427509(13)
Eu1F Eu 0.943622(15) 0.433426(14) 1.072491(13)
O3_2 O 1.0825(2) 0.0951(3) 0.6014(2)
O4_2 O 1.0961(2) 0.0176(2) 0.5134(2)
O4D O 0.9039(2) -0.0176(2) 0.4866(2)
O5B O 0.9785(2) -0.0544(2) 0.6158(2)
O6F O 0.9820(2) 0.1314(2) 0.46993(19)
O7 O 0.5359(3) 0.0719(3) 0.2876(3)
H18 H 0.5419 0.1132 0.3082
H19 H 0.4889 0.0702 0.2683
O8 O 0.9782(3) 0.3330(3) 0.6088(3)
H20 H 0.9330 0.3532 0.6149
H21 H 0.9678 0.2853 0.6038
loop_
_geom_bond_atom_site_label_1
_geom_bond_atom_site_label_2
_geom_bond_site_symmetry_1
_geom_bond_site_symmetry_2
Eu1 N1 1_555 1_555
C1 C2 1_555 1_555
C2 C6 1_555 1_555
C3 H1 1_555 1_555
C4 C3 1_555 1_555
H2 C4 1_555 1_555
C5 C4 1_555 1_555
H3 C5 1_555 1_555
C6 C5 1_555 1_555
C7 C6 1_555 1_555
C8 C7 1_555 1_555
C9 C1 1_555 1_555
C10 C9 1_555 1_555
H4 C10 1_555 1_555
C11 C10 1_555 1_555
H5 C11 1_555 1_555
C12 C11 1_555 1_555
H6 C12 1_555 1_555
C13 C14 1_555 1_555
C14 C15 1_555 1_555
C15 H7 1_555 1_555
C16 C15 1_555 1_555
H8 C16 1_555 1_555
C17 C16 1_555 1_555
C18 C17 1_555 1_555
H9 C18 1_555 1_555
C19 C14 1_555 1_555
H10 C19 1_555 1_555
C20 C17 1_555 1_555
C21 C22 1_555 1_555
C22 C23 1_555 1_555
C23 H11 1_555 1_555
C24 C23 1_555 1_555
H12 C24 1_555 1_555
C25 C24 1_555 1_555
C26 C25 1_555 1_555
C27 C22 1_555 1_555
C28 C27 1_555 1_555
H13 C28 1_555 1_555
C29 C28 1_555 1_555
H14 C29 1_555 1_555
C30 C29 1_555 1_555
H15 C30 1_555 1_555
C31 C26 1_555 1_555
H16 C31 1_555 1_555
C32 C25 1_555 1_555
N1 C1 1_555 1_555
N2 Eu1 1_555 1_555
N3 C8 1_555 1_555
N4 C7 1_555 1_555
H17 N4 1_555 1_555
O1 Eu1 1_555 1_555
O2 Eu1 1_555 1_555
O3 C20 1_555 1_555
O4 C20 1_555 1_555
O5 C32 1_555 1_555
O6 C32 1_555 1_555
O7 H18 1_555 1_555
H19 O7 1_555 1_555
O8 H20 1_555 1_555
H21 O8 1_555 1_555
Eu1_2 O3 1_555 1_555
Eu1B O5 1_555 1_555
Eu1D O4 1_555 1_555
Eu1F O6 1_555 1_555
O3_2 Eu1 1_555 1_555
O4_2 Eu1 1_555 1_555
O4D Eu1 1_555 1_555
O5B Eu1 1_555 1_555
O6F Eu1 1_555 1_555
C2 N2 1_555 1_555
C3 N2 1_555 1_555
C8 C9 1_555 1_555
C12 N1 1_555 1_555
C13 N3 1_555 1_555
C13 N4 1_555 1_555
C18 C19 1_555 1_555
C21 O1 1_555 1_555
C21 O2 1_555 1_555
C26 C27 1_555 1_555
C30 C31 1_555 1_555
O4 Eu1_2 1_555 1_555

#END
