
#######################################################################
#
#                 Cambridge Crystallographic Data Centre
#                                CCDC 
#
#######################################################################
#
# If this CIF has been generated from an entry in the Cambridge 
# Structural Database, then it will include bibliographic, chemical, 
# crystal, experimental, refinement or atomic coordinate data resulting 
# from the CCDC's data processing and validation procedures.
#
#######################################################################

data_COYKAD
_symmetry_cell_setting           triclinic
_symmetry_space_group_name_H-M   'P 1'
_symmetry_Int_Tables_number      1
_space_group_name_Hall           'P 1'
loop_
_symmetry_equiv_pos_site_id
_symmetry_equiv_pos_as_xyz
1 x,y,z
_cell_length_a                   10.088(2)
_cell_length_b                   10.8629(12)
_cell_length_c                   11.649(3)
_cell_angle_alpha                63.016(3)
_cell_angle_beta                 81.998(4)
_cell_angle_gamma                88.6040(10)
_cell_volume                     1125.41
loop_
_atom_site_label
_atom_site_type_symbol
_atom_site_fract_x
_atom_site_fract_y
_atom_site_fract_z
C1 C 0.5454(7) 0.7507(6) 0.1852(6)
C2 C 0.6117(7) 0.6165(7) 0.2217(7)
H1 H 0.7088 0.6341 0.2083
C3 C 0.5814(7) 0.5494(7) 0.1403(8)
H2 H 0.6173 0.6076 0.0499
H3 H 0.4851 0.5384 0.1463
C4 C 0.6456(8) 0.4031(8) 0.1892(7)
H4 H 0.6227 0.3585 0.1384
H5 H 0.7424 0.4148 0.1768
C5 C 0.5957(8) 0.3149(8) 0.3291(8)
H6 H 0.4996 0.2983 0.3406
H7 H 0.6374 0.2263 0.3585
C6 C 0.6267(8) 0.3826(9) 0.4080(9)
H8 H 0.7231 0.3948 0.3992
H9 H 0.5944 0.3224 0.4989
C7 C 0.5656(8) 0.5198(8) 0.3697(7)
H10 H 0.5931 0.5617 0.4211
H11 H 0.4687 0.5077 0.3865
C8 C 0.0203(7) 0.7410(8) 0.1991(7)
C9 C 0.0358(7) 0.5908(7) 0.2557(7)
H12 H -0.0548 0.5478 0.2885
C10 C 0.0946(8) 0.5476(9) 0.1531(7)
H13 H 0.1842 0.5894 0.1171
H14 H 0.0406 0.5823 0.0830
C11 C 0.1013(8) 0.3912(8) 0.2067(8)
H15 H 0.1437 0.3692 0.1387
H16 H 0.0113 0.3494 0.2350
C12 C 0.1810(8) 0.3319(8) 0.3214(8)
H17 H 0.1773 0.2318 0.3587
H18 H 0.2741 0.3638 0.2900
C13 C 0.1291(11) 0.3730(9) 0.4254(9)
H19 H 0.1900 0.3432 0.4896
H20 H 0.0428 0.3258 0.4688
C14 C 0.1132(9) 0.5324(8) 0.3711(8)
H21 H 0.0668 0.5514 0.4397
H22 H 0.2013 0.5785 0.3446
C15 C 0.3175(7) 1.1887(9) 0.0084(6)
C16 C 0.3207(7) 1.3350(8) -0.0930(7)
H23 H 0.2359 1.3732 -0.0748
C17 C 0.3259(8) 1.3454(7) -0.2278(7)
H24 H 0.4058 1.3030 -0.2474
H25 H 0.2486 1.2957 -0.2301
C18 C 0.3274(8) 1.4933(8) -0.3282(9)
H26 H 0.2433 1.5323 -0.3127
H27 H 0.3338 1.4968 -0.4135
C19 C 0.4422(7) 1.5814(8) -0.3281(6)
H28 H 0.5275 1.5484 -0.3500
H29 H 0.4362 1.6770 -0.3915
C20 C 0.4302(10) 1.5694(9) -0.1919(7)
H30 H 0.3480 1.6105 -0.1751
H31 H 0.5044 1.6217 -0.1878
C21 C 0.4297(8) 1.4195(8) -0.0847(8)
H32 H 0.5155 1.3805 -0.0948
H33 H 0.4162 1.4180 0.0000
C22 C 0.4139(7) 0.9270(8) 0.8653(7)
H34 H 0.4936 0.9169 0.8997
C23 C 0.4192(8) 0.9319(8) 0.7417(7)
H35 H 0.5010 0.9304 0.6944
C24 C 0.2975(8) 0.9391(8) 0.6904(8)
C25 C 0.1849(6) 0.9386(7) 0.7696(6)
H36 H 0.1021 0.9382 0.7433
C26 C 0.1884(7) 0.9385(8) 0.8883(6)
H37 H 0.1073 0.9403 0.9363
C27 C 0.2019(7) 0.8663(7) 0.4312(7)
H38 H 0.1334 0.8184 0.4204
C28 C 0.1955(7) 0.8705(8) 0.5470(7)
H39 H 0.1219 0.8307 0.6112
C29 C 0.2984(8) 0.9340(8) 0.5679(7)
C30 C 0.4093(7) 0.9856(8) 0.4672(7)
H40 H 0.4853 1.0247 0.4770
C31 C 0.4012(6) 0.9762(7) 0.3570(6)
H41 H 0.4752 1.0087 0.2922
C32 C 0.7580(7) 0.8524(10) 0.3937(7)
H42 H 0.7171 0.7801 0.3877
C33 C 0.7603(7) 0.8448(7) 0.5172(7)
H43 H 0.7255 0.7659 0.5916
C34 C 0.8126(9) 0.9510(9) 0.5287(8)
C35 C 0.8699(8) 1.0592(9) 0.4185(7)
H44 H 0.9111 1.1327 0.4222
C36 C 0.8667(7) 1.0598(7) 0.2964(6)
H45 H 0.9054 1.1354 0.2209
C37 C 0.8130(9) 0.9535(10) 0.6574(8)
C38 C 0.8204(8) 0.8321(8) 0.7699(6)
H46 H 0.8266 0.7471 0.7688
C39 C 0.8181(7) 0.8428(6) 0.8846(6)
H47 H 0.8276 0.7619 0.9593
C40 C 0.7959(7) 1.0763(9) 0.7827(6)
H48 H 0.7865 1.1610 0.7841
C41 C 0.8015(6) 1.0754(7) 0.6636(7)
H49 H 0.7976 1.1576 0.5884
Mn1 Mn 0.29591(9) 0.91545(9) 0.14274(8)
Mn2 Mn 0.80518(8) 0.96387(8) 0.09013(7)
N1 N 0.8122(8) 0.9591(8) 0.2865(7)
N2 N 0.8029(6) 0.9628(6) 0.8974(6)
N3 N 0.2997(7) 0.9262(8) 0.3337(7)
N4 N 0.2988(7) 0.9361(8) 0.9374(7)
O1 O 0.6838(5) 1.1520(6) 0.0249(5)
H50 H 0.6106 1.1353 0.0764
H51 H 0.7283 1.2171 0.0256
O2 O 0.9672(4) 1.1250(5) -0.0034(5)
H52 H 0.9845 1.1462 -0.0839
H53 H 1.0367 1.0943 0.0326
O3 O 0.6145(5) 0.8593(5) 0.1562(5)
O4 O 0.4231(7) 0.7548(6) 0.1813(6)
O5 O -0.0846(5) 0.7832(5) 0.1461(5)
O6 O 0.1044(5) 0.8205(5) 0.2055(5)
O7 O 0.2038(5) 1.1253(5) 0.0616(5)
O8 O 0.4191(5) 1.1250(5) 0.0313(5)
Mn1_2 Mn 0.29591(9) 0.91545(9) 1.14274(8)
Mn2_2 Mn 0.80518(8) 0.96387(8) 1.09013(7)
Mn2_3 Mn -0.19482(8) 0.96387(8) 0.09013(7)
N2_2 N 0.8029(6) 0.9628(6) -0.1026(6)
N4_2 N 0.2988(7) 0.9361(8) -0.0626(7)
O5_2 O 0.9154(5) 0.7832(5) 0.1461(5)
Cl1 Cl 0.8858(2) 0.4691(2) 0.7380(2)
O9 O 0.7998(6) 0.4781(6) 0.6405(6)
O10 O 0.8002(6) 0.4435(6) 0.8526(6)
O11 O 0.9705(6) 0.3612(6) 0.7547(5)
O12 O 0.9543(6) 0.5934(6) 0.6811(6)
loop_
_geom_bond_atom_site_label_1
_geom_bond_atom_site_label_2
_geom_bond_site_symmetry_1
_geom_bond_site_symmetry_2
C1 C2 1_555 1_555
C2 H1 1_555 1_555
C3 C2 1_555 1_555
H2 C3 1_555 1_555
H3 C3 1_555 1_555
C4 C3 1_555 1_555
H4 C4 1_555 1_555
H5 C4 1_555 1_555
C5 C4 1_555 1_555
H6 C5 1_555 1_555
H7 C5 1_555 1_555
C6 C5 1_555 1_555
H8 C6 1_555 1_555
H9 C6 1_555 1_555
C7 C2 1_555 1_555
H10 C7 1_555 1_555
H11 C7 1_555 1_555
C8 C9 1_555 1_555
C9 H12 1_555 1_555
C10 C9 1_555 1_555
H13 C10 1_555 1_555
H14 C10 1_555 1_555
C11 C10 1_555 1_555
H15 C11 1_555 1_555
H16 C11 1_555 1_555
C12 C11 1_555 1_555
H17 C12 1_555 1_555
H18 C12 1_555 1_555
C13 C12 1_555 1_555
H19 C13 1_555 1_555
H20 C13 1_555 1_555
C14 C9 1_555 1_555
H21 C14 1_555 1_555
H22 C14 1_555 1_555
C15 C16 1_555 1_555
C16 H23 1_555 1_555
C17 C16 1_555 1_555
H24 C17 1_555 1_555
H25 C17 1_555 1_555
C18 C17 1_555 1_555
H26 C18 1_555 1_555
H27 C18 1_555 1_555
C19 C18 1_555 1_555
H28 C19 1_555 1_555
H29 C19 1_555 1_555
C20 C19 1_555 1_555
H30 C20 1_555 1_555
H31 C20 1_555 1_555
C21 C16 1_555 1_555
H32 C21 1_555 1_555
H33 C21 1_555 1_555
C22 H34 1_555 1_555
C23 C22 1_555 1_555
H35 C23 1_555 1_555
C24 C23 1_555 1_555
C25 C24 1_555 1_555
H36 C25 1_555 1_555
C26 C25 1_555 1_555
H37 C26 1_555 1_555
C27 H38 1_555 1_555
C28 C27 1_555 1_555
H39 C28 1_555 1_555
C29 C24 1_555 1_555
C30 C29 1_555 1_555
H40 C30 1_555 1_555
C31 C30 1_555 1_555
H41 C31 1_555 1_555
C32 H42 1_555 1_555
C33 C32 1_555 1_555
H43 C33 1_555 1_555
C34 C33 1_555 1_555
C35 C34 1_555 1_555
H44 C35 1_555 1_555
C36 C35 1_555 1_555
H45 C36 1_555 1_555
C37 C34 1_555 1_555
C38 C37 1_555 1_555
H46 C38 1_555 1_555
C39 C38 1_555 1_555
H47 C39 1_555 1_555
C40 H48 1_555 1_555
C41 C37 1_555 1_555
H49 C41 1_555 1_555
Cl1 O9 1_555 1_555
Mn1 N3 1_555 1_555
Mn2 N1 1_555 1_555
N1 C32 1_555 1_555
N2 C39 1_555 1_555
N3 C27 1_555 1_555
N4 C22 1_555 1_555
O1 Mn2 1_555 1_555
H50 O1 1_555 1_555
H51 O1 1_555 1_555
O2 Mn2 1_555 1_555
H52 O2 1_555 1_555
H53 O2 1_555 1_555
O3 C1 1_555 1_555
O4 C1 1_555 1_555
O5 C8 1_555 1_555
O6 C8 1_555 1_555
O7 C15 1_555 1_555
O8 C15 1_555 1_555
O10 Cl1 1_555 1_555
O11 Cl1 1_555 1_555
O12 Cl1 1_555 1_555
Mn1_2 N4 1_555 1_555
Mn2_2 N2 1_555 1_555
Mn2_3 O5 1_555 1_555
N2_2 Mn2 1_555 1_555
N4_2 Mn1 1_555 1_555
O5_2 Mn2 1_555 1_555
C6 C7 1_555 1_555
C13 C14 1_555 1_555
C20 C21 1_555 1_555
C26 N4 1_555 1_555
C28 C29 1_555 1_555
C31 N3 1_555 1_555
C36 N1 1_555 1_555
C40 C41 1_555 1_555
C40 N2 1_555 1_555
Mn1 O4 1_555 1_555
Mn1 O6 1_555 1_555
Mn1 O7 1_555 1_555
Mn1 O8 1_555 1_555
Mn2 O3 1_555 1_555

#END
