
#######################################################################
#
#                 Cambridge Crystallographic Data Centre
#                                CCDC 
#
#######################################################################
#
# If this CIF has been generated from an entry in the Cambridge 
# Structural Database, then it will include bibliographic, chemical, 
# crystal, experimental, refinement or atomic coordinate data resulting 
# from the CCDC's data processing and validation procedures.
#
#######################################################################

data_COYMUA
_symmetry_cell_setting           triclinic
_symmetry_space_group_name_H-M   'P -1'
_symmetry_Int_Tables_number      2
_space_group_name_Hall           '-P 1'
loop_
_symmetry_equiv_pos_site_id
_symmetry_equiv_pos_as_xyz
1 x,y,z
2 -x,-y,-z
_cell_length_a                   9.8065(8)
_cell_length_b                   11.5724(13)
_cell_length_c                   15.2320(11)
_cell_angle_alpha                102.894(2)
_cell_angle_beta                 91.0670(10)
_cell_angle_gamma                106.558(2)
_cell_volume                     1608.87
loop_
_atom_site_label
_atom_site_type_symbol
_atom_site_fract_x
_atom_site_fract_y
_atom_site_fract_z
O1 O -0.2874(2) 0.6972(2) 0.36493(14)
C1 C -0.2272(3) 0.6115(3) 0.36022(18)
Cu1 Cu 0.53438(3) 0.70185(3) 0.41159(2)
N1 N 0.3624(2) 0.7226(2) 0.47188(14)
O2 O 0.4313(2) 0.56726(18) 0.30940(11)
N2 N 0.6275(2) 0.8576(2) 0.50583(15)
O3 O 0.1959(2) 0.62862(19) 0.11236(12)
O4 O -0.2495(2) 0.53506(19) 0.40764(13)
O5 O 0.4309(2) 0.72873(18) 0.25472(13)
C2 C 0.4114(3) 0.6151(3) 0.24455(17)
C3 C 0.2658(3) 0.5372(3) 0.09123(17)
C4 C -0.1183(3) 0.6107(3) 0.29216(17)
C5 C 0.3668(3) 0.5280(2) 0.15288(16)
C6 C 0.0920(3) 0.6158(3) 0.17249(16)
C7 C 0.3865(3) 0.8255(3) 0.53967(17)
C8 C 0.0510(3) 0.5183(3) 0.21469(18)
H1 H 0.0932 0.4546 0.2029
C9 C 0.0274(3) 0.7101(3) 0.18854(17)
H2 H 0.0553 0.7752 0.1600
C10 C -0.0785(3) 0.7064(3) 0.24728(17)
H3 H -0.1237 0.7682 0.2570
C11 C 0.5370(3) 0.9023(3) 0.55936(17)
C12 C -0.0534(3) 0.5169(3) 0.27450(18)
H4 H -0.0806 0.4521 0.3034
C13 C 0.4005(3) 0.3575(3) 0.03989(19)
H5 H 0.4460 0.2968 0.0223
C14 C 0.2335(3) 0.4607(3) 0.00588(18)
H6 H 0.1666 0.4695 -0.0342
C15 C 0.4330(3) 0.4347(3) 0.12625(18)
C16 C 0.2293(3) 0.6458(3) 0.45083(19)
H7 H 0.2127 0.5754 0.4036
C17 C 0.2767(3) 0.8533(3) 0.58756(19)
H8 H 0.2945 0.9251 0.6335
C18 C 0.1403(3) 0.7724(3) 0.5659(2)
H9 H 0.0654 0.7889 0.5978
C19 C 0.3015(3) 0.3700(3) -0.02011(19)
H10 H 0.2803 0.3178 -0.0778
C20 C 0.7286(4) 1.0712(3) 0.6416(2)
H11 H 0.7624 1.1443 0.6864
C21 C 0.1156(3) 0.6678(3) 0.4972(2)
H12 H 0.0242 0.6126 0.4820
C22 C 0.7671(3) 0.9180(3) 0.5212(2)
H13 H 0.8300 0.8872 0.4848
C23 C 0.5846(3) 1.0090(3) 0.62722(19)
H14 H 0.5203 1.0387 0.6630
C24 C 0.8215(4) 1.0240(3) 0.5889(2)
H15 H 0.9193 1.0630 0.5989
O1_2 O 0.7126(2) 0.6972(2) 0.36493(14)
Cu1_2 Cu -0.46562(3) 0.70185(3) 0.41159(2)
O6 O 0.3787(2) 0.39654(19) 0.44977(12)
H16 H 0.3368 0.4314 0.4882
O7 O 0.5169(2) 0.07651(19) 0.08752(12)
C25 C 0.6633(3) 0.0983(3) 0.08385(17)
O8 O 0.1627(2) 0.3251(2) 0.37467(15)
C26 C 0.4692(3) 0.1390(3) 0.16270(17)
C27 C 0.4995(3) 0.2887(3) 0.30350(17)
H17 H 0.5590 0.3475 0.3510
C28 C 0.3537(3) 0.2636(3) 0.30454(17)
C29 C 0.3222(3) 0.1107(3) 0.16323(18)
H18 H 0.2627 0.0500 0.1167
O9 O 0.5321(3) -0.1272(2) 0.14508(14)
H19 H 0.5033 -0.1783 0.1753
C30 C 0.2874(3) 0.3306(3) 0.37849(19)
C31 C 0.5590(3) 0.2275(3) 0.23256(17)
H20 H 0.6576 0.2456 0.2319
C32 C 0.9534(4) 0.1458(4) 0.0712(2)
H21 H 1.0512 0.1616 0.0669
C33 C 0.7343(3) 0.0287(3) 0.12026(18)
C34 C 0.2651(3) 0.1738(3) 0.23399(19)
H22 H 0.1665 0.1562 0.2345
O10 O 0.7337(3) -0.0857(3) 0.23026(18)
C35 C 0.7354(3) 0.1894(3) 0.04213(19)
H23 H 0.6861 0.2344 0.0179
C36 C 0.8805(3) 0.2135(3) 0.0364(2)
H24 H 0.9292 0.2755 0.0089
C37 C 0.6667(4) -0.0681(3) 0.1698(2)
C38 C 0.8810(4) 0.0547(3) 0.1126(2)
H25 H 0.9310 0.0094 0.1359
loop_
_geom_bond_atom_site_label_1
_geom_bond_atom_site_label_2
_geom_bond_site_symmetry_1
_geom_bond_site_symmetry_2
O1 C1 1_555 1_555
C1 O4 1_555 1_555
Cu1 N1 1_555 1_555
N1 C7 1_555 1_555
O2 Cu1 1_555 1_555
N2 Cu1 1_555 1_555
O3 C3 1_555 1_555
O5 Cu1 1_555 1_555
C2 O2 1_555 1_555
C3 C5 1_555 1_555
C4 C1 1_555 1_555
C5 C2 1_555 1_555
C6 O3 1_555 1_555
C7 C11 1_555 1_555
C8 C6 1_555 1_555
H1 C8 1_555 1_555
C9 C6 1_555 1_555
H2 C9 1_555 1_555
C10 C4 1_555 1_555
H3 C10 1_555 1_555
C11 N2 1_555 1_555
C12 C4 1_555 1_555
H4 C12 1_555 1_555
C13 H5 1_555 1_555
C14 C3 1_555 1_555
H6 C14 1_555 1_555
C15 C5 1_555 1_555
C16 N1 1_555 1_555
H7 C16 1_555 1_555
C17 C7 1_555 1_555
H8 C17 1_555 1_555
C18 C17 1_555 1_555
H9 C18 1_555 1_555
C19 C13 1_555 1_555
H10 C19 1_555 1_555
C20 H11 1_555 1_555
C21 C16 1_555 1_555
H12 C21 1_555 1_555
C22 N2 1_555 1_555
H13 C22 1_555 1_555
C23 C11 1_555 1_555
H14 C23 1_555 1_555
C24 C20 1_555 1_555
H15 C24 1_555 1_555
O6 H16 1_555 1_555
O7 C25 1_555 1_555
C25 C33 1_555 1_555
O8 C30 1_555 1_555
C26 O7 1_555 1_555
C27 H17 1_555 1_555
C28 C27 1_555 1_555
C29 C26 1_555 1_555
H18 C29 1_555 1_555
O9 H19 1_555 1_555
C30 O6 1_555 1_555
C31 C26 1_555 1_555
H20 C31 1_555 1_555
C32 H21 1_555 1_555
C33 C37 1_555 1_555
C34 C28 1_555 1_555
H22 C34 1_555 1_555
O10 C37 1_555 1_555
C35 C25 1_555 1_555
H23 C35 1_555 1_555
C36 C32 1_555 1_555
H24 C36 1_555 1_555
C37 O9 1_555 1_555
C38 C32 1_555 1_555
H25 C38 1_555 1_555
O1_2 Cu1 1_555 1_555
Cu1_2 O1 1_555 1_555
O5 C2 1_555 1_555
C8 C12 1_555 1_555
C9 C10 1_555 1_555
C13 C15 1_555 1_555
C14 C19 1_555 1_555
C18 C21 1_555 1_555
C20 C23 1_555 1_555
C22 C24 1_555 1_555
C27 C31 1_555 1_555
C28 C30 1_555 1_555
C29 C34 1_555 1_555
C33 C38 1_555 1_555
C35 C36 1_555 1_555

#END
