
#######################################################################
#
#                 Cambridge Crystallographic Data Centre
#                                CCDC 
#
#######################################################################
#
# If this CIF has been generated from an entry in the Cambridge 
# Structural Database, then it will include bibliographic, chemical, 
# crystal, experimental, refinement or atomic coordinate data resulting 
# from the CCDC's data processing and validation procedures.
#
#######################################################################

data_COZTUH
_symmetry_cell_setting           orthorhombic
_symmetry_space_group_name_H-M   'C m c a'
_symmetry_Int_Tables_number      64
_space_group_name_Hall           '-C 2ac 2'
loop_
_symmetry_equiv_pos_site_id
_symmetry_equiv_pos_as_xyz
1 x,y,z
2 -x,1/2-y,1/2+z
3 x,-y,-z
4 -x,1/2+y,1/2-z
5 1/2+x,1/2+y,z
6 1/2-x,-y,1/2+z
7 1/2+x,1/2-y,-z
8 1/2-x,y,1/2-z
9 -x,-y,-z
10 x,1/2+y,1/2-z
11 -x,y,z
12 x,1/2-y,1/2+z
13 1/2-x,1/2-y,-z
14 1/2+x,y,1/2-z
15 1/2-x,1/2+y,z
16 1/2+x,-y,1/2+z
_cell_length_a                   17.007(3)
_cell_length_b                   10.855(2)
_cell_length_c                   23.359(5)
_cell_angle_alpha                90
_cell_angle_beta                 90
_cell_angle_gamma                90
_cell_volume                     4312.33
loop_
_atom_site_label
_atom_site_type_symbol
_atom_site_fract_x
_atom_site_fract_y
_atom_site_fract_z
Co1 Co 0.0000 0.5000 0.0000
S1 S 0.0000 0.61843(10) 0.20035(4)
N1 N 0.09339(11) 0.37274(15) 0.02529(7)
C1 C 0.14399(12) 0.40954(18) 0.06581(9)
H1 H 0.1389 0.4911 0.0801
N2 N 0.23619(11) 0.49114(15) 0.15810(9)
C2 C 0.20359(13) 0.33595(19) 0.08830(9)
N3 N 0.29398(12) 0.51075(17) 0.19675(9)
C3 C 0.20935(15) 0.2162(2) 0.06714(12)
H2 H 0.2483 0.1617 0.0815
C4 C 0.15789(17) 0.1780(2) 0.02519(13)
H3 H 0.1612 0.0966 0.0105
C5 C 0.10165(16) 0.2580(2) 0.00460(10)
H4 H 0.0677 0.2312 -0.0252
C6 C 0.25595(13) 0.38519(19) 0.13266(9)
N4 N 0.0000 0.5772(2) 0.08226(11)
C7 C 0.32604(14) 0.3377(2) 0.15544(11)
H5 H 0.3524 0.2641 0.1447
C8 C 0.34820(14) 0.4207(2) 0.19665(11)
H6 H 0.3933 0.4156 0.2206
C9 C 0.28873(13) 0.6186(2) 0.23385(11)
H7 H 0.2928 0.6944 0.2105
H8 H 0.3329 0.6181 0.2614
C10 C 0.0000 0.5940(3) 0.13124(13)
Co1E Co 0.5000 0.5000 0.5000
Co1E_2 Co 0.5000 0.5000 -0.5000
S1B S 0.0000 0.38157(10) -0.20035(4)
N1G N 0.40661(11) 0.37274(15) 0.47471(7)
N1B N 0.09339(11) 0.62726(15) -0.02529(7)
N1E N 0.40661(11) 0.62726(15) -0.47471(7)
N1H N -0.09339(11) 0.62726(15) -0.02529(7)
N1J N -0.09339(11) 0.37274(15) 0.02529(7)
C1G C 0.35601(12) 0.40954(18) 0.43419(9)
C1B C 0.14399(12) 0.59046(18) -0.06581(9)
C1E C 0.35601(12) 0.59046(18) -0.43419(9)
H1G H 0.3611 0.4911 0.4199
H1B H 0.1389 0.5089 -0.0801
H1E H 0.3611 0.5089 -0.4199
N2G N 0.26381(11) 0.49114(15) 0.34190(9)
N2B N 0.23619(11) 0.50886(15) -0.15810(9)
N2E N 0.26381(11) 0.50886(15) -0.34190(9)
C2G C 0.29641(13) 0.33595(19) 0.41170(9)
C2B C 0.20359(13) 0.66405(19) -0.08830(9)
C2E C 0.29641(13) 0.66405(19) -0.41170(9)
N3G N 0.20602(12) 0.51075(17) 0.30325(9)
N3B N 0.29398(12) 0.48925(17) -0.19675(9)
N3E N 0.20602(12) 0.48925(17) -0.30325(9)
C3G C 0.29065(15) 0.2162(2) 0.43286(12)
C3B C 0.20935(15) 0.7838(2) -0.06714(12)
C3E C 0.29065(15) 0.7838(2) -0.43286(12)
H2G H 0.2517 0.1617 0.4185
H2B H 0.2483 0.8383 -0.0815
H2E H 0.2517 0.8383 -0.4185
C4G C 0.34211(17) 0.1780(2) 0.47481(13)
C4B C 0.15789(17) 0.8220(2) -0.02519(13)
C4E C 0.34211(17) 0.8220(2) -0.47481(13)
H3G H 0.3388 0.0966 0.4895
H3B H 0.1612 0.9034 -0.0105
H3E H 0.3388 0.9034 -0.4895
C5G C 0.39835(16) 0.2580(2) 0.49540(10)
C5B C 0.10165(16) 0.7420(2) -0.00460(10)
C5E C 0.39835(16) 0.7420(2) -0.49540(10)
H4G H 0.4323 0.2312 0.5252
H4B H 0.0677 0.7688 0.0252
H4E H 0.4323 0.7688 -0.5252
C6G C 0.24405(13) 0.38519(19) 0.36734(9)
C6B C 0.25595(13) 0.61481(19) -0.13266(9)
C6E C 0.24405(13) 0.61481(19) -0.36734(9)
N4B N 0.0000 0.4228(2) -0.08226(11)
C7G C 0.17396(14) 0.3377(2) 0.34456(11)
C7B C 0.32604(14) 0.6623(2) -0.15544(11)
C7E C 0.17396(14) 0.6623(2) -0.34456(11)
H5G H 0.1476 0.2641 0.3553
H5B H 0.3524 0.7359 -0.1447
H5E H 0.1476 0.7359 -0.3553
C8G C 0.15180(14) 0.4207(2) 0.30335(11)
C8B C 0.34820(14) 0.5793(2) -0.19665(11)
C8E C 0.15180(14) 0.5793(2) -0.30335(11)
H6G H 0.1067 0.4156 0.2794
H6B H 0.3933 0.5844 -0.2206
H6E H 0.1067 0.5844 -0.2794
C9G C 0.21127(13) 0.6186(2) 0.26615(11)
C9B C 0.28873(13) 0.3814(2) -0.23385(11)
C9E C 0.21127(13) 0.3814(2) -0.26615(11)
H7G H 0.2072 0.6944 0.2895
H7B H 0.2928 0.3056 -0.2105
H7E H 0.2072 0.3056 -0.2895
H8G H 0.1671 0.6181 0.2386
H8B H 0.3329 0.3819 -0.2614
H8E H 0.1671 0.3819 -0.2386
C10B C 0.0000 0.4060(3) -0.13124(13)
N5 N 0.0000 -0.0383(4) 0.07578(18)
C11 C 0.0000 0.0469(4) 0.10304(16)
C12 C 0.0000 0.1570(4) 0.13813(17)
H9? H 0.0602 0.1765 0.1446
H10? H -0.0209 0.2261 0.1186
H11? H -0.0213 0.1426 0.1750
loop_
_geom_bond_atom_site_label_1
_geom_bond_atom_site_label_2
_geom_bond_site_symmetry_1
_geom_bond_site_symmetry_2
Co1 N1 1_555 1_555
S1 C10 1_555 1_555
N1 C1 1_555 1_555
C1 H1 1_555 1_555
N2 N3 1_555 1_555
C2 C1 1_555 1_555
N3 C8 1_555 1_555
C3 C2 1_555 1_555
H2 C3 1_555 1_555
C4 C3 1_555 1_555
H3 C4 1_555 1_555
C5 N1 1_555 1_555
H4 C5 1_555 1_555
C6 N2 1_555 1_555
N4 Co1 1_555 1_555
C7 C6 1_555 1_555
H5 C7 1_555 1_555
N5 C11 1_555 1_555
C8 C7 1_555 1_555
H6 C8 1_555 1_555
C9 N3 1_555 1_555
H7 C9 1_555 1_555
H8 C9 1_555 1_555
C10 N4 1_555 1_555
C11 C12 1_555 1_555
Co1E N1G 1_555 1_555
Co1E_2 N1E 1_555 1_555
S1B C10B 1_555 1_555
N1G C1G 1_555 1_555
N1B Co1 1_555 1_555
N1E C1E 1_555 1_555
N1H Co1 1_555 1_555
N1J Co1 1_555 1_555
C1G H1G 1_555 1_555
C1B N1B 1_555 1_555
C1E H1E 1_555 1_555
H1B C1B 1_555 1_555
N2G N3G 1_555 1_555
N2B N3B 1_555 1_555
N2E N3E 1_555 1_555
C2G C1G 1_555 1_555
C2B C1B 1_555 1_555
C2E C1E 1_555 1_555
N3G C8G 1_555 1_555
N3B C8B 1_555 1_555
N3E C8E 1_555 1_555
C3G C2G 1_555 1_555
C3B C2B 1_555 1_555
C3E C2E 1_555 1_555
H2G C3G 1_555 1_555
H2B C3B 1_555 1_555
H2E C3E 1_555 1_555
C4G C3G 1_555 1_555
C4B C3B 1_555 1_555
C4E C3E 1_555 1_555
H3G C4G 1_555 1_555
H3B C4B 1_555 1_555
H3E C4E 1_555 1_555
C5G N1G 1_555 1_555
C5B N1B 1_555 1_555
C5E N1E 1_555 1_555
H4G C5G 1_555 1_555
H4B C5B 1_555 1_555
H4E C5E 1_555 1_555
C6G N2G 1_555 1_555
C6B N2B 1_555 1_555
C6E N2E 1_555 1_555
N4B Co1 1_555 1_555
C7G C6G 1_555 1_555
C7B C6B 1_555 1_555
C7E C6E 1_555 1_555
H5G C7G 1_555 1_555
H5B C7B 1_555 1_555
H5E C7E 1_555 1_555
C8G C7G 1_555 1_555
C8B C7B 1_555 1_555
C8E C7E 1_555 1_555
H6G C8G 1_555 1_555
H6B C8B 1_555 1_555
H6E C8E 1_555 1_555
C9G C9 1_555 1_555
C9B N3B 1_555 1_555
C9E N3E 1_555 1_555
H7G C9G 1_555 1_555
H7B C9B 1_555 1_555
H7E C9E 1_555 1_555
H8G C9G 1_555 1_555
H8B C9B 1_555 1_555
H8E C9E 1_555 1_555
C10B N4B 1_555 1_555
C2 C6 1_555 1_555
C4 C5 1_555 1_555
C2G C6G 1_555 1_555
C2B C6B 1_555 1_555
C2E C6E 1_555 1_555
N3G C9G 1_555 1_555
C4G C5G 1_555 1_555
C4B C5B 1_555 1_555
C4E C5E 1_555 1_555
C9B C9E 1_555 1_555

#END
