
#######################################################################
#
#                 Cambridge Crystallographic Data Centre
#                                CCDC 
#
#######################################################################
#
# If this CIF has been generated from an entry in the Cambridge 
# Structural Database, then it will include bibliographic, chemical, 
# crystal, experimental, refinement or atomic coordinate data resulting 
# from the CCDC's data processing and validation procedures.
#
#######################################################################

data_CPYZCO01
_symmetry_cell_setting           orthorhombic
_symmetry_space_group_name_H-M   'C c c a'
_symmetry_Int_Tables_number      68
_space_group_name_Hall           '-C 2a 2bc'
loop_
_symmetry_equiv_pos_site_id
_symmetry_equiv_pos_as_xyz
1 x,y,z
2 -x,1/2-y,z
3 1/2+x,-y,1/2-z
4 1/2-x,1/2+y,1/2-z
5 1/2+x,1/2+y,z
6 1/2-x,-y,z
7 x,1/2-y,1/2-z
8 -x,y,1/2-z
9 -x,-y,-z
10 x,1/2+y,-z
11 1/2-x,y,1/2+z
12 1/2+x,1/2-y,1/2+z
13 1/2-x,1/2-y,-z
14 1/2+x,y,-z
15 -x,1/2+y,1/2+z
16 x,-y,1/2+z
_cell_length_a                   10.100(1)
_cell_length_b                   10.672(1)
_cell_length_c                   10.136(1)
_cell_angle_alpha                90
_cell_angle_beta                 90
_cell_angle_gamma                90
_cell_volume                     1092.53
loop_
_atom_site_label
_atom_site_type_symbol
_atom_site_fract_x
_atom_site_fract_y
_atom_site_fract_z
Co1 Co 0.5000 0.2500 0.2500
Cl1 Cl 0.5000 0.0245(1) 0.2500
N1 N 0.6528(2) 0.2487(3) 0.0979(2)
C1 C 0.7563(3) 0.3265(3) 0.1034(2)
C2 C 0.6469(2) 0.1721(3) -0.0057(3)
H1 H 0.7629(31) 0.3832(24) 0.1944(27)
H2 H 0.5575(26) 0.1114(26) -0.0099(32)
Cl1A Cl 0.5000 0.4755(1) 0.2500
C2L C 0.8531(2) 0.3279(3) 0.0057(3)
N1L N 0.8472(2) 0.2513(3) -0.0979(2)
Co1L Co 1.0000 0.2500 -0.2500
Co1K Co 1.0000 0.2500 0.7500
N1J N 0.8472(2) 0.2487(3) 0.5979(2)
C1J C 0.7437(3) 0.3265(3) 0.6034(2)
C2F C 0.6469(2) 0.3279(3) 0.5057(3)
N1F N 0.6528(2) 0.2513(3) 0.4021(2)
N1A N 0.3472(2) 0.2513(3) 0.0979(2)
N1G N 0.3472(2) 0.2487(3) 0.4021(2)
C1F C 0.7563(3) 0.1735(3) 0.3966(2)
C2J C 0.8531(2) 0.1721(3) 0.4943(3)
H2J H 0.9425(26) 0.1114(26) 0.4901(32)
H1F H 0.7629(31) 0.1168(24) 0.3056(27)
H2F H 0.5575(26) 0.3886(26) 0.5099(32)
H1J H 0.7371(31) 0.3832(24) 0.6944(27)
C1L C 0.7437(3) 0.1735(3) -0.1034(2)
H2L H 0.9425(26) 0.3886(26) 0.0099(32)
H1L H 0.7371(31) 0.1168(24) -0.1944(27)
loop_
_geom_bond_atom_site_label_1
_geom_bond_atom_site_label_2
_geom_bond_site_symmetry_1
_geom_bond_site_symmetry_2
Co1 Cl1 1_555 1_555
N1 Co1 1_555 1_555
C1 N1 1_555 1_555
C2 N1 1_555 1_555
H1 C1 1_555 1_555
H2 C2 1_555 1_555
Cl1A Co1 1_555 1_555
C2L C1 1_555 1_555
N1L C2L 1_555 1_555
Co1L N1L 1_555 1_555
Co1K N1J 1_555 1_555
N1J C1J 1_555 1_555
C1J C2F 1_555 1_555
C2F N1F 1_555 1_555
N1F Co1 1_555 1_555
N1A Co1 1_555 1_555
N1G Co1 1_555 1_555
C1F N1F 1_555 1_555
C2J N1J 1_555 1_555
H2J C2J 1_555 1_555
H1F C1F 1_555 1_555
H2F C2F 1_555 1_555
H1J C1J 1_555 1_555
C1L C2 1_555 1_555
H2L C2L 1_555 1_555
H1L C1L 1_555 1_555
N1L C1L 1_555 1_555
C1F C2J 1_555 1_555

#END
