
#######################################################################
#
#                 Cambridge Crystallographic Data Centre
#                                CCDC 
#
#######################################################################
#
# If this CIF has been generated from an entry in the Cambridge 
# Structural Database, then it will include bibliographic, chemical, 
# crystal, experimental, refinement or atomic coordinate data resulting 
# from the CCDC's data processing and validation procedures.
#
#######################################################################

data_CUBNZT
_symmetry_cell_setting           monoclinic
_symmetry_space_group_name_H-M   'I 2/c'
_symmetry_Int_Tables_number      15
_space_group_name_Hall           '-I 2yc'
loop_
_symmetry_equiv_pos_site_id
_symmetry_equiv_pos_as_xyz
1 x,y,z
2 1/2+x,1/2+y,1/2+z
3 -x,y,1/2-z
4 1/2-x,1/2+y,-z
5 -x,-y,-z
6 1/2-x,1/2-y,1/2-z
7 x,-y,1/2+z
8 1/2+x,1/2-y,z
_cell_length_a                   6.98(2)
_cell_length_b                   34.12(6)
_cell_length_c                   6.30(2)
_cell_angle_alpha                90
_cell_angle_beta                 90.0(10)
_cell_angle_gamma                90
_cell_volume                     1500.39
loop_
_atom_site_label
_atom_site_type_symbol
_atom_site_fract_x
_atom_site_fract_y
_atom_site_fract_z
Cu1 Cu 0.00000 0.00000 0.00000
C1 C 0.00000 0.07090 0.25000
C2 C 0.00000 0.11400 0.25000
C3 C 0.06900 0.13560 0.07700
C4 C 0.07200 0.17710 0.07000
C5 C 0.00000 0.19640 0.25000
O1 O 0.02500 0.05390 0.07800
O2 O 0.21600 -0.01250 0.19000
Cu1B Cu 0.00000 0.00000 0.50000
O1D O -0.02500 -0.05390 -0.07800
O2F O 0.21600 0.01250 -0.31000
O2D O -0.21600 0.01250 -0.19000
O2B O -0.21600 -0.01250 0.31000
O1B O -0.02500 0.05390 0.42200
C3B C -0.06900 0.13560 0.42300
C4B C -0.07200 0.17710 0.43000
C6 C 0.50000 0.22140 -0.25000
C7 C 0.50000 0.09590 -0.25000
C8 C 0.50000 0.13980 -0.25000
C9 C 0.42000 0.16050 -0.42200
C10 C 0.42000 0.20160 -0.41500
O3 O 0.40300 0.07890 -0.38900
C10B C 0.58000 0.20160 -0.08500
O3B O 0.59700 0.07890 -0.11100
C9B C 0.58000 0.16050 -0.07800
O4 O 0.50000 0.04050 0.25000
loop_
_geom_bond_atom_site_label_1
_geom_bond_atom_site_label_2
_geom_bond_site_symmetry_1
_geom_bond_site_symmetry_2
Cu1 O1 1_555 1_555
C1 C2 1_555 1_555
C2 C3 1_555 1_555
C3 C4 1_555 1_555
C4 C5 1_555 1_555
C5 C4B 1_555 1_555
O1 C1 1_555 1_555
O2 Cu1 1_555 1_555
C6 C10 1_555 1_555
C7 C8 1_555 1_555
C8 C9 1_555 1_555
C9 C10 1_555 1_555
O3 C7 1_555 1_555
Cu1B O2 1_555 1_555
O1D Cu1 1_555 1_555
O2F Cu1 1_555 1_555
O2D Cu1 1_555 1_555
O2B Cu1 1_555 1_555
O1B C1 1_555 1_555
C3B C2 1_555 1_555
C4B C3B 1_555 1_555
C10B C6 1_555 1_555
O3B C7 1_555 1_555
C9B C8 1_555 1_555
Cu1B O2B 1_555 1_555
Cu1B O1B 1_555 1_555
C10B C9B 1_555 1_555

#END
