
#######################################################################
#
#                 Cambridge Crystallographic Data Centre
#                                CCDC 
#
#######################################################################
#
# If this CIF has been generated from an entry in the Cambridge 
# Structural Database, then it will include bibliographic, chemical, 
# crystal, experimental, refinement or atomic coordinate data resulting 
# from the CCDC's data processing and validation procedures.
#
#######################################################################

data_CUBXUT
_symmetry_cell_setting           orthorhombic
_symmetry_space_group_name_H-M   'P b c n'
_symmetry_Int_Tables_number      60
_space_group_name_Hall           '-P 2n 2ab'
loop_
_symmetry_equiv_pos_site_id
_symmetry_equiv_pos_as_xyz
1 x,y,z
2 1/2-x,1/2-y,1/2+z
3 -x,y,1/2-z
4 1/2+x,1/2-y,-z
5 -x,-y,-z
6 1/2+x,1/2+y,1/2-z
7 x,-y,1/2+z
8 1/2-x,1/2+y,z
_cell_length_a                   27.0365(8)
_cell_length_b                   9.2733(3)
_cell_length_c                   13.9279(4)
_cell_angle_alpha                90
_cell_angle_beta                 90
_cell_angle_gamma                90
_cell_volume                     3491.97
loop_
_atom_site_label
_atom_site_type_symbol
_atom_site_fract_x
_atom_site_fract_y
_atom_site_fract_z
Gd1 Gd 0.5000 0.83427(3) 0.2500
N1 N 0.40565(12) 0.8140(4) 0.1022(2)
O1 O 0.45009(10) 0.7527(3) 0.1176(2)
C1 C 0.40217(14) 0.9564(4) 0.0828(3)
C2 C 0.44810(14) 1.0511(4) 0.0850(3)
O2 O 0.45196(11) 1.1420(3) 0.0213(2)
O3 O 0.47725(10) 1.0345(3) 0.1561(2)
C3 C 0.35584(14) 1.0155(5) 0.0662(3)
H1 H 0.3529 1.1148 0.0505
C4 C 0.31375(15) 0.9302(5) 0.0726(3)
H2 H 0.2819 0.9714 0.0636
C5 C 0.31872(16) 0.7844(5) 0.0921(3)
H3 H 0.2903 0.7246 0.0969
C6 C 0.36524(15) 0.7272(5) 0.1046(3)
H4 H 0.3691 0.6265 0.1149
N2 N 0.61920(12) 0.8383(3) 0.1615(2)
O4 O 0.57849(10) 0.9070(3) 0.1894(2)
C7 C 0.61832(14) 0.7042(4) 0.1213(3)
C8 C 0.57060(14) 0.6184(4) 0.1121(3)
O5 O 0.56861(11) 0.5286(3) 0.0469(2)
O6 O 0.53727(10) 0.6404(3) 0.1744(2)
C9 C 0.66265(15) 0.6441(5) 0.0900(3)
H5 H 0.6624 0.5523 0.0596
C10 C 0.70707(15) 0.7160(5) 0.1024(3)
H6 H 0.7373 0.6734 0.0821
C11 C 0.70686(16) 0.8510(5) 0.1447(3)
H7 H 0.7370 0.9019 0.1540
C12 C 0.66247(15) 0.9109(5) 0.1733(3)
H8 H 0.6622 1.0041 0.2016
Na1 Na 0.48596(6) 0.67456(18) -0.02649(12)
Na2 Na 0.5000 1.2333(2) 0.2500
O7 O 0.43148(11) 0.7934(3) -0.1333(2)
H9 H 0.428(2) 0.8805(11) -0.141(4)
H10 H 0.4038(9) 0.763(6) -0.147(4)
O8 O 0.53303(11) 0.5908(3) -0.1552(2)
H11 H 0.5631(3) 0.586(6) -0.148(4)
H12 H 0.5266(19) 0.5060(17) -0.166(4)
N1B N 0.59435(12) 0.8140(4) 0.3978(2)
O1B O 0.54991(10) 0.7527(3) 0.3824(2)
C1B C 0.59783(14) 0.9564(4) 0.4172(3)
C2B C 0.55190(14) 1.0511(4) 0.4150(3)
O2B O 0.54804(11) 1.1420(3) 0.4787(2)
O2D O 0.54804(11) 0.8580(3) -0.0213(2)
O2F O 0.45196(11) 0.8580(3) 0.5213(2)
O3B O 0.52275(10) 1.0345(3) 0.3439(2)
C3B C 0.64416(14) 1.0155(5) 0.4338(3)
H1B H 0.6471 1.1148 0.4495
C4B C 0.68625(15) 0.9302(5) 0.4274(3)
H2B H 0.7181 0.9714 0.4364
C5B C 0.68128(16) 0.7844(5) 0.4079(3)
H3B H 0.7097 0.7246 0.4031
C6B C 0.63476(15) 0.7272(5) 0.3954(3)
H4B H 0.6309 0.6265 0.3851
N2B N 0.38080(12) 0.8383(3) 0.3385(2)
O4B O 0.42151(10) 0.9070(3) 0.3106(2)
C7B C 0.38168(14) 0.7042(4) 0.3787(3)
C8B C 0.42940(14) 0.6184(4) 0.3879(3)
O5B O 0.43139(11) 0.5286(3) 0.4531(2)
O5D O 0.43139(11) 0.4714(3) -0.0469(2)
O5F O 0.56861(11) 0.4714(3) 0.5469(2)
O6B O 0.46273(10) 0.6404(3) 0.3256(2)
C9B C 0.33735(15) 0.6441(5) 0.4100(3)
H5B H 0.3376 0.5523 0.4404
C10B C 0.29293(15) 0.7160(5) 0.3976(3)
H6B H 0.2627 0.6734 0.4179
C11B C 0.29314(16) 0.8510(5) 0.3553(3)
H7B H 0.2630 0.9019 0.3460
C12B C 0.33753(15) 0.9109(5) 0.3267(3)
H8B H 0.3378 1.0041 0.2984
Na1B Na 0.51404(6) 0.67456(18) 0.52649(12)
Na1D Na 0.51404(6) 1.32544(18) 0.02649(12)
Na1D_2 Na 0.51404(6) 0.32544(18) 0.02649(12)
Na1F Na 0.48596(6) 1.32544(18) 0.47351(12)
Na1F_2 Na 0.48596(6) 0.32544(18) 0.47351(12)
Na2D Na 0.5000 0.7667(2) -0.2500
O7D O 0.56852(11) 1.2066(3) 0.1333(2)
O7F O 0.43148(11) 1.2066(3) 0.3667(2)
O7B O 0.56852(11) 0.7934(3) 0.6333(2)
H9D H 0.572(2) 1.1195(11) 0.141(4)
H9F H 0.428(2) 1.1195(11) 0.359(4)
H9B H 0.572(2) 0.8805(11) 0.641(4)
H10D H 0.5962(9) 1.237(6) 0.147(4)
H10F H 0.4038(9) 1.237(6) 0.353(4)
H10B H 0.5962(9) 0.763(6) 0.647(4)
O8D O 0.46697(11) 1.4092(3) 0.1552(2)
O8F O 0.53303(11) 1.4092(3) 0.3448(2)
O8B O 0.46697(11) 0.5908(3) 0.6552(2)
H11D H 0.4369(3) 1.414(6) 0.148(4)
H11F H 0.5631(3) 1.414(6) 0.352(4)
H11B H 0.4369(3) 0.586(6) 0.648(4)
H12D H 0.4734(19) 1.4940(17) 0.166(4)
H12F H 0.5266(19) 1.4940(17) 0.334(4)
H12B H 0.4734(19) 0.5060(17) 0.666(4)
Cl1 Cl 0.32151(4) 0.34499(11) 0.21122(8)
O9 O 0.29052(13) 0.2269(4) 0.1841(4)
O10 O 0.33730(16) 0.3240(6) 0.3111(3)
O11 O 0.36391(13) 0.3505(5) 0.1483(3)
O12 O 0.29460(14) 0.4780(4) 0.2049(3)
loop_
_geom_bond_atom_site_label_1
_geom_bond_atom_site_label_2
_geom_bond_site_symmetry_1
_geom_bond_site_symmetry_2
Gd1 O1 1_555 1_555
N1 O1 1_555 1_555
O1 Na1 1_555 1_555
C1 N1 1_555 1_555
C2 C1 1_555 1_555
O2 C2 1_555 1_555
O3 Gd1 1_555 1_555
C3 C1 1_555 1_555
H1 C3 1_555 1_555
C4 C3 1_555 1_555
H2 C4 1_555 1_555
C5 C4 1_555 1_555
H3 C5 1_555 1_555
C6 N1 1_555 1_555
H4 C6 1_555 1_555
N2 O4 1_555 1_555
O4 Gd1 1_555 1_555
C7 N2 1_555 1_555
C8 C7 1_555 1_555
O5 C8 1_555 1_555
O6 Gd1 1_555 1_555
C9 C7 1_555 1_555
H5 C9 1_555 1_555
C10 C9 1_555 1_555
H6 C10 1_555 1_555
C11 C10 1_555 1_555
H7 C11 1_555 1_555
C12 N2 1_555 1_555
H8 C12 1_555 1_555
Na1 O5 1_555 1_555
Na2 O3 1_555 1_555
O7 Na1 1_555 1_555
H9 O7 1_555 1_555
H10 O7 1_555 1_555
O8 Na1 1_555 1_555
H11 O8 1_555 1_555
H12 O8 1_555 1_555
Cl1 O9 1_555 1_555
O10 Cl1 1_555 1_555
O11 Cl1 1_555 1_555
O12 Cl1 1_555 1_555
N1B O1B 1_555 1_555
O1B Gd1 1_555 1_555
C1B N1B 1_555 1_555
C2B C1B 1_555 1_555
O2B C2B 1_555 1_555
O2D Na1 1_555 1_555
O2F Na1B 1_555 1_555
O3B Gd1 1_555 1_555
C3B C1B 1_555 1_555
H1B C3B 1_555 1_555
C4B C3B 1_555 1_555
H2B C4B 1_555 1_555
C5B C4B 1_555 1_555
H3B C5B 1_555 1_555
C6B N1B 1_555 1_555
H4B C6B 1_555 1_555
N2B O4B 1_555 1_555
O4B Gd1 1_555 1_555
C7B N2B 1_555 1_555
C8B C7B 1_555 1_555
O5B C8B 1_555 1_555
O5D Na1 1_555 1_555
O5F Na1B 1_555 1_555
O6B Gd1 1_555 1_555
C9B C7B 1_555 1_555
H5B C9B 1_555 1_555
C10B C9B 1_555 1_555
H6B C10B 1_555 1_555
C11B C10B 1_555 1_555
H7B C11B 1_555 1_555
C12B N2B 1_555 1_555
H8B C12B 1_555 1_555
Na1B O1B 1_555 1_555
Na1D O2 1_555 1_555
Na1D_2 O5 1_555 1_555
Na1F O2B 1_555 1_555
Na1F_2 O5B 1_555 1_555
Na2D O7 1_555 1_555
O7D Na2 1_555 1_555
O7F Na2 1_555 1_555
O7B Na1B 1_555 1_555
H9D O7D 1_555 1_555
H9F O7F 1_555 1_555
H9B O7B 1_555 1_555
H10D O7D 1_555 1_555
H10F O7F 1_555 1_555
H10B O7B 1_555 1_555
O8D Na2 1_555 1_555
O8F Na2 1_555 1_555
O8B Na1B 1_555 1_555
H11D O8D 1_555 1_555
H11F O8F 1_555 1_555
H11B O8B 1_555 1_555
H12D O8D 1_555 1_555
H12F O8F 1_555 1_555
H12B O8B 1_555 1_555
C2 O3 1_555 1_555
C5 C6 1_555 1_555
C8 O6 1_555 1_555
C11 C12 1_555 1_555
Na2 O3B 1_555 1_555
O8 Na2D 1_555 1_555
C2B O3B 1_555 1_555
C5B C6B 1_555 1_555
C8B O6B 1_555 1_555
O5B Na1B 1_555 1_555
O5D Na1D_2 1_555 1_555
O5F Na1F_2 1_555 1_555
C11B C12B 1_555 1_555
Na1D O7D 1_555 1_555
Na1D O8D 1_555 1_555
Na1F O7F 1_555 1_555
Na1F O8F 1_555 1_555

#END
