
#######################################################################
#
#                 Cambridge Crystallographic Data Centre
#                                CCDC 
#
#######################################################################
#
# If this CIF has been generated from an entry in the Cambridge 
# Structural Database, then it will include bibliographic, chemical, 
# crystal, experimental, refinement or atomic coordinate data resulting 
# from the CCDC's data processing and validation procedures.
#
#######################################################################

data_CUBXON
_symmetry_cell_setting           orthorhombic
_symmetry_space_group_name_H-M   'P b c n'
_symmetry_Int_Tables_number      60
_space_group_name_Hall           '-P 2n 2ab'
loop_
_symmetry_equiv_pos_site_id
_symmetry_equiv_pos_as_xyz
1 x,y,z
2 1/2-x,1/2-y,1/2+z
3 -x,y,1/2-z
4 1/2+x,1/2-y,-z
5 -x,-y,-z
6 1/2+x,1/2+y,1/2-z
7 x,-y,1/2+z
8 1/2-x,1/2+y,z
_cell_length_a                   27.0136(8)
_cell_length_b                   9.2699(3)
_cell_length_c                   13.9487(4)
_cell_angle_alpha                90
_cell_angle_beta                 90
_cell_angle_gamma                90
_cell_volume                     3492.94
loop_
_atom_site_label
_atom_site_type_symbol
_atom_site_fract_x
_atom_site_fract_y
_atom_site_fract_z
Eu1 Eu 0.5000 0.834418(12) 0.2500
N1 N 0.40550(6) 0.81400(16) 0.10219(11)
O1 O 0.44993(5) 0.75301(14) 0.11699(9)
C1 C 0.40198(7) 0.95695(19) 0.08247(13)
C2 C 0.44797(7) 1.05149(19) 0.08483(13)
O2 O 0.45193(5) 1.14184(14) 0.02069(10)
O3 O 0.47676(5) 1.03533(13) 0.15619(9)
C3 C 0.35567(7) 1.0153(2) 0.06630(14)
H1 H 0.3529(9) 1.111(3) 0.0551(18)
C4 C 0.31358(7) 0.9307(2) 0.07317(15)
H2 H 0.2810(9) 0.972(3) 0.0674(19)
C5 C 0.31874(8) 0.7848(2) 0.09230(15)
H3 H 0.2925(10) 0.729(3) 0.0976(19)
C6 C 0.36508(7) 0.7275(2) 0.10525(14)
H4 H 0.3709(9) 0.626(3) 0.1170(18)
N2 N 0.61950(6) 0.83764(16) 0.16106(11)
O4 O 0.57899(5) 0.90646(14) 0.18932(10)
C7 C 0.61844(7) 0.70386(19) 0.12029(13)
C8 C 0.57078(6) 0.61792(19) 0.11197(13)
O5 O 0.56848(5) 0.52871(14) 0.04663(10)
O6 O 0.53755(5) 0.63978(14) 0.17429(10)
C9 C 0.66264(7) 0.6436(2) 0.08916(15)
H5 H 0.6616(9) 0.547(3) 0.0622(18)
C10 C 0.70725(7) 0.7149(2) 0.10148(16)
H6 H 0.7367(10) 0.673(3) 0.0819(19)
C11 C 0.70707(7) 0.8495(2) 0.14393(15)
H7 H 0.7350(9) 0.903(3) 0.1566(17)
C12 C 0.66299(7) 0.9097(2) 0.17267(14)
H8 H 0.6592(8) 1.000(3) 0.2018(17)
Na1 Na 0.48595(3) 0.67497(8) -0.02664(6)
Na2 Na 0.5000 1.23354(11) 0.2500
O7 O 0.43137(5) 0.79373(15) -0.13359(11)
H9 H 0.4274(10) 0.8806(7) -0.141(2)
H10 H 0.4047(5) 0.760(3) -0.1497(19)
O8 O 0.53300(5) 0.59099(15) -0.15514(10)
H11 H 0.5630(2) 0.587(3) -0.147(2)
H12 H 0.5246(10) 0.5084(12) -0.168(2)
N1B N 0.59450(6) 0.81400(16) 0.39781(11)
O1B O 0.55007(5) 0.75301(14) 0.38301(9)
C1B C 0.59802(7) 0.95695(19) 0.41753(13)
C2B C 0.55203(7) 1.05149(19) 0.41517(13)
O2B O 0.54807(5) 1.14184(14) 0.47931(10)
O2D O 0.54807(5) 0.85816(14) -0.02069(10)
O2F O 0.45193(5) 0.85816(14) 0.52069(10)
O3B O 0.52324(5) 1.03533(13) 0.34381(9)
C3B C 0.64433(7) 1.0153(2) 0.43370(14)
H1B H 0.6471(9) 1.111(3) 0.4449(18)
C4B C 0.68642(7) 0.9307(2) 0.42683(15)
H2B H 0.7190(9) 0.972(3) 0.4326(19)
C5B C 0.68126(8) 0.7848(2) 0.40770(15)
H3B H 0.7075(10) 0.729(3) 0.4024(19)
C6B C 0.63492(7) 0.7275(2) 0.39475(14)
H4B H 0.6291(9) 0.626(3) 0.3830(18)
N2B N 0.38050(6) 0.83764(16) 0.33894(11)
O4B O 0.42101(5) 0.90646(14) 0.31068(10)
C7B C 0.38156(7) 0.70386(19) 0.37971(13)
C8B C 0.42922(6) 0.61792(19) 0.38803(13)
O5B O 0.43152(5) 0.52871(14) 0.45337(10)
O5D O 0.43152(5) 0.47129(14) -0.04663(10)
O5F O 0.56848(5) 0.47129(14) 0.54663(10)
O6B O 0.46245(5) 0.63978(14) 0.32571(10)
C9B C 0.33736(7) 0.6436(2) 0.41084(15)
H5B H 0.3384(9) 0.547(3) 0.4378(18)
C10B C 0.29275(7) 0.7149(2) 0.39852(16)
H6B H 0.2633(10) 0.673(3) 0.4181(19)
C11B C 0.29293(7) 0.8495(2) 0.35607(15)
H7B H 0.2650(9) 0.903(3) 0.3434(17)
C12B C 0.33701(7) 0.9097(2) 0.32733(14)
H8B H 0.3408(8) 1.000(3) 0.2982(17)
Na1B Na 0.51405(3) 0.67497(8) 0.52664(6)
Na1D Na 0.51405(3) 1.32503(8) 0.02664(6)
Na1D_2 Na 0.51405(3) 0.32503(8) 0.02664(6)
Na1F Na 0.48595(3) 1.32503(8) 0.47336(6)
Na1F_2 Na 0.48595(3) 0.32503(8) 0.47336(6)
Na2D Na 0.5000 0.76646(11) -0.2500
O7D O 0.56863(5) 1.20627(15) 0.13359(11)
O7F O 0.43137(5) 1.20627(15) 0.36641(11)
O7B O 0.56863(5) 0.79373(15) 0.63359(11)
H9D H 0.5726(10) 1.1194(7) 0.141(2)
H9F H 0.4274(10) 1.1194(7) 0.359(2)
H9B H 0.5726(10) 0.8806(7) 0.641(2)
H10D H 0.5953(5) 1.240(3) 0.1497(19)
H10F H 0.4047(5) 1.240(3) 0.3503(19)
H10B H 0.5953(5) 0.760(3) 0.6497(19)
O8D O 0.46700(5) 1.40901(15) 0.15514(10)
O8F O 0.53300(5) 1.40901(15) 0.34486(10)
O8B O 0.46700(5) 0.59099(15) 0.65514(10)
H11D H 0.4370(2) 1.413(3) 0.147(2)
H11F H 0.5630(2) 1.413(3) 0.353(2)
H11B H 0.4370(2) 0.587(3) 0.647(2)
H12D H 0.4754(10) 1.4916(12) 0.168(2)
H12F H 0.5246(10) 1.4916(12) 0.332(2)
H12B H 0.4754(10) 0.5084(12) 0.668(2)
Cl1 Cl 0.321566(17) 0.34553(5) 0.21129(4)
O9 O 0.29073(6) 0.2269(2) 0.18503(16)
O10 O 0.33750(7) 0.3252(2) 0.30932(13)
O11 O 0.36391(6) 0.3508(2) 0.14837(14)
O12 O 0.29464(6) 0.47832(17) 0.20478(13)
loop_
_geom_bond_atom_site_label_1
_geom_bond_atom_site_label_2
_geom_bond_site_symmetry_1
_geom_bond_site_symmetry_2
Eu1 O1 1_555 1_555
N1 O1 1_555 1_555
O1 Na1 1_555 1_555
C1 N1 1_555 1_555
C2 C1 1_555 1_555
O2 C2 1_555 1_555
O3 Eu1 1_555 1_555
C3 C1 1_555 1_555
H1 C3 1_555 1_555
C4 C3 1_555 1_555
H2 C4 1_555 1_555
C5 C4 1_555 1_555
H3 C5 1_555 1_555
C6 N1 1_555 1_555
H4 C6 1_555 1_555
N2 O4 1_555 1_555
O4 Eu1 1_555 1_555
C7 N2 1_555 1_555
C8 C7 1_555 1_555
O5 C8 1_555 1_555
O6 Eu1 1_555 1_555
C9 C7 1_555 1_555
H5 C9 1_555 1_555
C10 C9 1_555 1_555
H6 C10 1_555 1_555
C11 C10 1_555 1_555
H7 C11 1_555 1_555
C12 N2 1_555 1_555
H8 C12 1_555 1_555
Na1 O5 1_555 1_555
Na2 O3 1_555 1_555
O7 Na1 1_555 1_555
H9 O7 1_555 1_555
H10 O7 1_555 1_555
O8 Na1 1_555 1_555
H11 O8 1_555 1_555
H12 O8 1_555 1_555
Cl1 O9 1_555 1_555
O10 Cl1 1_555 1_555
O11 Cl1 1_555 1_555
O12 Cl1 1_555 1_555
N1B O1B 1_555 1_555
O1B Eu1 1_555 1_555
C1B N1B 1_555 1_555
C2B C1B 1_555 1_555
O2B C2B 1_555 1_555
O2D Na1 1_555 1_555
O2F Na1B 1_555 1_555
O3B Eu1 1_555 1_555
C3B C1B 1_555 1_555
H1B C3B 1_555 1_555
C4B C3B 1_555 1_555
H2B C4B 1_555 1_555
C5B C4B 1_555 1_555
H3B C5B 1_555 1_555
C6B N1B 1_555 1_555
H4B C6B 1_555 1_555
N2B O4B 1_555 1_555
O4B Eu1 1_555 1_555
C7B N2B 1_555 1_555
C8B C7B 1_555 1_555
O5B C8B 1_555 1_555
O5D Na1 1_555 1_555
O5F Na1B 1_555 1_555
O6B Eu1 1_555 1_555
C9B C7B 1_555 1_555
H5B C9B 1_555 1_555
C10B C9B 1_555 1_555
H6B C10B 1_555 1_555
C11B C10B 1_555 1_555
H7B C11B 1_555 1_555
C12B N2B 1_555 1_555
H8B C12B 1_555 1_555
Na1B O1B 1_555 1_555
Na1D O2 1_555 1_555
Na1D_2 O5 1_555 1_555
Na1F O2B 1_555 1_555
Na1F_2 O5B 1_555 1_555
Na2D O7 1_555 1_555
O7D Na2 1_555 1_555
O7F Na2 1_555 1_555
O7B Na1B 1_555 1_555
H9D O7D 1_555 1_555
H9F O7F 1_555 1_555
H9B O7B 1_555 1_555
H10D O7D 1_555 1_555
H10F O7F 1_555 1_555
H10B O7B 1_555 1_555
O8D Na2 1_555 1_555
O8F Na2 1_555 1_555
O8B Na1B 1_555 1_555
H11D O8D 1_555 1_555
H11F O8F 1_555 1_555
H11B O8B 1_555 1_555
H12D O8D 1_555 1_555
H12F O8F 1_555 1_555
H12B O8B 1_555 1_555
C2 O3 1_555 1_555
C5 C6 1_555 1_555
C8 O6 1_555 1_555
C11 C12 1_555 1_555
Na2 O3B 1_555 1_555
O8 Na2D 1_555 1_555
C2B O3B 1_555 1_555
C5B C6B 1_555 1_555
C8B O6B 1_555 1_555
O5B Na1B 1_555 1_555
O5D Na1D_2 1_555 1_555
O5F Na1F_2 1_555 1_555
C11B C12B 1_555 1_555
Na1D O7D 1_555 1_555
Na1D O8D 1_555 1_555
Na1F O7F 1_555 1_555
Na1F O8F 1_555 1_555

#END
