
#######################################################################
#
#                 Cambridge Crystallographic Data Centre
#                                CCDC 
#
#######################################################################
#
# If this CIF has been generated from an entry in the Cambridge 
# Structural Database, then it will include bibliographic, chemical, 
# crystal, experimental, refinement or atomic coordinate data resulting 
# from the CCDC's data processing and validation procedures.
#
#######################################################################

data_CUCFUD
_symmetry_cell_setting           monoclinic
_symmetry_space_group_name_H-M   'C c'
_symmetry_Int_Tables_number      9
_space_group_name_Hall           'C -2yc'
loop_
_symmetry_equiv_pos_site_id
_symmetry_equiv_pos_as_xyz
1 x,y,z
2 x,-y,1/2+z
3 1/2+x,1/2+y,z
4 1/2+x,1/2-y,1/2+z
_cell_length_a                   18.834(5)
_cell_length_b                   12.345(3)
_cell_length_c                   15.224(4)
_cell_angle_alpha                90
_cell_angle_beta                 106.163(6)
_cell_angle_gamma                90
_cell_volume                     3399.76
loop_
_atom_site_label
_atom_site_type_symbol
_atom_site_fract_x
_atom_site_fract_y
_atom_site_fract_z
C1 C 0.9357(5) 0.1276(9) 0.4516(4)
H1 H 0.9477 0.1221 0.5150
C2 C 0.9789(4) 0.1905(8) 0.4110(6)
H2 H 1.0199 0.2271 0.4471
N1 N 0.9610(4) 0.1988(7) 0.3163(6)
C3 C 0.8998(5) 0.1441(8) 0.2622(4)
H3 H 0.8879 0.1496 0.1989
C4 C 0.8566(4) 0.0811(7) 0.3029(6)
H4 H 0.8157 0.0446 0.2668
C5 C 0.8745(5) 0.0729(8) 0.3976(6)
Zn1 Zn 1.00404(12) 0.32164(7) 0.24593(14)
C6 C 0.8217(8) 0.0015(11) 0.4353(10)
N2 N 0.9434(6) 0.4460(10) 0.2932(8)
N3 N 0.7474(5) 0.4875(9) 0.1115(6)
C7 C 0.6344(5) 0.5662(8) 0.0978(6)
N4 N 0.5652(6) -0.0507(11) 0.1934(8)
C8 C 0.8534(7) -0.0438(11) 0.5330(8)
H5 H 0.8200 -0.0279 0.5687
H6 H 0.9005 -0.0108 0.5608
H7 H 0.8595 -0.1208 0.5301
N5 N 0.7605(6) -0.0121(10) 0.3783(7)
N6 N 0.7969(6) 0.4268(10) 0.0863(7)
H8 H 0.7872 0.4020 0.0314
N7 N 0.5536(5) 0.7088(9) 0.1766(7)
C9 C 0.6068(8) 0.6501(12) 0.2223(9)
H9 H 0.6193 0.6563 0.2857
C10 C 0.6472(8) 0.5787(12) 0.1868(10)
H10 H 0.6844 0.5384 0.2262
C11 C 0.5745(5) 0.6228(8) 0.0465(6)
H11 H 0.5602 0.6168 -0.0169
C12 C 0.5360(7) 0.6883(9) 0.0898(8)
H12 H 0.4934 0.7209 0.0536
O1 O 0.5989(6) -0.1615(8) 0.3534(6)
O2 O 0.9099(6) 0.3449(8) 0.1287(7)
C13 C 0.6454(8) -0.0883(11) 0.3410(9)
N8 N 0.6317(6) -0.0407(10) 0.2691(7)
H13 H 0.6648 0.0037 0.2619
C14 C 0.6807(7) 0.5020(11) 0.0562(9)
N9 N 0.8753(6) 0.4656(10) 0.2313(7)
H14 H 0.8432 0.5100 0.2412
C15 C 0.8644(8) 0.4039(12) 0.1494(10)
C16 C 0.6622(7) 0.4588(12) -0.0359(9)
H15 H 0.6718 0.5126 -0.0767
H16 H 0.6108 0.4395 -0.0549
H17 H 0.6917 0.3957 -0.0372
N10 N 0.7075(5) -0.0758(8) 0.4081(6)
H18 H 0.7151 -0.1022 0.4622
Zn1B Zn 0.50404(12) -0.17836(7) 0.24593(14)
Zn1B_2 Zn 0.50404(12) 0.82164(7) 0.24593(14)
N4B N 1.0652(6) 0.4493(11) 0.1934(8)
N7B N 1.0536(5) 0.2088(9) 0.1766(7)
O1B O 1.0989(6) 0.3385(8) 0.3534(6)
F1 F 0.7161(6) 0.7843(8) 0.5633(7)
F2 F 0.6725(7) 0.8916(10) 0.6498(9)
F3 F 0.6175(6) 0.7283(11) 0.6082(8)
B1 B 0.6782(13) 0.7920(19) 0.6267(15)
F4 F 0.7265(6) 0.7357(9) 0.7116(6)
B2 B 0.8421(10) 0.6906(16) 0.3780(14)
F5 F 0.9003(6) 0.6257(9) 0.4297(7)
F6 F 0.7874(5) 0.7177(7) 0.4206(6)
F7 F 0.8203(6) 0.6494(12) 0.2987(9)
F8 F 0.8854(8) 0.7829(11) 0.3840(10)
loop_
_geom_bond_atom_site_label_1
_geom_bond_atom_site_label_2
_geom_bond_site_symmetry_1
_geom_bond_site_symmetry_2
C1 H1 1_555 1_555
C2 C1 1_555 1_555
H2 C2 1_555 1_555
N1 C2 1_555 1_555
C3 N1 1_555 1_555
H3 C3 1_555 1_555
C4 C3 1_555 1_555
H4 C4 1_555 1_555
C5 C1 1_555 1_555
Zn1 N1 1_555 1_555
C6 C5 1_555 1_555
N2 Zn1 1_555 1_555
N3 N6 1_555 1_555
C7 C10 1_555 1_555
N4 N8 1_555 1_555
C8 C6 1_555 1_555
H5 C8 1_555 1_555
H6 C8 1_555 1_555
H7 C8 1_555 1_555
N5 C6 1_555 1_555
N6 H8 1_555 1_555
N7 C9 1_555 1_555
C9 H9 1_555 1_555
C10 C9 1_555 1_555
H10 C10 1_555 1_555
C11 C7 1_555 1_555
H11 C11 1_555 1_555
C12 N7 1_555 1_555
H12 C12 1_555 1_555
O1 C13 1_555 1_555
O2 Zn1 1_555 1_555
C13 N8 1_555 1_555
N8 H13 1_555 1_555
C14 N3 1_555 1_555
N9 N2 1_555 1_555
H14 N9 1_555 1_555
C15 N6 1_555 1_555
C16 C14 1_555 1_555
H15 C16 1_555 1_555
H16 C16 1_555 1_555
H17 C16 1_555 1_555
N10 N5 1_555 1_555
H18 N10 1_555 1_555
F1 B1 1_555 1_555
F2 B1 1_555 1_555
F3 B1 1_555 1_555
B1 F4 1_555 1_555
B2 F5 1_555 1_555
F6 B2 1_555 1_555
F7 B2 1_555 1_555
F8 B2 1_555 1_555
Zn1B N4 1_555 1_555
Zn1B_2 N7 1_555 1_555
N4B Zn1 1_555 1_555
N7B Zn1 1_555 1_555
O1B Zn1 1_555 1_555
C4 C5 1_555 1_555
C7 C14 1_555 1_555
C11 C12 1_555 1_555
O1 Zn1B 1_555 1_555
O2 C15 1_555 1_555
C13 N10 1_555 1_555
N9 C15 1_555 1_555

#END
