
#######################################################################
#
#                 Cambridge Crystallographic Data Centre
#                                CCDC 
#
#######################################################################
#
# If this CIF has been generated from an entry in the Cambridge 
# Structural Database, then it will include bibliographic, chemical, 
# crystal, experimental, refinement or atomic coordinate data resulting 
# from the CCDC's data processing and validation procedures.
#
#######################################################################

data_CUCITD01
_symmetry_cell_setting           monoclinic
_symmetry_space_group_name_H-M   'P 21/c'
_symmetry_Int_Tables_number      14
_space_group_name_Hall           '-P 2ybc'
loop_
_symmetry_equiv_pos_site_id
_symmetry_equiv_pos_as_xyz
1 x,y,z
2 -x,1/2+y,1/2-z
3 -x,-y,-z
4 x,1/2-y,1/2+z
_cell_length_a                   6.9285(10)
_cell_length_b                   9.7619(14)
_cell_length_c                   14.537(2)
_cell_angle_alpha                90
_cell_angle_beta                 91.377(2)
_cell_angle_gamma                90
_cell_volume                     982.931
loop_
_atom_site_label
_atom_site_type_symbol
_atom_site_fract_x
_atom_site_fract_y
_atom_site_fract_z
Cu1 Cu 0.30277(6) 0.24842(5) -0.16219(3)
Cu2 Cu 0.08907(10) 0.15248(7) -0.35331(4)
O1 O 0.1944(4) 0.3019(3) -0.28157(16)
O2 O 0.4456(4) 0.4182(3) -0.17107(18)
O3 O 0.5179(6) 0.5839(3) -0.2673(2)
O4 O 0.2321(5) 0.1847(3) -0.4630(2)
O5 O 0.4394(4) 0.2975(3) -0.54732(17)
O6 O -0.1009(5) 0.6215(4) -0.3712(2)
O7 O 0.0771(6) 0.5953(4) -0.2440(2)
C1 C 0.3128(5) 0.4017(4) -0.3251(2)
C2 C 0.4315(6) 0.4780(4) -0.2501(2)
C3 C 0.4653(5) 0.3329(4) -0.3866(2)
H1 H 0.5575 0.4013 -0.4058
H2 H 0.5349 0.2639 -0.3511
C4 C 0.3730(6) 0.2668(4) -0.4708(2)
C5 C 0.1897(6) 0.5011(4) -0.3829(3)
H3 H 0.2740 0.5667 -0.4119
H4 H 0.1231 0.4502 -0.4314
C6 C 0.0423(6) 0.5781(4) -0.3280(3)
O8 O -0.1565(5) 0.1162(4) -0.4370(2)
H5 H -0.1444 0.1127 -0.4950
H6 H -0.2305 0.0505 -0.4234
O9 O 0.1662(5) -0.0745(3) -0.3697(2)
H7 H 0.2868 -0.0867 -0.3632
H8 H 0.1299 -0.1326 -0.3307
Cu1C Cu 0.30277(6) 0.25158(5) -0.66219(3)
Cu1A Cu 0.69723(6) 0.74842(5) -0.33781(3)
Cu1A_2 Cu -0.30277(6) 0.74842(5) -0.33781(3)
Cu2A Cu -0.08907(10) 0.65248(7) -0.14669(4)
O3A O 0.4821(6) 0.0839(3) -0.2327(2)
O5C O 0.4394(4) 0.2025(3) -0.04732(17)
O6A O 0.1009(5) 0.1215(4) -0.1288(2)
O7A O -0.0771(6) 0.0953(4) -0.2560(2)
loop_
_geom_bond_atom_site_label_1
_geom_bond_atom_site_label_2
_geom_bond_site_symmetry_1
_geom_bond_site_symmetry_2
Cu1 O1 1_555 1_555
Cu2 O1 1_555 1_555
O1 C1 1_555 1_555
O2 Cu1 1_555 1_555
O3 C2 1_555 1_555
O4 Cu2 1_555 1_555
O5 C4 1_555 1_555
O6 C6 1_555 1_555
O7 C6 1_555 1_555
C1 C2 1_555 1_555
C2 O2 1_555 1_555
C3 C1 1_555 1_555
H1 C3 1_555 1_555
H2 C3 1_555 1_555
C4 O4 1_555 1_555
C5 C1 1_555 1_555
H3 C5 1_555 1_555
H4 C5 1_555 1_555
C6 C5 1_555 1_555
O8 Cu2 1_555 1_555
H5 O8 1_555 1_555
H6 O8 1_555 1_555
O9 Cu2 1_555 1_555
H7 O9 1_555 1_555
H8 O9 1_555 1_555
Cu1C O5 1_555 1_555
Cu1A O3 1_555 1_555
Cu1A_2 O6 1_555 1_555
Cu2A O7 1_555 1_555
O3A Cu1 1_555 1_555
O5C Cu1 1_555 1_555
O6A Cu1 1_555 1_555
O7A Cu2 1_555 1_555
C3 C4 1_555 1_555

#END
