
#######################################################################
#
#                 Cambridge Crystallographic Data Centre
#                                CCDC 
#
#######################################################################
#
# If this CIF has been generated from an entry in the Cambridge 
# Structural Database, then it will include bibliographic, chemical, 
# crystal, experimental, refinement or atomic coordinate data resulting 
# from the CCDC's data processing and validation procedures.
#
#######################################################################

data_CUCROC01
_symmetry_cell_setting           orthorhombic
_symmetry_space_group_name_H-M   'P b c a'
_symmetry_Int_Tables_number      61
_space_group_name_Hall           '-P 2ac 2ab'
loop_
_symmetry_equiv_pos_site_id
_symmetry_equiv_pos_as_xyz
1 x,y,z
2 1/2-x,-y,1/2+z
3 1/2+x,1/2-y,-z
4 -x,1/2+y,1/2-z
5 -x,-y,-z
6 1/2+x,y,1/2-z
7 1/2-x,1/2+y,z
8 x,1/2-y,1/2+z
_cell_length_a                   11.770(2)
_cell_length_b                   8.085(2)
_cell_length_c                   15.571(2)
_cell_angle_alpha                90
_cell_angle_beta                 90
_cell_angle_gamma                90
_cell_volume                     1481.74
loop_
_atom_site_label
_atom_site_type_symbol
_atom_site_fract_x
_atom_site_fract_y
_atom_site_fract_z
Cu1 Cu 0.12772(4) 0.10616(4) 0.18837(2)
O1 O 0.1343(3) 0.2784(3) 0.2785(1)
O2 O 0.1179(2) -0.0615(3) 0.3082(2)
O3 O 0.1396(3) 0.3068(3) 0.0810(1)
O4 O 0.1151(2) -0.0783(3) 0.1076(1)
O5 O -0.0420(2) 0.1314(3) 0.1823(2)
O6 O 0.3004(2) 0.0992(3) 0.1799(2)
O7 O 0.1195(2) -0.1245(3) 0.4976(2)
O8 O 0.1314(2) 0.4553(3) 0.4474(1)
C1 C 0.1309(3) 0.2164(4) 0.3536(2)
C2 C 0.1238(3) 0.0409(4) 0.3681(2)
C3 C 0.1245(3) 0.0089(4) 0.4606(2)
C4 C 0.1333(3) 0.3264(4) 0.0021(2)
C5 C 0.1323(3) 0.3023(4) 0.4352(2)
H1 H 0.142 -0.188 0.119
H2 H 0.126 -0.094 0.055
H3 H -0.065 0.244 0.187
H4 H -0.081 0.096 0.138
H5 H 0.319 0.082 0.229
H6 H 0.318 0.041 0.123
C4G C 0.1333(3) 0.1736(4) 0.5021(2)
C3G C 0.1245(3) 0.4911(4) -0.0394(2)
C5G C 0.1323(3) 0.1977(4) -0.0648(2)
O3G O 0.1396(3) 0.1932(3) 0.5810(1)
O7G O 0.1195(2) 0.6245(3) -0.0024(2)
C2G C 0.1238(3) 0.4591(4) -0.1319(2)
O8G O 0.1314(2) 0.0447(3) -0.0526(1)
C1G C 0.1309(3) 0.2836(4) -0.1464(2)
Cu1G Cu 0.12772(4) 0.39384(4) 0.68837(2)
O2G O 0.1179(2) 0.5615(3) -0.1918(2)
O1G O 0.1343(3) 0.2216(3) -0.2215(1)
O1G_2 O 0.1343(3) 0.2216(3) 0.7785(1)
O2G_2 O 0.1179(2) 0.5615(3) 0.8082(2)
O4G O 0.1151(2) 0.5783(3) 0.6076(1)
O5G O -0.0420(2) 0.3686(3) 0.6823(2)
O6G O 0.3004(2) 0.4008(3) 0.6799(2)
Cu1G_2 Cu 0.12772(4) 0.39384(4) -0.31163(2)
H1G H 0.142 0.688 0.619
H2G H 0.126 0.594 0.555
H3G H -0.065 0.256 0.687
H4G H -0.081 0.404 0.638
H5G H 0.319 0.418 0.729
H6G H 0.318 0.459 0.623
loop_
_geom_bond_atom_site_label_1
_geom_bond_atom_site_label_2
_geom_bond_site_symmetry_1
_geom_bond_site_symmetry_2
Cu1 O1 1_555 1_555
O1 C1 1_555 1_555
O2 Cu1 1_555 1_555
O3 Cu1 1_555 1_555
O4 Cu1 1_555 1_555
O5 Cu1 1_555 1_555
O6 Cu1 1_555 1_555
O7 C3 1_555 1_555
O8 C5 1_555 1_555
C1 C2 1_555 1_555
C2 O2 1_555 1_555
C3 C2 1_555 1_555
C4 O3 1_555 1_555
C5 C1 1_555 1_555
H1 O4 1_555 1_555
H2 O4 1_555 1_555
H3 O5 1_555 1_555
H4 O5 1_555 1_555
H5 O6 1_555 1_555
H6 O6 1_555 1_555
C4G C3 1_555 1_555
C3G C4 1_555 1_555
C5G C4 1_555 1_555
O3G C4G 1_555 1_555
O7G C3G 1_555 1_555
C2G C3G 1_555 1_555
O8G C5G 1_555 1_555
C1G C5G 1_555 1_555
Cu1G O3G 1_555 1_555
O2G C2G 1_555 1_555
O1G C1G 1_555 1_555
O1G_2 Cu1G 1_555 1_555
O2G_2 Cu1G 1_555 1_555
O4G Cu1G 1_555 1_555
O5G Cu1G 1_555 1_555
O6G Cu1G 1_555 1_555
Cu1G_2 O2G 1_555 1_555
H1G O4G 1_555 1_555
H2G O4G 1_555 1_555
H3G O5G 1_555 1_555
H4G O5G 1_555 1_555
H5G O6G 1_555 1_555
H6G O6G 1_555 1_555
C5 C4G 1_555 1_555
C2G C1G 1_555 1_555
O1G Cu1G_2 1_555 1_555

#END
