
#######################################################################
#
#                 Cambridge Crystallographic Data Centre
#                                CCDC 
#
#######################################################################
#
# If this CIF has been generated from an entry in the Cambridge 
# Structural Database, then it will include bibliographic, chemical, 
# crystal, experimental, refinement or atomic coordinate data resulting 
# from the CCDC's data processing and validation procedures.
#
#######################################################################

data_CUCROC
_symmetry_cell_setting           orthorhombic
_symmetry_space_group_name_H-M   'P b c a'
_symmetry_Int_Tables_number      61
_space_group_name_Hall           '-P 2ac 2ab'
loop_
_symmetry_equiv_pos_site_id
_symmetry_equiv_pos_as_xyz
1 x,y,z
2 1/2-x,-y,1/2+z
3 1/2+x,1/2-y,-z
4 -x,1/2+y,1/2-z
5 -x,-y,-z
6 1/2+x,y,1/2-z
7 1/2-x,1/2+y,z
8 x,1/2-y,1/2+z
_cell_length_a                   11.770
_cell_length_b                   8.090
_cell_length_c                   15.560
_cell_angle_alpha                90
_cell_angle_beta                 90
_cell_angle_gamma                90
_cell_volume                     1481.61
loop_
_atom_site_label
_atom_site_type_symbol
_atom_site_fract_x
_atom_site_fract_y
_atom_site_fract_z
Cu1 Cu 0.12760 0.10590 0.18850
C1 C 0.12500 0.04000 0.36810
C2 C 0.13240 0.21610 0.35340
C3 C 0.13530 0.30230 0.43380
C4 C 0.13380 0.17240 0.50180
C5 C 0.12480 0.01100 0.46050
O1 O 0.11690 -0.06260 0.30890
O2 O 0.13220 0.27870 0.27810
O3 O 0.13070 0.45350 0.44700
O4 O 0.14180 0.19310 0.58040
O5 O 0.12150 -0.12260 0.49680
O6 O 0.11440 -0.07580 0.10810
O7 O -0.04130 0.13340 0.18270
O8 O 0.30110 0.09670 0.18000
O4G O 0.14180 0.30690 0.08040
Cu1G Cu 0.12760 0.39410 0.68850
loop_
_geom_bond_atom_site_label_1
_geom_bond_atom_site_label_2
_geom_bond_site_symmetry_1
_geom_bond_site_symmetry_2
Cu1 O1 1_555 1_555
C1 C2 1_555 1_555
C2 C3 1_555 1_555
C3 C4 1_555 1_555
C4 C5 1_555 1_555
C5 C1 1_555 1_555
O1 C1 1_555 1_555
O2 Cu1 1_555 1_555
O3 C3 1_555 1_555
O4 C4 1_555 1_555
O5 C5 1_555 1_555
O6 Cu1 1_555 1_555
O7 Cu1 1_555 1_555
O8 Cu1 1_555 1_555
O4G Cu1 1_555 1_555
Cu1G O4 1_555 1_555
C2 O2 1_555 1_555

#END
