
#######################################################################
#
#                 Cambridge Crystallographic Data Centre
#                                CCDC 
#
#######################################################################
#
# If this CIF has been generated from an entry in the Cambridge 
# Structural Database, then it will include bibliographic, chemical, 
# crystal, experimental, refinement or atomic coordinate data resulting 
# from the CCDC's data processing and validation procedures.
#
#######################################################################

data_CUDTAR02
_symmetry_cell_setting           monoclinic
_symmetry_space_group_name_H-M   'P 21'
_symmetry_Int_Tables_number      4
_space_group_name_Hall           'P 2yb'
loop_
_symmetry_equiv_pos_site_id
_symmetry_equiv_pos_as_xyz
1 x,y,z
2 -x,1/2+y,-z
_cell_length_a                   8.3878(17)
_cell_length_b                   8.7850(18)
_cell_length_c                   12.197(2)
_cell_angle_alpha                90
_cell_angle_beta                 104.63(3)
_cell_angle_gamma                90
_cell_volume                     869.618
loop_
_atom_site_label
_atom_site_type_symbol
_atom_site_fract_x
_atom_site_fract_y
_atom_site_fract_z
Cu1 Cu 0.30766(11) 0.9173(3) -0.02694(8)
Cu2 Cu 0.16822(11) 0.9189(3) -0.47549(8)
O1 O 0.3260(7) 1.0441(8) -0.3541(5)
H1 H 0.4204 1.0563 -0.3600
O2 O 0.0339(8) 1.1036(8) -0.4819(5)
O3 O 0.0177(7) 1.3325(8) -0.4079(5)
O4 O 0.1445(7) 1.0598(8) -0.1899(5)
H2 H 0.0511 1.0873 -0.1895
O5 O 0.4420(8) 1.0885(8) -0.0427(5)
O6 O 0.4947(9) 1.3039(9) -0.1240(6)
O7 O 0.1988(8) 1.0208(6) 0.0793(6)
H3 H 0.1013 0.9964 0.0652
O8 O 0.2808(9) 0.9853(9) -0.6315(7)
H4 H 0.2091 1.0320 -0.6820
O9 O 0.1038(7) 0.7954(8) -0.3156(5)
H5 H 0.1413 0.8570 -0.2650
O10 O 0.3166(7) 0.7459(8) -0.4495(5)
O11 O 0.4038(9) 0.5300(9) -0.3623(6)
O12 O 0.3852(7) 0.7967(7) -0.1442(5)
H6 H 0.4842 0.7841 -0.1369
O13 O 0.1657(8) 0.7435(8) -0.0324(5)
O14 O 0.1242(9) 0.4998(8) -0.0898(6)
C1 C 0.0915(11) 1.2076(11) -0.4131(7)
C2 C 0.2584(10) 1.1862(10) -0.3283(8)
H7 H 0.3329 1.2685 -0.3370
C3 C 0.2405(11) 1.1867(11) -0.2068(7)
H8 H 0.1786 1.2783 -0.1970
C4 C 0.4068(11) 1.1944(12) -0.1178(8)
C5 C 0.3167(11) 0.6441(11) -0.3736(8)
C6 C 0.2024(11) 0.6568(11) -0.2946(8)
H9 H 0.1270 0.5697 -0.3085
C7 C 0.3026(13) 0.6519(11) -0.1684(8)
H10 H 0.3840 0.5696 -0.1584
C8 C 0.1911(12) 0.6289(11) -0.0905(7)
H11 H 0.222(9) 1.1149(17) 0.079(6)
H12 H 0.376(6) 0.966(12) -0.640(10)
Cu1A Cu 0.69234(11) 1.4173(3) 0.02694(8)
Cu2A Cu -0.16822(11) 1.4189(3) -0.52451(8)
O3A O -0.0177(7) 0.8325(8) -0.5921(5)
O6A O 0.5053(9) 0.8039(9) 0.1240(6)
O15 O 0.2859(8) 0.3221(9) 0.1118(7)
H13 H 0.2197 0.3684 0.1425
H14 H 0.2424 0.2372 0.0876
O16 O 0.1455(11) 0.6767(17) 0.1905(8)
H15 H 0.1585 0.7708 0.2065
H16 H 0.1827 0.6604 0.1330
O17 O 0.2252(9) 0.2998(10) 0.3291(7)
H17 H 0.2755 0.3580 0.3822
H18 H 0.1224 0.3137 0.3200
O18 O 0.3813(9) 0.5780(10) 0.3737(6)
H19 H 0.294(17) 0.624(15) 0.384(13)
H20 H 0.380(10) 0.473(10) 0.376(7)
loop_
_geom_bond_atom_site_label_1
_geom_bond_atom_site_label_2
_geom_bond_site_symmetry_1
_geom_bond_site_symmetry_2
Cu1 O4 1_555 1_555
Cu2 O1 1_555 1_555
O1 H1 1_555 1_555
O2 Cu2 1_555 1_555
O3 C1 1_555 1_555
O4 H2 1_555 1_555
O5 Cu1 1_555 1_555
O6 C4 1_555 1_555
O7 Cu1 1_555 1_555
H3 O7 1_555 1_555
O8 Cu2 1_555 1_555
H4 O8 1_555 1_555
O9 Cu2 1_555 1_555
H5 O9 1_555 1_555
O10 Cu2 1_555 1_555
O11 C5 1_555 1_555
O12 Cu1 1_555 1_555
H6 O12 1_555 1_555
O13 Cu1 1_555 1_555
O14 C8 1_555 1_555
C1 O2 1_555 1_555
C2 O1 1_555 1_555
H7 C2 1_555 1_555
C3 O4 1_555 1_555
H8 C3 1_555 1_555
C4 O5 1_555 1_555
C5 O10 1_555 1_555
C6 O9 1_555 1_555
H9 C6 1_555 1_555
C7 O12 1_555 1_555
H10 C7 1_555 1_555
C8 O13 1_555 1_555
H11 O7 1_555 1_555
H12 O8 1_555 1_555
O15 H13 1_555 1_555
H14 O15 1_555 1_555
O16 H15 1_555 1_555
H16 O16 1_555 1_555
O17 H17 1_555 1_555
H18 O17 1_555 1_555
O18 H19 1_555 1_555
H20 O18 1_555 1_555
Cu1A O6 1_555 1_555
Cu2A O3 1_555 1_555
O3A Cu2 1_555 1_555
O6A Cu1 1_555 1_555
C1 C2 1_555 1_555
C2 C3 1_555 1_555
C3 C4 1_555 1_555
C5 C6 1_555 1_555
C6 C7 1_555 1_555
C7 C8 1_555 1_555

#END
