
#######################################################################
#
#                 Cambridge Crystallographic Data Centre
#                                CCDC 
#
#######################################################################
#
# If this CIF has been generated from an entry in the Cambridge 
# Structural Database, then it will include bibliographic, chemical, 
# crystal, experimental, refinement or atomic coordinate data resulting 
# from the CCDC's data processing and validation procedures.
#
#######################################################################

data_CUDTAR05
_symmetry_cell_setting           monoclinic
_symmetry_space_group_name_H-M   'P 21'
_symmetry_Int_Tables_number      4
_space_group_name_Hall           'P 2yb'
loop_
_symmetry_equiv_pos_site_id
_symmetry_equiv_pos_as_xyz
1 x,y,z
2 -x,1/2+y,-z
_cell_length_a                   8.3500(11)
_cell_length_b                   8.7471(12)
_cell_length_c                   12.0392(17)
_cell_angle_alpha                90
_cell_angle_beta                 104.276(7)
_cell_angle_gamma                90
_cell_volume                     852.168
loop_
_atom_site_label
_atom_site_type_symbol
_atom_site_fract_x
_atom_site_fract_y
_atom_site_fract_z
Cu1 Cu 0.19191(4) 0.11136(4) 0.52642(3)
Cu2 Cu 0.33140(4) 0.11234(4) 0.97717(3)
O1 O 0.3353(2) -0.0643(2) 0.53085(18)
O2 O 0.3719(2) -0.3066(3) 0.58636(19)
O3 O 0.1850(2) -0.0621(2) 0.95147(18)
O4 O 0.0976(3) -0.2804(3) 0.86392(19)
O5 O 0.1146(2) -0.0090(2) 0.64526(16)
H1 H 0.0105 -0.0078 0.6366
O6 O 0.0549(2) 0.2824(3) 0.54201(18)
O7 O 0.0041(3) 0.4993(3) 0.62297(18)
O8 O 0.4637(2) 0.2959(3) 0.98402(19)
O9 O 0.4822(2) 0.5256(3) 0.90686(18)
O10 O 0.3551(2) 0.2521(2) 0.68850(17)
H2 H 0.4481 0.2845 0.6866
O11 O 0.1765(2) 0.2359(2) 0.85467(17)
H3 H 0.071 0.2456 0.854
O12 O 0.3018(2) 0.2146(3) 0.41986(18)
H4 H 0.3994 0.1894 0.4342
H5 H 0.286 0.31 0.4152
O13 O 0.2208(2) 0.1809(3) 1.1335(2)
H6 H 0.1199 0.1857 1.1118
H7 H 0.2601 0.1294 1.1912
C1 C 0.3087(4) -0.1781(4) 0.5893(3)
C2 C 0.1953(4) -0.1548(4) 0.6703(3)
H8 H 0.1134 -0.2371 0.6605
C3 C 0.2981(4) -0.1486(4) 0.7948(3)
H9 H 0.3738 -0.2361 0.8077
C4 C 0.1836(4) -0.1635(4) 0.8760(3)
C5 C 0.0920(4) 0.3881(4) 0.6182(3)
C6 C 0.2585(4) 0.3813(4) 0.7067(3)
H10 H 0.3202 0.4737 0.6972
C7 C 0.2407(4) 0.3799(4) 0.8296(3)
H11 H 0.1658 0.4621 0.8398
C8 C 0.4089(4) 0.4023(4) 0.9130(3)
O14 O 0.3949(2) -0.0117(2) 0.81522(17)
H12 H 0.3513 0.0613 0.7661
Cu1A Cu -0.19191(4) 0.61136(4) 0.47358(3)
Cu2A Cu 0.66860(4) 0.61234(4) 1.02283(3)
O7A O -0.0041(3) -0.0007(3) 0.37703(18)
O9A O 0.5178(2) 0.0256(3) 1.09314(18)
O15 O -0.2158(2) 0.0116(3) 0.6106(2)
H13 H -0.2437 0.0145 0.6826
H14 H -0.2565 0.0934 0.5631
O16 O -0.3595(3) 0.3825(4) 0.6910(2)
H15 H -0.3025 0.4279 0.6514
H16 H -0.2953 0.3599 0.7553
O17 O -0.2768(2) -0.0057(3) 0.8260(2)
H17 H -0.2462 -0.0896 0.8387
H18 H -0.3838 0.0014 0.8094
O18 O -0.1222(2) 0.2702(3) 0.87077(18)
H19 H -0.1389 0.1758 0.8864
H20 H -0.1219 0.3183 0.9329
loop_
_geom_bond_atom_site_label_1
_geom_bond_atom_site_label_2
_geom_bond_site_symmetry_1
_geom_bond_site_symmetry_2
Cu1 O1 1_555 1_555
Cu2 O3 1_555 1_555
O1 C1 1_555 1_555
O2 C1 1_555 1_555
O3 C4 1_555 1_555
O4 C4 1_555 1_555
O5 Cu1 1_555 1_555
H1 O5 1_555 1_555
O6 Cu1 1_555 1_555
O7 C5 1_555 1_555
O8 Cu2 1_555 1_555
O9 C8 1_555 1_555
O10 Cu1 1_555 1_555
H2 O10 1_555 1_555
O11 Cu2 1_555 1_555
H3 O11 1_555 1_555
O12 Cu1 1_555 1_555
H4 O12 1_555 1_555
H5 O12 1_555 1_555
O13 Cu2 1_555 1_555
H6 O13 1_555 1_555
H7 O13 1_555 1_555
C1 C2 1_555 1_555
C2 O5 1_555 1_555
H8 C2 1_555 1_555
C3 C2 1_555 1_555
H9 C3 1_555 1_555
C4 C3 1_555 1_555
C5 O6 1_555 1_555
C6 O10 1_555 1_555
H10 C6 1_555 1_555
C7 O11 1_555 1_555
H11 C7 1_555 1_555
C8 O8 1_555 1_555
O14 Cu2 1_555 1_555
H12 O14 1_555 1_555
O15 H13 1_555 1_555
H14 O15 1_555 1_555
O16 H15 1_555 1_555
H16 O16 1_555 1_555
O17 H17 1_555 1_555
H18 O17 1_555 1_555
O18 H19 1_555 1_555
H20 O18 1_555 1_555
Cu1A O7 1_555 1_555
Cu2A O9 1_555 1_555
O7A Cu1 1_555 1_555
O9A Cu2 1_555 1_555
C3 O14 1_555 1_555
C5 C6 1_555 1_555
C6 C7 1_555 1_555
C7 C8 1_555 1_555

#END
