
#######################################################################
#
#                 Cambridge Crystallographic Data Centre
#                                CCDC 
#
#######################################################################
#
# If this CIF has been generated from an entry in the Cambridge 
# Structural Database, then it will include bibliographic, chemical, 
# crystal, experimental, refinement or atomic coordinate data resulting 
# from the CCDC's data processing and validation procedures.
#
#######################################################################

data_CUFCEN
_symmetry_cell_setting           monoclinic
_symmetry_space_group_name_H-M   'P 21'
_symmetry_Int_Tables_number      4
_space_group_name_Hall           'P 2yb'
loop_
_symmetry_equiv_pos_site_id
_symmetry_equiv_pos_as_xyz
1 x,y,z
2 -x,1/2+y,-z
_cell_length_a                   9.5681(4)
_cell_length_b                   5.8806(2)
_cell_length_c                   9.8963(4)
_cell_angle_alpha                90
_cell_angle_beta                 107.244(5)
_cell_angle_gamma                90
_cell_volume                     531.798
loop_
_atom_site_label
_atom_site_type_symbol
_atom_site_fract_x
_atom_site_fract_y
_atom_site_fract_z
Mn1 Mn 0.19920(3) -0.06356(12) -0.31111(3)
O1 O 0.39153(19) -0.2240(3) -0.17061(18)
O2 O -0.00175(17) 0.0670(3) -0.44768(15)
C1 C -0.1257(2) 0.1036(4) -0.4334(2)
O3 O -0.22416(16) 0.2155(3) -0.52049(16)
C2 C -0.1598(2) 0.0121(4) -0.3044(2)
C3 C -0.0908(2) -0.1810(4) -0.2299(2)
N1 N 0.0174(2) -0.3042(3) -0.27126(19)
C4 C -0.1262(2) -0.2490(4) -0.1087(2)
C5 C -0.2295(2) -0.1314(4) -0.0627(2)
C6 C -0.2976(2) 0.0594(4) -0.1363(2)
C7 C -0.2620(2) 0.1303(4) -0.2560(2)
C8 C -0.2683(2) -0.2167(4) 0.0658(2)
O4 O -0.1782(2) -0.3424(4) 0.14724(19)
O5 O -0.38776(17) -0.1560(3) 0.08311(17)
O6 O 0.3302(2) 0.1786(3) -0.3868(2)
H1 H -0.0794 -0.3818 -0.0570
H2 H -0.3685 0.1431 -0.1045
H3 H -0.3081 0.2621 -0.3063
H4 H 0.0529 -0.4239 -0.2135
H5 H -0.0226 -0.3726 -0.3560
H6 H 0.3614 0.1379 -0.4547
H7 H 0.3555 0.2945 -0.3330
H8 H 0.3643 -0.3603 -0.1580
H9 H 0.4589 -0.1700 -0.1054
Mn1A Mn -0.19920(3) -0.56356(12) 0.31111(3)
Mn1A_2 Mn -0.19920(3) 0.43644(12) -0.68889(3)
O3A O 0.22416(16) -0.2845(3) -0.47951(16)
O4A O 0.1782(2) 0.1576(4) -0.14724(19)
O7 O 0.5308(2) -0.3746(4) -0.4074(2)
H10 H 0.4409 -0.3908 -0.4407
H11 H 0.5638 -0.2835 -0.3363
loop_
_geom_bond_atom_site_label_1
_geom_bond_atom_site_label_2
_geom_bond_site_symmetry_1
_geom_bond_site_symmetry_2
Mn1 O1 1_555 1_555
O1 H8 1_555 1_555
O2 Mn1 1_555 1_555
C1 O2 1_555 1_555
O3 C1 1_555 1_555
C2 C1 1_555 1_555
C3 C2 1_555 1_555
N1 Mn1 1_555 1_555
C4 C3 1_555 1_555
C5 C4 1_555 1_555
C6 C5 1_555 1_555
C7 C2 1_555 1_555
C8 C5 1_555 1_555
O4 C8 1_555 1_555
O5 C8 1_555 1_555
O6 Mn1 1_555 1_555
H1 C4 1_555 1_555
H2 C6 1_555 1_555
H3 C7 1_555 1_555
H4 N1 1_555 1_555
H5 N1 1_555 1_555
H6 O6 1_555 1_555
H7 O6 1_555 1_555
H9 O1 1_555 1_555
O7 H10 1_555 1_555
H11 O7 1_555 1_555
Mn1A O4 1_555 1_555
Mn1A_2 O3 1_555 1_555
O3A Mn1 1_555 1_555
O4A Mn1 1_555 1_555
C3 N1 1_555 1_555
C6 C7 1_555 1_555

#END
