
#######################################################################
#
#                 Cambridge Crystallographic Data Centre
#                                CCDC 
#
#######################################################################
#
# If this CIF has been generated from an entry in the Cambridge 
# Structural Database, then it will include bibliographic, chemical, 
# crystal, experimental, refinement or atomic coordinate data resulting 
# from the CCDC's data processing and validation procedures.
#
#######################################################################

data_CUFGOB
_symmetry_cell_setting           monoclinic
_symmetry_space_group_name_H-M   'C c'
_symmetry_Int_Tables_number      9
_space_group_name_Hall           'C -2yc'
loop_
_symmetry_equiv_pos_site_id
_symmetry_equiv_pos_as_xyz
1 x,y,z
2 x,-y,1/2+z
3 1/2+x,1/2+y,z
4 1/2+x,1/2-y,1/2+z
_cell_length_a                   12.5247(5)
_cell_length_b                   32.2184(16)
_cell_length_c                   7.6101(5)
_cell_angle_alpha                90
_cell_angle_beta                 98.856(4)
_cell_angle_gamma                90
_cell_volume                     3034.26
loop_
_atom_site_label
_atom_site_type_symbol
_atom_site_fract_x
_atom_site_fract_y
_atom_site_fract_z
Tb1 Tb 0.97132(4) 0.615009(12) 0.18995(5)
O1 O 0.1316(6) 0.5916(2) 0.0969(10)
O2 O 0.8147(6) 0.5839(2) 0.2760(11)
Cd1 Cd 0.47213(7) 0.550556(17) 0.18983(13)
N1 N 0.5484(7) 0.6021(3) 0.0378(12)
Cd2 Cd 0.07574(6) 0.76239(2) 0.44372(11)
N2 N 0.5753(8) 0.6689(2) -0.0170(14)
Cl1 Cl -0.0275(3) 0.73319(7) 0.6643(5)
C1 C 0.2963(8) 0.6195(3) 0.2537(14)
C2 C 0.6500(8) 0.6119(3) 0.1157(15)
C3 C 0.2735(9) 0.6597(3) 0.2969(16)
C4 C 0.7101(9) 0.6168(3) 0.6667(17)
H1 H 0.7459 0.5932 0.7152
C5 C 0.6672(9) 0.6536(3) 0.0814(16)
C6 C 0.4433(8) 0.6444(3) 0.4005(14)
C7 C 0.2432(10) 0.6081(4) -0.3158(16)
H2 H 0.2123 0.5856 -0.3811
C8 C 0.5068(8) 0.6371(3) -0.0395(14)
C9 C 0.7582(8) 0.6830(3) 0.1390(14)
C10 C 0.7148(8) 0.5808(3) 0.2278(14)
N3 N 0.7632(8) 0.6528(3) 0.6802(14)
N4 N 0.1835(8) 0.6419(3) -0.3099(14)
C11 C 0.2303(9) 0.5860(3) 0.1447(15)
C12 C 0.7135(9) 0.6865(3) 0.6015(16)
H3 H 0.7499 0.7117 0.6134
C13 C 0.3975(8) 0.6394(3) -0.1344(14)
C14 C 0.5551(8) 0.6482(3) 0.4953(14)
C15 C 0.2275(10) 0.6746(4) -0.2194(17)
H4 H 0.1854 0.6982 -0.2120
O3 O 0.6615(6) 0.5491(2) 0.2728(11)
O4 O -0.0460(7) 0.7510(2) 0.1775(13)
H5 H -0.0413 0.7239 0.1317
H6 H -0.1194 0.7544 0.1890
C16 C 0.6096(8) 0.6854(3) 0.5027(15)
H7 H 0.5787 0.7089 0.4444
C17 C 0.3501(9) 0.6043(4) -0.2295(16)
H8 H 0.3885 0.5797 -0.2344
O5 O 0.7394(6) 0.7213(2) 0.1260(11)
C18 C 0.3332(9) 0.6748(3) -0.1363(16)
H9 H 0.3623 0.6989 -0.0807
C19 C 0.6061(9) 0.6130(3) 0.5853(16)
H10 H 0.5691 0.5880 0.5882
O6 O 0.9031(7) 0.5625(3) -0.0171(12)
H11 H 0.8839 0.5363 0.0209
H12 H 0.8372 0.5723 0.0051
N5 N 0.3686(8) 0.6742(3) 0.3897(13)
H13 H 0.3786 0.6987 0.4340
O7 O 0.9845(6) 0.6382(3) 0.4896(10)
H14 H 0.9522 0.6665 0.5159
H15 H 1.0570 0.6390 0.5732
N6 N 0.4026(7) 0.6103(2) 0.3175(12)
C20 C 0.1756(9) 0.6869(3) 0.2727(15)
Cl2 Cl 0.4578(2) 0.48724(7) -0.0112(4)
O8 O 0.1956(6) 0.7233(2) 0.3326(12)
O9 O 0.9549(6) 0.6443(3) -0.1003(11)
H16 H 0.9699 0.6701 -0.0526
H17 H 1.0081 0.6368 -0.1690
O10 O 0.8512(6) 0.6688(2) 0.1991(12)
O11 O 0.0868(6) 0.6740(2) 0.2048(12)
O12 O 0.2818(6) 0.5541(2) 0.1082(11)
O13 O 1.0463(7) 0.5619(2) 0.3846(11)
H18 H 1.0016 0.5522 0.4747
H19 H 1.0605 0.5368 0.3224
Tb1_2 Tb -0.02868(4) 0.615009(12) 0.18995(5)
O1_2 O 1.1316(6) 0.5916(2) 0.0969(10)
Cd1A Cd 0.47213(7) 0.449444(17) -0.31017(13)
Cd2C Cd 0.57574(6) 0.73761(2) -0.05628(11)
N2C N 0.0753(8) 0.8311(2) 0.4830(14)
O5C O 0.2394(6) 0.7787(2) 0.6260(11)
Cl2A Cl 0.4578(2) 0.51276(7) 0.4888(4)
O11_2 O 1.0868(6) 0.6740(2) 0.2048(12)
O14 O 0.7720(7) 0.4969(2) 0.0478(13)
H20 H 0.729(10) 0.512(4) 0.098(18)
H21 H 0.730(10) 0.475(4) -0.025(17)
O15 O 0.9717(9) 0.5372(2) 0.6798(14)
H22 H 1.0206 0.5313 0.7668
H23 H 0.9154 0.5234 0.6912
O16 O 0.1755(7) 0.5034(3) -0.1701(13)
H24 H 0.226(7) 0.499(4) -0.201(19)
H25 H 0.211(10) 0.515(3) -0.064(17)
loop_
_geom_bond_atom_site_label_1
_geom_bond_atom_site_label_2
_geom_bond_site_symmetry_1
_geom_bond_site_symmetry_2
Tb1 O2 1_555 1_555
O1 C11 1_555 1_555
O2 C10 1_555 1_555
Cd1 N1 1_555 1_555
N1 C2 1_555 1_555
Cd2 Cl1 1_555 1_555
N2 C5 1_555 1_555
C1 C3 1_555 1_555
C2 C5 1_555 1_555
C3 N5 1_555 1_555
C4 H1 1_555 1_555
C5 C9 1_555 1_555
C6 C14 1_555 1_555
C7 H2 1_555 1_555
C8 N1 1_555 1_555
C9 O5 1_555 1_555
C10 C2 1_555 1_555
N3 C4 1_555 1_555
N4 C7 1_555 1_555
C11 C1 1_555 1_555
C12 N3 1_555 1_555
H3 C12 1_555 1_555
C13 C8 1_555 1_555
C14 C16 1_555 1_555
C15 N4 1_555 1_555
H4 C15 1_555 1_555
O3 Cd1 1_555 1_555
O4 Cd2 1_555 1_555
H5 O4 1_555 1_555
H6 O4 1_555 1_555
C16 C12 1_555 1_555
H7 C16 1_555 1_555
C17 C7 1_555 1_555
H8 C17 1_555 1_555
O5 Cd2C 1_555 1_555
C18 C13 1_555 1_555
H9 C18 1_555 1_555
C19 C4 1_555 1_555
H10 C19 1_555 1_555
O6 Tb1 1_555 1_555
H11 O6 1_555 1_555
H12 O6 1_555 1_555
N5 C6 1_555 1_555
H13 N5 1_555 1_555
O7 Tb1 1_555 1_555
H14 O7 1_555 1_555
H15 O7 1_555 1_555
N6 Cd1 1_555 1_555
C20 C3 1_555 1_555
Cl2 Cd1 1_555 1_555
O8 Cd2 1_555 1_555
O9 Tb1 1_555 1_555
H16 O9 1_555 1_555
H17 O9 1_555 1_555
O10 Tb1 1_555 1_555
O11 C20 1_555 1_555
O12 Cd1 1_555 1_555
O13 Tb1 1_555 1_555
H18 O13 1_555 1_555
H19 O13 1_555 1_555
O14 H20 1_555 1_555
H21 O14 1_555 1_555
O15 H22 1_555 1_555
H23 O15 1_555 1_555
O16 H24 1_555 1_555
H25 O16 1_555 1_555
Tb1_2 O1 1_555 1_555
O1_2 Tb1 1_555 1_555
Cd1A Cl2 1_555 1_555
Cd2C N2 1_555 1_555
N2C Cd2 1_555 1_555
O5C Cd2 1_555 1_555
Cl2A Cd1 1_555 1_555
O11_2 Tb1 1_555 1_555
N2 C8 1_555 1_555
C1 N6 1_555 1_555
C6 N6 1_555 1_555
C9 O10 1_555 1_555
C10 O3 1_555 1_555
C11 O12 1_555 1_555
C13 C17 1_555 1_555
C14 C19 1_555 1_555
C15 C18 1_555 1_555
C20 O8 1_555 1_555
O11 Tb1_2 1_555 1_555

#END
