
#######################################################################
#
#                 Cambridge Crystallographic Data Centre
#                                CCDC 
#
#######################################################################
#
# If this CIF has been generated from an entry in the Cambridge 
# Structural Database, then it will include bibliographic, chemical, 
# crystal, experimental, refinement or atomic coordinate data resulting 
# from the CCDC's data processing and validation procedures.
#
#######################################################################

data_CUFPUQ
_symmetry_cell_setting           monoclinic
_symmetry_space_group_name_H-M   'P 21/n'
_symmetry_Int_Tables_number      14
_space_group_name_Hall           '-P 2yn'
loop_
_symmetry_equiv_pos_site_id
_symmetry_equiv_pos_as_xyz
1 x,y,z
2 1/2-x,1/2+y,1/2-z
3 -x,-y,-z
4 1/2+x,1/2-y,1/2+z
_cell_length_a                   10.6421(4)
_cell_length_b                   25.1317(16)
_cell_length_c                   25.4129(16)
_cell_angle_alpha                90
_cell_angle_beta                 91.853(4)
_cell_angle_gamma                90
_cell_volume                     6793.23
loop_
_atom_site_label
_atom_site_type_symbol
_atom_site_fract_x
_atom_site_fract_y
_atom_site_fract_z
U1 U 0.74914(4) 0.52460(2) 1.02866(2)
O1 O 0.7838(8) 0.5769(3) 0.9861(3)
O2 O 0.7122(8) 0.4712(3) 1.0708(3)
O3 O 0.6091(7) 0.4865(3) 0.9655(3)
O4 O 0.4505(7) 0.4300(4) 0.9630(4)
O5 O 0.9138(9) 0.3635(5) 0.8384(4)
H1 H 0.9738 0.3433 0.8181
O6 O 0.9759(12) 0.2923(5) 0.8803(5)
O7 O 0.8887(7) 0.4706(3) 0.9803(3)
O8 O 1.0490(8) 0.4710(4) 0.9259(3)
O9 O 0.587(2) 0.3518(8) 0.8419(13)
O10 O 0.4592(16) 0.4078(14) 0.8100(12)
H2 H 0.4304 0.3989 0.7703
O11 O 0.7437(8) 0.5845(5) 1.1054(5)
H3 H 0.6771 0.6083 1.1048
H4 H 0.8136 0.5991 1.1004
C1 C 0.7424(9) 0.3896(4) 0.9214(4)
C2 C 0.6540(10) 0.3928(5) 0.9626(5)
C3 C 0.6455(11) 0.3546(5) 0.9997(5)
H5 H 0.5849 0.3578 1.0262
C4 C 0.7247(12) 0.3104(6) 0.9996(6)
H6 H 0.7177 0.2837 1.0257
C5 C 0.8145(11) 0.3057(6) 0.9609(6)
H7 H 0.8692 0.2758 0.9612
C6 C 0.8247(10) 0.3447(6) 0.9216(5)
C7 C 0.5674(10) 0.4405(5) 0.9640(4)
C8 C 0.9119(12) 0.3359(6) 0.8792(7)
C9 C 0.7514(9) 0.4334(5) 0.8829(4)
C10 C 0.8446(10) 0.4720(5) 0.8877(5)
C11 C 0.8535(13) 0.5136(5) 0.8511(5)
H8 H 0.9207 0.5383 0.8544
C12 C 0.7663(15) 0.5188(7) 0.8109(6)
H9 H 0.7707 0.5477 0.7870
C13 C 0.6715(14) 0.4814(7) 0.8054(6)
H10 H 0.6109 0.4851 0.7773
C14 C 0.6621(10) 0.4380(5) 0.8401(5)
C15 C 0.9331(9) 0.4712(5) 0.9346(5)
C16 C 0.5659(13) 0.3983(7) 0.8281(5)
U1B U 0.25086(4) 0.47540(2) 0.97134(2)
U1B_2 U 1.25086(4) 0.47540(2) 0.97134(2)
O4B O 0.5495(7) 0.5700(4) 1.0370(4)
O8B O 0.9510(8) 0.5290(4) 1.0741(3)
U2 U 0.74912(4) 0.48391(2) 0.47195(2)
O14 O 0.7884(7) 0.5460(4) 0.4438(4)
O15 O 0.7072(7) 0.4238(4) 0.5030(4)
O16 O 0.6172(7) 0.5284(4) 0.5304(3)
O17 O 0.4444(7) 0.5086(4) 0.5755(4)
O18 O 1.0216(19) 0.4927(9) 0.7198(13)
O19 O 0.958(4) 0.5710(7) 0.6918(15)
O20 O 0.8891(7) 0.5040(4) 0.5420(3)
O21 O 1.0569(7) 0.5564(4) 0.5507(4)
O22 O 0.4873(13) 0.6301(7) 0.6560(6)
O23 O 0.5963(10) 0.5770(6) 0.7092(4)
H11 H 0.5185 0.5828 0.7214
O24 O 0.7443(9) 0.4374(6) 0.3858(5)
H12 H 0.6638 0.4253 0.3793
H13 H 0.8051 0.4140 0.3863
C17 C 0.7457(12) 0.5218(5) 0.6348(5)
C18 C 0.6390(12) 0.4927(6) 0.6162(5)
C19 C 0.6102(13) 0.4456(6) 0.6399(6)
H14 H 0.5327 0.4290 0.6302
C20 C 0.6865(16) 0.4208(6) 0.6770(6)
H15 H 0.6647 0.3874 0.6916
C21 C 0.7960(14) 0.4466(7) 0.6920(6)
H16 H 0.8528 0.4301 0.7165
C22 C 0.8246(10) 0.4959(7) 0.6720(6)
C23 C 0.5605(12) 0.5117(5) 0.5717(5)
C24 C 0.9472(13) 0.5223(7) 0.6951(8)
C25 C 0.7717(11) 0.5764(6) 0.6160(5)
C26 C 0.8694(10) 0.5899(5) 0.5822(5)
C27 C 0.8979(12) 0.6423(6) 0.5711(6)
H17 H 0.9676 0.6506 0.5501
C28 C 0.8234(14) 0.6832(6) 0.5908(7)
H18 H 0.8421 0.7192 0.5831
C29 C 0.7228(12) 0.6712(7) 0.6216(6)
H19 H 0.6708 0.6988 0.6342
C30 C 0.6981(12) 0.6192(6) 0.6340(6)
C31 C 0.9439(10) 0.5466(5) 0.5566(5)
C32 C 0.5855(14) 0.6085(8) 0.6688(6)
U2B U 0.25088(4) 0.51609(2) 0.52805(2)
U2B_2 U 1.25088(4) 0.51609(2) 0.52805(2)
O17B O 0.5556(7) 0.4914(4) 0.4245(4)
O21B O 0.9431(7) 0.4436(4) 0.4493(4)
Ni1 Ni 0.26477(14) 0.75983(6) 0.41299(7)
N1 N 0.2453(9) 0.7680(4) 0.4946(5)
N2 N 0.3981(8) 0.7066(4) 0.4432(4)
N3 N 0.4062(9) 0.8150(4) 0.4023(4)
N4 N 0.3010(10) 0.7504(4) 0.3327(5)
N5 N 0.1193(9) 0.8104(4) 0.3919(4)
N6 N 0.1147(9) 0.7076(4) 0.4093(5)
C33 C 0.1538(13) 0.7980(6) 0.5188(6)
H20 H 0.1140 0.8256 0.4988
C34 C 0.1176(14) 0.7905(6) 0.5694(6)
H21 H 0.0538 0.8118 0.5840
C35 C 0.1779(14) 0.7501(7) 0.5989(7)
H22 H 0.1560 0.7431 0.6342
C36 C 0.2678(13) 0.7216(6) 0.5756(6)
H23 H 0.3103 0.6948 0.5957
C37 C 0.3020(13) 0.7294(6) 0.5237(5)
C38 C 0.3989(10) 0.7009(5) 0.4956(5)
C39 C 0.4924(11) 0.6705(5) 0.5217(6)
H24 H 0.4934 0.6668 0.5589
C40 C 0.5831(12) 0.6460(6) 0.4922(6)
H25 H 0.6463 0.6249 0.5092
C41 C 0.5818(13) 0.6523(6) 0.4387(6)
H26 H 0.6436 0.6357 0.4181
C42 C 0.4879(12) 0.6836(6) 0.4153(6)
H27 H 0.4874 0.6888 0.3782
C43 C 0.4605(11) 0.8435(5) 0.4406(5)
H28 H 0.4331 0.8392 0.4756
C44 C 0.5576(12) 0.8800(5) 0.4311(6)
H29 H 0.5950 0.9005 0.4588
C45 C 0.5960(12) 0.8847(6) 0.3806(6)
H30 H 0.6599 0.9096 0.3730
C46 C 0.5433(13) 0.8534(6) 0.3398(6)
H31 H 0.5720 0.8557 0.3048
C47 C 0.4478(12) 0.8194(5) 0.3530(5)
C48 C 0.3914(12) 0.7834(6) 0.3119(5)
C49 C 0.4164(14) 0.7846(7) 0.2592(6)
H32 H 0.4735 0.8101 0.2461
C50 C 0.358(2) 0.7489(6) 0.2255(7)
H33 H 0.3787 0.7478 0.1894
C51 C 0.2681(14) 0.7138(6) 0.2457(6)
H34 H 0.2239 0.6898 0.2229
C52 C 0.2444(12) 0.7146(6) 0.2988(6)
H35 H 0.1869 0.6895 0.3124
C53 C 0.1249(12) 0.8636(5) 0.3853(6)
H36 H 0.2005 0.8813 0.3957
C54 C 0.0276(11) 0.8937(6) 0.3645(6)
H37 H 0.0340 0.9313 0.3623
C55 C -0.0784(11) 0.8677(6) 0.3472(7)
H38 H -0.1453 0.8869 0.3304
C56 C -0.0880(12) 0.8126(6) 0.3543(6)
H39 H -0.1626 0.7943 0.3435
C57 C 0.0107(12) 0.7855(6) 0.3767(5)
C58 C 0.0087(11) 0.7267(6) 0.3870(5)
C59 C -0.0919(13) 0.6945(6) 0.3739(6)
H40 H -0.1660 0.7088 0.3575
C60 C -0.0828(14) 0.6407(6) 0.3852(7)
H41 H -0.1509 0.6177 0.3761
C61 C 0.0245(14) 0.6202(6) 0.4097(6)
H42 H 0.0313 0.5836 0.4189
C62 C 0.1200(12) 0.6553(5) 0.4199(6)
H43 H 0.1957 0.6418 0.4355
O27 O 0.3982(19) 0.3478(9) 0.6960(8)
O28 O 0.3290(13) 0.2683(8) 0.7040(6)
O29 O 0.3408(14) 0.3234(7) 0.7701(6)
N7 N 0.3546(18) 0.3116(11) 0.7226(10)
O30 O 0.1432(18) 0.6484(8) 0.6681(6)
O31 O 0.2941(16) 0.6726(7) 0.7322(6)
O32 O 0.183(2) 0.6019(9) 0.7355(8)
N8 N 0.211(2) 0.6438(9) 0.7101(8)
O33 O 1.1319(16) 0.4159(10) 0.8059(7)
O34 O 1.1140(13) 0.2717(7) 0.7981(6)
O35 O 0.3925(16) 0.5365(8) 0.7480(9)
O36 O 0.2740(19) 0.4388(10) 0.7169(9)
O12? O 0.541(3) 0.3615(11) 0.8576(12)
O13? O 0.510(2) 0.4052(14) 0.7847(7)
O25? O 1.0479(13) 0.5006(13) 0.6844(16)
O26? O 0.935(3) 0.5694(8) 0.7077(14)
loop_
_geom_bond_atom_site_label_1
_geom_bond_atom_site_label_2
_geom_bond_site_symmetry_1
_geom_bond_site_symmetry_2
U1 O1 1_555 1_555
O2 U1 1_555 1_555
O3 U1 1_555 1_555
O4 C7 1_555 1_555
O5 H1 1_555 1_555
O6 C8 1_555 1_555
O7 U1 1_555 1_555
O8 C15 1_555 1_555
O9 C16 1_555 1_555
O10 H2 1_555 1_555
O11 U1 1_555 1_555
H3 O11 1_555 1_555
H4 O11 1_555 1_555
C1 C2 1_555 1_555
C2 C3 1_555 1_555
C3 H5 1_555 1_555
C4 C3 1_555 1_555
H6 C4 1_555 1_555
C5 C4 1_555 1_555
H7 C5 1_555 1_555
C6 C1 1_555 1_555
C7 O3 1_555 1_555
C8 O5 1_555 1_555
C9 C1 1_555 1_555
C10 C9 1_555 1_555
C11 C10 1_555 1_555
H8 C11 1_555 1_555
C12 C11 1_555 1_555
H9 C12 1_555 1_555
C13 C12 1_555 1_555
H10 C13 1_555 1_555
C14 C9 1_555 1_555
C15 O7 1_555 1_555
C16 O10 1_555 1_555
U2 O14 1_555 1_555
O15 U2 1_555 1_555
O16 U2 1_555 1_555
O17 C23 1_555 1_555
O18 C24 1_555 1_555
O19 C24 1_555 1_555
O20 U2 1_555 1_555
O21 C31 1_555 1_555
O22 C32 1_555 1_555
O23 H11 1_555 1_555
O24 U2 1_555 1_555
H12 O24 1_555 1_555
H13 O24 1_555 1_555
C17 C18 1_555 1_555
C18 C19 1_555 1_555
C19 H14 1_555 1_555
C20 C19 1_555 1_555
H15 C20 1_555 1_555
C21 C20 1_555 1_555
H16 C21 1_555 1_555
C22 C17 1_555 1_555
C23 O16 1_555 1_555
C24 C22 1_555 1_555
C25 C17 1_555 1_555
C26 C25 1_555 1_555
C27 C26 1_555 1_555
H17 C27 1_555 1_555
C28 C27 1_555 1_555
H18 C28 1_555 1_555
C29 C28 1_555 1_555
H19 C29 1_555 1_555
C30 C25 1_555 1_555
C31 O20 1_555 1_555
C32 O23 1_555 1_555
Ni1 N1 1_555 1_555
N1 C33 1_555 1_555
N2 Ni1 1_555 1_555
N3 Ni1 1_555 1_555
N4 Ni1 1_555 1_555
N5 Ni1 1_555 1_555
N6 Ni1 1_555 1_555
C33 H20 1_555 1_555
C34 C33 1_555 1_555
H21 C34 1_555 1_555
C35 C34 1_555 1_555
H22 C35 1_555 1_555
C36 C35 1_555 1_555
H23 C36 1_555 1_555
C37 N1 1_555 1_555
C38 N2 1_555 1_555
C39 C38 1_555 1_555
H24 C39 1_555 1_555
C40 C39 1_555 1_555
H25 C40 1_555 1_555
C41 C40 1_555 1_555
H26 C41 1_555 1_555
C42 N2 1_555 1_555
H27 C42 1_555 1_555
C43 N3 1_555 1_555
H28 C43 1_555 1_555
C44 C43 1_555 1_555
H29 C44 1_555 1_555
C45 C44 1_555 1_555
H30 C45 1_555 1_555
C46 C45 1_555 1_555
H31 C46 1_555 1_555
C47 N3 1_555 1_555
C48 N4 1_555 1_555
C49 C48 1_555 1_555
H32 C49 1_555 1_555
C50 C49 1_555 1_555
H33 C50 1_555 1_555
C51 C50 1_555 1_555
H34 C51 1_555 1_555
C52 N4 1_555 1_555
H35 C52 1_555 1_555
C53 N5 1_555 1_555
H36 C53 1_555 1_555
C54 C53 1_555 1_555
H37 C54 1_555 1_555
C55 C54 1_555 1_555
H38 C55 1_555 1_555
C56 C55 1_555 1_555
H39 C56 1_555 1_555
C57 N5 1_555 1_555
C58 N6 1_555 1_555
C59 C58 1_555 1_555
H40 C59 1_555 1_555
C60 C59 1_555 1_555
H41 C60 1_555 1_555
C61 C60 1_555 1_555
H42 C61 1_555 1_555
C62 N6 1_555 1_555
H43 C62 1_555 1_555
O27 N7 1_555 1_555
O28 N7 1_555 1_555
O29 N7 1_555 1_555
O30 N8 1_555 1_555
O31 N8 1_555 1_555
O32 N8 1_555 1_555
U1B O4 1_555 1_555
U1B_2 O8 1_555 1_555
O4B U1 1_555 1_555
O8B U1 1_555 1_555
U2B O17 1_555 1_555
U2B_2 O21 1_555 1_555
O17B U2 1_555 1_555
O21B U2 1_555 1_555
C2 C7 1_555 1_555
C5 C6 1_555 1_555
C6 C8 1_555 1_555
C10 C15 1_555 1_555
C13 C14 1_555 1_555
C14 C16 1_555 1_555
C18 C23 1_555 1_555
C21 C22 1_555 1_555
C26 C31 1_555 1_555
C29 C30 1_555 1_555
C30 C32 1_555 1_555
C36 C37 1_555 1_555
C37 C38 1_555 1_555
C41 C42 1_555 1_555
C46 C47 1_555 1_555
C47 C48 1_555 1_555
C51 C52 1_555 1_555
C56 C57 1_555 1_555
C57 C58 1_555 1_555
C61 C62 1_555 1_555

#END
