
#######################################################################
#
#                 Cambridge Crystallographic Data Centre
#                                CCDC 
#
#######################################################################
#
# If this CIF has been generated from an entry in the Cambridge 
# Structural Database, then it will include bibliographic, chemical, 
# crystal, experimental, refinement or atomic coordinate data resulting 
# from the CCDC's data processing and validation procedures.
#
#######################################################################

data_CUFYOT
_symmetry_cell_setting           trigonal
_symmetry_space_group_name_H-M   'P 31 2 1'
_symmetry_Int_Tables_number      152
_space_group_name_Hall           'P 31 2"'
loop_
_symmetry_equiv_pos_site_id
_symmetry_equiv_pos_as_xyz
1 x,y,z
2 -y,x-y,1/3+z
3 -x+y,-x,2/3+z
4 y,x,-z
5 x-y,-y,2/3-z
6 -x,-x+y,1/3-z
_cell_length_a                   17.3260(5)
_cell_length_b                   17.3260(5)
_cell_length_c                   39.892(2)
_cell_angle_alpha                90
_cell_angle_beta                 90
_cell_angle_gamma                120
_cell_volume                     10370.8
loop_
_atom_site_label
_atom_site_type_symbol
_atom_site_fract_x
_atom_site_fract_y
_atom_site_fract_z
U1 U 0.604670(19) 0.086773(19) 0.447890(8)
O1 O 0.6074(4) 0.1037(4) 0.49181(16)
O2 O 0.7399(5) 1.0744(5) 0.44755(17)
O3 O 0.6011(5) 0.0712(4) 0.40379(16)
O4 O 1.4587(5) 1.0766(4) 0.44596(19)
O5 O 0.7439(5) 0.2328(5) 0.44458(18)
O6 O 1.4563(4) 0.9561(4) 0.45493(19)
O7 O 0.6206(4) 0.2366(4) 0.43939(19)
O8 O 0.6143(4) 0.9497(5) 0.45574(19)
C1 C 0.8389(5) 0.8454(5) 0.45577(18)
C2 C 0.7468(6) 0.9412(5) 0.4530(2)
C3 C 0.8467(5) 0.5628(5) 0.45079(19)
C4 C 1.4142(5) 0.9933(5) 0.4519(2)
C5 C 1.3189(5) 0.9469(6) 0.4557(2)
C6 C 0.8954(5) 0.6616(4) 0.45515(17)
C7 C 0.9817(6) 0.8444(5) 0.46140(19)
H1 H 1.0114 0.9060 0.4642
C8 C 0.9869(5) 0.7097(5) 0.45861(18)
H2 H 1.0189 0.6797 0.4587
C9 C 0.8814(5) 0.9376(6) 0.4474(2)
H3 H 0.9418 0.9667 0.4422
C10 C 1.2731(5) 0.8610(6) 0.4687(2)
H4 H 1.3050 0.8335 0.4752
C11 C 0.7500(5) 0.8061(5) 0.4629(2)
H5 H 0.7194 0.7460 0.4687
C12 C 0.8879(5) 0.7967(5) 0.45680(19)
C13 C 1.1797(5) 0.8143(5) 0.4724(2)
H6 H 1.1511 0.7576 0.4818
C14 C 1.1735(5) 0.9394(5) 0.4495(2)
H7 H 1.1407 0.9661 0.4430
C15 C 1.0305(5) 0.7980(5) 0.4618(2)
C16 C 0.8385(5) 0.9853(5) 0.4466(2)
H8 H 0.8696 1.0460 0.4420
C17 C 0.7059(7) 0.2769(5) 0.4424(2)
C18 C 1.2682(5) 0.9872(5) 0.4468(3)
H9 H 1.2970 1.0457 0.4390
C19 C 0.8810(6) 0.5104(6) 0.4628(2)
H10 H 0.9354 0.5373 0.4739
C20 C 0.8500(5) 0.7077(5) 0.45429(18)
H11 H 0.7884 0.6749 0.4518
C21 C 0.7546(5) 0.3756(5) 0.4443(2)
C22 C 0.7634(7) 0.5163(6) 0.4342(3)
H12 H 0.7387 0.5484 0.4250
C23 C 1.1304(5) 0.8529(5) 0.46189(19)
C24 C 0.7185(6) 0.4256(6) 0.4311(3)
H13 H 0.6637 0.3969 0.4203
C25 C 0.6961(6) 0.9888(6) 0.45184(19)
C26 C 0.7041(5) 0.8517(5) 0.4619(2)
H14 H 0.6437 0.8223 0.4672
C27 C 0.8353(5) 0.4194(5) 0.4582(2)
H15 H 0.8619 0.3870 0.4652
U1_2 U 0.604670(19) 1.086773(19) 0.447890(8)
U1_3 U 1.604670(19) 1.086773(19) 0.447890(8)
O2_2 O 0.7399(5) 0.0744(5) 0.44755(17)
O4_2 O 0.4587(5) 0.0766(4) 0.44596(19)
O6_2 O 0.4563(4) -0.0439(4) 0.45493(19)
O8_2 O 0.6143(4) -0.0503(5) 0.45574(19)
U2 U 0.294410(19) 0.481922(18) 0.380173(9)
O9 O 0.2978(4) 0.4927(4) 0.33640(17)
O10 O 0.2952(5) 0.4751(4) 0.42440(17)
O11 O 1.1608(5) 1.3360(4) 0.37996(17)
O12 O 1.1591(5) 0.4924(4) 0.38078(19)
O13 O 1.2874(4) 1.3388(5) 0.37774(17)
O14 O 0.4424(5) 0.4955(4) 0.37684(19)
O15 O 1.2832(4) 0.6182(4) 0.38667(18)
O16 O 0.4418(4) 0.6199(5) 0.38458(16)
C28 C 1.1504(6) 1.1922(5) 0.3774(2)
C29 C 1.0571(6) 0.7193(5) 0.37542(19)
C30 C 1.0586(5) 1.0114(4) 0.37538(17)
C31 C 0.9136(5) 0.7227(5) 0.3732(2)
H16 H 0.8820 0.6607 0.3737
C32 C 1.0083(5) 0.9090(5) 0.37425(18)
C33 C 1.0070(5) 0.7668(5) 0.37452(18)
C34 C 1.2000(5) 0.5770(5) 0.3842(2)
C35 C 1.2002(6) 1.2930(5) 0.3786(2)
C36 C 1.0529(5) 0.8589(5) 0.3751(2)
H17 H 1.1148 0.8890 0.3761
C37 C 1.0612(5) 1.1467(5) 0.3789(2)
H18 H 1.0297 1.1772 0.3799
C38 C 0.5819(5) 0.6267(5) 0.3767(2)
C39 C 1.1496(6) 0.6244(6) 0.3810(2)
C40 C 1.0180(5) 1.0589(5) 0.3788(2)
H19 H 0.9564 1.0288 0.3813
C41 C 1.1532(5) 1.0566(5) 0.3742(2)
H20 H 1.1839 1.0254 0.3730
C42 C 0.6264(6) 0.5840(6) 0.3673(2)
H21 H 0.5955 0.5232 0.3626
C43 C 0.7179(6) 0.6319(6) 0.3647(3)
H22 H 0.7471 0.6023 0.3574
C44 C 0.9149(5) 0.8608(5) 0.37070(19)
H23 H 0.8849 0.8923 0.3679
C45 C 1.1981(6) 1.1490(5) 0.3748(2)
H24 H 1.2599 1.1812 0.3736
C46 C 1.0141(7) 0.6291(6) 0.3712(3)
H25 H 0.9536 0.5986 0.3661
C47 C 0.6304(6) 0.7202(6) 0.3829(2)
H26 H 0.6007 0.7509 0.3881
C48 C 0.7691(5) 0.7221(5) 0.3724(2)
C49 C 0.7216(5) 0.7641(5) 0.3812(2)
H27 H 0.7531 0.8247 0.3862
C50 C 1.1901(6) 0.7127(6) 0.3855(3)
H28 H 1.2511 0.7438 0.3897
C51 C 1.1448(7) 0.7599(7) 0.3842(3)
H29 H 1.1748 0.8203 0.3895
C52 C 0.8657(6) 0.7686(6) 0.37112(19)
C53 C 0.4819(6) 0.5803(8) 0.3775(3)
C54 C 1.0602(7) 0.5814(6) 0.3745(3)
H30 H 1.0291 0.5197 0.3722
U2_2 U 1.294410(19) 0.481922(18) 0.380173(9)
U2_3 U 1.294410(19) 1.481922(18) 0.380173(9)
O11_2 O 0.1608(5) 0.3360(4) 0.37996(17)
O12_2 O 0.1591(5) 0.4924(4) 0.38078(19)
O13_2 O 0.2874(4) 0.3388(5) 0.37774(17)
O15_2 O 0.2832(4) 0.6182(4) 0.38667(18)
loop_
_geom_bond_atom_site_label_1
_geom_bond_atom_site_label_2
_geom_bond_site_symmetry_1
_geom_bond_site_symmetry_2
U1 O1 1_555 1_555
O2 C25 1_555 1_555
O3 U1 1_555 1_555
O4 C4 1_555 1_555
O5 U1 1_555 1_555
O6 C4 1_555 1_555
O7 U1 1_555 1_555
O8 C25 1_555 1_555
C1 C9 1_555 1_555
C2 C16 1_555 1_555
C3 C6 1_555 1_555
C4 C5 1_555 1_555
C5 C10 1_555 1_555
C6 C8 1_555 1_555
C7 H1 1_555 1_555
C8 H2 1_555 1_555
C9 H3 1_555 1_555
C10 H4 1_555 1_555
C11 C1 1_555 1_555
H5 C11 1_555 1_555
C12 C1 1_555 1_555
C13 C10 1_555 1_555
H6 C13 1_555 1_555
C14 H7 1_555 1_555
C15 C7 1_555 1_555
C16 C9 1_555 1_555
H8 C16 1_555 1_555
C17 O5 1_555 1_555
C18 C5 1_555 1_555
H9 C18 1_555 1_555
C19 C3 1_555 1_555
H10 C19 1_555 1_555
C20 C6 1_555 1_555
H11 C20 1_555 1_555
C21 C17 1_555 1_555
C22 C3 1_555 1_555
H12 C22 1_555 1_555
C23 C13 1_555 1_555
C24 C21 1_555 1_555
H13 C24 1_555 1_555
C25 C2 1_555 1_555
C26 C2 1_555 1_555
H14 C26 1_555 1_555
C27 C19 1_555 1_555
H15 C27 1_555 1_555
U2 O9 1_555 1_555
O10 U2 1_555 1_555
O11 C35 1_555 1_555
O12 C34 1_555 1_555
O13 C35 1_555 1_555
O14 U2 1_555 1_555
O15 C34 1_555 1_555
O16 U2 1_555 1_555
C28 C35 1_555 1_555
C29 C33 1_555 1_555
C30 C32 1_555 1_555
C31 H16 1_555 1_555
C32 C36 1_555 1_555
C33 C31 1_555 1_555
C34 C39 1_555 1_555
C36 C33 1_555 1_555
H17 C36 1_555 1_555
C37 C28 1_555 1_555
H18 C37 1_555 1_555
C38 C42 1_555 1_555
C39 C50 1_555 1_555
C40 C30 1_555 1_555
H19 C40 1_555 1_555
C41 C30 1_555 1_555
H20 C41 1_555 1_555
C42 H21 1_555 1_555
C43 C42 1_555 1_555
H22 C43 1_555 1_555
C44 C32 1_555 1_555
H23 C44 1_555 1_555
C45 C28 1_555 1_555
H24 C45 1_555 1_555
C46 C29 1_555 1_555
H25 C46 1_555 1_555
C47 C38 1_555 1_555
H26 C47 1_555 1_555
C48 C43 1_555 1_555
C49 C47 1_555 1_555
H27 C49 1_555 1_555
C50 H28 1_555 1_555
C51 C29 1_555 1_555
H29 C51 1_555 1_555
C52 C31 1_555 1_555
C53 O14 1_555 1_555
C54 C39 1_555 1_555
H30 C54 1_555 1_555
U1_2 O2 1_555 1_555
U1_3 O4 1_555 1_555
O2_2 U1 1_555 1_555
O4_2 U1 1_555 1_555
O6_2 U1 1_555 1_555
O8_2 U1 1_555 1_555
U2_2 O12 1_555 1_555
U2_3 O11 1_555 1_555
O11_2 U2 1_555 1_555
O12_2 U2 1_555 1_555
O13_2 U2 1_555 1_555
O15_2 U2 1_555 1_555
O6 U1_3 1_555 1_555
O7 C17 1_555 1_555
O8 U1_2 1_555 1_555
C7 C12 1_555 1_555
C8 C15 1_555 1_555
C11 C26 1_555 1_555
C12 C20 1_555 1_555
C14 C18 1_555 1_555
C14 C23 1_555 1_555
C15 C23 1_555 1_555
C21 C27 1_555 1_555
C22 C24 1_555 1_555
O13 U2_3 1_555 1_555
O15 U2_2 1_555 1_555
O16 C53 1_555 1_555
C37 C40 1_555 1_555
C38 C53 1_555 1_555
C41 C45 1_555 1_555
C44 C52 1_555 1_555
C46 C54 1_555 1_555
C48 C49 1_555 1_555
C48 C52 1_555 1_555
C50 C51 1_555 1_555

#END
