
#######################################################################
#
#                 Cambridge Crystallographic Data Centre
#                                CCDC 
#
#######################################################################
#
# If this CIF has been generated from an entry in the Cambridge 
# Structural Database, then it will include bibliographic, chemical, 
# crystal, experimental, refinement or atomic coordinate data resulting 
# from the CCDC's data processing and validation procedures.
#
#######################################################################

data_CUGCAK
_symmetry_cell_setting           triclinic
_symmetry_space_group_name_H-M   'P -1'
_symmetry_Int_Tables_number      2
_space_group_name_Hall           '-P 1'
loop_
_symmetry_equiv_pos_site_id
_symmetry_equiv_pos_as_xyz
1 x,y,z
2 -x,-y,-z
_cell_length_a                   7.3568(17)
_cell_length_b                   10.471(3)
_cell_length_c                   13.330(3)
_cell_angle_alpha                82.691(4)
_cell_angle_beta                 83.331(4)
_cell_angle_gamma                84.702(4)
_cell_volume                     1008.48
loop_
_atom_site_label
_atom_site_type_symbol
_atom_site_fract_x
_atom_site_fract_y
_atom_site_fract_z
Cu1 Cu 0.08052(11) 0.11399(7) 0.42270(6)
Cu2 Cu 0.67418(11) 0.05304(8) 0.44873(6)
N1 N -0.2825(7) 0.0270(5) 0.3007(4)
P1 P -0.0423(2) 0.20758(15) 0.28614(12)
Br1 Br 0.36600(8) 0.18505(6) 0.46688(5)
Br2 Br 0.84018(8) 0.12686(6) 0.57741(4)
C1 C -0.2133(8) 0.3424(6) 0.3047(5)
C2 C -0.2011(9) 0.4118(6) 0.3863(5)
H1 H -0.1086 0.3874 0.4307
C3 C -0.3269(11) 0.5170(7) 0.4014(6)
H2 H -0.3164 0.5666 0.4550
C4 C -0.4658(10) 0.5506(7) 0.3404(6)
H3 H -0.5520 0.6215 0.3530
C5 C -0.4799(10) 0.4817(7) 0.2611(6)
H4 H -0.5754 0.5055 0.2185
C6 C -0.3536(9) 0.3760(6) 0.2426(5)
H5 H -0.3641 0.3278 0.1880
C7 C 0.1150(9) 0.2673(6) 0.1778(5)
C8 C 0.2685(8) 0.1881(7) 0.1500(5)
H6 H 0.2885 0.1052 0.1870
C9 C 0.3935(9) 0.2282(7) 0.0688(5)
H7 H 0.4965 0.1719 0.0489
C10 C 0.3682(9) 0.3506(6) 0.0166(5)
H8 H 0.4545 0.3785 -0.0387
C11 C 0.2185(10) 0.4313(7) 0.0446(5)
H9 H 0.2018 0.5155 0.0093
C12 C 0.0911(9) 0.3900(6) 0.1247(5)
H10 H -0.0131 0.4459 0.1434
C13 C -0.1674(8) 0.0941(6) 0.2300(5)
C14 C -0.1454(9) 0.0744(6) 0.1293(5)
H11 H -0.0633 0.1227 0.0822
C15 C -0.2438(9) -0.0167(6) 0.0969(5)
H12 H -0.2298 -0.0316 0.0274
C16 C -0.3624(9) -0.0855(6) 0.1670(5)
H13 H -0.4317 -0.1483 0.1469
C17 C -0.3782(9) -0.0605(6) 0.2684(5)
H14 H -0.4602 -0.1075 0.3166
Cu1_2 Cu 1.08052(11) 0.11399(7) 0.42270(6)
Cu1A Cu 0.91948(11) -0.11399(7) 0.57730(6)
Cu2_2 Cu -0.32582(11) 0.05304(8) 0.44873(6)
Cu2A Cu 0.32582(11) -0.05304(8) 0.55127(6)
N1_2 N 0.7175(7) 0.0270(5) 0.3007(4)
Br1A Br 0.63400(8) -0.18505(6) 0.53312(5)
Br2_2 Br -0.15982(8) 0.12686(6) 0.57741(4)
Br2A Br 0.15982(8) -0.12686(6) 0.42259(4)
C18 C -0.1253(10) 0.2555(7) -0.1741(6)
C19 C 0.0070(10) 0.3142(7) -0.2489(6)
H15 H 0.0459 0.2561 -0.3008
H16 H 0.1137 0.3309 -0.2162
H17 H -0.0480 0.3959 -0.2808
N2 N -0.2294(9) 0.2111(7) -0.1126(5)
loop_
_geom_bond_atom_site_label_1
_geom_bond_atom_site_label_2
_geom_bond_site_symmetry_1
_geom_bond_site_symmetry_2
Cu1 P1 1_555 1_555
Cu2 Br1 1_555 1_555
N1 C13 1_555 1_555
P1 C1 1_555 1_555
Br1 Cu1 1_555 1_555
Br2 Cu2 1_555 1_555
C1 C2 1_555 1_555
C2 H1 1_555 1_555
C3 C2 1_555 1_555
H2 C3 1_555 1_555
C4 C3 1_555 1_555
H3 C4 1_555 1_555
C5 C4 1_555 1_555
H4 C5 1_555 1_555
C6 C1 1_555 1_555
H5 C6 1_555 1_555
C7 P1 1_555 1_555
C8 C7 1_555 1_555
H6 C8 1_555 1_555
C9 C8 1_555 1_555
H7 C9 1_555 1_555
C10 C9 1_555 1_555
H8 C10 1_555 1_555
C11 C10 1_555 1_555
H9 C11 1_555 1_555
C12 C7 1_555 1_555
H10 C12 1_555 1_555
C13 P1 1_555 1_555
C14 C13 1_555 1_555
H11 C14 1_555 1_555
C15 C14 1_555 1_555
H12 C15 1_555 1_555
C16 C15 1_555 1_555
H13 C16 1_555 1_555
C17 N1 1_555 1_555
H14 C17 1_555 1_555
C18 C19 1_555 1_555
C19 H15 1_555 1_555
H16 C19 1_555 1_555
H17 C19 1_555 1_555
N2 C18 1_555 1_555
Cu1_2 Br2 1_555 1_555
Cu1A Cu2 1_555 1_555
Cu2_2 N1 1_555 1_555
Cu2A Cu1 1_555 1_555
N1_2 Cu2 1_555 1_555
Br1A Cu2 1_555 1_555
Br2_2 Cu1 1_555 1_555
Br2A Cu1 1_555 1_555
Br1 Cu2A 1_555 1_555
Br2 Cu1A 1_555 1_555
C5 C6 1_555 1_555
C11 C12 1_555 1_555
C16 C17 1_555 1_555
Cu1A Br1A 1_555 1_555
Cu2_2 Br2_2 1_555 1_555
Cu2A Br1A 1_555 1_555
Cu2A Br2A 1_555 1_555

#END
