
#######################################################################
#
#                 Cambridge Crystallographic Data Centre
#                                CCDC 
#
#######################################################################
#
# If this CIF has been generated from an entry in the Cambridge 
# Structural Database, then it will include bibliographic, chemical, 
# crystal, experimental, refinement or atomic coordinate data resulting 
# from the CCDC's data processing and validation procedures.
#
#######################################################################

data_CUGMPP11
_symmetry_cell_setting           orthorhombic
_symmetry_space_group_name_H-M   'P 21 21 2'
_symmetry_Int_Tables_number      18
_space_group_name_Hall           'P 2 2ab'
loop_
_symmetry_equiv_pos_site_id
_symmetry_equiv_pos_as_xyz
1 x,y,z
2 1/2+x,1/2-y,-z
3 1/2-x,1/2+y,-z
4 -x,-y,z
_cell_length_a                   20.813(4)
_cell_length_b                   23.356(3)
_cell_length_c                   11.392(1)
_cell_angle_alpha                90
_cell_angle_beta                 90
_cell_angle_gamma                90
_cell_volume                     5537.75
loop_
_atom_site_label
_atom_site_type_symbol
_atom_site_fract_x
_atom_site_fract_y
_atom_site_fract_z
Cu1 Cu -0.19940 -0.37180 -0.68230
P1 P -0.26850 -0.23000 -0.31600
O1 O -0.27170 -0.37790 -0.79490
O2 O -0.16320 -0.43110 -0.78460
O3 O -0.23750 -0.29940 -0.61000
O4 O -0.31790 -0.18680 -0.35110
O5 O -0.22000 -0.23930 -0.40800
O6 O -0.23960 -0.21260 -0.19850
O7 O -0.33920 -0.40390 -0.23730
O8 O -0.26470 -0.45910 -0.02880
O9 O -0.23050 -0.34810 -0.01880
O10 O -0.30210 -0.29050 -0.30310
O11 O -0.21740 -0.52960 -0.71810
N1 N -0.24070 -0.58540 -0.56550
N2 N -0.27090 -0.65300 -0.42230
N3 N -0.26890 -0.55410 -0.37220
N4 N -0.23530 -0.42710 -0.52840
N5 N -0.26350 -0.45010 -0.35130
C1 C -0.29410 -0.44860 -0.23080
C2 C -0.23960 -0.43340 -0.13620
C3 C -0.25000 -0.36550 -0.13040
C4 C -0.32310 -0.36010 -0.14100
C5 C -0.34030 -0.29810 -0.19420
C6 C -0.25810 -0.60000 -0.45170
C7 C -0.26090 -0.50320 -0.41770
C8 C -0.24160 -0.48790 -0.52960
C9 C -0.23100 -0.52950 -0.61030
C10 C -0.25150 -0.40400 -0.41900
Cu2 Cu 0.08830 -0.32590 -0.64850
P2 P 0.09520 -0.19760 -0.28430
O12 O 0.10210 -0.38950 -0.76340
O13 O 0.07220 -0.25220 -0.56220
O14 O 0.02380 -0.21050 -0.31030
O15 O 0.13740 -0.20490 -0.39630
O16 O 0.10550 -0.13590 -0.22840
O17 O 0.07360 -0.35900 -0.11710
O18 O 0.23830 -0.40230 -0.14510
O19 O 0.19230 -0.35860 0.06140
O20 O 0.12170 -0.24530 -0.20120
O21 O 0.07330 -0.48570 -0.65540
N6 N 0.07690 -0.53930 -0.48640
N7 N 0.08260 -0.60700 -0.32350
N8 N 0.09470 -0.50780 -0.29360
N9 N 0.08910 -0.38410 -0.48070
N10 N 0.10950 -0.40470 -0.29410
C11 C 0.12590 -0.39480 -0.15780
C12 C 0.19020 -0.36390 -0.15460
C13 C 0.17760 -0.32710 -0.05570
C14 C 0.10360 -0.31180 -0.05530
C15 C 0.08720 -0.25260 -0.09190
C16 C 0.08570 -0.55090 -0.36390
C17 C 0.09610 -0.45690 -0.34350
C18 C 0.08990 -0.44580 -0.46530
C19 C 0.07690 -0.48750 -0.54890
C20 C 0.10430 -0.35900 -0.37510
Cu3 Cu -0.05620 -0.17440 -0.26000
P3 P -0.06060 -0.31230 -0.61240
O22 O -0.13620 -0.15540 -0.17480
O23 O -0.01010 -0.11530 -0.14970
O24 O -0.10160 -0.24340 -0.32610
O25 O -0.11060 -0.35420 -0.61680
O26 O -0.04520 -0.29940 -0.48980
O27 O -0.00220 -0.33370 -0.69000
O28 O -0.12310 -0.14480 -0.74400
O29 O -0.02950 -0.07230 -0.89960
O30 O 0.01840 -0.18180 -0.91470
O31 O -0.08830 -0.25120 -0.66180
O32 O -0.07470 -0.02010 -0.22240
N11 N -0.08690 0.04410 -0.38390
N12 N -0.10210 0.10860 -0.53230
N13 N -0.08530 0.01000 -0.57740
N14 N -0.06890 -0.11530 -0.40920
N15 N -0.07560 -0.09210 -0.59360
C21 C -0.08900 -0.09750 -0.72690
C22 C -0.02370 -0.10270 -0.78840
C23 C -0.01540 -0.16980 -0.80650
C24 C -0.09210 -0.18250 -0.81060
C25 C -0.10240 -0.24490 -0.78780
C26 C -0.09240 0.05010 -0.50630
C27 C -0.08160 -0.04120 -0.53860
C28 C -0.07230 -0.05800 -0.41580
C29 C -0.07630 -0.00850 -0.33710
C30 C -0.06860 -0.13920 -0.51310
O4A O 0.18210 -0.31320 -0.64890
Cu2A Cu -0.41170 -0.17410 -0.35150
O33 O 0.67540 0.43010 -0.96840
O34 O 0.03520 0.41130 -0.85130
O35 O 0.41320 0.46770 -0.99520
O36 O 0.55520 0.12510 -0.91920
O37 O 0.63950 0.22710 -0.95390
loop_
_geom_bond_atom_site_label_1
_geom_bond_atom_site_label_2
_geom_bond_site_symmetry_1
_geom_bond_site_symmetry_2
Cu1 O1 1_555 1_555
P1 O4 1_555 1_555
O2 Cu1 1_555 1_555
O3 Cu1 1_555 1_555
O4 Cu2A 1_555 1_555
O5 P1 1_555 1_555
O6 P1 1_555 1_555
O7 C1 1_555 1_555
O8 C2 1_555 1_555
O9 C3 1_555 1_555
O10 P1 1_555 1_555
O11 C9 1_555 1_555
N1 C6 1_555 1_555
N2 C6 1_555 1_555
N3 C6 1_555 1_555
N4 Cu1 1_555 1_555
N5 C1 1_555 1_555
C1 C2 1_555 1_555
C2 C3 1_555 1_555
C3 C4 1_555 1_555
C4 O7 1_555 1_555
C5 O10 1_555 1_555
C7 N3 1_555 1_555
C8 N4 1_555 1_555
C9 N1 1_555 1_555
C10 N4 1_555 1_555
Cu2 O12 1_555 1_555
P2 O14 1_555 1_555
O13 Cu2 1_555 1_555
O14 Cu3 1_555 1_555
O15 P2 1_555 1_555
O16 P2 1_555 1_555
O17 C11 1_555 1_555
O18 C12 1_555 1_555
O19 C13 1_555 1_555
O20 P2 1_555 1_555
O21 C19 1_555 1_555
N6 C16 1_555 1_555
N7 C16 1_555 1_555
N8 C16 1_555 1_555
N9 Cu2 1_555 1_555
N10 C11 1_555 1_555
C11 C12 1_555 1_555
C12 C13 1_555 1_555
C13 C14 1_555 1_555
C14 O17 1_555 1_555
C15 O20 1_555 1_555
C17 N8 1_555 1_555
C18 N9 1_555 1_555
C19 N6 1_555 1_555
C20 N9 1_555 1_555
Cu3 O22 1_555 1_555
P3 O25 1_555 1_555
O23 Cu3 1_555 1_555
O24 Cu3 1_555 1_555
O25 Cu1 1_555 1_555
O26 P3 1_555 1_555
O27 Cu2 1_555 1_555
O28 C21 1_555 1_555
O29 C22 1_555 1_555
O30 C23 1_555 1_555
O31 P3 1_555 1_555
O32 C29 1_555 1_555
N11 C26 1_555 1_555
N12 C26 1_555 1_555
N13 C26 1_555 1_555
N14 Cu3 1_555 1_555
N15 C21 1_555 1_555
C21 C22 1_555 1_555
C22 C23 1_555 1_555
C23 C24 1_555 1_555
C24 O28 1_555 1_555
C25 O31 1_555 1_555
C27 N13 1_555 1_555
C28 N14 1_555 1_555
C29 N11 1_555 1_555
C30 N14 1_555 1_555
O4A Cu2 1_555 1_555
N5 C7 1_555 1_555
N5 C10 1_555 1_555
C4 C5 1_555 1_555
C7 C8 1_555 1_555
C8 C9 1_555 1_555
N10 C17 1_555 1_555
N10 C20 1_555 1_555
C14 C15 1_555 1_555
C17 C18 1_555 1_555
C18 C19 1_555 1_555
P3 O27 1_555 1_555
N15 C27 1_555 1_555
N15 C30 1_555 1_555
C24 C25 1_555 1_555
C27 C28 1_555 1_555
C28 C29 1_555 1_555

#END
