
#######################################################################
#
#                 Cambridge Crystallographic Data Centre
#                                CCDC 
#
#######################################################################
#
# If this CIF has been generated from an entry in the Cambridge 
# Structural Database, then it will include bibliographic, chemical, 
# crystal, experimental, refinement or atomic coordinate data resulting 
# from the CCDC's data processing and validation procedures.
#
#######################################################################

data_CUGQEC
_symmetry_cell_setting           triclinic
_symmetry_space_group_name_H-M   'P -1'
_symmetry_Int_Tables_number      2
_space_group_name_Hall           '-P 1'
loop_
_symmetry_equiv_pos_site_id
_symmetry_equiv_pos_as_xyz
1 x,y,z
2 -x,-y,-z
_cell_length_a                   10.8767(19)
_cell_length_b                   12.698(2)
_cell_length_c                   14.373(3)
_cell_angle_alpha                113.644(3)
_cell_angle_beta                 92.071(4)
_cell_angle_gamma                114.579(3)
_cell_volume                     1603.85
loop_
_atom_site_label
_atom_site_type_symbol
_atom_site_fract_x
_atom_site_fract_y
_atom_site_fract_z
Cr1 Cr 1.0000 1.5000 1.0000
Cu1 Cu 0.50154(19) 1.44468(16) 1.25133(13)
N1 N 0.6005(13) 1.6318(11) 1.2805(9)
Mo1 Mo 0.81948(12) 1.39163(11) 1.15377(9)
O1 O 0.7837(16) 1.6498(14) 1.5679(12)
C1 C 0.9225(14) 1.8671(12) 0.9628(10)
H1 H 0.8700 1.7775 0.9374
O2 O 0.5064(13) 1.4854(11) 1.3959(9)
Mo2 Mo 1.16637(12) 1.56885(12) 1.23395(9)
N2 N 0.4139(12) 1.2534(11) 1.2051(9)
Cu2 Cu 0.6068(3) 1.5028(3) 1.5060(2)
O3 O 0.1354(12) 0.8811(9) 1.2457(9)
C2 C 0.3538(15) 1.0425(14) 1.0681(12)
H2 H 0.3640 0.9923 1.0038
O4 O 0.6363(17) 1.3673(15) 1.4732(12)
Mo3 Mo 0.65581(12) 1.31566(11) 0.91724(9)
O5 O 0.3907(11) 1.4016(10) 1.1145(8)
O6 O 0.6960(11) 1.4298(10) 1.2054(8)
C3 C 0.0299(16) 0.9078(14) 1.4248(12)
H3 H 0.0512 0.8471 1.3761
O7 O 0.8490(11) 1.7200(10) 1.0827(8)
C4 C 1.0017(15) 1.9154(13) 0.9029(12)
H4 H 1.0030 1.8583 0.8379
N3 N 0.8409(13) 1.9098(11) 1.1270(10)
O8 O 0.9798(11) 1.5465(10) 1.2447(8)
C5 C 0.0696(14) 1.0281(13) 1.4273(11)
N4 N 0.1456(12) 1.0697(11) 1.3592(9)
O9 O 0.5697(11) 1.1667(10) 0.8126(8)
C6 C 0.8138(13) 1.8010(13) 1.1389(11)
O10 O 0.5325(11) 1.3524(11) 0.9684(8)
C7 C 0.2738(15) 0.9855(13) 1.1207(11)
H5 H 0.2268 0.8952 1.0925
O11 O 0.8302(12) 1.2869(10) 1.1933(9)
C8 C 0.4199(16) 1.1759(14) 1.1109(11)
H6 H 0.4714 1.2144 1.0727
O12 O 1.0071(10) 1.4036(9) 1.0763(8)
C9 C -0.0418(16) 0.8804(13) 1.4963(11)
H7 H -0.0724 0.7987 1.4933
O13 O 1.1748(12) 1.4573(11) 1.2672(8)
C10 C 0.9202(14) 1.9508(13) 1.0610(12)
C11 C 0.1759(14) 0.9969(12) 1.2752(10)
O14 O 1.2973(11) 1.5693(10) 1.1461(8)
C12 C 0.7390(13) 1.7836(13) 1.2186(10)
O15 O 1.2606(12) 1.7195(11) 1.3410(9)
C13 C 0.5947(16) 1.7287(14) 1.3592(11)
H8 H 0.5420 1.7099 1.4053
O16 O 0.8646(10) 1.3451(9) 0.8756(8)
C14 C 0.7319(16) 1.8828(14) 1.3028(11)
H9 H 0.7732 1.9673 1.3107
O17 O 0.7147(11) 1.2658(10) 1.0126(8)
C15 C 0.2618(14) 1.0620(13) 1.2170(11)
O18 O 0.8352(11) 1.4958(10) 1.0528(8)
C16 C 0.6695(14) 1.6586(13) 1.2098(10)
H10 H 0.6706 1.5903 1.1526
C17 C 0.6612(17) 1.8534(15) 1.3759(12)
H11 H 0.6602 1.9193 1.4353
C18 C 0.3363(14) 1.1950(12) 1.2572(10)
H12 H 0.3326 1.2468 1.3235
N1A N 1.3995(13) 2.3682(11) 0.7195(9)
C1A C 1.0775(14) 2.1329(12) 1.0372(10)
H1A H 1.1300 2.2225 1.0626
O7A O 1.1510(11) 2.2800(10) 0.9173(8)
C4A C 0.9983(15) 2.0846(13) 1.0971(12)
H4A H 0.9970 2.1417 1.1621
N3A N 1.1591(13) 2.0902(11) 0.8730(10)
C6A C 1.1862(13) 2.1990(13) 0.8611(11)
C10A C 1.0798(14) 2.0492(13) 0.9390(12)
C12A C 1.2610(13) 2.2164(13) 0.7814(10)
C13A C 1.4053(16) 2.2713(14) 0.6408(11)
H8A H 1.4580 2.2901 0.5947
C14A C 1.2681(16) 2.1172(14) 0.6972(11)
H9A H 1.2268 2.0327 0.6893
C16A C 1.3305(14) 2.3414(13) 0.7902(10)
H10A H 1.3294 2.4097 0.8474
C17A C 1.3388(17) 2.1466(15) 0.6241(12)
H11A H 1.3398 2.0807 0.5647
N2A N -0.4139(12) 0.7466(11) 1.7949(9)
O3A O -0.1354(12) 1.1189(9) 1.7543(9)
C2A C -0.3538(15) 0.9575(14) 1.9319(12)
H2A H -0.3640 1.0077 1.9962
C3A C -0.0299(16) 1.0922(14) 1.5752(12)
H3A H -0.0512 1.1529 1.6239
C5A C -0.0696(14) 0.9719(13) 1.5727(11)
N4A N -0.1456(12) 0.9303(11) 1.6408(9)
C7A C -0.2738(15) 1.0145(13) 1.8793(11)
H5A H -0.2268 1.1048 1.9075
C8A C -0.4199(16) 0.8241(14) 1.8891(11)
H6A H -0.4714 0.7856 1.9273
C9A C 0.0418(16) 1.1196(13) 1.5037(11)
H7A H 0.0724 1.2013 1.5067
C11A C -0.1759(14) 1.0031(12) 1.7248(10)
C15A C -0.2618(14) 0.9380(13) 1.7830(11)
C18A C -0.3363(14) 0.8050(12) 1.7428(10)
H12A H -0.3326 0.7532 1.6765
Cu1A Cu -0.50154(19) 0.55532(16) 1.74867(13)
Mo1A Mo -0.81948(12) 0.60837(11) 1.84623(9)
O1A O -0.7837(16) 0.3502(14) 1.4321(12)
O2A O -0.5064(13) 0.5146(11) 1.6041(9)
Mo2A Mo -1.16637(12) 0.43115(12) 1.76605(9)
Cu2A Cu -0.6068(3) 0.4972(3) 1.4940(2)
O4A O -0.6363(17) 0.6327(15) 1.5268(12)
Mo3A Mo -0.65581(12) 0.68434(11) 2.08276(9)
O5A O -0.3907(11) 0.5984(10) 1.8855(8)
O6A O -0.6960(11) 0.5702(10) 1.7946(8)
O8A O -0.9798(11) 0.4535(10) 1.7553(8)
O9A O -0.5697(11) 0.8333(10) 2.1874(8)
O10A O -0.5325(11) 0.6476(11) 2.0316(8)
O11A O -0.8302(12) 0.7131(10) 1.8067(9)
O12A O -1.0071(10) 0.5964(9) 1.9237(8)
O13A O -1.1748(12) 0.5427(11) 1.7328(8)
O14A O -1.2973(11) 0.4307(10) 1.8539(8)
O15A O -1.2606(12) 0.2805(11) 1.6590(9)
O16A O -0.8646(10) 0.6549(9) 2.1244(8)
O17A O -0.7147(11) 0.7342(10) 1.9874(8)
O18A O -0.8352(11) 0.5042(10) 1.9472(8)
Cr1_2 Cr -1.0000 0.5000 2.0000
Cu1A_2 Cu 1.49846(19) 2.55532(16) 0.74867(13)
N1A_2 N -0.6005(13) 0.3682(11) 1.7195(9)
O2_2 O -0.4936(13) 0.4854(11) 1.3959(9)
O2A_2 O 0.4936(13) 1.5146(11) 1.6041(9)
Mo2_2 Mo -0.83363(12) 0.56885(12) 2.23395(9)
Mo2A_2 Mo 0.83363(12) 1.43115(12) 0.76605(9)
Cu2_2 Cu -0.3932(3) 0.5028(3) 1.5060(2)
Cu2A_2 Cu 0.3932(3) 1.4972(3) 1.4940(2)
Mo3_2 Mo -1.34419(12) 0.31566(11) 1.91724(9)
Mo3A_2 Mo 1.34419(12) 1.68434(11) 1.08276(9)
O12A_2 O 0.9929(10) 1.5964(9) 0.9237(8)
O14_2 O -0.7027(11) 0.5693(10) 2.1461(8)
O14A_2 O 0.7027(11) 1.4307(10) 0.8539(8)
O16_2 O -1.1354(10) 0.3451(9) 1.8756(8)
O16A_2 O 1.1354(10) 1.6549(9) 1.1244(8)
O18A_2 O 1.1648(11) 1.5042(10) 0.9472(8)
O19 O 0.6877(14) 2.0520(13) 1.2017(11)
H13 H 0.7214 2.0016 1.1649
H14 H 0.7341 2.1241 1.1993
O20 O 1.2460(16) 1.8069(14) 1.5493(11)
O21 O 0.5464(18) 1.9796(16) 1.5880(13)
loop_
_geom_bond_atom_site_label_1
_geom_bond_atom_site_label_2
_geom_bond_site_symmetry_1
_geom_bond_site_symmetry_2
Cr1 O12 1_555 1_555
Cu1 N1 1_555 1_555
N1 C13 1_555 1_555
Mo1 O6 1_555 1_555
O1 Cu2 1_555 1_555
C1 H1 1_555 1_555
O2 Cu1 1_555 1_555
Mo2 O8 1_555 1_555
N2 Cu1 1_555 1_555
Cu2 O2 1_555 1_555
O3 C11 1_555 1_555
C2 H2 1_555 1_555
O4 Cu2 1_555 1_555
Mo3 O9 1_555 1_555
O5 Cu1 1_555 1_555
O6 Cu1 1_555 1_555
C3 H3 1_555 1_555
O7 C6 1_555 1_555
C4 C1 1_555 1_555
H4 C4 1_555 1_555
N3 C6 1_555 1_555
O8 Mo1 1_555 1_555
C5 C3 1_555 1_555
N4 C5 1_555 1_555
C6 C12 1_555 1_555
O10 Mo3 1_555 1_555
C7 C2 1_555 1_555
H5 C7 1_555 1_555
O11 Mo1 1_555 1_555
C8 N2 1_555 1_555
H6 C8 1_555 1_555
O12 Mo1 1_555 1_555
C9 C3 1_555 1_555
H7 C9 1_555 1_555
O13 Mo2 1_555 1_555
C10 C1 1_555 1_555
C11 N4 1_555 1_555
O14 Mo2 1_555 1_555
C12 C14 1_555 1_555
O15 Mo2 1_555 1_555
C13 H8 1_555 1_555
O16 Cr1 1_555 1_555
C14 H9 1_555 1_555
O17 Mo1 1_555 1_555
C15 C7 1_555 1_555
O18 Cr1 1_555 1_555
C16 N1 1_555 1_555
H10 C16 1_555 1_555
C17 C13 1_555 1_555
H11 C17 1_555 1_555
C18 N2 1_555 1_555
H12 C18 1_555 1_555
O19 H13 1_555 1_555
H14 O19 1_555 1_555
N1A C13A 1_555 1_555
C1A H1A 1_555 1_555
O7A C6A 1_555 1_555
C4A C10 1_555 1_555
H4A C4A 1_555 1_555
N3A C6A 1_555 1_555
C6A C12A 1_555 1_555
C10A C4 1_555 1_555
C12A C14A 1_555 1_555
C13A H8A 1_555 1_555
C14A H9A 1_555 1_555
C16A N1A 1_555 1_555
H10A C16A 1_555 1_555
C17A C13A 1_555 1_555
H11A C17A 1_555 1_555
N2A C8A 1_555 1_555
O3A C11A 1_555 1_555
C2A H2A 1_555 1_555
C3A H3A 1_555 1_555
C5A C9 1_555 1_555
N4A C5A 1_555 1_555
C7A C2A 1_555 1_555
H5A C7A 1_555 1_555
C8A C2A 1_555 1_555
H6A C8A 1_555 1_555
C9A C5 1_555 1_555
H7A C9A 1_555 1_555
C11A N4A 1_555 1_555
C15A C7A 1_555 1_555
C18A N2A 1_555 1_555
H12A C18A 1_555 1_555
Cu1A N2A 1_555 1_555
Mo1A O6A 1_555 1_555
O1A Cu2A 1_555 1_555
O2A Cu1A 1_555 1_555
Mo2A O8A 1_555 1_555
Cu2A O2A 1_555 1_555
O4A Cu2A 1_555 1_555
Mo3A O9A 1_555 1_555
O5A Cu1A 1_555 1_555
O6A Cu1A 1_555 1_555
O8A Mo1A 1_555 1_555
O10A Mo3A 1_555 1_555
O11A Mo1A 1_555 1_555
O12A Mo1A 1_555 1_555
O13A Mo2A 1_555 1_555
O14A Mo2A 1_555 1_555
O15A Mo2A 1_555 1_555
O16A Mo3A 1_555 1_555
O17A Mo1A 1_555 1_555
O18A Mo1A 1_555 1_555
Cr1_2 O12A 1_555 1_555
Cu1A_2 N1A 1_555 1_555
N1A_2 Cu1A 1_555 1_555
O2_2 Cu2A 1_555 1_555
O2A_2 Cu2 1_555 1_555
Mo2_2 O16A 1_555 1_555
Mo2A_2 O16 1_555 1_555
Cu2_2 O2A 1_555 1_555
Cu2A_2 O2 1_555 1_555
Mo3_2 O14A 1_555 1_555
Mo3A_2 O14 1_555 1_555
O12A_2 Cr1 1_555 1_555
O14_2 Mo3A 1_555 1_555
O14A_2 Mo3 1_555 1_555
O16_2 Mo2A 1_555 1_555
O16A_2 Cr1 1_555 1_555
O18A_2 Cr1 1_555 1_555
Mo1 O18 1_555 1_555
Mo2 O12 1_555 1_555
Mo2 O16A_2 1_555 1_555
Cu2 Cu2A_2 1_555 1_555
C2 C8 1_555 1_555
Mo3 O16 1_555 1_555
Mo3 O17 1_555 1_555
Mo3 O18 1_555 1_555
N3 C10 1_555 1_555
C11 C15 1_555 1_555
C12 C16 1_555 1_555
C14 C17 1_555 1_555
C15 C18 1_555 1_555
C1A C4A 1_555 1_555
C1A C10A 1_555 1_555
N3A C10A 1_555 1_555
C12A C16A 1_555 1_555
C14A C17A 1_555 1_555
C3A C5A 1_555 1_555
C3A C9A 1_555 1_555
C11A C15A 1_555 1_555
C15A C18A 1_555 1_555
Mo2A O12A 1_555 1_555
Cu2A Cu2_2 1_555 1_555
Mo3A O17A 1_555 1_555
Mo3A O18A 1_555 1_555
O16A Cr1_2 1_555 1_555
O18A Cr1_2 1_555 1_555
Cr1_2 O16_2 1_555 1_555
O2_2 Cu2_2 1_555 1_555
O2A_2 Cu2A_2 1_555 1_555
Mo2_2 O14_2 1_555 1_555
Mo2A_2 O12A_2 1_555 1_555
Mo2A_2 O14A_2 1_555 1_555
Mo3_2 O16_2 1_555 1_555
Mo3A_2 O16A_2 1_555 1_555
Mo3A_2 O18A_2 1_555 1_555

#END
