
#######################################################################
#
#                 Cambridge Crystallographic Data Centre
#                                CCDC 
#
#######################################################################
#
# If this CIF has been generated from an entry in the Cambridge 
# Structural Database, then it will include bibliographic, chemical, 
# crystal, experimental, refinement or atomic coordinate data resulting 
# from the CCDC's data processing and validation procedures.
#
#######################################################################

data_CUGRAY
_symmetry_cell_setting           monoclinic
_symmetry_space_group_name_H-M   'C 2/c'
_symmetry_Int_Tables_number      15
_space_group_name_Hall           '-C 2yn'
loop_
_symmetry_equiv_pos_site_id
_symmetry_equiv_pos_as_xyz
1 x,y,z
2 -x,y,1/2-z
3 1/2+x,1/2+y,z
4 1/2-x,1/2+y,1/2-z
5 -x,-y,-z
6 x,-y,1/2+z
7 1/2-x,1/2-y,-z
8 1/2+x,1/2-y,1/2+z
_cell_length_a                   10.8268(7)
_cell_length_b                   9.9887(7)
_cell_length_c                   8.5250(6)
_cell_angle_alpha                90
_cell_angle_beta                 126.5880(10)
_cell_angle_gamma                90
_cell_volume                     740.266
loop_
_atom_site_label
_atom_site_type_symbol
_atom_site_fract_x
_atom_site_fract_y
_atom_site_fract_z
Ba1 Ba -0.5000 -0.60531(3) -0.2500
O1 O -0.3900(3) -0.3938(3) -0.3561(4)
O2 O -0.2682(3) -0.2006(3) -0.3077(4)
O3 O -0.2504(3) -0.4336(3) 0.0209(4)
H1 H -0.247(6) -0.420(5) 0.128(8)
C1 C -0.2991(4) -0.3026(4) -0.2495(5)
C2 C -0.2204(4) -0.3087(3) -0.0295(5)
H2 H -0.111(5) -0.293(4) 0.035(6)
O4 O -0.511(5) -0.8787(6) -0.229(8)
H3 H -0.572(9) -0.923(8) -0.344(11)
Ba1D Ba -0.5000 -0.39469(3) -0.7500
Ba1B Ba 0.0000 -0.10531(3) -0.2500
Ba1F Ba 0.0000 0.10531(3) 0.2500
Ba1B_2 Ba 0.0000 -0.10531(3) 0.7500
Ba1D_2 Ba -0.5000 -0.39469(3) 0.2500
O1F O -0.1100(3) -0.1062(3) 0.3561(4)
O1A O -0.6100(3) -0.3938(3) -0.1439(4)
O1D O -0.6100(3) -0.6062(3) -0.6439(4)
O1E O -0.3900(3) -0.6062(3) 0.1439(4)
O2F O -0.2318(3) -0.2994(3) 0.3077(4)
O2B O -0.7682(3) -0.7006(3) -0.3077(4)
O2C O -0.2318(3) -0.7006(3) -0.1923(4)
O3F O -0.2496(3) -0.0664(3) -0.0209(4)
O3A O -0.7496(3) -0.4336(3) -0.5209(4)
H1F H -0.253(6) -0.080(5) -0.128(8)
H1A H -0.753(6) -0.420(5) -0.628(8)
C1F C -0.2009(4) -0.1974(4) 0.2495(5)
C2F C -0.2796(4) -0.1913(3) 0.0295(5)
H2F H -0.389(5) -0.207(4) -0.035(6)
O4A O -0.489(5) -0.8787(6) -0.271(8)
H3A H -0.428(9) -0.923(8) -0.156(11)
loop_
_geom_bond_atom_site_label_1
_geom_bond_atom_site_label_2
_geom_bond_site_symmetry_1
_geom_bond_site_symmetry_2
Ba1 O1 1_555 1_555
O1 C1 1_555 1_555
O2 C1 1_555 1_555
O3 Ba1 1_555 1_555
H1 O3 1_555 1_555
C1 C2 1_555 1_555
C2 O3 1_555 1_555
H2 C2 1_555 1_555
O4 Ba1 1_555 1_555
H3 O4 1_555 1_555
Ba1D O1 1_555 1_555
Ba1B O2 1_555 1_555
Ba1F O1F 1_555 1_555
Ba1B_2 O1F 1_555 1_555
Ba1D_2 O1A 1_555 1_555
O1F C1F 1_555 1_555
O1A Ba1 1_555 1_555
O1D Ba1 1_555 1_555
O1E Ba1 1_555 1_555
O2F Ba1D_2 1_555 1_555
O2B Ba1 1_555 1_555
O2C Ba1 1_555 1_555
O3F Ba1F 1_555 1_555
O3A Ba1 1_555 1_555
H1F O3F 1_555 1_555
H1A O3A 1_555 1_555
C1F O2F 1_555 1_555
C2F C2 1_555 1_555
H2F C2F 1_555 1_555
O4A Ba1 1_555 1_555
H3A O4 1_555 1_555
O4 O4A 1_555 1_555
H3 O4A 1_555 1_555
Ba1D O1D 1_555 1_555
Ba1D_2 O1E 1_555 1_555
O3F C2F 1_555 1_555
C1F C2F 1_555 1_555
O4A H3A 1_555 1_555

#END
