
#######################################################################
#
#                 Cambridge Crystallographic Data Centre
#                                CCDC 
#
#######################################################################
#
# If this CIF has been generated from an entry in the Cambridge 
# Structural Database, then it will include bibliographic, chemical, 
# crystal, experimental, refinement or atomic coordinate data resulting 
# from the CCDC's data processing and validation procedures.
#
#######################################################################

data_CUGROM
_symmetry_cell_setting           orthorhombic
_symmetry_space_group_name_H-M   'C 2 2 21'
_symmetry_Int_Tables_number      20
_space_group_name_Hall           'C 2n 2'
loop_
_symmetry_equiv_pos_site_id
_symmetry_equiv_pos_as_xyz
1 x,y,z
2 -x,-y,1/2+z
3 -x,y,1/2-z
4 x,-y,-z
5 1/2+x,1/2+y,z
6 1/2-x,1/2-y,1/2+z
7 1/2-x,1/2+y,1/2-z
8 1/2+x,1/2-y,-z
_cell_length_a                   7.6418(10)
_cell_length_b                   9.9656(13)
_cell_length_c                   7.2395(9)
_cell_angle_alpha                90
_cell_angle_beta                 90
_cell_angle_gamma                90
_cell_volume                     551.325
loop_
_atom_site_label
_atom_site_type_symbol
_atom_site_fract_x
_atom_site_fract_y
_atom_site_fract_z
Ca1 Ca 0.5000 0.91094(7) 0.7500
O1 O 0.8121(3) 1.2133(2) 0.7028(3)
O2 O 0.5681(3) 1.1315(2) 0.5729(3)
O3 O 0.6994(3) 1.4568(2) 0.7009(4)
H1 H 0.656(5) 1.535(3) 0.729(7)
C1 C 0.6581(4) 1.2238(3) 0.6462(4)
C2 C 0.5666(4) 1.3599(3) 0.6699(5)
H2 H 0.502(5) 1.386(3) 0.559(4)
Ca1A Ca 0.5000 1.08906(7) 0.2500
Ca1A_2 Ca 0.5000 1.08906(7) 1.2500
Ca1D Ca 0.0000 1.41094(7) 0.7500
Ca1D_2 Ca 1.0000 1.41094(7) 0.7500
O1B O 0.1879(3) 1.2133(2) 0.7972(3)
O1D O 0.3121(3) 0.7133(2) 0.7028(3)
O1F O 0.6879(3) 0.7133(2) 0.7972(3)
O2B O 0.4319(3) 1.1315(2) 0.9271(3)
O2A O 0.4319(3) 0.8685(2) 1.0729(3)
O2C O 0.5681(3) 0.8685(2) 0.4271(3)
O3B O 0.3006(3) 1.4568(2) 0.7991(4)
O3D O 0.1994(3) 0.9568(2) 0.7009(4)
O3F O 0.8006(3) 0.9568(2) 0.7991(4)
H1B H 0.344(5) 1.535(3) 0.771(7)
H1D H 0.156(5) 1.035(3) 0.729(7)
H1F H 0.844(5) 1.035(3) 0.771(7)
C1B C 0.3419(4) 1.2238(3) 0.8538(4)
C2B C 0.4334(4) 1.3599(3) 0.8301(5)
H2B H 0.498(5) 1.386(3) 0.941(4)
loop_
_geom_bond_atom_site_label_1
_geom_bond_atom_site_label_2
_geom_bond_site_symmetry_1
_geom_bond_site_symmetry_2
Ca1 O2 1_555 1_555
O1 C1 1_555 1_555
O2 C1 1_555 1_555
O3 H1 1_555 1_555
C1 C2 1_555 1_555
C2 O3 1_555 1_555
H2 C2 1_555 1_555
Ca1A O2 1_555 1_555
Ca1A_2 O2B 1_555 1_555
Ca1D O1B 1_555 1_555
Ca1D_2 O1 1_555 1_555
O1B C1B 1_555 1_555
O1D Ca1 1_555 1_555
O1F Ca1 1_555 1_555
O2B Ca1 1_555 1_555
O2A Ca1 1_555 1_555
O2C Ca1 1_555 1_555
O3B Ca1D 1_555 1_555
O3D Ca1 1_555 1_555
O3F Ca1 1_555 1_555
H1B O3B 1_555 1_555
H1D O3D 1_555 1_555
H1F O3F 1_555 1_555
C1B O2B 1_555 1_555
C2B C2 1_555 1_555
H2B C2B 1_555 1_555
O3 Ca1D_2 1_555 1_555
Ca1A O2C 1_555 1_555
Ca1A_2 O2A 1_555 1_555
O3B C2B 1_555 1_555
C1B C2B 1_555 1_555

#END
