
#######################################################################
#
#                 Cambridge Crystallographic Data Centre
#                                CCDC 
#
#######################################################################
#
# If this CIF has been generated from an entry in the Cambridge 
# Structural Database, then it will include bibliographic, chemical, 
# crystal, experimental, refinement or atomic coordinate data resulting 
# from the CCDC's data processing and validation procedures.
#
#######################################################################

data_CUGSED
_symmetry_cell_setting           monoclinic
_symmetry_space_group_name_H-M   'C 2/c'
_symmetry_Int_Tables_number      15
_space_group_name_Hall           '-C 2yn'
loop_
_symmetry_equiv_pos_site_id
_symmetry_equiv_pos_as_xyz
1 x,y,z
2 -x,y,1/2-z
3 1/2+x,1/2+y,z
4 1/2-x,1/2+y,1/2-z
5 -x,-y,-z
6 x,-y,1/2+z
7 1/2-x,1/2-y,-z
8 1/2+x,1/2-y,1/2+z
_cell_length_a                   18.7973(16)
_cell_length_b                   5.1127(4)
_cell_length_c                   18.5512(16)
_cell_angle_alpha                90
_cell_angle_beta                 104.305(2)
_cell_angle_gamma                90
_cell_volume                     1727.58
loop_
_atom_site_label
_atom_site_type_symbol
_atom_site_fract_x
_atom_site_fract_y
_atom_site_fract_z
Ba1 Ba 0.420708(17) 0.73893(6) 0.142056(18)
C1 C 0.6160(3) 0.9390(11) 0.1795(3)
C2 C 0.6153(3) 0.7462(11) 0.1165(3)
H1 H 0.656(2) 0.635(8) 0.130(3)
C3 C 0.6254(4) 0.8952(10) 0.0484(4)
H2 H 0.675(3) 0.975(10) 0.051(3)
C4 C 0.6197(3) 0.7130(10) -0.0181(3)
O1 O 0.5633(2) 0.9385(7) 0.2104(2)
O2 O 0.6703(2) 1.0895(8) 0.1953(2)
O3 O 0.5476(2) 0.6045(7) 0.0981(2)
H3 H 0.562(3) 0.458(6) 0.100(3)
O4 O 0.5720(3) 1.1018(7) 0.0302(3)
H4 H 0.595(2) 1.214(8) 0.019(4)
O5 O 0.6593(2) 0.5099(8) -0.0085(2)
O6 O 0.5749(2) 0.7677(7) -0.0795(2)
O7 O 0.5000 0.3900(10) 0.2500
H5 H 0.325(3) 0.354(7) 0.2317(16)
O8 O 0.3168(2) 0.4541(9) 0.1950(3)
H6 H 0.527(3) 0.284(6) 0.232(4)
H7 H 0.2739(16) 0.501(12) 0.191(3)
O9 O 0.2860(3) 0.9779(8) 0.1041(3)
H8 H 0.248(2) 1.012(11) 0.068(3)
H9 H 0.293(4) 1.113(12) 0.128(3)
Ba1A Ba 0.579292(17) 0.73893(6) 0.357944(18)
Ba1D Ba 0.579292(17) 0.26107(6) -0.142056(18)
Ba1D_2 Ba 0.579292(17) 1.26107(6) -0.142056(18)
Ba1E Ba 0.420708(17) 0.26107(6) 0.642056(18)
Ba1E_2 Ba 0.420708(17) 1.26107(6) 0.642056(18)
C1A C 0.3840(3) 0.9390(11) 0.3205(3)
C2A C 0.3847(3) 0.7462(11) 0.3835(3)
H1A H 0.344(2) 0.635(8) 0.370(3)
C3A C 0.3746(4) 0.8952(10) 0.4516(4)
H2A H 0.325(3) 0.975(10) 0.449(3)
C4A C 0.3803(3) 0.7130(10) 0.5181(3)
O1A O 0.4367(2) 0.9385(7) 0.2896(2)
O2A O 0.3297(2) 1.0895(8) 0.3047(2)
O3A O 0.4524(2) 0.6045(7) 0.4019(2)
H3A H 0.438(3) 0.458(6) 0.400(3)
O4A O 0.4280(3) 1.1018(7) 0.4698(3)
H4A H 0.405(2) 1.214(8) 0.481(4)
O5A O 0.3407(2) 0.5099(8) 0.5085(2)
O5D O 0.3407(2) 0.4901(8) 0.0085(2)
O5E O 0.6593(2) 0.4901(8) 0.4915(2)
O6A O 0.4251(2) 0.7677(7) 0.5795(2)
O6D O 0.4251(2) 0.2323(7) 0.0795(2)
O6D_2 O 0.4251(2) 1.2323(7) 0.0795(2)
O6E O 0.5749(2) 0.2323(7) 0.4205(2)
O6E_2 O 0.5749(2) 1.2323(7) 0.4205(2)
H5A H 0.675(3) 0.354(7) 0.2683(16)
O8A O 0.6832(2) 0.4541(9) 0.3050(3)
H6A H 0.473(3) 0.284(6) 0.268(4)
H7A H 0.7261(16) 0.501(12) 0.309(3)
O9A O 0.7140(3) 0.9779(8) 0.3959(3)
H8A H 0.752(2) 1.012(11) 0.432(3)
H9A H 0.707(4) 1.113(12) 0.372(3)
loop_
_geom_bond_atom_site_label_1
_geom_bond_atom_site_label_2
_geom_bond_site_symmetry_1
_geom_bond_site_symmetry_2
Ba1 O1 1_555 1_555
C1 C2 1_555 1_555
C2 H1 1_555 1_555
C3 C2 1_555 1_555
H2 C3 1_555 1_555
C4 C3 1_555 1_555
O1 C1 1_555 1_555
O2 C1 1_555 1_555
O3 Ba1 1_555 1_555
H3 O3 1_555 1_555
O4 C3 1_555 1_555
H4 O4 1_555 1_555
O5 C4 1_555 1_555
O6 C4 1_555 1_555
O7 Ba1 1_555 1_555
H5 O8 1_555 1_555
O8 Ba1 1_555 1_555
H6 O7 1_555 1_555
H7 O8 1_555 1_555
O9 Ba1 1_555 1_555
H8 O9 1_555 1_555
H9 O9 1_555 1_555
Ba1A O1 1_555 1_555
Ba1D O5 1_555 1_555
Ba1D_2 O6 1_555 1_555
Ba1E O5A 1_555 1_555
Ba1E_2 O6A 1_555 1_555
C1A C2A 1_555 1_555
C2A H1A 1_555 1_555
C3A C2A 1_555 1_555
H2A C3A 1_555 1_555
C4A C3A 1_555 1_555
O1A Ba1 1_555 1_555
O2A C1A 1_555 1_555
O3A Ba1A 1_555 1_555
H3A O3A 1_555 1_555
O4A C3A 1_555 1_555
H4A O4A 1_555 1_555
O5A C4A 1_555 1_555
O5D Ba1 1_555 1_555
O5E Ba1A 1_555 1_555
O6A Ba1E 1_555 1_555
O6D Ba1 1_555 1_555
O6D_2 Ba1 1_555 1_555
O6E Ba1A 1_555 1_555
O6E_2 Ba1A 1_555 1_555
H5A O8A 1_555 1_555
O8A Ba1A 1_555 1_555
H6A O7 1_555 1_555
H7A O8A 1_555 1_555
O9A Ba1A 1_555 1_555
H8A O9A 1_555 1_555
H9A O9A 1_555 1_555
C2 O3 1_555 1_555
O6 Ba1D 1_555 1_555
O7 Ba1A 1_555 1_555
Ba1A O1A 1_555 1_555
C1A O1A 1_555 1_555
C2A O3A 1_555 1_555
C4A O6A 1_555 1_555

#END
