
#######################################################################
#
#                 Cambridge Crystallographic Data Centre
#                                CCDC 
#
#######################################################################
#
# If this CIF has been generated from an entry in the Cambridge 
# Structural Database, then it will include bibliographic, chemical, 
# crystal, experimental, refinement or atomic coordinate data resulting 
# from the CCDC's data processing and validation procedures.
#
#######################################################################

data_CUGVOR
_symmetry_cell_setting           triclinic
_symmetry_space_group_name_H-M   'P -1'
_symmetry_Int_Tables_number      2
_space_group_name_Hall           '-P 1'
loop_
_symmetry_equiv_pos_site_id
_symmetry_equiv_pos_as_xyz
1 x,y,z
2 -x,-y,-z
_cell_length_a                   6.9343(5)
_cell_length_b                   10.9163(9)
_cell_length_c                   16.8658(13)
_cell_angle_alpha                95.7880(10)
_cell_angle_beta                 94.3610(10)
_cell_angle_gamma                96.8550(10)
_cell_volume                     1256.08
loop_
_atom_site_label
_atom_site_type_symbol
_atom_site_fract_x
_atom_site_fract_y
_atom_site_fract_z
Cu1 Cu 0.50051(6) 0.36055(3) 0.00064(2)
Cu2 Cu 0.53123(6) 0.53163(3) 0.18666(2)
O1 O 0.4528(4) 0.2431(2) 0.07905(13)
O2 O 0.8412(4) 0.3758(3) 0.04170(17)
H1 H 0.8777 0.3684 0.0901
H2 H 0.9202 0.3434 0.0124
O3 O 0.5756(4) 0.3602(2) 0.19281(14)
O4 O 0.2023(4) 0.4843(3) 0.2055(3)
H3 H 0.1238 0.5220 0.2323
H4 H 0.2116 0.4157 0.2244
O5 O 0.4976(4) -0.2924(2) 0.19366(14)
O6 O 0.4440(3) 0.50628(19) 0.07095(12)
H5 H 0.3317 0.5096 0.0874
O7 O 0.4622(4) -0.2191(2) 0.07470(13)
O8 O 0.6801(5) -0.0321(3) 0.43349(16)
O9 O 0.7192(5) 0.1740(3) 0.43862(16)
O10 O 0.1259(4) 0.4210(2) -0.15359(16)
O11 O 0.1488(4) 0.3254(3) -0.04340(15)
O12 O 0.0950(6) -0.1382(3) -0.0782(2)
O13 O -0.0540(6) -0.2397(3) -0.1880(2)
O14 O -0.1799(5) -0.0226(3) -0.42039(16)
O15 O -0.1402(6) 0.1834(3) -0.41085(17)
N1 N 0.6088(4) 0.5608(2) 0.30760(16)
N2 N 0.9747(10) 0.4937(6) 0.4611(4)
C1 C 0.4976(7) 0.6249(4) 0.3530(2)
H6 H 0.3881 0.6542 0.3303
C2 C 0.5484(14) 0.6473(6) 0.4349(3)
H7 H 0.4712 0.6928 0.4662
C3 C 0.7615(6) 0.5189(4) 0.3434(2)
H8 H 0.8395 0.4729 0.3129
C4 C 0.8066(8) 0.5427(5) 0.4257(3)
C5 C 0.7044(13) 0.6059(6) 0.4712(3)
H9 H 0.7366 0.6223 0.5261
C6 C 0.5162(5) 0.2592(3) 0.15134(19)
C7 C 0.5264(5) 0.1444(3) 0.19389(19)
C8 C 0.4886(5) 0.0259(3) 0.15188(18)
H10 H 0.4521 0.0165 0.0972
C9 C 0.5056(5) -0.0783(3) 0.19225(18)
C10 C 0.4841(5) -0.2075(3) 0.14947(18)
C11 C 0.5598(5) -0.0631(3) 0.27385(19)
H11 H 0.5698 -0.1324 0.3010
C12 C 0.5992(5) 0.0551(3) 0.31545(19)
C13 C 0.5821(5) 0.1591(3) 0.27537(19)
H12 H 0.6079 0.2381 0.3031
C14 C 0.6700(6) 0.0668(3) 0.4014(2)
C15 C 0.1089(5) 0.3248(4) -0.1174(2)
C16 C 0.0433(5) 0.2020(3) -0.1670(2)
C17 C 0.0472(5) 0.0915(3) -0.1330(2)
H13 H 0.0852 0.0930 -0.0788
C18 C -0.0057(5) -0.0212(3) -0.1801(2)
C19 C 0.0056(7) -0.1435(4) -0.1493(3)
C20 C -0.0640(5) -0.0241(3) -0.2611(2)
H14 H -0.0994 -0.0997 -0.2926
C21 C -0.0689(5) 0.0863(3) -0.2946(2)
C22 C -0.1334(6) 0.0822(4) -0.3810(2)
C23 C -0.0146(5) 0.1992(3) -0.2480(2)
H15 H -0.0170 0.2730 -0.2709
N1A N 1.3912(4) 0.4392(2) 0.69240(16)
N2A N 1.0253(10) 0.5063(6) 0.5389(4)
C1A C 1.5024(7) 0.3751(4) 0.6470(2)
H6A H 1.6119 0.3458 0.6697
C2A C 1.4516(14) 0.3527(6) 0.5651(3)
H7A H 1.5288 0.3072 0.5338
C3A C 1.2385(6) 0.4811(4) 0.6566(2)
H8A H 1.1605 0.5271 0.6871
C4A C 1.1934(8) 0.4573(5) 0.5743(3)
C5A C 1.2956(13) 0.3941(6) 0.5288(3)
H9A H 1.2634 0.3777 0.4739
Cu1A Cu 0.49949(6) -0.36055(3) -0.00064(2)
Cu2A Cu 0.46877(6) -0.53163(3) -0.18666(2)
O1A O 0.5472(4) -0.2431(2) -0.07905(13)
O2A O 0.1588(4) -0.3758(3) -0.04170(17)
H1A H 0.1223 -0.3684 -0.0901
H2A H 0.0798 -0.3434 -0.0124
O3A O 0.4244(4) -0.3602(2) -0.19281(14)
O4A O 0.7977(4) -0.4843(3) -0.2055(3)
H3A H 0.8762 -0.5220 -0.2323
H4A H 0.7884 -0.4157 -0.2244
O5A O 0.5024(4) 0.2924(2) -0.19366(14)
O6A O 0.5560(3) -0.50628(19) -0.07095(12)
H5A H 0.6683 -0.5096 -0.0874
O7A O 0.5378(4) 0.2191(2) -0.07470(13)
O8A O 0.3199(5) 0.0321(3) -0.43349(16)
O9A O 0.2808(5) -0.1740(3) -0.43862(16)
O10A O 0.8741(4) -0.4210(2) 0.15359(16)
O11A O 0.8512(4) -0.3254(3) 0.04340(15)
O12A O 0.9050(6) 0.1382(3) 0.0782(2)
O13A O 1.0540(6) 0.2397(3) 0.1880(2)
O14A O 1.1799(5) 0.0226(3) 0.42039(16)
O15A O 1.1402(6) -0.1834(3) 0.41085(17)
C6A C 0.4838(5) -0.2592(3) -0.15134(19)
C7A C 0.4736(5) -0.1444(3) -0.19389(19)
C8A C 0.5114(5) -0.0259(3) -0.15188(18)
H10A H 0.5479 -0.0165 -0.0972
C9A C 0.4944(5) 0.0783(3) -0.19225(18)
C10A C 0.5159(5) 0.2075(3) -0.14947(18)
C11A C 0.4402(5) 0.0631(3) -0.27385(19)
H11A H 0.4302 0.1324 -0.3010
C12A C 0.4008(5) -0.0551(3) -0.31545(19)
C13A C 0.4179(5) -0.1591(3) -0.27537(19)
H12A H 0.3921 -0.2381 -0.3031
C14A C 0.3300(6) -0.0668(3) -0.4014(2)
C15A C 0.8911(5) -0.3248(4) 0.1174(2)
C16A C 0.9567(5) -0.2020(3) 0.1670(2)
C17A C 0.9528(5) -0.0915(3) 0.1330(2)
H13A H 0.9148 -0.0930 0.0788
C18A C 1.0057(5) 0.0212(3) 0.1801(2)
C19A C 0.9944(7) 0.1435(4) 0.1493(3)
C20A C 1.0640(5) 0.0241(3) 0.2611(2)
H14A H 1.0994 0.0997 0.2926
C21A C 1.0689(5) -0.0863(3) 0.2946(2)
C22A C 1.1334(6) -0.0822(4) 0.3810(2)
C23A C 1.0146(5) -0.1992(3) 0.2480(2)
H15A H 1.0170 -0.2730 0.2709
Cu1_2 Cu 0.50051(6) -0.63945(3) 0.00064(2)
Cu1A_2 Cu 0.49949(6) 0.63945(3) -0.00064(2)
Cu2_2 Cu 0.53123(6) -0.46837(3) 0.18666(2)
Cu2A_2 Cu 0.46877(6) 0.46837(3) -0.18666(2)
Cu2A_3 Cu 1.46877(6) 0.46837(3) 0.81334(2)
O5_2 O 0.4976(4) 0.7076(2) 0.19366(14)
O5A_2 O 0.5024(4) -0.7076(2) -0.19366(14)
O6_2 O 0.4440(3) -0.49372(19) 0.07095(12)
O6A_2 O 0.5560(3) 0.49372(19) -0.07095(12)
O10_2 O 0.1259(4) -0.5790(2) -0.15359(16)
O10A_2 O 0.8741(4) 0.5790(2) 0.15359(16)
N1A_2 N 0.3912(4) -0.5608(2) -0.30760(16)
loop_
_geom_bond_atom_site_label_1
_geom_bond_atom_site_label_2
_geom_bond_site_symmetry_1
_geom_bond_site_symmetry_2
Cu1 O1 1_555 1_555
Cu2 O3 1_555 1_555
O1 C6 1_555 1_555
O2 Cu1 1_555 1_555
H1 O2 1_555 1_555
H2 O2 1_555 1_555
O3 C6 1_555 1_555
O4 Cu2 1_555 1_555
H3 O4 1_555 1_555
H4 O4 1_555 1_555
O5 C10 1_555 1_555
O6 Cu1 1_555 1_555
H5 O6 1_555 1_555
O7 C10 1_555 1_555
O8 C14 1_555 1_555
O9 C14 1_555 1_555
O10 C15 1_555 1_555
O11 Cu1 1_555 1_555
O12 C19 1_555 1_555
O13 C19 1_555 1_555
O14 C22 1_555 1_555
O15 C22 1_555 1_555
N1 Cu2 1_555 1_555
N2 C4 1_555 1_555
C1 N1 1_555 1_555
H6 C1 1_555 1_555
C2 C1 1_555 1_555
H7 C2 1_555 1_555
C3 N1 1_555 1_555
H8 C3 1_555 1_555
C4 C3 1_555 1_555
C5 C2 1_555 1_555
H9 C5 1_555 1_555
C6 C7 1_555 1_555
C7 C8 1_555 1_555
C8 H10 1_555 1_555
C9 C8 1_555 1_555
C10 C9 1_555 1_555
C11 C9 1_555 1_555
H11 C11 1_555 1_555
C12 C11 1_555 1_555
C13 C7 1_555 1_555
H12 C13 1_555 1_555
C14 C12 1_555 1_555
C15 O11 1_555 1_555
C16 C15 1_555 1_555
C17 C16 1_555 1_555
H13 C17 1_555 1_555
C18 C17 1_555 1_555
C19 C18 1_555 1_555
C20 C18 1_555 1_555
H14 C20 1_555 1_555
C21 C20 1_555 1_555
C22 C21 1_555 1_555
C23 C16 1_555 1_555
H15 C23 1_555 1_555
N1A C1A 1_555 1_555
N2A N2 1_555 1_555
C1A H6A 1_555 1_555
C2A C1A 1_555 1_555
H7A C2A 1_555 1_555
C3A N1A 1_555 1_555
H8A C3A 1_555 1_555
C4A N2A 1_555 1_555
C5A C2A 1_555 1_555
H9A C5A 1_555 1_555
Cu1A O7 1_555 1_555
Cu2A O3A 1_555 1_555
O1A Cu1A 1_555 1_555
O2A Cu1A 1_555 1_555
H1A O2A 1_555 1_555
H2A O2A 1_555 1_555
O3A C6A 1_555 1_555
O4A Cu2A 1_555 1_555
H3A O4A 1_555 1_555
H4A O4A 1_555 1_555
O5A C10A 1_555 1_555
O6A Cu1A 1_555 1_555
H5A O6A 1_555 1_555
O7A Cu1 1_555 1_555
O8A C14A 1_555 1_555
O9A C14A 1_555 1_555
O10A C15A 1_555 1_555
O11A Cu1A 1_555 1_555
O12A C19A 1_555 1_555
O13A C19A 1_555 1_555
O14A C22A 1_555 1_555
O15A C22A 1_555 1_555
C6A O1A 1_555 1_555
C7A C6A 1_555 1_555
C8A C7A 1_555 1_555
H10A C8A 1_555 1_555
C9A C8A 1_555 1_555
C10A O7A 1_555 1_555
C11A C9A 1_555 1_555
H11A C11A 1_555 1_555
C12A C11A 1_555 1_555
C13A C7A 1_555 1_555
H12A C13A 1_555 1_555
C14A C12A 1_555 1_555
C15A O11A 1_555 1_555
C16A C15A 1_555 1_555
C17A C16A 1_555 1_555
H13A C17A 1_555 1_555
C18A C17A 1_555 1_555
C19A C18A 1_555 1_555
C20A C18A 1_555 1_555
H14A C20A 1_555 1_555
C21A C20A 1_555 1_555
C22A C21A 1_555 1_555
C23A C16A 1_555 1_555
H15A C23A 1_555 1_555
Cu1_2 O6A 1_555 1_555
Cu1A_2 O6 1_555 1_555
Cu2_2 O5 1_555 1_555
Cu2A_2 O10 1_555 1_555
Cu2A_3 N1A 1_555 1_555
O5_2 Cu2 1_555 1_555
O5A_2 Cu2A 1_555 1_555
O6_2 Cu1A 1_555 1_555
O6A_2 Cu1 1_555 1_555
O10_2 Cu2A 1_555 1_555
O10A_2 Cu2 1_555 1_555
N1A_2 Cu2A 1_555 1_555
Cu2 O6 1_555 1_555
C4 C5 1_555 1_555
C12 C13 1_555 1_555
C21 C23 1_555 1_555
C3A C4A 1_555 1_555
C4A C5A 1_555 1_555
Cu2A O6A 1_555 1_555
O5A Cu2A_2 1_555 1_555
O10A Cu2_2 1_555 1_555
C9A C10A 1_555 1_555
C12A C13A 1_555 1_555
C21A C23A 1_555 1_555
Cu1_2 O6_2 1_555 1_555
Cu1A_2 O6A_2 1_555 1_555
Cu2_2 O6_2 1_555 1_555
Cu2A_2 O6A_2 1_555 1_555

#END
