
#######################################################################
#
#                 Cambridge Crystallographic Data Centre
#                                CCDC 
#
#######################################################################
#
# If this CIF has been generated from an entry in the Cambridge 
# Structural Database, then it will include bibliographic, chemical, 
# crystal, experimental, refinement or atomic coordinate data resulting 
# from the CCDC's data processing and validation procedures.
#
#######################################################################

data_CUHBOW
_symmetry_cell_setting           monoclinic
_symmetry_space_group_name_H-M   'P 21/c'
_symmetry_Int_Tables_number      14
_space_group_name_Hall           '-P 2ybc'
loop_
_symmetry_equiv_pos_site_id
_symmetry_equiv_pos_as_xyz
1 x,y,z
2 -x,1/2+y,1/2-z
3 -x,-y,-z
4 x,1/2-y,1/2+z
_cell_length_a                   28.93(3)
_cell_length_b                   5.867(4)
_cell_length_c                   20.19(3)
_cell_angle_alpha                90
_cell_angle_beta                 112.70(8)
_cell_angle_gamma                90
_cell_volume                     3161.44
loop_
_atom_site_label
_atom_site_type_symbol
_atom_site_fract_x
_atom_site_fract_y
_atom_site_fract_z
Cu1 Cu 0.39125(5) 0.4959(3) 0.28328(8)
N1 N 0.3751(3) -0.1946(15) 0.2433(4)
C1 C 0.3674(4) -0.0165(20) 0.2177(5)
S1 S 0.3544(1) 0.2441(6) 0.1844(2)
N2 N 0.3488(3) 0.4768(15) 0.3483(4)
N3 N 0.4669(3) 0.4179(15) 0.3311(4)
C2 C 0.3531(4) 0.3085(18) 0.3937(5)
C3 C 0.4994(4) 0.5338(19) 0.3869(5)
C4 C 0.3939(4) 0.1297(20) 0.4081(5)
C5 C 0.4779(4) 0.7248(23) 0.4151(16)
C6 C 0.3202(4) 0.2803(19) 0.4294(5)
C7 C 0.5492(4) 0.4777(20) 0.4177(5)
C8 C 0.2825(4) 0.4374(18) 0.4181(5)
C9 C 0.5690(4) 0.2949(19) 0.3939(5)
C10 C 0.2460(4) 0.4096(25) 0.4539(6)
C11 C 0.6246(4) 0.2366(23) 0.4290(6)
C12 C 0.2786(4) 0.6164(20) 0.3711(5)
C13 C 0.5351(4) 0.1805(20) 0.3353(5)
C14 C 0.3118(4) 0.6272(18) 0.3376(5)
C15 C 0.4855(4) 0.2469(20) 0.3061(5)
H1 H 0.402 0.000 0.453
H2 H 0.486 0.743 0.475
H3 H 0.426 0.255 0.434
H4 H 0.489 0.869 0.402
H5 H 0.388 0.044 0.366
H6 H 0.442 0.722 0.391
H7 H 0.323 0.156 0.463
H8 H 0.572 0.572 0.458
H9 H 0.256 0.425 0.500
H10 H 0.634 0.269 0.477
H11 H 0.217 0.510 0.432
H12 H 0.631 0.076 0.425
H13 H 0.231 0.254 0.443
H14 H 0.645 0.321 0.411
H15 H 0.253 0.736 0.360
H16 H 0.548 0.054 0.315
H17 H 0.309 0.754 0.303
H18 H 0.463 0.163 0.264
N1_2 N 0.3751(3) 0.8054(15) 0.2433(4)
Cu1_2 Cu 0.39125(5) -0.5041(3) 0.28328(8)
Cu2 Cu 0.11787(5) 0.1091(2) 0.24123(8)
N4 N 0.1282(3) -0.5796(16) 0.2769(4)
C16 C 0.1341(4) -0.3984(19) 0.3021(5)
S2 S 0.1421(1) -0.1450(5) 0.3401(2)
N5 N 0.0420(3) 0.0308(15) 0.1780(4)
N6 N 0.1544(3) -0.0242(15) 0.1781(4)
C17 C 0.0156(4) 0.1385(20) 0.1167(5)
C18 C 0.2016(3) 0.0199(19) 0.1871(5)
C19 C 0.0425(5) 0.3251(23) 0.0918(6)
C20 C 0.2287(4) 0.2110(22) 0.2350(6)
C21 C -0.0338(4) 0.0828(21) 0.0736(6)
C22 C 0.2257(3) -0.1093(20) 0.1510(5)
C23 C -0.0588(4) -0.0889(20) 0.0932(5)
C24 C 0.2013(4) -0.2857(20) 0.1061(6)
C25 C -0.1119(4) -0.1504(22) 0.0499(6)
C26 C 0.2280(5) -0.4315(23) 0.0695(6)
C27 C -0.0319(4) -0.1943(20) 0.1572(6)
C28 C 0.1531(4) -0.3305(20) 0.0989(6)
C29 C 0.0170(4) -0.1338(21) 0.1969(5)
C30 C 0.1308(4) -0.1948(19) 0.1349(6)
H19 H 0.088 0.405 0.121
H20 H 0.200 0.346 0.249
H21 H 0.040 0.434 0.124
H22 H 0.273 0.220 0.259
H23 H 0.040 0.285 0.046
H24 H 0.223 0.171 0.294
H25 H -0.052 0.167 0.029
H26 H 0.261 -0.075 0.158
H27 H -0.137 -0.012 0.041
H28 H 0.260 -0.335 0.079
H29 H -0.116 -0.210 0.004
H30 H 0.237 -0.580 0.090
H31 H -0.124 -0.267 0.074
H32 H 0.210 -0.448 0.019
H33 H -0.048 -0.314 0.175
H34 H 0.135 -0.455 0.067
H35 H 0.036 -0.215 0.242
H36 H 0.096 -0.230 0.130
N4_2 N 0.1282(3) 0.4204(16) 0.2769(4)
Cu2_2 Cu 0.11787(5) -0.8909(2) 0.24123(8)
loop_
_geom_bond_atom_site_label_1
_geom_bond_atom_site_label_2
_geom_bond_site_symmetry_1
_geom_bond_site_symmetry_2
Cu1 S1 1_555 1_555
N1 C1 1_555 1_555
C1 S1 1_555 1_555
N2 Cu1 1_555 1_555
N3 Cu1 1_555 1_555
C2 N2 1_555 1_555
C3 N3 1_555 1_555
C4 C2 1_555 1_555
C5 C3 1_555 1_555
C6 C2 1_555 1_555
C7 C3 1_555 1_555
C8 C6 1_555 1_555
C9 C7 1_555 1_555
C10 C8 1_555 1_555
C11 C9 1_555 1_555
C12 C8 1_555 1_555
C13 C9 1_555 1_555
C14 N2 1_555 1_555
C15 N3 1_555 1_555
Cu2 S2 1_555 1_555
N4 C16 1_555 1_555
C16 S2 1_555 1_555
N5 Cu2 1_555 1_555
N6 Cu2 1_555 1_555
C17 N5 1_555 1_555
C18 N6 1_555 1_555
C19 C17 1_555 1_555
C20 C18 1_555 1_555
C21 C17 1_555 1_555
C22 C18 1_555 1_555
C23 C21 1_555 1_555
C24 C22 1_555 1_555
C25 C23 1_555 1_555
C26 C24 1_555 1_555
C27 C23 1_555 1_555
C28 C24 1_555 1_555
C29 N5 1_555 1_555
C30 N6 1_555 1_555
H1 C4 1_555 1_555
H2 C5 1_555 1_555
H3 C4 1_555 1_555
H4 C5 1_555 1_555
H5 C4 1_555 1_555
H6 C5 1_555 1_555
H7 C6 1_555 1_555
H8 C7 1_555 1_555
H9 C10 1_555 1_555
H10 C11 1_555 1_555
H11 C10 1_555 1_555
H12 C11 1_555 1_555
H13 C10 1_555 1_555
H14 C11 1_555 1_555
H15 C12 1_555 1_555
H16 C13 1_555 1_555
H17 C14 1_555 1_555
H18 C15 1_555 1_555
H19 C19 1_555 1_555
H20 C20 1_555 1_555
H21 C19 1_555 1_555
H22 C20 1_555 1_555
H23 C19 1_555 1_555
H24 C20 1_555 1_555
H25 C21 1_555 1_555
H26 C22 1_555 1_555
H27 C25 1_555 1_555
H28 C26 1_555 1_555
H29 C25 1_555 1_555
H30 C26 1_555 1_555
H31 C25 1_555 1_555
H32 C26 1_555 1_555
H33 C27 1_555 1_555
H34 C28 1_555 1_555
H35 C29 1_555 1_555
H36 C30 1_555 1_555
N1_2 Cu1 1_555 1_555
Cu1_2 N1 1_555 1_555
N4_2 Cu2 1_555 1_555
Cu2_2 N4 1_555 1_555
C12 C14 1_555 1_555
C13 C15 1_555 1_555
C27 C29 1_555 1_555
C28 C30 1_555 1_555

#END
