
#######################################################################
#
#                 Cambridge Crystallographic Data Centre
#                                CCDC 
#
#######################################################################
#
# If this CIF has been generated from an entry in the Cambridge 
# Structural Database, then it will include bibliographic, chemical, 
# crystal, experimental, refinement or atomic coordinate data resulting 
# from the CCDC's data processing and validation procedures.
#
#######################################################################

data_CUHHAQ
_symmetry_cell_setting           triclinic
_symmetry_space_group_name_H-M   'P -1'
_symmetry_Int_Tables_number      2
_space_group_name_Hall           '-P 1'
loop_
_symmetry_equiv_pos_site_id
_symmetry_equiv_pos_as_xyz
1 x,y,z
2 -x,-y,-z
_cell_length_a                   11.1118(8)
_cell_length_b                   11.7101(8)
_cell_length_c                   12.1289(8)
_cell_angle_alpha                71.8910(10)
_cell_angle_beta                 69.7720(10)
_cell_angle_gamma                75.0320(10)
_cell_volume                     1387.26
loop_
_atom_site_label
_atom_site_type_symbol
_atom_site_fract_x
_atom_site_fract_y
_atom_site_fract_z
Mo1 Mo 0.74205(4) 0.31200(4) 0.35694(3)
N1 N 1.1672(4) 0.1160(4) 0.2797(3)
O1 O 1.0000 0.0000 0.5000
Cu1 Cu 1.08082(5) 0.13906(5) 0.45059(5)
C1 C 1.9042(5) -0.8058(5) -0.1456(4)
H1 H 1.8709 -0.7954 -0.0670
Cr1 Cr 0.5000 0.5000 0.5000
Mo2 Mo 0.45142(4) 0.22458(4) 0.51846(3)
O2 O 1.2644(4) 0.0311(4) 0.4988(4)
H2 H 1.2952 -0.0422 0.5279
H3 H 1.3282 0.0674 0.4543
N2 N 2.0054(4) -0.8380(4) -0.3785(3)
O3 O 0.4181(3) 0.1085(3) 0.6434(3)
C2 C 1.3909(5) -0.1305(4) 0.1356(4)
Mo3 Mo 0.20938(4) 0.41397(4) 0.66021(3)
O4 O 1.1351(3) 0.3060(3) 0.3992(3)
H4 H 1.1924 0.3227 0.4208
H5 H 1.0836 0.3720 0.3817
N3 N 1.4174(4) -0.1631(4) 0.0309(3)
H6 H 1.3775 -0.1154 -0.0202
O5 O 0.8873(3) 0.2537(3) 0.3892(3)
C3 C 1.5585(5) -0.3646(5) 0.0716(4)
H7 H 1.5398 -0.3651 0.1526
N4 N 1.7601(4) -0.5615(4) -0.1323(3)
H8 H 1.8148 -0.5991 -0.0917
O6 O 0.6366(3) 0.2103(3) 0.4939(3)
C4 C 1.8664(5) -0.7180(4) -0.2405(4)
O7 O 0.7502(4) 0.2521(3) 0.2420(3)
C5 C 2.0399(5) -0.9216(5) -0.2854(4)
H9 H 2.0989 -0.9915 -0.3003
O8 O 0.4556(4) 0.1718(3) 0.4012(3)
C6 C 1.1458(5) 0.2040(4) 0.1838(4)
H10 H 1.0923 0.2770 0.1967
O9 O 0.2800(3) 0.3267(3) 0.5333(3)
C7 C 1.2795(5) 0.0828(5) 0.0465(4)
H11 H 1.3161 0.0723 -0.0319
O10 O 0.0631(3) 0.4820(3) 0.6327(3)
C8 C 1.2458(5) 0.0111(4) 0.2592(4)
H12 H 1.2618 -0.0505 0.3251
O11 O 0.2310(3) 0.5274(3) 0.7361(3)
C9 C 1.1999(6) 0.1907(5) 0.0672(4)
H13 H 1.1830 0.2538 0.0026
O12 O 0.6844(3) 0.4370(3) 0.4886(2)
C10 C 1.5342(5) -0.2665(4) -0.1260(4)
H14 H 1.4984 -0.2007 -0.1782
O13 O 0.5241(3) 0.4021(3) 0.3848(3)
C11 C 1.5035(5) -0.2671(4) -0.0045(4)
O14 O 0.4350(3) 0.3573(3) 0.6266(2)
C12 C 1.9913(6) -0.9078(5) -0.1697(4)
H15 H 2.0174 -0.9676 -0.1072
O15 O 1.4358(4) -0.1910(3) 0.2189(3)
C13 C 1.9206(4) -0.7379(4) -0.3555(4)
H16 H 1.8971 -0.6790 -0.4198
C14 C 1.6174(4) -0.3631(4) -0.1696(4)
H17 H 1.6374 -0.3622 -0.2509
O16 O 1.7021(3) -0.5572(3) -0.2961(3)
C15 C 1.6412(5) -0.4615(4) 0.0282(4)
H18 H 1.6769 -0.5273 0.0804
O17 O 0.1770(4) 0.2992(3) 0.7861(3)
C16 C 1.6712(4) -0.4613(4) -0.0926(4)
C17 C 1.7691(4) -0.6047(4) -0.2255(4)
C18 C 1.3040(5) -0.0088(4) 0.1431(4)
Mo1A Mo 0.25795(4) 0.68800(4) 0.64306(3)
N1A N -0.1672(4) 0.8840(4) 0.7203(3)
Cu1A Cu -0.08082(5) 0.86094(5) 0.54941(5)
C1A C -0.9042(5) 1.8058(5) 1.1456(4)
H1A H -0.8709 1.7954 1.0670
Mo2A Mo 0.54858(4) 0.77542(4) 0.48154(3)
O2A O -0.2644(4) 0.9689(4) 0.5012(4)
H2A H -0.2952 1.0422 0.4721
H3A H -0.3282 0.9326 0.5457
N2A N -1.0054(4) 1.8380(4) 1.3785(3)
O3A O 0.5819(3) 0.8915(3) 0.3566(3)
C2A C -0.3909(5) 1.1305(4) 0.8644(4)
Mo3A Mo 0.79062(4) 0.58603(4) 0.33979(3)
O4A O -0.1351(3) 0.6940(3) 0.6008(3)
H4A H -0.1924 0.6773 0.5792
H5A H -0.0836 0.6280 0.6183
N3A N -0.4174(4) 1.1631(4) 0.9691(3)
H6A H -0.3775 1.1154 1.0202
O5A O 0.1127(3) 0.7463(3) 0.6108(3)
C3A C -0.5585(5) 1.3646(5) 0.9284(4)
H7A H -0.5398 1.3651 0.8474
N4A N -0.7601(4) 1.5615(4) 1.1323(3)
H8A H -0.8148 1.5991 1.0917
O6A O 0.3634(3) 0.7897(3) 0.5061(3)
C4A C -0.8664(5) 1.7180(4) 1.2405(4)
O7A O 0.2498(4) 0.7479(3) 0.7580(3)
C5A C -1.0399(5) 1.9216(5) 1.2854(4)
H9A H -1.0989 1.9915 1.3003
O8A O 0.5444(4) 0.8282(3) 0.5988(3)
C6A C -0.1458(5) 0.7960(4) 0.8162(4)
H10A H -0.0923 0.7230 0.8033
O9A O 0.7200(3) 0.6733(3) 0.4667(3)
C7A C -0.2795(5) 0.9172(5) 0.9535(4)
H11A H -0.3161 0.9277 1.0319
O10A O 0.9369(3) 0.5180(3) 0.3673(3)
C8A C -0.2458(5) 0.9889(4) 0.7408(4)
H12A H -0.2618 1.0505 0.6749
O11A O 0.7690(3) 0.4726(3) 0.2639(3)
C9A C -0.1999(6) 0.8093(5) 0.9328(4)
H13A H -0.1830 0.7462 0.9974
O12A O 0.3156(3) 0.5630(3) 0.5114(2)
C10A C -0.5342(5) 1.2665(4) 1.1260(4)
H14A H -0.4984 1.2007 1.1782
O13A O 0.4759(3) 0.5979(3) 0.6152(3)
C11A C -0.5035(5) 1.2671(4) 1.0045(4)
O14A O 0.5650(3) 0.6427(3) 0.3734(2)
C12A C -0.9913(6) 1.9078(5) 1.1697(4)
H15A H -1.0174 1.9676 1.1072
O15A O -0.4358(4) 1.1910(3) 0.7811(3)
C13A C -0.9206(4) 1.7379(4) 1.3555(4)
H16A H -0.8971 1.6790 1.4198
C14A C -0.6174(4) 1.3631(4) 1.1696(4)
H17A H -0.6374 1.3622 1.2509
O16A O -0.7021(3) 1.5572(3) 1.2961(3)
C15A C -0.6412(5) 1.4615(4) 0.9718(4)
H18A H -0.6769 1.5273 0.9196
O17A O 0.8230(4) 0.7008(3) 0.2139(3)
C16A C -0.6712(4) 1.4613(4) 1.0926(4)
C17A C -0.7691(4) 1.6047(4) 1.2255(4)
C18A C -0.3040(5) 1.0088(4) 0.8569(4)
O1_2 O 0.0000 1.0000 0.5000
Cu1_2 Cu 2.08082(5) -0.86094(5) -0.54941(5)
Cu1A_2 Cu -1.08082(5) 1.86094(5) 1.54941(5)
Cu1A_3 Cu 0.91918(5) -0.13906(5) 0.54941(5)
N2_2 N 1.0054(4) 0.1620(4) 0.6215(3)
N2A_2 N -0.0054(4) 0.8380(4) 0.3785(3)
O18 O 0.7208(4) 0.0604(3) 0.1548(3)
H19 H 0.7983 0.0531 0.1566
H20 H 0.6870 0.0026 0.2099
O19 O 1.9409(6) -0.6122(10) 0.0076(6)
H21 H 2.0121 -0.5853 -0.0168
H22 H 1.8792 -0.5536 0.0226
loop_
_geom_bond_atom_site_label_1
_geom_bond_atom_site_label_2
_geom_bond_site_symmetry_1
_geom_bond_site_symmetry_2
Mo1 O5 1_555 1_555
N1 Cu1 1_555 1_555
O1 Cu1 1_555 1_555
Cu1 O2 1_555 1_555
C1 H1 1_555 1_555
Cr1 O12 1_555 1_555
Mo2 O3 1_555 1_555
O2 H2 1_555 1_555
H3 O2 1_555 1_555
N2 C5 1_555 1_555
C2 N3 1_555 1_555
Mo3 O9 1_555 1_555
O4 Cu1 1_555 1_555
H4 O4 1_555 1_555
H5 O4 1_555 1_555
N3 H6 1_555 1_555
O5 Cu1 1_555 1_555
C3 H7 1_555 1_555
N4 H8 1_555 1_555
O6 Mo1 1_555 1_555
C4 C1 1_555 1_555
O7 Mo1 1_555 1_555
C5 H9 1_555 1_555
O8 Mo2 1_555 1_555
C6 N1 1_555 1_555
H10 C6 1_555 1_555
O9 Mo2 1_555 1_555
C7 H11 1_555 1_555
O10 Mo3 1_555 1_555
C8 N1 1_555 1_555
H12 C8 1_555 1_555
O11 Mo3 1_555 1_555
C9 C6 1_555 1_555
H13 C9 1_555 1_555
O12 Mo1 1_555 1_555
C10 H14 1_555 1_555
O13 Mo1 1_555 1_555
C11 N3 1_555 1_555
O14 Cr1 1_555 1_555
C12 C1 1_555 1_555
H15 C12 1_555 1_555
O15 C2 1_555 1_555
C13 N2 1_555 1_555
H16 C13 1_555 1_555
C14 C10 1_555 1_555
H17 C14 1_555 1_555
O16 C17 1_555 1_555
C15 C3 1_555 1_555
H18 C15 1_555 1_555
O17 Mo3 1_555 1_555
C16 N4 1_555 1_555
C17 N4 1_555 1_555
C18 C2 1_555 1_555
O18 H19 1_555 1_555
H20 O18 1_555 1_555
O19 H21 1_555 1_555
H22 O19 1_555 1_555
Mo1A O11 1_555 1_555
N1A Cu1A 1_555 1_555
Cu1A O2A 1_555 1_555
C1A H1A 1_555 1_555
Mo2A O3A 1_555 1_555
O2A H2A 1_555 1_555
H3A O2A 1_555 1_555
N2A C5A 1_555 1_555
C2A N3A 1_555 1_555
Mo3A O12 1_555 1_555
O4A Cu1A 1_555 1_555
H4A O4A 1_555 1_555
H5A O4A 1_555 1_555
N3A H6A 1_555 1_555
O5A Mo1A 1_555 1_555
C3A H7A 1_555 1_555
N4A H8A 1_555 1_555
O6A Mo1A 1_555 1_555
C4A C1A 1_555 1_555
O7A Mo1A 1_555 1_555
C5A H9A 1_555 1_555
O8A Mo2A 1_555 1_555
C6A N1A 1_555 1_555
H10A C6A 1_555 1_555
O9A Mo2A 1_555 1_555
C7A H11A 1_555 1_555
O10A Mo3A 1_555 1_555
C8A N1A 1_555 1_555
H12A C8A 1_555 1_555
O11A Mo1 1_555 1_555
C9A C6A 1_555 1_555
H13A C9A 1_555 1_555
O12A Cr1 1_555 1_555
C10A H14A 1_555 1_555
O13A Cr1 1_555 1_555
C11A N3A 1_555 1_555
O14A Cr1 1_555 1_555
C12A C1A 1_555 1_555
H15A C12A 1_555 1_555
O15A C2A 1_555 1_555
C13A N2A 1_555 1_555
H16A C13A 1_555 1_555
C14A C10A 1_555 1_555
H17A C14A 1_555 1_555
O16A C17A 1_555 1_555
C15A C3A 1_555 1_555
H18A C15A 1_555 1_555
O17A Mo3A 1_555 1_555
C16A N4A 1_555 1_555
C17A N4A 1_555 1_555
C18A C2A 1_555 1_555
O1_2 Cu1A 1_555 1_555
Cu1_2 N2 1_555 1_555
Cu1A_2 N2A 1_555 1_555
Cu1A_3 O1 1_555 1_555
N2_2 Cu1 1_555 1_555
N2A_2 Cu1A 1_555 1_555
Cr1 O13 1_555 1_555
Mo2 O6 1_555 1_555
Mo2 O13 1_555 1_555
Mo2 O14 1_555 1_555
Mo3 O14 1_555 1_555
Mo3 O12A 1_555 1_555
C3 C11 1_555 1_555
C4 C13 1_555 1_555
C4 C17 1_555 1_555
C5 C12 1_555 1_555
C7 C9 1_555 1_555
C7 C18 1_555 1_555
C8 C18 1_555 1_555
C10 C11 1_555 1_555
C14 C16 1_555 1_555
C15 C16 1_555 1_555
Mo1A O12A 1_555 1_555
Mo1A O13A 1_555 1_555
Cu1A O5A 1_555 1_555
Mo2A O6A 1_555 1_555
Mo2A O13A 1_555 1_555
Mo2A O14A 1_555 1_555
Mo3A O9A 1_555 1_555
Mo3A O11A 1_555 1_555
Mo3A O14A 1_555 1_555
C3A C11A 1_555 1_555
C4A C13A 1_555 1_555
C4A C17A 1_555 1_555
C5A C12A 1_555 1_555
C7A C9A 1_555 1_555
C7A C18A 1_555 1_555
C8A C18A 1_555 1_555
C10A C11A 1_555 1_555
C14A C16A 1_555 1_555
C15A C16A 1_555 1_555

#END
