
#######################################################################
#
#                 Cambridge Crystallographic Data Centre
#                                CCDC 
#
#######################################################################
#
# If this CIF has been generated from an entry in the Cambridge 
# Structural Database, then it will include bibliographic, chemical, 
# crystal, experimental, refinement or atomic coordinate data resulting 
# from the CCDC's data processing and validation procedures.
#
#######################################################################

data_CUHMAU
_symmetry_cell_setting           rhombohedral
_symmetry_space_group_name_H-M   'R -3 c'
_symmetry_Int_Tables_number      167
_space_group_name_Hall           '-R 3 2"c'
loop_
_symmetry_equiv_pos_site_id
_symmetry_equiv_pos_as_xyz
1 x,y,z
2 -y,x-y,z
3 -x+y,-x,z
4 x-y,-y,1/2-z
5 -x,-x+y,1/2-z
6 y,x,1/2-z
7 2/3+x,1/3+y,1/3+z
8 2/3-y,1/3+x-y,1/3+z
9 2/3-x+y,1/3-x,1/3+z
10 2/3+x-y,1/3-y,5/6-z
11 2/3-x,1/3-x+y,5/6-z
12 2/3+y,1/3+x,5/6-z
13 1/3+x,2/3+y,2/3+z
14 1/3-y,2/3+x-y,2/3+z
15 1/3-x+y,2/3-x,2/3+z
16 1/3+x-y,2/3-y,1/6-z
17 1/3-x,2/3-x+y,1/6-z
18 1/3+y,2/3+x,1/6-z
19 -x,-y,-z
20 y,-x+y,-z
21 x-y,x,-z
22 -x+y,y,1/2+z
23 x,x-y,1/2+z
24 -y,-x,1/2+z
25 1/3-x,2/3-y,2/3-z
26 1/3+y,2/3-x+y,2/3-z
27 1/3+x-y,2/3+x,2/3-z
28 1/3-x+y,2/3+y,1/6+z
29 1/3+x,2/3+x-y,1/6+z
30 1/3-y,2/3-x,1/6+z
31 2/3-x,1/3-y,1/3-z
32 2/3+y,1/3-x+y,1/3-z
33 2/3+x-y,1/3+x,1/3-z
34 2/3-x+y,1/3+y,5/6+z
35 2/3+x,1/3+x-y,5/6+z
36 2/3-y,1/3-x,5/6+z
_cell_length_a                   16.0272(11)
_cell_length_b                   16.0272(11)
_cell_length_c                   59.8917(11)
_cell_angle_alpha                90
_cell_angle_beta                 90
_cell_angle_gamma                120
_cell_volume                     13323.3
loop_
_atom_site_label
_atom_site_type_symbol
_atom_site_fract_x
_atom_site_fract_y
_atom_site_fract_z
C1 C 0.0327(5) 0.1849(5) 0.23994(11)
C2 C 0.0693(7) 0.2044(7) 0.14259(13)
C3 C 0.0217(7) 0.1812(8) 0.11935(14)
C4 C 0.1130(5) 0.1439(5) 0.21318(11)
C5 C 0.0700(5) 0.1368(5) 0.19249(11)
H1 H 0.0060 0.1220 0.1918
C6 C 0.1219(6) 0.1516(6) 0.17271(11)
C7 C 0.2184(6) 0.1770(6) 0.17406(13)
H2 H 0.2538 0.1861 0.1611
C8 C 0.2621(6) 0.1888(6) 0.19482(13)
H3 H 0.3273 0.2086 0.1956
C9 C 0.2091(5) 0.1712(5) 0.21418(12)
H4 H 0.2385 0.1778 0.2280
N1 N 0.0547(4) 0.1204(4) 0.23280(9)
N2 N 0.0750(5) 0.1339(5) 0.15174(10)
O1 O 0.0621(4) 0.2676(3) 0.23237(8)
O2 O 0.0993(6) 0.2877(5) 0.15037(10)
O3 O 0.2570(11) 0.4409(12) 0.1119(3)
O4 O 0.0243(6) 0.2471(5) 0.10838(10)
O5 O 0.0898(10) 0.4837(9) 0.1580(2)
O6 O -0.0160(6) 0.0951(5) 0.11322(10)
O7 O 0.0776(5) 0.4885(6) 0.09847(12)
O8 O -0.2395(8) 0.0070(8) 0.1048(2)
O9 O 0.0000 0.0000 0.0663(5)
Na1 Na 0.0928(4) 0.3985(4) 0.12654(8)
Na2 Na -0.1180(8) 0.0161(7) 0.08308(14)
Co1 Co 0.0000 0.0000 0.2500
Co2 Co 0.0000 0.0000 0.13516(3)
C1D C -0.0327(5) 0.1522(7) 0.26006(11)
C1B C 0.1522(7) -0.0327(5) 0.23994(11)
C1E C 0.1849(5) 0.0327(5) 0.26006(11)
C1A C -0.1849(5) -0.1522(7) 0.23994(11)
C1C C -0.1522(7) -0.1849(5) 0.26006(11)
C2D C -0.0693(7) 0.1351(10) 0.35741(13)
C2B C 0.1351(10) -0.0693(7) 0.14259(13)
C2E C 0.2044(7) 0.0693(7) 0.35741(13)
C2A C -0.2044(7) -0.1351(10) 0.14259(13)
C2C C -0.1351(10) -0.2044(7) 0.35741(13)
C3D C -0.0217(7) 0.1595(11) 0.38065(14)
C3B C 0.1595(11) -0.0217(7) 0.11935(14)
C3E C 0.1812(8) 0.0217(7) 0.38065(14)
C3A C -0.1812(8) -0.1595(11) 0.11935(14)
C3C C -0.1595(11) -0.1812(8) 0.38065(14)
C4D C -0.1130(5) 0.0309(7) 0.28682(11)
C4B C 0.0309(7) -0.1130(5) 0.21318(11)
C4E C 0.1439(5) 0.1130(5) 0.28682(11)
C4A C -0.1439(5) -0.0309(7) 0.21318(11)
C4C C -0.0309(7) -0.1439(5) 0.28682(11)
C5D C -0.0700(5) 0.0668(7) 0.30751(11)
C5B C 0.0668(7) -0.0700(5) 0.19249(11)
C5E C 0.1368(5) 0.0700(5) 0.30751(11)
C5A C -0.1368(5) -0.0668(7) 0.19249(11)
C5C C -0.0668(7) -0.1368(5) 0.30751(11)
H1D H -0.0060 0.1160 0.3082
H1B H 0.1160 -0.0060 0.1918
H1E H 0.1220 0.0060 0.3082
H1A H -0.1220 -0.1160 0.1918
H1C H -0.1160 -0.1220 0.3082
C6D C -0.1219(6) 0.0297(8) 0.32729(11)
C6B C 0.0297(8) -0.1219(6) 0.17271(11)
C6E C 0.1516(6) 0.1219(6) 0.32729(11)
C6A C -0.1516(6) -0.0297(8) 0.17271(11)
C6C C -0.0297(8) -0.1516(6) 0.32729(11)
C7D C -0.2184(6) -0.0414(8) 0.32594(13)
C7B C -0.0414(8) -0.2184(6) 0.17406(13)
C7E C 0.1770(6) 0.2184(6) 0.32594(13)
C7A C -0.1770(6) 0.0414(8) 0.17406(13)
C7C C 0.0414(8) -0.1770(6) 0.32594(13)
H2D H -0.2538 -0.0677 0.3389
H2B H -0.0677 -0.2538 0.1611
H2E H 0.1861 0.2538 0.3389
H2A H -0.1861 0.0677 0.1611
H2C H 0.0677 -0.1861 0.3389
C8D C -0.2621(6) -0.0733(8) 0.30518(13)
C8B C -0.0733(8) -0.2621(6) 0.19482(13)
C8E C 0.1888(6) 0.2621(6) 0.30518(13)
C8A C -0.1888(6) 0.0733(8) 0.19482(13)
C8C C 0.0733(8) -0.1888(6) 0.30518(13)
H3D H -0.3273 -0.1187 0.3044
H3B H -0.1187 -0.3273 0.1956
H3E H 0.2086 0.3273 0.3044
H3A H -0.2086 0.1187 0.1956
H3C H 0.1187 -0.2086 0.3044
C9D C -0.2091(5) -0.0379(7) 0.28582(12)
C9B C -0.0379(7) -0.2091(5) 0.21418(12)
C9E C 0.1712(5) 0.2091(5) 0.28582(12)
C9A C -0.1712(5) 0.0379(7) 0.21418(12)
C9C C 0.0379(7) -0.1712(5) 0.28582(12)
H4D H -0.2385 -0.0607 0.2720
H4B H -0.0607 -0.2385 0.2280
H4E H 0.1778 0.2385 0.2720
H4A H -0.1778 0.0607 0.2280
H4C H 0.0607 -0.1778 0.2720
N1D N -0.0547(4) 0.0657(6) 0.26720(9)
N1B N 0.0657(6) -0.0547(4) 0.23280(9)
N1E N 0.1204(4) 0.0547(4) 0.26720(9)
N1A N -0.1204(4) -0.0657(6) 0.23280(9)
N1C N -0.0657(6) -0.1204(4) 0.26720(9)
N2D N -0.0750(5) 0.0589(7) 0.34826(10)
N2B N 0.0589(7) -0.0750(5) 0.15174(10)
N2E N 0.1339(5) 0.0750(5) 0.34826(10)
N2A N -0.1339(5) -0.0589(7) 0.15174(10)
N2C N -0.0589(7) -0.1339(5) 0.34826(10)
O1D O -0.0621(4) 0.2055(5) 0.26763(8)
O1B O 0.2055(5) -0.0621(4) 0.23237(8)
O1E O 0.2676(3) 0.0621(4) 0.26763(8)
O1A O -0.2676(3) -0.2055(5) 0.23237(8)
O1C O -0.2055(5) -0.2676(3) 0.26763(8)
O2D O -0.0993(6) 0.1884(8) 0.34963(10)
O2B O 0.1884(8) -0.0993(6) 0.15037(10)
O2E O 0.2877(5) 0.0993(6) 0.34963(10)
O2A O -0.2877(5) -0.1884(8) 0.15037(10)
O2C O -0.1884(8) -0.2877(5) 0.34963(10)
O3Q O -0.2258(12) -0.0763(11) 0.0548(3)
O3D O -0.2570(11) 0.1839(16) 0.3881(3)
O3B O 0.1839(16) -0.2570(11) 0.1119(3)
O3E O 0.4409(12) 0.2570(11) 0.3881(3)
O3A O -0.4409(12) -0.1839(16) 0.1119(3)
O3C O -0.1839(16) -0.4409(12) 0.3881(3)
O3G O 0.2258(12) 0.1494(16) 0.4452(3)
O3O O 0.1494(16) 0.2258(12) 0.0548(3)
O3F O -0.0763(11) -0.2258(12) 0.4452(3)
O3P O 0.0763(11) -0.1494(16) 0.0548(3)
O3H O -0.1494(16) 0.0763(11) 0.4452(3)
O4D O -0.0243(6) 0.2228(8) 0.39162(10)
O4B O 0.2228(8) -0.0243(6) 0.10838(10)
O4E O 0.2471(5) 0.0243(6) 0.39162(10)
O4A O -0.2471(5) -0.2228(8) 0.10838(10)
O4C O -0.2228(8) -0.2471(5) 0.39162(10)
O5D O -0.0898(10) 0.3939(13) 0.3420(2)
O5B O 0.3939(13) -0.0898(10) 0.1580(2)
O5E O 0.4837(9) 0.0898(10) 0.3420(2)
O5A O -0.4837(9) -0.3939(13) 0.1580(2)
O5C O -0.3939(13) -0.4837(9) 0.3420(2)
O6D O 0.0160(6) 0.1111(8) 0.38678(10)
O6B O 0.1111(8) 0.0160(6) 0.11322(10)
O6E O 0.0951(5) -0.0160(6) 0.38678(10)
O6A O -0.0951(5) -0.1111(8) 0.11322(10)
O6C O -0.1111(8) -0.0951(5) 0.38678(10)
O7O O -0.0776(8) 0.1782(6) 0.06820(12)
O7D O -0.0776(5) 0.4109(8) 0.40153(12)
O7B O 0.4109(8) -0.0776(5) 0.09847(12)
O7E O 0.4885(6) 0.0776(5) 0.40153(12)
O7A O -0.4885(6) -0.4109(8) 0.09847(12)
O7C O -0.4109(8) -0.4885(6) 0.40153(12)
O7H O 0.0776(8) 0.2557(5) 0.43180(12)
O7P O 0.2557(5) 0.0776(8) 0.06820(12)
O7G O 0.1782(6) -0.0776(8) 0.43180(12)
O7Q O -0.1782(6) -0.2557(5) 0.06820(12)
O7F O -0.2557(5) -0.1782(6) 0.43180(12)
O8D O 0.2395(8) 0.2465(11) 0.3952(2)
O8B O 0.2465(11) 0.2395(8) 0.1048(2)
O8E O 0.0070(8) -0.2395(8) 0.3952(2)
O8A O -0.0070(8) -0.2465(11) 0.1048(2)
O8C O -0.2465(11) -0.0070(8) 0.3952(2)
O9C O 0.0000 0.0000 0.4337(5)
Na1D Na -0.0928(4) 0.3057(6) 0.37346(8)
Na1B Na 0.3057(6) -0.0928(4) 0.12654(8)
Na1E Na 0.3985(4) 0.0928(4) 0.37346(8)
Na1A Na -0.3985(4) -0.3057(6) 0.12654(8)
Na1C Na -0.3057(6) -0.3985(4) 0.37346(8)
Na1Q Na -0.2682(4) -0.2405(4) 0.04013(8)
Na1O Na 0.0276(6) 0.2682(4) 0.04013(8)
Na2D Na 0.1180(8) 0.1341(11) 0.41692(14)
Na2B Na 0.1341(11) 0.1180(8) 0.08308(14)
Na2E Na 0.0161(7) -0.1180(8) 0.41692(14)
Na2A Na -0.0161(7) -0.1341(11) 0.08308(14)
Na2C Na -0.1341(11) -0.0161(7) 0.41692(14)
Na2Q Na 0.3494(7) 0.5487(8) 0.08359(14)
Na2O Na 0.1992(11) 0.6506(7) 0.08359(14)
Na2G Na -0.3494(7) 0.1992(11) 0.41641(14)
Na2H Na -0.1992(11) 0.4513(8) 0.41641(14)
Na2O_2 Na 0.1992(11) -0.3494(7) 0.08359(14)
Na2P Na 0.4513(8) -0.1992(11) 0.08359(14)
Na2F Na 0.5487(8) 0.3494(7) 0.41641(14)
Na2G_2 Na 0.6506(7) 0.1992(11) 0.41641(14)
Na2P_2 Na -0.5487(8) -0.1992(11) 0.08359(14)
Na2Q_2 Na -0.6506(7) -0.4513(8) 0.08359(14)
Co2C Co 0.0000 0.0000 0.36484(3)
O10 O 0.0603(12) 0.3413(9) 0.19174(16)
O11 O 0.1770(15) 0.3333 0.0833
loop_
_geom_bond_atom_site_label_1
_geom_bond_atom_site_label_2
_geom_bond_site_symmetry_1
_geom_bond_site_symmetry_2
C1 N1 1_555 1_555
C2 C3 1_555 1_555
C3 O4 1_555 1_555
C4 C5 1_555 1_555
C5 H1 1_555 1_555
C6 C5 1_555 1_555
C7 C6 1_555 1_555
H2 C7 1_555 1_555
C8 C7 1_555 1_555
H3 C8 1_555 1_555
C9 C4 1_555 1_555
H4 C9 1_555 1_555
N1 C4 1_555 1_555
N2 C2 1_555 1_555
O1 C1 1_555 1_555
O2 C2 1_555 1_555
O3 Na1 1_555 1_555
O4 Na1 1_555 1_555
O5 Na1 1_555 1_555
O6 C3 1_555 1_555
O7 Na1 1_555 1_555
O8 Na2 1_555 1_555
O9 Na2 1_555 1_555
Na1 O2 1_555 1_555
Na2 O6 1_555 1_555
Co1 N1 1_555 1_555
Co2 N2 1_555 1_555
C1D C1 1_555 1_555
C1B C1E 1_555 1_555
C1E N1E 1_555 1_555
C1A C1C 1_555 1_555
C1C N1C 1_555 1_555
C2D C3D 1_555 1_555
C2B C3B 1_555 1_555
C2E C3E 1_555 1_555
C2A C3A 1_555 1_555
C2C C3C 1_555 1_555
C3D O4D 1_555 1_555
C3B O4B 1_555 1_555
C3E O4E 1_555 1_555
C3A O4A 1_555 1_555
C3C O4C 1_555 1_555
C4D C5D 1_555 1_555
C4B C5B 1_555 1_555
C4E C5E 1_555 1_555
C4A C5A 1_555 1_555
C4C C5C 1_555 1_555
C5D H1D 1_555 1_555
C5B H1B 1_555 1_555
C5E H1E 1_555 1_555
C5A H1A 1_555 1_555
C5C H1C 1_555 1_555
C6D C5D 1_555 1_555
C6B C5B 1_555 1_555
C6E C5E 1_555 1_555
C6A C5A 1_555 1_555
C6C C5C 1_555 1_555
C7D C6D 1_555 1_555
C7B C6B 1_555 1_555
C7E C6E 1_555 1_555
C7A C6A 1_555 1_555
C7C C6C 1_555 1_555
H2D C7D 1_555 1_555
H2B C7B 1_555 1_555
H2E C7E 1_555 1_555
H2A C7A 1_555 1_555
H2C C7C 1_555 1_555
C8D C7D 1_555 1_555
C8B C7B 1_555 1_555
C8E C7E 1_555 1_555
C8A C7A 1_555 1_555
C8C C7C 1_555 1_555
H3D C8D 1_555 1_555
H3B C8B 1_555 1_555
H3E C8E 1_555 1_555
H3A C8A 1_555 1_555
H3C C8C 1_555 1_555
C9D C4D 1_555 1_555
C9B C4B 1_555 1_555
C9E C4E 1_555 1_555
C9A C4A 1_555 1_555
C9C C4C 1_555 1_555
H4D C9D 1_555 1_555
H4B C9B 1_555 1_555
H4E C9E 1_555 1_555
H4A C9A 1_555 1_555
H4C C9C 1_555 1_555
N1D Co1 1_555 1_555
N1B Co1 1_555 1_555
N1E Co1 1_555 1_555
N1A Co1 1_555 1_555
N1C Co1 1_555 1_555
N2D C2D 1_555 1_555
N2B Co2 1_555 1_555
N2E C2E 1_555 1_555
N2A Co2 1_555 1_555
N2C C2C 1_555 1_555
O1D C1D 1_555 1_555
O1B C1B 1_555 1_555
O1E C1E 1_555 1_555
O1A C1A 1_555 1_555
O1C C1C 1_555 1_555
O2D C2D 1_555 1_555
O2B C2B 1_555 1_555
O2E C2E 1_555 1_555
O2A C2A 1_555 1_555
O2C C2C 1_555 1_555
O3Q Na2 1_555 1_555
O3D Na1D 1_555 1_555
O3B Na1B 1_555 1_555
O3E Na1E 1_555 1_555
O3A Na1A 1_555 1_555
O3C Na1C 1_555 1_555
O3G Na2D 1_555 1_555
O3O Na1O 1_555 1_555
O3F Na2E 1_555 1_555
O3P Na2A 1_555 1_555
O3H Na2C 1_555 1_555
O4D Na1D 1_555 1_555
O4B Na1B 1_555 1_555
O4E Na1E 1_555 1_555
O4A Na1A 1_555 1_555
O4C Na1C 1_555 1_555
O5D Na1D 1_555 1_555
O5B Na1B 1_555 1_555
O5E Na1E 1_555 1_555
O5A Na1A 1_555 1_555
O5C Na1C 1_555 1_555
O6D C3D 1_555 1_555
O6B Co2 1_555 1_555
O6E C3E 1_555 1_555
O6A Co2 1_555 1_555
O6C C3C 1_555 1_555
O7O Na2 1_555 1_555
O7D Na1D 1_555 1_555
O7B Na1B 1_555 1_555
O7E Na1E 1_555 1_555
O7A Na1A 1_555 1_555
O7C Na1C 1_555 1_555
O7H Na2D 1_555 1_555
O7P Na2B 1_555 1_555
O7G Na2E 1_555 1_555
O7Q Na1Q 1_555 1_555
O7F Na2C 1_555 1_555
O8D Na2D 1_555 1_555
O8B Na2B 1_555 1_555
O8E Na2E 1_555 1_555
O8A Na2A 1_555 1_555
O8C Na2C 1_555 1_555
O9C Na2D 1_555 1_555
Na1D O2D 1_555 1_555
Na1B O2B 1_555 1_555
Na1E O2E 1_555 1_555
Na1A O2A 1_555 1_555
Na1C O2C 1_555 1_555
Na1Q O3Q 1_555 1_555
Na1O O7O 1_555 1_555
Na2D O6D 1_555 1_555
Na2B O9 1_555 1_555
Na2E O6E 1_555 1_555
Na2A O9 1_555 1_555
Na2C O6C 1_555 1_555
Na2Q O3 1_555 1_555
Na2O O7 1_555 1_555
Na2G O3D 1_555 1_555
Na2H O7D 1_555 1_555
Na2O_2 O3B 1_555 1_555
Na2P O7B 1_555 1_555
Na2F O3E 1_555 1_555
Na2G_2 O7E 1_555 1_555
Na2P_2 O3A 1_555 1_555
Na2Q_2 O7A 1_555 1_555
Co2C N2D 1_555 1_555
C6 N2 1_555 1_555
C8 C9 1_555 1_555
O6 Co2 1_555 1_555
C1D N1D 1_555 1_555
C1B N1B 1_555 1_555
C1A N1A 1_555 1_555
C2B N2B 1_555 1_555
C2A N2A 1_555 1_555
C3B O6B 1_555 1_555
C3A O6A 1_555 1_555
C4D N1D 1_555 1_555
C4B N1B 1_555 1_555
C4E N1E 1_555 1_555
C4A N1A 1_555 1_555
C4C N1C 1_555 1_555
C6D N2D 1_555 1_555
C6B N2B 1_555 1_555
C6E N2E 1_555 1_555
C6A N2A 1_555 1_555
C6C N2C 1_555 1_555
C8D C9D 1_555 1_555
C8B C9B 1_555 1_555
C8E C9E 1_555 1_555
C8A C9A 1_555 1_555
C8C C9C 1_555 1_555
N2E Co2C 1_555 1_555
N2C Co2C 1_555 1_555
O3O Na2B 1_555 1_555
O6D Co2C 1_555 1_555
O6B Na2B 1_555 1_555
O6E Co2C 1_555 1_555
O6A Na2A 1_555 1_555
O6C Co2C 1_555 1_555
O7Q Na2A 1_555 1_555
O9C Na2E 1_555 1_555
O9C Na2C 1_555 1_555

#END
