
#######################################################################
#
#                 Cambridge Crystallographic Data Centre
#                                CCDC 
#
#######################################################################
#
# If this CIF has been generated from an entry in the Cambridge 
# Structural Database, then it will include bibliographic, chemical, 
# crystal, experimental, refinement or atomic coordinate data resulting 
# from the CCDC's data processing and validation procedures.
#
#######################################################################

data_CUHMAM01
_symmetry_cell_setting           monoclinic
_symmetry_space_group_name_H-M   'P 21'
_symmetry_Int_Tables_number      4
_space_group_name_Hall           'P 2yb'
loop_
_symmetry_equiv_pos_site_id
_symmetry_equiv_pos_as_xyz
1 x,y,z
2 -x,1/2+y,-z
_cell_length_a                   7.591(6)
_cell_length_b                   10.230(8)
_cell_length_c                   8.184(6)
_cell_angle_alpha                90
_cell_angle_beta                 92.799(11)
_cell_angle_gamma                90
_cell_volume                     634.778
loop_
_atom_site_label
_atom_site_type_symbol
_atom_site_fract_x
_atom_site_fract_y
_atom_site_fract_z
Cu1 Cu 0.26975(3) 0.26825(3) 0.25879(3)
O1 O 0.12698(18) 0.12132(15) 0.31054(18)
O2 O 0.1354(2) -0.09136(17) 0.3565(2)
O3 O 0.46601(19) 0.14955(14) 0.3214(2)
H1 H 0.5620 0.1670 0.3665
O4 O 0.7317(2) -0.13066(19) 0.4851(2)
O5 O 0.8075(3) -0.0783(2) 0.2354(2)
H2 H 0.9071 -0.0900 0.2763
O6 O 0.40437(18) 0.41507(15) 0.18154(19)
O7 O 0.37621(19) 0.62420(16) 0.1101(2)
O8 O 0.07200(19) 0.37803(14) 0.1834(2)
H3 H -0.0350 0.3718 0.1665
O9 O -0.2225(2) 0.5845(2) 0.2835(2)
O10 O -0.2972(2) 0.64511(18) 0.02828(19)
H4 H -0.3834 0.5968 0.0271
C1 C 0.2085(3) 0.0154(2) 0.3448(2)
C2 C 0.4093(2) 0.02244(19) 0.3739(2)
H5 H 0.4388 0.0128 0.4912
C3 C 0.5024(3) -0.0850(2) 0.2810(3)
H6 H 0.4396 -0.1669 0.2922
H7 H 0.5008 -0.0630 0.1656
C4 C 0.6905(3) -0.10122(19) 0.3456(3)
C5 C 0.3142(3) 0.5189(2) 0.1575(2)
C6 C 0.1199(2) 0.51375(19) 0.1980(2)
H8 H 0.1096 0.5407 0.3121
C7 C 0.0037(3) 0.6011(2) 0.0901(2)
H9 H 0.0538 0.6883 0.0898
H10 H 0.0009 0.5681 -0.0211
C8 C -0.1818(3) 0.6081(2) 0.1471(3)
Cu1A Cu 0.73025(3) -0.23175(3) 0.74121(3)
Cu1A_2 Cu -0.26975(3) 0.76825(3) -0.25879(3)
O4A O 0.2683(2) 0.36934(19) 0.5149(2)
O10A O 0.2972(2) 0.14511(18) -0.02828(19)
H4A H 0.3834 0.0968 -0.0271
O11 O 0.2228(2) -0.30822(19) 0.5441(2)
H11 H 0.140(3) -0.337(3) 0.580(4)
H12 H 0.210(4) -0.238(2) 0.500(3)
O12 O -0.2536(2) 0.3281(2) 0.0983(3)
H13 H -0.264(4) 0.262(2) 0.043(4)
H14 H -0.353(3) 0.348(3) 0.130(4)
loop_
_geom_bond_atom_site_label_1
_geom_bond_atom_site_label_2
_geom_bond_site_symmetry_1
_geom_bond_site_symmetry_2
Cu1 O1 1_555 1_555
O1 C1 1_555 1_555
O2 C1 1_555 1_555
O3 Cu1 1_555 1_555
H1 O3 1_555 1_555
O4 C4 1_555 1_555
O5 H2 1_555 1_555
O6 Cu1 1_555 1_555
O7 C5 1_555 1_555
O8 Cu1 1_555 1_555
H3 O8 1_555 1_555
O9 C8 1_555 1_555
O10 H4 1_555 1_555
C1 C2 1_555 1_555
C2 O3 1_555 1_555
H5 C2 1_555 1_555
C3 C2 1_555 1_555
H6 C3 1_555 1_555
H7 C3 1_555 1_555
C4 O5 1_555 1_555
C5 O6 1_555 1_555
C6 O8 1_555 1_555
H8 C6 1_555 1_555
C7 C6 1_555 1_555
H9 C7 1_555 1_555
H10 C7 1_555 1_555
C8 O10 1_555 1_555
O11 H11 1_555 1_555
H12 O11 1_555 1_555
O12 H13 1_555 1_555
H14 O12 1_555 1_555
Cu1A O4 1_555 1_555
Cu1A_2 O10 1_555 1_555
O4A Cu1 1_555 1_555
O10A Cu1 1_555 1_555
H4A O10A 1_555 1_555
C3 C4 1_555 1_555
C5 C6 1_555 1_555
C7 C8 1_555 1_555

#END
