
#######################################################################
#
#                 Cambridge Crystallographic Data Centre
#                                CCDC 
#
#######################################################################
#
# If this CIF has been generated from an entry in the Cambridge 
# Structural Database, then it will include bibliographic, chemical, 
# crystal, experimental, refinement or atomic coordinate data resulting 
# from the CCDC's data processing and validation procedures.
#
#######################################################################

data_CUHZOU01
_symmetry_cell_setting           monoclinic
_symmetry_space_group_name_H-M   'P 21/c'
_symmetry_Int_Tables_number      14
_space_group_name_Hall           '-P 2ybc'
loop_
_symmetry_equiv_pos_site_id
_symmetry_equiv_pos_as_xyz
1 x,y,z
2 -x,1/2+y,1/2-z
3 -x,-y,-z
4 x,1/2-y,1/2+z
_cell_length_a                   15.0179(5)
_cell_length_b                   16.2881(5)
_cell_length_c                   18.5719(7)
_cell_angle_alpha                90
_cell_angle_beta                 102.9642(13)
_cell_angle_gamma                90
_cell_volume                     4427.13
loop_
_atom_site_label
_atom_site_type_symbol
_atom_site_fract_x
_atom_site_fract_y
_atom_site_fract_z
Cu1 Cu 0.5000 0.5000 0.5000
N1 N 0.4540(2) 0.4527(2) 0.3983(2)
N2 N 0.4481(2) 0.1022(2) 0.0369(2)
C1 C 0.4701(3) 0.1772(3) 0.0153(3)
H1 H 0.5220 0.1819 -0.0058
C2 C 0.4217(3) 0.2467(3) 0.0221(2)
H2 H 0.4400 0.2979 0.0057
C3 C 0.3459(3) 0.2422(3) 0.0530(2)
C4 C 0.3244(3) 0.1657(3) 0.0782(2)
H3 H 0.2745 0.1600 0.1015
C5 C 0.3766(3) 0.0987(3) 0.0689(2)
H4 H 0.3610 0.0469 0.0862
C6 C 0.2912(3) 0.3176(3) 0.0625(2)
H5 H 0.2872 0.3544 0.0194
H6 H 0.2284 0.3012 0.0647
C7 C 0.3358(3) 0.3639(3) 0.1335(2)
H7 H 0.2991 0.4134 0.1380
H8 H 0.3976 0.3822 0.1301
C8 C 0.3433(3) 0.3107(3) 0.2025(3)
H9 H 0.3830 0.2628 0.1997
H10 H 0.2821 0.2901 0.2049
C9 C 0.3824(3) 0.3592(3) 0.2704(3)
C10 C 0.4751(3) 0.3734(3) 0.2947(3)
H11 H 0.5166 0.3511 0.2680
C11 C 0.5080(3) 0.4197(3) 0.3574(3)
H12 H 0.5720 0.4285 0.3723
C12 C 0.3634(3) 0.4394(3) 0.3745(2)
H13 H 0.3235 0.4620 0.4025
C13 C 0.3260(3) 0.3955(3) 0.3128(2)
H14 H 0.2616 0.3892 0.2982
Cl1 Cl 0.25978(7) 0.59447(7) 0.48949(6)
O1 O 0.3538(2) 0.5841(2) 0.48385(19)
O2 O 0.2196(2) 0.6604(2) 0.4430(2)
O3 O 0.2588(2) 0.6122(2) 0.56544(19)
O4 O 0.2109(2) 0.5195(2) 0.46686(19)
Cu1C Cu 0.5000 0.0000 0.0000
Cu1C_2 Cu 0.5000 1.0000 1.0000
N1B N 0.5460(2) 0.5473(2) 0.6017(2)
N2B N 0.5519(2) 0.8978(2) 0.9631(2)
N2C N 0.4481(2) 0.3978(2) 0.5369(2)
N2A N 0.5519(2) 0.6022(2) 0.4631(2)
C1B C 0.5299(3) 0.8228(3) 0.9847(3)
H1B H 0.4780 0.8181 1.0058
C2B C 0.5783(3) 0.7533(3) 0.9779(2)
H2B H 0.5600 0.7021 0.9943
C3B C 0.6541(3) 0.7578(3) 0.9470(2)
C4B C 0.6756(3) 0.8343(3) 0.9218(2)
H3B H 0.7255 0.8400 0.8985
C5B C 0.6234(3) 0.9013(3) 0.9311(2)
H4B H 0.6390 0.9531 0.9138
C6B C 0.7088(3) 0.6824(3) 0.9375(2)
H5B H 0.7128 0.6456 0.9806
H6B H 0.7716 0.6988 0.9353
C7B C 0.6642(3) 0.6361(3) 0.8665(2)
H7B H 0.7009 0.5866 0.8620
H8B H 0.6024 0.6178 0.8699
C8B C 0.6567(3) 0.6893(3) 0.7975(3)
H9B H 0.6170 0.7372 0.8003
H10B H 0.7179 0.7099 0.7951
C9B C 0.6176(3) 0.6408(3) 0.7296(3)
C10B C 0.5249(3) 0.6266(3) 0.7053(3)
H11B H 0.4834 0.6489 0.7320
C11B C 0.4920(3) 0.5803(3) 0.6426(3)
H12B H 0.4280 0.5715 0.6277
C12B C 0.6366(3) 0.5606(3) 0.6255(2)
H13B H 0.6765 0.5380 0.5975
C13B C 0.6740(3) 0.6045(3) 0.6872(2)
H14B H 0.7384 0.6108 0.7018
Cl1B Cl 0.74022(7) 0.40553(7) 0.51051(6)
O1B O 0.6462(2) 0.4159(2) 0.51615(19)
O2B O 0.7804(2) 0.3396(2) 0.5570(2)
O3B O 0.7412(2) 0.3878(2) 0.43456(19)
O4B O 0.7891(2) 0.4805(2) 0.53314(19)
Cu2 Cu 0.16100(4) -0.04187(3) 0.34533(3)
N3 N 0.2218(2) -0.0767(2) 0.4487(2)
N4 N 0.1974(2) -0.3496(2) 0.8087(2)
N5 N 0.1296(2) 0.0692(2) 0.3828(2)
N6 N 0.1042(2) 0.5043(2) 0.74131(19)
C14 C 0.1983(3) -0.1458(3) 0.4798(3)
H15 H 0.1465 -0.1757 0.4542
C15 C 0.2462(3) -0.1753(3) 0.5473(3)
H16 H 0.2264 -0.2238 0.5675
C16 C 0.3231(3) -0.1340(3) 0.5854(2)
C17 C 0.3477(3) -0.0626(3) 0.5529(3)
H17 H 0.4000 -0.0323 0.5769
C18 C 0.2959(3) -0.0364(3) 0.4863(3)
H18 H 0.3134 0.0129 0.4658
C19 C 0.3792(3) -0.1640(3) 0.6581(3)
H19 H 0.4441 -0.1668 0.6552
H20 H 0.3593 -0.2202 0.6674
C20 C 0.3707(3) -0.1088(3) 0.7226(3)
H21 H 0.4177 -0.1252 0.7667
H22 H 0.3837 -0.0515 0.7105
C21 C 0.2773(4) -0.1117(3) 0.7417(3)
H23 H 0.2771 -0.0725 0.7825
H24 H 0.2307 -0.0930 0.6983
C22 C 0.2502(3) -0.1956(3) 0.7646(3)
C23 C 0.3124(3) -0.2475(3) 0.8085(3)
H25 H 0.3746 -0.2315 0.8243
C24 C 0.2840(3) -0.3227(3) 0.8294(3)
H26 H 0.3278 -0.3572 0.8599
C25 C 0.1369(3) -0.2993(3) 0.7663(2)
H27 H 0.0750 -0.3166 0.7515
C26 C 0.1604(3) -0.2237(3) 0.7430(3)
H28 H 0.1154 -0.1905 0.7122
C27 C 0.1515(3) 0.1382(3) 0.3524(3)
H29 H 0.1919 0.1357 0.3198
C28 C 0.1164(3) 0.2140(3) 0.3671(3)
H30 H 0.1344 0.2624 0.3456
C29 C 0.0557(3) 0.2194(3) 0.4130(3)
C30 C 0.0371(4) 0.1471(3) 0.4466(3)
H31 H -0.0014 0.1480 0.4807
C31 C 0.0745(3) 0.0744(3) 0.4305(3)
H32 H 0.0609 0.0257 0.4540
C32 C 0.0127(4) 0.2993(3) 0.4273(3)
H33 H -0.0536 0.2909 0.4226
H34 H 0.0206 0.3399 0.3896
C33 C 0.0547(4) 0.3337(4) 0.5044(4)
H35 H 0.0655 0.2877 0.5402
H36 H 0.1147 0.3583 0.5037
C34 C 0.0015(5) 0.3922(6) 0.5291(4)
H37 H -0.0580 0.3666 0.5298
H38 H -0.0105 0.4368 0.4921
C35 C 0.0377(3) 0.4305(4) 0.6033(3)
C36 C -0.0107(3) 0.4279(3) 0.6587(3)
H39 H -0.0680 0.4006 0.6501
C37 C 0.0235(3) 0.4643(3) 0.7255(3)
H40 H -0.0111 0.4614 0.7624
C38 C 0.1512(3) 0.5085(3) 0.6879(3)
H41 H 0.2074 0.5376 0.6973
C39 C 0.1209(3) 0.4721(4) 0.6198(3)
H42 H 0.1569 0.4754 0.5839
Cl2 Cl 0.38975(8) 0.04822(8) 0.32392(8)
O5 O 0.3017(2) 0.0153(2) 0.3222(2)
O6 O 0.3941(4) 0.0843(5) 0.2583(3)
O7 O 0.4100(3) 0.1062(3) 0.3843(3)
O8 O 0.4554(3) -0.0152(3) 0.3424(3)
Cl3 Cl -0.07474(8) -0.11524(8) 0.33164(7)
O9 O 0.0212(2) -0.1050(2) 0.36641(18)
O10 O -0.0841(3) -0.1231(3) 0.2539(2)
O11 O -0.1078(3) -0.1867(3) 0.3599(3)
O12 O -0.1233(3) -0.0451(3) 0.3464(3)
Cu2C Cu 0.16100(4) -0.45813(3) -0.15467(3)
Cu2C_2 Cu 0.16100(4) -0.45813(3) 0.84533(3)
Cu2C_3 Cu 0.16100(4) 0.54187(3) 0.84533(3)
Cu2C_4 Cu 0.16100(4) 0.54187(3) -0.15467(3)
N3C N 0.2218(2) -0.4233(2) -0.0513(2)
N4C N 0.1974(2) -0.1504(2) 0.3087(2)
N4_2 N 0.1974(2) -0.3496(2) -0.1913(2)
N5C N 0.1296(2) 0.4308(2) -0.1172(2)
N5C_2 N 0.1296(2) -0.5692(2) -0.1172(2)
N6C N 0.1042(2) -0.0043(2) 0.24131(19)
N6_2 N 0.1042(2) -0.4957(2) -0.25869(19)
C14C C 0.1983(3) -0.3542(3) -0.0202(3)
H15C H 0.1465 -0.3243 -0.0458
C15C C 0.2462(3) -0.3247(3) 0.0473(3)
H16C H 0.2264 -0.2762 0.0675
C16C C 0.3231(3) -0.3660(3) 0.0854(2)
C17C C 0.3477(3) -0.4374(3) 0.0529(3)
H17C H 0.4000 -0.4677 0.0769
C18C C 0.2959(3) -0.4636(3) -0.0137(3)
H18C H 0.3134 -0.5129 -0.0342
C19C C 0.3792(3) -0.3360(3) 0.1581(3)
H19C H 0.4441 -0.3332 0.1552
H20C H 0.3593 -0.2798 0.1674
C20C C 0.3707(3) -0.3912(3) 0.2226(3)
H21C H 0.4177 -0.3748 0.2667
H22C H 0.3837 -0.4485 0.2105
C21C C 0.2773(4) -0.3883(3) 0.2417(3)
H23C H 0.2771 -0.4275 0.2825
H24C H 0.2307 -0.4070 0.1983
C22C C 0.2502(3) -0.3044(3) 0.2646(3)
C23C C 0.3124(3) -0.2525(3) 0.3085(3)
H25C H 0.3746 -0.2685 0.3243
C24C C 0.2840(3) -0.1773(3) 0.3294(3)
H26C H 0.3278 -0.1428 0.3599
C25C C 0.1369(3) -0.2007(3) 0.2663(2)
H27C H 0.0750 -0.1834 0.2515
C26C C 0.1604(3) -0.2763(3) 0.2430(3)
H28C H 0.1154 -0.3095 0.2122
C27C C 0.1515(3) 0.3618(3) -0.1476(3)
H29C H 0.1919 0.3643 -0.1802
C28C C 0.1164(3) 0.2860(3) -0.1329(3)
H30C H 0.1344 0.2376 -0.1544
C29C C 0.0557(3) 0.2806(3) -0.0870(3)
C30C C 0.0371(4) 0.3529(3) -0.0534(3)
H31C H -0.0014 0.3520 -0.0193
C31C C 0.0745(3) 0.4256(3) -0.0695(3)
H32C H 0.0609 0.4743 -0.0460
C32C C 0.0127(4) 0.2007(3) -0.0727(3)
H33C H -0.0536 0.2091 -0.0774
H34C H 0.0206 0.1601 -0.1104
C33C C 0.0547(4) 0.1663(4) 0.0044(4)
H35C H 0.0655 0.2123 0.0402
H36C H 0.1147 0.1417 0.0037
C34C C 0.0015(5) 0.1078(6) 0.0291(4)
H37C H -0.0580 0.1334 0.0298
H38C H -0.0105 0.0632 -0.0079
C35C C 0.0377(3) 0.0695(4) 0.1033(3)
C36C C -0.0107(3) 0.0721(3) 0.1587(3)
H39C H -0.0680 0.0994 0.1501
C37C C 0.0235(3) 0.0357(3) 0.2255(3)
H40C H -0.0111 0.0386 0.2624
C38C C 0.1512(3) -0.0085(3) 0.1879(3)
H41C H 0.2074 -0.0376 0.1973
C39C C 0.1209(3) 0.0279(4) 0.1198(3)
H42C H 0.1569 0.0246 0.0839
Cl2C Cl 0.38975(8) -0.54822(8) -0.17608(8)
O5C O 0.3017(2) -0.5153(2) -0.1778(2)
O6C O 0.3941(4) -0.5843(5) -0.2417(3)
O7C O 0.4100(3) -0.6062(3) -0.1157(3)
O8C O 0.4554(3) -0.4848(3) -0.1576(3)
Cl3C Cl -0.07474(8) -0.38476(8) -0.16836(7)
O9C O 0.0212(2) -0.3950(2) -0.13359(18)
O10C O -0.0841(3) -0.3769(3) -0.2461(2)
O11C O -0.1078(3) -0.3133(3) -0.1401(3)
O12C O -0.1233(3) -0.4549(3) -0.1536(3)
loop_
_geom_bond_atom_site_label_1
_geom_bond_atom_site_label_2
_geom_bond_site_symmetry_1
_geom_bond_site_symmetry_2
Cu1 N1 1_555 1_555
N1 C11 1_555 1_555
N2 C1 1_555 1_555
C1 H1 1_555 1_555
C2 C1 1_555 1_555
H2 C2 1_555 1_555
C3 C2 1_555 1_555
C4 C3 1_555 1_555
H3 C4 1_555 1_555
C5 N2 1_555 1_555
H4 C5 1_555 1_555
C6 C3 1_555 1_555
H5 C6 1_555 1_555
H6 C6 1_555 1_555
C7 C6 1_555 1_555
H7 C7 1_555 1_555
H8 C7 1_555 1_555
C8 C7 1_555 1_555
H9 C8 1_555 1_555
H10 C8 1_555 1_555
C9 C8 1_555 1_555
C10 C9 1_555 1_555
H11 C10 1_555 1_555
C11 C10 1_555 1_555
H12 C11 1_555 1_555
C12 N1 1_555 1_555
H13 C12 1_555 1_555
C13 C9 1_555 1_555
H14 C13 1_555 1_555
Cl1 O1 1_555 1_555
O1 Cu1 1_555 1_555
O2 Cl1 1_555 1_555
O3 Cl1 1_555 1_555
O4 Cl1 1_555 1_555
Cu2 N3 1_555 1_555
N3 C14 1_555 1_555
N4 C24 1_555 1_555
N5 Cu2 1_555 1_555
N6 C37 1_555 1_555
C14 H15 1_555 1_555
C15 C14 1_555 1_555
H16 C15 1_555 1_555
C16 C15 1_555 1_555
C17 C16 1_555 1_555
H17 C17 1_555 1_555
C18 N3 1_555 1_555
H18 C18 1_555 1_555
C19 C16 1_555 1_555
H19 C19 1_555 1_555
H20 C19 1_555 1_555
C20 C19 1_555 1_555
H21 C20 1_555 1_555
H22 C20 1_555 1_555
C21 C20 1_555 1_555
H23 C21 1_555 1_555
H24 C21 1_555 1_555
C22 C21 1_555 1_555
C23 C22 1_555 1_555
H25 C23 1_555 1_555
C24 C23 1_555 1_555
H26 C24 1_555 1_555
C25 N4 1_555 1_555
H27 C25 1_555 1_555
C26 C22 1_555 1_555
H28 C26 1_555 1_555
C27 N5 1_555 1_555
H29 C27 1_555 1_555
C28 C27 1_555 1_555
H30 C28 1_555 1_555
C29 C28 1_555 1_555
C30 C29 1_555 1_555
H31 C30 1_555 1_555
C31 N5 1_555 1_555
H32 C31 1_555 1_555
C32 C29 1_555 1_555
H33 C32 1_555 1_555
H34 C32 1_555 1_555
C33 C32 1_555 1_555
H35 C33 1_555 1_555
H36 C33 1_555 1_555
C34 C33 1_555 1_555
H37 C34 1_555 1_555
H38 C34 1_555 1_555
C35 C34 1_555 1_555
C36 C35 1_555 1_555
H39 C36 1_555 1_555
C37 C36 1_555 1_555
H40 C37 1_555 1_555
C38 N6 1_555 1_555
H41 C38 1_555 1_555
C39 C35 1_555 1_555
H42 C39 1_555 1_555
Cl2 O5 1_555 1_555
O5 Cu2 1_555 1_555
O6 Cl2 1_555 1_555
O7 Cl2 1_555 1_555
O8 Cl2 1_555 1_555
Cl3 O9 1_555 1_555
O9 Cu2 1_555 1_555
O10 Cl3 1_555 1_555
O11 Cl3 1_555 1_555
O12 Cl3 1_555 1_555
Cu1C N2 1_555 1_555
Cu1C_2 N2B 1_555 1_555
N1B Cu1 1_555 1_555
N2B C1B 1_555 1_555
N2C Cu1 1_555 1_555
N2A Cu1 1_555 1_555
C1B H1B 1_555 1_555
C2B C1B 1_555 1_555
H2B C2B 1_555 1_555
C3B C2B 1_555 1_555
C4B C3B 1_555 1_555
H3B C4B 1_555 1_555
C5B N2B 1_555 1_555
H4B C5B 1_555 1_555
C6B C3B 1_555 1_555
H5B C6B 1_555 1_555
H6B C6B 1_555 1_555
C7B C6B 1_555 1_555
H7B C7B 1_555 1_555
H8B C7B 1_555 1_555
C8B C7B 1_555 1_555
H9B C8B 1_555 1_555
H10B C8B 1_555 1_555
C9B C8B 1_555 1_555
C10B C9B 1_555 1_555
H11B C10B 1_555 1_555
C11B N1B 1_555 1_555
H12B C11B 1_555 1_555
C12B N1B 1_555 1_555
H13B C12B 1_555 1_555
C13B C9B 1_555 1_555
H14B C13B 1_555 1_555
Cl1B O1B 1_555 1_555
O1B Cu1 1_555 1_555
O2B Cl1B 1_555 1_555
O3B Cl1B 1_555 1_555
O4B Cl1B 1_555 1_555
Cu2C N3C 1_555 1_555
Cu2C_2 N4 1_555 1_555
Cu2C_3 N6 1_555 1_555
Cu2C_4 N5C 1_555 1_555
N3C C14C 1_555 1_555
N4C Cu2 1_555 1_555
N4_2 Cu2C 1_555 1_555
N5C C27C 1_555 1_555
N5C_2 Cu2C 1_555 1_555
N6C Cu2 1_555 1_555
N6_2 Cu2C 1_555 1_555
C14C H15C 1_555 1_555
C15C C14C 1_555 1_555
H16C C15C 1_555 1_555
C16C C15C 1_555 1_555
C17C C16C 1_555 1_555
H17C C17C 1_555 1_555
C18C N3C 1_555 1_555
H18C C18C 1_555 1_555
C19C C16C 1_555 1_555
H19C C19C 1_555 1_555
H20C C19C 1_555 1_555
C20C C19C 1_555 1_555
H21C C20C 1_555 1_555
H22C C20C 1_555 1_555
C21C C20C 1_555 1_555
H23C C21C 1_555 1_555
H24C C21C 1_555 1_555
C22C C21C 1_555 1_555
C23C C22C 1_555 1_555
H25C C23C 1_555 1_555
C24C N4C 1_555 1_555
H26C C24C 1_555 1_555
C25C N4C 1_555 1_555
H27C C25C 1_555 1_555
C26C C22C 1_555 1_555
H28C C26C 1_555 1_555
C27C H29C 1_555 1_555
C28C C27C 1_555 1_555
H30C C28C 1_555 1_555
C29C C28C 1_555 1_555
C30C C29C 1_555 1_555
H31C C30C 1_555 1_555
C31C N5C 1_555 1_555
H32C C31C 1_555 1_555
C32C C29C 1_555 1_555
H33C C32C 1_555 1_555
H34C C32C 1_555 1_555
C33C C32C 1_555 1_555
H35C C33C 1_555 1_555
H36C C33C 1_555 1_555
C34C C33C 1_555 1_555
H37C C34C 1_555 1_555
H38C C34C 1_555 1_555
C35C C34C 1_555 1_555
C36C C35C 1_555 1_555
H39C C36C 1_555 1_555
C37C N6C 1_555 1_555
H40C C37C 1_555 1_555
C38C N6C 1_555 1_555
H41C C38C 1_555 1_555
C39C C35C 1_555 1_555
H42C C39C 1_555 1_555
Cl2C O5C 1_555 1_555
O5C Cu2C 1_555 1_555
O6C Cl2C 1_555 1_555
O7C Cl2C 1_555 1_555
O8C Cl2C 1_555 1_555
Cl3C O9C 1_555 1_555
O9C Cu2C 1_555 1_555
O10C Cl3C 1_555 1_555
O11C Cl3C 1_555 1_555
O12C Cl3C 1_555 1_555
C4 C5 1_555 1_555
C12 C13 1_555 1_555
C17 C18 1_555 1_555
C25 C26 1_555 1_555
C30 C31 1_555 1_555
C38 C39 1_555 1_555
C4B C5B 1_555 1_555
C10B C11B 1_555 1_555
C12B C13B 1_555 1_555
C17C C18C 1_555 1_555
C23C C24C 1_555 1_555
C25C C26C 1_555 1_555
C30C C31C 1_555 1_555
C36C C37C 1_555 1_555
C38C C39C 1_555 1_555

#END
