
#######################################################################
#
#                 Cambridge Crystallographic Data Centre
#                                CCDC 
#
#######################################################################
#
# If this CIF has been generated from an entry in the Cambridge 
# Structural Database, then it will include bibliographic, chemical, 
# crystal, experimental, refinement or atomic coordinate data resulting 
# from the CCDC's data processing and validation procedures.
#
#######################################################################

data_CUJBAK01
_symmetry_cell_setting           orthorhombic
_symmetry_space_group_name_H-M   'P 21 21 2'
_symmetry_Int_Tables_number      18
_space_group_name_Hall           'P 2 2ab'
loop_
_symmetry_equiv_pos_site_id
_symmetry_equiv_pos_as_xyz
1 x,y,z
2 -x,-y,z
3 1/2+x,1/2-y,-z
4 1/2-x,1/2+y,-z
_cell_length_a                   11.2499(10)
_cell_length_b                   7.9548(7)
_cell_length_c                   8.9966(7)
_cell_angle_alpha                90
_cell_angle_beta                 90
_cell_angle_gamma                90
_cell_volume                     805.112
loop_
_atom_site_label
_atom_site_type_symbol
_atom_site_fract_x
_atom_site_fract_y
_atom_site_fract_z
Zn1 Zn 0.21812(6) 0.14089(9) 0.29056(8)
O1 O 0.3669(7) 0.0621(8) 0.1804(12)
O2 O 0.1508(5) 0.2723(6) 0.1189(6)
O3 O 0.1194(5) -0.0502(6) 0.1637(5)
O4 O 0.2474(4) -0.0276(7) 0.4560(6)
O5 O 0.0595(4) 0.1632(7) 0.4258(5)
O6 O 0.0681(5) 0.2637(6) -0.1062(5)
O7 O 0.1725(5) -0.1630(7) 0.6517(6)
C1 C 0.0694(6) 0.0107(8) 0.0298(6)
C2 C 0.0977(6) 0.1969(8) 0.0142(7)
C3 C 0.0562(7) 0.0539(9) 0.5493(7)
C4 C 0.1685(6) -0.0546(8) 0.5502(7)
H1 H 0.072(7) 0.115(9) 0.619(8)
H2 H 0.103(6) -0.053(9) -0.070(8)
Zn1A Zn -0.21812(6) -0.14089(9) 0.29056(8)
Zn1B Zn -0.28188(6) 0.35911(9) 0.70944(8)
Zn1C Zn 0.28188(6) -0.35911(9) 0.70944(8)
O1A O -0.3669(7) -0.0621(8) 0.1804(12)
O2A O -0.1508(5) -0.2723(6) 0.1189(6)
O3A O -0.1194(5) 0.0502(6) 0.1637(5)
O4A O -0.2474(4) 0.0276(7) 0.4560(6)
O5A O -0.0595(4) -0.1632(7) 0.4258(5)
O6A O -0.0681(5) -0.2637(6) -0.1062(5)
O7A O -0.1725(5) 0.1630(7) 0.6517(6)
O7B O -0.3275(5) -0.3370(7) 0.3483(6)
O7C O 0.3275(5) 0.3370(7) 0.3483(6)
C1A C -0.0694(6) -0.0107(8) 0.0298(6)
C2A C -0.0977(6) -0.1969(8) 0.0142(7)
C3A C -0.0562(7) -0.0539(9) 0.5493(7)
C4A C -0.1685(6) 0.0546(8) 0.5502(7)
H1A H -0.072(7) -0.115(9) 0.619(8)
H2A H -0.103(6) 0.053(9) -0.070(8)
O8 O 0.1302(8) 0.6182(8) 0.2004(9)
O9 O 0.0000 0.5000 0.4980(9)
loop_
_geom_bond_atom_site_label_1
_geom_bond_atom_site_label_2
_geom_bond_site_symmetry_1
_geom_bond_site_symmetry_2
Zn1 O1 1_555 1_555
O2 Zn1 1_555 1_555
O3 Zn1 1_555 1_555
O4 Zn1 1_555 1_555
O5 Zn1 1_555 1_555
O6 C2 1_555 1_555
O7 C4 1_555 1_555
C1 O3 1_555 1_555
C2 O2 1_555 1_555
C3 O5 1_555 1_555
C4 O4 1_555 1_555
H1 C3 1_555 1_555
H2 C1 1_555 1_555
Zn1A O1A 1_555 1_555
Zn1B O7A 1_555 1_555
Zn1C O7 1_555 1_555
O2A Zn1A 1_555 1_555
O3A Zn1A 1_555 1_555
O4A Zn1A 1_555 1_555
O5A Zn1A 1_555 1_555
O6A C2A 1_555 1_555
O7A C4A 1_555 1_555
O7B Zn1A 1_555 1_555
O7C Zn1 1_555 1_555
C1A C1 1_555 1_555
C2A O2A 1_555 1_555
C3A C3 1_555 1_555
C4A O4A 1_555 1_555
H1A C3A 1_555 1_555
H2A C1A 1_555 1_555
C1 C2 1_555 1_555
C3 C4 1_555 1_555
O3A C1A 1_555 1_555
O5A C3A 1_555 1_555
C1A C2A 1_555 1_555
C3A C4A 1_555 1_555

#END
