
#######################################################################
#
#                 Cambridge Crystallographic Data Centre
#                                CCDC 
#
#######################################################################
#
# If this CIF has been generated from an entry in the Cambridge 
# Structural Database, then it will include bibliographic, chemical, 
# crystal, experimental, refinement or atomic coordinate data resulting 
# from the CCDC's data processing and validation procedures.
#
#######################################################################

data_CUJCIV
_symmetry_cell_setting           monoclinic
_symmetry_space_group_name_H-M   'P 21/c'
_symmetry_Int_Tables_number      14
_space_group_name_Hall           '-P 2ybc'
loop_
_symmetry_equiv_pos_site_id
_symmetry_equiv_pos_as_xyz
1 x,y,z
2 -x,1/2+y,1/2-z
3 -x,-y,-z
4 x,1/2-y,1/2+z
_cell_length_a                   16.7158(4)
_cell_length_b                   12.7707(3)
_cell_length_c                   6.80760(18)
_cell_angle_alpha                90
_cell_angle_beta                 93.669(2)
_cell_angle_gamma                90
_cell_volume                     1450.26
loop_
_atom_site_label
_atom_site_type_symbol
_atom_site_fract_x
_atom_site_fract_y
_atom_site_fract_z
Tb1 Tb 0.952086(14) 0.371371(18) 0.38542(3)
O1 O 0.8863(2) 0.3874(3) 0.0849(5)
O2 O 0.8473(2) 0.2449(3) -0.0853(5)
O3 O 0.1355(2) 0.5354(3) 0.4354(5)
O4 O 0.0864(2) 0.3836(3) 0.3113(5)
O5 O 0.9697(2) 0.5503(3) 0.3162(5)
O6 O 1.0084(2) 0.7123(2) 0.2830(5)
N1 N 0.5099(3) 0.4157(4) 0.1679(6)
N2 N 0.4580(3) 0.3438(4) 0.1397(6)
C1 C 0.8327(3) 0.3268(4) 0.0080(7)
C2 C 0.7467(3) 0.3537(4) 0.0339(7)
C3 C 0.6866(3) 0.2841(4) -0.0331(7)
H1 H 0.7001 0.2255 -0.1048
C4 C 0.6074(3) 0.3008(4) 0.0054(7)
H2 H 0.5679 0.2534 -0.0380
C5 C 0.5875(3) 0.3906(4) 0.1109(7)
C6 C 0.6469(3) 0.4633(4) 0.1689(7)
H3 H 0.6333 0.5246 0.2326
C7 C 0.7260(3) 0.4444(4) 0.1318(7)
H4 H 0.7655 0.4925 0.1725
C8 C 0.3807(3) 0.3721(4) 0.1997(8)
C9 C 0.3185(3) 0.3041(4) 0.1439(7)
H5 H 0.3287 0.2433 0.0746
C10 C 0.2407(3) 0.3272(4) 0.1921(7)
H6 H 0.1987 0.2821 0.1548
C11 C 0.2262(3) 0.4191(4) 0.2975(7)
C12 C 0.2891(3) 0.4853(4) 0.3544(7)
H7 H 0.2790 0.5458 0.4247
C13 C 0.3664(3) 0.4630(4) 0.3085(7)
H8 H 0.4084 0.5073 0.3490
C14 C 0.1432(3) 0.4477(4) 0.3501(7)
C15 C 0.9754(3) 0.6301(4) 0.2124(8)
H9 H 0.954(3) 0.637(4) 0.082(7)
Tb1_2 Tb -0.047914(14) 0.371371(18) 0.38542(3)
Tb1A Tb 1.047914(14) 0.871371(18) 0.11458(3)
Tb1B Tb 0.047914(14) 0.628629(18) 0.61458(3)
Tb1B_2 Tb 1.047914(14) 0.628629(18) 0.61458(3)
Tb1C Tb 0.952086(14) 0.128629(18) -0.11458(3)
O2C O 0.8473(2) 0.2551(3) 0.4147(5)
O3B O 0.8645(2) 0.4646(3) 0.5646(5)
O4_2 O 1.0864(2) 0.3836(3) 0.3113(5)
O5B O 1.0303(2) 0.4497(3) 0.6838(5)
O6A O 0.9916(2) 0.2123(2) 0.2170(5)
O6B O 0.9916(2) 0.2877(2) 0.7170(5)
loop_
_geom_bond_atom_site_label_1
_geom_bond_atom_site_label_2
_geom_bond_site_symmetry_1
_geom_bond_site_symmetry_2
Tb1 O1 1_555 1_555
O1 C1 1_555 1_555
O2 C1 1_555 1_555
O3 C14 1_555 1_555
O4 C14 1_555 1_555
O5 Tb1 1_555 1_555
O6 C15 1_555 1_555
N1 N2 1_555 1_555
N2 C8 1_555 1_555
C1 C2 1_555 1_555
C2 C3 1_555 1_555
C3 H1 1_555 1_555
C4 C3 1_555 1_555
H2 C4 1_555 1_555
C5 N1 1_555 1_555
C6 C5 1_555 1_555
H3 C6 1_555 1_555
C7 C2 1_555 1_555
H4 C7 1_555 1_555
C8 C9 1_555 1_555
C9 H5 1_555 1_555
C10 C9 1_555 1_555
H6 C10 1_555 1_555
C11 C10 1_555 1_555
C12 C11 1_555 1_555
H7 C12 1_555 1_555
C13 C8 1_555 1_555
H8 C13 1_555 1_555
C14 C11 1_555 1_555
C15 O5 1_555 1_555
H9 C15 1_555 1_555
Tb1_2 O4 1_555 1_555
Tb1A O6 1_555 1_555
Tb1B O3 1_555 1_555
Tb1B_2 O5 1_555 1_555
Tb1C O2 1_555 1_555
O2C Tb1 1_555 1_555
O3B Tb1 1_555 1_555
O4_2 Tb1 1_555 1_555
O5B Tb1 1_555 1_555
O6A Tb1 1_555 1_555
O6B Tb1 1_555 1_555
O6 Tb1B_2 1_555 1_555
C4 C5 1_555 1_555
C6 C7 1_555 1_555
C12 C13 1_555 1_555
Tb1B_2 O5B 1_555 1_555
Tb1C O6A 1_555 1_555

#END
