
#######################################################################
#
#                 Cambridge Crystallographic Data Centre
#                                CCDC 
#
#######################################################################
#
# If this CIF has been generated from an entry in the Cambridge 
# Structural Database, then it will include bibliographic, chemical, 
# crystal, experimental, refinement or atomic coordinate data resulting 
# from the CCDC's data processing and validation procedures.
#
#######################################################################

data_CUJWIP
_symmetry_cell_setting           monoclinic
_symmetry_space_group_name_H-M   'P 21'
_symmetry_Int_Tables_number      4
_space_group_name_Hall           'P 2yb'
loop_
_symmetry_equiv_pos_site_id
_symmetry_equiv_pos_as_xyz
1 x,y,z
2 -x,1/2+y,-z
_cell_length_a                   6.0848(2)
_cell_length_b                   25.2704(10)
_cell_length_c                   10.5635(4)
_cell_angle_alpha                90
_cell_angle_beta                 105.602(2)
_cell_angle_gamma                90
_cell_volume                     1564.45
loop_
_atom_site_label
_atom_site_type_symbol
_atom_site_fract_x
_atom_site_fract_y
_atom_site_fract_z
Dy1 Dy 1.09716(2) 0.253060(10) 0.113686(13)
O1 O 1.0388(3) 0.16015(8) 0.1001(2)
H1 H 1.0720 0.1480 0.1775
O2 O 1.1581(3) 0.21462(8) -0.0728(2)
O3 O 1.2332(4) 0.14590(9) -0.1862(2)
O4 O 0.6889(4) 0.01662(8) -0.0497(2)
H2 H 0.7040 -0.0119 -0.0210
O5 O 0.9988(4) -0.01269(9) 0.2003(2)
H3 H 0.8561 -0.0116 0.1850
O6 O 1.1935(4) 0.08765(9) 0.2746(2)
H4 H 1.1551 0.0675 0.3282
O7 O 0.3222(3) 0.22080(8) 0.32055(19)
H5 H 0.2970 0.2249 0.3920
O8 O 0.8574(3) 0.23939(7) 0.2533(2)
O9 O 0.4956(3) 0.25463(14) 0.14459(17)
O10 O 0.7081(4) 0.10658(9) 0.5907(2)
H6 H 0.6228 0.0886 0.6248
O11 O 0.6158(4) 0.18707(9) 0.7669(2)
H7 H 0.4781 0.1781 0.7502
O12 O 0.3206(3) 0.24713(11) 0.5542(2)
H8 H 0.2640 0.2571 0.6130
O13 O 1.1268(4) 0.33053(8) 0.2428(2)
H9 H 1.0760 0.3373 0.3080
O14 O 1.1489(4) 0.32956(8) 0.0067(2)
O15 O 1.2891(4) 0.41081(9) 0.0094(2)
O16 O 0.9561(4) 0.38339(9) 0.4027(2)
H10 H 0.8755 0.3894 0.4543
O17 O 1.6456(4) 0.42348(10) 0.5066(2)
H11 H 1.6740 0.4114 0.5834
O18 O 1.2405(4) 0.45902(9) 0.5683(2)
H12 H 1.1612 0.4858 0.5724
O19 O 0.7343(3) 0.25969(12) -0.03721(18)
H13 H 0.6250 0.2612 0.0038
H14 H 0.7020 0.2377 -0.0960
C1 C 1.1125(5) 0.12724(12) 0.0070(3)
C2 C 0.9223(5) 0.09033(11) -0.0629(3)
H15 H 0.9695 0.0712 -0.1332
H16 H 0.7851 0.1115 -0.1049
C3 C 0.8622(5) 0.05025(12) 0.0301(3)
H17 H 0.7960 0.0696 0.0937
C4 C 1.0686(5) 0.01927(12) 0.1069(3)
H18 H 1.1242 -0.0040 0.0454
C5 C 1.2604(5) 0.05658(13) 0.1775(3)
H19 H 1.3981 0.0352 0.2213
C6 C 1.3225(5) 0.09530(12) 0.0808(3)
H20 H 1.3833 0.0754 0.0169
H21 H 1.4430 0.1198 0.1294
C7 C 1.1736(4) 0.16525(12) -0.0926(3)
C8 C 0.5694(4) 0.22381(11) 0.3662(3)
C9 C 0.6682(5) 0.17013(11) 0.4200(3)
H22 H 0.6125 0.1426 0.3523
H23 H 0.8366 0.1714 0.4399
C10 C 0.5995(5) 0.15559(11) 0.5443(3)
H24 H 0.4302 0.1510 0.5223
C11 C 0.6716(5) 0.19934(12) 0.6468(3)
H25 H 0.8411 0.2032 0.6672
C12 C 0.5644(4) 0.25194(19) 0.5922(2)
H26 H 0.6118 0.2802 0.6604
C13 C 0.6399(5) 0.26693(10) 0.4698(3)
H27 H 0.5687 0.3009 0.4340
H28 H 0.8076 0.2715 0.4936
C14 C 0.6478(5) 0.24006(10) 0.2451(3)
C15 C 1.1951(5) 0.38134(11) 0.2030(3)
C16 C 1.4283(5) 0.39732(12) 0.2932(3)
H29 H 1.5396 0.3687 0.2933
H30 H 1.4822 0.4296 0.2577
C17 C 1.4206(5) 0.40784(12) 0.4343(3)
H31 H 1.3772 0.3746 0.4730
C18 C 1.2462(5) 0.45083(12) 0.4358(3)
H32 H 1.2913 0.4844 0.3993
C19 C 1.0130(5) 0.43264(12) 0.3510(3)
H33 H 0.8950 0.4599 0.3536
C20 C 1.0172(5) 0.42314(12) 0.2086(3)
H34 H 0.8648 0.4112 0.1563
H35 H 1.0538 0.4566 0.1701
C21 C 1.2131(5) 0.37366(12) 0.0608(3)
Dy1_2 Dy 0.09716(2) 0.253060(10) 0.113686(13)
O7_2 O 1.3222(3) 0.22080(8) 0.32055(19)
O9_2 O 1.4956(3) 0.25463(14) 0.14459(17)
O20 O 1.0258(4) 0.05199(9) 0.4858(2)
H36 H 0.9326 0.0712 0.5126
H37 H 1.1485 0.0488 0.5470
O21 O 1.4003(4) 0.05720(9) 0.7187(2)
H38 H 1.3277 0.0824 0.7420
H39 H 1.4890 0.0441 0.7870
O22 O 1.1251(4) 0.28954(10) 0.7211(2)
H40 H 1.1910 0.3190 0.7453
H41 H 1.1491 0.2745 0.7860
O23 O 0.7799(4) 0.38979(11) -0.2262(3)
H42 H 0.8736 0.3648 -0.1973
H43 H 0.6539 0.3831 -0.2091
O24 O 1.3372(4) 0.38604(10) -0.2298(2)
H44 H 1.2750 0.4077 -0.2901
H45 H 1.3286 0.3979 -0.1560
loop_
_geom_bond_atom_site_label_1
_geom_bond_atom_site_label_2
_geom_bond_site_symmetry_1
_geom_bond_site_symmetry_2
Dy1 O1 1_555 1_555
O1 H1 1_555 1_555
O2 Dy1 1_555 1_555
O3 C7 1_555 1_555
O4 H2 1_555 1_555
O5 H3 1_555 1_555
O6 H4 1_555 1_555
O7 H5 1_555 1_555
O8 Dy1 1_555 1_555
O9 C14 1_555 1_555
O10 H6 1_555 1_555
O11 H7 1_555 1_555
O12 H8 1_555 1_555
O13 Dy1 1_555 1_555
H9 O13 1_555 1_555
O14 Dy1 1_555 1_555
O15 C21 1_555 1_555
O16 H10 1_555 1_555
O17 H11 1_555 1_555
O18 H12 1_555 1_555
O19 Dy1 1_555 1_555
H13 O19 1_555 1_555
H14 O19 1_555 1_555
C1 O1 1_555 1_555
C2 C1 1_555 1_555
H15 C2 1_555 1_555
H16 C2 1_555 1_555
C3 O4 1_555 1_555
H17 C3 1_555 1_555
C4 O5 1_555 1_555
H18 C4 1_555 1_555
C5 O6 1_555 1_555
H19 C5 1_555 1_555
C6 C1 1_555 1_555
H20 C6 1_555 1_555
H21 C6 1_555 1_555
C7 O2 1_555 1_555
C8 O7 1_555 1_555
C9 C8 1_555 1_555
H22 C9 1_555 1_555
H23 C9 1_555 1_555
C10 O10 1_555 1_555
H24 C10 1_555 1_555
C11 O11 1_555 1_555
H25 C11 1_555 1_555
C12 O12 1_555 1_555
H26 C12 1_555 1_555
C13 C8 1_555 1_555
H27 C13 1_555 1_555
H28 C13 1_555 1_555
C14 O8 1_555 1_555
C15 O13 1_555 1_555
C16 C15 1_555 1_555
H29 C16 1_555 1_555
H30 C16 1_555 1_555
C17 O17 1_555 1_555
H31 C17 1_555 1_555
C18 O18 1_555 1_555
H32 C18 1_555 1_555
C19 O16 1_555 1_555
H33 C19 1_555 1_555
C20 C15 1_555 1_555
H34 C20 1_555 1_555
H35 C20 1_555 1_555
C21 O14 1_555 1_555
O20 H36 1_555 1_555
H37 O20 1_555 1_555
O21 H38 1_555 1_555
H39 O21 1_555 1_555
O22 H40 1_555 1_555
H41 O22 1_555 1_555
O23 H42 1_555 1_555
H43 O23 1_555 1_555
O24 H44 1_555 1_555
H45 O24 1_555 1_555
Dy1_2 O7 1_555 1_555
O7_2 Dy1 1_555 1_555
O9_2 Dy1 1_555 1_555
O9 Dy1_2 1_555 1_555
C1 C7 1_555 1_555
C2 C3 1_555 1_555
C3 C4 1_555 1_555
C4 C5 1_555 1_555
C5 C6 1_555 1_555
C8 C14 1_555 1_555
C9 C10 1_555 1_555
C10 C11 1_555 1_555
C11 C12 1_555 1_555
C12 C13 1_555 1_555
C15 C21 1_555 1_555
C16 C17 1_555 1_555
C17 C18 1_555 1_555
C18 C19 1_555 1_555
C19 C20 1_555 1_555

#END
