
#######################################################################
#
#                 Cambridge Crystallographic Data Centre
#                                CCDC 
#
#######################################################################
#
# If this CIF has been generated from an entry in the Cambridge 
# Structural Database, then it will include bibliographic, chemical, 
# crystal, experimental, refinement or atomic coordinate data resulting 
# from the CCDC's data processing and validation procedures.
#
#######################################################################

data_CUJYOW
_symmetry_cell_setting           monoclinic
_symmetry_space_group_name_H-M   'P 21/n'
_symmetry_Int_Tables_number      14
_space_group_name_Hall           '-P 2yn'
loop_
_symmetry_equiv_pos_site_id
_symmetry_equiv_pos_as_xyz
1 x,y,z
2 1/2-x,1/2+y,1/2-z
3 -x,-y,-z
4 1/2+x,1/2-y,1/2+z
_cell_length_a                   10.412(3)
_cell_length_b                   14.466(3)
_cell_length_c                   15.411(4)
_cell_angle_alpha                90
_cell_angle_beta                 98.956(2)
_cell_angle_gamma                90
_cell_volume                     2292.9
loop_
_atom_site_label
_atom_site_type_symbol
_atom_site_fract_x
_atom_site_fract_y
_atom_site_fract_z
C1 C 0.5543(3) -0.0914(2) 0.17001(19)
H1 H 0.5275 -0.0913 0.1096
C2 C 0.5807(3) -0.1754(2) 0.2120(2)
H2 H 0.5746 -0.2301 0.1799
C3 C 0.6160(3) -0.1768(2) 0.30183(19)
H3 H 0.6341 -0.2324 0.3314
C4 C 0.6243(3) -0.09378(19) 0.34742(18)
C5 C 0.5995(3) -0.01158(19) 0.30052(17)
C6 C 0.6111(3) 0.07791(18) 0.34585(17)
C7 C 0.5996(3) 0.2361(2) 0.3366(2)
H4 H 0.5866 0.2892 0.3023
C8 C 0.6249(3) 0.2460(2) 0.4271(2)
H5 H 0.6278 0.3042 0.4529
C9 C 0.6456(3) 0.1677(2) 0.4778(2)
H6 H 0.6639 0.1724 0.5386
C10 C 0.6391(3) 0.08140(19) 0.43788(17)
C11 C 0.6623(3) -0.00469(19) 0.48861(18)
C12 C 0.6564(3) -0.0910(2) 0.44350(17)
C13 C 0.7060(3) -0.1648(2) 0.57419(18)
C14 C 0.7088(3) -0.0804(2) 0.61944(18)
C15 C 0.7283(3) -0.2476(2) 0.6229(2)
H7 H 0.7304 -0.3047 0.5955
C16 C 0.7464(3) -0.2396(2) 0.7117(2)
C17 C 0.7497(3) -0.1526(2) 0.7525(2)
H8 H 0.7662 -0.1503 0.8136
C18 C 0.5063(3) 0.30463(19) 0.0431(2)
C19 C 0.5034(3) 0.40616(19) 0.02139(19)
C20 C 0.5307(3) 0.4720(2) 0.0864(2)
H9 H 0.5520 0.4535 0.1447
C21 C 0.4734(3) 0.43520(19) -0.06603(19)
H10 H 0.4560 0.3916 -0.1107
C22 C 0.7777(3) 0.06908(19) 0.0710(2)
C23 C 0.8925(3) 0.03323(19) 0.0338(2)
C24 C 1.0084(3) 0.0180(2) 0.0887(2)
H11 H 1.0144 0.0302 0.1485
C25 C 0.8841(3) 0.0151(2) -0.0557(2)
H12 H 0.8065 0.0253 -0.0932
O1 O 0.6651(2) 0.05704(14) 0.02736(13)
O2 O 0.7944(2) 0.10851(14) 0.14412(14)
O3 O 0.3712(2) 0.10827(19) 0.06143(16)
O4 O 0.4659(3) 0.24990(14) -0.01656(15)
O5 O 0.5492(2) 0.28189(13) 0.12142(13)
Cd1 Cd 0.57239(2) 0.132432(13) 0.143702(13)
N1 N 0.5655(2) -0.01110(16) 0.21226(15)
N2 N 0.5930(2) 0.15480(15) 0.29635(15)
N3 N 0.6787(3) -0.17015(16) 0.48594(15)
N4 N 0.6858(2) 0.00045(16) 0.57564(15)
N5 N 0.7309(3) -0.07434(19) 0.70926(16)
Cl1 Cl 0.76305(11) -0.33725(6) 0.77790(6)
H13 H 0.387(3) 0.149(2) 0.026(2)
H14 H 0.359(3) 0.059(2) 0.036(2)
C1B C 1.4457(3) 0.0914(2) -0.17001(19)
H1B H 1.4725 0.0913 -0.1096
C2B C 1.4193(3) 0.1754(2) -0.2120(2)
H2B H 1.4254 0.2301 -0.1799
C3B C 1.3840(3) 0.1768(2) -0.30183(19)
H3B H 1.3659 0.2324 -0.3314
C4B C 1.3757(3) 0.09378(19) -0.34742(18)
C5B C 1.4005(3) 0.01158(19) -0.30052(17)
C6B C 1.3889(3) -0.07791(18) -0.34585(17)
C7B C 1.4004(3) -0.2361(2) -0.3366(2)
H4B H 1.4134 -0.2892 -0.3023
C8B C 1.3751(3) -0.2460(2) -0.4271(2)
H5B H 1.3722 -0.3042 -0.4529
C9B C 1.3544(3) -0.1677(2) -0.4778(2)
H6B H 1.3361 -0.1724 -0.5386
C10B C 1.3609(3) -0.08140(19) -0.43788(17)
C11B C 1.3377(3) 0.00469(19) -0.48861(18)
C12B C 1.3436(3) 0.0910(2) -0.44350(17)
C13B C 1.2940(3) 0.1648(2) -0.57419(18)
C14B C 1.2912(3) 0.0804(2) -0.61944(18)
C15B C 1.2717(3) 0.2476(2) -0.6229(2)
H7B H 1.2696 0.3047 -0.5955
C16B C 1.2536(3) 0.2396(2) -0.7117(2)
C17B C 1.2503(3) 0.1526(2) -0.7525(2)
H8B H 1.2338 0.1503 -0.8136
C18B C 0.4937(3) 0.69537(19) -0.0431(2)
C19B C 0.4966(3) 0.59384(19) -0.02139(19)
C20B C 0.4693(3) 0.5280(2) -0.0864(2)
H9B H 0.4480 0.5465 -0.1447
C21B C 0.5266(3) 0.56480(19) 0.06603(19)
H10B H 0.5440 0.6084 0.1107
C22B C 1.2223(3) -0.06908(19) -0.0710(2)
C23B C 1.1075(3) -0.03323(19) -0.0338(2)
C24B C 0.9916(3) -0.0180(2) -0.0887(2)
H11B H 0.9856 -0.0302 -0.1485
C25B C 1.1159(3) -0.0151(2) 0.0557(2)
H12B H 1.1935 -0.0253 0.0932
O1B O 1.3349(2) -0.05704(14) -0.02736(13)
O2B O 1.2056(2) -0.10851(14) -0.14412(14)
O3B O 1.6288(2) -0.10827(19) -0.06143(16)
O4B O 0.5341(3) 0.75010(14) 0.01656(15)
O5B O 0.4508(2) 0.71811(13) -0.12142(13)
O5B_2 O 1.4508(2) -0.28189(13) -0.12142(13)
Cd1B Cd 1.42761(2) -0.132432(13) -0.143702(13)
Cd1B_2 Cd 0.42761(2) 0.867568(13) -0.143702(13)
N1B N 1.4345(2) 0.01110(16) -0.21226(15)
N2B N 1.4070(2) -0.15480(15) -0.29635(15)
N3B N 1.3213(3) 0.17015(16) -0.48594(15)
N4B N 1.3142(2) -0.00045(16) -0.57564(15)
N5B N 1.2691(3) 0.07434(19) -0.70926(16)
Cl1B Cl 1.23695(11) 0.33725(6) -0.77790(6)
H13B H 1.613(3) -0.149(2) -0.026(2)
H14B H 1.641(3) -0.059(2) -0.036(2)
loop_
_geom_bond_atom_site_label_1
_geom_bond_atom_site_label_2
_geom_bond_site_symmetry_1
_geom_bond_site_symmetry_2
C1 H1 1_555 1_555
C2 C1 1_555 1_555
H2 C2 1_555 1_555
C3 C2 1_555 1_555
H3 C3 1_555 1_555
C4 C3 1_555 1_555
C5 C4 1_555 1_555
C6 C5 1_555 1_555
C7 H4 1_555 1_555
C8 C7 1_555 1_555
H5 C8 1_555 1_555
C9 C8 1_555 1_555
H6 C9 1_555 1_555
C10 C6 1_555 1_555
C11 C10 1_555 1_555
C12 C4 1_555 1_555
C13 C14 1_555 1_555
C14 N4 1_555 1_555
C15 C13 1_555 1_555
H7 C15 1_555 1_555
C16 C15 1_555 1_555
C17 C16 1_555 1_555
H8 C17 1_555 1_555
C18 C19 1_555 1_555
C19 C20 1_555 1_555
C20 H9 1_555 1_555
C21 C19 1_555 1_555
H10 C21 1_555 1_555
C22 C23 1_555 1_555
C23 C24 1_555 1_555
C24 H11 1_555 1_555
C25 C23 1_555 1_555
H12 C25 1_555 1_555
O1 C22 1_555 1_555
O2 C22 1_555 1_555
O3 Cd1 1_555 1_555
O4 C18 1_555 1_555
O5 C18 1_555 1_555
Cd1 O1 1_555 1_555
N1 C1 1_555 1_555
N2 C6 1_555 1_555
N3 C12 1_555 1_555
N4 C11 1_555 1_555
N5 C14 1_555 1_555
Cl1 C16 1_555 1_555
H13 O3 1_555 1_555
H14 O3 1_555 1_555
C1B H1B 1_555 1_555
C2B C1B 1_555 1_555
H2B C2B 1_555 1_555
C3B C2B 1_555 1_555
H3B C3B 1_555 1_555
C4B C3B 1_555 1_555
C5B C4B 1_555 1_555
C6B C5B 1_555 1_555
C7B H4B 1_555 1_555
C8B C7B 1_555 1_555
H5B C8B 1_555 1_555
C9B C8B 1_555 1_555
H6B C9B 1_555 1_555
C10B C6B 1_555 1_555
C11B C10B 1_555 1_555
C12B C4B 1_555 1_555
C13B C14B 1_555 1_555
C14B N4B 1_555 1_555
C15B C13B 1_555 1_555
H7B C15B 1_555 1_555
C16B C15B 1_555 1_555
C17B C16B 1_555 1_555
H8B C17B 1_555 1_555
C18B C19B 1_555 1_555
C19B C20B 1_555 1_555
C20B C21 1_555 1_555
H9B C20B 1_555 1_555
C21B C20 1_555 1_555
H10B C21B 1_555 1_555
C22B C23B 1_555 1_555
C23B C24B 1_555 1_555
C24B C25 1_555 1_555
H11B C24B 1_555 1_555
C25B C24 1_555 1_555
H12B C25B 1_555 1_555
O1B C22B 1_555 1_555
O2B C22B 1_555 1_555
O3B Cd1B 1_555 1_555
O4B C18B 1_555 1_555
O5B C18B 1_555 1_555
O5B_2 Cd1B 1_555 1_555
Cd1B O1B 1_555 1_555
Cd1B_2 O5B 1_555 1_555
N1B C1B 1_555 1_555
N2B C6B 1_555 1_555
N3B C12B 1_555 1_555
N4B C11B 1_555 1_555
N5B C14B 1_555 1_555
Cl1B C16B 1_555 1_555
H13B O3B 1_555 1_555
H14B O3B 1_555 1_555
C5 N1 1_555 1_555
C7 N2 1_555 1_555
C9 C10 1_555 1_555
C11 C12 1_555 1_555
C13 N3 1_555 1_555
C17 N5 1_555 1_555
O2 Cd1 1_555 1_555
O5 Cd1 1_555 1_555
Cd1 N1 1_555 1_555
Cd1 N2 1_555 1_555
C5B N1B 1_555 1_555
C7B N2B 1_555 1_555
C9B C10B 1_555 1_555
C11B C12B 1_555 1_555
C13B N3B 1_555 1_555
C17B N5B 1_555 1_555
C19B C21B 1_555 1_555
C23B C25B 1_555 1_555
O2B Cd1B 1_555 1_555
Cd1B N1B 1_555 1_555
Cd1B N2B 1_555 1_555

#END
