
#######################################################################
#
#                 Cambridge Crystallographic Data Centre
#                                CCDC 
#
#######################################################################
#
# If this CIF has been generated from an entry in the Cambridge 
# Structural Database, then it will include bibliographic, chemical, 
# crystal, experimental, refinement or atomic coordinate data resulting 
# from the CCDC's data processing and validation procedures.
#
#######################################################################

data_CUJZAK
_symmetry_cell_setting           triclinic
_symmetry_space_group_name_H-M   'P -1'
_symmetry_Int_Tables_number      2
_space_group_name_Hall           '-P 1'
loop_
_symmetry_equiv_pos_site_id
_symmetry_equiv_pos_as_xyz
1 x,y,z
2 -x,-y,-z
_cell_length_a                   11.8603(3)
_cell_length_b                   12.3807(4)
_cell_length_c                   12.7001(3)
_cell_angle_alpha                109.100(2)
_cell_angle_beta                 98.450(2)
_cell_angle_gamma                114.207(3)
_cell_volume                     1519.35
loop_
_atom_site_label
_atom_site_type_symbol
_atom_site_fract_x
_atom_site_fract_y
_atom_site_fract_z
O1 O 0.3108(2) 0.2897(2) 0.0340(2)
O2 O 0.2625(2) 0.1845(2) 0.14663(19)
C1 C 0.3814(3) 0.1317(3) 0.0233(3)
C2 C 0.4056(3) 0.0634(3) 0.0806(3)
H1 H 0.3733 0.0594 0.1424
C3 C 0.4780(3) -0.0013(3) 0.0489(3)
C4 C 0.5096(3) -0.0678(3) 0.1110(3)
H2 H 0.4844 -0.0670 0.1771
C5 C 0.4239(3) 0.1327(3) -0.0751(3)
H3 H 0.4064 0.1777 -0.1153
C6 C 0.3126(3) 0.2059(3) 0.0688(3)
O3 O 0.0021(2) 0.1459(2) -0.00723(19)
H4 H -0.042(3) 0.107(3) 0.026(3)
H5 H 0.030(3) 0.104(3) -0.050(3)
O4 O 0.0469(2) 0.2310(2) 0.26794(19)
O5 O -0.0811(2) 0.0251(2) 0.1316(2)
C7 C -0.0212(3) 0.1088(3) 0.2362(3)
C8 C -0.0354(7) 0.0430(6) 0.3208(6)
C9 C -0.1040(6) -0.0943(5) 0.2794(5)
H6 H -0.1515 -0.1478 0.1999
C10 C -0.0999(5) -0.1490(5) 0.3581(4)
H7 H -0.1441 -0.2398 0.3303
C11 C -0.0308(9) -0.0711(8) 0.4787(5)
C12 C -0.0254(6) -0.1222(7) 0.5625(6)
H8 H -0.0647 -0.2126 0.5370
N1 N 0.1100(3) 0.4587(2) 0.1506(2)
N2 N 0.1149(3) 0.6430(2) 0.1577(2)
N3 N 0.6651(3) 1.5151(2) 0.6530(2)
N4 N 0.4842(3) 1.3427(2) 0.5120(2)
C13 C 0.1848(3) 0.5790(3) 0.1610(3)
C14 C -0.0137(3) 0.4447(3) 0.1422(3)
C15 C -0.1284(3) 0.3398(3) 0.1335(3)
H9 H -0.1310 0.2630 0.1312
C16 C -0.2376(3) 0.3557(3) 0.1283(3)
H10 H -0.3146 0.2886 0.1246
C17 C -0.2357(3) 0.4696(3) 0.1286(3)
H11 H -0.3119 0.4754 0.1229
C18 C -0.1238(3) 0.5729(3) 0.1369(3)
H12 H -0.1224 0.6485 0.1368
C19 C -0.0127(3) 0.5590(3) 0.1457(3)
C20 C 0.3261(3) 0.6397(3) 0.1757(3)
H13 H 0.3750 0.7070 0.2546
H14 H 0.3424 0.6775 0.1207
H15 H 0.3526 0.5741 0.1612
C21 C 0.1644(4) 0.7771(3) 0.1708(3)
H16 H 0.0938 0.7831 0.1286
H17 H 0.2318 0.7964 0.1339
C22 C 0.2205(3) 0.8802(3) 0.2966(3)
C23 C 0.2486(3) 0.8574(3) 0.3945(3)
H18 H 0.2293 0.7732 0.3846
C24 C 0.3051(4) 0.9588(3) 0.5069(3)
H19 H 0.3216 0.9416 0.5718
C25 C 0.3370(3) 1.0846(3) 0.5234(3)
H20 H 0.3764 1.1522 0.5992
C26 C 0.3105(3) 1.1108(3) 0.4272(3)
C27 C 0.2505(3) 1.0080(3) 0.3145(3)
H21 H 0.2300 1.0246 0.2500
C28 C 0.3462(3) 1.2489(3) 0.4424(3)
H22 H 0.3288 1.2490 0.3654
H23 H 0.2916 1.2762 0.4813
C29 C 0.5353(3) 1.4508(3) 0.6171(3)
C30 C 0.5889(3) 1.3364(3) 0.4785(3)
C31 C 0.5933(3) 1.2479(3) 0.3805(3)
H24 H 0.5173 1.1763 0.3223
C32 C 0.7148(4) 1.2707(3) 0.3732(3)
H25 H 0.7214 1.2136 0.3086
C33 C 0.8288(4) 1.3784(3) 0.4613(3)
H26 H 0.9097 1.3909 0.4543
C34 C 0.8239(3) 1.4666(3) 0.5585(3)
H27 H 0.9001 1.5382 0.6164
C35 C 0.7017(3) 1.4450(3) 0.5673(3)
C36 C 0.4536(3) 1.4880(3) 0.6829(3)
H28 H 0.5076 1.5734 0.7474
H29 H 0.4131 1.4251 0.7128
H30 H 0.3872 1.4896 0.6311
Cd1 Cd 0.17308(2) 0.31597(2) 0.16814(2)
O1A O 0.6892(2) -0.2897(2) -0.0340(2)
O2A O 0.7375(2) -0.1845(2) -0.14663(19)
C1A C 0.6186(3) -0.1317(3) -0.0233(3)
C2A C 0.5944(3) -0.0634(3) -0.0806(3)
H1A H 0.6267 -0.0594 -0.1424
C3A C 0.5220(3) 0.0013(3) -0.0489(3)
C4A C 0.4904(3) 0.0678(3) -0.1110(3)
H2A H 0.5156 0.0670 -0.1771
C5A C 0.5761(3) -0.1327(3) 0.0751(3)
H3A H 0.5936 -0.1777 0.1153
C6A C 0.6874(3) -0.2059(3) -0.0688(3)
O4A O -0.0469(2) -0.2310(2) 0.73206(19)
O5A O 0.0811(2) -0.0251(2) 0.8684(2)
C7A C 0.0212(3) -0.1088(3) 0.7638(3)
C8A C 0.0354(7) -0.0430(6) 0.6792(6)
C9A C 0.1040(6) 0.0943(5) 0.7206(5)
H6A H 0.1515 0.1478 0.8001
C10A C 0.0999(5) 0.1490(5) 0.6419(4)
H7A H 0.1441 0.2398 0.6697
C11A C 0.0308(9) 0.0711(8) 0.5213(5)
C12A C 0.0254(6) 0.1222(7) 0.4375(6)
H8A H 0.0647 0.2126 0.4630
O3A O -0.0021(2) -0.1459(2) 1.00723(19)
H4A H 0.042(3) -0.107(3) 0.974(3)
H5A H -0.030(3) -0.104(3) 1.050(3)
N1A N -0.1100(3) -0.4587(2) 0.8494(2)
N2A N -0.1149(3) -0.6430(2) 0.8423(2)
N3A N -0.6651(3) -1.5151(2) 0.3470(2)
N4A N -0.4842(3) -1.3427(2) 0.4880(2)
C13A C -0.1848(3) -0.5790(3) 0.8390(3)
C14A C 0.0137(3) -0.4447(3) 0.8578(3)
C15A C 0.1284(3) -0.3398(3) 0.8665(3)
H9A H 0.1310 -0.2630 0.8688
C16A C 0.2376(3) -0.3557(3) 0.8717(3)
H10A H 0.3146 -0.2886 0.8754
C17A C 0.2357(3) -0.4696(3) 0.8714(3)
H11A H 0.3119 -0.4754 0.8771
C18A C 0.1238(3) -0.5729(3) 0.8631(3)
H12A H 0.1224 -0.6485 0.8632
C19A C 0.0127(3) -0.5590(3) 0.8543(3)
C20A C -0.3261(3) -0.6397(3) 0.8243(3)
H13A H -0.3750 -0.7070 0.7454
H14A H -0.3424 -0.6775 0.8793
H15A H -0.3526 -0.5741 0.8388
C21A C -0.1644(4) -0.7771(3) 0.8292(3)
H16A H -0.0938 -0.7831 0.8714
H17A H -0.2318 -0.7964 0.8661
C22A C -0.2205(3) -0.8802(3) 0.7034(3)
C23A C -0.2486(3) -0.8574(3) 0.6055(3)
H18A H -0.2293 -0.7732 0.6154
C24A C -0.3051(4) -0.9588(3) 0.4931(3)
H19A H -0.3216 -0.9416 0.4282
C25A C -0.3370(3) -1.0846(3) 0.4766(3)
H20A H -0.3764 -1.1522 0.4008
C26A C -0.3105(3) -1.1108(3) 0.5728(3)
C27A C -0.2505(3) -1.0080(3) 0.6855(3)
H21A H -0.2300 -1.0246 0.7500
C28A C -0.3462(3) -1.2489(3) 0.5576(3)
H22A H -0.3288 -1.2490 0.6346
H23A H -0.2916 -1.2762 0.5187
C29A C -0.5353(3) -1.4508(3) 0.3829(3)
C30A C -0.5889(3) -1.3364(3) 0.5215(3)
C31A C -0.5933(3) -1.2479(3) 0.6195(3)
H24A H -0.5173 -1.1763 0.6777
C32A C -0.7148(4) -1.2707(3) 0.6268(3)
H25A H -0.7214 -1.2136 0.6914
C33A C -0.8288(4) -1.3784(3) 0.5387(3)
H26A H -0.9097 -1.3909 0.5457
C34A C -0.8239(3) -1.4666(3) 0.4415(3)
H27A H -0.9001 -1.5382 0.3836
C35A C -0.7017(3) -1.4450(3) 0.4327(3)
C36A C -0.4536(3) -1.4880(3) 0.3171(3)
H28A H -0.5076 -1.5734 0.2526
H29A H -0.4131 -1.4251 0.2872
H30A H -0.3872 -1.4896 0.3689
Cd1A Cd -0.17308(2) -0.31597(2) 0.83186(2)
O1A_2 O -0.3108(2) -0.2897(2) 0.9660(2)
O2A_2 O -0.2625(2) -0.1845(2) 0.85337(19)
N3_2 N -0.3349(3) -0.4849(2) 0.6530(2)
N3A_2 N 0.3349(3) 0.4849(2) 0.3470(2)
Cd1_2 Cd -0.82692(2) -1.68403(2) 0.16814(2)
Cd1A_2 Cd 0.82692(2) -0.31597(2) -0.16814(2)
Cd1A_3 Cd 0.82692(2) 1.68403(2) 0.83186(2)
loop_
_geom_bond_atom_site_label_1
_geom_bond_atom_site_label_2
_geom_bond_site_symmetry_1
_geom_bond_site_symmetry_2
O1 C6 1_555 1_555
O2 C6 1_555 1_555
C1 C2 1_555 1_555
C2 H1 1_555 1_555
C3 C2 1_555 1_555
C4 C3 1_555 1_555
H2 C4 1_555 1_555
C5 C1 1_555 1_555
H3 C5 1_555 1_555
C6 C1 1_555 1_555
O3 H4 1_555 1_555
H5 O3 1_555 1_555
O4 C7 1_555 1_555
O5 C7 1_555 1_555
C7 C8 1_555 1_555
C8 C9 1_555 1_555
C9 H6 1_555 1_555
C10 C9 1_555 1_555
H7 C10 1_555 1_555
C11 C10 1_555 1_555
C12 C11 1_555 1_555
H8 C12 1_555 1_555
N1 C13 1_555 1_555
N2 C13 1_555 1_555
N3 C29 1_555 1_555
N4 C28 1_555 1_555
C13 C20 1_555 1_555
C14 N1 1_555 1_555
C15 C14 1_555 1_555
H9 C15 1_555 1_555
C16 C15 1_555 1_555
H10 C16 1_555 1_555
C17 C16 1_555 1_555
H11 C17 1_555 1_555
C18 C17 1_555 1_555
H12 C18 1_555 1_555
C19 N2 1_555 1_555
C20 H13 1_555 1_555
H14 C20 1_555 1_555
H15 C20 1_555 1_555
C21 N2 1_555 1_555
H16 C21 1_555 1_555
H17 C21 1_555 1_555
C22 C21 1_555 1_555
C23 C22 1_555 1_555
H18 C23 1_555 1_555
C24 C23 1_555 1_555
H19 C24 1_555 1_555
C25 C24 1_555 1_555
H20 C25 1_555 1_555
C26 C25 1_555 1_555
C27 C22 1_555 1_555
H21 C27 1_555 1_555
C28 C26 1_555 1_555
H22 C28 1_555 1_555
H23 C28 1_555 1_555
C29 N4 1_555 1_555
C30 N4 1_555 1_555
C31 C30 1_555 1_555
H24 C31 1_555 1_555
C32 C31 1_555 1_555
H25 C32 1_555 1_555
C33 C32 1_555 1_555
H26 C33 1_555 1_555
C34 C33 1_555 1_555
H27 C34 1_555 1_555
C35 N3 1_555 1_555
C36 C29 1_555 1_555
H28 C36 1_555 1_555
H29 C36 1_555 1_555
H30 C36 1_555 1_555
Cd1 O1 1_555 1_555
O1A C6A 1_555 1_555
O2A C6A 1_555 1_555
C1A C2A 1_555 1_555
C2A H1A 1_555 1_555
C3A C3 1_555 1_555
C4A C5 1_555 1_555
H2A C4A 1_555 1_555
C5A C4 1_555 1_555
H3A C5A 1_555 1_555
C6A C1A 1_555 1_555
O4A C7A 1_555 1_555
O5A C7A 1_555 1_555
C7A C8A 1_555 1_555
C8A C12 1_555 1_555
C9A C8A 1_555 1_555
H6A C9A 1_555 1_555
C10A C9A 1_555 1_555
H7A C10A 1_555 1_555
C11A C11 1_555 1_555
C12A C8 1_555 1_555
H8A C12A 1_555 1_555
O3A H4A 1_555 1_555
H5A O3A 1_555 1_555
N1A C13A 1_555 1_555
N2A C13A 1_555 1_555
N3A C29A 1_555 1_555
N4A C28A 1_555 1_555
C13A C20A 1_555 1_555
C14A N1A 1_555 1_555
C15A C14A 1_555 1_555
H9A C15A 1_555 1_555
C16A C15A 1_555 1_555
H10A C16A 1_555 1_555
C17A C16A 1_555 1_555
H11A C17A 1_555 1_555
C18A C17A 1_555 1_555
H12A C18A 1_555 1_555
C19A N2A 1_555 1_555
C20A H13A 1_555 1_555
H14A C20A 1_555 1_555
H15A C20A 1_555 1_555
C21A N2A 1_555 1_555
H16A C21A 1_555 1_555
H17A C21A 1_555 1_555
C22A C21A 1_555 1_555
C23A C22A 1_555 1_555
H18A C23A 1_555 1_555
C24A C23A 1_555 1_555
H19A C24A 1_555 1_555
C25A C24A 1_555 1_555
H20A C25A 1_555 1_555
C26A C25A 1_555 1_555
C27A C22A 1_555 1_555
H21A C27A 1_555 1_555
C28A C26A 1_555 1_555
H22A C28A 1_555 1_555
H23A C28A 1_555 1_555
C29A N4A 1_555 1_555
C30A N4A 1_555 1_555
C31A C30A 1_555 1_555
H24A C31A 1_555 1_555
C32A C31A 1_555 1_555
H25A C32A 1_555 1_555
C33A C32A 1_555 1_555
H26A C33A 1_555 1_555
C34A C33A 1_555 1_555
H27A C34A 1_555 1_555
C35A N3A 1_555 1_555
C36A C29A 1_555 1_555
H28A C36A 1_555 1_555
H29A C36A 1_555 1_555
H30A C36A 1_555 1_555
Cd1A O4A 1_555 1_555
O1A_2 Cd1A 1_555 1_555
O2A_2 Cd1A 1_555 1_555
N3_2 Cd1A 1_555 1_555
N3A_2 Cd1 1_555 1_555
Cd1_2 N3A 1_555 1_555
Cd1A_2 O1A 1_555 1_555
Cd1A_3 N3 1_555 1_555
O2 Cd1 1_555 1_555
O3 Cd1 1_555 1_555
O4 Cd1 1_555 1_555
N1 Cd1 1_555 1_555
C14 C19 1_555 1_555
C18 C19 1_555 1_555
C26 C27 1_555 1_555
C30 C35 1_555 1_555
C34 C35 1_555 1_555
O2A Cd1A_2 1_555 1_555
C1A C5A 1_555 1_555
C2A C3A 1_555 1_555
C3A C4A 1_555 1_555
C10A C11A 1_555 1_555
C11A C12A 1_555 1_555
O3A Cd1A 1_555 1_555
N1A Cd1A 1_555 1_555
C14A C19A 1_555 1_555
C18A C19A 1_555 1_555
C26A C27A 1_555 1_555
C30A C35A 1_555 1_555
C34A C35A 1_555 1_555

#END
