
#######################################################################
#
#                 Cambridge Crystallographic Data Centre
#                                CCDC 
#
#######################################################################
#
# If this CIF has been generated from an entry in the Cambridge 
# Structural Database, then it will include bibliographic, chemical, 
# crystal, experimental, refinement or atomic coordinate data resulting 
# from the CCDC's data processing and validation procedures.
#
#######################################################################

data_CUKXUC
_symmetry_cell_setting           monoclinic
_symmetry_space_group_name_H-M   'C 2/c'
_symmetry_Int_Tables_number      15
_space_group_name_Hall           '-C 2yn'
loop_
_symmetry_equiv_pos_site_id
_symmetry_equiv_pos_as_xyz
1 x,y,z
2 -x,y,1/2-z
3 1/2+x,1/2+y,z
4 1/2-x,1/2+y,1/2-z
5 -x,-y,-z
6 x,-y,1/2+z
7 1/2-x,1/2-y,-z
8 1/2+x,1/2-y,1/2+z
_cell_length_a                   12.762(4)
_cell_length_b                   16.866(5)
_cell_length_c                   19.373(4)
_cell_angle_alpha                90
_cell_angle_beta                 130.191(13)
_cell_angle_gamma                90
_cell_volume                     3185.39
loop_
_atom_site_label
_atom_site_type_symbol
_atom_site_fract_x
_atom_site_fract_y
_atom_site_fract_z
Eu1 Eu 0.43299(3) 0.448580(18) 0.55728(2)
O1 O 0.0920(6) 0.0771(3) 0.2199(3)
O2 O 0.0652(6) 0.1780(3) 0.1377(3)
O3 O 0.4883(5) 0.4209(3) 0.3847(3)
O4 O 0.4041(5) 0.3653(3) 0.4458(3)
O5 O 0.3645(5) 0.5336(3) 0.4210(3)
O6 O 0.2097(5) 0.5122(3) 0.4353(3)
O7 O 0.2611(6) 0.3415(3) 0.5028(4)
O8 O 0.3205(6) 0.4786(3) 0.6195(3)
N1 N 0.0000 0.2779(4) 0.2500
N2 N 0.1100(6) 0.3996(3) 0.2692(4)
N3 N 0.2115(6) 0.2798(3) 0.2897(4)
N4 N 0.0000 0.5171(4) 0.2500
C1 C 0.1038(7) 0.3209(4) 0.2691(4)
C2 C 0.0000 0.4357(6) 0.2500
C3 C 0.2170(7) 0.1953(3) 0.3009(4)
H1 H 0.1966 0.1830 0.3401
H2 H 0.3099 0.1776 0.3313
C4 C 0.1195(7) 0.1484(4) 0.2138(4)
C5 C 0.3211(7) 0.3216(4) 0.3010(4)
H3 H 0.2807 0.3550 0.2485
H4 H 0.3785 0.2829 0.3023
C6 C 0.4125(7) 0.3732(4) 0.3856(4)
C7 C 0.1288(8) 0.5570(4) 0.2903(5)
H5 H 0.1150 0.6139 0.2870
H6 H 0.1578 0.5443 0.2560
C8 C 0.2412(7) 0.5330(4) 0.3887(4)
Eu1F Eu 0.06701(3) 0.051420(18) 0.44272(2)
Eu1D Eu 0.56701(3) 0.551420(18) 0.44272(2)
Eu1G Eu -0.06701(3) 0.051420(18) 0.05728(2)
Eu1E Eu -0.56701(3) 0.551420(18) 0.05728(2)
Eu1A Eu -0.43299(3) 0.448580(18) -0.05728(2)
O1A O -0.0920(6) 0.0771(3) 0.2801(3)
O1G O 0.5920(6) 0.4229(3) 0.7199(3)
O1F O -0.5920(6) 0.4229(3) -0.2199(3)
O2A O -0.0652(6) 0.1780(3) 0.3623(3)
O2G O 0.5652(6) 0.3220(3) 0.6377(3)
O2F O -0.5652(6) 0.3220(3) -0.1377(3)
O3A O -0.4883(5) 0.4209(3) 0.1153(3)
O3D O 0.5117(5) 0.5791(3) 0.6153(3)
O3E O -0.5117(5) 0.5791(3) -0.1153(3)
O4A O -0.4041(5) 0.3653(3) 0.0542(3)
O5A O -0.3645(5) 0.5336(3) 0.0790(3)
O5D O 0.6355(5) 0.4664(3) 0.5790(3)
O5E O -0.6355(5) 0.4664(3) -0.0790(3)
O6A O -0.2097(5) 0.5122(3) 0.0647(3)
O7A O -0.2611(6) 0.3415(3) -0.0028(4)
O8A O -0.3205(6) 0.4786(3) -0.1195(3)
N2A N -0.1100(6) 0.3996(3) 0.2308(4)
N3A N -0.2115(6) 0.2798(3) 0.2103(4)
C1A C -0.1038(7) 0.3209(4) 0.2309(4)
C3A C -0.2170(7) 0.1953(3) 0.1991(4)
H1A H -0.1966 0.1830 0.1599
H2A H -0.3099 0.1776 0.1687
C4A C -0.1195(7) 0.1484(4) 0.2862(4)
C5A C -0.3211(7) 0.3216(4) 0.1990(4)
H3A H -0.2807 0.3550 0.2515
H4A H -0.3785 0.2829 0.1977
C6A C -0.4125(7) 0.3732(4) 0.1144(4)
C7A C -0.1288(8) 0.5570(4) 0.2097(5)
H5A H -0.1150 0.6139 0.2130
H6A H -0.1578 0.5443 0.2440
C8A C -0.2412(7) 0.5330(4) 0.1113(4)
O9 O 0.4200(9) 0.1597(5) 0.0559(5)
O10 O 0.4951(7) 0.1802(4) 0.5504(4)
O11 O 0.5000 0.3707(5) 0.2500
O12 O 0.0807(12) 0.4784(7) 0.0879(7)
O13 O 0.3262(10) 0.2513(5) 0.1229(5)
loop_
_geom_bond_atom_site_label_1
_geom_bond_atom_site_label_2
_geom_bond_site_symmetry_1
_geom_bond_site_symmetry_2
Eu1 O4 1_555 1_555
O1 C4 1_555 1_555
O2 C4 1_555 1_555
O3 C6 1_555 1_555
O4 C6 1_555 1_555
O5 Eu1 1_555 1_555
O6 Eu1 1_555 1_555
O7 Eu1 1_555 1_555
O8 Eu1 1_555 1_555
N1 C1 1_555 1_555
N2 C1 1_555 1_555
N3 C1 1_555 1_555
N4 C2 1_555 1_555
C2 N2 1_555 1_555
C3 N3 1_555 1_555
H1 C3 1_555 1_555
H2 C3 1_555 1_555
C4 C3 1_555 1_555
C5 N3 1_555 1_555
H3 C5 1_555 1_555
H4 C5 1_555 1_555
C6 C5 1_555 1_555
C7 N4 1_555 1_555
H5 C7 1_555 1_555
H6 C7 1_555 1_555
C8 O5 1_555 1_555
Eu1F O1A 1_555 1_555
Eu1D O3 1_555 1_555
Eu1G O1 1_555 1_555
Eu1E O3A 1_555 1_555
Eu1A O1F 1_555 1_555
O1A C4A 1_555 1_555
O1G Eu1 1_555 1_555
O2A Eu1F 1_555 1_555
O2G Eu1 1_555 1_555
O2F Eu1A 1_555 1_555
O3A C6A 1_555 1_555
O3D Eu1 1_555 1_555
O3E Eu1A 1_555 1_555
O4A Eu1A 1_555 1_555
O5A Eu1E 1_555 1_555
O5D Eu1 1_555 1_555
O5E Eu1E 1_555 1_555
O6A Eu1A 1_555 1_555
O7A Eu1A 1_555 1_555
O8A Eu1A 1_555 1_555
N2A C2 1_555 1_555
N3A C1A 1_555 1_555
C1A N1 1_555 1_555
C3A N3A 1_555 1_555
H1A C3A 1_555 1_555
H2A C3A 1_555 1_555
C4A O2A 1_555 1_555
C5A N3A 1_555 1_555
H3A C5A 1_555 1_555
H4A C5A 1_555 1_555
C6A O4A 1_555 1_555
C7A N4 1_555 1_555
H5A C7A 1_555 1_555
H6A C7A 1_555 1_555
C8A O5A 1_555 1_555
O2 Eu1G 1_555 1_555
O5 Eu1D 1_555 1_555
O6 C8 1_555 1_555
C7 C8 1_555 1_555
Eu1D O5D 1_555 1_555
Eu1A O5A 1_555 1_555
Eu1A O5E 1_555 1_555
O6A C8A 1_555 1_555
N2A C1A 1_555 1_555
C3A C4A 1_555 1_555
C5A C6A 1_555 1_555
C7A C8A 1_555 1_555

#END
