
#######################################################################
#
#                 Cambridge Crystallographic Data Centre
#                                CCDC 
#
#######################################################################
#
# If this CIF has been generated from an entry in the Cambridge 
# Structural Database, then it will include bibliographic, chemical, 
# crystal, experimental, refinement or atomic coordinate data resulting 
# from the CCDC's data processing and validation procedures.
#
#######################################################################

data_CUKYAJ
_symmetry_cell_setting           monoclinic
_symmetry_space_group_name_H-M   'C 2/c'
_symmetry_Int_Tables_number      15
_space_group_name_Hall           '-C 2yn'
loop_
_symmetry_equiv_pos_site_id
_symmetry_equiv_pos_as_xyz
1 x,y,z
2 -x,y,1/2-z
3 1/2+x,1/2+y,z
4 1/2-x,1/2+y,1/2-z
5 -x,-y,-z
6 x,-y,1/2+z
7 1/2-x,1/2-y,-z
8 1/2+x,1/2-y,1/2+z
_cell_length_a                   12.748(4)
_cell_length_b                   16.844(6)
_cell_length_c                   14.802(6)
_cell_angle_alpha                90
_cell_angle_beta                 90.989(7)
_cell_angle_gamma                90
_cell_volume                     3177.92
loop_
_atom_site_label
_atom_site_type_symbol
_atom_site_fract_x
_atom_site_fract_y
_atom_site_fract_z
Dy1 Dy 0.37485(3) 0.19842(2) 0.55709(2)
O1 O 0.3078(4) 0.2831(3) 0.4199(4)
O2 O 0.4758(5) 0.2637(4) 0.4349(4)
O3 O 0.1472(5) 0.1707(3) 0.3849(4)
O4 O 0.2911(4) 0.1147(3) 0.4457(4)
O5 O 0.3766(5) -0.1719(4) 0.2208(4)
O6 O 0.3233(5) -0.0727(3) 0.1393(4)
O7 O 0.4933(5) 0.0911(4) 0.5030(5)
O8 O 0.5492(5) 0.2288(4) 0.6195(4)
N1 N 0.4088(5) 0.1508(4) 0.2692(5)
N2 N 0.5000 0.0275(6) 0.2500
N3 N 0.5000 0.2669(5) 0.2500
N4 N 0.3280(5) 0.0301(4) 0.2895(4)
C1 C 0.5000 0.1873(7) 0.2500
C2 C 0.4157(6) 0.0707(5) 0.2685(5)
C3 C 0.4134(6) 0.3082(4) 0.2889(5)
H1 H 0.3498 0.2968 0.2544
H2 H 0.4259 0.3649 0.2864
C4 C 0.3994(6) 0.2821(4) 0.3886(5)
C5 C 0.2295(6) 0.0723(5) 0.2994(6)
H3 H 0.1728 0.0339 0.3001
H4 H 0.2185 0.1062 0.2472
C6 C 0.2244(6) 0.1224(4) 0.3835(5)
C7 C 0.3339(6) -0.0548(4) 0.3004(5)
H5 H 0.2708 -0.0728 0.3299
H6 H 0.3930 -0.0671 0.3401
C8 C 0.3456(5) -0.1003(4) 0.2140(5)
Dy1A Dy 0.62515(3) 0.19842(2) -0.05709(2)
Dy1D Dy 0.62515(3) -0.19842(2) 0.44291(2)
Dy1E Dy 0.37485(3) -0.19842(2) 0.05709(2)
Dy1F Dy 0.12515(3) 0.30158(2) 0.44291(2)
Dy1G Dy 0.87485(3) 0.30158(2) 0.05709(2)
O1A O 0.6922(4) 0.2831(3) 0.0801(4)
O1F O 0.1922(4) 0.2169(3) 0.5801(4)
O1G O 0.8078(4) 0.2169(3) -0.0801(4)
O2A O 0.5242(5) 0.2637(4) 0.0651(4)
O3A O 0.8528(5) 0.1707(3) 0.1151(4)
O3F O 0.3528(5) 0.3293(3) 0.6151(4)
O3G O 0.6472(5) 0.3293(3) -0.1151(4)
O4A O 0.7089(4) 0.1147(3) 0.0543(4)
O5A O 0.6234(5) -0.1719(4) 0.2792(4)
O5D O 0.6234(5) 0.1719(4) -0.2208(4)
O5E O 0.3766(5) 0.1719(4) 0.7208(4)
O6A O 0.6767(5) -0.0727(3) 0.3607(4)
O6D O 0.6767(5) 0.0727(3) -0.1393(4)
O6E O 0.3233(5) 0.0727(3) 0.6393(4)
O7A O 0.5067(5) 0.0911(4) -0.0030(5)
O8A O 0.4508(5) 0.2288(4) -0.1195(4)
N1A N 0.5912(5) 0.1508(4) 0.2308(5)
N4A N 0.6720(5) 0.0301(4) 0.2105(4)
C2A C 0.5843(6) 0.0707(5) 0.2315(5)
C3A C 0.5866(6) 0.3082(4) 0.2111(5)
H1A H 0.6502 0.2968 0.2456
H2A H 0.5741 0.3649 0.2136
C4A C 0.6006(6) 0.2821(4) 0.1114(5)
C5A C 0.7705(6) 0.0723(5) 0.2006(6)
H3A H 0.8272 0.0339 0.1999
H4A H 0.7815 0.1062 0.2528
C6A C 0.7756(6) 0.1224(4) 0.1165(5)
C7A C 0.6661(6) -0.0548(4) 0.1996(5)
H5A H 0.7292 -0.0728 0.1701
H6A H 0.6070 -0.0671 0.1599
C8A C 0.6544(5) -0.1003(4) 0.2860(5)
O9 O 0.2607(14) 0.2326(13) 0.0890(14)
O10 O 0.0464(11) 0.0032(9) 0.1261(10)
O11 O 0.3841(7) 0.4089(8) 0.0574(7)
O12 O 0.3049(6) 0.0701(5) 0.0496(6)
O13 O 0.0000 0.1215(6) 0.2500
loop_
_geom_bond_atom_site_label_1
_geom_bond_atom_site_label_2
_geom_bond_site_symmetry_1
_geom_bond_site_symmetry_2
Dy1 O1 1_555 1_555
O1 C4 1_555 1_555
O2 Dy1 1_555 1_555
O3 C6 1_555 1_555
O4 Dy1 1_555 1_555
O5 C8 1_555 1_555
O6 C8 1_555 1_555
O7 Dy1 1_555 1_555
O8 Dy1 1_555 1_555
N1 C1 1_555 1_555
N2 C2 1_555 1_555
N3 C1 1_555 1_555
N4 C2 1_555 1_555
C1 N1A 1_555 1_555
C2 N1 1_555 1_555
C3 N3 1_555 1_555
H1 C3 1_555 1_555
H2 C3 1_555 1_555
C4 O2 1_555 1_555
C5 N4 1_555 1_555
H3 C5 1_555 1_555
H4 C5 1_555 1_555
C6 O4 1_555 1_555
C7 N4 1_555 1_555
H5 C7 1_555 1_555
H6 C7 1_555 1_555
C8 C7 1_555 1_555
Dy1A O1A 1_555 1_555
Dy1D O5A 1_555 1_555
Dy1E O5 1_555 1_555
Dy1F O1 1_555 1_555
Dy1G O1A 1_555 1_555
O1A C4A 1_555 1_555
O1F Dy1 1_555 1_555
O1G Dy1A 1_555 1_555
O2A Dy1A 1_555 1_555
O3A Dy1G 1_555 1_555
O3F Dy1 1_555 1_555
O3G Dy1A 1_555 1_555
O4A Dy1A 1_555 1_555
O5A C8A 1_555 1_555
O5D Dy1A 1_555 1_555
O5E Dy1 1_555 1_555
O6A Dy1D 1_555 1_555
O6D Dy1A 1_555 1_555
O6E Dy1 1_555 1_555
O7A Dy1A 1_555 1_555
O8A Dy1A 1_555 1_555
N1A C2A 1_555 1_555
N4A C2A 1_555 1_555
C2A N2 1_555 1_555
C3A N3 1_555 1_555
H1A C3A 1_555 1_555
H2A C3A 1_555 1_555
C4A O2A 1_555 1_555
C5A N4A 1_555 1_555
H3A C5A 1_555 1_555
H4A C5A 1_555 1_555
C6A O3A 1_555 1_555
C7A N4A 1_555 1_555
H5A C7A 1_555 1_555
H6A C7A 1_555 1_555
C8A O6A 1_555 1_555
O3 Dy1F 1_555 1_555
O6 Dy1E 1_555 1_555
C3 C4 1_555 1_555
C5 C6 1_555 1_555
Dy1F O1F 1_555 1_555
Dy1G O1G 1_555 1_555
O4A C6A 1_555 1_555
C3A C4A 1_555 1_555
C5A C6A 1_555 1_555
C7A C8A 1_555 1_555

#END
