
#######################################################################
#
#                 Cambridge Crystallographic Data Centre
#                                CCDC 
#
#######################################################################
#
# If this CIF has been generated from an entry in the Cambridge 
# Structural Database, then it will include bibliographic, chemical, 
# crystal, experimental, refinement or atomic coordinate data resulting 
# from the CCDC's data processing and validation procedures.
#
#######################################################################

data_CUMDIZ
_symmetry_cell_setting           triclinic
_symmetry_space_group_name_H-M   'P -1'
_symmetry_Int_Tables_number      2
_space_group_name_Hall           '-P 1'
loop_
_symmetry_equiv_pos_site_id
_symmetry_equiv_pos_as_xyz
1 x,y,z
2 -x,-y,-z
_cell_length_a                   14.4396(5)
_cell_length_b                   15.3862(5)
_cell_length_c                   15.9818(5)
_cell_angle_alpha                113.089(2)
_cell_angle_beta                 98.589(2)
_cell_angle_gamma                103.782(2)
_cell_volume                     3052.86
loop_
_atom_site_label
_atom_site_type_symbol
_atom_site_fract_x
_atom_site_fract_y
_atom_site_fract_z
Dy1 Dy 0.64959(2) 0.10651(2) 0.08153(2)
Dy2 Dy 0.91238(2) 0.34980(2) 0.38586(2)
Na1 Na 0.7164(2) 0.06307(19) 0.28383(18)
Na2 Na 0.8798(2) 0.3675(2) 0.1647(2)
Na3 Na 0.9018(3) 0.1435(3) 0.1763(2)
Cl1 Cl 0.80633(16) 0.06584(14) 0.45172(14)
Cl2 Cl 0.8224(2) 0.3418(2) -0.02383(18)
F1 F 0.5000 0.0000 0.0000
F2 F 1.0000 0.5000 0.5000
F3 F 0.8452(3) 0.1912(3) 0.3055(3)
F4 F 0.7958(3) 0.2103(3) 0.1263(3)
O1 O 0.5722(4) 0.0726(4) 0.3468(4)
O2 O 0.6126(3) 0.1317(3) 0.2185(3)
O3 O 0.7110(4) -0.0012(3) 0.1185(3)
O4 O 0.6948(4) -0.1124(4) 0.2096(4)
O5 O 0.8151(4) 0.5085(4) 0.2038(4)
O6 O 0.8274(4) 0.4123(4) 0.3083(4)
O7 O 0.9990(3) 0.3529(4) 0.2788(4)
O8 O 1.0480(4) 0.4353(5) 0.1682(4)
N1 N 0.5717(4) 0.2425(4) 0.1188(4)
N2 N 0.6313(4) 0.1617(5) -0.0464(4)
H1 H 0.6911 0.2102 -0.0336
N3 N 0.6974(4) -0.0001(4) -0.0604(4)
N4 N 0.7665(5) 0.3675(4) 0.4501(4)
N5 N 0.9154(5) 0.3038(4) 0.5202(4)
H2 H 0.8852 0.2348 0.4929
N6 N 1.0687(5) 0.3157(4) 0.4345(4)
C1 C 0.5535(5) 0.1696(5) 0.2678(5)
C2 C 0.5315(6) 0.1411(6) 0.3384(5)
C3 C 0.4718(7) 0.1801(7) 0.3927(6)
H3 H 0.4586 0.1611 0.4407
C4 C 0.4309(7) 0.2481(7) 0.3760(7)
H4 H 0.3889 0.2742 0.4121
C5 C 0.4512(7) 0.2769(7) 0.3081(6)
H5 H 0.4246 0.3242 0.2987
C6 C 0.5110(5) 0.2370(5) 0.2522(5)
C7 C 0.5439(7) 0.0332(8) 0.4094(7)
H6 H 0.5790 -0.0138 0.4104
H7 H 0.4723 -0.0017 0.3879
H8 H 0.5610 0.0878 0.4732
C8 C 0.5268(6) 0.2712(5) 0.1811(6)
H9 H 0.4997 0.3219 0.1815
C9 C 0.5741(6) 0.2881(6) 0.0530(6)
H10 H 0.6397 0.3391 0.0717
H11 H 0.5231 0.3215 0.0557
C10 C 0.5549(6) 0.2098(6) -0.0447(6)
H12 H 0.4885 0.1596 -0.0643
H13 H 0.5568 0.2401 -0.0890
C11 C 0.6167(6) 0.0795(6) -0.1406(5)
H14 H 0.6183 0.1053 -0.1884
H15 H 0.5517 0.0274 -0.1599
C12 C 0.6999(6) 0.0359(7) -0.1333(6)
H16 H 0.6918 -0.0202 -0.1950
H17 H 0.7645 0.0877 -0.1164
C13 C 0.7148(5) -0.0828(6) -0.0793(5)
H18 H 0.7291 -0.1128 -0.1381
C14 C 0.7104(5) -0.0934(5) 0.0727(5)
C15 C 0.7152(5) -0.1354(5) -0.0225(5)
C16 C 0.7177(7) -0.2335(6) -0.0653(6)
H19 H 0.7233 -0.2601 -0.1282
C17 C 0.7121(8) -0.2918(6) -0.0187(7)
H20 H 0.7138 -0.3580 -0.0488
C18 C 0.7038(7) -0.2523(6) 0.0745(6)
H21 H 0.6979 -0.2927 0.1069
C19 C 0.7041(5) -0.1546(5) 0.1191(5)
C20 C 0.6758(9) -0.1750(7) 0.2559(6)
H22 H 0.6700 -0.1358 0.3191
H23 H 0.7306 -0.2015 0.2616
H24 H 0.6139 -0.2305 0.2189
C21 C 0.7636(6) 0.4589(5) 0.3162(5)
C22 C 0.7529(7) 0.5128(6) 0.2604(6)
C23 C 0.6835(8) 0.5621(7) 0.2676(8)
H25 H 0.6773 0.5965 0.2302
C24 C 0.6239(8) 0.5632(7) 0.3262(8)
H26 H 0.5782 0.5991 0.3304
C25 C 0.6307(7) 0.5119(7) 0.3788(8)
H27 H 0.5874 0.5105 0.4178
C26 C 0.7011(6) 0.4607(5) 0.3764(6)
C27 C 0.8205(11) 0.5693(9) 0.1551(10)
H28 H 0.8674 0.5575 0.1168
H29 H 0.8429 0.6399 0.2011
H30 H 0.7548 0.5521 0.1139
C28 C 0.7051(6) 0.4100(5) 0.4350(6)
H31 H 0.6547 0.4081 0.4668
C29 C 0.7535(6) 0.3254(7) 0.5170(6)
H32 H 0.7205 0.2521 0.4821
H33 H 0.7111 0.3544 0.5554
C30 C 0.8524(6) 0.3480(6) 0.5804(6)
H34 H 0.8441 0.3189 0.6252
H35 H 0.8847 0.4212 0.6172
C31 C 1.0142(6) 0.3236(6) 0.5730(5)
H36 H 1.0114 0.2952 0.6188
H37 H 1.0482 0.3967 0.6086
C32 C 1.0706(6) 0.2773(6) 0.5058(6)
H38 H 1.1400 0.2942 0.5409
H39 H 1.0401 0.2037 0.4742
C33 C 1.1492(6) 0.3355(6) 0.4113(6)
H40 H 1.2029 0.3232 0.4416
C34 C 1.0935(5) 0.3823(5) 0.2825(5)
C35 C 1.1681(5) 0.3745(5) 0.3442(5)
C36 C 1.2682(6) 0.4072(6) 0.3426(6)
H41 H 1.3178 0.3990 0.3823
C37 C 1.2948(6) 0.4491(6) 0.2871(6)
H42 H 1.3627 0.4714 0.2888
C38 C 1.2223(6) 0.4602(6) 0.2260(6)
H43 H 1.2405 0.4902 0.1865
C39 C 1.1232(5) 0.4262(6) 0.2248(5)
C40 C 1.0744(7) 0.4904(9) 0.1165(8)
H44 H 1.0142 0.4908 0.0793
H45 H 1.1117 0.4589 0.0740
H46 H 1.1155 0.5592 0.1606
O9 O 0.9959(6) 0.0608(7) 0.2232(6)
H47 H 0.9734 0.0147 0.2378
C41 C 1.0949(8) 0.0757(11) 0.2294(10)
H48 H 1.1207 0.1279 0.2103
H49 H 1.1035 0.0134 0.1877
H50 H 1.1310 0.0965 0.2948
O10 O 0.9749(12) 0.1432(15) 0.0555(12)
H51 H 0.9992 0.0977 0.0517
C42 C 1.0063(18) 0.183(2) 0.0016(19)
H52 H 0.9496 0.1727 -0.0477
H53 H 1.0520 0.1516 -0.0279
H54 H 1.0406 0.2550 0.0401
Dy1A Dy 0.35041(2) -0.10651(2) -0.08153(2)
Dy2A Dy 0.08762(2) -0.34980(2) -0.38586(2)
Na1A Na 0.2836(2) -0.06307(19) -0.28383(18)
Na2A Na 0.1202(2) -0.3675(2) -0.1647(2)
Na3A Na 0.0982(3) -0.1435(3) -0.1763(2)
Cl1A Cl 0.19367(16) -0.06584(14) -0.45172(14)
Cl2A Cl 0.1776(2) -0.3418(2) 0.02383(18)
F3A F 0.1548(3) -0.1912(3) -0.3055(3)
F4A F 0.2042(3) -0.2103(3) -0.1263(3)
O1A O 0.4278(4) -0.0726(4) -0.3468(4)
O2A O 0.3874(3) -0.1317(3) -0.2185(3)
O3A O 0.2890(4) 0.0012(3) -0.1185(3)
O4A O 0.3052(4) 0.1124(4) -0.2096(4)
O5A O 0.1849(4) -0.5085(4) -0.2038(4)
O6A O 0.1726(4) -0.4123(4) -0.3083(4)
O7A O 0.0010(3) -0.3529(4) -0.2788(4)
O8A O -0.0480(4) -0.4353(5) -0.1682(4)
N1A N 0.4283(4) -0.2425(4) -0.1188(4)
N2A N 0.3687(4) -0.1617(5) 0.0464(4)
H1A H 0.3089 -0.2102 0.0336
N3A N 0.3026(4) 0.0001(4) 0.0604(4)
N4A N 0.2335(5) -0.3675(4) -0.4501(4)
N5A N 0.0846(5) -0.3038(4) -0.5202(4)
H2A H 0.1148 -0.2348 -0.4929
N6A N -0.0687(5) -0.3157(4) -0.4345(4)
C1A C 0.4465(5) -0.1696(5) -0.2678(5)
C2A C 0.4685(6) -0.1411(6) -0.3384(5)
C3A C 0.5282(7) -0.1801(7) -0.3927(6)
H3A H 0.5414 -0.1611 -0.4407
C4A C 0.5691(7) -0.2481(7) -0.3760(7)
H4A H 0.6111 -0.2742 -0.4121
C5A C 0.5488(7) -0.2769(7) -0.3081(6)
H5A H 0.5754 -0.3242 -0.2987
C6A C 0.4890(5) -0.2370(5) -0.2522(5)
C7A C 0.4561(7) -0.0332(8) -0.4094(7)
H6A H 0.4210 0.0138 -0.4104
H7A H 0.5277 0.0017 -0.3879
H8A H 0.4390 -0.0878 -0.4732
C8A C 0.4732(6) -0.2712(5) -0.1811(6)
H9A H 0.5003 -0.3219 -0.1815
C9A C 0.4259(6) -0.2881(6) -0.0530(6)
H10A H 0.3603 -0.3391 -0.0717
H11A H 0.4769 -0.3215 -0.0557
C10A C 0.4451(6) -0.2098(6) 0.0447(6)
H12A H 0.5115 -0.1596 0.0643
H13A H 0.4432 -0.2401 0.0890
C11A C 0.3833(6) -0.0795(6) 0.1406(5)
H14A H 0.3817 -0.1053 0.1884
H15A H 0.4483 -0.0274 0.1599
C12A C 0.3001(6) -0.0359(7) 0.1333(6)
H16A H 0.3082 0.0202 0.1950
H17A H 0.2355 -0.0877 0.1164
C13A C 0.2852(5) 0.0828(6) 0.0793(5)
H18A H 0.2709 0.1128 0.1381
C14A C 0.2896(5) 0.0934(5) -0.0727(5)
C15A C 0.2848(5) 0.1354(5) 0.0225(5)
C16A C 0.2823(7) 0.2335(6) 0.0653(6)
H19A H 0.2767 0.2601 0.1282
C17A C 0.2879(8) 0.2918(6) 0.0187(7)
H20A H 0.2862 0.3580 0.0488
C18A C 0.2962(7) 0.2523(6) -0.0745(6)
H21A H 0.3021 0.2927 -0.1069
C19A C 0.2959(5) 0.1546(5) -0.1191(5)
C20A C 0.3242(9) 0.1750(7) -0.2559(6)
H22A H 0.3300 0.1358 -0.3191
H23A H 0.2694 0.2015 -0.2616
H24A H 0.3861 0.2305 -0.2189
C21A C 0.2364(6) -0.4589(5) -0.3162(5)
C22A C 0.2471(7) -0.5128(6) -0.2604(6)
C23A C 0.3165(8) -0.5621(7) -0.2676(8)
H25A H 0.3227 -0.5965 -0.2302
C24A C 0.3761(8) -0.5632(7) -0.3262(8)
H26A H 0.4218 -0.5991 -0.3304
C25A C 0.3693(7) -0.5119(7) -0.3788(8)
H27A H 0.4126 -0.5105 -0.4178
C26A C 0.2989(6) -0.4607(5) -0.3764(6)
C27A C 0.1795(11) -0.5693(9) -0.1551(10)
H28A H 0.1326 -0.5575 -0.1168
H29A H 0.1571 -0.6399 -0.2011
H30A H 0.2452 -0.5521 -0.1139
C28A C 0.2949(6) -0.4100(5) -0.4350(6)
H31A H 0.3453 -0.4081 -0.4668
C29A C 0.2465(6) -0.3254(7) -0.5170(6)
H32A H 0.2795 -0.2521 -0.4821
H33A H 0.2889 -0.3544 -0.5554
C30A C 0.1476(6) -0.3480(6) -0.5804(6)
H34A H 0.1559 -0.3189 -0.6252
H35A H 0.1153 -0.4212 -0.6172
C31A C -0.0142(6) -0.3236(6) -0.5730(5)
H36A H -0.0114 -0.2952 -0.6188
H37A H -0.0482 -0.3967 -0.6086
C32A C -0.0706(6) -0.2773(6) -0.5058(6)
H38A H -0.1400 -0.2942 -0.5409
H39A H -0.0401 -0.2037 -0.4742
C33A C -0.1492(6) -0.3355(6) -0.4113(6)
H40A H -0.2029 -0.3232 -0.4416
C34A C -0.0935(5) -0.3823(5) -0.2825(5)
C35A C -0.1681(5) -0.3745(5) -0.3442(5)
C36A C -0.2682(6) -0.4072(6) -0.3426(6)
H41A H -0.3178 -0.3990 -0.3823
C37A C -0.2948(6) -0.4491(6) -0.2871(6)
H42A H -0.3627 -0.4714 -0.2888
C38A C -0.2223(6) -0.4602(6) -0.2260(6)
H43A H -0.2405 -0.4902 -0.1865
C39A C -0.1232(5) -0.4262(6) -0.2248(5)
C40A C -0.0744(7) -0.4904(9) -0.1165(8)
H44A H -0.0142 -0.4908 -0.0793
H45A H -0.1117 -0.4589 -0.0740
H46A H -0.1155 -0.5592 -0.1606
O9A O 0.0041(6) -0.0608(7) -0.2232(6)
H47A H 0.0266 -0.0147 -0.2378
C41A C -0.0949(8) -0.0757(11) -0.2294(10)
H48A H -0.1207 -0.1279 -0.2103
H49A H -0.1035 -0.0134 -0.1877
H50A H -0.1310 -0.0965 -0.2948
O10A O 0.0251(12) -0.1432(15) -0.0555(12)
H51A H 0.0008 -0.0977 -0.0517
C42A C -0.0063(18) -0.183(2) -0.0016(19)
H52A H 0.0504 -0.1727 0.0477
H53A H -0.0520 -0.1516 0.0279
H54A H -0.0406 -0.2550 -0.0401
Dy2A_2 Dy 1.08762(2) 0.65020(2) 0.61414(2)
F2_2 F 0.0000 -0.5000 -0.5000
O11 O 0.9531(10) -0.0126(11) 0.3466(11)
H55 H 0.9684 0.0369 0.3997
C43 C 0.9676(14) -0.0918(14) 0.3582(14)
H56 H 1.0376 -0.0750 0.3893
H57 H 0.9489 -0.1498 0.2963
H58 H 0.9267 -0.1077 0.3973
O12 O 0.6825(8) -0.0861(9) 0.5036(9)
H59 H 0.6940 -0.0357 0.5552
C44 C 0.7445(12) -0.1374(14) 0.5127(16)
H60 H 0.8101 -0.1036 0.5103
H61 H 0.7183 -0.2054 0.4610
H62 H 0.7499 -0.1403 0.5733
O13 O 0.7895(16) 0.1581(16) 0.7103(15)
H63 H 0.8568 0.2003 0.7407
H64 H 0.7433 0.1969 0.7307
O14 O 0.6657(19) 0.4279(19) -0.1018(18)
H65 H 0.6163 0.4537 -0.0778
H66 H 0.7324 0.4814 -0.0726
loop_
_geom_bond_atom_site_label_1
_geom_bond_atom_site_label_2
_geom_bond_site_symmetry_1
_geom_bond_site_symmetry_2
Dy1 F1 1_555 1_555
Dy2 F2 1_555 1_555
Na1 Cl1 1_555 1_555
Na2 Cl2 1_555 1_555
Na3 F3 1_555 1_555
F1 Dy1A 1_555 1_555
F2 Dy2A_2 1_555 1_555
F3 Dy2 1_555 1_555
F4 Dy1 1_555 1_555
O1 Na1 1_555 1_555
O2 Dy1 1_555 1_555
O3 Dy1 1_555 1_555
O4 Na1 1_555 1_555
O5 Na2 1_555 1_555
O6 Dy2 1_555 1_555
O7 Dy2 1_555 1_555
O8 Na2 1_555 1_555
N1 Dy1 1_555 1_555
N2 Dy1 1_555 1_555
H1 N2 1_555 1_555
N3 Dy1 1_555 1_555
N4 Dy2 1_555 1_555
N5 Dy2 1_555 1_555
H2 N5 1_555 1_555
N6 Dy2 1_555 1_555
C1 O2 1_555 1_555
C2 O1 1_555 1_555
C3 C2 1_555 1_555
H3 C3 1_555 1_555
C4 C3 1_555 1_555
H4 C4 1_555 1_555
C5 C4 1_555 1_555
H5 C5 1_555 1_555
C6 C1 1_555 1_555
C7 O1 1_555 1_555
H6 C7 1_555 1_555
H7 C7 1_555 1_555
H8 C7 1_555 1_555
C8 N1 1_555 1_555
H9 C8 1_555 1_555
C9 N1 1_555 1_555
H10 C9 1_555 1_555
H11 C9 1_555 1_555
C10 N2 1_555 1_555
H12 C10 1_555 1_555
H13 C10 1_555 1_555
C11 N2 1_555 1_555
H14 C11 1_555 1_555
H15 C11 1_555 1_555
C12 N3 1_555 1_555
H16 C12 1_555 1_555
H17 C12 1_555 1_555
C13 N3 1_555 1_555
H18 C13 1_555 1_555
C14 O3 1_555 1_555
C15 C13 1_555 1_555
C16 C15 1_555 1_555
H19 C16 1_555 1_555
C17 C16 1_555 1_555
H20 C17 1_555 1_555
C18 C17 1_555 1_555
H21 C18 1_555 1_555
C19 O4 1_555 1_555
C20 O4 1_555 1_555
H22 C20 1_555 1_555
H23 C20 1_555 1_555
H24 C20 1_555 1_555
C21 O6 1_555 1_555
C22 O5 1_555 1_555
C23 C22 1_555 1_555
H25 C23 1_555 1_555
C24 C23 1_555 1_555
H26 C24 1_555 1_555
C25 C24 1_555 1_555
H27 C25 1_555 1_555
C26 C21 1_555 1_555
C27 O5 1_555 1_555
H28 C27 1_555 1_555
H29 C27 1_555 1_555
H30 C27 1_555 1_555
C28 N4 1_555 1_555
H31 C28 1_555 1_555
C29 N4 1_555 1_555
H32 C29 1_555 1_555
H33 C29 1_555 1_555
C30 N5 1_555 1_555
H34 C30 1_555 1_555
H35 C30 1_555 1_555
C31 N5 1_555 1_555
H36 C31 1_555 1_555
H37 C31 1_555 1_555
C32 N6 1_555 1_555
H38 C32 1_555 1_555
H39 C32 1_555 1_555
C33 N6 1_555 1_555
H40 C33 1_555 1_555
C34 O7 1_555 1_555
C35 C33 1_555 1_555
C36 C35 1_555 1_555
H41 C36 1_555 1_555
C37 C36 1_555 1_555
H42 C37 1_555 1_555
C38 C37 1_555 1_555
H43 C38 1_555 1_555
C39 O8 1_555 1_555
C40 O8 1_555 1_555
H44 C40 1_555 1_555
H45 C40 1_555 1_555
H46 C40 1_555 1_555
O9 Na3 1_555 1_555
H47 O9 1_555 1_555
C41 O9 1_555 1_555
H48 C41 1_555 1_555
H49 C41 1_555 1_555
H50 C41 1_555 1_555
O10 Na3 1_555 1_555
H51 O10 1_555 1_555
C42 O10 1_555 1_555
H52 C42 1_555 1_555
H53 C42 1_555 1_555
H54 C42 1_555 1_555
O11 H55 1_555 1_555
C43 O11 1_555 1_555
H56 C43 1_555 1_555
H57 C43 1_555 1_555
H58 C43 1_555 1_555
O12 H59 1_555 1_555
C44 O12 1_555 1_555
H60 C44 1_555 1_555
H61 C44 1_555 1_555
H62 C44 1_555 1_555
O13 H63 1_555 1_555
H64 O13 1_555 1_555
O14 H65 1_555 1_555
H66 O14 1_555 1_555
Dy1A F4A 1_555 1_555
Dy2A F3A 1_555 1_555
Na1A Cl1A 1_555 1_555
Na2A Cl2A 1_555 1_555
Na3A F3A 1_555 1_555
F3A Na1A 1_555 1_555
F4A Na2A 1_555 1_555
O1A Na1A 1_555 1_555
O2A Dy1A 1_555 1_555
O3A Dy1A 1_555 1_555
O4A Na1A 1_555 1_555
O5A Na2A 1_555 1_555
O6A Dy2A 1_555 1_555
O7A Dy2A 1_555 1_555
O8A Na2A 1_555 1_555
N1A Dy1A 1_555 1_555
N2A Dy1A 1_555 1_555
H1A N2A 1_555 1_555
N3A Dy1A 1_555 1_555
N4A Dy2A 1_555 1_555
N5A Dy2A 1_555 1_555
H2A N5A 1_555 1_555
N6A Dy2A 1_555 1_555
C1A O2A 1_555 1_555
C2A O1A 1_555 1_555
C3A C2A 1_555 1_555
H3A C3A 1_555 1_555
C4A C3A 1_555 1_555
H4A C4A 1_555 1_555
C5A C4A 1_555 1_555
H5A C5A 1_555 1_555
C6A C1A 1_555 1_555
C7A O1A 1_555 1_555
H6A C7A 1_555 1_555
H7A C7A 1_555 1_555
H8A C7A 1_555 1_555
C8A N1A 1_555 1_555
H9A C8A 1_555 1_555
C9A N1A 1_555 1_555
H10A C9A 1_555 1_555
H11A C9A 1_555 1_555
C10A N2A 1_555 1_555
H12A C10A 1_555 1_555
H13A C10A 1_555 1_555
C11A N2A 1_555 1_555
H14A C11A 1_555 1_555
H15A C11A 1_555 1_555
C12A N3A 1_555 1_555
H16A C12A 1_555 1_555
H17A C12A 1_555 1_555
C13A N3A 1_555 1_555
H18A C13A 1_555 1_555
C14A O3A 1_555 1_555
C15A C13A 1_555 1_555
C16A C15A 1_555 1_555
H19A C16A 1_555 1_555
C17A C16A 1_555 1_555
H20A C17A 1_555 1_555
C18A C17A 1_555 1_555
H21A C18A 1_555 1_555
C19A O4A 1_555 1_555
C20A O4A 1_555 1_555
H22A C20A 1_555 1_555
H23A C20A 1_555 1_555
H24A C20A 1_555 1_555
C21A O6A 1_555 1_555
C22A O5A 1_555 1_555
C23A C22A 1_555 1_555
H25A C23A 1_555 1_555
C24A C23A 1_555 1_555
H26A C24A 1_555 1_555
C25A C24A 1_555 1_555
H27A C25A 1_555 1_555
C26A C21A 1_555 1_555
C27A O5A 1_555 1_555
H28A C27A 1_555 1_555
H29A C27A 1_555 1_555
H30A C27A 1_555 1_555
C28A N4A 1_555 1_555
H31A C28A 1_555 1_555
C29A N4A 1_555 1_555
H32A C29A 1_555 1_555
H33A C29A 1_555 1_555
C30A N5A 1_555 1_555
H34A C30A 1_555 1_555
H35A C30A 1_555 1_555
C31A N5A 1_555 1_555
H36A C31A 1_555 1_555
H37A C31A 1_555 1_555
C32A N6A 1_555 1_555
H38A C32A 1_555 1_555
H39A C32A 1_555 1_555
C33A N6A 1_555 1_555
H40A C33A 1_555 1_555
C34A O7A 1_555 1_555
C35A C33A 1_555 1_555
C36A C35A 1_555 1_555
H41A C36A 1_555 1_555
C37A C36A 1_555 1_555
H42A C37A 1_555 1_555
C38A C37A 1_555 1_555
H43A C38A 1_555 1_555
C39A O8A 1_555 1_555
C40A O8A 1_555 1_555
H44A C40A 1_555 1_555
H45A C40A 1_555 1_555
H46A C40A 1_555 1_555
O9A Na3A 1_555 1_555
H47A O9A 1_555 1_555
C41A O9A 1_555 1_555
H48A C41A 1_555 1_555
H49A C41A 1_555 1_555
H50A C41A 1_555 1_555
O10A Na3A 1_555 1_555
H51A O10A 1_555 1_555
C42A O10A 1_555 1_555
H52A C42A 1_555 1_555
H53A C42A 1_555 1_555
H54A C42A 1_555 1_555
F2_2 Dy2A 1_555 1_555
Na1 F3 1_555 1_555
Na1 O2 1_555 1_555
Na1 O3 1_555 1_555
Na2 F4 1_555 1_555
Na2 O6 1_555 1_555
Na2 O7 1_555 1_555
Na3 F4 1_555 1_555
Na3 O3 1_555 1_555
Na3 O7 1_555 1_555
C1 C2 1_555 1_555
C5 C6 1_555 1_555
C6 C8 1_555 1_555
C9 C10 1_555 1_555
C11 C12 1_555 1_555
C14 C15 1_555 1_555
C14 C19 1_555 1_555
C18 C19 1_555 1_555
C21 C22 1_555 1_555
C25 C26 1_555 1_555
C26 C28 1_555 1_555
C29 C30 1_555 1_555
C31 C32 1_555 1_555
C34 C35 1_555 1_555
C34 C39 1_555 1_555
C38 C39 1_555 1_555
Na1A O2A 1_555 1_555
Na1A O3A 1_555 1_555
Na2A O6A 1_555 1_555
Na2A O7A 1_555 1_555
Na3A F4A 1_555 1_555
Na3A O3A 1_555 1_555
Na3A O7A 1_555 1_555
C1A C2A 1_555 1_555
C5A C6A 1_555 1_555
C6A C8A 1_555 1_555
C9A C10A 1_555 1_555
C11A C12A 1_555 1_555
C14A C15A 1_555 1_555
C14A C19A 1_555 1_555
C18A C19A 1_555 1_555
C21A C22A 1_555 1_555
C25A C26A 1_555 1_555
C26A C28A 1_555 1_555
C29A C30A 1_555 1_555
C31A C32A 1_555 1_555
C34A C35A 1_555 1_555
C34A C39A 1_555 1_555
C38A C39A 1_555 1_555

#END
