
#######################################################################
#
#                 Cambridge Crystallographic Data Centre
#                                CCDC 
#
#######################################################################
#
# If this CIF has been generated from an entry in the Cambridge 
# Structural Database, then it will include bibliographic, chemical, 
# crystal, experimental, refinement or atomic coordinate data resulting 
# from the CCDC's data processing and validation procedures.
#
#######################################################################

data_CUMDEV
_symmetry_cell_setting           monoclinic
_symmetry_space_group_name_H-M   'C 2/c'
_symmetry_Int_Tables_number      15
_space_group_name_Hall           '-C 2yn'
loop_
_symmetry_equiv_pos_site_id
_symmetry_equiv_pos_as_xyz
1 x,y,z
2 -x,y,1/2-z
3 1/2+x,1/2+y,z
4 1/2-x,1/2+y,1/2-z
5 -x,-y,-z
6 x,-y,1/2+z
7 1/2-x,1/2-y,-z
8 1/2+x,1/2-y,1/2+z
_cell_length_a                   24.459(1)
_cell_length_b                   6.782(1)
_cell_length_c                   16.151(1)
_cell_angle_alpha                90
_cell_angle_beta                 108.27(1)
_cell_angle_gamma                90
_cell_volume                     2544.09
loop_
_atom_site_label
_atom_site_type_symbol
_atom_site_fract_x
_atom_site_fract_y
_atom_site_fract_z
Ag1 Ag 0.023137(6) 0.33894(3) 0.138176(10)
S1 S -0.05448(2) 0.26817(9) -0.09445(3)
N1 N 0.05094(8) 0.2252(3) 0.02633(11)
N2 N 0.10048(8) 0.1073(3) -0.05349(13)
H1 H 0.1317(13) 0.071(5) -0.0708(18)
N3 N 0.04582(8) 0.1274(3) -0.10955(12)
C1 C 0.01785(9) 0.1988(3) -0.05832(14)
C2 C 0.10279(9) 0.1661(4) 0.02547(15)
H2 H 0.1359 0.1662 0.0736
C3 C -0.07723(11) 0.1500(4) -0.19977(15)
H3 H -0.1174 0.1758 -0.2279
H4 H -0.0712 0.0104 -0.1925
H5 H -0.0553 0.2010 -0.2349
S2 S -0.17359(2) 0.42311(10) 0.27467(3)
N4 N -0.15987(8) 0.4248(3) 0.11026(12)
H6 H -0.1903(15) 0.450(5) 0.082(2)
N5 N -0.06743(8) 0.3679(3) 0.14334(11)
N6 N -0.08198(8) 0.3685(3) 0.21999(11)
C4 C -0.13755(9) 0.4033(3) 0.19780(14)
C5 C -0.11490(9) 0.4011(4) 0.07957(14)
H7 H -0.1174 0.4076 0.0210
C6 C -0.24732(9) 0.4479(4) 0.20528(15)
H8 H -0.2722 0.4590 0.2407
H9 H -0.2580 0.3340 0.1684
H10 H -0.2509 0.5639 0.1699
Ag1A Ag -0.023137(6) 0.33894(3) 0.361824(10)
Ag1D Ag -0.023137(6) 0.66106(3) -0.138176(10)
S1D S 0.05448(2) 0.73183(9) 0.09445(3)
N6A N 0.08198(8) 0.3685(3) 0.28001(11)
N7 N -0.26735(8) 0.5267(3) -0.06914(12)
O1 O -0.27181(7) 0.5047(3) 0.00611(10)
O2 O -0.21971(7) 0.5191(3) -0.08000(10)
O3 O -0.31229(7) 0.5539(3) -0.13178(10)
loop_
_geom_bond_atom_site_label_1
_geom_bond_atom_site_label_2
_geom_bond_site_symmetry_1
_geom_bond_site_symmetry_2
Ag1 N1 1_555 1_555
S1 C1 1_555 1_555
N1 C1 1_555 1_555
N2 H1 1_555 1_555
N3 N2 1_555 1_555
C1 N3 1_555 1_555
C2 N1 1_555 1_555
H2 C2 1_555 1_555
C3 S1 1_555 1_555
H3 C3 1_555 1_555
H4 C3 1_555 1_555
H5 C3 1_555 1_555
S2 C4 1_555 1_555
N4 H6 1_555 1_555
N5 Ag1 1_555 1_555
N6 N5 1_555 1_555
C4 N4 1_555 1_555
C5 N4 1_555 1_555
H7 C5 1_555 1_555
C6 S2 1_555 1_555
H8 C6 1_555 1_555
H9 C6 1_555 1_555
H10 C6 1_555 1_555
N7 O1 1_555 1_555
O2 N7 1_555 1_555
O3 N7 1_555 1_555
Ag1A N6 1_555 1_555
Ag1D S1 1_555 1_555
S1D Ag1 1_555 1_555
N6A Ag1 1_555 1_555
N2 C2 1_555 1_555
N5 C5 1_555 1_555
N6 C4 1_555 1_555

#END
