
#######################################################################
#
#                 Cambridge Crystallographic Data Centre
#                                CCDC 
#
#######################################################################
#
# If this CIF has been generated from an entry in the Cambridge 
# Structural Database, then it will include bibliographic, chemical, 
# crystal, experimental, refinement or atomic coordinate data resulting 
# from the CCDC's data processing and validation procedures.
#
#######################################################################

data_CUMFOG
_symmetry_cell_setting           monoclinic
_symmetry_space_group_name_H-M   'P 21/n'
_symmetry_Int_Tables_number      14
_space_group_name_Hall           '-P 2yn'
loop_
_symmetry_equiv_pos_site_id
_symmetry_equiv_pos_as_xyz
1 x,y,z
2 1/2-x,1/2+y,1/2-z
3 -x,-y,-z
4 1/2+x,1/2-y,1/2+z
_cell_length_a                   4.8922(10)
_cell_length_b                   11.420(2)
_cell_length_c                   14.253(3)
_cell_angle_alpha                90
_cell_angle_beta                 90.02(3)
_cell_angle_gamma                90
_cell_volume                     796.3
loop_
_atom_site_label
_atom_site_type_symbol
_atom_site_fract_x
_atom_site_fract_y
_atom_site_fract_z
Cu1 Cu 0.44090(9) 0.08008(4) 0.58539(3)
N1 N 0.5053(7) 0.4287(3) 0.6513(2)
N2 N 0.4595(9) -0.0898(3) 0.5509(3)
N3 N 0.4119(6) 0.2525(3) 0.6018(2)
C1 C 0.5673(9) 0.3152(4) 0.6567(3)
H1 H 0.7040 0.2845 0.6948
C2 C 0.2380(9) 0.3291(4) 0.5583(3)
H2 H 0.1033 0.3092 0.5150
C3 C 0.6367(9) 0.5209(4) 0.7054(3)
H3 H 0.6504 0.5906 0.6668
H4 H 0.8209 0.4963 0.7211
C4 C 0.2952(10) 0.4386(4) 0.5889(3)
H5 H 0.2081 0.5073 0.5708
N4 N 0.3435(10) -0.1688(3) 0.5891(3)
N5 N 0.2316(15) -0.2434(5) 0.6248(4)
C5 C 0.4851(8) 0.5516(3) 0.7957(3)
O1 O 0.6171(6) 0.5897(3) 0.8624(2)
O2 O 0.2287(5) 0.5396(3) 0.79402(19)
Cu1B Cu 0.55910(9) -0.08008(4) 0.41461(3)
Cu1A Cu 1.05910(9) 0.58008(4) 0.91461(3)
Cu1A_2 Cu 0.05910(9) 0.58008(4) 0.91461(3)
N2B N 0.5405(9) 0.0898(3) 0.4491(3)
O1A O 0.8829(6) 0.0897(3) 0.6376(2)
O2A O 0.2713(5) 0.0396(3) 0.70598(19)
loop_
_geom_bond_atom_site_label_1
_geom_bond_atom_site_label_2
_geom_bond_site_symmetry_1
_geom_bond_site_symmetry_2
Cu1 N2 1_555 1_555
N1 C1 1_555 1_555
N2 N4 1_555 1_555
N3 Cu1 1_555 1_555
C1 N3 1_555 1_555
H1 C1 1_555 1_555
C2 N3 1_555 1_555
H2 C2 1_555 1_555
C3 N1 1_555 1_555
H3 C3 1_555 1_555
H4 C3 1_555 1_555
C4 N1 1_555 1_555
H5 C4 1_555 1_555
N4 N5 1_555 1_555
C5 C3 1_555 1_555
O1 C5 1_555 1_555
O2 C5 1_555 1_555
Cu1B N2 1_555 1_555
Cu1A O1 1_555 1_555
Cu1A_2 O2 1_555 1_555
N2B Cu1 1_555 1_555
O1A Cu1 1_555 1_555
O2A Cu1 1_555 1_555
C2 C4 1_555 1_555
Cu1B N2B 1_555 1_555

#END
