
#######################################################################
#
#                 Cambridge Crystallographic Data Centre
#                                CCDC 
#
#######################################################################
#
# If this CIF has been generated from an entry in the Cambridge 
# Structural Database, then it will include bibliographic, chemical, 
# crystal, experimental, refinement or atomic coordinate data resulting 
# from the CCDC's data processing and validation procedures.
#
#######################################################################

data_CUMGAT
_symmetry_cell_setting           monoclinic
_symmetry_space_group_name_H-M   'P 21/n'
_symmetry_Int_Tables_number      14
_space_group_name_Hall           '-P 2yn'
loop_
_symmetry_equiv_pos_site_id
_symmetry_equiv_pos_as_xyz
1 x,y,z
2 1/2-x,1/2+y,1/2-z
3 -x,-y,-z
4 1/2+x,1/2-y,1/2+z
_cell_length_a                   8.7414(17)
_cell_length_b                   13.042(3)
_cell_length_c                   15.107(3)
_cell_angle_alpha                90
_cell_angle_beta                 97.99(3)
_cell_angle_gamma                90
_cell_volume                     1705.56
loop_
_atom_site_label
_atom_site_type_symbol
_atom_site_fract_x
_atom_site_fract_y
_atom_site_fract_z
Co1 Co 0.21300(4) 0.80997(3) 0.35427(2)
N1 N 0.2771(3) 0.49722(18) 0.40159(15)
N2 N 0.2012(3) 0.65813(19) 0.37346(16)
O1 O -0.6048(2) 0.87681(18) 0.41695(15)
N3 N 0.0396(3) 0.86421(18) 0.41529(15)
C1 C 0.0319(3) 0.8568(2) 0.50693(19)
N4 N -0.1951(3) 0.91031(19) 0.43902(17)
C2 C -0.4666(3) 0.8505(2) 0.4098(2)
C3 C -0.0869(4) 0.6208(3) 0.3573(2)
H1 H -0.1201 0.6878 0.3452
C4 C -0.1157(4) 0.8841(2) 0.5220(2)
C5 C 0.1456(4) 0.8281(2) 0.5771(2)
H2 H 0.2452 0.8106 0.5675
C6 C 0.3196(3) 0.5951(2) 0.39106(18)
H3 H 0.4220 0.6162 0.3957
C7 C 0.0693(3) 0.5964(2) 0.37191(19)
C8 C 0.1172(3) 0.4956(2) 0.38977(19)
C9 C 0.0127(4) 0.4160(3) 0.3936(2)
H4 H 0.0454 0.3490 0.4057
C10 C 0.3808(4) 0.4096(2) 0.41268(19)
H5 H 0.3439 0.3617 0.4541
H6 H 0.4825 0.4327 0.4390
C11 C -0.1411(4) 0.4411(3) 0.3786(2)
H7 H -0.2144 0.3897 0.3798
C12 C -0.3552(3) 0.9417(3) 0.4204(3)
C13 C -0.1906(4) 0.5420(3) 0.3615(2)
H8 H -0.2959 0.5562 0.3527
C14 C -0.0973(3) 0.8962(2) 0.3792(2)
H9 H -0.1237 0.9080 0.3182
C15 C 0.1016(6) 0.8272(3) 0.6613(2)
H10 H 0.1734 0.8086 0.7099
O2 O 0.2861(3) 0.3689(2) 0.26271(15)
C16 C 0.3950(4) 0.3533(3) 0.3248(2)
O3 O -0.4222(3) 0.76482(19) 0.39349(19)
O4 O 0.5071(4) 0.3003(3) 0.3200(2)
C17 C -0.1590(5) 0.8827(3) 0.6074(3)
H11 H -0.2579 0.9007 0.6178
C18 C -0.0465(6) 0.8531(3) 0.6752(3)
H12 H -0.0710 0.8505 0.7332
Co1_2 Co -0.78700(4) 0.80997(3) 0.35427(2)
Co1A Co 0.28700(4) 0.30997(3) 0.14573(2)
O1_2 O 0.3952(2) 0.87681(18) 0.41695(15)
O2A O 0.2139(3) 0.8689(2) 0.23729(15)
loop_
_geom_bond_atom_site_label_1
_geom_bond_atom_site_label_2
_geom_bond_site_symmetry_1
_geom_bond_site_symmetry_2
Co1 N2 1_555 1_555
N1 C6 1_555 1_555
N2 C6 1_555 1_555
O1 C2 1_555 1_555
N3 Co1 1_555 1_555
C1 N3 1_555 1_555
N4 C4 1_555 1_555
C2 C12 1_555 1_555
C3 H1 1_555 1_555
C4 C1 1_555 1_555
C5 C1 1_555 1_555
H2 C5 1_555 1_555
C6 H3 1_555 1_555
C7 N2 1_555 1_555
C8 N1 1_555 1_555
C9 C8 1_555 1_555
H4 C9 1_555 1_555
C10 N1 1_555 1_555
H5 C10 1_555 1_555
H6 C10 1_555 1_555
C11 C9 1_555 1_555
H7 C11 1_555 1_555
C12 N4 1_555 1_555
C13 C3 1_555 1_555
H8 C13 1_555 1_555
C14 N3 1_555 1_555
H9 C14 1_555 1_555
C15 C5 1_555 1_555
H10 C15 1_555 1_555
O2 C16 1_555 1_555
C16 C10 1_555 1_555
O3 C2 1_555 1_555
O4 C16 1_555 1_555
C17 C4 1_555 1_555
H11 C17 1_555 1_555
C18 C15 1_555 1_555
H12 C18 1_555 1_555
Co1_2 O1 1_555 1_555
Co1A O2 1_555 1_555
O1_2 Co1 1_555 1_555
O2A Co1 1_555 1_555
N4 C14 1_555 1_555
C3 C7 1_555 1_555
C7 C8 1_555 1_555
C11 C13 1_555 1_555
C17 C18 1_555 1_555

#END
