
#######################################################################
#
#                 Cambridge Crystallographic Data Centre
#                                CCDC 
#
#######################################################################
#
# If this CIF has been generated from an entry in the Cambridge 
# Structural Database, then it will include bibliographic, chemical, 
# crystal, experimental, refinement or atomic coordinate data resulting 
# from the CCDC's data processing and validation procedures.
#
#######################################################################

data_CUMHIB
_symmetry_cell_setting           monoclinic
_symmetry_space_group_name_H-M   'P 21/a'
_symmetry_Int_Tables_number      14
_space_group_name_Hall           '-P 2yab'
loop_
_symmetry_equiv_pos_site_id
_symmetry_equiv_pos_as_xyz
1 x,y,z
2 1/2-x,1/2+y,-z
3 -x,-y,-z
4 1/2+x,1/2-y,z
_cell_length_a                   10.907(5)
_cell_length_b                   8.502(3)
_cell_length_c                   11.083(4)
_cell_angle_alpha                90
_cell_angle_beta                 107.15(3)
_cell_angle_gamma                90
_cell_volume                     982.044
loop_
_atom_site_label
_atom_site_type_symbol
_atom_site_fract_x
_atom_site_fract_y
_atom_site_fract_z
Zn1 Zn 0.2168(1) 0.2358(1) -0.4035(1)
C1 C 0.3357(4) -0.0179(5) -0.1743(4)
C2 C 0.2747(4) 0.1233(5) -0.1269(4)
C3 C 0.2080(5) 0.0700(7) -0.0307(4)
C4 C 0.0856(5) -0.0091(6) -0.1156(4)
C5 C 0.1040(4) 0.0080(5) -0.2452(4)
C6 C 0.2106(4) -0.1028(5) -0.2596(4)
C7 C 0.4283(4) 0.0307(5) -0.2484(4)
C8 C 0.2110(4) -0.1156(5) -0.3958(4)
O1 O 0.3996(3) 0.1526(4) -0.3180(3)
O2 O 0.5251(3) -0.0512(3) -0.2385(4)
O3 O 0.2499(3) -0.2442(4) -0.4282(3)
O4 O 0.1744(4) -0.0015(4) -0.4677(3)
O5 O 0.1665(3) 0.1614(4) -0.2358(3)
O6 O 0.2473(4) 0.4516(5) -0.3044(4)
O7 O 0.0309(3) 0.3047(5) -0.4877(4)
O3A O 0.2501(3) 0.2558(4) -0.5718(3)
Zn1A Zn 0.2832(1) -0.2642(1) -0.5965(1)
loop_
_geom_bond_atom_site_label_1
_geom_bond_atom_site_label_2
_geom_bond_site_symmetry_1
_geom_bond_site_symmetry_2
Zn1 O1 1_555 1_555
C1 C2 1_555 1_555
C2 C3 1_555 1_555
C3 C4 1_555 1_555
C4 C5 1_555 1_555
C5 C6 1_555 1_555
C6 C1 1_555 1_555
C7 C1 1_555 1_555
C8 C6 1_555 1_555
O1 C7 1_555 1_555
O2 C7 1_555 1_555
O3 C8 1_555 1_555
O4 Zn1 1_555 1_555
O5 Zn1 1_555 1_555
O6 Zn1 1_555 1_555
O7 Zn1 1_555 1_555
O3A Zn1 1_555 1_555
Zn1A O3 1_555 1_555
C2 O5 1_555 1_555
C5 O5 1_555 1_555
C8 O4 1_555 1_555

#END
