
#######################################################################
#
#                 Cambridge Crystallographic Data Centre
#                                CCDC 
#
#######################################################################
#
# If this CIF has been generated from an entry in the Cambridge 
# Structural Database, then it will include bibliographic, chemical, 
# crystal, experimental, refinement or atomic coordinate data resulting 
# from the CCDC's data processing and validation procedures.
#
#######################################################################

data_CUMKOM
_symmetry_cell_setting           triclinic
_symmetry_space_group_name_H-M   'P -1'
_symmetry_Int_Tables_number      2
_space_group_name_Hall           '-P 1'
loop_
_symmetry_equiv_pos_site_id
_symmetry_equiv_pos_as_xyz
1 x,y,z
2 -x,-y,-z
_cell_length_a                   9.333(3)
_cell_length_b                   12.059(3)
_cell_length_c                   12.461(4)
_cell_angle_alpha                61.478(4)
_cell_angle_beta                 87.962(4)
_cell_angle_gamma                77.131(4)
_cell_volume                     1197.17
loop_
_atom_site_label
_atom_site_type_symbol
_atom_site_fract_x
_atom_site_fract_y
_atom_site_fract_z
Mn1 Mn 1.0000 0.5000 1.0000
Mn2 Mn 0.79918(10) 0.82734(10) 0.82469(8)
O1 O 0.0291(4) 0.6875(4) 0.9516(4)
O2 O 0.8897(5) 0.5838(4) 1.8072(4)
C1 C 0.7343(8) 1.1260(8) 0.6499(7)
H1 H 0.8242 1.1152 0.6878
O3 O 0.7982(5) 0.5547(5) 1.0760(4)
C2 C 0.5193(8) 0.7061(7) 0.8199(6)
H2 H 0.5821 0.6282 0.8751
O4 O -0.0282(5) 0.9006(4) 0.8731(4)
C3 C 0.6709(9) 1.2475(8) 0.5510(7)
H3 H 0.7164 1.3165 0.5238
O5 O 0.9007(5) 0.7896(5) 1.6904(4)
C4 C 0.7434(7) 0.6562(7) 1.0816(6)
N1 N 0.5717(6) 0.8115(6) 0.7681(5)
O6 O 0.7159(5) 0.7704(5) 0.9914(4)
N2 N 0.6729(6) 1.0261(5) 0.6920(5)
C5 C 0.4779(7) 0.9266(7) 0.6897(5)
C6 C 0.8362(7) 0.5751(6) 1.5837(5)
H4 H 0.8073 0.5114 1.6541
C7 C 0.4041(7) 0.6505(7) 1.1510(6)
H5 H 0.4629 0.5688 1.2024
C8 C 0.2758(7) 0.6614(7) 1.0879(6)
H6 H 0.2508 0.5869 1.0975
C9 C 0.8975(7) 0.6790(7) 1.7056(6)
C10 C 0.8939(7) 0.6681(6) 1.5897(5)
C11 C 0.5414(7) 1.0422(6) 0.6365(5)
C12 C 0.9365(7) 0.7613(7) 1.4845(5)
H7 H 0.9732 0.8258 1.4870
C13 C 0.3341(8) 0.9308(8) 0.6625(7)
H8 H 0.2726 1.0092 0.6068
C14 C 0.4742(8) 1.1591(7) 0.5392(6)
H9 H 0.3838 1.1686 0.5028
C15 C 0.4440(7) 0.7599(7) 1.1375(6)
C16 C 0.7168(7) 0.6494(7) 1.2060(5)
H10 H 0.7039 0.5627 1.2645
C17 C 0.8210(7) 0.5767(6) 1.4708(5)
H11 H 0.7790 0.5155 1.4670
C18 C 0.8672(7) 0.6672(6) 1.3666(5)
C19 C 0.0545(7) 0.7902(7) 0.9410(5)
C20 C 0.9249(7) 0.7596(7) 1.3749(6)
H12 H 0.9566 0.8219 1.3051
C21 C 0.1866(7) 0.7813(6) 1.0121(5)
C22 C 0.2233(7) 0.8898(7) 1.0020(6)
H13 H 0.1624 0.9713 0.9530
C23 C 0.5838(7) 0.7504(7) 1.2023(6)
H14 H 0.5647 0.7307 1.2858
H15 H 0.6081 0.8345 1.1621
C24 C 0.8602(7) 0.6683(7) 1.2448(5)
H16 H 0.9410 0.6003 1.2475
H17 H 0.8768 0.7504 1.1815
C25 C 0.2810(8) 0.8209(8) 0.7165(7)
H18 H 0.1834 0.8241 0.6998
C26 C 0.3516(8) 0.8786(7) 1.0649(6)
H19 H 0.3746 0.9531 1.0572
C27 C 0.5390(9) 1.2612(7) 0.4956(7)
H20 H 0.4942 1.3399 0.4286
C28 C 0.3754(9) 0.7058(8) 0.7962(7)
H21 H 0.3433 0.6290 0.8335
Mn2A Mn 0.20082(10) 0.17266(10) 1.17531(8)
O1A O 0.9709(4) 0.3125(4) 1.0484(4)
O2A O 0.1103(5) 0.4162(4) 0.1928(4)
C1A C 0.2657(8) -0.1260(8) 1.3501(7)
H1A H 0.1758 -0.1152 1.3122
O3A O 0.2018(5) 0.4453(5) 0.9240(4)
C2A C 0.4807(8) 0.2939(7) 1.1801(6)
H2A H 0.4179 0.3718 1.1249
O4A O 1.0282(5) 0.0994(4) 1.1269(4)
C3A C 0.3291(9) -0.2475(8) 1.4490(7)
H3A H 0.2836 -0.3165 1.4762
O5A O 0.0993(5) 0.2104(5) 0.3096(4)
C4A C 0.2566(7) 0.3438(7) 0.9184(6)
N1A N 0.4283(6) 0.1885(6) 1.2319(5)
O6A O 0.2841(5) 0.2296(5) 1.0086(4)
N2A N 0.3271(6) -0.0261(5) 1.3080(5)
C5A C 0.5221(7) 0.0734(7) 1.3103(5)
C6A C 0.1638(7) 0.4249(6) 0.4163(5)
H4A H 0.1927 0.4886 0.3459
C7A C 0.5959(7) 0.3495(7) 0.8490(6)
H5A H 0.5371 0.4312 0.7976
C8A C 0.7242(7) 0.3386(7) 0.9121(6)
H6A H 0.7492 0.4131 0.9025
C9A C 0.1025(7) 0.3210(7) 0.2944(6)
C10A C 0.1061(7) 0.3319(6) 0.4103(5)
C11A C 0.4586(7) -0.0422(6) 1.3635(5)
C12A C 0.0635(7) 0.2387(7) 0.5155(5)
H7A H 0.0268 0.1742 0.5130
C13A C 0.6659(8) 0.0692(8) 1.3375(7)
H8A H 0.7274 -0.0092 1.3932
C14A C 0.5258(8) -0.1591(7) 1.4608(6)
H9A H 0.6162 -0.1686 1.4972
C15A C 0.5560(7) 0.2401(7) 0.8625(6)
C16A C 0.2832(7) 0.3506(7) 0.7940(5)
H10A H 0.2961 0.4373 0.7355
C17A C 0.1790(7) 0.4233(6) 0.5292(5)
H11A H 0.2210 0.4845 0.5330
C18A C 0.1328(7) 0.3328(6) 0.6334(5)
C19A C 0.9455(7) 0.2098(7) 1.0590(5)
C20A C 0.0751(7) 0.2404(7) 0.6251(6)
H12A H 0.0434 0.1781 0.6949
C21A C 0.8134(7) 0.2187(6) 0.9879(5)
C22A C 0.7767(7) 0.1102(7) 0.9980(6)
H13A H 0.8376 0.0287 1.0470
C23A C 0.4162(7) 0.2496(7) 0.7977(6)
H14A H 0.4353 0.2693 0.7142
H15A H 0.3919 0.1655 0.8379
C24A C 0.1398(7) 0.3317(7) 0.7552(5)
H16A H 0.0590 0.3997 0.7525
H17A H 0.1232 0.2496 0.8185
C25A C 0.7190(8) 0.1791(8) 1.2835(7)
H18A H 0.8166 0.1759 1.3002
C26A C 0.6484(8) 0.1214(7) 0.9351(6)
H19A H 0.6254 0.0469 0.9428
C27A C 0.4610(9) -0.2612(7) 1.5044(7)
H20A H 0.5058 -0.3399 1.5714
C28A C 0.6246(9) 0.2942(8) 1.2038(7)
H21A H 0.6567 0.3710 1.1665
Mn1_2 Mn 0.0000 0.5000 0.0000
Mn1_3 Mn 0.0000 0.5000 1.0000
Mn1_4 Mn 1.0000 0.5000 2.0000
Mn2_2 Mn -0.20082(10) 0.82734(10) 0.82469(8)
Mn2_3 Mn 0.79918(10) 0.82734(10) 1.82469(8)
Mn2A_2 Mn 0.20082(10) 0.17266(10) 0.17531(8)
Mn2A_3 Mn 1.20082(10) 0.17266(10) 1.17531(8)
O1_2 O 1.0291(4) 0.6875(4) 0.9516(4)
O1A_2 O -0.0291(4) 0.3125(4) 1.0484(4)
O2_2 O 0.8897(5) 0.5838(4) 0.8072(4)
O2A_2 O 1.1103(5) 0.4162(4) 1.1928(4)
O3A_2 O 1.2018(5) 0.4453(5) 0.9240(4)
O4_2 O 0.9718(5) 0.9006(4) 0.8731(4)
O4A_2 O 0.0282(5) 0.0994(4) 1.1269(4)
O5_2 O 0.9007(5) 0.7896(5) 0.6904(4)
O5A_2 O 0.0993(5) 0.2104(5) 1.3096(4)
loop_
_geom_bond_atom_site_label_1
_geom_bond_atom_site_label_2
_geom_bond_site_symmetry_1
_geom_bond_site_symmetry_2
Mn1 O3 1_555 1_555
Mn2 N1 1_555 1_555
O1 C19 1_555 1_555
O2 C9 1_555 1_555
C1 H1 1_555 1_555
O3 C4 1_555 1_555
C2 H2 1_555 1_555
O4 C19 1_555 1_555
C3 C1 1_555 1_555
H3 C3 1_555 1_555
O5 C9 1_555 1_555
C4 O6 1_555 1_555
N1 C2 1_555 1_555
O6 Mn2 1_555 1_555
N2 Mn2 1_555 1_555
C5 N1 1_555 1_555
C6 H4 1_555 1_555
C7 H5 1_555 1_555
C8 C7 1_555 1_555
H6 C8 1_555 1_555
C9 C10 1_555 1_555
C10 C6 1_555 1_555
C11 N2 1_555 1_555
C12 C10 1_555 1_555
H7 C12 1_555 1_555
C13 C5 1_555 1_555
H8 C13 1_555 1_555
C14 C11 1_555 1_555
H9 C14 1_555 1_555
C15 C7 1_555 1_555
C16 C4 1_555 1_555
H10 C16 1_555 1_555
C17 C6 1_555 1_555
H11 C17 1_555 1_555
C18 C17 1_555 1_555
C19 C21 1_555 1_555
C20 C12 1_555 1_555
H12 C20 1_555 1_555
C21 C8 1_555 1_555
C22 C21 1_555 1_555
H13 C22 1_555 1_555
C23 C15 1_555 1_555
H14 C23 1_555 1_555
H15 C23 1_555 1_555
C24 C16 1_555 1_555
H16 C24 1_555 1_555
H17 C24 1_555 1_555
C25 C13 1_555 1_555
H18 C25 1_555 1_555
C26 C15 1_555 1_555
H19 C26 1_555 1_555
C27 C3 1_555 1_555
H20 C27 1_555 1_555
C28 C2 1_555 1_555
H21 C28 1_555 1_555
Mn2A N1A 1_555 1_555
O1A Mn1 1_555 1_555
O2A C9A 1_555 1_555
C1A H1A 1_555 1_555
O3A C4A 1_555 1_555
C2A H2A 1_555 1_555
O4A C19A 1_555 1_555
C3A C1A 1_555 1_555
H3A C3A 1_555 1_555
O5A C9A 1_555 1_555
C4A O6A 1_555 1_555
N1A C2A 1_555 1_555
O6A Mn2A 1_555 1_555
N2A Mn2A 1_555 1_555
C5A N1A 1_555 1_555
C6A H4A 1_555 1_555
C7A H5A 1_555 1_555
C8A C7A 1_555 1_555
H6A C8A 1_555 1_555
C9A C10A 1_555 1_555
C10A C6A 1_555 1_555
C11A N2A 1_555 1_555
C12A C10A 1_555 1_555
H7A C12A 1_555 1_555
C13A C5A 1_555 1_555
H8A C13A 1_555 1_555
C14A C11A 1_555 1_555
H9A C14A 1_555 1_555
C15A C7A 1_555 1_555
C16A C4A 1_555 1_555
H10A C16A 1_555 1_555
C17A C6A 1_555 1_555
H11A C17A 1_555 1_555
C18A C17A 1_555 1_555
C19A O1A 1_555 1_555
C20A C12A 1_555 1_555
H12A C20A 1_555 1_555
C21A C8A 1_555 1_555
C22A C21A 1_555 1_555
H13A C22A 1_555 1_555
C23A C15A 1_555 1_555
H14A C23A 1_555 1_555
H15A C23A 1_555 1_555
C24A C16A 1_555 1_555
H16A C24A 1_555 1_555
H17A C24A 1_555 1_555
C25A C13A 1_555 1_555
H18A C25A 1_555 1_555
C26A C15A 1_555 1_555
H19A C26A 1_555 1_555
C27A C3A 1_555 1_555
H20A C27A 1_555 1_555
C28A C2A 1_555 1_555
H21A C28A 1_555 1_555
Mn1_2 O2A 1_555 1_555
Mn1_3 O1 1_555 1_555
Mn1_4 O2 1_555 1_555
Mn2_2 O1 1_555 1_555
Mn2_3 O5 1_555 1_555
Mn2A_2 O5A 1_555 1_555
Mn2A_3 O1A 1_555 1_555
O1_2 Mn1 1_555 1_555
O1A_2 Mn2A 1_555 1_555
O2_2 Mn1 1_555 1_555
O2A_2 Mn1 1_555 1_555
O3A_2 Mn1 1_555 1_555
O4_2 Mn2 1_555 1_555
O4A_2 Mn2A 1_555 1_555
O5_2 Mn2 1_555 1_555
O5A_2 Mn2A 1_555 1_555
Mn2 O1_2 1_555 1_555
C1 N2 1_555 1_555
O4 Mn2_2 1_555 1_555
C5 C11 1_555 1_555
C14 C27 1_555 1_555
C16 C23 1_555 1_555
C18 C20 1_555 1_555
C18 C24 1_555 1_555
C22 C26 1_555 1_555
C25 C28 1_555 1_555
C1A N2A 1_555 1_555
O3A Mn1_3 1_555 1_555
O4A Mn2A_3 1_555 1_555
C5A C11A 1_555 1_555
C14A C27A 1_555 1_555
C16A C23A 1_555 1_555
C18A C20A 1_555 1_555
C18A C24A 1_555 1_555
C19A C21A 1_555 1_555
C22A C26A 1_555 1_555
C25A C28A 1_555 1_555
Mn1_3 O1A_2 1_555 1_555

#END
