
#######################################################################
#
#                 Cambridge Crystallographic Data Centre
#                                CCDC 
#
#######################################################################
#
# If this CIF has been generated from an entry in the Cambridge 
# Structural Database, then it will include bibliographic, chemical, 
# crystal, experimental, refinement or atomic coordinate data resulting 
# from the CCDC's data processing and validation procedures.
#
#######################################################################

data_CUMLED
_symmetry_cell_setting           triclinic
_symmetry_space_group_name_H-M   'P -1'
_symmetry_Int_Tables_number      2
_space_group_name_Hall           '-P 1'
loop_
_symmetry_equiv_pos_site_id
_symmetry_equiv_pos_as_xyz
1 x,y,z
2 -x,-y,-z
_cell_length_a                   9.055(5)
_cell_length_b                   9.442(5)
_cell_length_c                   10.035(5)
_cell_angle_alpha                81.090(5)
_cell_angle_beta                 63.335(5)
_cell_angle_gamma                82.070(5)
_cell_volume                     755.185
loop_
_atom_site_label
_atom_site_type_symbol
_atom_site_fract_x
_atom_site_fract_y
_atom_site_fract_z
Cd1 Cd 0.0000 0.5000 0.5000
O1 O 0.14064(19) 0.33522(17) 0.6168(2)
O2 O 0.0451(2) 0.13454(19) 0.6301(2)
O3 O 0.0590(3) 0.1927(2) 0.8209(2)
N1 N 0.11508(18) 0.38091(16) 0.28796(17)
N2 N 0.26207(19) 0.22316(16) 0.12914(16)
N3 N 0.23669(18) 0.62038(17) 0.41512(18)
N4 N 0.08030(19) 0.22064(19) 0.69084(19)
N5 N 0.39525(18) 0.76731(16) 0.43020(18)
C1 C 0.0930(3) 0.4159(2) 0.1607(2)
H1 H 0.0265 0.4943 0.1445
C2 C 0.1823(3) 0.3195(2) 0.0618(2)
H2 H 0.1884 0.3187 -0.0331
C3 C 0.2172(2) 0.2641(2) 0.2654(2)
H3 H 0.2536 0.2160 0.3348
C4 C 0.5508(2) 0.13875(19) -0.01015(19)
C5 C 0.3853(2) 0.10874(19) 0.06210(18)
C6 C 0.3335(2) -0.0254(2) 0.0732(2)
H4 H 0.2212 -0.0402 0.1227
C7 C 0.6049(3) 0.2854(2) -0.0204(3)
H5 H 0.5502 0.3555 -0.0669
H6 H 0.7227 0.2854 -0.0793
H7 H 0.5762 0.3088 0.0785
C8 C 0.2411(2) 0.7456(2) 0.4541(2)
H8 H 0.1495 0.8110 0.4932
C9 C 0.3963(2) 0.5595(2) 0.3630(2)
H9 H 0.4308 0.4696 0.3276
C10 C 0.4963(2) 0.6485(2) 0.3704(2)
H10 H 0.6098 0.6328 0.3411
C11 C 0.4450(2) 0.88793(18) 0.4683(2)
C12 C 0.5702(2) 0.9641(2) 0.3555(2)
H11 H 0.6161 0.9380 0.2584
C13 C 0.3708(2) 0.92074(19) 0.6162(2)
C14 C 0.2329(3) 0.8403(2) 0.7421(2)
H12 H 0.1308 0.8687 0.7343
H13 H 0.2216 0.8622 0.8366
H14 H 0.2585 0.7388 0.7353
N1A N 0.88492(18) -0.38091(16) -0.28796(17)
N2A N 0.73793(19) -0.22316(16) -0.12914(16)
C1A C 0.9070(3) -0.4159(2) -0.1607(2)
H1A H 0.9735 -0.4943 -0.1445
C2A C 0.8177(3) -0.3195(2) -0.0618(2)
H2A H 0.8116 -0.3187 0.0331
C3A C 0.7828(2) -0.2641(2) -0.2654(2)
H3A H 0.7464 -0.2160 -0.3348
C4A C 0.4492(2) -0.13875(19) 0.01015(19)
C5A C 0.6147(2) -0.10874(19) -0.06210(18)
C6A C 0.6665(2) 0.0254(2) -0.0732(2)
H4A H 0.7788 0.0402 -0.1227
C7A C 0.3951(3) -0.2854(2) 0.0204(3)
H5A H 0.4498 -0.3555 0.0669
H6A H 0.2773 -0.2854 0.0793
H7A H 0.4238 -0.3088 -0.0785
N3A N 0.76331(18) 1.37962(17) 0.58488(18)
N5A N 0.60475(18) 1.23269(16) 0.56980(18)
C8A C 0.7589(2) 1.2544(2) 0.5459(2)
H8A H 0.8505 1.1890 0.5068
C9A C 0.6037(2) 1.4405(2) 0.6370(2)
H9A H 0.5692 1.5304 0.6724
C10A C 0.5037(2) 1.3515(2) 0.6296(2)
H10A H 0.3902 1.3672 0.6589
C11A C 0.5550(2) 1.11207(18) 0.5317(2)
C12A C 0.4298(2) 1.0359(2) 0.6445(2)
H11A H 0.3839 1.0620 0.7416
C13A C 0.6292(2) 1.07926(19) 0.3838(2)
C14A C 0.7671(3) 1.1597(2) 0.2579(2)
H12A H 0.8692 1.1313 0.2657
H13A H 0.7784 1.1378 0.1634
H14A H 0.7415 1.2612 0.2647
O1A O -0.14064(19) 0.66478(17) 0.3832(2)
O2A O -0.0451(2) 0.86546(19) 0.3699(2)
O3A O -0.0590(3) 0.8073(2) 0.1791(2)
N4A N -0.08030(19) 0.77936(19) 0.30916(19)
Cd1_2 Cd 1.0000 -0.5000 -0.5000
Cd1_3 Cd 1.0000 1.5000 0.5000
N1A_2 N -0.11508(18) 0.61909(16) 0.71204(17)
N3A_2 N -0.23669(18) 0.37962(17) 0.58488(18)
loop_
_geom_bond_atom_site_label_1
_geom_bond_atom_site_label_2
_geom_bond_site_symmetry_1
_geom_bond_site_symmetry_2
Cd1 O1 1_555 1_555
O1 N4 1_555 1_555
O2 N4 1_555 1_555
O3 N4 1_555 1_555
N1 Cd1 1_555 1_555
N2 C2 1_555 1_555
N3 Cd1 1_555 1_555
N5 C8 1_555 1_555
C1 N1 1_555 1_555
H1 C1 1_555 1_555
C2 C1 1_555 1_555
H2 C2 1_555 1_555
C3 N1 1_555 1_555
H3 C3 1_555 1_555
C4 C5 1_555 1_555
C5 N2 1_555 1_555
C6 C5 1_555 1_555
H4 C6 1_555 1_555
C7 C4 1_555 1_555
H5 C7 1_555 1_555
H6 C7 1_555 1_555
H7 C7 1_555 1_555
C8 N3 1_555 1_555
H8 C8 1_555 1_555
C9 N3 1_555 1_555
H9 C9 1_555 1_555
C10 N5 1_555 1_555
H10 C10 1_555 1_555
C11 N5 1_555 1_555
C12 C11 1_555 1_555
H11 C12 1_555 1_555
C13 C11 1_555 1_555
C14 C13 1_555 1_555
H12 C14 1_555 1_555
H13 C14 1_555 1_555
H14 C14 1_555 1_555
N1A C1A 1_555 1_555
N2A C2A 1_555 1_555
C1A H1A 1_555 1_555
C2A C1A 1_555 1_555
H2A C2A 1_555 1_555
C3A N1A 1_555 1_555
H3A C3A 1_555 1_555
C4A C6 1_555 1_555
C5A N2A 1_555 1_555
C6A C4 1_555 1_555
H4A C6A 1_555 1_555
C7A C4A 1_555 1_555
H5A C7A 1_555 1_555
H6A C7A 1_555 1_555
H7A C7A 1_555 1_555
N3A C8A 1_555 1_555
N5A C8A 1_555 1_555
C8A H8A 1_555 1_555
C9A N3A 1_555 1_555
H9A C9A 1_555 1_555
C10A N5A 1_555 1_555
H10A C10A 1_555 1_555
C11A N5A 1_555 1_555
C12A C13 1_555 1_555
H11A C12A 1_555 1_555
C13A C12 1_555 1_555
C14A C13A 1_555 1_555
H12A C14A 1_555 1_555
H13A C14A 1_555 1_555
H14A C14A 1_555 1_555
O1A Cd1 1_555 1_555
O2A N4A 1_555 1_555
O3A N4A 1_555 1_555
N4A O1A 1_555 1_555
Cd1_2 N1A 1_555 1_555
Cd1_3 N3A 1_555 1_555
N1A_2 Cd1 1_555 1_555
N3A_2 Cd1 1_555 1_555
N2 C3 1_555 1_555
C9 C10 1_555 1_555
N2A C3A 1_555 1_555
C4A C5A 1_555 1_555
C5A C6A 1_555 1_555
C9A C10A 1_555 1_555
C11A C12A 1_555 1_555
C11A C13A 1_555 1_555

#END
