
#######################################################################
#
#                 Cambridge Crystallographic Data Centre
#                                CCDC 
#
#######################################################################
#
# If this CIF has been generated from an entry in the Cambridge 
# Structural Database, then it will include bibliographic, chemical, 
# crystal, experimental, refinement or atomic coordinate data resulting 
# from the CCDC's data processing and validation procedures.
#
#######################################################################

data_CUMSAF
_symmetry_cell_setting           monoclinic
_symmetry_space_group_name_H-M   'P 21/n'
_symmetry_Int_Tables_number      14
_space_group_name_Hall           '-P 2yn'
loop_
_symmetry_equiv_pos_site_id
_symmetry_equiv_pos_as_xyz
1 x,y,z
2 1/2-x,1/2+y,1/2-z
3 -x,-y,-z
4 1/2+x,1/2-y,1/2+z
_cell_length_a                   14.510(3)
_cell_length_b                   18.438(4)
_cell_length_c                   18.273(4)
_cell_angle_alpha                90
_cell_angle_beta                 113.02(3)
_cell_angle_gamma                90
_cell_volume                     4499.38
loop_
_atom_site_label
_atom_site_type_symbol
_atom_site_fract_x
_atom_site_fract_y
_atom_site_fract_z
Cd1 Cd 0.860360(18) 0.795574(13) 0.568966(15)
Cd2 Cd 0.386720(18) 1.313430(13) 0.558970(15)
C1 C 0.9820(5) 0.9519(3) 0.2027(4)
H1 H 1.0206 0.9796 0.1828
C2 C 0.9283(5) 0.8951(4) 0.1604(4)
H2 H 0.9310 0.8836 0.1117
C3 C 0.8696(4) 0.8541(3) 0.1886(3)
H3 H 0.8331 0.8153 0.1588
C4 C 0.8646(3) 0.8703(2) 0.2603(3)
O1 O 0.5045(2) 1.35284(15) 0.68342(16)
C5 C 0.9208(4) 0.9276(2) 0.3047(3)
H4 H 0.9192 0.9386 0.3538
C6 C 0.9794(4) 0.9685(3) 0.2757(4)
H5 H 1.0168 1.0072 0.3053
O2 O 0.4839(2) 1.38865(15) 0.51177(17)
C7 C 0.7978(3) 0.8263(2) 0.2868(3)
H6 H 0.7503 0.7981 0.2481
C8 C 0.7979(3) 0.8226(2) 0.3575(2)
H7 H 0.8441 0.8501 0.3979
C9 C 0.7265(3) 0.77583(19) 0.3760(2)
C10 C 1.0344(3) 0.8694(2) 0.6063(3)
C11 C 1.1354(3) 0.9007(2) 0.6250(3)
H8 H 1.1429 0.9377 0.5931
C12 C 1.2147(3) 0.8776(2) 0.6857(3)
H9 H 1.2040 0.8421 0.7177
C13 C 1.3185(3) 0.9024(3) 0.7075(3)
C14 C 1.3402(4) 0.9717(3) 0.6904(3)
H10 H 1.2885 1.0036 0.6633
C15 C 1.4382(5) 0.9937(4) 0.7134(4)
H11 H 1.4515 1.0409 0.7024
C16 C 1.5158(5) 0.9482(6) 0.7517(4)
H12 H 1.5816 0.9635 0.7656
C17 C 1.4958(4) 0.8805(5) 0.7693(4)
H13 H 1.5483 0.8489 0.7959
C18 C 1.3970(4) 0.8571(3) 0.7480(3)
H14 H 1.3844 0.8105 0.7613
C19 C 0.5308(3) 1.17726(19) 0.6270(2)
H15 H 0.5220 1.1912 0.6727
C20 C 0.5036(4) 1.1963(2) 0.4973(3)
H16 H 0.4754 1.2239 0.4512
C21 C 0.5593(3) 1.1363(2) 0.4956(2)
H17 H 0.5682 1.1242 0.4494
C22 C 0.5878(3) 1.11659(19) 0.6302(2)
H18 H 0.6166 1.0907 0.6774
C23 C 0.6022(3) 1.09423(19) 0.5634(2)
C24 C 0.6609(3) 1.02788(19) 0.5644(2)
C25 C 0.6750(5) 0.9747(3) 0.6180(3)
H19 H 0.6477 0.9794 0.6560
C26 C 0.7291(5) 0.9130(3) 0.6178(3)
H20 H 0.7370 0.8778 0.6562
C27 C 0.7588(7) 0.9540(4) 0.5182(4)
H21 H 0.7892 0.9491 0.4821
C28 C 0.7065(7) 1.0169(4) 0.5148(4)
H22 H 0.7028 1.0522 0.4773
C29 C 0.7413(3) 0.7176(2) 0.6476(2)
C30 C 0.7040(3) 0.7076(2) 0.7118(2)
H23 H 0.6538 0.6737 0.7049
C31 C 0.7400(3) 0.7453(2) 0.7783(2)
H24 H 0.7895 0.7787 0.7818
C32 C 0.7131(3) 0.7418(2) 0.8476(2)
C33 C 0.7568(4) 0.7904(3) 0.9087(3)
H25 H 0.8018 0.8246 0.9047
C34 C 0.7350(4) 0.7893(3) 0.9756(3)
H26 H 0.7642 0.8233 1.0156
C35 C 0.6705(5) 0.7385(3) 0.9835(3)
H27 H 0.6573 0.7368 1.0294
C36 C 0.6261(4) 0.6908(3) 0.9234(3)
H28 H 0.5811 0.6569 0.9280
C37 C 0.6464(4) 0.6915(3) 0.8557(3)
H29 H 0.6154 0.6582 0.8153
C38 C 1.2312(3) 0.4457(2) 0.4894(2)
H30 H 1.2371 0.4319 0.4424
C39 C 1.1680(3) 0.5024(2) 0.4873(2)
H31 H 1.1335 0.5265 0.4396
C40 C 1.1557(3) 0.52387(18) 0.5556(2)
C41 C 1.2113(3) 0.4864(2) 0.6241(2)
H32 H 1.2062 0.4985 0.6718
C42 C 1.2743(3) 0.4311(2) 0.6223(2)
H33 H 1.3117 0.4075 0.6696
C43 C 1.0860(2) 0.58310(18) 0.5557(2)
C44 C 1.0193(3) 0.6141(2) 0.4870(2)
H34 H 1.0169 0.5982 0.4380
C45 C 1.0854(4) 0.6108(2) 0.6256(2)
H35 H 1.1288 0.5920 0.6740
C46 C 1.0210(4) 0.6660(2) 0.6241(3)
H36 H 1.0230 0.6838 0.6724
C47 C 0.9558(3) 0.6687(2) 0.4902(2)
H37 H 0.9106 0.6877 0.4426
N2 N 0.4877(2) 1.21693(16) 0.56117(18)
N3 N 0.7692(2) 0.90171(17) 0.5668(2)
N4 N 0.9560(2) 0.69538(16) 0.55749(19)
N5 N 1.2841(2) 0.40981(15) 0.55606(17)
O3 O 0.6885(3) 0.69503(17) 0.58007(16)
O4 O 0.8233(2) 0.75018(17) 0.66535(17)
O5 O 1.0132(2) 0.84033(16) 0.65977(16)
O6 O 0.9732(2) 0.87218(17) 0.53499(18)
O7 O 0.6557(2) 0.74549(18) 0.32480(17)
O8 O 0.74269(19) 0.76749(14) 0.44922(15)
Cd2_2 Cd 1.386720(18) 0.313430(13) 0.558970(15)
Cd2B Cd 0.613280(18) 0.686570(13) 0.441030(15)
N5_2 N 0.2841(2) 1.40981(15) 0.55606(17)
O3B O 0.3115(3) 1.30497(17) 0.41993(16)
O8B O 0.25731(19) 1.23251(14) 0.55078(15)
N1 N 0.6860(3) 0.48397(19) 0.6593(2)
O9 O 0.7555(3) 0.5274(2) 0.6858(2)
O10 O 0.6152(2) 0.49642(19) 0.5944(2)
O11 O 0.6827(3) 0.42774(19) 0.6951(2)
loop_
_geom_bond_atom_site_label_1
_geom_bond_atom_site_label_2
_geom_bond_site_symmetry_1
_geom_bond_site_symmetry_2
Cd1 N3 1_555 1_555
Cd2 O1 1_555 1_555
C1 H1 1_555 1_555
C2 C1 1_555 1_555
H2 C2 1_555 1_555
C3 C2 1_555 1_555
H3 C3 1_555 1_555
C4 C3 1_555 1_555
C5 C4 1_555 1_555
H4 C5 1_555 1_555
C6 C1 1_555 1_555
H5 C6 1_555 1_555
O2 Cd2 1_555 1_555
C7 C4 1_555 1_555
H6 C7 1_555 1_555
C8 C7 1_555 1_555
H7 C8 1_555 1_555
C9 C8 1_555 1_555
C10 C11 1_555 1_555
C11 H8 1_555 1_555
C12 C11 1_555 1_555
H9 C12 1_555 1_555
C13 C12 1_555 1_555
C14 C13 1_555 1_555
H10 C14 1_555 1_555
C15 C14 1_555 1_555
H11 C15 1_555 1_555
C16 C15 1_555 1_555
H12 C16 1_555 1_555
C17 C16 1_555 1_555
H13 C17 1_555 1_555
C18 C13 1_555 1_555
H14 C18 1_555 1_555
C19 H15 1_555 1_555
C20 H16 1_555 1_555
C21 C20 1_555 1_555
H17 C21 1_555 1_555
C22 C19 1_555 1_555
H18 C22 1_555 1_555
C23 C21 1_555 1_555
C24 C23 1_555 1_555
C25 C24 1_555 1_555
H19 C25 1_555 1_555
C26 C25 1_555 1_555
H20 C26 1_555 1_555
C27 H21 1_555 1_555
C28 C24 1_555 1_555
H22 C28 1_555 1_555
C29 C30 1_555 1_555
C30 H23 1_555 1_555
C31 C30 1_555 1_555
H24 C31 1_555 1_555
C32 C31 1_555 1_555
C33 C32 1_555 1_555
H25 C33 1_555 1_555
C34 C33 1_555 1_555
H26 C34 1_555 1_555
C35 C34 1_555 1_555
H27 C35 1_555 1_555
C36 C35 1_555 1_555
H28 C36 1_555 1_555
C37 C32 1_555 1_555
H29 C37 1_555 1_555
C38 H30 1_555 1_555
C39 C38 1_555 1_555
H31 C39 1_555 1_555
C40 C39 1_555 1_555
C41 C40 1_555 1_555
H32 C41 1_555 1_555
C42 C41 1_555 1_555
H33 C42 1_555 1_555
C43 C40 1_555 1_555
C44 C43 1_555 1_555
H34 C44 1_555 1_555
C45 C43 1_555 1_555
H35 C45 1_555 1_555
C46 C45 1_555 1_555
H36 C46 1_555 1_555
C47 C44 1_555 1_555
H37 C47 1_555 1_555
N1 O9 1_555 1_555
N2 Cd2 1_555 1_555
N3 C26 1_555 1_555
N4 Cd1 1_555 1_555
N5 C38 1_555 1_555
O3 C29 1_555 1_555
O4 Cd1 1_555 1_555
O5 Cd1 1_555 1_555
O6 Cd1 1_555 1_555
O7 C9 1_555 1_555
O8 Cd1 1_555 1_555
O10 N1 1_555 1_555
O11 N1 1_555 1_555
Cd2_2 N5 1_555 1_555
Cd2B O3 1_555 1_555
N5_2 Cd2 1_555 1_555
O3B Cd2 1_555 1_555
O8B Cd2 1_555 1_555
C5 C6 1_555 1_555
C9 O8 1_555 1_555
C10 O5 1_555 1_555
C10 O6 1_555 1_555
C17 C18 1_555 1_555
C19 N2 1_555 1_555
C20 N2 1_555 1_555
C22 C23 1_555 1_555
C27 C28 1_555 1_555
C27 N3 1_555 1_555
C29 O4 1_555 1_555
C36 C37 1_555 1_555
C42 N5 1_555 1_555
C46 N4 1_555 1_555
C47 N4 1_555 1_555
O8 Cd2B 1_555 1_555

#END
