
#######################################################################
#
#                 Cambridge Crystallographic Data Centre
#                                CCDC 
#
#######################################################################
#
# If this CIF has been generated from an entry in the Cambridge 
# Structural Database, then it will include bibliographic, chemical, 
# crystal, experimental, refinement or atomic coordinate data resulting 
# from the CCDC's data processing and validation procedures.
#
#######################################################################

data_CUMTAR
_symmetry_cell_setting           orthorhombic
_symmetry_space_group_name_H-M   'P b c a'
_symmetry_Int_Tables_number      61
_space_group_name_Hall           '-P 2ac 2ab'
loop_
_symmetry_equiv_pos_site_id
_symmetry_equiv_pos_as_xyz
1 x,y,z
2 1/2-x,-y,1/2+z
3 1/2+x,1/2-y,-z
4 -x,1/2+y,1/2-z
5 -x,-y,-z
6 1/2+x,y,1/2-z
7 1/2-x,1/2+y,z
8 x,1/2-y,1/2+z
_cell_length_a                   11.46(1)
_cell_length_b                   11.74(1)
_cell_length_c                   12.13(1)
_cell_angle_alpha                90
_cell_angle_beta                 90
_cell_angle_gamma                90
_cell_volume                     1631.98
loop_
_atom_site_label
_atom_site_type_symbol
_atom_site_fract_x
_atom_site_fract_y
_atom_site_fract_z
Cu1 Cu 0.00000 0.00000 0.50000
Cu2 Cu 0.00000 0.50000 0.50000
C1 C 0.11530 0.17370 0.60210
C2 C 0.15480 0.18740 0.48260
C3 C 0.13660 0.30810 0.44080
C4 C 0.21420 0.39470 0.50090
H1 H 0.23300 0.16930 0.47560
H2 H 0.13660 0.07190 0.36020
H3 H 0.16210 0.31140 0.36260
H4 H -0.02020 0.31400 0.39030
O1 O 0.04340 0.09300 0.62340
O2 O 0.15460 0.23900 0.67170
O3 O 0.08910 0.11100 0.41420
O4 O 0.01630 0.33940 0.45410
O5 O 0.31880 0.37630 0.50780
O6 O 0.16200 0.48460 0.53760
O1D O -0.04340 -0.09300 0.37660
O3D O -0.08910 -0.11100 0.58580
O4D O -0.01630 0.66060 0.54590
O6D O -0.16200 0.51540 0.46240
C1D C -0.11530 -0.17370 0.39790
C2D C -0.15480 -0.18740 0.51740
H2D H -0.13660 -0.07190 0.63980
H4D H 0.02020 0.68600 0.60970
O2D O -0.15460 -0.23900 0.32830
C3D C -0.13660 -0.30810 0.55920
H1D H -0.23300 -0.16930 0.52440
C4D C -0.21420 -0.39470 0.49910
H3D H -0.16210 -0.31140 0.63740
O4D_2 O -0.01630 -0.33940 0.54590
O5D O -0.31880 -0.37630 0.49220
O6D_2 O -0.16200 -0.48460 0.46240
Cu2_2 Cu 0.00000 -0.50000 0.50000
H4D_2 H 0.02020 -0.31400 0.60970
H5 H -0.04380 0.00730 0.23810
H6 H -0.06350 0.11950 0.21820
O7 O -0.05750 0.05020 0.19090
H7 H 0.19380 0.03370 0.20220
H8 H 0.29050 0.01350 0.29220
O8 O 0.20930 0.00700 0.26860
H9 H 0.32400 0.27310 0.20570
H10 H 0.39880 0.32860 0.25130
O9 O 0.39390 0.26950 0.21980
loop_
_geom_bond_atom_site_label_1
_geom_bond_atom_site_label_2
_geom_bond_site_symmetry_1
_geom_bond_site_symmetry_2
Cu1 O1 1_555 1_555
Cu2 O4 1_555 1_555
C1 C2 1_555 1_555
C2 C3 1_555 1_555
C3 C4 1_555 1_555
C4 O5 1_555 1_555
H1 C2 1_555 1_555
H2 O3 1_555 1_555
H3 C3 1_555 1_555
H4 O4 1_555 1_555
O1 C1 1_555 1_555
O2 C1 1_555 1_555
O3 Cu1 1_555 1_555
O4 C3 1_555 1_555
O6 Cu2 1_555 1_555
H5 O7 1_555 1_555
H6 O7 1_555 1_555
H7 O8 1_555 1_555
H8 O8 1_555 1_555
H9 O9 1_555 1_555
H10 O9 1_555 1_555
O1D Cu1 1_555 1_555
O3D Cu1 1_555 1_555
O4D Cu2 1_555 1_555
O6D Cu2 1_555 1_555
C1D O1D 1_555 1_555
C2D O3D 1_555 1_555
H2D O3D 1_555 1_555
H4D O4D 1_555 1_555
O2D C1D 1_555 1_555
C3D C2D 1_555 1_555
H1D C2D 1_555 1_555
C4D C3D 1_555 1_555
H3D C3D 1_555 1_555
O4D_2 C3D 1_555 1_555
O5D C4D 1_555 1_555
O6D_2 C4D 1_555 1_555
Cu2_2 O4D_2 1_555 1_555
H4D_2 O4D_2 1_555 1_555
C2 O3 1_555 1_555
C4 O6 1_555 1_555
C1D C2D 1_555 1_555
O6D_2 Cu2_2 1_555 1_555

#END
