
#######################################################################
#
#                 Cambridge Crystallographic Data Centre
#                                CCDC 
#
#######################################################################
#
# If this CIF has been generated from an entry in the Cambridge 
# Structural Database, then it will include bibliographic, chemical, 
# crystal, experimental, refinement or atomic coordinate data resulting 
# from the CCDC's data processing and validation procedures.
#
#######################################################################

data_CUMXIS
_symmetry_cell_setting           monoclinic
_symmetry_space_group_name_H-M   'P 21/c'
_symmetry_Int_Tables_number      14
_space_group_name_Hall           '-P 2ybc'
loop_
_symmetry_equiv_pos_site_id
_symmetry_equiv_pos_as_xyz
1 x,y,z
2 -x,1/2+y,1/2-z
3 -x,-y,-z
4 x,1/2-y,1/2+z
_cell_length_a                   9.8050(3)
_cell_length_b                   14.8280(4)
_cell_length_c                   15.3100(5)
_cell_angle_alpha                90
_cell_angle_beta                 121.8050(10)
_cell_angle_gamma                90
_cell_volume                     1891.67
loop_
_atom_site_label
_atom_site_type_symbol
_atom_site_fract_x
_atom_site_fract_y
_atom_site_fract_z
Fe1 Fe -0.5000 0.0000 0.0000
Ag1 Ag -0.45321(5) 0.26051(2) 0.25677(3)
N1 N -0.2381(4) -0.0213(2) 0.1013(3)
N2 N -0.4861(5) 0.1129(2) 0.0946(3)
N3 N -0.5401(5) -0.0886(2) 0.0969(3)
N4 N 0.9762(7) 0.2005(5) 0.5691(5)
C1 C -0.1469(5) -0.0412(3) 0.0629(4)
H1 H -0.1978 -0.0581 -0.0058
C2 C 0.0176(6) -0.0381(3) 0.1191(4)
H2 H 0.0747 -0.0542 0.0885
C3 C 0.0991(6) -0.0112(3) 0.2206(4)
C4 C 0.0056(6) 0.0032(3) 0.2641(4)
H3 H 0.0540 0.0158 0.3338
C5 C -0.1588(6) -0.0017(3) 0.2019(4)
H4 H -0.2190 0.0093 0.2316
C6 C 0.2746(6) 0.0077(3) 0.2764(4)
H5 H 0.3318 -0.0145 0.2482
C7 C 0.3527(6) 0.0525(4) 0.3608(4)
H6 H 0.2957 0.0658 0.3922
C8 C 0.5180(6) 0.0855(4) 0.4145(4)
C9 C 0.6303(6) 0.0612(4) 0.3893(4)
H7 H 0.6026 0.0194 0.3372
C10 C 0.7833(6) 0.0986(4) 0.4411(5)
H8 H 0.8571 0.0806 0.4238
C11 C 0.8282(6) 0.1625(4) 0.5183(4)
C12 C 0.7158(6) 0.1845(4) 0.5436(4)
H9 H 0.7433 0.2256 0.5962
C13 C 0.5680(6) 0.1480(4) 0.4941(4)
H10 H 0.4964 0.1650 0.5135
C14 C 1.1149(11) 0.1546(7) 0.5657(8)
H11 H 1.2155 0.1611 0.6309
H12 H 1.0933 0.0910 0.5496
C15 C 1.1200(18) 0.1982(10) 0.4914(11)
H13 H 1.2047 0.1738 0.4846
H14 H 1.1396 0.2611 0.5082
H15 H 1.0194 0.1910 0.4277
C16 C 1.0201(10) 0.2766(5) 0.6417(7)
H16 H 0.9262 0.3140 0.6198
H17 H 1.1008 0.3134 0.6403
C17 C 1.0829(14) 0.2451(4) 0.7480(7)
H18 H 1.1100 0.2962 0.7927
H19 H 1.1769 0.2090 0.7704
H20 H 1.0024 0.2097 0.7499
C18 C -0.4735(6) 0.1668(3) 0.1506(4)
C19 C -0.5484(6) -0.1409(3) 0.1478(4)
Ag1B Ag -0.54679(5) -0.26051(2) -0.25677(3)
Ag1A Ag -0.54679(5) -0.23949(2) 0.24323(3)
Ag1C Ag -0.45321(5) 0.23949(2) -0.24323(3)
N1B N -0.7619(4) 0.0213(2) -0.1013(3)
N2B N -0.5139(5) -0.1129(2) -0.0946(3)
N3B N -0.4599(5) 0.0886(2) -0.0969(3)
N4B N -1.9762(7) -0.2005(5) -0.5691(5)
C1B C -0.8531(5) 0.0412(3) -0.0629(4)
H1B H -0.8022 0.0581 0.0058
C2B C -1.0176(6) 0.0381(3) -0.1191(4)
H2B H -1.0747 0.0542 -0.0885
C3B C -1.0991(6) 0.0112(3) -0.2206(4)
C4B C -1.0056(6) -0.0032(3) -0.2641(4)
H3B H -1.0540 -0.0158 -0.3338
C5B C -0.8412(6) 0.0017(3) -0.2019(4)
H4B H -0.7810 -0.0093 -0.2316
C6B C -1.2746(6) -0.0077(3) -0.2764(4)
H5B H -1.3318 0.0145 -0.2482
C7B C -1.3527(6) -0.0525(4) -0.3608(4)
H6B H -1.2957 -0.0658 -0.3922
C8B C -1.5180(6) -0.0855(4) -0.4145(4)
C9B C -1.6303(6) -0.0612(4) -0.3893(4)
H7B H -1.6026 -0.0194 -0.3372
C10B C -1.7833(6) -0.0986(4) -0.4411(5)
H8B H -1.8571 -0.0806 -0.4238
C11B C -1.8282(6) -0.1625(4) -0.5183(4)
C12B C -1.7158(6) -0.1845(4) -0.5436(4)
H9B H -1.7433 -0.2256 -0.5962
C13B C -1.5680(6) -0.1480(4) -0.4941(4)
H10B H -1.4964 -0.1650 -0.5135
C14B C -2.1149(11) -0.1546(7) -0.5657(8)
H11B H -2.2155 -0.1611 -0.6309
H12B H -2.0933 -0.0910 -0.5496
C15B C -2.1200(18) -0.1982(10) -0.4914(11)
H13B H -2.2047 -0.1738 -0.4846
H14B H -2.1396 -0.2611 -0.5082
H15B H -2.0194 -0.1910 -0.4277
C16B C -2.0201(10) -0.2766(5) -0.6417(7)
H16B H -1.9262 -0.3140 -0.6198
H17B H -2.1008 -0.3134 -0.6403
C17B C -2.0829(14) -0.2451(4) -0.7480(7)
H18B H -2.1100 -0.2962 -0.7927
H19B H -2.1769 -0.2090 -0.7704
H20B H -2.0024 -0.2097 -0.7499
C18B C -0.5265(6) -0.1668(3) -0.1506(4)
C19B C -0.4516(6) 0.1409(3) -0.1478(4)
C19A C -0.4516(6) 0.3591(3) 0.3522(4)
C19C C -0.5484(6) -0.3591(3) -0.3522(4)
loop_
_geom_bond_atom_site_label_1
_geom_bond_atom_site_label_2
_geom_bond_site_symmetry_1
_geom_bond_site_symmetry_2
Fe1 N1 1_555 1_555
Ag1 C18 1_555 1_555
N1 C1 1_555 1_555
N2 Fe1 1_555 1_555
N3 Fe1 1_555 1_555
N4 C11 1_555 1_555
C1 H1 1_555 1_555
C2 C1 1_555 1_555
H2 C2 1_555 1_555
C3 C2 1_555 1_555
C4 C3 1_555 1_555
H3 C4 1_555 1_555
C5 N1 1_555 1_555
H4 C5 1_555 1_555
C6 C3 1_555 1_555
H5 C6 1_555 1_555
C7 C6 1_555 1_555
H6 C7 1_555 1_555
C8 C7 1_555 1_555
C9 C8 1_555 1_555
H7 C9 1_555 1_555
C10 C9 1_555 1_555
H8 C10 1_555 1_555
C11 C10 1_555 1_555
C12 C11 1_555 1_555
H9 C12 1_555 1_555
C13 C8 1_555 1_555
H10 C13 1_555 1_555
C14 N4 1_555 1_555
H11 C14 1_555 1_555
H12 C14 1_555 1_555
C15 C14 1_555 1_555
H13 C15 1_555 1_555
H14 C15 1_555 1_555
H15 C15 1_555 1_555
C16 N4 1_555 1_555
H16 C16 1_555 1_555
H17 C16 1_555 1_555
C17 C16 1_555 1_555
H18 C17 1_555 1_555
H19 C17 1_555 1_555
H20 C17 1_555 1_555
C18 N2 1_555 1_555
C19 N3 1_555 1_555
Ag1B C18B 1_555 1_555
Ag1A C19 1_555 1_555
Ag1C C19B 1_555 1_555
N1B Fe1 1_555 1_555
N2B Fe1 1_555 1_555
N3B Fe1 1_555 1_555
N4B C11B 1_555 1_555
C1B N1B 1_555 1_555
H1B C1B 1_555 1_555
C2B C1B 1_555 1_555
H2B C2B 1_555 1_555
C3B C2B 1_555 1_555
C4B C3B 1_555 1_555
H3B C4B 1_555 1_555
C5B N1B 1_555 1_555
H4B C5B 1_555 1_555
C6B C3B 1_555 1_555
H5B C6B 1_555 1_555
C7B C6B 1_555 1_555
H6B C7B 1_555 1_555
C8B C7B 1_555 1_555
C9B C8B 1_555 1_555
H7B C9B 1_555 1_555
C10B C9B 1_555 1_555
H8B C10B 1_555 1_555
C11B C10B 1_555 1_555
C12B C11B 1_555 1_555
H9B C12B 1_555 1_555
C13B C8B 1_555 1_555
H10B C13B 1_555 1_555
C14B N4B 1_555 1_555
H11B C14B 1_555 1_555
H12B C14B 1_555 1_555
C15B C14B 1_555 1_555
H13B C15B 1_555 1_555
H14B C15B 1_555 1_555
H15B C15B 1_555 1_555
C16B N4B 1_555 1_555
H16B C16B 1_555 1_555
H17B C16B 1_555 1_555
C17B C16B 1_555 1_555
H18B C17B 1_555 1_555
H19B C17B 1_555 1_555
H20B C17B 1_555 1_555
C18B N2B 1_555 1_555
C19B N3B 1_555 1_555
C19A Ag1 1_555 1_555
C19C Ag1B 1_555 1_555
C4 C5 1_555 1_555
C12 C13 1_555 1_555
C4B C5B 1_555 1_555
C12B C13B 1_555 1_555

#END
