
#######################################################################
#
#                 Cambridge Crystallographic Data Centre
#                                CCDC 
#
#######################################################################
#
# If this CIF has been generated from an entry in the Cambridge 
# Structural Database, then it will include bibliographic, chemical, 
# crystal, experimental, refinement or atomic coordinate data resulting 
# from the CCDC's data processing and validation procedures.
#
#######################################################################

data_CUMZOB
_symmetry_cell_setting           monoclinic
_symmetry_space_group_name_H-M   'C 2/c'
_symmetry_Int_Tables_number      15
_space_group_name_Hall           '-C 2yn'
loop_
_symmetry_equiv_pos_site_id
_symmetry_equiv_pos_as_xyz
1 x,y,z
2 -x,y,1/2-z
3 1/2+x,1/2+y,z
4 1/2-x,1/2+y,1/2-z
5 -x,-y,-z
6 x,-y,1/2+z
7 1/2-x,1/2-y,-z
8 1/2+x,1/2-y,1/2+z
_cell_length_a                   17.8629(4)
_cell_length_b                   8.4312(2)
_cell_length_c                   14.7737(3)
_cell_angle_alpha                90
_cell_angle_beta                 116.2360(10)
_cell_angle_gamma                90
_cell_volume                     1995.79
loop_
_atom_site_label
_atom_site_type_symbol
_atom_site_fract_x
_atom_site_fract_y
_atom_site_fract_z
Mn1 Mn 0.2500 0.2500 0.0000
O1 O 0.21504(6) 0.39417(12) 0.06891(7)
C1 C 0.11560(9) 0.57184(18) 0.07447(11)
C2 C 0.16897(9) 0.52154(17) 0.03137(10)
C3 C 0.17039(9) 0.61237(18) -0.04745(11)
C4 C 0.12303(10) 0.75234(18) -0.07933(12)
H1 H 0.1260 0.8152 -0.1310
C5 C 0.07244(10) 0.7986(2) -0.03611(13)
H2 H 0.0400 0.8925 -0.0586
C6 C 0.06844(10) 0.7079(2) 0.04105(12)
H3 H 0.0331 0.7401 0.0704
O2 O 0.11563(7) 0.47240(13) 0.14742(8)
C7 C 0.05664(10) 0.5068(2) 0.18541(12)
H4 H 0.0731 0.6042 0.2256
H5 H 0.0550 0.4187 0.2278
H6 H 0.0012 0.5210 0.1289
C8 C 0.22062(9) 0.56497(18) -0.09748(11)
H7 H 0.2288 0.6418 -0.1393
N1 N 0.25519(7) 0.42921(15) -0.09071(9)
C9 C 0.30377(11) 0.4052(2) -0.14817(13)
H8 H 0.3009 0.5011 -0.1871
H9 H 0.2807 0.3153 -0.1943
H10 H 0.3621 0.3833 -0.1014
N2 N 0.5000 0.4353(3) 0.2500
C10 C 0.44009(9) 0.35999(18) 0.17692(12)
N3 N 0.38522(8) 0.30508(17) 0.10862(10)
C10A C 0.55991(9) 0.35999(18) 0.32308(12)
N3A N 0.61478(8) 0.30508(17) 0.39138(10)
O1F O 0.28496(6) 0.10583(12) -0.06891(7)
C1F C 0.38440(9) -0.07184(18) -0.07447(11)
C2F C 0.33103(9) -0.02154(17) -0.03137(10)
C3F C 0.32961(9) -0.11237(18) 0.04745(11)
C4F C 0.37697(10) -0.25234(18) 0.07933(12)
H1F H 0.3740 -0.3152 0.1310
C5F C 0.42756(10) -0.2986(2) 0.03611(13)
H2F H 0.4600 -0.3925 0.0586
C6F C 0.43156(10) -0.2079(2) -0.04105(12)
H3F H 0.4669 -0.2401 -0.0704
O2F O 0.38437(7) 0.02760(13) -0.14742(8)
C7F C 0.44336(10) -0.0068(2) -0.18541(12)
H4F H 0.4269 -0.1042 -0.2256
H5F H 0.4450 0.0813 -0.2278
H6F H 0.4988 -0.0210 -0.1289
C8F C 0.27938(9) -0.06497(18) 0.09748(11)
H7F H 0.2712 -0.1418 0.1393
N1F N 0.24481(7) 0.07079(15) 0.09071(9)
C9F C 0.19623(11) 0.0948(2) 0.14817(13)
H8F H 0.1991 -0.0011 0.1871
H9F H 0.2193 0.1847 0.1943
H10F H 0.1379 0.1167 0.1014
Mn1A Mn 0.7500 0.2500 0.5000
N3F N 0.11478(8) 0.19492(17) -0.10862(10)
loop_
_geom_bond_atom_site_label_1
_geom_bond_atom_site_label_2
_geom_bond_site_symmetry_1
_geom_bond_site_symmetry_2
Mn1 O1 1_555 1_555
O1 C2 1_555 1_555
C1 C2 1_555 1_555
C2 C3 1_555 1_555
C3 C4 1_555 1_555
C4 H1 1_555 1_555
C5 C4 1_555 1_555
H2 C5 1_555 1_555
C6 C1 1_555 1_555
H3 C6 1_555 1_555
O2 C1 1_555 1_555
C7 O2 1_555 1_555
H4 C7 1_555 1_555
H5 C7 1_555 1_555
H6 C7 1_555 1_555
C8 C3 1_555 1_555
H7 C8 1_555 1_555
N1 Mn1 1_555 1_555
C9 N1 1_555 1_555
H8 C9 1_555 1_555
H9 C9 1_555 1_555
H10 C9 1_555 1_555
N2 C10 1_555 1_555
C10 N3 1_555 1_555
N3 Mn1 1_555 1_555
C10A N2 1_555 1_555
N3A C10A 1_555 1_555
O1F Mn1 1_555 1_555
C1F C2F 1_555 1_555
C2F O1F 1_555 1_555
C3F C2F 1_555 1_555
C4F C3F 1_555 1_555
H1F C4F 1_555 1_555
C5F C4F 1_555 1_555
H2F C5F 1_555 1_555
C6F C1F 1_555 1_555
H3F C6F 1_555 1_555
O2F C1F 1_555 1_555
C7F O2F 1_555 1_555
H4F C7F 1_555 1_555
H5F C7F 1_555 1_555
H6F C7F 1_555 1_555
C8F C3F 1_555 1_555
H7F C8F 1_555 1_555
N1F Mn1 1_555 1_555
C9F N1F 1_555 1_555
H8F C9F 1_555 1_555
H9F C9F 1_555 1_555
H10F C9F 1_555 1_555
Mn1A N3A 1_555 1_555
N3F Mn1 1_555 1_555
C5 C6 1_555 1_555
C8 N1 1_555 1_555
C5F C6F 1_555 1_555
C8F N1F 1_555 1_555

#END
