
#######################################################################
#
#                 Cambridge Crystallographic Data Centre
#                                CCDC 
#
#######################################################################
#
# If this CIF has been generated from an entry in the Cambridge 
# Structural Database, then it will include bibliographic, chemical, 
# crystal, experimental, refinement or atomic coordinate data resulting 
# from the CCDC's data processing and validation procedures.
#
#######################################################################

data_CUNFEX
_symmetry_cell_setting           monoclinic
_symmetry_space_group_name_H-M   'C 2'
_symmetry_Int_Tables_number      5
_space_group_name_Hall           'C 2y'
loop_
_symmetry_equiv_pos_site_id
_symmetry_equiv_pos_as_xyz
1 x,y,z
2 -x,y,-z
3 1/2+x,1/2+y,z
4 1/2-x,1/2+y,-z
_cell_length_a                   31.330(8)
_cell_length_b                   4.2108(11)
_cell_length_c                   8.937(2)
_cell_angle_alpha                90
_cell_angle_beta                 98.556(9)
_cell_angle_gamma                90
_cell_volume                     1165.89
loop_
_atom_site_label
_atom_site_type_symbol
_atom_site_fract_x
_atom_site_fract_y
_atom_site_fract_z
Cu1 Cu 0.74430(3) 0.2422(6) 0.11624(11)
I1 I 0.702564(13) 0.26585(7) -0.16546(5)
O1 O 0.56350(16) 0.778(3) 0.3959(6)
O2 O 0.5000 1.315(2) 1.0000
N1 N 0.6984(2) 0.3498(16) 0.2467(7)
N2 N 0.60568(17) 0.759(3) 0.6254(6)
H1 H 0.6309 0.7061 0.6698
C1 C 0.6566(2) 0.287(4) 0.2002(8)
H2 H 0.6495 0.1669 0.1128
C2 C 0.6236(3) 0.3902(19) 0.2741(9)
H3 H 0.5951 0.3369 0.2386
C3 C 0.6339(3) 0.575(2) 0.4026(9)
C4 C 0.6770(3) 0.637(2) 0.4547(9)
H4 H 0.6850 0.7523 0.5431
C5 C 0.7078(3) 0.523(2) 0.3724(9)
H5 H 0.7366 0.5688 0.4067
C6 C 0.5966(2) 0.708(3) 0.4729(9)
C7 C 0.5767(2) 0.8928(19) 0.7166(9)
C8 C 0.5446(2) 1.104(2) 0.6621(9)
H6 H 0.5410 1.1628 0.5607
C9 C 0.5178(2) 1.228(3) 0.7557(9)
H7 H 0.4958 1.3672 0.7173
C10 C 0.5237(3) 1.147(2) 0.9047(11)
C11 C 0.5558(3) 0.937(2) 0.9644(10)
H8 H 0.5592 0.8815 1.0662
C12 C 0.5827(2) 0.809(3) 0.8698(9)
H9 H 0.6046 0.6696 0.9081
Cu1A Cu 0.25570(3) 0.2422(6) 1.88376(11)
Cu1B Cu 0.24430(3) -0.2578(6) 2.11624(11)
Cu1B_2 Cu 0.24430(3) 0.7422(6) 2.11624(11)
Cu1C Cu 0.75570(3) -0.2578(6) -0.11624(11)
Cu1C_2 Cu 0.75570(3) 0.7422(6) -0.11624(11)
I1A I 0.297436(13) 0.26585(7) 2.16546(5)
I1B I 0.202564(13) -0.23415(7) 1.83454(5)
I1B_2 I 0.202564(13) 0.76585(7) 1.83454(5)
I1C I 0.797436(13) -0.23415(7) 0.16546(5)
I1C_2 I 0.797436(13) 0.76585(7) 0.16546(5)
O1A O 0.43650(16) 0.778(3) 1.6041(6)
N1A N 0.3016(2) 0.3498(16) 1.7533(7)
N2A N 0.39432(17) 0.759(3) 1.3746(6)
H1A H 0.3691 0.7061 1.3302
C1A C 0.3434(2) 0.287(4) 1.7998(8)
H2A H 0.3505 0.1669 1.8872
C2A C 0.3764(3) 0.3902(19) 1.7259(9)
H3A H 0.4049 0.3369 1.7614
C3A C 0.3661(3) 0.575(2) 1.5974(9)
C4A C 0.3230(3) 0.637(2) 1.5453(9)
H4A H 0.3150 0.7523 1.4569
C5A C 0.2922(3) 0.523(2) 1.6276(9)
H5A H 0.2634 0.5688 1.5933
C6A C 0.4034(2) 0.708(3) 1.5271(9)
C7A C 0.4233(2) 0.8928(19) 1.2834(9)
C8A C 0.4554(2) 1.104(2) 1.3379(9)
H6A H 0.4590 1.1628 1.4393
C9A C 0.4822(2) 1.228(3) 1.2443(9)
H7A H 0.5042 1.3672 1.2827
C10A C 0.4763(3) 1.147(2) 1.0953(11)
C11A C 0.4442(3) 0.937(2) 1.0356(10)
H8A H 0.4408 0.8815 0.9338
C12A C 0.4173(2) 0.809(3) 1.1302(9)
H9A H 0.3954 0.6696 1.0919
loop_
_geom_bond_atom_site_label_1
_geom_bond_atom_site_label_2
_geom_bond_site_symmetry_1
_geom_bond_site_symmetry_2
Cu1 I1 1_555 1_555
I1 Cu1C 1_555 1_555
O1 C6 1_555 1_555
O2 C10 1_555 1_555
N1 Cu1 1_555 1_555
N2 H1 1_555 1_555
C1 N1 1_555 1_555
H2 C1 1_555 1_555
C2 C1 1_555 1_555
H3 C2 1_555 1_555
C3 C2 1_555 1_555
C4 C3 1_555 1_555
H4 C4 1_555 1_555
C5 N1 1_555 1_555
H5 C5 1_555 1_555
C6 N2 1_555 1_555
C7 N2 1_555 1_555
C8 C7 1_555 1_555
H6 C8 1_555 1_555
C9 C8 1_555 1_555
H7 C9 1_555 1_555
C10 C9 1_555 1_555
C11 C10 1_555 1_555
H8 C11 1_555 1_555
C12 C7 1_555 1_555
H9 C12 1_555 1_555
Cu1A I1A 1_555 1_555
Cu1B I1A 1_555 1_555
Cu1B_2 I1A 1_555 1_555
Cu1C I1C 1_555 1_555
Cu1C_2 I1 1_555 1_555
I1B Cu1A 1_555 1_555
I1B_2 Cu1A 1_555 1_555
I1C Cu1 1_555 1_555
I1C_2 Cu1 1_555 1_555
O1A C6A 1_555 1_555
N1A Cu1A 1_555 1_555
N2A H1A 1_555 1_555
C1A N1A 1_555 1_555
H2A C1A 1_555 1_555
C2A C1A 1_555 1_555
H3A C2A 1_555 1_555
C3A C2A 1_555 1_555
C4A C3A 1_555 1_555
H4A C4A 1_555 1_555
C5A N1A 1_555 1_555
H5A C5A 1_555 1_555
C6A N2A 1_555 1_555
C7A N2A 1_555 1_555
C8A C7A 1_555 1_555
H6A C8A 1_555 1_555
C9A C8A 1_555 1_555
H7A C9A 1_555 1_555
C10A O2 1_555 1_555
C11A C10A 1_555 1_555
H8A C11A 1_555 1_555
C12A C7A 1_555 1_555
H9A C12A 1_555 1_555
C3 C6 1_555 1_555
C4 C5 1_555 1_555
C11 C12 1_555 1_555
Cu1B I1B 1_555 1_555
Cu1B_2 I1B_2 1_555 1_555
Cu1C_2 I1C_2 1_555 1_555
C3A C6A 1_555 1_555
C4A C5A 1_555 1_555
C9A C10A 1_555 1_555
C11A C12A 1_555 1_555

#END
