
#######################################################################
#
#                 Cambridge Crystallographic Data Centre
#                                CCDC 
#
#######################################################################
#
# If this CIF has been generated from an entry in the Cambridge 
# Structural Database, then it will include bibliographic, chemical, 
# crystal, experimental, refinement or atomic coordinate data resulting 
# from the CCDC's data processing and validation procedures.
#
#######################################################################

data_CUNVOX
_symmetry_cell_setting           tetragonal
_symmetry_space_group_name_H-M   'I 41/a'
_symmetry_Int_Tables_number      88
_space_group_name_Hall           '-I 4ad'
loop_
_symmetry_equiv_pos_site_id
_symmetry_equiv_pos_as_xyz
1 x,y,z
2 3/4-y,1/4+x,1/4+z
3 1/2-x,-y,1/2+z
4 3/4+y,3/4-x,3/4+z
5 1/2+x,1/2+y,1/2+z
6 1/4-y,3/4+x,3/4+z
7 -x,1/2-y,z
8 1/4+y,1/4-x,1/4+z
9 -x,-y,-z
10 1/4+y,3/4-x,3/4-z
11 1/2+x,y,1/2-z
12 1/4-y,1/4+x,1/4-z
13 1/2-x,1/2-y,1/2-z
14 3/4+y,1/4-x,1/4-z
15 x,1/2+y,-z
16 3/4-y,3/4+x,3/4-z
_cell_length_a                   19.7429(19)
_cell_length_b                   19.7429(19)
_cell_length_c                   13.9883(15)
_cell_angle_alpha                90
_cell_angle_beta                 90
_cell_angle_gamma                90
_cell_volume                     5452.39
loop_
_atom_site_label
_atom_site_type_symbol
_atom_site_fract_x
_atom_site_fract_y
_atom_site_fract_z
Mo1 Mo 0.5000 0.7500 1.1250
Cu1 Cu 0.5000 0.5000 1.0000
N1 N 0.60563(16) 0.51041(15) 0.9825(2)
N2 N 0.98055(17) 0.54604(16) 0.6589(2)
N3 N 0.49476(15) 0.59159(15) 1.0536(2)
N4 N 0.40096(17) 0.75606(18) 0.9326(2)
C1 C 0.6481(2) 0.4573(2) 0.9824(3)
H1 H 0.6300 0.4141 0.9889
C2 C 0.7173(2) 0.4639(2) 0.9731(3)
H2 H 0.7445 0.4254 0.9716
C3 C 0.7467(2) 0.5279(2) 0.9661(3)
C4 C 0.7029(2) 0.5820(2) 0.9667(3)
H3 H 0.7199 0.6258 0.9624
C5 C 0.6339(2) 0.57177(19) 0.9738(3)
H4 H 0.6056 0.6094 0.9724
C6 C 0.8228(2) 0.5345(2) 0.9585(3)
H5 H 0.8374 0.5124 0.9000
H6 H 0.8432 0.5102 1.0115
C7 C 0.8501(2) 0.6062(2) 0.9584(3)
H7 H 0.8382 0.6278 1.0184
H8 H 0.8285 0.6315 0.9074
C8 C 0.9271(2) 0.6099(2) 0.9453(3)
H9 H 0.9422 0.6560 0.9562
H10 H 0.9489 0.5810 0.9922
C9 C 0.94802(19) 0.5880(2) 0.8465(3)
C10 C 0.9680(2) 0.5223(2) 0.8261(3)
H11 H 0.9711 0.4906 0.8752
C11 C 0.98340(19) 0.5033(2) 0.7339(3)
H12 H 0.9964 0.4588 0.7229
C12 C 0.9623(2) 0.6099(2) 0.6790(3)
H13 H 0.9608 0.6410 0.6291
C13 C 0.9456(2) 0.6320(2) 0.7698(3)
H14 H 0.9326 0.6768 0.7793
C14 C 0.49570(17) 0.64653(18) 1.0811(2)
C15 C 0.43518(18) 0.75349(17) 0.9988(3)
Cu1F Cu 0.5000 1.0000 1.0000
Cu1B Cu 1.0000 0.5000 0.5000
Cu1G Cu 0.7500 0.7500 1.2500
Cu1A Cu 0.2500 0.7500 1.2500
Cu1B_2 Cu 0.0000 0.5000 1.5000
Cu1B_3 Cu 1.0000 0.5000 1.5000
Cu1B_4 Cu 0.0000 0.5000 0.5000
N1H N 0.39437(16) 0.48959(15) 1.0175(2)
N1B N 0.89437(16) 0.48959(15) 1.4825(2)
N1J N 0.10563(16) 0.51041(15) 0.5175(2)
N1F N 0.39437(16) 0.98959(15) 0.9825(2)
N1N N 0.60563(16) 1.01041(15) 1.0175(2)
N2H N 0.01945(17) 0.45396(16) 1.3411(2)
N2B N 0.51945(17) 0.45396(16) 1.1589(2)
N2J N 0.48055(17) 0.54604(16) 0.8411(2)
N2D N 0.48055(17) 1.04604(16) 1.1589(2)
N2L N 0.51945(17) 0.95396(16) 0.8411(2)
N3F N 0.50524(15) 0.90841(15) 1.0536(2)
N3K N 0.65841(15) 0.74476(15) 1.1964(2)
N3M N 0.34159(15) 0.75524(15) 1.1964(2)
N3H N 0.50524(15) 0.40841(15) 0.9464(2)
N3N N 0.49476(15) 1.09159(15) 0.9464(2)
N4F N 0.59904(17) 0.74394(18) 0.9326(2)
N4K N 0.49394(18) 0.65096(17) 1.3174(2)
N4M N 0.50606(18) 0.84904(17) 1.3174(2)
C1H C 0.3519(2) 0.5427(2) 1.0176(3)
C1B C 0.8519(2) 0.5427(2) 1.4824(3)
C1J C 0.1481(2) 0.4573(2) 0.5176(3)
H1H H 0.3700 0.5859 1.0111
H1B H 0.8700 0.5859 1.4889
H1J H 0.1300 0.4141 0.5111
C2H C 0.2827(2) 0.5361(2) 1.0269(3)
C2B C 0.7827(2) 0.5361(2) 1.4731(3)
C2J C 0.2173(2) 0.4639(2) 0.5269(3)
H2H H 0.2555 0.5746 1.0284
H2B H 0.7555 0.5746 1.4716
H2J H 0.2445 0.4254 0.5284
C3H C 0.2533(2) 0.4721(2) 1.0339(3)
C3B C 0.7533(2) 0.4721(2) 1.4661(3)
C3J C 0.2467(2) 0.5279(2) 0.5339(3)
C4H C 0.2971(2) 0.4180(2) 1.0333(3)
C4B C 0.7971(2) 0.4180(2) 1.4667(3)
C4J C 0.2029(2) 0.5820(2) 0.5333(3)
H3H H 0.2801 0.3742 1.0376
H3B H 0.7801 0.3742 1.4624
H3J H 0.2199 0.6258 0.5376
C5H C 0.3661(2) 0.42823(19) 1.0262(3)
C5B C 0.8661(2) 0.42823(19) 1.4738(3)
C5J C 0.1339(2) 0.57177(19) 0.5262(3)
H4H H 0.3944 0.3906 1.0276
H4B H 0.8944 0.3906 1.4724
H4J H 0.1056 0.6094 0.5276
C6H C 0.1772(2) 0.4655(2) 1.0415(3)
C6B C 0.6772(2) 0.4655(2) 1.4585(3)
C6J C 0.3228(2) 0.5345(2) 0.5415(3)
H5H H 0.1626 0.4876 1.1000
H5B H 0.6626 0.4876 1.4000
H5J H 0.3374 0.5124 0.6000
H6H H 0.1568 0.4898 0.9885
H6B H 0.6568 0.4898 1.5115
H6J H 0.3432 0.5102 0.4885
C7H C 0.1499(2) 0.3938(2) 1.0416(3)
C7B C 0.6499(2) 0.3938(2) 1.4584(3)
C7J C 0.3501(2) 0.6062(2) 0.5416(3)
H7H H 0.1618 0.3722 0.9816
H7B H 0.6618 0.3722 1.5184
H7J H 0.3382 0.6278 0.4816
H8H H 0.1715 0.3685 1.0926
H8B H 0.6715 0.3685 1.4074
H8J H 0.3285 0.6315 0.5926
C8H C 0.0729(2) 0.3901(2) 1.0547(3)
C8B C 0.5729(2) 0.3901(2) 1.4453(3)
C8J C 0.4271(2) 0.6099(2) 0.5547(3)
H9H H 0.0578 0.3440 1.0438
H9B H 0.5578 0.3440 1.4562
H9J H 0.4422 0.6560 0.5438
H10H H 0.0511 0.4190 1.0078
H10B H 0.5511 0.4190 1.4922
H10J H 0.4489 0.5810 0.5078
C9H C 0.05198(19) 0.4120(2) 1.1535(3)
C9B C 0.55198(19) 0.4120(2) 1.3465(3)
C9J C 0.44802(19) 0.5880(2) 0.6535(3)
C10H C 0.0320(2) 0.4777(2) 1.1739(3)
C10B C 0.5320(2) 0.4777(2) 1.3261(3)
C10J C 0.4680(2) 0.5223(2) 0.6739(3)
H11H H 0.0289 0.5094 1.1248
H11B H 0.5289 0.5094 1.3752
H11J H 0.4711 0.4906 0.6248
C11H C 0.01660(19) 0.4967(2) 1.2661(3)
C11B C 0.51660(19) 0.4967(2) 1.2339(3)
C11J C 0.48340(19) 0.5033(2) 0.7661(3)
H12H H 0.0036 0.5412 1.2771
H12B H 0.5036 0.5412 1.2229
H12J H 0.4964 0.4588 0.7771
C12H C 0.0377(2) 0.3901(2) 1.3210(3)
C12B C 0.5377(2) 0.3901(2) 1.1790(3)
C12J C 0.4623(2) 0.6099(2) 0.8210(3)
H13H H 0.0392 0.3590 1.3709
H13B H 0.5392 0.3590 1.1291
H13J H 0.4608 0.6410 0.8709
C13H C 0.0544(2) 0.3680(2) 1.2302(3)
C13B C 0.5544(2) 0.3680(2) 1.2698(3)
C13J C 0.4456(2) 0.6320(2) 0.7302(3)
H14H H 0.0674 0.3232 1.2207
H14B H 0.5674 0.3232 1.2793
H14J H 0.4326 0.6768 0.7207
C14F C 0.50430(17) 0.85347(18) 1.0811(2)
C14K C 0.60347(18) 0.74570(17) 1.1689(2)
C14M C 0.39653(18) 0.75430(17) 1.1689(2)
C15F C 0.56482(18) 0.74651(17) 0.9988(3)
C15K C 0.49651(17) 0.68518(18) 1.2512(3)
C15M C 0.50349(17) 0.81482(18) 1.2512(3)
loop_
_geom_bond_atom_site_label_1
_geom_bond_atom_site_label_2
_geom_bond_site_symmetry_1
_geom_bond_site_symmetry_2
Mo1 C14 1_555 1_555
Cu1 N1 1_555 1_555
N1 C1 1_555 1_555
N2 C11 1_555 1_555
N3 Cu1 1_555 1_555
N4 C15 1_555 1_555
C1 H1 1_555 1_555
C2 C1 1_555 1_555
H2 C2 1_555 1_555
C3 C2 1_555 1_555
C4 C3 1_555 1_555
H3 C4 1_555 1_555
C5 N1 1_555 1_555
H4 C5 1_555 1_555
C6 C3 1_555 1_555
H5 C6 1_555 1_555
H6 C6 1_555 1_555
C7 C6 1_555 1_555
H7 C7 1_555 1_555
H8 C7 1_555 1_555
C8 C7 1_555 1_555
H9 C8 1_555 1_555
H10 C8 1_555 1_555
C9 C8 1_555 1_555
C10 C9 1_555 1_555
H11 C10 1_555 1_555
C11 C10 1_555 1_555
H12 C11 1_555 1_555
C12 N2 1_555 1_555
H13 C12 1_555 1_555
C13 C9 1_555 1_555
H14 C13 1_555 1_555
C14 N3 1_555 1_555
C15 Mo1 1_555 1_555
Cu1F N1F 1_555 1_555
Cu1B N2 1_555 1_555
Cu1G N3K 1_555 1_555
Cu1A N3M 1_555 1_555
Cu1B_2 N2H 1_555 1_555
Cu1B_3 N1B 1_555 1_555
Cu1B_4 N1J 1_555 1_555
N1H Cu1 1_555 1_555
N1B C1B 1_555 1_555
N1J C1J 1_555 1_555
N1N Cu1F 1_555 1_555
N2H C11H 1_555 1_555
N2B Cu1 1_555 1_555
N2J Cu1 1_555 1_555
N2D Cu1F 1_555 1_555
N2L Cu1F 1_555 1_555
N3F Cu1F 1_555 1_555
N3K C14K 1_555 1_555
N3M C14M 1_555 1_555
N3H Cu1 1_555 1_555
N3N Cu1F 1_555 1_555
N4F C15F 1_555 1_555
N4K C15K 1_555 1_555
N4M C15M 1_555 1_555
C1H N1H 1_555 1_555
C1B H1B 1_555 1_555
C1J H1J 1_555 1_555
H1H C1H 1_555 1_555
C2H C1H 1_555 1_555
C2B C1B 1_555 1_555
C2J C1J 1_555 1_555
H2H C2H 1_555 1_555
H2B C2B 1_555 1_555
H2J C2J 1_555 1_555
C3H C2H 1_555 1_555
C3B C2B 1_555 1_555
C3J C2J 1_555 1_555
C4H C3H 1_555 1_555
C4B C3B 1_555 1_555
C4J C3J 1_555 1_555
H3H C4H 1_555 1_555
H3B C4B 1_555 1_555
H3J C4J 1_555 1_555
C5H N1H 1_555 1_555
C5B N1B 1_555 1_555
C5J N1J 1_555 1_555
H4H C5H 1_555 1_555
H4B C5B 1_555 1_555
H4J C5J 1_555 1_555
C6H C3H 1_555 1_555
C6B C3B 1_555 1_555
C6J C3J 1_555 1_555
H5H C6H 1_555 1_555
H5B C6B 1_555 1_555
H5J C6J 1_555 1_555
H6H C6H 1_555 1_555
H6B C6B 1_555 1_555
H6J C6J 1_555 1_555
C7H C6H 1_555 1_555
C7B C6B 1_555 1_555
C7J C6J 1_555 1_555
H7H C7H 1_555 1_555
H7B C7B 1_555 1_555
H7J C7J 1_555 1_555
H8H C7H 1_555 1_555
H8B C7B 1_555 1_555
H8J C7J 1_555 1_555
C8H C7H 1_555 1_555
C8B C7B 1_555 1_555
C8J C7J 1_555 1_555
H9H C8H 1_555 1_555
H9B C8B 1_555 1_555
H9J C8J 1_555 1_555
H10H C8H 1_555 1_555
H10B C8B 1_555 1_555
H10J C8J 1_555 1_555
C9H C8H 1_555 1_555
C9B C8B 1_555 1_555
C9J C8J 1_555 1_555
C10H C9H 1_555 1_555
C10B C9B 1_555 1_555
C10J C9J 1_555 1_555
H11H C10H 1_555 1_555
H11B C10B 1_555 1_555
H11J C10J 1_555 1_555
C11H C10H 1_555 1_555
C11B N2B 1_555 1_555
C11J N2J 1_555 1_555
H12H C11H 1_555 1_555
H12B C11B 1_555 1_555
H12J C11J 1_555 1_555
C12H N2H 1_555 1_555
C12B N2B 1_555 1_555
C12J N2J 1_555 1_555
H13H C12H 1_555 1_555
H13B C12B 1_555 1_555
H13J C12J 1_555 1_555
C13H C9H 1_555 1_555
C13B C9B 1_555 1_555
C13J C9J 1_555 1_555
H14H C13H 1_555 1_555
H14B C13B 1_555 1_555
H14J C13J 1_555 1_555
C14F Mo1 1_555 1_555
C14K Mo1 1_555 1_555
C14M Mo1 1_555 1_555
C15F Mo1 1_555 1_555
C15K Mo1 1_555 1_555
C15M Mo1 1_555 1_555
C4 C5 1_555 1_555
C12 C13 1_555 1_555
N3F C14F 1_555 1_555
C4H C5H 1_555 1_555
C4B C5B 1_555 1_555
C4J C5J 1_555 1_555
C10B C11B 1_555 1_555
C10J C11J 1_555 1_555
C12H C13H 1_555 1_555
C12B C13B 1_555 1_555
C12J C13J 1_555 1_555

#END
