
#######################################################################
#
#                 Cambridge Crystallographic Data Centre
#                                CCDC 
#
#######################################################################
#
# If this CIF has been generated from an entry in the Cambridge 
# Structural Database, then it will include bibliographic, chemical, 
# crystal, experimental, refinement or atomic coordinate data resulting 
# from the CCDC's data processing and validation procedures.
#
#######################################################################

data_CUNYUG
_symmetry_cell_setting           triclinic
_symmetry_space_group_name_H-M   'P -1'
_symmetry_Int_Tables_number      2
_space_group_name_Hall           '-P 1'
loop_
_symmetry_equiv_pos_site_id
_symmetry_equiv_pos_as_xyz
1 x,y,z
2 -x,-y,-z
_cell_length_a                   12.1344(5)
_cell_length_b                   15.4172(6)
_cell_length_c                   20.3397(7)
_cell_angle_alpha                80.4950(10)
_cell_angle_beta                 85.2360(10)
_cell_angle_gamma                89.9040(10)
_cell_volume                     3739.63
loop_
_atom_site_label
_atom_site_type_symbol
_atom_site_fract_x
_atom_site_fract_y
_atom_site_fract_z
Co1 Co 1.14287(4) 1.01030(4) 0.11056(3)
Co2 Co 0.33968(4) 0.60340(4) 0.46677(3)
S1 S 0.42536(10) 1.32512(8) 0.15443(5)
S2 S 0.88854(8) 0.92533(7) 0.13457(5)
S3 S 0.61062(8) 0.60009(6) 0.47777(5)
N1 N 1.2010(3) 0.9210(2) 0.04673(16)
N2 N 1.3184(3) 1.0181(2) 0.11523(17)
N3 N 1.1500(3) 0.9237(2) 0.20308(17)
N4 N 1.0969(3) 1.0941(2) 0.18064(17)
N5 N 0.3803(3) 0.7402(2) 0.43650(17)
N6 N 0.3950(3) 0.6083(2) 0.36534(19)
N7 N 0.1685(3) 0.6097(3) 0.4542(3)
N8 N 0.2732(3) 0.6089(2) 0.5657(2)
C1 C 0.4491(4) 1.1747(3) 0.3349(2)
C2 C 0.4089(4) 1.2261(3) 0.2795(2)
H1 H 0.3320 1.2377 0.2795
C3 C 0.4790(4) 1.2606(3) 0.2245(2)
C4 C 0.5911(3) 1.2418(3) 0.2235(2)
H2 H 0.6386 1.2643 0.1849
C5 C 0.6355(3) 1.1905(3) 0.27778(19)
C6 C 0.7583(3) 1.1707(3) 0.2745(2)
H3 H 0.7944 1.2077 0.2340
H4 H 0.7888 1.1892 0.3137
C7 C 0.7912(3) 1.0761(3) 0.27292(19)
C8 C 0.8133(3) 1.0457(3) 0.2123(2)
H5 H 0.8025 1.0834 0.1715
C9 C 0.8511(3) 0.9604(3) 0.21122(19)
C10 C 0.8659(3) 0.9047(3) 0.2709(2)
H6 H 0.8909 0.8465 0.2698
C11 C 0.8450(3) 0.9327(3) 0.3319(2)
C12 C 0.8695(3) 0.8732(3) 0.39585(19)
H7 H 0.9144 0.9076 0.4212
H8 H 0.9166 0.8250 0.3833
C13 C 0.7740(3) 0.8319(3) 0.44308(19)
C14 C 0.7317(3) 0.7507(3) 0.4368(2)
H9 H 0.7541 0.7253 0.3984
C15 C 0.6565(3) 0.7057(2) 0.48623(19)
C16 C 0.6236(3) 0.7421(3) 0.5429(2)
H10 H 0.5748 0.7100 0.5772
C17 C 0.6610(3) 0.8239(3) 0.54959(19)
C18 C 0.3713(4) 1.1295(3) 0.3918(2)
H11 H 0.3023 1.1154 0.3727
H12 H 0.4048 1.0729 0.4097
C19 C 0.5633(3) 1.1590(3) 0.33434(19)
C20 C 0.8084(3) 1.0194(3) 0.3337(2)
C21 C 0.7340(3) 0.8703(2) 0.49820(19)
C22 C 1.1433(4) 0.8771(3) 0.0102(2)
H13 H 1.0659 0.8865 0.0102
C23 C 1.1909(4) 0.8177(3) -0.0281(2)
H14 H 1.1466 0.7883 -0.0542
C24 C 1.3014(4) 0.8022(3) -0.0279(2)
H15 H 1.3346 0.7609 -0.0531
C25 C 1.4827(4) 0.8356(3) 0.0141(2)
H16 H 1.5196 0.7946 -0.0098
C26 C 1.5411(4) 0.8812(3) 0.0513(2)
H17 H 1.6180 0.8710 0.0538
C27 C 1.5442(4) 0.9953(3) 0.1257(2)
H18 H 1.6212 0.9880 0.1298
C28 C 1.4874(4) 1.0544(3) 0.1568(2)
H19 H 1.5246 1.0888 0.1830
C29 C 1.3743(4) 1.0652(3) 0.1507(2)
H20 H 1.3361 1.1077 0.1726
C30 C 1.3740(3) 0.9583(3) 0.0842(2)
C31 C 1.4882(3) 0.9445(3) 0.0870(2)
C32 C 1.3667(4) 0.8481(3) 0.0101(2)
C33 C 1.3117(3) 0.9078(3) 0.0456(2)
C34 C 1.1797(4) 0.8392(3) 0.2132(3)
H21 H 1.1909 0.8100 0.1756
C35 C 1.1948(4) 0.7923(3) 0.2763(3)
H22 H 1.2159 0.7324 0.2813
C36 C 1.1790(4) 0.8330(4) 0.3307(3)
H23 H 1.1891 0.8017 0.3740
C37 C 1.1287(4) 0.9698(4) 0.3766(2)
H24 H 1.1393 0.9416 0.4207
C38 C 1.0961(4) 1.0540(4) 0.3664(2)
H25 H 1.0822 1.0837 0.4035
C39 C 1.0501(4) 1.1872(3) 0.2855(3)
H26 H 1.0345 1.2198 0.3209
C40 C 1.0412(4) 1.2264(3) 0.2205(3)
H27 H 1.0188 1.2859 0.2104
C41 C 1.0657(4) 1.1773(3) 0.1695(2)
H28 H 1.0596 1.2047 0.1246
C42 C 1.1035(3) 1.0550(3) 0.2457(2)
C43 C 1.0819(4) 1.1000(3) 0.2996(2)
C44 C 1.1475(4) 0.9222(3) 0.3225(2)
C45 C 1.1342(3) 0.9646(3) 0.2571(2)
C46 C 0.3762(4) 0.8033(3) 0.4740(2)
H29 H 0.3370 0.7922 0.5170
C47 C 0.4273(4) 0.8856(3) 0.4524(2)
H30 H 0.4217 0.9295 0.4802
C48 C 0.4853(4) 0.9021(3) 0.3911(2)
H31 H 0.5218 0.9572 0.3764
C49 C 0.5482(5) 0.8491(4) 0.2851(3)
H32 H 0.5854 0.9033 0.2680
C50 C 0.5510(6) 0.7847(4) 0.2476(3)
H33 H 0.5887 0.7948 0.2041
C51 C 0.5005(6) 0.6307(4) 0.2369(3)
H34 H 0.5348 0.6378 0.1926
C52 C 0.4535(5) 0.5515(4) 0.2660(3)
H35 H 0.4562 0.5030 0.2426
C53 C 0.4017(5) 0.5434(3) 0.3304(3)
H36 H 0.3695 0.4882 0.3503
C54 C 0.4421(4) 0.6871(3) 0.3363(2)
C55 C 0.4981(5) 0.7006(3) 0.2722(2)
C56 C 0.4907(4) 0.8376(3) 0.3499(2)
C57 C 0.4365(4) 0.7569(3) 0.3750(2)
C58 C 0.1194(5) 0.6055(4) 0.3984(4)
H37 H 0.1643 0.6028 0.3583
C59 C 0.0047(7) 0.6050(5) 0.3967(6)
H38 H -0.0271 0.6018 0.3560
C60 C -0.0578(7) 0.6087(5) 0.4503(6)
H39 H -0.1358 0.6085 0.4484
C61 C -0.0724(8) 0.6164(6) 0.5705(7)
H40 H -0.1506 0.6201 0.5706
C62 C -0.0298(7) 0.6151(4) 0.6262(5)
H41 H -0.0775 0.6154 0.6656
C63 C 0.1535(8) 0.6116(4) 0.6862(4)
H42 H 0.1131 0.6129 0.7281
C64 C 0.2679(7) 0.6083(4) 0.6833(3)
H43 H 0.3062 0.6072 0.7224
C65 C 0.3257(5) 0.6067(3) 0.6199(3)
H44 H 0.4042 0.6039 0.6166
C66 C 0.1591(5) 0.6132(3) 0.5702(3)
C67 C 0.0976(6) 0.6131(4) 0.6315(5)
C68 C -0.0142(6) 0.6130(4) 0.5119(5)
C69 C 0.1044(4) 0.6127(3) 0.5110(4)
O1 O 0.5987(3) 1.1117(2) 0.39013(14)
H45 H 0.6641 1.0959 0.3822
O2 O 0.7915(2) 1.04927(18) 0.39108(13)
O3 O 0.7667(2) 0.95132(18) 0.50524(13)
H46 H 0.7748 0.9834 0.4675
O4 O 0.3170(4) 1.2883(4) 0.1505(2)
O5 O 0.4214(5) 1.4124(3) 0.1670(2)
O6 O 0.4978(4) 1.3148(3) 0.09676(17)
O7 O 0.7924(2) 0.9344(2) 0.09560(15)
O8 O 0.9772(2) 0.9843(2) 0.09988(14)
O9 O 0.9249(3) 0.8352(2) 0.14982(15)
O10 O 0.6272(2) 0.5919(2) 0.40836(15)
O11 O 0.4947(2) 0.59387(18) 0.50476(14)
O12 O 0.6764(2) 0.53714(18) 0.52009(16)
O13 O 1.1456(3) 1.1107(3) 0.02823(17)
H47 H 1.177(5) 1.148(4) 0.031(3)
H48 H 1.179(6) 1.097(5) -0.004(4)
Co1A Co -0.14287(4) 0.98970(4) 0.88944(3)
Co2A Co 0.66032(4) 1.39660(4) 0.53323(3)
Co2A_2 Co 0.66032(4) 0.39660(4) 0.53323(3)
Co2_2 Co 0.33968(4) 1.60340(4) 0.46677(3)
S1A S 0.57464(10) 0.67488(8) 0.84557(5)
S2A S 0.11146(8) 1.07467(7) 0.86543(5)
S3A S 0.38938(8) 1.39991(6) 0.52223(5)
N1A N -0.2010(3) 1.0790(2) 0.95327(16)
N2A N -0.3184(3) 0.9819(2) 0.88477(17)
N3A N -0.1500(3) 1.0763(2) 0.79692(17)
N4A N -0.0969(3) 0.9059(2) 0.81936(17)
N5A N 0.6197(3) 1.2598(2) 0.56350(17)
N6A N 0.6050(3) 1.3917(2) 0.63466(19)
N7A N 0.8315(3) 1.3903(3) 0.5458(3)
N8A N 0.7268(3) 1.3911(2) 0.4343(2)
C1A C 0.5509(4) 0.8253(3) 0.6651(2)
C2A C 0.5911(4) 0.7739(3) 0.7205(2)
H1A H 0.6680 0.7623 0.7205
C3A C 0.5210(4) 0.7394(3) 0.7755(2)
C4A C 0.4089(3) 0.7582(3) 0.7765(2)
H2A H 0.3614 0.7357 0.8151
C5A C 0.3645(3) 0.8095(3) 0.72222(19)
C6A C 0.2417(3) 0.8293(3) 0.7255(2)
H3A H 0.2056 0.7923 0.7660
H4A H 0.2112 0.8108 0.6863
C7A C 0.2088(3) 0.9239(3) 0.72708(19)
C8A C 0.1867(3) 0.9543(3) 0.7877(2)
H5A H 0.1975 0.9166 0.8285
C9A C 0.1489(3) 1.0396(3) 0.78878(19)
C10A C 0.1341(3) 1.0953(3) 0.7291(2)
H6A H 0.1091 1.1535 0.7302
C11A C 0.1550(3) 1.0673(3) 0.6681(2)
C12A C 0.1305(3) 1.1268(3) 0.60415(19)
H7A H 0.0856 1.0924 0.5788
H8A H 0.0834 1.1750 0.6167
C13A C 0.2260(3) 1.1681(3) 0.55692(19)
C14A C 0.2683(3) 1.2493(3) 0.5632(2)
H9A H 0.2459 1.2747 0.6016
C15A C 0.3435(3) 1.2943(2) 0.51377(19)
C16A C 0.3764(3) 1.2579(3) 0.4571(2)
H10A H 0.4252 1.2900 0.4228
C17A C 0.3390(3) 1.1761(3) 0.45041(19)
C18A C 0.6287(4) 0.8705(3) 0.6082(2)
H11A H 0.6977 0.8846 0.6273
H12A H 0.5952 0.9271 0.5903
C19A C 0.4367(3) 0.8410(3) 0.66566(19)
C20A C 0.1916(3) 0.9806(3) 0.6663(2)
C21A C 0.2660(3) 1.1297(2) 0.50180(19)
C22A C -0.1433(4) 1.1229(3) 0.9898(2)
H13A H -0.0659 1.1135 0.9898
C23A C -0.1909(4) 1.1823(3) 1.0281(2)
H14A H -0.1466 1.2117 1.0542
C24A C -0.3014(4) 1.1978(3) 1.0279(2)
H15A H -0.3346 1.2391 1.0531
C25A C -0.4827(4) 1.1644(3) 0.9859(2)
H16A H -0.5196 1.2054 1.0098
C26A C -0.5411(4) 1.1188(3) 0.9487(2)
H17A H -0.6180 1.1290 0.9462
C27A C -0.5442(4) 1.0047(3) 0.8743(2)
H18A H -0.6212 1.0120 0.8702
C28A C -0.4874(4) 0.9456(3) 0.8432(2)
H19A H -0.5246 0.9112 0.8170
C29A C -0.3743(4) 0.9348(3) 0.8493(2)
H20A H -0.3361 0.8923 0.8274
C30A C -0.3740(3) 1.0417(3) 0.9158(2)
C31A C -0.4882(3) 1.0555(3) 0.9130(2)
C32A C -0.3667(4) 1.1519(3) 0.9899(2)
C33A C -0.3117(3) 1.0922(3) 0.9544(2)
C34A C -0.1797(4) 1.1608(3) 0.7868(3)
H21A H -0.1909 1.1900 0.8244
C35A C -0.1948(4) 1.2077(3) 0.7237(3)
H22A H -0.2159 1.2676 0.7187
C36A C -0.1790(4) 1.1670(4) 0.6693(3)
H23A H -0.1891 1.1983 0.6260
C37A C -0.1287(4) 1.0302(4) 0.6234(2)
H24A H -0.1393 1.0584 0.5793
C38A C -0.0961(4) 0.9460(4) 0.6336(2)
H25A H -0.0822 0.9163 0.5965
C39A C -0.0501(4) 0.8128(3) 0.7145(3)
H26A H -0.0345 0.7802 0.6791
C40A C -0.0412(4) 0.7736(3) 0.7795(3)
H27A H -0.0188 0.7141 0.7896
C41A C -0.0657(4) 0.8227(3) 0.8305(2)
H28A H -0.0596 0.7953 0.8754
C42A C -0.1035(3) 0.9450(3) 0.7543(2)
C43A C -0.0819(4) 0.9000(3) 0.7004(2)
C44A C -0.1475(4) 1.0778(3) 0.6775(2)
C45A C -0.1342(3) 1.0354(3) 0.7429(2)
C46A C 0.6238(4) 1.1967(3) 0.5260(2)
H29A H 0.6630 1.2078 0.4830
C47A C 0.5727(4) 1.1144(3) 0.5476(2)
H30A H 0.5783 1.0705 0.5198
C48A C 0.5147(4) 1.0979(3) 0.6089(2)
H31A H 0.4782 1.0428 0.6236
C49A C 0.4518(5) 1.1509(4) 0.7149(3)
H32A H 0.4146 1.0967 0.7320
C50A C 0.4490(6) 1.2153(4) 0.7524(3)
H33A H 0.4113 1.2052 0.7959
C51A C 0.4995(6) 1.3693(4) 0.7631(3)
H34A H 0.4652 1.3622 0.8074
C52A C 0.5465(5) 1.4485(4) 0.7340(3)
H35A H 0.5438 1.4970 0.7574
C53A C 0.5983(5) 1.4566(3) 0.6696(3)
H36A H 0.6305 1.5118 0.6497
C54A C 0.5579(4) 1.3129(3) 0.6637(2)
C55A C 0.5019(5) 1.2994(3) 0.7278(2)
C56A C 0.5093(4) 1.1624(3) 0.6501(2)
C57A C 0.5635(4) 1.2431(3) 0.6250(2)
C58A C 0.8806(5) 1.3945(4) 0.6016(4)
H37A H 0.8357 1.3972 0.6417
C59A C 0.9953(7) 1.3950(5) 0.6033(6)
H38A H 1.0271 1.3982 0.6440
C60A C 1.0578(7) 1.3913(5) 0.5497(6)
H39A H 1.1358 1.3915 0.5516
C61A C 1.0724(8) 1.3836(6) 0.4295(7)
H40A H 1.1506 1.3799 0.4294
C62A C 1.0298(7) 1.3849(4) 0.3738(5)
H41A H 1.0775 1.3846 0.3344
C63A C 0.8465(8) 1.3884(4) 0.3138(4)
H42A H 0.8869 1.3871 0.2719
C64A C 0.7321(7) 1.3917(4) 0.3167(3)
H43A H 0.6938 1.3928 0.2776
C65A C 0.6743(5) 1.3933(3) 0.3801(3)
H44A H 0.5958 1.3961 0.3834
C66A C 0.8409(5) 1.3868(3) 0.4298(3)
C67A C 0.9024(6) 1.3869(4) 0.3685(5)
C68A C 1.0142(6) 1.3870(4) 0.4881(5)
C69A C 0.8956(4) 1.3873(3) 0.4890(4)
O1A O 0.4013(3) 0.8883(2) 0.60987(14)
H45A H 0.3359 0.9041 0.6178
O2A O 0.2085(2) 0.95073(18) 0.60892(13)
O3A O 0.2333(2) 1.04868(18) 0.49476(13)
H46A H 0.2252 1.0166 0.5325
O4A O 0.6830(4) 0.7117(4) 0.8495(2)
O5A O 0.5786(5) 0.5876(3) 0.8330(2)
O6A O 0.5022(4) 0.6852(3) 0.90324(17)
O7A O 0.2076(2) 1.0656(2) 0.90440(15)
O8A O 0.0228(2) 1.0157(2) 0.90012(14)
O9A O 0.0751(3) 1.1648(2) 0.85018(15)
O10A O 0.3728(2) 1.4081(2) 0.59164(15)
O11A O 0.5053(2) 1.40613(18) 0.49524(14)
O12A O 0.3236(2) 1.46286(18) 0.47991(16)
O12A_2 O 0.3236(2) 0.46286(18) 0.47991(16)
O12_2 O 0.6764(2) 1.53714(18) 0.52009(16)
O13A O -0.1456(3) 0.8893(3) 0.97177(17)
H47A H -0.177(5) 0.852(4) 0.969(3)
H48A H -0.179(6) 0.903(5) 1.004(4)
O14 O 0.2476(4) 0.6762(3) 0.1307(2)
O15 O 0.7873(4) 0.6198(3) 0.2952(2)
O16 O 0.2449(4) 0.2691(4) 0.0322(3)
O17 O 0.4071(5) 0.5740(4) 0.0809(3)
O18 O 0.6315(5) 0.6228(4) 0.0689(3)
O19 O 0.6529(6) 0.4501(5) 0.0442(4)
O20 O 0.0318(6) 0.6921(5) 0.1064(3)
O21 O 0.8686(10) 0.4597(8) 0.0366(6)
O22 O 0.0584(9) 0.3609(7) 0.0003(5)
O23 O 0.8943(6) 0.1708(5) 0.4581(3)
O24 O 0.7506(7) 0.7047(5) 0.1532(4)
O25 O 0.1685(6) 0.5855(5) 0.2519(4)
O26 O 0.1631(7) 0.4277(6) 0.2216(4)
O27 O 0.0256(8) 0.5484(6) 0.8461(5)
O28 O 0.0314(9) 0.4356(7) 0.7862(5)
O29 O 0.7657(9) 0.5500(7) 0.1852(5)
O30 O 0.0245(10) 0.3132(8) 0.7525(6)
O31 O 0.1715(12) 0.3918(9) 0.0786(7)
O32? O 0.4405(10) 0.6224(8) 0.0404(6)
O33? O 0.5983(11) 0.5153(9) 0.1067(6)
O34? O 0.7312(11) 0.4663(9) 0.0027(7)
O35? O 0.0604(9) 0.6225(7) 0.0686(5)
O36? O 0.8776(9) 0.3663(8) 0.0868(6)
O37? O 0.1067(14) 0.2811(12) -0.0042(8)
loop_
_geom_bond_atom_site_label_1
_geom_bond_atom_site_label_2
_geom_bond_site_symmetry_1
_geom_bond_site_symmetry_2
Co1 N1 1_555 1_555
Co2 N5 1_555 1_555
S1 C3 1_555 1_555
S2 C9 1_555 1_555
S3 C15 1_555 1_555
N1 C22 1_555 1_555
N2 Co1 1_555 1_555
N3 Co1 1_555 1_555
N4 Co1 1_555 1_555
N5 C46 1_555 1_555
N6 Co2 1_555 1_555
N7 Co2 1_555 1_555
N8 Co2 1_555 1_555
C1 C2 1_555 1_555
C2 H1 1_555 1_555
C3 C2 1_555 1_555
C4 C3 1_555 1_555
H2 C4 1_555 1_555
C5 C4 1_555 1_555
C6 C5 1_555 1_555
H3 C6 1_555 1_555
H4 C6 1_555 1_555
C7 C6 1_555 1_555
C8 C7 1_555 1_555
H5 C8 1_555 1_555
C9 C8 1_555 1_555
C10 C9 1_555 1_555
H6 C10 1_555 1_555
C11 C10 1_555 1_555
C12 C11 1_555 1_555
H7 C12 1_555 1_555
H8 C12 1_555 1_555
C13 C12 1_555 1_555
C14 C13 1_555 1_555
H9 C14 1_555 1_555
C15 C14 1_555 1_555
C16 C15 1_555 1_555
H10 C16 1_555 1_555
C17 C16 1_555 1_555
C18 C1 1_555 1_555
H11 C18 1_555 1_555
H12 C18 1_555 1_555
C19 C1 1_555 1_555
C20 C7 1_555 1_555
C21 C13 1_555 1_555
C22 H13 1_555 1_555
C23 C22 1_555 1_555
H14 C23 1_555 1_555
C24 C23 1_555 1_555
H15 C24 1_555 1_555
C25 H16 1_555 1_555
C26 C25 1_555 1_555
H17 C26 1_555 1_555
C27 H18 1_555 1_555
C28 C27 1_555 1_555
H19 C28 1_555 1_555
C29 N2 1_555 1_555
H20 C29 1_555 1_555
C30 N2 1_555 1_555
C31 C26 1_555 1_555
C32 C24 1_555 1_555
C33 N1 1_555 1_555
C34 N3 1_555 1_555
H21 C34 1_555 1_555
C35 C34 1_555 1_555
H22 C35 1_555 1_555
C36 C35 1_555 1_555
H23 C36 1_555 1_555
C37 H24 1_555 1_555
C38 C37 1_555 1_555
H25 C38 1_555 1_555
C39 H26 1_555 1_555
C40 C39 1_555 1_555
H27 C40 1_555 1_555
C41 N4 1_555 1_555
H28 C41 1_555 1_555
C42 N4 1_555 1_555
C43 C38 1_555 1_555
C44 C36 1_555 1_555
C45 N3 1_555 1_555
C46 H29 1_555 1_555
C47 C46 1_555 1_555
H30 C47 1_555 1_555
C48 C47 1_555 1_555
H31 C48 1_555 1_555
C49 H32 1_555 1_555
C50 C49 1_555 1_555
H33 C50 1_555 1_555
C51 H34 1_555 1_555
C52 C51 1_555 1_555
H35 C52 1_555 1_555
C53 N6 1_555 1_555
H36 C53 1_555 1_555
C54 N6 1_555 1_555
C55 C50 1_555 1_555
C56 C48 1_555 1_555
C57 N5 1_555 1_555
C58 N7 1_555 1_555
H37 C58 1_555 1_555
C59 C58 1_555 1_555
H38 C59 1_555 1_555
C60 C59 1_555 1_555
H39 C60 1_555 1_555
C61 H40 1_555 1_555
C62 C61 1_555 1_555
H41 C62 1_555 1_555
C63 H42 1_555 1_555
C64 C63 1_555 1_555
H43 C64 1_555 1_555
C65 N8 1_555 1_555
H44 C65 1_555 1_555
C66 N8 1_555 1_555
C67 C62 1_555 1_555
C68 C60 1_555 1_555
C69 N7 1_555 1_555
O1 C19 1_555 1_555
H45 O1 1_555 1_555
O2 C20 1_555 1_555
O3 C21 1_555 1_555
H46 O3 1_555 1_555
O4 S1 1_555 1_555
O5 S1 1_555 1_555
O6 S1 1_555 1_555
O7 S2 1_555 1_555
O8 Co1 1_555 1_555
O9 S2 1_555 1_555
O10 S3 1_555 1_555
O11 Co2 1_555 1_555
O12 S3 1_555 1_555
O13 Co1 1_555 1_555
H47 O13 1_555 1_555
H48 O13 1_555 1_555
Co1A N1A 1_555 1_555
Co2A N5A 1_555 1_555
Co2A_2 O12 1_555 1_555
Co2_2 O12A 1_555 1_555
S1A C3A 1_555 1_555
S2A C9A 1_555 1_555
S3A C15A 1_555 1_555
N1A C22A 1_555 1_555
N2A Co1A 1_555 1_555
N3A Co1A 1_555 1_555
N4A Co1A 1_555 1_555
N5A C46A 1_555 1_555
N6A Co2A 1_555 1_555
N7A Co2A 1_555 1_555
N8A Co2A 1_555 1_555
C1A C2A 1_555 1_555
C2A H1A 1_555 1_555
C3A C2A 1_555 1_555
C4A C3A 1_555 1_555
H2A C4A 1_555 1_555
C5A C4A 1_555 1_555
C6A C5A 1_555 1_555
H3A C6A 1_555 1_555
H4A C6A 1_555 1_555
C7A C6A 1_555 1_555
C8A C7A 1_555 1_555
H5A C8A 1_555 1_555
C9A C8A 1_555 1_555
C10A C9A 1_555 1_555
H6A C10A 1_555 1_555
C11A C10A 1_555 1_555
C12A C11A 1_555 1_555
H7A C12A 1_555 1_555
H8A C12A 1_555 1_555
C13A C12A 1_555 1_555
C14A C13A 1_555 1_555
H9A C14A 1_555 1_555
C15A C14A 1_555 1_555
C16A C15A 1_555 1_555
H10A C16A 1_555 1_555
C17A C18 1_555 1_555
C18A C17 1_555 1_555
H11A C18A 1_555 1_555
H12A C18A 1_555 1_555
C19A C1A 1_555 1_555
C20A C7A 1_555 1_555
C21A C13A 1_555 1_555
C22A H13A 1_555 1_555
C23A C22A 1_555 1_555
H14A C23A 1_555 1_555
C24A C23A 1_555 1_555
H15A C24A 1_555 1_555
C25A H16A 1_555 1_555
C26A C25A 1_555 1_555
H17A C26A 1_555 1_555
C27A H18A 1_555 1_555
C28A C27A 1_555 1_555
H19A C28A 1_555 1_555
C29A N2A 1_555 1_555
H20A C29A 1_555 1_555
C30A N2A 1_555 1_555
C31A C26A 1_555 1_555
C32A C24A 1_555 1_555
C33A N1A 1_555 1_555
C34A N3A 1_555 1_555
H21A C34A 1_555 1_555
C35A C34A 1_555 1_555
H22A C35A 1_555 1_555
C36A C35A 1_555 1_555
H23A C36A 1_555 1_555
C37A H24A 1_555 1_555
C38A C37A 1_555 1_555
H25A C38A 1_555 1_555
C39A H26A 1_555 1_555
C40A C39A 1_555 1_555
H27A C40A 1_555 1_555
C41A N4A 1_555 1_555
H28A C41A 1_555 1_555
C42A N4A 1_555 1_555
C43A C38A 1_555 1_555
C44A C36A 1_555 1_555
C45A N3A 1_555 1_555
C46A H29A 1_555 1_555
C47A C46A 1_555 1_555
H30A C47A 1_555 1_555
C48A C47A 1_555 1_555
H31A C48A 1_555 1_555
C49A H32A 1_555 1_555
C50A C49A 1_555 1_555
H33A C50A 1_555 1_555
C51A H34A 1_555 1_555
C52A C51A 1_555 1_555
H35A C52A 1_555 1_555
C53A N6A 1_555 1_555
H36A C53A 1_555 1_555
C54A N6A 1_555 1_555
C55A C50A 1_555 1_555
C56A C48A 1_555 1_555
C57A N5A 1_555 1_555
C58A N7A 1_555 1_555
H37A C58A 1_555 1_555
C59A C58A 1_555 1_555
H38A C59A 1_555 1_555
C60A C59A 1_555 1_555
H39A C60A 1_555 1_555
C61A H40A 1_555 1_555
C62A C61A 1_555 1_555
H41A C62A 1_555 1_555
C63A H42A 1_555 1_555
C64A C63A 1_555 1_555
H43A C64A 1_555 1_555
C65A N8A 1_555 1_555
H44A C65A 1_555 1_555
C66A N8A 1_555 1_555
C67A C62A 1_555 1_555
C68A C60A 1_555 1_555
C69A N7A 1_555 1_555
O1A C19A 1_555 1_555
H45A O1A 1_555 1_555
O2A C20A 1_555 1_555
O3A C21A 1_555 1_555
H46A O3A 1_555 1_555
O4A S1A 1_555 1_555
O5A S1A 1_555 1_555
O6A S1A 1_555 1_555
O7A S2A 1_555 1_555
O8A Co1A 1_555 1_555
O9A S2A 1_555 1_555
O10A S3A 1_555 1_555
O11A Co2A 1_555 1_555
O12A S3A 1_555 1_555
O12A_2 Co2 1_555 1_555
O12_2 Co2A 1_555 1_555
O13A Co1A 1_555 1_555
H47A O13A 1_555 1_555
H48A O13A 1_555 1_555
S2 O8 1_555 1_555
S3 O11 1_555 1_555
C5 C19 1_555 1_555
C11 C20 1_555 1_555
C17 C21 1_555 1_555
C25 C32 1_555 1_555
C27 C31 1_555 1_555
C28 C29 1_555 1_555
C30 C31 1_555 1_555
C30 C33 1_555 1_555
C32 C33 1_555 1_555
C37 C44 1_555 1_555
C39 C43 1_555 1_555
C40 C41 1_555 1_555
C42 C43 1_555 1_555
C42 C45 1_555 1_555
C44 C45 1_555 1_555
C49 C56 1_555 1_555
C51 C55 1_555 1_555
C52 C53 1_555 1_555
C54 C55 1_555 1_555
C54 C57 1_555 1_555
C56 C57 1_555 1_555
C61 C68 1_555 1_555
C63 C67 1_555 1_555
C64 C65 1_555 1_555
C66 C67 1_555 1_555
C66 C69 1_555 1_555
C68 C69 1_555 1_555
S2A O8A 1_555 1_555
S3A O11A 1_555 1_555
C1A C18A 1_555 1_555
C5A C19A 1_555 1_555
C11A C20A 1_555 1_555
C16A C17A 1_555 1_555
C17A C21A 1_555 1_555
C25A C32A 1_555 1_555
C27A C31A 1_555 1_555
C28A C29A 1_555 1_555
C30A C31A 1_555 1_555
C30A C33A 1_555 1_555
C32A C33A 1_555 1_555
C37A C44A 1_555 1_555
C39A C43A 1_555 1_555
C40A C41A 1_555 1_555
C42A C43A 1_555 1_555
C42A C45A 1_555 1_555
C44A C45A 1_555 1_555
C49A C56A 1_555 1_555
C51A C55A 1_555 1_555
C52A C53A 1_555 1_555
C54A C55A 1_555 1_555
C54A C57A 1_555 1_555
C56A C57A 1_555 1_555
C61A C68A 1_555 1_555
C63A C67A 1_555 1_555
C64A C65A 1_555 1_555
C66A C67A 1_555 1_555
C66A C69A 1_555 1_555
C68A C69A 1_555 1_555

#END
