
#######################################################################
#
#                 Cambridge Crystallographic Data Centre
#                                CCDC 
#
#######################################################################
#
# If this CIF has been generated from an entry in the Cambridge 
# Structural Database, then it will include bibliographic, chemical, 
# crystal, experimental, refinement or atomic coordinate data resulting 
# from the CCDC's data processing and validation procedures.
#
#######################################################################

data_CUPHAL02
_symmetry_cell_setting           monoclinic
_symmetry_space_group_name_H-M   'C 2/c'
_symmetry_Int_Tables_number      15
_space_group_name_Hall           '-C 2yn'
loop_
_symmetry_equiv_pos_site_id
_symmetry_equiv_pos_as_xyz
1 x,y,z
2 1/2+x,1/2+y,z
3 -x,y,1/2-z
4 1/2-x,1/2+y,1/2-z
5 -x,-y,-z
6 1/2-x,1/2-y,-z
7 x,-y,1/2+z
8 1/2+x,1/2-y,1/2+z
_cell_length_a                   26.143(5)
_cell_length_b                   6.6868(13)
_cell_length_c                   9.823(2)
_cell_angle_alpha                90
_cell_angle_beta                 94.11(3)
_cell_angle_gamma                90
_cell_volume                     1712.77
loop_
_atom_site_label
_atom_site_type_symbol
_atom_site_fract_x
_atom_site_fract_y
_atom_site_fract_z
Cu1 Cu 0.5000 0.18606(14) 0.2500
Cu2 Cu 0.5000 0.5000 0.0000
O1 O 0.45010(15) 0.3891(6) 0.2925(4)
O2 O 0.44464(16) 0.5909(6) 0.1098(4)
O3 O 0.39102(16) 1.0888(7) 0.1026(5)
O4 O 0.44991(15) 0.9735(6) 0.2595(4)
O5 O 0.5283(2) 0.7698(8) 0.0033(5)
C1 C 0.4295(2) 0.5289(9) 0.2208(6)
C2 C 0.3819(2) 0.6186(10) 0.2699(6)
C3 C 0.3490(3) 0.4969(9) 0.3372(7)
H1 H 0.3585 0.3654 0.3571
C4 C 0.3024(3) 0.5674(12) 0.3756(8)
H2 H 0.2810 0.4850 0.4223
C5 C 0.2879(3) 0.7615(12) 0.3436(8)
H3 H 0.2558 0.8070 0.3646
C6 C 0.3206(2) 0.8894(11) 0.2805(8)
H4 H 0.3108 1.0208 0.2617
C7 C 0.3689(2) 0.8197(9) 0.2450(6)
C8 C 0.4053(2) 0.9716(9) 0.1948(6)
H5 H 0.530(2) 0.820(9) 0.063(6)
H6 H 0.555(2) 0.789(9) -0.029(6)
Cu1_2 Cu 0.5000 1.18606(14) 0.2500
Cu2F Cu 0.5000 0.5000 0.5000
O1B O 0.54990(15) 0.3891(6) 0.2075(4)
O2B O 0.55536(16) 0.5909(6) 0.3902(4)
O2D O 0.55536(16) 0.4091(6) -0.1098(4)
O3B O 0.60898(16) 1.0888(7) 0.3974(5)
O4B O 0.55009(15) 0.9735(6) 0.2405(4)
O4_2 O 0.44991(15) -0.0265(6) 0.2595(4)
O4B_2 O 0.55009(15) -0.0265(6) 0.2405(4)
O5D O 0.4717(2) 0.2302(8) -0.0033(5)
C1B C 0.5705(2) 0.5289(9) 0.2792(6)
C2B C 0.6181(2) 0.6186(10) 0.2301(6)
C3B C 0.6510(3) 0.4969(9) 0.1628(7)
H1B H 0.6415 0.3654 0.1429
C4B C 0.6976(3) 0.5674(12) 0.1244(8)
H2B H 0.7190 0.4850 0.0777
C5B C 0.7121(3) 0.7615(12) 0.1564(8)
H3B H 0.7442 0.8070 0.1354
C6B C 0.6794(2) 0.8894(11) 0.2195(8)
H4B H 0.6892 1.0208 0.2383
C7B C 0.6311(2) 0.8197(9) 0.2550(6)
C8B C 0.5947(2) 0.9716(9) 0.3052(6)
H5D H 0.470(2) 0.180(9) -0.063(6)
H6D H 0.445(2) 0.211(9) 0.029(6)
loop_
_geom_bond_atom_site_label_1
_geom_bond_atom_site_label_2
_geom_bond_site_symmetry_1
_geom_bond_site_symmetry_2
Cu1 O1 1_555 1_555
Cu2 O2 1_555 1_555
O1 C1 1_555 1_555
O2 C1 1_555 1_555
O3 C8 1_555 1_555
O4 C8 1_555 1_555
O5 Cu2 1_555 1_555
C1 C2 1_555 1_555
C2 C3 1_555 1_555
C3 H1 1_555 1_555
C4 C3 1_555 1_555
H2 C4 1_555 1_555
C5 C4 1_555 1_555
H3 C5 1_555 1_555
C6 C5 1_555 1_555
H4 C6 1_555 1_555
C7 C2 1_555 1_555
C8 C7 1_555 1_555
H5 O5 1_555 1_555
H6 O5 1_555 1_555
Cu1_2 O4 1_555 1_555
Cu2F O2B 1_555 1_555
O1B Cu1 1_555 1_555
O2B C1B 1_555 1_555
O2D Cu2 1_555 1_555
O3B C8B 1_555 1_555
O4B Cu1_2 1_555 1_555
O4_2 Cu1 1_555 1_555
O4B_2 Cu1 1_555 1_555
O5D Cu2 1_555 1_555
C1B O1B 1_555 1_555
C2B C1B 1_555 1_555
C3B C2B 1_555 1_555
H1B C3B 1_555 1_555
C4B C3B 1_555 1_555
H2B C4B 1_555 1_555
C5B C4B 1_555 1_555
H3B C5B 1_555 1_555
C6B C5B 1_555 1_555
H4B C6B 1_555 1_555
C7B C2B 1_555 1_555
C8B O4B 1_555 1_555
H5D O5D 1_555 1_555
H6D O5D 1_555 1_555
C6 C7 1_555 1_555
C6B C7B 1_555 1_555
C7B C8B 1_555 1_555

#END
