
#######################################################################
#
#                 Cambridge Crystallographic Data Centre
#                                CCDC 
#
#######################################################################
#
# If this CIF has been generated from an entry in the Cambridge 
# Structural Database, then it will include bibliographic, chemical, 
# crystal, experimental, refinement or atomic coordinate data resulting 
# from the CCDC's data processing and validation procedures.
#
#######################################################################

data_CUPHCB
_symmetry_cell_setting           monoclinic
_symmetry_space_group_name_H-M   'C 2/m'
_symmetry_Int_Tables_number      12
_space_group_name_Hall           '-C 2y'
loop_
_symmetry_equiv_pos_site_id
_symmetry_equiv_pos_as_xyz
1 x,y,z
2 1/2+x,1/2+y,z
3 -x,y,-z
4 1/2-x,1/2+y,-z
5 -x,-y,-z
6 1/2-x,1/2-y,-z
7 x,-y,z
8 1/2+x,1/2-y,z
_cell_length_a                   13.769(4)
_cell_length_b                   6.839(2)
_cell_length_c                   13.813(4)
_cell_angle_alpha                90
_cell_angle_beta                 95.5(2)
_cell_angle_gamma                90
_cell_volume                     1294.73
loop_
_atom_site_label
_atom_site_type_symbol
_atom_site_fract_x
_atom_site_fract_y
_atom_site_fract_z
Br1 Br 0.41894 0.50000 0.32863
Br2 Br 0.31242 0.00000 0.21281
Br3 Br 0.30255 0.50000 0.06042
Cu1 Cu 0.50000 0.00000 0.00000
Cu2 Cu 0.40762 0.29637 0.18280
C1 C 0.58470 0.00000 0.19230
C2 C 0.65260 -0.18140 0.33550
C3 C 0.61330 -0.18130 0.43510
C4 C 0.64670 0.00000 0.49260
H1 H 0.73100 -0.15800 0.33700
H2 H 0.61900 -0.31700 0.29400
H3 H 0.54200 -0.19200 0.42400
H4 H 0.62700 -0.33000 0.46400
H5 H 0.64000 0.00000 0.55900
N1 N 0.62640 0.00000 0.28230
S1 S 0.55273 0.21060 0.12436
Cu2F Cu 0.40762 0.70363 0.18280
Cu2F_2 Cu 0.40762 -0.29637 0.18280
S1D S 0.44727 -0.21060 -0.12436
S1B S 0.44727 0.21060 -0.12436
S1F S 0.55273 -0.21060 0.12436
C2F C 0.65260 0.18140 0.33550
C3F C 0.61330 0.18130 0.43510
Br2_2 Br 0.31242 1.00000 0.21281
S1F_2 S 0.55273 0.78940 0.12436
Cu2D Cu 0.59238 -0.29637 -0.18280
C1D C 0.41530 0.00000 -0.19230
Cu2B Cu 0.59238 0.29637 -0.18280
H1F H 0.73100 0.15800 0.33700
H2F H 0.61900 0.31700 0.29400
H3F H 0.54200 0.19200 0.42400
H4F H 0.62700 0.33000 0.46400
Br1D Br 0.58106 -0.50000 -0.32863
Br2D Br 0.68758 0.00000 -0.21281
Br3D Br 0.69745 -0.50000 -0.06042
Cu2B_2 Cu 0.59238 -0.70363 -0.18280
N1D N 0.37360 0.00000 -0.28230
Br1D_2 Br 0.58106 0.50000 -0.32863
Br3D_2 Br 0.69745 0.50000 -0.06042
Cu2D_2 Cu 0.59238 0.70363 -0.18280
C2D C 0.34740 0.18140 -0.33550
C2B C 0.34740 -0.18140 -0.33550
C3D C 0.38670 0.18130 -0.43510
H1D H 0.26900 0.15800 -0.33700
H2D H 0.38100 0.31700 -0.29400
C3B C 0.38670 -0.18130 -0.43510
H1B H 0.26900 -0.15800 -0.33700
H2B H 0.38100 -0.31700 -0.29400
C4D C 0.35330 0.00000 -0.49260
H3D H 0.45800 0.19200 -0.42400
H4D H 0.37300 0.33000 -0.46400
H3B H 0.45800 -0.19200 -0.42400
H4B H 0.37300 -0.33000 -0.46400
H5D H 0.36000 0.00000 -0.55900
loop_
_geom_bond_atom_site_label_1
_geom_bond_atom_site_label_2
_geom_bond_site_symmetry_1
_geom_bond_site_symmetry_2
Br1 Cu2 1_555 1_555
Br2 Cu2 1_555 1_555
Br3 Cu2 1_555 1_555
Cu1 S1 1_555 1_555
Cu2 S1 1_555 1_555
C1 N1 1_555 1_555
C2 C3 1_555 1_555
C3 C4 1_555 1_555
C4 H5 1_555 1_555
H1 C2 1_555 1_555
H2 C2 1_555 1_555
H3 C3 1_555 1_555
H4 C3 1_555 1_555
N1 C2 1_555 1_555
S1 C1 1_555 1_555
Cu2F Br1 1_555 1_555
Cu2F_2 Br2 1_555 1_555
S1D Cu1 1_555 1_555
S1B Cu1 1_555 1_555
S1F Cu1 1_555 1_555
C2F N1 1_555 1_555
C3F C4 1_555 1_555
Br2_2 Cu2F 1_555 1_555
S1F_2 Cu2F 1_555 1_555
Cu2D S1D 1_555 1_555
C1D S1D 1_555 1_555
Cu2B S1B 1_555 1_555
H1F C2F 1_555 1_555
H2F C2F 1_555 1_555
H3F C3F 1_555 1_555
H4F C3F 1_555 1_555
Br1D Cu2D 1_555 1_555
Br2D Cu2D 1_555 1_555
Br3D Cu2D 1_555 1_555
Cu2B_2 Cu2D 1_555 1_555
N1D C1D 1_555 1_555
Br1D_2 Cu2B 1_555 1_555
Br3D_2 Cu2B 1_555 1_555
Cu2D_2 Cu2B 1_555 1_555
C2D N1D 1_555 1_555
C2B N1D 1_555 1_555
C3D C2D 1_555 1_555
H1D C2D 1_555 1_555
H2D C2D 1_555 1_555
C3B C2B 1_555 1_555
H1B C2B 1_555 1_555
H2B C2B 1_555 1_555
C4D C3D 1_555 1_555
H3D C3D 1_555 1_555
H4D C3D 1_555 1_555
H3B C3B 1_555 1_555
H4B C3B 1_555 1_555
H5D C4D 1_555 1_555
Br3 Cu2F 1_555 1_555
Cu2 Cu2F 1_555 1_555
C1 S1F 1_555 1_555
Cu2F_2 S1F 1_555 1_555
S1B C1D 1_555 1_555
C2F C3F 1_555 1_555
Cu2B Br2D 1_555 1_555
Br1D Cu2B_2 1_555 1_555
Br3D Cu2B_2 1_555 1_555
C3B C4D 1_555 1_555

#END
