
#######################################################################
#
#                 Cambridge Crystallographic Data Centre
#                                CCDC 
#
#######################################################################
#
# If this CIF has been generated from an entry in the Cambridge 
# Structural Database, then it will include bibliographic, chemical, 
# crystal, experimental, refinement or atomic coordinate data resulting 
# from the CCDC's data processing and validation procedures.
#
#######################################################################

data_CUPKUU01
_symmetry_cell_setting           orthorhombic
_symmetry_space_group_name_H-M   'I b c a'
_symmetry_Int_Tables_number      73
_space_group_name_Hall           '-I 2b 2c'
loop_
_symmetry_equiv_pos_site_id
_symmetry_equiv_pos_as_xyz
1 x,y,z
2 1/2-x,-y,1/2+z
3 -x,1/2+y,1/2-z
4 1/2+x,1/2-y,-z
5 1/2+x,1/2+y,1/2+z
6 -x,1/2-y,z
7 1/2-x,y,-z
8 x,-y,1/2-z
9 -x,-y,-z
10 1/2+x,y,1/2-z
11 x,1/2-y,1/2+z
12 1/2-x,1/2+y,z
13 1/2-x,1/2-y,1/2-z
14 x,1/2+y,-z
15 1/2+x,-y,z
16 -x,y,1/2+z
_cell_length_a                   16.569(9)
_cell_length_b                   17.240(10)
_cell_length_c                   27.087(16)
_cell_angle_alpha                90
_cell_angle_beta                 90
_cell_angle_gamma                90
_cell_volume                     7737.39
loop_
_atom_site_label
_atom_site_type_symbol
_atom_site_fract_x
_atom_site_fract_y
_atom_site_fract_z
Co1 Co 0.67542(4) 0.0000 0.2500
Cl1 Cl 0.67705(6) 0.09668(6) 0.31854(4)
N1 N 0.76714(17) 0.06864(19) 0.21150(12)
N2 N 0.58142(18) 0.0645(2) 0.21079(12)
N3 N 0.3633(4) 0.4497(6) 0.0241(2)
C1 C 0.7636(2) 0.1466(2) 0.20979(15)
H1 H 0.7223 0.1715 0.2267
C2 C 0.8181(2) 0.1911(3) 0.18424(15)
H2 H 0.8131 0.2448 0.1844
C3 C 0.8810(2) 0.1564(3) 0.15797(13)
C4 C 0.8850(2) 0.0764(3) 0.15983(16)
H3 H 0.9259 0.0502 0.1433
C5 C 0.8275(2) 0.0353(3) 0.18667(17)
H4 H 0.8314 -0.0185 0.1873
C6 C 0.9409(3) 0.2043(3) 0.12844(15)
H5 H 0.9113 0.2402 0.1077
H6 H 0.9712 0.1699 0.1070
C7 C 1.0000 0.2500 0.1601(2)
H7 H 1.0294 0.2150 0.1810
C8 C 0.5206(2) 0.1010(3) 0.23382(16)
H8 H 0.5201 0.1011 0.2681
C9 C 0.4592(2) 0.1384(3) 0.20949(16)
H9 H 0.4185 0.1625 0.2274
C10 C 0.4575(2) 0.1403(3) 0.15854(16)
C11 C 0.5209(3) 0.1029(3) 0.13487(16)
H10 H 0.5233 0.1023 0.1006
C12 C 0.5799(3) 0.0670(3) 0.16193(16)
H11 H 0.6216 0.0428 0.1449
C13 C 0.3909(3) 0.1820(4) 0.13073(19)
H12 H 0.3403 0.1730 0.1478
H13 H 0.4017 0.2373 0.1320
C14 C 0.3808(5) 0.1597(6) 0.0792(3)
H14 H 0.3687 0.1047 0.0778
H15 H 0.4314 0.1680 0.0620
C15 C 0.3132(5) 0.2048(8) 0.0520(3)
H16 H 0.3033 0.1798 0.0205
H17 H 0.2640 0.2009 0.0713
C16 C 0.3310(3) 0.2913(7) 0.0426(2)
C17 C 0.2852(4) 0.3489(7) 0.0640(2)
H18 H 0.2428 0.3364 0.0850
C18 C 0.3030(5) 0.4251(8) 0.0539(3)
H19 H 0.2710 0.4628 0.0687
C19 C 0.4055(5) 0.3933(8) 0.0034(3)
H20 H 0.4477 0.4076 -0.0173
C20 C 0.3925(4) 0.3164(9) 0.0099(3)
H21 H 0.4237 0.2802 -0.0070
Co1B Co 1.32458(4) 0.5000 0.2500
Cl1G Cl 0.67705(6) -0.09668(6) 0.18146(4)
N1E N 1.23286(17) 0.43136(19) 0.21150(12)
N1G N 0.76714(17) -0.06864(19) 0.28850(12)
N2G N 0.58142(18) -0.0645(2) 0.28921(12)
N3G N 0.3633(4) -0.4497(6) 0.4759(2)
C1E C 1.2364(2) 0.3534(2) 0.20979(15)
H1E H 1.2777 0.3285 0.2267
C2E C 1.1819(2) 0.3089(3) 0.18424(15)
H2E H 1.1869 0.2552 0.1844
C3E C 1.1190(2) 0.3436(3) 0.15797(13)
C4E C 1.1150(2) 0.4236(3) 0.15983(16)
H3E H 1.0741 0.4498 0.1433
C5E C 1.1725(2) 0.4647(3) 0.18667(17)
H4E H 1.1686 0.5185 0.1873
C6E C 1.0591(3) 0.2957(3) 0.12844(15)
H5E H 1.0887 0.2598 0.1077
H6E H 1.0288 0.3301 0.1070
H7E H 0.9706 0.2850 0.1810
C8G C 0.5206(2) -0.1010(3) 0.26618(16)
H8G H 0.5201 -0.1011 0.2319
C9G C 0.4592(2) -0.1384(3) 0.29051(16)
H9G H 0.4185 -0.1625 0.2726
C10G C 0.4575(2) -0.1403(3) 0.34146(16)
C11G C 0.5209(3) -0.1029(3) 0.36513(16)
H10G H 0.5233 -0.1023 0.3994
C12G C 0.5799(3) -0.0670(3) 0.33807(16)
H11G H 0.6216 -0.0428 0.3551
C13G C 0.3909(3) -0.1820(4) 0.36927(19)
H12G H 0.3403 -0.1730 0.3522
H13G H 0.4017 -0.2373 0.3680
C14G C 0.3808(5) -0.1597(6) 0.4208(3)
H14G H 0.3687 -0.1047 0.4222
H15G H 0.4314 -0.1680 0.4380
C15G C 0.3132(5) -0.2048(8) 0.4480(3)
H16G H 0.3033 -0.1798 0.4795
H17G H 0.2640 -0.2009 0.4287
C16G C 0.3310(3) -0.2913(7) 0.4574(2)
C17G C 0.2852(4) -0.3489(7) 0.4360(2)
H18G H 0.2428 -0.3364 0.4150
C18G C 0.3030(5) -0.4251(8) 0.4461(3)
H19G H 0.2710 -0.4628 0.4313
C19G C 0.4055(5) -0.3933(8) 0.4966(3)
H20G H 0.4477 -0.4076 0.5173
C20G C 0.3925(4) -0.3164(9) 0.4901(3)
H21G H 0.4237 -0.2802 0.5070
O1 O 0.4022(4) 0.6087(4) 0.0640(3)
H22 H 0.3809 0.5785 0.0429
H23 H 0.3837 0.5872 0.0899
loop_
_geom_bond_atom_site_label_1
_geom_bond_atom_site_label_2
_geom_bond_site_symmetry_1
_geom_bond_site_symmetry_2
Co1 Cl1 1_555 1_555
N1 Co1 1_555 1_555
N2 Co1 1_555 1_555
N3 C18 1_555 1_555
C1 N1 1_555 1_555
H1 C1 1_555 1_555
C2 C1 1_555 1_555
H2 C2 1_555 1_555
C3 C2 1_555 1_555
C4 C3 1_555 1_555
H3 C4 1_555 1_555
C5 N1 1_555 1_555
H4 C5 1_555 1_555
C6 C3 1_555 1_555
H5 C6 1_555 1_555
H6 C6 1_555 1_555
C7 C6 1_555 1_555
H7 C7 1_555 1_555
C8 N2 1_555 1_555
H8 C8 1_555 1_555
C9 C8 1_555 1_555
H9 C9 1_555 1_555
C10 C9 1_555 1_555
C11 C10 1_555 1_555
H10 C11 1_555 1_555
C12 N2 1_555 1_555
H11 C12 1_555 1_555
C13 C10 1_555 1_555
H12 C13 1_555 1_555
H13 C13 1_555 1_555
C14 C13 1_555 1_555
H14 C14 1_555 1_555
H15 C14 1_555 1_555
C15 C14 1_555 1_555
H16 C15 1_555 1_555
H17 C15 1_555 1_555
C16 C15 1_555 1_555
C17 C16 1_555 1_555
H18 C17 1_555 1_555
C18 C17 1_555 1_555
H19 C18 1_555 1_555
C19 N3 1_555 1_555
H20 C19 1_555 1_555
C20 C16 1_555 1_555
H21 C20 1_555 1_555
O1 H22 1_555 1_555
H23 O1 1_555 1_555
Co1B N1E 1_555 1_555
Cl1G Co1 1_555 1_555
N1E C1E 1_555 1_555
N1G Co1 1_555 1_555
N2G Co1 1_555 1_555
N3G C18G 1_555 1_555
C1E H1E 1_555 1_555
C2E C1E 1_555 1_555
H2E C2E 1_555 1_555
C3E C2E 1_555 1_555
C4E C3E 1_555 1_555
H3E C4E 1_555 1_555
C5E N1E 1_555 1_555
H4E C5E 1_555 1_555
C6E C7 1_555 1_555
H5E C6E 1_555 1_555
H6E C6E 1_555 1_555
H7E C7 1_555 1_555
C8G N2G 1_555 1_555
H8G C8G 1_555 1_555
C9G C8G 1_555 1_555
H9G C9G 1_555 1_555
C10G C9G 1_555 1_555
C11G C10G 1_555 1_555
H10G C11G 1_555 1_555
C12G N2G 1_555 1_555
H11G C12G 1_555 1_555
C13G C10G 1_555 1_555
H12G C13G 1_555 1_555
H13G C13G 1_555 1_555
C14G C13G 1_555 1_555
H14G C14G 1_555 1_555
H15G C14G 1_555 1_555
C15G C14G 1_555 1_555
H16G C15G 1_555 1_555
H17G C15G 1_555 1_555
C16G C15G 1_555 1_555
C17G C16G 1_555 1_555
H18G C17G 1_555 1_555
C18G C17G 1_555 1_555
H19G C18G 1_555 1_555
C19G N3G 1_555 1_555
H20G C19G 1_555 1_555
C20G C16G 1_555 1_555
H21G C20G 1_555 1_555
C4 C5 1_555 1_555
C11 C12 1_555 1_555
C19 C20 1_555 1_555
C3E C6E 1_555 1_555
C4E C5E 1_555 1_555
C11G C12G 1_555 1_555
C19G C20G 1_555 1_555

#END
