
#######################################################################
#
#                 Cambridge Crystallographic Data Centre
#                                CCDC 
#
#######################################################################
#
# If this CIF has been generated from an entry in the Cambridge 
# Structural Database, then it will include bibliographic, chemical, 
# crystal, experimental, refinement or atomic coordinate data resulting 
# from the CCDC's data processing and validation procedures.
#
#######################################################################

data_CUPYZP07
_symmetry_cell_setting           monoclinic
_symmetry_space_group_name_H-M   'C 2/c'
_symmetry_Int_Tables_number      15
_space_group_name_Hall           '-C 2yn'
loop_
_symmetry_equiv_pos_site_id
_symmetry_equiv_pos_as_xyz
1 x,y,z
2 -x,y,1/2-z
3 1/2+x,1/2+y,z
4 1/2-x,1/2+y,1/2-z
5 -x,-y,-z
6 x,-y,1/2+z
7 1/2-x,1/2-y,-z
8 1/2+x,1/2-y,1/2+z
_cell_length_a                   13.8147(48)
_cell_length_b                   9.7108(33)
_cell_length_c                   9.7686(33)
_cell_angle_alpha                90
_cell_angle_beta                 97.3488(40)
_cell_angle_gamma                90
_cell_volume                     1299.71
loop_
_atom_site_label
_atom_site_type_symbol
_atom_site_fract_x
_atom_site_fract_y
_atom_site_fract_z
Cu1 Cu 0.00000 0.2492 0.75000
Cl1 Cl 0.2681 0.2820 0.7765
O1 O 0.1693 0.2444 0.7848
O2 O 0.3375 0.2187 0.8857
O3 O 0.2955 0.2415 0.6428
O4 O 0.2745 0.4371 0.7881
N1 N 0.0026 0.3993 0.6014
N2 N -0.0024 0.0986 0.8981
C1 C 0.0770 0.4159 0.5274
C2 C 0.0781 0.0214 0.9316
C3 C -0.0737 0.4855 0.5760
C4 C -0.0792 0.0784 0.9674
D1 D 0.1342 0.3431 0.5405
D2 D 0.1402 0.0410 0.8813
D3 D -0.1294 0.4801 0.6410
D4 D -0.1437 0.1339 0.9322
N1D N -0.0026 0.6007 0.3986
C1D C -0.0770 0.5841 0.4726
C3D C 0.0737 0.5145 0.4240
D1D D -0.1342 0.6569 0.4595
D3D D 0.1294 0.5199 0.3590
N2D N 0.0024 -0.0986 1.1019
C2D C -0.0781 -0.0214 1.0684
C4D C 0.0792 -0.0784 1.0326
D2D D -0.1402 -0.0410 1.1187
D4D D 0.1437 -0.1339 1.0678
Cl1A Cl -0.2681 0.2820 0.7235
O1A O -0.1693 0.2444 0.7152
O2A O -0.3375 0.2187 0.6143
O3A O -0.2955 0.2415 0.8572
O4A O -0.2745 0.4371 0.7119
Cu1E Cu 0.00000 -0.2492 1.25000
Cu1E_2 Cu 0.00000 0.7508 0.25000
N1A N -0.0026 0.3993 0.8986
N2A N 0.0024 0.0986 0.6019
loop_
_geom_bond_atom_site_label_1
_geom_bond_atom_site_label_2
_geom_bond_site_symmetry_1
_geom_bond_site_symmetry_2
Cu1 O1 1_555 1_555
Cl1 O1 1_555 1_555
O2 Cl1 1_555 1_555
O3 Cl1 1_555 1_555
O4 Cl1 1_555 1_555
N1 Cu1 1_555 1_555
N2 Cu1 1_555 1_555
C1 N1 1_555 1_555
C2 N2 1_555 1_555
C3 N1 1_555 1_555
C4 N2 1_555 1_555
D1 C1 1_555 1_555
D2 C2 1_555 1_555
D3 C3 1_555 1_555
D4 C4 1_555 1_555
N1D C1D 1_555 1_555
C1D C3 1_555 1_555
C3D C1 1_555 1_555
D1D C1D 1_555 1_555
D3D C3D 1_555 1_555
N2D C2D 1_555 1_555
C2D C4 1_555 1_555
C4D C2 1_555 1_555
D2D C2D 1_555 1_555
D4D C4D 1_555 1_555
Cl1A O1A 1_555 1_555
O1A Cu1 1_555 1_555
O2A Cl1A 1_555 1_555
O3A Cl1A 1_555 1_555
O4A Cl1A 1_555 1_555
Cu1E N2D 1_555 1_555
Cu1E_2 N1D 1_555 1_555
N1A Cu1 1_555 1_555
N2A Cu1 1_555 1_555
N1D C3D 1_555 1_555
N2D C4D 1_555 1_555

#END
