
#######################################################################
#
#                 Cambridge Crystallographic Data Centre
#                                CCDC 
#
#######################################################################
#
# If this CIF has been generated from an entry in the Cambridge 
# Structural Database, then it will include bibliographic, chemical, 
# crystal, experimental, refinement or atomic coordinate data resulting 
# from the CCDC's data processing and validation procedures.
#
#######################################################################

data_CUPYAP
_symmetry_cell_setting           monoclinic
_symmetry_space_group_name_H-M   'C 2/c'
_symmetry_Int_Tables_number      15
_space_group_name_Hall           '-C 2yn'
loop_
_symmetry_equiv_pos_site_id
_symmetry_equiv_pos_as_xyz
1 x,y,z
2 -x,y,1/2-z
3 1/2+x,1/2+y,z
4 1/2-x,1/2+y,1/2-z
5 -x,-y,-z
6 x,-y,1/2+z
7 1/2-x,1/2-y,-z
8 1/2+x,1/2-y,1/2+z
_cell_length_a                   23.6086(15)
_cell_length_b                   12.9371(8)
_cell_length_c                   17.5536(11)
_cell_angle_alpha                90
_cell_angle_beta                 112.570(3)
_cell_angle_gamma                90
_cell_volume                     4950.72
loop_
_atom_site_label
_atom_site_type_symbol
_atom_site_fract_x
_atom_site_fract_y
_atom_site_fract_z
I1 I 1.047225(19) 0.86428(4) 0.46318(3)
Cu1 Cu 0.99678(3) 1.04983(6) 0.43336(5)
C1 C 0.6624(4) 0.7561(6) -0.2255(5)
H1 H 0.6246 0.7432 -0.2678
C2 C 0.6671(4) 0.8306(6) -0.1677(5)
H2 H 0.6321 0.8664 -0.1709
C3 C 0.6544(3) 1.2601(6) 0.0320(4)
H3 H 0.6862 1.2560 0.0836
C4 C 0.7779(3) 0.9469(5) 0.0294(4)
H4 H 0.8074 0.8950 0.0455
C5 C 0.6508(3) 1.1882(5) -0.0284(4)
C6 C 0.7834(3) 1.0296(5) 0.0814(4)
C7 C 0.6873(3) 1.0207(5) -0.0654(4)
H5 H 0.6538 1.0206 -0.1155
C8 C 0.7227(3) 0.8539(5) -0.1048(4)
C9 C 0.8347(3) 1.0381(5) 0.1636(4)
C10 C 0.7293(3) 0.9395(5) -0.0463(4)
C11 C 0.6038(3) 1.2035(6) -0.1042(4)
H6 H 0.5993 1.1598 -0.1482
C12 C 0.9295(3) 0.9811(6) 0.2653(4)
H7 H 0.9626 0.9359 0.2795
C13 C 0.6949(3) 1.1015(5) -0.0104(4)
C14 C 0.8844(3) 0.9733(6) 0.1871(4)
H8 H 0.8878 0.9241 0.1505
C15 C 0.8342(3) 1.1112(5) 0.2199(4)
H9 H 0.8022 1.1586 0.2065
C16 C 0.7681(3) 0.7189(6) -0.1579(5)
H10 H 0.8027 0.6808 -0.1532
C17 C 0.7722(3) 0.7946(5) -0.1008(4)
H11 H 0.8098 0.8061 -0.0579
C18 C 0.8819(3) 1.1140(5) 0.2972(4)
H12 H 0.8810 1.1647 0.3343
C19 C 0.7135(4) 0.6998(6) -0.2212(4)
O1 O 0.7031(3) 0.6269(4) -0.2812(3)
N1 N 0.7425(2) 1.1070(4) 0.0626(3)
N2 N 0.9286(2) 1.0479(4) 0.3208(3)
C20 C 0.7541(4) 0.5655(8) -0.2773(6)
H13 H 0.7862 0.6094 -0.2797
H14 H 0.7417 0.5183 -0.3230
H15 H 0.7689 0.5272 -0.2266
N3 N 0.5651(2) 1.3487(4) -0.0563(3)
C21 C 0.5634(3) 1.2848(6) -0.1137(4)
H16 H 0.5327 1.2941 -0.1657
C22 C 0.6108(3) 1.3385(6) 0.0159(4)
H17 H 0.6141 1.3852 0.0576
I1D I 0.952775(19) 1.13572(4) 0.53682(3)
Cu1D Cu 1.00322(3) 0.95017(6) 0.56664(5)
Cu1G Cu 0.49678(3) 1.45017(6) -0.06664(5)
N3G N 1.0651(2) 1.1513(4) 0.4437(3)
N4 N 0.4444(4) 0.0485(7) 0.8288(4)
C23 C 0.4734(4) 0.0243(6) 0.9200(5)
O2 O 0.4468(4) -0.0112(6) 0.7812(4)
O3 O 0.4218(5) 0.1291(7) 0.8111(4)
C24 C 0.4774(5) 0.0964(7) 0.9740(6)
H18 H 0.4623 0.1625 0.9572
C25 C 0.4953(5) -0.0715(8) 0.9431(6)
H19 H 0.4921 -0.1212 0.9033
N4D N 0.5556(4) -0.0485(7) 1.1712(4)
C23D C 0.5266(4) -0.0243(6) 1.0800(5)
O2D O 0.5532(4) 0.0112(6) 1.2188(4)
O3D O 0.5782(5) -0.1291(7) 1.1889(4)
C24D C 0.5226(5) -0.0964(7) 1.0260(6)
H18D H 0.5377 -0.1625 1.0428
C25D C 0.5047(5) 0.0715(8) 1.0569(6)
H19D H 0.5079 0.1212 1.0967
loop_
_geom_bond_atom_site_label_1
_geom_bond_atom_site_label_2
_geom_bond_site_symmetry_1
_geom_bond_site_symmetry_2
I1 Cu1 1_555 1_555
Cu1 N2 1_555 1_555
C1 H1 1_555 1_555
C2 C1 1_555 1_555
H2 C2 1_555 1_555
C3 H3 1_555 1_555
C4 H4 1_555 1_555
C5 C3 1_555 1_555
C6 C4 1_555 1_555
C7 H5 1_555 1_555
C8 C2 1_555 1_555
C9 C6 1_555 1_555
C10 C4 1_555 1_555
C11 C5 1_555 1_555
H6 C11 1_555 1_555
C12 H7 1_555 1_555
C13 C5 1_555 1_555
C14 C9 1_555 1_555
H8 C14 1_555 1_555
C15 C9 1_555 1_555
H9 C15 1_555 1_555
C16 H10 1_555 1_555
C17 C8 1_555 1_555
H11 C17 1_555 1_555
C18 C15 1_555 1_555
H12 C18 1_555 1_555
C19 C1 1_555 1_555
O1 C19 1_555 1_555
N1 C6 1_555 1_555
N2 C12 1_555 1_555
C20 O1 1_555 1_555
H13 C20 1_555 1_555
H14 C20 1_555 1_555
H15 C20 1_555 1_555
N3 C21 1_555 1_555
C21 C11 1_555 1_555
H16 C21 1_555 1_555
C22 C3 1_555 1_555
H17 C22 1_555 1_555
N4 C23 1_555 1_555
C23 C24 1_555 1_555
O2 N4 1_555 1_555
O3 N4 1_555 1_555
C24 H18 1_555 1_555
C25 C23 1_555 1_555
H19 C25 1_555 1_555
I1D Cu1 1_555 1_555
Cu1D I1 1_555 1_555
Cu1G N3 1_555 1_555
N3G Cu1 1_555 1_555
N4D C23D 1_555 1_555
C23D C24D 1_555 1_555
O2D N4D 1_555 1_555
O3D N4D 1_555 1_555
C24D C25 1_555 1_555
H18D C24D 1_555 1_555
C25D C24 1_555 1_555
H19D C25D 1_555 1_555
Cu1 Cu1D 1_555 1_555
C7 C10 1_555 1_555
C7 C13 1_555 1_555
C8 C10 1_555 1_555
C12 C14 1_555 1_555
C13 N1 1_555 1_555
C16 C17 1_555 1_555
C16 C19 1_555 1_555
C18 N2 1_555 1_555
N3 C22 1_555 1_555
I1D Cu1D 1_555 1_555
C23D C25D 1_555 1_555

#END
