
#######################################################################
#
#                 Cambridge Crystallographic Data Centre
#                                CCDC 
#
#######################################################################
#
# If this CIF has been generated from an entry in the Cambridge 
# Structural Database, then it will include bibliographic, chemical, 
# crystal, experimental, refinement or atomic coordinate data resulting 
# from the CCDC's data processing and validation procedures.
#
#######################################################################

data_CUQDEX
_symmetry_cell_setting           monoclinic
_symmetry_space_group_name_H-M   'C 2/c'
_symmetry_Int_Tables_number      15
_space_group_name_Hall           '-C 2yn'
loop_
_symmetry_equiv_pos_site_id
_symmetry_equiv_pos_as_xyz
1 x,y,z
2 1/2+x,1/2+y,z
3 x,-y,1/2+z
4 1/2+x,1/2-y,1/2+z
5 -x,-y,-z
6 1/2-x,1/2-y,-z
7 -x,y,1/2-z
8 1/2-x,1/2+y,1/2-z
_cell_length_a                   14.179(5)
_cell_length_b                   9.698(4)
_cell_length_c                   34.351(12)
_cell_angle_alpha                90
_cell_angle_beta                 97.81(3)
_cell_angle_gamma                90
_cell_volume                     4679.72
loop_
_atom_site_label
_atom_site_type_symbol
_atom_site_fract_x
_atom_site_fract_y
_atom_site_fract_z
Mn1 Mn -0.35182(3) 0.33712(6) 0.005860(14)
N1 N -0.3035(2) 0.1562(3) -0.02622(8)
N2 N -0.3352(2) 0.1112(3) -0.05724(10)
N3 N -0.3658(3) 0.0682(5) -0.08777(11)
N4 N -0.5017(2) 0.3067(3) -0.02257(9)
N5 N -0.5578(2) 0.3945(3) -0.03151(8)
N6 N -0.6157(2) 0.4783(3) -0.04110(9)
N7 N -0.3384(2) 0.4919(3) -0.04413(8)
C1 C -0.3684(2) 0.4588(4) -0.08163(10)
H1 H -0.3873(2) 0.3684(4) -0.08722(10)
C2 C -0.3731(2) 0.5510(4) -0.11252(10)
C3 C -0.3458(3) 0.6853(4) -0.10432(12)
H2 H -0.3488(3) 0.7505(4) -0.12431(12)
C4 C -0.3141(3) 0.7213(5) -0.06626(12)
H3 H -0.2947(3) 0.8111(5) -0.05999(12)
C5 C -0.3115(3) 0.6228(4) -0.03759(11)
H4 H -0.2896(3) 0.6487(4) -0.01189(11)
C6 C -0.4032(3) 0.5052(4) -0.15403(11)
O1 O -0.3585(2) 0.5437(4) -0.17948(8)
C7 C -0.4882(2) 0.4147(4) -0.16246(9)
C8 C -0.4995(3) 0.3371(5) -0.19679(10)
H5 H -0.4538(3) 0.3406(5) -0.21376(10)
C9 C -0.5785(3) 0.2555(5) -0.20550(12)
H6 H -0.5854(3) 0.2024(5) -0.22824(12)
C10 C -0.6475(3) 0.2512(5) -0.18114(13)
H7 H -0.7013(3) 0.1966(5) -0.18753(13)
C11 C -0.6365(3) 0.3281(5) -0.14721(12)
H8 H -0.6833(3) 0.3257(5) -0.13068(12)
C12 C -0.5571(2) 0.4083(4) -0.13756(11)
H9 H -0.5495(2) 0.4585(4) -0.11427(11)
N8 N -0.3750(2) 0.2072(3) 0.05850(8)
C13 C -0.3624(2) 0.2529(4) 0.09564(10)
H10 H -0.3431(2) 0.3438(4) 0.10024(10)
C14 C -0.3766(3) 0.1717(5) 0.12762(11)
C15 C -0.4049(3) 0.0380(5) 0.12035(13)
H11 H -0.4170(3) -0.0188(5) 0.14091(13)
C16 C -0.4154(3) -0.0116(5) 0.08274(14)
H12 H -0.4326(3) -0.1030(5) 0.07762(14)
C17 C -0.4002(3) 0.0756(4) 0.05252(13)
H13 H -0.4078(3) 0.0413(4) 0.02699(13)
C18 C -0.3711(3) 0.2240(5) 0.16924(12)
O2 O -0.4291(3) 0.1783(5) 0.18874(9)
C19 C -0.2992(3) 0.3263(5) 0.18600(11)
C20 C -0.3127(4) 0.3939(5) 0.22059(12)
H14 H -0.3662(4) 0.3745(5) 0.23258(12)
C21 C -0.2476(4) 0.4888(6) 0.23701(14)
H15 H -0.2573(4) 0.5335(6) 0.26009(14)
C22 C -0.1686(4) 0.5186(6) 0.21993(14)
H16 H -0.1251(4) 0.5837(6) 0.23123(14)
C23 C -0.1535(3) 0.4524(6) 0.18610(13)
H17 H -0.0994(3) 0.4723(6) 0.17455(13)
C24 C -0.2180(3) 0.3562(5) 0.16907(12)
H18 H -0.2072(3) 0.3112(5) 0.14618(12)
Mn1E Mn -0.14818(3) 0.16288(6) -0.005860(14)
N1E N -0.1965(2) 0.3438(3) 0.02622(8)
N6D N -0.3843(2) 0.5217(3) 0.04110(9)
Mn1D Mn -0.64818(3) 0.66288(6) -0.005860(14)
loop_
_geom_bond_atom_site_label_1
_geom_bond_atom_site_label_2
_geom_bond_site_symmetry_1
_geom_bond_site_symmetry_2
Mn1 N1 1_555 1_555
N1 N2 1_555 1_555
N2 N3 1_555 1_555
N4 Mn1 1_555 1_555
N5 N4 1_555 1_555
N6 N5 1_555 1_555
N7 Mn1 1_555 1_555
C1 N7 1_555 1_555
H1 C1 1_555 1_555
C2 C1 1_555 1_555
C3 C2 1_555 1_555
H2 C3 1_555 1_555
C4 C3 1_555 1_555
H3 C4 1_555 1_555
C5 N7 1_555 1_555
H4 C5 1_555 1_555
C6 C2 1_555 1_555
O1 C6 1_555 1_555
C7 C6 1_555 1_555
C8 C7 1_555 1_555
H5 C8 1_555 1_555
C9 C8 1_555 1_555
H6 C9 1_555 1_555
C10 C9 1_555 1_555
H7 C10 1_555 1_555
C11 C10 1_555 1_555
H8 C11 1_555 1_555
C12 C7 1_555 1_555
H9 C12 1_555 1_555
N8 Mn1 1_555 1_555
C13 N8 1_555 1_555
H10 C13 1_555 1_555
C14 C13 1_555 1_555
C15 C14 1_555 1_555
H11 C15 1_555 1_555
C16 C15 1_555 1_555
H12 C16 1_555 1_555
C17 N8 1_555 1_555
H13 C17 1_555 1_555
C18 C14 1_555 1_555
O2 C18 1_555 1_555
C19 C18 1_555 1_555
C20 C19 1_555 1_555
H14 C20 1_555 1_555
C21 C20 1_555 1_555
H15 C21 1_555 1_555
C22 C21 1_555 1_555
H16 C22 1_555 1_555
C23 C22 1_555 1_555
H17 C23 1_555 1_555
C24 C19 1_555 1_555
H18 C24 1_555 1_555
Mn1E N1 1_555 1_555
N1E Mn1 1_555 1_555
N6D Mn1 1_555 1_555
Mn1D N6 1_555 1_555
C4 C5 1_555 1_555
C11 C12 1_555 1_555
C16 C17 1_555 1_555
C23 C24 1_555 1_555
Mn1E N1E 1_555 1_555

#END
