
#######################################################################
#
#                 Cambridge Crystallographic Data Centre
#                                CCDC 
#
#######################################################################
#
# If this CIF has been generated from an entry in the Cambridge 
# Structural Database, then it will include bibliographic, chemical, 
# crystal, experimental, refinement or atomic coordinate data resulting 
# from the CCDC's data processing and validation procedures.
#
#######################################################################

data_CUQDIB
_symmetry_cell_setting           monoclinic
_symmetry_space_group_name_H-M   'P 21/n'
_symmetry_Int_Tables_number      14
_space_group_name_Hall           '-P 2yn'
loop_
_symmetry_equiv_pos_site_id
_symmetry_equiv_pos_as_xyz
1 x,y,z
2 1/2+x,1/2-y,1/2+z
3 -x,-y,-z
4 1/2-x,1/2+y,1/2-z
_cell_length_a                   13.552(6)
_cell_length_b                   7.730(3)
_cell_length_c                   16.554(6)
_cell_angle_alpha                90
_cell_angle_beta                 101.69(3)
_cell_angle_gamma                90
_cell_volume                     1698.18
loop_
_atom_site_label
_atom_site_type_symbol
_atom_site_fract_x
_atom_site_fract_y
_atom_site_fract_z
Mn1 Mn 0.03662(4) 0.24918(8) 0.40757(3)
N1 N 0.1070(2) 0.5099(4) 0.4274(2)
N2 N 0.1032(2) 0.5931(4) 0.4861(2)
N3 N 0.1017(2) 0.6787(5) 0.5441(2)
N4 N -0.0275(2) -0.0115(4) 0.3742(2)
N5 N -0.0645(2) -0.0954(4) 0.4186(2)
N6 N -0.1034(2) -0.1821(5) 0.4607(2)
N7 N -0.0408(2) 0.3421(4) 0.2818(2)
C1 C -0.0827(3) 0.4993(5) 0.2756(2)
H1 H -0.0685(3) 0.5718(5) 0.3213(2)
C2 C -0.1463(3) 0.5605(5) 0.2048(2)
C3 C -0.1653(3) 0.4509(5) 0.1379(2)
H2 H -0.2076(3) 0.4874(5) 0.0895(2)
C4 C -0.1231(3) 0.2875(5) 0.1412(2)
C5 C -0.0613(3) 0.2389(6) 0.2156(2)
H3 H -0.0329(3) 0.1290(6) 0.2195(2)
C6 C -0.1922(3) 0.7372(6) 0.2041(3)
H4 H -0.1445(8) 0.8225(7) 0.1943(18)
H5 H -0.2101(19) 0.7591(15) 0.2564(7)
H6 H -0.2515(12) 0.7432(13) 0.1611(12)
C7 C -0.1444(4) 0.1639(7) 0.0700(3)
H7 H -0.1005(15) 0.0656(18) 0.0817(8)
H8 H -0.1331(20) 0.2206(13) 0.0211(4)
H9 H -0.2132(7) 0.1263(29) 0.0617(11)
N8 N 0.1817(2) 0.1483(4) 0.3763(2)
C8 C 0.2408(3) 0.2448(6) 0.3389(2)
H10 H 0.2170(3) 0.3524(6) 0.3187(2)
C9 C 0.3352(3) 0.1941(6) 0.3286(3)
C10 C 0.3687(3) 0.0342(6) 0.3595(3)
H11 H 0.4322(3) -0.0036(6) 0.3542(3)
C11 C 0.3101(3) -0.0715(6) 0.3983(3)
C12 C 0.2168(3) -0.0066(5) 0.4050(2)
H12 H 0.1760(3) -0.0748(5) 0.4310(2)
C13 C 0.3989(4) 0.3109(8) 0.2864(4)
H13 H 0.3668(15) 0.4217(17) 0.2762(21)
H14 H 0.4060(23) 0.2600(24) 0.2350(11)
H15 H 0.4642(10) 0.3252(40) 0.3213(10)
C14 C 0.3440(4) -0.2452(7) 0.4337(4)
H16 H 0.2914(11) -0.2966(22) 0.4567(21)
H17 H 0.4033(17) -0.2318(8) 0.4761(15)
H18 H 0.3589(26) -0.3184(16) 0.3908(6)
N3B N -0.1017(2) 0.3213(5) 0.4559(2)
Mn1B Mn -0.03662(4) 0.75082(8) 0.59243(3)
N6B N 0.1034(2) 0.1821(5) 0.5393(2)
Mn1B_2 Mn -0.03662(4) -0.24918(8) 0.59243(3)
loop_
_geom_bond_atom_site_label_1
_geom_bond_atom_site_label_2
_geom_bond_site_symmetry_1
_geom_bond_site_symmetry_2
Mn1 N1 1_555 1_555
N1 N2 1_555 1_555
N2 N3 1_555 1_555
N3 Mn1B 1_555 1_555
N4 Mn1 1_555 1_555
N5 N4 1_555 1_555
N6 N5 1_555 1_555
N7 Mn1 1_555 1_555
C1 N7 1_555 1_555
H1 C1 1_555 1_555
C2 C1 1_555 1_555
C3 C2 1_555 1_555
H2 C3 1_555 1_555
C4 C3 1_555 1_555
C5 N7 1_555 1_555
H3 C5 1_555 1_555
C6 C2 1_555 1_555
H4 C6 1_555 1_555
H5 C6 1_555 1_555
H6 C6 1_555 1_555
C7 C4 1_555 1_555
H7 C7 1_555 1_555
H8 C7 1_555 1_555
H9 C7 1_555 1_555
N8 Mn1 1_555 1_555
C8 N8 1_555 1_555
H10 C8 1_555 1_555
C9 C8 1_555 1_555
C10 C9 1_555 1_555
H11 C10 1_555 1_555
C11 C10 1_555 1_555
C12 N8 1_555 1_555
H12 C12 1_555 1_555
C13 C9 1_555 1_555
H13 C13 1_555 1_555
H14 C13 1_555 1_555
H15 C13 1_555 1_555
C14 C11 1_555 1_555
H16 C14 1_555 1_555
H17 C14 1_555 1_555
H18 C14 1_555 1_555
N3B Mn1 1_555 1_555
N6B Mn1 1_555 1_555
Mn1B_2 N6 1_555 1_555
C4 C5 1_555 1_555
C11 C12 1_555 1_555

#END
