
#######################################################################
#
#                 Cambridge Crystallographic Data Centre
#                                CCDC 
#
#######################################################################
#
# If this CIF has been generated from an entry in the Cambridge 
# Structural Database, then it will include bibliographic, chemical, 
# crystal, experimental, refinement or atomic coordinate data resulting 
# from the CCDC's data processing and validation procedures.
#
#######################################################################

data_CUQGOM
_symmetry_cell_setting           monoclinic
_symmetry_space_group_name_H-M   'P 21/c'
_symmetry_Int_Tables_number      14
_space_group_name_Hall           '-P 2ybc'
loop_
_symmetry_equiv_pos_site_id
_symmetry_equiv_pos_as_xyz
1 x,y,z
2 -x,1/2+y,1/2-z
3 -x,-y,-z
4 x,1/2-y,1/2+z
_cell_length_a                   11.78013(19)
_cell_length_b                   19.9726(3)
_cell_length_c                   17.2556(3)
_cell_angle_alpha                90
_cell_angle_beta                 94.6844(15)
_cell_angle_gamma                90
_cell_volume                     4046.33
loop_
_atom_site_label
_atom_site_type_symbol
_atom_site_fract_x
_atom_site_fract_y
_atom_site_fract_z
Cd1 Cd 0.539935(12) 0.396268(6) 0.749191(8)
Cd2 Cd 0.934812(12) 0.357448(6) 0.723992(8)
S1 S 0.88367(4) 0.61187(2) 0.75286(3)
S2 S 0.61469(4) 0.14432(2) 0.72660(3)
O1 O 0.96173(12) 0.75247(6) 0.79101(9)
O2 O 0.55804(12) -0.00144(6) 0.72543(9)
O3 O 1.09136(15) 0.40307(9) 0.67403(12)
O4 O 0.77886(13) 0.31101(6) 0.77749(8)
O5 O 0.68635(13) 0.45756(6) 0.70298(8)
C1 C 0.80385(17) 0.67918(8) 0.77725(11)
C2 C 0.76571(16) 0.56116(8) 0.74404(11)
C3 C 0.81487(18) 0.09790(9) 0.76021(13)
H1 H 0.8758 0.0686 0.7696
C4 C 0.70583(17) 0.07769(8) 0.74028(11)
N1 N 1.02143(15) 0.34701(8) 0.84825(10)
O6 O 0.37544(17) 0.34721(10) 0.78619(13)
N2 N 1.84515(16) 0.16733(8) 1.10568(9)
N3 N 0.44390(16) 0.41591(8) 0.62508(10)
C5 C 1.74747(19) 0.14363(10) 1.07395(12)
H2 H 1.7046 0.1104 1.0955
O7 O 0.87481(13) 0.46417(6) 0.73489(9)
C6 C 0.3506(2) 0.38910(11) 0.58999(12)
H3 H 0.3223 0.3470 0.6008
C7 C 0.72381(16) 0.20015(8) 0.74831(11)
N4 N 0.60539(17) 0.41113(9) 0.87707(10)
N5 N 1.71943(16) 0.17407(9) 1.00703(10)
C8 C 0.70005(18) 0.27326(8) 0.75079(11)
N6 N 0.30334(16) 0.43104(10) 0.53706(11)
C9 C 0.66364(17) 0.00745(8) 0.73010(12)
O8 O 0.79114(14) 0.79011(7) 0.81848(11)
C10 C 0.77575(17) 0.48808(8) 0.72601(11)
N7 N 1.14666(16) 0.34422(9) 0.94783(11)
C11 C 0.69191(18) 0.66267(9) 0.77803(13)
H4 H 0.6358 0.6928 0.7902
C12 C 1.11832(19) 0.37314(10) 0.87991(12)
H5 H 1.1599 0.4067 0.8577
C13 C 0.82482(18) 0.16834(9) 0.76504(13)
H6 H 0.8931 0.1905 0.7782
C14 C 1.8744(2) 0.21334(11) 1.05371(14)
H7 H 1.9409 0.2385 1.0605
N8 N 0.71676(18) 0.41437(10) 0.98384(11)
C15 C 1.5231(2) 0.21487(11) 0.96908(12)
N9 N 1.06833(18) 0.29751(10) 0.96317(12)
C16 C 0.9955(2) 0.30104(11) 0.90172(13)
H8 H 0.9310 0.2741 0.8953
C17 C 0.66983(18) 0.59495(9) 0.75833(13)
H9 H 0.5977 0.5758 0.7555
C18 C 1.5330(2) 0.26458(13) 1.02454(14)
H10 H 1.6003 0.2687 1.0562
C19 C 0.2036(2) 0.42036(15) 0.48159(15)
H11 H 0.1817 0.3736 0.4839
H12 H 0.2260 0.4288 0.4296
C20 C 1.3422(2) 0.30338(11) 0.98801(12)
C21 C 0.5744(2) 0.45931(13) 0.92628(14)
H13 H 0.5118 0.4870 0.9148
C22 C 1.6170(2) 0.16610(12) 0.95500(13)
H14 H 1.6369 0.1713 0.9019
H15 H 1.5884 0.1209 0.9604
C23 C 0.4490(2) 0.47639(11) 0.58991(14)
H16 H 0.5064 0.5073 0.6031
O9 O 0.60069(13) 0.29177(6) 0.72754(9)
N10 N 0.36674(19) 0.48790(11) 0.53583(12)
C24 C 0.6955(2) 0.38402(11) 0.91568(13)
H17 H 0.7379 0.3488 0.8977
N11 N 0.6396(2) 0.46389(11) 0.99149(12)
N12 N 1.80100(19) 0.21967(10) 0.99259(12)
C25 C 0.1000(2) 0.46293(12) 0.49375(12)
C26 C 1.2499(2) 0.35425(13) 0.99968(15)
H18 H 1.2303 0.3519 1.0531
H19 H 1.2795 0.3987 0.9912
C27 C 0.8188(2) 0.40929(12) 1.03720(13)
H20 H 0.8480 0.3639 1.0361
H21 H 0.7990 0.4184 1.0896
C28 C 1.4441(2) 0.30843(13) 1.03377(14)
H22 H 1.4529 0.3418 1.0713
C29 C -0.0030(2) 0.44281(13) 0.45620(15)
H23 H -0.0056 0.4042 0.4261
C30 C 1.4208(2) 0.20963(12) 0.92341(14)
H24 H 1.4122 0.1763 0.8858
C31 C 1.3316(2) 0.25287(12) 0.93273(14)
H25 H 1.2637 0.2481 0.9017
O10 O 0.73773(14) -0.03702(6) 0.72776(11)
C32 C 0.85772(18) 0.74578(8) 0.79700(12)
C33 C 0.9106(2) 0.45724(11) 1.01705(13)
C34 C -0.1019(2) 0.47917(13) 0.46270(15)
H26 H -0.1701 0.4644 0.4375
C35 C 0.9158(3) 0.48437(15) 0.94404(15)
H27 H 0.8587 0.4746 0.9053
C36 C 0.9955(3) 0.47429(15) 1.07260(15)
H28 H 0.9934 0.4576 1.1228
H29 H 1.136(3) 0.3719(13) 0.6733(16)
H30 H 0.330(3) 0.3784(15) 0.785(2)
H31 H 0.349(3) 0.3236(14) 0.7629(19)
H32 H 1.124(3) 0.4293(13) 0.6972(16)
N3B N -0.44390(16) 0.58409(8) 0.37492(10)
C6B C -0.3506(2) 0.61090(11) 0.41001(12)
H3B H -0.3223 0.6530 0.3992
N6B N -0.30334(16) 0.56896(10) 0.46294(11)
C19B C -0.2036(2) 0.57964(15) 0.51841(15)
H11B H -0.1817 0.6264 0.5161
H12B H -0.2260 0.5712 0.5704
C23B C -0.4490(2) 0.52361(11) 0.41009(14)
H16B H -0.5064 0.4927 0.3969
N10B N -0.36674(19) 0.51210(11) 0.46417(12)
C25B C -0.1000(2) 0.53707(12) 0.50625(12)
C29B C 0.0030(2) 0.55719(13) 0.54380(15)
H23B H 0.0056 0.5958 0.5739
C34B C 0.1019(2) 0.52083(13) 0.53730(15)
H26B H 0.1701 0.5356 0.5625
N4B N 1.39461(17) 0.58887(9) 1.12293(10)
N8B N 1.28324(18) 0.58563(10) 1.01616(11)
C21B C 1.4256(2) 0.54069(13) 1.07372(14)
H13B H 1.4882 0.5130 1.0852
C24B C 1.3045(2) 0.61598(11) 1.08432(13)
H17B H 1.2621 0.6512 1.1023
N11B N 1.3604(2) 0.53611(11) 1.00851(12)
C27B C 1.1812(2) 0.59071(12) 0.96280(13)
H20B H 1.1520 0.6361 0.9639
H21B H 1.2010 0.5816 0.9104
C33B C 1.0894(2) 0.54276(11) 0.98295(13)
C35B C 1.0842(3) 0.51563(15) 1.05596(15)
H27B H 1.1413 0.5254 1.0947
C36B C 1.0045(3) 0.52571(15) 0.92740(15)
H28B H 1.0066 0.5424 0.8772
Cd1B Cd -0.539935(12) 0.603732(6) 0.250809(8)
Cd2B Cd -0.934812(12) 0.642552(6) 0.276008(8)
S1B S -0.88367(4) 0.38813(2) 0.24714(3)
S2B S -0.61469(4) 0.85568(2) 0.27340(3)
O1B O -0.96173(12) 0.24753(6) 0.20899(9)
O2B O -0.55804(12) 1.00144(6) 0.27457(9)
O3B O -1.09136(15) 0.59693(9) 0.32597(12)
O4B O -0.77886(13) 0.68899(6) 0.22251(8)
O5B O -0.68635(13) 0.54244(6) 0.29702(8)
C1B C -0.80385(17) 0.32082(8) 0.22275(11)
C2B C -0.76571(16) 0.43884(8) 0.25596(11)
C3B C -0.81487(18) 0.90210(9) 0.23979(13)
H1B H -0.8758 0.9314 0.2304
C4B C -0.70583(17) 0.92231(8) 0.25972(11)
N1B N -1.02143(15) 0.65299(8) 0.15175(10)
O6B O -0.37544(17) 0.65279(10) 0.21381(13)
N2B N -1.84515(16) 0.83267(8) -0.10568(9)
C5B C -1.74747(19) 0.85637(10) -0.07395(12)
H2B H -1.7046 0.8896 -0.0955
O7B O -0.87481(13) 0.53583(6) 0.26511(9)
C7B C -0.72381(16) 0.79985(8) 0.25169(11)
N5B N -1.71943(16) 0.82593(9) -0.00703(10)
C8B C -0.70005(18) 0.72674(8) 0.24921(11)
C9B C -0.66364(17) 0.99255(8) 0.26990(12)
O8B O -0.79114(14) 0.20989(7) 0.18152(11)
C10B C -0.77575(17) 0.51192(8) 0.27399(11)
N7B N -1.14666(16) 0.65578(9) 0.05217(11)
C11B C -0.69191(18) 0.33733(9) 0.22197(13)
H4B H -0.6358 0.3072 0.2098
C12B C -1.11832(19) 0.62686(10) 0.12009(12)
H5B H -1.1599 0.5933 0.1423
C13B C -0.82482(18) 0.83166(9) 0.23496(13)
H6B H -0.8931 0.8095 0.2218
C14B C -1.8744(2) 0.78666(11) -0.05371(14)
H7B H -1.9409 0.7615 -0.0605
C15B C -1.5231(2) 0.78513(11) 0.03092(12)
N9B N -1.06833(18) 0.70249(10) 0.03683(12)
C16B C -0.9955(2) 0.69896(11) 0.09828(13)
H8B H -0.9310 0.7259 0.1047
C17B C -0.66983(18) 0.40505(9) 0.24167(13)
H9B H -0.5977 0.4242 0.2445
C18B C -1.5330(2) 0.73542(13) -0.02454(14)
H10B H -1.6003 0.7313 -0.0562
C20B C -1.3422(2) 0.69662(11) 0.01199(12)
C22B C -1.6170(2) 0.83390(12) 0.04500(13)
H14B H -1.6369 0.8287 0.0981
H15B H -1.5884 0.8791 0.0396
O9B O -0.60069(13) 0.70823(6) 0.27246(9)
N12B N -1.80100(19) 0.78033(10) 0.00741(12)
C26B C -1.2499(2) 0.64575(13) 0.00032(15)
H18B H -1.2303 0.6481 -0.0531
H19B H -1.2795 0.6013 0.0088
C28B C -1.4441(2) 0.69157(13) -0.03377(14)
H22B H -1.4529 0.6582 -0.0713
C30B C -1.4208(2) 0.79037(12) 0.07659(14)
H24B H -1.4122 0.8237 0.1142
C31B C -1.3316(2) 0.74713(12) 0.06727(14)
H25B H -1.2637 0.7519 0.0983
O10B O -0.73773(14) 1.03702(6) 0.27224(11)
C32B C -0.85772(18) 0.25422(8) 0.20300(12)
H29B H -1.136(3) 0.6281(13) 0.3267(16)
H30B H -0.330(3) 0.6216(15) 0.215(2)
H31B H -0.349(3) 0.6764(14) 0.2371(19)
H32B H -1.124(3) 0.5707(13) 0.3028(16)
Cd1A Cd 0.460065(12) -0.103732(6) 0.750809(8)
Cd1B_2 Cd 1.460065(12) 0.603732(6) 1.250809(8)
Cd1C Cd -0.460065(12) 1.103732(6) 0.249191(8)
Cd2A Cd -1.934812(12) 0.857448(6) -0.223992(8)
Cd2A_2 Cd 1.065188(12) 0.857448(6) 0.776008(8)
Cd2C Cd -1.065188(12) 0.142552(6) 0.223992(8)
Cd2C_2 Cd 1.934812(12) 0.142552(6) 1.223992(8)
O1A O 1.03827(12) 0.25247(6) 0.70899(9)
O1C O -1.03827(12) 0.74753(6) 0.29101(9)
O2A O 0.44196(12) 0.49856(6) 0.77457(9)
O2C O -0.44196(12) 0.50144(6) 0.22543(9)
N2A N -0.84515(16) 0.66733(8) 0.39432(9)
N2C N 0.84515(16) 0.33267(8) 0.60568(9)
N4B_2 N -0.60539(17) 0.58887(9) 0.12293(10)
loop_
_geom_bond_atom_site_label_1
_geom_bond_atom_site_label_2
_geom_bond_site_symmetry_1
_geom_bond_site_symmetry_2
Cd1 O5 1_555 1_555
Cd2 O3 1_555 1_555
S1 C1 1_555 1_555
S2 C4 1_555 1_555
O1 C32 1_555 1_555
O2 C9 1_555 1_555
O3 H29 1_555 1_555
O4 Cd2 1_555 1_555
O5 C10 1_555 1_555
C1 C11 1_555 1_555
C2 S1 1_555 1_555
C3 H1 1_555 1_555
C4 C3 1_555 1_555
N1 Cd2 1_555 1_555
O6 Cd1 1_555 1_555
N2 C5 1_555 1_555
N3 Cd1 1_555 1_555
C5 H2 1_555 1_555
O7 Cd2 1_555 1_555
C6 N3 1_555 1_555
H3 C6 1_555 1_555
C7 S2 1_555 1_555
N4 Cd1 1_555 1_555
N5 C5 1_555 1_555
C8 O4 1_555 1_555
N6 C6 1_555 1_555
C9 C4 1_555 1_555
O8 C32 1_555 1_555
C10 C2 1_555 1_555
N7 C12 1_555 1_555
C11 H4 1_555 1_555
C12 N1 1_555 1_555
H5 C12 1_555 1_555
C13 C3 1_555 1_555
H6 C13 1_555 1_555
C14 N2 1_555 1_555
H7 C14 1_555 1_555
N8 C24 1_555 1_555
C15 C18 1_555 1_555
N9 N7 1_555 1_555
C16 N1 1_555 1_555
H8 C16 1_555 1_555
C17 C2 1_555 1_555
H9 C17 1_555 1_555
C18 H10 1_555 1_555
C19 N6 1_555 1_555
H11 C19 1_555 1_555
H12 C19 1_555 1_555
C20 C26 1_555 1_555
C21 N4 1_555 1_555
H13 C21 1_555 1_555
C22 N5 1_555 1_555
H14 C22 1_555 1_555
H15 C22 1_555 1_555
C23 N3 1_555 1_555
H16 C23 1_555 1_555
O9 Cd1 1_555 1_555
N10 N6 1_555 1_555
C24 N4 1_555 1_555
H17 C24 1_555 1_555
N11 N8 1_555 1_555
N12 N5 1_555 1_555
C25 C19 1_555 1_555
C26 N7 1_555 1_555
H18 C26 1_555 1_555
H19 C26 1_555 1_555
C27 N8 1_555 1_555
H20 C27 1_555 1_555
H21 C27 1_555 1_555
C28 C18 1_555 1_555
H22 C28 1_555 1_555
C29 C25 1_555 1_555
H23 C29 1_555 1_555
C30 C15 1_555 1_555
H24 C30 1_555 1_555
C31 C20 1_555 1_555
H25 C31 1_555 1_555
O10 C9 1_555 1_555
C32 C1 1_555 1_555
C33 C27 1_555 1_555
C34 C29 1_555 1_555
H26 C34 1_555 1_555
C35 C33 1_555 1_555
H27 C35 1_555 1_555
C36 C33 1_555 1_555
H28 C36 1_555 1_555
H30 O6 1_555 1_555
H31 O6 1_555 1_555
H32 O3 1_555 1_555
N3B C6B 1_555 1_555
C6B H3B 1_555 1_555
N6B C6B 1_555 1_555
C19B N6B 1_555 1_555
H11B C19B 1_555 1_555
H12B C19B 1_555 1_555
C23B N3B 1_555 1_555
H16B C23B 1_555 1_555
N10B N6B 1_555 1_555
C25B C34 1_555 1_555
C29B C25B 1_555 1_555
H23B C29B 1_555 1_555
C34B C25 1_555 1_555
H26B C34B 1_555 1_555
N4B C21B 1_555 1_555
N8B C24B 1_555 1_555
C21B H13B 1_555 1_555
C24B N4B 1_555 1_555
H17B C24B 1_555 1_555
N11B N8B 1_555 1_555
C27B N8B 1_555 1_555
H20B C27B 1_555 1_555
H21B C27B 1_555 1_555
C33B C27B 1_555 1_555
C35B C36 1_555 1_555
H27B C35B 1_555 1_555
C36B C35 1_555 1_555
H28B C36B 1_555 1_555
Cd1B N3B 1_555 1_555
Cd2B O3B 1_555 1_555
S1B C1B 1_555 1_555
S2B C4B 1_555 1_555
O1B C32B 1_555 1_555
O2B C9B 1_555 1_555
O3B H29B 1_555 1_555
O4B Cd2B 1_555 1_555
O5B Cd1B 1_555 1_555
C1B C11B 1_555 1_555
C2B S1B 1_555 1_555
C3B H1B 1_555 1_555
C4B C3B 1_555 1_555
N1B Cd2B 1_555 1_555
O6B Cd1B 1_555 1_555
N2B C5B 1_555 1_555
C5B H2B 1_555 1_555
O7B Cd2B 1_555 1_555
C7B S2B 1_555 1_555
N5B C5B 1_555 1_555
C8B O4B 1_555 1_555
C9B C4B 1_555 1_555
O8B C32B 1_555 1_555
C10B O5B 1_555 1_555
N7B C12B 1_555 1_555
C11B H4B 1_555 1_555
C12B N1B 1_555 1_555
H5B C12B 1_555 1_555
C13B C3B 1_555 1_555
H6B C13B 1_555 1_555
C14B N2B 1_555 1_555
H7B C14B 1_555 1_555
C15B C18B 1_555 1_555
N9B N7B 1_555 1_555
C16B N1B 1_555 1_555
H8B C16B 1_555 1_555
C17B C2B 1_555 1_555
H9B C17B 1_555 1_555
C18B H10B 1_555 1_555
C20B C26B 1_555 1_555
C22B N5B 1_555 1_555
H14B C22B 1_555 1_555
H15B C22B 1_555 1_555
O9B Cd1B 1_555 1_555
N12B N5B 1_555 1_555
C26B N7B 1_555 1_555
H18B C26B 1_555 1_555
H19B C26B 1_555 1_555
C28B C18B 1_555 1_555
H22B C28B 1_555 1_555
C30B C15B 1_555 1_555
H24B C30B 1_555 1_555
C31B C20B 1_555 1_555
H25B C31B 1_555 1_555
O10B C9B 1_555 1_555
C32B C1B 1_555 1_555
H30B O6B 1_555 1_555
H31B O6B 1_555 1_555
H32B O3B 1_555 1_555
Cd1A O2 1_555 1_555
Cd1B_2 N4B 1_555 1_555
Cd1C O2B 1_555 1_555
Cd2A N2B 1_555 1_555
Cd2A_2 O1 1_555 1_555
Cd2C O1B 1_555 1_555
Cd2C_2 N2 1_555 1_555
O1A Cd2 1_555 1_555
O1C Cd2B 1_555 1_555
O2A Cd1 1_555 1_555
O2C Cd1B 1_555 1_555
N2A Cd2B 1_555 1_555
N2C Cd2 1_555 1_555
N4B_2 Cd1B 1_555 1_555
O7 C10 1_555 1_555
C7 C8 1_555 1_555
C7 C13 1_555 1_555
C8 O9 1_555 1_555
C11 C17 1_555 1_555
C14 N12 1_555 1_555
C15 C22 1_555 1_555
N9 C16 1_555 1_555
C20 C28 1_555 1_555
C21 N11 1_555 1_555
C23 N10 1_555 1_555
C30 C31 1_555 1_555
C19B C25B 1_555 1_555
C23B N10B 1_555 1_555
C29B C34B 1_555 1_555
C21B N11B 1_555 1_555
C33B C35B 1_555 1_555
C33B C36B 1_555 1_555
C2B C10B 1_555 1_555
O7B C10B 1_555 1_555
C7B C8B 1_555 1_555
C7B C13B 1_555 1_555
C8B O9B 1_555 1_555
C11B C17B 1_555 1_555
C14B N12B 1_555 1_555
C15B C22B 1_555 1_555
N9B C16B 1_555 1_555
C20B C28B 1_555 1_555
C30B C31B 1_555 1_555

#END
