
#######################################################################
#
#                 Cambridge Crystallographic Data Centre
#                                CCDC 
#
#######################################################################
#
# If this CIF has been generated from an entry in the Cambridge 
# Structural Database, then it will include bibliographic, chemical, 
# crystal, experimental, refinement or atomic coordinate data resulting 
# from the CCDC's data processing and validation procedures.
#
#######################################################################

data_CUQKUW
_symmetry_cell_setting           monoclinic
_symmetry_space_group_name_H-M   'P 21/c'
_symmetry_Int_Tables_number      14
_space_group_name_Hall           '-P 2ybc'
loop_
_symmetry_equiv_pos_site_id
_symmetry_equiv_pos_as_xyz
1 x,y,z
2 -x,1/2+y,1/2-z
3 -x,-y,-z
4 x,1/2-y,1/2+z
_cell_length_a                   14.469(2)
_cell_length_b                   26.482(4)
_cell_length_c                   14.7838(19)
_cell_angle_alpha                90
_cell_angle_beta                 113.759(2)
_cell_angle_gamma                90
_cell_volume                     5184.59
loop_
_atom_site_label
_atom_site_type_symbol
_atom_site_fract_x
_atom_site_fract_y
_atom_site_fract_z
Tb1 Tb 0.23131(4) 0.59884(2) 0.99659(4)
Tb2 Tb 0.19995(4) 0.34724(2) 0.56684(4)
Na1 Na 0.0234(4) 0.37321(17) 0.9104(3)
Na2 Na 0.3729(4) 0.5766(2) 0.6398(4)
N1 N 0.3361(7) 0.5840(3) 1.1750(7)
N2 N 0.4095(7) 0.5731(3) 1.0404(7)
N3 N 0.1203(7) 0.6681(4) 0.8970(7)
N4 N 0.0559(7) 0.5740(4) 0.8853(7)
N5 N 0.0871(7) 0.4161(4) 0.4671(6)
N6 N 0.0252(7) 0.3222(4) 0.4536(6)
N7 N 0.3037(7) 0.3299(3) 0.7469(7)
N8 N 0.3788(7) 0.3207(3) 0.6118(7)
O1 O 0.1501(6) 0.6169(3) 1.0994(6)
O2 O 0.1439(7) 0.6224(4) 1.2473(7)
O3 O 0.2701(6) 0.5892(3) 0.8617(5)
O4 O 0.3805(7) 0.5772(4) 0.7920(7)
O5 O 0.3044(6) 0.6781(3) 1.0297(6)
O6 O 0.3079(7) 0.7594(3) 1.0016(7)
O7 O 0.1973(6) 0.5136(3) 1.0038(6)
O8 O 0.0941(7) 0.4471(3) 0.9655(6)
O9 O 0.2727(6) 0.4265(3) 0.5985(6)
O10 O 0.2743(7) 0.5089(3) 0.5680(7)
O11 O 0.1676(6) 0.2616(3) 0.5680(6)
O12 O 0.0704(7) 0.1933(3) 0.5093(7)
O13 O 0.1175(6) 0.3641(3) 0.6690(6)
O14 O 0.1047(7) 0.3605(4) 0.8131(7)
O15 O 0.2433(6) 0.3379(3) 0.4323(6)
O16 O 0.3601(7) 0.3345(4) 0.3689(7)
C1 C 0.1887(9) 0.6113(5) 1.1934(10)
C2 C 0.2935(9) 0.5895(4) 1.2389(9)
C3 C 0.3418(10) 0.5785(5) 1.3371(10)
H1 H 0.3106 0.5837 1.3805
C4 C 0.4376(11) 0.5595(6) 1.3695(11)
H2 H 0.4697 0.5492 1.4350
C5 C 0.4890(10) 0.5549(5) 1.3073(10)
H3 H 0.5557 0.5441 1.3303
C6 C 0.4340(8) 0.5676(4) 1.2102(9)
C7 C 0.4761(9) 0.5637(4) 1.1333(9)
C8 C 0.5779(9) 0.5534(5) 1.1549(10)
H4 H 0.6231 0.5477 1.2197
C9 C 0.6100(9) 0.5517(5) 1.0795(10)
H5 H 0.6769 0.5444 1.0918
C10 C 0.5396(9) 0.5612(4) 0.9843(10)
H6 H 0.5598 0.5613 0.9321
C11 C 0.4399(9) 0.5705(4) 0.9665(9)
C12 C 0.3567(11) 0.5802(5) 0.8643(10)
C13 C 0.2651(10) 0.7186(5) 0.9843(9)
C14 C 0.1595(9) 0.7148(4) 0.9079(9)
C15 C 0.1053(10) 0.7548(5) 0.8512(10)
H7 H 0.1347 0.7866 0.8580
C16 C 0.0087(12) 0.7472(6) 0.7852(10)
H8 H -0.0288 0.7739 0.7471
C17 C -0.0340(10) 0.6993(5) 0.7749(9)
H9 H -0.1003 0.6939 0.7305
C18 C 0.0241(9) 0.6592(5) 0.8324(9)
C19 C -0.0124(8) 0.6066(5) 0.8262(8)
C20 C -0.1099(9) 0.5924(6) 0.7681(9)
H10 H -0.1568 0.6160 0.7297
C21 C -0.1360(9) 0.5436(6) 0.7680(9)
H11 H -0.2009 0.5331 0.7272
C22 C -0.0677(9) 0.5090(5) 0.8274(9)
H12 H -0.0858 0.4754 0.8280
C23 C 0.0308(9) 0.5258(5) 0.8876(9)
C24 C 0.1126(10) 0.4924(5) 0.9580(9)
C25 C 0.2345(11) 0.4671(6) 0.5534(10)
C26 C 0.1251(9) 0.4624(5) 0.4773(9)
C27 C 0.0704(10) 0.5027(5) 0.4237(9)
H13 H 0.0999 0.5345 0.4322
C28 C -0.0277(9) 0.4960(5) 0.3577(9)
H14 H -0.0660 0.5229 0.3212
C29 C -0.0669(9) 0.4490(5) 0.3474(9)
H15 H -0.1328 0.4432 0.3024
C30 C -0.0094(8) 0.4090(5) 0.4038(8)
C31 C -0.0445(8) 0.3552(5) 0.3983(8)
C32 C -0.1425(8) 0.3403(5) 0.3426(8)
H16 H -0.1900 0.3636 0.3038
C33 C -0.1689(10) 0.2915(6) 0.3449(10)
H17 H -0.2354 0.2815 0.3097
C34 C -0.0983(10) 0.2570(5) 0.3985(10)
H18 H -0.1149 0.2231 0.3991
C35 C -0.0001(9) 0.2742(5) 0.4524(9)
C36 C 0.0850(11) 0.2388(5) 0.5160(10)
C37 C 0.1528(11) 0.3546(5) 0.7600(10)
C38 C 0.2583(10) 0.3360(5) 0.8065(10)
C39 C 0.3070(11) 0.3229(5) 0.9043(10)
H19 H 0.2730 0.3252 0.9458
C40 C 0.4041(11) 0.3065(5) 0.9412(10)
H20 H 0.4374 0.2986 1.0079
C41 C 0.4517(11) 0.3021(5) 0.8793(10)
H21 H 0.5184 0.2912 0.9036
C42 C 0.4013(8) 0.3138(4) 0.7798(9)
C43 C 0.4440(9) 0.3105(4) 0.7053(9)
C44 C 0.5448(9) 0.2982(5) 0.7272(10)
H22 H 0.5899 0.2911 0.7914
C45 C 0.5743(11) 0.2972(5) 0.6494(11)
H23 H 0.6408 0.2889 0.6620
C46 C 0.5106(9) 0.3079(5) 0.5559(9)
H24 H 0.5321 0.3078 0.5046
C47 C 0.4124(9) 0.3191(4) 0.5395(10)
C48 C 0.3325(10) 0.3317(5) 0.4390(11)
O17 O 0.5399(7) 0.5757(4) 0.6575(7)
O18 O 0.2870(7) 0.6370(3) 0.5290(7)
Na1B Na -0.0234(4) 0.62679(17) 1.0896(3)
Na1C Na 0.0234(4) 0.12679(17) 0.4104(3)
O1B O -0.1501(6) 0.3831(3) 0.9006(6)
O2B O -0.1439(7) 0.3776(4) 0.7527(7)
O12C O 0.0704(7) 0.3067(3) 1.0093(7)
O19 O 0.0916(7) 0.6228(3) 0.4036(7)
O20 O 0.3182(7) 0.4355(5) 0.1476(8)
O21 O 0.3004(11) 0.3284(6) 0.1647(8)
loop_
_geom_bond_atom_site_label_1
_geom_bond_atom_site_label_2
_geom_bond_site_symmetry_1
_geom_bond_site_symmetry_2
Tb1 N1 1_555 1_555
Tb2 N5 1_555 1_555
Na1 O8 1_555 1_555
Na2 O4 1_555 1_555
N1 C2 1_555 1_555
N2 Tb1 1_555 1_555
N3 Tb1 1_555 1_555
N4 Tb1 1_555 1_555
N5 C26 1_555 1_555
N6 Tb2 1_555 1_555
N7 Tb2 1_555 1_555
N8 Tb2 1_555 1_555
O1 Tb1 1_555 1_555
O2 C1 1_555 1_555
O3 Tb1 1_555 1_555
O4 C12 1_555 1_555
O5 Tb1 1_555 1_555
O6 C13 1_555 1_555
O7 Tb1 1_555 1_555
O8 C24 1_555 1_555
O9 Tb2 1_555 1_555
O10 Na2 1_555 1_555
O11 Tb2 1_555 1_555
O12 C36 1_555 1_555
O13 Tb2 1_555 1_555
O14 Na1 1_555 1_555
O15 Tb2 1_555 1_555
O16 C48 1_555 1_555
C1 O1 1_555 1_555
C2 C1 1_555 1_555
C3 C2 1_555 1_555
H1 C3 1_555 1_555
C4 C3 1_555 1_555
H2 C4 1_555 1_555
C5 C4 1_555 1_555
H3 C5 1_555 1_555
C6 N1 1_555 1_555
C7 N2 1_555 1_555
C8 C7 1_555 1_555
H4 C8 1_555 1_555
C9 C8 1_555 1_555
H5 C9 1_555 1_555
C10 C9 1_555 1_555
H6 C10 1_555 1_555
C11 N2 1_555 1_555
C12 O3 1_555 1_555
C13 O5 1_555 1_555
C14 N3 1_555 1_555
C15 C14 1_555 1_555
H7 C15 1_555 1_555
C16 C15 1_555 1_555
H8 C16 1_555 1_555
C17 C16 1_555 1_555
H9 C17 1_555 1_555
C18 N3 1_555 1_555
C19 N4 1_555 1_555
C20 C19 1_555 1_555
H10 C20 1_555 1_555
C21 C20 1_555 1_555
H11 C21 1_555 1_555
C22 C21 1_555 1_555
H12 C22 1_555 1_555
C23 N4 1_555 1_555
C24 O7 1_555 1_555
C25 O9 1_555 1_555
C26 C25 1_555 1_555
C27 C26 1_555 1_555
H13 C27 1_555 1_555
C28 C27 1_555 1_555
H14 C28 1_555 1_555
C29 C28 1_555 1_555
H15 C29 1_555 1_555
C30 N5 1_555 1_555
C31 N6 1_555 1_555
C32 C31 1_555 1_555
H16 C32 1_555 1_555
C33 C32 1_555 1_555
H17 C33 1_555 1_555
C34 C33 1_555 1_555
H18 C34 1_555 1_555
C35 N6 1_555 1_555
C36 O11 1_555 1_555
C37 O13 1_555 1_555
C38 N7 1_555 1_555
C39 C38 1_555 1_555
H19 C39 1_555 1_555
C40 C39 1_555 1_555
H20 C40 1_555 1_555
C41 C40 1_555 1_555
H21 C41 1_555 1_555
C42 N7 1_555 1_555
C43 N8 1_555 1_555
C44 C43 1_555 1_555
H22 C44 1_555 1_555
C45 C44 1_555 1_555
H23 C45 1_555 1_555
C46 C45 1_555 1_555
H24 C46 1_555 1_555
C47 N8 1_555 1_555
C48 O15 1_555 1_555
O17 Na2 1_555 1_555
O18 Na2 1_555 1_555
Na1B O1 1_555 1_555
Na1C O12 1_555 1_555
O1B Na1 1_555 1_555
O2B Na1 1_555 1_555
O12C Na1 1_555 1_555
O2 Na1B 1_555 1_555
O10 C25 1_555 1_555
O14 C37 1_555 1_555
C5 C6 1_555 1_555
C6 C7 1_555 1_555
C10 C11 1_555 1_555
C11 C12 1_555 1_555
C13 C14 1_555 1_555
C17 C18 1_555 1_555
C18 C19 1_555 1_555
C22 C23 1_555 1_555
C23 C24 1_555 1_555
C29 C30 1_555 1_555
C30 C31 1_555 1_555
C34 C35 1_555 1_555
C35 C36 1_555 1_555
C37 C38 1_555 1_555
C41 C42 1_555 1_555
C42 C43 1_555 1_555
C46 C47 1_555 1_555
C47 C48 1_555 1_555

#END
