
#######################################################################
#
#                 Cambridge Crystallographic Data Centre
#                                CCDC 
#
#######################################################################
#
# If this CIF has been generated from an entry in the Cambridge 
# Structural Database, then it will include bibliographic, chemical, 
# crystal, experimental, refinement or atomic coordinate data resulting 
# from the CCDC's data processing and validation procedures.
#
#######################################################################

data_CUQLEH
_symmetry_cell_setting           monoclinic
_symmetry_space_group_name_H-M   'P 21/c'
_symmetry_Int_Tables_number      14
_space_group_name_Hall           '-P 2ybc'
loop_
_symmetry_equiv_pos_site_id
_symmetry_equiv_pos_as_xyz
1 x,y,z
2 -x,1/2+y,1/2-z
3 -x,-y,-z
4 x,1/2-y,1/2+z
_cell_length_a                   14.4297(8)
_cell_length_b                   26.4715(14)
_cell_length_c                   14.8197(8)
_cell_angle_alpha                90
_cell_angle_beta                 113.7910(10)
_cell_angle_gamma                90
_cell_volume                     5179.73
loop_
_atom_site_label
_atom_site_type_symbol
_atom_site_fract_x
_atom_site_fract_y
_atom_site_fract_z
Ho1 Ho 0.769197(15) 0.400842(8) 0.502908(15)
N1 N 0.9421(3) 0.42584(13) 0.6137(3)
N2 N 0.8804(3) 0.33279(14) 0.6024(3)
N3 N 0.6654(3) 0.41495(13) 0.3262(3)
N4 N 0.5927(3) 0.42722(13) 0.4603(3)
O1 O 0.7997(2) 0.48579(12) 0.4938(2)
O2 O 0.6960(2) 0.32265(13) 0.4680(3)
O3 O 0.8540(2) 0.38339(12) 0.4030(2)
O4 O 0.7310(2) 0.41072(13) 0.6380(2)
C1 C 0.9683(3) 0.47434(18) 0.6122(3)
C2 C 1.0119(3) 0.39305(18) 0.6725(3)
C3 C 0.9756(3) 0.34032(17) 0.6672(3)
C4 C 0.8402(4) 0.28652(18) 0.5907(3)
C5 C 0.7101(4) 0.40920(17) 0.2637(3)
C6 C 0.5689(3) 0.43211(16) 0.2912(3)
C7 C 0.5259(3) 0.43586(16) 0.3672(3)
C8 C 0.5614(3) 0.42924(17) 0.5341(4)
C9 C 0.8842(4) 0.50768(18) 0.5417(3)
C10 C 0.7342(4) 0.28222(19) 0.5125(4)
C11 C 0.8156(4) 0.38830(18) 0.3105(4)
Na1 Na 1.02645(13) 0.37333(7) 0.41191(13)
C12 C 0.6442(4) 0.41969(19) 0.6354(4)
C13 C 1.0638(4) 0.4918(2) 0.6691(4)
C14 C 1.1096(4) 0.4091(2) 0.7320(4)
C15 C 1.0339(4) 0.3012(2) 0.7252(4)
C16 C 0.8941(4) 0.24566(19) 0.6466(4)
C17 C 0.6617(4) 0.4205(2) 0.1648(4)
C18 C 0.5170(4) 0.44437(19) 0.1935(4)
C19 C 0.4261(3) 0.44609(17) 0.3462(4)
C20 C 0.4616(4) 0.43841(18) 0.5170(4)
O5 O 0.9023(3) 0.55224(13) 0.5340(3)
O6 O 0.6917(3) 0.24090(14) 0.4958(3)
O7 O 0.8605(3) 0.37669(17) 0.2578(3)
O8 O 0.6232(3) 0.42273(16) 0.7070(3)
H1 H 1.0800 0.5256 0.6666
C21 C 1.1349(4) 0.4587(2) 0.7294(4)
H2 H 1.1571 0.3864 0.7730
H3 H 1.0999 0.3069 0.7705
C22 C 0.9916(4) 0.2541(2) 0.7140(4)
H4 H 0.8651 0.2137 0.6386
H5 H 0.6941 0.4158 0.1224
C23 C 0.5645(4) 0.4389(2) 0.1304(4)
H6 H 0.4508 0.4562 0.1705
H7 H 0.3807 0.4519 0.2816
C24 C 0.3940(4) 0.44763(18) 0.4221(4)
H8 H 0.4406 0.4384 0.5687
Na2 Na 0.62629(16) 0.42275(8) 0.85920(15)
H9 H 1.1999 0.4699 0.7684
H10 H 1.0292 0.2275 0.7524
H11 H 0.5308 0.4477 0.0643
H12 H 0.3268 0.4549 0.4089
O9 O 0.9241(3) 0.69345(13) 0.4884(3)
O10 O 0.8965(3) 0.63881(16) 0.6889(3)
O11 O 0.4604(3) 0.42545(16) 0.8443(3)
O12 O 0.7225(3) 0.49204(13) 0.9288(3)
O13 O 0.7136(3) 0.36291(15) 0.9706(3)
C25 C 0.8486(4) 0.64478(19) 0.7401(4)
C26 C 0.7645(4) 0.5342(2) 0.9436(4)
C27 C 0.7423(4) 0.66448(17) 0.6949(4)
O14 O 0.8837(2) 0.63662(13) 0.8335(3)
C28 C 0.8720(4) 0.53781(18) 1.0207(3)
O15 O 0.7259(2) 0.57439(12) 0.8989(3)
C29 C 0.6950(4) 0.6760(2) 0.5954(4)
N5 N 0.6970(3) 0.66983(14) 0.7568(3)
Ho2 Ho 0.799486(15) 0.652736(8) 0.932808(15)
C30 C 0.9266(4) 0.49720(19) 1.0741(4)
N6 N 0.9123(3) 0.58428(14) 1.0318(3)
C31 C 0.5959(5) 0.6934(2) 0.5608(4)
H13 H 0.7283 0.6723 0.5536
C32 C 0.5997(3) 0.68608(17) 0.7211(3)
N7 N 0.6229(3) 0.67886(13) 0.8897(3)
O16 O 0.8281(2) 0.73819(12) 0.9314(2)
N8 N 0.9725(3) 0.67788(14) 1.0464(3)
O17 O 0.7599(2) 0.66070(12) 1.0677(2)
C33 C 1.0254(4) 0.5052(2) 1.1414(4)
H14 H 0.8978 0.4652 1.0653
C34 C 1.0079(3) 0.59165(18) 1.0960(3)
C35 C 0.5485(4) 0.69819(19) 0.6236(4)
H15 H 0.5617 0.7018 0.4946
C36 C 0.5567(3) 0.68920(16) 0.7962(3)
C37 C 0.5910(3) 0.67963(17) 0.9627(3)
C38 C 0.9109(4) 0.7608(2) 0.9845(4)
C39 C 1.0434(3) 0.64513(18) 1.1017(3)
C40 C 0.9974(3) 0.72655(18) 1.0463(3)
C41 C 0.6715(4) 0.66677(19) 1.0640(4)
C42 C 1.0673(4) 0.5526(2) 1.1524(4)
H16 H 1.0633 0.4785 1.1791
H17 H 0.4820 0.7096 0.6003
C43 C 0.4563(4) 0.7010(2) 0.7758(4)
C44 C 0.4915(4) 0.69126(19) 0.9466(4)
C45 C 1.1417(4) 0.6605(2) 1.1576(4)
C46 C 1.0949(4) 0.7440(2) 1.0999(4)
O18 O 0.6462(3) 0.66410(15) 1.1334(3)
H18 H 1.1338 0.5584 1.1965
C47 C 0.4245(4) 0.7023(2) 0.8514(4)
H19 H 0.4112 0.7080 0.7115
H20 H 0.4706 0.6916 0.9983
C48 C 1.1667(4) 0.7105(2) 1.1552(4)
H21 H 1.1900 0.6375 1.1962
H22 H 1.1108 0.7779 1.0981
H23 H 0.3577 0.7107 0.8385
H24 H 1.2327 0.7213 1.1913
Na1B Na 0.97355(13) 0.62667(7) 0.58809(13)
O3B O 1.1460(2) 0.61661(12) 0.5970(2)
O7B O 1.1395(3) 0.62331(17) 0.7422(3)
O9C O 0.9241(3) 0.80655(13) 0.9884(3)
Na1A Na 0.97355(13) 0.87333(7) 1.08809(13)
O19 O 0.9087(3) 0.12160(14) 0.5986(3)
O20 O 0.3203(3) 0.0630(2) 0.1496(4)
O21 O 0.6962(5) 0.8266(3) 0.8333(4)
O22 O 0.4750(11) 0.8240(4) 0.7741(15)
loop_
_geom_bond_atom_site_label_1
_geom_bond_atom_site_label_2
_geom_bond_site_symmetry_1
_geom_bond_site_symmetry_2
Ho1 N1 1_555 1_555
N1 C1 1_555 1_555
N2 Ho1 1_555 1_555
N3 Ho1 1_555 1_555
N4 Ho1 1_555 1_555
O1 Ho1 1_555 1_555
O2 Ho1 1_555 1_555
O3 Ho1 1_555 1_555
O4 Ho1 1_555 1_555
C1 C9 1_555 1_555
C2 N1 1_555 1_555
C3 N2 1_555 1_555
C4 N2 1_555 1_555
C5 N3 1_555 1_555
C6 N3 1_555 1_555
C7 N4 1_555 1_555
C8 N4 1_555 1_555
C9 O1 1_555 1_555
C10 O2 1_555 1_555
C11 O3 1_555 1_555
Na1 O3 1_555 1_555
C12 O4 1_555 1_555
C13 C1 1_555 1_555
C14 C2 1_555 1_555
C15 C3 1_555 1_555
C16 C4 1_555 1_555
C17 C5 1_555 1_555
C18 C6 1_555 1_555
C19 C7 1_555 1_555
C20 C8 1_555 1_555
O5 C9 1_555 1_555
O6 C10 1_555 1_555
O7 C11 1_555 1_555
O8 C12 1_555 1_555
H1 C13 1_555 1_555
C21 C13 1_555 1_555
H2 C14 1_555 1_555
H3 C15 1_555 1_555
C22 C15 1_555 1_555
H4 C16 1_555 1_555
H5 C17 1_555 1_555
C23 C17 1_555 1_555
H6 C18 1_555 1_555
H7 C19 1_555 1_555
C24 C19 1_555 1_555
H8 C20 1_555 1_555
Na2 O8 1_555 1_555
H9 C21 1_555 1_555
H10 C22 1_555 1_555
H11 C23 1_555 1_555
H12 C24 1_555 1_555
O9 Na1B 1_555 1_555
O10 C25 1_555 1_555
O11 Na2 1_555 1_555
O12 Na2 1_555 1_555
O13 Na2 1_555 1_555
C25 C27 1_555 1_555
C26 O12 1_555 1_555
C27 C29 1_555 1_555
O14 C25 1_555 1_555
C28 C26 1_555 1_555
O15 C26 1_555 1_555
C29 C31 1_555 1_555
N5 C27 1_555 1_555
Ho2 O14 1_555 1_555
C30 C28 1_555 1_555
N6 C28 1_555 1_555
C31 C35 1_555 1_555
H13 C29 1_555 1_555
C32 N5 1_555 1_555
N7 Ho2 1_555 1_555
O16 Ho2 1_555 1_555
N8 Ho2 1_555 1_555
O17 Ho2 1_555 1_555
C33 C30 1_555 1_555
H14 C30 1_555 1_555
C34 N6 1_555 1_555
C35 C32 1_555 1_555
H15 C31 1_555 1_555
C36 C32 1_555 1_555
C37 N7 1_555 1_555
C38 O16 1_555 1_555
C39 N8 1_555 1_555
C40 N8 1_555 1_555
C41 O17 1_555 1_555
C42 C33 1_555 1_555
H16 C33 1_555 1_555
H17 C35 1_555 1_555
C43 C36 1_555 1_555
C44 C37 1_555 1_555
C45 C39 1_555 1_555
C46 C40 1_555 1_555
O18 C41 1_555 1_555
H18 C42 1_555 1_555
C47 C43 1_555 1_555
H19 C43 1_555 1_555
H20 C44 1_555 1_555
C48 C45 1_555 1_555
H21 C45 1_555 1_555
H22 C46 1_555 1_555
H23 C47 1_555 1_555
H24 C48 1_555 1_555
Na1B O5 1_555 1_555
O3B Na1B 1_555 1_555
O7B Na1B 1_555 1_555
O9C C38 1_555 1_555
Na1A O9C 1_555 1_555
C2 C3 1_555 1_555
C4 C10 1_555 1_555
C5 C11 1_555 1_555
C6 C7 1_555 1_555
C8 C12 1_555 1_555
Na1 O7 1_555 1_555
C14 C21 1_555 1_555
C16 C22 1_555 1_555
C18 C23 1_555 1_555
C20 C24 1_555 1_555
O10 Na1B 1_555 1_555
O15 Ho2 1_555 1_555
N5 Ho2 1_555 1_555
Ho2 N6 1_555 1_555
N7 C36 1_555 1_555
C34 C39 1_555 1_555
C34 C42 1_555 1_555
C37 C41 1_555 1_555
C38 C40 1_555 1_555
C44 C47 1_555 1_555
C46 C48 1_555 1_555

#END
