
#######################################################################
#
#                 Cambridge Crystallographic Data Centre
#                                CCDC 
#
#######################################################################
#
# If this CIF has been generated from an entry in the Cambridge 
# Structural Database, then it will include bibliographic, chemical, 
# crystal, experimental, refinement or atomic coordinate data resulting 
# from the CCDC's data processing and validation procedures.
#
#######################################################################

data_CUQPUB
_symmetry_cell_setting           monoclinic
_symmetry_space_group_name_H-M   'P c'
_symmetry_Int_Tables_number      7
_space_group_name_Hall           'P -2yc'
loop_
_symmetry_equiv_pos_site_id
_symmetry_equiv_pos_as_xyz
1 x,y,z
2 x,-y,1/2+z
_cell_length_a                   14.441(3)
_cell_length_b                   10.325(2)
_cell_length_c                   8.9596(18)
_cell_angle_alpha                90
_cell_angle_beta                 96.25(3)
_cell_angle_gamma                90
_cell_volume                     1327.97
loop_
_atom_site_label
_atom_site_type_symbol
_atom_site_fract_x
_atom_site_fract_y
_atom_site_fract_z
Zn1 Zn 0.00133(3) 0.19671(5) 0.24037(5)
Zn2 Zn 0.49577(3) 0.20159(6) 0.19802(5)
O1 O -0.1232(3) 0.2580(4) 0.2521(4)
O2 O -0.0886(3) 0.4039(4) 0.0825(5)
O3 O 0.3697(2) 0.2649(4) 0.2018(4)
O4 O 0.4263(3) 0.4207(4) 0.3532(5)
N1 N -0.4037(3) 0.3322(4) 0.1646(5)
N2 N 0.1025(3) 0.3254(4) 0.3040(5)
N3 N 0.0210(3) 0.1036(4) 0.0511(5)
N4 N 0.0873(3) 0.1346(5) -0.0410(5)
N5 N 0.0911(3) 0.0434(5) -0.1367(5)
N6 N 0.0264(3) -0.0485(4) -0.1137(5)
N7 N 0.5106(3) 0.0912(4) 0.0138(5)
N8 N 0.5792(3) 0.1180(5) -0.0761(5)
N9 N 0.5857(3) 0.0226(5) -0.1644(5)
N10 N 0.5225(3) -0.0703(5) -0.1379(5)
C1 C -0.1437(3) 0.3483(5) 0.1532(6)
C2 C -0.2457(3) 0.3830(5) 0.1299(5)
C3 C -0.2745(4) 0.4904(6) 0.0468(6)
H1 H -0.2317 0.5422 0.0042
C4 C -0.3694(4) 0.5201(6) 0.0278(7)
H2 H -0.3906 0.5942 -0.0242
C5 C -0.4309(4) 0.4384(6) 0.0867(6)
H3 H -0.4941 0.4577 0.0718
C6 C -0.3116(3) 0.3062(5) 0.1877(6)
H4 H -0.2918 0.2340 0.2445
C7 C 0.3613(4) 0.3567(5) 0.2933(6)
C8 C 0.2635(3) 0.3857(5) 0.3272(5)
C9 C 0.2435(4) 0.4938(5) 0.4074(6)
H5 H 0.2909 0.5497 0.4452
C10 C 0.1523(4) 0.5184(6) 0.4314(7)
H6 H 0.1375 0.5925 0.4828
C11 C 0.0842(4) 0.4335(5) 0.3793(6)
H7 H 0.0231 0.4508 0.3963
C12 C 0.1913(3) 0.3025(5) 0.2802(5)
H8 H 0.2048 0.2272 0.2299
C13 C -0.0145(3) -0.0090(5) 0.0049(6)
C14 C -0.0867(4) -0.0811(5) 0.0731(6)
C15 C -0.1753(4) -0.0302(6) 0.0729(7)
H9 H -0.1899 0.0482 0.0250
C16 C -0.2420(5) -0.0945(7) 0.1429(8)
H10 H -0.3021 -0.0614 0.1396
C17 C -0.2192(6) -0.2071(8) 0.2172(8)
H11 H -0.2632 -0.2483 0.2690
C18 C -0.1326(6) -0.2603(7) 0.2167(8)
H12 H -0.1185 -0.3385 0.2655
C19 C -0.0656(4) -0.1974(6) 0.1430(6)
H13 H -0.0069 -0.2338 0.1411
C20 C 0.4788(3) -0.0246(5) -0.0253(5)
C21 C 0.4060(4) -0.0916(5) 0.0485(7)
C22 C 0.3194(4) -0.0334(6) 0.0546(7)
H14 H 0.3060 0.0455 0.0069
C23 C 0.2533(4) -0.0936(6) 0.1320(7)
H15 H 0.1952 -0.0556 0.1354
C24 C 0.2738(5) -0.2095(6) 0.2040(8)
H16 H 0.2292 -0.2495 0.2557
C25 C 0.3600(5) -0.2674(6) 0.2001(8)
H17 H 0.3743 -0.3445 0.2511
C26 C 0.4253(4) -0.2080(5) 0.1184(7)
H18 H 0.4824 -0.2479 0.1113
Zn1A Zn 0.00133(3) -0.19671(5) -0.25963(5)
Zn2_2 Zn -0.50423(3) 0.20159(6) 0.19802(5)
Zn2A Zn 0.49577(3) -0.20159(6) -0.30198(5)
N1_2 N 0.5963(3) 0.3322(4) 0.1646(5)
N6A N 0.0264(3) 0.0485(4) 0.3863(5)
N10A N 0.5225(3) 0.0703(5) 0.3621(5)
loop_
_geom_bond_atom_site_label_1
_geom_bond_atom_site_label_2
_geom_bond_site_symmetry_1
_geom_bond_site_symmetry_2
Zn1 O1 1_555 1_555
Zn2 O3 1_555 1_555
O1 C1 1_555 1_555
O2 C1 1_555 1_555
O3 C7 1_555 1_555
O4 C7 1_555 1_555
N1 C5 1_555 1_555
N2 Zn1 1_555 1_555
N3 Zn1 1_555 1_555
N4 N3 1_555 1_555
N5 N4 1_555 1_555
N6 N5 1_555 1_555
N7 Zn2 1_555 1_555
N8 N7 1_555 1_555
N9 N8 1_555 1_555
N10 N9 1_555 1_555
C1 C2 1_555 1_555
C2 C3 1_555 1_555
C3 H1 1_555 1_555
C4 C3 1_555 1_555
H2 C4 1_555 1_555
C5 C4 1_555 1_555
H3 C5 1_555 1_555
C6 N1 1_555 1_555
H4 C6 1_555 1_555
C7 C8 1_555 1_555
C8 C9 1_555 1_555
C9 H5 1_555 1_555
C10 C9 1_555 1_555
H6 C10 1_555 1_555
C11 N2 1_555 1_555
H7 C11 1_555 1_555
C12 N2 1_555 1_555
H8 C12 1_555 1_555
C13 N3 1_555 1_555
C14 C13 1_555 1_555
C15 C14 1_555 1_555
H9 C15 1_555 1_555
C16 C15 1_555 1_555
H10 C16 1_555 1_555
C17 C16 1_555 1_555
H11 C17 1_555 1_555
C18 C17 1_555 1_555
H12 C18 1_555 1_555
C19 C14 1_555 1_555
H13 C19 1_555 1_555
C20 N7 1_555 1_555
C21 C20 1_555 1_555
C22 C21 1_555 1_555
H14 C22 1_555 1_555
C23 C22 1_555 1_555
H15 C23 1_555 1_555
C24 C23 1_555 1_555
H16 C24 1_555 1_555
C25 C24 1_555 1_555
H17 C25 1_555 1_555
C26 C21 1_555 1_555
H18 C26 1_555 1_555
Zn1A N6 1_555 1_555
Zn2_2 N1 1_555 1_555
Zn2A N10 1_555 1_555
N1_2 Zn2 1_555 1_555
N6A Zn1 1_555 1_555
N10A Zn2 1_555 1_555
N6 C13 1_555 1_555
N10 C20 1_555 1_555
C2 C6 1_555 1_555
C8 C12 1_555 1_555
C10 C11 1_555 1_555
C18 C19 1_555 1_555
C25 C26 1_555 1_555

#END
