
#######################################################################
#
#                 Cambridge Crystallographic Data Centre
#                                CCDC 
#
#######################################################################
#
# If this CIF has been generated from an entry in the Cambridge 
# Structural Database, then it will include bibliographic, chemical, 
# crystal, experimental, refinement or atomic coordinate data resulting 
# from the CCDC's data processing and validation procedures.
#
#######################################################################

data_CUQXIX
_symmetry_cell_setting           orthorhombic
_symmetry_space_group_name_H-M   'P b c a'
_symmetry_Int_Tables_number      61
_space_group_name_Hall           '-P 2ac 2ab'
loop_
_symmetry_equiv_pos_site_id
_symmetry_equiv_pos_as_xyz
1 x,y,z
2 1/2-x,-y,1/2+z
3 1/2+x,1/2-y,-z
4 -x,1/2+y,1/2-z
5 -x,-y,-z
6 1/2+x,y,1/2-z
7 1/2-x,1/2+y,z
8 x,1/2-y,1/2+z
_cell_length_a                   17.0363(4)
_cell_length_b                   7.7794(2)
_cell_length_c                   20.1494(5)
_cell_angle_alpha                90
_cell_angle_beta                 90
_cell_angle_gamma                90
_cell_volume                     2670.44
loop_
_atom_site_label
_atom_site_type_symbol
_atom_site_fract_x
_atom_site_fract_y
_atom_site_fract_z
Cd1 Cd 1.214549(16) 1.00185(3) 0.903798(13)
O1 O 1.10659(16) 0.8228(3) 0.90776(13)
O2 O 1.15537(17) 0.5567(4) 0.89190(14)
O3 O 0.85251(17) 0.8442(3) 1.02110(14)
O4 O 0.76003(16) 0.6472(3) 1.00162(13)
O5 O 0.8576(2) -0.3553(4) 0.68050(15)
O6 O 0.75068(19) -0.1906(4) 0.68037(15)
N1 N 0.9045(2) 0.0464(4) 0.86757(16)
C1 C 1.0200(2) 0.5845(5) 0.91215(18)
C2 C 1.0090(2) 0.4075(5) 0.90415(18)
H1 H 1.0494 0.3407 0.8869
C3 C 0.8271(3) 0.0222(5) 0.8615(2)
H2 H 0.7932 0.0647 0.8937
C4 C 0.9551(3) -0.0164(5) 0.8221(2)
H3 H 1.0087 0.0027 0.8270
C5 C 0.8483(3) -0.1333(5) 0.7607(2)
C6 C 0.9385(2) 0.3304(5) 0.92159(18)
C7 C 1.1005(2) 0.6617(5) 0.90255(18)
C8 C 0.7974(3) -0.0656(6) 0.8076(2)
H4 H 0.7435 -0.0793 0.8027
C9 C 0.9590(2) 0.6805(5) 0.93818(18)
H5 H 0.9661 0.7979 0.9445
C10 C 0.9279(3) -0.1081(5) 0.7689(2)
H6 H 0.9631 -0.1533 0.7382
C11 C 0.8769(2) 0.4297(5) 0.94565(19)
H7 H 0.8288 0.3788 0.9553
C12 C 0.9363(3) 0.1365(5) 0.92734(19)
H8 H 0.9891 0.0953 0.9356
H9 H 0.9044 0.1059 0.9654
C13 C 0.8163(3) -0.2352(5) 0.7018(2)
C14 C 0.8279(2) 0.7071(5) 0.99545(18)
C15 C 0.8872(2) 0.6066(5) 0.95526(18)
Cd1B Cd 0.714549(16) 0.49815(3) 1.096202(13)
Cd1C Cd 0.785451(16) -0.49815(3) 0.596202(13)
Cd1D Cd 0.785451(16) 0.99815(3) 1.096202(13)
Cd1E Cd 0.714549(16) 0.00185(3) 0.596202(13)
Cd1F Cd 1.285451(16) 0.50185(3) 0.903798(13)
O2F O 1.34463(17) 1.0567(4) 0.89190(14)
O3D O 1.14749(17) 1.1558(3) 0.97890(14)
O4B O 1.26003(16) 0.8528(3) 0.99838(13)
O5C O 1.1424(2) 1.1447(4) 0.81950(15)
O6E O 1.25068(19) 0.8094(4) 0.81963(15)
O7 O 0.8887(3) 0.3277(7) 0.7580(2)
H10 H 0.8954 0.4165 0.7341
H11 H 0.8972 0.3158 0.7993
loop_
_geom_bond_atom_site_label_1
_geom_bond_atom_site_label_2
_geom_bond_site_symmetry_1
_geom_bond_site_symmetry_2
Cd1 O1 1_555 1_555
O1 C7 1_555 1_555
O2 C7 1_555 1_555
O3 C14 1_555 1_555
O4 C14 1_555 1_555
O5 C13 1_555 1_555
O6 C13 1_555 1_555
N1 C3 1_555 1_555
C1 C2 1_555 1_555
C2 H1 1_555 1_555
C3 H2 1_555 1_555
C4 N1 1_555 1_555
H3 C4 1_555 1_555
C5 C8 1_555 1_555
C6 C2 1_555 1_555
C7 C1 1_555 1_555
C8 C3 1_555 1_555
H4 C8 1_555 1_555
C9 C1 1_555 1_555
H5 C9 1_555 1_555
C10 C4 1_555 1_555
H6 C10 1_555 1_555
C11 C6 1_555 1_555
H7 C11 1_555 1_555
C12 N1 1_555 1_555
H8 C12 1_555 1_555
H9 C12 1_555 1_555
C13 C5 1_555 1_555
C14 C15 1_555 1_555
C15 C9 1_555 1_555
O7 H10 1_555 1_555
H11 O7 1_555 1_555
Cd1B O4 1_555 1_555
Cd1C O5 1_555 1_555
Cd1D O3 1_555 1_555
Cd1E O6 1_555 1_555
Cd1F O2 1_555 1_555
O2F Cd1 1_555 1_555
O3D Cd1 1_555 1_555
O4B Cd1 1_555 1_555
O5C Cd1 1_555 1_555
O6E Cd1 1_555 1_555
C5 C10 1_555 1_555
C6 C12 1_555 1_555
C11 C15 1_555 1_555

#END
