
#######################################################################
#
#                 Cambridge Crystallographic Data Centre
#                                CCDC 
#
#######################################################################
#
# If this CIF has been generated from an entry in the Cambridge 
# Structural Database, then it will include bibliographic, chemical, 
# crystal, experimental, refinement or atomic coordinate data resulting 
# from the CCDC's data processing and validation procedures.
#
#######################################################################

data_CUQXUJ
_symmetry_cell_setting           triclinic
_symmetry_space_group_name_H-M   'P -1'
_symmetry_Int_Tables_number      2
_space_group_name_Hall           '-P 1'
loop_
_symmetry_equiv_pos_site_id
_symmetry_equiv_pos_as_xyz
1 x,y,z
2 -x,-y,-z
_cell_length_a                   10.1493(5)
_cell_length_b                   11.1061(7)
_cell_length_c                   12.8644(6)
_cell_angle_alpha                109.643(5)
_cell_angle_beta                 101.237(4)
_cell_angle_gamma                94.591(5)
_cell_volume                     1322.77
loop_
_atom_site_label
_atom_site_type_symbol
_atom_site_fract_x
_atom_site_fract_y
_atom_site_fract_z
N1 N 0.0289(3) 0.0023(3) 0.2326(3)
C1 C 0.0803(4) 0.0422(4) 0.1595(4)
H1 H 0.1217 -0.0147 0.1095
C2 C -0.0331(4) 0.0862(4) 0.3012(3)
H2 H -0.0724 0.0597 0.3511
Cu1 Cu 0.04002(4) 0.82501(4) 0.23724(4)
O1 O 0.1084(3) 0.9119(3) 0.4285(2)
H3 H 0.1693 0.8899 0.3946
H4 H 0.1363 0.9895 0.4483
O2 O 0.1834(2) 0.7973(3) 0.1467(2)
O3 O 0.7576(3) 0.3932(3) -0.5488(2)
O4 O 0.3509(3) 0.8197(3) 0.2959(2)
O5 O 0.7859(3) 0.6051(3) -0.5111(3)
N2 N 0.0370(3) 0.6444(3) 0.2399(2)
N3 N 0.4800(3) 0.5502(4) -0.2671(3)
C3 C 0.3053(3) 0.7934(4) 0.1936(3)
C4 C 0.0149(3) 0.2525(4) 0.2282(3)
C5 C 0.0165(3) 0.3879(4) 0.2309(3)
C6 C 0.3979(3) 0.7474(4) 0.1136(3)
C7 C 0.6123(4) 0.4213(4) -0.3788(3)
H5 H 0.6423 0.3423 -0.4064
C8 C 0.6269(3) 0.7321(4) 0.0898(3)
C9 C 0.5757(3) 0.6629(4) -0.0257(3)
H6 H 0.6352 0.6335 -0.0718
C10 C 0.5388(3) 0.7740(4) 0.1594(3)
H7 H 0.5732 0.8199 0.2367
C11 C 0.5228(4) 0.4372(4) -0.3088(3)
H8 H 0.4918 0.3677 -0.2903
C12 C -0.0118(3) 0.4861(4) 0.3202(3)
H9 H -0.0384 0.4675 0.3791
C13 C 0.6573(3) 0.5247(4) -0.4076(3)
C14 C 0.3487(3) 0.6821(4) -0.0017(3)
H10 H 0.2556 0.6677 -0.0328
C15 C -0.0005(3) 0.6112(4) 0.3216(3)
H11 H -0.0198 0.6754 0.3823
C16 C 0.0504(4) 0.4226(4) 0.1433(3)
H12 H 0.0660 0.3600 0.0797
C17 C -0.0416(4) 0.2092(4) 0.3017(3)
H13 H -0.0854 0.2636 0.3514
C18 C 0.6177(4) 0.6430(4) -0.3576(3)
H14 H 0.6519 0.7152 -0.3710
C19 C 0.0605(4) 0.5493(4) 0.1519(3)
H15 H 0.0849 0.5706 0.0935
C20 C 0.7421(4) 0.5060(5) -0.4968(3)
C21 C 0.4365(3) 0.6373(4) -0.0727(3)
C22 C 0.0746(4) 0.1634(4) 0.1551(4)
H16 H 0.1113 0.1862 0.1023
C23 C 0.5282(4) 0.6546(5) -0.2885(3)
H17 H 0.5007 0.7340 -0.2565
C24 C 0.3767(4) 0.5647(5) -0.1979(3)
H18 H 0.3320 0.4794 -0.2086
H19 H 0.3082 0.6102 -0.2250
C25 C 0.7801(3) 0.7636(4) 0.1343(3)
O6 O 0.8517(2) 0.7470(3) 0.0648(2)
O7 O 0.8302(2) 0.8042(3) 0.2409(2)
N1_2 N 0.0289(3) 1.0023(3) 0.2326(3)
Cu1_2 Cu 0.04002(4) -0.17499(4) 0.23724(4)
Cu1_3 Cu 1.04002(4) 0.82501(4) 0.23724(4)
O6_2 O -0.1483(2) 0.7470(3) 0.0648(2)
O7_2 O -0.1698(2) 0.8042(3) 0.2409(2)
O8 O 0.6898(3) 0.1388(3) 0.4166(3)
H20 H 0.7534 0.1882 0.4716
H21 H 0.6179 0.1516 0.4313
O9 O 0.4244(3) 0.0848(3) 0.4181(3)
H22 H 0.3484 0.0398 0.3990
H23 H 0.4242 0.0957 0.4851
O10 O 0.5930(6) 0.0888(5) 0.1716(4)
H24 H 0.6280 0.1235 0.1411
H25 H 0.6531 0.1335 0.2314
O11 O 0.2378(3) 0.1737(3) 0.5552(3)
H26 H 0.2830 0.2218 0.5309
H27 H 0.2668 0.1965 0.6267
O12 O 0.3226(7) 0.0181(7) 0.0238(6)
H28 H 0.3340 0.0462 -0.0198
H29 H 0.3728 0.0398 0.0810
loop_
_geom_bond_atom_site_label_1
_geom_bond_atom_site_label_2
_geom_bond_site_symmetry_1
_geom_bond_site_symmetry_2
N1 C1 1_555 1_555
C1 H1 1_555 1_555
C2 N1 1_555 1_555
H2 C2 1_555 1_555
Cu1 O1 1_555 1_555
O1 H3 1_555 1_555
H4 O1 1_555 1_555
O2 Cu1 1_555 1_555
O3 C20 1_555 1_555
O4 C3 1_555 1_555
O5 C20 1_555 1_555
N2 Cu1 1_555 1_555
N3 C11 1_555 1_555
C3 O2 1_555 1_555
C4 C5 1_555 1_555
C5 C12 1_555 1_555
C6 C3 1_555 1_555
C7 H5 1_555 1_555
C8 C9 1_555 1_555
C9 H6 1_555 1_555
C10 C6 1_555 1_555
H7 C10 1_555 1_555
C11 C7 1_555 1_555
H8 C11 1_555 1_555
C12 H9 1_555 1_555
C13 C7 1_555 1_555
C14 C6 1_555 1_555
H10 C14 1_555 1_555
C15 N2 1_555 1_555
H11 C15 1_555 1_555
C16 C5 1_555 1_555
H12 C16 1_555 1_555
C17 C2 1_555 1_555
H13 C17 1_555 1_555
C18 C13 1_555 1_555
H14 C18 1_555 1_555
C19 N2 1_555 1_555
H15 C19 1_555 1_555
C20 C13 1_555 1_555
C21 C9 1_555 1_555
C22 C1 1_555 1_555
H16 C22 1_555 1_555
C23 N3 1_555 1_555
H17 C23 1_555 1_555
C24 N3 1_555 1_555
H18 C24 1_555 1_555
H19 C24 1_555 1_555
C25 C8 1_555 1_555
O6 C25 1_555 1_555
O7 C25 1_555 1_555
O8 H20 1_555 1_555
H21 O8 1_555 1_555
O9 H22 1_555 1_555
H23 O9 1_555 1_555
O10 H24 1_555 1_555
H25 O10 1_555 1_555
O11 H26 1_555 1_555
H27 O11 1_555 1_555
O12 H28 1_555 1_555
H29 O12 1_555 1_555
N1_2 Cu1 1_555 1_555
Cu1_2 N1 1_555 1_555
Cu1_3 O6 1_555 1_555
O6_2 Cu1 1_555 1_555
O7_2 Cu1 1_555 1_555
C4 C17 1_555 1_555
C4 C22 1_555 1_555
C8 C10 1_555 1_555
C12 C15 1_555 1_555
C14 C21 1_555 1_555
C16 C19 1_555 1_555
C18 C23 1_555 1_555
C21 C24 1_555 1_555
O7 Cu1_3 1_555 1_555

#END
