
#######################################################################
#
#                 Cambridge Crystallographic Data Centre
#                                CCDC 
#
#######################################################################
#
# If this CIF has been generated from an entry in the Cambridge 
# Structural Database, then it will include bibliographic, chemical, 
# crystal, experimental, refinement or atomic coordinate data resulting 
# from the CCDC's data processing and validation procedures.
#
#######################################################################

data_CUQYAQ
_symmetry_cell_setting           triclinic
_symmetry_space_group_name_H-M   'P -1'
_symmetry_Int_Tables_number      2
_space_group_name_Hall           '-P 1'
loop_
_symmetry_equiv_pos_site_id
_symmetry_equiv_pos_as_xyz
1 x,y,z
2 -x,-y,-z
_cell_length_a                   10.0801(3)
_cell_length_b                   10.8210(5)
_cell_length_c                   13.4386(6)
_cell_angle_alpha                95.194(4)
_cell_angle_beta                 92.144(3)
_cell_angle_gamma                92.391(3)
_cell_volume                     1457.3
loop_
_atom_site_label
_atom_site_type_symbol
_atom_site_fract_x
_atom_site_fract_y
_atom_site_fract_z
Cu1 Cu 0.12625(6) 0.36371(7) -0.04330(5)
O1 O 0.1876(4) 0.5723(4) -0.0325(4)
O2 O 0.0563(4) 0.7029(5) 0.0503(3)
O3 O 0.7517(4) 0.8536(5) 0.0634(4)
O4 O 0.6786(4) 0.6570(4) 0.0497(3)
O5 O 0.3397(12) 1.0891(12) 0.6458(7)
O6 O 0.1592(10) 0.9720(10) 0.5992(7)
N1 N 0.1381(5) 0.3675(5) 0.1077(4)
N2 N 0.3110(6) 1.0900(5) 0.2741(5)
C1 C 0.2363(7) 0.4364(7) 0.1607(5)
H1 H 0.2996 0.4788 0.1264
C2 C 0.0502(6) 0.3063(7) 0.1595(5)
H2 H -0.0166 0.2565 0.1244
C3 C 0.0543(7) 0.3138(8) 0.2623(5)
H3 H -0.0091 0.2699 0.2954
C4 C 0.2454(8) 0.4458(8) 0.2626(5)
H4 H 0.3154 0.4931 0.2959
C5 C 0.1670(5) 0.6692(6) 0.0191(4)
C6 C 0.2825(6) 0.7614(6) 0.0501(4)
C7 C 0.4135(6) 0.7265(6) 0.0405(4)
H5 H 0.4305 0.6467 0.0137
C8 C 0.5181(6) 0.8097(6) 0.0707(5)
C9 C 0.4932(6) 0.9302(6) 0.1095(5)
H6 H 0.5634 0.9866 0.1292
C10 C 0.3619(6) 0.9658(6) 0.1187(5)
C11 C 0.2579(6) 0.8817(6) 0.0880(5)
H7 H 0.1708 0.9060 0.0927
C12 C 0.1538(7) 0.3872(7) 0.3172(5)
C13 C 0.3350(7) 1.0936(6) 0.1666(6)
H8 H 0.4106 1.1499 0.1587
H9 H 0.2580 1.1248 0.1333
C14 C 0.6603(6) 0.7727(6) 0.0613(4)
C15 C 0.4120(8) 1.1159(8) 0.3415(7)
H10 H 0.4941 1.1436 0.3207
C16 C 0.3957(9) 1.1020(9) 0.4420(7)
H11 H 0.4668 1.1189 0.4881
C17 C 0.1712(10) 1.0402(9) 0.4021(7)
H12 H 0.0878 1.0144 0.4216
C18 C 0.1902(8) 1.0548(8) 0.3044(6)
H13 H 0.1193 1.0405 0.2579
C19 C 0.2740(9) 1.0631(8) 0.4729(7)
C20 C 0.2529(13) 1.0396(12) 0.5839(9)
C21 C 0.0829(8) 0.3464(8) 0.4862(5)
H14 H 0.0123 0.2972 0.4556
C22 C 0.1636(9) 0.4003(8) 0.4262(6)
H15 H 0.2331 0.4512 0.4563
C23 C 0.0926(8) 0.3558(7) 0.5959(5)
C24 C 0.0204(12) 0.2746(13) 0.6483(7)
H16 H -0.0362 0.2140 0.6137
C25 C 0.1683(14) 0.4417(11) 0.6537(7)
H17 H 0.2153 0.5035 0.6241
C26 C 0.0306(11) 0.2816(11) 0.7493(6)
H18 H -0.0219 0.2263 0.7817
C27 C 0.1770(14) 0.4393(11) 0.7561(7)
H19 H 0.2348 0.4972 0.7926
N3 N 0.1102(5) 0.3619(5) 0.8044(4)
Cu1_2 Cu 0.12625(6) 0.36371(7) 0.95670(5)
Cu1A Cu -0.12625(6) 0.63629(7) 0.04330(5)
Cu1A_2 Cu 0.87375(6) 0.63629(7) 0.04330(5)
O2A O -0.0563(4) 0.2971(5) -0.0503(3)
O3A O 0.2483(4) 0.1464(5) -0.0634(4)
O4A O 0.3214(4) 0.3430(4) -0.0497(3)
N3_2 N 0.1102(5) 0.3619(5) -0.1956(4)
O7 O 0.5428(11) 0.4943(10) 0.1739(7)
H20 H 0.5833 0.5418 0.1368
H21 H 0.540(16) 0.419(3) 0.148(7)
O8 O 0.7350(11) 0.2746(9) 0.4133(7)
H22 H 0.7600 0.2788 0.3539
H23 H 0.762(12) 0.216(8) 0.445(4)
O9 O 0.6644(9) 0.2490(10) 0.2125(7)
H24 H 0.6875 0.1909 0.1708
H25 H 0.6668 0.3171 0.1856
O10 O 0.8661(11) 0.0512(9) 0.1937(6)
H26 H 0.8205 0.0348 0.2431
H27 H 0.8405 0.0027 0.1426
O11 O 0.5019(10) 0.7038(9) 0.3204(7)
H28 H 0.5575 0.7653 0.3302
H29 H 0.5181 0.6415 0.2771
O12 O 0.4540(11) 0.6025(10) 0.4936(7)
H30 H 0.3951 0.6393 0.5223
H31 H 0.4660 0.6342 0.4407
loop_
_geom_bond_atom_site_label_1
_geom_bond_atom_site_label_2
_geom_bond_site_symmetry_1
_geom_bond_site_symmetry_2
Cu1 O1 1_555 1_555
O1 C5 1_555 1_555
O2 C5 1_555 1_555
O3 C14 1_555 1_555
O4 C14 1_555 1_555
O5 C20 1_555 1_555
O6 C20 1_555 1_555
N1 Cu1 1_555 1_555
N2 C13 1_555 1_555
C1 N1 1_555 1_555
H1 C1 1_555 1_555
C2 N1 1_555 1_555
H2 C2 1_555 1_555
C3 C2 1_555 1_555
H3 C3 1_555 1_555
C4 C1 1_555 1_555
H4 C4 1_555 1_555
C5 C6 1_555 1_555
C6 C7 1_555 1_555
C7 H5 1_555 1_555
C8 C7 1_555 1_555
C9 C8 1_555 1_555
H6 C9 1_555 1_555
C10 C9 1_555 1_555
C11 C6 1_555 1_555
H7 C11 1_555 1_555
C12 C3 1_555 1_555
C13 C10 1_555 1_555
H8 C13 1_555 1_555
H9 C13 1_555 1_555
C14 C8 1_555 1_555
C15 N2 1_555 1_555
H10 C15 1_555 1_555
C16 C15 1_555 1_555
H11 C16 1_555 1_555
C17 H12 1_555 1_555
C18 N2 1_555 1_555
H13 C18 1_555 1_555
C19 C16 1_555 1_555
C20 C19 1_555 1_555
C21 H14 1_555 1_555
C22 C12 1_555 1_555
H15 C22 1_555 1_555
C23 C21 1_555 1_555
C24 C23 1_555 1_555
H16 C24 1_555 1_555
C25 C23 1_555 1_555
H17 C25 1_555 1_555
C26 C24 1_555 1_555
H18 C26 1_555 1_555
C27 C25 1_555 1_555
H19 C27 1_555 1_555
N3 C26 1_555 1_555
O7 H20 1_555 1_555
H21 O7 1_555 1_555
O8 H22 1_555 1_555
H23 O8 1_555 1_555
O9 H24 1_555 1_555
H25 O9 1_555 1_555
O10 H26 1_555 1_555
H27 O10 1_555 1_555
O11 H28 1_555 1_555
H29 O11 1_555 1_555
O12 H30 1_555 1_555
H31 O12 1_555 1_555
Cu1_2 N3 1_555 1_555
Cu1A O2 1_555 1_555
Cu1A_2 O3 1_555 1_555
O2A Cu1 1_555 1_555
O3A Cu1 1_555 1_555
O4A Cu1 1_555 1_555
N3_2 Cu1 1_555 1_555
O4 Cu1A_2 1_555 1_555
C4 C12 1_555 1_555
C10 C11 1_555 1_555
C17 C18 1_555 1_555
C17 C19 1_555 1_555
C21 C22 1_555 1_555
C27 N3 1_555 1_555

#END
