
#######################################################################
#
#                 Cambridge Crystallographic Data Centre
#                                CCDC 
#
#######################################################################
#
# If this CIF has been generated from an entry in the Cambridge 
# Structural Database, then it will include bibliographic, chemical, 
# crystal, experimental, refinement or atomic coordinate data resulting 
# from the CCDC's data processing and validation procedures.
#
#######################################################################

data_CURPOW
_symmetry_cell_setting           monoclinic
_symmetry_space_group_name_H-M   'P 21/c'
_symmetry_Int_Tables_number      14
_space_group_name_Hall           '-P 2ybc'
loop_
_symmetry_equiv_pos_site_id
_symmetry_equiv_pos_as_xyz
1 x,y,z
2 -x,1/2+y,1/2-z
3 -x,-y,-z
4 x,1/2-y,1/2+z
_cell_length_a                   10.174(2)
_cell_length_b                   20.843(4)
_cell_length_c                   13.274(3)
_cell_angle_alpha                90
_cell_angle_beta                 100.40(3)
_cell_angle_gamma                90
_cell_volume                     2768.6
loop_
_atom_site_label
_atom_site_type_symbol
_atom_site_fract_x
_atom_site_fract_y
_atom_site_fract_z
Zn1 Zn 1.07235(3) 0.60660(2) 0.68989(3)
N1 N 1.1158(2) 0.60116(11) 0.84423(19)
N2 N 1.1473(3) 0.61848(13) 1.0112(2)
H1 H 1.1558 0.6390 1.0682
N3 N 1.0556(3) 0.74820(12) 0.9787(2)
N4 N 1.0384(3) 0.81465(12) 1.1025(2)
O1 O 0.9114(2) 0.55000(12) 0.64959(18)
O2 O 0.8204(2) 0.62607(12) 0.72955(19)
O3 O 0.3301(2) 0.63177(12) 0.7006(2)
O4 O 0.2070(2) 0.54813(11) 0.64463(17)
O5 O 0.6453(3) 0.34656(14) 0.5641(3)
O6 O 0.4273(3) 0.35112(12) 0.5598(3)
H2 H 0.4327 0.3123 0.5516
C1 C 0.8126(3) 0.57484(16) 0.6822(2)
C2 C 0.3197(3) 0.57634(15) 0.6678(2)
C3 C 0.5475(4) 0.37631(17) 0.5752(3)
C4 C 0.6820(3) 0.53927(15) 0.6601(2)
C5 C 0.5654(3) 0.57057(15) 0.6740(2)
H3 H 0.5701 0.6128 0.6970
C6 C 0.4425(3) 0.53979(14) 0.6541(2)
C7 C 0.4359(3) 0.47635(15) 0.6218(2)
H4 H 0.3541 0.4553 0.6086
C8 C 0.5517(3) 0.44437(15) 0.6092(2)
C9 C 0.6740(3) 0.47614(16) 0.6271(2)
H5 H 0.7508 0.4548 0.6169
C10 C 1.1174(3) 0.79304(14) 1.0416(2)
H6 H 1.2043 0.8072 1.0424
C11 C 0.9194(3) 0.78199(16) 1.0754(3)
H7 H 0.8441 0.7875 1.1052
C12 C 0.9295(3) 0.74102(17) 0.9994(3)
H8 H 0.8637 0.7132 0.9670
C13 C 1.1099(4) 0.71509(16) 0.8981(3)
H9 H 1.1971 0.7327 0.8943
H10 H 1.0518 0.7226 0.8327
C14 C 1.1227(3) 0.64466(15) 0.9170(2)
C15 C 1.1563(3) 0.55305(15) 1.0003(2)
C16 C 1.1767(3) 0.50346(16) 1.0715(3)
H11 H 1.1881 0.5114 1.1415
C17 C 1.1791(3) 0.44216(17) 1.0334(3)
H12 H 1.1938 0.4077 1.0786
C18 C 1.1598(4) 0.43062(16) 0.9278(3)
H13 H 1.1612 0.3885 0.9048
C19 C 1.1388(3) 0.47969(15) 0.8570(2)
H14 H 1.1261 0.4716 0.7870
C20 C 1.1376(3) 0.54189(14) 0.8950(2)
Zn1_2 Zn 0.07235(3) 0.60660(2) 0.68989(3)
Zn1C Zn 1.07235(3) 0.89340(2) 1.18989(3)
N4C N 1.0384(3) 0.68535(12) 0.6025(2)
O4_2 O 1.2070(2) 0.54813(11) 0.64463(17)
N5 N 0.4823(3) 0.13705(17) 0.4534(3)
O7 O 0.4351(4) 0.22582(15) 0.5377(3)
C21 C 0.5163(5) 0.0996(2) 0.5460(4)
H15 H 0.5297 0.1276 0.6043
H16 H 0.5968 0.0759 0.5444
H17 H 0.4449 0.0702 0.5509
C22 C 0.4857(6) 0.1059(3) 0.3560(4)
H18 H 0.4551 0.1353 0.3011
H19 H 0.4286 0.0689 0.3490
H20 H 0.5755 0.0929 0.3534
C23 C 0.4459(5) 0.1972(2) 0.4572(4)
H21 H 0.4269 0.2199 0.3960
O8 O 1.1509(4) 0.66041(17) 1.2043(2)
H22 H 1.0962 0.6712 1.2428
H23 H 1.2213 0.6797 1.2330
O9 O 0.7054(4) 0.73851(18) 0.7731(3)
H24 H 0.7413 0.7036 0.7592
H25 H 0.6525 0.7383 0.8159
O10 O 0.9151(4) 0.83381(18) 0.7832(3)
H26 H 0.8402 0.8145 0.7723
H27 H 0.9146 0.8626 0.8285
O11 O 0.0622(5) 0.43012(17) 0.5722(3)
H28 H 0.0981 0.4159 0.5236
H29 H 0.1009 0.4658 0.5884
O12 O 0.3806(7) 0.7541(2) 0.7612(4)
H30 H 0.3869 0.7244 0.7186
H31 H 0.4042 0.7361 0.8191
loop_
_geom_bond_atom_site_label_1
_geom_bond_atom_site_label_2
_geom_bond_site_symmetry_1
_geom_bond_site_symmetry_2
Zn1 N1 1_555 1_555
N1 C14 1_555 1_555
N2 H1 1_555 1_555
N3 C10 1_555 1_555
N4 C10 1_555 1_555
O1 Zn1 1_555 1_555
O2 C1 1_555 1_555
O3 C2 1_555 1_555
O4 C2 1_555 1_555
O5 C3 1_555 1_555
O6 H2 1_555 1_555
C1 O1 1_555 1_555
C2 C6 1_555 1_555
C3 O6 1_555 1_555
C4 C1 1_555 1_555
C5 C4 1_555 1_555
H3 C5 1_555 1_555
C6 C5 1_555 1_555
C7 C6 1_555 1_555
H4 C7 1_555 1_555
C8 C3 1_555 1_555
C9 C4 1_555 1_555
H5 C9 1_555 1_555
C10 H6 1_555 1_555
C11 N4 1_555 1_555
H7 C11 1_555 1_555
C12 N3 1_555 1_555
H8 C12 1_555 1_555
C13 N3 1_555 1_555
H9 C13 1_555 1_555
H10 C13 1_555 1_555
C14 N2 1_555 1_555
C15 N2 1_555 1_555
C16 C15 1_555 1_555
H11 C16 1_555 1_555
C17 C16 1_555 1_555
H12 C17 1_555 1_555
C18 C17 1_555 1_555
H13 C18 1_555 1_555
C19 C18 1_555 1_555
H14 C19 1_555 1_555
C20 N1 1_555 1_555
N5 C21 1_555 1_555
O7 C23 1_555 1_555
C21 H15 1_555 1_555
H16 C21 1_555 1_555
H17 C21 1_555 1_555
C22 N5 1_555 1_555
H18 C22 1_555 1_555
H19 C22 1_555 1_555
H20 C22 1_555 1_555
C23 N5 1_555 1_555
H21 C23 1_555 1_555
O8 H22 1_555 1_555
H23 O8 1_555 1_555
O9 H24 1_555 1_555
H25 O9 1_555 1_555
O10 H26 1_555 1_555
H27 O10 1_555 1_555
O11 H28 1_555 1_555
H29 O11 1_555 1_555
O12 H30 1_555 1_555
H31 O12 1_555 1_555
Zn1_2 O4 1_555 1_555
Zn1C N4 1_555 1_555
N4C Zn1 1_555 1_555
O4_2 Zn1 1_555 1_555
C7 C8 1_555 1_555
C8 C9 1_555 1_555
C11 C12 1_555 1_555
C13 C14 1_555 1_555
C15 C20 1_555 1_555
C19 C20 1_555 1_555

#END
