
#######################################################################
#
#                 Cambridge Crystallographic Data Centre
#                                CCDC 
#
#######################################################################
#
# If this CIF has been generated from an entry in the Cambridge 
# Structural Database, then it will include bibliographic, chemical, 
# crystal, experimental, refinement or atomic coordinate data resulting 
# from the CCDC's data processing and validation procedures.
#
#######################################################################

data_CURQIR
_symmetry_cell_setting           orthorhombic
_symmetry_space_group_name_H-M   'P b c a'
_symmetry_Int_Tables_number      61
_space_group_name_Hall           '-P 2ac 2ab'
loop_
_symmetry_equiv_pos_site_id
_symmetry_equiv_pos_as_xyz
1 x,y,z
2 1/2+x,1/2-y,-z
3 -x,1/2+y,1/2-z
4 1/2-x,-y,1/2+z
5 -x,-y,-z
6 1/2-x,1/2+y,z
7 x,1/2-y,1/2+z
8 1/2+x,y,1/2-z
_cell_length_a                   13.9096(3)
_cell_length_b                   10.5234(2)
_cell_length_c                   22.6923(5)
_cell_angle_alpha                90
_cell_angle_beta                 90
_cell_angle_gamma                90
_cell_volume                     3321.61
loop_
_atom_site_label
_atom_site_type_symbol
_atom_site_fract_x
_atom_site_fract_y
_atom_site_fract_z
Cd1 Cd 0.61193(2) 0.04017(2) 0.47048(2)
O1 O 0.5700(2) -0.0608(3) 0.67453(11)
N1 N 0.6243(2) 0.1407(3) 0.37751(14)
N2 N 0.5585(2) 0.2434(3) 0.48668(13)
C1 C 0.6216(3) 0.2784(4) 0.38833(17)
H1 H 0.6089 0.3231 0.3507
H2 H 0.6852 0.3065 0.4030
C2 C 0.5461(3) 0.3146(3) 0.43227(17)
H3 H 0.5503 0.4067 0.4406
H4 H 0.4816 0.2969 0.4157
C3 C 0.5478(2) 0.2996(3) 0.53561(17)
H5 H 0.5353 0.3883 0.5341
C4 C 0.5528(3) 0.2425(3) 0.59346(16)
C5 C 0.5534(3) 0.3253(4) 0.6420(2)
H6 H 0.5508 0.4143 0.6352
C6 C 0.5575(4) 0.2816(5) 0.6986(2)
H7 H 0.5550 0.3391 0.7308
C7 C 0.5653(3) 0.1522(5) 0.70818(18)
H8 H 0.5708 0.1209 0.7473
C8 C 0.5652(3) 0.0688(4) 0.66194(16)
C9 C 0.6577(4) -0.1186(5) 0.6562(2)
H9 H 0.7129 -0.0666 0.6694
H10 H 0.6596 -0.1243 0.6127
C10 C 0.6640(4) -0.2481(5) 0.6824(3)
H11 H 0.7242 -0.2886 0.6700
H12 H 0.6626 -0.2418 0.7254
H13 H 0.6094 -0.2993 0.6689
C11 C 0.7038(3) 0.1050(5) 0.33796(19)
H14 H 0.7069 0.1661 0.3048
H15 H 0.7653 0.1101 0.3598
C12 C 0.6918(4) -0.0243(5) 0.3145(2)
H16 H 0.7459 -0.0446 0.2885
H17 H 0.6900 -0.0851 0.3472
H18 H 0.6316 -0.0292 0.2922
O2 O 0.54345(16) 0.02391(19) 0.56101(9)
C13 C 0.5544(2) 0.1084(3) 0.60296(14)
S1 S 0.70307(8) -0.41035(9) 0.50717(6)
N3 N 0.6651(2) -0.1616(3) 0.47251(15)
C14 C 0.6822(3) -0.2634(3) 0.48737(18)
H19 H 0.576(3) 0.126(4) 0.3616(19)
Cd1D Cd 0.38807(2) -0.04017(2) 0.52952(2)
Cd1E Cd 0.88807(2) -0.45983(2) 0.47048(2)
O2D O 0.45655(16) -0.02391(19) 0.43899(9)
S1E S 0.79693(8) 0.08965(9) 0.50717(6)
loop_
_geom_bond_atom_site_label_1
_geom_bond_atom_site_label_2
_geom_bond_site_symmetry_1
_geom_bond_site_symmetry_2
Cd1 N1 1_555 1_555
O1 C8 1_555 1_555
N1 C1 1_555 1_555
N2 Cd1 1_555 1_555
C1 H1 1_555 1_555
H2 C1 1_555 1_555
C2 N2 1_555 1_555
H3 C2 1_555 1_555
H4 C2 1_555 1_555
C3 N2 1_555 1_555
H5 C3 1_555 1_555
C4 C3 1_555 1_555
C5 C4 1_555 1_555
H6 C5 1_555 1_555
C6 C5 1_555 1_555
H7 C6 1_555 1_555
C7 C6 1_555 1_555
H8 C7 1_555 1_555
C8 C7 1_555 1_555
C9 O1 1_555 1_555
H9 C9 1_555 1_555
H10 C9 1_555 1_555
C10 C9 1_555 1_555
H11 C10 1_555 1_555
H12 C10 1_555 1_555
H13 C10 1_555 1_555
C11 N1 1_555 1_555
H14 C11 1_555 1_555
H15 C11 1_555 1_555
C12 C11 1_555 1_555
H16 C12 1_555 1_555
H17 C12 1_555 1_555
H18 C12 1_555 1_555
O2 Cd1 1_555 1_555
C13 C4 1_555 1_555
S1 C14 1_555 1_555
N3 Cd1 1_555 1_555
C14 N3 1_555 1_555
H19 N1 1_555 1_555
Cd1D O2 1_555 1_555
Cd1E S1 1_555 1_555
O2D Cd1 1_555 1_555
S1E Cd1 1_555 1_555
C1 C2 1_555 1_555
C8 C13 1_555 1_555
O2 C13 1_555 1_555
Cd1D O2D 1_555 1_555

#END
