
#######################################################################
#
#                 Cambridge Crystallographic Data Centre
#                                CCDC 
#
#######################################################################
#
# If this CIF has been generated from an entry in the Cambridge 
# Structural Database, then it will include bibliographic, chemical, 
# crystal, experimental, refinement or atomic coordinate data resulting 
# from the CCDC's data processing and validation procedures.
#
#######################################################################

data_CURYOE
_symmetry_cell_setting           monoclinic
_symmetry_space_group_name_H-M   'P 2/n'
_symmetry_Int_Tables_number      13
_space_group_name_Hall           '-P 2yac'
loop_
_symmetry_equiv_pos_site_id
_symmetry_equiv_pos_as_xyz
1 x,y,z
2 1/2-x,y,1/2-z
3 -x,-y,-z
4 1/2+x,-y,1/2+z
_cell_length_a                   10.2936(12)
_cell_length_b                   9.8758(12)
_cell_length_c                   12.7191(15)
_cell_angle_alpha                90
_cell_angle_beta                 105.893(2)
_cell_angle_gamma                90
_cell_volume                     1243.57
loop_
_atom_site_label
_atom_site_type_symbol
_atom_site_fract_x
_atom_site_fract_y
_atom_site_fract_z
O1 O -0.2096(9) -0.0851(6) 0.2939(7)
O1A O -0.2904(9) -0.0851(6) 0.2061(7)
Cd1 Cd 0.2500 1.04960(3) 0.2500
Cl1 Cl 0.50854(9) 1.05234(9) 0.31652(8)
N1 N 0.2414(3) 1.2171(3) 0.3834(2)
N2 N 0.2308(3) 1.8789(3) 0.3788(2)
C1 C 0.2441(3) 1.4799(3) 0.6525(3)
C2 C 0.2420(3) 1.6221(3) 0.6520(2)
C3 C 0.2500 1.6889(4) 0.7500
H1 H 0.2500 1.7830 0.7500
C4 C 0.2500 1.4122(5) 0.7500
H2 H 0.2500 1.3180 0.7500
C5 C 0.2408(3) 1.3939(3) 0.5554(3)
C6 C 0.3274(3) 1.2838(3) 0.5689(3)
H3 H 0.3871 1.2668 0.6370
C7 C 0.3255(4) 1.1992(3) 0.4821(3)
H4 H 0.3856 1.1268 0.4932
C8 C 0.1554(3) 1.3221(3) 0.3696(3)
H5 H 0.0944 1.3346 0.3013
C9 C 0.1534(3) 1.4121(3) 0.4520(3)
H6 H 0.0937 1.4848 0.4383
C10 C 0.2354(3) 1.7062(3) 0.5539(2)
C11 C 0.3261(3) 1.6913(3) 0.4919(3)
H7 H 0.3901 1.6224 0.5075
C12 C 0.3206(3) 1.7794(3) 0.4070(3)
H8 H 0.3832 1.7687 0.3670
C13 C 0.1413(4) 1.8910(4) 0.4368(3)
H9 H 0.0762 1.9586 0.4176
C14 C 0.1408(4) 1.8084(3) 0.5234(3)
H10 H 0.0767 1.8213 0.5618
Cd1_2 Cd 0.2500 2.04960(3) 0.2500
Cd1_3 Cd 0.2500 1.04960(3) 1.2500
Cd1_4 Cd 0.2500 2.04960(3) 1.2500
Cl1A Cl -0.00854(9) 1.05234(9) 0.18348(8)
N1A N 0.2586(3) 1.2171(3) 1.1166(2)
N1A_2 N 0.2586(3) 1.2171(3) 0.1166(2)
N2A N 0.2692(3) 1.8789(3) 1.1212(2)
N2_2 N 0.2308(3) 0.8789(3) 0.3788(2)
N2A_2 N 0.2692(3) 0.8789(3) 0.1212(2)
C1A C 0.2559(3) 1.4799(3) 0.8475(3)
C2A C 0.2580(3) 1.6221(3) 0.8480(2)
C5A C 0.2592(3) 1.3939(3) 0.9446(3)
C6A C 0.1726(3) 1.2838(3) 0.9311(3)
H3A H 0.1129 1.2668 0.8630
C7A C 0.1745(4) 1.1992(3) 1.0179(3)
H4A H 0.1144 1.1268 1.0068
C8A C 0.3446(3) 1.3221(3) 1.1304(3)
H5A H 0.4056 1.3346 1.1987
C9A C 0.3466(3) 1.4121(3) 1.0480(3)
H6A H 0.4063 1.4848 1.0617
C10A C 0.2646(3) 1.7062(3) 0.9461(2)
C11A C 0.1739(3) 1.6913(3) 1.0081(3)
H7A H 0.1099 1.6224 0.9925
C12A C 0.1794(3) 1.7794(3) 1.0930(3)
H8A H 0.1168 1.7687 1.1330
C13A C 0.3587(4) 1.8910(4) 1.0632(3)
H9A H 0.4238 1.9586 1.0824
C14A C 0.3592(4) 1.8084(3) 0.9766(3)
H10A H 0.4233 1.8213 0.9382
loop_
_geom_bond_atom_site_label_1
_geom_bond_atom_site_label_2
_geom_bond_site_symmetry_1
_geom_bond_site_symmetry_2
Cd1 Cl1 1_555 1_555
N1 Cd1 1_555 1_555
N2 C12 1_555 1_555
C1 C2 1_555 1_555
C2 C3 1_555 1_555
C3 H1 1_555 1_555
C4 C1 1_555 1_555
H2 C4 1_555 1_555
C5 C1 1_555 1_555
C6 C5 1_555 1_555
H3 C6 1_555 1_555
C7 N1 1_555 1_555
H4 C7 1_555 1_555
C8 N1 1_555 1_555
H5 C8 1_555 1_555
C9 C5 1_555 1_555
H6 C9 1_555 1_555
C10 C2 1_555 1_555
C11 C10 1_555 1_555
H7 C11 1_555 1_555
C12 C11 1_555 1_555
H8 C12 1_555 1_555
C13 N2 1_555 1_555
H9 C13 1_555 1_555
C14 C10 1_555 1_555
H10 C14 1_555 1_555
O1 O1A 1_555 1_555
Cd1_2 N2 1_555 1_555
Cd1_3 N1A 1_555 1_555
Cd1_4 N2A 1_555 1_555
Cl1A Cd1 1_555 1_555
N1A C7A 1_555 1_555
N1A_2 Cd1 1_555 1_555
N2A C12A 1_555 1_555
N2_2 Cd1 1_555 1_555
N2A_2 Cd1 1_555 1_555
C1A C4 1_555 1_555
C2A C3 1_555 1_555
C5A C1A 1_555 1_555
C6A C5A 1_555 1_555
H3A C6A 1_555 1_555
C7A C6A 1_555 1_555
H4A C7A 1_555 1_555
C8A N1A 1_555 1_555
H5A C8A 1_555 1_555
C9A C5A 1_555 1_555
H6A C9A 1_555 1_555
C10A C2A 1_555 1_555
C11A C10A 1_555 1_555
H7A C11A 1_555 1_555
C12A C11A 1_555 1_555
H8A C12A 1_555 1_555
C13A N2A 1_555 1_555
H9A C13A 1_555 1_555
C14A C10A 1_555 1_555
H10A C14A 1_555 1_555
C6 C7 1_555 1_555
C8 C9 1_555 1_555
C13 C14 1_555 1_555
C1A C2A 1_555 1_555
C8A C9A 1_555 1_555
C13A C14A 1_555 1_555

#END
