
#######################################################################
#
#                 Cambridge Crystallographic Data Centre
#                                CCDC 
#
#######################################################################
#
# If this CIF has been generated from an entry in the Cambridge 
# Structural Database, then it will include bibliographic, chemical, 
# crystal, experimental, refinement or atomic coordinate data resulting 
# from the CCDC's data processing and validation procedures.
#
#######################################################################

data_CURZIZ
_symmetry_cell_setting           monoclinic
_symmetry_space_group_name_H-M   'C 2/c'
_symmetry_Int_Tables_number      15
_space_group_name_Hall           '-C 2yn'
loop_
_symmetry_equiv_pos_site_id
_symmetry_equiv_pos_as_xyz
1 x,y,z
2 -x,y,1/2-z
3 1/2+x,1/2+y,z
4 1/2-x,1/2+y,1/2-z
5 -x,-y,-z
6 x,-y,1/2+z
7 1/2-x,1/2-y,-z
8 1/2+x,1/2-y,1/2+z
_cell_length_a                   18.617(4)
_cell_length_b                   4.2375(8)
_cell_length_c                   14.979(3)
_cell_angle_alpha                90
_cell_angle_beta                 93.800(2)
_cell_angle_gamma                90
_cell_volume                     1179.09
loop_
_atom_site_label
_atom_site_type_symbol
_atom_site_fract_x
_atom_site_fract_y
_atom_site_fract_z
C1 C 0.1737(3) 0.0508(12) 0.0603(4)
H1 H 0.1881 0.1198 0.0054
C2 C 0.2139(3) -0.1111(14) 0.1232(4)
H2 H 0.2614 -0.1769 0.1206
C3 C 0.1692(3) -0.1584(14) 0.1929(3)
H3 H 0.1827 -0.2632 0.2459
Cd1 Cd 0.0000 -0.04600(11) 0.2500
I1 I 0.061228(16) 0.46162(7) 0.375105(19)
N1 N 0.1050(2) -0.0345(8) 0.1734(3)
N2 N 0.1095(2) 0.0923(10) 0.0923(3)
H4 H 0.0745 0.1901 0.0638
C1A C -0.1737(3) 0.0508(12) 0.4397(4)
H1A H -0.1881 0.1198 0.4946
C2A C -0.2139(3) -0.1111(14) 0.3768(4)
H2A H -0.2614 -0.1769 0.3794
C3A C -0.1692(3) -0.1584(14) 0.3071(3)
H3A H -0.1827 -0.2632 0.2541
Cd1_2 Cd 0.0000 0.95400(11) 0.2500
I1A I -0.061228(16) 0.46162(7) 0.124895(19)
I1_2 I 0.061228(16) -0.53838(7) 0.375105(19)
I1A_2 I -0.061228(16) -0.53838(7) 0.124895(19)
N1A N -0.1050(2) -0.0345(8) 0.3266(3)
N2A N -0.1095(2) 0.0923(10) 0.4077(3)
H4A H -0.0745 0.1901 0.4362
loop_
_geom_bond_atom_site_label_1
_geom_bond_atom_site_label_2
_geom_bond_site_symmetry_1
_geom_bond_site_symmetry_2
C1 H1 1_555 1_555
C2 C1 1_555 1_555
H2 C2 1_555 1_555
C3 C2 1_555 1_555
H3 C3 1_555 1_555
Cd1 I1 1_555 1_555
I1 Cd1_2 1_555 1_555
N1 C3 1_555 1_555
N2 C1 1_555 1_555
H4 N2 1_555 1_555
C1A H1A 1_555 1_555
C2A C1A 1_555 1_555
H2A C2A 1_555 1_555
C3A C2A 1_555 1_555
H3A C3A 1_555 1_555
Cd1_2 I1A 1_555 1_555
I1A Cd1 1_555 1_555
I1_2 Cd1 1_555 1_555
I1A_2 Cd1 1_555 1_555
N1A Cd1 1_555 1_555
N2A C1A 1_555 1_555
H4A N2A 1_555 1_555
Cd1 N1 1_555 1_555
N1 N2 1_555 1_555
C3A N1A 1_555 1_555
N1A N2A 1_555 1_555

#END
