
#######################################################################
#
#                 Cambridge Crystallographic Data Centre
#                                CCDC 
#
#######################################################################
#
# If this CIF has been generated from an entry in the Cambridge 
# Structural Database, then it will include bibliographic, chemical, 
# crystal, experimental, refinement or atomic coordinate data resulting 
# from the CCDC's data processing and validation procedures.
#
#######################################################################

data_CUSBUO
_symmetry_cell_setting           orthorhombic
_symmetry_space_group_name_H-M   'P b c a'
_symmetry_Int_Tables_number      61
_space_group_name_Hall           '-P 2ac 2ab'
loop_
_symmetry_equiv_pos_site_id
_symmetry_equiv_pos_as_xyz
1 x,y,z
2 1/2-x,-y,1/2+z
3 -x,1/2+y,1/2-z
4 1/2+x,1/2-y,-z
5 -x,-y,-z
6 1/2+x,y,1/2-z
7 x,1/2-y,1/2+z
8 1/2-x,1/2+y,z
_cell_length_a                   7.9678(7)
_cell_length_b                   18.850(2)
_cell_length_c                   19.575(2)
_cell_angle_alpha                90
_cell_angle_beta                 90
_cell_angle_gamma                90
_cell_volume                     2940.03
loop_
_atom_site_label
_atom_site_type_symbol
_atom_site_fract_x
_atom_site_fract_y
_atom_site_fract_z
Na1 Na 0.7062(2) 0.29117(9) 0.01523(9)
Na2 Na 0.7197(2) 0.39317(9) 0.24456(9)
Na3 Na 1.3084(2) 0.02961(8) 0.04032(9)
S1 S 0.98245(12) 0.29654(5) 0.13360(5)
S2 S 1.02462(13) 0.01159(5) 0.18425(5)
S3 S 0.98555(12) 0.19371(5) 0.39775(5)
C1 C 0.9791(5) 0.23859(18) 0.26251(19)
C2 C 0.9895(5) 0.22460(18) 0.19212(18)
C3 C 1.0020(5) 0.15566(19) 0.16860(19)
H1 H 1.0072 0.1467 0.1219
C4 C 1.0069(5) 0.09977(18) 0.21470(19)
C5 C 0.9964(5) 0.11218(19) 0.28407(19)
H2 H 0.9979 0.0744 0.3146
C6 C 0.9836(5) 0.18143(18) 0.30802(18)
O1 O 0.9655(4) 0.30700(14) 0.28360(16)
H3 H 0.957(9) 0.307(4) 0.332(4)
O2 O 1.1207(4) 0.34383(15) 0.15133(14)
O3 O 0.9995(4) 0.26587(14) 0.06617(13)
O4 O 0.8201(4) 0.33072(15) 0.14312(15)
O5 O 0.8722(5) -0.00447(19) 0.1479(2)
O6 O 1.0380(5) -0.03341(15) 0.24374(17)
O7 O 1.1731(5) 0.00866(17) 0.14345(19)
O8 O 0.8624(4) 0.14635(15) 0.42627(14)
O9 O 0.9422(4) 0.26756(14) 0.40991(14)
O10 O 1.1553(4) 0.17840(17) 0.41948(15)
O11 O 1.5681(5) -0.0167(2) 0.0799(2)
H4 H 1.664(14) 0.004(5) 0.091(5)
H5 H 1.543(9) -0.040(4) 0.099(4)
O12 O 0.6013(5) 0.4103(2) 0.0235(2)
H6 H 0.498(8) 0.408(3) 0.014(3)
H7 H 0.618(9) 0.426(4) 0.060(4)
O13 O 1.2447(5) -0.09216(17) 0.02399(19)
H8 H 1.282(10) -0.118(4) -0.016(4)
H9 H 1.261(11) -0.122(5) 0.054(4)
Na1C Na 1.2062(2) 0.20883(9) -0.01523(9)
Na1F Na 0.7062(2) 0.20883(9) 0.51523(9)
Na1E Na 1.2062(2) 0.29117(9) 0.48477(9)
Na2E Na 1.2197(2) 0.39317(9) 0.25544(9)
Na2G Na 0.7803(2) -0.10683(9) 0.24456(9)
Na2B Na 1.2803(2) -0.10683(9) 0.25544(9)
Na3E Na 0.8084(2) 0.02961(8) 0.45968(9)
Na3D Na 1.6916(2) -0.02961(8) -0.04032(9)
Na3C Na 0.8084(2) 0.47039(8) -0.04032(9)
O1E O 0.4655(4) 0.30700(14) 0.21640(16)
H3E H 0.457(9) 0.307(4) 0.168(4)
O2E O 0.6207(4) 0.34383(15) 0.34867(14)
O3C O 0.4995(4) 0.23413(14) -0.06617(13)
O5G O 0.6278(5) 0.49553(19) 0.1479(2)
O6B O 0.9620(5) 0.46659(15) 0.25626(17)
O6G O 0.4620(5) 0.46659(15) 0.24374(17)
O8F O 0.8624(4) 0.35365(15) -0.07373(14)
O8E O 1.3624(4) 0.14635(15) 0.07373(14)
O9E O 0.4422(4) 0.26756(14) 0.09009(14)
O9F O 0.9422(4) 0.23244(14) -0.09009(14)
O10E O 0.6553(4) 0.17840(17) 0.08052(15)
O11D O 1.4319(5) 0.0167(2) -0.0799(2)
H4D H 1.336(14) -0.004(5) -0.091(5)
H5D H 1.457(9) 0.040(4) -0.099(4)
O12C O 1.1013(5) 0.0897(2) -0.0235(2)
H6C H 0.998(8) 0.092(3) -0.014(3)
H7C H 1.118(9) 0.074(4) -0.060(4)
loop_
_geom_bond_atom_site_label_1
_geom_bond_atom_site_label_2
_geom_bond_site_symmetry_1
_geom_bond_site_symmetry_2
Na1 O3 1_555 1_555
Na2 O1 1_555 1_555
Na3 O7 1_555 1_555
S1 C2 1_555 1_555
S2 C4 1_555 1_555
S3 C6 1_555 1_555
C1 C2 1_555 1_555
C2 C3 1_555 1_555
C3 H1 1_555 1_555
C4 C3 1_555 1_555
C5 C4 1_555 1_555
H2 C5 1_555 1_555
C6 C1 1_555 1_555
O1 C1 1_555 1_555
H3 O1 1_555 1_555
O2 S1 1_555 1_555
O3 S1 1_555 1_555
O4 Na1 1_555 1_555
O5 S2 1_555 1_555
O6 S2 1_555 1_555
O7 S2 1_555 1_555
O8 S3 1_555 1_555
O9 S3 1_555 1_555
O10 S3 1_555 1_555
O11 Na3 1_555 1_555
H4 O11 1_555 1_555
H5 O11 1_555 1_555
O12 Na1 1_555 1_555
H6 O12 1_555 1_555
H7 O12 1_555 1_555
O13 Na3 1_555 1_555
H8 O13 1_555 1_555
H9 O13 1_555 1_555
Na1C O3 1_555 1_555
Na1F O8 1_555 1_555
Na1E O9 1_555 1_555
Na2E O1 1_555 1_555
Na2G O5 1_555 1_555
Na2B O6 1_555 1_555
Na3E O8 1_555 1_555
Na3D O11 1_555 1_555
Na3C O12 1_555 1_555
O1E Na2 1_555 1_555
H3E O1E 1_555 1_555
O2E Na2 1_555 1_555
O3C Na1 1_555 1_555
O5G Na2 1_555 1_555
O6B Na2 1_555 1_555
O6G Na2 1_555 1_555
O8F Na1 1_555 1_555
O8E Na3 1_555 1_555
O9E Na1 1_555 1_555
O9F Na1 1_555 1_555
O10E Na1 1_555 1_555
O11D Na3 1_555 1_555
H4D O11D 1_555 1_555
H5D O11D 1_555 1_555
O12C Na3 1_555 1_555
H6C O12C 1_555 1_555
H7C O12C 1_555 1_555
Na2 O4 1_555 1_555
S1 O4 1_555 1_555
C5 C6 1_555 1_555
O2 Na2E 1_555 1_555
O6 Na2G 1_555 1_555
O9 Na1F 1_555 1_555
O10 Na1E 1_555 1_555
Na1C O8E 1_555 1_555
Na1C O9F 1_555 1_555
Na1C O12C 1_555 1_555
Na2E O6B 1_555 1_555
Na3D O11D 1_555 1_555
Na3C O8F 1_555 1_555

#END
