
#######################################################################
#
#                 Cambridge Crystallographic Data Centre
#                                CCDC 
#
#######################################################################
#
# If this CIF has been generated from an entry in the Cambridge 
# Structural Database, then it will include bibliographic, chemical, 
# crystal, experimental, refinement or atomic coordinate data resulting 
# from the CCDC's data processing and validation procedures.
#
#######################################################################

data_CUSDIE
_symmetry_cell_setting           cubic
_symmetry_space_group_name_H-M   'I -4 3 m'
_symmetry_Int_Tables_number      217
_space_group_name_Hall           'I -4 2 3'
loop_
_symmetry_equiv_pos_site_id
_symmetry_equiv_pos_as_xyz
1 x,y,z
2 y,-x,-z
3 -x,-y,z
4 -y,x,-z
5 x,-y,-z
6 -y,-x,z
7 -x,y,-z
8 y,x,z
9 z,x,y
10 x,-z,-y
11 -z,-x,y
12 -x,z,-y
13 z,-x,-y
14 -x,-z,y
15 -z,x,-y
16 x,z,y
17 y,z,x
18 z,y,x
19 z,-y,-x
20 -z,-y,x
21 -z,y,-x
22 y,-z,-x
23 -y,-z,x
24 -y,z,-x
25 1/2+x,1/2+y,1/2+z
26 1/2+y,1/2-x,1/2-z
27 1/2-x,1/2-y,1/2+z
28 1/2-y,1/2+x,1/2-z
29 1/2+x,1/2-y,1/2-z
30 1/2-y,1/2-x,1/2+z
31 1/2-x,1/2+y,1/2-z
32 1/2+y,1/2+x,1/2+z
33 1/2+z,1/2+x,1/2+y
34 1/2+x,1/2-z,1/2-y
35 1/2-z,1/2-x,1/2+y
36 1/2-x,1/2+z,1/2-y
37 1/2+z,1/2-x,1/2-y
38 1/2-x,1/2-z,1/2+y
39 1/2-z,1/2+x,1/2-y
40 1/2+x,1/2+z,1/2+y
41 1/2+y,1/2+z,1/2+x
42 1/2+z,1/2+y,1/2+x
43 1/2+z,1/2-y,1/2-x
44 1/2-z,1/2-y,1/2+x
45 1/2-z,1/2+y,1/2-x
46 1/2+y,1/2-z,1/2-x
47 1/2-y,1/2-z,1/2+x
48 1/2-y,1/2+z,1/2-x
_cell_length_a                   21.037(6)
_cell_length_b                   21.037(6)
_cell_length_c                   21.037(6)
_cell_angle_alpha                90
_cell_angle_beta                 90
_cell_angle_gamma                90
_cell_volume                     9310.04
loop_
_atom_site_label
_atom_site_type_symbol
_atom_site_fract_x
_atom_site_fract_y
_atom_site_fract_z
Cu1 Cu 0.70123(6) -0.18553(6) 0.18553(6)
O1 O 0.7791(9) -0.2209(9) 0.2209(9)
N1 N 0.3778(3) -0.2003(3) 0.2463(3)
C1 C 0.4237(4) -0.1614(4) 0.2314(5)
H1 H 0.4349 -0.1248 0.2554
N2 N 0.4521(4) -0.1791(3) 0.1791(3)
C2 C 0.5099(5) -0.1502(4) 0.1502(4)
H2 H 0.5093 -0.1037 0.1575
C3 C 0.5704(5) -0.1776(4) 0.1776(4)
O2 O 0.5699(5) -0.2175(4) 0.2175(4)
O3 O 0.6211(4) -0.1530(3) 0.1530(3)
O4 O 0.7639(6) -0.1207(6) 0.1207(6)
Cu1T Cu 0.81447(6) -0.18553(6) 0.29877(6)
Cu1G Cu 0.81447(6) -0.29877(6) 0.18553(6)
Cu1Y Cu 0.31447(6) -0.20123(6) 0.31447(6)
Cu1NA Cu 0.31447(6) -0.31447(6) 0.20123(6)
Cu1CA Cu 0.68553(6) -0.20123(6) 0.68553(6)
Cu1Z Cu 0.79877(6) -0.31447(6) 0.68553(6)
Cu1OA Cu 0.68553(6) -0.68553(6) 0.20123(6)
Cu1DA Cu 0.79877(6) -0.68553(6) 0.31447(6)
N1FA N 0.7463(3) -0.1222(3) 0.2997(3)
N1UA N 0.7003(3) -0.2537(3) 0.1222(3)
N1PA N 0.7463(3) -0.2997(3) 0.1222(3)
N1AA N 0.7003(3) -0.1222(3) 0.2537(3)
N1I N 0.3778(3) -0.2463(3) 0.2003(3)
N1MA N 0.8778(3) -0.2537(3) 0.2997(3)
N1BA N 0.8778(3) -0.2997(3) 0.2537(3)
N1T N 0.7537(3) -0.2003(3) 0.6222(3)
N1U N 0.7997(3) -0.2463(3) 0.6222(3)
N1N N 0.7537(3) -0.6222(3) 0.2003(3)
N1G N 0.7997(3) -0.6222(3) 0.2463(3)
C1I C 0.4237(4) -0.2314(5) 0.1614(4)
C1T C 0.7686(5) -0.1614(4) 0.5763(4)
C1U C 0.8386(4) -0.2314(5) 0.5763(4)
C1N C 0.7686(5) -0.5763(4) 0.1614(4)
C1G C 0.8386(4) -0.5763(4) 0.2314(5)
H1I H 0.4349 -0.2554 0.1248
H1T H 0.7446 -0.1248 0.5651
H1U H 0.8752 -0.2554 0.5651
H1N H 0.7446 -0.5651 0.1248
H1G H 0.8752 -0.5651 0.2554
N2T N 0.8209(3) -0.1791(3) 0.5479(4)
N2G N 0.8209(3) -0.5479(4) 0.1791(3)
C2T C 0.8498(4) -0.1502(4) 0.4901(5)
C2G C 0.8498(4) -0.4901(5) 0.1502(4)
H2I H 0.5093 -0.1575 0.1037
H2T H 0.8425 -0.1037 0.4907
H2U H 0.8963 -0.1575 0.4907
H2N H 0.8425 -0.4907 0.1037
H2G H 0.8963 -0.4907 0.1575
C3T C 0.8224(4) -0.1776(4) 0.4296(5)
C3G C 0.8224(4) -0.4296(5) 0.1776(4)
O2T O 0.7825(4) -0.2175(4) 0.4301(5)
O2G O 0.7825(4) -0.4301(5) 0.2175(4)
O3T O 0.8470(3) -0.1530(3) 0.3789(4)
O3G O 0.8470(3) -0.3789(4) 0.1530(3)
O4T O 0.8793(6) -0.1207(6) 0.2361(6)
O4G O 0.8793(6) -0.2361(6) 0.1207(6)
B1 B 0.5000 0.0000 0.2500
F1 F 0.5103(3) -0.0498(4) 0.2855(4)
F1B F 0.4897(3) 0.0498(4) 0.2855(4)
F1Y F 0.4502(4) -0.0103(3) 0.2145(4)
F1AA F 0.5498(4) 0.0103(3) 0.2145(4)
O5 O -0.998(2) -1.7973(12) -0.2027(12)
loop_
_geom_bond_atom_site_label_1
_geom_bond_atom_site_label_2
_geom_bond_site_symmetry_1
_geom_bond_site_symmetry_2
Cu1 O1 1_555 1_555
O1 Cu1T 1_555 1_555
N1 C1 1_555 1_555
C1 H1 1_555 1_555
N2 C1 1_555 1_555
C2 N2 1_555 1_555
H2 C2 1_555 1_555
C3 C2 1_555 1_555
O2 C3 1_555 1_555
O3 Cu1 1_555 1_555
O4 Cu1 1_555 1_555
B1 F1 1_555 1_555
Cu1T N1FA 1_555 1_555
Cu1G O1 1_555 1_555
Cu1Y N1 1_555 1_555
Cu1NA N1I 1_555 1_555
Cu1CA N1T 1_555 1_555
Cu1Z N1U 1_555 1_555
Cu1OA N1N 1_555 1_555
Cu1DA N1G 1_555 1_555
N1FA N1AA 1_555 1_555
N1UA Cu1 1_555 1_555
N1PA Cu1G 1_555 1_555
N1AA Cu1 1_555 1_555
N1I N1 1_555 1_555
N1MA Cu1T 1_555 1_555
N1BA Cu1G 1_555 1_555
N1T N1U 1_555 1_555
N1U C1U 1_555 1_555
N1N N1G 1_555 1_555
N1G C1G 1_555 1_555
C1I N2 1_555 1_555
C1T N1T 1_555 1_555
C1U H1U 1_555 1_555
C1N N1N 1_555 1_555
C1G H1G 1_555 1_555
H1I C1I 1_555 1_555
H1T C1T 1_555 1_555
H1N C1N 1_555 1_555
N2T C1T 1_555 1_555
N2G C1N 1_555 1_555
C2T N2T 1_555 1_555
C2G N2G 1_555 1_555
H2I C2 1_555 1_555
H2T C2T 1_555 1_555
H2U C2T 1_555 1_555
H2N C2G 1_555 1_555
H2G C2G 1_555 1_555
C3T C2T 1_555 1_555
C3G C2G 1_555 1_555
O2T C3T 1_555 1_555
O2G C3G 1_555 1_555
O3T Cu1T 1_555 1_555
O3G Cu1G 1_555 1_555
O4T Cu1T 1_555 1_555
O4G Cu1G 1_555 1_555
F1B B1 1_555 1_555
F1Y B1 1_555 1_555
F1AA B1 1_555 1_555
C3 O3 1_555 1_555
N1UA N1PA 1_555 1_555
N1I C1I 1_555 1_555
N1MA N1BA 1_555 1_555
C1U N2T 1_555 1_555
C1G N2G 1_555 1_555
C3T O3T 1_555 1_555
C3G O3G 1_555 1_555

#END
