
#######################################################################
#
#                 Cambridge Crystallographic Data Centre
#                                CCDC 
#
#######################################################################
#
# If this CIF has been generated from an entry in the Cambridge 
# Structural Database, then it will include bibliographic, chemical, 
# crystal, experimental, refinement or atomic coordinate data resulting 
# from the CCDC's data processing and validation procedures.
#
#######################################################################

data_CUSLUY
_symmetry_cell_setting           orthorhombic
_symmetry_space_group_name_H-M   'A m a 2'
_symmetry_Int_Tables_number      40
_space_group_name_Hall           'A 2 -2a'
loop_
_symmetry_equiv_pos_site_id
_symmetry_equiv_pos_as_xyz
1 x,y,z
2 -x,-y,z
3 1/2+x,-y,z
4 1/2-x,y,z
5 x,1/2+y,1/2+z
6 -x,1/2-y,1/2+z
7 1/2+x,1/2-y,1/2+z
8 1/2-x,1/2+y,1/2+z
_cell_length_a                   9.7119(2)
_cell_length_b                   12.2714(3)
_cell_length_c                   6.2836(2)
_cell_angle_alpha                90
_cell_angle_beta                 90
_cell_angle_gamma                90
_cell_volume                     748.871
loop_
_atom_site_label
_atom_site_type_symbol
_atom_site_fract_x
_atom_site_fract_y
_atom_site_fract_z
Cu1 Cu 0.7500 0.96028(2) 0.35030(7)
O1 O 0.7500 0.87749(16) -0.2796(3)
N1 N 0.94091(16) 0.99411(12) 0.3646(4)
C1 C 1.05909(16) 1.00589(12) 0.3646(4)
N2 N 0.7500 0.80580(17) 0.1562(4)
C2 C 0.87354(19) 0.79835(14) 0.0194(3)
H1 H 0.8767 0.7259 -0.0496
H2 H 0.9574 0.8066 0.1075
C3 C 0.87019(15) 0.88712(12) -0.1506(5)
H3 H 0.8713 0.9596 -0.0814
H4 H 0.9532 0.8812 -0.2413
C4 C 0.7500 0.7149(2) 0.3086(4)
H5 H 0.7500 0.6457 0.2308
H6 H 0.6676 0.7192 0.3982
Cu1A Cu 1.2500 1.03972(2) 0.35030(7)
Cu1A_2 Cu 0.2500 1.03972(2) 0.35030(7)
N1C N 0.55909(16) 0.99411(12) 0.3646(4)
C1C C 0.44091(16) 1.00589(12) 0.3646(4)
C2C C 0.62646(19) 0.79835(14) 0.0194(3)
H1C H 0.6233 0.7259 -0.0496
H2C H 0.5426 0.8066 0.1075
C3C C 0.62981(15) 0.88712(12) -0.1506(5)
H3C H 0.6287 0.9596 -0.0814
H4C H 0.5468 0.8812 -0.2413
H6C H 0.8324 0.7192 0.3982
loop_
_geom_bond_atom_site_label_1
_geom_bond_atom_site_label_2
_geom_bond_site_symmetry_1
_geom_bond_site_symmetry_2
Cu1 N1 1_555 1_555
O1 C3 1_555 1_555
N1 C1 1_555 1_555
C1 Cu1A 1_555 1_555
N2 Cu1 1_555 1_555
C2 N2 1_555 1_555
H1 C2 1_555 1_555
H2 C2 1_555 1_555
C3 C2 1_555 1_555
H3 C3 1_555 1_555
H4 C3 1_555 1_555
C4 N2 1_555 1_555
H5 C4 1_555 1_555
H6 C4 1_555 1_555
Cu1A_2 C1C 1_555 1_555
N1C Cu1 1_555 1_555
C1C N1C 1_555 1_555
C2C N2 1_555 1_555
H1C C2C 1_555 1_555
H2C C2C 1_555 1_555
C3C O1 1_555 1_555
H3C C3C 1_555 1_555
H4C C3C 1_555 1_555
H6C C4 1_555 1_555
C2C C3C 1_555 1_555

#END
