
#######################################################################
#
#                 Cambridge Crystallographic Data Centre
#                                CCDC 
#
#######################################################################
#
# If this CIF has been generated from an entry in the Cambridge 
# Structural Database, then it will include bibliographic, chemical, 
# crystal, experimental, refinement or atomic coordinate data resulting 
# from the CCDC's data processing and validation procedures.
#
#######################################################################

data_CUSQOX
_symmetry_cell_setting           monoclinic
_symmetry_space_group_name_H-M   'C 2/c'
_symmetry_Int_Tables_number      15
_space_group_name_Hall           '-C 2yn'
loop_
_symmetry_equiv_pos_site_id
_symmetry_equiv_pos_as_xyz
1 x,y,z
2 -x,y,1/2-z
3 1/2+x,1/2+y,z
4 1/2-x,1/2+y,1/2-z
5 -x,-y,-z
6 x,-y,1/2+z
7 1/2-x,1/2-y,-z
8 1/2+x,1/2-y,1/2+z
_cell_length_a                   21.0433(10)
_cell_length_b                   9.0757(4)
_cell_length_c                   17.1751(8)
_cell_angle_alpha                90
_cell_angle_beta                 116.0370(10)
_cell_angle_gamma                90
_cell_volume                     2947.25
loop_
_atom_site_label
_atom_site_type_symbol
_atom_site_fract_x
_atom_site_fract_y
_atom_site_fract_z
Cd1 Cd 0.0000 1.0000 0.0000
Cl1 Cl -0.06629(5) 0.81176(10) 0.04598(6)
C1 C 0.19484(19) 0.6010(4) 0.0675(2)
C2 C 0.25014(18) 0.3717(4) 0.0497(2)
N1 N 0.08524(17) 0.8074(3) 0.0090(3)
C3 C 0.22576(18) 0.3849(4) -0.0392(2)
H1 H 0.2091 0.4752 -0.0659
N2 N 0.2516(2) 0.4981(3) 0.1002(3)
C4 C 0.2993(2) 0.5988(5) 0.2469(3)
H2 H 0.2560 0.6419 0.2355
C5 C 0.3754(2) 0.4658(5) 0.2028(3)
H3 H 0.3852 0.4189 0.1611
C6 C 0.3081(2) 0.5207(4) 0.1817(3)
C7 C 0.20831(19) 0.7504(4) 0.0693(3)
H4 H 0.2546 0.7846 0.0909
C8 C 0.1527(2) 0.8482(4) 0.0391(3)
H5 H 0.1628 0.9480 0.0396
C9 C 0.27400(18) 0.2362(4) 0.0886(2)
H6 H 0.2900 0.2261 0.1481
C10 C 0.1250(2) 0.5561(4) 0.0326(3)
H7 H 0.1132 0.4566 0.0272
C11 C 0.0729(2) 0.6640(5) 0.0058(4)
H8 H 0.0261 0.6334 -0.0158
N3 N 0.41868(17) 0.5503(4) 0.3497(2)
C12 C 0.4275(2) 0.4820(4) 0.2864(3)
H9 H 0.4718 0.4425 0.2996
C13 C 0.3553(2) 0.6109(5) 0.3278(3)
H10 H 0.3486 0.6646 0.3698
Cd1C Cd 0.5000 0.5000 0.5000
Cd1B Cd 0.5000 -0.5000 0.0000
Cd1A Cd 0.0000 0.0000 -0.5000
Cl1D Cl 0.06629(5) 1.18824(10) -0.04598(6)
C1F C 0.30516(19) -0.1010(4) -0.0675(2)
C2F C 0.24986(18) 0.1283(4) -0.0497(2)
N1F N 0.41476(17) -0.3074(3) -0.0090(3)
N1D N -0.08524(17) 1.1926(3) -0.0090(3)
C3F C 0.27424(18) 0.1151(4) 0.0392(2)
H1F H 0.2909 0.0248 0.0659
N2F N 0.2484(2) 0.0019(3) -0.1002(3)
C4F C 0.2007(2) -0.0988(5) -0.2469(3)
H2F H 0.2440 -0.1419 -0.2355
C5F C 0.1246(2) 0.0342(5) -0.2028(3)
H3F H 0.1148 0.0811 -0.1611
C6F C 0.1919(2) -0.0207(4) -0.1817(3)
C7F C 0.29169(19) -0.2504(4) -0.0693(3)
H4F H 0.2454 -0.2846 -0.0909
C8F C 0.3473(2) -0.3482(4) -0.0391(3)
H5F H 0.3372 -0.4480 -0.0396
C9F C 0.22600(18) 0.2638(4) -0.0886(2)
H6F H 0.2100 0.2739 -0.1481
C10F C 0.3750(2) -0.0561(4) -0.0326(3)
H7F H 0.3868 0.0434 -0.0272
C11F C 0.4271(2) -0.1640(5) -0.0058(4)
H8F H 0.4739 -0.1334 0.0158
N3F N 0.08132(17) -0.0503(4) -0.3497(2)
N3C N 0.08132(17) 1.0503(4) 0.1503(2)
N3G N -0.08132(17) 0.9497(4) -0.1503(2)
C12F C 0.0725(2) 0.0180(4) -0.2864(3)
H9F H 0.0282 0.0575 -0.2996
C13F C 0.1447(2) -0.1109(5) -0.3278(3)
H10F H 0.1514 -0.1646 -0.3698
O1 O 0.0000 0.542(3) 0.7500
H11 H 0.0041 0.5823 0.7079
H11A H -0.0041 0.5823 0.7921
H12? H 0.0349 0.4838 0.7752
loop_
_geom_bond_atom_site_label_1
_geom_bond_atom_site_label_2
_geom_bond_site_symmetry_1
_geom_bond_site_symmetry_2
Cd1 Cl1 1_555 1_555
C1 N2 1_555 1_555
C2 C3 1_555 1_555
N1 Cd1 1_555 1_555
C3 H1 1_555 1_555
N2 C2 1_555 1_555
C4 H2 1_555 1_555
C5 H3 1_555 1_555
C6 N2 1_555 1_555
C7 C1 1_555 1_555
H4 C7 1_555 1_555
C8 N1 1_555 1_555
H5 C8 1_555 1_555
C9 C2 1_555 1_555
H6 C9 1_555 1_555
C10 C1 1_555 1_555
H7 C10 1_555 1_555
C11 N1 1_555 1_555
H8 C11 1_555 1_555
N3 C12 1_555 1_555
C12 C5 1_555 1_555
H9 C12 1_555 1_555
C13 C4 1_555 1_555
H10 C13 1_555 1_555
O1 H11 1_555 1_555
Cd1C N3 1_555 1_555
Cd1B N1F 1_555 1_555
Cd1A N3F 1_555 1_555
Cl1D Cd1 1_555 1_555
C1F N2F 1_555 1_555
C2F C3F 1_555 1_555
N1F C8F 1_555 1_555
N1D Cd1 1_555 1_555
C3F C9 1_555 1_555
H1F C3F 1_555 1_555
N2F C2F 1_555 1_555
C4F H2F 1_555 1_555
C5F H3F 1_555 1_555
C6F N2F 1_555 1_555
C7F C1F 1_555 1_555
H4F C7F 1_555 1_555
C8F C7F 1_555 1_555
H5F C8F 1_555 1_555
C9F C3 1_555 1_555
H6F C9F 1_555 1_555
C10F C1F 1_555 1_555
H7F C10F 1_555 1_555
C11F N1F 1_555 1_555
H8F C11F 1_555 1_555
N3F C12F 1_555 1_555
N3C Cd1 1_555 1_555
N3G Cd1 1_555 1_555
C12F C5F 1_555 1_555
H9F C12F 1_555 1_555
C13F C4F 1_555 1_555
H10F C13F 1_555 1_555
H11A O1 1_555 1_555
C4 C6 1_555 1_555
C5 C6 1_555 1_555
C7 C8 1_555 1_555
C10 C11 1_555 1_555
N3 C13 1_555 1_555
C2F C9F 1_555 1_555
C4F C6F 1_555 1_555
C5F C6F 1_555 1_555
C10F C11F 1_555 1_555
N3F C13F 1_555 1_555

#END
