
#######################################################################
#
#                 Cambridge Crystallographic Data Centre
#                                CCDC 
#
#######################################################################
#
# If this CIF has been generated from an entry in the Cambridge 
# Structural Database, then it will include bibliographic, chemical, 
# crystal, experimental, refinement or atomic coordinate data resulting 
# from the CCDC's data processing and validation procedures.
#
#######################################################################

data_CUSRIS
_symmetry_cell_setting           triclinic
_symmetry_space_group_name_H-M   'P -1'
_symmetry_Int_Tables_number      2
_space_group_name_Hall           '-P 1'
loop_
_symmetry_equiv_pos_site_id
_symmetry_equiv_pos_as_xyz
1 x,y,z
2 -x,-y,-z
_cell_length_a                   9.3576(2)
_cell_length_b                   12.1165(2)
_cell_length_c                   13.7787(2)
_cell_angle_alpha                112.2070(10)
_cell_angle_beta                 105.3950(10)
_cell_angle_gamma                108.3550(10)
_cell_volume                     1234.39
loop_
_atom_site_label
_atom_site_type_symbol
_atom_site_fract_x
_atom_site_fract_y
_atom_site_fract_z
Cd1 Cd 0.41205(2) 1.039681(19) 0.772182(18)
Br1 Br 0.26932(4) 1.05405(3) 0.59620(3)
Br2 Br 0.24592(4) 0.91507(3) 0.85218(3)
N1 N 0.5558(3) 0.9256(2) 0.7313(2)
N2 N 0.7590(3) 0.6592(2) 0.6421(2)
N3 N 0.9055(4) 0.5667(3) 0.3691(2)
N4 N 0.5584(3) 0.2526(2) 0.9278(2)
N5 N 0.7209(3) 0.3263(2) 0.8402(2)
N6 N 0.8687(3) 0.2424(2) 0.9304(2)
C1 C 0.6159(4) 0.8845(3) 0.8037(2)
H1 H 0.6098 0.9162 0.8762
C2 C 0.6856(3) 0.7993(3) 0.7784(2)
H2 H 0.7259 0.7733 0.8325
C3 C 0.6968(3) 0.7507(3) 0.6716(2)
C4 C 0.6384(3) 0.7966(3) 0.5979(2)
H3 H 0.6464 0.7694 0.5260
C5 C 0.5694(4) 0.8815(3) 0.6303(2)
H4 H 0.5292 0.9105 0.5786
C6 C 0.8119(3) 0.6305(3) 0.5523(2)
C7 C 0.7759(3) 0.4981(3) 0.4797(2)
H5 H 0.7188 0.4273 0.4911
C8 C 0.8257(4) 0.4729(3) 0.3908(3)
H6 H 0.8013 0.3828 0.3420
C9 C 0.9414(4) 0.6928(3) 0.4414(3)
H7 H 0.9995 0.7616 0.4284
C10 C 0.8999(4) 0.7301(3) 0.5341(3)
H8 H 0.9310 0.8218 0.5837
C11 C 0.7512(3) 0.5765(3) 0.6950(2)
C12 C 0.8964(3) 0.5767(3) 0.7547(2)
H9 H 1.0011 0.6337 0.7633
C13 C 0.8878(3) 0.4931(3) 0.8020(2)
H10 H 0.9867 0.4928 0.8430
C14 C 0.7344(3) 0.4101(3) 0.7892(2)
C15 C 0.5883(3) 0.4097(3) 0.7288(2)
H11 H 0.4835 0.3527 0.7200
C16 C 0.5973(3) 0.4932(3) 0.6815(2)
H12 H 0.4985 0.4935 0.6402
C17 C 0.6674(3) 0.3571(3) 0.9299(2)
C18 C 0.7268(3) 0.4901(3) 1.0145(2)
H13 H 0.7996 0.5623 1.0112
C19 C 0.6775(4) 0.5148(3) 1.1035(3)
H14 H 0.7162 0.6046 1.1626
C20 C 0.5711(4) 0.4069(3) 1.1052(3)
H15 H 0.5382 0.4212 1.1666
C21 C 0.5136(4) 0.2785(3) 1.0163(3)
H16 H 0.4393 0.2048 1.0172
C22 C 0.8190(3) 0.2577(3) 0.8388(2)
C23 C 0.8559(4) 0.2089(3) 0.7441(3)
H17 H 0.8166 0.2208 0.6796
C24 C 0.9519(4) 0.1426(3) 0.7479(3)
H18 H 0.9815 0.1093 0.6860
C25 C 1.0049(4) 0.1251(3) 0.8430(3)
H19 H 1.0710 0.0800 0.8474
C26 C 0.9585(4) 0.1751(3) 0.9306(3)
H20 H 0.9919 0.1612 0.9946
Cd1_2 Cd 0.41205(2) 0.039681(19) 0.772182(18)
N4_2 N 0.5584(3) 1.2526(2) 0.9278(2)
loop_
_geom_bond_atom_site_label_1
_geom_bond_atom_site_label_2
_geom_bond_site_symmetry_1
_geom_bond_site_symmetry_2
Cd1 Br1 1_555 1_555
Br2 Cd1 1_555 1_555
N1 Cd1 1_555 1_555
N2 C3 1_555 1_555
N3 C8 1_555 1_555
N4 C17 1_555 1_555
N5 C14 1_555 1_555
N6 C22 1_555 1_555
C1 N1 1_555 1_555
H1 C1 1_555 1_555
C2 C1 1_555 1_555
H2 C2 1_555 1_555
C3 C2 1_555 1_555
C4 C3 1_555 1_555
H3 C4 1_555 1_555
C5 N1 1_555 1_555
H4 C5 1_555 1_555
C6 N2 1_555 1_555
C7 C6 1_555 1_555
H5 C7 1_555 1_555
C8 C7 1_555 1_555
H6 C8 1_555 1_555
C9 N3 1_555 1_555
H7 C9 1_555 1_555
C10 C6 1_555 1_555
H8 C10 1_555 1_555
C11 N2 1_555 1_555
C12 C11 1_555 1_555
H9 C12 1_555 1_555
C13 C12 1_555 1_555
H10 C13 1_555 1_555
C14 C13 1_555 1_555
C15 C14 1_555 1_555
H11 C15 1_555 1_555
C16 C11 1_555 1_555
H12 C16 1_555 1_555
C17 N5 1_555 1_555
C18 C17 1_555 1_555
H13 C18 1_555 1_555
C19 C18 1_555 1_555
H14 C19 1_555 1_555
C20 C19 1_555 1_555
H15 C20 1_555 1_555
C21 N4 1_555 1_555
H16 C21 1_555 1_555
C22 N5 1_555 1_555
C23 C22 1_555 1_555
H17 C23 1_555 1_555
C24 C23 1_555 1_555
H18 C24 1_555 1_555
C25 C24 1_555 1_555
H19 C25 1_555 1_555
C26 N6 1_555 1_555
H20 C26 1_555 1_555
Cd1_2 N4 1_555 1_555
N4_2 Cd1 1_555 1_555
C4 C5 1_555 1_555
C9 C10 1_555 1_555
C15 C16 1_555 1_555
C20 C21 1_555 1_555
C25 C26 1_555 1_555

#END
