
#######################################################################
#
#                 Cambridge Crystallographic Data Centre
#                                CCDC 
#
#######################################################################
#
# If this CIF has been generated from an entry in the Cambridge 
# Structural Database, then it will include bibliographic, chemical, 
# crystal, experimental, refinement or atomic coordinate data resulting 
# from the CCDC's data processing and validation procedures.
#
#######################################################################

data_CUSTOA
_symmetry_cell_setting           monoclinic
_symmetry_space_group_name_H-M   'P 2/n'
_symmetry_Int_Tables_number      13
_space_group_name_Hall           '-P 2yac'
loop_
_symmetry_equiv_pos_site_id
_symmetry_equiv_pos_as_xyz
1 x,y,z
2 1/2-x,y,1/2-z
3 -x,-y,-z
4 1/2+x,-y,1/2+z
_cell_length_a                   11.8260(3)
_cell_length_b                   6.7690(5)
_cell_length_c                   15.8830(7)
_cell_angle_alpha                90
_cell_angle_beta                 111.6150(10)
_cell_angle_gamma                90
_cell_volume                     1182.03
loop_
_atom_site_label
_atom_site_type_symbol
_atom_site_fract_x
_atom_site_fract_y
_atom_site_fract_z
Cd1 Cd 0.7500 0.37449(3) 0.2500
C1 C 0.5918(2) 0.2872(3) 0.03747(15)
H1 H 0.6660 0.3096 0.0313
C2 C 0.4912(2) 0.2451(3) -0.03916(15)
H2 H 0.4973 0.2425 -0.0959
C3 C 0.3816(2) 0.2069(3) -0.03017(16)
H3 H 0.3127 0.1787 -0.0808
C4 C 0.37548(19) 0.2109(3) 0.05537(15)
C5 C 0.47990(19) 0.2573(3) 0.12769(15)
H4 H 0.4760 0.2615 0.1851
C6 C 0.2620(2) 0.1609(4) 0.07270(19)
H5 H 0.2667 0.2139 0.1306
H6 H 0.1912 0.2167 0.0257
C7 C 0.0085(3) -0.1296(4) 0.1585(3)
H7 H -0.0418 -0.0587 0.1809
C8 C 0.0908(3) -0.0282(4) 0.1309(2)
H8 H 0.0941 0.1090 0.1338
C9 C 0.1665(3) -0.1296(4) 0.0997(2)
C10 C 0.1536(5) -0.3274(5) 0.0909(5)
H9 H 0.2015 -0.3982 0.0664
C11 C 0.0704(5) -0.4266(5) 0.1177(4)
H10 H 0.0633 -0.5630 0.1107
C12 C -0.0007(2) -0.3297(4) 0.15380(17)
C13 C -0.0897(2) -0.4383(4) 0.18415(16)
N1 N 0.58682(16) 0.2969(3) 0.12010(12)
O1 O 0.2531(2) -0.0467(3) 0.07282(18)
O2 O -0.11194(19) -0.6168(3) 0.16493(14)
O3 O -0.13835(18) -0.3458(3) 0.23056(15)
O4 O 0.7500 0.0032(4) 0.2500
H11 H 0.802(3) -0.077(4) 0.245(3)
H11A H 0.698(3) -0.077(4) 0.255(3)
C1_2 C 1.5918(2) 1.2872(3) 0.03747(15)
H1_2 H 1.6660 1.3096 0.0313
C2_2 C 1.4912(2) 1.2451(3) -0.03916(15)
H2_2 H 1.4973 1.2425 -0.0959
C3_2 C 1.3816(2) 1.2069(3) -0.03017(16)
H3_2 H 1.3127 1.1787 -0.0808
C4_2 C 1.37548(19) 1.2109(3) 0.05537(15)
C5_2 C 1.47990(19) 1.2573(3) 0.12769(15)
H4_2 H 1.4760 1.2615 0.1851
C6_2 C 1.2620(2) 1.1609(4) 0.07270(19)
H5_2 H 1.2667 1.2139 0.1306
H6_2 H 1.1912 1.2167 0.0257
C7_2 C 1.0085(3) 0.8704(4) 0.1585(3)
H7_2 H 0.9582 0.9413 0.1809
C8_2 C 1.0908(3) 0.9718(4) 0.1309(2)
H8_2 H 1.0941 1.1090 0.1338
C9_2 C 1.1665(3) 0.8704(4) 0.0997(2)
C10_2 C 1.1536(5) 0.6726(5) 0.0909(5)
H9_2 H 1.2015 0.6018 0.0664
C11_2 C 1.0704(5) 0.5734(5) 0.1177(4)
H10_2 H 1.0633 0.4370 0.1107
C12_2 C 0.9993(2) 0.6703(4) 0.15380(17)
C13_2 C 0.9103(2) 0.5617(4) 0.18415(16)
N1_2 N 1.58682(16) 1.2969(3) 0.12010(12)
O1_2 O 1.2531(2) 0.9533(3) 0.07282(18)
O2_2 O 0.88806(19) 0.3832(3) 0.16493(14)
O3_2 O 0.86165(18) 0.6542(3) 0.23056(15)
N1A N 0.91318(16) 0.2969(3) 0.37990(12)
O2A O 0.61194(19) 0.3832(3) 0.33507(14)
O3A O 0.63835(18) 0.6542(3) 0.26944(15)
Cd1_2 Cd -0.2500 -0.62551(3) 0.2500
Cd1_3 Cd 1.7500 1.37449(3) 0.2500
loop_
_geom_bond_atom_site_label_1
_geom_bond_atom_site_label_2
_geom_bond_site_symmetry_1
_geom_bond_site_symmetry_2
Cd1 N1 1_555 1_555
C1 H1 1_555 1_555
C2 C1 1_555 1_555
H2 C2 1_555 1_555
C3 C2 1_555 1_555
H3 C3 1_555 1_555
C4 C3 1_555 1_555
C5 C4 1_555 1_555
H4 C5 1_555 1_555
C6 C4 1_555 1_555
H5 C6 1_555 1_555
H6 C6 1_555 1_555
C7 H7 1_555 1_555
C8 C7 1_555 1_555
H8 C8 1_555 1_555
C9 C8 1_555 1_555
C10 C9 1_555 1_555
H9 C10 1_555 1_555
C11 C10 1_555 1_555
H10 C11 1_555 1_555
C12 C7 1_555 1_555
C13 C12 1_555 1_555
N1 C1 1_555 1_555
O1 C6 1_555 1_555
O2 C13 1_555 1_555
O3 C13 1_555 1_555
O4 Cd1 1_555 1_555
H11 O4 1_555 1_555
H11A O4 1_555 1_555
C1_2 H1_2 1_555 1_555
C2_2 C1_2 1_555 1_555
H2_2 C2_2 1_555 1_555
C3_2 C2_2 1_555 1_555
H3_2 C3_2 1_555 1_555
C4_2 C3_2 1_555 1_555
C5_2 C4_2 1_555 1_555
H4_2 C5_2 1_555 1_555
C6_2 C4_2 1_555 1_555
H5_2 C6_2 1_555 1_555
H6_2 C6_2 1_555 1_555
C7_2 H7_2 1_555 1_555
C8_2 C7_2 1_555 1_555
H8_2 C8_2 1_555 1_555
C9_2 C8_2 1_555 1_555
C10_2 C9_2 1_555 1_555
H9_2 C10_2 1_555 1_555
C11_2 C10_2 1_555 1_555
H10_2 C11_2 1_555 1_555
C12_2 C7_2 1_555 1_555
C13_2 C12_2 1_555 1_555
N1_2 C1_2 1_555 1_555
O1_2 C6_2 1_555 1_555
O2_2 Cd1 1_555 1_555
O3_2 Cd1 1_555 1_555
N1A Cd1 1_555 1_555
O2A Cd1 1_555 1_555
O3A Cd1 1_555 1_555
Cd1_2 O2 1_555 1_555
Cd1_3 N1_2 1_555 1_555
C5 N1 1_555 1_555
C9 O1 1_555 1_555
C11 C12 1_555 1_555
O3 Cd1_2 1_555 1_555
C5_2 N1_2 1_555 1_555
C9_2 O1_2 1_555 1_555
C11_2 C12_2 1_555 1_555
C13_2 O2_2 1_555 1_555
C13_2 O3_2 1_555 1_555

#END
