
#######################################################################
#
#                 Cambridge Crystallographic Data Centre
#                                CCDC 
#
#######################################################################
#
# If this CIF has been generated from an entry in the Cambridge 
# Structural Database, then it will include bibliographic, chemical, 
# crystal, experimental, refinement or atomic coordinate data resulting 
# from the CCDC's data processing and validation procedures.
#
#######################################################################

data_CUSWAP
_symmetry_cell_setting           monoclinic
_symmetry_space_group_name_H-M   'P 21/c'
_symmetry_Int_Tables_number      14
_space_group_name_Hall           '-P 2ybc'
loop_
_symmetry_equiv_pos_site_id
_symmetry_equiv_pos_as_xyz
1 x,y,z
2 -x,1/2+y,1/2-z
3 -x,-y,-z
4 x,1/2-y,1/2+z
_cell_length_a                   13.1392(15)
_cell_length_b                   13.0766(14)
_cell_length_c                   17.2116(18)
_cell_angle_alpha                90
_cell_angle_beta                 91.2530(10)
_cell_angle_gamma                90
_cell_volume                     2956.52
loop_
_atom_site_label
_atom_site_type_symbol
_atom_site_fract_x
_atom_site_fract_y
_atom_site_fract_z
Cd1 Cd 0.67885(7) 0.88347(8) 1.09911(6)
Cd2 Cd 0.32012(7) 0.61441(8) 1.11478(6)
N1 N 0.6768(8) 0.8838(8) 0.9619(7)
N2 N 0.8500(8) 0.8761(7) 1.0546(6)
N3 N 0.1514(8) 0.6212(8) 1.0627(7)
N4 N 0.3199(8) 0.6154(7) 0.9774(5)
N5 N 0.5097(10) 0.8793(9) 1.0954(8)
N6 N 0.4907(9) 0.6195(8) 1.1226(8)
N7 N 0.7161(10) 1.1234(8) 1.2604(6)
N8 N 0.7108(10) 0.8710(8) 1.2270(7)
O1 O 0.8871(14) 0.8795(15) 0.7402(8)
O2 O 1.0527(10) 0.8715(13) 0.8328(7)
O3 O -0.0520(11) 0.6374(14) 0.8284(8)
O4 O 0.1165(13) 0.6352(17) 0.7460(8)
S1 S 0.3058(3) 0.8293(3) 1.1032(2)
S2 S 0.6884(3) 0.6668(3) 1.0864(2)
S3 S 0.6913(3) 1.0926(3) 1.1000(2)
S4 S 0.6894(3) 0.9045(3) 1.3853(2)
C1 C 0.5935(10) 0.8847(10) 0.9184(9)
H1 H 0.5314 0.8889 0.9431
C2 C 0.5923(12) 0.8799(12) 0.8379(9)
H2 H 0.5314 0.8750 0.8096
C3 C 0.6804(12) 0.8823(11) 0.8025(9)
H3 H 0.6812 0.8863 0.7486
C4 C 0.7722(12) 0.8791(11) 0.8444(8)
C5 C 0.7673(9) 0.8794(9) 0.9293(7)
C6 C 0.8611(9) 0.8782(9) 0.9774(8)
C7 C 0.9576(9) 0.8741(9) 0.9462(7)
C8 C 1.0422(10) 0.8745(8) 0.9947(8)
H4 H 1.1069 0.8758 0.9739
C9 C 1.0307(12) 0.8729(10) 1.0743(11)
H5 H 1.0859 0.8709 1.1090
C10 C 0.9375(11) 0.8743(9) 1.0970(8)
H6 H 0.9296 0.8741 1.1505
C11 C 0.8723(13) 0.8791(13) 0.8114(9)
C12 C 0.9687(15) 0.8755(14) 0.8599(11)
C13 C 0.0665(9) 0.6204(10) 1.1081(9)
H7 H 0.0726 0.6160 1.1619
C14 C -0.0286(9) 0.6262(10) 1.0715(8)
H8 H -0.0858 0.6302 1.1023
C15 C -0.0427(11) 0.6265(9) 0.9913(9)
H9 H -0.1071 0.6268 0.9678
C16 C 0.0419(11) 0.6262(10) 0.9500(7)
C17 C 0.1402(8) 0.6242(8) 0.9847(7)
C18 C 0.2346(12) 0.6224(10) 0.9378(8)
C19 C 0.2275(12) 0.6274(9) 0.8554(8)
C20 C 0.3149(13) 0.6234(12) 0.8154(9)
H10 H 0.3134 0.6209 0.7614
C21 C 0.4072(11) 0.6231(11) 0.8570(8)
H11 H 0.4684 0.6260 0.8309
C22 C 0.4070(11) 0.6187(11) 0.9369(8)
H12 H 0.4690 0.6178 0.9641
C23 C 0.0332(11) 0.6334(12) 0.8633(10)
C24 C 0.1283(14) 0.6305(13) 0.8177(10)
C25 C 0.4252(10) 0.8554(10) 1.0980(8)
C26 C 0.5691(10) 0.6412(10) 1.1095(9)
C27 C 0.7065(10) 1.1091(9) 1.1963(9)
C28 C 0.7069(11) 0.8846(9) 1.2891(7)
Cd2A Cd 0.67988(7) 1.11441(8) 1.38522(6)
N7A N 0.2839(10) 0.6234(8) 1.2396(6)
S4A S 0.3106(3) 0.4045(3) 1.1147(2)
loop_
_geom_bond_atom_site_label_1
_geom_bond_atom_site_label_2
_geom_bond_site_symmetry_1
_geom_bond_site_symmetry_2
Cd1 N1 1_555 1_555
Cd2 N3 1_555 1_555
N1 C1 1_555 1_555
N2 Cd1 1_555 1_555
N3 C13 1_555 1_555
N4 Cd2 1_555 1_555
N5 Cd1 1_555 1_555
N6 Cd2 1_555 1_555
N7 C27 1_555 1_555
N8 Cd1 1_555 1_555
O1 C11 1_555 1_555
O2 C12 1_555 1_555
O3 C23 1_555 1_555
O4 C24 1_555 1_555
S1 Cd2 1_555 1_555
S2 Cd1 1_555 1_555
S3 Cd1 1_555 1_555
S4 C28 1_555 1_555
C1 H1 1_555 1_555
C2 C1 1_555 1_555
H2 C2 1_555 1_555
C3 C2 1_555 1_555
H3 C3 1_555 1_555
C4 C3 1_555 1_555
C5 N1 1_555 1_555
C6 N2 1_555 1_555
C7 C6 1_555 1_555
C8 C7 1_555 1_555
H4 C8 1_555 1_555
C9 C8 1_555 1_555
H5 C9 1_555 1_555
C10 N2 1_555 1_555
H6 C10 1_555 1_555
C11 C4 1_555 1_555
C12 C7 1_555 1_555
C13 H7 1_555 1_555
C14 C13 1_555 1_555
H8 C14 1_555 1_555
C15 C14 1_555 1_555
H9 C15 1_555 1_555
C16 C15 1_555 1_555
C17 N3 1_555 1_555
C18 N4 1_555 1_555
C19 C18 1_555 1_555
C20 C19 1_555 1_555
H10 C20 1_555 1_555
C21 C20 1_555 1_555
H11 C21 1_555 1_555
C22 N4 1_555 1_555
H12 C22 1_555 1_555
C23 C16 1_555 1_555
C24 C19 1_555 1_555
C25 N5 1_555 1_555
C26 N6 1_555 1_555
C27 S3 1_555 1_555
C28 N8 1_555 1_555
Cd2A N7 1_555 1_555
N7A Cd2 1_555 1_555
S4A Cd2 1_555 1_555
S1 C25 1_555 1_555
S2 C26 1_555 1_555
S4 Cd2A 1_555 1_555
C4 C5 1_555 1_555
C5 C6 1_555 1_555
C9 C10 1_555 1_555
C11 C12 1_555 1_555
C16 C17 1_555 1_555
C17 C18 1_555 1_555
C21 C22 1_555 1_555
C23 C24 1_555 1_555

#END
