
#######################################################################
#
#                 Cambridge Crystallographic Data Centre
#                                CCDC 
#
#######################################################################
#
# If this CIF has been generated from an entry in the Cambridge 
# Structural Database, then it will include bibliographic, chemical, 
# crystal, experimental, refinement or atomic coordinate data resulting 
# from the CCDC's data processing and validation procedures.
#
#######################################################################

data_CUTCYM02
_symmetry_cell_setting           orthorhombic
_symmetry_space_group_name_H-M   'P m n a'
_symmetry_Int_Tables_number      53
_space_group_name_Hall           '-P 2ac 2'
loop_
_symmetry_equiv_pos_site_id
_symmetry_equiv_pos_as_xyz
1 x,y,z
2 1/2-x,-y,1/2+z
3 x,-y,-z
4 1/2-x,y,1/2-z
5 -x,-y,-z
6 1/2+x,y,1/2-z
7 -x,y,z
8 1/2+x,-y,1/2+z
_cell_length_a                   7.168(1)
_cell_length_b                   5.4680(6)
_cell_length_c                   10.764(1)
_cell_angle_alpha                90
_cell_angle_beta                 90
_cell_angle_gamma                90
_cell_volume                     421.891
loop_
_atom_site_label
_atom_site_type_symbol
_atom_site_fract_x
_atom_site_fract_y
_atom_site_fract_z
Cu1 Cu 0.0000 0.0000 0.0000
C1 C 0.3340(2) -0.2969(2) 0.1082(1)
N1 N 0.2008(1) -0.2069(2) 0.0703(1)
C2 C 0.0000 -0.3991(2) -0.2667(2)
N2 N 0.0000 -0.2380(2) -0.1976(2)
C3 C 0.5000 -0.4017(2) 0.1499(1)
N1B N 0.2008(1) 0.2069(2) -0.0703(1)
N1D N -0.2008(1) 0.2069(2) -0.0703(1)
N1F N -0.2008(1) -0.2069(2) 0.0703(1)
N2B N 0.0000 0.2380(2) 0.1976(2)
C3A C 0.0000 -0.5983(2) -0.3501(1)
C1F C 0.6660(2) -0.2969(2) 0.1082(1)
C2A C 0.5000 -0.6009(2) 0.2333(2)
C1A C 0.1660(2) -0.7031(2) -0.3918(1)
C1G C -0.1660(2) -0.7031(2) -0.3918(1)
N2A N 0.5000 -0.7620(2) 0.3024(2)
N1F_2 N 0.7992(1) -0.2069(2) 0.0703(1)
N1G N -0.2992(1) -0.7931(2) -0.4297(1)
N1A N 0.2992(1) -0.7931(2) -0.4297(1)
Cu1A Cu 0.5000 -1.0000 0.5000
Cu1_2 Cu 1.0000 0.0000 0.0000
Cu1A_2 Cu -0.5000 -1.0000 -0.5000
Cu1A_3 Cu 0.5000 -1.0000 -0.5000
loop_
_geom_bond_atom_site_label_1
_geom_bond_atom_site_label_2
_geom_bond_site_symmetry_1
_geom_bond_site_symmetry_2
Cu1 N1 1_555 1_555
C1 N1 1_555 1_555
C2 N2 1_555 1_555
N2 Cu1 1_555 1_555
C3 C1 1_555 1_555
N1B Cu1 1_555 1_555
N1D Cu1 1_555 1_555
N1F Cu1 1_555 1_555
N2B Cu1 1_555 1_555
C3A C2 1_555 1_555
C1F C3 1_555 1_555
C2A C3 1_555 1_555
C1A C3A 1_555 1_555
C1G C3A 1_555 1_555
N2A C2A 1_555 1_555
N1F_2 C1F 1_555 1_555
N1G C1G 1_555 1_555
N1A C1A 1_555 1_555
Cu1A N2A 1_555 1_555
Cu1_2 N1F_2 1_555 1_555
Cu1A_2 N1G 1_555 1_555
Cu1A_3 N1A 1_555 1_555

#END
