
#######################################################################
#
#                 Cambridge Crystallographic Data Centre
#                                CCDC 
#
#######################################################################
#
# If this CIF has been generated from an entry in the Cambridge 
# Structural Database, then it will include bibliographic, chemical, 
# crystal, experimental, refinement or atomic coordinate data resulting 
# from the CCDC's data processing and validation procedures.
#
#######################################################################

data_CUTFUT
_symmetry_cell_setting           orthorhombic
_symmetry_space_group_name_H-M   'P 21 21 21'
_symmetry_Int_Tables_number      19
_space_group_name_Hall           'P 2ac 2ab'
loop_
_symmetry_equiv_pos_site_id
_symmetry_equiv_pos_as_xyz
1 x,y,z
2 1/2-x,-y,1/2+z
3 -x,1/2+y,1/2-z
4 1/2+x,1/2-y,-z
_cell_length_a                   13.6581(2)
_cell_length_b                   32.4156(5)
_cell_length_c                   40.5791(6)
_cell_angle_alpha                90
_cell_angle_beta                 90
_cell_angle_gamma                90
_cell_volume                     17965.8
loop_
_atom_site_label
_atom_site_type_symbol
_atom_site_fract_x
_atom_site_fract_y
_atom_site_fract_z
Ag1 Ag -0.31588(8) 0.30431(4) 0.86983(3)
Ag2 Ag 0.26426(12) 0.75548(4) 0.99934(4)
Ag3 Ag 0.94873(8) 0.28693(4) 1.12361(3)
B1 B 0.3134(12) 0.4195(5) 1.0022(4)
B2 B -0.2823(14) 0.0914(5) 0.6627(4)
B3 B -0.2199(11) 0.9139(5) 0.8249(3)
N1 N -0.1738(8) 0.3142(4) 0.8979(3)
C1 C -0.1562(8) 0.2954(4) 0.9281(3)
H1 H -0.1969 0.2743 0.9354
C2 C -0.0778(9) 0.3081(4) 0.9474(3)
H2 H -0.0660 0.2956 0.9676
C3 C -0.0170(7) 0.3397(4) 0.9365(3)
C4 C -0.0346(10) 0.3585(4) 0.9063(3)
H3 H 0.0061 0.3796 0.8990
C5 C -0.1130(11) 0.3457(5) 0.8870(3)
H4 H -0.1248 0.3583 0.8668
C6 C 0.0652(13) 0.3544(5) 0.9578(4)
C7 C 0.0460(11) 0.3816(5) 0.9839(4)
C8 C 0.1246(11) 0.4015(4) 0.9988(3)
C9 C 0.2245(10) 0.3924(4) 0.9882(3)
C10 C 0.2396(10) 0.3640(4) 0.9639(3)
C11 C 0.1621(11) 0.3446(5) 0.9486(4)
C12 C 0.1759(11) 0.3097(6) 0.9222(5)
H5 H 0.2445 0.3057 0.9181
H6 H 0.1440 0.3177 0.9021
H7 H 0.1477 0.2846 0.9302
C13 C 0.3447(10) 0.3552(5) 0.9519(4)
H8 H 0.3431 0.3350 0.9347
H9 H 0.3831 0.3449 0.9700
H10 H 0.3734 0.3802 0.9438
C14 C 0.1070(9) 0.4319(5) 1.0281(3)
H11 H 0.0380 0.4341 1.0323
H12 H 0.1328 0.4586 1.0226
H13 H 0.1393 0.4217 1.0474
C15 C -0.0598(9) 0.3912(5) 0.9943(4)
H14 H -0.0593 0.4101 1.0125
H15 H -0.0918 0.3661 1.0008
H16 H -0.0944 0.4032 0.9761
N2 N 0.8189(8) 0.3087(4) 1.0918(3)
C16 C 0.7560(10) 0.3362(4) 1.1074(2)
H17 H 0.7673 0.3439 1.1291
C17 C 0.6761(9) 0.3522(4) 1.0904(3)
H18 H 0.6339 0.3706 1.1008
C18 C 0.6591(9) 0.3407(4) 1.0579(3)
C19 C 0.7221(10) 0.3132(5) 1.0424(2)
H19 H 0.7108 0.3055 1.0206
C20 C 0.8020(9) 0.2972(4) 1.0593(3)
H20 H 0.8441 0.2788 1.0489
C21 C 0.5711(11) 0.3590(5) 1.0420(4)
C22 C 0.4817(11) 0.3450(4) 1.0504(3)
C23 C 0.3970(10) 0.3640(4) 1.0391(3)
C24 C 0.4028(11) 0.3963(4) 1.0155(3)
C25 C 0.4967(9) 0.4088(4) 1.0047(3)
C26 C 0.5827(11) 0.3898(6) 1.0188(4)
C27 C 0.6888(12) 0.4022(6) 1.0093(5)
H21 H 0.6870 0.4233 0.9927
H22 H 0.7229 0.3785 1.0009
H23 H 0.7222 0.4125 1.0284
C28 C 0.5055(11) 0.4406(5) 0.9787(4)
H24 H 0.5735 0.4459 0.9744
H25 H 0.4745 0.4656 0.9860
H26 H 0.4743 0.4310 0.9590
C29 C 0.2936(10) 0.3498(5) 1.0496(4)
H27 H 0.2990 0.3281 1.0656
H28 H 0.2589 0.3397 1.0306
H29 H 0.2586 0.3726 1.0589
C30 C 0.4785(12) 0.3066(5) 1.0748(4)
H30 H 0.4116 0.2992 1.0791
H31 H 0.5100 0.3138 1.0952
H32 H 0.5119 0.2837 1.0650
N3 N 0.2785(8) 0.6865(2) 1.0018(3)
C31 C 0.2223(7) 0.6649(3) 1.0245(2)
H33 H 0.1810 0.6790 1.0388
C32 C 0.2279(7) 0.6221(3) 1.0259(2)
H34 H 0.1902 0.6076 1.0411
C33 C 0.2896(8) 0.6010(2) 1.0045(3)
C34 C 0.3459(7) 0.6226(3) 0.9818(2)
H35 H 0.3872 0.6085 0.9675
C35 C 0.3403(7) 0.6654(3) 0.9804(2)
H36 H 0.3779 0.6799 0.9652
C36 C 0.2961(9) 0.5547(4) 1.0042(3)
C37 C 0.3316(9) 0.5331(5) 1.0314(3)
C38 C 0.3317(9) 0.4909(5) 1.0312(3)
C39 C 0.3015(9) 0.4678(4) 1.0043(3)
C40 C 0.2689(9) 0.4903(4) 0.9754(3)
C41 C 0.2608(9) 0.5326(5) 0.9763(3)
C42 C 0.2077(13) 0.5560(5) 0.9484(3)
H37 H 0.2072 0.5850 0.9533
H38 H 0.1417 0.5462 0.9466
H39 H 0.2414 0.5515 0.9279
C43 C 0.2413(11) 0.4684(5) 0.9435(3)
H40 H 0.2215 0.4884 0.9274
H41 H 0.1882 0.4497 0.9476
H42 H 0.2967 0.4533 0.9353
C44 C 0.3643(11) 0.4661(4) 1.0629(3)
H43 H 0.3821 0.4851 1.0800
H44 H 0.4196 0.4490 1.0577
H45 H 0.3111 0.4491 1.0703
C45 C 0.3804(12) 0.5595(4) 1.0593(3)
H46 H 0.4040 0.5415 1.0764
H47 H 0.3330 0.5782 1.0684
H48 H 0.4341 0.5749 1.0503
N4 N -0.3298(6) 0.2591(3) 0.8297(2)
C46 C -0.3525(9) 0.2710(3) 0.7977(2)
H49 H -0.3708 0.2981 0.7933
C47 C -0.3479(10) 0.2424(4) 0.77215(17)
H50 H -0.3631 0.2504 0.7507
C48 C -0.3206(8) 0.2019(3) 0.7786(2)
C49 C -0.2979(8) 0.1900(2) 0.8106(2)
H51 H -0.2796 0.1629 0.8150
C50 C -0.3025(7) 0.2186(3) 0.83615(17)
H52 H -0.2873 0.2106 0.8576
C51 C -0.3125(12) 0.1703(5) 0.7500(4)
C52 C -0.3945(14) 0.1569(6) 0.7356(4)
C53 C -0.3873(11) 0.1301(5) 0.7073(4)
C54 C -0.2933(12) 0.1167(5) 0.6970(3)
C55 C -0.2108(13) 0.1300(5) 0.7135(3)
C56 C -0.2147(10) 0.1570(4) 0.7410(3)
C57 C -0.1287(11) 0.1726(5) 0.7587(3)
H53 H -0.1495 0.1906 0.7761
H54 H -0.0873 0.1874 0.7437
H55 H -0.0930 0.1498 0.7679
C58 C -0.1065(12) 0.1128(5) 0.7071(4)
H56 H -0.1081 0.0945 0.6884
H57 H -0.0846 0.0979 0.7262
H58 H -0.0625 0.1352 0.7027
C59 C -0.4819(11) 0.1177(6) 0.6905(5)
H59 H -0.4675 0.1001 0.6721
H60 H -0.5154 0.1419 0.6829
H61 H -0.5228 0.1032 0.7058
C60 C -0.4940(12) 0.1679(7) 0.7478(6)
H62 H -0.4883 0.1855 0.7667
H63 H -0.5286 0.1432 0.7537
H64 H -0.5293 0.1822 0.7307
N5 N 0.1336(9) 0.2043(3) 0.5296(3)
C61 C 0.1598(7) 0.1974(3) 0.5623(3)
H65 H 0.2198 0.2068 0.5701
C62 C 0.0962(8) 0.1767(3) 0.5832(2)
H66 H 0.1137 0.1721 0.6051
C63 C 0.0064(7) 0.1627(3) 0.5716(2)
C64 C -0.0198(8) 0.1696(4) 0.5389(3)
H67 H -0.0799 0.1603 0.5311
C65 C 0.0438(11) 0.1904(4) 0.5179(2)
H68 H 0.0263 0.1950 0.4961
C66 C -0.0669(11) 0.1433(6) 0.5943(4)
C67 C -0.0572(14) 0.1026(5) 0.6060(4)
C68 C -0.1275(11) 0.0856(4) 0.6257(3)
C69 C -0.2069(11) 0.1099(5) 0.6372(3)
C70 C -0.2164(9) 0.1502(4) 0.6262(4)
C71 C -0.1477(14) 0.1672(5) 0.6051(4)
C72 C -0.1622(12) 0.2122(5) 0.5942(5)
H69 H -0.2213 0.2228 0.6038
H70 H -0.1667 0.2134 0.5707
H71 H -0.1075 0.2284 0.6015
C73 C -0.3071(13) 0.1768(5) 0.6349(5)
H72 H -0.3482 0.1620 0.6500
H73 H -0.3432 0.1827 0.6151
H74 H -0.2861 0.2022 0.6448
C74 C -0.1127(12) 0.0419(5) 0.6366(3)
H75 H -0.1665 0.0336 0.6503
H76 H -0.0528 0.0399 0.6488
H77 H -0.1094 0.0243 0.6176
C75 C 0.0288(11) 0.0784(5) 0.5927(4)
H78 H 0.0279 0.0510 0.6018
H79 H 0.0887 0.0919 0.5987
H80 H 0.0242 0.0768 0.5691
N6 N -0.6084(7) -0.1341(2) 0.6324(2)
C76 C -0.6357(6) -0.1066(3) 0.6570(2)
H81 H -0.6874 -0.1131 0.6710
C77 C -0.5857(8) -0.0696(3) 0.6607(2)
H82 H -0.6040 -0.0512 0.6772
C78 C -0.5084(7) -0.0600(3) 0.6398(3)
C79 C -0.4811(7) -0.0875(3) 0.6152(2)
H83 H -0.4294 -0.0810 0.6012
C80 C -0.5311(7) -0.1245(3) 0.6115(2)
H84 H -0.5128 -0.1429 0.5950
C81 C -0.4535(10) -0.0202(4) 0.6444(3)
C82 C -0.3875(13) -0.0172(5) 0.6731(3)
C83 C -0.3374(11) 0.0183(5) 0.6783(3)
C84 C -0.3453(11) 0.0517(5) 0.6569(3)
C85 C -0.4072(11) 0.0468(4) 0.6281(3)
C86 C -0.4612(11) 0.0118(5) 0.6233(3)
C87 C -0.5316(14) 0.0084(5) 0.5942(4)
H85 H -0.5643 0.0343 0.5910
H86 H -0.5791 -0.0127 0.5986
H87 H -0.4955 0.0015 0.5746
C88 C -0.4210(14) 0.0850(4) 0.6051(3)
H88 H -0.4624 0.0776 0.5869
H89 H -0.3584 0.0937 0.5969
H90 H -0.4507 0.1070 0.6173
C89 C -0.2685(12) 0.0211(5) 0.7088(3)
H91 H -0.2713 -0.0043 0.7209
H92 H -0.2892 0.0434 0.7227
H93 H -0.2026 0.0259 0.7015
C90 C -0.3796(16) -0.0553(4) 0.6960(4)
H94 H -0.3356 -0.0493 0.7138
H95 H -0.3552 -0.0784 0.6837
H96 H -0.4431 -0.0619 0.7047
N7 N 0.1671(8) 0.7918(3) 0.9640(3)
C91 C 0.2042(6) 0.8025(3) 0.9333(3)
H97 H 0.2693 0.7971 0.9282
C92 C 0.1438(8) 0.8212(3) 0.9101(2)
H98 H 0.1686 0.8284 0.8896
C93 C 0.0464(7) 0.8293(3) 0.9177(2)
C94 C 0.0094(6) 0.8186(3) 0.9485(3)
H99 H -0.0558 0.8240 0.9535
C95 C 0.0698(9) 0.7999(3) 0.9716(2)
H100 H 0.0450 0.7927 0.9922
C96 C -0.0174(10) 0.8507(4) 0.8945(3)
C97 C -0.0996(13) 0.8308(4) 0.8817(4)
C98 C -0.1652(10) 0.8510(5) 0.8604(4)
C99 C -0.1436(11) 0.8908(4) 0.8493(3)
C100 C -0.0542(10) 0.9100(4) 0.8607(3)
C101 C 0.0080(9) 0.8905(4) 0.8826(3)
C102 C 0.0951(11) 0.9119(5) 0.8961(4)
H101 H 0.1018 0.9383 0.8857
H102 H 0.1525 0.8956 0.8919
H103 H 0.0874 0.9155 0.9194
C103 C -0.0321(10) 0.9517(5) 0.8492(3)
H104 H -0.0827 0.9607 0.8344
H105 H 0.0296 0.9516 0.8378
H106 H -0.0285 0.9701 0.8677
C104 C -0.2613(11) 0.8302(4) 0.8491(4)
H107 H -0.2643 0.8027 0.8577
H108 H -0.2631 0.8292 0.8255
H109 H -0.3161 0.8458 0.8571
C105 C -0.1176(12) 0.7859(4) 0.8939(4)
H110 H -0.1754 0.7751 0.8836
H111 H -0.1260 0.7859 0.9174
H112 H -0.0623 0.7690 0.8882
N8 N -0.4701(6) 1.1530(2) 0.8674(2)
C106 C -0.3890(6) 1.1407(3) 0.8856(2)
H113 H -0.3639 1.1578 0.9020
C107 C -0.3453(6) 1.1028(3) 0.8794(2)
H114 H -0.2910 1.0945 0.8915
C108 C -0.3827(7) 1.0772(2) 0.8549(2)
C109 C -0.4639(8) 1.0895(3) 0.8368(2)
H115 H -0.4890 1.0724 0.8204
C110 C -0.5076(6) 1.1274(3) 0.8430(2)
H116 H -0.5619 1.1357 0.8309
C111 C -0.3347(14) 1.0357(6) 0.8467(4)
C112 C -0.3532(10) 1.0029(5) 0.8694(3)
C113 C -0.3117(10) 0.9637(4) 0.8625(3)
C114 C -0.2575(11) 0.9583(5) 0.8342(3)
C115 C -0.2404(12) 0.9924(5) 0.8134(3)
C116 C -0.2771(11) 1.0300(5) 0.8198(3)
C117 C -0.1756(12) 0.9848(4) 0.7827(3)
H117 H -0.1670 1.0102 0.7709
H118 H -0.2068 0.9649 0.7686
H119 H -0.1129 0.9745 0.7895
C118 C -0.2528(14) 1.0675(4) 0.7976(4)
H120 H -0.2118 1.0588 0.7797
H121 H -0.2192 1.0880 0.8104
H122 H -0.3124 1.0790 0.7890
C119 C -0.4205(11) 1.0110(4) 0.8993(3)
H123 H -0.4264 0.9863 0.9121
H124 H -0.4840 1.0194 0.8917
H125 H -0.3927 1.0325 0.9127
C120 C -0.3337(12) 0.9260(4) 0.8844(4)
H126 H -0.3710 0.9345 0.9033
H127 H -0.2733 0.9138 0.8916
H128 H -0.3706 0.9061 0.8720
N9 N -0.4017(7) 0.7583(3) 0.6624(2)
C121 C -0.3829(10) 0.7449(3) 0.6944(3)
H129 H -0.3909 0.7173 0.6998
C122 C -0.3521(10) 0.7729(4) 0.71816(19)
H130 H -0.3395 0.7640 0.7395
C123 C -0.3402(9) 0.8143(3) 0.7100(2)
C124 C -0.3590(10) 0.8277(2) 0.6781(3)
H131 H -0.3510 0.8553 0.6727
C125 C -0.3898(9) 0.7997(3) 0.6543(2)
H132 H -0.4023 0.8086 0.6329
C126 C -0.3107(11) 0.8429(4) 0.7372(3)
C127 C -0.2092(11) 0.8483(5) 0.7442(4)
C128 C -0.1805(12) 0.8723(5) 0.7711(3)
C129 C -0.2527(12) 0.8923(4) 0.7914(3)
C130 C -0.3471(10) 0.8879(5) 0.7833(3)
C131 C -0.3791(9) 0.8645(5) 0.7565(4)
C132 C -0.4868(9) 0.8593(5) 0.7457(3)
H133 H -0.5284 0.8747 0.7602
H134 H -0.5043 0.8307 0.7465
H135 H -0.4945 0.8694 0.7236
C133 C -0.4262(9) 0.9103(5) 0.8045(4)
H136 H -0.4901 0.9039 0.7960
H137 H -0.4157 0.9395 0.8035
H138 H -0.4214 0.9012 0.8269
C134 C -0.0683(12) 0.8766(7) 0.7781(5)
H139 H -0.0584 0.8954 0.7962
H140 H -0.0361 0.8871 0.7588
H141 H -0.0416 0.8501 0.7837
C135 C -0.1325(13) 0.8278(7) 0.7236(5)
H142 H -0.0688 0.8343 0.7321
H143 H -0.1374 0.8374 0.7013
H144 H -0.1420 0.7984 0.7241
S1 S 1.0714(4) 0.23331(17) 1.06626(12)
O1 O 1.1406(10) 0.2581(4) 1.0853(3)
O2 O 1.1106(10) 0.1919(3) 1.0560(4)
O3 O 0.9731(9) 0.2316(5) 1.0780(3)
C136 C 1.065(2) 0.2593(7) 1.0280(4)
F1 F 1.0366(11) 0.2988(4) 1.0334(4)
F2 F 1.1569(13) 0.2606(4) 1.0144(3)
F3 F 1.0079(15) 0.2426(5) 1.0069(3)
Ag1B Ag -0.68412(8) -0.19569(4) 0.63017(3)
Ag2A Ag 0.23574(12) 0.24452(4) 0.49934(4)
Ag3C Ag -0.55127(8) 1.21307(4) 0.87639(3)
Ag3A Ag -0.44873(8) 0.71307(4) 0.62361(3)
N5A N 0.3664(9) 0.7957(3) 1.0296(3)
N6B N -0.3916(7) 0.3659(2) 0.8676(2)
N8C N 1.0299(6) 0.3470(2) 1.1326(2)
N9A N 0.9017(7) 0.2417(3) 1.1624(2)
S2 S 0.0364(4) 0.74800(17) 0.06714(11)
O4 O 0.0640(19) 0.7073(6) 0.0809(6)
O5 O 0.1120(11) 0.7570(5) 0.0442(4)
O6 O -0.0639(10) 0.7516(5) 0.0563(4)
C137 C 0.0557(19) 0.7789(8) 0.1008(5)
F4 F 0.0053(17) 0.7700(7) 0.1291(6)
F5 F 0.0294(19) 0.8179(7) 0.0912(6)
F6 F 0.1536(17) 0.7820(7) 0.1105(5)
S3 S 0.7577(8) 0.3887(3) 0.2146(2)
O7 O 0.773(2) 0.3952(8) 0.2515(4)
O8 O 0.8150(19) 0.4225(8) 0.1971(7)
O9 O 0.7970(18) 0.3480(6) 0.2039(6)
C138 C 0.6317(12) 0.3926(8) 0.2060(6)
F7 F 0.5712(16) 0.3696(8) 0.2246(7)
F8 F 0.5863(19) 0.4287(8) 0.2092(7)
F9 F 0.5944(18) 0.3817(9) 0.1763(6)
N10 N 0.644(2) 0.4809(11) 0.0670(8)
C139 C 0.705(3) 0.4754(16) 0.0908(10)
C140 C 0.812(3) 0.4561(14) 0.0964(11)
N11 N 0.3042(17) 0.1012(7) 0.5581(5)
C141 C 0.364(2) 0.1103(9) 0.5340(6)
C142 C 0.412(2) 0.0828(9) 0.5046(6)
N12 N 0.723(3) 0.5278(10) 0.8401(9)
C143 C 0.692(2) 0.5631(9) 0.8453(7)
C144 C 0.708(2) 0.6038(8) 0.8645(6)
N13 N 0.3938(16) 0.3577(7) 0.1473(5)
C145 C 0.4259(19) 0.3921(7) 0.1419(6)
C146 C 0.475(3) 0.4352(9) 0.1407(9)
N14 N 1.020(2) 0.5497(9) 0.0146(6)
C147 C 0.995(3) 0.5811(11) 0.0305(9)
C148 C 0.952(4) 0.6161(13) 0.0523(11)
N15 N 0.2194(16) 0.3978(6) 0.8684(5)
C149 C 0.1622(16) 0.4263(7) 0.8616(5)
C150 C 0.078(2) 0.4300(11) 0.8344(7)
N16 N 0.921(3) 0.2934(10) 0.6771(10)
C151 C 0.900(7) 0.2557(12) 0.683(3)
C152 C 0.962(3) 0.2193(9) 0.6702(8)
N17 N -0.0762(11) 0.2733(5) 0.8105(4)
C153 C -0.035(2) 0.2496(9) 0.8311(8)
C154 C 0.0567(14) 0.2572(7) 0.8514(5)
N18 N 0.5135(11) 0.0139(4) 0.7669(3)
C155 C 0.441(3) 0.0097(12) 0.7468(10)
C156 C 0.3584(11) -0.0258(5) 0.7413(4)
O10 O 0.7551(15) 0.4348(6) 0.9182(5)
O11 O 0.9567(18) 0.4615(7) 0.9171(7)
O12 O 0.866(3) 0.5341(11) 0.1555(9)
O13 O 0.269(3) 0.2124(12) 0.6952(10)
O14 O 0.028(3) 0.0141(12) 0.7170(10)
O15 O 0.029(3) 0.7214(11) 0.1924(9)
O16 O 0.213(3) 0.8698(11) 0.7412(9)
N19? N 0.8644(19) 0.4266(8) 0.0848(6)
N20? N 0.1461(12) 0.2437(6) 0.8514(4)
O17? O 0.950(3) 0.4701(11) 0.9387(10)
loop_
_geom_bond_atom_site_label_1
_geom_bond_atom_site_label_2
_geom_bond_site_symmetry_1
_geom_bond_site_symmetry_2
Ag1 N1 1_555 1_555
Ag2 N3 1_555 1_555
Ag3 N2 1_555 1_555
B1 C9 1_555 1_555
B2 C54 1_555 1_555
B3 C99 1_555 1_555
N1 C1 1_555 1_555
C1 H1 1_555 1_555
C2 C1 1_555 1_555
H2 C2 1_555 1_555
C3 C2 1_555 1_555
C4 C3 1_555 1_555
H3 C4 1_555 1_555
C5 N1 1_555 1_555
H4 C5 1_555 1_555
C6 C3 1_555 1_555
C7 C6 1_555 1_555
C8 C7 1_555 1_555
C9 C8 1_555 1_555
C10 C9 1_555 1_555
C11 C6 1_555 1_555
C12 C11 1_555 1_555
H5 C12 1_555 1_555
H6 C12 1_555 1_555
H7 C12 1_555 1_555
C13 C10 1_555 1_555
H8 C13 1_555 1_555
H9 C13 1_555 1_555
H10 C13 1_555 1_555
C14 C8 1_555 1_555
H11 C14 1_555 1_555
H12 C14 1_555 1_555
H13 C14 1_555 1_555
C15 C7 1_555 1_555
H14 C15 1_555 1_555
H15 C15 1_555 1_555
H16 C15 1_555 1_555
N2 C16 1_555 1_555
C16 H17 1_555 1_555
C17 C16 1_555 1_555
H18 C17 1_555 1_555
C18 C17 1_555 1_555
C19 C18 1_555 1_555
H19 C19 1_555 1_555
C20 N2 1_555 1_555
H20 C20 1_555 1_555
C21 C18 1_555 1_555
C22 C21 1_555 1_555
C23 C22 1_555 1_555
C24 B1 1_555 1_555
C25 C24 1_555 1_555
C26 C21 1_555 1_555
C27 C26 1_555 1_555
H21 C27 1_555 1_555
H22 C27 1_555 1_555
H23 C27 1_555 1_555
C28 C25 1_555 1_555
H24 C28 1_555 1_555
H25 C28 1_555 1_555
H26 C28 1_555 1_555
C29 C23 1_555 1_555
H27 C29 1_555 1_555
H28 C29 1_555 1_555
H29 C29 1_555 1_555
C30 C22 1_555 1_555
H30 C30 1_555 1_555
H31 C30 1_555 1_555
H32 C30 1_555 1_555
N3 C31 1_555 1_555
C31 H33 1_555 1_555
C32 C31 1_555 1_555
H34 C32 1_555 1_555
C33 C32 1_555 1_555
C34 C33 1_555 1_555
H35 C34 1_555 1_555
C35 N3 1_555 1_555
H36 C35 1_555 1_555
C36 C33 1_555 1_555
C37 C36 1_555 1_555
C38 C37 1_555 1_555
C39 B1 1_555 1_555
C40 C39 1_555 1_555
C41 C36 1_555 1_555
C42 C41 1_555 1_555
H37 C42 1_555 1_555
H38 C42 1_555 1_555
H39 C42 1_555 1_555
C43 C40 1_555 1_555
H40 C43 1_555 1_555
H41 C43 1_555 1_555
H42 C43 1_555 1_555
C44 C38 1_555 1_555
H43 C44 1_555 1_555
H44 C44 1_555 1_555
H45 C44 1_555 1_555
C45 C37 1_555 1_555
H46 C45 1_555 1_555
H47 C45 1_555 1_555
H48 C45 1_555 1_555
N4 Ag1 1_555 1_555
C46 N4 1_555 1_555
H49 C46 1_555 1_555
C47 C46 1_555 1_555
H50 C47 1_555 1_555
C48 C47 1_555 1_555
C49 C48 1_555 1_555
H51 C49 1_555 1_555
C50 N4 1_555 1_555
H52 C50 1_555 1_555
C51 C48 1_555 1_555
C52 C51 1_555 1_555
C53 C52 1_555 1_555
C54 C53 1_555 1_555
C55 C54 1_555 1_555
C56 C51 1_555 1_555
C57 C56 1_555 1_555
H53 C57 1_555 1_555
H54 C57 1_555 1_555
H55 C57 1_555 1_555
C58 C55 1_555 1_555
H56 C58 1_555 1_555
H57 C58 1_555 1_555
H58 C58 1_555 1_555
C59 C53 1_555 1_555
H59 C59 1_555 1_555
H60 C59 1_555 1_555
H61 C59 1_555 1_555
C60 C52 1_555 1_555
H62 C60 1_555 1_555
H63 C60 1_555 1_555
H64 C60 1_555 1_555
N5 C61 1_555 1_555
C61 H65 1_555 1_555
C62 C61 1_555 1_555
H66 C62 1_555 1_555
C63 C62 1_555 1_555
C64 C63 1_555 1_555
H67 C64 1_555 1_555
C65 N5 1_555 1_555
H68 C65 1_555 1_555
C66 C63 1_555 1_555
C67 C66 1_555 1_555
C68 C67 1_555 1_555
C69 B2 1_555 1_555
C70 C69 1_555 1_555
C71 C66 1_555 1_555
C72 C71 1_555 1_555
H69 C72 1_555 1_555
H70 C72 1_555 1_555
H71 C72 1_555 1_555
C73 C70 1_555 1_555
H72 C73 1_555 1_555
H73 C73 1_555 1_555
H74 C73 1_555 1_555
C74 C68 1_555 1_555
H75 C74 1_555 1_555
H76 C74 1_555 1_555
H77 C74 1_555 1_555
C75 C67 1_555 1_555
H78 C75 1_555 1_555
H79 C75 1_555 1_555
H80 C75 1_555 1_555
N6 C76 1_555 1_555
C76 H81 1_555 1_555
C77 C76 1_555 1_555
H82 C77 1_555 1_555
C78 C77 1_555 1_555
C79 C78 1_555 1_555
H83 C79 1_555 1_555
C80 N6 1_555 1_555
H84 C80 1_555 1_555
C81 C78 1_555 1_555
C82 C81 1_555 1_555
C83 C82 1_555 1_555
C84 B2 1_555 1_555
C85 C84 1_555 1_555
C86 C81 1_555 1_555
C87 C86 1_555 1_555
H85 C87 1_555 1_555
H86 C87 1_555 1_555
H87 C87 1_555 1_555
C88 C85 1_555 1_555
H88 C88 1_555 1_555
H89 C88 1_555 1_555
H90 C88 1_555 1_555
C89 C83 1_555 1_555
H91 C89 1_555 1_555
H92 C89 1_555 1_555
H93 C89 1_555 1_555
C90 C82 1_555 1_555
H94 C90 1_555 1_555
H95 C90 1_555 1_555
H96 C90 1_555 1_555
N7 Ag2 1_555 1_555
C91 N7 1_555 1_555
H97 C91 1_555 1_555
C92 C91 1_555 1_555
H98 C92 1_555 1_555
C93 C92 1_555 1_555
C94 C93 1_555 1_555
H99 C94 1_555 1_555
C95 N7 1_555 1_555
H100 C95 1_555 1_555
C96 C93 1_555 1_555
C97 C96 1_555 1_555
C98 C97 1_555 1_555
C99 C98 1_555 1_555
C100 C99 1_555 1_555
C101 C96 1_555 1_555
C102 C101 1_555 1_555
H101 C102 1_555 1_555
H102 C102 1_555 1_555
H103 C102 1_555 1_555
C103 C100 1_555 1_555
H104 C103 1_555 1_555
H105 C103 1_555 1_555
H106 C103 1_555 1_555
C104 C98 1_555 1_555
H107 C104 1_555 1_555
H108 C104 1_555 1_555
H109 C104 1_555 1_555
C105 C97 1_555 1_555
H110 C105 1_555 1_555
H111 C105 1_555 1_555
H112 C105 1_555 1_555
N8 C106 1_555 1_555
C106 H113 1_555 1_555
C107 C106 1_555 1_555
H114 C107 1_555 1_555
C108 C107 1_555 1_555
C109 C108 1_555 1_555
H115 C109 1_555 1_555
C110 N8 1_555 1_555
H116 C110 1_555 1_555
C111 C108 1_555 1_555
C112 C111 1_555 1_555
C113 C112 1_555 1_555
C114 B3 1_555 1_555
C115 C114 1_555 1_555
C116 C111 1_555 1_555
C117 C115 1_555 1_555
H117 C117 1_555 1_555
H118 C117 1_555 1_555
H119 C117 1_555 1_555
C118 C116 1_555 1_555
H120 C118 1_555 1_555
H121 C118 1_555 1_555
H122 C118 1_555 1_555
C119 C112 1_555 1_555
H123 C119 1_555 1_555
H124 C119 1_555 1_555
H125 C119 1_555 1_555
C120 C113 1_555 1_555
H126 C120 1_555 1_555
H127 C120 1_555 1_555
H128 C120 1_555 1_555
N9 C121 1_555 1_555
C121 H129 1_555 1_555
C122 C121 1_555 1_555
H130 C122 1_555 1_555
C123 C122 1_555 1_555
C124 C123 1_555 1_555
H131 C124 1_555 1_555
C125 N9 1_555 1_555
H132 C125 1_555 1_555
C126 C123 1_555 1_555
C127 C126 1_555 1_555
C128 C127 1_555 1_555
C129 B3 1_555 1_555
C130 C129 1_555 1_555
C131 C126 1_555 1_555
C132 C131 1_555 1_555
H133 C132 1_555 1_555
H134 C132 1_555 1_555
H135 C132 1_555 1_555
C133 C130 1_555 1_555
H136 C133 1_555 1_555
H137 C133 1_555 1_555
H138 C133 1_555 1_555
C134 C128 1_555 1_555
H139 C134 1_555 1_555
H140 C134 1_555 1_555
H141 C134 1_555 1_555
C135 C127 1_555 1_555
H142 C135 1_555 1_555
H143 C135 1_555 1_555
H144 C135 1_555 1_555
S1 O1 1_555 1_555
O2 S1 1_555 1_555
O3 Ag3 1_555 1_555
C136 S1 1_555 1_555
F1 C136 1_555 1_555
F2 C136 1_555 1_555
F3 C136 1_555 1_555
S2 O4 1_555 1_555
O5 S2 1_555 1_555
O6 S2 1_555 1_555
C137 S2 1_555 1_555
F4 C137 1_555 1_555
F5 C137 1_555 1_555
F6 C137 1_555 1_555
S3 O7 1_555 1_555
O8 S3 1_555 1_555
O9 S3 1_555 1_555
C138 S3 1_555 1_555
F7 C138 1_555 1_555
F8 C138 1_555 1_555
F9 C138 1_555 1_555
N10 C139 1_555 1_555
C139 C140 1_555 1_555
N11 C141 1_555 1_555
C141 C142 1_555 1_555
N12 C143 1_555 1_555
C143 C144 1_555 1_555
N13 C145 1_555 1_555
C145 C146 1_555 1_555
N14 C147 1_555 1_555
C147 C148 1_555 1_555
N15 C149 1_555 1_555
C149 C150 1_555 1_555
N16 C151 1_555 1_555
C151 C152 1_555 1_555
N17 C153 1_555 1_555
C153 C154 1_555 1_555
N18 C155 1_555 1_555
C155 C156 1_555 1_555
Ag1B N6 1_555 1_555
Ag2A N5 1_555 1_555
Ag3C N8 1_555 1_555
Ag3A N9 1_555 1_555
N5A Ag2 1_555 1_555
N6B Ag1 1_555 1_555
N8C Ag3 1_555 1_555
N9A Ag3 1_555 1_555
C4 C5 1_555 1_555
C10 C11 1_555 1_555
C19 C20 1_555 1_555
C23 C24 1_555 1_555
C25 C26 1_555 1_555
C34 C35 1_555 1_555
C38 C39 1_555 1_555
C40 C41 1_555 1_555
C49 C50 1_555 1_555
C55 C56 1_555 1_555
C64 C65 1_555 1_555
C68 C69 1_555 1_555
C70 C71 1_555 1_555
C79 C80 1_555 1_555
C83 C84 1_555 1_555
C85 C86 1_555 1_555
C94 C95 1_555 1_555
C100 C101 1_555 1_555
C109 C110 1_555 1_555
C113 C114 1_555 1_555
C115 C116 1_555 1_555
C124 C125 1_555 1_555
C128 C129 1_555 1_555
C130 C131 1_555 1_555
S1 O3 1_555 1_555

#END
