
#######################################################################
#
#                 Cambridge Crystallographic Data Centre
#                                CCDC 
#
#######################################################################
#
# If this CIF has been generated from an entry in the Cambridge 
# Structural Database, then it will include bibliographic, chemical, 
# crystal, experimental, refinement or atomic coordinate data resulting 
# from the CCDC's data processing and validation procedures.
#
#######################################################################

data_CUTKIM01
_symmetry_cell_setting           monoclinic
_symmetry_space_group_name_H-M   'P 21/c'
_symmetry_Int_Tables_number      14
_space_group_name_Hall           '-P 2ybc'
loop_
_symmetry_equiv_pos_site_id
_symmetry_equiv_pos_as_xyz
1 x,y,z
2 -x,1/2+y,1/2-z
3 -x,-y,-z
4 x,1/2-y,1/2+z
_cell_length_a                   11.0512(13)
_cell_length_b                   23.463(3)
_cell_length_c                   15.7410(19)
_cell_angle_alpha                90
_cell_angle_beta                 101.882(2)
_cell_angle_gamma                90
_cell_volume                     3994.1
loop_
_atom_site_label
_atom_site_type_symbol
_atom_site_fract_x
_atom_site_fract_y
_atom_site_fract_z
Cd1 Cd 0.34497(2) 0.262669(11) 0.637354(16)
Cd2 Cd 0.13967(3) 0.287041(14) 0.40637(2)
O1 O 0.2366(3) 0.35474(11) 0.34320(17)
O2 O 0.1334(3) 0.24912(12) 0.5437(2)
C1 C 0.2769(3) 0.33920(15) 0.2761(2)
N1 N -0.0042(4) 0.26971(15) 0.2770(3)
C2 C 0.0917(4) 0.20155(17) 0.5131(3)
O3 O 0.0724(3) 0.19112(14) 0.43343(19)
N2 N 0.5346(3) 0.26622(15) 0.7504(2)
C3 C 0.3618(4) 0.43578(16) 0.2557(2)
C4 C 0.0085(4) 0.10850(19) 0.5482(3)
C5 C 0.4067(3) 0.48055(16) 0.2046(2)
C6 C 0.6157(4) 0.30788(17) 0.7420(3)
C7 C 0.0103(4) 0.06006(17) 0.6913(3)
H1 H 0.0614 0.0885 0.7203
C8 C 0.4823(4) 0.52457(16) 0.2456(2)
H2 H 0.5052 0.5252 0.3058
C9 C 0.3310(4) 0.38340(16) 0.2274(2)
C10 C -0.0277(4) 0.06322(17) 0.6012(3)
N3 N 0.4946(3) 0.32926(14) 0.6000(2)
C11 C 0.0629(4) 0.15788(17) 0.5753(3)
C12 C 0.5947(4) 0.34186(17) 0.6638(3)
N4 N -0.0370(3) 0.35049(15) 0.3942(2)
C13 C -0.1206(4) 0.34720(17) 0.3183(3)
C14 C 0.5234(4) 0.56710(16) 0.1978(2)
H3 H 0.5750 0.5955 0.2262
C15 C 0.5574(4) 0.2340(2) 0.8210(3)
H4 H 0.5013 0.2054 0.8267
C16 C 0.5502(5) 0.4060(2) 0.5164(3)
H5 H 0.5327 0.4270 0.4652
C17 C 0.7225(4) 0.3187(2) 0.8070(3)
C18 C -0.0255(4) 0.01619(17) 0.7383(3)
H6 H 0.0021 0.0151 0.7982
C19 C 0.3720(4) 0.48149(18) 0.1144(3)
H7 H 0.3210 0.4530 0.0858
C20 C 0.6626(5) 0.2409(2) 0.8876(4)
H8 H 0.6765 0.2168 0.9356
C21 C 0.8036(5) 0.3649(2) 0.7963(4)
H9 H 0.8726 0.3722 0.8398
C22 C 0.7825(5) 0.3969(2) 0.7265(4)
H10 H 0.8362 0.4266 0.7217
C23 C 0.4753(4) 0.36079(19) 0.5287(3)
H11 H 0.4079 0.3521 0.4847
C24 C 0.6753(4) 0.38643(19) 0.6560(3)
C25 C 0.6500(5) 0.4196(2) 0.5801(3)
H12 H 0.7004 0.4504 0.5733
C26 C -0.1958(5) 0.2973(2) 0.1803(3)
C27 C -0.1046(4) 0.30380(18) 0.2568(3)
C28 C 0.7430(5) 0.2832(2) 0.8808(3)
H13 H 0.8121 0.2888 0.9249
C29 C -0.2224(5) 0.3846(2) 0.2980(4)
C30 C -0.2964(6) 0.3356(4) 0.1623(5)
H14 H -0.3553 0.3315 0.1111
C31 C -0.3086(5) 0.3775(3) 0.2176(5)
H15 H -0.3747 0.4027 0.2033
C32 C -0.2312(7) 0.4267(2) 0.3618(6)
H16 H -0.2957 0.4529 0.3512
C33 C -0.1032(5) 0.0192(2) 0.5595(3)
H17 H -0.1288 0.0197 0.4994
C34 C -0.0545(6) 0.3899(3) 0.4495(4)
H18 H 0.0015 0.3915 0.5023
C35 C 0.0100(6) 0.2282(3) 0.2230(4)
H19 H 0.0787 0.2045 0.2372
C36 C -0.1735(7) 0.2508(3) 0.1242(5)
H20 H -0.2300 0.2439 0.0727
C37 C -0.1499(7) 0.4291(3) 0.4352(5)
H21 H -0.1562 0.4565 0.4767
C38 C -0.0753(7) 0.2187(3) 0.1452(5)
H22 H -0.0620 0.1895 0.1084
C39 C 0.4129(4) 0.52448(18) 0.0671(3)
H23 H 0.3892 0.5242 0.0068
C40 C 0.4885(4) 0.56806(16) 0.1076(3)
C41 C 0.5292(4) 0.61267(17) 0.0540(3)
C42 C 0.5922(4) 0.65948(16) 0.0805(2)
C43 C 0.6223(3) 0.70297(16) 0.0182(3)
O4 O 0.6626(2) 0.75027(11) 0.04808(19)
O5 O 0.6029(3) 0.68966(11) -0.06166(17)
O6 O 0.2708(3) 0.28901(10) 0.24860(17)
C44 C -0.1399(4) -0.0247(2) 0.6063(3)
H24 H -0.1899 -0.0534 0.5770
C45 C -0.1042(4) -0.02734(17) 0.6960(3)
C46 C -0.1514(4) -0.07394(17) 0.7421(3)
C47 C -0.1510(4) -0.07859(17) 0.8266(3)
C48 C -0.2121(4) -0.12674(17) 0.8617(3)
O7 O -0.2606(3) -0.16493(11) 0.80878(19)
O8 O -0.2116(4) -0.12764(14) 0.9417(2)
H25 H 0.088(5) 0.163(2) 0.6346(9)
H26 H -0.009(4) 0.1006(18) 0.4893(9)
H27 H -0.126(4) -0.0497(12) 0.866(2)
H28 H -0.188(5) -0.1020(16) 0.703(3)
H29 H 0.611(3) 0.6711(14) 0.1387(9)
H30 H 0.507(4) 0.6049(19) -0.0049(9)
H31 H 0.357(5) 0.446(2) 0.3118(14)
H32 H 0.348(4) 0.3661(15) 0.1778(16)
Cd1A Cd -0.34497(2) -0.237331(11) 0.862646(16)
Cd1A_2 Cd 0.65503(2) 0.762669(11) -0.137354(16)
Cd1C Cd 0.34497(2) 0.237331(11) 0.137354(16)
Cd2A Cd 0.86033(3) 0.787041(14) 0.09363(2)
O4A O 0.3374(2) 0.25027(11) 0.45192(19)
O5A O 0.3971(3) 0.18966(11) 0.56166(17)
O6C O 0.2708(3) 0.21099(10) 0.74860(17)
O7A O 0.2606(3) 0.33507(11) 0.69122(19)
O9 O 0.2046(4) 0.45791(17) 0.4365(2)
H33 H 0.2783(17) 0.450(2) 0.455(3)
H34 H 0.179(4) 0.444(2) 0.3876(17)
loop_
_geom_bond_atom_site_label_1
_geom_bond_atom_site_label_2
_geom_bond_site_symmetry_1
_geom_bond_site_symmetry_2
Cd1 O2 1_555 1_555
Cd2 O1 1_555 1_555
O1 C1 1_555 1_555
O2 Cd2 1_555 1_555
C1 C9 1_555 1_555
N1 Cd2 1_555 1_555
C2 O2 1_555 1_555
O3 Cd2 1_555 1_555
N2 Cd1 1_555 1_555
C3 C5 1_555 1_555
C4 C10 1_555 1_555
C5 C8 1_555 1_555
C6 N2 1_555 1_555
C7 H1 1_555 1_555
C8 H2 1_555 1_555
C9 C3 1_555 1_555
C10 C7 1_555 1_555
N3 Cd1 1_555 1_555
C11 C2 1_555 1_555
C12 C6 1_555 1_555
N4 Cd2 1_555 1_555
C13 N4 1_555 1_555
C14 C8 1_555 1_555
H3 C14 1_555 1_555
C15 N2 1_555 1_555
H4 C15 1_555 1_555
C16 H5 1_555 1_555
C17 C6 1_555 1_555
C18 C7 1_555 1_555
H6 C18 1_555 1_555
C19 C5 1_555 1_555
H7 C19 1_555 1_555
C20 C15 1_555 1_555
H8 C20 1_555 1_555
C21 C17 1_555 1_555
H9 C21 1_555 1_555
C22 C21 1_555 1_555
H10 C22 1_555 1_555
C23 N3 1_555 1_555
H11 C23 1_555 1_555
C24 C12 1_555 1_555
C25 C16 1_555 1_555
H12 C25 1_555 1_555
C26 C27 1_555 1_555
C27 N1 1_555 1_555
C28 C17 1_555 1_555
H13 C28 1_555 1_555
C29 C13 1_555 1_555
C30 C26 1_555 1_555
H14 C30 1_555 1_555
C31 C29 1_555 1_555
H15 C31 1_555 1_555
C32 C29 1_555 1_555
H16 C32 1_555 1_555
C33 C10 1_555 1_555
H17 C33 1_555 1_555
C34 N4 1_555 1_555
H18 C34 1_555 1_555
C35 N1 1_555 1_555
H19 C35 1_555 1_555
C36 C26 1_555 1_555
H20 C36 1_555 1_555
C37 C32 1_555 1_555
H21 C37 1_555 1_555
C38 C35 1_555 1_555
H22 C38 1_555 1_555
C39 C19 1_555 1_555
H23 C39 1_555 1_555
C40 C14 1_555 1_555
C41 C40 1_555 1_555
C42 C41 1_555 1_555
C43 C42 1_555 1_555
O4 C43 1_555 1_555
O5 C43 1_555 1_555
O6 C1 1_555 1_555
C44 C33 1_555 1_555
H24 C44 1_555 1_555
C45 C18 1_555 1_555
C46 C45 1_555 1_555
C47 C46 1_555 1_555
C48 C47 1_555 1_555
O7 C48 1_555 1_555
O8 C48 1_555 1_555
H25 C11 1_555 1_555
H26 C4 1_555 1_555
H27 C47 1_555 1_555
H28 C46 1_555 1_555
H29 C42 1_555 1_555
H30 C41 1_555 1_555
H31 C3 1_555 1_555
H32 C9 1_555 1_555
O9 H33 1_555 1_555
H34 O9 1_555 1_555
Cd1A O7 1_555 1_555
Cd1A_2 O5 1_555 1_555
Cd1C O6 1_555 1_555
Cd2A O4 1_555 1_555
O4A Cd2 1_555 1_555
O5A Cd1 1_555 1_555
O6C Cd1 1_555 1_555
O7A Cd1 1_555 1_555
C2 O3 1_555 1_555
C4 C11 1_555 1_555
N3 C12 1_555 1_555
C13 C27 1_555 1_555
C16 C23 1_555 1_555
C20 C28 1_555 1_555
C22 C24 1_555 1_555
C24 C25 1_555 1_555
C30 C31 1_555 1_555
C34 C37 1_555 1_555
C36 C38 1_555 1_555
C39 C40 1_555 1_555
C44 C45 1_555 1_555

#END
