
#######################################################################
#
#                 Cambridge Crystallographic Data Centre
#                                CCDC 
#
#######################################################################
#
# If this CIF has been generated from an entry in the Cambridge 
# Structural Database, then it will include bibliographic, chemical, 
# crystal, experimental, refinement or atomic coordinate data resulting 
# from the CCDC's data processing and validation procedures.
#
#######################################################################

data_CUTMUA
_symmetry_cell_setting           orthorhombic
_symmetry_space_group_name_H-M   'P n m a'
_symmetry_Int_Tables_number      62
_space_group_name_Hall           '-P 2ac 2n'
loop_
_symmetry_equiv_pos_site_id
_symmetry_equiv_pos_as_xyz
1 x,y,z
2 1/2-x,-y,1/2+z
3 1/2+x,1/2-y,1/2-z
4 -x,1/2+y,-z
5 -x,-y,-z
6 1/2+x,y,1/2-z
7 1/2-x,1/2+y,1/2+z
8 x,1/2-y,z
_cell_length_a                   28.2850(15)
_cell_length_b                   17.141(5)
_cell_length_c                   7.163(8)
_cell_angle_alpha                90
_cell_angle_beta                 90
_cell_angle_gamma                90
_cell_volume                     3472.86
loop_
_atom_site_label
_atom_site_type_symbol
_atom_site_fract_x
_atom_site_fract_y
_atom_site_fract_z
C1 C 0.0742(2) 0.6147(3) 0.8908(7)
H1 H 0.0929 0.6541 0.9409
C2 C 0.08817(19) 0.5392(3) 0.9152(7)
H2 H 0.1159 0.5283 0.9800
C3 C 0.06148(17) 0.4794(3) 0.8445(6)
C4 C 0.02027(18) 0.4993(3) 0.7550(7)
H3 H 0.0005 0.4607 0.7082
C5 C 0.00838(18) 0.5772(3) 0.7349(7)
H4 H -0.0196 0.5896 0.6736
C6 C 0.07571(19) 0.3954(3) 0.8602(8)
H5 H 0.0568 0.3697 0.9549
H6 H 0.0705 0.3691 0.7421
C7 C 0.14441(18) 0.3195(3) 0.9169(7)
C8 C 0.1929(2) 0.3195(3) 0.9413(7)
H7 H 0.2093 0.3663 0.9512
C9 C 0.2165(3) 0.2500 0.9507(10)
H8 H 0.2492 0.2500 0.9638
C10 C 0.1199(3) 0.2500 0.9048(9)
H9 H 0.0873 0.2500 0.8886
N1 N 0.03495(14) 0.6351(2) 0.7985(6)
O1 O 0.01791(19) 0.8101(3) 0.4004(9)
N3 N -0.0778(3) 0.7500 0.6528(10)
O2 O 0.12383(13) 0.39135(17) 0.9086(6)
N4 N 0.0183(2) 0.7500 0.3132(10)
O4 O 0.0181(3) 0.7500 0.1476(12)
O5 O 0.09645(17) 0.7500 0.6453(8)
H19 H 0.1086 0.7887 0.5888
O6 O -0.0435(2) 0.7500 0.7574(10)
O7 O -0.0940(3) 0.8085(4) 0.6029(10)
Zn1 Zn 0.02571(3) 0.7500 0.69757(12)
C1G C 0.0742(2) -0.1147(3) 0.8908(7)
H1G H 0.0929 -0.1541 0.9409
C2G C 0.08817(19) -0.0392(3) 0.9152(7)
H2G H 0.1159 -0.0283 0.9800
C3G C 0.06148(17) 0.0206(3) 0.8445(6)
C4G C 0.02027(18) 0.0007(3) 0.7550(7)
H3G H 0.0005 0.0393 0.7082
C5G C 0.00838(18) -0.0772(3) 0.7349(7)
H4G H -0.0196 -0.0896 0.6736
C6G C 0.07571(19) 0.1046(3) 0.8602(8)
H5G H 0.0568 0.1303 0.9549
H6G H 0.0705 0.1309 0.7421
C7G C 0.14441(18) 0.1805(3) 0.9169(7)
C8G C 0.1929(2) 0.1805(3) 0.9413(7)
H7G H 0.2093 0.1337 0.9512
N1G N 0.03495(14) -0.1351(2) 0.7985(6)
N1G_2 N 0.03495(14) 0.8649(2) 0.7985(6)
O1G O 0.01791(19) 0.6899(3) 0.4004(9)
O2G O 0.12383(13) 0.10865(17) 0.9086(6)
H19G H 0.1086 0.7113 0.5888
O7G O -0.0940(3) 0.6915(4) 0.6029(10)
Zn1_2 Zn 0.02571(3) -0.2500 0.69757(12)
C11 C 0.1791(2) -0.1002(3) 0.5896(8)
H10 H 0.1951 -0.1375 0.6597
C12 C 0.1997(2) -0.0293(3) 0.5701(8)
H11 H 0.2290 -0.0191 0.6242
C13 C 0.17658(19) 0.0276(3) 0.4688(7)
C14 C 0.13402(19) 0.0073(3) 0.3903(7)
H12 H 0.1174 0.0434 0.3189
C15 C 0.1159(2) -0.0663(3) 0.4172(8)
H13 H 0.0870 -0.0787 0.3634
C16 C 0.19458(19) 0.1082(3) 0.4468(8)
H14 H 0.1896 0.1257 0.3195
H15 H 0.1776 0.1431 0.5298
C17 C 0.26385(19) 0.1812(3) 0.5204(7)
C18 C 0.30795(19) 0.1808(3) 0.6009(8)
H16 H 0.3229 0.1339 0.6293
C19 C 0.3294(3) 0.2500 0.6384(11)
H17 H 0.3595 0.2500 0.6908
C20 C 0.2412(3) 0.2500 0.4760(9)
H18 H 0.2118 0.2500 0.4181
N2 N 0.13807(18) -0.1203(2) 0.5168(6)
O3 O 0.24363(13) 0.10947(18) 0.4898(6)
C11G C 0.1791(2) 0.6002(3) 0.5896(8)
H10G H 0.1951 0.6375 0.6597
C12G C 0.1997(2) 0.5293(3) 0.5701(8)
H11G H 0.2290 0.5191 0.6242
C13G C 0.17658(19) 0.4724(3) 0.4688(7)
C14G C 0.13402(19) 0.4927(3) 0.3903(7)
H12G H 0.1174 0.4566 0.3189
C15G C 0.1159(2) 0.5663(3) 0.4172(8)
H13G H 0.0870 0.5787 0.3634
C16G C 0.19458(19) 0.3918(3) 0.4468(8)
H14G H 0.1896 0.3743 0.3195
H15G H 0.1776 0.3569 0.5298
C17G C 0.26385(19) 0.3188(3) 0.5204(7)
C18G C 0.30795(19) 0.3192(3) 0.6009(8)
H16G H 0.3229 0.3661 0.6293
N2G N 0.13807(18) 0.6203(2) 0.5168(6)
O3G O 0.24363(13) 0.39053(18) 0.4898(6)
loop_
_geom_bond_atom_site_label_1
_geom_bond_atom_site_label_2
_geom_bond_site_symmetry_1
_geom_bond_site_symmetry_2
C1 H1 1_555 1_555
C2 C1 1_555 1_555
H2 C2 1_555 1_555
C3 C2 1_555 1_555
C4 C3 1_555 1_555
H3 C4 1_555 1_555
C5 C4 1_555 1_555
H4 C5 1_555 1_555
C6 C3 1_555 1_555
H5 C6 1_555 1_555
H6 C6 1_555 1_555
C7 C8 1_555 1_555
C8 H7 1_555 1_555
C9 C8 1_555 1_555
H8 C9 1_555 1_555
C10 C7 1_555 1_555
H9 C10 1_555 1_555
C11 H10 1_555 1_555
C12 C11 1_555 1_555
H11 C12 1_555 1_555
C13 C12 1_555 1_555
C14 C13 1_555 1_555
H12 C14 1_555 1_555
C15 C14 1_555 1_555
H13 C15 1_555 1_555
C16 C13 1_555 1_555
H14 C16 1_555 1_555
H15 C16 1_555 1_555
C17 C18 1_555 1_555
C18 H16 1_555 1_555
C19 C18 1_555 1_555
H17 C19 1_555 1_555
C20 C17 1_555 1_555
H18 C20 1_555 1_555
N1 C1 1_555 1_555
N2 C11 1_555 1_555
O1 N4 1_555 1_555
N3 O6 1_555 1_555
O2 C6 1_555 1_555
O3 C16 1_555 1_555
N4 O4 1_555 1_555
O5 H19 1_555 1_555
O6 Zn1 1_555 1_555
O7 N3 1_555 1_555
Zn1 N1 1_555 1_555
C1G H1G 1_555 1_555
C2G C1G 1_555 1_555
H2G C2G 1_555 1_555
C3G C2G 1_555 1_555
C4G C3G 1_555 1_555
H3G C4G 1_555 1_555
C5G C4G 1_555 1_555
H4G C5G 1_555 1_555
C6G C3G 1_555 1_555
H5G C6G 1_555 1_555
H6G C6G 1_555 1_555
C7G C10 1_555 1_555
C8G C9 1_555 1_555
H7G C8G 1_555 1_555
C11G H10G 1_555 1_555
C12G C11G 1_555 1_555
H11G C12G 1_555 1_555
C13G C12G 1_555 1_555
C14G C13G 1_555 1_555
H12G C14G 1_555 1_555
C15G C14G 1_555 1_555
H13G C15G 1_555 1_555
C16G C13G 1_555 1_555
H14G C16G 1_555 1_555
H15G C16G 1_555 1_555
C17G C20 1_555 1_555
C18G C19 1_555 1_555
H16G C18G 1_555 1_555
N1G C1G 1_555 1_555
N1G_2 Zn1 1_555 1_555
N2G C11G 1_555 1_555
O1G N4 1_555 1_555
O2G C6G 1_555 1_555
O3G C16G 1_555 1_555
H19G O5 1_555 1_555
O7G N3 1_555 1_555
Zn1_2 N1G 1_555 1_555
C5 N1 1_555 1_555
C7 O2 1_555 1_555
C15 N2 1_555 1_555
C17 O3 1_555 1_555
O1 Zn1 1_555 1_555
O5 Zn1 1_555 1_555
Zn1 O1G 1_555 1_555
C5G N1G 1_555 1_555
C7G C8G 1_555 1_555
C7G O2G 1_555 1_555
C15G N2G 1_555 1_555
C17G C18G 1_555 1_555
C17G O3G 1_555 1_555

#END
