
#######################################################################
#
#                 Cambridge Crystallographic Data Centre
#                                CCDC 
#
#######################################################################
#
# If this CIF has been generated from an entry in the Cambridge 
# Structural Database, then it will include bibliographic, chemical, 
# crystal, experimental, refinement or atomic coordinate data resulting 
# from the CCDC's data processing and validation procedures.
#
#######################################################################

data_CUVFIJ
_symmetry_cell_setting           monoclinic
_symmetry_space_group_name_H-M   'P 21/n'
_symmetry_Int_Tables_number      14
_space_group_name_Hall           '-P 2yn'
loop_
_symmetry_equiv_pos_site_id
_symmetry_equiv_pos_as_xyz
1 x,y,z
2 1/2-x,1/2+y,1/2-z
3 -x,-y,-z
4 1/2+x,1/2-y,1/2+z
_cell_length_a                   11.3734(18)
_cell_length_b                   8.8235(14)
_cell_length_c                   21.111(3)
_cell_angle_alpha                90
_cell_angle_beta                 94.015(3)
_cell_angle_gamma                90
_cell_volume                     2113.36
loop_
_atom_site_label
_atom_site_type_symbol
_atom_site_fract_x
_atom_site_fract_y
_atom_site_fract_z
Ag1 Ag 0.39856(4) 0.09698(5) 1.01529(2)
O1 O 0.2145(4) 0.0748(5) 0.9429(2)
O2 O 0.3289(4) -0.0967(5) 0.9025(2)
O3 O -0.0268(4) -0.1875(6) 1.0213(2)
H1 H -0.0935 -0.1615 1.0291
O4 O -0.1223(4) -0.2880(6) 0.9370(3)
N1 N 0.4708(4) 0.2807(5) 0.9618(2)
N2 N 0.8383(4) 0.5328(5) 0.5941(2)
C1 C 0.2325(6) -0.0370(8) 0.9062(3)
C2 C 0.1247(5) -0.0897(7) 0.8641(3)
H2 H 0.0545 -0.0717 0.8866
H3 H 0.1186 -0.0281 0.8260
C3 C 0.1268(5) -0.2544(7) 0.8449(3)
C4 C 0.1507(5) -0.2947(10) 0.7830(3)
H4 H 0.1671 -0.2194 0.7541
C5 C 0.1504(6) -0.4459(12) 0.7639(4)
H5 H 0.1666 -0.4718 0.7227
C6 C 0.1260(7) -0.5555(10) 0.8069(6)
H6 H 0.1271 -0.6568 0.7948
C7 C 0.1002(6) -0.5192(8) 0.8671(4)
H7 H 0.0806 -0.5953 0.8949
C8 C 0.1031(5) -0.3694(8) 0.8870(3)
C9 C 0.0860(5) -0.3332(8) 0.9554(3)
H8 H 0.1469 -0.2623 0.9704
H9 H 0.0978 -0.4256 0.9800
C10 C -0.0320(6) -0.2673(7) 0.9692(4)
C11 C 0.4011(5) 0.3453(7) 0.9155(3)
H10 H 0.3259 0.3060 0.9066
C12 C 0.4359(5) 0.4670(7) 0.8807(3)
H11 H 0.3842 0.5095 0.8495
C13 C 0.5478(5) 0.5260(6) 0.8923(3)
C14 C 0.6195(5) 0.4565(7) 0.9388(3)
H12 H 0.6960 0.4917 0.9474
C15 C 0.5795(5) 0.3338(7) 0.9737(3)
H13 H 0.6293 0.2894 1.0052
C16 C 0.5913(5) 0.6566(6) 0.8540(3)
H14 H 0.5256 0.7228 0.8416
H15 H 0.6483 0.7147 0.8803
C17 C 0.6475(6) 0.6037(6) 0.7954(3)
H16 H 0.5898 0.5476 0.7687
H17 H 0.7119 0.5354 0.8078
C18 C 0.6946(5) 0.7348(6) 0.7571(3)
H18 H 0.6311 0.8045 0.7449
H19 H 0.7544 0.7895 0.7829
C19 C 0.7462(5) 0.6747(6) 0.6992(3)
C20 C 0.6774(5) 0.6426(7) 0.6444(3)
H20 H 0.5979 0.6681 0.6418
C21 C 0.7248(5) 0.5734(6) 0.5934(3)
H21 H 0.6759 0.5542 0.5572
C22 C 0.9064(5) 0.5689(6) 0.6462(3)
H22 H 0.9866 0.5478 0.6470
C23 C 0.8628(5) 0.6358(6) 0.6985(3)
H23 H 0.9134 0.6550 0.7341
Ag1B Ag 0.60144(4) -0.09698(5) 0.98471(2)
Ag1C Ag 0.89856(4) 0.40302(5) 0.51529(2)
N2C N 0.3383(4) -0.0328(5) 1.0941(2)
loop_
_geom_bond_atom_site_label_1
_geom_bond_atom_site_label_2
_geom_bond_site_symmetry_1
_geom_bond_site_symmetry_2
Ag1 O1 1_555 1_555
O1 C1 1_555 1_555
O2 C1 1_555 1_555
O3 H1 1_555 1_555
O4 C10 1_555 1_555
N1 Ag1 1_555 1_555
N2 C21 1_555 1_555
C1 C2 1_555 1_555
C2 H2 1_555 1_555
H3 C2 1_555 1_555
C3 C2 1_555 1_555
C4 C3 1_555 1_555
H4 C4 1_555 1_555
C5 C4 1_555 1_555
H5 C5 1_555 1_555
C6 C5 1_555 1_555
H6 C6 1_555 1_555
C7 C6 1_555 1_555
H7 C7 1_555 1_555
C8 C3 1_555 1_555
C9 C8 1_555 1_555
H8 C9 1_555 1_555
H9 C9 1_555 1_555
C10 O3 1_555 1_555
C11 N1 1_555 1_555
H10 C11 1_555 1_555
C12 C11 1_555 1_555
H11 C12 1_555 1_555
C13 C12 1_555 1_555
C14 C13 1_555 1_555
H12 C14 1_555 1_555
C15 N1 1_555 1_555
H13 C15 1_555 1_555
C16 C13 1_555 1_555
H14 C16 1_555 1_555
H15 C16 1_555 1_555
C17 C16 1_555 1_555
H16 C17 1_555 1_555
H17 C17 1_555 1_555
C18 C17 1_555 1_555
H18 C18 1_555 1_555
H19 C18 1_555 1_555
C19 C18 1_555 1_555
C20 C19 1_555 1_555
H20 C20 1_555 1_555
C21 C20 1_555 1_555
H21 C21 1_555 1_555
C22 N2 1_555 1_555
H22 C22 1_555 1_555
C23 C19 1_555 1_555
H23 C23 1_555 1_555
Ag1B Ag1 1_555 1_555
Ag1C N2 1_555 1_555
N2C Ag1 1_555 1_555
C7 C8 1_555 1_555
C9 C10 1_555 1_555
C14 C15 1_555 1_555
C22 C23 1_555 1_555

#END
