
#######################################################################
#
#                 Cambridge Crystallographic Data Centre
#                                CCDC 
#
#######################################################################
#
# If this CIF has been generated from an entry in the Cambridge 
# Structural Database, then it will include bibliographic, chemical, 
# crystal, experimental, refinement or atomic coordinate data resulting 
# from the CCDC's data processing and validation procedures.
#
#######################################################################

data_CUVFAB
_symmetry_cell_setting           monoclinic
_symmetry_space_group_name_H-M   'P 21/c'
_symmetry_Int_Tables_number      14
_space_group_name_Hall           '-P 2ybc'
loop_
_symmetry_equiv_pos_site_id
_symmetry_equiv_pos_as_xyz
1 x,y,z
2 -x,1/2+y,1/2-z
3 -x,-y,-z
4 x,1/2-y,1/2+z
_cell_length_a                   10.686(2)
_cell_length_b                   18.519(4)
_cell_length_c                   15.891(4)
_cell_angle_alpha                90
_cell_angle_beta                 106.038(4)
_cell_angle_gamma                90
_cell_volume                     3022.34
loop_
_atom_site_label
_atom_site_type_symbol
_atom_site_fract_x
_atom_site_fract_y
_atom_site_fract_z
Ag1 Ag 0.39983(6) 0.26885(4) 0.71495(4)
Ag2 Ag 0.42821(6) 0.74260(4) 0.91215(4)
O1 O 0.5446(6) 0.6390(3) 0.8664(4)
O2 O 0.3848(6) 0.5887(3) 0.9110(4)
O3 O 0.3851(5) 0.4061(3) 0.7319(4)
O4 O 0.5142(6) 0.3848(3) 0.6496(4)
N1 N 0.5805(6) 0.2558(3) 0.8212(4)
N2 N 1.2034(6) 0.2377(3) 1.1261(4)
N3 N 0.6025(6) 0.7532(3) 1.0263(4)
N4 N 1.2262(6) 0.7490(3) 1.3284(4)
C1 C 0.4896(8) 0.5864(5) 0.8913(5)
C2 C 0.5588(7) 0.5138(4) 0.8996(5)
H9 H 0.5919 0.5023 0.9613
H10 H 0.4953 0.4772 0.8732
C3 C 0.6697(7) 0.5092(4) 0.8586(5)
C4 C 0.7939(8) 0.5075(4) 0.9122(6)
H11 H 0.8078 0.5078 0.9726
C5 C 0.9023(9) 0.5053(5) 0.8769(7)
H12 H 0.9866 0.5044 0.9139
C6 C 0.8821(10) 0.5046(4) 0.7894(8)
H13 H 0.9530 0.5025 0.7663
C7 C 0.7570(9) 0.5069(4) 0.7334(6)
H14 H 0.7442 0.5075 0.6730
C8 C 0.6495(8) 0.5083(4) 0.7684(6)
C9 C 0.5142(7) 0.5052(4) 0.7058(5)
H15 H 0.5155 0.5251 0.6496
H16 H 0.4551 0.5340 0.7286
C10 C 0.4663(8) 0.4270(4) 0.6940(5)
C11 C 0.6515(8) 0.1953(4) 0.8310(5)
H17 H 0.6195 0.1561 0.7948
C12 C 0.7711(8) 0.1887(4) 0.8932(5)
H18 H 0.8164 0.1453 0.8992
C13 C 0.8236(7) 0.2474(4) 0.9468(5)
C14 C 0.7480(8) 0.3086(4) 0.9351(5)
H19 H 0.7771 0.3487 0.9703
C15 C 0.6299(7) 0.3116(4) 0.8724(5)
H20 H 0.5827 0.3545 0.8655
C16 C 0.9533(7) 0.2442(4) 1.0088(5)
C17 C 1.0025(7) 0.1799(4) 1.0516(5)
H21 H 0.9528 0.1379 1.0420
C18 C 1.1254(8) 0.1801(4) 1.1079(5)
H22 H 1.1569 0.1369 1.1355
C19 C 1.1546(8) 0.2996(4) 1.0835(5)
H23 H 1.2065 0.3408 1.0937
C20 C 1.0341(7) 0.3042(4) 1.0270(5)
H24 H 1.0052 0.3481 1.0001
C21 C 0.6489(7) 0.6924(4) 1.0695(5)
H25 H 0.5990 0.6506 1.0563
C22 C 0.7679(7) 0.6888(4) 1.1332(5)
H26 H 0.7955 0.6462 1.1636
C23 C 0.8460(7) 0.7520(4) 1.1503(4)
C24 C 0.7976(8) 0.8134(4) 1.1041(5)
H27 H 0.8464 0.8557 1.1133
C25 C 0.6771(8) 0.8122(4) 1.0443(5)
H28 H 0.6458 0.8547 1.0147
C26 C 0.9767(8) 0.7495(4) 1.2136(5)
C27 C 1.0550(7) 0.6884(4) 1.2253(5)
H29 H 1.0246 0.6466 1.1938
C28 C 1.1771(7) 0.6894(4) 1.2834(5)
H30 H 1.2272 0.6476 1.2917
C29 C 1.1508(8) 0.8077(4) 1.3174(5)
H31 H 1.1831 0.8487 1.3499
C30 C 1.0295(8) 0.8106(4) 1.2611(5)
H32 H 0.9819 0.8533 1.2543
Ag1A Ag 0.60017(6) 0.76885(4) 0.78505(4)
Ag1C Ag 1.39983(6) 0.23115(4) 1.21495(4)
Ag2A Ag 0.57179(6) 0.24260(4) 0.58785(4)
Ag2C Ag 1.42821(6) 0.75740(4) 1.41215(4)
N2C N 0.2034(6) 0.2623(3) 0.6261(4)
N4C N 0.2262(6) 0.7510(3) 0.8284(4)
O5 O 0.9240(7) 0.0270(4) 0.8767(5)
H1 H 0.9323 0.0169 0.8296
H2 H 0.9962 0.0215 0.9079
H3 H 0.8390 -0.0019 -0.0303
O6 O 0.8244(8) -0.0096(4) 0.0161(5)
H8 H 0.7952 0.0251 0.0323
O7 O 0.2155(6) 0.0112(3) 0.2947(4)
H4 H 0.2702 0.0344 0.2813
H5 H 0.2479 -0.0157 0.3341
H6 H 0.5879 0.0893 0.0594
H7 H 0.5967 0.0294 0.0179
O8 O 0.6083(10) 0.0727(6) 0.0180(5)
loop_
_geom_bond_atom_site_label_1
_geom_bond_atom_site_label_2
_geom_bond_site_symmetry_1
_geom_bond_site_symmetry_2
Ag1 O3 1_555 1_555
Ag2 O1 1_555 1_555
O1 C1 1_555 1_555
O2 C1 1_555 1_555
O3 C10 1_555 1_555
O4 C10 1_555 1_555
N1 Ag1 1_555 1_555
N2 C18 1_555 1_555
N3 Ag2 1_555 1_555
N4 C28 1_555 1_555
O5 H1 1_555 1_555
H2 O5 1_555 1_555
H3 O6 1_555 1_555
O6 H8 1_555 1_555
O7 H4 1_555 1_555
H5 O7 1_555 1_555
H6 O8 1_555 1_555
H7 O8 1_555 1_555
C1 C2 1_555 1_555
C2 H9 1_555 1_555
H10 C2 1_555 1_555
C3 C2 1_555 1_555
C4 C3 1_555 1_555
H11 C4 1_555 1_555
C5 C4 1_555 1_555
H12 C5 1_555 1_555
C6 C5 1_555 1_555
H13 C6 1_555 1_555
C7 C6 1_555 1_555
H14 C7 1_555 1_555
C8 C3 1_555 1_555
C9 C8 1_555 1_555
H15 C9 1_555 1_555
H16 C9 1_555 1_555
C10 C9 1_555 1_555
C11 N1 1_555 1_555
H17 C11 1_555 1_555
C12 C11 1_555 1_555
H18 C12 1_555 1_555
C13 C12 1_555 1_555
C14 C13 1_555 1_555
H19 C14 1_555 1_555
C15 N1 1_555 1_555
H20 C15 1_555 1_555
C16 C13 1_555 1_555
C17 C16 1_555 1_555
H21 C17 1_555 1_555
C18 C17 1_555 1_555
H22 C18 1_555 1_555
C19 N2 1_555 1_555
H23 C19 1_555 1_555
C20 C16 1_555 1_555
H24 C20 1_555 1_555
C21 N3 1_555 1_555
H25 C21 1_555 1_555
C22 C21 1_555 1_555
H26 C22 1_555 1_555
C23 C22 1_555 1_555
C24 C23 1_555 1_555
H27 C24 1_555 1_555
C25 N3 1_555 1_555
H28 C25 1_555 1_555
C26 C23 1_555 1_555
C27 C26 1_555 1_555
H29 C27 1_555 1_555
C28 C27 1_555 1_555
H30 C28 1_555 1_555
C29 N4 1_555 1_555
H31 C29 1_555 1_555
C30 C26 1_555 1_555
H32 C30 1_555 1_555
Ag1A Ag2 1_555 1_555
Ag1C N2 1_555 1_555
Ag2A Ag1 1_555 1_555
Ag2C N4 1_555 1_555
N2C Ag1 1_555 1_555
N4C Ag2 1_555 1_555
C7 C8 1_555 1_555
C14 C15 1_555 1_555
C19 C20 1_555 1_555
C24 C25 1_555 1_555
C29 C30 1_555 1_555

#END
