
#######################################################################
#
#                 Cambridge Crystallographic Data Centre
#                                CCDC 
#
#######################################################################
#
# If this CIF has been generated from an entry in the Cambridge 
# Structural Database, then it will include bibliographic, chemical, 
# crystal, experimental, refinement or atomic coordinate data resulting 
# from the CCDC's data processing and validation procedures.
#
#######################################################################

data_CUVFEF
_symmetry_cell_setting           triclinic
_symmetry_space_group_name_H-M   'P -1'
_symmetry_Int_Tables_number      2
_space_group_name_Hall           '-P 1'
loop_
_symmetry_equiv_pos_site_id
_symmetry_equiv_pos_as_xyz
1 x,y,z
2 -x,-y,-z
_cell_length_a                   11.3125(13)
_cell_length_b                   11.5420(13)
_cell_length_c                   13.9032(16)
_cell_angle_alpha                84.266(2)
_cell_angle_beta                 82.614(2)
_cell_angle_gamma                75.128(2)
_cell_volume                     1735.71
loop_
_atom_site_label
_atom_site_type_symbol
_atom_site_fract_x
_atom_site_fract_y
_atom_site_fract_z
Ag1 Ag 0.89031(4) 0.46334(4) 0.06638(3)
Ag2 Ag 0.43224(4) 1.42195(4) 0.62296(4)
O1 O 0.8548(3) 0.5582(3) -0.1056(3)
O2 O 0.6789(4) 0.5394(4) -0.0269(3)
O3 O 0.9218(6) 0.6842(4) -0.4491(4)
O4 O 0.8980(4) 0.8753(4) -0.4353(3)
O5 O 0.5783(4) 1.3452(4) 0.7578(3)
H1 H 0.6523 1.3227 0.7410
H2 H 0.5715 1.3351 0.8173
N1 N 0.8318(4) 0.5969(4) 0.1767(3)
N2 N 0.5046(4) 1.2747(4) 0.5339(3)
N3 N 0.9688(4) 0.2901(4) 0.0026(3)
N4 N 1.3337(4) -0.4140(4) -0.3151(3)
C1 C 0.7432(5) 0.5741(5) -0.0995(4)
C2 C 0.6772(6) 0.6429(5) -0.1855(4)
H11 H 0.7200 0.6108 -0.2458
H12 H 0.5940 0.6326 -0.1796
C3 C 0.6732(5) 0.7755(5) -0.1875(4)
C4 C 0.5734(6) 0.8497(7) -0.1353(4)
H13 H 0.5124 0.8165 -0.1011
C5 C 0.5632(7) 0.9704(7) -0.1332(5)
H14 H 0.4965 1.0179 -0.0973
C6 C 0.6503(8) 1.0201(6) -0.1835(5)
H15 H 0.6432 1.1022 -0.1834
C7 C 0.7502(6) 0.9481(6) -0.2353(4)
H16 H 0.8099 0.9832 -0.2694
C8 C 0.7645(5) 0.8257(5) -0.2380(4)
C9 C 0.8790(5) 0.7516(6) -0.2908(4)
H17 H 0.8793 0.6676 -0.2758
H18 H 0.9492 0.7648 -0.2642
C10 C 0.8987(5) 0.7724(5) -0.3996(4)
C11 C 0.7250(5) 0.6778(5) 0.1713(4)
H19 H 0.6765 0.6728 0.1235
C12 C 0.6834(5) 0.7686(5) 0.2337(4)
H20 H 0.6078 0.8230 0.2275
C13 C 0.7538(4) 0.7796(4) 0.3059(4)
C14 C 0.8619(5) 0.6919(5) 0.3118(4)
H21 H 0.9111 0.6920 0.3605
C15 C 0.8976(5) 0.6046(5) 0.2464(4)
H22 H 0.9721 0.5480 0.2515
C16 C 0.7164(5) 0.8771(4) 0.3716(4)
H23 H 0.7604 0.8708 0.4248
C17 C 0.6242(5) 0.9741(5) 0.3609(4)
H24 H 0.5793 0.9780 0.3086
C18 C 0.5864(5) 1.0748(5) 0.4227(4)
C19 C 0.6404(5) 1.0838(5) 0.5056(4)
H25 H 0.7053 1.0223 0.5254
C20 C 0.5975(5) 1.1831(5) 0.5573(4)
H26 H 0.6351 1.1872 0.6121
C21 C 0.4508(5) 1.2670(5) 0.4547(4)
H27 H 0.3855 1.3296 0.4371
C22 C 0.4887(5) 1.1705(5) 0.3995(4)
H28 H 0.4488 1.1685 0.3455
C23 C 0.9261(6) 0.2560(5) -0.0721(4)
H29 H 0.8552 0.3049 -0.0954
C24 C 0.9830(7) 0.1506(6) -0.1165(4)
H30 H 0.9506 0.1303 -0.1688
C25 C 1.0884(6) 0.0754(5) -0.0828(5)
C26 C 1.1305(5) 0.1128(5) -0.0058(5)
H31 H 1.2008 0.0659 0.0196
C27 C 1.0705(5) 0.2171(5) 0.0330(4)
H32 H 1.1023 0.2395 0.0847
C28 C 1.1572(6) -0.0415(6) -0.1203(5)
H33 H 1.2161 -0.0895 -0.0828
C29 C 1.1437(6) -0.0823(6) -0.1977(5)
H34 H 1.0851 -0.0343 -0.2355
C30 C 1.2118(5) -0.1987(5) -0.2342(4)
C31 C 1.1937(5) -0.2232(5) -0.3255(4)
H35 H 1.1396 -0.1666 -0.3619
C32 C 1.2538(5) -0.3289(5) -0.3625(4)
H36 H 1.2389 -0.3431 -0.4239
C33 C 1.3530(5) -0.3934(5) -0.2264(4)
H37 H 1.4078 -0.4516 -0.1919
C34 C 1.2930(5) -0.2871(5) -0.1845(4)
H38 H 1.3075 -0.2753 -0.1223
Ag1A Ag 1.10969(4) 0.53666(4) -0.06638(3)
Ag2_2 Ag 1.43224(4) -0.57805(4) -0.37704(4)
N4_2 N 0.3337(4) 1.5860(4) 0.6849(3)
O6 O 0.0389(4) 0.9148(4) 0.3914(3)
H3 H 0.0477 0.9795 0.4046
H4 H -0.0228 0.9128 0.4290
O7 O 0.4365(4) 0.6457(4) 0.0411(3)
H5 H 0.5015 0.6206 0.0075
H6 H 0.4029 0.5915 0.0374
O8 O 0.8535(6) 0.4743(5) 0.5346(4)
H7 H 0.8741 0.5363 0.5398
H8 H 0.9168 0.4300 0.5103
O9 O 0.8147(5) 0.2990(5) 0.6803(4)
H9 H 0.8620 0.2448 0.6505
H10 H 0.8262 0.3497 0.6368
loop_
_geom_bond_atom_site_label_1
_geom_bond_atom_site_label_2
_geom_bond_site_symmetry_1
_geom_bond_site_symmetry_2
Ag1 O1 1_555 1_555
Ag2 O5 1_555 1_555
O1 C1 1_555 1_555
O2 C1 1_555 1_555
O3 C10 1_555 1_555
O4 C10 1_555 1_555
O5 H1 1_555 1_555
H2 O5 1_555 1_555
O6 H3 1_555 1_555
H4 O6 1_555 1_555
O7 H5 1_555 1_555
H6 O7 1_555 1_555
O8 H7 1_555 1_555
H8 O8 1_555 1_555
O9 H9 1_555 1_555
H10 O9 1_555 1_555
N1 Ag1 1_555 1_555
N2 Ag2 1_555 1_555
N3 Ag1 1_555 1_555
N4 C32 1_555 1_555
C1 C2 1_555 1_555
C2 H11 1_555 1_555
H12 C2 1_555 1_555
C3 C2 1_555 1_555
C4 C3 1_555 1_555
H13 C4 1_555 1_555
C5 C4 1_555 1_555
H14 C5 1_555 1_555
C6 C5 1_555 1_555
H15 C6 1_555 1_555
C7 C6 1_555 1_555
H16 C7 1_555 1_555
C8 C3 1_555 1_555
C9 C8 1_555 1_555
H17 C9 1_555 1_555
H18 C9 1_555 1_555
C10 C9 1_555 1_555
C11 N1 1_555 1_555
H19 C11 1_555 1_555
C12 C11 1_555 1_555
H20 C12 1_555 1_555
C13 C12 1_555 1_555
C14 C13 1_555 1_555
H21 C14 1_555 1_555
C15 N1 1_555 1_555
H22 C15 1_555 1_555
C16 C13 1_555 1_555
H23 C16 1_555 1_555
C17 C16 1_555 1_555
H24 C17 1_555 1_555
C18 C17 1_555 1_555
C19 C18 1_555 1_555
H25 C19 1_555 1_555
C20 N2 1_555 1_555
H26 C20 1_555 1_555
C21 N2 1_555 1_555
H27 C21 1_555 1_555
C22 C18 1_555 1_555
H28 C22 1_555 1_555
C23 N3 1_555 1_555
H29 C23 1_555 1_555
C24 C23 1_555 1_555
H30 C24 1_555 1_555
C25 C24 1_555 1_555
C26 C25 1_555 1_555
H31 C26 1_555 1_555
C27 N3 1_555 1_555
H32 C27 1_555 1_555
C28 C25 1_555 1_555
H33 C28 1_555 1_555
C29 C28 1_555 1_555
H34 C29 1_555 1_555
C30 C29 1_555 1_555
C31 C30 1_555 1_555
H35 C31 1_555 1_555
C32 C31 1_555 1_555
H36 C32 1_555 1_555
C33 N4 1_555 1_555
H37 C33 1_555 1_555
C34 C30 1_555 1_555
H38 C34 1_555 1_555
Ag1A Ag1 1_555 1_555
Ag2_2 N4 1_555 1_555
N4_2 Ag2 1_555 1_555
C7 C8 1_555 1_555
C14 C15 1_555 1_555
C19 C20 1_555 1_555
C21 C22 1_555 1_555
C26 C27 1_555 1_555
C33 C34 1_555 1_555

#END
