
#######################################################################
#
#                 Cambridge Crystallographic Data Centre
#                                CCDC 
#
#######################################################################
#
# If this CIF has been generated from an entry in the Cambridge 
# Structural Database, then it will include bibliographic, chemical, 
# crystal, experimental, refinement or atomic coordinate data resulting 
# from the CCDC's data processing and validation procedures.
#
#######################################################################

data_CUVHEH
_symmetry_cell_setting           rhombohedral
_symmetry_space_group_name_H-M   'R -3'
_symmetry_Int_Tables_number      148
_space_group_name_Hall           '-R 3'
loop_
_symmetry_equiv_pos_site_id
_symmetry_equiv_pos_as_xyz
1 x,y,z
2 -y,x-y,z
3 -x+y,-x,z
4 2/3+x,1/3+y,1/3+z
5 2/3-y,1/3+x-y,1/3+z
6 2/3-x+y,1/3-x,1/3+z
7 1/3+x,2/3+y,2/3+z
8 1/3-y,2/3+x-y,2/3+z
9 1/3-x+y,2/3-x,2/3+z
10 -x,-y,-z
11 y,-x+y,-z
12 x-y,x,-z
13 1/3-x,2/3-y,2/3-z
14 1/3+y,2/3-x+y,2/3-z
15 1/3+x-y,2/3+x,2/3-z
16 2/3-x,1/3-y,1/3-z
17 2/3+y,1/3-x+y,1/3-z
18 2/3+x-y,1/3+x,1/3-z
_cell_length_a                   36.405(3)
_cell_length_b                   36.405(3)
_cell_length_c                   11.6941(17)
_cell_angle_alpha                90
_cell_angle_beta                 90
_cell_angle_gamma                120
_cell_volume                     13422.1
loop_
_atom_site_label
_atom_site_type_symbol
_atom_site_fract_x
_atom_site_fract_y
_atom_site_fract_z
Nd1 Nd 0.379739(9) 0.149835(8) 0.67494(2)
O2 O 0.41056(13) 0.22510(12) 0.6278(4)
O3 O 0.35941(13) 0.24258(12) 0.6379(4)
O4 O 0.44794(16) 0.40512(16) 0.8066(4)
O5 O 0.51227(16) 0.41441(17) 0.8166(4)
O6 O 0.34083(13) 0.17450(13) 0.7885(3)
O7 O 0.2983(2) 0.1905(2) 0.8777(4)
O8 O 0.45105(16) 0.17374(17) 0.5969(5)
O9 O 0.38179(17) 0.08582(15) 0.6092(5)
C1 C 0.39655(18) 0.25026(16) 0.6235(5)
C2 C 0.42751(18) 0.29674(16) 0.5983(5)
C3 C 0.44286(19) 0.32557(17) 0.6885(5)
C4 C 0.46549(18) 0.36912(17) 0.6688(5)
C5 C 0.4767(2) 0.39922(18) 0.7701(5)
C6 C 0.47359(19) 0.38358(17) 0.5562(5)
C7 C 0.4604(2) 0.35590(18) 0.4615(5)
C8 C 0.43724(19) 0.31199(17) 0.4871(4)
C9 C 0.3276(3) 0.1824(3) 0.8768(5)
C10 C 0.4715(5) 0.2009(5) 0.5285(14)
H1 H 0.4588 0.2148 0.4943
C11 C 0.5263(13) 0.2418(12) 0.400(3)
H2 H 0.5095 0.2552 0.3914
H3 H 0.5243 0.2263 0.3315
H4 H 0.5554 0.2630 0.4127
C12 C 0.5299(7) 0.1833(10) 0.546(3)
H5 H 0.5145 0.1683 0.6131
H6 H 0.5593 0.2012 0.5649
H7 H 0.5271 0.1634 0.4882
C13 C 0.3532(3) 0.0506(2) 0.5826(7)
H8 H 0.3261 0.0470 0.5766
C14 C 0.3974(3) 0.0195(3) 0.5693(11)
H9 H 0.4190 0.0483 0.5838
H10 H 0.4034 0.0100 0.4988
H11 H 0.3969 0.0017 0.6308
C15 C 0.3209(4) -0.0243(3) 0.5408(14)
H12 H 0.2957 -0.0221 0.5371
H13 H 0.3182 -0.0431 0.6020
H14 H 0.3246 -0.0353 0.4698
N1 N 0.4685(2) 0.37037(18) 0.3512(5)
N2 N 0.5106(4) 0.2124(6) 0.4982(17)
N3 N 0.3572(2) 0.0171(2) 0.5615(6)
I1 I 0.43329(2) 0.301897(17) 0.85625(4)
I2 I 0.506275(19) 0.449228(13) 0.52525(4)
I3 I 0.41719(2) 0.268103(15) 0.35274(4)
Nd1O Nd 0.286928(9) 0.183498(8) 0.65839(2)
Nd1M Nd 0.483168(8) 0.436763(12) 0.99173(2)
O3O O 0.30726(13) 0.09075(12) 0.6954(4)
O4N O 0.37615(23) 0.11461(16) 0.8601(4)
O5N O 0.43119(23) 0.17894(16) 0.8501(4)
O6O O 0.32584(13) 0.15883(13) 0.5448(3)
O7O O 0.3684(2) 0.1428(2) 0.4556(4)
O1 O 0.558(2) 0.346(3) 0.656(6)
loop_
_geom_bond_atom_site_label_1
_geom_bond_atom_site_label_2
_geom_bond_site_symmetry_1
_geom_bond_site_symmetry_2
Nd1 O2 1_555 1_555
O2 C1 1_555 1_555
O3 C1 1_555 1_555
O4 C5 1_555 1_555
O5 C5 1_555 1_555
O6 Nd1 1_555 1_555
O7 C9 1_555 1_555
O8 Nd1 1_555 1_555
O9 Nd1 1_555 1_555
C1 C2 1_555 1_555
C2 C3 1_555 1_555
C3 C4 1_555 1_555
C4 C5 1_555 1_555
C6 C4 1_555 1_555
C7 C6 1_555 1_555
C8 C2 1_555 1_555
C9 O6 1_555 1_555
C10 O8 1_555 1_555
H1 C10 1_555 1_555
C11 H2 1_555 1_555
H3 C11 1_555 1_555
H4 C11 1_555 1_555
C12 H5 1_555 1_555
H6 C12 1_555 1_555
H7 C12 1_555 1_555
C13 O9 1_555 1_555
H8 C13 1_555 1_555
C14 H9 1_555 1_555
H10 C14 1_555 1_555
H11 C14 1_555 1_555
C15 H12 1_555 1_555
H13 C15 1_555 1_555
H14 C15 1_555 1_555
N1 C7 1_555 1_555
N2 C10 1_555 1_555
N3 C13 1_555 1_555
I1 C3 1_555 1_555
I2 C6 1_555 1_555
I3 C8 1_555 1_555
Nd1O O3 1_555 1_555
Nd1M O4 1_555 1_555
O3O Nd1 1_555 1_555
O4N Nd1 1_555 1_555
O5N Nd1 1_555 1_555
O6O Nd1 1_555 1_555
O7O Nd1 1_555 1_555
O5 Nd1M 1_555 1_555
O6 Nd1O 1_555 1_555
O7 Nd1O 1_555 1_555
C7 C8 1_555 1_555
C11 N2 1_555 1_555
C12 N2 1_555 1_555
C14 N3 1_555 1_555
C15 N3 1_555 1_555
Nd1O O6O 1_555 1_555

#END
