
#######################################################################
#
#                 Cambridge Crystallographic Data Centre
#                                CCDC 
#
#######################################################################
#
# If this CIF has been generated from an entry in the Cambridge 
# Structural Database, then it will include bibliographic, chemical, 
# crystal, experimental, refinement or atomic coordinate data resulting 
# from the CCDC's data processing and validation procedures.
#
#######################################################################

data_CUVXUN
_symmetry_cell_setting           tetragonal
_symmetry_space_group_name_H-M   'I 41/a'
_symmetry_Int_Tables_number      88
_space_group_name_Hall           '-I 4ad'
loop_
_symmetry_equiv_pos_site_id
_symmetry_equiv_pos_as_xyz
1 x,y,z
2 3/4-y,1/4+x,1/4+z
3 1/2+x,1/2+y,1/2+z
4 1/4-y,3/4+x,3/4+z
5 1/4+y,1/4-x,1/4+z
6 1/2-x,-y,1/2+z
7 3/4+y,3/4-x,3/4+z
8 -x,1/2-y,z
9 -x,-y,-z
10 1/4+y,3/4-x,3/4-z
11 1/2-x,1/2-y,1/2-z
12 3/4+y,1/4-x,1/4-z
13 3/4-y,3/4+x,3/4-z
14 1/2+x,y,1/2-z
15 1/4-y,1/4+x,1/4-z
16 x,1/2+y,-z
_cell_length_a                   17.73594(12)
_cell_length_b                   17.73594(12)
_cell_length_c                   21.76896(23)
_cell_angle_alpha                90
_cell_angle_beta                 90
_cell_angle_gamma                90
_cell_volume                     6847.72
loop_
_atom_site_label
_atom_site_type_symbol
_atom_site_fract_x
_atom_site_fract_y
_atom_site_fract_z
W1 W 0.38312(13) 0.10277(10) 0.13429(10)
O1 O 0.3645(9) 0.1058(11) 0.05804(34)
O2 O 0.4316(10) 0.1841(7) 0.1455(8)
O3 O 0.2888(5) 0.1186(9) 0.1738(5)
O4 O 0.4755(8) 0.0470(9) 0.1130(7)
O5 O 0.1448(7) 0.1834(7) 0.1993(5)
N1 N 0.4195(6) 0.0580(5) 0.2218(4)
N2 N 0.4907(6) 0.0236(6) 0.2197(6)
N3 N 0.7221(7) -0.0868(5) 0.1288(9)
C1 C 0.3902(6) 0.07149(33) 0.2756(5)
C2 C 0.5092(5) 0.0164(4) 0.1614(6)
C3 C 0.5815(6) -0.0198(4) 0.1506(6)
C4 C 0.6124(7) -0.0213(5) 0.0937(6)
C5 C 0.6813(8) -0.0547(6) 0.0853(7)
C6 C 0.6913(7) -0.0853(5) 0.1839(8)
C7 C 0.6224(7) -0.0528(5) 0.1965(6)
C8 C 0.2661(5) 0.1262(4) 0.2334(5)
C9 C 0.3149(5) 0.1054(4) 0.2833(5)
C10 C 0.2911(7) 0.1190(4) 0.3448(5)
C11 C 0.2215(8) 0.1508(4) 0.3569(5)
C12 C 0.1726(6) 0.1710(4) 0.3089(6)
C13 C 0.1921(5) 0.1601(4) 0.2471(5)
C14 C 0.0691(11) 0.2096(20) 0.2134(7)
H1 H 0.4228(9) 0.0572(7) 0.3129(6)
H2 H 0.5829(10) 0.0021(6) 0.0638(7)
H3 H 0.7008(11) -0.0547(8) 0.0457(9)
H4 H 0.7181(10) -0.1077(6) 0.2159(11)
H5 H 0.6071(11) -0.0552(7) 0.2373(7)
H6 H 0.3240(9) 0.1051(6) 0.3761(7)
H7 H 0.2108(10) 0.1570(6) 0.3985(7)
H8 H 0.1253(7) 0.1926(5) 0.3162(9)
H9 H 0.048(5) 0.236(11) 0.178(4)
H10 H 0.0706(27) 0.244(10) 0.248(7)
H11 H 0.0376(33) 0.1671(32) 0.224(10)
W1K W 0.85277(10) -0.13312(13) 0.11571(10)
N3N N 0.3368(5) -0.0279(7) 0.1212(9)
loop_
_geom_bond_atom_site_label_1
_geom_bond_atom_site_label_2
_geom_bond_site_symmetry_1
_geom_bond_site_symmetry_2
W1 O1 1_555 1_555
O2 W1 1_555 1_555
O3 W1 1_555 1_555
O4 W1 1_555 1_555
O5 C13 1_555 1_555
N1 W1 1_555 1_555
N2 N1 1_555 1_555
N3 C5 1_555 1_555
C1 N1 1_555 1_555
C2 O4 1_555 1_555
C3 C2 1_555 1_555
C4 C3 1_555 1_555
C5 C4 1_555 1_555
C6 N3 1_555 1_555
C7 C3 1_555 1_555
C8 O3 1_555 1_555
C9 C1 1_555 1_555
C10 C9 1_555 1_555
C11 C10 1_555 1_555
C12 C11 1_555 1_555
C13 C8 1_555 1_555
C14 O5 1_555 1_555
H1 C1 1_555 1_555
H2 C4 1_555 1_555
H3 C5 1_555 1_555
H4 C6 1_555 1_555
H5 C7 1_555 1_555
H6 C10 1_555 1_555
H7 C11 1_555 1_555
H8 C12 1_555 1_555
H9 C14 1_555 1_555
H10 C14 1_555 1_555
H11 C14 1_555 1_555
W1K N3 1_555 1_555
N3N W1 1_555 1_555
N2 C2 1_555 1_555
C6 C7 1_555 1_555
C8 C9 1_555 1_555
C12 C13 1_555 1_555

#END
