
#######################################################################
#
#                 Cambridge Crystallographic Data Centre
#                                CCDC 
#
#######################################################################
#
# If this CIF has been generated from an entry in the Cambridge 
# Structural Database, then it will include bibliographic, chemical, 
# crystal, experimental, refinement or atomic coordinate data resulting 
# from the CCDC's data processing and validation procedures.
#
#######################################################################

data_CUVYAU
_symmetry_cell_setting           orthorhombic
_symmetry_space_group_name_H-M   'P c a 21'
_symmetry_Int_Tables_number      29
_space_group_name_Hall           'P 2c -2ac'
loop_
_symmetry_equiv_pos_site_id
_symmetry_equiv_pos_as_xyz
1 x,y,z
2 -x,-y,1/2+z
3 1/2-x,y,1/2+z
4 1/2+x,-y,z
_cell_length_a                   20.8952(6)
_cell_length_b                   11.5042(3)
_cell_length_c                   13.3966(3)
_cell_angle_alpha                90
_cell_angle_beta                 90
_cell_angle_gamma                90
_cell_volume                     3220.31
loop_
_atom_site_label
_atom_site_type_symbol
_atom_site_fract_x
_atom_site_fract_y
_atom_site_fract_z
Mo1 Mo 0.26803(2) 0.11207(4) 0.38186(3)
Mo2 Mo -0.00356(2) -0.38997(5) 0.74420(4)
O1 O 0.22499(19) 0.0655(4) 0.2826(3)
O2 O 0.3237(2) 0.2035(4) 0.3349(3)
O3 O 0.3197(2) -0.0236(4) 0.4088(3)
O4 O 0.20803(18) 0.2321(3) 0.4356(3)
O5 O 0.0434(2) -0.4264(4) 0.8436(3)
O6 O -0.0636(2) -0.3087(4) 0.7916(4)
O7 O 0.05121(19) -0.2619(3) 0.6898(3)
O8 O -0.0479(2) -0.5318(4) 0.7173(3)
N1 N 0.2970(2) 0.1514(4) 0.5378(3)
N2 N 0.2629(2) 0.2395(4) 0.5857(4)
N3 N 0.0790(3) 0.5057(4) 0.6465(4)
N4 N -0.0353(2) -0.3564(4) 0.5880(4)
N5 N 0.0005(2) -0.2712(5) 0.5384(4)
N6 N 0.1854(2) -0.0052(4) 0.4751(4)
C1 C 0.3447(3) 0.1079(5) 0.5877(5)
H1 H 0.3551 0.1430 0.6481
C2 C 0.2176(3) 0.2728(5) 0.5269(5)
C3 C 0.1714(3) 0.3583(5) 0.5649(4)
C4 C 0.1165(3) 0.3861(5) 0.5130(5)
H2 H 0.1102 0.3563 0.4492
C5 C 0.0713(3) 0.4573(6) 0.5547(5)
H3 H 0.0341 0.4730 0.5191
C6 C 0.1339(3) 0.4864(6) 0.6909(5)
H4 H 0.1422 0.5259 0.7500
C7 C 0.1803(3) 0.4106(6) 0.6552(5)
H5 H 0.2170 0.3957 0.6924
C8 C 0.3675(3) -0.0498(6) 0.4711(5)
C9 C 0.3826(3) 0.0094(5) 0.5569(5)
C10 C 0.4340(3) -0.0272(5) 0.6204(5)
C11 C 0.4692(3) -0.1286(5) 0.5902(5)
C12 C 0.4514(3) -0.1893(6) 0.5035(5)
H6 H 0.4736 -0.2563 0.4859
C13 C 0.4029(3) -0.1526(6) 0.4456(5)
H7 H 0.3922 -0.1942 0.3885
C14 C 0.4530(3) 0.0256(6) 0.7077(5)
H8 H 0.4311 0.0921 0.7276
C15 C 0.5007(3) -0.0122(6) 0.7661(6)
H9 H 0.5119 0.0285 0.8235
C16 C 0.5337(3) -0.1137(6) 0.7395(7)
H10 H 0.5664 -0.1418 0.7800
C17 C 0.5176(3) -0.1712(7) 0.6539(6)
H11 H 0.5389 -0.2395 0.6374
C18 C -0.0806(3) -0.4022(5) 0.5387(5)
H12 H -0.0899 -0.3723 0.4759
C19 C 0.0432(3) -0.2287(5) 0.5975(5)
C20 C 0.0902(3) -0.1447(5) 0.5572(5)
C21 C 0.1353(3) -0.0911(5) 0.6151(5)
H13 H 0.1348 -0.1011 0.6840
C22 C 0.1814(3) -0.0220(6) 0.5713(5)
H14 H 0.2112 0.0144 0.6124
C23 C 0.1417(3) -0.0570(7) 0.4178(5)
H15 H 0.1438 -0.0458 0.3491
C24 C 0.0934(3) -0.1263(6) 0.4553(5)
H16 H 0.0636 -0.1602 0.4127
C25 C -0.0981(3) -0.5609(6) 0.6626(5)
C26 C -0.1189(3) -0.4995(5) 0.5754(5)
C27 C -0.1745(3) -0.5383(5) 0.5233(5)
C28 C -0.2070(3) -0.6393(6) 0.5555(6)
C29 C -0.1832(4) -0.6978(6) 0.6434(6)
H17 H -0.2047 -0.7632 0.6667
C30 C -0.1315(3) -0.6608(6) 0.6923(5)
H18 H -0.1171 -0.7023 0.7474
C31 C -0.1985(3) -0.4815(6) 0.4381(5)
H19 H -0.1768 -0.4173 0.4127
C32 C -0.2527(3) -0.5188(6) 0.3923(6)
H20 H -0.2692 -0.4772 0.3386
C33 C -0.2838(4) -0.6187(8) 0.4249(6)
H21 H -0.3195 -0.6459 0.3906
C34 C -0.2626(4) -0.6763(7) 0.5060(7)
H22 H -0.2848 -0.7409 0.5292
Mo2_2 Mo -0.00356(2) 0.61003(5) 0.74420(4)
N3_2 N 0.0790(3) -0.4943(4) 0.6465(4)
loop_
_geom_bond_atom_site_label_1
_geom_bond_atom_site_label_2
_geom_bond_site_symmetry_1
_geom_bond_site_symmetry_2
Mo1 O1 1_555 1_555
Mo2 O5 1_555 1_555
O2 Mo1 1_555 1_555
O3 Mo1 1_555 1_555
O4 Mo1 1_555 1_555
O6 Mo2 1_555 1_555
O7 Mo2 1_555 1_555
O8 Mo2 1_555 1_555
N1 Mo1 1_555 1_555
N2 N1 1_555 1_555
N3 C5 1_555 1_555
N4 Mo2 1_555 1_555
N5 N4 1_555 1_555
N6 Mo1 1_555 1_555
C1 N1 1_555 1_555
H1 C1 1_555 1_555
C2 O4 1_555 1_555
C3 C2 1_555 1_555
C4 C3 1_555 1_555
H2 C4 1_555 1_555
C5 C4 1_555 1_555
H3 C5 1_555 1_555
C6 N3 1_555 1_555
H4 C6 1_555 1_555
C7 C3 1_555 1_555
H5 C7 1_555 1_555
C8 O3 1_555 1_555
C9 C1 1_555 1_555
C10 C9 1_555 1_555
C11 C10 1_555 1_555
C12 C11 1_555 1_555
H6 C12 1_555 1_555
C13 C8 1_555 1_555
H7 C13 1_555 1_555
C14 C10 1_555 1_555
H8 C14 1_555 1_555
C15 C14 1_555 1_555
H9 C15 1_555 1_555
C16 C15 1_555 1_555
H10 C16 1_555 1_555
C17 C11 1_555 1_555
H11 C17 1_555 1_555
C18 N4 1_555 1_555
H12 C18 1_555 1_555
C19 O7 1_555 1_555
C20 C19 1_555 1_555
C21 C20 1_555 1_555
H13 C21 1_555 1_555
C22 N6 1_555 1_555
H14 C22 1_555 1_555
C23 N6 1_555 1_555
H15 C23 1_555 1_555
C24 C20 1_555 1_555
H16 C24 1_555 1_555
C25 O8 1_555 1_555
C26 C18 1_555 1_555
C27 C26 1_555 1_555
C28 C27 1_555 1_555
C29 C28 1_555 1_555
H17 C29 1_555 1_555
C30 C25 1_555 1_555
H18 C30 1_555 1_555
C31 C27 1_555 1_555
H19 C31 1_555 1_555
C32 C31 1_555 1_555
H20 C32 1_555 1_555
C33 C32 1_555 1_555
H21 C33 1_555 1_555
C34 C28 1_555 1_555
H22 C34 1_555 1_555
Mo2_2 N3 1_555 1_555
N3_2 Mo2 1_555 1_555
N2 C2 1_555 1_555
N5 C19 1_555 1_555
C6 C7 1_555 1_555
C8 C9 1_555 1_555
C12 C13 1_555 1_555
C16 C17 1_555 1_555
C21 C22 1_555 1_555
C23 C24 1_555 1_555
C25 C26 1_555 1_555
C29 C30 1_555 1_555
C33 C34 1_555 1_555

#END
