
#######################################################################
#
#                 Cambridge Crystallographic Data Centre
#                                CCDC 
#
#######################################################################
#
# If this CIF has been generated from an entry in the Cambridge 
# Structural Database, then it will include bibliographic, chemical, 
# crystal, experimental, refinement or atomic coordinate data resulting 
# from the CCDC's data processing and validation procedures.
#
#######################################################################

data_CUWGEH
_symmetry_cell_setting           monoclinic
_symmetry_space_group_name_H-M   'P 21/c'
_symmetry_Int_Tables_number      14
_space_group_name_Hall           '-P 2ybc'
loop_
_symmetry_equiv_pos_site_id
_symmetry_equiv_pos_as_xyz
1 x,y,z
2 -x,1/2+y,1/2-z
3 -x,-y,-z
4 x,1/2-y,1/2+z
_cell_length_a                   13.581(5)
_cell_length_b                   14.913(5)
_cell_length_c                   23.210(8)
_cell_angle_alpha                90
_cell_angle_beta                 100.454(6)
_cell_angle_gamma                90
_cell_volume                     4622.77
loop_
_atom_site_label
_atom_site_type_symbol
_atom_site_fract_x
_atom_site_fract_y
_atom_site_fract_z
Zn1 Zn 0.43335(9) 0.11960(8) 0.22659(5)
Zn2 Zn 0.08984(9) 0.63302(8) 0.24272(5)
O1 O 0.3556(7) 0.0157(5) 0.1933(4)
O2 O 0.2928(9) 0.1108(6) 0.1258(5)
O3 O 0.5003(6) 0.2690(5) 0.2960(4)
O4 O 0.3569(7) 0.2027(6) 0.2640(4)
O5 O 0.1900(6) 0.5504(6) 0.2775(4)
O6 O 0.0678(6) 0.4963(6) 0.3188(4)
O7 O 0.1411(6) -0.2698(5) 0.2009(3)
O8 O 0.1623(6) -0.3612(5) 0.1286(3)
N1 N 1.0310(7) -0.2825(6) 0.2984(4)
N2 N 0.9580(7) 0.5806(6) 0.1957(4)
N3 N 0.5324(7) 0.1721(6) 0.1785(4)
N4 N 0.5199(7) 0.0459(6) 0.2931(4)
C1 C 0.2842(8) 0.3777(6) 0.3053(4)
H1 H 0.3189 0.4192 0.2837
H2 H 0.2360 0.3448 0.2772
C2 C 0.2315(8) -0.1260(6) 0.1512(4)
H3 H 0.2981 -0.1449 0.1697
H4 H 0.1941 -0.1112 0.1818
C3 C 0.1571(10) 0.4961(7) 0.3129(5)
C4 C 0.1792(7) -0.2023(6) 0.1136(4)
C5 C 0.5116(9) 0.1813(7) 0.1197(5)
H5 H 0.4530 0.1564 0.0989
C6 C 0.6631(9) 0.2664(7) 0.1195(5)
C7 C 0.9346(9) 0.5781(8) 0.1380(5)
H6 H 0.9811 0.6002 0.1167
C8 C 0.5192(8) -0.0444(7) 0.2901(5)
H7 H 0.4823 -0.0710 0.2568
C9 C 0.3599(8) 0.3121(6) 0.3397(4)
C10 C 0.6829(8) 0.2551(8) 0.1783(5)
H8 H 0.7411 0.2794 0.2001
C11 C 0.2389(7) -0.0425(6) 0.1126(4)
C12 C 0.5692(9) -0.0992(8) 0.3328(5)
H9 H 0.5673 -0.1612 0.3281
C13 C 0.2297(8) 0.4300(6) 0.3465(4)
C14 C 0.1622(8) -0.2846(7) 0.1503(5)
C15 C 0.9474(9) -0.1432(7) 0.3105(5)
H10 H 0.9350 -0.0840 0.2988
C16 C 0.9069(9) -0.1785(7) 0.3553(5)
C17 C 0.3836(9) 0.4156(8) 0.4253(5)
H11 H 0.4339 0.4488 0.4528
C18 C 0.1765(9) 0.3629(7) 0.3812(5)
H12 H 0.1423 0.3955 0.4079
H13 H 0.1267 0.3297 0.3543
C19 C 0.2504(10) 0.2980(7) 0.4156(5)
H14 H 0.2151 0.2561 0.4372
C20 C 0.9336(10) -0.2643(8) 0.3734(5)
H15 H 0.9094 -0.2891 0.4049
C21 C 0.1370(10) -0.1117(8) 0.0001(5)
H16 H 0.1026 -0.1591 -0.0242
H17 H 0.1408 -0.0596 -0.0244
C22 C 0.2964(8) -0.0661(7) 0.0638(4)
H18 H 0.3003 -0.0142 0.0392
H19 H 0.3640 -0.0846 0.0806
C23 C 0.0735(7) -0.1690(7) 0.0874(5)
H20 H 0.0364 -0.2165 0.0645
H21 H 0.0382 -0.1531 0.1187
C24 C 0.4108(9) 0.2596(7) 0.2969(5)
C25 C 0.5719(9) 0.0809(8) 0.3422(5)
H22 H 0.5729 0.1430 0.3463
C26 C 0.3015(9) 0.2471(7) 0.3731(5)
H23 H 0.2518 0.2150 0.3454
H24 H 0.3473 0.2035 0.3943
C27 C 0.7585(10) -0.1769(8) 0.4103(5)
H25 H 0.7239 -0.2193 0.3820
H26 H 0.7948 -0.2107 0.4431
C28 C 1.0084(9) -0.1985(7) 0.2826(5)
H27 H 1.0342 -0.1748 0.2513
C29 C 0.2959(8) 0.0345(7) 0.1473(5)
C30 C 0.9959(9) -0.3131(7) 0.3453(5)
H28 H 1.0148 -0.3702 0.3593
C31 C 0.4355(9) 0.3650(8) 0.3827(5)
H29 H 0.4701 0.4071 0.3614
H30 H 0.4848 0.3244 0.4041
C32 C 0.0792(8) -0.0883(8) 0.0488(5)
H31 H 0.0113 -0.0693 0.0312
C33 C 0.7724(9) 0.5124(7) 0.1361(6)
C34 C 0.8851(9) 0.5506(8) 0.2239(6)
H32 H 0.8969 0.5545 0.2646
C35 C 0.8324(11) -0.1240(8) 0.3823(6)
H33 H 0.8697 -0.0847 0.4118
H34 H 0.7949 -0.0862 0.3520
C36 C 0.3306(11) 0.3511(9) 0.4594(5)
H35 H 0.2985 0.3839 0.4870
H36 H 0.3786 0.3098 0.4812
C37 C 0.3103(9) 0.4824(7) 0.3906(5)
H37 H 0.3462 0.5233 0.3693
H38 H 0.2780 0.5172 0.4171
C38 C 0.2365(9) -0.2235(7) 0.0656(4)
H39 H 0.2040 -0.2724 0.0419
H40 H 0.3038 -0.2426 0.0827
C39 C 0.5747(9) 0.2266(8) 0.0897(5)
H41 H 0.5586 0.2309 0.0491
C40 C 0.6227(8) -0.0610(7) 0.3831(5)
C41 C 0.8465(10) 0.5453(9) 0.1074(5)
H42 H 0.8358 0.5449 0.0667
C42 C 0.1320(8) -0.0122(7) 0.0856(5)
H43 H 0.0954 0.0033 0.1164
H44 H 0.1348 0.0403 0.0613
C43 C 0.6236(9) 0.0307(7) 0.3869(5)
H45 H 0.6595 0.0588 0.4199
C44 C 0.7990(10) 0.5164(9) 0.1979(6)
H46 H 0.7546 0.4945 0.2207
C45 C 0.7280(10) 0.3192(8) 0.0869(6)
H47 H 0.7455 0.2819 0.0561
H48 H 0.7896 0.3338 0.1136
C46 C 0.2417(10) -0.1423(7) 0.0274(5)
H49 H 0.2784 -0.1580 -0.0038
C47 C 0.6183(9) 0.2080(8) 0.2064(5)
H50 H 0.6352 0.2008 0.2468
C48 C 0.6746(9) 0.4782(9) 0.1051(7)
H51 H 0.6362 0.5280 0.0858
H52 H 0.6380 0.4541 0.1339
C49 C 0.6820(10) 0.4056(9) 0.0597(5)
H53 H 0.6156 0.3930 0.0378
H54 H 0.7223 0.4279 0.0322
C50 C 0.6832(10) -0.1185(9) 0.4315(5)
H55 H 0.7175 -0.0795 0.4621
H56 H 0.6375 -0.1560 0.4485
Zn2_2 Zn 0.08984(9) -0.36698(8) 0.24272(5)
Zn2_3 Zn 1.08984(9) -0.36698(8) 0.24272(5)
Zn2_4 Zn 1.08984(9) 0.63302(8) 0.24272(5)
O7_2 O 0.1411(6) 0.7302(5) 0.2009(3)
N1_2 N 0.0310(7) 0.7175(6) 0.2984(4)
N2_2 N -0.0420(7) 0.5806(6) 0.1957(4)
C51 C 0.0433(12) 0.6085(12) -0.0141(8)
H57 H -0.0173 0.5948 -0.0002
H58 H 0.0370 0.5895 -0.0542
H59 H 0.0551 0.6719 -0.0116
O9 O 0.1310(10) 0.5594(8) 0.0234(5)
H60 H 0.1281 0.5657 0.0581
loop_
_geom_bond_atom_site_label_1
_geom_bond_atom_site_label_2
_geom_bond_site_symmetry_1
_geom_bond_site_symmetry_2
Zn1 O1 1_555 1_555
Zn2 O5 1_555 1_555
O1 C29 1_555 1_555
O2 C29 1_555 1_555
O3 C24 1_555 1_555
O4 Zn1 1_555 1_555
O5 C3 1_555 1_555
O6 C3 1_555 1_555
O7 C14 1_555 1_555
O8 C14 1_555 1_555
N1 C28 1_555 1_555
N2 C7 1_555 1_555
N3 Zn1 1_555 1_555
N4 Zn1 1_555 1_555
C1 H1 1_555 1_555
H2 C1 1_555 1_555
C2 H3 1_555 1_555
H4 C2 1_555 1_555
C3 C13 1_555 1_555
C4 C2 1_555 1_555
C5 N3 1_555 1_555
H5 C5 1_555 1_555
C6 C10 1_555 1_555
C7 H6 1_555 1_555
C8 N4 1_555 1_555
H7 C8 1_555 1_555
C9 C1 1_555 1_555
C10 H8 1_555 1_555
C11 C2 1_555 1_555
C12 C8 1_555 1_555
H9 C12 1_555 1_555
C13 C1 1_555 1_555
C14 C4 1_555 1_555
C15 H10 1_555 1_555
C16 C15 1_555 1_555
C17 H11 1_555 1_555
C18 C13 1_555 1_555
H12 C18 1_555 1_555
H13 C18 1_555 1_555
C19 C18 1_555 1_555
H14 C19 1_555 1_555
C20 C16 1_555 1_555
H15 C20 1_555 1_555
C21 H16 1_555 1_555
H17 C21 1_555 1_555
C22 C11 1_555 1_555
H18 C22 1_555 1_555
H19 C22 1_555 1_555
C23 C4 1_555 1_555
H20 C23 1_555 1_555
H21 C23 1_555 1_555
C24 O4 1_555 1_555
C25 N4 1_555 1_555
H22 C25 1_555 1_555
C26 C9 1_555 1_555
H23 C26 1_555 1_555
H24 C26 1_555 1_555
C27 H25 1_555 1_555
H26 C27 1_555 1_555
C28 C15 1_555 1_555
H27 C28 1_555 1_555
C29 C11 1_555 1_555
C30 N1 1_555 1_555
H28 C30 1_555 1_555
C31 C9 1_555 1_555
H29 C31 1_555 1_555
H30 C31 1_555 1_555
C32 C21 1_555 1_555
H31 C32 1_555 1_555
C33 C41 1_555 1_555
C34 N2 1_555 1_555
H32 C34 1_555 1_555
C35 C16 1_555 1_555
H33 C35 1_555 1_555
H34 C35 1_555 1_555
C36 C17 1_555 1_555
H35 C36 1_555 1_555
H36 C36 1_555 1_555
C37 C13 1_555 1_555
H37 C37 1_555 1_555
H38 C37 1_555 1_555
C38 C4 1_555 1_555
H39 C38 1_555 1_555
H40 C38 1_555 1_555
C39 C5 1_555 1_555
H41 C39 1_555 1_555
C40 C12 1_555 1_555
C41 C7 1_555 1_555
H42 C41 1_555 1_555
C42 C11 1_555 1_555
H43 C42 1_555 1_555
H44 C42 1_555 1_555
C43 C25 1_555 1_555
H45 C43 1_555 1_555
C44 C33 1_555 1_555
H46 C44 1_555 1_555
C45 C6 1_555 1_555
H47 C45 1_555 1_555
H48 C45 1_555 1_555
C46 C21 1_555 1_555
H49 C46 1_555 1_555
C47 N3 1_555 1_555
H50 C47 1_555 1_555
C48 C33 1_555 1_555
H51 C48 1_555 1_555
H52 C48 1_555 1_555
C49 C45 1_555 1_555
H53 C49 1_555 1_555
H54 C49 1_555 1_555
C50 C27 1_555 1_555
H55 C50 1_555 1_555
H56 C50 1_555 1_555
C51 H57 1_555 1_555
H58 C51 1_555 1_555
H59 C51 1_555 1_555
O9 C51 1_555 1_555
H60 O9 1_555 1_555
Zn2_2 O7 1_555 1_555
Zn2_3 N1 1_555 1_555
Zn2_4 N2 1_555 1_555
O7_2 Zn2 1_555 1_555
N1_2 Zn2 1_555 1_555
N2_2 Zn2 1_555 1_555
C6 C39 1_555 1_555
C9 C24 1_555 1_555
C10 C47 1_555 1_555
C17 C31 1_555 1_555
C17 C37 1_555 1_555
C19 C26 1_555 1_555
C19 C36 1_555 1_555
C20 C30 1_555 1_555
C22 C46 1_555 1_555
C23 C32 1_555 1_555
C27 C35 1_555 1_555
C32 C42 1_555 1_555
C34 C44 1_555 1_555
C38 C46 1_555 1_555
C40 C43 1_555 1_555
C40 C50 1_555 1_555
C48 C49 1_555 1_555

#END
