
#######################################################################
#
#                 Cambridge Crystallographic Data Centre
#                                CCDC 
#
#######################################################################
#
# If this CIF has been generated from an entry in the Cambridge 
# Structural Database, then it will include bibliographic, chemical, 
# crystal, experimental, refinement or atomic coordinate data resulting 
# from the CCDC's data processing and validation procedures.
#
#######################################################################

data_CUWGIL
_symmetry_cell_setting           orthorhombic
_symmetry_space_group_name_H-M   'P 21 21 21'
_symmetry_Int_Tables_number      19
_space_group_name_Hall           'P 2ac 2ab'
loop_
_symmetry_equiv_pos_site_id
_symmetry_equiv_pos_as_xyz
1 x,y,z
2 1/2-x,-y,1/2+z
3 -x,1/2+y,1/2-z
4 1/2+x,1/2-y,-z
_cell_length_a                   11.130(2)
_cell_length_b                   13.050(3)
_cell_length_c                   15.431(3)
_cell_angle_alpha                90
_cell_angle_beta                 90
_cell_angle_gamma                90
_cell_volume                     2241.3
loop_
_atom_site_label
_atom_site_type_symbol
_atom_site_fract_x
_atom_site_fract_y
_atom_site_fract_z
Zn1 Zn 0.00975(4) 0.49055(3) 0.24176(3)
O1 O -0.1745(3) 0.4593(3) 0.1659(3)
O2 O -0.0770(3) 0.6020(2) 0.1808(2)
O3 O -0.4827(3) 0.6136(2) -0.16605(18)
O4 O -0.4250(6) 0.4724(3) -0.1147(3)
N1 N 0.1651(3) 0.5728(3) 0.2772(2)
N2 N 0.8864(3) 0.9015(3) 0.3421(2)
C1 C -0.1679(4) 0.5534(3) 0.1546(3)
C2 C -0.2708(3) 0.6106(3) 0.1112(2)
C3 C -0.2410(4) 0.7237(3) 0.0963(3)
H1 H -0.2229 0.7562 0.1513
H2 H -0.1706 0.7293 0.0596
C4 C -0.3462(4) 0.7781(3) 0.0538(3)
H3 H -0.3260 0.8505 0.0452
C5 C -0.3729(4) 0.7284(3) -0.0344(3)
H4 H -0.3033 0.7347 -0.0719
H5 H -0.4397 0.7633 -0.0619
C6 C -0.4038(4) 0.6144(3) -0.0216(2)
C7 C -0.4376(4) 0.5636(4) -0.1063(3)
C8 C -0.2980(4) 0.5608(3) 0.0233(3)
H6 H -0.3172 0.4890 0.0318
H7 H -0.2275 0.5648 -0.0134
C9 C -0.5131(4) 0.6068(3) 0.0390(3)
H8 H -0.5819 0.6395 0.0120
H9 H -0.5329 0.5353 0.0486
C10 C -0.4863(4) 0.6582(4) 0.1250(3)
H10 H -0.5573 0.6533 0.1623
C11 C -0.3821(4) 0.6033(4) 0.1682(3)
H11 H -0.4027 0.5319 0.1774
H12 H -0.3659 0.6342 0.2241
C12 C -0.4563(5) 0.7701(4) 0.1102(3)
H13 H -0.5235 0.8042 0.0823
H14 H -0.4416 0.8035 0.1654
C13 C 0.1792(3) 0.6752(3) 0.2710(3)
H15 H 0.1198 0.7131 0.2434
C14 C 0.2774(4) 0.7259(3) 0.3037(3)
H16 H 0.2828 0.7967 0.2980
C15 C 0.3687(3) 0.6723(3) 0.3450(3)
C16 C 0.3550(4) 0.5670(3) 0.3481(3)
H17 H 0.4145 0.5269 0.3734
C17 C 0.2555(4) 0.5214(3) 0.3143(3)
H18 H 0.2499 0.4504 0.3173
C18 C 0.4707(4) 0.7276(3) 0.3874(3)
H19 H 0.4378 0.7824 0.4226
H20 H 0.5193 0.7589 0.3425
C19 C 0.5517(4) 0.6628(4) 0.4440(3)
H21 H 0.5966 0.6159 0.4075
H22 H 0.5026 0.6223 0.4829
C20 C 0.6404(4) 0.7267(4) 0.4976(3)
H23 H 0.5953 0.7731 0.5343
H24 H 0.6857 0.6811 0.5350
C21 C 0.7268(3) 0.7879(4) 0.4436(3)
C22 C 0.7360(4) 0.8922(3) 0.4523(3)
H25 H 0.6883 0.9266 0.4924
C23 C 0.8158(4) 0.9457(3) 0.4016(3)
H26 H 0.8212 1.0163 0.4091
C24 C 0.8017(4) 0.7414(3) 0.3832(3)
H27 H 0.8003 0.6706 0.3764
C25 C 0.8777(4) 0.7999(3) 0.3337(3)
H28 H 0.9252 0.7674 0.2925
Zn1A Zn -0.50975(4) 0.50945(3) -0.25824(3)
Zn1B Zn 0.99025(4) 0.99055(3) 0.25824(3)
O3A O -0.0173(3) 0.3864(2) 0.33395(18)
O4A O -0.0750(6) 0.5276(3) 0.3853(3)
N2B N 0.1136(3) 0.4015(3) 0.1579(2)
loop_
_geom_bond_atom_site_label_1
_geom_bond_atom_site_label_2
_geom_bond_site_symmetry_1
_geom_bond_site_symmetry_2
Zn1 O1 1_555 1_555
O1 C1 1_555 1_555
O2 Zn1 1_555 1_555
O3 C7 1_555 1_555
O4 C7 1_555 1_555
N1 Zn1 1_555 1_555
N2 C23 1_555 1_555
C1 O2 1_555 1_555
C2 C1 1_555 1_555
C3 C2 1_555 1_555
H1 C3 1_555 1_555
H2 C3 1_555 1_555
C4 C3 1_555 1_555
H3 C4 1_555 1_555
C5 C4 1_555 1_555
H4 C5 1_555 1_555
H5 C5 1_555 1_555
C6 C5 1_555 1_555
C7 C6 1_555 1_555
C8 C2 1_555 1_555
H6 C8 1_555 1_555
H7 C8 1_555 1_555
C9 C6 1_555 1_555
H8 C9 1_555 1_555
H9 C9 1_555 1_555
C10 C9 1_555 1_555
H10 C10 1_555 1_555
C11 C2 1_555 1_555
H11 C11 1_555 1_555
H12 C11 1_555 1_555
C12 C4 1_555 1_555
H13 C12 1_555 1_555
H14 C12 1_555 1_555
C13 N1 1_555 1_555
H15 C13 1_555 1_555
C14 C13 1_555 1_555
H16 C14 1_555 1_555
C15 C14 1_555 1_555
C16 C15 1_555 1_555
H17 C16 1_555 1_555
C17 N1 1_555 1_555
H18 C17 1_555 1_555
C18 C15 1_555 1_555
H19 C18 1_555 1_555
H20 C18 1_555 1_555
C19 C18 1_555 1_555
H21 C19 1_555 1_555
H22 C19 1_555 1_555
C20 C19 1_555 1_555
H23 C20 1_555 1_555
H24 C20 1_555 1_555
C21 C20 1_555 1_555
C22 C21 1_555 1_555
H25 C22 1_555 1_555
C23 C22 1_555 1_555
H26 C23 1_555 1_555
C24 C21 1_555 1_555
H27 C24 1_555 1_555
C25 N2 1_555 1_555
H28 C25 1_555 1_555
Zn1A O3 1_555 1_555
Zn1B N2 1_555 1_555
O3A Zn1 1_555 1_555
O4A Zn1 1_555 1_555
N2B Zn1 1_555 1_555
O4 Zn1A 1_555 1_555
C6 C8 1_555 1_555
C10 C11 1_555 1_555
C10 C12 1_555 1_555
C16 C17 1_555 1_555
C24 C25 1_555 1_555

#END
