
#######################################################################
#
#                 Cambridge Crystallographic Data Centre
#                                CCDC 
#
#######################################################################
#
# If this CIF has been generated from an entry in the Cambridge 
# Structural Database, then it will include bibliographic, chemical, 
# crystal, experimental, refinement or atomic coordinate data resulting 
# from the CCDC's data processing and validation procedures.
#
#######################################################################

data_CUWMEN
_symmetry_cell_setting           monoclinic
_symmetry_space_group_name_H-M   'P 21/c'
_symmetry_Int_Tables_number      14
_space_group_name_Hall           '-P 2ybc'
loop_
_symmetry_equiv_pos_site_id
_symmetry_equiv_pos_as_xyz
1 x,y,z
2 -x,1/2+y,1/2-z
3 -x,-y,-z
4 x,1/2-y,1/2+z
_cell_length_a                   7.3953(3)
_cell_length_b                   11.7792(3)
_cell_length_c                   16.1190(6)
_cell_angle_alpha                90
_cell_angle_beta                 97.235(2)
_cell_angle_gamma                90
_cell_volume                     1392.96
loop_
_atom_site_label
_atom_site_type_symbol
_atom_site_fract_x
_atom_site_fract_y
_atom_site_fract_z
O1 O -0.6695(2) 0.22983(14) 0.16589(10)
O2 O -0.7685(3) 0.04676(17) 0.05559(12)
C1 C -1.2880(4) 0.3385(3) 0.0123(2)
H1 H -1.3358 0.2628 0.0058
H2 H -1.3679 0.39 -0.0207
H3 H -1.2788 0.3602 0.0701
O3 O -0.6221(2) 0.09221(16) 0.26105(12)
C2 C -0.5702(3) 0.17220(18) 0.22094(14)
H4 H -0.658(5) 0.043(3) 0.068(2)
H5 H -0.798(5) 0.018(3) 0.007(2)
H6 H 0.089(4) 0.333(2) 0.2629(16)
H7 H -0.127(4) 0.401(2) 0.3426(18)
H8 H -0.425(4) 0.335(2) 0.324(2)
Zn1 Zn -0.91059(3) 0.16996(2) 0.109120(15)
O4 O -0.1281(2) 0.05861(15) 0.09143(11)
C3 C -0.2375(3) 0.17439(17) 0.19373(13)
O5 O -0.4125(2) 0.03135(16) 0.11736(11)
N1 N -0.0689(2) 0.22029(16) 0.20320(11)
N2 N -0.9574(3) 0.28384(18) 0.01518(12)
C4 C -0.3758(3) 0.21475(18) 0.23731(13)
C5 C -0.2656(3) 0.08048(19) 0.12949(13)
C6 C -0.0300(3) 0.3037(2) 0.25918(16)
N3 N -1.0666(3) 0.40655(19) -0.07976(14)
H9 H -1.1414 0.4515 -0.1087
C7 C -0.1584(4) 0.3460(2) 0.30604(17)
C8 C -1.1044(3) 0.3424(2) -0.01597(16)
C9 C -0.8230(4) 0.3138(3) -0.03272(17)
H10 H -0.7042 0.2862 -0.0254
C10 C -0.3334(3) 0.3027(2) 0.29445(15)
C11 C -0.8887(4) 0.3887(3) -0.09138(17)
H11 H -0.8262 0.4218 -0.1318
Zn1_2 Zn 0.08941(3) 0.16996(2) 0.109120(15)
O4_2 O -1.1281(2) 0.05861(15) 0.09143(11)
N1_2 N -1.0689(2) 0.22029(16) 0.20320(11)
O6 O 0.3413(5) 0.4648(2) 0.1589(2)
H12 H 0.430(6) 0.494(4) 0.183(3)
H13 H 0.352(6) 0.404(4) 0.159(3)
loop_
_geom_bond_atom_site_label_1
_geom_bond_atom_site_label_2
_geom_bond_site_symmetry_1
_geom_bond_site_symmetry_2
O1 C2 1_555 1_555
O2 H4 1_555 1_555
C1 H1 1_555 1_555
H2 C1 1_555 1_555
H3 C1 1_555 1_555
O3 C2 1_555 1_555
C2 C4 1_555 1_555
H5 O2 1_555 1_555
H6 C6 1_555 1_555
H7 C7 1_555 1_555
H8 C10 1_555 1_555
Zn1 O1 1_555 1_555
O4 C5 1_555 1_555
C3 N1 1_555 1_555
O5 C5 1_555 1_555
N1 C6 1_555 1_555
N2 Zn1 1_555 1_555
C4 C3 1_555 1_555
C5 C3 1_555 1_555
C6 C7 1_555 1_555
N3 H9 1_555 1_555
C7 C10 1_555 1_555
C8 C1 1_555 1_555
C9 N2 1_555 1_555
H10 C9 1_555 1_555
C10 C4 1_555 1_555
C11 N3 1_555 1_555
H11 C11 1_555 1_555
O6 H12 1_555 1_555
H13 O6 1_555 1_555
Zn1_2 O4 1_555 1_555
O4_2 Zn1 1_555 1_555
N1_2 Zn1 1_555 1_555
O2 Zn1 1_555 1_555
N1 Zn1_2 1_555 1_555
N2 C8 1_555 1_555
N3 C8 1_555 1_555
C9 C11 1_555 1_555

#END
