
#######################################################################
#
#                 Cambridge Crystallographic Data Centre
#                                CCDC 
#
#######################################################################
#
# If this CIF has been generated from an entry in the Cambridge 
# Structural Database, then it will include bibliographic, chemical, 
# crystal, experimental, refinement or atomic coordinate data resulting 
# from the CCDC's data processing and validation procedures.
#
#######################################################################

data_CUWQUH
_symmetry_cell_setting           orthorhombic
_symmetry_space_group_name_H-M   'I m m m'
_symmetry_Int_Tables_number      71
_space_group_name_Hall           '-I 2 2'
loop_
_symmetry_equiv_pos_site_id
_symmetry_equiv_pos_as_xyz
1 x,y,z
2 -x,-y,z
3 -x,y,-z
4 x,-y,-z
5 1/2+x,1/2+y,1/2+z
6 1/2-x,1/2-y,1/2+z
7 1/2-x,1/2+y,1/2-z
8 1/2+x,1/2-y,1/2-z
9 -x,-y,-z
10 x,y,-z
11 x,-y,z
12 -x,y,z
13 1/2-x,1/2-y,1/2-z
14 1/2+x,1/2+y,1/2-z
15 1/2+x,1/2-y,1/2+z
16 1/2-x,1/2+y,1/2+z
_cell_length_a                   6.6144(2)
_cell_length_b                   7.0328(2)
_cell_length_c                   13.3998(5)
_cell_angle_alpha                90
_cell_angle_beta                 90
_cell_angle_gamma                90
_cell_volume                     623.329
loop_
_atom_site_label
_atom_site_type_symbol
_atom_site_fract_x
_atom_site_fract_y
_atom_site_fract_z
Nb1 Nb 0.0000 0.0000 0.0000
Cu1 Cu 0.0000 0.5000 0.12121(4)
F1 F -0.2877(4) 0.0000 0.0000
F2 F 0.0000 0.2746(4) 0.0000
F3 F 0.0000 0.0000 0.1435(2)
N1 N 0.2890(4) 0.5000 0.14453(19)
C1 C 0.3954(4) 0.3388(4) 0.1460(2)
H1 H 0.326(5) 0.226(4) 0.145(2)
Cu1_2 Cu 0.0000 -0.5000 0.12121(4)
Cu1B Cu 0.0000 0.5000 -0.12121(4)
Cu1_3 Cu 1.0000 0.5000 0.12121(4)
Cu1B_2 Cu 0.0000 -0.5000 -0.12121(4)
Cu1_4 Cu -1.0000 0.5000 0.12121(4)
F1A F 0.2877(4) 0.0000 0.0000
F2A F 0.0000 -0.2746(4) 0.0000
F2A_2 F 0.0000 0.7254(4) 0.0000
F2_2 F 0.0000 -0.7254(4) 0.0000
F3B F 0.0000 0.0000 -0.1435(2)
N1A N 0.7110(4) 0.5000 0.14453(19)
N1A_2 N -0.2890(4) 0.5000 0.14453(19)
N1_2 N -0.7110(4) 0.5000 0.14453(19)
N1A_3 N -0.2890(4) -0.5000 0.14453(19)
N1_3 N 0.2890(4) -0.5000 0.14453(19)
C1K C 0.6046(4) 0.3388(4) 0.1460(2)
C1A C 0.6046(4) 0.6612(4) 0.1460(2)
C1J C 0.3954(4) 0.6612(4) 0.1460(2)
C1A_2 C -0.3954(4) 0.6612(4) 0.1460(2)
C1J_2 C -0.6046(4) 0.6612(4) 0.1460(2)
C1_2 C -0.6046(4) 0.3388(4) 0.1460(2)
C1K_2 C -0.3954(4) 0.3388(4) 0.1460(2)
H1A H 0.674(5) 0.774(4) 0.145(2)
H1J H 0.326(5) 0.774(4) 0.145(2)
H1K H 0.674(5) 0.226(4) 0.145(2)
H1A_2 H -0.326(5) 0.774(4) 0.145(2)
H1_2 H -0.674(5) 0.226(4) 0.145(2)
H1K_2 H -0.326(5) 0.226(4) 0.145(2)
H1J_2 H -0.674(5) 0.774(4) 0.145(2)
loop_
_geom_bond_atom_site_label_1
_geom_bond_atom_site_label_2
_geom_bond_site_symmetry_1
_geom_bond_site_symmetry_2
Nb1 F1 1_555 1_555
Cu1 F2 1_555 1_555
F2 Nb1 1_555 1_555
F3 Nb1 1_555 1_555
N1 Cu1 1_555 1_555
C1 N1 1_555 1_555
H1 C1 1_555 1_555
Cu1_2 F2A 1_555 1_555
Cu1B F2 1_555 1_555
Cu1_3 N1A 1_555 1_555
Cu1B_2 F2A 1_555 1_555
Cu1_4 N1_2 1_555 1_555
F1A Nb1 1_555 1_555
F2A Nb1 1_555 1_555
F2A_2 Cu1 1_555 1_555
F2_2 Cu1_2 1_555 1_555
F3B Nb1 1_555 1_555
N1A C1K 1_555 1_555
N1A_2 Cu1 1_555 1_555
N1_2 C1J_2 1_555 1_555
N1A_3 Cu1_2 1_555 1_555
N1_3 Cu1_2 1_555 1_555
C1K C1 1_555 1_555
C1A N1A 1_555 1_555
C1J N1 1_555 1_555
C1A_2 N1A_2 1_555 1_555
C1J_2 C1A_2 1_555 1_555
C1_2 N1_2 1_555 1_555
C1K_2 N1A_2 1_555 1_555
H1A C1A 1_555 1_555
H1J C1J 1_555 1_555
H1K C1K 1_555 1_555
H1A_2 C1A_2 1_555 1_555
H1_2 C1_2 1_555 1_555
H1K_2 C1K_2 1_555 1_555
H1J_2 C1J_2 1_555 1_555
Cu1B F2A_2 1_555 1_555
Cu1B_2 F2_2 1_555 1_555
C1A C1J 1_555 1_555
C1_2 C1K_2 1_555 1_555

#END
