
#######################################################################
#
#                 Cambridge Crystallographic Data Centre
#                                CCDC 
#
#######################################################################
#
# If this CIF has been generated from an entry in the Cambridge 
# Structural Database, then it will include bibliographic, chemical, 
# crystal, experimental, refinement or atomic coordinate data resulting 
# from the CCDC's data processing and validation procedures.
#
#######################################################################

data_CUWQAN
_symmetry_cell_setting           orthorhombic
_symmetry_space_group_name_H-M   'P 21 21 2'
_symmetry_Int_Tables_number      18
_space_group_name_Hall           'P 2 2ab'
loop_
_symmetry_equiv_pos_site_id
_symmetry_equiv_pos_as_xyz
1 x,y,z
2 -x,-y,z
3 1/2-x,1/2+y,-z
4 1/2+x,1/2-y,-z
_cell_length_a                   13.2749(9)
_cell_length_b                   18.8649(13)
_cell_length_c                   9.7598(7)
_cell_angle_alpha                90
_cell_angle_beta                 90
_cell_angle_gamma                90
_cell_volume                     2444.14
loop_
_atom_site_label
_atom_site_type_symbol
_atom_site_fract_x
_atom_site_fract_y
_atom_site_fract_z
C1 C 0.8703(5) 1.7054(3) 0.6066(6)
H1 H 0.8893 1.7528 0.6102
C2 C 0.8996(4) 1.6611(3) 0.7089(6)
H2 H 0.9349 1.6787 0.7838
C3 C 0.8759(5) 1.5872(3) 0.7011(6)
C4 C 0.8177(5) 1.5650(3) 0.5944(6)
H3 H 0.7977 1.5179 0.5885
C5 C 0.7882(5) 1.6133(3) 0.4943(7)
H4 H 0.7493 1.5974 0.4213
C6 C 0.9698(5) 1.5647(3) 0.9019(7)
H5 H 0.9379 1.6010 0.9571
H6 H 1.0291 1.5848 0.8589
C7 C 0.7550(4) 1.3850(3) 1.4240(6)
H7 H 0.6913 1.3998 1.4518
C8 C 0.7978(5) 1.4173(3) 1.3116(6)
H8 H 0.7633 1.4525 1.2641
C9 C 0.8950(5) 1.3958(3) 1.2698(6)
C10 C 0.9433(4) 1.3426(3) 1.3449(7)
H9 H 1.0075 1.3275 1.3201
C11 C 0.8953(5) 1.3128(3) 1.4557(6)
H10 H 0.9283 1.2775 1.5050
C12 C 0.9096(5) 1.4775(3) 1.0831(7)
H11 H 0.8875 1.5163 1.1411
H12 H 0.8536 1.4620 1.0267
C13 C 1.0000 1.5000 0.9937(9)
C14 C 0.8280(5) 1.1825(3) 1.8428(7)
C15 C 0.8806(4) 1.1352(3) 1.9439(6)
C16 C 0.8213(5) 1.1286(4) 2.0798(7)
H13 H 0.7716 1.0910 2.0728
H14 H 0.7865 1.1726 2.0996
C17 C 0.8981(5) 1.1114(3) 2.1966(7)
H15 H 0.8916 1.1448 2.2717
H16 H 0.8881 1.0637 2.2314
C18 C 1.0029(5) 1.1186(3) 2.1256(6)
H17 H 1.0261 1.0714 2.0979
C19 C 0.9848(5) 1.1647(3) 1.9936(6)
C20 C 1.0841(5) 1.1534(3) 2.2158(6)
C21 C 1.0713(5) 1.1544(3) 1.8920(6)
H18 H 1.0514 1.1717 1.8036
H19 H 1.0874 1.1049 1.8855
H20 H 1.1294 1.1801 1.9231
C22 C 0.9766(4) 1.2450(3) 2.0296(6)
H21 H 1.0409 1.2620 2.0604
H22 H 0.9276 1.2515 2.1008
H23 H 0.9563 1.2710 1.9497
C23 C 0.8891(5) 1.0625(3) 1.8785(6)
H24 H 0.8278 1.0517 1.8307
H25 H 0.9005 1.0276 1.9484
H26 H 0.9444 1.0622 1.8151
Cd1 Cd 0.72705(3) 1.26745(2) 1.66491(4)
N1 N 0.8009(3) 1.3330(2) 1.4961(5)
N2 N 0.8140(4) 1.6824(3) 0.4993(6)
O1 O 0.8742(3) 1.2139(2) 1.7476(4)
O2 O 0.7331(3) 1.1864(2) 1.8441(5)
O3 O 1.0628(3) 1.1911(2) 2.3206(5)
O4 O 1.1741(3) 1.1448(2) 2.1840(5)
O5 O 0.9019(3) 1.5396(2) 0.8007(4)
O6 O 0.9484(3) 1.4204(2) 1.1630(5)
C1A C 1.1297(5) 1.2946(3) 0.6066(6)
H1A H 1.1107 1.2472 0.6102
C2A C 1.1004(4) 1.3389(3) 0.7089(6)
H2A H 1.0651 1.3213 0.7838
C3A C 1.1241(5) 1.4128(3) 0.7011(6)
C4A C 1.1823(5) 1.4350(3) 0.5944(6)
H3A H 1.2023 1.4821 0.5885
C5A C 1.2118(5) 1.3867(3) 0.4943(7)
H4A H 1.2507 1.4026 0.4213
C6A C 1.0302(5) 1.4353(3) 0.9019(7)
H5A H 1.0621 1.3990 0.9571
H6A H 0.9709 1.4152 0.8589
C7A C 1.2450(4) 1.6150(3) 1.4240(6)
H7A H 1.3087 1.6002 1.4518
C8A C 1.2022(5) 1.5827(3) 1.3116(6)
H8A H 1.2367 1.5475 1.2641
C9A C 1.1050(5) 1.6042(3) 1.2698(6)
C10A C 1.0567(4) 1.6574(3) 1.3449(7)
H9A H 0.9925 1.6725 1.3201
C11A C 1.1047(5) 1.6872(3) 1.4557(6)
H10A H 1.0717 1.7225 1.5050
C12A C 1.0904(5) 1.5225(3) 1.0831(7)
H11A H 1.1125 1.4837 1.1411
H12A H 1.1464 1.5380 1.0267
C14C C 0.3280(5) 1.3175(3) 2.1572(7)
C15C C 0.3806(4) 1.3648(3) 2.0561(6)
C16C C 0.3213(5) 1.3714(4) 1.9202(7)
H13C H 0.2716 1.4090 1.9272
H14C H 0.2865 1.3274 1.9004
C17C C 0.3981(5) 1.3886(3) 1.8034(7)
H15C H 0.3916 1.3552 1.7283
H16C H 0.3881 1.4363 1.7686
C18C C 0.5029(5) 1.3814(3) 1.8744(6)
H17C H 0.5261 1.4286 1.9021
C19C C 0.4848(5) 1.3353(3) 2.0064(6)
C20C C 0.5841(5) 1.3466(3) 1.7842(6)
C21C C 0.5713(5) 1.3456(3) 2.1080(6)
H18C H 0.5514 1.3283 2.1964
H19C H 0.5874 1.3951 2.1145
H20C H 0.6294 1.3199 2.0769
C22C C 0.4766(4) 1.2550(3) 1.9704(6)
H21C H 0.5409 1.2380 1.9396
H22C H 0.4276 1.2485 1.8992
H23C H 0.4563 1.2290 2.0503
C23C C 0.3891(5) 1.4375(3) 2.1215(6)
H24C H 0.3278 1.4483 2.1693
H25C H 0.4005 1.4724 2.0516
H26C H 0.4444 1.4378 2.1849
Cd1A Cd 1.27295(3) 1.73255(2) 1.66491(4)
Cd1B Cd 0.77295(3) 1.76745(2) 0.33509(4)
Cd1C Cd 1.22705(3) 1.23255(2) 2.33509(4)
Cd1C_2 Cd 1.22705(3) 1.23255(2) 0.33509(4)
Cd1C_3 Cd 0.22705(3) 1.23255(2) 2.33509(4)
N1A N 1.1991(3) 1.6670(2) 1.4961(5)
N2A N 1.1860(4) 1.3176(3) 0.4993(6)
N2B N 0.6860(4) 1.1824(3) 1.5007(6)
N2C N 1.3140(4) 1.8176(3) 1.5007(6)
O1C O 0.3742(3) 1.2861(2) 2.2524(4)
O1A O 1.1258(3) 1.7861(2) 1.7476(4)
O2C O 0.2331(3) 1.3136(2) 2.1559(5)
O2A O 1.2669(3) 1.8136(2) 1.8441(5)
O3C O 0.5628(3) 1.3089(2) 1.6794(5)
O3B O 1.4372(3) 1.6911(2) 1.6794(5)
O4C O 0.6741(3) 1.3552(2) 1.8160(5)
O4B O 1.3259(3) 1.6448(2) 1.8160(5)
O5A O 1.0981(3) 1.4604(2) 0.8007(4)
O6A O 1.0516(3) 1.5796(2) 1.1630(5)
O7 O 0.5124(6) 0.6258(3) 0.4509(8)
H27 H 0.5285 0.6545 0.5143
H28 H 0.4923 0.6523 0.3860
H29? H 0.8687 0.0142 0.5007
H30? H 0.9499 -0.0010 0.6050
O8? O 0.9294(10) 0.0063(6) 0.5236(12)
loop_
_geom_bond_atom_site_label_1
_geom_bond_atom_site_label_2
_geom_bond_site_symmetry_1
_geom_bond_site_symmetry_2
C1 H1 1_555 1_555
C2 C1 1_555 1_555
H2 C2 1_555 1_555
C3 C2 1_555 1_555
C4 C3 1_555 1_555
H3 C4 1_555 1_555
C5 C4 1_555 1_555
H4 C5 1_555 1_555
C6 H5 1_555 1_555
H6 C6 1_555 1_555
C7 H7 1_555 1_555
C8 C7 1_555 1_555
H8 C8 1_555 1_555
C9 C8 1_555 1_555
C10 C9 1_555 1_555
H9 C10 1_555 1_555
C11 C10 1_555 1_555
H10 C11 1_555 1_555
C12 H11 1_555 1_555
H12 C12 1_555 1_555
C13 C6 1_555 1_555
C14 C15 1_555 1_555
C15 C16 1_555 1_555
C16 H13 1_555 1_555
H14 C16 1_555 1_555
C17 C16 1_555 1_555
H15 C17 1_555 1_555
H16 C17 1_555 1_555
C18 C17 1_555 1_555
H17 C18 1_555 1_555
C19 C15 1_555 1_555
C20 C18 1_555 1_555
C21 C19 1_555 1_555
H18 C21 1_555 1_555
H19 C21 1_555 1_555
H20 C21 1_555 1_555
C22 C19 1_555 1_555
H21 C22 1_555 1_555
H22 C22 1_555 1_555
H23 C22 1_555 1_555
C23 C15 1_555 1_555
H24 C23 1_555 1_555
H25 C23 1_555 1_555
H26 C23 1_555 1_555
Cd1 N1 1_555 1_555
N1 C7 1_555 1_555
N2 C1 1_555 1_555
O1 C14 1_555 1_555
O2 C14 1_555 1_555
O3 C20 1_555 1_555
O4 C20 1_555 1_555
O5 C3 1_555 1_555
O6 C9 1_555 1_555
O7 H27 1_555 1_555
H28 O7 1_555 1_555
C1A H1A 1_555 1_555
C2A C1A 1_555 1_555
H2A C2A 1_555 1_555
C3A C2A 1_555 1_555
C4A C3A 1_555 1_555
H3A C4A 1_555 1_555
C5A C4A 1_555 1_555
H4A C5A 1_555 1_555
C6A C13 1_555 1_555
H5A C6A 1_555 1_555
H6A C6A 1_555 1_555
C7A H7A 1_555 1_555
C8A C7A 1_555 1_555
H8A C8A 1_555 1_555
C9A C8A 1_555 1_555
C10A C9A 1_555 1_555
H9A C10A 1_555 1_555
C11A C10A 1_555 1_555
H10A C11A 1_555 1_555
C12A C13 1_555 1_555
H11A C12A 1_555 1_555
H12A C12A 1_555 1_555
C14C C15C 1_555 1_555
C15C C16C 1_555 1_555
C16C H13C 1_555 1_555
H14C C16C 1_555 1_555
C17C C16C 1_555 1_555
H15C C17C 1_555 1_555
H16C C17C 1_555 1_555
C18C C17C 1_555 1_555
H17C C18C 1_555 1_555
C19C C15C 1_555 1_555
C20C C18C 1_555 1_555
C21C C19C 1_555 1_555
H18C C21C 1_555 1_555
H19C C21C 1_555 1_555
H20C C21C 1_555 1_555
C22C C19C 1_555 1_555
H21C C22C 1_555 1_555
H22C C22C 1_555 1_555
H23C C22C 1_555 1_555
C23C C15C 1_555 1_555
H24C C23C 1_555 1_555
H25C C23C 1_555 1_555
H26C C23C 1_555 1_555
Cd1A N1A 1_555 1_555
Cd1B N2 1_555 1_555
Cd1C O3 1_555 1_555
Cd1C_2 N2A 1_555 1_555
Cd1C_3 O1C 1_555 1_555
N1A C7A 1_555 1_555
N2A C1A 1_555 1_555
N2B Cd1 1_555 1_555
N2C Cd1A 1_555 1_555
O1C C14C 1_555 1_555
O1A Cd1A 1_555 1_555
O2C C14C 1_555 1_555
O2A Cd1A 1_555 1_555
O3C Cd1 1_555 1_555
O3B Cd1A 1_555 1_555
O4C Cd1 1_555 1_555
O4B Cd1A 1_555 1_555
O5A C3A 1_555 1_555
O6A C9A 1_555 1_555
C5 N2 1_555 1_555
C6 O5 1_555 1_555
C11 N1 1_555 1_555
C12 C13 1_555 1_555
C12 O6 1_555 1_555
C18 C19 1_555 1_555
Cd1 O1 1_555 1_555
Cd1 O2 1_555 1_555
O4 Cd1C 1_555 1_555
C5A N2A 1_555 1_555
C6A O5A 1_555 1_555
C11A N1A 1_555 1_555
C12A O6A 1_555 1_555
C18C C19C 1_555 1_555
C20C O3C 1_555 1_555
C20C O4C 1_555 1_555
Cd1C_3 O2C 1_555 1_555

#END
