
#######################################################################
#
#                 Cambridge Crystallographic Data Centre
#                                CCDC 
#
#######################################################################
#
# If this CIF has been generated from an entry in the Cambridge 
# Structural Database, then it will include bibliographic, chemical, 
# crystal, experimental, refinement or atomic coordinate data resulting 
# from the CCDC's data processing and validation procedures.
#
#######################################################################

data_CUWTUK
_symmetry_cell_setting           monoclinic
_symmetry_space_group_name_H-M   'P 21/n'
_symmetry_Int_Tables_number      14
_space_group_name_Hall           '-P 2yn'
loop_
_symmetry_equiv_pos_site_id
_symmetry_equiv_pos_as_xyz
1 x,y,z
2 1/2-x,1/2+y,1/2-z
3 -x,-y,-z
4 1/2+x,1/2-y,1/2+z
_cell_length_a                   11.3573(7)
_cell_length_b                   10.2450(7)
_cell_length_c                   15.6754(13)
_cell_angle_alpha                90
_cell_angle_beta                 99.498(2)
_cell_angle_gamma                90
_cell_volume                     1798.92
loop_
_atom_site_label
_atom_site_type_symbol
_atom_site_fract_x
_atom_site_fract_y
_atom_site_fract_z
Co1 Co 1.25383(8) 0.75483(10) 0.69027(6)
N1 N 1.2140(5) 0.6416(5) 0.5796(4)
C1 C 1.1939(6) 0.5123(7) 0.5850(5)
C2 C 1.1537(7) 0.4376(7) 0.5126(4)
H1 H 1.1387 0.3469 0.5173
C3 C 1.1360(8) 0.4999(8) 0.4323(5)
H2 H 1.1068 0.4518 0.3814
C4 C 1.1609(7) 0.6311(7) 0.4268(5)
H3 H 1.1516 0.6737 0.3722
C5 C 1.1997(6) 0.6995(7) 0.5024(5)
C6 C 1.2189(6) 0.4660(7) 0.6785(4)
O1 O 1.2080(4) 0.3454(4) 0.6918(3)
O2 O 1.2498(4) 0.5517(5) 0.7352(3)
C7 C 1.2314(6) 0.8432(7) 0.5090(5)
O3 O 1.2466(5) 0.9033(5) 0.4430(3)
O4 O 1.2420(4) 0.8908(5) 0.5857(3)
N2 N 1.0678(5) 0.7708(5) 0.6985(3)
C8 C 0.9885(6) 0.8259(6) 0.6366(5)
H4 H 1.0172 0.8670 0.5897
C9 C 0.8675(6) 0.8262(6) 0.6371(4)
H5 H 0.8150 0.8667 0.5912
C10 C 0.8219(5) 0.7672(6) 0.7049(4)
C11 C 0.9064(6) 0.7155(7) 0.7728(4)
H6 H 0.8804 0.6779 0.8219
C12 C 1.0262(6) 0.7195(7) 0.7681(4)
H7 H 1.0818 0.6855 0.8148
C13 C 0.6936(5) 0.7607(6) 0.7035(4)
C14 C 0.6180(6) 0.8638(7) 0.6729(5)
H8 H 0.6498 0.9418 0.6531
C15 C 0.4976(6) 0.8520(7) 0.6716(5)
H9 H 0.4485 0.9241 0.6509
N3 N 0.4450(5) 0.7473(5) 0.6972(3)
C16 C 0.5161(6) 0.6480(7) 0.7302(5)
H10 H 0.4808 0.5729 0.7511
C17 C 0.6381(6) 0.6519(7) 0.7345(4)
H11 H 0.6853 0.5802 0.7587
Co1A Co 1.24617(8) 0.25483(10) 0.80973(6)
Co1_2 Co 0.25383(8) 0.75483(10) 0.69027(6)
O1A O 1.2920(4) 0.8454(4) 0.8082(3)
N3_2 N 1.4450(5) 0.7473(5) 0.6972(3)
O5 O 1.1162(6) 0.1315(6) 0.5737(4)
O6 O 1.0681(7) 0.5920(8) 0.9629(4)
O8 O 1.0000 0.0000 0.0000
O7? O 0.9813(15) 0.1371(15) 0.0130(11)
O9? O 0.988(2) 0.082(3) 0.0061(16)
loop_
_geom_bond_atom_site_label_1
_geom_bond_atom_site_label_2
_geom_bond_site_symmetry_1
_geom_bond_site_symmetry_2
Co1 N1 1_555 1_555
N1 C1 1_555 1_555
C1 C2 1_555 1_555
C2 H1 1_555 1_555
C3 C2 1_555 1_555
H2 C3 1_555 1_555
C4 C3 1_555 1_555
H3 C4 1_555 1_555
C5 N1 1_555 1_555
C6 C1 1_555 1_555
O1 C6 1_555 1_555
O2 Co1 1_555 1_555
C7 C5 1_555 1_555
O3 C7 1_555 1_555
O4 Co1 1_555 1_555
N2 Co1 1_555 1_555
C8 N2 1_555 1_555
H4 C8 1_555 1_555
C9 C8 1_555 1_555
H5 C9 1_555 1_555
C10 C9 1_555 1_555
C11 C10 1_555 1_555
H6 C11 1_555 1_555
C12 N2 1_555 1_555
H7 C12 1_555 1_555
C13 C10 1_555 1_555
C14 C13 1_555 1_555
H8 C14 1_555 1_555
C15 C14 1_555 1_555
H9 C15 1_555 1_555
N3 C15 1_555 1_555
C16 N3 1_555 1_555
H10 C16 1_555 1_555
C17 C13 1_555 1_555
H11 C17 1_555 1_555
Co1A O1 1_555 1_555
Co1_2 N3 1_555 1_555
O1A Co1 1_555 1_555
N3_2 Co1 1_555 1_555
C4 C5 1_555 1_555
C6 O2 1_555 1_555
C7 O4 1_555 1_555
C11 C12 1_555 1_555
C16 C17 1_555 1_555

#END
