
#######################################################################
#
#                 Cambridge Crystallographic Data Centre
#                                CCDC 
#
#######################################################################
#
# If this CIF has been generated from an entry in the Cambridge 
# Structural Database, then it will include bibliographic, chemical, 
# crystal, experimental, refinement or atomic coordinate data resulting 
# from the CCDC's data processing and validation procedures.
#
#######################################################################

data_CUWWOH
_symmetry_cell_setting           monoclinic
_symmetry_space_group_name_H-M   'C 2/c'
_symmetry_Int_Tables_number      15
_space_group_name_Hall           '-C 2yn'
loop_
_symmetry_equiv_pos_site_id
_symmetry_equiv_pos_as_xyz
1 x,y,z
2 -x,y,1/2-z
3 1/2+x,1/2+y,z
4 1/2-x,1/2+y,1/2-z
5 -x,-y,-z
6 x,-y,1/2+z
7 1/2-x,1/2-y,-z
8 1/2+x,1/2-y,1/2+z
_cell_length_a                   22.330(4)
_cell_length_b                   10.9143(15)
_cell_length_c                   17.122(3)
_cell_angle_alpha                90
_cell_angle_beta                 116.890(4)
_cell_angle_gamma                90
_cell_volume                     3721.72
loop_
_atom_site_label
_atom_site_type_symbol
_atom_site_fract_x
_atom_site_fract_y
_atom_site_fract_z
Ni1 Ni 0.5000 0.0000 0.0000
Ni2 Ni 0.7500 -0.2500 0.5000
Na1 Na 0.64389(6) 0.11487(12) 0.05295(8)
O1 O 0.54435(11) 0.1586(2) 0.05914(13)
O2 O 0.43940(11) 0.0016(2) 0.05884(14)
O3 O 0.75875(11) -0.42519(19) 0.46596(13)
O4 O 0.65344(11) -0.2797(2) 0.47329(14)
N1 N 0.57260(15) -0.0968(3) 0.10236(18)
N2 N 0.6503(2) -0.2353(3) 0.2122(2)
N3 N 0.71776(14) -0.2056(2) 0.36920(17)
N4 N 0.70790(17) 0.0929(4) 0.2138(2)
C1 C 0.5674(2) 0.3375(4) 0.1440(3)
H1 H 0.6153 0.3173 0.1746
H2 H 0.5537 0.3761 0.1850
H3 H 0.5593 0.3942 0.0958
C2 C 0.52721(17) 0.2218(3) 0.1078(2)
C3 C 0.47677(18) 0.1912(3) 0.1311(2)
H4 H 0.4678 0.2493 0.1657
C4 C 0.43796(17) 0.0845(4) 0.1090(2)
C5 C 0.3915(2) 0.0630(4) 0.1499(3)
H5 H 0.3489 0.0291 0.1060
H6 H 0.3830 0.1409 0.1717
H7 H 0.4124 0.0052 0.1987
C6 C 0.7250(2) -0.6145(3) 0.3922(3)
H8 H 0.7355 -0.6010 0.3432
H9 H 0.6862 -0.6694 0.3736
H10 H 0.7638 -0.6517 0.4412
C7 C 0.70863(18) -0.4931(3) 0.4209(2)
C8 C 0.64181(18) -0.4661(3) 0.3976(2)
H11 H 0.6094 -0.5233 0.3605
C9 C 0.61727(17) -0.3636(3) 0.4230(2)
C10 C 0.54274(19) -0.3472(5) 0.3896(3)
H12 H 0.5325 -0.3390 0.4393
H13 H 0.5192 -0.4187 0.3545
H14 H 0.5281 -0.2733 0.3533
C11 C 0.60941(18) -0.1564(3) 0.1576(2)
C12 C 0.68449(18) -0.2132(3) 0.2952(2)
C13 C 0.7931(2) 0.0629(4) 0.3763(2)
H15 H 0.7829 0.1203 0.4127
H16 H 0.8386 0.0784 0.3838
H17 H 0.7901 -0.0213 0.3941
C14 C 0.74506(19) 0.0800(3) 0.2847(2)
Ni2B Ni 0.2500 0.2500 -0.5000
Na1D Na 0.35611(6) -0.11487(12) -0.05295(8)
Na1C Na 0.85611(6) -0.38513(12) 0.44705(8)
Na1E Na 0.64389(6) -0.11487(12) 0.55295(8)
O1D O 0.45565(11) -0.1586(2) -0.05914(13)
O2D O 0.56060(11) -0.0016(2) -0.05884(14)
O3F O 0.74125(11) -0.07481(19) 0.53404(13)
O3C O 0.74125(11) 0.07481(19) 0.03404(13)
O3G O 0.25875(11) -0.07481(19) -0.03404(13)
O4F O 0.84656(11) -0.2203(2) 0.52671(14)
O4E O 0.65344(11) 0.2797(2) -0.02671(14)
O4A O 0.34656(11) -0.2797(2) 0.02671(14)
N1D N 0.42740(15) 0.0968(3) -0.10236(18)
N2D N 0.3497(2) 0.2353(3) -0.2122(2)
N3D N 0.28224(14) 0.2056(2) -0.36920(17)
N3F N 0.78224(14) -0.2944(2) 0.63080(17)
N4D N 0.29210(17) -0.0929(4) -0.2138(2)
C1D C 0.4326(2) -0.3375(4) -0.1440(3)
H1D H 0.3847 -0.3173 -0.1746
H2D H 0.4463 -0.3761 -0.1850
H3D H 0.4407 -0.3942 -0.0958
C2D C 0.47279(17) -0.2218(3) -0.1078(2)
C3D C 0.52323(18) -0.1912(3) -0.1311(2)
H4D H 0.5322 -0.2493 -0.1657
C4D C 0.56204(17) -0.0845(4) -0.1090(2)
C5D C 0.6085(2) -0.0630(4) -0.1499(3)
H5D H 0.6511 -0.0291 -0.1060
H6D H 0.6170 -0.1409 -0.1717
H7D H 0.5876 -0.0052 -0.1987
C6F C 0.7750(2) 0.1145(3) 0.6078(3)
H8F H 0.7645 0.1010 0.6568
H9F H 0.8138 0.1694 0.6264
H10F H 0.7362 0.1517 0.5588
C7F C 0.79137(18) -0.0069(3) 0.5791(2)
C8F C 0.85819(18) -0.0339(3) 0.6024(2)
H11F H 0.8906 0.0233 0.6395
C9F C 0.88273(17) -0.1364(3) 0.5770(2)
C10F C 0.95726(19) -0.1528(5) 0.6104(3)
H12F H 0.9675 -0.1610 0.5607
H13F H 0.9808 -0.0813 0.6455
H14F H 0.9719 -0.2267 0.6467
C11D C 0.39059(18) 0.1564(3) -0.1576(2)
C12D C 0.31551(18) 0.2132(3) -0.2952(2)
C13D C 0.2069(2) -0.0629(4) -0.3763(2)
H15D H 0.2171 -0.1203 -0.4127
H16D H 0.1614 -0.0784 -0.3838
H17D H 0.2099 0.0213 -0.3941
C14D C 0.25494(19) -0.0800(3) -0.2847(2)
loop_
_geom_bond_atom_site_label_1
_geom_bond_atom_site_label_2
_geom_bond_site_symmetry_1
_geom_bond_site_symmetry_2
Ni1 O1 1_555 1_555
Ni2 O3 1_555 1_555
Na1 O1 1_555 1_555
O1 C2 1_555 1_555
O2 Ni1 1_555 1_555
O3 C7 1_555 1_555
O4 Ni2 1_555 1_555
N1 Ni1 1_555 1_555
N2 C11 1_555 1_555
N3 Ni2 1_555 1_555
N4 Na1 1_555 1_555
C1 H1 1_555 1_555
H2 C1 1_555 1_555
H3 C1 1_555 1_555
C2 C1 1_555 1_555
C3 C2 1_555 1_555
H4 C3 1_555 1_555
C4 O2 1_555 1_555
C5 C4 1_555 1_555
H5 C5 1_555 1_555
H6 C5 1_555 1_555
H7 C5 1_555 1_555
C6 H8 1_555 1_555
H9 C6 1_555 1_555
H10 C6 1_555 1_555
C7 C6 1_555 1_555
C8 C7 1_555 1_555
H11 C8 1_555 1_555
C9 O4 1_555 1_555
C10 C9 1_555 1_555
H12 C10 1_555 1_555
H13 C10 1_555 1_555
H14 C10 1_555 1_555
C11 N1 1_555 1_555
C12 N2 1_555 1_555
C13 H15 1_555 1_555
H16 C13 1_555 1_555
H17 C13 1_555 1_555
C14 N4 1_555 1_555
Ni2B N3D 1_555 1_555
Na1D O2 1_555 1_555
Na1C O3 1_555 1_555
Na1E O4 1_555 1_555
O1D Ni1 1_555 1_555
O2D Ni1 1_555 1_555
O3F Ni2 1_555 1_555
O3C Na1 1_555 1_555
O3G Na1D 1_555 1_555
O4F Ni2 1_555 1_555
O4E Na1 1_555 1_555
O4A Na1D 1_555 1_555
N1D Ni1 1_555 1_555
N2D C11D 1_555 1_555
N3D C12D 1_555 1_555
N3F Ni2 1_555 1_555
N4D Na1D 1_555 1_555
C1D H1D 1_555 1_555
H2D C1D 1_555 1_555
H3D C1D 1_555 1_555
C2D O1D 1_555 1_555
C3D C2D 1_555 1_555
H4D C3D 1_555 1_555
C4D O2D 1_555 1_555
C5D C4D 1_555 1_555
H5D C5D 1_555 1_555
H6D C5D 1_555 1_555
H7D C5D 1_555 1_555
C6F H8F 1_555 1_555
H9F C6F 1_555 1_555
H10F C6F 1_555 1_555
C7F O3F 1_555 1_555
C8F C7F 1_555 1_555
H11F C8F 1_555 1_555
C9F O4F 1_555 1_555
C10F C9F 1_555 1_555
H12F C10F 1_555 1_555
H13F C10F 1_555 1_555
H14F C10F 1_555 1_555
C11D N1D 1_555 1_555
C12D N2D 1_555 1_555
C13D H15D 1_555 1_555
H16D C13D 1_555 1_555
H17D C13D 1_555 1_555
C14D N4D 1_555 1_555
Na1 O2D 1_555 1_555
N3 C12 1_555 1_555
C3 C4 1_555 1_555
C8 C9 1_555 1_555
C13 C14 1_555 1_555
Na1D O1D 1_555 1_555
Na1C O4F 1_555 1_555
Na1E O3F 1_555 1_555
C1D C2D 1_555 1_555
C3D C4D 1_555 1_555
C6F C7F 1_555 1_555
C8F C9F 1_555 1_555
C13D C14D 1_555 1_555

#END
