
#######################################################################
#
#                 Cambridge Crystallographic Data Centre
#                                CCDC 
#
#######################################################################
#
# If this CIF has been generated from an entry in the Cambridge 
# Structural Database, then it will include bibliographic, chemical, 
# crystal, experimental, refinement or atomic coordinate data resulting 
# from the CCDC's data processing and validation procedures.
#
#######################################################################

data_CUXBUT
_symmetry_cell_setting           orthorhombic
_symmetry_space_group_name_H-M   'P b c n'
_symmetry_Int_Tables_number      60
_space_group_name_Hall           '-P 2n 2ab'
loop_
_symmetry_equiv_pos_site_id
_symmetry_equiv_pos_as_xyz
1 x,y,z
2 1/2-x,1/2-y,1/2+z
3 -x,y,1/2-z
4 1/2+x,1/2-y,-z
5 -x,-y,-z
6 1/2+x,1/2+y,1/2-z
7 x,-y,1/2+z
8 1/2-x,1/2+y,z
_cell_length_a                   12.610(3)
_cell_length_b                   23.552(6)
_cell_length_c                   14.121(4)
_cell_angle_alpha                90
_cell_angle_beta                 90
_cell_angle_gamma                90
_cell_volume                     4193.81
loop_
_atom_site_label
_atom_site_type_symbol
_atom_site_fract_x
_atom_site_fract_y
_atom_site_fract_z
S1 S 0.0000 0.14098(3) 0.2500
O3 O 0.0000 0.08139(10) 0.2500
O4 O -0.0849(4) 0.1743(3) 0.2168(4)
O5 O 0.0829(3) 0.14208(14) 0.1627(4)
O8 O 0.0573(6) 0.1657(3) 0.3220(5)
O4B O 0.0849(4) 0.1743(3) 0.2832(4)
O5B O -0.0829(3) 0.14208(14) 0.3373(4)
O8B O -0.0573(6) 0.1657(3) 0.1780(5)
O7 O 0.79584(13) 0.08776(8) 0.11305(12)
H3 H 0.816(2) 0.0797(11) 0.0572(10)
H4 H 0.8418(17) 0.1116(9) 0.134(2)
Zn1 Zn 2.0000 -0.356319(11) 0.2500
O1 O 0.87319(10) -0.06851(5) 0.43237(10)
O2 O 1.60224(11) -0.16331(6) 0.44833(10)
O6 O 1.88383(10) -0.35580(6) 0.14078(9)
H1 H 1.8258(12) -0.3730(10) 0.133(2)
H2 H 1.901(2) -0.3472(11) 0.0843(9)
N1 N 0.58101(11) 0.07383(6) 0.32632(11)
N2 N 0.84244(11) 0.01139(6) 0.34595(11)
H5 H 0.8728 0.0370 0.3121
N3 N 1.01059(11) -0.01877(7) 0.37399(12)
H6 H 1.0296 0.0084 0.3370
N4 N 1.47462(12) -0.21752(7) 0.38228(12)
H7 H 1.4608 -0.2449 0.3439
N5 N 1.64718(11) -0.24212(6) 0.36335(12)
H8 H 1.6208 -0.2703 0.3326
N6 N 1.91684(10) -0.28850(6) 0.32376(10)
C1 C 0.51956(14) 0.03225(8) 0.36106(15)
H9 H 0.4469 0.0383 0.3660
C2 C 0.56060(15) -0.01888(8) 0.38951(16)
H10 H 0.5154 -0.0470 0.4121
C3 C 0.66763(15) -0.02903(8) 0.38498(15)
H11 H 0.6955 -0.0640 0.4027
C4 C 0.73302(13) 0.01427(7) 0.35322(12)
C5 C 0.68494(13) 0.06441(7) 0.32381(12)
H12 H 0.7283 0.0932 0.3009
C6 C 0.90733(14) -0.02833(7) 0.38737(12)
C7 C 1.09176(15) -0.05260(8) 0.41972(14)
H13 H 1.0580 -0.0769 0.4663
H14 H 1.1392 -0.0273 0.4534
C8 C 1.15643(17) -0.08900(9) 0.35489(15)
H15 H 1.1929 -0.0654 0.3089
H16 H 1.1106 -0.1151 0.3210
C9 C 1.23634(17) -0.12190(10) 0.41296(17)
H17 H 1.1980 -0.1486 0.4526
H18 H 1.2723 -0.0955 0.4547
C10 C 1.31971(17) -0.15455(10) 0.35788(16)
H19 H 1.2856 -0.1808 0.3146
H20 H 1.3624 -0.1284 0.3210
C11 C 1.38786(16) -0.18610(10) 0.42459(15)
H21 H 1.4172 -0.1593 0.4698
H22 H 1.3438 -0.2125 0.4596
C12 C 1.57553(13) -0.20490(7) 0.40163(12)
C13 C 1.75681(13) -0.23998(7) 0.36803(13)
C14 C 1.81578(15) -0.19805(7) 0.41205(15)
H23 H 1.7828 -0.1674 0.4414
C15 C 1.92461(15) -0.20281(8) 0.41129(16)
H24 H 1.9658 -0.1752 0.4406
C16 C 1.97266(14) -0.24786(8) 0.36770(15)
H25 H 2.0463 -0.2504 0.3686
C17 C 1.81163(12) -0.28361(6) 0.32363(12)
H26 H 1.7725 -0.3111 0.2918
Zn1E Zn 0.5000 0.143681(11) 0.2500
Zn1E_2 Zn 3.5000 0.143681(11) 0.2500
O1B O 3.12681(10) -0.06851(5) 0.06763(10)
O2B O 2.39776(11) -0.16331(6) 0.05167(10)
O6B O 2.11617(10) -0.35580(6) 0.35922(9)
H1B H 2.1742(12) -0.3730(10) 0.367(2)
H2B H 2.099(2) -0.3472(11) 0.4157(9)
N1B N 3.41899(11) 0.07383(6) 0.17368(11)
N1E N 2.08101(11) -0.42617(6) 0.17368(11)
N1G N 1.91899(11) -0.42617(6) 0.32632(11)
N2B N 3.15756(11) 0.01139(6) 0.15405(11)
H5B H 3.1272 0.0370 0.1879
N3B N 2.98941(11) -0.01877(7) 0.12601(12)
H6B H 2.9704 0.0084 0.1630
N4B N 2.52538(12) -0.21752(7) 0.11772(12)
H7B H 2.5392 -0.2449 0.1561
N5B N 2.35282(11) -0.24212(6) 0.13665(12)
H8B H 2.3792 -0.2703 0.1674
N6B N 2.08316(10) -0.28850(6) 0.17624(10)
C1B C 3.48044(14) 0.03225(8) 0.13894(15)
H9B H 3.5531 0.0383 0.1340
C2B C 3.43940(15) -0.01888(8) 0.11049(16)
H10B H 3.4846 -0.0470 0.0879
C3B C 3.33237(15) -0.02903(8) 0.11502(15)
H11B H 3.3045 -0.0640 0.0973
C4B C 3.26698(13) 0.01427(7) 0.14678(12)
C5B C 3.31506(13) 0.06441(7) 0.17619(12)
H12B H 3.2717 0.0932 0.1991
C6B C 3.09267(14) -0.02833(7) 0.11263(12)
C7B C 2.90824(15) -0.05260(8) 0.08028(14)
H13B H 2.9420 -0.0769 0.0337
H14B H 2.8608 -0.0273 0.0466
C8B C 2.84357(17) -0.08900(9) 0.14511(15)
H15B H 2.8071 -0.0654 0.1911
H16B H 2.8894 -0.1151 0.1790
C9B C 2.76366(17) -0.12190(10) 0.08704(17)
H17B H 2.8020 -0.1486 0.0474
H18B H 2.7277 -0.0955 0.0453
C10B C 2.68029(17) -0.15455(10) 0.14212(16)
H19B H 2.7144 -0.1808 0.1854
H20B H 2.6376 -0.1284 0.1790
C11B C 2.61214(16) -0.18610(10) 0.07541(15)
H21B H 2.5828 -0.1593 0.0302
H22B H 2.6562 -0.2125 0.0404
C12B C 2.42447(13) -0.20490(7) 0.09837(12)
C13B C 2.24319(13) -0.23998(7) 0.13197(13)
C14B C 2.18422(15) -0.19805(7) 0.08795(15)
H23B H 2.2172 -0.1674 0.0586
C15B C 2.07539(15) -0.20281(8) 0.08871(16)
H24B H 2.0342 -0.1752 0.0594
C16B C 2.02734(14) -0.24786(8) 0.13230(15)
H25B H 1.9537 -0.2504 0.1314
C17B C 2.18837(12) -0.28361(6) 0.17637(12)
H26B H 2.2275 -0.3111 0.2082
loop_
_geom_bond_atom_site_label_1
_geom_bond_atom_site_label_2
_geom_bond_site_symmetry_1
_geom_bond_site_symmetry_2
Zn1 O6 1_555 1_555
O1 C6 1_555 1_555
O2 C12 1_555 1_555
S1 O3 1_555 1_555
O4 S1 1_555 1_555
O5 S1 1_555 1_555
O6 H1 1_555 1_555
H2 O6 1_555 1_555
O7 H3 1_555 1_555
H4 O7 1_555 1_555
N1 C1 1_555 1_555
N2 H5 1_555 1_555
N3 H6 1_555 1_555
N4 H7 1_555 1_555
N5 H8 1_555 1_555
N6 Zn1 1_555 1_555
C1 H9 1_555 1_555
C2 C1 1_555 1_555
H10 C2 1_555 1_555
C3 C2 1_555 1_555
H11 C3 1_555 1_555
C4 N2 1_555 1_555
C5 N1 1_555 1_555
H12 C5 1_555 1_555
C6 N2 1_555 1_555
C7 N3 1_555 1_555
H13 C7 1_555 1_555
H14 C7 1_555 1_555
C8 C7 1_555 1_555
H15 C8 1_555 1_555
H16 C8 1_555 1_555
C9 C8 1_555 1_555
H17 C9 1_555 1_555
H18 C9 1_555 1_555
C10 C9 1_555 1_555
H19 C10 1_555 1_555
H20 C10 1_555 1_555
C11 N4 1_555 1_555
H21 C11 1_555 1_555
H22 C11 1_555 1_555
C12 N4 1_555 1_555
C13 N5 1_555 1_555
C14 C13 1_555 1_555
H23 C14 1_555 1_555
C15 C14 1_555 1_555
H24 C15 1_555 1_555
C16 N6 1_555 1_555
H25 C16 1_555 1_555
C17 N6 1_555 1_555
H26 C17 1_555 1_555
O8 S1 1_555 1_555
Zn1E N1 1_555 1_555
Zn1E_2 N1B 1_555 1_555
O1B C6B 1_555 1_555
O2B C12B 1_555 1_555
O4B S1 1_555 1_555
O5B S1 1_555 1_555
O6B Zn1 1_555 1_555
H1B O6B 1_555 1_555
H2B O6B 1_555 1_555
N1B C1B 1_555 1_555
N1E Zn1 1_555 1_555
N1G Zn1 1_555 1_555
N2B H5B 1_555 1_555
N3B H6B 1_555 1_555
N4B H7B 1_555 1_555
N5B H8B 1_555 1_555
N6B Zn1 1_555 1_555
C1B H9B 1_555 1_555
C2B C1B 1_555 1_555
H10B C2B 1_555 1_555
C3B C2B 1_555 1_555
H11B C3B 1_555 1_555
C4B N2B 1_555 1_555
C5B N1B 1_555 1_555
H12B C5B 1_555 1_555
C6B N2B 1_555 1_555
C7B N3B 1_555 1_555
H13B C7B 1_555 1_555
H14B C7B 1_555 1_555
C8B C7B 1_555 1_555
H15B C8B 1_555 1_555
H16B C8B 1_555 1_555
C9B C8B 1_555 1_555
H17B C9B 1_555 1_555
H18B C9B 1_555 1_555
C10B C9B 1_555 1_555
H19B C10B 1_555 1_555
H20B C10B 1_555 1_555
C11B N4B 1_555 1_555
H21B C11B 1_555 1_555
H22B C11B 1_555 1_555
C12B N4B 1_555 1_555
C13B N5B 1_555 1_555
C14B C13B 1_555 1_555
H23B C14B 1_555 1_555
C15B C14B 1_555 1_555
H24B C15B 1_555 1_555
C16B N6B 1_555 1_555
H25B C16B 1_555 1_555
C17B N6B 1_555 1_555
H26B C17B 1_555 1_555
O8B S1 1_555 1_555
O4 O8B 1_555 1_555
N3 C6 1_555 1_555
N5 C12 1_555 1_555
C3 C4 1_555 1_555
C4 C5 1_555 1_555
C10 C11 1_555 1_555
C13 C17 1_555 1_555
C15 C16 1_555 1_555
O8 O4B 1_555 1_555
N3B C6B 1_555 1_555
N5B C12B 1_555 1_555
C3B C4B 1_555 1_555
C4B C5B 1_555 1_555
C10B C11B 1_555 1_555
C13B C17B 1_555 1_555
C15B C16B 1_555 1_555

#END
