
#######################################################################
#
#                 Cambridge Crystallographic Data Centre
#                                CCDC 
#
#######################################################################
#
# If this CIF has been generated from an entry in the Cambridge 
# Structural Database, then it will include bibliographic, chemical, 
# crystal, experimental, refinement or atomic coordinate data resulting 
# from the CCDC's data processing and validation procedures.
#
#######################################################################

data_CUXCEE
_symmetry_cell_setting           orthorhombic
_symmetry_space_group_name_H-M   'P b c n'
_symmetry_Int_Tables_number      60
_space_group_name_Hall           '-P 2n 2ab'
loop_
_symmetry_equiv_pos_site_id
_symmetry_equiv_pos_as_xyz
1 x,y,z
2 1/2-x,1/2-y,1/2+z
3 1/2+x,1/2-y,-z
4 -x,y,1/2-z
5 -x,-y,-z
6 1/2+x,1/2+y,1/2-z
7 1/2-x,1/2+y,z
8 x,-y,1/2+z
_cell_length_a                   13.1181(14)
_cell_length_b                   23.502(2)
_cell_length_c                   14.1772(15)
_cell_angle_alpha                90
_cell_angle_beta                 90
_cell_angle_gamma                90
_cell_volume                     4370.85
loop_
_atom_site_label
_atom_site_type_symbol
_atom_site_fract_x
_atom_site_fract_y
_atom_site_fract_z
S1 S -0.5000 -0.36227(6) 0.2500
O4 O -0.5000 -0.4212(2) 0.2500
O5 O -0.4218(4) -0.3265(3) 0.2858(5)
O6 O -0.4146(6) -0.3614(3) 0.1709(7)
O5C O -0.5782(4) -0.3265(3) 0.2142(5)
O6C O -0.5854(6) -0.3614(3) 0.3291(7)
O7 O -0.7103(3) -0.4076(2) 0.1174(3)
H3 H -0.691(4) -0.419(2) 0.063(2)
H4 H -0.668(4) -0.3823(19) 0.138(4)
Zn1 Zn 2.0000 -0.35735(3) 0.2500
O1 O 2.1108(2) -0.35731(13) 0.1404(2)
H1 H 2.093(4) -0.348(2) 0.084(2)
H2 H 2.167(2) -0.374(2) 0.139(4)
O2 O 0.8675(2) -0.06790(12) 0.0607(2)
O3 O 1.6091(2) -0.16686(12) 0.0501(2)
N1 N 0.5802(2) 0.07258(14) 0.1740(2)
N2 N 0.8346(2) 0.01601(14) 0.1375(3)
H5 H 0.8634 0.0448 0.1639
N3 N 0.9976(2) -0.01537(15) 0.1179(3)
H6 H 1.0150 0.0159 0.1450
N4 N 1.4887(2) -0.22428(15) 0.1126(3)
H7 H 1.4755 -0.2563 0.1394
N5 N 1.6548(2) -0.25033(14) 0.1240(3)
H8 H 1.6303 -0.2812 0.1472
N6 N 1.9164(2) -0.28978(13) 0.1761(2)
C1 C 0.6802(3) 0.06492(16) 0.1715(3)
H9 H 0.7213 0.0937 0.1956
C2 C 0.7282(3) 0.01651(16) 0.1351(3)
C3 C 0.6667(3) -0.02653(19) 0.1016(3)
H10 H 0.6948 -0.0602 0.0790
C4 C 0.5635(3) -0.01864(19) 0.1024(3)
H11 H 0.5210 -0.0469 0.0789
C5 C 0.5221(3) 0.03049(19) 0.1373(3)
H12 H 0.4517 0.0351 0.1358
C6 C 0.8989(3) -0.02550(17) 0.1022(3)
C7 C 1.0776(4) -0.0558(2) 0.0904(4)
C8 C 1.1012(5) -0.0971(3) 0.1666(5)
C9 C 1.1924(6) -0.1370(4) 0.1432(7)
C10 C 1.2929(6) -0.1038(4) 0.1451(7)
C11 C 1.3870(5) -0.1437(3) 0.1683(5)
C12 C 1.4050(3) -0.1856(2) 0.0899(4)
C13 C 1.5845(3) -0.21094(17) 0.0927(3)
C14 C 1.7606(3) -0.24602(16) 0.1224(3)
C15 C 1.8165(3) -0.20462(17) 0.0752(3)
H13 H 1.7840 -0.1761 0.0410
C16 C 1.9211(3) -0.20695(18) 0.0803(3)
H14 H 1.9600 -0.1794 0.0498
C17 C 1.9687(3) -0.24930(17) 0.1297(3)
H15 H 2.0396 -0.2501 0.1313
C18 C 1.8146(3) -0.28654(16) 0.1736(3)
H16 H 1.7777 -0.3131 0.2082
Zn1E Zn 0.5000 0.14265(3) 0.2500
Zn1E_2 Zn 3.5000 0.14265(3) 0.2500
O1C O 1.8892(2) -0.35731(13) 0.3596(2)
H1C H 1.907(4) -0.348(2) 0.416(2)
H2C H 1.833(2) -0.374(2) 0.361(4)
O2C O 3.1325(2) -0.06790(12) 0.4393(2)
O3C O 2.3909(2) -0.16686(12) 0.4499(2)
N1C N 3.4198(2) 0.07258(14) 0.3260(2)
N1E N 2.0802(2) -0.42742(14) 0.3260(2)
N1F N 1.9198(2) -0.42742(14) 0.1740(2)
N2C N 3.1654(2) 0.01601(14) 0.3625(3)
H5C H 3.1366 0.0448 0.3361
N3C N 3.0024(2) -0.01537(15) 0.3821(3)
H6C H 2.9850 0.0159 0.3550
N4C N 2.5113(2) -0.22428(15) 0.3874(3)
H7C H 2.5245 -0.2563 0.3606
N5C N 2.3452(2) -0.25033(14) 0.3760(3)
H8C H 2.3697 -0.2812 0.3528
N6C N 2.0836(2) -0.28978(13) 0.3239(2)
C1C C 3.3198(3) 0.06492(16) 0.3285(3)
H9C H 3.2787 0.0937 0.3044
C2C C 3.2718(3) 0.01651(16) 0.3649(3)
C3C C 3.3333(3) -0.02653(19) 0.3984(3)
H10C H 3.3052 -0.0602 0.4210
C4C C 3.4365(3) -0.01864(19) 0.3976(3)
H11C H 3.4790 -0.0469 0.4211
C5C C 3.4779(3) 0.03049(19) 0.3627(3)
H12C H 3.5483 0.0351 0.3642
C6C C 3.1011(3) -0.02550(17) 0.3978(3)
C7C C 2.9224(4) -0.0558(2) 0.4096(4)
C8C C 2.8988(5) -0.0971(3) 0.3334(5)
C9C C 2.8076(6) -0.1370(4) 0.3568(7)
C10C C 2.7071(6) -0.1038(4) 0.3549(7)
C11C C 2.6130(5) -0.1437(3) 0.3317(5)
C12C C 2.5950(3) -0.1856(2) 0.4101(4)
C13C C 2.4155(3) -0.21094(17) 0.4073(3)
C14C C 2.2394(3) -0.24602(16) 0.3776(3)
C15C C 2.1835(3) -0.20462(17) 0.4248(3)
H13C H 2.2160 -0.1761 0.4590
C16C C 2.0789(3) -0.20695(18) 0.4197(3)
H14C H 2.0400 -0.1794 0.4502
C17C C 2.0313(3) -0.24930(17) 0.3703(3)
H15C H 1.9604 -0.2501 0.3687
C18C C 2.1854(3) -0.28654(16) 0.3264(3)
H16C H 2.2223 -0.3131 0.2918
C19? C -0.221(2) -0.1589(10) 0.366(4)
C20? C -0.3101(12) -0.2041(10) 0.359(2)
C21? C -0.1574(16) -0.0560(12) 0.340(2)
C22? C -0.246(2) -0.0943(10) 0.372(3)
O8? O -0.4527(10) -0.3416(5) 0.3355(8)
loop_
_geom_bond_atom_site_label_1
_geom_bond_atom_site_label_2
_geom_bond_site_symmetry_1
_geom_bond_site_symmetry_2
Zn1 O1 1_555 1_555
S1 O4 1_555 1_555
O1 H1 1_555 1_555
H2 O1 1_555 1_555
O2 C6 1_555 1_555
O3 C13 1_555 1_555
O5 S1 1_555 1_555
O6 S1 1_555 1_555
O7 H3 1_555 1_555
H4 O7 1_555 1_555
N1 C1 1_555 1_555
N2 H5 1_555 1_555
N3 H6 1_555 1_555
N4 H7 1_555 1_555
N5 H8 1_555 1_555
N6 Zn1 1_555 1_555
C1 H9 1_555 1_555
C2 N2 1_555 1_555
C3 C2 1_555 1_555
H10 C3 1_555 1_555
C4 C3 1_555 1_555
H11 C4 1_555 1_555
C5 N1 1_555 1_555
H12 C5 1_555 1_555
C6 N2 1_555 1_555
C7 N3 1_555 1_555
C8 C7 1_555 1_555
C9 C8 1_555 1_555
C10 C9 1_555 1_555
C11 C10 1_555 1_555
C12 N4 1_555 1_555
C13 N4 1_555 1_555
C14 N5 1_555 1_555
C15 C14 1_555 1_555
H13 C15 1_555 1_555
C16 C15 1_555 1_555
H14 C16 1_555 1_555
C17 N6 1_555 1_555
H15 C17 1_555 1_555
C18 N6 1_555 1_555
H16 C18 1_555 1_555
Zn1E N1 1_555 1_555
Zn1E_2 N1C 1_555 1_555
O1C Zn1 1_555 1_555
H1C O1C 1_555 1_555
H2C O1C 1_555 1_555
O2C C6C 1_555 1_555
O3C C13C 1_555 1_555
O5C S1 1_555 1_555
O6C S1 1_555 1_555
N1C C1C 1_555 1_555
N1E Zn1 1_555 1_555
N1F Zn1 1_555 1_555
N2C H5C 1_555 1_555
N3C H6C 1_555 1_555
N4C H7C 1_555 1_555
N5C H8C 1_555 1_555
N6C Zn1 1_555 1_555
C1C H9C 1_555 1_555
C2C N2C 1_555 1_555
C3C C2C 1_555 1_555
H10C C3C 1_555 1_555
C4C C3C 1_555 1_555
H11C C4C 1_555 1_555
C5C N1C 1_555 1_555
H12C C5C 1_555 1_555
C6C N2C 1_555 1_555
C7C N3C 1_555 1_555
C8C C7C 1_555 1_555
C9C C8C 1_555 1_555
C10C C9C 1_555 1_555
C11C C10C 1_555 1_555
C12C N4C 1_555 1_555
C13C N4C 1_555 1_555
C14C N5C 1_555 1_555
C15C C14C 1_555 1_555
H13C C15C 1_555 1_555
C16C C15C 1_555 1_555
H14C C16C 1_555 1_555
C17C N6C 1_555 1_555
H15C C17C 1_555 1_555
C18C N6C 1_555 1_555
H16C C18C 1_555 1_555
N3 C6 1_555 1_555
N5 C13 1_555 1_555
C1 C2 1_555 1_555
C4 C5 1_555 1_555
C11 C12 1_555 1_555
C14 C18 1_555 1_555
C16 C17 1_555 1_555
N3C C6C 1_555 1_555
N5C C13C 1_555 1_555
C1C C2C 1_555 1_555
C4C C5C 1_555 1_555
C11C C12C 1_555 1_555
C14C C18C 1_555 1_555
C16C C17C 1_555 1_555

#END
