
#######################################################################
#
#                 Cambridge Crystallographic Data Centre
#                                CCDC 
#
#######################################################################
#
# If this CIF has been generated from an entry in the Cambridge 
# Structural Database, then it will include bibliographic, chemical, 
# crystal, experimental, refinement or atomic coordinate data resulting 
# from the CCDC's data processing and validation procedures.
#
#######################################################################

data_CUXCUU
_symmetry_cell_setting           monoclinic
_symmetry_space_group_name_H-M   'P 21/c'
_symmetry_Int_Tables_number      14
_space_group_name_Hall           '-P 2ybc'
loop_
_symmetry_equiv_pos_site_id
_symmetry_equiv_pos_as_xyz
1 x,y,z
2 -x,1/2+y,1/2-z
3 -x,-y,-z
4 x,1/2-y,1/2+z
_cell_length_a                   8.1338(4)
_cell_length_b                   14.9020(7)
_cell_length_c                   25.2700(10)
_cell_angle_alpha                90
_cell_angle_beta                 90.457(3)
_cell_angle_gamma                90
_cell_volume                     3062.88
loop_
_atom_site_label
_atom_site_type_symbol
_atom_site_fract_x
_atom_site_fract_y
_atom_site_fract_z
Zn1 Zn -0.18277(6) -0.18650(3) 0.289527(16)
Zn2 Zn -0.31705(6) -0.29456(3) 0.204838(17)
N1 N -0.0711(4) -0.10817(19) 0.34475(11)
N2 N 0.2497(4) 0.00150(19) 0.49976(12)
N3 N 0.5696(4) -0.1253(2) 0.65126(11)
C1 C -0.0613(5) -0.0189(2) 0.33968(14)
C2 C 0.0144(4) 0.0357(2) 0.37627(13)
C3 C 0.0869(4) -0.0034(2) 0.42095(13)
C4 C 0.0786(4) -0.0958(2) 0.42577(13)
C5 C -0.0004(4) -0.1453(2) 0.38756(14)
C6 C 0.1712(4) 0.0509(2) 0.46280(13)
C7 C 0.1698(5) 0.1437(2) 0.46342(14)
C8 C 0.2529(5) 0.1901(2) 0.50328(14)
C9 C 0.3362(4) 0.1378(2) 0.54131(13)
C10 C 0.3299(4) 0.0453(2) 0.53846(13)
C11 C 0.4967(4) -0.1586(2) 0.60762(14)
C12 C 0.4168(5) -0.1054(2) 0.57107(14)
C13 C 0.4119(4) -0.0136(2) 0.57833(13)
C14 C 0.4848(5) 0.0214(3) 0.62416(14)
C15 C 0.5614(5) -0.0362(3) 0.65873(14)
C16 C 0.2551(5) 0.2888(2) 0.50587(15)
C17 C 0.2842(5) 0.3335(3) 0.55407(16)
C18 C 0.2871(6) 0.4255(3) 0.55722(18)
C19 C 0.2596(6) 0.4773(3) 0.51250(18)
C20 C 0.2307(6) 0.4349(3) 0.46463(19)
C21 C 0.2292(5) 0.3422(3) 0.46145(17)
S1 S 0.2694(2) 0.59502(8) 0.52210(6)
C22 C 0.2017(9) 0.6336(4) 0.4624(3)
O1 O -0.0001(3) -0.18732(18) 0.23413(10)
O2 O -0.1026(3) -0.26503(18) 0.16656(11)
O3 O -0.3048(4) -0.09009(18) 0.24783(11)
O4 O -0.4006(4) -0.17259(19) 0.18111(11)
O5 O -0.4011(3) -0.21615(19) 0.32600(11)
O6 O -0.5018(4) -0.2960(2) 0.25926(11)
O7 O -0.0997(4) -0.30799(17) 0.31515(11)
O8 O -0.1918(4) -0.38921(18) 0.24701(11)
C23 C 0.0097(5) -0.2227(2) 0.18939(14)
C24 C 0.1693(6) -0.2131(3) 0.1606(2)
C25 C -0.3843(5) -0.1001(3) 0.20528(15)
C26 C -0.4659(6) -0.0183(3) 0.18240(18)
C27 C -0.5146(5) -0.2577(2) 0.30294(15)
C28 C -0.6793(6) -0.2619(3) 0.32938(19)
C29 C -0.1144(5) -0.3801(2) 0.29007(15)
C30 C -0.0308(6) -0.4623(3) 0.31236(17)
H1 H 0.1974 0.6970 0.4652
H2 H 0.0964 0.6102 0.4550
H3 H 0.2774 0.6164 0.4359
H4 H -0.1075 0.0063 0.3097
H5 H 0.0192 0.0973 0.3712
H6 H 0.1246 -0.1238 0.4547
H7 H -0.0084 -0.2063 0.3914
H8 H 0.1126 0.1750 0.4373
H9 H 0.3965 0.1652 0.5683
H10 H 0.5013 -0.2199 0.6021
H11 H 0.3694 -0.1307 0.5411
H12 H 0.4807 0.0825 0.6312
H13 H 0.6076 -0.0130 0.6884
H14 H 0.2998 0.3001 0.5844
H15 H 0.3086 0.4535 0.5898
H16 H 0.2114 0.4682 0.4340
H17 H 0.2123 0.3153 0.4288
H18 H 0.1728 -0.2514 0.1302
H19 H 0.2592 -0.2266 0.1838
H20 H 0.1798 -0.1524 0.1491
H21 H -0.4470 -0.0156 0.1451
H22 H -0.5808 -0.0218 0.1887
H23 H -0.4248 0.0345 0.1989
H24 H -0.7287 -0.3194 0.3243
H25 H -0.6661 -0.2507 0.3663
H26 H -0.7497 -0.2174 0.3142
H27 H -0.0799 -0.5147 0.2990
H28 H -0.0371 -0.4622 0.3502
H29 H 0.0824 -0.4613 0.3028
Zn2C Zn 0.68295(6) -0.20544(3) 0.704838(17)
N3C N -0.4304(4) -0.3747(2) 0.15126(11)
loop_
_geom_bond_atom_site_label_1
_geom_bond_atom_site_label_2
_geom_bond_site_symmetry_1
_geom_bond_site_symmetry_2
Zn1 N1 1_555 1_555
Zn2 O2 1_555 1_555
N1 C1 1_555 1_555
N2 C6 1_555 1_555
N3 C11 1_555 1_555
C1 C2 1_555 1_555
C2 C3 1_555 1_555
C3 C4 1_555 1_555
C4 C5 1_555 1_555
C5 N1 1_555 1_555
C6 C3 1_555 1_555
C7 C6 1_555 1_555
C8 C7 1_555 1_555
C9 C8 1_555 1_555
C10 N2 1_555 1_555
C11 C12 1_555 1_555
C12 C13 1_555 1_555
C13 C10 1_555 1_555
C14 C13 1_555 1_555
C15 N3 1_555 1_555
C16 C8 1_555 1_555
C17 C16 1_555 1_555
C18 C17 1_555 1_555
C19 C18 1_555 1_555
C20 C19 1_555 1_555
C21 C16 1_555 1_555
S1 C19 1_555 1_555
C22 S1 1_555 1_555
O1 Zn1 1_555 1_555
O2 C23 1_555 1_555
O3 Zn1 1_555 1_555
O4 Zn2 1_555 1_555
O5 Zn1 1_555 1_555
O6 Zn2 1_555 1_555
O7 Zn1 1_555 1_555
O8 Zn2 1_555 1_555
C23 O1 1_555 1_555
C24 C23 1_555 1_555
C25 O3 1_555 1_555
C26 C25 1_555 1_555
C27 O5 1_555 1_555
C28 C27 1_555 1_555
C29 O7 1_555 1_555
C30 C29 1_555 1_555
H1 C22 1_555 1_555
H2 C22 1_555 1_555
H3 C22 1_555 1_555
H4 C1 1_555 1_555
H5 C2 1_555 1_555
H6 C4 1_555 1_555
H7 C5 1_555 1_555
H8 C7 1_555 1_555
H9 C9 1_555 1_555
H10 C11 1_555 1_555
H11 C12 1_555 1_555
H12 C14 1_555 1_555
H13 C15 1_555 1_555
H14 C17 1_555 1_555
H15 C18 1_555 1_555
H16 C20 1_555 1_555
H17 C21 1_555 1_555
H18 C24 1_555 1_555
H19 C24 1_555 1_555
H20 C24 1_555 1_555
H21 C26 1_555 1_555
H22 C26 1_555 1_555
H23 C26 1_555 1_555
H24 C28 1_555 1_555
H25 C28 1_555 1_555
H26 C28 1_555 1_555
H27 C30 1_555 1_555
H28 C30 1_555 1_555
H29 C30 1_555 1_555
Zn2C N3 1_555 1_555
N3C Zn2 1_555 1_555
C9 C10 1_555 1_555
C14 C15 1_555 1_555
C20 C21 1_555 1_555
O4 C25 1_555 1_555
O6 C27 1_555 1_555
O8 C29 1_555 1_555

#END
