
#######################################################################
#
#                 Cambridge Crystallographic Data Centre
#                                CCDC 
#
#######################################################################
#
# If this CIF has been generated from an entry in the Cambridge 
# Structural Database, then it will include bibliographic, chemical, 
# crystal, experimental, refinement or atomic coordinate data resulting 
# from the CCDC's data processing and validation procedures.
#
#######################################################################

data_CUXCAA
_symmetry_cell_setting           orthorhombic
_symmetry_space_group_name_H-M   'P b c n'
_symmetry_Int_Tables_number      60
_space_group_name_Hall           '-P 2n 2ab'
loop_
_symmetry_equiv_pos_site_id
_symmetry_equiv_pos_as_xyz
1 x,y,z
2 1/2-x,1/2-y,1/2+z
3 -x,y,1/2-z
4 1/2+x,1/2-y,-z
5 -x,-y,-z
6 1/2+x,1/2+y,1/2-z
7 x,-y,1/2+z
8 1/2-x,1/2+y,z
_cell_length_a                   12.7357(12)
_cell_length_b                   23.931(2)
_cell_length_c                   14.2117(13)
_cell_angle_alpha                90
_cell_angle_beta                 90
_cell_angle_gamma                90
_cell_volume                     4331.41
loop_
_atom_site_label
_atom_site_type_symbol
_atom_site_fract_x
_atom_site_fract_y
_atom_site_fract_z
S1 S 0.5000 0.63970(4) 0.2500
O3 O 0.5000 0.58071(12) 0.2500
O4 O 0.4153(6) 0.6704(4) 0.2825(5)
O5 O 0.5819(4) 0.64210(19) 0.3379(5)
O6 O 0.5558(9) 0.6641(4) 0.1759(7)
O4B O 0.5847(6) 0.6704(4) 0.2175(5)
O5B O 0.4181(4) 0.64210(19) 0.1621(5)
O6B O 0.4442(9) 0.6641(4) 0.3241(7)
O8 O 0.30162(18) 0.58861(11) 0.39119(16)
H3 H 0.350(3) 0.6139(14) 0.365(3)
H4 H 0.328(3) 0.5849(16) 0.449(2)
Cd1 Cd -1.5000 1.141577(9) 0.2500
O1 O -1.11807(14) 0.93056(7) 0.43131(14)
O2 O -0.40705(16) 0.83673(8) 0.44030(14)
O7 O -1.62052(17) 1.14204(9) 0.37180(14)
H1 H -1.676(2) 1.1236(13) 0.379(2)
H2 H -1.604(3) 1.1474(14) 0.4264(19)
N1 N -1.41134(16) 1.06840(9) 0.32824(15)
N2 N -1.15071(16) 1.00932(8) 0.34574(15)
H5 H -1.1215 1.0348 0.3120
N3 N -0.98289(16) 0.98131(9) 0.37503(18)
H6 H -0.9645 1.0086 0.3392
N4 N -0.53197(17) 0.77922(10) 0.38174(17)
H7 H -0.5449 0.7511 0.3460
N5 N -0.35959(16) 0.75704(8) 0.36283(17)
H8 H -0.3848 0.7282 0.3346
N6 N -0.09090(15) 0.71400(8) 0.32509(15)
C1 C -1.4712(2) 1.02679(12) 0.3624(2)
H9 H -1.5434 1.0320 0.3674
C2 C -1.4286(2) 0.97708(12) 0.3900(2)
H10 H -1.4723 0.9489 0.4124
C3 C -1.3227(2) 0.96809(11) 0.3852(2)
H11 H -1.2939 0.9340 0.4030
C4 C -1.25941(19) 1.01128(10) 0.35314(18)
C5 C -1.30862(19) 1.06022(10) 0.32442(17)
H12 H -1.2669 1.0889 0.3011
C6 C -1.0848(2) 0.97069(10) 0.38695(19)
C7 C -0.9021(2) 0.94831(12) 0.4206(2)
H13 H -0.9350 0.9252 0.4682
H14 H -0.8542 0.9735 0.4525
C8 C -0.8394(2) 0.91128(13) 0.3565(2)
H15 H -0.8020 0.9339 0.3109
H16 H -0.8862 0.8864 0.3227
C9 C -0.7623(2) 0.87759(14) 0.4136(2)
H17 H -0.8016 0.8515 0.4522
H18 H -0.7257 0.9028 0.4558
C10 C -0.6807(3) 0.84478(13) 0.3583(2)
H19 H -0.7153 0.8212 0.3124
H20 H -0.6348 0.8704 0.3250
C11 C -0.6185(2) 0.81005(13) 0.4234(2)
H21 H -0.5905 0.8340 0.4723
H22 H -0.6654 0.7835 0.4534
C12 C -0.4318(2) 0.79409(11) 0.39838(18)
C13 C -0.25092(19) 0.76049(10) 0.36687(18)
C14 C -0.1939(2) 0.80300(11) 0.4090(2)
H23 H -0.2277 0.8333 0.4367
C15 C -0.0856(2) 0.79921(11) 0.4088(2)
H24 H -0.0457 0.8271 0.4372
C16 C -0.0371(2) 0.75507(11) 0.3675(2)
H25 H 0.0358 0.7533 0.3685
C17 C -0.19521(19) 0.71730(10) 0.32456(18)
H26 H -0.2328 0.6892 0.2943
Cd1E Cd -3.0000 0.641577(9) 0.2500
Cd1E_2 Cd 0.0000 0.641577(9) 0.2500
O1B O -1.88193(14) 0.93056(7) 0.06869(14)
O2B O -2.59295(16) 0.83673(8) 0.05970(14)
O7B O -1.37948(17) 1.14204(9) 0.12820(14)
H1B H -1.324(2) 1.1236(13) 0.121(2)
H2B H -1.396(3) 1.1474(14) 0.0736(19)
N1B N -1.58866(16) 1.06840(9) 0.17176(15)
N2B N -1.84929(16) 1.00932(8) 0.15426(15)
H5B H -1.8785 1.0348 0.1880
N3B N -2.01711(16) 0.98131(9) 0.12497(18)
H6B H -2.0355 1.0086 0.1608
N4B N -2.46803(17) 0.77922(10) 0.11826(17)
H7B H -2.4551 0.7511 0.1540
N5B N -2.64041(16) 0.75704(8) 0.13717(17)
H8B H -2.6152 0.7282 0.1654
N6B N -2.90910(15) 0.71400(8) 0.17491(15)
N6E N -1.59090(15) 1.21400(8) 0.17491(15)
N6G N -1.40910(15) 1.21400(8) 0.32509(15)
C1B C -1.5288(2) 1.02679(12) 0.1376(2)
H9B H -1.4566 1.0320 0.1326
C2B C -1.5714(2) 0.97708(12) 0.1100(2)
H10B H -1.5277 0.9489 0.0876
C3B C -1.6773(2) 0.96809(11) 0.1148(2)
H11B H -1.7061 0.9340 0.0970
C4B C -1.74059(19) 1.01128(10) 0.14686(18)
C5B C -1.69138(19) 1.06022(10) 0.17558(17)
H12B H -1.7331 1.0889 0.1989
C6B C -1.9152(2) 0.97069(10) 0.11305(19)
C7B C -2.0979(2) 0.94831(12) 0.0794(2)
H13B H -2.0650 0.9252 0.0318
H14B H -2.1458 0.9735 0.0475
C8B C -2.1606(2) 0.91128(13) 0.1435(2)
H15B H -2.1980 0.9339 0.1891
H16B H -2.1138 0.8864 0.1773
C9B C -2.2377(2) 0.87759(14) 0.0864(2)
H17B H -2.1984 0.8515 0.0478
H18B H -2.2743 0.9028 0.0442
C10B C -2.3193(3) 0.84478(13) 0.1417(2)
H19B H -2.2847 0.8212 0.1876
H20B H -2.3652 0.8704 0.1750
C11B C -2.3815(2) 0.81005(13) 0.0766(2)
H21B H -2.4095 0.8340 0.0277
H22B H -2.3346 0.7835 0.0466
C12B C -2.5682(2) 0.79409(11) 0.10162(18)
C13B C -2.74908(19) 0.76049(10) 0.13313(18)
C14B C -2.8061(2) 0.80300(11) 0.0910(2)
H23B H -2.7723 0.8333 0.0633
C15B C -2.9144(2) 0.79921(11) 0.0912(2)
H24B H -2.9543 0.8271 0.0628
C16B C -2.9629(2) 0.75507(11) 0.1325(2)
H25B H -3.0358 0.7533 0.1315
C17B C -2.80479(19) 0.71730(10) 0.17544(18)
H26B H -2.7672 0.6892 0.2057
loop_
_geom_bond_atom_site_label_1
_geom_bond_atom_site_label_2
_geom_bond_site_symmetry_1
_geom_bond_site_symmetry_2
Cd1 O7 1_555 1_555
S1 O3 1_555 1_555
O1 C6 1_555 1_555
O2 C12 1_555 1_555
O4 S1 1_555 1_555
O5 S1 1_555 1_555
O6 S1 1_555 1_555
O7 H1 1_555 1_555
H2 O7 1_555 1_555
O8 H3 1_555 1_555
H4 O8 1_555 1_555
N1 Cd1 1_555 1_555
N2 H5 1_555 1_555
N3 H6 1_555 1_555
N4 H7 1_555 1_555
N5 H8 1_555 1_555
N6 C16 1_555 1_555
C1 N1 1_555 1_555
H9 C1 1_555 1_555
C2 C1 1_555 1_555
H10 C2 1_555 1_555
C3 C2 1_555 1_555
H11 C3 1_555 1_555
C4 N2 1_555 1_555
C5 N1 1_555 1_555
H12 C5 1_555 1_555
C6 N2 1_555 1_555
C7 N3 1_555 1_555
H13 C7 1_555 1_555
H14 C7 1_555 1_555
C8 C7 1_555 1_555
H15 C8 1_555 1_555
H16 C8 1_555 1_555
C9 C8 1_555 1_555
H17 C9 1_555 1_555
H18 C9 1_555 1_555
C10 C9 1_555 1_555
H19 C10 1_555 1_555
H20 C10 1_555 1_555
C11 N4 1_555 1_555
H21 C11 1_555 1_555
H22 C11 1_555 1_555
C12 N4 1_555 1_555
C13 N5 1_555 1_555
C14 C13 1_555 1_555
H23 C14 1_555 1_555
C15 C14 1_555 1_555
H24 C15 1_555 1_555
C16 C15 1_555 1_555
H25 C16 1_555 1_555
C17 N6 1_555 1_555
H26 C17 1_555 1_555
Cd1E N6B 1_555 1_555
Cd1E_2 N6 1_555 1_555
O1B C6B 1_555 1_555
O2B C12B 1_555 1_555
O4B S1 1_555 1_555
O5B S1 1_555 1_555
O6B S1 1_555 1_555
O7B Cd1 1_555 1_555
H1B O7B 1_555 1_555
H2B O7B 1_555 1_555
N1B Cd1 1_555 1_555
N2B H5B 1_555 1_555
N3B H6B 1_555 1_555
N4B H7B 1_555 1_555
N5B H8B 1_555 1_555
N6B C16B 1_555 1_555
N6E Cd1 1_555 1_555
N6G Cd1 1_555 1_555
C1B N1B 1_555 1_555
H9B C1B 1_555 1_555
C2B C1B 1_555 1_555
H10B C2B 1_555 1_555
C3B C2B 1_555 1_555
H11B C3B 1_555 1_555
C4B N2B 1_555 1_555
C5B N1B 1_555 1_555
H12B C5B 1_555 1_555
C6B N2B 1_555 1_555
C7B N3B 1_555 1_555
H13B C7B 1_555 1_555
H14B C7B 1_555 1_555
C8B C7B 1_555 1_555
H15B C8B 1_555 1_555
H16B C8B 1_555 1_555
C9B C8B 1_555 1_555
H17B C9B 1_555 1_555
H18B C9B 1_555 1_555
C10B C9B 1_555 1_555
H19B C10B 1_555 1_555
H20B C10B 1_555 1_555
C11B N4B 1_555 1_555
H21B C11B 1_555 1_555
H22B C11B 1_555 1_555
C12B N4B 1_555 1_555
C13B N5B 1_555 1_555
C14B C13B 1_555 1_555
H23B C14B 1_555 1_555
C15B C14B 1_555 1_555
H24B C15B 1_555 1_555
C16B C15B 1_555 1_555
H25B C16B 1_555 1_555
C17B N6B 1_555 1_555
H26B C17B 1_555 1_555
O4 O6B 1_555 1_555
O6 O4B 1_555 1_555
N3 C6 1_555 1_555
N5 C12 1_555 1_555
C3 C4 1_555 1_555
C4 C5 1_555 1_555
C10 C11 1_555 1_555
C13 C17 1_555 1_555
N3B C6B 1_555 1_555
N5B C12B 1_555 1_555
C3B C4B 1_555 1_555
C4B C5B 1_555 1_555
C10B C11B 1_555 1_555
C13B C17B 1_555 1_555

#END
