
#######################################################################
#
#                 Cambridge Crystallographic Data Centre
#                                CCDC 
#
#######################################################################
#
# If this CIF has been generated from an entry in the Cambridge 
# Structural Database, then it will include bibliographic, chemical, 
# crystal, experimental, refinement or atomic coordinate data resulting 
# from the CCDC's data processing and validation procedures.
#
#######################################################################

data_CUXPIV
_symmetry_cell_setting           monoclinic
_symmetry_space_group_name_H-M   'P 21/c'
_symmetry_Int_Tables_number      14
_space_group_name_Hall           '-P 2ybc'
loop_
_symmetry_equiv_pos_site_id
_symmetry_equiv_pos_as_xyz
1 x,y,z
2 -x,1/2+y,1/2-z
3 -x,-y,-z
4 x,1/2-y,1/2+z
_cell_length_a                   17.125(3)
_cell_length_b                   12.821(3)
_cell_length_c                   6.8828(14)
_cell_angle_alpha                90
_cell_angle_beta                 93.58(3)
_cell_angle_gamma                90
_cell_volume                     1508.24
loop_
_atom_site_label
_atom_site_type_symbol
_atom_site_fract_x
_atom_site_fract_y
_atom_site_fract_z
Gd1 Gd 0.452586(8) 0.371336(10) 0.38619(2)
O1 O 0.38758(15) 0.38683(18) 0.0877(4)
O2 O 0.35057(13) 0.24563(18) -0.0821(4)
O3 O -0.41477(17) 0.3816(2) 0.3176(5)
O4 O -0.36692(14) 0.5327(2) 0.4385(4)
O5 O 0.49147(14) 0.21135(18) 0.2187(4)
O6 O 0.52835(15) 0.05018(18) 0.1875(4)
C1 C 0.33556(18) 0.3269(2) 0.0105(5)
C2 C 0.2517(2) 0.3530(3) 0.0357(5)
C3 C 0.1929(2) 0.2819(3) -0.0268(5)
H1 H 0.2060 0.2226 -0.0953
C4 C 0.1157(2) 0.2991(3) 0.0123(6)
H2 H 0.0776 0.2509 -0.0288
C5 C 0.0945(2) 0.3883(3) 0.1130(6)
C6 C 0.1527(2) 0.4604(3) 0.1673(6)
H3 H 0.1391 0.5217 0.2293
C7 C 0.2304(2) 0.4430(3) 0.1310(5)
H4 H 0.2683 0.4918 0.1707
C8 C 0.0144(2) 0.4086(3) 0.1681(6)
H5 H 0.0055 0.4734 0.2231
C9 C -0.0475(2) 0.3444(3) 0.1482(6)
H6 H -0.0399 0.2793 0.0930
C10 C -0.1260(2) 0.3692(3) 0.2069(6)
C11 C -0.1887(2) 0.3020(3) 0.1546(6)
H7 H -0.1794 0.2407 0.0876
C12 C -0.2645(2) 0.3258(3) 0.2015(6)
H8 H -0.3053 0.2805 0.1656
C13 C -0.2794(2) 0.4169(3) 0.3019(5)
C14 C -0.2176(2) 0.4837(3) 0.3555(5)
H9 H -0.2271 0.5449 0.4226
C15 C -0.1422(2) 0.4595(3) 0.3095(6)
H10 H -0.1015 0.5044 0.3478
C16 C -0.3598(2) 0.4458(3) 0.3564(6)
C17 C 0.5232(2) 0.1308(2) 0.2881(6)
H11 H 0.5435 0.1308 0.4166
Gd1C Gd 0.452586(8) 0.128664(10) -0.11381(2)
Gd1_2 Gd -0.547414(8) 0.371336(10) 0.38619(2)
Gd1B Gd -0.452586(8) 0.628664(10) 0.61381(2)
Gd1A Gd 0.547414(8) -0.128664(10) 0.11381(2)
O2C O 0.35057(13) 0.25437(18) 0.4179(4)
O3_2 O 0.58523(17) 0.3816(2) 0.3176(5)
O4B O 0.36692(14) 0.4673(2) 0.5615(4)
O5C O 0.49147(14) 0.28865(18) 0.7187(4)
O6A O 0.47165(15) 0.55018(18) 0.3125(4)
O6C O 0.52835(15) 0.44982(18) 0.6875(4)
loop_
_geom_bond_atom_site_label_1
_geom_bond_atom_site_label_2
_geom_bond_site_symmetry_1
_geom_bond_site_symmetry_2
Gd1 O1 1_555 1_555
O1 C1 1_555 1_555
O2 C1 1_555 1_555
O3 C16 1_555 1_555
O4 C16 1_555 1_555
O5 Gd1 1_555 1_555
O6 C17 1_555 1_555
C1 C2 1_555 1_555
C2 C3 1_555 1_555
C3 H1 1_555 1_555
C4 C3 1_555 1_555
H2 C4 1_555 1_555
C5 C4 1_555 1_555
C6 C5 1_555 1_555
H3 C6 1_555 1_555
C7 C2 1_555 1_555
H4 C7 1_555 1_555
C8 C5 1_555 1_555
H5 C8 1_555 1_555
C9 C8 1_555 1_555
H6 C9 1_555 1_555
C10 C9 1_555 1_555
C11 C10 1_555 1_555
H7 C11 1_555 1_555
C12 C11 1_555 1_555
H8 C12 1_555 1_555
C13 C12 1_555 1_555
C14 C13 1_555 1_555
H9 C14 1_555 1_555
C15 C10 1_555 1_555
H10 C15 1_555 1_555
C16 C13 1_555 1_555
C17 O5 1_555 1_555
H11 C17 1_555 1_555
Gd1C O2 1_555 1_555
Gd1_2 O3 1_555 1_555
Gd1B O4 1_555 1_555
Gd1A O6 1_555 1_555
O2C Gd1 1_555 1_555
O3_2 Gd1 1_555 1_555
O4B Gd1 1_555 1_555
O5C Gd1 1_555 1_555
O6A Gd1 1_555 1_555
O6C Gd1 1_555 1_555
O5 Gd1C 1_555 1_555
O6 Gd1C 1_555 1_555
C6 C7 1_555 1_555
C14 C15 1_555 1_555

#END
