
#######################################################################
#
#                 Cambridge Crystallographic Data Centre
#                                CCDC 
#
#######################################################################
#
# If this CIF has been generated from an entry in the Cambridge 
# Structural Database, then it will include bibliographic, chemical, 
# crystal, experimental, refinement or atomic coordinate data resulting 
# from the CCDC's data processing and validation procedures.
#
#######################################################################

data_CUXPUH
_symmetry_cell_setting           monoclinic
_symmetry_space_group_name_H-M   'P 21/c'
_symmetry_Int_Tables_number      14
_space_group_name_Hall           '-P 2ybc'
loop_
_symmetry_equiv_pos_site_id
_symmetry_equiv_pos_as_xyz
1 x,y,z
2 -x,1/2+y,1/2-z
3 -x,-y,-z
4 x,1/2-y,1/2+z
_cell_length_a                   17.060(3)
_cell_length_b                   12.622(3)
_cell_length_c                   6.8426(14)
_cell_angle_alpha                90
_cell_angle_beta                 93.46(3)
_cell_angle_gamma                90
_cell_volume                     1470.74
loop_
_atom_site_label
_atom_site_type_symbol
_atom_site_fract_x
_atom_site_fract_y
_atom_site_fract_z
Er1 Er 0.453613(6) 0.371102(7) 0.388226(15)
O1 O 0.38996(12) 0.38864(14) 0.0948(3)
O2 O 0.35341(11) 0.24542(14) -0.0785(3)
O3 O -0.41554(15) 0.37983(15) 0.3242(4)
O4 O -0.36760(12) 0.53372(14) 0.4432(3)
O5 O 0.49124(12) 0.21280(13) 0.2170(3)
O6 O 0.52638(13) 0.04869(14) 0.1840(3)
C1 C 0.33787(16) 0.3274(2) 0.0148(4)
C2 C 0.25396(17) 0.3540(2) 0.0377(4)
C3 C 0.19524(16) 0.2816(2) -0.0250(4)
H1 H 0.2089 0.2213 -0.0932
C4 C 0.11751(18) 0.2985(2) 0.0128(4)
H2 H 0.0795 0.2493 -0.0294
C5 C 0.09558(19) 0.3893(2) 0.1146(4)
C6 C 0.15391(17) 0.4630(2) 0.1684(4)
H3 H 0.1400 0.5254 0.2296
C7 C 0.23163(17) 0.4456(2) 0.1332(4)
H4 H 0.2694 0.4955 0.1735
C8 C 0.01549(18) 0.4089(3) 0.1699(4)
H5 H 0.0064 0.4748 0.2251
C9 C -0.04677(19) 0.3436(3) 0.1508(5)
H6 H -0.0390 0.2772 0.0961
C10 C -0.1256(2) 0.3683(2) 0.2091(5)
C11 C -0.18817(19) 0.2994(2) 0.1589(5)
H7 H -0.1785 0.2369 0.0926
C12 C -0.26431(18) 0.3228(2) 0.2065(5)
H8 H -0.3050 0.2760 0.1722
C13 C -0.27981(16) 0.4159(2) 0.3054(4)
C14 C -0.21800(17) 0.4845(2) 0.3564(4)
H9 H -0.2278 0.5472 0.4221
C15 C -0.14258(17) 0.4606(2) 0.3106(4)
H10 H -0.1020 0.5069 0.3481
C16 C -0.36017(17) 0.4452(2) 0.3612(4)
C17 C 0.5224(2) 0.13008(17) 0.2863(5)
H11 H 0.5427 0.1293 0.4155
Er1C Er 0.453613(6) 0.128898(7) -0.111774(15)
Er1_2 Er -0.546387(6) 0.371102(7) 0.388226(15)
Er1B Er -0.453613(6) 0.628898(7) 0.611774(15)
Er1A Er 0.546387(6) -0.128898(7) 0.111774(15)
O2C O 0.35341(11) 0.25458(14) 0.4215(3)
O3_2 O 0.58446(15) 0.37983(15) 0.3242(4)
O4B O 0.36760(12) 0.46628(14) 0.5568(3)
O5C O 0.49124(12) 0.28720(13) 0.7170(3)
O6A O 0.47362(13) 0.54869(14) 0.3160(3)
O6C O 0.52638(13) 0.45131(14) 0.6840(3)
loop_
_geom_bond_atom_site_label_1
_geom_bond_atom_site_label_2
_geom_bond_site_symmetry_1
_geom_bond_site_symmetry_2
Er1 O1 1_555 1_555
O1 C1 1_555 1_555
O2 C1 1_555 1_555
O3 C16 1_555 1_555
O4 C16 1_555 1_555
O5 Er1 1_555 1_555
O6 C17 1_555 1_555
C1 C2 1_555 1_555
C2 C3 1_555 1_555
C3 H1 1_555 1_555
C4 C3 1_555 1_555
H2 C4 1_555 1_555
C5 C4 1_555 1_555
C6 C5 1_555 1_555
H3 C6 1_555 1_555
C7 C2 1_555 1_555
H4 C7 1_555 1_555
C8 C5 1_555 1_555
H5 C8 1_555 1_555
C9 C8 1_555 1_555
H6 C9 1_555 1_555
C10 C9 1_555 1_555
C11 C10 1_555 1_555
H7 C11 1_555 1_555
C12 C11 1_555 1_555
H8 C12 1_555 1_555
C13 C12 1_555 1_555
C14 C13 1_555 1_555
H9 C14 1_555 1_555
C15 C10 1_555 1_555
H10 C15 1_555 1_555
C16 C13 1_555 1_555
C17 O5 1_555 1_555
H11 C17 1_555 1_555
Er1C O2 1_555 1_555
Er1_2 O3 1_555 1_555
Er1B O4 1_555 1_555
Er1A O6 1_555 1_555
O2C Er1 1_555 1_555
O3_2 Er1 1_555 1_555
O4B Er1 1_555 1_555
O5C Er1 1_555 1_555
O6A Er1 1_555 1_555
O6C Er1 1_555 1_555
O5 Er1C 1_555 1_555
O6 Er1C 1_555 1_555
C6 C7 1_555 1_555
C14 C15 1_555 1_555

#END
