
#######################################################################
#
#                 Cambridge Crystallographic Data Centre
#                                CCDC 
#
#######################################################################
#
# If this CIF has been generated from an entry in the Cambridge 
# Structural Database, then it will include bibliographic, chemical, 
# crystal, experimental, refinement or atomic coordinate data resulting 
# from the CCDC's data processing and validation procedures.
#
#######################################################################

data_CUXPER
_symmetry_cell_setting           monoclinic
_symmetry_space_group_name_H-M   'P 21/c'
_symmetry_Int_Tables_number      14
_space_group_name_Hall           '-P 2ybc'
loop_
_symmetry_equiv_pos_site_id
_symmetry_equiv_pos_as_xyz
1 x,y,z
2 -x,1/2+y,1/2-z
3 -x,-y,-z
4 x,1/2-y,1/2+z
_cell_length_a                   17.138(3)
_cell_length_b                   12.861(3)
_cell_length_c                   6.8991(14)
_cell_angle_alpha                90
_cell_angle_beta                 93.74(3)
_cell_angle_gamma                90
_cell_volume                     1517.4
loop_
_atom_site_label
_atom_site_type_symbol
_atom_site_fract_x
_atom_site_fract_y
_atom_site_fract_z
Eu1 Eu 1.047827(7) 0.871289(8) 0.614273(16)
O1 O 1.00875(11) 0.78885(12) 0.2807(3)
O2 O 0.97112(12) 0.94964(13) 0.3123(3)
O3 O 0.91502(13) 0.88237(14) 0.6848(4)
O4 O 0.86690(11) 1.03241(14) 0.5619(3)
O5 O 0.15071(10) 0.74548(13) 1.0836(3)
O6 O 0.11330(12) 0.88630(13) 0.9141(3)
C1 C 0.85966(16) 0.9459(2) 0.6442(4)
C2 C 0.77934(15) 0.9170(2) 0.6987(4)
C3 C 0.76432(17) 0.8264(2) 0.7993(4)
H1 H 0.8051 0.7812 0.8351
C4 C 0.68899(17) 0.8028(2) 0.8466(4)
H2 H 0.6799 0.7420 0.9145
C5 C 0.62618(18) 0.86927(19) 0.7937(5)
C6 C 0.64218(17) 0.9589(2) 0.6892(4)
H3 H 0.6014 1.0032 0.6491
C7 C 0.71711(16) 0.9831(2) 0.6445(4)
H4 H 0.7264 1.0441 0.5774
C8 C 0.54781(17) 0.8448(2) 0.8517(5)
H5 H 0.5404 0.7798 0.9068
C9 C 0.48601(17) 0.9079(2) 0.8322(4)
H6 H 0.4946 0.9724 0.7766
C10 C 0.40610(17) 0.8880(2) 0.8875(4)
C11 C 0.38483(16) 0.7992(2) 0.9892(4)
H7 H 0.4229 0.7513 1.0310
C12 C 0.30800(15) 0.7822(2) 1.0281(4)
H8 H 0.2951 0.7231 1.0968
C13 C 0.24920(15) 0.85202(19) 0.9661(4)
C14 C 0.27009(16) 0.94205(19) 0.8696(4)
H9 H 0.2320 0.9903 0.8293
C15 C 0.34760(17) 0.9596(2) 0.8337(4)
H10 H 0.3610 1.0208 0.7722
C16 C 0.16551(15) 0.82658(18) 0.9911(4)
C17 C 0.97625(18) 0.86964(16) 0.2114(4)
H11 H 0.9558 0.8698 0.0832
Eu1C Eu 1.047827(7) 0.628711(8) 0.114273(16)
Eu1B Eu 0.952173(7) 1.128711(8) 0.385727(16)
Eu1C_2 Eu 0.047827(7) 0.628711(8) 1.114273(16)
Eu1_2 Eu 0.047827(7) 0.871289(8) 0.614273(16)
O1C O 1.00875(11) 0.71115(12) 0.7807(3)
O2B O 1.02888(12) 1.05036(13) 0.6877(3)
O4B O 1.13310(11) 0.96759(14) 0.4381(3)
O5C O 1.15071(10) 0.75452(13) 0.5836(3)
O6_2 O 1.11330(12) 0.88630(13) 0.9141(3)
loop_
_geom_bond_atom_site_label_1
_geom_bond_atom_site_label_2
_geom_bond_site_symmetry_1
_geom_bond_site_symmetry_2
Eu1 O1 1_555 1_555
O1 C17 1_555 1_555
O2 Eu1 1_555 1_555
O3 Eu1 1_555 1_555
O4 C1 1_555 1_555
O5 C16 1_555 1_555
O6 C16 1_555 1_555
C1 O3 1_555 1_555
C2 C1 1_555 1_555
C3 C2 1_555 1_555
H1 C3 1_555 1_555
C4 C3 1_555 1_555
H2 C4 1_555 1_555
C5 C4 1_555 1_555
C6 C5 1_555 1_555
H3 C6 1_555 1_555
C7 C2 1_555 1_555
H4 C7 1_555 1_555
C8 C5 1_555 1_555
H5 C8 1_555 1_555
C9 C8 1_555 1_555
H6 C9 1_555 1_555
C10 C9 1_555 1_555
C11 C10 1_555 1_555
H7 C11 1_555 1_555
C12 C11 1_555 1_555
H8 C12 1_555 1_555
C13 C12 1_555 1_555
C14 C13 1_555 1_555
H9 C14 1_555 1_555
C15 C10 1_555 1_555
H10 C15 1_555 1_555
C16 C13 1_555 1_555
C17 O2 1_555 1_555
H11 C17 1_555 1_555
Eu1C O1 1_555 1_555
Eu1B O2 1_555 1_555
Eu1C_2 O5 1_555 1_555
Eu1_2 O6 1_555 1_555
O1C Eu1 1_555 1_555
O2B Eu1 1_555 1_555
O4B Eu1 1_555 1_555
O5C Eu1 1_555 1_555
O6_2 Eu1 1_555 1_555
O4 Eu1B 1_555 1_555
C6 C7 1_555 1_555
C14 C15 1_555 1_555
Eu1B O2B 1_555 1_555

#END
