
#######################################################################
#
#                 Cambridge Crystallographic Data Centre
#                                CCDC 
#
#######################################################################
#
# If this CIF has been generated from an entry in the Cambridge 
# Structural Database, then it will include bibliographic, chemical, 
# crystal, experimental, refinement or atomic coordinate data resulting 
# from the CCDC's data processing and validation procedures.
#
#######################################################################

data_CUXTOF
_symmetry_cell_setting           monoclinic
_symmetry_space_group_name_H-M   'P 21/n'
_symmetry_Int_Tables_number      14
_space_group_name_Hall           '-P 2yn'
loop_
_symmetry_equiv_pos_site_id
_symmetry_equiv_pos_as_xyz
1 x,y,z
2 1/2-x,1/2+y,1/2-z
3 -x,-y,-z
4 1/2+x,1/2-y,1/2+z
_cell_length_a                   13.345(4)
_cell_length_b                   16.436(2)
_cell_length_c                   25.792(5)
_cell_angle_alpha                90
_cell_angle_beta                 90.127(3)
_cell_angle_gamma                90
_cell_volume                     5657.16
loop_
_atom_site_label
_atom_site_type_symbol
_atom_site_fract_x
_atom_site_fract_y
_atom_site_fract_z
Zn1 Zn 0.22840(2) -0.04315(2) 0.750429(15)
Zn2 Zn 0.05721(2) 0.34133(2) 0.479540(15)
Zn3 Zn 1.05139(2) -0.13031(2) 0.506080(15)
C1 C 0.1227(2) 0.19638(19) 0.53705(13)
C2 C 0.2063(2) 0.20201(19) 0.57541(12)
C3 C 0.2121(2) 0.14805(18) 0.61646(13)
H1 H 0.1622 0.1092 0.6210
C4 C 0.2923(2) 0.15177(18) 0.65091(12)
C5 C 0.3643(2) 0.2115(2) 0.64442(13)
H2 H 0.4173 0.2149 0.6678
C6 C 0.3586(2) 0.2659(2) 0.60379(14)
C7 C 0.2794(2) 0.2613(2) 0.56883(13)
H3 H 0.2754 0.2976 0.5412
C8 C 0.3017(2) 0.0909(2) 0.69434(14)
C9 C 0.4294(3) 0.3774(3) 0.55761(17)
H4 H 0.4271 0.3477 0.5251
H5 H 0.3692 0.4102 0.5602
C10 C 0.5216(3) 0.4313(3) 0.55941(18)
C11 C 0.6067(3) 0.4090(3) 0.53318(18)
H6 H 0.6089 0.3595 0.5158
C12 C 0.6901(3) 0.4604(2) 0.53259(17)
H7 H 0.7472 0.4456 0.5142
C13 C 0.6878(2) 0.5326(2) 0.55908(14)
C14 C 0.6030(3) 0.5537(3) 0.58615(15)
H8 H 0.6013 0.6022 0.6048
C15 C 0.5199(3) 0.5030(3) 0.58571(16)
H9 H 0.4624 0.5182 0.6036
C16 C 0.7773(3) 0.5882(2) 0.55870(16)
C17 C 0.1497(2) 0.0816(2) 0.81186(14)
C18 C 0.1768(2) 0.15115(19) 0.84675(13)
C19 C 0.1132(2) 0.2162(2) 0.85270(13)
H10 H 0.0525 0.2169 0.8349
C20 C 0.1383(2) 0.2808(2) 0.88488(13)
C21 C 0.2292(2) 0.2808(2) 0.91110(13)
H11 H 0.2469 0.3242 0.9323
C22 C 0.2932(2) 0.21479(18) 0.90507(12)
C23 C 0.2680(2) 0.15041(18) 0.87314(12)
H12 H 0.3116 0.1068 0.8693
C24 C 0.3890(2) 0.2132(2) 0.93535(13)
C25 C 0.0865(2) 0.4062(2) 0.92403(16)
H13 H 0.1376 0.4421 0.9102
H14 H 0.1099 0.3848 0.9570
C26 C -0.0107(2) 0.4522(2) 0.93140(15)
C27 C -0.0878(3) 0.4170(2) 0.95806(16)
H15 H -0.0811 0.3639 0.9699
C28 C -0.1759(2) 0.4594(2) 0.96767(15)
H16 H -0.2273 0.4347 0.9861
C29 C -0.1871(2) 0.5376(2) 0.94997(13)
C30 C -0.1096(2) 0.5731(2) 0.92294(14)
H17 H -0.1165 0.6260 0.9106
C31 C -0.0215(2) 0.5308(2) 0.91406(15)
H18 H 0.0307 0.5557 0.8962
C32 C -0.2822(2) 0.5847(2) 0.96041(15)
C33 C 0.0326(2) -0.1015(2) 0.77622(13)
H19 H 0.0284 -0.0567 0.7981
C34 C 0.0866(2) -0.1888(2) 0.72176(14)
H20 H 0.1279 -0.2156 0.6983
C35 C -0.0063(2) -0.2132(2) 0.73569(14)
H21 H -0.0400 -0.2593 0.7240
C36 C -0.1348(2) -0.15250(19) 0.79685(12)
C37 C -0.1786(2) -0.0774(2) 0.80269(13)
H22 H -0.1498 -0.0317 0.7875
C38 C -0.2652(2) -0.0699(2) 0.83115(13)
H23 H -0.2942 -0.0190 0.8361
C39 C -0.3085(2) -0.1380(2) 0.85213(13)
C40 C -0.2673(2) -0.2136(2) 0.84510(14)
H24 H -0.2982 -0.2595 0.8588
C41 C -0.1792(2) -0.2207(2) 0.81748(14)
H25 H -0.1500 -0.2715 0.8128
C42 C -0.4141(2) -0.1638(2) 0.92895(13)
H26 H -0.3754 -0.2058 0.9426
C43 C -0.5276(3) -0.0725(2) 0.91891(15)
H27 H -0.5835 -0.0399 0.9247
C44 C -0.4682(3) -0.0678(2) 0.87744(15)
H28 H -0.4742 -0.0316 0.8499
C45 C 0.9032(2) -0.1198(2) 0.59198(14)
H29 H 0.8660 -0.1626 0.5784
C46 C 1.0171(3) -0.0310(2) 0.60399(16)
H30 H 1.0754 -0.0006 0.6000
C47 C 0.9496(3) -0.0197(2) 0.64180(15)
H31 H 0.9517 0.0192 0.6679
C48 C 0.7863(2) -0.0907(2) 0.66254(13)
C49 C 0.7333(2) -0.0251(2) 0.68129(13)
H32 H 0.7570 0.0276 0.6767
C50 C 0.6445(2) -0.0391(2) 0.70704(13)
H33 H 0.6082 0.0044 0.7204
C51 C 0.6096(2) -0.1174(2) 0.71297(13)
C52 C 0.6630(2) -0.1825(2) 0.69515(14)
H34 H 0.6394 -0.2353 0.6998
C53 C 0.7528(2) -0.1686(2) 0.67003(14)
H35 H 0.7907 -0.2123 0.6582
C54 C 0.4350(2) -0.0807(2) 0.73062(13)
H36 H 0.4368 -0.0327 0.7115
C55 C 0.4810(2) -0.1949(2) 0.76692(14)
H37 H 0.5183 -0.2397 0.7775
C56 C 0.3842(2) -0.1795(2) 0.77762(14)
H38 H 0.3431 -0.2125 0.7977
N1 N 0.11079(18) -0.11813(15) 0.74748(10)
N2 N -0.04071(18) -0.15666(15) 0.77040(10)
N3 N -0.39612(18) -0.12708(16) 0.88366(11)
N4 N -0.49411(19) -0.13268(17) 0.95182(11)
N5 N 0.98824(18) -0.09328(16) 0.57218(11)
N6 N 0.87714(18) -0.07740(16) 0.63397(11)
N7 N 0.51376(18) -0.13012(16) 0.73684(10)
N8 N 0.35488(18) -0.10772(16) 0.75460(11)
O1 O 0.05210(15) 0.14805(13) 0.54659(9)
O2 O 0.12898(14) 0.23840(13) 0.49614(8)
O3 O 0.24139(16) 0.03025(13) 0.69141(9)
O4 O 0.36643(18) 0.10030(15) 0.72773(10)
O5 O 0.43490(16) 0.32160(16) 0.60034(10)
O6 O 0.84036(17) 0.57538(15) 0.52266(10)
O7 O 0.78748(19) 0.64273(18) 0.59102(11)
O8 O 0.21054(16) 0.02159(13) 0.81263(9)
O9 O 0.07346(18) 0.08504(16) 0.78518(11)
O10 O 0.45547(14) 0.16094(13) 0.92327(9)
O11 O 0.39916(14) 0.26002(13) 0.97302(9)
O12 O 0.06730(16) 0.34134(15) 0.88868(10)
O13 O -0.30022(19) 0.64718(17) 0.93629(12)
O14 O -0.33924(16) 0.55553(14) 0.99523(10)
Zn2A Zn -0.55721(2) -0.15867(2) 1.020460(15)
Zn2B Zn 0.94279(2) 0.65867(2) 0.520460(15)
Zn2C Zn 0.55721(2) 0.15867(2) 0.979540(15)
Zn3B Zn -0.05139(2) 0.13031(2) 0.493920(15)
Zn3A Zn 0.44861(2) 0.36969(2) 0.993920(15)
Zn3C Zn -0.44861(2) 0.63031(2) 1.006080(15)
N4A N -0.00589(19) 0.36732(17) 0.54818(11)
O1B O 0.94790(15) -0.14805(13) 0.45341(9)
O6B O 0.15964(17) 0.42462(15) 0.47734(10)
O10C O -0.04453(14) 0.33906(13) 0.42327(9)
O11A O 1.10084(14) -0.23998(13) 0.52698(9)
O14C O 1.16076(16) -0.05553(14) 0.49523(10)
H39 H 0.032(3) 0.614(4) 0.6623(12)
H42 H 0.046(3) 0.596(3) 0.7141(14)
O15 O -0.0031(2) 0.59860(18) 0.69035(14)
H40 H 0.0562(18) 0.887(3) 0.2430(13)
H43 H 0.159(2) 0.879(3) 0.2382(12)
O16 O 0.1104(3) 0.8770(2) 0.26229(13)
H41 H 0.6484(12) 0.122(3) 0.7973(17)
H44 H 0.718(3) 0.130(4) 0.8368(5)
O17 O 0.7136(3) 0.13144(19) 0.80212(15)
loop_
_geom_bond_atom_site_label_1
_geom_bond_atom_site_label_2
_geom_bond_site_symmetry_1
_geom_bond_site_symmetry_2
Zn1 N1 1_555 1_555
Zn2 O2 1_555 1_555
Zn3 N5 1_555 1_555
C1 C2 1_555 1_555
C2 C3 1_555 1_555
C3 H1 1_555 1_555
C4 C3 1_555 1_555
C5 C4 1_555 1_555
H2 C5 1_555 1_555
C6 C5 1_555 1_555
C7 C2 1_555 1_555
H3 C7 1_555 1_555
C8 C4 1_555 1_555
C9 H4 1_555 1_555
H5 C9 1_555 1_555
C10 C9 1_555 1_555
C11 C10 1_555 1_555
H6 C11 1_555 1_555
C12 C11 1_555 1_555
H7 C12 1_555 1_555
C13 C12 1_555 1_555
C14 C13 1_555 1_555
H8 C14 1_555 1_555
C15 C10 1_555 1_555
H9 C15 1_555 1_555
C16 C13 1_555 1_555
C17 C18 1_555 1_555
C18 C19 1_555 1_555
C19 H10 1_555 1_555
C20 C19 1_555 1_555
C21 C20 1_555 1_555
H11 C21 1_555 1_555
C22 C21 1_555 1_555
C23 C18 1_555 1_555
H12 C23 1_555 1_555
C24 C22 1_555 1_555
C25 H13 1_555 1_555
H14 C25 1_555 1_555
C26 C25 1_555 1_555
C27 C26 1_555 1_555
H15 C27 1_555 1_555
C28 C27 1_555 1_555
H16 C28 1_555 1_555
C29 C28 1_555 1_555
C30 C29 1_555 1_555
H17 C30 1_555 1_555
C31 C26 1_555 1_555
H18 C31 1_555 1_555
C32 C29 1_555 1_555
C33 H19 1_555 1_555
C34 H20 1_555 1_555
C35 C34 1_555 1_555
H21 C35 1_555 1_555
C36 C37 1_555 1_555
C37 H22 1_555 1_555
C38 C37 1_555 1_555
H23 C38 1_555 1_555
C39 C38 1_555 1_555
C40 C39 1_555 1_555
H24 C40 1_555 1_555
C41 C36 1_555 1_555
H25 C41 1_555 1_555
C42 H26 1_555 1_555
C43 H27 1_555 1_555
C44 C43 1_555 1_555
H28 C44 1_555 1_555
C45 H29 1_555 1_555
C46 H30 1_555 1_555
C47 C46 1_555 1_555
H31 C47 1_555 1_555
C48 C49 1_555 1_555
C49 H32 1_555 1_555
C50 C49 1_555 1_555
H33 C50 1_555 1_555
C51 C50 1_555 1_555
C52 C51 1_555 1_555
H34 C52 1_555 1_555
C53 C48 1_555 1_555
H35 C53 1_555 1_555
C54 H36 1_555 1_555
C55 H37 1_555 1_555
C56 C55 1_555 1_555
H38 C56 1_555 1_555
H39 O15 1_555 1_555
H40 O16 1_555 1_555
H41 O17 1_555 1_555
H42 O15 1_555 1_555
H43 O16 1_555 1_555
H44 O17 1_555 1_555
N1 C33 1_555 1_555
N2 C33 1_555 1_555
N3 C39 1_555 1_555
N4 C42 1_555 1_555
N5 C45 1_555 1_555
N6 C45 1_555 1_555
N7 C51 1_555 1_555
N8 Zn1 1_555 1_555
O1 C1 1_555 1_555
O2 C1 1_555 1_555
O3 Zn1 1_555 1_555
O4 C8 1_555 1_555
O5 C6 1_555 1_555
O6 C16 1_555 1_555
O7 C16 1_555 1_555
O8 Zn1 1_555 1_555
O9 C17 1_555 1_555
O10 C24 1_555 1_555
O11 C24 1_555 1_555
O12 C20 1_555 1_555
O13 C32 1_555 1_555
O14 C32 1_555 1_555
Zn2A N4 1_555 1_555
Zn2B O6 1_555 1_555
Zn2C O10 1_555 1_555
Zn3B O1 1_555 1_555
Zn3A O11 1_555 1_555
Zn3C O14 1_555 1_555
N4A Zn2 1_555 1_555
O1B Zn3 1_555 1_555
O6B Zn2 1_555 1_555
O10C Zn2 1_555 1_555
O11A Zn3 1_555 1_555
O14C Zn3 1_555 1_555
C6 C7 1_555 1_555
C8 O3 1_555 1_555
C9 O5 1_555 1_555
C14 C15 1_555 1_555
C17 O8 1_555 1_555
C22 C23 1_555 1_555
C25 O12 1_555 1_555
C30 C31 1_555 1_555
C34 N1 1_555 1_555
C35 N2 1_555 1_555
C36 N2 1_555 1_555
C40 C41 1_555 1_555
C42 N3 1_555 1_555
C43 N4 1_555 1_555
C44 N3 1_555 1_555
C46 N5 1_555 1_555
C47 N6 1_555 1_555
C48 N6 1_555 1_555
C52 C53 1_555 1_555
C54 N7 1_555 1_555
C54 N8 1_555 1_555
C55 N7 1_555 1_555
C56 N8 1_555 1_555

#END
