
#######################################################################
#
#                 Cambridge Crystallographic Data Centre
#                                CCDC 
#
#######################################################################
#
# If this CIF has been generated from an entry in the Cambridge 
# Structural Database, then it will include bibliographic, chemical, 
# crystal, experimental, refinement or atomic coordinate data resulting 
# from the CCDC's data processing and validation procedures.
#
#######################################################################

data_CUYDEG
_symmetry_cell_setting           rhombohedral
_symmetry_space_group_name_H-M   'R -3'
_symmetry_Int_Tables_number      148
_space_group_name_Hall           '-R 3'
loop_
_symmetry_equiv_pos_site_id
_symmetry_equiv_pos_as_xyz
1 x,y,z
2 -y,x-y,z
3 -x+y,-x,z
4 2/3+x,1/3+y,1/3+z
5 2/3-y,1/3+x-y,1/3+z
6 2/3-x+y,1/3-x,1/3+z
7 1/3+x,2/3+y,2/3+z
8 1/3-y,2/3+x-y,2/3+z
9 1/3-x+y,2/3-x,2/3+z
10 -x,-y,-z
11 y,-x+y,-z
12 x-y,x,-z
13 1/3-x,2/3-y,2/3-z
14 1/3+y,2/3-x+y,2/3-z
15 1/3+x-y,2/3+x,2/3-z
16 2/3-x,1/3-y,1/3-z
17 2/3+y,1/3-x+y,1/3-z
18 2/3+x-y,1/3+x,1/3-z
_cell_length_a                   21.393(3)
_cell_length_b                   21.393(3)
_cell_length_c                   11.998(2)
_cell_angle_alpha                90
_cell_angle_beta                 90
_cell_angle_gamma                120
_cell_volume                     4755.35
loop_
_atom_site_label
_atom_site_type_symbol
_atom_site_fract_x
_atom_site_fract_y
_atom_site_fract_z
Co1 Co 0.65090(5) 0.11399(5) 0.24604(7)
S1 S 0.71333(12) -0.00777(11) 0.18291(17)
N1 N 0.7054(3) 0.1084(3) 0.1158(4)
N2 N 0.7625(3) 0.0739(3) -0.0063(4)
C1 C 0.7184(4) 0.2149(3) 0.0043(6)
H1 H 0.6945 0.2291 0.0542
C2 C 0.7287(3) 0.0623(3) 0.0913(5)
C3 C 0.7616(3) 0.1332(3) -0.0501(5)
C4 C 0.7264(3) 0.1545(3) 0.0246(5)
C5 C 0.8005(4) -0.0032(4) 0.1831(6)
H2 H 0.8369 0.0438 0.1561
H3 H 0.8129 -0.0081 0.2591
C6 C 0.7889(4) 0.1699(4) -0.1506(6)
H4 H 0.8110 0.1548 -0.2023
C7 C 0.7817(4) 0.2291(5) -0.1692(7)
H5 H 0.8000 0.2551 -0.2348
C8 C 0.7477(4) 0.2518(4) -0.0932(7)
H6 H 0.7449 0.2929 -0.1089
O1 O 0.8012(3) -0.1124(2) 0.1610(4)
O2 O 0.8035(3) -0.0550(3) 0.0073(4)
C9 C 0.8019(3) -0.0606(3) 0.1122(6)
Co1H Co 0.79642(7) 0.01577(5) -0.08729(7)
Co1P Co 0.78066(5) -0.20358(7) 0.08729(7)
N2D N 0.5928(3) 0.0219(4) 0.3270(4)
O1Q O 0.5803(4) 0.1345(3) 0.1723(4)
O2D O 0.7217(3) 0.1918(4) 0.3406(4)
loop_
_geom_bond_atom_site_label_1
_geom_bond_atom_site_label_2
_geom_bond_site_symmetry_1
_geom_bond_site_symmetry_2
Co1 N1 1_555 1_555
S1 C2 1_555 1_555
N1 C2 1_555 1_555
N2 C2 1_555 1_555
C1 H1 1_555 1_555
C3 N2 1_555 1_555
C4 N1 1_555 1_555
C5 S1 1_555 1_555
H2 C5 1_555 1_555
H3 C5 1_555 1_555
C6 C3 1_555 1_555
H4 C6 1_555 1_555
C7 C6 1_555 1_555
H5 C7 1_555 1_555
C8 C1 1_555 1_555
H6 C8 1_555 1_555
O1 C9 1_555 1_555
O2 C9 1_555 1_555
C9 C5 1_555 1_555
Co1H N2 1_555 1_555
Co1P O1 1_555 1_555
N2D Co1 1_555 1_555
O1Q Co1 1_555 1_555
O2D Co1 1_555 1_555
C1 C4 1_555 1_555
C3 C4 1_555 1_555
C7 C8 1_555 1_555
O2 Co1H 1_555 1_555

#END
