
#######################################################################
#
#                 Cambridge Crystallographic Data Centre
#                                CCDC 
#
#######################################################################
#
# If this CIF has been generated from an entry in the Cambridge 
# Structural Database, then it will include bibliographic, chemical, 
# crystal, experimental, refinement or atomic coordinate data resulting 
# from the CCDC's data processing and validation procedures.
#
#######################################################################

data_CUYHOU01
_symmetry_cell_setting           triclinic
_symmetry_space_group_name_H-M   'P -1'
_symmetry_Int_Tables_number      2
_space_group_name_Hall           '-P 1'
loop_
_symmetry_equiv_pos_site_id
_symmetry_equiv_pos_as_xyz
1 x,y,z
2 -x,-y,-z
_cell_length_a                   8.3196(14)
_cell_length_b                   11.3917(17)
_cell_length_c                   11.4516(17)
_cell_angle_alpha                67.848(8)
_cell_angle_beta                 87.092(9)
_cell_angle_gamma                68.592(8)
_cell_volume                     931.089
loop_
_atom_site_label
_atom_site_type_symbol
_atom_site_fract_x
_atom_site_fract_y
_atom_site_fract_z
Zn1 Zn 0.59359(7) 0.82165(5) 0.75166(5)
C1 C 0.0680(6) 1.2850(5) 1.1139(5)
C2 C -0.0559(7) 1.3346(5) 0.9995(5)
H1 H -0.1167 1.4324 0.9736
H2 H -0.1417 1.2929 1.0246
C3 C 0.0210(6) 1.3072(5) 0.8853(5)
C4 C 0.0790(7) 1.3978(5) 0.7935(6)
H3 H 0.0795 1.4745 0.8046
C5 C 0.1358(7) 1.3764(5) 0.6864(6)
H4 H 0.1744 1.4389 0.6256
C6 C 0.1370(7) 1.2626(5) 0.6670(5)
H5 H 0.1736 1.2500 0.5930
C7 C 0.0827(6) 1.1681(5) 0.7597(5)
C8 C 0.0268(6) 1.1919(5) 0.8661(5)
H6 H -0.0088 1.1285 0.9283
C9 C 0.0820(6) 1.0440(5) 0.7390(5)
H7 H 0.0157 1.0736 0.6590
H8 H 0.0266 0.9951 0.8061
C10 C 0.2672(6) 0.9485(5) 0.7381(5)
C11 C 0.6653(6) 0.5839(5) 0.6680(5)
H9 H 0.7289 0.6287 0.6123
C12 C 0.6691(6) 0.4636(5) 0.6648(4)
H10 H 0.7301 0.4307 0.6062
C13 C 0.5806(6) 0.3912(4) 0.7502(4)
C14 C 0.4902(7) 0.4489(5) 0.8333(5)
H11 H 0.4318 0.4034 0.8941
C15 C 0.4874(7) 0.5736(5) 0.8252(5)
H12 H 0.4201 0.6130 0.8778
C16 C 0.5891(7) 0.1191(5) 0.6405(5)
H13 H 0.5839 0.1095 0.5639
C17 C 0.5856(6) 0.2411(5) 0.6391(4)
H14 H 0.5821 0.3111 0.5625
C18 C 0.5872(6) 0.2602(5) 0.7512(4)
C19 C 0.5988(7) 0.1517(5) 0.8630(4)
H15 H 0.6015 0.1599 0.9406
C20 C 0.6064(7) 0.0306(5) 0.8572(4)
H16 H 0.6167 -0.0425 0.9329
H17 H 0.724(6) 0.904(4) 0.527(3)
H18 H 0.847(4) 0.809(5) 0.634(5)
N1 N 0.5766(5) 0.6402(4) 0.7456(4)
N2 N 0.5999(5) 0.0129(4) 0.7494(4)
O1 O 0.0105(5) 1.2512(5) 1.2187(4)
O2 O 0.2214(4) 1.2805(3) 1.0989(3)
O3 O 0.3307(5) 0.9588(3) 0.6343(3)
O4 O 0.3558(4) 0.8675(3) 0.8412(3)
O5 O 0.7450(5) 0.8366(4) 0.5986(3)
Zn1_2 Zn 0.59359(7) -0.17835(5) 0.75166(5)
Zn1A Zn 0.40641(7) 1.17835(5) 1.24834(5)
N2_2 N 0.5999(5) 1.0129(4) 0.7494(4)
O2A O 0.7786(4) 0.7195(3) 0.9011(3)
O6 O 0.8227(11) 0.2505(9) 0.4178(8)
loop_
_geom_bond_atom_site_label_1
_geom_bond_atom_site_label_2
_geom_bond_site_symmetry_1
_geom_bond_site_symmetry_2
Zn1 N1 1_555 1_555
C1 C2 1_555 1_555
C2 H1 1_555 1_555
H2 C2 1_555 1_555
C3 C2 1_555 1_555
C4 C3 1_555 1_555
H3 C4 1_555 1_555
C5 C4 1_555 1_555
H4 C5 1_555 1_555
C6 C5 1_555 1_555
H5 C6 1_555 1_555
C7 C6 1_555 1_555
C8 C3 1_555 1_555
H6 C8 1_555 1_555
C9 C7 1_555 1_555
H7 C9 1_555 1_555
H8 C9 1_555 1_555
C10 C9 1_555 1_555
C11 H9 1_555 1_555
C12 C11 1_555 1_555
H10 C12 1_555 1_555
C13 C12 1_555 1_555
C14 C13 1_555 1_555
H11 C14 1_555 1_555
C15 C14 1_555 1_555
H12 C15 1_555 1_555
C16 H13 1_555 1_555
C17 C16 1_555 1_555
H14 C17 1_555 1_555
C18 C13 1_555 1_555
C19 C18 1_555 1_555
H15 C19 1_555 1_555
C20 C19 1_555 1_555
H16 C20 1_555 1_555
H17 O5 1_555 1_555
H18 O5 1_555 1_555
N1 C11 1_555 1_555
N2 C16 1_555 1_555
O1 C1 1_555 1_555
O2 C1 1_555 1_555
O3 Zn1 1_555 1_555
O4 Zn1 1_555 1_555
O5 Zn1 1_555 1_555
Zn1_2 N2 1_555 1_555
Zn1A O2 1_555 1_555
N2_2 Zn1 1_555 1_555
O2A Zn1 1_555 1_555
C7 C8 1_555 1_555
C10 O3 1_555 1_555
C10 O4 1_555 1_555
C15 N1 1_555 1_555
C17 C18 1_555 1_555
C20 N2 1_555 1_555

#END
