
#######################################################################
#
#                 Cambridge Crystallographic Data Centre
#                                CCDC 
#
#######################################################################
#
# If this CIF has been generated from an entry in the Cambridge 
# Structural Database, then it will include bibliographic, chemical, 
# crystal, experimental, refinement or atomic coordinate data resulting 
# from the CCDC's data processing and validation procedures.
#
#######################################################################

data_CUYRAQ
_symmetry_cell_setting           monoclinic
_symmetry_space_group_name_H-M   'P 21/n'
_symmetry_Int_Tables_number      14
_space_group_name_Hall           '-P 2yn'
loop_
_symmetry_equiv_pos_site_id
_symmetry_equiv_pos_as_xyz
1 x,y,z
2 1/2-x,1/2+y,1/2-z
3 -x,-y,-z
4 1/2+x,1/2-y,1/2+z
_cell_length_a                   10.141(4)
_cell_length_b                   16.865(7)
_cell_length_c                   14.646(6)
_cell_angle_alpha                90
_cell_angle_beta                 90.0000(10)
_cell_angle_gamma                90
_cell_volume                     2504.88
loop_
_atom_site_label
_atom_site_type_symbol
_atom_site_fract_x
_atom_site_fract_y
_atom_site_fract_z
C1 C 0.8419(3) 0.88223(19) 0.0078(2)
C2 C 0.7587(3) 0.90296(19) -0.0620(2)
H1 H 0.7004 0.9452 -0.0558
C3 C 0.7638(3) 0.85933(19) -0.1416(2)
C4 C 0.8509(3) 0.79650(19) -0.1522(2)
H2 H 0.8539 0.7679 -0.2065
C5 C 0.9327(3) 0.77761(19) -0.0804(2)
C6 C 0.9299(3) 0.8205(2) 0.0005(2)
H3 H 0.9860 0.8077 0.0486
C7 C 0.9436(3) 0.9691(2) 0.1268(3)
H4 H 1.0298 0.9704 0.1052
C8 C 0.8958(4) 1.0061(2) 0.2015(3)
H5 H 0.9447 1.0388 0.2399
C9 C 0.7347(3) 0.9424(2) 0.1426(2)
H6 H 0.6512 0.9216 0.1318
C10 C 0.7127(4) 0.8786(3) -0.3075(3)
H7 H 0.7879 0.8566 -0.3335
C11 C 0.6122(4) 0.9135(3) -0.3515(3)
H8 H 0.6068 0.9203 -0.4144
C12 C 0.5648(3) 0.91840(18) -0.2096(2)
H9 H 0.5217 0.9287 -0.1548
C13 C 1.1457(3) 0.7091(2) -0.0504(2)
H10 H 1.1865 0.7478 -0.0151
C14 C 1.1960(3) 0.6386(2) -0.0738(2)
H11 H 1.2788 0.6199 -0.0568
C15 C 1.0035(3) 0.6449(2) -0.1343(2)
H12 H 0.9275 0.6326 -0.1669
C16 C 0.8673(3) 1.1521(2) 0.4952(2)
C17 C 0.9408(3) 1.2206(2) 0.4843(2)
H13 H 0.9426 1.2460 0.4280
C18 C 1.0113(3) 1.25142(19) 0.5565(2)
H14 H 1.0619 1.2969 0.5485
C19 C 1.0069(3) 1.2146(2) 0.6409(2)
C20 C 0.9306(4) 1.1476(2) 0.6524(2)
H15 H 0.9259 1.1235 0.7094
C21 C 0.8613(4) 1.1161(2) 0.5799(2)
H16 H 0.8105 1.0708 0.5880
C22 C 0.7966(4) 1.1173(2) 0.4147(2)
C23 C 1.0862(4) 1.2432(2) 0.7196(3)
N1 N 0.7644(3) 0.98853(15) 0.21250(18)
N2 N 0.8394(3) 0.92937(15) 0.08937(17)
N3 N 0.5189(3) 0.93746(16) -0.28996(18)
N4 N 0.6820(3) 0.88210(16) -0.21611(18)
N5 N 1.1067(3) 0.59768(15) -0.12678(18)
N6 N 1.0227(3) 0.71317(15) -0.08867(17)
O1 O 0.7287(2) 1.05538(15) 0.42829(16)
O2 O 0.8113(3) 1.14873(15) 0.33838(17)
O3 O 1.0759(4) 1.2164(2) 0.79447(19)
O4 O 1.1690(3) 1.30021(17) 0.69844(18)
Zn1 Zn 0.64957(4) 1.00972(2) 0.32059(3)
H17 H 1.204(4) 1.317(3) 0.744(3)
C1B C 0.1581(3) 1.11777(19) -0.0078(2)
C2B C 0.2413(3) 1.09704(19) 0.0620(2)
H1B H 0.2996 1.0548 0.0558
C3B C 0.2362(3) 1.14067(19) 0.1416(2)
C4B C 0.1491(3) 1.20350(19) 0.1522(2)
H2B H 0.1461 1.2321 0.2065
C5B C 0.0673(3) 1.22239(19) 0.0804(2)
C6B C 0.0701(3) 1.1795(2) -0.0005(2)
H3B H 0.0140 1.1923 -0.0486
C7B C 0.0564(3) 1.0309(2) -0.1268(3)
H4B H -0.0298 1.0296 -0.1052
C8B C 0.1042(4) 0.9939(2) -0.2015(3)
H5B H 0.0553 0.9612 -0.2399
C9B C 0.2653(3) 1.0576(2) -0.1426(2)
H6B H 0.3488 1.0784 -0.1318
C10B C 0.2873(4) 1.1214(3) 0.3075(3)
H7B H 0.2121 1.1434 0.3335
C11B C 0.3878(4) 1.0865(3) 0.3515(3)
H8B H 0.3932 1.0797 0.4144
C12B C 0.4352(3) 1.08160(18) 0.2096(2)
H9B H 0.4783 1.0713 0.1548
C13B C -0.1457(3) 1.2909(2) 0.0504(2)
H10B H -0.1865 1.2522 0.0151
C14B C -0.1960(3) 1.3614(2) 0.0738(2)
H11B H -0.2788 1.3801 0.0568
C15B C -0.0035(3) 1.3551(2) 0.1343(2)
H12B H 0.0725 1.3674 0.1669
C16B C 0.1327(3) 0.8479(2) -0.4952(2)
C17B C 0.0592(3) 0.7794(2) -0.4843(2)
H13B H 0.0574 0.7540 -0.4280
C18B C -0.0113(3) 0.74858(19) -0.5565(2)
H14B H -0.0619 0.7031 -0.5485
C19B C -0.0069(3) 0.7854(2) -0.6409(2)
C20B C 0.0694(4) 0.8524(2) -0.6524(2)
H15B H 0.0741 0.8765 -0.7094
C21B C 0.1387(4) 0.8839(2) -0.5799(2)
H16B H 0.1895 0.9292 -0.5880
C22B C 0.2034(4) 0.8827(2) -0.4147(2)
C23B C -0.0862(4) 0.7568(2) -0.7196(3)
N1B N 0.2356(3) 1.01147(15) -0.21250(18)
N2B N 0.1606(3) 1.07063(15) -0.08937(17)
N3B N 0.4811(3) 1.06254(16) 0.28996(18)
N4B N 0.3180(3) 1.11790(16) 0.21611(18)
N5B N -0.1067(3) 1.40232(15) 0.12678(18)
N5A N 0.3933(3) 1.09768(15) -0.37322(18)
N5C N 0.6067(3) 0.90232(15) 0.37322(18)
N6B N -0.0227(3) 1.28683(15) 0.08867(17)
O1B O 0.2713(2) 0.94462(15) -0.42829(16)
O2B O 0.1887(3) 0.85127(15) -0.33838(17)
O3B O -0.0759(4) 0.7836(2) -0.79447(19)
O4B O -0.1690(3) 0.69979(17) -0.69844(18)
Zn1B Zn 0.35043(4) 0.99028(2) -0.32059(3)
Zn1A Zn -0.14957(4) 1.50972(2) 0.17941(3)
Zn1C Zn 1.14957(4) 0.49028(2) -0.17941(3)
H17B H -0.204(4) 0.683(3) -0.744(3)
Cl1 Cl 0.67886(9) 0.11559(5) 0.87637(6)
O5 O 0.6548(6) 0.1910(2) 0.8483(3)
O6 O 0.5664(3) 0.0810(2) 0.9175(3)
O7 O 0.7272(3) 0.06609(16) 0.80469(19)
O8 O 0.7733(3) 0.1180(3) 0.9464(3)
loop_
_geom_bond_atom_site_label_1
_geom_bond_atom_site_label_2
_geom_bond_site_symmetry_1
_geom_bond_site_symmetry_2
C1 C2 1_555 1_555
C2 H1 1_555 1_555
C3 C2 1_555 1_555
C4 C3 1_555 1_555
H2 C4 1_555 1_555
C5 C4 1_555 1_555
C6 C1 1_555 1_555
H3 C6 1_555 1_555
C7 H4 1_555 1_555
C8 C7 1_555 1_555
H5 C8 1_555 1_555
C9 H6 1_555 1_555
C10 H7 1_555 1_555
C11 C10 1_555 1_555
H8 C11 1_555 1_555
C12 H9 1_555 1_555
C13 H10 1_555 1_555
C14 C13 1_555 1_555
H11 C14 1_555 1_555
C15 H12 1_555 1_555
C16 C17 1_555 1_555
C17 H13 1_555 1_555
C18 C17 1_555 1_555
H14 C18 1_555 1_555
C19 C18 1_555 1_555
C20 C19 1_555 1_555
H15 C20 1_555 1_555
C21 C16 1_555 1_555
H16 C21 1_555 1_555
C22 C16 1_555 1_555
C23 C19 1_555 1_555
Cl1 O5 1_555 1_555
N1 C8 1_555 1_555
N2 C1 1_555 1_555
N3 C11 1_555 1_555
N4 C3 1_555 1_555
N5 C14 1_555 1_555
N6 C5 1_555 1_555
O1 C22 1_555 1_555
O2 C22 1_555 1_555
O3 C23 1_555 1_555
O4 C23 1_555 1_555
O6 Cl1 1_555 1_555
O7 Cl1 1_555 1_555
O8 Cl1 1_555 1_555
Zn1 N1 1_555 1_555
H17 O4 1_555 1_555
C1B C2B 1_555 1_555
C2B H1B 1_555 1_555
C3B C2B 1_555 1_555
C4B C3B 1_555 1_555
H2B C4B 1_555 1_555
C5B C4B 1_555 1_555
C6B C1B 1_555 1_555
H3B C6B 1_555 1_555
C7B H4B 1_555 1_555
C8B C7B 1_555 1_555
H5B C8B 1_555 1_555
C9B H6B 1_555 1_555
C10B H7B 1_555 1_555
C11B C10B 1_555 1_555
H8B C11B 1_555 1_555
C12B H9B 1_555 1_555
C13B H10B 1_555 1_555
C14B C13B 1_555 1_555
H11B C14B 1_555 1_555
C15B H12B 1_555 1_555
C16B C17B 1_555 1_555
C17B H13B 1_555 1_555
C18B C17B 1_555 1_555
H14B C18B 1_555 1_555
C19B C18B 1_555 1_555
C20B C19B 1_555 1_555
H15B C20B 1_555 1_555
C21B C16B 1_555 1_555
H16B C21B 1_555 1_555
C22B C16B 1_555 1_555
C23B C19B 1_555 1_555
N1B C8B 1_555 1_555
N2B C1B 1_555 1_555
N3B Zn1 1_555 1_555
N4B C3B 1_555 1_555
N5B C14B 1_555 1_555
N5A Zn1B 1_555 1_555
N5C Zn1 1_555 1_555
N6B C5B 1_555 1_555
O1B C22B 1_555 1_555
O2B C22B 1_555 1_555
O3B C23B 1_555 1_555
O4B C23B 1_555 1_555
Zn1B N3 1_555 1_555
Zn1A N5B 1_555 1_555
Zn1C N5 1_555 1_555
H17B O4B 1_555 1_555
C5 C6 1_555 1_555
C7 N2 1_555 1_555
C9 N1 1_555 1_555
C9 N2 1_555 1_555
C10 N4 1_555 1_555
C12 N3 1_555 1_555
C12 N4 1_555 1_555
C13 N6 1_555 1_555
C15 N5 1_555 1_555
C15 N6 1_555 1_555
C20 C21 1_555 1_555
O1 Zn1 1_555 1_555
C5B C6B 1_555 1_555
C7B N2B 1_555 1_555
C9B N1B 1_555 1_555
C9B N2B 1_555 1_555
C10B N4B 1_555 1_555
C11B N3B 1_555 1_555
C12B N3B 1_555 1_555
C12B N4B 1_555 1_555
C13B N6B 1_555 1_555
C15B N5B 1_555 1_555
C15B N6B 1_555 1_555
C20B C21B 1_555 1_555
N1B Zn1B 1_555 1_555
O1B Zn1B 1_555 1_555

#END
