
#######################################################################
#
#                 Cambridge Crystallographic Data Centre
#                                CCDC 
#
#######################################################################
#
# If this CIF has been generated from an entry in the Cambridge 
# Structural Database, then it will include bibliographic, chemical, 
# crystal, experimental, refinement or atomic coordinate data resulting 
# from the CCDC's data processing and validation procedures.
#
#######################################################################

data_CUYREU
_symmetry_cell_setting           triclinic
_symmetry_space_group_name_H-M   'P -1'
_symmetry_Int_Tables_number      2
_space_group_name_Hall           '-P 1'
loop_
_symmetry_equiv_pos_site_id
_symmetry_equiv_pos_as_xyz
1 x,y,z
2 -x,-y,-z
_cell_length_a                   7.3942(8)
_cell_length_b                   9.0166(10)
_cell_length_c                   19.515(2)
_cell_angle_alpha                100.837(2)
_cell_angle_beta                 91.264(3)
_cell_angle_gamma                95.107(2)
_cell_volume                     1271.8
loop_
_atom_site_label
_atom_site_type_symbol
_atom_site_fract_x
_atom_site_fract_y
_atom_site_fract_z
Zn1 Zn 0.36375(5) 0.19193(4) 0.127994(17)
Zn2 Zn -0.47810(5) 1.31722(4) 0.442973(18)
C1 C -0.0469(4) 0.6615(3) 0.20666(15)
C2 C -0.0790(4) 0.7553(3) 0.26888(15)
H1 H -0.0585 0.7257 0.3113
C3 C -0.1422(4) 0.8942(3) 0.26680(15)
C4 C -0.1709(4) 0.9396(3) 0.20426(15)
H2 H -0.2100 1.0344 0.2033
C5 C -0.1405(4) 0.8419(3) 0.14278(15)
C6 C -0.0780(4) 0.7024(3) 0.14319(15)
H3 H -0.0575 0.6375 0.1017
C7 C 0.0198(5) 0.4420(4) 0.26308(16)
H4 H -0.0358 0.4684 0.3054
C8 C 0.1120(5) 0.3198(4) 0.24282(16)
H5 H 0.1301 0.2461 0.2691
C9 C 0.1201(4) 0.4428(3) 0.15857(15)
H6 H 0.1441 0.4721 0.1162
C10 C -0.1587(5) 0.9606(4) 0.39675(16)
H7 H -0.0997 0.8819 0.4090
C11 C -0.2343(5) 1.0688(4) 0.44014(17)
H8 H -0.2361 1.0774 0.4884
C12 C -0.2773(4) 1.1128(4) 0.33717(16)
H9 H -0.3138 1.1558 0.3000
C13 C -0.1689(5) 1.0347(4) 0.06831(17)
H10 H -0.1298 1.1215 0.1009
C14 C -0.2284(5) 1.0292(4) 0.00269(17)
H11 H -0.2369 1.1128 -0.0183
C15 C -0.2424(4) 0.7981(4) 0.01802(15)
H12 H -0.2619 0.6929 0.0107
C16 C 0.3982(4) -0.1716(3) 0.23388(15)
C17 C 0.4593(4) -0.3153(3) 0.22254(15)
H13 H 0.4861 -0.3614 0.1777
C18 C 0.4807(4) -0.3897(3) 0.27715(15)
H14 H 0.5240 -0.4850 0.2691
C19 C 0.4379(4) -0.3233(3) 0.34406(15)
C20 C 0.3730(4) -0.1806(4) 0.35509(16)
H15 H 0.3419 -0.1361 0.3997
C21 C 0.3545(4) -0.1056(3) 0.30106(15)
H16 H 0.3124 -0.0099 0.3092
C22 C 0.3870(4) -0.0891(4) 0.17434(17)
C23 C 0.4626(4) -0.4031(4) 0.40303(16)
Cl1 Cl 0.62412(13) 0.34241(11) 0.13454(6)
Cl2 Cl -0.76695(15) 1.22810(14) 0.43398(6)
N1 N 0.1756(4) 0.3212(3) 0.17672(13)
N2 N 0.0242(3) 0.5201(3) 0.20871(12)
N3 N -0.3089(4) 1.1652(3) 0.40312(13)
N4 N -0.1848(3) 0.9883(3) 0.33066(12)
N5 N -0.2752(4) 0.8809(3) -0.02901(13)
N6 N -0.1767(3) 0.8877(3) 0.07835(12)
O1 O 0.4033(4) -0.1547(3) 0.11470(12)
O2 O 0.3690(4) 0.0531(3) 0.19212(12)
O3 O 0.5553(3) -0.5144(3) 0.39335(11)
O4 O 0.3873(3) -0.3552(3) 0.45954(11)
Zn1A Zn -0.36375(5) 0.80807(4) -0.127994(17)
Zn2A Zn 0.47810(5) -0.31722(4) -0.442973(18)
Zn2_2 Zn -0.47810(5) 1.31722(4) -0.557027(18)
Zn2_3 Zn 0.52190(5) -0.68278(4) 0.442973(18)
Zn2A_2 Zn -0.52190(5) 1.68278(4) -0.442973(18)
Zn2A_3 Zn 0.47810(5) -0.31722(4) 0.557027(18)
C1A C 0.0469(4) 0.3385(3) -0.20666(15)
C2A C 0.0790(4) 0.2447(3) -0.26888(15)
H1A H 0.0585 0.2743 -0.3113
C3A C 0.1422(4) 0.1058(3) -0.26680(15)
C4A C 0.1709(4) 0.0604(3) -0.20426(15)
H2A H 0.2100 -0.0344 -0.2033
C5A C 0.1405(4) 0.1581(3) -0.14278(15)
C6A C 0.0780(4) 0.2976(3) -0.14319(15)
H3A H 0.0575 0.3625 -0.1017
C7A C -0.0198(5) 0.5580(4) -0.26308(16)
H4A H 0.0358 0.5316 -0.3054
C8A C -0.1120(5) 0.6802(4) -0.24282(16)
H5A H -0.1301 0.7539 -0.2691
C9A C -0.1201(4) 0.5572(3) -0.15857(15)
H6A H -0.1441 0.5279 -0.1162
C10A C 0.1587(5) 0.0394(4) -0.39675(16)
H7A H 0.0997 0.1181 -0.4090
C11A C 0.2343(5) -0.0688(4) -0.44014(17)
H8A H 0.2361 -0.0774 -0.4884
C12A C 0.2773(4) -0.1128(4) -0.33717(16)
H9A H 0.3138 -0.1558 -0.3000
C13A C 0.1689(5) -0.0347(4) -0.06831(17)
H10A H 0.1298 -0.1215 -0.1009
C14A C 0.2284(5) -0.0292(4) -0.00269(17)
H11A H 0.2369 -0.1128 0.0183
C15A C 0.2424(4) 0.2019(4) -0.01802(15)
H12A H 0.2619 0.3071 -0.0107
C16A C -0.3982(4) 1.1716(3) -0.23388(15)
C17A C -0.4593(4) 1.3153(3) -0.22254(15)
H13A H -0.4861 1.3614 -0.1777
C18A C -0.4807(4) 1.3897(3) -0.27715(15)
H14A H -0.5240 1.4850 -0.2691
C19A C -0.4379(4) 1.3233(3) -0.34406(15)
C20A C -0.3730(4) 1.1806(4) -0.35509(16)
H15A H -0.3419 1.1361 -0.3997
C21A C -0.3545(4) 1.1056(3) -0.30106(15)
H16A H -0.3124 1.0099 -0.3092
C22A C -0.3870(4) 1.0891(4) -0.17434(17)
C23A C -0.4626(4) 1.4031(4) -0.40303(16)
Cl1A Cl -0.62412(13) 0.65759(11) -0.13454(6)
Cl2A Cl 0.76695(15) -0.22810(14) -0.43398(6)
N1A N -0.1756(4) 0.6788(3) -0.17672(13)
N2A N -0.0242(3) 0.4799(3) -0.20871(12)
N3A N 0.3089(4) -0.1652(3) -0.40312(13)
N4A N 0.1848(3) 0.0117(3) -0.33066(12)
N5A N 0.2752(4) 0.1191(3) 0.02901(13)
N6A N 0.1767(3) 0.1123(3) -0.07835(12)
O1A O -0.4033(4) 1.1547(3) -0.11470(12)
O2A O -0.3690(4) 0.9469(3) -0.19212(12)
O3A O -0.5553(3) 1.5144(3) -0.39335(11)
O3_2 O -0.4447(3) 1.4856(3) 0.39335(11)
O3A_2 O 0.4447(3) -0.4856(3) -0.39335(11)
O4A O -0.3873(3) 1.3552(3) -0.45954(11)
O4_2 O 0.3873(3) -0.3552(3) -0.54046(11)
O4A_2 O -0.3873(3) 1.3552(3) 0.54046(11)
O5 O 0.2725(5) 0.5783(3) 0.02090(17)
H17 H 0.2968 0.5947 -0.0195
H18 H 0.3102 0.6571 0.0507
O6 O 0.9851(4) 0.6324(4) 0.42475(14)
H19 H 0.9309 0.6683 0.4613
H20 H 1.0979 0.6364 0.4352
loop_
_geom_bond_atom_site_label_1
_geom_bond_atom_site_label_2
_geom_bond_site_symmetry_1
_geom_bond_site_symmetry_2
Zn1 Cl1 1_555 1_555
Zn2 Cl2 1_555 1_555
C1 C2 1_555 1_555
C2 H1 1_555 1_555
C3 C2 1_555 1_555
C4 C3 1_555 1_555
H2 C4 1_555 1_555
C5 C4 1_555 1_555
C6 C1 1_555 1_555
H3 C6 1_555 1_555
C7 H4 1_555 1_555
C8 C7 1_555 1_555
H5 C8 1_555 1_555
C9 H6 1_555 1_555
C10 H7 1_555 1_555
C11 C10 1_555 1_555
H8 C11 1_555 1_555
C12 H9 1_555 1_555
C13 H10 1_555 1_555
C14 C13 1_555 1_555
H11 C14 1_555 1_555
C15 H12 1_555 1_555
C16 C17 1_555 1_555
C17 H13 1_555 1_555
C18 C17 1_555 1_555
H14 C18 1_555 1_555
C19 C18 1_555 1_555
C20 C19 1_555 1_555
H15 C20 1_555 1_555
C21 C16 1_555 1_555
H16 C21 1_555 1_555
C22 C16 1_555 1_555
C23 C19 1_555 1_555
N1 Zn1 1_555 1_555
N2 C1 1_555 1_555
N3 Zn2 1_555 1_555
N4 C3 1_555 1_555
N5 C14 1_555 1_555
N6 C5 1_555 1_555
O1 C22 1_555 1_555
O2 Zn1 1_555 1_555
O3 C23 1_555 1_555
O4 C23 1_555 1_555
O5 H17 1_555 1_555
H18 O5 1_555 1_555
O6 H19 1_555 1_555
H20 O6 1_555 1_555
Zn1A N5 1_555 1_555
Zn2A Cl2A 1_555 1_555
Zn2_2 O4A 1_555 1_555
Zn2_3 O3 1_555 1_555
Zn2A_2 O3A 1_555 1_555
Zn2A_3 O4 1_555 1_555
C1A C2A 1_555 1_555
C2A H1A 1_555 1_555
C3A C2A 1_555 1_555
C4A C3A 1_555 1_555
H2A C4A 1_555 1_555
C5A C4A 1_555 1_555
C6A C1A 1_555 1_555
H3A C6A 1_555 1_555
C7A H4A 1_555 1_555
C8A C7A 1_555 1_555
H5A C8A 1_555 1_555
C9A H6A 1_555 1_555
C10A H7A 1_555 1_555
C11A C10A 1_555 1_555
H8A C11A 1_555 1_555
C12A H9A 1_555 1_555
C13A H10A 1_555 1_555
C14A C13A 1_555 1_555
H11A C14A 1_555 1_555
C15A H12A 1_555 1_555
C16A C17A 1_555 1_555
C17A H13A 1_555 1_555
C18A C17A 1_555 1_555
H14A C18A 1_555 1_555
C19A C18A 1_555 1_555
C20A C19A 1_555 1_555
H15A C20A 1_555 1_555
C21A C16A 1_555 1_555
H16A C21A 1_555 1_555
C22A C16A 1_555 1_555
C23A C19A 1_555 1_555
Cl1A Zn1A 1_555 1_555
N1A Zn1A 1_555 1_555
N2A C1A 1_555 1_555
N3A Zn2A 1_555 1_555
N4A C3A 1_555 1_555
N5A Zn1 1_555 1_555
N6A C5A 1_555 1_555
O1A C22A 1_555 1_555
O2A Zn1A 1_555 1_555
O3A C23A 1_555 1_555
O3_2 Zn2 1_555 1_555
O3A_2 Zn2A 1_555 1_555
O4A C23A 1_555 1_555
O4_2 Zn2A 1_555 1_555
O4A_2 Zn2 1_555 1_555
C5 C6 1_555 1_555
C7 N2 1_555 1_555
C8 N1 1_555 1_555
C9 N1 1_555 1_555
C9 N2 1_555 1_555
C10 N4 1_555 1_555
C11 N3 1_555 1_555
C12 N3 1_555 1_555
C12 N4 1_555 1_555
C13 N6 1_555 1_555
C15 N5 1_555 1_555
C15 N6 1_555 1_555
C20 C21 1_555 1_555
C22 O2 1_555 1_555
C5A C6A 1_555 1_555
C7A N2A 1_555 1_555
C8A N1A 1_555 1_555
C9A N1A 1_555 1_555
C9A N2A 1_555 1_555
C10A N4A 1_555 1_555
C11A N3A 1_555 1_555
C12A N3A 1_555 1_555
C12A N4A 1_555 1_555
C13A N6A 1_555 1_555
C14A N5A 1_555 1_555
C15A N5A 1_555 1_555
C15A N6A 1_555 1_555
C20A C21A 1_555 1_555
C22A O2A 1_555 1_555

#END
