
#######################################################################
#
#                 Cambridge Crystallographic Data Centre
#                                CCDC 
#
#######################################################################
#
# If this CIF has been generated from an entry in the Cambridge 
# Structural Database, then it will include bibliographic, chemical, 
# crystal, experimental, refinement or atomic coordinate data resulting 
# from the CCDC's data processing and validation procedures.
#
#######################################################################

data_CUYRIY
_symmetry_cell_setting           triclinic
_symmetry_space_group_name_H-M   'P -1'
_symmetry_Int_Tables_number      2
_space_group_name_Hall           '-P 1'
loop_
_symmetry_equiv_pos_site_id
_symmetry_equiv_pos_as_xyz
1 x,y,z
2 -x,-y,-z
_cell_length_a                   8.8946(9)
_cell_length_b                   12.3328(12)
_cell_length_c                   12.5363(12)
_cell_angle_alpha                96.534(3)
_cell_angle_beta                 100.710(2)
_cell_angle_gamma                100.592(2)
_cell_volume                     1312.52
loop_
_atom_site_label
_atom_site_type_symbol
_atom_site_fract_x
_atom_site_fract_y
_atom_site_fract_z
Zn1 Zn 0.54527(3) 0.67097(3) 0.86785(3)
Zn2 Zn 0.78450(3) 0.90206(2) 0.65118(2)
C1 C 0.8790(3) 0.4898(2) 0.7208(2)
C2 C 0.9684(3) 0.4635(2) 0.8138(2)
H1 H 1.0485 0.5171 0.8597
C3 C 0.9352(3) 0.3565(2) 0.8359(2)
C4 C 0.8127(3) 0.2760(2) 0.7692(2)
H2 H 0.7914 0.2035 0.7848
C5 C 0.7238(3) 0.3064(2) 0.6796(2)
C6 C 0.7556(3) 0.4125(2) 0.6531(2)
H3 H 0.6961 0.4315 0.5916
C7 C 1.0590(3) 0.6663(2) 0.7036(3)
H4 H 1.1541 0.6440 0.7182
C8 C 1.0372(3) 0.7675(2) 0.6849(2)
H5 H 1.1159 0.8282 0.6834
C9 C 0.8081(3) 0.6667(2) 0.6757(2)
H6 H 0.7005 0.6435 0.6675
C10 C 0.9782(3) 0.2380(3) 0.9834(2)
H7 H 0.8776 0.1949 0.9721
C11 C 1.1049(3) 0.2288(2) 1.0564(2)
H8 H 1.1064 0.1766 1.1044
C12 C 1.1798(3) 0.3637(2) 0.9719(2)
H9 H 1.2412 0.4230 0.9498
C13 C 0.5242(3) 0.1275(2) 0.6461(2)
H10 H 0.5545 0.1023 0.7123
C14 C 0.4035(3) 0.0777(2) 0.5641(2)
H11 H 0.3348 0.0110 0.5640
C15 C 0.5142(3) 0.2277(2) 0.5124(2)
H12 H 0.5379 0.2842 0.4712
C16 C 0.3010(3) 0.3926(2) 0.6769(2)
C17 C 0.3465(3) 0.3278(2) 0.7548(2)
H13 H 0.4392 0.3540 0.8069
C18 C 0.2557(3) 0.2247(2) 0.7561(2)
H14 H 0.2876 0.1818 0.8089
C19 C 0.1168(3) 0.1847(2) 0.6789(2)
C20 C 0.0703(3) 0.2497(2) 0.6011(2)
H15 H -0.0229 0.2235 0.5495
C21 C 0.1602(3) 0.3528(2) 0.5992(2)
H16 H 0.1278 0.3959 0.5466
C22 C 0.3967(3) 0.5068(2) 0.6767(2)
C23 C 0.0202(3) 0.0724(2) 0.6828(3)
C24 C 0.5558(3) 0.9508(2) 0.9147(2)
C25 C 0.3990(4) 0.9496(3) 0.9037(3)
H17 H 0.3298 0.9154 0.8385
C26 C 0.6571(4) 1.0015(3) 1.0118(3)
H18 H 0.7635 1.0026 1.0203
C27 C 0.6157(3) 0.9005(2) 0.8205(2)
Cl1 Cl 0.36514(9) 0.65713(8) 0.96815(7)
N1 N 0.8792(2) 0.76782(17) 0.66804(17)
N2 N 0.9117(2) 0.60109(18) 0.69691(18)
N3 N 1.2317(3) 0.3080(2) 1.04959(18)
N4 N 1.0271(2) 0.32408(18) 0.92859(18)
N5 N 0.3967(2) 0.14044(18) 0.47996(18)
N6 N 0.5948(2) 0.22334(17) 0.61337(17)
O1 O 0.3638(3) 0.5593(2) 0.6020(2)
O2 O 0.5120(2) 0.54151(16) 0.75893(18)
O3 O -0.1090(2) 0.04087(17) 0.61212(17)
O4 O 0.0634(3) 0.01530(19) 0.7523(2)
O5 O 0.5694(2) 0.79814(15) 0.78275(15)
O6 O 0.7119(2) 0.96430(16) 0.78274(15)
Zn1_2 Zn 1.54527(3) 1.67097(3) 0.86785(3)
Zn1_3 Zn -0.45473(3) 0.67097(3) -0.13215(3)
Zn1A Zn 0.45473(3) 1.32903(3) 1.13215(3)
Zn1A_2 Zn 1.45473(3) 0.32903(3) 1.13215(3)
Zn2A Zn 0.21550(3) 0.09794(2) 0.34882(2)
Zn2_2 Zn -0.21550(3) -0.09794(2) 0.65118(2)
Zn2A_2 Zn 0.21550(3) 1.09794(2) 1.34882(2)
C1A C 0.1210(3) 0.5102(2) 0.2792(2)
C2A C 0.0316(3) 0.5365(2) 0.1862(2)
H1A H -0.0485 0.4829 0.1403
C3A C 0.0648(3) 0.6435(2) 0.1641(2)
C4A C 0.1873(3) 0.7240(2) 0.2308(2)
H2A H 0.2086 0.7965 0.2152
C5A C 0.2762(3) 0.6936(2) 0.3204(2)
C6A C 0.2444(3) 0.5875(2) 0.3469(2)
H3A H 0.3039 0.5685 0.4084
C7A C -0.0590(3) 0.3337(2) 0.2964(3)
H4A H -0.1541 0.3560 0.2818
C8A C -0.0372(3) 0.2325(2) 0.3151(2)
H5A H -0.1159 0.1718 0.3166
C9A C 0.1919(3) 0.3333(2) 0.3243(2)
H6A H 0.2995 0.3565 0.3325
C10A C 0.0218(3) 0.7620(3) 0.0166(2)
H7A H 0.1224 0.8051 0.0279
C11A C -0.1049(3) 0.7712(2) -0.0564(2)
H8A H -0.1064 0.8234 -0.1044
C12A C -0.1798(3) 0.6363(2) 0.0281(2)
H9A H -0.2412 0.5770 0.0502
C13A C 0.4758(3) 0.8725(2) 0.3539(2)
H10A H 0.4455 0.8977 0.2877
C14A C 0.5965(3) 0.9223(2) 0.4359(2)
H11A H 0.6652 0.9890 0.4360
C15A C 0.4858(3) 0.7723(2) 0.4876(2)
H12A H 0.4621 0.7158 0.5288
C16_2 C 1.3010(3) 1.3926(2) 0.6769(2)
C17_2 C 1.3465(3) 1.3278(2) 0.7548(2)
H13_2 H 1.4392 1.3540 0.8069
C18_2 C 1.2557(3) 1.2247(2) 0.7561(2)
H14_2 H 1.2876 1.1818 0.8089
C19_2 C 1.1168(3) 1.1847(2) 0.6789(2)
C20_2 C 1.0703(3) 1.2497(2) 0.6011(2)
H15_2 H 0.9771 1.2235 0.5495
C21_2 C 1.1602(3) 1.3528(2) 0.5992(2)
H16_2 H 1.1278 1.3959 0.5466
C22_2 C 1.3967(3) 1.5068(2) 0.6767(2)
C23_2 C 1.0202(3) 1.0724(2) 0.6828(3)
C24A C 0.4442(3) 1.0492(2) 1.0853(2)
C25A C 0.6010(4) 1.0504(3) 1.0963(3)
H17A H 0.6702 1.0846 1.1615
C26A C 0.3429(4) 0.9985(3) 0.9882(3)
H18A H 0.2365 0.9974 0.9797
C27A C 0.3843(3) 1.0995(2) 1.1795(2)
Cl1_2 Cl 1.36514(9) 1.65713(8) 0.96815(7)
N1A N 0.1208(2) 0.23218(17) 0.33196(17)
N2A N 0.0883(2) 0.39891(18) 0.30309(18)
N3A N -0.2317(3) 0.6920(2) -0.04959(18)
N3A_2 N 0.7683(3) 0.6920(2) 0.95041(18)
N3A_3 N 1.7683(3) 1.6920(2) 0.95041(18)
N4A N -0.0271(2) 0.67592(18) 0.07141(18)
N5A N 0.6033(2) 0.85956(18) 0.52004(18)
N6A N 0.4052(2) 0.77666(17) 0.38663(17)
O1_2 O 1.3638(3) 1.5593(2) 0.6020(2)
O2_2 O 1.5120(2) 1.54151(16) 0.75893(18)
O3_2 O 0.8910(2) 1.04087(17) 0.61212(17)
O3A O 0.1090(2) -0.04087(17) 0.38788(17)
O4_2 O 1.0634(3) 1.01530(19) 0.7523(2)
O5A O 0.4306(2) 1.20186(15) 1.21725(15)
O5_2 O 1.5694(2) 1.79814(15) 0.78275(15)
O6A O 0.2881(2) 1.03570(16) 1.21726(15)
O6A_2 O 0.2881(2) 0.03570(16) 0.21726(15)
loop_
_geom_bond_atom_site_label_1
_geom_bond_atom_site_label_2
_geom_bond_site_symmetry_1
_geom_bond_site_symmetry_2
Zn1 Cl1 1_555 1_555
Zn2 N1 1_555 1_555
C1 C2 1_555 1_555
C2 H1 1_555 1_555
C3 C2 1_555 1_555
C4 C3 1_555 1_555
H2 C4 1_555 1_555
C5 C4 1_555 1_555
C6 C1 1_555 1_555
H3 C6 1_555 1_555
C7 H4 1_555 1_555
C8 C7 1_555 1_555
H5 C8 1_555 1_555
C9 H6 1_555 1_555
C10 H7 1_555 1_555
C11 C10 1_555 1_555
H8 C11 1_555 1_555
C12 H9 1_555 1_555
C13 H10 1_555 1_555
C14 C13 1_555 1_555
H11 C14 1_555 1_555
C15 H12 1_555 1_555
C16 C17 1_555 1_555
C17 H13 1_555 1_555
C18 C17 1_555 1_555
H14 C18 1_555 1_555
C19 C18 1_555 1_555
C20 C19 1_555 1_555
H15 C20 1_555 1_555
C21 C16 1_555 1_555
H16 C21 1_555 1_555
C22 C16 1_555 1_555
C23 C19 1_555 1_555
C24 C25 1_555 1_555
C25 H17 1_555 1_555
C26 C24 1_555 1_555
H18 C26 1_555 1_555
C27 C24 1_555 1_555
N1 C8 1_555 1_555
N2 C1 1_555 1_555
N3 C11 1_555 1_555
N4 C3 1_555 1_555
N5 C14 1_555 1_555
N6 C5 1_555 1_555
O1 C22 1_555 1_555
O2 Zn1 1_555 1_555
O3 C23 1_555 1_555
O4 C23 1_555 1_555
O5 Zn1 1_555 1_555
O6 Zn2 1_555 1_555
Zn1_2 Cl1_2 1_555 1_555
Zn1_3 N3A 1_555 1_555
Zn1A O5A 1_555 1_555
Zn1A_2 N3 1_555 1_555
Zn2A N5 1_555 1_555
Zn2_2 O3 1_555 1_555
Zn2A_2 O6A 1_555 1_555
C1A C2A 1_555 1_555
C2A H1A 1_555 1_555
C3A C2A 1_555 1_555
C4A C3A 1_555 1_555
H2A C4A 1_555 1_555
C5A C4A 1_555 1_555
C6A C1A 1_555 1_555
H3A C6A 1_555 1_555
C7A H4A 1_555 1_555
C8A C7A 1_555 1_555
H5A C8A 1_555 1_555
C9A H6A 1_555 1_555
C10A H7A 1_555 1_555
C11A C10A 1_555 1_555
H8A C11A 1_555 1_555
C12A H9A 1_555 1_555
C13A H10A 1_555 1_555
C14A C13A 1_555 1_555
H11A C14A 1_555 1_555
C15A H12A 1_555 1_555
C16_2 C17_2 1_555 1_555
C17_2 H13_2 1_555 1_555
C18_2 C17_2 1_555 1_555
H14_2 C18_2 1_555 1_555
C19_2 C18_2 1_555 1_555
C20_2 C19_2 1_555 1_555
H15_2 C20_2 1_555 1_555
C21_2 C16_2 1_555 1_555
H16_2 C21_2 1_555 1_555
C22_2 C16_2 1_555 1_555
C23_2 C19_2 1_555 1_555
C24A C25A 1_555 1_555
C25A C26 1_555 1_555
H17A C25A 1_555 1_555
C26A C25 1_555 1_555
H18A C26A 1_555 1_555
C27A C24A 1_555 1_555
N1A Zn2A 1_555 1_555
N2A C1A 1_555 1_555
N3A C11A 1_555 1_555
N3A_2 Zn1 1_555 1_555
N3A_3 Zn1_2 1_555 1_555
N4A C3A 1_555 1_555
N5A Zn2 1_555 1_555
N6A C5A 1_555 1_555
O1_2 C22_2 1_555 1_555
O2_2 Zn1_2 1_555 1_555
O3_2 Zn2 1_555 1_555
O3A Zn2A 1_555 1_555
O4_2 C23_2 1_555 1_555
O5A C27A 1_555 1_555
O5_2 Zn1_2 1_555 1_555
O6A C27A 1_555 1_555
O6A_2 Zn2A 1_555 1_555
C5 C6 1_555 1_555
C7 N2 1_555 1_555
C9 N1 1_555 1_555
C9 N2 1_555 1_555
C10 N4 1_555 1_555
C12 N3 1_555 1_555
C12 N4 1_555 1_555
C13 N6 1_555 1_555
C15 N5 1_555 1_555
C15 N6 1_555 1_555
C20 C21 1_555 1_555
C22 O2 1_555 1_555
C27 O5 1_555 1_555
C27 O6 1_555 1_555
C5A C6A 1_555 1_555
C7A N2A 1_555 1_555
C8A N1A 1_555 1_555
C9A N1A 1_555 1_555
C9A N2A 1_555 1_555
C10A N4A 1_555 1_555
C12A N3A 1_555 1_555
C12A N4A 1_555 1_555
C13A N6A 1_555 1_555
C14A N5A 1_555 1_555
C15A N5A 1_555 1_555
C15A N6A 1_555 1_555
C20_2 C21_2 1_555 1_555
C22_2 O2_2 1_555 1_555
C23_2 O3_2 1_555 1_555
C24A C26A 1_555 1_555

#END
