
#######################################################################
#
#                 Cambridge Crystallographic Data Centre
#                                CCDC 
#
#######################################################################
#
# If this CIF has been generated from an entry in the Cambridge 
# Structural Database, then it will include bibliographic, chemical, 
# crystal, experimental, refinement or atomic coordinate data resulting 
# from the CCDC's data processing and validation procedures.
#
#######################################################################

data_CUYSOF
_symmetry_cell_setting           triclinic
_symmetry_space_group_name_H-M   'P -1'
_symmetry_Int_Tables_number      2
_space_group_name_Hall           '-P 1'
loop_
_symmetry_equiv_pos_site_id
_symmetry_equiv_pos_as_xyz
1 x,y,z
2 -x,-y,-z
_cell_length_a                   10.240(2)
_cell_length_b                   10.550(2)
_cell_length_c                   11.050(2)
_cell_angle_alpha                108.71(3)
_cell_angle_beta                 102.75(3)
_cell_angle_gamma                93.47(3)
_cell_volume                     1091.59
loop_
_atom_site_label
_atom_site_type_symbol
_atom_site_fract_x
_atom_site_fract_y
_atom_site_fract_z
Cu1 Cu 0.03688(6) 0.18979(6) 0.29141(5)
Cu2 Cu 0.13760(7) 0.08088(6) -0.22219(5)
S1 S 0.10223(14) 0.28194(12) -0.08274(11)
S2 S 0.15024(14) 0.02750(12) 0.33943(11)
N1 N -0.0665(3) 0.2942(3) 0.4084(3)
N2 N -0.1607(3) 0.3713(3) 0.5758(3)
N3 N -0.3373(3) 0.1312(3) 0.9944(3)
N4 N -0.2414(3) 0.0365(3) 1.1396(3)
N5 N 0.0651(4) 0.2212(4) 0.1366(4)
N6 N 0.1585(4) 0.0790(4) 0.6071(4)
C1 C -0.1411(4) 0.3957(4) 0.3892(4)
C2 C -0.1586(4) 0.4504(4) 0.2884(4)
H1 H -0.1201 0.4182 0.2176
C3 C -0.2355(4) 0.5542(4) 0.2981(4)
H2 H -0.2491 0.5927 0.2324
C4 C -0.2930(4) 0.6026(4) 0.4033(4)
H3 H -0.3438 0.6732 0.4065
C5 C -0.2772(4) 0.5493(4) 0.5032(4)
H4 H -0.3163 0.5819 0.5735
C6 C -0.2007(4) 0.4454(4) 0.4939(4)
C7 C -0.0823(4) 0.2845(4) 0.5204(4)
H5 H -0.0431 0.2237 0.5573
C8 C -0.1914(4) 0.3913(4) 0.7034(4)
H6 H -0.1713 0.4867 0.7559
H7 H -0.1334 0.3436 0.7502
C9 C -0.3370(4) 0.3419(4) 0.6894(4)
H8 H -0.3519 0.2438 0.6545
H9 H -0.3949 0.3740 0.6266
C10 C -0.3762(5) 0.3902(5) 0.8208(4)
H10 H -0.3520 0.4877 0.8590
H11 H -0.4737 0.3706 0.8030
C11 C -0.3120(5) 0.3291(4) 0.9232(4)
H12 H -0.2145 0.3431 0.9378
H13 H -0.3332 0.3756 1.0062
C12 C -0.3602(5) 0.1797(4) 0.8819(4)
H14 H -0.4560 0.1618 0.8384
H15 H -0.3130 0.1300 0.8186
C13 C -0.4080(4) 0.1594(4) 1.0910(4)
C14 C -0.5175(4) 0.2282(4) 1.1047(4)
H16 H -0.5570 0.2671 1.0436
C15 C -0.5644(5) 0.2359(5) 1.2132(4)
H17 H -0.6384 0.2806 1.2259
C16 C -0.5041(5) 0.1786(5) 1.3053(4)
H18 H -0.5386 0.1870 1.3782
C17 C -0.3955(4) 0.1101(4) 1.2914(4)
H19 H -0.3560 0.0719 1.3531
C18 C -0.3469(4) 0.1003(4) 1.1814(4)
C19 C -0.2420(4) 0.0579(4) 1.0273(4)
H20 H -0.1820 0.0251 0.9765
C20 C 0.0808(4) 0.2432(4) 0.0451(4)
C21 C 0.1543(4) 0.0596(4) 0.4975(4)
Cu2A Cu -0.13760(7) -0.08088(6) 1.22219(5)
Cu2_2 Cu 0.13760(7) 0.08088(6) 0.77781(5)
N4A N 0.2414(3) -0.0365(3) -0.1396(3)
N6_2 N 0.1585(4) 0.0790(4) -0.3929(4)
loop_
_geom_bond_atom_site_label_1
_geom_bond_atom_site_label_2
_geom_bond_site_symmetry_1
_geom_bond_site_symmetry_2
Cu1 S2 1_555 1_555
Cu2 S1 1_555 1_555
S1 C20 1_555 1_555
S2 C21 1_555 1_555
N1 Cu1 1_555 1_555
N2 C6 1_555 1_555
N3 C12 1_555 1_555
N4 C18 1_555 1_555
N5 Cu1 1_555 1_555
N6 C21 1_555 1_555
C1 N1 1_555 1_555
C2 C1 1_555 1_555
H1 C2 1_555 1_555
C3 C2 1_555 1_555
H2 C3 1_555 1_555
C4 C3 1_555 1_555
H3 C4 1_555 1_555
C5 C4 1_555 1_555
H4 C5 1_555 1_555
C6 C1 1_555 1_555
C7 N1 1_555 1_555
H5 C7 1_555 1_555
C8 N2 1_555 1_555
H6 C8 1_555 1_555
H7 C8 1_555 1_555
C9 C8 1_555 1_555
H8 C9 1_555 1_555
H9 C9 1_555 1_555
C10 C9 1_555 1_555
H10 C10 1_555 1_555
H11 C10 1_555 1_555
C11 C10 1_555 1_555
H12 C11 1_555 1_555
H13 C11 1_555 1_555
C12 C11 1_555 1_555
H14 C12 1_555 1_555
H15 C12 1_555 1_555
C13 N3 1_555 1_555
C14 C13 1_555 1_555
H16 C14 1_555 1_555
C15 C14 1_555 1_555
H17 C15 1_555 1_555
C16 C15 1_555 1_555
H18 C16 1_555 1_555
C17 C16 1_555 1_555
H19 C17 1_555 1_555
C18 C13 1_555 1_555
C19 N3 1_555 1_555
H20 C19 1_555 1_555
C20 N5 1_555 1_555
Cu2A N4 1_555 1_555
Cu2_2 N6 1_555 1_555
N4A Cu2 1_555 1_555
N6_2 Cu2 1_555 1_555
N2 C7 1_555 1_555
N4 C19 1_555 1_555
C5 C6 1_555 1_555
C17 C18 1_555 1_555

#END
