
#######################################################################
#
#                 Cambridge Crystallographic Data Centre
#                                CCDC 
#
#######################################################################
#
# If this CIF has been generated from an entry in the Cambridge 
# Structural Database, then it will include bibliographic, chemical, 
# crystal, experimental, refinement or atomic coordinate data resulting 
# from the CCDC's data processing and validation procedures.
#
#######################################################################

data_CUYYIF
_symmetry_cell_setting           triclinic
_symmetry_space_group_name_H-M   'P -1'
_symmetry_Int_Tables_number      2
_space_group_name_Hall           '-P 1'
loop_
_symmetry_equiv_pos_site_id
_symmetry_equiv_pos_as_xyz
1 x,y,z
2 -x,-y,-z
_cell_length_a                   9.0071(9)
_cell_length_b                   11.7465(11)
_cell_length_c                   16.1238(15)
_cell_angle_alpha                83.866(2)
_cell_angle_beta                 74.062(4)
_cell_angle_gamma                69.246(2)
_cell_volume                     1533.82
loop_
_atom_site_label
_atom_site_type_symbol
_atom_site_fract_x
_atom_site_fract_y
_atom_site_fract_z
C1 C 0.1732(6) 1.0435(4) 0.4078(3)
C2 C 0.2264(6) 0.9388(4) 0.4568(3)
H1 H 0.2760 0.9393 0.5002
C3 C 0.2039(5) 0.8357(4) 0.4395(3)
C4 C 0.1336(5) 0.8338(4) 0.3735(3)
H2 H 0.1221 0.7622 0.3614
C5 C 0.0812(5) 0.9371(4) 0.3262(3)
C6 C 0.0991(5) 1.0456(4) 0.3439(3)
H3 H 0.0615 1.1168 0.3130
C7 C 0.2172(6) 1.2432(4) 0.3681(3)
H4 H 0.2131 1.2492 0.3107
C8 C 0.2444(6) 1.3228(4) 0.4113(3)
H5 H 0.2620 1.3942 0.3880
C9 C 0.2140(6) 1.1793(4) 0.4999(3)
H6 H 0.2069 1.1312 0.5496
C10 C 0.3533(7) 0.7088(5) 0.5457(3)
H7 H 0.4074 0.7599 0.5530
C11 C 0.3592(7) 0.6021(4) 0.5862(3)
H8 H 0.4165 0.5674 0.6278
C12 C 0.2047(6) 0.6320(4) 0.5000(3)
H9 H 0.1358 0.6220 0.4699
C13 C -0.0857(6) 1.0359(4) 0.2201(3)
H10 H -0.1209 1.1167 0.2364
C14 C -0.1184(6) 0.9948(4) 0.1549(3)
H11 H -0.1801 1.0427 0.1182
C15 C 0.0302(6) 0.8407(4) 0.2126(3)
H12 H 0.0925 0.7613 0.2237
C16 C -0.5107(5) 1.1353(4) -0.2244(3)
C17 C -0.4515(6) 1.1831(4) -0.1699(3)
H13 H -0.4649 1.2656 -0.1727
C18 C -0.3727(6) 1.1078(4) -0.1116(3)
H14 H -0.3383 1.1407 -0.0735
C19 C -0.3449(5) 0.9853(4) -0.1094(3)
C20 C -0.4073(6) 0.9377(5) -0.1620(3)
H15 H -0.3936 0.8553 -0.1593
C21 C -0.4900(6) 1.0142(4) -0.2182(3)
H16 H -0.5328 0.9823 -0.2528
C22 C -0.5910(6) 1.2170(4) -0.2893(3)
C23 C -0.2441(5) 0.9026(4) -0.0526(3)
C24 C 0.7527(6) 0.5007(4) -0.2169(3)
C25 C 0.7207(6) 0.5667(5) -0.1439(3)
H17 H 0.8055 0.5826 -0.1305
C26 C 0.5625(6) 0.6094(4) -0.0905(3)
H18 H 0.5414 0.6540 -0.0417
C27 C 0.4376(6) 0.5854(4) -0.1101(3)
C28 C 0.4696(6) 0.5176(4) -0.1817(3)
H19 H 0.3856 0.4989 -0.1936
C29 C 0.6261(6) 0.4773(4) -0.2360(3)
H20 H 0.6460 0.4344 -0.2855
C30 C 0.9210(5) 0.4586(4) -0.2766(3)
C31 C 0.2661(6) 0.6344(4) -0.0542(3)
Cd1 Cd -0.04288(4) 0.76054(3) 0.04100(2)
Cd2 Cd 0.23017(4) 1.37672(3) 0.612850(19)
N1 N 0.2423(5) 1.2836(3) 0.4941(2)
N2 N 0.1971(5) 1.1520(3) 0.4254(2)
N3 N 0.2670(5) 0.5524(3) 0.5564(2)
N4 N 0.2529(5) 0.7285(3) 0.4916(2)
N5 N -0.0456(5) 0.8702(3) 0.1514(2)
N6 N 0.0090(5) 0.9373(3) 0.2584(2)
O1 O -0.5784(4) 1.3209(3) -0.3060(2)
O2 O -0.6718(4) 1.1791(3) -0.3258(2)
O3 O -0.2101(5) 0.9467(3) 0.0020(2)
O4 O -0.1910(5) 0.7882(3) -0.0637(2)
O5 O 1.0399(4) 0.4762(3) -0.25800(19)
O6 O 0.9447(4) 0.4050(3) -0.34522(19)
O7 O 0.2280(5) 0.7278(4) -0.0116(3)
O8 O 0.1633(4) 0.5841(3) -0.0527(2)
O9 O -0.1471(4) 0.6208(3) 0.1127(2)
Cd2_2 Cd 0.23017(4) 0.37672(3) 0.612850(19)
Cd2_3 Cd -0.76983(4) 1.37672(3) -0.387150(19)
Cd2_4 Cd 1.23017(4) 0.37672(3) -0.387150(19)
N3_2 N 0.2670(5) 1.5524(3) 0.5564(2)
O1_2 O 0.4216(4) 1.3209(3) 0.6940(2)
O2_2 O 0.3282(4) 1.1791(3) 0.6742(2)
O5_2 O 0.0399(4) 1.4762(3) 0.74200(19)
O6_2 O -0.0553(4) 1.4050(3) 0.65478(19)
O10 O 0.9702(6) 0.2863(3) 0.2292(2)
O11 O 0.4065(7) 0.9579(5) 0.6020(4)
loop_
_geom_bond_atom_site_label_1
_geom_bond_atom_site_label_2
_geom_bond_site_symmetry_1
_geom_bond_site_symmetry_2
C1 C2 1_555 1_555
C2 H1 1_555 1_555
C3 C2 1_555 1_555
C4 C3 1_555 1_555
H2 C4 1_555 1_555
C5 C4 1_555 1_555
C6 C1 1_555 1_555
H3 C6 1_555 1_555
C7 H4 1_555 1_555
C8 C7 1_555 1_555
H5 C8 1_555 1_555
C9 H6 1_555 1_555
C10 H7 1_555 1_555
C11 C10 1_555 1_555
H8 C11 1_555 1_555
C12 H9 1_555 1_555
C13 H10 1_555 1_555
C14 C13 1_555 1_555
H11 C14 1_555 1_555
C15 H12 1_555 1_555
C16 C17 1_555 1_555
C17 H13 1_555 1_555
C18 C17 1_555 1_555
H14 C18 1_555 1_555
C19 C18 1_555 1_555
C20 C19 1_555 1_555
H15 C20 1_555 1_555
C21 C16 1_555 1_555
H16 C21 1_555 1_555
C22 C16 1_555 1_555
C23 C19 1_555 1_555
C24 C25 1_555 1_555
C25 H17 1_555 1_555
C26 C25 1_555 1_555
H18 C26 1_555 1_555
C27 C26 1_555 1_555
C28 C27 1_555 1_555
H19 C28 1_555 1_555
C29 C24 1_555 1_555
H20 C29 1_555 1_555
C30 C24 1_555 1_555
C31 C27 1_555 1_555
Cd1 N5 1_555 1_555
Cd2 N1 1_555 1_555
N1 C8 1_555 1_555
N2 C1 1_555 1_555
N3 C11 1_555 1_555
N4 C3 1_555 1_555
N5 C14 1_555 1_555
N6 C5 1_555 1_555
O1 C22 1_555 1_555
O2 C22 1_555 1_555
O3 C23 1_555 1_555
O4 C23 1_555 1_555
O5 C30 1_555 1_555
O6 C30 1_555 1_555
O7 C31 1_555 1_555
O8 C31 1_555 1_555
O9 Cd1 1_555 1_555
Cd2_2 N3 1_555 1_555
Cd2_3 O1 1_555 1_555
Cd2_4 O5 1_555 1_555
N3_2 Cd2 1_555 1_555
O1_2 Cd2 1_555 1_555
O2_2 Cd2 1_555 1_555
O5_2 Cd2 1_555 1_555
O6_2 Cd2 1_555 1_555
C5 C6 1_555 1_555
C7 N2 1_555 1_555
C9 N1 1_555 1_555
C9 N2 1_555 1_555
C10 N4 1_555 1_555
C12 N3 1_555 1_555
C12 N4 1_555 1_555
C13 N6 1_555 1_555
C15 N5 1_555 1_555
C15 N6 1_555 1_555
C20 C21 1_555 1_555
C28 C29 1_555 1_555
Cd1 O3 1_555 1_555
Cd1 O4 1_555 1_555
Cd1 O7 1_555 1_555
Cd1 O8 1_555 1_555
O2 Cd2_3 1_555 1_555
O6 Cd2_4 1_555 1_555

#END
