
#######################################################################
#
#                 Cambridge Crystallographic Data Centre
#                                CCDC 
#
#######################################################################
#
# If this CIF has been generated from an entry in the Cambridge 
# Structural Database, then it will include bibliographic, chemical, 
# crystal, experimental, refinement or atomic coordinate data resulting 
# from the CCDC's data processing and validation procedures.
#
#######################################################################

data_CUZBUV
_symmetry_cell_setting           monoclinic
_symmetry_space_group_name_H-M   'C 2/c'
_symmetry_Int_Tables_number      15
_space_group_name_Hall           '-C 2yn'
loop_
_symmetry_equiv_pos_site_id
_symmetry_equiv_pos_as_xyz
1 x,y,z
2 -x,y,1/2-z
3 1/2+x,1/2+y,z
4 1/2-x,1/2+y,1/2-z
5 -x,-y,-z
6 x,-y,1/2+z
7 1/2-x,1/2-y,-z
8 1/2+x,1/2-y,1/2+z
_cell_length_a                   27.8361(10)
_cell_length_b                   15.6707(6)
_cell_length_c                   30.6046(12)
_cell_angle_alpha                90
_cell_angle_beta                 112.593(2)
_cell_angle_gamma                90
_cell_volume                     12325.5
loop_
_atom_site_label
_atom_site_type_symbol
_atom_site_fract_x
_atom_site_fract_y
_atom_site_fract_z
Mn1 Mn 0.16147(4) 0.82071(6) 0.14787(3)
Mn2 Mn 0.11325(4) 0.63699(6) 0.10365(4)
Mn3 Mn 0.03982(4) 0.80879(6) 0.07648(4)
O1 O 0.10423(17) 0.7544(3) 0.10835(15)
O2 O -0.02339(18) 0.8620(3) 0.04227(17)
C1 C -0.0695(3) 0.8285(4) 0.0215(2)
O3 O 0.04533(18) 0.6289(3) 0.05706(17)
C2 C -0.0781(3) 0.7418(5) 0.0069(3)
C3 C -0.1300(3) 0.7172(6) -0.0195(3)
H1 H -0.1366 0.6603 -0.0310
C4 C -0.1705(3) 0.7711(6) -0.0290(4)
H2 H -0.2048 0.7523 -0.0473
C5 C -0.1619(3) 0.8545(5) -0.0121(3)
H3 H -0.1904 0.8921 -0.0177
C6 C -0.1123(3) 0.8818(5) 0.0127(3)
H4 H -0.1067 0.9387 0.0243
C7 C -0.0361(3) 0.6777(4) 0.0187(2)
N1 N 0.0098(2) 0.6963(3) 0.04782(19)
C8 C -0.0479(3) 0.5883(5) -0.0001(3)
H5 H -0.0181 0.5663 -0.0068
H6 H -0.0787 0.5892 -0.0302
C9 C -0.0584(4) 0.5278(6) 0.0344(4)
H7 H -0.0649 0.4702 0.0208
H8 H -0.0890 0.5476 0.0400
H9 H -0.0281 0.5267 0.0644
O4 O 0.11109(19) 0.5196(3) 0.11154(18)
C10 C 0.1464(3) 0.4667(4) 0.1393(2)
O5 O 0.20178(17) 0.7204(3) 0.17233(16)
C11 C 0.1940(3) 0.4891(4) 0.1743(2)
C12 C 0.2269(3) 0.4235(5) 0.2004(3)
H10 H 0.2598 0.4386 0.2238
C13 C 0.2138(4) 0.3387(5) 0.1938(3)
H11 H 0.2370 0.2959 0.2121
C14 C 0.1662(4) 0.3176(5) 0.1602(3)
H12 H 0.1561 0.2594 0.1557
C15 C 0.1330(3) 0.3787(5) 0.1331(3)
H13 H 0.1004 0.3621 0.1097
C16 C 0.2105(3) 0.5795(4) 0.1848(2)
N2 N 0.1804(2) 0.6397(3) 0.15977(19)
C17 C 0.2613(3) 0.6000(4) 0.2236(3)
H14 H 0.2684 0.5584 0.2497
H15 H 0.2597 0.6576 0.2361
C18 C 0.3054(3) 0.5966(6) 0.2049(3)
H16 H 0.3386 0.6102 0.2306
H17 H 0.2985 0.6382 0.1793
H18 H 0.3072 0.5392 0.1929
O6 O 0.21552(17) 0.8872(3) 0.18792(16)
C19 C 0.2301(3) 0.9624(4) 0.1765(2)
O7 O 0.06845(17) 0.9174(3) 0.10259(16)
C20 C 0.1944(3) 1.0226(4) 0.1470(2)
C21 C 0.2148(3) 1.1007(5) 0.1402(3)
H19 H 0.1918 1.1419 0.1202
C22 C 0.2663(3) 1.1203(5) 0.1611(3)
H20 H 0.2783 1.1750 0.1565
C23 C 0.3009(3) 1.0608(5) 0.1887(3)
H21 H 0.3370 1.0735 0.2025
C24 C 0.2826(3) 0.9818(5) 0.1963(3)
H22 H 0.3066 0.9407 0.2154
C25 C 0.1382(3) 1.0060(4) 0.1246(2)
N3 N 0.1216(2) 0.9271(3) 0.12165(19)
C26 C 0.0998(3) 1.0771(4) 0.1083(3)
H23 H 0.0688 1.0576 0.0810
H24 H 0.1155 1.1254 0.0976
C27 C 0.0834(4) 1.1065(6) 0.1471(3)
H25 H 0.0583 1.1532 0.1354
H26 H 0.1140 1.1267 0.1739
H27 H 0.0673 1.0589 0.1573
N4 N -0.0026(2) 0.7977(3) 0.3662(2)
C28 C 0.0079(3) 0.7285(5) 0.3466(3)
H28 H -0.0041 0.6752 0.3532
C29 C 0.0349(4) 0.7285(5) 0.3174(3)
H29 H 0.0409 0.6764 0.3044
C30 C 0.0535(3) 0.8052(4) 0.3069(2)
C31 C 0.0435(3) 0.8757(5) 0.3273(3)
H30 H 0.0557 0.9297 0.3217
C32 C 0.0154(3) 0.8705(5) 0.3567(3)
H31 H 0.0091 0.9215 0.3705
C33 C 0.0815(3) 0.8091(4) 0.2745(2)
C34 C 0.0991(4) 0.7372(5) 0.2595(3)
H32 H 0.0946 0.6828 0.2710
C35 C 0.1231(4) 0.7433(5) 0.2279(3)
H33 H 0.1352 0.6923 0.2189
N5 N 0.1304(2) 0.8165(3) 0.2092(2)
C36 C 0.1150(3) 0.8857(5) 0.2248(3)
H34 H 0.1210 0.9393 0.2133
C37 C 0.0909(3) 0.8855(5) 0.2566(3)
H35 H 0.0807 0.9378 0.2662
N6 N 0.3455(2) 0.8674(4) -0.0540(2)
C38 C 0.3048(4) 0.9152(9) -0.0607(4)
H36 H 0.2938 0.9527 -0.0872
C39 C 0.2765(4) 0.9152(9) -0.0321(4)
H37 H 0.2469 0.9509 -0.0393
C40 C 0.3364(3) 0.8176(6) 0.0151(3)
H38 H 0.3501 0.7819 0.0422
C41 C 0.2921(3) 0.8624(4) 0.0071(2)
C42 C 0.3616(3) 0.8231(6) -0.0153(3)
H39 H 0.3932 0.7922 -0.0075
C43 C 0.2619(3) 0.8565(4) 0.0381(2)
C44 C 0.2134(3) 0.8918(5) 0.0249(3)
H40 H 0.1988 0.9235 -0.0036
C45 C 0.1860(3) 0.8805(5) 0.0538(3)
H41 H 0.1526 0.9060 0.0444
N7 N 0.2034(2) 0.8364(4) 0.0937(2)
C46 C 0.2500(4) 0.8041(6) 0.1059(3)
H42 H 0.2641 0.7739 0.1350
C47 C 0.2794(4) 0.8109(7) 0.0799(3)
H43 H 0.3125 0.7840 0.0904
O8 O 0.05749(19) 0.8360(3) 0.00895(17)
C48 C 0.0467(4) 0.9242(5) -0.0097(3)
H44 H 0.0553 0.9293 -0.0378
H45 H 0.0679 0.9643 0.0146
H46 H 0.0098 0.9371 -0.0182
Mn2F Mn 0.38675(4) 0.86301(6) -0.10365(4)
Mn3A Mn -0.03982(4) 0.80879(6) 0.42352(4)
N4A N 0.0026(2) 0.7977(3) 0.1338(2)
N6F N 0.1545(2) 0.6326(4) 0.0540(2)
O9 O 0.0303(3) 0.7595(5) -0.0750(3)
H47 H 0.0055 0.7858 -0.0720
C49 C 0.0131(5) 0.6831(9) -0.0979(5)
H48 H 0.0373 0.6622 -0.1118
H49 H -0.0215 0.6908 -0.1229
H50 H 0.0109 0.6415 -0.0748
C50 C -0.3106(6) 0.8833(9) -0.0615(5)
H51 H -0.3377 0.9240 -0.0623
H52 H -0.2898 0.9075 -0.0780
H53 H -0.2880 0.8715 -0.0285
C51 C -0.3343(5) 0.8059(8) -0.0840(5)
H54 H -0.3559 0.7826 -0.0676
H55 H -0.3576 0.8185 -0.1171
O10 O -0.2990(3) 0.7456(5) -0.0842(3)
C52 C -0.3164(4) 0.6651(7) -0.1029(4)
H56 H -0.3393 0.6724 -0.1366
H57 H -0.3381 0.6420 -0.0865
C53 C -0.2784(5) 0.6029(8) -0.1003(5)
H58 H -0.2957 0.5492 -0.1140
H59 H -0.2555 0.5937 -0.0671
H60 H -0.2577 0.6228 -0.1179
Cl1 Cl -0.10466(10) 1.10143(16) 0.12220(9)
O11 O -0.1032(3) 1.0690(5) 0.1653(3)
O12 O -0.1114(5) 1.1875(8) 0.1180(4)
O13 O -0.1314(5) 1.0517(8) 0.0838(4)
O14 O -0.0511(4) 1.0941(6) 0.1250(3)
O15 O 0.0626(6) 0.5086(11) 0.1979(6)
H61 H 0.0457 0.4645 0.1855
C54 C 0.0472(8) 0.5348(13) 0.2287(7)
H62 H 0.0689 0.5136 0.2603
H63 H 0.0111 0.5165 0.2206
H64 H 0.0487 0.5972 0.2284
loop_
_geom_bond_atom_site_label_1
_geom_bond_atom_site_label_2
_geom_bond_site_symmetry_1
_geom_bond_site_symmetry_2
Mn1 O1 1_555 1_555
Mn2 O1 1_555 1_555
Mn3 O1 1_555 1_555
O2 Mn3 1_555 1_555
C1 O2 1_555 1_555
O3 Mn2 1_555 1_555
C2 C1 1_555 1_555
C3 C2 1_555 1_555
H1 C3 1_555 1_555
C4 C3 1_555 1_555
H2 C4 1_555 1_555
C5 C4 1_555 1_555
H3 C5 1_555 1_555
C6 C1 1_555 1_555
H4 C6 1_555 1_555
C7 C2 1_555 1_555
N1 Mn3 1_555 1_555
C8 C7 1_555 1_555
H5 C8 1_555 1_555
H6 C8 1_555 1_555
C9 C8 1_555 1_555
H7 C9 1_555 1_555
H8 C9 1_555 1_555
H9 C9 1_555 1_555
O4 Mn2 1_555 1_555
C10 O4 1_555 1_555
O5 Mn1 1_555 1_555
C11 C10 1_555 1_555
C12 C11 1_555 1_555
H10 C12 1_555 1_555
C13 C12 1_555 1_555
H11 C13 1_555 1_555
C14 C13 1_555 1_555
H12 C14 1_555 1_555
C15 C10 1_555 1_555
H13 C15 1_555 1_555
C16 C11 1_555 1_555
N2 Mn2 1_555 1_555
C17 C16 1_555 1_555
H14 C17 1_555 1_555
H15 C17 1_555 1_555
C18 C17 1_555 1_555
H16 C18 1_555 1_555
H17 C18 1_555 1_555
H18 C18 1_555 1_555
O6 Mn1 1_555 1_555
C19 O6 1_555 1_555
O7 Mn3 1_555 1_555
C20 C19 1_555 1_555
C21 C20 1_555 1_555
H19 C21 1_555 1_555
C22 C21 1_555 1_555
H20 C22 1_555 1_555
C23 C22 1_555 1_555
H21 C23 1_555 1_555
C24 C19 1_555 1_555
H22 C24 1_555 1_555
C25 C20 1_555 1_555
N3 Mn1 1_555 1_555
C26 C25 1_555 1_555
H23 C26 1_555 1_555
H24 C26 1_555 1_555
C27 C26 1_555 1_555
H25 C27 1_555 1_555
H26 C27 1_555 1_555
H27 C27 1_555 1_555
N4 C28 1_555 1_555
C28 H28 1_555 1_555
C29 C28 1_555 1_555
H29 C29 1_555 1_555
C30 C29 1_555 1_555
C31 C30 1_555 1_555
H30 C31 1_555 1_555
C32 N4 1_555 1_555
H31 C32 1_555 1_555
C33 C30 1_555 1_555
C34 C33 1_555 1_555
H32 C34 1_555 1_555
C35 C34 1_555 1_555
H33 C35 1_555 1_555
N5 Mn1 1_555 1_555
C36 N5 1_555 1_555
H34 C36 1_555 1_555
C37 C33 1_555 1_555
H35 C37 1_555 1_555
N6 C38 1_555 1_555
C38 H36 1_555 1_555
C39 C38 1_555 1_555
H37 C39 1_555 1_555
C40 H38 1_555 1_555
C41 C39 1_555 1_555
C42 N6 1_555 1_555
H39 C42 1_555 1_555
C43 C41 1_555 1_555
C44 C43 1_555 1_555
H40 C44 1_555 1_555
C45 C44 1_555 1_555
H41 C45 1_555 1_555
N7 Mn1 1_555 1_555
C46 N7 1_555 1_555
H42 C46 1_555 1_555
C47 C43 1_555 1_555
H43 C47 1_555 1_555
O8 Mn3 1_555 1_555
C48 O8 1_555 1_555
H44 C48 1_555 1_555
H45 C48 1_555 1_555
H46 C48 1_555 1_555
O9 H47 1_555 1_555
C49 O9 1_555 1_555
H48 C49 1_555 1_555
H49 C49 1_555 1_555
H50 C49 1_555 1_555
C50 H51 1_555 1_555
H52 C50 1_555 1_555
H53 C50 1_555 1_555
C51 C50 1_555 1_555
H54 C51 1_555 1_555
H55 C51 1_555 1_555
O10 C51 1_555 1_555
C52 O10 1_555 1_555
H56 C52 1_555 1_555
H57 C52 1_555 1_555
C53 C52 1_555 1_555
H58 C53 1_555 1_555
H59 C53 1_555 1_555
H60 C53 1_555 1_555
Cl1 O11 1_555 1_555
O12 Cl1 1_555 1_555
O13 Cl1 1_555 1_555
O14 Cl1 1_555 1_555
O15 H61 1_555 1_555
C54 O15 1_555 1_555
H62 C54 1_555 1_555
H63 C54 1_555 1_555
H64 C54 1_555 1_555
Mn2F N6 1_555 1_555
Mn3A N4 1_555 1_555
N4A Mn3 1_555 1_555
N6F Mn2 1_555 1_555
O3 N1 1_555 1_555
C5 C6 1_555 1_555
C7 N1 1_555 1_555
O5 N2 1_555 1_555
C14 C15 1_555 1_555
C16 N2 1_555 1_555
O7 N3 1_555 1_555
C23 C24 1_555 1_555
C25 N3 1_555 1_555
C31 C32 1_555 1_555
C35 N5 1_555 1_555
C36 C37 1_555 1_555
C40 C41 1_555 1_555
C40 C42 1_555 1_555
C45 N7 1_555 1_555
C46 C47 1_555 1_555

#END
