
#######################################################################
#
#                 Cambridge Crystallographic Data Centre
#                                CCDC 
#
#######################################################################
#
# If this CIF has been generated from an entry in the Cambridge 
# Structural Database, then it will include bibliographic, chemical, 
# crystal, experimental, refinement or atomic coordinate data resulting 
# from the CCDC's data processing and validation procedures.
#
#######################################################################

data_CUZJOX
_symmetry_cell_setting           cubic
_symmetry_space_group_name_H-M   'I 2 3'
_symmetry_Int_Tables_number      197
_space_group_name_Hall           'I 2 2 3'
loop_
_symmetry_equiv_pos_site_id
_symmetry_equiv_pos_as_xyz
1 x,y,z
2 -x,-y,z
3 -x,y,-z
4 x,-y,-z
5 z,x,y
6 z,-x,-y
7 -z,-x,y
8 -z,x,-y
9 y,z,x
10 -y,z,-x
11 y,-z,-x
12 -y,-z,x
13 1/2+x,1/2+y,1/2+z
14 1/2-x,1/2-y,1/2+z
15 1/2-x,1/2+y,1/2-z
16 1/2+x,1/2-y,1/2-z
17 1/2+z,1/2+x,1/2+y
18 1/2+z,1/2-x,1/2-y
19 1/2-z,1/2-x,1/2+y
20 1/2-z,1/2+x,1/2-y
21 1/2+y,1/2+z,1/2+x
22 1/2-y,1/2+z,1/2-x
23 1/2+y,1/2-z,1/2-x
24 1/2-y,1/2-z,1/2+x
_cell_length_a                   13.9985(3)
_cell_length_b                   13.9985(3)
_cell_length_c                   13.9985(3)
_cell_angle_alpha                90
_cell_angle_beta                 90
_cell_angle_gamma                90
_cell_volume                     2743.12
loop_
_atom_site_label
_atom_site_type_symbol
_atom_site_fract_x
_atom_site_fract_y
_atom_site_fract_z
Sn1 Sn 0.110981(14) 0.110981(14) 0.110981(14)
Rb1 Rb 0.27953(2) 0.27953(2) 0.27953(2)
O1 O 0.26658(14) 0.12970(15) 0.11748(15)
C1 C 0.4022(2) 0.1377(2) 0.0161(2)
C2 C 0.2959(2) 0.1389(3) 0.0318(2)
C3 C 0.4635(3) 0.1355(5) 0.0898(3)
H1 H 0.4402 0.1333 0.1520
O2 O 0.24218(18) 0.1474(3) -0.03640(19)
C4 C 0.4391(3) 0.1366(5) -0.0738(3)
H2 H 0.3978 0.1366 -0.1258
Sn1B Sn 0.889019(14) 0.110981(14) -0.110981(14)
Sn1A Sn -0.110981(14) 0.889019(14) 0.110981(14)
Sn1C Sn 0.110981(14) -0.110981(14) 0.889019(14)
Rb1B Rb 0.72047(2) 0.27953(2) -0.27953(2)
Rb1M Rb 0.22047(2) 0.22047(2) -0.22047(2)
Rb1O Rb 0.77953(2) 0.22047(2) 0.22047(2)
Rb1O_2 Rb -0.22047(2) 0.22047(2) 0.22047(2)
Rb1A Rb -0.27953(2) 0.72047(2) 0.27953(2)
Rb1N Rb 0.22047(2) 0.77953(2) 0.22047(2)
Rb1N_2 Rb 0.22047(2) -0.22047(2) 0.22047(2)
Rb1C Rb 0.27953(2) -0.27953(2) 0.72047(2)
Rb1M_2 Rb 0.22047(2) 0.22047(2) 0.77953(2)
O1B O 0.73342(14) 0.12970(15) -0.11748(15)
O1D O 0.11748(15) 0.26658(14) 0.12970(15)
O1F O -0.11748(15) 0.73342(14) 0.12970(15)
O1H O 0.12970(15) 0.11748(15) 0.26658(14)
O1J O 0.12970(15) -0.11748(15) 0.73342(14)
O1G O 0.88252(15) 0.26658(14) -0.12970(15)
O1I O 0.87030(15) 0.11748(15) -0.26658(14)
C1B C 0.5978(2) 0.1377(2) -0.0161(2)
C1D C 0.0161(2) 0.4022(2) 0.1377(2)
C1F C -0.0161(2) 0.5978(2) 0.1377(2)
C1H C 0.1377(2) 0.0161(2) 0.4022(2)
C1J C 0.1377(2) -0.0161(2) 0.5978(2)
C2B C 0.7041(2) 0.1389(3) -0.0318(2)
C2D C 0.0318(2) 0.2959(2) 0.1389(3)
C2F C -0.0318(2) 0.7041(2) 0.1389(3)
C2H C 0.1389(3) 0.0318(2) 0.2959(2)
C2J C 0.1389(3) -0.0318(2) 0.7041(2)
C3B C 0.5365(3) 0.1355(5) -0.0898(3)
C3D C 0.0898(3) 0.4635(3) 0.1355(5)
C3F C -0.0898(3) 0.5365(3) 0.1355(5)
C3H C 0.1355(5) 0.0898(3) 0.4635(3)
C3J C 0.1355(5) -0.0898(3) 0.5365(3)
H1B H 0.5598 0.1333 -0.1520
H1D H 0.1520 0.4402 0.1333
H1F H -0.1520 0.5598 0.1333
H1H H 0.1333 0.1520 0.4402
H1J H 0.1333 -0.1520 0.5598
O2B O 0.75782(18) 0.1474(3) 0.03640(19)
O2D O -0.03640(19) 0.24218(18) 0.1474(3)
O2F O 0.03640(19) 0.75782(18) 0.1474(3)
O2H O 0.1474(3) -0.03640(19) 0.24218(18)
O2J O 0.1474(3) 0.03640(19) 0.75782(18)
O2M O 0.25782(18) 0.3526(3) 0.46360(19)
O2Q O 0.46360(19) 0.25782(18) 0.3526(3)
O2U O 0.3526(3) 0.46360(19) 0.25782(18)
O2O O 0.74218(18) 0.3526(3) -0.46360(19)
O2R O 0.53640(19) 0.25782(18) -0.3526(3)
O2T O 0.6474(3) 0.46360(19) -0.25782(18)
C4B C 0.5609(3) 0.1366(5) 0.0738(3)
C4D C -0.0738(3) 0.4391(3) 0.1366(5)
C4F C 0.0738(3) 0.5609(3) 0.1366(5)
C4H C 0.1366(5) -0.0738(3) 0.4391(3)
C4J C 0.1366(5) 0.0738(3) 0.5609(3)
H2B H 0.6022 0.1366 0.1258
H2D H -0.1258 0.3978 0.1366
H2F H 0.1258 0.6022 0.1366
H2H H 0.1366 -0.1258 0.3978
H2J H 0.1366 0.1258 0.6022
loop_
_geom_bond_atom_site_label_1
_geom_bond_atom_site_label_2
_geom_bond_site_symmetry_1
_geom_bond_site_symmetry_2
Sn1 O1 1_555 1_555
Rb1 O1 1_555 1_555
O1 C2 1_555 1_555
C1 C2 1_555 1_555
C2 O2 1_555 1_555
C3 C1 1_555 1_555
H1 C3 1_555 1_555
O2 Rb1M 1_555 1_555
C4 C1 1_555 1_555
H2 C4 1_555 1_555
Sn1B O1B 1_555 1_555
Sn1A O1F 1_555 1_555
Sn1C O1J 1_555 1_555
Rb1B O1B 1_555 1_555
Rb1O O2B 1_555 1_555
Rb1O_2 O2D 1_555 1_555
Rb1A O1F 1_555 1_555
Rb1N O2F 1_555 1_555
Rb1N_2 O2H 1_555 1_555
Rb1C O1J 1_555 1_555
Rb1M_2 O2J 1_555 1_555
O1B C2B 1_555 1_555
O1D Sn1 1_555 1_555
O1F C2F 1_555 1_555
O1H Sn1 1_555 1_555
O1J C2J 1_555 1_555
O1G Sn1B 1_555 1_555
O1I Sn1B 1_555 1_555
C1B C2B 1_555 1_555
C1D C2D 1_555 1_555
C1F C2F 1_555 1_555
C1H C2H 1_555 1_555
C1J C2J 1_555 1_555
C2B O2B 1_555 1_555
C2D O1D 1_555 1_555
C2F O2F 1_555 1_555
C2H O1H 1_555 1_555
C2J O2J 1_555 1_555
C3B C4 1_555 1_555
C3D C1D 1_555 1_555
C3F C1F 1_555 1_555
C3H C1H 1_555 1_555
C3J C1J 1_555 1_555
H1B C3B 1_555 1_555
H1D C3D 1_555 1_555
H1F C3F 1_555 1_555
H1H C3H 1_555 1_555
H1J C3J 1_555 1_555
O2D C2D 1_555 1_555
O2H C2H 1_555 1_555
O2M Rb1 1_555 1_555
O2Q Rb1 1_555 1_555
O2U Rb1 1_555 1_555
O2O Rb1B 1_555 1_555
O2R Rb1B 1_555 1_555
O2T Rb1B 1_555 1_555
C4B C3 1_555 1_555
C4D C1D 1_555 1_555
C4F C1F 1_555 1_555
C4H C1H 1_555 1_555
C4J C1J 1_555 1_555
H2B C4B 1_555 1_555
H2D C4D 1_555 1_555
H2F C4F 1_555 1_555
H2H C4H 1_555 1_555
H2J C4J 1_555 1_555
Rb1 O1D 1_555 1_555
Rb1 O1H 1_555 1_555
Rb1B O1G 1_555 1_555
Rb1B O1I 1_555 1_555
C1B C3B 1_555 1_555
C1B C4B 1_555 1_555
C3D C4F 1_555 1_555
C3F C4D 1_555 1_555
C3H C4J 1_555 1_555
C3J C4H 1_555 1_555

#END
