
#######################################################################
#
#                 Cambridge Crystallographic Data Centre
#                                CCDC 
#
#######################################################################
#
# If this CIF has been generated from an entry in the Cambridge 
# Structural Database, then it will include bibliographic, chemical, 
# crystal, experimental, refinement or atomic coordinate data resulting 
# from the CCDC's data processing and validation procedures.
#
#######################################################################

data_CUZKAK
_symmetry_cell_setting           orthorhombic
_symmetry_space_group_name_H-M   'P m m n'
_symmetry_Int_Tables_number      59
_space_group_name_Hall           '-P 2ab 2a'
loop_
_symmetry_equiv_pos_site_id
_symmetry_equiv_pos_as_xyz
1 x,y,z
2 1/2-x,1/2-y,z
3 1/2+x,-y,-z
4 -x,1/2+y,-z
5 -x,-y,-z
6 1/2+x,1/2+y,-z
7 1/2-x,y,z
8 x,1/2-y,z
_cell_length_a                   15.097(3)
_cell_length_b                   32.092(6)
_cell_length_c                   14.403(3)
_cell_angle_alpha                90
_cell_angle_beta                 90
_cell_angle_gamma                90
_cell_volume                     6978.15
loop_
_atom_site_label
_atom_site_type_symbol
_atom_site_fract_x
_atom_site_fract_y
_atom_site_fract_z
O10 O 1.0460(10) 0.0611(5) 0.3231(13)
O12 O 0.932(3) 0.0097(9) 0.434(2)
O13 O 0.7500 0.1897(12) 0.326(4)
C1 C 0.8454(11) 0.0927(5) 0.2559(11)
H1 H 0.9086 0.0932 0.2482
H2 H 0.8285 0.0674 0.2868
H3 H 0.8271 0.1162 0.2923
C2 C 0.8017(9) 0.0945(4) 0.1625(10)
C3 C 0.7500 0.0348(5) 0.0791(13)
C4 C 0.7500 0.1564(7) 0.0894(15)
C5 C 0.9106(10) 0.0429(5) 0.0883(12)
H4 H 0.9459 0.0481 0.1433
H5 H 0.9081 0.0129 0.0796
C6 C 0.9131(10) 0.1496(4) 0.1016(10)
H6 H 0.9101 0.1798 0.1020
H7 H 0.9484 0.1411 0.1545
C7 C 1.0815(12) 0.0958(5) 0.0854(12)
H8 H 1.0547 0.0973 0.1458
H9 H 1.1206 0.1191 0.0771
H10 H 1.1144 0.0703 0.0801
C8 C 1.0086(11) 0.0969(5) 0.0104(11)
C9 C 1.0416(10) 0.0988(5) -0.0944(11)
C10 C 1.1429(9) 0.0969(6) -0.1055(13)
H11 H 1.1644 0.0710 -0.0810
H12 H 1.1695 0.1196 -0.0724
H13 H 1.1580 0.0988 -0.1701
C11 C 0.9452(10) 0.0425(5) -0.0760(11)
C12 C 0.9635(10) 0.1617(5) -0.0598(12)
C13 C 1.0079(11) 0.0508(5) -0.2315(11)
H14 H 1.0010 0.0208 -0.2334
H15 H 1.0679 0.0572 -0.2509
C14 C 1.0241(11) 0.1567(4) -0.2192(12)
H16 H 1.0267 0.1869 -0.2157
H17 H 1.0813 0.1470 -0.2409
C15 C 0.9621(11) 0.1094(4) -0.3454(10)
C16 C 1.0492(12) 0.1079(5) -0.4008(12)
H18 H 1.0621 0.1351 -0.4250
H19 H 1.0432 0.0886 -0.4512
H20 H 1.0964 0.0991 -0.3608
C17 C 0.8748(11) 0.1135(4) -0.4070(10)
C18 C 0.8916(13) 0.1214(6) -0.5100(10)
H21 H 0.8363 0.1209 -0.5430
H22 H 0.9299 0.1002 -0.5341
H23 H 0.9190 0.1482 -0.5178
C19 C 0.8728(10) 0.0488(5) -0.3282(11)
C20 C 0.8794(11) 0.1665(5) -0.2949(11)
C21 C 0.7500 0.1682(7) -0.3941(16)
H24 H 0.7500 0.1967 -0.3717
H25 H 0.7500 0.1690 -0.4614
C22 C 0.7500 0.0602(7) -0.4374(16)
H26 H 0.7500 0.0300 -0.4415
H27 H 0.7500 0.0711 -0.5002
N1 N 0.8232(8) 0.0575(4) 0.1052(9)
N2 N 0.8245(8) 0.1332(3) 0.1123(9)
N3 N 0.9570(9) 0.1365(4) 0.0182(9)
N4 N 0.9547(8) 0.0606(4) 0.0109(9)
N5 N 0.9962(9) 0.0645(4) -0.1388(9)
N6 N 1.0081(9) 0.1398(4) -0.1242(9)
N7 N 0.9571(9) 0.1450(4) -0.2869(9)
N8 N 0.9456(9) 0.0697(4) -0.2979(10)
N9 N 0.8300(9) 0.0735(4) -0.3911(9)
N10 N 0.8287(9) 0.1476(4) -0.3626(9)
O1 O 0.7500 0.0019(4) 0.0385(11)
O2 O 0.9036(8) 0.0108(3) -0.0931(9)
O3 O 0.8499(8) 0.0145(4) -0.3016(9)
O4 O 0.7500 0.1909(5) 0.0530(13)
O5 O 0.9330(8) 0.1968(3) -0.0653(8)
O6 O 0.8582(7) 0.1965(3) -0.2489(8)
W1 W 1.05993(6) 0.2500 -0.44600(6)
W2 W 1.2500 0.19848(3) -0.37039(6)
W3 W 1.2500 0.30849(3) -0.79075(6)
W4 W 1.06237(5) 0.30454(2) -0.65651(5)
W5 W 1.2500 0.35835(3) -0.59603(6)
Na1 Na 0.9328(7) 0.2500 -0.1833(8)
Na2 Na 0.8552(9) 0.2500 0.0220(9)
Na3 Na 0.7500 0.0067(3) -0.1423(8)
O7 O 0.7500 0.2500 -0.1194(16)
O8 O 1.0940(13) 0.2500 -0.1680(15)
O9 O 0.7500 -0.0554(6) -0.2184(14)
O11 O 0.7500 0.0880(10) -0.132(2)
O14 O 0.852(4) 0.2500 0.199(3)
O15 O 1.2500 0.2500 -0.2985(13)
O16 O 1.2500 0.1629(4) -0.2824(9)
O17 O 1.2500 0.3622(5) -0.7317(12)
O18 O 1.2500 0.3237(5) -0.9028(11)
O19 O 1.2500 0.4101(5) -0.5744(12)
O20 O 1.2500 0.2500 -0.8121(17)
O21 O 0.9711(10) 0.3298(5) -0.6885(9)
O22 O 1.2500 0.1618(6) -0.4730(13)
O23 O 1.2083(12) 0.2978(5) -0.6445(12)
O24 O 1.0290(14) 0.2918(4) -0.5317(9)
O25 O 1.2078(16) 0.2500 -0.4712(16)
O26 O 1.1296(12) 0.2915(4) -0.3874(16)
O27 O 1.1255(13) 0.3079(6) -0.7702(15)
O28 O 0.974(2) 0.2500 -0.377(2)
O29 O 1.1334(17) 0.2500 -0.5846(15)
O30 O 1.1288(14) 0.3482(8) -0.6059(13)
O31 O 1.027(3) 0.2500 -0.6925(14)
O32 O 1.021(4) 0.2500 0.094(3)
C1F C 0.6546(11) 0.0927(5) 0.2559(11)
C1G C 0.8454(11) 0.4073(5) 0.2559(11)
C1A C 0.6546(11) 0.4073(5) 0.2559(11)
H1F H 0.5914 0.0932 0.2482
H1G H 0.9086 0.4068 0.2482
H1A H 0.5914 0.4068 0.2482
H2F H 0.6715 0.0674 0.2868
H2G H 0.8285 0.4326 0.2868
H2A H 0.6715 0.4326 0.2868
H3F H 0.6729 0.1162 0.2923
H3G H 0.8271 0.3838 0.2923
H3A H 0.6729 0.3838 0.2923
C2F C 0.6983(9) 0.0945(4) 0.1625(10)
C2G C 0.8017(9) 0.4055(4) 0.1625(10)
C2A C 0.6983(9) 0.4055(4) 0.1625(10)
C3A C 0.7500 0.4652(5) 0.0791(13)
C4A C 0.7500 0.3436(7) 0.0894(15)
C5F C 0.5894(10) 0.0429(5) 0.0883(12)
C5G C 0.9106(10) 0.4571(5) 0.0883(12)
C5A C 0.5894(10) 0.4571(5) 0.0883(12)
H4F H 0.5541 0.0481 0.1433
H4G H 0.9459 0.4519 0.1433
H4A H 0.5541 0.4519 0.1433
H5F H 0.5919 0.0129 0.0796
H5G H 0.9081 0.4871 0.0796
H5A H 0.5919 0.4871 0.0796
C6F C 0.5869(10) 0.1496(4) 0.1016(10)
C6G C 0.9131(10) 0.3504(4) 0.1016(10)
C6A C 0.5869(10) 0.3504(4) 0.1016(10)
H6F H 0.5899 0.1798 0.1020
H6G H 0.9101 0.3202 0.1020
H6A H 0.5899 0.3202 0.1020
H7F H 0.5516 0.1411 0.1545
H7G H 0.9484 0.3589 0.1545
H7A H 0.5516 0.3589 0.1545
C7F C 0.4185(12) 0.0958(5) 0.0854(12)
C7G C 1.0815(12) 0.4042(5) 0.0854(12)
C7A C 0.4185(12) 0.4042(5) 0.0854(12)
H8F H 0.4453 0.0973 0.1458
H8G H 1.0547 0.4027 0.1458
H8A H 0.4453 0.4027 0.1458
H9F H 0.3794 0.1191 0.0771
H9G H 1.1206 0.3809 0.0771
H9A H 0.3794 0.3809 0.0771
H10F H 0.3856 0.0703 0.0801
H10G H 1.1144 0.4297 0.0801
H10A H 0.3856 0.4297 0.0801
C8F C 0.4914(11) 0.0969(5) 0.0104(11)
C8G C 1.0086(11) 0.4031(5) 0.0104(11)
C8A C 0.4914(11) 0.4031(5) 0.0104(11)
C9F C 0.4584(10) 0.0988(5) -0.0944(11)
C9G C 1.0416(10) 0.4012(5) -0.0944(11)
C9A C 0.4584(10) 0.4012(5) -0.0944(11)
C10F C 0.3571(9) 0.0969(6) -0.1055(13)
C10G C 1.1429(9) 0.4031(6) -0.1055(13)
C10A C 0.3571(9) 0.4031(6) -0.1055(13)
H11F H 0.3356 0.0710 -0.0810
H11G H 1.1644 0.4290 -0.0810
H11A H 0.3356 0.4290 -0.0810
H12F H 0.3305 0.1196 -0.0724
H12G H 1.1695 0.3804 -0.0724
H12A H 0.3305 0.3804 -0.0724
H13F H 0.3420 0.0988 -0.1701
H13G H 1.1580 0.4012 -0.1701
H13A H 0.3420 0.4012 -0.1701
C11F C 0.5548(10) 0.0425(5) -0.0760(11)
C11G C 0.9452(10) 0.4575(5) -0.0760(11)
C11A C 0.5548(10) 0.4575(5) -0.0760(11)
C12F C 0.5365(10) 0.1617(5) -0.0598(12)
C12G C 0.9635(10) 0.3383(5) -0.0598(12)
C12A C 0.5365(10) 0.3383(5) -0.0598(12)
C13F C 0.4921(11) 0.0508(5) -0.2315(11)
C13G C 1.0079(11) 0.4492(5) -0.2315(11)
C13A C 0.4921(11) 0.4492(5) -0.2315(11)
H14F H 0.4990 0.0208 -0.2334
H14G H 1.0010 0.4792 -0.2334
H14A H 0.4990 0.4792 -0.2334
H15F H 0.4321 0.0572 -0.2509
H15G H 1.0679 0.4428 -0.2509
H15A H 0.4321 0.4428 -0.2509
C14F C 0.4759(11) 0.1567(4) -0.2192(12)
C14G C 1.0241(11) 0.3433(4) -0.2192(12)
C14A C 0.4759(11) 0.3433(4) -0.2192(12)
H16F H 0.4733 0.1869 -0.2157
H16G H 1.0267 0.3131 -0.2157
H16A H 0.4733 0.3131 -0.2157
H17F H 0.4187 0.1470 -0.2409
H17G H 1.0813 0.3530 -0.2409
H17A H 0.4187 0.3530 -0.2409
C15F C 0.5379(11) 0.1094(4) -0.3454(10)
C15G C 0.9621(11) 0.3906(4) -0.3454(10)
C15A C 0.5379(11) 0.3906(4) -0.3454(10)
C16F C 0.4508(12) 0.1079(5) -0.4008(12)
C16G C 1.0492(12) 0.3921(5) -0.4008(12)
C16A C 0.4508(12) 0.3921(5) -0.4008(12)
H18F H 0.4379 0.1351 -0.4250
H18G H 1.0621 0.3649 -0.4250
H18A H 0.4379 0.3649 -0.4250
H19F H 0.4568 0.0886 -0.4512
H19G H 1.0432 0.4114 -0.4512
H19A H 0.4568 0.4114 -0.4512
H20F H 0.4036 0.0991 -0.3608
H20G H 1.0964 0.4009 -0.3608
H20A H 0.4036 0.4009 -0.3608
C17F C 0.6252(11) 0.1135(4) -0.4070(10)
C17G C 0.8748(11) 0.3865(4) -0.4070(10)
C17A C 0.6252(11) 0.3865(4) -0.4070(10)
C18F C 0.6084(13) 0.1214(6) -0.5100(10)
C18G C 0.8916(13) 0.3786(6) -0.5100(10)
C18A C 0.6084(13) 0.3786(6) -0.5100(10)
H21F H 0.6637 0.1209 -0.5430
H21G H 0.8363 0.3791 -0.5430
H21A H 0.6637 0.3791 -0.5430
H22F H 0.5701 0.1002 -0.5341
H22G H 0.9299 0.3998 -0.5341
H22A H 0.5701 0.3998 -0.5341
H23F H 0.5810 0.1482 -0.5178
H23G H 0.9190 0.3518 -0.5178
H23A H 0.5810 0.3518 -0.5178
C19F C 0.6272(10) 0.0488(5) -0.3282(11)
C19G C 0.8728(10) 0.4512(5) -0.3282(11)
C19A C 0.6272(10) 0.4512(5) -0.3282(11)
C20F C 0.6206(11) 0.1665(5) -0.2949(11)
C20G C 0.8794(11) 0.3335(5) -0.2949(11)
C20A C 0.6206(11) 0.3335(5) -0.2949(11)
C21A C 0.7500 0.3318(7) -0.3941(16)
H24A H 0.7500 0.3033 -0.3717
H25A H 0.7500 0.3310 -0.4614
C22A C 0.7500 0.4398(7) -0.4374(16)
H26A H 0.7500 0.4700 -0.4415
H27A H 0.7500 0.4289 -0.5002
N1F N 0.6768(8) 0.0575(4) 0.1052(9)
N1G N 0.8232(8) 0.4425(4) 0.1052(9)
N1A N 0.6768(8) 0.4425(4) 0.1052(9)
N2F N 0.6755(8) 0.1332(3) 0.1123(9)
N2G N 0.8245(8) 0.3668(3) 0.1123(9)
N2A N 0.6755(8) 0.3668(3) 0.1123(9)
N3F N 0.5430(9) 0.1365(4) 0.0182(9)
N3G N 0.9570(9) 0.3635(4) 0.0182(9)
N3A N 0.5430(9) 0.3635(4) 0.0182(9)
N4F N 0.5453(8) 0.0606(4) 0.0109(9)
N4G N 0.9547(8) 0.4394(4) 0.0109(9)
N4A N 0.5453(8) 0.4394(4) 0.0109(9)
N5F N 0.5038(9) 0.0645(4) -0.1388(9)
N5G N 0.9962(9) 0.4355(4) -0.1388(9)
N5A N 0.5038(9) 0.4355(4) -0.1388(9)
N6F N 0.4919(9) 0.1398(4) -0.1242(9)
N6G N 1.0081(9) 0.3602(4) -0.1242(9)
N6A N 0.4919(9) 0.3602(4) -0.1242(9)
N7F N 0.5429(9) 0.1450(4) -0.2869(9)
N7G N 0.9571(9) 0.3550(4) -0.2869(9)
N7A N 0.5429(9) 0.3550(4) -0.2869(9)
N8F N 0.5544(9) 0.0697(4) -0.2979(10)
N8G N 0.9456(9) 0.4303(4) -0.2979(10)
N8A N 0.5544(9) 0.4303(4) -0.2979(10)
N9F N 0.6700(9) 0.0735(4) -0.3911(9)
N9G N 0.8300(9) 0.4265(4) -0.3911(9)
N9A N 0.6700(9) 0.4265(4) -0.3911(9)
N10F N 0.6713(9) 0.1476(4) -0.3626(9)
N10G N 0.8287(9) 0.3524(4) -0.3626(9)
N10A N 0.6713(9) 0.3524(4) -0.3626(9)
O1A O 0.7500 0.4981(4) 0.0385(11)
O2F O 0.5964(8) 0.0108(3) -0.0931(9)
O2G O 0.9036(8) 0.4892(3) -0.0931(9)
O2A O 0.5964(8) 0.4892(3) -0.0931(9)
O3F O 0.6501(8) 0.0145(4) -0.3016(9)
O3G O 0.8499(8) 0.4855(4) -0.3016(9)
O3A O 0.6501(8) 0.4855(4) -0.3016(9)
O4A O 0.7500 0.3091(5) 0.0530(13)
O5F O 0.5670(8) 0.1968(3) -0.0653(8)
O5G O 0.9330(8) 0.3032(3) -0.0653(8)
O5A O 0.5670(8) 0.3032(3) -0.0653(8)
O6F O 0.6418(7) 0.1965(3) -0.2489(8)
O6G O 0.8582(7) 0.3035(3) -0.2489(8)
O6A O 0.6418(7) 0.3035(3) -0.2489(8)
W1A W 1.44007(6) 0.2500 -0.44600(6)
W2A W 1.2500 0.30152(3) -0.37039(6)
W3A W 1.2500 0.19151(3) -0.79075(6)
W4G W 1.06237(5) 0.19546(2) -0.65651(5)
W4A W 1.43763(5) 0.19546(2) -0.65651(5)
W4F W 1.43763(5) 0.30454(2) -0.65651(5)
W5A W 1.2500 0.14165(3) -0.59603(6)
Na1A Na 0.5672(7) 0.2500 -0.1833(8)
Na1A_2 Na 1.5672(7) 0.2500 -0.1833(8)
Na2A Na 0.6448(9) 0.2500 0.0220(9)
Na3A Na 0.7500 0.4933(3) -0.1423(8)
O8A O 0.4060(13) 0.2500 -0.1680(15)
O9A O 0.7500 0.5554(6) -0.2184(14)
O11A O 0.7500 0.4120(10) -0.132(2)
O14A O 0.648(4) 0.2500 0.199(3)
O16A O 1.2500 0.3371(4) -0.2824(9)
O17A O 1.2500 0.1378(5) -0.7317(12)
O18A O 1.2500 0.1763(5) -0.9028(11)
O19A O 1.2500 0.0899(5) -0.5744(12)
O21G O 0.9711(10) 0.1702(5) -0.6885(9)
O21A O 1.5289(10) 0.1702(5) -0.6885(9)
O21F O 1.5289(10) 0.3298(5) -0.6885(9)
O22A O 1.2500 0.3382(6) -0.4730(13)
O23F O 1.2917(12) 0.2978(5) -0.6445(12)
O23G O 1.2083(12) 0.2022(5) -0.6445(12)
O23A O 1.2917(12) 0.2022(5) -0.6445(12)
O24G O 1.0290(14) 0.2082(4) -0.5317(9)
O24A O 1.4710(14) 0.2082(4) -0.5317(9)
O24F O 1.4710(14) 0.2918(4) -0.5317(9)
O25A O 1.2922(16) 0.2500 -0.4712(16)
O26G O 1.1296(12) 0.2085(4) -0.3874(16)
O26A O 1.3704(12) 0.2085(4) -0.3874(16)
O26F O 1.3704(12) 0.2915(4) -0.3874(16)
O27G O 1.1255(13) 0.1921(6) -0.7702(15)
O27F O 1.3745(13) 0.3079(6) -0.7702(15)
O27A O 1.3745(13) 0.1921(6) -0.7702(15)
O28A O 1.526(2) 0.2500 -0.377(2)
O28A_2 O 0.526(2) 0.2500 -0.377(2)
O29A O 1.3666(17) 0.2500 -0.5846(15)
O30G O 1.1288(14) 0.1518(8) -0.6059(13)
O30F O 1.3712(14) 0.3482(8) -0.6059(13)
O30A O 1.3712(14) 0.1518(8) -0.6059(13)
O31A O 1.473(3) 0.2500 -0.6925(14)
O32A O 0.479(4) 0.2500 0.094(3)
loop_
_geom_bond_atom_site_label_1
_geom_bond_atom_site_label_2
_geom_bond_site_symmetry_1
_geom_bond_site_symmetry_2
C1 H1 1_555 1_555
H2 C1 1_555 1_555
H3 C1 1_555 1_555
C2 C1 1_555 1_555
C3 N1 1_555 1_555
C4 N2 1_555 1_555
C5 H4 1_555 1_555
H5 C5 1_555 1_555
C6 H6 1_555 1_555
H7 C6 1_555 1_555
C7 H8 1_555 1_555
H9 C7 1_555 1_555
H10 C7 1_555 1_555
C8 C7 1_555 1_555
C9 C8 1_555 1_555
C10 C9 1_555 1_555
H11 C10 1_555 1_555
H12 C10 1_555 1_555
H13 C10 1_555 1_555
C11 N4 1_555 1_555
C12 N3 1_555 1_555
C13 H14 1_555 1_555
H15 C13 1_555 1_555
C14 H16 1_555 1_555
H17 C14 1_555 1_555
C15 C16 1_555 1_555
C16 H18 1_555 1_555
H19 C16 1_555 1_555
H20 C16 1_555 1_555
C17 C15 1_555 1_555
C18 C17 1_555 1_555
H21 C18 1_555 1_555
H22 C18 1_555 1_555
H23 C18 1_555 1_555
C19 N8 1_555 1_555
C20 N7 1_555 1_555
C21 H24 1_555 1_555
H25 C21 1_555 1_555
C22 H26 1_555 1_555
H27 C22 1_555 1_555
N1 C2 1_555 1_555
N2 C2 1_555 1_555
N3 C6 1_555 1_555
N4 C5 1_555 1_555
N5 C9 1_555 1_555
N6 C9 1_555 1_555
N7 C14 1_555 1_555
N8 C13 1_555 1_555
N9 C17 1_555 1_555
N10 C17 1_555 1_555
O1 C3 1_555 1_555
O2 C11 1_555 1_555
O3 C19 1_555 1_555
O4 C4 1_555 1_555
O5 C12 1_555 1_555
O6 C20 1_555 1_555
W1 O24 1_555 1_555
W2 O15 1_555 1_555
W3 O17 1_555 1_555
W4 O21 1_555 1_555
W5 O17 1_555 1_555
Na1 O5 1_555 1_555
Na2 O4 1_555 1_555
Na3 O1 1_555 1_555
O7 Na1 1_555 1_555
O8 Na1 1_555 1_555
O9 Na3 1_555 1_555
O11 Na3 1_555 1_555
O14 Na2 1_555 1_555
O15 W2A 1_555 1_555
O16 W2 1_555 1_555
O18 W3 1_555 1_555
O19 W5 1_555 1_555
O20 W3 1_555 1_555
O22 W2 1_555 1_555
O23 W3 1_555 1_555
O24 W4 1_555 1_555
O25 W1 1_555 1_555
O26 W1 1_555 1_555
O27 W3 1_555 1_555
O28 W1 1_555 1_555
O29 W1 1_555 1_555
O30 W4 1_555 1_555
O31 W4 1_555 1_555
O32 Na2 1_555 1_555
C1F H1F 1_555 1_555
C1G H1G 1_555 1_555
C1A H1A 1_555 1_555
H2F C1F 1_555 1_555
H2G C1G 1_555 1_555
H2A C1A 1_555 1_555
H3F C1F 1_555 1_555
H3G C1G 1_555 1_555
H3A C1A 1_555 1_555
C2F C2 1_555 1_555
C2G C1G 1_555 1_555
C2A C1A 1_555 1_555
C3A N1G 1_555 1_555
C4A N2G 1_555 1_555
C5F H4F 1_555 1_555
C5G H4G 1_555 1_555
C5A H4A 1_555 1_555
H5F C5F 1_555 1_555
H5G C5G 1_555 1_555
H5A C5A 1_555 1_555
C6F H6F 1_555 1_555
C6G H6G 1_555 1_555
C6A H6A 1_555 1_555
H7F C6F 1_555 1_555
H7G C6G 1_555 1_555
H7A C6A 1_555 1_555
C7F H8F 1_555 1_555
C7G H8G 1_555 1_555
C7A H8A 1_555 1_555
H9F C7F 1_555 1_555
H9G C7G 1_555 1_555
H9A C7A 1_555 1_555
H10F C7F 1_555 1_555
H10G C7G 1_555 1_555
H10A C7A 1_555 1_555
C8F C7F 1_555 1_555
C8G C7G 1_555 1_555
C8A C7A 1_555 1_555
C9F C8F 1_555 1_555
C9G C8G 1_555 1_555
C9A C8A 1_555 1_555
C10F C9F 1_555 1_555
C10G C9G 1_555 1_555
C10A C9A 1_555 1_555
H11F C10F 1_555 1_555
H11G C10G 1_555 1_555
H11A C10A 1_555 1_555
H12F C10F 1_555 1_555
H12G C10G 1_555 1_555
H12A C10A 1_555 1_555
H13F C10F 1_555 1_555
H13G C10G 1_555 1_555
H13A C10A 1_555 1_555
C11F N4F 1_555 1_555
C11G N4G 1_555 1_555
C11A N4A 1_555 1_555
C12F N3F 1_555 1_555
C12G N3G 1_555 1_555
C12A N3A 1_555 1_555
C13F H14F 1_555 1_555
C13G H14G 1_555 1_555
C13A H14A 1_555 1_555
H15F C13F 1_555 1_555
H15G C13G 1_555 1_555
H15A C13A 1_555 1_555
C14F H16F 1_555 1_555
C14G H16G 1_555 1_555
C14A H16A 1_555 1_555
H17F C14F 1_555 1_555
H17G C14G 1_555 1_555
H17A C14A 1_555 1_555
C15F C16F 1_555 1_555
C15G C16G 1_555 1_555
C15A C16A 1_555 1_555
C16F H18F 1_555 1_555
C16G H18G 1_555 1_555
C16A H18A 1_555 1_555
H19F C16F 1_555 1_555
H19G C16G 1_555 1_555
H19A C16A 1_555 1_555
H20F C16F 1_555 1_555
H20G C16G 1_555 1_555
H20A C16A 1_555 1_555
C17F C15F 1_555 1_555
C17G C15G 1_555 1_555
C17A C15A 1_555 1_555
C18F C17F 1_555 1_555
C18G C17G 1_555 1_555
C18A C17A 1_555 1_555
H21F C18F 1_555 1_555
H21G C18G 1_555 1_555
H21A C18A 1_555 1_555
H22F C18F 1_555 1_555
H22G C18G 1_555 1_555
H22A C18A 1_555 1_555
H23F C18F 1_555 1_555
H23G C18G 1_555 1_555
H23A C18A 1_555 1_555
C19F N8F 1_555 1_555
C19G N8G 1_555 1_555
C19A N8A 1_555 1_555
C20F N7F 1_555 1_555
C20G N7G 1_555 1_555
C20A N7A 1_555 1_555
C21A H24A 1_555 1_555
H25A C21A 1_555 1_555
C22A H26A 1_555 1_555
H27A C22A 1_555 1_555
N1F C3 1_555 1_555
N1G C2G 1_555 1_555
N1A C2A 1_555 1_555
N2F C4 1_555 1_555
N2G C2G 1_555 1_555
N2A C2A 1_555 1_555
N3F C6F 1_555 1_555
N3G C6G 1_555 1_555
N3A C6A 1_555 1_555
N4F C5F 1_555 1_555
N4G C5G 1_555 1_555
N4A C5A 1_555 1_555
N5F C9F 1_555 1_555
N5G C9G 1_555 1_555
N5A C9A 1_555 1_555
N6F C9F 1_555 1_555
N6G C9G 1_555 1_555
N6A C9A 1_555 1_555
N7F C14F 1_555 1_555
N7G C14G 1_555 1_555
N7A C14A 1_555 1_555
N8F C13F 1_555 1_555
N8G C13G 1_555 1_555
N8A C13A 1_555 1_555
N9F C22 1_555 1_555
N9G C17G 1_555 1_555
N9A C17A 1_555 1_555
N10F C21 1_555 1_555
N10G C17G 1_555 1_555
N10A C17A 1_555 1_555
O1A C3A 1_555 1_555
O2F Na3 1_555 1_555
O2G C11G 1_555 1_555
O2A C11A 1_555 1_555
O3F Na3 1_555 1_555
O3G C19G 1_555 1_555
O3A C19A 1_555 1_555
O4A Na2 1_555 1_555
O5F C12F 1_555 1_555
O5G Na1 1_555 1_555
O5A C12A 1_555 1_555
O6F C20F 1_555 1_555
O6G Na1 1_555 1_555
O6A C20A 1_555 1_555
W1A O24A 1_555 1_555
W2A O25 1_555 1_555
W3A O20 1_555 1_555
W4G O29 1_555 1_555
W4A O21A 1_555 1_555
W4F O21F 1_555 1_555
W5A O22 1_555 1_555
Na1A O7 1_555 1_555
Na1A_2 O28A 1_555 1_555
Na2A O4 1_555 1_555
Na3A O1A 1_555 1_555
O8A Na1A 1_555 1_555
O9A Na3A 1_555 1_555
O11A Na3A 1_555 1_555
O14A Na2A 1_555 1_555
O16A W2A 1_555 1_555
O17A W3A 1_555 1_555
O18A W3A 1_555 1_555
O19A W5A 1_555 1_555
O21G W4G 1_555 1_555
O22A W5 1_555 1_555
O23F W3 1_555 1_555
O23G W3A 1_555 1_555
O23A W3A 1_555 1_555
O24G W1 1_555 1_555
O24A W4A 1_555 1_555
O24F W1A 1_555 1_555
O25A W2 1_555 1_555
O26G W1 1_555 1_555
O26A W2 1_555 1_555
O26F W1A 1_555 1_555
O27G W3A 1_555 1_555
O27F W3 1_555 1_555
O27A W3A 1_555 1_555
O28A W1A 1_555 1_555
O28A_2 Na1A 1_555 1_555
O29A W1A 1_555 1_555
O30G W4G 1_555 1_555
O30F W5 1_555 1_555
O30A W4A 1_555 1_555
O31A W4A 1_555 1_555
O32A Na2A 1_555 1_555
C5 N1 1_555 1_555
C6 N2 1_555 1_555
C8 N3 1_555 1_555
C8 N4 1_555 1_555
C11 N5 1_555 1_555
C12 N6 1_555 1_555
C13 N5 1_555 1_555
C14 N6 1_555 1_555
C15 N7 1_555 1_555
C15 N8 1_555 1_555
C19 N9 1_555 1_555
C20 N10 1_555 1_555
C21 N10 1_555 1_555
C22 N9 1_555 1_555
O2 Na3 1_555 1_555
O3 Na3 1_555 1_555
O5 Na2 1_555 1_555
O6 Na1 1_555 1_555
W2 O25 1_555 1_555
W2 O26G 1_555 1_555
W4 O23 1_555 1_555
W4 O27 1_555 1_555
W4 O29 1_555 1_555
W5 O23 1_555 1_555
W5 O30 1_555 1_555
W5 O23F 1_555 1_555
Na1 O28 1_555 1_555
Na2 O5G 1_555 1_555
O26 W2A 1_555 1_555
O31 W4G 1_555 1_555
C1F C2F 1_555 1_555
C2F N1F 1_555 1_555
C2F N2F 1_555 1_555
C2G C2A 1_555 1_555
C3A N1A 1_555 1_555
C4A N2A 1_555 1_555
C4A O4A 1_555 1_555
C5F N1F 1_555 1_555
C5G N1G 1_555 1_555
C5A N1A 1_555 1_555
C6F N2F 1_555 1_555
C6G N2G 1_555 1_555
C6A N2A 1_555 1_555
C8F N3F 1_555 1_555
C8F N4F 1_555 1_555
C8G N3G 1_555 1_555
C8G N4G 1_555 1_555
C8A N3A 1_555 1_555
C8A N4A 1_555 1_555
C11F N5F 1_555 1_555
C11F O2F 1_555 1_555
C11G N5G 1_555 1_555
C11A N5A 1_555 1_555
C12F N6F 1_555 1_555
C12G N6G 1_555 1_555
C12G O5G 1_555 1_555
C12A N6A 1_555 1_555
C13F N5F 1_555 1_555
C13G N5G 1_555 1_555
C13A N5A 1_555 1_555
C14F N6F 1_555 1_555
C14G N6G 1_555 1_555
C14A N6A 1_555 1_555
C15F N7F 1_555 1_555
C15F N8F 1_555 1_555
C15G N7G 1_555 1_555
C15G N8G 1_555 1_555
C15A N7A 1_555 1_555
C15A N8A 1_555 1_555
C17F N9F 1_555 1_555
C17F N10F 1_555 1_555
C19F N9F 1_555 1_555
C19F O3F 1_555 1_555
C19G N9G 1_555 1_555
C19A N9A 1_555 1_555
C20F N10F 1_555 1_555
C20G N10G 1_555 1_555
C20G O6G 1_555 1_555
C20A N10A 1_555 1_555
C21A N10G 1_555 1_555
C21A N10A 1_555 1_555
C22A N9G 1_555 1_555
C22A N9A 1_555 1_555
O2G Na3A 1_555 1_555
O2A Na3A 1_555 1_555
O3G Na3A 1_555 1_555
O3A Na3A 1_555 1_555
O4A Na2A 1_555 1_555
O5F Na1A 1_555 1_555
O5F Na2A 1_555 1_555
O5A Na1A 1_555 1_555
O5A Na2A 1_555 1_555
O6F Na1A 1_555 1_555
O6A Na1A 1_555 1_555
W1A O25A 1_555 1_555
W1A O26A 1_555 1_555
W2A O22A 1_555 1_555
W2A O25A 1_555 1_555
W2A O26F 1_555 1_555
W4G O23G 1_555 1_555
W4G O24G 1_555 1_555
W4G O27G 1_555 1_555
W4A O23A 1_555 1_555
W4A O27A 1_555 1_555
W4A O29A 1_555 1_555
W4F O23F 1_555 1_555
W4F O24F 1_555 1_555
W4F O27F 1_555 1_555
W4F O29A 1_555 1_555
W4F O30F 1_555 1_555
W4F O31A 1_555 1_555
W5A O17A 1_555 1_555
W5A O23G 1_555 1_555
W5A O23A 1_555 1_555
W5A O30G 1_555 1_555
W5A O30A 1_555 1_555

#END
