
#######################################################################
#
#                 Cambridge Crystallographic Data Centre
#                                CCDC 
#
#######################################################################
#
# If this CIF has been generated from an entry in the Cambridge 
# Structural Database, then it will include bibliographic, chemical, 
# crystal, experimental, refinement or atomic coordinate data resulting 
# from the CCDC's data processing and validation procedures.
#
#######################################################################

data_CUZNOB
_symmetry_cell_setting           monoclinic
_symmetry_space_group_name_H-M   'P 21/c'
_symmetry_Int_Tables_number      14
_space_group_name_Hall           '-P 2ybc'
loop_
_symmetry_equiv_pos_site_id
_symmetry_equiv_pos_as_xyz
1 x,y,z
2 -x,1/2+y,1/2-z
3 -x,-y,-z
4 x,1/2-y,1/2+z
_cell_length_a                   12.027(2)
_cell_length_b                   18.364(4)
_cell_length_c                   9.757(2)
_cell_angle_alpha                90
_cell_angle_beta                 96.70(3)
_cell_angle_gamma                90
_cell_volume                     2140.25
loop_
_atom_site_label
_atom_site_type_symbol
_atom_site_fract_x
_atom_site_fract_y
_atom_site_fract_z
O5 O 0.9767(14) 0.9573(6) 0.9749(15)
O5B O 1.0233(14) 1.0427(6) 1.0251(15)
Cd1 Cd -0.65902(2) -0.449700(15) 0.43573(3)
N1 N -0.5474(3) -0.35952(19) 0.3673(3)
O1 O -0.4600(3) -0.46073(17) 0.6412(3)
N2 N 0.2381(3) -0.1368(2) 0.0472(4)
C1 C -0.5185(4) -0.4928(2) 0.8571(4)
C2 C -0.4155(4) -0.4753(2) 0.9274(4)
H1 H -0.3583 -0.4590 0.8788
N3 N -0.4221(3) -0.2749(2) 0.3671(4)
C3 C -0.2352(4) -0.2415(2) 0.3111(5)
N4 N 0.1192(3) -0.22139(19) 0.0836(4)
C4 C -0.4591(3) -0.3288(2) 0.4378(4)
H2 H -0.4277 -0.3434 0.5251
C5 C -0.5390(4) -0.4835(3) 0.7040(4)
C6 C -0.0605(3) -0.2642(2) 0.1522(5)
C7 C 0.2382(4) -0.1519(3) 0.1827(5)
H3 H 0.2847 -0.1277 0.2509
C8 C -0.1929(4) -0.3104(2) 0.2965(5)
H4 H -0.2229 -0.3495 0.3403
C9 C -0.5601(4) -0.3210(3) 0.2490(5)
H5 H -0.6167 -0.3304 0.1779
N5 N 0.1688(4) -0.2026(3) 0.2114(4)
C10 C 0.0342(4) -0.2788(2) 0.0665(5)
H6 H 0.0043 -0.2821 -0.0301
H7 H 0.0687 -0.3251 0.0935
C11 C -0.1031(4) -0.1956(2) 0.1650(5)
H8 H -0.0736 -0.1567 0.1203
N6 N -0.4855(4) -0.2688(3) 0.2425(5)
C12 C -0.1899(4) -0.1840(2) 0.2441(5)
H9 H -0.2181 -0.1373 0.2524
C13 C 0.1614(4) -0.1823(2) -0.0105(4)
H10 H 0.1401 -0.1861 -0.1049
C14 C -0.1062(4) -0.3222(2) 0.2172(5)
H11 H -0.0787 -0.3690 0.2077
O2 O -0.6364(3) -0.4977(2) 0.6464(3)
C15 C -0.3257(4) -0.2272(3) 0.4024(5)
H12 H -0.2959 -0.2351 0.4980
H13 H -0.3494 -0.1768 0.3926
O3 O -0.7678(3) -0.4153(2) 0.2164(3)
O4 O -0.8204(3) -0.50911(18) 0.3336(3)
C16 C -0.8298(4) -0.4690(2) 0.2281(4)
C17 C -0.9178(3) -0.4860(2) 0.1099(4)
C18 C -0.9070(4) -0.4598(2) -0.0201(5)
H14 H -0.8441 -0.4326 -0.0343
C19 C -1.0115(4) -0.5269(2) 0.1307(4)
H15 H -1.0198 -0.5452 0.2178
C20 C -0.6035(4) -0.5181(3) 0.9307(4)
H16 H -0.6728 -0.5306 0.8843
Cd1C Cd -1.65902(2) -0.050300(15) 0.93573(3)
Cd1B Cd -0.34098(2) -0.550300(15) 0.56427(3)
Cd1C_2 Cd 0.34098(2) -0.050300(15) -0.06427(3)
Cd1_2 Cd -0.65902(2) -0.449700(15) 1.43573(3)
Cd1B_2 Cd -0.34098(2) -0.550300(15) 1.56427(3)
Cd1B_3 Cd -1.34098(2) -0.550300(15) -0.43573(3)
N1C N -1.5474(3) -0.14048(19) 0.8673(3)
O1B O -0.5400(3) -0.53927(17) 1.3588(3)
O1B_2 O -0.5400(3) -0.53927(17) 0.3588(3)
O1A O -1.5400(3) 0.03927(17) 0.8588(3)
N2C N -0.7619(3) -0.3632(2) 0.5472(4)
N2_2 N -1.7619(3) -0.1368(2) 1.0472(4)
C1B C -0.4815(4) -0.5072(2) 1.1429(4)
C2B C -0.5845(4) -0.5247(2) 1.0726(4)
H1B H -0.6417 -0.5410 1.1212
N3C N -1.4221(3) -0.2251(2) 0.8671(4)
C3C C -1.2352(4) -0.2585(2) 0.8111(5)
N4C N -0.8808(3) -0.27861(19) 0.5836(4)
C4C C -1.4591(3) -0.1712(2) 0.9378(4)
H2C H -1.4277 -0.1566 1.0251
C5B C -0.4610(4) -0.5165(3) 1.2960(4)
C6C C -1.0605(3) -0.2358(2) 0.6522(5)
C7C C -0.7618(4) -0.3481(3) 0.6827(5)
H3C H -0.7153 -0.3723 0.7509
C8C C -1.1929(4) -0.1896(2) 0.7965(5)
H4C H -1.2229 -0.1505 0.8403
C9C C -1.5601(4) -0.1790(3) 0.7490(5)
H5C H -1.6167 -0.1696 0.6779
N5C N -0.8312(4) -0.2974(3) 0.7114(4)
C10C C -0.9658(4) -0.2212(2) 0.5665(5)
H6C H -0.9957 -0.2179 0.4699
H7C H -0.9313 -0.1749 0.5935
C11C C -1.1031(4) -0.3044(2) 0.6650(5)
H8C H -1.0736 -0.3433 0.6203
N6C N -1.4855(4) -0.2312(3) 0.7425(5)
C12C C -1.1899(4) -0.3160(2) 0.7441(5)
H9C H -1.2181 -0.3627 0.7524
C13C C -0.8386(4) -0.3177(2) 0.4895(4)
H10C H -0.8599 -0.3139 0.3951
C14C C -1.1062(4) -0.1778(2) 0.7172(5)
H11C H -1.0787 -0.1310 0.7077
O2B O -0.3636(3) -0.5023(2) 1.3536(3)
O2C O -1.6364(3) -0.0023(2) 1.1464(3)
C15C C -1.3257(4) -0.2728(3) 0.9024(5)
H12C H -1.2959 -0.2649 0.9980
H13C H -1.3494 -0.3232 0.8926
O3B O -1.2322(3) -0.5847(2) -0.2164(3)
O3C O -1.7678(3) -0.0847(2) 0.7164(3)
O4B O -1.1796(3) -0.49089(18) -0.3336(3)
O4C O -1.8204(3) 0.00911(18) 0.8336(3)
C16B C -1.1702(4) -0.5310(2) -0.2281(4)
C17B C -1.0822(3) -0.5140(2) -0.1099(4)
C18B C -1.0930(4) -0.5402(2) 0.0201(5)
H14B H -1.1559 -0.5674 0.0343
C19B C -0.9885(4) -0.4731(2) -0.1307(4)
H15B H -0.9802 -0.4548 -0.2178
C20B C -0.3965(4) -0.4819(3) 1.0693(4)
H16B H -0.3272 -0.4694 1.1157
loop_
_geom_bond_atom_site_label_1
_geom_bond_atom_site_label_2
_geom_bond_site_symmetry_1
_geom_bond_site_symmetry_2
Cd1 N1 1_555 1_555
N1 C4 1_555 1_555
O1 C5 1_555 1_555
N2 C7 1_555 1_555
C1 C2 1_555 1_555
C2 H1 1_555 1_555
N3 C4 1_555 1_555
C3 C8 1_555 1_555
N4 N5 1_555 1_555
C4 H2 1_555 1_555
C5 C1 1_555 1_555
C6 C10 1_555 1_555
C7 H3 1_555 1_555
C8 H4 1_555 1_555
C9 N1 1_555 1_555
H5 C9 1_555 1_555
N5 C7 1_555 1_555
C10 N4 1_555 1_555
H6 C10 1_555 1_555
H7 C10 1_555 1_555
C11 C6 1_555 1_555
H8 C11 1_555 1_555
N6 N3 1_555 1_555
C12 C3 1_555 1_555
H9 C12 1_555 1_555
C13 N2 1_555 1_555
H10 C13 1_555 1_555
C14 C6 1_555 1_555
H11 C14 1_555 1_555
O2 Cd1 1_555 1_555
C15 N3 1_555 1_555
H12 C15 1_555 1_555
H13 C15 1_555 1_555
O3 Cd1 1_555 1_555
O4 Cd1 1_555 1_555
C16 O3 1_555 1_555
C17 C16 1_555 1_555
C18 C17 1_555 1_555
H14 C18 1_555 1_555
O5 O5B 1_555 1_555
C19 C17 1_555 1_555
H15 C19 1_555 1_555
C20 C1 1_555 1_555
H16 C20 1_555 1_555
Cd1C N1C 1_555 1_555
Cd1B O1 1_555 1_555
Cd1C_2 N2 1_555 1_555
Cd1_2 O1B 1_555 1_555
Cd1B_2 O2B 1_555 1_555
Cd1B_3 O3B 1_555 1_555
N1C C4C 1_555 1_555
O1B C5B 1_555 1_555
O1B_2 Cd1 1_555 1_555
O1A Cd1C 1_555 1_555
N2C Cd1 1_555 1_555
N2_2 Cd1C 1_555 1_555
C1B C2B 1_555 1_555
C2B C20 1_555 1_555
H1B C2B 1_555 1_555
N3C C4C 1_555 1_555
C3C C8C 1_555 1_555
N4C N5C 1_555 1_555
C4C H2C 1_555 1_555
C5B C1B 1_555 1_555
C6C C10C 1_555 1_555
C7C N2C 1_555 1_555
H3C C7C 1_555 1_555
C8C H4C 1_555 1_555
C9C N1C 1_555 1_555
H5C C9C 1_555 1_555
N5C C7C 1_555 1_555
C10C N4C 1_555 1_555
H6C C10C 1_555 1_555
H7C C10C 1_555 1_555
C11C C6C 1_555 1_555
H8C C11C 1_555 1_555
N6C N3C 1_555 1_555
C12C C3C 1_555 1_555
H9C C12C 1_555 1_555
C13C N2C 1_555 1_555
H10C C13C 1_555 1_555
C14C C6C 1_555 1_555
H11C C14C 1_555 1_555
O2B C5B 1_555 1_555
O2C Cd1C 1_555 1_555
C15C N3C 1_555 1_555
H12C C15C 1_555 1_555
H13C C15C 1_555 1_555
O3B C16B 1_555 1_555
O3C Cd1C 1_555 1_555
O4B Cd1B_3 1_555 1_555
O4C Cd1C 1_555 1_555
C16B O4B 1_555 1_555
C17B C16B 1_555 1_555
C18B C19 1_555 1_555
H14B C18B 1_555 1_555
C19B C18 1_555 1_555
H15B C19B 1_555 1_555
C20B C2 1_555 1_555
H16B C20B 1_555 1_555
C3 C15 1_555 1_555
N4 C13 1_555 1_555
C5 O2 1_555 1_555
C8 C14 1_555 1_555
C9 N6 1_555 1_555
C11 C12 1_555 1_555
O4 C16 1_555 1_555
C1B C20B 1_555 1_555
C3C C15C 1_555 1_555
N4C C13C 1_555 1_555
C8C C14C 1_555 1_555
C9C N6C 1_555 1_555
C11C C12C 1_555 1_555
C17B C18B 1_555 1_555
C17B C19B 1_555 1_555

#END
