
#######################################################################
#
#                 Cambridge Crystallographic Data Centre
#                                CCDC 
#
#######################################################################
#
# If this CIF has been generated from an entry in the Cambridge 
# Structural Database, then it will include bibliographic, chemical, 
# crystal, experimental, refinement or atomic coordinate data resulting 
# from the CCDC's data processing and validation procedures.
#
#######################################################################

data_CUZNUH
_symmetry_cell_setting           triclinic
_symmetry_space_group_name_H-M   'P -1'
_symmetry_Int_Tables_number      2
_space_group_name_Hall           '-P 1'
loop_
_symmetry_equiv_pos_site_id
_symmetry_equiv_pos_as_xyz
1 x,y,z
2 -x,-y,-z
_cell_length_a                   9.4783(19)
_cell_length_b                   11.429(2)
_cell_length_c                   17.298(4)
_cell_angle_alpha                79.47(3)
_cell_angle_beta                 81.33(3)
_cell_angle_gamma                83.27(3)
_cell_volume                     1813.48
loop_
_atom_site_label
_atom_site_type_symbol
_atom_site_fract_x
_atom_site_fract_y
_atom_site_fract_z
Co1 Co 1.0000 0.5000 0.5000
Co2 Co 0.38810(7) -0.12873(6) 0.14201(4)
N1 N 1.4293(4) 0.3385(4) 0.4701(3)
N2 N 1.4553(5) 0.4347(4) 0.4142(3)
N3 N 1.2247(4) 0.4461(4) 0.4690(2)
N4 N 0.9617(4) 0.5333(4) 0.3766(2)
N5 N 0.8778(6) 0.5063(4) 0.2716(3)
N6 N 0.9584(5) 0.5980(4) 0.2462(3)
N7 N 0.6816(6) -0.2131(5) 0.3162(3)
N8 N 0.7301(5) -0.1112(4) 0.2716(3)
N9 N 0.5558(5) -0.1505(4) 0.2143(3)
N10 N 0.2195(5) -0.1186(4) 0.0716(2)
N11 N 0.1032(6) -0.1187(5) -0.0319(3)
N12 N 0.0414(5) -0.1880(4) 0.0332(3)
O1 O 0.8197(4) 0.2403(3) 0.6054(2)
O2 O 0.9661(4) 0.3215(3) 0.5017(2)
O3 O 0.3987(4) 0.0585(3) 0.12798(19)
O4 O 0.2964(5) 0.0815(3) 0.2491(2)
O5 O 0.3869(4) 0.6877(3) 0.1598(2)
O6 O 0.5899(4) 0.6455(3) 0.0844(2)
O7 O 0.5568(3) -0.1259(3) 0.04132(19)
O8 O 0.2277(4) -0.1274(3) 0.2426(2)
C1 C 1.5454(6) 0.2485(5) 0.4925(4)
H1 H 1.5677 0.2584 0.5437
H2 H 1.6300 0.2633 0.4542
C2 C 1.2943(6) 0.3471(5) 0.5009(3)
H3 H 1.2528 0.2901 0.5405
C3 C 1.3283(6) 0.4980(5) 0.4169(3)
H4 H 1.3124 0.5722 0.3853
C4 C 1.5147(5) 0.1219(5) 0.4973(3)
C5 C 1.4365(6) 0.0845(5) 0.4460(4)
C6 C 1.5786(6) 0.0344(5) 0.5519(4)
C7 C 1.0074(6) 0.6101(5) 0.3114(3)
H5 H 1.0688 0.6675 0.3123
C8 C 0.8806(8) 0.4697(6) 0.3480(4)
H6 H 0.8318 0.4071 0.3780
C9 C 0.7995(10) 0.4611(6) 0.2174(4)
H7 H 0.8379 0.4899 0.1629
H8 H 0.6991 0.4908 0.2252
C10 C 0.8130(8) 0.3271(6) 0.2323(3)
C11 C 0.9367(8) 0.2571(7) 0.2083(4)
H9 H 1.0158 0.2936 0.1798
C12 C 0.9427(8) 0.1349(7) 0.2264(4)
H10 H 1.0255 0.0901 0.2085
C13 C 0.8329(7) 0.0773(6) 0.2693(4)
C14 C 0.7102(8) 0.1466(6) 0.2915(4)
H11 H 0.6317 0.1091 0.3198
C15 C 0.6992(7) 0.2686(6) 0.2735(4)
H12 H 0.6140 0.3122 0.2894
C16 C 0.8474(8) -0.0572(6) 0.2924(6)
H13 H 0.9373 -0.0893 0.2659
H14 H 0.8498 -0.0780 0.3491
C17 C 0.5807(7) -0.2323(6) 0.2785(4)
H15 H 0.5285 -0.2986 0.2949
C18 C 0.6532(7) -0.0778(5) 0.2127(4)
H16 H 0.6665 -0.0101 0.1744
C19 C 0.2079(6) -0.0783(5) -0.0050(3)
H17 H 0.2691 -0.0258 -0.0369
C20 C 0.1108(6) -0.1866(5) 0.0942(3)
H18 H 0.0869 -0.2272 0.1453
C21 C -0.0780(6) -0.2579(5) 0.0303(4)
H19 H -0.1345 -0.2150 -0.0101
H20 H -0.1393 -0.2635 0.0808
C22 C 0.0911(6) -0.4470(5) 0.0347(4)
C23 C -0.1245(6) -0.4374(5) -0.0209(3)
C24 C 0.4992(6) 0.2902(4) 0.1080(3)
C25 C 0.3926(5) 0.2480(4) 0.1676(3)
C26 C 0.3154(6) 0.3260(5) 0.2142(3)
C27 C 0.3600(6) 0.1199(4) 0.1823(3)
C28 C 0.4778(6) 0.6161(4) 0.1276(3)
C29 C 0.4486(5) 0.4865(4) 0.1420(3)
C30 C 0.5278(6) 0.4081(4) 0.0971(3)
C31 C 0.3416(6) 0.4454(5) 0.2008(4)
C32 C 0.9108(5) 0.2334(4) 0.5461(3)
C33 C 0.9570(5) 0.1127(4) 0.5222(3)
C34 C 1.0271(5) 0.1020(4) 0.4467(3)
C35 C 0.9308(5) 0.0084(4) 0.5747(3)
C36 C -0.0337(5) -0.3818(5) 0.0130(3)
H21 H 1.401(6) 0.145(5) 0.412(3)
H22 H 1.630(6) 0.061(5) 0.585(3)
H23 H 0.153(6) -0.415(5) 0.061(3)
H24 H -0.201(6) -0.396(5) -0.039(3)
H25 H 0.549(6) 0.231(5) 0.079(3)
H26 H 0.251(6) 0.299(5) 0.253(3)
H27 H 0.592(6) 0.431(5) 0.057(3)
H28 H 0.288(6) 0.489(5) 0.228(3)
H29 H 1.050(7) 0.164(6) 0.411(4)
H30 H 0.889(6) 0.012(5) 0.621(3)
Co1_2 Co 2.0000 -0.5000 0.5000
Co1_3 Co 1.0000 -0.5000 0.5000
Co2A Co 1.61190(7) 1.12873(6) 0.85799(4)
Co2_2 Co 0.38810(7) 0.87127(6) 0.14201(4)
Co2A_2 Co -0.38810(7) -0.87127(6) -0.14201(4)
Co2_3 Co 0.38810(7) -1.12873(6) 0.14201(4)
N1A N 1.5707(4) -0.3385(4) 0.5299(3)
N2A N 1.5447(5) -0.4347(4) 0.5858(3)
N3A N 1.7753(4) -0.4461(4) 0.5310(2)
N3A_2 N 0.7753(4) 0.5539(4) 0.5310(2)
N4A N 1.0383(4) 0.4667(4) 0.6234(2)
N5A N 1.1222(6) 0.4937(4) 0.7284(3)
N6A N 1.0416(5) 0.4020(4) 0.7538(3)
N7A N 1.3184(6) 1.2131(5) 0.6838(3)
N8A N 1.2699(5) 1.1112(4) 0.7284(3)
N9A N 1.4442(5) 1.1505(4) 0.7857(3)
N10A N -0.2195(5) -0.8814(4) -0.0716(2)
N10A_2 N 1.7805(5) 1.1186(4) 0.9284(2)
N11A N -0.1032(6) -0.8813(5) 0.0319(3)
N12A N -0.0414(5) -0.8120(4) -0.0332(3)
O1A O 1.1803(4) -0.2403(3) 0.3946(2)
O2A O 1.0339(4) -0.3215(3) 0.4983(2)
O2A_2 O 1.0339(4) 0.6785(3) 0.4983(2)
O3_2 O 0.3987(4) -0.9415(3) 0.12798(19)
O3A O 1.6013(4) 0.9415(3) 0.87202(19)
O4_2 O 0.2964(5) -0.9185(3) 0.2491(2)
O5_2 O 0.3869(4) -0.3123(3) 0.1598(2)
O5A O 1.6131(4) 1.3123(3) 0.8402(2)
O6_2 O 0.5899(4) -0.3545(3) 0.0844(2)
O7A O 1.4432(3) 1.1259(3) 0.95868(19)
O8A O 1.7723(4) 1.1274(3) 0.7574(2)
C1A C 1.4546(6) -0.2485(5) 0.5075(4)
H1A H 1.4323 -0.2584 0.4563
H2A H 1.3700 -0.2633 0.5458
C2A C 1.7057(6) -0.3471(5) 0.4991(3)
H3A H 1.7472 -0.2901 0.4595
C3A C 1.6717(6) -0.4980(5) 0.5831(3)
H4A H 1.6876 -0.5722 0.6147
C4A C 1.4853(5) -0.1219(5) 0.5027(3)
C5A C 1.5635(6) -0.0845(5) 0.5540(4)
C6A C 1.4214(6) -0.0344(5) 0.4481(4)
C7A C 0.9926(6) 0.3899(5) 0.6886(3)
H5A H 0.9312 0.3325 0.6877
C8A C 1.1194(8) 0.5303(6) 0.6520(4)
H6A H 1.1682 0.5929 0.6220
C9A C 1.2005(10) 0.5389(6) 0.7826(4)
H7A H 1.1621 0.5101 0.8371
H8A H 1.3009 0.5092 0.7748
C10A C 1.1870(8) 0.6729(6) 0.7677(3)
C11A C 1.0633(8) 0.7429(7) 0.7917(4)
H9A H 0.9842 0.7064 0.8202
C12A C 1.0573(8) 0.8651(7) 0.7736(4)
H10A H 0.9745 0.9099 0.7915
C13A C 1.1671(7) 0.9227(6) 0.7307(4)
C14A C 1.2898(8) 0.8534(6) 0.7085(4)
H11A H 1.3683 0.8909 0.6802
C15A C 1.3008(7) 0.7314(6) 0.7265(4)
H12A H 1.3860 0.6878 0.7106
C16A C 1.1526(8) 1.0572(6) 0.7076(6)
H13A H 1.0627 1.0893 0.7341
H14A H 1.1502 1.0780 0.6509
C17A C 1.4193(7) 1.2323(6) 0.7215(4)
H15A H 1.4715 1.2986 0.7051
C18A C 1.3468(7) 1.0778(5) 0.7873(4)
H16A H 1.3335 1.0101 0.8256
C19A C -0.2079(6) -0.9217(5) 0.0050(3)
H17A H -0.2691 -0.9742 0.0369
C20A C -0.1108(6) -0.8134(5) -0.0942(3)
H18A H -0.0869 -0.7728 -0.1453
C21A C 0.0780(6) -0.7421(5) -0.0303(4)
H19A H 0.1345 -0.7850 0.0101
H20A H 0.1393 -0.7365 -0.0808
C22A C -0.0911(6) -0.5530(5) -0.0347(4)
C23A C 0.1245(6) -0.5626(5) 0.0209(3)
C24_2 C 0.4992(6) -0.7098(4) 0.1080(3)
C25_2 C 0.3926(5) -0.7520(4) 0.1676(3)
C26_2 C 0.3154(6) -0.6740(5) 0.2142(3)
C27_2 C 0.3600(6) -0.8801(4) 0.1823(3)
C28_2 C 0.4778(6) -0.3839(4) 0.1276(3)
C29_2 C 0.4486(5) -0.5135(4) 0.1420(3)
C30_2 C 0.5278(6) -0.5919(4) 0.0971(3)
C31_2 C 0.3416(6) -0.5546(5) 0.2008(4)
C32A C 1.0892(5) -0.2334(4) 0.4539(3)
C33A C 1.0430(5) -0.1127(4) 0.4778(3)
C34A C 0.9729(5) -0.1020(4) 0.5533(3)
C35A C 1.0692(5) -0.0084(4) 0.4253(3)
C36A C 0.0337(5) -0.6182(5) -0.0130(3)
H21A H 1.599(6) -0.145(5) 0.588(3)
H22A H 1.370(6) -0.061(5) 0.415(3)
H23A H -0.153(6) -0.585(5) -0.061(3)
H24A H 0.201(6) -0.604(5) 0.039(3)
H25_2 H 0.549(6) -0.769(5) 0.079(3)
H26_2 H 0.251(6) -0.701(5) 0.253(3)
H27_2 H 0.592(6) -0.569(5) 0.057(3)
H28_2 H 0.288(6) -0.511(5) 0.228(3)
H29A H 0.950(7) -0.164(6) 0.589(4)
H30A H 1.111(6) -0.012(5) 0.379(3)
loop_
_geom_bond_atom_site_label_1
_geom_bond_atom_site_label_2
_geom_bond_site_symmetry_1
_geom_bond_site_symmetry_2
Co1 N3 1_555 1_555
Co2 N9 1_555 1_555
N1 N2 1_555 1_555
N2 C3 1_555 1_555
N3 C2 1_555 1_555
N4 Co1 1_555 1_555
N5 N6 1_555 1_555
N6 C7 1_555 1_555
N7 N8 1_555 1_555
N8 C16 1_555 1_555
N9 C17 1_555 1_555
N10 Co2 1_555 1_555
N11 N12 1_555 1_555
N12 C20 1_555 1_555
O1 C32 1_555 1_555
O2 Co1 1_555 1_555
O3 Co2 1_555 1_555
O4 C27 1_555 1_555
O5 C28 1_555 1_555
O6 C28 1_555 1_555
O7 Co2 1_555 1_555
O8 Co2 1_555 1_555
C1 N1 1_555 1_555
H1 C1 1_555 1_555
H2 C1 1_555 1_555
C2 N1 1_555 1_555
H3 C2 1_555 1_555
C3 N3 1_555 1_555
H4 C3 1_555 1_555
C4 C1 1_555 1_555
C5 C4 1_555 1_555
C6 C4 1_555 1_555
C7 N4 1_555 1_555
H5 C7 1_555 1_555
C8 N4 1_555 1_555
H6 C8 1_555 1_555
C9 N5 1_555 1_555
H7 C9 1_555 1_555
H8 C9 1_555 1_555
C10 C9 1_555 1_555
C11 C10 1_555 1_555
H9 C11 1_555 1_555
C12 C11 1_555 1_555
H10 C12 1_555 1_555
C13 C12 1_555 1_555
C14 C13 1_555 1_555
H11 C14 1_555 1_555
C15 C10 1_555 1_555
H12 C15 1_555 1_555
C16 C13 1_555 1_555
H13 C16 1_555 1_555
H14 C16 1_555 1_555
C17 N7 1_555 1_555
H15 C17 1_555 1_555
C18 N8 1_555 1_555
H16 C18 1_555 1_555
C19 N10 1_555 1_555
H17 C19 1_555 1_555
C20 N10 1_555 1_555
H18 C20 1_555 1_555
C21 N12 1_555 1_555
H19 C21 1_555 1_555
H20 C21 1_555 1_555
C22 C36 1_555 1_555
C23 C36 1_555 1_555
C24 C25 1_555 1_555
C25 C26 1_555 1_555
C26 C31 1_555 1_555
C27 O3 1_555 1_555
C28 C29 1_555 1_555
C29 C30 1_555 1_555
C30 C24 1_555 1_555
C31 C29 1_555 1_555
C32 O2 1_555 1_555
C33 C32 1_555 1_555
C34 C33 1_555 1_555
C35 C33 1_555 1_555
C36 C21 1_555 1_555
H21 C5 1_555 1_555
H22 C6 1_555 1_555
H23 C22 1_555 1_555
H24 C23 1_555 1_555
H25 C24 1_555 1_555
H26 C26 1_555 1_555
H27 C30 1_555 1_555
H28 C31 1_555 1_555
H29 C34 1_555 1_555
H30 C35 1_555 1_555
Co1_2 N3A 1_555 1_555
Co1_3 O2A 1_555 1_555
Co2A N9A 1_555 1_555
Co2_2 O5 1_555 1_555
Co2A_2 N10A 1_555 1_555
Co2_3 O3_2 1_555 1_555
N1A N2A 1_555 1_555
N2A C3A 1_555 1_555
N3A C2A 1_555 1_555
N3A_2 Co1 1_555 1_555
N4A Co1 1_555 1_555
N5A N6A 1_555 1_555
N6A C7A 1_555 1_555
N7A N8A 1_555 1_555
N8A C16A 1_555 1_555
N9A C17A 1_555 1_555
N10A C19A 1_555 1_555
N10A_2 Co2A 1_555 1_555
N11A N12A 1_555 1_555
N12A C20A 1_555 1_555
O1A C32A 1_555 1_555
O2A C32A 1_555 1_555
O2A_2 Co1 1_555 1_555
O3_2 C27_2 1_555 1_555
O3A Co2A 1_555 1_555
O4_2 C27_2 1_555 1_555
O5_2 Co2 1_555 1_555
O5A Co2A 1_555 1_555
O6_2 C28_2 1_555 1_555
O7A Co2A 1_555 1_555
O8A Co2A 1_555 1_555
C1A N1A 1_555 1_555
H1A C1A 1_555 1_555
H2A C1A 1_555 1_555
C2A N1A 1_555 1_555
H3A C2A 1_555 1_555
C3A N3A 1_555 1_555
H4A C3A 1_555 1_555
C4A C1A 1_555 1_555
C5A C6 1_555 1_555
C6A C5 1_555 1_555
C7A N4A 1_555 1_555
H5A C7A 1_555 1_555
C8A N4A 1_555 1_555
H6A C8A 1_555 1_555
C9A N5A 1_555 1_555
H7A C9A 1_555 1_555
H8A C9A 1_555 1_555
C10A C9A 1_555 1_555
C11A C10A 1_555 1_555
H9A C11A 1_555 1_555
C12A C11A 1_555 1_555
H10A C12A 1_555 1_555
C13A C12A 1_555 1_555
C14A C13A 1_555 1_555
H11A C14A 1_555 1_555
C15A C10A 1_555 1_555
H12A C15A 1_555 1_555
C16A C13A 1_555 1_555
H13A C16A 1_555 1_555
H14A C16A 1_555 1_555
C17A N7A 1_555 1_555
H15A C17A 1_555 1_555
C18A N8A 1_555 1_555
H16A C18A 1_555 1_555
C19A N11A 1_555 1_555
H17A C19A 1_555 1_555
C20A N10A 1_555 1_555
H18A C20A 1_555 1_555
C21A N12A 1_555 1_555
H19A C21A 1_555 1_555
H20A C21A 1_555 1_555
C22A C23 1_555 1_555
C23A C22 1_555 1_555
C24_2 C25_2 1_555 1_555
C25_2 C26_2 1_555 1_555
C26_2 C31_2 1_555 1_555
C27_2 C25_2 1_555 1_555
C28_2 O5_2 1_555 1_555
C29_2 C28_2 1_555 1_555
C30_2 C24_2 1_555 1_555
C31_2 C29_2 1_555 1_555
C32A C33A 1_555 1_555
C33A C34A 1_555 1_555
C34A C35 1_555 1_555
C35A C34 1_555 1_555
C36A C21A 1_555 1_555
H21A C5A 1_555 1_555
H22A C6A 1_555 1_555
H23A C22A 1_555 1_555
H24A C23A 1_555 1_555
H25_2 C24_2 1_555 1_555
H26_2 C26_2 1_555 1_555
H27_2 C30_2 1_555 1_555
H28_2 C31_2 1_555 1_555
H29A C34A 1_555 1_555
H30A C35A 1_555 1_555
N5 C8 1_555 1_555
N9 C18 1_555 1_555
N11 C19 1_555 1_555
C14 C15 1_555 1_555
C25 C27 1_555 1_555
N5A C8A 1_555 1_555
N9A C18A 1_555 1_555
C4A C5A 1_555 1_555
C4A C6A 1_555 1_555
C14A C15A 1_555 1_555
C22A C36A 1_555 1_555
C23A C36A 1_555 1_555
C29_2 C30_2 1_555 1_555
C33A C35A 1_555 1_555

#END
