
#######################################################################
#
#                 Cambridge Crystallographic Data Centre
#                                CCDC 
#
#######################################################################
#
# If this CIF has been generated from an entry in the Cambridge 
# Structural Database, then it will include bibliographic, chemical, 
# crystal, experimental, refinement or atomic coordinate data resulting 
# from the CCDC's data processing and validation procedures.
#
#######################################################################

data_CUZRIZ
_symmetry_cell_setting           monoclinic
_symmetry_space_group_name_H-M   'C 2/c'
_symmetry_Int_Tables_number      15
_space_group_name_Hall           '-C 2yn'
loop_
_symmetry_equiv_pos_site_id
_symmetry_equiv_pos_as_xyz
1 x,y,z
2 -x,y,1/2-z
3 1/2+x,1/2+y,z
4 1/2-x,1/2+y,1/2-z
5 -x,-y,-z
6 x,-y,1/2+z
7 1/2-x,1/2-y,-z
8 1/2+x,1/2-y,1/2+z
_cell_length_a                   17.4662(15)
_cell_length_b                   10.7064(10)
_cell_length_c                   21.6812(19)
_cell_angle_alpha                90
_cell_angle_beta                 104.8370(10)
_cell_angle_gamma                90
_cell_volume                     3919.21
loop_
_atom_site_label
_atom_site_type_symbol
_atom_site_fract_x
_atom_site_fract_y
_atom_site_fract_z
C1 C 0.43651(16) 0.1564(3) 0.66341(14)
H1 H 0.4343 0.1402 0.7051
C2 C 0.48362(16) 0.1106(2) 0.57826(15)
H2 H 0.5146 0.0605 0.5592
C3 C 0.44194(15) 0.2073(2) 0.54279(13)
H3 H 0.4459 0.2226 0.5015
C4 C 0.39410(14) 0.2808(2) 0.56998(12)
C5 C 0.39182(14) 0.2540(2) 0.63144(12)
H4 H 0.3604 0.3013 0.6514
C6 C 0.35074(15) 0.3897(2) 0.53392(12)
C7 C 0.23070(14) 0.5151(2) 0.51363(11)
C8 C 0.20981(13) 0.53401(19) 0.44860(11)
H5 H 0.2256 0.4775 0.4217
C9 C 0.16518(13) 0.6375(2) 0.42349(11)
C10 C 0.13922(14) 0.6577(2) 0.35197(11)
C11 C 0.14241(13) 0.7209(2) 0.46422(11)
H6 H 0.1123 0.7905 0.4475
C12 C 0.16396(13) 0.7022(2) 0.52972(11)
C13 C 0.20791(13) 0.5976(2) 0.55473(11)
H7 H 0.2219 0.5832 0.5985
C14 C 0.14606(14) 0.7912(2) 0.63096(12)
C15 C 0.11502(14) 0.9049(2) 0.65720(11)
C16 C 0.06300(15) 0.9871(2) 0.62089(11)
H8 H 0.0459 0.9758 0.5770
C17 C 0.03577(15) 1.0866(2) 0.64902(12)
H9 H 0.0010 1.1421 0.6230
C18 C 0.13826(16) 0.9270(2) 0.72221(12)
H10 H 0.1739 0.8737 0.7490
C19 C 0.10808(15) 1.0289(2) 0.74688(12)
H11 H 0.1247 1.0432 0.7906
H12 H 0.0327(15) 0.556(2) 0.1863(12)
N1 N 0.05634(11) 1.10783(16) 0.71133(9)
N2 N 0.14214(11) 0.79608(16) 0.56801(9)
H13 H 0.1242 0.8644 0.5488
N3 N 0.27772(11) 0.41026(16) 0.54093(9)
H14 H 0.2583 0.3578 0.5629
N4 N 0.48224(13) 0.0847(2) 0.63832(12)
Ni1 Ni 0.0000 0.75084(4) 0.2500
O1 O 0.17069(11) 0.70045(15) 0.66441(8)
O2 O 0.38311(10) 0.45584(16) 0.50181(8)
O3 O 0.16703(10) 0.58764(15) 0.31713(7)
O4 O 0.08919(8) 0.74330(14) 0.33292(7)
O5 O 0.06067(10) 0.62107(15) 0.20694(8)
H15 H 0.0975 0.5904 0.2341
C1A C -0.43651(16) 0.1564(3) -0.16341(14)
H1A H -0.4343 0.1402 -0.2051
C2A C -0.48362(16) 0.1106(2) -0.07826(15)
H2A H -0.5146 0.0605 -0.0592
C3A C -0.44194(15) 0.2073(2) -0.04279(13)
H3A H -0.4459 0.2226 -0.0015
C4A C -0.39410(14) 0.2808(2) -0.06998(12)
C5A C -0.39182(14) 0.2540(2) -0.13144(12)
H4A H -0.3604 0.3013 -0.1514
C6A C -0.35074(15) 0.3897(2) -0.03392(12)
C7A C -0.23070(14) 0.5151(2) -0.01363(11)
C8A C -0.20981(13) 0.53401(19) 0.05140(11)
H5A H -0.2256 0.4775 0.0783
C9A C -0.16518(13) 0.6375(2) 0.07651(11)
C10A C -0.13922(14) 0.6577(2) 0.14803(11)
C11A C -0.14241(13) 0.7209(2) 0.03578(11)
H6A H -0.1123 0.7905 0.0525
C12A C -0.16396(13) 0.7022(2) -0.02972(11)
C13A C -0.20791(13) 0.5976(2) -0.05473(11)
H7A H -0.2219 0.5832 -0.0985
C14A C -0.14606(14) 0.7912(2) -0.13096(12)
C15A C -0.11502(14) 0.9049(2) -0.15720(11)
C16A C -0.06300(15) 0.9871(2) -0.12089(11)
H8A H -0.0459 0.9758 -0.0770
C17A C -0.03577(15) 1.0866(2) -0.14902(12)
H9A H -0.0010 1.1421 -0.1230
C18A C -0.13826(16) 0.9270(2) -0.22221(12)
H10A H -0.1739 0.8737 -0.2490
C19A C -0.10808(15) 1.0289(2) -0.24688(12)
H11A H -0.1247 1.0432 -0.2906
H12A H -0.0327(15) 0.556(2) 0.3137(12)
N1A N -0.05634(11) 1.10783(16) -0.21133(9)
N1D N -0.05634(11) 0.89217(16) 0.28867(9)
N1E N 0.05634(11) 0.89217(16) 0.21133(9)
N2A N -0.14214(11) 0.79608(16) -0.06801(9)
H13A H -0.1242 0.8644 -0.0488
N3A N -0.27772(11) 0.41026(16) -0.04093(9)
H14A H -0.2583 0.3578 -0.0629
N4A N -0.48224(13) 0.0847(2) -0.13832(12)
Ni1D Ni 0.0000 1.24916(4) -0.2500
Ni1D_2 Ni 0.0000 1.24916(4) 0.7500
O1A O -0.17069(11) 0.70045(15) -0.16441(8)
O2A O -0.38311(10) 0.45584(16) -0.00181(8)
O3A O -0.16703(10) 0.58764(15) 0.18287(7)
O4A O -0.08919(8) 0.74330(14) 0.16708(7)
O5A O -0.06067(10) 0.62107(15) 0.29306(8)
H15A H -0.0975 0.5904 0.2659
O6 O 0.23257(16) 0.6370(2) 0.79279(14)
H16 H 0.211(2) 0.562(4) 0.8001(19)
H17 H 0.215(2) 0.648(4) 0.7575(18)
O7 O 0.1891(2) 0.3113(3) 0.62648(14)
H18 H 0.214(2) 0.246(3) 0.6504(18)
H19 H 0.150(2) 0.333(3) 0.6338(18)
loop_
_geom_bond_atom_site_label_1
_geom_bond_atom_site_label_2
_geom_bond_site_symmetry_1
_geom_bond_site_symmetry_2
C1 H1 1_555 1_555
C2 H2 1_555 1_555
C3 C2 1_555 1_555
H3 C3 1_555 1_555
C4 C3 1_555 1_555
C5 C1 1_555 1_555
H4 C5 1_555 1_555
C6 C4 1_555 1_555
C7 C8 1_555 1_555
C8 H5 1_555 1_555
C9 C8 1_555 1_555
C10 C9 1_555 1_555
C11 C9 1_555 1_555
H6 C11 1_555 1_555
C12 C11 1_555 1_555
C13 C7 1_555 1_555
H7 C13 1_555 1_555
C14 C15 1_555 1_555
C15 C16 1_555 1_555
C16 H8 1_555 1_555
C17 C16 1_555 1_555
H9 C17 1_555 1_555
C18 C15 1_555 1_555
H10 C18 1_555 1_555
C19 C18 1_555 1_555
H11 C19 1_555 1_555
H12 O5 1_555 1_555
N1 C17 1_555 1_555
N2 C12 1_555 1_555
H13 N2 1_555 1_555
N3 C6 1_555 1_555
H14 N3 1_555 1_555
N4 C1 1_555 1_555
Ni1 O4 1_555 1_555
O1 C14 1_555 1_555
O2 C6 1_555 1_555
O3 C10 1_555 1_555
O4 C10 1_555 1_555
O5 Ni1 1_555 1_555
H15 O5 1_555 1_555
O6 H16 1_555 1_555
H17 O6 1_555 1_555
O7 H18 1_555 1_555
H19 O7 1_555 1_555
C1A H1A 1_555 1_555
C2A H2A 1_555 1_555
C3A C2A 1_555 1_555
H3A C3A 1_555 1_555
C4A C3A 1_555 1_555
C5A C1A 1_555 1_555
H4A C5A 1_555 1_555
C6A C4A 1_555 1_555
C7A C8A 1_555 1_555
C8A H5A 1_555 1_555
C9A C8A 1_555 1_555
C10A C9A 1_555 1_555
C11A C9A 1_555 1_555
H6A C11A 1_555 1_555
C12A C11A 1_555 1_555
C13A C7A 1_555 1_555
H7A C13A 1_555 1_555
C14A C15A 1_555 1_555
C15A C16A 1_555 1_555
C16A H8A 1_555 1_555
C17A C16A 1_555 1_555
H9A C17A 1_555 1_555
C18A C15A 1_555 1_555
H10A C18A 1_555 1_555
C19A C18A 1_555 1_555
H11A C19A 1_555 1_555
H12A O5A 1_555 1_555
N1A C17A 1_555 1_555
N1D Ni1 1_555 1_555
N1E Ni1 1_555 1_555
N2A C12A 1_555 1_555
H13A N2A 1_555 1_555
N3A C6A 1_555 1_555
H14A N3A 1_555 1_555
N4A C1A 1_555 1_555
Ni1D N1A 1_555 1_555
Ni1D_2 N1 1_555 1_555
O1A C14A 1_555 1_555
O2A C6A 1_555 1_555
O3A C10A 1_555 1_555
O4A Ni1 1_555 1_555
O5A Ni1 1_555 1_555
H15A O5A 1_555 1_555
C2 N4 1_555 1_555
C4 C5 1_555 1_555
C7 N3 1_555 1_555
C12 C13 1_555 1_555
C14 N2 1_555 1_555
C19 N1 1_555 1_555
C2A N4A 1_555 1_555
C4A C5A 1_555 1_555
C7A N3A 1_555 1_555
C10A O4A 1_555 1_555
C12A C13A 1_555 1_555
C14A N2A 1_555 1_555
C19A N1A 1_555 1_555

#END
