
#######################################################################
#
#                 Cambridge Crystallographic Data Centre
#                                CCDC 
#
#######################################################################
#
# If this CIF has been generated from an entry in the Cambridge 
# Structural Database, then it will include bibliographic, chemical, 
# crystal, experimental, refinement or atomic coordinate data resulting 
# from the CCDC's data processing and validation procedures.
#
#######################################################################

data_CUZSOG
_symmetry_cell_setting           monoclinic
_symmetry_space_group_name_H-M   'P 21/n'
_symmetry_Int_Tables_number      14
_space_group_name_Hall           '-P 2yn'
loop_
_symmetry_equiv_pos_site_id
_symmetry_equiv_pos_as_xyz
1 x,y,z
2 1/2-x,1/2+y,1/2-z
3 -x,-y,-z
4 1/2+x,1/2-y,1/2+z
_cell_length_a                   8.2100(3)
_cell_length_b                   10.6200(3)
_cell_length_c                   25.4621(7)
_cell_angle_alpha                90
_cell_angle_beta                 90.618(2)
_cell_angle_gamma                90
_cell_volume                     2219.92
loop_
_atom_site_label
_atom_site_type_symbol
_atom_site_fract_x
_atom_site_fract_y
_atom_site_fract_z
Co1 Co 0.64163(4) 0.29556(2) 0.527949(11)
C1 C 0.2819(3) 0.29109(18) 0.57434(8)
C2 C 0.3082(3) 0.20960(18) 0.62229(8)
C3 C 0.3662(3) 0.2652(2) 0.66700(9)
H1 H 0.3954 0.3497 0.6660
C4 C 0.3832(3) 0.1988(2) 0.71462(9)
C5 C 0.4421(3) 0.2554(3) 0.76159(10)
H2 H 0.4709 0.3401 0.7617
C6 C 0.4569(4) 0.1857(3) 0.80691(11)
H3 H 0.4947 0.2239 0.8376
C7 C 0.4157(4) 0.0584(3) 0.80731(10)
H4 H 0.4268 0.0121 0.8382
C8 C 0.3601(3) 0.0021(3) 0.76332(10)
H5 H 0.3349 -0.0833 0.7641
C9 C 0.3391(3) 0.0703(2) 0.71580(9)
C10 C 0.2779(3) 0.0144(2) 0.66948(9)
H6 H 0.2480 -0.0700 0.6701
C11 C 0.2611(3) 0.08055(19) 0.62355(8)
C12 C 0.2091(3) 0.0106(2) 0.57499(8)
C13 C 0.8236(3) 0.1851(2) 0.62185(9)
H7 H 0.8437 0.1231 0.5969
C14 C 0.8708(3) 0.1631(3) 0.67305(10)
H8 H 0.9208 0.0877 0.6824
C15 C 0.8427(3) 0.2542(3) 0.71004(10)
C16 C 0.7716(3) 0.3670(2) 0.69436(9)
H9 H 0.7540 0.4314 0.7184
C17 C 0.7279(3) 0.3810(2) 0.64238(9)
H10 H 0.6805 0.4566 0.6319
C18 C 0.9125(3) 0.2613(2) 0.84785(9)
C19 C 0.8312(3) 0.3059(2) 0.89082(9)
H11 H 0.7358 0.3523 0.8868
C20 C 0.8944(3) 0.2803(2) 0.94015(9)
H12 H 0.8368 0.3078 0.9692
C21 C 1.1102(3) 0.1747(2) 0.90587(9)
H13 H 1.2063 0.1295 0.9107
C22 C 1.0539(3) 0.1934(2) 0.85547(9)
H14 H 1.1102 0.1609 0.8270
N1 N 0.7502(2) 0.29165(16) 0.60614(7)
N2 N 1.0342(2) 0.21796(16) 0.94835(7)
N3 N 0.8974(3) 0.2224(2) 0.76248(9)
N4 N 0.8491(3) 0.2956(2) 0.79650(8)
O1 O 0.40467(19) 0.34449(13) 0.55414(6)
O2 O 0.1392(2) 0.30937(14) 0.55944(7)
O3 O 0.2808(2) 0.04227(14) 0.53320(6)
O4 O 0.1063(2) -0.07504(15) 0.57856(7)
O5 O 0.6946(2) 0.48125(13) 0.51982(6)
H15 H 0.6620 0.5348 0.4972
H16 H 0.7805 0.5118 0.5337
O6 O 0.5978(2) 0.10749(13) 0.53924(6)
H17 H 0.4986 0.0848 0.5379
H18 H 0.6403 0.0593 0.5165
O7 O 0.87546(19) 0.24683(14) 0.49646(6)
H19 H 0.9589 0.2457 0.5165
H20 H 0.8910 0.1869 0.4750
Co1C Co 1.14163(4) 0.20444(2) 1.027949(11)
N2C N 0.5342(2) 0.28204(16) 0.44835(7)
O8 O 0.0176(2) 0.45445(15) 0.43691(6)
H21 H -0.0231 0.3980 0.4565
H22 H -0.0452 0.5168 0.4418
loop_
_geom_bond_atom_site_label_1
_geom_bond_atom_site_label_2
_geom_bond_site_symmetry_1
_geom_bond_site_symmetry_2
Co1 N1 1_555 1_555
C1 C2 1_555 1_555
C2 C3 1_555 1_555
C3 H1 1_555 1_555
C4 C3 1_555 1_555
C5 C4 1_555 1_555
H2 C5 1_555 1_555
C6 C5 1_555 1_555
H3 C6 1_555 1_555
C7 C6 1_555 1_555
H4 C7 1_555 1_555
C8 C7 1_555 1_555
H5 C8 1_555 1_555
C9 C4 1_555 1_555
C10 C9 1_555 1_555
H6 C10 1_555 1_555
C11 C2 1_555 1_555
C12 C11 1_555 1_555
C13 H7 1_555 1_555
C14 C13 1_555 1_555
H8 C14 1_555 1_555
C15 C14 1_555 1_555
C16 C15 1_555 1_555
H9 C16 1_555 1_555
C17 C16 1_555 1_555
H10 C17 1_555 1_555
C18 C19 1_555 1_555
C19 H11 1_555 1_555
C20 C19 1_555 1_555
H12 C20 1_555 1_555
C21 H13 1_555 1_555
C22 C18 1_555 1_555
H14 C22 1_555 1_555
N1 C13 1_555 1_555
N2 C20 1_555 1_555
N3 C15 1_555 1_555
N4 C18 1_555 1_555
O1 Co1 1_555 1_555
O2 C1 1_555 1_555
O3 C12 1_555 1_555
O4 C12 1_555 1_555
O5 Co1 1_555 1_555
H15 O5 1_555 1_555
H16 O5 1_555 1_555
O6 Co1 1_555 1_555
H17 O6 1_555 1_555
H18 O6 1_555 1_555
O7 Co1 1_555 1_555
H19 O7 1_555 1_555
H20 O7 1_555 1_555
O8 H21 1_555 1_555
H22 O8 1_555 1_555
Co1C N2 1_555 1_555
N2C Co1 1_555 1_555
C1 O1 1_555 1_555
C8 C9 1_555 1_555
C10 C11 1_555 1_555
C17 N1 1_555 1_555
C21 C22 1_555 1_555
C21 N2 1_555 1_555
N3 N4 1_555 1_555

#END
