
#######################################################################
#
#                 Cambridge Crystallographic Data Centre
#                                CCDC 
#
#######################################################################
#
# If this CIF has been generated from an entry in the Cambridge 
# Structural Database, then it will include bibliographic, chemical, 
# crystal, experimental, refinement or atomic coordinate data resulting 
# from the CCDC's data processing and validation procedures.
#
#######################################################################

data_DABDAN
_symmetry_cell_setting           monoclinic
_symmetry_space_group_name_H-M   'P 21/c'
_symmetry_Int_Tables_number      14
_space_group_name_Hall           '-P 2ybc'
loop_
_symmetry_equiv_pos_site_id
_symmetry_equiv_pos_as_xyz
1 x,y,z
2 -x,1/2+y,1/2-z
3 -x,-y,-z
4 x,1/2-y,1/2+z
_cell_length_a                   8.6667(5)
_cell_length_b                   8.6020(5)
_cell_length_c                   21.8779(14)
_cell_angle_alpha                90
_cell_angle_beta                 96.882(3)
_cell_angle_gamma                90
_cell_volume                     1619.27
loop_
_atom_site_label
_atom_site_type_symbol
_atom_site_fract_x
_atom_site_fract_y
_atom_site_fract_z
Ag1 Ag 0.35275(2) 0.91895(2) 0.302590(10)
N1 N 0.3674(2) 1.0785(2) 0.38959(11)
C1 C 0.2384(3) 1.0864(3) 0.41820(11)
C2 C 0.2330(3) 1.1690(3) 0.47252(11)
H1 H 0.1397 1.1741 0.4912
C3 C 0.3665(4) 1.2439(4) 0.49885(13)
H2 H 0.3668 1.2996 0.5364
C4 C 0.4985(4) 1.2359(4) 0.46959(17)
H3 H 0.5912 1.2868 0.4865
C5 C 0.4943(3) 1.1534(4) 0.41560(16)
H4 H 0.5858 1.1493 0.3957
N2 N -0.0308(2) 0.8476(2) 0.32652(9)
N3 N 0.1129(2) 0.9077(2) 0.34147(9)
C6 C 0.1001(3) 1.0030(2) 0.38882(10)
C7 C -0.0527(3) 1.0049(3) 0.40384(11)
H5 H -0.0921 1.0633 0.4354
C8 C -0.1329(3) 0.9041(3) 0.36295(11)
H6 H -0.2401 0.8788 0.3607
C9 C -0.0598(3) 0.7409(2) 0.27408(11)
H7 H -0.1565 0.6818 0.2774
H8 H 0.0269 0.6657 0.2751
C10 C -0.0751(3) 0.8282(2) 0.21366(10)
C11 C 0.0534(3) 0.8454(2) 0.18197(10)
H9 H 0.1487 0.7963 0.1970
C12 C 0.0439(3) 0.9336(2) 0.12855(10)
H10 H 0.1321 0.9459 0.1071
C13 C -0.0966(3) 1.0039(3) 0.10685(10)
C14 C -0.2280(3) 0.9850(3) 0.13766(11)
H11 H -0.3238 1.0324 0.1222
C15 C -0.2169(3) 0.8964(3) 0.19092(11)
H12 H -0.3055 0.8819 0.2120
C16 C -0.1074(3) 1.1008(3) 0.05273(11)
N4 N -0.1178(2) 1.1797(3) 0.00995(9)
O1 O 0.5338(2) 0.7106(2) 0.34262(10)
O2 O 0.4510(3) 0.6629(3) 0.24705(10)
O3 O 0.6188(2) 0.5093(2) 0.29716(9)
N5 N 0.5345(2) 0.6281(2) 0.29532(11)
Ag1A Ag 0.64725(2) 0.41895(2) 0.197410(10)
O3A O 0.3812(2) 1.0093(2) 0.20284(9)
loop_
_geom_bond_atom_site_label_1
_geom_bond_atom_site_label_2
_geom_bond_site_symmetry_1
_geom_bond_site_symmetry_2
Ag1 N1 1_555 1_555
N1 C1 1_555 1_555
C1 C2 1_555 1_555
C2 H1 1_555 1_555
C3 C2 1_555 1_555
H2 C3 1_555 1_555
C4 C3 1_555 1_555
H3 C4 1_555 1_555
C5 N1 1_555 1_555
H4 C5 1_555 1_555
N2 N3 1_555 1_555
N3 Ag1 1_555 1_555
C6 C1 1_555 1_555
C7 C6 1_555 1_555
H5 C7 1_555 1_555
C8 N2 1_555 1_555
H6 C8 1_555 1_555
C9 N2 1_555 1_555
H7 C9 1_555 1_555
H8 C9 1_555 1_555
C10 C9 1_555 1_555
C11 C10 1_555 1_555
H9 C11 1_555 1_555
C12 C11 1_555 1_555
H10 C12 1_555 1_555
C13 C12 1_555 1_555
C14 C13 1_555 1_555
H11 C14 1_555 1_555
C15 C10 1_555 1_555
H12 C15 1_555 1_555
C16 C13 1_555 1_555
N4 C16 1_555 1_555
O1 Ag1 1_555 1_555
O2 N5 1_555 1_555
O3 N5 1_555 1_555
N5 O1 1_555 1_555
Ag1A O3 1_555 1_555
O3A Ag1 1_555 1_555
C4 C5 1_555 1_555
N3 C6 1_555 1_555
C7 C8 1_555 1_555
C14 C15 1_555 1_555

#END
