
#######################################################################
#
#                 Cambridge Crystallographic Data Centre
#                                CCDC 
#
#######################################################################
#
# If this CIF has been generated from an entry in the Cambridge 
# Structural Database, then it will include bibliographic, chemical, 
# crystal, experimental, refinement or atomic coordinate data resulting 
# from the CCDC's data processing and validation procedures.
#
#######################################################################

data_DABFUJ
_symmetry_cell_setting           monoclinic
_symmetry_space_group_name_H-M   'P 21/n'
_symmetry_Int_Tables_number      14
_space_group_name_Hall           '-P 2yn'
loop_
_symmetry_equiv_pos_site_id
_symmetry_equiv_pos_as_xyz
1 x,y,z
2 1/2-x,1/2+y,1/2-z
3 -x,-y,-z
4 1/2+x,1/2-y,1/2+z
_cell_length_a                   8.2337(3)
_cell_length_b                   16.3732(6)
_cell_length_c                   12.5880(5)
_cell_angle_alpha                90
_cell_angle_beta                 105.866(2)
_cell_angle_gamma                90
_cell_volume                     1632.36
loop_
_atom_site_label
_atom_site_type_symbol
_atom_site_fract_x
_atom_site_fract_y
_atom_site_fract_z
Ag1 Ag 0.18784(4) 1.02875(2) 1.00373(3)
N1 N 0.3985(5) 0.9539(2) 1.1101(3)
C1 C 0.4638(5) 0.8954(2) 1.0583(4)
C2 C 0.6051(5) 0.8497(3) 1.1130(4)
H1 H 0.6477 0.8080 1.0755
C3 C 0.6820(6) 0.8665(3) 1.2233(4)
H2 H 0.7797 0.8372 1.2622
C4 C 0.6155(7) 0.9260(3) 1.2757(4)
H3 H 0.6667 0.9384 1.3511
C5 C 0.4725(7) 0.9676(3) 1.2172(4)
H4 H 0.4251 1.0075 1.2547
N2 N 0.2016(5) 0.9060(2) 0.7850(3)
N3 N 0.2422(4) 0.9256(2) 0.8930(3)
C6 C 0.3821(5) 0.8832(2) 0.9401(3)
C7 C 0.4311(6) 0.8356(3) 0.8617(4)
H5 H 0.5256 0.8000 0.8737
C8 C 0.3122(6) 0.8517(3) 0.7635(4)
H6 H 0.3085 0.8288 0.6935
C9 C 0.0447(6) 0.9378(3) 0.7108(4)
H7 H 0.0672 0.9575 0.6418
H8 H 0.0048 0.9848 0.7464
C10 C -0.0920(5) 0.8728(3) 0.6831(4)
C11 C -0.2244(7) 0.8840(3) 0.5894(4)
H9 H -0.2321 0.9331 0.5481
C12 C -0.0876(7) 0.8041(3) 0.7468(4)
H10 H -0.0008 0.7981 0.8138
N4 N -0.5315(5) 0.6317(2) 0.5416(4)
C13 C -0.4468(6) 0.6864(3) 0.5758(4)
C14 C -0.3333(5) 0.7526(3) 0.6158(4)
C15 C -0.2087(6) 0.7437(3) 0.7140(4)
H11 H -0.2061 0.6966 0.7586
C16 C -0.3457(7) 0.8241(3) 0.5556(5)
H12 H -0.4370 0.8320 0.4914
Ag1B Ag -0.18784(4) 0.97125(2) 0.99627(3)
Ag1A Ag -0.68784(4) 0.52875(2) 0.49627(3)
N4A N 0.0315(5) 1.1317(2) 0.9584(4)
B1 B 0.8158(4) 0.12014(16) 0.5567(2)
F1 F 0.7521(4) 0.19759(16) 0.5288(2)
F2 F 0.7312(8) 0.0654(2) 0.4771(4)
F3 F 0.9856(4) 0.1191(3) 0.5623(4)
F4 F 0.7947(8) 0.0968(2) 0.6568(3)
F5? F 0.7874(19) 0.0725(3) 0.4630(4)
F6? F 0.9470(12) 0.1245(4) 0.6525(7)
F7? F 0.7156(13) 0.0803(4) 0.6126(11)
loop_
_geom_bond_atom_site_label_1
_geom_bond_atom_site_label_2
_geom_bond_site_symmetry_1
_geom_bond_site_symmetry_2
Ag1 N1 1_555 1_555
N1 C1 1_555 1_555
C1 C2 1_555 1_555
C2 H1 1_555 1_555
C3 C2 1_555 1_555
H2 C3 1_555 1_555
C4 C3 1_555 1_555
H3 C4 1_555 1_555
C5 N1 1_555 1_555
H4 C5 1_555 1_555
N2 N3 1_555 1_555
N3 Ag1 1_555 1_555
C6 C1 1_555 1_555
C7 C6 1_555 1_555
H5 C7 1_555 1_555
C8 N2 1_555 1_555
H6 C8 1_555 1_555
C9 N2 1_555 1_555
H7 C9 1_555 1_555
H8 C9 1_555 1_555
C10 C9 1_555 1_555
C11 C10 1_555 1_555
H9 C11 1_555 1_555
C12 C10 1_555 1_555
H10 C12 1_555 1_555
N4 C13 1_555 1_555
C13 C14 1_555 1_555
C14 C15 1_555 1_555
C15 C12 1_555 1_555
H11 C15 1_555 1_555
C16 C11 1_555 1_555
H12 C16 1_555 1_555
B1 F1 1_555 1_555
F2 B1 1_555 1_555
F3 B1 1_555 1_555
F4 B1 1_555 1_555
Ag1B Ag1 1_555 1_555
Ag1A N4 1_555 1_555
N4A Ag1 1_555 1_555
C4 C5 1_555 1_555
N3 C6 1_555 1_555
C7 C8 1_555 1_555
C14 C16 1_555 1_555

#END
