
#######################################################################
#
#                 Cambridge Crystallographic Data Centre
#                                CCDC 
#
#######################################################################
#
# If this CIF has been generated from an entry in the Cambridge 
# Structural Database, then it will include bibliographic, chemical, 
# crystal, experimental, refinement or atomic coordinate data resulting 
# from the CCDC's data processing and validation procedures.
#
#######################################################################

data_DACJUO
_symmetry_cell_setting           orthorhombic
_symmetry_space_group_name_H-M   'P n a 21'
_symmetry_Int_Tables_number      33
_space_group_name_Hall           'P 2c -2n'
loop_
_symmetry_equiv_pos_site_id
_symmetry_equiv_pos_as_xyz
1 x,y,z
2 -x,-y,1/2+z
3 1/2-x,1/2+y,1/2+z
4 1/2+x,1/2-y,z
_cell_length_a                   14.5991(4)
_cell_length_b                   6.25969(12)
_cell_length_c                   12.0540(4)
_cell_angle_alpha                90
_cell_angle_beta                 90
_cell_angle_gamma                90
_cell_volume                     1101.56
loop_
_atom_site_label
_atom_site_type_symbol
_atom_site_fract_x
_atom_site_fract_y
_atom_site_fract_z
Ag1 Ag 0.53530(5) 1.11608(13) 0.94253(7)
Ag2 Ag 0.50478(6) 1.40474(11) 0.65413(7)
Ag3 Ag 0.34219(5) 1.44638(12) 0.46689(8)
Ag4 Ag 0.15540(5) 1.49217(12) 0.55590(9)
O1 O 0.2091(4) 1.1954(10) 0.6270(7)
O2 O 0.3575(4) 1.1801(10) 0.5879(6)
O3 O 0.5056(4) 1.0592(10) 0.7575(7)
O4 O 0.5011(4) 0.8149(10) 0.6238(5)
O5 O 0.5217(4) 0.5056(10) 0.8417(6)
O6 O 0.4650(4) 0.7077(10) 0.9769(6)
O7 O 0.3552(4) 0.2767(10) 0.9477(6)
O8 O 0.2048(4) 0.2759(10) 0.9268(6)
C1 C 0.2890(6) 0.5560(11) 0.8449(7)
C2 C 0.2089(6) 0.6332(15) 0.7962(9)
H1 H 0.1540 0.5613 0.8082
C3 C 0.2094(6) 0.8142(14) 0.7306(9)
H2 H 0.1546 0.8689 0.7035
C4 C 0.2915(6) 0.9146(11) 0.7050(8)
C5 C 0.3736(4) 0.8318(11) 0.7451(7)
C6 C 0.3723(5) 0.6612(13) 0.8218(7)
C7 C 0.2847(6) 1.1157(12) 0.6338(8)
C8 C 0.4659(4) 0.9116(12) 0.7065(8)
C9 C 0.4574(5) 0.6114(12) 0.8844(8)
C10 C 0.2831(6) 0.3543(11) 0.9135(7)
Ag1A Ag 0.46470(5) 0.88392(13) 0.44253(7)
Ag1C Ag 0.03530(5) 0.38392(13) 0.94253(7)
Ag2_2 Ag 0.50478(6) 0.40474(11) 0.65413(7)
Ag2A Ag 0.49522(6) 0.59526(11) 1.15413(7)
Ag3A Ag 0.65781(5) 0.55362(12) 0.96689(8)
Ag3B Ag 0.15781(5) -0.05362(12) 0.96689(8)
Ag4B Ag 0.34460(5) -0.00783(12) 1.05590(9)
O4A O 0.4989(4) 1.1851(10) 1.1238(5)
O4_2 O 0.5011(4) 1.8149(10) 0.6238(5)
O5_2 O 0.5217(4) 1.5056(10) 0.8417(6)
O5A O 0.4783(4) 1.4944(10) 0.3417(6)
O6A O 0.5350(4) 1.2923(10) 0.4769(6)
O7B O 0.1448(4) 1.7767(10) 0.4477(6)
O8C O 0.7048(4) 1.2241(10) 0.9268(6)
O8B O 0.2952(4) 1.7759(10) 0.4268(6)
loop_
_geom_bond_atom_site_label_1
_geom_bond_atom_site_label_2
_geom_bond_site_symmetry_1
_geom_bond_site_symmetry_2
Ag1 O3 1_555 1_555
Ag2 O3 1_555 1_555
Ag3 O2 1_555 1_555
Ag4 O1 1_555 1_555
O1 C7 1_555 1_555
O2 C7 1_555 1_555
O3 C8 1_555 1_555
O4 C8 1_555 1_555
O5 C9 1_555 1_555
O6 C9 1_555 1_555
O7 C10 1_555 1_555
O8 C10 1_555 1_555
C1 C2 1_555 1_555
C2 H1 1_555 1_555
C3 C2 1_555 1_555
H2 C3 1_555 1_555
C4 C3 1_555 1_555
C5 C4 1_555 1_555
C6 C1 1_555 1_555
C7 C4 1_555 1_555
C8 C5 1_555 1_555
C9 C6 1_555 1_555
C10 C1 1_555 1_555
Ag1A O4 1_555 1_555
Ag1C O8 1_555 1_555
Ag2_2 O4 1_555 1_555
Ag2A O6 1_555 1_555
Ag3A O5 1_555 1_555
Ag3B O8 1_555 1_555
Ag4B O7 1_555 1_555
O4A Ag1 1_555 1_555
O4_2 Ag2 1_555 1_555
O5_2 Ag2 1_555 1_555
O5A Ag3 1_555 1_555
O6A Ag2 1_555 1_555
O7B Ag4 1_555 1_555
O8C Ag1 1_555 1_555
O8B Ag3 1_555 1_555
O5 Ag2_2 1_555 1_555
C5 C6 1_555 1_555

#END
