
#######################################################################
#
#                 Cambridge Crystallographic Data Centre
#                                CCDC 
#
#######################################################################
#
# If this CIF has been generated from an entry in the Cambridge 
# Structural Database, then it will include bibliographic, chemical, 
# crystal, experimental, refinement or atomic coordinate data resulting 
# from the CCDC's data processing and validation procedures.
#
#######################################################################

data_DACLUQ
_symmetry_cell_setting           monoclinic
_symmetry_space_group_name_H-M   'C 2/c'
_symmetry_Int_Tables_number      15
_space_group_name_Hall           '-C 2yn'
loop_
_symmetry_equiv_pos_site_id
_symmetry_equiv_pos_as_xyz
1 x,y,z
2 -x,y,1/2-z
3 1/2+x,1/2+y,z
4 1/2-x,1/2+y,1/2-z
5 -x,-y,-z
6 x,-y,1/2+z
7 1/2-x,1/2-y,-z
8 1/2+x,1/2-y,1/2+z
_cell_length_a                   14.8402(13)
_cell_length_b                   24.955(2)
_cell_length_c                   9.7014(8)
_cell_angle_alpha                90
_cell_angle_beta                 94.5800(10)
_cell_angle_gamma                90
_cell_volume                     3581.32
loop_
_atom_site_label
_atom_site_type_symbol
_atom_site_fract_x
_atom_site_fract_y
_atom_site_fract_z
Yb1 Yb 1.0000 1.005451(14) 0.7500
O1 O 0.8777(3) 0.9778(3) 0.8576(5)
O2 O 0.8930(3) 0.9746(2) 1.0859(5)
O3 O 0.9634(3) 0.91857(18) 0.6477(4)
O4 O 0.9465(4) 1.0806(2) 0.8625(5)
F1 F 0.7785(4) 0.8815(2) 0.8103(6)
F2 F 0.6108(4) 0.8469(2) 0.8048(7)
F3 F 0.4909(3) 0.8964(4) 0.9637(8)
F4 F 0.5476(5) 0.9791(4) 1.1308(9)
F5 F 0.7183(4) 1.0154(3) 1.1317(7)
F6 F 1.0514(5) 0.8305(2) 0.5268(5)
F7 F 1.0527(6) 0.7230(2) 0.5295(7)
F8 F 1.0000 0.6690(3) 0.7500
C1 C 0.8499(4) 0.9693(3) 0.9714(6)
C2 C 0.7536(4) 0.9492(3) 0.9695(6)
C3 C 0.7231(5) 0.9078(3) 0.8877(7)
C4 C 0.6373(6) 0.8891(4) 0.8833(9)
C5 C 0.5785(6) 0.9132(5) 0.9655(11)
C6 C 0.6055(5) 0.9538(5) 1.0507(9)
C7 C 0.6935(5) 0.9720(4) 1.0508(8)
C8 C 1.0000 0.8940(4) 0.7500
C9 C 1.0000 0.8343(4) 0.7500
C10 C 1.0255(5) 0.8043(3) 0.6403(8)
C11 C 1.0267(6) 0.7488(4) 0.6435(10)
C12 C 1.0000 0.7216(5) 0.7500
H9 H 0.922(6) 1.111(2) 0.825(6)
H10 H 0.952(5) 1.090(2) 0.953(2)
Yb1D Yb 1.0000 0.994549(14) 0.2500
Yb1D_2 Yb 1.0000 0.994549(14) 1.2500
O1A O 1.1223(3) 0.9778(3) 0.6424(5)
O2A O 1.1070(3) 0.9746(2) 0.4141(5)
O2D O 1.1070(3) 1.0254(2) 0.9141(5)
O2E O 0.8930(3) 1.0254(2) 0.5859(5)
O3A O 1.0366(3) 0.91857(18) 0.8523(4)
O4A O 1.0535(4) 1.0806(2) 0.6375(5)
F1A F 1.2215(4) 0.8815(2) 0.6897(6)
F2A F 1.3892(4) 0.8469(2) 0.6952(7)
F3A F 1.5091(3) 0.8964(4) 0.5363(8)
F4A F 1.4524(5) 0.9791(4) 0.3692(9)
F5A F 1.2817(4) 1.0154(3) 0.3683(7)
F6A F 0.9486(5) 0.8305(2) 0.9732(5)
F7A F 0.9473(6) 0.7230(2) 0.9705(7)
C1A C 1.1501(4) 0.9693(3) 0.5286(6)
C2A C 1.2464(4) 0.9492(3) 0.5305(6)
C3A C 1.2769(5) 0.9078(3) 0.6123(7)
C4A C 1.3627(6) 0.8891(4) 0.6167(9)
C5A C 1.4215(6) 0.9132(5) 0.5345(11)
C6A C 1.3945(5) 0.9538(5) 0.4493(9)
C7A C 1.3065(5) 0.9720(4) 0.4492(8)
C10A C 0.9745(5) 0.8043(3) 0.8597(8)
C11A C 0.9733(6) 0.7488(4) 0.8565(10)
H9A H 1.078(6) 1.111(2) 0.675(6)
H10A H 1.048(5) 1.090(2) 0.547(2)
O5 O 0.7964(10) 0.1316(6) 0.7718(15)
O6 O 0.7002(8) 0.2135(5) 0.8769(11)
C13 C 0.7219(15) 0.1255(8) 0.855(2)
H1 H 0.7243 0.0907 0.8994
H2 H 0.6654 0.1283 0.7976
C14 C 0.7286(11) 0.1686(6) 0.9588(16)
H3 H 0.6888 0.1622 1.0317
H4 H 0.7901 0.1729 0.9992
C15 C 0.7760(12) 0.2282(8) 0.7923(19)
H5 H 0.7637 0.2613 0.7415
H6 H 0.8327 0.2316 0.8486
C16 C 0.7762(14) 0.1822(7) 0.7002(17)
H7 H 0.8207 0.1881 0.6338
H8 H 0.7174 0.1794 0.6493
loop_
_geom_bond_atom_site_label_1
_geom_bond_atom_site_label_2
_geom_bond_site_symmetry_1
_geom_bond_site_symmetry_2
Yb1 O1 1_555 1_555
O1 C1 1_555 1_555
O2 C1 1_555 1_555
O3 Yb1 1_555 1_555
O4 Yb1 1_555 1_555
O5 C13 1_555 1_555
O6 C14 1_555 1_555
F1 C3 1_555 1_555
F2 C4 1_555 1_555
F3 C5 1_555 1_555
F4 C6 1_555 1_555
F5 C7 1_555 1_555
F6 C10 1_555 1_555
F7 C11 1_555 1_555
F8 C12 1_555 1_555
C1 C2 1_555 1_555
C2 C3 1_555 1_555
C3 C4 1_555 1_555
C4 C5 1_555 1_555
C5 C6 1_555 1_555
C6 C7 1_555 1_555
C7 C2 1_555 1_555
C8 O3 1_555 1_555
C9 C8 1_555 1_555
C10 C9 1_555 1_555
C11 C10 1_555 1_555
C12 C11 1_555 1_555
C13 H1 1_555 1_555
H2 C13 1_555 1_555
C14 C13 1_555 1_555
H3 C14 1_555 1_555
H4 C14 1_555 1_555
C15 O6 1_555 1_555
H5 C15 1_555 1_555
H6 C15 1_555 1_555
C16 O5 1_555 1_555
H7 C16 1_555 1_555
H8 C16 1_555 1_555
H9 O4 1_555 1_555
H10 O4 1_555 1_555
Yb1D O2A 1_555 1_555
Yb1D_2 O2 1_555 1_555
O1A Yb1 1_555 1_555
O2A C1A 1_555 1_555
O2D Yb1 1_555 1_555
O2E Yb1 1_555 1_555
O3A Yb1 1_555 1_555
O4A Yb1 1_555 1_555
F1A C3A 1_555 1_555
F2A C4A 1_555 1_555
F3A C5A 1_555 1_555
F4A C6A 1_555 1_555
F5A C7A 1_555 1_555
F6A C10A 1_555 1_555
F7A C11A 1_555 1_555
C1A O1A 1_555 1_555
C2A C1A 1_555 1_555
C3A C2A 1_555 1_555
C4A C3A 1_555 1_555
C5A C4A 1_555 1_555
C6A C5A 1_555 1_555
C7A C2A 1_555 1_555
C10A C9 1_555 1_555
C11A C12 1_555 1_555
H9A O4A 1_555 1_555
H10A O4A 1_555 1_555
C8 O3A 1_555 1_555
C15 C16 1_555 1_555
C6A C7A 1_555 1_555
C10A C11A 1_555 1_555

#END
