
#######################################################################
#
#                 Cambridge Crystallographic Data Centre
#                                CCDC 
#
#######################################################################
#
# If this CIF has been generated from an entry in the Cambridge 
# Structural Database, then it will include bibliographic, chemical, 
# crystal, experimental, refinement or atomic coordinate data resulting 
# from the CCDC's data processing and validation procedures.
#
#######################################################################

data_DACMUQ
_symmetry_cell_setting           triclinic
_symmetry_space_group_name_H-M   'P -1'
_symmetry_Int_Tables_number      2
_space_group_name_Hall           '-P 1'
loop_
_symmetry_equiv_pos_site_id
_symmetry_equiv_pos_as_xyz
1 x,y,z
2 -x,-y,-z
_cell_length_a                   8.8809(7)
_cell_length_b                   7.1281(5)
_cell_length_c                   6.8970(5)
_cell_angle_alpha                99.3400(10)
_cell_angle_beta                 108.8650(10)
_cell_angle_gamma                82.4450(10)
_cell_volume                     406.215
loop_
_atom_site_label
_atom_site_type_symbol
_atom_site_fract_x
_atom_site_fract_y
_atom_site_fract_z
Ba1 Ba 0.351050(15) -0.265770(18) -0.09288(2)
Ni1 Ni 0.0000 0.0000 0.0000
C1 C 0.1614(3) -0.2022(4) 0.3514(4)
H1 H 0.076(3) -0.130(4) 0.401(5)
O1 O 0.1621(2) -0.1895(3) 0.1718(3)
O2 O 0.2548(3) -0.3069(3) 0.4718(3)
C2 C 0.1978(3) 0.2731(4) -0.0519(5)
H2 H 0.115(3) 0.362(4) -0.025(5)
O3 O 0.3100(2) 0.3472(3) -0.0702(4)
O4 O 0.1840(2) 0.0967(3) -0.0699(3)
C3 C 0.1258(3) 0.2659(4) 0.3950(4)
H3 H 0.099(4) 0.368(4) 0.488(5)
O5 O 0.0053(2) 0.2129(3) 0.2468(3)
O6 O 0.2666(2) 0.2014(3) 0.4259(3)
O7 O 0.5029(2) -0.0163(3) -0.2406(3)
H4 H 0.437(3) 0.039(5) -0.341(4)
H5 H 0.581(3) -0.062(5) -0.284(5)
O8 O 0.5033(2) -0.5778(3) -0.2907(3)
H6 H 0.427(3) -0.640(5) -0.377(5)
H7 H 0.580(3) -0.592(5) -0.343(5)
C1A C -0.1614(3) 0.2022(4) -0.3514(4)
H1A H -0.076(3) 0.130(4) -0.401(5)
O1A O -0.1621(2) 0.1895(3) -0.1718(3)
O2A O -0.2548(3) 0.3069(3) -0.4718(3)
C2A C -0.1978(3) -0.2731(4) 0.0519(5)
H2A H -0.115(3) -0.362(4) 0.025(5)
O3A O -0.3100(2) -0.3472(3) 0.0702(4)
O4A O -0.1840(2) -0.0967(3) 0.0699(3)
C3A C -0.1258(3) -0.2659(4) -0.3950(4)
H3A H -0.099(4) -0.368(4) -0.488(5)
O5A O -0.0053(2) -0.2129(3) -0.2468(3)
O6A O -0.2666(2) -0.2014(3) -0.4259(3)
Ba1A Ba -0.351050(15) 0.265770(18) 0.09288(2)
O7A O 0.4971(2) 0.0163(3) 0.2406(3)
H4A H 0.563(3) -0.039(5) 0.341(4)
H5A H 0.419(3) 0.062(5) 0.284(5)
O8A O 0.4967(2) -0.4222(3) 0.2907(3)
H6A H 0.573(3) -0.360(5) 0.377(5)
H7A H 0.420(3) -0.408(5) 0.343(5)
O2_2 O 0.2548(3) -0.3069(3) -0.5282(3)
O3_2 O 0.3100(2) -0.6528(3) -0.0702(4)
O3A_2 O 0.6900(2) -0.3472(3) 0.0702(4)
Ba1_2 Ba 0.351050(15) -0.265770(18) 0.90712(2)
Ba1_3 Ba 0.351050(15) 0.734230(18) -0.09288(2)
Ba1A_2 Ba 0.648950(15) 0.265770(18) 0.09288(2)
Ba1A_3 Ba 0.648950(15) -0.734230(18) 0.09288(2)
Ba1A_4 Ba -0.351050(15) 0.265770(18) -0.90712(2)
Ba1_4 Ba -0.648950(15) -0.265770(18) -0.09288(2)
Ba1A_5 Ba -0.351050(15) -0.734230(18) 0.09288(2)
O2A_2 O -0.2548(3) 0.3069(3) 0.5282(3)
O3_3 O -0.6900(2) 0.3472(3) -0.0702(4)
O3A_3 O -0.3100(2) 0.6528(3) 0.0702(4)
O7_2 O -0.4971(2) -0.0163(3) -0.2406(3)
O7A_2 O -0.5029(2) 0.0163(3) 0.2406(3)
O8_2 O -0.4967(2) 0.4222(3) -0.2907(3)
O8A_2 O -0.5033(2) 0.5778(3) 0.2907(3)
H4_2 H -0.563(3) 0.039(5) -0.341(4)
H5_2 H -0.419(3) -0.062(5) -0.284(5)
H4A_2 H -0.437(3) -0.039(5) 0.341(4)
H5A_2 H -0.581(3) 0.062(5) 0.284(5)
H6_2 H -0.573(3) 0.360(5) -0.377(5)
H7_2 H -0.420(3) 0.408(5) -0.343(5)
H6A_2 H -0.427(3) 0.640(5) 0.377(5)
H7A_2 H -0.580(3) 0.592(5) 0.343(5)
loop_
_geom_bond_atom_site_label_1
_geom_bond_atom_site_label_2
_geom_bond_site_symmetry_1
_geom_bond_site_symmetry_2
Ba1 O1 1_555 1_555
Ni1 O1 1_555 1_555
C1 H1 1_555 1_555
O1 C1 1_555 1_555
O2 C1 1_555 1_555
C2 H2 1_555 1_555
O3 C2 1_555 1_555
O4 Ba1 1_555 1_555
C3 H3 1_555 1_555
O5 Ni1 1_555 1_555
O6 C3 1_555 1_555
O7 Ba1 1_555 1_555
H4 O7 1_555 1_555
H5 O7 1_555 1_555
O8 Ba1 1_555 1_555
H6 O8 1_555 1_555
H7 O8 1_555 1_555
C1A H1A 1_555 1_555
O1A Ni1 1_555 1_555
O2A C1A 1_555 1_555
C2A H2A 1_555 1_555
O3A C2A 1_555 1_555
O4A Ni1 1_555 1_555
C3A H3A 1_555 1_555
O5A Ba1 1_555 1_555
O6A C3A 1_555 1_555
Ba1A O5 1_555 1_555
O7A Ba1 1_555 1_555
H4A O7A 1_555 1_555
H5A O7A 1_555 1_555
O8A Ba1 1_555 1_555
H6A O8A 1_555 1_555
H7A O8A 1_555 1_555
O2_2 Ba1 1_555 1_555
O3_2 Ba1 1_555 1_555
O3A_2 Ba1 1_555 1_555
Ba1_2 O2 1_555 1_555
Ba1_3 O3 1_555 1_555
Ba1A_2 O3 1_555 1_555
Ba1A_3 O8 1_555 1_555
Ba1A_4 O2A 1_555 1_555
Ba1_4 O3A 1_555 1_555
Ba1A_5 O3A 1_555 1_555
O2A_2 Ba1A 1_555 1_555
O3_3 Ba1A 1_555 1_555
O3A_3 Ba1A 1_555 1_555
O7_2 Ba1A 1_555 1_555
O7A_2 Ba1A 1_555 1_555
O8_2 Ba1A 1_555 1_555
O8A_2 Ba1A 1_555 1_555
H4_2 O7_2 1_555 1_555
H5_2 O7_2 1_555 1_555
H4A_2 O7A_2 1_555 1_555
H5A_2 O7A_2 1_555 1_555
H6_2 O8_2 1_555 1_555
H7_2 O8_2 1_555 1_555
H6A_2 O8A_2 1_555 1_555
H7A_2 O8A_2 1_555 1_555
Ni1 O5A 1_555 1_555
Ni1 O4 1_555 1_555
C2 O4 1_555 1_555
C3 O5 1_555 1_555
O7 Ba1A_2 1_555 1_555
C1A O1A 1_555 1_555
O1A Ba1A 1_555 1_555
C2A O4A 1_555 1_555
O4A Ba1A 1_555 1_555
C3A O5A 1_555 1_555
O7A Ba1A_2 1_555 1_555
O8A Ba1A_3 1_555 1_555
O3_2 Ba1A_3 1_555 1_555
O3A_2 Ba1A_3 1_555 1_555
Ba1_4 O7_2 1_555 1_555
Ba1_4 O7A_2 1_555 1_555

#END
