
#######################################################################
#
#                 Cambridge Crystallographic Data Centre
#                                CCDC 
#
#######################################################################
#
# If this CIF has been generated from an entry in the Cambridge 
# Structural Database, then it will include bibliographic, chemical, 
# crystal, experimental, refinement or atomic coordinate data resulting 
# from the CCDC's data processing and validation procedures.
#
#######################################################################

data_DADQII
_symmetry_cell_setting           triclinic
_symmetry_space_group_name_H-M   'P -1'
_symmetry_Int_Tables_number      2
_space_group_name_Hall           '-P 1'
loop_
_symmetry_equiv_pos_site_id
_symmetry_equiv_pos_as_xyz
1 x,y,z
2 -x,-y,-z
_cell_length_a                   8.205(2)
_cell_length_b                   9.867(2)
_cell_length_c                   15.948(3)
_cell_angle_alpha                80.29(3)
_cell_angle_beta                 81.35(3)
_cell_angle_gamma                80.64(3)
_cell_volume                     1245.61
loop_
_atom_site_label
_atom_site_type_symbol
_atom_site_fract_x
_atom_site_fract_y
_atom_site_fract_z
Eu1 Eu 0.45029(3) 0.34438(3) 0.37668(2)
O1 O 0.7427(7) 0.3782(6) 0.3490(3)
O2 O 0.1777(7) 0.4470(5) 0.4336(3)
O3 O 0.2981(6) 0.1427(5) 0.4504(3)
O4 O 0.2458(7) 0.2331(5) 0.3193(3)
O5 O 0.5134(7) 0.2997(6) 0.5159(3)
O6 O 0.4496(7) 0.5807(5) 0.3853(3)
O7 O 0.4431(7) 0.4462(5) 0.2361(3)
O8 O 0.4966(8) 0.3896(7) 0.1048(3)
O9 O 0.0810(6) -0.3074(5) 0.5064(3)
O10 O 0.3758(7) -0.1467(5) 0.6699(3)
O11 O -0.1611(7) 0.6156(6) 0.2695(3)
N1 N 0.0704(7) -0.2002(6) 0.4435(3)
N2 N 0.5755(7) 1.0366(5) 0.3062(3)
N3 N -0.0439(9) 0.5981(7) 0.2027(4)
C1 C 0.1405(9) 0.0219(7) 0.3807(4)
C2 C 0.1436(9) -0.0888(7) 0.4472(4)
C3 C -0.0075(10) -0.2066(8) 0.3761(5)
C4 C -0.0139(11) -0.0968(8) 0.3094(5)
C5 C 0.0605(10) 0.0165(8) 0.3112(5)
C6 C 0.2325(9) 0.1408(7) 0.3847(4)
C7 C 0.5098(8) 0.8091(6) 0.3406(4)
C8 C 0.5592(8) 0.9214(6) 0.3645(4)
C9 C 0.5439(10) 1.0431(7) 0.2258(4)
C10 C 0.4969(12) 0.9312(9) 0.1991(4)
C11 C 0.4804(10) 0.8112(7) 0.2573(4)
C12 C 0.5188(8) 0.3148(6) 0.5913(4)
C13 C 0.2325(10) 0.5174(8) 0.1453(4)
C14 C 0.1105(10) 0.5355(8) 0.2153(4)
C15 C -0.0858(12) 0.6476(10) 0.1218(5)
C16 C 0.0345(14) 0.6306(11) 0.0528(5)
C17 C 0.1924(11) 0.5654(10) 0.0635(5)
C18 C 0.4035(10) 0.4451(8) 0.1625(4)
H1 H 0.8274(7) 0.3114(6) 0.3249(3)
H2 H 0.7757(7) 0.4690(6) 0.3335(3)
H3 H 0.1090(7) 0.3835(5) 0.4684(3)
H4 H 0.1749(7) 0.5259(5) 0.4620(3)
H5 H 0.2006(9) -0.0865(7) 0.4954(4)
H6 H -0.0598(10) -0.2875(8) 0.3756(5)
H7 H -0.0709(11) -0.1013(8) 0.2616(5)
H8 H 0.0566(10) 0.0938(8) 0.2649(5)
H9 H 0.5829(8) 0.9190(6) 0.4222(4)
H10 H 0.5529(10) 1.1279(7) 0.1859(4)
H11 H 0.4750(12) 0.9355(9) 0.1408(4)
H12 H 0.4516(10) 0.7296(7) 0.2399(4)
H13 H 0.1353(10) 0.5033(8) 0.2732(4)
H14 H -0.1965(12) 0.6934(10) 0.1136(5)
H15 H 0.0068(14) 0.6649(11) -0.0043(5)
H16 H 0.2762(11) 0.5525(10) 0.0148(5)
O6A O 0.5504(7) 0.4193(5) 0.6147(3)
Eu1A Eu 0.54971(3) 0.65562(3) 0.62332(2)
O1A O 0.2573(7) 0.6218(6) 0.6510(3)
H1A H 0.1726(7) 0.6886(6) 0.6751(3)
H2A H 0.2243(7) 0.5310(6) 0.6665(3)
O2A O 0.8223(7) 0.5530(5) 0.5664(3)
H3A H 0.8910(7) 0.6165(5) 0.5316(3)
H4A H 0.8251(7) 0.4741(5) 0.5380(3)
O3A O 0.7019(6) 0.8573(5) 0.5496(3)
C6A C 0.7675(9) 0.8592(7) 0.6153(4)
O4A O 0.7542(7) 0.7669(5) 0.6807(3)
O5A O 0.4866(7) 0.7003(6) 0.4841(3)
C12A C 0.4812(8) 0.6852(6) 0.4087(4)
O7A O 0.5569(7) 0.5538(5) 0.7639(3)
C18A C 0.5965(10) 0.5549(8) 0.8375(4)
O8A O 0.5034(8) 0.6104(7) 0.8952(3)
C13A C 0.7675(10) 0.4826(8) 0.8547(4)
C14A C 0.8895(10) 0.4645(8) 0.7847(4)
N3A N 1.0439(9) 0.4019(7) 0.7973(4)
O11A O 1.1611(7) 0.3844(6) 0.7305(3)
C15A C 1.0858(12) 0.3524(10) 0.8782(5)
C16A C 0.9655(14) 0.3694(11) 0.9472(5)
C17A C 0.8076(11) 0.4346(10) 0.9365(5)
H16A H 0.7238(11) 0.4475(10) 0.9852(5)
H15A H 0.9932(14) 0.3351(11) 1.0043(5)
H14A H 1.1965(12) 0.3066(10) 0.8864(5)
H13A H 0.8647(10) 0.4967(8) 0.7268(4)
O10_2 O 0.3758(7) 0.8533(5) 0.6699(3)
C1A C 0.8595(9) 0.9781(7) 0.6193(4)
C2A C 0.8564(9) 1.0888(7) 0.5528(4)
N1A N 0.9296(7) 1.2002(6) 0.5565(3)
O9A O 0.9190(6) 1.3074(5) 0.4936(3)
C3A C 1.0075(10) 1.2066(8) 0.6239(5)
C4A C 1.0139(11) 1.0968(8) 0.6906(5)
C5A C 0.9395(10) 0.9835(8) 0.6888(5)
H8A H 0.9434(10) 0.9062(8) 0.7351(5)
H7A H 1.0709(11) 1.1013(8) 0.7384(5)
H6A H 1.0598(10) 1.2875(8) 0.6244(5)
H5A H 0.7994(9) 1.0865(7) 0.5046(4)
C7A C 0.4902(8) 0.1909(6) 0.6594(4)
Eu1A_2 Eu 0.54971(3) -0.34438(3) 0.62332(2)
Eu1_2 Eu 0.45029(3) 1.34438(3) 0.37668(2)
C8A C 0.4408(8) 0.0786(6) 0.6355(4)
C11A C 0.5196(10) 0.1888(7) 0.7427(4)
O10A O 0.6242(7) 0.1467(5) 0.3301(3)
O10A_2 O 0.6242(7) 1.1467(5) 0.3301(3)
N2A N 0.4245(7) -0.0366(5) 0.6938(3)
H9A H 0.4171(8) 0.0810(6) 0.5778(4)
C10A C 0.5031(12) 0.0688(9) 0.8009(4)
H12A H 0.5484(10) 0.2704(7) 0.7601(4)
C9A C 0.4561(10) -0.0431(7) 0.7742(4)
H11A H 0.5250(12) 0.0645(9) 0.8592(4)
H10A H 0.4471(10) -0.1279(7) 0.8141(4)
O12 O 0.8187(9) 0.2992(7) 0.1635(4)
H17 H 0.8091(9) 0.2907(7) 0.2249(4)
H18 H 0.8940(9) 0.3641(7) 0.1382(4)
O13 O 0.9355(10) 0.0395(8) 0.1102(4)
H19 H 1.0507(10) 0.0355(8) 0.0868(4)
H20 H 0.9233(10) -0.0323(8) 0.1585(4)
O14 O 0.7472(10) -0.0009(10) -0.0157(5)
H21 H 0.8121(10) 0.0084(10) -0.0711(5)
H22 H 0.7121(10) -0.0911(10) -0.0028(5)
O15 O 0.4656(12) 0.2117(10) -0.0113(6)
H23 H 0.3659(12) 0.1699(10) 0.0068(6)
H24 H 0.4602(12) 0.2644(10) -0.0674(6)
loop_
_geom_bond_atom_site_label_1
_geom_bond_atom_site_label_2
_geom_bond_site_symmetry_1
_geom_bond_site_symmetry_2
Eu1 O1 1_555 1_555
O1 H1 1_555 1_555
O2 Eu1 1_555 1_555
O3 Eu1 1_555 1_555
O4 Eu1 1_555 1_555
O5 Eu1 1_555 1_555
O6 Eu1 1_555 1_555
O7 Eu1 1_555 1_555
O8 C18 1_555 1_555
O9 N1 1_555 1_555
O10 Eu1A_2 1_555 1_555
O11 N3 1_555 1_555
N1 C2 1_555 1_555
N2 C8 1_555 1_555
N3 C14 1_555 1_555
C1 C2 1_555 1_555
C2 H5 1_555 1_555
C3 N1 1_555 1_555
C4 C3 1_555 1_555
C5 C1 1_555 1_555
C6 O3 1_555 1_555
C7 C8 1_555 1_555
C8 H9 1_555 1_555
C9 N2 1_555 1_555
C10 C9 1_555 1_555
C11 C7 1_555 1_555
C12 O5 1_555 1_555
C13 C14 1_555 1_555
C14 H13 1_555 1_555
C15 N3 1_555 1_555
C16 C15 1_555 1_555
C17 C13 1_555 1_555
C18 O7 1_555 1_555
O12 H17 1_555 1_555
O13 H19 1_555 1_555
O14 H21 1_555 1_555
O15 H23 1_555 1_555
H2 O1 1_555 1_555
H3 O2 1_555 1_555
H4 O2 1_555 1_555
H6 C3 1_555 1_555
H7 C4 1_555 1_555
H8 C5 1_555 1_555
H10 C9 1_555 1_555
H11 C10 1_555 1_555
H12 C11 1_555 1_555
H14 C15 1_555 1_555
H15 C16 1_555 1_555
H16 C17 1_555 1_555
H18 O12 1_555 1_555
H20 O13 1_555 1_555
H22 O14 1_555 1_555
H24 O15 1_555 1_555
O6A C12 1_555 1_555
Eu1A O6A 1_555 1_555
O1A Eu1A 1_555 1_555
H1A O1A 1_555 1_555
H2A O1A 1_555 1_555
O2A Eu1A 1_555 1_555
H3A O2A 1_555 1_555
H4A O2A 1_555 1_555
O3A Eu1A 1_555 1_555
C6A O3A 1_555 1_555
O4A Eu1A 1_555 1_555
O5A Eu1A 1_555 1_555
C12A O6 1_555 1_555
O7A Eu1A 1_555 1_555
C18A O7A 1_555 1_555
O8A C18A 1_555 1_555
C13A C18A 1_555 1_555
C14A C13A 1_555 1_555
N3A C14A 1_555 1_555
O11A N3A 1_555 1_555
C15A N3A 1_555 1_555
C16A C15A 1_555 1_555
C17A C13A 1_555 1_555
H16A C17A 1_555 1_555
H15A C16A 1_555 1_555
H14A C15A 1_555 1_555
H13A C14A 1_555 1_555
O10_2 Eu1A 1_555 1_555
C1A C6A 1_555 1_555
C2A C1A 1_555 1_555
N1A C2A 1_555 1_555
O9A N1A 1_555 1_555
C3A N1A 1_555 1_555
C4A C3A 1_555 1_555
C5A C1A 1_555 1_555
H8A C5A 1_555 1_555
H7A C4A 1_555 1_555
H6A C3A 1_555 1_555
H5A C2A 1_555 1_555
C7A C12 1_555 1_555
Eu1_2 O10A_2 1_555 1_555
C8A C7A 1_555 1_555
C11A C7A 1_555 1_555
O10A Eu1 1_555 1_555
O10A_2 N2 1_555 1_555
N2A O10 1_555 1_555
H9A C8A 1_555 1_555
C10A C11A 1_555 1_555
H12A C11A 1_555 1_555
C9A N2A 1_555 1_555
H11A C10A 1_555 1_555
H10A C9A 1_555 1_555
O4 C6 1_555 1_555
C1 C6 1_555 1_555
C4 C5 1_555 1_555
C7 C12A 1_555 1_555
C10 C11 1_555 1_555
C13 C18 1_555 1_555
C16 C17 1_555 1_555
C6A O4A 1_555 1_555
O5A C12A 1_555 1_555
C16A C17A 1_555 1_555
C4A C5A 1_555 1_555
C8A N2A 1_555 1_555
C10A C9A 1_555 1_555

#END
