
#######################################################################
#
#                 Cambridge Crystallographic Data Centre
#                                CCDC 
#
#######################################################################
#
# If this CIF has been generated from an entry in the Cambridge 
# Structural Database, then it will include bibliographic, chemical, 
# crystal, experimental, refinement or atomic coordinate data resulting 
# from the CCDC's data processing and validation procedures.
#
#######################################################################

data_DAFBIW
_symmetry_cell_setting           monoclinic
_symmetry_space_group_name_H-M   'P 21/n'
_symmetry_Int_Tables_number      14
_space_group_name_Hall           '-P 2yn'
loop_
_symmetry_equiv_pos_site_id
_symmetry_equiv_pos_as_xyz
1 x,y,z
2 1/2+x,1/2-y,1/2+z
3 -x,-y,-z
4 1/2-x,1/2+y,1/2-z
_cell_length_a                   14.611(2)
_cell_length_b                   14.604(2)
_cell_length_c                   24.801(4)
_cell_angle_alpha                90
_cell_angle_beta                 97.329(4)
_cell_angle_gamma                90
_cell_volume                     5248.78
loop_
_atom_site_label
_atom_site_type_symbol
_atom_site_fract_x
_atom_site_fract_y
_atom_site_fract_z
Ru1 Ru -0.09917(3) -0.44604(3) -0.262840(15)
O1 O 0.2107(3) -0.1130(3) -0.16243(17)
O2 O -0.4146(2) -0.1093(2) -0.20931(13)
N1 N -0.1644(2) -0.4257(2) -0.34009(14)
N2 N -0.2235(2) -0.4806(2) -0.23896(14)
N3 N -0.0318(2) -0.4905(2) -0.18967(14)
N4 N 0.0258(2) -0.4280(2) -0.29031(13)
F1 F -0.07507(19) -0.20252(18) -0.42271(11)
F2 F -0.0196(2) -0.1304(2) -0.51234(13)
F3 F 0.0843(2) -0.2301(2) -0.57354(12)
F4 F 0.1310(2) -0.4043(2) -0.54433(12)
F5 F 0.0756(2) -0.4774(2) -0.45479(11)
F6 F -0.4713(2) -0.3522(2) -0.29867(13)
F7 F -0.6410(2) -0.3535(3) -0.35086(15)
F8 F -0.6848(2) -0.4686(3) -0.43739(15)
F9 F -0.5558(2) -0.5846(3) -0.46651(15)
F10 F -0.3858(2) -0.5861(2) -0.41251(12)
F11 F -0.1271(2) -0.69393(19) -0.09461(11)
F12 F -0.1753(2) -0.7443(2) 0.00149(11)
F13 F -0.2776(2) -0.6320(2) 0.05569(12)
F14 F -0.3306(2) -0.4665(3) 0.01334(13)
F15 F -0.2775(2) -0.4123(2) -0.08113(12)
F16 F 0.26501(19) -0.3315(2) -0.19196(12)
F17 F 0.4364(2) -0.3574(2) -0.14471(13)
F18 F 0.4933(2) -0.5250(2) -0.10822(12)
F19 F 0.3752(2) -0.6683(2) -0.12369(13)
F20 F 0.2044(2) -0.6449(2) -0.17392(12)
C1 C -0.0297(3) -0.3795(3) -0.38416(17)
C2 C -0.1234(3) -0.3950(3) -0.38383(18)
C3 C -0.1931(3) -0.3855(3) -0.42958(18)
H1 H -0.1838 -0.3664 -0.4642
C4 C -0.2736(3) -0.4089(3) -0.41374(18)
H2 H -0.3306 -0.4081 -0.4352
C5 C -0.2571(3) -0.4354(3) -0.35796(18)
C6 C -0.3242(3) -0.4635(3) -0.32557(19)
C7 C -0.3073(3) -0.4845(3) -0.27049(19)
C8 C -0.3756(3) -0.5164(3) -0.2382(2)
H3 H -0.4379 -0.5253 -0.2502
C9 C -0.3344(3) -0.5310(3) -0.1884(2)
H4 H -0.3624 -0.5518 -0.1591
C10 C -0.2379(3) -0.5088(3) -0.18761(19)
C11 C -0.1687(3) -0.5203(3) -0.14401(18)
C12 C -0.0741(3) -0.5111(3) -0.14491(18)
C13 C -0.0033(3) -0.5255(3) -0.09968(19)
H5 H -0.0127 -0.5394 -0.0642
C14 C 0.0793(3) -0.5153(3) -0.11808(19)
H6 H 0.1371 -0.5213 -0.0978
C15 C 0.0611(3) -0.4934(3) -0.17453(18)
C16 C 0.1287(3) -0.4737(3) -0.20840(18)
C17 C 0.1119(3) -0.4419(3) -0.26139(18)
C18 C 0.1816(3) -0.4191(3) -0.29597(18)
H7 H 0.2452 -0.4239 -0.2868
C19 C 0.1382(3) -0.3905(3) -0.34286(19)
H8 H 0.1661 -0.3699 -0.3723
C20 C 0.0400(3) -0.3965(3) -0.34087(18)
C21 C 0.0002(3) -0.3417(3) -0.43507(18)
C22 C -0.0242(3) -0.2544(4) -0.4519(2)
C23 C 0.0031(4) -0.2162(4) -0.4985(2)
C24 C 0.0554(4) -0.2672(4) -0.5293(2)
C25 C 0.0805(4) -0.3542(4) -0.5140(2)
C26 C 0.0527(3) -0.3906(4) -0.4679(2)
C27 C -0.4208(3) -0.4684(4) -0.3533(2)
C28 C -0.4905(4) -0.4118(4) -0.3391(2)
C29 C -0.5778(4) -0.4111(5) -0.3666(3)
C30 C -0.6006(4) -0.4686(5) -0.4094(3)
C31 C -0.5351(5) -0.5279(5) -0.4246(3)
C32 C -0.4479(4) -0.5275(4) -0.3962(2)
C33 C -0.1993(3) -0.5507(4) -0.09081(18)
C34 C -0.1765(3) -0.6347(4) -0.0689(2)
C35 C -0.2008(4) -0.6618(4) -0.0195(2)
C36 C -0.2529(4) -0.6053(5) 0.0076(2)
C37 C -0.2792(4) -0.5223(5) -0.0127(2)
C38 C -0.2520(4) -0.4951(4) -0.0620(2)
C39 C 0.2267(3) -0.4877(3) -0.18437(17)
C40 C 0.2901(4) -0.4169(4) -0.17621(19)
C41 C 0.3802(4) -0.4294(4) -0.1517(2)
C42 C 0.4081(4) -0.5133(4) -0.1337(2)
C43 C 0.3486(4) -0.5843(4) -0.1408(2)
C44 C 0.2597(4) -0.5719(4) -0.16601(19)
C45 C -0.1036(3) -0.3276(3) -0.23638(16)
C46 C -0.0185(3) -0.2753(3) -0.21518(19)
C47 C 0.0198(3) -0.2128(3) -0.2488(2)
H9 H -0.0066 -0.2062 -0.2847
C48 C 0.0963(4) -0.1608(4) -0.2295(2)
H10 H 0.1206 -0.1198 -0.2526
C49 C 0.1360(3) -0.1692(4) -0.1773(2)
C50 C 0.0999(3) -0.2295(4) -0.1436(2)
H11 H 0.1265 -0.2349 -0.1076
C51 C 0.0244(3) -0.2826(3) -0.16239(19)
H12 H 0.0019 -0.3243 -0.1390
C52 C 0.2746(4) -0.1374(4) -0.1179(3)
H13 H 0.2456 -0.1351 -0.0853
H14 H 0.3257 -0.0956 -0.1149
H15 H 0.2965 -0.1984 -0.1229
C53 C -0.1889(3) -0.2753(3) -0.22959(19)
C54 C -0.2552(3) -0.2555(3) -0.27259(19)
H16 H -0.2491 -0.2790 -0.3068
C55 C -0.3311(3) -0.2012(3) -0.2660(2)
H17 H -0.3746 -0.1875 -0.2956
C56 C -0.3412(3) -0.1680(3) -0.2156(2)
C57 C -0.2775(4) -0.1876(3) -0.1717(2)
H18 H -0.2856 -0.1661 -0.1374
C58 C -0.2016(3) -0.2392(3) -0.17894(19)
H19 H -0.1573 -0.2505 -0.1493
C59 C -0.4971(4) -0.1514(4) -0.2027(3)
H20 H -0.5208 -0.1823 -0.2357
H21 H -0.5407 -0.1062 -0.1942
H22 H -0.4871 -0.1950 -0.1736
O2C O -0.0854(2) -0.6093(2) -0.29069(13)
Ru1C Ru -0.40083(3) 0.05396(3) -0.237160(15)
Cl1 Cl -0.05952(15) -0.33136(16) -0.02593(8)
Cl2 Cl -0.20486(19) -0.27506(19) 0.03653(11)
C60 C -0.1089(6) -0.2493(7) 0.0091(4)
H23 H -0.0629 -0.2286 0.0382
H24 H -0.1231 -0.1977 -0.0152
loop_
_geom_bond_atom_site_label_1
_geom_bond_atom_site_label_2
_geom_bond_site_symmetry_1
_geom_bond_site_symmetry_2
Ru1 N1 1_555 1_555
O1 C49 1_555 1_555
O2 C56 1_555 1_555
N1 C2 1_555 1_555
N2 Ru1 1_555 1_555
N3 Ru1 1_555 1_555
N4 Ru1 1_555 1_555
F1 C22 1_555 1_555
F2 C23 1_555 1_555
F3 C24 1_555 1_555
F4 C25 1_555 1_555
F5 C26 1_555 1_555
F6 C28 1_555 1_555
F7 C29 1_555 1_555
F8 C30 1_555 1_555
F9 C31 1_555 1_555
F10 C32 1_555 1_555
F11 C34 1_555 1_555
F12 C35 1_555 1_555
F13 C36 1_555 1_555
F14 C37 1_555 1_555
F15 C38 1_555 1_555
F16 C40 1_555 1_555
F17 C41 1_555 1_555
F18 C42 1_555 1_555
F19 C43 1_555 1_555
F20 C44 1_555 1_555
C1 C2 1_555 1_555
C2 C3 1_555 1_555
C3 H1 1_555 1_555
C4 C3 1_555 1_555
H2 C4 1_555 1_555
C5 N1 1_555 1_555
C6 C5 1_555 1_555
C7 N2 1_555 1_555
C8 C7 1_555 1_555
H3 C8 1_555 1_555
C9 C8 1_555 1_555
H4 C9 1_555 1_555
C10 N2 1_555 1_555
C11 C10 1_555 1_555
C12 N3 1_555 1_555
C13 C12 1_555 1_555
H5 C13 1_555 1_555
C14 C13 1_555 1_555
H6 C14 1_555 1_555
C15 N3 1_555 1_555
C16 C15 1_555 1_555
C17 N4 1_555 1_555
C18 C17 1_555 1_555
H7 C18 1_555 1_555
C19 C18 1_555 1_555
H8 C19 1_555 1_555
C20 N4 1_555 1_555
C21 C1 1_555 1_555
C22 C21 1_555 1_555
C23 C22 1_555 1_555
C24 C23 1_555 1_555
C25 C24 1_555 1_555
C26 C21 1_555 1_555
C27 C6 1_555 1_555
C28 C27 1_555 1_555
C29 C28 1_555 1_555
C30 C29 1_555 1_555
C31 C30 1_555 1_555
C32 C27 1_555 1_555
C33 C11 1_555 1_555
C34 C33 1_555 1_555
C35 C34 1_555 1_555
C36 C35 1_555 1_555
C37 C36 1_555 1_555
C38 C33 1_555 1_555
C39 C16 1_555 1_555
C40 C39 1_555 1_555
C41 C40 1_555 1_555
C42 C41 1_555 1_555
C43 C42 1_555 1_555
C44 C39 1_555 1_555
C45 Ru1 1_555 1_555
C46 C45 1_555 1_555
C47 C46 1_555 1_555
H9 C47 1_555 1_555
C48 C47 1_555 1_555
H10 C48 1_555 1_555
C49 C48 1_555 1_555
C50 C49 1_555 1_555
H11 C50 1_555 1_555
C51 C46 1_555 1_555
H12 C51 1_555 1_555
C52 O1 1_555 1_555
H13 C52 1_555 1_555
H14 C52 1_555 1_555
H15 C52 1_555 1_555
C53 C45 1_555 1_555
C54 C53 1_555 1_555
H16 C54 1_555 1_555
C55 C54 1_555 1_555
H17 C55 1_555 1_555
C56 C55 1_555 1_555
C57 C56 1_555 1_555
H18 C57 1_555 1_555
C58 C53 1_555 1_555
H19 C58 1_555 1_555
C59 O2 1_555 1_555
H20 C59 1_555 1_555
H21 C59 1_555 1_555
H22 C59 1_555 1_555
Cl1 C60 1_555 1_555
Cl2 C60 1_555 1_555
C60 H23 1_555 1_555
H24 C60 1_555 1_555
O2C Ru1 1_555 1_555
Ru1C O2 1_555 1_555
C1 C20 1_555 1_555
C4 C5 1_555 1_555
C6 C7 1_555 1_555
C9 C10 1_555 1_555
C11 C12 1_555 1_555
C14 C15 1_555 1_555
C16 C17 1_555 1_555
C19 C20 1_555 1_555
C25 C26 1_555 1_555
C31 C32 1_555 1_555
C37 C38 1_555 1_555
C43 C44 1_555 1_555
C50 C51 1_555 1_555
C57 C58 1_555 1_555

#END
