
#######################################################################
#
#                 Cambridge Crystallographic Data Centre
#                                CCDC 
#
#######################################################################
#
# If this CIF has been generated from an entry in the Cambridge 
# Structural Database, then it will include bibliographic, chemical, 
# crystal, experimental, refinement or atomic coordinate data resulting 
# from the CCDC's data processing and validation procedures.
#
#######################################################################

data_DAGDOF
_symmetry_cell_setting           monoclinic
_symmetry_space_group_name_H-M   'C 2/c'
_symmetry_Int_Tables_number      15
_space_group_name_Hall           '-C 2yn'
loop_
_symmetry_equiv_pos_site_id
_symmetry_equiv_pos_as_xyz
1 x,y,z
2 1/2+x,1/2+y,z
3 x,-y,1/2+z
4 1/2+x,1/2-y,1/2+z
5 -x,-y,-z
6 1/2-x,1/2-y,-z
7 -x,y,1/2-z
8 1/2-x,1/2+y,1/2-z
_cell_length_a                   23.879(4)
_cell_length_b                   10.0141(10)
_cell_length_c                   18.989(3)
_cell_angle_alpha                90
_cell_angle_beta                 108.232(16)
_cell_angle_gamma                90
_cell_volume                     4312.82
loop_
_atom_site_label
_atom_site_type_symbol
_atom_site_fract_x
_atom_site_fract_y
_atom_site_fract_z
Cd1 Cd 0.62129(2) 0.70660(5) 0.57218(3)
Cd2 Cd 0.2500 0.7500 0.0000
N1 N 0.5504(3) 0.7148(6) 0.4553(3)
N2 N 0.3222(2) 0.7304(6) 0.1126(3)
O1 O 0.1217(2) 0.5407(6) 0.0900(4)
O2 O 0.1827(2) 0.6405(5) 0.0441(3)
O3 O 0.5393(2) 0.7099(5) 0.6141(3)
O4 O 0.3191(2) 0.3125(6) 0.3093(3)
O5 O 0.3847(4) 0.2571(8) 0.2567(5)
O6 O 0.1332(2) 0.0182(6) 0.0631(3)
O7 O 0.2130(3) -0.0600(6) 0.0427(3)
O8 O 0.4318(6) 0.7019(15) 0.6421(7)
H1 H 0.4103 0.7157 0.6676
C1 C 0.1668(3) 0.5374(7) 0.0726(3)
C2 C 0.2056(3) 0.4159(7) 0.0842(3)
H2 H 0.2308 0.4261 0.0525
C3 C 0.1729(3) 0.2872(7) 0.0631(4)
H3 H 0.1506 0.2896 0.0108
H4 H 0.1452 0.2778 0.0907
C4 C 0.2465(3) 0.4127(7) 0.1650(3)
H5 H 0.2678 0.4965 0.1766
H6 H 0.2229 0.4032 0.1981
C5 C 0.2903(3) 0.2975(7) 0.1777(4)
H7 H 0.3125 0.3083 0.1425
C6 C 0.5344(4) 0.8229(9) 0.4172(5)
H8 H 0.5554 0.9002 0.4360
C7 C 0.5205(4) 0.6040(9) 0.4273(4)
H9 H 0.5312 0.5236 0.4524
C8 C 0.4917(4) 0.7949(9) 0.5894(5)
H10 H 0.5067 0.8834 0.5848
H11 H 0.4686 0.7664 0.5400
C9 C 0.4538(6) 0.8055(15) 0.6320(8)
H12 H 0.4225 0.8676 0.6078
H13 H 0.4755 0.8431 0.6798
C10 C 0.3341(3) 0.2889(8) 0.2537(5)
C11 C 0.1838(3) 0.0311(7) 0.0588(3)
C12 C 0.2139(3) 0.1658(7) 0.0782(4)
H14 H 0.2392 0.1762 0.0467
C13 C 0.2549(3) 0.1648(7) 0.1580(3)
H15 H 0.2821 0.0904 0.1647
H16 H 0.2318 0.1522 0.1915
C14 C 0.3308(4) 0.8302(11) 0.1608(5)
H17 H 0.3064 0.9045 0.1474
C15 C 0.3730(4) 0.8316(11) 0.2290(5)
H18 H 0.3768 0.9046 0.2604
C16 C 0.4098(3) 0.7228(8) 0.2501(4)
C17 C 0.3992(3) 0.6157(8) 0.2024(4)
H19 H 0.4211 0.5377 0.2162
C18 C 0.3561(3) 0.6236(8) 0.1339(4)
H20 H 0.3508 0.5514 0.1017
C19 C 0.4584(3) 0.7198(8) 0.3230(4)
C20 C 0.4740(4) 0.6064(9) 0.3619(4)
H21 H 0.4533 0.5282 0.3447
C21 C 0.4900(4) 0.8343(9) 0.3522(5)
H22 H 0.4809 0.9161 0.3281
H23 H 0.5375 0.6073 0.6164
N1E N -0.0504(3) 0.7852(6) -0.4553(3)
N2E N 0.1778(2) 0.7696(6) -0.1126(3)
C6E C -0.0344(4) 0.6771(9) -0.4172(5)
H8E H -0.0554 0.5998 -0.4360
C7E C -0.0205(4) 0.8960(9) -0.4273(4)
H9E H -0.0312 0.9764 -0.4524
C14E C 0.1692(4) 0.6698(11) -0.1608(5)
H17E H 0.1936 0.5955 -0.1474
C15E C 0.1270(4) 0.6684(11) -0.2290(5)
H18E H 0.1232 0.5954 -0.2604
C16E C 0.0902(3) 0.7772(8) -0.2501(4)
C17E C 0.1008(3) 0.8843(8) -0.2024(4)
H19E H 0.0789 0.9623 -0.2162
C18E C 0.1439(3) 0.8764(8) -0.1339(4)
H20E H 0.1492 0.9486 -0.1017
C19E C 0.0416(3) 0.7802(8) -0.3230(4)
C20E C 0.0260(4) 0.8936(9) -0.3619(4)
H21E H 0.0467 0.9718 -0.3447
C21E C 0.0100(4) 0.6657(9) -0.3522(5)
H22E H 0.0191 0.5839 -0.3281
O1E O 0.3783(2) 0.9593(6) -0.0900(4)
O2E O 0.3173(2) 0.8595(5) -0.0441(3)
O4E O 0.1809(2) 1.1875(6) -0.3093(3)
O5E O 0.1153(4) 1.2429(8) -0.2567(5)
O6E O 0.3668(2) 1.4818(6) -0.0631(3)
O7E O 0.2870(3) 1.5600(6) -0.0427(3)
C1E C 0.3332(3) 0.9626(7) -0.0726(3)
C2E C 0.2944(3) 1.0841(7) -0.0842(3)
H2E H 0.2692 1.0739 -0.0525
C3E C 0.3271(3) 1.2128(7) -0.0631(4)
H3E H 0.3494 1.2104 -0.0108
H4E H 0.3548 1.2222 -0.0907
C4E C 0.2535(3) 1.0873(7) -0.1650(3)
H5E H 0.2322 1.0035 -0.1766
H6E H 0.2771 1.0968 -0.1981
C5E C 0.2097(3) 1.2025(7) -0.1777(4)
H7E H 0.1875 1.1917 -0.1425
C10E C 0.1659(3) 1.2111(8) -0.2537(5)
C11E C 0.3162(3) 1.4689(7) -0.0588(3)
C12E C 0.2861(3) 1.3342(7) -0.0782(4)
H14E H 0.2608 1.3238 -0.0467
C13E C 0.2451(3) 1.3352(7) -0.1580(3)
H15E H 0.2179 1.4096 -0.1647
H16E H 0.2682 1.3478 -0.1915
Cd1E Cd -0.12129(2) 0.79340(5) -0.57218(3)
O3E O -0.0393(2) 0.7901(5) -0.6141(3)
O8E O 0.0682(6) 0.7981(15) -0.6421(7)
H1E H 0.0897 0.7843 -0.6676
C8E C 0.0083(4) 0.7051(9) -0.5894(5)
H10E H -0.0067 0.6166 -0.5848
H11E H 0.0314 0.7336 -0.5400
C9E C 0.0462(6) 0.6945(15) -0.6320(8)
H12E H 0.0775 0.6324 -0.6078
H13E H 0.0245 0.6569 -0.6798
H23E H -0.0375 0.8927 -0.6164
O1C O 0.6217(2) 0.9593(6) 0.5900(4)
O2C O 0.6827(2) 0.8595(5) 0.5441(3)
O4D O 0.6809(2) 0.6875(6) 0.6907(3)
O6C O 0.6332(2) 0.4818(6) 0.5631(3)
O7_2 O 0.2130(3) 0.9400(6) 0.0427(3)
O7E_2 O 0.2870(3) 0.5600(6) -0.0427(3)
Cd1C Cd 0.12129(2) 0.79340(5) 0.07218(3)
Cd1D Cd 0.37871(2) 0.29340(5) 0.42782(3)
Cd1C_2 Cd 0.12129(2) -0.20660(5) 0.07218(3)
Cd2_2 Cd 0.2500 -0.2500 0.0000
Cd1F Cd 0.37871(2) 0.70660(5) -0.07218(3)
Cd1A Cd 0.12129(2) 1.20660(5) -0.42782(3)
Cd1F_2 Cd 0.37871(2) 1.70660(5) -0.07218(3)
Cd2_3 Cd 0.2500 1.7500 0.0000
O1F O -0.1217(2) 0.5407(6) -0.5900(4)
O2F O -0.1827(2) 0.6405(5) -0.5441(3)
O4A O -0.1809(2) 0.8125(6) -0.6907(3)
O6F O -0.1332(2) 1.0182(6) -0.5631(3)
loop_
_geom_bond_atom_site_label_1
_geom_bond_atom_site_label_2
_geom_bond_site_symmetry_1
_geom_bond_site_symmetry_2
Cd1 N1 1_555 1_555
Cd2 N2 1_555 1_555
N1 C6 1_555 1_555
N2 C14 1_555 1_555
O1 C1 1_555 1_555
O2 Cd2 1_555 1_555
O3 Cd1 1_555 1_555
O4 C10 1_555 1_555
O5 C10 1_555 1_555
O6 C11 1_555 1_555
O7 C11 1_555 1_555
O8 H1 1_555 1_555
C1 O2 1_555 1_555
C2 C1 1_555 1_555
H2 C2 1_555 1_555
C3 C2 1_555 1_555
H3 C3 1_555 1_555
H4 C3 1_555 1_555
C4 C2 1_555 1_555
H5 C4 1_555 1_555
H6 C4 1_555 1_555
C5 C4 1_555 1_555
H7 C5 1_555 1_555
C6 H8 1_555 1_555
C7 N1 1_555 1_555
H9 C7 1_555 1_555
C8 O3 1_555 1_555
H10 C8 1_555 1_555
H11 C8 1_555 1_555
C9 O8 1_555 1_555
H12 C9 1_555 1_555
H13 C9 1_555 1_555
C10 C5 1_555 1_555
C11 C12 1_555 1_555
C12 C3 1_555 1_555
H14 C12 1_555 1_555
C13 C5 1_555 1_555
H15 C13 1_555 1_555
H16 C13 1_555 1_555
C14 H17 1_555 1_555
C15 C14 1_555 1_555
H18 C15 1_555 1_555
C16 C15 1_555 1_555
C17 C16 1_555 1_555
H19 C17 1_555 1_555
C18 N2 1_555 1_555
H20 C18 1_555 1_555
C19 C16 1_555 1_555
C20 C7 1_555 1_555
H21 C20 1_555 1_555
C21 C6 1_555 1_555
H22 C21 1_555 1_555
H23 O3 1_555 1_555
N1E C6E 1_555 1_555
N2E Cd2 1_555 1_555
C6E H8E 1_555 1_555
C7E N1E 1_555 1_555
H9E C7E 1_555 1_555
C14E N2E 1_555 1_555
H17E C14E 1_555 1_555
C15E C14E 1_555 1_555
H18E C15E 1_555 1_555
C16E C15E 1_555 1_555
C17E C16E 1_555 1_555
H19E C17E 1_555 1_555
C18E N2E 1_555 1_555
H20E C18E 1_555 1_555
C19E C16E 1_555 1_555
C20E C7E 1_555 1_555
H21E C20E 1_555 1_555
C21E C6E 1_555 1_555
H22E C21E 1_555 1_555
O1E C1E 1_555 1_555
O2E Cd2 1_555 1_555
O4E C10E 1_555 1_555
O5E C10E 1_555 1_555
O6E C11E 1_555 1_555
O7E C11E 1_555 1_555
C1E O2E 1_555 1_555
C2E C1E 1_555 1_555
H2E C2E 1_555 1_555
C3E C2E 1_555 1_555
H3E C3E 1_555 1_555
H4E C3E 1_555 1_555
C4E C2E 1_555 1_555
H5E C4E 1_555 1_555
H6E C4E 1_555 1_555
C5E C4E 1_555 1_555
H7E C5E 1_555 1_555
C10E C5E 1_555 1_555
C11E C12E 1_555 1_555
C12E C3E 1_555 1_555
H14E C12E 1_555 1_555
C13E C5E 1_555 1_555
H15E C13E 1_555 1_555
H16E C13E 1_555 1_555
Cd1E N1E 1_555 1_555
O3E Cd1E 1_555 1_555
O8E H1E 1_555 1_555
C8E O3E 1_555 1_555
H10E C8E 1_555 1_555
H11E C8E 1_555 1_555
C9E O8E 1_555 1_555
H12E C9E 1_555 1_555
H13E C9E 1_555 1_555
H23E O3E 1_555 1_555
O1C Cd1 1_555 1_555
O2C Cd1 1_555 1_555
O4D Cd1 1_555 1_555
O6C Cd1 1_555 1_555
O7_2 Cd2 1_555 1_555
O7E_2 Cd2 1_555 1_555
Cd1C O1 1_555 1_555
Cd1D O4 1_555 1_555
Cd1C_2 O6 1_555 1_555
Cd2_2 O7 1_555 1_555
Cd1F O1E 1_555 1_555
Cd1A O4E 1_555 1_555
Cd1F_2 O6E 1_555 1_555
Cd2_3 O7E 1_555 1_555
O1F Cd1E 1_555 1_555
O2F Cd1E 1_555 1_555
O4A Cd1E 1_555 1_555
O6F Cd1E 1_555 1_555
O2 Cd1C 1_555 1_555
C8 C9 1_555 1_555
C12 C13 1_555 1_555
C17 C18 1_555 1_555
C19 C21 1_555 1_555
C19 C20 1_555 1_555
C17E C18E 1_555 1_555
C19E C21E 1_555 1_555
C19E C20E 1_555 1_555
O2E Cd1F 1_555 1_555
C12E C13E 1_555 1_555
C8E C9E 1_555 1_555

#END
