
#######################################################################
#
#                 Cambridge Crystallographic Data Centre
#                                CCDC 
#
#######################################################################
#
# If this CIF has been generated from an entry in the Cambridge 
# Structural Database, then it will include bibliographic, chemical, 
# crystal, experimental, refinement or atomic coordinate data resulting 
# from the CCDC's data processing and validation procedures.
#
#######################################################################

data_DAGDUL
_symmetry_cell_setting           orthorhombic
_symmetry_space_group_name_H-M   'P n a 21'
_symmetry_Int_Tables_number      33
_space_group_name_Hall           'P 2c -2n'
loop_
_symmetry_equiv_pos_site_id
_symmetry_equiv_pos_as_xyz
1 x,y,z
2 -x,-y,1/2+z
3 1/2+x,1/2-y,z
4 1/2-x,1/2+y,1/2+z
_cell_length_a                   16.695(3)
_cell_length_b                   9.0439(18)
_cell_length_c                   26.523(5)
_cell_angle_alpha                90
_cell_angle_beta                 90
_cell_angle_gamma                90
_cell_volume                     4004.65
loop_
_atom_site_label
_atom_site_type_symbol
_atom_site_fract_x
_atom_site_fract_y
_atom_site_fract_z
Cd1 Cd 0.41037(3) 0.97749(5) 0.11013(2)
Cd2 Cd 0.97473(4) 0.52547(6) -0.021910(17)
Cd3 Cd -0.12774(4) 1.52208(7) 0.244710(18)
N1 N 1.1372(4) 0.5615(7) -0.1723(2)
N2 N 1.2257(6) 0.5785(10) -0.0981(3)
N3 N 1.1483(6) 0.7915(7) -0.1234(3)
N4 N 1.0806(4) 0.5776(8) -0.0878(2)
N5 N 0.8735(5) 0.9763(8) -0.0140(3)
C1 C 0.5452(5) 0.7587(9) 0.0622(3)
C2 C 0.5964(5) 0.6230(8) 0.0717(3)
H1 H 0.6109 0.6186 0.1074
C3 C 0.5429(5) 0.4904(8) 0.0586(3)
H2 H 0.5268 0.4969 0.0235
H3 H 0.4950 0.4935 0.0792
C4 C 0.5867(5) 0.3422(8) 0.0674(3)
H4 H 0.6019 0.3351 0.1030
C5 C 0.6633(5) 0.3384(9) 0.0346(4)
H5 H 0.6919 0.2468 0.0407
H6 H 0.6486 0.3416 -0.0007
C6 C 0.7175(5) 0.4689(9) 0.0469(3)
H7 H 0.7357 0.4605 0.0819
C7 C 0.6717(5) 0.6194(9) 0.0401(3)
H8 H 0.7064 0.7004 0.0500
H9 H 0.6578 0.6326 0.0049
C8 C 0.5318(6) 0.2153(9) 0.0545(4)
C9 C 0.7900(5) 0.4710(10) 0.0123(3)
C10 C -0.0281(12) 1.8220(19) 0.2549(7)
H10 H -0.0041 1.7620 0.2286
H11 H -0.0698 1.8786 0.2383
C11 C 0.8846(6) 0.8292(10) -0.0100(4)
H12 H 0.8643 0.7824 0.0185
C12 C 0.9060(9) 1.0529(11) -0.0589(5)
H13 H 0.9336 0.9830 -0.0799
H14 H 0.8628 1.0967 -0.0776
H15 H 0.9426 1.1287 -0.0483
C13 C 0.8315(10) 1.0604(16) 0.0211(6)
H16 H 0.8687 1.1112 0.0426
H17 H 0.7986 1.1312 0.0038
H18 H 0.7983 0.9967 0.0411
C14 C 0.2954(6) 1.2127(8) 0.1737(4)
C15 C 0.2390(5) 1.3441(8) 0.1648(3)
H19 H 0.2256 1.3453 0.1288
C16 C 0.2835(5) 1.4899(8) 0.1767(3)
H20 H 0.2974 1.4926 0.2122
H21 H 0.3326 1.4943 0.1573
C17 C 0.2310(6) 1.6232(9) 0.1638(3)
H22 H 0.2182 1.6188 0.1278
C18 C 0.2804(7) 1.7630(9) 0.1732(4)
C19 C 0.1534(5) 1.6170(9) 0.1929(3)
H23 H 0.1195 1.6994 0.1832
H24 H 0.1643 1.6252 0.2287
C20 C 0.1101(5) 1.4714(8) 0.1822(3)
H25 H 0.0990 1.4689 0.1460
C21 C 0.1609(6) 1.3415(9) 0.1937(3)
H26 H 0.1319 1.2520 0.1853
H27 H 0.1723 1.3395 0.2295
C22 C 0.0296(5) 1.4682(9) 0.2090(3)
C23 C 1.0733(5) 0.5132(10) -0.1392(3)
H28 H 1.0222 0.5417 -0.1536
H29 H 1.0743 0.4062 -0.1367
C24 C 1.2140(6) 0.5166(12) -0.1505(3)
H30 H 1.2164 0.4095 -0.1490
H31 H 1.2571 0.5505 -0.1721
C25 C 1.1386(7) 0.7280(9) -0.1744(3)
H32 H 1.0891 0.7637 -0.1892
H33 H 1.1826 0.7602 -0.1957
C26 C 1.2232(7) 0.7379(12) -0.1020(4)
H34 H 1.2303 0.7803 -0.0687
H35 H 1.2674 0.7711 -0.1229
C27 C 1.0834(7) 0.7387(10) -0.0922(3)
H36 H 1.0888 0.7810 -0.0588
H37 H 1.0331 0.7732 -0.1062
C28 C 1.1587(6) 0.5303(12) -0.0674(3)
H38 H 1.1595 0.4233 -0.0649
H39 H 1.1648 0.5700 -0.0336
C29 C 0.0251(7) 1.9171(12) 0.2647(5)
H40 H 0.0401 1.9676 0.2343
H41 H 0.0044 1.9873 0.2886
H42 H 0.0712 1.8688 0.2788
O1 O 0.4861(5) 0.7800(6) 0.0910(3)
O2 O 0.8574(4) 0.5055(7) 0.0288(2)
O3 O 0.4982(4) 0.1540(7) 0.0904(3)
O4 O 0.3335(5) 1.1656(7) 0.1387(3)
O5 O -0.0293(4) 1.5332(7) 0.18833(18)
O6 O 0.3175(5) 1.8164(7) 0.1375(3)
O7 O 0.5605(5) 0.8398(7) 0.0247(2)
O8 O 0.9191(4) 0.7534(7) -0.0410(2)
O9 O 0.5242(5) 0.1850(7) 0.0075(2)
O10 O 0.9068(4) 0.4216(8) -0.0883(2)
O11 O 0.2976(6) 1.1652(7) 0.2192(2)
O12 O 0.2832(5) 1.8093(7) 0.2190(3)
O13 O -0.0658(5) 1.7309(8) 0.2811(3)
O14 O 0.0226(4) 1.4092(7) 0.2510(2)
O15 O 0.7777(4) 0.4328(8) -0.0321(2)
O2B O 0.3574(4) 0.9945(7) 0.0288(2)
O3_2 O 0.4982(4) 1.1540(7) 0.0904(3)
O5B O 0.4707(4) 0.9668(7) 0.18833(18)
O6_2 O 0.3175(5) 0.8164(7) 0.1375(3)
O7B O 1.0605(5) 0.6602(7) 0.0247(2)
O9B O 1.0242(5) 0.3150(7) 0.0075(2)
N1A N -0.1372(4) 1.4385(7) 0.3277(2)
O11B O -0.2024(6) 1.3348(7) 0.2192(2)
O12B O -0.2168(5) 1.6907(7) 0.2190(3)
Cd3A Cd 1.12774(4) 0.47792(7) -0.255290(18)
Cd1B Cd 0.91037(3) 0.52251(5) 0.11013(2)
Cd1_2 Cd 0.41037(3) -0.02251(5) 0.11013(2)
Cd1B_2 Cd -0.08963(3) 1.52251(5) 0.11013(2)
Cd1_3 Cd 0.41037(3) 1.97749(5) 0.11013(2)
Cd2B Cd 0.47473(4) 0.97453(6) -0.021910(17)
Cd2B_2 Cd 0.47473(4) -0.02547(6) -0.021910(17)
Cd3B Cd 0.37226(4) 0.97792(7) 0.244710(18)
Cd3B_2 Cd 0.37226(4) 1.97792(7) 0.244710(18)
O16 O 0.3414(6) 0.6112(8) 0.3932(3)
O17 O 0.6336(5) 0.0708(9) 0.3259(3)
O18 O 0.2492(7) 0.6368(12) 0.3082(4)
loop_
_geom_bond_atom_site_label_1
_geom_bond_atom_site_label_2
_geom_bond_site_symmetry_1
_geom_bond_site_symmetry_2
Cd1 O1 1_555 1_555
Cd2 N4 1_555 1_555
Cd3 O5 1_555 1_555
N1 C23 1_555 1_555
N2 C24 1_555 1_555
N3 C25 1_555 1_555
N4 C23 1_555 1_555
N5 C11 1_555 1_555
C1 C2 1_555 1_555
C2 H1 1_555 1_555
C3 C2 1_555 1_555
H2 C3 1_555 1_555
H3 C3 1_555 1_555
C4 C3 1_555 1_555
H4 C4 1_555 1_555
C5 C4 1_555 1_555
H5 C5 1_555 1_555
H6 C5 1_555 1_555
C6 C5 1_555 1_555
H7 C6 1_555 1_555
C7 C2 1_555 1_555
H8 C7 1_555 1_555
H9 C7 1_555 1_555
C8 C4 1_555 1_555
C9 C6 1_555 1_555
C10 H10 1_555 1_555
H11 C10 1_555 1_555
C11 H12 1_555 1_555
C12 N5 1_555 1_555
H13 C12 1_555 1_555
H14 C12 1_555 1_555
H15 C12 1_555 1_555
C13 N5 1_555 1_555
H16 C13 1_555 1_555
H17 C13 1_555 1_555
H18 C13 1_555 1_555
C14 C15 1_555 1_555
C15 H19 1_555 1_555
C16 C15 1_555 1_555
H20 C16 1_555 1_555
H21 C16 1_555 1_555
C17 C16 1_555 1_555
H22 C17 1_555 1_555
C18 C17 1_555 1_555
C19 C17 1_555 1_555
H23 C19 1_555 1_555
H24 C19 1_555 1_555
C20 C19 1_555 1_555
H25 C20 1_555 1_555
C21 C15 1_555 1_555
H26 C21 1_555 1_555
H27 C21 1_555 1_555
C22 C20 1_555 1_555
C23 H28 1_555 1_555
H29 C23 1_555 1_555
C24 N1 1_555 1_555
H30 C24 1_555 1_555
H31 C24 1_555 1_555
C25 N1 1_555 1_555
H32 C25 1_555 1_555
H33 C25 1_555 1_555
C26 N2 1_555 1_555
H34 C26 1_555 1_555
H35 C26 1_555 1_555
C27 N3 1_555 1_555
H36 C27 1_555 1_555
H37 C27 1_555 1_555
C28 N2 1_555 1_555
H38 C28 1_555 1_555
H39 C28 1_555 1_555
C29 C10 1_555 1_555
H40 C29 1_555 1_555
H41 C29 1_555 1_555
H42 C29 1_555 1_555
O1 C1 1_555 1_555
O2 Cd2 1_555 1_555
O3 C8 1_555 1_555
O4 Cd1 1_555 1_555
O5 C22 1_555 1_555
O6 C18 1_555 1_555
O7 C1 1_555 1_555
O8 Cd2 1_555 1_555
O9 C8 1_555 1_555
O10 Cd2 1_555 1_555
O11 C14 1_555 1_555
O12 C18 1_555 1_555
O13 Cd3 1_555 1_555
O14 C22 1_555 1_555
O15 C9 1_555 1_555
O2B Cd1 1_555 1_555
O3_2 Cd1 1_555 1_555
O5B Cd1 1_555 1_555
O6_2 Cd1 1_555 1_555
O7B Cd2 1_555 1_555
O9B Cd2 1_555 1_555
N1A Cd3 1_555 1_555
O11B Cd3 1_555 1_555
O12B Cd3 1_555 1_555
Cd3A N1 1_555 1_555
Cd1B O2 1_555 1_555
Cd1_2 O3 1_555 1_555
Cd1B_2 O5 1_555 1_555
Cd1_3 O6 1_555 1_555
Cd2B O7 1_555 1_555
Cd2B_2 O9 1_555 1_555
Cd3B O11 1_555 1_555
Cd3B_2 O12 1_555 1_555
N3 C26 1_555 1_555
N4 C27 1_555 1_555
N4 C28 1_555 1_555
C6 C7 1_555 1_555
C9 O2 1_555 1_555
C10 O13 1_555 1_555
C11 O8 1_555 1_555
C14 O4 1_555 1_555
C20 C21 1_555 1_555
O2B Cd2B 1_555 1_555
O5B Cd3B 1_555 1_555

#END
