
#######################################################################
#
#                 Cambridge Crystallographic Data Centre
#                                CCDC 
#
#######################################################################
#
# If this CIF has been generated from an entry in the Cambridge 
# Structural Database, then it will include bibliographic, chemical, 
# crystal, experimental, refinement or atomic coordinate data resulting 
# from the CCDC's data processing and validation procedures.
#
#######################################################################

data_DAHMEF01
_symmetry_cell_setting           triclinic
_symmetry_space_group_name_H-M   'P -1'
_symmetry_Int_Tables_number      2
_space_group_name_Hall           '-P 1'
loop_
_symmetry_equiv_pos_site_id
_symmetry_equiv_pos_as_xyz
1 x,y,z
2 -x,-y,-z
_cell_length_a                   5.5962(7)
_cell_length_b                   7.7758(6)
_cell_length_c                   9.6975(10)
_cell_angle_alpha                111.981(5)
_cell_angle_beta                 101.649(6)
_cell_angle_gamma                98.240(5)
_cell_volume                     371.953
loop_
_atom_site_label
_atom_site_type_symbol
_atom_site_fract_x
_atom_site_fract_y
_atom_site_fract_z
Cd1 Cd 0.03866(4) 0.57366(3) 0.34162(2)
O1 O -0.1348(7) 0.8192(6) 0.4915(5)
O2 O -0.3032(7) 0.5541(6) 0.1562(4)
O3 O 0.2793(7) 0.7407(5) 0.2397(4)
O4 O 0.4371(5) 0.8927(4) 0.5923(3)
O5 O 0.2280(5) 0.6304(4) 0.5958(3)
O6 O 0.9183(5) 0.6730(4) 0.9637(3)
O7 O 0.7749(5) 0.6695(4) 0.7318(3)
C1 C 0.6391(6) 0.8693(4) 0.9371(4)
C2 C 0.3076(6) 1.0294(5) 0.9031(4)
C3 C 0.4434(6) 0.8977(4) 0.8389(4)
C4 C 0.3707(6) 0.7985(5) 0.6641(4)
C5 C 0.7894(7) 0.7275(5) 0.8738(4)
H1 H -0.277(14) 0.595(10) 0.110(9)
H2 H -0.26(4) 0.78(3) 0.53(2)
H3 H 0.182(11) 0.741(8) 0.149(7)
H4 H -0.427(13) 0.582(8) 0.170(7)
H5 H -0.13(2) 0.94(2) 0.494(18)
H6 H 0.329(18) 0.805(13) 0.284(12)
Cd1A Cd 0.96134(4) 1.42634(3) 1.65838(2)
Cd1A_2 Cd -0.03866(4) 0.42634(3) 0.65838(2)
Cd1A_3 Cd 0.96134(4) 0.42634(3) 0.65838(2)
Cd1_2 Cd 0.03866(4) 1.57366(3) 1.34162(2)
Cd1_3 Cd 1.03866(4) 1.57366(3) 1.34162(2)
O1A O 1.1348(7) 1.1808(6) 1.5085(5)
O2A O 1.3032(7) 1.4459(6) 1.8438(4)
O3A O 0.7207(7) 1.2593(5) 1.7603(4)
O4A O 0.5629(5) 1.1073(4) 1.4077(3)
O5A O 0.7720(5) 1.3696(4) 1.4042(3)
O5A_2 O -0.2280(5) 0.3696(4) 0.4042(3)
O5_2 O 1.2280(5) 1.6304(4) 1.5958(3)
O6A O 0.0817(5) 1.3270(4) 1.0363(3)
O7A O 0.2251(5) 1.3305(4) 1.2682(3)
O7A_2 O 0.2251(5) 0.3305(4) 0.2682(3)
O7_2 O 0.7749(5) 1.6695(4) 1.7318(3)
C1A C 0.3609(6) 1.1307(4) 1.0629(4)
C2A C 0.6924(6) 0.9706(5) 1.0969(4)
C3A C 0.5566(6) 1.1023(4) 1.1611(4)
C4A C 0.6293(6) 1.2015(5) 1.3359(4)
C5A C 0.2106(7) 1.2725(5) 1.1262(4)
H1A H 1.277(14) 1.405(10) 1.890(9)
H2A H 1.26(4) 1.22(3) 1.47(2)
H3A H 0.818(11) 1.259(8) 1.851(7)
H4A H 1.427(13) 1.418(8) 1.830(7)
H5A H 1.13(2) 1.06(2) 1.506(18)
H6A H 0.671(18) 1.195(13) 1.716(12)
loop_
_geom_bond_atom_site_label_1
_geom_bond_atom_site_label_2
_geom_bond_site_symmetry_1
_geom_bond_site_symmetry_2
Cd1 O1 1_555 1_555
O1 H2 1_555 1_555
O2 Cd1 1_555 1_555
O3 Cd1 1_555 1_555
O4 C4 1_555 1_555
O5 Cd1 1_555 1_555
O6 C5 1_555 1_555
O7 C5 1_555 1_555
C1 C3 1_555 1_555
C2 C3 1_555 1_555
C3 C4 1_555 1_555
C4 O5 1_555 1_555
C5 C1 1_555 1_555
H1 O2 1_555 1_555
H3 O3 1_555 1_555
H4 O2 1_555 1_555
H5 O1 1_555 1_555
H6 O3 1_555 1_555
Cd1A O1A 1_555 1_555
Cd1A_2 O5 1_555 1_555
Cd1A_3 O7 1_555 1_555
Cd1_2 O7A 1_555 1_555
Cd1_3 O5A 1_555 1_555
O1A H2A 1_555 1_555
O2A Cd1A 1_555 1_555
O3A Cd1A 1_555 1_555
O4A C4A 1_555 1_555
O5A Cd1A 1_555 1_555
O5A_2 Cd1 1_555 1_555
O5_2 Cd1A 1_555 1_555
O6A C5A 1_555 1_555
O7A C5A 1_555 1_555
O7A_2 Cd1 1_555 1_555
O7_2 Cd1A 1_555 1_555
C1A C2 1_555 1_555
C2A C1 1_555 1_555
C3A C1A 1_555 1_555
C4A O5A 1_555 1_555
C5A C1A 1_555 1_555
H1A O2A 1_555 1_555
H3A O3A 1_555 1_555
H4A O2A 1_555 1_555
H5A O1A 1_555 1_555
H6A O3A 1_555 1_555
Cd1A_2 O5A_2 1_555 1_555
Cd1_3 O5_2 1_555 1_555
C2A C3A 1_555 1_555
C3A C4A 1_555 1_555

#END
