
#######################################################################
#
#                 Cambridge Crystallographic Data Centre
#                                CCDC 
#
#######################################################################
#
# If this CIF has been generated from an entry in the Cambridge 
# Structural Database, then it will include bibliographic, chemical, 
# crystal, experimental, refinement or atomic coordinate data resulting 
# from the CCDC's data processing and validation procedures.
#
#######################################################################

data_DAHSAH
_symmetry_cell_setting           triclinic
_symmetry_space_group_name_H-M   'P -1'
_symmetry_Int_Tables_number      2
_space_group_name_Hall           '-P 1'
loop_
_symmetry_equiv_pos_site_id
_symmetry_equiv_pos_as_xyz
1 x,y,z
2 -x,-y,-z
_cell_length_a                   10.544(2)
_cell_length_b                   12.808(3)
_cell_length_c                   13.154(3)
_cell_angle_alpha                110.58(3)
_cell_angle_beta                 97.81(3)
_cell_angle_gamma                111.86(3)
_cell_volume                     1468.92
loop_
_atom_site_label
_atom_site_type_symbol
_atom_site_fract_x
_atom_site_fract_y
_atom_site_fract_z
Cu1 Cu 0.8903(1) 0.2385(1) 0.4116(1)
Cu2 Cu 0.8307(1) 0.4517(1) 0.4492(1)
Cu3 Cu 0.5350(2) -0.0312(2) 0.2310(2)
Cu4 Cu 0.4119(2) -0.1364(2) 0.0160(2)
Cu5 Cu 0.2591(2) -0.3737(2) 0.0642(2)
Cu6 Cu 0.0137(3) -0.3816(3) 0.0849(2)
Br1 Br 0.6288(1) 0.0960(1) 0.4244(1)
Br2 Br 0.4768(1) 0.0957(1) 0.1324(1)
Br3 Br 0.5255(1) -0.2266(1) 0.1173(1)
Br4 Br 0.1546(1) -0.2774(1) -0.0405(1)
Br5 Br 0.1855(1) -0.3423(1) 0.2442(1)
Br6 Br 0.2164(1) -0.5881(1) -0.0327(1)
N1 N 0.9017(8) 0.1095(8) 0.2778(6)
N2 N 1.0166(8) 0.1928(6) 0.4993(6)
N3 N 0.7002(7) 0.4893(6) 0.3576(6)
N4 N 0.8024(8) 0.5713(7) 0.5822(6)
O1 O 0.8158(7) 0.3098(6) 0.3270(5)
O2 O 0.9415(6) 0.4016(6) 0.5374(5)
C1 C 0.8392(11) 0.0655(10) 0.1678(9)
C2 C 0.8615(10) -0.0224(11) 0.0842(8)
C3 C 0.9645(11) -0.0559(9) 0.1154(7)
C4 C 1.0358(10) -0.0095(9) 0.2336(8)
C5 C 1.1379(12) -0.0432(10) 0.2706(10)
C6 C 1.2000(10) 0.0028(9) 0.3885(8)
C7 C 1.1593(10) 0.0807(10) 0.4661(8)
C8 C 1.2150(11) 0.1301(9) 0.5874(9)
C9 C 1.1657(10) 0.2012(9) 0.6584(8)
C10 C 1.0682(9) 0.2342(8) 0.6075(8)
C11 C 1.0574(9) 0.1146(8) 0.4256(8)
C12 C 0.9981(9) 0.0692(8) 0.3086(8)
C13 C 0.8571(9) 0.6119(9) 0.6920(8)
C14 C 0.8198(10) 0.6882(10) 0.7772(8)
C15 C 0.7186(9) 0.7229(9) 0.7371(8)
C16 C 0.6573(9) 0.6794(8) 0.6188(8)
C17 C 0.5564(9) 0.7161(8) 0.5727(8)
C18 C 0.5055(9) 0.6750(9) 0.4577(8)
C19 C 0.5490(9) 0.5938(8) 0.3805(8)
C20 C 0.5024(10) 0.5512(10) 0.2622(9)
C21 C 0.5519(11) 0.4743(11) 0.1960(8)
C22 C 0.6524(10) 0.4515(9) 0.2483(8)
C23 C 0.6504(9) 0.5645(8) 0.4272(7)
C24 C 0.7045(10) 0.6068(9) 0.5431(8)
H1 H 0.7821 0.2823 0.2486
H2 H 0.9988 0.4413 0.6130
H3 H 0.7771 0.0947 0.1451
H4 H 0.8074 -0.0580 0.0081
H5 H 0.9876 -0.1083 0.0601
H6 H 1.1646 -0.0952 0.2184
H7 H 1.2684 -0.0187 0.4148
H8 H 1.2859 0.1135 0.6182
H9 H 1.1947 0.2269 0.7367
H10 H 1.0404 0.2888 0.6552
H11 H 0.9255 0.5890 0.7158
H12 H 0.8595 0.7137 0.8545
H13 H 0.6917 0.7751 0.7890
H14 H 0.5265 0.7678 0.6218
H15 H 0.4420 0.6998 0.4290
H16 H 0.4399 0.5741 0.2291
H17 H 0.5170 0.4384 0.1169
H18 H 0.6899 0.4052 0.2020
O2A O 1.0585(6) 0.5984(6) 0.4626(5)
Br2A Br 0.5232(1) -0.0957(1) -0.1324(1)
Br6A Br -0.2164(1) -0.4119(1) 0.0327(1)
Cu4A Cu 0.5881(2) 0.1364(2) -0.0160(2)
Cu6A Cu -0.0137(3) -0.6184(3) -0.0849(2)
Cu2A Cu 1.1693(1) 0.5483(1) 0.5508(1)
H2A H 1.0012 0.5587 0.3870
loop_
_geom_bond_atom_site_label_1
_geom_bond_atom_site_label_2
_geom_bond_site_symmetry_1
_geom_bond_site_symmetry_2
Cu1 Br1 1_555 1_555
Cu2 N3 1_555 1_555
Cu3 Br1 1_555 1_555
Cu4 Br2 1_555 1_555
Cu5 Br3 1_555 1_555
Cu6 Br4 1_555 1_555
Br2 Cu3 1_555 1_555
Br3 Cu3 1_555 1_555
Br4 Cu4 1_555 1_555
Br5 Cu5 1_555 1_555
Br6 Cu5 1_555 1_555
N1 Cu1 1_555 1_555
N2 Cu1 1_555 1_555
N3 C22 1_555 1_555
N4 Cu2 1_555 1_555
O1 Cu1 1_555 1_555
O2 Cu1 1_555 1_555
C1 N1 1_555 1_555
C2 C1 1_555 1_555
C3 C2 1_555 1_555
C4 C3 1_555 1_555
C5 C4 1_555 1_555
C6 C5 1_555 1_555
C7 C6 1_555 1_555
C8 C7 1_555 1_555
C9 C8 1_555 1_555
C10 N2 1_555 1_555
C11 N2 1_555 1_555
C12 N1 1_555 1_555
C13 N4 1_555 1_555
C14 C13 1_555 1_555
C15 C14 1_555 1_555
C16 C15 1_555 1_555
C17 C16 1_555 1_555
C18 C17 1_555 1_555
C19 C18 1_555 1_555
C20 C19 1_555 1_555
C21 C20 1_555 1_555
C22 C21 1_555 1_555
C23 N3 1_555 1_555
C24 N4 1_555 1_555
H1 O1 1_555 1_555
H2 O2 1_555 1_555
H3 C1 1_555 1_555
H4 C2 1_555 1_555
H5 C3 1_555 1_555
H6 C5 1_555 1_555
H7 C6 1_555 1_555
H8 C8 1_555 1_555
H9 C9 1_555 1_555
H10 C10 1_555 1_555
H11 C13 1_555 1_555
H12 C14 1_555 1_555
H13 C15 1_555 1_555
H14 C17 1_555 1_555
H15 C18 1_555 1_555
H16 C20 1_555 1_555
H17 C21 1_555 1_555
H18 C22 1_555 1_555
O2A Cu2 1_555 1_555
Br2A Cu4 1_555 1_555
Br6A Cu6 1_555 1_555
Cu4A Br2 1_555 1_555
Cu6A Br6 1_555 1_555
Cu2A O2 1_555 1_555
H2A O2A 1_555 1_555
Cu2 O1 1_555 1_555
Cu2 O2 1_555 1_555
Cu4 Br3 1_555 1_555
Cu5 Br4 1_555 1_555
Cu6 Br5 1_555 1_555
C4 C12 1_555 1_555
C7 C11 1_555 1_555
C9 C10 1_555 1_555
C11 C12 1_555 1_555
C16 C24 1_555 1_555
C19 C23 1_555 1_555
C23 C24 1_555 1_555
O2A Cu2A 1_555 1_555
Br2A Cu4A 1_555 1_555

#END
