
#######################################################################
#
#                 Cambridge Crystallographic Data Centre
#                                CCDC 
#
#######################################################################
#
# If this CIF has been generated from an entry in the Cambridge 
# Structural Database, then it will include bibliographic, chemical, 
# crystal, experimental, refinement or atomic coordinate data resulting 
# from the CCDC's data processing and validation procedures.
#
#######################################################################

data_DAHWAM
_symmetry_cell_setting           monoclinic
_symmetry_space_group_name_H-M   'P 21/c'
_symmetry_Int_Tables_number      14
_space_group_name_Hall           '-P 2ybc'
loop_
_symmetry_equiv_pos_site_id
_symmetry_equiv_pos_as_xyz
1 x,y,z
2 -x,1/2+y,1/2-z
3 -x,-y,-z
4 x,1/2-y,1/2+z
_cell_length_a                   22.005(4)
_cell_length_b                   10.165(2)
_cell_length_c                   14.144(3)
_cell_angle_alpha                90
_cell_angle_beta                 91.55(3)
_cell_angle_gamma                90
_cell_volume                     3162.58
loop_
_atom_site_label
_atom_site_type_symbol
_atom_site_fract_x
_atom_site_fract_y
_atom_site_fract_z
Eu1 Eu 0.750601(8) 0.250597(18) 0.974890(13)
Eu2 Eu 0.740600(8) 0.442200(19) 1.232630(13)
O1 O 0.80599(11) 0.3682(3) 1.09765(19)
O2 O 0.7518(2) 0.6796(4) 1.2547(3)
H1 H 0.7571 0.7110 1.3100
H2 H 0.7504 0.7307 1.2072
O3 O 0.85412(16) 0.4818(5) 1.2049(3)
O4 O 1.21422(14) 0.7345(3) 1.2045(2)
O5 O 1.18720(15) 0.5794(3) 1.1065(2)
O6 O 0.69195(12) 0.2590(3) 1.1390(2)
O7 O 0.71642(17) 0.0687(3) 1.0809(2)
O8 O 0.32491(11) -0.1620(3) 1.13481(19)
O9 O 0.36777(16) -0.0066(4) 1.2172(3)
O10 O 0.69370(15) 0.5516(3) 1.0956(2)
O11 O 0.68372(16) 0.4336(3) 0.9655(2)
O12 O 0.78328(12) 0.0252(3) 0.89407(19)
O13 O 0.84707(14) 0.1306(3) 0.9881(3)
C1 C 0.85494(18) 0.4218(5) 1.1290(3)
C2 C 0.91140(18) 0.4073(6) 1.0719(3)
H3 H 0.9157 0.3153 1.0550
H4 H 0.9056 0.4564 1.0135
C3 C 0.97005(18) 0.4524(5) 1.1194(3)
C4 C 1.01390(19) 0.3624(5) 1.1473(3)
H5 H 1.0071 0.2732 1.1366
C5 C 1.06814(19) 0.4029(5) 1.1912(3)
H6 H 1.0969 0.3404 1.2099
C6 C 1.07969(18) 0.5336(4) 1.2073(3)
C7 C 1.0363(2) 0.6242(5) 1.1780(3)
H7 H 1.0436 0.7134 1.1872
C8 C 0.9820(2) 0.5842(5) 1.1349(3)
H8 H 0.9532 0.6468 1.1163
C9 C 1.1386(2) 0.5801(6) 1.2546(3)
H9 H 1.1576 0.5071 1.2880
H10 H 1.1296 0.6477 1.3006
C10 C 1.18208(16) 0.6344(4) 1.1843(3)
C11 C 0.69243(16) 0.1354(4) 1.1441(3)
C12 C 0.66155(18) 0.0652(4) 1.2238(3)
H11 H 0.6588 0.1236 1.2778
H12 H 0.6852 -0.0112 1.2431
C13 C 0.59841(18) 0.0228(4) 1.1909(3)
C14 C 0.5849(2) -0.1081(5) 1.1746(4)
H13 H 0.6143 -0.1724 1.1861
C15 C 0.5273(2) -0.1431(6) 1.1409(4)
H14 H 0.5188 -0.2313 1.1293
C16 C 0.4828(2) -0.0514(6) 1.1243(3)
C17 C 0.4961(2) 0.0785(6) 1.1416(4)
H15 H 0.4665 0.1423 1.1307
C18 C 0.5534(2) 0.1156(5) 1.1753(4)
H16 H 0.5616 0.2038 1.1874
C19 C 0.4216(2) -0.0934(8) 1.0842(4)
H17 H 0.4120 -0.0395 1.0292
H18 H 0.4248 -0.1837 1.0627
C20 C 0.36928(18) -0.0848(5) 1.1503(3)
C21 C 0.66988(17) 0.5276(4) 1.0165(3)
C22 C 0.61973(18) 0.6183(4) 0.9791(3)
H19 H 0.6261 0.6371 0.9128
H20 H 0.6213 0.7008 1.0135
C23 C 0.55794(18) 0.5558(4) 0.9896(3)
C24 C 0.5169(2) 0.5480(5) 0.9135(3)
H21 H 0.5280 0.5797 0.8547
C25 C 0.5402(2) 0.5062(5) 1.0764(3)
H22 H 0.5670 0.5096 1.1282
C26 C 0.83523(17) 0.0353(4) 0.9359(3)
C27 C 0.88163(18) -0.0710(4) 0.9211(3)
H23 H 0.8678 -0.1516 0.9501
H24 H 0.8848 -0.0871 0.8538
C28 C 0.94336(17) -0.0368(4) 0.9617(3)
C29 C 0.98632(19) 0.0200(4) 0.9048(3)
H25 H 0.9775 0.0336 0.8408
C30 C 0.95741(19) -0.0567(4) 1.0572(3)
H26 H 0.9288 -0.0949 1.0958
Eu1B Eu 1.249399(8) 0.749403(18) 1.025110(13)
Eu1B_2 Eu 0.249399(8) -0.250597(18) 1.025110(13)
Eu1B_3 Eu 0.249399(8) 0.749403(18) 1.025110(13)
Eu1B_4 Eu 1.249399(8) -0.250597(18) 1.025110(13)
Eu2B Eu 1.259400(8) 0.557800(19) 0.767370(13)
Eu2A Eu 1.259400(8) 0.942200(19) 1.267370(13)
Eu2A_2 Eu 0.259400(8) -0.057800(19) 1.267370(13)
Eu2C Eu 0.740600(8) 0.057800(19) 0.732630(13)
Eu2B_2 Eu 0.259400(8) 0.557800(19) 0.767370(13)
Eu2A_3 Eu 1.259400(8) -0.057800(19) 1.267370(13)
Eu2B_3 Eu 0.259400(8) -0.442200(19) 0.767370(13)
O1B O 1.19401(11) 0.6318(3) 0.90235(19)
O2B O 1.2482(2) 0.3204(4) 0.7453(3)
H1B H 1.2429 0.2890 0.6900
H2B H 1.2496 0.2693 0.7928
O3B O 1.14588(16) 0.5182(5) 0.7951(3)
O4B O 0.78578(14) 0.2655(3) 0.7955(2)
O4A O 0.78578(14) 0.2345(3) 1.2955(2)
O4C O 1.21422(14) 0.7655(3) 0.7045(2)
O5B O 0.81280(15) 0.4206(3) 0.8935(2)
O6B O 0.30805(12) -0.2590(3) 0.8610(2)
O6B_2 O 1.30805(12) 0.7410(3) 0.8610(2)
O7B O 0.28358(17) -0.0687(3) 0.9191(2)
O7B_2 O 1.28358(17) 0.9313(3) 0.9191(2)
O8B O 0.67509(11) 0.1620(3) 0.86519(19)
O8A O 0.67509(11) 0.3380(3) 1.36519(19)
O8_2 O 1.32491(11) 0.8380(3) 1.13481(19)
O8C O 1.32491(11) 0.6620(3) 0.63481(19)
O9B O 0.63223(16) 0.0066(4) 0.7828(3)
O9A O 0.63223(16) 0.4934(4) 1.2828(3)
O9C O 1.36777(16) 0.5066(4) 0.7172(3)
O10B O 0.30630(15) 0.4484(3) 0.9044(2)
O10B_2 O 1.30630(15) 0.4484(3) 0.9044(2)
O11B O 0.31628(16) 0.5664(3) 1.0345(2)
O11B_2 O 1.31628(16) 0.5664(3) 1.0345(2)
O12B O 1.21672(12) -0.0252(3) 1.10593(19)
O12C O 0.78328(12) 0.4748(3) 1.39407(19)
O12B_2 O 1.21672(12) 0.9748(3) 1.10593(19)
O12A O 1.21672(12) 0.5252(3) 0.60593(19)
O13B O 1.15293(14) -0.1306(3) 1.0119(3)
O13B_2 O 1.15293(14) 0.8694(3) 1.0119(3)
C1B C 1.14506(18) 0.5782(5) 0.8710(3)
C2B C 1.08860(18) 0.5927(6) 0.9281(3)
H3B H 1.0843 0.6847 0.9450
H4B H 1.0944 0.5436 0.9865
C3B C 1.02995(18) 0.5476(5) 0.8806(3)
C4B C 0.98610(19) 0.6376(5) 0.8527(3)
H5B H 0.9929 0.7268 0.8634
C5B C 0.93186(19) 0.5971(5) 0.8088(3)
H6B H 0.9031 0.6596 0.7901
C6B C 0.92031(18) 0.4664(4) 0.7927(3)
C7B C 0.9637(2) 0.3758(5) 0.8220(3)
H7B H 0.9564 0.2866 0.8128
C8B C 1.0180(2) 0.4158(5) 0.8651(3)
H8B H 1.0468 0.3532 0.8837
C9B C 0.8614(2) 0.4199(6) 0.7454(3)
H9B H 0.8424 0.4929 0.7120
H10B H 0.8704 0.3523 0.6994
C10B C 0.81792(16) 0.3656(4) 0.8157(3)
C11B C 0.30757(16) -0.1354(4) 0.8559(3)
C12B C 0.33845(18) -0.0652(4) 0.7762(3)
H11B H 0.3412 -0.1236 0.7222
H12B H 0.3148 0.0112 0.7569
C13B C 0.40159(18) -0.0228(4) 0.8091(3)
C14B C 0.4151(2) 0.1081(5) 0.8254(4)
H13B H 0.3857 0.1724 0.8139
C15B C 0.4727(2) 0.1431(6) 0.8591(4)
H14B H 0.4812 0.2313 0.8707
C16B C 0.5172(2) 0.0514(6) 0.8757(3)
C17B C 0.5039(2) -0.0785(6) 0.8584(4)
H15B H 0.5335 -0.1423 0.8693
C18B C 0.4466(2) -0.1156(5) 0.8247(4)
H16B H 0.4384 -0.2038 0.8126
C19B C 0.5784(2) 0.0934(8) 0.9158(4)
H17B H 0.5880 0.0395 0.9708
H18B H 0.5752 0.1837 0.9373
C20B C 0.63072(18) 0.0848(5) 0.8497(3)
C21B C 0.33012(17) 0.4724(4) 0.9835(3)
C22B C 0.38027(18) 0.3817(4) 1.0209(3)
H19B H 0.3739 0.3629 1.0872
H20B H 0.3787 0.2992 0.9865
C23B C 0.44206(18) 0.4442(4) 1.0104(3)
C24B C 0.4831(2) 0.4520(5) 1.0865(3)
H21B H 0.4720 0.4203 1.1453
C25B C 0.4598(2) 0.4938(5) 0.9236(3)
H22B H 0.4330 0.4904 0.8718
C26B C 1.16477(17) -0.0353(4) 1.0641(3)
C27B C 1.11837(18) 0.0710(4) 1.0789(3)
H23B H 1.1322 0.1516 1.0499
H24B H 1.1152 0.0871 1.1462
C28B C 1.05664(17) 0.0368(4) 1.0383(3)
C29B C 1.01368(19) -0.0200(4) 1.0952(3)
H25B H 1.0225 -0.0336 1.1592
C30B C 1.04259(19) 0.0567(4) 0.9428(3)
H26B H 1.0712 0.0949 0.9042
O14 O 0.7772(2) 0.6800(5) 0.9125(4)
H27 H 0.7792 0.7061 0.8556
H28 H 0.7803 0.7352 0.9576
O15 O 0.7550(2) 0.8126(6) 0.0896(4)
H29 H 0.7579 0.8946 0.1003
H30 H 0.7532 0.7844 0.0330
loop_
_geom_bond_atom_site_label_1
_geom_bond_atom_site_label_2
_geom_bond_site_symmetry_1
_geom_bond_site_symmetry_2
Eu1 O1 1_555 1_555
Eu2 O1 1_555 1_555
O1 C1 1_555 1_555
O2 Eu2 1_555 1_555
H1 O2 1_555 1_555
H2 O2 1_555 1_555
O3 Eu2 1_555 1_555
O4 C10 1_555 1_555
O5 C10 1_555 1_555
O6 Eu1 1_555 1_555
O7 Eu1 1_555 1_555
O8 C20 1_555 1_555
O9 C20 1_555 1_555
O10 Eu2 1_555 1_555
O11 Eu1 1_555 1_555
O12 Eu1 1_555 1_555
O13 Eu1 1_555 1_555
C1 O3 1_555 1_555
C2 C1 1_555 1_555
H3 C2 1_555 1_555
H4 C2 1_555 1_555
C3 C2 1_555 1_555
C4 C3 1_555 1_555
H5 C4 1_555 1_555
C5 C4 1_555 1_555
H6 C5 1_555 1_555
C6 C5 1_555 1_555
C7 C6 1_555 1_555
H7 C7 1_555 1_555
C8 C3 1_555 1_555
H8 C8 1_555 1_555
C9 C6 1_555 1_555
H9 C9 1_555 1_555
H10 C9 1_555 1_555
C10 C9 1_555 1_555
C11 O6 1_555 1_555
C12 C11 1_555 1_555
H11 C12 1_555 1_555
H12 C12 1_555 1_555
C13 C12 1_555 1_555
C14 C13 1_555 1_555
H13 C14 1_555 1_555
C15 C14 1_555 1_555
H14 C15 1_555 1_555
C16 C15 1_555 1_555
C17 C16 1_555 1_555
H15 C17 1_555 1_555
C18 C13 1_555 1_555
H16 C18 1_555 1_555
C19 C16 1_555 1_555
H17 C19 1_555 1_555
H18 C19 1_555 1_555
C20 C19 1_555 1_555
C21 O10 1_555 1_555
C22 C21 1_555 1_555
H19 C22 1_555 1_555
H20 C22 1_555 1_555
C23 C22 1_555 1_555
C24 C23 1_555 1_555
H21 C24 1_555 1_555
C25 C23 1_555 1_555
H22 C25 1_555 1_555
C26 O12 1_555 1_555
C27 C26 1_555 1_555
H23 C27 1_555 1_555
H24 C27 1_555 1_555
C28 C27 1_555 1_555
C29 C28 1_555 1_555
H25 C29 1_555 1_555
C30 C28 1_555 1_555
H26 C30 1_555 1_555
O14 H27 1_555 1_555
H28 O14 1_555 1_555
O15 H29 1_555 1_555
H30 O15 1_555 1_555
Eu1B O4 1_555 1_555
Eu1B_2 O8 1_555 1_555
Eu1B_3 O11B 1_555 1_555
Eu1B_4 O12B 1_555 1_555
Eu2B O1B 1_555 1_555
Eu2A O4 1_555 1_555
Eu2A_2 O8 1_555 1_555
Eu2C O12 1_555 1_555
Eu2B_2 O10B 1_555 1_555
Eu2A_3 O12B 1_555 1_555
Eu2B_3 O6B 1_555 1_555
O1B Eu1B 1_555 1_555
O2B Eu2B 1_555 1_555
H1B O2B 1_555 1_555
H2B O2B 1_555 1_555
O3B Eu2B 1_555 1_555
O4B Eu1 1_555 1_555
O4A Eu2 1_555 1_555
O4C Eu2B 1_555 1_555
O5B Eu1 1_555 1_555
O6B Eu1B_2 1_555 1_555
O6B_2 Eu1B 1_555 1_555
O7B Eu1B_2 1_555 1_555
O7B_2 Eu1B 1_555 1_555
O8B Eu1 1_555 1_555
O8A Eu2 1_555 1_555
O8_2 Eu1B 1_555 1_555
O8C Eu2B 1_555 1_555
O9B Eu2C 1_555 1_555
O9A Eu2 1_555 1_555
O9C Eu2B 1_555 1_555
O10B C21B 1_555 1_555
O10B_2 Eu2B 1_555 1_555
O11B C21B 1_555 1_555
O11B_2 Eu1B 1_555 1_555
O12B C26B 1_555 1_555
O12C Eu2 1_555 1_555
O12B_2 Eu1B 1_555 1_555
O12A Eu2B 1_555 1_555
O13B Eu1B_4 1_555 1_555
O13B_2 Eu1B 1_555 1_555
C1B O1B 1_555 1_555
C2B C1B 1_555 1_555
H3B C2B 1_555 1_555
H4B C2B 1_555 1_555
C3B C2B 1_555 1_555
C4B C3B 1_555 1_555
H5B C4B 1_555 1_555
C5B C4B 1_555 1_555
H6B C5B 1_555 1_555
C6B C5B 1_555 1_555
C7B C6B 1_555 1_555
H7B C7B 1_555 1_555
C8B C3B 1_555 1_555
H8B C8B 1_555 1_555
C9B C6B 1_555 1_555
H9B C9B 1_555 1_555
H10B C9B 1_555 1_555
C10B O4B 1_555 1_555
C11B O6B 1_555 1_555
C12B C11B 1_555 1_555
H11B C12B 1_555 1_555
H12B C12B 1_555 1_555
C13B C12B 1_555 1_555
C14B C13B 1_555 1_555
H13B C14B 1_555 1_555
C15B C14B 1_555 1_555
H14B C15B 1_555 1_555
C16B C15B 1_555 1_555
C17B C16B 1_555 1_555
H15B C17B 1_555 1_555
C18B C13B 1_555 1_555
H16B C18B 1_555 1_555
C19B C16B 1_555 1_555
H17B C19B 1_555 1_555
H18B C19B 1_555 1_555
C20B O8B 1_555 1_555
C21B C22B 1_555 1_555
C22B H19B 1_555 1_555
H20B C22B 1_555 1_555
C23B C22B 1_555 1_555
C24B C25 1_555 1_555
H21B C24B 1_555 1_555
C25B C24 1_555 1_555
H22B C25B 1_555 1_555
C26B O13B 1_555 1_555
C27B C26B 1_555 1_555
H23B C27B 1_555 1_555
H24B C27B 1_555 1_555
C28B C27B 1_555 1_555
C29B C30 1_555 1_555
H25B C29B 1_555 1_555
C30B C29 1_555 1_555
H26B C30B 1_555 1_555
Eu2 O6 1_555 1_555
O5 Eu1B 1_555 1_555
O7 C11 1_555 1_555
O9 Eu2A_2 1_555 1_555
O11 C21 1_555 1_555
O13 C26 1_555 1_555
C7 C8 1_555 1_555
C17 C18 1_555 1_555
Eu2B O6B_2 1_555 1_555
Eu2A O8_2 1_555 1_555
Eu2A O12B_2 1_555 1_555
Eu2C O4B 1_555 1_555
Eu2C O8B 1_555 1_555
O3B C1B 1_555 1_555
O5B C10B 1_555 1_555
O7B C11B 1_555 1_555
O9B C20B 1_555 1_555
C7B C8B 1_555 1_555
C9B C10B 1_555 1_555
C17B C18B 1_555 1_555
C19B C20B 1_555 1_555
C23B C24B 1_555 1_555
C23B C25B 1_555 1_555
C28B C29B 1_555 1_555
C28B C30B 1_555 1_555

#END
