
#######################################################################
#
#                 Cambridge Crystallographic Data Centre
#                                CCDC 
#
#######################################################################
#
# If this CIF has been generated from an entry in the Cambridge 
# Structural Database, then it will include bibliographic, chemical, 
# crystal, experimental, refinement or atomic coordinate data resulting 
# from the CCDC's data processing and validation procedures.
#
#######################################################################

data_DAKJIK
_symmetry_cell_setting           monoclinic
_symmetry_space_group_name_H-M   'C 2/c'
_symmetry_Int_Tables_number      15
_space_group_name_Hall           '-C 2yn'
loop_
_symmetry_equiv_pos_site_id
_symmetry_equiv_pos_as_xyz
1 x,y,z
2 -x,y,1/2-z
3 1/2+x,1/2+y,z
4 1/2-x,1/2+y,1/2-z
5 -x,-y,-z
6 x,-y,1/2+z
7 1/2-x,1/2-y,-z
8 1/2+x,1/2-y,1/2+z
_cell_length_a                   16.662(6)
_cell_length_b                   11.437(4)
_cell_length_c                   20.865(8)
_cell_angle_alpha                90
_cell_angle_beta                 111.778(6)
_cell_angle_gamma                90
_cell_volume                     3692.32
loop_
_atom_site_label
_atom_site_type_symbol
_atom_site_fract_x
_atom_site_fract_y
_atom_site_fract_z
Zn1 Zn 1.0000 0.94272(8) 0.7500
Zn2 Zn 1.0000 1.0000 1.0000
O1 O 0.8753(2) 1.0126(3) 1.0045(2)
O2 O 0.7974(3) 1.1113(4) 0.8955(2)
O3 O 0.7214(3) 1.0306(4) 0.9643(3)
O4 O 0.9533(2) 0.9902(3) 0.89317(18)
O5 O 0.8961(3) 0.9275(4) 0.7849(2)
O6 O 1.0953(3) 0.9454(4) 0.8487(2)
H1 H 1.0834 0.9654 0.8834
H2 H 1.1458 0.9162 0.8650
N1 N 0.9988(3) 1.1887(4) 0.9959(2)
N2 N 1.0000 0.7491(6) 0.7500
N3 N 1.0000 0.1285(6) 0.7500
S1 S 0.79458(9) 1.02220(13) 0.94373(8)
C1 C 0.8976(4) 0.9344(5) 0.8456(3)
C2 C 0.8327(4) 0.8553(5) 0.8608(3)
C3 C 0.7860(3) 0.8837(5) 0.9025(3)
C4 C 0.7347(4) 0.8016(6) 0.9168(4)
H5 H 0.7035 0.8223 0.9439
C5 C 0.7288(5) 0.6890(7) 0.8917(4)
H6 H 0.6953 0.6334 0.9028
C6 C 0.7736(5) 0.6604(6) 0.8499(4)
H7 H 0.7698 0.5851 0.8321
C7 C 0.8238(5) 0.7428(6) 0.8344(4)
H8 H 0.8526 0.7225 0.8055
C8 C 0.9651(4) 1.2494(5) 1.0347(3)
H9 H 0.9412 1.2078 1.0615
C9 C 0.9638(4) 1.3696(5) 1.0373(3)
H10 H 0.9385 1.4067 1.0648
C10 C 0.9998(4) 1.4353(5) 0.9992(3)
C11 C 1.0343(5) 1.3720(5) 0.9588(4)
H11 H 1.0589 1.4112 0.9315
C12 C 1.0325(5) 1.2512(5) 0.9587(4)
H12 H 1.0562 1.2117 0.9309
C13 C 0.9292(4) 0.6884(5) 0.7149(3)
H13 H 0.8793 0.7293 0.6895
C14 C 0.9259(4) 0.5678(5) 0.7142(3)
H14 H 0.8745 0.5292 0.6898
C15 C 1.0000 0.5049(7) 0.7500
C16 C 1.0000 0.3741(7) 0.7500
C17 C 1.0618(5) 0.3124(6) 0.7353(4)
H15 H 1.1050 0.3512 0.7256
C18 C 1.0587(5) 0.1902(6) 0.7351(4)
H16 H 1.1000 0.1495 0.7240
Zn1_2 Zn 1.0000 -0.05728(8) 0.7500
Zn2_2 Zn 1.0000 2.0000 1.0000
Zn2A Zn 1.0000 1.0000 0.5000
O1A O 1.1247(2) 1.0126(3) 0.4955(2)
O1D O 1.1247(2) 0.9874(3) 0.9955(2)
O2A O 1.2026(3) 1.1113(4) 0.6045(2)
O3A O 1.2786(3) 1.0306(4) 0.5357(3)
O4A O 1.0467(2) 0.9902(3) 0.60683(18)
O4D O 1.0467(2) 1.0098(3) 1.10683(18)
O5A O 1.1039(3) 0.9275(4) 0.7151(2)
O6A O 0.9047(3) 0.9454(4) 0.6513(2)
H1A H 0.9166 0.9654 0.6166
H2A H 0.8542 0.9162 0.6350
N1D N 1.0012(3) 1.8113(4) 1.0041(2)
N1D_2 N 1.0012(3) 0.8113(4) 1.0041(2)
N3_2 N 1.0000 1.1285(6) 0.7500
S1A S 1.20542(9) 1.02220(13) 0.55627(8)
C1A C 1.1024(4) 0.9344(5) 0.6544(3)
C2A C 1.1673(4) 0.8553(5) 0.6392(3)
C3A C 1.2140(3) 0.8837(5) 0.5975(3)
C4A C 1.2653(4) 0.8016(6) 0.5832(4)
H5A H 1.2965 0.8223 0.5561
C5A C 1.2712(5) 0.6890(7) 0.6083(4)
H6A H 1.3047 0.6334 0.5972
C6A C 1.2264(5) 0.6604(6) 0.6501(4)
H7A H 1.2302 0.5851 0.6679
C7A C 1.1762(5) 0.7428(6) 0.6656(4)
H8A H 1.1474 0.7225 0.6945
C8D C 1.0349(4) 1.7506(5) 0.9653(3)
H9D H 1.0588 1.7922 0.9385
C9D C 1.0362(4) 1.6304(5) 0.9627(3)
H10D H 1.0615 1.5933 0.9352
C10D C 1.0002(4) 1.5647(5) 1.0008(3)
C11D C 0.9657(5) 1.6280(5) 1.0412(4)
H11D H 0.9411 1.5888 1.0685
C12D C 0.9675(5) 1.7488(5) 1.0413(4)
H12D H 0.9438 1.7883 1.0691
C13A C 1.0708(4) 0.6884(5) 0.7851(3)
H13A H 1.1207 0.7293 0.8105
C14A C 1.0741(4) 0.5678(5) 0.7858(3)
H14A H 1.1255 0.5292 0.8102
C17A C 0.9382(5) 0.3124(6) 0.7647(4)
H15A H 0.8950 0.3512 0.7744
C18A C 0.9413(5) 0.1902(6) 0.7649(4)
H16A H 0.9000 0.1495 0.7760
O7 O 0.7439(4) 0.8557(6) 0.5954(3)
H3 H 0.7376 0.8889 0.5573
H4 H 0.7125 0.8112 0.6089
loop_
_geom_bond_atom_site_label_1
_geom_bond_atom_site_label_2
_geom_bond_site_symmetry_1
_geom_bond_site_symmetry_2
Zn1 O5 1_555 1_555
Zn2 O1 1_555 1_555
O1 S1 1_555 1_555
O2 S1 1_555 1_555
O3 S1 1_555 1_555
O4 Zn2 1_555 1_555
O5 C1 1_555 1_555
O6 Zn1 1_555 1_555
H1 O6 1_555 1_555
H2 O6 1_555 1_555
O7 H3 1_555 1_555
H4 O7 1_555 1_555
N1 Zn2 1_555 1_555
N2 Zn1 1_555 1_555
N3 C18 1_555 1_555
S1 C3 1_555 1_555
C1 O4 1_555 1_555
C2 C1 1_555 1_555
C3 C2 1_555 1_555
C4 C3 1_555 1_555
H5 C4 1_555 1_555
C5 C4 1_555 1_555
H6 C5 1_555 1_555
C6 C5 1_555 1_555
H7 C6 1_555 1_555
C7 C2 1_555 1_555
H8 C7 1_555 1_555
C8 N1 1_555 1_555
H9 C8 1_555 1_555
C9 C8 1_555 1_555
H10 C9 1_555 1_555
C10 C9 1_555 1_555
C11 C10 1_555 1_555
H11 C11 1_555 1_555
C12 N1 1_555 1_555
H12 C12 1_555 1_555
C13 N2 1_555 1_555
H13 C13 1_555 1_555
C14 C13 1_555 1_555
H14 C14 1_555 1_555
C15 C14 1_555 1_555
C16 C15 1_555 1_555
C17 C16 1_555 1_555
H15 C17 1_555 1_555
C18 C17 1_555 1_555
H16 C18 1_555 1_555
Zn1_2 N3 1_555 1_555
Zn2_2 N1D 1_555 1_555
Zn2A O1A 1_555 1_555
O1A S1A 1_555 1_555
O1D Zn2 1_555 1_555
O2A S1A 1_555 1_555
O3A S1A 1_555 1_555
O4A Zn2A 1_555 1_555
O4D Zn2 1_555 1_555
O5A Zn1 1_555 1_555
O6A Zn1 1_555 1_555
H1A O6A 1_555 1_555
H2A O6A 1_555 1_555
N1D C8D 1_555 1_555
N1D_2 Zn2 1_555 1_555
N3_2 Zn1 1_555 1_555
S1A C3A 1_555 1_555
C1A O4A 1_555 1_555
C2A C1A 1_555 1_555
C3A C2A 1_555 1_555
C4A C3A 1_555 1_555
H5A C4A 1_555 1_555
C5A C4A 1_555 1_555
H6A C5A 1_555 1_555
C6A C5A 1_555 1_555
H7A C6A 1_555 1_555
C7A C2A 1_555 1_555
H8A C7A 1_555 1_555
C8D H9D 1_555 1_555
C9D C8D 1_555 1_555
H10D C9D 1_555 1_555
C10D C10 1_555 1_555
C11D C10D 1_555 1_555
H11D C11D 1_555 1_555
C12D N1D 1_555 1_555
H12D C12D 1_555 1_555
C13A N2 1_555 1_555
H13A C13A 1_555 1_555
C14A C15 1_555 1_555
H14A C14A 1_555 1_555
C17A C16 1_555 1_555
H15A C17A 1_555 1_555
C18A N3 1_555 1_555
H16A C18A 1_555 1_555
C6 C7 1_555 1_555
C11 C12 1_555 1_555
O5A C1A 1_555 1_555
C6A C7A 1_555 1_555
C9D C10D 1_555 1_555
C11D C12D 1_555 1_555
C13A C14A 1_555 1_555
C17A C18A 1_555 1_555

#END
