
#######################################################################
#
#                 Cambridge Crystallographic Data Centre
#                                CCDC 
#
#######################################################################
#
# If this CIF has been generated from an entry in the Cambridge 
# Structural Database, then it will include bibliographic, chemical, 
# crystal, experimental, refinement or atomic coordinate data resulting 
# from the CCDC's data processing and validation procedures.
#
#######################################################################

data_DAKMIN
_symmetry_cell_setting           triclinic
_symmetry_space_group_name_H-M   'P -1'
_symmetry_Int_Tables_number      2
_space_group_name_Hall           '-P 1'
loop_
_symmetry_equiv_pos_site_id
_symmetry_equiv_pos_as_xyz
1 x,y,z
2 -x,-y,-z
_cell_length_a                   9.1760(7)
_cell_length_b                   10.8857(8)
_cell_length_c                   11.8314(9)
_cell_angle_alpha                80.7270(10)
_cell_angle_beta                 74.3586(9)
_cell_angle_gamma                66.6321(8)
_cell_volume                     1042.73
loop_
_atom_site_label
_atom_site_type_symbol
_atom_site_fract_x
_atom_site_fract_y
_atom_site_fract_z
Mn1 Mn 0.38274(4) 0.68588(3) 0.58328(3)
O1 O 0.5262(2) 0.53486(17) 0.68451(15)
O2 O 0.6514(2) 0.36048(17) 0.57281(13)
O3 O 0.92045(19) -0.02224(14) 0.83173(15)
O4 O 1.22371(19) -0.22697(15) 0.76066(13)
O5 O 1.1481(2) -0.34233(17) 0.66906(14)
N1 N 0.3096(2) 0.90508(17) 0.51300(15)
N2 N 0.6110(2) 0.71134(18) 0.45953(16)
C1 C 0.6112(3) 0.4139(2) 0.66805(19)
C2 C 0.6743(2) 0.32730(19) 0.77004(17)
C3 C 0.6541(3) 0.3826(2) 0.87367(18)
H1 H 0.5976 0.4742 0.8816
C4 C 0.7179(3) 0.3018(2) 0.96522(19)
H2 H 0.7030 0.3393 1.0348
C5 C 0.8037(3) 0.1659(2) 0.95401(19)
H3 H 0.8487 0.1120 1.0148
C6 C 0.8215(2) 0.1115(2) 0.85177(19)
C7 C 0.7579(2) 0.1901(2) 0.76014(18)
H4 H 0.7710 0.1515 0.6917
C8 C 0.8665(3) -0.1244(2) 0.88341(18)
C9 C 0.7206(3) -0.1045(2) 0.9642(2)
H5 H 0.6520 -0.0185 0.9865
C10 C 0.6767(3) -0.2128(3) 1.0121(2)
H6 H 0.5794 -0.1999 1.0679
C11 C 0.7762(3) -0.3395(3) 0.9774(2)
H7 H 0.7471 -0.4125 1.0100
C12 C 0.9197(3) -0.3578(2) 0.8940(2)
H8 H 0.9851 -0.4435 0.8692
C13 C 0.9687(3) -0.2520(2) 0.84627(18)
C14 C 1.1242(3) -0.2750(2) 0.75350(18)
C15 C 0.1635(3) 1.0000(2) 0.5416(2)
H9 H 0.0880 0.9825 0.6055
C16 C 0.1169(4) 1.1256(2) 0.4803(3)
H10 H 0.0120 1.1889 0.5021
C17 C 0.2274(4) 1.1532(3) 0.3888(3)
H11 H 0.1981 1.2357 0.3464
C18 C 0.3863(4) 1.0573(2) 0.3577(2)
C19 C 0.4214(3) 0.9327(2) 0.42251(18)
C20 C 0.5811(3) 0.8304(2) 0.39426(18)
C21 C 0.7014(4) 0.8552(3) 0.3021(2)
C22 C 0.6620(5) 0.9843(3) 0.2406(2)
H12 H 0.7421 1.0022 0.1810
C23 C 0.5134(5) 1.0800(3) 0.2662(2)
H13 H 0.4922 1.1626 0.2240
C24 C 0.8552(4) 0.7509(3) 0.2772(2)
H14 H 0.9376 0.7632 0.2162
C25 C 0.8834(4) 0.6326(3) 0.3417(3)
H15 H 0.9845 0.5630 0.3254
C26 C 0.7578(3) 0.6170(3) 0.4334(2)
H16 H 0.7786 0.5360 0.4783
Mn1A Mn 0.61726(4) 0.31412(3) 0.41672(3)
Mn1_2 Mn 1.38274(4) -0.31412(3) 0.58328(3)
O2A O 0.3486(2) 0.63952(17) 0.42719(13)
O4_2 O 0.22371(19) 0.77303(15) 0.76066(13)
O5_2 O 0.1481(2) 0.65767(17) 0.66906(14)
loop_
_geom_bond_atom_site_label_1
_geom_bond_atom_site_label_2
_geom_bond_site_symmetry_1
_geom_bond_site_symmetry_2
Mn1 O1 1_555 1_555
O1 C1 1_555 1_555
O2 C1 1_555 1_555
O3 C6 1_555 1_555
O4 C14 1_555 1_555
O5 C14 1_555 1_555
N1 Mn1 1_555 1_555
N2 Mn1 1_555 1_555
C1 C2 1_555 1_555
C2 C3 1_555 1_555
C3 H1 1_555 1_555
C4 C3 1_555 1_555
H2 C4 1_555 1_555
C5 C4 1_555 1_555
H3 C5 1_555 1_555
C6 C5 1_555 1_555
C7 C2 1_555 1_555
H4 C7 1_555 1_555
C8 O3 1_555 1_555
C9 C8 1_555 1_555
H5 C9 1_555 1_555
C10 C9 1_555 1_555
H6 C10 1_555 1_555
C11 C10 1_555 1_555
H7 C11 1_555 1_555
C12 C11 1_555 1_555
H8 C12 1_555 1_555
C13 C8 1_555 1_555
C14 C13 1_555 1_555
C15 N1 1_555 1_555
H9 C15 1_555 1_555
C16 C15 1_555 1_555
H10 C16 1_555 1_555
C17 C16 1_555 1_555
H11 C17 1_555 1_555
C18 C17 1_555 1_555
C19 N1 1_555 1_555
C20 N2 1_555 1_555
C21 C20 1_555 1_555
C22 C21 1_555 1_555
H12 C22 1_555 1_555
C23 C18 1_555 1_555
H13 C23 1_555 1_555
C24 C21 1_555 1_555
H14 C24 1_555 1_555
C25 C24 1_555 1_555
H15 C25 1_555 1_555
C26 N2 1_555 1_555
H16 C26 1_555 1_555
Mn1A O2 1_555 1_555
Mn1_2 O4 1_555 1_555
O2A Mn1 1_555 1_555
O4_2 Mn1 1_555 1_555
O5_2 Mn1 1_555 1_555
O5 Mn1_2 1_555 1_555
C6 C7 1_555 1_555
C12 C13 1_555 1_555
C18 C19 1_555 1_555
C19 C20 1_555 1_555
C22 C23 1_555 1_555
C25 C26 1_555 1_555

#END
