
#######################################################################
#
#                 Cambridge Crystallographic Data Centre
#                                CCDC 
#
#######################################################################
#
# If this CIF has been generated from an entry in the Cambridge 
# Structural Database, then it will include bibliographic, chemical, 
# crystal, experimental, refinement or atomic coordinate data resulting 
# from the CCDC's data processing and validation procedures.
#
#######################################################################

data_DAKWOD
_symmetry_cell_setting           triclinic
_symmetry_space_group_name_H-M   'P -1'
_symmetry_Int_Tables_number      2
_space_group_name_Hall           '-P 1'
loop_
_symmetry_equiv_pos_site_id
_symmetry_equiv_pos_as_xyz
1 x,y,z
2 -x,-y,-z
_cell_length_a                   10.1515(9)
_cell_length_b                   11.1543(17)
_cell_length_c                   14.5731(8)
_cell_angle_alpha                101.892(11)
_cell_angle_beta                 106.289(6)
_cell_angle_gamma                104.671(11)
_cell_volume                     1462.45
loop_
_atom_site_label
_atom_site_type_symbol
_atom_site_fract_x
_atom_site_fract_y
_atom_site_fract_z
Cu1 Cu -0.00991(4) 0.28578(3) 0.14170(3)
N1 N -0.0072(3) 0.4129(2) 0.05615(18)
C1 C 0.0197(3) 0.3876(3) -0.0287(2)
H1 H 0.0342 0.3085 -0.0516
C2 C -0.0270(4) 0.5266(3) 0.0841(2)
H2 H -0.0465 0.5488 0.1435
N2 N -0.0032(2) 0.1186(2) 0.05218(17)
C3 C 0.1194(3) 0.0919(3) 0.0630(2)
H3 H 0.2075 0.1553 0.1073
C4 C -0.1226(3) 0.0245(3) -0.0122(2)
H4 H -0.2126 0.0384 -0.0232
N3 N -0.2260(3) 0.2245(2) 0.12761(19)
C5 C -0.2731(4) 0.1428(4) 0.1745(3)
H5 H -0.2059 0.1202 0.2208
C6 C -0.4194(5) 0.0904(5) 0.1564(5)
H6 H -0.4480 0.0312 0.1904
N4 N -0.5203(4) 0.1172(4) 0.0957(3)
C7 C -0.4737(4) 0.1972(4) 0.0497(3)
H7 H -0.5422 0.2197 0.0042
C8 C -0.3290(4) 0.2507(4) 0.0640(3)
H8 H -0.3022 0.3074 0.0278
P1 P 0.17097(8) 0.36148(7) 0.28634(5)
C9 C 0.1795(3) 0.5154(3) 0.3642(2)
C10 C 0.3483(3) 0.3957(3) 0.2727(2)
C11 C 0.1750(3) 0.2628(3) 0.3713(2)
C12 C 0.0505(4) 0.5272(4) 0.3720(3)
H9 H -0.0370 0.4579 0.3364
C13 C 0.3695(4) 0.4573(3) 0.2018(3)
H10 H 0.2917 0.4754 0.1612
C14 C 0.2540(3) 0.3155(3) 0.4734(2)
H11 H 0.3097 0.4042 0.4996
C15 C 0.0497(5) 0.6401(5) 0.4316(4)
H12 H -0.0385 0.6469 0.4367
C16 C 0.5021(4) 0.4921(3) 0.1900(3)
H13 H 0.5149 0.5355 0.1426
C17 C 0.2513(4) 0.2391(3) 0.5366(2)
H14 H 0.3047 0.2757 0.6056
C18 C 0.1750(5) 0.7418(4) 0.4832(3)
H15 H 0.1733 0.8181 0.5241
C19 C 0.6160(4) 0.4636(3) 0.2475(3)
H16 H 0.7071 0.4882 0.2399
C20 C 0.1707(4) 0.1093(3) 0.4986(3)
H17 H 0.1690 0.0571 0.5417
C21 C 0.3033(5) 0.7325(3) 0.4754(3)
H18 H 0.3898 0.8031 0.5104
C22 C 0.5965(4) 0.3997(3) 0.3156(3)
H19 H 0.6739 0.3789 0.3540
C23 C 0.0922(4) 0.0555(3) 0.3977(3)
H20 H 0.0374 -0.0334 0.3719
C24 C 0.3066(4) 0.6198(3) 0.4162(2)
H21 H 0.3953 0.6140 0.4113
C25 C 0.4625(3) 0.3651(3) 0.3286(2)
H22 H 0.4499 0.3208 0.3756
C26 C 0.0940(3) 0.1318(3) 0.3341(2)
H23 H 0.0400 0.0947 0.2652
Cu1A Cu 0.00991(4) 0.71422(3) -0.14170(3)
Cu1A_2 Cu 0.00991(4) -0.28578(3) -0.14170(3)
N1A N 0.0072(3) 0.5871(2) -0.05615(18)
C1A C -0.0197(3) 0.6124(3) 0.0287(2)
H1A H -0.0342 0.6915 0.0516
C2A C 0.0270(4) 0.4734(3) -0.0841(2)
H2A H 0.0465 0.4512 -0.1435
N2A N 0.0032(2) -0.1186(2) -0.05218(17)
N2A_2 N 0.0032(2) 0.8814(2) -0.05218(17)
C3A C -0.1194(3) -0.0919(3) -0.0630(2)
H3A H -0.2075 -0.1553 -0.1073
C4A C 0.1226(3) -0.0245(3) 0.0122(2)
H4A H 0.2126 -0.0384 0.0232
N3A N 0.2260(3) 0.7755(2) -0.12761(19)
C5A C 0.2731(4) 0.8572(4) -0.1745(3)
H5A H 0.2059 0.8798 -0.2208
C6A C 0.4194(5) 0.9096(5) -0.1564(5)
H6A H 0.4480 0.9688 -0.1904
N4A N 0.5203(4) 0.8828(4) -0.0957(3)
C7A C 0.4737(4) 0.8028(4) -0.0497(3)
H7A H 0.5422 0.7803 -0.0042
C8A C 0.3290(4) 0.7493(4) -0.0640(3)
H8A H 0.3022 0.6926 -0.0278
P1A P -0.17097(8) 0.63852(7) -0.28634(5)
C9A C -0.1795(3) 0.4846(3) -0.3642(2)
C10A C -0.3483(3) 0.6043(3) -0.2727(2)
C11A C -0.1750(3) 0.7372(3) -0.3713(2)
C12A C -0.0505(4) 0.4728(4) -0.3720(3)
H9A H 0.0370 0.5421 -0.3364
C13A C -0.3695(4) 0.5427(3) -0.2018(3)
H10A H -0.2917 0.5246 -0.1612
C14A C -0.2540(3) 0.6845(3) -0.4734(2)
H11A H -0.3097 0.5958 -0.4996
C15A C -0.0497(5) 0.3599(5) -0.4316(4)
H12A H 0.0385 0.3531 -0.4367
C16A C -0.5021(4) 0.5079(3) -0.1900(3)
H13A H -0.5149 0.4645 -0.1426
C17A C -0.2513(4) 0.7609(3) -0.5366(2)
H14A H -0.3047 0.7243 -0.6056
C18A C -0.1750(5) 0.2582(4) -0.4832(3)
H15A H -0.1733 0.1819 -0.5241
C19A C -0.6160(4) 0.5364(3) -0.2475(3)
H16A H -0.7071 0.5118 -0.2399
C20A C -0.1707(4) 0.8907(3) -0.4986(3)
H17A H -0.1690 0.9429 -0.5417
C21A C -0.3033(5) 0.2675(3) -0.4754(3)
H18A H -0.3898 0.1969 -0.5104
C22A C -0.5965(4) 0.6003(3) -0.3156(3)
H19A H -0.6739 0.6211 -0.3540
C23A C -0.0922(4) 0.9445(3) -0.3977(3)
H20A H -0.0374 1.0334 -0.3719
C24A C -0.3066(4) 0.3802(3) -0.4162(2)
H21A H -0.3953 0.3860 -0.4113
C25A C -0.4625(3) 0.6349(3) -0.3286(2)
H22A H -0.4499 0.6792 -0.3756
C26A C -0.0940(3) 0.8682(3) -0.3341(2)
H23A H -0.0400 0.9053 -0.2652
B1 B 0.1996(5) 0.2141(4) 0.8263(3)
F1 F 0.2539(4) 0.1403(4) 0.7726(3)
F2 F 0.1234(3) 0.2709(3) 0.7667(2)
F3 F 0.1059(3) 0.1372(2) 0.8583(2)
F4 F 0.3028(3) 0.3104(3) 0.9060(2)
O1 O 0.6946(5) 0.1765(5) 0.8249(3)
C27 C 0.5752(9) 0.1936(7) 0.7585(8)
H24 H 0.6069 0.2732 0.7405
H25 H 0.5028 0.2007 0.7900
C28 C 0.5110(5) 0.0784(8) 0.6674(4)
H26 H 0.4263 0.0152 0.6700
H27 H 0.4816 0.1043 0.6065
C29 C 0.6289(5) 0.0249(5) 0.6705(4)
H28 H 0.6032 -0.0617 0.6793
H29 H 0.6511 0.0191 0.6088
C30 C 0.7513(6) 0.1160(7) 0.7561(4)
H30 H 0.8130 0.0704 0.7879
H31 H 0.8101 0.1815 0.7349
loop_
_geom_bond_atom_site_label_1
_geom_bond_atom_site_label_2
_geom_bond_site_symmetry_1
_geom_bond_site_symmetry_2
Cu1 N1 1_555 1_555
N1 C1 1_555 1_555
C1 H1 1_555 1_555
C2 N1 1_555 1_555
H2 C2 1_555 1_555
N2 Cu1 1_555 1_555
C3 N2 1_555 1_555
H3 C3 1_555 1_555
C4 N2 1_555 1_555
H4 C4 1_555 1_555
N3 Cu1 1_555 1_555
C5 N3 1_555 1_555
H5 C5 1_555 1_555
C6 C5 1_555 1_555
H6 C6 1_555 1_555
N4 C6 1_555 1_555
C7 N4 1_555 1_555
H7 C7 1_555 1_555
C8 N3 1_555 1_555
H8 C8 1_555 1_555
P1 Cu1 1_555 1_555
C9 P1 1_555 1_555
C10 P1 1_555 1_555
C11 P1 1_555 1_555
C12 C9 1_555 1_555
H9 C12 1_555 1_555
C13 C10 1_555 1_555
H10 C13 1_555 1_555
C14 C11 1_555 1_555
H11 C14 1_555 1_555
C15 C12 1_555 1_555
H12 C15 1_555 1_555
C16 C13 1_555 1_555
H13 C16 1_555 1_555
C17 C14 1_555 1_555
H14 C17 1_555 1_555
C18 C15 1_555 1_555
H15 C18 1_555 1_555
C19 C16 1_555 1_555
H16 C19 1_555 1_555
C20 C17 1_555 1_555
H17 C20 1_555 1_555
C21 C18 1_555 1_555
H18 C21 1_555 1_555
C22 C19 1_555 1_555
H19 C22 1_555 1_555
C23 C20 1_555 1_555
H20 C23 1_555 1_555
C24 C9 1_555 1_555
H21 C24 1_555 1_555
C25 C10 1_555 1_555
H22 C25 1_555 1_555
C26 C11 1_555 1_555
H23 C26 1_555 1_555
B1 F1 1_555 1_555
F2 B1 1_555 1_555
F3 B1 1_555 1_555
F4 B1 1_555 1_555
O1 C27 1_555 1_555
C27 H24 1_555 1_555
H25 C27 1_555 1_555
C28 C27 1_555 1_555
H26 C28 1_555 1_555
H27 C28 1_555 1_555
C29 C28 1_555 1_555
H28 C29 1_555 1_555
H29 C29 1_555 1_555
C30 O1 1_555 1_555
H30 C30 1_555 1_555
H31 C30 1_555 1_555
Cu1A N1A 1_555 1_555
Cu1A_2 N2A 1_555 1_555
N1A C1A 1_555 1_555
C1A C2 1_555 1_555
H1A C1A 1_555 1_555
C2A C1 1_555 1_555
H2A C2A 1_555 1_555
N2A C3A 1_555 1_555
N2A_2 Cu1A 1_555 1_555
C3A C4 1_555 1_555
H3A C3A 1_555 1_555
C4A C3 1_555 1_555
H4A C4A 1_555 1_555
N3A Cu1A 1_555 1_555
C5A N3A 1_555 1_555
H5A C5A 1_555 1_555
C6A C5A 1_555 1_555
H6A C6A 1_555 1_555
N4A C6A 1_555 1_555
C7A N4A 1_555 1_555
H7A C7A 1_555 1_555
C8A N3A 1_555 1_555
H8A C8A 1_555 1_555
P1A Cu1A 1_555 1_555
C9A P1A 1_555 1_555
C10A P1A 1_555 1_555
C11A P1A 1_555 1_555
C12A C9A 1_555 1_555
H9A C12A 1_555 1_555
C13A C10A 1_555 1_555
H10A C13A 1_555 1_555
C14A C11A 1_555 1_555
H11A C14A 1_555 1_555
C15A C12A 1_555 1_555
H12A C15A 1_555 1_555
C16A C13A 1_555 1_555
H13A C16A 1_555 1_555
C17A C14A 1_555 1_555
H14A C17A 1_555 1_555
C18A C15A 1_555 1_555
H15A C18A 1_555 1_555
C19A C16A 1_555 1_555
H16A C19A 1_555 1_555
C20A C17A 1_555 1_555
H17A C20A 1_555 1_555
C21A C18A 1_555 1_555
H18A C21A 1_555 1_555
C22A C19A 1_555 1_555
H19A C22A 1_555 1_555
C23A C20A 1_555 1_555
H20A C23A 1_555 1_555
C24A C9A 1_555 1_555
H21A C24A 1_555 1_555
C25A C10A 1_555 1_555
H22A C25A 1_555 1_555
C26A C11A 1_555 1_555
H23A C26A 1_555 1_555
C7 C8 1_555 1_555
C21 C24 1_555 1_555
C22 C25 1_555 1_555
C23 C26 1_555 1_555
C29 C30 1_555 1_555
N1A C2A 1_555 1_555
N2A C4A 1_555 1_555
C7A C8A 1_555 1_555
C21A C24A 1_555 1_555
C22A C25A 1_555 1_555
C23A C26A 1_555 1_555

#END
