
#######################################################################
#
#                 Cambridge Crystallographic Data Centre
#                                CCDC 
#
#######################################################################
#
# If this CIF has been generated from an entry in the Cambridge 
# Structural Database, then it will include bibliographic, chemical, 
# crystal, experimental, refinement or atomic coordinate data resulting 
# from the CCDC's data processing and validation procedures.
#
#######################################################################

data_DAKYOF
_symmetry_cell_setting           monoclinic
_symmetry_space_group_name_H-M   'P 21/n'
_symmetry_Int_Tables_number      14
_space_group_name_Hall           '-P 2yn'
loop_
_symmetry_equiv_pos_site_id
_symmetry_equiv_pos_as_xyz
1 x,y,z
2 1/2-x,1/2+y,1/2-z
3 -x,-y,-z
4 1/2+x,1/2-y,1/2+z
_cell_length_a                   14.300(3)
_cell_length_b                   18.7302(14)
_cell_length_c                   19.925(3)
_cell_angle_alpha                90
_cell_angle_beta                 98.623(11)
_cell_angle_gamma                90
_cell_volume                     5276.42
loop_
_atom_site_label
_atom_site_type_symbol
_atom_site_fract_x
_atom_site_fract_y
_atom_site_fract_z
Cu1 Cu 0.15538(3) 0.06585(3) 0.26918(2)
N1 N 0.1652(2) 0.17690(18) 0.26910(17)
N2 N 0.2131(2) 0.51456(18) 0.21589(17)
C1 C 0.0858(3) 0.2134(2) 0.2741(2)
H1 H 0.0349 0.1886 0.2880
C2 C 0.0745(3) 0.2852(2) 0.2601(2)
H2 H 0.0167 0.3078 0.2636
C3 C 0.1488(3) 0.3238(2) 0.2409(2)
C4 C 0.2320(3) 0.2869(2) 0.2381(2)
H3 H 0.2853 0.3111 0.2271
C5 C 0.2369(3) 0.2147(2) 0.2514(2)
H4 H 0.2937 0.1907 0.2479
C6 C 0.1386(3) 0.4005(2) 0.2228(2)
C7 C 0.0532(3) 0.4296(3) 0.1950(3)
H5 H -0.0015 0.4012 0.1873
C8 C 0.0491(4) 0.5008(3) 0.1787(3)
H6 H -0.0090 0.5218 0.1606
C9 C 0.1299(3) 0.5412(2) 0.1888(3)
H7 H 0.1262 0.5896 0.1762
C10 C 0.2160(3) 0.4451(2) 0.2330(2)
H8 H 0.2742 0.4259 0.2531
P1 P 0.09092(8) 0.03607(6) 0.36249(5)
C11 C 0.1652(3) 0.0630(2) 0.4411(2)
C12 C 0.2134(4) 0.1274(3) 0.4414(3)
H9 H 0.2074 0.1553 0.4018
C13 C 0.2704(5) 0.1507(3) 0.4997(3)
H10 H 0.3005 0.1954 0.5000
C14 C 0.2831(4) 0.1093(3) 0.5570(3)
H11 H 0.3231 0.1247 0.5961
C15 C 0.2367(4) 0.0449(3) 0.5567(2)
H12 H 0.2455 0.0160 0.5958
C16 C 0.1774(3) 0.0223(3) 0.4996(2)
H13 H 0.1449 -0.0212 0.5005
C17 C -0.0224(3) 0.0790(2) 0.3659(2)
C18 C -0.0910(3) 0.0747(2) 0.3084(2)
H14 H -0.0771 0.0500 0.2700
C19 C -0.1782(3) 0.1058(3) 0.3064(3)
H15 H -0.2245 0.1007 0.2679
C20 C -0.1974(4) 0.1445(3) 0.3619(3)
H16 H -0.2567 0.1665 0.3609
C21 C -0.1296(4) 0.1510(3) 0.4185(3)
H17 H -0.1427 0.1781 0.4558
C22 C -0.0422(3) 0.1180(2) 0.4212(2)
H18 H 0.0032 0.1221 0.4603
C23 C 0.0679(3) -0.0582(2) 0.3768(2)
C24 C -0.0226(3) -0.0849(3) 0.3773(3)
H19 H -0.0743 -0.0534 0.3736
C25 C -0.0373(4) -0.1578(3) 0.3834(3)
H20 H -0.0991 -0.1753 0.3825
C26 C 0.0369(4) -0.2045(3) 0.3907(3)
H21 H 0.0264 -0.2537 0.3949
C27 C 0.1269(4) -0.1788(3) 0.3918(3)
H22 H 0.1784 -0.2105 0.3976
P2 P 0.09191(8) 0.04134(6) 0.15997(5)
C28 C 0.1429(4) -0.1063(3) 0.3844(2)
H23 H 0.2049 -0.0896 0.3846
C29 C -0.0234(3) 0.0824(2) 0.1332(2)
C30 C -0.1076(3) 0.0445(3) 0.1222(3)
H24 H -0.1065 -0.0056 0.1223
C31 C -0.1937(4) 0.0802(3) 0.1112(3)
H25 H -0.2505 0.0541 0.1039
C32 C -0.1959(4) 0.1536(3) 0.1110(3)
H26 H -0.2542 0.1777 0.1048
C33 C -0.1128(4) 0.1916(3) 0.1198(3)
H27 H -0.1143 0.2418 0.1184
C34 C -0.0274(3) 0.1564(2) 0.1307(2)
H28 H 0.0290 0.1829 0.1365
C35 C 0.0754(3) -0.0538(2) 0.1417(2)
C36 C 0.0355(3) -0.0954(3) 0.1887(2)
H29 H 0.0149 -0.0735 0.2263
C37 C 0.0264(3) -0.1683(3) 0.1800(3)
H30 H -0.0014 -0.1958 0.2112
C38 C 0.0577(4) -0.2009(3) 0.1258(3)
H31 H 0.0522 -0.2506 0.1204
C39 C 0.0971(4) -0.1608(3) 0.0793(3)
H32 H 0.1176 -0.1832 0.0419
C40 C 0.1067(4) -0.0874(3) 0.0875(2)
H33 H 0.1346 -0.0604 0.0560
C41 C 0.1614(3) 0.0745(2) 0.0970(2)
C42 C 0.2578(3) 0.0871(3) 0.1164(2)
H34 H 0.2858 0.0773 0.1612
C43 C 0.3127(4) 0.1136(3) 0.0708(3)
H35 H 0.3775 0.1224 0.0846
C44 C 0.2716(4) 0.1273(3) 0.0044(3)
H36 H 0.3087 0.1450 -0.0270
C45 C 0.1767(4) 0.1151(3) -0.0154(3)
H37 H 0.1489 0.1248 -0.0603
C46 C 0.1222(4) 0.0886(3) 0.0306(2)
H38 H 0.0575 0.0800 0.0166
Cu1A Cu 0.34462(3) 0.56585(3) 0.23082(2)
N2A N 0.2869(2) 0.01456(18) 0.28411(17)
B1 B 0.5509(5) 0.1463(4) 0.2301(6)
F1 F 0.6039(3) 0.1977(3) 0.2136(4)
F2 F 0.5679(6) 0.1422(6) 0.2990(4)
F3 F 0.4590(3) 0.1586(3) 0.2189(3)
F4 F 0.5765(7) 0.0844(4) 0.2196(7)
O1 O 0.1234(12) 0.4172(9) 0.4298(8)
C47 C 0.1365(9) 0.3368(7) 0.4437(7)
H39 H 0.1501 0.3107 0.4036
H40 H 0.1859 0.3271 0.4823
C48 C 0.0388(11) 0.3209(9) 0.4598(8)
H41 H 0.0197 0.2723 0.4456
H42 H 0.0377 0.3252 0.5087
C49 C -0.0175(11) 0.3671(9) 0.4269(8)
H43 H -0.0730 0.3727 0.4498
H44 H -0.0393 0.3485 0.3812
C50 C 0.0221(17) 0.4325(12) 0.4211(11)
H45 H 0.0069 0.4651 0.4563
H46 H 0.0004 0.4535 0.3764
O2 O 0.0147(6) 0.3328(4) 0.0446(4)
C51 C 0.0198(11) 0.3962(6) 0.0064(8)
H47 H -0.0372 0.4007 -0.0274
H48 H 0.0233 0.4377 0.0365
C52 C 0.0942(8) 0.3940(7) -0.0238(7)
H49 H 0.1411 0.4287 -0.0031
H50 H 0.0768 0.4062 -0.0719
C53 C 0.1350(5) 0.3205(6) -0.0171(4)
H51 H 0.1185 0.2932 -0.0591
H52 H 0.2039 0.3218 -0.0048
C54 C 0.0896(5) 0.2911(4) 0.0378(4)
H53 H 0.0688 0.2421 0.0269
H54 H 0.1343 0.2905 0.0802
O3 O 0.3508(3) 0.1437(2) 0.72811(19)
C55 C 0.2994(5) 0.1987(4) 0.7525(4)
H55 H 0.2524 0.2172 0.7158
H56 H 0.3420 0.2378 0.7694
C56 C 0.2522(7) 0.1718(4) 0.8068(4)
H57 H 0.1873 0.1899 0.8023
H58 H 0.2862 0.1863 0.8511
C57 C 0.2529(7) 0.0946(5) 0.7996(5)
H59 H 0.1896 0.0770 0.7815
H60 H 0.2737 0.0718 0.8435
C58 C 0.3198(7) 0.0794(4) 0.7520(4)
H61 H 0.3738 0.0522 0.7751
H62 H 0.2886 0.0507 0.7139
loop_
_geom_bond_atom_site_label_1
_geom_bond_atom_site_label_2
_geom_bond_site_symmetry_1
_geom_bond_site_symmetry_2
Cu1 N1 1_555 1_555
N1 C1 1_555 1_555
N2 C9 1_555 1_555
C1 H1 1_555 1_555
C2 C1 1_555 1_555
H2 C2 1_555 1_555
C3 C2 1_555 1_555
C4 C3 1_555 1_555
H3 C4 1_555 1_555
C5 N1 1_555 1_555
H4 C5 1_555 1_555
C6 C3 1_555 1_555
C7 C6 1_555 1_555
H5 C7 1_555 1_555
C8 C7 1_555 1_555
H6 C8 1_555 1_555
C9 C8 1_555 1_555
H7 C9 1_555 1_555
C10 N2 1_555 1_555
H8 C10 1_555 1_555
P1 Cu1 1_555 1_555
C11 P1 1_555 1_555
C12 C11 1_555 1_555
H9 C12 1_555 1_555
C13 C12 1_555 1_555
H10 C13 1_555 1_555
C14 C13 1_555 1_555
H11 C14 1_555 1_555
C15 C14 1_555 1_555
H12 C15 1_555 1_555
C16 C11 1_555 1_555
H13 C16 1_555 1_555
C17 P1 1_555 1_555
C18 C17 1_555 1_555
H14 C18 1_555 1_555
C19 C18 1_555 1_555
H15 C19 1_555 1_555
C20 C19 1_555 1_555
H16 C20 1_555 1_555
C21 C20 1_555 1_555
H17 C21 1_555 1_555
C22 C17 1_555 1_555
H18 C22 1_555 1_555
C23 P1 1_555 1_555
C24 C23 1_555 1_555
H19 C24 1_555 1_555
C25 C24 1_555 1_555
H20 C25 1_555 1_555
C26 C25 1_555 1_555
H21 C26 1_555 1_555
C27 C26 1_555 1_555
H22 C27 1_555 1_555
P2 Cu1 1_555 1_555
C28 C23 1_555 1_555
H23 C28 1_555 1_555
C29 P2 1_555 1_555
C30 C29 1_555 1_555
H24 C30 1_555 1_555
C31 C30 1_555 1_555
H25 C31 1_555 1_555
C32 C31 1_555 1_555
H26 C32 1_555 1_555
C33 C32 1_555 1_555
H27 C33 1_555 1_555
C34 C29 1_555 1_555
H28 C34 1_555 1_555
C35 P2 1_555 1_555
C36 C35 1_555 1_555
H29 C36 1_555 1_555
C37 C36 1_555 1_555
H30 C37 1_555 1_555
C38 C37 1_555 1_555
H31 C38 1_555 1_555
C39 C38 1_555 1_555
H32 C39 1_555 1_555
C40 C35 1_555 1_555
H33 C40 1_555 1_555
C41 P2 1_555 1_555
C42 C41 1_555 1_555
H34 C42 1_555 1_555
C43 C42 1_555 1_555
H35 C43 1_555 1_555
C44 C43 1_555 1_555
H36 C44 1_555 1_555
C45 C44 1_555 1_555
H37 C45 1_555 1_555
C46 C41 1_555 1_555
H38 C46 1_555 1_555
B1 F1 1_555 1_555
F2 B1 1_555 1_555
F3 B1 1_555 1_555
F4 B1 1_555 1_555
O1 C47 1_555 1_555
C47 H39 1_555 1_555
H40 C47 1_555 1_555
C48 C47 1_555 1_555
H41 C48 1_555 1_555
H42 C48 1_555 1_555
C49 C48 1_555 1_555
H43 C49 1_555 1_555
H44 C49 1_555 1_555
C50 O1 1_555 1_555
H45 C50 1_555 1_555
H46 C50 1_555 1_555
O2 C51 1_555 1_555
C51 H47 1_555 1_555
H48 C51 1_555 1_555
C52 C51 1_555 1_555
H49 C52 1_555 1_555
H50 C52 1_555 1_555
C53 C52 1_555 1_555
H51 C53 1_555 1_555
H52 C53 1_555 1_555
C54 O2 1_555 1_555
H53 C54 1_555 1_555
H54 C54 1_555 1_555
O3 C55 1_555 1_555
C55 H55 1_555 1_555
H56 C55 1_555 1_555
C56 C55 1_555 1_555
H57 C56 1_555 1_555
H58 C56 1_555 1_555
C57 C56 1_555 1_555
H59 C57 1_555 1_555
H60 C57 1_555 1_555
C58 O3 1_555 1_555
H61 C58 1_555 1_555
H62 C58 1_555 1_555
Cu1A N2 1_555 1_555
N2A Cu1 1_555 1_555
C4 C5 1_555 1_555
C6 C10 1_555 1_555
C15 C16 1_555 1_555
C21 C22 1_555 1_555
C27 C28 1_555 1_555
C33 C34 1_555 1_555
C39 C40 1_555 1_555
C45 C46 1_555 1_555
C49 C50 1_555 1_555
C53 C54 1_555 1_555
C57 C58 1_555 1_555

#END
