
#######################################################################
#
#                 Cambridge Crystallographic Data Centre
#                                CCDC 
#
#######################################################################
#
# If this CIF has been generated from an entry in the Cambridge 
# Structural Database, then it will include bibliographic, chemical, 
# crystal, experimental, refinement or atomic coordinate data resulting 
# from the CCDC's data processing and validation procedures.
#
#######################################################################

data_DAKZAS
_symmetry_cell_setting           monoclinic
_symmetry_space_group_name_H-M   'P 21/c'
_symmetry_Int_Tables_number      14
_space_group_name_Hall           '-P 2ybc'
loop_
_symmetry_equiv_pos_site_id
_symmetry_equiv_pos_as_xyz
1 x,y,z
2 -x,1/2+y,1/2-z
3 -x,-y,-z
4 x,1/2-y,1/2+z
_cell_length_a                   14.3365(10)
_cell_length_b                   18.757(3)
_cell_length_c                   22.7858(19)
_cell_angle_alpha                90
_cell_angle_beta                 120.536(5)
_cell_angle_gamma                90
_cell_volume                     5277.53
loop_
_atom_site_label
_atom_site_type_symbol
_atom_site_fract_x
_atom_site_fract_y
_atom_site_fract_z
Cu1 Cu 0.38673(4) -0.06342(2) -0.26862(2)
P1 P 0.43181(8) -0.03928(5) -0.15957(5)
P2 P 0.22831(8) -0.03423(5) -0.36328(5)
N1 N 0.3962(3) -0.17446(16) -0.26879(16)
N2 N 0.4979(3) -0.51180(16) -0.21647(16)
C1 C 0.4855(3) -0.2121(2) -0.2530(2)
H1 H 0.5446 -0.1882 -0.2512
C2 C 0.4946(3) -0.2842(2) -0.2394(2)
H2 H 0.5583 -0.3086 -0.2294
C3 C 0.4098(3) -0.32070(19) -0.24046(19)
C4 C 0.3164(3) -0.2822(2) -0.2583(2)
H3 H 0.2559 -0.3049 -0.2610
C5 C 0.3130(3) -0.2104(2) -0.2719(2)
H4 H 0.2490 -0.1853 -0.2841
C6 C 0.4191(3) -0.39693(19) -0.22134(19)
C7 C 0.4819(3) -0.44283(19) -0.23456(19)
H5 H 0.5154 -0.4245 -0.2577
C8 C 0.4477(4) -0.5370(2) -0.1853(2)
H6 H 0.4577 -0.5852 -0.1720
C9 C 0.3821(5) -0.4961(2) -0.1715(3)
H7 H 0.3472 -0.5164 -0.1500
C10 C 0.3670(4) -0.4248(2) -0.1892(3)
H8 H 0.3227 -0.3959 -0.1797
C11 C 0.3435(3) -0.0805(2) -0.13328(19)
C12 C 0.5650(3) -0.0723(2) -0.0961(2)
C13 C 0.4329(3) 0.0554(2) -0.1416(2)
C14 C 0.3439(4) -0.1543(2) -0.1292(2)
H9 H 0.3954 -0.1805 -0.1341
C15 C 0.5924(4) -0.0862(2) -0.0295(2)
H10 H 0.5420 -0.0771 -0.0156
C16 C 0.5184(4) 0.0896(2) -0.0863(2)
H11 H 0.5781 0.0632 -0.0538
C17 C 0.2702(4) -0.1898(3) -0.1182(2)
H12 H 0.2717 -0.2399 -0.1156
C18 C 0.6939(4) -0.1137(3) 0.0169(2)
H13 H 0.7118 -0.1232 0.0619
C19 C 0.5155(5) 0.1629(3) -0.0792(3)
H14 H 0.5736 0.1857 -0.0417
C20 C 0.1947(4) -0.1524(3) -0.1110(3)
H15 H 0.1433 -0.1767 -0.1045
C21 C 0.7679(4) -0.1267(3) -0.0033(3)
H16 H 0.8363 -0.1454 0.0280
C22 C 0.4300(5) 0.2025(3) -0.1257(3)
H17 H 0.4295 0.2521 -0.1201
C23 C 0.1945(4) -0.0793(3) -0.1133(3)
H18 H 0.1438 -0.0535 -0.1072
C24 C 0.7419(4) -0.1124(3) -0.0694(2)
H19 H 0.7930 -0.1207 -0.0829
C25 C 0.3443(5) 0.1699(2) -0.1808(3)
H20 H 0.2850 0.1970 -0.2129
C26 C 0.2682(4) -0.0430(3) -0.1245(2)
H21 H 0.2671 0.0071 -0.1262
C27 C 0.6411(3) -0.0859(2) -0.1153(2)
H22 H 0.6234 -0.0768 -0.1604
C28 C 0.3463(4) 0.0968(2) -0.1886(2)
H23 H 0.2879 0.0747 -0.2264
C29 C 0.2241(3) -0.0619(2) -0.44144(19)
C30 C 0.1906(3) 0.0600(2) -0.37799(19)
C31 C 0.1126(3) -0.07770(19) -0.36642(19)
C32 C 0.2699(4) -0.1273(2) -0.4416(2)
H24 H 0.3022 -0.1555 -0.4020
C33 C 0.2588(4) 0.1076(2) -0.3847(2)
H25 H 0.3211 0.0907 -0.3839
C34 C 0.0380(3) -0.1185(2) -0.4210(2)
H26 H 0.0442 -0.1229 -0.4600
C35 C 0.2683(5) -0.1508(3) -0.4993(3)
H27 H 0.2972 -0.1958 -0.4994
C36 C 0.2354(4) 0.1800(2) -0.3925(2)
H28 H 0.2813 0.2118 -0.3976
C37 C -0.0454(4) -0.1526(3) -0.4185(2)
H29 H -0.0946 -0.1811 -0.4552
C38 C 0.2248(4) -0.1091(3) -0.5568(2)
H30 H 0.2253 -0.1250 -0.5957
C39 C 0.1451(4) 0.2053(2) -0.3927(2)
H31 H 0.1304 0.2544 -0.3970
C40 C -0.0563(4) -0.1446(3) -0.3616(2)
H32 H -0.1141 -0.1668 -0.3603
C41 C 0.1807(4) -0.0447(3) -0.5571(2)
H33 H 0.1513 -0.0159 -0.5963
C42 C 0.0771(4) 0.1590(3) -0.3867(3)
H34 H 0.0149 0.1763 -0.3876
C43 C 0.0172(4) -0.1044(2) -0.3072(2)
H35 H 0.0101 -0.0991 -0.2686
C44 C 0.1790(4) -0.0211(2) -0.5001(2)
H36 H 0.1469 0.0230 -0.5013
C45 C 0.0991(4) 0.0861(2) -0.3793(2)
H37 H 0.0518 0.0546 -0.3752
C46 C 0.1015(3) -0.0720(2) -0.3095(2)
H38 H 0.1525 -0.0454 -0.2717
Cu1A Cu 0.61327(4) -0.56342(2) -0.23138(2)
N2A N 0.5021(3) -0.01180(16) -0.28353(16)
O1 O 0.1279(3) -0.35349(19) -0.22595(18)
C47 C 0.0490(4) -0.2999(3) -0.2501(4)
H39 H 0.0721 -0.2596 -0.2671
H40 H 0.0392 -0.2826 -0.2129
C48 C -0.0519(6) -0.3284(4) -0.3043(4)
H41 H -0.0645 -0.3130 -0.3488
H42 H -0.1128 -0.3126 -0.2994
C49 C -0.0394(6) -0.4063(4) -0.2972(5)
H43 H -0.0806 -0.4258 -0.2773
H44 H -0.0651 -0.4287 -0.3417
C50 C 0.0770(6) -0.4190(3) -0.2521(4)
H45 H 0.0889 -0.4507 -0.2147
H46 H 0.1072 -0.4417 -0.2775
O2 O -0.5308(5) -0.1708(3) -0.5374(3)
C51 C -0.4478(5) -0.2104(4) -0.5372(4)
H47 H -0.4516 -0.2060 -0.5812
H48 H -0.4545 -0.2609 -0.5289
C52 C -0.3449(5) -0.1817(5) -0.4826(4)
H49 H -0.2892 -0.1820 -0.4955
H50 H -0.3186 -0.2085 -0.4401
C53 C -0.3758(8) -0.1068(6) -0.4759(6)
H51 H -0.3336 -0.0908 -0.4285
H52 H -0.3626 -0.0741 -0.5044
C54 C -0.4869(8) -0.1088(4) -0.4975(5)
H53 H -0.5232 -0.0663 -0.5246
H54 H -0.4968 -0.1100 -0.4581
O3 O 0.0515(12) -0.3634(9) -0.4288(8)
C55 C 0.0864(13) -0.3173(9) -0.4585(8)
H55 H 0.0891 -0.2689 -0.4414
H56 H 0.0370 -0.3172 -0.5080
C56 C 0.1963(11) -0.3400(7) -0.4422(7)
H57 H 0.2085 -0.3315 -0.4802
H58 H 0.2533 -0.3167 -0.4010
C57 C 0.1036(19) -0.4321(13) -0.4244(12)
H59 H 0.1280 -0.4550 -0.3803
H60 H 0.0540 -0.4643 -0.4608
C58 C 0.1881(14) -0.4148(9) -0.4316(9)
H61 H 0.1824 -0.4413 -0.4703
H62 H 0.2549 -0.4301 -0.3907
Cl1 Cl -0.17907(12) -0.14086(7) -0.23032(8)
O4 O -0.2626(4) -0.1571(3) -0.2197(3)
O5 O -0.1369(8) -0.0796(5) -0.2063(8)
O6 O -0.2213(9) -0.1270(7) -0.2973(5)
O7 O -0.1049(5) -0.1952(3) -0.2126(4)
loop_
_geom_bond_atom_site_label_1
_geom_bond_atom_site_label_2
_geom_bond_site_symmetry_1
_geom_bond_site_symmetry_2
Cu1 P1 1_555 1_555
P1 C11 1_555 1_555
P2 Cu1 1_555 1_555
N1 Cu1 1_555 1_555
N2 C7 1_555 1_555
C1 N1 1_555 1_555
H1 C1 1_555 1_555
C2 C1 1_555 1_555
H2 C2 1_555 1_555
C3 C2 1_555 1_555
C4 C3 1_555 1_555
H3 C4 1_555 1_555
C5 N1 1_555 1_555
H4 C5 1_555 1_555
C6 C3 1_555 1_555
C7 C6 1_555 1_555
H5 C7 1_555 1_555
C8 N2 1_555 1_555
H6 C8 1_555 1_555
C9 C8 1_555 1_555
H7 C9 1_555 1_555
C10 C6 1_555 1_555
H8 C10 1_555 1_555
C11 C14 1_555 1_555
C12 P1 1_555 1_555
C13 P1 1_555 1_555
C14 H9 1_555 1_555
C15 C12 1_555 1_555
H10 C15 1_555 1_555
C16 C13 1_555 1_555
H11 C16 1_555 1_555
C17 C14 1_555 1_555
H12 C17 1_555 1_555
C18 C15 1_555 1_555
H13 C18 1_555 1_555
C19 C16 1_555 1_555
H14 C19 1_555 1_555
C20 C17 1_555 1_555
H15 C20 1_555 1_555
C21 C18 1_555 1_555
H16 C21 1_555 1_555
C22 C19 1_555 1_555
H17 C22 1_555 1_555
C23 C20 1_555 1_555
H18 C23 1_555 1_555
C24 C21 1_555 1_555
H19 C24 1_555 1_555
C25 C22 1_555 1_555
H20 C25 1_555 1_555
C26 C11 1_555 1_555
H21 C26 1_555 1_555
C27 C12 1_555 1_555
H22 C27 1_555 1_555
C28 C13 1_555 1_555
H23 C28 1_555 1_555
C29 P2 1_555 1_555
C30 P2 1_555 1_555
C31 P2 1_555 1_555
C32 C29 1_555 1_555
H24 C32 1_555 1_555
C33 C30 1_555 1_555
H25 C33 1_555 1_555
C34 C31 1_555 1_555
H26 C34 1_555 1_555
C35 C32 1_555 1_555
H27 C35 1_555 1_555
C36 C33 1_555 1_555
H28 C36 1_555 1_555
C37 C34 1_555 1_555
H29 C37 1_555 1_555
C38 C35 1_555 1_555
H30 C38 1_555 1_555
C39 C36 1_555 1_555
H31 C39 1_555 1_555
C40 C37 1_555 1_555
H32 C40 1_555 1_555
C41 C38 1_555 1_555
H33 C41 1_555 1_555
C42 C39 1_555 1_555
H34 C42 1_555 1_555
C43 C40 1_555 1_555
H35 C43 1_555 1_555
C44 C29 1_555 1_555
H36 C44 1_555 1_555
C45 C30 1_555 1_555
H37 C45 1_555 1_555
C46 C31 1_555 1_555
H38 C46 1_555 1_555
O1 C47 1_555 1_555
C47 H39 1_555 1_555
H40 C47 1_555 1_555
C48 C47 1_555 1_555
H41 C48 1_555 1_555
H42 C48 1_555 1_555
C49 C48 1_555 1_555
H43 C49 1_555 1_555
H44 C49 1_555 1_555
C50 O1 1_555 1_555
H45 C50 1_555 1_555
H46 C50 1_555 1_555
O2 C51 1_555 1_555
C51 H47 1_555 1_555
H48 C51 1_555 1_555
C52 C51 1_555 1_555
H49 C52 1_555 1_555
H50 C52 1_555 1_555
C53 C52 1_555 1_555
H51 C53 1_555 1_555
H52 C53 1_555 1_555
C54 O2 1_555 1_555
H53 C54 1_555 1_555
H54 C54 1_555 1_555
O3 C55 1_555 1_555
C55 H55 1_555 1_555
H56 C55 1_555 1_555
C56 C55 1_555 1_555
H57 C56 1_555 1_555
H58 C56 1_555 1_555
C57 O3 1_555 1_555
H59 C57 1_555 1_555
H60 C57 1_555 1_555
C58 C56 1_555 1_555
H61 C58 1_555 1_555
H62 C58 1_555 1_555
Cl1 O4 1_555 1_555
O5 Cl1 1_555 1_555
O6 Cl1 1_555 1_555
O7 Cl1 1_555 1_555
Cu1A N2 1_555 1_555
N2A Cu1 1_555 1_555
C4 C5 1_555 1_555
C9 C10 1_555 1_555
C23 C26 1_555 1_555
C24 C27 1_555 1_555
C25 C28 1_555 1_555
C41 C44 1_555 1_555
C42 C45 1_555 1_555
C43 C46 1_555 1_555
C49 C50 1_555 1_555
C53 C54 1_555 1_555
C57 C58 1_555 1_555

#END
