
#######################################################################
#
#                 Cambridge Crystallographic Data Centre
#                                CCDC 
#
#######################################################################
#
# If this CIF has been generated from an entry in the Cambridge 
# Structural Database, then it will include bibliographic, chemical, 
# crystal, experimental, refinement or atomic coordinate data resulting 
# from the CCDC's data processing and validation procedures.
#
#######################################################################

data_DAMGUV
_symmetry_cell_setting           orthorhombic
_symmetry_space_group_name_H-M   'P c c n'
_symmetry_Int_Tables_number      56
_space_group_name_Hall           '-P 2ab 2ac'
loop_
_symmetry_equiv_pos_site_id
_symmetry_equiv_pos_as_xyz
1 x,y,z
2 1/2-x,1/2-y,z
3 1/2+x,-y,1/2-z
4 -x,1/2+y,1/2-z
5 -x,-y,-z
6 1/2+x,1/2+y,-z
7 1/2-x,y,1/2+z
8 x,1/2-y,1/2+z
_cell_length_a                   18.610(4)
_cell_length_b                   12.250(3)
_cell_length_c                   15.670(3)
_cell_angle_alpha                90
_cell_angle_beta                 90
_cell_angle_gamma                90
_cell_volume                     3572.33
loop_
_atom_site_label
_atom_site_type_symbol
_atom_site_fract_x
_atom_site_fract_y
_atom_site_fract_z
Tb1 Tb 0.7500 0.2500 0.085130(16)
Rb1 Rb 0.7500 0.2500 0.33700(4)
O1 O 0.66206(15) 0.2167(2) 0.18321(17)
O2 O 0.77228(15) 0.3864(2) -0.01084(17)
N1 N 0.70380(18) 0.4283(3) 0.17406(19)
N2 N 0.63449(18) 0.3174(3) -0.00437(19)
C1 C 0.7272(3) 0.5314(4) 0.1758(3)
C2 C 0.5672(2) 0.2790(4) -0.0085(3)
C3 C 0.6850(2) 0.6174(3) 0.2109(3)
H1 H 0.7021 0.6904 0.2081
C4 C 0.5106(2) 0.3393(3) -0.0454(2)
H2 H 0.4634 0.3098 -0.0464
C5 C 0.6203(2) 0.5959(3) 0.2484(3)
H3 H 0.5926 0.6536 0.2721
C6 C 0.5234(2) 0.4399(4) -0.0797(2)
H4 H 0.4849 0.4804 -0.1040
C7 C 0.5948(2) 0.4864(3) 0.2519(2)
C8 C 0.5940(2) 0.4843(4) -0.0793(2)
C9 C 0.5297(2) 0.4555(4) 0.2920(3)
H5 H 0.5000 0.5092 0.3180
C10 C 0.6122(2) 0.5877(4) -0.1139(3)
H6 H 0.5762 0.6326 -0.1387
C11 C 0.5096(2) 0.3474(3) 0.2931(2)
H7 H 0.4656 0.3271 0.3195
C12 C 0.6824(3) 0.6221(4) -0.1112(3)
H8 H 0.6942 0.6919 -0.1335
C13 C 0.5531(3) 0.2661(3) 0.2557(3)
H9 H 0.5381 0.1920 0.2581
C14 C 0.7376(3) 0.5566(5) -0.0761(3)
H10 H 0.7857 0.5826 -0.0765
C15 C 0.6181(2) 0.2921(3) 0.2150(2)
C16 C 0.7223(2) 0.4538(3) -0.0407(2)
C17 C 0.6386(2) 0.4056(3) 0.2128(2)
C18 C 0.6483(2) 0.4186(3) -0.0410(2)
C19 C 0.8022(2) 0.5557(4) 0.1426(3)
H11 H 0.8176 0.4967 0.1045
H12 H 0.8357 0.5612 0.1907
H13 H 0.8017 0.6248 0.1111
C20 C 0.5535(2) 0.1647(4) 0.0268(3)
H14 H 0.5808 0.1112 -0.0065
H15 H 0.5021 0.1479 0.0230
H16 H 0.5688 0.1616 0.0866
Rb1F Rb 0.7500 0.2500 -0.16300(4)
O1A O 0.83794(15) 0.2833(2) 0.18321(17)
O2A O 0.72772(15) 0.1136(2) -0.01084(17)
O2F O 0.72772(15) 0.3864(2) 0.48916(17)
O2G O 0.77228(15) 0.1136(2) 0.48916(17)
N1A N 0.79620(18) 0.0717(3) 0.17406(19)
N2A N 0.86551(18) 0.1826(3) -0.00437(19)
C1A C 0.7728(3) -0.0314(4) 0.1758(3)
C2A C 0.9328(2) 0.2210(4) -0.0085(3)
C3A C 0.8150(2) -0.1174(3) 0.2109(3)
H1A H 0.7979 -0.1904 0.2081
C4A C 0.9894(2) 0.1607(3) -0.0454(2)
H2A H 1.0366 0.1902 -0.0464
C5A C 0.8797(2) -0.0959(3) 0.2484(3)
H3A H 0.9074 -0.1536 0.2721
C6A C 0.9766(2) 0.0601(4) -0.0797(2)
H4A H 1.0151 0.0196 -0.1040
C7A C 0.9052(2) 0.0136(3) 0.2519(2)
C8A C 0.9060(2) 0.0157(4) -0.0793(2)
C9A C 0.9703(2) 0.0445(4) 0.2920(3)
H5A H 1.0000 -0.0092 0.3180
C10A C 0.8878(2) -0.0877(4) -0.1139(3)
H6A H 0.9238 -0.1326 -0.1387
C11A C 0.9904(2) 0.1526(3) 0.2931(2)
H7A H 1.0344 0.1729 0.3195
C12A C 0.8176(3) -0.1221(4) -0.1112(3)
H8A H 0.8058 -0.1919 -0.1335
C13A C 0.9469(3) 0.2339(3) 0.2557(3)
H9A H 0.9619 0.3080 0.2581
C14A C 0.7624(3) -0.0566(5) -0.0761(3)
H10A H 0.7143 -0.0826 -0.0765
C15A C 0.8819(2) 0.2079(3) 0.2150(2)
C16A C 0.7777(2) 0.0462(3) -0.0407(2)
C17A C 0.8614(2) 0.0944(3) 0.2128(2)
C18A C 0.8517(2) 0.0814(3) -0.0410(2)
C19A C 0.6978(2) -0.0557(4) 0.1426(3)
H11A H 0.6824 0.0033 0.1045
H12A H 0.6643 -0.0612 0.1907
H13A H 0.6983 -0.1248 0.1111
C20A C 0.9465(2) 0.3353(4) 0.0268(3)
H14A H 0.9192 0.3888 -0.0065
H15A H 0.9979 0.3521 0.0230
H16A H 0.9312 0.3384 0.0866
loop_
_geom_bond_atom_site_label_1
_geom_bond_atom_site_label_2
_geom_bond_site_symmetry_1
_geom_bond_site_symmetry_2
Tb1 O1 1_555 1_555
Rb1 O1 1_555 1_555
O1 C15 1_555 1_555
O2 Tb1 1_555 1_555
N1 Tb1 1_555 1_555
N2 Tb1 1_555 1_555
C1 N1 1_555 1_555
C2 N2 1_555 1_555
C3 C1 1_555 1_555
H1 C3 1_555 1_555
C4 C2 1_555 1_555
H2 C4 1_555 1_555
C5 C3 1_555 1_555
H3 C5 1_555 1_555
C6 C4 1_555 1_555
H4 C6 1_555 1_555
C7 C5 1_555 1_555
C8 C6 1_555 1_555
C9 C7 1_555 1_555
H5 C9 1_555 1_555
C10 C8 1_555 1_555
H6 C10 1_555 1_555
C11 C9 1_555 1_555
H7 C11 1_555 1_555
C12 C10 1_555 1_555
H8 C12 1_555 1_555
C13 C11 1_555 1_555
H9 C13 1_555 1_555
C14 C12 1_555 1_555
H10 C14 1_555 1_555
C15 C13 1_555 1_555
C16 O2 1_555 1_555
C17 N1 1_555 1_555
C18 N2 1_555 1_555
C19 C1 1_555 1_555
H11 C19 1_555 1_555
H12 C19 1_555 1_555
H13 C19 1_555 1_555
C20 C2 1_555 1_555
H14 C20 1_555 1_555
H15 C20 1_555 1_555
H16 C20 1_555 1_555
Rb1F O2 1_555 1_555
O1A Tb1 1_555 1_555
O2A Tb1 1_555 1_555
O2F Rb1 1_555 1_555
O2G Rb1 1_555 1_555
N1A Tb1 1_555 1_555
N2A Tb1 1_555 1_555
C1A N1A 1_555 1_555
C2A N2A 1_555 1_555
C3A C1A 1_555 1_555
H1A C3A 1_555 1_555
C4A C2A 1_555 1_555
H2A C4A 1_555 1_555
C5A C3A 1_555 1_555
H3A C5A 1_555 1_555
C6A C4A 1_555 1_555
H4A C6A 1_555 1_555
C7A C5A 1_555 1_555
C8A C6A 1_555 1_555
C9A C7A 1_555 1_555
H5A C9A 1_555 1_555
C10A C8A 1_555 1_555
H6A C10A 1_555 1_555
C11A C9A 1_555 1_555
H7A C11A 1_555 1_555
C12A C10A 1_555 1_555
H8A C12A 1_555 1_555
C13A C11A 1_555 1_555
H9A C13A 1_555 1_555
C14A C12A 1_555 1_555
H10A C14A 1_555 1_555
C15A O1A 1_555 1_555
C16A O2A 1_555 1_555
C17A N1A 1_555 1_555
C18A N2A 1_555 1_555
C19A C1A 1_555 1_555
H11A C19A 1_555 1_555
H12A C19A 1_555 1_555
H13A C19A 1_555 1_555
C20A C2A 1_555 1_555
H14A C20A 1_555 1_555
H15A C20A 1_555 1_555
H16A C20A 1_555 1_555
Rb1 O1A 1_555 1_555
C7 C17 1_555 1_555
C8 C18 1_555 1_555
C14 C16 1_555 1_555
C15 C17 1_555 1_555
C16 C18 1_555 1_555
Rb1F O2A 1_555 1_555
C7A C17A 1_555 1_555
C8A C18A 1_555 1_555
C13A C15A 1_555 1_555
C14A C16A 1_555 1_555
C15A C17A 1_555 1_555
C16A C18A 1_555 1_555

#END
