
#######################################################################
#
#                 Cambridge Crystallographic Data Centre
#                                CCDC 
#
#######################################################################
#
# If this CIF has been generated from an entry in the Cambridge 
# Structural Database, then it will include bibliographic, chemical, 
# crystal, experimental, refinement or atomic coordinate data resulting 
# from the CCDC's data processing and validation procedures.
#
#######################################################################

data_DAMHAC
_symmetry_cell_setting           orthorhombic
_symmetry_space_group_name_H-M   'P c c n'
_symmetry_Int_Tables_number      56
_space_group_name_Hall           '-P 2ab 2ac'
loop_
_symmetry_equiv_pos_site_id
_symmetry_equiv_pos_as_xyz
1 x,y,z
2 1/2-x,1/2-y,z
3 1/2+x,-y,1/2-z
4 -x,1/2+y,1/2-z
5 -x,-y,-z
6 1/2+x,1/2+y,-z
7 1/2-x,y,1/2+z
8 x,1/2-y,1/2+z
_cell_length_a                   18.641(4)
_cell_length_b                   12.191(2)
_cell_length_c                   15.471(3)
_cell_angle_alpha                90
_cell_angle_beta                 90
_cell_angle_gamma                90
_cell_volume                     3515.82
loop_
_atom_site_label
_atom_site_type_symbol
_atom_site_fract_x
_atom_site_fract_y
_atom_site_fract_z
Er1 Er 0.2500 0.2500 0.414416(13)
Rb1 Rb 0.2500 0.2500 0.66266(3)
O1 O 0.27301(13) 0.11428(19) 0.50832(14)
O2 O 0.16289(13) 0.2844(2) 0.31845(15)
N1 N 0.13565(16) 0.1838(2) 0.50248(17)
N2 N 0.20474(16) 0.0728(2) 0.32649(16)
C1 C 0.0691(2) 0.2226(3) 0.5073(2)
C2 C 0.2280(2) -0.0298(3) 0.3239(2)
C3 C 0.01225(19) 0.1620(3) 0.5447(2)
H1 H -0.0348 0.1921 0.5459
C4 C 0.1857(2) -0.1163(3) 0.2885(2)
H2 H 0.2029 -0.1896 0.2907
C5 C 0.0247(2) 0.0610(3) 0.5789(2)
H3 H -0.0137 0.0203 0.6035
C6 C 0.12065(19) -0.0946(3) 0.2516(2)
H4 H 0.0928 -0.1525 0.2279
C7 C 0.0952(2) 0.0165(3) 0.5778(2)
C8 C 0.09501(18) 0.0147(3) 0.2489(2)
C9 C 0.1136(2) -0.0875(3) 0.6120(2)
H5 H 0.0776 -0.1332 0.6365
C10 C 0.02961(19) 0.0458(3) 0.2093(2)
H6 H -0.0003 -0.0078 0.1832
C11 C 0.1840(2) -0.1220(3) 0.6096(2)
H7 H 0.1962 -0.1919 0.6325
C12 C 0.00984(19) 0.1547(3) 0.2092(2)
H8 H -0.0344 0.1756 0.1834
C13 C 0.2380(2) -0.0557(4) 0.5739(3)
H9 H 0.2861 -0.0816 0.5739
C14 C 0.0537(2) 0.2353(3) 0.2462(2)
H10 H 0.0388 0.3098 0.2438
C15 C 0.22327(19) 0.0470(3) 0.5385(2)
C16 C 0.11831(18) 0.2099(3) 0.2865(2)
C17 C 0.14903(18) 0.0826(3) 0.5390(2)
C18 C 0.13917(18) 0.0958(3) 0.2880(2)
C19 C 0.0547(2) 0.3379(3) 0.4731(2)
H11 H 0.0780 0.3918 0.5109
H12 H 0.0029 0.3514 0.4721
H13 H 0.0741 0.3447 0.4145
C20 C 0.3028(2) -0.0543(3) 0.3562(3)
H14 H 0.3368 -0.0501 0.3079
H15 H 0.3040 -0.1281 0.3812
H16 H 0.3162 -0.0005 0.4004
Rb1F Rb 0.2500 0.2500 0.16266(3)
O1A O 0.22699(13) 0.38572(19) 0.50832(14)
O2A O 0.33711(13) 0.2156(2) 0.31845(15)
O2F O 0.33711(13) 0.2844(2) 0.81845(15)
O2G O 0.16289(13) 0.2156(2) 0.81845(15)
N1A N 0.36435(16) 0.3162(2) 0.50248(17)
N2A N 0.29526(16) 0.4272(2) 0.32649(16)
C1A C 0.4309(2) 0.2774(3) 0.5073(2)
C2A C 0.2720(2) 0.5298(3) 0.3239(2)
C3A C 0.48775(19) 0.3380(3) 0.5447(2)
H1A H 0.5348 0.3079 0.5459
C4A C 0.3143(2) 0.6163(3) 0.2885(2)
H2A H 0.2971 0.6896 0.2907
C5A C 0.4753(2) 0.4390(3) 0.5789(2)
H3A H 0.5137 0.4797 0.6035
C6A C 0.37935(19) 0.5946(3) 0.2516(2)
H4A H 0.4072 0.6525 0.2279
C7A C 0.4048(2) 0.4835(3) 0.5778(2)
C8A C 0.40499(18) 0.4853(3) 0.2489(2)
C9A C 0.3864(2) 0.5875(3) 0.6120(2)
H5A H 0.4224 0.6332 0.6365
C10A C 0.47039(19) 0.4542(3) 0.2093(2)
H6A H 0.5003 0.5078 0.1832
C11A C 0.3160(2) 0.6220(3) 0.6096(2)
H7A H 0.3038 0.6919 0.6325
C12A C 0.49016(19) 0.3453(3) 0.2092(2)
H8A H 0.5344 0.3244 0.1834
C13A C 0.2620(2) 0.5557(4) 0.5739(3)
H9A H 0.2139 0.5816 0.5739
C14A C 0.4463(2) 0.2647(3) 0.2462(2)
H10A H 0.4612 0.1902 0.2438
C15A C 0.27673(19) 0.4530(3) 0.5385(2)
C16A C 0.38169(18) 0.2901(3) 0.2865(2)
C17A C 0.35097(18) 0.4174(3) 0.5390(2)
C18A C 0.36083(18) 0.4042(3) 0.2880(2)
C19A C 0.4453(2) 0.1621(3) 0.4731(2)
H11A H 0.4220 0.1082 0.5109
H12A H 0.4971 0.1486 0.4721
H13A H 0.4259 0.1553 0.4145
C20A C 0.1972(2) 0.5543(3) 0.3562(3)
H14A H 0.1632 0.5501 0.3079
H15A H 0.1960 0.6281 0.3812
H16A H 0.1838 0.5005 0.4004
loop_
_geom_bond_atom_site_label_1
_geom_bond_atom_site_label_2
_geom_bond_site_symmetry_1
_geom_bond_site_symmetry_2
Er1 O1 1_555 1_555
Rb1 O1 1_555 1_555
O1 C15 1_555 1_555
O2 Er1 1_555 1_555
N1 Er1 1_555 1_555
N2 Er1 1_555 1_555
C1 N1 1_555 1_555
C2 N2 1_555 1_555
C3 C1 1_555 1_555
H1 C3 1_555 1_555
C4 C2 1_555 1_555
H2 C4 1_555 1_555
C5 C3 1_555 1_555
H3 C5 1_555 1_555
C6 C4 1_555 1_555
H4 C6 1_555 1_555
C7 C5 1_555 1_555
C8 C6 1_555 1_555
C9 C7 1_555 1_555
H5 C9 1_555 1_555
C10 C8 1_555 1_555
H6 C10 1_555 1_555
C11 C9 1_555 1_555
H7 C11 1_555 1_555
C12 C10 1_555 1_555
H8 C12 1_555 1_555
C13 C11 1_555 1_555
H9 C13 1_555 1_555
C14 C12 1_555 1_555
H10 C14 1_555 1_555
C15 C13 1_555 1_555
C16 O2 1_555 1_555
C17 N1 1_555 1_555
C18 N2 1_555 1_555
C19 C1 1_555 1_555
H11 C19 1_555 1_555
H12 C19 1_555 1_555
H13 C19 1_555 1_555
C20 C2 1_555 1_555
H14 C20 1_555 1_555
H15 C20 1_555 1_555
H16 C20 1_555 1_555
Rb1F O2 1_555 1_555
O1A Er1 1_555 1_555
O2A Er1 1_555 1_555
O2F Rb1 1_555 1_555
O2G Rb1 1_555 1_555
N1A Er1 1_555 1_555
N2A Er1 1_555 1_555
C1A N1A 1_555 1_555
C2A N2A 1_555 1_555
C3A C1A 1_555 1_555
H1A C3A 1_555 1_555
C4A C2A 1_555 1_555
H2A C4A 1_555 1_555
C5A C3A 1_555 1_555
H3A C5A 1_555 1_555
C6A C4A 1_555 1_555
H4A C6A 1_555 1_555
C7A C5A 1_555 1_555
C8A C6A 1_555 1_555
C9A C7A 1_555 1_555
H5A C9A 1_555 1_555
C10A C8A 1_555 1_555
H6A C10A 1_555 1_555
C11A C9A 1_555 1_555
H7A C11A 1_555 1_555
C12A C10A 1_555 1_555
H8A C12A 1_555 1_555
C13A C11A 1_555 1_555
H9A C13A 1_555 1_555
C14A C12A 1_555 1_555
H10A C14A 1_555 1_555
C15A O1A 1_555 1_555
C16A O2A 1_555 1_555
C17A N1A 1_555 1_555
C18A N2A 1_555 1_555
C19A C1A 1_555 1_555
H11A C19A 1_555 1_555
H12A C19A 1_555 1_555
H13A C19A 1_555 1_555
C20A C2A 1_555 1_555
H14A C20A 1_555 1_555
H15A C20A 1_555 1_555
H16A C20A 1_555 1_555
Rb1 O1A 1_555 1_555
C7 C17 1_555 1_555
C8 C18 1_555 1_555
C14 C16 1_555 1_555
C15 C17 1_555 1_555
C16 C18 1_555 1_555
Rb1F O2A 1_555 1_555
C7A C17A 1_555 1_555
C8A C18A 1_555 1_555
C13A C15A 1_555 1_555
C14A C16A 1_555 1_555
C15A C17A 1_555 1_555
C16A C18A 1_555 1_555

#END
