
#######################################################################
#
#                 Cambridge Crystallographic Data Centre
#                                CCDC 
#
#######################################################################
#
# If this CIF has been generated from an entry in the Cambridge 
# Structural Database, then it will include bibliographic, chemical, 
# crystal, experimental, refinement or atomic coordinate data resulting 
# from the CCDC's data processing and validation procedures.
#
#######################################################################

data_DAMHOQ
_symmetry_cell_setting           monoclinic
_symmetry_space_group_name_H-M   'P 21/c'
_symmetry_Int_Tables_number      14
_space_group_name_Hall           '-P 2ybc'
loop_
_symmetry_equiv_pos_site_id
_symmetry_equiv_pos_as_xyz
1 x,y,z
2 -x,1/2+y,1/2-z
3 -x,-y,-z
4 x,1/2-y,1/2+z
_cell_length_a                   9.6338(19)
_cell_length_b                   6.2708(13)
_cell_length_c                   30.289(6)
_cell_angle_alpha                90
_cell_angle_beta                 93.42(3)
_cell_angle_gamma                90
_cell_volume                     1826.55
loop_
_atom_site_label
_atom_site_type_symbol
_atom_site_fract_x
_atom_site_fract_y
_atom_site_fract_z
Na1 Na 0.0410(3) 0.2276(4) 0.21128(8)
Na2 Na 0.4992(3) 0.3100(4) 0.21059(8)
O1 O 0.1562(4) -0.0911(7) 0.18966(13)
O2 O -0.0278(5) 0.6035(8) 0.21238(15)
O3 O 0.2714(5) 0.3495(9) 0.24050(17)
O4 O -0.2154(5) 0.2538(9) 0.22545(18)
O5 O 0.6422(5) 0.6048(7) 0.19016(13)
O6 O 0.4499(5) -0.0653(8) 0.21359(14)
N1 N 0.0349(5) 0.2020(8) 0.13147(16)
N2 N 0.5291(5) 0.3124(8) 0.13135(16)
C1 C -0.0199(7) 0.3425(10) 0.1032(2)
H1 H -0.0714 0.4573 0.1145
C2 C -0.0065(7) 0.3324(10) 0.0568(2)
H2 H -0.0475 0.4378 0.0377
C3 C 0.0666(6) 0.1677(10) 0.04063(19)
H3 H 0.0778 0.1590 0.0097
C4 C 0.1266(6) 0.0085(9) 0.06900(19)
C5 C 0.2022(6) -0.1684(10) 0.0544(2)
H4 H 0.2152 -0.1861 0.0237
C6 C 0.2567(7) -0.3139(11) 0.0841(2)
H5 H 0.3067 -0.4327 0.0738
C7 C 0.2402(6) -0.2917(10) 0.1298(2)
H6 H 0.2774 -0.3973 0.1496
C8 C 0.1702(6) -0.1172(10) 0.1463(2)
C9 C 0.1084(6) 0.0348(10) 0.11564(19)
C10 C 0.4779(6) 0.1698(10) 0.10301(19)
H7 H 0.4256 0.0551 0.1140
C11 C 0.4966(6) 0.1781(10) 0.0570(2)
H8 H 0.4583 0.0709 0.0377
C12 C 0.5708(7) 0.3433(11) 0.0410(2)
H9 H 0.5842 0.3514 0.0102
C13 C 0.6281(6) 0.5029(10) 0.06970(19)
C14 C 0.7041(6) 0.6798(10) 0.0559(2)
H10 H 0.7201 0.6969 0.0254
C15 C 0.7550(7) 0.8271(11) 0.0858(2)
H11 H 0.8050 0.9468 0.0759
C16 C 0.7339(6) 0.8035(10) 0.1313(2)
H12 H 0.7701 0.9085 0.1515
C17 C 0.6621(6) 0.6315(10) 0.1473(2)
C18 C 0.6039(6) 0.4801(10) 0.11586(19)
H13 H -0.115(3) 0.668(9) 0.2004(19)
H14 H 0.038(4) 0.706(8) 0.1994(19)
H15 H 0.287(7) 0.245(11) 0.2197(13)
H16 H 0.299(6) 0.275(9) 0.2687(11)
H17 H -0.230(5) 0.134(7) 0.2459(17)
H18 H 0.516(5) -0.166(8) 0.201(2)
H19 H 0.350(3) -0.102(10) 0.208(2)
H20 H -0.316(3) 0.291(9) 0.2186(19)
Na1A Na -0.0410(3) 0.7276(4) 0.28872(8)
Na2A Na 0.5008(3) -0.1900(4) 0.28941(8)
O2A O 0.0278(5) 0.1035(8) 0.28762(15)
O6A O 0.5501(5) 0.4347(8) 0.28641(14)
H13A H 0.115(3) 0.168(9) 0.2996(19)
H14A H -0.038(4) 0.206(8) 0.3006(19)
H18A H 0.484(5) 0.334(8) 0.299(2)
H19A H 0.650(3) 0.398(10) 0.292(2)
loop_
_geom_bond_atom_site_label_1
_geom_bond_atom_site_label_2
_geom_bond_site_symmetry_1
_geom_bond_site_symmetry_2
Na1 O1 1_555 1_555
Na2 O3 1_555 1_555
O1 C8 1_555 1_555
O2 Na1 1_555 1_555
O3 Na1 1_555 1_555
O4 Na1 1_555 1_555
O5 Na2 1_555 1_555
O6 Na2 1_555 1_555
N1 Na1 1_555 1_555
N2 Na2 1_555 1_555
C1 N1 1_555 1_555
H1 C1 1_555 1_555
C2 C1 1_555 1_555
H2 C2 1_555 1_555
C3 C2 1_555 1_555
H3 C3 1_555 1_555
C4 C3 1_555 1_555
C5 C4 1_555 1_555
H4 C5 1_555 1_555
C6 C5 1_555 1_555
H5 C6 1_555 1_555
C7 C6 1_555 1_555
H6 C7 1_555 1_555
C8 C7 1_555 1_555
C9 N1 1_555 1_555
C10 N2 1_555 1_555
H7 C10 1_555 1_555
C11 C10 1_555 1_555
H8 C11 1_555 1_555
C12 C11 1_555 1_555
H9 C12 1_555 1_555
C13 C12 1_555 1_555
C14 C13 1_555 1_555
H10 C14 1_555 1_555
C15 C14 1_555 1_555
H11 C15 1_555 1_555
C16 C15 1_555 1_555
H12 C16 1_555 1_555
C17 O5 1_555 1_555
C18 N2 1_555 1_555
H13 O2 1_555 1_555
H14 O2 1_555 1_555
H15 O3 1_555 1_555
H16 O3 1_555 1_555
H17 O4 1_555 1_555
H18 O6 1_555 1_555
H19 O6 1_555 1_555
H20 O4 1_555 1_555
Na1A O2 1_555 1_555
Na2A O6 1_555 1_555
O2A Na1 1_555 1_555
O6A Na2 1_555 1_555
H13A O2A 1_555 1_555
H14A O2A 1_555 1_555
H18A O6A 1_555 1_555
H19A O6A 1_555 1_555
C4 C9 1_555 1_555
C8 C9 1_555 1_555
C13 C18 1_555 1_555
C16 C17 1_555 1_555
C17 C18 1_555 1_555

#END
