
#######################################################################
#
#                 Cambridge Crystallographic Data Centre
#                                CCDC 
#
#######################################################################
#
# If this CIF has been generated from an entry in the Cambridge 
# Structural Database, then it will include bibliographic, chemical, 
# crystal, experimental, refinement or atomic coordinate data resulting 
# from the CCDC's data processing and validation procedures.
#
#######################################################################

data_DAMQOZ
_symmetry_cell_setting           triclinic
_symmetry_space_group_name_H-M   'P -1'
_symmetry_Int_Tables_number      2
_space_group_name_Hall           '-P 1'
loop_
_symmetry_equiv_pos_site_id
_symmetry_equiv_pos_as_xyz
1 x,y,z
2 -x,-y,-z
_cell_length_a                   10.2666(13)
_cell_length_b                   10.3149(13)
_cell_length_c                   17.344(2)
_cell_angle_alpha                90.127(2)
_cell_angle_beta                 94.382(2)
_cell_angle_gamma                117.484(2)
_cell_volume                     1623.2
loop_
_atom_site_label
_atom_site_type_symbol
_atom_site_fract_x
_atom_site_fract_y
_atom_site_fract_z
Pb1 Pb 0.30046(5) 0.02104(5) 0.48539(2)
Pb2 Pb -0.14757(5) -0.20458(5) 0.35250(2)
Pb3 Pb 1.08948(5) 0.00182(5) 0.17132(2)
Pb4 Pb 1.02815(6) -0.26669(5) -0.01030(3)
S1 S -0.0716(3) -0.1839(3) 0.57044(17)
S2 S 0.8098(3) 0.5795(3) 0.19374(16)
P1 P 1.2027(3) 0.1160(3) -0.01738(16)
O1 O 1.2065(9) -0.0259(8) -0.0326(5)
O2 O 1.1955(10) 0.1506(10) 0.0669(4)
O3 O 1.0844(9) 0.1336(9) -0.0677(4)
O4 O 1.8130(9) 0.1940(9) -0.1060(4)
O5 O 1.9012(10) 0.4322(10) -0.0881(5)
O6 O 0.0824(9) -0.1387(10) 0.5667(5)
O7 O -0.1405(10) -0.1638(9) 0.4971(4)
O8 O -0.1040(11) -0.1127(10) 0.6332(5)
O9 O -0.1321(9) -0.8204(9) 0.6148(5)
O10 O 0.0746(9) -0.6157(9) 0.6056(5)
O11 O -0.6137(9) -0.6007(9) 0.6145(5)
O12 O -0.6075(9) -0.8122(9) 0.6067(5)
O13 O 0.7011(10) 0.6193(10) 0.2217(5)
O14 O 0.9584(10) 0.6892(9) 0.2187(5)
O15 O 0.7842(11) 0.5447(10) 0.1112(5)
O16 O 0.4419(10) 0.2049(11) 0.3851(5)
O17 O 0.5497(11) 0.0770(11) 0.4307(5)
O18 O 0.8474(10) -0.0136(9) 0.2277(4)
O19 O 1.0108(9) 0.1886(9) 0.1799(4)
O20 O 1.2663(11) -0.2790(10) -0.0442(5)
H1 H 1.2883 -0.2464 -0.0889
H2 H 1.2510 -0.3673 -0.0434
N1 N 1.4473(11) 0.2768(11) -0.1112(5)
H7 H 1.3821 0.2743 -0.1497
C1 C 1.3812(14) 0.2681(13) -0.0364(6)
H8 H 1.3735 0.3575 -0.0292
H9 H 1.4530 0.2701 0.0040
C2 C 1.5854(14) 0.4231(14) -0.1116(8)
H10 H 1.5584 0.5016 -0.1101
H11 H 1.6490 0.4337 -0.0651
C3 C 1.6685(13) 0.4375(14) -0.1812(7)
H12 H 1.7580 0.5300 -0.1766
H13 H 1.6094 0.4381 -0.2275
C4 C 1.7084(14) 0.3112(14) -0.1891(7)
H14 H 1.7552 0.3214 -0.2374
C5 C 1.5648(14) 0.1739(14) -0.1962(7)
H15 H 1.5836 0.0911 -0.2040
H16 H 1.5053 0.1778 -0.2414
C6 C 1.4772(14) 0.1495(14) -0.1247(7)
H17 H 1.3851 0.0597 -0.1323
H18 H 1.5335 0.1404 -0.0794
C7 C 1.8150(13) 0.3144(13) -0.1231(6)
C8 C -0.1596(12) -0.3728(13) 0.5848(6)
C9 C -0.0781(12) -0.4508(13) 0.5889(6)
H19 H 0.0230 -0.4029 0.5847
C10 C -0.1497(12) -0.5997(12) 0.5991(6)
C11 C -0.3015(13) -0.6718(13) 0.6013(6)
H20 H -0.3501 -0.7726 0.6059
C12 C -0.3816(13) -0.5933(13) 0.5972(6)
C13 C -0.3112(13) -0.4452(13) 0.5884(6)
H21 H -0.3651 -0.3933 0.5846
C14 C -0.0618(13) -0.6835(13) 0.6060(6)
C15 C -0.5436(13) -0.6734(13) 0.6043(6)
C16 C 0.8252(12) 0.2056(12) 0.2447(6)
C17 C 0.7193(13) 0.1476(13) 0.2983(6)
H22 H 0.6947 0.0556 0.3172
C18 C 0.6515(13) 0.2253(13) 0.3231(6)
C19 C 0.6773(13) 0.3582(13) 0.2926(6)
H23 H 0.6277 0.4084 0.3080
C20 C 0.7791(14) 0.4134(13) 0.2384(6)
C21 C 0.8562(14) 0.3409(13) 0.2164(6)
H24 H 0.9288 0.3833 0.1823
C22 C 0.8978(14) 0.1198(15) 0.2161(6)
C23 C 0.5430(13) 0.1654(13) 0.3842(6)
Pb1A Pb -0.30046(5) -0.02104(5) 0.51461(2)
Pb1A_2 Pb -0.30046(5) -1.02104(5) 0.51461(2)
Pb1_2 Pb -0.69954(5) -0.97896(5) 0.48539(2)
Pb1A_3 Pb 0.69954(5) -0.02104(5) 0.51461(2)
Pb2A Pb 0.14757(5) -0.79542(5) 0.64750(2)
Pb2A_2 Pb -0.85243(5) -0.79542(5) 0.64750(2)
Pb3A Pb 0.91052(5) -0.00182(5) -0.17132(2)
Pb4A Pb 0.97185(6) 0.26669(5) 0.01030(3)
Pb4A_2 Pb 1.97185(6) 0.26669(5) 0.01030(3)
O3A O 0.9156(9) -0.1336(9) 0.0677(4)
O4A O 1.1870(9) -0.1940(9) 0.1060(4)
O5A O 1.0988(10) -0.4322(10) 0.0881(5)
O7A O 0.1405(10) 0.1638(9) 0.5029(4)
O9A O 0.1321(9) -0.1796(9) 0.3852(5)
O10A O -0.0746(9) -0.3843(9) 0.3944(5)
O11A O -0.3863(9) -0.3993(9) 0.3855(5)
O12_2 O 0.3925(9) 0.1878(9) 0.6067(5)
O12A O -0.3925(9) -0.1878(9) 0.3933(5)
O17A O 0.4503(11) -0.0770(11) 0.5693(5)
O21 O 0.5198(17) 0.8649(18) 0.8780(9)
H3 H 0.5992 0.8850 0.9057
H4 H 0.5291 0.9399 0.8539
O22 O 1.3325(12) 0.2435(13) 0.2386(6)
H5 H 1.4199 0.3006 0.2280
H6 H 1.3353 0.1946 0.2775
loop_
_geom_bond_atom_site_label_1
_geom_bond_atom_site_label_2
_geom_bond_site_symmetry_1
_geom_bond_site_symmetry_2
Pb1 O6 1_555 1_555
Pb2 O7 1_555 1_555
Pb3 O2 1_555 1_555
Pb4 O1 1_555 1_555
S1 O6 1_555 1_555
S2 O13 1_555 1_555
P1 O1 1_555 1_555
O2 P1 1_555 1_555
O3 P1 1_555 1_555
O4 C7 1_555 1_555
O5 C7 1_555 1_555
O7 S1 1_555 1_555
O8 S1 1_555 1_555
O9 C14 1_555 1_555
O10 C14 1_555 1_555
O11 C15 1_555 1_555
O12 C15 1_555 1_555
O14 S2 1_555 1_555
O15 S2 1_555 1_555
O16 Pb1 1_555 1_555
O17 Pb1 1_555 1_555
O18 Pb3 1_555 1_555
O19 Pb3 1_555 1_555
O20 Pb4 1_555 1_555
H1 O20 1_555 1_555
H2 O20 1_555 1_555
O21 H3 1_555 1_555
H4 O21 1_555 1_555
O22 H5 1_555 1_555
H6 O22 1_555 1_555
N1 H7 1_555 1_555
C1 P1 1_555 1_555
H8 C1 1_555 1_555
H9 C1 1_555 1_555
C2 N1 1_555 1_555
H10 C2 1_555 1_555
H11 C2 1_555 1_555
C3 C2 1_555 1_555
H12 C3 1_555 1_555
H13 C3 1_555 1_555
C4 C3 1_555 1_555
H14 C4 1_555 1_555
C5 C4 1_555 1_555
H15 C5 1_555 1_555
H16 C5 1_555 1_555
C6 N1 1_555 1_555
H17 C6 1_555 1_555
H18 C6 1_555 1_555
C7 C4 1_555 1_555
C8 S1 1_555 1_555
C9 C8 1_555 1_555
H19 C9 1_555 1_555
C10 C9 1_555 1_555
C11 C10 1_555 1_555
H20 C11 1_555 1_555
C12 C11 1_555 1_555
C13 C8 1_555 1_555
H21 C13 1_555 1_555
C14 C10 1_555 1_555
C15 C12 1_555 1_555
C16 C17 1_555 1_555
C17 H22 1_555 1_555
C18 C17 1_555 1_555
C19 C18 1_555 1_555
H23 C19 1_555 1_555
C20 S2 1_555 1_555
C21 C16 1_555 1_555
H24 C21 1_555 1_555
C22 O18 1_555 1_555
C23 O16 1_555 1_555
Pb1A O7 1_555 1_555
Pb1A_2 O9 1_555 1_555
Pb1_2 O12 1_555 1_555
Pb1A_3 O17 1_555 1_555
Pb2A O10 1_555 1_555
Pb2A_2 O11 1_555 1_555
Pb3A O3 1_555 1_555
Pb4A O3 1_555 1_555
Pb4A_2 O4 1_555 1_555
O3A Pb3 1_555 1_555
O4A Pb4 1_555 1_555
O5A Pb4 1_555 1_555
O7A Pb1 1_555 1_555
O9A Pb1 1_555 1_555
O10A Pb2 1_555 1_555
O11A Pb2 1_555 1_555
O12_2 Pb1 1_555 1_555
O12A Pb2 1_555 1_555
O17A Pb1 1_555 1_555
Pb4 O3A 1_555 1_555
O5 Pb4A_2 1_555 1_555
O12 Pb2A_2 1_555 1_555
O17 C23 1_555 1_555
O19 C22 1_555 1_555
N1 C1 1_555 1_555
C5 C6 1_555 1_555
C12 C13 1_555 1_555
C16 C22 1_555 1_555
C18 C23 1_555 1_555
C19 C20 1_555 1_555
C20 C21 1_555 1_555
Pb1A O12A 1_555 1_555
Pb1A_3 O17A 1_555 1_555

#END
