
#######################################################################
#
#                 Cambridge Crystallographic Data Centre
#                                CCDC 
#
#######################################################################
#
# If this CIF has been generated from an entry in the Cambridge 
# Structural Database, then it will include bibliographic, chemical, 
# crystal, experimental, refinement or atomic coordinate data resulting 
# from the CCDC's data processing and validation procedures.
#
#######################################################################

data_DAMRAM
_symmetry_cell_setting           monoclinic
_symmetry_space_group_name_H-M   'P 21/c'
_symmetry_Int_Tables_number      14
_space_group_name_Hall           '-P 2ybc'
loop_
_symmetry_equiv_pos_site_id
_symmetry_equiv_pos_as_xyz
1 x,y,z
2 -x,1/2+y,1/2-z
3 -x,-y,-z
4 x,1/2-y,1/2+z
_cell_length_a                   10.8620(11)
_cell_length_b                   21.225(2)
_cell_length_c                   13.8575(14)
_cell_angle_alpha                90
_cell_angle_beta                 96.1050(10)
_cell_angle_gamma                90
_cell_volume                     3176.67
loop_
_atom_site_label
_atom_site_type_symbol
_atom_site_fract_x
_atom_site_fract_y
_atom_site_fract_z
Pb1 Pb 1.24158(4) 0.08777(2) 0.49270(3)
Pb2 Pb 0.86649(4) 0.09091(2) 0.38868(4)
Pb3 Pb 1.37479(5) -0.10412(2) 0.42588(4)
S1 S 1.1360(6) -0.4223(3) 0.3707(5)
P1 P 1.0417(3) -0.03238(14) 0.3752(2)
P2 P 1.5175(3) 0.02240(14) 0.3603(2)
O1 O 1.0799(7) 0.0358(3) 0.3637(6)
O2 O 0.9086(7) -0.0365(4) 0.3989(6)
O3 O 1.1363(8) -0.0684(4) 0.4418(6)
O4 O 0.9558(9) -0.3421(4) 0.0554(7)
O5 O 0.7925(9) -0.3273(5) 0.1372(8)
O6 O 1.5625(8) -0.0455(4) 0.3605(7)
O7 O 1.6107(8) 0.0663(4) 0.4180(7)
O8 O 1.3887(8) 0.0253(4) 0.3885(7)
O9 O 1.2786(9) 0.3084(5) 0.0911(8)
O10 O 1.4508(8) 0.3276(4) 0.0240(7)
O11 O 1.3419(10) -0.3062(5) 0.7345(9)
H1 H 1.3243 -0.2672 0.7321
O12 O 1.2011(14) -0.4667(8) 0.3473(13)
O13 O 1.0942(13) -0.3717(6) 0.2988(10)
O14 O 1.0263(13) -0.4467(7) 0.4029(11)
O15 O 1.2446(10) -0.1909(5) 0.5046(8)
O16 O 1.2656(11) -0.2044(5) 0.6637(10)
N1 N 0.9657(8) -0.1224(4) 0.2319(7)
H6 H 0.8874 -0.1134 0.2428
N2 N 1.4448(10) 0.1043(4) 0.2003(8)
H7 H 1.3634 0.0966 0.2010
C1 C 1.0439(12) -0.0654(5) 0.2541(8)
H8 H 1.0172 -0.0333 0.2077
H9 H 1.1277 -0.0761 0.2449
C2 C 1.0101(12) -0.1782(5) 0.2946(9)
H10 H 1.0967 -0.1848 0.2896
H11 H 0.9999 -0.1697 0.3613
C3 C 0.9407(12) -0.2365(5) 0.2613(9)
H12 H 0.8542 -0.2302 0.2668
H13 H 0.9686 -0.2717 0.3013
C4 C 0.9564(13) -0.2508(5) 0.1560(9)
H14 H 1.0434 -0.2529 0.1495
C5 C 0.9028(13) -0.1959(5) 0.0947(9)
H15 H 0.8171 -0.1919 0.1048
H16 H 0.9076 -0.2040 0.0270
C6 C 0.9699(13) -0.1353(5) 0.1259(9)
H17 H 0.9324 -0.1009 0.0885
H18 H 1.0545 -0.1387 0.1124
C7 C 0.8947(12) -0.3121(5) 0.1167(9)
C8 C 1.5141(13) 0.0459(6) 0.2313(9)
H19 H 1.4386 0.0225 0.2177
H20 H 1.5523 0.0205 0.1856
C9 C 1.4657(13) 0.1156(6) 0.0953(10)
H21 H 1.4365 0.0798 0.0573
H22 H 1.5529 0.1199 0.0910
C10 C 1.4012(13) 0.1756(6) 0.0564(10)
H23 H 1.3134 0.1704 0.0565
H24 H 1.4187 0.1829 -0.0091
C11 C 1.4412(14) 0.2330(6) 0.1188(10)
H25 H 1.5297 0.2360 0.1214
C12 C 1.4101(13) 0.2190(6) 0.2191(10)
H26 H 1.4321 0.2545 0.2604
H27 H 1.3221 0.2132 0.2162
C13 C 1.4728(14) 0.1605(6) 0.2602(10)
H28 H 1.5607 0.1673 0.2667
H29 H 1.4482 0.1526 0.3236
C14 C 1.3854(14) 0.2938(6) 0.0755(10)
C15 C 1.2594(14) -0.2205(7) 0.5789(13)
C16 C 1.2673(13) -0.2935(7) 0.5642(11)
C17 C 1.3127(14) -0.3308(7) 0.6443(12)
C18 C 1.3201(14) -0.3962(7) 0.6353(12)
H30 H 1.3593 -0.4210 0.6878
C19 C 1.2728(13) -0.4228(7) 0.5510(12)
H31 H 1.2732 -0.4678 0.5452
C20 C 1.2222(13) -0.3879(7) 0.4735(11)
C21 C 1.2254(13) -0.3252(7) 0.4788(11)
H32 H 1.1966 -0.3008 0.4226
Pb1B Pb 0.75842(4) -0.08777(2) 0.50730(3)
Pb1A Pb 0.75842(4) -0.41223(2) 0.00730(3)
Pb1C Pb 1.24158(4) 0.41223(2) -0.00730(3)
Pb2B Pb 1.13351(4) -0.09091(2) 0.61132(4)
Pb2A Pb 1.13351(4) -0.40909(2) 0.11132(4)
Pb3B Pb 1.62521(5) 0.10412(2) 0.57412(4)
Pb3A Pb 1.62521(5) 0.39588(2) 0.07412(4)
O2B O 1.0914(7) 0.0365(4) 0.6011(6)
O3B O 0.8637(8) 0.0684(4) 0.5582(6)
O4A O 1.0442(9) 0.1579(4) 0.4446(7)
O5A O 1.2075(9) 0.1727(5) 0.3628(8)
O7B O 1.3893(8) -0.0663(4) 0.5820(7)
O9C O 1.2786(9) 0.1916(5) 0.5911(8)
O10A O 1.5492(8) -0.1724(4) 0.4760(7)
O17 O 0.2089(9) 0.4392(5) 0.6946(8)
H2 H 0.2100 0.4748 0.6667
H3 H 0.1432 0.4196 0.6737
O18 O 0.2886(10) 0.0938(5) 0.7857(8)
H4 H 0.2982 0.0972 0.8472
H5 H 0.2502 0.0598 0.7697
loop_
_geom_bond_atom_site_label_1
_geom_bond_atom_site_label_2
_geom_bond_site_symmetry_1
_geom_bond_site_symmetry_2
Pb1 O1 1_555 1_555
Pb2 O1 1_555 1_555
Pb3 O3 1_555 1_555
S1 O12 1_555 1_555
P1 O1 1_555 1_555
P2 O6 1_555 1_555
O2 Pb2 1_555 1_555
O3 P1 1_555 1_555
O4 C7 1_555 1_555
O5 C7 1_555 1_555
O6 Pb3 1_555 1_555
O7 P2 1_555 1_555
O8 Pb1 1_555 1_555
O9 C14 1_555 1_555
O10 C14 1_555 1_555
O11 H1 1_555 1_555
O13 S1 1_555 1_555
O14 S1 1_555 1_555
O15 Pb3 1_555 1_555
O16 C15 1_555 1_555
O17 H2 1_555 1_555
H3 O17 1_555 1_555
O18 H4 1_555 1_555
H5 O18 1_555 1_555
N1 H6 1_555 1_555
N2 H7 1_555 1_555
C1 P1 1_555 1_555
H8 C1 1_555 1_555
H9 C1 1_555 1_555
C2 N1 1_555 1_555
H10 C2 1_555 1_555
H11 C2 1_555 1_555
C3 C2 1_555 1_555
H12 C3 1_555 1_555
H13 C3 1_555 1_555
C4 C3 1_555 1_555
H14 C4 1_555 1_555
C5 C4 1_555 1_555
H15 C5 1_555 1_555
H16 C5 1_555 1_555
C6 N1 1_555 1_555
H17 C6 1_555 1_555
H18 C6 1_555 1_555
C7 C4 1_555 1_555
C8 P2 1_555 1_555
H19 C8 1_555 1_555
H20 C8 1_555 1_555
C9 N2 1_555 1_555
H21 C9 1_555 1_555
H22 C9 1_555 1_555
C10 C9 1_555 1_555
H23 C10 1_555 1_555
H24 C10 1_555 1_555
C11 C10 1_555 1_555
H25 C11 1_555 1_555
C12 C11 1_555 1_555
H26 C12 1_555 1_555
H27 C12 1_555 1_555
C13 N2 1_555 1_555
H28 C13 1_555 1_555
H29 C13 1_555 1_555
C14 C11 1_555 1_555
C15 O15 1_555 1_555
C16 C15 1_555 1_555
C17 O11 1_555 1_555
C18 C17 1_555 1_555
H30 C18 1_555 1_555
C19 C18 1_555 1_555
H31 C19 1_555 1_555
C20 S1 1_555 1_555
C21 C16 1_555 1_555
H32 C21 1_555 1_555
Pb1B O2 1_555 1_555
Pb1A O4 1_555 1_555
Pb1C O9 1_555 1_555
Pb2B O3 1_555 1_555
Pb2A O4 1_555 1_555
Pb3B O7 1_555 1_555
Pb3A O10 1_555 1_555
O2B Pb1 1_555 1_555
O3B Pb2 1_555 1_555
O4A Pb1 1_555 1_555
O5A Pb1 1_555 1_555
O7B Pb3 1_555 1_555
O9C Pb1 1_555 1_555
O10A Pb3 1_555 1_555
Pb2 O4A 1_555 1_555
P1 O2 1_555 1_555
P2 O8 1_555 1_555
O5 Pb1A 1_555 1_555
N1 C1 1_555 1_555
N2 C8 1_555 1_555
C5 C6 1_555 1_555
C12 C13 1_555 1_555
C16 C17 1_555 1_555
C19 C20 1_555 1_555
C20 C21 1_555 1_555
Pb2B O2B 1_555 1_555

#END
