
#######################################################################
#
#                 Cambridge Crystallographic Data Centre
#                                CCDC 
#
#######################################################################
#
# If this CIF has been generated from an entry in the Cambridge 
# Structural Database, then it will include bibliographic, chemical, 
# crystal, experimental, refinement or atomic coordinate data resulting 
# from the CCDC's data processing and validation procedures.
#
#######################################################################

data_DAMVES
_symmetry_cell_setting           orthorhombic
_symmetry_space_group_name_H-M   'P c 21 n'
_symmetry_Int_Tables_number      33
_space_group_name_Hall           'P -2n -2ac'
loop_
_symmetry_equiv_pos_site_id
_symmetry_equiv_pos_as_xyz
1 x,y,z
2 1/2+x,1/2+y,1/2-z
3 1/2-x,y,1/2+z
4 -x,1/2+y,-z
_cell_length_a                   8.149(2)
_cell_length_b                   11.460(4)
_cell_length_c                   15.956(3)
_cell_angle_alpha                90
_cell_angle_beta                 90
_cell_angle_gamma                90
_cell_volume                     1490.09
loop_
_atom_site_label
_atom_site_type_symbol
_atom_site_fract_x
_atom_site_fract_y
_atom_site_fract_z
Au1 Au 0.4626(1) 0.0000 0.5236(1)
Au2 Au 0.5524(1) 0.2519(1) 0.5292(1)
I1 I 0.6648(2) -0.0522(2) 0.6410(1)
I2 I 0.2505(3) 0.0516(2) 0.4107(1)
S1 S 0.7608(9) 0.1912(6) 0.4417(4)
S2 S 0.3673(8) 0.3128(6) 0.6320(4)
C1 C 0.6711(40) 0.1723(29) 0.3347(19)
C2 C 0.7995(36) 0.2295(28) 0.2800(18)
C3 C 0.8456(36) 0.3457(26) 0.3201(18)
C4 C 0.8923(37) 0.3164(27) 0.4075(18)
C5 C 0.2892(35) 0.1843(28) 0.6901(18)
C6 C 0.1127(41) 0.1629(20) 0.6502(19)
C7 C 0.0432(40) 0.2797(32) 0.6318(21)
C8 C 0.1772(36) 0.3444(27) 0.5773(17)
H1 H 0.6438 0.0910 0.3187
H2 H 0.5589 0.2110 0.3276
H3 H 0.8984 0.1762 0.2763
H4 H 0.7589 0.2403 0.2214
H5 H 0.9383 0.3836 0.2888
H6 H 0.7530 0.4016 0.3175
H7 H 0.8755 0.3862 0.4443
H8 H 1.0118 0.2961 0.4105
H9 H 0.3636 0.1149 0.6829
H10 H 0.2845 0.1979 0.7512
H11 H 0.1222 0.1108 0.5997
H12 H 0.0432 0.1175 0.6917
H13 H -0.0615 0.2674 0.5986
H14 H 0.0160 0.3203 0.6831
H15 H 0.1540 0.4304 0.5722
H16 H 0.1795 0.3199 0.5165
Au2C Au 0.4476(1) -0.2481(1) 0.4708(1)
Au1C Au 0.5374(1) 0.5000 0.4764(1)
Au1C_2 Au 0.5374(1) -0.5000 0.4764(1)
S1C S 0.2392(9) -0.3088(6) 0.5583(4)
S2C S 0.6327(8) -0.1872(6) 0.3680(4)
Au2C_2 Au 0.4476(1) 0.7519(1) 0.4708(1)
I1C I 0.3352(2) 0.4478(2) 0.3590(1)
I2C I 0.7495(3) 0.5516(2) 0.5893(1)
C1C C 0.3289(40) -0.3277(29) 0.6653(19)
C4C C 0.1077(37) -0.1836(27) 0.5925(18)
C5C C 0.7108(35) -0.3157(28) 0.3099(18)
C8C C 0.8228(36) -0.1556(27) 0.4227(17)
C2C C 0.2005(36) -0.2705(28) 0.7200(18)
H1C H 0.3562 -0.4090 0.6813
H2C H 0.4411 -0.2890 0.6724
C3C C 0.1544(36) -0.1543(26) 0.6799(18)
H7C H 0.1245 -0.1138 0.5557
H8C H -0.0118 -0.2039 0.5895
C6C C 0.8873(41) -0.3371(20) 0.3498(19)
H9C H 0.6364 -0.3851 0.3171
H10C H 0.7155 -0.3021 0.2488
C7C C 0.9568(40) -0.2203(32) 0.3682(21)
H15C H 0.8460 -0.0696 0.4278
H16C H 0.8205 -0.1801 0.4835
H3C H 0.1016 -0.3238 0.7237
H4C H 0.2411 -0.2597 0.7786
H5C H 0.0617 -0.1164 0.7112
H6C H 0.2470 -0.0984 0.6825
H11C H 0.8778 -0.3892 0.4003
H12C H 0.9568 -0.3825 0.3083
H13C H 1.0615 -0.2326 0.4014
H14C H 0.9840 -0.1797 0.3169
loop_
_geom_bond_atom_site_label_1
_geom_bond_atom_site_label_2
_geom_bond_site_symmetry_1
_geom_bond_site_symmetry_2
Au1 Au2 1_555 1_555
Au2 S1 1_555 1_555
I1 Au1 1_555 1_555
I2 Au1 1_555 1_555
S1 C1 1_555 1_555
S2 Au2 1_555 1_555
C1 C2 1_555 1_555
C2 C3 1_555 1_555
C3 C4 1_555 1_555
C4 S1 1_555 1_555
C5 S2 1_555 1_555
C6 C5 1_555 1_555
C7 C6 1_555 1_555
C8 S2 1_555 1_555
H1 C1 1_555 1_555
H2 C1 1_555 1_555
H3 C2 1_555 1_555
H4 C2 1_555 1_555
H5 C3 1_555 1_555
H6 C3 1_555 1_555
H7 C4 1_555 1_555
H8 C4 1_555 1_555
H9 C5 1_555 1_555
H10 C5 1_555 1_555
H11 C6 1_555 1_555
H12 C6 1_555 1_555
H13 C7 1_555 1_555
H14 C7 1_555 1_555
H15 C8 1_555 1_555
H16 C8 1_555 1_555
Au2C Au1 1_555 1_555
Au1C Au2 1_555 1_555
Au1C_2 Au2C 1_555 1_555
S1C Au2C 1_555 1_555
S2C Au2C 1_555 1_555
Au2C_2 Au1C 1_555 1_555
I1C Au1C 1_555 1_555
I2C Au1C 1_555 1_555
C1C S1C 1_555 1_555
C4C S1C 1_555 1_555
C5C S2C 1_555 1_555
C8C S2C 1_555 1_555
C2C C1C 1_555 1_555
H1C C1C 1_555 1_555
H2C C1C 1_555 1_555
C3C C4C 1_555 1_555
H7C C4C 1_555 1_555
H8C C4C 1_555 1_555
C6C C5C 1_555 1_555
H9C C5C 1_555 1_555
H10C C5C 1_555 1_555
C7C C8C 1_555 1_555
H15C C8C 1_555 1_555
H16C C8C 1_555 1_555
H3C C2C 1_555 1_555
H4C C2C 1_555 1_555
H5C C3C 1_555 1_555
H6C C3C 1_555 1_555
H11C C6C 1_555 1_555
H12C C6C 1_555 1_555
H13C C7C 1_555 1_555
H14C C7C 1_555 1_555
C7 C8 1_555 1_555
C2C C3C 1_555 1_555
C6C C7C 1_555 1_555

#END
