
#######################################################################
#
#                 Cambridge Crystallographic Data Centre
#                                CCDC 
#
#######################################################################
#
# If this CIF has been generated from an entry in the Cambridge 
# Structural Database, then it will include bibliographic, chemical, 
# crystal, experimental, refinement or atomic coordinate data resulting 
# from the CCDC's data processing and validation procedures.
#
#######################################################################

data_DAMZEW
_symmetry_cell_setting           monoclinic
_symmetry_space_group_name_H-M   'C 2/m'
_symmetry_Int_Tables_number      12
_space_group_name_Hall           '-C 2y'
loop_
_symmetry_equiv_pos_site_id
_symmetry_equiv_pos_as_xyz
1 x,y,z
2 1/2+x,1/2+y,z
3 -x,y,-z
4 1/2-x,1/2+y,-z
5 -x,-y,-z
6 1/2-x,1/2-y,-z
7 x,-y,z
8 1/2+x,1/2-y,z
_cell_length_a                   13.626(2)
_cell_length_b                   15.322(2)
_cell_length_c                   7.908(1)
_cell_angle_alpha                90
_cell_angle_beta                 95.89(1)
_cell_angle_gamma                90
_cell_volume                     1642.3
loop_
_atom_site_label
_atom_site_type_symbol
_atom_site_fract_x
_atom_site_fract_y
_atom_site_fract_z
Cu1 Cu 0.00000 0.00000 0.00000
Cu2 Cu 0.33337(4) 0.00000 -0.17117(8)
N1 N 0.1249(3) 0.0000 -0.0635(7)
N2 N 0.3549(2) 0.0858(2) -0.3705(3)
C1 C 0.4603(3) 0.0000 -0.0338(5)
C2 C 0.2046(3) 0.0000 -0.1006(7)
C3 C 0.3593(2) 0.1745(2) -0.3590(4)
C4 C 0.3502(3) 0.2134(3) -0.1979(5)
C5 C 0.3562(4) 0.3019(3) -0.1810(7)
C6 C 0.3697(4) 0.3553(3) -0.3213(8)
C7 C 0.3778(3) 0.3197(3) -0.4756(7)
C8 C 0.3741(2) 0.2286(2) -0.4987(5)
C9 C 0.3863(3) 0.1863(3) -0.6535(5)
C10 C 0.3830(3) 0.0975(5) -0.6648(4)
C11 C 0.3676(2) 0.0483(2) -0.5184(4)
N1B N -0.1249(3) 0.0000 0.0635(7)
N2F N 0.3549(2) -0.0858(2) -0.3705(3)
C1B C 0.5397(3) 0.0000 0.0338(5)
C11F C 0.3676(2) -0.0483(2) -0.5184(4)
loop_
_geom_bond_atom_site_label_1
_geom_bond_atom_site_label_2
_geom_bond_site_symmetry_1
_geom_bond_site_symmetry_2
Cu1 N1 1_555 1_555
Cu2 N2 1_555 1_555
N1 C2 1_555 1_555
N2 C3 1_555 1_555
C1 Cu2 1_555 1_555
C2 Cu2 1_555 1_555
C3 C4 1_555 1_555
C4 C5 1_555 1_555
C5 C6 1_555 1_555
C6 C7 1_555 1_555
C7 C8 1_555 1_555
C8 C3 1_555 1_555
C9 C8 1_555 1_555
C10 C9 1_555 1_555
C11 N2 1_555 1_555
N1B Cu1 1_555 1_555
N2F Cu2 1_555 1_555
C1B C1 1_555 1_555
C11F C11 1_555 1_555
C10 C11 1_555 1_555
N2F C11F 1_555 1_555

#END
