
#######################################################################
#
#                 Cambridge Crystallographic Data Centre
#                                CCDC 
#
#######################################################################
#
# If this CIF has been generated from an entry in the Cambridge 
# Structural Database, then it will include bibliographic, chemical, 
# crystal, experimental, refinement or atomic coordinate data resulting 
# from the CCDC's data processing and validation procedures.
#
#######################################################################

data_DANFII
_symmetry_cell_setting           tetragonal
_symmetry_space_group_name_H-M   'I 4 c m'
_symmetry_Int_Tables_number      108
_space_group_name_Hall           'I 4 -2c'
loop_
_symmetry_equiv_pos_site_id
_symmetry_equiv_pos_as_xyz
1 x,y,z
2 -x,-y,z
3 -y,x,z
4 y,-x,z
5 x,-y,1/2+z
6 -x,y,1/2+z
7 -y,-x,1/2+z
8 y,x,1/2+z
9 1/2+x,1/2+y,1/2+z
10 1/2-x,1/2-y,1/2+z
11 1/2-y,1/2+x,1/2+z
12 1/2+y,1/2-x,1/2+z
13 1/2+x,1/2-y,z
14 1/2-x,1/2+y,z
15 1/2-y,1/2-x,z
16 1/2+y,1/2+x,z
_cell_length_a                   29.6755(4)
_cell_length_b                   29.6755(4)
_cell_length_c                   6.98570(10)
_cell_angle_alpha                90
_cell_angle_beta                 90
_cell_angle_gamma                90
_cell_volume                     6151.85
loop_
_atom_site_label
_atom_site_type_symbol
_atom_site_fract_x
_atom_site_fract_y
_atom_site_fract_z
I3 I 0.5000 0.5000 1.028(2)
Cl1 Cl 0.5849(3) 0.0849(3) 1.4908(12)
O6 O 0.5449(3) 0.0449(3) 1.199(2)
O7 O 0.6790(3) 0.1790(3) 1.508(2)
O10 O 0.6085(5) 0.1085(5) 1.807(2)
Cu1 Cu 0.61885(3) 0.27198(3) 1.05794(16)
I1 I 0.719464(15) 0.335656(14) 1.02885(9)
I2 I 0.700073(16) 0.200073(16) 0.97249(12)
O1 O 0.66477(19) 0.3186(2) 1.1182(10)
O2 O 0.65710(18) 0.22064(19) 1.1380(8)
O3 O 0.7434(2) 0.3473(2) 1.2618(9)
O4 O 0.7082(2) 0.39109(19) 0.9444(11)
O5 O 0.74220(18) 0.24220(18) 1.0113(17)
N1 N 0.5619(2) 0.2357(2) 1.0803(9)
N2 N 0.5752(2) 0.3189(2) 0.9748(11)
C1 C 0.5593(3) 0.1928(3) 1.1360(15)
H1 H 0.5857 0.1768 1.1584
C2 C 0.5173(3) 0.1711(3) 1.1617(16)
H2 H 0.5153 0.1409 1.1966
C3 C 0.4798(3) 0.1967(4) 1.1328(17)
H3 H 0.4516 0.1837 1.1521
C4 C 0.4818(3) 0.2399(3) 1.0777(13)
H4 H 0.4556 0.2567 1.0599
C5 C 0.5240(2) 0.2588(3) 1.0480(13)
C6 C 0.5308(2) 0.3061(3) 0.9836(13)
C7 C 0.4969(3) 0.3360(3) 0.9324(15)
H5 H 0.4668 0.3274 0.9410
C8 C 0.5077(4) 0.3770(4) 0.8712(19)
H6 H 0.4849 0.3971 0.8391
C9 C 0.5530(4) 0.3904(3) 0.854(2)
H7 H 0.5607 0.4187 0.8064
C10 C 0.5859(3) 0.3598(3) 0.9109(16)
H8 H 0.6161 0.3681 0.9041
O2O O 0.72064(19) 0.15710(18) 1.1380(8)
I1F I 0.664344(14) 0.280536(15) 0.52885(9)
O1F O 0.6814(2) 0.33523(19) 0.6182(10)
O3F O 0.6527(2) 0.2566(2) 0.7618(9)
O4F O 0.60891(19) 0.2918(2) 0.4444(11)
Cu1F Cu 0.72802(3) 0.38115(3) 0.55794(16)
Cu1O Cu 0.77198(3) 0.11885(3) 1.05794(16)
Cu1F_2 Cu 0.72802(3) 0.38115(3) 1.55794(16)
I2F I 0.799927(16) 0.299927(16) 0.47249(12)
O2F O 0.77936(19) 0.34290(18) 0.6380(8)
O5F O 0.75780(18) 0.25780(18) 0.5113(17)
O2I O 0.84290(18) 0.27936(19) 0.6380(8)
I1_2 I 0.719464(15) 0.335656(14) 0.02885(9)
O1_2 O 0.66477(19) 0.3186(2) 0.1182(10)
O3_2 O 0.7434(2) 0.3473(2) 0.2618(9)
O4_2 O 0.7082(2) 0.39109(19) -0.0556(11)
N1F N 0.7643(2) 0.4381(2) 0.5803(9)
N2F N 0.6811(2) 0.4248(2) 0.4748(11)
C1F C 0.8072(3) 0.4407(3) 0.6360(15)
H1F H 0.8232 0.4143 0.6584
C2F C 0.8289(3) 0.4827(3) 0.6617(16)
H2F H 0.8591 0.4847 0.6966
C3F C 0.8033(4) 0.5202(3) 0.6328(17)
H3F H 0.8163 0.5484 0.6521
C4F C 0.7601(3) 0.5182(3) 0.5777(13)
H4F H 0.7433 0.5444 0.5599
C5F C 0.7412(3) 0.4760(2) 0.5480(13)
C6F C 0.6939(3) 0.4692(2) 0.4836(13)
C7F C 0.6640(3) 0.5031(3) 0.4324(15)
H5F H 0.6726 0.5332 0.4410
C8F C 0.6230(4) 0.4923(4) 0.3712(19)
H6F H 0.6029 0.5151 0.3391
C9F C 0.6096(3) 0.4470(4) 0.354(2)
H7F H 0.5813 0.4393 0.3064
C10F C 0.6402(3) 0.4141(3) 0.4109(16)
H8F H 0.6319 0.3839 0.4041
I1O I 0.835656(14) 0.219464(15) 1.02885(9)
O1O O 0.8186(2) 0.16477(19) 1.1182(10)
O3O O 0.8473(2) 0.2434(2) 1.2618(9)
O4O O 0.89109(19) 0.2082(2) 0.9444(11)
N1O N 0.7357(2) 0.0619(2) 1.0803(9)
N2O N 0.8189(2) 0.0752(2) 0.9748(11)
C1O C 0.6928(3) 0.0593(3) 1.1360(15)
H1O H 0.6768 0.0857 1.1584
C2O C 0.6711(3) 0.0173(3) 1.1617(16)
H2O H 0.6409 0.0153 1.1966
C3O C 0.6967(4) -0.0202(3) 1.1328(17)
H3O H 0.6837 -0.0484 1.1521
C4O C 0.7399(3) -0.0182(3) 1.0777(13)
H4O H 0.7567 -0.0444 1.0599
C5O C 0.7588(3) 0.0240(2) 1.0480(13)
C6O C 0.8061(3) 0.0308(2) 0.9836(13)
C7O C 0.8360(3) -0.0031(3) 0.9324(15)
H5O H 0.8274 -0.0332 0.9410
C8O C 0.8770(4) 0.0077(4) 0.8712(19)
H6O H 0.8971 -0.0151 0.8391
C9O C 0.8904(3) 0.0530(4) 0.854(2)
H7O H 0.9187 0.0607 0.8064
C10O C 0.8598(3) 0.0859(3) 0.9109(16)
H8O H 0.8681 0.1161 0.9041
N1F_2 N 0.7643(2) 0.4381(2) 1.5803(9)
N2F_2 N 0.6811(2) 0.4248(2) 1.4748(11)
C1F_2 C 0.8072(3) 0.4407(3) 1.6360(15)
H1F_2 H 0.8232 0.4143 1.6584
C2F_2 C 0.8289(3) 0.4827(3) 1.6617(16)
H2F_2 H 0.8591 0.4847 1.6966
C3F_2 C 0.8033(4) 0.5202(3) 1.6328(17)
H3F_2 H 0.8163 0.5484 1.6521
C4F_2 C 0.7601(3) 0.5182(3) 1.5777(13)
H4F_2 H 0.7433 0.5444 1.5599
C5F_2 C 0.7412(3) 0.4760(2) 1.5480(13)
C6F_2 C 0.6939(3) 0.4692(2) 1.4836(13)
C7F_2 C 0.6640(3) 0.5031(3) 1.4324(15)
H5F_2 H 0.6726 0.5332 1.4410
C8F_2 C 0.6230(4) 0.4923(4) 1.3712(19)
H6F_2 H 0.6029 0.5151 1.3391
C9F_2 C 0.6096(3) 0.4470(4) 1.354(2)
H7F_2 H 0.5813 0.4393 1.3064
C10F_2 C 0.6402(3) 0.4141(3) 1.4109(16)
H8F_2 H 0.6319 0.3839 1.4041
O3I O 0.7566(2) 0.1527(2) 0.7618(9)
O1F_2 O 0.6814(2) 0.33523(19) 1.6182(10)
O2F_2 O 0.77936(19) 0.34290(18) 1.6380(8)
Cu1I Cu 0.88115(3) 0.22802(3) 0.55794(16)
Cu1_2 Cu 0.61885(3) 0.27198(3) 0.05794(16)
Cu1I_2 Cu 0.88115(3) 0.22802(3) 1.55794(16)
I4? I 0.5000 0.5000 0.6870(18)
I5? I 0.5000 0.5000 0.861(4)
Cl2? Cl 0.5817(5) 0.0817(5) 1.5583(16)
O8? O 0.6426(5) 0.1426(5) 1.493(3)
O9? O 0.62717(19) 0.12717(19) 1.8218(12)
loop_
_geom_bond_atom_site_label_1
_geom_bond_atom_site_label_2
_geom_bond_site_symmetry_1
_geom_bond_site_symmetry_2
Cu1 O1 1_555 1_555
I1 O1 1_555 1_555
I2 O2 1_555 1_555
O2 Cu1 1_555 1_555
O3 I1 1_555 1_555
O4 I1 1_555 1_555
O5 I2 1_555 1_555
N1 Cu1 1_555 1_555
N2 Cu1 1_555 1_555
C1 N1 1_555 1_555
H1 C1 1_555 1_555
C2 C1 1_555 1_555
H2 C2 1_555 1_555
C3 C2 1_555 1_555
H3 C3 1_555 1_555
C4 C3 1_555 1_555
H4 C4 1_555 1_555
C5 N1 1_555 1_555
C6 N2 1_555 1_555
C7 C6 1_555 1_555
H5 C7 1_555 1_555
C8 C7 1_555 1_555
H6 C8 1_555 1_555
C9 C8 1_555 1_555
H7 C9 1_555 1_555
C10 N2 1_555 1_555
H8 C10 1_555 1_555
O2O I2 1_555 1_555
I1F O1F 1_555 1_555
O1F Cu1F 1_555 1_555
O3F Cu1 1_555 1_555
O4F I1F 1_555 1_555
Cu1F O2F 1_555 1_555
Cu1O O2O 1_555 1_555
Cu1F_2 O3 1_555 1_555
I2F O2F 1_555 1_555
O5F I2F 1_555 1_555
O2I I2F 1_555 1_555
I1_2 O1_2 1_555 1_555
O1_2 Cu1_2 1_555 1_555
O3_2 Cu1F 1_555 1_555
O4_2 I1_2 1_555 1_555
N1F Cu1F 1_555 1_555
N2F Cu1F 1_555 1_555
C1F N1F 1_555 1_555
H1F C1F 1_555 1_555
C2F C1F 1_555 1_555
H2F C2F 1_555 1_555
C3F C2F 1_555 1_555
H3F C3F 1_555 1_555
C4F C3F 1_555 1_555
H4F C4F 1_555 1_555
C5F N1F 1_555 1_555
C6F N2F 1_555 1_555
C7F C6F 1_555 1_555
H5F C7F 1_555 1_555
C8F C7F 1_555 1_555
H6F C8F 1_555 1_555
C9F C8F 1_555 1_555
H7F C9F 1_555 1_555
C10F N2F 1_555 1_555
H8F C10F 1_555 1_555
I1O O1O 1_555 1_555
O1O Cu1O 1_555 1_555
O3O I1O 1_555 1_555
O4O I1O 1_555 1_555
N1O Cu1O 1_555 1_555
N2O Cu1O 1_555 1_555
C1O N1O 1_555 1_555
H1O C1O 1_555 1_555
C2O C1O 1_555 1_555
H2O C2O 1_555 1_555
C3O C2O 1_555 1_555
H3O C3O 1_555 1_555
C4O C3O 1_555 1_555
H4O C4O 1_555 1_555
C5O N1O 1_555 1_555
C6O N2O 1_555 1_555
C7O C6O 1_555 1_555
H5O C7O 1_555 1_555
C8O C7O 1_555 1_555
H6O C8O 1_555 1_555
C9O C8O 1_555 1_555
H7O C9O 1_555 1_555
C10O N2O 1_555 1_555
H8O C10O 1_555 1_555
N1F_2 Cu1F_2 1_555 1_555
N2F_2 Cu1F_2 1_555 1_555
C1F_2 N1F_2 1_555 1_555
H1F_2 C1F_2 1_555 1_555
C2F_2 C1F_2 1_555 1_555
H2F_2 C2F_2 1_555 1_555
C3F_2 C2F_2 1_555 1_555
H3F_2 C3F_2 1_555 1_555
C4F_2 C3F_2 1_555 1_555
H4F_2 C4F_2 1_555 1_555
C5F_2 N1F_2 1_555 1_555
C6F_2 N2F_2 1_555 1_555
C7F_2 C6F_2 1_555 1_555
H5F_2 C7F_2 1_555 1_555
C8F_2 C7F_2 1_555 1_555
H6F_2 C8F_2 1_555 1_555
C9F_2 C8F_2 1_555 1_555
H7F_2 C9F_2 1_555 1_555
C10F_2 N2F_2 1_555 1_555
H8F_2 C10F_2 1_555 1_555
O3I Cu1O 1_555 1_555
O1F_2 Cu1F_2 1_555 1_555
O2F_2 Cu1F_2 1_555 1_555
Cu1I O2I 1_555 1_555
Cu1I_2 O3O 1_555 1_555
C4 C5 1_555 1_555
C5 C6 1_555 1_555
C9 C10 1_555 1_555
I1F O3F 1_555 1_555
I1_2 O3_2 1_555 1_555
C4F C5F 1_555 1_555
C5F C6F 1_555 1_555
C9F C10F 1_555 1_555
C4O C5O 1_555 1_555
C5O C6O 1_555 1_555
C9O C10O 1_555 1_555
C4F_2 C5F_2 1_555 1_555
C5F_2 C6F_2 1_555 1_555
C9F_2 C10F_2 1_555 1_555

#END
