
#######################################################################
#
#                 Cambridge Crystallographic Data Centre
#                                CCDC 
#
#######################################################################
#
# If this CIF has been generated from an entry in the Cambridge 
# Structural Database, then it will include bibliographic, chemical, 
# crystal, experimental, refinement or atomic coordinate data resulting 
# from the CCDC's data processing and validation procedures.
#
#######################################################################

data_DANLEJ
_symmetry_cell_setting           monoclinic
_symmetry_space_group_name_H-M   'C 2/m'
_symmetry_Int_Tables_number      12
_space_group_name_Hall           '-C 2y'
loop_
_symmetry_equiv_pos_site_id
_symmetry_equiv_pos_as_xyz
1 x,y,z
2 -x,y,-z
3 1/2+x,1/2+y,z
4 1/2-x,1/2+y,-z
5 -x,-y,-z
6 x,-y,z
7 1/2-x,1/2-y,-z
8 1/2+x,1/2-y,z
_cell_length_a                   16.816(3)
_cell_length_b                   16.018(3)
_cell_length_c                   11.902(2)
_cell_angle_alpha                90
_cell_angle_beta                 122.50(3)
_cell_angle_gamma                90
_cell_volume                     2703.83
loop_
_atom_site_label
_atom_site_type_symbol
_atom_site_fract_x
_atom_site_fract_y
_atom_site_fract_z
La1 La 0.10987(1) -2.00000 0.43705(2)
O1 O 0.0242(2) -1.0969(2) 0.6927(2)
O2 O 0.1091(2) -1.0917(2) 0.6002(2)
N1 N 0.2276(2) -1.3452(1) 0.8743(2)
C1 C 0.0861(2) -1.1229(2) 0.6740(3)
C2 C 0.1382(2) -1.2016(2) 0.7484(3)
C3 C 0.2117(2) -1.2317(2) 0.7392(3)
C4 C 0.2553(2) -1.3051(2) 0.8035(3)
C5 C 0.1111(2) -1.2448(2) 0.8231(3)
C6 C 0.1569(2) -1.3175(2) 0.8854(3)
C7 C 0.2770(2) -1.4242(2) 0.9447(3)
C8 C 0.2276(3) -1.5000 0.8584(4)
O3 O 0.0806(2) -2.0000 0.2027(3)
O4 O 0.2823(2) -2.0000 0.6150(4)
O5 O 0.1852(2) -1.8662(1) 0.4140(3)
H1 H 0.2319 -1.2019 0.6889
H2 H 0.3057 -1.3275 0.7971
H3 H 0.0612 -1.2240 0.8320
H4 H 0.1384 -1.3488 0.9364
H5 H 0.3409 -1.4229 0.9665
H6 H 0.2785 -1.4287 1.0263
H7 H 0.1623 -1.5000 0.8299
H8 H 0.2319 -1.5000 0.7811
H9 H 0.0496 -1.9564 0.1385
H10 H 0.3022 -2.0000 0.7086
H11 H 0.3311 -2.0000 0.6091
H12 H 0.2436 -1.8519 0.4681
H13 H 0.1612 -1.8134 0.4037
C7E C 0.2770(2) -1.5758(2) 0.9447(3)
N1E N 0.2276(2) -1.6548(1) 0.8743(2)
C4E C 0.2553(2) -1.6949(2) 0.8035(3)
C3E C 0.2117(2) -1.7683(2) 0.7392(3)
C2E C 0.1382(2) -1.7984(2) 0.7484(3)
C1E C 0.0861(2) -1.8771(2) 0.6740(3)
O1E O 0.0242(2) -1.9031(2) 0.6927(2)
O2E O 0.1091(2) -1.9083(2) 0.6002(2)
C5E C 0.1111(2) -1.7552(2) 0.8231(3)
C6E C 0.1569(2) -1.6825(2) 0.8854(3)
H4E H 0.1384 -1.6512 0.9364
H3E H 0.0612 -1.7760 0.8320
H1E H 0.2319 -1.7981 0.6889
H2E H 0.3057 -1.6725 0.7971
H5E H 0.3409 -1.5771 0.9665
H6E H 0.2785 -1.5713 1.0263
O1D O -0.0242(2) -1.9031(2) 0.3073(2)
La1A La -0.10987(1) -2.00000 0.56295(2)
La1_2 La 0.10987(1) -1.00000 0.43705(2)
La1A_2 La -0.10987(1) -1.00000 0.56295(2)
O1A O -0.0242(2) -2.0969(2) 0.3073(2)
O2_2 O 0.1091(2) -2.0917(2) 0.6002(2)
O5E O 0.1852(2) -2.1338(1) 0.4140(3)
H9E H 0.0496 -2.0436 0.1385
H12E H 0.2436 -2.1481 0.4681
H13E H 0.1612 -2.1866 0.4037
O6 O 0.1323(2) 0.2992(2) 0.4023(3)
H14 H 0.1018 0.3262 0.3253
H15 H 0.0915 0.3099 0.4290
O7 O 0.5567(4) 0.1526(5) 0.1498(5)
H16 H 0.5250 0.1040 0.1591
H17 H 0.6042 0.1286 0.1405
O8 O 0.4514(8) 0.0000 0.6257(12)
Cl1 Cl 0.0000 0.1516(1) 0.0000
Cl2 Cl 0.5000 0.1509(1) 0.5000
Cl3 Cl 0.3479(2) 0.0000 0.9156(2)
O9? O 0.3894(9) 0.0000 0.5127(15)
loop_
_geom_bond_atom_site_label_1
_geom_bond_atom_site_label_2
_geom_bond_site_symmetry_1
_geom_bond_site_symmetry_2
La1 O3 1_555 1_555
O1 C1 1_555 1_555
O2 C1 1_555 1_555
N1 C4 1_555 1_555
C1 C2 1_555 1_555
C2 C3 1_555 1_555
C3 C4 1_555 1_555
C4 H2 1_555 1_555
C5 C2 1_555 1_555
C6 N1 1_555 1_555
C7 N1 1_555 1_555
C8 C7 1_555 1_555
O3 H9 1_555 1_555
O4 La1 1_555 1_555
O5 La1 1_555 1_555
O6 H14 1_555 1_555
O7 H16 1_555 1_555
H1 C3 1_555 1_555
H3 C5 1_555 1_555
H4 C6 1_555 1_555
H5 C7 1_555 1_555
H6 C7 1_555 1_555
H7 C8 1_555 1_555
H8 C8 1_555 1_555
H10 O4 1_555 1_555
H11 O4 1_555 1_555
H12 O5 1_555 1_555
H13 O5 1_555 1_555
H15 O6 1_555 1_555
H17 O7 1_555 1_555
C7E C8 1_555 1_555
N1E C7E 1_555 1_555
C4E N1E 1_555 1_555
C3E C4E 1_555 1_555
C2E C3E 1_555 1_555
C1E C2E 1_555 1_555
O1E C1E 1_555 1_555
O2E La1 1_555 1_555
C5E C2E 1_555 1_555
C6E N1E 1_555 1_555
H4E C6E 1_555 1_555
H3E C5E 1_555 1_555
H1E C3E 1_555 1_555
H2E C4E 1_555 1_555
H5E C7E 1_555 1_555
H6E C7E 1_555 1_555
O1D La1 1_555 1_555
La1A O1E 1_555 1_555
La1_2 O2 1_555 1_555
La1A_2 O1 1_555 1_555
O1A La1 1_555 1_555
O2_2 La1 1_555 1_555
O5E La1 1_555 1_555
H9E O3 1_555 1_555
H12E O5E 1_555 1_555
H13E O5E 1_555 1_555
C5 C6 1_555 1_555
C1E O2E 1_555 1_555
C5E C6E 1_555 1_555

#END
