
#######################################################################
#
#                 Cambridge Crystallographic Data Centre
#                                CCDC 
#
#######################################################################
#
# If this CIF has been generated from an entry in the Cambridge 
# Structural Database, then it will include bibliographic, chemical, 
# crystal, experimental, refinement or atomic coordinate data resulting 
# from the CCDC's data processing and validation procedures.
#
#######################################################################

data_DANMIP
_symmetry_cell_setting           orthorhombic
_symmetry_space_group_name_H-M   'P 21 21 21'
_symmetry_Int_Tables_number      19
_space_group_name_Hall           'P 2ac 2ab'
loop_
_symmetry_equiv_pos_site_id
_symmetry_equiv_pos_as_xyz
1 x,y,z
2 1/2-x,-y,1/2+z
3 -x,1/2+y,1/2-z
4 1/2+x,1/2-y,-z
_cell_length_a                   8.286(2)
_cell_length_b                   8.546(2)
_cell_length_c                   17.309(4)
_cell_angle_alpha                90
_cell_angle_beta                 90
_cell_angle_gamma                90
_cell_volume                     1225.69
loop_
_atom_site_label
_atom_site_type_symbol
_atom_site_fract_x
_atom_site_fract_y
_atom_site_fract_z
Cu1 Cu 0.02128(4) 0.36659(4) 0.37229(2)
N1 N 0.1687(3) 0.1874(3) 0.35340(14)
N2 N -0.1300(3) 0.5364(3) 0.3952(2)
N3 N -0.3581(3) 0.6637(4) 0.4032(2)
O1 O 0.1863(3) 0.4277(3) 0.44749(14)
O2 O 0.3871(4) 0.3306(4) 0.5170(2)
O3 O -0.1223(3) 0.2630(3) 0.29871(15)
O4 O -0.1459(3) 0.0404(3) 0.2339(2)
C1 C 0.2964(4) 0.2183(5) 0.2949(2)
C2 C 0.4277(5) 0.0982(6) 0.3127(3)
C3 C 0.4224(5) 0.0838(5) 0.4004(2)
C4 C 0.2623(4) 0.1602(3) 0.4251(2)
C5 C 0.2829(4) 0.3174(4) 0.4669(2)
C6 C 0.0619(4) 0.0577(3) 0.3296(2)
C7 C -0.0786(3) 0.1238(4) 0.2827(2)
C8 C -0.2889(4) 0.5270(4) 0.3859(2)
C9 C -0.2398(5) 0.7674(4) 0.4234(3)
C10 C -0.0987(4) 0.6868(4) 0.4190(3)
H1 H 0.3415(64) 0.3041(68) 0.2980(32)
H2 H 0.2588(74) 0.2124(73) 0.2411(36)
H3 H 0.3910(68) -0.0125(61) 0.2934(30)
H4 H 0.5280(80) 0.1503(80) 0.3008(44)
H5 H 0.5021(64) 0.1364(65) 0.4159(43)
H6 H 0.4241(64) -0.0328(62) 0.4168(30)
H7 H 0.2022(66) 0.0951(67) 0.4572(39)
H8 H 0.0292(64) 0.0053(69) 0.3751(33)
H9 H 0.1118(67) -0.0332(64) 0.3017(31)
H10 H -0.3448(48) 0.4504(51) 0.3631(27)
H11 H -0.2730(81) 0.8839(84) 0.4297(47)
H12 H 0.0031(54) 0.7189(54) 0.4247(29)
H15 H -0.4585(55) 0.6837(54) 0.3920(25)
O4B O 0.1459(3) 0.5404(3) 0.2661(2)
Cu1B Cu -0.02128(4) -0.13341(4) 0.12771(2)
O5 O -0.6834(3) 0.6958(4) 0.3805(2)
H13 H -0.7220(65) 0.6105(66) 0.4136(34)
H14 H -0.7032(70) 0.6364(72) 0.3377(43)
loop_
_geom_bond_atom_site_label_1
_geom_bond_atom_site_label_2
_geom_bond_site_symmetry_1
_geom_bond_site_symmetry_2
Cu1 N1 1_555 1_555
N1 C1 1_555 1_555
N2 Cu1 1_555 1_555
N3 C8 1_555 1_555
O1 Cu1 1_555 1_555
O2 C5 1_555 1_555
O3 Cu1 1_555 1_555
O4 C7 1_555 1_555
C1 C2 1_555 1_555
C2 C3 1_555 1_555
C3 C4 1_555 1_555
C4 N1 1_555 1_555
C5 O1 1_555 1_555
C6 N1 1_555 1_555
C7 O3 1_555 1_555
C8 N2 1_555 1_555
C9 N3 1_555 1_555
C10 N2 1_555 1_555
O5 H13 1_555 1_555
H1 C1 1_555 1_555
H2 C1 1_555 1_555
H3 C2 1_555 1_555
H4 C2 1_555 1_555
H5 C3 1_555 1_555
H6 C3 1_555 1_555
H7 C4 1_555 1_555
H8 C6 1_555 1_555
H9 C6 1_555 1_555
H10 C8 1_555 1_555
H11 C9 1_555 1_555
H12 C10 1_555 1_555
H14 O5 1_555 1_555
H15 N3 1_555 1_555
O4B Cu1 1_555 1_555
Cu1B O4 1_555 1_555
C4 C5 1_555 1_555
C6 C7 1_555 1_555
C9 C10 1_555 1_555

#END
