
#######################################################################
#
#                 Cambridge Crystallographic Data Centre
#                                CCDC 
#
#######################################################################
#
# If this CIF has been generated from an entry in the Cambridge 
# Structural Database, then it will include bibliographic, chemical, 
# crystal, experimental, refinement or atomic coordinate data resulting 
# from the CCDC's data processing and validation procedures.
#
#######################################################################

data_DAPCOM01
_symmetry_cell_setting           monoclinic
_symmetry_space_group_name_H-M   'C 2'
_symmetry_Int_Tables_number      5
_space_group_name_Hall           'C 2y'
loop_
_symmetry_equiv_pos_site_id
_symmetry_equiv_pos_as_xyz
1 x,y,z
2 -x,y,-z
3 1/2+x,1/2+y,z
4 1/2-x,1/2+y,-z
_cell_length_a                   12.271(3)
_cell_length_b                   7.392(2)
_cell_length_c                   6.478(2)
_cell_angle_alpha                90
_cell_angle_beta                 120.40(2)
_cell_angle_gamma                90
_cell_volume                     506.814
loop_
_atom_site_label
_atom_site_type_symbol
_atom_site_fract_x
_atom_site_fract_y
_atom_site_fract_z
Fe1 Fe 0.5000 0.133 1.0000
O1 O 0.6824(2) 0.1385(9) 1.0474(3)
N1 N 0.5510(3) -0.0770(4) 1.2649(5)
N2 N 0.6262(2) -0.3670(8) 1.4773(4)
N3 N 0.5592(3) 0.3421(4) 1.2634(5)
C1 C 0.7246(2) 0.1229(7) 0.8808(4)
C2 C 0.5889(2) -0.2126(4) 1.3569(4)
C3 C 0.5826(3) 0.4842(5) 1.3585(5)
H1 H 0.7451 0.1342 1.1986
H2 H 0.6459 0.1299 0.7171
H3 H 0.7818 0.2590 0.9200
H4 H 0.7770 0.0215 0.9174
O1A O 0.3176(2) 0.1385(9) 0.9526(3)
N1A N 0.4490(3) -0.0770(4) 0.7351(5)
N3A N 0.4408(3) 0.3421(4) 0.7366(5)
C3_2 C 0.5826(3) -0.5158(5) 1.3585(5)
N2_2 N 0.6262(2) 0.6330(8) 1.4773(4)
C1A C 0.2754(2) 0.1229(7) 1.1192(4)
H1A H 0.2549 0.1342 0.8014
H2A H 0.3541 0.1299 1.2829
H3A H 0.2182 0.2590 1.0800
H4A H 0.2230 0.0215 1.0826
N3_2 N 0.5592(3) -0.6579(4) 1.2634(5)
Fe1_2 Fe 0.5000 -0.867 1.0000
C2_2 C 0.5889(2) 0.7874(4) 1.3569(4)
N1_2 N 0.5510(3) 0.9230(4) 1.2649(5)
Fe1_3 Fe 0.5000 1.133 1.0000
loop_
_geom_bond_atom_site_label_1
_geom_bond_atom_site_label_2
_geom_bond_site_symmetry_1
_geom_bond_site_symmetry_2
Fe1 O1 1_555 1_555
O1 C1 1_555 1_555
N1 Fe1 1_555 1_555
N2 C2 1_555 1_555
N3 Fe1 1_555 1_555
C1 H2 1_555 1_555
C2 N1 1_555 1_555
C3 N3 1_555 1_555
H1 O1 1_555 1_555
H3 C1 1_555 1_555
H4 C1 1_555 1_555
O1A Fe1 1_555 1_555
N1A Fe1 1_555 1_555
N3A Fe1 1_555 1_555
C3_2 N2 1_555 1_555
N2_2 C3 1_555 1_555
C1A O1A 1_555 1_555
H1A O1A 1_555 1_555
H2A C1A 1_555 1_555
H3A C1A 1_555 1_555
H4A C1A 1_555 1_555
N3_2 C3_2 1_555 1_555
Fe1_2 N3_2 1_555 1_555
C2_2 N2_2 1_555 1_555
N1_2 C2_2 1_555 1_555
Fe1_3 N1_2 1_555 1_555

#END
