
#######################################################################
#
#                 Cambridge Crystallographic Data Centre
#                                CCDC 
#
#######################################################################
#
# If this CIF has been generated from an entry in the Cambridge 
# Structural Database, then it will include bibliographic, chemical, 
# crystal, experimental, refinement or atomic coordinate data resulting 
# from the CCDC's data processing and validation procedures.
#
#######################################################################

data_DAPHOR
_symmetry_cell_setting           monoclinic
_symmetry_space_group_name_H-M   'P 21/c'
_symmetry_Int_Tables_number      14
_space_group_name_Hall           '-P 2ybc'
loop_
_symmetry_equiv_pos_site_id
_symmetry_equiv_pos_as_xyz
1 x,y,z
2 -x,1/2+y,1/2-z
3 -x,-y,-z
4 x,1/2-y,1/2+z
_cell_length_a                   10.452(2)
_cell_length_b                   16.841(2)
_cell_length_c                   10.454(3)
_cell_angle_alpha                90
_cell_angle_beta                 108.69(2)
_cell_angle_gamma                90
_cell_volume                     1743.1
loop_
_atom_site_label
_atom_site_type_symbol
_atom_site_fract_x
_atom_site_fract_y
_atom_site_fract_z
Cu1 Cu -0.20952(4) 0.49731(2) 0.17851(4)
S1 S -0.4970(1) 0.22915(6) 0.27098(9)
O1 O -0.3418(2) 0.4134(2) 0.1510(2)
O2 O -0.2806(3) 0.3513(2) 0.3500(3)
O3 O -0.6732(2) 0.0927(1) 0.2713(2)
O4 O -0.8054(3) 0.1046(2) 0.0565(2)
O5 O -0.1165(2) 0.4705(2) 0.3693(2)
N1 N -0.2634(3) 0.5132(2) -0.0228(3)
N2 N -0.0575(3) 0.5697(2) 0.1744(3)
C1 C -0.4733(3) 0.3077(2) 0.1776(3)
C2 C -0.5713(4) 0.3118(2) 0.0556(3)
C3 C -0.6657(4) 0.2500(2) 0.0365(3)
C4 C -0.6382(3) 0.1999(2) 0.1442(3)
C5 C -0.3554(4) 0.3613(2) 0.2325(4)
C6 C -0.7121(3) 0.1270(2) 0.1583(3)
C7 C -0.3706(4) 0.4861(2) -0.1185(4)
C8 C -0.3938(4) 0.5036(3) -0.2540(4)
C9 C -0.3064(4) 0.5493(3) -0.2924(4)
C10 C -0.0923(4) 0.6279(3) -0.2215(4)
C11 C 0.0131(4) 0.6570(3) -0.1198(5)
C12 C 0.1328(4) 0.6702(3) 0.1280(5)
C13 C 0.1401(4) 0.6484(3) 0.2559(5)
C14 C 0.0434(4) 0.5980(3) 0.2753(4)
C15 C -0.0643(3) 0.5906(2) 0.0475(3)
C16 C -0.1765(3) 0.5602(2) -0.0594(3)
C17 C -0.1917(4) 0.5790(2) -0.1938(4)
C18 C 0.0290(4) 0.6408(2) 0.0183(4)
H1 H -0.5756 0.3519 -0.0095
H2 H -0.7408 0.2438 -0.0431
H3 H -0.4336 0.4538 -0.0940
H4 H -0.4719 0.4832 -0.3203
H5 H -0.3225 0.5612 -0.3851
H6 H -0.1002 0.6403 -0.3124
H7 H 0.0784 0.6890 -0.1410
H8 H 0.1983 0.7052 0.1139
H9 H 0.2112 0.6677 0.3312
H10 H 0.0498 0.5833 0.3649
H11 H -0.1611 0.4224 0.3810
H12 H -0.1615 0.5151 0.4228
O3A O -0.3268(2) 0.5927(1) 0.2287(2)
Cu1A Cu -0.79048(4) -0.00269(2) 0.32149(4)
loop_
_geom_bond_atom_site_label_1
_geom_bond_atom_site_label_2
_geom_bond_site_symmetry_1
_geom_bond_site_symmetry_2
Cu1 O1 1_555 1_555
S1 C1 1_555 1_555
O1 C5 1_555 1_555
O2 C5 1_555 1_555
O3 C6 1_555 1_555
O4 C6 1_555 1_555
O5 Cu1 1_555 1_555
N1 Cu1 1_555 1_555
N2 Cu1 1_555 1_555
C1 C2 1_555 1_555
C2 C3 1_555 1_555
C3 C4 1_555 1_555
C4 S1 1_555 1_555
C5 C1 1_555 1_555
C6 C4 1_555 1_555
C7 N1 1_555 1_555
C8 C7 1_555 1_555
C9 C8 1_555 1_555
C10 C11 1_555 1_555
C11 C18 1_555 1_555
C12 C13 1_555 1_555
C13 C14 1_555 1_555
C14 N2 1_555 1_555
C15 N2 1_555 1_555
C16 N1 1_555 1_555
C17 C9 1_555 1_555
C18 C12 1_555 1_555
H1 C2 1_555 1_555
H2 C3 1_555 1_555
H3 C7 1_555 1_555
H4 C8 1_555 1_555
H5 C9 1_555 1_555
H6 C10 1_555 1_555
H7 C11 1_555 1_555
H8 C12 1_555 1_555
H9 C13 1_555 1_555
H10 C14 1_555 1_555
H11 O5 1_555 1_555
H12 O5 1_555 1_555
O3A Cu1 1_555 1_555
Cu1A O3 1_555 1_555
C10 C17 1_555 1_555
C15 C16 1_555 1_555
C15 C18 1_555 1_555
C16 C17 1_555 1_555

#END
