
#######################################################################
#
#                 Cambridge Crystallographic Data Centre
#                                CCDC 
#
#######################################################################
#
# If this CIF has been generated from an entry in the Cambridge 
# Structural Database, then it will include bibliographic, chemical, 
# crystal, experimental, refinement or atomic coordinate data resulting 
# from the CCDC's data processing and validation procedures.
#
#######################################################################

data_DAPPAN
_symmetry_cell_setting           rhombohedral
_symmetry_space_group_name_H-M   'R -3'
_symmetry_Int_Tables_number      148
_space_group_name_Hall           '-R 3'
loop_
_symmetry_equiv_pos_site_id
_symmetry_equiv_pos_as_xyz
1 x,y,z
2 -y,x-y,z
3 -x+y,-x,z
4 2/3+x,1/3+y,1/3+z
5 2/3-y,1/3+x-y,1/3+z
6 2/3-x+y,1/3-x,1/3+z
7 1/3+x,2/3+y,2/3+z
8 1/3-y,2/3+x-y,2/3+z
9 1/3-x+y,2/3-x,2/3+z
10 -x,-y,-z
11 y,-x+y,-z
12 x-y,x,-z
13 1/3-x,2/3-y,2/3-z
14 1/3+y,2/3-x+y,2/3-z
15 1/3+x-y,2/3+x,2/3-z
16 2/3-x,1/3-y,1/3-z
17 2/3+y,1/3-x+y,1/3-z
18 2/3+x-y,1/3+x,1/3-z
_cell_length_a                   16.687(2)
_cell_length_b                   16.687(2)
_cell_length_c                   38.706(6)
_cell_angle_alpha                90
_cell_angle_beta                 90
_cell_angle_gamma                120
_cell_volume                     9333.95
loop_
_atom_site_label
_atom_site_type_symbol
_atom_site_fract_x
_atom_site_fract_y
_atom_site_fract_z
C1 C 0.9874(4) 0.3421(4) 0.08996(14)
H1 H 1.0157 0.3382 0.1113
H2 H 0.9900 0.4015 0.0897
C2 C 1.0427(3) 0.3388(3) 0.06056(11)
C3 C 1.0311(3) 0.3671(4) 0.02808(13)
C4 C 1.0851(4) 0.3683(4) 0.00051(10)
H3 H 1.0774 0.3872 -0.0212
C5 C 1.1505(4) 0.3410(4) 0.00543(12)
H4 H 1.1866 0.3418 -0.0130
C6 C 1.1621(3) 0.3127(4) 0.03790(15)
H5 H 1.2059 0.2945 0.0412
C7 C 1.1081(4) 0.3116(3) 0.06547(11)
H6 H 1.1159 0.2926 0.0872
C8 C 0.8729(4) 0.0511(4) 0.12530(18)
H7 H 0.9153 0.0423 0.1108
H8 H 0.8105 0.0111 0.1169
C9 C 0.8714(4) 0.1759(4) 0.09082(14)
H9 H 0.9058 0.1677 0.0723
H10 H 0.8061 0.1348 0.0863
C10 C 0.8316(4) 0.2889(5) 0.11179(18)
H11 H 0.7674 0.2431 0.1075
H12 H 0.8402 0.3487 0.1051
C11 C 0.8809(4) 0.0269(4) 0.1623(2)
H13 H 0.9441 0.0649 0.1703
H14 H 0.8648 -0.0375 0.1638
C12 C 0.6222(3) 0.0505(3) 0.15141(13)
C13 C 0.5512(3) -0.0249(3) 0.12817(13)
C14 C 0.5697(3) -0.0311(4) 0.09407(14)
H15 H 0.6269 0.0115 0.0848
C15 C 0.5038(4) -0.1003(4) 0.07328(14)
H16 H 0.5169 -0.1027 0.0501
C16 C 0.4190(3) -0.1660(3) 0.08642(13)
C17 C 0.4022(3) -0.1607(3) 0.12110(14)
H17 H 0.3470 -0.2062 0.1308
C18 C 0.4651(3) -0.0897(4) 0.14164(13)
H18 H 0.4503 -0.0849 0.1644
C19 C 0.3462(3) -0.2438(3) 0.06448(14)
H19 H 0.2879 -0.2444 0.0664
H20 H 0.3650 -0.2333 0.0404
F1 F 0.9705(4) 0.3930(4) 0.02313(13)
N1 N 0.8953(3) 0.1477(3) 0.12380(10)
H21 H 0.9575 0.1835 0.1267
N2 N 0.8894(3) 0.2682(4) 0.08990(12)
N3 N 0.8490(3) 0.2905(3) 0.14893(11)
H22 H 0.9081 0.3361 0.1532
N4 N 0.3333 -0.3333 0.07554(17)
Ni1 Ni 0.8333 0.1667 0.1667
O1 O 0.7049(2) 0.0891(2) 0.14063(9)
O2 O 0.5949(2) 0.0686(3) 0.17848(10)
C1O C 0.6793(4) -0.0088(4) 0.24337(14)
C1A C -0.3421(4) -0.3547(6) 0.08996(14)
C1P C 0.0088(4) -0.3120(6) 0.24337(14)
C1B C 0.3547(6) -0.9874(4) 0.08996(14)
C1Q C 0.3120(6) -0.6793(4) 0.24337(14)
H1O H 0.6510 -0.0049 0.2220
H1A H -0.3382 -0.3225 0.1113
H1P H 0.0049 -0.3442 0.2220
H1B H 0.3225 -1.0157 0.1113
H1Q H 0.3442 -0.6510 0.2220
H2O H 0.6767 -0.0682 0.2436
H2A H -0.4015 -0.4115 0.0897
H2P H 0.0682 -0.2552 0.2436
H2B H 0.4115 -0.9900 0.0897
H2Q H 0.2552 -0.6767 0.2436
C2O C 0.6240(3) -0.0055(3) 0.27277(11)
C2A C -0.3388(3) -0.2961(4) 0.06056(11)
C2P C 0.0055(3) -0.3706(4) 0.27277(11)
C2B C 0.2961(4) -1.0427(3) 0.06056(11)
C2Q C 0.3706(4) -0.6240(3) 0.27277(11)
C3O C 0.6356(3) -0.0338(4) 0.30525(13)
C3A C -0.3671(4) -0.3360(5) 0.02808(13)
C3P C 0.0338(4) -0.3307(5) 0.30525(13)
C3B C 0.3360(5) -1.0311(3) 0.02808(13)
C3Q C 0.3307(5) -0.6356(3) 0.30525(13)
C4O C 0.5816(4) -0.0350(4) 0.33282(10)
C4A C -0.3683(4) -0.2832(6) 0.00051(10)
C4P C 0.0350(4) -0.3835(6) 0.33282(10)
C4B C 0.2832(6) -1.0851(4) 0.00051(10)
C4Q C 0.3835(6) -0.5816(4) 0.33282(10)
H3O H 0.5893 -0.0539 0.3545
H3A H -0.3872 -0.3098 -0.0212
H3P H 0.0539 -0.3569 0.3545
H3B H 0.3098 -1.0774 -0.0212
H3Q H 0.3569 -0.5893 0.3545
C5O C 0.5162(4) -0.0077(4) 0.32790(12)
C5A C -0.3410(4) -0.1905(6) 0.00543(12)
C5P C 0.0077(4) -0.4762(6) 0.32790(12)
C5B C 0.1905(6) -1.1505(4) 0.00543(12)
C5Q C 0.4762(6) -0.5162(4) 0.32790(12)
H4O H 0.4801 -0.0085 0.3463
H4A H -0.3418 -0.1552 -0.0130
H4P H 0.0085 -0.5115 0.3463
H4B H 0.1552 -1.1866 -0.0130
H4Q H 0.5115 -0.4801 0.3463
C6O C 0.5046(3) 0.0206(4) 0.29543(15)
C6A C -0.3127(4) -0.1506(5) 0.03790(15)
C6P C -0.0206(4) -0.5161(5) 0.29543(15)
C6B C 0.1506(5) -1.1621(3) 0.03790(15)
C6Q C 0.5161(5) -0.5046(3) 0.29543(15)
H5O H 0.4608 0.0388 0.2921
H5A H -0.2945 -0.0886 0.0412
H5P H -0.0388 -0.5781 0.2921
H5B H 0.0886 -1.2059 0.0412
H5Q H 0.5781 -0.4608 0.2921
C7O C 0.5586(4) 0.0217(3) 0.26786(11)
C7A C -0.3116(3) -0.2035(5) 0.06547(11)
C7P C -0.0217(3) -0.4632(5) 0.26786(11)
C7B C 0.2035(5) -1.1081(4) 0.06547(11)
C7Q C 0.4632(5) -0.5586(4) 0.26786(11)
H6O H 0.5508 0.0407 0.2461
H6A H -0.2926 -0.1767 0.0872
H6P H -0.0407 -0.4900 0.2461
H6B H 0.1767 -1.1159 0.0872
H6Q H 0.4900 -0.5508 0.2461
C8O C 0.7938(4) 0.2822(4) 0.20803(18)
C8A C -0.0511(4) -0.1782(6) 0.12530(18)
C8P C -0.2822(4) -0.4885(6) 0.20803(18)
C8B C 0.1782(6) -0.8729(4) 0.12530(18)
C8Q C 0.4885(6) -0.7938(4) 0.20803(18)
H7O H 0.7514 0.2910 0.2225
H7A H -0.0423 -0.1270 0.1108
H7P H -0.2910 -0.5397 0.2225
H7B H 0.1270 -0.9153 0.1108
H7Q H 0.5397 -0.7514 0.2225
H8O H 0.8562 0.3222 0.2164
H8A H -0.0111 -0.2006 0.1169
H8P H -0.3222 -0.4661 0.2164
H8B H 0.2006 -0.8105 0.1169
H8Q H 0.4661 -0.8562 0.2164
C9O C 0.7953(4) 0.1574(4) 0.24251(14)
C9A C -0.1759(4) -0.3045(6) 0.09082(14)
C9P C -0.1574(4) -0.3622(6) 0.24251(14)
C9B C 0.3045(6) -0.8714(4) 0.09082(14)
C9Q C 0.3622(6) -0.7953(4) 0.24251(14)
H9O H 0.7609 0.1656 0.2610
H9A H -0.1677 -0.2619 0.0723
H9P H -0.1656 -0.4048 0.2610
H9B H 0.2619 -0.9058 0.0723
H9Q H 0.4048 -0.7609 0.2610
H10O H 0.8606 0.1985 0.2470
H10A H -0.1348 -0.3287 0.0863
H10P H -0.1985 -0.3380 0.2470
H10B H 0.3287 -0.8061 0.0863
H10Q H 0.3380 -0.8606 0.2470
C10O C 0.8351(4) 0.0444(5) 0.22154(18)
C10A C -0.2889(5) -0.4573(6) 0.11179(18)
C10P C -0.0444(5) -0.2094(6) 0.22154(18)
C10B C 0.4573(6) -0.8316(4) 0.11179(18)
C10Q C 0.2094(6) -0.8351(4) 0.22154(18)
H11O H 0.8993 0.0902 0.2258
H11A H -0.2431 -0.4757 0.1075
H11P H -0.0902 -0.1910 0.2258
H11B H 0.4757 -0.7674 0.1075
H11Q H 0.1910 -0.8993 0.2258
H12O H 0.8265 -0.0154 0.2282
H12A H -0.3487 -0.5085 0.1051
H12P H 0.0154 -0.1582 0.2282
H12B H 0.5085 -0.8402 0.1051
H12Q H 0.1582 -0.8265 0.2282
C11O C 0.7858(4) 0.3064(4) 0.1710(2)
C11A C -0.0269(4) -0.1460(6) 0.1623(2)
C11P C -0.3064(4) -0.5207(6) 0.1710(2)
C11B C 0.1460(6) -0.8809(4) 0.1623(2)
C11Q C 0.5207(6) -0.7858(4) 0.1710(2)
H13O H 0.7226 0.2684 0.1630
H13A H -0.0649 -0.1208 0.1703
H13P H -0.2684 -0.5459 0.1630
H13B H 0.1208 -0.9441 0.1703
H13Q H 0.5459 -0.7226 0.1630
H14O H 0.8019 0.3708 0.1695
H14A H 0.0375 -0.0977 0.1638
H14P H -0.3708 -0.5690 0.1695
H14B H 0.0977 -0.8648 0.1638
H14Q H 0.5690 -0.8019 0.1695
C12A C -0.0505(3) -0.4283(4) 0.15141(13)
C12B C 0.4283(4) -0.6222(3) 0.15141(13)
C12O C 1.0445(3) 0.2828(3) 0.18192(13)
C12P C 1.7172(3) 0.7616(4) 0.18192(13)
C12Q C 1.2384(4) 0.9555(3) 0.18192(13)
C13A C 0.0249(3) -0.4239(4) 0.12817(13)
C13B C 0.4239(4) -0.5512(3) 0.12817(13)
C13O C 1.1155(3) 0.3582(3) 0.20516(13)
C13P C 1.6418(3) 0.7572(4) 0.20516(13)
C13Q C 1.2428(4) 0.8845(3) 0.20516(13)
C14A C 0.0311(4) -0.3992(5) 0.09407(14)
C14B C 0.3992(5) -0.5697(3) 0.09407(14)
C14O C 1.0970(3) 0.3644(4) 0.23926(14)
C14P C 1.6356(4) 0.7325(5) 0.23926(14)
C14Q C 1.2675(5) 0.9030(3) 0.23926(14)
H15A H -0.0115 -0.3846 0.0848
H15B H 0.3846 -0.6269 0.0848
H15O H 1.0398 0.3218 0.2485
H15P H 1.6782 0.7179 0.2485
H15Q H 1.2821 0.9602 0.2485
C15A C 0.1003(4) -0.3959(6) 0.07328(14)
C15B C 0.3959(6) -0.5038(4) 0.07328(14)
C15O C 1.1629(4) 0.4336(4) 0.26005(14)
C15P C 1.5664(4) 0.7292(6) 0.26005(14)
C15Q C 1.2708(6) 0.8371(4) 0.26005(14)
H16A H 0.1027 -0.3804 0.0501
H16B H 0.3804 -0.5169 0.0501
H16O H 1.1498 0.4360 0.2832
H16P H 1.5640 0.7137 0.2832
H16Q H 1.2863 0.8502 0.2832
C16A C 0.1660(3) -0.4150(4) 0.08642(13)
C16B C 0.4150(4) -0.4190(3) 0.08642(13)
C16O C 1.2477(3) 0.4993(3) 0.24691(13)
C16P C 1.5007(3) 0.7483(4) 0.24691(13)
C16Q C 1.2517(4) 0.7523(3) 0.24691(13)
C17A C 0.1607(3) -0.4371(4) 0.12110(14)
C17B C 0.4371(4) -0.4022(3) 0.12110(14)
C17O C 1.2645(3) 0.4940(3) 0.21223(14)
C17P C 1.5060(3) 0.7704(4) 0.21223(14)
C17Q C 1.2296(4) 0.7355(3) 0.21223(14)
H17A H 0.2062 -0.4468 0.1308
H17B H 0.4468 -0.3470 0.1308
H17O H 1.3197 0.5395 0.2025
H17P H 1.4605 0.7801 0.2025
H17Q H 1.2199 0.6803 0.2025
C18A C 0.0897(4) -0.4452(5) 0.14164(13)
C18B C 0.4452(5) -0.4651(3) 0.14164(13)
C18O C 1.2016(3) 0.4230(4) 0.19169(13)
C18P C 1.5770(4) 0.7785(5) 0.19169(13)
C18Q C 1.2215(5) 0.7984(3) 0.19169(13)
H18A H 0.0849 -0.4648 0.1644
H18B H 0.4648 -0.4503 0.1644
H18O H 1.2164 0.4182 0.1689
H18P H 1.5818 0.7981 0.1689
H18Q H 1.2019 0.7836 0.1689
C19A C 0.2438(3) -0.4100(4) 0.06448(14)
C19B C 0.4100(4) -0.3462(3) 0.06448(14)
C19O C 1.3205(3) 0.5771(3) 0.26885(14)
C19P C 1.4229(3) 0.7433(4) 0.26885(14)
C19Q C 1.2567(4) 0.6795(3) 0.26885(14)
H19A H 0.2444 -0.4677 0.0664
H19B H 0.4677 -0.2879 0.0664
H19O H 1.3788 0.5777 0.2669
H19P H 1.4223 0.8010 0.2669
H19Q H 1.1990 0.6212 0.2669
H20A H 0.2333 -0.4017 0.0404
H20B H 0.4017 -0.3650 0.0404
H20O H 1.3017 0.5666 0.2929
H20P H 1.4334 0.7350 0.2929
H20Q H 1.2650 0.6983 0.2929
F1O F 0.6962(4) -0.0597(4) 0.31020(13)
F1A F -0.3930(4) -0.4225(6) 0.02313(13)
F1P F 0.0597(4) -0.2442(6) 0.31020(13)
F1B F 0.4225(6) -0.9705(4) 0.02313(13)
F1Q F 0.2442(6) -0.6962(4) 0.31020(13)
N1O N 0.7714(3) 0.1856(3) 0.20953(10)
N1A N -0.1477(3) -0.2524(4) 0.12380(10)
N1P N -0.1856(3) -0.4143(4) 0.20953(10)
N1B N 0.2524(4) -0.8953(3) 0.12380(10)
N1Q N 0.4143(4) -0.7714(3) 0.20953(10)
H21O H 0.7092 0.1498 0.2066
H21A H -0.1835 -0.2260 0.1267
H21P H -0.1498 -0.4407 0.2066
H21B H 0.2260 -0.9575 0.1267
H21Q H 0.4407 -0.7092 0.2066
N2O N 0.7773(3) 0.0651(4) 0.24343(12)
N2A N -0.2682(4) -0.3788(5) 0.08990(12)
N2P N -0.0651(4) -0.2879(5) 0.24343(12)
N2B N 0.3788(5) -0.8894(3) 0.08990(12)
N2Q N 0.2879(5) -0.7773(3) 0.24343(12)
N3O N 0.8177(3) 0.0428(3) 0.18440(11)
N3A N -0.2905(3) -0.4415(4) 0.14893(11)
N3P N -0.0428(3) -0.2252(4) 0.18440(11)
N3B N 0.4415(4) -0.8490(3) 0.14893(11)
N3Q N 0.2252(4) -0.8177(3) 0.18440(11)
H22O H 0.7586 -0.0028 0.1801
H22A H -0.3361 -0.4280 0.1532
H22P H 0.0028 -0.2387 0.1801
H22B H 0.4280 -0.9081 0.1532
H22Q H 0.2387 -0.7586 0.1801
N4O N 1.3334 0.6666 0.25779(17)
Ni1A Ni -0.1667 -0.3334 0.1667
Ni1B Ni 0.3334 -0.8333 0.1667
Ni1P Ni 1.8334 0.6667 0.1666
Ni1Q Ni 1.3333 1.1666 0.1666
O1A O -0.0891(2) -0.3842(3) 0.14063(9)
O1B O 0.3842(3) -0.7049(2) 0.14063(9)
O1O O 0.9618(2) 0.2442(2) 0.19270(9)
O1P O 1.7558(2) 0.7175(3) 0.19270(9)
O1Q O 1.2825(3) 1.0382(2) 0.19270(9)
O1P_2 O -0.2442(2) -0.2825(3) 0.19270(9)
O1Q_2 O 0.2825(3) -0.9618(2) 0.19270(9)
O2A O -0.0686(3) -0.4737(4) 0.17848(10)
O2B O 0.4737(4) -0.5949(2) 0.17848(10)
O2O O 1.0718(2) 0.2647(3) 0.15485(10)
O2P O 1.7353(3) 0.8070(4) 0.15485(10)
O2Q O 1.1930(4) 0.9282(2) 0.15485(10)
loop_
_geom_bond_atom_site_label_1
_geom_bond_atom_site_label_2
_geom_bond_site_symmetry_1
_geom_bond_site_symmetry_2
C1 H1 1_555 1_555
H2 C1 1_555 1_555
C2 C1 1_555 1_555
C3 C2 1_555 1_555
C4 C3 1_555 1_555
H3 C4 1_555 1_555
C5 C4 1_555 1_555
H4 C5 1_555 1_555
C6 C5 1_555 1_555
H5 C6 1_555 1_555
C7 C2 1_555 1_555
H6 C7 1_555 1_555
C8 H7 1_555 1_555
H8 C8 1_555 1_555
C9 H9 1_555 1_555
H10 C9 1_555 1_555
C10 H11 1_555 1_555
H12 C10 1_555 1_555
C11 C8 1_555 1_555
H13 C11 1_555 1_555
H14 C11 1_555 1_555
C12 C13 1_555 1_555
C13 C14 1_555 1_555
C14 H15 1_555 1_555
C15 C14 1_555 1_555
H16 C15 1_555 1_555
C16 C15 1_555 1_555
C17 C16 1_555 1_555
H17 C17 1_555 1_555
C18 C13 1_555 1_555
H18 C18 1_555 1_555
C19 C16 1_555 1_555
H19 C19 1_555 1_555
H20 C19 1_555 1_555
F1 C3 1_555 1_555
N1 C8 1_555 1_555
H21 N1 1_555 1_555
N2 C1 1_555 1_555
N3 C10 1_555 1_555
H22 N3 1_555 1_555
N4 C19 1_555 1_555
Ni1 N1 1_555 1_555
O1 C12 1_555 1_555
O2 C12 1_555 1_555
C1O H1O 1_555 1_555
C1A H1A 1_555 1_555
C1P H1P 1_555 1_555
C1B H1B 1_555 1_555
C1Q H1Q 1_555 1_555
H2O C1O 1_555 1_555
H2A C1A 1_555 1_555
H2P C1P 1_555 1_555
H2B C1B 1_555 1_555
H2Q C1Q 1_555 1_555
C2O C1O 1_555 1_555
C2A C1A 1_555 1_555
C2P C1P 1_555 1_555
C2B C1B 1_555 1_555
C2Q C1Q 1_555 1_555
C3O C2O 1_555 1_555
C3A C2A 1_555 1_555
C3P C2P 1_555 1_555
C3B C2B 1_555 1_555
C3Q C2Q 1_555 1_555
C4O C3O 1_555 1_555
C4A C3A 1_555 1_555
C4P C3P 1_555 1_555
C4B C3B 1_555 1_555
C4Q C3Q 1_555 1_555
H3O C4O 1_555 1_555
H3A C4A 1_555 1_555
H3P C4P 1_555 1_555
H3B C4B 1_555 1_555
H3Q C4Q 1_555 1_555
C5O C4O 1_555 1_555
C5A C4A 1_555 1_555
C5P C4P 1_555 1_555
C5B C4B 1_555 1_555
C5Q C4Q 1_555 1_555
H4O C5O 1_555 1_555
H4A C5A 1_555 1_555
H4P C5P 1_555 1_555
H4B C5B 1_555 1_555
H4Q C5Q 1_555 1_555
C6O C5O 1_555 1_555
C6A C5A 1_555 1_555
C6P C5P 1_555 1_555
C6B C5B 1_555 1_555
C6Q C5Q 1_555 1_555
H5O C6O 1_555 1_555
H5A C6A 1_555 1_555
H5P C6P 1_555 1_555
H5B C6B 1_555 1_555
H5Q C6Q 1_555 1_555
C7O C2O 1_555 1_555
C7A C2A 1_555 1_555
C7P C2P 1_555 1_555
C7B C2B 1_555 1_555
C7Q C2Q 1_555 1_555
H6O C7O 1_555 1_555
H6A C7A 1_555 1_555
H6P C7P 1_555 1_555
H6B C7B 1_555 1_555
H6Q C7Q 1_555 1_555
C8O H7O 1_555 1_555
C8A H7A 1_555 1_555
C8P H7P 1_555 1_555
C8B H7B 1_555 1_555
C8Q H7Q 1_555 1_555
H8O C8O 1_555 1_555
H8A C8A 1_555 1_555
H8P C8P 1_555 1_555
H8B C8B 1_555 1_555
H8Q C8Q 1_555 1_555
C9O H9O 1_555 1_555
C9A H9A 1_555 1_555
C9P H9P 1_555 1_555
C9B H9B 1_555 1_555
C9Q H9Q 1_555 1_555
H10O C9O 1_555 1_555
H10A C9A 1_555 1_555
H10P C9P 1_555 1_555
H10B C9B 1_555 1_555
H10Q C9Q 1_555 1_555
C10O H11O 1_555 1_555
C10A H11A 1_555 1_555
C10P H11P 1_555 1_555
C10B H11B 1_555 1_555
C10Q H11Q 1_555 1_555
H12O C10O 1_555 1_555
H12A C10A 1_555 1_555
H12P C10P 1_555 1_555
H12B C10B 1_555 1_555
H12Q C10Q 1_555 1_555
C11O N3 1_555 1_555
C11A C8A 1_555 1_555
C11P C8P 1_555 1_555
C11B C8B 1_555 1_555
C11Q C8Q 1_555 1_555
H13O C11O 1_555 1_555
H13A C11A 1_555 1_555
H13P C11P 1_555 1_555
H13B C11B 1_555 1_555
H13Q C11Q 1_555 1_555
H14O C11O 1_555 1_555
H14A C11A 1_555 1_555
H14P C11P 1_555 1_555
H14B C11B 1_555 1_555
H14Q C11Q 1_555 1_555
C12A C13A 1_555 1_555
C12B C13B 1_555 1_555
C12O C13O 1_555 1_555
C12P C13P 1_555 1_555
C12Q C13Q 1_555 1_555
C13A C14A 1_555 1_555
C13B C14B 1_555 1_555
C13O C14O 1_555 1_555
C13P C14P 1_555 1_555
C13Q C14Q 1_555 1_555
C14A H15A 1_555 1_555
C14B H15B 1_555 1_555
C14O H15O 1_555 1_555
C14P H15P 1_555 1_555
C14Q H15Q 1_555 1_555
C15A C14A 1_555 1_555
C15B C14B 1_555 1_555
C15O C14O 1_555 1_555
C15P C14P 1_555 1_555
C15Q C14Q 1_555 1_555
H16A C15A 1_555 1_555
H16B C15B 1_555 1_555
H16O C15O 1_555 1_555
H16P C15P 1_555 1_555
H16Q C15Q 1_555 1_555
C16A C15A 1_555 1_555
C16B C15B 1_555 1_555
C16O C15O 1_555 1_555
C16P C15P 1_555 1_555
C16Q C15Q 1_555 1_555
C17A C16A 1_555 1_555
C17B C16B 1_555 1_555
C17O C16O 1_555 1_555
C17P C16P 1_555 1_555
C17Q C16Q 1_555 1_555
H17A C17A 1_555 1_555
H17B C17B 1_555 1_555
H17O C17O 1_555 1_555
H17P C17P 1_555 1_555
H17Q C17Q 1_555 1_555
C18A C13A 1_555 1_555
C18B C13B 1_555 1_555
C18O C13O 1_555 1_555
C18P C13P 1_555 1_555
C18Q C13Q 1_555 1_555
H18A C18A 1_555 1_555
H18B C18B 1_555 1_555
H18O C18O 1_555 1_555
H18P C18P 1_555 1_555
H18Q C18Q 1_555 1_555
C19A N4 1_555 1_555
C19B N4 1_555 1_555
C19O C16O 1_555 1_555
C19P C16P 1_555 1_555
C19Q C16Q 1_555 1_555
H19A C19A 1_555 1_555
H19B C19B 1_555 1_555
H19O C19O 1_555 1_555
H19P C19P 1_555 1_555
H19Q C19Q 1_555 1_555
H20A C19A 1_555 1_555
H20B C19B 1_555 1_555
H20O C19O 1_555 1_555
H20P C19P 1_555 1_555
H20Q C19Q 1_555 1_555
F1O C3O 1_555 1_555
F1A C3A 1_555 1_555
F1P C3P 1_555 1_555
F1B C3B 1_555 1_555
F1Q C3Q 1_555 1_555
N1O Ni1 1_555 1_555
N1A C8A 1_555 1_555
N1P C8P 1_555 1_555
N1B C8B 1_555 1_555
N1Q C8Q 1_555 1_555
H21O N1O 1_555 1_555
H21A N1A 1_555 1_555
H21P N1P 1_555 1_555
H21B N1B 1_555 1_555
H21Q N1Q 1_555 1_555
N2O C1O 1_555 1_555
N2A C1A 1_555 1_555
N2P C1P 1_555 1_555
N2B C1B 1_555 1_555
N2Q C1Q 1_555 1_555
N3O C11 1_555 1_555
N3A C10A 1_555 1_555
N3P C10P 1_555 1_555
N3B C10B 1_555 1_555
N3Q C10Q 1_555 1_555
H22O N3O 1_555 1_555
H22A N3A 1_555 1_555
H22P N3P 1_555 1_555
H22B N3B 1_555 1_555
H22Q N3Q 1_555 1_555
N4O C19O 1_555 1_555
Ni1A N1A 1_555 1_555
Ni1B N1B 1_555 1_555
Ni1P O1P 1_555 1_555
Ni1Q O1Q 1_555 1_555
O1A C12A 1_555 1_555
O1B C12B 1_555 1_555
O1O Ni1 1_555 1_555
O1P C12P 1_555 1_555
O1Q C12Q 1_555 1_555
O1P_2 Ni1A 1_555 1_555
O1Q_2 Ni1B 1_555 1_555
O2A C12A 1_555 1_555
O2B C12B 1_555 1_555
O2O C12O 1_555 1_555
O2P C12P 1_555 1_555
O2Q C12Q 1_555 1_555
C6 C7 1_555 1_555
C9 N1 1_555 1_555
C9 N2 1_555 1_555
C10 N2 1_555 1_555
C17 C18 1_555 1_555
N3 Ni1 1_555 1_555
Ni1 O1 1_555 1_555
Ni1 N3O 1_555 1_555
C6O C7O 1_555 1_555
C6A C7A 1_555 1_555
C6P C7P 1_555 1_555
C6B C7B 1_555 1_555
C6Q C7Q 1_555 1_555
C8O C11O 1_555 1_555
C8O N1O 1_555 1_555
C9O N1O 1_555 1_555
C9O N2O 1_555 1_555
C9A N1A 1_555 1_555
C9A N2A 1_555 1_555
C9P N1P 1_555 1_555
C9P N2P 1_555 1_555
C9B N1B 1_555 1_555
C9B N2B 1_555 1_555
C9Q N1Q 1_555 1_555
C9Q N2Q 1_555 1_555
C10O N2O 1_555 1_555
C10O N3O 1_555 1_555
C10A N2A 1_555 1_555
C10P N2P 1_555 1_555
C10B N2B 1_555 1_555
C10Q N2Q 1_555 1_555
C11A N3P 1_555 1_555
C11P N3A 1_555 1_555
C11B N3Q 1_555 1_555
C11Q N3B 1_555 1_555
C12O O1O 1_555 1_555
C16A C19A 1_555 1_555
C16B C19B 1_555 1_555
C17A C18A 1_555 1_555
C17B C18B 1_555 1_555
C17O C18O 1_555 1_555
C17P C18P 1_555 1_555
C17Q C18Q 1_555 1_555
C19P N4O 1_555 1_555
C19Q N4O 1_555 1_555
N1P Ni1A 1_555 1_555
N1Q Ni1B 1_555 1_555
N3A Ni1A 1_555 1_555
N3P Ni1A 1_555 1_555
N3B Ni1B 1_555 1_555
N3Q Ni1B 1_555 1_555
Ni1A O1A 1_555 1_555
Ni1B O1B 1_555 1_555

#END
