
#######################################################################
#
#                 Cambridge Crystallographic Data Centre
#                                CCDC 
#
#######################################################################
#
# If this CIF has been generated from an entry in the Cambridge 
# Structural Database, then it will include bibliographic, chemical, 
# crystal, experimental, refinement or atomic coordinate data resulting 
# from the CCDC's data processing and validation procedures.
#
#######################################################################

data_DAPPOA
_symmetry_cell_setting           monoclinic
_symmetry_space_group_name_H-M   'P 2/n'
_symmetry_Int_Tables_number      13
_space_group_name_Hall           '-P 2yac'
loop_
_symmetry_equiv_pos_site_id
_symmetry_equiv_pos_as_xyz
1 x,y,z
2 1/2-x,y,1/2-z
3 -x,-y,-z
4 1/2+x,-y,1/2+z
_cell_length_a                   11.620(2)
_cell_length_b                   7.414(2)
_cell_length_c                   15.913(3)
_cell_angle_alpha                90
_cell_angle_beta                 103.91(3)
_cell_angle_gamma                90
_cell_volume                     1330.71
loop_
_atom_site_label
_atom_site_type_symbol
_atom_site_fract_x
_atom_site_fract_y
_atom_site_fract_z
Cl1 Cl 0.2500 0.4609(9) 0.7500
O4 O 0.336(3) 0.529(5) 0.8138(15)
O4A O 0.164(3) 0.529(5) 0.6862(15)
O8 O 0.720(2) -0.108(5) 0.4229(18)
Cu1 Cu 0.85865(12) 0.33214(18) 0.57783(8)
O1 O 0.9935(13) 0.2737(19) 0.5277(9)
O3 O 1.1268(8) 0.4249(11) 0.4704(5)
O7 O 0.7408(11) 0.231(2) 0.4516(7)
N1 N 0.6758(8) 0.3200(13) 0.6787(5)
N2 N 0.7246(8) 0.4117(14) 0.6235(6)
N3 N 0.6645(11) 0.0698(15) 0.7824(6)
N4 N 0.6151(9) 0.1085(13) 0.8523(6)
C1 C 1.0348(11) 0.4126(17) 0.5004(8)
C2 C 0.5696(10) 0.378(2) 0.6770(9)
H1 H 0.5185 0.3325 0.7087
C3 C 0.5466(10) 0.5243(18) 0.6171(8)
H2 H 0.4789 0.5956 0.6027
C4 C 0.6426(12) 0.5366(18) 0.5864(8)
H3 H 0.6526 0.6197 0.5450
C5 C 0.6113(16) -0.0749(18) 0.7454(10)
H4 H 0.6266 -0.1272 0.6961
C6 C 0.5311(15) -0.140(2) 0.7873(10)
H5 H 0.4826 -0.2413 0.7746
C7 C 0.5408(12) -0.0165(18) 0.8536(9)
H6 H 0.4971 -0.0241 0.8954
B1 B 0.7500 0.191(2) 0.7500
Cu1B Cu 1.14135(12) 0.66786(18) 0.42217(8)
Cu1A Cu 0.64135(12) 0.33214(18) 0.92217(8)
O1B O 1.0065(13) 0.7263(19) 0.4723(9)
O3B O 0.8732(8) 0.5751(11) 0.5296(5)
O7B O 1.2592(11) 0.769(2) 0.5484(7)
N1A N 0.8242(8) 0.3200(13) 0.8213(5)
N2A N 0.7754(8) 0.4117(14) 0.8765(6)
N2B N 1.2754(8) 0.5883(14) 0.3765(6)
N3A N 0.8355(11) 0.0698(15) 0.7176(6)
N4A N 0.8849(9) 0.1085(13) 0.6477(6)
N4C N 1.1151(9) 0.8915(13) 0.3523(6)
C1B C 0.9652(11) 0.5874(17) 0.4996(8)
C2A C 0.9304(10) 0.378(2) 0.8230(9)
H1A H 0.9815 0.3325 0.7913
C3A C 0.9534(10) 0.5243(18) 0.8829(8)
H2A H 1.0211 0.5956 0.8973
C4A C 0.8574(12) 0.5366(18) 0.9136(8)
H3A H 0.8474 0.6197 0.9550
C5A C 0.8887(16) -0.0749(18) 0.7546(10)
H4A H 0.8734 -0.1272 0.8039
C6A C 0.9689(15) -0.140(2) 0.7127(10)
H5A H 1.0174 -0.2413 0.7254
C7A C 0.9592(12) -0.0165(18) 0.6464(9)
H6A H 1.0029 -0.0241 0.6046
O2? O 1.022(2) 0.298(3) 0.5515(15)
O5? O 0.301(3) 0.474(5) 0.687(2)
O6? O 0.199(3) 0.276(5) 0.751(3)
loop_
_geom_bond_atom_site_label_1
_geom_bond_atom_site_label_2
_geom_bond_site_symmetry_1
_geom_bond_site_symmetry_2
Cu1 O1 1_555 1_555
Cl1 O4 1_555 1_555
O1 C1 1_555 1_555
O3 C1 1_555 1_555
O7 Cu1 1_555 1_555
N1 N2 1_555 1_555
N2 Cu1 1_555 1_555
N3 N4 1_555 1_555
N4 C7 1_555 1_555
C1 C1B 1_555 1_555
C2 N1 1_555 1_555
H1 C2 1_555 1_555
C3 C2 1_555 1_555
H2 C3 1_555 1_555
C4 N2 1_555 1_555
H3 C4 1_555 1_555
C5 N3 1_555 1_555
H4 C5 1_555 1_555
C6 C5 1_555 1_555
H5 C6 1_555 1_555
C7 C6 1_555 1_555
H6 C7 1_555 1_555
B1 N1 1_555 1_555
Cu1B O3 1_555 1_555
Cu1A N4 1_555 1_555
O1B Cu1B 1_555 1_555
O3B Cu1 1_555 1_555
O4A Cl1 1_555 1_555
O7B Cu1B 1_555 1_555
N1A B1 1_555 1_555
N2A Cu1A 1_555 1_555
N2B Cu1B 1_555 1_555
N3A B1 1_555 1_555
N4A Cu1 1_555 1_555
N4C Cu1B 1_555 1_555
C1B O1B 1_555 1_555
C2A N1A 1_555 1_555
H1A C2A 1_555 1_555
C3A C2A 1_555 1_555
H2A C3A 1_555 1_555
C4A N2A 1_555 1_555
H3A C4A 1_555 1_555
C5A N3A 1_555 1_555
H4A C5A 1_555 1_555
C6A C5A 1_555 1_555
H5A C6A 1_555 1_555
C7A N4A 1_555 1_555
H6A C7A 1_555 1_555
N3 B1 1_555 1_555
C3 C4 1_555 1_555
O3B C1B 1_555 1_555
N1A N2A 1_555 1_555
N3A N4A 1_555 1_555
C3A C4A 1_555 1_555
C6A C7A 1_555 1_555

#END
