
#######################################################################
#
#                 Cambridge Crystallographic Data Centre
#                                CCDC 
#
#######################################################################
#
# If this CIF has been generated from an entry in the Cambridge 
# Structural Database, then it will include bibliographic, chemical, 
# crystal, experimental, refinement or atomic coordinate data resulting 
# from the CCDC's data processing and validation procedures.
#
#######################################################################

data_DAQMAK
_symmetry_cell_setting           monoclinic
_symmetry_space_group_name_H-M   'C 2/c'
_symmetry_Int_Tables_number      15
_space_group_name_Hall           '-C 2yn'
loop_
_symmetry_equiv_pos_site_id
_symmetry_equiv_pos_as_xyz
1 x,y,z
2 1/2+x,1/2+y,z
3 -x,y,1/2-z
4 1/2-x,1/2+y,1/2-z
5 -x,-y,-z
6 1/2-x,1/2-y,-z
7 x,-y,1/2+z
8 1/2+x,1/2-y,1/2+z
_cell_length_a                   26.503(5)
_cell_length_b                   10.988(2)
_cell_length_c                   19.532(4)
_cell_angle_alpha                90
_cell_angle_beta                 131.63(3)
_cell_angle_gamma                90
_cell_volume                     4251.51
loop_
_atom_site_label
_atom_site_type_symbol
_atom_site_fract_x
_atom_site_fract_y
_atom_site_fract_z
Sn1 Sn 0.23735(3) 0.59097(5) 0.21328(4)
N1 N 0.2220(4) 0.1163(7) 0.0962(6)
O1 O 0.2214(3) 0.4286(5) 0.1282(4)
O2 O 0.2498(3) 0.2767(5) 0.2215(4)
C1 C 0.2283(5) 0.3178(9) 0.1480(7)
C2 C 0.2077(5) 0.2312(9) 0.0740(7)
C3 C 0.1742(5) 0.2712(9) -0.0119(9)
H1 H 0.1635 0.3533 -0.0260
C4 C 0.1557(5) 0.1883(12) -0.0798(7)
H2 H 0.1337 0.2146 -0.1390
C5 C 0.1704(6) 0.0695(10) -0.0576(8)
H3 H 0.1572 0.0108 -0.1011
C6 C 0.2045(6) 0.0407(9) 0.0293(10)
H4 H 0.2177 -0.0401 0.0456
C7 C 0.1573(6) 0.5299(9) 0.1994(8)
H5 H 0.1353 0.4646 0.1547
H6 H 0.1753 0.4952 0.2575
C8 C 0.1066(8) 0.6182(13) 0.1722(13)
H7 H 0.0938 0.6623 0.1197
H8 H 0.1269 0.6764 0.2217
C9 C 0.0449(10) 0.5707(15) 0.1487(15)
H9 H 0.0181 0.5306 0.0896
H10 H 0.0576 0.5097 0.1936
C10 C 0.0037(12) 0.661(2) 0.145(3)
H11 H -0.0344 0.6216 0.1315
H12 H -0.0119 0.7185 0.0974
H13 H 0.0298 0.7018 0.2026
C11 C 0.2118(5) 0.7014(8) 0.1042(6)
H14 H 0.1954 0.7790 0.1063
H15 H 0.2528 0.7174 0.1155
C12 C 0.1617(9) 0.6527(11) 0.0116(8)
H16 H 0.1785 0.5742 0.0118
H17 H 0.1215 0.6365 0.0023
C13 C 0.1410(8) 0.7116(12) -0.0638(9)
H18 H 0.1807 0.7435 -0.0507
H19 H 0.1142 0.7809 -0.0734
C14 C 0.1019(8) 0.6445(14) -0.1495(9)
H20 H 0.0905 0.6973 -0.1971
H21 H 0.0612 0.6146 -0.1653
H22 H 0.1280 0.5772 -0.1426
C15 C 0.3385(6) 0.5464(9) 0.3148(8)
H23 H 0.3564 0.5892 0.3703
H24 H 0.3418 0.4599 0.3272
C16 C 0.3796(8) 0.573(2) 0.2945(11)
H25 H 0.3675 0.6540 0.2674
H26 H 0.3681 0.5165 0.2480
C17 C 0.4543(9) 0.570(2) 0.3712(13)
H27 H 0.4704 0.6490 0.4011
H28 H 0.4663 0.5099 0.4162
C18 C 0.4850(10) 0.539(3) 0.3328(16)
H29 H 0.5331 0.5351 0.3813
H30 H 0.4737 0.6006 0.2896
H31 H 0.4682 0.4619 0.3026
Sn1C Sn 0.26265(3) 0.09097(5) 0.28672(4)
O2C O 0.2502(3) 0.7767(5) 0.2785(4)
loop_
_geom_bond_atom_site_label_1
_geom_bond_atom_site_label_2
_geom_bond_site_symmetry_1
_geom_bond_site_symmetry_2
Sn1 O1 1_555 1_555
N1 C2 1_555 1_555
O1 C1 1_555 1_555
O2 C1 1_555 1_555
C1 C2 1_555 1_555
C2 C3 1_555 1_555
C3 H1 1_555 1_555
C4 C3 1_555 1_555
H2 C4 1_555 1_555
C5 C4 1_555 1_555
H3 C5 1_555 1_555
C6 N1 1_555 1_555
H4 C6 1_555 1_555
C7 Sn1 1_555 1_555
H5 C7 1_555 1_555
H6 C7 1_555 1_555
C8 C7 1_555 1_555
H7 C8 1_555 1_555
H8 C8 1_555 1_555
C9 C8 1_555 1_555
H9 C9 1_555 1_555
H10 C9 1_555 1_555
C10 C9 1_555 1_555
H11 C10 1_555 1_555
H12 C10 1_555 1_555
H13 C10 1_555 1_555
C11 Sn1 1_555 1_555
H14 C11 1_555 1_555
H15 C11 1_555 1_555
C12 C11 1_555 1_555
H16 C12 1_555 1_555
H17 C12 1_555 1_555
C13 C12 1_555 1_555
H18 C13 1_555 1_555
H19 C13 1_555 1_555
C14 C13 1_555 1_555
H20 C14 1_555 1_555
H21 C14 1_555 1_555
H22 C14 1_555 1_555
C15 Sn1 1_555 1_555
H23 C15 1_555 1_555
H24 C15 1_555 1_555
C16 C15 1_555 1_555
H25 C16 1_555 1_555
H26 C16 1_555 1_555
C17 C16 1_555 1_555
H27 C17 1_555 1_555
H28 C17 1_555 1_555
C18 C17 1_555 1_555
H29 C18 1_555 1_555
H30 C18 1_555 1_555
H31 C18 1_555 1_555
Sn1C O2 1_555 1_555
O2C Sn1 1_555 1_555
C5 C6 1_555 1_555

#END
