
#######################################################################
#
#                 Cambridge Crystallographic Data Centre
#                                CCDC 
#
#######################################################################
#
# If this CIF has been generated from an entry in the Cambridge 
# Structural Database, then it will include bibliographic, chemical, 
# crystal, experimental, refinement or atomic coordinate data resulting 
# from the CCDC's data processing and validation procedures.
#
#######################################################################

data_DAQSIZ
_symmetry_cell_setting           orthorhombic
_symmetry_space_group_name_H-M   'C 2 2 21'
_symmetry_Int_Tables_number      20
_space_group_name_Hall           'C 2n 2'
loop_
_symmetry_equiv_pos_site_id
_symmetry_equiv_pos_as_xyz
1 x,y,z
2 -x,-y,1/2+z
3 -x,y,1/2-z
4 x,-y,-z
5 1/2+x,1/2+y,z
6 1/2-x,1/2-y,1/2+z
7 1/2-x,1/2+y,1/2-z
8 1/2+x,1/2-y,-z
_cell_length_a                   6.8969(4)
_cell_length_b                   39.176(2)
_cell_length_c                   7.5752(4)
_cell_angle_alpha                90
_cell_angle_beta                 90
_cell_angle_gamma                90
_cell_volume                     2046.77
loop_
_atom_site_label
_atom_site_type_symbol
_atom_site_fract_x
_atom_site_fract_y
_atom_site_fract_z
Eu1 Eu 0.0000 0.292320(9) 0.2500
Na1 Na 0.0000 0.16450(7) -0.2500
O1 O 0.3413(5) 0.15248(8) -0.2370(8)
C1 C 0.5000 0.09826(15) -0.2500
C2 C 0.5000 0.13610(15) -0.2500
O2 O 0.0436(5) 0.24324(9) 0.0663(5)
O3 O 0.0049(11) 0.13613(15) 0.0168(6)
C3 C 0.5000 -0.01125(18) -0.2500
C4 C 0.5000 0.02689(16) -0.2500
C5 C 0.6644(10) -0.02933(15) -0.1995(9)
H1 H 0.7758 -0.0176 -0.1662
O4 O -0.0715(6) 0.30457(9) -0.4407(5)
C6 C 0.0894(8) 0.27812(13) -0.1873(7)
C7 C 0.3342(9) 0.08043(15) -0.2034(8)
H2 H 0.2222 0.0923 -0.1728
C8 C 0.3343(10) 0.04533(14) -0.2021(8)
H3 H 0.2226 0.0337 -0.169
C9 C 0.5000 -0.08267(17) -0.2500
C10 C 0.6634(10) -0.06489(15) -0.1984(9)
H4 H 0.7735 -0.0767 -0.1627
C11 C 0.5000 -0.12098(16) -0.2500
O5 O 0.6525(6) -0.13652(10) -0.2029(6)
C12 C 0.1064(7) 0.24446(13) -0.0877(7)
O6 O 0.1828(5) 0.21948(9) -0.1697(5)
H5 H 0.209(8) 0.2837(13) -0.252(13)
H6 H -0.090(9) 0.3249(8) -0.406(8)
H7 H -0.115(5) 0.1280(15) 0.069(7)
H8 H 0.085(7) 0.1464(12) 0.111(4)
Eu1E Eu -0.5000 0.207680(9) -0.2500
Eu1_2 Eu 0.0000 0.292320(9) -0.7500
Eu1E_2 Eu 0.5000 0.207680(9) -0.2500
Na1_2 Na 1.0000 0.16450(7) -0.2500
O1B O 0.6587(5) 0.15248(8) -0.2630(8)
O1B_2 O -0.3413(5) 0.15248(8) -0.2630(8)
O1E O 0.1587(5) 0.34752(8) 0.2630(8)
O1G O -0.1587(5) 0.34752(8) 0.2370(8)
O2B O -0.0436(5) 0.24324(9) -0.5663(5)
O2B_2 O -0.0436(5) 0.24324(9) 0.4337(5)
O3B O -0.0049(11) 0.13613(15) -0.5168(6)
C5B C 0.3356(10) -0.02933(15) -0.3005(9)
H1B H 0.2242 -0.0176 -0.3338
O4B O 0.0715(6) 0.30457(9) -0.0593(5)
O4_2 O -0.0715(6) 0.30457(9) 0.5593(5)
C6B C -0.0894(8) 0.27812(13) -0.3127(7)
C7B C 0.6658(9) 0.08043(15) -0.2966(8)
H2B H 0.7778 0.0923 -0.3272
C8B C 0.6657(10) 0.04533(14) -0.2979(8)
H3B H 0.7774 0.0337 -0.331
C10B C 0.3366(10) -0.06489(15) -0.3016(9)
H4B H 0.2265 -0.0767 -0.3373
O5B O 0.3475(6) -0.13652(10) -0.2971(6)
C12B C -0.1064(7) 0.24446(13) -0.4123(7)
O6B O -0.1828(5) 0.21948(9) -0.3303(5)
O6E O 0.3172(5) 0.28052(9) 0.3303(5)
O6G O -0.3172(5) 0.28052(9) 0.1697(5)
H5B H -0.209(8) 0.2837(13) -0.248(13)
H6B H 0.090(9) 0.3249(8) -0.094(8)
H6_2 H -0.090(9) 0.3249(8) 0.594(8)
H7B H 0.115(5) 0.1280(15) -0.569(7)
H8B H -0.085(7) 0.1464(12) -0.611(4)
loop_
_geom_bond_atom_site_label_1
_geom_bond_atom_site_label_2
_geom_bond_site_symmetry_1
_geom_bond_site_symmetry_2
Eu1 O2 1_555 1_555
Na1 O1 1_555 1_555
O1 C2 1_555 1_555
C1 C2 1_555 1_555
C2 O1B 1_555 1_555
O2 C12 1_555 1_555
O3 Na1 1_555 1_555
C3 C4 1_555 1_555
C4 C8 1_555 1_555
C5 C3 1_555 1_555
H1 C5 1_555 1_555
O4 H6 1_555 1_555
C6 C12 1_555 1_555
C7 C1 1_555 1_555
H2 C7 1_555 1_555
C8 C7 1_555 1_555
H3 C8 1_555 1_555
C9 C10 1_555 1_555
C10 C5 1_555 1_555
H4 C10 1_555 1_555
C11 C9 1_555 1_555
O5 C11 1_555 1_555
C12 O6 1_555 1_555
O6 Na1 1_555 1_555
H5 C6 1_555 1_555
H7 O3 1_555 1_555
H8 O3 1_555 1_555
Eu1E O1B_2 1_555 1_555
Eu1_2 O4 1_555 1_555
Eu1E_2 O1 1_555 1_555
Na1_2 O1B 1_555 1_555
O1B Eu1E_2 1_555 1_555
O1B_2 Na1 1_555 1_555
O1E Eu1 1_555 1_555
O1G Eu1 1_555 1_555
O2B Eu1_2 1_555 1_555
O2B_2 Eu1 1_555 1_555
O3B Na1 1_555 1_555
C5B C3 1_555 1_555
H1B C5B 1_555 1_555
O4B Eu1 1_555 1_555
O4_2 Eu1 1_555 1_555
C6B O4 1_555 1_555
C7B C1 1_555 1_555
H2B C7B 1_555 1_555
C8B C4 1_555 1_555
H3B C8B 1_555 1_555
C10B C9 1_555 1_555
H4B C10B 1_555 1_555
O5B C11 1_555 1_555
C12B O2B 1_555 1_555
O6B Na1 1_555 1_555
O6E Eu1 1_555 1_555
O6G Eu1 1_555 1_555
H5B C6B 1_555 1_555
H6B O4B 1_555 1_555
H6_2 O4_2 1_555 1_555
H7B O3B 1_555 1_555
H8B O3B 1_555 1_555
C6 O4B 1_555 1_555
C6 C6B 1_555 1_555
O6 Eu1E_2 1_555 1_555
Eu1E O6B 1_555 1_555
C5B C10B 1_555 1_555
C6B C12B 1_555 1_555
C7B C8B 1_555 1_555
C12B O6B 1_555 1_555

#END
