
#######################################################################
#
#                 Cambridge Crystallographic Data Centre
#                                CCDC 
#
#######################################################################
#
# If this CIF has been generated from an entry in the Cambridge 
# Structural Database, then it will include bibliographic, chemical, 
# crystal, experimental, refinement or atomic coordinate data resulting 
# from the CCDC's data processing and validation procedures.
#
#######################################################################

data_DAQSOD
_symmetry_cell_setting           orthorhombic
_symmetry_space_group_name_H-M   'A b a 2'
_symmetry_Int_Tables_number      41
_space_group_name_Hall           'A 2 -2ab'
loop_
_symmetry_equiv_pos_site_id
_symmetry_equiv_pos_as_xyz
1 x,y,z
2 -x,-y,z
3 1/2+x,1/2-y,z
4 1/2-x,1/2+y,z
5 x,1/2+y,1/2+z
6 -x,1/2-y,1/2+z
7 1/2+x,-y,1/2+z
8 1/2-x,y,1/2+z
_cell_length_a                   15.969(3)
_cell_length_b                   6.3320(13)
_cell_length_c                   9.166(2)
_cell_angle_alpha                90
_cell_angle_beta                 90
_cell_angle_gamma                90
_cell_volume                     926.827
loop_
_atom_site_label
_atom_site_type_symbol
_atom_site_fract_x
_atom_site_fract_y
_atom_site_fract_z
Ag1 Ag -0.172330(7) 0.27739(2) 0.20307(3)
N1 N -0.06511(8) 0.4124(2) 0.3284(2)
N2 N -0.17134(7) 0.3527(3) -0.1154(2)
O1 O -0.22210(8) 0.2461(2) -0.0441(2)
O2 O -0.18599(8) -0.1144(3) 0.25141(13)
O3 O -0.10819(9) 0.4251(3) -0.0583(2)
C1 C 0.0000 0.5000 0.2629(3)
H1 H 0.0000 0.5000 0.1614(3)
C2 C 0.06368(10) 0.5883(3) 0.4745(2)
H2 H 0.10774(10) 0.6513(3) 0.5246(2)
C3 C 0.0000 0.5000 0.5525(3)
H3 H 0.0000 0.5000 0.6539(3)
Ag1C Ag -0.327670(7) -0.22261(2) 0.20307(3)
N1A N 0.06511(8) 0.5876(2) 0.3284(2)
Ag1A Ag 0.172330(7) 0.72261(2) 0.20307(3)
C2A C -0.06368(10) 0.4117(3) 0.4745(2)
H2A H -0.10774(10) 0.3487(3) 0.5246(2)
O2D O -0.18599(8) 0.3856(3) -0.24859(13)
Ag1D Ag -0.172330(7) 0.77739(2) -0.29693(3)
Ag1G Ag -0.327670(7) 0.27739(2) -0.29693(3)
O2C O -0.31401(8) 0.3856(3) 0.25141(13)
N2D N -0.17134(7) -0.1473(3) 0.3846(2)
O2D_2 O -0.18599(8) -0.6144(3) 0.75141(13)
O1D O -0.22210(8) -0.2539(2) 0.4559(2)
O3D O -0.10819(9) -0.0749(3) 0.4417(2)
Ag1D_2 Ag -0.172330(7) -0.22261(2) 0.70307(3)
N1D N -0.06511(8) -0.0876(2) 0.8284(2)
O2G O -0.31401(8) -0.1144(3) 0.75141(13)
loop_
_geom_bond_atom_site_label_1
_geom_bond_atom_site_label_2
_geom_bond_site_symmetry_1
_geom_bond_site_symmetry_2
Ag1 N1 1_555 1_555
N1 C1 1_555 1_555
N2 O1 1_555 1_555
O1 Ag1 1_555 1_555
O2 Ag1 1_555 1_555
O3 N2 1_555 1_555
C1 H1 1_555 1_555
C2 H2 1_555 1_555
C3 C2 1_555 1_555
H3 C3 1_555 1_555
Ag1C O2 1_555 1_555
N1A C1 1_555 1_555
Ag1A N1A 1_555 1_555
C2A N1 1_555 1_555
H2A C2A 1_555 1_555
O2D N2 1_555 1_555
Ag1D O2D 1_555 1_555
Ag1G O2D 1_555 1_555
O2C Ag1 1_555 1_555
N2D O2 1_555 1_555
O2D_2 Ag1D_2 1_555 1_555
O1D N2D 1_555 1_555
O3D N2D 1_555 1_555
Ag1D_2 O1D 1_555 1_555
N1D Ag1D_2 1_555 1_555
O2G Ag1D_2 1_555 1_555
C2 N1A 1_555 1_555
C3 C2A 1_555 1_555

#END
