
#######################################################################
#
#                 Cambridge Crystallographic Data Centre
#                                CCDC 
#
#######################################################################
#
# If this CIF has been generated from an entry in the Cambridge 
# Structural Database, then it will include bibliographic, chemical, 
# crystal, experimental, refinement or atomic coordinate data resulting 
# from the CCDC's data processing and validation procedures.
#
#######################################################################

data_DAQTAS
_symmetry_cell_setting           orthorhombic
_symmetry_space_group_name_H-M   'C 2 2 21'
_symmetry_Int_Tables_number      20
_space_group_name_Hall           'C 2n 2'
loop_
_symmetry_equiv_pos_site_id
_symmetry_equiv_pos_as_xyz
1 x,y,z
2 -x,-y,1/2+z
3 x,-y,-z
4 -x,y,1/2-z
5 1/2+x,1/2+y,z
6 1/2-x,1/2-y,1/2+z
7 1/2+x,1/2-y,-z
8 1/2-x,1/2+y,1/2-z
_cell_length_a                   6.9031(3)
_cell_length_b                   30.4533(11)
_cell_length_c                   7.5215(2)
_cell_angle_alpha                90
_cell_angle_beta                 90
_cell_angle_gamma                90
_cell_volume                     1581.19
loop_
_atom_site_label
_atom_site_type_symbol
_atom_site_fract_x
_atom_site_fract_y
_atom_site_fract_z
Tb1 Tb 0.0000 0.303900(16) 0.2500
Na1 Na 0.0000 0.14130(14) -0.2500
O1 O 0.3422(7) 0.12580(15) -0.2451(13)
C1 C 0.5000 0.0564(3) -0.2500
C2 C 0.5000 0.1051(3) -0.2500
O2 O 0.0451(7) 0.24134(18) 0.0665(7)
O3 O -0.0711(9) 0.32049(19) -0.4425(7)
C3 C 0.1079(10) 0.2433(2) -0.0880(9)
C4 C 0.0891(12) 0.2870(3) -0.1876(10)
O4 O 0.1848(8) 0.2109(2) -0.1702(8)
O5 O 0.0068(15) 0.1034(3) 0.0161(9)
C5 C 0.3289(12) 0.0331(3) -0.258(3)
H1 H 0.2123 0.0481 -0.2702
C6 C 0.5000 -0.0353(3) -0.2500
C7 C 0.3284(12) -0.0121(3) -0.248(3)
H2 H 0.2113 -0.0271 -0.2409
C8 C 0.5000 -0.0849(3) -0.2500
O6 O 0.6523(9) -0.1046(2) -0.2091(9)
H3 H 0.203(12) 0.291(3) -0.259(16)
H4 H -0.088(18) 0.3464(17) -0.399(15)
H5 H 0.110(11) 0.112(4) 0.097(12)
H6 H -0.107(10) 0.096(4) 0.085(12)
Tb1E Tb -0.5000 0.196100(16) -0.2500
Tb1_2 Tb 0.0000 0.303900(16) -0.7500
Tb1E_2 Tb 0.5000 0.196100(16) -0.2500
Na1_2 Na 1.0000 0.14130(14) -0.2500
O1C O 0.6578(7) 0.12580(15) -0.2549(13)
O1C_2 O -0.3422(7) 0.12580(15) -0.2549(13)
O1E O 0.1578(7) 0.37420(15) 0.2549(13)
O1F O -0.1578(7) 0.37420(15) 0.2451(13)
O2C O -0.0451(7) 0.24134(18) -0.5665(7)
O2C_2 O -0.0451(7) 0.24134(18) 0.4335(7)
O3C O 0.0711(9) 0.32049(19) -0.0575(7)
O3_2 O -0.0711(9) 0.32049(19) 0.5575(7)
C3C C -0.1079(10) 0.2433(2) -0.4120(9)
C4C C -0.0891(12) 0.2870(3) -0.3124(10)
O4C O -0.1848(8) 0.2109(2) -0.3298(8)
O4E O 0.3152(8) 0.2891(2) 0.3298(8)
O4F O -0.3152(8) 0.2891(2) 0.1702(8)
O5C O -0.0068(15) 0.1034(3) -0.5161(9)
C5C C 0.6711(12) 0.0331(3) -0.242(3)
H1C H 0.7877 0.0481 -0.2298
C7C C 0.6716(12) -0.0121(3) -0.252(3)
H2C H 0.7887 -0.0271 -0.2591
O6C O 0.3477(9) -0.1046(2) -0.2909(9)
H3C H -0.203(12) 0.291(3) -0.241(16)
H4C H 0.088(18) 0.3464(17) -0.101(15)
H4_2 H -0.088(18) 0.3464(17) 0.601(15)
H5C H -0.110(11) 0.112(4) -0.597(12)
H6C H 0.107(10) 0.096(4) -0.585(12)
loop_
_geom_bond_atom_site_label_1
_geom_bond_atom_site_label_2
_geom_bond_site_symmetry_1
_geom_bond_site_symmetry_2
Tb1 O2 1_555 1_555
Na1 O1 1_555 1_555
O1 C2 1_555 1_555
C1 C2 1_555 1_555
C2 O1C 1_555 1_555
O2 C3 1_555 1_555
O3 H4 1_555 1_555
C3 C4 1_555 1_555
C4 H3 1_555 1_555
O4 Na1 1_555 1_555
O5 Na1 1_555 1_555
C5 C1 1_555 1_555
H1 C5 1_555 1_555
C6 C7 1_555 1_555
C7 C5 1_555 1_555
H2 C7 1_555 1_555
C8 C6 1_555 1_555
O6 C8 1_555 1_555
H5 O5 1_555 1_555
H6 O5 1_555 1_555
Tb1E O1C_2 1_555 1_555
Tb1_2 O3 1_555 1_555
Tb1E_2 O1 1_555 1_555
Na1_2 O1C 1_555 1_555
O1C Tb1E_2 1_555 1_555
O1C_2 Na1 1_555 1_555
O1E Tb1 1_555 1_555
O1F Tb1 1_555 1_555
O2C Tb1_2 1_555 1_555
O2C_2 Tb1 1_555 1_555
O3C Tb1 1_555 1_555
O3_2 Tb1 1_555 1_555
C3C O2C 1_555 1_555
C4C O3 1_555 1_555
O4C Na1 1_555 1_555
O4E Tb1 1_555 1_555
O4F Tb1 1_555 1_555
O5C Na1 1_555 1_555
C5C C1 1_555 1_555
H1C C5C 1_555 1_555
C7C C6 1_555 1_555
H2C C7C 1_555 1_555
O6C C8 1_555 1_555
H3C C4C 1_555 1_555
H4C O3C 1_555 1_555
H4_2 O3_2 1_555 1_555
H5C O5C 1_555 1_555
H6C O5C 1_555 1_555
C3 O4 1_555 1_555
C4 O3C 1_555 1_555
C4 C4C 1_555 1_555
O4 Tb1E_2 1_555 1_555
Tb1E O4C 1_555 1_555
C3C C4C 1_555 1_555
C3C O4C 1_555 1_555
C5C C7C 1_555 1_555

#END
