
#######################################################################
#
#                 Cambridge Crystallographic Data Centre
#                                CCDC 
#
#######################################################################
#
# If this CIF has been generated from an entry in the Cambridge 
# Structural Database, then it will include bibliographic, chemical, 
# crystal, experimental, refinement or atomic coordinate data resulting 
# from the CCDC's data processing and validation procedures.
#
#######################################################################

data_DAQVAU
_symmetry_cell_setting           orthorhombic
_symmetry_space_group_name_H-M   'C 2 2 21'
_symmetry_Int_Tables_number      20
_space_group_name_Hall           'C 2n 2'
loop_
_symmetry_equiv_pos_site_id
_symmetry_equiv_pos_as_xyz
1 x,y,z
2 -x,-y,1/2+z
3 -x,y,1/2-z
4 x,-y,-z
5 1/2+x,1/2+y,z
6 1/2-x,1/2-y,1/2+z
7 1/2-x,1/2+y,1/2-z
8 1/2+x,1/2-y,-z
_cell_length_a                   6.8571(2)
_cell_length_b                   39.0412(13)
_cell_length_c                   7.4984(2)
_cell_angle_alpha                90
_cell_angle_beta                 90
_cell_angle_gamma                90
_cell_volume                     2007.39
loop_
_atom_site_label
_atom_site_type_symbol
_atom_site_fract_x
_atom_site_fract_y
_atom_site_fract_z
O1 O 0.1521(5) -0.63607(9) -0.1997(5)
C1 C -0.1673(9) -0.45374(13) -0.2043(7)
H1 H -0.2804 -0.4654 -0.1728
C2 C -0.1675(7) -0.41825(12) -0.2052(6)
H2 H -0.2805 -0.4064 -0.1756
C3 C 0.1668(8) -0.56400(12) -0.1998(7)
H3 H 0.2788 -0.5757 -0.1658
O2 O -0.4914(10) -0.36377(14) 0.0173(5)
O3 O -0.3149(5) -0.27979(8) -0.1704(4)
C4 C -0.3904(6) -0.25510(11) -0.0867(5)
O4 O -0.4533(4) -0.25649(8) 0.0688(4)
H4 H -0.301(7) -0.2164(11) -0.245(11)
H5 H -0.402(8) -0.1746(7) -0.088(7)
H6 H -0.619(4) -0.3558(14) 0.057(7)
H7 H -0.412(6) -0.3678(14) 0.120(5)
Ho1 Ho -0.5000 -0.208240(9) 0.2500
Na1 Na -0.5000 -0.33420(6) -0.2500
C5 C 0.0000 -0.36236(12) -0.2500
C6 C 0.0000 -0.40041(12) -0.2500
O5 O -0.1587(4) -0.34591(7) -0.2356(7)
O6 O -0.4319(5) -0.19511(8) -0.0548(4)
C7 C -0.4099(7) -0.22109(11) -0.1872(5)
C8 C 0.0000 -0.58231(13) -0.2500
C9 C 0.0000 -0.62075(13) -0.2500
C10 C 0.0000 -0.51009(13) -0.2500
C11 C 0.0000 -0.47231(13) -0.2500
C12 C 0.1656(8) -0.52857(13) -0.2006(7)
H8 H 0.2778 -0.5168 -0.1675
O1B O -0.1521(5) -0.63607(9) -0.3003(5)
C1B C 0.1673(9) -0.45374(13) -0.2957(7)
H1B H 0.2804 -0.4654 -0.3272
C2B C 0.1675(7) -0.41825(12) -0.2948(6)
H2B H 0.2805 -0.4064 -0.3244
C3B C -0.1668(8) -0.56400(12) -0.3002(7)
H3B H -0.2788 -0.5757 -0.3342
O2B O -0.5086(10) -0.36377(14) -0.5173(5)
O3B O -0.6851(5) -0.27979(8) -0.3296(4)
O3E O -0.1851(5) -0.22021(8) 0.3296(4)
O3G O -0.8149(5) -0.22021(8) 0.1704(4)
C4B C -0.6096(6) -0.25510(11) -0.4133(5)
O4B O -0.5467(4) -0.25649(8) -0.5688(4)
O4B_2 O -0.5467(4) -0.25649(8) 0.4312(4)
H4B H -0.699(7) -0.2164(11) -0.255(11)
H5B H -0.598(8) -0.1746(7) -0.412(7)
H5B_2 H -0.598(8) -0.1746(7) 0.588(7)
H6B H -0.381(4) -0.3558(14) -0.557(7)
H7B H -0.588(6) -0.3678(14) -0.620(5)
Ho1E Ho 0.0000 -0.291760(9) -0.2500
Ho1E_2 Ho -1.0000 -0.291760(9) -0.2500
Ho1_2 Ho -0.5000 -0.208240(9) -0.7500
Na1_2 Na 0.5000 -0.33420(6) -0.2500
O5B O 0.1587(4) -0.34591(7) -0.2644(7)
O5B_2 O -0.8413(4) -0.34591(7) -0.2644(7)
O5E O -0.3413(4) -0.15409(7) 0.2644(7)
O5G O -0.6587(4) -0.15409(7) 0.2356(7)
O6B O -0.5681(5) -0.19511(8) -0.4452(4)
O6B_2 O -0.5681(5) -0.19511(8) 0.5548(4)
C7B C -0.5901(7) -0.22109(11) -0.3128(5)
C12B C -0.1656(8) -0.52857(13) -0.2994(7)
H8B H -0.2778 -0.5168 -0.3325
loop_
_geom_bond_atom_site_label_1
_geom_bond_atom_site_label_2
_geom_bond_site_symmetry_1
_geom_bond_site_symmetry_2
O1 C9 1_555 1_555
C1 H1 1_555 1_555
C2 C1 1_555 1_555
H2 C2 1_555 1_555
C3 H3 1_555 1_555
O2 H6 1_555 1_555
O3 C4 1_555 1_555
C4 O4 1_555 1_555
O4 Ho1 1_555 1_555
H4 C7 1_555 1_555
H5 O6 1_555 1_555
H7 O2 1_555 1_555
Ho1 O6 1_555 1_555
Na1 O2 1_555 1_555
C5 C6 1_555 1_555
C6 C2 1_555 1_555
O5 Na1 1_555 1_555
O6 C7 1_555 1_555
C7 C4 1_555 1_555
C8 C3 1_555 1_555
C9 C8 1_555 1_555
C10 C11 1_555 1_555
C11 C1 1_555 1_555
C12 C3 1_555 1_555
H8 C12 1_555 1_555
O1B C9 1_555 1_555
C1B C11 1_555 1_555
H1B C1B 1_555 1_555
C2B C6 1_555 1_555
H2B C2B 1_555 1_555
C3B C8 1_555 1_555
H3B C3B 1_555 1_555
O2B Na1 1_555 1_555
O3B Na1 1_555 1_555
O3E Ho1 1_555 1_555
O3G Ho1 1_555 1_555
C4B O3B 1_555 1_555
O4B C4B 1_555 1_555
O4B_2 Ho1 1_555 1_555
H4B C7B 1_555 1_555
H5B O6B 1_555 1_555
H5B_2 O6B_2 1_555 1_555
H6B O2B 1_555 1_555
H7B O2B 1_555 1_555
Ho1E O3 1_555 1_555
Ho1E_2 O3B 1_555 1_555
Ho1_2 O4B 1_555 1_555
Na1_2 O5B 1_555 1_555
O5B C5 1_555 1_555
O5B_2 Na1 1_555 1_555
O5E Ho1 1_555 1_555
O5G Ho1 1_555 1_555
O6B Ho1_2 1_555 1_555
O6B_2 Ho1 1_555 1_555
C7B C7 1_555 1_555
C12B C10 1_555 1_555
H8B C12B 1_555 1_555
O3 Na1 1_555 1_555
C5 O5 1_555 1_555
O5 Ho1E 1_555 1_555
C10 C12 1_555 1_555
C1B C2B 1_555 1_555
C3B C12B 1_555 1_555
C4B C7B 1_555 1_555
Ho1E O5B 1_555 1_555
Ho1E_2 O5B_2 1_555 1_555
O6B C7B 1_555 1_555

#END
