
#######################################################################
#
#                 Cambridge Crystallographic Data Centre
#                                CCDC 
#
#######################################################################
#
# If this CIF has been generated from an entry in the Cambridge 
# Structural Database, then it will include bibliographic, chemical, 
# crystal, experimental, refinement or atomic coordinate data resulting 
# from the CCDC's data processing and validation procedures.
#
#######################################################################

data_DASTEX
_symmetry_cell_setting           orthorhombic
_symmetry_space_group_name_H-M   'P c a b'
_symmetry_Int_Tables_number      61
_space_group_name_Hall           '-P 2bc 2ac'
loop_
_symmetry_equiv_pos_site_id
_symmetry_equiv_pos_as_xyz
1 x,y,z
2 -x,1/2-y,1/2+z
3 1/2+x,-y,1/2-z
4 1/2-x,1/2+y,-z
5 -x,-y,-z
6 x,1/2+y,1/2-z
7 1/2-x,y,1/2+z
8 1/2+x,1/2-y,z
_cell_length_a                   24.8865
_cell_length_b                   9.67178
_cell_length_c                   9.44625
_cell_angle_alpha                90
_cell_angle_beta                 90
_cell_angle_gamma                90
_cell_volume                     2273.68
loop_
_atom_site_label
_atom_site_type_symbol
_atom_site_fract_x
_atom_site_fract_y
_atom_site_fract_z
Co1 Co 0.18245 0.54557 0.75377
N1 N 0.007670 0.709760 1.069170
C1 C 0.050880 0.741790 0.980140
C2 C 0.062170 0.879530 0.947180
C3 C 0.083360 0.637290 0.925380
N2 N 0.104720 0.913560 0.859260
N3 N 0.126640 0.669320 0.836670
C4 C 0.136620 0.808400 0.802660
H1 H 0.037420 0.960520 0.990760
O1 O 0.174390 0.838290 0.720980
H2 H 0.075070 0.530910 0.951570
O2 O -0.027080 0.799320 1.096040
O3 O 0.003820 0.591580 1.121790
N4 N 0.368850 0.831650 0.764040
C5 C 0.333920 0.739360 0.831630
C6 C 0.287440 0.694510 0.762650
C7 C 0.344720 0.693040 0.968400
N5 N 0.252330 0.603150 0.827530
N6 N 0.309740 0.601050 1.036100
C8 C 0.263760 0.555140 0.963680
H3 H 0.278760 0.731480 0.657450
O4 O 0.232810 0.470560 1.021630
H4 H 0.380310 0.728360 1.022500
O5 O 0.355070 0.888470 0.650870
O6 O 0.413810 0.857230 0.816880
Co1E Co 0.18245 1.04557 0.74623
Co1F Co 0.31755 0.54557 1.25377
O1E O 0.174390 0.338290 0.779020
N6F N 0.190260 0.601050 0.536100
loop_
_geom_bond_atom_site_label_1
_geom_bond_atom_site_label_2
_geom_bond_site_symmetry_1
_geom_bond_site_symmetry_2
Co1 N3 1_555 1_555
N1 C1 1_555 1_555
C1 C2 1_555 1_555
C2 N2 1_555 1_555
C3 C1 1_555 1_555
N2 C4 1_555 1_555
N3 C3 1_555 1_555
C4 N3 1_555 1_555
H1 C2 1_555 1_555
O1 C4 1_555 1_555
H2 C3 1_555 1_555
O2 N1 1_555 1_555
O3 N1 1_555 1_555
N4 C5 1_555 1_555
C5 C6 1_555 1_555
C6 N5 1_555 1_555
C7 C5 1_555 1_555
N5 Co1 1_555 1_555
N6 C7 1_555 1_555
C8 N5 1_555 1_555
H3 C6 1_555 1_555
O4 C8 1_555 1_555
H4 C7 1_555 1_555
O5 N4 1_555 1_555
O6 N4 1_555 1_555
Co1E O1 1_555 1_555
Co1F N6 1_555 1_555
O1E Co1 1_555 1_555
N6F Co1 1_555 1_555
N6 C8 1_555 1_555

#END
