
#######################################################################
#
#                 Cambridge Crystallographic Data Centre
#                                CCDC 
#
#######################################################################
#
# If this CIF has been generated from an entry in the Cambridge 
# Structural Database, then it will include bibliographic, chemical, 
# crystal, experimental, refinement or atomic coordinate data resulting 
# from the CCDC's data processing and validation procedures.
#
#######################################################################

data_DASWUR
_symmetry_cell_setting           orthorhombic
_symmetry_space_group_name_H-M   'F d d d'
_symmetry_Int_Tables_number      70
_space_group_name_Hall           '-F 2uv 2vw'
loop_
_symmetry_equiv_pos_site_id
_symmetry_equiv_pos_as_xyz
1 x,y,z
2 3/4-x,3/4-y,z
3 3/4-x,y,3/4-z
4 x,3/4-y,3/4-z
5 x,1/2+y,1/2+z
6 3/4-x,1/4-y,1/2+z
7 3/4-x,1/2+y,1/4-z
8 x,1/4-y,1/4-z
9 1/2+x,y,1/2+z
10 1/4-x,3/4-y,1/2+z
11 1/4-x,y,1/4-z
12 1/2+x,3/4-y,1/4-z
13 1/2+x,1/2+y,z
14 1/4-x,1/4-y,z
15 1/4-x,1/2+y,3/4-z
16 1/2+x,1/4-y,3/4-z
17 -x,-y,-z
18 1/4+x,1/4+y,-z
19 1/4+x,-y,1/4+z
20 -x,1/4+y,1/4+z
21 -x,1/2-y,1/2-z
22 1/4+x,3/4+y,1/2-z
23 1/4+x,1/2-y,3/4+z
24 -x,3/4+y,3/4+z
25 1/2-x,-y,1/2-z
26 3/4+x,1/4+y,1/2-z
27 3/4+x,-y,3/4+z
28 1/2-x,1/4+y,3/4+z
29 1/2-x,1/2-y,-z
30 3/4+x,3/4+y,-z
31 3/4+x,1/2-y,1/4+z
32 1/2-x,3/4+y,1/4+z
_cell_length_a                   22.245(6)
_cell_length_b                   28.583(7)
_cell_length_c                   29.143(12)
_cell_angle_alpha                90
_cell_angle_beta                 90
_cell_angle_gamma                90
_cell_volume                     18530
loop_
_atom_site_label
_atom_site_type_symbol
_atom_site_fract_x
_atom_site_fract_y
_atom_site_fract_z
Gd1 Gd 0.195191(12) 0.221313(9) 0.047296(9)
N1 N 0.4911(2) 0.0104(2) 0.0785(2)
N2 N 0.5793(3) -0.0304(2) 0.0575(2)
N3 N 0.5559(3) 0.0419(2) 0.0220(2)
O1 O 0.2943(2) 0.1946(2) 0.05124(19)
O2 O 0.3574(2) 0.2305(2) 0.0028(2)
O3 O 0.4309(2) -0.16221(19) 0.24065(18)
O4 O 0.4981(2) -0.21009(16) 0.21107(17)
O5 O 0.7958(2) -0.00611(19) -0.12719(15)
O6 O 0.8451(2) -0.0400(2) -0.06851(17)
O7 O 0.1906(4) 0.1428(2) 0.0837(3)
C1 C 0.5069(3) 0.0435(2) 0.0488(2)
C2 C 0.5284(3) -0.0260(2) 0.0814(2)
C3 C 0.5902(3) 0.0044(2) 0.0279(2)
C4 C 0.4665(3) 0.0840(2) 0.0447(2)
C5 C 0.4796(4) 0.1209(3) 0.0159(3)
H1 H 0.5152 0.1207 -0.0008
C6 C 0.4407(4) 0.1581(3) 0.0115(3)
H2 H 0.4502 0.1827 -0.0082
C7 C 0.3875(3) 0.1592(2) 0.0361(2)
C8 C 0.3744(3) 0.1230(3) 0.0652(2)
H3 H 0.3389 0.1234 0.0820
C9 C 0.4135(3) 0.0858(3) 0.0698(3)
H4 H 0.4042 0.0616 0.0899
C10 C 0.3430(3) 0.1979(3) 0.0298(2)
C11 C 0.5119(3) -0.0645(2) 0.1129(2)
C12 C 0.5468(3) -0.1054(2) 0.1145(2)
H5 H 0.5793 -0.1089 0.0948
C13 C 0.5327(3) -0.1403(2) 0.1453(2)
H6 H 0.5562 -0.1672 0.1466
C14 C 0.4835(3) -0.1354(2) 0.1744(2)
C15 C 0.4483(3) -0.0959(2) 0.1724(2)
H7 H 0.4153 -0.0928 0.1917
C16 C 0.4622(3) -0.0609(2) 0.1414(2)
H8 H 0.4379 -0.0344 0.1397
C17 C 0.4698(3) -0.1718(2) 0.2102(2)
C18 C 0.6457(3) 0.0002(2) -0.0010(2)
C19 C 0.6901(3) -0.0314(3) 0.0115(2)
H9 H 0.6860 -0.0489 0.0382
C20 C 0.7403(3) -0.0367(3) -0.0157(2)
H10 H 0.7708 -0.0570 -0.0067
C21 C 0.7455(3) -0.0122(2) -0.0563(2)
C22 C 0.7010(3) 0.0189(3) -0.0688(2)
H11 H 0.7042 0.0352 -0.0963
C23 C 0.6515(3) 0.0262(2) -0.0407(2)
H12 H 0.6226 0.0483 -0.0486
C24 C 0.7994(3) -0.0199(2) -0.0864(2)
Gd1BA Gd 0.304809(12) 0.278687(9) -0.047296(9)
Gd1R Gd 0.445191(12) -0.221313(9) 0.297296(9)
Gd1F Gd 0.554809(12) -0.278687(9) 0.202704(9)
Gd1W Gd 0.804809(12) -0.028687(9) -0.202704(9)
Gd1CA Gd 0.945191(12) -0.028687(9) -0.047296(9)
O2BA O 0.1426(2) 0.2695(2) -0.0028(2)
O3Z O 0.1809(2) 0.16221(19) -0.00935(18)
O4Z O 0.2481(2) 0.21009(16) -0.03893(17)
O4F O 0.2519(2) 0.28991(16) 0.03893(17)
O5S O 0.2042(2) 0.24389(19) 0.12281(15)
O6Q O 0.0951(2) 0.2100(2) 0.06851(17)
loop_
_geom_bond_atom_site_label_1
_geom_bond_atom_site_label_2
_geom_bond_site_symmetry_1
_geom_bond_site_symmetry_2
Gd1 O1 1_555 1_555
N1 C1 1_555 1_555
N2 C2 1_555 1_555
N3 C1 1_555 1_555
O1 C10 1_555 1_555
O2 C10 1_555 1_555
O3 C17 1_555 1_555
O4 C17 1_555 1_555
O5 C24 1_555 1_555
O6 C24 1_555 1_555
O7 Gd1 1_555 1_555
C1 C4 1_555 1_555
C2 N1 1_555 1_555
C3 N2 1_555 1_555
C4 C5 1_555 1_555
C5 H1 1_555 1_555
C6 C5 1_555 1_555
H2 C6 1_555 1_555
C7 C6 1_555 1_555
C8 C7 1_555 1_555
H3 C8 1_555 1_555
C9 C4 1_555 1_555
H4 C9 1_555 1_555
C10 C7 1_555 1_555
C11 C2 1_555 1_555
C12 C11 1_555 1_555
H5 C12 1_555 1_555
C13 C12 1_555 1_555
H6 C13 1_555 1_555
C14 C13 1_555 1_555
C15 C14 1_555 1_555
H7 C15 1_555 1_555
C16 C11 1_555 1_555
H8 C16 1_555 1_555
C17 C14 1_555 1_555
C18 C3 1_555 1_555
C19 C18 1_555 1_555
H9 C19 1_555 1_555
C20 C19 1_555 1_555
H10 C20 1_555 1_555
C21 C20 1_555 1_555
C22 C21 1_555 1_555
H11 C22 1_555 1_555
C23 C18 1_555 1_555
H12 C23 1_555 1_555
C24 C21 1_555 1_555
Gd1BA O2 1_555 1_555
Gd1R O3 1_555 1_555
Gd1F O4 1_555 1_555
Gd1W O5 1_555 1_555
Gd1CA O6 1_555 1_555
O2BA Gd1 1_555 1_555
O3Z Gd1 1_555 1_555
O4Z Gd1 1_555 1_555
O4F Gd1 1_555 1_555
O5S Gd1 1_555 1_555
O6Q Gd1 1_555 1_555
N3 C3 1_555 1_555
O4 Gd1R 1_555 1_555
C8 C9 1_555 1_555
C15 C16 1_555 1_555
C22 C23 1_555 1_555
Gd1BA O4Z 1_555 1_555
Gd1BA O4F 1_555 1_555

#END
