
#######################################################################
#
#                 Cambridge Crystallographic Data Centre
#                                CCDC 
#
#######################################################################
#
# If this CIF has been generated from an entry in the Cambridge 
# Structural Database, then it will include bibliographic, chemical, 
# crystal, experimental, refinement or atomic coordinate data resulting 
# from the CCDC's data processing and validation procedures.
#
#######################################################################

data_DASWIF
_symmetry_cell_setting           orthorhombic
_symmetry_space_group_name_H-M   'F d d d'
_symmetry_Int_Tables_number      70
_space_group_name_Hall           '-F 2uv 2vw'
loop_
_symmetry_equiv_pos_site_id
_symmetry_equiv_pos_as_xyz
1 x,y,z
2 3/4-x,3/4-y,z
3 3/4-x,y,3/4-z
4 x,3/4-y,3/4-z
5 x,1/2+y,1/2+z
6 3/4-x,1/4-y,1/2+z
7 3/4-x,1/2+y,1/4-z
8 x,1/4-y,1/4-z
9 1/2+x,y,1/2+z
10 1/4-x,3/4-y,1/2+z
11 1/4-x,y,1/4-z
12 1/2+x,3/4-y,1/4-z
13 1/2+x,1/2+y,z
14 1/4-x,1/4-y,z
15 1/4-x,1/2+y,3/4-z
16 1/2+x,1/4-y,3/4-z
17 -x,-y,-z
18 1/4+x,1/4+y,-z
19 1/4+x,-y,1/4+z
20 -x,1/4+y,1/4+z
21 -x,1/2-y,1/2-z
22 1/4+x,3/4+y,1/2-z
23 1/4+x,1/2-y,3/4+z
24 -x,3/4+y,3/4+z
25 1/2-x,-y,1/2-z
26 3/4+x,1/4+y,1/2-z
27 3/4+x,-y,3/4+z
28 1/2-x,1/4+y,3/4+z
29 1/2-x,1/2-y,-z
30 3/4+x,3/4+y,-z
31 3/4+x,1/2-y,1/4+z
32 1/2-x,3/4+y,1/4+z
_cell_length_a                   22.128(13)
_cell_length_b                   28.524(16)
_cell_length_c                   29.033(18)
_cell_angle_alpha                90
_cell_angle_beta                 90
_cell_angle_gamma                90
_cell_volume                     18325
loop_
_atom_site_label
_atom_site_type_symbol
_atom_site_fract_x
_atom_site_fract_y
_atom_site_fract_z
Y1 Y 0.55506(3) 0.52879(3) 0.04749(3)
O1 O 0.4581(3) 0.5555(2) 0.0505(2)
O2 O 0.5600(4) 0.6065(3) 0.0828(3)
O3 O 0.2506(3) 0.9613(2) 0.2092(2)
N1 N 0.1705(3) 0.7801(3) 0.0577(3)
O4 O 0.3944(3) 0.5194(2) 0.0020(2)
O5 O -0.0459(3) 0.7575(2) -0.1280(2)
O6 O -0.0961(3) 0.7894(2) -0.0681(2)
C1 C 0.2438(4) 0.7063(3) 0.0490(3)
C2 C -0.0500(3) 0.7698(3) -0.0864(3)
N2 N 0.1943(3) 0.7073(3) 0.0218(3)
N3 N 0.2599(3) 0.7393(2) 0.0784(3)
C3 C 0.2796(4) 0.9234(3) 0.2094(3)
C4 C 0.2225(4) 0.7761(3) 0.0814(3)
C5 C 0.0040(4) 0.7618(3) -0.0566(3)
C6 C 0.0982(4) 0.7242(3) -0.0412(3)
H1 H 0.1277 0.7025 -0.0495
C7 C 0.0594(4) 0.7803(3) 0.0116(3)
H2 H 0.0632 0.7976 0.0386
C8 C 0.1041(4) 0.7491(3) -0.0009(3)
O7 O 0.3183(3) 0.9145(2) 0.2407(2)
C9 C 0.0488(4) 0.7312(3) -0.0695(3)
H3 H 0.0458 0.7151 -0.0973
C10 C 0.2173(4) 0.8908(3) 0.1451(3)
H4 H 0.1933 0.9175 0.1461
C11 C 0.3019(4) 0.8465(3) 0.1722(3)
H5 H 0.3353 0.8439 0.1914
C12 C 0.2661(4) 0.8864(3) 0.1742(3)
C13 C 0.3635(4) 0.5901(3) 0.0356(3)
C14 C 0.2385(4) 0.8146(3) 0.1128(3)
C15 C 0.2884(4) 0.8104(3) 0.1417(3)
H6 H 0.3125 0.7838 0.1405
C16 C 0.0089(4) 0.7858(4) -0.0159(3)
H7 H -0.0218 0.8059 -0.0067
C17 C 0.2842(4) 0.6654(3) 0.0448(3)
C18 C 0.1596(4) 0.7449(3) 0.0276(3)
C19 C 0.2041(4) 0.8552(3) 0.1143(3)
H8 H 0.1717 0.8586 0.0942
C20 C 0.3762(4) 0.6265(3) 0.0655(3)
H9 H 0.4116 0.6258 0.0828
C21 C 0.3375(4) 0.6634(3) 0.0700(3)
H10 H 0.3469 0.6877 0.0901
C22 C 0.4086(4) 0.5524(3) 0.0292(3)
C23 C 0.2704(4) 0.6284(4) 0.0151(4)
H11 H 0.2347 0.6288 -0.0018
C24 C 0.3099(4) 0.5913(4) 0.0109(4)
H12 H 0.3004 0.5666 -0.0088
Y1DA Y 0.30506(3) 0.97121(3) 0.29749(3)
Y1F Y 0.19494(3) 1.02879(3) 0.20251(3)
Y1P Y 0.44494(3) 0.47121(3) -0.04749(3)
Y1AA Y -0.05506(3) 0.77879(3) -0.20251(3)
Y1Q Y -0.19494(3) 0.77879(3) -0.04749(3)
O3V O 0.5006(3) 0.5387(2) -0.0408(2)
O3F O 0.4994(3) 0.4613(2) 0.0408(2)
O4P O 0.6056(3) 0.4806(2) -0.0020(2)
O5EA O 0.5459(3) 0.5075(2) 0.1220(2)
O6CA O 0.6539(3) 0.5394(2) 0.0681(2)
O7V O 0.5683(3) 0.5855(2) -0.0093(2)
loop_
_geom_bond_atom_site_label_1
_geom_bond_atom_site_label_2
_geom_bond_site_symmetry_1
_geom_bond_site_symmetry_2
Y1 O1 1_555 1_555
O1 C22 1_555 1_555
O2 Y1 1_555 1_555
O3 C3 1_555 1_555
N1 C4 1_555 1_555
O4 C22 1_555 1_555
O5 C2 1_555 1_555
O6 C2 1_555 1_555
C1 N2 1_555 1_555
C2 C5 1_555 1_555
N2 C18 1_555 1_555
N3 C1 1_555 1_555
C3 O7 1_555 1_555
C4 N3 1_555 1_555
C5 C9 1_555 1_555
C6 H1 1_555 1_555
C7 H2 1_555 1_555
C8 C6 1_555 1_555
O7 Y1DA 1_555 1_555
C9 C6 1_555 1_555
H3 C9 1_555 1_555
C10 H4 1_555 1_555
C11 H5 1_555 1_555
C12 C3 1_555 1_555
C13 C20 1_555 1_555
C14 C4 1_555 1_555
C15 C11 1_555 1_555
H6 C15 1_555 1_555
C16 C5 1_555 1_555
H7 C16 1_555 1_555
C17 C1 1_555 1_555
C18 N1 1_555 1_555
C19 C10 1_555 1_555
H8 C19 1_555 1_555
C20 H9 1_555 1_555
C21 C17 1_555 1_555
H10 C21 1_555 1_555
C22 C13 1_555 1_555
C23 C17 1_555 1_555
H11 C23 1_555 1_555
C24 C13 1_555 1_555
H12 C24 1_555 1_555
Y1DA O3 1_555 1_555
Y1F O3 1_555 1_555
Y1P O4 1_555 1_555
Y1AA O5 1_555 1_555
Y1Q O6 1_555 1_555
O3V Y1 1_555 1_555
O3F Y1 1_555 1_555
O4P Y1 1_555 1_555
O5EA Y1 1_555 1_555
O6CA Y1 1_555 1_555
O7V Y1 1_555 1_555
C7 C8 1_555 1_555
C7 C16 1_555 1_555
C8 C18 1_555 1_555
C10 C12 1_555 1_555
C11 C12 1_555 1_555
C14 C15 1_555 1_555
C14 C19 1_555 1_555
C20 C21 1_555 1_555
C23 C24 1_555 1_555
Y1P O3V 1_555 1_555
Y1P O3F 1_555 1_555

#END
