
#######################################################################
#
#                 Cambridge Crystallographic Data Centre
#                                CCDC 
#
#######################################################################
#
# If this CIF has been generated from an entry in the Cambridge 
# Structural Database, then it will include bibliographic, chemical, 
# crystal, experimental, refinement or atomic coordinate data resulting 
# from the CCDC's data processing and validation procedures.
#
#######################################################################

data_DASWEB
_symmetry_cell_setting           monoclinic
_symmetry_space_group_name_H-M   'P 21/n'
_symmetry_Int_Tables_number      14
_space_group_name_Hall           '-P 2yn'
loop_
_symmetry_equiv_pos_site_id
_symmetry_equiv_pos_as_xyz
1 x,y,z
2 1/2-x,1/2+y,1/2-z
3 -x,-y,-z
4 1/2+x,1/2-y,1/2+z
_cell_length_a                   15.149(3)
_cell_length_b                   6.6200(10)
_cell_length_c                   15.936(3)
_cell_angle_alpha                90
_cell_angle_beta                 90.62(3)
_cell_angle_gamma                90
_cell_volume                     1598.07
loop_
_atom_site_label
_atom_site_type_symbol
_atom_site_fract_x
_atom_site_fract_y
_atom_site_fract_z
Co1 Co 0.61167(3) 0.16211(6) 0.25765(3)
O1 O 0.71888(14) -0.0286(4) 0.27095(14)
O2 O 0.55477(13) -0.0096(3) 0.35119(14)
O3 O 0.81741(14) -0.2088(3) 0.34275(13)
O4 O 0.55531(15) -0.2205(3) 0.45907(15)
C1 C 0.7464(2) -0.1107(5) 0.3373(2)
C2 C 0.6936(2) -0.0902(7) 0.4168(2)
C3 C 0.5939(2) -0.1091(5) 0.4080(2)
N1 N 0.54448(16) -0.0158(4) 0.16654(16)
N2 N 0.49350(15) 0.3294(4) 0.23866(15)
C4 C 0.5701(3) -0.1868(6) 0.1320(2)
C5 C 0.5196(3) -0.2890(6) 0.0732(3)
C6 C 0.4391(3) -0.2144(6) 0.0492(3)
C7 C 0.4085(2) -0.0359(5) 0.0850(2)
C8 C 0.3249(2) 0.0541(7) 0.0660(3)
C9 C 0.2991(3) 0.2236(6) 0.1033(3)
C10 C 0.3537(2) 0.3246(5) 0.1637(2)
C11 C 0.3293(3) 0.5017(6) 0.2054(3)
C12 C 0.3861(3) 0.5866(6) 0.2613(3)
C13 C 0.4679(3) 0.4980(6) 0.2760(2)
C14 C 0.4641(2) 0.0584(5) 0.14367(19)
C15 C 0.4366(2) 0.2432(4) 0.1827(2)
O5 O 0.6614(2) 0.3738(5) 0.3419(2)
H1 H 0.7034(19) 0.031(5) 0.4364(19)
H2 H 0.715(2) -0.177(5) 0.457(2)
H3 H 0.625(2) -0.228(4) 0.1491(18)
H4 H 0.547(2) -0.401(5) 0.050(2)
H5 H 0.408(2) -0.278(5) 0.011(2)
H6 H 0.290(3) -0.010(6) 0.027(2)
H7 H 0.249(2) 0.273(4) 0.0938(19)
H8 H 0.279(2) 0.560(5) 0.191(2)
H9 H 0.377(2) 0.702(6) 0.288(2)
H10 H 0.505(2) 0.551(5) 0.316(2)
H11 H 0.654(2) 0.382(5) 0.391(3)
H12 H 0.699(3) 0.428(6) 0.323(3)
Co1A Co 0.88833(3) -0.33789(6) 0.24235(3)
O3A O 0.68259(14) 0.2912(3) 0.15725(13)
O6 O 0.61249(19) -0.6051(6) 0.50374(18)
H13 H 0.573(3) -0.683(7) 0.513(3)
H14 H 0.591(3) -0.494(7) 0.500(3)
O7 O 0.3740(2) 0.0668(7) 0.3748(2)
H15 H 0.378(3) 0.158(8) 0.411(4)
H16 H 0.423(4) 0.038(7) 0.363(3)
loop_
_geom_bond_atom_site_label_1
_geom_bond_atom_site_label_2
_geom_bond_site_symmetry_1
_geom_bond_site_symmetry_2
Co1 O1 1_555 1_555
O1 C1 1_555 1_555
O2 Co1 1_555 1_555
O3 C1 1_555 1_555
O4 C3 1_555 1_555
C1 C2 1_555 1_555
C2 C3 1_555 1_555
C3 O2 1_555 1_555
N1 Co1 1_555 1_555
N2 Co1 1_555 1_555
C4 N1 1_555 1_555
C5 C4 1_555 1_555
C6 C5 1_555 1_555
C7 C6 1_555 1_555
C8 C7 1_555 1_555
C9 C8 1_555 1_555
C10 C9 1_555 1_555
C11 C10 1_555 1_555
C12 C11 1_555 1_555
C13 N2 1_555 1_555
C14 N1 1_555 1_555
C15 N2 1_555 1_555
O5 Co1 1_555 1_555
O6 H13 1_555 1_555
O7 H15 1_555 1_555
H1 C2 1_555 1_555
H2 C2 1_555 1_555
H3 C4 1_555 1_555
H4 C5 1_555 1_555
H5 C6 1_555 1_555
H6 C8 1_555 1_555
H7 C9 1_555 1_555
H8 C11 1_555 1_555
H9 C12 1_555 1_555
H10 C13 1_555 1_555
H11 O5 1_555 1_555
H12 O5 1_555 1_555
H14 O6 1_555 1_555
H16 O7 1_555 1_555
Co1A O3 1_555 1_555
O3A Co1 1_555 1_555
C7 C14 1_555 1_555
C10 C15 1_555 1_555
C12 C13 1_555 1_555
C14 C15 1_555 1_555

#END
