
#######################################################################
#
#                 Cambridge Crystallographic Data Centre
#                                CCDC 
#
#######################################################################
#
# If this CIF has been generated from an entry in the Cambridge 
# Structural Database, then it will include bibliographic, chemical, 
# crystal, experimental, refinement or atomic coordinate data resulting 
# from the CCDC's data processing and validation procedures.
#
#######################################################################

data_DASXIG
_symmetry_cell_setting           orthorhombic
_symmetry_space_group_name_H-M   'F d d d'
_symmetry_Int_Tables_number      70
_space_group_name_Hall           '-F 2uv 2vw'
loop_
_symmetry_equiv_pos_site_id
_symmetry_equiv_pos_as_xyz
1 x,y,z
2 3/4-x,3/4-y,z
3 3/4-x,y,3/4-z
4 x,3/4-y,3/4-z
5 x,1/2+y,1/2+z
6 3/4-x,1/4-y,1/2+z
7 3/4-x,1/2+y,1/4-z
8 x,1/4-y,1/4-z
9 1/2+x,y,1/2+z
10 1/4-x,3/4-y,1/2+z
11 1/4-x,y,1/4-z
12 1/2+x,3/4-y,1/4-z
13 1/2+x,1/2+y,z
14 1/4-x,1/4-y,z
15 1/4-x,1/2+y,3/4-z
16 1/2+x,1/4-y,3/4-z
17 -x,-y,-z
18 1/4+x,1/4+y,-z
19 1/4+x,-y,1/4+z
20 -x,1/4+y,1/4+z
21 -x,1/2-y,1/2-z
22 1/4+x,3/4+y,1/2-z
23 1/4+x,1/2-y,3/4+z
24 -x,3/4+y,3/4+z
25 1/2-x,-y,1/2-z
26 3/4+x,1/4+y,1/2-z
27 3/4+x,-y,3/4+z
28 1/2-x,1/4+y,3/4+z
29 1/2-x,1/2-y,-z
30 3/4+x,3/4+y,-z
31 3/4+x,1/2-y,1/4+z
32 1/2-x,3/4+y,1/4+z
_cell_length_a                   22.154(9)
_cell_length_b                   28.577(11)
_cell_length_c                   29.053(12)
_cell_angle_alpha                90
_cell_angle_beta                 90
_cell_angle_gamma                90
_cell_volume                     18393.3
loop_
_atom_site_label
_atom_site_type_symbol
_atom_site_fract_x
_atom_site_fract_y
_atom_site_fract_z
Ho1 Ho 1.05500(2) 0.721384(16) -0.297163(18)
N1 N 1.0096(4) 0.4894(3) -0.0792(4)
N2 N 0.9443(5) 0.4576(3) -0.0219(4)
N3 N 0.9208(4) 0.5300(3) -0.0574(3)
C1 C 1.0301(6) 0.6738(4) -0.2097(4)
C2 C 1.0166(5) 0.6367(4) -0.1739(4)
C3 C 1.0516(5) 0.5968(4) -0.1723(4)
H1 H 1.0844 0.5937 -0.1921
C4 C 1.0383(5) 0.5613(4) -0.1416(4)
H2 H 1.0632 0.5351 -0.1399
C5 C 0.9880(5) 0.5644(4) -0.1131(4)
C6 C 0.9540(5) 0.6051(4) -0.1145(5)
H3 H 0.9214 0.6083 -0.0946
C7 C 0.9672(5) 0.6407(4) -0.1444(4)
H4 H 0.9433 0.6674 -0.1450
C8 C 0.9716(5) 0.5262(4) -0.0812(4)
C9 C 0.9937(5) 0.4571(4) -0.0483(4)
C10 C 1.0338(5) 0.4159(4) -0.0449(4)
C11 C 1.0868(5) 0.4141(4) -0.0705(4)
H5 H 1.0957 0.4381 -0.0910
C12 C 1.1264(5) 0.3768(4) -0.0658(4)
H6 H 1.1619 0.3762 -0.0829
C13 C 1.1133(5) 0.3407(4) -0.0360(4)
C14 C 1.0598(6) 0.3418(5) -0.0107(5)
H7 H 1.0505 0.3174 0.0093
C15 C 1.0213(6) 0.3786(5) -0.0154(5)
H8 H 0.9856 0.3788 0.0015
C16 C 1.1587(6) 0.3025(4) -0.0291(4)
C17 C 0.9093(5) 0.4954(4) -0.0277(4)
C18 C 0.8543(5) 0.4997(4) 0.0005(4)
C19 C 0.8487(6) 0.4743(4) 0.0413(4)
H9 H 0.8780 0.4525 0.0494
C20 C 0.7991(5) 0.4817(4) 0.0700(4)
H10 H 0.7963 0.4661 0.0980
C21 C 0.7536(5) 0.5126(4) 0.0563(4)
C22 C 0.7586(5) 0.5362(4) 0.0153(4)
H11 H 0.7278 0.5560 0.0056
C23 C 0.8095(6) 0.5303(5) -0.0117(4)
H12 H 0.8134 0.5476 -0.0387
C24 C 0.6998(5) 0.5204(4) 0.0863(4)
O1 O 1.0688(4) 0.6644(3) -0.2406(3)
O2 O 1.0014(4) 0.7112(3) -0.2090(3)
O3 O 1.2081(4) 0.3057(3) -0.0501(3)
O4 O 1.1440(4) 0.2693(3) -0.0019(3)
O5 O 0.7034(4) 0.5081(3) 0.1275(3)
O6 O 0.6535(3) 0.5402(3) 0.0679(3)
O7 O 1.0592(5) 0.6421(3) -0.3318(4)
Ho1T Ho 0.94500(2) 0.778616(16) -0.202837(18)
Ho1R Ho 1.30500(2) 0.278616(16) -0.047163(18)
Ho1N Ho 1.19500(2) 0.221384(16) 0.047163(18)
Ho1E Ho 0.69500(2) 0.528616(16) 0.202837(18)
Ho1O Ho 0.55500(2) 0.528616(16) 0.047163(18)
O2T O 0.9986(4) 0.7888(3) -0.2910(3)
O3Z O 0.9581(4) 0.6943(3) -0.3001(3)
O4N O 1.1060(4) 0.7693(3) -0.2481(3)
O5E O 1.0466(4) 0.7419(3) -0.3725(3)
O6O O 1.1535(3) 0.7098(3) -0.3179(3)
loop_
_geom_bond_atom_site_label_1
_geom_bond_atom_site_label_2
_geom_bond_site_symmetry_1
_geom_bond_site_symmetry_2
Ho1 O1 1_555 1_555
N1 C8 1_555 1_555
N2 C9 1_555 1_555
N3 C8 1_555 1_555
C1 C2 1_555 1_555
C2 C3 1_555 1_555
C3 H1 1_555 1_555
C4 C3 1_555 1_555
H2 C4 1_555 1_555
C5 C4 1_555 1_555
C6 C5 1_555 1_555
H3 C6 1_555 1_555
C7 C2 1_555 1_555
H4 C7 1_555 1_555
C8 C5 1_555 1_555
C9 N1 1_555 1_555
C10 C9 1_555 1_555
C11 C10 1_555 1_555
H5 C11 1_555 1_555
C12 C11 1_555 1_555
H6 C12 1_555 1_555
C13 C12 1_555 1_555
C14 C13 1_555 1_555
H7 C14 1_555 1_555
C15 C10 1_555 1_555
H8 C15 1_555 1_555
C16 C13 1_555 1_555
C17 N2 1_555 1_555
C18 C17 1_555 1_555
C19 C18 1_555 1_555
H9 C19 1_555 1_555
C20 C19 1_555 1_555
H10 C20 1_555 1_555
C21 C20 1_555 1_555
C22 C21 1_555 1_555
H11 C22 1_555 1_555
C23 C18 1_555 1_555
H12 C23 1_555 1_555
C24 C21 1_555 1_555
O1 C1 1_555 1_555
O2 Ho1 1_555 1_555
O3 C16 1_555 1_555
O4 C16 1_555 1_555
O5 C24 1_555 1_555
O6 C24 1_555 1_555
O7 Ho1 1_555 1_555
Ho1T O2 1_555 1_555
Ho1R O3 1_555 1_555
Ho1N O4 1_555 1_555
Ho1E O5 1_555 1_555
Ho1O O6 1_555 1_555
O2T Ho1 1_555 1_555
O3Z Ho1 1_555 1_555
O4N Ho1 1_555 1_555
O5E Ho1 1_555 1_555
O6O Ho1 1_555 1_555
N3 C17 1_555 1_555
C1 O2 1_555 1_555
C6 C7 1_555 1_555
C14 C15 1_555 1_555
C22 C23 1_555 1_555
Ho1T O2T 1_555 1_555

#END
