
#######################################################################
#
#                 Cambridge Crystallographic Data Centre
#                                CCDC 
#
#######################################################################
#
# If this CIF has been generated from an entry in the Cambridge 
# Structural Database, then it will include bibliographic, chemical, 
# crystal, experimental, refinement or atomic coordinate data resulting 
# from the CCDC's data processing and validation procedures.
#
#######################################################################

data_DATHUD
_symmetry_cell_setting           monoclinic
_symmetry_space_group_name_H-M   'P 21/c'
_symmetry_Int_Tables_number      14
_space_group_name_Hall           '-P 2ybc'
loop_
_symmetry_equiv_pos_site_id
_symmetry_equiv_pos_as_xyz
1 x,y,z
2 -x,1/2+y,1/2-z
3 -x,-y,-z
4 x,1/2-y,1/2+z
_cell_length_a                   11.3404(8)
_cell_length_b                   13.1353(8)
_cell_length_c                   13.8734(5)
_cell_angle_alpha                90
_cell_angle_beta                 90.352(4)
_cell_angle_gamma                90
_cell_volume                     2066.54
loop_
_atom_site_label
_atom_site_type_symbol
_atom_site_fract_x
_atom_site_fract_y
_atom_site_fract_z
Ag1 Ag 1.095829(19) -1.012121(18) -0.081013(14)
N1 N 1.24634(19) -0.9883(2) 0.01140(14)
N2 N 1.4806(2) -0.79665(19) 0.03822(15)
H1 H 1.5238 -0.7791 0.0866
N3 N 1.7397(2) -0.24725(19) -0.23257(15)
H2 H 1.6860 -0.2542 -0.2761
N4 N 1.9593(2) -0.04776(19) -0.18374(15)
O1 O 1.42220(17) -0.74603(16) -0.10998(12)
O2 O 1.8216(2) -0.32653(18) -0.10444(15)
C1 C 1.2830(3) -1.0584(2) 0.07475(18)
H3 H 1.2395 -1.1178 0.0823
C2 C 1.3838(3) -1.0445(2) 0.12901(19)
H4 H 1.4072 -1.0933 0.1739
C3 C 1.4493(3) -0.9581(2) 0.11607(17)
H5 H 1.5184 -0.9486 0.1513
C4 C 1.4129(2) -0.8846(2) 0.05072(16)
C5 C 1.3090(2) -0.9032(2) 0.00001(17)
H6 H 1.2821 -0.8544 -0.0435
C6 C 1.4869(3) -0.7351(2) -0.04082(19)
C7 C 1.5827(3) -0.6555(2) -0.03845(19)
H7 H 1.6573 -0.6881 -0.0529
H8 H 1.5884 -0.6283 0.0264
C8 C 1.5647(3) -0.5673(2) -0.10822(18)
H9 H 1.4908 -0.5337 -0.0934
H10 H 1.5585 -0.5941 -0.1732
C9 C 1.6638(2) -0.4891(2) -0.10462(18)
H11 H 1.6653 -0.4583 -0.0411
H12 H 1.7383 -0.5240 -0.1135
C10 C 1.6539(3) -0.4064(2) -0.17826(19)
H13 H 1.5767 -0.3750 -0.1733
H14 H 1.6599 -0.4362 -0.2420
C11 C 1.7471(3) -0.3249(2) -0.16753(19)
C12 C 1.8064(2) -0.1583(2) -0.23876(18)
C13 C 1.7758(2) -0.0856(2) -0.30758(18)
H15 H 1.7136 -0.0981 -0.3500
C14 C 1.8365(2) 0.0035(2) -0.31291(18)
H16 H 1.8164 0.0517 -0.3593
C15 C 1.9277(2) 0.0221(2) -0.24936(18)
H17 H 1.9678 0.0838 -0.2520
C16 C 1.9013(2) -0.1354(2) -0.17874(18)
H18 H 1.9251 -0.1834 -0.1333
Ag1_2 Ag 2.095829(19) -0.012121(18) -0.081013(14)
N4_2 N 0.9593(2) -1.04776(19) -0.18374(15)
Cl1 Cl 0.74955(6) -0.71447(6) -0.29844(5)
O3 O 0.63878(18) -0.76760(18) -0.30576(13)
O4 O 0.8021(2) -0.7383(2) -0.20995(14)
O5 O 0.7290(2) -0.60748(17) -0.30549(14)
O6 O 0.8244(2) -0.74380(19) -0.37688(15)
N5 N 1.0554(3) -0.8186(2) -0.0913(2)
C17 C 1.0151(3) -0.7430(3) -0.0711(2)
C18 C 0.9664(3) -0.6449(3) -0.0459(2)
H19 H 1.0198 -0.6101 -0.0033
H20 H 0.8920 -0.6543 -0.0144
H21 H 0.9550 -0.6052 -0.1033
loop_
_geom_bond_atom_site_label_1
_geom_bond_atom_site_label_2
_geom_bond_site_symmetry_1
_geom_bond_site_symmetry_2
Ag1 N1 1_555 1_555
N1 C1 1_555 1_555
N2 H1 1_555 1_555
N3 H2 1_555 1_555
N4 C15 1_555 1_555
O1 C6 1_555 1_555
O2 C11 1_555 1_555
C1 H3 1_555 1_555
C2 C1 1_555 1_555
H4 C2 1_555 1_555
C3 C2 1_555 1_555
H5 C3 1_555 1_555
C4 N2 1_555 1_555
C5 N1 1_555 1_555
H6 C5 1_555 1_555
C6 N2 1_555 1_555
C7 C6 1_555 1_555
H7 C7 1_555 1_555
H8 C7 1_555 1_555
C8 C7 1_555 1_555
H9 C8 1_555 1_555
H10 C8 1_555 1_555
C9 C8 1_555 1_555
H11 C9 1_555 1_555
H12 C9 1_555 1_555
C10 C9 1_555 1_555
H13 C10 1_555 1_555
H14 C10 1_555 1_555
C11 N3 1_555 1_555
C12 N3 1_555 1_555
C13 C12 1_555 1_555
H15 C13 1_555 1_555
C14 C13 1_555 1_555
H16 C14 1_555 1_555
C15 C14 1_555 1_555
H17 C15 1_555 1_555
C16 N4 1_555 1_555
H18 C16 1_555 1_555
Cl1 O3 1_555 1_555
O4 Cl1 1_555 1_555
O5 Cl1 1_555 1_555
O6 Cl1 1_555 1_555
N5 C17 1_555 1_555
C17 C18 1_555 1_555
C18 H19 1_555 1_555
H20 C18 1_555 1_555
H21 C18 1_555 1_555
Ag1_2 N4 1_555 1_555
N4_2 Ag1 1_555 1_555
C3 C4 1_555 1_555
C4 C5 1_555 1_555
C10 C11 1_555 1_555
C12 C16 1_555 1_555

#END
