
#######################################################################
#
#                 Cambridge Crystallographic Data Centre
#                                CCDC 
#
#######################################################################
#
# If this CIF has been generated from an entry in the Cambridge 
# Structural Database, then it will include bibliographic, chemical, 
# crystal, experimental, refinement or atomic coordinate data resulting 
# from the CCDC's data processing and validation procedures.
#
#######################################################################

data_DATJEP
_symmetry_cell_setting           triclinic
_symmetry_space_group_name_H-M   'P -1'
_symmetry_Int_Tables_number      2
_space_group_name_Hall           '-P 1'
loop_
_symmetry_equiv_pos_site_id
_symmetry_equiv_pos_as_xyz
1 x,y,z
2 -x,-y,-z
_cell_length_a                   9.0376(3)
_cell_length_b                   12.7047(6)
_cell_length_c                   12.8359(6)
_cell_angle_alpha                112.557(4)
_cell_angle_beta                 98.844(3)
_cell_angle_gamma                100.564(4)
_cell_volume                     1296.6
loop_
_atom_site_label
_atom_site_type_symbol
_atom_site_fract_x
_atom_site_fract_y
_atom_site_fract_z
Ag1 Ag 0.75804(2) 0.795555(18) 0.610916(17)
O1 O 1.13534(19) 0.97355(16) 0.22206(15)
O2 O 1.3167(2) 0.49541(17) 0.00146(16)
N1 N 0.7983(2) 0.84669(18) 0.47272(18)
N2 N 1.0960(2) 0.85096(18) 0.31219(18)
H1 H 1.1298 0.7976 0.3262
N3 N 1.3617(2) 0.50160(19) 0.18324(19)
H2 H 1.4070 0.5473 0.2550
N4 N 1.2140(2) 0.25043(19) 0.24311(18)
C1 C 0.7152(3) 0.9136(2) 0.4435(2)
H3 H 0.6319 0.9284 0.4760
C2 C 0.7496(3) 0.9609(2) 0.3670(2)
H4 H 0.6898 1.0066 0.3487
C3 C 0.8733(3) 0.9405(2) 0.3175(2)
H5 H 0.8962 0.9704 0.2643
C4 C 0.9621(3) 0.8742(2) 0.3492(2)
C5 C 0.9192(3) 0.8286(2) 0.4261(2)
H6 H 0.9777 0.7831 0.4462
C6 C 1.1782(3) 0.9038(2) 0.2564(2)
C7 C 1.3258(3) 0.8688(2) 0.2382(2)
H7 H 1.3556 0.8332 0.2901
H8 H 1.4084 0.9389 0.2574
C8 C 1.3058(3) 0.7812(2) 0.1123(2)
H9 H 1.2775 0.8175 0.0607
H10 H 1.2218 0.7120 0.0929
C9 C 1.4541(3) 0.7428(2) 0.0924(2)
H11 H 1.4408 0.6974 0.0096
H12 H 1.5397 0.8127 0.1180
C10 C 1.4958(3) 0.6691(2) 0.1562(2)
H13 H 1.5993 0.6601 0.1521
H14 H 1.4967 0.7100 0.2376
C11 C 1.3816(3) 0.5478(2) 0.1046(2)
C12 C 1.2757(3) 0.3880(2) 0.1596(2)
C13 C 1.1811(3) 0.3058(3) 0.0520(2)
H15 H 1.1696 0.3235 -0.0121
C14 C 1.1048(3) 0.1968(3) 0.0433(3)
H16 H 1.0407 0.1401 -0.0277
C15 C 1.1230(3) 0.1715(2) 0.1390(2)
H17 H 1.0708 0.0976 0.1312
C16 C 1.2884(3) 0.3561(2) 0.2527(2)
H18 H 1.3516 0.4109 0.3247
Ag1A Ag 1.24196(2) 0.204445(18) 0.389084(17)
N4A N 0.7860(2) 0.74957(19) 0.75689(18)
S1 S 0.37147(6) 0.71403(5) 0.49527(5)
O3 O 0.46461(19) 0.63986(16) 0.43528(15)
O4 O 0.24932(19) 0.72685(18) 0.41650(17)
O5 O 0.46790(19) 0.82650(16) 0.58541(15)
C17 C 0.2761(3) 0.6393(2) 0.5678(2)
C18 C 0.1628(3) 0.6810(3) 0.6210(3)
H19 H 0.1310 0.7436 0.6127
C19 C 0.0979(3) 0.6294(3) 0.6860(3)
H20 H 0.0224 0.6583 0.7213
C20 C 0.1414(3) 0.5357(2) 0.7004(2)
C21 C 0.2503(3) 0.4914(2) 0.6430(2)
H21 H 0.2789 0.4267 0.6488
C22 C 0.3170(3) 0.5425(2) 0.5772(2)
H22 H 0.3895 0.5117 0.5392
C23 C 0.0731(3) 0.4848(3) 0.7765(3)
H23 H 0.0071 0.5306 0.8133
H24 H 0.1553 0.4868 0.8349
H25 H 0.0133 0.4045 0.7296
N5 N 0.7242(3) 1.0403(3) 0.1204(3)
C24 C 0.6317(4) 1.0933(3) 0.1325(3)
C25 C 0.5166(4) 1.1602(3) 0.1497(3)
H26 H 0.4737 1.1556 0.2122
H27 H 0.4353 1.1281 0.0796
H28 H 0.5648 1.2414 0.1687
loop_
_geom_bond_atom_site_label_1
_geom_bond_atom_site_label_2
_geom_bond_site_symmetry_1
_geom_bond_site_symmetry_2
Ag1 N1 1_555 1_555
O1 C6 1_555 1_555
O2 C11 1_555 1_555
N1 C1 1_555 1_555
N2 H1 1_555 1_555
N3 H2 1_555 1_555
N4 C15 1_555 1_555
C1 H3 1_555 1_555
C2 C1 1_555 1_555
H4 C2 1_555 1_555
C3 C2 1_555 1_555
H5 C3 1_555 1_555
C4 N2 1_555 1_555
C5 N1 1_555 1_555
H6 C5 1_555 1_555
C6 N2 1_555 1_555
C7 C6 1_555 1_555
H7 C7 1_555 1_555
H8 C7 1_555 1_555
C8 C7 1_555 1_555
H9 C8 1_555 1_555
H10 C8 1_555 1_555
C9 C8 1_555 1_555
H11 C9 1_555 1_555
H12 C9 1_555 1_555
C10 C9 1_555 1_555
H13 C10 1_555 1_555
H14 C10 1_555 1_555
C11 N3 1_555 1_555
C12 N3 1_555 1_555
C13 C12 1_555 1_555
H15 C13 1_555 1_555
C14 C13 1_555 1_555
H16 C14 1_555 1_555
C15 C14 1_555 1_555
H17 C15 1_555 1_555
C16 N4 1_555 1_555
H18 C16 1_555 1_555
S1 O3 1_555 1_555
O4 S1 1_555 1_555
O5 S1 1_555 1_555
C17 S1 1_555 1_555
C18 C17 1_555 1_555
H19 C18 1_555 1_555
C19 C18 1_555 1_555
H20 C19 1_555 1_555
C20 C19 1_555 1_555
C21 C20 1_555 1_555
H21 C21 1_555 1_555
C22 C17 1_555 1_555
H22 C22 1_555 1_555
C23 C20 1_555 1_555
H23 C23 1_555 1_555
H24 C23 1_555 1_555
H25 C23 1_555 1_555
N5 C24 1_555 1_555
C24 C25 1_555 1_555
C25 H26 1_555 1_555
H27 C25 1_555 1_555
H28 C25 1_555 1_555
Ag1A N4 1_555 1_555
N4A Ag1 1_555 1_555
C3 C4 1_555 1_555
C4 C5 1_555 1_555
C10 C11 1_555 1_555
C12 C16 1_555 1_555
C21 C22 1_555 1_555

#END
