
#######################################################################
#
#                 Cambridge Crystallographic Data Centre
#                                CCDC 
#
#######################################################################
#
# If this CIF has been generated from an entry in the Cambridge 
# Structural Database, then it will include bibliographic, chemical, 
# crystal, experimental, refinement or atomic coordinate data resulting 
# from the CCDC's data processing and validation procedures.
#
#######################################################################

data_DATKIU
_symmetry_cell_setting           monoclinic
_symmetry_space_group_name_H-M   'P 21/c'
_symmetry_Int_Tables_number      14
_space_group_name_Hall           '-P 2ybc'
loop_
_symmetry_equiv_pos_site_id
_symmetry_equiv_pos_as_xyz
1 x,y,z
2 -x,1/2+y,1/2-z
3 -x,-y,-z
4 x,1/2-y,1/2+z
_cell_length_a                   8.8012(2)
_cell_length_b                   29.8243(9)
_cell_length_c                   13.6026(4)
_cell_angle_alpha                90
_cell_angle_beta                 99.818(3)
_cell_angle_gamma                90
_cell_volume                     3518.25
loop_
_atom_site_label
_atom_site_type_symbol
_atom_site_fract_x
_atom_site_fract_y
_atom_site_fract_z
Ag1 Ag 0.34527(4) 0.736760(11) 0.08130(2)
O1 O 0.0818(4) 0.74394(10) 0.3969(2)
O2 O -0.3600(4) 0.74405(10) 0.7881(2)
N1 N 0.2671(4) 0.79188(12) 0.1591(2)
N2 N 0.0392(4) 0.81736(11) 0.3575(2)
H1 H -0.0074 0.8410 0.3730
N3 N -0.3691(4) 0.66786(12) 0.7872(2)
H2 H -0.3331 0.6447 0.7613
N4 N -0.5864(4) 0.68295(11) 0.9948(2)
C1 C 0.2781(5) 0.83282(15) 0.1218(3)
H3 H 0.3315 0.8367 0.0691
C2 C 0.2125(5) 0.86969(15) 0.1593(3)
H4 H 0.2218 0.8980 0.1322
C3 C 0.1327(5) 0.86411(15) 0.2378(3)
H5 H 0.0864 0.8886 0.2632
C4 C 0.1223(4) 0.82173(14) 0.2783(3)
C5 C 0.1920(5) 0.78613(14) 0.2368(3)
H6 H 0.1867 0.7576 0.2634
C6 C 0.0243(5) 0.78006(14) 0.4124(3)
C7 C -0.0637(5) 0.78697(14) 0.4977(3)
H7 H -0.1487 0.8074 0.4765
H8 H 0.0041 0.8007 0.5532
C8 C -0.1268(5) 0.74335(14) 0.5325(3)
H9 H -0.0439 0.7216 0.5458
H10 H -0.2041 0.7315 0.4795
C9 C -0.1984(5) 0.74932(14) 0.6262(3)
H11 H -0.1213 0.7609 0.6797
H12 H -0.2816 0.7710 0.6133
C10 C -0.2606(5) 0.70510(14) 0.6583(3)
H13 H -0.3367 0.6937 0.6040
H14 H -0.1768 0.6836 0.6703
C11 C -0.3336(5) 0.70840(14) 0.7509(3)
C12 C -0.4575(4) 0.65939(14) 0.8619(3)
C13 C -0.5079(5) 0.61590(14) 0.8732(3)
H15 H -0.4812 0.5930 0.8329
C14 C -0.5981(5) 0.60676(15) 0.9446(3)
H16 H -0.6322 0.5777 0.9529
C15 C -0.6370(5) 0.64113(14) 1.0034(3)
H17 H -0.7001 0.6351 1.0501
C16 C -0.4992(4) 0.69234(14) 0.9251(3)
H18 H -0.4657 0.7216 0.9190
Ag1_2 Ag -0.65473(4) 0.736760(11) 1.08130(2)
N4_2 N 0.4136(4) 0.68295(11) -0.0052(2)
B1 B -0.2985(6) 0.49688(18) 0.2677(4)
F1 F -0.3342(4) 0.47526(12) 0.3515(2)
F2 F -0.2135(4) 0.53470(10) 0.2983(3)
F3 F -0.4320(4) 0.50817(12) 0.2046(2)
F4 F -0.2113(4) 0.46845(10) 0.2199(2)
O3 O 0.1929(4) 0.66708(12) 0.1906(2)
N5 N -0.0033(5) 0.64229(13) 0.2660(3)
C17 C 0.1302(5) 0.66283(15) 0.2642(3)
H19 H 0.1806 0.6751 0.3238
C18 C -0.0742(7) 0.64297(19) 0.3554(4)
H20 H -0.0048 0.6567 0.4091
H21 H -0.0960 0.6128 0.3735
H22 H -0.1684 0.6598 0.3424
C19 C -0.0923(6) 0.62277(17) 0.1768(3)
H23 H -0.0338 0.6241 0.1234
H24 H -0.1867 0.6392 0.1584
H25 H -0.1153 0.5921 0.1895
O4 O 0.4745(3) 0.80208(10) -0.0451(2)
N6 N 0.5184(4) 0.86217(13) -0.1386(3)
C20 C 0.4825(5) 0.81956(14) -0.1261(3)
H26 H 0.4619 0.8016 -0.1827
C21 C 0.5508(7) 0.89147(17) -0.0530(4)
H27 H 0.5499 0.8744 0.0068
H28 H 0.4736 0.9145 -0.0582
H29 H 0.6504 0.9050 -0.0507
C22 C 0.5129(6) 0.88100(18) -0.2378(4)
H30 H 0.4895 0.8577 -0.2868
H31 H 0.6112 0.8940 -0.2428
H32 H 0.4347 0.9037 -0.2494
O5 O 0.9223(4) 0.59811(11) -0.0713(2)
N7 N 0.8371(4) 0.52570(12) -0.0808(3)
C23 C 0.9178(5) 0.56021(16) -0.1071(3)
H33 H 0.9759 0.5551 -0.1571
C24 C 0.7397(6) 0.53020(17) -0.0053(4)
H34 H 0.7467 0.5603 0.0202
H35 H 0.7732 0.5095 0.0481
H36 H 0.6347 0.5238 -0.0344
C25 C 0.8419(6) 0.48194(16) -0.1271(4)
H37 H 0.9105 0.4830 -0.1749
H38 H 0.7404 0.4739 -0.1602
H39 H 0.8781 0.4600 -0.0768
O6 O 0.7350(4) 0.59451(11) -0.3142(2)
N8 N 0.7763(5) 0.52797(13) -0.3848(3)
C26 C 0.7017(6) 0.55512(17) -0.3318(3)
H40 H 0.6185 0.5434 -0.3064
C27 C 0.7323(11) 0.4815(2) -0.4002(5)
H41 H 0.6466 0.4752 -0.3671
H42 H 0.8177 0.4627 -0.3733
H43 H 0.7032 0.4758 -0.4703
C28 C 0.9036(6) 0.54402(19) -0.4299(4)
H44 H 0.9202 0.5753 -0.4150
H45 H 0.8799 0.5400 -0.5009
H46 H 0.9951 0.5274 -0.4037
loop_
_geom_bond_atom_site_label_1
_geom_bond_atom_site_label_2
_geom_bond_site_symmetry_1
_geom_bond_site_symmetry_2
Ag1 N1 1_555 1_555
O1 C6 1_555 1_555
O2 C11 1_555 1_555
N1 C1 1_555 1_555
N2 H1 1_555 1_555
N3 H2 1_555 1_555
N4 C15 1_555 1_555
C1 H3 1_555 1_555
C2 C1 1_555 1_555
H4 C2 1_555 1_555
C3 C2 1_555 1_555
H5 C3 1_555 1_555
C4 N2 1_555 1_555
C5 N1 1_555 1_555
H6 C5 1_555 1_555
C6 N2 1_555 1_555
C7 C6 1_555 1_555
H7 C7 1_555 1_555
H8 C7 1_555 1_555
C8 C7 1_555 1_555
H9 C8 1_555 1_555
H10 C8 1_555 1_555
C9 C8 1_555 1_555
H11 C9 1_555 1_555
H12 C9 1_555 1_555
C10 C9 1_555 1_555
H13 C10 1_555 1_555
H14 C10 1_555 1_555
C11 N3 1_555 1_555
C12 N3 1_555 1_555
C13 C12 1_555 1_555
H15 C13 1_555 1_555
C14 C13 1_555 1_555
H16 C14 1_555 1_555
C15 C14 1_555 1_555
H17 C15 1_555 1_555
C16 N4 1_555 1_555
H18 C16 1_555 1_555
B1 F1 1_555 1_555
F2 B1 1_555 1_555
F3 B1 1_555 1_555
F4 B1 1_555 1_555
O3 C17 1_555 1_555
N5 C17 1_555 1_555
C17 H19 1_555 1_555
C18 N5 1_555 1_555
H20 C18 1_555 1_555
H21 C18 1_555 1_555
H22 C18 1_555 1_555
C19 N5 1_555 1_555
H23 C19 1_555 1_555
H24 C19 1_555 1_555
H25 C19 1_555 1_555
O4 C20 1_555 1_555
N6 C20 1_555 1_555
C20 H26 1_555 1_555
C21 N6 1_555 1_555
H27 C21 1_555 1_555
H28 C21 1_555 1_555
H29 C21 1_555 1_555
C22 N6 1_555 1_555
H30 C22 1_555 1_555
H31 C22 1_555 1_555
H32 C22 1_555 1_555
O5 C23 1_555 1_555
N7 C23 1_555 1_555
C23 H33 1_555 1_555
C24 N7 1_555 1_555
H34 C24 1_555 1_555
H35 C24 1_555 1_555
H36 C24 1_555 1_555
C25 N7 1_555 1_555
H37 C25 1_555 1_555
H38 C25 1_555 1_555
H39 C25 1_555 1_555
O6 C26 1_555 1_555
N8 C26 1_555 1_555
C26 H40 1_555 1_555
C27 N8 1_555 1_555
H41 C27 1_555 1_555
H42 C27 1_555 1_555
H43 C27 1_555 1_555
C28 N8 1_555 1_555
H44 C28 1_555 1_555
H45 C28 1_555 1_555
H46 C28 1_555 1_555
Ag1_2 N4 1_555 1_555
N4_2 Ag1 1_555 1_555
C3 C4 1_555 1_555
C4 C5 1_555 1_555
C10 C11 1_555 1_555
C12 C16 1_555 1_555

#END
