
#######################################################################
#
#                 Cambridge Crystallographic Data Centre
#                                CCDC 
#
#######################################################################
#
# If this CIF has been generated from an entry in the Cambridge 
# Structural Database, then it will include bibliographic, chemical, 
# crystal, experimental, refinement or atomic coordinate data resulting 
# from the CCDC's data processing and validation procedures.
#
#######################################################################

data_DATMUH
_symmetry_cell_setting           orthorhombic
_symmetry_space_group_name_H-M   'P b c n'
_symmetry_Int_Tables_number      60
_space_group_name_Hall           '-P 2n 2ab'
loop_
_symmetry_equiv_pos_site_id
_symmetry_equiv_pos_as_xyz
1 x,y,z
2 1/2-x,1/2-y,1/2+z
3 -x,y,1/2-z
4 1/2+x,1/2-y,-z
5 -x,-y,-z
6 1/2+x,1/2+y,1/2-z
7 x,-y,1/2+z
8 1/2-x,1/2+y,z
_cell_length_a                   10.338(2)
_cell_length_b                   13.226(3)
_cell_length_c                   13.162(3)
_cell_angle_alpha                90
_cell_angle_beta                 90
_cell_angle_gamma                90
_cell_volume                     1799.65
loop_
_atom_site_label
_atom_site_type_symbol
_atom_site_fract_x
_atom_site_fract_y
_atom_site_fract_z
Cd1 Cd 0.708569(19) 0.181159(14) 0.416183(16)
C1 C 0.7939(3) 0.4275(2) 0.4378(2)
H1 H 0.8800 0.4190 0.4563
C2 C 0.6132(2) 0.49753(18) 0.39956(16)
C3 C 0.5980(2) 0.39368(17) 0.39700(16)
C4 C 0.4846(2) 0.33028(18) 0.37570(19)
C5 C 0.5228(2) 0.58134(17) 0.37952(18)
N1 N 0.7133(2) 0.35019(18) 0.42136(18)
N2 N 0.7395(2) 0.51813(16) 0.42533(17)
O1 O 0.7048(3) 0.1592(3) 0.2407(2)
H2 H 0.6443 0.1602 0.2015
H3 H 0.7683 0.1464 0.2068
O2 O 0.6171(3) 0.17261(16) 0.58027(17)
H4 H 0.5768 0.2133 0.5979
H5 H 0.6714 0.1655 0.6074
O3 O 0.49427(17) 0.23710(13) 0.37821(15)
O4 O 0.37716(17) 0.37453(14) 0.35370(15)
O5 O 0.40721(16) 0.55788(13) 0.35310(14)
O6 O 0.56043(19) 0.66952(12) 0.38966(15)
Cd1G Cd 0.791431(19) 0.681159(14) 0.416183(16)
N2G N 0.7605(2) 0.01813(16) 0.42533(17)
O6G O 0.93957(19) 0.16952(12) 0.38966(15)
loop_
_geom_bond_atom_site_label_1
_geom_bond_atom_site_label_2
_geom_bond_site_symmetry_1
_geom_bond_site_symmetry_2
Cd1 N1 1_555 1_555
C1 H1 1_555 1_555
C2 C3 1_555 1_555
C3 C4 1_555 1_555
C4 O3 1_555 1_555
C5 C2 1_555 1_555
N1 C1 1_555 1_555
N2 C1 1_555 1_555
O1 Cd1 1_555 1_555
H2 O1 1_555 1_555
H3 O1 1_555 1_555
O2 Cd1 1_555 1_555
H4 O2 1_555 1_555
H5 O2 1_555 1_555
O3 Cd1 1_555 1_555
O4 C4 1_555 1_555
O5 C5 1_555 1_555
O6 C5 1_555 1_555
Cd1G N2 1_555 1_555
N2G Cd1 1_555 1_555
O6G Cd1 1_555 1_555
C2 N2 1_555 1_555
C3 N1 1_555 1_555
O6 Cd1G 1_555 1_555

#END
