
#######################################################################
#
#                 Cambridge Crystallographic Data Centre
#                                CCDC 
#
#######################################################################
#
# If this CIF has been generated from an entry in the Cambridge 
# Structural Database, then it will include bibliographic, chemical, 
# crystal, experimental, refinement or atomic coordinate data resulting 
# from the CCDC's data processing and validation procedures.
#
#######################################################################

data_DATNES
_symmetry_cell_setting           triclinic
_symmetry_space_group_name_H-M   'P -1'
_symmetry_Int_Tables_number      2
_space_group_name_Hall           '-P 1'
loop_
_symmetry_equiv_pos_site_id
_symmetry_equiv_pos_as_xyz
1 x,y,z
2 -x,-y,-z
_cell_length_a                   7.5870(3)
_cell_length_b                   7.8092(2)
_cell_length_c                   8.2104(2)
_cell_angle_alpha                95.839(2)
_cell_angle_beta                 109.563(2)
_cell_angle_gamma                99.5246(18)
_cell_volume                     445.543
loop_
_atom_site_label
_atom_site_type_symbol
_atom_site_fract_x
_atom_site_fract_y
_atom_site_fract_z
Ag1 Ag 0.34597(2) 0.10219(2) 0.41929(2)
C1 C 0.2504(3) 0.3881(3) 0.6341(3)
H1 H 0.1265 0.3172 0.5706
C2 C 0.2663(3) 0.5424(3) 0.7405(3)
H2 H 0.1551 0.5779 0.7482
C3 C 0.4459(3) 0.6449(3) 0.8359(3)
H3 H 0.4604 0.7521 0.9099
C4 C 0.6043(3) 0.5880(3) 0.8213(3)
H4 H 0.7295 0.6552 0.8870
C5 C 0.5792(3) 0.4319(3) 0.7100(3)
C6 C 0.7491(3) 0.3664(3) 0.6935(3)
H5 H 0.8505 0.4686 0.7028
H6 H 0.7107 0.2940 0.5761
C7 C 0.8303(3) 0.2568(3) 0.8332(3)
H7 H 0.9519 0.2320 0.8268
H8 H 0.8586 0.3250 0.9507
N1 N 0.4035(3) 0.3336(2) 0.6164(2)
N2 N 0.6948(3) 0.0881(3) 0.8098(2)
H9 H 0.7385 0.0397 0.9046
H10 H 0.5855 0.1078 0.8163
N3 N 0.1563(3) -0.0573(3) 0.7339(2)
O1 O 0.1638(2) -0.0959(2) 0.5852(2)
O2 O 0.0193(2) -0.1345(2) 0.7708(2)
O3 O 0.2881(3) 0.0560(2) 0.8479(2)
Ag1A Ag 0.65403(2) -0.10219(2) 0.58071(2)
Ag1A_2 Ag -0.34597(2) -0.10219(2) 0.58071(2)
N2A N 0.3052(3) -0.0881(3) 0.1902(2)
H9A H 0.2615 -0.0397 0.0954
H10A H 0.4145 -0.1078 0.1837
O2A O -0.0193(2) 0.1345(2) 0.2292(2)
loop_
_geom_bond_atom_site_label_1
_geom_bond_atom_site_label_2
_geom_bond_site_symmetry_1
_geom_bond_site_symmetry_2
Ag1 N1 1_555 1_555
C1 H1 1_555 1_555
C2 C1 1_555 1_555
H2 C2 1_555 1_555
C3 C2 1_555 1_555
H3 C3 1_555 1_555
C4 C3 1_555 1_555
H4 C4 1_555 1_555
C5 C4 1_555 1_555
C6 C5 1_555 1_555
H5 C6 1_555 1_555
H6 C6 1_555 1_555
C7 C6 1_555 1_555
H7 C7 1_555 1_555
H8 C7 1_555 1_555
N1 C1 1_555 1_555
N2 C7 1_555 1_555
H9 N2 1_555 1_555
H10 N2 1_555 1_555
N3 O1 1_555 1_555
O1 Ag1 1_555 1_555
O2 N3 1_555 1_555
O3 N3 1_555 1_555
Ag1A Ag1 1_555 1_555
Ag1A_2 O2 1_555 1_555
N2A Ag1 1_555 1_555
H9A N2A 1_555 1_555
H10A N2A 1_555 1_555
O2A Ag1 1_555 1_555
C5 N1 1_555 1_555
N2 Ag1A 1_555 1_555

#END
