
#######################################################################
#
#                 Cambridge Crystallographic Data Centre
#                                CCDC 
#
#######################################################################
#
# If this CIF has been generated from an entry in the Cambridge 
# Structural Database, then it will include bibliographic, chemical, 
# crystal, experimental, refinement or atomic coordinate data resulting 
# from the CCDC's data processing and validation procedures.
#
#######################################################################

data_DATXOL
_symmetry_cell_setting           monoclinic
_symmetry_space_group_name_H-M   'B 1 1 2/b'
_symmetry_Int_Tables_number      15
_space_group_name_Hall           '-B 2n'
loop_
_symmetry_equiv_pos_site_id
_symmetry_equiv_pos_as_xyz
1 x,y,z
2 1/2+x,y,1/2+z
3 -x,1/2-y,z
4 1/2-x,1/2-y,1/2+z
5 -x,-y,-z
6 1/2-x,-y,1/2-z
7 x,1/2+y,-z
8 1/2+x,1/2+y,1/2-z
_cell_length_a                   15.060(4)
_cell_length_b                   12.616(2)
_cell_length_c                   12.724(4)
_cell_angle_alpha                90
_cell_angle_beta                 90
_cell_angle_gamma                111.99(2)
_cell_volume                     2241.64
loop_
_atom_site_label
_atom_site_type_symbol
_atom_site_fract_x
_atom_site_fract_y
_atom_site_fract_z
Cu1 Cu 0.5000 0.2500 0.2160(1)
N1 N 0.4077(3) 0.2883(4) 0.3073(4)
N2 N 0.0640(4) -0.1107(4) 0.3679(4)
C1 C 0.3610(4) 0.3233(5) 0.3555(5)
C2 C 0.2997(4) 0.3678(5) 0.4178(5)
C3 C 0.3614(4) 0.4796(5) 0.4718(5)
C4 C 0.3750(5) 0.4866(6) 0.5733(6)
C5 C 0.3413(6) 0.3900(7) 0.6480(6)
C6 C 0.3024(6) 0.2750(6) 0.5922(5)
C7 C 0.2408(4) 0.2792(5) 0.5008(5)
C8 C 0.1939(6) 0.1645(7) 0.4489(6)
C9 C 0.1364(8) 0.0839(7) 0.4590(6)
C10 C 0.0969(5) -0.0250(6) 0.4082(5)
H1 H 0.255(3) 0.382(4) 0.361(4)
H2 H 0.383(4) 0.539(5) 0.421(4)
H3 H 0.413(4) 0.564(5) 0.588(4)
H4 H 0.285(4) 0.397(5) 0.691(5)
H5 H 0.382(4) 0.388(5) 0.693(5)
H6 H 0.367(3) 0.254(4) 0.559(4)
H7 H 0.272(3) 0.215(4) 0.642(4)
H8 H 0.186(3) 0.303(4) 0.525(4)
H9 H 0.156(4) 0.177(5) 0.379(5)
H10 H 0.177(4) 0.074(5) 0.495(5)
N1B N 0.5923(3) 0.2117(4) 0.3073(4)
N2B N 0.9360(4) 0.6107(4) 0.3679(4)
C1B C 0.6390(4) 0.1767(5) 0.3555(5)
C2B C 0.7003(4) 0.1322(5) 0.4178(5)
C3B C 0.6386(4) 0.0204(5) 0.4718(5)
C4B C 0.6250(5) 0.0134(6) 0.5733(6)
C5B C 0.6587(6) 0.1100(7) 0.6480(6)
C6B C 0.6976(6) 0.2250(6) 0.5922(5)
C7B C 0.7592(4) 0.2208(5) 0.5008(5)
C8B C 0.8061(6) 0.3355(7) 0.4489(6)
C9B C 0.8636(8) 0.4161(7) 0.4590(6)
C10B C 0.9031(5) 0.5250(6) 0.4082(5)
H1B H 0.745(3) 0.118(4) 0.361(4)
H2B H 0.617(4) -0.039(5) 0.421(4)
H3B H 0.587(4) -0.064(5) 0.588(4)
H4B H 0.715(4) 0.103(5) 0.691(5)
H5B H 0.618(4) 0.112(5) 0.693(5)
H6B H 0.633(3) 0.246(4) 0.559(4)
H7B H 0.728(3) 0.285(4) 0.642(4)
H8B H 0.814(3) 0.197(4) 0.525(4)
H9B H 0.844(4) 0.323(5) 0.379(5)
H10B H 0.823(4) 0.426(5) 0.495(5)
N2E N 0.4360(4) 0.1107(4) 0.1321(4)
N2G N 0.5640(4) 0.3893(4) 0.1321(4)
Cu1E Cu 0.0000 -0.2500 0.2840(1)
Cu1E_2 Cu 1.0000 0.7500 0.2840(1)
Cu2 Cu 0.5000 0.7500 0.1990(1)
Cl1 Cl 0.4015(2) 0.5812(2) 0.1972(2)
Cl1B Cl 0.5985(2) 0.9188(2) 0.1972(2)
loop_
_geom_bond_atom_site_label_1
_geom_bond_atom_site_label_2
_geom_bond_site_symmetry_1
_geom_bond_site_symmetry_2
Cu1 N1 1_555 1_555
Cu2 Cl1 1_555 1_555
N1 C1 1_555 1_555
N2 C10 1_555 1_555
C1 C2 1_555 1_555
C2 C3 1_555 1_555
C3 C4 1_555 1_555
C4 C5 1_555 1_555
C5 C6 1_555 1_555
C6 C7 1_555 1_555
C7 C2 1_555 1_555
C8 C7 1_555 1_555
C9 C8 1_555 1_555
C10 C9 1_555 1_555
H1 C2 1_555 1_555
H2 C3 1_555 1_555
H3 C4 1_555 1_555
H4 C5 1_555 1_555
H5 C5 1_555 1_555
H6 C6 1_555 1_555
H7 C6 1_555 1_555
H8 C7 1_555 1_555
H9 C8 1_555 1_555
H10 C9 1_555 1_555
N1B Cu1 1_555 1_555
N2B C10B 1_555 1_555
C1B N1B 1_555 1_555
C2B C1B 1_555 1_555
C3B C2B 1_555 1_555
C4B C3B 1_555 1_555
C5B C4B 1_555 1_555
C6B C5B 1_555 1_555
C7B C2B 1_555 1_555
C8B C7B 1_555 1_555
C9B C8B 1_555 1_555
C10B C9B 1_555 1_555
H1B C2B 1_555 1_555
H2B C3B 1_555 1_555
H3B C4B 1_555 1_555
H4B C5B 1_555 1_555
H5B C5B 1_555 1_555
H6B C6B 1_555 1_555
H7B C6B 1_555 1_555
H8B C7B 1_555 1_555
H9B C8B 1_555 1_555
H10B C9B 1_555 1_555
Cl1B Cu2 1_555 1_555
N2E Cu1 1_555 1_555
N2G Cu1 1_555 1_555
Cu1E N2 1_555 1_555
Cu1E_2 N2B 1_555 1_555
C6B C7B 1_555 1_555

#END
