
#######################################################################
#
#                 Cambridge Crystallographic Data Centre
#                                CCDC 
#
#######################################################################
#
# If this CIF has been generated from an entry in the Cambridge 
# Structural Database, then it will include bibliographic, chemical, 
# crystal, experimental, refinement or atomic coordinate data resulting 
# from the CCDC's data processing and validation procedures.
#
#######################################################################

data_DATXUR
_symmetry_cell_setting           monoclinic
_symmetry_space_group_name_H-M   'B 1 1 2/b'
_symmetry_Int_Tables_number      15
_space_group_name_Hall           '-B 2n'
loop_
_symmetry_equiv_pos_site_id
_symmetry_equiv_pos_as_xyz
1 x,y,z
2 1/2+x,y,1/2+z
3 -x,1/2-y,z
4 1/2-x,1/2-y,1/2+z
5 -x,-y,-z
6 1/2-x,-y,1/2-z
7 x,1/2+y,-z
8 1/2+x,1/2+y,1/2-z
_cell_length_a                   15.051(2)
_cell_length_b                   12.706(2)
_cell_length_c                   12.975(2)
_cell_angle_alpha                90
_cell_angle_beta                 90
_cell_angle_gamma                112.36(1)
_cell_volume                     2294.75
loop_
_atom_site_label
_atom_site_type_symbol
_atom_site_fract_x
_atom_site_fract_y
_atom_site_fract_z
Cu1 Cu 0.5000 0.2500 0.2274(3)
N1 N 0.4051(11) 0.2833(12) 0.3198(12)
N2 N 0.0635(11) -0.1102(12) 0.3583(12)
C1 C 0.3597(13) 0.3175(15) 0.3656(16)
C2 C 0.2967(12) 0.3600(14) 0.4245(14)
C3 C 0.3602(13) 0.4702(16) 0.4819(15)
C4 C 0.3699(14) 0.4714(17) 0.5862(15)
C5 C 0.3266(16) 0.3706(16) 0.6595(15)
C6 C 0.2931(15) 0.2590(18) 0.5996(16)
C7 C 0.2294(14) 0.2693(15) 0.5074(14)
C8 C 0.1830(19) 0.1673(20) 0.4450(18)
C9 C 0.1450(21) 0.0801(17) 0.4541(16)
C10 C 0.0997(17) -0.0276(18) 0.3998(16)
N1B N 0.5949(11) 0.2167(12) 0.3198(12)
N2B N 0.9365(11) 0.6102(12) 0.3583(12)
C1B C 0.6403(13) 0.1825(15) 0.3656(16)
C2B C 0.7033(12) 0.1400(14) 0.4245(14)
C3B C 0.6398(13) 0.0298(16) 0.4819(15)
C4B C 0.6301(14) 0.0286(17) 0.5862(15)
C5B C 0.6734(16) 0.1294(16) 0.6595(15)
C6B C 0.7069(15) 0.2410(18) 0.5996(16)
C7B C 0.7706(14) 0.2307(15) 0.5074(14)
C8B C 0.8170(19) 0.3327(20) 0.4450(18)
C9B C 0.8550(21) 0.4199(17) 0.4541(16)
C10B C 0.9003(17) 0.5276(18) 0.3998(16)
N2E N 0.4365(11) 0.1102(12) 0.1417(12)
N2G N 0.5635(11) 0.3898(12) 0.1417(12)
Cu1E Cu 0.0000 -0.2500 0.2726(3)
Cu1E_2 Cu 1.0000 0.7500 0.2726(3)
Cu2 Cu 0.5000 0.7500 0.2069(3)
Br1 Br 0.3968(2) 0.5712(2) 0.2045(2)
Br1B Br 0.6032(2) 0.9288(2) 0.2045(2)
loop_
_geom_bond_atom_site_label_1
_geom_bond_atom_site_label_2
_geom_bond_site_symmetry_1
_geom_bond_site_symmetry_2
Cu1 N1 1_555 1_555
Cu2 Br1 1_555 1_555
N1 C1 1_555 1_555
N2 C10 1_555 1_555
C1 C2 1_555 1_555
C2 C3 1_555 1_555
C3 C4 1_555 1_555
C4 C5 1_555 1_555
C5 C6 1_555 1_555
C6 C7 1_555 1_555
C7 C2 1_555 1_555
C8 C7 1_555 1_555
C9 C8 1_555 1_555
C10 C9 1_555 1_555
N1B Cu1 1_555 1_555
N2B C10B 1_555 1_555
C1B N1B 1_555 1_555
C2B C1B 1_555 1_555
C3B C2B 1_555 1_555
C4B C3B 1_555 1_555
C5B C4B 1_555 1_555
C6B C5B 1_555 1_555
C7B C2B 1_555 1_555
C8B C7B 1_555 1_555
C9B C8B 1_555 1_555
C10B C9B 1_555 1_555
Br1B Cu2 1_555 1_555
N2E Cu1 1_555 1_555
N2G Cu1 1_555 1_555
Cu1E N2 1_555 1_555
Cu1E_2 N2B 1_555 1_555
C6B C7B 1_555 1_555

#END
