
#######################################################################
#
#                 Cambridge Crystallographic Data Centre
#                                CCDC 
#
#######################################################################
#
# If this CIF has been generated from an entry in the Cambridge 
# Structural Database, then it will include bibliographic, chemical, 
# crystal, experimental, refinement or atomic coordinate data resulting 
# from the CCDC's data processing and validation procedures.
#
#######################################################################

data_DAVVAZ
_symmetry_cell_setting           triclinic
_symmetry_space_group_name_H-M   'P -1'
_symmetry_Int_Tables_number      2
_space_group_name_Hall           '-P 1'
loop_
_symmetry_equiv_pos_site_id
_symmetry_equiv_pos_as_xyz
1 x,y,z
2 -x,-y,-z
_cell_length_a                   7.5696(15)
_cell_length_b                   8.4697(17)
_cell_length_c                   22.098(2)
_cell_angle_alpha                96.98(3)
_cell_angle_beta                 93.00(3)
_cell_angle_gamma                90.111(3)
_cell_volume                     1404.28
loop_
_atom_site_label
_atom_site_type_symbol
_atom_site_fract_x
_atom_site_fract_y
_atom_site_fract_z
Cu1 Cu 1.0000 0.0000 0.5000
O2 O 0.7269(6) 0.1107(5) 0.4543(2)
N1 N 0.8779(7) -0.2055(6) 0.5161(2)
N2 N 0.7922(7) 0.0127(6) 0.6639(2)
O5 O 0.5119(7) 0.2070(5) 0.5772(2)
N5 N 0.7876(11) 0.2236(8) 0.7782(3)
N8 N 0.9273(7) 0.2032(6) 0.6249(3)
C1 C 0.8430(9) -0.0461(8) 0.6083(3)
C2 C 0.8118(8) -0.2005(7) 0.5723(3)
C3 C 0.7073(11) -0.4680(9) 0.5496(4)
N9 N 0.6849(9) -0.0759(7) 0.7004(3)
C6 C 0.8470(9) 0.1688(8) 0.6732(3)
C7 C 0.8591(10) -0.3397(9) 0.4775(4)
C9 C 0.5058(8) 0.0946(8) 0.5354(3)
N12 N 0.9242(7) 0.0669(6) 0.5839(2)
C17 C 0.6031(8) 0.0525(7) 0.4808(3)
C18 C 0.8026(10) 0.2840(9) 0.7255(3)
C21 C 0.7253(10) -0.3287(8) 0.5903(3)
C22 C 0.7393(13) 0.5444(10) 0.7680(4)
C23 C 0.7125(13) 0.4865(11) 0.8225(4)
C24 C 0.7727(10) -0.4726(8) 0.4938(3)
C27 C 0.7856(14) 0.4412(10) 0.7193(4)
C28 C 0.7457(16) 0.3289(12) 0.8252(4)
H1 H 0.680(7) -0.313(7) 0.630(3)
H4 H 0.648(10) -0.546(9) 0.561(3)
H6 H 0.723(8) -0.050(7) 0.734(3)
H7 H 0.791(7) -0.581(7) 0.467(3)
H9 H 0.721(12) 0.542(10) 0.856(4)
H12 H 0.793(14) 0.467(12) 0.687(4)
H13 H 0.745(11) 0.294(9) 0.856(4)
H19 H 0.734(8) 0.643(8) 0.770(3)
H20 H 0.903(12) -0.354(11) 0.447(4)
Cu1_2 Cu 0.0000 0.0000 0.5000
O2A O 0.2731(6) -0.1107(5) 0.5457(2)
O2A_2 O 1.2731(6) -0.1107(5) 0.5457(2)
N1A N 1.1221(7) 0.2055(6) 0.4839(2)
N2A N 1.2078(7) -0.0127(6) 0.3361(2)
O5A O 0.4881(7) -0.2070(5) 0.4228(2)
N5A N 1.2124(11) -0.2236(8) 0.2218(3)
N8A N 1.0727(7) -0.2032(6) 0.3751(3)
C1A C 1.1570(9) 0.0461(8) 0.3917(3)
C2A C 1.1882(8) 0.2005(7) 0.4277(3)
C3A C 1.2927(11) 0.4680(9) 0.4504(4)
N9A N 1.3151(9) 0.0759(7) 0.2996(3)
C6A C 1.1530(9) -0.1688(8) 0.3268(3)
C7A C 1.1409(10) 0.3397(9) 0.5225(4)
C9A C 0.4942(8) -0.0946(8) 0.4646(3)
N12A N 1.0758(7) -0.0669(6) 0.4161(2)
C17A C 0.3969(8) -0.0525(7) 0.5192(3)
C18A C 1.1974(10) -0.2840(9) 0.2745(3)
C21A C 1.2747(10) 0.3287(8) 0.4097(3)
C22A C 1.2607(13) -0.5444(10) 0.2320(4)
C23A C 1.2875(13) -0.4865(11) 0.1775(4)
C24A C 1.2273(10) 0.4726(8) 0.5062(3)
C27A C 1.2144(14) -0.4412(10) 0.2807(4)
C28A C 1.2543(16) -0.3289(12) 0.1748(4)
H1A H 1.320(7) 0.313(7) 0.370(3)
H4A H 1.352(10) 0.546(9) 0.439(3)
H6A H 1.277(8) 0.050(7) 0.266(3)
H7A H 1.209(7) 0.581(7) 0.533(3)
H9A H 1.279(12) -0.542(10) 0.144(4)
H12A H 1.207(14) -0.467(12) 0.313(4)
H13A H 1.255(11) -0.294(9) 0.144(4)
H19A H 1.266(8) -0.643(8) 0.230(3)
H20A H 1.097(12) 0.354(11) 0.553(4)
Cu2 Cu 1.0000 0.0000 1.0000
O1 O 0.4868(6) -0.2081(6) 0.9227(2)
O3 O 0.7264(6) 0.1129(6) 0.9545(2)
N3 N 1.1200(7) 0.2052(6) 0.9838(2)
N4 N 1.2111(8) -0.0113(7) 0.8364(2)
N6 N 1.0723(7) -0.2035(6) 0.8751(2)
N7 N 1.2097(10) -0.2251(7) 0.7213(3)
C4 C 1.1881(8) 0.2016(8) 0.9280(3)
C5 C 1.2137(13) -0.4401(10) 0.7802(4)
C8 C 0.4938(9) -0.0950(8) 0.9655(3)
N10 N 1.3082(12) 0.0744(9) 0.7993(4)
N11 N 1.0757(7) -0.0673(6) 0.9156(2)
C10 C 1.1420(9) 0.3395(9) 1.0217(3)
C11 C 1.2577(14) -0.5442(11) 0.7307(4)
C12 C 1.2952(10) 0.4679(9) 0.9499(4)
C13 C 1.1587(8) 0.0467(7) 0.8922(3)
C14 C 0.5985(9) 0.0495(9) 0.9781(3)
C15 C 1.1577(9) -0.1677(8) 0.8278(3)
C16 C 1.1924(9) -0.2815(8) 0.7740(3)
C19 C 1.2248(9) 0.4739(9) 1.0066(3)
C20 C 1.2808(11) -0.4868(10) 0.6767(4)
C25 C 1.2768(10) 0.3285(8) 0.9094(3)
C26 C 1.2570(16) -0.3278(11) 0.6739(4)
H2 H 1.338(10) 0.552(9) 0.939(4)
H3 H 1.322(9) 0.322(8) 0.867(3)
H5 H 1.302(11) 0.041(9) 0.767(4)
H8 H 1.260(9) 0.558(8) 1.041(3)
H10 H 1.336(8) -0.561(7) 0.646(3)
H14 H 1.215(8) -0.473(7) 0.814(3)
H15 H 1.445(9) 0.064(7) 0.803(3)
H16 H 1.309(12) -0.304(11) 0.642(4)
H17 H 1.095(7) 0.343(6) 1.062(3)
H18 H 1.354(15) -0.609(14) 0.733(5)
Cu2_2 Cu 0.0000 0.0000 1.0000
O1A O 0.5132(6) 0.2081(6) 1.0773(2)
O3A O 0.2736(6) -0.1129(6) 1.0455(2)
O3A_2 O 1.2736(6) -0.1129(6) 1.0455(2)
N3A N 0.8800(7) -0.2052(6) 1.0162(2)
N4A N 0.7889(8) 0.0113(7) 1.1636(2)
N6A N 0.9277(7) 0.2035(6) 1.1249(2)
N7A N 0.7903(10) 0.2251(7) 1.2787(3)
C4A C 0.8119(8) -0.2016(8) 1.0720(3)
C5A C 0.7863(13) 0.4401(10) 1.2198(4)
C8A C 0.5062(9) 0.0950(8) 1.0345(3)
N10A N 0.6918(12) -0.0744(9) 1.2007(4)
N11A N 0.9243(7) 0.0673(6) 1.0844(2)
C10A C 0.8580(9) -0.3395(9) 0.9783(3)
C11A C 0.7423(14) 0.5442(11) 1.2693(4)
C12A C 0.7048(10) -0.4679(9) 1.0501(4)
C13A C 0.8413(8) -0.0467(7) 1.1078(3)
C14A C 0.4015(9) -0.0495(9) 1.0219(3)
C15A C 0.8423(9) 0.1677(8) 1.1722(3)
C16A C 0.8076(9) 0.2815(8) 1.2260(3)
C19A C 0.7752(9) -0.4739(9) 0.9934(3)
C20A C 0.7192(11) 0.4868(10) 1.3233(4)
C25A C 0.7232(10) -0.3285(8) 1.0906(3)
C26A C 0.7430(16) 0.3278(11) 1.3261(4)
H2A H 0.662(10) -0.552(9) 1.061(4)
H3A H 0.678(9) -0.322(8) 1.133(3)
H5A H 0.698(11) -0.041(9) 1.233(4)
H8A H 0.740(9) -0.558(8) 0.959(3)
H10A H 0.664(8) 0.561(7) 1.354(3)
H14A H 0.785(8) 0.473(7) 1.186(3)
H15A H 0.555(9) -0.064(7) 1.197(3)
H16A H 0.691(12) 0.304(11) 1.358(4)
H17A H 0.905(7) -0.343(6) 0.938(3)
H18A H 0.646(15) 0.609(14) 1.267(5)
O4 O 1.6483(7) -0.0749(6) 0.8344(2)
O6 O 0.3430(11) 0.0797(9) 0.6647(3)
H11 H 0.410(7) 0.039(7) 0.671(3)
loop_
_geom_bond_atom_site_label_1
_geom_bond_atom_site_label_2
_geom_bond_site_symmetry_1
_geom_bond_site_symmetry_2
Cu1 O2 1_555 1_555
Cu2 O3 1_555 1_555
O1 C8 1_555 1_555
O2 C17 1_555 1_555
O3 C14 1_555 1_555
N1 Cu1 1_555 1_555
N2 C1 1_555 1_555
O5 C9 1_555 1_555
N3 Cu2 1_555 1_555
N4 N10 1_555 1_555
N5 C18 1_555 1_555
O6 H11 1_555 1_555
N6 N11 1_555 1_555
N7 C16 1_555 1_555
N8 C6 1_555 1_555
C1 C2 1_555 1_555
C2 N1 1_555 1_555
C3 C21 1_555 1_555
N9 N2 1_555 1_555
C4 N3 1_555 1_555
C5 C11 1_555 1_555
C6 N2 1_555 1_555
C7 N1 1_555 1_555
C8 C14 1_555 1_555
C9 C17 1_555 1_555
N10 H5 1_555 1_555
N11 Cu2 1_555 1_555
N12 Cu1 1_555 1_555
C10 N3 1_555 1_555
C11 C20 1_555 1_555
C12 C19 1_555 1_555
C13 N4 1_555 1_555
C14 C8A 1_555 1_555
C15 N4 1_555 1_555
C16 C5 1_555 1_555
C17 C9A 1_555 1_555
C18 C6 1_555 1_555
C19 C10 1_555 1_555
C20 C26 1_555 1_555
C21 C2 1_555 1_555
C22 C23 1_555 1_555
C23 C28 1_555 1_555
C24 C3 1_555 1_555
C25 C4 1_555 1_555
C26 N7 1_555 1_555
C27 C18 1_555 1_555
C28 N5 1_555 1_555
H1 C21 1_555 1_555
H2 C12 1_555 1_555
H3 C25 1_555 1_555
H4 C3 1_555 1_555
H6 N9 1_555 1_555
H7 C24 1_555 1_555
H8 C19 1_555 1_555
H9 C23 1_555 1_555
H10 C20 1_555 1_555
H12 C27 1_555 1_555
H13 C28 1_555 1_555
H14 C5 1_555 1_555
H15 N10 1_555 1_555
H16 C26 1_555 1_555
H17 C10 1_555 1_555
H18 C11 1_555 1_555
H19 C22 1_555 1_555
H20 C7 1_555 1_555
Cu1_2 O2A 1_555 1_555
Cu2_2 O3A 1_555 1_555
O1A C8A 1_555 1_555
O2A C17A 1_555 1_555
O2A_2 Cu1 1_555 1_555
O3A C14A 1_555 1_555
O3A_2 Cu2 1_555 1_555
N1A Cu1 1_555 1_555
N2A C1A 1_555 1_555
O5A C9A 1_555 1_555
N3A Cu2 1_555 1_555
N4A N10A 1_555 1_555
N5A C18A 1_555 1_555
N6A N11A 1_555 1_555
N7A C16A 1_555 1_555
N8A C6A 1_555 1_555
C1A C2A 1_555 1_555
C2A N1A 1_555 1_555
C3A C21A 1_555 1_555
N9A N2A 1_555 1_555
C4A N3A 1_555 1_555
C5A C11A 1_555 1_555
C6A N2A 1_555 1_555
C7A N1A 1_555 1_555
C8A C14A 1_555 1_555
C9A C17A 1_555 1_555
N10A H5A 1_555 1_555
N11A Cu2 1_555 1_555
N12A Cu1 1_555 1_555
C10A N3A 1_555 1_555
C11A C20A 1_555 1_555
C12A C19A 1_555 1_555
C13A N4A 1_555 1_555
C14A C8 1_555 1_555
C15A N4A 1_555 1_555
C16A C5A 1_555 1_555
C17A C9 1_555 1_555
C18A C6A 1_555 1_555
C19A C10A 1_555 1_555
C20A C26A 1_555 1_555
C21A C2A 1_555 1_555
C22A C23A 1_555 1_555
C23A C28A 1_555 1_555
C24A C3A 1_555 1_555
C25A C4A 1_555 1_555
C26A N7A 1_555 1_555
C27A C18A 1_555 1_555
C28A N5A 1_555 1_555
H1A C21A 1_555 1_555
H2A C12A 1_555 1_555
H3A C25A 1_555 1_555
H4A C3A 1_555 1_555
H6A N9A 1_555 1_555
H7A C24A 1_555 1_555
H8A C19A 1_555 1_555
H9A C23A 1_555 1_555
H10A C20A 1_555 1_555
H12A C27A 1_555 1_555
H13A C28A 1_555 1_555
H14A C5A 1_555 1_555
H15A N10A 1_555 1_555
H16A C26A 1_555 1_555
H17A C10A 1_555 1_555
H18A C11A 1_555 1_555
H19A C22A 1_555 1_555
H20A C7A 1_555 1_555
N6 C15 1_555 1_555
N8 N12 1_555 1_555
C1 N12 1_555 1_555
C4 C13 1_555 1_555
C7 C24 1_555 1_555
N11 C13 1_555 1_555
C12 C25 1_555 1_555
C15 C16 1_555 1_555
C22 C27 1_555 1_555
N6A C15A 1_555 1_555
N8A N12A 1_555 1_555
C1A N12A 1_555 1_555
C4A C13A 1_555 1_555
C7A C24A 1_555 1_555
N11A C13A 1_555 1_555
C12A C25A 1_555 1_555
C15A C16A 1_555 1_555
C22A C27A 1_555 1_555

#END
