
#######################################################################
#
#                 Cambridge Crystallographic Data Centre
#                                CCDC 
#
#######################################################################
#
# If this CIF has been generated from an entry in the Cambridge 
# Structural Database, then it will include bibliographic, chemical, 
# crystal, experimental, refinement or atomic coordinate data resulting 
# from the CCDC's data processing and validation procedures.
#
#######################################################################

data_DAVXIJ
_symmetry_cell_setting           triclinic
_symmetry_space_group_name_H-M   'P -1'
_symmetry_Int_Tables_number      2
_space_group_name_Hall           '-P 1'
loop_
_symmetry_equiv_pos_site_id
_symmetry_equiv_pos_as_xyz
1 x,y,z
2 -x,-y,-z
_cell_length_a                   6.8921(6)
_cell_length_b                   8.5612(7)
_cell_length_c                   18.9507(16)
_cell_angle_alpha                96.2950(10)
_cell_angle_beta                 98.0640(10)
_cell_angle_gamma                103.2750(10)
_cell_volume                     1065.8
loop_
_atom_site_label
_atom_site_type_symbol
_atom_site_fract_x
_atom_site_fract_y
_atom_site_fract_z
Co1 Co 0.95574(8) 0.50073(6) 0.24744(3)
O1 O 1.1174(4) 0.6529(3) 0.19244(15)
O2 O 1.1916(4) 0.4273(3) 0.15070(16)
O3 O 1.1553(4) 0.4315(4) 0.31671(17)
O4 O 0.8552(5) 0.3462(4) 0.34515(17)
N1 N 0.8127(5) 0.6721(4) 0.28440(18)
N2 N 0.5908(5) 0.7885(4) 0.32562(19)
N3 N 0.7384(5) 0.3157(4) 0.18696(18)
N4 N 0.4453(5) 0.1402(4) 0.15040(17)
C1 C 0.7597(6) 0.2013(5) 0.1343(2)
H1 H 0.8790 0.1994 0.1170
C2 C 0.1169(6) 0.0302(5) 0.0689(2)
C3 C 0.2301(6) 0.0622(5) 0.1452(2)
H2 H 0.1696 0.1311 0.1747
H3 H 0.2167 -0.0398 0.1642
C4 C 1.2089(6) 0.5733(5) 0.1535(2)
C5 C 0.1603(6) 0.1368(5) 0.0200(2)
H4 H 0.2681 0.2283 0.0330
C6 C 1.3189(6) 0.5403(5) -0.0163(2)
H5 H 1.1961 0.5672 -0.0277
C7 C -0.0441(6) -0.1076(5) 0.0479(2)
H6 H -0.0733 -0.1808 0.0801
C8 C 0.5479(6) 0.2756(5) 0.1951(2)
H7 H 0.4916 0.3335 0.2277
C9 C 0.8480(6) 0.8294(5) 0.2690(2)
H8 H 0.9494 0.8773 0.2449
C10 C 0.5799(6) 0.0912(5) 0.1112(2)
H9 H 0.5529 0.0008 0.0759
C11 C 1.3451(6) 0.6764(5) 0.1102(2)
H10 H 1.2697 0.7450 0.0870
H11 H 1.4591 0.7471 0.1435
C12 C 1.4260(6) 0.5845(5) 0.0534(2)
C13 C 1.6084(6) 0.5430(5) 0.0690(2)
H12 H 1.6827 0.5715 0.1154
C14 C 1.5148(7) 0.3821(6) 0.4469(2)
H13 H 1.5263 0.3025 0.4113
C15 C 0.6607(6) 0.9778(5) 0.4678(2)
H14 H 0.7701 0.9629 0.4466
C16 C 0.4656(6) 0.9094(5) 0.4313(2)
C17 C 0.6569(6) 0.6537(5) 0.3182(2)
H15 H 0.5997 0.5584 0.3349
C18 C 0.3059(6) 0.9322(5) 0.4647(2)
H16 H 0.1739 0.8861 0.4412
C19 C 1.3121(7) 0.5113(6) 0.5137(3)
H17 H 1.1860 0.5196 0.5234
C20 C 0.7124(7) 0.9028(5) 0.2945(2)
H18 H 0.7032 1.0087 0.2916
C21 C 1.1350(7) 0.2797(6) 0.4155(3)
H19 H 1.0375 0.2482 0.4468
H20 H 1.1673 0.1822 0.3946
C22 C 1.3245(7) 0.3921(6) 0.4597(2)
C23 C 0.4153(7) 0.8057(6) 0.3585(2)
H21 H 0.3380 0.6985 0.3632
H22 H 0.3296 0.8519 0.3261
C24 C 1.0398(7) 0.3572(6) 0.3553(2)
Co1A Co 2.04426(8) 0.49927(6) -0.24744(3)
Co1A_2 Co 2.04426(8) 0.49927(6) 0.75256(3)
Co1A_3 Co 0.04426(8) 1.49927(6) 0.75256(3)
Co1A_4 Co -0.95574(8) -0.50073(6) -0.24744(3)
O1A O 1.8826(4) 0.3471(3) -0.19244(15)
O1A_2 O -1.1174(4) -0.6529(3) -0.19244(15)
O2A O 1.8084(4) 0.5727(3) -0.15070(16)
O3A O 1.8447(4) 0.5685(4) 0.68329(17)
O3A_2 O -1.1553(4) -0.4315(4) -0.31671(17)
O4A O 2.1448(5) 0.6538(4) 0.65485(17)
N1A N 0.1873(5) 1.3279(4) 0.71560(18)
N1A_2 N -0.8127(5) -0.6721(4) -0.28440(18)
N2A N 0.4092(5) 1.2115(4) 0.67438(19)
N3A N -0.7384(5) -0.3157(4) -0.18696(18)
N4A N -0.4453(5) -0.1402(4) -0.15040(17)
C1A C -0.7597(6) -0.2013(5) -0.1343(2)
H1A H -0.8790 -0.1994 -0.1170
C2A C -0.1169(6) -0.0302(5) -0.0689(2)
C3A C -0.2301(6) -0.0622(5) -0.1452(2)
H2A H -0.1696 -0.1311 -0.1747
H3A H -0.2167 0.0398 -0.1642
C4A C 1.7911(6) 0.4267(5) -0.1535(2)
C5A C -0.1603(6) -0.1368(5) -0.0200(2)
H4A H -0.2681 -0.2283 -0.0330
C6A C 1.6811(6) 0.4597(5) 0.0163(2)
H5A H 1.8039 0.4328 0.0277
C7A C 0.0441(6) 0.1076(5) -0.0479(2)
H6A H 0.0733 0.1808 -0.0801
C8A C -0.5479(6) -0.2756(5) -0.1951(2)
H7A H -0.4916 -0.3335 -0.2277
C9A C 0.1520(6) 1.1706(5) 0.7310(2)
H8A H 0.0506 1.1227 0.7551
C10A C -0.5799(6) -0.0912(5) -0.1112(2)
H9A H -0.5529 -0.0008 -0.0759
C11A C 1.6549(6) 0.3236(5) -0.1102(2)
H10A H 1.7303 0.2550 -0.0870
H11A H 1.5409 0.2529 -0.1435
C12A C 1.5740(6) 0.4155(5) -0.0534(2)
C13A C 1.3916(6) 0.4570(5) -0.0690(2)
H12A H 1.3173 0.4285 -0.1154
C14A C 1.4852(7) 0.6179(6) 0.5531(2)
H13A H 1.4737 0.6975 0.5887
C15A C 0.3393(6) 1.0222(5) 0.5322(2)
H14A H 0.2299 1.0371 0.5534
C16A C 0.5344(6) 1.0906(5) 0.5687(2)
C17A C 0.3431(6) 1.3463(5) 0.6818(2)
H15A H 0.4003 1.4416 0.6651
C18A C 0.6941(6) 1.0678(5) 0.5353(2)
H16A H 0.8261 1.1139 0.5588
C19A C 1.6879(7) 0.4887(6) 0.4863(3)
H17A H 1.8140 0.4804 0.4766
C20A C 0.2876(7) 1.0972(5) 0.7055(2)
H18A H 0.2968 0.9913 0.7084
C21A C 1.8650(7) 0.7203(6) 0.5845(3)
H19A H 1.9625 0.7518 0.5532
H20A H 1.8327 0.8178 0.6054
C22A C 1.6755(7) 0.6079(6) 0.5403(2)
C23A C 0.5847(7) 1.1943(6) 0.6415(2)
H21A H 0.6620 1.3015 0.6368
H22A H 0.6704 1.1481 0.6739
C24A C 1.9602(7) 0.6428(6) 0.6447(2)
loop_
_geom_bond_atom_site_label_1
_geom_bond_atom_site_label_2
_geom_bond_site_symmetry_1
_geom_bond_site_symmetry_2
Co1 O1 1_555 1_555
O1 C4 1_555 1_555
O2 C4 1_555 1_555
O3 Co1 1_555 1_555
O4 C24 1_555 1_555
N1 Co1 1_555 1_555
N2 C17 1_555 1_555
N3 Co1 1_555 1_555
N4 C3 1_555 1_555
C1 N3 1_555 1_555
H1 C1 1_555 1_555
C2 C3 1_555 1_555
C3 H2 1_555 1_555
H3 C3 1_555 1_555
C4 C11 1_555 1_555
C5 C2 1_555 1_555
H4 C5 1_555 1_555
C6 H5 1_555 1_555
C7 C2 1_555 1_555
H6 C7 1_555 1_555
C8 N3 1_555 1_555
H7 C8 1_555 1_555
C9 N1 1_555 1_555
H8 C9 1_555 1_555
C10 N4 1_555 1_555
H9 C10 1_555 1_555
C11 H10 1_555 1_555
H11 C11 1_555 1_555
C12 C6 1_555 1_555
C13 C12 1_555 1_555
H12 C13 1_555 1_555
C14 H13 1_555 1_555
C15 H14 1_555 1_555
C16 C15 1_555 1_555
C17 N1 1_555 1_555
H15 C17 1_555 1_555
C18 C16 1_555 1_555
H16 C18 1_555 1_555
C19 H17 1_555 1_555
C20 N2 1_555 1_555
H18 C20 1_555 1_555
C21 H19 1_555 1_555
H20 C21 1_555 1_555
C22 C14 1_555 1_555
C23 N2 1_555 1_555
H21 C23 1_555 1_555
H22 C23 1_555 1_555
C24 O3 1_555 1_555
Co1A O1A 1_555 1_555
Co1A_2 O3A 1_555 1_555
Co1A_3 N1A 1_555 1_555
Co1A_4 O1A_2 1_555 1_555
O1A C4A 1_555 1_555
O2A C4A 1_555 1_555
O3A C24A 1_555 1_555
O3A_2 Co1A_4 1_555 1_555
O4A C24A 1_555 1_555
N1A C9A 1_555 1_555
N1A_2 Co1A_4 1_555 1_555
N2A C17A 1_555 1_555
N3A Co1A_4 1_555 1_555
N4A C3A 1_555 1_555
C1A N3A 1_555 1_555
H1A C1A 1_555 1_555
C2A C3A 1_555 1_555
C3A H2A 1_555 1_555
H3A C3A 1_555 1_555
C4A C11A 1_555 1_555
C5A C7 1_555 1_555
H4A C5A 1_555 1_555
C6A C13 1_555 1_555
H5A C6A 1_555 1_555
C7A C5 1_555 1_555
H6A C7A 1_555 1_555
C8A N3A 1_555 1_555
H7A C8A 1_555 1_555
C9A H8A 1_555 1_555
C10A N4A 1_555 1_555
H9A C10A 1_555 1_555
C11A H10A 1_555 1_555
H11A C11A 1_555 1_555
C12A C6A 1_555 1_555
C13A C6 1_555 1_555
H12A C13A 1_555 1_555
C14A C19 1_555 1_555
H13A C14A 1_555 1_555
C15A C18 1_555 1_555
H14A C15A 1_555 1_555
C16A C15A 1_555 1_555
C17A N1A 1_555 1_555
H15A C17A 1_555 1_555
C18A C15 1_555 1_555
H16A C18A 1_555 1_555
C19A C14 1_555 1_555
H17A C19A 1_555 1_555
C20A N2A 1_555 1_555
H18A C20A 1_555 1_555
C21A H19A 1_555 1_555
H20A C21A 1_555 1_555
C22A C14A 1_555 1_555
C23A N2A 1_555 1_555
H21A C23A 1_555 1_555
H22A C23A 1_555 1_555
C24A C21A 1_555 1_555
N4 C8 1_555 1_555
C1 C10 1_555 1_555
C9 C20 1_555 1_555
C11 C12 1_555 1_555
C16 C23 1_555 1_555
C19 C22 1_555 1_555
C21 C22 1_555 1_555
C21 C24 1_555 1_555
N4A C8A 1_555 1_555
C1A C10A 1_555 1_555
C2A C5A 1_555 1_555
C2A C7A 1_555 1_555
C9A C20A 1_555 1_555
C11A C12A 1_555 1_555
C12A C13A 1_555 1_555
C16A C18A 1_555 1_555
C16A C23A 1_555 1_555
C19A C22A 1_555 1_555
C21A C22A 1_555 1_555

#END
