
#######################################################################
#
#                 Cambridge Crystallographic Data Centre
#                                CCDC 
#
#######################################################################
#
# If this CIF has been generated from an entry in the Cambridge 
# Structural Database, then it will include bibliographic, chemical, 
# crystal, experimental, refinement or atomic coordinate data resulting 
# from the CCDC's data processing and validation procedures.
#
#######################################################################

data_DAVYUV
_symmetry_cell_setting           orthorhombic
_symmetry_space_group_name_H-M   'P c a b'
_symmetry_Int_Tables_number      61
_space_group_name_Hall           '-P 2bc 2ac'
loop_
_symmetry_equiv_pos_site_id
_symmetry_equiv_pos_as_xyz
1 x,y,z
2 -x,1/2-y,1/2+z
3 1/2+x,-y,1/2-z
4 1/2-x,1/2+y,-z
5 -x,-y,-z
6 x,1/2+y,1/2-z
7 1/2-x,y,1/2+z
8 1/2+x,1/2-y,z
_cell_length_a                   10.6761(2)
_cell_length_b                   19.1023(5)
_cell_length_c                   24.9963(10)
_cell_angle_alpha                90
_cell_angle_beta                 90
_cell_angle_gamma                90
_cell_volume                     5097.7
loop_
_atom_site_label
_atom_site_type_symbol
_atom_site_fract_x
_atom_site_fract_y
_atom_site_fract_z
O1 O 0.7020(2) 0.13829(14) 0.39717(13)
O2 O 0.5236(2) 0.24446(15) 0.43629(12)
Co1 Co 0.40155(4) 0.15381(3) 0.36829(2)
Mn1 Mn 0.66513(5) 0.24048(3) 0.37216(3)
O3 O 0.1126(2) 0.15565(15) 0.35871(13)
O4 O 0.2788(2) 0.09232(15) 0.33504(14)
O5 O 0.5159(3) 0.08466(15) 0.39620(13)
C1 C 0.4122(3) 0.2496(2) 0.45048(17)
O6 O 0.4978(2) 0.21356(14) 0.31742(11)
O7 O 0.3236(2) 0.21889(14) 0.42348(11)
O8 O 0.3119(2) 0.26416(16) 0.30983(12)
C2 C 0.4223(3) 0.2572(2) 0.29450(17)
C3 C 0.1614(4) 0.1012(2) 0.33958(17)
C4 C 0.4700(4) 0.2978(2) 0.24820(18)
C5 C 0.6297(4) 0.0889(2) 0.41030(18)
C6 C 0.6768(4) 0.0312(2) 0.44534(18)
C7 C 0.0786(3) 0.0432(2) 0.32162(18)
C8 C 0.3793(3) 0.2863(2) 0.50087(18)
C9 C 0.6015(4) -0.0267(2) 0.45464(19)
H1 H 0.5231 -0.0297 0.4386
C10 C -0.0460(4) 0.0411(2) 0.3378(2)
H2 H -0.0782 0.0759 0.3598
C11 C 0.4716(4) 0.3216(3) 0.5294(2)
H3 H 0.5532 0.3233 0.5165
C12 C 0.4053(4) 0.3556(3) 0.2293(2)
H4 H 0.3290 0.3679 0.2446
C13 C 0.0447(5) -0.0603(3) 0.2698(2)
H5 H 0.0741 -0.0936 0.2457
C14 C 0.5832(4) 0.2793(3) 0.2243(2)
H6 H 0.6276 0.2407 0.2369
C15 C -0.1219(5) -0.0136(3) 0.3208(2)
H7 H -0.2045 -0.0159 0.3325
C16 C 0.1239(4) -0.0081(2) 0.2875(2)
H8 H 0.2071 -0.0073 0.2765
C17 C 0.2304(5) 0.3191(3) 0.5680(2)
H9 H 0.1488 0.3184 0.5810
C18 C 0.6425(5) -0.0795(2) 0.4875(2)
H10 H 0.5930 -0.1191 0.4923
C19 C -0.0769(5) -0.0636(3) 0.2873(2)
H11 H -0.1285 -0.1001 0.2763
C20 C 0.7553(4) -0.0747(3) 0.5132(2)
H12 H 0.7815 -0.1102 0.5360
C21 C 0.7916(4) 0.0357(2) 0.4704(2)
H13 H 0.8432 0.0741 0.4640
C22 C 0.5659(6) 0.3760(4) 0.1653(3)
H14 H 0.5998 0.4031 0.1380
C23 C 0.4414(5) 0.3542(3) 0.5772(2)
H15 H 0.5035 0.3769 0.5966
C24 C 0.3215(6) 0.3533(4) 0.5960(3)
H16 H 0.3018 0.3759 0.6279
C25 C 0.2582(4) 0.2858(3) 0.5207(2)
H17 H 0.1952 0.2628 0.5019
C26 C 0.8305(5) -0.0164(3) 0.5049(2)
H18 H 0.9069 -0.0125 0.5226
C27 C 0.6291(6) 0.3175(4) 0.1825(2)
H19 H 0.7029 0.3040 0.1657
C28 C 0.4538(6) 0.3952(3) 0.1876(3)
H20 H 0.4109 0.4342 0.1750
Mn1G Mn 0.16513(5) 0.25952(3) 0.37216(3)
O3G O 0.6126(2) 0.34435(15) 0.35871(13)
O7G O 0.8236(2) 0.28111(14) 0.42348(11)
O8G O 0.8119(2) 0.23584(16) 0.30983(12)
loop_
_geom_bond_atom_site_label_1
_geom_bond_atom_site_label_2
_geom_bond_site_symmetry_1
_geom_bond_site_symmetry_2
O1 Mn1 1_555 1_555
O2 Mn1 1_555 1_555
Co1 O4 1_555 1_555
Mn1 O6 1_555 1_555
O3 C3 1_555 1_555
O4 C3 1_555 1_555
O5 Co1 1_555 1_555
C1 O2 1_555 1_555
O6 Co1 1_555 1_555
O7 Co1 1_555 1_555
O8 C2 1_555 1_555
C2 O6 1_555 1_555
C3 C7 1_555 1_555
C4 C2 1_555 1_555
C5 O1 1_555 1_555
C6 C5 1_555 1_555
C7 C10 1_555 1_555
C8 C1 1_555 1_555
C9 C6 1_555 1_555
H1 C9 1_555 1_555
C10 H2 1_555 1_555
C11 C8 1_555 1_555
H3 C11 1_555 1_555
C12 C4 1_555 1_555
H4 C12 1_555 1_555
C13 H5 1_555 1_555
C14 C4 1_555 1_555
H6 C14 1_555 1_555
C15 C10 1_555 1_555
H7 C15 1_555 1_555
C16 C7 1_555 1_555
H8 C16 1_555 1_555
C17 H9 1_555 1_555
C18 C9 1_555 1_555
H10 C18 1_555 1_555
C19 C13 1_555 1_555
H11 C19 1_555 1_555
C20 C18 1_555 1_555
H12 C20 1_555 1_555
C21 C6 1_555 1_555
H13 C21 1_555 1_555
C22 H14 1_555 1_555
C23 C11 1_555 1_555
H15 C23 1_555 1_555
C24 C17 1_555 1_555
H16 C24 1_555 1_555
C25 C8 1_555 1_555
H17 C25 1_555 1_555
C26 C20 1_555 1_555
H18 C26 1_555 1_555
C27 C14 1_555 1_555
H19 C27 1_555 1_555
C28 C12 1_555 1_555
H20 C28 1_555 1_555
Mn1G O3 1_555 1_555
O3G Mn1 1_555 1_555
O7G Mn1 1_555 1_555
O8G Mn1 1_555 1_555
O5 C5 1_555 1_555
C1 O7 1_555 1_555
O7 Mn1G 1_555 1_555
O8 Mn1G 1_555 1_555
C13 C16 1_555 1_555
C15 C19 1_555 1_555
C17 C25 1_555 1_555
C21 C26 1_555 1_555
C22 C27 1_555 1_555
C22 C28 1_555 1_555
C23 C24 1_555 1_555

#END
