
#######################################################################
#
#                 Cambridge Crystallographic Data Centre
#                                CCDC 
#
#######################################################################
#
# If this CIF has been generated from an entry in the Cambridge 
# Structural Database, then it will include bibliographic, chemical, 
# crystal, experimental, refinement or atomic coordinate data resulting 
# from the CCDC's data processing and validation procedures.
#
#######################################################################

data_DAVYAC
_symmetry_cell_setting           monoclinic
_symmetry_space_group_name_H-M   'P 21/n'
_symmetry_Int_Tables_number      14
_space_group_name_Hall           '-P 2yn'
loop_
_symmetry_equiv_pos_site_id
_symmetry_equiv_pos_as_xyz
1 x,y,z
2 1/2-x,1/2+y,1/2-z
3 -x,-y,-z
4 1/2+x,1/2-y,1/2+z
_cell_length_a                   9.0096(9)
_cell_length_b                   20.558(2)
_cell_length_c                   9.7353(10)
_cell_angle_alpha                90
_cell_angle_beta                 100.547(2)
_cell_angle_gamma                90
_cell_volume                     1772.7
loop_
_atom_site_label
_atom_site_type_symbol
_atom_site_fract_x
_atom_site_fract_y
_atom_site_fract_z
Co1 Co 0.20670(10) 0.15659(4) 0.65854(9)
Co2 Co 0.43046(10) 0.26662(4) 0.87543(9)
N1 N 0.1850(6) 0.2581(3) 0.6286(6)
N2 N 0.2574(6) 0.3044(3) 0.7100(6)
O1 O 0.3836(5) 0.1811(2) 0.7934(5)
O2 O 0.2525(6) 0.1377(2) 0.4712(5)
C1 C 0.3988(8) 0.0119(3) 0.3147(8)
H1 H 0.4868 0.0323 0.3590
C2 C 0.3873(8) -0.0556(3) 0.3222(7)
H2 H 0.4668 -0.0797 0.3718
C3 C 0.2001(8) 0.1496(3) 0.3469(7)
C4 C 0.2575(8) -0.0869(3) 0.2558(7)
C5 C 0.1389(8) -0.0498(4) 0.1831(7)
H3 H 0.0509 -0.0703 0.1392
C6 C 0.2814(8) 0.0493(3) 0.2424(7)
C7 C 0.2906(9) 0.1226(4) 0.2404(8)
H4 H 0.2493 0.1388 0.1478
H5 H 0.3951 0.1364 0.2646
C8 C 0.2412(9) -0.1597(3) 0.2706(8)
H6 H 0.3397 -0.1791 0.3019
H7 H 0.1982 -0.1785 0.1806
C9 C 0.1514(8) 0.0172(4) 0.1758(7)
N3 N 0.0901(6) 0.2833(2) 0.5254(5)
C10 C 0.1998(7) 0.3595(3) 0.6483(6)
C11 C 0.3002(7) 0.4425(3) 0.8349(6)
H8 H 0.3334 0.4099 0.8996
C12 C 0.2355(7) 0.4271(3) 0.6988(7)
C13 C 0.3146(7) 0.5075(3) 0.8730(7)
C14 C 0.2187(7) 0.5407(3) 0.6504(7)
H9 H 0.1935 0.5741 0.5859
C15 C 0.1395(9) -0.1744(3) 0.3755(8)
O3 O 0.0801(5) 0.1795(2) 0.2991(5)
N4 N 0.2743(6) 0.5567(3) 0.7822(6)
O4 O 0.1910(6) -0.2074(3) 0.4816(5)
C16 C 0.1963(7) 0.4779(3) 0.6040(6)
H10 H 0.1557 0.4693 0.5109
H11 H 0.069(9) 0.046(4) 0.122(8)
O6 O 0.0135(7) -0.1492(3) 0.3550(10)
N5 N 0.0966(6) 0.3483(2) 0.5358(5)
Co1A Co 0.29330(10) 0.65659(4) 0.84146(9)
Co1B Co -0.20670(10) -0.15659(4) 0.34146(9)
Co2C Co -0.06954(10) 0.23338(4) 0.37543(9)
Co2A Co 0.06954(10) -0.23338(4) 0.62457(9)
N3C N 0.5901(6) 0.2167(2) 1.0254(5)
O3C O 0.5801(5) 0.3205(2) 0.7991(5)
N4A N 0.2257(6) 0.0567(3) 0.7178(6)
O4A O 0.3090(6) 0.2926(3) 1.0184(5)
O6B O -0.0135(7) 0.1492(3) 0.6450(10)
O5 O 0.9662(15) 0.7914(8) 0.0066(13)
loop_
_geom_bond_atom_site_label_1
_geom_bond_atom_site_label_2
_geom_bond_site_symmetry_1
_geom_bond_site_symmetry_2
Co1 N1 1_555 1_555
Co2 N2 1_555 1_555
N1 N2 1_555 1_555
N2 C10 1_555 1_555
O1 Co1 1_555 1_555
O2 Co1 1_555 1_555
C1 H1 1_555 1_555
C2 C1 1_555 1_555
H2 C2 1_555 1_555
C3 O2 1_555 1_555
C4 C2 1_555 1_555
C5 C4 1_555 1_555
H3 C5 1_555 1_555
C6 C1 1_555 1_555
C7 C3 1_555 1_555
H4 C7 1_555 1_555
H5 C7 1_555 1_555
C8 C4 1_555 1_555
H6 C8 1_555 1_555
H7 C8 1_555 1_555
C9 C5 1_555 1_555
N3 N1 1_555 1_555
C10 C12 1_555 1_555
C11 H8 1_555 1_555
C12 C11 1_555 1_555
C13 C11 1_555 1_555
C14 H9 1_555 1_555
C15 C8 1_555 1_555
O3 C3 1_555 1_555
N4 C13 1_555 1_555
O4 C15 1_555 1_555
C16 C12 1_555 1_555
H10 C16 1_555 1_555
H11 C9 1_555 1_555
O6 C15 1_555 1_555
N5 N3 1_555 1_555
Co1A N4 1_555 1_555
Co1B O6 1_555 1_555
Co2C N3 1_555 1_555
Co2A O4 1_555 1_555
N3C Co2 1_555 1_555
O3C Co2 1_555 1_555
N4A Co1 1_555 1_555
O4A Co2 1_555 1_555
O6B Co1 1_555 1_555
Co2 O1 1_555 1_555
C6 C7 1_555 1_555
C6 C9 1_555 1_555
C10 N5 1_555 1_555
C14 N4 1_555 1_555
C14 C16 1_555 1_555
O3 Co2C 1_555 1_555

#END
