
#######################################################################
#
#                 Cambridge Crystallographic Data Centre
#                                CCDC 
#
#######################################################################
#
# If this CIF has been generated from an entry in the Cambridge 
# Structural Database, then it will include bibliographic, chemical, 
# crystal, experimental, refinement or atomic coordinate data resulting 
# from the CCDC's data processing and validation procedures.
#
#######################################################################

data_DAVYIK
_symmetry_cell_setting           triclinic
_symmetry_space_group_name_H-M   'P -1'
_symmetry_Int_Tables_number      2
_space_group_name_Hall           '-P 1'
loop_
_symmetry_equiv_pos_site_id
_symmetry_equiv_pos_as_xyz
1 x,y,z
2 -x,-y,-z
_cell_length_a                   10.122(3)
_cell_length_b                   12.159(4)
_cell_length_c                   13.553(4)
_cell_angle_alpha                91.707(5)
_cell_angle_beta                 109.504(5)
_cell_angle_gamma                102.552(5)
_cell_volume                     1525.2
loop_
_atom_site_label
_atom_site_type_symbol
_atom_site_fract_x
_atom_site_fract_y
_atom_site_fract_z
C1 C 0.6388(4) 0.0312(3) 0.8504(3)
C2 C 0.8713(5) 0.2863(4) 0.7902(4)
H1 H 0.8698 0.2126 0.7686
C3 C 0.6205(4) 0.1620(3) 0.9713(3)
C4 C 0.9464(5) 0.7387(4) 0.8155(4)
H2 H 0.8968 0.7376 0.8623
C5 C 0.5755(4) 0.2712(3) 0.9793(4)
C6 C 0.6111(5) 0.0068(4) 0.7348(4)
C7 C 0.1452(4) 0.5200(3) 0.5101(3)
C8 C 0.9901(5) 0.3721(5) 0.8262(4)
H3 H 1.0839 0.3691 0.8333
C9 C 1.2119(5) 1.1811(4) 0.7354(4)
H4 H 1.2267 1.2516 0.7714
C10 C 1.0110(5) 0.8221(3) 0.6752(3)
C11 C 0.8038(4) 0.4298(4) 0.8279(3)
H5 H 0.7474 0.4769 0.8383
C12 C 1.0918(5) 0.7448(4) 0.6780(3)
H6 H 1.1419 0.7463 0.6315
C13 C 1.0274(4) 0.6611(3) 0.8179(3)
C14 C 0.0564(4) 0.5814(3) 0.4482(3)
H7 H 0.0937 0.6373 0.4127
C15 C 1.2485(5) 1.0395(3) 0.6654(3)
H8 H 1.2935 0.9901 0.6426
C16 C 0.3026(4) 0.5472(3) 0.5228(4)
H9 H 0.3140 0.5749 0.4591
H10 H 0.3555 0.6069 0.5804
C17 C 0.6744(5) 0.1011(3) 1.0524(3)
H11 H 0.6860 0.1259 1.1211
C18 C 1.1005(5) 0.6652(3) 0.7481(3)
H12 H 1.1563 0.6136 0.7485
C19 C 0.0859(4) 0.4388(3) 0.5617(3)
H13 H 0.1439 0.3966 0.6044
C20 C 0.9378(5) 0.8181(4) 0.7447(4)
H14 H 0.8819 0.8697 0.7439
C21 C 1.0834(5) 1.1062(4) 0.6934(4)
H15 H 0.9951 1.1148 0.6951
C22 C 0.6921(5) -0.0333(4) 0.9294(4)
H16 H 0.7149 -0.1004 0.9139
C23 C 0.7110(5) 0.0028(4) 1.0312(4)
H17 H 0.7485 -0.0390 1.0856
C24 C 1.0032(5) 0.9085(4) 0.5987(4)
H18 H 1.0232 0.8807 0.5387
H19 H 0.9064 0.9208 0.5734
C25 C 1.0385(5) 0.5765(4) 0.8966(4)
H20 H 1.1382 0.5717 0.9267
H21 H 1.0105 0.6027 0.9533
C26 C 0.4379(4) 0.4225(3) 0.6380(3)
H22 H 0.4691 0.4705 0.7002
C27 C 0.3374(4) 0.3574(4) 0.4738(3)
H23 H 0.2875 0.3502 0.4016
C28 C 0.3978(4) 0.2802(4) 0.5286(3)
H24 H 0.3959 0.2090 0.5003
Co1 Co 0.53857(5) 0.22623(4) 0.75469(4)
N1 N 0.4623(3) 0.3217(3) 0.6322(3)
N2 N 0.3631(3) 0.4483(3) 0.5441(3)
N3 N 1.3168(3) 1.1396(3) 0.7181(3)
N4 N 1.1079(4) 1.0166(3) 0.6485(3)
N5 N 0.7541(3) 0.3226(3) 0.7900(3)
N6 N 0.9464(4) 0.4625(3) 0.8496(3)
N7 N 0.6061(3) 0.1272(2) 0.8734(3)
O1 O 0.6216(5) -0.0865(3) 0.7033(3)
O2 O 0.5776(3) 0.0842(2) 0.6790(2)
O3 O 0.5800(3) 0.3084(3) 1.0665(2)
O4 O 0.5342(3) 0.3150(2) 0.8946(2)
C1A C -0.6388(4) 0.9688(3) 0.1496(3)
C2A C -0.8713(5) 0.7137(4) 0.2098(4)
H1A H -0.8698 0.7874 0.2314
C3A C -0.6205(4) 0.8380(3) 0.0287(3)
C4A C -0.9464(5) 0.2613(4) 0.1845(4)
H2A H -0.8968 0.2624 0.1377
C5A C -0.5755(4) 0.7288(3) 0.0207(4)
C6A C -0.6111(5) 0.9932(4) 0.2652(4)
C7A C -0.1452(4) 0.4800(3) 0.4899(3)
C8A C -0.9901(5) 0.6279(5) 0.1738(4)
H3A H -1.0839 0.6309 0.1667
C9A C -1.2119(5) -0.1811(4) 0.2646(4)
H4A H -1.2267 -0.2516 0.2286
C10A C -1.0110(5) 0.1779(3) 0.3248(3)
C11A C -0.8038(4) 0.5702(4) 0.1721(3)
H5A H -0.7474 0.5231 0.1617
C12A C -1.0918(5) 0.2552(4) 0.3220(3)
H6A H -1.1419 0.2537 0.3685
C13A C -1.0274(4) 0.3389(3) 0.1821(3)
C14A C -0.0564(4) 0.4186(3) 0.5518(3)
H7A H -0.0937 0.3627 0.5873
C15A C -1.2485(5) -0.0395(3) 0.3346(3)
H8A H -1.2935 0.0099 0.3574
C16A C -0.3026(4) 0.4528(3) 0.4772(4)
H9A H -0.3140 0.4251 0.5409
H10A H -0.3555 0.3931 0.4196
C17A C -0.6744(5) 0.8989(3) -0.0524(3)
H11A H -0.6860 0.8741 -0.1211
C18A C -1.1005(5) 0.3348(3) 0.2519(3)
H12A H -1.1563 0.3864 0.2515
C19A C -0.0859(4) 0.5612(3) 0.4383(3)
H13A H -0.1439 0.6034 0.3956
C20A C -0.9378(5) 0.1819(4) 0.2553(4)
H14A H -0.8819 0.1303 0.2561
C21A C -1.0834(5) -0.1062(4) 0.3066(4)
H15A H -0.9951 -0.1148 0.3049
C22A C -0.6921(5) 1.0333(4) 0.0706(4)
H16A H -0.7149 1.1004 0.0861
C23A C -0.7110(5) 0.9972(4) -0.0312(4)
H17A H -0.7485 1.0390 -0.0856
C24A C -1.0032(5) 0.0915(4) 0.4013(4)
H18A H -1.0232 0.1193 0.4613
H19A H -0.9064 0.0792 0.4266
C25A C -1.0385(5) 0.4235(4) 0.1034(4)
H20A H -1.1382 0.4283 0.0733
H21A H -1.0105 0.3973 0.0467
C26A C -0.4379(4) 0.5775(3) 0.3620(3)
H22A H -0.4691 0.5295 0.2998
C27A C -0.3374(4) 0.6426(4) 0.5262(3)
H23A H -0.2875 0.6498 0.5984
C28A C -0.3978(4) 0.7198(4) 0.4714(3)
H24A H -0.3959 0.7910 0.4997
Co1A Co -0.53857(5) 0.77377(4) 0.24531(4)
Co1_2 Co 1.53857(5) 1.22623(4) 0.75469(4)
Co1A_2 Co -1.53857(5) -0.22623(4) 0.24531(4)
N1A N -0.4623(3) 0.6783(3) 0.3678(3)
N2A N -0.3631(3) 0.5517(3) 0.4559(3)
N3_2 N 0.3168(3) 0.1396(3) 0.7181(3)
N3A N -0.3168(3) 0.8604(3) 0.2819(3)
N3A_2 N -1.3168(3) -0.1396(3) 0.2819(3)
N4A N -1.1079(4) -0.0166(3) 0.3515(3)
N5A N -0.7541(3) 0.6774(3) 0.2100(3)
N6A N -0.9464(4) 0.5375(3) 0.1504(3)
N7A N -0.6061(3) 0.8728(2) 0.1266(3)
O1A O -0.6216(5) 1.0865(3) 0.2967(3)
O2A O -0.5776(3) 0.9158(2) 0.3210(2)
O3A O -0.5800(3) 0.6916(3) -0.0665(2)
O4A O -0.5342(3) 0.6850(2) 0.1054(2)
H25 H 0.518(7) 0.239(5) 0.269(5)
O6 O 0.4852(6) 0.3012(4) 0.2367(4)
H26 H 0.305(7) 0.396(5) 0.010(5)
O7 O 0.2771(6) 0.3635(5) 0.0605(5)
H27 H 0.609(6) 0.486(5) 0.107(5)
H28 H 0.584(7) 0.586(5) 0.115(5)
O8 O 0.6532(4) 0.5454(4) 0.1191(3)
O5 O 0.6686(6) 0.1255(6) 0.4997(4)
loop_
_geom_bond_atom_site_label_1
_geom_bond_atom_site_label_2
_geom_bond_site_symmetry_1
_geom_bond_site_symmetry_2
C1 C6 1_555 1_555
C2 H1 1_555 1_555
C3 C5 1_555 1_555
C4 H2 1_555 1_555
C5 O3 1_555 1_555
C6 O1 1_555 1_555
C7 C14 1_555 1_555
C8 C2 1_555 1_555
H3 C8 1_555 1_555
C9 H4 1_555 1_555
C10 C12 1_555 1_555
C11 H5 1_555 1_555
C12 H6 1_555 1_555
C13 C4 1_555 1_555
C14 H7 1_555 1_555
C15 H8 1_555 1_555
C16 C7 1_555 1_555
H9 C16 1_555 1_555
H10 C16 1_555 1_555
C17 C3 1_555 1_555
H11 C17 1_555 1_555
C18 C12 1_555 1_555
H12 C18 1_555 1_555
C19 C7 1_555 1_555
H13 C19 1_555 1_555
C20 C4 1_555 1_555
H14 C20 1_555 1_555
C21 C9 1_555 1_555
H15 C21 1_555 1_555
C22 C1 1_555 1_555
H16 C22 1_555 1_555
C23 C17 1_555 1_555
H17 C23 1_555 1_555
C24 C10 1_555 1_555
H18 C24 1_555 1_555
H19 C24 1_555 1_555
C25 C13 1_555 1_555
H20 C25 1_555 1_555
H21 C25 1_555 1_555
C26 H22 1_555 1_555
C27 H23 1_555 1_555
C28 C27 1_555 1_555
H24 C28 1_555 1_555
Co1 N1 1_555 1_555
H25 O6 1_555 1_555
H26 O7 1_555 1_555
H27 O8 1_555 1_555
H28 O8 1_555 1_555
N1 C26 1_555 1_555
N2 C16 1_555 1_555
N3 C9 1_555 1_555
N4 C15 1_555 1_555
N5 C2 1_555 1_555
N6 C8 1_555 1_555
N7 C1 1_555 1_555
O2 C6 1_555 1_555
O4 C5 1_555 1_555
C1A C6A 1_555 1_555
C2A H1A 1_555 1_555
C3A C5A 1_555 1_555
C4A H2A 1_555 1_555
C5A O3A 1_555 1_555
C6A O1A 1_555 1_555
C7A C14A 1_555 1_555
C8A C2A 1_555 1_555
H3A C8A 1_555 1_555
C9A H4A 1_555 1_555
C10A C12A 1_555 1_555
C11A H5A 1_555 1_555
C12A H6A 1_555 1_555
C13A C4A 1_555 1_555
C14A C19 1_555 1_555
H7A C14A 1_555 1_555
C15A H8A 1_555 1_555
C16A C7A 1_555 1_555
H9A C16A 1_555 1_555
H10A C16A 1_555 1_555
C17A C3A 1_555 1_555
H11A C17A 1_555 1_555
C18A C12A 1_555 1_555
H12A C18A 1_555 1_555
C19A C14 1_555 1_555
H13A C19A 1_555 1_555
C20A C4A 1_555 1_555
H14A C20A 1_555 1_555
C21A C9A 1_555 1_555
H15A C21A 1_555 1_555
C22A C1A 1_555 1_555
H16A C22A 1_555 1_555
C23A C17A 1_555 1_555
H17A C23A 1_555 1_555
C24A C10A 1_555 1_555
H18A C24A 1_555 1_555
H19A C24A 1_555 1_555
C25A C13A 1_555 1_555
H20A C25A 1_555 1_555
H21A C25A 1_555 1_555
C26A H22A 1_555 1_555
C27A H23A 1_555 1_555
C28A C27A 1_555 1_555
H24A C28A 1_555 1_555
Co1A N1A 1_555 1_555
Co1_2 N3 1_555 1_555
Co1A_2 N3A_2 1_555 1_555
N1A C26A 1_555 1_555
N2A C16A 1_555 1_555
N3_2 Co1 1_555 1_555
N3A Co1A 1_555 1_555
N3A_2 C9A 1_555 1_555
N4A C15A 1_555 1_555
N5A C2A 1_555 1_555
N6A C8A 1_555 1_555
N7A C1A 1_555 1_555
O2A C6A 1_555 1_555
O4A C5A 1_555 1_555
C3 N7 1_555 1_555
C10 C20 1_555 1_555
C11 N5 1_555 1_555
C11 N6 1_555 1_555
C13 C18 1_555 1_555
C15 N3 1_555 1_555
C21 N4 1_555 1_555
C22 C23 1_555 1_555
C24 N4 1_555 1_555
C25 N6 1_555 1_555
C26 N2 1_555 1_555
C27 N2 1_555 1_555
C28 N1 1_555 1_555
Co1 N5 1_555 1_555
Co1 N7 1_555 1_555
Co1 O2 1_555 1_555
Co1 O4 1_555 1_555
C3A N7A 1_555 1_555
C7A C19A 1_555 1_555
C10A C20A 1_555 1_555
C11A N5A 1_555 1_555
C11A N6A 1_555 1_555
C13A C18A 1_555 1_555
C15A N3A_2 1_555 1_555
C21A N4A 1_555 1_555
C22A C23A 1_555 1_555
C24A N4A 1_555 1_555
C25A N6A 1_555 1_555
C26A N2A 1_555 1_555
C27A N2A 1_555 1_555
C28A N1A 1_555 1_555
Co1A N5A 1_555 1_555
Co1A N7A 1_555 1_555
Co1A O2A 1_555 1_555
Co1A O4A 1_555 1_555

#END
