
#######################################################################
#
#                 Cambridge Crystallographic Data Centre
#                                CCDC 
#
#######################################################################
#
# If this CIF has been generated from an entry in the Cambridge 
# Structural Database, then it will include bibliographic, chemical, 
# crystal, experimental, refinement or atomic coordinate data resulting 
# from the CCDC's data processing and validation procedures.
#
#######################################################################

data_DAWDIQ
_symmetry_cell_setting           monoclinic
_symmetry_space_group_name_H-M   'P 21/c'
_symmetry_Int_Tables_number      14
_space_group_name_Hall           '-P 2ybc'
loop_
_symmetry_equiv_pos_site_id
_symmetry_equiv_pos_as_xyz
1 x,y,z
2 -x,1/2+y,1/2-z
3 -x,-y,-z
4 x,1/2-y,1/2+z
_cell_length_a                   15.309(3)
_cell_length_b                   15.799(3)
_cell_length_c                   16.424(3)
_cell_angle_alpha                90
_cell_angle_beta                 117.56(3)
_cell_angle_gamma                90
_cell_volume                     3521.66
loop_
_atom_site_label
_atom_site_type_symbol
_atom_site_fract_x
_atom_site_fract_y
_atom_site_fract_z
N1 N 0.3224(2) 0.9996(2) 1.4574(2)
C1 C 0.3600(3) 1.0672(3) 1.4392(3)
H1 H 0.3517 1.1219 1.4553
C2 C 0.3515(3) 0.9338(3) 1.4223(3)
H2 H 0.3362 0.8773 1.4250
O1 O 0.1449(2) 0.58551(19) 0.9198(2)
O2 O 0.0091(2) 0.61213(16) 0.93306(18)
C3 C 0.0641(3) 0.6213(2) 0.8955(3)
O3 O 0.6565(2) 0.5654(2) 0.7435(2)
O4 O 0.6535(2) 0.5775(2) 0.8770(2)
C4 C 0.4057(4) 0.9629(3) 1.3833(3)
H3 H 0.4337 0.9307 1.3540
N2 N 0.4118(3) 1.0480(3) 1.3945(2)
C5 C 0.4565(4) 1.1078(4) 1.3570(3)
H4 H 0.5190 1.0857 1.3650
H5 H 0.4689 1.1610 1.3900
C6 C 0.3893(3) 1.1228(3) 1.2563(3)
C7 C 0.3171(4) 1.1833(3) 1.2285(3)
H6 H 0.3112 1.2168 1.2722
C8 C 0.2534(4) 1.1954(3) 1.1370(3)
H7 H 0.2046 1.2365 1.1197
C9 C 0.3969(4) 1.0749(4) 1.1901(3)
H8 H 0.4459 1.0339 1.2078
C10 C 0.3337(5) 1.0862(4) 1.0985(4)
H9 H 0.3397 1.0525 1.0549
C11 C 0.2613(4) 1.1475(4) 1.0711(3)
O5 O -0.1577(2) 0.88887(18) 0.5620(2)
Zn1 Zn 0.0000 1.0000 0.5000
Zn2 Zn 0.22930(4) 0.98375(3) 0.71110(3)
Zn3 Zn 0.22995(3) 1.00108(3) 0.51603(3)
O6 O 0.14974(19) 1.02031(15) 0.58538(17)
O7 O 0.0001(2) 0.92500(17) 0.60547(18)
O8 O 0.2826(2) 0.87043(18) 0.7264(2)
O9 O 0.3015(2) 0.89164(19) 0.6015(2)
C12 C 0.3140(3) 0.8503(3) 0.6693(3)
N3 N 0.1884(3) 1.0143(3) 0.8062(2)
C13 C 0.3895(3) 0.7218(2) 0.6260(3)
C14 C 0.4664(3) 0.6601(2) 0.6554(3)
C15 C 0.0650(3) 0.7430(3) 0.6116(3)
H10 H 0.0470 0.7863 0.5684
C16 C 0.3794(3) 0.7725(2) 0.6935(3)
C17 C 0.6202(3) 0.5925(3) 0.7937(3)
C18 C 0.4393(3) 0.7578(3) 0.7848(3)
H11 H 0.4297 0.7881 0.8286
C19 C 0.0639(3) 0.6800(2) 0.7474(3)
C20 C -0.0326(3) 0.7463(3) 0.8124(3)
H12 H -0.0548 0.7476 0.8564
C21 C -0.0315(3) 0.8098(2) 0.6805(3)
C22 C 0.2145(4) 1.0863(3) 0.8523(3)
H13 H 0.2546 1.1263 0.8446
C23 C 0.5308(3) 0.6504(2) 0.7519(3)
C24 C 0.4743(4) 0.6103(3) 0.5874(3)
H14 H 0.5241 0.5702 0.6052
C25 C -0.0654(3) 0.8086(3) 0.7440(3)
H15 H -0.1104 0.8492 0.7419
N4 N 0.1779(4) 1.0956(3) 0.9104(3)
C26 C 0.3243(3) 0.7297(3) 0.5306(3)
H16 H 0.2737 0.7693 0.5109
C27 C 0.0333(3) 0.7459(2) 0.6802(3)
C28 C -0.0658(3) 0.8804(2) 0.6095(3)
C29 C 0.5145(3) 0.6979(3) 0.8129(3)
H17 H 0.5551 0.6901 0.8754
C30 C 0.0306(3) 0.6838(2) 0.8165(3)
C31 C 0.1208(3) 0.6131(3) 0.7399(3)
H18 H 0.1393 0.5686 0.7816
C32 C 0.4100(4) 0.6200(3) 0.4959(3)
H19 H 0.4166 0.5863 0.4526
C33 C 0.1493(4) 0.6124(3) 0.6722(3)
H20 H 0.1876 0.5681 0.6691
C34 C 0.3346(4) 0.6803(3) 0.4673(3)
H21 H 0.2914 0.6868 0.4052
C35 C 0.1214(4) 0.6779(3) 0.6080(3)
H22 H 0.1414 0.6771 0.5624
C36 C 0.1919(5) 1.1671(4) 0.9720(4)
H23 H 0.1285 1.1835 0.9669
H24 H 0.2175 1.2149 0.9526
C37 C 0.1301(4) 0.9751(4) 0.8362(4)
H25 H 0.0993 0.9230 0.8163
C38 C 0.1245(4) 1.0258(5) 0.9009(4)
H26 H 0.0894 1.0138 0.9331
H27 H 0.143(5) 1.0727(11) 0.592(5)
N1_2 N 0.3224(2) 0.9996(2) 0.4574(2)
N1B N -0.3224(2) 1.0004(2) 0.5426(2)
C1_2 C 0.3600(3) 1.0672(3) 0.4392(3)
H1_2 H 0.3517 1.1219 0.4553
C2_2 C 0.3515(3) 0.9338(3) 0.4223(3)
H2_2 H 0.3362 0.8773 0.4250
O1A O -0.1449(2) 1.08551(19) 0.5802(2)
O1C O 0.1449(2) 0.91449(19) 0.4198(2)
O2A O -0.0091(2) 1.11213(16) 0.56694(18)
O2C O 0.0091(2) 0.88787(16) 0.43306(18)
C3A C -0.0641(3) 1.1213(2) 0.6045(3)
O3A O 0.3435(2) 1.0654(2) 0.7565(2)
O3C O -0.3435(2) 0.9346(2) 0.2435(2)
O4A O 0.3465(2) 1.0775(2) 0.6230(2)
O4C O -0.3465(2) 0.9225(2) 0.3770(2)
C4_2 C 0.4057(4) 0.9629(3) 0.3833(3)
H3_2 H 0.4337 0.9307 0.3540
N2_2 N 0.4118(3) 1.0480(3) 0.3945(2)
C5_2 C 0.4565(4) 1.1078(4) 0.3570(3)
H4_2 H 0.5190 1.0857 0.3650
H5_2 H 0.4689 1.1610 0.3900
C6_2 C 0.3893(3) 1.1228(3) 0.2563(3)
C7_2 C 0.3171(4) 1.1833(3) 0.2285(3)
H6_2 H 0.3112 1.2168 0.2722
C8_2 C 0.2534(4) 1.1954(3) 0.1370(3)
H7_2 H 0.2046 1.2365 0.1197
C9_2 C 0.3969(4) 1.0749(4) 0.1901(3)
H8_2 H 0.4459 1.0339 0.2078
C10_2 C 0.3337(5) 1.0862(4) 0.0985(4)
H9_2 H 0.3397 1.0525 0.0549
C11_2 C 0.2613(4) 1.1475(4) 0.0711(3)
O5A O 0.1577(2) 1.38887(18) 0.9380(2)
O5B O 0.1577(2) 1.11113(18) 0.4380(2)
Zn1A Zn 0.0000 0.5000 1.0000
Zn1A_2 Zn 0.0000 1.5000 1.0000
Zn2B Zn -0.22930(4) 1.01625(3) 0.28890(3)
Zn2A Zn 0.77070(4) 0.48375(3) 0.78890(3)
Zn2A_2 Zn 0.77070(4) 1.48375(3) 0.78890(3)
Zn2_2 Zn 0.22930(4) 0.98375(3) -0.28890(3)
Zn3B Zn -0.22995(3) 0.99892(3) 0.48397(3)
Zn3_2 Zn 0.22995(3) 1.00108(3) 1.51603(3)
Zn3C Zn 0.22995(3) 0.49892(3) 1.01603(3)
Zn3A Zn 0.77005(3) 0.50108(3) 0.98397(3)
Zn3C_2 Zn 0.22995(3) 1.49892(3) 1.01603(3)
Zn3A_2 Zn 0.77005(3) 1.50108(3) 0.98397(3)
O6B O -0.14974(19) 0.97969(15) 0.41462(17)
O7A O -0.0001(2) 1.42500(17) 0.89453(18)
O7B O -0.0001(2) 1.07500(17) 0.39453(18)
O8A O 0.7174(2) 1.37043(18) 0.7736(2)
O8B O -0.2826(2) 1.12957(18) 0.2736(2)
O9A O 0.6985(2) 1.39164(19) 0.8985(2)
O9B O -0.3015(2) 1.10836(19) 0.3985(2)
C12A C 0.6860(3) 1.3503(3) 0.8307(3)
N3_2 N 0.1884(3) 1.0143(3) -0.1938(2)
N3B N -0.1884(3) 0.9857(3) 0.1938(2)
C13A C 0.6105(3) 1.2218(2) 0.8740(3)
C14A C 0.5336(3) 1.1601(2) 0.8446(3)
C15A C -0.0650(3) 1.2430(3) 0.8884(3)
H10A H -0.0470 1.2863 0.9316
C16A C 0.6206(3) 1.2725(2) 0.8065(3)
C17A C 0.3798(3) 1.0925(3) 0.7063(3)
C18A C 0.5607(3) 1.2578(3) 0.7152(3)
H11A H 0.5703 1.2881 0.6714
C19A C -0.0639(3) 1.1800(2) 0.7526(3)
C20A C 0.0326(3) 1.2463(3) 0.6876(3)
H12A H 0.0548 1.2476 0.6436
C21A C 0.0315(3) 1.3098(2) 0.8195(3)
C22_2 C 0.2145(4) 1.0863(3) -0.1477(3)
H13_2 H 0.2546 1.1263 -0.1554
C23A C 0.4692(3) 1.1504(2) 0.7481(3)
C24A C 0.5257(4) 1.1103(3) 0.9126(3)
H14A H 0.4759 1.0702 0.8948
C25A C 0.0654(3) 1.3086(3) 0.7560(3)
H15A H 0.1104 1.3492 0.7581
N4_2 N 0.1779(4) 1.0956(3) -0.0896(3)
C26A C 0.6757(3) 1.2297(3) 0.9694(3)
H16A H 0.7263 1.2693 0.9891
C27A C -0.0333(3) 1.2459(2) 0.8198(3)
C28A C 0.0658(3) 1.3804(2) 0.8905(3)
C29A C 0.4855(3) 1.1979(3) 0.6871(3)
H17A H 0.4449 1.1901 0.6246
C30A C -0.0306(3) 1.1838(2) 0.6835(3)
C31A C -0.1208(3) 1.1131(3) 0.7601(3)
H18A H -0.1393 1.0686 0.7184
C32A C 0.5900(4) 1.1200(3) 1.0041(3)
H19A H 0.5834 1.0863 1.0474
C33A C -0.1493(4) 1.1124(3) 0.8278(3)
H20A H -0.1876 1.0681 0.8309
C34A C 0.6654(4) 1.1803(3) 1.0327(3)
H21A H 0.7086 1.1868 1.0948
C35A C -0.1214(4) 1.1779(3) 0.8920(3)
H22A H -0.1414 1.1771 0.9376
C36_2 C 0.1919(5) 1.1671(4) -0.0280(4)
H23_2 H 0.1285 1.1835 -0.0331
H24_2 H 0.2175 1.2149 -0.0474
C37_2 C 0.1301(4) 0.9751(4) -0.1638(4)
H25_2 H 0.0993 0.9230 -0.1837
C38_2 C 0.1245(4) 1.0258(5) -0.0991(4)
H26_2 H 0.0894 1.0138 -0.0669
H27B H -0.143(5) 0.9273(11) 0.408(5)
loop_
_geom_bond_atom_site_label_1
_geom_bond_atom_site_label_2
_geom_bond_site_symmetry_1
_geom_bond_site_symmetry_2
N1 C1 1_555 1_555
C1 H1 1_555 1_555
C2 N1 1_555 1_555
H2 C2 1_555 1_555
O1 C3 1_555 1_555
O2 C3 1_555 1_555
C3 C30 1_555 1_555
O3 C17 1_555 1_555
O4 C17 1_555 1_555
C4 C2 1_555 1_555
H3 C4 1_555 1_555
N2 C1 1_555 1_555
C5 N2 1_555 1_555
H4 C5 1_555 1_555
H5 C5 1_555 1_555
C6 C5 1_555 1_555
C7 C6 1_555 1_555
H6 C7 1_555 1_555
C8 C7 1_555 1_555
H7 C8 1_555 1_555
C9 C6 1_555 1_555
H8 C9 1_555 1_555
C10 C9 1_555 1_555
H9 C10 1_555 1_555
C11 C8 1_555 1_555
O5 C28 1_555 1_555
Zn1 O6 1_555 1_555
Zn2 O6 1_555 1_555
Zn3 O6 1_555 1_555
O6 H27 1_555 1_555
O7 Zn1 1_555 1_555
O8 Zn2 1_555 1_555
O9 Zn3 1_555 1_555
C12 O8 1_555 1_555
N3 Zn2 1_555 1_555
C13 C14 1_555 1_555
C14 C23 1_555 1_555
C15 H10 1_555 1_555
C16 C12 1_555 1_555
C17 C23 1_555 1_555
C18 C16 1_555 1_555
H11 C18 1_555 1_555
C19 C27 1_555 1_555
C20 H12 1_555 1_555
C21 C25 1_555 1_555
C22 N3 1_555 1_555
H13 C22 1_555 1_555
C23 C29 1_555 1_555
C24 C14 1_555 1_555
H14 C24 1_555 1_555
C25 C20 1_555 1_555
H15 C25 1_555 1_555
N4 C22 1_555 1_555
C26 C13 1_555 1_555
H16 C26 1_555 1_555
C27 C15 1_555 1_555
C28 O7 1_555 1_555
C29 C18 1_555 1_555
H17 C29 1_555 1_555
C30 C19 1_555 1_555
C31 C19 1_555 1_555
H18 C31 1_555 1_555
C32 C24 1_555 1_555
H19 C32 1_555 1_555
C33 C31 1_555 1_555
H20 C33 1_555 1_555
C34 C26 1_555 1_555
H21 C34 1_555 1_555
C35 C15 1_555 1_555
H22 C35 1_555 1_555
C36 C11 1_555 1_555
H23 C36 1_555 1_555
H24 C36 1_555 1_555
C37 N3 1_555 1_555
H25 C37 1_555 1_555
C38 N4 1_555 1_555
H26 C38 1_555 1_555
N1_2 Zn3 1_555 1_555
N1B Zn3B 1_555 1_555
C1_2 N1_2 1_555 1_555
H1_2 C1_2 1_555 1_555
C2_2 N1_2 1_555 1_555
H2_2 C2_2 1_555 1_555
O1A C3A 1_555 1_555
O1C Zn3 1_555 1_555
O2A Zn1 1_555 1_555
O2C Zn1 1_555 1_555
C3A O2A 1_555 1_555
O3A Zn2 1_555 1_555
O3C Zn2B 1_555 1_555
O4A Zn3 1_555 1_555
O4C Zn3B 1_555 1_555
C4_2 C2_2 1_555 1_555
H3_2 C4_2 1_555 1_555
N2_2 C1_2 1_555 1_555
C5_2 N2_2 1_555 1_555
H4_2 C5_2 1_555 1_555
H5_2 C5_2 1_555 1_555
C6_2 C5_2 1_555 1_555
C7_2 C6_2 1_555 1_555
H6_2 C7_2 1_555 1_555
C8_2 C7_2 1_555 1_555
H7_2 C8_2 1_555 1_555
C9_2 C6_2 1_555 1_555
H8_2 C9_2 1_555 1_555
C10_2 C9_2 1_555 1_555
H9_2 C10_2 1_555 1_555
C11_2 C8_2 1_555 1_555
O5A Zn3C_2 1_555 1_555
O5B Zn3 1_555 1_555
Zn1A O2 1_555 1_555
Zn1A_2 O7A 1_555 1_555
Zn2B O6B 1_555 1_555
Zn2A O3 1_555 1_555
Zn2A_2 O8A 1_555 1_555
Zn2_2 N3_2 1_555 1_555
Zn3B O5 1_555 1_555
Zn3_2 N1 1_555 1_555
Zn3C O1 1_555 1_555
Zn3A O4 1_555 1_555
Zn3A_2 O9A 1_555 1_555
O6B Zn1 1_555 1_555
O7A C28A 1_555 1_555
O7B Zn1 1_555 1_555
O8A C12A 1_555 1_555
O8B Zn2B 1_555 1_555
O9A C12A 1_555 1_555
O9B Zn3B 1_555 1_555
C12A C16A 1_555 1_555
N3_2 C22_2 1_555 1_555
N3B Zn2B 1_555 1_555
C13A C14A 1_555 1_555
C14A C23A 1_555 1_555
C15A H10A 1_555 1_555
C16A C13A 1_555 1_555
C17A O3A 1_555 1_555
C18A C16A 1_555 1_555
H11A C18A 1_555 1_555
C19A C27A 1_555 1_555
C20A H12A 1_555 1_555
C21A C25A 1_555 1_555
C22_2 H13_2 1_555 1_555
C23A C17A 1_555 1_555
C24A C14A 1_555 1_555
H14A C24A 1_555 1_555
C25A C20A 1_555 1_555
H15A C25A 1_555 1_555
N4_2 C22_2 1_555 1_555
C26A C13A 1_555 1_555
H16A C26A 1_555 1_555
C27A C15A 1_555 1_555
C28A O5A 1_555 1_555
C29A C18A 1_555 1_555
H17A C29A 1_555 1_555
C30A C3A 1_555 1_555
C31A C19A 1_555 1_555
H18A C31A 1_555 1_555
C32A C24A 1_555 1_555
H19A C32A 1_555 1_555
C33A C31A 1_555 1_555
H20A C33A 1_555 1_555
C34A C26A 1_555 1_555
H21A C34A 1_555 1_555
C35A C15A 1_555 1_555
H22A C35A 1_555 1_555
C36_2 C11_2 1_555 1_555
H23_2 C36_2 1_555 1_555
H24_2 C36_2 1_555 1_555
C37_2 N3_2 1_555 1_555
H25_2 C37_2 1_555 1_555
C38_2 N4_2 1_555 1_555
H26_2 C38_2 1_555 1_555
H27B O6B 1_555 1_555
C4 N2 1_555 1_555
C10 C11 1_555 1_555
O9 C12 1_555 1_555
C13 C16 1_555 1_555
C20 C30 1_555 1_555
C21 C27 1_555 1_555
C21 C28 1_555 1_555
N4 C36 1_555 1_555
C32 C34 1_555 1_555
C33 C35 1_555 1_555
C37 C38 1_555 1_555
O1A Zn3B 1_555 1_555
O4A C17A 1_555 1_555
C4_2 N2_2 1_555 1_555
C10_2 C11_2 1_555 1_555
Zn3B O6B 1_555 1_555
C19A C30A 1_555 1_555
C20A C30A 1_555 1_555
C21A C27A 1_555 1_555
C21A C28A 1_555 1_555
C23A C29A 1_555 1_555
N4_2 C36_2 1_555 1_555
C32A C34A 1_555 1_555
C33A C35A 1_555 1_555
C37_2 C38_2 1_555 1_555

#END
