
#######################################################################
#
#                 Cambridge Crystallographic Data Centre
#                                CCDC 
#
#######################################################################
#
# If this CIF has been generated from an entry in the Cambridge 
# Structural Database, then it will include bibliographic, chemical, 
# crystal, experimental, refinement or atomic coordinate data resulting 
# from the CCDC's data processing and validation procedures.
#
#######################################################################

data_DAWHOA
_symmetry_cell_setting           monoclinic
_symmetry_space_group_name_H-M   'C 2/c'
_symmetry_Int_Tables_number      15
_space_group_name_Hall           '-C 2yn'
loop_
_symmetry_equiv_pos_site_id
_symmetry_equiv_pos_as_xyz
1 x,y,z
2 -x,y,1/2-z
3 1/2+x,1/2+y,z
4 1/2-x,1/2+y,1/2-z
5 -x,-y,-z
6 x,-y,1/2+z
7 1/2-x,1/2-y,-z
8 1/2+x,1/2-y,1/2+z
_cell_length_a                   16.033(3)
_cell_length_b                   15.155(2)
_cell_length_c                   9.2818(15)
_cell_angle_alpha                90
_cell_angle_beta                 115.391(2)
_cell_angle_gamma                90
_cell_volume                     2037.44
loop_
_atom_site_label
_atom_site_type_symbol
_atom_site_fract_x
_atom_site_fract_y
_atom_site_fract_z
C1 C 0.4387(3) 0.3506(2) 0.4319(4)
C2 C 0.4158(3) 0.2628(2) 0.3494(4)
C3 C 0.4221(3) 0.1875(3) 0.4404(5)
H1 H 0.4399 0.1924 0.5496
C4 C 0.4017(3) 0.1055(3) 0.3676(5)
H2 H 0.4075 0.0551 0.4284
C5 C 0.3726(3) 0.0985(3) 0.2043(5)
H3 H 0.3584 0.0433 0.1558
C6 C 0.3646(3) 0.1733(3) 0.1121(4)
C7 C 0.3876(3) 0.2555(3) 0.1857(4)
H4 H 0.3841 0.3056 0.1255
C8 C 0.3299(3) 0.1642(3) -0.0629(4)
Cu1 Cu 0.2500 0.2500 -0.5000
N1 N 0.3356(2) 0.2256(2) -0.1614(4)
N2 N 0.2918(2) 0.1889(2) -0.3065(4)
N3 N 0.2620(2) 0.1093(2) -0.2959(4)
N4 N 0.2847(2) 0.0924(2) -0.1420(4)
O1 O 0.4400(2) 0.35398(18) 0.5687(3)
O2 O 0.45450(11) 0.41611(11) 0.36410(18)
O3 O 0.62586(11) 0.59523(11) 0.20321(18)
H5 H 0.6415 0.5686 0.1416
H6 H 0.6343 0.6484 0.1990
O4 O 0.65436(11) 0.48453(11) 0.46060(18)
H7 H 0.6845 0.4663 0.4146
H8 H 0.6812 0.5244 0.5226
Tb1 Tb 0.5000 0.530868(16) 0.2500
C1E C 0.4387(3) 0.6494(2) -0.0681(4)
C2E C 0.4158(3) 0.7372(2) -0.1506(4)
C3E C 0.4221(3) 0.8125(3) -0.0596(5)
H1E H 0.4399 0.8076 0.0496
C4E C 0.4017(3) 0.8945(3) -0.1324(5)
H2E H 0.4075 0.9449 -0.0716
C5E C 0.3726(3) 0.9015(3) -0.2957(5)
H3E H 0.3584 0.9567 -0.3442
C6E C 0.3646(3) 0.8267(3) -0.3879(4)
C7E C 0.3876(3) 0.7445(3) -0.3143(4)
H4E H 0.3841 0.6944 -0.3745
C8E C 0.3299(3) 0.8358(3) -0.5629(4)
Cu1C Cu 0.2500 0.7500 -1.0000
N1E N 0.3356(2) 0.7744(2) -0.6614(4)
N2F N 0.2082(2) 0.3111(2) -0.6935(4)
N2E N 0.2918(2) 0.8111(2) -0.8065(4)
N3E N 0.2620(2) 0.8907(2) -0.7959(4)
N4E N 0.2847(2) 0.9076(2) -0.6420(4)
O1D O 0.5600(2) 0.64602(18) 0.4313(3)
O1E O 0.4400(2) 0.64602(18) 0.0687(3)
O2A O 0.54550(11) 0.41611(11) 0.13590(18)
O2E O 0.45450(11) 0.58389(11) -0.13590(18)
O3A O 0.37414(11) 0.59523(11) 0.29679(18)
H5A H 0.3585 0.5686 0.3584
H6A H 0.3657 0.6484 0.3010
O4A O 0.34564(11) 0.48453(11) 0.03940(18)
H7A H 0.3155 0.4663 0.0854
H8A H 0.3188 0.5244 -0.0226
Tb1D Tb 0.5000 0.469132(16) 0.7500
Tb1D_2 Tb 0.5000 0.469132(16) -0.2500
loop_
_geom_bond_atom_site_label_1
_geom_bond_atom_site_label_2
_geom_bond_site_symmetry_1
_geom_bond_site_symmetry_2
C1 C2 1_555 1_555
C2 C3 1_555 1_555
C3 H1 1_555 1_555
C4 C3 1_555 1_555
H2 C4 1_555 1_555
C5 C4 1_555 1_555
H3 C5 1_555 1_555
C6 C5 1_555 1_555
C7 C2 1_555 1_555
H4 C7 1_555 1_555
C8 C6 1_555 1_555
Cu1 N2 1_555 1_555
N1 C8 1_555 1_555
N2 N1 1_555 1_555
N3 N2 1_555 1_555
N4 C8 1_555 1_555
O1 C1 1_555 1_555
O2 C1 1_555 1_555
O3 H5 1_555 1_555
H6 O3 1_555 1_555
O4 H7 1_555 1_555
H8 O4 1_555 1_555
Tb1 O2 1_555 1_555
C1E C2E 1_555 1_555
C2E C3E 1_555 1_555
C3E H1E 1_555 1_555
C4E C3E 1_555 1_555
H2E C4E 1_555 1_555
C5E C4E 1_555 1_555
H3E C5E 1_555 1_555
C6E C5E 1_555 1_555
C7E C2E 1_555 1_555
H4E C7E 1_555 1_555
C8E C6E 1_555 1_555
Cu1C N2E 1_555 1_555
N1E C8E 1_555 1_555
N2F Cu1 1_555 1_555
N2E N1E 1_555 1_555
N3E N2E 1_555 1_555
N4E C8E 1_555 1_555
O1D Tb1 1_555 1_555
O1E Tb1 1_555 1_555
O2A Tb1 1_555 1_555
O2E C1E 1_555 1_555
O3A Tb1 1_555 1_555
H5A O3A 1_555 1_555
H6A O3A 1_555 1_555
O4A Tb1 1_555 1_555
H7A O4A 1_555 1_555
H8A O4A 1_555 1_555
Tb1D O1 1_555 1_555
Tb1D_2 O2E 1_555 1_555
C6 C7 1_555 1_555
N3 N4 1_555 1_555
O3 Tb1 1_555 1_555
O4 Tb1 1_555 1_555
C1E O1E 1_555 1_555
C6E C7E 1_555 1_555
N3E N4E 1_555 1_555

#END
