
#######################################################################
#
#                 Cambridge Crystallographic Data Centre
#                                CCDC 
#
#######################################################################
#
# If this CIF has been generated from an entry in the Cambridge 
# Structural Database, then it will include bibliographic, chemical, 
# crystal, experimental, refinement or atomic coordinate data resulting 
# from the CCDC's data processing and validation procedures.
#
#######################################################################

data_DAWHIU
_symmetry_cell_setting           monoclinic
_symmetry_space_group_name_H-M   'C 2/c'
_symmetry_Int_Tables_number      15
_space_group_name_Hall           '-C 2yn'
loop_
_symmetry_equiv_pos_site_id
_symmetry_equiv_pos_as_xyz
1 x,y,z
2 -x,y,1/2-z
3 1/2+x,1/2+y,z
4 1/2-x,1/2+y,1/2-z
5 -x,-y,-z
6 x,-y,1/2+z
7 1/2-x,1/2-y,-z
8 1/2+x,1/2-y,1/2+z
_cell_length_a                   16.0425(19)
_cell_length_b                   15.1600(18)
_cell_length_c                   9.2883(11)
_cell_angle_alpha                90
_cell_angle_beta                 115.3890(10)
_cell_angle_gamma                90
_cell_volume                     2040.78
loop_
_atom_site_label
_atom_site_type_symbol
_atom_site_fract_x
_atom_site_fract_y
_atom_site_fract_z
C1 C 0.0846(3) 0.2625(3) 0.1516(5)
C2 C 0.1125(3) 0.2553(3) 0.3150(5)
C3 C 0.1356(3) 0.1735(3) 0.3890(5)
C4 C 0.1276(4) 0.0985(3) 0.2972(6)
C5 C 0.0985(4) 0.1053(3) 0.1341(6)
C6 C 0.0780(3) 0.1874(3) 0.0604(6)
C7 C 0.1705(3) 0.1642(3) 0.5638(5)
C8 C 0.0621(3) 0.3497(3) 0.0687(5)
Cu1 Cu 0.2500 0.2500 1.0000
Gd1 Gd 0.0000 0.531184(18) 0.2500
H1 H 0.119(3) 0.306(3) 0.379(6)
H2 H 0.140(3) 0.048(3) 0.345(6)
H3 H 0.093(4) 0.056(4) 0.076(7)
H4 H 0.058(3) 0.187(3) -0.053(6)
N1 N 0.1647(3) 0.2254(3) 0.6616(5)
N2 N 0.2080(3) 0.1889(3) 0.8071(5)
N3 N 0.2377(3) 0.1093(3) 0.7958(5)
N4 N 0.2148(3) 0.0926(3) 0.6425(5)
O1 O 0.0460(2) 0.4154(2) 0.1355(4)
O2 O 0.06079(13) 0.35315(12) -0.0676(2)
O3 O -0.12591(13) 0.59558(12) 0.2980(2)
H5 H -0.1383 0.5715 0.3659
H6 H -0.1400 0.6480 0.2909
O4 O 0.15510(13) 0.48477(12) 0.4609(2)
H7 H 0.1836 0.4716 0.4094
H8 H 0.1819 0.5223 0.5279
C1E C 0.0846(3) 0.7375(3) 0.6516(5)
C2E C 0.1125(3) 0.7447(3) 0.8150(5)
C3E C 0.1356(3) 0.8265(3) 0.8890(5)
C4E C 0.1276(4) 0.9015(3) 0.7972(6)
C5E C 0.0985(4) 0.8947(3) 0.6341(6)
C6E C 0.0780(3) 0.8126(3) 0.5604(6)
C7E C 0.1705(3) 0.8358(3) 1.0638(5)
C8E C 0.0621(3) 0.6503(3) 0.5687(5)
Cu1C Cu 0.2500 0.7500 1.5000
Gd1D Gd 0.0000 0.468816(18) -0.2500
Gd1D_2 Gd 0.0000 0.468816(18) 0.7500
H1E H 0.119(3) 0.694(3) 0.879(6)
H2E H 0.140(3) 0.952(3) 0.845(6)
H3E H 0.093(4) 0.944(4) 0.576(7)
H4E H 0.058(3) 0.813(3) 0.447(6)
N1E N 0.1647(3) 0.7746(3) 1.1616(5)
N2F N 0.2920(3) 0.3111(3) 1.1929(5)
N2E N 0.2080(3) 0.8111(3) 1.3071(5)
N3E N 0.2377(3) 0.8907(3) 1.2958(5)
N4E N 0.2148(3) 0.9074(3) 1.1425(5)
O1A O -0.0460(2) 0.4154(2) 0.3645(4)
O1E O 0.0460(2) 0.5846(2) 0.6355(4)
O2D O -0.06079(13) 0.64685(12) 0.0676(2)
O2E O 0.06079(13) 0.64685(12) 0.4324(2)
O3A O 0.12591(13) 0.59558(12) 0.2020(2)
H5A H 0.1383 0.5715 0.1341
H6A H 0.1400 0.6480 0.2091
O4A O -0.15510(13) 0.48477(12) 0.0391(2)
H7A H -0.1836 0.4716 0.0906
H8A H -0.1819 0.5223 -0.0279
loop_
_geom_bond_atom_site_label_1
_geom_bond_atom_site_label_2
_geom_bond_site_symmetry_1
_geom_bond_site_symmetry_2
C1 C2 1_555 1_555
C2 C3 1_555 1_555
C3 C4 1_555 1_555
C4 C5 1_555 1_555
C5 C6 1_555 1_555
C6 C1 1_555 1_555
C7 C3 1_555 1_555
C8 C1 1_555 1_555
Cu1 N2 1_555 1_555
Gd1 O1 1_555 1_555
H1 C2 1_555 1_555
H2 C4 1_555 1_555
H3 C5 1_555 1_555
H4 C6 1_555 1_555
N1 C7 1_555 1_555
N2 N1 1_555 1_555
N3 N2 1_555 1_555
N4 C7 1_555 1_555
O1 C8 1_555 1_555
O2 C8 1_555 1_555
O3 Gd1 1_555 1_555
H5 O3 1_555 1_555
H6 O3 1_555 1_555
O4 Gd1 1_555 1_555
H7 O4 1_555 1_555
H8 O4 1_555 1_555
C1E C2E 1_555 1_555
C2E C3E 1_555 1_555
C3E C4E 1_555 1_555
C4E C5E 1_555 1_555
C5E C6E 1_555 1_555
C6E C1E 1_555 1_555
C7E C3E 1_555 1_555
C8E C1E 1_555 1_555
Cu1C N2E 1_555 1_555
Gd1D O2 1_555 1_555
Gd1D_2 O1E 1_555 1_555
H1E C2E 1_555 1_555
H2E C4E 1_555 1_555
H3E C5E 1_555 1_555
H4E C6E 1_555 1_555
N1E C7E 1_555 1_555
N2F Cu1 1_555 1_555
N2E N1E 1_555 1_555
N3E N2E 1_555 1_555
N4E C7E 1_555 1_555
O1A Gd1 1_555 1_555
O1E C8E 1_555 1_555
O2D Gd1 1_555 1_555
O2E Gd1 1_555 1_555
O3A Gd1 1_555 1_555
H5A O3A 1_555 1_555
H6A O3A 1_555 1_555
O4A Gd1 1_555 1_555
H7A O4A 1_555 1_555
H8A O4A 1_555 1_555
N3 N4 1_555 1_555
C8E O2E 1_555 1_555
N3E N4E 1_555 1_555

#END
