
#######################################################################
#
#                 Cambridge Crystallographic Data Centre
#                                CCDC 
#
#######################################################################
#
# If this CIF has been generated from an entry in the Cambridge 
# Structural Database, then it will include bibliographic, chemical, 
# crystal, experimental, refinement or atomic coordinate data resulting 
# from the CCDC's data processing and validation procedures.
#
#######################################################################

data_DAWJES
_symmetry_cell_setting           monoclinic
_symmetry_space_group_name_H-M   'C 2/c'
_symmetry_Int_Tables_number      15
_space_group_name_Hall           '-C 2yn'
loop_
_symmetry_equiv_pos_site_id
_symmetry_equiv_pos_as_xyz
1 x,y,z
2 -x,y,1/2-z
3 1/2+x,1/2+y,z
4 1/2-x,1/2+y,1/2-z
5 -x,-y,-z
6 x,-y,1/2+z
7 1/2-x,1/2-y,-z
8 1/2+x,1/2-y,1/2+z
_cell_length_a                   26.685(2)
_cell_length_b                   7.4317(6)
_cell_length_c                   15.7589(12)
_cell_angle_alpha                90
_cell_angle_beta                 108.9780(10)
_cell_angle_gamma                90
_cell_volume                     2955.35
loop_
_atom_site_label
_atom_site_type_symbol
_atom_site_fract_x
_atom_site_fract_y
_atom_site_fract_z
Cu1 Cu 0.137765(16) 0.24593(6) 0.41975(3)
Cu2 Cu 0.251955(15) 0.13210(6) 0.41502(3)
Cu3 Cu 0.0000 0.48590(8) 0.2500
N1 N 0.13781(12) 0.2499(4) 0.54717(19)
N2 N 0.18430(12) 0.2886(4) 0.61465(19)
N3 N 0.12312(12) 0.2334(4) 0.6746(2)
H1 H 0.1069 0.2182 0.7146
O1 O 0.21211(9) 0.1399(3) 0.28636(15)
O2 O 0.13589(10) 0.2565(3) 0.29500(16)
O3 O 0.04237(9) 0.4868(3) 0.17121(15)
O4 O 0.02951(10) 0.1906(4) 0.17541(17)
O5 O 0.06459(9) 0.5006(3) -0.14554(15)
O6 O 0.08174(10) 0.2233(3) -0.18521(16)
O7 O 0.19804(9) -0.0030(3) -0.05065(15)
O8 O 0.20417(10) 0.2795(3) -0.09643(16)
O9 O 0.20477(9) 0.3681(3) 0.46039(15)
H2 H 0.1961 0.4673 0.4327
O10 O 0.07334(9) 0.0991(3) 0.38718(15)
H3 H 0.0419 0.1366 0.3621
H4 H 0.0763 0.0070 0.3572
C1 C 0.17394(15) 0.2776(5) 0.6911(2)
H5 H 0.1989 0.2981 0.7490
C2 C 0.10162(15) 0.2164(5) 0.5851(2)
H6 H 0.0658 0.1851 0.5540
C3 C 0.14424(14) 0.2278(5) 0.1524(2)
C4 C 0.09347(14) 0.2983(5) 0.1123(2)
C5 C 0.07643(14) 0.3405(5) 0.0220(2)
H7 H 0.0427 0.3950 -0.0043
C6 C 0.10815(13) 0.3040(5) -0.0308(2)
C7 C 0.15713(14) 0.2207(4) 0.0070(2)
C8 C 0.17573(14) 0.1867(5) 0.0987(2)
H8 H 0.2099 0.1355 0.1253
C9 C 0.16597(14) 0.2048(5) 0.2526(2)
C10 C 0.05281(14) 0.3243(5) 0.1589(2)
C11 C 0.08417(13) 0.3450(5) -0.1289(2)
C12 C 0.18933(13) 0.1669(5) -0.0523(2)
Cu1A Cu -0.137765(16) 0.24593(6) 0.08025(3)
Cu1E Cu 0.137765(16) 0.75407(6) -0.08025(3)
Cu1E_2 Cu 0.137765(16) -0.24593(6) -0.08025(3)
Cu1D Cu -0.137765(16) 0.75407(6) 0.58025(3)
Cu1D_2 Cu -0.137765(16) -0.24593(6) 0.58025(3)
Cu1F Cu 0.362235(16) 0.25407(6) 0.58025(3)
Cu2A Cu -0.251955(15) 0.13210(6) 0.08498(3)
Cu2F Cu 0.248045(15) 0.36790(6) 0.58498(3)
Cu2E Cu 0.251955(15) -0.13210(6) -0.08498(3)
Cu2D Cu -0.251955(15) -0.13210(6) 0.58498(3)
Cu3D Cu 0.0000 0.51410(8) -0.2500
Cu3D_2 Cu 0.0000 0.51410(8) 0.7500
N1F N 0.36219(12) 0.2501(4) 0.45283(19)
N1A N -0.13781(12) 0.2499(4) -0.04717(19)
N2F N 0.31570(12) 0.2114(4) 0.38535(19)
N2G N -0.31570(12) 0.2114(4) 0.11465(19)
N3F N 0.37688(12) 0.2666(4) 0.3254(2)
H1F H 0.3931 0.2818 0.2854
O1A O -0.21211(9) 0.1399(3) 0.21364(15)
O2A O -0.13589(10) 0.2565(3) 0.20500(16)
O3A O -0.04237(9) 0.4868(3) 0.32879(15)
O4A O -0.02951(10) 0.1906(4) 0.32459(17)
O5A O -0.06459(9) 0.5006(3) 0.64554(15)
O5E O 0.06459(9) 0.4994(3) 0.35446(15)
O5D O -0.06459(9) 0.4994(3) 0.14554(15)
O6A O -0.08174(10) 0.2233(3) 0.68521(16)
O7A O -0.19804(9) -0.0030(3) 0.55065(15)
O7E O 0.19804(9) 0.0030(3) 0.44935(15)
O7D O -0.19804(9) 0.0030(3) 0.05065(15)
O8A O -0.20417(10) 0.2795(3) 0.59643(16)
O9F O 0.29523(9) 0.1319(3) 0.53961(15)
O9A O -0.20477(9) 0.3681(3) 0.03961(15)
O9G O -0.29523(9) 0.1319(3) -0.03961(15)
H2F H 0.3039 0.0327 0.5673
H2A H -0.1961 0.4673 0.0673
H2G H -0.3039 0.0327 -0.0673
O10A O -0.07334(9) 0.0991(3) 0.11282(15)
H3A H -0.0419 0.1366 0.1379
H4A H -0.0763 0.0070 0.1428
C1F C 0.32606(15) 0.2224(5) 0.3089(2)
H5F H 0.3011 0.2019 0.2510
C2F C 0.39838(15) 0.2836(5) 0.4149(2)
H6F H 0.4342 0.3149 0.4460
C3A C -0.14424(14) 0.2278(5) 0.3476(2)
C4A C -0.09347(14) 0.2983(5) 0.3877(2)
C5A C -0.07643(14) 0.3405(5) 0.4780(2)
H7A H -0.0427 0.3950 0.5043
C6A C -0.10815(13) 0.3040(5) 0.5308(2)
C7A C -0.15713(14) 0.2207(4) 0.4930(2)
C8A C -0.17573(14) 0.1867(5) 0.4013(2)
H8A H -0.2099 0.1355 0.3747
C9A C -0.16597(14) 0.2048(5) 0.2474(2)
C10A C -0.05281(14) 0.3243(5) 0.3411(2)
C11A C -0.08417(13) 0.3450(5) 0.6289(2)
C12A C -0.18933(13) 0.1669(5) 0.5523(2)
O11 O 0.0000 0.0000 0.5000
loop_
_geom_bond_atom_site_label_1
_geom_bond_atom_site_label_2
_geom_bond_site_symmetry_1
_geom_bond_site_symmetry_2
Cu1 N1 1_555 1_555
Cu2 O1 1_555 1_555
Cu3 O3 1_555 1_555
N1 N2 1_555 1_555
N2 C1 1_555 1_555
N3 H1 1_555 1_555
O1 C9 1_555 1_555
O2 Cu1 1_555 1_555
O3 C10 1_555 1_555
O4 C10 1_555 1_555
O5 C11 1_555 1_555
O6 C11 1_555 1_555
O7 C12 1_555 1_555
O8 C12 1_555 1_555
O9 Cu1 1_555 1_555
H2 O9 1_555 1_555
O10 Cu1 1_555 1_555
H3 O10 1_555 1_555
H4 O10 1_555 1_555
C1 N3 1_555 1_555
H5 C1 1_555 1_555
C2 N1 1_555 1_555
H6 C2 1_555 1_555
C3 C4 1_555 1_555
C4 C5 1_555 1_555
C5 H7 1_555 1_555
C6 C5 1_555 1_555
C7 C6 1_555 1_555
C8 C3 1_555 1_555
H8 C8 1_555 1_555
C9 O2 1_555 1_555
C10 C4 1_555 1_555
C11 C6 1_555 1_555
C12 C7 1_555 1_555
Cu1A N1A 1_555 1_555
Cu1E O5 1_555 1_555
Cu1E_2 O7 1_555 1_555
Cu1D O5A 1_555 1_555
Cu1D_2 O7A 1_555 1_555
Cu1F N1F 1_555 1_555
Cu2A N2G 1_555 1_555
Cu2F N2 1_555 1_555
Cu2E O7 1_555 1_555
Cu2D O7A 1_555 1_555
Cu3D O5 1_555 1_555
Cu3D_2 O5A 1_555 1_555
N1F N2F 1_555 1_555
N2F Cu2 1_555 1_555
N3F H1F 1_555 1_555
O1A Cu2A 1_555 1_555
O2A Cu1A 1_555 1_555
O3A Cu3 1_555 1_555
O4A C10A 1_555 1_555
O5A C11A 1_555 1_555
O5E Cu1 1_555 1_555
O5D Cu3 1_555 1_555
O6A C11A 1_555 1_555
O7A C12A 1_555 1_555
O7E Cu1 1_555 1_555
O7D Cu1A 1_555 1_555
O8A C12A 1_555 1_555
O9F Cu2 1_555 1_555
O9A Cu1A 1_555 1_555
O9G Cu2A 1_555 1_555
H2F O9F 1_555 1_555
H2A O9A 1_555 1_555
H2G O9G 1_555 1_555
O10A Cu1A 1_555 1_555
H3A O10A 1_555 1_555
H4A O10A 1_555 1_555
C1F N2F 1_555 1_555
H5F C1F 1_555 1_555
C2F N1F 1_555 1_555
H6F C2F 1_555 1_555
C3A C4A 1_555 1_555
C4A C5A 1_555 1_555
C5A H7A 1_555 1_555
C6A C5A 1_555 1_555
C7A C6A 1_555 1_555
C8A C3A 1_555 1_555
H8A C8A 1_555 1_555
C9A O1A 1_555 1_555
C10A O3A 1_555 1_555
C11A C6A 1_555 1_555
C12A C7A 1_555 1_555
Cu2 O9 1_555 1_555
Cu2 O7E 1_555 1_555
Cu3 O5E 1_555 1_555
N3 C2 1_555 1_555
O9 Cu2F 1_555 1_555
C3 C9 1_555 1_555
C7 C8 1_555 1_555
Cu1A O5D 1_555 1_555
Cu1F O9F 1_555 1_555
Cu2A O7D 1_555 1_555
Cu2A O9A 1_555 1_555
Cu2F O9F 1_555 1_555
N3F C1F 1_555 1_555
N3F C2F 1_555 1_555
O2A C9A 1_555 1_555
C3A C9A 1_555 1_555
C4A C10A 1_555 1_555
C7A C8A 1_555 1_555

#END
