
#######################################################################
#
#                 Cambridge Crystallographic Data Centre
#                                CCDC 
#
#######################################################################
#
# If this CIF has been generated from an entry in the Cambridge 
# Structural Database, then it will include bibliographic, chemical, 
# crystal, experimental, refinement or atomic coordinate data resulting 
# from the CCDC's data processing and validation procedures.
#
#######################################################################

data_DAWMOF
_symmetry_cell_setting           triclinic
_symmetry_space_group_name_H-M   'P -1'
_symmetry_Int_Tables_number      2
_space_group_name_Hall           '-P 1'
loop_
_symmetry_equiv_pos_site_id
_symmetry_equiv_pos_as_xyz
1 x,y,z
2 -x,-y,-z
_cell_length_a                   10.4720(3)
_cell_length_b                   10.5610(3)
_cell_length_c                   11.0590(4)
_cell_angle_alpha                96.271(2)
_cell_angle_beta                 114.843(2)
_cell_angle_gamma                115.244(1)
_cell_volume                     939.881
loop_
_atom_site_label
_atom_site_type_symbol
_atom_site_fract_x
_atom_site_fract_y
_atom_site_fract_z
Cu1 Cu 0.78533(4) 0.10567(3) 0.61259(3)
Mg1 Mg 1.0000 0.0000 0.5000
Mg2 Mg 1.0000 0.0000 1.0000
O1 O 0.9934(2) 0.15283(19) 0.6234(2)
O2 O 0.6135(2) 0.0603(2) 0.3809(2)
H1 H 0.5026 -0.0031 0.3358
O3 O 0.6888(2) 0.1273(2) 0.7248(2)
O4 O 0.6927(2) -0.1034(2) 0.5909(2)
O5 O 0.8606(2) -0.1600(2) 0.5539(2)
O6 O 0.7824(3) -0.0406(3) 0.3198(2)
H2 H 0.7247 -0.1180 0.2345
H3 H 0.7213 -0.0037 0.3351
O7 O 0.8496(2) -0.2019(2) 0.8345(2)
O8 O 0.6589(3) -0.3455(2) 0.8814(2)
O9 O 1.1962(3) -0.0321(3) 1.0674(2)
H4 H 1.2162 -0.0741 1.1295
H5 H 1.2398 -0.0428 1.0188
O10 O 0.9168(3) -0.1079(2) 1.1194(2)
H6 H 0.9537 -0.0967 1.2112
H7 H 0.8221 -0.1880 1.0602
N1 N 0.8507(3) 0.3166(2) 0.6244(2)
C1 C 1.1005(3) 0.3108(3) 0.6800(3)
H10 H 1.1870 0.3387 0.6553
H11 H 1.1554 0.3460 0.7850
C2 C 1.0045(4) 0.3855(3) 0.6210(4)
H12 H 1.0730 0.4935 0.6784
H13 H 0.9773 0.3747 0.5219
C3 C 0.6418(4) 0.2010(3) 0.3651(3)
H14 H 0.5366 0.1884 0.2932
H15 H 0.7200 0.2364 0.3311
C4 C 0.7118(4) 0.3156(4) 0.5053(4)
H16 H 0.7517 0.4160 0.4973
H17 H 0.6233 0.2933 0.5267
C5 C 0.7324(4) 0.2773(3) 0.7775(3)
H18 H 0.7643 0.3045 0.8786
H19 H 0.6359 0.2867 0.7232
C6 C 0.8749(4) 0.3834(3) 0.7641(4)
H20 H 0.8807 0.4801 0.7710
H21 H 0.9802 0.4021 0.8426
C7 C 0.7387(3) -0.1913(3) 0.5672(3)
C8 C 0.6233(3) -0.3520(3) 0.5395(3)
C9 C 0.5247(3) -0.4470(3) 0.3981(3)
H22 H 0.5424 -0.4108 0.3282
C10 C 0.5993(3) -0.4058(3) 0.6429(3)
C11 C 0.7094(3) -0.3105(3) 0.7984(3)
Cu1A Cu 1.21467(4) -0.10567(3) 0.38741(3)
Cu1A_2 Cu 0.21467(4) -1.10567(3) 0.38741(3)
Mg1_2 Mg 0.0000 -1.0000 0.5000
Mg2_2 Mg 0.0000 -1.0000 0.0000
O1A O 1.0066(2) -0.15283(19) 0.3766(2)
O2A O 1.3865(2) -0.0603(2) 0.6191(2)
H1A H 1.4974 0.0031 0.6642
O3A O 1.3112(2) -0.1273(2) 0.2752(2)
O4A O 0.3073(2) -0.8966(2) 0.4091(2)
O4A_2 O 1.3073(2) 0.1034(2) 0.4091(2)
O5A O 0.1394(2) -0.8400(2) 0.4461(2)
O5A_2 O 1.1394(2) 0.1600(2) 0.4461(2)
O6A O 1.2176(3) 0.0406(3) 0.6802(2)
H2A H 1.2753 0.1180 0.7655
H3A H 1.2787 0.0037 0.6649
O7A O 0.1504(2) -0.7981(2) 0.1655(2)
O7A_2 O 1.1504(2) 0.2019(2) 1.1655(2)
O8A O 0.3411(3) -0.6545(2) 0.1186(2)
O9A O 0.8038(3) 0.0321(3) 0.9326(2)
H4A H 0.7838 0.0741 0.8705
H5A H 0.7602 0.0428 0.9812
O10A O 1.0832(3) 0.1079(2) 0.8806(2)
H6A H 1.0463 0.0967 0.7888
H7A H 1.1779 0.1880 0.9398
N1A N 1.1493(3) -0.3166(2) 0.3756(2)
C1A C 0.8995(3) -0.3108(3) 0.3200(3)
H10A H 0.8130 -0.3387 0.3447
H11A H 0.8446 -0.3460 0.2150
C2A C 0.9955(4) -0.3855(3) 0.3790(4)
H12A H 0.9270 -0.4935 0.3216
H13A H 1.0227 -0.3747 0.4781
C3A C 1.3582(4) -0.2010(3) 0.6349(3)
H14A H 1.4634 -0.1884 0.7068
H15A H 1.2800 -0.2364 0.6689
C4A C 1.2882(4) -0.3156(4) 0.4947(4)
H16A H 1.2483 -0.4160 0.5027
H17A H 1.3767 -0.2933 0.4733
C5A C 1.2676(4) -0.2773(3) 0.2225(3)
H18A H 1.2357 -0.3045 0.1214
H19A H 1.3641 -0.2867 0.2768
C6A C 1.1251(4) -0.3834(3) 0.2359(4)
H20A H 1.1193 -0.4801 0.2290
H21A H 1.0198 -0.4021 0.1574
C7A C 0.2613(3) -0.8087(3) 0.4328(3)
C8A C 0.3767(3) -0.6480(3) 0.4605(3)
C9A C 0.4753(3) -0.5530(3) 0.6019(3)
H22A H 0.4576 -0.5892 0.6718
C10A C 0.4007(3) -0.5942(3) 0.3571(3)
C11A C 0.2906(3) -0.6895(3) 0.2016(3)
O11 O 0.9337(4) 0.2423(4) 0.2407(4)
H8 H 0.8577 0.1583 0.1853
H9 H 1.0047 0.2501 0.2248
O14 O 0.3940(8) -0.1806(8) 0.9919(7)
H27 H 0.2785 -0.2381 0.8979
H28 H 0.4725 -0.1373 0.9680
O15 O 0.4981(8) -0.3846(7) 1.0464(8)
H29 H 0.5584 -0.3605 0.9957
H30 H 0.4510 -0.4744 1.0192
O12? O 0.5442(7) -0.2445(8) 1.0525(6)
H23? H 0.5425 -0.2833 0.9839
H24? H 0.4564 -0.2294 1.0183
O13? O 0.3724(7) -0.0951(8) 0.9608(6)
H25? H 0.4287 0.0075 0.9792
H26? H 0.2802 -0.1380 0.8597
loop_
_geom_bond_atom_site_label_1
_geom_bond_atom_site_label_2
_geom_bond_site_symmetry_1
_geom_bond_site_symmetry_2
Cu1 O1 1_555 1_555
Mg1 O1 1_555 1_555
Mg2 O7 1_555 1_555
O1 C1 1_555 1_555
O2 Cu1 1_555 1_555
H1 O2 1_555 1_555
O3 Cu1 1_555 1_555
O4 Cu1 1_555 1_555
O5 Mg1 1_555 1_555
O6 Mg1 1_555 1_555
H2 O6 1_555 1_555
H3 O6 1_555 1_555
O7 C11 1_555 1_555
O8 C11 1_555 1_555
O9 Mg2 1_555 1_555
H4 O9 1_555 1_555
H5 O9 1_555 1_555
O10 Mg2 1_555 1_555
H6 O10 1_555 1_555
H7 O10 1_555 1_555
O11 H8 1_555 1_555
H9 O11 1_555 1_555
N1 Cu1 1_555 1_555
C1 H10 1_555 1_555
H11 C1 1_555 1_555
C2 N1 1_555 1_555
H12 C2 1_555 1_555
H13 C2 1_555 1_555
C3 O2 1_555 1_555
H14 C3 1_555 1_555
H15 C3 1_555 1_555
C4 N1 1_555 1_555
H16 C4 1_555 1_555
H17 C4 1_555 1_555
C5 O3 1_555 1_555
H18 C5 1_555 1_555
H19 C5 1_555 1_555
C6 N1 1_555 1_555
H20 C6 1_555 1_555
H21 C6 1_555 1_555
C7 O4 1_555 1_555
C8 C7 1_555 1_555
C9 C8 1_555 1_555
H22 C9 1_555 1_555
C10 C8 1_555 1_555
C11 C10 1_555 1_555
O14 H27 1_555 1_555
H28 O14 1_555 1_555
O15 H29 1_555 1_555
H30 O15 1_555 1_555
Cu1A O1A 1_555 1_555
Cu1A_2 O4A 1_555 1_555
Mg1_2 O5A 1_555 1_555
Mg2_2 O7A 1_555 1_555
O1A Mg1 1_555 1_555
O2A Cu1A 1_555 1_555
H1A O2A 1_555 1_555
O3A Cu1A 1_555 1_555
O4A C7A 1_555 1_555
O4A_2 Cu1A 1_555 1_555
O5A C7A 1_555 1_555
O5A_2 Mg1 1_555 1_555
O6A Mg1 1_555 1_555
H2A O6A 1_555 1_555
H3A O6A 1_555 1_555
O7A C11A 1_555 1_555
O7A_2 Mg2 1_555 1_555
O8A C11A 1_555 1_555
O9A Mg2 1_555 1_555
H4A O9A 1_555 1_555
H5A O9A 1_555 1_555
O10A Mg2 1_555 1_555
H6A O10A 1_555 1_555
H7A O10A 1_555 1_555
N1A Cu1A 1_555 1_555
C1A O1A 1_555 1_555
H10A C1A 1_555 1_555
H11A C1A 1_555 1_555
C2A N1A 1_555 1_555
H12A C2A 1_555 1_555
H13A C2A 1_555 1_555
C3A O2A 1_555 1_555
H14A C3A 1_555 1_555
H15A C3A 1_555 1_555
C4A N1A 1_555 1_555
H16A C4A 1_555 1_555
H17A C4A 1_555 1_555
C5A O3A 1_555 1_555
H18A C5A 1_555 1_555
H19A C5A 1_555 1_555
C6A N1A 1_555 1_555
H20A C6A 1_555 1_555
H21A C6A 1_555 1_555
C7A C8A 1_555 1_555
C8A C9A 1_555 1_555
C9A C10 1_555 1_555
H22A C9A 1_555 1_555
C10A C9 1_555 1_555
C11A C10A 1_555 1_555
O5 C7 1_555 1_555
C1 C2 1_555 1_555
C3 C4 1_555 1_555
C5 C6 1_555 1_555
C1A C2A 1_555 1_555
C3A C4A 1_555 1_555
C5A C6A 1_555 1_555
C8A C10A 1_555 1_555

#END
