
#######################################################################
#
#                 Cambridge Crystallographic Data Centre
#                                CCDC 
#
#######################################################################
#
# If this CIF has been generated from an entry in the Cambridge 
# Structural Database, then it will include bibliographic, chemical, 
# crystal, experimental, refinement or atomic coordinate data resulting 
# from the CCDC's data processing and validation procedures.
#
#######################################################################

data_DAWPOI
_symmetry_cell_setting           triclinic
_symmetry_space_group_name_H-M   'P -1'
_symmetry_Int_Tables_number      2
_space_group_name_Hall           '-P 1'
loop_
_symmetry_equiv_pos_site_id
_symmetry_equiv_pos_as_xyz
1 x,y,z
2 -x,-y,-z
_cell_length_a                   9.2779(19)
_cell_length_b                   12.140(2)
_cell_length_c                   13.159(3)
_cell_angle_alpha                104.26(3)
_cell_angle_beta                 110.35(3)
_cell_angle_gamma                107.40(3)
_cell_volume                     1220.17
loop_
_atom_site_label
_atom_site_type_symbol
_atom_site_fract_x
_atom_site_fract_y
_atom_site_fract_z
Zn1 Zn 0.06260(4) 0.70167(4) 0.44123(3)
N1 N 0.2726(3) 0.7175(3) 0.5742(2)
N2 N 0.5419(4) 0.7659(3) 0.6950(3)
N3 N 0.4337(3) 0.7003(3) 0.7287(2)
N4 N 1.1014(4) 0.8747(3) 1.4404(3)
N5 N 1.2424(5) 1.0604(4) 1.4445(3)
N6 N 1.0817(4) 1.0050(3) 1.3570(3)
C1 C 0.2748(4) 0.6717(3) 0.6557(3)
H1 H 0.1793 0.6262 0.6611
C2 C 0.4405(4) 0.7740(3) 0.6024(3)
H2 H 0.4789 0.8147 0.5593
C3 C 0.4965(5) 0.6632(3) 0.8272(3)
H3 H 0.5416 0.6035 0.8062
H4 H 0.4024 0.6216 0.8410
C4 C 0.6338(5) 0.7739(3) 0.9404(3)
C5 C 0.8058(5) 0.8019(3) 0.9717(3)
C6 C 0.9334(5) 0.8968(3) 1.0815(3)
C7 C 0.8848(6) 0.9648(3) 1.1565(3)
C8 C 0.7146(6) 0.9389(4) 1.1244(3)
C9 C 0.5868(5) 0.8426(3) 1.0147(3)
C10 C 0.8613(6) 0.7329(4) 0.8916(4)
H5 H 0.8954 0.6749 0.9204
H6 H 0.9551 0.7921 0.8898
H7 H 0.7687 0.6879 0.8134
C11 C 1.1164(5) 0.9218(4) 1.1173(4)
H8 H 1.1305 0.8467 1.1173
H9 H 1.1859 0.9868 1.1949
H10 H 1.1495 0.9480 1.0627
C12 C 0.6585(8) 1.0062(5) 1.2054(4)
H11 H 0.5969 1.0475 1.1676
H12 H 0.7563 1.0673 1.2772
H13 H 0.5866 0.9466 1.2229
C13 C 0.4014(6) 0.8148(5) 0.9807(4)
H14 H 0.3334 0.7623 0.8984
H15 H 0.3889 0.8921 0.9962
H16 H 0.3650 0.7726 1.0262
C14 C 1.0249(7) 1.0642(4) 1.2754(3)
H17 H 1.1199 1.1122 1.2656
H18 H 0.9834 1.1214 1.3078
C15 C 1.0006(5) 0.8948(4) 1.3561(3)
H19 H 0.8884 0.8396 1.3033
C16 C 1.2499(5) 0.9805(4) 1.4928(4)
H20 H 1.3467 0.9935 1.5569
C17 C -0.2354(4) 0.6260(3) 0.4465(3)
C18 C -0.3712(4) 0.5631(3) 0.4762(3)
C19 C -0.3342(4) 0.5190(3) 0.5653(3)
H21 H -0.2235 0.5313 0.6092
C20 C -0.5383(4) 0.5432(3) 0.4110(3)
H22 H -0.5641 0.5722 0.3508
C21 C 0.0976(7) 0.6250(5) 0.2490(4)
C22 C 0.0466(6) 0.5597(4) 0.1192(4)
C23 C 0.1693(7) 0.5718(5) 0.0811(4)
H23 H 0.2832 0.6202 0.1345
C24 C -0.1220(7) 0.4887(5) 0.0376(4)
H24 H -0.2055 0.4812 0.0626
O1 O -0.0863(3) 0.6387(3) 0.5088(2)
O2 O -0.2706(4) 0.6592(3) 0.3635(3)
O3 O -0.0161(4) 0.5852(3) 0.2809(3)
O4 O 0.2406(5) 0.7103(4) 0.3150(3)
Zn1_2 Zn -0.93740(4) 0.70167(4) -0.55877(3)
Zn1_3 Zn 1.06260(4) 0.70167(4) 1.44123(3)
Zn1A Zn -1.06260(4) 0.29833(4) 0.55877(3)
Zn1A_2 Zn -0.06260(4) 0.29833(4) -0.44123(3)
N1_2 N -0.7274(3) 0.7175(3) -0.4258(2)
N2_2 N -0.4581(4) 0.7659(3) -0.3050(3)
N3_2 N -0.5663(3) 0.7003(3) -0.2713(2)
N4_2 N 0.1014(4) 0.8747(3) 0.4404(3)
N4_3 N -0.8986(4) 0.8747(3) -0.5596(3)
N5_2 N 0.2424(5) 1.0604(4) 0.4445(3)
N6_2 N 0.0817(4) 1.0050(3) 0.3570(3)
C1_2 C -0.7252(4) 0.6717(3) -0.3443(3)
H1_2 H -0.8207 0.6262 -0.3389
C2_2 C -0.5595(4) 0.7740(3) -0.3976(3)
H2_2 H -0.5211 0.8147 -0.4407
C3_2 C -0.5035(5) 0.6632(3) -0.1728(3)
H3_2 H -0.4584 0.6035 -0.1938
H4_2 H -0.5976 0.6216 -0.1590
C4_2 C -0.3662(5) 0.7739(3) -0.0596(3)
C5_2 C -0.1942(5) 0.8019(3) -0.0283(3)
C6_2 C -0.0666(5) 0.8968(3) 0.0815(3)
C7_2 C -0.1152(6) 0.9648(3) 0.1565(3)
C8_2 C -0.2854(6) 0.9389(4) 0.1244(3)
C9_2 C -0.4132(5) 0.8426(3) 0.0147(3)
C10_2 C -0.1387(6) 0.7329(4) -0.1084(4)
H5_2 H -0.1046 0.6749 -0.0796
H6_2 H -0.0449 0.7921 -0.1102
H7_2 H -0.2313 0.6879 -0.1866
C11_2 C 0.1164(5) 0.9218(4) 0.1173(4)
H8_2 H 0.1305 0.8467 0.1173
H9_2 H 0.1859 0.9868 0.1949
H10_2 H 0.1495 0.9480 0.0627
C12_2 C -0.3415(8) 1.0062(5) 0.2054(4)
H11_2 H -0.4031 1.0475 0.1676
H12_2 H -0.2437 1.0673 0.2772
H13_2 H -0.4134 0.9466 0.2229
C13_2 C -0.5986(6) 0.8148(5) -0.0193(4)
H14_2 H -0.6666 0.7623 -0.1016
H15_2 H -0.6111 0.8921 -0.0038
H16_2 H -0.6350 0.7726 0.0262
C14_2 C 0.0249(7) 1.0642(4) 0.2754(3)
H17_2 H 0.1199 1.1122 0.2656
H18_2 H -0.0166 1.1214 0.3078
C15_2 C 0.0006(5) 0.8948(4) 0.3561(3)
H19_2 H -0.1116 0.8396 0.3033
C16_2 C 0.2499(5) 0.9805(4) 0.4928(4)
H20_2 H 0.3467 0.9935 0.5569
C17A C -0.7646(4) 0.3740(3) 0.5535(3)
C18A C -0.6288(4) 0.4369(3) 0.5238(3)
C19A C -0.6658(4) 0.4810(3) 0.4347(3)
H21A H -0.7765 0.4687 0.3908
C20A C -0.4617(4) 0.4568(3) 0.5890(3)
H22A H -0.4359 0.4278 0.6492
C21A C -0.0976(7) 0.3750(5) -0.2490(4)
C22A C -0.0466(6) 0.4403(4) -0.1192(4)
C23A C -0.1693(7) 0.4282(5) -0.0811(4)
H23A H -0.2832 0.3798 -0.1345
C24A C 0.1220(7) 0.5113(5) -0.0376(4)
H24A H 0.2055 0.5188 -0.0626
O1A O -0.9137(3) 0.3613(3) 0.4912(2)
O1_2 O -1.0863(3) 0.6387(3) -0.4912(2)
O2A O -0.7294(4) 0.3408(3) 0.6365(3)
O3A O 0.0161(4) 0.4148(3) -0.2809(3)
O3_2 O -1.0161(4) 0.5852(3) -0.7191(3)
O4A O -0.2406(5) 0.2897(4) -0.3150(3)
O5 O 0.5211(14) 0.7868(9) 0.2827(8)
H25 H 0.4181 0.7390 0.2334
H26 H 0.5824 0.7498 0.3068
O6 O 0.5906(13) 0.6170(11) 0.1174(9)
H27 H 0.5668 0.5867 0.1643
H28 H 0.5560 0.6091 0.0460
loop_
_geom_bond_atom_site_label_1
_geom_bond_atom_site_label_2
_geom_bond_site_symmetry_1
_geom_bond_site_symmetry_2
Zn1 N1 1_555 1_555
N1 C1 1_555 1_555
N2 N3 1_555 1_555
N3 C1 1_555 1_555
N4 C15 1_555 1_555
N5 N6 1_555 1_555
N6 C14 1_555 1_555
C1 H1 1_555 1_555
C2 N1 1_555 1_555
H2 C2 1_555 1_555
C3 N3 1_555 1_555
H3 C3 1_555 1_555
H4 C3 1_555 1_555
C4 C3 1_555 1_555
C5 C4 1_555 1_555
C6 C5 1_555 1_555
C7 C6 1_555 1_555
C8 C7 1_555 1_555
C9 C4 1_555 1_555
C10 C5 1_555 1_555
H5 C10 1_555 1_555
H6 C10 1_555 1_555
H7 C10 1_555 1_555
C11 C6 1_555 1_555
H8 C11 1_555 1_555
H9 C11 1_555 1_555
H10 C11 1_555 1_555
C12 C8 1_555 1_555
H11 C12 1_555 1_555
H12 C12 1_555 1_555
H13 C12 1_555 1_555
C13 C9 1_555 1_555
H14 C13 1_555 1_555
H15 C13 1_555 1_555
H16 C13 1_555 1_555
C14 C7 1_555 1_555
H17 C14 1_555 1_555
H18 C14 1_555 1_555
C15 N6 1_555 1_555
H19 C15 1_555 1_555
C16 N4 1_555 1_555
H20 C16 1_555 1_555
C17 C18 1_555 1_555
C18 C19 1_555 1_555
C19 H21 1_555 1_555
C20 C18 1_555 1_555
H22 C20 1_555 1_555
C21 C22 1_555 1_555
C22 C23 1_555 1_555
C23 H23 1_555 1_555
C24 C22 1_555 1_555
H24 C24 1_555 1_555
O1 Zn1 1_555 1_555
O2 C17 1_555 1_555
O3 Zn1 1_555 1_555
O4 C21 1_555 1_555
O5 H25 1_555 1_555
H26 O5 1_555 1_555
O6 H27 1_555 1_555
H28 O6 1_555 1_555
Zn1_2 N1_2 1_555 1_555
Zn1_3 N4 1_555 1_555
Zn1A O1A 1_555 1_555
Zn1A_2 O3A 1_555 1_555
N1_2 C1_2 1_555 1_555
N2_2 N3_2 1_555 1_555
N3_2 C1_2 1_555 1_555
N4_2 Zn1 1_555 1_555
N4_3 Zn1_2 1_555 1_555
N5_2 N6_2 1_555 1_555
N6_2 C14_2 1_555 1_555
C1_2 H1_2 1_555 1_555
C2_2 N1_2 1_555 1_555
H2_2 C2_2 1_555 1_555
C3_2 N3_2 1_555 1_555
H3_2 C3_2 1_555 1_555
H4_2 C3_2 1_555 1_555
C4_2 C3_2 1_555 1_555
C5_2 C4_2 1_555 1_555
C6_2 C5_2 1_555 1_555
C7_2 C6_2 1_555 1_555
C8_2 C7_2 1_555 1_555
C9_2 C4_2 1_555 1_555
C10_2 C5_2 1_555 1_555
H5_2 C10_2 1_555 1_555
H6_2 C10_2 1_555 1_555
H7_2 C10_2 1_555 1_555
C11_2 C6_2 1_555 1_555
H8_2 C11_2 1_555 1_555
H9_2 C11_2 1_555 1_555
H10_2 C11_2 1_555 1_555
C12_2 C8_2 1_555 1_555
H11_2 C12_2 1_555 1_555
H12_2 C12_2 1_555 1_555
H13_2 C12_2 1_555 1_555
C13_2 C9_2 1_555 1_555
H14_2 C13_2 1_555 1_555
H15_2 C13_2 1_555 1_555
H16_2 C13_2 1_555 1_555
C14_2 C7_2 1_555 1_555
H17_2 C14_2 1_555 1_555
H18_2 C14_2 1_555 1_555
C15_2 N4_2 1_555 1_555
H19_2 C15_2 1_555 1_555
C16_2 N4_2 1_555 1_555
H20_2 C16_2 1_555 1_555
C17A C18A 1_555 1_555
C18A C19A 1_555 1_555
C19A C20 1_555 1_555
H21A C19A 1_555 1_555
C20A C19 1_555 1_555
H22A C20A 1_555 1_555
C21A C22A 1_555 1_555
C22A C23A 1_555 1_555
C23A C24 1_555 1_555
H23A C23A 1_555 1_555
C24A C23 1_555 1_555
H24A C24A 1_555 1_555
O1A C17A 1_555 1_555
O1_2 Zn1_2 1_555 1_555
O2A C17A 1_555 1_555
O3A C21A 1_555 1_555
O3_2 Zn1_2 1_555 1_555
O4A C21A 1_555 1_555
N2 C2 1_555 1_555
N5 C16 1_555 1_555
C8 C9 1_555 1_555
C17 O1 1_555 1_555
C21 O3 1_555 1_555
N2_2 C2_2 1_555 1_555
N5_2 C16_2 1_555 1_555
N6_2 C15_2 1_555 1_555
C8_2 C9_2 1_555 1_555
C18A C20A 1_555 1_555
C22A C24A 1_555 1_555

#END
