
#######################################################################
#
#                 Cambridge Crystallographic Data Centre
#                                CCDC 
#
#######################################################################
#
# If this CIF has been generated from an entry in the Cambridge 
# Structural Database, then it will include bibliographic, chemical, 
# crystal, experimental, refinement or atomic coordinate data resulting 
# from the CCDC's data processing and validation procedures.
#
#######################################################################

data_DAWPIC
_symmetry_cell_setting           triclinic
_symmetry_space_group_name_H-M   'P -1'
_symmetry_Int_Tables_number      2
_space_group_name_Hall           '-P 1'
loop_
_symmetry_equiv_pos_site_id
_symmetry_equiv_pos_as_xyz
1 x,y,z
2 -x,-y,-z
_cell_length_a                   10.293(2)
_cell_length_b                   10.613(2)
_cell_length_c                   12.534(3)
_cell_angle_alpha                112.94(3)
_cell_angle_beta                 97.04(3)
_cell_angle_gamma                105.01(3)
_cell_volume                     1178.83
loop_
_atom_site_label
_atom_site_type_symbol
_atom_site_fract_x
_atom_site_fract_y
_atom_site_fract_z
Zn1 Zn 0.89579(7) 0.89027(8) 0.68630(6)
N1 N 0.9063(5) 0.8489(5) 0.8305(4)
N2 N 0.9731(6) 0.7923(7) 0.9775(5)
N3 N 0.8358(4) 0.7677(5) 0.9576(4)
N4 N -0.0368(5) 0.0920(6) 0.6962(5)
N5 N 0.0183(6) 0.3329(6) 0.7616(6)
N6 N 0.1033(5) 0.2810(6) 0.6920(4)
C1 C 0.6200(6) 0.8439(7) 0.6470(5)
C2 C 0.4660(5) 0.7672(7) 0.5895(5)
C3 C 0.4156(6) 0.6321(7) 0.4908(6)
H1 H 0.4771 0.5873 0.4580
C4 C 0.2734(7) 0.5636(7) 0.4410(7)
H2 H 0.2399 0.4727 0.3755
C5 C 0.1812(6) 0.6308(7) 0.4890(6)
H3 H 0.0862 0.5851 0.4545
C6 C 0.2289(6) 0.7644(7) 0.5871(5)
C7 C 0.1321(5) 0.8378(7) 0.6445(5)
C8 C 0.3740(5) 0.8340(6) 0.6390(5)
H4 H 0.4073 0.9238 0.7058
C9 C 0.7966(6) 0.8020(8) 0.8683(6)
H5 H 0.7062 0.7940 0.8378
C10 C 1.0112(6) 0.8419(8) 0.9009(6)
H6 H 1.1028 0.8697 0.8959
C11 C 0.7442(7) 0.7081(8) 1.0198(6)
H7 H 0.7377 0.7870 1.0894
H8 H 0.7833 0.6488 1.0471
C12 C 0.6014(6) 0.6175(7) 0.9381(5)
C13 C 0.5779(6) 0.4741(7) 0.8586(6)
C14 C 0.6906(8) 0.4069(8) 0.8588(7)
H9 H 0.7439 0.4217 0.8043
H10 H 0.6491 0.3047 0.8341
H11 H 0.7505 0.4517 0.9379
C15 C 0.4489(6) 0.3927(6) 0.7751(5)
C16 C 0.4210(8) 0.2340(7) 0.6894(7)
H12 H 0.5077 0.2170 0.6844
H13 H 0.3704 0.2133 0.6115
H14 H 0.3672 0.1720 0.7186
C17 C 0.3472(6) 0.4584(7) 0.7702(5)
C18 C 0.3704(6) 0.6015(7) 0.8531(6)
C19 C 0.2577(8) 0.6710(8) 0.8535(7)
H15 H 0.2600 0.7312 0.9346
H16 H 0.1684 0.5963 0.8155
H17 H 0.2739 0.7291 0.8108
C20 C 0.4992(7) 0.6821(6) 0.9371(5)
C21 C 0.5265(9) 0.8409(8) 1.0190(7)
H18 H 0.4704 0.8477 1.0754
H19 H 0.5035 0.8887 0.9720
H20 H 0.6229 0.8866 1.0612
C22 C 0.2161(6) 0.3766(7) 0.6692(6)
H21 H 0.1826 0.4466 0.6534
H22 H 0.2394 0.3185 0.5976
C23 C 0.0688(6) 0.1412(7) 0.6557(6)
H23 H 0.1125 0.0834 0.6076
C24 C -0.0644(7) 0.2126(8) 0.7599(7)
H24 H -0.1353 0.2120 0.7994
O1 O 0.7008(4) 0.7827(5) 0.5926(4)
O2 O 0.6613(4) 0.9574(5) 0.7398(4)
O3 O 0.0038(4) 0.7843(5) 0.5861(4)
O4 O 0.1767(4) 0.9459(5) 0.7434(4)
Zn1_2 Zn -0.10421(7) -0.10973(8) 0.68630(6)
Zn1_3 Zn -0.10421(7) 0.89027(8) 0.68630(6)
N4_2 N 0.9632(5) 1.0920(6) 0.6962(5)
O3_2 O 1.0038(4) 0.7843(5) 0.5861(4)
loop_
_geom_bond_atom_site_label_1
_geom_bond_atom_site_label_2
_geom_bond_site_symmetry_1
_geom_bond_site_symmetry_2
Zn1 N1 1_555 1_555
N1 C9 1_555 1_555
N2 N3 1_555 1_555
N3 C9 1_555 1_555
N4 C23 1_555 1_555
N5 N6 1_555 1_555
N6 C22 1_555 1_555
C1 C2 1_555 1_555
C2 C3 1_555 1_555
C3 H1 1_555 1_555
C4 C3 1_555 1_555
H2 C4 1_555 1_555
C5 C4 1_555 1_555
H3 C5 1_555 1_555
C6 C5 1_555 1_555
C7 C6 1_555 1_555
C8 C2 1_555 1_555
H4 C8 1_555 1_555
C9 H5 1_555 1_555
C10 N1 1_555 1_555
H6 C10 1_555 1_555
C11 N3 1_555 1_555
H7 C11 1_555 1_555
H8 C11 1_555 1_555
C12 C11 1_555 1_555
C13 C12 1_555 1_555
C14 C13 1_555 1_555
H9 C14 1_555 1_555
H10 C14 1_555 1_555
H11 C14 1_555 1_555
C15 C13 1_555 1_555
C16 C15 1_555 1_555
H12 C16 1_555 1_555
H13 C16 1_555 1_555
H14 C16 1_555 1_555
C17 C15 1_555 1_555
C18 C17 1_555 1_555
C19 C18 1_555 1_555
H15 C19 1_555 1_555
H16 C19 1_555 1_555
H17 C19 1_555 1_555
C20 C12 1_555 1_555
C21 C20 1_555 1_555
H18 C21 1_555 1_555
H19 C21 1_555 1_555
H20 C21 1_555 1_555
C22 C17 1_555 1_555
H21 C22 1_555 1_555
H22 C22 1_555 1_555
C23 N6 1_555 1_555
H23 C23 1_555 1_555
C24 N4 1_555 1_555
H24 C24 1_555 1_555
O1 Zn1 1_555 1_555
O2 C1 1_555 1_555
O3 C7 1_555 1_555
O4 C7 1_555 1_555
Zn1_2 N4 1_555 1_555
Zn1_3 O3 1_555 1_555
N4_2 Zn1 1_555 1_555
O3_2 Zn1 1_555 1_555
N2 C10 1_555 1_555
N5 C24 1_555 1_555
C1 O1 1_555 1_555
C6 C8 1_555 1_555
C18 C20 1_555 1_555

#END
