
#######################################################################
#
#                 Cambridge Crystallographic Data Centre
#                                CCDC 
#
#######################################################################
#
# If this CIF has been generated from an entry in the Cambridge 
# Structural Database, then it will include bibliographic, chemical, 
# crystal, experimental, refinement or atomic coordinate data resulting 
# from the CCDC's data processing and validation procedures.
#
#######################################################################

data_DAWQAV
_symmetry_cell_setting           triclinic
_symmetry_space_group_name_H-M   'P -1'
_symmetry_Int_Tables_number      2
_space_group_name_Hall           '-P 1'
loop_
_symmetry_equiv_pos_site_id
_symmetry_equiv_pos_as_xyz
1 x,y,z
2 -x,-y,-z
_cell_length_a                   9.1860(18)
_cell_length_b                   11.920(2)
_cell_length_c                   14.210(3)
_cell_angle_alpha                72.69(3)
_cell_angle_beta                 85.48(3)
_cell_angle_gamma                77.25(3)
_cell_volume                     1448.71
loop_
_atom_site_label
_atom_site_type_symbol
_atom_site_fract_x
_atom_site_fract_y
_atom_site_fract_z
Zn1 Zn 1.01401(3) 0.19257(2) 0.23832(2)
N1 N 0.8838(2) 0.17140(18) 0.36160(15)
N2 N 0.7449(3) 0.0821(2) 0.48529(17)
N3 N 0.7270(3) 0.2003(2) 0.47815(16)
N4 N 1.4394(2) 0.25575(18) 0.22422(15)
N5 N 1.4704(3) 0.1480(2) 0.29342(19)
N6 N 1.2308(2) 0.19476(18) 0.25055(15)
C1 C 0.8396(3) 0.0692(2) 0.4141(2)
H1 H 0.8740 -0.0039 0.4005
C2 C 0.8094(3) 0.2519(2) 0.40481(19)
H2 H 0.8146 0.3326 0.3862
C3 C 0.6358(4) 0.2455(3) 0.5547(2)
H3 H 0.6976 0.2287 0.6116
H4 H 0.5558 0.2018 0.5754
C4 C 0.5681(4) 0.3791(3) 0.52177(19)
C5 C 0.4233(4) 0.4173(3) 0.4844(2)
C6 C 0.3408(5) 0.3307(4) 0.4654(3)
H5 H 0.4110 0.2612 0.4576
H6 H 0.2838 0.3688 0.4064
H7 H 0.2749 0.3068 0.5200
C7 C 0.6452(3) 0.4598(3) 0.5362(2)
C8 C 0.8059(4) 0.4208(4) 0.5708(3)
H8 H 0.8109 0.4335 0.6340
H9 H 0.8671 0.4672 0.5241
H10 H 0.8413 0.3372 0.5760
C9 C 1.3413(3) 0.1151(3) 0.3059(2)
H11 H 1.3274 0.0425 0.3495
C10 C 1.2980(3) 0.2822(2) 0.20029(19)
H12 H 1.2518 0.3524 0.1546
C11 C 1.5549(3) 0.3277(2) 0.1922(2)
H13 H 1.6509 0.2747 0.1899
H14 H 1.5607 0.3701 0.2400
C12 C 1.5225(2) 0.4175(2) 0.09202(18)
C13 C 1.4362(2) 0.5323(2) 0.08445(18)
C14 C 1.3618(3) 0.5646(3) 0.1746(2)
H15 H 1.3949 0.5004 0.2327
H16 H 1.2554 0.5773 0.1697
H17 H 1.3879 0.6368 0.1786
C15 C 1.5844(2) 0.3835(2) 0.00857(19)
C16 C 1.6719(3) 0.2567(2) 0.0202(2)
H18 H 1.7723 0.2504 0.0389
H19 H 1.6735 0.2381 -0.0411
H20 H 1.6255 0.2013 0.0704
C17 C 1.0582(3) -0.0321(2) 0.22420(19)
C18 C 1.0678(3) -0.1352(2) 0.18107(18)
H21 H 1.1293 -0.2062 0.2238
H22 H 1.1189 -0.1165 0.1177
C19 C 0.9195(2) -0.16644(19) 0.16623(17)
C20 C 0.8199(3) -0.1767(2) 0.25843(19)
H23 H 0.7955 -0.1002 0.2731
H24 H 0.8727 -0.2363 0.3142
C21 C 0.6763(3) -0.2130(3) 0.2421(2)
H25 H 0.6134 -0.2194 0.3017
C22 C 0.7149(3) -0.3348(3) 0.2205(2)
H26 H 0.7677 -0.3951 0.2759
H27 H 0.6238 -0.3588 0.2118
C23 C 0.8123(3) -0.3266(2) 0.12728(18)
C24 C 0.9538(2) -0.28837(18) 0.14355(17)
H28 H 1.0169 -0.2828 0.0850
H29 H 1.0083 -0.3491 0.1980
C25 C 0.8346(3) -0.0722(2) 0.0789(2)
H30 H 0.8121 0.0056 0.0913
H31 H 0.8964 -0.0662 0.0197
C26 C 0.6901(3) -0.1071(2) 0.0637(2)
H32 H 0.6363 -0.0458 0.0081
C27 C 0.5926(3) -0.1173(3) 0.1558(3)
H33 H 0.5005 -0.1389 0.1454
H34 H 0.5675 -0.0406 0.1702
C28 C 0.7283(3) -0.2285(2) 0.0409(2)
H35 H 0.7897 -0.2218 -0.0185
H36 H 0.6371 -0.2505 0.0294
C29 C 0.8489(3) -0.4445(2) 0.0981(2)
H37 H 0.7565 -0.4568 0.0781
H38 H 0.9136 -0.4323 0.0402
C30 C 0.9216(3) -0.5606(2) 0.1721(2)
O1 O 0.9975(2) 0.07333(14) 0.17196(13)
O2 O 1.1082(2) -0.05102(17) 0.30697(15)
O3 O 0.9265(2) -0.65460(15) 0.14383(15)
O4 O 0.9719(3) -0.56520(17) 0.25123(16)
Zn1A Zn -0.01401(3) 0.80743(2) 0.76168(2)
Zn1_2 Zn 1.01401(3) -0.80743(2) 0.23832(2)
Zn1A_2 Zn 1.98599(3) 0.80743(2) -0.23832(2)
Zn1_3 Zn 1.01401(3) 1.19257(2) 0.23832(2)
N1A N 0.1162(2) 0.82860(18) 0.63840(15)
N2A N 0.2551(3) 0.9179(2) 0.51471(17)
N3A N 0.2730(3) 0.7997(2) 0.52185(16)
N4A N 1.5606(2) 0.74425(18) -0.22422(15)
N5A N 1.5296(3) 0.8520(2) -0.29342(19)
N6A N 1.7692(2) 0.80524(18) -0.25055(15)
N6A_2 N -0.2308(2) 0.80524(18) 0.74945(15)
C1A C 0.1604(3) 0.9308(2) 0.5859(2)
H1A H 0.1260 1.0039 0.5995
C2A C 0.1906(3) 0.7481(2) 0.59519(19)
H2A H 0.1854 0.6674 0.6138
C3A C 0.3642(4) 0.7545(3) 0.4453(2)
H3A H 0.3024 0.7713 0.3884
H4A H 0.4442 0.7982 0.4246
C4A C 0.4319(4) 0.6209(3) 0.47823(19)
C5A C 0.5767(4) 0.5827(3) 0.5156(2)
C6A C 0.6592(5) 0.6693(4) 0.5346(3)
H5A H 0.5890 0.7388 0.5424
H6A H 0.7162 0.6312 0.5936
H7A H 0.7251 0.6932 0.4800
C7A C 0.3548(3) 0.5402(3) 0.4638(2)
C8A C 0.1941(4) 0.5792(4) 0.4292(3)
H8A H 0.1891 0.5665 0.3660
H9A H 0.1329 0.5328 0.4759
H10A H 0.1587 0.6628 0.4240
C9A C 1.6587(3) 0.8849(3) -0.3059(2)
H11A H 1.6726 0.9575 -0.3495
C10A C 1.7020(3) 0.7178(2) -0.20029(19)
H12A H 1.7482 0.6476 -0.1546
C11A C 1.4451(3) 0.6723(2) -0.1922(2)
H13A H 1.3491 0.7253 -0.1899
H14A H 1.4393 0.6299 -0.2400
C12A C 1.4775(2) 0.5825(2) -0.09202(18)
C13A C 1.5638(2) 0.4677(2) -0.08445(18)
C14A C 1.6382(3) 0.4354(3) -0.1746(2)
H15A H 1.6051 0.4996 -0.2327
H16A H 1.7446 0.4227 -0.1697
H17A H 1.6121 0.3632 -0.1786
C15A C 1.4156(2) 0.6165(2) -0.00857(19)
C16A C 1.3281(3) 0.7433(2) -0.0202(2)
H18A H 1.2277 0.7496 -0.0389
H19A H 1.3265 0.7619 0.0411
H20A H 1.3745 0.7987 -0.0704
C17_2 C 1.0582(3) 0.9679(2) 0.22420(19)
C18_2 C 1.0678(3) 0.8648(2) 0.18107(18)
H21_2 H 1.1293 0.7938 0.2238
H22_2 H 1.1189 0.8835 0.1177
C19_2 C 0.9195(2) 0.83356(19) 0.16623(17)
C20_2 C 0.8199(3) 0.8233(2) 0.25843(19)
H23_2 H 0.7955 0.8998 0.2731
H24_2 H 0.8727 0.7637 0.3142
C21_2 C 0.6763(3) 0.7870(3) 0.2421(2)
H25_2 H 0.6134 0.7806 0.3017
C22_2 C 0.7149(3) 0.6652(3) 0.2205(2)
H26_2 H 0.7677 0.6049 0.2759
H27_2 H 0.6238 0.6412 0.2118
C23_2 C 0.8123(3) 0.6734(2) 0.12728(18)
C24_2 C 0.9538(2) 0.71163(18) 0.14355(17)
H28_2 H 1.0169 0.7172 0.0850
H29_2 H 1.0083 0.6509 0.1980
C25_2 C 0.8346(3) 0.9278(2) 0.0789(2)
H30_2 H 0.8121 1.0056 0.0913
H31_2 H 0.8964 0.9338 0.0197
C26_2 C 0.6901(3) 0.8929(2) 0.0637(2)
H32_2 H 0.6363 0.9542 0.0081
C27_2 C 0.5926(3) 0.8827(3) 0.1558(3)
H33_2 H 0.5005 0.8611 0.1454
H34_2 H 0.5675 0.9594 0.1702
C28_2 C 0.7283(3) 0.7715(2) 0.0409(2)
H35_2 H 0.7897 0.7782 -0.0185
H36_2 H 0.6371 0.7495 0.0294
C29_2 C 0.8489(3) 0.5555(2) 0.0981(2)
H37_2 H 0.7565 0.5432 0.0781
H38_2 H 0.9136 0.5677 0.0402
C30_2 C 0.9216(3) 0.4394(2) 0.1721(2)
O1_2 O 0.9975(2) 1.07333(14) 0.17196(13)
O1A O 0.0025(2) 0.92667(14) 0.82804(13)
O2_2 O 1.1082(2) 0.94898(17) 0.30697(15)
O3_2 O 0.9265(2) 0.34540(15) 0.14383(15)
O3A O 0.0735(2) 0.65460(15) 0.85617(15)
O4_2 O 0.9719(3) 0.43480(17) 0.25123(16)
loop_
_geom_bond_atom_site_label_1
_geom_bond_atom_site_label_2
_geom_bond_site_symmetry_1
_geom_bond_site_symmetry_2
Zn1 N1 1_555 1_555
N1 C1 1_555 1_555
N2 N3 1_555 1_555
N3 C2 1_555 1_555
N4 N5 1_555 1_555
N5 C9 1_555 1_555
N6 Zn1 1_555 1_555
C1 N2 1_555 1_555
H1 C1 1_555 1_555
C2 N1 1_555 1_555
H2 C2 1_555 1_555
C3 N3 1_555 1_555
H3 C3 1_555 1_555
H4 C3 1_555 1_555
C4 C3 1_555 1_555
C5 C4 1_555 1_555
C6 C5 1_555 1_555
H5 C6 1_555 1_555
H6 C6 1_555 1_555
H7 C6 1_555 1_555
C7 C4 1_555 1_555
C8 C7 1_555 1_555
H8 C8 1_555 1_555
H9 C8 1_555 1_555
H10 C8 1_555 1_555
C9 N6 1_555 1_555
H11 C9 1_555 1_555
C10 N4 1_555 1_555
H12 C10 1_555 1_555
C11 N4 1_555 1_555
H13 C11 1_555 1_555
H14 C11 1_555 1_555
C12 C11 1_555 1_555
C13 C12 1_555 1_555
C14 C13 1_555 1_555
H15 C14 1_555 1_555
H16 C14 1_555 1_555
H17 C14 1_555 1_555
C15 C12 1_555 1_555
C16 C15 1_555 1_555
H18 C16 1_555 1_555
H19 C16 1_555 1_555
H20 C16 1_555 1_555
C17 C18 1_555 1_555
C18 H21 1_555 1_555
H22 C18 1_555 1_555
C19 C18 1_555 1_555
C20 C19 1_555 1_555
H23 C20 1_555 1_555
H24 C20 1_555 1_555
C21 C20 1_555 1_555
H25 C21 1_555 1_555
C22 C21 1_555 1_555
H26 C22 1_555 1_555
H27 C22 1_555 1_555
C23 C22 1_555 1_555
C24 C19 1_555 1_555
H28 C24 1_555 1_555
H29 C24 1_555 1_555
C25 C19 1_555 1_555
H30 C25 1_555 1_555
H31 C25 1_555 1_555
C26 C25 1_555 1_555
H32 C26 1_555 1_555
C27 C21 1_555 1_555
H33 C27 1_555 1_555
H34 C27 1_555 1_555
C28 C23 1_555 1_555
H35 C28 1_555 1_555
H36 C28 1_555 1_555
C29 C23 1_555 1_555
H37 C29 1_555 1_555
H38 C29 1_555 1_555
C30 C29 1_555 1_555
O1 Zn1 1_555 1_555
O2 C17 1_555 1_555
O3 C30 1_555 1_555
O4 C30 1_555 1_555
Zn1A N1A 1_555 1_555
Zn1_2 O3 1_555 1_555
Zn1A_2 N6A 1_555 1_555
Zn1_3 O1_2 1_555 1_555
N1A C1A 1_555 1_555
N2A N3A 1_555 1_555
N3A C2A 1_555 1_555
N4A N5A 1_555 1_555
N5A C9A 1_555 1_555
N6A C9A 1_555 1_555
N6A_2 Zn1A 1_555 1_555
C1A N2A 1_555 1_555
H1A C1A 1_555 1_555
C2A N1A 1_555 1_555
H2A C2A 1_555 1_555
C3A N3A 1_555 1_555
H3A C3A 1_555 1_555
H4A C3A 1_555 1_555
C4A C3A 1_555 1_555
C5A C7 1_555 1_555
C6A C5A 1_555 1_555
H5A C6A 1_555 1_555
H6A C6A 1_555 1_555
H7A C6A 1_555 1_555
C7A C5 1_555 1_555
C8A C7A 1_555 1_555
H8A C8A 1_555 1_555
H9A C8A 1_555 1_555
H10A C8A 1_555 1_555
C9A H11A 1_555 1_555
C10A N4A 1_555 1_555
H12A C10A 1_555 1_555
C11A N4A 1_555 1_555
H13A C11A 1_555 1_555
H14A C11A 1_555 1_555
C12A C11A 1_555 1_555
C13A C15 1_555 1_555
C14A C13A 1_555 1_555
H15A C14A 1_555 1_555
H16A C14A 1_555 1_555
H17A C14A 1_555 1_555
C15A C13 1_555 1_555
C16A C15A 1_555 1_555
H18A C16A 1_555 1_555
H19A C16A 1_555 1_555
H20A C16A 1_555 1_555
C17_2 C18_2 1_555 1_555
C18_2 H21_2 1_555 1_555
H22_2 C18_2 1_555 1_555
C19_2 C18_2 1_555 1_555
C20_2 C19_2 1_555 1_555
H23_2 C20_2 1_555 1_555
H24_2 C20_2 1_555 1_555
C21_2 C20_2 1_555 1_555
H25_2 C21_2 1_555 1_555
C22_2 C21_2 1_555 1_555
H26_2 C22_2 1_555 1_555
H27_2 C22_2 1_555 1_555
C23_2 C22_2 1_555 1_555
C24_2 C19_2 1_555 1_555
H28_2 C24_2 1_555 1_555
H29_2 C24_2 1_555 1_555
C25_2 C19_2 1_555 1_555
H30_2 C25_2 1_555 1_555
H31_2 C25_2 1_555 1_555
C26_2 C25_2 1_555 1_555
H32_2 C26_2 1_555 1_555
C27_2 C21_2 1_555 1_555
H33_2 C27_2 1_555 1_555
H34_2 C27_2 1_555 1_555
C28_2 C23_2 1_555 1_555
H35_2 C28_2 1_555 1_555
H36_2 C28_2 1_555 1_555
C29_2 C23_2 1_555 1_555
H37_2 C29_2 1_555 1_555
H38_2 C29_2 1_555 1_555
C30_2 C29_2 1_555 1_555
O1_2 C17_2 1_555 1_555
O1A Zn1A 1_555 1_555
O2_2 C17_2 1_555 1_555
O3_2 Zn1 1_555 1_555
O3A Zn1A 1_555 1_555
O4_2 C30_2 1_555 1_555
N6 C10 1_555 1_555
C17 O1 1_555 1_555
C23 C24 1_555 1_555
C26 C27 1_555 1_555
C26 C28 1_555 1_555
N6A C10A 1_555 1_555
C4A C5A 1_555 1_555
C4A C7A 1_555 1_555
C12A C13A 1_555 1_555
C12A C15A 1_555 1_555
C23_2 C24_2 1_555 1_555
C26_2 C27_2 1_555 1_555
C26_2 C28_2 1_555 1_555
C30_2 O3_2 1_555 1_555

#END
