
#######################################################################
#
#                 Cambridge Crystallographic Data Centre
#                                CCDC 
#
#######################################################################
#
# If this CIF has been generated from an entry in the Cambridge 
# Structural Database, then it will include bibliographic, chemical, 
# crystal, experimental, refinement or atomic coordinate data resulting 
# from the CCDC's data processing and validation procedures.
#
#######################################################################

data_DAWQOJ
_symmetry_cell_setting           monoclinic
_symmetry_space_group_name_H-M   'P 21/c'
_symmetry_Int_Tables_number      14
_space_group_name_Hall           '-P 2ybc'
loop_
_symmetry_equiv_pos_site_id
_symmetry_equiv_pos_as_xyz
1 x,y,z
2 -x,1/2+y,1/2-z
3 -x,-y,-z
4 x,1/2-y,1/2+z
_cell_length_a                   7.485(3)
_cell_length_b                   31.617(13)
_cell_length_c                   5.169(2)
_cell_angle_alpha                90
_cell_angle_beta                 106.19(2)
_cell_angle_gamma                90
_cell_volume                     1174.75
loop_
_atom_site_label
_atom_site_type_symbol
_atom_site_fract_x
_atom_site_fract_y
_atom_site_fract_z
Cu1 Cu 0.92265(6) 0.112152(11) -0.09761(8)
O1 O 1.0167(3) 0.14857(6) -0.3198(5)
O2 O 0.9990(4) 0.21206(7) -0.4994(6)
O3 O 0.8319(3) 0.08430(7) 0.1599(5)
O4 O 0.7326(3) 0.07920(7) 0.5192(5)
O5 O 0.7679(3) 0.16280(6) -0.0769(5)
N1 N 1.1294(4) 0.07102(8) -0.0579(5)
C1 C 0.3634(5) 0.20243(11) 0.1115(7)
H1 H 0.2808 0.2250 0.0720
C2 C 0.3420(5) 0.17196(12) 0.2868(8)
H2 H 0.2453 0.1736 0.3669
C3 C 0.4643(5) 0.13904(11) 0.3432(7)
H3 H 0.4504 0.1186 0.4654
C4 C 0.6088(5) 0.13484(10) 0.2253(7)
C5 C 0.6260(5) 0.16624(10) 0.0469(6)
C6 C 0.5064(5) 0.20006(10) -0.0078(7)
H4 H 0.5217 0.2212 -0.1246
C7 C 0.7329(5) 0.09729(10) 0.3085(7)
C8 C 0.8087(5) 0.19834(9) -0.2218(7)
H5 H 0.8542 0.2216 -0.0987
H6 H 0.6965 0.2076 -0.3549
C9 C 0.9532(5) 0.18599(10) -0.3589(7)
C10 C 1.1556(5) 0.03849(10) 0.1109(7)
H7 H 1.0737 0.0347 0.2152
C11 C 1.2982(5) 0.01038(10) 0.1376(7)
H8 H 1.3113 -0.0119 0.2589
C12 C 1.4221(4) 0.01465(9) -0.0120(7)
C13 C 1.3939(5) 0.04873(11) -0.1854(8)
H9 H 1.4751 0.0535 -0.2897
C14 C 1.2489(5) 0.07537(11) -0.2048(8)
H10 H 1.2320 0.0977 -0.3263
Cu1_2 Cu 0.92265(6) 0.112152(11) 0.90239(8)
Cu1B Cu 2.07735(6) -0.112152(11) 0.09761(8)
Cu1B_2 Cu 2.07735(6) -0.112152(11) -0.90239(8)
O1B O 1.9833(3) -0.14857(6) 0.3198(5)
O2B O 2.0010(4) -0.21206(7) 0.4994(6)
O3B O 2.1681(3) -0.08430(7) -0.1599(5)
O4_2 O 0.7326(3) 0.07920(7) -0.4808(5)
O4B O 2.2674(3) -0.07920(7) -0.5192(5)
O4B_2 O 2.2674(3) -0.07920(7) 0.4808(5)
O5B O 2.2321(3) -0.16280(6) 0.0769(5)
N1B N 1.8706(4) -0.07102(8) 0.0579(5)
C1B C 2.6366(5) -0.20243(11) -0.1115(7)
H1B H 2.7192 -0.2250 -0.0720
C2B C 2.6580(5) -0.17196(12) -0.2868(8)
H2B H 2.7547 -0.1736 -0.3669
C3B C 2.5357(5) -0.13904(11) -0.3432(7)
H3B H 2.5496 -0.1186 -0.4654
C4B C 2.3912(5) -0.13484(10) -0.2253(7)
C5B C 2.3740(5) -0.16624(10) -0.0469(6)
C6B C 2.4936(5) -0.20006(10) 0.0078(7)
H4B H 2.4783 -0.2212 0.1246
C7B C 2.2671(5) -0.09729(10) -0.3085(7)
C8B C 2.1913(5) -0.19834(9) 0.2218(7)
H5B H 2.1458 -0.2216 0.0987
H6B H 2.3035 -0.2076 0.3549
C9B C 2.0468(5) -0.18599(10) 0.3589(7)
C10B C 1.8444(5) -0.03849(10) -0.1109(7)
H7B H 1.9263 -0.0347 -0.2152
C11B C 1.7018(5) -0.01038(10) -0.1376(7)
H8B H 1.6887 0.0119 -0.2589
C12B C 1.5779(4) -0.01465(9) 0.0120(7)
C13B C 1.6061(5) -0.04873(11) 0.1854(8)
H9B H 1.5249 -0.0535 0.2897
C14B C 1.7511(5) -0.07537(11) 0.2048(8)
H10B H 1.7680 -0.0977 0.3263
loop_
_geom_bond_atom_site_label_1
_geom_bond_atom_site_label_2
_geom_bond_site_symmetry_1
_geom_bond_site_symmetry_2
Cu1 O1 1_555 1_555
O1 C9 1_555 1_555
O2 C9 1_555 1_555
O3 Cu1 1_555 1_555
O4 C7 1_555 1_555
O5 Cu1 1_555 1_555
N1 Cu1 1_555 1_555
C1 H1 1_555 1_555
C2 C1 1_555 1_555
H2 C2 1_555 1_555
C3 C2 1_555 1_555
H3 C3 1_555 1_555
C4 C3 1_555 1_555
C5 O5 1_555 1_555
C6 C1 1_555 1_555
H4 C6 1_555 1_555
C7 O3 1_555 1_555
C8 O5 1_555 1_555
H5 C8 1_555 1_555
H6 C8 1_555 1_555
C9 C8 1_555 1_555
C10 N1 1_555 1_555
H7 C10 1_555 1_555
C11 C10 1_555 1_555
H8 C11 1_555 1_555
C12 C11 1_555 1_555
C13 C12 1_555 1_555
H9 C13 1_555 1_555
C14 N1 1_555 1_555
H10 C14 1_555 1_555
Cu1_2 O4 1_555 1_555
Cu1B O1B 1_555 1_555
Cu1B_2 O4B 1_555 1_555
O1B C9B 1_555 1_555
O2B C9B 1_555 1_555
O3B Cu1B 1_555 1_555
O4_2 Cu1 1_555 1_555
O4B C7B 1_555 1_555
O4B_2 Cu1B 1_555 1_555
O5B Cu1B 1_555 1_555
N1B Cu1B 1_555 1_555
C1B H1B 1_555 1_555
C2B C1B 1_555 1_555
H2B C2B 1_555 1_555
C3B C2B 1_555 1_555
H3B C3B 1_555 1_555
C4B C3B 1_555 1_555
C5B O5B 1_555 1_555
C6B C1B 1_555 1_555
H4B C6B 1_555 1_555
C7B O3B 1_555 1_555
C8B O5B 1_555 1_555
H5B C8B 1_555 1_555
H6B C8B 1_555 1_555
C9B C8B 1_555 1_555
C10B N1B 1_555 1_555
H7B C10B 1_555 1_555
C11B C10B 1_555 1_555
H8B C11B 1_555 1_555
C12B C12 1_555 1_555
C13B C12B 1_555 1_555
H9B C13B 1_555 1_555
C14B N1B 1_555 1_555
H10B C14B 1_555 1_555
C4 C5 1_555 1_555
C4 C7 1_555 1_555
C5 C6 1_555 1_555
C13 C14 1_555 1_555
C4B C5B 1_555 1_555
C4B C7B 1_555 1_555
C5B C6B 1_555 1_555
C11B C12B 1_555 1_555
C13B C14B 1_555 1_555

#END
