
#######################################################################
#
#                 Cambridge Crystallographic Data Centre
#                                CCDC 
#
#######################################################################
#
# If this CIF has been generated from an entry in the Cambridge 
# Structural Database, then it will include bibliographic, chemical, 
# crystal, experimental, refinement or atomic coordinate data resulting 
# from the CCDC's data processing and validation procedures.
#
#######################################################################

data_DAWQID
_symmetry_cell_setting           triclinic
_symmetry_space_group_name_H-M   'P -1'
_symmetry_Int_Tables_number      2
_space_group_name_Hall           '-P 1'
loop_
_symmetry_equiv_pos_site_id
_symmetry_equiv_pos_as_xyz
1 x,y,z
2 -x,-y,-z
_cell_length_a                   9.4971(19)
_cell_length_b                   11.355(2)
_cell_length_c                   14.608(3)
_cell_angle_alpha                101.75(3)
_cell_angle_beta                 92.08(3)
_cell_angle_gamma                101.96(3)
_cell_volume                     1503.76
loop_
_atom_site_label
_atom_site_type_symbol
_atom_site_fract_x
_atom_site_fract_y
_atom_site_fract_z
Zn1 Zn 0.32406(3) 0.57489(3) 0.30519(2)
N1 N 0.5407(3) 0.6485(2) 0.32894(16)
N2 N 0.7607(3) 0.7182(4) 0.2898(2)
N3 N 0.7675(2) 0.7013(2) 0.37848(16)
N4 N 0.3387(2) 0.3968(2) 0.26021(15)
N5 N 0.4416(3) 0.2336(2) 0.24592(18)
N6 N 0.3319(2) 0.2134(2) 0.17765(16)
C1 C 0.6222(4) 0.6833(4) 0.2630(2)
H1 H 0.5845 0.6829 0.2033
C2 C 0.6356(3) 0.6620(3) 0.4009(2)
H2 H 0.6124 0.6460 0.4591
C3 C 0.9053(3) 0.7337(3) 0.4365(2)
H3 H 0.9777 0.7013 0.4003
H4 H 0.8936 0.6959 0.4904
C4 C 0.9567(3) 0.8722(2) 0.47007(19)
C5 C 1.0478(3) 0.9400(3) 0.41670(19)
C6 C 1.1014(4) 0.8777(3) 0.3272(2)
H5 H 1.0745 0.9124 0.2762
H6 H 1.0591 0.7910 0.3140
H7 H 1.2047 0.8902 0.3346
C7 C 0.9091(3) 0.9318(3) 0.55326(19)
C8 C 0.8117(4) 0.8604(3) 0.6120(2)
H8 H 0.7163 0.8753 0.6057
H9 H 0.8079 0.7739 0.5910
H10 H 0.8488 0.8865 0.6766
C9 C 0.4424(3) 0.3450(3) 0.2939(2)
H11 H 0.5070 0.3849 0.3456
C10 C 0.2724(3) 0.3107(2) 0.18747(19)
H12 H 0.1955 0.3174 0.1490
C11 C 0.2850(3) 0.0923(3) 0.1130(2)
H13 H 0.2063 0.0961 0.0702
H14 H 0.2475 0.0316 0.1491
C12 C 0.4015(3) 0.0486(2) 0.05588(19)
C13 C 0.4747(3) -0.0334(2) 0.08715(19)
C14 C 0.4266(3) 0.0830(2) -0.0297(2)
C15 C 0.3516(4) 0.1754(3) -0.0612(2)
H15 H 0.3055 0.2145 -0.0098
H16 H 0.4215 0.2366 -0.0818
H17 H 0.2804 0.1336 -0.1121
C16 C 0.4499(4) -0.0672(3) 0.1807(2)
H18 H 0.4293 0.0016 0.2241
H19 H 0.5349 -0.0883 0.2043
H20 H 0.3697 -0.1365 0.1733
C17 C 0.2684(3) 0.6212(2) 0.48481(18)
C18 C 0.3609(3) 0.8950(2) 0.55969(18)
C19 C 0.2595(3) 0.8160(2) 0.60871(17)
C20 C 0.2188(3) 0.6881(2) 0.57374(17)
C21 C 0.1316(3) 0.6162(3) 0.62538(19)
H21 H 0.0984 0.5322 0.6006
C22 C 0.0930(3) 0.6667(3) 0.71266(19)
H22 H 0.0387 0.6166 0.7475
C23 C 0.1364(3) 0.7936(2) 0.74797(17)
C24 C 0.2134(3) 0.8677(2) 0.69434(17)
H23 H 0.2347 0.9529 0.7155
C25 C 0.1015(3) 0.8499(2) 0.84450(18)
C26 C 0.1210(3) 0.7843(2) 0.92132(17)
C27 C 0.2168(3) 0.7073(3) 0.91682(18)
H24 H 0.2713 0.6963 0.8654
C28 C 0.2326(3) 0.6455(3) 0.98939(19)
C29 C 0.3394(3) 0.5682(3) 0.9837(2)
C30 C 0.1494(3) 0.6603(3) 1.06648(18)
C31 C 0.0539(3) 0.7380(3) 1.07047(19)
H25 H -0.0030 0.7475 1.1208
C32 C 0.0425(3) 0.8013(3) 1.00028(19)
H26 H -0.0185 0.8563 1.0056
C33 C 0.1681(3) 0.6000(3) 1.1488(2)
O1 O 0.2114(2) 0.6320(2) 0.40764(13)
O2 O 0.3572(3) 0.5575(2) 0.49130(15)
O3 O 0.4345(3) 0.85356(19) 0.49985(17)
O4 O 0.3696(3) 1.01410(18) 0.58886(16)
H27 H 0.4254 1.0521 0.5580
O5 O 0.4293(3) 0.5821(3) 0.91940(19)
H28 H 0.4885 0.5394 0.9222
O6 O 0.3439(3) 0.4970(3) 1.0361(2)
O7 O 0.2810(3) 0.6504(2) 1.20220(15)
O8 O 0.0788(3) 0.5123(3) 1.1596(2)
O9 O 0.0595(2) 0.94594(19) 0.85952(14)
Zn1A Zn 1.67594(3) 1.42511(3) 0.69481(2)
Zn1_2 Zn 0.32406(3) 0.57489(3) 1.30519(2)
Zn1A_2 Zn 0.67594(3) -0.57489(3) -0.30519(2)
Zn1_3 Zn 0.32406(3) 0.57489(3) -0.69481(2)
N1A N 1.4593(3) 1.3515(2) 0.67106(16)
N2A N 1.2393(3) 1.2818(4) 0.7102(2)
N3A N 1.2325(2) 1.2987(2) 0.62152(16)
N4A N 0.6613(2) -0.3968(2) -0.26021(15)
N4A_2 N 1.6613(2) 1.6032(2) 0.73979(15)
N5A N 0.5584(3) -0.2336(2) -0.24592(18)
N6A N 0.6681(2) -0.2134(2) -0.17765(16)
C1A C 1.3778(4) 1.3167(4) 0.7370(2)
H1A H 1.4155 1.3171 0.7967
C2A C 1.3644(3) 1.3380(3) 0.5991(2)
H2A H 1.3876 1.3540 0.5409
C3A C 1.0947(3) 1.2663(3) 0.5635(2)
H3A H 1.0223 1.2987 0.5997
H4A H 1.1064 1.3041 0.5096
C4A C 1.0433(3) 1.1278(2) 0.52993(19)
C5A C 0.9522(3) 1.0600(3) 0.58330(19)
C6A C 0.8986(4) 1.1223(3) 0.6728(2)
H5A H 0.9255 1.0876 0.7238
H6A H 0.9409 1.2090 0.6860
H7A H 0.7953 1.1098 0.6654
C7A C 1.0909(3) 1.0682(3) 0.44674(19)
C8A C 1.1883(4) 1.1396(3) 0.3880(2)
H8A H 1.2837 1.1247 0.3943
H9A H 1.1921 1.2261 0.4090
H10A H 1.1512 1.1135 0.3234
C9A C 0.5576(3) -0.3450(3) -0.2939(2)
H11A H 0.4930 -0.3849 -0.3456
C10A C 0.7276(3) -0.3107(2) -0.18747(19)
H12A H 0.8045 -0.3174 -0.1490
C11A C 0.7150(3) -0.0923(3) -0.1130(2)
H13A H 0.7937 -0.0961 -0.0702
H14A H 0.7525 -0.0316 -0.1491
C12A C 0.5985(3) -0.0486(2) -0.05588(19)
C13A C 0.5253(3) 0.0334(2) -0.08715(19)
C14A C 0.5734(3) -0.0830(2) 0.0297(2)
C15A C 0.6484(4) -0.1754(3) 0.0612(2)
H15A H 0.6945 -0.2145 0.0098
H16A H 0.5785 -0.2366 0.0818
H17A H 0.7196 -0.1336 0.1121
C16A C 0.5501(4) 0.0672(3) -0.1807(2)
H18A H 0.5707 -0.0016 -0.2241
H19A H 0.4651 0.0883 -0.2043
H20A H 0.6303 0.1365 -0.1733
C17_2 C 0.2684(3) 0.6212(2) -0.51519(18)
C18_2 C 0.3609(3) 0.8950(2) -0.44031(18)
C19_2 C 0.2595(3) 0.8160(2) -0.39129(17)
C20_2 C 0.2188(3) 0.6881(2) -0.42626(17)
C21_2 C 0.1316(3) 0.6162(3) -0.37462(19)
H21_2 H 0.0984 0.5322 -0.3994
C22_2 C 0.0930(3) 0.6667(3) -0.28734(19)
H22_2 H 0.0387 0.6166 -0.2525
C23_2 C 0.1364(3) 0.7936(2) -0.25203(17)
C24_2 C 0.2134(3) 0.8677(2) -0.30566(17)
H23_2 H 0.2347 0.9529 -0.2845
C25_2 C 0.1015(3) 0.8499(2) -0.15550(18)
C26_2 C 0.1210(3) 0.7843(2) -0.07868(17)
C27_2 C 0.2168(3) 0.7073(3) -0.08318(18)
H24_2 H 0.2713 0.6963 -0.1346
C28_2 C 0.2326(3) 0.6455(3) -0.01061(19)
C29_2 C 0.3394(3) 0.5682(3) -0.0163(2)
C30_2 C 0.1494(3) 0.6603(3) 0.06648(18)
C31_2 C 0.0539(3) 0.7380(3) 0.07047(19)
H25_2 H -0.0030 0.7475 0.1208
C32_2 C 0.0425(3) 0.8013(3) 0.00028(19)
H26_2 H -0.0185 0.8563 0.0056
C33_2 C 0.1681(3) 0.6000(3) 0.1488(2)
O1_2 O 0.2114(2) 0.6320(2) -0.59236(13)
O1A O 1.7886(2) 1.3680(2) 0.59236(13)
O2_2 O 0.3572(3) 0.5575(2) -0.50870(15)
O3_2 O 0.4345(3) 0.85356(19) -0.50015(17)
O4_2 O 0.3696(3) 1.01410(18) -0.41114(16)
H27_2 H 0.4254 1.0521 -0.4420
O5_2 O 0.4293(3) 0.5821(3) -0.08060(19)
H28_2 H 0.4885 0.5394 -0.0778
O6_2 O 0.3439(3) 0.4970(3) 0.0361(2)
O7_2 O 0.2810(3) 0.6504(2) 0.20220(15)
O7A O 1.7190(3) 1.3496(2) 0.79780(15)
O8_2 O 0.0788(3) 0.5123(3) 0.1596(2)
O9_2 O 0.0595(2) 0.94594(19) -0.14048(14)
loop_
_geom_bond_atom_site_label_1
_geom_bond_atom_site_label_2
_geom_bond_site_symmetry_1
_geom_bond_site_symmetry_2
Zn1 N1 1_555 1_555
N1 C1 1_555 1_555
N2 N3 1_555 1_555
N3 C2 1_555 1_555
N4 Zn1 1_555 1_555
N5 N6 1_555 1_555
N6 C10 1_555 1_555
C1 N2 1_555 1_555
H1 C1 1_555 1_555
C2 N1 1_555 1_555
H2 C2 1_555 1_555
C3 N3 1_555 1_555
H3 C3 1_555 1_555
H4 C3 1_555 1_555
C4 C3 1_555 1_555
C5 C4 1_555 1_555
C6 C5 1_555 1_555
H5 C6 1_555 1_555
H6 C6 1_555 1_555
H7 C6 1_555 1_555
C7 C4 1_555 1_555
C8 C7 1_555 1_555
H8 C8 1_555 1_555
H9 C8 1_555 1_555
H10 C8 1_555 1_555
C9 N4 1_555 1_555
H11 C9 1_555 1_555
C10 N4 1_555 1_555
H12 C10 1_555 1_555
C11 N6 1_555 1_555
H13 C11 1_555 1_555
H14 C11 1_555 1_555
C12 C11 1_555 1_555
C13 C12 1_555 1_555
C14 C12 1_555 1_555
C15 C14 1_555 1_555
H15 C15 1_555 1_555
H16 C15 1_555 1_555
H17 C15 1_555 1_555
C16 C13 1_555 1_555
H18 C16 1_555 1_555
H19 C16 1_555 1_555
H20 C16 1_555 1_555
C17 C20 1_555 1_555
C18 C19 1_555 1_555
C19 C20 1_555 1_555
C20 C21 1_555 1_555
C21 H21 1_555 1_555
C22 C21 1_555 1_555
H22 C22 1_555 1_555
C23 C22 1_555 1_555
C24 C19 1_555 1_555
H23 C24 1_555 1_555
C25 C23 1_555 1_555
C26 C25 1_555 1_555
C27 C26 1_555 1_555
H24 C27 1_555 1_555
C28 C27 1_555 1_555
C29 C28 1_555 1_555
C30 C28 1_555 1_555
C31 C30 1_555 1_555
H25 C31 1_555 1_555
C32 C26 1_555 1_555
H26 C32 1_555 1_555
C33 C30 1_555 1_555
O1 Zn1 1_555 1_555
O2 C17 1_555 1_555
O3 C18 1_555 1_555
O4 C18 1_555 1_555
H27 O4 1_555 1_555
O5 C29 1_555 1_555
H28 O5 1_555 1_555
O6 C29 1_555 1_555
O7 C33 1_555 1_555
O8 C33 1_555 1_555
O9 C25 1_555 1_555
Zn1A N1A 1_555 1_555
Zn1_2 O7 1_555 1_555
Zn1A_2 N4A 1_555 1_555
Zn1_3 O1_2 1_555 1_555
N1A C1A 1_555 1_555
N2A N3A 1_555 1_555
N3A C2A 1_555 1_555
N4A C9A 1_555 1_555
N4A_2 Zn1A 1_555 1_555
N5A N6A 1_555 1_555
N6A C10A 1_555 1_555
C1A N2A 1_555 1_555
H1A C1A 1_555 1_555
C2A N1A 1_555 1_555
H2A C2A 1_555 1_555
C3A N3A 1_555 1_555
H3A C3A 1_555 1_555
H4A C3A 1_555 1_555
C4A C3A 1_555 1_555
C5A C7 1_555 1_555
C6A C5A 1_555 1_555
H5A C6A 1_555 1_555
H6A C6A 1_555 1_555
H7A C6A 1_555 1_555
C7A C5 1_555 1_555
C8A C7A 1_555 1_555
H8A C8A 1_555 1_555
H9A C8A 1_555 1_555
H10A C8A 1_555 1_555
C9A N5A 1_555 1_555
H11A C9A 1_555 1_555
C10A N4A 1_555 1_555
H12A C10A 1_555 1_555
C11A N6A 1_555 1_555
H13A C11A 1_555 1_555
H14A C11A 1_555 1_555
C12A C11A 1_555 1_555
C13A C14 1_555 1_555
C14A C13 1_555 1_555
C15A C14A 1_555 1_555
H15A C15A 1_555 1_555
H16A C15A 1_555 1_555
H17A C15A 1_555 1_555
C16A C13A 1_555 1_555
H18A C16A 1_555 1_555
H19A C16A 1_555 1_555
H20A C16A 1_555 1_555
C17_2 C20_2 1_555 1_555
C18_2 C19_2 1_555 1_555
C19_2 C20_2 1_555 1_555
C20_2 C21_2 1_555 1_555
C21_2 H21_2 1_555 1_555
C22_2 C21_2 1_555 1_555
H22_2 C22_2 1_555 1_555
C23_2 C22_2 1_555 1_555
C24_2 C19_2 1_555 1_555
H23_2 C24_2 1_555 1_555
C25_2 C23_2 1_555 1_555
C26_2 C25_2 1_555 1_555
C27_2 C26_2 1_555 1_555
H24_2 C27_2 1_555 1_555
C28_2 C27_2 1_555 1_555
C29_2 C28_2 1_555 1_555
C30_2 C28_2 1_555 1_555
C31_2 C30_2 1_555 1_555
H25_2 C31_2 1_555 1_555
C32_2 C26_2 1_555 1_555
H26_2 C32_2 1_555 1_555
C33_2 C30_2 1_555 1_555
O1_2 C17_2 1_555 1_555
O1A Zn1A 1_555 1_555
O2_2 C17_2 1_555 1_555
O3_2 C18_2 1_555 1_555
O4_2 C18_2 1_555 1_555
H27_2 O4_2 1_555 1_555
O5_2 C29_2 1_555 1_555
H28_2 O5_2 1_555 1_555
O6_2 C29_2 1_555 1_555
O7_2 Zn1 1_555 1_555
O7A Zn1A 1_555 1_555
O8_2 C33_2 1_555 1_555
O9_2 C25_2 1_555 1_555
N5 C9 1_555 1_555
C17 O1 1_555 1_555
C23 C24 1_555 1_555
C31 C32 1_555 1_555
C4A C5A 1_555 1_555
C4A C7A 1_555 1_555
C12A C13A 1_555 1_555
C12A C14A 1_555 1_555
C23_2 C24_2 1_555 1_555
C31_2 C32_2 1_555 1_555
C33_2 O7_2 1_555 1_555

#END
