
#######################################################################
#
#                 Cambridge Crystallographic Data Centre
#                                CCDC 
#
#######################################################################
#
# If this CIF has been generated from an entry in the Cambridge 
# Structural Database, then it will include bibliographic, chemical, 
# crystal, experimental, refinement or atomic coordinate data resulting 
# from the CCDC's data processing and validation procedures.
#
#######################################################################

data_DAWVEE
_symmetry_cell_setting           triclinic
_symmetry_space_group_name_H-M   'P -1'
_symmetry_Int_Tables_number      2
_space_group_name_Hall           '-P 1'
loop_
_symmetry_equiv_pos_site_id
_symmetry_equiv_pos_as_xyz
1 x,y,z
2 -x,-y,-z
_cell_length_a                   11.9372(10)
_cell_length_b                   13.8906(11)
_cell_length_c                   14.1593(11)
_cell_angle_alpha                99.5940(11)
_cell_angle_beta                 91.408(1)
_cell_angle_gamma                111.3580(9)
_cell_volume                     2146.68
loop_
_atom_site_label
_atom_site_type_symbol
_atom_site_fract_x
_atom_site_fract_y
_atom_site_fract_z
O25 O 0.559(3) -0.752(2) 0.148(2)
O26 O 0.433(4) -0.793(4) -0.042(4)
Si1 Si 0.5000 0.5000 0.5000
Cu1 Cu 0.4508(3) -0.0003(2) 0.61797(18)
Cu2 Cu 0.3184(2) -0.0345(2) 0.00514(16)
Cu3 Cu 0.0000 -0.5000 0.0000
Cu4 Cu 0.2546(2) -0.0531(2) 0.22306(17)
O1 O 0.2163(12) -0.0095(12) 0.1037(9)
O2 O 0.262(2) 0.429(2) 0.1651(11)
O3 O 0.1405(18) -0.6041(19) -0.0193(13)
O4 O 0.2175(19) 0.4326(15) 0.3543(14)
O5 O 0.665(2) 0.4220(16) 0.3080(15)
O6 O 0.5001(19) 0.4807(17) 0.2354(18)
O7 O 0.2613(17) 0.1150(12) 0.3164(13)
O8 O 0.3290(18) 0.3150(14) 0.2806(13)
O9 O 0.0304(14) 0.3410(14) 0.4643(15)
O10 O 0.7343(15) 0.2673(13) 0.3623(11)
O11 O 0.213(3) 0.3791(15) 0.6033(14)
O12 O 0.388(2) 0.426(2) 0.4323(19)
O13 O 0.3778(19) 0.219(2) 0.5029(16)
O14 O 0.785(3) 0.4591(15) 0.4759(15)
O15 O 0.622(2) 0.504(2) 0.4515(17)
O16 O 0.6207(17) 0.4042(16) 0.690(2)
O17 O 0.7317(15) 0.5740(16) 0.1969(11)
O18 O 0.2162(17) 0.2741(14) 0.4345(13)
O19 O 0.4901(15) 0.1871(11) 0.6616(13)
O20 O 0.509(2) 0.4637(19) 0.6043(18)
O21 O 0.507(2) 0.618(2) 0.5183(18)
O22 O 0.6153(17) 0.2946(19) 0.5233(14)
O23 O 0.3815(16) 0.3276(15) 0.674(2)
O24 O 0.4992(19) 0.256(2) 0.3519(16)
N1 N 0.2547(17) -0.1997(14) 0.0325(13)
N2 N 0.1946(18) -0.2875(15) -0.0306(12)
N3 N 0.2367(17) -0.2143(13) 0.1232(12)
N4 N 0.1357(18) -0.3621(14) 0.0200(12)
N5 N 0.0231(17) -0.4719(12) 0.1466(12)
N6 N 0.2171(17) -0.0637(16) 0.4980(13)
N7 N 0.3385(16) -0.0390(14) 0.5060(11)
N8 N 0.3767(14) -0.0405(13) 0.4217(11)
N9 N 0.2812(14) -0.0690(13) 0.3554(11)
N10 N 0.0797(14) -0.1069(14) 0.2591(12)
N11 N 0.4266(13) -0.0304(14) -0.0984(10)
N12 N 0.5444(13) -0.0076(12) -0.1078(10)
N13 N 0.5646(14) -0.0026(13) -0.1991(10)
N14 N 0.4592(14) -0.0240(12) -0.2498(10)
N15 N 0.1983(15) -0.0666(16) -0.1106(13)
W1 W 0.49478(8) 0.28678(8) 0.60692(7)
W2 W 0.34212(7) 0.24066(7) 0.37761(6)
W3 W 0.66092(9) 0.34221(8) 0.40767(6)
W4 W 0.33942(7) 0.45379(7) 0.27341(6)
W5 W 0.18154(7) 0.39465(7) 0.47804(6)
W6 W 0.65820(9) 0.54964(7) 0.29455(6)
C1 C 0.2442(18) -0.0718(16) -0.1967(14)
C2 C 0.173(2) -0.1000(19) -0.2816(14)
H1 H 0.2077 -0.0994 -0.3399
C3 C 0.0492(19) -0.1295(18) -0.2793(15)
H2 H -0.0016 -0.1508 -0.3360
C4 C 0.002(2) -0.126(2) -0.1897(17)
H3 H -0.0804 -0.1448 -0.1856
C5 C 0.0776(18) -0.0968(19) -0.1109(14)
H4 H 0.0450 -0.0969 -0.0519
C6 C -0.130(2) -0.149(2) 0.2375(17)
H5 H -0.1997 -0.1669 0.1964
C7 C -0.138(2) -0.144(2) 0.334(2)
H6 H -0.2118 -0.1544 0.3589
C8 C -0.003(2) -0.506(2) 0.3026(17)
H7 H -0.0453 -0.5496 0.3440
C9 C -0.035(2) -0.122(2) 0.3946(19)
H8 H -0.0387 -0.1187 0.4605
C10 C -0.032(2) -0.544(2) 0.2033(17)
H9 H -0.0847 -0.6118 0.1777
C11 C 0.085(2) -0.4072(16) 0.3434(16)
H10 H 0.1041 -0.3856 0.4096
C12 C 0.070(2) -0.1048(19) 0.3540(19)
C13 C 0.1864(18) -0.0829(16) 0.4053(12)
C14 C 0.3768(19) -0.0394(15) -0.1856(14)
C15 C -0.020(2) -0.129(2) 0.2015(19)
H11 H -0.0150 -0.1306 0.1358
C16 C 0.1082(18) -0.3779(15) 0.1863(15)
C17 C 0.1584(19) -0.3157(18) 0.1131(14)
C18 C 0.1421(19) -0.3446(16) 0.2801(16)
H12 H 0.2036 -0.2796 0.3024
Cu1A Cu -0.4508(3) -0.9997(2) -0.61797(18)
Cu1A_2 Cu 0.5492(3) 0.0003(2) 0.38203(18)
Cu1_2 Cu 0.4508(3) -0.0003(2) -0.38203(18)
Cu1A_3 Cu 0.5492(3) 1.0003(2) 0.38203(18)
Cu1_3 Cu -0.5492(3) -1.0003(2) -0.38203(18)
Cu2A Cu -0.3184(2) -0.9655(2) -0.00514(16)
Cu2A_2 Cu 0.6816(2) 0.0345(2) -0.00514(16)
Cu4A Cu -0.2546(2) -0.9469(2) -0.22306(17)
Cu4A_2 Cu 0.7454(2) 0.0531(2) -0.22306(17)
Cu4A_3 Cu 0.7454(2) 1.0531(2) 0.77694(17)
O1A O -0.2163(12) -0.9905(12) -0.1037(9)
O2A O 0.738(2) 0.571(2) 0.8349(11)
O3A O -0.1405(18) -0.3959(19) 0.0193(13)
O4A O 0.7825(19) 0.5674(15) 0.6457(14)
O5A O 0.335(2) 0.5780(16) 0.6920(15)
O6A O 0.4999(19) 0.5193(17) 0.7646(18)
O7A O 0.7387(17) 0.8850(12) 0.6836(13)
O7A_2 O -0.2613(17) -1.1150(12) -0.3164(13)
O8A O 0.6710(18) 0.6850(14) 0.7194(13)
O9A O 0.9696(14) 0.6590(14) 0.5357(15)
O10A O 0.2657(15) 0.7327(13) 0.6377(11)
O11A O 0.787(3) 0.6209(15) 0.3967(14)
O12A O 0.612(2) 0.574(2) 0.5677(19)
O13A O 0.6222(19) 0.781(2) 0.4971(16)
O14A O 0.215(3) 0.5409(15) 0.5241(15)
O15A O 0.378(2) 0.496(2) 0.5485(17)
O16A O 0.3793(17) 0.5958(16) 0.310(2)
O17A O 0.2683(15) 0.4260(16) 0.8031(11)
O18A O 0.7838(17) 0.7259(14) 0.5655(13)
O19A O 0.5099(15) 0.8129(11) 0.3384(13)
O19A_2 O -0.4901(15) -1.1871(11) -0.6616(13)
O20A O 0.491(2) 0.5363(19) 0.3957(18)
O21A O 0.493(2) 0.382(2) 0.4817(18)
O22A O 0.3847(17) 0.7054(19) 0.4767(14)
O23A O 0.6185(16) 0.6724(15) 0.326(2)
O24A O 0.5008(19) 0.744(2) 0.6481(16)
N1A N -0.2547(17) -0.8003(14) -0.0325(13)
N2A N -0.1946(18) -0.7125(15) 0.0306(12)
N3A N -0.2367(17) -0.7857(13) -0.1232(12)
N4A N -0.1357(18) -0.6379(14) -0.0200(12)
N5A N -0.0231(17) -0.5281(12) -0.1466(12)
N6A N -0.2171(17) -0.9363(16) -0.4980(13)
N7A N -0.3385(16) -0.9610(14) -0.5060(11)
N8A N -0.3767(14) -0.9595(13) -0.4217(11)
N8A_2 N 0.6233(14) 0.0405(13) 0.5783(11)
N8_2 N -0.6233(14) -1.0405(13) -0.5783(11)
N9A N -0.2812(14) -0.9310(13) -0.3554(11)
N10A N -0.0797(14) -0.8931(14) -0.2591(12)
N11A N 0.5734(13) 0.0304(14) 0.0984(10)
N11A_2 N -0.4266(13) -0.9696(14) 0.0984(10)
N12A N 0.4556(13) 0.0076(12) 0.1078(10)
N12_2 N -0.4556(13) -1.0076(12) -0.1078(10)
N13A N 0.4354(14) 0.0026(13) 0.1991(10)
N13_2 N -0.4354(14) -1.0026(13) -0.1991(10)
N14A N 0.5408(14) 0.0240(12) 0.2498(10)
N14_2 N 0.4592(14) -0.0240(12) 0.7502(10)
N14A_2 N -0.4592(14) -0.9760(12) -0.7502(10)
N15A N 0.8017(15) 0.0666(16) 0.1106(13)
N15A_2 N -0.1983(15) -0.9334(16) 0.1106(13)
W1A W 0.50522(8) 0.71322(8) 0.39308(7)
W2A W 0.65788(7) 0.75934(7) 0.62239(6)
W3A W 0.33908(9) 0.65779(8) 0.59233(6)
W4A W 0.66058(7) 0.54621(7) 0.72659(6)
W5A W 0.81846(7) 0.60535(7) 0.52196(6)
W6A W 0.34180(9) 0.45036(7) 0.70545(6)
C1A C 0.7558(18) 0.0718(16) 0.1967(14)
C2A C 0.827(2) 0.1000(19) 0.2816(14)
H1A H 0.7923 0.0994 0.3399
C3A C 0.9508(19) 0.1295(18) 0.2793(15)
H2A H 1.0016 0.1508 0.3360
C4A C 0.998(2) 0.126(2) 0.1897(17)
H3A H 1.0804 0.1448 0.1856
C5A C 0.9224(18) 0.0968(19) 0.1109(14)
H4A H 0.9550 0.0969 0.0519
C6A C 0.130(2) -0.851(2) -0.2375(17)
H5A H 0.1997 -0.8331 -0.1964
C7A C 0.138(2) -0.856(2) -0.334(2)
H6A H 0.2118 -0.8456 -0.3589
C8A C 0.003(2) -0.494(2) -0.3026(17)
H7A H 0.0453 -0.4504 -0.3440
C9A C 0.035(2) -0.878(2) -0.3946(19)
H8A H 0.0387 -0.8813 -0.4605
C10A C 0.032(2) -0.456(2) -0.2033(17)
H9A H 0.0847 -0.3882 -0.1777
C11A C -0.085(2) -0.5928(16) -0.3434(16)
H10A H -0.1041 -0.6144 -0.4096
C12A C -0.070(2) -0.8952(19) -0.3540(19)
C13A C -0.1864(18) -0.9171(16) -0.4053(12)
C14A C 0.6232(19) 0.0394(15) 0.1856(14)
C15A C 0.020(2) -0.871(2) -0.2015(19)
H11A H 0.0150 -0.8694 -0.1358
C16A C -0.1082(18) -0.6221(15) -0.1863(15)
C17A C -0.1584(19) -0.6843(18) -0.1131(14)
C18A C -0.1421(19) -0.6554(16) -0.2801(16)
H12A H -0.2036 -0.7204 -0.3024
loop_
_geom_bond_atom_site_label_1
_geom_bond_atom_site_label_2
_geom_bond_site_symmetry_1
_geom_bond_site_symmetry_2
Si1 O12 1_555 1_555
Cu1 O19 1_555 1_555
Cu2 O1 1_555 1_555
Cu3 O3 1_555 1_555
Cu4 O1 1_555 1_555
O2 W4 1_555 1_555
O4 W4 1_555 1_555
O5 W3 1_555 1_555
O6 W4 1_555 1_555
O7 Cu4 1_555 1_555
O8 W2 1_555 1_555
O9 W5 1_555 1_555
O10 W3 1_555 1_555
O11 W5 1_555 1_555
O12 W2 1_555 1_555
O13 W1 1_555 1_555
O14 W3 1_555 1_555
O15 Si1 1_555 1_555
O16 W1 1_555 1_555
O17 W6 1_555 1_555
O18 W2 1_555 1_555
O19 W1 1_555 1_555
O20 Si1 1_555 1_555
O21 Si1 1_555 1_555
O22 W1 1_555 1_555
O23 W1 1_555 1_555
O24 W2 1_555 1_555
N1 Cu2 1_555 1_555
N2 N1 1_555 1_555
N3 Cu4 1_555 1_555
N4 Cu3 1_555 1_555
N5 Cu3 1_555 1_555
N6 N7 1_555 1_555
N7 Cu1 1_555 1_555
N8 N7 1_555 1_555
N9 Cu4 1_555 1_555
N10 Cu4 1_555 1_555
N11 Cu2 1_555 1_555
N12 N11 1_555 1_555
N13 N12 1_555 1_555
N14 N13 1_555 1_555
N15 Cu2 1_555 1_555
W1 O20 1_555 1_555
W2 O7 1_555 1_555
W3 O15 1_555 1_555
W4 O8 1_555 1_555
W5 O4 1_555 1_555
W6 O5 1_555 1_555
C1 N15 1_555 1_555
C2 C1 1_555 1_555
H1 C2 1_555 1_555
C3 C2 1_555 1_555
H2 C3 1_555 1_555
C4 C3 1_555 1_555
H3 C4 1_555 1_555
C5 N15 1_555 1_555
H4 C5 1_555 1_555
C6 H5 1_555 1_555
C7 C6 1_555 1_555
H6 C7 1_555 1_555
C8 H7 1_555 1_555
C9 C7 1_555 1_555
H8 C9 1_555 1_555
C10 N5 1_555 1_555
H9 C10 1_555 1_555
C11 C8 1_555 1_555
H10 C11 1_555 1_555
C12 N10 1_555 1_555
C13 N6 1_555 1_555
C14 N11 1_555 1_555
C15 N10 1_555 1_555
H11 C15 1_555 1_555
C16 N5 1_555 1_555
C17 N3 1_555 1_555
C18 C11 1_555 1_555
H12 C18 1_555 1_555
Cu1A O19A_2 1_555 1_555
Cu1A_2 N8 1_555 1_555
Cu1_2 N14 1_555 1_555
Cu1A_3 O19A 1_555 1_555
Cu1_3 N8A 1_555 1_555
Cu2A O1A 1_555 1_555
Cu2A_2 N12 1_555 1_555
Cu4A O1A 1_555 1_555
Cu4A_2 N13 1_555 1_555
Cu4A_3 O7A 1_555 1_555
O2A W4A 1_555 1_555
O3A Cu3 1_555 1_555
O4A W4A 1_555 1_555
O5A W3A 1_555 1_555
O6A W4A 1_555 1_555
O7A W2A 1_555 1_555
O7A_2 Cu4A 1_555 1_555
O8A W2A 1_555 1_555
O9A W5A 1_555 1_555
O10A W3A 1_555 1_555
O11A W6 1_555 1_555
O12A Si1 1_555 1_555
O13A W1A 1_555 1_555
O14A W5 1_555 1_555
O15A Si1 1_555 1_555
O16A W4 1_555 1_555
O17A W6A 1_555 1_555
O18A W2A 1_555 1_555
O19A W1A 1_555 1_555
O20A Si1 1_555 1_555
O21A Si1 1_555 1_555
O22A W1A 1_555 1_555
O23A W6 1_555 1_555
O24A W2A 1_555 1_555
N1A Cu2A 1_555 1_555
N2A N1A 1_555 1_555
N3A Cu4A 1_555 1_555
N4A Cu3 1_555 1_555
N5A Cu3 1_555 1_555
N6A N7A 1_555 1_555
N7A Cu1A 1_555 1_555
N8A N7A 1_555 1_555
N8A_2 Cu1 1_555 1_555
N8_2 Cu1A 1_555 1_555
N9A Cu4A 1_555 1_555
N10A Cu4A 1_555 1_555
N11A Cu2A_2 1_555 1_555
N11A_2 Cu2A 1_555 1_555
N12A Cu2 1_555 1_555
N12_2 Cu2A 1_555 1_555
N13A Cu4 1_555 1_555
N13_2 Cu4A 1_555 1_555
N14A Cu1A_2 1_555 1_555
N14_2 Cu1 1_555 1_555
N14A_2 Cu1A 1_555 1_555
N15A Cu2A_2 1_555 1_555
N15A_2 Cu2A 1_555 1_555
W1A O21 1_555 1_555
W2A O21 1_555 1_555
W3A O21 1_555 1_555
W4A O16 1_555 1_555
W5A O14 1_555 1_555
W6A O11 1_555 1_555
C1A N15A 1_555 1_555
C2A C1A 1_555 1_555
H1A C2A 1_555 1_555
C3A C2A 1_555 1_555
H2A C3A 1_555 1_555
C4A C3A 1_555 1_555
H3A C4A 1_555 1_555
C5A N15A 1_555 1_555
H4A C5A 1_555 1_555
C6A H5A 1_555 1_555
C7A C6A 1_555 1_555
H6A C7A 1_555 1_555
C8A H7A 1_555 1_555
C9A C7A 1_555 1_555
H8A C9A 1_555 1_555
C10A N5A 1_555 1_555
H9A C10A 1_555 1_555
C11A C8A 1_555 1_555
H10A C11A 1_555 1_555
C12A N10A 1_555 1_555
C13A N6A 1_555 1_555
C14A N11A 1_555 1_555
C15A N10A 1_555 1_555
H11A C15A 1_555 1_555
C16A N5A 1_555 1_555
C17A N3A 1_555 1_555
C18A C11A 1_555 1_555
H12A C18A 1_555 1_555
O6 W6 1_555 1_555
O12 W4 1_555 1_555
O12 W5 1_555 1_555
O13 W2 1_555 1_555
O15 W6 1_555 1_555
O15 W5A 1_555 1_555
O18 W5 1_555 1_555
O20 W4A 1_555 1_555
O20 W6A 1_555 1_555
O22 W3 1_555 1_555
O23 W6A 1_555 1_555
O24 W3 1_555 1_555
N1 N3 1_555 1_555
N2 N4 1_555 1_555
N4 C17 1_555 1_555
N8 N9 1_555 1_555
N9 C13 1_555 1_555
N14 C14 1_555 1_555
W1 O21A 1_555 1_555
W2 O21A 1_555 1_555
W3 O21A 1_555 1_555
W4 O20A 1_555 1_555
W5 O15A 1_555 1_555
W6 O20A 1_555 1_555
C1 C14 1_555 1_555
C4 C5 1_555 1_555
C6 C15 1_555 1_555
C8 C10 1_555 1_555
C9 C12 1_555 1_555
C12 C13 1_555 1_555
C16 C17 1_555 1_555
C16 C18 1_555 1_555
O4A W5A 1_555 1_555
O5A W6A 1_555 1_555
O6A W6A 1_555 1_555
O8A W4A 1_555 1_555
O11A W5A 1_555 1_555
O12A W2A 1_555 1_555
O12A W4A 1_555 1_555
O12A W5A 1_555 1_555
O13A W2A 1_555 1_555
O14A W3A 1_555 1_555
O15A W3A 1_555 1_555
O15A W6A 1_555 1_555
O16A W1A 1_555 1_555
O18A W5A 1_555 1_555
O20A W1A 1_555 1_555
O22A W3A 1_555 1_555
O23A W1A 1_555 1_555
O24A W3A 1_555 1_555
N1A N3A 1_555 1_555
N2A N4A 1_555 1_555
N4A C17A 1_555 1_555
N8A N9A 1_555 1_555
N9A C13A 1_555 1_555
N11A N12A 1_555 1_555
N12A N13A 1_555 1_555
N12_2 N13_2 1_555 1_555
N13A N14A 1_555 1_555
N14A C14A 1_555 1_555
C1A C14A 1_555 1_555
C4A C5A 1_555 1_555
C6A C15A 1_555 1_555
C8A C10A 1_555 1_555
C9A C12A 1_555 1_555
C12A C13A 1_555 1_555
C16A C17A 1_555 1_555
C16A C18A 1_555 1_555

#END
