
#######################################################################
#
#                 Cambridge Crystallographic Data Centre
#                                CCDC 
#
#######################################################################
#
# If this CIF has been generated from an entry in the Cambridge 
# Structural Database, then it will include bibliographic, chemical, 
# crystal, experimental, refinement or atomic coordinate data resulting 
# from the CCDC's data processing and validation procedures.
#
#######################################################################

data_DAWVII
_symmetry_cell_setting           triclinic
_symmetry_space_group_name_H-M   'P -1'
_symmetry_Int_Tables_number      2
_space_group_name_Hall           '-P 1'
loop_
_symmetry_equiv_pos_site_id
_symmetry_equiv_pos_as_xyz
1 x,y,z
2 -x,-y,-z
_cell_length_a                   11.841(2)
_cell_length_b                   13.837(3)
_cell_length_c                   14.269(3)
_cell_angle_alpha                99.426(3)
_cell_angle_beta                 91.965(3)
_cell_angle_gamma                110.705(2)
_cell_volume                     2146.57
loop_
_atom_site_label
_atom_site_type_symbol
_atom_site_fract_x
_atom_site_fract_y
_atom_site_fract_z
O26 O 0.4479(19) 0.2312(15) -0.1428(14)
P1 P 0.5000 0.0000 0.5000
Mo1 Mo 0.33592(10) -0.03702(8) 0.27469(8)
Mo2 Mo 0.66715(11) -0.15731(9) 0.41152(8)
Mo3 Mo 0.34246(10) -0.25872(8) 0.37062(8)
Mo4 Mo 0.17762(10) -0.10814(9) 0.47588(9)
Mo5 Mo 0.66122(12) 0.05334(9) 0.29696(8)
Mo6 Mo 0.49012(11) -0.22009(10) 0.60083(10)
Cu1 Cu 0.55105(13) -0.49793(13) 0.38211(9)
Cu2 Cu 0.0000 -1.0000 0.0000
Cu3 Cu 0.31778(11) -0.53488(11) 0.00415(9)
Cu4 Cu 0.25323(12) -0.55580(11) 0.22049(9)
C1 C -0.0337(11) -1.0340(9) 0.2043(8)
H1 H -0.0920 -1.0993 0.1781
C2 C -0.1419(12) -0.6407(11) 0.3297(12)
H2 H -0.2157 -0.6495 0.3548
C3 C -0.0405(12) -0.6221(11) 0.3901(10)
H3 H -0.0450 -0.6224 0.4550
C4 C -0.0223(11) -0.6278(10) 0.1988(9)
H4 H -0.0171 -0.6307 0.1336
C5 C 0.1069(11) -0.8769(8) 0.1836(8)
C6 C 0.0444(11) -0.6327(11) -0.2812(9)
H5 H -0.0062 -0.6536 -0.3379
C7 C -0.0100(11) -1.0071(11) 0.3021(8)
H6 H -0.0506 -1.0532 0.3411
C8 C 0.2412(9) -0.5718(8) -0.1974(7)
C9 C 0.0756(11) -0.6034(12) -0.1106(9)
H7 H 0.0442 -0.6041 -0.0518
C10 C 0.0675(10) -0.6032(9) 0.3510(8)
C11 C 0.1610(11) -0.8156(9) 0.1130(8)
C12 C 0.1701(10) -0.5997(9) -0.2818(8)
H8 H 0.2050 -0.5967 -0.3391
C13 C 0.1846(9) -0.5802(8) 0.4041(7)
C14 C -0.0032(11) -0.6334(11) -0.1931(9)
H9 H -0.0865 -0.6537 -0.1898
C15 C 0.3734(9) -0.5412(7) -0.1862(7)
C16 C -0.1363(12) -0.6464(12) 0.2334(11)
H10 H -0.2056 -0.6620 0.1923
C17 C 0.1383(11) -0.8429(9) 0.2813(8)
H11 H 0.1987 -0.7781 0.3058
C18 C 0.0766(11) -0.9091(10) 0.3409(8)
H12 H 0.0931 -0.8879 0.4068
O1 O 0.2134(7) -0.5185(6) 0.1014(5)
O2 O 0.0289(8) -0.1568(8) 0.4615(8)
O3 O 0.5023(9) -0.2386(12) 0.3498(8)
O4 O 0.6179(9) -0.2072(13) 0.5220(8)
O5 O 0.6666(13) -0.0768(7) 0.3099(7)
O6 O 0.2146(9) -0.2265(7) 0.4299(7)
O7 O 0.4961(12) -0.1145(10) 0.4770(9)
O8 O 0.3365(10) -0.1766(8) 0.2811(7)
O9 O 0.5006(9) -0.0195(8) 0.2432(11)
O10 O 0.7917(13) -0.0382(7) 0.4772(7)
O11 O 0.6167(9) -0.1036(8) 0.6884(11)
O12 O 0.3808(9) -0.1737(7) 0.6709(11)
O13 O 0.7896(13) 0.1162(8) 0.3973(8)
O14 O 0.7396(8) -0.2318(7) 0.3633(7)
O15 O 0.3818(13) -0.0047(10) 0.5453(10)
O16 O 0.2588(11) -0.0630(10) 0.1676(7)
O17 O 0.2134(10) -0.0650(8) 0.3535(8)
O18 O 0.2645(9) -0.3787(6) 0.3101(7)
O19 O 0.4859(9) -0.3205(7) 0.6524(7)
O20 O 0.4951(13) 0.0366(11) 0.4034(10)
O21 O 0.7353(9) 0.0784(8) 0.2022(7)
O22 O 0.3776(10) -0.2857(12) 0.4960(8)
O23 O 0.3928(13) -0.0668(11) 0.4363(10)
N1 N 0.5631(8) -0.5009(7) -0.1968(6)
N2 N 0.5456(8) -0.5066(7) -0.1080(6)
N3 N 0.4258(8) -0.5342(7) -0.1003(6)
N4 N 0.1959(8) -0.5734(8) -0.1135(6)
N5 N 0.2377(10) -0.7167(7) 0.1234(7)
N6 N 0.2599(10) -0.7036(8) 0.0326(7)
N7 N 0.1986(10) -0.7898(8) -0.0299(7)
N8 N 0.1360(10) -0.8619(8) 0.0213(7)
N9 N 0.0229(9) -0.9708(7) 0.1450(6)
N10 N 0.3782(8) -0.5395(7) 0.4192(6)
N11 N 0.3359(8) -0.5406(7) 0.5046(6)
N12 N 0.4570(8) -0.5224(7) -0.2492(6)
N13 N 0.2820(8) -0.5660(7) 0.3554(6)
N14 N 0.2151(9) -0.5657(8) 0.4962(7)
N15 N 0.0792(8) -0.6063(7) 0.2557(6)
O24 O 0.1437(12) -1.1005(10) -0.0223(9)
O25 O 0.3826(17) -0.3429(14) -0.0064(13)
Mo1A Mo 0.66408(10) 0.03702(8) 0.72531(8)
Mo2A Mo 0.33285(11) 0.15731(9) 0.58848(8)
Mo3A Mo 0.65754(10) 0.25872(8) 0.62938(8)
Mo4A Mo 0.82238(10) 0.10814(9) 0.52412(9)
Mo5A Mo 0.33878(12) -0.05334(9) 0.70304(8)
Mo6A Mo 0.50988(11) 0.22009(10) 0.39917(10)
Cu1A Cu -0.55105(13) -1.50207(13) -0.38211(9)
Cu1A_2 Cu 0.44895(13) -0.50207(13) 0.61789(9)
Cu1A_3 Cu 0.44895(13) -0.50207(13) -0.38211(9)
Cu1_2 Cu 0.55105(13) 0.50207(13) 0.38211(9)
Cu1_3 Cu -0.44895(13) -1.49793(13) -0.61789(9)
Cu3A Cu -0.31778(11) -1.46512(11) -0.00415(9)
Cu3A_2 Cu 0.68222(11) -0.46512(11) -0.00415(9)
Cu4A Cu -0.25323(12) -1.44420(11) -0.22049(9)
Cu4A_2 Cu 0.74677(12) -0.44420(11) -0.22049(9)
Cu4A_3 Cu 0.74677(12) 0.55580(11) 0.77951(9)
C1A C 0.0337(11) -0.9660(9) -0.2043(8)
H1A H 0.0920 -0.9007 -0.1781
C2A C 0.1419(12) -1.3593(11) -0.3297(12)
H2A H 0.2157 -1.3505 -0.3548
C3A C 0.0405(12) -1.3779(11) -0.3901(10)
H3A H 0.0450 -1.3776 -0.4550
C4A C 0.0223(11) -1.3722(10) -0.1988(9)
H4A H 0.0171 -1.3693 -0.1336
C5A C -0.1069(11) -1.1231(8) -0.1836(8)
C6A C 0.9556(11) -0.3673(11) 0.2812(9)
H5A H 1.0062 -0.3464 0.3379
C7A C 0.0100(11) -0.9929(11) -0.3021(8)
H6A H 0.0506 -0.9468 -0.3411
C8A C 0.7588(9) -0.4282(8) 0.1974(7)
C9A C 0.9244(11) -0.3966(12) 0.1106(9)
H7A H 0.9558 -0.3959 0.0518
C10A C -0.0675(10) -1.3968(9) -0.3510(8)
C11A C -0.1610(11) -1.1844(9) -0.1130(8)
C12A C 0.8299(10) -0.4003(9) 0.2818(8)
H8A H 0.7950 -0.4033 0.3391
C13A C -0.1846(9) -1.4198(8) -0.4041(7)
C14A C 1.0032(11) -0.3666(11) 0.1931(9)
H9A H 1.0865 -0.3463 0.1898
C15A C 0.6266(9) -0.4588(7) 0.1862(7)
C16A C 0.1363(12) -1.3536(12) -0.2334(11)
H10A H 0.2056 -1.3380 -0.1923
C17A C -0.1383(11) -1.1571(9) -0.2813(8)
H11A H -0.1987 -1.2219 -0.3058
C18A C -0.0766(11) -1.0909(10) -0.3409(8)
H12A H -0.0931 -1.1121 -0.4068
O1A O -0.2134(7) -1.4815(6) -0.1014(5)
O2A O 0.9711(8) 0.1568(8) 0.5385(8)
O3A O 0.4977(9) 0.2386(12) 0.6502(8)
O4A O 0.3821(9) 0.2072(13) 0.4780(8)
O5A O 0.3334(13) 0.0768(7) 0.6901(7)
O6A O 0.7854(9) 0.2265(7) 0.5701(7)
O7A O 0.5039(12) 0.1145(10) 0.5230(9)
O8A O 0.6635(10) 0.1766(8) 0.7189(7)
O9A O 0.4994(9) 0.0195(8) 0.7568(11)
O10A O 0.2083(13) 0.0382(7) 0.5228(7)
O11A O 0.3833(9) 0.1036(8) 0.3116(11)
O12A O 0.6192(9) 0.1737(7) 0.3291(11)
O13A O 0.2104(13) -0.1162(8) 0.6027(8)
O14A O 0.2604(8) 0.2318(7) 0.6367(7)
O15A O 0.6182(13) 0.0047(10) 0.4547(10)
O16A O 0.7412(11) 0.0630(10) 0.8324(7)
O17A O 0.7866(10) 0.0650(8) 0.6465(8)
O18A O 0.7355(9) 0.3787(6) 0.6899(7)
O18A_2 O -0.2645(9) -1.6213(6) -0.3101(7)
O19A O 0.5141(9) 0.3205(7) 0.3476(7)
O19A_2 O 0.5141(9) -0.6795(7) 0.3476(7)
O19_2 O -0.5141(9) -1.3205(7) -0.3476(7)
O20A O 0.5049(13) -0.0366(11) 0.5966(10)
O21A O 0.2647(9) -0.0784(8) 0.7978(7)
O22A O 0.6224(10) 0.2857(12) 0.5040(8)
O23A O 0.6072(13) 0.0668(11) 0.5637(10)
N1A N 0.4369(8) -0.4991(7) 0.1968(6)
N1_2 N -0.4369(8) -1.5009(7) -0.1968(6)
N2A N 0.4544(8) -0.4934(7) 0.1080(6)
N2_2 N -0.4544(8) -1.5066(7) -0.1080(6)
N3A N 0.5742(8) -0.4658(7) 0.1003(6)
N3A_2 N -0.4258(8) -1.4658(7) 0.1003(6)
N4A N 0.8041(8) -0.4266(8) 0.1135(6)
N4A_2 N -0.1959(8) -1.4266(8) 0.1135(6)
N5A N -0.2377(10) -1.2833(7) -0.1234(7)
N6A N -0.2599(10) -1.2964(8) -0.0326(7)
N7A N -0.1986(10) -1.2102(8) 0.0299(7)
N8A N -0.1360(10) -1.1381(8) -0.0213(7)
N9A N -0.0229(9) -1.0292(7) -0.1450(6)
N10A N -0.3782(8) -1.4605(7) -0.4192(6)
N11A N -0.3359(8) -1.4594(7) -0.5046(6)
N11A_2 N 0.6641(8) -0.4594(7) 0.4954(6)
N11_2 N -0.6641(8) -1.5406(7) -0.4954(6)
N12A N 0.5430(8) -0.4776(7) 0.2492(6)
N12_2 N -0.5430(8) -1.5224(7) -0.2492(6)
N13A N -0.2820(8) -1.4340(7) -0.3554(6)
N14A N -0.2151(9) -1.4343(8) -0.4962(7)
N15A N -0.0792(8) -1.3937(7) -0.2557(6)
O24A O -0.1437(12) -0.8995(10) 0.0223(9)
O25A O -0.3826(17) -1.6571(14) 0.0064(13)
loop_
_geom_bond_atom_site_label_1
_geom_bond_atom_site_label_2
_geom_bond_site_symmetry_1
_geom_bond_site_symmetry_2
P1 O7 1_555 1_555
Mo1 O8 1_555 1_555
Mo2 O3 1_555 1_555
Mo3 O3 1_555 1_555
Mo4 O2 1_555 1_555
Mo5 O5 1_555 1_555
Mo6 O4 1_555 1_555
Cu1 N10 1_555 1_555
Cu2 N8 1_555 1_555
Cu3 O1 1_555 1_555
Cu4 O1 1_555 1_555
C1 H1 1_555 1_555
C2 H2 1_555 1_555
C3 C2 1_555 1_555
H3 C3 1_555 1_555
C4 H4 1_555 1_555
C5 C11 1_555 1_555
C6 H5 1_555 1_555
C7 C1 1_555 1_555
H6 C7 1_555 1_555
C8 C12 1_555 1_555
C9 H7 1_555 1_555
C10 C3 1_555 1_555
C11 N5 1_555 1_555
C12 C6 1_555 1_555
H8 C12 1_555 1_555
C13 C10 1_555 1_555
C14 C6 1_555 1_555
H9 C14 1_555 1_555
C15 C8 1_555 1_555
C16 C2 1_555 1_555
H10 C16 1_555 1_555
C17 C5 1_555 1_555
H11 C17 1_555 1_555
C18 C7 1_555 1_555
H12 C18 1_555 1_555
O4 Mo2 1_555 1_555
O5 Mo2 1_555 1_555
O6 Mo3 1_555 1_555
O7 Mo2 1_555 1_555
O8 Mo3 1_555 1_555
O9 Mo1 1_555 1_555
O10 Mo2 1_555 1_555
O11 Mo6 1_555 1_555
O12 Mo6 1_555 1_555
O13 Mo5 1_555 1_555
O14 Mo2 1_555 1_555
O15 P1 1_555 1_555
O16 Mo1 1_555 1_555
O17 Mo1 1_555 1_555
O18 Mo3 1_555 1_555
O19 Mo6 1_555 1_555
O20 P1 1_555 1_555
O21 Mo5 1_555 1_555
O22 Mo3 1_555 1_555
O23 P1 1_555 1_555
N1 N2 1_555 1_555
N2 N3 1_555 1_555
N3 Cu3 1_555 1_555
N4 Cu3 1_555 1_555
N5 Cu4 1_555 1_555
N6 Cu3 1_555 1_555
N7 N6 1_555 1_555
N8 C11 1_555 1_555
N9 Cu2 1_555 1_555
N10 N11 1_555 1_555
N11 N14 1_555 1_555
N12 C15 1_555 1_555
N13 Cu4 1_555 1_555
N14 C13 1_555 1_555
N15 Cu4 1_555 1_555
O24 Cu2 1_555 1_555
O25 Cu3 1_555 1_555
Mo1A O11 1_555 1_555
Mo2A O15 1_555 1_555
Mo3A O3A 1_555 1_555
Mo4A O10 1_555 1_555
Mo5A O12 1_555 1_555
Mo6A O20 1_555 1_555
Cu1A O19_2 1_555 1_555
Cu1A_2 O19 1_555 1_555
Cu1A_3 N12 1_555 1_555
Cu1_2 O19A 1_555 1_555
Cu1_3 N11A 1_555 1_555
Cu3A O1A 1_555 1_555
Cu3A_2 N2 1_555 1_555
Cu4A O1A 1_555 1_555
Cu4A_2 N1 1_555 1_555
Cu4A_3 O18A 1_555 1_555
C1A H1A 1_555 1_555
C2A H2A 1_555 1_555
C3A C2A 1_555 1_555
H3A C3A 1_555 1_555
C4A H4A 1_555 1_555
C5A C11A 1_555 1_555
C6A H5A 1_555 1_555
C7A C1A 1_555 1_555
H6A C7A 1_555 1_555
C8A C12A 1_555 1_555
C9A H7A 1_555 1_555
C10A C3A 1_555 1_555
C11A N5A 1_555 1_555
C12A C6A 1_555 1_555
H8A C12A 1_555 1_555
C13A C10A 1_555 1_555
C14A C6A 1_555 1_555
H9A C14A 1_555 1_555
C15A C8A 1_555 1_555
C16A C2A 1_555 1_555
H10A C16A 1_555 1_555
C17A C5A 1_555 1_555
H11A C17A 1_555 1_555
C18A C7A 1_555 1_555
H12A C18A 1_555 1_555
O2A Mo4A 1_555 1_555
O3A Mo2A 1_555 1_555
O4A Mo2A 1_555 1_555
O5A Mo2A 1_555 1_555
O6A Mo3A 1_555 1_555
O7A P1 1_555 1_555
O8A Mo1A 1_555 1_555
O9A Mo1A 1_555 1_555
O10A Mo4 1_555 1_555
O11A Mo1 1_555 1_555
O12A Mo5 1_555 1_555
O13A Mo4 1_555 1_555
O14A Mo2A 1_555 1_555
O15A P1 1_555 1_555
O16A Mo1A 1_555 1_555
O17A Mo1A 1_555 1_555
O18A Mo3A 1_555 1_555
O18A_2 Cu4A 1_555 1_555
O19A Mo6A 1_555 1_555
O19A_2 Cu1 1_555 1_555
O20A P1 1_555 1_555
O21A Mo5A 1_555 1_555
O22A Mo3A 1_555 1_555
O23A P1 1_555 1_555
N1A Cu4 1_555 1_555
N1_2 Cu4A 1_555 1_555
N2A Cu3 1_555 1_555
N2_2 Cu3A 1_555 1_555
N3A Cu3A_2 1_555 1_555
N3A_2 Cu3A 1_555 1_555
N4A Cu3A_2 1_555 1_555
N4A_2 Cu3A 1_555 1_555
N5A Cu4A 1_555 1_555
N6A Cu3A 1_555 1_555
N7A N6A 1_555 1_555
N8A Cu2 1_555 1_555
N9A Cu2 1_555 1_555
N10A Cu1A 1_555 1_555
N11A N10A 1_555 1_555
N11A_2 Cu1 1_555 1_555
N11_2 Cu1A 1_555 1_555
N12A Cu1 1_555 1_555
N12_2 Cu1A 1_555 1_555
N13A Cu4A 1_555 1_555
N14A C13A 1_555 1_555
N15A Cu4A 1_555 1_555
O24A Cu2 1_555 1_555
O25A Cu3A 1_555 1_555
Mo1 O20 1_555 1_555
Mo1 O23 1_555 1_555
Mo2 O15A 1_555 1_555
Mo3 O7 1_555 1_555
Mo3 O23 1_555 1_555
Mo4 O6 1_555 1_555
Mo4 O15 1_555 1_555
Mo4 O17 1_555 1_555
Mo4 O23 1_555 1_555
Mo5 O9 1_555 1_555
Mo5 O20 1_555 1_555
Mo5 O15A 1_555 1_555
Mo6 O7 1_555 1_555
Mo6 O22 1_555 1_555
Mo6 O20A 1_555 1_555
Cu4 O18 1_555 1_555
C1 N9 1_555 1_555
C4 C16 1_555 1_555
C4 N15 1_555 1_555
C5 N9 1_555 1_555
C8 N4 1_555 1_555
C9 C14 1_555 1_555
C9 N4 1_555 1_555
C10 N15 1_555 1_555
C13 N13 1_555 1_555
C15 N3 1_555 1_555
C17 C18 1_555 1_555
O13 Mo4A 1_555 1_555
O15 Mo5A 1_555 1_555
N1 N12 1_555 1_555
N5 N6 1_555 1_555
N7 N8 1_555 1_555
N10 N13 1_555 1_555
N11 Cu1A_2 1_555 1_555
Mo1A O20A 1_555 1_555
Mo1A O23A 1_555 1_555
Mo2A O7A 1_555 1_555
Mo2A O10A 1_555 1_555
Mo3A O7A 1_555 1_555
Mo3A O8A 1_555 1_555
Mo3A O23A 1_555 1_555
Mo4A O6A 1_555 1_555
Mo4A O15A 1_555 1_555
Mo4A O17A 1_555 1_555
Mo4A O23A 1_555 1_555
Mo5A O5A 1_555 1_555
Mo5A O9A 1_555 1_555
Mo5A O13A 1_555 1_555
Mo5A O20A 1_555 1_555
Mo6A O4A 1_555 1_555
Mo6A O7A 1_555 1_555
Mo6A O11A 1_555 1_555
Mo6A O12A 1_555 1_555
Mo6A O22A 1_555 1_555
C1A N9A 1_555 1_555
C4A C16A 1_555 1_555
C4A N15A 1_555 1_555
C5A N9A 1_555 1_555
C8A N4A 1_555 1_555
C9A C14A 1_555 1_555
C9A N4A 1_555 1_555
C10A N15A 1_555 1_555
C11A N8A 1_555 1_555
C13A N13A 1_555 1_555
C15A N3A 1_555 1_555
C15A N12A 1_555 1_555
C17A C18A 1_555 1_555
N1A N2A 1_555 1_555
N1A N12A 1_555 1_555
N1_2 N2_2 1_555 1_555
N1_2 N12_2 1_555 1_555
N2A N3A 1_555 1_555
N5A N6A 1_555 1_555
N7A N8A 1_555 1_555
N10A N13A 1_555 1_555
N11A N14A 1_555 1_555

#END
