
#######################################################################
#
#                 Cambridge Crystallographic Data Centre
#                                CCDC 
#
#######################################################################
#
# If this CIF has been generated from an entry in the Cambridge 
# Structural Database, then it will include bibliographic, chemical, 
# crystal, experimental, refinement or atomic coordinate data resulting 
# from the CCDC's data processing and validation procedures.
#
#######################################################################

data_DAWVAA
_symmetry_cell_setting           monoclinic
_symmetry_space_group_name_H-M   'P 21/n'
_symmetry_Int_Tables_number      14
_space_group_name_Hall           '-P 2yn'
loop_
_symmetry_equiv_pos_site_id
_symmetry_equiv_pos_as_xyz
1 x,y,z
2 1/2-x,1/2+y,1/2-z
3 -x,-y,-z
4 1/2+x,1/2-y,1/2+z
_cell_length_a                   22.2470(7)
_cell_length_b                   11.7997(4)
_cell_length_c                   39.9452(13)
_cell_angle_alpha                90
_cell_angle_beta                 102.201(1)
_cell_angle_gamma                90
_cell_volume                     10249.1
loop_
_atom_site_label
_atom_site_type_symbol
_atom_site_fract_x
_atom_site_fract_y
_atom_site_fract_z
N17 N 0.3323(5) 0.4822(10) 0.4441(3)
H45 H 0.2934 0.4756 0.4432
H46 H 0.3582 0.4618 0.4622
N18 N 0.2852(7) 0.4675(12) 0.3607(4)
H47 H 0.2994 0.4001 0.3650
H48 H 0.2577 0.4806 0.3425
C17 C 0.3543(7) 0.5287(14) 0.4146(4)
H69 H 0.3795 0.5946 0.4223
H70 H 0.3808 0.4725 0.4074
C18 C 0.3081(8) 0.5615(14) 0.3848(4)
H71 H 0.3252 0.6199 0.3725
H72 H 0.2734 0.5943 0.3926
O79 O 0.5374(4) -0.1227(10) 0.6277(3)
O81 O 0.4321(5) 0.5045(12) 0.4992(4)
O82 O 0.3957(7) -0.3191(12) 0.5567(4)
O83 O 0.5344(8) -0.2412(15) 0.6813(4)
O84 O -0.5037(8) 0.5364(18) 0.3073(5)
O85 O -0.2112(13) 1.053(2) 0.7896(7)
O86 O -0.4857(12) 0.676(2) 0.2280(7)
W1 W -0.16963(2) 0.91405(4) 0.373842(13)
W2 W -0.16363(2) 0.73721(4) 0.441476(13)
W3 W -0.20135(2) 0.63924(4) 0.358798(13)
W4 W -0.30343(2) 0.62148(4) 0.460360(13)
W5 W -0.34372(2) 0.51607(4) 0.378182(13)
W6 W -0.44099(2) 0.68249(4) 0.409723(13)
W7 W -0.35426(2) 0.72330(5) 0.306710(13)
W8 W -0.44895(2) 0.88956(5) 0.340671(13)
W9 W -0.32007(3) 0.99896(5) 0.322819(13)
W10 W -0.39749(2) 0.98338(4) 0.432918(13)
W11 W -0.27178(2) 1.09122(4) 0.415420(13)
W12 W -0.18586(3) 1.22435(5) 0.661209(14)
W13 W -0.55134(3) 0.40143(5) 0.158303(14)
W14 W -0.14139(3) 0.99257(5) 0.708413(14)
W15 W -0.54950(2) 0.68037(5) 0.117763(14)
W16 W -0.63983(3) 0.79133(5) 0.166623(14)
W17 W -0.68259(2) 0.80127(4) 0.078934(14)
W18 W -0.28787(3) 0.84676(5) 0.670611(14)
W19 W -0.32874(2) 0.83170(4) 0.582895(13)
W20 W -0.33164(2) 1.08193(5) 0.624158(14)
W21 W -0.23633(2) 1.18917(4) 0.564938(13)
W22 W -0.60438(2) 0.43041(4) 0.062077(13)
Sm1 Sm -0.24848(3) 0.92945(5) 0.503359(16)
Cu1 Cu -0.5000 1.0000 0.5000
Cu2 Cu -0.5000 0.5000 0.0000
Cu3 Cu -0.26289(8) 1.29062(16) 0.28713(4)
Cu4 Cu -0.58451(12) 0.9379(2) 0.25491(6)
N1 N -0.5814(3) 0.7719(2) 0.26891(7)
H1 H -0.5428 0.7538 0.2796
H2 H -0.5917 0.7283 0.2501
N2 N -0.66680(13) 0.9241(6) 0.26747(7)
H3 H -0.6962 0.9538 0.2508
H4 H -0.6667 0.9623 0.2870
C1 C -0.6213(3) 0.7503(4) 0.29049(8)
H5 H -0.6254 0.6695 0.2939
H6 H -0.6073 0.7865 0.3126
C2 C -0.6799(2) 0.7994(6) 0.27223(9)
H7 H -0.6937 0.7627 0.2502
H8 H -0.7113 0.7906 0.2855
N3 N -0.6068(3) 1.0998(2) 0.24614(7)
H9 H -0.6169 1.1344 0.2643
H10 H -0.6366 1.1101 0.2273
N4 N -0.50022(12) 0.9447(6) 0.24448(8)
H11 H -0.4953 0.8908 0.2294
H12 H -0.4708 0.9369 0.2636
C3 C -0.5456(3) 1.1319(3) 0.24106(8)
H13 H -0.5526 1.1944 0.2249
H14 H -0.5246 1.1642 0.2627
C4 C -0.4988(2) 1.0586(6) 0.22973(8)
H15 H -0.4582 1.0914 0.2372
H16 H -0.5077 1.0538 0.2049
N5 N -0.7428(4) 1.1913(8) -0.01862(11)
H17 H -0.7624 1.1283 -0.0228
H18 H -0.7619 1.2515 -0.0147
N6 N -0.6412(4) 1.0122(7) 0.00629(9)
H19 H -0.6777 0.9773 0.0044
H20 H -0.6141 0.9573 0.0043
C5 C -0.6766(5) 1.1960(8) -0.01821(11)
H21 H -0.6700 1.2512 -0.0351
H22 H -0.6553 1.2229 0.0041
C6 C -0.6474(4) 1.0813(8) -0.02572(10)
H23 H -0.6075 1.0938 -0.0312
H24 H -0.6736 1.0430 -0.0449
Cu5 Cu -0.61885(17) 1.0597(3) 0.05352(9)
Si1 Si -0.30789(15) 0.8111(3) 0.39273(8)
Si2 Si -0.68878(16) 0.5386(3) 0.11891(8)
O1 O -0.1111(4) 0.9939(8) 0.3633(2)
O2 O -0.0984(4) 0.6834(8) 0.4690(2)
O3 O -0.1663(4) 0.5446(7) 0.3356(2)
O4 O -0.2882(4) 0.5272(7) 0.4939(2)
O5 O -0.3570(4) 0.3841(7) 0.3609(2)
O6 O -0.5122(4) 0.6494(8) 0.4168(2)
O7 O -0.3669(4) 0.6470(8) 0.2689(2)
O8 O -0.5222(4) 0.9304(8) 0.3233(2)
O9 O -0.3127(4) 1.1045(7) 0.2942(2)
O10 O -0.4624(4) 1.0499(7) 0.4394(2)
O11 O -0.2534(4) 1.2298(7) 0.4100(2)
O12 O -0.1235(4) 0.8424(7) 0.4158(2)
O13 O -0.4596(4) 0.7578(7) 0.3670(2)
O14 O -0.2048(4) 1.0163(6) 0.4002(2)
O15 O -0.1579(4) 0.7746(7) 0.3511(2)
O16 O -0.3565(4) 1.1150(7) 0.4202(2)
O17 O -0.2250(4) 0.6300(7) 0.4478(2)
O18 O -0.3529(4) 0.9747(7) 0.4748(2)
O19 O -0.2622(4) 0.5430(7) 0.3720(2)
O20 O -0.2357(4) 0.9492(7) 0.3366(2)
O21 O -0.2970(4) 0.7530(7) 0.4807(2)
O22 O -0.3104(4) 1.0734(7) 0.3629(2)
O23 O -0.3325(4) 0.8692(8) 0.2909(2)
O24 O -0.4314(4) 0.9711(8) 0.3802(2)
O25 O -0.2410(4) 1.0688(7) 0.4601(2)
O26 O -0.1529(4) 0.6253(7) 0.4021(2)
O27 O -0.4348(4) 0.7819(8) 0.3052(2)
O28 O -0.3167(4) 0.4860(7) 0.4240(2)
O29 O -0.2693(3) 0.6945(7) 0.3239(2)
O30 O -0.1883(4) 0.8417(7) 0.4660(2)
O31 O -0.4247(4) 0.5467(7) 0.3863(2)
O32 O -0.4097(4) 0.9980(7) 0.3163(2)
O33 O -0.4269(4) 0.8280(7) 0.4300(2)
O34 O -0.3916(4) 0.6180(7) 0.4511(2)
O35 O -0.3687(4) 0.6088(7) 0.3374(2)
O36 O -0.2361(4) 0.7835(7) 0.3923(2)
O37 O -0.3377(3) 0.6988(6) 0.40617(19)
O38 O -0.3446(4) 0.8431(7) 0.3537(2)
O39 O -0.3139(3) 0.9183(7) 0.4166(2)
O40 O -0.1994(5) 1.3575(8) 0.6749(2)
O41 O -0.4787(5) 0.3418(9) 0.1694(3)
O42 O -0.1257(5) 0.9753(9) 0.7526(2)
O43 O -0.4775(4) 0.7204(8) 0.1158(2)
O44 O -0.6232(4) 0.8959(9) 0.1974(2)
O45 O -0.6941(5) 0.9310(8) 0.0597(2)
O46 O -0.3184(4) 0.7894(8) 0.7029(2)
O47 O -0.3906(4) 0.7464(8) 0.5642(2)
O48 O -0.3911(4) 1.1707(8) 0.6247(2)
O49 O -0.2610(4) 1.3249(8) 0.5529(2)
O50 O -0.5413(4) 0.3757(8) 0.0482(2)
O51 O -0.1699(4) 1.1442(8) 0.7051(2)
O52 O -0.5703(4) 0.3733(7) 0.1125(2)
O53 O -0.5346(4) 0.5565(8) 0.1493(2)
O54 O -0.6656(4) 0.8763(8) 0.1282(2)
O55 O -0.3063(4) 0.8955(7) 0.5478(2)
O56 O -0.5701(4) 0.5708(8) 0.0819(2)
O57 O -0.1949(4) 0.7949(7) 0.5451(2)
O58 O -0.5932(4) 0.7935(7) 0.0877(2)
O59 O -0.7648(4) 0.7805(7) 0.0886(2)
O60 O -0.2675(4) 1.1571(7) 0.6537(2)
O61 O -0.2248(4) 0.9418(8) 0.6962(2)
O62 O -0.3730(4) 0.9647(7) 0.5934(2)
O63 O -0.2625(4) 1.1154(7) 0.5271(2)
O64 O -0.6213(4) 0.6579(8) 0.1946(2)
O65 O -0.5984(4) 0.2689(8) 0.1669(2)
O66 O -0.6523(4) 0.2920(7) 0.0586(2)
O67 O -0.3378(4) 0.7798(8) 0.6323(2)
O68 O -0.1467(4) 1.0071(7) 0.5244(2)
O69 O -0.7243(4) 0.7569(8) 0.1685(2)
O70 O -0.2995(4) 1.1412(7) 0.5877(2)
O71 O -0.5614(4) 0.7741(8) 0.1554(2)
O72 O -0.5630(4) 0.4552(7) 0.2028(2)
O73 O -0.1983(4) 1.2420(7) 0.6147(2)
O74 O -0.3383(4) 0.9795(8) 0.6620(2)
O75 O -0.6551(4) 0.4599(7) 0.1513(2)
O76 O -0.6532(3) 0.6605(7) 0.1202(2)
O77 O -0.2586(4) 0.9344(7) 0.6216(2)
O78 O -0.6861(4) 0.4696(7) 0.08418(19)
N7 N -0.5332(5) 1.1583(10) 0.5000(3)
H25 H -0.5584 1.1735 0.4798
H26 H -0.5548 1.1657 0.5166
N8 N -0.4204(5) 1.0690(9) 0.5246(3)
H27 H -0.4053 1.0292 0.5438
H28 H -0.3928 1.0665 0.5112
N9 N -0.5805(5) 0.4704(9) -0.0326(3)
H29 H -0.5921 0.5323 -0.0455
H30 H -0.6097 0.4549 -0.0208
N10 N -0.4725(5) 0.3522(10) -0.0172(3)
H31 H -0.4501 0.3121 0.0002
H32 H -0.4494 0.3651 -0.0328
N11 N -0.2331(5) 1.3109(10) 0.3380(3)
H33 H -0.2612 1.2823 0.3489
H34 H -0.2292 1.3853 0.3429
N12 N -0.1848(6) 1.2042(14) 0.2918(4)
H35 H -0.1678 1.2186 0.2738
H36 H -0.1927 1.1294 0.2921
N13 N -0.2922(6) 1.2690(13) 0.2366(3)
H37 H -0.2979 1.1950 0.2315
H38 H -0.2646 1.2970 0.2252
N14 N -0.3400(6) 1.3777(12) 0.2838(3)
H39 H -0.3310 1.4512 0.2882
H40 H -0.3603 1.3520 0.2995
N15 N -0.5963(10) 1.0946(18) 0.1031(5)
H41 H -0.6244 1.0641 0.1136
H42 H -0.5967 1.1702 0.1060
N16 N -0.4731(5) 1.2161(10) 0.1035(3)
H43 H -0.4990 1.2637 0.1086
H44 H -0.4413 1.2400 0.0965
C7 C -0.4820(7) 1.2352(12) 0.5060(4)
H49 H -0.4950 1.3086 0.5128
H50 H -0.4671 1.2450 0.4850
C8 C -0.4309(7) 1.1894(13) 0.5338(5)
H51 H -0.3937 1.2336 0.5350
H52 H -0.4426 1.1930 0.5558
C9 C -0.5735(8) 0.3751(13) -0.0545(4)
H53 H -0.6129 0.3387 -0.0628
H54 H -0.5576 0.4006 -0.0740
C10 C -0.5280(7) 0.2912(13) -0.0327(4)
H55 H -0.5183 0.2304 -0.0470
H56 H -0.5464 0.2582 -0.0149
C11 C -0.1755(8) 1.2562(16) 0.3504(4)
H57 H -0.1495 1.3040 0.3672
H58 H -0.1821 1.1853 0.3614
C12 C -0.1444(9) 1.2335(18) 0.3214(5)
H59 H -0.1148 1.1727 0.3278
H60 H -0.1219 1.3007 0.3172
C13 C -0.3506(12) 1.331(2) 0.2275(7)
H61 H -0.3794 1.2827 0.2123
H62 H -0.3435 1.3966 0.2141
C14 C -0.3779(12) 1.367(2) 0.2506(6)
H63 H -0.3960 1.4401 0.2437
H64 H -0.4112 1.3151 0.2519
C15 C -0.5366(5) 1.0514(16) 0.1184(5)
H65 H -0.5300 1.0635 0.1429
H66 H -0.5370 0.9702 0.1147
C16 C -0.4826(7) 1.0993(16) 0.1065(6)
H67 H -0.4833 1.0665 0.0842
H68 H -0.4462 1.0698 0.1218
O80 O -0.2149(8) 1.4784(14) 0.2698(3)
O65C O -0.0984(4) 1.2311(8) 0.6669(2)
O75C O -0.1551(4) 1.0401(7) 0.6513(2)
O64C O -0.1213(4) 0.8421(8) 0.6946(2)
O72C O -0.0630(4) 1.0448(7) 0.7028(2)
O57C O -0.6949(4) 0.7051(7) 0.0451(2)
O69C O -0.2243(4) 0.7431(8) 0.6685(2)
O59C O -0.2648(4) 0.7195(7) 0.5886(2)
O66C O -0.1523(4) 1.2080(7) 0.5586(2)
O78C O -0.1861(4) 1.0304(7) 0.58418(19)
O68C O -0.6467(4) 0.4929(7) 0.0244(2)
O10B O -0.5376(4) 0.9501(7) 0.5606(2)
N7B N -0.4668(5) 0.8417(10) 0.5000(3)
N8B N -0.5796(5) 0.9310(9) 0.4754(3)
O50B O -0.4587(4) 0.6243(8) -0.0482(2)
N9B N -0.4195(5) 0.5296(9) 0.0326(3)
N10B N -0.5275(5) 0.6478(10) 0.0172(3)
O77C O -0.7586(4) 0.5656(7) 0.1216(2)
W17C W -0.18259(2) 0.69873(4) 0.578934(14)
W19C W -0.82874(2) 0.66830(4) 0.082895(13)
W14C W -0.64139(3) 0.50743(5) 0.208413(14)
W12C W -0.68586(3) 0.27565(5) 0.161209(14)
W21C W -0.73633(2) 0.31083(4) 0.064938(13)
W22C W -0.10438(2) 1.06959(4) 0.562077(13)
W18C W -0.78787(3) 0.65324(5) 0.170611(14)
Si2C Si -0.18878(16) 0.9614(3) 0.61891(8)
loop_
_geom_bond_atom_site_label_1
_geom_bond_atom_site_label_2
_geom_bond_site_symmetry_1
_geom_bond_site_symmetry_2
W1 O1 1_555 1_555
W2 O2 1_555 1_555
W3 O3 1_555 1_555
W4 O4 1_555 1_555
W5 O5 1_555 1_555
W6 O6 1_555 1_555
W7 O7 1_555 1_555
W8 O8 1_555 1_555
W9 O9 1_555 1_555
W10 O10 1_555 1_555
W11 O11 1_555 1_555
W12 O40 1_555 1_555
W13 O41 1_555 1_555
W14 O42 1_555 1_555
W15 O43 1_555 1_555
W16 O44 1_555 1_555
W17 O45 1_555 1_555
W18 O46 1_555 1_555
W19 O47 1_555 1_555
W20 O48 1_555 1_555
W21 O49 1_555 1_555
W22 O50 1_555 1_555
Sm1 O18 1_555 1_555
Cu1 O10 1_555 1_555
Cu2 O50 1_555 1_555
Cu3 O9 1_555 1_555
Cu4 N1 1_555 1_555
N1 H1 1_555 1_555
H2 N1 1_555 1_555
N2 Cu4 1_555 1_555
H3 N2 1_555 1_555
H4 N2 1_555 1_555
C1 N1 1_555 1_555
H5 C1 1_555 1_555
H6 C1 1_555 1_555
C2 N2 1_555 1_555
H7 C2 1_555 1_555
H8 C2 1_555 1_555
N3 Cu4 1_555 1_555
H9 N3 1_555 1_555
H10 N3 1_555 1_555
N4 Cu4 1_555 1_555
H11 N4 1_555 1_555
H12 N4 1_555 1_555
C3 N3 1_555 1_555
H13 C3 1_555 1_555
H14 C3 1_555 1_555
C4 N4 1_555 1_555
H15 C4 1_555 1_555
H16 C4 1_555 1_555
N5 H17 1_555 1_555
H18 N5 1_555 1_555
N6 H19 1_555 1_555
H20 N6 1_555 1_555
C5 N5 1_555 1_555
H21 C5 1_555 1_555
H22 C5 1_555 1_555
C6 N6 1_555 1_555
H23 C6 1_555 1_555
H24 C6 1_555 1_555
Cu5 N6 1_555 1_555
Si1 O36 1_555 1_555
Si2 O75 1_555 1_555
O8 Cu4 1_555 1_555
O12 W1 1_555 1_555
O13 W6 1_555 1_555
O14 W1 1_555 1_555
O15 W1 1_555 1_555
O16 W10 1_555 1_555
O17 W2 1_555 1_555
O18 W10 1_555 1_555
O19 W3 1_555 1_555
O20 W1 1_555 1_555
O21 W4 1_555 1_555
O22 W9 1_555 1_555
O23 W7 1_555 1_555
O24 W8 1_555 1_555
O25 W11 1_555 1_555
O26 W2 1_555 1_555
O27 W7 1_555 1_555
O28 W4 1_555 1_555
O29 W3 1_555 1_555
O30 W2 1_555 1_555
O31 W5 1_555 1_555
O32 W8 1_555 1_555
O33 W6 1_555 1_555
O34 W4 1_555 1_555
O35 W5 1_555 1_555
O36 W1 1_555 1_555
O37 W4 1_555 1_555
O38 W7 1_555 1_555
O39 W10 1_555 1_555
O44 Cu4 1_555 1_555
O45 Cu5 1_555 1_555
O51 W12 1_555 1_555
O52 W13 1_555 1_555
O53 W13 1_555 1_555
O54 W16 1_555 1_555
O55 W19 1_555 1_555
O56 W15 1_555 1_555
O57 Sm1 1_555 1_555
O58 W15 1_555 1_555
O59 W17 1_555 1_555
O60 W12 1_555 1_555
O61 W14 1_555 1_555
O62 W19 1_555 1_555
O63 W21 1_555 1_555
O64 W16 1_555 1_555
O65 W13 1_555 1_555
O66 W22 1_555 1_555
O67 W18 1_555 1_555
O68 Sm1 1_555 1_555
O69 W16 1_555 1_555
O70 W20 1_555 1_555
O71 W15 1_555 1_555
O72 W13 1_555 1_555
O73 W12 1_555 1_555
O74 W18 1_555 1_555
O75 W13 1_555 1_555
O76 W15 1_555 1_555
O77 W18 1_555 1_555
O78 W22 1_555 1_555
N7 Cu1 1_555 1_555
H25 N7 1_555 1_555
H26 N7 1_555 1_555
N8 Cu1 1_555 1_555
H27 N8 1_555 1_555
H28 N8 1_555 1_555
N9 Cu2 1_555 1_555
H29 N9 1_555 1_555
H30 N9 1_555 1_555
N10 Cu2 1_555 1_555
H31 N10 1_555 1_555
H32 N10 1_555 1_555
N11 Cu3 1_555 1_555
H33 N11 1_555 1_555
H34 N11 1_555 1_555
N12 Cu3 1_555 1_555
H35 N12 1_555 1_555
H36 N12 1_555 1_555
N13 Cu3 1_555 1_555
H37 N13 1_555 1_555
H38 N13 1_555 1_555
N14 Cu3 1_555 1_555
H39 N14 1_555 1_555
H40 N14 1_555 1_555
N15 Cu5 1_555 1_555
H41 N15 1_555 1_555
H42 N15 1_555 1_555
N16 H43 1_555 1_555
H44 N16 1_555 1_555
N17 H45 1_555 1_555
H46 N17 1_555 1_555
N18 H47 1_555 1_555
H48 N18 1_555 1_555
C7 N7 1_555 1_555
H49 C7 1_555 1_555
H50 C7 1_555 1_555
C8 N8 1_555 1_555
H51 C8 1_555 1_555
H52 C8 1_555 1_555
C9 N9 1_555 1_555
H53 C9 1_555 1_555
H54 C9 1_555 1_555
C10 N10 1_555 1_555
H55 C10 1_555 1_555
H56 C10 1_555 1_555
C11 N11 1_555 1_555
H57 C11 1_555 1_555
H58 C11 1_555 1_555
C12 N12 1_555 1_555
H59 C12 1_555 1_555
H60 C12 1_555 1_555
C13 N13 1_555 1_555
H61 C13 1_555 1_555
H62 C13 1_555 1_555
C14 N14 1_555 1_555
H63 C14 1_555 1_555
H64 C14 1_555 1_555
C15 N15 1_555 1_555
H65 C15 1_555 1_555
H66 C15 1_555 1_555
C16 N16 1_555 1_555
H67 C16 1_555 1_555
H68 C16 1_555 1_555
C17 N17 1_555 1_555
H69 C17 1_555 1_555
H70 C17 1_555 1_555
C18 N18 1_555 1_555
H71 C18 1_555 1_555
H72 C18 1_555 1_555
O80 Cu3 1_555 1_555
O65C W12 1_555 1_555
O75C W12 1_555 1_555
O64C W14 1_555 1_555
O72C W14 1_555 1_555
O57C W17 1_555 1_555
O69C W18 1_555 1_555
O59C W19 1_555 1_555
O66C W21 1_555 1_555
O78C W21 1_555 1_555
O68C W22 1_555 1_555
O10B Cu1 1_555 1_555
N7B Cu1 1_555 1_555
N8B Cu1 1_555 1_555
O50B Cu2 1_555 1_555
N9B Cu2 1_555 1_555
N10B Cu2 1_555 1_555
O77C Si2 1_555 1_555
W17C O57 1_555 1_555
W19C O59 1_555 1_555
W14C O64 1_555 1_555
W12C O65 1_555 1_555
W21C O66 1_555 1_555
W22C O68 1_555 1_555
W18C O69 1_555 1_555
Si2C O77 1_555 1_555
W2 O12 1_555 1_555
W2 O36 1_555 1_555
W3 O15 1_555 1_555
W3 O26 1_555 1_555
W3 O36 1_555 1_555
W4 O17 1_555 1_555
W5 O19 1_555 1_555
W5 O28 1_555 1_555
W5 O37 1_555 1_555
W6 O31 1_555 1_555
W6 O34 1_555 1_555
W6 O37 1_555 1_555
W7 O29 1_555 1_555
W7 O35 1_555 1_555
W8 O13 1_555 1_555
W8 O27 1_555 1_555
W8 O38 1_555 1_555
W9 O20 1_555 1_555
W9 O23 1_555 1_555
W9 O32 1_555 1_555
W9 O38 1_555 1_555
W10 O24 1_555 1_555
W10 O33 1_555 1_555
W11 O14 1_555 1_555
W11 O16 1_555 1_555
W11 O22 1_555 1_555
W11 O39 1_555 1_555
W14 O51 1_555 1_555
W14 O75C 1_555 1_555
W15 O53 1_555 1_555
W16 O71 1_555 1_555
W16 O76 1_555 1_555
W17 O54 1_555 1_555
W17 O58 1_555 1_555
W17 O76 1_555 1_555
W18 O61 1_555 1_555
W19 O67 1_555 1_555
W19 O77 1_555 1_555
W20 O60 1_555 1_555
W20 O62 1_555 1_555
W20 O74 1_555 1_555
W20 O77 1_555 1_555
W21 O70 1_555 1_555
W21 O73 1_555 1_555
W22 O52 1_555 1_555
W22 O56 1_555 1_555
Sm1 O21 1_555 1_555
Sm1 O25 1_555 1_555
Sm1 O30 1_555 1_555
Sm1 O55 1_555 1_555
Sm1 O63 1_555 1_555
C1 C2 1_555 1_555
C3 C4 1_555 1_555
C5 C6 1_555 1_555
Si1 O37 1_555 1_555
Si1 O38 1_555 1_555
Si1 O39 1_555 1_555
Si2 O76 1_555 1_555
Si2 O78 1_555 1_555
O72 W14C 1_555 1_555
O75 W12C 1_555 1_555
O75 W14C 1_555 1_555
O78 W21C 1_555 1_555
C7 C8 1_555 1_555
C9 C10 1_555 1_555
C11 C12 1_555 1_555
C13 C14 1_555 1_555
C15 C16 1_555 1_555
C17 C18 1_555 1_555
O75C Si2C 1_555 1_555
O59C W17C 1_555 1_555
O66C W22C 1_555 1_555
O78C W22C 1_555 1_555
O78C Si2C 1_555 1_555
O77C W18C 1_555 1_555
O77C W19C 1_555 1_555

#END
