
#######################################################################
#
#                 Cambridge Crystallographic Data Centre
#                                CCDC 
#
#######################################################################
#
# If this CIF has been generated from an entry in the Cambridge 
# Structural Database, then it will include bibliographic, chemical, 
# crystal, experimental, refinement or atomic coordinate data resulting 
# from the CCDC's data processing and validation procedures.
#
#######################################################################

data_DAWYIL
_symmetry_cell_setting           monoclinic
_symmetry_space_group_name_H-M   'P 21/n'
_symmetry_Int_Tables_number      14
_space_group_name_Hall           '-P 2yn'
loop_
_symmetry_equiv_pos_site_id
_symmetry_equiv_pos_as_xyz
1 x,y,z
2 1/2-x,1/2+y,1/2-z
3 -x,-y,-z
4 1/2+x,1/2-y,1/2+z
_cell_length_a                   7.7864(7)
_cell_length_b                   18.8075(17)
_cell_length_c                   28.265(3)
_cell_angle_alpha                90
_cell_angle_beta                 94.465(4)
_cell_angle_gamma                90
_cell_volume                     4126.64
loop_
_atom_site_label
_atom_site_type_symbol
_atom_site_fract_x
_atom_site_fract_y
_atom_site_fract_z
Ag1 Ag 0.33745(4) -0.387560(18) 0.352030(12)
Ag2 Ag 0.83964(4) -0.265690(18) 0.355370(13)
S1 S 0.40674(14) -0.50662(6) 0.39567(4)
S2 S -0.00003(13) -0.37691(6) 0.35261(4)
S3 S 0.92158(14) -0.15504(6) 0.40511(4)
S4 S 0.50384(13) -0.27609(6) 0.35726(4)
N1 N 0.2501(4) -0.46897(19) 0.29206(13)
H1 H 0.2622 -0.4467 0.2623
N2 N 0.7567(5) -0.17952(19) 0.29969(13)
H2 H 0.7685 -0.1987 0.2690
C1 C 0.1638(5) -0.4716(2) 0.45804(15)
C2 C 0.2184(6) -0.5314(2) 0.42747(16)
H3 H 0.1237 -0.5441 0.4047
H4 H 0.2463 -0.5727 0.4471
C3 C 0.3792(6) -0.5666(2) 0.34470(16)
H5 H 0.4743 -0.6001 0.3464
H6 H 0.2740 -0.5937 0.3469
C4 C 0.3708(6) -0.5293(3) 0.29637(17)
H7 H 0.4851 -0.5124 0.2907
H8 H 0.3372 -0.5638 0.2719
C5 C 0.0693(6) -0.4905(2) 0.29347(16)
H9 H 0.0591 -0.5222 0.3201
H10 H 0.0337 -0.5164 0.2647
C6 C -0.0494(6) -0.4273(3) 0.29805(15)
H11 H -0.1674 -0.4441 0.2972
H12 H -0.0404 -0.3961 0.2711
C7 C -0.0814(5) -0.4351(2) 0.39782(15)
H13 H -0.2003 -0.4233 0.4022
H14 H -0.0770 -0.4843 0.3875
C8 C 0.0263(5) -0.4262(2) 0.44389(15)
C9 C -0.0147(6) -0.3710(2) 0.47435(16)
H15 H -0.1041 -0.3401 0.4649
C10 C 0.0743(6) -0.3612(2) 0.51826(16)
H16 H 0.0469 -0.3236 0.5376
C11 C 0.2047(6) -0.4082(3) 0.53294(16)
H17 H 0.2627 -0.4033 0.5628
C12 C 0.2485(5) -0.4626(2) 0.50310(15)
H18 H 0.3364 -0.4939 0.5133
C13 C 0.6807(6) -0.1953(2) 0.46786(15)
C14 C 0.7441(6) -0.1320(2) 0.44169(17)
H19 H 0.7832 -0.0957 0.4645
H20 H 0.6495 -0.1123 0.4215
C15 C 0.8906(6) -0.0892(2) 0.35748(17)
H21 H 0.7854 -0.0630 0.3616
H22 H 0.9853 -0.0556 0.3606
C16 C 0.8799(6) -0.1203(3) 0.30738(17)
H23 H 0.8474 -0.0827 0.2849
H24 H 0.9934 -0.1369 0.3007
C17 C 0.5765(6) -0.1578(2) 0.30237(16)
H25 H 0.5406 -0.1294 0.2747
H26 H 0.5679 -0.1283 0.3302
C18 C 0.4558(6) -0.2209(2) 0.30487(15)
H27 H 0.4632 -0.2499 0.2767
H28 H 0.3384 -0.2036 0.3049
C19 C 0.4337(6) -0.2195(2) 0.40507(15)
H29 H 0.4482 -0.1699 0.3969
H30 H 0.3125 -0.2277 0.4088
C20 C 0.5374(6) -0.2357(2) 0.45104(15)
C21 C 0.4832(6) -0.2918(2) 0.47840(17)
H31 H 0.3894 -0.3193 0.4671
C22 C 0.5672(6) -0.3072(3) 0.52205(17)
H32 H 0.5293 -0.3447 0.5400
C23 C 0.7068(6) -0.2672(3) 0.53900(17)
H33 H 0.7630 -0.2776 0.5684
C24 C 0.7632(6) -0.2117(3) 0.51221(16)
H34 H 0.8575 -0.1849 0.5238
Ag2_2 Ag -0.16036(4) -0.265690(18) 0.355370(13)
S2_2 S 0.99997(13) -0.37691(6) 0.35261(4)
Cl1 Cl 0.65585(14) -0.16657(6) 0.16202(4)
O1 O 0.6193(6) -0.2152(2) 0.19860(14)
O2 O 0.7227(6) -0.1020(2) 0.1831(2)
O3 O 0.7799(5) -0.1965(2) 0.13299(14)
O4 O 0.5007(5) -0.1515(3) 0.13395(14)
Cl2 Cl 0.35215(14) 0.01134(6) 0.34792(4)
O5 O 0.2334(6) 0.0483(3) 0.37442(18)
O6 O 0.4933(6) -0.0130(3) 0.37815(17)
O7 O 0.4159(7) 0.0578(3) 0.31332(16)
O8 O 0.2733(6) -0.0488(3) 0.32306(18)
Cl3 Cl 0.07913(17) -0.04922(7) 0.55203(5)
Cl4 Cl 0.3152(2) -0.05906(9) 0.47836(5)
Cl5 Cl 0.3122(3) -0.16715(10) 0.55123(7)
C29 C 0.2851(7) -0.0772(3) 0.53820(19)
H41 H 0.3712 -0.0504 0.5580
N3 N 0.0457(7) -0.1221(3) 0.7534(2)
C25 C 0.0945(7) -0.1209(3) 0.7169(2)
C26 C 0.1583(9) -0.1196(4) 0.6701(2)
H35 H 0.2510 -0.1531 0.6689
H36 H 0.1992 -0.0728 0.6635
H37 H 0.0669 -0.1322 0.6468
N4 N 0.0614(7) -0.2660(3) 0.2515(2)
C27 C 0.1056(7) -0.2691(3) 0.2145(2)
C28 C 0.1656(8) -0.2727(3) 0.1674(2)
H38 H 0.2490 -0.2359 0.1638
H39 H 0.0700 -0.2664 0.1442
H40 H 0.2177 -0.3182 0.1629
loop_
_geom_bond_atom_site_label_1
_geom_bond_atom_site_label_2
_geom_bond_site_symmetry_1
_geom_bond_site_symmetry_2
Ag1 S1 1_555 1_555
Ag2 S3 1_555 1_555
Cl1 O1 1_555 1_555
Cl2 O5 1_555 1_555
Cl3 C29 1_555 1_555
Cl4 C29 1_555 1_555
Cl5 C29 1_555 1_555
O2 Cl1 1_555 1_555
O3 Cl1 1_555 1_555
O4 Cl1 1_555 1_555
O6 Cl2 1_555 1_555
O7 Cl2 1_555 1_555
O8 Cl2 1_555 1_555
S1 C2 1_555 1_555
S2 Ag1 1_555 1_555
S3 C14 1_555 1_555
S4 Ag1 1_555 1_555
N1 Ag1 1_555 1_555
H1 N1 1_555 1_555
N2 Ag2 1_555 1_555
H2 N2 1_555 1_555
N3 C25 1_555 1_555
N4 C27 1_555 1_555
C1 C2 1_555 1_555
C2 H3 1_555 1_555
H4 C2 1_555 1_555
C3 S1 1_555 1_555
H5 C3 1_555 1_555
H6 C3 1_555 1_555
C4 N1 1_555 1_555
H7 C4 1_555 1_555
H8 C4 1_555 1_555
C5 N1 1_555 1_555
H9 C5 1_555 1_555
H10 C5 1_555 1_555
C6 S2 1_555 1_555
H11 C6 1_555 1_555
H12 C6 1_555 1_555
C7 S2 1_555 1_555
H13 C7 1_555 1_555
H14 C7 1_555 1_555
C8 C1 1_555 1_555
C9 C8 1_555 1_555
H15 C9 1_555 1_555
C10 C9 1_555 1_555
H16 C10 1_555 1_555
C11 C10 1_555 1_555
H17 C11 1_555 1_555
C12 C1 1_555 1_555
H18 C12 1_555 1_555
C13 C14 1_555 1_555
C14 H19 1_555 1_555
H20 C14 1_555 1_555
C15 S3 1_555 1_555
H21 C15 1_555 1_555
H22 C15 1_555 1_555
C16 N2 1_555 1_555
H23 C16 1_555 1_555
H24 C16 1_555 1_555
C17 N2 1_555 1_555
H25 C17 1_555 1_555
H26 C17 1_555 1_555
C18 S4 1_555 1_555
H27 C18 1_555 1_555
H28 C18 1_555 1_555
C19 S4 1_555 1_555
H29 C19 1_555 1_555
H30 C19 1_555 1_555
C20 C13 1_555 1_555
C21 C20 1_555 1_555
H31 C21 1_555 1_555
C22 C21 1_555 1_555
H32 C22 1_555 1_555
C23 C22 1_555 1_555
H33 C23 1_555 1_555
C24 C13 1_555 1_555
H34 C24 1_555 1_555
C25 C26 1_555 1_555
C26 H35 1_555 1_555
H36 C26 1_555 1_555
H37 C26 1_555 1_555
C27 C28 1_555 1_555
C28 H38 1_555 1_555
H39 C28 1_555 1_555
H40 C28 1_555 1_555
C29 H41 1_555 1_555
Ag2_2 S2 1_555 1_555
S2_2 Ag2 1_555 1_555
Ag2 S4 1_555 1_555
C3 C4 1_555 1_555
C5 C6 1_555 1_555
C7 C8 1_555 1_555
C11 C12 1_555 1_555
C15 C16 1_555 1_555
C17 C18 1_555 1_555
C19 C20 1_555 1_555
C23 C24 1_555 1_555

#END
