
#######################################################################
#
#                 Cambridge Crystallographic Data Centre
#                                CCDC 
#
#######################################################################
#
# If this CIF has been generated from an entry in the Cambridge 
# Structural Database, then it will include bibliographic, chemical, 
# crystal, experimental, refinement or atomic coordinate data resulting 
# from the CCDC's data processing and validation procedures.
#
#######################################################################

data_DAWYUX
_symmetry_cell_setting           monoclinic
_symmetry_space_group_name_H-M   'P 21/n'
_symmetry_Int_Tables_number      14
_space_group_name_Hall           '-P 2yn'
loop_
_symmetry_equiv_pos_site_id
_symmetry_equiv_pos_as_xyz
1 x,y,z
2 1/2-x,1/2+y,1/2-z
3 -x,-y,-z
4 1/2+x,1/2-y,1/2+z
_cell_length_a                   10.3356(4)
_cell_length_b                   14.5288(6)
_cell_length_c                   31.3260(12)
_cell_angle_alpha                90
_cell_angle_beta                 91.665(1)
_cell_angle_gamma                90
_cell_volume                     4702.05
loop_
_atom_site_label
_atom_site_type_symbol
_atom_site_fract_x
_atom_site_fract_y
_atom_site_fract_z
Ag1 Ag 0.21414(3) 0.23131(3) 0.182926(11)
Ag2 Ag -0.29907(3) 0.09036(2) 0.057291(11)
Ag3 Ag -0.38992(3) -0.33275(2) 0.127500(12)
S1 S 0.45476(10) 0.29744(7) 0.18547(3)
S2 S 0.06139(10) 0.24294(8) 0.33432(4)
S3 S -0.41443(10) 0.19844(8) 0.00253(3)
S4 S 0.05700(10) 0.28460(7) 0.13000(3)
S5 S -0.17566(10) -0.05233(7) 0.06162(3)
S6 S -0.23601(12) -0.47101(7) 0.11906(4)
N1 N 0.2851(3) 0.1458(2) 0.23848(10)
H1 H 0.2527 0.0852 0.2341
N2 N -0.3193(3) 0.2133(2) 0.10289(11)
H2 H -0.3468 0.1895 0.1294
N3 N -0.3417(3) -0.3076(2) 0.05655(11)
H3 H -0.4213 -0.2929 0.0422
C1 C 0.1998(4) 0.4205(3) 0.21593(14)
H4 H 0.1849 0.4293 0.1861
C2 C 0.0963(4) 0.4036(3) 0.24236(15)
H5 H 0.0113 0.3987 0.2302
C3 C 0.1151(4) 0.3939(3) 0.28606(14)
C4 C 0.2378(4) 0.4103(3) 0.30368(14)
H6 H 0.2504 0.4118 0.3338
C5 C 0.3417(4) 0.4244(3) 0.27772(13)
H7 H 0.4254 0.4343 0.2902
C6 C 0.3252(4) 0.4243(3) 0.23342(13)
C7 C 0.4387(4) 0.4164(3) 0.20463(14)
H8 H 0.5189 0.4349 0.2204
H9 H 0.4263 0.4584 0.1800
C8 C 0.4930(4) 0.2353(3) 0.23486(13)
H10 H 0.5880 0.2277 0.2380
H11 H 0.4638 0.2720 0.2594
C9 C 0.4286(4) 0.1409(3) 0.23565(13)
H12 H 0.4505 0.1070 0.2094
H13 H 0.4642 0.1058 0.2604
C10 C 0.2467(4) 0.1751(3) 0.28176(13)
H14 H 0.2845 0.2363 0.2882
H15 H 0.2824 0.1311 0.3032
C11 C 0.0998(4) 0.1801(3) 0.28571(14)
H16 H 0.0633 0.1172 0.2869
H17 H 0.0609 0.2119 0.2605
C12 C 0.0102(4) 0.3554(3) 0.31320(16)
H18 H -0.0709 0.3486 0.2959
H19 H -0.0065 0.3980 0.3371
C13 C -0.0956(4) 0.1590(3) -0.00061(12)
H20 H -0.1218 0.1004 -0.0112
C14 C 0.0074(4) 0.1652(3) 0.02840(13)
H21 H 0.0501 0.1110 0.0382
C15 C 0.0484(4) 0.2506(3) 0.04311(13)
C16 C -0.0068(4) 0.3298(3) 0.02573(13)
H22 H 0.0264 0.3885 0.0336
C17 C -0.1102(4) 0.3231(3) -0.00312(13)
H23 H -0.1469 0.3773 -0.0153
C18 C -0.1611(4) 0.2372(3) -0.01443(12)
C19 C -0.2913(4) 0.2291(3) -0.03635(13)
H24 H -0.2884 0.1812 -0.0588
H25 H -0.3145 0.2883 -0.0502
C20 C -0.4104(4) 0.2986(3) 0.03844(13)
H26 H -0.3269 0.3311 0.0357
H27 H -0.4806 0.3417 0.0298
C21 C -0.4268(4) 0.2706(3) 0.08502(13)
H28 H -0.4340 0.3269 0.1026
H29 H -0.5088 0.2359 0.0872
C22 C -0.2023(4) 0.2694(3) 0.11207(14)
H30 H -0.2222 0.3160 0.1340
H31 H -0.1788 0.3026 0.0858
C23 C -0.0875(4) 0.2126(3) 0.12770(14)
H32 H -0.0744 0.1602 0.1081
H33 H -0.1042 0.1876 0.1564
C24 C 0.1420(4) 0.2563(3) 0.08071(14)
H34 H 0.2077 0.3041 0.0753
H35 H 0.1872 0.1967 0.0844
C25 C 0.0247(4) -0.2029(3) 0.11493(13)
H36 H 0.0905 -0.1772 0.0980
C26 C 0.0243(4) -0.2966(3) 0.12311(13)
H37 H 0.0890 -0.3347 0.1114
C27 C -0.0701(4) -0.3357(3) 0.14838(13)
C28 C -0.1541(4) -0.2763(3) 0.16948(13)
H38 H -0.2113 -0.3003 0.1899
C29 C -0.1540(4) -0.1827(3) 0.16064(13)
H39 H -0.2120 -0.1432 0.1749
C30 C -0.0699(4) -0.1460(3) 0.13118(12)
C31 C -0.0918(4) -0.0507(3) 0.11439(13)
H40 H -0.0075 -0.0190 0.1120
H41 H -0.1444 -0.0155 0.1347
C32 C -0.2974(4) -0.1418(3) 0.06609(13)
H42 H -0.3170 -0.1510 0.0965
H43 H -0.3781 -0.1222 0.0509
C33 C -0.2515(4) -0.2321(3) 0.04735(13)
H44 H -0.2443 -0.2255 0.0161
H45 H -0.1646 -0.2471 0.0595
C34 C -0.2994(4) -0.3971(3) 0.03895(15)
H46 H -0.2711 -0.3877 0.0094
H47 H -0.3740 -0.4399 0.0379
C35 C -0.1896(4) -0.4407(3) 0.06507(14)
H48 H -0.1158 -0.3973 0.0668
H49 H -0.1604 -0.4969 0.0503
C36 C -0.0900(5) -0.4371(3) 0.15071(15)
H50 H -0.0997 -0.4557 0.1809
H51 H -0.0134 -0.4691 0.1396
Ag3A Ag -0.11008(3) 0.16725(2) 0.372500(12)
S2A S -0.56139(10) -0.25706(8) 0.16568(4)
Cl1 Cl 0.78729(12) 0.07639(10) 0.22331(4)
O1 O 0.7389(6) 0.0269(6) 0.25662(18)
O2 O 0.7000(3) 0.0767(3) 0.18750(12)
O3 O 0.9115(3) 0.0454(3) 0.21112(12)
O4 O 0.8048(4) 0.1720(4) 0.23705(16)
Cl2 Cl 0.31626(10) 0.50963(7) 0.08620(3)
O5 O 0.3635(4) 0.4200(2) 0.09625(14)
O6 O 0.1845(4) 0.5050(3) 0.07307(15)
O7 O 0.3844(5) 0.5482(4) 0.05230(19)
O8 O 0.3267(6) 0.5670(3) 0.12176(16)
Cl3 Cl -0.64989(11) 0.03365(8) 0.08670(4)
O9 O -0.6468(6) 0.0886(4) 0.04899(16)
O10 O -0.7691(4) -0.0122(3) 0.08469(15)
O11 O -0.5513(6) -0.0314(5) 0.0886(2)
O12 O -0.6448(5) 0.0910(3) 0.12364(14)
loop_
_geom_bond_atom_site_label_1
_geom_bond_atom_site_label_2
_geom_bond_site_symmetry_1
_geom_bond_site_symmetry_2
Ag1 S1 1_555 1_555
Ag2 S3 1_555 1_555
Ag3 S6 1_555 1_555
Cl1 O1 1_555 1_555
Cl2 O5 1_555 1_555
Cl3 O9 1_555 1_555
O2 Cl1 1_555 1_555
O3 Cl1 1_555 1_555
O4 Cl1 1_555 1_555
O6 Cl2 1_555 1_555
O7 Cl2 1_555 1_555
O8 Cl2 1_555 1_555
O10 Cl3 1_555 1_555
O11 Cl3 1_555 1_555
O12 Cl3 1_555 1_555
S1 C7 1_555 1_555
S2 C11 1_555 1_555
S3 C19 1_555 1_555
S4 Ag1 1_555 1_555
S5 Ag2 1_555 1_555
S6 C35 1_555 1_555
N1 Ag1 1_555 1_555
H1 N1 1_555 1_555
N2 Ag2 1_555 1_555
H2 N2 1_555 1_555
N3 Ag3 1_555 1_555
H3 N3 1_555 1_555
C1 H4 1_555 1_555
C2 C1 1_555 1_555
H5 C2 1_555 1_555
C3 C2 1_555 1_555
C4 C3 1_555 1_555
H6 C4 1_555 1_555
C5 C4 1_555 1_555
H7 C5 1_555 1_555
C6 C1 1_555 1_555
C7 C6 1_555 1_555
H8 C7 1_555 1_555
H9 C7 1_555 1_555
C8 S1 1_555 1_555
H10 C8 1_555 1_555
H11 C8 1_555 1_555
C9 N1 1_555 1_555
H12 C9 1_555 1_555
H13 C9 1_555 1_555
C10 N1 1_555 1_555
H14 C10 1_555 1_555
H15 C10 1_555 1_555
C11 C10 1_555 1_555
H16 C11 1_555 1_555
H17 C11 1_555 1_555
C12 S2 1_555 1_555
H18 C12 1_555 1_555
H19 C12 1_555 1_555
C13 H20 1_555 1_555
C14 C13 1_555 1_555
H21 C14 1_555 1_555
C15 C14 1_555 1_555
C16 C15 1_555 1_555
H22 C16 1_555 1_555
C17 C16 1_555 1_555
H23 C17 1_555 1_555
C18 C13 1_555 1_555
C19 C18 1_555 1_555
H24 C19 1_555 1_555
H25 C19 1_555 1_555
C20 S3 1_555 1_555
H26 C20 1_555 1_555
H27 C20 1_555 1_555
C21 N2 1_555 1_555
H28 C21 1_555 1_555
H29 C21 1_555 1_555
C22 N2 1_555 1_555
H30 C22 1_555 1_555
H31 C22 1_555 1_555
C23 S4 1_555 1_555
H32 C23 1_555 1_555
H33 C23 1_555 1_555
C24 S4 1_555 1_555
H34 C24 1_555 1_555
H35 C24 1_555 1_555
C25 H36 1_555 1_555
C26 C25 1_555 1_555
H37 C26 1_555 1_555
C27 C26 1_555 1_555
C28 C27 1_555 1_555
H38 C28 1_555 1_555
C29 C28 1_555 1_555
H39 C29 1_555 1_555
C30 C25 1_555 1_555
C31 S5 1_555 1_555
H40 C31 1_555 1_555
H41 C31 1_555 1_555
C32 S5 1_555 1_555
H42 C32 1_555 1_555
H43 C32 1_555 1_555
C33 N3 1_555 1_555
H44 C33 1_555 1_555
H45 C33 1_555 1_555
C34 N3 1_555 1_555
H46 C34 1_555 1_555
H47 C34 1_555 1_555
C35 C34 1_555 1_555
H48 C35 1_555 1_555
H49 C35 1_555 1_555
C36 S6 1_555 1_555
H50 C36 1_555 1_555
H51 C36 1_555 1_555
Ag3A S2 1_555 1_555
S2A Ag3 1_555 1_555
C3 C12 1_555 1_555
C5 C6 1_555 1_555
C8 C9 1_555 1_555
C15 C24 1_555 1_555
C17 C18 1_555 1_555
C20 C21 1_555 1_555
C22 C23 1_555 1_555
C27 C36 1_555 1_555
C29 C30 1_555 1_555
C30 C31 1_555 1_555
C32 C33 1_555 1_555

#END
