
#######################################################################
#
#                 Cambridge Crystallographic Data Centre
#                                CCDC 
#
#######################################################################
#
# If this CIF has been generated from an entry in the Cambridge 
# Structural Database, then it will include bibliographic, chemical, 
# crystal, experimental, refinement or atomic coordinate data resulting 
# from the CCDC's data processing and validation procedures.
#
#######################################################################

data_DAXFAL
_symmetry_cell_setting           triclinic
_symmetry_space_group_name_H-M   'P -1'
_symmetry_Int_Tables_number      2
_space_group_name_Hall           '-P 1'
loop_
_symmetry_equiv_pos_site_id
_symmetry_equiv_pos_as_xyz
1 x,y,z
2 -x,-y,-z
_cell_length_a                   14.4608(5)
_cell_length_b                   15.5768(6)
_cell_length_c                   16.2543(7)
_cell_angle_alpha                77.430(3)
_cell_angle_beta                 87.842(3)
_cell_angle_gamma                66.798(4)
_cell_volume                     3279.82
loop_
_atom_site_label
_atom_site_type_symbol
_atom_site_fract_x
_atom_site_fract_y
_atom_site_fract_z
Ag1 Ag 0.66137(3) 0.36141(3) 0.49875(3)
Ag2 Ag 0.71672(4) 0.12159(4) 0.52273(3)
Ag3 Ag 1.06689(3) 0.12414(4) 0.14523(3)
Ag4 Ag 1.00271(4) 0.38013(4) 1.11731(3)
N1 N 0.7183(3) 0.3744(3) 0.6175(3)
N2 N 0.9317(3) 0.3953(4) 0.9951(3)
N3 N 0.5409(3) 0.3456(3) 0.4317(2)
N4 N 0.1472(3) 0.3506(3) 0.1823(3)
N5 N 0.7788(4) 0.1230(3) 0.6453(3)
N6 N 0.9971(3) 0.1298(3) 1.0255(3)
N7 N 0.5992(3) 0.0957(3) 0.4631(3)
N8 N 0.1970(3) 0.0945(4) 0.2265(3)
O1 O 0.9425(3) 0.1308(3) 0.4377(3)
O2 O 0.7819(3) 0.2315(3) 0.4342(2)
O3 O 0.8490(4) 0.6123(3) 0.2607(3)
O4 O 0.8626(3) 0.5123(3) 0.1789(3)
O5 O 0.9717(3) 0.2602(3) 0.2223(2)
O6 O 0.8985(3) 0.1620(3) 0.2127(3)
O7 O 0.6901(3) 0.4992(3) 0.4103(2)
O8 O 0.5864(3) 0.6098(3) 0.3068(3)
C1 C 0.9060(3) 0.2965(4) 0.4063(3)
C2 C 0.9813(4) 0.2932(5) 0.4591(3)
H29 H 1.0123 0.2390 0.5017
C3 C 1.0113(4) 0.3683(5) 0.4498(4)
H30 H 1.0590 0.3668 0.4875
C4 C 0.9696(4) 0.4445(5) 0.3844(4)
H31 H 0.9896 0.4953 0.3781
C5 C 0.8964(4) 0.4499(4) 0.3248(3)
C6 C 0.8622(3) 0.3763(4) 0.3393(3)
C7 C 0.8649(4) 0.5305(5) 0.2490(4)
C8 C 0.8742(4) 0.2134(4) 0.4271(3)
C9 C 0.7780(3) 0.3837(3) 0.2824(3)
C10 C 0.7934(3) 0.3183(3) 0.2303(3)
C11 C 0.7147(4) 0.3280(4) 0.1776(3)
H32 H 0.7250 0.2827 0.1455
C12 C 0.6226(4) 0.4023(4) 0.1717(3)
H33 H 0.5716 0.4093 0.1344
C13 C 0.6072(4) 0.4669(4) 0.2224(3)
H34 H 0.5449 0.5179 0.2184
C14 C 0.6812(3) 0.4581(3) 0.2787(3)
C15 C 0.6519(4) 0.5277(4) 0.3370(3)
C16 C 0.8949(4) 0.2407(4) 0.2227(3)
C17 C 0.6656(4) 0.3886(4) 0.6849(3)
H35 H 0.5993 0.3938 0.6824
C18 C 0.7029(4) 0.3960(4) 0.7588(3)
H36 H 0.6617 0.4077 0.8039
C19 C 0.8016(4) 0.3860(4) 0.7656(3)
C20 C 0.8558(4) 0.3726(5) 0.6945(4)
H37 H 0.9223 0.3669 0.6949
C21 C 0.8122(5) 0.3677(5) 0.6236(4)
H38 H 0.8507 0.3592 0.5766
C22 C 0.8463(4) 0.3899(4) 0.8453(3)
C23 C 0.7991(4) 0.3843(5) 0.9208(3)
H39 H 0.7376 0.3782 0.9226
C24 C 0.8426(5) 0.3878(5) 0.9925(3)
H40 H 0.8086 0.3848 1.0421
C25 C 0.9772(4) 0.3997(4) 0.9222(3)
H41 H 1.0397 0.4036 0.9221
C26 C 0.9377(4) 0.3989(4) 0.8483(3)
H42 H 0.9721 0.4043 0.7993
C27 C 0.4455(4) 0.3788(4) 0.4541(3)
H43 H 0.4310 0.4022 0.5030
C28 C 0.3669(4) 0.3794(4) 0.4065(3)
H44 H 0.3015 0.4023 0.4243
C29 C 0.3863(3) 0.3459(3) 0.3324(3)
C30 C 0.4863(4) 0.3111(4) 0.3107(3)
H45 H 0.5031 0.2883 0.2615
C31 C 0.5598(4) 0.3105(4) 0.3617(3)
H46 H 0.6264 0.2843 0.3471
C32 C 0.3048(4) 0.3467(3) 0.2808(3)
C33 C 0.2210(4) 0.3335(4) 0.3175(3)
H47 H 0.2155 0.3247 0.3756
C34 C 0.1465(4) 0.3338(4) 0.2668(3)
H48 H 0.0930 0.3218 0.2926
C35 C 0.2277(4) 0.3631(4) 0.1475(3)
H49 H 0.2306 0.3732 0.0891
C36 C 0.3061(4) 0.3618(4) 0.1933(3)
H50 H 0.3602 0.3710 0.1659
C37 C 0.7214(4) 0.1487(4) 0.7094(4)
H51 H 0.6522 0.1667 0.7028
C38 C 0.7611(4) 0.1496(4) 0.7850(3)
H52 H 0.7183 0.1689 0.8276
C39 C 0.8642(4) 0.1221(4) 0.7981(3)
C40 C 0.9233(4) 0.0921(5) 0.7322(4)
H53 H 0.9930 0.0701 0.7383
C41 C 0.8787(5) 0.0950(5) 0.6578(4)
H54 H 0.9197 0.0767 0.6140
C42 C 0.9093(4) 0.1247(4) 0.8769(3)
C43 C 0.8653(4) 0.1146(5) 0.9533(4)
H55 H 0.8054 0.1054 0.9565
C44 C 0.9103(4) 0.1182(5) 1.0241(4)
H56 H 0.8785 0.1121 1.0745
C45 C 1.0383(5) 0.1406(5) 0.9522(4)
H57 H 1.0980 0.1499 0.9511
C46 C 0.9983(4) 0.1390(5) 0.8774(4)
H58 H 1.0306 0.1473 0.8275
C47 C 0.5044(4) 0.1275(4) 0.4875(3)
H59 H 0.4910 0.1539 0.5350
C48 C 0.4257(4) 0.1231(4) 0.4455(3)
H60 H 0.3611 0.1465 0.4649
C49 C 0.4421(4) 0.0841(4) 0.3752(3)
C50 C 0.5414(4) 0.0490(4) 0.3510(4)
H61 H 0.5572 0.0203 0.3049
C51 C 0.6156(4) 0.0567(4) 0.3951(4)
H62 H 0.6809 0.0336 0.3770
C52 C 0.3590(4) 0.0826(4) 0.3254(3)
C53 C 0.2653(4) 0.0944(4) 0.3582(3)
H63 H 0.2554 0.0977 0.4144
C54 C 0.1872(4) 0.1010(4) 0.3075(4)
H64 H 0.1251 0.1105 0.3305
C55 C 0.2872(5) 0.0802(5) 0.1966(4)
H65 H 0.2966 0.0738 0.1410
C56 C 0.3678(4) 0.0744(5) 0.2433(4)
H66 H 0.4291 0.0648 0.2185
Ag3_2 Ag 1.06689(3) 0.12414(4) 1.14523(3)
Ag3_3 Ag 0.06689(3) 0.12414(4) 0.14523(3)
Ag4_2 Ag 0.00271(4) 0.38013(4) 0.11731(3)
Ag4_3 Ag 1.00271(4) 0.38013(4) 0.11731(3)
N4_2 N 1.1472(3) 0.3506(3) 1.1823(3)
N6_2 N 0.9971(3) 0.1298(3) 0.0255(3)
N8_2 N 1.1970(3) 0.0945(4) 0.2265(3)
O5_2 O 0.9717(3) 0.2602(3) 1.2223(2)
O9 O 0.1506(7) 0.1121(10) 0.6658(8)
H1 H 0.1435 0.0899 0.6335
H2 H 0.1691 0.0963 0.7179
O10 O 0.7789(11) 0.7820(11) 0.1541(10)
H3 H 0.8015 0.7277 0.1885
H4 H 0.7888 0.8179 0.1691
O11 O 0.7075(6) 0.6162(7) 0.0603(4)
H5 H 0.6715 0.5958 0.0367
H6 H 0.7556 0.5839 0.0973
O12 O 0.5254(6) 0.7063(5) 0.1472(4)
H7 H 0.5451 0.6759 0.1977
H8 H 0.5789 0.6797 0.1215
O13 O 0.4133(5) 0.6607(7) 0.0362(5)
H9 H 0.4427 0.6719 0.0664
H10 H 0.3951 0.6963 -0.0051
O14 O 0.7621(8) 0.0778(8) 0.2174(7)
H11 H 0.8040 0.1038 0.1965
H12 H 0.7431 0.0648 0.1711
O15 O 0.4420(6) 0.2170(5) 0.6614(4)
H13 H 0.4572 0.2675 0.6782
H14 H 0.3797 0.2236 0.6340
O16 O 0.2168(5) 0.3727(5) 0.5697(4)
H15 H 0.2669 0.3862 0.5528
H16 H 0.2187 0.3601 0.6234
O17 O 0.2673(16) 0.2022(15) 0.5942(13)
H17 H 0.2350 0.2530 0.5519
H18 H 0.2244 0.1915 0.6083
O18 O 0.4179(14) 0.1158(13) 0.8007(12)
H19 H 0.3811 0.1536 0.8176
H20 H 0.4236 0.1441 0.7610
O19 O 0.5754(8) 0.5433(10) 0.9758(6)
H21 H 0.5762 0.5479 0.9289
H22 H 0.5367 0.5884 0.9855
O20 O 0.4408(17) 0.8026(16) 0.8881(14)
H25 H 0.4474 0.8070 0.8373
H26 H 0.4988 0.8035 0.9092
O22 O 0.8782(3) 0.9840(3) 0.4663(3)
H27 H 0.9196 0.9461 0.5069
H28 H 0.9023 1.0249 0.4598
O21? O 0.3596(18) 0.8544(16) 0.9253(13)
H23? H 0.3021 0.8533 0.9361
H24? H 0.3529 0.9118 0.9046
H67? H 0.4839 0.1442 0.8046
H68? H 0.5379 0.1445 0.8682
H69? H 0.7405 0.8443 0.0258
H70? H 0.7397 0.7368 0.0345
H71? H 0.8354 0.0607 0.3249
H72? H 0.8521 0.0741 0.2678
O23? O 0.4996(17) 0.1186(15) 0.8566(15)
O24? O 0.7532(19) 0.787(2) 0.0237(16)
O25? O 0.8300(11) 0.0332(11) 0.2941(10)
loop_
_geom_bond_atom_site_label_1
_geom_bond_atom_site_label_2
_geom_bond_site_symmetry_1
_geom_bond_site_symmetry_2
Ag1 N1 1_555 1_555
Ag2 N5 1_555 1_555
Ag3 O6 1_555 1_555
Ag4 N2 1_555 1_555
N1 C17 1_555 1_555
N2 C24 1_555 1_555
N3 Ag1 1_555 1_555
N4 C34 1_555 1_555
N5 C37 1_555 1_555
N6 C44 1_555 1_555
N7 Ag2 1_555 1_555
N8 C54 1_555 1_555
O1 C8 1_555 1_555
O2 Ag1 1_555 1_555
O3 C7 1_555 1_555
O4 C7 1_555 1_555
O5 C16 1_555 1_555
O6 C16 1_555 1_555
O7 Ag1 1_555 1_555
O8 C15 1_555 1_555
O9 H1 1_555 1_555
H2 O9 1_555 1_555
O10 H3 1_555 1_555
H4 O10 1_555 1_555
O11 H5 1_555 1_555
H6 O11 1_555 1_555
O12 H7 1_555 1_555
H8 O12 1_555 1_555
O13 H9 1_555 1_555
H10 O13 1_555 1_555
O14 H11 1_555 1_555
H12 O14 1_555 1_555
O15 H13 1_555 1_555
H14 O15 1_555 1_555
O16 H15 1_555 1_555
H16 O16 1_555 1_555
O17 H17 1_555 1_555
H18 O17 1_555 1_555
O18 H19 1_555 1_555
H20 O18 1_555 1_555
O19 H21 1_555 1_555
H22 O19 1_555 1_555
O20 H25 1_555 1_555
H26 O20 1_555 1_555
O22 H27 1_555 1_555
H28 O22 1_555 1_555
C1 C2 1_555 1_555
C2 H29 1_555 1_555
C3 C2 1_555 1_555
H30 C3 1_555 1_555
C4 C3 1_555 1_555
H31 C4 1_555 1_555
C5 C4 1_555 1_555
C6 C1 1_555 1_555
C7 C5 1_555 1_555
C8 O2 1_555 1_555
C9 C6 1_555 1_555
C10 C9 1_555 1_555
C11 C10 1_555 1_555
H32 C11 1_555 1_555
C12 C11 1_555 1_555
H33 C12 1_555 1_555
C13 C12 1_555 1_555
H34 C13 1_555 1_555
C14 C9 1_555 1_555
C15 O7 1_555 1_555
C16 C10 1_555 1_555
C17 H35 1_555 1_555
C18 C17 1_555 1_555
H36 C18 1_555 1_555
C19 C18 1_555 1_555
C20 C19 1_555 1_555
H37 C20 1_555 1_555
C21 N1 1_555 1_555
H38 C21 1_555 1_555
C22 C19 1_555 1_555
C23 C22 1_555 1_555
H39 C23 1_555 1_555
C24 C23 1_555 1_555
H40 C24 1_555 1_555
C25 N2 1_555 1_555
H41 C25 1_555 1_555
C26 C22 1_555 1_555
H42 C26 1_555 1_555
C27 N3 1_555 1_555
H43 C27 1_555 1_555
C28 C27 1_555 1_555
H44 C28 1_555 1_555
C29 C28 1_555 1_555
C30 C29 1_555 1_555
H45 C30 1_555 1_555
C31 N3 1_555 1_555
H46 C31 1_555 1_555
C32 C29 1_555 1_555
C33 C32 1_555 1_555
H47 C33 1_555 1_555
C34 C33 1_555 1_555
H48 C34 1_555 1_555
C35 N4 1_555 1_555
H49 C35 1_555 1_555
C36 C32 1_555 1_555
H50 C36 1_555 1_555
C37 H51 1_555 1_555
C38 C37 1_555 1_555
H52 C38 1_555 1_555
C39 C38 1_555 1_555
C40 C39 1_555 1_555
H53 C40 1_555 1_555
C41 N5 1_555 1_555
H54 C41 1_555 1_555
C42 C39 1_555 1_555
C43 C42 1_555 1_555
H55 C43 1_555 1_555
C44 C43 1_555 1_555
H56 C44 1_555 1_555
C45 N6 1_555 1_555
H57 C45 1_555 1_555
C46 C42 1_555 1_555
H58 C46 1_555 1_555
C47 N7 1_555 1_555
H59 C47 1_555 1_555
C48 C47 1_555 1_555
H60 C48 1_555 1_555
C49 C48 1_555 1_555
C50 C49 1_555 1_555
H61 C50 1_555 1_555
C51 N7 1_555 1_555
H62 C51 1_555 1_555
C52 C49 1_555 1_555
C53 C52 1_555 1_555
H63 C53 1_555 1_555
C54 C53 1_555 1_555
H64 C54 1_555 1_555
C55 N8 1_555 1_555
H65 C55 1_555 1_555
C56 C52 1_555 1_555
H66 C56 1_555 1_555
Ag3_2 N6 1_555 1_555
Ag3_3 N8 1_555 1_555
Ag4_2 N4 1_555 1_555
Ag4_3 O5 1_555 1_555
N4_2 Ag4 1_555 1_555
N6_2 Ag3 1_555 1_555
N8_2 Ag3 1_555 1_555
O5_2 Ag4 1_555 1_555
Ag2 O2 1_555 1_555
C1 C8 1_555 1_555
C5 C6 1_555 1_555
C13 C14 1_555 1_555
C14 C15 1_555 1_555
C20 C21 1_555 1_555
C25 C26 1_555 1_555
C30 C31 1_555 1_555
C35 C36 1_555 1_555
C40 C41 1_555 1_555
C45 C46 1_555 1_555
C50 C51 1_555 1_555
C55 C56 1_555 1_555

#END
