
#######################################################################
#
#                 Cambridge Crystallographic Data Centre
#                                CCDC 
#
#######################################################################
#
# If this CIF has been generated from an entry in the Cambridge 
# Structural Database, then it will include bibliographic, chemical, 
# crystal, experimental, refinement or atomic coordinate data resulting 
# from the CCDC's data processing and validation procedures.
#
#######################################################################

data_DAXHAM
_symmetry_cell_setting           triclinic
_symmetry_space_group_name_H-M   'P -1'
_symmetry_Int_Tables_number      2
_space_group_name_Hall           '-P 1'
loop_
_symmetry_equiv_pos_site_id
_symmetry_equiv_pos_as_xyz
1 x,y,z
2 -x,-y,-z
_cell_length_a                   9.0014(18)
_cell_length_b                   9.0573(18)
_cell_length_c                   13.327(3)
_cell_angle_alpha                97.93(3)
_cell_angle_beta                 100.06(3)
_cell_angle_gamma                104.85(3)
_cell_volume                     1014.85
loop_
_atom_site_label
_atom_site_type_symbol
_atom_site_fract_x
_atom_site_fract_y
_atom_site_fract_z
Co1 Co 0.0000 0.0000 0.0000
Co2 Co -0.00140(3) -0.15838(4) -0.24917(2)
O1 O -0.02019(19) -0.21012(19) -0.10079(13)
O2 O 0.8074(2) -0.0803(2) -0.27470(14)
O3 O 0.2020(2) 0.1198(2) -0.05309(14)
O4 O -0.1536(2) -0.3934(2) -0.23394(15)
N1 N 0.2066(2) -0.2367(2) -0.23365(16)
C1 C -0.1167(3) -0.3454(3) -0.13801(19)
N2 N 0.0060(2) -0.2302(3) -0.40442(16)
C2 C 0.2251(3) 0.1416(3) -0.14063(18)
C3 C -0.0545(3) -0.4571(3) 0.0210(2)
H1 H -0.1032 -0.5123 0.0697
H2 H 0.0073 -0.3536 0.0580
C4 C 0.7797(3) 0.0175(3) -0.20868(19)
C5 C -0.1821(3) -0.4441(3) -0.0655(2)
H3 H -0.2403 -0.5474 -0.1046
H4 H -0.2551 -0.3996 -0.0352
C6 C 0.2422(3) -0.2803(3) -0.32591(19)
C7 C 0.6618(3) 0.1004(4) -0.2507(2)
H5 H 0.7192 0.1946 -0.2699
H6 H 0.5921 0.0340 -0.3136
C8 C 0.1318(3) -0.2797(3) -0.41808(18)
C9 C 0.3092(3) -0.2308(3) -0.1474(2)
H7 H 0.2863 -0.2011 -0.0836
C10 C 0.4503(3) -0.2676(3) -0.1491(3)
H8 H 0.5203 -0.2604 -0.0871
C11 C 0.1591(4) -0.3298(4) -0.5163(2)
C12 C 0.3799(3) -0.3218(3) -0.3347(2)
C13 C 0.4854(3) -0.3141(3) -0.2420(3)
H9 H 0.5783 -0.3405 -0.2436
C14 C -0.0955(4) -0.2263(4) -0.4884(2)
H10 H -0.1814 -0.1903 -0.4802
C15 C 0.4053(4) -0.3677(4) -0.4370(3)
H11 H 0.4971 -0.3938 -0.4434
C16 C 0.4604(3) 0.2425(3) -0.22043(19)
H12 H 0.3937 0.1863 -0.2871
H13 H 0.5284 0.3381 -0.2315
C17 C 0.5616(3) 0.1441(3) -0.1778(2)
H14 H 0.6298 0.2014 -0.1119
H15 H 0.4936 0.0498 -0.1651
C18 C 0.3566(3) 0.2828(3) -0.14702(19)
H16 H 0.3102 0.3608 -0.1709
H17 H 0.4221 0.3275 -0.0781
C19 C 0.0480(4) -0.3271(4) -0.6032(2)
H18 H 0.0596 -0.3607 -0.6698
C20 C 0.2999(4) -0.3734(4) -0.5226(3)
H19 H 0.3182 -0.4063 -0.5874
C21 C -0.0782(4) -0.2744(5) -0.5891(2)
H20 H -0.1520 -0.2706 -0.6463
O5 O 0.8421(2) 0.0543(2) -0.11401(14)
O6 O 0.1482(2) 0.0581(2) -0.22646(14)
Co1_2 Co 1.0000 0.0000 0.0000
Co1_3 Co 0.0000 -1.0000 0.0000
Co1_4 Co -1.0000 0.0000 0.0000
Co2A Co 0.00140(3) -0.84162(4) 0.24917(2)
Co2_2 Co 0.99860(3) -0.15838(4) -0.24917(2)
Co2A_2 Co -0.99860(3) 0.15838(4) 0.24917(2)
Co2A_3 Co 0.00140(3) 0.15838(4) 0.24917(2)
O1A O 0.02019(19) -0.78988(19) 0.10079(13)
O1A_2 O 0.02019(19) 0.21012(19) 0.10079(13)
O2A O -0.8074(2) 0.0803(2) 0.27470(14)
O2_2 O -0.1926(2) -0.0803(2) -0.27470(14)
O2A_2 O 0.1926(2) -0.9197(2) 0.27470(14)
O3A O -0.2020(2) -0.1198(2) 0.05309(14)
O4A O 0.1536(2) -0.6066(2) 0.23394(15)
N1A N -0.2066(2) -0.7633(2) 0.23365(16)
C1A C 0.1167(3) -0.6546(3) 0.13801(19)
N2A N -0.0060(2) -0.7698(3) 0.40442(16)
C2A C -0.2251(3) -0.1416(3) 0.14063(18)
C3A C 0.0545(3) -0.5429(3) -0.0210(2)
H1A H 0.1032 -0.4877 -0.0697
H2A H -0.0073 -0.6464 -0.0580
C4A C -0.7797(3) -0.0175(3) 0.20868(19)
C5A C 0.1821(3) -0.5559(3) 0.0655(2)
H3A H 0.2403 -0.4526 0.1046
H4A H 0.2551 -0.6004 0.0352
C6A C -0.2422(3) -0.7197(3) 0.32591(19)
C7A C -0.6618(3) -0.1004(4) 0.2507(2)
H5A H -0.7192 -0.1946 0.2699
H6A H -0.5921 -0.0340 0.3136
C8A C -0.1318(3) -0.7203(3) 0.41808(18)
C9A C -0.3092(3) -0.7692(3) 0.1474(2)
H7A H -0.2863 -0.7989 0.0836
C10A C -0.4503(3) -0.7324(3) 0.1491(3)
H8A H -0.5203 -0.7396 0.0871
C11A C -0.1591(4) -0.6702(4) 0.5163(2)
C12A C -0.3799(3) -0.6782(3) 0.3347(2)
C13A C -0.4854(3) -0.6859(3) 0.2420(3)
H9A H -0.5783 -0.6595 0.2436
C14A C 0.0955(4) -0.7737(4) 0.4884(2)
H10A H 0.1814 -0.8097 0.4802
C15A C -0.4053(4) -0.6323(4) 0.4370(3)
H11A H -0.4971 -0.6062 0.4434
C16A C -0.4604(3) -0.2425(3) 0.22043(19)
H12A H -0.3937 -0.1863 0.2871
H13A H -0.5284 -0.3381 0.2315
C17A C -0.5616(3) -0.1441(3) 0.1778(2)
H14A H -0.6298 -0.2014 0.1119
H15A H -0.4936 -0.0498 0.1651
C18A C -0.3566(3) -0.2828(3) 0.14702(19)
H16A H -0.3102 -0.3608 0.1709
H17A H -0.4221 -0.3275 0.0781
C19A C -0.0480(4) -0.6729(4) 0.6032(2)
H18A H -0.0596 -0.6393 0.6698
C20A C -0.2999(4) -0.6266(4) 0.5226(3)
H19A H -0.3182 -0.5937 0.5874
C21A C 0.0782(4) -0.7256(5) 0.5891(2)
H20A H 0.1520 -0.7294 0.6463
O5A O -0.8421(2) -0.0543(2) 0.11401(14)
O5_2 O -0.1579(2) 0.0543(2) -0.11401(14)
O5A_2 O 0.1579(2) -0.0543(2) 0.11401(14)
O6A O -0.1482(2) -0.0581(2) 0.22646(14)
O6A_2 O -0.1482(2) -1.0581(2) 0.22646(14)
loop_
_geom_bond_atom_site_label_1
_geom_bond_atom_site_label_2
_geom_bond_site_symmetry_1
_geom_bond_site_symmetry_2
Co1 O1 1_555 1_555
Co2 O1 1_555 1_555
O1 C1 1_555 1_555
O2 C4 1_555 1_555
O3 Co1 1_555 1_555
O4 Co2 1_555 1_555
N1 Co2 1_555 1_555
C1 O4 1_555 1_555
N2 Co2 1_555 1_555
C2 O3 1_555 1_555
C3 H1 1_555 1_555
H2 C3 1_555 1_555
C4 C7 1_555 1_555
C5 C1 1_555 1_555
H3 C5 1_555 1_555
H4 C5 1_555 1_555
C6 N1 1_555 1_555
C7 H5 1_555 1_555
H6 C7 1_555 1_555
C8 N2 1_555 1_555
C9 N1 1_555 1_555
H7 C9 1_555 1_555
C10 C9 1_555 1_555
H8 C10 1_555 1_555
C11 C8 1_555 1_555
C12 C6 1_555 1_555
C13 C10 1_555 1_555
H9 C13 1_555 1_555
C14 N2 1_555 1_555
H10 C14 1_555 1_555
C15 C12 1_555 1_555
H11 C15 1_555 1_555
C16 H12 1_555 1_555
H13 C16 1_555 1_555
C17 C7 1_555 1_555
H14 C17 1_555 1_555
H15 C17 1_555 1_555
C18 C2 1_555 1_555
H16 C18 1_555 1_555
H17 C18 1_555 1_555
C19 C11 1_555 1_555
H18 C19 1_555 1_555
C20 C11 1_555 1_555
H19 C20 1_555 1_555
C21 C14 1_555 1_555
H20 C21 1_555 1_555
O5 C4 1_555 1_555
O6 Co2 1_555 1_555
Co1_2 O5 1_555 1_555
Co1_3 O1A 1_555 1_555
Co1_4 O5A 1_555 1_555
Co2A O1A 1_555 1_555
Co2_2 O2 1_555 1_555
Co2A_2 O2A 1_555 1_555
Co2A_3 O1A_2 1_555 1_555
O1A C1A 1_555 1_555
O1A_2 Co1 1_555 1_555
O2A C4A 1_555 1_555
O2_2 Co2 1_555 1_555
O2A_2 Co2A 1_555 1_555
O3A Co1 1_555 1_555
O4A Co2A 1_555 1_555
N1A Co2A 1_555 1_555
C1A O4A 1_555 1_555
N2A Co2A 1_555 1_555
C2A O3A 1_555 1_555
C3A C3 1_555 1_555
H1A C3A 1_555 1_555
H2A C3A 1_555 1_555
C4A C7A 1_555 1_555
C5A C1A 1_555 1_555
H3A C5A 1_555 1_555
H4A C5A 1_555 1_555
C6A N1A 1_555 1_555
C7A H5A 1_555 1_555
H6A C7A 1_555 1_555
C8A N2A 1_555 1_555
C9A N1A 1_555 1_555
H7A C9A 1_555 1_555
C10A C9A 1_555 1_555
H8A C10A 1_555 1_555
C11A C8A 1_555 1_555
C12A C6A 1_555 1_555
C13A C10A 1_555 1_555
H9A C13A 1_555 1_555
C14A N2A 1_555 1_555
H10A C14A 1_555 1_555
C15A C12A 1_555 1_555
H11A C15A 1_555 1_555
C16A H12A 1_555 1_555
H13A C16A 1_555 1_555
C17A C7A 1_555 1_555
H14A C17A 1_555 1_555
H15A C17A 1_555 1_555
C18A C2A 1_555 1_555
H16A C18A 1_555 1_555
H17A C18A 1_555 1_555
C19A C11A 1_555 1_555
H18A C19A 1_555 1_555
C20A C11A 1_555 1_555
H19A C20A 1_555 1_555
C21A C14A 1_555 1_555
H20A C21A 1_555 1_555
O5A C4A 1_555 1_555
O5_2 Co1 1_555 1_555
O5A_2 Co1 1_555 1_555
O6A Co2A_3 1_555 1_555
O6A_2 Co2A 1_555 1_555
C2 O6 1_555 1_555
C3 C5 1_555 1_555
C6 C8 1_555 1_555
C12 C13 1_555 1_555
C15 C20 1_555 1_555
C16 C17 1_555 1_555
C16 C18 1_555 1_555
C19 C21 1_555 1_555
C2A O6A 1_555 1_555
C3A C5A 1_555 1_555
C6A C8A 1_555 1_555
C12A C13A 1_555 1_555
C15A C20A 1_555 1_555
C16A C17A 1_555 1_555
C16A C18A 1_555 1_555
C19A C21A 1_555 1_555

#END
