
#######################################################################
#
#                 Cambridge Crystallographic Data Centre
#                                CCDC 
#
#######################################################################
#
# If this CIF has been generated from an entry in the Cambridge 
# Structural Database, then it will include bibliographic, chemical, 
# crystal, experimental, refinement or atomic coordinate data resulting 
# from the CCDC's data processing and validation procedures.
#
#######################################################################

data_DAXHEQ
_symmetry_cell_setting           monoclinic
_symmetry_space_group_name_H-M   'P 21/c'
_symmetry_Int_Tables_number      14
_space_group_name_Hall           '-P 2ybc'
loop_
_symmetry_equiv_pos_site_id
_symmetry_equiv_pos_as_xyz
1 x,y,z
2 -x,1/2+y,1/2-z
3 -x,-y,-z
4 x,1/2-y,1/2+z
_cell_length_a                   10.537(2)
_cell_length_b                   20.780(4)
_cell_length_c                   13.471(3)
_cell_angle_alpha                90
_cell_angle_beta                 100.63(3)
_cell_angle_gamma                90
_cell_volume                     2898.98
loop_
_atom_site_label
_atom_site_type_symbol
_atom_site_fract_x
_atom_site_fract_y
_atom_site_fract_z
Co1 Co 0.16198(3) 0.122690(13) 0.86938(2)
Co2 Co 0.20192(3) -0.129510(12) 0.37336(2)
O1 O 0.12546(16) 0.11847(7) 0.71520(12)
O2 O 0.26891(15) -0.11718(7) 0.53203(12)
N1 N 0.33901(17) 0.17312(8) 0.87069(12)
O3 O 0.17581(16) -0.11513(7) 1.22154(12)
N2 N 0.13970(17) -0.22752(8) 0.37231(13)
O4 O 0.23473(15) 0.09911(7) 1.02835(11)
O5 O -0.04165(15) 0.07742(8) 0.60941(12)
C1 C 0.3623(2) -0.24674(9) 0.36959(14)
C2 C 0.2006(2) 0.26297(10) 0.87770(14)
N3 N 0.10401(17) 0.21994(8) 0.87648(13)
N4 N 0.37675(16) -0.18177(8) 0.36922(12)
O6 O 0.26167(18) 0.03327(7) 0.90780(12)
C3 C 0.4412(2) -0.35728(11) 0.36828(17)
H1 H 0.5085 -0.3859 0.3664
C4 C 0.3273(2) 0.23792(10) 0.87500(14)
O7 O 0.00545(17) -0.07580(10) 1.11740(14)
C5 C 0.3226(3) -0.38029(10) 0.36986(18)
H2 H 0.3093 -0.4245 0.3687
C6 C 0.2357(2) -0.27107(10) 0.37098(15)
C7 C 0.0224(2) -0.25025(12) 0.37552(16)
H3 H -0.0448 -0.2211 0.3743
O8 O 0.30965(16) -0.04015(8) 0.43300(12)
C8 C 0.4086(3) 0.34775(11) 0.87929(18)
H4 H 0.4767 0.3761 0.8783
C9 C 0.5657(2) 0.18746(13) 0.87380(17)
H5 H 0.6459 0.1686 0.8742
C10 C 0.2712(2) 0.04582(10) 1.00039(17)
C11 C 0.31181(19) -0.06182(10) 0.51978(17)
C12 C 0.2910(3) 0.37149(11) 0.88270(18)
H6 H 0.2795 0.4158 0.8849
C13 C 0.4934(2) -0.15848(10) 0.37017(16)
H7 H 0.5038 -0.1140 0.3705
C14 C 0.0722(2) 0.07524(11) 0.65618(16)
C15 C 0.6027(2) -0.19733(11) 0.37076(16)
H8 H 0.6832 -0.1789 0.3712
C16 C 0.3063(2) 0.00484(11) 1.18258(17)
H9 H 0.3363 0.0472 1.2066
H10 H 0.3562 -0.0267 1.2264
C17 C 0.4320(2) 0.27986(11) 0.87713(16)
C18 C 0.4560(2) 0.14934(11) 0.87017(16)
H11 H 0.4652 0.1049 0.8672
C19 C 0.5883(2) -0.26249(11) 0.37069(16)
H12 H 0.6595 -0.2891 0.3715
C20 C -0.0131(2) 0.24240(12) 0.87899(17)
H13 H -0.0808 0.2133 0.8760
C21 C 0.0584(3) 0.35132(12) 0.88808(19)
H14 H 0.0420 0.3951 0.8929
C22 C 0.1835(2) 0.33005(11) 0.88304(16)
C23 C 0.3308(2) -0.00402(11) 1.07731(17)
H15 H 0.2986 -0.0461 1.0535
H16 H 0.4234 -0.0041 1.0799
C24 C 0.2165(2) -0.33816(10) 0.37329(16)
C25 C 0.0918(3) -0.35948(12) 0.37964(19)
H17 H 0.0749 -0.4033 0.3831
C26 C -0.0391(3) 0.30798(13) 0.88589(18)
H18 H -0.1222 0.3219 0.8890
C27 C 0.1118(2) -0.06943(11) 1.17500(16)
C28 C 0.5538(2) 0.25246(12) 0.87676(16)
H19 H 0.6258 0.2787 0.8785
C29 C 0.3680(2) -0.02363(12) 0.61329(19)
H20 H 0.4535 -0.0087 0.6073
H21 H 0.3771 -0.0516 0.6718
C30 C 0.4664(2) -0.28927(10) 0.36946(16)
C31 C 0.2867(2) 0.03296(12) 0.6296(2)
H22 H 0.3283 0.0554 0.6901
H23 H 0.2834 0.0623 0.5732
C32 C -0.0045(2) -0.31574(12) 0.38066(18)
H24 H -0.0874 -0.3295 0.3848
C33 C 0.1643(2) -0.00197(11) 1.1901(2)
H25 H 0.1531 0.0130 1.2562
H26 H 0.1137 0.0258 1.1401
C34 C 0.1491(2) 0.01636(11) 0.6404(2)
H27 H 0.1515 -0.0126 0.6972
H28 H 0.1066 -0.0059 0.5800
Co1B Co -0.16198(3) -0.122690(13) 1.13062(2)
Co2_2 Co 0.20192(3) -0.129510(12) 1.37336(2)
Co2B Co -0.20192(3) 0.129510(12) 0.62664(2)
O3_2 O 0.17581(16) -0.11513(7) 0.22154(12)
O5B O 0.04165(15) -0.07742(8) 0.39059(12)
O7B O -0.00545(17) 0.07580(10) 0.88260(14)
loop_
_geom_bond_atom_site_label_1
_geom_bond_atom_site_label_2
_geom_bond_site_symmetry_1
_geom_bond_site_symmetry_2
Co1 O1 1_555 1_555
Co2 O2 1_555 1_555
O1 C14 1_555 1_555
O2 C11 1_555 1_555
N1 Co1 1_555 1_555
O3 C27 1_555 1_555
N2 Co2 1_555 1_555
O4 Co1 1_555 1_555
O5 C14 1_555 1_555
C1 N4 1_555 1_555
C2 N3 1_555 1_555
N3 Co1 1_555 1_555
N4 Co2 1_555 1_555
O6 Co1 1_555 1_555
C3 H1 1_555 1_555
C4 N1 1_555 1_555
O7 C27 1_555 1_555
C5 C3 1_555 1_555
H2 C5 1_555 1_555
C6 N2 1_555 1_555
C7 N2 1_555 1_555
H3 C7 1_555 1_555
O8 Co2 1_555 1_555
C8 H4 1_555 1_555
C9 H5 1_555 1_555
C10 O4 1_555 1_555
C11 O8 1_555 1_555
C12 C8 1_555 1_555
H6 C12 1_555 1_555
C13 N4 1_555 1_555
H7 C13 1_555 1_555
C14 C34 1_555 1_555
C15 C13 1_555 1_555
H8 C15 1_555 1_555
C16 H9 1_555 1_555
H10 C16 1_555 1_555
C17 C4 1_555 1_555
C18 N1 1_555 1_555
H11 C18 1_555 1_555
C19 C15 1_555 1_555
H12 C19 1_555 1_555
C20 N3 1_555 1_555
H13 C20 1_555 1_555
C21 H14 1_555 1_555
C22 C2 1_555 1_555
C23 C10 1_555 1_555
H15 C23 1_555 1_555
H16 C23 1_555 1_555
C24 C5 1_555 1_555
C25 C24 1_555 1_555
H17 C25 1_555 1_555
C26 C20 1_555 1_555
H18 C26 1_555 1_555
C27 C33 1_555 1_555
C28 C9 1_555 1_555
H19 C28 1_555 1_555
C29 C11 1_555 1_555
H20 C29 1_555 1_555
H21 C29 1_555 1_555
C30 C1 1_555 1_555
C31 C29 1_555 1_555
H22 C31 1_555 1_555
H23 C31 1_555 1_555
C32 C7 1_555 1_555
H24 C32 1_555 1_555
C33 C16 1_555 1_555
H25 C33 1_555 1_555
H26 C33 1_555 1_555
C34 C31 1_555 1_555
H27 C34 1_555 1_555
H28 C34 1_555 1_555
Co1B O7 1_555 1_555
Co2_2 O3 1_555 1_555
Co2B O5 1_555 1_555
O3_2 Co2 1_555 1_555
O5B Co2 1_555 1_555
O7B Co1 1_555 1_555
C1 C6 1_555 1_555
C2 C4 1_555 1_555
O6 C10 1_555 1_555
C3 C30 1_555 1_555
C6 C24 1_555 1_555
C8 C17 1_555 1_555
C9 C18 1_555 1_555
C12 C22 1_555 1_555
C16 C23 1_555 1_555
C17 C28 1_555 1_555
C19 C30 1_555 1_555
C21 C22 1_555 1_555
C21 C26 1_555 1_555
C25 C32 1_555 1_555

#END
