
#######################################################################
#
#                 Cambridge Crystallographic Data Centre
#                                CCDC 
#
#######################################################################
#
# If this CIF has been generated from an entry in the Cambridge 
# Structural Database, then it will include bibliographic, chemical, 
# crystal, experimental, refinement or atomic coordinate data resulting 
# from the CCDC's data processing and validation procedures.
#
#######################################################################

data_DAXHAN
_symmetry_cell_setting           triclinic
_symmetry_space_group_name_H-M   'P 1'
_symmetry_Int_Tables_number      1
_space_group_name_Hall           'P 1'
loop_
_symmetry_equiv_pos_site_id
_symmetry_equiv_pos_as_xyz
1 x,y,z
_cell_length_a                   7.6718(17)
_cell_length_b                   13.923(3)
_cell_length_c                   19.539(5)
_cell_angle_alpha                109.640(2)
_cell_angle_beta                 90.472(2)
_cell_angle_gamma                105.149(2)
_cell_volume                     1886.7
loop_
_atom_site_label
_atom_site_type_symbol
_atom_site_fract_x
_atom_site_fract_y
_atom_site_fract_z
Zn1 Zn 0.29748(10) 0.46982(6) 0.64655(5)
O1 O 0.6911(7) 0.4915(4) 0.6364(3)
N1 N 0.7882(9) 0.2114(5) 0.5203(4)
C1 C 1.0421(13) 0.7634(7) 0.5373(5)
Zn2 Zn 0.83206(15) 0.28886(8) 0.43984(6)
O2 O 0.4796(7) 0.5500(5) 0.5995(3)
N2 N 0.3239(10) -0.1233(7) 0.8296(5)
C2 C 0.8714(12) 0.7753(7) 0.5440(5)
H1 H 0.8417 0.8325 0.5353
Zn3 Zn 0.84558(11) 0.00541(6) 0.13717(5)
O3 O 1.1185(7) 0.5404(4) 0.6361(3)
N3 N 0.6042(14) 0.0803(7) 0.6919(6)
C3 C 0.7420(12) 0.7015(7) 0.5639(5)
H2 H 0.6228 0.7093 0.5685
Zn4 Zn 0.80925(10) 0.54983(6) 0.74229(5)
O4 O 0.9886(7) 0.4304(4) 0.5256(3)
N4 N 0.5710(16) -0.0076(11) 0.6653(6)
C4 C 0.7803(10) 0.6171(6) 0.5774(4)
Zn5 Zn 0.35388(11) 0.10941(6) 0.23894(5)
O5 O 1.3083(8) 1.3049(5) 0.5323(3)
N5 N 0.8780(9) 0.3671(5) 0.3565(4)
C5 C 0.9552(11) 0.6051(6) 0.5677(4)
Zn6 Zn 1.43392(11) 0.81066(6) -0.00784(5)
O6 O 1.2325(9) 1.3203(5) 0.6428(3)
N6 N 1.3137(8) 0.7311(5) 0.0589(3)
C6 C 1.0814(12) 0.6790(7) 0.5487(5)
H3 H 1.2006 0.6715 0.5433
O7 O 1.1789(9) 0.8289(5) 0.5146(4)
N7 N 1.0614(17) 0.5069(9) 0.1884(7)
C7 C 0.6412(11) 0.5477(6) 0.6063(4)
O8 O 0.6155(8) 0.4655(4) 0.7843(3)
N8 N 1.0762(16) 0.5879(12) 0.2192(6)
C8 C 1.0180(10) 0.5157(6) 0.5758(4)
O9 O 0.3995(7) 0.5283(4) 0.7521(3)
C9 C 1.1873(12) 0.9359(7) 0.5328(5)
O10 O -0.0328(8) 0.4631(5) 0.7507(3)
C10 C 1.2355(14) 0.9786(7) 0.4798(5)
H4 H 1.2520 0.9344 0.4328
O11 O 0.1184(9) 0.5839(5) 0.8555(3)
C11 C 1.2604(12) 1.0865(7) 0.4946(5)
H5 H 1.2938 1.1166 0.4580
O12 O -0.2137(8) -0.2978(4) 0.8444(3)
C12 C 1.2353(12) 1.1499(7) 0.5646(4)
O13 O -0.1028(8) -0.3026(4) 0.7420(3)
C13 C 1.1854(12) 1.1042(7) 0.6169(5)
H6 H 1.1692 1.1472 0.6645
O14 O -0.0511(9) 0.1899(5) 0.8845(4)
C14 C 1.1589(13) 0.9960(7) 0.6004(5)
H7 H 1.1214 0.9642 0.6360
O15 O 0.6680(8) 0.1472(4) 0.3521(3)
C15 C 1.2601(11) 1.2654(6) 0.5808(4)
O16 O 0.5279(8) 0.0315(4) 0.2454(3)
C16 C 0.0727(13) 0.2548(7) 0.8586(5)
O17 O 1.1722(7) 0.0312(4) 0.2880(3)
C17 C 0.0201(11) 0.3358(6) 0.8434(4)
H8 H -0.0996 0.3420 0.8499
O18 O 0.9545(7) 0.0802(4) 0.2427(3)
C18 C 0.1419(11) 0.4060(6) 0.8193(4)
O19 O 0.3503(8) -0.7359(4) 0.3394(3)
C19 C 0.3197(10) 0.4002(6) 0.8106(4)
O20 O 0.4240(9) -0.7448(5) 0.2302(3)
C20 C 0.3689(11) 0.3181(7) 0.8251(4)
H9 H 0.4884 0.3117 0.8185
O21 O 0.4724(10) -0.2521(5) 0.3699(5)
C21 C 0.2470(12) 0.2459(7) 0.8488(5)
H10 H 0.2829 0.1909 0.8583
O22 O 1.2463(7) 0.0368(4) 0.1340(3)
C22 C 0.4520(11) 0.4686(6) 0.7801(4)
O23 O 1.0251(8) 0.0767(5) 0.0852(3)
C23 C 0.0753(11) 0.4937(6) 0.8075(5)
O24 O 1.4879(8) -0.0350(4) 0.0185(3)
C24 C -0.0605(12) 0.0826(7) 0.8617(5)
O25 O 1.6686(8) 0.0746(4) 0.1196(3)
C25 C -0.0539(12) 0.0224(6) 0.7904(5)
H11 H -0.0328 0.0554 0.7547
O26 O 1.8325(9) 0.8631(5) 0.1416(3)
C26 C -0.0779(11) -0.0856(6) 0.7701(4)
H12 H -0.0682 -0.1265 0.7211
O27 O 1.7079(7) 0.8371(4) 0.0337(3)
C27 C -0.1168(11) -0.1345(6) 0.8226(4)
O28 O 1.7029(9) 0.3649(5) -0.0026(4)
C28 C -0.1254(12) -0.0715(7) 0.8939(5)
H13 H -0.1502 -0.1037 0.9299
O29 O 1.0617(7) 0.2389(4) 0.4182(3)
C29 C -0.0994(12) 0.0350(6) 0.9138(5)
H14 H -0.1077 0.0763 0.9629
O30 O 0.6032(7) 0.3382(5) 0.4591(3)
C30 C -0.1445(11) -0.2501(6) 0.8027(5)
O31 O 1.4740(8) 0.7075(5) -0.0999(3)
C31 C 0.6081(13) -0.1848(7) 0.3479(5)
O32 O 1.1871(7) 0.7984(4) -0.0607(3)
C32 C 0.5584(12) -0.1048(6) 0.3332(5)
H15 H 0.4376 -0.0994 0.3367
C33 C 0.6922(10) -0.0312(6) 0.3129(4)
C34 C 0.8691(11) -0.0419(6) 0.3076(4)
C35 C 0.9112(12) -0.1218(7) 0.3232(5)
H16 H 1.0320 -0.1272 0.3201
C36 C 0.7869(14) -0.1942(7) 0.3431(5)
H17 H 0.8192 -0.2496 0.3536
C37 C 0.6293(11) 0.0573(6) 0.3023(4)
C38 C 1.0081(10) 0.0284(6) 0.2771(4)
C39 C 0.4668(13) -0.3600(7) 0.3491(6)
C40 C 0.4878(13) -0.4197(7) 0.2783(6)
H18 H 0.5157 -0.3875 0.2424
C41 C 0.4671(12) -0.5276(7) 0.2611(5)
H19 H 0.4820 -0.5696 0.2131
C42 C 0.4245(11) -0.5747(6) 0.3137(5)
C43 C 0.3997(11) -0.5130(6) 0.3826(4)
H20 H 0.3670 -0.5451 0.4183
C44 C 0.4213(12) -0.4056(7) 0.4009(5)
H21 H 0.4049 -0.3639 0.4488
C45 C 0.3968(11) -0.6916(7) 0.2931(5)
C46 C 1.5735(13) 0.2991(6) 0.0235(5)
C47 C 1.6230(11) 0.2182(7) 0.0358(5)
H22 H 1.7429 0.2125 0.0293
C48 C 1.5004(11) 0.1449(6) 0.0574(4)
C49 C 1.3224(10) 0.1546(6) 0.0672(4)
C50 C 1.2722(12) 0.2350(7) 0.0528(5)
H23 H 1.1516 0.2400 0.0580
C51 C 1.3987(11) 0.3095(6) 0.0305(4)
H24 H 1.3653 0.3650 0.0206
C52 C 1.1925(11) 0.0825(6) 0.0974(4)
C53 C 1.5539(11) 0.0516(6) 0.0655(4)
C54 C 1.7102(12) 0.4720(7) 0.0190(5)
C55 C 1.7014(12) 0.5312(7) 0.0922(5)
H25 H 1.6812 0.4981 0.1279
C56 C 1.7228(12) 0.6383(7) 0.1110(5)
H26 H 1.7206 0.6801 0.1605
C57 C 1.7472(11) 0.6858(6) 0.0591(4)
C58 C 1.7543(12) 0.6265(6) -0.0146(5)
H27 H 1.7722 0.6594 -0.0504
C59 C 1.7342(13) 0.5176(7) -0.0335(5)
H28 H 1.7373 0.4754 -0.0829
C60 C 1.7626(12) 0.8024(7) 0.0791(5)
C61 C 0.6803(12) 0.1115(8) 0.6222(6)
C62 C 0.7141(16) 0.2198(8) 0.6410(6)
H29 H 0.7054 0.2629 0.6895
C63 C 0.7604(13) 0.2646(7) 0.5886(5)
H30 H 0.7737 0.3385 0.6016
C64 C 0.7600(13) 0.1071(7) 0.5041(5)
H31 H 0.7793 0.0668 0.4563
C65 C 0.7061(15) 0.0543(8) 0.5503(6)
H32 H 0.6858 -0.0205 0.5346
C66 C 0.4864(16) -0.0369(14) 0.7337(8)
C67 C 0.4858(14) 0.0289(9) 0.8038(8)
H33 H 0.5407 0.1034 0.8198
C68 C 0.4007(14) -0.0202(9) 0.8489(6)
H34 H 0.3962 0.0229 0.8979
C69 C 0.3349(15) -0.1831(10) 0.7621(6)
H35 H 0.2857 -0.2579 0.7479
C70 C 0.4132(16) -0.1425(14) 0.7123(7)
H36 H 0.4163 -0.1873 0.6637
C71 C 0.9811(13) 0.4682(9) 0.2573(6)
C72 C 0.9584(13) 0.5243(8) 0.3280(6)
H37 H 0.9799 0.5992 0.3441
C73 C 0.9043(12) 0.4700(7) 0.3748(5)
H38 H 0.8850 0.5089 0.4229
C74 C 0.8946(14) 0.3128(8) 0.2859(5)
H39 H 0.8677 0.2376 0.2697
C75 C 0.9491(15) 0.3639(9) 0.2376(6)
H40 H 0.9643 0.3238 0.1891
C76 C 1.1603(15) 0.6282(12) 0.1536(7)
C77 C 1.2208(17) 0.7334(12) 0.1751(7)
H41 H 1.2109 0.7751 0.2238
C78 C 1.2965(15) 0.7824(9) 0.1286(5)
H42 H 1.3398 0.8578 0.1469
C79 C 1.2566(13) 0.6267(7) 0.0340(6)
H43 H 1.2675 0.5883 -0.0154
C80 C 1.1792(13) 0.5711(8) 0.0800(6)
H44 H 1.1398 0.4957 0.0617
H45 H 1.1061 0.2086 0.4427
H46 H 1.0904 0.2151 0.3745
H47 H 0.5534 0.3786 0.4907
H48 H 0.5195 0.2968 0.4246
H49 H 1.5644 0.7509 -0.1097
H50 H 1.4528 0.6488 -0.1366
H51 H 1.1625 0.8143 -0.0980
H52 H 1.0876 0.7851 -0.0419
Zn1_2 Zn 1.29748(10) 0.46982(6) 0.64655(5)
Zn1_3 Zn 1.29748(10) 1.46982(6) 0.64655(5)
Zn3_2 Zn 1.84558(11) 0.00541(6) 0.13717(5)
Zn3_3 Zn 1.84558(11) 1.00541(6) 0.13717(5)
O3_2 O 0.1185(7) 0.5404(4) 0.6361(3)
Zn4_2 Zn -0.19075(10) 0.54983(6) 0.74229(5)
Zn4_3 Zn -0.19075(10) -0.45017(6) 0.74229(5)
Zn5_2 Zn 1.35388(11) 0.10941(6) 0.23894(5)
Zn5_3 Zn 0.35388(11) -0.89059(6) 0.23894(5)
O5_2 O 0.3083(8) 0.3049(5) 0.5323(3)
Zn6_2 Zn 1.43392(11) -0.18934(6) -0.00784(5)
O6_2 O 0.2325(9) 0.3203(5) 0.6428(3)
O10_2 O 0.9672(8) 0.4631(5) 0.7507(3)
O12_2 O 0.7863(8) 0.7022(4) 0.8444(3)
O13_2 O 0.8972(8) 0.6974(4) 0.7420(3)
O17_2 O 0.1722(7) 0.0312(4) 0.2880(3)
O19_2 O 0.3503(8) 0.2641(4) 0.3394(3)
O20_2 O 0.4240(9) 0.2552(5) 0.2302(3)
O22_2 O 0.2463(7) 0.0368(4) 0.1340(3)
O24_2 O 1.4879(8) 0.9650(4) 0.0185(3)
O25_2 O 0.6686(8) 0.0746(4) 0.1196(3)
O26_2 O 0.8325(9) -0.1369(5) 0.1416(3)
O27_2 O 0.7079(7) -0.1629(4) 0.0337(3)
loop_
_geom_bond_atom_site_label_1
_geom_bond_atom_site_label_2
_geom_bond_site_symmetry_1
_geom_bond_site_symmetry_2
Zn1 O2 1_555 1_555
O1 Zn4 1_555 1_555
N1 Zn2 1_555 1_555
C1 C2 1_555 1_555
Zn2 O4 1_555 1_555
O2 C7 1_555 1_555
N2 C68 1_555 1_555
C2 H1 1_555 1_555
Zn3 O18 1_555 1_555
O3 C8 1_555 1_555
N3 N4 1_555 1_555
C3 C2 1_555 1_555
H2 C3 1_555 1_555
Zn4 O8 1_555 1_555
O4 C8 1_555 1_555
N4 C66 1_555 1_555
C4 C3 1_555 1_555
Zn5 O16 1_555 1_555
O5 C15 1_555 1_555
N5 Zn2 1_555 1_555
C5 C4 1_555 1_555
Zn6 N6 1_555 1_555
O6 C15 1_555 1_555
N6 C78 1_555 1_555
C6 C1 1_555 1_555
H3 C6 1_555 1_555
O7 C1 1_555 1_555
N7 N8 1_555 1_555
C7 O1 1_555 1_555
O8 C22 1_555 1_555
N8 C76 1_555 1_555
C8 C5 1_555 1_555
O9 Zn1 1_555 1_555
C9 O7 1_555 1_555
O10 C23 1_555 1_555
C10 C9 1_555 1_555
H4 C10 1_555 1_555
O11 C23 1_555 1_555
C11 C10 1_555 1_555
H5 C11 1_555 1_555
O12 C30 1_555 1_555
C12 C11 1_555 1_555
O13 C30 1_555 1_555
C13 C12 1_555 1_555
H6 C13 1_555 1_555
O14 C16 1_555 1_555
C14 C9 1_555 1_555
H7 C14 1_555 1_555
O15 Zn2 1_555 1_555
C15 C12 1_555 1_555
O16 C37 1_555 1_555
C16 C17 1_555 1_555
O17 C38 1_555 1_555
C17 H8 1_555 1_555
O18 C38 1_555 1_555
C18 C17 1_555 1_555
O19 C45 1_555 1_555
C19 C18 1_555 1_555
O20 C45 1_555 1_555
C20 C19 1_555 1_555
H9 C20 1_555 1_555
O21 C31 1_555 1_555
C21 C16 1_555 1_555
H10 C21 1_555 1_555
O22 C52 1_555 1_555
C22 O9 1_555 1_555
O23 Zn3 1_555 1_555
C23 C18 1_555 1_555
O24 C53 1_555 1_555
C24 O14 1_555 1_555
O25 C53 1_555 1_555
C25 C24 1_555 1_555
H11 C25 1_555 1_555
O26 C60 1_555 1_555
C26 C25 1_555 1_555
H12 C26 1_555 1_555
O27 Zn6 1_555 1_555
C27 C26 1_555 1_555
O28 C46 1_555 1_555
C28 C27 1_555 1_555
H13 C28 1_555 1_555
O29 Zn2 1_555 1_555
C29 C24 1_555 1_555
H14 C29 1_555 1_555
O30 Zn2 1_555 1_555
C30 C27 1_555 1_555
O31 Zn6 1_555 1_555
C31 C32 1_555 1_555
O32 Zn6 1_555 1_555
C32 H15 1_555 1_555
C33 C32 1_555 1_555
C34 C33 1_555 1_555
C35 C34 1_555 1_555
H16 C35 1_555 1_555
C36 C31 1_555 1_555
H17 C36 1_555 1_555
C37 O15 1_555 1_555
C38 C34 1_555 1_555
C39 O21 1_555 1_555
C40 C39 1_555 1_555
H18 C40 1_555 1_555
C41 C40 1_555 1_555
H19 C41 1_555 1_555
C42 C41 1_555 1_555
C43 C42 1_555 1_555
H20 C43 1_555 1_555
C44 C39 1_555 1_555
H21 C44 1_555 1_555
C45 C42 1_555 1_555
C46 C47 1_555 1_555
C47 H22 1_555 1_555
C48 C47 1_555 1_555
C49 C48 1_555 1_555
C50 C49 1_555 1_555
H23 C50 1_555 1_555
C51 C46 1_555 1_555
H24 C51 1_555 1_555
C52 O23 1_555 1_555
C53 C48 1_555 1_555
C54 O28 1_555 1_555
C55 C54 1_555 1_555
H25 C55 1_555 1_555
C56 C55 1_555 1_555
H26 C56 1_555 1_555
C57 C56 1_555 1_555
C58 C57 1_555 1_555
H27 C58 1_555 1_555
C59 C54 1_555 1_555
H28 C59 1_555 1_555
C60 O27 1_555 1_555
C61 N3 1_555 1_555
C62 C61 1_555 1_555
H29 C62 1_555 1_555
C63 N1 1_555 1_555
H30 C63 1_555 1_555
C64 N1 1_555 1_555
H31 C64 1_555 1_555
C65 C61 1_555 1_555
H32 C65 1_555 1_555
C66 C67 1_555 1_555
C67 H33 1_555 1_555
C68 C67 1_555 1_555
H34 C68 1_555 1_555
C69 N2 1_555 1_555
H35 C69 1_555 1_555
C70 C66 1_555 1_555
H36 C70 1_555 1_555
C71 N7 1_555 1_555
C72 C71 1_555 1_555
H37 C72 1_555 1_555
C73 N5 1_555 1_555
H38 C73 1_555 1_555
C74 N5 1_555 1_555
H39 C74 1_555 1_555
C75 C71 1_555 1_555
H40 C75 1_555 1_555
C76 C77 1_555 1_555
C77 H41 1_555 1_555
C78 C77 1_555 1_555
H42 C78 1_555 1_555
C79 N6 1_555 1_555
H43 C79 1_555 1_555
C80 C76 1_555 1_555
H44 C80 1_555 1_555
H45 O29 1_555 1_555
H46 O29 1_555 1_555
H47 O30 1_555 1_555
H48 O30 1_555 1_555
H49 O31 1_555 1_555
H50 O31 1_555 1_555
H51 O32 1_555 1_555
H52 O32 1_555 1_555
Zn1_2 O3 1_555 1_555
Zn1_3 O5 1_555 1_555
Zn3_2 O25 1_555 1_555
Zn3_3 O26 1_555 1_555
O3_2 Zn1 1_555 1_555
Zn4_2 O10 1_555 1_555
Zn4_3 O12 1_555 1_555
Zn5_2 O17 1_555 1_555
Zn5_3 O19 1_555 1_555
O5_2 Zn1 1_555 1_555
Zn6_2 O24 1_555 1_555
O6_2 Zn1 1_555 1_555
O10_2 Zn4 1_555 1_555
O12_2 Zn4 1_555 1_555
O13_2 Zn4 1_555 1_555
O17_2 Zn5 1_555 1_555
O19_2 Zn5 1_555 1_555
O20_2 Zn5 1_555 1_555
O22_2 Zn5 1_555 1_555
O24_2 Zn6 1_555 1_555
O25_2 Zn3 1_555 1_555
O26_2 Zn3 1_555 1_555
O27_2 Zn3 1_555 1_555
C4 C7 1_555 1_555
C5 C6 1_555 1_555
O6 Zn1_3 1_555 1_555
O13 Zn4_3 1_555 1_555
C13 C14 1_555 1_555
C19 C22 1_555 1_555
O20 Zn5_3 1_555 1_555
C20 C21 1_555 1_555
O22 Zn5_2 1_555 1_555
O27 Zn3_3 1_555 1_555
C28 C29 1_555 1_555
C33 C37 1_555 1_555
C35 C36 1_555 1_555
C43 C44 1_555 1_555
C49 C52 1_555 1_555
C50 C51 1_555 1_555
C57 C60 1_555 1_555
C58 C59 1_555 1_555
C62 C63 1_555 1_555
C64 C65 1_555 1_555
C69 C70 1_555 1_555
C72 C73 1_555 1_555
C74 C75 1_555 1_555
C79 C80 1_555 1_555

#END
