
#######################################################################
#
#                 Cambridge Crystallographic Data Centre
#                                CCDC 
#
#######################################################################
#
# If this CIF has been generated from an entry in the Cambridge 
# Structural Database, then it will include bibliographic, chemical, 
# crystal, experimental, refinement or atomic coordinate data resulting 
# from the CCDC's data processing and validation procedures.
#
#######################################################################

data_DAXNEX
_symmetry_cell_setting           triclinic
_symmetry_space_group_name_H-M   'P -1'
_symmetry_Int_Tables_number      2
_space_group_name_Hall           '-P 1'
loop_
_symmetry_equiv_pos_site_id
_symmetry_equiv_pos_as_xyz
1 x,y,z
2 -x,-y,-z
_cell_length_a                   10.659(3)
_cell_length_b                   14.708(5)
_cell_length_c                   16.638(5)
_cell_angle_alpha                83.681(5)
_cell_angle_beta                 71.443(2)
_cell_angle_gamma                87.964(5)
_cell_volume                     2457.74
loop_
_atom_site_label
_atom_site_type_symbol
_atom_site_fract_x
_atom_site_fract_y
_atom_site_fract_z
Co1 Co 0.78626(10) 0.37205(7) 0.38230(6)
Co2 Co 0.51640(10) 0.33101(7) 0.57661(6)
Co3 Co 0.66482(10) 0.15528(7) -0.38064(6)
Co4 Co 0.58197(10) 0.21086(7) 0.42729(6)
O1 O 0.5303(5) 0.1931(3) 0.5581(3)
O2 O 0.5924(5) 0.3474(3) 0.4467(3)
O3 O 0.6145(6) 0.2386(4) 0.3001(3)
O4 O 0.7569(6) 0.3558(4) 0.2672(3)
O5 O 0.8876(6) 0.2936(4) -0.1577(4)
O6 O 0.6983(5) 0.3013(3) -0.4021(3)
O7 O 0.8369(6) 0.3903(4) -0.5084(4)
O8 O 1.3266(6) 0.3643(4) -0.4439(4)
O9 O 1.2688(6) 0.4858(4) -0.3721(4)
O10 O 1.4172(6) 0.3043(4) -0.2957(3)
O11 O 1.2250(6) 0.1842(4) 0.1620(4)
O12 O 0.7899(5) 0.2238(3) 0.4021(3)
O13 O 0.8218(5) 0.1339(3) 0.5115(3)
O14 O 1.2921(6) 0.0525(4) 0.4903(4)
O15 O 1.3897(6) -0.0169(4) 0.3729(3)
O16 O 1.5198(6) 0.1744(4) -0.2666(3)
N1 N 0.9890(6) 0.3959(4) 0.3146(4)
N2 N 1.4215(8) 0.4973(5) 0.0888(5)
N3 N 0.8015(7) 0.1208(5) -0.3137(4)
N4 N 1.0120(8) -0.0005(5) -0.0888(5)
C1 C 0.6928(8) 0.2965(5) 0.2486(5)
C2 C 0.7101(8) 0.2901(5) 0.1567(5)
C3 C 0.6319(9) 0.2339(6) 0.1314(5)
H1 H 0.5675 0.1980 0.1724
C4 C 0.6475(8) 0.2300(6) 0.0463(5)
H2 H 0.5932 0.1916 0.0312
C5 C 0.7422(8) 0.2822(6) -0.0170(5)
C6 C 0.8215(8) 0.3385(6) 0.0082(5)
H3 H 0.8852 0.3749 -0.0329
C7 C 0.8077(8) 0.3414(6) 0.0922(5)
H4 H 0.8643 0.3782 0.1071
C8 C 0.7520(8) 0.2841(6) -0.1087(5)
H5 H 0.7168 0.2279 -0.1185
H6 H 0.7015 0.3350 -0.1247
C9 C 0.9229(8) 0.3219(5) -0.2422(4)
C10 C 1.0529(8) 0.3491(6) -0.2791(5)
H7 H 1.1096 0.3448 -0.2463
C11 C 1.0999(8) 0.3827(5) -0.3644(5)
C12 C 1.2412(8) 0.4146(5) -0.3970(5)
C13 C 1.0172(8) 0.3851(5) -0.4145(5)
H8 H 1.0489 0.4069 -0.4719
C14 C 0.8888(8) 0.3553(5) -0.3792(5)
C15 C 0.8023(8) 0.3498(5) -0.4332(5)
C16 C 0.8400(8) 0.3248(5) -0.2921(5)
H9 H 0.7522 0.3064 -0.2677
C17 C 1.0242(9) 0.4437(6) 0.2371(5)
H10 H 0.9580 0.4637 0.2140
C18 C 1.1518(9) 0.4642(6) 0.1909(5)
H11 H 1.1711 0.4969 0.1373
C19 C 1.2526(9) 0.4368(6) 0.2230(6)
C20 C 1.2191(8) 0.3855(6) 0.3032(6)
H12 H 1.2842 0.3637 0.3266
C21 C 1.0881(8) 0.3684(6) 0.3459(5)
H13 H 1.0660 0.3359 0.3997
C22 C 1.3959(10) 0.4659(8) 0.1793(7)
H14 H 1.4165 0.5148 0.2077
H15 H 1.4535 0.4146 0.1846
C23 C 1.4244(11) 0.4219(7) 0.0380(8)
H16 H 1.3402 0.3901 0.0593
H17 H 1.4929 0.3788 0.0435
C24 C 1.5492(10) 0.5439(7) 0.0542(7)
H18 H 1.5495 0.5950 0.0864
H19 H 1.6189 0.5020 0.0600
C25 C 0.9318(8) 0.1296(5) -0.3475(5)
H20 H 0.9645 0.1585 -0.4027
C26 C 1.0233(9) 0.0989(6) -0.3070(6)
H21 H 1.1137 0.1059 -0.3346
C27 C 0.9758(10) 0.0577(6) -0.2243(5)
C28 C 0.8414(10) 0.0492(6) -0.1860(5)
H22 H 0.8068 0.0224 -0.1302
C29 C 0.7585(9) 0.0815(5) -0.2325(5)
H23 H 0.6676 0.0757 -0.2060
C30 C 1.0729(10) 0.0196(7) -0.1794(6)
H24 H 1.1122 -0.0359 -0.2033
H25 H 1.1435 0.0636 -0.1899
C31 C 0.9806(11) 0.0828(6) -0.0448(6)
H26 H 0.9275 0.1234 -0.0710
H27 H 1.0619 0.1145 -0.0509
C32 C 1.0933(11) -0.0608(6) -0.0477(6)
H28 H 1.1141 -0.1168 -0.0751
H29 H 1.1758 -0.0304 -0.0542
C33 C 1.4386(8) 0.2377(5) -0.2452(5)
C34 C 1.3574(8) 0.2330(6) -0.1525(5)
C35 C 1.2650(8) 0.3005(6) -0.1207(5)
H30 H 1.2499 0.3489 -0.1574
C36 C 1.1966(8) 0.2955(6) -0.0353(5)
H31 H 1.1349 0.3408 -0.0154
C37 C 1.2156(8) 0.2258(6) 0.0221(5)
C38 C 1.3107(9) 0.1591(6) -0.0098(5)
H32 H 1.3275 0.1115 0.0272
C39 C 1.3796(10) 0.1640(6) -0.0961(5)
H33 H 1.4423 0.1194 -0.1163
C40 C 1.1373(9) 0.2185(7) 0.1154(5)
H34 H 1.1031 0.2780 0.1319
H35 H 1.0632 0.1771 0.1273
C41 C 1.1704(8) 0.1601(5) 0.2472(5)
C42 C 1.0403(8) 0.1756(5) 0.2952(5)
H36 H 0.9818 0.2045 0.2694
C43 C 0.9974(8) 0.1473(5) 0.3827(5)
C44 C 0.8583(8) 0.1694(5) 0.4367(5)
C45 C 1.0838(8) 0.1026(5) 0.4213(5)
H37 H 1.0550 0.0838 0.4794
C46 C 1.2137(8) 0.0862(5) 0.3723(5)
C47 C 1.3041(9) 0.0372(6) 0.4157(5)
C48 C 1.2568(8) 0.1143(6) 0.2864(5)
H38 H 1.3436 0.1030 0.2541
O17 O 0.5374(6) 0.4714(4) 0.5907(4)
O18 O 0.5993(6) 0.0713(4) 0.4155(4)
O19 O 0.3690(6) 0.2315(4) 0.4464(3)
H39 H 0.555(10) 0.404(4) 0.434(7)
H40 H 0.440(2) 0.181(3) 0.569(3)
H41 H 0.600(5) 0.506(4) 0.545(3)
H42 H 0.332(8) 0.173(3) 0.452(6)
H43 H 0.319(13) 0.269(8) 0.489(6)
H44 H 0.447(3) 0.490(4) 0.607(10)
H45 H 0.543(9) 0.042(7) 0.392(6)
H46 H 0.651(8) 0.025(5) 0.435(6)
Co1_2 Co 0.78626(10) 0.37205(7) 1.38230(6)
Co1_3 Co 0.78626(10) 0.37205(7) -0.61770(6)
Co1A Co 1.21374(10) 0.62795(7) -0.38230(6)
Co1A_2 Co 2.21374(10) 0.62795(7) -0.38230(6)
Co1A_3 Co 1.21374(10) 0.62795(7) 0.61770(6)
Co1_4 Co -0.21374(10) 0.37205(7) 1.38230(6)
Co2_2 Co 0.51640(10) 0.33101(7) -0.42339(6)
Co2_3 Co 1.51640(10) 0.33101(7) -0.42339(6)
Co2_4 Co 1.51640(10) 0.33101(7) 0.57661(6)
Co2_5 Co 0.51640(10) 0.33101(7) 1.57661(6)
Co3_2 Co 0.66482(10) 0.15528(7) 0.61936(6)
Co3A Co 1.33518(10) -0.15528(7) 0.38064(6)
Co3_3 Co 1.66482(10) 0.15528(7) -0.38064(6)
Co3_4 Co -0.33518(10) 0.15528(7) 1.61936(6)
Co3A_2 Co 0.33518(10) -0.15528(7) 1.38064(6)
Co4_2 Co 0.58197(10) 0.21086(7) 1.42729(6)
Co4_3 Co -0.41803(10) 0.21086(7) 1.42729(6)
Co4_4 Co 0.58197(10) 0.21086(7) -0.57271(6)
O1_2 O 0.5303(5) 0.1931(3) -0.4419(3)
O1_3 O 0.5303(5) 0.1931(3) 1.5581(3)
O2_2 O 0.5924(5) 0.3474(3) 1.4467(3)
O2_3 O 0.5924(5) 0.3474(3) -0.5533(3)
O3_2 O 0.6145(6) 0.2386(4) 1.3001(3)
O4_2 O 0.7569(6) 0.3558(4) 1.2672(3)
O5_2 O 0.8876(6) 0.2936(4) 0.8423(4)
O6_2 O 0.6983(5) 0.3013(3) 0.5979(3)
O7_2 O 0.8369(6) 0.3903(4) 0.4916(4)
O7_3 O 0.8369(6) 0.3903(4) 1.4916(4)
O8_2 O 1.3266(6) 0.3643(4) 0.5561(4)
O8_3 O 0.3266(6) 0.3643(4) 0.5561(4)
O8_4 O 0.3266(6) 0.3643(4) -0.4439(4)
O9_2 O 1.2688(6) 0.4858(4) 0.6279(4)
O9A O 0.7312(6) 0.5142(4) 0.3721(4)
O9A_2 O 0.7312(6) 0.5142(4) 1.3721(4)
O10_2 O 0.4172(6) 0.3043(4) 0.7043(3)
O10_3 O 0.4172(6) 0.3043(4) -0.2957(3)
O11_2 O 0.2250(6) 0.1842(4) 1.1620(4)
O12_2 O -0.2101(5) 0.2238(3) 1.4021(3)
O12_3 O 0.7899(5) 0.2238(3) 1.4021(3)
O13_2 O -0.1782(5) 0.1339(3) 1.5115(3)
O13_3 O 0.8218(5) 0.1339(3) -0.4885(3)
O14_2 O 0.2921(6) 0.0525(4) 1.4903(4)
O15_2 O 0.3897(6) -0.0169(4) 1.3729(3)
O15A O 0.6103(6) 0.0169(4) -0.3729(3)
O15A_2 O 0.6103(6) 0.0169(4) 0.6271(3)
O16_2 O 0.5198(6) 0.1744(4) 0.7334(3)
O16_3 O 0.5198(6) 0.1744(4) -0.2666(3)
N1A N 2.0110(6) 0.6041(4) -0.3146(4)
N1_2 N 0.9890(6) 0.3959(4) 1.3146(4)
N2A N 1.5785(8) 0.5027(5) -0.0888(5)
N3A N 1.1985(7) -0.1208(5) 0.3137(4)
N3_2 N 0.8015(7) 0.1208(5) 0.6863(4)
N4A N 0.9880(8) 0.0005(5) 0.0888(5)
C1_2 C 0.6928(8) 0.2965(5) 1.2486(5)
C2_2 C 0.7101(8) 0.2901(5) 1.1567(5)
C3_2 C 0.6319(9) 0.2339(6) 1.1314(5)
H1_2 H 0.5675 0.1980 1.1724
C4_2 C 0.6475(8) 0.2300(6) 1.0463(5)
H2_2 H 0.5932 0.1916 1.0312
C5_2 C 0.7422(8) 0.2822(6) 0.9830(5)
C6_2 C 0.8215(8) 0.3385(6) 1.0082(5)
H3_2 H 0.8852 0.3749 0.9671
C7_2 C 0.8077(8) 0.3414(6) 1.0922(5)
H4_2 H 0.8643 0.3782 1.1071
C8_2 C 0.7520(8) 0.2841(6) 0.8913(5)
H5_2 H 0.7168 0.2279 0.8815
H6_2 H 0.7015 0.3350 0.8753
C9_2 C 0.9229(8) 0.3219(5) 0.7578(4)
C10_2 C 1.0529(8) 0.3491(6) 0.7209(5)
H7_2 H 1.1096 0.3448 0.7537
C11_2 C 1.0999(8) 0.3827(5) 0.6356(5)
C12_2 C 1.2412(8) 0.4146(5) 0.6030(5)
C13_2 C 1.0172(8) 0.3851(5) 0.5855(5)
H8_2 H 1.0489 0.4069 0.5281
C14_2 C 0.8888(8) 0.3553(5) 0.6208(5)
C15_2 C 0.8023(8) 0.3498(5) 0.5668(5)
C16_2 C 0.8400(8) 0.3248(5) 0.7079(5)
H9_2 H 0.7522 0.3064 0.7323
C17A C 1.9758(9) 0.5563(6) -0.2371(5)
H10A H 2.0420 0.5363 -0.2140
C18A C 1.8482(9) 0.5358(6) -0.1909(5)
H11A H 1.8289 0.5031 -0.1373
C19A C 1.7474(9) 0.5632(6) -0.2230(6)
C20A C 1.7809(8) 0.6145(6) -0.3032(6)
H12A H 1.7158 0.6363 -0.3266
C21A C 1.9119(8) 0.6316(6) -0.3459(5)
H13A H 1.9340 0.6641 -0.3997
C22A C 1.6041(10) 0.5341(8) -0.1793(7)
H14A H 1.5835 0.4852 -0.2077
H15A H 1.5465 0.5854 -0.1846
C23A C 1.5756(11) 0.5781(7) -0.0380(8)
H16A H 1.6598 0.6099 -0.0593
H17A H 1.5071 0.6212 -0.0435
C24A C 1.4508(10) 0.4561(7) -0.0542(7)
H18A H 1.4505 0.4050 -0.0864
H19A H 1.3811 0.4980 -0.0600
C25A C 1.0682(8) -0.1296(5) 0.3475(5)
H20A H 1.0355 -0.1585 0.4027
C26A C 0.9767(9) -0.0989(6) 0.3070(6)
H21A H 0.8863 -0.1059 0.3346
C27A C 1.0242(10) -0.0577(6) 0.2243(5)
C28A C 1.1586(10) -0.0492(6) 0.1860(5)
H22A H 1.1932 -0.0224 0.1302
C29A C 1.2415(9) -0.0815(5) 0.2325(5)
H23A H 1.3324 -0.0757 0.2060
C30A C 0.9271(10) -0.0196(7) 0.1794(6)
H24A H 0.8878 0.0359 0.2033
H25A H 0.8565 -0.0636 0.1899
C31A C 1.0194(11) -0.0828(6) 0.0448(6)
H26A H 1.0725 -0.1234 0.0710
H27A H 0.9381 -0.1145 0.0509
C32A C 0.9067(11) 0.0608(6) 0.0477(6)
H28A H 0.8859 0.1168 0.0751
H29A H 0.8242 0.0304 0.0542
C33_2 C 0.4386(8) 0.2377(5) 0.7548(5)
C34_2 C 0.3574(8) 0.2330(6) 0.8475(5)
C35_2 C 0.2650(8) 0.3005(6) 0.8793(5)
H30_2 H 0.2499 0.3489 0.8426
C36_2 C 0.1966(8) 0.2955(6) 0.9647(5)
H31_2 H 0.1349 0.3408 0.9846
C37_2 C 0.2156(8) 0.2258(6) 1.0221(5)
C38_2 C 0.3107(9) 0.1591(6) 0.9902(5)
H32_2 H 0.3275 0.1115 1.0272
C39_2 C 0.3796(10) 0.1640(6) 0.9039(5)
H33_2 H 0.4423 0.1194 0.8837
C40_2 C 0.1373(9) 0.2185(7) 1.1154(5)
H34_2 H 0.1031 0.2780 1.1319
H35_2 H 0.0632 0.1771 1.1273
C41_2 C 0.1704(8) 0.1601(5) 1.2472(5)
C42_2 C 0.0403(8) 0.1756(5) 1.2952(5)
H36_2 H -0.0182 0.2045 1.2694
C43_2 C -0.0026(8) 0.1473(5) 1.3827(5)
C44_2 C -0.1417(8) 0.1694(5) 1.4367(5)
C45_2 C 0.0838(8) 0.1026(5) 1.4213(5)
H37_2 H 0.0550 0.0838 1.4794
C46_2 C 0.2137(8) 0.0862(5) 1.3723(5)
C47_2 C 0.3041(9) 0.0372(6) 1.4157(5)
C48_2 C 0.2568(8) 0.1143(6) 1.2864(5)
H38_2 H 0.3436 0.1030 1.2541
O17_2 O 0.5374(6) 0.4714(4) -0.4093(4)
O18_2 O 0.5993(6) 0.0713(4) 1.4155(4)
O19_2 O 0.3690(6) 0.2315(4) 1.4464(3)
H39_2 H 0.555(10) 0.404(4) 1.434(7)
H39_3 H 0.555(10) 0.404(4) -0.566(7)
H40_2 H 0.440(2) 0.181(3) -0.431(3)
H40_3 H 0.440(2) 0.181(3) 1.569(3)
H41_2 H 0.600(5) 0.506(4) -0.455(3)
H42_2 H 0.332(8) 0.173(3) 1.452(6)
H43_2 H 0.319(13) 0.269(8) 1.489(6)
H44_2 H 0.447(3) 0.490(4) -0.393(10)
H45_2 H 0.543(9) 0.042(7) 1.392(6)
H46_2 H 0.651(8) 0.025(5) 1.435(6)
O20 O 0.606(3) 0.0319(16) 1.2224(15)
O21 O 0.411(4) 0.491(3) 0.742(2)
loop_
_geom_bond_atom_site_label_1
_geom_bond_atom_site_label_2
_geom_bond_site_symmetry_1
_geom_bond_site_symmetry_2
Co1 O2 1_555 1_555
Co2 O1 1_555 1_555
Co3 O6 1_555 1_555
Co4 O1 1_555 1_555
O1 H40 1_555 1_555
O2 Co2 1_555 1_555
O3 Co4 1_555 1_555
O4 Co1 1_555 1_555
O5 C8 1_555 1_555
O6 C15 1_555 1_555
O7 C15 1_555 1_555
O8 C12 1_555 1_555
O9 C12 1_555 1_555
O10 C33 1_555 1_555
O11 C40 1_555 1_555
O12 Co1 1_555 1_555
O13 C44 1_555 1_555
O14 C47 1_555 1_555
O15 C47 1_555 1_555
O16 C33 1_555 1_555
N1 Co1 1_555 1_555
N2 C22 1_555 1_555
N3 Co3 1_555 1_555
N4 C30 1_555 1_555
C1 O3 1_555 1_555
C2 C1 1_555 1_555
C3 C2 1_555 1_555
H1 C3 1_555 1_555
C4 C3 1_555 1_555
H2 C4 1_555 1_555
C5 C4 1_555 1_555
C6 C5 1_555 1_555
H3 C6 1_555 1_555
C7 C2 1_555 1_555
H4 C7 1_555 1_555
C8 C5 1_555 1_555
H5 C8 1_555 1_555
H6 C8 1_555 1_555
C9 O5 1_555 1_555
C10 C9 1_555 1_555
H7 C10 1_555 1_555
C11 C10 1_555 1_555
C12 C11 1_555 1_555
C13 C11 1_555 1_555
H8 C13 1_555 1_555
C14 C13 1_555 1_555
C15 C14 1_555 1_555
C16 C9 1_555 1_555
H9 C16 1_555 1_555
C17 N1 1_555 1_555
H10 C17 1_555 1_555
C18 C17 1_555 1_555
H11 C18 1_555 1_555
C19 C18 1_555 1_555
C20 C19 1_555 1_555
H12 C20 1_555 1_555
C21 N1 1_555 1_555
H13 C21 1_555 1_555
C22 C19 1_555 1_555
H14 C22 1_555 1_555
H15 C22 1_555 1_555
C23 N2 1_555 1_555
H16 C23 1_555 1_555
H17 C23 1_555 1_555
C24 N2 1_555 1_555
H18 C24 1_555 1_555
H19 C24 1_555 1_555
C25 N3 1_555 1_555
H20 C25 1_555 1_555
C26 C25 1_555 1_555
H21 C26 1_555 1_555
C27 C26 1_555 1_555
C28 C27 1_555 1_555
H22 C28 1_555 1_555
C29 N3 1_555 1_555
H23 C29 1_555 1_555
C30 C27 1_555 1_555
H24 C30 1_555 1_555
H25 C30 1_555 1_555
C31 N4 1_555 1_555
H26 C31 1_555 1_555
H27 C31 1_555 1_555
C32 N4 1_555 1_555
H28 C32 1_555 1_555
H29 C32 1_555 1_555
C33 C34 1_555 1_555
C34 C35 1_555 1_555
C35 H30 1_555 1_555
C36 C35 1_555 1_555
H31 C36 1_555 1_555
C37 C36 1_555 1_555
C38 C37 1_555 1_555
H32 C38 1_555 1_555
C39 C34 1_555 1_555
H33 C39 1_555 1_555
C40 C37 1_555 1_555
H34 C40 1_555 1_555
H35 C40 1_555 1_555
C41 O11 1_555 1_555
C42 C41 1_555 1_555
H36 C42 1_555 1_555
C43 C42 1_555 1_555
C44 O12 1_555 1_555
C45 C43 1_555 1_555
H37 C45 1_555 1_555
C46 C45 1_555 1_555
C47 C46 1_555 1_555
C48 C41 1_555 1_555
H38 C48 1_555 1_555
O17 Co2 1_555 1_555
O18 Co4 1_555 1_555
O19 Co4 1_555 1_555
H39 O2 1_555 1_555
H41 O17 1_555 1_555
H42 O19 1_555 1_555
H43 O19 1_555 1_555
H44 O17 1_555 1_555
H45 O18 1_555 1_555
H46 O18 1_555 1_555
Co1_2 O2_2 1_555 1_555
Co1_3 O7 1_555 1_555
Co1A O9 1_555 1_555
Co1A_2 N1A 1_555 1_555
Co1A_3 O9_2 1_555 1_555
Co1_4 O12_2 1_555 1_555
Co2_2 O6 1_555 1_555
Co2_3 O8 1_555 1_555
Co2_4 O8_2 1_555 1_555
Co2_5 O1_3 1_555 1_555
Co3_2 O1 1_555 1_555
Co3A O15 1_555 1_555
Co3_3 O16 1_555 1_555
Co3_4 O13_2 1_555 1_555
Co3A_2 O15_2 1_555 1_555
Co4_2 O1_3 1_555 1_555
Co4_3 O12_2 1_555 1_555
Co4_4 O1_2 1_555 1_555
O1_2 Co3 1_555 1_555
O1_3 H40_3 1_555 1_555
O2_2 Co2_5 1_555 1_555
O2_3 Co1_3 1_555 1_555
O3_2 Co4_2 1_555 1_555
O4_2 Co1_2 1_555 1_555
O5_2 C8_2 1_555 1_555
O6_2 Co2 1_555 1_555
O7_2 Co1 1_555 1_555
O7_3 Co1_2 1_555 1_555
O8_2 C12_2 1_555 1_555
O8_3 Co2 1_555 1_555
O8_4 Co2_2 1_555 1_555
O9_2 C12_2 1_555 1_555
O9A Co1 1_555 1_555
O9A_2 Co1_2 1_555 1_555
O10_2 Co2 1_555 1_555
O10_3 Co2_2 1_555 1_555
O11_2 C40_2 1_555 1_555
O12_2 C44_2 1_555 1_555
O12_3 Co1_2 1_555 1_555
O13_2 C44_2 1_555 1_555
O13_3 Co3 1_555 1_555
O14_2 C47_2 1_555 1_555
O15_2 C47_2 1_555 1_555
O15A Co3 1_555 1_555
O15A_2 Co3_2 1_555 1_555
O16_2 Co3_2 1_555 1_555
O16_3 Co3 1_555 1_555
N1A C17A 1_555 1_555
N1_2 Co1_2 1_555 1_555
N2A C22A 1_555 1_555
N3A Co3A 1_555 1_555
N3_2 Co3_2 1_555 1_555
N4A C30A 1_555 1_555
C1_2 O3_2 1_555 1_555
C2_2 C1_2 1_555 1_555
C3_2 C2_2 1_555 1_555
H1_2 C3_2 1_555 1_555
C4_2 C3_2 1_555 1_555
H2_2 C4_2 1_555 1_555
C5_2 C4_2 1_555 1_555
C6_2 C5_2 1_555 1_555
H3_2 C6_2 1_555 1_555
C7_2 C2_2 1_555 1_555
H4_2 C7_2 1_555 1_555
C8_2 C5_2 1_555 1_555
H5_2 C8_2 1_555 1_555
H6_2 C8_2 1_555 1_555
C9_2 O5_2 1_555 1_555
C10_2 C9_2 1_555 1_555
H7_2 C10_2 1_555 1_555
C11_2 C10_2 1_555 1_555
C12_2 C11_2 1_555 1_555
C13_2 C11_2 1_555 1_555
H8_2 C13_2 1_555 1_555
C14_2 C13_2 1_555 1_555
C15_2 O6_2 1_555 1_555
C16_2 C9_2 1_555 1_555
H9_2 C16_2 1_555 1_555
C17A H10A 1_555 1_555
C18A C17A 1_555 1_555
H11A C18A 1_555 1_555
C19A C18A 1_555 1_555
C20A C19A 1_555 1_555
H12A C20A 1_555 1_555
C21A N1A 1_555 1_555
H13A C21A 1_555 1_555
C22A C19A 1_555 1_555
H14A C22A 1_555 1_555
H15A C22A 1_555 1_555
C23A C24 1_555 1_555
H16A C23A 1_555 1_555
H17A C23A 1_555 1_555
C24A C23 1_555 1_555
H18A C24A 1_555 1_555
H19A C24A 1_555 1_555
C25A N3A 1_555 1_555
H20A C25A 1_555 1_555
C26A C25A 1_555 1_555
H21A C26A 1_555 1_555
C27A C26A 1_555 1_555
C28A C27A 1_555 1_555
H22A C28A 1_555 1_555
C29A N3A 1_555 1_555
H23A C29A 1_555 1_555
C30A C27A 1_555 1_555
H24A C30A 1_555 1_555
H25A C30A 1_555 1_555
C31A C32 1_555 1_555
H26A C31A 1_555 1_555
H27A C31A 1_555 1_555
C32A C31 1_555 1_555
H28A C32A 1_555 1_555
H29A C32A 1_555 1_555
C33_2 O10_2 1_555 1_555
C34_2 C33_2 1_555 1_555
C35_2 C34_2 1_555 1_555
H30_2 C35_2 1_555 1_555
C36_2 C35_2 1_555 1_555
H31_2 C36_2 1_555 1_555
C37_2 C36_2 1_555 1_555
C38_2 C37_2 1_555 1_555
H32_2 C38_2 1_555 1_555
C39_2 C34_2 1_555 1_555
H33_2 C39_2 1_555 1_555
C40_2 C37_2 1_555 1_555
H34_2 C40_2 1_555 1_555
H35_2 C40_2 1_555 1_555
C41_2 O11_2 1_555 1_555
C42_2 C41_2 1_555 1_555
H36_2 C42_2 1_555 1_555
C43_2 C42_2 1_555 1_555
C44_2 C43_2 1_555 1_555
C45_2 C43_2 1_555 1_555
H37_2 C45_2 1_555 1_555
C46_2 C45_2 1_555 1_555
C47_2 C46_2 1_555 1_555
C48_2 C41_2 1_555 1_555
H38_2 C48_2 1_555 1_555
O17_2 Co2_2 1_555 1_555
O18_2 Co4_2 1_555 1_555
O19_2 Co4_2 1_555 1_555
H39_2 O2_2 1_555 1_555
H39_3 O2_3 1_555 1_555
H40_2 O1_2 1_555 1_555
H41_2 O17_2 1_555 1_555
H42_2 O19_2 1_555 1_555
H43_2 O19_2 1_555 1_555
H44_2 O17_2 1_555 1_555
H45_2 O18_2 1_555 1_555
H46_2 O18_2 1_555 1_555
Co4 O2 1_555 1_555
Co4 O12 1_555 1_555
O4 C1 1_555 1_555
O10 Co2_3 1_555 1_555
O13 Co3_2 1_555 1_555
C6 C7 1_555 1_555
C14 C16 1_555 1_555
C20 C21 1_555 1_555
C28 C29 1_555 1_555
C38 C39 1_555 1_555
C43 C44 1_555 1_555
C46 C48 1_555 1_555
Co2_2 O1_2 1_555 1_555
Co2_2 O2_3 1_555 1_555
Co3_2 O6_2 1_555 1_555
Co4_2 O2_2 1_555 1_555
Co4_2 O12_3 1_555 1_555
Co4_4 O2_3 1_555 1_555
O4_2 C1_2 1_555 1_555
O7_2 C15_2 1_555 1_555
O16_2 C33_2 1_555 1_555
N2A C23A 1_555 1_555
N2A C24A 1_555 1_555
N4A C31A 1_555 1_555
N4A C32A 1_555 1_555
C6_2 C7_2 1_555 1_555
C14_2 C15_2 1_555 1_555
C14_2 C16_2 1_555 1_555
C20A C21A 1_555 1_555
C28A C29A 1_555 1_555
C38_2 C39_2 1_555 1_555
C46_2 C48_2 1_555 1_555

#END
