
#######################################################################
#
#                 Cambridge Crystallographic Data Centre
#                                CCDC 
#
#######################################################################
#
# If this CIF has been generated from an entry in the Cambridge 
# Structural Database, then it will include bibliographic, chemical, 
# crystal, experimental, refinement or atomic coordinate data resulting 
# from the CCDC's data processing and validation procedures.
#
#######################################################################

data_DAXNEW01
_symmetry_cell_setting           monoclinic
_symmetry_space_group_name_H-M   'P 21/c'
_symmetry_Int_Tables_number      14
_space_group_name_Hall           '-P 2ybc'
loop_
_symmetry_equiv_pos_site_id
_symmetry_equiv_pos_as_xyz
1 x,y,z
2 -x,1/2+y,1/2-z
3 -x,-y,-z
4 x,1/2-y,1/2+z
_cell_length_a                   7.3340(14)
_cell_length_b                   21.958(4)
_cell_length_c                   11.623(2)
_cell_angle_alpha                90
_cell_angle_beta                 97.677(4)
_cell_angle_gamma                90
_cell_volume                     1854.99
loop_
_atom_site_label
_atom_site_type_symbol
_atom_site_fract_x
_atom_site_fract_y
_atom_site_fract_z
O1 O -0.5077(2) 0.15117(7) 0.42287(14)
O2 O -0.7342(2) 0.20936(8) 0.46427(16)
C1 C -0.5663(3) 0.19964(10) 0.46678(19)
C2 C -0.8297(3) 0.09249(12) 0.6651(2)
C3 C -0.8529(4) 0.14912(13) 0.7150(3)
C4 C -0.8849(4) 0.14974(16) 0.8288(3)
C5 C -0.8954(4) 0.09569(18) 0.8923(3)
C6 C -0.8724(4) 0.03970(15) 0.8442(2)
C7 C -0.8365(3) 0.03859(12) 0.7294(2)
C8 C -0.7771(3) 0.01725(10) 0.55350(19)
C9 C -0.7352(3) -0.01120(10) 0.4482(2)
C10 C -0.6852(3) -0.01509(11) 0.2698(2)
C11 C -0.6592(4) -0.00284(13) 0.1548(2)
C12 C -0.6196(4) -0.05183(14) 0.0884(2)
C13 C -0.6053(4) -0.11096(13) 0.1333(3)
C14 C -0.6293(4) -0.12375(12) 0.2461(3)
C15 C -0.6686(3) -0.07449(11) 0.3138(2)
C16 C -0.3500(3) 0.31898(11) 0.6737(2)
C17 C -0.4808(3) 0.28370(11) 0.6078(2)
C18 C -0.4279(3) 0.24299(10) 0.52687(19)
C19 C -0.2444(3) 0.24001(11) 0.5084(2)
C20 C -0.1152(3) 0.27677(11) 0.5718(2)
C21 C -0.1662(3) 0.31502(10) 0.6569(2)
C22 C -0.0205(3) 0.34838(11) 0.7361(2)
H1 H -0.857(4) 0.1882(16) 0.668(3)
H2 H -0.902(4) 0.1841(16) 0.861(3)
H3 H -0.922(4) 0.0982(15) 0.972(3)
H4 H -0.878(5) 0.0043(19) 0.886(3)
H5 H -0.827(4) -0.0457(16) 0.675(3)
H6 H -0.677(4) -0.0932(16) 0.482(3)
H7 H -0.620(4) -0.1651(16) 0.277(3)
H8 H -0.581(4) -0.1418(16) 0.090(3)
H9 H -0.605(4) -0.0467(14) 0.013(3)
H10 H -0.676(4) 0.0351(15) 0.124(3)
H11 H -0.384(4) 0.3433(13) 0.728(2)
H12 H -0.605(4) 0.2854(12) 0.623(2)
H13 H -0.207(3) 0.2143(12) 0.456(2)
H14 H 0.002(3) 0.2754(12) 0.557(2)
N1 N -0.7935(2) 0.07759(9) 0.55404(16)
N2 N -0.8015(3) -0.00819(10) 0.65598(17)
N3 N -0.7267(3) 0.02388(8) 0.35587(16)
N4 N -0.7030(3) -0.07028(9) 0.42803(18)
O3 O 0.1429(2) 0.34750(9) 0.71665(16)
O4 O -0.0649(2) 0.37420(8) 0.82602(16)
Zn1 Zn -0.77462(3) 0.115540(12) 0.38891(2)
O3C O -0.8571(2) 0.15250(9) 0.21665(16)
O4C O -1.0649(2) 0.12580(8) 0.32602(16)
Zn1C Zn 0.22538(3) 0.384460(12) 0.88891(2)
loop_
_geom_bond_atom_site_label_1
_geom_bond_atom_site_label_2
_geom_bond_site_symmetry_1
_geom_bond_site_symmetry_2
O1 C1 1_555 1_555
O2 C1 1_555 1_555
C1 C18 1_555 1_555
C2 C3 1_555 1_555
C3 C4 1_555 1_555
C4 C5 1_555 1_555
C5 C6 1_555 1_555
C6 C7 1_555 1_555
C7 C2 1_555 1_555
C8 C9 1_555 1_555
C9 N3 1_555 1_555
C10 C11 1_555 1_555
C11 C12 1_555 1_555
C12 C13 1_555 1_555
C13 C14 1_555 1_555
C14 C15 1_555 1_555
C15 C10 1_555 1_555
C16 C17 1_555 1_555
C17 C18 1_555 1_555
C18 C19 1_555 1_555
C19 C20 1_555 1_555
C20 C21 1_555 1_555
C21 C16 1_555 1_555
C22 C21 1_555 1_555
H1 C3 1_555 1_555
H2 C4 1_555 1_555
H3 C5 1_555 1_555
H4 C6 1_555 1_555
H5 N2 1_555 1_555
H6 N4 1_555 1_555
H7 C14 1_555 1_555
H8 C13 1_555 1_555
H9 C12 1_555 1_555
H10 C11 1_555 1_555
H11 C16 1_555 1_555
H12 C17 1_555 1_555
H13 C19 1_555 1_555
H14 C20 1_555 1_555
N1 C2 1_555 1_555
N2 C7 1_555 1_555
N3 C10 1_555 1_555
N4 C9 1_555 1_555
O3 C22 1_555 1_555
O4 C22 1_555 1_555
Zn1 O1 1_555 1_555
O3C Zn1 1_555 1_555
O4C Zn1 1_555 1_555
Zn1C O3 1_555 1_555
O2 Zn1 1_555 1_555
C8 N1 1_555 1_555
C8 N2 1_555 1_555
C15 N4 1_555 1_555
N1 Zn1 1_555 1_555
N3 Zn1 1_555 1_555
O4 Zn1C 1_555 1_555

#END
