
#######################################################################
#
#                 Cambridge Crystallographic Data Centre
#                                CCDC 
#
#######################################################################
#
# If this CIF has been generated from an entry in the Cambridge 
# Structural Database, then it will include bibliographic, chemical, 
# crystal, experimental, refinement or atomic coordinate data resulting 
# from the CCDC's data processing and validation procedures.
#
#######################################################################

data_DAXNOH
_symmetry_cell_setting           monoclinic
_symmetry_space_group_name_H-M   'P 21/n'
_symmetry_Int_Tables_number      14
_space_group_name_Hall           '-P 2yn'
loop_
_symmetry_equiv_pos_site_id
_symmetry_equiv_pos_as_xyz
1 x,y,z
2 1/2-x,1/2+y,1/2-z
3 -x,-y,-z
4 1/2+x,1/2-y,1/2+z
_cell_length_a                   9.6603(14)
_cell_length_b                   10.6821(15)
_cell_length_c                   11.9029(17)
_cell_angle_alpha                90
_cell_angle_beta                 110.087(2)
_cell_angle_gamma                90
_cell_volume                     1153.57
loop_
_atom_site_label
_atom_site_type_symbol
_atom_site_fract_x
_atom_site_fract_y
_atom_site_fract_z
Hg1 Hg 0.492651(15) 0.485709(12) 0.157463(11)
Cl1 Cl 0.69371(9) 0.46429(8) 0.05953(7)
Cl2 Cl 0.51616(10) 0.66959(7) 0.27498(7)
S1 S 0.44274(8) 0.26868(7) 0.20433(7)
C1 C 0.6011(4) 0.1784(3) 0.1949(3)
C2 C 0.5500(3) 0.0854(3) 0.0943(3)
C3 C 0.5176(4) -0.0365(3) 0.1157(3)
C4 C 0.5322(4) 0.1217(3) -0.0223(3)
C5 C 0.4692(3) 0.2770(3) 0.3669(3)
C6 C 0.4438(5) 0.1454(4) 0.4055(4)
C7 C 0.6212(4) 0.3268(4) 0.4393(3)
C8 C 0.3478(4) 0.3650(4) 0.3734(4)
H1 H 0.669(3) 0.239(3) 0.182(2)
H2 H 0.640(3) 0.138(3) 0.268(3)
H3 H 0.527(4) -0.063(3) 0.195(3)
H4 H 0.556(3) 0.201(3) -0.034(3)
H5 H 0.438(5) 0.146(4) 0.484(4)
H6 H 0.345(4) 0.111(4) 0.347(3)
H7 H 0.520(4) 0.095(4) 0.399(3)
H8 H 0.628(4) 0.331(3) 0.528(3)
H9 H 0.696(4) 0.274(3) 0.427(3)
H10 H 0.642(4) 0.406(4) 0.412(3)
H11 H 0.253(4) 0.332(4) 0.327(3)
H12 H 0.367(4) 0.455(4) 0.348(3)
H13 H 0.346(4) 0.371(3) 0.451(3)
Hg1B Hg 0.507349(15) 0.514291(12) -0.157463(11)
Hg1B_2 Hg 0.507349(15) -0.485709(12) -0.157463(11)
Cl1B Cl 0.30629(9) 0.53571(8) -0.05953(7)
Cl2B Cl 0.48384(10) 0.33041(7) -0.27498(7)
S1B S 0.55726(8) -0.26868(7) -0.20433(7)
S1B_2 S 0.55726(8) 0.73132(7) -0.20433(7)
C1B C 0.3989(4) -0.1784(3) -0.1949(3)
C2B C 0.4500(3) -0.0854(3) -0.0943(3)
C3B C 0.4824(4) 0.0365(3) -0.1157(3)
C4B C 0.4678(4) -0.1217(3) 0.0223(3)
C5B C 0.5308(3) -0.2770(3) -0.3669(3)
C6B C 0.5562(5) -0.1454(4) -0.4055(4)
C7B C 0.3788(4) -0.3268(4) -0.4393(3)
C8B C 0.6522(4) -0.3650(4) -0.3734(4)
H1B H 0.331(3) -0.239(3) -0.182(2)
H2B H 0.360(3) -0.138(3) -0.268(3)
H3B H 0.473(4) 0.063(3) -0.195(3)
H4B H 0.444(3) -0.201(3) 0.034(3)
H5B H 0.562(5) -0.146(4) -0.484(4)
H6B H 0.655(4) -0.111(4) -0.347(3)
H7B H 0.480(4) -0.095(4) -0.399(3)
H8B H 0.372(4) -0.331(3) -0.528(3)
H9B H 0.304(4) -0.274(3) -0.427(3)
H10B H 0.358(4) -0.406(4) -0.412(3)
H11B H 0.747(4) -0.332(4) -0.327(3)
H12B H 0.633(4) -0.455(4) -0.348(3)
H13B H 0.654(4) -0.371(3) -0.451(3)
loop_
_geom_bond_atom_site_label_1
_geom_bond_atom_site_label_2
_geom_bond_site_symmetry_1
_geom_bond_site_symmetry_2
Hg1 Cl1 1_555 1_555
Cl1 Hg1B 1_555 1_555
Cl2 Hg1 1_555 1_555
S1 Hg1 1_555 1_555
C1 S1 1_555 1_555
C2 C1 1_555 1_555
C3 C2 1_555 1_555
C4 C2 1_555 1_555
C5 S1 1_555 1_555
C6 C5 1_555 1_555
C7 C5 1_555 1_555
C8 C5 1_555 1_555
H1 C1 1_555 1_555
H2 C1 1_555 1_555
H3 C3 1_555 1_555
H4 C4 1_555 1_555
H5 C6 1_555 1_555
H6 C6 1_555 1_555
H7 C6 1_555 1_555
H8 C7 1_555 1_555
H9 C7 1_555 1_555
H10 C7 1_555 1_555
H11 C8 1_555 1_555
H12 C8 1_555 1_555
H13 C8 1_555 1_555
Hg1B Cl1B 1_555 1_555
Hg1B_2 S1B 1_555 1_555
Cl1B Hg1 1_555 1_555
Cl2B Hg1B 1_555 1_555
S1B C1B 1_555 1_555
S1B_2 Hg1B 1_555 1_555
C1B C2B 1_555 1_555
C2B C3B 1_555 1_555
C3B C4 1_555 1_555
C4B C3 1_555 1_555
C5B S1B 1_555 1_555
C6B C5B 1_555 1_555
C7B C5B 1_555 1_555
C8B C5B 1_555 1_555
H1B C1B 1_555 1_555
H2B C1B 1_555 1_555
H3B C3B 1_555 1_555
H4B C4B 1_555 1_555
H5B C6B 1_555 1_555
H6B C6B 1_555 1_555
H7B C6B 1_555 1_555
H8B C7B 1_555 1_555
H9B C7B 1_555 1_555
H10B C7B 1_555 1_555
H11B C8B 1_555 1_555
H12B C8B 1_555 1_555
H13B C8B 1_555 1_555
C2B C4B 1_555 1_555

#END
