
#######################################################################
#
#                 Cambridge Crystallographic Data Centre
#                                CCDC 
#
#######################################################################
#
# If this CIF has been generated from an entry in the Cambridge 
# Structural Database, then it will include bibliographic, chemical, 
# crystal, experimental, refinement or atomic coordinate data resulting 
# from the CCDC's data processing and validation procedures.
#
#######################################################################

data_DAXNIB
_symmetry_cell_setting           triclinic
_symmetry_space_group_name_H-M   'P -1'
_symmetry_Int_Tables_number      2
_space_group_name_Hall           '-P 1'
loop_
_symmetry_equiv_pos_site_id
_symmetry_equiv_pos_as_xyz
1 x,y,z
2 -x,-y,-z
_cell_length_a                   8.005(2)
_cell_length_b                   10.744(5)
_cell_length_c                   14.402(5)
_cell_angle_alpha                97.640(3)
_cell_angle_beta                 91.050(5)
_cell_angle_gamma                109.285(2)
_cell_volume                     1156.2
loop_
_atom_site_label
_atom_site_type_symbol
_atom_site_fract_x
_atom_site_fract_y
_atom_site_fract_z
Co1 Co 0.55185(5) 0.73855(4) 0.46103(3)
Co2 Co 0.50777(5) 1.01920(4) 0.61212(3)
O1 O 0.7811(3) 0.7191(2) 0.52977(17)
H1 H 0.8591 0.7255 0.4928
O2 O 0.4584(3) 0.5273(2) 0.40181(16)
H2 H 0.3749 0.4868 0.4305
O3 O 0.6244(3) 0.9381(2) 0.50343(15)
O4 O 0.6956(3) 0.7490(2) 0.34607(15)
O5 O 0.6118(3) 0.8962(2) 0.27756(15)
O6 O 0.6614(3) 0.22079(19) -0.38901(14)
O7 O 0.9200(3) 0.2065(2) -0.43465(15)
O8 O 0.9006(3) 0.6219(2) -0.12768(15)
O9 O 1.3874(3) 0.6703(2) -0.43417(14)
O10 O 1.3111(3) 0.8431(2) -0.36736(15)
N1 N 0.6709(3) 1.0003(2) 0.72498(18)
C1 C 0.6633(4) 0.7975(3) 0.2752(2)
C2 C 0.6874(4) 0.7293(3) 0.1807(2)
C3 C 0.6313(4) 0.7637(3) 0.0982(2)
H3 H 0.5817 0.8311 0.1017
C4 C 0.6487(4) 0.6986(3) 0.0120(2)
H4 H 0.6083 0.7211 -0.0421
C5 C 0.7259(4) 0.5996(3) 0.0047(2)
C6 C 0.7818(4) 0.5650(3) 0.0870(2)
H5 H 0.8335 0.4988 0.0832
C7 C 0.7610(4) 0.6283(3) 0.1742(2)
H6 H 0.7964 0.6030 0.2285
C8 C 0.7495(4) 0.5320(3) -0.0900(2)
H7 H 0.7697 0.4491 -0.0840
H8 H 0.6441 0.5120 -0.1314
C9 C 0.8292(4) 0.2694(3) -0.3964(2)
C10 C 0.9163(4) 0.4111(3) -0.3497(2)
C11 C 0.8530(4) 0.4529(3) -0.2661(2)
H9 H 0.7512 0.3972 -0.2438
C12 C 0.9428(4) 0.5783(3) -0.2161(2)
C13 C 1.0840(4) 0.6678(3) -0.2543(2)
H10 H 1.1380 0.7542 -0.2233
C14 C 1.1426(4) 0.6262(3) -0.3390(2)
C15 C 1.0643(4) 0.4966(3) -0.3854(2)
H11 H 1.1103 0.4675 -0.4396
C16 C 1.2923(4) 0.7227(3) -0.3834(2)
C17 C 0.7527(4) 1.1044(3) 0.7921(2)
H12 H 0.7413 1.1864 0.7860
C18 C 0.8517(4) 1.0971(3) 0.8689(2)
H13 H 0.9053 1.1727 0.9127
C19 C 0.8713(4) 0.9756(3) 0.8808(2)
C20 C 0.7876(4) 0.8682(3) 0.8107(2)
H14 H 0.7986 0.7854 0.8141
C21 C 0.6888(4) 0.8840(3) 0.7363(2)
H15 H 0.6318 0.8099 0.6920
C22 C 0.9727(4) 0.9576(3) 0.9607(2)
H16 H 1.0011 0.8798 0.9556
H19 H 0.522(6) 0.490(4) 0.405(3)
H20 H 0.816(6) 0.776(4) 0.558(3)
H21 H 0.708(5) 0.972(4) 0.506(3)
Co1A Co 0.44815(5) 0.26145(4) -0.46103(3)
Co1_2 Co 1.55185(5) 0.73855(4) -0.53897(3)
Co1A_2 Co -0.55185(5) 0.26145(4) 0.53897(3)
Co1A_3 Co 0.44815(5) 1.26145(4) 0.53897(3)
Co2A Co 0.49223(5) 0.98080(4) 0.38788(3)
Co2_2 Co 0.50777(5) 0.01920(4) -0.38788(3)
Co2_3 Co 1.50777(5) 1.01920(4) -0.38788(3)
Co2A_2 Co 1.49223(5) 0.98080(4) 1.38788(3)
Co2A_3 Co -0.50777(5) -0.01920(4) 0.38788(3)
O1A O 0.2189(3) 0.2809(2) -0.52977(17)
H1A H 0.1409 0.2745 -0.4928
O2A O 0.5416(3) 0.4727(2) -0.40181(16)
H2A H 0.6251 0.5132 -0.4305
O3A O 0.3756(3) 1.0619(2) 0.49657(15)
O3A_2 O 0.3756(3) 0.0619(2) -0.50343(15)
O4A O 0.3044(3) 0.2510(2) -0.34607(15)
O5A O 0.3882(3) 0.1038(2) -0.27756(15)
O5A_2 O 0.3882(3) 1.1038(2) 0.72244(15)
O6A O 0.3386(3) 0.77921(19) 0.38901(14)
O6_2 O 0.6614(3) 1.22079(19) 0.61099(14)
O7A O 0.0800(3) 0.7935(2) 0.43465(15)
O8A O 0.0994(3) 0.3781(2) 0.12768(15)
O9A O -0.3874(3) 0.3297(2) 0.43417(14)
O9_2 O 0.3874(3) 0.6703(2) 0.56583(14)
O9A_2 O 0.6126(3) 0.3297(2) -0.56583(14)
O10A O -0.3111(3) 0.1569(2) 0.36736(15)
O10_2 O 0.3111(3) 0.8431(2) 0.63264(15)
O10A_2 O 0.6889(3) 1.1569(2) 0.36736(15)
N1A N 1.3291(3) 0.9997(2) 1.27502(18)
N1A_2 N 0.3291(3) 0.9997(2) 0.27502(18)
C1A C 0.3367(4) 0.2025(3) -0.2752(2)
C2A C 0.3126(4) 0.2707(3) -0.1807(2)
C3A C 0.3687(4) 0.2363(3) -0.0982(2)
H3A H 0.4183 0.1689 -0.1017
C4A C 0.3513(4) 0.3014(3) -0.0120(2)
H4A H 0.3917 0.2789 0.0421
C5A C 0.2741(4) 0.4004(3) -0.0047(2)
C6A C 0.2182(4) 0.4350(3) -0.0870(2)
H5A H 0.1665 0.5012 -0.0832
C7A C 0.2390(4) 0.3717(3) -0.1742(2)
H6A H 0.2036 0.3970 -0.2285
C8A C 0.2505(4) 0.4680(3) 0.0900(2)
H7A H 0.2303 0.5509 0.0840
H8A H 0.3559 0.4880 0.1314
C9A C 0.1708(4) 0.7306(3) 0.3964(2)
C10A C 0.0837(4) 0.5889(3) 0.3497(2)
C11A C 0.1470(4) 0.5471(3) 0.2661(2)
H9A H 0.2488 0.6028 0.2438
C12A C 0.0572(4) 0.4217(3) 0.2161(2)
C13A C -0.0840(4) 0.3322(3) 0.2543(2)
H10A H -0.1380 0.2458 0.2233
C14A C -0.1426(4) 0.3738(3) 0.3390(2)
C15A C -0.0643(4) 0.5034(3) 0.3854(2)
H11A H -0.1103 0.5325 0.4396
C16A C -0.2923(4) 0.2773(3) 0.3834(2)
C17A C 1.2473(4) 0.8956(3) 1.2079(2)
H12A H 1.2587 0.8136 1.2140
C18A C 1.1483(4) 0.9029(3) 1.1311(2)
H13A H 1.0947 0.8273 1.0873
C19A C 1.1287(4) 1.0244(3) 1.1192(2)
C20A C 1.2124(4) 1.1318(3) 1.1893(2)
H14A H 1.2014 1.2146 1.1859
C21A C 1.3112(4) 1.1160(3) 1.2637(2)
H15A H 1.3682 1.1901 1.3080
C22A C 1.0273(4) 1.0424(3) 1.0393(2)
H16A H 0.9989 1.1202 1.0444
H19A H 0.478(6) 0.510(4) -0.405(3)
H20A H 0.184(6) 0.224(4) -0.558(3)
H21A H 0.292(5) 1.028(4) 0.494(3)
H21A_2 H 0.292(5) 0.028(4) -0.506(3)
O11 O 0.0090(4) 0.9591(3) 0.6223(2)
H17 H 0.020(9) 1.047(8) 0.627(5)
H18 H 0.092(6) 0.950(4) 0.641(3)
loop_
_geom_bond_atom_site_label_1
_geom_bond_atom_site_label_2
_geom_bond_site_symmetry_1
_geom_bond_site_symmetry_2
Co1 O1 1_555 1_555
Co2 O3 1_555 1_555
O1 H1 1_555 1_555
O2 Co1 1_555 1_555
H2 O2 1_555 1_555
O3 Co1 1_555 1_555
O4 Co1 1_555 1_555
O5 C1 1_555 1_555
O6 C9 1_555 1_555
O7 C9 1_555 1_555
O8 C8 1_555 1_555
O9 C16 1_555 1_555
O10 C16 1_555 1_555
O11 H17 1_555 1_555
N1 Co2 1_555 1_555
C1 O4 1_555 1_555
C2 C1 1_555 1_555
C3 C2 1_555 1_555
H3 C3 1_555 1_555
C4 C3 1_555 1_555
H4 C4 1_555 1_555
C5 C4 1_555 1_555
C6 C5 1_555 1_555
H5 C6 1_555 1_555
C7 C2 1_555 1_555
H6 C7 1_555 1_555
C8 C5 1_555 1_555
H7 C8 1_555 1_555
H8 C8 1_555 1_555
C9 C10 1_555 1_555
C10 C11 1_555 1_555
C11 H9 1_555 1_555
C12 O8 1_555 1_555
C13 C12 1_555 1_555
H10 C13 1_555 1_555
C14 C13 1_555 1_555
C15 C10 1_555 1_555
H11 C15 1_555 1_555
C16 C14 1_555 1_555
C17 N1 1_555 1_555
H12 C17 1_555 1_555
C18 C17 1_555 1_555
H13 C18 1_555 1_555
C19 C18 1_555 1_555
C20 C19 1_555 1_555
H14 C20 1_555 1_555
C21 N1 1_555 1_555
H15 C21 1_555 1_555
C22 C19 1_555 1_555
H16 C22 1_555 1_555
H18 O11 1_555 1_555
H19 O2 1_555 1_555
H20 O1 1_555 1_555
H21 O3 1_555 1_555
Co1A O6 1_555 1_555
Co1_2 O9 1_555 1_555
Co1A_2 O9A 1_555 1_555
Co1A_3 O3A 1_555 1_555
Co2A O3 1_555 1_555
Co2_2 O6 1_555 1_555
Co2_3 O10 1_555 1_555
Co2A_2 N1A 1_555 1_555
Co2A_3 O10A 1_555 1_555
O1A Co1A 1_555 1_555
H1A O1A 1_555 1_555
O2A Co1A 1_555 1_555
H2A O2A 1_555 1_555
O3A Co2 1_555 1_555
O3A_2 Co1A 1_555 1_555
O4A Co1A 1_555 1_555
O5A Co2_2 1_555 1_555
O5A_2 Co2 1_555 1_555
O6A Co1 1_555 1_555
O6_2 Co2 1_555 1_555
O7A C9A 1_555 1_555
O8A C8A 1_555 1_555
O9A C16A 1_555 1_555
O9_2 Co1 1_555 1_555
O9A_2 Co1A 1_555 1_555
O10A C16A 1_555 1_555
O10_2 Co2 1_555 1_555
O10A_2 Co2A 1_555 1_555
N1A C17A 1_555 1_555
N1A_2 Co2A 1_555 1_555
C1A O4A 1_555 1_555
C2A C1A 1_555 1_555
C3A C2A 1_555 1_555
H3A C3A 1_555 1_555
C4A C3A 1_555 1_555
H4A C4A 1_555 1_555
C5A C4A 1_555 1_555
C6A C5A 1_555 1_555
H5A C6A 1_555 1_555
C7A C2A 1_555 1_555
H6A C7A 1_555 1_555
C8A C5A 1_555 1_555
H7A C8A 1_555 1_555
H8A C8A 1_555 1_555
C9A O6A 1_555 1_555
C10A C9A 1_555 1_555
C11A C10A 1_555 1_555
H9A C11A 1_555 1_555
C12A O8A 1_555 1_555
C13A C12A 1_555 1_555
H10A C13A 1_555 1_555
C14A C13A 1_555 1_555
C15A C10A 1_555 1_555
H11A C15A 1_555 1_555
C16A C14A 1_555 1_555
C17A H12A 1_555 1_555
C18A C17A 1_555 1_555
H13A C18A 1_555 1_555
C19A C18A 1_555 1_555
C20A C19A 1_555 1_555
H14A C20A 1_555 1_555
C21A N1A 1_555 1_555
H15A C21A 1_555 1_555
C22A C22 1_555 1_555
H16A C22A 1_555 1_555
H19A O2A 1_555 1_555
H20A O1A 1_555 1_555
H21A O3A 1_555 1_555
H21A_2 O3A_2 1_555 1_555
O5 Co2A 1_555 1_555
C6 C7 1_555 1_555
C11 C12 1_555 1_555
C14 C15 1_555 1_555
C20 C21 1_555 1_555
Co1A_3 O6_2 1_555 1_555
Co2A O3A 1_555 1_555
Co2A O6A 1_555 1_555
Co2_2 O3A_2 1_555 1_555
O5A C1A 1_555 1_555
C6A C7A 1_555 1_555
C11A C12A 1_555 1_555
C14A C15A 1_555 1_555
C19A C22A 1_555 1_555
C20A C21A 1_555 1_555

#END
