
#######################################################################
#
#                 Cambridge Crystallographic Data Centre
#                                CCDC 
#
#######################################################################
#
# If this CIF has been generated from an entry in the Cambridge 
# Structural Database, then it will include bibliographic, chemical, 
# crystal, experimental, refinement or atomic coordinate data resulting 
# from the CCDC's data processing and validation procedures.
#
#######################################################################

data_DAXQAW
_symmetry_cell_setting           monoclinic
_symmetry_space_group_name_H-M   'P 21/n'
_symmetry_Int_Tables_number      14
_space_group_name_Hall           '-P 2yn'
loop_
_symmetry_equiv_pos_site_id
_symmetry_equiv_pos_as_xyz
1 x,y,z
2 1/2-x,1/2+y,1/2-z
3 -x,-y,-z
4 1/2+x,1/2-y,1/2+z
_cell_length_a                   20.704(5)
_cell_length_b                   7.933(2)
_cell_length_c                   32.877(8)
_cell_angle_alpha                90
_cell_angle_beta                 106.526(3)
_cell_angle_gamma                90
_cell_volume                     5176.81
loop_
_atom_site_label
_atom_site_type_symbol
_atom_site_fract_x
_atom_site_fract_y
_atom_site_fract_z
Ce1 Ce 0.25046(9) 0.08871(2) 0.230629(6)
C1 C 0.36239(18) 0.3212(5) 0.22925(11)
C2 C 0.4126(2) 0.4416(6) 0.22003(15)
H1 H 0.428 0.5211 0.2441
H2 H 0.4523 0.3775 0.2175
C3 C 0.3842(3) 0.5375(9) 0.1808(2)
H3 H 0.3673 0.4593 0.1571
H4 H 0.4192 0.6092 0.1752
H5 H 0.3471 0.6081 0.184
C4 C 0.12440(17) 0.2853(4) 0.21428(11)
C5 C 0.06415(18) 0.3974(5) 0.20313(13)
H6 H 0.0722 0.4895 0.1848
H7 H 0.0595 0.4493 0.2295
C6 C -0.0013(2) 0.3124(6) 0.18071(16)
H8 H 0.0033 0.2553 0.1552
H9 H -0.0371 0.3971 0.1726
H10 H -0.0126 0.2296 0.1997
C7 C 0.20950(19) -0.2651(5) 0.16387(11)
C8 C 0.1888(3) -0.3110(6) 0.11698(13)
H11 H 0.1898 -0.2079 0.1002
H12 H 0.2222 -0.3909 0.1117
C9 C 0.1207(3) -0.3880(8) 0.10189(16)
H13 H 0.118 -0.4849 0.1198
H14 H 0.1126 -0.4253 0.0724
H15 H 0.0866 -0.3044 0.1035
O1 O 0.36735(12) 0.1669(3) 0.22410(8)
O2 O 0.31355(12) 0.3794(3) 0.24167(8)
O3 O 0.17825(11) 0.3367(3) 0.24180(7)
O4 O 0.12343(12) 0.1448(3) 0.19702(8)
O5 O 0.22530(13) -0.1148(3) 0.17358(8)
O6 O 0.21105(13) -0.3834(3) 0.18973(7)
O7 O 0.23148(12) 0.2650(3) 0.16187(7)
H58 H 0.2236 0.3651 0.1665
H59 H 0.2005 0.2333 0.137
Ce1A Ce 0.24954(9) -0.41129(2) 0.269371(6)
Ce1A_2 Ce 0.24954(9) 0.58871(2) 0.269371(6)
C1A C 0.13761(18) -0.1788(5) 0.27075(11)
C2A C 0.0874(2) -0.0584(6) 0.27997(15)
H1A H 0.072 0.0211 0.2559
H2A H 0.0477 -0.1225 0.2825
C3A C 0.1158(3) 0.0375(9) 0.3192(2)
H3A H 0.1327 -0.0407 0.3429
H4A H 0.0808 0.1092 0.3248
H5A H 0.1529 0.1081 0.316
C4A C 0.37560(17) -0.2147(4) 0.28572(11)
C5A C 0.43585(18) -0.1026(5) 0.29687(13)
H6A H 0.4278 -0.0105 0.3152
H7A H 0.4405 -0.0507 0.2705
C6A C 0.5013(2) -0.1876(6) 0.31929(16)
H8A H 0.4967 -0.2447 0.3448
H9A H 0.5371 -0.1029 0.3274
H10A H 0.5126 -0.2704 0.3003
C7A C 0.29050(19) 0.2349(5) 0.33613(11)
C8A C 0.3112(3) 0.1890(6) 0.38302(13)
H11A H 0.3102 0.2921 0.3998
H12A H 0.2778 0.1091 0.3883
C9A C 0.3793(3) 0.1120(8) 0.39811(16)
H13A H 0.382 0.0151 0.3802
H14A H 0.3874 0.0747 0.4276
H15A H 0.4134 0.1956 0.3965
O1A O 0.13265(12) -0.3331(3) 0.27590(8)
O2A O 0.18645(12) -0.1206(3) 0.25833(8)
O2_2 O 0.31355(12) -0.6206(3) 0.24167(8)
O3A O 0.32175(11) -0.1633(3) 0.25820(7)
O3_2 O 0.17825(11) -0.6633(3) 0.24180(7)
O4A O 0.37657(12) -0.3552(3) 0.30298(8)
O5A O 0.27470(13) 0.3852(3) 0.32642(8)
O5A_2 O 0.27470(13) -0.6148(3) 0.32642(8)
O6A O 0.28895(13) 0.1166(3) 0.31027(7)
O7A O 0.26852(12) -0.2350(3) 0.33813(7)
H58A H 0.2764 -0.1349 0.3335
H59A H 0.2995 -0.2667 0.363
Ce2 Ce 0.752443(10) 0.56330(2) 0.420143(6)
Ce3 Ce 0.743710(9) 0.06268(2) 0.378760(6)
C10 C 0.87227(17) 0.3369(4) 0.44244(11)
C11 C 0.92448(18) 0.2024(5) 0.45824(12)
H16 H 0.9433 0.1704 0.4348
H17 H 0.902 0.1016 0.4657
C12 C 0.98228(19) 0.2515(5) 0.49649(13)
H18 H 1.006 0.349 0.4893
H19 H 1.0137 0.1567 0.5046
H20 H 0.9645 0.2805 0.5202
C13 C 0.64065(18) 0.7954(5) 0.42092(11)
C14 C 0.5992(2) 0.9348(6) 0.43190(15)
H21 H 0.6215 1.0435 0.4298
H22 H 0.5547 0.9361 0.4103
C15 C 0.5881(3) 0.9250(7) 0.47416(18)
H23 H 0.5572 0.832 0.4747
H24 H 0.5686 1.0312 0.4803
H25 H 0.6313 0.9053 0.4956
C16 C 0.7817(2) 0.9217(5) 0.48623(12)
C17 C 0.7891(3) 0.9642(6) 0.53353(16)
H26 H 0.7551 1.0493 0.5355
H27 H 0.7819 0.8616 0.5488
C18 C 0.8557(3) 1.0288(9) 0.5521(2)
H28 H 0.8889 0.9441 0.5497
H29 H 0.8617 1.0547 0.582
H30 H 0.862 1.1316 0.5371
C19 C 0.86219(17) 0.8501(5) 0.38133(11)
C20 C 0.92113(19) 0.7413(5) 0.38128(14)
H31 H 0.9067 0.6564 0.3584
H32 H 0.9359 0.6801 0.4086
C21 C 0.9806(2) 0.8388(6) 0.37486(15)
H33 H 0.9672 0.8949 0.3472
H34 H 1.0178 0.7608 0.376
H35 H 0.9952 0.9234 0.3973
C22 C 0.62338(17) 0.2772(5) 0.36526(11)
C23 C 0.5659(2) 0.3994(6) 0.35449(15)
H36 H 0.5607 0.4472 0.3812
H37 H 0.5775 0.4934 0.338
C24 C 0.5005(2) 0.3275(6) 0.32993(18)
H38 H 0.5044 0.2836 0.3029
H39 H 0.4659 0.4154 0.3245
H40 H 0.4879 0.2357 0.3461
C25 C 0.72793(17) 0.4223(4) 0.31469(11)
C26 C 0.7081(2) 0.4706(5) 0.26852(11)
H41 H 0.6929 0.5894 0.2658
H42 H 0.7483 0.4631 0.258
C27 C 0.6545(3) 0.3650(8) 0.24158(16)
H43 H 0.6666 0.2459 0.2467
H44 H 0.649 0.3917 0.2117
H45 H 0.6121 0.3869 0.2483
O8 O 0.81855(11) 0.2972(3) 0.41334(7)
O9 O 0.87963(12) 0.4833(3) 0.45662(7)
O10 O 0.64181(13) 0.6518(3) 0.43696(8)
O11 O 0.67599(11) 0.8262(3) 0.39568(7)
O12 O 0.78550(13) 0.7709(3) 0.47725(7)
O13 O 0.76880(13) 1.0427(3) 0.45978(7)
O14 O 0.81490(11) 0.7875(3) 0.39474(7)
O15 O 0.85853(12) 0.9990(3) 0.36846(8)
O16 O 0.62059(12) 0.1445(3) 0.34463(8)
O17 O 0.67585(11) 0.3142(3) 0.39566(7)
O18 O 0.72957(13) 0.5383(3) 0.34149(7)
O19 O 0.74169(12) 0.2706(3) 0.32376(7)
O20 O 0.71468(12) -0.1270(3) 0.31569(7)
H60 H 0.6856 -0.1282 0.2918
H61 H 0.7139 -0.2398 0.3233
O21 O 0.75136(12) 0.3823(3) 0.48274(7)
H62 H 0.7574 0.2769 0.4748
H63 H 0.7779 0.3974 0.5066
Ce2_2 Ce 0.752443(10) 1.56330(2) 0.420143(6)
Ce2_3 Ce 0.752443(10) -0.43670(2) 0.420143(6)
Ce3_2 Ce 0.743710(9) 1.06268(2) 0.378760(6)
C10_2 C 0.87227(17) 1.3369(4) 0.44244(11)
C11_2 C 0.92448(18) 1.2024(5) 0.45824(12)
H16_2 H 0.9433 1.1704 0.4348
H17_2 H 0.902 1.1016 0.4657
C12_2 C 0.98228(19) 1.2515(5) 0.49649(13)
H18_2 H 1.006 1.349 0.4893
H19_2 H 1.0137 1.1567 0.5046
H20_2 H 0.9645 1.2805 0.5202
C13_2 C 0.64065(18) -0.2046(5) 0.42092(11)
C14_2 C 0.5992(2) -0.0652(6) 0.43190(15)
H21_2 H 0.6215 0.0435 0.4298
H22_2 H 0.5547 -0.0639 0.4103
C15_2 C 0.5881(3) -0.0750(7) 0.47416(18)
H23_2 H 0.5572 -0.168 0.4747
H24_2 H 0.5686 0.0312 0.4803
H25_2 H 0.6313 -0.0947 0.4956
C16_2 C 0.7817(2) -0.0783(5) 0.48623(12)
C17_2 C 0.7891(3) -0.0358(6) 0.53353(16)
H26_2 H 0.7551 0.0493 0.5355
H27_2 H 0.7819 -0.1384 0.5488
C18_2 C 0.8557(3) 0.0288(9) 0.5521(2)
H28_2 H 0.8889 -0.0559 0.5497
H29_2 H 0.8617 0.0547 0.582
H30_2 H 0.862 0.1316 0.5371
C19_2 C 0.86219(17) -0.1499(5) 0.38133(11)
C20_2 C 0.92113(19) -0.2587(5) 0.38128(14)
H31_2 H 0.9067 -0.3436 0.3584
H32_2 H 0.9359 -0.3199 0.4086
C21_2 C 0.9806(2) -0.1612(6) 0.37486(15)
H33_2 H 0.9672 -0.1051 0.3472
H34_2 H 1.0178 -0.2392 0.376
H35_2 H 0.9952 -0.0766 0.3973
C22_2 C 0.62338(17) 1.2772(5) 0.36526(11)
C23_2 C 0.5659(2) 1.3994(6) 0.35449(15)
H36_2 H 0.5607 1.4472 0.3812
H37_2 H 0.5775 1.4934 0.338
C24_2 C 0.5005(2) 1.3275(6) 0.32993(18)
H38_2 H 0.5044 1.2836 0.3029
H39_2 H 0.4659 1.4154 0.3245
H40_2 H 0.4879 1.2357 0.3461
C25_2 C 0.72793(17) 1.4223(4) 0.31469(11)
C26_2 C 0.7081(2) 1.4706(5) 0.26852(11)
H41_2 H 0.6929 1.5894 0.2658
H42_2 H 0.7483 1.4631 0.258
C27_2 C 0.6545(3) 1.3650(8) 0.24158(16)
H43_2 H 0.6666 1.2459 0.2467
H44_2 H 0.649 1.3917 0.2117
H45_2 H 0.6121 1.3869 0.2483
O8_2 O 0.81855(11) 1.2972(3) 0.41334(7)
O9_2 O 0.87963(12) 1.4833(3) 0.45662(7)
O10_2 O 0.64181(13) -0.3482(3) 0.43696(8)
O10_3 O 0.64181(13) 1.6518(3) 0.43696(8)
O11_2 O 0.67599(11) -0.1738(3) 0.39568(7)
O11_3 O 0.67599(11) 1.8262(3) 0.39568(7)
O12_2 O 0.78550(13) -0.2291(3) 0.47725(7)
O12_3 O 0.78550(13) 1.7709(3) 0.47725(7)
O13_2 O 0.76880(13) 0.0427(3) 0.45978(7)
O14_2 O 0.81490(11) -0.2125(3) 0.39474(7)
O14_3 O 0.81490(11) 1.7875(3) 0.39474(7)
O15_2 O 0.85853(12) -0.0010(3) 0.36846(8)
O16_2 O 0.62059(12) 1.1445(3) 0.34463(8)
O17_2 O 0.67585(11) 1.3142(3) 0.39566(7)
O18_2 O 0.72957(13) 1.5383(3) 0.34149(7)
O19_2 O 0.74169(12) 1.2706(3) 0.32376(7)
O20_2 O 0.71468(12) 0.8730(3) 0.31569(7)
H60_2 H 0.6856 0.8718 0.2918
H61_2 H 0.7139 0.7602 0.3233
O21_2 O 0.75136(12) 1.3823(3) 0.48274(7)
H62_2 H 0.7574 1.2769 0.4748
H63_2 H 0.7779 1.3974 0.5066
C28 C 0.55418(18) 0.8109(5) 0.16610(11)
H46 H 0.5523 0.7492 0.141
C29 C 0.61059(19) 0.8018(5) 0.20060(12)
H47 H 0.6472 0.7336 0.1984
C30 C 0.56445(19) 0.9785(5) 0.23912(12)
H48 H 0.5675 1.0373 0.2648
C31 C 0.50604(19) 0.9962(5) 0.20615(11)
H49 H 0.4704 1.0658 0.2093
C32 C 0.50026(17) 0.9103(5) 0.16819(11)
C33 C 0.43935(18) 0.9350(5) 0.13143(11)
C34 C 0.37780(19) 0.9810(5) 0.13695(12)
H50 H 0.3722 0.9877 0.1646
C35 C 0.3250(2) 1.0167(5) 0.10191(12)
H51 H 0.2835 1.0499 0.1063
C36 C 0.38689(19) 0.9571(5) 0.05681(12)
H52 H 0.3902 0.9459 0.0287
C37 C 0.44259(19) 0.9203(5) 0.09011(11)
H53 H 0.4832 0.8848 0.0847
N1 N 0.61655(15) 0.8844(4) 0.23718(10)
N2 N 0.32841(16) 1.0079(4) 0.06221(10)
C38 C 0.8586(2) 0.8708(6) 0.95284(13)
H54 H 0.8168 0.8415 0.9575
C39 C 0.9090(2) 0.9295(6) 0.98720(13)
H55 H 0.9009 0.942 1.0141
C40 C 0.97113(18) 0.9700(5) 0.98221(11)
C41 C 0.9775(2) 0.9503(7) 0.94174(13)
H56 H 1.0191 0.9751 0.9362
C42 C 0.9234(2) 0.8945(7) 0.90934(14)
H57 H 0.9292 0.8859 0.8818
N3 N 0.86413(16) 0.8520(4) 0.91397(10)
C38B C 1.1414(2) 1.1292(6) 1.04716(13)
H54B H 1.1832 1.1585 1.0425
C39B C 1.0910(2) 1.0705(6) 1.01280(13)
H55B H 1.0991 1.058 0.9859
C40B C 1.02887(18) 1.0300(5) 1.01779(11)
C41B C 1.0225(2) 1.0497(7) 1.05826(13)
H56B H 0.9809 1.0249 1.0638
C42B C 1.0766(2) 1.1055(7) 1.09066(14)
H57B H 1.0708 1.1141 1.1182
N3B N 1.13587(16) 1.1480(4) 1.08603(10)
loop_
_geom_bond_atom_site_label_1
_geom_bond_atom_site_label_2
_geom_bond_site_symmetry_1
_geom_bond_site_symmetry_2
Ce1 O1 1_555 1_555
Ce2 O8 1_555 1_555
Ce3 O8 1_555 1_555
C1 C2 1_555 1_555
C2 H1 1_555 1_555
H2 C2 1_555 1_555
C3 C2 1_555 1_555
H3 C3 1_555 1_555
H4 C3 1_555 1_555
H5 C3 1_555 1_555
C4 C5 1_555 1_555
C5 H6 1_555 1_555
H7 C5 1_555 1_555
C6 C5 1_555 1_555
H8 C6 1_555 1_555
H9 C6 1_555 1_555
H10 C6 1_555 1_555
C7 C8 1_555 1_555
C8 H11 1_555 1_555
H12 C8 1_555 1_555
C9 C8 1_555 1_555
H13 C9 1_555 1_555
H14 C9 1_555 1_555
H15 C9 1_555 1_555
C10 C11 1_555 1_555
C11 H16 1_555 1_555
H17 C11 1_555 1_555
C12 C11 1_555 1_555
H18 C12 1_555 1_555
H19 C12 1_555 1_555
H20 C12 1_555 1_555
C13 C14 1_555 1_555
C14 H21 1_555 1_555
H22 C14 1_555 1_555
C15 C14 1_555 1_555
H23 C15 1_555 1_555
H24 C15 1_555 1_555
H25 C15 1_555 1_555
C16 C17 1_555 1_555
C17 H26 1_555 1_555
H27 C17 1_555 1_555
C18 C17 1_555 1_555
H28 C18 1_555 1_555
H29 C18 1_555 1_555
H30 C18 1_555 1_555
C19 C20 1_555 1_555
C20 H31 1_555 1_555
H32 C20 1_555 1_555
C21 C20 1_555 1_555
H33 C21 1_555 1_555
H34 C21 1_555 1_555
H35 C21 1_555 1_555
C22 C23 1_555 1_555
C23 H36 1_555 1_555
H37 C23 1_555 1_555
C24 C23 1_555 1_555
H38 C24 1_555 1_555
H39 C24 1_555 1_555
H40 C24 1_555 1_555
C25 C26 1_555 1_555
C26 H41 1_555 1_555
H42 C26 1_555 1_555
C27 C26 1_555 1_555
H43 C27 1_555 1_555
H44 C27 1_555 1_555
H45 C27 1_555 1_555
C28 H46 1_555 1_555
C29 C28 1_555 1_555
H47 C29 1_555 1_555
C30 H48 1_555 1_555
C31 C30 1_555 1_555
H49 C31 1_555 1_555
C32 C28 1_555 1_555
C33 C32 1_555 1_555
C34 C33 1_555 1_555
H50 C34 1_555 1_555
C35 C34 1_555 1_555
H51 C35 1_555 1_555
C36 H52 1_555 1_555
C37 C33 1_555 1_555
H53 C37 1_555 1_555
C38 H54 1_555 1_555
C39 C38 1_555 1_555
H55 C39 1_555 1_555
C40 C39 1_555 1_555
C41 C40 1_555 1_555
H56 C41 1_555 1_555
C42 C41 1_555 1_555
H57 C42 1_555 1_555
N1 C29 1_555 1_555
N2 C35 1_555 1_555
N3 C38 1_555 1_555
O1 C1 1_555 1_555
O2 Ce1 1_555 1_555
O3 Ce1 1_555 1_555
O4 Ce1 1_555 1_555
O5 Ce1 1_555 1_555
O6 C7 1_555 1_555
O7 Ce1 1_555 1_555
H58 O7 1_555 1_555
H59 O7 1_555 1_555
O8 C10 1_555 1_555
O9 Ce2 1_555 1_555
O10 Ce2 1_555 1_555
O11 Ce2 1_555 1_555
O12 Ce2 1_555 1_555
O13 C16 1_555 1_555
O14 Ce2 1_555 1_555
O15 C19 1_555 1_555
O16 Ce3 1_555 1_555
O17 Ce2 1_555 1_555
O18 Ce2 1_555 1_555
O19 Ce3 1_555 1_555
O20 Ce3 1_555 1_555
H60 O20 1_555 1_555
H61 O20 1_555 1_555
O21 Ce2 1_555 1_555
H62 O21 1_555 1_555
H63 O21 1_555 1_555
Ce1A O6 1_555 1_555
Ce1A_2 O2 1_555 1_555
Ce2_2 O8_2 1_555 1_555
Ce2_3 O10_2 1_555 1_555
Ce3_2 O11 1_555 1_555
C1A C2A 1_555 1_555
C2A H1A 1_555 1_555
H2A C2A 1_555 1_555
C3A C2A 1_555 1_555
H3A C3A 1_555 1_555
H4A C3A 1_555 1_555
H5A C3A 1_555 1_555
C4A C5A 1_555 1_555
C5A H6A 1_555 1_555
H7A C5A 1_555 1_555
C6A C5A 1_555 1_555
H8A C6A 1_555 1_555
H9A C6A 1_555 1_555
H10A C6A 1_555 1_555
C7A C8A 1_555 1_555
C8A H11A 1_555 1_555
H12A C8A 1_555 1_555
C9A C8A 1_555 1_555
H13A C9A 1_555 1_555
H14A C9A 1_555 1_555
H15A C9A 1_555 1_555
C10_2 C11_2 1_555 1_555
C11_2 H16_2 1_555 1_555
H17_2 C11_2 1_555 1_555
C12_2 C11_2 1_555 1_555
H18_2 C12_2 1_555 1_555
H19_2 C12_2 1_555 1_555
H20_2 C12_2 1_555 1_555
C13_2 C14_2 1_555 1_555
C14_2 H21_2 1_555 1_555
H22_2 C14_2 1_555 1_555
C15_2 C14_2 1_555 1_555
H23_2 C15_2 1_555 1_555
H24_2 C15_2 1_555 1_555
H25_2 C15_2 1_555 1_555
C16_2 C17_2 1_555 1_555
C17_2 H26_2 1_555 1_555
H27_2 C17_2 1_555 1_555
C18_2 C17_2 1_555 1_555
H28_2 C18_2 1_555 1_555
H29_2 C18_2 1_555 1_555
H30_2 C18_2 1_555 1_555
C19_2 C20_2 1_555 1_555
C20_2 H31_2 1_555 1_555
H32_2 C20_2 1_555 1_555
C21_2 C20_2 1_555 1_555
H33_2 C21_2 1_555 1_555
H34_2 C21_2 1_555 1_555
H35_2 C21_2 1_555 1_555
C22_2 C23_2 1_555 1_555
C23_2 H36_2 1_555 1_555
H37_2 C23_2 1_555 1_555
C24_2 C23_2 1_555 1_555
H38_2 C24_2 1_555 1_555
H39_2 C24_2 1_555 1_555
H40_2 C24_2 1_555 1_555
C25_2 C26_2 1_555 1_555
C26_2 H41_2 1_555 1_555
H42_2 C26_2 1_555 1_555
C27_2 C26_2 1_555 1_555
H43_2 C27_2 1_555 1_555
H44_2 C27_2 1_555 1_555
H45_2 C27_2 1_555 1_555
C38B H54B 1_555 1_555
C39B C38B 1_555 1_555
H55B C39B 1_555 1_555
C40B C40 1_555 1_555
C41B C40B 1_555 1_555
H56B C41B 1_555 1_555
C42B C41B 1_555 1_555
H57B C42B 1_555 1_555
N3B C38B 1_555 1_555
O1A Ce1A 1_555 1_555
O2A Ce1 1_555 1_555
O2_2 Ce1A 1_555 1_555
O3A Ce1 1_555 1_555
O3_2 Ce1A 1_555 1_555
O4A Ce1A 1_555 1_555
O5A Ce1A_2 1_555 1_555
O5A_2 Ce1A 1_555 1_555
O6A Ce1 1_555 1_555
O7A Ce1A 1_555 1_555
H58A O7A 1_555 1_555
H59A O7A 1_555 1_555
O8_2 Ce3_2 1_555 1_555
O9_2 Ce2_2 1_555 1_555
O10_2 C13_2 1_555 1_555
O10_3 Ce2_2 1_555 1_555
O11_2 Ce3 1_555 1_555
O11_3 Ce2_2 1_555 1_555
O12_2 Ce2_3 1_555 1_555
O12_3 Ce2_2 1_555 1_555
O13_2 Ce3 1_555 1_555
O14_2 Ce3 1_555 1_555
O14_3 Ce2_2 1_555 1_555
O15_2 Ce3 1_555 1_555
O16_2 Ce3_2 1_555 1_555
O17_2 Ce2_2 1_555 1_555
O18_2 Ce2_2 1_555 1_555
O19_2 Ce3_2 1_555 1_555
O20_2 Ce3_2 1_555 1_555
H60_2 O20_2 1_555 1_555
H61_2 O20_2 1_555 1_555
O21_2 Ce2_2 1_555 1_555
H62_2 O21_2 1_555 1_555
H63_2 O21_2 1_555 1_555
Ce3 O17 1_555 1_555
C1 O2 1_555 1_555
C4 O3 1_555 1_555
C4 O4 1_555 1_555
C7 O5 1_555 1_555
C10 O9 1_555 1_555
C13 O10 1_555 1_555
C13 O11 1_555 1_555
C16 O12 1_555 1_555
C19 O14 1_555 1_555
C22 O16 1_555 1_555
C22 O17 1_555 1_555
C25 O18 1_555 1_555
C25 O19 1_555 1_555
C30 N1 1_555 1_555
C31 C32 1_555 1_555
C36 C37 1_555 1_555
C36 N2 1_555 1_555
C42 N3 1_555 1_555
O3 Ce1A_2 1_555 1_555
O13 Ce3_2 1_555 1_555
O14 Ce3_2 1_555 1_555
O15 Ce3_2 1_555 1_555
Ce1A O2A 1_555 1_555
Ce1A O3A 1_555 1_555
Ce2_3 O11_2 1_555 1_555
Ce2_3 O14_2 1_555 1_555
Ce3_2 O17_2 1_555 1_555
C1A O1A 1_555 1_555
C1A O2A 1_555 1_555
C4A O3A 1_555 1_555
C4A O4A 1_555 1_555
C7A O5A 1_555 1_555
C7A O6A 1_555 1_555
C10_2 O8_2 1_555 1_555
C10_2 O9_2 1_555 1_555
C13_2 O11_2 1_555 1_555
C16_2 O12_2 1_555 1_555
C16_2 O13_2 1_555 1_555
C19_2 O14_2 1_555 1_555
C19_2 O15_2 1_555 1_555
C22_2 O16_2 1_555 1_555
C22_2 O17_2 1_555 1_555
C25_2 O18_2 1_555 1_555
C25_2 O19_2 1_555 1_555
C39B C40B 1_555 1_555
C42B N3B 1_555 1_555

#END
