
#######################################################################
#
#                 Cambridge Crystallographic Data Centre
#                                CCDC 
#
#######################################################################
#
# If this CIF has been generated from an entry in the Cambridge 
# Structural Database, then it will include bibliographic, chemical, 
# crystal, experimental, refinement or atomic coordinate data resulting 
# from the CCDC's data processing and validation procedures.
#
#######################################################################

data_DAXROL
_symmetry_cell_setting           triclinic
_symmetry_space_group_name_H-M   'P -1'
_symmetry_Int_Tables_number      2
_space_group_name_Hall           '-P 1'
loop_
_symmetry_equiv_pos_site_id
_symmetry_equiv_pos_as_xyz
1 x,y,z
2 -x,-y,-z
_cell_length_a                   7.6690(5)
_cell_length_b                   9.5867(6)
_cell_length_c                   10.3567(7)
_cell_angle_alpha                89.120(1)
_cell_angle_beta                 69.859(1)
_cell_angle_gamma                67.531(1)
_cell_volume                     654.642
loop_
_atom_site_label
_atom_site_type_symbol
_atom_site_fract_x
_atom_site_fract_y
_atom_site_fract_z
Cd1 Cd 0.15020(3) 1.048762(19) 0.59176(2)
C1 C 0.3882(5) 0.8944(4) 0.7861(3)
H1 H 0.4896 0.9272 0.7382
C2 C 0.1102(6) 0.8644(5) 0.8569(5)
H2 H -0.0188 0.8724 0.8673
C3 C 0.2230(6) 0.7795(6) 0.9267(5)
H3 H 0.1870 0.7192 0.9933
C4 C 0.5770(5) 0.7176(4) 0.9158(3)
C5 C 0.7568(7) 0.6427(7) 0.8158(4)
H4 H 0.7714 0.6489 0.7233
C6 C 0.9220(7) 0.5557(7) 0.8496(4)
H5 H 1.0450 0.5006 0.7784
C7 C 0.9111(5) 0.5480(4) 0.9822(3)
C8 C 0.7276(8) 0.6271(8) 1.0796(5)
H6 H 0.7123 0.6233 1.1725
C9 C 0.5606(8) 0.7138(8) 1.0480(5)
H7 H 0.4371 0.7693 1.1187
C10 C 0.5740(4) 0.7743(3) 0.4417(3)
C11 C 0.5310(4) 0.6343(3) 0.4725(3)
C12 C 0.6751(4) 0.5079(3) 0.4997(3)
H8 H 0.7936 0.5135 0.4994
C13 C 0.3526(4) 0.6250(3) 0.4731(3)
C14 C 0.1834(4) 0.7527(3) 0.4463(3)
N1 N 0.2139(4) 0.9365(3) 0.7691(3)
N2 N 0.4014(4) 0.7990(3) 0.8805(3)
O1 O 0.0469(3) 0.8505(2) 0.5491(2)
O2 O 0.4432(3) 0.8896(2) 0.4200(2)
O3 O 0.7433(3) 0.7641(2) 0.4380(3)
O4 O 0.1741(3) 0.7519(2) 0.3290(2)
Cd1A Cd 1.84980(3) -0.048762(19) 1.40824(2)
Cd1A_2 Cd -0.15020(3) 0.951238(19) 0.40824(2)
Cd1A_3 Cd 0.84980(3) 0.951238(19) 0.40824(2)
Cd1_2 Cd 0.15020(3) 0.048762(19) 0.59176(2)
Cd1A_4 Cd 0.84980(3) -0.048762(19) 0.40824(2)
Cd1_3 Cd 1.15020(3) 0.048762(19) 0.59176(2)
C1A C 1.6118(5) 0.1056(4) 1.2139(3)
H1A H 1.5104 0.0728 1.2618
C2A C 1.8898(6) 0.1356(5) 1.1431(5)
H2A H 2.0188 0.1276 1.1327
C3A C 1.7770(6) 0.2205(6) 1.0733(5)
H3A H 1.8130 0.2808 1.0067
C4A C 1.4230(5) 0.2824(4) 1.0842(3)
C5A C 1.2432(7) 0.3573(7) 1.1842(4)
H4A H 1.2286 0.3511 1.2767
C6A C 1.0780(7) 0.4443(7) 1.1504(4)
H5A H 0.9550 0.4994 1.2216
C7A C 1.0889(5) 0.4520(4) 1.0178(3)
C8A C 1.2724(8) 0.3729(8) 0.9204(5)
H6A H 1.2877 0.3767 0.8275
C9A C 1.4394(8) 0.2862(8) 0.9520(5)
H7A H 1.5629 0.2307 0.8813
C10A C 0.4260(4) 0.2257(3) 0.5583(3)
C11A C 0.4690(4) 0.3657(3) 0.5275(3)
C12A C 0.3249(4) 0.4921(3) 0.5003(3)
H8A H 0.2064 0.4865 0.5006
C13A C 0.6474(4) 0.3750(3) 0.5269(3)
C14A C 0.8166(4) 0.2473(3) 0.5537(3)
N1A N 1.7861(4) 0.0635(3) 1.2309(3)
N2A N 1.5986(4) 0.2010(3) 1.1195(3)
O1A O 0.9531(3) 0.1495(2) 0.4509(2)
O1A_2 O -0.0469(3) 1.1495(2) 0.4509(2)
O1A_3 O 1.9531(3) 0.1495(2) 1.4509(2)
O1_2 O 2.0469(3) -0.1495(2) 1.5491(2)
O2A O 0.5568(3) 0.1104(2) 0.5800(2)
O2A_2 O 1.5568(3) 0.1104(2) 1.5800(2)
O3A O 0.2567(3) 0.2359(2) 0.5620(3)
O3A_2 O 0.2567(3) 1.2359(2) 0.5620(3)
O3_2 O 1.7433(3) -0.2359(2) 1.4380(3)
O4A O 0.8259(3) 0.2481(2) 0.6710(2)
O4A_2 O -0.1741(3) 1.2481(2) 0.6710(2)
O4_2 O 2.1741(3) -0.2481(2) 1.3290(2)
loop_
_geom_bond_atom_site_label_1
_geom_bond_atom_site_label_2
_geom_bond_site_symmetry_1
_geom_bond_site_symmetry_2
Cd1 N1 1_555 1_555
C1 H1 1_555 1_555
C2 H2 1_555 1_555
C3 C2 1_555 1_555
H3 C3 1_555 1_555
C4 C5 1_555 1_555
C5 H4 1_555 1_555
C6 C5 1_555 1_555
H5 C6 1_555 1_555
C7 C6 1_555 1_555
C8 C7 1_555 1_555
H6 C8 1_555 1_555
C9 C4 1_555 1_555
H7 C9 1_555 1_555
C10 C11 1_555 1_555
C11 C12 1_555 1_555
C12 H8 1_555 1_555
C13 C11 1_555 1_555
C14 C13 1_555 1_555
N1 C1 1_555 1_555
N2 C1 1_555 1_555
O1 Cd1 1_555 1_555
O2 Cd1 1_555 1_555
O3 C10 1_555 1_555
O4 C14 1_555 1_555
Cd1A N1A 1_555 1_555
Cd1A_2 O1 1_555 1_555
Cd1A_3 O3 1_555 1_555
Cd1_2 O3A 1_555 1_555
Cd1A_4 O1A 1_555 1_555
Cd1_3 O1A 1_555 1_555
C1A H1A 1_555 1_555
C2A H2A 1_555 1_555
C3A C2A 1_555 1_555
H3A C3A 1_555 1_555
C4A C5A 1_555 1_555
C5A H4A 1_555 1_555
C6A C5A 1_555 1_555
H5A C6A 1_555 1_555
C7A C7 1_555 1_555
C8A C7A 1_555 1_555
H6A C8A 1_555 1_555
C9A C4A 1_555 1_555
H7A C9A 1_555 1_555
C10A C11A 1_555 1_555
C11A C12A 1_555 1_555
C12A C13 1_555 1_555
H8A C12A 1_555 1_555
C13A C12 1_555 1_555
C14A C13A 1_555 1_555
N1A C1A 1_555 1_555
N2A C1A 1_555 1_555
O1A C14A 1_555 1_555
O1A_2 Cd1 1_555 1_555
O1A_3 Cd1A 1_555 1_555
O1_2 Cd1A 1_555 1_555
O2A Cd1A_4 1_555 1_555
O2A_2 Cd1A 1_555 1_555
O3A C10A 1_555 1_555
O3A_2 Cd1 1_555 1_555
O3_2 Cd1A 1_555 1_555
O4A Cd1_3 1_555 1_555
O4A_2 Cd1 1_555 1_555
O4_2 Cd1A 1_555 1_555
C2 N1 1_555 1_555
C3 N2 1_555 1_555
C4 N2 1_555 1_555
C8 C9 1_555 1_555
C10 O2 1_555 1_555
C14 O1 1_555 1_555
O4 Cd1A_2 1_555 1_555
Cd1A_2 O1A_2 1_555 1_555
C2A N1A 1_555 1_555
C3A N2A 1_555 1_555
C4A N2A 1_555 1_555
C6A C7A 1_555 1_555
C8A C9A 1_555 1_555
C10A O2A 1_555 1_555
C11A C13A 1_555 1_555
C14A O4A 1_555 1_555

#END
