
#######################################################################
#
#                 Cambridge Crystallographic Data Centre
#                                CCDC 
#
#######################################################################
#
# If this CIF has been generated from an entry in the Cambridge 
# Structural Database, then it will include bibliographic, chemical, 
# crystal, experimental, refinement or atomic coordinate data resulting 
# from the CCDC's data processing and validation procedures.
#
#######################################################################

data_DAXWOP
_symmetry_cell_setting           monoclinic
_symmetry_space_group_name_H-M   'C 2/c'
_symmetry_Int_Tables_number      15
_space_group_name_Hall           '-C 2yn'
loop_
_symmetry_equiv_pos_site_id
_symmetry_equiv_pos_as_xyz
1 x,y,z
2 1/2+x,1/2+y,z
3 -x,y,1/2-z
4 1/2-x,1/2+y,1/2-z
5 -x,-y,-z
6 1/2-x,1/2-y,-z
7 x,-y,1/2+z
8 1/2+x,1/2-y,1/2+z
_cell_length_a                   6.6090(2)
_cell_length_b                   16.8495(6)
_cell_length_c                   12.1194(5)
_cell_angle_alpha                90
_cell_angle_beta                 90.782(2)
_cell_angle_gamma                90
_cell_volume                     1349.47
loop_
_atom_site_label
_atom_site_type_symbol
_atom_site_fract_x
_atom_site_fract_y
_atom_site_fract_z
Co1 Co 0.500000 0.871650 0.750000
Ni1 Ni 1.000000 1.000000 1.000000
N1 N 0.671510 0.770280 0.691590
C1 C 0.594200 0.697800 0.724750
C2 C 0.685950 0.626740 0.693560
C3 C 0.859340 0.628850 0.629450
C4 C 0.940340 0.701390 0.595280
C5 C 0.843290 0.772110 0.625800
H1 H 0.623110 0.570680 0.718870
H2 H 0.931650 0.574140 0.606000
H3 H 1.075200 0.703000 0.546260
H4 H 0.901980 0.828290 0.598170
N2 N 0.696680 0.881720 0.892230
C6 C 0.816845 0.924950 0.926260
N3 N 0.684150 0.952880 0.664590
C7 C 0.795810 0.972740 0.598080
Ni1F Ni 0.000000 1.000000 0.500000
Ni1F_2 Ni 1.000000 1.000000 0.500000
Ni1_2 Ni 0.000000 1.000000 1.000000
N1B N 0.328490 0.770280 0.808410
C1B C 0.405800 0.697800 0.775250
C2B C 0.314050 0.626740 0.806440
C3B C 0.140660 0.628850 0.870550
C4B C 0.059660 0.701390 0.904720
C5B C 0.156710 0.772110 0.874200
H1B H 0.376890 0.570680 0.781130
H2B H 0.068350 0.574140 0.894000
H3B H -0.075200 0.703000 0.953740
H4B H 0.098020 0.828290 0.901830
N2B N 0.303320 0.881720 0.607770
C6B C 0.183155 0.924950 0.573740
C6D C 1.183155 1.075050 1.073740
N3B N 0.315850 0.952880 0.835410
C7B C 0.204190 0.972740 0.901920
C7F C 0.795810 1.027260 1.098080
C7B_2 C 1.204190 0.972740 0.901920
loop_
_geom_bond_atom_site_label_1
_geom_bond_atom_site_label_2
_geom_bond_site_symmetry_1
_geom_bond_site_symmetry_2
Co1 N1 1_555 1_555
Ni1 C6 1_555 1_555
N1 C1 1_555 1_555
C1 C2 1_555 1_555
C2 C3 1_555 1_555
C3 C4 1_555 1_555
C4 C5 1_555 1_555
C5 N1 1_555 1_555
H1 C2 1_555 1_555
H2 C3 1_555 1_555
H3 C4 1_555 1_555
H4 C5 1_555 1_555
N2 Co1 1_555 1_555
C6 N2 1_555 1_555
N3 Co1 1_555 1_555
C7 N3 1_555 1_555
Ni1F C6B 1_555 1_555
Ni1F_2 C7 1_555 1_555
Ni1_2 C7B 1_555 1_555
N1B Co1 1_555 1_555
C1B C1 1_555 1_555
C2B C1B 1_555 1_555
C3B C2B 1_555 1_555
C4B C3B 1_555 1_555
C5B N1B 1_555 1_555
H1B C2B 1_555 1_555
H2B C3B 1_555 1_555
H3B C4B 1_555 1_555
H4B C5B 1_555 1_555
N2B Co1 1_555 1_555
C6B N2B 1_555 1_555
C6D Ni1 1_555 1_555
N3B Co1 1_555 1_555
C7B N3B 1_555 1_555
C7F Ni1 1_555 1_555
C7B_2 Ni1 1_555 1_555
N1B C1B 1_555 1_555
C4B C5B 1_555 1_555

#END
