
#######################################################################
#
#                 Cambridge Crystallographic Data Centre
#                                CCDC 
#
#######################################################################
#
# If this CIF has been generated from an entry in the Cambridge 
# Structural Database, then it will include bibliographic, chemical, 
# crystal, experimental, refinement or atomic coordinate data resulting 
# from the CCDC's data processing and validation procedures.
#
#######################################################################

data_DAXZIL
_symmetry_cell_setting           cubic
_symmetry_space_group_name_H-M   'P 21 3'
_symmetry_Int_Tables_number      198
_space_group_name_Hall           'P 2ac 2ab 3'
loop_
_symmetry_equiv_pos_site_id
_symmetry_equiv_pos_as_xyz
1 x,y,z
2 y,z,x
3 z,x,y
4 1/2+x,1/2-y,-z
5 1/2+y,1/2-z,-x
6 1/2+z,1/2-x,-y
7 -y,1/2+z,1/2-x
8 -z,1/2+x,1/2-y
9 1/2-z,-x,1/2+y
10 1/2-x,-y,1/2+z
11 1/2-y,-z,1/2+x
12 -x,1/2+y,1/2-z
_cell_length_a                   15.293(8)
_cell_length_b                   15.293(8)
_cell_length_c                   15.293(8)
_cell_angle_alpha                90
_cell_angle_beta                 90
_cell_angle_gamma                90
_cell_volume                     3576.66
loop_
_atom_site_label
_atom_site_type_symbol
_atom_site_fract_x
_atom_site_fract_y
_atom_site_fract_z
Ru1 Ru 0.12398(2) -0.12398(2) -0.62398(2)
N1 N 0.2579(2) -0.1117(2) -0.6237(3)
N2 N 0.1377(3) 0.0092(2) -0.6229(3)
C1 C 0.2885(3) -0.0282(3) -0.6249(4)
C2 C 0.3778(4) -0.0120(3) -0.6268(4)
C3 C 0.4348(3) -0.0810(5) -0.6293(5)
C4 C 0.4032(3) -0.1657(4) -0.6306(5)
C5 C 0.3156(3) -0.1780(3) -0.6266(4)
C6 C 0.2216(3) 0.0393(3) -0.6229(4)
C7 C 0.2388(4) 0.1289(4) -0.6207(4)
C8 C 0.1708(5) 0.1868(3) -0.6178(5)
C9 C 0.0864(5) 0.1561(4) -0.6188(5)
C10 C 0.0711(4) 0.0667(3) -0.6205(5)
H1 H 0.4011 0.0507 -0.6280
H2 H 0.5002 -0.0695 -0.6299
H3 H 0.4450 -0.2182 -0.6337
H4 H 0.2918 -0.2404 -0.6236
H5 H 0.3020 0.1519 -0.6223
H6 H 0.1817 0.2521 -0.6155
H7 H 0.0353 0.1990 -0.6173
H8 H 0.0082 0.0439 -0.6186
N1F N 0.1117(2) -0.1237(3) -0.7579(2)
C1F C 0.0282(3) -0.1249(4) -0.7885(3)
C2F C 0.0120(3) -0.1268(4) -0.8778(4)
C3F C 0.0810(5) -0.1293(5) -0.9348(3)
C4F C 0.1657(4) -0.1306(5) -0.9032(3)
C5F C 0.1780(3) -0.1266(4) -0.8156(3)
H4F H 0.2404 -0.1236 -0.7918
H3F H 0.2182 -0.1337 -0.9450
H2F H 0.0695 -0.1299 -1.0002
H1F H -0.0507 -0.1280 -0.9011
C6F C -0.0393(3) -0.1229(4) -0.7216(3)
N2F N -0.0092(2) -0.1229(3) -0.6377(3)
N1H N 0.1237(3) -0.2579(2) -0.6117(2)
C1H C 0.1249(4) -0.2885(3) -0.5282(3)
C2H C 0.1268(4) -0.3778(4) -0.5120(3)
C3H C 0.1293(5) -0.4348(3) -0.5810(5)
C4H C 0.1306(5) -0.4032(3) -0.6657(4)
C5H C 0.1266(4) -0.3156(3) -0.6780(3)
H4H H 0.1236 -0.2918 -0.7404
H3H H 0.1337 -0.4450 -0.7182
H2H H 0.1299 -0.5002 -0.5695
H1H H 0.1280 -0.4011 -0.4493
C6H C 0.1229(4) -0.2216(3) -0.4607(3)
N2H N 0.1229(3) -0.1377(3) -0.4908(2)
C10H C 0.1205(5) -0.0711(4) -0.4333(3)
C9H C 0.1188(5) -0.0864(5) -0.3439(4)
C8H C 0.1178(5) -0.1708(5) -0.3132(3)
C7H C 0.1207(4) -0.2388(4) -0.3711(4)
H5H H 0.1223 -0.3020 -0.3481
H6H H 0.1155 -0.1817 -0.2479
H7H H 0.1173 -0.0353 -0.3010
H8H H 0.1186 -0.0082 -0.4561
C10F C -0.0667(3) -0.1205(5) -0.5711(4)
C9F C -0.1561(4) -0.1188(5) -0.5864(5)
C8F C -0.1868(3) -0.1178(5) -0.6708(5)
C7F C -0.1289(4) -0.1207(4) -0.7388(4)
H5F H -0.1519 -0.1223 -0.8020
H6F H -0.2521 -0.1155 -0.6817
H7F H -0.1990 -0.1173 -0.5353
H8F H -0.0439 -0.1186 -0.5082
Cr1 Cr -1.14595(5) -0.14595(5) -0.14595(5)
Li1 Li -1.3994(6) -0.1006(6) 0.1006(6)
O1 O -1.1593(2) -0.1345(2) -0.0182(3)
O2 O -1.3621(2) 0.1431(2) 0.2248(3)
O3 O -1.2625(2) -0.1132(2) 0.0829(3)
O4 O -1.3882(2) 0.0477(2) 0.1163(3)
C11 C -1.2388(3) -0.1233(3) 0.0072(4)
C12 C -1.3754(3) 0.0670(3) 0.1927(4)
O1B O -1.0182(3) -0.1593(2) -0.1345(2)
O1A O -1.1345(2) -0.0182(3) -0.1593(2)
O2I O -1.1379(2) -0.1431(2) -0.2752(3)
O3J O -1.3868(2) -0.0829(3) 0.2375(2)
C11J C -1.3767(3) -0.0072(4) 0.2612(3)
O1J O -1.3655(2) 0.0182(3) 0.3407(2)
Cr1H Cr -1.35405(5) 0.14595(5) 0.35405(5)
O3E O -1.4171(3) -0.2375(2) 0.1132(2)
C11E C -1.4928(4) -0.2612(3) 0.1233(3)
O1E O -1.5182(3) -0.3407(2) 0.1345(2)
Cr1C Cr -1.64595(5) -0.35405(5) 0.14595(5)
O2J O -1.6431(2) -0.2248(3) 0.1379(2)
C12J C -1.5670(3) -0.1927(4) 0.1246(3)
O4J O -1.5477(2) -0.1163(3) 0.1118(2)
O4E O -1.3837(3) -0.1118(2) -0.0477(2)
C12E C -1.3073(4) -0.1246(3) -0.0670(3)
O2E O -1.2752(3) -0.1379(2) -0.1431(2)
O2F O -1.1431(2) -0.2752(3) -0.1379(2)
O5 O 0.129(1) -0.871(1) -0.871(1)
loop_
_geom_bond_atom_site_label_1
_geom_bond_atom_site_label_2
_geom_bond_site_symmetry_1
_geom_bond_site_symmetry_2
Ru1 N1 1_555 1_555
N1 C1 1_555 1_555
N2 Ru1 1_555 1_555
C1 C2 1_555 1_555
C2 C3 1_555 1_555
C3 C4 1_555 1_555
C4 C5 1_555 1_555
C5 N1 1_555 1_555
C6 N2 1_555 1_555
C7 C6 1_555 1_555
C8 C7 1_555 1_555
C9 C8 1_555 1_555
C10 N2 1_555 1_555
H1 C2 1_555 1_555
H2 C3 1_555 1_555
H3 C4 1_555 1_555
H4 C5 1_555 1_555
H5 C7 1_555 1_555
H6 C8 1_555 1_555
H7 C9 1_555 1_555
H8 C10 1_555 1_555
Cr1 O1 1_555 1_555
Li1 O3 1_555 1_555
O1 C11 1_555 1_555
O2 C12 1_555 1_555
O3 C11 1_555 1_555
O4 Li1 1_555 1_555
C11 C12E 1_555 1_555
C12 O4 1_555 1_555
N1F Ru1 1_555 1_555
C1F N1F 1_555 1_555
C2F C1F 1_555 1_555
C3F C2F 1_555 1_555
C4F C3F 1_555 1_555
C5F N1F 1_555 1_555
H4F C5F 1_555 1_555
H3F C4F 1_555 1_555
H2F C3F 1_555 1_555
H1F C2F 1_555 1_555
C6F C1F 1_555 1_555
N2F Ru1 1_555 1_555
N1H Ru1 1_555 1_555
C1H N1H 1_555 1_555
C2H C1H 1_555 1_555
C3H C2H 1_555 1_555
C4H C3H 1_555 1_555
C5H N1H 1_555 1_555
H4H C5H 1_555 1_555
H3H C4H 1_555 1_555
H2H C3H 1_555 1_555
H1H C2H 1_555 1_555
C6H C1H 1_555 1_555
N2H Ru1 1_555 1_555
C10H N2H 1_555 1_555
C9H C10H 1_555 1_555
C8H C9H 1_555 1_555
C7H C6H 1_555 1_555
H5H C7H 1_555 1_555
H6H C8H 1_555 1_555
H7H C9H 1_555 1_555
H8H C10H 1_555 1_555
C10F N2F 1_555 1_555
C9F C10F 1_555 1_555
C8F C9F 1_555 1_555
C7F C6F 1_555 1_555
H5F C7F 1_555 1_555
H6F C8F 1_555 1_555
H7F C9F 1_555 1_555
H8F C10F 1_555 1_555
O1B Cr1 1_555 1_555
O1A Cr1 1_555 1_555
O2I Cr1 1_555 1_555
O3J Li1 1_555 1_555
C11J C12 1_555 1_555
O1J C11J 1_555 1_555
Cr1H O2 1_555 1_555
O3E Li1 1_555 1_555
C11E O3E 1_555 1_555
O1E C11E 1_555 1_555
Cr1C O1E 1_555 1_555
O2J Cr1C 1_555 1_555
C12J C11E 1_555 1_555
O4J Li1 1_555 1_555
O4E Li1 1_555 1_555
C12E O4E 1_555 1_555
O2E Cr1 1_555 1_555
O2F Cr1 1_555 1_555
C1 C6 1_555 1_555
C9 C10 1_555 1_555
C4F C5F 1_555 1_555
C6F N2F 1_555 1_555
C4H C5H 1_555 1_555
C6H N2H 1_555 1_555
C8H C7H 1_555 1_555
C8F C7F 1_555 1_555
O3J C11J 1_555 1_555
O1J Cr1H 1_555 1_555
O2J C12J 1_555 1_555
C12J O4J 1_555 1_555
C12E O2E 1_555 1_555

#END
