
#######################################################################
#
#                 Cambridge Crystallographic Data Centre
#                                CCDC 
#
#######################################################################
#
# If this CIF has been generated from an entry in the Cambridge 
# Structural Database, then it will include bibliographic, chemical, 
# crystal, experimental, refinement or atomic coordinate data resulting 
# from the CCDC's data processing and validation procedures.
#
#######################################################################

data_DAYCOV
_symmetry_cell_setting           monoclinic
_symmetry_space_group_name_H-M   'P 21/n'
_symmetry_Int_Tables_number      14
_space_group_name_Hall           '-P 2yn'
loop_
_symmetry_equiv_pos_site_id
_symmetry_equiv_pos_as_xyz
1 x,y,z
2 1/2-x,1/2+y,1/2-z
3 -x,-y,-z
4 1/2+x,1/2-y,1/2+z
_cell_length_a                   8.301(2)
_cell_length_b                   14.844(4)
_cell_length_c                   13.089(3)
_cell_angle_alpha                90
_cell_angle_beta                 96.32(2)
_cell_angle_gamma                90
_cell_volume                     1603.03
loop_
_atom_site_label
_atom_site_type_symbol
_atom_site_fract_x
_atom_site_fract_y
_atom_site_fract_z
Cu1 Cu 0.09837(8) 0.14822(4) -0.31027(5)
N1 N -0.0942(8) 0.1827(4) -0.4138(5)
N2 N -0.1619(6) 0.1422(3) -0.4837(4)
N3 N -0.2321(8) 0.1074(5) -0.5530(5)
N4 N 0.2150(8) 0.1023(4) -0.4270(4)
C1 C 0.3906(10) 0.1188(5) -0.4247(6)
H1 H 0.4103(10) 0.1832(5) -0.4252(6)
H2 H 0.4288(10) 0.0932(5) -0.4859(6)
C2 C 0.4839(9) 0.0778(5) -0.3307(6)
H3 H 0.4613(9) 0.0137(5) -0.3303(6)
H4 H 0.5988(9) 0.0851(5) -0.3360(6)
C3 C 0.4472(7) 0.1166(4) -0.2310(5)
H5 H 0.4609(7) 0.1814(4) -0.2339(5)
H6 H 0.5267(7) 0.0940(4) -0.1772(5)
N5 N 0.2792(6) 0.0972(3) -0.2005(3)
C4 C 0.2752(9) 0.1418(4) -0.0985(5)
H7 H 0.2948(9) 0.2057(4) -0.1067(5)
H8 H 0.3637(9) 0.1182(4) -0.0516(5)
C5 C 0.1200(13) 0.1309(5) -0.0495(5)
H9 H 0.0921(13) 0.0674(5) -0.0496(5)
H10 H 0.1392(13) 0.1502(5) 0.0216(5)
C6 C -0.0223(11) 0.1827(6) -0.1013(6)
H11 H -0.1142(11) 0.1756(6) -0.0622(6)
H12 H 0.0048(11) 0.2463(6) -0.1021(6)
N6 N -0.0674(7) 0.1519(4) -0.2067(5)
C7 C 0.2487(7) -0.0018(3) -0.1928(4)
H13 H 0.2565(7) -0.0285(3) -0.2598(4)
H14 H 0.1382(7) -0.0102(3) -0.1771(4)
C8 C 0.3617(8) -0.0540(4) -0.1131(5)
H15 H 0.4729(8) -0.0471(4) -0.1280(5)
H16 H 0.3533(8) -0.0295(4) -0.0452(5)
C9 C 0.3166(8) -0.1540(4) -0.1149(4)
H17 H 0.3794(8) -0.1834(4) -0.0576(4)
H18 H 0.2032(8) -0.1592(4) -0.1043(4)
N7 N 0.3420(7) -0.2015(3) -0.2078(4)
H19 H 0.2436(38) -0.1947(45) -0.2502(41)
H20 H 0.4313(40) -0.1753(37) -0.2348(39)
H21 H 0.1910(87) 0.0382(17) -0.4259(50)
H22 H -0.1166(77) 0.0937(23) -0.2034(64)
H23 H -0.1498(61) 0.1916(33) -0.2380(54)
H24 H 0.1543(79) 0.1234(37) -0.4893(34)
N7A N 0.1580(7) 0.2985(3) -0.2922(4)
Cu1A Cu 0.40163(8) -0.35178(4) -0.18973(5)
H19A H 0.2564(38) 0.3053(45) -0.2498(41)
H20A H 0.0687(40) 0.3247(37) -0.2652(39)
Cl1 Cl 0.8231(2) -0.10783(14) -0.26572(15)
O1 O 0.6687(9) -0.1380(5) -0.2998(8)
O2 O 0.8020(10) -0.0417(5) -0.1825(5)
O3 O 0.8790(9) -0.0474(5) -0.3397(5)
O4 O 0.9329(12) -0.1661(6) -0.2210(7)
loop_
_geom_bond_atom_site_label_1
_geom_bond_atom_site_label_2
_geom_bond_site_symmetry_1
_geom_bond_site_symmetry_2
Cu1 N1 1_555 1_555
N1 N2 1_555 1_555
N2 N3 1_555 1_555
N4 Cu1 1_555 1_555
C1 N4 1_555 1_555
H1 C1 1_555 1_555
H2 C1 1_555 1_555
C2 C1 1_555 1_555
H3 C2 1_555 1_555
H4 C2 1_555 1_555
C3 C2 1_555 1_555
H5 C3 1_555 1_555
H6 C3 1_555 1_555
N5 Cu1 1_555 1_555
C4 N5 1_555 1_555
H7 C4 1_555 1_555
H8 C4 1_555 1_555
C5 C4 1_555 1_555
H9 C5 1_555 1_555
H10 C5 1_555 1_555
C6 C5 1_555 1_555
H11 C6 1_555 1_555
H12 C6 1_555 1_555
N6 Cu1 1_555 1_555
C7 N5 1_555 1_555
H13 C7 1_555 1_555
H14 C7 1_555 1_555
C8 C7 1_555 1_555
H15 C8 1_555 1_555
H16 C8 1_555 1_555
C9 C8 1_555 1_555
H17 C9 1_555 1_555
H18 C9 1_555 1_555
N7 C9 1_555 1_555
H19 N7 1_555 1_555
H20 N7 1_555 1_555
H21 N4 1_555 1_555
H22 N6 1_555 1_555
H23 N6 1_555 1_555
H24 N4 1_555 1_555
Cl1 O1 1_555 1_555
O2 Cl1 1_555 1_555
O3 Cl1 1_555 1_555
O4 Cl1 1_555 1_555
N7A Cu1 1_555 1_555
Cu1A N7 1_555 1_555
H19A N7A 1_555 1_555
H20A N7A 1_555 1_555
C3 N5 1_555 1_555
C6 N6 1_555 1_555

#END
