
#######################################################################
#
#                 Cambridge Crystallographic Data Centre
#                                CCDC 
#
#######################################################################
#
# If this CIF has been generated from an entry in the Cambridge 
# Structural Database, then it will include bibliographic, chemical, 
# crystal, experimental, refinement or atomic coordinate data resulting 
# from the CCDC's data processing and validation procedures.
#
#######################################################################

data_DAYDAJ
_symmetry_cell_setting           monoclinic
_symmetry_space_group_name_H-M   'P 21/c'
_symmetry_Int_Tables_number      14
_space_group_name_Hall           '-P 2ybc'
loop_
_symmetry_equiv_pos_site_id
_symmetry_equiv_pos_as_xyz
1 x,y,z
2 -x,1/2+y,1/2-z
3 -x,-y,-z
4 x,1/2-y,1/2+z
_cell_length_a                   13.1310(10)
_cell_length_b                   7.8290(10)
_cell_length_c                   16.911(2)
_cell_angle_alpha                90
_cell_angle_beta                 111.9030(10)
_cell_angle_gamma                90
_cell_volume                     1613
loop_
_atom_site_label
_atom_site_type_symbol
_atom_site_fract_x
_atom_site_fract_y
_atom_site_fract_z
Cd1 Cd 0.437323(15) 0.32768(2) 0.530283(11)
Cl1 Cl 0.79076(8) 0.22352(14) 0.51392(7)
Cl2 Cl 1.00524(9) 0.33837(18) 0.84719(10)
S1 S 0.32478(7) 0.16587(10) 0.39138(5)
O1 O 0.60797(14) 0.4021(2) 0.53853(11)
N1 N 0.50280(18) 0.4953(3) 0.65275(14)
N2 N 0.29683(19) 0.3596(3) 0.58221(15)
N3 N 0.4845(2) -0.0749(3) 0.39840(15)
C1 C 0.6962(2) 0.4373(4) 0.69002(18)
C2 C 0.6934(2) 0.3816(4) 0.61007(18)
C3 C 0.7899(2) 0.3039(4) 0.6090(2)
C4 C 0.8835(3) 0.2873(5) 0.6813(3)
H1 H 0.9451 0.2323 0.6788
C5 C 0.8848(3) 0.3530(5) 0.7569(3)
C6 C 0.7945(3) 0.4255(4) 0.7620(2)
H2 H 0.7971 0.4686 0.8140
C7 C 0.6021(2) 0.5087(4) 0.70363(17)
H3 H 0.6156 0.5693 0.7538
C8 C 0.4176(2) 0.5765(4) 0.67372(19)
H4 H 0.4029 0.6887 0.6475
H5 H 0.4430 0.5917 0.7350
C9 C 0.3130(2) 0.4742(4) 0.64407(18)
C10 C 0.2346(3) 0.5049(5) 0.6785(2)
H6 H 0.2485 0.5817 0.7232
C11 C 0.1369(3) 0.4218(5) 0.6463(3)
H7 H 0.0828 0.4430 0.6683
C12 C 0.1184(3) 0.3063(6) 0.5813(3)
H8 H 0.0515 0.2499 0.5576
C13 C 0.2015(3) 0.2764(5) 0.5520(2)
H9 H 0.1907 0.1952 0.5095
C14 C 0.4204(2) 0.0246(3) 0.39757(15)
Cd1B Cd 0.562677(15) 0.67232(2) 0.469717(11)
Cd1B_2 Cd 0.562677(15) -0.32768(2) 0.469717(11)
O1B O 0.39203(14) 0.5979(2) 0.46147(11)
N3B N 0.5155(2) 0.0749(3) 0.60160(15)
loop_
_geom_bond_atom_site_label_1
_geom_bond_atom_site_label_2
_geom_bond_site_symmetry_1
_geom_bond_site_symmetry_2
Cd1 S1 1_555 1_555
Cl1 C3 1_555 1_555
Cl2 C5 1_555 1_555
S1 C14 1_555 1_555
O1 Cd1 1_555 1_555
N1 Cd1 1_555 1_555
N2 Cd1 1_555 1_555
N3 C14 1_555 1_555
C1 C2 1_555 1_555
C2 O1 1_555 1_555
C3 C2 1_555 1_555
C4 C3 1_555 1_555
H1 C4 1_555 1_555
C5 C4 1_555 1_555
C6 C1 1_555 1_555
H2 C6 1_555 1_555
C7 N1 1_555 1_555
H3 C7 1_555 1_555
C8 N1 1_555 1_555
H4 C8 1_555 1_555
H5 C8 1_555 1_555
C9 N2 1_555 1_555
C10 C9 1_555 1_555
H6 C10 1_555 1_555
C11 C10 1_555 1_555
H7 C11 1_555 1_555
C12 C11 1_555 1_555
H8 C12 1_555 1_555
C13 N2 1_555 1_555
H9 C13 1_555 1_555
Cd1B O1 1_555 1_555
Cd1B_2 N3 1_555 1_555
O1B Cd1 1_555 1_555
N3B Cd1 1_555 1_555
C1 C7 1_555 1_555
C5 C6 1_555 1_555
C8 C9 1_555 1_555
C12 C13 1_555 1_555
Cd1B O1B 1_555 1_555

#END
