
#######################################################################
#
#                 Cambridge Crystallographic Data Centre
#                                CCDC 
#
#######################################################################
#
# If this CIF has been generated from an entry in the Cambridge 
# Structural Database, then it will include bibliographic, chemical, 
# crystal, experimental, refinement or atomic coordinate data resulting 
# from the CCDC's data processing and validation procedures.
#
#######################################################################

data_DAYDEN
_symmetry_cell_setting           monoclinic
_symmetry_space_group_name_H-M   'P 21/n'
_symmetry_Int_Tables_number      14
_space_group_name_Hall           '-P 2yn'
loop_
_symmetry_equiv_pos_site_id
_symmetry_equiv_pos_as_xyz
1 x,y,z
2 1/2-x,1/2+y,1/2-z
3 -x,-y,-z
4 1/2+x,1/2-y,1/2+z
_cell_length_a                   8.0145(14)
_cell_length_b                   6.6600(10)
_cell_length_c                   16.489(4)
_cell_angle_alpha                90
_cell_angle_beta                 90.200(18)
_cell_angle_gamma                90
_cell_volume                     880.121
loop_
_atom_site_label
_atom_site_type_symbol
_atom_site_fract_x
_atom_site_fract_y
_atom_site_fract_z
C1 C -0.0110(3) 0.7295(4) 0.60907(15)
K1 K -0.34343(8) 1.04861(9) 0.70443(3)
Ni1 Ni 0.5000 1.0000 0.5000
O1 O -0.1504(2) 0.6951(3) 0.63834(11)
C2 C 0.0271(3) 0.7545(4) 0.52193(14)
O2 O -0.0687(2) 0.7232(3) 0.46374(10)
C3 C 0.1447(3) 0.7613(4) 0.65577(15)
O3 O 0.1622(2) 0.7334(3) 0.72938(11)
C4 C 0.1954(3) 0.8315(4) 0.51810(14)
O4 O 0.2734(2) 0.8947(3) 0.45655(10)
C5 C 0.2666(3) 0.8352(4) 0.59790(15)
O5 O 0.4120(2) 0.8999(3) 0.61155(11)
O6 O 0.4052(2) 1.2809(3) 0.51875(12)
H1 H 0.2999 1.2952 0.5163
H2 H 0.4411 1.3300 0.5630
O7 O -0.4329(3) 1.4393(3) 0.65456(13)
H3 H -0.4845 1.4887 0.6948
H4 H -0.3806 1.5319 0.6301
O8 O -0.0016(2) 1.2280(3) 0.70609(12)
H5 H 0.0029 1.2418 0.6549
H6 H 0.0957 1.2396 0.7260
C1B C 1.0110(3) 1.2705(4) 0.39093(15)
K1B K 1.34343(8) 0.95139(9) 0.29557(3)
K1A K -0.15657(8) 0.54861(9) 0.79557(3)
K1B_2 K 0.34343(8) 0.95139(9) 0.29557(3)
K1_2 K 0.65657(8) 1.04861(9) 0.70443(3)
K1A_2 K -0.15657(8) 1.54861(9) 0.79557(3)
K1C K 1.15657(8) 1.45139(9) 0.20443(3)
O1B O 1.1504(2) 1.3049(3) 0.36166(11)
O1A O -0.3496(2) 1.1951(3) 0.86166(11)
O1C O 1.3496(2) 0.8049(3) 0.13834(11)
C2B C 0.9729(3) 1.2455(4) 0.47807(14)
O2B O 1.0687(2) 1.2768(3) 0.53626(10)
C3B C 0.8553(3) 1.2387(4) 0.34423(15)
O3B O 0.8378(2) 1.2666(3) 0.27062(11)
O3A O -0.6622(2) 1.2334(3) 0.77062(11)
O3C O 1.6622(2) 0.7666(3) 0.22938(11)
C4B C 0.8046(3) 1.1685(4) 0.48190(14)
O4B O 0.7266(2) 1.1053(3) 0.54345(10)
O4B_2 O -0.2734(2) 1.1053(3) 0.54345(10)
O4_2 O 1.2734(2) 0.8947(3) 0.45655(10)
C5B C 0.7334(3) 1.1648(4) 0.40210(15)
O5B O 0.5880(2) 1.1001(3) 0.38845(11)
O5_2 O -0.5880(2) 0.8999(3) 0.61155(11)
O5B_2 O 1.5880(2) 1.1001(3) 0.38845(11)
O6B O 0.5948(2) 0.7191(3) 0.48125(12)
H1B H 0.7001 0.7048 0.4837
H2B H 0.5589 0.6700 0.4370
O7B O 1.4329(3) 0.5607(3) 0.34544(13)
H3B H 1.4845 0.5113 0.3052
H4B H 1.3806 0.4681 0.3699
O8A O -0.4984(2) 0.7280(3) 0.79391(12)
O8C O 1.4984(2) 1.2720(3) 0.20609(12)
O8B O 1.0016(2) 0.7720(3) 0.29391(12)
H5A H -0.5029 0.7418 0.8451
H5C H 1.5029 1.2582 0.1549
H5B H 0.9971 0.7582 0.3451
H6A H -0.5957 0.7396 0.7740
H6C H 1.5957 1.2604 0.2260
H6B H 0.9043 0.7604 0.2740
loop_
_geom_bond_atom_site_label_1
_geom_bond_atom_site_label_2
_geom_bond_site_symmetry_1
_geom_bond_site_symmetry_2
C1 O1 1_555 1_555
K1 O1 1_555 1_555
Ni1 O4 1_555 1_555
O1 K1A 1_555 1_555
C2 C1 1_555 1_555
O2 C2 1_555 1_555
C3 C1 1_555 1_555
O3 C3 1_555 1_555
C4 C2 1_555 1_555
O4 C4 1_555 1_555
C5 C3 1_555 1_555
O5 Ni1 1_555 1_555
O6 Ni1 1_555 1_555
H1 O6 1_555 1_555
H2 O6 1_555 1_555
O7 K1 1_555 1_555
H3 O7 1_555 1_555
H4 O7 1_555 1_555
O8 K1 1_555 1_555
H5 O8 1_555 1_555
H6 O8 1_555 1_555
C1B O1B 1_555 1_555
K1B O1B 1_555 1_555
K1A O3 1_555 1_555
K1B_2 O4 1_555 1_555
K1_2 O5 1_555 1_555
K1A_2 O8 1_555 1_555
K1C O1B 1_555 1_555
O1A K1 1_555 1_555
O1C K1B 1_555 1_555
C2B C1B 1_555 1_555
O2B C2B 1_555 1_555
C3B C1B 1_555 1_555
O3B K1C 1_555 1_555
O3A K1 1_555 1_555
O3C K1B 1_555 1_555
C4B C2B 1_555 1_555
O4B Ni1 1_555 1_555
O4B_2 K1 1_555 1_555
O4_2 K1B 1_555 1_555
C5B C3B 1_555 1_555
O5B Ni1 1_555 1_555
O5_2 K1 1_555 1_555
O5B_2 K1B 1_555 1_555
O6B Ni1 1_555 1_555
H1B O6B 1_555 1_555
H2B O6B 1_555 1_555
O7B K1B 1_555 1_555
H3B O7B 1_555 1_555
H4B O7B 1_555 1_555
O8A K1 1_555 1_555
O8C K1B 1_555 1_555
O8B K1B 1_555 1_555
H5A O8A 1_555 1_555
H5C O8C 1_555 1_555
H5B O8B 1_555 1_555
H6A O8A 1_555 1_555
H6C O8C 1_555 1_555
H6B O8B 1_555 1_555
C4 C5 1_555 1_555
C5 O5 1_555 1_555
K1A O8A 1_555 1_555
K1B_2 O5B 1_555 1_555
K1_2 O4B 1_555 1_555
K1A_2 O1A 1_555 1_555
K1C O8C 1_555 1_555
C3B O3B 1_555 1_555
C4B O4B 1_555 1_555
C4B C5B 1_555 1_555
C5B O5B 1_555 1_555

#END
