
#######################################################################
#
#                 Cambridge Crystallographic Data Centre
#                                CCDC 
#
#######################################################################
#
# If this CIF has been generated from an entry in the Cambridge 
# Structural Database, then it will include bibliographic, chemical, 
# crystal, experimental, refinement or atomic coordinate data resulting 
# from the CCDC's data processing and validation procedures.
#
#######################################################################

data_DAYGOB
_symmetry_cell_setting           triclinic
_symmetry_space_group_name_H-M   'P -1'
_symmetry_Int_Tables_number      2
_space_group_name_Hall           '-P 1'
loop_
_symmetry_equiv_pos_site_id
_symmetry_equiv_pos_as_xyz
1 x,y,z
2 -x,-y,-z
_cell_length_a                   7.972(5)
_cell_length_b                   8.749(5)
_cell_length_c                   8.893(5)
_cell_angle_alpha                84.434(5)
_cell_angle_beta                 68.446(5)
_cell_angle_gamma                85.919(5)
_cell_volume                     573.743
loop_
_atom_site_label
_atom_site_type_symbol
_atom_site_fract_x
_atom_site_fract_y
_atom_site_fract_z
Pt1 Pt 0.77874(2) 0.483623(18) 0.042274(19)
K1 K 0.57478(14) 0.78176(12) 0.42544(13)
Cl1 Cl 0.72615(15) 0.74723(13) 0.05149(14)
Cl2 Cl 0.70499(15) 0.44857(13) 0.32121(13)
P1 P 0.81579(16) 0.22181(14) -0.26373(15)
O1 O 0.7211(5) 0.1340(4) -0.3447(4)
O2 O 1.0198(4) 0.2079(4) -0.3229(4)
O3 O 0.7552(2) 0.80407(18) 0.6433(2)
O4 O 0.7727(2) 1.05937(18) 0.3394(2)
N1 N 0.8442(2) 0.51812(18) -0.2033(2)
N2 N 0.8286(2) 0.25081(18) 0.0337(2)
C1 C 0.7542(2) 0.42335(18) -0.2796(2)
H1 H 0.7870 0.4587 -0.3932
H2 H 0.6244 0.4374 -0.2277
C2 C 0.7339(2) 0.16708(18) -0.0483(2)
H3 H 0.6051 0.1904 -0.0019
H4 H 0.7537 0.0572 -0.0305
H5 H 0.968(7) 0.497(6) -0.242(6)
H6 H 0.821(7) 0.623(6) -0.227(6)
H7 H 0.869(5) 0.985(5) 0.316(7)
H8 H 0.940(7) 0.242(6) -0.015(6)
H9 H 0.782(9) 0.204(8) 0.142(8)
H10 H 0.842(8) 0.808(9) 0.537(4)
H11 H 0.740(12) 0.909(3) 0.665(11)
H12 H 0.752(18) 1.106(14) 0.437(9)
K1A K 0.42522(14) 0.21824(12) 0.57456(13)
K1A_2 K 0.42522(14) 0.21824(12) -0.42544(13)
Cl2A Cl 0.29501(15) 0.55143(13) 0.67879(13)
O1A O 0.2789(5) 0.8660(4) 0.3447(4)
loop_
_geom_bond_atom_site_label_1
_geom_bond_atom_site_label_2
_geom_bond_site_symmetry_1
_geom_bond_site_symmetry_2
Pt1 Cl1 1_555 1_555
K1 Cl1 1_555 1_555
Cl2 Pt1 1_555 1_555
P1 O1 1_555 1_555
O1 K1A_2 1_555 1_555
O2 P1 1_555 1_555
O3 K1 1_555 1_555
O4 K1 1_555 1_555
N1 Pt1 1_555 1_555
N2 Pt1 1_555 1_555
C1 P1 1_555 1_555
H1 C1 1_555 1_555
H2 C1 1_555 1_555
C2 P1 1_555 1_555
H3 C2 1_555 1_555
H4 C2 1_555 1_555
H5 N1 1_555 1_555
H6 N1 1_555 1_555
H7 O4 1_555 1_555
H8 N2 1_555 1_555
H9 N2 1_555 1_555
H10 O3 1_555 1_555
H11 O3 1_555 1_555
H12 O4 1_555 1_555
K1A Cl2 1_555 1_555
Cl2A K1 1_555 1_555
O1A K1 1_555 1_555
K1 Cl2 1_555 1_555
N1 C1 1_555 1_555
N2 C2 1_555 1_555
K1A Cl2A 1_555 1_555

#END
