
#######################################################################
#
#                 Cambridge Crystallographic Data Centre
#                                CCDC 
#
#######################################################################
#
# If this CIF has been generated from an entry in the Cambridge 
# Structural Database, then it will include bibliographic, chemical, 
# crystal, experimental, refinement or atomic coordinate data resulting 
# from the CCDC's data processing and validation procedures.
#
#######################################################################

data_DAYJIY
_symmetry_cell_setting           triclinic
_symmetry_space_group_name_H-M   'P -1'
_symmetry_Int_Tables_number      2
_space_group_name_Hall           '-P 1'
loop_
_symmetry_equiv_pos_site_id
_symmetry_equiv_pos_as_xyz
1 x,y,z
2 -x,-y,-z
_cell_length_a                   9.6726(19)
_cell_length_b                   9.753(2)
_cell_length_c                   11.203(2)
_cell_angle_alpha                80.66(3)
_cell_angle_beta                 88.69(3)
_cell_angle_gamma                88.99(3)
_cell_volume                     1042.47
loop_
_atom_site_label
_atom_site_type_symbol
_atom_site_fract_x
_atom_site_fract_y
_atom_site_fract_z
C1 C 0.8601(4) 0.3036(4) 0.1358(3)
H1 H 1.3724 -0.1167 0.2718
C2 C 0.8403(4) 0.4368(4) 0.0734(4)
C3 C 0.7287(5) 0.4540(4) -0.0002(4)
C4 C 0.6395(5) 0.3462(5) -0.0140(4)
C5 C 0.6596(4) 0.2150(5) 0.0467(4)
C6 C 0.7728(4) 0.1947(4) 0.1236(3)
C7 C 1.0690(4) 0.3100(4) 0.2685(3)
H2 H 1.0611 0.4101 0.2468
H3 H 1.1544 0.2800 0.2333
C8 C 0.9747(4) 0.3114(4) 0.4809(3)
C9 C 0.8496(4) 0.3822(4) 0.4636(4)
H4 H 0.8182 0.4155 0.3864
H5 H 1.4436 0.2645 0.4503
H6 H 1.1870 -0.0102 0.3516
H7 H 1.6230 0.1527 0.3676
C10 C 0.7756(4) 0.4011(5) 0.5653(5)
H8 H 0.6904 0.4464 0.5568
C11 C 0.8247(4) 0.3524(5) 0.6813(4)
H9 H 0.7713 0.3666 0.7481
C12 C 0.9504(4) 0.2840(4) 0.6987(4)
H10 H 0.9834 0.2521 0.7756
C13 C 1.0258(4) 0.2639(4) 0.5947(3)
C14 C 1.1761(3) 0.2040(3) 0.4658(3)
H11 H 0.6016 0.1432 0.0387
H12 H 0.8987 0.5100 0.0821
H13 H 0.7114 0.5426 -0.0447
H14 H 0.5656 0.3650 -0.0652
C15 C 1.2951(3) 0.1377(3) 0.4104(3)
C16 C 1.4277(4) 0.1869(4) 0.4144(4)
C17 C 1.5348(4) 0.1182(4) 0.3647(4)
C18 C 1.3888(4) -0.0404(4) 0.3090(4)
C19 C 1.2761(4) 0.0232(4) 0.3562(4)
Cd1 Cd 0.70385(2) -0.13183(3) 0.25726(2)
N1 N 0.7330(5) -0.1654(4) 0.0078(3)
N2 N 0.6000(4) -0.4068(3) 0.2949(3)
N3 N 0.8187(3) 0.0788(3) 0.2014(3)
N4 N 0.9272(3) 0.1100(3) 0.2592(3)
N5 N 0.9523(3) 0.2453(3) 0.2205(3)
N6 N 1.0722(3) 0.2735(3) 0.3991(3)
N7 N 1.1536(3) 0.1968(3) 0.5835(3)
N8 N 1.5179(3) 0.0049(3) 0.3144(3)
O1 O 0.5539(4) -0.5244(4) 0.3055(4)
O2 O 0.7216(4) -0.3851(3) 0.2521(3)
O3 O 0.5359(3) -0.3092(3) 0.3220(4)
O4 O 0.8435(4) -0.1827(4) 0.0599(4)
O5 O 0.6295(3) -0.1270(3) 0.0642(3)
O6 O 0.7185(6) -0.1864(5) -0.0953(3)
Cd1A Cd 1.29615(2) 0.13183(3) 0.74274(2)
Cd1_2 Cd 1.70385(2) -0.13183(3) 0.25726(2)
N7A N 0.8464(3) -0.1968(3) 0.4165(3)
N8_2 N 0.5179(3) 0.0049(3) 0.3144(3)
loop_
_geom_bond_atom_site_label_1
_geom_bond_atom_site_label_2
_geom_bond_site_symmetry_1
_geom_bond_site_symmetry_2
C1 C2 1_555 1_555
H1 C18 1_555 1_555
C2 C3 1_555 1_555
C3 C4 1_555 1_555
C4 C5 1_555 1_555
C5 C6 1_555 1_555
C6 C1 1_555 1_555
C7 H2 1_555 1_555
H3 C7 1_555 1_555
C8 C9 1_555 1_555
C9 H4 1_555 1_555
H5 C16 1_555 1_555
H6 C19 1_555 1_555
H7 C17 1_555 1_555
C10 C9 1_555 1_555
H8 C10 1_555 1_555
C11 C10 1_555 1_555
H9 C11 1_555 1_555
C12 C11 1_555 1_555
H10 C12 1_555 1_555
C13 C8 1_555 1_555
C14 C15 1_555 1_555
H11 C5 1_555 1_555
H12 C2 1_555 1_555
H13 C3 1_555 1_555
H14 C4 1_555 1_555
C15 C16 1_555 1_555
C16 C17 1_555 1_555
C17 N8 1_555 1_555
C18 C19 1_555 1_555
C19 C15 1_555 1_555
Cd1 N3 1_555 1_555
N1 O4 1_555 1_555
N2 O1 1_555 1_555
N3 C6 1_555 1_555
N4 N3 1_555 1_555
N5 C1 1_555 1_555
N6 C7 1_555 1_555
N7 C13 1_555 1_555
N8 C18 1_555 1_555
O2 Cd1 1_555 1_555
O3 Cd1 1_555 1_555
O4 Cd1 1_555 1_555
O5 Cd1 1_555 1_555
O6 N1 1_555 1_555
Cd1A N7 1_555 1_555
Cd1_2 N8 1_555 1_555
N7A Cd1 1_555 1_555
N8_2 Cd1 1_555 1_555
C7 N5 1_555 1_555
C8 N6 1_555 1_555
C12 C13 1_555 1_555
C14 N6 1_555 1_555
C14 N7 1_555 1_555
N1 O5 1_555 1_555
N2 O2 1_555 1_555
N2 O3 1_555 1_555
N4 N5 1_555 1_555

#END
