
#######################################################################
#
#                 Cambridge Crystallographic Data Centre
#                                CCDC 
#
#######################################################################
#
# If this CIF has been generated from an entry in the Cambridge 
# Structural Database, then it will include bibliographic, chemical, 
# crystal, experimental, refinement or atomic coordinate data resulting 
# from the CCDC's data processing and validation procedures.
#
#######################################################################

data_DAYRAY
_symmetry_cell_setting           monoclinic
_symmetry_space_group_name_H-M   'C 2/c'
_symmetry_Int_Tables_number      15
_space_group_name_Hall           '-C 2yn'
loop_
_symmetry_equiv_pos_site_id
_symmetry_equiv_pos_as_xyz
1 x,y,z
2 -x,y,1/2-z
3 1/2+x,1/2+y,z
4 1/2-x,1/2+y,1/2-z
5 -x,-y,-z
6 x,-y,1/2+z
7 1/2-x,1/2-y,-z
8 1/2+x,1/2-y,1/2+z
_cell_length_a                   23.1614(4)
_cell_length_b                   10.7241(2)
_cell_length_c                   17.4725(3)
_cell_angle_alpha                90
_cell_angle_beta                 115.306(1)
_cell_angle_gamma                90
_cell_volume                     3923.44
loop_
_atom_site_label
_atom_site_type_symbol
_atom_site_fract_x
_atom_site_fract_y
_atom_site_fract_z
C1 C 0.10105(16) 0.8798(3) 0.82620(19)
C2 C 0.14202(17) 0.8109(3) 0.7946(2)
H1 H 0.1677 0.7472 0.8280
C3 C 0.14397(14) 0.8349(3) 0.72206(18)
H2 H 0.1194 0.9015 0.6909
C4 C 0.18106(14) 0.7670(3) 0.68515(17)
C5 C 0.17057(14) 0.7853(3) 0.60067(18)
C6 C 0.20692(15) 0.7191(3) 0.5680(2)
H3 H 0.2005 0.7330 0.5124
C7 C 0.25164(17) 0.6345(4) 0.6161(2)
H4 H 0.2743 0.5888 0.5928
C8 C 0.26290(18) 0.6173(4) 0.6991(2)
H5 H 0.2940 0.5609 0.7324
C9 C 0.22833(17) 0.6832(4) 0.7334(2)
H6 H 0.2369 0.6711 0.7900
C10 C -0.10548(18) 1.2146(4) 0.9067(2)
H7 H -0.1204 1.1359 0.9115
C11 C -0.1361(2) 1.3181(5) 0.9192(3)
H8 H -0.1710 1.3081 0.9318
C12 C -0.1153(2) 1.4332(5) 0.9132(3)
H9 H -0.1361 1.5030 0.9209
C13 C -0.0623(2) 1.4471(3) 0.8954(2)
C14 C -0.0363(2) 1.5657(4) 0.8898(3)
H10 H -0.0554 1.6376 0.8980
C15 C 0.0142(2) 1.5762(4) 0.8732(3)
H11 H 0.0300 1.6549 0.8704
C16 C 0.0448(2) 1.4680(3) 0.8594(2)
C17 C 0.0978(2) 1.4750(4) 0.8415(3)
H12 H 0.1154 1.5521 0.8394
C18 C 0.12356(19) 1.3694(4) 0.8272(2)
H13 H 0.1587 1.3732 0.8146
C19 C 0.09687(16) 1.2554(4) 0.8315(2)
H14 H 0.1148 1.1834 0.8211
C20 C 0.02073(16) 1.3486(3) 0.86371(19)
C21 C -0.03370(16) 1.3384(3) 0.88281(19)
C22 C 0.11889(14) 0.8687(3) 0.54030(17)
N1 N -0.05551(13) 1.2229(3) 0.88807(17)
N2 N 0.04717(12) 1.2435(2) 0.84973(16)
O1 O 0.09678(14) 0.8370(2) 0.89012(16)
O2 O 0.07328(11) 0.9790(2) 0.78930(14)
O4 O 0.06593(10) 0.8756(2) 0.54333(14)
O5 O 0.13034(11) 0.9248(2) 0.48502(13)
Pb1 Pb 0.020280(5) 1.026390(10) 0.884880(6)
O4E O 0.06593(10) 1.1244(2) 1.04333(14)
O5E O 0.13034(11) 1.0752(2) 0.98502(13)
Pb1E Pb 0.020280(5) 0.973610(10) 0.384880(6)
O3 O 0.2361(2) 1.1116(7) 0.5363(4)
H15 H 0.213(5) 1.053(8) 0.500(6)
H16 H 0.254(7) 1.172(10) 0.519(10)
loop_
_geom_bond_atom_site_label_1
_geom_bond_atom_site_label_2
_geom_bond_site_symmetry_1
_geom_bond_site_symmetry_2
C1 C2 1_555 1_555
C2 H1 1_555 1_555
C3 C2 1_555 1_555
H2 C3 1_555 1_555
C4 C3 1_555 1_555
C5 C4 1_555 1_555
C6 C5 1_555 1_555
H3 C6 1_555 1_555
C7 C6 1_555 1_555
H4 C7 1_555 1_555
C8 C7 1_555 1_555
H5 C8 1_555 1_555
C9 C4 1_555 1_555
H6 C9 1_555 1_555
C10 H7 1_555 1_555
C11 C10 1_555 1_555
H8 C11 1_555 1_555
C12 C11 1_555 1_555
H9 C12 1_555 1_555
C13 C12 1_555 1_555
C14 C13 1_555 1_555
H10 C14 1_555 1_555
C15 C14 1_555 1_555
H11 C15 1_555 1_555
C16 C15 1_555 1_555
C17 C16 1_555 1_555
H12 C17 1_555 1_555
C18 C17 1_555 1_555
H13 C18 1_555 1_555
C19 C18 1_555 1_555
H14 C19 1_555 1_555
C20 C16 1_555 1_555
C21 C13 1_555 1_555
C22 C5 1_555 1_555
N1 C10 1_555 1_555
N2 C19 1_555 1_555
O1 C1 1_555 1_555
O2 C1 1_555 1_555
O3 H15 1_555 1_555
O4 C22 1_555 1_555
O5 C22 1_555 1_555
Pb1 N1 1_555 1_555
H16 O3 1_555 1_555
O4E Pb1 1_555 1_555
O5E Pb1 1_555 1_555
Pb1E O4 1_555 1_555
C8 C9 1_555 1_555
C20 C21 1_555 1_555
C20 N2 1_555 1_555
C21 N1 1_555 1_555
N2 Pb1 1_555 1_555
O1 Pb1 1_555 1_555
O2 Pb1 1_555 1_555
O5 Pb1E 1_555 1_555

#END
