
#######################################################################
#
#                 Cambridge Crystallographic Data Centre
#                                CCDC 
#
#######################################################################
#
# If this CIF has been generated from an entry in the Cambridge 
# Structural Database, then it will include bibliographic, chemical, 
# crystal, experimental, refinement or atomic coordinate data resulting 
# from the CCDC's data processing and validation procedures.
#
#######################################################################

data_DAYTAZ
_symmetry_cell_setting           orthorhombic
_symmetry_space_group_name_H-M   'P n a 21'
_symmetry_Int_Tables_number      33
_space_group_name_Hall           'P 2c -2n'
loop_
_symmetry_equiv_pos_site_id
_symmetry_equiv_pos_as_xyz
1 x,y,z
2 -x,-y,1/2+z
3 1/2+x,1/2-y,z
4 1/2-x,1/2+y,1/2+z
_cell_length_a                   7.0670(10)
_cell_length_b                   24.123(2)
_cell_length_c                   13.3790(10)
_cell_angle_alpha                90
_cell_angle_beta                 90
_cell_angle_gamma                90
_cell_volume                     2280.82
loop_
_atom_site_label
_atom_site_type_symbol
_atom_site_fract_x
_atom_site_fract_y
_atom_site_fract_z
Cu1 Cu 0.37248(4) 0.361767(10) 0.31324(3)
S1 S 0.18998(10) 0.52931(3) 0.03113(6)
O1 O 0.2441(3) 0.39926(7) 0.20203(15)
O2 O 0.4530(3) 0.46381(11) 0.1561(2)
O3 O 0.0218(3) 0.61444(7) -0.10425(15)
O4 O -0.2718(3) 0.58068(8) -0.09834(16)
O5 O 0.6477(3) 0.40404(10) 0.2890(2)
H1 H 0.745(4) 0.4076(18) 0.325(3)
N1 N 0.4492(3) 0.31666(8) 0.43208(16)
N2 N 0.4104(3) 0.23093(9) 0.35201(17)
H2 H 0.3609 0.1988 0.3618
N3 N 0.4437(3) 0.29830(8) 0.22521(15)
C1 C 0.2936(4) 0.44285(11) 0.1568(2)
C2 C 0.1414(4) 0.47032(11) 0.0978(2)
C3 C -0.0432(4) 0.45562(12) 0.0887(3)
H3 H -0.0954 0.4246 0.1195
C4 C -0.1477(4) 0.49215(13) 0.0277(3)
H4 H -0.2762 0.4881 0.0145
C5 C -0.0395(4) 0.53408(10) -0.0098(2)
C6 C -0.0991(4) 0.58013(10) -0.0762(2)
C7 C 0.4980(4) 0.34447(13) 0.5167(2)
H5 H 0.5027 0.3830 0.5143
C8 C 0.5404(5) 0.31912(15) 0.6050(2)
H6 H 0.5750 0.3397 0.6608
C9 C 0.5304(5) 0.26160(15) 0.6090(2)
H7 H 0.5535 0.2431 0.6688
C10 C 0.4867(4) 0.23256(12) 0.5249(2)
H8 H 0.4818 0.1940 0.5263
C11 C 0.4492(4) 0.26128(10) 0.43643(18)
C12 C 0.4409(4) 0.24547(10) 0.25298(17)
C13 C 0.4699(4) 0.20183(11) 0.1853(2)
H9 H 0.4600 0.1651 0.2059
C14 C 0.5127(4) 0.21450(13) 0.0890(2)
H10 H 0.5327 0.1863 0.0427
C15 C 0.5265(4) 0.26952(14) 0.0597(2)
H11 H 0.5595 0.2788 -0.0054
C16 C 0.4900(4) 0.30991(12) 0.1296(2)
H12 H 0.4976 0.3469 0.1101
H22 H 0.645(7) 0.4238(18) 0.237(2)
Cu1A Cu -0.37248(4) 0.638233(10) -0.18676(3)
O4A O 0.2718(3) 0.41932(8) 0.40166(16)
O6 O 0.1613(4) 0.31322(14) 0.8349(3)
N4 N 0.2849(6) 0.39889(15) 0.8154(3)
C17 C 0.1109(12) 0.4222(3) 0.7847(8)
H13 H 0.0286 0.3933 0.7614
H14 H 0.1330 0.4482 0.7317
H15 H 0.0530 0.4409 0.8402
C18 C 0.4481(11) 0.4341(2) 0.8216(8)
H16 H 0.4186 0.4661 0.8615
H17 H 0.4842 0.4457 0.7557
H18 H 0.5506 0.4141 0.8519
C19 C 0.2885(7) 0.3470(2) 0.8387(3)
H19 H 0.4041 0.3336 0.8616
O7 O 0.7557(4) 0.30210(16) 0.8343(2)
H20 H 0.739(5) 0.2673(6) 0.830(4)
H21 H 0.873(2) 0.3091(14) 0.841(4)
loop_
_geom_bond_atom_site_label_1
_geom_bond_atom_site_label_2
_geom_bond_site_symmetry_1
_geom_bond_site_symmetry_2
Cu1 O1 1_555 1_555
S1 C2 1_555 1_555
O1 C1 1_555 1_555
O2 C1 1_555 1_555
O3 C6 1_555 1_555
O4 C6 1_555 1_555
O5 Cu1 1_555 1_555
H1 O5 1_555 1_555
O6 C19 1_555 1_555
O7 H20 1_555 1_555
N1 Cu1 1_555 1_555
N2 H2 1_555 1_555
N3 Cu1 1_555 1_555
N4 C17 1_555 1_555
C1 C2 1_555 1_555
C2 C3 1_555 1_555
C3 H3 1_555 1_555
C4 C3 1_555 1_555
H4 C4 1_555 1_555
C5 S1 1_555 1_555
C6 C5 1_555 1_555
C7 N1 1_555 1_555
H5 C7 1_555 1_555
C8 C7 1_555 1_555
H6 C8 1_555 1_555
C9 C8 1_555 1_555
H7 C9 1_555 1_555
C10 C9 1_555 1_555
H8 C10 1_555 1_555
C11 N1 1_555 1_555
C12 N2 1_555 1_555
C13 C12 1_555 1_555
H9 C13 1_555 1_555
C14 C13 1_555 1_555
H10 C14 1_555 1_555
C15 C14 1_555 1_555
H11 C15 1_555 1_555
C16 N3 1_555 1_555
H12 C16 1_555 1_555
C17 H13 1_555 1_555
H14 C17 1_555 1_555
H15 C17 1_555 1_555
C18 N4 1_555 1_555
H16 C18 1_555 1_555
H17 C18 1_555 1_555
H18 C18 1_555 1_555
C19 N4 1_555 1_555
H19 C19 1_555 1_555
H21 O7 1_555 1_555
H22 O5 1_555 1_555
Cu1A O4 1_555 1_555
O4A Cu1 1_555 1_555
N2 C11 1_555 1_555
N3 C12 1_555 1_555
C4 C5 1_555 1_555
C10 C11 1_555 1_555
C15 C16 1_555 1_555

#END
