
#######################################################################
#
#                 Cambridge Crystallographic Data Centre
#                                CCDC 
#
#######################################################################
#
# If this CIF has been generated from an entry in the Cambridge 
# Structural Database, then it will include bibliographic, chemical, 
# crystal, experimental, refinement or atomic coordinate data resulting 
# from the CCDC's data processing and validation procedures.
#
#######################################################################

data_DAZBUC
_symmetry_cell_setting           monoclinic
_symmetry_space_group_name_H-M   'P 21/c'
_symmetry_Int_Tables_number      14
_space_group_name_Hall           '-P 2ybc'
loop_
_symmetry_equiv_pos_site_id
_symmetry_equiv_pos_as_xyz
1 x,y,z
2 -x,1/2+y,1/2-z
3 -x,-y,-z
4 x,1/2-y,1/2+z
_cell_length_a                   15.744(3)
_cell_length_b                   10.956(2)
_cell_length_c                   15.094(3)
_cell_angle_alpha                90
_cell_angle_beta                 114.74(3)
_cell_angle_gamma                90
_cell_volume                     2364.62
loop_
_atom_site_label
_atom_site_type_symbol
_atom_site_fract_x
_atom_site_fract_y
_atom_site_fract_z
Cd1 Cd 0.105720(18) 0.21237(3) 0.706680(18)
N1 N 0.2000(2) 0.1975(3) 0.8712(2)
N2 N 0.2285(3) 0.1719(3) 1.0281(2)
N3 N 0.1596(2) 0.0908(3) 0.6206(2)
N4 N 0.1747(2) 0.0135(3) 0.4912(2)
O1 O 0.19262(19) 0.3813(3) 0.69280(18)
O2 O 0.1447(2) 0.4824(3) 0.7907(2)
O3 O 0.32820(19) 0.5558(3) 0.7183(2)
O4 O 0.0223(2) 0.7310(3) 0.4541(3)
O5 O 0.0421(2) 0.7197(3) 0.3187(2)
O6 O 0.0340(2) 0.0263(3) 0.7284(3)
C1 C 0.1671(3) 0.1577(4) 0.9336(3)
C2 C 0.3085(3) 0.2235(3) 1.0299(3)
C3 C 0.3925(3) 0.2578(4) 1.1070(3)
C4 C 0.4581(4) 0.3084(5) 1.0828(4)
C5 C 0.4425(3) 0.3245(5) 0.9837(4)
C6 C 0.3590(3) 0.2907(4) 0.9072(3)
C7 C 0.2900(3) 0.2403(3) 0.9303(3)
C8 C 0.1215(3) 0.0782(4) 0.5236(3)
C9 C 0.2447(3) 0.0279(3) 0.6537(3)
C10 C 0.3139(3) 0.0088(4) 0.7488(3)
C11 C 0.3919(3) -0.0566(4) 0.7593(3)
C12 C 0.4012(3) -0.1026(4) 0.6773(4)
C13 C 0.3343(3) -0.0848(4) 0.5833(3)
C14 C 0.2551(3) -0.0206(3) 0.5720(3)
C15 C 0.1957(3) 0.4701(4) 0.7471(2)
C16 C 0.2700(3) 0.5682(4) 0.7678(3)
C17 C 0.2933(2) 0.5932(4) 0.6219(3)
C18 C 0.3555(3) 0.5877(4) 0.5793(3)
C19 C 0.3255(3) 0.6174(4) 0.4814(3)
C20 C 0.2337(3) 0.6555(4) 0.4250(3)
C21 C 0.1723(3) 0.6651(3) 0.4685(3)
C22 C 0.2017(3) 0.6343(4) 0.5672(3)
C23 C 0.0717(3) 0.7092(4) 0.4108(3)
H1 H 0.055(3) -0.046(2) 0.741(5)
H2 H -0.017(2) 0.031(5) 0.735(4)
H3 H 0.1080 0.1236 0.9145
H4 H 0.4027 0.2462 1.1717
H5 H 0.5146 0.3333 1.1320
H6 H 0.4896 0.3586 0.9697
H7 H 0.3497 0.3015 0.8427
H8 H 0.0639 0.1111 0.4828
H9 H 0.3070 0.0396 0.8028
H10 H 0.4388 -0.0704 0.8212
H11 H 0.4546 -0.1470 0.6865
H12 H 0.3423 -0.1150 0.5298
H13 H 0.2389 0.6468 0.7509
H14 H 0.3092 0.5689 0.8373
H15 H 0.4171 0.5642 0.6160
H16 H 0.3674 0.6119 0.4527
H17 H 0.2144 0.6740 0.3593
H18 H 0.1603 0.6412 0.5964
H19 H 0.2189 0.1520 1.0783
H20 H 0.1616 -0.0039 0.4314
Cd1B Cd -0.105720(18) 0.78763(3) 0.293320(18)
O4B O -0.0223(2) 0.2690(3) 0.5459(3)
O5B O -0.0421(2) 0.2803(3) 0.6813(2)
O7 O 0.0812(8) 0.8014(10) 0.6626(8)
loop_
_geom_bond_atom_site_label_1
_geom_bond_atom_site_label_2
_geom_bond_site_symmetry_1
_geom_bond_site_symmetry_2
Cd1 N1 1_555 1_555
N1 C1 1_555 1_555
N2 C1 1_555 1_555
N3 Cd1 1_555 1_555
N4 C8 1_555 1_555
O1 Cd1 1_555 1_555
O2 C15 1_555 1_555
O3 C16 1_555 1_555
O4 C23 1_555 1_555
O5 C23 1_555 1_555
O6 Cd1 1_555 1_555
C1 H3 1_555 1_555
C2 N2 1_555 1_555
C3 C2 1_555 1_555
C4 C3 1_555 1_555
C5 C4 1_555 1_555
C6 C5 1_555 1_555
C7 N1 1_555 1_555
C8 N3 1_555 1_555
C9 N3 1_555 1_555
C10 C9 1_555 1_555
C11 C10 1_555 1_555
C12 C11 1_555 1_555
C13 C12 1_555 1_555
C14 N4 1_555 1_555
C15 O1 1_555 1_555
C16 C15 1_555 1_555
C17 O3 1_555 1_555
C18 C17 1_555 1_555
C19 C18 1_555 1_555
C20 C19 1_555 1_555
C21 C20 1_555 1_555
C22 C17 1_555 1_555
C23 C21 1_555 1_555
H1 O6 1_555 1_555
H2 O6 1_555 1_555
H4 C3 1_555 1_555
H5 C4 1_555 1_555
H6 C5 1_555 1_555
H7 C6 1_555 1_555
H8 C8 1_555 1_555
H9 C10 1_555 1_555
H10 C11 1_555 1_555
H11 C12 1_555 1_555
H12 C13 1_555 1_555
H13 C16 1_555 1_555
H14 C16 1_555 1_555
H15 C18 1_555 1_555
H16 C19 1_555 1_555
H17 C20 1_555 1_555
H18 C22 1_555 1_555
H19 N2 1_555 1_555
H20 N4 1_555 1_555
Cd1B O4 1_555 1_555
O4B Cd1 1_555 1_555
O5B Cd1 1_555 1_555
O5 Cd1B 1_555 1_555
C2 C7 1_555 1_555
C6 C7 1_555 1_555
C9 C14 1_555 1_555
C13 C14 1_555 1_555
C21 C22 1_555 1_555

#END
