
#######################################################################
#
#                 Cambridge Crystallographic Data Centre
#                                CCDC 
#
#######################################################################
#
# If this CIF has been generated from an entry in the Cambridge 
# Structural Database, then it will include bibliographic, chemical, 
# crystal, experimental, refinement or atomic coordinate data resulting 
# from the CCDC's data processing and validation procedures.
#
#######################################################################

data_DAZHAO
_symmetry_cell_setting           triclinic
_symmetry_space_group_name_H-M   'P -1'
_symmetry_Int_Tables_number      2
_space_group_name_Hall           '-P 1'
loop_
_symmetry_equiv_pos_site_id
_symmetry_equiv_pos_as_xyz
1 x,y,z
2 -x,-y,-z
_cell_length_a                   8.528(2)
_cell_length_b                   9.1280(10)
_cell_length_c                   15.3710(10)
_cell_angle_alpha                91.7370(10)
_cell_angle_beta                 97.0430(10)
_cell_angle_gamma                115.6390(10)
_cell_volume                     1065.92
loop_
_atom_site_label
_atom_site_type_symbol
_atom_site_fract_x
_atom_site_fract_y
_atom_site_fract_z
Cu1 Cu 0.17180(3) 0.17671(3) 0.161960(14)
Cu2 Cu 0.5000 0.5000 0.5000
S1 S 0.56164(8) 0.85022(8) 0.55650(4)
S2 S 0.13340(8) -0.15944(8) 0.11709(4)
S3 S 0.22598(8) 0.51965(8) 0.21947(4)
N1 N 0.6970(2) 0.8330(2) 0.72804(11)
N2 N -0.0411(2) -0.1864(2) -0.05217(12)
N3 N -0.0579(2) 0.0806(2) 0.21512(11)
N4 N 0.3973(2) 0.2757(2) 0.10611(11)
N5 N 0.4136(2) 0.5298(2) 0.38288(11)
N6 N 0.2512(2) 0.4149(2) 0.53113(11)
C1 C 0.6416(3) 0.8412(2) 0.65688(13)
C2 C 0.0307(3) -0.1746(2) 0.01843(14)
C3 C -0.0951(3) -0.0405(3) 0.26741(14)
H1 H -0.0122 -0.0801 0.2815
C4 C -0.2498(3) -0.1091(3) 0.30122(17)
H2 H -0.2703 -0.1930 0.3376
C5 C -0.3737(3) -0.0535(3) 0.28114(19)
H3 H -0.4799 -0.0989 0.3031
C6 C -0.3376(3) 0.0704(3) 0.22791(18)
H4 H -0.4191 0.1113 0.2131
C7 C -0.1795(3) 0.1343(3) 0.19635(15)
H5 H -0.1564 0.2189 0.1602
C8 C 0.5407(3) 0.4026(3) 0.14644(15)
H6 H 0.5375 0.4455 0.2015
C9 C 0.6937(3) 0.4735(3) 0.11056(18)
H7 H 0.7915 0.5621 0.1408
C10 C 0.6994(3) 0.4111(3) 0.02938(19)
H8 H 0.8009 0.4568 0.0034
C11 C 0.5543(3) 0.2816(3) -0.01205(17)
H9 H 0.5555 0.2366 -0.0669
C12 C 0.4053(3) 0.2170(3) 0.02698(14)
H10 H 0.3061 0.1289 -0.0028
C13 C 0.3345(3) 0.5246(2) 0.31523(13)
C14 C 0.2214(3) 0.4751(3) 0.60401(15)
H11 H 0.3160 0.5577 0.6401
C15 C 0.0573(3) 0.4206(3) 0.62815(17)
H12 H 0.0417 0.4662 0.6794
C16 C -0.0828(3) 0.2989(3) 0.57643(19)
H13 H -0.1952 0.2600 0.5916
C17 C -0.0540(3) 0.2358(3) 0.50222(18)
H14 H -0.1468 0.1517 0.4662
C18 C 0.1136(3) 0.2972(3) 0.48053(15)
H15 H 0.1310 0.2549 0.4288
Cu1A Cu 0.82820(3) 0.82329(3) 0.838040(14)
Cu1A_2 Cu -0.17180(3) -0.17671(3) -0.161960(14)
S1A S 0.43836(8) 0.14978(8) 0.44350(4)
S2A S -0.13340(8) 0.15944(8) -0.11709(4)
S2A_2 S 0.86660(8) 1.15944(8) 0.88291(4)
S3A S 0.77402(8) 0.48035(8) 0.78053(4)
N1A N 0.3030(2) 0.1670(2) 0.27196(11)
N2A N 0.0411(2) 0.1864(2) 0.05217(12)
N2_2 N 0.9589(2) 0.8136(2) 0.94783(12)
N3A N 1.0579(2) 0.9194(2) 0.78488(11)
N4A N 0.6027(2) 0.7243(2) 0.89389(11)
N5A N 0.5864(2) 0.4702(2) 0.61712(11)
N6A N 0.7488(2) 0.5851(2) 0.46887(11)
C1A C 0.3584(3) 0.1588(2) 0.34312(13)
C2A C -0.0307(3) 0.1746(2) -0.01843(14)
C3A C 1.0951(3) 1.0405(3) 0.73259(14)
H1A H 1.0122 1.0801 0.7185
C4A C 1.2498(3) 1.1091(3) 0.69878(17)
H2A H 1.2703 1.1930 0.6624
C5A C 1.3737(3) 1.0535(3) 0.71886(19)
H3A H 1.4799 1.0989 0.6969
C6A C 1.3376(3) 0.9296(3) 0.77209(18)
H4A H 1.4191 0.8887 0.7869
C7A C 1.1795(3) 0.8657(3) 0.80365(15)
H5A H 1.1564 0.7811 0.8398
C8A C 0.4593(3) 0.5974(3) 0.85356(15)
H6A H 0.4625 0.5545 0.7985
C9A C 0.3063(3) 0.5265(3) 0.88944(18)
H7A H 0.2085 0.4379 0.8592
C10A C 0.3006(3) 0.5889(3) 0.97062(19)
H8A H 0.1991 0.5432 0.9966
C11A C 0.4457(3) 0.7184(3) 1.01205(17)
H9A H 0.4445 0.7634 1.0669
C12A C 0.5947(3) 0.7830(3) 0.97302(14)
H10A H 0.6939 0.8711 1.0028
C13A C 0.6655(3) 0.4754(2) 0.68477(13)
C14A C 0.7786(3) 0.5249(3) 0.39599(15)
H11A H 0.6840 0.4423 0.3599
C15A C 0.9427(3) 0.5794(3) 0.37185(17)
H12A H 0.9583 0.5338 0.3206
C16A C 1.0828(3) 0.7011(3) 0.42357(19)
H13A H 1.1952 0.7400 0.4084
C17A C 1.0540(3) 0.7642(3) 0.49778(18)
H14A H 1.1468 0.8483 0.5338
C18A C 0.8864(3) 0.7028(3) 0.51947(15)
H15A H 0.8690 0.7451 0.5712
loop_
_geom_bond_atom_site_label_1
_geom_bond_atom_site_label_2
_geom_bond_site_symmetry_1
_geom_bond_site_symmetry_2
Cu1 S2 1_555 1_555
Cu2 S1 1_555 1_555
S1 C1 1_555 1_555
S2 C2 1_555 1_555
S3 Cu1 1_555 1_555
N1 C1 1_555 1_555
N2 C2 1_555 1_555
N3 Cu1 1_555 1_555
N4 Cu1 1_555 1_555
N5 Cu2 1_555 1_555
N6 Cu2 1_555 1_555
C3 N3 1_555 1_555
H1 C3 1_555 1_555
C4 C3 1_555 1_555
H2 C4 1_555 1_555
C5 C4 1_555 1_555
H3 C5 1_555 1_555
C6 C5 1_555 1_555
H4 C6 1_555 1_555
C7 N3 1_555 1_555
H5 C7 1_555 1_555
C8 N4 1_555 1_555
H6 C8 1_555 1_555
C9 C8 1_555 1_555
H7 C9 1_555 1_555
C10 C9 1_555 1_555
H8 C10 1_555 1_555
C11 C10 1_555 1_555
H9 C11 1_555 1_555
C12 N4 1_555 1_555
H10 C12 1_555 1_555
C13 S3 1_555 1_555
C14 N6 1_555 1_555
H11 C14 1_555 1_555
C15 C14 1_555 1_555
H12 C15 1_555 1_555
C16 C15 1_555 1_555
H13 C16 1_555 1_555
C17 C16 1_555 1_555
H14 C17 1_555 1_555
C18 N6 1_555 1_555
H15 C18 1_555 1_555
Cu1A N1 1_555 1_555
Cu1A_2 N2 1_555 1_555
S1A Cu2 1_555 1_555
S2A Cu1A_2 1_555 1_555
S2A_2 Cu1A 1_555 1_555
S3A Cu1A 1_555 1_555
N1A Cu1 1_555 1_555
N2A Cu1 1_555 1_555
N2_2 Cu1A 1_555 1_555
N3A Cu1A 1_555 1_555
N4A Cu1A 1_555 1_555
N5A Cu2 1_555 1_555
N6A Cu2 1_555 1_555
C1A S1A 1_555 1_555
C2A S2A 1_555 1_555
C3A N3A 1_555 1_555
H1A C3A 1_555 1_555
C4A C3A 1_555 1_555
H2A C4A 1_555 1_555
C5A C4A 1_555 1_555
H3A C5A 1_555 1_555
C6A C5A 1_555 1_555
H4A C6A 1_555 1_555
C7A N3A 1_555 1_555
H5A C7A 1_555 1_555
C8A N4A 1_555 1_555
H6A C8A 1_555 1_555
C9A C8A 1_555 1_555
H7A C9A 1_555 1_555
C10A C9A 1_555 1_555
H8A C10A 1_555 1_555
C11A C10A 1_555 1_555
H9A C11A 1_555 1_555
C12A N4A 1_555 1_555
H10A C12A 1_555 1_555
C13A S3A 1_555 1_555
C14A N6A 1_555 1_555
H11A C14A 1_555 1_555
C15A C14A 1_555 1_555
H12A C15A 1_555 1_555
C16A C15A 1_555 1_555
H13A C16A 1_555 1_555
C17A C16A 1_555 1_555
H14A C17A 1_555 1_555
C18A N6A 1_555 1_555
H15A C18A 1_555 1_555
N5 C13 1_555 1_555
C6 C7 1_555 1_555
C11 C12 1_555 1_555
C17 C18 1_555 1_555
N1A C1A 1_555 1_555
N2A C2A 1_555 1_555
N5A C13A 1_555 1_555
C6A C7A 1_555 1_555
C11A C12A 1_555 1_555
C17A C18A 1_555 1_555

#END
