
#######################################################################
#
#                 Cambridge Crystallographic Data Centre
#                                CCDC 
#
#######################################################################
#
# If this CIF has been generated from an entry in the Cambridge 
# Structural Database, then it will include bibliographic, chemical, 
# crystal, experimental, refinement or atomic coordinate data resulting 
# from the CCDC's data processing and validation procedures.
#
#######################################################################

data_DAZNIC
_symmetry_cell_setting           triclinic
_symmetry_space_group_name_H-M   'P -1'
_symmetry_Int_Tables_number      2
_space_group_name_Hall           '-P 1'
loop_
_symmetry_equiv_pos_site_id
_symmetry_equiv_pos_as_xyz
1 x,y,z
2 -x,-y,-z
_cell_length_a                   9.589(5)
_cell_length_b                   10.144(7)
_cell_length_c                   11.312(5)
_cell_angle_alpha                87.11(2)
_cell_angle_beta                 72.38(2)
_cell_angle_gamma                64.96(2)
_cell_volume                     946.286
loop_
_atom_site_label
_atom_site_type_symbol
_atom_site_fract_x
_atom_site_fract_y
_atom_site_fract_z
Ni1 Ni 0.03068(3) 0.14402(3) 0.76434(2)
O1 O -0.14714(19) 0.07681(18) 0.86007(15)
O2 O -0.30686(19) 0.15869(17) 1.14898(15)
O3 O -0.1970(2) 0.26663(19) 0.47775(16)
O4 O 0.1858(2) -0.05491(18) 0.66663(15)
O5 O -0.14707(19) -0.08070(17) 1.09914(15)
O6 O -0.0749(2) 0.18264(18) 0.62160(15)
O7 O -0.3761(2) 0.4910(2) 0.71009(17)
O8 O -0.2387(2) 0.0459(2) 0.70834(16)
O9 O -0.3905(2) 0.7161(2) 0.71870(19)
N1 N -0.1035(2) 0.3472(2) 0.86023(18)
N2 N 0.1896(2) 0.2358(2) 0.69033(18)
C1 C -0.2667(3) 0.0350(2) 1.09823(19)
C2 C -0.0615(3) 0.3946(2) 0.5262(2)
C3 C -0.1529(3) 0.5356(2) 0.5859(2)
C4 C 0.1352(3) 0.3726(2) 0.7421(2)
C5 C -0.0240(3) 0.4337(2) 0.8325(2)
C6 C -0.3726(3) 0.0207(2) 0.9156(2)
C7 C 0.0904(3) 0.3605(2) 0.4402(2)
C8 C -0.3855(2) 0.0198(2) 1.0418(2)
C9 C -0.4863(3) 0.0010(2) 0.8750(2)
C10 C -0.3182(3) 0.5767(2) 0.6782(2)
C11 C -0.2478(3) 0.3987(3) 0.9466(2)
C12 C 0.0087(4) 0.6562(3) 0.8579(3)
C13 C -0.1200(3) 0.2759(2) 0.5436(2)
C14 C 0.3377(3) 0.1746(3) 0.6097(2)
C15 C -0.2426(3) 0.6277(3) 0.9796(2)
C16 C 0.1586(4) 0.5977(3) 0.7749(2)
C17 C -0.2408(3) 0.0492(2) 0.8235(2)
C18 C 0.3844(3) 0.3851(3) 0.6289(2)
C19 C -0.0877(3) 0.5754(3) 0.8896(2)
C20 C 0.4396(3) 0.2459(3) 0.5774(2)
C21 C 0.2272(3) 0.4534(3) 0.7141(2)
C22 C -0.3212(3) 0.5392(3) 1.0082(2)
H1 H 0.1742 -0.1167 0.6228
H2 H 0.2227 -0.1120 0.7083
H3 H -0.1792 0.0954 0.6683
H4 H -0.4644 0.7319 0.7622
H5 H 0.1554 0.2602 0.3958
H6 H -0.4754 0.0012 0.7843
H7 H -0.3065 0.3352 0.9680
H8 H -0.0368 0.7579 0.8973
H9 H 0.3784 0.0735 0.5710
H10 H -0.2937 0.7283 1.0226
H11 H 0.2230 0.6564 0.7545
H12 H 0.4542 0.4386 0.6057
H13 H 0.5517 0.1957 0.5181
H14 H -0.4299 0.5746 1.0730
Ni1A Ni -1.03068(3) -0.14402(3) 1.23566(2)
Ni1A_2 Ni -0.03068(3) -0.14402(3) 1.23566(2)
Ni1_2 Ni -0.96932(3) 0.14402(3) 0.76434(2)
Ni1A_3 Ni -0.03068(3) 0.85598(3) 0.23566(2)
O1A O -0.85286(19) -0.07681(18) 1.13993(15)
O2A O -0.69314(19) -0.15869(17) 0.85102(15)
O3A O 0.1970(2) 0.73337(19) 0.52225(16)
O4A O -1.1858(2) 0.05491(18) 1.33337(15)
O5A O -0.85293(19) 0.08070(17) 0.90086(15)
O5A_2 O 0.14707(19) 0.08070(17) 0.90086(15)
O5_2 O -1.14707(19) -0.08070(17) 1.09914(15)
O6A O 0.0749(2) 0.81736(18) 0.37840(15)
O6A_2 O -0.9251(2) -0.18264(18) 1.37840(15)
O7A O 0.3761(2) 0.5090(2) 0.28991(17)
O8A O -0.7613(2) -0.0459(2) 1.29166(16)
O9A O 0.3905(2) 0.2839(2) 0.28130(19)
N1A N -0.8965(2) -0.3472(2) 1.13977(18)
N2A N -1.1896(2) -0.2358(2) 1.30967(18)
C1A C -0.7333(3) -0.0350(2) 0.90177(19)
C2A C 0.0615(3) 0.6054(2) 0.4738(2)
C3A C 0.1529(3) 0.4644(2) 0.4141(2)
C4A C -1.1352(3) -0.3726(2) 1.2579(2)
C5A C -0.9760(3) -0.4337(2) 1.1675(2)
C6A C -0.6274(3) -0.0207(2) 1.0844(2)
C7A C -0.0904(3) 0.6395(2) 0.5598(2)
C8A C -0.6145(2) -0.0198(2) 0.9582(2)
C9A C -0.5137(3) -0.0010(2) 1.1250(2)
C10A C 0.3182(3) 0.4233(2) 0.3218(2)
C11A C -0.7522(3) -0.3987(3) 1.0534(2)
C12A C -1.0087(4) -0.6562(3) 1.1421(3)
C13A C 0.1200(3) 0.7241(2) 0.4564(2)
C14A C -1.3377(3) -0.1746(3) 1.3903(2)
C15A C -0.7574(3) -0.6277(3) 1.0204(2)
C16A C -1.1586(4) -0.5977(3) 1.2251(2)
C17A C -0.7592(3) -0.0492(2) 1.1765(2)
C18A C -1.3844(3) -0.3851(3) 1.3711(2)
C19A C -0.9123(3) -0.5754(3) 1.1104(2)
C20A C -1.4396(3) -0.2459(3) 1.4226(2)
C21A C -1.2272(3) -0.4534(3) 1.2859(2)
C22A C -0.6788(3) -0.5392(3) 0.9918(2)
H1A H -1.1742 0.1167 1.3772
H2A H -1.2227 0.1120 1.2917
H3A H -0.8208 -0.0954 1.3317
H4A H 0.4644 0.2681 0.2378
H5A H -0.1554 0.7398 0.6042
H6A H -0.5246 -0.0012 1.2157
H7A H -0.6935 -0.3352 1.0320
H8A H -0.9632 -0.7579 1.1027
H9A H -1.3784 -0.0735 1.4290
H10A H -0.7063 -0.7283 0.9774
H11A H -1.2230 -0.6564 1.2455
H12A H -1.4542 -0.4386 1.3943
H13A H -1.5517 -0.1957 1.4819
H14A H -0.5701 -0.5746 0.9270
loop_
_geom_bond_atom_site_label_1
_geom_bond_atom_site_label_2
_geom_bond_site_symmetry_1
_geom_bond_site_symmetry_2
Ni1 O1 1_555 1_555
O1 C17 1_555 1_555
O2 C1 1_555 1_555
O3 C13 1_555 1_555
O4 Ni1 1_555 1_555
O5 C1 1_555 1_555
O6 Ni1 1_555 1_555
O7 C10 1_555 1_555
O8 C17 1_555 1_555
O9 C10 1_555 1_555
N1 Ni1 1_555 1_555
N2 Ni1 1_555 1_555
C1 C8 1_555 1_555
C2 C3 1_555 1_555
C3 C10 1_555 1_555
C4 N2 1_555 1_555
C5 N1 1_555 1_555
C6 C8 1_555 1_555
C7 C2 1_555 1_555
C8 C9A 1_555 1_555
C9 C6 1_555 1_555
C11 N1 1_555 1_555
C12 C16 1_555 1_555
C13 O6 1_555 1_555
C14 N2 1_555 1_555
C15 C19 1_555 1_555
C16 C21 1_555 1_555
C17 C6 1_555 1_555
C18 C20 1_555 1_555
C19 C5 1_555 1_555
C20 C14 1_555 1_555
C21 C4 1_555 1_555
C22 C11 1_555 1_555
H1 O4 1_555 1_555
H2 O4 1_555 1_555
H3 O8 1_555 1_555
H4 O9 1_555 1_555
H5 C7 1_555 1_555
H6 C9 1_555 1_555
H7 C11 1_555 1_555
H8 C12 1_555 1_555
H9 C14 1_555 1_555
H10 C15 1_555 1_555
H11 C16 1_555 1_555
H12 C18 1_555 1_555
H13 C20 1_555 1_555
H14 C22 1_555 1_555
Ni1A O1A 1_555 1_555
Ni1A_2 O5 1_555 1_555
Ni1_2 O5A 1_555 1_555
Ni1A_3 O6A 1_555 1_555
O1A C17A 1_555 1_555
O2A C1A 1_555 1_555
O3A C13A 1_555 1_555
O4A Ni1A 1_555 1_555
O5A C1A 1_555 1_555
O5A_2 Ni1 1_555 1_555
O5_2 Ni1A 1_555 1_555
O6A C13A 1_555 1_555
O6A_2 Ni1A 1_555 1_555
O7A C10A 1_555 1_555
O8A C17A 1_555 1_555
O9A C10A 1_555 1_555
N1A Ni1A 1_555 1_555
N2A Ni1A 1_555 1_555
C1A C8A 1_555 1_555
C2A C3A 1_555 1_555
C3A C7 1_555 1_555
C4A N2A 1_555 1_555
C5A N1A 1_555 1_555
C6A C8A 1_555 1_555
C7A C3 1_555 1_555
C8A C9 1_555 1_555
C9A C6A 1_555 1_555
C10A C3A 1_555 1_555
C11A N1A 1_555 1_555
C12A C16A 1_555 1_555
C13A C2A 1_555 1_555
C14A N2A 1_555 1_555
C15A C19A 1_555 1_555
C16A C21A 1_555 1_555
C17A C6A 1_555 1_555
C18A C20A 1_555 1_555
C19A C5A 1_555 1_555
C20A C14A 1_555 1_555
C21A C4A 1_555 1_555
C22A C11A 1_555 1_555
H1A O4A 1_555 1_555
H2A O4A 1_555 1_555
H3A O8A 1_555 1_555
H4A O9A 1_555 1_555
H5A C7A 1_555 1_555
H6A C9A 1_555 1_555
H7A C11A 1_555 1_555
H8A C12A 1_555 1_555
H9A C14A 1_555 1_555
H10A C15A 1_555 1_555
H11A C16A 1_555 1_555
H12A C18A 1_555 1_555
H13A C20A 1_555 1_555
H14A C22A 1_555 1_555
C2 C13 1_555 1_555
C4 C5 1_555 1_555
C12 C19 1_555 1_555
C15 C22 1_555 1_555
C18 C21 1_555 1_555
C2A C7A 1_555 1_555
C4A C5A 1_555 1_555
C12A C19A 1_555 1_555
C15A C22A 1_555 1_555
C18A C21A 1_555 1_555

#END
