
#######################################################################
#
#                 Cambridge Crystallographic Data Centre
#                                CCDC 
#
#######################################################################
#
# If this CIF has been generated from an entry in the Cambridge 
# Structural Database, then it will include bibliographic, chemical, 
# crystal, experimental, refinement or atomic coordinate data resulting 
# from the CCDC's data processing and validation procedures.
#
#######################################################################

data_DAZWUX
_symmetry_cell_setting           orthorhombic
_symmetry_space_group_name_H-M   'P n a 21'
_symmetry_Int_Tables_number      33
_space_group_name_Hall           'P 2c -2n'
loop_
_symmetry_equiv_pos_site_id
_symmetry_equiv_pos_as_xyz
1 x,y,z
2 -x,-y,1/2+z
3 1/2+x,1/2-y,z
4 1/2-x,1/2+y,1/2+z
_cell_length_a                   11.0392(9)
_cell_length_b                   44.037(4)
_cell_length_c                   14.5481(12)
_cell_angle_alpha                90
_cell_angle_beta                 90
_cell_angle_gamma                90
_cell_volume                     7072.32
loop_
_atom_site_label
_atom_site_type_symbol
_atom_site_fract_x
_atom_site_fract_y
_atom_site_fract_z
Hg1 Hg 0.38479(9) 0.49995(2) 0.97781(9)
Hg2 Hg 1.15359(10) 0.59422(2) 0.49443(8)
Hg3 Hg 0.42152(9) 0.69342(2) -0.01891(11)
Hg4 Hg 0.34029(10) 0.29958(2) 1.98818(10)
Hg5 Hg 1.09945(9) 0.39045(2) 1.48699(9)
S1 S 0.2887(12) 0.4568(3) 0.9106(9)
S2 S 0.3033(10) 0.54706(19) 1.0358(7)
S3 S 1.2392(10) 0.5539(2) 0.4015(8)
S4 S 1.2500(10) 0.6350(2) 0.5749(9)
S5 S 0.3734(10) 0.6467(3) -0.0938(10)
S6 S 0.3170(11) 0.7366(2) 0.0428(8)
S7 S 0.2341(9) 0.25822(19) 1.9116(9)
S8 S 0.2568(9) 0.3453(2) 2.0509(8)
S9 S 1.1311(12) 0.3459(3) 1.3950(10)
S10 S 1.2148(9) 0.4291(2) 1.5625(8)
N1 N 0.536(2) 0.5174(5) 0.8744(17)
N2 N 0.9964(19) 0.5719(5) 0.5832(13)
N3 N 1.000(2) 0.6166(4) 0.4032(17)
N4 N 0.565(2) 0.6763(5) 0.0877(19)
N5 N 0.567(2) 0.7161(6) -0.1195(17)
N6 N 1.009(2) 0.7770(5) -0.4229(16)
N7 N 0.492(2) 0.3174(5) 1.8873(17)
N8 N 0.9520(19) 0.3714(5) 1.593(2)
N9 N 0.5331(19) 0.4797(4) 1.0755(14)
N10 N 0.949(2) 0.4182(5) 1.4003(17)
N11 N 0.479(4) 0.4163(7) 0.903(3)
N12 N 0.490(3) 0.5663(7) 1.156(3)
N13 N 1.039(3) 0.5167(7) 0.380(3)
N14 N 1.058(4) 0.6684(8) 0.634(4)
N15 N 0.601(4) 0.6185(10) -0.080(3)
N16 N 0.515(5) 0.7641(8) 0.144(3)
N17 N 0.432(3) 0.2168(6) 1.890(3)
N18 N 0.449(4) 0.3712(8) 2.155(3)
N19 N 0.895(5) 0.3193(12) 1.405(4)
N20 N 1.027(4) 0.4616(9) 1.634(3)
C1 C 0.580(3) 0.4979(6) 0.808(2)
H1 H 0.5453 0.4790 0.7983
C2 C 0.681(2) 0.5080(5) 0.7534(19)
H2 H 0.7187 0.4946 0.7132
C3 C 0.722(3) 0.5377(5) 0.761(2)
C4 C 0.674(3) 0.5555(6) 0.828(2)
H3 H 0.7024 0.5752 0.8359
C5 C 0.576(3) 0.5442(6) 0.890(2)
H4 H 0.5455 0.5561 0.9376
C6 C 0.813(3) 0.5494(6) 0.7002(18)
C7 C 0.903(3) 0.5315(6) 0.6555(19)
H5 H 0.9049 0.5107 0.6671
C8 C 0.984(3) 0.5431(6) 0.598(2)
H6 H 1.0351 0.5298 0.5668
C9 C 0.928(3) 0.5925(10) 0.632(3)
H7 H 0.9437 0.6133 0.6317
C10 C 0.834(2) 0.5797(6) 0.680(2)
H8 H 0.7764 0.5933 0.7025
C11 C 0.917(4) 0.5961(9) 0.356(2)
H9 H 0.9188 0.5752 0.3658
C12 C 0.835(3) 0.6098(7) 0.295(2)
H10 H 0.7859 0.5974 0.2595
C13 C 0.824(2) 0.6413(6) 0.2855(19)
C14 C 0.904(3) 0.6599(7) 0.327(2)
H11 H 0.9074 0.6805 0.3136
C15 C 0.984(2) 0.6468(6) 0.394(2)
H12 H 1.0261 0.6597 0.4328
C16 C 0.739(3) 0.6534(6) 0.218(2)
C17 C 0.632(2) 0.6361(6) 0.186(2)
H13 H 0.6199 0.6163 0.2064
C18 C 0.553(2) 0.6490(6) 0.1284(18)
H14 H 0.4835 0.6380 0.1150
C19 C 0.664(3) 0.6970(8) 0.126(3)
H15 H 0.6664 0.7176 0.1124
C20 C 0.745(3) 0.6841(5) 0.180(2)
H16 H 0.8130 0.6956 0.1946
C21 C 0.620(4) 0.6974(7) -0.182(3)
H17 H 0.5919 0.6779 -0.1928
C22 C 0.727(3) 0.7097(8) -0.234(3)
H18 H 0.7790 0.6968 -0.2655
C23 C 0.745(3) 0.7403(6) -0.234(2)
C24 C 0.672(3) 0.7582(6) -0.179(2)
H19 H 0.6791 0.7792 -0.1805
C25 C 0.590(3) 0.7444(6) -0.121(2)
H20 H 0.5483 0.7567 -0.0797
C26 C 0.839(3) 0.7535(6) -0.303(2)
C27 C 0.936(3) 0.7347(6) -0.342(2)
H21 H 0.9462 0.7143 -0.3267
C28 C 1.005(3) 0.7485(6) -0.397(2)
H22 H 1.0640 0.7362 -0.4244
C29 C 0.931(4) 0.7976(9) -0.381(2)
H23 H 0.9384 0.8185 -0.3867
C30 C 0.832(3) 0.7820(7) -0.3257(19)
H24 H 0.7642 0.7932 -0.3074
C31 C 0.550(5) 0.2966(8) 1.825(3)
H25 H 0.5257 0.2765 1.8205
C32 C 0.645(3) 0.3078(6) 1.770(3)
H26 H 0.6862 0.2950 1.7294
C33 C 0.677(2) 0.3383(6) 1.777(2)
C34 C 0.623(3) 0.3577(7) 1.8332(18)
H27 H 0.6444 0.3781 1.8331
C35 C 0.532(3) 0.3466(6) 1.894(2)
H28 H 0.4995 0.3594 1.9386
C36 C 0.768(3) 0.3504(6) 1.7125(19)
C37 C 0.863(2) 0.3306(6) 1.672(2)
H29 H 0.8657 0.3100 1.6852
C38 C 0.943(3) 0.3430(7) 1.616(2)
H30 H 1.0007 0.3299 1.5912
C39 C 0.869(3) 0.3951(11) 1.628(2)
H31 H 0.8735 0.4157 1.6148
C40 C 0.784(3) 0.3814(6) 1.684(2)
H32 H 0.7268 0.3946 1.7078
C41 C 0.519(3) 0.4519(5) 1.115(2)
H33 H 0.4495 0.4411 1.0989
C42 C 0.590(3) 0.4389(6) 1.1726(19)
H34 H 0.5780 0.4190 1.1919
C43 C 0.688(3) 0.4562(6) 1.2045(19)
C44 C 0.712(3) 0.4852(5) 1.1701(18)
H35 H 0.7808 0.4961 1.1859
C45 C 0.624(3) 0.4967(6) 1.110(2)
H36 H 0.6278 0.5171 1.0935
C46 C 0.784(2) 0.4431(6) 1.275(2)
C47 C 0.780(4) 0.4124(7) 1.291(3)
H37 H 0.7204 0.4008 1.2630
C48 C 0.871(4) 0.3969(11) 1.352(3)
H38 H 0.8758 0.3759 1.3589
C49 C 0.944(3) 0.4455(8) 1.379(2)
H39 H 1.0010 0.4576 1.4089
C50 C 0.870(3) 0.4611(6) 1.3201(19)
H40 H 0.8759 0.4819 1.3106
C51 C 0.405(4) 0.4330(10) 0.904(2)
C52 C 0.412(3) 0.5586(7) 1.103(2)
C53 C 1.119(4) 0.5323(8) 0.385(2)
C54 C 1.135(3) 0.6537(7) 0.615(2)
C55 C 0.501(7) 0.6297(11) -0.088(3)
C56 C 0.434(4) 0.7524(7) 0.106(3)
C57 C 0.351(3) 0.2346(7) 1.894(2)
C58 C 0.372(4) 0.3590(6) 2.112(3)
C59 C 0.998(6) 0.3287(8) 1.393(3)
C60 C 1.112(3) 0.4503(8) 1.594(2)
Hg4C Hg 1.15971(10) 0.79958(2) -0.51182(10)
N6C N 0.491(2) 0.2770(5) 2.0771(16)
loop_
_geom_bond_atom_site_label_1
_geom_bond_atom_site_label_2
_geom_bond_site_symmetry_1
_geom_bond_site_symmetry_2
Hg1 S1 1_555 1_555
Hg2 S3 1_555 1_555
Hg3 S5 1_555 1_555
Hg4 S7 1_555 1_555
Hg5 S9 1_555 1_555
S1 C51 1_555 1_555
S2 Hg1 1_555 1_555
S3 C53 1_555 1_555
S4 Hg2 1_555 1_555
S5 C55 1_555 1_555
S6 Hg3 1_555 1_555
S7 C57 1_555 1_555
S8 Hg4 1_555 1_555
S9 C59 1_555 1_555
S10 Hg5 1_555 1_555
N1 Hg1 1_555 1_555
N2 Hg2 1_555 1_555
N3 Hg2 1_555 1_555
N4 Hg3 1_555 1_555
N5 Hg3 1_555 1_555
N6 C28 1_555 1_555
N7 Hg4 1_555 1_555
N8 Hg5 1_555 1_555
N9 Hg1 1_555 1_555
N10 Hg5 1_555 1_555
N11 C51 1_555 1_555
N12 C52 1_555 1_555
N13 C53 1_555 1_555
N14 C54 1_555 1_555
N15 C55 1_555 1_555
N16 C56 1_555 1_555
N17 C57 1_555 1_555
N18 C58 1_555 1_555
N19 C59 1_555 1_555
N20 C60 1_555 1_555
C1 N1 1_555 1_555
H1 C1 1_555 1_555
C2 C1 1_555 1_555
H2 C2 1_555 1_555
C3 C2 1_555 1_555
C4 C3 1_555 1_555
H3 C4 1_555 1_555
C5 N1 1_555 1_555
H4 C5 1_555 1_555
C6 C3 1_555 1_555
C7 C6 1_555 1_555
H5 C7 1_555 1_555
C8 N2 1_555 1_555
H6 C8 1_555 1_555
C9 N2 1_555 1_555
H7 C9 1_555 1_555
C10 C6 1_555 1_555
H8 C10 1_555 1_555
C11 N3 1_555 1_555
H9 C11 1_555 1_555
C12 C11 1_555 1_555
H10 C12 1_555 1_555
C13 C12 1_555 1_555
C14 C13 1_555 1_555
H11 C14 1_555 1_555
C15 N3 1_555 1_555
H12 C15 1_555 1_555
C16 C13 1_555 1_555
C17 C16 1_555 1_555
H13 C17 1_555 1_555
C18 N4 1_555 1_555
H14 C18 1_555 1_555
C19 N4 1_555 1_555
H15 C19 1_555 1_555
C20 C16 1_555 1_555
H16 C20 1_555 1_555
C21 N5 1_555 1_555
H17 C21 1_555 1_555
C22 C21 1_555 1_555
H18 C22 1_555 1_555
C23 C22 1_555 1_555
C24 C23 1_555 1_555
H19 C24 1_555 1_555
C25 N5 1_555 1_555
H20 C25 1_555 1_555
C26 C23 1_555 1_555
C27 C26 1_555 1_555
H21 C27 1_555 1_555
C28 C27 1_555 1_555
H22 C28 1_555 1_555
C29 N6 1_555 1_555
H23 C29 1_555 1_555
C30 C26 1_555 1_555
H24 C30 1_555 1_555
C31 N7 1_555 1_555
H25 C31 1_555 1_555
C32 C31 1_555 1_555
H26 C32 1_555 1_555
C33 C32 1_555 1_555
C34 C33 1_555 1_555
H27 C34 1_555 1_555
C35 N7 1_555 1_555
H28 C35 1_555 1_555
C36 C33 1_555 1_555
C37 C36 1_555 1_555
H29 C37 1_555 1_555
C38 N8 1_555 1_555
H30 C38 1_555 1_555
C39 N8 1_555 1_555
H31 C39 1_555 1_555
C40 C36 1_555 1_555
H32 C40 1_555 1_555
C41 N9 1_555 1_555
H33 C41 1_555 1_555
C42 C41 1_555 1_555
H34 C42 1_555 1_555
C43 C42 1_555 1_555
C44 C43 1_555 1_555
H35 C44 1_555 1_555
C45 N9 1_555 1_555
H36 C45 1_555 1_555
C46 C43 1_555 1_555
C47 C46 1_555 1_555
H37 C47 1_555 1_555
C48 N10 1_555 1_555
H38 C48 1_555 1_555
C49 N10 1_555 1_555
H39 C49 1_555 1_555
C50 C46 1_555 1_555
H40 C50 1_555 1_555
C52 S2 1_555 1_555
C54 S4 1_555 1_555
C56 S6 1_555 1_555
C58 S8 1_555 1_555
C60 S10 1_555 1_555
Hg4C N6 1_555 1_555
N6C Hg4 1_555 1_555
C4 C5 1_555 1_555
C7 C8 1_555 1_555
C9 C10 1_555 1_555
C14 C15 1_555 1_555
C17 C18 1_555 1_555
C19 C20 1_555 1_555
C24 C25 1_555 1_555
C29 C30 1_555 1_555
C34 C35 1_555 1_555
C37 C38 1_555 1_555
C39 C40 1_555 1_555
C44 C45 1_555 1_555
C47 C48 1_555 1_555
C49 C50 1_555 1_555

#END
