
#######################################################################
#
#                 Cambridge Crystallographic Data Centre
#                                CCDC 
#
#######################################################################
#
# If this CIF has been generated from an entry in the Cambridge 
# Structural Database, then it will include bibliographic, chemical, 
# crystal, experimental, refinement or atomic coordinate data resulting 
# from the CCDC's data processing and validation procedures.
#
#######################################################################

data_DCPZMN
_symmetry_cell_setting           monoclinic
_symmetry_space_group_name_H-M   'C 2/c'
_symmetry_Int_Tables_number      15
_space_group_name_Hall           '-C 2yn'
loop_
_symmetry_equiv_pos_site_id
_symmetry_equiv_pos_as_xyz
1 x,y,z
2 1/2+x,1/2+y,z
3 -x,y,1/2-z
4 1/2-x,1/2+y,1/2-z
5 -x,-y,-z
6 1/2-x,1/2-y,-z
7 x,-y,1/2+z
8 1/2+x,1/2-y,1/2+z
_cell_length_a                   18.26(2)
_cell_length_b                   3.761(2)
_cell_length_c                   13.839(2)
_cell_angle_alpha                90
_cell_angle_beta                 94.78(8)
_cell_angle_gamma                90
_cell_volume                     947.1
loop_
_atom_site_label
_atom_site_type_symbol
_atom_site_fract_x
_atom_site_fract_y
_atom_site_fract_z
Cl1 Cl 0.05252 -0.49340 0.36481
C1 C 0.16720 0.12870 0.19380
C2 C 0.21080 0.08920 0.11640
C3 C 0.16700 -0.06860 0.04640
H1 H 0.06500 -0.22000 0.05500
H2 H 0.17600 0.22000 0.25500
H3 H 0.25600 0.15000 0.12300
H4 H 0.18000 -0.14000 -0.03200
Mn1 Mn 0.00000 0.00700 0.25000
N1 N 0.10120 -0.11830 0.08030
N2 N 0.09990 -0.00060 0.17130
Mn1_2 Mn 0.00000 -0.99300 0.25000
Cl1_2 Cl 0.05252 0.50660 0.36481
Cl1B Cl -0.05252 -0.49340 0.13519
Cl1B_2 Cl -0.05252 0.50660 0.13519
N2B N -0.09990 -0.00060 0.32870
C1B C -0.16720 0.12870 0.30620
N1B N -0.10120 -0.11830 0.41970
C2B C -0.21080 0.08920 0.38360
H2B H -0.17600 0.22000 0.24500
C3B C -0.16700 -0.06860 0.45360
H1B H -0.06500 -0.22000 0.44500
H3B H -0.25600 0.15000 0.37700
H4B H -0.18000 -0.14000 0.53200
loop_
_geom_bond_atom_site_label_1
_geom_bond_atom_site_label_2
_geom_bond_site_symmetry_1
_geom_bond_site_symmetry_2
Cl1 Mn1 1_555 1_555
C1 C2 1_555 1_555
C2 C3 1_555 1_555
C3 H4 1_555 1_555
H1 N1 1_555 1_555
H2 C1 1_555 1_555
H3 C2 1_555 1_555
Mn1 N2 1_555 1_555
N1 C3 1_555 1_555
N2 C1 1_555 1_555
Mn1_2 Cl1 1_555 1_555
Cl1_2 Mn1 1_555 1_555
Cl1B Mn1 1_555 1_555
Cl1B_2 Mn1 1_555 1_555
N2B Mn1 1_555 1_555
C1B N2B 1_555 1_555
N1B N2B 1_555 1_555
C2B C1B 1_555 1_555
H2B C1B 1_555 1_555
C3B N1B 1_555 1_555
H1B N1B 1_555 1_555
H3B C2B 1_555 1_555
H4B C3B 1_555 1_555
N1 N2 1_555 1_555
Mn1_2 Cl1B 1_555 1_555
C2B C3B 1_555 1_555

#END
