
#######################################################################
#
#                 Cambridge Crystallographic Data Centre
#                                CCDC 
#
#######################################################################
#
# If this CIF has been generated from an entry in the Cambridge 
# Structural Database, then it will include bibliographic, chemical, 
# crystal, experimental, refinement or atomic coordinate data resulting 
# from the CCDC's data processing and validation procedures.
#
#######################################################################

data_DEBGIA
_symmetry_cell_setting           monoclinic
_symmetry_space_group_name_H-M   'P 21/n'
_symmetry_Int_Tables_number      14
_space_group_name_Hall           '-P 2yn'
loop_
_symmetry_equiv_pos_site_id
_symmetry_equiv_pos_as_xyz
1 x,y,z
2 1/2+x,1/2-y,1/2+z
3 -x,-y,-z
4 1/2-x,1/2+y,1/2-z
_cell_length_a                   15.679(2)
_cell_length_b                   10.101(3)
_cell_length_c                   19.160(3)
_cell_angle_alpha                90
_cell_angle_beta                 96.41(1)
_cell_angle_gamma                90
_cell_volume                     3015.47
loop_
_atom_site_label
_atom_site_type_symbol
_atom_site_fract_x
_atom_site_fract_y
_atom_site_fract_z
S1 S 0.17573(6) -0.03800(10) -0.39618(5)
S2 S 0.04897(6) -0.56359(9) -0.38435(5)
O1 O 0.1548(2) 0.0364(3) -0.3337(1)
O2 O 0.1392(2) 0.0304(3) -0.4606(1)
O3 O 0.2698(2) -0.0517(3) -0.3938(1)
O4 O 0.1378(2) -0.1725(3) -0.3923(1)
O5 O 0.0990(2) -0.6889(3) -0.3775(1)
O6 O 0.1066(2) -0.4578(3) -0.4052(1)
O7 O -0.0220(2) -0.5805(3) -0.4405(1)
O8 O 0.0170(2) -0.5296(3) -0.3178(1)
O9 O 0.2502(2) 0.1554(3) -0.2017(1)
O10 O 0.1716(2) 0.4302(3) -0.2437(1)
O11 O 0.0393(2) -0.1370(3) -0.5412(1)
N1 N -0.5611(2) -0.3105(3) -0.2606(2)
N2 N -0.3349(2) -0.3203(4) -0.3580(2)
N3 N 0.7131(2) -0.2822(3) -0.6621(2)
N4 N 0.4851(2) -0.3432(4) -0.5709(2)
N5 N -0.0471(2) -0.2739(3) -0.4239(2)
N6 N -0.2681(2) -0.2906(4) -0.3186(2)
N7 N 0.1897(2) -0.3298(3) -0.5202(2)
N8 N 0.4188(2) -0.3585(4) -0.6131(2)
C1 C -0.4873(2) -0.3453(4) -0.2223(2)
C2 C -0.4100(2) -0.3537(4) -0.2509(2)
C3 C -0.4104(2) -0.3239(4) -0.3215(2)
C4 C -0.4872(3) -0.2931(5) -0.3623(2)
C5 C -0.5612(2) -0.2848(4) -0.3292(2)
C6 C 0.6444(3) -0.3346(5) -0.7013(2)
C7 C 0.5679(3) -0.3597(5) -0.6749(2)
C8 C 0.5624(2) -0.3301(4) -0.6048(2)
C9 C 0.6332(3) -0.2824(5) -0.5630(2)
C10 C 0.7078(2) -0.2578(4) -0.5933(2)
C11 C -0.1192(2) -0.3307(4) -0.4551(2)
C12 C -0.1940(2) -0.3392(4) -0.4235(2)
C13 C -0.1940(2) -0.2867(4) -0.3567(2)
C14 C -0.1203(3) -0.2279(5) -0.3239(2)
C15 C -0.0483(3) -0.2241(5) -0.3596(2)
C16 C 0.1908(2) -0.3234(4) -0.5896(2)
C17 C 0.2657(3) -0.3376(5) -0.6215(2)
C18 C 0.3415(2) -0.3585(4) -0.5787(2)
C19 C 0.3403(2) -0.3730(5) -0.5068(2)
C20 C 0.2630(3) -0.3574(5) -0.4795(2)
H1 H -0.4835 -0.3590 -0.1678
H2 H -0.3590 -0.3851 -0.2160
H3 H -0.4905 -0.2651 -0.4087
H4 H -0.6160 -0.2492 -0.3599
H5 H 0.6449 -0.3414 -0.7585
H6 H 0.5223 -0.4040 -0.7074
H7 H 0.6374 -0.2493 -0.5092
H8 H 0.7569 -0.2118 -0.5589
H9 H -0.1242 -0.3768 -0.5038
H10 H -0.2424 -0.3985 -0.4499
H11 H -0.1172 -0.1889 -0.2763
H12 H 0.0039 -0.1810 -0.3325
H13 H 0.1396 -0.2909 -0.6174
H14 H 0.2624 -0.3224 -0.6693
H15 H 0.3864 -0.4010 -0.4745
H16 H 0.2630 -0.3792 -0.4260
H21 H 0.2895 0.2078 -0.1799
H22 H 0.2709 0.0798 -0.2121
H23 H 0.1229 0.4581 -0.2515
H24 H 0.1818 0.4268 -0.1994
H25 H 0.0672 -0.0876 -0.5245
H26 H 0.0042 -0.1338 -0.5588
Zn1 Zn 0.17220(3) 0.22917(5) -0.29273(2)
Zn2 Zn 0.07026(3) -0.30265(5) -0.47341(2)
O7B O 0.0220(2) -0.4195(3) -0.5595(1)
Zn2B Zn -0.07026(3) -0.69735(5) -0.52659(2)
Zn1C Zn -0.67220(3) -0.27083(5) -0.20727(2)
Zn1B Zn 0.82780(3) -0.22917(5) -0.70727(2)
Zn1_2 Zn 0.17220(3) -0.77083(5) -0.29273(2)
N1C N 0.0611(2) 0.1895(3) -0.2394(2)
N3B N 0.2869(2) 0.2822(3) -0.3379(2)
O5_2 O 0.0990(2) 0.3111(3) -0.3775(1)
N9 N 0.2740(3) -1.0158(4) -0.6690(2)
N10 N 0.5037(3) -1.0117(5) -0.5299(2)
C21 C 0.3532(4) -1.0205(5) -0.6905(3)
C22 C 0.4279(3) -1.0209(5) -0.6450(3)
C23 C 0.4215(3) -1.0145(5) -0.5739(3)
C24 C 0.3409(3) -1.0104(5) -0.5498(3)
C25 C 0.2704(3) -1.0118(5) -0.5995(3)
H17 H 0.3592 -1.0154 -0.7412
H18 H 0.4860 -1.0277 -0.6661
H19 H 0.3280 -0.9925 -0.4991
H20 H 0.2104 -1.0128 -0.5855
N10B N 0.4963(3) -0.9883(5) -0.4701(2)
C23B C 0.5785(3) -0.9855(5) -0.4261(3)
C22B C 0.5721(3) -0.9791(5) -0.3550(3)
C21B C 0.6468(4) -0.9795(5) -0.3095(3)
N9B N 0.7260(3) -0.9842(4) -0.3310(2)
C25B C 0.7296(3) -0.9882(5) -0.4005(3)
C24B C 0.6591(3) -0.9896(5) -0.4502(3)
H19B H 0.6720 -1.0075 -0.5009
H20B H 0.7896 -0.9872 -0.4145
H17B H 0.6408 -0.9846 -0.2588
H18B H 0.5140 -0.9723 -0.3339
loop_
_geom_bond_atom_site_label_1
_geom_bond_atom_site_label_2
_geom_bond_site_symmetry_1
_geom_bond_site_symmetry_2
S1 O1 1_555 1_555
S2 O5 1_555 1_555
O1 Zn1 1_555 1_555
O2 S1 1_555 1_555
O3 S1 1_555 1_555
O4 S1 1_555 1_555
O5 Zn1_2 1_555 1_555
O6 S2 1_555 1_555
O7 S2 1_555 1_555
O8 S2 1_555 1_555
O9 H21 1_555 1_555
O10 H23 1_555 1_555
O11 H25 1_555 1_555
N1 C1 1_555 1_555
N2 N6 1_555 1_555
N3 C6 1_555 1_555
N4 N8 1_555 1_555
N5 C11 1_555 1_555
N6 C13 1_555 1_555
N7 C16 1_555 1_555
N8 C18 1_555 1_555
N9 C21 1_555 1_555
N10 C23 1_555 1_555
C1 C2 1_555 1_555
C2 C3 1_555 1_555
C3 N2 1_555 1_555
C4 C3 1_555 1_555
C5 N1 1_555 1_555
C6 C7 1_555 1_555
C7 C8 1_555 1_555
C8 N4 1_555 1_555
C9 C8 1_555 1_555
C10 N3 1_555 1_555
C11 C12 1_555 1_555
C12 C13 1_555 1_555
C13 C14 1_555 1_555
C14 C15 1_555 1_555
C15 N5 1_555 1_555
C16 C17 1_555 1_555
C17 C18 1_555 1_555
C18 C19 1_555 1_555
C19 C20 1_555 1_555
C20 N7 1_555 1_555
C21 C22 1_555 1_555
C22 C23 1_555 1_555
C23 C24 1_555 1_555
C24 C25 1_555 1_555
C25 N9 1_555 1_555
H1 C1 1_555 1_555
H2 C2 1_555 1_555
H3 C4 1_555 1_555
H4 C5 1_555 1_555
H5 C6 1_555 1_555
H6 C7 1_555 1_555
H7 C9 1_555 1_555
H8 C10 1_555 1_555
H9 C11 1_555 1_555
H10 C12 1_555 1_555
H11 C14 1_555 1_555
H12 C15 1_555 1_555
H13 C16 1_555 1_555
H14 C17 1_555 1_555
H15 C19 1_555 1_555
H16 C20 1_555 1_555
H17 C21 1_555 1_555
H18 C22 1_555 1_555
H19 C24 1_555 1_555
H20 C25 1_555 1_555
H22 O9 1_555 1_555
H24 O10 1_555 1_555
H26 O11 1_555 1_555
Zn1 O9 1_555 1_555
Zn2 O4 1_555 1_555
O7B Zn2 1_555 1_555
Zn2B O7 1_555 1_555
N10B N10 1_555 1_555
C23B N10B 1_555 1_555
C22B C23B 1_555 1_555
C21B C22B 1_555 1_555
N9B C21B 1_555 1_555
C25B N9B 1_555 1_555
C24B C23B 1_555 1_555
H19B C24B 1_555 1_555
H20B C25B 1_555 1_555
H17B C21B 1_555 1_555
H18B C22B 1_555 1_555
Zn1C N1 1_555 1_555
Zn1B N3 1_555 1_555
N1C Zn1 1_555 1_555
N3B Zn1 1_555 1_555
O5_2 Zn1 1_555 1_555
O6 Zn2 1_555 1_555
O10 Zn1 1_555 1_555
O11 Zn2 1_555 1_555
N5 Zn2 1_555 1_555
N7 Zn2 1_555 1_555
C4 C5 1_555 1_555
C9 C10 1_555 1_555
C25B C24B 1_555 1_555

#END
