
#######################################################################
#
#                 Cambridge Crystallographic Data Centre
#                                CCDC 
#
#######################################################################
#
# If this CIF has been generated from an entry in the Cambridge 
# Structural Database, then it will include bibliographic, chemical, 
# crystal, experimental, refinement or atomic coordinate data resulting 
# from the CCDC's data processing and validation procedures.
#
#######################################################################

data_DEBGAU
_symmetry_cell_setting           triclinic
_symmetry_space_group_name_H-M   'P -1'
_symmetry_Int_Tables_number      2
_space_group_name_Hall           '-P 1'
loop_
_symmetry_equiv_pos_site_id
_symmetry_equiv_pos_as_xyz
1 x,y,z
2 -x,-y,-z
_cell_length_a                   10.8444(4)
_cell_length_b                   13.8506(5)
_cell_length_c                   14.2755(6)
_cell_angle_alpha                107.912(3)
_cell_angle_beta                 112.016(4)
_cell_angle_gamma                90.411(3)
_cell_volume                     1873.18
loop_
_atom_site_label
_atom_site_type_symbol
_atom_site_fract_x
_atom_site_fract_y
_atom_site_fract_z
O1 O 0.5878(2) 0.59513(15) 0.67278(17)
O2 O 0.4066(2) 0.48370(15) 0.62004(16)
C1 C 0.5014(3) 0.5512(2) 0.6897(2)
C2 C 0.5137(3) 0.57976(19) 0.8035(2)
C3 C 0.6365(3) 0.6290(2) 0.8864(2)
H1 H 0.7081 0.6449 0.8704
C4 C 0.6524(3) 0.6545(2) 0.9925(2)
H2 H 0.7349 0.6865 1.0473
C5 C 0.5468(4) 0.6327(2) 1.0171(3)
H3 H 0.5577 0.6509 1.0885
C6 C 0.4248(3) 0.5840(2) 0.9367(3)
H4 H 0.3531 0.5691 0.9531
C7 C 0.4105(3) 0.5575(2) 0.8315(2)
O3 O 0.2504(3) 0.41464(18) 0.7343(2)
O4 O 0.2010(3) 0.55631(19) 0.7057(2)
O5 O 0.4682(2) 0.65779(15) 0.48864(17)
O6 O 0.2868(2) 0.54779(15) 0.43918(19)
C8 C 0.3452(3) 0.6339(2) 0.4572(2)
C9 C 0.2566(3) 0.7140(2) 0.4347(2)
C10 C 0.1312(3) 0.6850(2) 0.3491(3)
H5 H 0.1002 0.6160 0.3104
C11 C 0.0526(3) 0.7583(2) 0.3212(3)
H6 H -0.0300 0.7379 0.2632
C12 C 0.0957(3) 0.8607(2) 0.3784(3)
H7 H 0.0414 0.9091 0.3598
C13 C 0.2186(3) 0.8917(2) 0.4628(3)
H8 H 0.2486 0.9610 0.5014
C14 C 0.2970(3) 0.8182(2) 0.4895(2)
O7 O 0.4479(3) 0.8180(2) 0.6527(2)
O8 O 0.5027(3) 0.9201(2) 0.5828(3)
O9 O 1.0660(2) 0.82925(14) 0.97751(16)
O10 O 1.1106(2) 0.95001(14) 1.13624(17)
C15 C 1.1168(3) 0.8632(2) 1.0778(2)
C16 C 1.2012(3) 0.7962(2) 1.1342(2)
C17 C 1.3091(3) 0.8411(2) 1.2309(2)
H9 H 1.3221 0.9118 1.2638
C18 C 1.3984(3) 0.7830(2) 1.2797(3)
H10 H 1.4705 0.8147 1.3447
C19 C 1.3803(4) 0.6785(2) 1.2320(3)
H11 H 1.4411 0.6398 1.2642
C20 C 1.2724(4) 0.6309(2) 1.1367(3)
H12 H 1.2590 0.5601 1.1047
C21 C 1.1852(3) 0.6898(2) 1.0898(2)
O11 O 0.9582(3) 0.64358(19) 0.9918(2)
O12 O 1.0897(3) 0.5815(2) 0.9147(2)
O13 O 0.8059(2) 0.88862(15) 0.92010(17)
O14 O 0.84955(19) 1.00978(14) 1.07802(16)
C22 C 0.7788(3) 0.9340(2) 0.9988(2)
C23 C 0.6468(3) 0.89799(18) 0.9958(2)
C24 C 0.5413(3) 0.85262(19) 0.8970(2)
H13 H 0.5560 0.8416 0.8346
C25 C 0.4151(3) 0.8237(2) 0.8895(3)
H14 H 0.3465 0.7922 0.8225
C26 C 0.3899(3) 0.8409(2) 0.9807(3)
H15 H 0.3043 0.8222 0.9752
C27 C 0.4930(3) 0.8862(2) 1.0804(3)
H16 H 0.4773 0.8991 1.1426
C28 C 0.6189(3) 0.91188(19) 1.0860(2)
C29 C 0.8918(3) 0.89158(19) 0.6658(2)
H17 H 0.8139 0.9245 0.6682
H18 H 0.9663 0.9448 0.6902
C30 C 1.0442(3) 0.7779(2) 0.7311(2)
H19 H 1.1207 0.8297 0.7565
H20 H 1.0671 0.7357 0.7766
C31 C 0.9831(3) 0.7787(2) 0.5533(3)
H21 H 0.9655 0.7366 0.4801
H22 H 1.0587 0.8308 0.5772
C32 C 0.7505(3) 0.7498(2) 0.5196(2)
H23 H 0.7301 0.7080 0.4458
H24 H 0.6721 0.7822 0.5218
C33 C 0.8104(3) 0.74861(19) 0.7003(2)
H25 H 0.7320 0.7804 0.7035
H26 H 0.8307 0.7070 0.7464
C34 C 0.9041(3) 0.6358(2) 0.5852(2)
H27 H 0.9268 0.5932 0.6304
H28 H 0.8862 0.5925 0.5124
O15 O 0.8234(2) 0.90075(17) 1.20991(18)
O16 O 0.7153(3) 1.02261(18) 1.26132(19)
N1 N 0.2770(3) 0.5058(2) 0.7503(2)
N2 N 0.4259(3) 0.8548(2) 0.5823(2)
N3 N 1.0684(3) 0.6350(2) 0.9902(2)
N4 N 0.7274(3) 0.94852(19) 1.1936(2)
N5 N 0.9257(2) 0.82920(15) 0.73982(17)
N6 N 1.0173(2) 0.71466(17) 0.6219(2)
N7 N 0.8639(3) 0.82837(18) 0.55602(19)
N8 N 0.7802(2) 0.68225(16) 0.58855(18)
Zn1 Zn 0.61909(3) 0.57341(2) 0.53598(3)
Zn2 Zn 0.96840(3) 0.92236(2) 0.89418(3)
O2A O 0.5934(2) 0.51630(15) 0.37996(16)
O6A O 0.7132(2) 0.45221(15) 0.56082(19)
O10A O 0.8894(2) 1.04999(14) 0.86376(17)
O14A O 1.15045(19) 0.99022(14) 0.92198(16)
Zn1A Zn 0.38091(3) 0.42659(2) 0.46402(3)
Zn2A Zn 1.03160(3) 1.07764(2) 1.10582(3)
loop_
_geom_bond_atom_site_label_1
_geom_bond_atom_site_label_2
_geom_bond_site_symmetry_1
_geom_bond_site_symmetry_2
O1 C1 1_555 1_555
O2 C1 1_555 1_555
C1 C2 1_555 1_555
C2 C3 1_555 1_555
C3 H1 1_555 1_555
C4 C3 1_555 1_555
H2 C4 1_555 1_555
C5 C4 1_555 1_555
H3 C5 1_555 1_555
C6 C5 1_555 1_555
H4 C6 1_555 1_555
C7 C2 1_555 1_555
O3 N1 1_555 1_555
O4 N1 1_555 1_555
O5 C8 1_555 1_555
O6 C8 1_555 1_555
C8 C9 1_555 1_555
C9 C10 1_555 1_555
C10 H5 1_555 1_555
C11 C10 1_555 1_555
H6 C11 1_555 1_555
C12 C11 1_555 1_555
H7 C12 1_555 1_555
C13 C12 1_555 1_555
H8 C13 1_555 1_555
C14 C9 1_555 1_555
O7 N2 1_555 1_555
O8 N2 1_555 1_555
O9 C15 1_555 1_555
O10 C15 1_555 1_555
C15 C16 1_555 1_555
C16 C17 1_555 1_555
C17 H9 1_555 1_555
C18 C17 1_555 1_555
H10 C18 1_555 1_555
C19 C18 1_555 1_555
H11 C19 1_555 1_555
C20 C19 1_555 1_555
H12 C20 1_555 1_555
C21 C16 1_555 1_555
O11 N3 1_555 1_555
O12 N3 1_555 1_555
O13 C22 1_555 1_555
O14 C22 1_555 1_555
C22 C23 1_555 1_555
C23 C24 1_555 1_555
C24 H13 1_555 1_555
C25 C24 1_555 1_555
H14 C25 1_555 1_555
C26 C25 1_555 1_555
H15 C26 1_555 1_555
C27 C26 1_555 1_555
H16 C27 1_555 1_555
C28 C23 1_555 1_555
C29 H17 1_555 1_555
H18 C29 1_555 1_555
C30 H19 1_555 1_555
H20 C30 1_555 1_555
C31 H21 1_555 1_555
H22 C31 1_555 1_555
C32 H23 1_555 1_555
H24 C32 1_555 1_555
C33 H25 1_555 1_555
H26 C33 1_555 1_555
C34 H27 1_555 1_555
H28 C34 1_555 1_555
O15 N4 1_555 1_555
O16 N4 1_555 1_555
N1 C7 1_555 1_555
N2 C14 1_555 1_555
N3 C21 1_555 1_555
N4 C28 1_555 1_555
N5 C29 1_555 1_555
N6 C30 1_555 1_555
N7 C29 1_555 1_555
N8 C32 1_555 1_555
Zn1 O1 1_555 1_555
Zn2 O9 1_555 1_555
O2A Zn1 1_555 1_555
O6A Zn1 1_555 1_555
O10A Zn2 1_555 1_555
O14A Zn2 1_555 1_555
Zn1A O2 1_555 1_555
Zn2A O10 1_555 1_555
C6 C7 1_555 1_555
O5 Zn1 1_555 1_555
O6 Zn1A 1_555 1_555
C13 C14 1_555 1_555
C20 C21 1_555 1_555
O13 Zn2 1_555 1_555
O14 Zn2A 1_555 1_555
C27 C28 1_555 1_555
C30 N5 1_555 1_555
C31 N6 1_555 1_555
C31 N7 1_555 1_555
C32 N7 1_555 1_555
C33 N5 1_555 1_555
C33 N8 1_555 1_555
C34 N6 1_555 1_555
C34 N8 1_555 1_555
N5 Zn2 1_555 1_555
N8 Zn1 1_555 1_555

#END
