
#######################################################################
#
#                 Cambridge Crystallographic Data Centre
#                                CCDC 
#
#######################################################################
#
# If this CIF has been generated from an entry in the Cambridge 
# Structural Database, then it will include bibliographic, chemical, 
# crystal, experimental, refinement or atomic coordinate data resulting 
# from the CCDC's data processing and validation procedures.
#
#######################################################################

data_DEBNOO
_symmetry_cell_setting           orthorhombic
_symmetry_space_group_name_H-M   'P n a 21'
_symmetry_Int_Tables_number      33
_space_group_name_Hall           'P 2c -2n'
loop_
_symmetry_equiv_pos_site_id
_symmetry_equiv_pos_as_xyz
1 x,y,z
2 1/2-x,1/2+y,1/2+z
3 1/2+x,1/2-y,z
4 -x,-y,1/2+z
_cell_length_a                   24.5597(16)
_cell_length_b                   4.9197(4)
_cell_length_c                   5.7769(4)
_cell_angle_alpha                90
_cell_angle_beta                 90
_cell_angle_gamma                90
_cell_volume                     698.002
loop_
_atom_site_label
_atom_site_type_symbol
_atom_site_fract_x
_atom_site_fract_y
_atom_site_fract_z
Mn1 Mn 0.75870(16) 0.5291(9) 0.0890(20)
P1 P 0.81901(23) 0.4729(13) 0.5909(11)
O1 O 0.7956(5) 0.325(4) 0.3756(26)
O2 O 0.7943(6) 0.347(4) 0.8151(24)
O3 O 0.8104(6) 0.7800(14) 0.585(4)
C1 C 0.89251(28) 0.4022(30) 0.5934(20)
C2 C 0.9129(5) 0.4324(30) 0.8367(21)
C3 C 0.9518(10) 0.666(4) 0.8535(15)
O4 O 0.9655(6) 0.7840(21) 0.6726(17)
O5 O 0.9665(6) 0.7435(20) 1.0485(16)
O6 O 0.8264(6) 0.8658(25) 0.073(5)
Mn1A Mn 0.74130(16) 0.0291(9) 0.5890(20)
Mn1_2 Mn 0.75870(16) 0.5291(9) 1.0890(20)
Mn1A_2 Mn 0.74130(16) 1.0291(9) 0.5890(20)
O1A O 0.7044(5) 0.825(4) -0.1244(26)
O2_2 O 0.7943(6) 0.347(4) -0.1849(24)
O2A O 0.7057(6) 0.847(4) 0.3151(24)
O3A O 0.6896(6) 0.2800(14) 0.085(4)
loop_
_geom_bond_atom_site_label_1
_geom_bond_atom_site_label_2
_geom_bond_site_symmetry_1
_geom_bond_site_symmetry_2
Mn1 O1 1_555 1_555
P1 O1 1_555 1_555
O1 Mn1A 1_555 1_555
O2 P1 1_555 1_555
O3 P1 1_555 1_555
C1 P1 1_555 1_555
C2 C1 1_555 1_555
C3 C2 1_555 1_555
O4 C3 1_555 1_555
O5 C3 1_555 1_555
O6 Mn1 1_555 1_555
Mn1A O2 1_555 1_555
Mn1_2 O2 1_555 1_555
Mn1A_2 O3 1_555 1_555
O1A Mn1 1_555 1_555
O2_2 Mn1 1_555 1_555
O2A Mn1 1_555 1_555
O3A Mn1 1_555 1_555
Mn1A_2 O2A 1_555 1_555

#END
