
#######################################################################
#
#                 Cambridge Crystallographic Data Centre
#                                CCDC 
#
#######################################################################
#
# If this CIF has been generated from an entry in the Cambridge 
# Structural Database, then it will include bibliographic, chemical, 
# crystal, experimental, refinement or atomic coordinate data resulting 
# from the CCDC's data processing and validation procedures.
#
#######################################################################

data_DECMII
_symmetry_cell_setting           triclinic
_symmetry_space_group_name_H-M   'P -1'
_symmetry_Int_Tables_number      2
_space_group_name_Hall           '-P 1'
loop_
_symmetry_equiv_pos_site_id
_symmetry_equiv_pos_as_xyz
1 x,y,z
2 -x,-y,-z
_cell_length_a                   9.3793(7)
_cell_length_b                   10.5770(7)
_cell_length_c                   11.6814(8)
_cell_angle_alpha                95.210(2)
_cell_angle_beta                 91.393(2)
_cell_angle_gamma                114.234(2)
_cell_volume                     1049.94
loop_
_atom_site_label
_atom_site_type_symbol
_atom_site_fract_x
_atom_site_fract_y
_atom_site_fract_z
Ag1 Ag 0.46605(2) -0.33946(2) 0.623690(18)
F4 F 0.2856(3) -0.8857(2) 0.62370(19)
F5 F 0.5365(3) -0.7788(2) 0.6321(2)
F6 F 0.4185(2) -0.85157(19) 0.78367(16)
O3 O 0.3553(2) -0.6103(2) 0.62944(17)
O4 O 0.4550(2) -0.5866(2) 0.81145(17)
N1 N 0.2318(3) -0.3521(2) 0.6240(2)
N2 N -0.2909(3) -0.2958(2) 0.6112(2)
H1 H -0.2657 -0.2784 0.5387
H2 H -0.2334 -0.2179 0.6583
C1 C 0.1856(3) -0.2592(3) 0.5855(3)
H5 H 0.2595 -0.1829 0.5550
C2 C 0.0338(3) -0.2703(3) 0.5886(3)
H6 H 0.0073 -0.2025 0.5610
C3 C -0.0792(3) -0.3840(3) 0.6333(2)
C4 C -0.0305(3) -0.4801(3) 0.6730(3)
H7 H -0.1022 -0.5577 0.7036
C5 C 0.1232(3) -0.4620(3) 0.6678(3)
H8 H 0.1529 -0.5280 0.6954
C6 C -0.2482(3) -0.4082(3) 0.6408(2)
H9 H -0.3117 -0.4919 0.5903
H10 H -0.2764 -0.4266 0.7188
C15 C 0.4037(3) -0.6489(3) 0.7136(2)
C16 C 0.4098(4) -0.7932(3) 0.6898(3)
Ag1_2 Ag -0.53395(2) -0.33946(2) 0.623690(18)
N2_2 N 0.7091(3) -0.2958(2) 0.6112(2)
H1_2 H 0.7343 -0.2784 0.5387
H2_2 H 0.7666 -0.2179 0.6583
Ag2 Ag -0.11208(2) -0.26812(2) -0.048610(18)
F1 F 0.1113(4) -0.0544(3) 0.3763(2)
F2 F 0.0181(3) -0.2370(2) 0.2551(3)
F3 F 0.2374(3) -0.0761(3) 0.2328(3)
O1 O -0.0988(3) -0.1028(3) 0.1302(2)
O2 O 0.0843(2) 0.1027(2) 0.21039(18)
N3 N 0.1236(3) -0.2543(3) -0.0526(2)
N4 N 0.6390(3) -0.3203(2) -0.0419(2)
H3 H 0.5846 -0.3941 -0.0938
H4 H 0.6087 -0.3441 0.0285
C7 C 0.1769(3) -0.3322(3) 0.0041(3)
H11 H 0.1078 -0.3973 0.0476
C8 C 0.3278(3) -0.3215(3) 0.0020(3)
H12 H 0.3583 -0.3795 0.0420
C9 C 0.4353(3) -0.2228(3) -0.0610(2)
C10 C 0.3808(3) -0.1409(3) -0.1184(3)
H13 H 0.4481 -0.0735 -0.1610
C11 C 0.2264(3) -0.1588(3) -0.1127(2)
H14 H 0.1925 -0.1025 -0.1520
C12 C 0.6041(3) -0.2009(3) -0.0665(3)
H15 H 0.6363 -0.1775 -0.1429
H16 H 0.6674 -0.1212 -0.0121
C13 C 0.0175(3) -0.0269(3) 0.1937(3)
C14 C 0.0954(4) -0.0996(4) 0.2651(3)
Ag2A Ag 0.11208(2) 0.26812(2) 0.048610(18)
Ag2_2 Ag 0.88792(2) -0.26812(2) -0.048610(18)
O2A O -0.0843(2) -0.1027(2) -0.21039(18)
N4_2 N -0.3610(3) -0.3203(2) -0.0419(2)
H3_2 H -0.4154 -0.3941 -0.0938
H4_2 H -0.3913 -0.3441 0.0285
loop_
_geom_bond_atom_site_label_1
_geom_bond_atom_site_label_2
_geom_bond_site_symmetry_1
_geom_bond_site_symmetry_2
Ag1 O3 1_555 1_555
Ag2 O1 1_555 1_555
F1 C14 1_555 1_555
F2 C14 1_555 1_555
F3 C14 1_555 1_555
F4 C16 1_555 1_555
F5 C16 1_555 1_555
F6 C16 1_555 1_555
O1 C13 1_555 1_555
O2 C13 1_555 1_555
O3 C15 1_555 1_555
O4 C15 1_555 1_555
N1 Ag1 1_555 1_555
N2 H1 1_555 1_555
H2 N2 1_555 1_555
N3 Ag2 1_555 1_555
N4 H3 1_555 1_555
H4 N4 1_555 1_555
C1 N1 1_555 1_555
H5 C1 1_555 1_555
C2 C1 1_555 1_555
H6 C2 1_555 1_555
C3 C2 1_555 1_555
C4 C3 1_555 1_555
H7 C4 1_555 1_555
C5 N1 1_555 1_555
H8 C5 1_555 1_555
C6 N2 1_555 1_555
H9 C6 1_555 1_555
H10 C6 1_555 1_555
C7 N3 1_555 1_555
H11 C7 1_555 1_555
C8 C7 1_555 1_555
H12 C8 1_555 1_555
C9 C8 1_555 1_555
C10 C9 1_555 1_555
H13 C10 1_555 1_555
C11 N3 1_555 1_555
H14 C11 1_555 1_555
C12 N4 1_555 1_555
H15 C12 1_555 1_555
H16 C12 1_555 1_555
C13 C14 1_555 1_555
C15 C16 1_555 1_555
Ag1_2 N2 1_555 1_555
Ag2A O2 1_555 1_555
Ag2_2 N4 1_555 1_555
O2A Ag2 1_555 1_555
N2_2 Ag1 1_555 1_555
H1_2 N2_2 1_555 1_555
H2_2 N2_2 1_555 1_555
N4_2 Ag2 1_555 1_555
H3_2 N4_2 1_555 1_555
H4_2 N4_2 1_555 1_555
C3 C6 1_555 1_555
C4 C5 1_555 1_555
C9 C12 1_555 1_555
C10 C11 1_555 1_555

#END
