
#######################################################################
#
#                 Cambridge Crystallographic Data Centre
#                                CCDC 
#
#######################################################################
#
# If this CIF has been generated from an entry in the Cambridge 
# Structural Database, then it will include bibliographic, chemical, 
# crystal, experimental, refinement or atomic coordinate data resulting 
# from the CCDC's data processing and validation procedures.
#
#######################################################################

data_DECNEF
_symmetry_cell_setting           monoclinic
_symmetry_space_group_name_H-M   'P 21/c'
_symmetry_Int_Tables_number      14
_space_group_name_Hall           '-P 2ybc'
loop_
_symmetry_equiv_pos_site_id
_symmetry_equiv_pos_as_xyz
1 x,y,z
2 -x,1/2+y,1/2-z
3 -x,-y,-z
4 x,1/2-y,1/2+z
_cell_length_a                   18.763(11)
_cell_length_b                   30.127(12)
_cell_length_c                   6.690(3)
_cell_angle_alpha                90
_cell_angle_beta                 91.968(17)
_cell_angle_gamma                90
_cell_volume                     3779.45
loop_
_atom_site_label
_atom_site_type_symbol
_atom_site_fract_x
_atom_site_fract_y
_atom_site_fract_z
Ag1 Ag 0.050258(14) 0.564897(9) 0.26856(4)
Ag2 Ag 0.452354(14) 0.747508(9) 0.19364(4)
N1 N 0.13053(15) 0.61638(10) 0.2740(4)
H1 H 0.1229 0.6343 0.1638
H2 H 0.1247 0.6336 0.3857
N2 N 0.37048(15) 0.69926(9) 0.2333(4)
N3 N -0.06531(14) 0.54412(10) 0.2585(4)
N4 N 0.04800(14) 0.48752(10) 0.2489(4)
N5 N 0.56217(15) 0.76929(9) 0.1162(4)
N6 N 0.45298(14) 0.82511(10) 0.2029(4)
C1 C 0.20433(18) 0.60060(12) 0.2753(6)
H3 H 0.2095 0.5803 0.1605
H4 H 0.2134 0.5831 0.3988
C2 C 0.26121(18) 0.63616(12) 0.2649(5)
C3 C 0.24713(19) 0.68145(12) 0.2761(6)
H5 H 0.2000 0.6917 0.2952
C4 C 0.30272(19) 0.71150(12) 0.2591(6)
H6 H 0.2922 0.7423 0.2661
C5 C 0.38412(17) 0.65529(11) 0.2256(5)
H7 H 0.4319 0.6459 0.2096
C6 C 0.33188(18) 0.62328(11) 0.2397(5)
H8 H 0.3439 0.5927 0.2324
C7 C -0.12028(19) 0.57295(11) 0.2595(5)
H9 H -0.1094 0.6036 0.2733
C8 C -0.19093(18) 0.56103(12) 0.2420(5)
C9 C -0.20558(18) 0.51587(12) 0.2208(6)
H10 H -0.2536 0.5060 0.2055
C10 C -0.15010(18) 0.48518(12) 0.2218(5)
H11 H -0.1599 0.4543 0.2100
C11 C -0.07969(17) 0.50040(11) 0.2406(4)
C12 C -0.2504(2) 0.59466(13) 0.2463(6)
H12 H -0.2301 0.6245 0.2620
H13 H -0.2809 0.5882 0.3588
H14 H -0.2788 0.5931 0.1208
C13 C -0.01755(17) 0.46925(11) 0.2411(4)
C14 C -0.02662(19) 0.42314(12) 0.2336(5)
H15 H -0.0730 0.4105 0.2281
C15 C 0.0333(2) 0.39630(12) 0.2343(5)
H16 H 0.0279 0.3650 0.2303
C16 C 0.10119(19) 0.41470(12) 0.2409(5)
C17 C 0.10527(18) 0.46088(12) 0.2490(5)
H17 H 0.1512 0.4742 0.2548
C18 C 0.1675(2) 0.38659(14) 0.2413(6)
H18 H 0.1662 0.3674 0.1228
H19 H 0.1698 0.3682 0.3621
H20 H 0.2095 0.4058 0.2392
C19 C 0.61673(19) 0.74057(11) 0.0960(5)
H21 H 0.6063 0.7097 0.0949
C20 C 0.68705(18) 0.75342(11) 0.0768(5)
C21 C 0.70057(19) 0.79932(12) 0.0786(5)
H22 H 0.7478 0.8099 0.0637
C22 C 0.64532(18) 0.82904(12) 0.1019(5)
H23 H 0.6545 0.8600 0.1053
C23 C 0.57602(17) 0.81322(11) 0.1205(4)
C24 C 0.74543(19) 0.71972(13) 0.0635(5)
H24 H 0.7700 0.7167 0.1945
H25 H 0.7795 0.7294 -0.0353
H26 H 0.7250 0.6911 0.0228
C25 C 0.51446(17) 0.84382(11) 0.1496(5)
C26 C 0.51984(19) 0.88955(12) 0.1220(5)
H27 H 0.5634 0.9024 0.0829
C27 C 0.4608(2) 0.91601(12) 0.1524(5)
H28 H 0.4639 0.9472 0.1336
C28 C 0.39690(19) 0.89715(12) 0.2106(5)
C29 C 0.39612(19) 0.85105(12) 0.2322(5)
H29 H 0.3530 0.8373 0.2696
C30 C 0.3314(2) 0.92455(13) 0.2458(6)
H30 H 0.3396 0.9431 0.3647
H31 H 0.2907 0.9049 0.2663
H32 H 0.3212 0.9435 0.1293
Ag2C Ag 0.452354(14) 0.752492(9) -0.30636(4)
Ag2C_2 Ag 0.452354(14) 0.752492(9) 0.69364(4)
B1 B 0.3358(2) 0.48400(14) 0.2953(6)
F1 F 0.2688(7) 0.5004(6) 0.344(4)
F2 F 0.3306(7) 0.4423(4) 0.206(3)
F3 F 0.3659(10) 0.5129(4) 0.163(2)
F4 F 0.3842(8) 0.4838(5) 0.456(3)
F13 F 0.82366(13) 0.36499(9) 0.2268(5)
F14 F 0.8080(2) 0.29030(11) 0.2175(5)
F15 F 0.90075(15) 0.32185(9) 0.0618(4)
F16 F 0.90036(15) 0.32012(9) 0.3990(4)
B4 B 0.8568(3) 0.32370(15) 0.2263(7)
N7 N 0.1057(3) 0.30748(18) 0.5952(9)
C31 C 0.0563(3) 0.29173(17) 0.6575(8)
C32 C -0.0065(3) 0.2707(2) 0.7386(8)
H33 H 0.0042 0.2395 0.7696
H34 H -0.0462 0.2722 0.6399
H35 H -0.0196 0.2861 0.8610
N8 N 0.43319(19) 0.36673(12) 0.8729(5)
C33 C 0.44393(19) 0.40398(13) 0.8698(5)
C34 C 0.4596(3) 0.45126(14) 0.8630(7)
H36 H 0.5110 0.4556 0.8497
H37 H 0.4444 0.4654 0.9865
H38 H 0.4339 0.4647 0.7481
B2? B 0.3358(2) 0.48400(14) 0.2953(6)
F5? F 0.2763(6) 0.4970(5) 0.397(2)
F6? F 0.3292(8) 0.4397(4) 0.255(3)
F7? F 0.3407(9) 0.5087(4) 0.1186(16)
F8? F 0.3996(6) 0.4930(5) 0.395(3)
B3? B 0.3358(2) 0.48400(14) 0.2953(6)
F9? F 0.2717(5) 0.5071(4) 0.307(3)
F10? F 0.3297(9) 0.4465(5) 0.178(3)
F11? F 0.3862(8) 0.5131(2) 0.229(3)
F12? F 0.3601(9) 0.4727(5) 0.4902(10)
loop_
_geom_bond_atom_site_label_1
_geom_bond_atom_site_label_2
_geom_bond_site_symmetry_1
_geom_bond_site_symmetry_2
Ag1 N1 1_555 1_555
Ag2 N2 1_555 1_555
B1 F1 1_555 1_555
F2 B1 1_555 1_555
F3 B1 1_555 1_555
F4 B1 1_555 1_555
F13 B4 1_555 1_555
F14 B4 1_555 1_555
F15 B4 1_555 1_555
F16 B4 1_555 1_555
N1 H1 1_555 1_555
H2 N1 1_555 1_555
N2 C4 1_555 1_555
N3 Ag1 1_555 1_555
N4 Ag1 1_555 1_555
N5 Ag2 1_555 1_555
N6 Ag2 1_555 1_555
N7 C31 1_555 1_555
N8 C33 1_555 1_555
C1 N1 1_555 1_555
H3 C1 1_555 1_555
H4 C1 1_555 1_555
C2 C1 1_555 1_555
C3 C2 1_555 1_555
H5 C3 1_555 1_555
C4 C3 1_555 1_555
H6 C4 1_555 1_555
C5 N2 1_555 1_555
H7 C5 1_555 1_555
C6 C2 1_555 1_555
H8 C6 1_555 1_555
C7 N3 1_555 1_555
H9 C7 1_555 1_555
C8 C7 1_555 1_555
C9 C8 1_555 1_555
H10 C9 1_555 1_555
C10 C9 1_555 1_555
H11 C10 1_555 1_555
C11 N3 1_555 1_555
C12 C8 1_555 1_555
H12 C12 1_555 1_555
H13 C12 1_555 1_555
H14 C12 1_555 1_555
C13 N4 1_555 1_555
C14 C13 1_555 1_555
H15 C14 1_555 1_555
C15 C14 1_555 1_555
H16 C15 1_555 1_555
C16 C15 1_555 1_555
C17 N4 1_555 1_555
H17 C17 1_555 1_555
C18 C16 1_555 1_555
H18 C18 1_555 1_555
H19 C18 1_555 1_555
H20 C18 1_555 1_555
C19 N5 1_555 1_555
H21 C19 1_555 1_555
C20 C19 1_555 1_555
C21 C20 1_555 1_555
H22 C21 1_555 1_555
C22 C21 1_555 1_555
H23 C22 1_555 1_555
C23 N5 1_555 1_555
C24 C20 1_555 1_555
H24 C24 1_555 1_555
H25 C24 1_555 1_555
H26 C24 1_555 1_555
C25 N6 1_555 1_555
C26 C25 1_555 1_555
H27 C26 1_555 1_555
C27 C26 1_555 1_555
H28 C27 1_555 1_555
C28 C27 1_555 1_555
C29 N6 1_555 1_555
H29 C29 1_555 1_555
C30 C28 1_555 1_555
H30 C30 1_555 1_555
H31 C30 1_555 1_555
H32 C30 1_555 1_555
C31 C32 1_555 1_555
C32 H33 1_555 1_555
H34 C32 1_555 1_555
H35 C32 1_555 1_555
C33 C34 1_555 1_555
C34 H36 1_555 1_555
H37 C34 1_555 1_555
H38 C34 1_555 1_555
Ag2C Ag2 1_555 1_555
Ag2C_2 Ag2 1_555 1_555
C5 C6 1_555 1_555
C10 C11 1_555 1_555
C11 C13 1_555 1_555
C16 C17 1_555 1_555
C22 C23 1_555 1_555
C23 C25 1_555 1_555
C28 C29 1_555 1_555

#END
