
#######################################################################
#
#                 Cambridge Crystallographic Data Centre
#                                CCDC 
#
#######################################################################
#
# If this CIF has been generated from an entry in the Cambridge 
# Structural Database, then it will include bibliographic, chemical, 
# crystal, experimental, refinement or atomic coordinate data resulting 
# from the CCDC's data processing and validation procedures.
#
#######################################################################

data_DECVUE
_symmetry_cell_setting           triclinic
_symmetry_space_group_name_H-M   'P -1'
_symmetry_Int_Tables_number      2
_space_group_name_Hall           '-P 1'
loop_
_symmetry_equiv_pos_site_id
_symmetry_equiv_pos_as_xyz
1 x,y,z
2 -x,-y,-z
_cell_length_a                   7.3970(6)
_cell_length_b                   11.6821(11)
_cell_length_c                   11.9819(13)
_cell_angle_alpha                104.845(2)
_cell_angle_beta                 100.972(1)
_cell_angle_gamma                103.329(2)
_cell_volume                     939.01
loop_
_atom_site_label
_atom_site_type_symbol
_atom_site_fract_x
_atom_site_fract_y
_atom_site_fract_z
Sn1 Sn 0.16640(4) -0.20009(2) 0.28951(3)
O1 O 0.2157(4) 0.6371(2) 0.3805(3)
O2 O 0.1143(4) -0.0507(2) 0.2273(3)
O3 O -0.1960(5) -0.1551(3) 0.1320(3)
N1 N 0.0897(5) 0.3985(3) 0.3263(3)
H1 H 0.0921 0.4637 0.3050
C1 C 0.2990(6) 0.6416(4) 0.4859(4)
C2 C 0.4109(7) 0.7580(4) 0.5760(4)
H2 H 0.4226 0.8307 0.5559
C3 C 0.4981(7) 0.7649(4) 0.6867(4)
H3 H 0.5687 0.8424 0.7409
C4 C 0.4877(6) 0.6587(4) 0.7257(4)
C5 C 0.5825(6) 0.6693(4) 0.8430(4)
H4 H 0.6551 0.7470 0.8960
C6 C 0.5696(7) 0.5680(5) 0.8798(4)
H5 H 0.6320 0.5767 0.9579
C7 C 0.4634(7) 0.4511(5) 0.8015(4)
H6 H 0.4539 0.3816 0.8269
C8 C 0.3723(6) 0.4391(4) 0.6855(4)
H7 H 0.3030 0.3603 0.6336
C9 C 0.3797(6) 0.5408(4) 0.6427(4)
C10 C 0.2848(5) 0.5324(3) 0.5213(3)
C11 C 0.1819(6) 0.4166(4) 0.4364(3)
H8 H 0.1793 0.3469 0.4607
C12 C -0.0142(6) 0.2831(3) 0.2375(3)
C13 C 0.0168(6) 0.1727(3) 0.2484(3)
H9 H 0.1086 0.1735 0.3137
C14 C -0.0902(6) 0.0617(3) 0.1609(4)
C15 C -0.2269(6) 0.0607(4) 0.0640(4)
H10 H -0.3016 -0.0140 0.0066
C16 C -0.2522(7) 0.1711(4) 0.0528(4)
H11 H -0.3413 0.1705 -0.0137
C17 C -0.1470(6) 0.2819(4) 0.1389(4)
H12 H -0.1653 0.3558 0.1306
C18 C -0.0613(7) -0.0593(4) 0.1729(4)
C19 C 0.0367(7) -0.3581(4) 0.1362(4)
H13 H -0.0794 -0.4068 0.1459
H14 H 0.1242 -0.4069 0.1264
H15 H 0.0065 -0.3324 0.0667
C20 C 0.4688(6) -0.1238(4) 0.3239(4)
H16 H 0.5299 -0.1879 0.3243
H17 H 0.5173 -0.0604 0.4004
H18 H 0.4958 -0.0886 0.2626
C21 C 0.0380(7) -0.1461(4) 0.4302(4)
H19 H -0.0896 -0.1439 0.3974
H20 H 0.1141 -0.0653 0.4831
H21 H 0.0314 -0.2045 0.4740
Sn1_2 Sn 0.16640(4) 0.79991(2) 0.28951(3)
O1_2 O 0.2157(4) -0.3629(2) 0.3805(3)
loop_
_geom_bond_atom_site_label_1
_geom_bond_atom_site_label_2
_geom_bond_site_symmetry_1
_geom_bond_site_symmetry_2
Sn1 O2 1_555 1_555
O1 C1 1_555 1_555
O2 C18 1_555 1_555
O3 C18 1_555 1_555
N1 H1 1_555 1_555
C1 C2 1_555 1_555
C2 H2 1_555 1_555
C3 C2 1_555 1_555
H3 C3 1_555 1_555
C4 C3 1_555 1_555
C5 C4 1_555 1_555
H4 C5 1_555 1_555
C6 C5 1_555 1_555
H5 C6 1_555 1_555
C7 C6 1_555 1_555
H6 C7 1_555 1_555
C8 C7 1_555 1_555
H7 C8 1_555 1_555
C9 C4 1_555 1_555
C10 C1 1_555 1_555
C11 N1 1_555 1_555
H8 C11 1_555 1_555
C12 N1 1_555 1_555
C13 C12 1_555 1_555
H9 C13 1_555 1_555
C14 C13 1_555 1_555
C15 C14 1_555 1_555
H10 C15 1_555 1_555
C16 C15 1_555 1_555
H11 C16 1_555 1_555
C17 C12 1_555 1_555
H12 C17 1_555 1_555
C18 C14 1_555 1_555
C19 Sn1 1_555 1_555
H13 C19 1_555 1_555
H14 C19 1_555 1_555
H15 C19 1_555 1_555
C20 Sn1 1_555 1_555
H16 C20 1_555 1_555
H17 C20 1_555 1_555
H18 C20 1_555 1_555
C21 Sn1 1_555 1_555
H19 C21 1_555 1_555
H20 C21 1_555 1_555
H21 C21 1_555 1_555
Sn1_2 O1 1_555 1_555
O1_2 Sn1 1_555 1_555
C8 C9 1_555 1_555
C9 C10 1_555 1_555
C10 C11 1_555 1_555
C16 C17 1_555 1_555

#END
