
#######################################################################
#
#                 Cambridge Crystallographic Data Centre
#                                CCDC 
#
#######################################################################
#
# If this CIF has been generated from an entry in the Cambridge 
# Structural Database, then it will include bibliographic, chemical, 
# crystal, experimental, refinement or atomic coordinate data resulting 
# from the CCDC's data processing and validation procedures.
#
#######################################################################

data_DECVIS
_symmetry_cell_setting           monoclinic
_symmetry_space_group_name_H-M   'P 21/n'
_symmetry_Int_Tables_number      14
_space_group_name_Hall           '-P 2yn'
loop_
_symmetry_equiv_pos_site_id
_symmetry_equiv_pos_as_xyz
1 x,y,z
2 1/2-x,1/2+y,1/2-z
3 -x,-y,-z
4 1/2+x,1/2-y,1/2+z
_cell_length_a                   9.9322(8)
_cell_length_b                   20.060(2)
_cell_length_c                   16.8915(17)
_cell_angle_alpha                90
_cell_angle_beta                 104.789(1)
_cell_angle_gamma                90
_cell_volume                     3253.97
loop_
_atom_site_label
_atom_site_type_symbol
_atom_site_fract_x
_atom_site_fract_y
_atom_site_fract_z
Sn1 Sn 0.44882(12) 0.24136(6) 0.18322(8)
O1 O 0.5964(12) 0.3101(6) 0.2522(7)
O2 O 0.5434(14) 0.3817(7) 0.1486(8)
O3 O 1.1808(12) 0.6434(6) 0.3866(7)
N1 N 1.0657(13) 0.5278(7) 0.3835(8)
H1 H 1.0663 0.5669 0.3624
C1 C 0.613(2) 0.3658(9) 0.2160(12)
C2 C 0.5480(18) 0.2310(9) 0.0865(11)
C3 C 0.482(2) 0.2426(13) 0.0066(13)
H2 H 0.3879 0.2536 -0.0075
C4 C 0.552(3) 0.2384(15) -0.0536(17)
H3 H 0.5045 0.2467 -0.1077
C5 C 0.686(3) 0.2228(14) -0.036(2)
H4 H 0.7317 0.2212 -0.0777
C6 C 0.758(3) 0.2087(15) 0.044(2)
H5 H 0.8515 0.1968 0.0571
C7 C 0.690(3) 0.2128(15) 0.1025(16)
H6 H 0.7381 0.2031 0.1562
C8 C 0.4981(19) 0.1744(11) 0.2816(10)
C9 C 0.398(2) 0.1282(11) 0.2964(15)
H7 H 0.3105 0.1263 0.2598
C10 C 0.427(3) 0.0868(16) 0.3626(19)
H8 H 0.3588 0.0585 0.3725
C11 C 0.556(4) 0.0879(19) 0.414(2)
H9 H 0.5735 0.0602 0.4592
C12 C 0.670(3) 0.1293(16) 0.4024(18)
H10 H 0.7605 0.1262 0.4349
C13 C 0.627(2) 0.1756(12) 0.3357(14)
H11 H 0.6900 0.2080 0.3290
C14 C 0.2554(18) 0.2915(10) 0.1738(11)
C15 C 0.227(3) 0.3525(13) 0.1362(15)
H12 H 0.2895 0.3712 0.1101
C16 C 0.106(3) 0.3863(16) 0.1369(16)
H13 H 0.0904 0.4291 0.1154
C17 C 0.010(3) 0.3564(16) 0.1691(18)
H14 H -0.0750 0.3774 0.1646
C18 C 0.034(3) 0.2965(17) 0.2079(17)
H15 H -0.0317 0.2781 0.2320
C19 C 0.163(2) 0.2617(16) 0.2114(15)
H16 H 0.1830 0.2209 0.2379
C20 C 1.2729(16) 0.6258(7) 0.4523(10)
C21 C 1.3747(18) 0.6712(8) 0.4949(10)
H17 H 1.3759 0.7144 0.4750
C22 C 1.4687(17) 0.6536(9) 0.5626(10)
H18 H 1.5281 0.6861 0.5916
C23 C 1.4820(17) 0.5883(9) 0.5924(10)
C24 C 1.5904(18) 0.5699(11) 0.6629(11)
H19 H 1.6541 0.6019 0.6890
C25 C 1.601(2) 0.5076(13) 0.6915(14)
H20 H 1.6719 0.4967 0.7374
C26 C 1.509(2) 0.4597(11) 0.6537(14)
H21 H 1.5169 0.4164 0.6743
C27 C 1.402(2) 0.4751(10) 0.5846(11)
H22 H 1.3415 0.4417 0.5593
C28 C 1.3854(16) 0.5387(8) 0.5531(10)
C29 C 1.2768(16) 0.5590(8) 0.4831(9)
C30 C 1.1697(17) 0.5146(8) 0.4459(9)
H23 H 1.1737 0.4719 0.4678
C31 C 0.9518(16) 0.4867(8) 0.3456(10)
C32 C 0.9324(18) 0.4242(9) 0.3763(10)
H24 H 0.9946 0.4083 0.4234
C33 C 0.8194(18) 0.3857(8) 0.3362(10)
H25 H 0.8052 0.3441 0.3570
C34 C 0.7280(16) 0.4086(9) 0.2655(10)
C35 C 0.7498(18) 0.4721(8) 0.2324(11)
H26 H 0.6906 0.4876 0.1840
C36 C 0.8613(19) 0.5095(8) 0.2746(12)
H27 H 0.8762 0.5513 0.2546
Sn1A Sn 1.05118(12) 0.74136(6) 0.31678(8)
O3A O 0.3192(12) 0.1434(6) 0.1134(7)
Cl1 Cl 0.795(2) 0.9761(8) 0.5032(10)
Cl2 Cl 0.9671(15) 0.9036(9) 0.6277(9)
C37 C 0.883(5) 0.904(3) 0.519(3)
H28 H 0.9509 0.9018 0.4867
H29 H 0.8197 0.8662 0.5041
loop_
_geom_bond_atom_site_label_1
_geom_bond_atom_site_label_2
_geom_bond_site_symmetry_1
_geom_bond_site_symmetry_2
Sn1 O1 1_555 1_555
Cl1 C37 1_555 1_555
Cl2 C37 1_555 1_555
O1 C1 1_555 1_555
O2 C1 1_555 1_555
O3 C20 1_555 1_555
N1 H1 1_555 1_555
C1 C34 1_555 1_555
C2 Sn1 1_555 1_555
C3 C2 1_555 1_555
H2 C3 1_555 1_555
C4 C3 1_555 1_555
H3 C4 1_555 1_555
C5 C4 1_555 1_555
H4 C5 1_555 1_555
C6 C5 1_555 1_555
H5 C6 1_555 1_555
C7 C2 1_555 1_555
H6 C7 1_555 1_555
C8 Sn1 1_555 1_555
C9 C8 1_555 1_555
H7 C9 1_555 1_555
C10 C9 1_555 1_555
H8 C10 1_555 1_555
C11 C10 1_555 1_555
H9 C11 1_555 1_555
C12 C11 1_555 1_555
H10 C12 1_555 1_555
C13 C8 1_555 1_555
H11 C13 1_555 1_555
C14 Sn1 1_555 1_555
C15 C14 1_555 1_555
H12 C15 1_555 1_555
C16 C15 1_555 1_555
H13 C16 1_555 1_555
C17 C16 1_555 1_555
H14 C17 1_555 1_555
C18 C17 1_555 1_555
H15 C18 1_555 1_555
C19 C14 1_555 1_555
H16 C19 1_555 1_555
C20 C21 1_555 1_555
C21 H17 1_555 1_555
C22 C21 1_555 1_555
H18 C22 1_555 1_555
C23 C22 1_555 1_555
C24 C23 1_555 1_555
H19 C24 1_555 1_555
C25 C24 1_555 1_555
H20 C25 1_555 1_555
C26 C25 1_555 1_555
H21 C26 1_555 1_555
C27 C26 1_555 1_555
H22 C27 1_555 1_555
C28 C23 1_555 1_555
C29 C20 1_555 1_555
C30 N1 1_555 1_555
H23 C30 1_555 1_555
C31 N1 1_555 1_555
C32 C31 1_555 1_555
H24 C32 1_555 1_555
C33 C32 1_555 1_555
H25 C33 1_555 1_555
C34 C33 1_555 1_555
C35 C34 1_555 1_555
H26 C35 1_555 1_555
C36 C31 1_555 1_555
H27 C36 1_555 1_555
C37 H28 1_555 1_555
H29 C37 1_555 1_555
Sn1A O3 1_555 1_555
O3A Sn1 1_555 1_555
C6 C7 1_555 1_555
C12 C13 1_555 1_555
C18 C19 1_555 1_555
C27 C28 1_555 1_555
C28 C29 1_555 1_555
C29 C30 1_555 1_555
C35 C36 1_555 1_555

#END
