
#######################################################################
#
#                 Cambridge Crystallographic Data Centre
#                                CCDC 
#
#######################################################################
#
# If this CIF has been generated from an entry in the Cambridge 
# Structural Database, then it will include bibliographic, chemical, 
# crystal, experimental, refinement or atomic coordinate data resulting 
# from the CCDC's data processing and validation procedures.
#
#######################################################################

data_DECWOY
_symmetry_cell_setting           monoclinic
_symmetry_space_group_name_H-M   'C 2/c'
_symmetry_Int_Tables_number      15
_space_group_name_Hall           '-C 2yn'
loop_
_symmetry_equiv_pos_site_id
_symmetry_equiv_pos_as_xyz
1 x,y,z
2 1/2+x,1/2+y,z
3 -x,y,1/2-z
4 1/2-x,1/2+y,1/2-z
5 -x,-y,-z
6 1/2-x,1/2-y,-z
7 x,-y,1/2+z
8 1/2+x,1/2-y,1/2+z
_cell_length_a                   15.437(4)
_cell_length_b                   18.402(5)
_cell_length_c                   13.078(3)
_cell_angle_alpha                90
_cell_angle_beta                 92.964(3)
_cell_angle_gamma                90
_cell_volume                     3710.12
loop_
_atom_site_label
_atom_site_type_symbol
_atom_site_fract_x
_atom_site_fract_y
_atom_site_fract_z
Cu1 Cu 0.36078(2) 0.209713(19) -0.27032(2)
Cu2 Cu 0.50880(2) 0.325534(19) -0.35898(2)
S1 S 0.36323(4) 0.31889(4) -0.36450(5)
P1 P 0.49760(4) 0.15330(4) -0.05083(5)
S2 S 0.40987(4) 0.22850(4) -0.10141(5)
P2 P 0.32842(4) 0.39737(4) -0.26654(5)
S3 S 0.58683(4) 0.43078(4) -0.34195(5)
S4 S 0.41351(4) 0.11520(4) -0.36077(5)
O1 O 0.44571(12) 0.08618(11) -0.00767(13)
O2 O 0.53508(12) 0.18967(11) 0.05159(14)
O3 O 0.29239(13) 0.46531(11) -0.33116(15)
N1 N 0.22953(13) 0.18227(13) -0.25612(16)
O4 O 0.24190(12) 0.36724(13) -0.22347(14)
C1 C 0.09866(17) 0.19440(15) -0.1662(2)
H1 H 0.0728 0.2067 -0.1059
C2 C 0.04796(16) 0.17043(14) -0.25107(19)
C3 C 0.18055(17) 0.15691(16) -0.3369(2)
H2 H 0.2083 0.1431 -0.3953
C4 C 0.09120(17) 0.15041(16) -0.3373(2)
H3 H 0.0603 0.1327 -0.3949
C5 C 0.18740(17) 0.19968(15) -0.1722(2)
H4 H 0.2198 0.2162 -0.1149
C6 C 0.3968(2) 0.03968(16) -0.0774(2)
H5 H 0.3699 0.0018 -0.0398
H6 H 0.4349 0.0185 -0.1249
H7 H 0.3529 0.0676 -0.1142
C7 C 0.6071(2) 0.15956(18) 0.1119(3)
H8 H 0.6195 0.1896 0.1709
H9 H 0.6572 0.1576 0.0714
H10 H 0.5928 0.1114 0.1337
C8 C 0.3506(3) 0.50547(19) -0.3923(3)
H11 H 0.3196 0.5444 -0.4267
H12 H 0.3741 0.4737 -0.4421
H13 H 0.3969 0.5251 -0.3490
C9 C 0.1965(2) 0.4058(3) -0.1462(3)
H14 H 0.1457 0.3789 -0.1299
H15 H 0.1797 0.4529 -0.1716
H16 H 0.2339 0.4110 -0.0857
Cu1B Cu 0.63922(2) 0.209713(19) -0.22968(2)
Cu1B_2 Cu -0.36078(2) 0.209713(19) -0.22968(2)
Cu2B Cu 0.49120(2) 0.325534(19) -0.14102(2)
S1B S 0.63677(4) 0.31889(4) -0.13550(5)
P1B P 0.50240(4) 0.15330(4) -0.44917(5)
S2B S 0.59013(4) 0.22850(4) -0.39859(5)
P2B P 0.67158(4) 0.39737(4) -0.23346(5)
S3B S 0.41317(4) 0.43078(4) -0.15805(5)
S4B S 0.58649(4) 0.11520(4) -0.13923(5)
O1B O 0.55429(12) 0.08618(11) -0.49233(13)
O2B O 0.46492(12) 0.18967(11) -0.55159(14)
O3B O 0.70761(13) 0.46531(11) -0.16884(15)
N1B N -0.22953(13) 0.18227(13) -0.24388(16)
N1B_2 N 0.77047(13) 0.18227(13) -0.24388(16)
O4B O 0.75810(12) 0.36724(13) -0.27653(14)
C1B C -0.09866(17) 0.19440(15) -0.3338(2)
H1B H -0.0728 0.2067 -0.3941
C2B C -0.04796(16) 0.17043(14) -0.24893(19)
C3B C -0.18055(17) 0.15691(16) -0.1631(2)
H2B H -0.2083 0.1431 -0.1047
C4B C -0.09120(17) 0.15041(16) -0.1627(2)
H3B H -0.0603 0.1327 -0.1051
C5B C -0.18740(17) 0.19968(15) -0.3278(2)
H4B H -0.2198 0.2162 -0.3851
C6B C 0.6032(2) 0.03968(16) -0.4226(2)
H5B H 0.6301 0.0018 -0.4602
H6B H 0.5651 0.0185 -0.3751
H7B H 0.6471 0.0676 -0.3858
C7B C 0.3929(2) 0.15956(18) -0.6119(3)
H8B H 0.3805 0.1896 -0.6709
H9B H 0.3428 0.1576 -0.5714
H10B H 0.4072 0.1114 -0.6337
C8B C 0.6494(3) 0.50547(19) -0.1077(3)
H11B H 0.6804 0.5444 -0.0733
H12B H 0.6259 0.4737 -0.0579
H13B H 0.6031 0.5251 -0.1510
C9B C 0.8035(2) 0.4058(3) -0.3538(3)
H14B H 0.8543 0.3789 -0.3701
H15B H 0.8203 0.4529 -0.3284
H16B H 0.7661 0.4110 -0.4143
loop_
_geom_bond_atom_site_label_1
_geom_bond_atom_site_label_2
_geom_bond_site_symmetry_1
_geom_bond_site_symmetry_2
Cu1 S1 1_555 1_555
Cu2 S1 1_555 1_555
S1 P2 1_555 1_555
P1 S2 1_555 1_555
S2 Cu1 1_555 1_555
P2 O3 1_555 1_555
S3 Cu2 1_555 1_555
S4 Cu1 1_555 1_555
O1 P1 1_555 1_555
O2 P1 1_555 1_555
O3 C8 1_555 1_555
N1 Cu1 1_555 1_555
O4 P2 1_555 1_555
C1 H1 1_555 1_555
C2 C1 1_555 1_555
C3 N1 1_555 1_555
H2 C3 1_555 1_555
C4 C2 1_555 1_555
H3 C4 1_555 1_555
C5 N1 1_555 1_555
H4 C5 1_555 1_555
C6 O1 1_555 1_555
H5 C6 1_555 1_555
H6 C6 1_555 1_555
H7 C6 1_555 1_555
C7 O2 1_555 1_555
H8 C7 1_555 1_555
H9 C7 1_555 1_555
H10 C7 1_555 1_555
C8 H11 1_555 1_555
H12 C8 1_555 1_555
H13 C8 1_555 1_555
C9 O4 1_555 1_555
H14 C9 1_555 1_555
H15 C9 1_555 1_555
H16 C9 1_555 1_555
Cu1B S1B 1_555 1_555
Cu1B_2 N1B 1_555 1_555
Cu2B S2 1_555 1_555
S1B Cu2B 1_555 1_555
P1B S4 1_555 1_555
S2B Cu2 1_555 1_555
P2B S3 1_555 1_555
S3B P2 1_555 1_555
S4B P1 1_555 1_555
O1B P1B 1_555 1_555
O2B P1B 1_555 1_555
O3B P2B 1_555 1_555
N1B C3B 1_555 1_555
N1B_2 Cu1B 1_555 1_555
O4B P2B 1_555 1_555
C1B H1B 1_555 1_555
C2B C2 1_555 1_555
C3B H2B 1_555 1_555
C4B C2B 1_555 1_555
H3B C4B 1_555 1_555
C5B N1B 1_555 1_555
H4B C5B 1_555 1_555
C6B O1B 1_555 1_555
H5B C6B 1_555 1_555
H6B C6B 1_555 1_555
H7B C6B 1_555 1_555
C7B O2B 1_555 1_555
H8B C7B 1_555 1_555
H9B C7B 1_555 1_555
H10B C7B 1_555 1_555
C8B O3B 1_555 1_555
H11B C8B 1_555 1_555
H12B C8B 1_555 1_555
H13B C8B 1_555 1_555
C9B O4B 1_555 1_555
H14B C9B 1_555 1_555
H15B C9B 1_555 1_555
H16B C9B 1_555 1_555
C1 C5 1_555 1_555
C3 C4 1_555 1_555
Cu1B S2B 1_555 1_555
Cu1B S4B 1_555 1_555
Cu2B S3B 1_555 1_555
S1B P2B 1_555 1_555
P1B S2B 1_555 1_555
C1B C2B 1_555 1_555
C1B C5B 1_555 1_555
C3B C4B 1_555 1_555

#END
