
#######################################################################
#
#                 Cambridge Crystallographic Data Centre
#                                CCDC 
#
#######################################################################
#
# If this CIF has been generated from an entry in the Cambridge 
# Structural Database, then it will include bibliographic, chemical, 
# crystal, experimental, refinement or atomic coordinate data resulting 
# from the CCDC's data processing and validation procedures.
#
#######################################################################

data_DECWUE
_symmetry_cell_setting           triclinic
_symmetry_space_group_name_H-M   'P -1'
_symmetry_Int_Tables_number      2
_space_group_name_Hall           '-P 1'
loop_
_symmetry_equiv_pos_site_id
_symmetry_equiv_pos_as_xyz
1 x,y,z
2 -x,-y,-z
_cell_length_a                   5.994(2)
_cell_length_b                   7.949(3)
_cell_length_c                   13.868(5)
_cell_angle_alpha                101.154(3)
_cell_angle_beta                 95.823(5)
_cell_angle_gamma                101.176(3)
_cell_volume                     629.322
loop_
_atom_site_label
_atom_site_type_symbol
_atom_site_fract_x
_atom_site_fract_y
_atom_site_fract_z
Cu1 Cu 0.10499(3) 0.95118(3) 0.683619(15)
P1 P -0.39718(7) 0.87126(5) 0.77600(3)
S1 S -0.09552(7) 0.79885(6) 0.77535(3)
S2 S 0.43715(7) 0.86595(6) 0.64374(3)
O1 O -0.5492(2) 0.75444(15) 0.83716(9)
O2 O -0.3743(2) 1.06193(15) 0.84176(9)
N1 N 0.0674(2) 1.15352(18) 0.62223(10)
C1 C 0.2064(3) 1.2009(2) 0.55719(13)
H1 H 0.323(4) 1.142(3) 0.5476(15)
C2 C 0.1858(3) 1.3344(2) 0.50849(13)
H2 H 0.279(4) 1.356(3) 0.4640(16)
C3 C 0.0147(3) 1.4283(2) 0.52595(12)
C4 C -0.1282(3) 1.3798(2) 0.59398(13)
H3 H -0.242(4) 1.433(3) 0.6081(15)
C5 C -0.0979(3) 1.2444(2) 0.63938(13)
H4 H -0.190(4) 1.211(3) 0.6849(16)
C6 C -0.6461(3) 0.5687(2) 0.79597(15)
H5 H -0.794(4) 0.546(3) 0.8108(17)
H6 H -0.656(4) 0.550(3) 0.7245(18)
C7 C -0.5090(4) 0.4553(3) 0.83863(19)
H7 H -0.586(4) 0.332(3) 0.8096(18)
H8 H -0.354(5) 0.480(4) 0.822(2)
H9 H -0.507(5) 0.473(4) 0.909(2)
C8 C -0.2465(4) 1.1140(3) 0.94291(14)
H10 H -0.213(4) 1.011(3) 0.9636(15)
H11 H -0.346(5) 1.158(3) 0.9789(19)
C9 C -0.0280(4) 1.2450(3) 0.94478(17)
H12 H 0.053(5) 1.283(4) 1.013(2)
H13 H -0.058(5) 1.338(4) 0.920(2)
H14 H 0.073(5) 1.193(3) 0.899(2)
Cu1_2 Cu -0.89501(3) 0.95118(3) 0.683619(15)
Cu1A Cu -0.10499(3) 2.04882(3) 0.316381(15)
Cu1_3 Cu 1.10499(3) 0.95118(3) 0.683619(15)
P1_2 P 0.60282(7) 0.87126(5) 0.77600(3)
S1_2 S -1.09552(7) 0.79885(6) 0.77535(3)
S1_3 S 0.90448(7) 0.79885(6) 0.77535(3)
S2_2 S -0.56285(7) 0.86595(6) 0.64374(3)
O1_2 O 0.4508(2) 0.75444(15) 0.83716(9)
O2_2 O 0.6257(2) 1.06193(15) 0.84176(9)
N1_2 N -0.9326(2) 1.15352(18) 0.62223(10)
N1A N -0.0674(2) 1.84648(18) 0.37777(10)
C1A C -0.2064(3) 1.7991(2) 0.44281(13)
H1A H -0.323(4) 1.858(3) 0.4524(15)
C2A C -0.1858(3) 1.6656(2) 0.49151(13)
H2A H -0.279(4) 1.644(3) 0.5360(16)
C3A C -0.0147(3) 1.5717(2) 0.47405(12)
C4A C 0.1282(3) 1.6202(2) 0.40602(13)
H3A H 0.242(4) 1.567(3) 0.3919(15)
C5A C 0.0979(3) 1.7556(2) 0.36062(13)
H4A H 0.190(4) 1.789(3) 0.3151(16)
C6_2 C 0.3539(3) 0.5687(2) 0.79597(15)
H5_2 H 0.206(4) 0.546(3) 0.8108(17)
H6_2 H 0.344(4) 0.550(3) 0.7245(18)
C7_2 C 0.4910(4) 0.4553(3) 0.83863(19)
H7_2 H 0.414(4) 0.332(3) 0.8096(18)
H8_2 H 0.646(5) 0.480(4) 0.822(2)
H9_2 H 0.493(5) 0.473(4) 0.909(2)
C8_2 C 0.7535(4) 1.1140(3) 0.94291(14)
H10_2 H 0.787(4) 1.011(3) 0.9636(15)
H11_2 H 0.654(5) 1.158(3) 0.9789(19)
C9_2 C 0.9720(4) 1.2450(3) 0.94478(17)
H12_2 H 1.053(5) 1.283(4) 1.013(2)
H13_2 H 0.942(5) 1.338(4) 0.920(2)
H14_2 H 1.073(5) 1.193(3) 0.899(2)
loop_
_geom_bond_atom_site_label_1
_geom_bond_atom_site_label_2
_geom_bond_site_symmetry_1
_geom_bond_site_symmetry_2
Cu1 S1 1_555 1_555
P1 S1 1_555 1_555
S2 Cu1 1_555 1_555
O1 P1 1_555 1_555
O2 P1 1_555 1_555
N1 Cu1 1_555 1_555
C1 N1 1_555 1_555
H1 C1 1_555 1_555
C2 C1 1_555 1_555
H2 C2 1_555 1_555
C3 C2 1_555 1_555
C4 C3 1_555 1_555
H3 C4 1_555 1_555
C5 N1 1_555 1_555
H4 C5 1_555 1_555
C6 O1 1_555 1_555
H5 C6 1_555 1_555
H6 C6 1_555 1_555
C7 C6 1_555 1_555
H7 C7 1_555 1_555
H8 C7 1_555 1_555
H9 C7 1_555 1_555
C8 O2 1_555 1_555
H10 C8 1_555 1_555
H11 C8 1_555 1_555
C9 C8 1_555 1_555
H12 C9 1_555 1_555
H13 C9 1_555 1_555
H14 C9 1_555 1_555
Cu1_2 S1_2 1_555 1_555
Cu1A N1A 1_555 1_555
Cu1_3 S1_3 1_555 1_555
P1_2 S2 1_555 1_555
S1_3 P1_2 1_555 1_555
S2_2 P1 1_555 1_555
O1_2 P1_2 1_555 1_555
O2_2 P1_2 1_555 1_555
N1_2 Cu1_2 1_555 1_555
N1A C1A 1_555 1_555
C1A H1A 1_555 1_555
C2A C1A 1_555 1_555
H2A C2A 1_555 1_555
C3A C3 1_555 1_555
C4A C3A 1_555 1_555
H3A C4A 1_555 1_555
C5A N1A 1_555 1_555
H4A C5A 1_555 1_555
C6_2 O1_2 1_555 1_555
H5_2 C6_2 1_555 1_555
H6_2 C6_2 1_555 1_555
C7_2 C6_2 1_555 1_555
H7_2 C7_2 1_555 1_555
H8_2 C7_2 1_555 1_555
H9_2 C7_2 1_555 1_555
C8_2 O2_2 1_555 1_555
H10_2 C8_2 1_555 1_555
H11_2 C8_2 1_555 1_555
C9_2 C8_2 1_555 1_555
H12_2 C9_2 1_555 1_555
H13_2 C9_2 1_555 1_555
H14_2 C9_2 1_555 1_555
C4 C5 1_555 1_555
Cu1_2 S2_2 1_555 1_555
C2A C3A 1_555 1_555
C4A C5A 1_555 1_555

#END
