
#######################################################################
#
#                 Cambridge Crystallographic Data Centre
#                                CCDC 
#
#######################################################################
#
# If this CIF has been generated from an entry in the Cambridge 
# Structural Database, then it will include bibliographic, chemical, 
# crystal, experimental, refinement or atomic coordinate data resulting 
# from the CCDC's data processing and validation procedures.
#
#######################################################################

data_DEDPAD
_symmetry_cell_setting           monoclinic
_symmetry_space_group_name_H-M   'P 21/n'
_symmetry_Int_Tables_number      14
_space_group_name_Hall           '-P 2yn'
loop_
_symmetry_equiv_pos_site_id
_symmetry_equiv_pos_as_xyz
1 x,y,z
2 1/2-x,1/2+y,1/2-z
3 -x,-y,-z
4 1/2+x,1/2-y,1/2+z
_cell_length_a                   10.286(5)
_cell_length_b                   18.066(9)
_cell_length_c                   4.390(3)
_cell_angle_alpha                90
_cell_angle_beta                 104.31(5)
_cell_angle_gamma                90
_cell_volume                     790.468
loop_
_atom_site_label
_atom_site_type_symbol
_atom_site_fract_x
_atom_site_fract_y
_atom_site_fract_z
Ag1 Ag 0.6125(4) 0.5111(2) 0.3157(8)
Br1 Br 0.4009(4) 0.4042(2) 0.2042(9)
N1 N 0.789(3) 0.431(2) 0.362(8)
C1 C 0.786(5) 0.363(3) 0.459(12)
C2 C 0.885(5) 0.315(2) 0.469(20)
C3 C 0.986(4) 0.328(2) 0.341(8)
C4 C 1.096(4) 0.269(3) 0.318(9)
C5 C 0.997(5) 0.396(2) 0.237(15)
C6 C 0.895(7) 0.447(2) 0.250(20)
H1 H 0.708 0.348 0.537
H2 H 0.878 0.266 0.557
H3 H 1.135 0.251 0.523
H4 H 1.049 0.228 0.195
H5 H 1.170 0.278 0.227
H6 H 1.076 0.412 0.174
H7 H 0.901 0.496 0.158
Br1B Br 0.5991(4) 0.5958(2) -0.2042(9)
Br1B_2 Br 0.5991(4) 0.5958(2) 0.7958(9)
Ag1B Ag 0.3875(4) 0.4889(2) -0.3157(8)
Ag1B_2 Ag 0.3875(4) 0.4889(2) 0.6843(8)
Ag1_2 Ag 0.6125(4) 0.5111(2) -0.6843(8)
Br1_2 Br 0.4009(4) 0.4042(2) -0.7958(9)
N1B N 0.211(3) 0.569(2) -0.362(8)
C1B C 0.214(5) 0.637(3) -0.459(12)
C2B C 0.115(5) 0.685(2) -0.469(20)
C3B C 0.014(4) 0.672(2) -0.341(8)
C4B C -0.096(4) 0.731(3) -0.318(9)
C5B C 0.003(5) 0.604(2) -0.237(15)
C6B C 0.105(7) 0.553(2) -0.250(20)
H1B H 0.292 0.652 -0.537
H2B H 0.122 0.734 -0.557
H3B H -0.135 0.749 -0.523
H4B H -0.049 0.772 -0.195
H5B H -0.170 0.722 -0.227
H6B H -0.076 0.588 -0.174
H7B H 0.099 0.504 -0.158
loop_
_geom_bond_atom_site_label_1
_geom_bond_atom_site_label_2
_geom_bond_site_symmetry_1
_geom_bond_site_symmetry_2
Ag1 Br1 1_555 1_555
Br1 Ag1B 1_555 1_555
N1 Ag1 1_555 1_555
C1 N1 1_555 1_555
C2 C1 1_555 1_555
C3 C2 1_555 1_555
C4 C3 1_555 1_555
C5 C3 1_555 1_555
C6 N1 1_555 1_555
H1 C1 1_555 1_555
H2 C2 1_555 1_555
H3 C4 1_555 1_555
H4 C4 1_555 1_555
H5 C4 1_555 1_555
H6 C5 1_555 1_555
H7 C6 1_555 1_555
Br1B Ag1 1_555 1_555
Br1B_2 Ag1 1_555 1_555
Ag1B Br1B 1_555 1_555
Ag1B_2 Br1 1_555 1_555
Ag1_2 Br1B 1_555 1_555
Br1_2 Ag1B 1_555 1_555
N1B Ag1B 1_555 1_555
C1B N1B 1_555 1_555
C2B C1B 1_555 1_555
C3B C2B 1_555 1_555
C4B C3B 1_555 1_555
C5B C3B 1_555 1_555
C6B N1B 1_555 1_555
H1B C1B 1_555 1_555
H2B C2B 1_555 1_555
H3B C4B 1_555 1_555
H4B C4B 1_555 1_555
H5B C4B 1_555 1_555
H6B C5B 1_555 1_555
H7B C6B 1_555 1_555
C5 C6 1_555 1_555
Br1B_2 Ag1B_2 1_555 1_555
Ag1_2 Br1_2 1_555 1_555
C5B C6B 1_555 1_555

#END
