
#######################################################################
#
#                 Cambridge Crystallographic Data Centre
#                                CCDC 
#
#######################################################################
#
# If this CIF has been generated from an entry in the Cambridge 
# Structural Database, then it will include bibliographic, chemical, 
# crystal, experimental, refinement or atomic coordinate data resulting 
# from the CCDC's data processing and validation procedures.
#
#######################################################################

data_DEDQIN
_symmetry_cell_setting           monoclinic
_symmetry_space_group_name_H-M   'C 2/c'
_symmetry_Int_Tables_number      15
_space_group_name_Hall           '-C 2yn'
loop_
_symmetry_equiv_pos_site_id
_symmetry_equiv_pos_as_xyz
1 x,y,z
2 1/2+x,1/2+y,z
3 -x,y,1/2-z
4 1/2-x,1/2+y,1/2-z
5 -x,-y,-z
6 1/2-x,1/2-y,-z
7 x,-y,1/2+z
8 1/2+x,1/2-y,1/2+z
_cell_length_a                   31.234(6)
_cell_length_b                   9.0441(18)
_cell_length_c                   15.596(3)
_cell_angle_alpha                90
_cell_angle_beta                 108.44(3)
_cell_angle_gamma                90
_cell_volume                     4179.41
loop_
_atom_site_label
_atom_site_type_symbol
_atom_site_fract_x
_atom_site_fract_y
_atom_site_fract_z
Yb1 Yb 0.751990(5) 0.986100(16) 0.293820(9)
O1 O 0.75409(11) 1.0233(4) 0.44003(19)
O2 O 0.69252(9) 1.1371(3) 0.29672(17)
O3 O 0.73031(8) 1.0996(3) 0.15665(16)
O4 O 0.81076(9) 1.1345(3) 0.32859(17)
O5 O 0.80650(9) 1.3340(3) 0.24335(17)
O6 O 0.71863(8) 1.3669(3) 0.30334(16)
O7 O 0.69802(9) 1.3187(3) 0.11685(17)
C1 C 0.87796(13) 1.2219(4) 0.3086(3)
C2 C 0.68812(12) 1.2746(4) 0.3030(2)
C3 C 0.60567(13) 1.2462(4) 0.2709(2)
H1 H 0.6081 1.1583 0.2395
C4 C 0.61367(13) 1.1782(5) 0.0505(3)
H2 H 0.6144 1.2763 0.0727
C5 C 0.57145(15) 0.9702(5) -0.0251(3)
H3 H 0.5433 0.9234 -0.0540
C6 C 0.65437(13) 1.1050(4) 0.0611(2)
C7 C 0.89955(14) 1.3051(5) 0.2567(3)
C8 C 0.64454(12) 1.3304(4) 0.3112(2)
C9 C 0.69707(12) 1.1799(4) 0.1147(2)
N1 N 0.87648(16) 1.3812(4) 0.1813(3)
C10 C 0.82877(12) 1.2312(4) 0.2926(2)
C11 C 0.56112(14) 1.4146(5) 0.3246(3)
H4 H 0.5329 1.4425 0.3306
C12 C 0.57232(15) 1.1123(5) 0.0088(3)
H5 H 0.5450 1.1635 0.0035
C13 C 0.56411(14) 1.2881(5) 0.2759(3)
H6 H 0.5379 1.2316 0.2465
N2 N 0.67822(12) 1.5547(4) 0.3958(2)
C14 C 0.64109(13) 1.4626(4) 0.3558(2)
C15 C 0.59894(14) 1.4998(4) 0.3641(3)
H7 H 0.5964 1.5852 0.3976
N3 N 0.69275(13) 0.8821(4) 0.0304(2)
C16 C 0.65308(13) 0.9601(4) 0.0263(2)
C17 C 0.61147(14) 0.8958(5) -0.0171(3)
H8 H 0.6103 0.7992 -0.0417
C18 C 0.90398(15) 1.1276(5) 0.3771(3)
H9 H 0.8896 1.0694 0.4107
C19 C 0.95009(17) 1.1188(7) 0.3961(3)
H10 H 0.9673 1.0549 0.4426
C20 C 0.94677(16) 1.2928(6) 0.2792(4)
H11 H 0.9621 1.3483 0.2462
C21 C 0.97105(17) 1.2021(7) 0.3479(4)
H12 H 1.0029 1.1971 0.3622
H13 H 0.6704(16) 1.648(6) 0.404(3)
H14 H 0.7147(15) 0.891(5) 0.076(3)
H15 H 0.6894(16) 0.799(6) 0.027(3)
H16 H 0.6970(14) 1.552(5) 0.367(3)
H17 H 0.849(2) 1.430(7) 0.174(4)
H18 H 0.7742(17) 0.990(5) 0.486(3)
H19 H 0.902(3) 1.451(11) 0.172(6)
H20 H 0.7363(17) 1.057(6) 0.461(3)
Yb1C Yb 0.748010(5) 1.486100(16) 0.206180(9)
O5C O 0.69350(9) 0.8340(3) 0.25665(17)
O6C O 0.78137(8) 0.8669(3) 0.19666(16)
O7C O 0.80198(9) 0.8187(3) 0.38315(17)
loop_
_geom_bond_atom_site_label_1
_geom_bond_atom_site_label_2
_geom_bond_site_symmetry_1
_geom_bond_site_symmetry_2
Yb1 O1 1_555 1_555
O1 H18 1_555 1_555
O2 Yb1 1_555 1_555
O3 Yb1 1_555 1_555
O4 Yb1 1_555 1_555
O5 C10 1_555 1_555
O6 C2 1_555 1_555
O7 C9 1_555 1_555
C1 C7 1_555 1_555
C2 O2 1_555 1_555
C3 H1 1_555 1_555
C4 H2 1_555 1_555
C5 H3 1_555 1_555
C6 C4 1_555 1_555
C7 N1 1_555 1_555
C8 C2 1_555 1_555
C9 O3 1_555 1_555
N1 H17 1_555 1_555
C10 O4 1_555 1_555
C11 H4 1_555 1_555
C12 C4 1_555 1_555
H5 C12 1_555 1_555
C13 C3 1_555 1_555
H6 C13 1_555 1_555
N2 C14 1_555 1_555
C14 C8 1_555 1_555
C15 C11 1_555 1_555
H7 C15 1_555 1_555
N3 C16 1_555 1_555
C16 C6 1_555 1_555
C17 C5 1_555 1_555
H8 C17 1_555 1_555
C18 C1 1_555 1_555
H9 C18 1_555 1_555
C19 C18 1_555 1_555
H10 C19 1_555 1_555
C20 C7 1_555 1_555
H11 C20 1_555 1_555
C21 C19 1_555 1_555
H12 C21 1_555 1_555
H13 N2 1_555 1_555
H14 N3 1_555 1_555
H15 N3 1_555 1_555
H16 N2 1_555 1_555
H19 N1 1_555 1_555
H20 O1 1_555 1_555
Yb1C O5 1_555 1_555
O5C Yb1 1_555 1_555
O6C Yb1 1_555 1_555
O7C Yb1 1_555 1_555
O6 Yb1C 1_555 1_555
O7 Yb1C 1_555 1_555
C1 C10 1_555 1_555
C3 C8 1_555 1_555
C5 C12 1_555 1_555
C6 C9 1_555 1_555
C11 C13 1_555 1_555
C14 C15 1_555 1_555
C16 C17 1_555 1_555
C20 C21 1_555 1_555

#END
