
#######################################################################
#
#                 Cambridge Crystallographic Data Centre
#                                CCDC 
#
#######################################################################
#
# If this CIF has been generated from an entry in the Cambridge 
# Structural Database, then it will include bibliographic, chemical, 
# crystal, experimental, refinement or atomic coordinate data resulting 
# from the CCDC's data processing and validation procedures.
#
#######################################################################

data_DEFHUR
_symmetry_cell_setting           monoclinic
_symmetry_space_group_name_H-M   'P 21/c'
_symmetry_Int_Tables_number      14
_space_group_name_Hall           '-P 2ybc'
loop_
_symmetry_equiv_pos_site_id
_symmetry_equiv_pos_as_xyz
1 x,y,z
2 -x,1/2+y,1/2-z
3 -x,-y,-z
4 x,1/2-y,1/2+z
_cell_length_a                   3.933(1)
_cell_length_b                   22.418(5)
_cell_length_c                   9.934(2)
_cell_angle_alpha                90
_cell_angle_beta                 112.81(4)
_cell_angle_gamma                90
_cell_volume                     807.383
loop_
_atom_site_label
_atom_site_type_symbol
_atom_site_fract_x
_atom_site_fract_y
_atom_site_fract_z
Cd1 Cd -0.09703(18) 0.04432(3) 0.15706(6)
Cl1 Cl -0.2063(6) -0.0648(1) 0.0433(2)
Cl2 Cl -0.4290(6) 0.0160(1) 0.3323(2)
S1 S -0.0520(8) 0.1574(1) 0.2217(2)
S2 S 0.0482(9) 0.2279(1) 0.4876(3)
N1 N 0.2824(25) 0.1213(3) 0.5018(8)
C1 C 0.1081(27) 0.1625(4) 0.4043(9)
C2 C 0.3606(30) 0.2017(4) 0.6664(9)
C3 C 0.3460(30) 0.1345(4) 0.6528(10)
H1 H 0.366 0.083 0.473
H2 H 0.275 0.215 0.744
H3 H 0.617 0.217 0.690
H4 H 0.140 0.118 0.677
H5 H 0.585 0.117 0.720
Cl1B Cl -0.7937(6) 0.0648(1) -0.0433(2)
Cl1B_2 Cl 0.2063(6) 0.0648(1) -0.0433(2)
Cl2_2 Cl 0.5710(6) 0.0160(1) 0.3323(2)
Cd1B Cd -0.90297(18) -0.04432(3) -0.15706(6)
Cd1B_2 Cd 0.09703(18) -0.04432(3) -0.15706(6)
Cd1_2 Cd -1.09703(18) 0.04432(3) 0.15706(6)
loop_
_geom_bond_atom_site_label_1
_geom_bond_atom_site_label_2
_geom_bond_site_symmetry_1
_geom_bond_site_symmetry_2
Cd1 Cl1 1_555 1_555
Cl1 Cd1B 1_555 1_555
Cl2 Cd1 1_555 1_555
S1 Cd1 1_555 1_555
S2 C1 1_555 1_555
N1 C1 1_555 1_555
C1 S1 1_555 1_555
C2 S2 1_555 1_555
C3 N1 1_555 1_555
H1 N1 1_555 1_555
H2 C2 1_555 1_555
H3 C2 1_555 1_555
H4 C3 1_555 1_555
H5 C3 1_555 1_555
Cl1B Cd1 1_555 1_555
Cl1B_2 Cd1 1_555 1_555
Cl2_2 Cd1 1_555 1_555
Cd1B Cl1B 1_555 1_555
Cd1B_2 Cl1 1_555 1_555
Cd1_2 Cl2 1_555 1_555
C2 C3 1_555 1_555
Cl1B Cd1_2 1_555 1_555
Cl1B_2 Cd1B_2 1_555 1_555

#END
