
#######################################################################
#
#                 Cambridge Crystallographic Data Centre
#                                CCDC 
#
#######################################################################
#
# If this CIF has been generated from an entry in the Cambridge 
# Structural Database, then it will include bibliographic, chemical, 
# crystal, experimental, refinement or atomic coordinate data resulting 
# from the CCDC's data processing and validation procedures.
#
#######################################################################

data_DEFLAD
_symmetry_cell_setting           monoclinic
_symmetry_space_group_name_H-M   'C 2/c'
_symmetry_Int_Tables_number      15
_space_group_name_Hall           '-C 2yn'
loop_
_symmetry_equiv_pos_site_id
_symmetry_equiv_pos_as_xyz
1 x,y,z
2 -x,y,1/2-z
3 1/2+x,1/2+y,z
4 1/2-x,1/2+y,1/2-z
5 -x,-y,-z
6 x,-y,1/2+z
7 1/2-x,1/2-y,-z
8 1/2+x,1/2-y,1/2+z
_cell_length_a                   29.502(3)
_cell_length_b                   15.9006(10)
_cell_length_c                   10.0813(8)
_cell_angle_alpha                90
_cell_angle_beta                 102.716(9)
_cell_angle_gamma                90
_cell_volume                     4613.14
loop_
_atom_site_label
_atom_site_type_symbol
_atom_site_fract_x
_atom_site_fract_y
_atom_site_fract_z
Tb1 Tb 0.0000 0.95075(3) 0.2500
O1 O 0.04831(19) 0.9558(3) 0.4552(6)
O2 O -0.0304(2) 0.8145(3) 0.2960(6)
O3 O 0.06366(19) 1.0191(3) 0.6572(6)
O4 O 0.0000 1.0985(5) 0.2500
N1 N 0.2631(2) 0.8577(4) 0.6566(8)
N2 N 0.3383(3) 0.8631(5) 0.5840(11)
N3 N 0.3171(3) 0.7841(4) 0.8235(10)
N4 N 0.0000 0.4155(5) 0.2500
N5 N -0.0316(3) 0.3029(3) 0.3476(8)
C1 C 0.0748(3) 0.9748(4) 0.5638(9)
C2 C 0.1237(3) 0.9430(4) 0.5882(9)
C3 C 0.1530(3) 0.9493(4) 0.7139(9)
H1 H 0.1422 0.9731 0.7855
C4 C 0.1985(3) 0.9206(5) 0.7356(9)
H2 H 0.2176 0.9248 0.8220
C5 C 0.2158(3) 0.8864(4) 0.6327(9)
C6 C 0.1865(3) 0.8783(4) 0.5060(9)
H3 H 0.1975 0.8551 0.4344
C7 C 0.1407(3) 0.9050(4) 0.4858(9)
H4 H 0.1210 0.8971 0.4011
C8 C 0.2943(3) 0.8987(5) 0.5943(10)
C9 C 0.2803(3) 0.9713(4) 0.5381(9)
H5 H 0.2524 0.9949 0.5476
C10 C 0.3073(4) 1.0106(6) 0.4665(12)
H6 H 0.2965 1.0613 0.4256
C11 C 0.3480(4) 0.9835(7) 0.4488(13)
H7 H 0.3647 1.0137 0.3965
C12 C 0.3649(4) 0.9083(7) 0.5114(13)
H8 H 0.3939 0.8885 0.5046
C13 C 0.2747(3) 0.7852(4) 0.7401(10)
C14 C 0.2431(4) 0.7196(5) 0.7316(11)
H9 H 0.2139 0.7236 0.6736
C15 C 0.2551(4) 0.6502(6) 0.8081(13)
H10 H 0.2342 0.6061 0.8048
C16 C 0.2985(5) 0.6455(6) 0.8906(12)
H11 H 0.3076 0.5975 0.9421
C17 C 0.3284(5) 0.7118(7) 0.8971(12)
H12 H 0.3578 0.7075 0.9540
C18 C 0.0000 0.7754(6) 0.2500
C19 C 0.0000 0.6805(6) 0.2500
C20 C -0.0288(3) 0.6360(4) 0.3162(11)
H13 H -0.0485 0.6648 0.3605
C21 C -0.0284(4) 0.5488(4) 0.3171(11)
H14 H -0.0475 0.5195 0.3633
C22 C 0.0000 0.5057(6) 0.2500
C23 C -0.0402(3) 0.3689(4) 0.2621(10)
C24 C -0.0836(4) 0.3873(5) 0.1880(13)
H15 H -0.0882 0.4338 0.1306
C25 C -0.1203(4) 0.3376(6) 0.1983(13)
H16 H -0.1502 0.3500 0.1495
C26 C -0.1122(4) 0.2686(5) 0.2825(12)
H17 H -0.1362 0.2324 0.2900
C27 C -0.0681(3) 0.2547(4) 0.3545(11)
H18 H -0.0631 0.2084 0.4124
Tb1D Tb 0.0000 1.04925(3) 0.7500
O1D O -0.04831(19) 1.0442(3) 0.5448(6)
O1A O -0.04831(19) 0.9558(3) 0.0448(6)
O2A O 0.0304(2) 0.8145(3) 0.2040(6)
O3D O -0.06366(19) 0.9809(3) 0.3428(6)
O3E O 0.06366(19) 0.9809(3) 0.1572(6)
N1D N -0.2631(2) 1.1423(4) 0.3434(8)
N2D N -0.3383(3) 1.1369(5) 0.4160(11)
N3D N -0.3171(3) 1.2159(4) 0.1765(10)
N5A N 0.0316(3) 0.3029(3) 0.1524(8)
C1D C -0.0748(3) 1.0252(4) 0.4362(9)
C2D C -0.1237(3) 1.0570(4) 0.4118(9)
C3D C -0.1530(3) 1.0507(4) 0.2861(9)
H1D H -0.1422 1.0269 0.2145
C4D C -0.1985(3) 1.0794(5) 0.2644(9)
H2D H -0.2176 1.0752 0.1780
C5D C -0.2158(3) 1.1136(4) 0.3673(9)
C6D C -0.1865(3) 1.1217(4) 0.4940(9)
H3D H -0.1975 1.1449 0.5656
C7D C -0.1407(3) 1.0950(4) 0.5142(9)
H4D H -0.1210 1.1029 0.5989
C8D C -0.2943(3) 1.1013(5) 0.4057(10)
C9D C -0.2803(3) 1.0287(4) 0.4619(9)
H5D H -0.2524 1.0051 0.4524
C10D C -0.3073(4) 0.9894(6) 0.5335(12)
H6D H -0.2965 0.9387 0.5744
C11D C -0.3480(4) 1.0165(7) 0.5512(13)
H7D H -0.3647 0.9863 0.6035
C12D C -0.3649(4) 1.0917(7) 0.4886(13)
H8D H -0.3939 1.1115 0.4954
C13D C -0.2747(3) 1.2148(4) 0.2599(10)
C14D C -0.2431(4) 1.2804(5) 0.2684(11)
H9D H -0.2139 1.2764 0.3264
C15D C -0.2551(4) 1.3498(6) 0.1919(13)
H10D H -0.2342 1.3939 0.1952
C16D C -0.2985(5) 1.3545(6) 0.1094(12)
H11D H -0.3076 1.4025 0.0579
C17D C -0.3284(5) 1.2882(7) 0.1029(12)
H12D H -0.3578 1.2925 0.0460
C20A C 0.0288(3) 0.6360(4) 0.1838(11)
H13A H 0.0485 0.6648 0.1395
C21A C 0.0284(4) 0.5488(4) 0.1829(11)
H14A H 0.0475 0.5195 0.1367
C23A C 0.0402(3) 0.3689(4) 0.2379(10)
C24A C 0.0836(4) 0.3873(5) 0.3120(13)
H15A H 0.0882 0.4338 0.3694
C25A C 0.1203(4) 0.3376(6) 0.3017(13)
H16A H 0.1502 0.3500 0.3505
C26A C 0.1122(4) 0.2686(5) 0.2175(12)
H17A H 0.1362 0.2324 0.2100
C27A C 0.0681(3) 0.2547(4) 0.1455(11)
H18A H 0.0631 0.2084 0.0876
O5 O 0.0484(3) 1.1979(3) 0.4442(7)
loop_
_geom_bond_atom_site_label_1
_geom_bond_atom_site_label_2
_geom_bond_site_symmetry_1
_geom_bond_site_symmetry_2
Tb1 O1 1_555 1_555
O1 C1 1_555 1_555
O2 Tb1 1_555 1_555
O3 C1 1_555 1_555
O4 Tb1 1_555 1_555
N1 C5 1_555 1_555
N2 C8 1_555 1_555
N3 C13 1_555 1_555
N4 C22 1_555 1_555
N5 C23 1_555 1_555
C1 C2 1_555 1_555
C2 C3 1_555 1_555
C3 H1 1_555 1_555
C4 C3 1_555 1_555
H2 C4 1_555 1_555
C5 C4 1_555 1_555
C6 C5 1_555 1_555
H3 C6 1_555 1_555
C7 C2 1_555 1_555
H4 C7 1_555 1_555
C8 N1 1_555 1_555
C9 C8 1_555 1_555
H5 C9 1_555 1_555
C10 C9 1_555 1_555
H6 C10 1_555 1_555
C11 C10 1_555 1_555
H7 C11 1_555 1_555
C12 N2 1_555 1_555
H8 C12 1_555 1_555
C13 N1 1_555 1_555
C14 C13 1_555 1_555
H9 C14 1_555 1_555
C15 C14 1_555 1_555
H10 C15 1_555 1_555
C16 C15 1_555 1_555
H11 C16 1_555 1_555
C17 N3 1_555 1_555
H12 C17 1_555 1_555
C18 O2 1_555 1_555
C19 C18 1_555 1_555
C20 C19 1_555 1_555
H13 C20 1_555 1_555
C21 C20 1_555 1_555
H14 C21 1_555 1_555
C22 C21 1_555 1_555
C23 N4 1_555 1_555
C24 C23 1_555 1_555
H15 C24 1_555 1_555
C25 C24 1_555 1_555
H16 C25 1_555 1_555
C26 C25 1_555 1_555
H17 C26 1_555 1_555
C27 N5 1_555 1_555
H18 C27 1_555 1_555
Tb1D O3 1_555 1_555
O1D Tb1D 1_555 1_555
O1A Tb1 1_555 1_555
O2A Tb1 1_555 1_555
O3D Tb1 1_555 1_555
O3E Tb1 1_555 1_555
N1D C5D 1_555 1_555
N2D C8D 1_555 1_555
N3D C13D 1_555 1_555
N5A C23A 1_555 1_555
C1D O1D 1_555 1_555
C2D C1D 1_555 1_555
C3D C2D 1_555 1_555
H1D C3D 1_555 1_555
C4D C3D 1_555 1_555
H2D C4D 1_555 1_555
C5D C4D 1_555 1_555
C6D C5D 1_555 1_555
H3D C6D 1_555 1_555
C7D C2D 1_555 1_555
H4D C7D 1_555 1_555
C8D N1D 1_555 1_555
C9D C8D 1_555 1_555
H5D C9D 1_555 1_555
C10D C9D 1_555 1_555
H6D C10D 1_555 1_555
C11D C10D 1_555 1_555
H7D C11D 1_555 1_555
C12D N2D 1_555 1_555
H8D C12D 1_555 1_555
C13D N1D 1_555 1_555
C14D C13D 1_555 1_555
H9D C14D 1_555 1_555
C15D C14D 1_555 1_555
H10D C15D 1_555 1_555
C16D C15D 1_555 1_555
H11D C16D 1_555 1_555
C17D N3D 1_555 1_555
H12D C17D 1_555 1_555
C20A C19 1_555 1_555
H13A C20A 1_555 1_555
C21A C22 1_555 1_555
H14A C21A 1_555 1_555
C23A N4 1_555 1_555
C24A C23A 1_555 1_555
H15A C24A 1_555 1_555
C25A C24A 1_555 1_555
H16A C25A 1_555 1_555
C26A C25A 1_555 1_555
H17A C26A 1_555 1_555
C27A N5A 1_555 1_555
H18A C27A 1_555 1_555
C6 C7 1_555 1_555
C11 C12 1_555 1_555
C16 C17 1_555 1_555
C18 O2A 1_555 1_555
C26 C27 1_555 1_555
O3D C1D 1_555 1_555
C6D C7D 1_555 1_555
C11D C12D 1_555 1_555
C16D C17D 1_555 1_555
C20A C21A 1_555 1_555
C26A C27A 1_555 1_555

#END
