
#######################################################################
#
#                 Cambridge Crystallographic Data Centre
#                                CCDC 
#
#######################################################################
#
# If this CIF has been generated from an entry in the Cambridge 
# Structural Database, then it will include bibliographic, chemical, 
# crystal, experimental, refinement or atomic coordinate data resulting 
# from the CCDC's data processing and validation procedures.
#
#######################################################################

data_DEFROX
_symmetry_cell_setting           triclinic
_symmetry_space_group_name_H-M   'P -1'
_symmetry_Int_Tables_number      2
_space_group_name_Hall           '-P 1'
loop_
_symmetry_equiv_pos_site_id
_symmetry_equiv_pos_as_xyz
1 x,y,z
2 -x,-y,-z
_cell_length_a                   10.1677(16)
_cell_length_b                   10.8380(16)
_cell_length_c                   12.8914(19)
_cell_angle_alpha                70.843(2)
_cell_angle_beta                 80.001(2)
_cell_angle_gamma                83.8330(10)
_cell_volume                     1319.6
loop_
_atom_site_label
_atom_site_type_symbol
_atom_site_fract_x
_atom_site_fract_y
_atom_site_fract_z
Dy1 Dy 0.049463(19) 0.390075(19) 0.328113(15)
O1 O 0.2149(4) 0.5045(4) 0.1818(3)
O2 O 0.2886(5) 0.3776(5) 0.3344(4)
H1 H 0.3104 0.4076 0.3793
O3 O 0.8131(6) 0.3548(8) 0.3215(6)
O4 O 0.9133(5) 0.5108(6) 0.1949(5)
O5 O 0.1011(6) 0.2658(4) 0.1986(4)
O6 O 0.0758(6) 0.1564(4) 0.3752(4)
O7 O 0.0146(6) -0.3193(4) 0.4868(3)
O8 O 0.0469(10) -0.4205(6) 0.3634(5)
C1 C 0.4479(5) 0.5068(6) 0.1873(5)
C2 C 0.5604(6) 0.4550(6) 0.2397(5)
H2 H 0.5518 0.3901 0.3084
C3 C 0.6826(5) 0.5009(6) 0.1888(5)
C4 C 0.6970(6) 0.5984(7) 0.0868(5)
H3 H 0.7813 0.6285 0.0539
C5 C 0.5856(6) 0.6524(6) 0.0322(5)
C6 C 0.4607(6) 0.6027(6) 0.0839(5)
H4 H 0.3857 0.6341 0.0488
C7 C 0.3103(5) 0.4609(5) 0.2361(5)
C8 C 0.8085(5) 0.4516(6) 0.2410(5)
C9 C 0.4953(7) 0.8161(8) -0.1259(6)
H5 H 0.4185 0.8304 -0.0741
H6 H 0.4707 0.7583 -0.1622
C10 C 0.5327(6) 0.9446(7) -0.2113(5)
C11 C 0.5572(7) 0.9598(7) -0.3239(5)
H7 H 0.5537 0.8861 -0.3450
C12 C 0.5930(9) 1.1768(9) -0.3700(9)
H8 H 0.6134 1.2562 -0.4242
C13 C 0.5733(8) 1.1736(8) -0.2641(8)
H9 H 0.5789 1.2487 -0.2455
C14 C 0.5442(7) 1.0557(8) -0.1827(7)
H10 H 0.5323 1.0506 -0.1083
C15 C 0.1060(5) 0.0339(5) 0.2488(4)
C16 C 0.0848(6) -0.0830(5) 0.3323(4)
H11 H 0.0711 -0.0869 0.4065
C17 C 0.0844(6) -0.1971(5) 0.3019(4)
C18 C 0.1138(5) -0.1924(5) 0.1924(4)
H12 H 0.1149 -0.2686 0.1741
C19 C 0.1420(5) -0.0740(5) 0.1084(5)
C20 C 0.1351(5) 0.0402(5) 0.1370(4)
H13 H 0.1498 0.1203 0.0820
C21 C 0.0939(5) 0.1583(6) 0.2762(5)
C22 C 0.0479(7) -0.3220(6) 0.3919(5)
C23 C 0.1899(6) 0.0517(6) -0.0891(5)
H14 H 0.2636 0.0951 -0.0798
H15 H 0.1091 0.1063 -0.0812
C24 C 0.2138(6) 0.0416(7) -0.2043(5)
C25 C 0.2086(6) -0.0740(9) -0.2283(6)
H16 H 0.1949 -0.1508 -0.1692
C26 C 0.2459(9) 0.0287(9) -0.4173(9)
H17 H 0.2559 0.0243 -0.4891
C27 C 0.2553(8) 0.1395(8) -0.4034(9)
H18 H 0.2732 0.2128 -0.4653
C28 C 0.2386(8) 0.1530(10) -0.2932(6)
H19 H 0.2444 0.2334 -0.2832
N1 N 0.6052(5) 0.7552(6) -0.0660(5)
H20 H 0.6846 0.7816 -0.0923
N2 N 0.5854(8) 1.0719(8) -0.4042(6)
N3 N 0.1765(6) -0.0730(5) -0.0012(4)
H21 H 0.1890 -0.1449 -0.0170
N4 N 0.2221(7) -0.0809(10) -0.3312(6)
Dy1A Dy -0.049463(19) -0.390075(19) 0.671887(15)
Dy1_2 Dy 0.049463(19) -0.609925(19) 0.328113(15)
Dy1_3 Dy 1.049463(19) 0.390075(19) 0.328113(15)
O3_2 O -0.1869(6) 0.3548(8) 0.3215(6)
O4_2 O -0.0867(5) 0.5108(6) 0.1949(5)
O7A O -0.0146(6) 0.3193(4) 0.5132(3)
O8_2 O 0.0469(10) 0.5795(6) 0.3634(5)
O9 O 0.9107(9) 0.3203(7) 0.0229(5)
H22 H 0.9543 0.3659 -0.0375
H23 H 0.9597 0.3030 0.0736
O10 O 0.6414(11) 0.5377(12) 0.4839(8)
H24 H 0.5603 0.5176 0.4964
H25 H 0.6569 0.5610 0.5372
loop_
_geom_bond_atom_site_label_1
_geom_bond_atom_site_label_2
_geom_bond_site_symmetry_1
_geom_bond_site_symmetry_2
Dy1 O1 1_555 1_555
O1 C7 1_555 1_555
O2 Dy1 1_555 1_555
H1 O2 1_555 1_555
O3 C8 1_555 1_555
O4 C8 1_555 1_555
O5 Dy1 1_555 1_555
O6 Dy1 1_555 1_555
O7 C22 1_555 1_555
O8 C22 1_555 1_555
C1 C2 1_555 1_555
C2 H2 1_555 1_555
C3 C2 1_555 1_555
C4 C3 1_555 1_555
H3 C4 1_555 1_555
C5 C4 1_555 1_555
C6 C1 1_555 1_555
H4 C6 1_555 1_555
C7 O2 1_555 1_555
C8 C3 1_555 1_555
C9 H5 1_555 1_555
H6 C9 1_555 1_555
C10 C9 1_555 1_555
C11 C10 1_555 1_555
H7 C11 1_555 1_555
C12 H8 1_555 1_555
C13 C12 1_555 1_555
H9 C13 1_555 1_555
C14 C10 1_555 1_555
H10 C14 1_555 1_555
C15 C16 1_555 1_555
C16 H11 1_555 1_555
C17 C16 1_555 1_555
C18 C17 1_555 1_555
H12 C18 1_555 1_555
C19 C18 1_555 1_555
C20 C15 1_555 1_555
H13 C20 1_555 1_555
C21 O5 1_555 1_555
C22 C17 1_555 1_555
C23 H14 1_555 1_555
H15 C23 1_555 1_555
C24 C23 1_555 1_555
C25 C24 1_555 1_555
H16 C25 1_555 1_555
C26 H17 1_555 1_555
C27 C26 1_555 1_555
H18 C27 1_555 1_555
C28 C24 1_555 1_555
H19 C28 1_555 1_555
N1 C5 1_555 1_555
H20 N1 1_555 1_555
N2 C11 1_555 1_555
N3 C19 1_555 1_555
H21 N3 1_555 1_555
N4 C25 1_555 1_555
O9 H22 1_555 1_555
H23 O9 1_555 1_555
O10 H24 1_555 1_555
H25 O10 1_555 1_555
Dy1A O7 1_555 1_555
Dy1_2 O8 1_555 1_555
Dy1_3 O3 1_555 1_555
O3_2 Dy1 1_555 1_555
O4_2 Dy1 1_555 1_555
O7A Dy1 1_555 1_555
O8_2 Dy1 1_555 1_555
O4 Dy1_3 1_555 1_555
O6 C21 1_555 1_555
C1 C7 1_555 1_555
C5 C6 1_555 1_555
C9 N1 1_555 1_555
C12 N2 1_555 1_555
C13 C14 1_555 1_555
C15 C21 1_555 1_555
C19 C20 1_555 1_555
C23 N3 1_555 1_555
C26 N4 1_555 1_555
C27 C28 1_555 1_555

#END
