
#######################################################################
#
#                 Cambridge Crystallographic Data Centre
#                                CCDC 
#
#######################################################################
#
# If this CIF has been generated from an entry in the Cambridge 
# Structural Database, then it will include bibliographic, chemical, 
# crystal, experimental, refinement or atomic coordinate data resulting 
# from the CCDC's data processing and validation procedures.
#
#######################################################################

data_DEFRIR
_symmetry_cell_setting           monoclinic
_symmetry_space_group_name_H-M   'P 21/c'
_symmetry_Int_Tables_number      14
_space_group_name_Hall           '-P 2ybc'
loop_
_symmetry_equiv_pos_site_id
_symmetry_equiv_pos_as_xyz
1 x,y,z
2 -x,1/2+y,1/2-z
3 -x,-y,-z
4 x,1/2-y,1/2+z
_cell_length_a                   17.668(2)
_cell_length_b                   20.005(3)
_cell_length_c                   10.5382(15)
_cell_angle_alpha                90
_cell_angle_beta                 91.205(2)
_cell_angle_gamma                90
_cell_volume                     3723.89
loop_
_atom_site_label
_atom_site_type_symbol
_atom_site_fract_x
_atom_site_fract_y
_atom_site_fract_z
C1 C 0.3846(2) 0.7047(2) 1.0838(4)
C2 C 0.3102(2) 0.6695(2) 1.0607(4)
C3 C 0.2849(3) 0.6563(2) 0.9376(4)
H1 H 0.3128 0.6721 0.8675
C4 C 0.2188(3) 0.6199(2) 0.9169(4)
H2 H 0.2017 0.6107 0.8327
C5 C 0.1774(2) 0.5968(2) 1.0194(4)
C6 C 0.2016(3) 0.6121(3) 1.1410(5)
H3 H 0.1724 0.5981 1.2110
C7 C 0.2683(3) 0.6478(3) 1.1627(4)
H4 H 0.2851 0.6572 1.2470
C8 C 0.1069(2) 0.5560(2) 0.9942(4)
C9 C 0.5907(3) 0.6099(3) 0.9768(5)
H5 H 0.6077 0.6440 1.0332
C10 C 0.6703(4) 0.5337(4) 1.0989(7)
H6 H 0.6811 0.5746 1.1473
H7 H 0.7173 0.5164 1.0639
H8 H 0.6483 0.5002 1.1549
C11 C 0.5936(5) 0.4939(3) 0.9151(8)
H9 H 0.5696 0.4593 0.9663
H10 H 0.6379 0.4751 0.8736
H11 H 0.5574 0.5101 0.8504
C12 C 0.6139(2) 0.7036(2) 0.5595(4)
C13 C 0.7164(2) 0.6497(2) 0.4324(4)
H12 H 0.6985 0.6739 0.3603
C14 C 0.7045(2) 0.6185(2) 0.6509(4)
H13 H 0.6781 0.6206 0.7284
C15 C 0.4262(3) 0.6042(3) 0.6529(5)
H14 H 0.4739 0.5825 0.6491
C16 C 0.2981(4) 0.6151(4) 0.5740(7)
H15 H 0.2973 0.6503 0.6386
H16 H 0.2571 0.5833 0.5889
H17 H 0.2913 0.6351 0.4897
C17 C 0.3804(4) 0.5257(3) 0.4909(6)
H18 H 0.4305 0.5057 0.5049
H19 H 0.3763 0.5429 0.4040
H20 H 0.3414 0.4917 0.5036
C18 C 0.1264(3) 0.3842(3) 0.9216(5)
H21 H 0.1222 0.4176 0.9851
C19 C 0.2080(4) 0.3239(4) 1.0712(6)
H22 H 0.1968 0.3625 1.1249
H23 H 0.2627 0.3208 1.0594
H24 H 0.1900 0.2830 1.1120
C20 C 0.1806(4) 0.2789(3) 0.8600(6)
H25 H 0.1528 0.2889 0.7808
H26 H 0.1617 0.2370 0.8958
H27 H 0.2346 0.2744 0.8428
C21 C -0.0171(3) 0.3291(3) 0.6111(5)
H28 H 0.0362 0.3234 0.6095
C22 C -0.1329(6) 0.2956(5) 0.5303(10)
H29 H -0.1480 0.3365 0.5743
H30 H -0.1627 0.2578 0.5611
H31 H -0.1420 0.3010 0.4388
C23 C -0.0271(4) 0.2242(3) 0.4946(8)
H32 H 0.0270 0.2203 0.5154
H33 H -0.0343 0.2273 0.4024
H34 H -0.0537 0.1847 0.5260
C24 C 0.8766(2) 0.5315(2) 0.5207(4)
C25 C 0.7678(2) 0.5779(2) 0.6417(4)
H35 H 0.7852 0.5533 0.7138
C26 C 0.6793(2) 0.6561(2) 0.5472(4)
C27 C 0.7792(2) 0.6083(2) 0.4222(4)
H36 H 0.8040 0.6041 0.3435
C28 C 0.8057(2) 0.5727(2) 0.5290(4)
Gd1 Gd 0.499875(11) 0.734432(11) 0.82210(2)
Gd2 Gd 0.008053(11) 0.481895(11) 0.746173(19)
N1 N 0.6170(3) 0.5488(2) 0.9959(5)
N2 N 0.3700(2) 0.5806(2) 0.5809(4)
N3 N 0.5246(3) 0.8792(2) 0.8126(5)
N4 N 0.1698(2) 0.3318(2) 0.9482(4)
N5 N -0.0571(3) 0.2836(2) 0.5538(5)
N6 N -0.0249(4) 0.6251(2) 0.7379(5)
O1 O 0.41999(17) 0.72466(17) 0.9894(3)
O2 O 0.4843(2) 0.85442(17) 0.8971(3)
O3 O 0.55887(19) 0.83839(17) 0.7413(3)
O4 O 0.5456(2) 0.62579(17) 0.8909(3)
O5 O 0.42057(19) 0.65256(19) 0.7244(3)
O6 O 0.59964(17) 0.74219(15) 0.4664(3)
O7 O 0.57898(18) 0.70285(17) 0.6607(3)
O8 O 0.40619(19) 0.71137(19) 1.1967(3)
O9 O 0.09684(18) 0.53301(17) 0.8847(3)
O10 O -0.0518(2) 0.58819(19) 0.8215(4)
O11 O 0.0220(2) 0.59848(19) 0.6630(4)
O12 O 0.09164(19) 0.39285(17) 0.8227(3)
O13 O -0.03924(19) 0.37785(17) 0.6663(4)
O14 O 0.89998(17) 0.50339(17) 0.6197(3)
O15 O 0.90862(18) 0.52883(18) 0.4159(3)
O16 O 0.06356(18) 0.54729(19) 1.0842(3)
O17 O 0.5301(3) 0.9399(2) 0.7969(5)
O18 O -0.0417(4) 0.6837(2) 0.7295(6)
Gd1C Gd 0.499875(11) 0.765568(11) 0.32210(2)
Gd1C_2 Gd 0.499875(11) 0.765568(11) 1.32210(2)
Gd2_2 Gd 1.008053(11) 0.481895(11) 0.746173(19)
Gd2B Gd 0.991947(11) 0.518105(11) 0.253827(19)
Gd2B_2 Gd -0.008053(11) 0.518105(11) 1.253827(19)
O6C O 0.59964(17) 0.75781(15) 0.9664(3)
O8C O 0.40619(19) 0.78863(19) 0.6967(3)
O14_2 O -0.10002(17) 0.50339(17) 0.6197(3)
O15B O 0.09138(18) 0.47117(18) 0.5841(3)
O16B O -0.06356(18) 0.45271(19) 0.9158(3)
loop_
_geom_bond_atom_site_label_1
_geom_bond_atom_site_label_2
_geom_bond_site_symmetry_1
_geom_bond_site_symmetry_2
C1 C2 1_555 1_555
C2 C3 1_555 1_555
C3 H1 1_555 1_555
C4 C3 1_555 1_555
H2 C4 1_555 1_555
C5 C4 1_555 1_555
C6 C5 1_555 1_555
H3 C6 1_555 1_555
C7 C2 1_555 1_555
H4 C7 1_555 1_555
C8 C5 1_555 1_555
C9 H5 1_555 1_555
C10 H6 1_555 1_555
H7 C10 1_555 1_555
H8 C10 1_555 1_555
C11 H9 1_555 1_555
H10 C11 1_555 1_555
H11 C11 1_555 1_555
C12 C26 1_555 1_555
C13 H12 1_555 1_555
C14 H13 1_555 1_555
C15 H14 1_555 1_555
C16 H15 1_555 1_555
H16 C16 1_555 1_555
H17 C16 1_555 1_555
C17 H18 1_555 1_555
H19 C17 1_555 1_555
H20 C17 1_555 1_555
C18 H21 1_555 1_555
C19 H22 1_555 1_555
H23 C19 1_555 1_555
H24 C19 1_555 1_555
C20 H25 1_555 1_555
H26 C20 1_555 1_555
H27 C20 1_555 1_555
C21 H28 1_555 1_555
C22 H29 1_555 1_555
H30 C22 1_555 1_555
H31 C22 1_555 1_555
C23 H32 1_555 1_555
H33 C23 1_555 1_555
H34 C23 1_555 1_555
C24 C28 1_555 1_555
C25 C14 1_555 1_555
H35 C25 1_555 1_555
C26 C13 1_555 1_555
C27 C13 1_555 1_555
H36 C27 1_555 1_555
C28 C25 1_555 1_555
Gd1 O1 1_555 1_555
Gd2 O9 1_555 1_555
N1 C9 1_555 1_555
N2 C15 1_555 1_555
N3 O2 1_555 1_555
N4 C18 1_555 1_555
N5 C21 1_555 1_555
N6 O10 1_555 1_555
O1 C1 1_555 1_555
O2 Gd1 1_555 1_555
O3 Gd1 1_555 1_555
O4 C9 1_555 1_555
O5 C15 1_555 1_555
O6 C12 1_555 1_555
O7 C12 1_555 1_555
O8 C1 1_555 1_555
O9 C8 1_555 1_555
O10 Gd2 1_555 1_555
O11 Gd2 1_555 1_555
O12 C18 1_555 1_555
O13 C21 1_555 1_555
O14 C24 1_555 1_555
O15 C24 1_555 1_555
O16 C8 1_555 1_555
O17 N3 1_555 1_555
O18 N6 1_555 1_555
Gd1C O6 1_555 1_555
Gd1C_2 O8 1_555 1_555
Gd2_2 O14 1_555 1_555
Gd2B O15 1_555 1_555
Gd2B_2 O16 1_555 1_555
O6C Gd1 1_555 1_555
O8C Gd1 1_555 1_555
O14_2 Gd2 1_555 1_555
O15B Gd2 1_555 1_555
O16B Gd2 1_555 1_555
C6 C7 1_555 1_555
C10 N1 1_555 1_555
C11 N1 1_555 1_555
C14 C26 1_555 1_555
C16 N2 1_555 1_555
C17 N2 1_555 1_555
C19 N4 1_555 1_555
C20 N4 1_555 1_555
C22 N5 1_555 1_555
C23 N5 1_555 1_555
C27 C28 1_555 1_555
Gd1 O4 1_555 1_555
Gd1 O5 1_555 1_555
Gd1 O7 1_555 1_555
Gd2 O12 1_555 1_555
Gd2 O13 1_555 1_555
N3 O3 1_555 1_555
N6 O11 1_555 1_555

#END
