
#######################################################################
#
#                 Cambridge Crystallographic Data Centre
#                                CCDC 
#
#######################################################################
#
# If this CIF has been generated from an entry in the Cambridge 
# Structural Database, then it will include bibliographic, chemical, 
# crystal, experimental, refinement or atomic coordinate data resulting 
# from the CCDC's data processing and validation procedures.
#
#######################################################################

data_DEFTAK
_symmetry_cell_setting           triclinic
_symmetry_space_group_name_H-M   'P -1'
_symmetry_Int_Tables_number      2
_space_group_name_Hall           '-P 1'
loop_
_symmetry_equiv_pos_site_id
_symmetry_equiv_pos_as_xyz
1 x,y,z
2 -x,-y,-z
_cell_length_a                   12.8689(18)
_cell_length_b                   17.062(2)
_cell_length_c                   18.273(2)
_cell_angle_alpha                89.114(3)
_cell_angle_beta                 74.763(3)
_cell_angle_gamma                83.617(3)
_cell_volume                     3846.75
loop_
_atom_site_label
_atom_site_type_symbol
_atom_site_fract_x
_atom_site_fract_y
_atom_site_fract_z
La1 La 0.382241(14) -0.017927(11) 0.100642(10)
La2 La 0.116585(14) 0.002900(11) 0.392914(10)
S1 S -0.03835(8) 0.29232(6) 0.27333(6)
S2 S 0.47432(7) -0.31735(5) 0.21604(5)
S3 S 0.05957(8) 0.08534(7) -0.11005(6)
S4 S 0.41500(10) -0.30108(7) -0.04498(7)
S5 S 0.16602(9) 0.30274(7) 0.46309(7)
S6 S -0.43160(7) 0.06442(6) 0.39012(5)
O1 O 0.4009(2) 0.07393(16) 0.21002(14)
H1 H 0.4577 0.0732 0.2256
H2 H 0.3462 0.0841 0.2478
O2 O 0.2463(2) -0.11582(15) 0.08393(16)
H3 H 0.2444 -0.1499 0.1185
H4 H 0.1810 -0.0996 0.0850
O3 O 0.28333(18) 0.08749(14) 0.37241(14)
H5 H 0.2460 0.1274 0.3973
H6 H 0.3330 0.0713 0.3936
O4 O 0.0921(2) -0.08964(15) 0.28453(14)
H7 H 0.1517 -0.0956 0.2503
H8 H 0.0408 -0.0835 0.2630
O5 O 0.2090(2) 0.06277(16) 0.14715(14)
O6 O 0.15249(19) 0.07476(14) 0.27219(13)
O7 O -0.0615(2) 0.31712(15) 0.35169(15)
O8 O -0.1270(2) 0.29680(17) 0.23904(17)
O9 O 0.33430(19) -0.09553(14) 0.21826(13)
O10 O 0.28103(19) -0.09086(15) 0.34389(13)
O11 O 0.5322(2) -0.34466(15) 0.14055(15)
O12 O 0.5079(2) -0.35223(15) 0.27929(16)
O13 O 0.30709(19) 0.01820(16) -0.01175(14)
O14 O 0.43167(18) 0.02947(15) -0.12160(14)
O15 O -0.0427(2) 0.0792(2) -0.05708(18)
O16 O 0.0728(2) 0.06963(19) -0.18889(17)
O17 O 0.46669(19) -0.16217(13) 0.07096(13)
O18 O 0.51762(18) -0.08762(13) -0.02791(13)
O19 O 0.3617(3) -0.3602(2) 0.0010(2)
O20 O 0.3581(2) -0.22335(18) -0.04293(18)
O21 O 0.06150(19) 0.15045(13) 0.41882(13)
O22 O -0.01076(19) 0.09374(14) 0.52625(14)
O23 O 0.2260(2) 0.22721(18) 0.4672(2)
O24 O 0.1923(3) 0.3459(2) 0.39444(18)
O25 O -0.07170(18) 0.02586(14) 0.38551(13)
O26 O -0.19704(19) 0.01255(15) 0.49452(13)
O27 O -0.5385(2) 0.04703(17) 0.43059(16)
O28 O -0.4040(2) 0.06608(18) 0.30936(15)
N1 N 0.0196(3) 0.20392(17) 0.26859(17)
H9 H 0.0229 0.1803 0.3100
N2 N 0.4830(2) -0.22439(16) 0.21747(16)
H10 H 0.5146 -0.2016 0.1766
N3 N 0.1459(2) 0.0278(2) -0.08136(18)
H11 H 0.1261 0.0097 -0.0362
N4 N 0.5284(3) -0.29679(17) -0.02249(19)
H12 H 0.5553 -0.3355 0.0000
N5 N 0.0370(3) 0.29722(17) 0.48148(19)
H13 H -0.0031 0.3316 0.4632
N6 N -0.3509(2) -0.00257(19) 0.41611(17)
H14 H -0.3770 -0.0309 0.4544
C1 C 0.1490(3) 0.0946(2) 0.20709(19)
C2 C 0.0668(3) 0.1623(2) 0.1972(2)
H15 H 0.1054 0.1992 0.1612
C3 C -0.0144(5) 0.1317(3) 0.1636(4)
H16 H -0.0495 0.0924 0.1961
H17 H 0.0213 0.1089 0.1146
H18 H -0.0674 0.1743 0.1586
C4 C 0.0580(3) 0.3503(2) 0.2184(2)
C5 C 0.0312(4) 0.3995(3) 0.1640(3)
H19 H -0.0363 0.4011 0.1541
C6 C 0.1071(6) 0.4461(3) 0.1248(3)
H20 H 0.0889 0.4805 0.0890
C7 C 0.2088(5) 0.4444(3) 0.1361(3)
C8 C 0.2340(5) 0.3943(3) 0.1895(3)
H21 H 0.3021 0.3920 0.1987
C9 C 0.1591(4) 0.3471(3) 0.2300(3)
H22 H 0.1776 0.3127 0.2657
C10 C 0.2918(5) 0.4951(3) 0.0903(3)
H23 H 0.3268 0.5186 0.1235
H24 H 0.2562 0.5358 0.0658
H25 H 0.3449 0.4629 0.0527
C11 C 0.3432(2) -0.11698(18) 0.28249(19)
C12 C 0.4376(3) -0.17752(19) 0.28782(19)
H26 H 0.4117 -0.2134 0.3294
C13 C 0.5256(3) -0.1345(2) 0.3059(2)
H27 H 0.5828 -0.1723 0.3135
H28 H 0.4954 -0.1030 0.3512
H29 H 0.5542 -0.1010 0.2645
C14 C 0.3363(3) -0.3304(2) 0.2298(2)
C15 C 0.2903(4) -0.3876(3) 0.2769(3)
H30 H 0.3302 -0.4186 0.3045
C16 C 0.1828(4) -0.3982(3) 0.2827(3)
H31 H 0.1513 -0.4376 0.3138
C17 C 0.1221(4) -0.3521(3) 0.2436(3)
C18 C 0.1697(4) -0.2951(3) 0.1973(3)
H32 H 0.1292 -0.2632 0.1707
C19 C 0.2763(4) -0.2840(3) 0.1893(3)
H33 H 0.3079 -0.2456 0.1570
C20 C 0.0051(5) -0.3658(4) 0.2518(4)
H34 H -0.0134 -0.4081 0.2864
H35 H -0.0039 -0.3793 0.2032
H36 H -0.0415 -0.3186 0.2711
C21 C 0.3384(3) 0.0204(2) -0.0824(2)
C22 C 0.2571(3) 0.0034(3) -0.1263(2)
H37 H 0.2715 0.0323 -0.1740
C23 C 0.2713(4) -0.0851(3) -0.1435(3)
H38 H 0.2487 -0.1131 -0.0970
H39 H 0.3462 -0.1019 -0.1673
H40 H 0.2280 -0.0959 -0.1769
C24 C 0.0919(4) 0.1832(3) -0.1052(3)
C25 C 0.0312(5) 0.2333(4) -0.0484(3)
H41 H -0.0279 0.2167 -0.0129
C26 C 0.0588(5) 0.3097(4) -0.0443(4)
H42 H 0.0170 0.3440 -0.0060
C27 C 0.1472(5) 0.3354(3) -0.0963(4)
C28 C 0.2066(4) 0.2832(3) -0.1524(3)
H43 H 0.2663 0.2991 -0.1879
C29 C 0.1797(4) 0.2073(3) -0.1573(3)
H44 H 0.2209 0.1730 -0.1957
C30 C 0.1789(6) 0.4183(4) -0.0925(4)
H45 H 0.2151 0.4212 -0.0531
H46 H 0.1151 0.4555 -0.0819
H47 H 0.2267 0.4304 -0.1403
C31 C 0.5178(3) -0.15413(19) 0.00366(19)
C32 C 0.5842(3) -0.2252(2) -0.0414(2)
H48 H 0.5954 -0.2150 -0.0957
C33 C 0.6929(3) -0.2379(3) -0.0235(3)
H49 H 0.6824 -0.2479 0.0297
H50 H 0.7297 -0.1917 -0.0364
H51 H 0.7358 -0.2823 -0.0523
C34 C 0.4541(4) -0.3333(2) -0.1400(2)
C35 C 0.4837(4) -0.2808(3) -0.1984(3)
H52 H 0.4800 -0.2272 -0.1882
C36 C 0.5189(4) -0.3094(3) -0.2722(3)
H53 H 0.5412 -0.2745 -0.3113
C37 C 0.5218(4) -0.3877(3) -0.2897(3)
C38 C 0.4889(4) -0.4384(3) -0.2305(3)
H54 H 0.4887 -0.4915 -0.2412
C39 C 0.4562(4) -0.4125(3) -0.1562(3)
H55 H 0.4358 -0.4479 -0.1172
C40 C 0.5620(5) -0.4175(3) -0.3702(3)
H56 H 0.5590 -0.3743 -0.4041
H57 H 0.5173 -0.4560 -0.3788
H58 H 0.6355 -0.4413 -0.3791
C41 C 0.0152(3) 0.15404(19) 0.4882(2)
C42 C -0.0120(3) 0.2337(2) 0.5293(2)
H59 H 0.0146 0.2301 0.5750
C43 C -0.1350(3) 0.2544(3) 0.5527(3)
H60 H -0.1526 0.3045 0.5789
H61 H -0.1678 0.2145 0.5857
H62 H -0.1618 0.2572 0.5084
C44 C 0.1840(3) 0.3612(2) 0.5364(2)
C45 C 0.2522(3) 0.3322(2) 0.5777(3)
H63 H 0.2846 0.2804 0.5705
C46 C 0.2736(4) 0.3818(3) 0.6320(3)
H64 H 0.3190 0.3616 0.6615
C47 C 0.2293(3) 0.4583(2) 0.6420(2)
C48 C 0.1592(4) 0.4852(2) 0.5994(3)
H65 H 0.1264 0.5369 0.6065
C49 C 0.1364(4) 0.4380(2) 0.5469(3)
H66 H 0.0892 0.4578 0.5186
C50 C 0.2550(4) 0.5100(3) 0.6988(3)
H67 H 0.1932 0.5188 0.7419
H68 H 0.2726 0.5596 0.6762
H69 H 0.3156 0.4848 0.7149
C51 C -0.1632(3) 0.01105(19) 0.42331(19)
C52 C -0.2358(3) -0.0177(2) 0.3780(2)
H70 H -0.2216 0.0080 0.3285
C53 C -0.2059(4) -0.1065(3) 0.3661(3)
H71 H -0.2253 -0.1324 0.4141
H72 H -0.1293 -0.1174 0.3440
H73 H -0.2444 -0.1257 0.3328
C54 C -0.4143(3) 0.1570(2) 0.4240(2)
C55 C -0.4755(4) 0.1830(3) 0.4944(2)
H74 H -0.5266 0.1527 0.5234
C56 C -0.4607(4) 0.2540(3) 0.5215(3)
H75 H -0.5019 0.2708 0.5696
C57 C -0.3871(4) 0.3016(3) 0.4804(3)
C58 C -0.3394(4) 0.2021(3) 0.3811(3)
H76 H -0.2978 0.1848 0.3333
C59 C -0.3270(4) 0.2738(3) 0.4103(3)
H77 H -0.2761 0.3043 0.3813
C60 C -0.3736(5) 0.3796(3) 0.5110(3)
H78 H -0.3077 0.3978 0.4813
H79 H -0.3706 0.3740 0.5628
H80 H -0.4340 0.4171 0.5086
La1A La 0.617759(14) 0.017927(11) -0.100642(10)
La2A La -0.116585(14) -0.002900(11) 0.607086(10)
O14A O 0.56833(18) -0.02947(15) 0.12160(14)
O18A O 0.48238(18) 0.08762(13) 0.02791(13)
O22A O 0.01076(19) -0.09374(14) 0.47375(14)
O26A O 0.19704(19) -0.01255(15) 0.50548(13)
loop_
_geom_bond_atom_site_label_1
_geom_bond_atom_site_label_2
_geom_bond_site_symmetry_1
_geom_bond_site_symmetry_2
La1 O1 1_555 1_555
La2 O3 1_555 1_555
S1 O7 1_555 1_555
S2 O11 1_555 1_555
S3 O15 1_555 1_555
S4 O19 1_555 1_555
S5 O23 1_555 1_555
S6 O27 1_555 1_555
O1 H1 1_555 1_555
H2 O1 1_555 1_555
O2 La1 1_555 1_555
H3 O2 1_555 1_555
H4 O2 1_555 1_555
O3 H5 1_555 1_555
H6 O3 1_555 1_555
O4 La2 1_555 1_555
H7 O4 1_555 1_555
H8 O4 1_555 1_555
O5 La1 1_555 1_555
O6 La2 1_555 1_555
O8 S1 1_555 1_555
O9 La1 1_555 1_555
O10 La2 1_555 1_555
O12 S2 1_555 1_555
O13 La1 1_555 1_555
O14 C21 1_555 1_555
O16 S3 1_555 1_555
O17 La1 1_555 1_555
O18 La1 1_555 1_555
O20 S4 1_555 1_555
O21 La2 1_555 1_555
O22 C41 1_555 1_555
O24 S5 1_555 1_555
O25 La2 1_555 1_555
O26 C51 1_555 1_555
O28 S6 1_555 1_555
N1 S1 1_555 1_555
H9 N1 1_555 1_555
N2 S2 1_555 1_555
H10 N2 1_555 1_555
N3 S3 1_555 1_555
H11 N3 1_555 1_555
N4 S4 1_555 1_555
H12 N4 1_555 1_555
N5 S5 1_555 1_555
H13 N5 1_555 1_555
N6 S6 1_555 1_555
H14 N6 1_555 1_555
C1 O5 1_555 1_555
C2 N1 1_555 1_555
H15 C2 1_555 1_555
C3 C2 1_555 1_555
H16 C3 1_555 1_555
H17 C3 1_555 1_555
H18 C3 1_555 1_555
C4 S1 1_555 1_555
C5 C4 1_555 1_555
H19 C5 1_555 1_555
C6 C5 1_555 1_555
H20 C6 1_555 1_555
C7 C6 1_555 1_555
C8 C7 1_555 1_555
H21 C8 1_555 1_555
C9 C4 1_555 1_555
H22 C9 1_555 1_555
C10 C7 1_555 1_555
H23 C10 1_555 1_555
H24 C10 1_555 1_555
H25 C10 1_555 1_555
C11 O9 1_555 1_555
C12 N2 1_555 1_555
H26 C12 1_555 1_555
C13 C12 1_555 1_555
H27 C13 1_555 1_555
H28 C13 1_555 1_555
H29 C13 1_555 1_555
C14 S2 1_555 1_555
C15 C14 1_555 1_555
H30 C15 1_555 1_555
C16 C15 1_555 1_555
H31 C16 1_555 1_555
C17 C16 1_555 1_555
C18 C17 1_555 1_555
H32 C18 1_555 1_555
C19 C14 1_555 1_555
H33 C19 1_555 1_555
C20 C17 1_555 1_555
H34 C20 1_555 1_555
H35 C20 1_555 1_555
H36 C20 1_555 1_555
C21 O13 1_555 1_555
C22 N3 1_555 1_555
H37 C22 1_555 1_555
C23 C22 1_555 1_555
H38 C23 1_555 1_555
H39 C23 1_555 1_555
H40 C23 1_555 1_555
C24 S3 1_555 1_555
C25 C24 1_555 1_555
H41 C25 1_555 1_555
C26 C25 1_555 1_555
H42 C26 1_555 1_555
C27 C26 1_555 1_555
C28 C27 1_555 1_555
H43 C28 1_555 1_555
C29 C24 1_555 1_555
H44 C29 1_555 1_555
C30 C27 1_555 1_555
H45 C30 1_555 1_555
H46 C30 1_555 1_555
H47 C30 1_555 1_555
C31 O17 1_555 1_555
C32 N4 1_555 1_555
H48 C32 1_555 1_555
C33 C32 1_555 1_555
H49 C33 1_555 1_555
H50 C33 1_555 1_555
H51 C33 1_555 1_555
C34 S4 1_555 1_555
C35 C34 1_555 1_555
H52 C35 1_555 1_555
C36 C35 1_555 1_555
H53 C36 1_555 1_555
C37 C36 1_555 1_555
C38 C37 1_555 1_555
H54 C38 1_555 1_555
C39 C34 1_555 1_555
H55 C39 1_555 1_555
C40 C37 1_555 1_555
H56 C40 1_555 1_555
H57 C40 1_555 1_555
H58 C40 1_555 1_555
C41 O21 1_555 1_555
C42 N5 1_555 1_555
H59 C42 1_555 1_555
C43 C42 1_555 1_555
H60 C43 1_555 1_555
H61 C43 1_555 1_555
H62 C43 1_555 1_555
C44 S5 1_555 1_555
C45 C44 1_555 1_555
H63 C45 1_555 1_555
C46 C45 1_555 1_555
H64 C46 1_555 1_555
C47 C46 1_555 1_555
C48 C47 1_555 1_555
H65 C48 1_555 1_555
C49 C44 1_555 1_555
H66 C49 1_555 1_555
C50 C47 1_555 1_555
H67 C50 1_555 1_555
H68 C50 1_555 1_555
H69 C50 1_555 1_555
C51 O25 1_555 1_555
C52 N6 1_555 1_555
H70 C52 1_555 1_555
C53 C52 1_555 1_555
H71 C53 1_555 1_555
H72 C53 1_555 1_555
H73 C53 1_555 1_555
C54 S6 1_555 1_555
C55 C54 1_555 1_555
H74 C55 1_555 1_555
C56 C55 1_555 1_555
H75 C56 1_555 1_555
C57 C56 1_555 1_555
C58 C54 1_555 1_555
H76 C58 1_555 1_555
C59 C57 1_555 1_555
H77 C59 1_555 1_555
C60 C57 1_555 1_555
H78 C60 1_555 1_555
H79 C60 1_555 1_555
H80 C60 1_555 1_555
La1A O14 1_555 1_555
La2A O22 1_555 1_555
O14A La1 1_555 1_555
O18A La1 1_555 1_555
O22A La2 1_555 1_555
O26A La2 1_555 1_555
O6 C1 1_555 1_555
O10 C11 1_555 1_555
O18 C31 1_555 1_555
O18 La1A 1_555 1_555
O26 La2A 1_555 1_555
C1 C2 1_555 1_555
C8 C9 1_555 1_555
C11 C12 1_555 1_555
C18 C19 1_555 1_555
C21 C22 1_555 1_555
C28 C29 1_555 1_555
C31 C32 1_555 1_555
C38 C39 1_555 1_555
C41 C42 1_555 1_555
C48 C49 1_555 1_555
C51 C52 1_555 1_555
C58 C59 1_555 1_555
La1A O18A 1_555 1_555

#END
