
#######################################################################
#
#                 Cambridge Crystallographic Data Centre
#                                CCDC 
#
#######################################################################
#
# If this CIF has been generated from an entry in the Cambridge 
# Structural Database, then it will include bibliographic, chemical, 
# crystal, experimental, refinement or atomic coordinate data resulting 
# from the CCDC's data processing and validation procedures.
#
#######################################################################

data_DEFVER
_symmetry_cell_setting           triclinic
_symmetry_space_group_name_H-M   'P -1'
_symmetry_Int_Tables_number      2
_space_group_name_Hall           '-P 1'
loop_
_symmetry_equiv_pos_site_id
_symmetry_equiv_pos_as_xyz
1 x,y,z
2 -x,-y,-z
_cell_length_a                   9.367(5)
_cell_length_b                   10.250(5)
_cell_length_c                   13.849(5)
_cell_angle_alpha                78.883(5)
_cell_angle_beta                 86.361(5)
_cell_angle_gamma                80.004(5)
_cell_volume                     1284.29
loop_
_atom_site_label
_atom_site_type_symbol
_atom_site_fract_x
_atom_site_fract_y
_atom_site_fract_z
Zn1 Zn 0.15948(3) 0.12378(3) 0.69098(2)
O1 O 0.5972(2) 0.31562(19) 0.31625(14)
O2 O 0.4108(2) 0.39536(19) 0.44578(15)
O3 O 0.2734(2) 0.24317(19) 0.60174(15)
N1 N -0.2069(2) 0.0588(2) 0.56474(17)
O4 O 0.9026(2) 0.1428(2) 0.19917(16)
O5 O 0.7221(2) 0.05804(19) 0.28899(15)
N2 N -0.0322(3) 0.2907(2) 0.92362(18)
C1 C 0.2254(3) 0.3693(3) 0.5844(2)
C2 C 0.2068(3) 0.3724(3) 0.3521(2)
H1 H 0.1388 0.4071 0.3964
O6 O 0.1150(2) 0.4252(2) 0.62179(18)
C3 C -0.0973(3) 0.0259(3) 0.6271(2)
H2 H -0.0811 -0.0536 0.6733
N3 N -0.0151(2) 0.1209(2) 0.61481(17)
C4 C -0.1928(3) 0.1818(3) 0.5074(2)
H3 H -0.2523 0.2300 0.4568
N4 N 0.1014(3) 0.1835(2) 0.81862(17)
C5 C 0.4558(3) 0.3149(2) 0.2974(2)
C6 C 0.3540(3) 0.3626(2) 0.36690(19)
C7 C -0.4477(3) 0.0479(2) 0.5048(2)
H4 H -0.4210 0.0933 0.4397
H5 H -0.4957 0.1158 0.5413
C8 C -0.1341(4) 0.3949(3) 0.9632(2)
H6 H -0.2100 0.3536 1.0020
H7 H -0.1793 0.4605 0.9090
C9 C -0.3141(3) -0.0271(3) 0.5564(2)
H8 H -0.3417 -0.0702 0.6219
H9 H -0.2694 -0.0974 0.5210
C10 C 0.7057(3) 0.2986(3) 0.2409(2)
H10 H 0.7776 0.3544 0.2460
H11 H 0.6610 0.3319 0.1776
C11 C 0.3124(3) 0.4593(3) 0.5122(2)
H12 H 0.2447 0.5293 0.4735
H13 H 0.3673 0.5032 0.5497
C12 C 0.4092(4) 0.2719(3) 0.2176(2)
H14 H 0.4762 0.2382 0.1723
C13 C 0.7837(3) 0.1546(3) 0.24204(19)
C14 C -0.0609(4) 0.4662(3) 1.0264(2)
H15 H -0.0223 0.4014 1.0832
H16 H -0.1328 0.5337 1.0503
C15 C -0.0740(3) 0.2181(3) 0.5399(2)
H17 H -0.0383 0.2975 0.5147
C16 C 0.0075(3) 0.2928(3) 0.8288(2)
H18 H -0.0262 0.3616 0.7772
C17 C 0.1613(4) 0.3307(3) 0.2719(3)
H19 H 0.0627 0.3371 0.2624
C18 C 0.1226(4) 0.1092(3) 0.9122(2)
H20 H 0.1835 0.0267 0.9277
C19 C 0.2616(4) 0.2797(4) 0.2058(3)
H21 H 0.2301 0.2501 0.1527
C20 C 0.0416(4) 0.1745(3) 0.9779(2)
H22 H 0.0366 0.1467 1.0458
Zn1A Zn 0.84052(3) -0.12378(3) 0.30902(2)
Zn1A_2 Zn -1.15948(3) -0.12378(3) 0.30902(2)
Zn1A_3 Zn -0.15948(3) 0.87622(3) 1.30902(2)
O1A O 0.4028(2) -0.31562(19) 0.68375(14)
O2A O 0.5892(2) -0.39536(19) 0.55422(15)
O3A O 0.7266(2) -0.24317(19) 0.39826(15)
N1A N -0.7931(2) -0.0588(2) 0.43526(17)
O4A O 0.0974(2) -0.1428(2) 0.80083(16)
O5A O 0.2779(2) -0.05804(19) 0.71101(15)
N2A N 0.0322(3) 0.7093(2) 1.07638(18)
C1A C 0.7746(3) -0.3693(3) 0.4156(2)
C2A C 0.7932(3) -0.3724(3) 0.6479(2)
H1A H 0.8612 -0.4071 0.6036
O6A O 0.8850(2) -0.4252(2) 0.37821(18)
C3A C -0.9027(3) -0.0259(3) 0.3729(2)
H2A H -0.9189 0.0536 0.3267
N3A N -0.9849(2) -0.1209(2) 0.38519(17)
N3A_2 N 1.0151(2) -0.1209(2) 0.38519(17)
C4A C -0.8072(3) -0.1818(3) 0.4926(2)
H3A H -0.7477 -0.2300 0.5432
N4A N -0.1014(3) 0.8165(2) 1.18138(17)
N4A_2 N 0.8986(3) -0.1835(2) 0.18138(17)
C5A C 0.5442(3) -0.3149(2) 0.7026(2)
C6A C 0.6460(3) -0.3626(2) 0.63310(19)
C7A C -0.5523(3) -0.0479(2) 0.4952(2)
H4A H -0.5790 -0.0933 0.5603
H5A H -0.5043 -0.1158 0.4587
C8A C 0.1341(4) 0.6051(3) 1.0368(2)
H6A H 0.2100 0.6464 0.9980
H7A H 0.1793 0.5395 1.0910
C9A C -0.6859(3) 0.0271(3) 0.4436(2)
H8A H -0.6583 0.0702 0.3781
H9A H -0.7306 0.0974 0.4790
C10A C 0.2943(3) -0.2986(3) 0.7591(2)
H10A H 0.2224 -0.3544 0.7540
H11A H 0.3390 -0.3319 0.8224
C11A C 0.6876(3) -0.4593(3) 0.4878(2)
H12A H 0.7553 -0.5293 0.5265
H13A H 0.6327 -0.5032 0.4503
C12A C 0.5908(4) -0.2719(3) 0.7824(2)
H14A H 0.5238 -0.2382 0.8277
C13A C 0.2163(3) -0.1546(3) 0.75796(19)
C14A C 0.0609(4) 0.5338(3) 0.9736(2)
H15A H 0.0223 0.5986 0.9168
H16A H 0.1328 0.4663 0.9497
C15A C -0.9260(3) -0.2181(3) 0.4601(2)
H17A H -0.9617 -0.2975 0.4853
C16A C -0.0075(3) 0.7072(3) 1.1712(2)
H18A H 0.0262 0.6384 1.2228
C17A C 0.8387(4) -0.3307(3) 0.7281(3)
H19A H 0.9373 -0.3371 0.7376
C18A C -0.1226(4) 0.8908(3) 1.0878(2)
H20A H -0.1835 0.9733 1.0723
C19A C 0.7384(4) -0.2797(4) 0.7942(3)
H21A H 0.7699 -0.2501 0.8473
C20A C -0.0416(4) 0.8255(3) 1.0221(2)
H22A H -0.0366 0.8533 0.9542
N5 N 0.5568(6) 0.2200(6) 0.8479(4)
O7 O 0.5892(9) 0.1889(9) 1.0054(5)
C21 C 0.4636(19) 0.3346(19) 0.8691(14)
H23 H 0.4254 0.3890 0.8090
H24 H 0.5165 0.3859 0.9007
H25 H 0.3853 0.3072 0.9119
C22 C 0.5794(18) 0.2375(18) 0.7434(8)
H26 H 0.5158 0.3163 0.7125
H27 H 0.5594 0.1598 0.7208
H28 H 0.6783 0.2483 0.7266
C23 C 0.613(2) 0.137(2) 0.9164(16)
loop_
_geom_bond_atom_site_label_1
_geom_bond_atom_site_label_2
_geom_bond_site_symmetry_1
_geom_bond_site_symmetry_2
Zn1 O3 1_555 1_555
O1 C5 1_555 1_555
O2 C6 1_555 1_555
O3 C1 1_555 1_555
N1 C3 1_555 1_555
O4 C13 1_555 1_555
O5 C13 1_555 1_555
N2 C8 1_555 1_555
C1 O6 1_555 1_555
C2 H1 1_555 1_555
C3 H2 1_555 1_555
N3 Zn1 1_555 1_555
C4 N1 1_555 1_555
H3 C4 1_555 1_555
N4 Zn1 1_555 1_555
C5 C6 1_555 1_555
C6 C2 1_555 1_555
C7 H4 1_555 1_555
H5 C7 1_555 1_555
C8 H6 1_555 1_555
H7 C8 1_555 1_555
C9 N1 1_555 1_555
H8 C9 1_555 1_555
H9 C9 1_555 1_555
C10 O1 1_555 1_555
H10 C10 1_555 1_555
H11 C10 1_555 1_555
C11 O2 1_555 1_555
H12 C11 1_555 1_555
H13 C11 1_555 1_555
C12 C5 1_555 1_555
H14 C12 1_555 1_555
C13 C10 1_555 1_555
C14 C8 1_555 1_555
H15 C14 1_555 1_555
H16 C14 1_555 1_555
C15 N3 1_555 1_555
H17 C15 1_555 1_555
C16 N2 1_555 1_555
H18 C16 1_555 1_555
C17 C2 1_555 1_555
H19 C17 1_555 1_555
C18 N4 1_555 1_555
H20 C18 1_555 1_555
C19 C12 1_555 1_555
H21 C19 1_555 1_555
C20 N2 1_555 1_555
H22 C20 1_555 1_555
N5 C21 1_555 1_555
O7 C23 1_555 1_555
C21 H23 1_555 1_555
H24 C21 1_555 1_555
H25 C21 1_555 1_555
C22 N5 1_555 1_555
H26 C22 1_555 1_555
H27 C22 1_555 1_555
H28 C22 1_555 1_555
C23 N5 1_555 1_555
Zn1A O5 1_555 1_555
Zn1A_2 N3A 1_555 1_555
Zn1A_3 N4A 1_555 1_555
O1A C5A 1_555 1_555
O2A C6A 1_555 1_555
O3A Zn1A 1_555 1_555
N1A C3A 1_555 1_555
O4A C13A 1_555 1_555
O5A Zn1 1_555 1_555
N2A C8A 1_555 1_555
C1A O3A 1_555 1_555
C2A H1A 1_555 1_555
O6A C1A 1_555 1_555
C3A H2A 1_555 1_555
N3A C3A 1_555 1_555
N3A_2 Zn1A 1_555 1_555
C4A N1A 1_555 1_555
H3A C4A 1_555 1_555
N4A C16A 1_555 1_555
N4A_2 Zn1A 1_555 1_555
C5A C6A 1_555 1_555
C6A C2A 1_555 1_555
C7A C7 1_555 1_555
H4A C7A 1_555 1_555
H5A C7A 1_555 1_555
C8A H6A 1_555 1_555
H7A C8A 1_555 1_555
C9A N1A 1_555 1_555
H8A C9A 1_555 1_555
H9A C9A 1_555 1_555
C10A O1A 1_555 1_555
H10A C10A 1_555 1_555
H11A C10A 1_555 1_555
C11A O2A 1_555 1_555
H12A C11A 1_555 1_555
H13A C11A 1_555 1_555
C12A C5A 1_555 1_555
H14A C12A 1_555 1_555
C13A O5A 1_555 1_555
C14A C14 1_555 1_555
H15A C14A 1_555 1_555
H16A C14A 1_555 1_555
C15A N3A 1_555 1_555
H17A C15A 1_555 1_555
C16A N2A 1_555 1_555
H18A C16A 1_555 1_555
C17A C2A 1_555 1_555
H19A C17A 1_555 1_555
C18A N4A 1_555 1_555
H20A C18A 1_555 1_555
C19A C12A 1_555 1_555
H21A C19A 1_555 1_555
C20A N2A 1_555 1_555
H22A C20A 1_555 1_555
C1 C11 1_555 1_555
C3 N3 1_555 1_555
C4 C15 1_555 1_555
N4 C16 1_555 1_555
C7 C9 1_555 1_555
C17 C19 1_555 1_555
C18 C20 1_555 1_555
C1A C11A 1_555 1_555
C4A C15A 1_555 1_555
C7A C9A 1_555 1_555
C8A C14A 1_555 1_555
C10A C13A 1_555 1_555
C17A C19A 1_555 1_555
C18A C20A 1_555 1_555

#END
