
#######################################################################
#
#                 Cambridge Crystallographic Data Centre
#                                CCDC 
#
#######################################################################
#
# If this CIF has been generated from an entry in the Cambridge 
# Structural Database, then it will include bibliographic, chemical, 
# crystal, experimental, refinement or atomic coordinate data resulting 
# from the CCDC's data processing and validation procedures.
#
#######################################################################

data_DEFWUI
_symmetry_cell_setting           triclinic
_symmetry_space_group_name_H-M   'P -1'
_symmetry_Int_Tables_number      2
_space_group_name_Hall           '-P 1'
loop_
_symmetry_equiv_pos_site_id
_symmetry_equiv_pos_as_xyz
1 x,y,z
2 -x,-y,-z
_cell_length_a                   10.863(2)
_cell_length_b                   11.288(2)
_cell_length_c                   11.561(2)
_cell_angle_alpha                65.19(3)
_cell_angle_beta                 83.34(3)
_cell_angle_gamma                67.74(3)
_cell_volume                     1189.33
loop_
_atom_site_label
_atom_site_type_symbol
_atom_site_fract_x
_atom_site_fract_y
_atom_site_fract_z
Co1 Co 0.80116(2) 0.18154(3) 0.33675(2)
N1 N 0.64001(16) 0.35612(17) 0.32923(15)
N2 N 0.50929(16) 0.56648(17) 0.32216(15)
N3 N 0.22886(17) 0.86530(18) 0.00166(15)
N4 N 0.20849(16) 0.87441(16) -0.19115(15)
O1 O 0.77290(14) 0.02286(15) 0.48014(12)
O2 O 0.80863(16) 0.11305(16) 0.60531(15)
O3 O 1.02153(14) -0.18563(16) 0.66432(13)
O4 O 1.05821(15) -0.33506(17) 0.86870(15)
C1 C 0.7426(2) 0.5388(2) 0.2537(2)
H1 H 0.7915 0.5254 0.3250
H2 H 0.7068 0.6368 0.1986
H3 H 0.8009 0.4880 0.2073
C2 C 0.63196(19) 0.4863(2) 0.30039(18)
C3 C 0.51490(19) 0.3518(2) 0.37284(17)
C4 C 0.4677(2) 0.2418(2) 0.41493(19)
H4 H 0.5210 0.1545 0.4162
C5 C 0.3385(2) 0.2681(2) 0.4546(2)
H5 H 0.3040 0.1974 0.4822
C6 C 0.2595(2) 0.3985(3) 0.4539(2)
H6 H 0.1739 0.4118 0.4829
C7 C 0.3038(2) 0.5092(2) 0.4114(2)
H7 H 0.2503 0.5963 0.4108
C8 C 0.43363(19) 0.4825(2) 0.36974(18)
C9 C 0.4624(2) 0.7166(2) 0.29328(19)
H8 H 0.5362 0.7390 0.3061
H9 H 0.3950 0.7374 0.3520
C10 C 0.4044(2) 0.8080(2) 0.15711(19)
H10 H 0.4657 0.7755 0.0994
H11 H 0.3956 0.9037 0.1359
C11 C 0.2685(2) 0.8065(2) 0.13698(19)
H12 H 0.2716 0.7107 0.1773
H13 H 0.2021 0.8601 0.1779
C12 C 0.3209(2) 0.6375(2) -0.0203(2)
H14 H 0.2595 0.5938 0.0262
H15 H 0.3952 0.6089 0.0357
H16 H 0.3521 0.6097 -0.0895
C13 C 0.25305(19) 0.7921(2) -0.07152(18)
C14 C 0.1635(2) 1.0052(2) -0.07577(19)
C15 C 0.1130(2) 1.1244(3) -0.0493(2)
H17 H 0.1215 1.1192 0.0320
C16 C 0.0504(2) 1.2495(2) -0.1495(3)
H18 H 0.0156 1.3315 -0.1361
C17 C 0.0378(2) 1.2562(2) -0.2709(3)
H19 H -0.0046 1.3431 -0.3366
C18 C 0.0860(2) 1.1386(2) -0.2974(2)
H20 H 0.0758 1.1443 -0.3785
C19 C 0.15060(19) 1.0108(2) -0.19638(19)
C20 C 0.78247(18) 0.0239(2) 0.58912(18)
C21 C 0.74355(19) -0.0858(2) 0.70021(17)
C22 C 0.6077(2) -0.0548(2) 0.71937(19)
H21 H 0.5466 0.0296 0.6641
C23 C 0.5627(2) -0.1474(2) 0.8193(2)
H22 H 0.4719 -0.1250 0.8314
C24 C 0.6524(2) -0.2729(2) 0.9008(2)
H23 H 0.6221 -0.3362 0.9670
C25 C 0.7880(2) -0.3055(2) 0.8845(2)
H24 H 0.8483 -0.3902 0.9403
C26 C 0.83453(19) -0.2116(2) 0.78462(18)
C27 C 0.9825(2) -0.2489(2) 0.77427(19)
Co1A Co 0.19884(2) 0.81846(3) -0.33675(2)
Co1A_2 Co 1.19884(2) -0.18154(3) 0.66325(2)
N4A N 0.79151(16) 0.12559(16) 0.19115(15)
O3A O 0.97847(14) 0.18563(16) 0.33568(13)
loop_
_geom_bond_atom_site_label_1
_geom_bond_atom_site_label_2
_geom_bond_site_symmetry_1
_geom_bond_site_symmetry_2
Co1 N1 1_555 1_555
N1 C2 1_555 1_555
N2 C2 1_555 1_555
N3 C11 1_555 1_555
N4 C13 1_555 1_555
O1 Co1 1_555 1_555
O2 C20 1_555 1_555
O3 C27 1_555 1_555
O4 C27 1_555 1_555
C1 H1 1_555 1_555
H2 C1 1_555 1_555
H3 C1 1_555 1_555
C2 C1 1_555 1_555
C3 N1 1_555 1_555
C4 C3 1_555 1_555
H4 C4 1_555 1_555
C5 C4 1_555 1_555
H5 C5 1_555 1_555
C6 C5 1_555 1_555
H6 C6 1_555 1_555
C7 C6 1_555 1_555
H7 C7 1_555 1_555
C8 N2 1_555 1_555
C9 N2 1_555 1_555
H8 C9 1_555 1_555
H9 C9 1_555 1_555
C10 C9 1_555 1_555
H10 C10 1_555 1_555
H11 C10 1_555 1_555
C11 C10 1_555 1_555
H12 C11 1_555 1_555
H13 C11 1_555 1_555
C12 H14 1_555 1_555
H15 C12 1_555 1_555
H16 C12 1_555 1_555
C13 N3 1_555 1_555
C14 N3 1_555 1_555
C15 C14 1_555 1_555
H17 C15 1_555 1_555
C16 C15 1_555 1_555
H18 C16 1_555 1_555
C17 C16 1_555 1_555
H19 C17 1_555 1_555
C18 C17 1_555 1_555
H20 C18 1_555 1_555
C19 N4 1_555 1_555
C20 O1 1_555 1_555
C21 C20 1_555 1_555
C22 C21 1_555 1_555
H21 C22 1_555 1_555
C23 C22 1_555 1_555
H22 C23 1_555 1_555
C24 C23 1_555 1_555
H23 C24 1_555 1_555
C25 C24 1_555 1_555
H24 C25 1_555 1_555
C26 C21 1_555 1_555
C27 C26 1_555 1_555
Co1A N4 1_555 1_555
Co1A_2 O3 1_555 1_555
N4A Co1 1_555 1_555
O3A Co1 1_555 1_555
C3 C8 1_555 1_555
C7 C8 1_555 1_555
C12 C13 1_555 1_555
C14 C19 1_555 1_555
C18 C19 1_555 1_555
C25 C26 1_555 1_555

#END
