
#######################################################################
#
#                 Cambridge Crystallographic Data Centre
#                                CCDC 
#
#######################################################################
#
# If this CIF has been generated from an entry in the Cambridge 
# Structural Database, then it will include bibliographic, chemical, 
# crystal, experimental, refinement or atomic coordinate data resulting 
# from the CCDC's data processing and validation procedures.
#
#######################################################################

data_DEFWEQ
_symmetry_cell_setting           monoclinic
_symmetry_space_group_name_H-M   'P 21/n'
_symmetry_Int_Tables_number      14
_space_group_name_Hall           '-P 2yn'
loop_
_symmetry_equiv_pos_site_id
_symmetry_equiv_pos_as_xyz
1 x,y,z
2 1/2-x,1/2+y,1/2-z
3 -x,-y,-z
4 1/2+x,1/2-y,1/2+z
_cell_length_a                   11.597(3)
_cell_length_b                   10.555(1)
_cell_length_c                   12.256(1)
_cell_angle_alpha                90
_cell_angle_beta                 97.07(1)
_cell_angle_gamma                90
_cell_volume                     1488.81
loop_
_atom_site_label
_atom_site_type_symbol
_atom_site_fract_x
_atom_site_fract_y
_atom_site_fract_z
Cu1 Cu 0.50000 0.00000 0.00000
S1 S 0.66603(6) 0.11561(6) 0.08823(5)
C1 C 0.6723(2) 0.0943(2) -0.1329(2)
N1 N 0.5637(1) 0.0386(2) -0.1356(1)
C2 C 0.5169(2) 0.0405(2) -0.2396(2)
N2 N 0.5897(2) 0.0938(2) -0.3021(2)
C3 C 0.6894(2) 0.1307(2) -0.2364(2)
C4 C 0.7862(3) 0.1979(4) -0.2808(3)
C5 C 0.7501(2) 0.0979(2) -0.0269(2)
C6 C 0.6242(2) 0.2810(2) 0.0753(2)
C7 C 0.7185(2) 0.3652(2) 0.1344(2)
N3 N 0.6865(2) 0.4987(2) 0.1251(2)
C8 C 0.6132(2) 0.5570(2) 0.1856(2)
N4 N 0.5862(2) 0.6794(2) 0.1751(2)
C9 C 0.6244(2) 0.7489(2) 0.0987(2)
N5 N 0.6488(2) 0.8212(2) 0.0346(2)
N6 N 0.5627(2) 0.4913(2) 0.2596(2)
C10 C 0.4820(3) 0.5505(3) 0.3250(3)
H1 H 0.444(2) 0.007(3) -0.266(2)
H2 H 0.583(2) 0.101(3) -0.371(2)
H3 H 0.727(2) 0.543(3) 0.088(2)
H4 H 0.579(2) 0.413(3) 0.273(2)
H5 H 0.847(3) 0.219(3) -0.227(2)
H6 H 0.824(2) 0.140(3) -0.333(2)
H7 H 0.764(2) 0.263(3) -0.325(2)
H8 H 0.791(2) 0.015(3) -0.014(2)
H9 H 0.808(2) 0.170(3) -0.023(2)
H10 H 0.554(2) 0.290(3) 0.109(2)
H11 H 0.609(2) 0.301(3) -0.004(2)
H12 H 0.733(2) 0.342(3) 0.211(2)
H13 H 0.791(2) 0.354(3) 0.098(2)
H14 H 0.509(2) 0.627(3) 0.356(2)
H15 H 0.412(3) 0.570(3) 0.283(2)
H16 H 0.464(2) 0.493(3) 0.384(2)
S1B S 0.33397(6) -0.11561(6) -0.08823(5)
C1B C 0.3277(2) -0.0943(2) 0.1329(2)
N1B N 0.4363(1) -0.0386(2) 0.1356(1)
C2B C 0.4831(2) -0.0405(2) 0.2396(2)
N2B N 0.4103(2) -0.0938(2) 0.3021(2)
C3B C 0.3106(2) -0.1307(2) 0.2364(2)
C4B C 0.2138(3) -0.1979(4) 0.2808(3)
C5B C 0.2499(2) -0.0979(2) 0.0269(2)
C6B C 0.3758(2) -0.2810(2) -0.0753(2)
C7B C 0.2815(2) -0.3652(2) -0.1344(2)
N3B N 0.3135(2) -0.4987(2) -0.1251(2)
C8B C 0.3868(2) -0.5570(2) -0.1856(2)
N4B N 0.4138(2) -0.6794(2) -0.1751(2)
C9B C 0.3756(2) -0.7489(2) -0.0987(2)
N5B N 0.3512(2) -0.8212(2) -0.0346(2)
N6B N 0.4373(2) -0.4913(2) -0.2596(2)
C10B C 0.5180(3) -0.5505(3) -0.3250(3)
H1B H 0.556(2) -0.007(3) 0.266(2)
H2B H 0.417(2) -0.101(3) 0.371(2)
H3B H 0.273(2) -0.543(3) -0.088(2)
H4B H 0.421(2) -0.413(3) -0.273(2)
H5B H 0.153(3) -0.219(3) 0.227(2)
H6B H 0.176(2) -0.140(3) 0.333(2)
H7B H 0.236(2) -0.263(3) 0.325(2)
H8B H 0.209(2) -0.015(3) 0.014(2)
H9B H 0.192(2) -0.170(3) 0.023(2)
H10B H 0.446(2) -0.290(3) -0.109(2)
H11B H 0.391(2) -0.301(3) 0.004(2)
H12B H 0.267(2) -0.342(3) -0.211(2)
H13B H 0.209(2) -0.354(3) -0.098(2)
H14B H 0.491(2) -0.627(3) -0.356(2)
H15B H 0.588(3) -0.570(3) -0.283(2)
H16B H 0.536(2) -0.493(3) -0.384(2)
N5_2 N 0.6488(2) -0.1788(2) 0.0346(2)
N5B_2 N 0.3512(2) 0.1788(2) -0.0346(2)
Cu1_2 Cu 0.50000 1.00000 0.00000
Cu1_3 Cu 0.50000 -1.00000 0.00000
N7 N 0.5730(2) 0.1959(2) 0.4205(2)
O1 O 0.6124(2) 0.0967(2) 0.4674(1)
O2 O 0.5969(2) 0.2216(2) 0.3271(1)
O3 O 0.5113(3) 0.2654(3) 0.4676(2)
loop_
_geom_bond_atom_site_label_1
_geom_bond_atom_site_label_2
_geom_bond_site_symmetry_1
_geom_bond_site_symmetry_2
Cu1 S1 1_555 1_555
S1 C5 1_555 1_555
C1 N1 1_555 1_555
N1 Cu1 1_555 1_555
C2 N1 1_555 1_555
N2 C2 1_555 1_555
C3 C1 1_555 1_555
C4 C3 1_555 1_555
C5 C1 1_555 1_555
C6 S1 1_555 1_555
C7 C6 1_555 1_555
N3 C7 1_555 1_555
C8 N3 1_555 1_555
N4 C8 1_555 1_555
C9 N4 1_555 1_555
N5 C9 1_555 1_555
N6 C8 1_555 1_555
C10 N6 1_555 1_555
H1 C2 1_555 1_555
H2 N2 1_555 1_555
H3 N3 1_555 1_555
H4 N6 1_555 1_555
H5 C4 1_555 1_555
H6 C4 1_555 1_555
H7 C4 1_555 1_555
H8 C5 1_555 1_555
H9 C5 1_555 1_555
H10 C6 1_555 1_555
H11 C6 1_555 1_555
H12 C7 1_555 1_555
H13 C7 1_555 1_555
H14 C10 1_555 1_555
H15 C10 1_555 1_555
H16 C10 1_555 1_555
N7 O1 1_555 1_555
O2 N7 1_555 1_555
O3 N7 1_555 1_555
S1B Cu1 1_555 1_555
C1B N1B 1_555 1_555
N1B Cu1 1_555 1_555
C2B N1B 1_555 1_555
N2B C2B 1_555 1_555
C3B C1B 1_555 1_555
C4B C3B 1_555 1_555
C5B S1B 1_555 1_555
C6B S1B 1_555 1_555
C7B C6B 1_555 1_555
N3B C7B 1_555 1_555
C8B N3B 1_555 1_555
N4B C8B 1_555 1_555
C9B N4B 1_555 1_555
N5B C9B 1_555 1_555
N6B C8B 1_555 1_555
C10B N6B 1_555 1_555
H1B C2B 1_555 1_555
H2B N2B 1_555 1_555
H3B N3B 1_555 1_555
H4B N6B 1_555 1_555
H5B C4B 1_555 1_555
H6B C4B 1_555 1_555
H7B C4B 1_555 1_555
H8B C5B 1_555 1_555
H9B C5B 1_555 1_555
H10B C6B 1_555 1_555
H11B C6B 1_555 1_555
H12B C7B 1_555 1_555
H13B C7B 1_555 1_555
H14B C10B 1_555 1_555
H15B C10B 1_555 1_555
H16B C10B 1_555 1_555
N5_2 Cu1 1_555 1_555
N5B_2 Cu1 1_555 1_555
Cu1_2 N5 1_555 1_555
Cu1_3 N5B 1_555 1_555
N2 C3 1_555 1_555
C1B C5B 1_555 1_555
N2B C3B 1_555 1_555

#END
