
#######################################################################
#
#                 Cambridge Crystallographic Data Centre
#                                CCDC 
#
#######################################################################
#
# If this CIF has been generated from an entry in the Cambridge 
# Structural Database, then it will include bibliographic, chemical, 
# crystal, experimental, refinement or atomic coordinate data resulting 
# from the CCDC's data processing and validation procedures.
#
#######################################################################

data_DEGFIG
_symmetry_cell_setting           orthorhombic
_symmetry_space_group_name_H-M   'P b c a'
_symmetry_Int_Tables_number      61
_space_group_name_Hall           '-P 2ac 2ab'
loop_
_symmetry_equiv_pos_site_id
_symmetry_equiv_pos_as_xyz
1 x,y,z
2 1/2-x,-y,1/2+z
3 1/2+x,1/2-y,-z
4 -x,1/2+y,1/2-z
5 -x,-y,-z
6 1/2+x,y,1/2-z
7 1/2-x,1/2+y,z
8 x,1/2-y,1/2+z
_cell_length_a                   17.5759(5)
_cell_length_b                   13.2778(4)
_cell_length_c                   18.1001(5)
_cell_angle_alpha                90
_cell_angle_beta                 90
_cell_angle_gamma                90
_cell_volume                     4224.01
loop_
_atom_site_label
_atom_site_type_symbol
_atom_site_fract_x
_atom_site_fract_y
_atom_site_fract_z
Mn1 Mn 0.25934(2) -0.30361(3) -0.505700(19)
O1 O 0.31711(11) -0.77582(12) -0.60165(9)
O2 O 0.38704(12) -0.65521(13) -0.65365(10)
O3 O 0.40640(13) -0.47203(15) -0.63998(12)
O4 O 0.35737(11) -0.34769(12) -0.57430(10)
O5 O -0.04074(11) -0.48926(16) -0.30280(10)
N1 N 0.23035(11) -0.63702(14) -0.52625(11)
N2 N 0.24910(11) -0.46998(15) -0.51293(10)
N3 N 0.31333(12) -0.29406(15) -0.39324(12)
N4 N 0.16697(12) -0.25892(15) -0.42505(11)
C1 C 0.33361(15) -0.68480(18) -0.61136(14)
C2 C 0.28992(14) -0.60894(16) -0.57009(12)
C3 C 0.30137(14) -0.50655(17) -0.56182(12)
C4 C 0.35760(15) -0.43781(19) -0.59352(14)
C5 C 0.20779(15) -0.55147(16) -0.49295(12)
C6 C 0.08809(16) -0.4726(2) -0.33124(14)
H1 H 0.0936 -0.4354 -0.2880
C7 C 0.14985(15) -0.48843(19) -0.37662(13)
H2 H 0.1968 -0.4614 -0.3637
C8 C 0.14326(14) -0.54397(16) -0.44127(12)
C9 C 0.07326(15) -0.5866(2) -0.45718(15)
H3 H 0.0681 -0.6268 -0.4990
C10 C 0.01070(16) -0.5708(2) -0.41206(14)
H4 H -0.0359 -0.5998 -0.4238
C11 C 0.01778(16) -0.51196(19) -0.34994(14)
C12 C -0.11638(16) -0.4984(3) -0.33019(16)
H5 H -0.1226 -0.4553 -0.3724
H6 H -0.1517 -0.4790 -0.2924
H7 H -0.1257 -0.5669 -0.3443
C13 C 0.38631(17) -0.3154(2) -0.37931(16)
H8 H 0.4156 -0.3428 -0.4171
C14 C 0.42027(18) -0.2988(3) -0.31182(18)
H9 H 0.4713 -0.3144 -0.3042
C15 C 0.3770(2) -0.2590(3) -0.25647(18)
H10 H 0.3983 -0.2469 -0.2103
C16 C 0.30191(19) -0.2369(2) -0.26939(16)
H11 H 0.2720 -0.2101 -0.2319
C17 C 0.27081(15) -0.25474(18) -0.33863(14)
C18 C 0.19042(15) -0.23372(18) -0.35672(14)
C19 C 0.14025(18) -0.1915(3) -0.30662(17)
H12 H 0.1566 -0.1751 -0.2593
C20 C 0.06629(19) -0.1738(3) -0.3270(2)
H13 H 0.0327 -0.1437 -0.2940
C21 C 0.04237(17) -0.2006(3) -0.39608(19)
H14 H -0.0077 -0.1903 -0.4108
C22 C 0.09462(15) -0.2434(2) -0.44328(16)
H15 H 0.0785 -0.2623 -0.4902
H16 H 0.400(3) -0.5334(15) -0.647(2)
Mn1F Mn 0.24066(2) -0.80361(3) -0.505700(19)
O1F O 0.18289(11) -0.27582(12) -0.60165(9)
N1F N 0.26965(11) -0.13702(14) -0.52625(11)
loop_
_geom_bond_atom_site_label_1
_geom_bond_atom_site_label_2
_geom_bond_site_symmetry_1
_geom_bond_site_symmetry_2
Mn1 O4 1_555 1_555
O1 C1 1_555 1_555
O2 C1 1_555 1_555
O3 C4 1_555 1_555
O4 C4 1_555 1_555
O5 C11 1_555 1_555
N1 C2 1_555 1_555
N2 Mn1 1_555 1_555
N3 Mn1 1_555 1_555
N4 Mn1 1_555 1_555
C1 C2 1_555 1_555
C2 C3 1_555 1_555
C3 N2 1_555 1_555
C4 C3 1_555 1_555
C5 N1 1_555 1_555
C6 H1 1_555 1_555
C7 C6 1_555 1_555
H2 C7 1_555 1_555
C8 C5 1_555 1_555
C9 C8 1_555 1_555
H3 C9 1_555 1_555
C10 C9 1_555 1_555
H4 C10 1_555 1_555
C11 C6 1_555 1_555
C12 O5 1_555 1_555
H5 C12 1_555 1_555
H6 C12 1_555 1_555
H7 C12 1_555 1_555
C13 N3 1_555 1_555
H8 C13 1_555 1_555
C14 C13 1_555 1_555
H9 C14 1_555 1_555
C15 C14 1_555 1_555
H10 C15 1_555 1_555
C16 C15 1_555 1_555
H11 C16 1_555 1_555
C17 N3 1_555 1_555
C18 N4 1_555 1_555
C19 C18 1_555 1_555
H12 C19 1_555 1_555
C20 C19 1_555 1_555
H13 C20 1_555 1_555
C21 C20 1_555 1_555
H14 C21 1_555 1_555
C22 N4 1_555 1_555
H15 C22 1_555 1_555
H16 O3 1_555 1_555
Mn1F O1 1_555 1_555
O1F Mn1 1_555 1_555
N1F Mn1 1_555 1_555
N1 Mn1F 1_555 1_555
N2 C5 1_555 1_555
C7 C8 1_555 1_555
C10 C11 1_555 1_555
C16 C17 1_555 1_555
C17 C18 1_555 1_555
C21 C22 1_555 1_555

#END
