
#######################################################################
#
#                 Cambridge Crystallographic Data Centre
#                                CCDC 
#
#######################################################################
#
# If this CIF has been generated from an entry in the Cambridge 
# Structural Database, then it will include bibliographic, chemical, 
# crystal, experimental, refinement or atomic coordinate data resulting 
# from the CCDC's data processing and validation procedures.
#
#######################################################################

data_DEGJEG
_symmetry_cell_setting           monoclinic
_symmetry_space_group_name_H-M   'P 21/c'
_symmetry_Int_Tables_number      14
_space_group_name_Hall           '-P 2ybc'
loop_
_symmetry_equiv_pos_site_id
_symmetry_equiv_pos_as_xyz
1 x,y,z
2 -x,1/2+y,1/2-z
3 -x,-y,-z
4 x,1/2-y,1/2+z
_cell_length_a                   3.5504(7)
_cell_length_b                   17.710(4)
_cell_length_c                   13.212(3)
_cell_angle_alpha                90
_cell_angle_beta                 90.136(7)
_cell_angle_gamma                90
_cell_volume                     830.736
loop_
_atom_site_label
_atom_site_type_symbol
_atom_site_fract_x
_atom_site_fract_y
_atom_site_fract_z
Cu1 Cu 0.3478(3) 0.43859(4) 0.59860(6)
C1 C 0.0803(19) 0.3579(4) 0.7784(5)
H1 H 0.0749 0.4068 0.8081
C2 C 0.2153(18) 0.2809(4) 0.6414(5)
H2 H 0.3085 0.2745 0.5744
C3 C 0.1016(19) 0.2178(4) 0.6942(5)
H3 H 0.1099 0.1696 0.6625
C4 C -0.0241(17) 0.2241(4) 0.7924(5)
C5 C -0.0345(18) 0.2965(4) 0.8364(5)
H4 H -0.1181 0.3033 0.9043
C6 C -0.1509(19) 0.1598(4) 0.8525(5)
N1 N -0.3734(15) 0.0926(3) 0.9697(4)
N2 N -0.2955(17) 0.1643(3) 0.9453(5)
N3 N -0.1381(16) 0.0866(3) 0.8186(4)
N4 N -0.2801(17) 0.0473(3) 0.8946(4)
N5 N 0.2012(16) 0.3509(3) 0.6801(4)
Cu1A Cu -0.3478(3) -0.06141(4) 0.90140(6)
Cu1C Cu -0.6522(3) 0.06141(4) 1.09860(6)
N1C N 0.6266(15) 0.4074(3) 0.4697(4)
N4A N 0.2801(17) 0.5473(3) 0.6054(4)
loop_
_geom_bond_atom_site_label_1
_geom_bond_atom_site_label_2
_geom_bond_site_symmetry_1
_geom_bond_site_symmetry_2
Cu1 N5 1_555 1_555
C1 H1 1_555 1_555
C2 H2 1_555 1_555
C3 C2 1_555 1_555
H3 C3 1_555 1_555
C4 C3 1_555 1_555
C5 C1 1_555 1_555
H4 C5 1_555 1_555
C6 C4 1_555 1_555
N1 N2 1_555 1_555
N2 C6 1_555 1_555
N3 C6 1_555 1_555
N4 N1 1_555 1_555
N5 C1 1_555 1_555
Cu1A N4 1_555 1_555
Cu1C N1 1_555 1_555
N1C Cu1 1_555 1_555
N4A Cu1 1_555 1_555
C2 N5 1_555 1_555
C4 C5 1_555 1_555
N3 N4 1_555 1_555

#END
