
#######################################################################
#
#                 Cambridge Crystallographic Data Centre
#                                CCDC 
#
#######################################################################
#
# If this CIF has been generated from an entry in the Cambridge 
# Structural Database, then it will include bibliographic, chemical, 
# crystal, experimental, refinement or atomic coordinate data resulting 
# from the CCDC's data processing and validation procedures.
#
#######################################################################

data_DEGJAC
_symmetry_cell_setting           monoclinic
_symmetry_space_group_name_H-M   'C 2/c'
_symmetry_Int_Tables_number      15
_space_group_name_Hall           '-C 2yn'
loop_
_symmetry_equiv_pos_site_id
_symmetry_equiv_pos_as_xyz
1 x,y,z
2 -x,y,1/2-z
3 1/2+x,1/2+y,z
4 1/2-x,1/2+y,1/2-z
5 -x,-y,-z
6 x,-y,1/2+z
7 1/2-x,1/2-y,-z
8 1/2+x,1/2-y,1/2+z
_cell_length_a                   15.467(4)
_cell_length_b                   11.275(3)
_cell_length_c                   7.0940(17)
_cell_angle_alpha                90
_cell_angle_beta                 94.811(6)
_cell_angle_gamma                90
_cell_volume                     1232.77
loop_
_atom_site_label
_atom_site_type_symbol
_atom_site_fract_x
_atom_site_fract_y
_atom_site_fract_z
Cu1 Cu 0.5000 0.38627(3) 0.2500
C1 C 0.69987(13) 0.61430(18) 0.2639(3)
C2 C 0.78881(13) 0.64306(19) 0.3424(3)
C3 C 0.82851(15) 0.5677(2) 0.4804(3)
H1 H 0.7978 0.5046 0.5264
C4 C 0.91364(16) 0.5878(2) 0.5481(4)
H2 H 0.9406 0.5391 0.6410
C5 C 0.83712(13) 0.73736(19) 0.2794(3)
H3 H 0.8108 0.7896 0.1908
C6 C 0.95805(14) 0.6814(2) 0.4754(3)
H4 H 1.0157 0.6937 0.5195
N1 N 0.57588(12) 0.61295(16) 0.1087(3)
N2 N 0.58686(11) 0.51247(16) 0.2049(3)
N3 N 0.66405(12) 0.50996(17) 0.3039(3)
N4 N 0.64751(12) 0.67980(16) 0.1445(3)
N5 N 0.92107(12) 0.75549(16) 0.3429(3)
Cu1B Cu 1.0000 0.88627(3) 0.2500
Cu1B_2 Cu 0.0000 0.88627(3) 0.2500
C1A C 0.30013(13) 0.61430(18) 0.2361(3)
C2A C 0.21119(13) 0.64306(19) 0.1576(3)
C3A C 0.17149(15) 0.5677(2) 0.0196(3)
H1A H 0.2022 0.5046 -0.0264
C4A C 0.08636(16) 0.5878(2) -0.0481(4)
H2A H 0.0594 0.5391 -0.1410
C5A C 0.16288(13) 0.73736(19) 0.2206(3)
H3A H 0.1892 0.7896 0.3092
C6A C 0.04195(14) 0.6814(2) 0.0246(3)
H4A H -0.0157 0.6937 -0.0195
N1A N 0.42412(12) 0.61295(16) 0.3913(3)
N2A N 0.41314(11) 0.51247(16) 0.2951(3)
N3A N 0.33595(12) 0.50996(17) 0.1961(3)
N4A N 0.35249(12) 0.67980(16) 0.3555(3)
N5B N 0.42107(12) 0.25549(16) 0.3429(3)
N5C N 0.57893(12) 0.25549(16) 0.1571(3)
N5A N 0.07893(12) 0.75549(16) 0.1571(3)
loop_
_geom_bond_atom_site_label_1
_geom_bond_atom_site_label_2
_geom_bond_site_symmetry_1
_geom_bond_site_symmetry_2
Cu1 N2 1_555 1_555
C1 C2 1_555 1_555
C2 C3 1_555 1_555
C3 H1 1_555 1_555
C4 C3 1_555 1_555
H2 C4 1_555 1_555
C5 C2 1_555 1_555
H3 C5 1_555 1_555
C6 C4 1_555 1_555
H4 C6 1_555 1_555
N1 N2 1_555 1_555
N2 N3 1_555 1_555
N3 C1 1_555 1_555
N4 C1 1_555 1_555
N5 C5 1_555 1_555
Cu1B N5 1_555 1_555
Cu1B_2 N5A 1_555 1_555
C1A C2A 1_555 1_555
C2A C3A 1_555 1_555
C3A H1A 1_555 1_555
C4A C3A 1_555 1_555
H2A C4A 1_555 1_555
C5A C2A 1_555 1_555
H3A C5A 1_555 1_555
C6A C4A 1_555 1_555
H4A C6A 1_555 1_555
N1A N2A 1_555 1_555
N2A Cu1 1_555 1_555
N3A C1A 1_555 1_555
N4A C1A 1_555 1_555
N5B Cu1 1_555 1_555
N5C Cu1 1_555 1_555
N5A C5A 1_555 1_555
C6 N5 1_555 1_555
N1 N4 1_555 1_555
C6A N5A 1_555 1_555
N1A N4A 1_555 1_555
N2A N3A 1_555 1_555

#END
