
#######################################################################
#
#                 Cambridge Crystallographic Data Centre
#                                CCDC 
#
#######################################################################
#
# If this CIF has been generated from an entry in the Cambridge 
# Structural Database, then it will include bibliographic, chemical, 
# crystal, experimental, refinement or atomic coordinate data resulting 
# from the CCDC's data processing and validation procedures.
#
#######################################################################

data_DEGPIQ
_symmetry_cell_setting           monoclinic
_symmetry_space_group_name_H-M   'P 21/c'
_symmetry_Int_Tables_number      14
_space_group_name_Hall           '-P 2ybc'
loop_
_symmetry_equiv_pos_site_id
_symmetry_equiv_pos_as_xyz
1 x,y,z
2 -x,1/2+y,1/2-z
3 -x,-y,-z
4 x,1/2-y,1/2+z
_cell_length_a                   11.239(2)
_cell_length_b                   9.6154(19)
_cell_length_c                   10.321(2)
_cell_angle_alpha                90
_cell_angle_beta                 114.25(3)
_cell_angle_gamma                90
_cell_volume                     1016.95
loop_
_atom_site_label
_atom_site_type_symbol
_atom_site_fract_x
_atom_site_fract_y
_atom_site_fract_z
Pr1 Pr 0.810167(13) 0.045688(15) 0.168880(15)
O1 O 1.0293(2) -0.0252(2) 0.1777(2)
O2 O 1.1586(2) -0.0638(3) 0.0648(2)
O3 O 0.8742(2) -0.1026(2) 0.3831(2)
O4 O 1.0096(2) -0.1417(2) 0.6097(2)
O5 O 0.6062(2) 0.1064(2) -0.0381(2)
O6 O 0.3929(2) 0.0715(2) -0.1607(2)
O7 O 0.8293(3) 0.2963(3) 0.1146(3)
H1 H 0.793(6) 0.333(6) 0.023(3)
H2 H 0.887(5) 0.353(5) 0.185(5)
O8 O 0.7020(3) 0.1896(3) 0.2971(3)
H3 H 0.744(6) 0.274(4) 0.334(6)
H4 H 0.6126(19) 0.189(6) 0.249(4)
O9 O 0.7901(3) -0.1963(3) 0.0750(3)
H5 H 0.855(4) -0.254(5) 0.069(6)
H6 H 0.753(6) -0.250(6) 0.126(6)
C1 C 1.0546(3) -0.0257(3) 0.0698(3)
C2 C 0.9664(3) -0.0706(3) 0.4974(3)
C3 C 0.5004(3) 0.0514(3) -0.0572(3)
Pr1B Pr 0.189833(13) -0.045688(15) -0.168880(15)
Pr1B_2 Pr 1.189833(13) -0.045688(15) -0.168880(15)
Pr1B_3 Pr 1.189833(13) -0.045688(15) 0.831120(15)
O1B O 0.9707(2) 0.0252(2) -0.1777(2)
O1B_2 O -0.0293(2) 0.0252(2) -0.1777(2)
O2B O 0.8414(2) 0.0638(3) -0.0648(2)
O2_2 O 0.1586(2) -0.0638(3) 0.0648(2)
O3B O 1.1258(2) 0.1026(2) 0.6169(2)
O3B_2 O 0.1258(2) 0.1026(2) -0.3831(2)
O4B O 0.9904(2) 0.1417(2) 0.3903(2)
O4_2 O 0.0096(2) -0.1417(2) -0.3903(2)
O5B O 0.3938(2) -0.1064(2) 0.0381(2)
O6B O 0.6071(2) -0.0715(2) 0.1607(2)
O7B O 0.1707(3) -0.2963(3) -0.1146(3)
H1B H 0.207(6) -0.333(6) -0.023(3)
H2B H 0.113(5) -0.353(5) -0.185(5)
O8B O 0.2980(3) -0.1896(3) -0.2971(3)
H3B H 0.256(6) -0.274(4) -0.334(6)
H4B H 0.3874(19) -0.189(6) -0.249(4)
O9B O 0.2099(3) 0.1963(3) -0.0750(3)
H5B H 0.145(4) 0.254(5) -0.069(6)
H6B H 0.247(6) 0.250(6) -0.126(6)
C1B C 0.9454(3) 0.0257(3) -0.0698(3)
C2B C 1.0336(3) 0.0706(3) 0.5026(3)
C3B C 0.4996(3) -0.0514(3) 0.0572(3)
O10 O 0.587(2) 0.486(2) 0.078(2)
O11 O 0.5611(9) -0.2894(11) -0.1285(10)
O12? O 0.6623(11) 0.5934(13) 0.1724(16)
O13? O 0.5764(6) -0.1879(8) -0.2077(8)
loop_
_geom_bond_atom_site_label_1
_geom_bond_atom_site_label_2
_geom_bond_site_symmetry_1
_geom_bond_site_symmetry_2
Pr1 O1 1_555 1_555
O1 C1 1_555 1_555
O2 C1 1_555 1_555
O3 Pr1 1_555 1_555
O4 C2 1_555 1_555
O5 Pr1 1_555 1_555
O6 C3 1_555 1_555
O7 Pr1 1_555 1_555
H1 O7 1_555 1_555
H2 O7 1_555 1_555
O8 Pr1 1_555 1_555
H3 O8 1_555 1_555
H4 O8 1_555 1_555
O9 Pr1 1_555 1_555
H5 O9 1_555 1_555
H6 O9 1_555 1_555
C1 C1B 1_555 1_555
C2 O3 1_555 1_555
C3 O5 1_555 1_555
Pr1B O6 1_555 1_555
Pr1B_2 O2 1_555 1_555
Pr1B_3 O4 1_555 1_555
O1B Pr1B_2 1_555 1_555
O1B_2 Pr1B 1_555 1_555
O2B Pr1 1_555 1_555
O2_2 Pr1B 1_555 1_555
O3B Pr1B_3 1_555 1_555
O3B_2 Pr1B 1_555 1_555
O4B Pr1 1_555 1_555
O4_2 Pr1B 1_555 1_555
O5B Pr1B 1_555 1_555
O6B Pr1 1_555 1_555
O7B Pr1B 1_555 1_555
H1B O7B 1_555 1_555
H2B O7B 1_555 1_555
O8B Pr1B 1_555 1_555
H3B O8B 1_555 1_555
H4B O8B 1_555 1_555
O9B Pr1B 1_555 1_555
H5B O9B 1_555 1_555
H6B O9B 1_555 1_555
C1B O1B 1_555 1_555
C2B C2 1_555 1_555
C3B C3 1_555 1_555
O2B C1B 1_555 1_555
O3B C2B 1_555 1_555
O4B C2B 1_555 1_555
O5B C3B 1_555 1_555
O6B C3B 1_555 1_555

#END
