
#######################################################################
#
#                 Cambridge Crystallographic Data Centre
#                                CCDC 
#
#######################################################################
#
# If this CIF has been generated from an entry in the Cambridge 
# Structural Database, then it will include bibliographic, chemical, 
# crystal, experimental, refinement or atomic coordinate data resulting 
# from the CCDC's data processing and validation procedures.
#
#######################################################################

data_DEGSOY
_symmetry_cell_setting           monoclinic
_symmetry_space_group_name_H-M   'C 2/c'
_symmetry_Int_Tables_number      15
_space_group_name_Hall           '-C 2yn'
loop_
_symmetry_equiv_pos_site_id
_symmetry_equiv_pos_as_xyz
1 x,y,z
2 1/2+x,1/2+y,z
3 -x,y,1/2-z
4 1/2-x,1/2+y,1/2-z
5 -x,-y,-z
6 1/2-x,1/2-y,-z
7 x,-y,1/2+z
8 1/2+x,1/2-y,1/2+z
_cell_length_a                   17.922(2)
_cell_length_b                   12.550(1)
_cell_length_c                   16.492(2)
_cell_angle_alpha                90
_cell_angle_beta                 111.309(4)
_cell_angle_gamma                90
_cell_volume                     3455.8
loop_
_atom_site_label
_atom_site_type_symbol
_atom_site_fract_x
_atom_site_fract_y
_atom_site_fract_z
Cu1 Cu 0.256183(14) 0.463985(18) 0.061689(15)
Cu2 Cu 0.161020(14) 0.267290(18) -0.039120(15)
O1 O 0.21336(9) 0.35420(11) 0.12532(9)
O2 O 0.34491(9) 0.32472(12) 0.17455(9)
O3 O 0.33686(9) 0.54749(11) 0.03405(9)
O4 O 0.30783(9) 0.49347(13) -0.10429(10)
O5 O 0.14422(9) 0.52509(12) -0.03283(10)
O6 O 0.09514(9) 0.37660(11) -0.10976(10)
O7 O 0.26131(8) 0.34582(11) -0.01763(9)
N1 N 0.56371(10) 0.69379(13) -0.03730(11)
N2 N 0.25057(10) 0.07527(14) 0.35406(11)
C1 C 0.31539(13) 0.07652(18) 0.33116(15)
H1 H 0.3546 0.0248 0.3539
C2 C 0.32574(13) 0.15185(18) 0.27510(14)
H2 H 0.3716 0.1511 0.2612
C3 C 0.26738(12) 0.22834(16) 0.23981(13)
C4 C 0.20076(13) 0.22782(17) 0.26380(14)
H3 H 0.1607 0.2786 0.2417
C5 C 0.19483(13) 0.15060(17) 0.32115(14)
H4 H 0.1503 0.1511 0.3375
C6 C 0.27684(12) 0.30849(16) 0.17614(13)
C7 C 0.50828(13) 0.65912(18) -0.11162(14)
H5 H 0.5177 0.6670 -0.1632
C8 C 0.43755(13) 0.61198(18) -0.11462(14)
H6 H 0.4004 0.5883 -0.1672
C9 C 0.42273(12) 0.60054(15) -0.03781(13)
C10 C 0.47948(13) 0.63841(17) 0.03858(14)
H7 H 0.4708 0.6333 0.0907
C11 C 0.54916(12) 0.68388(17) 0.03674(14)
H8 H 0.5872 0.7084 0.0885
C12 C 0.34860(12) 0.54281(15) -0.03779(13)
C13 C 0.0000 0.7058(2) -0.2500
H9 H 0.0000 0.7799 -0.2500
C14 C 0.04754(12) 0.65098(16) -0.17613(13)
H10 H 0.0790 0.6882 -0.1268
C15 C 0.04785(12) 0.53992(15) -0.17617(13)
C16 C 0.0000 0.4856(2) -0.2500
H11 H 0.0000 0.4115 -0.2500
C17 C 0.10065(12) 0.47751(16) -0.09875(13)
H12 H 0.2670(18) 0.378(2) -0.051(2)
Cu1C Cu 0.243817(14) 0.963985(18) 0.438311(15)
Cu1C_2 Cu 0.243817(14) -0.036015(18) 0.438311(15)
Cu1B Cu -0.256183(14) 0.463985(18) -0.561689(15)
Cu1E Cu 0.243817(14) 0.036015(18) -0.061689(15)
Cu1A Cu -0.243817(14) -0.036015(18) 0.061689(15)
Cu2B Cu -0.161020(14) 0.267290(18) -0.460880(15)
Cu2E Cu 0.338980(14) 0.232710(18) 0.039120(15)
Cu2A Cu 0.661020(14) 0.767290(18) -0.039120(15)
O1C O 0.28664(9) 0.85420(11) 0.37468(9)
O2C O 0.15509(9) 0.82472(12) 0.32545(9)
O3A O -0.16314(9) 0.04749(11) 0.03405(9)
O3C O 0.16314(9) 1.04749(11) 0.46595(9)
O4A O -0.19217(9) -0.00653(13) -0.10429(10)
O5B O -0.14422(9) 0.52509(12) -0.46717(10)
O5C O 0.35578(9) 1.02509(12) 0.53283(10)
O6B O -0.09514(9) 0.37660(11) -0.39024(10)
O7E O 0.23869(8) 0.15418(11) 0.01763(9)
O7C O 0.23869(8) 0.84582(11) 0.51763(9)
O7G O -0.23869(8) 0.15418(11) -0.51763(9)
O7B O -0.26131(8) 0.34582(11) -0.48237(9)
N1A N 0.06371(10) 0.19379(13) -0.03730(11)
N1C N -0.06371(10) 0.19379(13) -0.46270(11)
N2C N 0.24943(10) 0.57527(14) 0.14594(11)
N2_2 N 0.25057(10) 1.07527(14) 0.35406(11)
C1C C 0.18461(13) 0.57652(18) 0.16884(15)
H1C H 0.1454 0.5248 0.1461
C2C C 0.17426(13) 0.65185(18) 0.22490(14)
H2C H 0.1284 0.6511 0.2388
C3C C 0.23262(12) 0.72834(16) 0.26019(13)
C4C C 0.29924(13) 0.72782(17) 0.23620(14)
H3C H 0.3393 0.7786 0.2583
C5C C 0.30517(13) 0.65060(17) 0.17885(14)
H4C H 0.3497 0.6511 0.1625
C6C C 0.22316(12) 0.80849(16) 0.32386(13)
C7A C 0.00828(13) 0.15912(18) -0.11162(14)
H5A H 0.0177 0.1670 -0.1632
C8A C -0.06245(13) 0.11198(18) -0.11462(14)
H6A H -0.0996 0.0883 -0.1672
C9A C -0.07727(12) 0.10054(15) -0.03781(13)
C10A C -0.02052(13) 0.13841(17) 0.03858(14)
H7A H -0.0292 0.1333 0.0907
C11A C 0.04916(12) 0.18388(17) 0.03674(14)
H8A H 0.0872 0.2084 0.0885
C12A C -0.15140(12) 0.04281(15) -0.03779(13)
C14B C -0.04754(12) 0.65098(16) -0.32387(13)
H10B H -0.0790 0.6882 -0.3732
C15B C -0.04785(12) 0.53992(15) -0.32383(13)
C17B C -0.10065(12) 0.47751(16) -0.40125(13)
H12E H 0.2330(18) 0.122(2) 0.051(2)
H12C H 0.2330(18) 0.878(2) 0.551(2)
H12G H -0.2330(18) 0.122(2) -0.551(2)
H12B H -0.2670(18) 0.378(2) -0.449(2)
loop_
_geom_bond_atom_site_label_1
_geom_bond_atom_site_label_2
_geom_bond_site_symmetry_1
_geom_bond_site_symmetry_2
Cu1 O1 1_555 1_555
Cu2 O6 1_555 1_555
O1 C6 1_555 1_555
O2 C6 1_555 1_555
O3 Cu1 1_555 1_555
O4 C12 1_555 1_555
O5 Cu1 1_555 1_555
O6 C17 1_555 1_555
O7 Cu1 1_555 1_555
N1 C7 1_555 1_555
N2 C1 1_555 1_555
C1 H1 1_555 1_555
C2 C1 1_555 1_555
H2 C2 1_555 1_555
C3 C2 1_555 1_555
C4 C3 1_555 1_555
H3 C4 1_555 1_555
C5 N2 1_555 1_555
H4 C5 1_555 1_555
C6 C3 1_555 1_555
C7 H5 1_555 1_555
C8 C7 1_555 1_555
H6 C8 1_555 1_555
C9 C8 1_555 1_555
C10 C9 1_555 1_555
H7 C10 1_555 1_555
C11 N1 1_555 1_555
H8 C11 1_555 1_555
C12 O3 1_555 1_555
C13 H9 1_555 1_555
C14 C13 1_555 1_555
H10 C14 1_555 1_555
C15 C14 1_555 1_555
C16 C15 1_555 1_555
H11 C16 1_555 1_555
C17 O5 1_555 1_555
H12 O7 1_555 1_555
Cu1C O1C 1_555 1_555
Cu1C_2 N2 1_555 1_555
Cu1B O5B 1_555 1_555
Cu1E O7E 1_555 1_555
Cu1A O3A 1_555 1_555
Cu2B O6B 1_555 1_555
Cu2E O7 1_555 1_555
Cu2A N1 1_555 1_555
O1C C6C 1_555 1_555
O2C C6C 1_555 1_555
O3A C12A 1_555 1_555
O3C Cu1C 1_555 1_555
O4A C12A 1_555 1_555
O5B C17B 1_555 1_555
O5C Cu1C 1_555 1_555
O6B C17B 1_555 1_555
O7E Cu2 1_555 1_555
O7C Cu1C 1_555 1_555
O7G Cu2B 1_555 1_555
O7B Cu1B 1_555 1_555
N1A Cu2 1_555 1_555
N1C Cu2B 1_555 1_555
N2C Cu1 1_555 1_555
N2_2 Cu1C 1_555 1_555
C1C N2C 1_555 1_555
H1C C1C 1_555 1_555
C2C C1C 1_555 1_555
H2C C2C 1_555 1_555
C3C C2C 1_555 1_555
C4C C3C 1_555 1_555
H3C C4C 1_555 1_555
C5C N2C 1_555 1_555
H4C C5C 1_555 1_555
C6C C3C 1_555 1_555
C7A N1A 1_555 1_555
H5A C7A 1_555 1_555
C8A C7A 1_555 1_555
H6A C8A 1_555 1_555
C9A C8A 1_555 1_555
C10A C9A 1_555 1_555
H7A C10A 1_555 1_555
C11A N1A 1_555 1_555
H8A C11A 1_555 1_555
C12A C9A 1_555 1_555
C14B C13 1_555 1_555
H10B C14B 1_555 1_555
C15B C16 1_555 1_555
C17B C15B 1_555 1_555
H12E O7E 1_555 1_555
H12C O7C 1_555 1_555
H12G O7G 1_555 1_555
H12B O7B 1_555 1_555
Cu2 O7 1_555 1_555
C4 C5 1_555 1_555
C9 C12 1_555 1_555
C10 C11 1_555 1_555
C15 C17 1_555 1_555
Cu2B O7B 1_555 1_555
Cu2E O7E 1_555 1_555
C4C C5C 1_555 1_555
C10A C11A 1_555 1_555
C14B C15B 1_555 1_555

#END
