
#######################################################################
#
#                 Cambridge Crystallographic Data Centre
#                                CCDC 
#
#######################################################################
#
# If this CIF has been generated from an entry in the Cambridge 
# Structural Database, then it will include bibliographic, chemical, 
# crystal, experimental, refinement or atomic coordinate data resulting 
# from the CCDC's data processing and validation procedures.
#
#######################################################################

data_DEGSIS
_symmetry_cell_setting           monoclinic
_symmetry_space_group_name_H-M   'P 21/c'
_symmetry_Int_Tables_number      14
_space_group_name_Hall           '-P 2ybc'
loop_
_symmetry_equiv_pos_site_id
_symmetry_equiv_pos_as_xyz
1 x,y,z
2 -x,1/2+y,1/2-z
3 -x,-y,-z
4 x,1/2-y,1/2+z
_cell_length_a                   9.5505(5)
_cell_length_b                   11.6346(4)
_cell_length_c                   11.9841(6)
_cell_angle_alpha                90
_cell_angle_beta                 113.083(2)
_cell_angle_gamma                90
_cell_volume                     1225.02
loop_
_atom_site_label
_atom_site_type_symbol
_atom_site_fract_x
_atom_site_fract_y
_atom_site_fract_z
Cu1 Cu 0.65729(9) 0.35997(7) 0.01978(7)
N1 N 0.8009(6) 0.4833(5) 0.1236(5)
N2 N 0.5130(6) 0.2309(5) -0.0680(5)
C1 C 0.5130(7) 0.1838(6) -0.1706(5)
H1 H 0.5723 0.2176 -0.2073
C2 C 0.8837(8) 0.5545(6) 0.0868(6)
H2 H 0.8698 0.5531 0.0055
C3 C 0.9893(8) 0.6303(6) 0.1638(6)
H3 H 1.0475 0.6768 0.1355
C4 C 0.4291(8) 0.0876(6) -0.2237(6)
C5 C 0.9190(9) 0.5641(7) 0.3214(6)
H4 H 0.9261 0.5670 0.4010
C6 C 0.8208(9) 0.4881(7) 0.2400(6)
H5 H 0.7658 0.4377 0.2676
C7 C 0.4226(11) 0.1820(8) -0.0189(8)
H6 H 0.4183 0.2151 0.0504
C8 C 0.3426(10) 0.0376(8) -0.1689(8)
H7 H 0.2878 -0.0289 -0.2014
C9 C 0.3366(13) 0.0859(9) -0.0659(9)
H8 H 0.2759 0.0541 -0.0293
C10 C 1.0065(7) 0.6355(6) 0.2836(6)
O1 O 0.3790(5) -0.0626(4) -0.3662(4)
O2 O 0.4917(5) 0.0966(4) -0.3953(4)
O3 O 1.2289(5) 0.7503(4) 0.3471(4)
C11 C 1.1221(9) 0.7129(7) 0.3749(7)
O4 O 1.1088(7) 0.7360(6) 0.4698(6)
C12 C 0.4358(7) 0.0372(5) -0.3377(5)
Cu1A Cu 0.34271(9) -0.14003(7) -0.51978(7)
Cu1C Cu 0.65729(9) 0.14003(7) -0.48022(7)
Cu1A_2 Cu 1.34271(9) 0.85997(7) 0.48022(7)
O1A O 0.6210(5) 0.4374(4) -0.1338(4)
O2C O 0.4917(5) 0.4034(4) 0.1047(4)
O3A O 0.7711(5) 0.2503(4) 0.1529(4)
loop_
_geom_bond_atom_site_label_1
_geom_bond_atom_site_label_2
_geom_bond_site_symmetry_1
_geom_bond_site_symmetry_2
Cu1 N1 1_555 1_555
N1 C2 1_555 1_555
N2 Cu1 1_555 1_555
C1 N2 1_555 1_555
H1 C1 1_555 1_555
C2 H2 1_555 1_555
C3 C2 1_555 1_555
H3 C3 1_555 1_555
C4 C1 1_555 1_555
C5 H4 1_555 1_555
C6 N1 1_555 1_555
H5 C6 1_555 1_555
C7 N2 1_555 1_555
H6 C7 1_555 1_555
C8 C4 1_555 1_555
H7 C8 1_555 1_555
C9 C7 1_555 1_555
H8 C9 1_555 1_555
C10 C3 1_555 1_555
O1 C12 1_555 1_555
O2 C12 1_555 1_555
O3 C11 1_555 1_555
C11 C10 1_555 1_555
O4 C11 1_555 1_555
C12 C4 1_555 1_555
Cu1A O1 1_555 1_555
Cu1C O2 1_555 1_555
Cu1A_2 O3 1_555 1_555
O1A Cu1 1_555 1_555
O2C Cu1 1_555 1_555
O3A Cu1 1_555 1_555
C5 C6 1_555 1_555
C5 C10 1_555 1_555
C8 C9 1_555 1_555

#END
