
#######################################################################
#
#                 Cambridge Crystallographic Data Centre
#                                CCDC 
#
#######################################################################
#
# If this CIF has been generated from an entry in the Cambridge 
# Structural Database, then it will include bibliographic, chemical, 
# crystal, experimental, refinement or atomic coordinate data resulting 
# from the CCDC's data processing and validation procedures.
#
#######################################################################

data_DEHCEZ
_symmetry_cell_setting           tetragonal
_symmetry_space_group_name_H-M   'I 41/a'
_symmetry_Int_Tables_number      88
_space_group_name_Hall           '-I 4ad'
loop_
_symmetry_equiv_pos_site_id
_symmetry_equiv_pos_as_xyz
1 x,y,z
2 3/4-y,1/4+x,1/4+z
3 1/2+x,1/2+y,1/2+z
4 1/4-y,3/4+x,3/4+z
5 1/4+y,1/4-x,1/4+z
6 1/2-x,-y,1/2+z
7 3/4+y,3/4-x,3/4+z
8 -x,1/2-y,z
9 -x,-y,-z
10 1/4+y,3/4-x,3/4-z
11 1/2-x,1/2-y,1/2-z
12 3/4+y,1/4-x,1/4-z
13 3/4-y,3/4+x,3/4-z
14 1/2+x,y,1/2-z
15 1/4-y,1/4+x,1/4-z
16 x,1/2+y,-z
_cell_length_a                   22.5267(6)
_cell_length_b                   22.5267(6)
_cell_length_c                   13.1915(5)
_cell_angle_alpha                90
_cell_angle_beta                 90
_cell_angle_gamma                90
_cell_volume                     6694.06
loop_
_atom_site_label
_atom_site_type_symbol
_atom_site_fract_x
_atom_site_fract_y
_atom_site_fract_z
Ag1 Ag 0.478234(17) 0.821323(18) 1.01559(3)
Ag2 Ag 0.527060(18) 0.81170(2) 0.81960(3)
O1 O 0.63861(19) 0.90598(18) 1.0553(3)
O2 O 0.61152(15) 0.80691(17) 0.9060(2)
O3 O 0.56818(15) 0.79129(16) 1.0563(2)
O4 O 0.42969(15) 0.81482(17) 0.7790(2)
O5 O 0.40566(16) 0.85734(16) 0.9272(2)
O6 O 0.37248(16) 0.82118(16) 0.5590(2)
C1 C 0.7220(2) 0.9393(2) 1.1449(4)
H1 H 0.7567 0.9467 1.1047
H2 H 0.7337 0.9260 1.2111
H3 H 0.6993 0.9752 1.1511
C2 C 0.6851(2) 0.8929(2) 1.0952(3)
C3 C 0.7074(2) 0.8304(2) 1.0931(3)
C4 C 0.7619(2) 0.8158(2) 1.1342(4)
H4 H 0.7850 0.8453 1.1638
C5 C 0.7826(2) 0.7583(2) 1.1320(4)
H5 H 0.8196 0.7492 1.1594
C6 C 0.7484(3) 0.7142(3) 1.0892(4)
H6 H 0.7621 0.6753 1.0881
C7 C 0.6929(2) 0.7279(2) 1.0473(4)
H7 H 0.6697 0.6980 1.0189
C8 C 0.6727(2) 0.7861(2) 1.0482(3)
C9 C 0.6134(2) 0.7973(2) 0.9997(3)
C10 C 0.3948(2) 0.8421(2) 0.8373(3)
C11 C 0.3464(2) 0.7351(3) 0.6520(4)
H8 H 0.3773 0.7158 0.6144
H9 H 0.3517 0.7275 0.7230
H10 H 0.3085 0.7202 0.6306
C12 C 0.3490(2) 0.7992(2) 0.6337(3)
C13 C 0.3133(2) 0.8379(2) 0.7040(3)
C14 C 0.3341(2) 0.8567(2) 0.7988(3)
C15 C 0.2959(2) 0.8903(2) 0.8587(4)
H11 H 0.3093 0.9043 0.9209
C16 C 0.2388(2) 0.9035(2) 0.8287(4)
H12 H 0.2138 0.9252 0.8709
C17 C 0.2190(2) 0.8839(2) 0.7347(4)
H13 H 0.1807 0.8927 0.7131
C18 C 0.2559(2) 0.8520(2) 0.6750(4)
H14 H 0.2423 0.8391 0.6122
Ag1N Ag 0.428677(18) 0.728234(17) 1.23441(3)
Ag1K Ag 0.571323(18) 0.771766(17) 1.23441(3)
Ag1G Ag 0.521766(17) 0.678677(18) 1.01559(3)
Ag1N_2 Ag 0.428677(18) 0.728234(17) 0.23441(3)
Ag1K_2 Ag 0.571323(18) 0.771766(17) 0.23441(3)
Ag2N Ag 0.43830(2) 0.777060(18) 1.43040(3)
Ag2N_2 Ag 0.43830(2) 0.777060(18) 0.43040(3)
Ag2G Ag 0.472940(18) 0.68830(2) 0.81960(3)
Ag2K Ag 0.56170(2) 0.722940(18) 1.43040(3)
Ag2K_2 Ag 0.56170(2) 0.722940(18) 0.43040(3)
Ag2G_2 Ag 0.472940(18) 0.68830(2) 1.81960(3)
Ag2_2 Ag 0.527060(18) 0.81170(2) 1.81960(3)
O1N O 0.34402(18) 0.88861(19) 1.1947(3)
O1G O 0.36139(19) 0.59402(18) 1.0553(3)
O1K O 0.65598(18) 0.61139(19) 1.1947(3)
O2N O 0.44309(17) 0.86152(15) 1.3440(2)
O2G O 0.38848(15) 0.69309(17) 0.9060(2)
O2K O 0.55691(17) 0.63848(15) 1.3440(2)
O2N_2 O 0.44309(17) 0.86152(15) 0.3440(2)
O3N O 0.45871(16) 0.81818(15) 1.1937(2)
O3G O 0.43182(15) 0.70871(16) 1.0563(2)
O3K O 0.54129(16) 0.68182(15) 1.1937(2)
O4K O 0.56482(17) 0.82031(15) 0.4710(2)
O4N O 0.43518(17) 0.67969(15) 1.4710(2)
O4K_2 O 0.56482(17) 0.82031(15) 1.4710(2)
O4N_2 O 0.43518(17) 0.67969(15) 0.4710(2)
O4G O 0.57031(15) 0.68518(17) 0.7790(2)
O5K O 0.60734(16) 0.84434(16) 0.3228(2)
O5N O 0.39266(16) 0.65566(16) 1.3228(2)
O5K_2 O 0.60734(16) 0.84434(16) 1.3228(2)
O5G O 0.59434(16) 0.64266(16) 0.9272(2)
O6K O 0.57118(16) 0.87752(16) 0.6910(2)
O6N O 0.42882(16) 0.62248(16) 1.6910(2)
O6K_2 O 0.57118(16) 0.87752(16) 1.6910(2)
O6_2 O 0.37248(16) 0.82118(16) 1.5590(2)
O6N_2 O 0.42882(16) 0.62248(16) 0.6910(2)
C1N C 0.3107(2) 0.9720(2) 1.1051(4)
C1G C 0.2780(2) 0.5607(2) 1.1449(4)
C1K C 0.6893(2) 0.5280(2) 1.1051(4)
H1N H 0.3033 1.0067 1.1453
H1G H 0.2433 0.5533 1.1047
H1K H 0.6967 0.4933 1.1453
H2N H 0.3240 0.9837 1.0389
H2G H 0.2663 0.5740 1.2111
H2K H 0.6760 0.5163 1.0389
H3N H 0.2748 0.9493 1.0989
H3G H 0.3007 0.5248 1.1511
H3K H 0.7252 0.5507 1.0989
C2N C 0.3571(2) 0.9351(2) 1.1548(3)
C2G C 0.3149(2) 0.6071(2) 1.0952(3)
C2K C 0.6429(2) 0.5649(2) 1.1548(3)
C3N C 0.4196(2) 0.9574(2) 1.1569(3)
C3G C 0.2926(2) 0.6696(2) 1.0931(3)
C3K C 0.5804(2) 0.5426(2) 1.1569(3)
C4N C 0.4342(2) 1.0119(2) 1.1158(4)
C4G C 0.2381(2) 0.6842(2) 1.1342(4)
C4K C 0.5658(2) 0.4881(2) 1.1158(4)
H4N H 0.4047 1.0350 1.0862
H4G H 0.2150 0.6547 1.1638
H4K H 0.5953 0.4650 1.0862
C5N C 0.4917(2) 1.0326(2) 1.1180(4)
C5G C 0.2174(2) 0.7417(2) 1.1320(4)
C5K C 0.5083(2) 0.4674(2) 1.1180(4)
H5N H 0.5008 1.0696 1.0906
H5G H 0.1804 0.7508 1.1594
H5K H 0.4992 0.4304 1.0906
C6N C 0.5358(3) 0.9984(3) 1.1608(4)
C6G C 0.2516(3) 0.7858(3) 1.0892(4)
C6K C 0.4642(3) 0.5016(3) 1.1608(4)
H6N H 0.5747 1.0121 1.1619
H6G H 0.2379 0.8247 1.0881
H6K H 0.4253 0.4879 1.1619
C7N C 0.5221(2) 0.9429(2) 1.2027(4)
C7G C 0.3071(2) 0.7721(2) 1.0473(4)
C7K C 0.4779(2) 0.5571(2) 1.2027(4)
H7N H 0.5520 0.9197 1.2311
H7G H 0.3303 0.8020 1.0189
H7K H 0.4480 0.5803 1.2311
C8N C 0.4639(2) 0.9227(2) 1.2018(3)
C8G C 0.3273(2) 0.7139(2) 1.0482(3)
C8K C 0.5361(2) 0.5773(2) 1.2018(3)
C9N C 0.4527(2) 0.8634(2) 1.2503(3)
C9G C 0.3866(2) 0.7027(2) 0.9997(3)
C9K C 0.5473(2) 0.6366(2) 1.2503(3)
C10K C 0.5921(2) 0.8552(2) 0.4127(3)
C10N C 0.4079(2) 0.6448(2) 1.4127(3)
C10K_2 C 0.5921(2) 0.8552(2) 1.4127(3)
C11K C 0.4851(3) 0.9036(2) 0.5980(4)
C11N C 0.5149(3) 0.5964(2) 1.5980(4)
C11K_2 C 0.4851(3) 0.9036(2) 1.5980(4)
H8K H 0.4658 0.8727 0.6356
H8N H 0.5342 0.6273 1.6356
H8K_2 H 0.4658 0.8727 1.6356
H9K H 0.4775 0.8983 0.5270
H9N H 0.5225 0.6017 1.5270
H9K_2 H 0.4775 0.8983 1.5270
H10K H 0.4702 0.9415 0.6194
H10N H 0.5298 0.5585 1.6194
H10K_2 H 0.4702 0.9415 1.6194
C12K C 0.5492(2) 0.9010(2) 0.6163(3)
C12N C 0.4508(2) 0.5990(2) 1.6163(3)
C12K_2 C 0.5492(2) 0.9010(2) 1.6163(3)
C13K C 0.5879(2) 0.9367(2) 0.5460(3)
C13N C 0.4121(2) 0.5633(2) 1.5460(3)
C13K_2 C 0.5879(2) 0.9367(2) 1.5460(3)
C14K C 0.6067(2) 0.9159(2) 0.4512(3)
C14N C 0.3933(2) 0.5841(2) 1.4512(3)
C14K_2 C 0.6067(2) 0.9159(2) 1.4512(3)
C15K C 0.6403(2) 0.9541(2) 0.3913(4)
C15N C 0.3597(2) 0.5459(2) 1.3913(4)
C15K_2 C 0.6403(2) 0.9541(2) 1.3913(4)
H11K H 0.6543 0.9407 0.3291
H11N H 0.3457 0.5593 1.3291
H11K_2 H 0.6543 0.9407 1.3291
C16K C 0.6535(2) 1.0112(2) 0.4213(4)
C16N C 0.3465(2) 0.4888(2) 1.4213(4)
C16K_2 C 0.6535(2) 1.0112(2) 1.4213(4)
H12K H 0.6752 1.0362 0.3791
H12N H 0.3248 0.4638 1.3791
H12K_2 H 0.6752 1.0362 1.3791
C17K C 0.6339(2) 1.0310(2) 0.5153(4)
C17N C 0.3661(2) 0.4690(2) 1.5153(4)
C17K_2 C 0.6339(2) 1.0310(2) 1.5153(4)
H13K H 0.6427 1.0693 0.5369
H13N H 0.3573 0.4307 1.5369
H13K_2 H 0.6427 1.0693 1.5369
C18K C 0.6020(2) 0.9941(2) 0.5750(4)
C18N C 0.3980(2) 0.5059(2) 1.5750(4)
C18K_2 C 0.6020(2) 0.9941(2) 1.5750(4)
H14K H 0.5891 1.0077 0.6378
H14N H 0.4109 0.4923 1.6378
H14K_2 H 0.5891 1.0077 1.6378
O7 O 0.5000 0.7500 0.6250
loop_
_geom_bond_atom_site_label_1
_geom_bond_atom_site_label_2
_geom_bond_site_symmetry_1
_geom_bond_site_symmetry_2
Ag1 Ag2 1_555 1_555
Ag2 O2 1_555 1_555
O1 C2 1_555 1_555
O2 C9 1_555 1_555
O3 Ag1 1_555 1_555
O4 Ag2 1_555 1_555
O5 Ag1 1_555 1_555
O6 C12 1_555 1_555
C1 H1 1_555 1_555
H2 C1 1_555 1_555
H3 C1 1_555 1_555
C2 C1 1_555 1_555
C3 C2 1_555 1_555
C4 C3 1_555 1_555
H4 C4 1_555 1_555
C5 C4 1_555 1_555
H5 C5 1_555 1_555
C6 C5 1_555 1_555
H6 C6 1_555 1_555
C7 C6 1_555 1_555
H7 C7 1_555 1_555
C8 C3 1_555 1_555
C9 O3 1_555 1_555
C10 O4 1_555 1_555
C11 H8 1_555 1_555
H9 C11 1_555 1_555
H10 C11 1_555 1_555
C12 C11 1_555 1_555
C13 C12 1_555 1_555
C14 C10 1_555 1_555
C15 C14 1_555 1_555
H11 C15 1_555 1_555
C16 C15 1_555 1_555
H12 C16 1_555 1_555
C17 C16 1_555 1_555
H13 C17 1_555 1_555
C18 C13 1_555 1_555
H14 C18 1_555 1_555
Ag1N Ag2N 1_555 1_555
Ag1K O3 1_555 1_555
Ag1G Ag2G 1_555 1_555
Ag1N_2 Ag2N_2 1_555 1_555
Ag1K_2 Ag2K_2 1_555 1_555
Ag2N O2N 1_555 1_555
Ag2N_2 O6 1_555 1_555
Ag2G O2G 1_555 1_555
Ag2K Ag1K 1_555 1_555
Ag2K_2 O4K 1_555 1_555
Ag2G_2 O6N 1_555 1_555
Ag2_2 O6K_2 1_555 1_555
O1N C2N 1_555 1_555
O1G C2G 1_555 1_555
O1K C2K 1_555 1_555
O2N C9N 1_555 1_555
O2G C9G 1_555 1_555
O2K Ag2K 1_555 1_555
O2N_2 Ag2N_2 1_555 1_555
O3N Ag1 1_555 1_555
O3G Ag1N 1_555 1_555
O3K Ag1K 1_555 1_555
O4K C10K 1_555 1_555
O4N Ag2N 1_555 1_555
O4K_2 Ag2K 1_555 1_555
O4N_2 Ag2N_2 1_555 1_555
O4G Ag2G 1_555 1_555
O5K Ag1K_2 1_555 1_555
O5N Ag1N 1_555 1_555
O5K_2 Ag1K 1_555 1_555
O5G Ag1G 1_555 1_555
O6K Ag2 1_555 1_555
O6N C12N 1_555 1_555
O6K_2 C12K_2 1_555 1_555
O6_2 Ag2N 1_555 1_555
O6N_2 Ag2G 1_555 1_555
C1N H1N 1_555 1_555
C1G H1G 1_555 1_555
C1K H1K 1_555 1_555
H2N C1N 1_555 1_555
H2G C1G 1_555 1_555
H2K C1K 1_555 1_555
H3N C1N 1_555 1_555
H3G C1G 1_555 1_555
H3K C1K 1_555 1_555
C2N C1N 1_555 1_555
C2G C1G 1_555 1_555
C2K C1K 1_555 1_555
C3N C2N 1_555 1_555
C3G C2G 1_555 1_555
C3K C2K 1_555 1_555
C4N C3N 1_555 1_555
C4G C3G 1_555 1_555
C4K C3K 1_555 1_555
H4N C4N 1_555 1_555
H4G C4G 1_555 1_555
H4K C4K 1_555 1_555
C5N C4N 1_555 1_555
C5G C4G 1_555 1_555
C5K C4K 1_555 1_555
H5N C5N 1_555 1_555
H5G C5G 1_555 1_555
H5K C5K 1_555 1_555
C6N C5N 1_555 1_555
C6G C5G 1_555 1_555
C6K C5K 1_555 1_555
H6N C6N 1_555 1_555
H6G C6G 1_555 1_555
H6K C6K 1_555 1_555
C7N C6N 1_555 1_555
C7G C6G 1_555 1_555
C7K C6K 1_555 1_555
H7N C7N 1_555 1_555
H7G C7G 1_555 1_555
H7K C7K 1_555 1_555
C8N C3N 1_555 1_555
C8G C3G 1_555 1_555
C8K C3K 1_555 1_555
C9N O3N 1_555 1_555
C9G O3G 1_555 1_555
C9K O2K 1_555 1_555
C10K O5K 1_555 1_555
C10N O4N 1_555 1_555
C10K_2 O4K_2 1_555 1_555
C11K H8K 1_555 1_555
C11N H8N 1_555 1_555
C11K_2 H8K_2 1_555 1_555
H9K C11K 1_555 1_555
H9N C11N 1_555 1_555
H9K_2 C11K_2 1_555 1_555
H10K C11K 1_555 1_555
H10N C11N 1_555 1_555
H10K_2 C11K_2 1_555 1_555
C12K O6K 1_555 1_555
C12N C11N 1_555 1_555
C12K_2 C11K_2 1_555 1_555
C13K C12K 1_555 1_555
C13N C12N 1_555 1_555
C13K_2 C12K_2 1_555 1_555
C14K C10K 1_555 1_555
C14N C10N 1_555 1_555
C14K_2 C10K_2 1_555 1_555
C15K C14K 1_555 1_555
C15N C14N 1_555 1_555
C15K_2 C14K_2 1_555 1_555
H11K C15K 1_555 1_555
H11N C15N 1_555 1_555
H11K_2 C15K_2 1_555 1_555
C16K C15K 1_555 1_555
C16N C15N 1_555 1_555
C16K_2 C15K_2 1_555 1_555
H12K C16K 1_555 1_555
H12N C16N 1_555 1_555
H12K_2 C16K_2 1_555 1_555
C17K C16K 1_555 1_555
C17N C16N 1_555 1_555
C17K_2 C16K_2 1_555 1_555
H13K C17K 1_555 1_555
H13N C17N 1_555 1_555
H13K_2 C17K_2 1_555 1_555
C18K C13K 1_555 1_555
C18N C13N 1_555 1_555
C18K_2 C13K_2 1_555 1_555
H14K C18K 1_555 1_555
H14N C18N 1_555 1_555
H14K_2 C18K_2 1_555 1_555
O5 C10 1_555 1_555
C7 C8 1_555 1_555
C8 C9 1_555 1_555
C13 C14 1_555 1_555
C17 C18 1_555 1_555
Ag1N O3N 1_555 1_555
Ag1G O3G 1_555 1_555
Ag1G O3K 1_555 1_555
O3K C9K 1_555 1_555
O5N C10N 1_555 1_555
O5K_2 C10K_2 1_555 1_555
C7N C8N 1_555 1_555
C7G C8G 1_555 1_555
C7K C8K 1_555 1_555
C8N C9N 1_555 1_555
C8G C9G 1_555 1_555
C8K C9K 1_555 1_555
C11K C12K 1_555 1_555
C13K C14K 1_555 1_555
C13N C14N 1_555 1_555
C13K_2 C14K_2 1_555 1_555
C17K C18K 1_555 1_555
C17N C18N 1_555 1_555
C17K_2 C18K_2 1_555 1_555

#END
