
#######################################################################
#
#                 Cambridge Crystallographic Data Centre
#                                CCDC 
#
#######################################################################
#
# If this CIF has been generated from an entry in the Cambridge 
# Structural Database, then it will include bibliographic, chemical, 
# crystal, experimental, refinement or atomic coordinate data resulting 
# from the CCDC's data processing and validation procedures.
#
#######################################################################

data_DEHWIY
_symmetry_cell_setting           orthorhombic
_symmetry_space_group_name_H-M   'P 21 21 21'
_symmetry_Int_Tables_number      19
_space_group_name_Hall           'P 2ac 2ab'
loop_
_symmetry_equiv_pos_site_id
_symmetry_equiv_pos_as_xyz
1 x,y,z
2 1/2-x,-y,1/2+z
3 1/2+x,1/2-y,-z
4 -x,1/2+y,1/2-z
_cell_length_a                   9.705(2)
_cell_length_b                   14.752(3)
_cell_length_c                   21.312(4)
_cell_angle_alpha                90
_cell_angle_beta                 90
_cell_angle_gamma                90
_cell_volume                     3051.2
loop_
_atom_site_label
_atom_site_type_symbol
_atom_site_fract_x
_atom_site_fract_y
_atom_site_fract_z
Mn1 Mn 0.73063(5) 0.40235(3) 0.233650(19)
P1 P 0.88405(7) 0.30399(5) 0.09610(3)
O1 O 0.7857(2) 0.33130(15) 0.14641(9)
N1 N 0.7492(3) 0.54371(17) 0.19338(12)
C1 C 0.8654(3) 0.3768(2) 0.02892(12)
O2 O 0.7743(4) 0.64541(18) -0.10890(11)
N2 N 0.9524(3) 0.45068(18) 0.24846(14)
C2 C 0.8417(5) 0.4680(2) 0.04041(15)
H1 H 0.8377 0.4886 0.0816
O3 O 0.8224(3) 0.53698(16) -0.17663(10)
C3 C 0.8239(5) 0.5290(2) -0.00809(16)
H2 H 0.8087 0.5899 0.0007
O4 O 1.5244(2) 0.38708(16) 0.20490(12)
C4 C 0.8287(3) 0.4997(2) -0.06931(14)
O5 O 1.5099(3) 0.23872(19) 0.22551(17)
C5 C 0.8537(4) 0.4096(2) -0.08174(13)
H3 H 0.8584 0.3897 -0.1231
O6 O 0.8795(4) -0.1307(2) -0.0119(2)
C6 C 0.8719(4) 0.3481(2) -0.03296(13)
H4 H 0.8885 0.2874 -0.0419
O7 O 0.6627(3) -0.1092(2) 0.0116(2)
C7 C 0.8065(4) 0.5661(2) -0.12236(14)
O8 O 0.7499(3) 0.27045(13) 0.28217(10)
C8 C 1.0598(3) 0.3073(2) 0.12253(12)
C9 C 1.1516(3) 0.3755(2) 0.10686(14)
H5 H 1.1260 0.4200 0.0782
C10 C 1.2814(3) 0.3776(2) 0.13373(15)
H6 H 1.3414 0.4247 0.1239
C11 C 1.3231(3) 0.3107(2) 0.17483(14)
C12 C 1.2315(4) 0.2415(2) 0.18967(14)
H7 H 1.2586 0.1956 0.2169
C13 C 1.1019(3) 0.2403(2) 0.16455(15)
H8 H 1.0411 0.1942 0.1756
C14 C 1.4640(3) 0.3119(2) 0.20474(16)
C15 C 0.8572(3) 0.18881(19) 0.07006(13)
C16 C 0.9600(3) 0.1418(2) 0.03771(17)
H9 H 1.0436 0.1699 0.0290
C17 C 0.9373(4) 0.0538(2) 0.01869(18)
H10 H 1.0065 0.0223 -0.0022
C18 C 0.8121(3) 0.0118(2) 0.03046(16)
C19 C 0.7108(4) 0.0585(2) 0.06186(17)
H11 H 0.6263 0.0308 0.0696
C20 C 0.7337(3) 0.1467(2) 0.08221(15)
H12 H 0.6652 0.1774 0.1041
C21 C 0.7893(4) -0.0829(2) 0.00772(19)
C22 C 1.0461(4) 0.4048(3) 0.28187(19)
H13 H 1.0223 0.3483 0.2979
C23 C 1.1772(5) 0.4381(4) 0.2936(2)
H14 H 1.2400 0.4042 0.3168
C24 C 1.2124(5) 0.5198(4) 0.2710(3)
H15 H 1.2997 0.5434 0.2786
C25 C 1.1186(5) 0.5681(3) 0.2367(2)
H16 H 1.1422 0.6246 0.2206
C26 C 0.9857(4) 0.5322(2) 0.22565(17)
C27 C 0.8766(4) 0.5797(2) 0.19082(16)
C28 C 0.9009(6) 0.6582(3) 0.1553(2)
H17 H 0.9894 0.6819 0.1523
C29 C 0.7947(8) 0.6993(3) 0.1254(2)
H18 H 0.8104 0.7506 0.1010
C30 C 0.6641(7) 0.6651(3) 0.1311(2)
H19 H 0.5899 0.6943 0.1122
C31 C 0.6440(3) 0.58578(15) 0.16575(12)
H20 H 0.5557 0.5620 0.1696
H21 H 0.6700 0.2479 0.2711
H22 H 0.7421 0.2898 0.3292
Mn1_2 Mn 1.73063(5) 0.40235(3) 0.233650(19)
Mn1A Mn 0.76937(5) 0.59765(3) -0.266350(19)
O3A O 0.6776(3) 0.46302(16) 0.32337(10)
O4_2 O 0.5244(2) 0.38708(16) 0.20490(12)
O9 O 0.6045(3) -0.26487(15) -0.03191(12)
H23 H 0.5367 -0.2983 -0.0214
H24 H 0.6276 -0.3010 -0.0646
loop_
_geom_bond_atom_site_label_1
_geom_bond_atom_site_label_2
_geom_bond_site_symmetry_1
_geom_bond_site_symmetry_2
Mn1 O1 1_555 1_555
P1 O1 1_555 1_555
N1 Mn1 1_555 1_555
C1 P1 1_555 1_555
O2 C7 1_555 1_555
N2 Mn1 1_555 1_555
C2 C1 1_555 1_555
H1 C2 1_555 1_555
O3 C7 1_555 1_555
C3 C2 1_555 1_555
H2 C3 1_555 1_555
O4 C14 1_555 1_555
C4 C3 1_555 1_555
O5 C14 1_555 1_555
C5 C4 1_555 1_555
H3 C5 1_555 1_555
O6 C21 1_555 1_555
C6 C1 1_555 1_555
H4 C6 1_555 1_555
O7 C21 1_555 1_555
C7 C4 1_555 1_555
O8 Mn1 1_555 1_555
C8 P1 1_555 1_555
C9 C8 1_555 1_555
H5 C9 1_555 1_555
C10 C9 1_555 1_555
H6 C10 1_555 1_555
C11 C10 1_555 1_555
C12 C11 1_555 1_555
H7 C12 1_555 1_555
C13 C8 1_555 1_555
H8 C13 1_555 1_555
C14 C11 1_555 1_555
C15 P1 1_555 1_555
C16 C15 1_555 1_555
H9 C16 1_555 1_555
C17 C16 1_555 1_555
H10 C17 1_555 1_555
C18 C17 1_555 1_555
C19 C18 1_555 1_555
H11 C19 1_555 1_555
C20 C15 1_555 1_555
H12 C20 1_555 1_555
C21 C18 1_555 1_555
C22 N2 1_555 1_555
H13 C22 1_555 1_555
C23 C22 1_555 1_555
H14 C23 1_555 1_555
C24 C23 1_555 1_555
H15 C24 1_555 1_555
C25 C24 1_555 1_555
H16 C25 1_555 1_555
C26 N2 1_555 1_555
C27 N1 1_555 1_555
C28 C27 1_555 1_555
H17 C28 1_555 1_555
C29 C28 1_555 1_555
H18 C29 1_555 1_555
C30 C29 1_555 1_555
H19 C30 1_555 1_555
C31 N1 1_555 1_555
H20 C31 1_555 1_555
H21 O8 1_555 1_555
H22 O8 1_555 1_555
O9 H23 1_555 1_555
H24 O9 1_555 1_555
Mn1_2 O4 1_555 1_555
Mn1A O3 1_555 1_555
O3A Mn1 1_555 1_555
O4_2 Mn1 1_555 1_555
C5 C6 1_555 1_555
C12 C13 1_555 1_555
C19 C20 1_555 1_555
C25 C26 1_555 1_555
C26 C27 1_555 1_555
C30 C31 1_555 1_555

#END
