
#######################################################################
#
#                 Cambridge Crystallographic Data Centre
#                                CCDC 
#
#######################################################################
#
# If this CIF has been generated from an entry in the Cambridge 
# Structural Database, then it will include bibliographic, chemical, 
# crystal, experimental, refinement or atomic coordinate data resulting 
# from the CCDC's data processing and validation procedures.
#
#######################################################################

data_DEHWOE
_symmetry_cell_setting           triclinic
_symmetry_space_group_name_H-M   'P -1'
_symmetry_Int_Tables_number      2
_space_group_name_Hall           '-P 1'
loop_
_symmetry_equiv_pos_site_id
_symmetry_equiv_pos_as_xyz
1 x,y,z
2 -x,-y,-z
_cell_length_a                   9.80650(10)
_cell_length_b                   11.2220(2)
_cell_length_c                   11.5825(4)
_cell_angle_alpha                88.023(9)
_cell_angle_beta                 79.417(7)
_cell_angle_gamma                67.685(6)
_cell_volume                     1158.25
loop_
_atom_site_label
_atom_site_type_symbol
_atom_site_fract_x
_atom_site_fract_y
_atom_site_fract_z
Mn1 Mn 0.05117(3) 0.31426(2) 0.36542(2)
P1 P 0.18559(4) 0.36881(4) 0.60230(3)
O1 O 0.11170(13) 0.31155(12) 0.53000(10)
O2 O 0.13816(13) 0.51307(11) 0.60825(10)
O3 O -0.00090(15) 0.29732(12) 1.18454(10)
O4 O 0.03021(17) 0.10202(12) 1.11798(11)
O5 O 0.93716(13) 0.19109(12) 0.42708(11)
O6 O 0.88830(15) 0.06944(13) 0.30461(12)
N1 N 0.23131(16) 0.39462(14) 0.27861(13)
N2 N 0.26462(16) 0.14327(14) 0.28130(13)
C1 C 0.15166(17) 0.31604(15) 0.75065(13)
C2 C 0.16416(19) 0.38243(16) 0.84546(14)
H1 H 0.1975 0.4499 0.8319
C3 C 0.1273(2) 0.34846(16) 0.95939(15)
H2 H 0.1359 0.3931 1.0221
C4 C 0.07739(18) 0.24778(15) 0.98034(14)
C5 C 0.0673(2) 0.17949(16) 0.88620(15)
H3 H 0.0360 0.1109 0.8999
C6 C 0.1039(2) 0.21388(16) 0.77192(14)
H4 H 0.0966 0.1685 0.7092
C7 C 0.03182(19) 0.21645(16) 1.10448(14)
C8 C 0.38554(17) 0.29809(15) 0.55022(13)
C9 C 0.44900(18) 0.17965(15) 0.48825(15)
H5 H 0.3893 0.1339 0.4804
C10 C 0.59995(18) 0.12932(15) 0.43821(15)
H6 H 0.6405 0.0516 0.3948
C11 C 0.69104(18) 0.19522(15) 0.45304(14)
C12 C 0.62957(19) 0.31063(17) 0.51888(16)
H7 H 0.6907 0.3534 0.5312
C13 C 0.47800(19) 0.36245(16) 0.56631(16)
H8 H 0.4376 0.4405 0.6091
C14 C 0.85178(18) 0.14822(15) 0.39153(14)
C15 C 0.2188(2) 0.51619(19) 0.28293(18)
H9 H 0.1336 0.5761 0.3285
C16 C 0.3282(3) 0.5585(2) 0.2220(2)
H10 H 0.3144 0.6450 0.2261
C17 C 0.4550(3) 0.4716(2) 0.1568(2)
H11 H 0.5283 0.4986 0.1158
C18 C 0.4748(2) 0.3413(2) 0.15151(18)
C19 C 0.6056(2) 0.2426(3) 0.0867(2)
H12 H 0.6818 0.2651 0.0441
C20 C 0.6206(2) 0.1194(2) 0.0862(2)
H13 H 0.7063 0.0580 0.0425
C21 C 0.5072(2) 0.0798(2) 0.15176(17)
C22 C 0.5209(2) -0.0493(2) 0.1601(2)
H14 H 0.6055 -0.1144 0.1193
C23 C 0.4103(2) -0.0788(2) 0.2280(2)
H15 H 0.4193 -0.1642 0.2347
C24 C 0.2827(2) 0.02038(18) 0.28766(18)
H16 H 0.2076 -0.0010 0.3337
C25 C 0.37565(19) 0.17369(17) 0.21550(15)
C26 C 0.35832(19) 0.30703(18) 0.21476(15)
Mn1A Mn -0.05117(3) 0.68574(2) 0.63458(2)
Mn1_2 Mn 0.05117(3) 0.31426(2) 1.36542(2)
Mn1_3 Mn 1.05117(3) 0.31426(2) 0.36542(2)
Mn1A_2 Mn -1.05117(3) 0.68574(2) 0.63458(2)
Mn1A_3 Mn -0.05117(3) 0.68574(2) -0.36542(2)
P1A P -0.18559(4) 0.63119(4) 0.39770(3)
O1A O -0.11170(13) 0.68845(12) 0.47000(10)
O2A O -0.13816(13) 0.48693(11) 0.39175(10)
O3A O 0.00090(15) 0.70268(12) -0.18454(10)
O3_2 O -0.00090(15) 0.29732(12) 0.18454(10)
O3A_2 O 0.00090(15) 0.70268(12) 0.81546(10)
O4A O -0.03021(17) 0.89798(12) -0.11798(11)
O5A O -0.93716(13) 0.80891(12) 0.57292(11)
O5_2 O -0.06284(13) 0.19109(12) 0.42708(11)
O5A_2 O 0.06284(13) 0.80891(12) 0.57292(11)
O6A O -0.88830(15) 0.93056(13) 0.69539(12)
N1A N -0.23131(16) 0.60538(14) 0.72139(13)
N2A N -0.26462(16) 0.85673(14) 0.71870(13)
C1A C -0.15166(17) 0.68396(15) 0.24935(13)
C2A C -0.16416(19) 0.61757(16) 0.15454(14)
H1A H -0.1975 0.5501 0.1681
C3A C -0.1273(2) 0.65154(16) 0.04061(15)
H2A H -0.1359 0.6069 -0.0221
C4A C -0.07739(18) 0.75222(15) 0.01966(14)
C5A C -0.0673(2) 0.82051(16) 0.11380(15)
H3A H -0.0360 0.8891 0.1001
C6A C -0.1039(2) 0.78612(16) 0.22808(14)
H4A H -0.0966 0.8315 0.2908
C7A C -0.03182(19) 0.78355(16) -0.10448(14)
C8A C -0.38554(17) 0.70191(15) 0.44978(13)
C9A C -0.44900(18) 0.82035(15) 0.51175(15)
H5A H -0.3893 0.8661 0.5196
C10A C -0.59995(18) 0.87068(15) 0.56179(15)
H6A H -0.6405 0.9484 0.6052
C11A C -0.69104(18) 0.80478(15) 0.54696(14)
C12A C -0.62957(19) 0.68937(17) 0.48112(16)
H7A H -0.6907 0.6466 0.4688
C13A C -0.47800(19) 0.63755(16) 0.43369(16)
H8A H -0.4376 0.5595 0.3909
C14A C -0.85178(18) 0.85178(15) 0.60847(14)
C15A C -0.2188(2) 0.48381(19) 0.71707(18)
H9A H -0.1336 0.4239 0.6715
C16A C -0.3282(3) 0.4415(2) 0.7780(2)
H10A H -0.3144 0.3550 0.7739
C17A C -0.4550(3) 0.5284(2) 0.8432(2)
H11A H -0.5283 0.5014 0.8842
C18A C -0.4748(2) 0.6587(2) 0.84849(18)
C19A C -0.6056(2) 0.7574(3) 0.9133(2)
H12A H -0.6818 0.7349 0.9559
C20A C -0.6206(2) 0.8806(2) 0.9138(2)
H13A H -0.7063 0.9420 0.9575
C21A C -0.5072(2) 0.9202(2) 0.84824(17)
C22A C -0.5209(2) 1.0493(2) 0.8399(2)
H14A H -0.6055 1.1144 0.8807
C23A C -0.4103(2) 1.0788(2) 0.7720(2)
H15A H -0.4193 1.1642 0.7653
C24A C -0.2827(2) 0.97962(18) 0.71234(18)
H16A H -0.2076 1.0010 0.6663
C25A C -0.37565(19) 0.82631(17) 0.78450(15)
C26A C -0.35832(19) 0.69297(18) 0.78524(15)
loop_
_geom_bond_atom_site_label_1
_geom_bond_atom_site_label_2
_geom_bond_site_symmetry_1
_geom_bond_site_symmetry_2
Mn1 O1 1_555 1_555
P1 O1 1_555 1_555
O2 P1 1_555 1_555
O3 C7 1_555 1_555
O4 C7 1_555 1_555
O5 C14 1_555 1_555
O6 C14 1_555 1_555
N1 Mn1 1_555 1_555
N2 Mn1 1_555 1_555
C1 P1 1_555 1_555
C2 C1 1_555 1_555
H1 C2 1_555 1_555
C3 C2 1_555 1_555
H2 C3 1_555 1_555
C4 C3 1_555 1_555
C5 C4 1_555 1_555
H3 C5 1_555 1_555
C6 C1 1_555 1_555
H4 C6 1_555 1_555
C7 C4 1_555 1_555
C8 P1 1_555 1_555
C9 C8 1_555 1_555
H5 C9 1_555 1_555
C10 C9 1_555 1_555
H6 C10 1_555 1_555
C11 C10 1_555 1_555
C12 C11 1_555 1_555
H7 C12 1_555 1_555
C13 C8 1_555 1_555
H8 C13 1_555 1_555
C14 C11 1_555 1_555
C15 N1 1_555 1_555
H9 C15 1_555 1_555
C16 C15 1_555 1_555
H10 C16 1_555 1_555
C17 C16 1_555 1_555
H11 C17 1_555 1_555
C18 C17 1_555 1_555
C19 C18 1_555 1_555
H12 C19 1_555 1_555
C20 C19 1_555 1_555
H13 C20 1_555 1_555
C21 C20 1_555 1_555
C22 C21 1_555 1_555
H14 C22 1_555 1_555
C23 C22 1_555 1_555
H15 C23 1_555 1_555
C24 N2 1_555 1_555
H16 C24 1_555 1_555
C25 N2 1_555 1_555
C26 N1 1_555 1_555
Mn1A O2 1_555 1_555
Mn1_2 O3 1_555 1_555
Mn1_3 O5 1_555 1_555
Mn1A_2 O5A 1_555 1_555
Mn1A_3 O3A 1_555 1_555
P1A O1A 1_555 1_555
O1A Mn1A 1_555 1_555
O2A Mn1 1_555 1_555
O3A C7A 1_555 1_555
O3_2 Mn1 1_555 1_555
O3A_2 Mn1A 1_555 1_555
O4A C7A 1_555 1_555
O5A C14A 1_555 1_555
O5_2 Mn1 1_555 1_555
O5A_2 Mn1A 1_555 1_555
O6A C14A 1_555 1_555
N1A Mn1A 1_555 1_555
N2A Mn1A 1_555 1_555
C1A P1A 1_555 1_555
C2A C1A 1_555 1_555
H1A C2A 1_555 1_555
C3A C2A 1_555 1_555
H2A C3A 1_555 1_555
C4A C3A 1_555 1_555
C5A C4A 1_555 1_555
H3A C5A 1_555 1_555
C6A C1A 1_555 1_555
H4A C6A 1_555 1_555
C7A C4A 1_555 1_555
C8A P1A 1_555 1_555
C9A C8A 1_555 1_555
H5A C9A 1_555 1_555
C10A C9A 1_555 1_555
H6A C10A 1_555 1_555
C11A C10A 1_555 1_555
C12A C11A 1_555 1_555
H7A C12A 1_555 1_555
C13A C8A 1_555 1_555
H8A C13A 1_555 1_555
C14A C11A 1_555 1_555
C15A N1A 1_555 1_555
H9A C15A 1_555 1_555
C16A C15A 1_555 1_555
H10A C16A 1_555 1_555
C17A C16A 1_555 1_555
H11A C17A 1_555 1_555
C18A C17A 1_555 1_555
C19A C18A 1_555 1_555
H12A C19A 1_555 1_555
C20A C19A 1_555 1_555
H13A C20A 1_555 1_555
C21A C20A 1_555 1_555
C22A C21A 1_555 1_555
H14A C22A 1_555 1_555
C23A C22A 1_555 1_555
H15A C23A 1_555 1_555
C24A N2A 1_555 1_555
H16A C24A 1_555 1_555
C25A N2A 1_555 1_555
C26A N1A 1_555 1_555
C5 C6 1_555 1_555
C12 C13 1_555 1_555
C18 C26 1_555 1_555
C21 C25 1_555 1_555
C23 C24 1_555 1_555
C25 C26 1_555 1_555
P1A O2A 1_555 1_555
C5A C6A 1_555 1_555
C12A C13A 1_555 1_555
C18A C26A 1_555 1_555
C21A C25A 1_555 1_555
C23A C24A 1_555 1_555
C25A C26A 1_555 1_555

#END
