
#######################################################################
#
#                 Cambridge Crystallographic Data Centre
#                                CCDC 
#
#######################################################################
#
# If this CIF has been generated from an entry in the Cambridge 
# Structural Database, then it will include bibliographic, chemical, 
# crystal, experimental, refinement or atomic coordinate data resulting 
# from the CCDC's data processing and validation procedures.
#
#######################################################################

data_DEHXAQ
_symmetry_cell_setting           triclinic
_symmetry_space_group_name_H-M   'P -1'
_symmetry_Int_Tables_number      2
_space_group_name_Hall           '-P 1'
loop_
_symmetry_equiv_pos_site_id
_symmetry_equiv_pos_as_xyz
1 x,y,z
2 -x,-y,-z
_cell_length_a                   8.5935(18)
_cell_length_b                   9.675(2)
_cell_length_c                   12.697(3)
_cell_angle_alpha                102.633(4)
_cell_angle_beta                 95.234(4)
_cell_angle_gamma                106.584(3)
_cell_volume                     973.834
loop_
_atom_site_label
_atom_site_type_symbol
_atom_site_fract_x
_atom_site_fract_y
_atom_site_fract_z
Tb1 Tb 0.63129(3) 0.20361(2) 0.508002(17)
C1 C 0.6676(7) 0.0849(7) 0.6956(5)
C2 C 0.6580(8) 0.0158(7) 0.7900(5)
H1 H 0.5441 -0.0206 0.7997
H2 H 0.6999 -0.0684 0.7754
C3 C 0.7778(8) 0.0688(7) 0.9774(5)
C4 C 0.6855(10) -0.0650(9) 0.9914(6)
H3 H 0.5957 -0.1261 0.9387
C5 C 0.7260(10) -0.1092(9) 1.0841(6)
H4 H 0.6619 -0.1995 1.0937
C6 C 0.8584(7) -0.0222(6) 1.1613(4)
C7 C 0.9486(9) 0.1152(8) 1.1483(5)
H5 H 1.0367 0.1777 1.2017
C8 C 0.9078(10) 0.1591(7) 1.0566(5)
H6 H 0.9691 0.2510 1.0481
C9 C 0.8062(8) -0.1707(7) 1.2923(5)
H7 H 0.8697 -0.2155 1.3335
H8 H 0.7361 -0.2491 1.2308
C10 C 0.6980(7) -0.1089(6) 1.3650(4)
C11 C 0.5449(7) 0.3409(6) 0.3475(4)
C12 C 0.4988(8) 0.4196(7) 0.2657(5)
H9 H 0.3820 0.3771 0.2371
H10 H 0.5215 0.5245 0.3010
C13 C 0.5414(7) 0.4556(6) 0.0921(5)
C14 C 0.6162(8) 0.4269(7) 0.0018(5)
H11 H 0.6944 0.3775 0.0031
C15 C 0.4246(8) 0.5285(7) 0.0913(5)
H12 H 0.3739 0.5475 0.1521
O1 O 0.7319(6) 0.2214(5) 0.7073(3)
O2 O 0.6038(5) -0.0037(4) 0.6005(3)
O3 O 0.7519(6) 0.1229(5) 0.8868(3)
O4 O 0.9165(5) -0.0625(5) 1.2513(3)
O5 O 0.7291(5) 0.0294(4) 1.3936(3)
O6 O 0.5898(5) -0.2049(5) 1.3924(3)
O7 O 0.4587(5) 0.3317(5) 0.4226(3)
O8 O 0.6600(5) 0.2866(5) 0.3419(3)
O9 O 0.5898(6) 0.4046(5) 0.1789(3)
O10 O 0.7286(5) 0.4690(5) 0.5876(4)
H13 H 0.7224 0.5140 0.5376
H14 H 0.8281 0.4948 0.6186
O11 O 0.9179(6) 0.2873(6) 0.5341(4)
H15 H 0.9546 0.3463 0.5974
H16 H 0.9535 0.2130 0.5286
Tb1A Tb 0.36871(3) -0.20361(2) 0.491998(17)
Tb1_2 Tb 0.63129(3) 0.20361(2) 1.508002(17)
Tb1A_2 Tb 0.36871(3) -0.20361(2) 1.491998(17)
Tb1A_3 Tb 0.36871(3) 0.79639(2) -0.508002(17)
Tb1A_4 Tb 0.36871(3) -0.20361(2) -0.508002(17)
Tb1_3 Tb 0.63129(3) 0.20361(2) -0.491998(17)
C1A C 0.3324(7) -0.0849(7) 0.3044(5)
C2A C 0.3420(8) -0.0158(7) 0.2100(5)
H1A H 0.4559 0.0206 0.2003
H2A H 0.3001 0.0684 0.2246
C3A C 0.2222(8) -0.0688(7) 0.0226(5)
C4A C 0.3145(10) 0.0650(9) 0.0086(6)
H3A H 0.4043 0.1261 0.0613
C5A C 0.2740(10) 0.1092(9) -0.0841(6)
H4A H 0.3381 0.1995 -0.0937
C6A C 0.1416(7) 0.0222(6) -0.1613(4)
C7A C 0.0514(9) -0.1152(8) -0.1483(5)
H5A H -0.0367 -0.1777 -0.2017
C8A C 0.0922(10) -0.1591(7) -0.0566(5)
H6A H 0.0309 -0.2510 -0.0481
C9A C 0.1938(8) 0.1707(7) -0.2923(5)
H7A H 0.1303 0.2155 -0.3335
H8A H 0.2639 0.2491 -0.2308
C10A C 0.3020(7) 0.1089(6) -0.3650(4)
C11A C 0.4551(7) 0.6591(6) -0.3475(4)
C12A C 0.5012(8) 0.5804(7) -0.2657(5)
H9A H 0.6180 0.6229 -0.2371
H10A H 0.4785 0.4755 -0.3010
C13A C 0.4586(7) 0.5444(6) -0.0921(5)
C14A C 0.3838(8) 0.5731(7) -0.0018(5)
H11A H 0.3056 0.6225 -0.0031
C15A C 0.5754(8) 0.4715(7) -0.0913(5)
H12A H 0.6261 0.4525 -0.1521
O1A O 0.2681(6) -0.2214(5) 0.2927(3)
O2A O 0.3962(5) 0.0037(4) 0.3995(3)
O3A O 0.2481(6) -0.1229(5) 0.1132(3)
O4A O 0.0835(5) 0.0625(5) -0.2513(3)
O5A O 0.2709(5) -0.0294(4) -0.3936(3)
O5_2 O 0.7291(5) 0.0294(4) 0.3936(3)
O5A_2 O 0.2709(5) -0.0294(4) 0.6064(3)
O6A O 0.4102(5) 0.2049(5) -0.3924(3)
O6A_2 O 0.4102(5) 0.2049(5) 0.6076(3)
O6_2 O 0.5898(5) -0.2049(5) 0.3924(3)
O7A O 0.5413(5) 0.6683(5) -0.4226(3)
O7A_2 O 0.5413(5) -0.3317(5) 0.5774(3)
O8A O 0.3400(5) 0.7134(5) -0.3419(3)
O8A_2 O 0.3400(5) -0.2866(5) 0.6581(3)
O9A O 0.4102(6) 0.5954(5) -0.1789(3)
O10A O 0.2714(5) -0.4690(5) 0.4124(4)
H13A H 0.2776 -0.5140 0.4624
H14A H 0.1719 -0.4948 0.3814
O11A O 0.0821(6) -0.2873(6) 0.4659(4)
H15A H 0.0454 -0.3463 0.4026
H16A H 0.0465 -0.2130 0.4714
O12 O 0.8797(6) 0.8219(7) 0.5800(5)
H17 H 0.8261 0.8260 0.5217
H18 H 0.8305 0.8429 0.6335
O13 O 0.9540(6) 0.4542(6) 0.3059(4)
H19 H 0.9638 0.4857 0.2486
H20 H 0.8717 0.3755 0.2922
O14 O 0.0182(8) 0.5748(8) 0.1141(5)
H21 H 0.1108 0.5635 0.1317
H22 H 0.0326 0.6643 0.1110
loop_
_geom_bond_atom_site_label_1
_geom_bond_atom_site_label_2
_geom_bond_site_symmetry_1
_geom_bond_site_symmetry_2
Tb1 O1 1_555 1_555
C1 C2 1_555 1_555
C2 H1 1_555 1_555
H2 C2 1_555 1_555
C3 C4 1_555 1_555
C4 H3 1_555 1_555
C5 C4 1_555 1_555
H4 C5 1_555 1_555
C6 C5 1_555 1_555
C7 C6 1_555 1_555
H5 C7 1_555 1_555
C8 C3 1_555 1_555
H6 C8 1_555 1_555
C9 H7 1_555 1_555
H8 C9 1_555 1_555
C10 C9 1_555 1_555
C11 C12 1_555 1_555
C12 H9 1_555 1_555
H10 C12 1_555 1_555
C13 C14 1_555 1_555
C14 H11 1_555 1_555
C15 C13 1_555 1_555
H12 C15 1_555 1_555
O1 C1 1_555 1_555
O2 Tb1 1_555 1_555
O3 C2 1_555 1_555
O4 C6 1_555 1_555
O5 C10 1_555 1_555
O6 C10 1_555 1_555
O7 Tb1 1_555 1_555
O8 Tb1 1_555 1_555
O9 C12 1_555 1_555
O10 Tb1 1_555 1_555
H13 O10 1_555 1_555
H14 O10 1_555 1_555
O11 Tb1 1_555 1_555
H15 O11 1_555 1_555
H16 O11 1_555 1_555
O12 H17 1_555 1_555
H18 O12 1_555 1_555
O13 H19 1_555 1_555
H20 O13 1_555 1_555
O14 H21 1_555 1_555
H22 O14 1_555 1_555
Tb1A O2 1_555 1_555
Tb1_2 O5 1_555 1_555
Tb1A_2 O6 1_555 1_555
Tb1A_3 O7A 1_555 1_555
Tb1A_4 O5A 1_555 1_555
Tb1_3 O6A 1_555 1_555
C1A C2A 1_555 1_555
C2A H1A 1_555 1_555
H2A C2A 1_555 1_555
C3A C4A 1_555 1_555
C4A H3A 1_555 1_555
C5A C4A 1_555 1_555
H4A C5A 1_555 1_555
C6A C5A 1_555 1_555
C7A C6A 1_555 1_555
H5A C7A 1_555 1_555
C8A C3A 1_555 1_555
H6A C8A 1_555 1_555
C9A H7A 1_555 1_555
H8A C9A 1_555 1_555
C10A C9A 1_555 1_555
C11A C12A 1_555 1_555
C12A H9A 1_555 1_555
H10A C12A 1_555 1_555
C13A C14A 1_555 1_555
C14A C15 1_555 1_555
H11A C14A 1_555 1_555
C15A C14 1_555 1_555
H12A C15A 1_555 1_555
O1A Tb1A 1_555 1_555
O2A Tb1 1_555 1_555
O3A C2A 1_555 1_555
O4A C6A 1_555 1_555
O5A C10A 1_555 1_555
O5_2 Tb1 1_555 1_555
O5A_2 Tb1A 1_555 1_555
O6A C10A 1_555 1_555
O6A_2 Tb1 1_555 1_555
O6_2 Tb1A 1_555 1_555
O7A C11A 1_555 1_555
O7A_2 Tb1A 1_555 1_555
O8A Tb1A_3 1_555 1_555
O8A_2 Tb1A 1_555 1_555
O9A C12A 1_555 1_555
O10A Tb1A 1_555 1_555
H13A O10A 1_555 1_555
H14A O10A 1_555 1_555
O11A Tb1A 1_555 1_555
H15A O11A 1_555 1_555
H16A O11A 1_555 1_555
C1 O2 1_555 1_555
C3 O3 1_555 1_555
C7 C8 1_555 1_555
C9 O4 1_555 1_555
C11 O7 1_555 1_555
C11 O8 1_555 1_555
C13 O9 1_555 1_555
Tb1A O2A 1_555 1_555
C1A O1A 1_555 1_555
C1A O2A 1_555 1_555
C3A O3A 1_555 1_555
C7A C8A 1_555 1_555
C9A O4A 1_555 1_555
C11A O8A 1_555 1_555
C13A C15A 1_555 1_555
C13A O9A 1_555 1_555

#END
