
#######################################################################
#
#                 Cambridge Crystallographic Data Centre
#                                CCDC 
#
#######################################################################
#
# If this CIF has been generated from an entry in the Cambridge 
# Structural Database, then it will include bibliographic, chemical, 
# crystal, experimental, refinement or atomic coordinate data resulting 
# from the CCDC's data processing and validation procedures.
#
#######################################################################

data_DEJGEF
_symmetry_cell_setting           monoclinic
_symmetry_space_group_name_H-M   'P 21/c'
_symmetry_Int_Tables_number      14
_space_group_name_Hall           '-P 2ybc'
loop_
_symmetry_equiv_pos_site_id
_symmetry_equiv_pos_as_xyz
1 x,y,z
2 -x,1/2+y,1/2-z
3 -x,-y,-z
4 x,1/2-y,1/2+z
_cell_length_a                   10.0561(13)
_cell_length_b                   15.461(2)
_cell_length_c                   9.5055(12)
_cell_angle_alpha                90
_cell_angle_beta                 107.044(2)
_cell_angle_gamma                90
_cell_volume                     1412.98
loop_
_atom_site_label
_atom_site_type_symbol
_atom_site_fract_x
_atom_site_fract_y
_atom_site_fract_z
Cu1 Cu 0.35308(6) 0.27987(4) 0.97652(5)
N1 N 0.3804(4) 0.2565(2) 0.7921(4)
P1 P 0.28669(8) 0.49463(6) 0.84452(8)
S1 S 0.19712(10) 0.41105(7) 0.94307(10)
C1 C 0.3775(4) 0.2438(2) 0.6744(3)
C2 C 0.4753(3) 0.4927(2) 0.9172(3)
H1 H 0.5094 0.4373 0.8948
H2 H 0.5140 0.5373 0.8691
C3 C 0.2352(3) 0.6040(2) 0.8701(3)
C4 C 0.1334(4) 0.6202(3) 0.9366(4)
H3 H 0.0915 0.5743 0.9707
C5 C 0.0928(5) 0.7040(3) 0.9534(6)
H4 H 0.0223 0.7143 0.9964
C6 C 0.1559(5) 0.7717(3) 0.9070(6)
H5 H 0.1299 0.8281 0.9199
C7 C 0.2566(6) 0.7564(3) 0.8420(6)
H6 H 0.2998 0.8025 0.8103
C8 C 0.2955(4) 0.6732(3) 0.8224(5)
H7 H 0.3638 0.6636 0.7761
C9 C 0.2506(3) 0.4756(2) 0.6486(3)
C10 C 0.3263(4) 0.5161(3) 0.5679(4)
H8 H 0.3974 0.5543 0.6132
C11 C 0.2950(5) 0.4991(3) 0.4176(4)
H9 H 0.3447 0.5268 0.3620
C12 C 0.1917(5) 0.4420(3) 0.3515(4)
H10 H 0.1721 0.4302 0.2515
C13 C 0.1183(5) 0.4027(3) 0.4311(4)
H11 H 0.0475 0.3644 0.3855
C14 C 0.1471(4) 0.4189(3) 0.5799(4)
H12 H 0.0961 0.3912 0.6339
Cu1C Cu 0.35308(6) 0.22013(4) 1.47652(5)
Cu1C_2 Cu 0.35308(6) 0.22013(4) 0.47652(5)
Cu1B Cu 0.64692(6) 0.72013(4) 1.02348(5)
N1C N 0.3804(4) 0.2435(2) 1.2921(4)
P1B P 0.71331(8) 0.50537(6) 1.15548(8)
S1B S 0.80288(10) 0.58895(7) 1.05693(10)
S1C S 0.19712(10) 0.08895(7) 1.44307(10)
C1C C 0.3775(4) 0.2562(2) 1.1744(3)
C1_2 C 0.3775(4) 0.2438(2) 1.6744(3)
C2B C 0.5247(3) 0.5073(2) 1.0828(3)
H1B H 0.4906 0.5627 1.1052
H2B H 0.4860 0.4627 1.1309
C3B C 0.7648(3) 0.3960(2) 1.1299(3)
C4B C 0.8666(4) 0.3798(3) 1.0634(4)
H3B H 0.9085 0.4257 1.0293
C5B C 0.9072(5) 0.2960(3) 1.0466(6)
H4B H 0.9777 0.2857 1.0036
C6B C 0.8441(5) 0.2283(3) 1.0930(6)
H5B H 0.8701 0.1719 1.0801
C7B C 0.7434(6) 0.2436(3) 1.1580(6)
H6B H 0.7002 0.1975 1.1897
C8B C 0.7045(4) 0.3268(3) 1.1776(5)
H7B H 0.6362 0.3364 1.2239
C9B C 0.7494(3) 0.5244(2) 1.3514(3)
C10B C 0.6737(4) 0.4839(3) 1.4321(4)
H8B H 0.6026 0.4457 1.3868
C11B C 0.7050(5) 0.5009(3) 1.5824(4)
H9B H 0.6553 0.4732 1.6380
C12B C 0.8083(5) 0.5580(3) 1.6485(4)
H10B H 0.8279 0.5698 1.7485
C13B C 0.8817(5) 0.5973(3) 1.5689(4)
H11B H 0.9525 0.6356 1.6145
C14B C 0.8529(4) 0.5811(3) 1.4201(4)
H12B H 0.9039 0.6088 1.3661
loop_
_geom_bond_atom_site_label_1
_geom_bond_atom_site_label_2
_geom_bond_site_symmetry_1
_geom_bond_site_symmetry_2
Cu1 N1 1_555 1_555
N1 C1 1_555 1_555
P1 S1 1_555 1_555
S1 Cu1 1_555 1_555
C1 Cu1C_2 1_555 1_555
C2 P1 1_555 1_555
H1 C2 1_555 1_555
H2 C2 1_555 1_555
C3 P1 1_555 1_555
C4 C3 1_555 1_555
H3 C4 1_555 1_555
C5 C4 1_555 1_555
H4 C5 1_555 1_555
C6 C5 1_555 1_555
H5 C6 1_555 1_555
C7 C6 1_555 1_555
H6 C7 1_555 1_555
C8 C3 1_555 1_555
H7 C8 1_555 1_555
C9 P1 1_555 1_555
C10 C9 1_555 1_555
H8 C10 1_555 1_555
C11 C10 1_555 1_555
H9 C11 1_555 1_555
C12 C11 1_555 1_555
H10 C12 1_555 1_555
C13 C12 1_555 1_555
H11 C13 1_555 1_555
C14 C9 1_555 1_555
H12 C14 1_555 1_555
Cu1C N1C 1_555 1_555
Cu1B S1B 1_555 1_555
N1C C1C 1_555 1_555
P1B S1B 1_555 1_555
S1C Cu1C 1_555 1_555
C1C Cu1 1_555 1_555
C1_2 Cu1C 1_555 1_555
C2B C2 1_555 1_555
H1B C2B 1_555 1_555
H2B C2B 1_555 1_555
C3B P1B 1_555 1_555
C4B C3B 1_555 1_555
H3B C4B 1_555 1_555
C5B C4B 1_555 1_555
H4B C5B 1_555 1_555
C6B C5B 1_555 1_555
H5B C6B 1_555 1_555
C7B C6B 1_555 1_555
H6B C7B 1_555 1_555
C8B C3B 1_555 1_555
H7B C8B 1_555 1_555
C9B P1B 1_555 1_555
C10B C9B 1_555 1_555
H8B C10B 1_555 1_555
C11B C10B 1_555 1_555
H9B C11B 1_555 1_555
C12B C11B 1_555 1_555
H10B C12B 1_555 1_555
C13B C12B 1_555 1_555
H11B C13B 1_555 1_555
C14B C9B 1_555 1_555
H12B C14B 1_555 1_555
C7 C8 1_555 1_555
C13 C14 1_555 1_555
P1B C2B 1_555 1_555
C7B C8B 1_555 1_555
C13B C14B 1_555 1_555

#END
