
#######################################################################
#
#                 Cambridge Crystallographic Data Centre
#                                CCDC 
#
#######################################################################
#
# If this CIF has been generated from an entry in the Cambridge 
# Structural Database, then it will include bibliographic, chemical, 
# crystal, experimental, refinement or atomic coordinate data resulting 
# from the CCDC's data processing and validation procedures.
#
#######################################################################

data_DEJLOU
_symmetry_cell_setting           orthorhombic
_symmetry_space_group_name_H-M   'P 21 21 21'
_symmetry_Int_Tables_number      19
_space_group_name_Hall           'P 2ac 2ab'
loop_
_symmetry_equiv_pos_site_id
_symmetry_equiv_pos_as_xyz
1 x,y,z
2 1/2-x,-y,1/2+z
3 -x,1/2+y,1/2-z
4 1/2+x,1/2-y,-z
_cell_length_a                   9.7009(6)
_cell_length_b                   14.5954(10)
_cell_length_c                   24.0063(16)
_cell_angle_alpha                90
_cell_angle_beta                 90
_cell_angle_gamma                90
_cell_volume                     3399.02
loop_
_atom_site_label
_atom_site_type_symbol
_atom_site_fract_x
_atom_site_fract_y
_atom_site_fract_z
Ag1 Ag 0.12805(5) 0.52412(3) 0.033662(18)
P1 P 0.07773(14) 0.61319(10) 0.12003(6)
P2 P -0.28583(13) 0.97789(10) 0.06464(5)
N1 N -0.0836(8) 0.4449(6) 0.0163(3)
C1 C -0.0134(5) 0.7241(4) 0.1135(2)
C2 C -0.1096(5) 0.7597(4) 0.1534(2)
C3 C -0.1298(7) 0.7196(4) 0.2067(2)
H1 H -0.0859 0.6639 0.2149
C4 C -0.2102(6) 0.7591(5) 0.2461(3)
H2 H -0.2217 0.7299 0.2807
C5 C -0.2774(6) 0.8438(5) 0.2358(2)
H3 H -0.3304 0.8720 0.2637
C6 C -0.2639(6) 0.8833(5) 0.1852(2)
H4 H -0.3082 0.9395 0.1785
C7 C -0.1848(5) 0.8426(4) 0.1417(2)
C8 C -0.1726(5) 0.8851(4) 0.0885(2)
C9 C -0.0655(5) 0.8558(4) 0.0529(2)
C10 C -0.0284(6) 0.9098(4) 0.0045(3)
H5 H -0.0804 0.9621 -0.0043
C11 C 0.0784(7) 0.8866(5) -0.0280(3)
H6 H 0.0984 0.9218 -0.0598
C12 C 0.1600(6) 0.8111(5) -0.0153(3)
H7 H 0.2368 0.7973 -0.0376
C13 C 0.1299(6) 0.7568(4) 0.0294(2)
H8 H 0.1851 0.7054 0.0368
C14 C 0.0155(5) 0.7771(3) 0.0650(2)
C15 C -0.1788(9) 0.4153(6) -0.0025(3)
C16 C -0.3070(8) 0.3758(7) -0.0237(4)
H9 H -0.3838 0.3970 -0.0013
H10 H -0.3018 0.3095 -0.0219
H11 H -0.3203 0.3946 -0.0621
C17 C -0.0326(6) 0.5373(4) 0.1596(2)
C18 C 0.0146(7) 0.4894(5) 0.2055(3)
H12 H 0.1064 0.4963 0.2173
C19 C -0.0747(9) 0.4305(6) 0.2343(4)
H13 H -0.0434 0.3988 0.2660
C20 C -0.2073(10) 0.4193(6) 0.2163(4)
H14 H -0.2680 0.3817 0.2365
C21 C -0.2519(8) 0.4620(6) 0.1695(4)
H15 H -0.3421 0.4515 0.1566
C22 C -0.1653(7) 0.5213(6) 0.1402(3)
H16 H -0.1966 0.5503 0.1076
C23 C 0.2230(6) 0.6361(4) 0.1647(3)
C24 C 0.2149(8) 0.6779(7) 0.2156(4)
H17 H 0.1291 0.7005 0.2276
C25 C 0.3276(8) 0.6882(6) 0.2499(4)
H18 H 0.3161 0.7112 0.2862
C26 C 0.4542(9) 0.6654(9) 0.2315(4)
H19 H 0.5336 0.6773 0.2527
C27 C 0.4612(11) 0.6259(16) 0.1828(7)
H20 H 0.5479 0.6053 0.1706
C28 C 0.3502(9) 0.6125(11) 0.1483(5)
H21 H 0.3635 0.5865 0.1129
C29 C -0.2060(7) 1.0798(4) 0.0919(3)
C30 C -0.2529(15) 1.1651(6) 0.0758(5)
H22 H -0.3298 1.1709 0.0522
C31 C -0.1820(18) 1.2443(7) 0.0956(5)
H23 H -0.2142 1.3027 0.0855
C32 C -0.0689(13) 1.2371(7) 0.1289(4)
H24 H -0.0196 1.2896 0.1397
C33 C -0.0294(10) 1.1535(7) 0.1459(5)
H25 H 0.0455 1.1487 0.1706
C34 C -0.0940(7) 1.0745(6) 0.1286(4)
H26 H -0.0631 1.0172 0.1414
C35 C -0.4498(5) 0.9690(5) 0.1004(2)
C36 C -0.5203(7) 0.8868(6) 0.0964(3)
H27 H -0.4786 0.8357 0.0795
C37 C -0.6546(8) 0.8805(9) 0.1178(4)
H28 H -0.7036 0.8251 0.1146
C38 C -0.7140(8) 0.9530(11) 0.1428(3)
H29 H -0.8035 0.9475 0.1574
C39 C -0.6476(8) 1.0325(9) 0.1470(4)
H30 H -0.6911 1.0829 0.1640
C40 C -0.5136(8) 1.0414(6) 0.1265(3)
H31 H -0.4666 1.0974 0.1306
Ag1C Ag -0.37195(5) 0.97588(3) -0.033662(18)
P2C P 0.21417(13) 0.52211(10) -0.06464(5)
Cl1 Cl 0.3738(3) 0.34837(16) 0.09327(8)
O1 O 0.2400(10) 0.3776(8) 0.0834(8)
O2 O 0.4677(10) 0.4153(7) 0.0823(5)
O3 O 0.382(2) 0.2916(11) 0.1348(6)
O4 O 0.4228(13) 0.2764(10) 0.0528(6)
loop_
_geom_bond_atom_site_label_1
_geom_bond_atom_site_label_2
_geom_bond_site_symmetry_1
_geom_bond_site_symmetry_2
Ag1 P1 1_555 1_555
P1 C1 1_555 1_555
P2 C8 1_555 1_555
N1 Ag1 1_555 1_555
C1 C2 1_555 1_555
C2 C3 1_555 1_555
C3 H1 1_555 1_555
C4 C3 1_555 1_555
H2 C4 1_555 1_555
C5 C4 1_555 1_555
H3 C5 1_555 1_555
C6 C5 1_555 1_555
H4 C6 1_555 1_555
C7 C2 1_555 1_555
C8 C7 1_555 1_555
C9 C8 1_555 1_555
C10 C9 1_555 1_555
H5 C10 1_555 1_555
C11 C10 1_555 1_555
H6 C11 1_555 1_555
C12 C11 1_555 1_555
H7 C12 1_555 1_555
C13 C12 1_555 1_555
H8 C13 1_555 1_555
C14 C1 1_555 1_555
C15 N1 1_555 1_555
C16 C15 1_555 1_555
H9 C16 1_555 1_555
H10 C16 1_555 1_555
H11 C16 1_555 1_555
C17 P1 1_555 1_555
C18 C17 1_555 1_555
H12 C18 1_555 1_555
C19 C18 1_555 1_555
H13 C19 1_555 1_555
C20 C19 1_555 1_555
H14 C20 1_555 1_555
C21 C20 1_555 1_555
H15 C21 1_555 1_555
C22 C17 1_555 1_555
H16 C22 1_555 1_555
C23 P1 1_555 1_555
C24 C23 1_555 1_555
H17 C24 1_555 1_555
C25 C24 1_555 1_555
H18 C25 1_555 1_555
C26 C25 1_555 1_555
H19 C26 1_555 1_555
C27 C26 1_555 1_555
H20 C27 1_555 1_555
C28 C23 1_555 1_555
H21 C28 1_555 1_555
C29 P2 1_555 1_555
C30 C29 1_555 1_555
H22 C30 1_555 1_555
C31 C30 1_555 1_555
H23 C31 1_555 1_555
C32 C31 1_555 1_555
H24 C32 1_555 1_555
C33 C32 1_555 1_555
H25 C33 1_555 1_555
C34 C29 1_555 1_555
H26 C34 1_555 1_555
C35 P2 1_555 1_555
C36 C35 1_555 1_555
H27 C36 1_555 1_555
C37 C36 1_555 1_555
H28 C37 1_555 1_555
C38 C37 1_555 1_555
H29 C38 1_555 1_555
C39 C38 1_555 1_555
H30 C39 1_555 1_555
C40 C35 1_555 1_555
H31 C40 1_555 1_555
Cl1 O1 1_555 1_555
O2 Cl1 1_555 1_555
O3 Cl1 1_555 1_555
O4 Cl1 1_555 1_555
Ag1C P2 1_555 1_555
P2C Ag1 1_555 1_555
C6 C7 1_555 1_555
C9 C14 1_555 1_555
C13 C14 1_555 1_555
C21 C22 1_555 1_555
C27 C28 1_555 1_555
C33 C34 1_555 1_555
C39 C40 1_555 1_555

#END
