
#######################################################################
#
#                 Cambridge Crystallographic Data Centre
#                                CCDC 
#
#######################################################################
#
# If this CIF has been generated from an entry in the Cambridge 
# Structural Database, then it will include bibliographic, chemical, 
# crystal, experimental, refinement or atomic coordinate data resulting 
# from the CCDC's data processing and validation procedures.
#
#######################################################################

data_DEJMUB
_symmetry_cell_setting           tetragonal
_symmetry_space_group_name_H-M   'P 41'
_symmetry_Int_Tables_number      76
_space_group_name_Hall           'P 4w'
loop_
_symmetry_equiv_pos_site_id
_symmetry_equiv_pos_as_xyz
1 x,y,z
2 -x,-y,1/2+z
3 -y,x,1/4+z
4 y,-x,3/4+z
_cell_length_a                   12.4486(3)
_cell_length_b                   12.4486(3)
_cell_length_c                   18.7626(5)
_cell_angle_alpha                90
_cell_angle_beta                 90
_cell_angle_gamma                90
_cell_volume                     2907.6
loop_
_atom_site_label
_atom_site_type_symbol
_atom_site_fract_x
_atom_site_fract_y
_atom_site_fract_z
Dy1 Dy 0.430520(14) 0.460642(13) 0.624825(12)
P1 P 0.43234(9) 0.23553(8) 0.74684(6)
P2 P 0.68486(8) 0.43296(9) 0.70266(6)
P3 P 0.52536(9) 0.69959(8) 0.54574(5)
O1 O 0.4038(3) 0.3047(2) 0.68392(17)
O2 O 0.4641(3) 0.2944(3) 0.81348(17)
O3 O 0.3379(3) 0.1586(2) 0.75905(16)
H1 H 0.3444 0.1294 0.7980
O4 O 0.6861(3) -0.1459(3) 0.6745(2)
O5 O 0.5229(3) -0.0866(3) 0.7028(2)
O6 O 0.6014(2) 0.4166(2) 0.64646(16)
O7 O 0.6439(3) 0.4456(3) 0.77716(17)
O8 O 0.7672(3) 0.3418(3) 0.69597(18)
H2 H 0.8139 0.3492 0.7264
O9 O 1.0380(3) 0.7138(3) 0.60617(18)
O10 O 0.9933(3) 0.5438(2) 0.6295(2)
O11 O 0.5075(2) 0.6240(2) 0.60651(14)
O12 O 0.5310(2) 0.6497(3) 0.47297(16)
O13 O 0.6283(2) 0.7674(3) 0.55738(16)
H3 H 0.6311 0.7871 0.5990
O14 O 0.2759(3) 1.0970(3) 0.52994(19)
O15 O 0.4430(3) 1.0422(3) 0.55309(19)
N1 N 0.5922(3) 0.0832(3) 0.77782(17)
H8 H 0.5369 0.0461 0.7978
N2 N 0.8371(3) 0.5973(3) 0.72363(17)
H9 H 0.8820 0.5419 0.7343
N3 N 0.3775(3) 0.8481(3) 0.60481(17)
H10 H 0.4353 0.8803 0.6255
C1 C 0.6740(3) 0.0024(3) 0.7516(2)
H11 H 0.7285 0.0400 0.7233
C2 C 0.7258(4) -0.0382(4) 0.8205(3)
H12 H 0.7979 -0.0644 0.8116
H13 H 0.6835 -0.0956 0.8414
C3 C 0.7279(5) 0.0606(5) 0.8697(3)
H14 H 0.7050 0.0412 0.9174
H15 H 0.7999 0.0902 0.8723
C4 C 0.6501(4) 0.1427(4) 0.8369(2)
H16 H 0.5995 0.1682 0.8723
H17 H 0.6891 0.2037 0.8178
C5 C 0.5469(4) 0.1535(3) 0.7212(2)
H18 H 0.5257 0.1085 0.6814
H19 H 0.6034 0.2008 0.7045
C6 C 0.6230(4) -0.0854(3) 0.7058(2)
C7 C 0.9022(3) 0.6855(3) 0.6901(2)
H20 H 0.8535 0.7341 0.6647
C8 C 0.9526(5) 0.7467(4) 0.7530(3)
H21 H 1.0292 0.7325 0.7558
H22 H 0.9417 0.8234 0.7477
C9 C 0.8958(4) 0.7053(4) 0.8191(2)
H23 H 0.9423 0.6575 0.8459
H24 H 0.8746 0.7644 0.8497
C10 C 0.7979(4) 0.6455(4) 0.7921(2)
H25 H 0.7757 0.5902 0.8255
H26 H 0.7383 0.6942 0.7839
C11 C 0.7506(3) 0.5560(4) 0.6756(2)
H27 H 0.7814 0.5447 0.6287
H28 H 0.6962 0.6114 0.6709
C12 C 0.9848(3) 0.6415(4) 0.6371(2)
C13 C 0.2940(3) 0.9334(3) 0.5900(2)
H29 H 0.2388 0.9037 0.5584
C14 C 0.2447(4) 0.9550(4) 0.6632(3)
H30 H 0.2800 1.0154 0.6860
H31 H 0.1688 0.9711 0.6588
C15 C 0.2612(5) 0.8542(4) 0.7059(3)
H32 H 0.1924 0.8233 0.7189
H33 H 0.3006 0.8701 0.7492
C16 C 0.3238(4) 0.7766(3) 0.6602(2)
H34 H 0.2764 0.7249 0.6376
H35 H 0.3769 0.7383 0.6882
C17 C 0.4142(3) 0.7946(3) 0.5385(2)
H36 H 0.4349 0.8500 0.5049
H37 H 0.3533 0.7568 0.5181
C18 C 0.3445(4) 1.0320(4) 0.5548(2)
Dy1B Dy 0.539358(13) 0.430520(14) 0.874825(12)
Dy1C Dy 0.460642(13) 0.569480(14) 0.374825(12)
O2C O 0.2944(3) 0.5359(3) 0.56348(17)
O7C O 0.4456(3) 0.3561(3) 0.52716(17)
O12B O 0.3503(3) 0.5310(2) 0.72297(16)
O16 O 1.0303(6) 0.0586(5) 1.0924(3)
H4 H 1.065(5) 0.034(6) 1.129(3)
H5 H 1.016(7) 0.067(6) 1.0483(16)
O17 O 0.9400(4) -0.0471(5) 0.9751(3)
H6 H 0.973(6) -0.040(6) 0.936(3)
H7 H 0.931(6) -0.017(6) 1.015(2)
loop_
_geom_bond_atom_site_label_1
_geom_bond_atom_site_label_2
_geom_bond_site_symmetry_1
_geom_bond_site_symmetry_2
Dy1 O1 1_555 1_555
P1 O1 1_555 1_555
P2 O6 1_555 1_555
P3 O11 1_555 1_555
O2 P1 1_555 1_555
O3 P1 1_555 1_555
H1 O3 1_555 1_555
O4 C6 1_555 1_555
O5 C6 1_555 1_555
O6 Dy1 1_555 1_555
O7 P2 1_555 1_555
O8 P2 1_555 1_555
H2 O8 1_555 1_555
O9 C12 1_555 1_555
O10 C12 1_555 1_555
O11 Dy1 1_555 1_555
O12 P3 1_555 1_555
O13 P3 1_555 1_555
H3 O13 1_555 1_555
O14 C18 1_555 1_555
O15 C18 1_555 1_555
O16 H4 1_555 1_555
H5 O16 1_555 1_555
O17 H6 1_555 1_555
H7 O17 1_555 1_555
N1 H8 1_555 1_555
N2 H9 1_555 1_555
N3 H10 1_555 1_555
C1 N1 1_555 1_555
H11 C1 1_555 1_555
C2 C1 1_555 1_555
H12 C2 1_555 1_555
H13 C2 1_555 1_555
C3 C2 1_555 1_555
H14 C3 1_555 1_555
H15 C3 1_555 1_555
C4 N1 1_555 1_555
H16 C4 1_555 1_555
H17 C4 1_555 1_555
C5 P1 1_555 1_555
H18 C5 1_555 1_555
H19 C5 1_555 1_555
C6 C1 1_555 1_555
C7 N2 1_555 1_555
H20 C7 1_555 1_555
C8 C7 1_555 1_555
H21 C8 1_555 1_555
H22 C8 1_555 1_555
C9 C8 1_555 1_555
H23 C9 1_555 1_555
H24 C9 1_555 1_555
C10 N2 1_555 1_555
H25 C10 1_555 1_555
H26 C10 1_555 1_555
C11 P2 1_555 1_555
H27 C11 1_555 1_555
H28 C11 1_555 1_555
C12 C7 1_555 1_555
C13 N3 1_555 1_555
H29 C13 1_555 1_555
C14 C13 1_555 1_555
H30 C14 1_555 1_555
H31 C14 1_555 1_555
C15 C14 1_555 1_555
H32 C15 1_555 1_555
H33 C15 1_555 1_555
C16 N3 1_555 1_555
H34 C16 1_555 1_555
H35 C16 1_555 1_555
C17 P3 1_555 1_555
H36 C17 1_555 1_555
H37 C17 1_555 1_555
C18 C13 1_555 1_555
Dy1B O2 1_555 1_555
Dy1C O12 1_555 1_555
O2C Dy1 1_555 1_555
O7C Dy1 1_555 1_555
O12B Dy1 1_555 1_555
O7 Dy1B 1_555 1_555
N1 C5 1_555 1_555
N2 C11 1_555 1_555
N3 C17 1_555 1_555
C3 C4 1_555 1_555
C9 C10 1_555 1_555
C15 C16 1_555 1_555

#END
