
#######################################################################
#
#                 Cambridge Crystallographic Data Centre
#                                CCDC 
#
#######################################################################
#
# If this CIF has been generated from an entry in the Cambridge 
# Structural Database, then it will include bibliographic, chemical, 
# crystal, experimental, refinement or atomic coordinate data resulting 
# from the CCDC's data processing and validation procedures.
#
#######################################################################

data_DEJMAH
_symmetry_cell_setting           orthorhombic
_symmetry_space_group_name_H-M   'P 21 21 21'
_symmetry_Int_Tables_number      19
_space_group_name_Hall           'P 2ac 2ab'
loop_
_symmetry_equiv_pos_site_id
_symmetry_equiv_pos_as_xyz
1 x,y,z
2 1/2-x,-y,1/2+z
3 -x,1/2+y,1/2-z
4 1/2+x,1/2-y,-z
_cell_length_a                   9.7572(5)
_cell_length_b                   14.8314(8)
_cell_length_c                   24.1685(14)
_cell_angle_alpha                90
_cell_angle_beta                 90
_cell_angle_gamma                90
_cell_volume                     3497.49
loop_
_atom_site_label
_atom_site_type_symbol
_atom_site_fract_x
_atom_site_fract_y
_atom_site_fract_z
Ag1 Ag 0.13255(4) 0.53151(3) 0.968279(16)
N1 N -0.0684(8) 0.4459(5) 0.9848(3)
P1 P 0.08611(12) 0.61308(8) 0.88097(5)
P2 P -0.27877(12) 0.97182(9) 0.93525(5)
C1 C -0.0072(5) 0.7218(3) 0.8872(2)
C2 C -0.1033(5) 0.7549(3) 0.84849(19)
C3 C -0.1251(6) 0.7151(4) 0.7956(2)
H1 H -0.0814 0.6602 0.7873
C4 C -0.2062(6) 0.7533(4) 0.7568(2)
H2 H -0.2187 0.7237 0.7228
C5 C -0.2722(6) 0.8360(4) 0.7661(2)
H3 H -0.3255 0.8633 0.7384
C6 C -0.2564(5) 0.8748(4) 0.8163(2)
H4 H -0.2998 0.9305 0.8225
C7 C -0.1789(5) 0.8374(3) 0.8599(2)
C8 C -0.1658(5) 0.8792(3) 0.9121(2)
C9 C -0.0592(5) 0.8532(3) 0.9477(2)
C10 C -0.0229(5) 0.9045(4) 0.9948(2)
H5 H -0.0763 0.9551 1.0039
C11 C 0.0845(5) 0.8840(4) 1.0270(2)
H6 H 0.1038 0.9192 1.0584
C12 C 0.1682(6) 0.8104(4) 1.0140(2)
H7 H 0.2454 0.7974 1.0359
C13 C 0.1376(6) 0.7575(3) 0.9698(2)
H8 H 0.1940 0.7077 0.9621
C14 C 0.0239(5) 0.7748(3) 0.93471(19)
C15 C -0.1678(8) 0.4192(5) 1.0022(3)
C16 C -0.2964(7) 0.3844(6) 1.0244(4)
H9 H -0.3178 0.4152 1.0587
H10 H -0.2875 0.3203 1.0313
H11 H -0.3693 0.3947 0.9978
C17 C -0.0247(5) 0.5368(4) 0.8429(2)
C18 C 0.0218(6) 0.4881(4) 0.7979(2)
H12 H 0.1127 0.4947 0.7857
C19 C -0.0664(7) 0.4294(5) 0.7709(3)
H13 H -0.0348 0.3969 0.7400
C20 C -0.1972(8) 0.4182(5) 0.7884(3)
H14 H -0.2568 0.3793 0.7692
C21 C -0.2419(6) 0.4642(5) 0.8345(3)
H15 H -0.3317 0.4554 0.8476
C22 C -0.1560(6) 0.5228(4) 0.8613(2)
H16 H -0.1874 0.5539 0.8928
C23 C 0.2311(5) 0.6371(3) 0.8353(2)
C24 C 0.2179(7) 0.6766(5) 0.7840(3)
H17 H 0.1306 0.6943 0.7718
C25 C 0.3287(7) 0.6906(5) 0.7505(3)
H18 H 0.3166 0.7151 0.7150
C26 C 0.4551(7) 0.6692(6) 0.7685(3)
H19 H 0.5319 0.6791 0.7458
C27 C 0.4706(8) 0.6329(8) 0.8200(4)
H20 H 0.5591 0.6199 0.8331
C28 C 0.3618(7) 0.6153(6) 0.8522(3)
H21 H 0.3750 0.5877 0.8868
C29 C -0.1938(5) 1.0712(4) 0.9086(2)
C30 C -0.2374(7) 1.1557(4) 0.9251(3)
H22 H -0.3105 1.1611 0.9503
C31 C -0.1741(9) 1.2322(4) 0.9049(3)
H23 H -0.2079 1.2893 0.9149
C32 C -0.0634(9) 1.2265(5) 0.8706(4)
H24 H -0.0181 1.2788 0.8584
C33 C -0.0199(8) 1.1428(5) 0.8544(3)
H25 H 0.0553 1.1380 0.8302
C34 C -0.0839(6) 1.0658(4) 0.8727(3)
H26 H -0.0527 1.0091 0.8607
C35 C -0.4429(5) 0.9609(4) 0.8991(2)
C36 C -0.5026(6) 1.0345(5) 0.8726(2)
H27 H -0.4548 1.0893 0.8694
C37 C -0.6333(8) 1.0257(5) 0.8509(3)
H28 H -0.6753 1.0752 0.8336
C38 C -0.7016(7) 0.9460(5) 0.8545(3)
H29 H -0.7899 0.9406 0.8393
C39 C -0.6422(7) 0.8734(5) 0.8802(3)
H30 H -0.6893 0.8181 0.8819
C40 C -0.5137(6) 0.8812(4) 0.9035(3)
H31 H -0.4746 0.8320 0.9222
Ag1C Ag -0.36745(4) 0.96849(3) 1.031721(16)
P2C P 0.22123(12) 0.52818(9) 1.06475(5)
P3 P 0.3817(2) 0.33937(11) 0.89945(7)
F1 F 0.3061(10) 0.4071(5) 0.8588(3)
F2 F 0.4663(8) 0.4203(4) 0.9240(2)
F3 F 0.4486(7) 0.2739(3) 0.9406(2)
F4 F 0.2949(6) 0.2607(4) 0.8741(2)
F5 F 0.4852(7) 0.3241(6) 0.8531(3)
F6 F 0.2701(8) 0.3610(6) 0.9434(3)
loop_
_geom_bond_atom_site_label_1
_geom_bond_atom_site_label_2
_geom_bond_site_symmetry_1
_geom_bond_site_symmetry_2
Ag1 N1 1_555 1_555
N1 C15 1_555 1_555
P1 Ag1 1_555 1_555
P2 C8 1_555 1_555
C1 P1 1_555 1_555
C2 C1 1_555 1_555
C3 C2 1_555 1_555
H1 C3 1_555 1_555
C4 C3 1_555 1_555
H2 C4 1_555 1_555
C5 C4 1_555 1_555
H3 C5 1_555 1_555
C6 C5 1_555 1_555
H4 C6 1_555 1_555
C7 C2 1_555 1_555
C8 C7 1_555 1_555
C9 C8 1_555 1_555
C10 C9 1_555 1_555
H5 C10 1_555 1_555
C11 C10 1_555 1_555
H6 C11 1_555 1_555
C12 C11 1_555 1_555
H7 C12 1_555 1_555
C13 C12 1_555 1_555
H8 C13 1_555 1_555
C14 C1 1_555 1_555
C15 C16 1_555 1_555
C16 H9 1_555 1_555
H10 C16 1_555 1_555
H11 C16 1_555 1_555
C17 P1 1_555 1_555
C18 C17 1_555 1_555
H12 C18 1_555 1_555
C19 C18 1_555 1_555
H13 C19 1_555 1_555
C20 C19 1_555 1_555
H14 C20 1_555 1_555
C21 C20 1_555 1_555
H15 C21 1_555 1_555
C22 C17 1_555 1_555
H16 C22 1_555 1_555
C23 P1 1_555 1_555
C24 C23 1_555 1_555
H17 C24 1_555 1_555
C25 C24 1_555 1_555
H18 C25 1_555 1_555
C26 C25 1_555 1_555
H19 C26 1_555 1_555
C27 C26 1_555 1_555
H20 C27 1_555 1_555
C28 C23 1_555 1_555
H21 C28 1_555 1_555
C29 P2 1_555 1_555
C30 C29 1_555 1_555
H22 C30 1_555 1_555
C31 C30 1_555 1_555
H23 C31 1_555 1_555
C32 C31 1_555 1_555
H24 C32 1_555 1_555
C33 C32 1_555 1_555
H25 C33 1_555 1_555
C34 C29 1_555 1_555
H26 C34 1_555 1_555
C35 P2 1_555 1_555
C36 C35 1_555 1_555
H27 C36 1_555 1_555
C37 C36 1_555 1_555
H28 C37 1_555 1_555
C38 C37 1_555 1_555
H29 C38 1_555 1_555
C39 C38 1_555 1_555
H30 C39 1_555 1_555
C40 C35 1_555 1_555
H31 C40 1_555 1_555
P3 F1 1_555 1_555
F2 P3 1_555 1_555
F3 P3 1_555 1_555
F4 P3 1_555 1_555
F5 P3 1_555 1_555
F6 P3 1_555 1_555
Ag1C P2 1_555 1_555
P2C Ag1 1_555 1_555
C6 C7 1_555 1_555
C9 C14 1_555 1_555
C13 C14 1_555 1_555
C21 C22 1_555 1_555
C27 C28 1_555 1_555
C33 C34 1_555 1_555
C39 C40 1_555 1_555

#END
