
#######################################################################
#
#                 Cambridge Crystallographic Data Centre
#                                CCDC 
#
#######################################################################
#
# If this CIF has been generated from an entry in the Cambridge 
# Structural Database, then it will include bibliographic, chemical, 
# crystal, experimental, refinement or atomic coordinate data resulting 
# from the CCDC's data processing and validation procedures.
#
#######################################################################

data_DEJRUH
_symmetry_cell_setting           monoclinic
_symmetry_space_group_name_H-M   'P 21/c'
_symmetry_Int_Tables_number      14
_space_group_name_Hall           '-P 2ybc'
loop_
_symmetry_equiv_pos_site_id
_symmetry_equiv_pos_as_xyz
1 x,y,z
2 -x,1/2+y,1/2-z
3 -x,-y,-z
4 x,1/2-y,1/2+z
_cell_length_a                   8.378(8)
_cell_length_b                   17.572(15)
_cell_length_c                   16.049(13)
_cell_angle_alpha                90
_cell_angle_beta                 112.75(4)
_cell_angle_gamma                90
_cell_volume                     2178.89
loop_
_atom_site_label
_atom_site_type_symbol
_atom_site_fract_x
_atom_site_fract_y
_atom_site_fract_z
Co1 Co -0.35489(8) -0.07816(4) 0.27524(5)
C1 C 0.0599(8) -0.4127(3) 0.2995(4)
N1 N -0.0346(5) -0.4140(2) 0.2075(3)
N2 N -0.3612(5) -0.4033(2) 0.1441(3)
N3 N -0.1885(5) -0.3578(2) 0.0537(3)
O1 O -0.6132(6) -0.1380(2) 0.2341(3)
O2 O -0.5486(5) -0.0659(2) 0.1400(3)
N4 N -0.2359(6) -0.1687(2) 0.2298(3)
C2 C -0.0210(7) -0.2418(3) 0.2241(4)
H1 H 0.0879 -0.2581 0.2290
N5 N -0.1720(5) -0.2847(2) 0.1927(3)
C3 C -0.0604(7) -0.1719(3) 0.2464(4)
N6 N -0.5390(6) -0.4841(3) 0.1743(3)
N7 N 0.1701(5) -0.5029(2) 0.2389(3)
N8 N -0.2292(6) -0.3832(3) -0.0899(3)
C4 C -0.2959(7) -0.2370(3) 0.1984(4)
C5 C 0.0375(7) -0.4698(3) 0.1759(4)
C6 C -0.3748(7) -0.4656(3) 0.1917(4)
C7 C -0.0606(8) -0.3211(4) 0.0340(4)
C8 C -0.0867(8) -0.3376(4) -0.0530(4)
C9 C -0.6359(7) -0.4312(3) 0.1112(4)
C10 C -0.5307(7) -0.3816(3) 0.0931(4)
H2 H -0.5652 -0.3403 0.0538
C11 C -0.8362(8) -0.1158(5) 0.0862(5)
H3 H -0.9033 -0.1480 0.1086
H4 H -0.8292 -0.1383 0.0332
H5 H -0.8905 -0.0668 0.0712
C12 C -0.6560(7) -0.1067(3) 0.1580(4)
C13 C 0.1853(8) -0.4671(3) 0.3181(4)
C14 C -0.2851(7) -0.3942(3) -0.0234(4)
B1 B -0.1916(7) -0.3641(3) 0.1495(4)
H12 H 0.034(8) -0.297(4) 0.080(4)
H13 H 0.014(7) -0.129(3) 0.268(4)
H14 H -0.011(7) -0.484(3) 0.116(4)
H15 H 0.040(9) -0.380(4) 0.343(5)
H16 H -0.017(8) -0.320(4) -0.080(4)
H17 H -0.766(8) -0.428(3) 0.086(4)
H18 H 0.276(7) -0.479(3) 0.377(4)
H19 H -0.408(7) -0.248(3) 0.182(3)
H20 H -0.269(8) -0.492(4) 0.234(4)
H21 H -0.383(7) -0.424(3) -0.029(3)
Co1A Co -0.64511(8) -0.57816(4) 0.22476(5)
Co1A_2 Co 0.35489(8) -0.57816(4) 0.22476(5)
Co1C Co -0.35489(8) -0.42184(4) -0.22476(5)
N6A N -0.4610(6) 0.0159(3) 0.3257(3)
N7A N -0.1701(5) -0.0029(2) 0.2611(3)
N8C N -0.2292(6) -0.1168(3) 0.4101(3)
C15 C 0.4045(13) 0.1728(5) 0.1326(6)
H6 H 0.3013 0.1979 0.1325
H7 H 0.4555 0.1430 0.1874
C16 C 0.3633(12) 0.1232(5) 0.0491(6)
H8 H 0.3667 0.0695 0.0640
H9 H 0.2507 0.1354 0.0032
N9 N 0.5258(11) 0.2268(4) 0.1245(5)
H10 H 0.5567 0.2675 0.1567
C17 C 0.5865(11) 0.2066(4) 0.0604(5)
N10 N 0.5005(9) 0.1430(4) 0.0201(4)
H11 H 0.5251 0.1171 -0.0188
O3 O 0.6981(8) 0.2394(3) 0.0430(4)
loop_
_geom_bond_atom_site_label_1
_geom_bond_atom_site_label_2
_geom_bond_site_symmetry_1
_geom_bond_site_symmetry_2
Co1 O1 1_555 1_555
C1 N1 1_555 1_555
N1 C5 1_555 1_555
N2 C6 1_555 1_555
N3 C7 1_555 1_555
O1 C12 1_555 1_555
O2 Co1 1_555 1_555
N4 Co1 1_555 1_555
C2 H1 1_555 1_555
N5 C2 1_555 1_555
C3 N4 1_555 1_555
N6 C6 1_555 1_555
N7 C5 1_555 1_555
N8 C8 1_555 1_555
C4 N4 1_555 1_555
C5 H14 1_555 1_555
C6 H20 1_555 1_555
C7 C8 1_555 1_555
C8 H16 1_555 1_555
C9 N6 1_555 1_555
C10 N2 1_555 1_555
H2 C10 1_555 1_555
C11 H3 1_555 1_555
H4 C11 1_555 1_555
H5 C11 1_555 1_555
C12 O2 1_555 1_555
C13 C1 1_555 1_555
C14 N3 1_555 1_555
B1 N1 1_555 1_555
C15 H6 1_555 1_555
H7 C15 1_555 1_555
C16 C15 1_555 1_555
H8 C16 1_555 1_555
H9 C16 1_555 1_555
N9 C15 1_555 1_555
H10 N9 1_555 1_555
C17 N9 1_555 1_555
N10 C16 1_555 1_555
H11 N10 1_555 1_555
O3 C17 1_555 1_555
H12 C7 1_555 1_555
H13 C3 1_555 1_555
H15 C1 1_555 1_555
H17 C9 1_555 1_555
H18 C13 1_555 1_555
H19 C4 1_555 1_555
H21 C14 1_555 1_555
Co1A N6 1_555 1_555
Co1A_2 N7 1_555 1_555
Co1C N8 1_555 1_555
N6A Co1 1_555 1_555
N7A Co1 1_555 1_555
N8C Co1 1_555 1_555
N2 B1 1_555 1_555
N3 B1 1_555 1_555
C2 C3 1_555 1_555
N5 C4 1_555 1_555
N5 B1 1_555 1_555
N7 C13 1_555 1_555
N8 C14 1_555 1_555
C9 C10 1_555 1_555
C11 C12 1_555 1_555
C17 N10 1_555 1_555

#END
