
#######################################################################
#
#                 Cambridge Crystallographic Data Centre
#                                CCDC 
#
#######################################################################
#
# If this CIF has been generated from an entry in the Cambridge 
# Structural Database, then it will include bibliographic, chemical, 
# crystal, experimental, refinement or atomic coordinate data resulting 
# from the CCDC's data processing and validation procedures.
#
#######################################################################

data_DEJTOC
_symmetry_cell_setting           orthorhombic
_symmetry_space_group_name_H-M   'P c a 21'
_symmetry_Int_Tables_number      29
_space_group_name_Hall           'P 2c -2ac'
loop_
_symmetry_equiv_pos_site_id
_symmetry_equiv_pos_as_xyz
1 x,y,z
2 -x,-y,1/2+z
3 1/2+x,-y,z
4 1/2-x,y,1/2+z
_cell_length_a                   9.9649(13)
_cell_length_b                   10.5833(15)
_cell_length_c                   10.5288(15)
_cell_angle_alpha                90
_cell_angle_beta                 90
_cell_angle_gamma                90
_cell_volume                     1110.38
loop_
_atom_site_label
_atom_site_type_symbol
_atom_site_fract_x
_atom_site_fract_y
_atom_site_fract_z
La1 La 0.14183(6) 0.17076(5) 0.47267(7)
P1 P -0.5911(3) 0.3282(3) 0.6506(3)
P2 P -0.5147(3) 0.1183(3) 0.3120(3)
N1 N -0.3709(9) 0.2486(9) 0.4935(13)
H1 H -0.3214 0.1775 0.4807
C1 C -0.4587(14) 0.2163(13) 0.6039(14)
H2 H -0.4011 0.2034 0.6770
H3 H -0.5014 0.1360 0.5856
C2 C -0.4443(12) 0.2678(11) 0.3686(12)
H4 H -0.3826 0.3011 0.3057
H5 H -0.5159 0.3288 0.3802
C3 C -0.2681(12) 0.3493(13) 0.5184(12)
H6 H -0.2654 0.3685 0.6084
H7 H -0.2921 0.4258 0.4730
C4 C -0.1313(10) 0.3032(9) 0.475(3)
O1 O -0.0282(8) 0.3653(8) 0.5086(9)
O2 O -0.1250(8) 0.1987(9) 0.4223(8)
O3 O -0.6361(9) 0.2808(8) 0.7778(9)
O4 O -0.6970(8) 0.3310(9) 0.5488(8)
O5 O -0.5192(9) 0.4582(8) 0.6678(9)
H8 H -0.5332 0.5026 0.6054
O6 O -0.6546(9) 0.1042(8) 0.3593(8)
O7 O -0.4189(8) 0.0221(8) 0.3659(8)
O8 O -0.5061(8) 0.1272(9) 0.1686(8)
O9 O 0.2642(9) 0.0080(8) 0.6218(9)
La1C La -0.64183(6) 0.17076(5) 0.97267(7)
La1_2 La -0.85817(6) 0.17076(5) 0.47267(7)
La1B La -0.35817(6) -0.17076(5) 0.47267(7)
La1C_2 La -0.64183(6) 0.17076(5) -0.02733(7)
O3C O 0.1361(9) 0.2808(8) 0.2778(9)
O4_2 O 0.3030(8) 0.3310(9) 0.5488(8)
O6_2 O 0.3454(9) 0.1042(8) 0.3593(8)
O7B O 0.0811(8) -0.0221(8) 0.3659(8)
O8C O 0.0061(8) 0.1272(9) 0.6686(8)
loop_
_geom_bond_atom_site_label_1
_geom_bond_atom_site_label_2
_geom_bond_site_symmetry_1
_geom_bond_site_symmetry_2
La1 O1 1_555 1_555
P1 C1 1_555 1_555
P2 C2 1_555 1_555
N1 H1 1_555 1_555
C1 N1 1_555 1_555
H2 C1 1_555 1_555
H3 C1 1_555 1_555
C2 N1 1_555 1_555
H4 C2 1_555 1_555
H5 C2 1_555 1_555
C3 N1 1_555 1_555
H6 C3 1_555 1_555
H7 C3 1_555 1_555
C4 C3 1_555 1_555
O1 C4 1_555 1_555
O2 La1 1_555 1_555
O3 P1 1_555 1_555
O4 P1 1_555 1_555
O5 P1 1_555 1_555
H8 O5 1_555 1_555
O6 P2 1_555 1_555
O7 P2 1_555 1_555
O8 P2 1_555 1_555
O9 La1 1_555 1_555
La1C O3 1_555 1_555
La1_2 O4 1_555 1_555
La1B O7 1_555 1_555
La1C_2 O8 1_555 1_555
O3C La1 1_555 1_555
O4_2 La1 1_555 1_555
O6_2 La1 1_555 1_555
O7B La1 1_555 1_555
O8C La1 1_555 1_555
C4 O2 1_555 1_555
O6 La1_2 1_555 1_555

#END
