
#######################################################################
#
#                 Cambridge Crystallographic Data Centre
#                                CCDC 
#
#######################################################################
#
# If this CIF has been generated from an entry in the Cambridge 
# Structural Database, then it will include bibliographic, chemical, 
# crystal, experimental, refinement or atomic coordinate data resulting 
# from the CCDC's data processing and validation procedures.
#
#######################################################################

data_DEJTOC01
_symmetry_cell_setting           orthorhombic
_symmetry_space_group_name_H-M   'P b c a'
_symmetry_Int_Tables_number      61
_space_group_name_Hall           '-P 2ac 2ab'
loop_
_symmetry_equiv_pos_site_id
_symmetry_equiv_pos_as_xyz
1 x,y,z
2 1/2+x,1/2-y,-z
3 -x,1/2+y,1/2-z
4 1/2-x,-y,1/2+z
5 -x,-y,-z
6 1/2-x,1/2+y,z
7 x,1/2-y,1/2+z
8 1/2+x,y,1/2-z
_cell_length_a                   9.8645(16)
_cell_length_b                   10.3423(16)
_cell_length_c                   20.454(3)
_cell_angle_alpha                90
_cell_angle_beta                 90
_cell_angle_gamma                90
_cell_volume                     2086.75
loop_
_atom_site_label
_atom_site_type_symbol
_atom_site_fract_x
_atom_site_fract_y
_atom_site_fract_z
La1 La 0.3601(4) 0.5419(4) 0.33860(18)
P1 P 1.0891(8) 0.7172(7) 0.4177(4)
P2 P 1.0122(8) 0.3752(7) 0.3121(4)
O1 O 0.5268(3) 0.586(3) 0.4376(7)
C1 C 0.63097(11) 0.5627(6) 0.4056(2)
O2 O 1.1530(19) 0.8496(8) 0.4056(10)
O3 O 0.9232(14) 0.4476(12) 0.2623(11)
O4 O 1.1578(9) 0.4216(13) 0.3043(10)
O5 O 0.6220(3) 0.485(2) 0.3597(9)
O6 O 1.0038(16) 0.2313(6) 0.2970(12)
O7 O 1.1992(16) 0.6155(11) 0.4236(10)
O8 O 0.238(4) 0.684(3) 0.2471(15)
O9 O 1.010(2) 0.7221(13) 0.4824(9)
H1 H 1.02765 0.79137 0.50280
C2 C 0.76819(13) 0.6016(12) 0.4319(4)
H2 H 0.76825 0.68791 0.44284
H3 H 0.78064 0.54649 0.46918
C3 C 0.943(3) 0.4390(15) 0.3885(6)
H4 H 0.88056 0.37593 0.40741
H5 H 1.01292 0.45398 0.41953
N1 N 0.8651(12) 0.5663(8) 0.3755(7)
H6 H 0.81283 0.55149 0.34004
C4 C 0.9604(17) 0.6778(17) 0.3572(7)
H7 H 0.90262 0.75418 0.35188
H8 H 1.00073 0.65924 0.31758
La1E La 1.1399(4) 1.0419(4) 0.33860(18)
La1G La 0.8601(4) 0.5419(4) 0.16140(18)
La1_2 La 1.3601(4) 0.5419(4) 0.33860(18)
La1E_2 La 1.1399(4) 0.0419(4) 0.33860(18)
O2E O 0.3470(19) 0.3496(8) 0.4056(10)
O3G O 0.4232(14) 0.4476(12) 0.2377(11)
O4_2 O 0.1578(9) 0.4216(13) 0.3043(10)
O6E O 0.4962(16) 0.7313(6) 0.2970(12)
O7_2 O 0.1992(16) 0.6155(11) 0.4236(10)
loop_
_geom_bond_atom_site_label_1
_geom_bond_atom_site_label_2
_geom_bond_site_symmetry_1
_geom_bond_site_symmetry_2
La1 O1 1_555 1_555
P1 O2 1_555 1_555
P2 O3 1_555 1_555
O1 C1 1_555 1_555
C1 O5 1_555 1_555
O2 La1E 1_555 1_555
O3 La1G 1_555 1_555
O4 P2 1_555 1_555
O5 La1 1_555 1_555
O6 P2 1_555 1_555
O7 P1 1_555 1_555
O8 La1 1_555 1_555
O9 P1 1_555 1_555
H1 O9 1_555 1_555
C2 C1 1_555 1_555
H2 C2 1_555 1_555
H3 C2 1_555 1_555
C3 P2 1_555 1_555
H4 C3 1_555 1_555
H5 C3 1_555 1_555
N1 C2 1_555 1_555
H6 N1 1_555 1_555
C4 P1 1_555 1_555
H7 C4 1_555 1_555
H8 C4 1_555 1_555
La1_2 O4 1_555 1_555
La1E_2 O6 1_555 1_555
O2E La1 1_555 1_555
O3G La1 1_555 1_555
O4_2 La1 1_555 1_555
O6E La1 1_555 1_555
O7_2 La1 1_555 1_555
O7 La1_2 1_555 1_555
C3 N1 1_555 1_555
N1 C4 1_555 1_555

#END
