
#######################################################################
#
#                 Cambridge Crystallographic Data Centre
#                                CCDC 
#
#######################################################################
#
# If this CIF has been generated from an entry in the Cambridge 
# Structural Database, then it will include bibliographic, chemical, 
# crystal, experimental, refinement or atomic coordinate data resulting 
# from the CCDC's data processing and validation procedures.
#
#######################################################################

data_DEJVIY
_symmetry_cell_setting           triclinic
_symmetry_space_group_name_H-M   'P -1'
_symmetry_Int_Tables_number      2
_space_group_name_Hall           '-P 1'
loop_
_symmetry_equiv_pos_site_id
_symmetry_equiv_pos_as_xyz
1 x,y,z
2 -x,-y,-z
_cell_length_a                   7.9178(7)
_cell_length_b                   12.5608(5)
_cell_length_c                   15.3008(7)
_cell_angle_alpha                110.453(7)
_cell_angle_beta                 90.296(12)
_cell_angle_gamma                90.586(13)
_cell_volume                     1425.66
loop_
_atom_site_label
_atom_site_type_symbol
_atom_site_fract_x
_atom_site_fract_y
_atom_site_fract_z
Er1 Er 0.75692(4) 0.88553(2) 0.52607(2)
P1 P 0.8654(2) 1.01306(13) 0.36325(11)
P2 P 0.4670(2) 1.32514(13) 0.41627(11)
P3 P 0.9854(2) 0.62829(13) 0.43449(11)
P4 P 1.4382(2) 0.85338(13) 0.35305(11)
N1 N 0.7664(6) 1.2171(4) 0.3317(3)
H1 H 0.8149 1.2565 0.3879
N2 N 1.2833(6) 0.6472(4) 0.3368(3)
H2 H 1.3296 0.6618 0.3945
C1 C 0.7089(8) 1.1042(6) 0.3361(5)
H3 H 0.6576 1.0610 0.2764
H4 H 0.6207 1.1190 0.3824
C2 C 0.6173(8) 1.2859(5) 0.3206(4)
H5 H 0.5573 1.2427 0.2636
H6 H 0.6599 1.3549 0.3133
C3 C 0.8986(9) 1.2096(6) 0.2585(4)
H7 H 0.9377 1.2860 0.2666
H8 H 0.9944 1.1683 0.2695
C4 C 0.8403(9) 1.1530(6) 0.1589(5)
C5 C 0.8240(14) 1.0373(7) 0.1178(5)
H9 H 0.8460 0.9918 0.1531
C6 C 0.7761(16) 0.9868(7) 0.0260(6)
H10 H 0.7624 0.9083 0.0003
C7 C 0.7479(12) 1.0538(7) -0.0287(5)
C8 C 0.7643(12) 1.1693(7) 0.0105(5)
H11 H 0.7462 1.2145 -0.0254
C9 C 0.8081(11) 1.2190(7) 0.1045(5)
H12 H 0.8159 1.2977 0.1312
C10 C 0.7080(14) 0.9949(9) -0.1303(6)
C11 C 1.2525(8) 0.7591(5) 0.3274(4)
H13 H 1.1624 0.7965 0.3691
H14 H 1.2145 0.7467 0.2641
C12 C 1.1224(8) 0.5810(5) 0.3336(4)
H15 H 1.1523 0.5028 0.3231
H16 H 1.0574 0.5811 0.2797
C13 C 1.4105(8) 0.5751(5) 0.2665(4)
H17 H 1.5062 0.6229 0.2642
H18 H 1.4517 0.5162 0.2883
C14 C 1.3401(9) 0.5203(5) 0.1698(4)
C15 C 1.2814(11) 0.4098(6) 0.1394(5)
H19 H 1.2868 0.3689 0.1795
C16 C 1.2150(12) 0.3581(7) 0.0509(6)
H20 H 1.1728 0.2841 0.0328
C17 C 1.2111(10) 0.4168(6) -0.0111(5)
C18 C 1.2715(11) 0.5253(7) 0.0168(5)
H21 H 1.2693 0.5643 -0.0248
C19 C 1.3369(11) 0.5794(6) 0.1066(5)
H22 H 1.3779 0.6536 0.1245
C20 C 1.1496(12) 0.3576(8) -0.1095(6)
O1 O 0.6736(14) 0.8963(7) -0.1646(5)
O2 O 0.7183(11) 1.0631(6) -0.1781(4)
H23 H 0.6818 1.0303 -0.2312
O3 O 1.0901(9) 0.2541(5) -0.1235(4)
H24 H 1.1160 0.2117 -0.1758
O4 O 1.1570(10) 0.4010(6) -0.1682(5)
O5 O 0.8433(6) 0.8983(4) 0.2869(3)
O6 O 0.8163(6) 1.0097(4) 0.4579(3)
O7 O 1.0383(6) 1.0667(4) 0.3661(3)
O8 O 0.3646(6) 1.4204(4) 0.3961(3)
H25 H 0.3984 1.4829 0.4306
O9 O 0.5605(6) 1.3732(4) 0.5073(3)
O10 O 0.3539(6) 1.2246(4) 0.4035(3)
O11 O 0.8516(6) 0.5294(4) 0.4067(3)
H26 H 0.8776 0.4825 0.4305
O12 O 1.0788(6) 0.6308(4) 0.5203(3)
O13 O 0.9059(6) 0.7374(4) 0.4367(3)
O14 O 1.5504(6) 0.8090(4) 0.2647(3)
H27 H 1.6432 0.8407 0.2759
O15 O 1.5224(6) 0.8410(4) 0.4371(3)
O16 O 1.3736(5) 0.9699(4) 0.3645(3)
Er1A Er 1.24308(4) 1.11447(2) 0.47393(2)
Er1A_2 Er 0.24308(4) 1.11447(2) 0.47393(2)
Er1_2 Er 1.75692(4) 0.88553(2) 0.52607(2)
O7A O 0.9617(6) 0.9333(4) 0.6339(3)
O10A O 0.6461(6) 0.7754(4) 0.5965(3)
O15_2 O 0.5224(6) 0.8410(4) 0.4371(3)
O16A O 0.6264(5) 1.0301(4) 0.6355(3)
loop_
_geom_bond_atom_site_label_1
_geom_bond_atom_site_label_2
_geom_bond_site_symmetry_1
_geom_bond_site_symmetry_2
Er1 O6 1_555 1_555
P1 C1 1_555 1_555
P2 C2 1_555 1_555
P3 C12 1_555 1_555
P4 C11 1_555 1_555
N1 H1 1_555 1_555
N2 H2 1_555 1_555
C1 N1 1_555 1_555
H3 C1 1_555 1_555
H4 C1 1_555 1_555
C2 N1 1_555 1_555
H5 C2 1_555 1_555
H6 C2 1_555 1_555
C3 N1 1_555 1_555
H7 C3 1_555 1_555
H8 C3 1_555 1_555
C4 C3 1_555 1_555
C5 C4 1_555 1_555
H9 C5 1_555 1_555
C6 C5 1_555 1_555
H10 C6 1_555 1_555
C7 C6 1_555 1_555
C8 C7 1_555 1_555
H11 C8 1_555 1_555
C9 C4 1_555 1_555
H12 C9 1_555 1_555
C10 C7 1_555 1_555
C11 N2 1_555 1_555
H13 C11 1_555 1_555
H14 C11 1_555 1_555
C12 N2 1_555 1_555
H15 C12 1_555 1_555
H16 C12 1_555 1_555
C13 N2 1_555 1_555
H17 C13 1_555 1_555
H18 C13 1_555 1_555
C14 C13 1_555 1_555
C15 C14 1_555 1_555
H19 C15 1_555 1_555
C16 C15 1_555 1_555
H20 C16 1_555 1_555
C17 C16 1_555 1_555
C18 C17 1_555 1_555
H21 C18 1_555 1_555
C19 C14 1_555 1_555
H22 C19 1_555 1_555
C20 C17 1_555 1_555
O1 C10 1_555 1_555
O2 C10 1_555 1_555
H23 O2 1_555 1_555
O3 C20 1_555 1_555
H24 O3 1_555 1_555
O4 C20 1_555 1_555
O5 P1 1_555 1_555
O6 P1 1_555 1_555
O7 P1 1_555 1_555
O8 P2 1_555 1_555
H25 O8 1_555 1_555
O9 P2 1_555 1_555
O10 P2 1_555 1_555
O11 P3 1_555 1_555
H26 O11 1_555 1_555
O12 P3 1_555 1_555
O13 Er1 1_555 1_555
O14 P4 1_555 1_555
H27 O14 1_555 1_555
O15 P4 1_555 1_555
O16 P4 1_555 1_555
Er1A O7 1_555 1_555
Er1A_2 O10 1_555 1_555
Er1_2 O15 1_555 1_555
O7A Er1 1_555 1_555
O10A Er1 1_555 1_555
O15_2 Er1 1_555 1_555
O16A Er1 1_555 1_555
P3 O13 1_555 1_555
C8 C9 1_555 1_555
C18 C19 1_555 1_555
O16 Er1A 1_555 1_555

#END
