
#######################################################################
#
#                 Cambridge Crystallographic Data Centre
#                                CCDC 
#
#######################################################################
#
# If this CIF has been generated from an entry in the Cambridge 
# Structural Database, then it will include bibliographic, chemical, 
# crystal, experimental, refinement or atomic coordinate data resulting 
# from the CCDC's data processing and validation procedures.
#
#######################################################################

data_DEJWAR
_symmetry_cell_setting           triclinic
_symmetry_space_group_name_H-M   'P -1'
_symmetry_Int_Tables_number      2
_space_group_name_Hall           '-P 1'
loop_
_symmetry_equiv_pos_site_id
_symmetry_equiv_pos_as_xyz
1 x,y,z
2 -x,-y,-z
_cell_length_a                   10.340(2)
_cell_length_b                   10.750(2)
_cell_length_c                   12.702(3)
_cell_angle_alpha                72.51(3)
_cell_angle_beta                 84.96(3)
_cell_angle_gamma                78.93(3)
_cell_volume                     1320.88
loop_
_atom_site_label
_atom_site_type_symbol
_atom_site_fract_x
_atom_site_fract_y
_atom_site_fract_z
Nd1 Nd 0.75049(14) -0.00190(15) 0.51431(10)
N1 N 0.5994(13) 0.2291(13) 0.4421(12)
C1 C 0.5130(17) 0.3472(17) 0.4000(14)
N2 N 0.5298(14) 0.1329(14) 0.4559(13)
C2 C 0.5301(19) 0.4787(17) 0.3713(16)
H1 H 0.6115 0.5001 0.3778
N3 N 0.4016(14) 0.1779(15) 0.4266(15)
C3 C 0.423(2) 0.577(2) 0.333(2)
H2 H 0.4312 0.6655 0.3138
N4 N 0.9063(14) 0.1336(15) 0.3768(13)
C4 C 0.298(2) 0.540(2) 0.3227(19)
H3 H 0.2270 0.6067 0.2942
N5 N 1.0291(16) 0.1170(18) 0.4090(14)
C5 C 0.2793(19) 0.4105(19) 0.3535(16)
H4 H 0.1978 0.3884 0.3490
N6 N 1.1107(13) 0.1680(14) 0.3289(14)
C6 C 0.3911(18) 0.3118(17) 0.3928(17)
N7 N 0.682(2) -0.086(2) 0.2539(14)
C7 C 0.9086(17) 0.2043(17) 0.2668(15)
N8 N 0.7294(13) -0.0558(15) 0.3405(12)
C8 C 0.808(2) 0.247(2) 0.1876(18)
H5 H 0.7224 0.2317 0.2086
N9 N 0.8191(15) -0.1541(15) 0.3919(14)
C9 C 0.8373(18) 0.3110(17) 0.0815(16)
H6 H 0.7728 0.3438 0.0287
N10 N 0.6175(17) 0.037(2) 0.6892(17)
H7 H 0.5549 0.1094 0.6677
H8 H 0.5764 -0.0325 0.7206
C10 C 0.974(4) 0.326(2) 0.0532(19)
H9 H 0.9954 0.3646 -0.0207
N11 N 0.8409(13) 0.1458(14) 0.6141(14)
H10 H 0.9289 0.1374 0.6031
H11 H 0.8057 0.2314 0.5837
C11 C 1.071(2) 0.2906(17) 0.1238(17)
H12 H 1.1557 0.3078 0.1027
C12 C 1.0364(16) 0.2261(14) 0.2308(17)
C13 C 0.7437(18) -0.2091(19) 0.2584(17)
C14 C 0.737(2) -0.289(2) 0.186(2)
H13 H 0.6830 -0.2588 0.1255
C15 C 0.815(2) -0.415(3) 0.213(2)
H14 H 0.8095 -0.4733 0.1731
C16 C 0.898(3) -0.450(2) 0.298(3)
H15 H 0.9529 -0.5323 0.3103
C17 C 0.909(2) -0.378(2) 0.364(2)
H16 H 0.9660 -0.4077 0.4230
C18 C 0.8295(15) -0.2548(16) 0.3392(17)
C19 C 0.6960(19) 0.054(2) 0.7731(15)
C20 C 0.662(2) 0.020(2) 0.882(2)
H17 H 0.5839 -0.0128 0.9050
C21 C 0.738(3) 0.034(2) 0.9587(18)
H18 H 0.7139 0.0109 1.0335
C22 C 0.853(3) 0.084(2) 0.920(2)
H19 H 0.9090 0.0910 0.9705
C23 C 0.8868(19) 0.1237(19) 0.807(2)
H20 H 0.9624 0.1603 0.7832
C24 C 0.8093(19) 0.109(2) 0.7347(19)
Nd1A Nd 0.24951(14) 0.00190(15) 0.48569(10)
Nd1A_2 Nd 1.24951(14) 0.00190(15) 0.48569(10)
N3A N 0.5984(14) -0.1779(15) 0.5734(15)
N5A N 0.9709(16) -0.1170(18) 0.5910(14)
N6A N 0.8893(13) -0.1680(14) 0.6711(14)
loop_
_geom_bond_atom_site_label_1
_geom_bond_atom_site_label_2
_geom_bond_site_symmetry_1
_geom_bond_site_symmetry_2
Nd1 N1 1_555 1_555
N1 C1 1_555 1_555
C1 C2 1_555 1_555
N2 Nd1 1_555 1_555
C2 H1 1_555 1_555
N3 N2 1_555 1_555
C3 C2 1_555 1_555
H2 C3 1_555 1_555
N4 Nd1 1_555 1_555
C4 C3 1_555 1_555
H3 C4 1_555 1_555
N5 N4 1_555 1_555
C5 C4 1_555 1_555
H4 C5 1_555 1_555
N6 N5 1_555 1_555
C6 C1 1_555 1_555
N7 N8 1_555 1_555
C7 N4 1_555 1_555
N8 Nd1 1_555 1_555
C8 C7 1_555 1_555
H5 C8 1_555 1_555
N9 Nd1 1_555 1_555
C9 C8 1_555 1_555
H6 C9 1_555 1_555
N10 Nd1 1_555 1_555
H7 N10 1_555 1_555
H8 N10 1_555 1_555
C10 C9 1_555 1_555
H9 C10 1_555 1_555
N11 Nd1 1_555 1_555
H10 N11 1_555 1_555
H11 N11 1_555 1_555
C11 C10 1_555 1_555
H12 C11 1_555 1_555
C12 N6 1_555 1_555
C13 N7 1_555 1_555
C14 C13 1_555 1_555
H13 C14 1_555 1_555
C15 C14 1_555 1_555
H14 C15 1_555 1_555
C16 C15 1_555 1_555
H15 C16 1_555 1_555
C17 C16 1_555 1_555
H16 C17 1_555 1_555
C18 N9 1_555 1_555
C19 N10 1_555 1_555
C20 C19 1_555 1_555
H17 C20 1_555 1_555
C21 C20 1_555 1_555
H18 C21 1_555 1_555
C22 C21 1_555 1_555
H19 C22 1_555 1_555
C23 C22 1_555 1_555
H20 C23 1_555 1_555
C24 N11 1_555 1_555
Nd1A N3 1_555 1_555
Nd1A_2 N5 1_555 1_555
N3A Nd1 1_555 1_555
N5A Nd1 1_555 1_555
N6A Nd1 1_555 1_555
N1 N2 1_555 1_555
N3 C6 1_555 1_555
C5 C6 1_555 1_555
N6 Nd1A_2 1_555 1_555
C7 C12 1_555 1_555
N8 N9 1_555 1_555
C11 C12 1_555 1_555
C13 C18 1_555 1_555
C17 C18 1_555 1_555
C19 C24 1_555 1_555
C23 C24 1_555 1_555
N5A N6A 1_555 1_555

#END
