
#######################################################################
#
#                 Cambridge Crystallographic Data Centre
#                                CCDC 
#
#######################################################################
#
# If this CIF has been generated from an entry in the Cambridge 
# Structural Database, then it will include bibliographic, chemical, 
# crystal, experimental, refinement or atomic coordinate data resulting 
# from the CCDC's data processing and validation procedures.
#
#######################################################################

data_DEKHIL
_symmetry_cell_setting           triclinic
_symmetry_space_group_name_H-M   'P -1'
_symmetry_Int_Tables_number      2
_space_group_name_Hall           '-P 1'
loop_
_symmetry_equiv_pos_site_id
_symmetry_equiv_pos_as_xyz
1 x,y,z
2 -x,-y,-z
_cell_length_a                   7.699(2)
_cell_length_b                   11.671(4)
_cell_length_c                   13.477(4)
_cell_angle_alpha                82.295(5)
_cell_angle_beta                 83.799(5)
_cell_angle_gamma                73.086(5)
_cell_volume                     1145.09
loop_
_atom_site_label
_atom_site_type_symbol
_atom_site_fract_x
_atom_site_fract_y
_atom_site_fract_z
Mn1 Mn 0.31343(5) 0.11631(3) 0.52119(3)
O1 O 0.3983(2) -0.07788(14) 0.53669(12)
O2 O 0.2559(3) -0.21387(16) 0.51850(13)
O3 O 0.3596(3) -0.3409(2) 0.98127(13)
O4 O 0.6298(3) -0.15864(17) 1.34082(13)
O5 O 0.8895(3) -0.19774(19) 1.24361(14)
O6 O 0.0454(2) 0.11842(18) 0.58894(13)
H1 H 0.0405 0.1454 0.6450
H2 H -0.0546 0.1467 0.5613
N1 N 0.2215(3) 0.13679(18) 0.36521(15)
N2 N 0.2568(3) 0.31610(18) 0.46225(16)
C1 C 0.3301(3) -0.1659(2) 0.57027(18)
C2 C 0.3504(3) -0.2119(2) 0.67908(17)
C3 C 0.3605(4) -0.1373(2) 0.74871(19)
H3 H 0.3629 -0.0587 0.7271
C4 C 0.3672(4) -0.1778(3) 0.8495(2)
H4 H 0.3696 -0.1262 0.8959
C5 C 0.3704(4) -0.2961(3) 0.88077(18)
C6 C 0.3701(4) -0.3740(2) 0.81202(19)
H5 H 0.3794 -0.4547 0.8330
C7 C 0.3559(3) -0.3308(2) 0.71244(18)
H6 H 0.3499 -0.3820 0.6665
C8 C 0.4516(4) -0.3027(3) 1.04837(19)
C9 C 0.6272(4) -0.2966(3) 1.0249(2)
H7 H 0.6858 -0.3155 0.9627
C10 C 0.7153(4) -0.2624(3) 1.0942(2)
H8 H 0.8336 -0.2574 1.0780
C11 C 0.6309(4) -0.2350(2) 1.18791(18)
C12 C 0.7259(4) -0.1946(2) 1.26243(19)
C13 C 0.4566(4) -0.2457(3) 1.2103(2)
H9 H 0.3996 -0.2308 1.2736
C14 C 0.3643(4) -0.2782(3) 1.1404(2)
H10 H 0.2458 -0.2832 1.1558
C15 C 0.2122(4) 0.0480(2) 0.3163(2)
H11 H 0.2512 -0.0306 0.3466
C16 C 0.1470(4) 0.0668(3) 0.2217(2)
H12 H 0.1417 0.0019 0.1901
C17 C 0.0908(4) 0.1814(3) 0.1756(2)
H13 H 0.0459 0.1952 0.1124
C18 C 0.1009(3) 0.2778(2) 0.22361(19)
C19 C 0.0467(4) 0.4015(3) 0.1808(2)
H14 H -0.0010 0.4201 0.1182
C20 C 0.0634(4) 0.4904(3) 0.2291(2)
H15 H 0.0268 0.5695 0.1995
C21 C 0.1368(4) 0.4660(2) 0.3257(2)
C22 C 0.1645(4) 0.5546(2) 0.3773(2)
H16 H 0.1334 0.6347 0.3497
C23 C 0.2370(4) 0.5234(2) 0.4679(2)
H17 H 0.2565 0.5816 0.5027
C24 C 0.2816(4) 0.4033(2) 0.5080(2)
H18 H 0.3315 0.3830 0.5700
C25 C 0.1865(3) 0.3465(2) 0.37097(18)
C26 C 0.1672(3) 0.2507(2) 0.31928(18)
Mn1A Mn 0.68657(5) -0.11631(3) 0.47881(3)
Mn1A_2 Mn 0.68657(5) -0.11631(3) 1.47881(3)
O1A O 0.6017(2) 0.07788(14) 0.46331(12)
O4A O 0.3702(3) 0.15864(17) 0.65918(13)
loop_
_geom_bond_atom_site_label_1
_geom_bond_atom_site_label_2
_geom_bond_site_symmetry_1
_geom_bond_site_symmetry_2
Mn1 O1 1_555 1_555
O1 C1 1_555 1_555
O2 C1 1_555 1_555
O3 C5 1_555 1_555
O4 C12 1_555 1_555
O5 C12 1_555 1_555
O6 Mn1 1_555 1_555
H1 O6 1_555 1_555
H2 O6 1_555 1_555
N1 Mn1 1_555 1_555
N2 Mn1 1_555 1_555
C1 C2 1_555 1_555
C2 C3 1_555 1_555
C3 H3 1_555 1_555
C4 C3 1_555 1_555
H4 C4 1_555 1_555
C5 C4 1_555 1_555
C6 C5 1_555 1_555
H5 C6 1_555 1_555
C7 C2 1_555 1_555
H6 C7 1_555 1_555
C8 O3 1_555 1_555
C9 C8 1_555 1_555
H7 C9 1_555 1_555
C10 C9 1_555 1_555
H8 C10 1_555 1_555
C11 C10 1_555 1_555
C12 C11 1_555 1_555
C13 C11 1_555 1_555
H9 C13 1_555 1_555
C14 C8 1_555 1_555
H10 C14 1_555 1_555
C15 N1 1_555 1_555
H11 C15 1_555 1_555
C16 C15 1_555 1_555
H12 C16 1_555 1_555
C17 C16 1_555 1_555
H13 C17 1_555 1_555
C18 C17 1_555 1_555
C19 C18 1_555 1_555
H14 C19 1_555 1_555
C20 C19 1_555 1_555
H15 C20 1_555 1_555
C21 C20 1_555 1_555
C22 C21 1_555 1_555
H16 C22 1_555 1_555
C23 C22 1_555 1_555
H17 C23 1_555 1_555
C24 N2 1_555 1_555
H18 C24 1_555 1_555
C25 N2 1_555 1_555
C26 N1 1_555 1_555
Mn1A O1 1_555 1_555
Mn1A_2 O4 1_555 1_555
O1A Mn1 1_555 1_555
O4A Mn1 1_555 1_555
C6 C7 1_555 1_555
C13 C14 1_555 1_555
C18 C26 1_555 1_555
C21 C25 1_555 1_555
C23 C24 1_555 1_555
C25 C26 1_555 1_555
Mn1A O1A 1_555 1_555

#END
