
#######################################################################
#
#                 Cambridge Crystallographic Data Centre
#                                CCDC 
#
#######################################################################
#
# If this CIF has been generated from an entry in the Cambridge 
# Structural Database, then it will include bibliographic, chemical, 
# crystal, experimental, refinement or atomic coordinate data resulting 
# from the CCDC's data processing and validation procedures.
#
#######################################################################

data_DEKLAH
_symmetry_cell_setting           monoclinic
_symmetry_space_group_name_H-M   'C 2/m'
_symmetry_Int_Tables_number      12
_space_group_name_Hall           '-C 2y'
loop_
_symmetry_equiv_pos_site_id
_symmetry_equiv_pos_as_xyz
1 x,y,z
2 1/2+x,1/2+y,z
3 -x,y,-z
4 1/2-x,1/2+y,-z
5 -x,-y,-z
6 1/2-x,1/2-y,-z
7 x,-y,z
8 1/2+x,1/2-y,z
_cell_length_a                   8.388(5)
_cell_length_b                   15.193(7)
_cell_length_c                   9.716(5)
_cell_angle_alpha                90
_cell_angle_beta                 101.496(16)
_cell_angle_gamma                90
_cell_volume                     1213.36
loop_
_atom_site_label
_atom_site_type_symbol
_atom_site_fract_x
_atom_site_fract_y
_atom_site_fract_z
La1 La 0.0000 0.297372(16) 1.0000
O1 O 0.0116(2) 0.33339(12) 0.74558(19)
O2 O 0.2341(2) 0.26796(11) 0.85613(17)
O3 O 0.8167(2) 0.57322(11) 0.96202(19)
O4 O 0.0000 0.13156(18) 1.0000
H1 H 0.089(3) 0.1058(19) 1.005(3)
C1 C 0.3274(3) 0.42005(17) 0.6494(3)
C2 C 0.4956(3) 0.42147(17) 0.6792(3)
H2 H 0.5533 0.3673 0.6885
C3 C 0.5827(4) 0.5000 0.6961(4)
C4 C 0.2416(5) 0.5000 0.6359(4)
H3 H 0.1261 0.5000 0.6179
C5 C 0.2371(3) 0.33229(16) 0.6287(3)
H4 H 0.1536 0.3347 0.5410
H5 H 0.3150 0.2850 0.6182
C6 C 0.1561(3) 0.31026(16) 0.7498(3)
C7 C 0.7656(4) 0.5000 0.7406(4)
H6 H 0.8118 0.4471 0.7036
H7 H 0.8118 0.5529 0.7036
C8 C 0.8065(4) 0.5000 0.8988(4)
La1G La 0.5000 0.202628(16) 1.0000
La1F La 1.0000 0.702628(16) 1.0000
La1F_2 La 0.0000 0.702628(16) 1.0000
La1A La 0.5000 0.797372(16) 1.0000
La1_2 La 1.0000 0.297372(16) 1.0000
O1F O 0.0116(2) 0.66661(12) 0.74558(19)
O1B O -0.0116(2) 0.33339(12) 1.25442(19)
O2F O 0.2341(2) 0.73204(11) 0.85613(17)
O2G O -0.2659(2) 0.23204(11) 0.85613(17)
O2B O -0.2341(2) 0.26796(11) 1.14387(17)
O2E O 0.2659(2) 0.23204(11) 1.14387(17)
O3F O 0.8167(2) 0.42678(11) 0.96202(19)
O3F_2 O -0.1833(2) 0.42678(11) 0.96202(19)
O3D O 0.1833(2) 0.42678(11) 1.03798(19)
H1B H -0.089(3) 0.1058(19) 0.995(3)
C1F C 0.3274(3) 0.57995(17) 0.6494(3)
C2F C 0.4956(3) 0.57853(17) 0.6792(3)
H2F H 0.5533 0.6327 0.6885
C5F C 0.2371(3) 0.66771(16) 0.6287(3)
H4F H 0.1536 0.6653 0.5410
H5F H 0.3150 0.7150 0.6182
C6F C 0.1561(3) 0.68974(16) 0.7498(3)
loop_
_geom_bond_atom_site_label_1
_geom_bond_atom_site_label_2
_geom_bond_site_symmetry_1
_geom_bond_site_symmetry_2
La1 O1 1_555 1_555
O1 C6 1_555 1_555
O2 La1 1_555 1_555
O3 C8 1_555 1_555
O4 La1 1_555 1_555
H1 O4 1_555 1_555
C1 C2 1_555 1_555
C2 H2 1_555 1_555
C3 C2 1_555 1_555
C4 C1 1_555 1_555
H3 C4 1_555 1_555
C5 C1 1_555 1_555
H4 C5 1_555 1_555
H5 C5 1_555 1_555
C6 O2 1_555 1_555
C7 C3 1_555 1_555
H6 C7 1_555 1_555
H7 C7 1_555 1_555
C8 C7 1_555 1_555
La1G O2 1_555 1_555
La1F O3 1_555 1_555
La1F_2 O1F 1_555 1_555
La1A O2F 1_555 1_555
La1_2 O3F 1_555 1_555
O1F C6F 1_555 1_555
O1B La1 1_555 1_555
O2F La1F_2 1_555 1_555
O2G La1 1_555 1_555
O2B La1 1_555 1_555
O2E La1 1_555 1_555
O3F C8 1_555 1_555
O3F_2 La1 1_555 1_555
O3D La1 1_555 1_555
H1B O4 1_555 1_555
C1F C4 1_555 1_555
C2F C3 1_555 1_555
H2F C2F 1_555 1_555
C5F C1F 1_555 1_555
H4F C5F 1_555 1_555
H5F C5F 1_555 1_555
C6F O2F 1_555 1_555
C5 C6 1_555 1_555
La1G O2E 1_555 1_555
C1F C2F 1_555 1_555
C5F C6F 1_555 1_555

#END
