
#######################################################################
#
#                 Cambridge Crystallographic Data Centre
#                                CCDC 
#
#######################################################################
#
# If this CIF has been generated from an entry in the Cambridge 
# Structural Database, then it will include bibliographic, chemical, 
# crystal, experimental, refinement or atomic coordinate data resulting 
# from the CCDC's data processing and validation procedures.
#
#######################################################################

data_DEKPIT
_symmetry_cell_setting           triclinic
_symmetry_space_group_name_H-M   'P -1'
_symmetry_Int_Tables_number      2
_space_group_name_Hall           '-P 1'
loop_
_symmetry_equiv_pos_site_id
_symmetry_equiv_pos_as_xyz
1 x,y,z
2 -x,-y,-z
_cell_length_a                   10.2741(3)
_cell_length_b                   11.3723(4)
_cell_length_c                   14.0161(5)
_cell_angle_alpha                85.7249(5)
_cell_angle_beta                 72.8795(5)
_cell_angle_gamma                79.9543(5)
_cell_volume                     1540.61
loop_
_atom_site_label
_atom_site_type_symbol
_atom_site_fract_x
_atom_site_fract_y
_atom_site_fract_z
Ag3 Ag 0.0000 0.5000 0.5000
N3 N -0.0204(8) 0.3163(7) 0.5043(7)
C11 C -0.0060(13) 0.2596(8) 0.4213(9)
H9 H -0.0066 0.3055 0.3636
C12 C 0.0100(11) 0.1351(9) 0.4152(7)
H10 H 0.0317 0.1000 0.3534
C13 C -0.0066(9) 0.0656(7) 0.5007(7)
C14 C -0.0325(10) 0.1240(8) 0.5894(8)
H11 H -0.0461 0.0814 0.6499
C15 C -0.0381(11) 0.2499(8) 0.5866(8)
H12 H -0.0552 0.2877 0.6467
Ag3_2 Ag 0.0000 -0.5000 0.5000
N3A N 0.0204(8) -0.3163(7) 0.4957(7)
N3A_2 N 0.0204(8) 0.6837(7) 0.4957(7)
C11A C 0.0060(13) -0.2596(8) 0.5787(9)
H9A H 0.0066 -0.3055 0.6364
C12A C -0.0100(11) -0.1351(9) 0.5848(7)
H10A H -0.0317 -0.1000 0.6466
C13A C 0.0066(9) -0.0656(7) 0.4993(7)
C14A C 0.0325(10) -0.1240(8) 0.4106(8)
H11A H 0.0461 -0.0814 0.3501
C15A C 0.0381(11) -0.2499(8) 0.4134(8)
H12A H 0.0552 -0.2877 0.3533
O23 O 0.1247(7) 0.0825(5) -0.1390(5)
O24 O 0.3556(18) -0.0120(14) 0.083(2)
O25 O 0.2485(12) -0.0382(10) -0.0599(9)
P1 P 0.0000 0.5000 0.0000
Ag1 Ag -0.5000 0.5000 0.0000
Ag2 Ag -0.65353(9) 0.35507(6) 0.43180(6)
W2 W -0.85111(10) 0.71436(8) 0.08374(9)
W3 W -0.32331(7) 0.69343(6) 0.06743(4)
W5 W -0.81226(4) 0.41866(4) 0.17934(3)
W6 W -0.29862(3) 0.39267(3) 0.16430(3)
W7 W -0.02924(4) 0.79852(3) -0.10052(3)
W8 W -0.14308(4) 0.60906(4) 0.24761(3)
O1 O -0.7813(11) 0.8145(9) 0.1228(10)
O2 O -0.4704(10) 0.7826(8) 0.0946(9)
O3 O -0.4321(8) 0.3407(10) 0.2460(6)
O4 O -0.7684(8) 0.5721(8) 0.1389(9)
O5 O -0.1997(11) 0.8029(14) -0.0042(8)
O6 O -0.3820(10) 0.5379(7) 0.1201(8)
O7 O -0.0391(10) 0.9353(7) -0.1567(7)
O8 O -0.2079(10) 0.6509(7) 0.3671(6)
O9 O -0.2898(9) 0.3296(9) 0.0414(7)
O10 O -0.7382(9) 0.3802(9) 0.2700(7)
O11 O -0.2422(12) 0.4812(7) 0.2511(9)
O12 O -0.1532(9) 0.2679(8) 0.1758(6)
O13 O -0.2603(11) 0.7026(7) 0.1827(10)
O14 O -0.8999(11) 0.2807(13) 0.1830(7)
O15 O -0.6790(12) 0.3634(12) 0.0633(9)
O16 O -1.0168(8) 0.7183(9) 0.1926(8)
O17 O -0.9584(8) 0.8135(10) 0.0058(7)
O18 O -0.9879(8) 0.4952(9) 0.2613(8)
O19 O 0.1307(12) 0.4735(12) -0.0849(9)
O20 O -0.0956(12) 0.6055(11) -0.0386(8)
O21 O -0.0783(11) 0.3977(10) 0.0318(9)
O22 O 0.0315(11) 0.5465(10) 0.0875(10)
N1 N -0.6439(9) 0.1634(7) 0.4390(7)
N2 N -0.6411(8) -0.4588(6) 0.4324(7)
C1 C -0.5997(18) 0.1031(10) 0.3561(9)
H1 H -0.5733 0.1460 0.2963
C2 C -0.5898(15) -0.0162(10) 0.3512(9)
H2 H -0.5539 -0.0524 0.2895
C3 C -0.6136(11) -0.2716(8) 0.3461(7)
H3 H -0.5965 -0.2287 0.2857
C4 C -0.6229(10) -0.3923(8) 0.3477(8)
H4 H -0.6163 -0.4280 0.2885
C5 C -0.6498(11) -0.4047(8) 0.5160(8)
H5 H -0.6581 -0.4516 0.5741
C6 C -0.6474(11) -0.2859(8) 0.5227(7)
H6 H -0.6572 -0.2534 0.5838
C7 C -0.6767(9) -0.0226(7) 0.5257(7)
H7 H -0.7035 -0.0628 0.5867
C8 C -0.6807(9) 0.1018(7) 0.5230(7)
H8 H -0.7105 0.1420 0.5829
C9 C -0.6324(9) -0.0862(7) 0.4370(7)
C10 C -0.6300(9) -0.2139(7) 0.4353(7)
Ag2A Ag -0.34647(9) 0.64493(6) -0.43180(6)
Ag2_2 Ag -0.65353(9) -0.64493(6) 0.43180(6)
Ag2_3 Ag -0.65353(9) 1.35507(6) 0.43180(6)
W2A W -0.14889(10) 0.28564(8) -0.08374(9)
W2_2 W 0.14889(10) 0.71436(8) 0.08374(9)
W3A W -0.67669(7) 0.30657(6) -0.06743(4)
W3A_2 W 0.32331(7) 0.30657(6) -0.06743(4)
W5A W -0.18774(4) 0.58134(4) -0.17934(3)
W5_2 W 0.18774(4) 0.41866(4) 0.17934(3)
W6A W -0.70138(3) 0.60733(3) -0.16430(3)
W6A_2 W 0.29862(3) 0.60733(3) -0.16430(3)
W7A W -0.97076(4) 0.20148(3) 0.10052(3)
W7A_2 W 0.02924(4) 0.20148(3) 0.10052(3)
W7_2 W -1.02924(4) 0.79852(3) -0.10052(3)
W8A W -0.85692(4) 0.39094(4) -0.24761(3)
W8_2 W -1.14308(4) 0.60906(4) 0.24761(3)
W8A_2 W 0.14308(4) 0.39094(4) -0.24761(3)
O1A O -0.2187(11) 0.1855(9) -0.1228(10)
O2A O -0.5296(10) 0.2174(8) -0.0946(9)
O3A O -0.5679(8) 0.6593(10) -0.2460(6)
O4A O -0.2316(8) 0.4279(8) -0.1389(9)
O5A O -0.8003(11) 0.1971(14) 0.0042(8)
O6A O -0.6180(10) 0.4621(7) -0.1201(8)
O7A O -0.9609(10) 0.0647(7) 0.1567(7)
O8A O -0.7921(10) 0.3491(7) -0.3671(6)
O9A O -0.7102(9) 0.6704(9) -0.0414(7)
O10A O -0.2618(9) 0.6198(9) -0.2700(7)
O11A O -0.7578(12) 0.5188(7) -0.2511(9)
O12A O -0.8468(9) 0.7321(8) -0.1758(6)
O12A_2 O 0.1532(9) 0.7321(8) -0.1758(6)
O12_2 O -1.1532(9) 0.2679(8) 0.1758(6)
O13A O -0.7397(11) 0.2974(7) -0.1827(10)
O14A O -0.1001(11) 0.7193(13) -0.1830(7)
O15A O -0.3210(12) 0.6366(12) -0.0633(9)
O16_2 O -0.0168(8) 0.7183(9) 0.1926(8)
O16A O 0.0168(8) 0.2817(9) -0.1926(8)
O16A_2 O -0.9832(8) 0.2817(9) -0.1926(8)
O17_2 O 0.0416(8) 0.8135(10) 0.0058(7)
O17A O -0.0416(8) 0.1865(10) -0.0058(7)
O17A_2 O -1.0416(8) 0.1865(10) -0.0058(7)
O18A O -0.0121(8) 0.5048(9) -0.2613(8)
O18_2 O 0.0121(8) 0.4952(9) 0.2613(8)
O18A_2 O -1.0121(8) 0.5048(9) -0.2613(8)
O19A O -0.1307(12) 0.5265(12) 0.0849(9)
O19_2 O -0.8693(12) 0.4735(12) -0.0849(9)
O20A O 0.0956(12) 0.3945(11) 0.0386(8)
O20A_2 O -0.9044(12) 0.3945(11) 0.0386(8)
O21A O 0.0783(11) 0.6023(10) -0.0318(9)
O21A_2 O -0.9217(11) 0.6023(10) -0.0318(9)
O22A O -0.0315(11) 0.4535(10) -0.0875(10)
O22_2 O -0.9685(11) 0.5465(10) 0.0875(10)
O22A_2 O -1.0315(11) 0.4535(10) -0.0875(10)
N1_2 N -0.6439(9) 1.1634(7) 0.4390(7)
N1A N -0.3561(9) 0.8366(7) -0.4390(7)
N2_2 N -0.6411(8) 0.5412(6) 0.4324(7)
N2A N -0.3589(8) 0.4588(6) -0.4324(7)
C1_2 C -0.5997(18) 1.1031(10) 0.3561(9)
H1_2 H -0.5733 1.1460 0.2963
C2_2 C -0.5898(15) 0.9838(10) 0.3512(9)
H2_2 H -0.5539 0.9476 0.2895
C3_2 C -0.6136(11) 0.7284(8) 0.3461(7)
H3_2 H -0.5965 0.7713 0.2857
C4_2 C -0.6229(10) 0.6077(8) 0.3477(8)
H4_2 H -0.6163 0.5720 0.2885
C5_2 C -0.6498(11) 0.5953(8) 0.5160(8)
H5_2 H -0.6581 0.5484 0.5741
C6_2 C -0.6474(11) 0.7141(8) 0.5227(7)
H6_2 H -0.6572 0.7466 0.5838
C7_2 C -0.6767(9) 0.9774(7) 0.5257(7)
H7_2 H -0.7035 0.9372 0.5867
C8_2 C -0.6807(9) 1.1018(7) 0.5230(7)
H8_2 H -0.7105 1.1420 0.5829
C9_2 C -0.6324(9) 0.9138(7) 0.4370(7)
C10_2 C -0.6300(9) 0.7861(7) 0.4353(7)
W1? W -0.1596(3) 0.2728(3) -0.0879(2)
W4? W 0.3938(6) 0.2629(4) -0.0831(4)
O26? O 0.210(3) 0.049(2) -0.206(2)
loop_
_geom_bond_atom_site_label_1
_geom_bond_atom_site_label_2
_geom_bond_site_symmetry_1
_geom_bond_site_symmetry_2
P1 O19 1_555 1_555
Ag1 O6 1_555 1_555
Ag2 O10 1_555 1_555
Ag3 N3 1_555 1_555
W2 O1 1_555 1_555
W3 O2 1_555 1_555
W5 O4 1_555 1_555
W6 O3 1_555 1_555
W7 O5 1_555 1_555
W8 O8 1_555 1_555
O4 W2 1_555 1_555
O5 W3 1_555 1_555
O6 W3 1_555 1_555
O7 W7 1_555 1_555
O9 W6 1_555 1_555
O10 W5 1_555 1_555
O11 W6 1_555 1_555
O12 W6 1_555 1_555
O13 W3 1_555 1_555
O14 W5 1_555 1_555
O15 Ag1 1_555 1_555
O16 W2 1_555 1_555
O17 W2 1_555 1_555
O18 W5 1_555 1_555
O19 W6A_2 1_555 1_555
O20 P1 1_555 1_555
O21 P1 1_555 1_555
O22 P1 1_555 1_555
N1 Ag2 1_555 1_555
N2 C4 1_555 1_555
N3 C11 1_555 1_555
C1 N1 1_555 1_555
H1 C1 1_555 1_555
C2 C1 1_555 1_555
H2 C2 1_555 1_555
C3 H3 1_555 1_555
C4 C3 1_555 1_555
H4 C4 1_555 1_555
C5 N2 1_555 1_555
H5 C5 1_555 1_555
C6 C5 1_555 1_555
H6 C6 1_555 1_555
C7 H7 1_555 1_555
C8 N1 1_555 1_555
H8 C8 1_555 1_555
C9 C2 1_555 1_555
C10 C3 1_555 1_555
C11 H9 1_555 1_555
C12 C11 1_555 1_555
H10 C12 1_555 1_555
C13 C12 1_555 1_555
C14 C13 1_555 1_555
H11 C14 1_555 1_555
C15 N3 1_555 1_555
H12 C15 1_555 1_555
Ag2A O10A 1_555 1_555
Ag2_2 N2 1_555 1_555
Ag2_3 N1_2 1_555 1_555
Ag3_2 N3A 1_555 1_555
W2A O9 1_555 1_555
W2_2 O22 1_555 1_555
W3A O15 1_555 1_555
W3A_2 O20A 1_555 1_555
W5A O20 1_555 1_555
W5_2 O18_2 1_555 1_555
W6A O3A 1_555 1_555
W6A_2 O12A_2 1_555 1_555
W7A O14 1_555 1_555
W7A_2 O12 1_555 1_555
W7_2 O17 1_555 1_555
W8A O8A 1_555 1_555
W8_2 O16 1_555 1_555
W8A_2 O19 1_555 1_555
O1A W2A 1_555 1_555
O2A W3A 1_555 1_555
O4A W2A 1_555 1_555
O5A W3A 1_555 1_555
O6A Ag1 1_555 1_555
O7A W7A 1_555 1_555
O9A W2 1_555 1_555
O10A W5A 1_555 1_555
O11A W6A 1_555 1_555
O12A W6A 1_555 1_555
O12A_2 W7 1_555 1_555
O12_2 W7A 1_555 1_555
O13A W3A 1_555 1_555
O14A W7 1_555 1_555
O15A Ag1 1_555 1_555
O16_2 W8 1_555 1_555
O16A W2A 1_555 1_555
O16A_2 W8A 1_555 1_555
O17_2 W7 1_555 1_555
O17A W2A 1_555 1_555
O17A_2 W7A 1_555 1_555
O18A W5A 1_555 1_555
O18_2 W8 1_555 1_555
O18A_2 W8A 1_555 1_555
O19A P1 1_555 1_555
O19_2 W6A 1_555 1_555
O20A P1 1_555 1_555
O20A_2 W5 1_555 1_555
O21A P1 1_555 1_555
O21A_2 W2 1_555 1_555
O22A P1 1_555 1_555
O22_2 W2 1_555 1_555
O22A_2 W8A 1_555 1_555
N1_2 C1_2 1_555 1_555
N1A Ag2A 1_555 1_555
N2_2 Ag2 1_555 1_555
N2A Ag2A 1_555 1_555
N3A C11A 1_555 1_555
N3A_2 Ag3 1_555 1_555
C1_2 H1_2 1_555 1_555
C2_2 C1_2 1_555 1_555
H2_2 C2_2 1_555 1_555
C3_2 H3_2 1_555 1_555
C4_2 N2_2 1_555 1_555
H4_2 C4_2 1_555 1_555
C5_2 N2_2 1_555 1_555
H5_2 C5_2 1_555 1_555
C6_2 C5_2 1_555 1_555
H6_2 C6_2 1_555 1_555
C7_2 H7_2 1_555 1_555
C8_2 N1_2 1_555 1_555
H8_2 C8_2 1_555 1_555
C9_2 C2_2 1_555 1_555
C10_2 C3_2 1_555 1_555
C11A H9A 1_555 1_555
C12A C11A 1_555 1_555
H10A C12A 1_555 1_555
C13A C13 1_555 1_555
C14A C13A 1_555 1_555
H11A C14A 1_555 1_555
C15A N3A 1_555 1_555
H12A C15A 1_555 1_555
W3 O20 1_555 1_555
W3 O15A 1_555 1_555
W5 O15 1_555 1_555
W6 O6 1_555 1_555
W6 O21 1_555 1_555
W6 O19A 1_555 1_555
W7 O20 1_555 1_555
W8 O11 1_555 1_555
W8 O13 1_555 1_555
W8 O22 1_555 1_555
W8 O19A 1_555 1_555
O18 W8_2 1_555 1_555
O19 O21A 1_555 1_555
O19 O22A 1_555 1_555
O21 W2A 1_555 1_555
O21 O19A 1_555 1_555
O21 O22A 1_555 1_555
O22 O19A 1_555 1_555
O22 O21A 1_555 1_555
C6 C10 1_555 1_555
C7 C8 1_555 1_555
C7 C9 1_555 1_555
C9 C10 1_555 1_555
C14 C15 1_555 1_555
W2A O22A 1_555 1_555
W2_2 O16_2 1_555 1_555
W2_2 O17_2 1_555 1_555
W2_2 O21A 1_555 1_555
W3A O6A 1_555 1_555
W3A O20A_2 1_555 1_555
W5A O4A 1_555 1_555
W5A O14A 1_555 1_555
W5A O15A 1_555 1_555
W5_2 O20A 1_555 1_555
W6A O6A 1_555 1_555
W6A O9A 1_555 1_555
W6A O21A_2 1_555 1_555
W6A_2 O21A 1_555 1_555
W7A O5A 1_555 1_555
W7A O20A_2 1_555 1_555
W7A_2 O17A 1_555 1_555
W7A_2 O20A 1_555 1_555
W7_2 O12A 1_555 1_555
W8A O11A 1_555 1_555
W8A O13A 1_555 1_555
W8A O19_2 1_555 1_555
W8_2 O22_2 1_555 1_555
W8A_2 O16A 1_555 1_555
W8A_2 O18A 1_555 1_555
W8A_2 O22A 1_555 1_555
O19_2 O21A_2 1_555 1_555
O19_2 O22A_2 1_555 1_555
O21A_2 O22_2 1_555 1_555
C3_2 C4_2 1_555 1_555
C6_2 C10_2 1_555 1_555
C7_2 C8_2 1_555 1_555
C7_2 C9_2 1_555 1_555
C9_2 C10_2 1_555 1_555
C12A C13A 1_555 1_555
C14A C15A 1_555 1_555

#END
