
#######################################################################
#
#                 Cambridge Crystallographic Data Centre
#                                CCDC 
#
#######################################################################
#
# If this CIF has been generated from an entry in the Cambridge 
# Structural Database, then it will include bibliographic, chemical, 
# crystal, experimental, refinement or atomic coordinate data resulting 
# from the CCDC's data processing and validation procedures.
#
#######################################################################

data_DEKQIT
_symmetry_cell_setting           monoclinic
_symmetry_space_group_name_H-M   'C 2/c'
_symmetry_Int_Tables_number      15
_space_group_name_Hall           '-C 2yn'
loop_
_symmetry_equiv_pos_site_id
_symmetry_equiv_pos_as_xyz
1 x,y,z
2 1/2+x,1/2+y,z
3 x,-y,1/2+z
4 1/2+x,1/2-y,1/2+z
5 -x,-y,-z
6 1/2-x,1/2-y,-z
7 -x,y,1/2-z
8 1/2-x,1/2+y,1/2-z
_cell_length_a                   20.383(2)
_cell_length_b                   17.247(2)
_cell_length_c                   14.2030(10)
_cell_angle_alpha                90
_cell_angle_beta                 129.85(2)
_cell_angle_gamma                90
_cell_volume                     3833.25
loop_
_atom_site_label
_atom_site_type_symbol
_atom_site_fract_x
_atom_site_fract_y
_atom_site_fract_z
Co1 Co 0.23175(2) 0.52393(2) -0.92433(3)
N1 N 0.65799(14) 0.09561(13) -0.08538(19)
N2 N 0.31249(15) 0.44672(14) -0.7702(2)
C1 C 0.66016(18) 0.17268(16) -0.0766(2)
H1 H 0.6941 0.1944 0.0014
C2 C 0.61542(19) 0.22188(16) -0.1754(3)
H2 H 0.6189 0.2753 -0.1639
C3 C 0.56500(17) 0.19095(17) -0.2926(3)
C4 C 0.56362(19) 0.11063(17) -0.3037(3)
H3 H 0.5315 0.0875 -0.3807
C5 C 0.61052(19) 0.06603(17) -0.1990(3)
H4 H 0.6092 0.0125 -0.2075
C6 C 0.3979(2) 0.4489(2) -0.6980(3)
H5 H 0.5774 0.5126 0.7122
C7 C 0.4514(2) 0.3970(2) -0.6035(3)
H6 H 0.4896 0.5991 0.5560
C8 C 0.41590(19) 0.33884(17) -0.5806(3)
C9 C 0.67156(19) 0.66169(18) 0.6516(3)
H7 H 0.6980 0.6983 0.6377
C10 C 0.71980(19) 0.60756(18) 0.7437(3)
H8 H 0.7788 0.6091 0.7903
C11 C 0.46912(19) 0.28509(18) -0.4820(3)
C12 C 0.51323(19) 0.24109(17) -0.3983(3)
N3 N 0.23272(14) 0.60419(13) -0.80606(19)
C13 C 0.30609(19) 0.63628(18) -0.7090(3)
H9 H 0.3549 0.6290 -0.7005
C14 C 0.3130(2) 0.67923(18) -0.6218(3)
H10 H 0.3652 0.7011 -0.5571
C15 C 0.2420(2) 0.69001(16) -0.6302(3)
C16 C 0.16493(19) 0.65833(17) -0.7314(3)
H11 H 0.1152 0.6651 -0.7421
C17 C 0.16368(19) 0.61682(17) -0.8152(3)
H12 H 0.1118 0.5962 -0.8826
C18 C 0.2476(2) 0.73264(18) -0.5380(3)
N4 N 0.35775(18) 0.53438(17) -0.9308(3)
O1 O 0.15613(13) 0.91709(12) -0.12147(19)
O2 O 0.19762(19) 1.01787(15) -0.0117(3)
O3 O 0.42018(19) 0.53730(19) -0.9229(3)
N5 N 0.09495(16) 0.42776(16) -1.0366(2)
O4 O 0.0366(2) 0.3833(2) -1.0839(3)
O5 O 0.34517(18) 1.08177(16) 0.0398(3)
O6 O 0.39284(18) 1.01791(15) -0.0265(3)
Co1A Co 0.73175(2) 0.02393(2) 0.07567(3)
N1A N 0.15799(14) 0.59561(13) -1.08538(19)
C18E C 0.2524(2) 0.76736(18) -0.4620(3)
C15E C 0.2580(2) 0.80999(16) -0.3698(3)
C14E C 0.1870(2) 0.82077(18) -0.3782(3)
C13E C 0.19391(19) 0.86372(18) -0.2910(3)
N3E N 0.26728(14) 0.89581(13) -0.19394(19)
Co1E Co 0.26825(2) 0.97607(2) -0.07567(3)
N1D N 0.34201(14) 0.90439(13) 0.08538(19)
C1D C 0.33984(18) 0.82732(16) 0.0766(2)
H1D H 0.3059 0.8056 -0.0014
C2D C 0.38458(19) 0.77812(16) 0.1754(3)
H2D H 0.3811 0.7247 0.1639
C3D C 0.43500(17) 0.80905(17) 0.2926(3)
C4D C 0.43638(19) 0.88937(17) 0.3037(3)
H3D H 0.4685 0.9125 0.3807
C5D C 0.38948(19) 0.93397(17) 0.1990(3)
H4D H 0.3908 0.9875 0.2075
C12D C 0.48677(19) 0.75891(17) 0.3983(3)
C11D C 0.53088(19) 0.71491(18) 0.4820(3)
C8D C 0.58410(19) 0.66116(17) 0.5806(3)
C7D C 0.5486(2) 0.6030(2) 0.6035(3)
C6D C 0.6021(2) 0.5511(2) 0.6980(3)
N2D N 0.68751(15) 0.55328(14) 0.7702(2)
Co1D Co 0.76825(2) 0.47607(2) 0.92433(3)
N2E N 0.18751(15) 1.05328(14) -0.2298(2)
C17E C 0.33632(19) 0.88318(17) -0.1848(3)
C16E C 0.33507(19) 0.84167(17) -0.2686(3)
H11E H 0.3848 0.8349 -0.2579
H12E H 0.3882 0.9038 -0.1174
H9E H 0.1451 0.8710 -0.2995
H10E H 0.1348 0.7989 -0.4429
O1E O 0.34387(13) 0.58291(12) -0.87853(19)
O2E O 0.30238(19) 0.48213(15) -0.9883(3)
O5E O 0.15483(18) 0.41823(16) -1.0398(3)
O6E O 0.10716(18) 0.48209(15) -0.9735(3)
C10D C 0.28020(19) 0.39244(18) -0.7437(3)
C9D C 0.32844(19) 0.33831(18) -0.6516(3)
H7D H 0.3020 0.3017 -0.6377
H8D H 0.2212 0.3909 -0.7903
H5D H 0.4226 0.4874 -0.7122
H6D H 0.5104 0.4009 -0.5560
N4E N 0.14225(18) 0.96562(17) -0.0692(3)
N5E N 0.40505(16) 1.07224(16) 0.0366(2)
O3E O 0.07982(19) 0.96270(19) -0.0771(3)
O4E O 0.4634(2) 1.1167(2) 0.0839(3)
loop_
_geom_bond_atom_site_label_1
_geom_bond_atom_site_label_2
_geom_bond_site_symmetry_1
_geom_bond_site_symmetry_2
Co1 N2 1_555 1_555
N1 C1 1_555 1_555
N2 C6 1_555 1_555
C1 H1 1_555 1_555
C2 C1 1_555 1_555
H2 C2 1_555 1_555
C3 C2 1_555 1_555
C4 C3 1_555 1_555
H3 C4 1_555 1_555
C5 N1 1_555 1_555
H4 C5 1_555 1_555
C6 C7 1_555 1_555
H5 C6D 1_555 1_555
C7 C8 1_555 1_555
H6 C7D 1_555 1_555
C8 C11 1_555 1_555
C9 H7 1_555 1_555
C10 C9 1_555 1_555
H8 C10 1_555 1_555
C11 C12 1_555 1_555
C12 C3 1_555 1_555
N3 Co1 1_555 1_555
C13 N3 1_555 1_555
H9 C13 1_555 1_555
C14 C13 1_555 1_555
H10 C14 1_555 1_555
C15 C14 1_555 1_555
C16 C15 1_555 1_555
H11 C16 1_555 1_555
C17 N3 1_555 1_555
H12 C17 1_555 1_555
C18 C15 1_555 1_555
N4 O3 1_555 1_555
O1 Co1E 1_555 1_555
O2 Co1E 1_555 1_555
N5 O4 1_555 1_555
O5 Co1E 1_555 1_555
O6 Co1E 1_555 1_555
Co1A N1 1_555 1_555
N1A Co1 1_555 1_555
C18E C18 1_555 1_555
C15E C18E 1_555 1_555
C14E C15E 1_555 1_555
C13E C14E 1_555 1_555
N3E C13E 1_555 1_555
Co1E N3E 1_555 1_555
N1D Co1E 1_555 1_555
C1D N1D 1_555 1_555
H1D C1D 1_555 1_555
C2D C1D 1_555 1_555
H2D C2D 1_555 1_555
C3D C2D 1_555 1_555
C4D C3D 1_555 1_555
H3D C4D 1_555 1_555
C5D N1D 1_555 1_555
H4D C5D 1_555 1_555
C12D C3D 1_555 1_555
C11D C12D 1_555 1_555
C8D C9 1_555 1_555
C7D C8D 1_555 1_555
C6D C7D 1_555 1_555
N2D C10 1_555 1_555
Co1D N2D 1_555 1_555
N2E Co1E 1_555 1_555
C17E N3E 1_555 1_555
C16E C15E 1_555 1_555
H11E C16E 1_555 1_555
H12E C17E 1_555 1_555
H9E C13E 1_555 1_555
H10E C14E 1_555 1_555
O1E Co1 1_555 1_555
O2E Co1 1_555 1_555
O5E Co1 1_555 1_555
O6E Co1 1_555 1_555
C10D N2 1_555 1_555
C9D C8 1_555 1_555
H7D C9D 1_555 1_555
H8D C10D 1_555 1_555
H5D C6 1_555 1_555
H6D C7 1_555 1_555
N4E O1 1_555 1_555
N5E O5 1_555 1_555
O3E N4E 1_555 1_555
O4E N5E 1_555 1_555
C4 C5 1_555 1_555
C16 C17 1_555 1_555
N4 O1E 1_555 1_555
N4 O2E 1_555 1_555
O2 N4E 1_555 1_555
N5 O5E 1_555 1_555
N5 O6E 1_555 1_555
O6 N5E 1_555 1_555
C4D C5D 1_555 1_555
C11D C8D 1_555 1_555
C6D N2D 1_555 1_555
C17E C16E 1_555 1_555
C10D C9D 1_555 1_555

#END
