
#######################################################################
#
#                 Cambridge Crystallographic Data Centre
#                                CCDC 
#
#######################################################################
#
# If this CIF has been generated from an entry in the Cambridge 
# Structural Database, then it will include bibliographic, chemical, 
# crystal, experimental, refinement or atomic coordinate data resulting 
# from the CCDC's data processing and validation procedures.
#
#######################################################################

data_DEKQEP
_symmetry_cell_setting           monoclinic
_symmetry_space_group_name_H-M   'C 2/c'
_symmetry_Int_Tables_number      15
_space_group_name_Hall           '-C 2yn'
loop_
_symmetry_equiv_pos_site_id
_symmetry_equiv_pos_as_xyz
1 x,y,z
2 1/2+x,1/2+y,z
3 x,-y,1/2+z
4 1/2+x,1/2-y,1/2+z
5 -x,-y,-z
6 1/2-x,1/2-y,-z
7 -x,y,1/2-z
8 1/2-x,1/2+y,1/2-z
_cell_length_a                   20.414(3)
_cell_length_b                   17.153(4)
_cell_length_c                   14.177(2)
_cell_angle_alpha                90
_cell_angle_beta                 129.800(10)
_cell_angle_gamma                90
_cell_volume                     3813.94
loop_
_atom_site_label
_atom_site_type_symbol
_atom_site_fract_x
_atom_site_fract_y
_atom_site_fract_z
Zn1 Zn 0.23236(5) 0.52481(5) -0.92294(7)
N1 N 0.6571(3) 0.0955(3) -0.0856(5)
N2 N 0.3139(4) 0.4459(3) -0.7723(5)
C1 C 0.6591(4) 0.1729(4) -0.0762(6)
H1 H 0.6924 0.1944 0.0021
C2 C 0.6152(4) 0.2231(4) -0.1746(6)
H2 H 0.6187 0.2768 -0.1632
C3 C 0.5654(4) 0.1910(4) -0.2920(6)
C4 C 0.5648(4) 0.1111(4) -0.3028(6)
H3 H 0.5331 0.0879 -0.3798
C5 C 0.6117(4) 0.0660(4) -0.1983(6)
H4 H 0.6118 0.0122 -0.2068
C6 C 0.3986(5) 0.4484(5) -0.7001(7)
H5 H 0.5770 0.5127 0.7144
C7 C 0.4524(5) 0.3968(5) -0.6053(7)
H6 H 0.4888 0.5988 0.5578
C8 C 0.4177(5) 0.3381(4) -0.5819(6)
C9 C 0.6695(5) 0.6625(4) 0.6531(7)
H7 H 0.6958 0.6992 0.6388
C10 C 0.7178(5) 0.6085(5) 0.7456(6)
H8 H 0.7767 0.6104 0.7925
C11 C 0.4710(5) 0.2847(4) -0.4818(7)
C12 C 0.5141(4) 0.2411(4) -0.3985(6)
N3 N 0.2312(4) 0.6028(3) -0.8066(5)
C13 C 0.3038(5) 0.6363(4) -0.7107(7)
H9 H 0.3523 0.6297 -0.7029
C14 C 0.3107(5) 0.6794(4) -0.6241(7)
H10 H 0.3627 0.7023 -0.5607
C15 C 0.2419(5) 0.6894(4) -0.6299(7)
C16 C 0.1653(5) 0.6554(4) -0.7290(7)
H11 H 0.1164 0.6607 -0.7377
C17 C 0.1634(5) 0.6138(4) -0.8144(6)
H12 H 0.1118 0.5922 -0.8810
C18 C 0.2473(5) 0.7319(4) -0.5372(7)
N4 N 0.3592(4) 0.5362(4) -0.9327(6)
O1 O 0.1556(3) 0.9169(3) -0.1195(4)
O2 O 0.1929(4) 1.0162(4) -0.0081(6)
O3 O 0.4225(4) 0.5405(5) -0.9208(7)
N5 N 0.0916(4) 0.4250(4) -1.0402(6)
O4 O 0.0412(6) 0.3751(6) -1.0890(9)
O5 O 0.3445(4) 1.0778(4) 0.0337(6)
O6 O 0.4069(5) 1.0219(4) -0.0148(7)
Zn1A Zn 0.73236(5) 0.02481(5) 0.07706(7)
N1A N 0.1571(3) 0.5955(3) -1.0856(5)
C18E C 0.2527(5) 0.7681(4) -0.4628(7)
C15E C 0.2581(5) 0.8106(4) -0.3701(7)
C14E C 0.1893(5) 0.8206(4) -0.3759(7)
C13E C 0.1962(5) 0.8637(4) -0.2893(7)
N3E N 0.2688(4) 0.8972(3) -0.1934(5)
Zn1E Zn 0.26764(5) 0.97519(5) -0.07706(7)
N1D N 0.3429(3) 0.9045(3) 0.0856(5)
C1D C 0.3409(4) 0.8271(4) 0.0762(6)
H1D H 0.3076 0.8056 -0.0021
C2D C 0.3848(4) 0.7769(4) 0.1746(6)
H2D H 0.3813 0.7232 0.1632
C3D C 0.4346(4) 0.8090(4) 0.2920(6)
C4D C 0.4352(4) 0.8889(4) 0.3028(6)
H3D H 0.4669 0.9121 0.3798
C5D C 0.3883(4) 0.9340(4) 0.1983(6)
H4D H 0.3882 0.9878 0.2068
C12D C 0.4859(4) 0.7589(4) 0.3985(6)
C11D C 0.5290(5) 0.7153(4) 0.4818(7)
C8D C 0.5823(5) 0.6619(4) 0.5819(6)
C7D C 0.5476(5) 0.6032(5) 0.6053(7)
C6D C 0.6014(5) 0.5516(5) 0.7001(7)
N2D N 0.6861(4) 0.5541(3) 0.7723(5)
Zn1D Zn 0.76764(5) 0.47519(5) 0.92294(7)
N2E N 0.1861(4) 1.0541(3) -0.2277(5)
C17E C 0.3366(5) 0.8862(4) -0.1856(6)
C16E C 0.3347(5) 0.8446(4) -0.2710(7)
H11E H 0.3836 0.8393 -0.2623
H12E H 0.3882 0.9078 -0.1190
H9E H 0.1477 0.8703 -0.2971
H10E H 0.1373 0.7977 -0.4393
O1E O 0.3444(3) 0.5831(3) -0.8805(4)
O2E O 0.3071(4) 0.4838(4) -0.9919(6)
O5E O 0.1555(4) 0.4222(4) -1.0337(6)
O6E O 0.0931(5) 0.4781(4) -0.9852(7)
C10D C 0.2822(5) 0.3915(5) -0.7456(6)
C9D C 0.3305(5) 0.3375(4) -0.6531(7)
H7D H 0.3042 0.3008 -0.6388
H8D H 0.2233 0.3896 -0.7925
H5D H 0.4230 0.4873 -0.7144
H6D H 0.5112 0.4012 -0.5578
N4E N 0.1408(4) 0.9638(4) -0.0673(6)
N5E N 0.4084(4) 1.0750(4) 0.0402(6)
O3E O 0.0775(4) 0.9595(5) -0.0792(7)
O4E O 0.4588(6) 1.1249(6) 0.0890(9)
loop_
_geom_bond_atom_site_label_1
_geom_bond_atom_site_label_2
_geom_bond_site_symmetry_1
_geom_bond_site_symmetry_2
Zn1 N2 1_555 1_555
N1 C1 1_555 1_555
N2 C6 1_555 1_555
C1 H1 1_555 1_555
C2 C1 1_555 1_555
H2 C2 1_555 1_555
C3 C2 1_555 1_555
C4 C3 1_555 1_555
H3 C4 1_555 1_555
C5 N1 1_555 1_555
H4 C5 1_555 1_555
C6 C7 1_555 1_555
H5 C6D 1_555 1_555
C7 C8 1_555 1_555
H6 C7D 1_555 1_555
C8 C11 1_555 1_555
C9 H7 1_555 1_555
C10 C9 1_555 1_555
H8 C10 1_555 1_555
C11 C12 1_555 1_555
C12 C3 1_555 1_555
N3 Zn1 1_555 1_555
C13 N3 1_555 1_555
H9 C13 1_555 1_555
C14 C13 1_555 1_555
H10 C14 1_555 1_555
C15 C14 1_555 1_555
C16 C15 1_555 1_555
H11 C16 1_555 1_555
C17 N3 1_555 1_555
H12 C17 1_555 1_555
C18 C15 1_555 1_555
N4 O3 1_555 1_555
O1 Zn1E 1_555 1_555
O2 Zn1E 1_555 1_555
N5 O4 1_555 1_555
O5 Zn1E 1_555 1_555
O6 Zn1E 1_555 1_555
Zn1A N1 1_555 1_555
N1A Zn1 1_555 1_555
C18E C18 1_555 1_555
C15E C18E 1_555 1_555
C14E C15E 1_555 1_555
C13E C14E 1_555 1_555
N3E C13E 1_555 1_555
Zn1E N3E 1_555 1_555
N1D Zn1E 1_555 1_555
C1D N1D 1_555 1_555
H1D C1D 1_555 1_555
C2D C1D 1_555 1_555
H2D C2D 1_555 1_555
C3D C2D 1_555 1_555
C4D C3D 1_555 1_555
H3D C4D 1_555 1_555
C5D N1D 1_555 1_555
H4D C5D 1_555 1_555
C12D C3D 1_555 1_555
C11D C12D 1_555 1_555
C8D C9 1_555 1_555
C7D C8D 1_555 1_555
C6D C7D 1_555 1_555
N2D C10 1_555 1_555
Zn1D N2D 1_555 1_555
N2E Zn1E 1_555 1_555
C17E N3E 1_555 1_555
C16E C15E 1_555 1_555
H11E C16E 1_555 1_555
H12E C17E 1_555 1_555
H9E C13E 1_555 1_555
H10E C14E 1_555 1_555
O1E Zn1 1_555 1_555
O2E Zn1 1_555 1_555
O5E Zn1 1_555 1_555
O6E Zn1 1_555 1_555
C10D N2 1_555 1_555
C9D C8 1_555 1_555
H7D C9D 1_555 1_555
H8D C10D 1_555 1_555
H5D C6 1_555 1_555
H6D C7 1_555 1_555
N4E O1 1_555 1_555
N5E O5 1_555 1_555
O3E N4E 1_555 1_555
O4E N5E 1_555 1_555
C4 C5 1_555 1_555
C16 C17 1_555 1_555
N4 O1E 1_555 1_555
N4 O2E 1_555 1_555
O2 N4E 1_555 1_555
N5 O5E 1_555 1_555
N5 O6E 1_555 1_555
O6 N5E 1_555 1_555
C4D C5D 1_555 1_555
C11D C8D 1_555 1_555
C6D N2D 1_555 1_555
C17E C16E 1_555 1_555
C10D C9D 1_555 1_555

#END
