
#######################################################################
#
#                 Cambridge Crystallographic Data Centre
#                                CCDC 
#
#######################################################################
#
# If this CIF has been generated from an entry in the Cambridge 
# Structural Database, then it will include bibliographic, chemical, 
# crystal, experimental, refinement or atomic coordinate data resulting 
# from the CCDC's data processing and validation procedures.
#
#######################################################################

data_DEKZEA
_symmetry_cell_setting           triclinic
_symmetry_space_group_name_H-M   'P -1'
_symmetry_Int_Tables_number      2
_space_group_name_Hall           '-P 1'
loop_
_symmetry_equiv_pos_site_id
_symmetry_equiv_pos_as_xyz
1 x,y,z
2 -x,-y,-z
_cell_length_a                   4.5948(4)
_cell_length_b                   9.9469(3)
_cell_length_c                   4.4595(3)
_cell_angle_alpha                99.486(6)
_cell_angle_beta                 97.037(9)
_cell_angle_gamma                96.840(5)
_cell_volume                     197.486
loop_
_atom_site_label
_atom_site_type_symbol
_atom_site_fract_x
_atom_site_fract_y
_atom_site_fract_z
Ba1 Ba 0.50000 1.00000 0.50000
O1 O 0.314(3) 0.8371(9) -0.038(4)
C1 C 0.070(3) 0.7942(6) -0.210(3)
O2 O -0.025(4) 0.8636(10) -0.402(3)
C2 C -0.1127(17) 0.6544(10) -0.184(4)
C3 C 0.0904(7) 0.5690(4) -0.0129(15)
H1 H -0.273730 0.67224 -0.072000
H2 H -0.189760 0.603740 -0.386120
H3 H 0.251260 0.551100 -0.124930
H4 H 0.167530 0.619710 0.189230
Ba1_2 Ba 0.50000 1.00000 -0.50000
Ba1_3 Ba -0.50000 1.00000 -0.50000
Ba1_4 Ba -0.50000 0.00000 -0.50000
Ba1_5 Ba -0.50000 0.00000 0.50000
Ba1_6 Ba 0.50000 0.00000 0.50000
O1A O -0.314(3) 0.1629(9) 0.038(4)
O1_2 O 0.314(3) 0.8371(9) 0.962(4)
O1A_2 O 0.686(3) 1.1629(9) 0.038(4)
O1A_3 O 0.686(3) 1.1629(9) 1.038(4)
C1A C -0.070(3) 0.2058(6) 0.210(3)
O2A O 0.025(4) 0.1364(10) 0.402(3)
O2_2 O -0.025(4) 0.8636(10) 0.598(3)
O2_3 O 0.975(4) 0.8636(10) 0.598(3)
O2A_2 O 0.025(4) 1.1364(10) 0.402(3)
O2A_3 O 1.025(4) 1.1364(10) 0.402(3)
C2A C 0.1127(17) 0.3456(10) 0.184(4)
C3A C -0.0904(7) 0.4310(4) 0.0129(15)
H1A H 0.273730 0.32776 0.072000
H2A H 0.189760 0.396260 0.386120
H3A H -0.251260 0.448900 0.124930
H4A H -0.167530 0.380290 -0.189230
loop_
_geom_bond_atom_site_label_1
_geom_bond_atom_site_label_2
_geom_bond_site_symmetry_1
_geom_bond_site_symmetry_2
Ba1 O1 1_555 1_555
O1 C1 1_555 1_555
C1 O2 1_555 1_555
O2 Ba1_2 1_555 1_555
C2 C1 1_555 1_555
C3 C2 1_555 1_555
H1 C2 1_555 1_555
H2 C2 1_555 1_555
H3 C3 1_555 1_555
H4 C3 1_555 1_555
Ba1_2 O1 1_555 1_555
Ba1_3 O2 1_555 1_555
Ba1_4 O1A 1_555 1_555
Ba1_5 O1A 1_555 1_555
Ba1_6 O2A 1_555 1_555
O1A C1A 1_555 1_555
O1_2 Ba1 1_555 1_555
O1A_2 Ba1 1_555 1_555
O1A_3 Ba1 1_555 1_555
C1A O2A 1_555 1_555
O2A Ba1_5 1_555 1_555
O2_2 Ba1 1_555 1_555
O2_3 Ba1 1_555 1_555
O2A_2 Ba1 1_555 1_555
O2A_3 Ba1 1_555 1_555
C2A C1A 1_555 1_555
C3A C3 1_555 1_555
H1A C2A 1_555 1_555
H2A C2A 1_555 1_555
H3A C3A 1_555 1_555
H4A C3A 1_555 1_555
Ba1_2 O1A_2 1_555 1_555
C2A C3A 1_555 1_555

#END
