
#######################################################################
#
#                 Cambridge Crystallographic Data Centre
#                                CCDC 
#
#######################################################################
#
# If this CIF has been generated from an entry in the Cambridge 
# Structural Database, then it will include bibliographic, chemical, 
# crystal, experimental, refinement or atomic coordinate data resulting 
# from the CCDC's data processing and validation procedures.
#
#######################################################################

data_DELBED
_symmetry_cell_setting           tetragonal
_symmetry_space_group_name_H-M   'P -4 b 2'
_symmetry_Int_Tables_number      117
_space_group_name_Hall           'P -4 -2ab'
loop_
_symmetry_equiv_pos_site_id
_symmetry_equiv_pos_as_xyz
1 x,y,z
2 -x,-y,z
3 y,-x,-z
4 -y,x,-z
5 1/2+x,1/2-y,z
6 1/2-x,1/2+y,z
7 1/2+y,1/2+x,-z
8 1/2-y,1/2-x,-z
_cell_length_a                   8.6094(9)
_cell_length_b                   8.6094(9)
_cell_length_c                   18.175(4)
_cell_angle_alpha                90
_cell_angle_beta                 90
_cell_angle_gamma                90
_cell_volume                     1347.16
loop_
_atom_site_label
_atom_site_type_symbol
_atom_site_fract_x
_atom_site_fract_y
_atom_site_fract_z
Ba1 Ba 0.00000 0.00000 1.00000
O1 O 0.072(6) 0.228(6) 0.8821(10)
C1 C 0.1740(8) 0.3312(9) 0.8835(9)
O2 O 0.227(6) 0.378(6) 0.9438(10)
C2 C 0.23452(15) 0.40089(16) 0.81150(4)
C3 C 0.15410(14) 0.31984(15) 0.74518(3)
C4 C 0.21601(13) 0.39099(14) 0.67205(3)
C5 C 0.13577(12) 0.31045(12) 0.60581(3)
C6 C 0.19791(14) 0.38153(16) 0.532760(19)
H1 H 0.344791 0.385698 0.808383
H2 H 0.212038 0.510084 0.810391
H3 H 0.043855 0.335241 0.748238
H4 H 0.176663 0.210662 0.746268
H5 H 0.193665 0.500208 0.671017
H6 H 0.326252 0.375548 0.668987
H7 H 0.025547 0.326056 0.608826
H8 H 0.158064 0.20122 0.606863
H9 H 0.175759 0.490795 0.531743
H10 H 0.308122 0.365845 0.529726
Ba1D Ba 0.50000 0.50000 0.00000
Ba1_2 Ba 0.00000 0.00000 0.00000
Ba1D_2 Ba 0.50000 -0.50000 1.00000
Ba1D_3 Ba 0.50000 -0.50000 2.00000
Ba1_3 Ba 0.00000 0.00000 2.00000
Ba1D_4 Ba 0.50000 0.50000 1.00000
O1G O 0.272(6) 0.428(6) 0.1179(10)
O1A O -0.072(6) -0.228(6) 0.8821(10)
O1B O 0.228(6) -0.072(6) 1.1179(10)
O1E O 0.428(6) -0.272(6) 1.8821(10)
O1C O -0.228(6) 0.072(6) 1.1179(10)
C1G C 0.1688(9) 0.3260(8) 0.1165(9)
C1B C 0.3312(9) -0.1740(8) 1.1165(9)
C1E C 0.3260(8) -0.1688(9) 1.8835(9)
O2G O 0.122(6) 0.273(6) 0.0562(10)
O2D O -0.273(6) 0.122(6) 0.9438(10)
O2E O 0.273(6) -0.122(6) 0.9438(10)
O2B O 0.378(6) -0.227(6) 1.0562(10)
O2E_2 O 0.273(6) -0.122(6) 1.9438(10)
O2F O -0.122(6) -0.273(6) 1.0562(10)
O2G_2 O 0.122(6) 0.273(6) 1.0562(10)
C2G C 0.09911(16) 0.26548(15) 0.18850(4)
C2B C 0.40089(16) -0.23452(15) 1.18850(4)
C2E C 0.26548(15) -0.09911(16) 1.81150(4)
C3G C 0.18016(15) 0.34590(14) 0.25482(3)
C3B C 0.31984(15) -0.15410(14) 1.25482(3)
C3E C 0.34590(14) -0.18016(15) 1.74518(3)
C4G C 0.10901(14) 0.28399(13) 0.32795(3)
C4B C 0.39099(14) -0.21601(13) 1.32795(3)
C4E C 0.28399(13) -0.10901(14) 1.67205(3)
C5G C 0.18955(12) 0.36423(12) 0.39419(3)
C5B C 0.31045(12) -0.13577(12) 1.39419(3)
C5E C 0.36423(12) -0.18955(12) 1.60581(3)
C6G C 0.11847(16) 0.30209(14) 0.467240(19)
C6B C 0.38153(16) -0.19791(14) 1.467240(19)
C6E C 0.30209(14) -0.11847(16) 1.532760(19)
H1G H 0.114302 0.155209 0.191617
H1B H 0.385698 -0.344791 1.191617
H1E H 0.155209 -0.114302 1.808383
H2G H -0.010084 0.287962 0.189609
H2B H 0.510084 -0.212038 1.189609
H2E H 0.287962 0.010084 1.810391
H3G H 0.164759 0.456145 0.251762
H3B H 0.335241 -0.043855 1.251762
H3E H 0.456145 -0.164759 1.748238
H4G H 0.289338 0.323337 0.253732
H4B H 0.210662 -0.176663 1.253732
H4E H 0.323337 -0.289338 1.746268
H5G H -0.000208 0.306335 0.328983
H5B H 0.500208 -0.193665 1.328983
H5E H 0.306335 0.000208 1.671017
H6G H 0.124452 0.173748 0.331013
H6B H 0.375548 -0.326252 1.331013
H6E H 0.173748 -0.124452 1.668987
H7G H 0.173944 0.474453 0.391174
H7B H 0.326056 -0.025547 1.391174
H7E H 0.474453 -0.173944 1.608826
H8G H 0.29878 0.341936 0.393137
H8B H 0.20122 -0.158064 1.393137
H8E H 0.341936 -0.29878 1.606863
H9G H 0.009205 0.324241 0.468257
H9B H 0.490795 -0.175759 1.468257
H9E H 0.324241 -0.009205 1.531743
H10G H 0.134155 0.191878 0.470274
H10B H 0.365845 -0.308122 1.470274
H10E H 0.191878 -0.134155 1.529726
loop_
_geom_bond_atom_site_label_1
_geom_bond_atom_site_label_2
_geom_bond_site_symmetry_1
_geom_bond_site_symmetry_2
Ba1 O1 1_555 1_555
O1 C1 1_555 1_555
C1 O2 1_555 1_555
O2 Ba1D_4 1_555 1_555
C2 C1 1_555 1_555
C3 C2 1_555 1_555
C4 C3 1_555 1_555
C5 C4 1_555 1_555
C6 C5 1_555 1_555
H1 C2 1_555 1_555
H2 C2 1_555 1_555
H3 C3 1_555 1_555
H4 C3 1_555 1_555
H5 C4 1_555 1_555
H6 C4 1_555 1_555
H7 C5 1_555 1_555
H8 C5 1_555 1_555
H9 C6 1_555 1_555
H10 C6 1_555 1_555
Ba1D O1G 1_555 1_555
Ba1_2 O2G 1_555 1_555
Ba1D_2 O2B 1_555 1_555
Ba1D_3 O1E 1_555 1_555
Ba1_3 O2E_2 1_555 1_555
O1G C1G 1_555 1_555
O1A Ba1 1_555 1_555
O1B Ba1 1_555 1_555
O1E C1E 1_555 1_555
O1C Ba1 1_555 1_555
C1G O2G 1_555 1_555
C1B O1B 1_555 1_555
C1E O2E_2 1_555 1_555
O2D Ba1 1_555 1_555
O2E Ba1 1_555 1_555
O2B C1B 1_555 1_555
O2F Ba1 1_555 1_555
O2G_2 Ba1 1_555 1_555
C2G C1G 1_555 1_555
C2B C1B 1_555 1_555
C2E C1E 1_555 1_555
C3G C2G 1_555 1_555
C3B C2B 1_555 1_555
C3E C2E 1_555 1_555
C4G C3G 1_555 1_555
C4B C3B 1_555 1_555
C4E C3E 1_555 1_555
C5G C4G 1_555 1_555
C5B C4B 1_555 1_555
C5E C4E 1_555 1_555
C6G C6 1_555 1_555
C6B C5B 1_555 1_555
C6E C5E 1_555 1_555
H1G C2G 1_555 1_555
H1B C2B 1_555 1_555
H1E C2E 1_555 1_555
H2G C2G 1_555 1_555
H2B C2B 1_555 1_555
H2E C2E 1_555 1_555
H3G C3G 1_555 1_555
H3B C3B 1_555 1_555
H3E C3E 1_555 1_555
H4G C3G 1_555 1_555
H4B C3B 1_555 1_555
H4E C3E 1_555 1_555
H5G C4G 1_555 1_555
H5B C4B 1_555 1_555
H5E C4E 1_555 1_555
H6G C4G 1_555 1_555
H6B C4B 1_555 1_555
H6E C4E 1_555 1_555
H7G C5G 1_555 1_555
H7B C5B 1_555 1_555
H7E C5E 1_555 1_555
H8G C5G 1_555 1_555
H8B C5B 1_555 1_555
H8E C5E 1_555 1_555
H9G C6G 1_555 1_555
H9B C6B 1_555 1_555
H9E C6E 1_555 1_555
H10G C6G 1_555 1_555
H10B C6B 1_555 1_555
H10E C6E 1_555 1_555
C5G C6G 1_555 1_555
C6B C6E 1_555 1_555

#END
