
#######################################################################
#
#                 Cambridge Crystallographic Data Centre
#                                CCDC 
#
#######################################################################
#
# If this CIF has been generated from an entry in the Cambridge 
# Structural Database, then it will include bibliographic, chemical, 
# crystal, experimental, refinement or atomic coordinate data resulting 
# from the CCDC's data processing and validation procedures.
#
#######################################################################

data_DELJAG
_symmetry_cell_setting           monoclinic
_symmetry_space_group_name_H-M   'C c'
_symmetry_Int_Tables_number      9
_space_group_name_Hall           'C -2yc'
loop_
_symmetry_equiv_pos_site_id
_symmetry_equiv_pos_as_xyz
1 x,y,z
2 x,-y,1/2+z
3 1/2+x,1/2+y,z
4 1/2+x,1/2-y,1/2+z
_cell_length_a                   19.8440(8)
_cell_length_b                   10.0760(3)
_cell_length_c                   15.3390(8)
_cell_angle_alpha                90
_cell_angle_beta                 112.783(2)
_cell_angle_gamma                90
_cell_volume                     2827.71
loop_
_atom_site_label
_atom_site_type_symbol
_atom_site_fract_x
_atom_site_fract_y
_atom_site_fract_z
Se1 Se 0.6403(2) 0.5873(2) 0.5161(3)
Se2 Se 0.2059(2) 0.5911(2) 0.6655(3)
Fe1 Fe 0.4229(3) 0.48698(7) 0.5919(3)
N1 N 0.5060(9) 0.496(1) 0.5356(12)
N2 N 0.3403(9) 0.4941(12) 0.6508(11)
N3 N 0.4797(9) 0.3243(12) 0.6970(10)
N4 N 0.4888(9) -0.356(2) 0.6965(11)
N5 N 0.3673(6) 0.3287(11) 0.4908(10)
N6 N 0.3577(9) -0.356(1) 0.4951(11)
C1 C 0.5558(10) 0.531(2) 0.5275(13)
C2 C 0.2846(10) 0.532(2) 0.6573(12)
C3 C 0.5470(9) 0.288(2) 0.7152(13)
C4 C 0.5844(11) 0.192(2) 0.7791(13)
C5 C 0.5532(11) 0.133(2) 0.835(1)
C6 C 0.4792(12) 0.175(2) 0.819(2)
C7 C 0.4488(10) 0.271(2) 0.754(2)
C8 C 0.5916(11) 0.032(2) 0.9155(12)
C9 C 0.6326(8) -0.073(1) 0.889(1)
C10 C 0.5809(9) -0.176(1) 0.8210(11)
C11 C 0.5589(10) -0.276(2) 0.8572(13)
C12 C 0.5068(8) -0.3654(13) 0.7856(10)
C13 C 0.5143(10) -0.255(2) 0.6634(11)
C14 C 0.5628(10) -0.1624(13) 0.7196(10)
C15 C 0.4021(11) 0.263(2) 0.444(2)
C16 C 0.3650(11) 0.171(2) 0.370(2)
C17 C 0.2984(10) 0.135(2) 0.3520(13)
C18 C 0.2646(9) 0.191(2) 0.4078(13)
C19 C 0.2985(9) 0.286(2) 0.4757(13)
C20 C 0.2557(10) 0.045(2) 0.2742(12)
C21 C 0.2115(10) -0.071(1) 0.3007(13)
C22 C 0.2597(10) -0.1661(12) 0.3686(13)
C23 C 0.2825(8) -0.1606(13) 0.4623(11)
C24 C 0.3273(10) -0.2529(13) 0.5245(12)
C25 C 0.3362(11) -0.366(2) 0.3966(11)
C26 C 0.2958(11) -0.279(2) 0.3403(12)
H1 H 0.4020 0.3060 0.7450
H2 H 0.4529 0.1361 0.8523
H3 H 0.6325 0.1692 0.7851
H4 H 0.5691 0.3311 0.6779
H5 H 0.5524 -0.0131 0.9241
H6 H 0.6202 0.0769 0.9722
H7 H 0.6621 -0.0306 0.8606
H8 H 0.6631 -0.1166 0.9450
H9 H 0.5727 -0.2862 0.9234
H10 H 0.4885 -0.4386 0.8088
H11 H 0.4997 -0.2467 0.5969
H12 H 0.5827 -0.0929 0.6952
H13 H 0.2727 0.3234 0.5107
H14 H 0.2171 0.1593 0.3979
H15 H 0.3882 0.1355 0.3318
H16 H 0.4519 0.2819 0.4572
H17 H 0.2866 0.0021 0.2487
H18 H 0.2210 0.0982 0.2269
H19 H 0.1777 -0.1157 0.2468
H20 H 0.1859 -0.0289 0.3339
H21 H 0.2843 -0.2881 0.2744
H22 H 0.3570 -0.4359 0.3734
H23 H 0.3384 -0.2458 0.5904
H24 H 0.2664 -0.0874 0.4883
Fe1_2 Fe 0.4229(3) -0.51302(7) 0.5919(3)
N4_2 N 0.4888(9) 0.644(2) 0.6965(11)
N6_2 N 0.3577(9) 0.644(1) 0.4951(11)
loop_
_geom_bond_atom_site_label_1
_geom_bond_atom_site_label_2
_geom_bond_site_symmetry_1
_geom_bond_site_symmetry_2
Se1 C1 1_555 1_555
Se2 C2 1_555 1_555
Fe1 N1 1_555 1_555
N1 C1 1_555 1_555
N2 Fe1 1_555 1_555
N3 Fe1 1_555 1_555
N4 C12 1_555 1_555
N5 Fe1 1_555 1_555
N6 C24 1_555 1_555
C2 N2 1_555 1_555
C3 N3 1_555 1_555
C4 C3 1_555 1_555
C5 C4 1_555 1_555
C6 C5 1_555 1_555
C7 N3 1_555 1_555
C8 C5 1_555 1_555
C9 C8 1_555 1_555
C10 C9 1_555 1_555
C11 C10 1_555 1_555
C12 C11 1_555 1_555
C13 N4 1_555 1_555
C14 C10 1_555 1_555
C15 N5 1_555 1_555
C16 C15 1_555 1_555
C17 C16 1_555 1_555
C18 C17 1_555 1_555
C19 N5 1_555 1_555
C20 C17 1_555 1_555
C21 C20 1_555 1_555
C22 C21 1_555 1_555
C23 C22 1_555 1_555
C24 C23 1_555 1_555
C25 N6 1_555 1_555
C26 C22 1_555 1_555
H1 C7 1_555 1_555
H2 C6 1_555 1_555
H3 C4 1_555 1_555
H4 C3 1_555 1_555
H5 C8 1_555 1_555
H6 C8 1_555 1_555
H7 C9 1_555 1_555
H8 C9 1_555 1_555
H9 C11 1_555 1_555
H10 C12 1_555 1_555
H11 C13 1_555 1_555
H12 C14 1_555 1_555
H13 C19 1_555 1_555
H14 C18 1_555 1_555
H15 C16 1_555 1_555
H16 C15 1_555 1_555
H17 C20 1_555 1_555
H18 C20 1_555 1_555
H19 C21 1_555 1_555
H20 C21 1_555 1_555
H21 C26 1_555 1_555
H22 C25 1_555 1_555
H23 C24 1_555 1_555
H24 C23 1_555 1_555
Fe1_2 N4 1_555 1_555
N4_2 Fe1 1_555 1_555
N6_2 Fe1 1_555 1_555
N6 Fe1_2 1_555 1_555
C6 C7 1_555 1_555
C13 C14 1_555 1_555
C18 C19 1_555 1_555
C25 C26 1_555 1_555

#END
