
#######################################################################
#
#                 Cambridge Crystallographic Data Centre
#                                CCDC 
#
#######################################################################
#
# If this CIF has been generated from an entry in the Cambridge 
# Structural Database, then it will include bibliographic, chemical, 
# crystal, experimental, refinement or atomic coordinate data resulting 
# from the CCDC's data processing and validation procedures.
#
#######################################################################

data_DELTAQ01
_symmetry_cell_setting           tetragonal
_symmetry_space_group_name_H-M   'P 43 21 2'
_symmetry_Int_Tables_number      96
_space_group_name_Hall           'P 4nw 2abw'
loop_
_symmetry_equiv_pos_site_id
_symmetry_equiv_pos_as_xyz
1 x,y,z
2 -x,-y,1/2+z
3 1/2-y,1/2+x,3/4+z
4 1/2+y,1/2-x,1/4+z
5 1/2-x,1/2+y,3/4-z
6 1/2+x,1/2-y,1/4-z
7 y,x,-z
8 -y,-x,1/2-z
_cell_length_a                   7.9675(11)
_cell_length_b                   7.9675(11)
_cell_length_c                   17.627(4)
_cell_angle_alpha                90
_cell_angle_beta                 90
_cell_angle_gamma                90
_cell_volume                     1118.98
loop_
_atom_site_label
_atom_site_type_symbol
_atom_site_fract_x
_atom_site_fract_y
_atom_site_fract_z
Zn1 Zn 0.73565(2) 0.73565(2) 0.0000
N1 N 0.54896(15) 0.54896(15) 0.0000
N2 N -0.07629(15) -0.07629(15) 0.0000
C1 C 0.5678(2) 0.4072(2) 0.04054(9)
H1 H 0.6664 0.3939 0.0703
C2 C 0.4494(2) 0.2798(2) 0.04075(10)
H2 H 0.4688 0.1792 0.0683
C3 C 0.30185(18) 0.30185(18) 0.0000
C4 C 0.17050(19) 0.17050(19) 0.0000
C5 C 0.0024(2) 0.2130(2) 0.01119(10)
H3 H -0.0302 0.3265 0.0187
C6 C -0.1158(2) 0.0853(2) 0.01112(10)
H4 H 0.1137 -0.2302 -0.0194
O1 O 0.87279(16) 0.59995(17) -0.08741(7)
O2 O 0.59705(16) 0.89164(16) -0.07858(7)
C7 C 0.8253(2) 0.4706(2) -0.12079(9)
H5 H 0.7190 0.4270 -0.1064
Zn1_2 Zn -0.26435(2) -0.26435(2) 0.0000
Zn1B Zn 0.76435(2) 1.23565(2) -0.2500
Zn1B_2 Zn 0.76435(2) 0.23565(2) -0.2500
N2_2 N 0.92371(15) 0.92371(15) 0.0000
C1F C 0.4072(2) 0.5678(2) -0.04054(9)
H1F H 0.3939 0.6664 -0.0703
C2F C 0.2798(2) 0.4494(2) -0.04075(10)
H2F H 0.1792 0.4688 -0.0683
C5F C 0.2130(2) 0.0024(2) -0.01119(10)
H3F H 0.3265 -0.0302 -0.0187
C6F C 0.0853(2) -0.1158(2) -0.01112(10)
H4F H -0.2302 0.1137 0.0194
O1D O 0.62721(16) 1.09995(17) -0.16259(7)
O1F O 0.59995(17) 0.87279(16) 0.08741(7)
O2F O 0.89164(16) 0.59705(16) 0.07858(7)
O2D O 0.90295(16) 0.39164(16) -0.17142(7)
C7D C 0.6747(2) 0.9706(2) -0.12921(9)
H5D H 0.7810 0.9270 -0.1436
loop_
_geom_bond_atom_site_label_1
_geom_bond_atom_site_label_2
_geom_bond_site_symmetry_1
_geom_bond_site_symmetry_2
Zn1 N1 1_555 1_555
N1 C1 1_555 1_555
N2 C6 1_555 1_555
C1 H1 1_555 1_555
C2 C1 1_555 1_555
H2 C2 1_555 1_555
C3 C2 1_555 1_555
C4 C3 1_555 1_555
C5 C4 1_555 1_555
H3 C5 1_555 1_555
C6 C5 1_555 1_555
H4 C6F 1_555 1_555
O1 Zn1 1_555 1_555
O2 Zn1 1_555 1_555
C7 O1 1_555 1_555
H5 C7 1_555 1_555
Zn1_2 N2 1_555 1_555
Zn1B O1D 1_555 1_555
Zn1B_2 O2D 1_555 1_555
N2_2 Zn1 1_555 1_555
C1F N1 1_555 1_555
H1F C1F 1_555 1_555
C2F C3 1_555 1_555
H2F C2F 1_555 1_555
C5F C4 1_555 1_555
H3F C5F 1_555 1_555
C6F N2 1_555 1_555
H4F C6 1_555 1_555
O1D C7D 1_555 1_555
O1F Zn1 1_555 1_555
O2F Zn1 1_555 1_555
O2D C7 1_555 1_555
C7D O2 1_555 1_555
H5D C7D 1_555 1_555
C1F C2F 1_555 1_555
C5F C6F 1_555 1_555

#END
