
#######################################################################
#
#                 Cambridge Crystallographic Data Centre
#                                CCDC 
#
#######################################################################
#
# If this CIF has been generated from an entry in the Cambridge 
# Structural Database, then it will include bibliographic, chemical, 
# crystal, experimental, refinement or atomic coordinate data resulting 
# from the CCDC's data processing and validation procedures.
#
#######################################################################

data_DELTUJ
_symmetry_cell_setting           orthorhombic
_symmetry_space_group_name_H-M   'F 2 2 2'
_symmetry_Int_Tables_number      22
_space_group_name_Hall           'F 2 2'
loop_
_symmetry_equiv_pos_site_id
_symmetry_equiv_pos_as_xyz
1 x,y,z
2 x,1/2+y,1/2+z
3 1/2+x,y,1/2+z
4 1/2+x,1/2+y,z
5 x,-y,-z
6 x,1/2-y,1/2-z
7 1/2+x,-y,1/2-z
8 1/2+x,1/2-y,-z
9 -x,y,-z
10 -x,1/2+y,1/2-z
11 1/2-x,y,1/2-z
12 1/2-x,1/2+y,-z
13 -x,-y,z
14 -x,1/2-y,1/2+z
15 1/2-x,-y,1/2+z
16 1/2-x,1/2-y,z
_cell_length_a                   11.582(2)
_cell_length_b                   19.306(2)
_cell_length_c                   8.142(1)
_cell_angle_alpha                90
_cell_angle_beta                 90
_cell_angle_gamma                90
_cell_volume                     1820.57
loop_
_atom_site_label
_atom_site_type_symbol
_atom_site_fract_x
_atom_site_fract_y
_atom_site_fract_z
Mn1 Mn 0.0000 0.0000 0.0000
O1 O 0.1649(2) 0.0584(1) 0.1014(3)
N1 N 0.0483(2) 0.1222(1) 0.2595(4)
N2 N -0.0467(2) 0.0803(1) 0.2112(3)
C1 C 0.1498(2) 0.1075(1) 0.1978(4)
C2 C 0.2500 0.1528(2) 0.2500
H2 H -0.067(7) 0.062(4) 0.297(8)
H3 H 0.273(6) 0.183(3) 0.153(8)
H4 H 0.033(7) 0.158(3) 0.325(9)
H6 H -0.092(8) 0.103(4) 0.187(9)
O1D O 0.1649(2) -0.0584(1) -0.1014(3)
O1H O -0.1649(2) 0.0584(1) -0.1014(3)
O1L O -0.1649(2) -0.0584(1) 0.1014(3)
N2D N -0.0467(2) -0.0803(1) -0.2112(3)
N2H N 0.0467(2) 0.0803(1) -0.2112(3)
N2L N 0.0467(2) -0.0803(1) 0.2112(3)
C1J C 0.3502(2) 0.1075(1) 0.3022(4)
H3J H 0.227(6) 0.183(3) 0.347(8)
C1D C 0.1498(2) -0.1075(1) -0.1978(4)
N1D N 0.0483(2) -0.1222(1) -0.2595(4)
H2D H -0.067(7) -0.062(4) -0.297(8)
H6D H -0.092(8) -0.103(4) -0.187(9)
H2H H 0.067(7) 0.062(4) -0.297(8)
H6H H 0.092(8) 0.103(4) -0.187(9)
H2L H 0.067(7) -0.062(4) 0.297(8)
H6L H 0.092(8) -0.103(4) 0.187(9)
O1J O 0.3351(2) 0.0584(1) 0.3986(3)
N1J N 0.4517(2) 0.1222(1) 0.2405(4)
C2D C 0.2500 -0.1528(2) -0.2500
H4D H 0.033(7) -0.158(3) -0.325(9)
Mn1B Mn 0.5000 0.0000 0.5000
N2J N 0.5467(2) 0.0803(1) 0.2888(3)
H4J H 0.467(7) 0.158(3) 0.175(9)
C1N C 0.3502(2) -0.1075(1) -0.3022(4)
H3D H 0.273(6) -0.183(3) -0.153(8)
H3N H 0.227(6) -0.183(3) -0.347(8)
H2J H 0.567(7) 0.062(4) 0.203(8)
H6J H 0.592(8) 0.103(4) 0.313(9)
O1N O 0.3351(2) -0.0584(1) -0.3986(3)
N1N N 0.4517(2) -0.1222(1) -0.2405(4)
N2N N 0.5467(2) -0.0803(1) -0.2888(3)
H4N H 0.467(7) -0.158(3) -0.175(9)
Mn1B_2 Mn 0.5000 0.0000 -0.5000
H2N H 0.567(7) -0.062(4) -0.203(8)
H6N H 0.592(8) -0.103(4) -0.313(9)
S1 S 0.2500 0.2500 0.7500
O2 O 0.1775(2) 0.2057(1) 0.8544(3)
O2E O 0.1775(2) 0.2943(1) 0.6456(3)
O2J O 0.3225(2) 0.2057(1) 0.6456(3)
O2O O 0.3225(2) 0.2943(1) 0.8544(3)
O3 O 0.5000 0.2241(1) 0.0000
H1 H 0.452(4) 0.242(5) -0.038(9)
H1H H 0.548(4) 0.242(5) 0.038(9)
O4 O 0.3683(3) 0.0000 0.0000
H5 H 0.306(7) 0.036(3) 0.073(8)
H5D H 0.306(7) -0.036(3) -0.073(8)
loop_
_geom_bond_atom_site_label_1
_geom_bond_atom_site_label_2
_geom_bond_site_symmetry_1
_geom_bond_site_symmetry_2
Mn1 O1 1_555 1_555
S1 O2 1_555 1_555
O1 C1 1_555 1_555
O3 H1 1_555 1_555
N1 N2 1_555 1_555
N2 Mn1 1_555 1_555
C1 N1 1_555 1_555
C2 C1 1_555 1_555
O4 H5 1_555 1_555
H2 N2 1_555 1_555
H3 C2 1_555 1_555
H4 N1 1_555 1_555
H6 N2 1_555 1_555
O1D Mn1 1_555 1_555
O1H Mn1 1_555 1_555
O1L Mn1 1_555 1_555
N2D Mn1 1_555 1_555
N2H Mn1 1_555 1_555
N2L Mn1 1_555 1_555
C1J C2 1_555 1_555
H3J C2 1_555 1_555
C1D O1D 1_555 1_555
N1D N2D 1_555 1_555
H2D N2D 1_555 1_555
H6D N2D 1_555 1_555
H2H N2H 1_555 1_555
H6H N2H 1_555 1_555
H2L N2L 1_555 1_555
H6L N2L 1_555 1_555
O1J C1J 1_555 1_555
N1J C1J 1_555 1_555
C2D C1D 1_555 1_555
H4D N1D 1_555 1_555
Mn1B O1J 1_555 1_555
N2J N1J 1_555 1_555
H4J N1J 1_555 1_555
C1N C2D 1_555 1_555
H3D C2D 1_555 1_555
H3N C2D 1_555 1_555
H2J N2J 1_555 1_555
H6J N2J 1_555 1_555
O1N C1N 1_555 1_555
N1N C1N 1_555 1_555
N2N N1N 1_555 1_555
H4N N1N 1_555 1_555
O2E S1 1_555 1_555
O2J S1 1_555 1_555
O2O S1 1_555 1_555
H1H O3 1_555 1_555
H5D O4 1_555 1_555
Mn1B_2 O1N 1_555 1_555
H2N N2N 1_555 1_555
H6N N2N 1_555 1_555
C1D N1D 1_555 1_555
Mn1B N2J 1_555 1_555
N2N Mn1B_2 1_555 1_555

#END
