
#######################################################################
#
#                 Cambridge Crystallographic Data Centre
#                                CCDC 
#
#######################################################################
#
# If this CIF has been generated from an entry in the Cambridge 
# Structural Database, then it will include bibliographic, chemical, 
# crystal, experimental, refinement or atomic coordinate data resulting 
# from the CCDC's data processing and validation procedures.
#
#######################################################################

data_DEMMOY
_symmetry_cell_setting           triclinic
_symmetry_space_group_name_H-M   'P -1'
_symmetry_Int_Tables_number      2
_space_group_name_Hall           '-P 1'
loop_
_symmetry_equiv_pos_site_id
_symmetry_equiv_pos_as_xyz
1 x,y,z
2 -x,-y,-z
_cell_length_a                   6.8674(8)
_cell_length_b                   13.348(2)
_cell_length_c                   13.811(3)
_cell_angle_alpha                104.394(2)
_cell_angle_beta                 95.137(2)
_cell_angle_gamma                92.072(2)
_cell_volume                     1219.09
loop_
_atom_site_label
_atom_site_type_symbol
_atom_site_fract_x
_atom_site_fract_y
_atom_site_fract_z
Na1 Na 0.2650(4) 1.06485(17) 1.04440(18)
N1 N 0.2816(8) 1.2529(4) 1.0679(4)
C1 C 0.3026(9) 1.3171(5) 1.1611(5)
C2 C 0.3117(10) 1.4261(5) 1.1796(6)
C3 C 0.3013(12) 1.4676(5) 1.0961(7)
C4 C 0.2790(13) 1.4039(6) 1.0032(7)
C5 C 0.2704(11) 1.2972(5) 0.9915(5)
C6 C 0.3356(10) 1.4885(5) 1.2807(6)
N2 N 0.2999(7) 1.1663(4) 1.2268(4)
C7 C 0.3108(9) 1.2712(5) 1.2464(5)
C8 C 0.3338(9) 1.3360(5) 1.3441(5)
C9 C 0.3391(10) 1.2887(6) 1.4244(5)
C10 C 0.3261(10) 1.1843(6) 1.4050(6)
C11 C 0.3076(10) 1.1256(5) 1.3061(6)
C12 C 0.3456(10) 1.4459(5) 1.3587(6)
O1 O 0.4721(6) 1.0350(3) 0.9001(3)
O2 O 0.0011(6) 1.0319(3) 0.9002(3)
H1 H 0.30733 1.54268 1.10541
H2 H 0.26636 1.43144 0.94308
H3 H 0.25825 1.25137 0.92367
H4 H 0.34128 1.56420 1.29330
H5 H 0.35493 1.33044 1.49329
H6 H 0.32825 1.15087 1.46010
H7 H 0.29766 1.05015 1.29320
H8 H 0.36366 1.48943 1.42685
H9 H 0.52306 1.09937 0.88984
H10 H 0.39993 0.99718 0.83849
H11 H -0.04260 1.09535 0.88740
H12 H 0.04621 0.99167 0.83916
Na1A Na 0.7350(4) 0.93515(17) 0.95560(18)
Na1A_2 Na -0.2650(4) 0.93515(17) 0.95560(18)
O1A O 0.5279(6) 0.9650(3) 1.0999(3)
O2A O -0.0011(6) 0.9681(3) 1.0998(3)
H9A H 0.47694 0.90063 1.11016
H10A H 0.60007 1.00282 1.16151
H11A H 0.04260 0.90465 1.11260
H12A H -0.04621 1.00833 1.16084
N3 N 0.2120(8) 0.8241(4) 0.8535(4)
C13 C 0.1941(9) 0.7683(4) 0.7569(5)
C14 C 0.1753(9) 0.6595(5) 0.7270(5)
C15 C 0.1821(11) 0.6077(5) 0.8049(7)
C16 C 0.2006(11) 0.6634(6) 0.9012(6)
C17 C 0.2159(10) 0.7708(6) 0.9220(5)
C18 C 0.1534(10) 0.6069(5) 0.6235(6)
N4 N 0.2128(8) 0.9290(4) 0.7094(4)
C19 C 0.1905(9) 0.8251(5) 0.6791(5)
C20 C 0.1704(10) 0.7689(5) 0.5778(5)
C21 C 0.1751(12) 0.8255(7) 0.5055(6)
C22 C 0.2007(14) 0.9303(8) 0.5360(7)
C23 C 0.2158(12) 0.9793(6) 0.6392(7)
C24 C 0.1501(11) 0.6594(6) 0.5524(6)
H13 H 0.17292 0.53230 0.78884
H14 H 0.20372 0.62938 0.95642
H15 H 0.22842 0.80906 0.99166
H16 H 0.13891 0.53161 0.60330
H17 H 0.15977 0.79105 0.43443
H18 H 0.21131 0.97131 0.48687
H19 H 0.23089 1.05539 0.65982
H20 H 0.13115 0.62208 0.48173
I1 I 0.27652(11) 0.79276(4) 1.22151(4)
C25 C 0.864(5) 1.6597(16) 1.2909(15)
O3 O 0.759(4) 1.697(2) 1.299(2)
loop_
_geom_bond_atom_site_label_1
_geom_bond_atom_site_label_2
_geom_bond_site_symmetry_1
_geom_bond_site_symmetry_2
Na1 N1 1_555 1_555
N1 C1 1_555 1_555
C1 C2 1_555 1_555
C2 C3 1_555 1_555
C3 C4 1_555 1_555
C4 C5 1_555 1_555
C5 N1 1_555 1_555
C6 C2 1_555 1_555
N2 Na1 1_555 1_555
C7 C1 1_555 1_555
C8 C7 1_555 1_555
C9 C8 1_555 1_555
C10 C9 1_555 1_555
C11 N2 1_555 1_555
C12 C6 1_555 1_555
O1 Na1 1_555 1_555
O2 Na1 1_555 1_555
H1 C3 1_555 1_555
H2 C4 1_555 1_555
H3 C5 1_555 1_555
H4 C6 1_555 1_555
H5 C9 1_555 1_555
H6 C10 1_555 1_555
H7 C11 1_555 1_555
H8 C12 1_555 1_555
H9 O1 1_555 1_555
H10 O1 1_555 1_555
H11 O2 1_555 1_555
H12 O2 1_555 1_555
N3 C13 1_555 1_555
C13 C14 1_555 1_555
C14 C15 1_555 1_555
C15 C16 1_555 1_555
C16 C17 1_555 1_555
C17 N3 1_555 1_555
C18 C14 1_555 1_555
N4 C19 1_555 1_555
C19 C13 1_555 1_555
C20 C19 1_555 1_555
C21 C20 1_555 1_555
C22 C21 1_555 1_555
C23 N4 1_555 1_555
C24 C18 1_555 1_555
H13 C15 1_555 1_555
H14 C16 1_555 1_555
H15 C17 1_555 1_555
H16 C18 1_555 1_555
H17 C21 1_555 1_555
H18 C22 1_555 1_555
H19 C23 1_555 1_555
H20 C24 1_555 1_555
C25 O3 1_555 1_555
Na1A O1 1_555 1_555
Na1A_2 O2 1_555 1_555
O1A Na1 1_555 1_555
O2A Na1 1_555 1_555
H9A O1A 1_555 1_555
H10A O1A 1_555 1_555
H11A O2A 1_555 1_555
H12A O2A 1_555 1_555
N2 C7 1_555 1_555
C8 C12 1_555 1_555
C10 C11 1_555 1_555
C20 C24 1_555 1_555
C22 C23 1_555 1_555
Na1A O1A 1_555 1_555
Na1A_2 O2A 1_555 1_555

#END
