
#######################################################################
#
#                 Cambridge Crystallographic Data Centre
#                                CCDC 
#
#######################################################################
#
# If this CIF has been generated from an entry in the Cambridge 
# Structural Database, then it will include bibliographic, chemical, 
# crystal, experimental, refinement or atomic coordinate data resulting 
# from the CCDC's data processing and validation procedures.
#
#######################################################################

data_DEMPER
_symmetry_cell_setting           monoclinic
_symmetry_space_group_name_H-M   'P 21/n'
_symmetry_Int_Tables_number      14
_space_group_name_Hall           '-P 2yn'
loop_
_symmetry_equiv_pos_site_id
_symmetry_equiv_pos_as_xyz
1 x,y,z
2 1/2-x,1/2+y,1/2-z
3 -x,-y,-z
4 1/2+x,1/2-y,1/2+z
_cell_length_a                   10.261(2)
_cell_length_b                   7.7940(10)
_cell_length_c                   16.119(2)
_cell_angle_alpha                90
_cell_angle_beta                 90.232(2)
_cell_angle_gamma                90
_cell_volume                     1289.09
loop_
_atom_site_label
_atom_site_type_symbol
_atom_site_fract_x
_atom_site_fract_y
_atom_site_fract_z
N1 N 0.59880(10) 0.72837(13) 0.44029(7)
C1 C 0.47100(12) 0.70098(15) 0.45984(8)
C2 C 0.41589(14) 0.75396(17) 0.53608(9)
C3 C 0.49971(15) 0.83467(18) 0.59349(9)
C4 C 0.62763(16) 0.85904(18) 0.57409(9)
C5 C 0.67523(13) 0.80497(16) 0.49602(9)
C6 C 0.81500(15) 0.8329(2) 0.47354(10)
C7 C 0.28024(15) 0.72530(19) 0.55167(10)
N2 N 0.44414(10) 0.56665(13) 0.32644(7)
C8 C 0.38884(12) 0.61574(16) 0.39937(8)
C9 C 0.25604(13) 0.58754(18) 0.41756(9)
C10 C 0.18050(14) 0.50295(19) 0.35728(10)
C11 C 0.23663(14) 0.45218(18) 0.28468(10)
C12 C 0.36980(13) 0.48746(16) 0.27015(8)
C13 C 0.43388(15) 0.4374(2) 0.19052(9)
C14 C 0.20379(15) 0.64572(19) 0.49524(10)
N3 N 0.67046(11) 0.96115(14) 0.22426(7)
O1 O 0.58699(9) 0.84834(13) 0.23940(7)
O2 O 0.77662(11) 0.95922(18) 0.25963(8)
O3 O 0.64910(10) 1.07472(14) 0.17236(7)
Li1 Li 0.6412(2) 0.6589(3) 0.31549(13)
H1 H 0.4631(15) 0.872(2) 0.6482(11)
H2 H 0.6854(14) 0.912(2) 0.6115(10)
H3 H 0.820(2) 0.870(3) 0.4159(16)
H4 H 0.8514(18) 0.919(3) 0.5085(12)
H5 H 0.862(2) 0.729(3) 0.4804(15)
H6 H 0.2435(17) 0.770(2) 0.6059(12)
H7 H 0.0893(18) 0.485(2) 0.3673(10)
H8 H 0.1836(16) 0.394(2) 0.2420(10)
H9 H 0.5017(17) 0.350(2) 0.2015(11)
H10 H 0.4801(18) 0.544(2) 0.1690(12)
H11 H 0.3705(16) 0.400(2) 0.1521(11)
H12 H 0.1115(17) 0.623(2) 0.5061(11)
O2A O 0.72338(11) 0.45922(18) 0.24037(8)
O3A O 0.85090(10) 0.57472(14) 0.32764(7)
Li1A Li 0.8588(2) 1.1589(3) 0.18451(13)
loop_
_geom_bond_atom_site_label_1
_geom_bond_atom_site_label_2
_geom_bond_site_symmetry_1
_geom_bond_site_symmetry_2
N1 C1 1_555 1_555
C1 C2 1_555 1_555
C2 C3 1_555 1_555
C3 C4 1_555 1_555
C4 C5 1_555 1_555
C5 N1 1_555 1_555
C6 C5 1_555 1_555
C7 C2 1_555 1_555
N2 C8 1_555 1_555
C8 C1 1_555 1_555
C9 C8 1_555 1_555
C10 C9 1_555 1_555
C11 C10 1_555 1_555
C12 N2 1_555 1_555
C13 C12 1_555 1_555
C14 C7 1_555 1_555
N3 O1 1_555 1_555
O1 Li1 1_555 1_555
O2 N3 1_555 1_555
O3 N3 1_555 1_555
Li1 N1 1_555 1_555
H1 C3 1_555 1_555
H2 C4 1_555 1_555
H3 C6 1_555 1_555
H4 C6 1_555 1_555
H5 C6 1_555 1_555
H6 C7 1_555 1_555
H7 C10 1_555 1_555
H8 C11 1_555 1_555
H9 C13 1_555 1_555
H10 C13 1_555 1_555
H11 C13 1_555 1_555
H12 C14 1_555 1_555
O2A Li1 1_555 1_555
O3A Li1 1_555 1_555
Li1A O2 1_555 1_555
N2 Li1 1_555 1_555
C9 C14 1_555 1_555
C11 C12 1_555 1_555
O3 Li1A 1_555 1_555

#END
