
#######################################################################
#
#                 Cambridge Crystallographic Data Centre
#                                CCDC 
#
#######################################################################
#
# If this CIF has been generated from an entry in the Cambridge 
# Structural Database, then it will include bibliographic, chemical, 
# crystal, experimental, refinement or atomic coordinate data resulting 
# from the CCDC's data processing and validation procedures.
#
#######################################################################

data_DEMPUH
_symmetry_cell_setting           orthorhombic
_symmetry_space_group_name_H-M   'P b c a'
_symmetry_Int_Tables_number      61
_space_group_name_Hall           '-P 2ac 2ab'
loop_
_symmetry_equiv_pos_site_id
_symmetry_equiv_pos_as_xyz
1 x,y,z
2 1/2-x,-y,1/2+z
3 1/2+x,1/2-y,-z
4 -x,1/2+y,1/2-z
5 -x,-y,-z
6 1/2+x,y,1/2-z
7 1/2-x,1/2+y,z
8 x,1/2-y,1/2+z
_cell_length_a                   21.124(2)
_cell_length_b                   13.592(3)
_cell_length_c                   24.773(4)
_cell_angle_alpha                90
_cell_angle_beta                 90
_cell_angle_gamma                90
_cell_volume                     7112.76
loop_
_atom_site_label
_atom_site_type_symbol
_atom_site_fract_x
_atom_site_fract_y
_atom_site_fract_z
Rb1 Rb 0.76681(4) 0.43139(7) 0.24795(4)
Rb2 Rb 0.74999(5) 0.30958(8) 0.41424(3)
S1 S 0.84707(10) 0.5675(2) 0.35612(9)
O1 O 0.8415(3) 0.5955(5) 0.3000(2)
O2 O 0.8202(3) 0.4735(5) 0.3693(3)
O3 O 0.8344(3) 0.6455(5) 0.3932(3)
C1 C 0.9335(5) 0.5486(8) 0.3642(4)
F1 F 0.9467(2) 0.5368(5) 0.4164(2)
F2 F 0.9644(3) 0.6251(5) 0.3466(3)
F3 F 0.9515(3) 0.4683(5) 0.3383(3)
S2 S 0.84198(12) 0.1588(2) 0.31917(10)
O4 O 0.8348(3) 0.1481(6) 0.3769(3)
O5 O 0.8175(3) 0.2498(5) 0.2972(3)
O6 O 0.8291(3) 0.0714(6) 0.2884(3)
C2 C 0.9280(5) 0.1747(9) 0.3112(5)
F4 F 0.9481(3) 0.2536(5) 0.3358(3)
F5 F 0.9435(3) 0.1784(5) 0.2599(3)
F6 F 0.9579(3) 0.0992(5) 0.3329(3)
N1 N 0.8500(3) 0.4331(6) 0.1471(3)
C3 C 0.8268(4) 0.4339(7) 0.0963(3)
C4 C 0.8661(4) 0.4377(8) 0.0498(4)
C5 C 0.9315(4) 0.4361(8) 0.0591(4)
C6 C 0.9128(4) 0.4330(8) 0.1540(4)
C7 C 0.9360(4) 0.4325(9) 0.2109(4)
C8 C 0.8394(4) 0.4369(7) -0.0032(4)
C9 C 0.9541(4) 0.4345(8) 0.1100(4)
N2 N 0.7201(3) 0.4330(6) 0.1327(3)
C10 C 0.7585(4) 0.4352(7) 0.0882(3)
C11 C 0.7345(4) 0.4368(7) 0.0352(3)
C12 C 0.6675(4) 0.4372(8) 0.0293(3)
C13 C 0.6302(4) 0.4338(8) 0.0738(4)
C14 C 0.6579(4) 0.4322(8) 0.1251(4)
C15 C 0.6174(4) 0.4289(8) 0.1749(4)
C16 C 0.7759(4) 0.4373(8) -0.0100(3)
N3 N 0.8131(4) 0.3137(6) 0.5220(3)
C17 C 0.7827(5) 0.3156(7) 0.5699(4)
C18 C 0.8151(6) 0.3162(8) 0.6199(4)
C19 C 0.8820(6) 0.3150(8) 0.6180(5)
C20 C 0.9117(5) 0.3148(8) 0.5705(5)
C21 C 0.8763(5) 0.3135(7) 0.5222(4)
C22 C 0.7808(7) 0.3179(7) 0.6696(5)
N4 N 0.6824(4) 0.3125(6) 0.5227(3)
C23 C 0.7134(5) 0.3158(7) 0.5710(4)
C24 C 0.6816(6) 0.3171(8) 0.6210(5)
C25 C 0.6142(6) 0.3188(8) 0.6202(5)
C26 C 0.5836(5) 0.3162(8) 0.5721(5)
C27 C 0.6186(5) 0.3133(8) 0.5242(4)
C28 C 0.9087(5) 0.3124(8) 0.4685(5)
C29 C 0.5866(5) 0.3124(8) 0.4705(4)
C30 C 0.7164(7) 0.3190(8) 0.6707(4)
O7 O 0.6735(3) 0.3106(6) 0.3031(3)
C31 C 0.6078(5) 0.3382(9) 0.3120(4)
H1 H 0.96091 0.43652 0.02877
H2 H 0.99892 0.43518 0.11621
H3 H 0.98045 0.43078 0.21216
H4 H 0.91872 0.37871 0.23044
H5 H 0.92165 0.49271 0.22813
H6 H 0.86820 0.43930 -0.03365
H7 H 0.64835 0.43665 -0.00625
H8 H 0.58494 0.43421 0.06966
H9 H 0.63098 0.37619 0.19845
H10 H 0.57414 0.41828 0.16622
H11 H 0.62092 0.48910 0.19491
H12 H 0.75716 0.43994 -0.04667
H13 H 0.90610 0.31531 0.65167
H14 H 0.95830 0.31170 0.56877
H15 H 0.90422 0.24845 0.45160
H16 H 0.95275 0.32593 0.47166
H17 H 0.89019 0.35982 0.44454
H18 H 0.80298 0.31712 0.70293
H19 H 0.59044 0.31958 0.65296
H20 H 0.53840 0.31647 0.57025
H21 H 0.60320 0.26027 0.44867
H22 H 0.59403 0.37336 0.45196
H23 H 0.54266 0.30346 0.47511
H24 H 0.69446 0.32328 0.70447
H25 H 0.58363 0.32998 0.28074
H26 H 0.60422 0.40200 0.32604
H27 H 0.58965 0.29298 0.33974
Rb1F Rb 0.73319(4) -0.06861(7) 0.24795(4)
Rb2F Rb 0.75001(5) 0.80958(8) 0.41424(3)
O3F O 0.6656(3) 0.1455(5) 0.3932(3)
O6F O 0.6709(3) 0.5714(6) 0.2884(3)
loop_
_geom_bond_atom_site_label_1
_geom_bond_atom_site_label_2
_geom_bond_site_symmetry_1
_geom_bond_site_symmetry_2
Rb1 O1 1_555 1_555
Rb2 O2 1_555 1_555
S1 O1 1_555 1_555
O2 Rb1 1_555 1_555
O3 S1 1_555 1_555
C1 S1 1_555 1_555
F1 C1 1_555 1_555
F2 C1 1_555 1_555
F3 C1 1_555 1_555
S2 O4 1_555 1_555
O4 Rb2 1_555 1_555
O5 Rb1 1_555 1_555
O6 S2 1_555 1_555
C2 S2 1_555 1_555
F4 C2 1_555 1_555
F5 C2 1_555 1_555
F6 C2 1_555 1_555
N1 Rb1 1_555 1_555
C3 N1 1_555 1_555
C4 C3 1_555 1_555
C5 C4 1_555 1_555
C6 N1 1_555 1_555
C7 C6 1_555 1_555
C8 C4 1_555 1_555
C9 C5 1_555 1_555
N2 Rb1 1_555 1_555
C10 C3 1_555 1_555
C11 C10 1_555 1_555
C12 C11 1_555 1_555
C13 C12 1_555 1_555
C14 N2 1_555 1_555
C15 C14 1_555 1_555
C16 C8 1_555 1_555
N3 Rb2 1_555 1_555
C17 N3 1_555 1_555
C18 C17 1_555 1_555
C19 C18 1_555 1_555
C20 C19 1_555 1_555
C21 N3 1_555 1_555
C22 C18 1_555 1_555
N4 Rb2 1_555 1_555
C23 C17 1_555 1_555
C24 C23 1_555 1_555
C25 C24 1_555 1_555
C26 C25 1_555 1_555
C27 N4 1_555 1_555
C28 C21 1_555 1_555
C29 C27 1_555 1_555
C30 C22 1_555 1_555
O7 Rb1 1_555 1_555
C31 O7 1_555 1_555
H1 C5 1_555 1_555
H2 C9 1_555 1_555
H3 C7 1_555 1_555
H4 C7 1_555 1_555
H5 C7 1_555 1_555
H6 C8 1_555 1_555
H7 C12 1_555 1_555
H8 C13 1_555 1_555
H9 C15 1_555 1_555
H10 C15 1_555 1_555
H11 C15 1_555 1_555
H12 C16 1_555 1_555
H13 C19 1_555 1_555
H14 C20 1_555 1_555
H15 C28 1_555 1_555
H16 C28 1_555 1_555
H17 C28 1_555 1_555
H18 C22 1_555 1_555
H19 C25 1_555 1_555
H20 C26 1_555 1_555
H21 C29 1_555 1_555
H22 C29 1_555 1_555
H23 C29 1_555 1_555
H24 C30 1_555 1_555
H25 C31 1_555 1_555
H26 C31 1_555 1_555
H27 C31 1_555 1_555
Rb1F O6 1_555 1_555
Rb2F O3 1_555 1_555
O3F Rb2 1_555 1_555
O6F Rb1 1_555 1_555
Rb2 O5 1_555 1_555
Rb2 O7 1_555 1_555
S1 O2 1_555 1_555
S2 O5 1_555 1_555
C6 C9 1_555 1_555
N2 C10 1_555 1_555
C11 C16 1_555 1_555
C13 C14 1_555 1_555
C20 C21 1_555 1_555
N4 C23 1_555 1_555
C24 C30 1_555 1_555
C26 C27 1_555 1_555

#END
