
#######################################################################
#
#                 Cambridge Crystallographic Data Centre
#                                CCDC 
#
#######################################################################
#
# If this CIF has been generated from an entry in the Cambridge 
# Structural Database, then it will include bibliographic, chemical, 
# crystal, experimental, refinement or atomic coordinate data resulting 
# from the CCDC's data processing and validation procedures.
#
#######################################################################

data_DEMVAT
_symmetry_cell_setting           monoclinic
_symmetry_space_group_name_H-M   'P 21/n'
_symmetry_Int_Tables_number      14
_space_group_name_Hall           '-P 2yn'
loop_
_symmetry_equiv_pos_site_id
_symmetry_equiv_pos_as_xyz
1 x,y,z
2 1/2-x,1/2+y,1/2-z
3 -x,-y,-z
4 1/2+x,1/2-y,1/2+z
_cell_length_a                   9.1752(3)
_cell_length_b                   14.5976(4)
_cell_length_c                   10.3666(3)
_cell_angle_alpha                90
_cell_angle_beta                 98.231(2)
_cell_angle_gamma                90
_cell_volume                     1374.16
loop_
_atom_site_label
_atom_site_type_symbol
_atom_site_fract_x
_atom_site_fract_y
_atom_site_fract_z
Zn1 Zn 0.75521(3) 0.385198(17) 0.73609(3)
Cl1 Cl 0.53637(6) 0.38542(4) 0.61280(6)
Cl2 Cl 0.77236(7) 0.38379(4) 0.95320(6)
N1 N 0.8444(2) 0.26308(13) 0.68968(19)
N2 N 0.7305(2) 0.15470(14) 0.3148(2)
N3 N 0.6933(2) 0.10568(14) 0.1969(2)
N4 N 0.6410(2) 0.00129(13) -0.18451(19)
C1 C 0.9229(2) 0.21050(16) 0.7811(2)
H1 H 0.9506 0.2349 0.8661
C2 C 0.9643(3) 0.12213(16) 0.7552(2)
H2 H 1.0207 0.0864 0.8209
C3 C 0.9223(3) 0.08691(17) 0.6321(2)
H3 H 0.9492 0.0262 0.6125
C4 C 0.8409(3) 0.14011(15) 0.5366(2)
C5 C 0.8043(3) 0.22813(15) 0.5704(2)
H4 H 0.7484 0.2653 0.5062
C6 C 0.7913(3) 0.10374(17) 0.4051(2)
H5 H 0.8054 0.0407 0.3880
C7 C 0.6626(3) 0.15957(18) 0.1002(2)
H6 H 0.6638 0.2239 0.1141
C8 C 0.5591(3) 0.05157(16) -0.2766(2)
H7 H 0.5322 0.0257 -0.3608
C9 C 0.5127(3) 0.13927(16) -0.2536(3)
H8 H 0.4573 0.1738 -0.3213
C10 C 0.5485(3) 0.17554(17) -0.1307(2)
H9 H 0.5202 0.2364 -0.1133
C11 C 0.6256(3) 0.12340(16) -0.0324(2)
C12 C 0.6716(3) 0.03632(16) -0.0643(2)
H10 H 0.7269 0.0004 0.0018
Zn1A Zn 0.74479(3) -0.114802(17) -0.23609(3)
N4A N 0.8590(2) 0.50129(13) 0.68451(19)
loop_
_geom_bond_atom_site_label_1
_geom_bond_atom_site_label_2
_geom_bond_site_symmetry_1
_geom_bond_site_symmetry_2
Zn1 Cl1 1_555 1_555
Cl2 Zn1 1_555 1_555
N1 Zn1 1_555 1_555
N2 N3 1_555 1_555
N3 C7 1_555 1_555
N4 C8 1_555 1_555
C1 N1 1_555 1_555
H1 C1 1_555 1_555
C2 C1 1_555 1_555
H2 C2 1_555 1_555
C3 C2 1_555 1_555
H3 C3 1_555 1_555
C4 C3 1_555 1_555
C5 N1 1_555 1_555
H4 C5 1_555 1_555
C6 N2 1_555 1_555
H5 C6 1_555 1_555
C7 H6 1_555 1_555
C8 H7 1_555 1_555
C9 C8 1_555 1_555
H8 C9 1_555 1_555
C10 C9 1_555 1_555
H9 C10 1_555 1_555
C11 C7 1_555 1_555
C12 N4 1_555 1_555
H10 C12 1_555 1_555
Zn1A N4 1_555 1_555
N4A Zn1 1_555 1_555
C4 C5 1_555 1_555
C4 C6 1_555 1_555
C10 C11 1_555 1_555
C11 C12 1_555 1_555

#END
