
#######################################################################
#
#                 Cambridge Crystallographic Data Centre
#                                CCDC 
#
#######################################################################
#
# If this CIF has been generated from an entry in the Cambridge 
# Structural Database, then it will include bibliographic, chemical, 
# crystal, experimental, refinement or atomic coordinate data resulting 
# from the CCDC's data processing and validation procedures.
#
#######################################################################

data_DENCAB
_symmetry_cell_setting           monoclinic
_symmetry_space_group_name_H-M   'P 21/c'
_symmetry_Int_Tables_number      14
_space_group_name_Hall           '-P 2ybc'
loop_
_symmetry_equiv_pos_site_id
_symmetry_equiv_pos_as_xyz
1 x,y,z
2 -x,1/2+y,1/2-z
3 -x,-y,-z
4 x,1/2-y,1/2+z
_cell_length_a                   19.1170(18)
_cell_length_b                   16.1905(15)
_cell_length_c                   17.7411(17)
_cell_angle_alpha                90
_cell_angle_beta                 105.859(2)
_cell_angle_gamma                90
_cell_volume                     5282.11
loop_
_atom_site_label
_atom_site_type_symbol
_atom_site_fract_x
_atom_site_fract_y
_atom_site_fract_z
C1 C 0.26702(16) -0.03644(19) 0.17598(18)
C2 C 0.28333(17) 0.04412(18) 0.17664(18)
H1 H 0.3041 0.0648 0.1389
C3 C 0.26985(16) 0.09738(18) 0.23242(19)
C4 C 0.23463(17) 0.06610(18) 0.28657(18)
H2 H 0.2235 0.1010 0.3233
C5 C 0.21669(15) -0.01698(18) 0.28480(17)
C6 C 0.23281(16) -0.06927(18) 0.23379(18)
H3 H 0.2225 -0.1253 0.2351
C7 C 0.27305(16) -0.09530(18) 0.10747(17)
H4 H 0.2354 -0.1371 0.0998
H5 H 0.2642 -0.0634 0.0595
C8 C 0.28932(16) 0.18588(17) 0.23176(19)
H6 H 0.2487 0.2187 0.2376
H7 H 0.2966 0.1990 0.1811
C9 C 0.17698(16) -0.05167(19) 0.34535(19)
H8 H 0.1971 -0.1051 0.3645
H9 H 0.1847 -0.0145 0.3897
C10 C 0.37034(17) -0.0757(2) -0.08419(19)
H10 H 0.3551 -0.1151 -0.1234
C11 C 0.39039(16) 0.00510(18) -0.10673(18)
H11 H 0.3873 0.0193 -0.1583
C12 C 0.41489(17) 0.05988(19) -0.04376(18)
H12 H 0.4278 0.1134 -0.0535
C13 C 0.42055(17) 0.03478(18) 0.03682(19)
H13 H 0.4386 0.0701 0.0790
C14 C 0.39741(16) -0.04521(19) 0.04691(18)
C15 C 0.40661(17) -0.07862(19) 0.13101(19)
H14 H 0.4530 -0.1063 0.1506
H15 H 0.4033 -0.0342 0.1666
C16 C 0.36004(17) -0.19421(19) 0.18754(18)
H16 H 0.3493 -0.1682 0.2324
H17 H 0.4108 -0.2106 0.2023
C17 C 0.31095(16) -0.26988(19) 0.16125(17)
C18 C 0.29018(17) -0.31788(19) 0.21423(19)
H18 H 0.3024 -0.3064 0.2676
C19 C 0.24625(16) -0.38998(18) 0.17859(18)
H19 H 0.2292 -0.4254 0.2109
C20 C 0.22991(17) -0.40645(19) 0.10219(18)
H20 H 0.1997 -0.4504 0.0808
C21 C 0.25999(16) -0.35487(18) 0.05471(19)
H21 H 0.2532 -0.3683 0.0022
C22 C 0.50530(17) 0.19089(18) 0.17680(18)
H22 H 0.5319 0.1420 0.1832
C23 C 0.51016(16) 0.24896(19) 0.11747(18)
H23 H 0.5414 0.2389 0.0864
C24 C 0.47001(17) 0.31729(19) 0.10680(18)
H24 H 0.4715 0.3529 0.0661
C25 C 0.42626(15) 0.33662(18) 0.15462(18)
H25 H 0.3991 0.3850 0.1481
C26 C 0.42491(16) 0.27784(18) 0.21529(18)
C27 C 0.37914(17) 0.29295(18) 0.27496(18)
H26 H 0.4081 0.3211 0.3213
H27 H 0.3367 0.3264 0.2513
C28 C 0.34197(16) 0.21217(17) 0.37435(17)
H28 H 0.2911 0.2249 0.3680
H29 H 0.3711 0.2544 0.4072
C29 C 0.36021(17) 0.12729(19) 0.41332(19)
C30 C 0.32988(16) 0.10383(18) 0.47210(17)
H30 H 0.3007 0.1396 0.4913
C31 C 0.34437(16) 0.02693(18) 0.50039(17)
H31 H 0.3226 0.0071 0.5377
C32 C 0.39193(16) -0.02313(19) 0.47384(19)
H32 H 0.4047 -0.0746 0.4967
C33 C 0.42024(17) 0.00231(19) 0.41457(18)
H33 H 0.4484 -0.0334 0.3939
C34 C 0.06739(17) 0.01445(19) 0.08837(19)
H34 H 0.0639 -0.0254 0.0497
C35 C 0.07378(16) 0.10370(19) 0.07028(19)
H35 H 0.0809 0.1186 0.0223
C36 C 0.06976(17) 0.15996(19) 0.11915(19)
H36 H 0.0701 0.2155 0.1060
C37 C 0.06466(16) 0.13505(19) 0.19478(19)
H37 H 0.0623 0.1726 0.2336
C38 C 0.06356(16) 0.04999(19) 0.20551(18)
C39 C 0.06060(16) 0.02521(18) 0.28880(17)
H38 H 0.0865 0.0653 0.3269
H39 H 0.0106 0.0228 0.2912
C40 C 0.06697(17) -0.10943(19) 0.36025(19)
H40 H 0.0146 -0.1030 0.3479
H41 H 0.0883 -0.0922 0.4140
C41 C 0.08651(17) -0.19779(19) 0.34900(19)
C42 C 0.10040(16) -0.25541(19) 0.41265(19)
H42 H 0.0987 -0.2405 0.4627
C43 C 0.11664(16) -0.33532(18) 0.39408(18)
H43 H 0.1246 -0.3760 0.4325
C44 C 0.12139(16) -0.3565(2) 0.31705(19)
H44 H 0.1335 -0.4096 0.3051
C45 C 0.10783(16) -0.29717(18) 0.26372(19)
H45 H 0.1107 -0.3107 0.2137
Cl1 Cl 0.30346(4) -0.26621(5) -0.09272(4)
Cl2 Cl 0.52206(4) 0.03502(4) 0.29394(4)
Cl3 Cl 0.08791(4) -0.18762(4) 0.09812(4)
Cl4 Cl 0.52825(4) 0.23539(4) 0.42157(4)
Cl5 Cl -0.06721(4) -0.12121(4) 0.18205(4)
Cu1 Cu 0.341520(19) -0.20642(2) 0.02525(2)
Cu2 Cu 0.44540(2) 0.13505(2) 0.30698(2)
Cu3 Cu 0.07068(2) -0.12087(2) 0.20167(2)
N1 N 0.34580(14) -0.13734(15) 0.12205(15)
N2 N 0.35736(13) 0.21127(14) 0.29543(14)
N3 N 0.09646(14) -0.06012(16) 0.30639(15)
N4 N 0.37217(14) -0.09751(15) -0.01109(14)
N5 N 0.29764(14) -0.28765(15) 0.08356(14)
N6 N 0.46162(14) 0.20780(15) 0.22356(15)
N7 N 0.40629(14) 0.08234(16) 0.38571(15)
N8 N 0.06678(13) -0.00655(16) 0.15769(15)
N9 N 0.09042(14) -0.21957(16) 0.27589(15)
Cl4A Cl 0.47175(4) -0.26461(4) 0.07843(4)
Cu1A Cu 0.658480(19) 0.29358(2) 0.47475(2)
Cl6 Cl 0.27810(4) -0.70173(4) 0.52853(4)
O1 O 0.1589(2) -0.7827(3) 0.3938(3)
H46 H 0.1660 -0.7340 0.3796
H47 H 0.1221 -0.8034 0.3611
O2 O 0.2243(2) -0.8644(2) 0.6094(3)
H48 H 0.2101 -0.8466 0.5626
H49 H 0.2052 -0.8357 0.6386
O3 O 0.2046(2) -0.9634(3) 0.9456(2)
H50 H 0.2072 -0.9500 0.9002
H51 H 0.1928 -0.9214 0.9682
O4 O 0.1050(2) -0.5571(3) -0.0022(2)
H52 H 0.0982 -0.5520 0.0429
H53 H 0.0660 -0.5452 -0.0371
O5 O 0.2115(2) -0.9131(2) 0.7680(2)
H54 H 0.1996 -0.8735 0.7935
H55 H 0.2122 -0.8961 0.7228
O6 O 0.0406(2) -0.4478(3) 0.0619(3)
H56 H 0.0487 -0.4769 0.0253
H57 H 0.0668 -0.4046 0.0683
loop_
_geom_bond_atom_site_label_1
_geom_bond_atom_site_label_2
_geom_bond_site_symmetry_1
_geom_bond_site_symmetry_2
C1 C2 1_555 1_555
C2 H1 1_555 1_555
C3 C2 1_555 1_555
C4 C3 1_555 1_555
H2 C4 1_555 1_555
C5 C4 1_555 1_555
C6 C1 1_555 1_555
H3 C6 1_555 1_555
C7 C1 1_555 1_555
H4 C7 1_555 1_555
H5 C7 1_555 1_555
C8 C3 1_555 1_555
H6 C8 1_555 1_555
H7 C8 1_555 1_555
C9 C5 1_555 1_555
H8 C9 1_555 1_555
H9 C9 1_555 1_555
C10 H10 1_555 1_555
C11 C10 1_555 1_555
H11 C11 1_555 1_555
C12 C11 1_555 1_555
H12 C12 1_555 1_555
C13 C12 1_555 1_555
H13 C13 1_555 1_555
C14 C13 1_555 1_555
C15 C14 1_555 1_555
H14 C15 1_555 1_555
H15 C15 1_555 1_555
C16 H16 1_555 1_555
H17 C16 1_555 1_555
C17 C16 1_555 1_555
C18 C17 1_555 1_555
H18 C18 1_555 1_555
C19 C18 1_555 1_555
H19 C19 1_555 1_555
C20 C19 1_555 1_555
H20 C20 1_555 1_555
C21 C20 1_555 1_555
H21 C21 1_555 1_555
C22 H22 1_555 1_555
C23 C22 1_555 1_555
H23 C23 1_555 1_555
C24 C23 1_555 1_555
H24 C24 1_555 1_555
C25 C24 1_555 1_555
H25 C25 1_555 1_555
C26 C25 1_555 1_555
C27 C26 1_555 1_555
H26 C27 1_555 1_555
H27 C27 1_555 1_555
C28 H28 1_555 1_555
H29 C28 1_555 1_555
C29 C28 1_555 1_555
C30 C29 1_555 1_555
H30 C30 1_555 1_555
C31 C30 1_555 1_555
H31 C31 1_555 1_555
C32 C31 1_555 1_555
H32 C32 1_555 1_555
C33 C32 1_555 1_555
H33 C33 1_555 1_555
C34 H34 1_555 1_555
C35 C34 1_555 1_555
H35 C35 1_555 1_555
C36 C35 1_555 1_555
H36 C36 1_555 1_555
C37 C36 1_555 1_555
H37 C37 1_555 1_555
C38 C37 1_555 1_555
C39 C38 1_555 1_555
H38 C39 1_555 1_555
H39 C39 1_555 1_555
C40 H40 1_555 1_555
H41 C40 1_555 1_555
C41 C40 1_555 1_555
C42 C41 1_555 1_555
H42 C42 1_555 1_555
C43 C42 1_555 1_555
H43 C43 1_555 1_555
C44 C43 1_555 1_555
H44 C44 1_555 1_555
C45 C44 1_555 1_555
H45 C45 1_555 1_555
Cl1 Cu1 1_555 1_555
Cl2 Cu2 1_555 1_555
Cl3 Cu3 1_555 1_555
Cl4 Cu2 1_555 1_555
Cl5 Cu3 1_555 1_555
Cu1 N1 1_555 1_555
Cu2 N2 1_555 1_555
Cu3 N3 1_555 1_555
N1 C7 1_555 1_555
N2 C8 1_555 1_555
N3 C9 1_555 1_555
N4 C10 1_555 1_555
N5 C17 1_555 1_555
N6 C22 1_555 1_555
N7 C29 1_555 1_555
N8 C34 1_555 1_555
N9 C41 1_555 1_555
O1 H46 1_555 1_555
H47 O1 1_555 1_555
O2 H48 1_555 1_555
H49 O2 1_555 1_555
O3 H50 1_555 1_555
H51 O3 1_555 1_555
O4 H52 1_555 1_555
H53 O4 1_555 1_555
O5 H54 1_555 1_555
H55 O5 1_555 1_555
O6 H56 1_555 1_555
H57 O6 1_555 1_555
Cl4A Cu1 1_555 1_555
Cu1A Cl4 1_555 1_555
C5 C6 1_555 1_555
C14 N4 1_555 1_555
C15 N1 1_555 1_555
C16 N1 1_555 1_555
C21 N5 1_555 1_555
C26 N6 1_555 1_555
C27 N2 1_555 1_555
C28 N2 1_555 1_555
C33 N7 1_555 1_555
C38 N8 1_555 1_555
C39 N3 1_555 1_555
C40 N3 1_555 1_555
C45 N9 1_555 1_555
Cu1 N4 1_555 1_555
Cu1 N5 1_555 1_555
Cu2 N6 1_555 1_555
Cu2 N7 1_555 1_555
Cu3 N8 1_555 1_555
Cu3 N9 1_555 1_555

#END
