
#######################################################################
#
#                 Cambridge Crystallographic Data Centre
#                                CCDC 
#
#######################################################################
#
# If this CIF has been generated from an entry in the Cambridge 
# Structural Database, then it will include bibliographic, chemical, 
# crystal, experimental, refinement or atomic coordinate data resulting 
# from the CCDC's data processing and validation procedures.
#
#######################################################################

data_DENLUD01
_symmetry_cell_setting           monoclinic
_symmetry_space_group_name_H-M   'P 21/n'
_symmetry_Int_Tables_number      14
_space_group_name_Hall           '-P 2yn'
loop_
_symmetry_equiv_pos_site_id
_symmetry_equiv_pos_as_xyz
1 x,y,z
2 1/2-x,1/2+y,1/2-z
3 -x,-y,-z
4 1/2+x,1/2-y,1/2+z
_cell_length_a                   16.4623(9)
_cell_length_b                   3.7795(2)
_cell_length_c                   24.7612(11)
_cell_angle_alpha                90
_cell_angle_beta                 101.5340(10)
_cell_angle_gamma                90
_cell_volume                     1509.51
loop_
_atom_site_label
_atom_site_type_symbol
_atom_site_fract_x
_atom_site_fract_y
_atom_site_fract_z
Cu1 Cu 0.82235(4) 0.55220(19) 0.08553(2)
Cu2 Cu 0.93180(4) 0.03243(18) 0.16450(2)
Cl1 Cl 0.77794(5) 0.0853(3) 0.13052(4)
Cl2 Cl 0.97962(6) 0.5636(3) 0.12131(4)
N1 N 0.8079(2) 0.6485(9) 0.00521(13)
C1 C 0.8685(2) 0.7973(12) -0.01604(16)
C2 C 0.8607(2) 0.8809(11) -0.07125(16)
C3 C 0.7861(2) 0.8104(10) -0.10725(15)
C4 C 0.7237(2) 0.6533(11) -0.08536(17)
C5 C 0.7361(3) 0.5780(11) -0.03000(17)
C6 C 0.7693(2) 0.8948(11) -0.16841(15)
O1 O 0.8300(2) 1.0625(10) -0.18794(14)
O2 O 0.70190(16) 0.8128(9) -0.19751(11)
N2 N 0.94665(19) 0.1156(9) 0.24508(12)
C7 C 0.8867(2) 0.0439(11) 0.27320(17)
C8 C 0.8941(2) 0.1065(11) 0.32900(16)
C9 C 0.9673(2) 0.2531(10) 0.35834(15)
C10 C 1.0305(2) 0.3240(11) 0.32962(16)
C11 C 1.0172(2) 0.2541(11) 0.27390(17)
C12 C 0.9826(2) 0.3366(12) 0.41884(16)
O3 O 0.9159(2) 0.3894(12) 0.44133(15)
O4 O 1.05448(17) 0.3621(11) 0.44557(12)
H1 H 0.841(3) -0.066(12) 0.2543(18)
H2 H 0.921(2) 0.832(11) 0.0128(16)
H3 H 0.903(3) 0.987(13) -0.086(2)
H4 H 0.696(3) 0.460(12) -0.0173(18)
H5 H 0.674(3) 0.596(12) -0.1070(17)
H6 H 1.058(3) 0.292(12) 0.2535(17)
H7 H 1.081(2) 0.437(11) 0.3462(17)
H8 H 0.849(2) 0.060(11) 0.3467(16)
H9 H 0.925(3) 0.481(15) 0.486(2)
H10 H 0.811(3) 1.113(13) -0.229(2)
Cu1_2 Cu 0.82235(4) -0.44780(19) 0.08553(2)
Cu2_2 Cu 0.93180(4) 1.03243(18) 0.16450(2)
Cl1_2 Cl 0.77794(5) 1.0853(3) 0.13052(4)
Cl2_2 Cl 0.97962(6) -0.4364(3) 0.12131(4)
loop_
_geom_bond_atom_site_label_1
_geom_bond_atom_site_label_2
_geom_bond_site_symmetry_1
_geom_bond_site_symmetry_2
Cu1 Cl1 1_555 1_555
Cu2 Cl1 1_555 1_555
Cl1 Cu1_2 1_555 1_555
Cl2 Cu1 1_555 1_555
N1 Cu1 1_555 1_555
C1 N1 1_555 1_555
C2 C1 1_555 1_555
C3 C2 1_555 1_555
C4 C3 1_555 1_555
C5 N1 1_555 1_555
C6 C3 1_555 1_555
O1 C6 1_555 1_555
O2 C6 1_555 1_555
N2 Cu2 1_555 1_555
C7 N2 1_555 1_555
C8 C7 1_555 1_555
C9 C8 1_555 1_555
C10 C9 1_555 1_555
C11 N2 1_555 1_555
C12 C9 1_555 1_555
O3 C12 1_555 1_555
O4 C12 1_555 1_555
H1 C7 1_555 1_555
H2 C1 1_555 1_555
H3 C2 1_555 1_555
H4 C5 1_555 1_555
H5 C4 1_555 1_555
H6 C11 1_555 1_555
H7 C10 1_555 1_555
H8 C8 1_555 1_555
H9 O3 1_555 1_555
H10 O1 1_555 1_555
Cu1_2 Cl2_2 1_555 1_555
Cu2_2 Cl2 1_555 1_555
Cl1_2 Cu1 1_555 1_555
Cl2_2 Cu2 1_555 1_555
Cu2 Cl2 1_555 1_555
C4 C5 1_555 1_555
C10 C11 1_555 1_555
Cu2_2 Cl1_2 1_555 1_555

#END
