
#######################################################################
#
#                 Cambridge Crystallographic Data Centre
#                                CCDC 
#
#######################################################################
#
# If this CIF has been generated from an entry in the Cambridge 
# Structural Database, then it will include bibliographic, chemical, 
# crystal, experimental, refinement or atomic coordinate data resulting 
# from the CCDC's data processing and validation procedures.
#
#######################################################################

data_DENVIC
_symmetry_cell_setting           monoclinic
_symmetry_space_group_name_H-M   'C 2/c'
_symmetry_Int_Tables_number      15
_space_group_name_Hall           '-C 2yn'
loop_
_symmetry_equiv_pos_site_id
_symmetry_equiv_pos_as_xyz
1 x,y,z
2 1/2+x,1/2+y,z
3 -x,y,1/2-z
4 1/2-x,1/2+y,1/2-z
5 -x,-y,-z
6 1/2-x,1/2-y,-z
7 x,-y,1/2+z
8 1/2+x,1/2-y,1/2+z
_cell_length_a                   30.884(2)
_cell_length_b                   8.1009(6)
_cell_length_c                   12.0897(8)
_cell_angle_alpha                90
_cell_angle_beta                 99.4610(10)
_cell_angle_gamma                90
_cell_volume                     2983.56
loop_
_atom_site_label
_atom_site_type_symbol
_atom_site_fract_x
_atom_site_fract_y
_atom_site_fract_z
Cd1 Cd 0.052890(8) 0.13967(3) 0.99048(2)
Cd2 Cd 0.0000 -0.13521(4) 0.7500
Cl1 Cl -0.02882(2) 0.10135(11) 0.87850(6)
Cl2 Cl 0.07801(3) -0.08152(11) 0.86743(7)
Cl3 Cl 0.02402(3) -0.35835(10) 0.62309(6)
N1 N 0.11775(9) 0.2006(4) 1.1149(3)
H1 H 0.1106 0.1988 1.1842
H2 H 0.1244 0.3060 1.1014
C1 C 0.15797(11) 0.1095(4) 1.1221(3)
C2 C 0.23656(11) -0.0665(4) 1.1368(3)
C3 C 0.18604(12) 0.1379(4) 1.0447(3)
H3 H 0.1787 0.2152 0.9878
C4 C 0.20819(12) -0.0930(4) 1.2125(3)
H4 H 0.2155 -0.1709 1.2690
C5 C 0.16913(11) -0.0062(4) 1.2062(3)
H5 H 0.1506 -0.0256 1.2581
C6 C 0.22490(11) 0.0497(4) 1.0534(3)
H6 H 0.2436 0.0692 1.0019
C7 C 0.27748(12) -0.1727(4) 1.1439(4)
H7 H 0.2727 -0.2528 1.0835
H8 H 0.2812 -0.2335 1.2139
C8 C 0.31968(11) -0.0812(4) 1.1374(3)
C9 C 0.33621(11) 0.0320(4) 1.2204(3)
H9 H 0.3199 0.0573 1.2763
C10 C 0.34453(12) -0.1155(4) 1.0549(3)
H10 H 0.3339 -0.1897 0.9982
C11 C 0.37660(11) 0.1075(4) 1.2212(3)
H11 H 0.3870 0.1836 1.2769
C12 C 0.38499(12) -0.0417(4) 1.0549(3)
H12 H 0.4011 -0.0666 0.9986
C13 C 0.40141(11) 0.0690(4) 1.1385(3)
N2 N 0.44314(10) 0.1464(4) 1.1387(3)
H13 H 0.4523 0.1869 1.2079
H14 H 0.4624 0.0676 1.1265
Cd1B Cd -0.052890(8) 0.13967(3) 0.50952(2)
Cd1D Cd -0.052890(8) -0.13967(3) 1.00952(2)
Cd1F Cd 0.052890(8) -0.13967(3) 0.49048(2)
Cd1E Cd 0.447110(8) 0.36033(3) 1.00952(2)
Cl1B Cl 0.02882(2) 0.10135(11) 0.62150(6)
Cl1D Cl 0.02882(2) -0.10135(11) 1.12150(6)
Cl1F Cl -0.02882(2) -0.10135(11) 0.37850(6)
Cl2B Cl -0.07801(3) -0.08152(11) 0.63257(7)
Cl3B Cl -0.02402(3) -0.35835(10) 0.87691(6)
Cl3F Cl 0.02402(3) 0.35835(10) 1.12309(6)
Cl3D Cl -0.02402(3) 0.35835(10) 0.37691(6)
N1E N 0.38225(9) 0.2994(4) 0.8851(3)
N1B N -0.11775(9) 0.2006(4) 0.3851(3)
H1E H 0.3894 0.3012 0.8158
H1B H -0.1106 0.1988 0.3158
H2E H 0.3756 0.1940 0.8986
H2B H -0.1244 0.3060 0.3986
C1E C 0.34203(11) 0.3905(4) 0.8779(3)
C2E C 0.26344(11) 0.5665(4) 0.8632(3)
C3E C 0.31396(12) 0.3621(4) 0.9553(3)
H3E H 0.3213 0.2848 1.0122
C4E C 0.29181(12) 0.5930(4) 0.7875(3)
H4E H 0.2845 0.6709 0.7310
C5E C 0.33087(11) 0.5062(4) 0.7938(3)
H5E H 0.3494 0.5256 0.7419
C6E C 0.27510(11) 0.4503(4) 0.9466(3)
H6E H 0.2564 0.4308 0.9981
C7E C 0.22252(12) 0.6727(4) 0.8561(4)
H7E H 0.2273 0.7528 0.9165
H8E H 0.2188 0.7335 0.7861
C8E C 0.18032(11) 0.5812(4) 0.8626(3)
C9E C 0.16379(11) 0.4680(4) 0.7796(3)
H9E H 0.1801 0.4427 0.7237
C10E C 0.15547(12) 0.6155(4) 0.9451(3)
H10E H 0.1661 0.6897 1.0018
C11E C 0.12340(11) 0.3925(4) 0.7788(3)
H11E H 0.1130 0.3164 0.7231
C12E C 0.11501(12) 0.5417(4) 0.9451(3)
H12E H 0.0989 0.5666 1.0014
C13E C 0.09859(11) 0.4310(4) 0.8615(3)
N2E N 0.05686(10) 0.3536(4) 0.8613(3)
N2G N -0.05686(10) 0.3536(4) 0.6387(3)
H13E H 0.0477 0.3131 0.7921
H13G H -0.0477 0.3131 0.7079
H14E H 0.0376 0.4324 0.8735
H14G H -0.0376 0.4324 0.6265
loop_
_geom_bond_atom_site_label_1
_geom_bond_atom_site_label_2
_geom_bond_site_symmetry_1
_geom_bond_site_symmetry_2
Cd1 Cl1 1_555 1_555
Cd2 Cl1 1_555 1_555
Cl1 Cd1D 1_555 1_555
Cl2 Cd1 1_555 1_555
Cl3 Cd2 1_555 1_555
N1 Cd1 1_555 1_555
H1 N1 1_555 1_555
H2 N1 1_555 1_555
C1 N1 1_555 1_555
C2 C4 1_555 1_555
C3 C1 1_555 1_555
H3 C3 1_555 1_555
C4 H4 1_555 1_555
C5 C1 1_555 1_555
H5 C5 1_555 1_555
C6 C2 1_555 1_555
H6 C6 1_555 1_555
C7 C2 1_555 1_555
H7 C7 1_555 1_555
H8 C7 1_555 1_555
C8 C7 1_555 1_555
C9 C8 1_555 1_555
H9 C9 1_555 1_555
C10 C8 1_555 1_555
H10 C10 1_555 1_555
C11 C9 1_555 1_555
H11 C11 1_555 1_555
C12 C10 1_555 1_555
H12 C12 1_555 1_555
C13 C11 1_555 1_555
N2 C13 1_555 1_555
H13 N2 1_555 1_555
H14 N2 1_555 1_555
Cd1B Cl1B 1_555 1_555
Cd1D Cl1D 1_555 1_555
Cd1F Cl3 1_555 1_555
Cd1E N2 1_555 1_555
Cl1B Cd2 1_555 1_555
Cl1D Cd1 1_555 1_555
Cl1F Cd1B 1_555 1_555
Cl2B Cd2 1_555 1_555
Cl3B Cd2 1_555 1_555
Cl3F Cd1 1_555 1_555
Cl3D Cd1B 1_555 1_555
N1E Cd1E 1_555 1_555
N1B Cd1B 1_555 1_555
H1E N1E 1_555 1_555
H1B N1B 1_555 1_555
H2E N1E 1_555 1_555
H2B N1B 1_555 1_555
C1E N1E 1_555 1_555
C2E C4E 1_555 1_555
C3E C1E 1_555 1_555
H3E C3E 1_555 1_555
C4E H4E 1_555 1_555
C5E C1E 1_555 1_555
H5E C5E 1_555 1_555
C6E C2E 1_555 1_555
H6E C6E 1_555 1_555
C7E C2E 1_555 1_555
H7E C7E 1_555 1_555
H8E C7E 1_555 1_555
C8E C7E 1_555 1_555
C9E C8E 1_555 1_555
H9E C9E 1_555 1_555
C10E C8E 1_555 1_555
H10E C10E 1_555 1_555
C11E C9E 1_555 1_555
H11E C11E 1_555 1_555
C12E C10E 1_555 1_555
H12E C12E 1_555 1_555
C13E C11E 1_555 1_555
N2E Cd1 1_555 1_555
N2G Cd1B 1_555 1_555
H13E N2E 1_555 1_555
H13G N2G 1_555 1_555
H14E N2E 1_555 1_555
H14G N2G 1_555 1_555
Cd2 Cl2 1_555 1_555
C3 C6 1_555 1_555
C4 C5 1_555 1_555
C12 C13 1_555 1_555
Cd1B Cl2B 1_555 1_555
Cd1D Cl3B 1_555 1_555
Cd1F Cl1B 1_555 1_555
Cd1F Cl1F 1_555 1_555
C3E C6E 1_555 1_555
C4E C5E 1_555 1_555
C12E C13E 1_555 1_555
C13E N2E 1_555 1_555

#END
