
#######################################################################
#
#                 Cambridge Crystallographic Data Centre
#                                CCDC 
#
#######################################################################
#
# If this CIF has been generated from an entry in the Cambridge 
# Structural Database, then it will include bibliographic, chemical, 
# crystal, experimental, refinement or atomic coordinate data resulting 
# from the CCDC's data processing and validation procedures.
#
#######################################################################

data_DEPDEI
_symmetry_cell_setting           triclinic
_symmetry_space_group_name_H-M   'P -1'
_symmetry_Int_Tables_number      2
_space_group_name_Hall           '-P 1'
loop_
_symmetry_equiv_pos_site_id
_symmetry_equiv_pos_as_xyz
1 x,y,z
2 -x,-y,-z
_cell_length_a                   8.3292(7)
_cell_length_b                   9.7989(8)
_cell_length_c                   13.155(1)
_cell_angle_alpha                80.124(1)
_cell_angle_beta                 74.892(1)
_cell_angle_gamma                88.202(1)
_cell_volume                     1021.1
loop_
_atom_site_label
_atom_site_type_symbol
_atom_site_fract_x
_atom_site_fract_y
_atom_site_fract_z
Cu1 Cu 0.5000 0.5000 0.5000
Cu2 Cu 1.0000 0.0000 0.0000
N2 N 0.3505(3) 0.5273(2) 0.39918(17)
C1 C 0.2143(3) 0.6067(3) 0.4195(2)
H1 H 0.1905 0.6499 0.4810
C2 C 0.1092(4) 0.6266(4) 0.3533(2)
H2 H 0.0136 0.6824 0.3695
C3 C 0.1433(3) 0.5650(3) 0.2631(2)
H3 H 0.0716 0.5778 0.2167
C4 C 0.2843(3) 0.4841(3) 0.2414(2)
C5 C 0.3852(3) 0.4686(3) 0.3115(2)
H4 H 0.4824 0.4143 0.2966
N3 N 0.3191(3) 0.4270(2) 0.14708(17)
H5 H 0.2629 0.4596 0.1002
C6 C 0.4316(3) 0.3260(3) 0.1209(2)
O4 O 0.5134(2) 0.2660(2) 0.17991(14)
N4 N 0.4457(3) 0.2997(2) 0.01973(17)
H6 H 0.3797 0.3456 -0.0162
C7 C 0.5554(3) 0.2065(3) -0.0316(2)
C8 C 0.5312(3) 0.1720(3) -0.1249(2)
H7 H 0.4406 0.2093 -0.1516
C9 C 0.6407(3) 0.0826(3) -0.1784(2)
H8 H 0.6249 0.0570 -0.2416
C10 C 0.7724(3) 0.0313(3) -0.1393(2)
H9 H 0.8468 -0.0303 -0.1761
N5 N 0.7986(3) 0.0662(2) -0.04980(18)
C11 C 0.6920(3) 0.1506(3) 0.0036(2)
H10 H 0.7097 0.1732 0.0672
O5 O 1.1590(2) 0.0044(2) -0.18181(16)
N6 N 1.1991(3) 0.1124(3) -0.24669(19)
O6 O 1.2572(6) 0.1060(3) -0.3424(2)
O7 O 1.1786(3) 0.2283(2) -0.22066(17)
O8 O 1.0686(2) 0.1925(2) 0.00325(18)
H11 H 1.0837 0.2403 -0.0580
O9 O 0.4808(3) 0.2924(2) 0.51719(17)
H12 H 0.4132 0.2619 0.5758
O10 O 0.2668(2) 0.5008(3) 0.64358(15)
H13 H 0.2328 0.5822 0.6450
H14 H 0.992(2) 0.239(2) 0.0431(17)
H15 H 0.4929 0.2622 0.4726
H16 H 0.2860 0.4282 0.6995
Cu2_2 Cu 0.0000 1.0000 1.0000
N2A N 0.6495(3) 0.4727(2) 0.60082(17)
C1A C 0.7857(3) 0.3933(3) 0.5805(2)
H1A H 0.8095 0.3501 0.5190
C2A C 0.8908(4) 0.3734(4) 0.6467(2)
H2A H 0.9864 0.3176 0.6305
C3A C 0.8567(3) 0.4350(3) 0.7369(2)
H3A H 0.9284 0.4222 0.7833
C4A C 0.7157(3) 0.5159(3) 0.7586(2)
C5A C 0.6148(3) 0.5314(3) 0.6885(2)
H4A H 0.5176 0.5857 0.7034
N3A N 0.6809(3) 0.5730(2) 0.85292(17)
H5A H 0.7371 0.5404 0.8998
C6A C 0.5684(3) 0.6740(3) 0.8791(2)
O4A O 0.4866(2) 0.7340(2) 0.82009(14)
N4A N 0.5543(3) 0.7003(2) 0.98027(17)
H6A H 0.6203 0.6544 1.0162
C7A C 0.4446(3) 0.7935(3) 1.0316(2)
C8A C 0.4688(3) 0.8280(3) 1.1249(2)
H7A H 0.5594 0.7907 1.1516
C9A C 0.3593(3) 0.9174(3) 1.1784(2)
H8A H 0.3751 0.9430 1.2416
C10A C 0.2276(3) 0.9687(3) 1.1393(2)
H9A H 0.1532 1.0303 1.1761
N5A N 0.2014(3) 0.9338(2) 1.04980(18)
N5A_2 N 1.2014(3) -0.0662(2) 0.04980(18)
C11A C 0.3080(3) 0.8494(3) 0.9964(2)
H10A H 0.2903 0.8268 0.9328
O5A O 0.8410(2) -0.0044(2) 0.18181(16)
N6A N 0.8009(3) -0.1124(3) 0.24669(19)
O6A O 0.7428(6) -0.1060(3) 0.3424(2)
O7A O 0.8214(3) -0.2283(2) 0.22066(17)
O8A O 0.9314(2) -0.1925(2) -0.00325(18)
H11A H 0.9163 -0.2403 0.0580
O9A O 0.5192(3) 0.7076(2) 0.48281(17)
H12A H 0.5868 0.7381 0.4242
O10A O 0.7332(2) 0.4992(3) 0.35642(15)
H13A H 0.7672 0.4178 0.3550
H14A H 1.008(2) -0.239(2) -0.0431(17)
H15A H 0.5071 0.7378 0.5274
H16A H 0.7140 0.5718 0.3005
O1 O 0.1160(3) 0.6349(2) 0.84189(19)
N1 N 0.1757(3) 0.5544(2) 0.90583(17)
O2 O 0.2589(2) 0.4525(2) 0.87753(15)
O3 O 0.1531(2) 0.5759(2) 0.99978(15)
loop_
_geom_bond_atom_site_label_1
_geom_bond_atom_site_label_2
_geom_bond_site_symmetry_1
_geom_bond_site_symmetry_2
O1 N1 1_555 1_555
N1 O2 1_555 1_555
O3 N1 1_555 1_555
Cu1 N2 1_555 1_555
Cu2 N5 1_555 1_555
N2 C1 1_555 1_555
C1 H1 1_555 1_555
C2 C1 1_555 1_555
H2 C2 1_555 1_555
C3 C2 1_555 1_555
H3 C3 1_555 1_555
C4 C3 1_555 1_555
C5 N2 1_555 1_555
H4 C5 1_555 1_555
N3 C4 1_555 1_555
H5 N3 1_555 1_555
C6 N3 1_555 1_555
O4 C6 1_555 1_555
N4 C6 1_555 1_555
H6 N4 1_555 1_555
C7 N4 1_555 1_555
C8 C7 1_555 1_555
H7 C8 1_555 1_555
C9 C8 1_555 1_555
H8 C9 1_555 1_555
C10 C9 1_555 1_555
H9 C10 1_555 1_555
N5 C10 1_555 1_555
C11 C7 1_555 1_555
H10 C11 1_555 1_555
O5 Cu2 1_555 1_555
N6 O5 1_555 1_555
O6 N6 1_555 1_555
O7 N6 1_555 1_555
O8 Cu2 1_555 1_555
H11 O8 1_555 1_555
O9 Cu1 1_555 1_555
H12 O9 1_555 1_555
O10 Cu1 1_555 1_555
H13 O10 1_555 1_555
H14 O8 1_555 1_555
H15 O9 1_555 1_555
H16 O10 1_555 1_555
Cu2_2 N5A 1_555 1_555
N2A Cu1 1_555 1_555
C1A N2A 1_555 1_555
H1A C1A 1_555 1_555
C2A C1A 1_555 1_555
H2A C2A 1_555 1_555
C3A C2A 1_555 1_555
H3A C3A 1_555 1_555
C4A C3A 1_555 1_555
C5A N2A 1_555 1_555
H4A C5A 1_555 1_555
N3A C4A 1_555 1_555
H5A N3A 1_555 1_555
C6A N3A 1_555 1_555
O4A C6A 1_555 1_555
N4A C6A 1_555 1_555
H6A N4A 1_555 1_555
C7A N4A 1_555 1_555
C8A C7A 1_555 1_555
H7A C8A 1_555 1_555
C9A C8A 1_555 1_555
H8A C9A 1_555 1_555
C10A C9A 1_555 1_555
H9A C10A 1_555 1_555
N5A C10A 1_555 1_555
N5A_2 Cu2 1_555 1_555
C11A C7A 1_555 1_555
H10A C11A 1_555 1_555
O5A Cu2 1_555 1_555
N6A O5A 1_555 1_555
O6A N6A 1_555 1_555
O7A N6A 1_555 1_555
O8A Cu2 1_555 1_555
H11A O8A 1_555 1_555
O9A Cu1 1_555 1_555
H12A O9A 1_555 1_555
O10A Cu1 1_555 1_555
H13A O10A 1_555 1_555
H14A O8A 1_555 1_555
H15A O9A 1_555 1_555
H16A O10A 1_555 1_555
C4 C5 1_555 1_555
N5 C11 1_555 1_555
C4A C5A 1_555 1_555
N5A C11A 1_555 1_555

#END
