
#######################################################################
#
#                 Cambridge Crystallographic Data Centre
#                                CCDC 
#
#######################################################################
#
# If this CIF has been generated from an entry in the Cambridge 
# Structural Database, then it will include bibliographic, chemical, 
# crystal, experimental, refinement or atomic coordinate data resulting 
# from the CCDC's data processing and validation procedures.
#
#######################################################################

data_DEPHAI
_symmetry_cell_setting           monoclinic
_symmetry_space_group_name_H-M   'C 2/c'
_symmetry_Int_Tables_number      15
_space_group_name_Hall           '-C 2yn'
loop_
_symmetry_equiv_pos_site_id
_symmetry_equiv_pos_as_xyz
1 x,y,z
2 1/2+x,1/2+y,z
3 -x,y,1/2-z
4 1/2-x,1/2+y,1/2-z
5 -x,-y,-z
6 1/2-x,1/2-y,-z
7 x,-y,1/2+z
8 1/2+x,1/2-y,1/2+z
_cell_length_a                   11.609(2)
_cell_length_b                   23.520(5)
_cell_length_c                   35.590(7)
_cell_angle_alpha                90
_cell_angle_beta                 95.59(3)
_cell_angle_gamma                90
_cell_volume                     9671.41
loop_
_atom_site_label
_atom_site_type_symbol
_atom_site_fract_x
_atom_site_fract_y
_atom_site_fract_z
C2 C 0.2442(9) 0.1599(4) 0.9203(3)
H2 H 0.2277 0.1184 0.9229
Cl4 Cl 0.3886(3) 0.16642(15) 0.91226(9)
Cl5 Cl 0.1525(4) 0.18528(13) 0.88214(11)
Cl6 Cl 0.2106(3) 0.19290(15) 0.96154(9)
C3 C 0.4676(7) 0.8392(3) 0.9520(2)
H3 H 0.3970 0.8613 0.9426
Cl7 Cl 0.5585(2) 0.83585(10) 0.91569(7)
Cl8 Cl 0.4236(2) 0.77078(10) 0.96338(10)
Cl9 Cl 0.5330(3) 0.87380(15) 0.99098(8)
O1 O -0.0309(13) 0.1668(6) 0.7116(3)
C4 C 0.0465(17) 0.1326(8) 0.7374(5)
O1B O 0.0309(13) 0.1668(6) 0.7884(3)
C4B C -0.0465(17) 0.1326(8) 0.7626(5)
Ag1 Ag 0.38518(4) 0.45635(2) 1.003044(12)
C5 C 0.4042(4) 0.4146(2) 0.76674(14)
C6 C 0.3724(5) 0.4301(2) 0.80240(14)
C7 C 0.2834(4) 0.4002(2) 0.81616(13)
C8 C 0.2244(4) 0.3554(2) 0.79768(14)
C9 C 0.2561(4) 0.3406(2) 0.76144(14)
C10 C 0.3441(4) 0.3715(2) 0.74610(13)
C11 C 0.4309(7) 0.4779(3) 0.82577(18)
H4 H 0.4919 0.4947 0.8121
H5 H 0.4650 0.4628 0.8500
H6 H 0.3736 0.5071 0.8303
O2 O 0.2563(3) 0.41461(15) 0.85327(9)
C12 C 0.1729(5) 0.4536(2) 0.85544(14)
O3 O 0.1115(4) 0.4709(2) 0.82896(11)
C13 C 0.1657(5) 0.4727(2) 0.89525(14)
C14 C 0.2541(5) 0.4629(2) 0.92337(14)
H7 H 0.3216 0.4437 0.9171
N1 N 0.2484(4) 0.4796(2) 0.95949(12)
C15 C 0.1511(5) 0.5062(3) 0.96802(16)
H8 H 0.1449 0.5171 0.9934
C16 C 0.0615(5) 0.5181(3) 0.94154(16)
H9 H -0.0048 0.5377 0.9485
C17 C 0.0674(5) 0.5014(2) 0.90428(14)
H10 H 0.0058 0.5095 0.8855
C18 C 0.1288(5) 0.3264(3) 0.81604(18)
H11 H 0.1216 0.3436 0.8408
H12 H 0.1468 0.2859 0.8193
H13 H 0.0557 0.3308 0.8000
C19 C 0.3735(5) 0.3582(2) 0.70643(14)
H14 H 0.4046 0.3924 0.6953
H15 H 0.3035 0.3459 0.6910
H16 H 0.4315 0.3278 0.7074
C20 C 0.1900(4) 0.2937(3) 0.73895(15)
H17 H 0.1402 0.3122 0.7183
H18 H 0.1378 0.2755 0.7558
C21 C 0.2573(4) 0.2464(2) 0.72140(14)
C22 C 0.2301(4) 0.2324(2) 0.68291(15)
C23 C 0.2898(5) 0.1873(2) 0.66893(14)
C24 C 0.3778(5) 0.1576(2) 0.68893(15)
C25 C 0.4058(5) 0.1724(2) 0.72672(15)
C26 C 0.3420(4) 0.2151(2) 0.74356(14)
C27 C 0.1392(5) 0.2629(3) 0.65733(16)
H19 H 0.1401 0.2486 0.6315
H20 H 0.1554 0.3038 0.6578
H21 H 0.0628 0.2560 0.6660
O4 O 0.2630(3) 0.17339(16) 0.63004(10)
C28 C 0.1761(5) 0.1357(2) 0.62183(15)
O5 O 0.1200(5) 0.1146(2) 0.64428(11)
C29 C 0.1599(5) 0.1253(2) 0.58026(14)
C30 C 0.0650(5) 0.0937(2) 0.56559(15)
H22 H 0.0149 0.0781 0.5825
N2 N 0.0416(4) 0.0844(2) 0.52849(13)
C31 C 0.1151(6) 0.1055(3) 0.50513(16)
H23 H 0.1000 0.0982 0.4789
C32 C 0.2109(6) 0.1370(3) 0.51741(17)
H24 H 0.2602 0.1517 0.5000
C33 C 0.2342(5) 0.1470(3) 0.55575(16)
H25 H 0.3003 0.1684 0.5651
C34 C 0.4395(6) 0.1103(3) 0.66918(19)
H26 H 0.4165 0.0732 0.6786
H27 H 0.5234 0.1149 0.6744
H28 H 0.4180 0.1123 0.6419
C35 C 0.3602(5) 0.2247(3) 0.78559(15)
H29 H 0.4164 0.2553 0.7911
H30 H 0.3895 0.1897 0.7981
H31 H 0.2865 0.2352 0.7950
C36 C 0.5000 0.1400(3) 0.7500
H32 H 0.4619 0.1150 0.7674
C37 C 0.5000 0.4477(3) 0.7500
H33 H 0.5370 0.4727 0.7701
S1 S 0.29531(14) 0.52315(6) 1.07708(4)
O6 O 0.2673(5) 0.4687(2) 1.05828(15)
O7 O 0.2248(5) 0.5677(2) 1.05953(15)
O8 O 0.4177(5) 0.5354(2) 1.07971(15)
C38 C 0.2559(8) 0.5154(4) 1.1234(2)
C39 C 0.1928(8) 0.5577(4) 1.1393(2)
H34 H 0.1710 0.5906 1.1249
C40 C 0.1619(8) 0.5530(4) 1.1746(2)
H35 H 0.1192 0.5827 1.1848
C41 C 0.1909(8) 0.5066(4) 1.1956(2)
C42 C 0.2550(8) 0.4630(4) 1.1806(2)
H36 H 0.2761 0.4304 1.1954
C43 C 0.2880(8) 0.4670(4) 1.1442(2)
H37 H 0.3312 0.4375 1.1339
C44 C 0.1517(8) 0.5010(4) 1.2356(2)
H38 H 0.1801 0.4649 1.2468
H39 H 0.0670 0.5017 1.2341
H40 H 0.1833 0.5326 1.2512
Ag1B Ag 0.61482(4) 0.45635(2) 0.496956(12)
Ag1G Ag -0.11482(4) 0.04365(2) 0.503044(12)
Ag1E Ag 1.11482(4) 0.04365(2) 0.996956(12)
C5B C 0.5958(4) 0.4146(2) 0.73326(14)
C6B C 0.6276(5) 0.4301(2) 0.69760(14)
C7B C 0.7166(4) 0.4002(2) 0.68384(13)
C8B C 0.7756(4) 0.3554(2) 0.70232(14)
C9B C 0.7439(4) 0.3406(2) 0.73856(14)
C10B C 0.6559(4) 0.3715(2) 0.75390(13)
C11B C 0.5691(7) 0.4779(3) 0.67423(18)
H4B H 0.5081 0.4947 0.6879
H5B H 0.5350 0.4628 0.6500
H6B H 0.6264 0.5071 0.6697
O2B O 0.7437(3) 0.41461(15) 0.64673(9)
C12B C 0.8271(5) 0.4536(2) 0.64456(14)
O3B O 0.8885(4) 0.4709(2) 0.67104(11)
C13B C 0.8343(5) 0.4727(2) 0.60475(14)
C14B C 0.7459(5) 0.4629(2) 0.57663(14)
H7B H 0.6784 0.4437 0.5829
N1B N 0.7516(4) 0.4796(2) 0.54051(12)
C15B C 0.8489(5) 0.5062(3) 0.53198(16)
H8B H 0.8551 0.5171 0.5066
C16B C 0.9385(5) 0.5181(3) 0.55846(16)
H9B H 1.0048 0.5377 0.5515
C17B C 0.9326(5) 0.5014(2) 0.59572(14)
H10B H 0.9942 0.5095 0.6145
C18B C 0.8712(5) 0.3264(3) 0.68396(18)
H11B H 0.8784 0.3436 0.6592
H12B H 0.8532 0.2859 0.6807
H13B H 0.9443 0.3308 0.7000
C19B C 0.6265(5) 0.3582(2) 0.79357(14)
H14B H 0.5954 0.3924 0.8047
H15B H 0.6965 0.3459 0.8090
H16B H 0.5685 0.3278 0.7926
C20B C 0.8100(4) 0.2937(3) 0.76105(15)
H17B H 0.8598 0.3122 0.7817
H18B H 0.8622 0.2755 0.7442
C21B C 0.7427(4) 0.2464(2) 0.77860(14)
C22B C 0.7699(4) 0.2324(2) 0.81709(15)
C23B C 0.7102(5) 0.1873(2) 0.83107(14)
C24B C 0.6222(5) 0.1576(2) 0.81107(15)
C25B C 0.5942(5) 0.1724(2) 0.77328(15)
C26B C 0.6580(4) 0.2151(2) 0.75644(14)
C27B C 0.8608(5) 0.2629(3) 0.84267(16)
H19B H 0.8599 0.2486 0.8685
H20B H 0.8446 0.3038 0.8422
H21B H 0.9372 0.2560 0.8340
O4B O 0.7370(3) 0.17339(16) 0.86996(10)
C28B C 0.8239(5) 0.1357(2) 0.87817(15)
O5B O 0.8800(5) 0.1146(2) 0.85572(11)
C29B C 0.8401(5) 0.1253(2) 0.91974(14)
C30B C 0.9350(5) 0.0937(2) 0.93441(15)
H22B H 0.9851 0.0781 0.9175
N2B N 0.9584(4) 0.0844(2) 0.97151(13)
N2G N 0.5416(4) 0.4156(2) 1.02849(13)
N2E N 0.4584(4) 0.4156(2) 0.47151(13)
C31B C 0.8849(6) 0.1055(3) 0.99487(16)
H23B H 0.9000 0.0982 1.0211
C32B C 0.7891(6) 0.1370(3) 0.98259(17)
H24B H 0.7398 0.1517 1.0000
C33B C 0.7658(5) 0.1470(3) 0.94425(16)
H25B H 0.6997 0.1684 0.9349
C34B C 0.5605(6) 0.1103(3) 0.83082(19)
H26B H 0.5835 0.0732 0.8214
H27B H 0.4766 0.1149 0.8256
H28B H 0.5820 0.1123 0.8581
C35B C 0.6398(5) 0.2247(3) 0.71441(15)
H29B H 0.5836 0.2553 0.7089
H30B H 0.6105 0.1897 0.7019
H31B H 0.7135 0.2352 0.7050
H32B H 0.5381 0.1150 0.7326
H33B H 0.4630 0.4727 0.7299
S1B S 0.70469(14) 0.52315(6) 0.42292(4)
O6B O 0.7327(5) 0.4687(2) 0.44172(15)
O7B O 0.7752(5) 0.5677(2) 0.44047(15)
O8B O 0.5823(5) 0.5354(2) 0.42029(15)
C38B C 0.7441(8) 0.5154(4) 0.3766(2)
C39B C 0.8072(8) 0.5577(4) 0.3607(2)
H34B H 0.8290 0.5906 0.3751
C40B C 0.8381(8) 0.5530(4) 0.3254(2)
H35B H 0.8808 0.5827 0.3152
C41B C 0.8091(8) 0.5066(4) 0.3044(2)
C42B C 0.7450(8) 0.4630(4) 0.3194(2)
H36B H 0.7239 0.4304 0.3046
C43B C 0.7120(8) 0.4670(4) 0.3558(2)
H37B H 0.6688 0.4375 0.3661
C44B C 0.8483(8) 0.5010(4) 0.2644(2)
H38B H 0.8199 0.4649 0.2532
H39B H 0.9330 0.5017 0.2659
H40B H 0.8167 0.5326 0.2488
C1 C 0.5088(8) 0.3298(4) 0.9088(3)
H1 H 0.5299 0.3705 0.9054
Cl1 Cl 0.4061(2) 0.32609(11) 0.94240(7)
Cl2 Cl 0.6352(2) 0.29184(13) 0.92670(9)
Cl3 Cl 0.4556(3) 0.30280(14) 0.86628(7)
H41? H 0.3951 0.4817 0.8495
H42? H 0.4220 0.5136 0.8116
H43? H 0.5134 0.4693 0.8313
H44? H 0.5381 0.1150 0.7326
H45? H 0.4630 0.4727 0.7299
H46? H 0.1068 0.5346 1.2413
H47? H 0.2199 0.4978 1.2540
H48? H 0.1036 0.4669 1.2368
loop_
_geom_bond_atom_site_label_1
_geom_bond_atom_site_label_2
_geom_bond_site_symmetry_1
_geom_bond_site_symmetry_2
C1 H1 1_555 1_555
Cl1 C1 1_555 1_555
Cl2 C1 1_555 1_555
Cl3 C1 1_555 1_555
C2 H2 1_555 1_555
Cl4 C2 1_555 1_555
Cl5 C2 1_555 1_555
Cl6 C2 1_555 1_555
C3 H3 1_555 1_555
Cl7 C3 1_555 1_555
Cl8 C3 1_555 1_555
Cl9 C3 1_555 1_555
O1 C4 1_555 1_555
C4 C4B 1_555 1_555
Ag1 N1 1_555 1_555
C5 C6 1_555 1_555
C6 C7 1_555 1_555
C7 C8 1_555 1_555
C8 C9 1_555 1_555
C9 C10 1_555 1_555
C10 C5 1_555 1_555
C11 C6 1_555 1_555
H4 C11 1_555 1_555
H5 C11 1_555 1_555
H6 C11 1_555 1_555
O2 C7 1_555 1_555
C12 O2 1_555 1_555
O3 C12 1_555 1_555
C13 C12 1_555 1_555
C14 C13 1_555 1_555
H7 C14 1_555 1_555
N1 C14 1_555 1_555
C15 N1 1_555 1_555
H8 C15 1_555 1_555
C16 C15 1_555 1_555
H9 C16 1_555 1_555
C17 C13 1_555 1_555
H10 C17 1_555 1_555
C18 C8 1_555 1_555
H11 C18 1_555 1_555
H12 C18 1_555 1_555
H13 C18 1_555 1_555
C19 C10 1_555 1_555
H14 C19 1_555 1_555
H15 C19 1_555 1_555
H16 C19 1_555 1_555
C20 C9 1_555 1_555
H17 C20 1_555 1_555
H18 C20 1_555 1_555
C21 C20 1_555 1_555
C22 C21 1_555 1_555
C23 C22 1_555 1_555
C24 C23 1_555 1_555
C25 C24 1_555 1_555
C26 C21 1_555 1_555
C27 C22 1_555 1_555
H19 C27 1_555 1_555
H20 C27 1_555 1_555
H21 C27 1_555 1_555
O4 C23 1_555 1_555
C28 O4 1_555 1_555
O5 C28 1_555 1_555
C29 C28 1_555 1_555
C30 C29 1_555 1_555
H22 C30 1_555 1_555
N2 C30 1_555 1_555
C31 N2 1_555 1_555
H23 C31 1_555 1_555
C32 C31 1_555 1_555
H24 C32 1_555 1_555
C33 C29 1_555 1_555
H25 C33 1_555 1_555
C34 C24 1_555 1_555
H26 C34 1_555 1_555
H27 C34 1_555 1_555
H28 C34 1_555 1_555
C35 C26 1_555 1_555
H29 C35 1_555 1_555
H30 C35 1_555 1_555
H31 C35 1_555 1_555
C36 C25 1_555 1_555
H32 C36 1_555 1_555
C37 C5 1_555 1_555
H33 C37 1_555 1_555
S1 O6 1_555 1_555
O6 Ag1 1_555 1_555
O7 S1 1_555 1_555
O8 S1 1_555 1_555
C38 S1 1_555 1_555
C39 C38 1_555 1_555
H34 C39 1_555 1_555
C40 C39 1_555 1_555
H35 C40 1_555 1_555
C41 C40 1_555 1_555
C42 C41 1_555 1_555
H36 C42 1_555 1_555
C43 C38 1_555 1_555
H37 C43 1_555 1_555
C44 C41 1_555 1_555
H38 C44 1_555 1_555
H39 C44 1_555 1_555
H40 C44 1_555 1_555
O1B C4B 1_555 1_555
Ag1B N1B 1_555 1_555
Ag1G N2 1_555 1_555
Ag1E N2B 1_555 1_555
C5B C37 1_555 1_555
C6B C5B 1_555 1_555
C7B C6B 1_555 1_555
C8B C7B 1_555 1_555
C9B C8B 1_555 1_555
C10B C5B 1_555 1_555
C11B C6B 1_555 1_555
H4B C11B 1_555 1_555
H5B C11B 1_555 1_555
H6B C11B 1_555 1_555
O2B C7B 1_555 1_555
C12B O2B 1_555 1_555
O3B C12B 1_555 1_555
C13B C12B 1_555 1_555
C14B C13B 1_555 1_555
H7B C14B 1_555 1_555
N1B C14B 1_555 1_555
C15B N1B 1_555 1_555
H8B C15B 1_555 1_555
C16B C15B 1_555 1_555
H9B C16B 1_555 1_555
C17B C13B 1_555 1_555
H10B C17B 1_555 1_555
C18B C8B 1_555 1_555
H11B C18B 1_555 1_555
H12B C18B 1_555 1_555
H13B C18B 1_555 1_555
C19B C10B 1_555 1_555
H14B C19B 1_555 1_555
H15B C19B 1_555 1_555
H16B C19B 1_555 1_555
C20B C9B 1_555 1_555
H17B C20B 1_555 1_555
H18B C20B 1_555 1_555
C21B C20B 1_555 1_555
C22B C21B 1_555 1_555
C23B C22B 1_555 1_555
C24B C23B 1_555 1_555
C25B C36 1_555 1_555
C26B C21B 1_555 1_555
C27B C22B 1_555 1_555
H19B C27B 1_555 1_555
H20B C27B 1_555 1_555
H21B C27B 1_555 1_555
O4B C23B 1_555 1_555
C28B O4B 1_555 1_555
O5B C28B 1_555 1_555
C29B C28B 1_555 1_555
C30B C29B 1_555 1_555
H22B C30B 1_555 1_555
N2B C30B 1_555 1_555
N2G Ag1 1_555 1_555
N2E Ag1B 1_555 1_555
C31B N2B 1_555 1_555
H23B C31B 1_555 1_555
C32B C31B 1_555 1_555
H24B C32B 1_555 1_555
C33B C29B 1_555 1_555
H25B C33B 1_555 1_555
C34B C24B 1_555 1_555
H26B C34B 1_555 1_555
H27B C34B 1_555 1_555
H28B C34B 1_555 1_555
C35B C26B 1_555 1_555
H29B C35B 1_555 1_555
H30B C35B 1_555 1_555
H31B C35B 1_555 1_555
H32B C36 1_555 1_555
H33B C37 1_555 1_555
S1B O6B 1_555 1_555
O6B Ag1B 1_555 1_555
O7B S1B 1_555 1_555
O8B S1B 1_555 1_555
C38B S1B 1_555 1_555
C39B C38B 1_555 1_555
H34B C39B 1_555 1_555
C40B C39B 1_555 1_555
H35B C40B 1_555 1_555
C41B C40B 1_555 1_555
C42B C41B 1_555 1_555
H36B C42B 1_555 1_555
C43B C38B 1_555 1_555
H37B C43B 1_555 1_555
C44B C41B 1_555 1_555
H38B C44B 1_555 1_555
H39B C44B 1_555 1_555
H40B C44B 1_555 1_555
C16 C17 1_555 1_555
C25 C26 1_555 1_555
C32 C33 1_555 1_555
C42 C43 1_555 1_555
C9B C10B 1_555 1_555
C16B C17B 1_555 1_555
C24B C25B 1_555 1_555
C25B C26B 1_555 1_555
C32B C33B 1_555 1_555
C42B C43B 1_555 1_555

#END
