
#######################################################################
#
#                 Cambridge Crystallographic Data Centre
#                                CCDC 
#
#######################################################################
#
# If this CIF has been generated from an entry in the Cambridge 
# Structural Database, then it will include bibliographic, chemical, 
# crystal, experimental, refinement or atomic coordinate data resulting 
# from the CCDC's data processing and validation procedures.
#
#######################################################################

data_DEPSAS
_symmetry_cell_setting           triclinic
_symmetry_space_group_name_H-M   'P -1'
_symmetry_Int_Tables_number      2
_space_group_name_Hall           '-P 1'
loop_
_symmetry_equiv_pos_site_id
_symmetry_equiv_pos_as_xyz
1 x,y,z
2 -x,-y,-z
_cell_length_a                   7.565(2)
_cell_length_b                   11.098(2)
_cell_length_c                   7.4120(10)
_cell_angle_alpha                107.89(2)
_cell_angle_beta                 92.28(2)
_cell_angle_gamma                102.13(2)
_cell_volume                     575.322
loop_
_atom_site_label
_atom_site_type_symbol
_atom_site_fract_x
_atom_site_fract_y
_atom_site_fract_z
Pd1 Pd 0.25412(7) 0.49118(4) 0.01264(6)
Na1 Na 0.2531(4) 0.0269(2) 0.2446(4)
O1 O 0.2607(7) 0.3450(4) 0.1257(6)
O2 O 0.3098(7) 0.1445(4) 0.0359(7)
O3 O 0.3571(7) 0.1570(4) -0.3251(6)
H1 H 0.3626 0.0980 -0.2819
O4 O 0.2248(6) 0.8415(4) -0.0243(6)
O5 O 0.2189(6) 0.6319(4) 0.2505(6)
O6 O 0.1978(6) 0.8386(4) 0.3470(6)
O7 O 0.5763(6) 0.0619(4) 0.2943(4)
H2 H 0.625(9) 0.117(5) 0.395(4)
H3 H 0.612(9) 0.084(6) 0.204(5)
O8 O 0.0111(5) 0.1132(5) 0.3270(8)
H4 H -0.030(11) 0.146(8) 0.426(5)
H5 H -0.035(11) 0.132(8) 0.240(7)
N1 N 0.2998(7) 0.3586(5) -0.2175(7)
N2 N 0.2478(7) 0.6290(5) -0.0999(6)
C1 C 0.2947(9) 0.2441(6) 0.0076(9)
C2 C 0.3176(9) 0.2541(6) -0.1922(8)
C3 C 0.3263(9) 0.3865(6) -0.3979(8)
H6 H 0.2994 0.3055 -0.5035
H7 H 0.4523 0.4301 -0.3952
C4 C 0.2036(9) 0.4721(5) -0.4275(8)
H8 H 0.0818 0.4369 -0.4028
H9 H 0.1974 0.4685 -0.5601
C5 C 0.2643(9) 0.6132(6) -0.3026(8)
H10 H 0.3900 0.6468 -0.3176
H11 H 0.1910 0.6638 -0.3440
C6 C 0.2277(8) 0.7400(5) 0.0157(8)
C7 C 0.2132(8) 0.7374(6) 0.2206(8)
O4_2 O 0.2248(6) -0.1585(4) -0.0243(6)
O6_2 O 0.1978(6) -0.1614(4) 0.3470(6)
Na1_2 Na 0.2531(4) 1.0269(2) 0.2446(4)
loop_
_geom_bond_atom_site_label_1
_geom_bond_atom_site_label_2
_geom_bond_site_symmetry_1
_geom_bond_site_symmetry_2
Pd1 O1 1_555 1_555
Na1 O2 1_555 1_555
O1 C1 1_555 1_555
O2 C1 1_555 1_555
O3 H1 1_555 1_555
O4 C6 1_555 1_555
O5 Pd1 1_555 1_555
O6 C7 1_555 1_555
O7 Na1 1_555 1_555
H2 O7 1_555 1_555
H3 O7 1_555 1_555
O8 Na1 1_555 1_555
H4 O8 1_555 1_555
H5 O8 1_555 1_555
N1 Pd1 1_555 1_555
N2 Pd1 1_555 1_555
C1 C2 1_555 1_555
C2 O3 1_555 1_555
C3 N1 1_555 1_555
H6 C3 1_555 1_555
H7 C3 1_555 1_555
C4 C3 1_555 1_555
H8 C4 1_555 1_555
H9 C4 1_555 1_555
C5 N2 1_555 1_555
H10 C5 1_555 1_555
H11 C5 1_555 1_555
C6 N2 1_555 1_555
C7 O5 1_555 1_555
O4_2 Na1 1_555 1_555
O6_2 Na1 1_555 1_555
Na1_2 O4 1_555 1_555
O6 Na1_2 1_555 1_555
N1 C2 1_555 1_555
C4 C5 1_555 1_555
C6 C7 1_555 1_555

#END
