
#######################################################################
#
#                 Cambridge Crystallographic Data Centre
#                                CCDC 
#
#######################################################################
#
# If this CIF has been generated from an entry in the Cambridge 
# Structural Database, then it will include bibliographic, chemical, 
# crystal, experimental, refinement or atomic coordinate data resulting 
# from the CCDC's data processing and validation procedures.
#
#######################################################################

data_DEPTUO
_symmetry_cell_setting           triclinic
_symmetry_space_group_name_H-M   'P -1'
_symmetry_Int_Tables_number      2
_space_group_name_Hall           '-P 1'
loop_
_symmetry_equiv_pos_site_id
_symmetry_equiv_pos_as_xyz
1 x,y,z
2 -x,-y,-z
_cell_length_a                   11.288(14)
_cell_length_b                   14.521(17)
_cell_length_c                   18.02(2)
_cell_angle_alpha                79.305(10)
_cell_angle_beta                 81.455(10)
_cell_angle_gamma                72.034(10)
_cell_volume                     2747.67
loop_
_atom_site_label
_atom_site_type_symbol
_atom_site_fract_x
_atom_site_fract_y
_atom_site_fract_z
Mn1 Mn 0.25734(9) 0.07627(8) 0.26066(6)
O1 O 0.3085(5) 0.0366(5) 0.3750(4)
C1 C 0.3342(7) -0.0088(6) 0.4351(5)
N1 N 0.3557(6) -0.0496(5) 0.4956(3)
O2 O 0.2057(5) 0.1102(5) 0.1446(4)
C2 C 0.1926(7) 0.1132(6) 0.0804(5)
N2 N 0.1797(6) 0.1161(6) 0.0188(3)
N3 N 0.1027(5) 0.2180(4) 0.2886(3)
C3 C 0.0889(6) 0.2519(5) 0.3541(4)
H1 H 0.1554 0.2292 0.3841
C4 C -0.0189(7) 0.3191(5) 0.3802(4)
H2 H -0.0225 0.3397 0.4266
C5 C -0.1208(6) 0.3560(5) 0.3386(4)
C6 C -0.1034(7) 0.3237(5) 0.2688(4)
H3 H -0.1663 0.3483 0.2362
C7 C 0.0054(6) 0.2558(5) 0.2473(4)
H4 H 0.0117 0.2347 0.2008
C8 C -0.2448(6) 0.4182(5) 0.3675(4)
H5 H -0.2710 0.4768 0.3309
H6 H -0.2369 0.4381 0.4146
C9 C -0.3463(6) 0.3633(5) 0.3815(4)
H7 H -0.4251 0.4068 0.3998
H8 H -0.3576 0.3472 0.3337
C10 C -0.3145(6) 0.2690(5) 0.4389(4)
H9 H -0.3781 0.2360 0.4419
H10 H -0.2350 0.2256 0.4214
C11 C -0.3065(6) 0.2893(4) 0.5168(4)
C12 C -0.2001(6) 0.2508(5) 0.5531(4)
H11 H -0.1319 0.2064 0.5310
C13 C -0.1917(6) 0.2767(5) 0.6222(4)
H12 H -0.1172 0.2494 0.6448
N4 N -0.2874(5) 0.3397(4) 0.6579(3)
C14 C -0.3926(6) 0.3737(5) 0.6241(4)
H13 H -0.4610 0.4160 0.6481
C15 C -0.4070(6) 0.3505(5) 0.5559(4)
H14 H -0.4839 0.3757 0.5358
N5 N 0.4103(5) 0.1575(4) 0.2263(3)
C16 C 0.4136(6) 0.2192(5) 0.1608(4)
H15 H 0.3412 0.2455 0.1361
C17 C 0.5203(7) 0.2455(5) 0.1285(4)
H16 H 0.5177 0.2893 0.0835
C18 C 0.6298(6) 0.2072(5) 0.1627(4)
C19 C 0.6251(6) 0.1472(5) 0.2320(4)
H17 H 0.6951 0.1233 0.2590
C20 C 0.5162(6) 0.1232(5) 0.2608(4)
H18 H 0.5163 0.0810 0.3065
C21 C 0.7502(7) 0.2291(6) 0.1262(4)
H19 H 0.7341 0.2732 0.0789
H20 H 0.7781 0.2619 0.1595
C22 C 0.8529(7) 0.1375(7) 0.1105(4)
H21 H 0.8659 0.0926 0.1576
H22 H 0.9299 0.1548 0.0931
C23 C 0.8264(8) 0.0850(6) 0.0516(5)
H23 H 0.8945 0.0257 0.0466
H24 H 0.7504 0.0663 0.0692
C24 C 0.8116(7) 0.1489(5) -0.0258(4)
C25 C 0.9074(6) 0.1871(5) -0.0621(4)
H25 H 0.9838 0.1690 -0.0418
C26 C 0.8882(6) 0.2521(5) -0.1286(4)
H26 H 0.9538 0.2765 -0.1520
N6 N 0.7817(5) 0.2823(4) -0.1613(3)
C27 C 0.6909(7) 0.2429(5) -0.1270(4)
H27 H 0.6160 0.2608 -0.1489
C28 C 0.7037(7) 0.1766(5) -0.0601(4)
H28 H 0.6382 0.1510 -0.0387
N7 N 0.0978(5) -0.0001(4) 0.2962(3)
C29 C 0.0624(7) -0.0497(5) 0.2514(4)
H29 H 0.1103 -0.0618 0.2056
C30 C -0.0415(7) -0.0834(5) 0.2700(4)
H30 H -0.0616 -0.1179 0.2374
C31 C -0.1155(6) -0.0660(5) 0.3369(4)
C32 C -0.0809(7) -0.0140(5) 0.3831(4)
H31 H -0.1291 0.0010 0.4282
C33 C 0.0255(7) 0.0150(5) 0.3613(4)
H32 H 0.0489 0.0475 0.3940
C34 C -0.2309(6) -0.1032(5) 0.3607(4)
H33 H -0.3028 -0.0488 0.3722
H34 H -0.2478 -0.1290 0.3188
C35 C -0.2129(6) -0.1825(4) 0.4297(4)
H35 H -0.1928 -0.1573 0.4711
H36 H -0.1427 -0.2377 0.4176
C36 C -0.3295(6) -0.2174(5) 0.4557(4)
H37 H -0.3993 -0.1625 0.4688
H38 H -0.3505 -0.2416 0.4142
C37 C -0.3098(6) -0.2977(5) 0.5236(4)
C38 C -0.2278(6) -0.3911(5) 0.5186(4)
H39 H -0.1849 -0.4067 0.4722
C39 C -0.2114(7) -0.4595(5) 0.5826(4)
H40 H -0.1541 -0.5204 0.5783
N8 N -0.2721(5) -0.4447(4) 0.6510(3)
C40 C -0.3514(6) -0.3545(5) 0.6557(4)
H41 H -0.3954 -0.3417 0.7024
C41 C -0.3703(6) -0.2806(5) 0.5948(4)
H42 H -0.4238 -0.2189 0.6014
N9 N 0.4170(5) -0.0583(4) 0.2218(3)
C42 C 0.4611(7) -0.1450(5) 0.2646(4)
H43 H 0.4200 -0.1562 0.3126
C43 C 0.5633(7) -0.2187(5) 0.2422(4)
H44 H 0.5885 -0.2777 0.2743
C44 C 0.6283(6) -0.2042(5) 0.1716(4)
C45 C 0.5847(7) -0.1150(5) 0.1275(4)
H45 H 0.6257 -0.1016 0.0798
C46 C 0.4810(7) -0.0455(5) 0.1533(4)
H46 H 0.4535 0.0136 0.1217
C47 C 0.7396(7) -0.2832(5) 0.1437(4)
H47 H 0.7591 -0.3382 0.1841
H48 H 0.8115 -0.2580 0.1313
C48 C 0.7162(6) -0.3188(5) 0.0735(4)
H49 H 0.6945 -0.2635 0.0335
H50 H 0.6459 -0.3458 0.0863
C49 C 0.8310(7) -0.3969(6) 0.0444(4)
H51 H 0.9012 -0.3697 0.0321
H52 H 0.8525 -0.4518 0.0847
C50 C 0.8116(7) -0.4336(5) -0.0248(4)
C51 C 0.8760(7) -0.4181(5) -0.0943(4)
H53 H 0.9341 -0.3831 -0.1002
C52 C 0.8561(7) -0.4532(5) -0.1555(4)
H54 H 0.9041 -0.4431 -0.2012
N10 N 0.7706(6) -0.5019(4) -0.1532(3)
C53 C 0.7051(7) -0.5151(6) -0.0854(4)
H55 H 0.6442 -0.5471 -0.0816
C54 C 0.7227(7) -0.4842(6) -0.0217(4)
H56 H 0.6755 -0.4968 0.0238
Mn2 Mn -0.25146(10) 0.42154(8) 0.74855(5)
O3 O -0.4518(6) 0.4654(5) 0.7816(3)
C55 C -0.5537(8) 0.5059(5) 0.8053(4)
N11 N -0.6529(6) 0.5423(5) 0.8293(4)
O4 O -0.0521(6) 0.3834(5) 0.7154(3)
C56 C 0.0525(8) 0.3822(5) 0.6950(4)
N12 N 0.1566(6) 0.3787(5) 0.6748(4)
N6_2 N -0.2183(5) 0.2823(4) 0.8387(3)
N8_2 N -0.2721(5) 0.5553(4) 0.6510(3)
N10_2 N -0.2294(6) 0.4981(4) 0.8468(3)
Mn2_2 Mn 0.74854(10) 0.42154(8) -0.25145(5)
Mn2_3 Mn -0.25146(10) -0.57846(8) 0.74855(5)
Mn2_4 Mn 0.74854(10) -0.57846(8) -0.25145(5)
loop_
_geom_bond_atom_site_label_1
_geom_bond_atom_site_label_2
_geom_bond_site_symmetry_1
_geom_bond_site_symmetry_2
Mn1 O1 1_555 1_555
O1 C1 1_555 1_555
C1 N1 1_555 1_555
O2 Mn1 1_555 1_555
C2 O2 1_555 1_555
N2 C2 1_555 1_555
N3 Mn1 1_555 1_555
C3 N3 1_555 1_555
H1 C3 1_555 1_555
C4 C3 1_555 1_555
H2 C4 1_555 1_555
C5 C4 1_555 1_555
C6 C5 1_555 1_555
H3 C6 1_555 1_555
C7 N3 1_555 1_555
H4 C7 1_555 1_555
C8 C5 1_555 1_555
H5 C8 1_555 1_555
H6 C8 1_555 1_555
C9 C8 1_555 1_555
H7 C9 1_555 1_555
H8 C9 1_555 1_555
C10 C9 1_555 1_555
H9 C10 1_555 1_555
H10 C10 1_555 1_555
C11 C10 1_555 1_555
C12 C11 1_555 1_555
H11 C12 1_555 1_555
C13 C12 1_555 1_555
H12 C13 1_555 1_555
N4 C13 1_555 1_555
C14 N4 1_555 1_555
H13 C14 1_555 1_555
C15 C11 1_555 1_555
H14 C15 1_555 1_555
N5 Mn1 1_555 1_555
C16 N5 1_555 1_555
H15 C16 1_555 1_555
C17 C16 1_555 1_555
H16 C17 1_555 1_555
C18 C17 1_555 1_555
C19 C18 1_555 1_555
H17 C19 1_555 1_555
C20 N5 1_555 1_555
H18 C20 1_555 1_555
C21 C18 1_555 1_555
H19 C21 1_555 1_555
H20 C21 1_555 1_555
C22 C21 1_555 1_555
H21 C22 1_555 1_555
H22 C22 1_555 1_555
C23 C22 1_555 1_555
H23 C23 1_555 1_555
H24 C23 1_555 1_555
C24 C23 1_555 1_555
C25 C24 1_555 1_555
H25 C25 1_555 1_555
C26 C25 1_555 1_555
H26 C26 1_555 1_555
N6 C26 1_555 1_555
C27 N6 1_555 1_555
H27 C27 1_555 1_555
C28 C24 1_555 1_555
H28 C28 1_555 1_555
N7 Mn1 1_555 1_555
C29 N7 1_555 1_555
H29 C29 1_555 1_555
C30 C29 1_555 1_555
H30 C30 1_555 1_555
C31 C30 1_555 1_555
C32 C31 1_555 1_555
H31 C32 1_555 1_555
C33 N7 1_555 1_555
H32 C33 1_555 1_555
C34 C31 1_555 1_555
H33 C34 1_555 1_555
H34 C34 1_555 1_555
C35 C34 1_555 1_555
H35 C35 1_555 1_555
H36 C35 1_555 1_555
C36 C35 1_555 1_555
H37 C36 1_555 1_555
H38 C36 1_555 1_555
C37 C36 1_555 1_555
C38 C37 1_555 1_555
H39 C38 1_555 1_555
C39 C38 1_555 1_555
H40 C39 1_555 1_555
N8 C39 1_555 1_555
C40 N8 1_555 1_555
H41 C40 1_555 1_555
C41 C37 1_555 1_555
H42 C41 1_555 1_555
N9 Mn1 1_555 1_555
C42 N9 1_555 1_555
H43 C42 1_555 1_555
C43 C42 1_555 1_555
H44 C43 1_555 1_555
C44 C43 1_555 1_555
C45 C44 1_555 1_555
H45 C45 1_555 1_555
C46 N9 1_555 1_555
H46 C46 1_555 1_555
C47 C44 1_555 1_555
H47 C47 1_555 1_555
H48 C47 1_555 1_555
C48 C47 1_555 1_555
H49 C48 1_555 1_555
H50 C48 1_555 1_555
C49 C48 1_555 1_555
H51 C49 1_555 1_555
H52 C49 1_555 1_555
C50 C49 1_555 1_555
C51 C50 1_555 1_555
H53 C51 1_555 1_555
C52 C51 1_555 1_555
H54 C52 1_555 1_555
N10 C52 1_555 1_555
C53 N10 1_555 1_555
H55 C53 1_555 1_555
C54 C50 1_555 1_555
H56 C54 1_555 1_555
Mn2 N4 1_555 1_555
O3 Mn2 1_555 1_555
C55 O3 1_555 1_555
N11 C55 1_555 1_555
O4 Mn2 1_555 1_555
C56 O4 1_555 1_555
N12 C56 1_555 1_555
N6_2 Mn2 1_555 1_555
N8_2 Mn2 1_555 1_555
N10_2 Mn2 1_555 1_555
Mn2_2 N6 1_555 1_555
Mn2_3 N8 1_555 1_555
Mn2_4 N10 1_555 1_555
C6 C7 1_555 1_555
C14 C15 1_555 1_555
C19 C20 1_555 1_555
C27 C28 1_555 1_555
C32 C33 1_555 1_555
C40 C41 1_555 1_555
C45 C46 1_555 1_555
C53 C54 1_555 1_555

#END
