
#######################################################################
#
#                 Cambridge Crystallographic Data Centre
#                                CCDC 
#
#######################################################################
#
# If this CIF has been generated from an entry in the Cambridge 
# Structural Database, then it will include bibliographic, chemical, 
# crystal, experimental, refinement or atomic coordinate data resulting 
# from the CCDC's data processing and validation procedures.
#
#######################################################################

data_DEPTEY
_symmetry_cell_setting           monoclinic
_symmetry_space_group_name_H-M   'P 21/c'
_symmetry_Int_Tables_number      14
_space_group_name_Hall           '-P 2ybc'
loop_
_symmetry_equiv_pos_site_id
_symmetry_equiv_pos_as_xyz
1 x,y,z
2 -x,1/2+y,1/2-z
3 -x,-y,-z
4 x,1/2-y,1/2+z
_cell_length_a                   8.3137(2)
_cell_length_b                   12.7112(3)
_cell_length_c                   10.4351(4)
_cell_angle_alpha                90
_cell_angle_beta                 99.6410(10)
_cell_angle_gamma                90
_cell_volume                     1087.18
loop_
_atom_site_label
_atom_site_type_symbol
_atom_site_fract_x
_atom_site_fract_y
_atom_site_fract_z
N1 N 0.3362(2) -0.19651(15) -0.04450(19)
C1 C 0.2396(3) -0.17332(18) 0.0426(2)
H1 H 0.2668 -0.1136 0.0965
H2 H -0.124(4) -0.399(2) -0.085(3)
I1 I 0.696460(19) -0.074230(12) 0.156840(15)
Cu1 Cu 0.50772(4) -0.09045(2) -0.07506(3)
C2 C 0.2949(3) -0.28186(18) -0.1189(2)
H3 H 0.3622 -0.3007 -0.1804
C3 C -0.0969(3) -0.37392(18) 0.2140(2)
H4 H 0.0179 -0.3659 0.2372
N2 N -0.0814(3) -0.37428(17) -0.0179(2)
N3 N -0.3578(2) -0.39476(15) 0.2835(2)
C4 C 0.1037(3) -0.23028(18) 0.0589(2)
H5 H 0.0408 -0.2106 0.1231
C5 C 0.0600(3) -0.31767(17) -0.0207(2)
C6 C -0.1703(3) -0.37760(17) 0.0835(2)
C7 C -0.1943(3) -0.38224(18) 0.3086(2)
H6 H -0.1429 -0.3789 0.397
C8 C 0.1606(3) -0.34354(18) -0.1111(2)
H7 H 0.1366 -0.4029 -0.1663
C9 C -0.3398(3) -0.39112(19) 0.0558(2)
H8 H -0.3942 -0.395 -0.0317
C10 C -0.4262(3) -0.39864(19) 0.1565(2)
H9 H -0.5412 -0.4071 0.1358
I1B I 0.303540(19) 0.074230(12) -0.156840(15)
Cu1C Cu -0.49228(4) -0.40955(2) 0.42494(3)
Cu1B Cu 0.49228(4) 0.09045(2) 0.07506(3)
N3C N 0.6422(2) -0.10524(15) -0.2165(2)
loop_
_geom_bond_atom_site_label_1
_geom_bond_atom_site_label_2
_geom_bond_site_symmetry_1
_geom_bond_site_symmetry_2
N1 C1 1_555 1_555
C1 H1 1_555 1_555
H2 N2 1_555 1_555
I1 Cu1 1_555 1_555
Cu1 N1 1_555 1_555
C2 N1 1_555 1_555
H3 C2 1_555 1_555
C3 H4 1_555 1_555
N2 C5 1_555 1_555
N3 C7 1_555 1_555
C4 C1 1_555 1_555
H5 C4 1_555 1_555
C5 C4 1_555 1_555
C6 C3 1_555 1_555
C7 C3 1_555 1_555
H6 C7 1_555 1_555
C8 C2 1_555 1_555
H7 C8 1_555 1_555
C9 C6 1_555 1_555
H8 C9 1_555 1_555
C10 N3 1_555 1_555
H9 C10 1_555 1_555
I1B Cu1 1_555 1_555
Cu1C N3 1_555 1_555
Cu1B I1 1_555 1_555
N3C Cu1 1_555 1_555
N2 C6 1_555 1_555
C5 C8 1_555 1_555
C9 C10 1_555 1_555
I1B Cu1B 1_555 1_555

#END
