
#######################################################################
#
#                 Cambridge Crystallographic Data Centre
#                                CCDC 
#
#######################################################################
#
# If this CIF has been generated from an entry in the Cambridge 
# Structural Database, then it will include bibliographic, chemical, 
# crystal, experimental, refinement or atomic coordinate data resulting 
# from the CCDC's data processing and validation procedures.
#
#######################################################################

data_DEPTAU
_symmetry_cell_setting           monoclinic
_symmetry_space_group_name_H-M   'P 21/c'
_symmetry_Int_Tables_number      14
_space_group_name_Hall           '-P 2ybc'
loop_
_symmetry_equiv_pos_site_id
_symmetry_equiv_pos_as_xyz
1 x,y,z
2 -x,1/2+y,1/2-z
3 -x,-y,-z
4 x,1/2-y,1/2+z
_cell_length_a                   11.6556(8)
_cell_length_b                   8.0359(6)
_cell_length_c                   23.6344(17)
_cell_angle_alpha                90
_cell_angle_beta                 103.4040(10)
_cell_angle_gamma                90
_cell_volume                     2153.37
loop_
_atom_site_label
_atom_site_type_symbol
_atom_site_fract_x
_atom_site_fract_y
_atom_site_fract_z
Co1 Co 0.5000 1.0000 0.0000
Co2 Co 1.0000 1.0000 0.5000
N1 N 0.62126(18) 0.9807(2) 0.08399(8)
C1 C 0.7238(3) 0.9024(4) 0.09073(11)
C2 C 0.8100(3) 0.8961(4) 0.14192(11)
C3 C 0.7890(2) 0.9753(3) 0.19063(9)
C4 C 0.6813(2) 1.0536(3) 0.18470(10)
C5 C 0.6015(2) 1.0539(3) 0.13167(10)
N2 N 0.86862(18) 0.9780(3) 0.24535(8)
C6 C 0.9827(2) 0.9298(4) 0.25721(10)
O1 O 1.0302(2) 0.8780(4) 0.22024(8)
C7 C 1.0527(2) 0.9401(3) 0.31922(10)
C8 C 1.1739(2) 0.9209(4) 0.32874(12)
H1 H 1.2088 0.9057 0.2975
C9 C 1.2419(3) 0.9244(5) 0.38436(13)
C10 C 1.1878(2) 0.9433(4) 0.42987(12)
N3 N 1.07095(18) 0.9616(3) 0.42224(8)
C11 C 1.0051(2) 0.9594(3) 0.36735(10)
O2 O 0.84267(14) 0.9231(2) 0.45475(7)
C12 C 0.80267(17) 0.7824(3) 0.43897(9)
O3 O 0.83222(16) 0.6497(3) 0.46569(8)
C13 C 0.71633(16) 0.7786(2) 0.38092(8)
C14 C 0.7232(2) 0.6476(3) 0.34370(10)
C15 C 0.6540(2) 0.6459(3) 0.28774(11)
C16 C 0.5764(3) 0.7741(3) 0.26902(11)
C17 C 0.5686(2) 0.9034(3) 0.30622(11)
C18 C 0.63874(17) 0.9089(2) 0.36208(9)
C19 C 0.6227(2) 1.0531(3) 0.40077(10)
O4 O 0.6440(2) 1.1960(2) 0.38541(9)
O5 O 0.58334(19) 1.02180(19) 0.44388(8)
O6 O 0.9498(2) 1.2473(3) 0.46876(11)
H2 H 0.8838 1.2685 0.4735
O7 O 0.36196(17) 0.9520(2) 0.04073(8)
O8 O 0.48753(19) 1.2564(2) 0.00731(8)
H3 H 0.734(3) 0.842(4) 0.0556(15)
H4 H 0.882(3) 0.832(4) 0.1439(14)
H5 H 0.661(2) 1.105(3) 0.2175(11)
H6 H 0.525(2) 1.115(3) 0.1267(11)
H7 H 0.842(2) 1.035(3) 0.2733(12)
H8 H 1.323(3) 0.911(4) 0.3922(14)
H9 H 1.225(3) 0.946(4) 0.4682(14)
H10 H 0.920(2) 0.974(3) 0.3652(11)
H11 H 0.777(2) 0.557(4) 0.3559(11)
H12 H 0.668(3) 0.548(4) 0.2638(13)
H13 H 0.527(3) 0.779(4) 0.2301(14)
H14 H 0.523(3) 0.993(4) 0.2948(14)
H15 H 1.008(5) 1.278(8) 0.495(2)
H16 H 0.356(3) 0.880(4) 0.0613(15)
H17 H 0.299(3) 1.012(4) 0.0424(14)
H18 H 0.463(2) 1.312(4) 0.0251(12)
H19 H 0.518(3) 1.306(4) -0.0124(13)
Co2_2 Co 0.0000 1.0000 -0.5000
N1B N 0.37874(18) 1.0193(2) -0.08399(8)
C1B C 0.2762(3) 1.0976(4) -0.09073(11)
C2B C 0.1900(3) 1.1039(4) -0.14192(11)
C3B C 0.2110(2) 1.0247(3) -0.19063(9)
C4B C 0.3187(2) 0.9464(3) -0.18470(10)
C5B C 0.3985(2) 0.9461(3) -0.13167(10)
N2B N 0.13138(18) 1.0220(3) -0.24535(8)
C6B C 0.0173(2) 1.0702(4) -0.25721(10)
O1B O -0.0302(2) 1.1220(4) -0.22024(8)
C7B C -0.0527(2) 1.0599(3) -0.31922(10)
C8B C -0.1739(2) 1.0791(4) -0.32874(12)
H1B H -0.2088 1.0943 -0.2975
C9B C -0.2419(3) 1.0756(5) -0.38436(13)
C10B C -0.1878(2) 1.0567(4) -0.42987(12)
N3B N 0.92905(18) 1.0384(3) 0.57776(8)
N3B_2 N -0.07095(18) 1.0384(3) -0.42224(8)
C11B C -0.0051(2) 1.0406(3) -0.36735(10)
O2B O 1.15733(14) 1.0769(2) 0.54525(7)
C12B C 1.19733(17) 1.2176(3) 0.56103(9)
O3B O 1.16778(16) 1.3503(3) 0.53431(8)
C13B C 1.28367(16) 1.2214(2) 0.61908(8)
C14B C 1.2768(2) 1.3524(3) 0.65630(10)
C15B C 1.3460(2) 1.3541(3) 0.71226(11)
C16B C 1.4236(3) 1.2259(3) 0.73098(11)
C17B C 1.4314(2) 1.0966(3) 0.69378(11)
C18B C 1.36126(17) 1.0911(2) 0.63792(9)
C19B C 1.3773(2) 0.9469(3) 0.59923(10)
O4B O 1.3560(2) 0.8040(2) 0.61459(9)
O5B O 1.41666(19) 0.97820(19) 0.55612(8)
O6B O 1.0502(2) 0.7527(3) 0.53124(11)
H2B H 1.1162 0.7315 0.5265
O7B O 0.63804(17) 1.0480(2) -0.04073(8)
O8B O 0.51247(19) 0.7436(2) -0.00731(8)
H3B H 0.266(3) 1.158(4) -0.0556(15)
H4B H 0.118(3) 1.168(4) -0.1439(14)
H5B H 0.339(2) 0.895(3) -0.2175(11)
H6B H 0.475(2) 0.885(3) -0.1267(11)
H7B H 0.158(2) 0.965(3) -0.2733(12)
H8B H -0.323(3) 1.089(4) -0.3922(14)
H9B H -0.225(3) 1.054(4) -0.4682(14)
H10B H 0.080(2) 1.026(3) -0.3652(11)
H11B H 1.223(2) 1.443(4) 0.6441(11)
H12B H 1.332(3) 1.452(4) 0.7362(13)
H13B H 1.473(3) 1.221(4) 0.7699(14)
H14B H 1.477(3) 1.007(4) 0.7052(14)
H15B H 0.992(5) 0.722(8) 0.505(2)
H16B H 0.644(3) 1.120(4) -0.0613(15)
H17B H 0.701(3) 0.988(4) -0.0424(14)
H18B H 0.537(2) 0.688(4) -0.0251(12)
H19B H 0.482(3) 0.694(4) 0.0124(13)
O9 O 0.2253(2) 0.7250(3) 0.19305(10)
O11 O 0.0073(17) 0.490(2) 0.4263(9)
O10? O 0.1747(8) 0.7118(11) 0.1667(4)
loop_
_geom_bond_atom_site_label_1
_geom_bond_atom_site_label_2
_geom_bond_site_symmetry_1
_geom_bond_site_symmetry_2
Co1 N1 1_555 1_555
Co2 N3 1_555 1_555
N1 C1 1_555 1_555
C1 C2 1_555 1_555
C2 C3 1_555 1_555
C3 C4 1_555 1_555
C4 C5 1_555 1_555
C5 N1 1_555 1_555
N2 C3 1_555 1_555
C6 N2 1_555 1_555
O1 C6 1_555 1_555
C7 C6 1_555 1_555
C8 C7 1_555 1_555
H1 C8 1_555 1_555
C9 C8 1_555 1_555
C10 C9 1_555 1_555
N3 C10 1_555 1_555
C11 C7 1_555 1_555
O2 Co2 1_555 1_555
C12 O2 1_555 1_555
O3 C12 1_555 1_555
C13 C12 1_555 1_555
C14 C13 1_555 1_555
C15 C14 1_555 1_555
C16 C15 1_555 1_555
C17 C16 1_555 1_555
C18 C13 1_555 1_555
C19 C18 1_555 1_555
O4 C19 1_555 1_555
O5 C19 1_555 1_555
O6 Co2 1_555 1_555
H2 O6 1_555 1_555
O7 Co1 1_555 1_555
O8 Co1 1_555 1_555
H3 C1 1_555 1_555
H4 C2 1_555 1_555
H5 C4 1_555 1_555
H6 C5 1_555 1_555
H7 N2 1_555 1_555
H8 C9 1_555 1_555
H9 C10 1_555 1_555
H10 C11 1_555 1_555
H11 C14 1_555 1_555
H12 C15 1_555 1_555
H13 C16 1_555 1_555
H14 C17 1_555 1_555
H15 O6 1_555 1_555
H16 O7 1_555 1_555
H17 O7 1_555 1_555
H18 O8 1_555 1_555
H19 O8 1_555 1_555
Co2_2 N3B_2 1_555 1_555
N1B Co1 1_555 1_555
C1B N1B 1_555 1_555
C2B C1B 1_555 1_555
C3B C2B 1_555 1_555
C4B C3B 1_555 1_555
C5B N1B 1_555 1_555
N2B C3B 1_555 1_555
C6B N2B 1_555 1_555
O1B C6B 1_555 1_555
C7B C6B 1_555 1_555
C8B C7B 1_555 1_555
H1B C8B 1_555 1_555
C9B C8B 1_555 1_555
C10B C9B 1_555 1_555
N3B Co2 1_555 1_555
N3B_2 C10B 1_555 1_555
C11B C7B 1_555 1_555
O2B Co2 1_555 1_555
C12B O2B 1_555 1_555
O3B C12B 1_555 1_555
C13B C12B 1_555 1_555
C14B C13B 1_555 1_555
C15B C14B 1_555 1_555
C16B C15B 1_555 1_555
C17B C16B 1_555 1_555
C18B C13B 1_555 1_555
C19B C18B 1_555 1_555
O4B C19B 1_555 1_555
O5B C19B 1_555 1_555
O6B Co2 1_555 1_555
H2B O6B 1_555 1_555
O7B Co1 1_555 1_555
O8B Co1 1_555 1_555
H3B C1B 1_555 1_555
H4B C2B 1_555 1_555
H5B C4B 1_555 1_555
H6B C5B 1_555 1_555
H7B N2B 1_555 1_555
H8B C9B 1_555 1_555
H9B C10B 1_555 1_555
H10B C11B 1_555 1_555
H11B C14B 1_555 1_555
H12B C15B 1_555 1_555
H13B C16B 1_555 1_555
H14B C17B 1_555 1_555
H15B O6B 1_555 1_555
H16B O7B 1_555 1_555
H17B O7B 1_555 1_555
H18B O8B 1_555 1_555
H19B O8B 1_555 1_555
N3 C11 1_555 1_555
C17 C18 1_555 1_555
C4B C5B 1_555 1_555
N3B_2 C11B 1_555 1_555
C17B C18B 1_555 1_555

#END
