
#######################################################################
#
#                 Cambridge Crystallographic Data Centre
#                                CCDC 
#
#######################################################################
#
# If this CIF has been generated from an entry in the Cambridge 
# Structural Database, then it will include bibliographic, chemical, 
# crystal, experimental, refinement or atomic coordinate data resulting 
# from the CCDC's data processing and validation procedures.
#
#######################################################################

data_DEPWEB
_symmetry_cell_setting           monoclinic
_symmetry_space_group_name_H-M   'P 21/c'
_symmetry_Int_Tables_number      14
_space_group_name_Hall           '-P 2ybc'
loop_
_symmetry_equiv_pos_site_id
_symmetry_equiv_pos_as_xyz
1 x,y,z
2 -x,1/2+y,1/2-z
3 -x,-y,-z
4 x,1/2-y,1/2+z
_cell_length_a                   7.7417(19)
_cell_length_b                   11.895(3)
_cell_length_c                   10.086(3)
_cell_angle_alpha                90
_cell_angle_beta                 101.774(6)
_cell_angle_gamma                90
_cell_volume                     909.253
loop_
_atom_site_label
_atom_site_type_symbol
_atom_site_fract_x
_atom_site_fract_y
_atom_site_fract_z
Mn1 Mn 0.5000 0.5000 0.0000
O1 O 0.61202(15) 0.48856(9) -0.18335(12)
O2 O 0.23835(14) 0.54141(10) -0.11733(11)
N1 N -0.33013(14) -0.15277(9) -0.00509(11)
N2 N -0.43028(15) -0.14080(9) 0.09093(12)
N3 N -0.43715(14) -0.31909(9) 0.01794(11)
C1 C -0.49195(18) -0.24310(11) 0.10061(14)
H1 H -0.5680 -0.2619 0.1602
C2 C -0.33515(18) -0.25870(11) -0.04628(13)
H2 H -0.2747 -0.2873 -0.1121
C3 C -0.23583(18) -0.05721(11) -0.04900(15)
H3 H -0.2960 0.0133 -0.0326
H4 H -0.2410 -0.0633 -0.1476
C4 C -0.04481(17) -0.05139(11) 0.02386(14)
H5 H 0.0174 -0.1206 0.0055
H6 H -0.0383 -0.0464 0.1227
H7 H 0.153(3) 0.4971(18) -0.132(2)
H8 H 0.209(3) 0.603(2) -0.142(2)
H9 H 0.711(3) 0.4569(18) -0.180(2)
H10 H 0.593(3) 0.5255(19) -0.252(2)
Mn1_2 Mn -0.5000 -0.5000 0.0000
O1B O 0.38798(15) 0.51144(9) 0.18335(12)
O2B O 0.76165(14) 0.45859(10) 0.11733(11)
N1B N 0.33013(14) 0.15277(9) 0.00509(11)
N2B N 0.43028(15) 0.14080(9) -0.09093(12)
N3B N 0.43715(14) 0.31909(9) -0.01794(11)
N3_2 N 0.56285(14) 0.68091(9) 0.01794(11)
C1B C 0.49195(18) 0.24310(11) -0.10061(14)
H1B H 0.5680 0.2619 -0.1602
C2B C 0.33515(18) 0.25870(11) 0.04628(13)
H2B H 0.2747 0.2873 0.1121
C3B C 0.23583(18) 0.05721(11) 0.04900(15)
H3B H 0.2960 -0.0133 0.0326
H4B H 0.2410 0.0633 0.1476
C4B C 0.04481(17) 0.05139(11) -0.02386(14)
H5B H -0.0174 0.1206 -0.0055
H6B H 0.0383 0.0464 -0.1227
H7B H 0.847(3) 0.5029(18) 0.132(2)
H8B H 0.791(3) 0.397(2) 0.142(2)
H9B H 0.289(3) 0.5431(18) 0.180(2)
H10B H 0.407(3) 0.4745(19) 0.252(2)
O3 O -0.79490(14) -0.26362(10) 0.29061(14)
O4 O -0.94135(14) -0.39692(9) 0.17373(12)
O5 O -1.07942(14) -0.25925(10) 0.24690(11)
N4 N -0.93983(15) -0.30545(10) 0.23779(12)
loop_
_geom_bond_atom_site_label_1
_geom_bond_atom_site_label_2
_geom_bond_site_symmetry_1
_geom_bond_site_symmetry_2
Mn1 O1 1_555 1_555
O1 H9 1_555 1_555
O2 Mn1 1_555 1_555
O3 N4 1_555 1_555
O4 N4 1_555 1_555
O5 N4 1_555 1_555
N1 N2 1_555 1_555
N2 C1 1_555 1_555
N3 C1 1_555 1_555
C1 H1 1_555 1_555
C2 N1 1_555 1_555
H2 C2 1_555 1_555
C3 N1 1_555 1_555
H3 C3 1_555 1_555
H4 C3 1_555 1_555
C4 C3 1_555 1_555
H5 C4 1_555 1_555
H6 C4 1_555 1_555
H7 O2 1_555 1_555
H8 O2 1_555 1_555
H10 O1 1_555 1_555
Mn1_2 N3 1_555 1_555
O1B Mn1 1_555 1_555
O2B Mn1 1_555 1_555
N1B N2B 1_555 1_555
N2B C1B 1_555 1_555
N3B Mn1 1_555 1_555
N3_2 Mn1 1_555 1_555
C1B N3B 1_555 1_555
H1B C1B 1_555 1_555
C2B N1B 1_555 1_555
H2B C2B 1_555 1_555
C3B N1B 1_555 1_555
H3B C3B 1_555 1_555
H4B C3B 1_555 1_555
C4B C4 1_555 1_555
H5B C4B 1_555 1_555
H6B C4B 1_555 1_555
H7B O2B 1_555 1_555
H8B O2B 1_555 1_555
H9B O1B 1_555 1_555
H10B O1B 1_555 1_555
N3 C2 1_555 1_555
N3B C2B 1_555 1_555
C3B C4B 1_555 1_555

#END
