
#######################################################################
#
#                 Cambridge Crystallographic Data Centre
#                                CCDC 
#
#######################################################################
#
# If this CIF has been generated from an entry in the Cambridge 
# Structural Database, then it will include bibliographic, chemical, 
# crystal, experimental, refinement or atomic coordinate data resulting 
# from the CCDC's data processing and validation procedures.
#
#######################################################################

data_DEPWAX
_symmetry_cell_setting           monoclinic
_symmetry_space_group_name_H-M   'P 21/c'
_symmetry_Int_Tables_number      14
_space_group_name_Hall           '-P 2ybc'
loop_
_symmetry_equiv_pos_site_id
_symmetry_equiv_pos_as_xyz
1 x,y,z
2 -x,1/2+y,1/2-z
3 -x,-y,-z
4 x,1/2-y,1/2+z
_cell_length_a                   6.4149(11)
_cell_length_b                   17.333(4)
_cell_length_c                   8.6356(17)
_cell_angle_alpha                90.00
_cell_angle_beta                 98.170(18)
_cell_angle_gamma                90.00
_cell_volume                     950.443
loop_
_atom_site_label
_atom_site_type_symbol
_atom_site_fract_x
_atom_site_fract_y
_atom_site_fract_z
Br1 Br -0.4589(2) 0.47920(5) 0.21869(12)
Br2 Br -0.0127(2) 0.39479(6) -0.04352(14)
Cu1 Cu -0.2209(2) 0.36541(6) 0.22578(14)
Cu2 Cu -0.2443(3) 0.50186(8) -0.00046(19)
N1 N 0.3806(15) 0.2784(4) 0.4512(8)
N2 N 0.6180(16) 0.2181(4) 0.6120(9)
C1 C 0.4693(18) 0.2109(5) 0.4941(11)
H1 H 0.4296 0.1642 0.4456
C2 C 0.4819(19) 0.3329(5) 0.5478(11)
H2 H 0.4560 0.3857 0.5457
C3 C 0.6241(19) 0.2954(5) 0.6448(10)
H3 H 0.7160 0.3184 0.7246
C4 C 0.2032(18) 0.2935(5) 0.3268(10)
H4 H 0.2468 0.3295 0.2516
H5 H 0.1610 0.2458 0.2725
C5 C 0.020(2) 0.3265(5) 0.3956(11)
H6 H -0.0772 0.2929 0.4292
C6 C -0.008(2) 0.4044(6) 0.4104(13)
H7 H 0.0879 0.4388 0.3773
H8 H -0.1232 0.4229 0.4535
Br1B Br -0.5411(2) 0.52080(5) -0.21869(12)
Br2B Br 0.0127(2) 0.60521(6) 0.04352(14)
Cu1C Cu 0.7791(2) 0.13459(6) 0.72578(14)
Cu2B Cu -0.7557(3) 0.49814(8) 0.00046(19)
Cu2B_2 Cu 0.2443(3) 0.49814(8) 0.00046(19)
N2C N -0.3820(16) 0.2819(4) 0.1120(9)
loop_
_geom_bond_atom_site_label_1
_geom_bond_atom_site_label_2
_geom_bond_site_symmetry_1
_geom_bond_site_symmetry_2
Br1 Cu1 1_555 1_555
Br2 Cu1 1_555 1_555
Cu1 C5 1_555 1_555
Cu2 Br1 1_555 1_555
N1 C1 1_555 1_555
N2 C1 1_555 1_555
C1 H1 1_555 1_555
C2 N1 1_555 1_555
H2 C2 1_555 1_555
C3 N2 1_555 1_555
H3 C3 1_555 1_555
C4 N1 1_555 1_555
H4 C4 1_555 1_555
H5 C4 1_555 1_555
C5 C4 1_555 1_555
H6 C5 1_555 1_555
C6 Cu1 1_555 1_555
H7 C6 1_555 1_555
H8 C6 1_555 1_555
Br1B Cu2 1_555 1_555
Br2B Cu2 1_555 1_555
Cu1C N2 1_555 1_555
Cu2B Br1 1_555 1_555
Cu2B_2 Br2 1_555 1_555
N2C Cu1 1_555 1_555
Br2 Cu2 1_555 1_555
C2 C3 1_555 1_555
C5 C6 1_555 1_555
Br1B Cu2B 1_555 1_555
Br2B Cu2B_2 1_555 1_555

#END
