
#######################################################################
#
#                 Cambridge Crystallographic Data Centre
#                                CCDC 
#
#######################################################################
#
# If this CIF has been generated from an entry in the Cambridge 
# Structural Database, then it will include bibliographic, chemical, 
# crystal, experimental, refinement or atomic coordinate data resulting 
# from the CCDC's data processing and validation procedures.
#
#######################################################################

data_DEQPIZ
_symmetry_cell_setting           triclinic
_symmetry_space_group_name_H-M   'P -1'
_symmetry_Int_Tables_number      2
_space_group_name_Hall           '-P 1'
loop_
_symmetry_equiv_pos_site_id
_symmetry_equiv_pos_as_xyz
1 x,y,z
2 -x,-y,-z
_cell_length_a                   9.0739(2)
_cell_length_b                   12.0061(3)
_cell_length_c                   17.3606(4)
_cell_angle_alpha                93.971(14)
_cell_angle_beta                 91.261(13)
_cell_angle_gamma                99.875(8)
_cell_volume                     1857.7
loop_
_atom_site_label
_atom_site_type_symbol
_atom_site_fract_x
_atom_site_fract_y
_atom_site_fract_z
Au1 Au 0.42532(4) 0.45770(3) 0.353919(18)
Ag1 Ag 0.26636(8) 0.53509(6) 0.61734(4)
Ag2 Ag 0.89340(8) 0.36670(6) 0.25606(4)
Ag3 Ag 0.28793(7) 0.49984(6) 0.21454(4)
Ag4 Ag 0.41291(10) 0.41393(6) 0.07275(4)
C1 C 0.5496(9) 0.4784(6) 0.2573(5)
C2 C 0.6307(8) 0.5866(7) 0.2419(4)
C3 C 0.7352(9) 0.5951(8) 0.1833(4)
H1 H 0.7876 0.6679 0.1732
C4 C 0.7643(10) 0.5012(7) 0.1397(5)
C5 C 0.6835(9) 0.3958(8) 0.1545(5)
H2 H 0.7017 0.3305 0.1246
C6 C 0.5764(8) 0.3821(7) 0.2117(4)
C7 C 0.6079(11) 0.6945(8) 0.2867(5)
H3 H 0.7048 0.7367 0.3067
H4 H 0.5427 0.6757 0.3299
H5 H 0.5612 0.7412 0.2526
C8 C 0.8791(12) 0.5132(11) 0.0763(6)
H6 H 0.8412 0.5509 0.0337
H7 H 0.8963 0.4378 0.0573
H8 H 0.9734 0.5584 0.0973
C9 C 0.4946(12) 0.2639(7) 0.2241(5)
H9 H 0.5339 0.2083 0.19
H10 H 0.3874 0.2593 0.2125
H11 H 0.5095 0.2477 0.278
S1 S 0.2987(2) 0.42083(19) 0.46833(12)
C10 C 0.1154(10) 0.3430(10) 0.4331(6)
H12 H 0.0409 0.3428 0.4739
H13 H 0.0791 0.3771 0.3876
C11 C 0.1425(18) 0.2248(13) 0.4117(13)
H14 H 0.0559 0.1702 0.4275
H15 H 0.1472 0.2145 0.3547
C12 C 0.2737(17) 0.1983(11) 0.4448(10)
H16 H 0.3384 0.1773 0.4029
H17 H 0.2465 0.1313 0.4752
C13 C 0.3607(12) 0.2928(8) 0.4961(5)
H18 H 0.4694 0.2976 0.4887
H19 H 0.3403 0.2811 0.551
O1 O 0.3114(8) 0.7116(5) 0.5819(4)
O2 O 0.1866(8) 0.7852(5) 0.6784(4)
C14 C 0.2633(10) 0.7875(8) 0.6190(6)
C15 C 0.3028(12) 0.9065(8) 0.5887(6)
C16 C 0.3877(15) 0.9963(9) 0.6466(6)
F1 F 0.3903(9) 0.9055(5) 0.5272(4)
F2 F 0.1797(8) 0.9443(7) 0.5648(6)
F3 F 0.4356(9) 1.0923(5) 0.6143(4)
F4 F 0.5020(10) 0.9595(7) 0.6767(5)
F5 F 0.2990(13) 1.0191(6) 0.7030(5)
O3 O -0.0584(7) 0.4644(5) 0.7140(3)
O4 O 0.0786(7) 0.3915(5) 0.6243(4)
C17 C -0.0306(10) 0.3898(7) 0.6661(5)
C18 C -0.1463(10) 0.2800(8) 0.6537(5)
C19 C -0.0898(16) 0.1756(10) 0.6698(12)
F6 F -0.1947(12) 0.2670(8) 0.5811(4)
F7 F -0.2645(7) 0.2831(6) 0.6957(5)
F8 F -0.1974(9) 0.0848(6) 0.6669(6)
F9 F 0.0102(12) 0.1528(8) 0.6213(13)
F10 F -0.0256(16) 0.1876(9) 0.7366(11)
O5 O 0.3042(9) 0.6469(6) 0.1366(4)
O6 O 0.4566(7) 0.5973(5) 0.0467(3)
C20 C 0.3859(11) 0.6650(8) 0.0823(5)
C21 C 0.4028(13) 0.7861(8) 0.0549(5)
C22 C 0.4847(17) 0.8764(9) 0.1108(6)
F11 F 0.4721(9) 0.7928(5) -0.0132(3)
F12 F 0.2653(9) 0.8119(6) 0.0418(5)
F13 F 0.5024(12) 0.9771(6) 0.0820(4)
F14 F 0.4128(12) 0.8844(6) 0.1764(4)
F15 F 0.6182(10) 0.8519(7) 0.1271(5)
O7 O 1.1028(7) 0.3394(5) 0.1785(4)
O8 O 1.2281(8) 0.2716(6) 0.0817(4)
C23 C 1.1231(10) 0.2678(8) 0.1255(5)
C24 C 1.0059(11) 0.1577(8) 0.1144(6)
C25 C 1.0508(14) 0.0615(9) 0.1544(9)
F16 F 0.8723(7) 0.1754(5) 0.1409(4)
F17 F 0.9841(8) 0.1240(6) 0.0390(4)
F18 F 1.1725(10) 0.0330(7) 0.1277(7)
F19 F 0.9460(10) -0.0302(6) 0.1468(6)
F20 F 1.0727(13) 0.0914(8) 0.2293(5)
Au1A Au 0.57468(4) 0.54230(3) 0.646081(18)
Ag1A Ag 0.73364(8) 0.46491(6) 0.38266(4)
Ag2A Ag 0.10660(8) 0.63330(6) 0.74394(4)
Ag3A Ag -0.28793(7) 0.50016(6) 0.78546(4)
Ag3_2 Ag 1.28793(7) 0.49984(6) 0.21454(4)
Ag4A Ag 0.58709(10) 0.58607(6) -0.07275(4)
Ag4_2 Ag 1.41291(10) 0.41393(6) 0.07275(4)
O2A O 0.8134(8) 0.2148(5) 0.3216(4)
O3A O 1.0584(7) 0.5356(5) 0.2860(3)
O3A_2 O 0.0584(7) 0.5356(5) 0.2860(3)
O6A O 0.5434(7) 0.4027(5) -0.0467(3)
O7_2 O 0.1028(7) 0.3394(5) 0.1785(4)
O8_2 O 0.2281(8) 0.2716(6) 0.0817(4)
loop_
_geom_bond_atom_site_label_1
_geom_bond_atom_site_label_2
_geom_bond_site_symmetry_1
_geom_bond_site_symmetry_2
Au1 Ag3 1_555 1_555
Ag1 S1 1_555 1_555
Ag2 C5 1_555 1_555
Ag3 Ag4 1_555 1_555
Ag4 O6 1_555 1_555
C1 Au1 1_555 1_555
C2 C1 1_555 1_555
C3 C2 1_555 1_555
H1 C3 1_555 1_555
C4 C3 1_555 1_555
C5 C4 1_555 1_555
H2 C5 1_555 1_555
C6 C1 1_555 1_555
C7 C2 1_555 1_555
H3 C7 1_555 1_555
H4 C7 1_555 1_555
H5 C7 1_555 1_555
C8 C4 1_555 1_555
H6 C8 1_555 1_555
H7 C8 1_555 1_555
H8 C8 1_555 1_555
C9 C6 1_555 1_555
H9 C9 1_555 1_555
H10 C9 1_555 1_555
H11 C9 1_555 1_555
S1 Au1 1_555 1_555
C10 S1 1_555 1_555
H12 C10 1_555 1_555
H13 C10 1_555 1_555
C11 C10 1_555 1_555
H14 C11 1_555 1_555
H15 C11 1_555 1_555
C12 C11 1_555 1_555
H16 C12 1_555 1_555
H17 C12 1_555 1_555
C13 S1 1_555 1_555
H18 C13 1_555 1_555
H19 C13 1_555 1_555
O1 Ag1 1_555 1_555
O2 C14 1_555 1_555
C14 O1 1_555 1_555
C15 C14 1_555 1_555
C16 C15 1_555 1_555
F1 C15 1_555 1_555
F2 C15 1_555 1_555
F3 C16 1_555 1_555
F4 C16 1_555 1_555
F5 C16 1_555 1_555
O3 C17 1_555 1_555
O4 Ag1 1_555 1_555
C17 O4 1_555 1_555
C18 C17 1_555 1_555
C19 C18 1_555 1_555
F6 C18 1_555 1_555
F7 C18 1_555 1_555
F8 C19 1_555 1_555
F9 C19 1_555 1_555
F10 C19 1_555 1_555
O5 Ag3 1_555 1_555
O6 C20 1_555 1_555
C20 O5 1_555 1_555
C21 C20 1_555 1_555
C22 C21 1_555 1_555
F11 C21 1_555 1_555
F12 C21 1_555 1_555
F13 C22 1_555 1_555
F14 C22 1_555 1_555
F15 C22 1_555 1_555
O7 Ag2 1_555 1_555
O8 C23 1_555 1_555
C23 O7 1_555 1_555
C24 C23 1_555 1_555
C25 C24 1_555 1_555
F16 C24 1_555 1_555
F17 C24 1_555 1_555
F18 C25 1_555 1_555
F19 C25 1_555 1_555
F20 C25 1_555 1_555
Au1A Ag1 1_555 1_555
Ag1A Au1 1_555 1_555
Ag2A Ag1 1_555 1_555
Ag3A O3 1_555 1_555
Ag3_2 O7 1_555 1_555
Ag4A O6 1_555 1_555
Ag4_2 O8 1_555 1_555
O2A Ag2 1_555 1_555
O3A Ag2 1_555 1_555
O3A_2 Ag3 1_555 1_555
O6A Ag4 1_555 1_555
O7_2 Ag3 1_555 1_555
O8_2 Ag4 1_555 1_555
Ag2 Ag1A 1_555 1_555
Ag3 C1 1_555 1_555
C5 C6 1_555 1_555
C12 C13 1_555 1_555
O2 Ag2A 1_555 1_555
O3 Ag2A 1_555 1_555
Ag3_2 Ag4_2 1_555 1_555
Ag3_2 O3A 1_555 1_555
Ag4A O6A 1_555 1_555

#END
