
#######################################################################
#
#                 Cambridge Crystallographic Data Centre
#                                CCDC 
#
#######################################################################
#
# If this CIF has been generated from an entry in the Cambridge 
# Structural Database, then it will include bibliographic, chemical, 
# crystal, experimental, refinement or atomic coordinate data resulting 
# from the CCDC's data processing and validation procedures.
#
#######################################################################

data_DEQVEB
_symmetry_cell_setting           triclinic
_symmetry_space_group_name_H-M   'P -1'
_symmetry_Int_Tables_number      2
_space_group_name_Hall           '-P 1'
loop_
_symmetry_equiv_pos_site_id
_symmetry_equiv_pos_as_xyz
1 x,y,z
2 -x,-y,-z
_cell_length_a                   6.8826(18)
_cell_length_b                   11.202(3)
_cell_length_c                   12.295(3)
_cell_angle_alpha                86.854(4)
_cell_angle_beta                 85.759(5)
_cell_angle_gamma                72.629(4)
_cell_volume                     901.684
loop_
_atom_site_label
_atom_site_type_symbol
_atom_site_fract_x
_atom_site_fract_y
_atom_site_fract_z
O1 O 0.4055(4) 0.7067(2) 0.9308(2)
Zn1 Zn 0.45058(4) 0.81878(2) 0.79102(2)
O2 O 0.2898(3) -0.02399(17) 0.72738(14)
O3 O 0.1025(3) 0.50932(19) 0.88132(15)
O4 O 0.0555(3) 0.20439(17) 0.65482(16)
N1 N 0.6404(3) 0.89124(19) 0.87546(17)
N2 N 0.6586(3) 0.7008(2) 0.68774(17)
C1 C 0.9230(3) 0.9781(2) 0.97413(18)
C2 C 0.9293(3) 0.5420(2) 0.53922(18)
O5 O 0.2310(3) 0.7055(2) 0.79207(19)
C3 C 0.0954(4) 0.3541(2) 0.76557(19)
H1 H -0.0436 0.3730 0.7843
C4 C 0.8439(5) 0.8887(3) 1.0237(2)
H2 H 0.8846 0.8551 1.0921
C5 C 0.2099(4) 0.4192(2) 0.8113(2)
C6 C 0.1857(4) 0.2616(2) 0.6924(2)
C7 C 0.2864(4) 0.6654(3) 0.8842(2)
C8 C 0.9894(4) 0.6187(3) 0.6040(2)
H3 H 1.1248 0.6191 0.5987
C9 C 0.2541(4) -0.0186(3) 0.6267(2)
C10 C 0.8538(5) 1.0240(3) 0.8732(2)
H4 H 0.9021 1.0849 0.8359
C11 C 0.7046(5) 0.8482(3) 0.9729(2)
H5 H 0.6532 0.7878 1.0087
C12 C 0.7263(4) 0.5469(3) 0.5531(3)
H6 H 0.6762 0.4962 0.5125
C13 C 0.4173(4) 0.3907(3) 0.7840(2)
H7 H 0.4964 0.4324 0.8154
C14 C 0.2111(5) 0.5657(3) 0.9451(2)
H8 H 0.3271 0.5013 0.9725
H9 H 0.1234 0.6025 1.0075
C15 C 0.8540(4) 0.6945(3) 0.6762(2)
H10 H 0.9015 0.7441 0.7193
C16 C 0.5037(4) 0.2995(3) 0.7097(3)
H11 H 0.6425 0.2813 0.6904
C17 C 0.5987(4) 0.6255(3) 0.6260(3)
H12 H 0.4626 0.6268 0.6330
C18 C 0.7132(5) 0.9794(3) 0.8279(2)
H13 H 0.6668 1.0129 0.7604
C19 C 0.3921(4) 0.2339(3) 0.6624(2)
H14 H 0.4539 0.1730 0.6120
C20 C 0.1340(5) 0.1074(3) 0.5786(2)
H15 H 0.2214 0.1347 0.5236
H16 H 0.0207 0.0961 0.5422
O6 O 0.3053(5) -0.1055(2) 0.5652(2)
O1_2 O 0.4055(4) 1.7067(2) 0.9308(2)
Zn1_2 Zn 0.45058(4) 1.81878(2) 0.79102(2)
Zn1_3 Zn 0.45058(4) -0.18122(2) 0.79102(2)
Zn1A Zn 1.54942(4) 1.18122(2) 1.20898(2)
Zn1A_2 Zn 1.54942(4) 0.18122(2) 0.20898(2)
O2_2 O 0.2898(3) 0.97601(17) 0.72738(14)
O2_3 O 0.2898(3) 1.97601(17) 0.72738(14)
O3_2 O 0.1025(3) 1.50932(19) 0.88132(15)
O4_2 O 0.0555(3) 1.20439(17) 0.65482(16)
N1A N 1.3596(3) 1.10876(19) 1.12454(17)
N1_2 N 0.6404(3) 1.89124(19) 0.87546(17)
N2A N 1.3414(3) 0.2992(2) 0.31226(17)
N2_2 N 0.6586(3) 1.7008(2) 0.68774(17)
C1A C 1.0770(3) 1.0219(2) 1.02587(18)
C2A C 1.0707(3) 0.4580(2) 0.46078(18)
O5_2 O 0.2310(3) 1.7055(2) 0.79207(19)
C3_2 C 0.0954(4) 1.3541(2) 0.76557(19)
H1_2 H -0.0436 1.3730 0.7843
C4A C 1.1561(5) 1.1113(3) 0.9763(2)
H2A H 1.1154 1.1449 0.9079
C5_2 C 0.2099(4) 1.4192(2) 0.8113(2)
C6_2 C 0.1857(4) 1.2616(2) 0.6924(2)
C7_2 C 0.2864(4) 1.6654(3) 0.8842(2)
C8A C 1.0106(4) 0.3813(3) 0.3960(2)
H3A H 0.8752 0.3809 0.4013
C9_2 C 0.2541(4) 0.9814(3) 0.6267(2)
C10A C 1.1462(5) 0.9760(3) 1.1268(2)
H4A H 1.0979 0.9151 1.1641
C11A C 1.2954(5) 1.1518(3) 1.0271(2)
H5A H 1.3468 1.2122 0.9913
C12A C 1.2737(4) 0.4531(3) 0.4469(3)
H6A H 1.3238 0.5038 0.4875
C13_2 C 0.4173(4) 1.3907(3) 0.7840(2)
H7_2 H 0.4964 1.4324 0.8154
C14_2 C 0.2111(5) 1.5657(3) 0.9451(2)
H8_2 H 0.3271 1.5013 0.9725
H9_2 H 0.1234 1.6025 1.0075
C15A C 1.1460(4) 0.3055(3) 0.3238(2)
H10A H 1.0985 0.2559 0.2807
C16_2 C 0.5037(4) 1.2995(3) 0.7097(3)
H11_2 H 0.6425 1.2813 0.6904
C17A C 1.4013(4) 0.3745(3) 0.3740(3)
H12A H 1.5374 0.3732 0.3670
C18A C 1.2868(5) 1.0206(3) 1.1721(2)
H13A H 1.3332 0.9871 1.2396
C19_2 C 0.3921(4) 1.2339(3) 0.6624(2)
H14_2 H 0.4539 1.1730 0.6120
C20_2 C 0.1340(5) 1.1074(3) 0.5786(2)
H15_2 H 0.2214 1.1347 0.5236
H16_2 H 0.0207 1.0961 0.5422
O6_2 O 0.3053(5) 0.8945(2) 0.5652(2)
loop_
_geom_bond_atom_site_label_1
_geom_bond_atom_site_label_2
_geom_bond_site_symmetry_1
_geom_bond_site_symmetry_2
O1 Zn1 1_555 1_555
Zn1 N1 1_555 1_555
O2 C9 1_555 1_555
O3 C5 1_555 1_555
O4 C6 1_555 1_555
N1 C11 1_555 1_555
N2 Zn1 1_555 1_555
C1 C4 1_555 1_555
C2 C8 1_555 1_555
O5 Zn1 1_555 1_555
C3 H1 1_555 1_555
C4 H2 1_555 1_555
C5 C3 1_555 1_555
C6 C3 1_555 1_555
C7 O1 1_555 1_555
C8 H3 1_555 1_555
C9 C20 1_555 1_555
C10 C1 1_555 1_555
H4 C10 1_555 1_555
C11 C4 1_555 1_555
H5 C11 1_555 1_555
C12 C2 1_555 1_555
H6 C12 1_555 1_555
C13 C5 1_555 1_555
H7 C13 1_555 1_555
C14 O3 1_555 1_555
H8 C14 1_555 1_555
H9 C14 1_555 1_555
C15 N2 1_555 1_555
H10 C15 1_555 1_555
C16 C13 1_555 1_555
H11 C16 1_555 1_555
C17 N2 1_555 1_555
H12 C17 1_555 1_555
C18 N1 1_555 1_555
H13 C18 1_555 1_555
C19 C6 1_555 1_555
H14 C19 1_555 1_555
C20 O4 1_555 1_555
H15 C20 1_555 1_555
H16 C20 1_555 1_555
O6 C9 1_555 1_555
O1_2 Zn1_2 1_555 1_555
Zn1_2 O2_3 1_555 1_555
Zn1_3 O2 1_555 1_555
Zn1A N1A 1_555 1_555
Zn1A_2 N2A 1_555 1_555
O2_2 Zn1 1_555 1_555
O3_2 C5_2 1_555 1_555
O4_2 C6_2 1_555 1_555
N1A C11A 1_555 1_555
N1_2 Zn1_2 1_555 1_555
N2A C15A 1_555 1_555
N2_2 Zn1_2 1_555 1_555
C1A C1 1_555 1_555
C2A C2 1_555 1_555
O5_2 Zn1_2 1_555 1_555
C3_2 H1_2 1_555 1_555
C4A C1A 1_555 1_555
H2A C4A 1_555 1_555
C5_2 C3_2 1_555 1_555
C6_2 C3_2 1_555 1_555
C7_2 O1_2 1_555 1_555
C8A C2A 1_555 1_555
H3A C8A 1_555 1_555
C9_2 O2_2 1_555 1_555
C10A C1A 1_555 1_555
H4A C10A 1_555 1_555
C11A C4A 1_555 1_555
H5A C11A 1_555 1_555
C12A C2A 1_555 1_555
H6A C12A 1_555 1_555
C13_2 C5_2 1_555 1_555
H7_2 C13_2 1_555 1_555
C14_2 O3_2 1_555 1_555
H8_2 C14_2 1_555 1_555
H9_2 C14_2 1_555 1_555
C15A C8A 1_555 1_555
H10A C15A 1_555 1_555
C16_2 C13_2 1_555 1_555
H11_2 C16_2 1_555 1_555
C17A N2A 1_555 1_555
H12A C17A 1_555 1_555
C18A N1A 1_555 1_555
H13A C18A 1_555 1_555
C19_2 C6_2 1_555 1_555
H14_2 C19_2 1_555 1_555
C20_2 O4_2 1_555 1_555
H15_2 C20_2 1_555 1_555
H16_2 C20_2 1_555 1_555
O6_2 C9_2 1_555 1_555
O5 C7 1_555 1_555
C7 C14 1_555 1_555
C8 C15 1_555 1_555
C10 C18 1_555 1_555
C12 C17 1_555 1_555
C16 C19 1_555 1_555
O5_2 C7_2 1_555 1_555
C7_2 C14_2 1_555 1_555
C9_2 C20_2 1_555 1_555
C10A C18A 1_555 1_555
C12A C17A 1_555 1_555
C16_2 C19_2 1_555 1_555

#END
