
#######################################################################
#
#                 Cambridge Crystallographic Data Centre
#                                CCDC 
#
#######################################################################
#
# If this CIF has been generated from an entry in the Cambridge 
# Structural Database, then it will include bibliographic, chemical, 
# crystal, experimental, refinement or atomic coordinate data resulting 
# from the CCDC's data processing and validation procedures.
#
#######################################################################

data_DERYIJ
_symmetry_cell_setting           monoclinic
_symmetry_space_group_name_H-M   'C 2'
_symmetry_Int_Tables_number      5
_space_group_name_Hall           'C 2y'
loop_
_symmetry_equiv_pos_site_id
_symmetry_equiv_pos_as_xyz
1 x,y,z
2 -x,y,-z
3 1/2+x,1/2+y,z
4 1/2-x,1/2+y,-z
_cell_length_a                   32.739(2)
_cell_length_b                   11.3308(8)
_cell_length_c                   11.9635(9)
_cell_angle_alpha                90
_cell_angle_beta                 109.297(2)
_cell_angle_gamma                90
_cell_volume                     4188.64
loop_
_atom_site_label
_atom_site_type_symbol
_atom_site_fract_x
_atom_site_fract_y
_atom_site_fract_z
Ni1 Ni 0.0000 -0.05582(5) -0.5000
S1 S 0.04419(3) -0.06210(11) -0.29225(9)
S2 S 0.07460(3) -0.06511(11) -0.49637(9)
O1 O 0.12583(11) -0.1014(4) -0.2848(3)
N1 N 0.0000 -0.2432(5) -0.5000
N2 N 0.0000 -0.8703(5) -0.5000
C1 C 0.08526(14) -0.0785(4) -0.3478(4)
C2 C 0.13753(14) -0.1497(5) -0.1670(4)
H1 H 0.1124 -0.1491 -0.1386
C3 C 0.15454(15) -0.2760(5) -0.1671(4)
C4 C 0.18946(16) -0.2733(6) -0.2253(5)
H2 H 0.1983 -0.3535 -0.2379
H3 H 0.1791 -0.2324 -0.3017
C5 C 0.22774(17) -0.2049(5) -0.1361(5)
H4 H 0.2538 -0.2540 -0.1083
H5 H 0.2344 -0.1325 -0.1714
C6 C 0.20980(16) -0.1774(5) -0.0356(5)
H6 H 0.2322 -0.1589 0.0411
C7 C 0.17577(16) -0.0818(5) -0.0807(5)
H7 H 0.1860 -0.0193 -0.1215
H8 H 0.1678 -0.0470 -0.0158
C8 C 0.1187(2) -0.3650(6) -0.2212(6)
H9 H 0.1313 -0.4427 -0.2206
H10 H 0.1028 -0.3424 -0.3022
H11 H 0.0992 -0.3668 -0.1755
C9 C 0.18216(16) -0.2898(5) -0.0330(4)
C10 C 0.15686(19) -0.2793(6) 0.0508(5)
H12 H 0.1761 -0.2900 0.1314
H13 H 0.1345 -0.3393 0.0322
H14 H 0.1436 -0.2018 0.0428
C11 C 0.2082(2) -0.4029(6) -0.0028(6)
H15 H 0.2243 -0.4135 -0.0570
H16 H 0.1887 -0.4692 -0.0098
H17 H 0.2281 -0.3984 0.0777
C23 C -0.01073(15) -0.3056(5) -0.4186(4)
H35 H -0.0183 -0.2638 -0.3605
C24 C -0.01138(16) -0.4264(4) -0.4148(4)
H36 H -0.0193 -0.4657 -0.3558
C25 C 0.0000 -0.4902(6) -0.5000
C26 C 0.0000 -0.6225(6) -0.5000
C27 C -0.02289(16) -0.6863(4) -0.4412(4)
H37 H -0.0392 -0.6469 -0.4012
C28 C -0.02141(15) -0.8101(4) -0.4420(4)
H38 H -0.0362 -0.8522 -0.3995
Ni1_2 Ni 0.0000 -1.05582(5) -0.5000
S1A S -0.04419(3) -0.06210(11) -0.70775(9)
S2A S -0.07460(3) -0.06511(11) -0.50363(9)
O1A O -0.12583(11) -0.1014(4) -0.7152(3)
N2_2 N 0.0000 0.1297(5) -0.5000
C1A C -0.08526(14) -0.0785(4) -0.6522(4)
C2A C -0.13753(14) -0.1497(5) -0.8330(4)
H1A H -0.1124 -0.1491 -0.8614
C3A C -0.15454(15) -0.2760(5) -0.8329(4)
C4A C -0.18946(16) -0.2733(6) -0.7747(5)
H2A H -0.1983 -0.3535 -0.7621
H3A H -0.1791 -0.2324 -0.6983
C5A C -0.22774(17) -0.2049(5) -0.8639(5)
H4A H -0.2538 -0.2540 -0.8917
H5A H -0.2344 -0.1325 -0.8286
C6A C -0.20980(16) -0.1774(5) -0.9644(5)
H6A H -0.2322 -0.1589 -1.0411
C7A C -0.17577(16) -0.0818(5) -0.9193(5)
H7A H -0.1860 -0.0193 -0.8785
H8A H -0.1678 -0.0470 -0.9842
C8A C -0.1187(2) -0.3650(6) -0.7788(6)
H9A H -0.1313 -0.4427 -0.7794
H10A H -0.1028 -0.3424 -0.6978
H11A H -0.0992 -0.3668 -0.8245
C9A C -0.18216(16) -0.2898(5) -0.9670(4)
C10A C -0.15686(19) -0.2793(6) -1.0508(5)
H12A H -0.1761 -0.2900 -1.1314
H13A H -0.1345 -0.3393 -1.0322
H14A H -0.1436 -0.2018 -1.0428
C11A C -0.2082(2) -0.4029(6) -0.9972(6)
H15A H -0.2243 -0.4135 -0.9430
H16A H -0.1887 -0.4692 -0.9902
H17A H -0.2281 -0.3984 -1.0777
C23A C 0.01073(15) -0.3056(5) -0.5814(4)
H35A H 0.0183 -0.2638 -0.6395
C24A C 0.01138(16) -0.4264(4) -0.5852(4)
H36A H 0.0193 -0.4657 -0.6442
C27A C 0.02289(16) -0.6863(4) -0.5588(4)
H37A H 0.0392 -0.6469 -0.5988
C28A C 0.02141(15) -0.8101(4) -0.5580(4)
H38A H 0.0362 -0.8522 -0.6005
Ni2 Ni 0.0000 -0.00247(5) 0.0000
S3 S 0.07324(3) 0.00694(11) -0.00683(9)
S4 S 0.04856(3) 0.00182(11) 0.20710(9)
O2 O 0.12867(9) 0.0334(3) 0.1996(3)
N3 N 0.0000 -0.1879(4) 0.0000
N4 N 0.0000 -0.8150(5) 0.0000
C12 C 0.08656(13) 0.0160(4) 0.1410(4)
C13 C 0.14544(13) 0.0455(4) 0.3289(4)
H18 H 0.1323 -0.0150 0.3662
C14 C 0.19461(14) 0.0304(4) 0.3702(4)
C15 C 0.21177(16) 0.1153(6) 0.2980(5)
H19 H 0.1954 0.1080 0.2133
H20 H 0.2424 0.1000 0.3102
C16 C 0.2056(2) 0.2391(6) 0.3443(6)
H21 H 0.2334 0.2800 0.3780
H22 H 0.1862 0.2878 0.2813
C17 C 0.18589(17) 0.2104(5) 0.4380(5)
H23 H 0.1884 0.2742 0.4964
C18 C 0.13843(17) 0.1690(5) 0.3722(5)
H24 H 0.1215 0.1654 0.4261
H25 H 0.1238 0.2212 0.3057
C19 C 0.2089(2) -0.0956(5) 0.3674(7)
H26 H 0.1975 -0.1438 0.4171
H27 H 0.2403 -0.0993 0.3965
H28 H 0.1982 -0.1248 0.2867
C20 C 0.20766(16) 0.0937(5) 0.4919(4)
C21 C 0.1907(2) 0.0376(7) 0.5819(5)
H29 H 0.1595 0.0301 0.5488
H30 H 0.1982 0.0866 0.6523
H31 H 0.2035 -0.0399 0.6025
C22 C 0.25620(17) 0.1038(6) 0.5525(5)
H32 H 0.2621 0.1439 0.6278
H33 H 0.2687 0.1484 0.5026
H34 H 0.2689 0.0255 0.5658
C29 C -0.01979(15) -0.2518(4) 0.0635(4)
H39 H -0.0338 -0.2109 0.1089
C30 C -0.02039(16) -0.3714(4) 0.0648(4)
H40 H -0.0348 -0.4107 0.1102
C31 C 0.0000 -0.4373(6) 0.0000
C32 C 0.0000 -0.5677(6) 0.0000
C33 C -0.00751(16) -0.6329(4) 0.0897(4)
H41 H -0.0127 -0.5936 0.1529
C34 C -0.00747(16) -0.7553(4) 0.0868(4)
H42 H -0.0129 -0.7973 0.1482
Ni2_2 Ni 0.0000 -1.00247(5) 0.0000
S3A S -0.07324(3) 0.00694(11) 0.00683(9)
S4A S -0.04856(3) 0.00182(11) -0.20710(9)
O2A O -0.12867(9) 0.0334(3) -0.1996(3)
N4_2 N 0.0000 0.1850(5) 0.0000
C12A C -0.08656(13) 0.0160(4) -0.1410(4)
C13A C -0.14544(13) 0.0455(4) -0.3289(4)
H18A H -0.1323 -0.0150 -0.3662
C14A C -0.19461(14) 0.0304(4) -0.3702(4)
C15A C -0.21177(16) 0.1153(6) -0.2980(5)
H19A H -0.1954 0.1080 -0.2133
H20A H -0.2424 0.1000 -0.3102
C16A C -0.2056(2) 0.2391(6) -0.3443(6)
H21A H -0.2334 0.2800 -0.3780
H22A H -0.1862 0.2878 -0.2813
C17A C -0.18589(17) 0.2104(5) -0.4380(5)
H23A H -0.1884 0.2742 -0.4964
C18A C -0.13843(17) 0.1690(5) -0.3722(5)
H24A H -0.1215 0.1654 -0.4261
H25A H -0.1238 0.2212 -0.3057
C19A C -0.2089(2) -0.0956(5) -0.3674(7)
H26A H -0.1975 -0.1438 -0.4171
H27A H -0.2403 -0.0993 -0.3965
H28A H -0.1982 -0.1248 -0.2867
C20A C -0.20766(16) 0.0937(5) -0.4919(4)
C21A C -0.1907(2) 0.0376(7) -0.5819(5)
H29A H -0.1595 0.0301 -0.5488
H30A H -0.1982 0.0866 -0.6523
H31A H -0.2035 -0.0399 -0.6025
C22A C -0.25620(17) 0.1038(6) -0.5525(5)
H32A H -0.2621 0.1439 -0.6278
H33A H -0.2687 0.1484 -0.5026
H34A H -0.2689 0.0255 -0.5658
C29A C 0.01979(15) -0.2518(4) -0.0635(4)
H39A H 0.0338 -0.2109 -0.1089
C30A C 0.02039(16) -0.3714(4) -0.0648(4)
H40A H 0.0348 -0.4107 -0.1102
C33A C 0.00751(16) -0.6329(4) -0.0897(4)
H41A H 0.0127 -0.5936 -0.1529
C34A C 0.00747(16) -0.7553(4) -0.0868(4)
H42A H 0.0129 -0.7973 -0.1482
Cl1 Cl -0.09606(7) -0.27674(19) -0.2705(2)
Cl2 Cl -0.13084(9) -0.4363(5) -0.4683(2)
Cl3 Cl -0.09786(9) -0.5241(2) -0.2346(3)
C35 C -0.1254(2) -0.4085(8) -0.3245(7)
H43 H -0.1546 -0.4016 -0.3173
Cl4 Cl -0.37453(9) -0.1757(3) -0.0039(2)
Cl5 Cl -0.41591(6) -0.2085(2) -0.25157(17)
Cl6 Cl -0.32472(7) -0.2504(2) -0.1492(3)
C36 C -0.3756(2) -0.2593(6) -0.1289(7)
H44 H -0.3816 -0.3428 -0.1153
loop_
_geom_bond_atom_site_label_1
_geom_bond_atom_site_label_2
_geom_bond_site_symmetry_1
_geom_bond_site_symmetry_2
Ni1 S1 1_555 1_555
Ni2 S3 1_555 1_555
Cl1 C35 1_555 1_555
Cl2 C35 1_555 1_555
Cl3 C35 1_555 1_555
Cl4 C36 1_555 1_555
Cl5 C36 1_555 1_555
Cl6 C36 1_555 1_555
S1 C1 1_555 1_555
S2 Ni1 1_555 1_555
S3 C12 1_555 1_555
S4 Ni2 1_555 1_555
O1 C1 1_555 1_555
O2 C12 1_555 1_555
N1 Ni1 1_555 1_555
N2 C28 1_555 1_555
N3 Ni2 1_555 1_555
N4 C34 1_555 1_555
C1 S2 1_555 1_555
C2 O1 1_555 1_555
H1 C2 1_555 1_555
C3 C2 1_555 1_555
C4 C3 1_555 1_555
H2 C4 1_555 1_555
H3 C4 1_555 1_555
C5 C4 1_555 1_555
H4 C5 1_555 1_555
H5 C5 1_555 1_555
C6 C5 1_555 1_555
H6 C6 1_555 1_555
C7 C2 1_555 1_555
H7 C7 1_555 1_555
H8 C7 1_555 1_555
C8 C3 1_555 1_555
H9 C8 1_555 1_555
H10 C8 1_555 1_555
H11 C8 1_555 1_555
C9 C3 1_555 1_555
C10 C9 1_555 1_555
H12 C10 1_555 1_555
H13 C10 1_555 1_555
H14 C10 1_555 1_555
C11 C9 1_555 1_555
H15 C11 1_555 1_555
H16 C11 1_555 1_555
H17 C11 1_555 1_555
C12 S4 1_555 1_555
C13 O2 1_555 1_555
H18 C13 1_555 1_555
C14 C13 1_555 1_555
C15 C14 1_555 1_555
H19 C15 1_555 1_555
H20 C15 1_555 1_555
C16 C15 1_555 1_555
H21 C16 1_555 1_555
H22 C16 1_555 1_555
C17 C16 1_555 1_555
H23 C17 1_555 1_555
C18 C13 1_555 1_555
H24 C18 1_555 1_555
H25 C18 1_555 1_555
C19 C14 1_555 1_555
H26 C19 1_555 1_555
H27 C19 1_555 1_555
H28 C19 1_555 1_555
C20 C14 1_555 1_555
C21 C20 1_555 1_555
H29 C21 1_555 1_555
H30 C21 1_555 1_555
H31 C21 1_555 1_555
C22 C20 1_555 1_555
H32 C22 1_555 1_555
H33 C22 1_555 1_555
H34 C22 1_555 1_555
C23 N1 1_555 1_555
H35 C23 1_555 1_555
C24 C23 1_555 1_555
H36 C24 1_555 1_555
C25 C24 1_555 1_555
C26 C25 1_555 1_555
C27 C26 1_555 1_555
H37 C27 1_555 1_555
C28 C27 1_555 1_555
H38 C28 1_555 1_555
C29 N3 1_555 1_555
H39 C29 1_555 1_555
C30 C29 1_555 1_555
H40 C30 1_555 1_555
C31 C30 1_555 1_555
C32 C31 1_555 1_555
C33 C32 1_555 1_555
H41 C33 1_555 1_555
C34 C33 1_555 1_555
H42 C34 1_555 1_555
C35 H43 1_555 1_555
C36 H44 1_555 1_555
Ni1_2 N2 1_555 1_555
Ni2_2 N4 1_555 1_555
S1A Ni1 1_555 1_555
S2A Ni1 1_555 1_555
S3A Ni2 1_555 1_555
S4A Ni2 1_555 1_555
O1A C1A 1_555 1_555
O2A C12A 1_555 1_555
N2_2 Ni1 1_555 1_555
N4_2 Ni2 1_555 1_555
C1A S1A 1_555 1_555
C2A O1A 1_555 1_555
H1A C2A 1_555 1_555
C3A C2A 1_555 1_555
C4A C3A 1_555 1_555
H2A C4A 1_555 1_555
H3A C4A 1_555 1_555
C5A C4A 1_555 1_555
H4A C5A 1_555 1_555
H5A C5A 1_555 1_555
C6A C5A 1_555 1_555
H6A C6A 1_555 1_555
C7A C2A 1_555 1_555
H7A C7A 1_555 1_555
H8A C7A 1_555 1_555
C8A C3A 1_555 1_555
H9A C8A 1_555 1_555
H10A C8A 1_555 1_555
H11A C8A 1_555 1_555
C9A C3A 1_555 1_555
C10A C9A 1_555 1_555
H12A C10A 1_555 1_555
H13A C10A 1_555 1_555
H14A C10A 1_555 1_555
C11A C9A 1_555 1_555
H15A C11A 1_555 1_555
H16A C11A 1_555 1_555
H17A C11A 1_555 1_555
C12A S3A 1_555 1_555
C13A O2A 1_555 1_555
H18A C13A 1_555 1_555
C14A C13A 1_555 1_555
C15A C14A 1_555 1_555
H19A C15A 1_555 1_555
H20A C15A 1_555 1_555
C16A C15A 1_555 1_555
H21A C16A 1_555 1_555
H22A C16A 1_555 1_555
C17A C16A 1_555 1_555
H23A C17A 1_555 1_555
C18A C13A 1_555 1_555
H24A C18A 1_555 1_555
H25A C18A 1_555 1_555
C19A C14A 1_555 1_555
H26A C19A 1_555 1_555
H27A C19A 1_555 1_555
H28A C19A 1_555 1_555
C20A C14A 1_555 1_555
C21A C20A 1_555 1_555
H29A C21A 1_555 1_555
H30A C21A 1_555 1_555
H31A C21A 1_555 1_555
C22A C20A 1_555 1_555
H32A C22A 1_555 1_555
H33A C22A 1_555 1_555
H34A C22A 1_555 1_555
C23A N1 1_555 1_555
H35A C23A 1_555 1_555
C24A C25 1_555 1_555
H36A C24A 1_555 1_555
C27A C26 1_555 1_555
H37A C27A 1_555 1_555
C28A N2 1_555 1_555
H38A C28A 1_555 1_555
C29A N3 1_555 1_555
H39A C29A 1_555 1_555
C30A C31 1_555 1_555
H40A C30A 1_555 1_555
C33A C32 1_555 1_555
H41A C33A 1_555 1_555
C34A N4 1_555 1_555
H42A C34A 1_555 1_555
C6 C7 1_555 1_555
C6 C9 1_555 1_555
C17 C18 1_555 1_555
C17 C20 1_555 1_555
S2A C1A 1_555 1_555
S4A C12A 1_555 1_555
C6A C7A 1_555 1_555
C6A C9A 1_555 1_555
C17A C18A 1_555 1_555
C17A C20A 1_555 1_555
C23A C24A 1_555 1_555
C27A C28A 1_555 1_555
C29A C30A 1_555 1_555
C33A C34A 1_555 1_555

#END
