
#######################################################################
#
#                 Cambridge Crystallographic Data Centre
#                                CCDC 
#
#######################################################################
#
# If this CIF has been generated from an entry in the Cambridge 
# Structural Database, then it will include bibliographic, chemical, 
# crystal, experimental, refinement or atomic coordinate data resulting 
# from the CCDC's data processing and validation procedures.
#
#######################################################################

data_DESHOZ
_symmetry_cell_setting           monoclinic
_symmetry_space_group_name_H-M   'P 21/c'
_symmetry_Int_Tables_number      14
_space_group_name_Hall           '-P 2ybc'
loop_
_symmetry_equiv_pos_site_id
_symmetry_equiv_pos_as_xyz
1 x,y,z
2 -x,1/2+y,1/2-z
3 -x,-y,-z
4 x,1/2-y,1/2+z
_cell_length_a                   14.767(3)
_cell_length_b                   7.1080(14)
_cell_length_c                   13.928(3)
_cell_angle_alpha                90
_cell_angle_beta                 91.36(3)
_cell_angle_gamma                90
_cell_volume                     1461.52
loop_
_atom_site_label
_atom_site_type_symbol
_atom_site_fract_x
_atom_site_fract_y
_atom_site_fract_z
Cd1 Cd 0.247890(15) -0.63924(4) 0.329110(18)
Cd2 Cd -0.252900(17) -0.59959(4) -0.04476(2)
C1 C 0.5470(2) 0.0468(5) 0.3827(3)
H1 H 0.5528 0.1755 0.3728
C2 C 0.4616(2) -0.0338(5) 0.3737(2)
C3 C 0.4534(2) -0.2273(5) 0.3859(2)
C4 C 0.5313(2) -0.3325(5) 0.4027(3)
H2 H 0.5282 -0.4629 0.4070
C5 C 0.6135(2) -0.2417(5) 0.4129(3)
H3 H 0.6653 -0.3127 0.4257
C6 C 0.3799(2) 0.0885(5) 0.3585(3)
C7 C 0.3624(2) -0.3250(5) 0.3858(3)
C8 C -0.0503(2) -0.7373(5) -0.0223(3)
H4 H -0.0588 -0.7676 -0.0868
C9 C 0.0361(2) -0.7532(4) 0.0185(2)
C10 C 0.0483(2) -0.7090(5) 0.1148(2)
C11 C -0.0263(2) -0.6550(5) 0.1670(3)
H5 H -0.0200 -0.6272 0.2321
C12 C -0.1094(2) -0.6432(5) 0.1212(3)
H6 H -0.1592 -0.6080 0.1567
C13 C 0.1146(2) -0.8037(5) -0.0425(3)
C14 C 0.1386(2) -0.7116(6) 0.1674(3)
N1 N -0.12183(19) -0.6803(4) 0.0274(2)
N2 N 0.62123(19) -0.0533(4) 0.4051(2)
O1 O 0.32850(19) -0.3743(4) 0.3067(2)
O2 O 0.3303(2) -0.3594(4) 0.4659(3)
O3 O 0.30408(17) 0.0223(4) 0.3779(2)
O4 O 0.3913(2) 0.2513(4) 0.3286(3)
O5 O 0.1634(2) -0.8576(5) 0.2078(2)
O6 O 0.17915(19) -0.5557(5) 0.1770(2)
O7 O 0.19241(17) -0.7624(5) -0.0118(2)
O8 O 0.10009(19) -0.8796(4) -0.1223(2)
O9 O -0.2650(3) -0.8297(5) -0.1587(3)
H7 H -0.2920 -0.7851 -0.2082
H8 H -0.2414 -0.9341 -0.1745
Cd1_2 Cd 0.247890(15) 0.36076(4) 0.329110(18)
Cd1C Cd 0.247890(15) -0.86076(4) -0.170890(18)
Cd2C Cd 0.747100(17) 0.09959(4) 0.45524(2)
Cd2A Cd 0.252900(17) -0.09959(4) 0.54476(2)
Cd2B Cd 0.252900(17) -0.40041(4) 0.04476(2)
N2C N -0.37877(19) -0.4467(4) -0.0949(2)
O2A O -0.3303(2) -0.8594(4) 0.0341(3)
O3A O -0.30408(17) -0.4777(4) 0.1221(2)
O3_2 O 0.30408(17) -0.9777(4) 0.3779(2)
O4_2 O 0.3913(2) -0.7487(4) 0.3286(3)
O6B O -0.17915(19) -0.4443(5) -0.1770(2)
O7C O 0.19241(17) -0.7376(5) 0.4882(2)
O8C O 0.10009(19) -0.6204(4) 0.3777(2)
loop_
_geom_bond_atom_site_label_1
_geom_bond_atom_site_label_2
_geom_bond_site_symmetry_1
_geom_bond_site_symmetry_2
Cd1 O1 1_555 1_555
Cd2 N1 1_555 1_555
C1 H1 1_555 1_555
C2 C1 1_555 1_555
C3 C2 1_555 1_555
C4 C3 1_555 1_555
H2 C4 1_555 1_555
C5 C4 1_555 1_555
H3 C5 1_555 1_555
C6 C2 1_555 1_555
C7 C3 1_555 1_555
C8 H4 1_555 1_555
C9 C8 1_555 1_555
C10 C9 1_555 1_555
C11 C10 1_555 1_555
H5 C11 1_555 1_555
C12 C11 1_555 1_555
H6 C12 1_555 1_555
C13 C9 1_555 1_555
C14 C10 1_555 1_555
N1 C8 1_555 1_555
N2 C1 1_555 1_555
O1 C7 1_555 1_555
O2 C7 1_555 1_555
O3 C6 1_555 1_555
O4 C6 1_555 1_555
O5 Cd1 1_555 1_555
O6 Cd1 1_555 1_555
O7 C13 1_555 1_555
O8 C13 1_555 1_555
O9 Cd2 1_555 1_555
H7 O9 1_555 1_555
H8 O9 1_555 1_555
Cd1_2 O3 1_555 1_555
Cd1C O7 1_555 1_555
Cd2C N2 1_555 1_555
Cd2A O2 1_555 1_555
Cd2B O6 1_555 1_555
N2C Cd2 1_555 1_555
O2A Cd2 1_555 1_555
O3A Cd2 1_555 1_555
O3_2 Cd1 1_555 1_555
O4_2 Cd1 1_555 1_555
O6B Cd2 1_555 1_555
O7C Cd1 1_555 1_555
O8C Cd1 1_555 1_555
C5 N2 1_555 1_555
C12 N1 1_555 1_555
C14 O5 1_555 1_555
C14 O6 1_555 1_555
O3 Cd2A 1_555 1_555
O4 Cd1_2 1_555 1_555
O8 Cd1C 1_555 1_555

#END
