
#######################################################################
#
#                 Cambridge Crystallographic Data Centre
#                                CCDC 
#
#######################################################################
#
# If this CIF has been generated from an entry in the Cambridge 
# Structural Database, then it will include bibliographic, chemical, 
# crystal, experimental, refinement or atomic coordinate data resulting 
# from the CCDC's data processing and validation procedures.
#
#######################################################################

data_DETGIT
_symmetry_cell_setting           orthorhombic
_symmetry_space_group_name_H-M   'P c a 21'
_symmetry_Int_Tables_number      29
_space_group_name_Hall           'P 2c -2ac'
loop_
_symmetry_equiv_pos_site_id
_symmetry_equiv_pos_as_xyz
1 x,y,z
2 -x,-y,1/2+z
3 1/2+x,-y,z
4 1/2-x,y,1/2+z
_cell_length_a                   10.819(2)
_cell_length_b                   5.6563(11)
_cell_length_c                   18.979(4)
_cell_angle_alpha                90
_cell_angle_beta                 90
_cell_angle_gamma                90
_cell_volume                     1161.43
loop_
_atom_site_label
_atom_site_type_symbol
_atom_site_fract_x
_atom_site_fract_y
_atom_site_fract_z
K1 K 0.61475(6) 0.87081(11) -0.02806(4)
S1 S 0.91347(7) 0.61877(11) 0.06828(3)
O1 O 0.7352(2) 0.9676(4) 0.11141(11)
H1 H 0.692(4) 1.071(8) 0.126(2)
O2 O 0.7189(2) 0.7497(4) 0.35729(11)
H2 H 0.667(5) 0.861(8) 0.360(3)
O3 O 0.9576(2) 0.3121(4) 0.20064(13)
H3 H 0.978(4) 0.300(8) 0.160(3)
O4 O 0.9917(2) 0.4084(4) 0.07247(12)
O5 O 0.9840(2) 0.8320(4) 0.05656(12)
O6 O 0.8139(2) 0.5884(4) 0.01857(12)
O7 O 0.6150(2) 1.2065(4) 0.19941(14)
O8 O 0.5955(3) 1.0954(5) 0.30688(14)
O9 O 0.9303(3) 0.4909(5) 0.38513(12)
O10 O 0.8692(3) 0.1809(4) 0.33104(14)
O11 O 0.8363(2) 1.1223(4) -0.04191(13)
H4 H 0.8369 1.2875 -0.0333
H5 H 0.8695 1.0450 -0.0054
N1 N 0.6387(2) 1.0661(5) 0.24801(14)
N2 N 0.8814(2) 0.3950(4) 0.33495(14)
C1 C 0.8474(3) 0.6452(5) 0.15337(15)
C2 C 0.7661(3) 0.8313(5) 0.16594(15)
C3 C 0.7201(2) 0.8711(5) 0.23469(16)
C4 C 0.7564(3) 0.7237(5) 0.29092(14)
C5 C 0.8377(3) 0.5407(5) 0.27657(15)
C6 C 0.8815(2) 0.4946(5) 0.20868(15)
K1C K 0.88525(6) 0.87081(11) 0.47194(4)
K1B K 1.11475(6) 0.12919(11) -0.02806(4)
K1B_2 K 1.11475(6) 1.12919(11) -0.02806(4)
K1C_2 K 0.88525(6) -0.12919(11) 0.47194(4)
O2C O 0.7811(2) 0.7497(4) -0.14271(11)
H2C H 0.833(5) 0.861(8) -0.140(3)
O4B O 0.4917(2) 0.5916(4) 0.07247(12)
O5B O 0.4840(2) 1.1680(4) 0.05656(12)
O9C O 0.5697(3) 0.4909(5) -0.11487(12)
O10C O 0.6308(3) 1.1809(4) -0.16896(14)
O11B O 0.3363(2) 0.8777(4) -0.04191(13)
H4B H 0.3369 0.7125 -0.0333
H5B H 0.3695 0.9550 -0.0054
loop_
_geom_bond_atom_site_label_1
_geom_bond_atom_site_label_2
_geom_bond_site_symmetry_1
_geom_bond_site_symmetry_2
K1 O1 1_555 1_555
S1 O4 1_555 1_555
O1 H1 1_555 1_555
O2 H2 1_555 1_555
O3 H3 1_555 1_555
O4 K1B 1_555 1_555
O5 S1 1_555 1_555
O6 K1 1_555 1_555
O7 N1 1_555 1_555
O8 N1 1_555 1_555
O9 N2 1_555 1_555
O10 N2 1_555 1_555
O11 K1 1_555 1_555
H4 O11 1_555 1_555
H5 O11 1_555 1_555
N1 C3 1_555 1_555
N2 C5 1_555 1_555
C1 S1 1_555 1_555
C2 O1 1_555 1_555
C3 C2 1_555 1_555
C4 O2 1_555 1_555
C5 C4 1_555 1_555
C6 O3 1_555 1_555
K1C O2 1_555 1_555
K1B_2 O5 1_555 1_555
K1C_2 O10 1_555 1_555
O2C K1 1_555 1_555
H2C O2C 1_555 1_555
O4B K1 1_555 1_555
O5B K1 1_555 1_555
O9C K1 1_555 1_555
O10C K1 1_555 1_555
O11B K1 1_555 1_555
H4B O11B 1_555 1_555
H5B O11B 1_555 1_555
S1 O6 1_555 1_555
O9 K1C 1_555 1_555
O11 K1B_2 1_555 1_555
C1 C2 1_555 1_555
C1 C6 1_555 1_555
C3 C4 1_555 1_555
C5 C6 1_555 1_555

#END
