
#######################################################################
#
#                 Cambridge Crystallographic Data Centre
#                                CCDC 
#
#######################################################################
#
# If this CIF has been generated from an entry in the Cambridge 
# Structural Database, then it will include bibliographic, chemical, 
# crystal, experimental, refinement or atomic coordinate data resulting 
# from the CCDC's data processing and validation procedures.
#
#######################################################################

data_DETHEQ
_symmetry_cell_setting           hexagonal
_symmetry_space_group_name_H-M   'P 6/m c c'
_symmetry_Int_Tables_number      192
_space_group_name_Hall           "-P 6 2'c"
loop_
_symmetry_equiv_pos_site_id
_symmetry_equiv_pos_as_xyz
1 x,y,z
2 y,x,1/2-z
3 -x+y,y,1/2-z
4 x,x-y,1/2-z
5 -y,x-y,z
6 y,-x+y,z
7 x-y,x,z
8 -x+y,-x,z
9 -x,-y,z
10 -y,-x,1/2-z
11 x-y,-y,1/2-z
12 -x,-x+y,1/2-z
13 -x,-y,-z
14 -y,-x,1/2+z
15 x-y,-y,1/2+z
16 -x,-x+y,1/2+z
17 y,-x+y,-z
18 -y,x-y,-z
19 -x+y,-x,-z
20 x-y,x,-z
21 x,y,-z
22 y,x,1/2+z
23 -x+y,y,1/2+z
24 x,x-y,1/2+z
_cell_length_a                   19.922(3)
_cell_length_b                   19.922(3)
_cell_length_c                   16.226(2)
_cell_angle_alpha                90
_cell_angle_beta                 90
_cell_angle_gamma                120
_cell_volume                     5577.09
loop_
_atom_site_label
_atom_site_type_symbol
_atom_site_fract_x
_atom_site_fract_y
_atom_site_fract_z
Co1 Co 0.5000 0.5000 0.2500
O3 O 0.5000 0.5000 0.1206(2)
N1 N 0.37820(10) 0.4616(2) 0.2446(2)
N2 N 0.3353(2) 0.4055(2) 0.1885(2)
C1 C 0.2043(2) 0.3301(3) 0.1273(3)
C2 C 0.3515(2) 0.5395(2) 0.3436(3)
C3 C 0.2617(2) 0.3904(2) 0.1839(2)
C4 C 0.2548(2) 0.4377(2) 0.2402(2)
C5 C 0.3282(2) 0.4811(2) 0.2764(2)
H1 H 0.4707 0.4560 0.1038
H2 H 0.3534 0.3823 0.1590
H3 H 0.1940 0.3548 0.0820
H4 H 0.1570 0.2980 0.1567
H5 H 0.2247 0.2988 0.1067
H6 H 0.3367 0.5135 0.3958
H7 H 0.3263 0.5693 0.3359
H8 H 0.4067 0.5733 0.3423
Co1B Co 0.0000 0.5000 0.2500
Co1C Co 0.5000 0.0000 0.2500
O3A O 0.5000 0.5000 0.3794(2)
N1B N 0.08340(22) 0.4616(2) 0.2554(2)
N1A N 0.4616(2) 0.37820(10) 0.2554(2)
N1E N 0.4616(2) 0.08340(22) 0.2446(2)
N1H N 0.62180(10) 0.5384(2) 0.2446(2)
N1I N 0.5384(2) 0.62180(10) 0.2554(2)
N2B N 0.0702(3) 0.4055(2) 0.3115(2)
N2A N 0.4055(2) 0.3353(2) 0.3115(2)
N2E N 0.4055(2) 0.0702(3) 0.1885(2)
C1B C 0.1258(4) 0.3301(3) 0.3727(3)
C1A C 0.3301(3) 0.2043(2) 0.3727(3)
C1E C 0.3301(3) 0.1258(4) 0.1273(3)
C2B C 0.1880(3) 0.5395(2) 0.1564(3)
C2A C 0.5395(2) 0.3515(2) 0.1564(3)
C2E C 0.5395(2) 0.1880(3) 0.3436(3)
C3B C 0.1287(3) 0.3904(2) 0.3161(2)
C3A C 0.3904(2) 0.2617(2) 0.3161(2)
C3E C 0.3904(2) 0.1287(3) 0.1839(2)
C4B C 0.1829(3) 0.4377(2) 0.2598(2)
C4A C 0.4377(2) 0.2548(2) 0.2598(2)
C4E C 0.4377(2) 0.1829(3) 0.2402(2)
C5B C 0.1529(3) 0.4811(2) 0.2236(2)
C5A C 0.4811(2) 0.3282(2) 0.2236(2)
C5E C 0.4811(2) 0.1529(3) 0.2764(2)
H1H H 0.5293 0.5440 0.1038
H1A H 0.4560 0.4707 0.3962
H1I H 0.5440 0.5293 0.3962
H2B H 0.0289 0.3823 0.3410
H2A H 0.3823 0.3534 0.3410
H2E H 0.3823 0.0289 0.1590
H3B H 0.1608 0.3548 0.4180
H3A H 0.3548 0.1940 0.4180
H3E H 0.3548 0.1608 0.0820
H4B H 0.1410 0.2980 0.3433
H4A H 0.2980 0.1570 0.3433
H4E H 0.2980 0.1410 0.1567
H5B H 0.0741 0.2988 0.3933
H5A H 0.2988 0.2247 0.3933
H5E H 0.2988 0.0741 0.1067
H6B H 0.1768 0.5135 0.1042
H6A H 0.5135 0.3367 0.1042
H6E H 0.5135 0.1768 0.3958
H7B H 0.2430 0.5693 0.1641
H7A H 0.5693 0.3263 0.1641
H7E H 0.5693 0.2430 0.3359
H8B H 0.1666 0.5733 0.1577
H8A H 0.5733 0.4067 0.1577
H8E H 0.5733 0.1666 0.3423
O1 O 0.3592(2) 0.30757(18) 0.0674(2)
O2 O 0.3991(3) 0.4116(3) 0.0000
N3 N 0.3730(3) 0.3389(3) 0.0000
O1T O 0.3592(2) 0.30757(18) -0.0674(2)
loop_
_geom_bond_atom_site_label_1
_geom_bond_atom_site_label_2
_geom_bond_site_symmetry_1
_geom_bond_site_symmetry_2
Co1 O3 1_555 1_555
O1 N3 1_555 1_555
O2 N3 1_555 1_555
O3 H1 1_555 1_555
N1 Co1 1_555 1_555
N2 N1 1_555 1_555
N3 O1T 1_555 1_555
C1 C3 1_555 1_555
C2 C5 1_555 1_555
C3 N2 1_555 1_555
C4 C3 1_555 1_555
C5 N1 1_555 1_555
H2 N2 1_555 1_555
H3 C1 1_555 1_555
H4 C1 1_555 1_555
H5 C1 1_555 1_555
H6 C2 1_555 1_555
H7 C2 1_555 1_555
H8 C2 1_555 1_555
Co1B N1B 1_555 1_555
Co1C N1E 1_555 1_555
O3A Co1 1_555 1_555
N1B N2B 1_555 1_555
N1A Co1 1_555 1_555
N1E N2E 1_555 1_555
N1H Co1 1_555 1_555
N1I Co1 1_555 1_555
N2B C3B 1_555 1_555
N2A N1A 1_555 1_555
N2E C3E 1_555 1_555
C1B C3B 1_555 1_555
C1A C3A 1_555 1_555
C1E C3E 1_555 1_555
C2B C5B 1_555 1_555
C2A C5A 1_555 1_555
C2E C5E 1_555 1_555
C3B C4B 1_555 1_555
C3A N2A 1_555 1_555
C3E C4E 1_555 1_555
C4B C4 1_555 1_555
C4A C3A 1_555 1_555
C4E C4A 1_555 1_555
C5B N1B 1_555 1_555
C5A N1A 1_555 1_555
C5E N1E 1_555 1_555
H1H O3 1_555 1_555
H1A O3A 1_555 1_555
H1I O3A 1_555 1_555
H2B N2B 1_555 1_555
H2A N2A 1_555 1_555
H2E N2E 1_555 1_555
H3B C1B 1_555 1_555
H3A C1A 1_555 1_555
H3E C1E 1_555 1_555
H4B C1B 1_555 1_555
H4A C1A 1_555 1_555
H4E C1E 1_555 1_555
H5B C1B 1_555 1_555
H5A C1A 1_555 1_555
H5E C1E 1_555 1_555
H6B C2B 1_555 1_555
H6A C2A 1_555 1_555
H6E C2E 1_555 1_555
H7B C2B 1_555 1_555
H7A C2A 1_555 1_555
H7E C2E 1_555 1_555
H8B C2B 1_555 1_555
H8A C2A 1_555 1_555
H8E C2E 1_555 1_555
C4 C5 1_555 1_555
C4B C5B 1_555 1_555
C4A C5A 1_555 1_555
C4E C5E 1_555 1_555

#END
