
#######################################################################
#
#                 Cambridge Crystallographic Data Centre
#                                CCDC 
#
#######################################################################
#
# If this CIF has been generated from an entry in the Cambridge 
# Structural Database, then it will include bibliographic, chemical, 
# crystal, experimental, refinement or atomic coordinate data resulting 
# from the CCDC's data processing and validation procedures.
#
#######################################################################

data_DETQOK
_symmetry_cell_setting           triclinic
_symmetry_space_group_name_H-M   'P -1'
_symmetry_Int_Tables_number      2
_space_group_name_Hall           '-P 1'
loop_
_symmetry_equiv_pos_site_id
_symmetry_equiv_pos_as_xyz
1 x,y,z
2 -x,-y,-z
_cell_length_a                   5.0944(1)
_cell_length_b                   8.4853(1)
_cell_length_c                   10.5077(2)
_cell_angle_alpha                111.999(1)
_cell_angle_beta                 93.077(1)
_cell_angle_gamma                101.291(1)
_cell_volume                     408.949
loop_
_atom_site_label
_atom_site_type_symbol
_atom_site_fract_x
_atom_site_fract_y
_atom_site_fract_z
Cu1 Cu 0.0319(4) 0.0318(3) -0.2263(3)
S1 S 0.3781(5) 0.7987(4) 0.2960(4)
P1 P 0.0962(6) 0.2332(4) 0.0923(4)
O1 O 0.0476(16) 0.2310(9) -0.0516(5)
O2 O -0.0478(18) -0.1840(12) -0.4070(13)
O3 O 0.1102(9) 0.8347(11) 0.3215(14)
O4 O -0.1405(12) 0.1114(9) 0.123(1)
O5 O 0.3653(9) 0.1916(8) 0.1201(10)
O6 O 0.5285(12) 0.7969(8) 0.4148(5)
O7 O 0.5224(13) 0.9095(7) 0.2350(6)
C1 C 0.1209(22) 0.4544(18) 0.2192(20)
C2 C 0.3159(20) 0.5719(16) 0.1670(19)
Cu2 Cu -0.5000 0.0000 0.0000
Cu1A Cu -0.0319(4) -0.0318(3) 0.2263(3)
Cu1A_2 Cu -0.0319(4) 0.9682(3) 0.2263(3)
Cu1A_3 Cu 0.9681(4) 0.9682(3) 0.2263(3)
Cu1_2 Cu 0.0319(4) -0.9682(3) -0.2263(3)
Cu1_3 Cu -0.9681(4) -0.9682(3) -0.2263(3)
S1A S -0.3781(5) -0.7987(4) -0.2960(4)
P1A P -0.0962(6) -0.2332(4) -0.0923(4)
O1A O -0.0476(16) -0.2310(9) 0.0516(5)
O2A O 0.0478(18) 0.1840(12) 0.4070(13)
O3A O -0.1102(9) -0.8347(11) -0.3215(14)
O3A_2 O -0.1102(9) 0.1653(11) -0.3215(14)
O3_2 O 0.1102(9) -0.1653(11) 0.3215(14)
O4A O 0.1405(12) -0.1114(9) -0.123(1)
O4A_2 O -0.8595(12) -0.1114(9) -0.123(1)
O5A O -0.3653(9) -0.1916(8) -0.1201(10)
O5_2 O -0.6347(9) 0.1916(8) 0.1201(10)
O6A O -0.5285(12) -0.7969(8) -0.4148(5)
O7A O -0.5224(13) -0.9095(7) -0.2350(6)
O7A_2 O 0.4776(13) 0.0905(7) -0.2350(6)
O7_2 O -0.4776(13) -0.0905(7) 0.2350(6)
O7A_3 O -0.5224(13) 0.0905(7) -0.2350(6)
C1A C -0.1209(22) -0.4544(18) -0.2192(20)
C2A C -0.3159(20) -0.5719(16) -0.1670(19)
Cu2_2 Cu 0.5000 0.0000 0.0000
Cu2_3 Cu 0.5000 1.0000 0.0000
Cu2_4 Cu -0.5000 -1.0000 0.0000
O8 O 0.6576(13) 0.3517(12) 0.3978(12)
loop_
_geom_bond_atom_site_label_1
_geom_bond_atom_site_label_2
_geom_bond_site_symmetry_1
_geom_bond_site_symmetry_2
Cu1 O1 1_555 1_555
S1 O3 1_555 1_555
P1 O1 1_555 1_555
O2 Cu1 1_555 1_555
O3 Cu1A_2 1_555 1_555
O4 P1 1_555 1_555
O5 P1 1_555 1_555
O6 S1 1_555 1_555
O7 S1 1_555 1_555
C1 P1 1_555 1_555
C2 S1 1_555 1_555
Cu2 O4 1_555 1_555
Cu1A O4 1_555 1_555
Cu1A_3 O7 1_555 1_555
Cu1_2 O3A 1_555 1_555
Cu1_3 O7A 1_555 1_555
S1A O3A 1_555 1_555
P1A O1A 1_555 1_555
O1A Cu1A 1_555 1_555
O2A Cu1A 1_555 1_555
O3A_2 Cu1 1_555 1_555
O3_2 Cu1A 1_555 1_555
O4A Cu1 1_555 1_555
O4A_2 Cu2 1_555 1_555
O5A Cu2 1_555 1_555
O5_2 Cu2 1_555 1_555
O6A S1A 1_555 1_555
O7A S1A 1_555 1_555
O7A_2 Cu1 1_555 1_555
O7_2 Cu2 1_555 1_555
O7A_3 Cu2 1_555 1_555
C1A P1A 1_555 1_555
C2A S1A 1_555 1_555
Cu2_2 O5 1_555 1_555
Cu2_3 O7 1_555 1_555
Cu2_4 O7A 1_555 1_555
C1 C2 1_555 1_555
Cu1A O7_2 1_555 1_555
P1A O4A 1_555 1_555
P1A O5A 1_555 1_555
O4A Cu2_2 1_555 1_555
O7A_2 Cu2_2 1_555 1_555
C1A C2A 1_555 1_555

#END
