
#######################################################################
#
#                 Cambridge Crystallographic Data Centre
#                                CCDC 
#
#######################################################################
#
# If this CIF has been generated from an entry in the Cambridge 
# Structural Database, then it will include bibliographic, chemical, 
# crystal, experimental, refinement or atomic coordinate data resulting 
# from the CCDC's data processing and validation procedures.
#
#######################################################################

data_DEVBAI
_symmetry_cell_setting           monoclinic
_symmetry_space_group_name_H-M   'C 2/c'
_symmetry_Int_Tables_number      15
_space_group_name_Hall           '-C 2yn'
loop_
_symmetry_equiv_pos_site_id
_symmetry_equiv_pos_as_xyz
1 x,y,z
2 1/2+x,1/2+y,z
3 -x,y,1/2-z
4 1/2-x,1/2+y,1/2-z
5 -x,-y,-z
6 1/2-x,1/2-y,-z
7 x,-y,1/2+z
8 1/2+x,1/2-y,1/2+z
_cell_length_a                   13.856(1)
_cell_length_b                   7.450(1)
_cell_length_c                   16.054(1)
_cell_angle_alpha                90
_cell_angle_beta                 93.9(1)
_cell_angle_gamma                90
_cell_volume                     1653.37
loop_
_atom_site_label
_atom_site_type_symbol
_atom_site_fract_x
_atom_site_fract_y
_atom_site_fract_z
Fe1 Fe 0.5000 -0.3456(1) 0.7500
N1 N 0.5467(3) -0.5521(5) 0.8364(2)
C1 C 0.5676(3) -0.6824(5) 0.8718(2)
N2 N 0.5496(3) -1.1347(5) 0.8324(2)
C2 C 0.5693(3) -1.0053(5) 0.8679(2)
C3 C 0.5905(3) -0.8447(5) 0.9115(3)
C4 C 0.6298(3) -0.8491(5) 0.9964(3)
O1 O 0.6465(2) -0.7175(4) 1.0403(2)
O2 O 0.6462(2) -1.0186(4) 1.0225(2)
C5 C 0.6827(3) -1.0479(6) 1.1076(3)
C6 C 0.6964(3) -1.2449(6) 1.1160(3)
O3 O 0.7111(2) -1.2870(4) 1.2023(2)
O4 O 0.6410(2) -0.3592(4) 0.7035(2)
H1 H 0.636(3) -0.327(6) 0.659(3)
H2 H 0.696(4) -0.28(1) 0.742(4)
H3 H 0.683(3) -1.379(6) 1.209(2)
H4 H 0.6374 -1.0065 1.1451
H5 H 0.7425 -0.9872 1.1185
H6 H 0.7512 -1.2810 1.0876
H7 H 0.6405 -1.3054 1.0927
Fe1_2 Fe 0.5000 -1.3456(1) 0.7500
N1B N 0.4533(3) -0.5521(5) 0.6636(2)
C1B C 0.4324(3) -0.6824(5) 0.6282(2)
N2B N 0.4504(3) -1.1347(5) 0.6676(2)
N2_2 N 0.5496(3) -0.1347(5) 0.8324(2)
N2B_2 N 0.4504(3) -0.1347(5) 0.6676(2)
C2B C 0.4307(3) -1.0053(5) 0.6321(2)
C3B C 0.4095(3) -0.8447(5) 0.5885(3)
C4B C 0.3702(3) -0.8491(5) 0.5036(3)
O1B O 0.3535(2) -0.7175(4) 0.4597(2)
O2B O 0.3538(2) -1.0186(4) 0.4775(2)
C5B C 0.3173(3) -1.0479(6) 0.3924(3)
C6B C 0.3036(3) -1.2449(6) 0.3840(3)
O3B O 0.2889(2) -1.2870(4) 0.2977(2)
O4B O 0.3590(2) -0.3592(4) 0.7965(2)
H1B H 0.364(3) -0.327(6) 0.841(3)
H2B H 0.304(4) -0.28(1) 0.758(4)
H3B H 0.317(3) -1.379(6) 0.291(2)
H4B H 0.3626 -1.0065 0.3549
H5B H 0.2575 -0.9872 0.3815
H6B H 0.2488 -1.2810 0.4124
H7B H 0.3595 -1.3054 0.4073
loop_
_geom_bond_atom_site_label_1
_geom_bond_atom_site_label_2
_geom_bond_site_symmetry_1
_geom_bond_site_symmetry_2
Fe1 N1 1_555 1_555
N1 C1 1_555 1_555
C1 C3 1_555 1_555
N2 C2 1_555 1_555
C2 C3 1_555 1_555
C3 C4 1_555 1_555
C4 O1 1_555 1_555
O2 C4 1_555 1_555
C5 O2 1_555 1_555
C6 C5 1_555 1_555
O3 C6 1_555 1_555
O4 Fe1 1_555 1_555
H1 O4 1_555 1_555
H2 O4 1_555 1_555
H3 O3 1_555 1_555
H4 C5 1_555 1_555
H5 C5 1_555 1_555
H6 C6 1_555 1_555
H7 C6 1_555 1_555
Fe1_2 N2 1_555 1_555
N1B Fe1 1_555 1_555
C1B N1B 1_555 1_555
N2B Fe1_2 1_555 1_555
N2_2 Fe1 1_555 1_555
N2B_2 Fe1 1_555 1_555
C2B N2B 1_555 1_555
C3B C1B 1_555 1_555
C4B C3B 1_555 1_555
O1B C4B 1_555 1_555
O2B C4B 1_555 1_555
C5B O2B 1_555 1_555
C6B C5B 1_555 1_555
O3B C6B 1_555 1_555
O4B Fe1 1_555 1_555
H1B O4B 1_555 1_555
H2B O4B 1_555 1_555
H3B O3B 1_555 1_555
H4B C5B 1_555 1_555
H5B C5B 1_555 1_555
H6B C6B 1_555 1_555
H7B C6B 1_555 1_555
C2B C3B 1_555 1_555

#END
