
#######################################################################
#
#                 Cambridge Crystallographic Data Centre
#                                CCDC 
#
#######################################################################
#
# If this CIF has been generated from an entry in the Cambridge 
# Structural Database, then it will include bibliographic, chemical, 
# crystal, experimental, refinement or atomic coordinate data resulting 
# from the CCDC's data processing and validation procedures.
#
#######################################################################

data_DEVVOP01
_symmetry_cell_setting           monoclinic
_symmetry_space_group_name_H-M   'P 21/c'
_symmetry_Int_Tables_number      14
_space_group_name_Hall           '-P 2ybc'
loop_
_symmetry_equiv_pos_site_id
_symmetry_equiv_pos_as_xyz
1 x,y,z
2 -x,1/2+y,1/2-z
3 -x,-y,-z
4 x,1/2-y,1/2+z
_cell_length_a                   10.707(4)
_cell_length_b                   17.737(4)
_cell_length_c                   19.081(8)
_cell_angle_alpha                90
_cell_angle_beta                 103.61(2)
_cell_angle_gamma                90
_cell_volume                     3521.92
loop_
_atom_site_label
_atom_site_type_symbol
_atom_site_fract_x
_atom_site_fract_y
_atom_site_fract_z
Ag1 Ag 0.34702(13) 0.14419(6) 0.07720(6)
O1 O 0.4067(11) 0.1309(5) -0.1948(5)
H1 H 0.4404 0.1389 -0.1516
C1 C 0.2885(15) 0.0920(7) -0.2007(7)
H2 H 0.2495 0.0826 -0.2518
H3 H 0.2297 0.1242 -0.1818
C2 C 0.3040(14) 0.0184(7) -0.1609(7)
C3 C 0.3563(13) 0.0292(7) -0.0798(6)
H4 H 0.4276 0.0652 -0.0724
H5 H 0.3914 -0.0190 -0.0590
S1 S 0.2427(4) 0.0620(2) -0.03128(18)
C4 C 0.1944(15) -0.0257(8) 0.0034(7)
H6 H 0.1031 -0.0337 -0.0187
H7 H 0.2420 -0.0668 -0.0128
C5 C 0.2127(15) -0.0318(7) 0.0806(7)
H8 H 0.1810 0.0146 0.0984
H9 H 0.3052 -0.0349 0.1023
C6 C 0.1474(15) -0.0984(7) 0.1070(7)
H10 H 0.1553 -0.0931 0.1590
H11 H 0.0557 -0.0975 0.0834
C7 C 0.2023(13) -0.1737(7) 0.0929(7)
H12 H 0.2905 -0.1773 0.1221
H13 H 0.2060 -0.1758 0.0421
S2 S 0.1136(5) -0.2536(2) 0.1120(2)
C8 C -0.0226(12) -0.2556(8) 0.0352(6)
H14 H -0.0984 -0.2691 0.0530
H15 H -0.0362 -0.2040 0.0165
C9 C 0.1746(12) -0.0236(7) -0.1795(6)
H16 H 0.1111 0.0063 -0.1620
H17 H 0.1846 -0.0717 -0.1536
S3 S 0.1121(4) -0.0422(3) -0.27530(19)
C10 C -0.0181(16) -0.1126(12) -0.2693(9)
H18 H -0.0498 -0.1356 -0.3169
H19 H 0.0203 -0.1528 -0.2359
C11 C -0.1211(19) -0.0836(11) -0.2469(9)
H20 H -0.1508 -0.0381 -0.2751
H21 H -0.0921 -0.0684 -0.1963
C12 C -0.2352(17) -0.1378(9) -0.2539(7)
H22 H -0.3019 -0.1118 -0.2356
H23 H -0.2706 -0.1472 -0.3054
C13 C -0.2108(14) -0.2124(7) -0.2168(6)
H24 H -0.1452 -0.2400 -0.2344
H25 H -0.2899 -0.2424 -0.2271
S4 S -0.1569(4) -0.19718(19) -0.12076(19)
C14 C -0.1414(12) -0.2983(6) -0.0857(7)
H26 H -0.2156 -0.3109 -0.0661
H27 H -0.1402 -0.3331 -0.1255
C15 C 0.4047(13) -0.0290(7) -0.1911(6)
H28 H 0.4869 -0.0021 -0.1813
H29 H 0.3743 -0.0340 -0.2435
S5 S 0.4286(4) -0.12200(19) -0.15066(18)
C16 C 0.4046(14) -0.1838(6) -0.2287(6)
H30 H 0.3232 -0.1712 -0.2625
H31 H 0.4741 -0.1761 -0.2535
C17 C 0.4025(18) -0.2670(8) -0.2056(8)
H32 H 0.4047 -0.3008 -0.2460
H33 H 0.4759 -0.2784 -0.1655
C18 C 0.280(2) -0.2748(12) -0.1831(12)
H34 H 0.2734 -0.2309 -0.1529
H35 H 0.2108 -0.2697 -0.2269
C19 C 0.251(3) -0.3369(15) -0.1471(13)
H36 H 0.3122 -0.3367 -0.1000
H37 H 0.2724 -0.3808 -0.1732
S6 S 0.1054(5) -0.3554(3) -0.1306(2)
C20 C 0.1019(13) -0.2940(7) -0.0564(7)
H38 H 0.1782 -0.3029 -0.0175
H39 H 0.1041 -0.2415 -0.0720
C21 C -0.0199(15) -0.3069(8) -0.0280(7)
C22 C -0.0227(13) -0.3906(7) -0.0003(6)
H40 H 0.0541 -0.4002 0.0372
H41 H -0.0260 -0.4252 -0.0400
H42 H -0.0980 -0.3977 0.0190
O2 O 0.4001(9) 0.2637(4) 0.0281(4)
O3 O 0.5197(11) 0.2007(6) -0.0484(6)
O4 O 0.3049(11) 0.2396(6) -0.0966(5)
S7 S 0.4210(5) 0.2558(2) -0.0445(2)
C23 C 0.4745(15) 0.3431(7) -0.0657(6)
C24 C 0.4006(16) 0.4046(9) -0.0656(7)
H43 H 0.3222 0.3989 -0.0520
C25 C 0.4341(15) 0.4752(8) -0.0843(7)
H44 H 0.3773 0.5157 -0.0849
C26 C 0.5533(16) 0.4878(8) -0.1028(7)
C27 C 0.6239(16) 0.4256(9) -0.1027(7)
H45 H 0.7020 0.4314 -0.1164
C28 C 0.5936(13) 0.3544(9) -0.0845(6)
H46 H 0.6505 0.3140 -0.0844
C29 C 0.5916(14) 0.5635(7) -0.1259(6)
H47 H 0.6783 0.5752 -0.0994
H48 H 0.5330 0.6016 -0.1161
H49 H 0.5881 0.5626 -0.1771
Ag1B Ag -0.34702(13) -0.14419(6) -0.07720(6)
Ag1B_2 Ag 0.65298(13) -0.14419(6) -0.07720(6)
S4B S 0.1569(4) 0.19718(19) 0.12076(19)
S5B S 0.5714(4) 0.12200(19) 0.15066(18)
loop_
_geom_bond_atom_site_label_1
_geom_bond_atom_site_label_2
_geom_bond_site_symmetry_1
_geom_bond_site_symmetry_2
Ag1 S1 1_555 1_555
O1 H1 1_555 1_555
C1 O1 1_555 1_555
H2 C1 1_555 1_555
H3 C1 1_555 1_555
C2 C1 1_555 1_555
C3 C2 1_555 1_555
H4 C3 1_555 1_555
H5 C3 1_555 1_555
S1 C3 1_555 1_555
C4 S1 1_555 1_555
H6 C4 1_555 1_555
H7 C4 1_555 1_555
C5 C4 1_555 1_555
H8 C5 1_555 1_555
H9 C5 1_555 1_555
C6 C5 1_555 1_555
H10 C6 1_555 1_555
H11 C6 1_555 1_555
C7 C6 1_555 1_555
H12 C7 1_555 1_555
H13 C7 1_555 1_555
S2 C7 1_555 1_555
C8 S2 1_555 1_555
H14 C8 1_555 1_555
H15 C8 1_555 1_555
C9 C2 1_555 1_555
H16 C9 1_555 1_555
H17 C9 1_555 1_555
S3 C9 1_555 1_555
C10 S3 1_555 1_555
H18 C10 1_555 1_555
H19 C10 1_555 1_555
C11 C10 1_555 1_555
H20 C11 1_555 1_555
H21 C11 1_555 1_555
C12 C11 1_555 1_555
H22 C12 1_555 1_555
H23 C12 1_555 1_555
C13 C12 1_555 1_555
H24 C13 1_555 1_555
H25 C13 1_555 1_555
S4 C13 1_555 1_555
C14 S4 1_555 1_555
H26 C14 1_555 1_555
H27 C14 1_555 1_555
C15 C2 1_555 1_555
H28 C15 1_555 1_555
H29 C15 1_555 1_555
S5 C15 1_555 1_555
C16 S5 1_555 1_555
H30 C16 1_555 1_555
H31 C16 1_555 1_555
C17 C16 1_555 1_555
H32 C17 1_555 1_555
H33 C17 1_555 1_555
C18 C17 1_555 1_555
H34 C18 1_555 1_555
H35 C18 1_555 1_555
C19 C18 1_555 1_555
H36 C19 1_555 1_555
H37 C19 1_555 1_555
S6 C19 1_555 1_555
C20 S6 1_555 1_555
H38 C20 1_555 1_555
H39 C20 1_555 1_555
C21 C8 1_555 1_555
C22 C21 1_555 1_555
H40 C22 1_555 1_555
H41 C22 1_555 1_555
H42 C22 1_555 1_555
O2 Ag1 1_555 1_555
O3 S7 1_555 1_555
O4 S7 1_555 1_555
S7 O2 1_555 1_555
C23 S7 1_555 1_555
C24 C23 1_555 1_555
H43 C24 1_555 1_555
C25 C24 1_555 1_555
H44 C25 1_555 1_555
C26 C25 1_555 1_555
C27 C26 1_555 1_555
H45 C27 1_555 1_555
C28 C23 1_555 1_555
H46 C28 1_555 1_555
C29 C26 1_555 1_555
H47 C29 1_555 1_555
H48 C29 1_555 1_555
H49 C29 1_555 1_555
Ag1B S4 1_555 1_555
Ag1B_2 S5 1_555 1_555
S4B Ag1 1_555 1_555
S5B Ag1 1_555 1_555
C14 C21 1_555 1_555
C20 C21 1_555 1_555
C27 C28 1_555 1_555

#END
