
#######################################################################
#
#                 Cambridge Crystallographic Data Centre
#                                CCDC 
#
#######################################################################
#
# If this CIF has been generated from an entry in the Cambridge 
# Structural Database, then it will include bibliographic, chemical, 
# crystal, experimental, refinement or atomic coordinate data resulting 
# from the CCDC's data processing and validation procedures.
#
#######################################################################

data_DEWDEO
_symmetry_cell_setting           triclinic
_symmetry_space_group_name_H-M   'P -1'
_symmetry_Int_Tables_number      2
_space_group_name_Hall           '-P 1'
loop_
_symmetry_equiv_pos_site_id
_symmetry_equiv_pos_as_xyz
1 x,y,z
2 -x,-y,-z
_cell_length_a                   16.318(10)
_cell_length_b                   18.389(14)
_cell_length_c                   10.089(4)
_cell_angle_alpha                105.15(4)
_cell_angle_beta                 101.24(6)
_cell_angle_gamma                83.31(9)
_cell_volume                     2859.28
loop_
_atom_site_label
_atom_site_type_symbol
_atom_site_fract_x
_atom_site_fract_y
_atom_site_fract_z
Hg1 Hg -0.5987(1) 0.2383(1) 0.1801(1)
Hg2 Hg -0.0731(1) -0.1900(1) 0.0346(1)
Fe1 Fe -0.2829(1) 0.0827(1) 0.0478(2)
Fe2 Fe -0.7478(1) 0.3726(1) 0.6898(2)
S1 S -0.5650(3) 0.1997(2) -0.0595(4)
S2 S -0.5802(3) 0.1268(2) 0.2902(4)
S3 S -0.7309(3) 0.3180(2) 0.2159(4)
S4 S -0.4773(3) 0.3094(3) 0.3523(5)
S5 S -0.2159(3) -0.1614(2) 0.1167(4)
S6 S 0.0236(3) -0.2920(2) 0.1222(5)
S7 S -0.0978(3) -0.2204(3) -0.2260(5)
S8 S -0.0135(3) -0.0614(2) 0.1346(6)
O1 O -0.2273(7) 0.1830(5) 0.1783(10)
O2 O -0.7182(6) 0.4699(5) 0.6239(10)
O3 O -0.7798(6) 0.4511(5) 0.8726(9)
N1 N -0.3944(9) 0.1552(7) 0.0100(13)
N2 N -0.6535(8) 0.0122(7) 0.0754(13)
N3 N -0.7189(8) 0.3106(7) 0.4920(13)
N4 N -0.5692(8) 0.4264(8) 0.5053(15)
N5 N -0.2270(8) -0.2843(7) 0.2295(13)
N6 N -0.0880(9) -0.4091(8) 0.0453(15)
N7 N 0.0577(9) -0.1760(9) -0.2419(15)
N8 N -0.1705(9) 0.0177(7) 0.0946(13)
N9 N -0.2994(7) 0.1814(6) 0.4037(11)
N10 N -0.3717(7) 0.0810(6) 0.4288(10)
N11 N -0.3948(8) 0.0109(6) 0.3534(12)
N12 N -0.3270(7) 0.0647(6) 0.2298(11)
N13 N -0.2378(8) -0.0089(6) -0.3015(11)
N14 N -0.1707(7) 0.0983(7) -0.3005(12)
N15 N -0.1571(8) 0.1699(7) -0.2207(13)
N16 N -0.2327(7) 0.1064(6) -0.1242(11)
N17 N -0.8691(7) 0.4591(6) 0.4318(12)
N18 N -0.9867(7) 0.3936(6) 0.4207(12)
N19 N -1.0103(7) 0.3469(7) 0.4907(12)
N20 N -0.8774(7) 0.3816(6) 0.5835(12)
N21 N -0.6188(7) 0.4416(6) 1.0151(12)
N22 N -0.4981(7) 0.3747(6) 0.9355(12)
N23 N -0.4767(8) 0.3265(6) 0.8162(12)
N24 N -0.6143(8) 0.3618(6) 0.7837(11)
C1 C -0.4641(11) 0.1754(8) -0.0134(14)
C2 C -0.6240(10) 0.0594(9) 0.1587(16)
C3 C -0.7234(9) 0.3111(8) 0.3772(15)
C4 C -0.5326(9) 0.3781(9) 0.4407(17)
C5 C -0.2208(8) -0.2345(8) 0.1835(14)
C6 C -0.0475(12) -0.3609(9) 0.0698(15)
C7 C -0.0061(9) -0.1925(9) -0.2356(14)
C8 C -0.1049(10) -0.0144(8) 0.1116(15)
C9 C -0.3579(8) 0.1896(9) 0.6093(14)
C10 C -0.3136(9) 0.2213(9) 0.5324(14)
C11 C -0.3317(8) 0.1140(7) 0.3573(13)
C12 C -0.3905(9) 0.1166(9) 0.5596(14)
C13 C -0.3681(9) 0.0041(8) 0.2356(15)
C14 C -0.2781(11) 0.2930(8) 0.5909(18)
C15 C -0.4390(11) 0.0768(11) 0.6244(16)
C16 C -0.1660(11) -0.0059(10) -0.4896(16)
C17 C -0.2131(10) -0.0425(9) -0.4237(16)
C18 C -0.2162(8) 0.0604(7) -0.2432(13)
C19 C -0.1416(10) 0.0639(11) -0.4295(15)
C20 C -0.1983(10) 0.1711(8) -0.1142(16)
C21 C -0.2370(15) -0.1206(9) -0.4926(17)
C22 C -0.0907(10) 0.1125(10) -0.4789(17)
C23 C -0.9921(10) 0.4636(8) 0.2578(15)
C24 C -0.9092(8) 0.4841(8) 0.3226(15)
C25 C -0.9065(9) 0.4136(8) 0.4778(14)
C26 C -1.0323(9) 0.4160(8) 0.3066(15)
C27 C -0.9397(10) 0.3412(8) 0.5883(15)
C28 C -0.8693(11) 0.5358(8) 0.2665(16)
C29 C -1.1153(11) 0.3891(9) 0.2519(17)
C30 C -0.4843(9) 0.4472(8) 1.1614(16)
C31 C -0.5706(9) 0.4684(8) 1.1365(15)
C32 C -0.5812(8) 0.3953(7) 0.9180(16)
C33 C -0.4446(9) 0.3991(8) 1.0605(16)
C34 C -0.5495(7) 0.3223(8) 0.7284(14)
C35 C -0.6134(11) 0.5230(9) 1.2504(15)
C36 C -0.3540(10) 0.3713(10) 1.0742(18)
N2A N -0.3465(8) -0.0122(7) -0.0754(13)
Fe1A Fe -0.7171(1) -0.0827(1) -0.0478(2)
N5A N -0.7730(8) 0.2843(7) 0.7705(13)
Fe2A Fe -0.2522(1) -0.3726(1) 0.3102(2)
loop_
_geom_bond_atom_site_label_1
_geom_bond_atom_site_label_2
_geom_bond_site_symmetry_1
_geom_bond_site_symmetry_2
Hg1 S1 1_555 1_555
Hg2 S5 1_555 1_555
Fe1 O1 1_555 1_555
Fe2 O2 1_555 1_555
S1 C1 1_555 1_555
S2 Hg1 1_555 1_555
S3 Hg1 1_555 1_555
S4 Hg1 1_555 1_555
S5 C5 1_555 1_555
S6 Hg2 1_555 1_555
S7 Hg2 1_555 1_555
S8 Hg2 1_555 1_555
O3 Fe2 1_555 1_555
N1 Fe1 1_555 1_555
N2 C2 1_555 1_555
N3 Fe2 1_555 1_555
N4 C4 1_555 1_555
N5 C5 1_555 1_555
N6 C6 1_555 1_555
N7 C7 1_555 1_555
N8 Fe1 1_555 1_555
N9 C10 1_555 1_555
N10 N11 1_555 1_555
N11 C13 1_555 1_555
N12 Fe1 1_555 1_555
N13 C17 1_555 1_555
N14 N15 1_555 1_555
N15 C20 1_555 1_555
N16 Fe1 1_555 1_555
N17 C24 1_555 1_555
N18 N19 1_555 1_555
N19 C27 1_555 1_555
N20 Fe2 1_555 1_555
N21 C31 1_555 1_555
N22 N23 1_555 1_555
N23 C34 1_555 1_555
N24 Fe2 1_555 1_555
C1 N1 1_555 1_555
C2 S2 1_555 1_555
C3 S3 1_555 1_555
C4 S4 1_555 1_555
C6 S6 1_555 1_555
C7 S7 1_555 1_555
C8 S8 1_555 1_555
C9 C10 1_555 1_555
C10 C14 1_555 1_555
C11 N9 1_555 1_555
C12 N10 1_555 1_555
C13 N12 1_555 1_555
C15 C12 1_555 1_555
C16 C17 1_555 1_555
C17 C21 1_555 1_555
C18 N13 1_555 1_555
C19 N14 1_555 1_555
C20 N16 1_555 1_555
C22 C19 1_555 1_555
C23 C24 1_555 1_555
C24 C28 1_555 1_555
C25 N17 1_555 1_555
C26 N18 1_555 1_555
C27 N20 1_555 1_555
C29 C26 1_555 1_555
C30 C31 1_555 1_555
C31 C35 1_555 1_555
C32 N21 1_555 1_555
C33 N22 1_555 1_555
C34 N24 1_555 1_555
C36 C33 1_555 1_555
N2A Fe1 1_555 1_555
Fe1A N2 1_555 1_555
N5A Fe2 1_555 1_555
Fe2A N5 1_555 1_555
N3 C3 1_555 1_555
N8 C8 1_555 1_555
N10 C11 1_555 1_555
N12 C11 1_555 1_555
N14 C18 1_555 1_555
N16 C18 1_555 1_555
N18 C25 1_555 1_555
N20 C25 1_555 1_555
N22 C32 1_555 1_555
N24 C32 1_555 1_555
C9 C12 1_555 1_555
C16 C19 1_555 1_555
C23 C26 1_555 1_555
C30 C33 1_555 1_555

#END
