
#######################################################################
#
#                 Cambridge Crystallographic Data Centre
#                                CCDC 
#
#######################################################################
#
# If this CIF has been generated from an entry in the Cambridge 
# Structural Database, then it will include bibliographic, chemical, 
# crystal, experimental, refinement or atomic coordinate data resulting 
# from the CCDC's data processing and validation procedures.
#
#######################################################################

data_DEWHIX
_symmetry_cell_setting           monoclinic
_symmetry_space_group_name_H-M   'C 2/c'
_symmetry_Int_Tables_number      15
_space_group_name_Hall           '-C 2yn'
loop_
_symmetry_equiv_pos_site_id
_symmetry_equiv_pos_as_xyz
1 x,y,z
2 1/2+x,1/2+y,z
3 -x,y,1/2-z
4 1/2-x,1/2+y,1/2-z
5 -x,-y,-z
6 1/2-x,1/2-y,-z
7 x,-y,1/2+z
8 1/2+x,1/2-y,1/2+z
_cell_length_a                   16.0317(11)
_cell_length_b                   17.4460(13)
_cell_length_c                   21.6212(16)
_cell_angle_alpha                90.00
_cell_angle_beta                 100.865(6)
_cell_angle_gamma                90.00
_cell_volume                     5938.81
loop_
_atom_site_label
_atom_site_type_symbol
_atom_site_fract_x
_atom_site_fract_y
_atom_site_fract_z
Zn1 Zn 0.26259(8) 0.00133(7) 0.55932(6)
Zn2 Zn 0.27961(9) 0.00232(7) 0.71547(6)
S1 S 0.3410(2) -0.11128(17) 0.64223(16)
S2 S 0.2105(2) 0.12040(16) 0.63168(15)
O1 O 0.3757(5) -0.0705(4) 0.7032(4)
O2 O 0.3686(5) -0.0692(4) 0.5877(4)
O3 O 0.2471(5) -0.0857(5) 0.6318(4)
O4 O 0.1684(5) 0.0816(4) 0.5721(3)
O5 O 0.1818(5) 0.0809(4) 0.6862(3)
O6 O 0.3016(5) 0.0895(5) 0.6383(4)
C1 C 0.4476(8) 0.1601(8) 0.8796(5)
C2 C 0.4819(7) 0.0974(8) 0.8557(6)
H1 H 0.5386 0.0846 0.8699
C3 C 0.4318(10) 0.0533(7) 0.8106(6)
H2 H 0.4568 0.0110 0.7953
N1 N 0.3495(7) 0.0669(5) 0.7871(4)
C4 C 0.3157(7) 0.1291(8) 0.8120(6)
H3 H 0.2586 0.1403 0.7978
C5 C 0.3627(10) 0.1764(8) 0.8575(6)
H4 H 0.3374 0.2184 0.8729
C6 C 0.5898(8) 0.3527(8) 0.8197(5)
C7 C 0.6498(9) 0.3168(7) 0.7918(6)
H5 H 0.6525 0.2635 0.7910
C8 C 0.7063(8) 0.3602(7) 0.7649(5)
H6 H 0.7467 0.3351 0.7466
N2 N 0.7048(6) 0.4367(5) 0.7646(4)
C9 C 0.6443(11) 0.4699(7) 0.7919(8)
H7 H 0.6403 0.5231 0.7912
C10 C 0.5891(10) 0.4297(8) 0.8201(7)
H8 H 0.5507 0.4557 0.8398
C11 C 0.3813(7) 0.1409(7) 0.4008(5)
C12 C 0.4177(7) 0.0739(6) 0.4265(5)
H9 H 0.4653 0.0543 0.4133
C13 C 0.3843(7) 0.0366(6) 0.4709(6)
H10 H 0.4097 -0.0092 0.4865
N3 N 0.3168(6) 0.0614(5) 0.4938(4)
C14 C 0.2813(7) 0.1272(7) 0.4701(6)
H11 H 0.2345 0.1463 0.4849
C15 C 0.3126(8) 0.1675(6) 0.4241(6)
H12 H 0.2868 0.2131 0.4088
C16 C 0.5788(8) 0.3528(7) 0.3970(6)
C17 C 0.5491(8) 0.4162(7) 0.4229(7)
H13 H 0.4936 0.4328 0.4091
C18 C 0.6026(10) 0.4550(7) 0.4697(7)
H14 H 0.5800 0.4957 0.4889
N4 N 0.6838(7) 0.4386(5) 0.4896(4)
C19 C 0.7129(8) 0.3791(8) 0.4638(7)
H15 H 0.7702 0.3672 0.4758
C20 C 0.6631(9) 0.3324(8) 0.4193(7)
H16 H 0.6857 0.2884 0.4047
C21 C 0.5191(8) 0.3026(7) 0.3527(6)
H17 H 0.5492 0.2774 0.3235
H18 H 0.4737 0.3332 0.3287
C22 C 0.4822(7) 0.2427(6) 0.3919(5)
H19 H 0.5287 0.2128 0.4152
H20 H 0.4553 0.2693 0.4223
C23 C 0.4185(8) 0.1884(6) 0.3550(5)
H21 H 0.3741 0.2169 0.3279
H22 H 0.4461 0.1555 0.3287
C24 C 0.5266(9) 0.3070(8) 0.8483(6)
H23 H 0.4853 0.3422 0.8599
H24 H 0.4964 0.2729 0.8163
C25 C 0.5628(9) 0.2610(8) 0.9039(6)
H25 H 0.5897 0.2951 0.9372
H26 H 0.6064 0.2277 0.8933
C26 C 0.4976(8) 0.2125(7) 0.9284(6)
H27 H 0.5265 0.1817 0.9633
H28 H 0.4584 0.2461 0.9444
Zn1A Zn 0.76259(8) 0.50133(7) 0.55932(6)
Zn2A Zn 0.77961(9) 0.50232(7) 0.71547(6)
N2A N 0.2048(6) -0.0633(5) 0.7646(4)
N4A N 0.1838(7) -0.0614(5) 0.4896(4)
loop_
_geom_bond_atom_site_label_1
_geom_bond_atom_site_label_2
_geom_bond_site_symmetry_1
_geom_bond_site_symmetry_2
Zn1 O2 1_555 1_555
Zn2 O1 1_555 1_555
S1 O1 1_555 1_555
S2 O4 1_555 1_555
O2 S1 1_555 1_555
O3 Zn1 1_555 1_555
O4 Zn1 1_555 1_555
O5 Zn2 1_555 1_555
O6 Zn1 1_555 1_555
C1 C2 1_555 1_555
C2 H1 1_555 1_555
C3 C2 1_555 1_555
H2 C3 1_555 1_555
N1 Zn2 1_555 1_555
C4 N1 1_555 1_555
H3 C4 1_555 1_555
C5 C1 1_555 1_555
H4 C5 1_555 1_555
C6 C7 1_555 1_555
C7 H5 1_555 1_555
C8 C7 1_555 1_555
H6 C8 1_555 1_555
N2 C8 1_555 1_555
C9 N2 1_555 1_555
H7 C9 1_555 1_555
C10 C6 1_555 1_555
H8 C10 1_555 1_555
C11 C12 1_555 1_555
C12 H9 1_555 1_555
C13 C12 1_555 1_555
H10 C13 1_555 1_555
N3 Zn1 1_555 1_555
C14 N3 1_555 1_555
H11 C14 1_555 1_555
C15 C11 1_555 1_555
H12 C15 1_555 1_555
C16 C17 1_555 1_555
C17 H13 1_555 1_555
C18 C17 1_555 1_555
H14 C18 1_555 1_555
N4 C18 1_555 1_555
C19 N4 1_555 1_555
H15 C19 1_555 1_555
C20 C16 1_555 1_555
H16 C20 1_555 1_555
C21 C16 1_555 1_555
H17 C21 1_555 1_555
H18 C21 1_555 1_555
C22 C21 1_555 1_555
H19 C22 1_555 1_555
H20 C22 1_555 1_555
C23 C11 1_555 1_555
H21 C23 1_555 1_555
H22 C23 1_555 1_555
C24 C6 1_555 1_555
H23 C24 1_555 1_555
H24 C24 1_555 1_555
C25 C24 1_555 1_555
H25 C25 1_555 1_555
H26 C25 1_555 1_555
C26 C1 1_555 1_555
H27 C26 1_555 1_555
H28 C26 1_555 1_555
Zn1A N4 1_555 1_555
Zn2A N2 1_555 1_555
N2A Zn2 1_555 1_555
N4A Zn1 1_555 1_555
Zn2 O3 1_555 1_555
Zn2 O6 1_555 1_555
S1 O3 1_555 1_555
S2 O5 1_555 1_555
S2 O6 1_555 1_555
C3 N1 1_555 1_555
C4 C5 1_555 1_555
C9 C10 1_555 1_555
C13 N3 1_555 1_555
C14 C15 1_555 1_555
C19 C20 1_555 1_555
C22 C23 1_555 1_555
C25 C26 1_555 1_555

#END
