
#######################################################################
#
#                 Cambridge Crystallographic Data Centre
#                                CCDC 
#
#######################################################################
#
# If this CIF has been generated from an entry in the Cambridge 
# Structural Database, then it will include bibliographic, chemical, 
# crystal, experimental, refinement or atomic coordinate data resulting 
# from the CCDC's data processing and validation procedures.
#
#######################################################################

data_DEWYAF
_symmetry_cell_setting           orthorhombic
_symmetry_space_group_name_H-M   'P 21 a m'
_symmetry_Int_Tables_number      26
_space_group_name_Hall           'P -2 2a'
loop_
_symmetry_equiv_pos_site_id
_symmetry_equiv_pos_as_xyz
1 x,y,z
2 1/2+x,-y,-z
3 1/2+x,-y,z
4 x,y,-z
_cell_length_a                   11.889(6)
_cell_length_b                   7.215(5)
_cell_length_c                   6.023(4)
_cell_angle_alpha                90
_cell_angle_beta                 90
_cell_angle_gamma                90
_cell_volume                     516.648
loop_
_atom_site_label
_atom_site_type_symbol
_atom_site_fract_x
_atom_site_fract_y
_atom_site_fract_z
N1 N 0.5739(6) 0.3629(14) 0.5000
Zn1 Zn 0.8387(1) 0.3780(1) 0.0000
Br1 Br 0.8540(1) 0.7021(1) 0.0000
Br2 Br 1.0000 0.1915(1) 0.0000
C1 C 0.8142(7) 0.3582(12) 0.5000
C2 C 0.6395(5) 0.4125(10) 0.3020(9)
C3 C 0.5553(9) 0.1640(19) 0.5000
C4 C 0.7249(6) 0.1037(8) 0.3025(9)
N2 N 0.6599(7) 0.0574(11) 0.5000
N3 N 0.7483(4) 0.3105(6) 0.2942(7)
H1 H 0.8926 0.2805 0.5000
H2 H 0.8328 0.5043 0.5000
H3 H 0.6577 0.5607 0.3095
H4 H 0.5915 0.3836 0.1556
H5 H 0.8024 0.0294 0.3061
H6 H 0.6762 0.0653 0.1583
C2C C 0.6395(5) 0.4125(10) 0.6980(9)
C4C C 0.7249(6) 0.1037(8) 0.6975(9)
N3C N 0.7483(4) 0.3105(6) -0.2942(7)
N3C_2 N 0.7483(4) 0.3105(6) 0.7058(7)
H3C H 0.6577 0.5607 0.6905
H4C H 0.5915 0.3836 0.8444
H5C H 0.8024 0.0294 0.6939
H6C H 0.6762 0.0653 0.8417
Zn1_2 Zn 0.8387(1) 0.3780(1) 1.0000
loop_
_geom_bond_atom_site_label_1
_geom_bond_atom_site_label_2
_geom_bond_site_symmetry_1
_geom_bond_site_symmetry_2
N1 C2 1_555 1_555
Zn1 Br1 1_555 1_555
Br2 Zn1 1_555 1_555
C1 N3 1_555 1_555
C2 N3 1_555 1_555
C3 N1 1_555 1_555
C4 N2 1_555 1_555
N2 C3 1_555 1_555
N3 Zn1 1_555 1_555
H1 C1 1_555 1_555
H2 C1 1_555 1_555
H3 C2 1_555 1_555
H4 C2 1_555 1_555
H5 C4 1_555 1_555
H6 C4 1_555 1_555
C2C N1 1_555 1_555
C4C N2 1_555 1_555
N3C Zn1 1_555 1_555
N3C_2 C1 1_555 1_555
H3C C2C 1_555 1_555
H4C C2C 1_555 1_555
H5C C4C 1_555 1_555
H6C C4C 1_555 1_555
Zn1_2 N3C_2 1_555 1_555
C4 N3 1_555 1_555
C2C N3C_2 1_555 1_555
C4C N3C_2 1_555 1_555

#END
