
#######################################################################
#
#                 Cambridge Crystallographic Data Centre
#                                CCDC 
#
#######################################################################
#
# If this CIF has been generated from an entry in the Cambridge 
# Structural Database, then it will include bibliographic, chemical, 
# crystal, experimental, refinement or atomic coordinate data resulting 
# from the CCDC's data processing and validation procedures.
#
#######################################################################

data_DEXKOI
_symmetry_cell_setting           triclinic
_symmetry_space_group_name_H-M   'P -1'
_symmetry_Int_Tables_number      2
_space_group_name_Hall           '-P 1'
loop_
_symmetry_equiv_pos_site_id
_symmetry_equiv_pos_as_xyz
1 x,y,z
2 -x,-y,-z
_cell_length_a                   9.3156(3)
_cell_length_b                   11.3309(4)
_cell_length_c                   11.4462(4)
_cell_angle_alpha                87.536(3)
_cell_angle_beta                 67.466(3)
_cell_angle_gamma                68.565(3)
_cell_volume                     1032.12
loop_
_atom_site_label
_atom_site_type_symbol
_atom_site_fract_x
_atom_site_fract_y
_atom_site_fract_z
Au1 Au 1.03226(2) 1.042815(15) 0.105898(15)
Au2 Au 1.029605(19) 1.071987(15) 0.387305(15)
As1 As 1.15062(6) 0.81557(4) 0.10919(4)
As2 As 0.72775(5) 1.15880(4) 0.47884(4)
C1 C 1.1396(5) 0.7091(4) -0.0125(4)
C2 C 1.2072(7) 0.5764(5) -0.0111(5)
H1 H 1.2560 0.5423 0.0482
C3 C 1.2035(7) 0.4948(5) -0.0955(5)
H2 H 1.2502 0.4050 -0.0948
C4 C 1.1304(7) 0.5462(5) -0.1814(5)
H3 H 1.1271 0.4911 -0.2398
C5 C 1.0623(7) 0.6778(5) -0.1818(5)
H4 H 1.0115 0.7106 -0.2403
C6 C 1.0656(5) 0.7642(4) -0.0994(4)
C7 C 1.3861(6) 0.7409(5) 0.0829(6)
H5 H 1.4198 0.6486 0.0864
H6 H 1.4028 0.7789 0.1496
H7 H 1.4545 0.7576 -0.0006
C8 C 1.0476(8) 0.7572(5) 0.2710(5)
H8 H 1.1223 0.6713 0.2752
H9 H 0.9401 0.7554 0.2784
H10 H 1.0286 0.8156 0.3409
C9 C 0.6194(6) 1.1019(4) 0.6386(4)
C10 C 0.4436(6) 1.1619(5) 0.7006(4)
H11 H 0.3833 1.2292 0.6647
C11 C 0.3591(6) 1.1232(5) 0.8132(5)
H12 H 0.2409 1.1651 0.8563
C12 C 0.4483(6) 1.0220(5) 0.8635(4)
H13 H 0.3904 0.9931 0.9397
C13 C 0.6211(6) 0.9639(5) 0.8023(5)
H14 H 0.6796 0.8955 0.8382
C14 C 0.7136(6) 1.0021(4) 0.6890(4)
C15 C 0.6225(7) 1.1235(7) 0.3759(5)
H15 H 0.6594 1.0310 0.3578
H16 H 0.6544 1.1609 0.2957
H17 H 0.5003 1.1606 0.4218
C16 C 0.6257(8) 1.3430(5) 0.5129(7)
H18 H 0.5032 1.3702 0.5491
H19 H 0.6615 1.3807 0.4333
H20 H 0.6608 1.3714 0.5734
Au1A Au 0.96774(2) 0.957185(15) -0.105898(15)
Au2A Au 0.970395(19) 0.928013(15) 0.612695(15)
C6A C 0.9344(5) 1.2358(4) 0.0994(4)
C14A C 1.2864(6) 0.9979(4) 0.3110(4)
C17 C 0.7636(11) 0.6402(10) 0.6578(4)
H21 H 0.8647 0.5934 0.6754
H22 H 0.7316 0.7326 0.6781
Cl1 Cl 0.8083(5) 0.6065(5) 0.4951(3)
Cl2 Cl 0.5971(3) 0.5934(3) 0.7538(2)
C18? C 0.813(6) 0.671(4) 0.6115(14)
H23? H 0.7593 0.7645 0.6147
H24? H 0.9293 0.6492 0.6032
Cl3? Cl 0.813(4) 0.595(2) 0.4790(10)
Cl4? Cl 0.700(2) 0.6191(11) 0.7533(10)
loop_
_geom_bond_atom_site_label_1
_geom_bond_atom_site_label_2
_geom_bond_site_symmetry_1
_geom_bond_site_symmetry_2
Au1 Au2 1_555 1_555
Au2 As2 1_555 1_555
As1 Au1 1_555 1_555
As2 C9 1_555 1_555
C1 As1 1_555 1_555
C2 C1 1_555 1_555
H1 C2 1_555 1_555
C3 C2 1_555 1_555
H2 C3 1_555 1_555
C4 C3 1_555 1_555
H3 C4 1_555 1_555
C5 C4 1_555 1_555
H4 C5 1_555 1_555
C6 C1 1_555 1_555
C7 As1 1_555 1_555
H5 C7 1_555 1_555
H6 C7 1_555 1_555
H7 C7 1_555 1_555
C8 As1 1_555 1_555
H8 C8 1_555 1_555
H9 C8 1_555 1_555
H10 C8 1_555 1_555
C9 C10 1_555 1_555
C10 H11 1_555 1_555
C11 C10 1_555 1_555
H12 C11 1_555 1_555
C12 C11 1_555 1_555
H13 C12 1_555 1_555
C13 C12 1_555 1_555
H14 C13 1_555 1_555
C14 C9 1_555 1_555
C15 As2 1_555 1_555
H15 C15 1_555 1_555
H16 C15 1_555 1_555
H17 C15 1_555 1_555
C16 As2 1_555 1_555
H18 C16 1_555 1_555
H19 C16 1_555 1_555
H20 C16 1_555 1_555
C17 H21 1_555 1_555
H22 C17 1_555 1_555
Cl1 C17 1_555 1_555
Cl2 C17 1_555 1_555
Au1A Au1 1_555 1_555
Au2A Au2 1_555 1_555
C6A Au1 1_555 1_555
C14A Au2 1_555 1_555
C5 C6 1_555 1_555
C6 Au1A 1_555 1_555
C13 C14 1_555 1_555
C14 Au2A 1_555 1_555

#END
