
#######################################################################
#
#                 Cambridge Crystallographic Data Centre
#                                CCDC 
#
#######################################################################
#
# If this CIF has been generated from an entry in the Cambridge 
# Structural Database, then it will include bibliographic, chemical, 
# crystal, experimental, refinement or atomic coordinate data resulting 
# from the CCDC's data processing and validation procedures.
#
#######################################################################

data_DEXLEZ
_symmetry_cell_setting           monoclinic
_symmetry_space_group_name_H-M   'C 2/c'
_symmetry_Int_Tables_number      15
_space_group_name_Hall           '-C 2yn'
loop_
_symmetry_equiv_pos_site_id
_symmetry_equiv_pos_as_xyz
1 x,y,z
2 -x,y,1/2-z
3 1/2+x,1/2+y,z
4 1/2-x,1/2+y,1/2-z
5 -x,-y,-z
6 x,-y,1/2+z
7 1/2-x,1/2-y,-z
8 1/2+x,1/2-y,1/2+z
_cell_length_a                   13.6692(9)
_cell_length_b                   25.9647(17)
_cell_length_c                   8.7912(6)
_cell_angle_alpha                90
_cell_angle_beta                 125.0370(10)
_cell_angle_gamma                90
_cell_volume                     2554.72
loop_
_atom_site_label
_atom_site_type_symbol
_atom_site_fract_x
_atom_site_fract_y
_atom_site_fract_z
O4 O 0.5000 0.08242(12) 0.7500
H11 H 0.4783 0.1021 0.7987
H11A H 0.5217 0.1021 0.7013
Cd1 Cd 0.5000 0.115483(11) 0.2500
C1 C 0.8237(3) 0.22605(12) 0.7628(4)
H1 H 0.8146 0.2364 0.6516
C2 C 0.9079(3) 0.25033(12) 0.9290(4)
H2 H 0.9555 0.2775 0.9318
C3 C 0.9215(2) 0.23467(10) 1.0894(4)
C4 C 0.8531(2) 0.19526(10) 1.0883(4)
H3 H 0.8640 0.1846 1.2004
C5 C 0.7684(2) 0.17150(10) 0.9214(4)
H4 H 0.7207 0.1445 0.9192
C6 C 0.7527(2) 0.18676(9) 0.7573(3)
C7 C 0.6604(2) 0.16210(9) 0.5758(3)
C8 C 0.2709(4) 0.08998(13) 0.2360(8)
H5 H 0.2676 0.1265 0.2275
C9 C 0.1830(3) 0.06475(13) 0.2375(8)
H6 H 0.1214 0.0841 0.2300
C10 C 0.1828(2) 0.01212(10) 0.2495(3)
C11 C 0.2755(3) -0.01224(13) 0.2602(6)
H7 H 0.2812 -0.0487 0.2690
C12 C 0.3606(3) 0.01560(14) 0.2582(6)
H8 H 0.4236 -0.0028 0.2665
C13 C 0.0893(2) -0.01667(9) 0.2497(4)
C14 C 0.0856(4) -0.06973(14) 0.2398(8)
H9 H 0.1567 -0.0880 0.2784
C15 C 0.0000 0.00907(12) 0.2500
H10 H 0.0000 0.0457 0.2500
N1 N 0.35978(18) 0.06614(10) 0.2457(3)
O1 O 0.59551(17) 0.12677(7) 0.5723(2)
O2 O 0.64888(17) 0.17657(8) 0.4308(3)
O3 O 1.0000 0.26253(10) 1.2500
C16 C -0.0100(5) -0.09609(19) 0.1948(8)
C1A C 1.1763(3) 0.22605(12) 1.7372(4)
H1A H 1.1854 0.2364 1.8484
C2A C 1.0921(3) 0.25033(12) 1.5710(4)
H2A H 1.0445 0.2775 1.5682
C3A C 1.0785(2) 0.23467(10) 1.4106(4)
C4A C 1.1469(2) 0.19526(10) 1.4117(4)
H3A H 1.1360 0.1846 1.2996
C5A C 1.2316(2) 0.17150(10) 1.5786(4)
H4A H 1.2793 0.1445 1.5808
C6A C 1.2473(2) 0.18676(9) 1.7427(3)
C7A C 1.3396(2) 0.16210(9) 1.9242(3)
O1A O 1.40449(17) 0.12677(7) 1.9277(2)
O2A O 1.35112(17) 0.17657(8) 2.0692(3)
C8A C -0.2709(4) 0.08998(13) 0.2640(8)
H5A H -0.2676 0.1265 0.2725
C9A C -0.1830(3) 0.06475(13) 0.2625(8)
H6A H -0.1214 0.0841 0.2700
C10A C -0.1828(2) 0.01212(10) 0.2505(3)
C11A C -0.2755(3) -0.01224(13) 0.2398(6)
H7A H -0.2812 -0.0487 0.2310
C12A C -0.3606(3) 0.01560(14) 0.2418(6)
H8A H -0.4236 -0.0028 0.2335
C13A C -0.0893(2) -0.01667(9) 0.2503(4)
C14A C -0.0856(4) -0.06973(14) 0.2602(8)
H9A H -0.1567 -0.0880 0.2216
N1A N -0.35978(18) 0.06614(10) 0.2543(3)
C16A C 0.0100(5) -0.09609(19) 0.3052(8)
Cd1_2 Cd -0.5000 0.115483(11) 0.2500
Cd1_3 Cd 1.5000 0.115483(11) 2.2500
N1A_2 N 0.64022(18) 0.06614(10) 0.2543(3)
O1A_2 O 0.40449(17) 0.12677(7) -0.0723(2)
O2A_2 O 0.35112(17) 0.17657(8) 0.0692(3)
C17? C 0.1084(4) -0.07152(14) 0.3210(8)
H12? H 0.18(3) -0.087(12) 0.32(4)
H13? H 0.0065 -0.1323 0.2038
loop_
_geom_bond_atom_site_label_1
_geom_bond_atom_site_label_2
_geom_bond_site_symmetry_1
_geom_bond_site_symmetry_2
Cd1 N1 1_555 1_555
C1 H1 1_555 1_555
C2 C1 1_555 1_555
H2 C2 1_555 1_555
C3 C2 1_555 1_555
C4 C3 1_555 1_555
H3 C4 1_555 1_555
C5 C4 1_555 1_555
H4 C5 1_555 1_555
C6 C1 1_555 1_555
C7 C6 1_555 1_555
C8 H5 1_555 1_555
C9 C8 1_555 1_555
H6 C9 1_555 1_555
C10 C9 1_555 1_555
C11 C10 1_555 1_555
H7 C11 1_555 1_555
C12 C11 1_555 1_555
H8 C12 1_555 1_555
C13 C10 1_555 1_555
C14 C13 1_555 1_555
H9 C14 1_555 1_555
C15 C13 1_555 1_555
H10 C15 1_555 1_555
N1 C8 1_555 1_555
O1 Cd1 1_555 1_555
O2 Cd1 1_555 1_555
O3 C3 1_555 1_555
C16 C14 1_555 1_555
O4 H11 1_555 1_555
C1A H1A 1_555 1_555
C2A C1A 1_555 1_555
H2A C2A 1_555 1_555
C3A O3 1_555 1_555
C4A C3A 1_555 1_555
H3A C4A 1_555 1_555
C5A C4A 1_555 1_555
H4A C5A 1_555 1_555
C6A C1A 1_555 1_555
C7A C6A 1_555 1_555
O1A C7A 1_555 1_555
O2A C7A 1_555 1_555
C8A H5A 1_555 1_555
C9A C8A 1_555 1_555
H6A C9A 1_555 1_555
C10A C9A 1_555 1_555
C11A C10A 1_555 1_555
H7A C11A 1_555 1_555
C12A C11A 1_555 1_555
H8A C12A 1_555 1_555
C13A C15 1_555 1_555
C14A C16 1_555 1_555
H9A C14A 1_555 1_555
N1A C8A 1_555 1_555
C16A C14 1_555 1_555
Cd1_2 N1A 1_555 1_555
Cd1_3 O1A 1_555 1_555
N1A_2 Cd1 1_555 1_555
O1A_2 Cd1 1_555 1_555
O2A_2 Cd1 1_555 1_555
H11A O4 1_555 1_555
C5 C6 1_555 1_555
C7 O1 1_555 1_555
C7 O2 1_555 1_555
C12 N1 1_555 1_555
C16 C16A 1_555 1_555
C2A C3A 1_555 1_555
C5A C6A 1_555 1_555
O2A Cd1_3 1_555 1_555
C10A C13A 1_555 1_555
C12A N1A 1_555 1_555
C13A C14A 1_555 1_555
C14A C16A 1_555 1_555

#END
