
#######################################################################
#
#                 Cambridge Crystallographic Data Centre
#                                CCDC 
#
#######################################################################
#
# If this CIF has been generated from an entry in the Cambridge 
# Structural Database, then it will include bibliographic, chemical, 
# crystal, experimental, refinement or atomic coordinate data resulting 
# from the CCDC's data processing and validation procedures.
#
#######################################################################

data_DEXRUV
_symmetry_cell_setting           tetragonal
_symmetry_space_group_name_H-M   'I -4 2 d'
_symmetry_Int_Tables_number      122
_space_group_name_Hall           'I -4 2bw'
loop_
_symmetry_equiv_pos_site_id
_symmetry_equiv_pos_as_xyz
1 x,y,z
2 y,-x,-z
3 -x,-y,z
4 -y,x,-z
5 x,1/2-y,1/4-z
6 -x,1/2+y,1/4-z
7 -y,1/2-x,1/4+z
8 y,1/2+x,1/4+z
9 1/2+x,1/2+y,1/2+z
10 1/2+y,1/2-x,1/2-z
11 1/2-x,1/2-y,1/2+z
12 1/2-y,1/2+x,1/2-z
13 1/2+x,-y,3/4-z
14 1/2-x,y,3/4-z
15 1/2-y,-x,3/4+z
16 1/2+y,x,3/4+z
_cell_length_a                   25.749(4)
_cell_length_b                   25.749(4)
_cell_length_c                   8.3921(17)
_cell_angle_alpha                90
_cell_angle_beta                 90
_cell_angle_gamma                90
_cell_volume                     5564.05
loop_
_atom_site_label
_atom_site_type_symbol
_atom_site_fract_x
_atom_site_fract_y
_atom_site_fract_z
Cd1 Cd -1.918932(16) -1.2500 -0.3750
O1 O -1.89451(14) -1.12976(13) 0.3753(6)
O2 O -1.94073(13) -1.20218(12) 0.3981(4)
O3 O -1.99771(15) -1.08832(17) 0.4496(4)
O4 O -2.0510(2) -1.0452(3) 0.2950(7)
H1 H -2.0619 -1.0347 0.3809
N1 N -1.85043(17) -1.19950(18) -0.2767(5)
N2 N -1.83683(17) -1.15248(17) -0.3369(6)
H2 H -1.8554 -1.1353 -0.4038
N3 N -1.97508(16) -1.19286(16) -0.2417(5)
N4 N -2.04209(17) -1.13826(17) -0.2414(5)
H3 H -2.0687 -1.1214 -0.2756
C1 C -1.8143(2) -1.2617(2) -0.0864(8)
H4 H -1.8103 -1.2902 -0.1592
H5 H -1.8470 -1.2646 -0.0324
H6 H -1.7866 -1.2625 -0.0097
C2 C -1.81248(19) -1.2119(2) -0.1760(6)
C3 C -1.77409(17) -1.17304(19) -0.1733(6)
C4 C -1.7909(2) -1.1357(2) -0.2799(9)
C5 C -1.7663(3) -1.0865(3) -0.3330(11)
H7 H -1.7824 -1.0578 -0.2793
H8 H -1.7708 -1.0827 -0.4460
H9 H -1.7300 -1.0872 -0.3082
C6 C -1.92972(17) -1.16043(17) 0.3322(5)
C7 C -1.96047(17) -1.14833(18) 0.1807(6)
C8 C -1.94813(18) -1.17735(18) 0.0465(6)
H10 H -1.9208 -1.2009 0.0479
C9 C -1.97812(17) -1.17005(17) -0.0915(5)
C10 C -2.02015(18) -1.13554(19) -0.0906(5)
C11 C -2.0325(2) -1.1060(2) 0.0406(6)
H11 H -2.0602 -1.0828 0.0384
C12 C -2.0022(2) -1.1120(2) 0.1768(6)
C13 C -2.01625(19) -1.0819(2) 0.3196(6)
C14 C -2.01350(19) -1.17246(19) -0.3225(6)
H12 H -2.0203 -1.1811 -0.4280
N1M N -1.64957(17) -1.19950(18) 0.0267(5)
N2M N -1.66317(17) -1.15248(17) 0.0869(6)
H2M H -1.6446 -1.1353 0.1538
C1M C -1.6857(2) -1.2617(2) -0.1636(8)
H4M H -1.6897 -1.2902 -0.0908
H5M H -1.6530 -1.2646 -0.2176
H6M H -1.7134 -1.2625 -0.2403
C2M C -1.68752(19) -1.2119(2) -0.0740(6)
C3M C -1.72591(17) -1.17304(19) -0.0767(6)
C4M C -1.7091(2) -1.1357(2) 0.0299(9)
C5M C -1.7337(3) -1.0865(3) 0.0830(11)
H7M H -1.7176 -1.0578 0.0293
H8M H -1.7292 -1.0827 0.1960
H9M H -1.7700 -1.0872 0.0582
O1D O -1.89451(14) -1.37024(13) -1.1253(6)
O2D O -1.94073(13) -1.29782(12) -1.1481(4)
O3D O -1.99771(15) -1.41168(17) -1.1996(4)
O4D O -2.0510(2) -1.4548(3) -1.0450(7)
H1D H -2.0619 -1.4653 -1.1309
N3D N -1.97508(16) -1.30714(16) -0.5083(5)
N4D N -2.04209(17) -1.36174(17) -0.5086(5)
H3D H -2.0687 -1.3786 -0.4744
C6D C -1.92972(17) -1.33957(17) -1.0822(5)
C7D C -1.96047(17) -1.35167(18) -0.9307(6)
C8D C -1.94813(18) -1.32265(18) -0.7965(6)
H10D H -1.9208 -1.2991 -0.7979
C9D C -1.97812(17) -1.32995(17) -0.6585(5)
C10D C -2.02015(18) -1.36446(19) -0.6594(5)
C11D C -2.0325(2) -1.3940(2) -0.7906(6)
H11D H -2.0602 -1.4172 -0.7884
C12D C -2.0022(2) -1.3880(2) -0.9268(6)
C13D C -2.01625(19) -1.4181(2) -1.0696(6)
C14D C -2.01350(19) -1.32754(19) -0.4275(6)
H12D H -2.0203 -1.3189 -0.3220
Cd1_2 Cd -1.918932(16) -1.2500 -1.3750
Cd1_3 Cd -1.918932(16) -1.2500 0.6250
Cd1J Cd -1.581068(16) -1.2500 0.1250
O2_2 O -1.94073(13) -1.20218(12) -0.6019(4)
O2D_2 O -1.94073(13) -1.29782(12) -0.1481(4)
N1D N -1.85043(17) -1.30050(18) -0.4733(5)
loop_
_geom_bond_atom_site_label_1
_geom_bond_atom_site_label_2
_geom_bond_site_symmetry_1
_geom_bond_site_symmetry_2
Cd1 N1 1_555 1_555
O1 C6 1_555 1_555
O2 C6 1_555 1_555
O3 C13 1_555 1_555
O4 H1 1_555 1_555
N1 N2 1_555 1_555
N2 H2 1_555 1_555
N3 Cd1 1_555 1_555
N4 H3 1_555 1_555
C1 H4 1_555 1_555
H5 C1 1_555 1_555
H6 C1 1_555 1_555
C2 N1 1_555 1_555
C3 C2 1_555 1_555
C4 N2 1_555 1_555
C5 C4 1_555 1_555
H7 C5 1_555 1_555
H8 C5 1_555 1_555
H9 C5 1_555 1_555
C6 C7 1_555 1_555
C7 C8 1_555 1_555
C8 H10 1_555 1_555
C9 N3 1_555 1_555
C10 N4 1_555 1_555
C11 C10 1_555 1_555
H11 C11 1_555 1_555
C12 C7 1_555 1_555
C13 O4 1_555 1_555
C14 N3 1_555 1_555
H12 C14 1_555 1_555
N1M N2M 1_555 1_555
N2M H2M 1_555 1_555
C1M H4M 1_555 1_555
H5M C1M 1_555 1_555
H6M C1M 1_555 1_555
C2M N1M 1_555 1_555
C3M C3 1_555 1_555
C4M N2M 1_555 1_555
C5M C4M 1_555 1_555
H7M C5M 1_555 1_555
H8M C5M 1_555 1_555
H9M C5M 1_555 1_555
O1D C6D 1_555 1_555
O2D C6D 1_555 1_555
O3D C13D 1_555 1_555
O4D H1D 1_555 1_555
N3D Cd1 1_555 1_555
N4D H3D 1_555 1_555
C6D C7D 1_555 1_555
C7D C8D 1_555 1_555
C8D H10D 1_555 1_555
C9D N3D 1_555 1_555
C10D N4D 1_555 1_555
C11D C10D 1_555 1_555
H11D C11D 1_555 1_555
C12D C7D 1_555 1_555
C13D O4D 1_555 1_555
C14D N3D 1_555 1_555
H12D C14D 1_555 1_555
Cd1_2 O2D 1_555 1_555
Cd1_3 O2 1_555 1_555
Cd1J N1M 1_555 1_555
O2_2 Cd1 1_555 1_555
O2D_2 Cd1 1_555 1_555
N1D Cd1 1_555 1_555
N4 C14 1_555 1_555
C1 C2 1_555 1_555
C3 C4 1_555 1_555
C8 C9 1_555 1_555
C9 C10 1_555 1_555
C11 C12 1_555 1_555
C12 C13 1_555 1_555
C1M C2M 1_555 1_555
C2M C3M 1_555 1_555
C3M C4M 1_555 1_555
N4D C14D 1_555 1_555
C8D C9D 1_555 1_555
C9D C10D 1_555 1_555
C11D C12D 1_555 1_555
C12D C13D 1_555 1_555

#END
