
#######################################################################
#
#                 Cambridge Crystallographic Data Centre
#                                CCDC 
#
#######################################################################
#
# If this CIF has been generated from an entry in the Cambridge 
# Structural Database, then it will include bibliographic, chemical, 
# crystal, experimental, refinement or atomic coordinate data resulting 
# from the CCDC's data processing and validation procedures.
#
#######################################################################

data_DEXWIN
_symmetry_cell_setting           monoclinic
_symmetry_space_group_name_H-M   'C 2/c'
_symmetry_Int_Tables_number      15
_space_group_name_Hall           '-C 2yn'
loop_
_symmetry_equiv_pos_site_id
_symmetry_equiv_pos_as_xyz
1 x,y,z
2 1/2+x,1/2+y,z
3 -x,y,1/2-z
4 1/2-x,1/2+y,1/2-z
5 -x,-y,-z
6 1/2-x,1/2-y,-z
7 x,-y,1/2+z
8 1/2+x,1/2-y,1/2+z
_cell_length_a                   31.9347(14)
_cell_length_b                   6.4537(3)
_cell_length_c                   22.7534(11)
_cell_angle_alpha                90
_cell_angle_beta                 126.278(5)
_cell_angle_gamma                90
_cell_volume                     3780.39
loop_
_atom_site_label
_atom_site_type_symbol
_atom_site_fract_x
_atom_site_fract_y
_atom_site_fract_z
C1 C 0.91047(11) -0.1543(4) 0.91559(14)
H1 H 0.8868 -0.2071 0.9228
C2 C 0.95654(12) -0.2588(5) 0.94475(15)
H2 H 0.9637 -0.3801 0.9712
C3 C 0.99152(12) -0.1809(5) 0.93412(18)
H3 H 1.0228 -0.2488 0.9534
C4 C 0.98000(10) -0.0017(5) 0.89472(15)
H4 H 1.0034 0.0534 0.8873
C5 C 0.93289(9) 0.0959(4) 0.86613(12)
C6 C 0.91645(9) 0.2909(4) 0.82303(12)
C7 C 0.94549(11) 0.3902(5) 0.80385(15)
H5 H 0.9769 0.3346 0.8173
C8 C 0.92706(12) 0.5716(5) 0.76484(16)
H6 H 0.9459 0.6402 0.7515
C9 C 0.88097(12) 0.6502(5) 0.74576(15)
H7 H 0.8681 0.7733 0.7196
C10 C 0.85369(10) 0.5448(4) 0.76583(13)
H8 H 0.8222 0.5985 0.7526
C11 C 0.75336(8) -0.0464(3) 0.69150(11)
C12 C 0.72638(8) -0.0533(3) 0.61055(11)
C13 C 0.75605(9) -0.0143(3) 0.58594(12)
H9 H 0.7915 0.0098 0.6195
C14 C 0.73383(10) -0.0105(3) 0.51187(13)
C15 C 0.68035(10) -0.0250(4) 0.46055(13)
H10 H 0.6651 -0.0153 0.4109
C16 C 0.67132(9) -0.0890(3) 0.55973(11)
C17 C 0.65101(9) -0.0538(4) 0.48501(12)
N1 N 0.89884(7) 0.0204(3) 0.87727(10)
N2 N 0.87096(7) 0.3686(3) 0.80353(10)
N3 N 0.76607(10) 0.0155(3) 0.48722(13)
N4 N 0.59474(10) -0.0518(5) 0.43118(12)
Ni1 Ni 0.831594(10) 0.18803(4) 0.831219(14)
O1 O 0.79641(6) 0.0429(2) 0.72935(8)
O2 O 0.73212(6) -0.1294(3) 0.71812(8)
O3 O 0.64153(6) -0.1491(3) 0.57610(8)
O4 O 0.56905(9) 0.0571(5) 0.44396(14)
O5 O 0.57504(11) -0.1506(8) 0.37733(15)
O6 O 0.74461(9) 0.0194(3) 0.42092(11)
O7 O 0.81328(9) 0.0297(3) 0.53250(12)
O8 O 0.79983(6) -0.0406(3) 0.85890(8)
H11 H 0.7783 -0.0928 0.8205
H12 H 0.7862 -0.0067 0.8780
Ni1C Ni 0.668406(10) -0.31197(4) 0.668781(14)
O2C O 0.76788(6) 0.3706(3) 0.78188(8)
O3C O 0.85847(6) 0.3509(3) 0.92390(8)
O9 O 0.5622(11) 0.417(4) 0.3298(16)
loop_
_geom_bond_atom_site_label_1
_geom_bond_atom_site_label_2
_geom_bond_site_symmetry_1
_geom_bond_site_symmetry_2
C1 H1 1_555 1_555
C2 C1 1_555 1_555
H2 C2 1_555 1_555
C3 C2 1_555 1_555
H3 C3 1_555 1_555
C4 C3 1_555 1_555
H4 C4 1_555 1_555
C5 C4 1_555 1_555
C6 C5 1_555 1_555
C7 C6 1_555 1_555
H5 C7 1_555 1_555
C8 C7 1_555 1_555
H6 C8 1_555 1_555
C9 C8 1_555 1_555
H7 C9 1_555 1_555
C10 C9 1_555 1_555
H8 C10 1_555 1_555
C11 C12 1_555 1_555
C12 C13 1_555 1_555
C13 H9 1_555 1_555
C14 C13 1_555 1_555
C15 C14 1_555 1_555
H10 C15 1_555 1_555
C16 C12 1_555 1_555
C17 C15 1_555 1_555
N1 C1 1_555 1_555
N2 C6 1_555 1_555
N3 C14 1_555 1_555
N4 C17 1_555 1_555
Ni1 N1 1_555 1_555
O1 C11 1_555 1_555
O2 C11 1_555 1_555
O3 C16 1_555 1_555
O4 N4 1_555 1_555
O5 N4 1_555 1_555
O6 N3 1_555 1_555
O7 N3 1_555 1_555
O8 Ni1 1_555 1_555
H11 O8 1_555 1_555
H12 O8 1_555 1_555
Ni1C O2 1_555 1_555
O2C Ni1 1_555 1_555
O3C Ni1 1_555 1_555
C5 N1 1_555 1_555
C10 N2 1_555 1_555
C16 C17 1_555 1_555
N2 Ni1 1_555 1_555
Ni1 O1 1_555 1_555
O3 Ni1C 1_555 1_555

#END
