
#######################################################################
#
#                 Cambridge Crystallographic Data Centre
#                                CCDC 
#
#######################################################################
#
# If this CIF has been generated from an entry in the Cambridge 
# Structural Database, then it will include bibliographic, chemical, 
# crystal, experimental, refinement or atomic coordinate data resulting 
# from the CCDC's data processing and validation procedures.
#
#######################################################################

data_DEXXAF
_symmetry_cell_setting           orthorhombic
_symmetry_space_group_name_H-M   'P n m a'
_symmetry_Int_Tables_number      62
_space_group_name_Hall           '-P 2ac 2n'
loop_
_symmetry_equiv_pos_site_id
_symmetry_equiv_pos_as_xyz
1 x,y,z
2 1/2-x,1/2+y,1/2+z
3 x,1/2-y,z
4 1/2-x,-y,1/2+z
5 -x,-y,-z
6 1/2+x,1/2-y,1/2-z
7 -x,1/2+y,-z
8 1/2+x,y,1/2-z
_cell_length_a                   8.778(2)
_cell_length_b                   9.805(2)
_cell_length_c                   16.906(3)
_cell_angle_alpha                90
_cell_angle_beta                 90
_cell_angle_gamma                90
_cell_volume                     1455.07
loop_
_atom_site_label
_atom_site_type_symbol
_atom_site_fract_x
_atom_site_fract_y
_atom_site_fract_z
Ag1 Ag 0.15458(20) 0.25000 0.36601(8)
Ag2 Ag 0.33176(15) 0.42868(12) 0.20023(6)
Br1 Br 0.48719(21) 0.25000 0.29215(9)
Ag3 Ag 0.25405(17) 0.75000 0.41804(8)
Br2 Br 0.16787(14) 0.52928(12) 0.33808(7)
Br3 Br -0.16496(22) 0.25000 0.43282(9)
N1 N 0.2425(13) 0.2500 0.5033(7)
N2 N 0.2501(12) 0.3754(9) 0.6284(5)
C1 C 0.4192(15) 0.3713(12) 0.6257(6)
C2 C 0.1936(17) 0.2500 0.6688(8)
N3 N 0.4764(13) 0.2500 0.5842(7)
C3 C 0.1936(13) 0.3728(11) 0.5466(6)
C4 C 0.4179(15) 0.2500 0.5021(8)
H1 H 0.2284 0.4524 0.5190
H2 H 0.0843 0.3729 0.5485
H3 H 0.4573 0.3722 0.6789
H4 H 0.4546 0.4509 0.5982
H5 H 0.4547 0.1701 0.4754
H6 H 0.2232 0.2500 0.7235
H7 H 0.0845 0.2500 0.6651
C1B C 0.4192(15) 0.1287(12) 0.6257(6)
N2B N 0.2501(12) 0.1246(9) 0.6284(5)
C3B C 0.1936(13) 0.1272(11) 0.5466(6)
H5B H 0.4547 0.3299 0.4754
H1B H 0.2284 0.0476 0.5190
H2B H 0.0843 0.1271 0.5485
H3B H 0.4573 0.1278 0.6789
H4B H 0.4546 0.0491 0.5982
Br2B Br 0.16787(14) -0.02928(12) 0.33808(7)
Ag2B Ag 0.33176(15) 0.07132(12) 0.20023(6)
Br1E Br -0.01281(21) 0.25000 0.20785(9)
Br2G Br 0.66787(14) 0.52928(12) 0.16192(7)
Br3E Br 0.33504(22) 0.25000 0.06718(9)
N2C N 0.2499(12) 0.6246(9) 0.1284(5)
Ag1E Ag 0.65458(20) 0.25000 0.13399(8)
Br2B_2 Br 0.16787(14) 0.97072(12) 0.33808(7)
Br3D Br 0.16496(22) 0.75000 0.56718(9)
N3D N 0.5236(13) 0.7500 0.4158(7)
Ag2G Ag -0.16824(15) 0.42868(12) 0.29977(6)
Ag2E Ag -0.16824(15) 0.07132(12) 0.29977(6)
Ag3D Ag -0.25405(17) 0.25000 0.58196(8)
Ag2C Ag 0.16824(15) 0.57132(12) 0.70023(6)
Ag3D_2 Ag 0.74595(17) 0.25000 0.58196(8)
Ag2A Ag 0.16824(15) -0.07132(12) 0.70023(6)
Ag3_2 Ag 0.25405(17) -0.25000 0.41804(8)
Br2E Br 0.66787(14) -0.02928(12) 0.16192(7)
N2A N 0.2499(12) -0.1246(9) 0.1284(5)
loop_
_geom_bond_atom_site_label_1
_geom_bond_atom_site_label_2
_geom_bond_site_symmetry_1
_geom_bond_site_symmetry_2
Ag1 Br1 1_555 1_555
Ag2 Br1 1_555 1_555
Br1 Ag2B 1_555 1_555
Ag3 Br2 1_555 1_555
Br2 Ag1 1_555 1_555
Br3 Ag1 1_555 1_555
N1 Ag1 1_555 1_555
N2 C1 1_555 1_555
C1 N3 1_555 1_555
C2 N2 1_555 1_555
N3 C4 1_555 1_555
C3 N1 1_555 1_555
C4 N1 1_555 1_555
H1 C3 1_555 1_555
H2 C3 1_555 1_555
H3 C1 1_555 1_555
H4 C1 1_555 1_555
H5 C4 1_555 1_555
H6 C2 1_555 1_555
H7 C2 1_555 1_555
C1B N3 1_555 1_555
N2B C2 1_555 1_555
C3B N1 1_555 1_555
H5B C4 1_555 1_555
H1B C3B 1_555 1_555
H2B C3B 1_555 1_555
H3B C1B 1_555 1_555
H4B C1B 1_555 1_555
Br2B Ag1 1_555 1_555
Ag2B Br2B 1_555 1_555
Br1E Ag1 1_555 1_555
Br2G Ag2 1_555 1_555
Br3E Ag2 1_555 1_555
N2C Ag2 1_555 1_555
Ag1E Br1 1_555 1_555
Br2B_2 Ag3 1_555 1_555
Br3D Ag3 1_555 1_555
N3D Ag3 1_555 1_555
Ag2G Br2 1_555 1_555
Ag2E Br3 1_555 1_555
Ag3D Br3 1_555 1_555
Ag2C N2 1_555 1_555
Ag3D_2 N3 1_555 1_555
Ag2A N2B 1_555 1_555
Ag3_2 Br2B 1_555 1_555
Br2E Ag2B 1_555 1_555
N2A Ag2B 1_555 1_555
Ag2 Br2 1_555 1_555
Br3 Ag2G 1_555 1_555
N2 C3 1_555 1_555
C1B N2B 1_555 1_555
N2B C3B 1_555 1_555
Br2B Ag2E 1_555 1_555
Ag2B Br3E 1_555 1_555
Br1E Ag2E 1_555 1_555
Br1E Ag2G 1_555 1_555
Br2G Ag1E 1_555 1_555
Br3E Ag1E 1_555 1_555
Ag1E Br2E 1_555 1_555
Br3D Ag2C 1_555 1_555

#END
