
#######################################################################
#
#                 Cambridge Crystallographic Data Centre
#                                CCDC 
#
#######################################################################
#
# If this CIF has been generated from an entry in the Cambridge 
# Structural Database, then it will include bibliographic, chemical, 
# crystal, experimental, refinement or atomic coordinate data resulting 
# from the CCDC's data processing and validation procedures.
#
#######################################################################

data_DEXYUC
_symmetry_cell_setting           triclinic
_symmetry_space_group_name_H-M   'P -1'
_symmetry_Int_Tables_number      2
_space_group_name_Hall           '-P 1'
loop_
_symmetry_equiv_pos_site_id
_symmetry_equiv_pos_as_xyz
1 x,y,z
2 -x,-y,-z
_cell_length_a                   10.594(2)
_cell_length_b                   13.043(3)
_cell_length_c                   16.188(4)
_cell_angle_alpha                73.794(4)
_cell_angle_beta                 76.985(4)
_cell_angle_gamma                70.972(4)
_cell_volume                     2008.26
loop_
_atom_site_label
_atom_site_type_symbol
_atom_site_fract_x
_atom_site_fract_y
_atom_site_fract_z
Ni1 Ni 1.0000 0.0000 1.0000
Ni2 Ni 0.5000 1.0000 0.5000
O1 O 0.5118(3) 0.3726(2) 1.25144(18)
O2 O 0.6454(3) 0.5717(2) 0.98047(17)
O3 O 1.1683(3) 1.0824(2) 0.35518(16)
O4 O 0.8415(3) 1.3765(2) 0.22103(17)
O5 O 0.9743(3) 0.0705(2) 0.87102(18)
O6 O 0.7920(4) 0.0219(3) 0.8635(2)
O7 O 0.8774(3) 0.3287(2) 0.48422(17)
O8 O 0.6072(3) 0.8451(2) 0.34850(17)
O9 O 0.6164(3) 0.8415(2) 0.48605(16)
O10 O 0.8548(3) -0.0811(2) 1.02002(19)
H1 H 0.7959 -0.0870 1.0642
H2 H 0.8138 -0.0536 0.9766
O11 O 0.4419(3) 1.0357(2) 0.37944(16)
H3 H 0.3602 1.0436 0.3788
H4 H 0.4873 0.9844 0.3539
N1 N 0.8601(4) 0.1419(3) 1.0374(2)
N2 N 0.5391(3) 0.4507(3) 1.1897(2)
N3 N 0.6047(3) 0.5461(3) 1.0625(2)
N4 N 0.6635(3) 1.0644(2) 0.43953(19)
N5 N 1.1104(3) 1.1724(2) 0.30411(19)
N6 N 0.9544(3) 1.3114(2) 0.24244(19)
C1 C 0.6907(4) 0.3385(3) 1.0856(2)
C2 C 0.7914(4) 0.3403(3) 1.0131(2)
H5 H 0.8041 0.4093 0.9787
C3 C 0.8720(4) 0.2424(3) 0.9915(2)
H6 H 0.9393 0.2458 0.9416
C4 C 0.7637(5) 0.1397(3) 1.1071(3)
H7 H 0.7538 0.0694 1.1402
C5 C 0.6783(4) 0.2337(3) 1.1335(3)
H8 H 0.6118 0.2275 1.1835
C6 C 0.6105(4) 0.4421(3) 1.1115(2)
C7 C 0.4782(4) 0.5693(3) 1.1982(2)
C8 C 0.5024(4) 0.5788(4) 1.2842(2)
H9 H 0.4509 0.5372 1.3322
H10 H 0.4731 0.6573 1.2873
H11 H 0.5988 0.5481 1.2889
C9 C 0.3284(4) 0.5961(3) 1.1953(3)
H12 H 0.3158 0.5805 1.1423
H13 H 0.2850 0.6749 1.1953
H14 H 0.2876 0.5502 1.2464
C10 C 0.5556(4) 0.6310(3) 1.1160(2)
C11 C 0.6824(4) 0.6495(3) 1.1334(3)
H15 H 0.7381 0.5790 1.1639
H16 H 0.6556 0.7044 1.1695
H17 H 0.7342 0.6768 1.0780
C12 C 0.4704(4) 0.7387(3) 1.0668(3)
H18 H 0.5266 0.7697 1.0152
H19 H 0.4328 0.7920 1.1045
H20 H 0.3967 0.7241 1.0489
C13 C 0.8826(5) 0.0714(4) 0.8320(3)
C14 C 0.7855(5) 0.1456(3) 0.6907(3)
H21 H 0.7196 0.1066 0.7165
C15 C 0.7824(4) 0.2091(3) 0.6062(3)
H22 H 0.7152 0.2138 0.5740
C16 C 0.8792(4) 0.2650(3) 0.5699(2)
C17 C 0.9785(4) 0.2565(4) 0.6152(3)
H23 H 1.0455 0.2942 0.5889
C18 C 0.9807(4) 0.1930(4) 0.6990(3)
H24 H 1.0499 0.1868 0.7301
C19 C 0.8834(5) 0.1383(3) 0.7381(3)
C20 C 0.8217(4) 0.4429(3) 0.4728(2)
C21 C 0.7695(4) 0.4968(3) 0.5410(2)
H25 H 0.7744 0.4558 0.5993
C22 C 0.7107(4) 0.6096(3) 0.5239(2)
H26 H 0.6739 0.6454 0.5712
C23 C 0.7034(4) 0.6727(3) 0.4400(2)
C24 C 0.7580(4) 0.6173(3) 0.3718(2)
H27 H 0.7551 0.6585 0.3134
C25 C 0.8161(4) 0.5034(3) 0.3883(2)
H28 H 0.8522 0.4669 0.3413
C26 C 0.6377(4) 0.7958(3) 0.4227(2)
C27 C 0.8715(4) 1.1614(3) 0.3524(2)
C28 C 0.8997(4) 1.0514(3) 0.3996(2)
H29 H 0.9903 1.0074 0.4032
C29 C 0.7930(4) 1.0072(3) 0.4413(2)
H30 H 0.8135 0.9319 0.4728
C30 C 0.6372(4) 1.1700(3) 0.3955(3)
H31 H 0.5454 1.2118 0.3936
C31 C 0.7353(4) 1.2223(3) 0.3526(3)
H32 H 0.7110 1.2985 0.3236
C32 C 0.9758(4) 1.2137(3) 0.3019(2)
C33 C 1.1870(4) 1.2546(3) 0.2510(2)
C34 C 1.3193(4) 1.1970(4) 0.2029(3)
H33 H 1.3849 1.1591 0.2436
H34 H 1.3537 1.2522 0.1566
H35 H 1.3052 1.1423 0.1775
C35 C 1.2102(4) 1.3074(3) 0.3162(3)
H36 H 1.1230 1.3448 0.3460
H37 H 1.2602 1.3619 0.2860
H38 H 1.2624 1.2497 0.3590
C36 C 1.0823(4) 1.3326(3) 0.1910(2)
C37 C 1.0989(4) 1.2968(4) 0.1059(3)
H39 H 1.1018 1.2181 0.1188
H40 H 1.1831 1.3074 0.0695
H41 H 1.0225 1.3419 0.0750
C38 C 1.0743(4) 1.4544(3) 0.1740(3)
H42 H 1.0060 1.4984 0.1362
H43 H 1.1623 1.4655 0.1455
H44 H 1.0494 1.4781 0.2293
O3A O -0.1683(3) 0.9176(2) 0.64482(16)
O4A O 0.1585(3) 0.6235(2) 0.77897(17)
O5A O 0.0257(3) 1.9295(2) 0.12898(18)
O6A O 0.2080(4) 1.9781(3) 0.1365(2)
O7A O 0.1226(3) 1.6713(2) 0.51578(17)
O8A O 0.3928(3) 1.1549(2) 0.65150(17)
O9A O 0.3836(3) 1.1585(2) 0.51395(16)
O11A O 0.5581(3) 0.9643(2) 0.62056(16)
H3A H 0.6398 0.9564 0.6212
H4A H 0.5127 1.0156 0.6461
N4A N 0.3365(3) 0.9356(2) 0.56047(19)
N5A N -0.1104(3) 0.8276(2) 0.69589(19)
N6A N 0.0456(3) 0.6886(2) 0.75756(19)
C13A C 0.1174(5) 1.9286(4) 0.1680(3)
C14A C 0.2145(5) 1.8544(3) 0.3093(3)
H21A H 0.2804 1.8934 0.2835
C15A C 0.2176(4) 1.7909(3) 0.3938(3)
H22A H 0.2848 1.7862 0.4260
C16A C 0.1208(4) 1.7350(3) 0.4301(2)
C17A C 0.0215(4) 1.7435(4) 0.3848(3)
H23A H -0.0455 1.7058 0.4111
C18A C 0.0193(4) 1.8070(4) 0.3010(3)
H24A H -0.0499 1.8132 0.2699
C19A C 0.1166(5) 1.8617(3) 0.2619(3)
C20A C 0.1783(4) 1.5571(3) 0.5272(2)
C21A C 0.2305(4) 1.5032(3) 0.4590(2)
H25A H 0.2256 1.5442 0.4007
C22A C 0.2893(4) 1.3904(3) 0.4761(2)
H26A H 0.3261 1.3546 0.4288
C23A C 0.2966(4) 1.3273(3) 0.5600(2)
C24A C 0.2420(4) 1.3827(3) 0.6282(2)
H27A H 0.2449 1.3415 0.6866
C25A C 0.1839(4) 1.4966(3) 0.6117(2)
H28A H 0.1478 1.5331 0.6587
C26A C 0.3623(4) 1.2042(3) 0.5773(2)
C27A C 0.1285(4) 0.8386(3) 0.6476(2)
C28A C 0.1003(4) 0.9486(3) 0.6004(2)
H29A H 0.0097 0.9926 0.5968
C29A C 0.2070(4) 0.9928(3) 0.5587(2)
H30A H 0.1865 1.0681 0.5272
C30A C 0.3628(4) 0.8300(3) 0.6045(3)
H31A H 0.4546 0.7882 0.6064
C31A C 0.2647(4) 0.7777(3) 0.6474(3)
H32A H 0.2890 0.7015 0.6764
C32A C 0.0242(4) 0.7863(3) 0.6981(2)
C33A C -0.1870(4) 0.7454(3) 0.7490(2)
C34A C -0.3193(4) 0.8030(4) 0.7971(3)
H33A H -0.3849 0.8409 0.7564
H34A H -0.3537 0.7478 0.8434
H35A H -0.3052 0.8577 0.8225
C35A C -0.2102(4) 0.6926(3) 0.6838(3)
H36A H -0.1230 0.6552 0.6540
H37A H -0.2602 0.6381 0.7140
H38A H -0.2624 0.7503 0.6410
C36A C -0.0823(4) 0.6674(3) 0.8090(2)
C37A C -0.0989(4) 0.7032(4) 0.8941(3)
H39A H -0.1018 0.7819 0.8812
H40A H -0.1831 0.6926 0.9305
H41A H -0.0225 0.6581 0.9250
C38A C -0.0743(4) 0.5456(3) 0.8260(3)
H42A H -0.0060 0.5016 0.8638
H43A H -0.1623 0.5345 0.8545
H44A H -0.0494 0.5219 0.7707
O1A O 1.4882(3) -0.3726(2) 0.74856(18)
O2A O 1.3546(3) -0.5717(2) 1.01953(17)
N1A N 1.1399(4) -0.1419(3) 0.9626(2)
N2A N 1.4609(3) -0.4507(3) 0.8103(2)
N3A N 1.3953(3) -0.5461(3) 0.9375(2)
C1A C 1.3093(4) -0.3385(3) 0.9144(2)
C2A C 1.2086(4) -0.3403(3) 0.9869(2)
H5A H 1.1959 -0.4093 1.0213
C3A C 1.1280(4) -0.2424(3) 1.0085(2)
H6A H 1.0607 -0.2458 1.0584
C4A C 1.2363(5) -0.1397(3) 0.8929(3)
H7A H 1.2462 -0.0694 0.8598
C5A C 1.3217(4) -0.2337(3) 0.8665(3)
H8A H 1.3882 -0.2275 0.8165
C6A C 1.3895(4) -0.4421(3) 0.8885(2)
C7A C 1.5218(4) -0.5693(3) 0.8018(2)
C8A C 1.4976(4) -0.5788(4) 0.7158(2)
H9A H 1.5491 -0.5372 0.6678
H10A H 1.5269 -0.6573 0.7127
H11A H 1.4012 -0.5481 0.7111
C9A C 1.6716(4) -0.5961(3) 0.8047(3)
H12A H 1.6842 -0.5805 0.8577
H13A H 1.7150 -0.6749 0.8047
H14A H 1.7124 -0.5502 0.7536
C10A C 1.4444(4) -0.6310(3) 0.8840(2)
C11A C 1.3176(4) -0.6495(3) 0.8666(3)
H15A H 1.2619 -0.5790 0.8361
H16A H 1.3444 -0.7044 0.8305
H17A H 1.2658 -0.6768 0.9220
C12A C 1.5296(4) -0.7387(3) 0.9332(3)
H18A H 1.4734 -0.7697 0.9848
H19A H 1.5672 -0.7920 0.8955
H20A H 1.6033 -0.7241 0.9511
O10A O 1.1452(3) 0.0811(2) 0.97998(19)
H1A H 1.2041 0.0870 0.9358
H2A H 1.1862 0.0536 1.0234
Ni1_2 Ni 0.0000 2.0000 0.0000
O5A_2 O 1.0257(3) -0.0705(2) 1.12898(18)
O12 O 0.5361(6) 0.9993(4) 0.9110(3)
O14 O 0.6593(10) 0.9092(7) 0.1698(5)
O13? O 0.7337(16) 0.8803(10) 0.1812(7)
loop_
_geom_bond_atom_site_label_1
_geom_bond_atom_site_label_2
_geom_bond_site_symmetry_1
_geom_bond_site_symmetry_2
Ni1 O5 1_555 1_555
Ni2 O9 1_555 1_555
O1 N2 1_555 1_555
O2 N3 1_555 1_555
O3 N5 1_555 1_555
O4 N6 1_555 1_555
O5 C13 1_555 1_555
O6 C13 1_555 1_555
O7 C16 1_555 1_555
O8 C26 1_555 1_555
O9 C26 1_555 1_555
O10 Ni1 1_555 1_555
H1 O10 1_555 1_555
H2 O10 1_555 1_555
O11 Ni2 1_555 1_555
H3 O11 1_555 1_555
H4 O11 1_555 1_555
N1 Ni1 1_555 1_555
N2 C6 1_555 1_555
N3 C6 1_555 1_555
N4 Ni2 1_555 1_555
N5 C32 1_555 1_555
N6 C32 1_555 1_555
C1 C2 1_555 1_555
C2 H5 1_555 1_555
C3 N1 1_555 1_555
H6 C3 1_555 1_555
C4 N1 1_555 1_555
H7 C4 1_555 1_555
C5 C1 1_555 1_555
H8 C5 1_555 1_555
C6 C1 1_555 1_555
C7 N2 1_555 1_555
C8 C7 1_555 1_555
H9 C8 1_555 1_555
H10 C8 1_555 1_555
H11 C8 1_555 1_555
C9 C7 1_555 1_555
H12 C9 1_555 1_555
H13 C9 1_555 1_555
H14 C9 1_555 1_555
C10 N3 1_555 1_555
C11 C10 1_555 1_555
H15 C11 1_555 1_555
H16 C11 1_555 1_555
H17 C11 1_555 1_555
C12 C10 1_555 1_555
H18 C12 1_555 1_555
H19 C12 1_555 1_555
H20 C12 1_555 1_555
C13 C19 1_555 1_555
C14 H21 1_555 1_555
C15 C14 1_555 1_555
H22 C15 1_555 1_555
C16 C15 1_555 1_555
C17 C16 1_555 1_555
H23 C17 1_555 1_555
C18 C17 1_555 1_555
H24 C18 1_555 1_555
C19 C14 1_555 1_555
C20 O7 1_555 1_555
C21 C20 1_555 1_555
H25 C21 1_555 1_555
C22 C21 1_555 1_555
H26 C22 1_555 1_555
C23 C22 1_555 1_555
C24 C23 1_555 1_555
H27 C24 1_555 1_555
C25 C20 1_555 1_555
H28 C25 1_555 1_555
C26 C23 1_555 1_555
C27 C28 1_555 1_555
C28 H29 1_555 1_555
C29 N4 1_555 1_555
H30 C29 1_555 1_555
C30 N4 1_555 1_555
H31 C30 1_555 1_555
C31 C27 1_555 1_555
H32 C31 1_555 1_555
C32 C27 1_555 1_555
C33 N5 1_555 1_555
C34 C33 1_555 1_555
H33 C34 1_555 1_555
H34 C34 1_555 1_555
H35 C34 1_555 1_555
C35 C33 1_555 1_555
H36 C35 1_555 1_555
H37 C35 1_555 1_555
H38 C35 1_555 1_555
C36 N6 1_555 1_555
C37 C36 1_555 1_555
H39 C37 1_555 1_555
H40 C37 1_555 1_555
H41 C37 1_555 1_555
C38 C36 1_555 1_555
H42 C38 1_555 1_555
H43 C38 1_555 1_555
H44 C38 1_555 1_555
O3A N5A 1_555 1_555
O4A N6A 1_555 1_555
O5A C13A 1_555 1_555
O6A C13A 1_555 1_555
O7A C16A 1_555 1_555
O8A C26A 1_555 1_555
O9A Ni2 1_555 1_555
O11A Ni2 1_555 1_555
H3A O11A 1_555 1_555
H4A O11A 1_555 1_555
N4A Ni2 1_555 1_555
N5A C32A 1_555 1_555
N6A C32A 1_555 1_555
C13A C19A 1_555 1_555
C14A H21A 1_555 1_555
C15A C14A 1_555 1_555
H22A C15A 1_555 1_555
C16A C15A 1_555 1_555
C17A C16A 1_555 1_555
H23A C17A 1_555 1_555
C18A C17A 1_555 1_555
H24A C18A 1_555 1_555
C19A C14A 1_555 1_555
C20A O7A 1_555 1_555
C21A C20A 1_555 1_555
H25A C21A 1_555 1_555
C22A C21A 1_555 1_555
H26A C22A 1_555 1_555
C23A C22A 1_555 1_555
C24A C23A 1_555 1_555
H27A C24A 1_555 1_555
C25A C20A 1_555 1_555
H28A C25A 1_555 1_555
C26A O9A 1_555 1_555
C27A C28A 1_555 1_555
C28A H29A 1_555 1_555
C29A N4A 1_555 1_555
H30A C29A 1_555 1_555
C30A N4A 1_555 1_555
H31A C30A 1_555 1_555
C31A C27A 1_555 1_555
H32A C31A 1_555 1_555
C32A C27A 1_555 1_555
C33A N5A 1_555 1_555
C34A C33A 1_555 1_555
H33A C34A 1_555 1_555
H34A C34A 1_555 1_555
H35A C34A 1_555 1_555
C35A C33A 1_555 1_555
H36A C35A 1_555 1_555
H37A C35A 1_555 1_555
H38A C35A 1_555 1_555
C36A N6A 1_555 1_555
C37A C36A 1_555 1_555
H39A C37A 1_555 1_555
H40A C37A 1_555 1_555
H41A C37A 1_555 1_555
C38A C36A 1_555 1_555
H42A C38A 1_555 1_555
H43A C38A 1_555 1_555
H44A C38A 1_555 1_555
O1A N2A 1_555 1_555
O2A N3A 1_555 1_555
N1A Ni1 1_555 1_555
N2A C6A 1_555 1_555
N3A C6A 1_555 1_555
C1A C2A 1_555 1_555
C2A H5A 1_555 1_555
C3A N1A 1_555 1_555
H6A C3A 1_555 1_555
C4A N1A 1_555 1_555
H7A C4A 1_555 1_555
C5A C1A 1_555 1_555
H8A C5A 1_555 1_555
C6A C1A 1_555 1_555
C7A N2A 1_555 1_555
C8A C7A 1_555 1_555
H9A C8A 1_555 1_555
H10A C8A 1_555 1_555
H11A C8A 1_555 1_555
C9A C7A 1_555 1_555
H12A C9A 1_555 1_555
H13A C9A 1_555 1_555
H14A C9A 1_555 1_555
C10A N3A 1_555 1_555
C11A C10A 1_555 1_555
H15A C11A 1_555 1_555
H16A C11A 1_555 1_555
H17A C11A 1_555 1_555
C12A C10A 1_555 1_555
H18A C12A 1_555 1_555
H19A C12A 1_555 1_555
H20A C12A 1_555 1_555
O10A Ni1 1_555 1_555
H1A O10A 1_555 1_555
H2A O10A 1_555 1_555
Ni1_2 O5A 1_555 1_555
O5A_2 Ni1 1_555 1_555
C2 C3 1_555 1_555
C4 C5 1_555 1_555
C7 C10 1_555 1_555
C18 C19 1_555 1_555
C24 C25 1_555 1_555
C28 C29 1_555 1_555
C30 C31 1_555 1_555
C33 C36 1_555 1_555
C18A C19A 1_555 1_555
C23A C26A 1_555 1_555
C24A C25A 1_555 1_555
C28A C29A 1_555 1_555
C30A C31A 1_555 1_555
C33A C36A 1_555 1_555
C2A C3A 1_555 1_555
C4A C5A 1_555 1_555
C7A C10A 1_555 1_555

#END
