
#######################################################################
#
#                 Cambridge Crystallographic Data Centre
#                                CCDC 
#
#######################################################################
#
# If this CIF has been generated from an entry in the Cambridge 
# Structural Database, then it will include bibliographic, chemical, 
# crystal, experimental, refinement or atomic coordinate data resulting 
# from the CCDC's data processing and validation procedures.
#
#######################################################################

data_DEXYOW
_symmetry_cell_setting           triclinic
_symmetry_space_group_name_H-M   'P -1'
_symmetry_Int_Tables_number      2
_space_group_name_Hall           '-P 1'
loop_
_symmetry_equiv_pos_site_id
_symmetry_equiv_pos_as_xyz
1 x,y,z
2 -x,-y,-z
_cell_length_a                   10.650(2)
_cell_length_b                   13.149(2)
_cell_length_c                   16.209(3)
_cell_angle_alpha                73.851(3)
_cell_angle_beta                 77.241(3)
_cell_angle_gamma                71.198(3)
_cell_volume                     2042.35
loop_
_atom_site_label
_atom_site_type_symbol
_atom_site_fract_x
_atom_site_fract_y
_atom_site_fract_z
Co1 Co 0.5000 1.0000 0.5000
Co2 Co 1.0000 0.0000 1.0000
O1 O 0.5124(2) 0.37457(17) 1.25332(13)
O2 O 0.6444(2) 0.57187(17) 0.98058(12)
O3 O 1.17038(19) 1.08331(16) 0.35323(12)
O4 O 0.84336(19) 1.37770(17) 0.22055(12)
O5 O 0.6103(2) 0.84610(18) 0.34660(13)
O6 O 0.61611(18) 0.84108(16) 0.48528(12)
O7 O 0.8762(2) 0.33142(16) 0.48135(12)
O8 O 0.9745(2) 0.07129(18) 0.86868(13)
O9 O 0.7931(3) 0.0239(2) 0.86008(15)
O10 O 0.44173(18) 1.03390(16) 0.37795(12)
H1 H 0.3626 1.0366 0.3759
H2 H 0.4920 0.9804 0.3571
O11 O 0.8540(2) -0.08170(17) 1.01749(13)
H3 H 0.7847 -0.0842 1.0538
H4 H 0.8287 -0.0490 0.9690
N1 N 0.8573(2) 0.1449(2) 1.03848(15)
N2 N 0.5387(2) 0.45231(19) 1.19113(14)
N3 N 0.6028(2) 0.54621(19) 1.06294(14)
N4 N 0.6679(2) 1.06455(19) 0.43820(14)
N5 N 1.1124(2) 1.17349(19) 0.30305(14)
N6 N 0.9562(2) 1.31231(19) 0.24196(14)
C1 C 0.6092(3) 0.4433(2) 1.11241(17)
C2 C 0.4774(3) 0.5708(2) 1.19827(17)
C3 C 0.3278(3) 0.5959(3) 1.19546(19)
H5 H 0.3152 0.5853 1.1407
H6 H 0.2828 0.6725 1.1998
H7 H 0.2894 0.5462 1.2441
C4 C 0.5013(3) 0.5808(3) 1.28443(18)
H8 H 0.4517 0.5382 1.3322
H9 H 0.4703 0.6584 1.2878
H10 H 0.5972 0.5521 1.2888
C5 C 0.5541(3) 0.6320(2) 1.11664(17)
C6 C 0.4685(3) 0.7386(2) 1.06723(19)
H11 H 0.5242 0.7704 1.0163
H12 H 0.4296 0.7910 1.1051
H13 H 0.3964 0.7232 1.0485
C7 C 0.6801(3) 0.6505(3) 1.13359(19)
H14 H 0.7367 0.5804 1.1627
H15 H 0.6543 0.7036 1.1706
H16 H 0.7301 0.6792 1.0783
C8 C 0.6892(3) 0.3402(2) 1.08658(17)
C9 C 0.6740(3) 0.2371(2) 1.13350(19)
H17 H 0.6063 0.2314 1.1823
C10 C 0.7594(3) 0.1431(3) 1.10762(19)
H18 H 0.7485 0.0736 1.1404
C11 C 0.8706(3) 0.2439(2) 0.99393(18)
H19 H 0.9386 0.2470 0.9450
C12 C 0.7910(3) 0.3420(2) 1.01498(17)
H20 H 0.8052 0.4101 0.9812
C13 C 0.9784(3) 1.2145(2) 0.30073(16)
C14 C 1.1875(3) 1.2558(2) 0.25080(18)
C15 C 1.2100(3) 1.3077(3) 0.31773(19)
H21 H 1.1233 1.3481 0.3447
H22 H 1.2645 1.3587 0.2890
H23 H 1.2566 1.2497 0.3624
C16 C 1.3200(3) 1.2000(3) 0.2021(2)
H24 H 1.3849 1.1612 0.2428
H25 H 1.3543 1.2558 0.1571
H26 H 1.3062 1.1472 0.1751
C17 C 1.0846(3) 1.3340(2) 0.19058(17)
C18 C 1.0999(3) 1.2999(3) 0.10481(18)
H27 H 1.1056 1.2214 0.1168
H28 H 1.1818 1.3133 0.0677
H29 H 1.0222 1.3434 0.0752
C19 C 1.0762(3) 1.4549(3) 0.17332(19)
H30 H 1.0079 1.4981 0.1357
H31 H 1.1633 1.4664 0.1446
H32 H 1.0520 1.4784 0.2284
C20 C 0.8742(3) 1.1622(2) 0.35117(17)
C21 C 0.7397(3) 1.2220(3) 0.35231(19)
H33 H 0.7154 1.2977 0.3237
C22 C 0.6420(3) 1.1702(3) 0.39545(19)
H34 H 0.5508 1.2121 0.3947
C23 C 0.7977(3) 1.0073(2) 0.43920(17)
H35 H 0.8184 0.9325 0.4701
C24 C 0.9027(3) 1.0521(2) 0.39744(17)
H36 H 0.9929 1.0086 0.4002
C25 C 0.8830(4) 0.0733(3) 0.8286(2)
C26 C 0.8830(3) 0.1407(3) 0.73533(19)
C27 C 0.9781(3) 0.1973(3) 0.6972(2)
H37 H 1.0453 0.1928 0.7291
C28 C 0.9765(3) 0.2605(3) 0.6130(2)
H38 H 1.0427 0.2986 0.5873
C29 C 0.8784(3) 0.2678(2) 0.56698(18)
C30 C 0.7830(3) 0.2108(2) 0.60278(19)
H39 H 0.7169 0.2151 0.5701
C31 C 0.7855(4) 0.1470(3) 0.6875(2)
H40 H 0.7204 0.1077 0.7127
C32 C 0.8201(3) 0.4448(2) 0.47078(18)
C33 C 0.7676(3) 0.4969(2) 0.53981(18)
H41 H 0.7712 0.4556 0.5980
C34 C 0.7099(3) 0.6099(2) 0.52242(18)
H42 H 0.6729 0.6452 0.5696
C35 C 0.7043(3) 0.6735(2) 0.43808(17)
C36 C 0.7595(3) 0.6191(3) 0.36997(18)
H43 H 0.7577 0.6605 0.3118
C37 C 0.8166(3) 0.5062(3) 0.38570(18)
H44 H 0.8533 0.4706 0.3386
C38 C 0.6396(3) 0.7957(2) 0.42156(17)
O3A O -0.17038(19) 0.91669(16) 0.64677(12)
O4A O 0.15664(19) 0.62230(17) 0.77945(12)
O5A O 0.3897(2) 1.15390(18) 0.65340(13)
O6A O 0.38389(18) 1.15892(16) 0.51472(12)
O7A O 0.1238(2) 1.66858(16) 0.51865(12)
O8A O 0.0255(2) 1.92871(18) 0.13132(13)
O9A O 0.2069(3) 1.9761(2) 0.13992(15)
O10A O 0.55827(18) 0.96610(16) 0.62205(12)
H1A H 0.6374 0.9634 0.6241
H2A H 0.5080 1.0196 0.6429
N4A N 0.3321(2) 0.93545(19) 0.56180(14)
N5A N -0.1124(2) 0.82651(19) 0.69695(14)
N6A N 0.0438(2) 0.68769(19) 0.75804(14)
C13A C 0.0216(3) 0.7855(2) 0.69927(16)
C14A C -0.1875(3) 0.7442(2) 0.74920(18)
C15A C -0.2100(3) 0.6923(3) 0.68227(19)
H21A H -0.1233 0.6519 0.6553
H22A H -0.2645 0.6413 0.7110
H23A H -0.2566 0.7503 0.6376
C16A C -0.3200(3) 0.8000(3) 0.7979(2)
H24A H -0.3849 0.8388 0.7572
H25A H -0.3543 0.7442 0.8429
H26A H -0.3062 0.8528 0.8249
C17A C -0.0846(3) 0.6660(2) 0.80942(17)
C18A C -0.0999(3) 0.7001(3) 0.89519(18)
H27A H -0.1056 0.7786 0.8832
H28A H -0.1818 0.6867 0.9323
H29A H -0.0222 0.6566 0.9248
C19A C -0.0762(3) 0.5451(3) 0.82668(19)
H30A H -0.0079 0.5019 0.8643
H31A H -0.1633 0.5336 0.8554
H32A H -0.0520 0.5216 0.7716
C20A C 0.1258(3) 0.8378(2) 0.64883(17)
C21A C 0.2603(3) 0.7780(3) 0.64769(19)
H33A H 0.2846 0.7023 0.6763
C22A C 0.3580(3) 0.8298(3) 0.60455(19)
H34A H 0.4492 0.7879 0.6053
C23A C 0.2023(3) 0.9927(2) 0.56080(17)
H35A H 0.1816 1.0675 0.5299
C24A C 0.0973(3) 0.9479(2) 0.60256(17)
H36A H 0.0071 0.9914 0.5998
C25A C 0.1170(4) 1.9267(3) 0.1714(2)
C26A C 0.1170(3) 1.8593(3) 0.26467(19)
C27A C 0.0219(3) 1.8027(3) 0.3028(2)
H37A H -0.0453 1.8072 0.2709
C28A C 0.0235(3) 1.7395(3) 0.3870(2)
H38A H -0.0427 1.7014 0.4127
C29A C 0.1216(3) 1.7322(2) 0.43302(18)
C30A C 0.2170(3) 1.7892(2) 0.39722(19)
H39A H 0.2831 1.7849 0.4299
C31A C 0.2145(4) 1.8530(3) 0.3125(2)
H40A H 0.2796 1.8923 0.2873
C32A C 0.1799(3) 1.5552(2) 0.52922(18)
C33A C 0.2324(3) 1.5031(2) 0.46019(18)
H41A H 0.2288 1.5444 0.4020
C34A C 0.2901(3) 1.3901(2) 0.47758(18)
H42A H 0.3271 1.3548 0.4304
C35A C 0.2957(3) 1.3265(2) 0.56192(17)
C36A C 0.2405(3) 1.3809(3) 0.63003(18)
H43A H 0.2423 1.3395 0.6882
C37A C 0.1834(3) 1.4938(3) 0.61430(18)
H44A H 0.1467 1.5294 0.6614
C38A C 0.3604(3) 1.2043(2) 0.57844(17)
O1A O 1.4876(2) -0.37457(17) 0.74668(13)
O2A O 1.3556(2) -0.57187(17) 1.01942(12)
N1A N 1.1427(2) -0.1449(2) 0.96152(15)
N2A N 1.4613(2) -0.45231(19) 0.80887(14)
N3A N 1.3972(2) -0.54621(19) 0.93706(14)
C1A C 1.3908(3) -0.4433(2) 0.88759(17)
C2A C 1.5226(3) -0.5708(2) 0.80173(17)
C3A C 1.6722(3) -0.5959(3) 0.80454(19)
H5A H 1.6848 -0.5853 0.8593
H6A H 1.7172 -0.6725 0.8002
H7A H 1.7106 -0.5462 0.7559
C4A C 1.4987(3) -0.5808(3) 0.71557(18)
H8A H 1.5483 -0.5382 0.6678
H9A H 1.5297 -0.6584 0.7122
H10A H 1.4028 -0.5521 0.7112
C5A C 1.4459(3) -0.6320(2) 0.88336(17)
C6A C 1.5315(3) -0.7386(2) 0.93277(19)
H11A H 1.4758 -0.7704 0.9837
H12A H 1.5704 -0.7910 0.8949
H13A H 1.6036 -0.7232 0.9515
C7A C 1.3199(3) -0.6505(3) 0.86641(19)
H14A H 1.2633 -0.5804 0.8373
H15A H 1.3457 -0.7036 0.8294
H16A H 1.2699 -0.6792 0.9217
C8A C 1.3108(3) -0.3402(2) 0.91342(17)
C9A C 1.3260(3) -0.2371(2) 0.86650(19)
H17A H 1.3937 -0.2314 0.8177
C10A C 1.2406(3) -0.1431(3) 0.89238(19)
H18A H 1.2515 -0.0736 0.8596
C11A C 1.1294(3) -0.2439(2) 1.00607(18)
H19A H 1.0614 -0.2470 1.0550
C12A C 1.2090(3) -0.3420(2) 0.98502(17)
H20A H 1.1948 -0.4101 1.0188
O11A O 1.1460(2) 0.08170(17) 0.98251(13)
H3A H 1.2153 0.0842 0.9462
H4A H 1.1713 0.0490 1.0310
Co2_2 Co 0.0000 2.0000 0.0000
O8A_2 O 1.0255(2) -0.07129(18) 1.13132(13)
O12 O 0.4439(15) 0.0110(13) 0.0870(10)
O15 O 0.6640(6) 0.9077(4) 0.1678(3)
O13? O 0.4954(16) -0.0138(16) 0.0924(13)
O14? O 0.7443(7) 0.8790(5) 0.1828(4)
loop_
_geom_bond_atom_site_label_1
_geom_bond_atom_site_label_2
_geom_bond_site_symmetry_1
_geom_bond_site_symmetry_2
Co1 O6 1_555 1_555
Co2 O8 1_555 1_555
O1 N2 1_555 1_555
O2 N3 1_555 1_555
O3 N5 1_555 1_555
O4 N6 1_555 1_555
O5 C38 1_555 1_555
O6 C38 1_555 1_555
O7 C29 1_555 1_555
O8 C25 1_555 1_555
O9 C25 1_555 1_555
O10 Co1 1_555 1_555
H1 O10 1_555 1_555
H2 O10 1_555 1_555
O11 Co2 1_555 1_555
H3 O11 1_555 1_555
H4 O11 1_555 1_555
N1 Co2 1_555 1_555
N2 C1 1_555 1_555
N3 C1 1_555 1_555
N4 Co1 1_555 1_555
N5 C13 1_555 1_555
N6 C13 1_555 1_555
C1 C8 1_555 1_555
C2 N2 1_555 1_555
C3 C2 1_555 1_555
H5 C3 1_555 1_555
H6 C3 1_555 1_555
H7 C3 1_555 1_555
C4 C2 1_555 1_555
H8 C4 1_555 1_555
H9 C4 1_555 1_555
H10 C4 1_555 1_555
C5 N3 1_555 1_555
C6 C5 1_555 1_555
H11 C6 1_555 1_555
H12 C6 1_555 1_555
H13 C6 1_555 1_555
C7 C5 1_555 1_555
H14 C7 1_555 1_555
H15 C7 1_555 1_555
H16 C7 1_555 1_555
C8 C9 1_555 1_555
C9 H17 1_555 1_555
C10 N1 1_555 1_555
H18 C10 1_555 1_555
C11 N1 1_555 1_555
H19 C11 1_555 1_555
C12 C8 1_555 1_555
H20 C12 1_555 1_555
C13 C20 1_555 1_555
C14 N5 1_555 1_555
C15 C14 1_555 1_555
H21 C15 1_555 1_555
H22 C15 1_555 1_555
H23 C15 1_555 1_555
C16 C14 1_555 1_555
H24 C16 1_555 1_555
H25 C16 1_555 1_555
H26 C16 1_555 1_555
C17 N6 1_555 1_555
C18 C17 1_555 1_555
H27 C18 1_555 1_555
H28 C18 1_555 1_555
H29 C18 1_555 1_555
C19 C17 1_555 1_555
H30 C19 1_555 1_555
H31 C19 1_555 1_555
H32 C19 1_555 1_555
C20 C21 1_555 1_555
C21 H33 1_555 1_555
C22 N4 1_555 1_555
H34 C22 1_555 1_555
C23 N4 1_555 1_555
H35 C23 1_555 1_555
C24 C20 1_555 1_555
H36 C24 1_555 1_555
C25 C26 1_555 1_555
C26 C27 1_555 1_555
C27 H37 1_555 1_555
C28 C27 1_555 1_555
H38 C28 1_555 1_555
C29 C28 1_555 1_555
C30 C29 1_555 1_555
H39 C30 1_555 1_555
C31 C26 1_555 1_555
H40 C31 1_555 1_555
C32 O7 1_555 1_555
C33 C32 1_555 1_555
H41 C33 1_555 1_555
C34 C33 1_555 1_555
H42 C34 1_555 1_555
C35 C34 1_555 1_555
C36 C35 1_555 1_555
H43 C36 1_555 1_555
C37 C32 1_555 1_555
H44 C37 1_555 1_555
C38 C35 1_555 1_555
O3A N5A 1_555 1_555
O4A N6A 1_555 1_555
O5A C38A 1_555 1_555
O6A Co1 1_555 1_555
O7A C29A 1_555 1_555
O8A C25A 1_555 1_555
O9A C25A 1_555 1_555
O10A Co1 1_555 1_555
H1A O10A 1_555 1_555
H2A O10A 1_555 1_555
N4A Co1 1_555 1_555
N5A C13A 1_555 1_555
N6A C13A 1_555 1_555
C13A C20A 1_555 1_555
C14A N5A 1_555 1_555
C15A C14A 1_555 1_555
H21A C15A 1_555 1_555
H22A C15A 1_555 1_555
H23A C15A 1_555 1_555
C16A C14A 1_555 1_555
H24A C16A 1_555 1_555
H25A C16A 1_555 1_555
H26A C16A 1_555 1_555
C17A N6A 1_555 1_555
C18A C17A 1_555 1_555
H27A C18A 1_555 1_555
H28A C18A 1_555 1_555
H29A C18A 1_555 1_555
C19A C17A 1_555 1_555
H30A C19A 1_555 1_555
H31A C19A 1_555 1_555
H32A C19A 1_555 1_555
C20A C21A 1_555 1_555
C21A H33A 1_555 1_555
C22A N4A 1_555 1_555
H34A C22A 1_555 1_555
C23A N4A 1_555 1_555
H35A C23A 1_555 1_555
C24A C20A 1_555 1_555
H36A C24A 1_555 1_555
C25A C26A 1_555 1_555
C26A C27A 1_555 1_555
C27A H37A 1_555 1_555
C28A C27A 1_555 1_555
H38A C28A 1_555 1_555
C29A C28A 1_555 1_555
C30A C29A 1_555 1_555
H39A C30A 1_555 1_555
C31A C26A 1_555 1_555
H40A C31A 1_555 1_555
C32A O7A 1_555 1_555
C33A C32A 1_555 1_555
H41A C33A 1_555 1_555
C34A C33A 1_555 1_555
H42A C34A 1_555 1_555
C35A C34A 1_555 1_555
C36A C35A 1_555 1_555
H43A C36A 1_555 1_555
C37A C32A 1_555 1_555
H44A C37A 1_555 1_555
C38A O6A 1_555 1_555
O1A N2A 1_555 1_555
O2A N3A 1_555 1_555
N1A Co2 1_555 1_555
N2A C1A 1_555 1_555
N3A C1A 1_555 1_555
C1A C8A 1_555 1_555
C2A N2A 1_555 1_555
C3A C2A 1_555 1_555
H5A C3A 1_555 1_555
H6A C3A 1_555 1_555
H7A C3A 1_555 1_555
C4A C2A 1_555 1_555
H8A C4A 1_555 1_555
H9A C4A 1_555 1_555
H10A C4A 1_555 1_555
C5A N3A 1_555 1_555
C6A C5A 1_555 1_555
H11A C6A 1_555 1_555
H12A C6A 1_555 1_555
H13A C6A 1_555 1_555
C7A C5A 1_555 1_555
H14A C7A 1_555 1_555
H15A C7A 1_555 1_555
H16A C7A 1_555 1_555
C8A C9A 1_555 1_555
C9A H17A 1_555 1_555
C10A N1A 1_555 1_555
H18A C10A 1_555 1_555
C11A N1A 1_555 1_555
H19A C11A 1_555 1_555
C12A C8A 1_555 1_555
H20A C12A 1_555 1_555
O11A Co2 1_555 1_555
H3A O11A 1_555 1_555
H4A O11A 1_555 1_555
Co2_2 O8A 1_555 1_555
O8A_2 Co2 1_555 1_555
C2 C5 1_555 1_555
C9 C10 1_555 1_555
C11 C12 1_555 1_555
C14 C17 1_555 1_555
C21 C22 1_555 1_555
C23 C24 1_555 1_555
C30 C31 1_555 1_555
C36 C37 1_555 1_555
C14A C17A 1_555 1_555
C21A C22A 1_555 1_555
C23A C24A 1_555 1_555
C30A C31A 1_555 1_555
C35A C38A 1_555 1_555
C36A C37A 1_555 1_555
C2A C5A 1_555 1_555
C9A C10A 1_555 1_555
C11A C12A 1_555 1_555

#END
