
#######################################################################
#
#                 Cambridge Crystallographic Data Centre
#                                CCDC 
#
#######################################################################
#
# If this CIF has been generated from an entry in the Cambridge 
# Structural Database, then it will include bibliographic, chemical, 
# crystal, experimental, refinement or atomic coordinate data resulting 
# from the CCDC's data processing and validation procedures.
#
#######################################################################

data_DEXZOX
_symmetry_cell_setting           monoclinic
_symmetry_space_group_name_H-M   'P 21/c'
_symmetry_Int_Tables_number      14
_space_group_name_Hall           '-P 2ybc'
loop_
_symmetry_equiv_pos_site_id
_symmetry_equiv_pos_as_xyz
1 x,y,z
2 -x,1/2+y,1/2-z
3 -x,-y,-z
4 x,1/2-y,1/2+z
_cell_length_a                   9.1460(7)
_cell_length_b                   28.629(2)
_cell_length_c                   16.7680(12)
_cell_angle_alpha                90
_cell_angle_beta                 103.8460(10)
_cell_angle_gamma                90
_cell_volume                     4262.97
loop_
_atom_site_label
_atom_site_type_symbol
_atom_site_fract_x
_atom_site_fract_y
_atom_site_fract_z
C1 C 0.6934(8) 0.4199(2) 0.9117(4)
C2 C 0.6586(12) 0.3804(3) 0.8525(5)
H1 H 0.5603 0.3859 0.8163
H2 H 0.7316 0.3807 0.8190
C3 C 0.6583(11) 0.3330(2) 0.8882(5)
H3 H 0.6019 0.3342 0.9304
H4 H 0.7612 0.3247 0.9149
C4 C 0.5923(10) 0.2944(2) 0.8277(4)
C5 C 0.6140(11) 0.2929(3) 0.7487(5)
H5 H 0.6691 0.3163 0.7309
C6 C 0.5536(11) 0.2564(3) 0.6957(4)
C7 C 0.4753(9) 0.2205(2) 0.7201(4)
C8 C 0.4572(9) 0.2215(2) 0.7998(5)
C9 C 0.5130(9) 0.2583(2) 0.8517(4)
H6 H 0.4964 0.2587 0.9043
C10 C 0.5101(11) 0.1463(3) 0.6663(6)
H7 H 0.5397 0.1334 0.7206
H8 H 0.5980 0.1564 0.6492
H9 H 0.4582 0.1230 0.6290
C11 C 0.5835(7) 0.4813(2) 1.1494(4)
C12 C 0.5067(7) 0.4780(2) 1.2191(4)
H10 H 0.4501 0.5066 1.2206
H11 H 0.4352 0.4524 1.2082
C13 C 0.6100(8) 0.4707(3) 1.3016(4)
H12 H 0.6695 0.4988 1.3163
H13 H 0.6790 0.4457 1.2971
C14 C 0.5373(8) 0.4592(2) 1.3702(4)
C15 C 0.6272(8) 0.4432(2) 1.4446(4)
H14 H 0.7304 0.4401 1.4503
C16 C 0.5660(9) 0.4317(2) 1.5100(4)
C17 C 0.4133(10) 0.4364(2) 1.5041(4)
C18 C 0.3210(8) 0.4528(2) 1.4301(4)
C19 C 0.3831(8) 0.4642(2) 1.3643(4)
H15 H 0.3209 0.4753 1.3158
C20 C 0.2980(14) 0.3803(3) 1.5770(6)
H16 H 0.3791 0.3586 1.5803
H17 H 0.2192 0.3736 1.5293
H18 H 0.2595 0.3777 1.6253
C21 C 0.9262(7) 0.5645(2) 0.9129(4)
C22 C 0.9289(8) 0.6019(3) 0.8494(5)
H19 H 0.9056 0.5874 0.7955
H20 H 0.8496 0.6242 0.8504
C23 C 1.0752(9) 0.6282(3) 0.8599(6)
H21 H 1.1546 0.6066 0.8556
H22 H 1.1017 0.6422 0.9142
C24 C 1.0633(9) 0.6665(3) 0.7952(5)
C25 C 1.0990(9) 0.6561(3) 0.7206(5)
H23 H 1.1301 0.6261 0.7108
C26 C 1.0879(9) 0.6905(3) 0.6610(5)
C27 C 1.0374(9) 0.7350(3) 0.6725(5)
C28 C 1.0046(10) 0.7452(3) 0.7480(5)
C29 C 1.0185(10) 0.7110(3) 0.8087(5)
H24 H 0.9972 0.7185 0.8587
C30 C 0.8805(13) 0.7688(3) 0.5532(6)
H25 H 0.8000 0.7706 0.5807
H26 H 0.8723 0.7402 0.5224
H27 H 0.8745 0.7949 0.5166
C31 C 0.9645(11) 0.5516(4) 1.1999(5)
H28 H 1.0102 0.5241 1.2280
H29 H 0.8692 0.5570 1.2129
H30 H 1.0292 0.5779 1.2169
C32 C 0.7139(10) 0.6223(3) 1.0559(6)
H31 H 0.6598 0.6395 1.0089
H32 H 0.8175 0.6195 1.0539
H33 H 0.7076 0.6384 1.1051
Eu1 Eu 0.73891(3) 0.500588(10) 1.018972(18)
I1 I 0.58847(10) 0.25768(2) 0.57682(4)
I2 I 0.34952(7) 0.16618(2) 0.84477(4)
I3 I 0.70983(8) 0.40669(2) 1.61789(3)
I4 I 0.09132(7) 0.46181(2) 1.41884(4)
I5 I 0.93596(10) 0.81260(2) 0.77170(4)
I6 I 1.14575(7) 0.67433(2) 0.55052(4)
O1 O 0.7634(5) 0.45476(15) 0.8944(3)
O2 O 0.6480(5) 0.41930(15) 0.9783(3)
O3 O 0.4125(6) 0.18534(17) 0.6666(3)
O4 O 0.5046(5) 0.48945(14) 1.0765(2)
O5 O 0.7227(5) 0.47716(18) 1.1608(3)
O6 O 0.3533(8) 0.42791(19) 1.5712(3)
O7 O 0.8026(5) 0.55564(16) 0.9276(3)
O8 O 1.0247(8) 0.7698(2) 0.6138(4)
O9 O 1.0450(5) 0.54552(16) 0.9480(3)
O10 O 0.9422(5) 0.54519(19) 1.1148(3)
H34 H 1.021(7) 0.555(3) 1.097(5)
O11 O 0.6501(5) 0.57725(16) 1.0555(3)
H35 H 0.549(2) 0.577(3) 1.041(5)
Eu1B Eu 0.26109(3) 0.499412(10) 0.981028(18)
Eu1B_2 Eu 1.26109(3) 0.499412(10) 0.981028(18)
O4B O 0.4954(5) 0.51055(14) 0.9235(2)
O9B O 0.9550(5) 0.45448(16) 1.0520(3)
loop_
_geom_bond_atom_site_label_1
_geom_bond_atom_site_label_2
_geom_bond_site_symmetry_1
_geom_bond_site_symmetry_2
C1 C2 1_555 1_555
C2 H1 1_555 1_555
H2 C2 1_555 1_555
C3 C2 1_555 1_555
H3 C3 1_555 1_555
H4 C3 1_555 1_555
C4 C3 1_555 1_555
C5 C4 1_555 1_555
H5 C5 1_555 1_555
C6 C5 1_555 1_555
C7 C6 1_555 1_555
C8 C7 1_555 1_555
C9 C4 1_555 1_555
H6 C9 1_555 1_555
C10 H7 1_555 1_555
H8 C10 1_555 1_555
H9 C10 1_555 1_555
C11 C12 1_555 1_555
C12 H10 1_555 1_555
H11 C12 1_555 1_555
C13 C12 1_555 1_555
H12 C13 1_555 1_555
H13 C13 1_555 1_555
C14 C13 1_555 1_555
C15 C14 1_555 1_555
H14 C15 1_555 1_555
C16 C15 1_555 1_555
C17 C16 1_555 1_555
C18 C17 1_555 1_555
C19 C14 1_555 1_555
H15 C19 1_555 1_555
C20 H16 1_555 1_555
H17 C20 1_555 1_555
H18 C20 1_555 1_555
C21 C22 1_555 1_555
C22 H19 1_555 1_555
H20 C22 1_555 1_555
C23 C22 1_555 1_555
H21 C23 1_555 1_555
H22 C23 1_555 1_555
C24 C23 1_555 1_555
C25 C24 1_555 1_555
H23 C25 1_555 1_555
C26 C25 1_555 1_555
C27 C26 1_555 1_555
C28 C27 1_555 1_555
C29 C24 1_555 1_555
H24 C29 1_555 1_555
C30 H25 1_555 1_555
H26 C30 1_555 1_555
H27 C30 1_555 1_555
C31 H28 1_555 1_555
H29 C31 1_555 1_555
H30 C31 1_555 1_555
C32 H31 1_555 1_555
H32 C32 1_555 1_555
H33 C32 1_555 1_555
Eu1 O1 1_555 1_555
I1 C6 1_555 1_555
I2 C8 1_555 1_555
I3 C16 1_555 1_555
I4 C18 1_555 1_555
I5 C28 1_555 1_555
I6 C26 1_555 1_555
O1 C1 1_555 1_555
O2 C1 1_555 1_555
O3 C7 1_555 1_555
O4 C11 1_555 1_555
O5 C11 1_555 1_555
O6 C17 1_555 1_555
O7 C21 1_555 1_555
O8 C27 1_555 1_555
O9 C21 1_555 1_555
O10 C31 1_555 1_555
H34 O10 1_555 1_555
O11 C32 1_555 1_555
H35 O11 1_555 1_555
Eu1B O4 1_555 1_555
Eu1B_2 O9 1_555 1_555
O4B Eu1 1_555 1_555
O9B Eu1 1_555 1_555
C8 C9 1_555 1_555
C10 O3 1_555 1_555
C18 C19 1_555 1_555
C20 O6 1_555 1_555
C28 C29 1_555 1_555
C30 O8 1_555 1_555
Eu1 O2 1_555 1_555
Eu1 O4 1_555 1_555
Eu1 O5 1_555 1_555
Eu1 O7 1_555 1_555
Eu1 O10 1_555 1_555
Eu1 O11 1_555 1_555
Eu1B O4B 1_555 1_555

#END
