
#######################################################################
#
#                 Cambridge Crystallographic Data Centre
#                                CCDC 
#
#######################################################################
#
# If this CIF has been generated from an entry in the Cambridge 
# Structural Database, then it will include bibliographic, chemical, 
# crystal, experimental, refinement or atomic coordinate data resulting 
# from the CCDC's data processing and validation procedures.
#
#######################################################################

data_DEYCUH
_symmetry_cell_setting           monoclinic
_symmetry_space_group_name_H-M   'P 21/c'
_symmetry_Int_Tables_number      14
_space_group_name_Hall           '-P 2ybc'
loop_
_symmetry_equiv_pos_site_id
_symmetry_equiv_pos_as_xyz
1 x,y,z
2 -x,1/2+y,1/2-z
3 -x,-y,-z
4 x,1/2-y,1/2+z
_cell_length_a                   11.203(3)
_cell_length_b                   12.323(4)
_cell_length_c                   11.798(3)
_cell_angle_alpha                90
_cell_angle_beta                 109.898(5)
_cell_angle_gamma                90
_cell_volume                     1531.53
loop_
_atom_site_label
_atom_site_type_symbol
_atom_site_fract_x
_atom_site_fract_y
_atom_site_fract_z
C1 C 0.2833(5) 0.4410(4) 0.5839(5)
H1 H 0.3443 0.3993 0.6403
C2 C 0.1613(5) 0.4405(5) 0.5863(5)
H2 H 0.1420 0.4005 0.6446
C3 C 0.0672(4) 0.4999(4) 0.5017(5)
C4 C 0.1037(5) 0.5598(4) 0.4210(5)
H3 H 0.0446 0.6021 0.3635
C5 C 0.2291(5) 0.5573(4) 0.4255(5)
H4 H 0.2519 0.5990 0.3704
C6 C -0.0840(5) 0.3324(5) 0.1549(6)
C7 C 0.0531(4) 0.3140(4) 0.2281(5)
C8 C 0.1461(5) 0.3671(4) 0.1948(5)
H5 H 0.1228 0.4140 0.1292
C9 C 0.2734(4) 0.3498(4) 0.2599(5)
C10 C 0.3115(4) 0.2776(4) 0.3568(4)
C11 C 0.4499(4) 0.2583(4) 0.4322(4)
C12 C 0.2177(4) 0.2227(4) 0.3884(5)
H6 H 0.2407 0.1728 0.4514
C13 C 0.0905(4) 0.2430(4) 0.3254(5)
H7 H 0.0289 0.2083 0.3487
Ni1 Ni 0.5000 0.5000 0.5000
Mn1 Mn 0.30846(7) 0.62508(7) 0.00499(8)
N1 N 0.3181(3) 0.4980(3) 0.5050(4)
O1 O -0.1082(3) 0.3900(4) 0.0627(4)
O2 O -0.1696(3) 0.2896(3) 0.1864(4)
O3 O 0.3227(3) 0.4734(3) 0.1033(3)
O4 O 0.4303(3) 0.5123(3) 0.3128(3)
O5 O 0.4876(3) 0.3521(3) 0.2214(3)
O6 O 0.5131(3) 0.3322(3) 0.4931(3)
O7 O 0.4913(3) 0.1630(3) 0.4270(3)
O8 O 0.2934(4) 0.7354(4) 0.1422(4)
H8 H 0.365(3) 0.760(5) 0.181(5)
H9 H 0.242(4) 0.744(6) 0.180(5)
O9 O 0.3474(3) 0.5242(3) -0.1284(4)
H10 H 0.384(5) 0.561(3) -0.165(5)
H11 H 0.382(4) 0.463(2) -0.107(5)
S1 S 0.38796(11) 0.42697(11) 0.22190(12)
C1B C -0.2833(5) 0.5590(4) 0.4161(5)
H1B H -0.3443 0.6007 0.3597
C2B C -0.1613(5) 0.5595(5) 0.4137(5)
H2B H -0.1420 0.5995 0.3554
C3B C -0.0672(4) 0.5001(4) 0.4983(5)
C4B C -0.1037(5) 0.4402(4) 0.5790(5)
H3B H -0.0446 0.3979 0.6365
C5B C -0.2291(5) 0.4427(4) 0.5745(5)
H4B H -0.2519 0.4010 0.6296
N1B N -0.3181(3) 0.5020(3) 0.4950(4)
C6B C 0.0840(5) 0.6676(5) -0.1549(6)
C7B C -0.0531(4) 0.6860(4) -0.2281(5)
C8B C -0.1461(5) 0.6329(4) -0.1948(5)
H5B H -0.1228 0.5860 -0.1292
C9B C -0.2734(4) 0.6502(4) -0.2599(5)
C10B C -0.3115(4) 0.7224(4) -0.3568(4)
C11B C -0.4499(4) 0.7417(4) -0.4322(4)
C12B C -0.2177(4) 0.7773(4) -0.3884(5)
H6B H -0.2407 0.8272 -0.4514
C13B C -0.0905(4) 0.7570(4) -0.3254(5)
H7B H -0.0289 0.7917 -0.3487
Mn1B Mn -0.30846(7) 0.37492(7) -0.00499(8)
O1B O 0.1082(3) 0.6100(4) -0.0627(4)
O2B O 0.1696(3) 0.7104(3) -0.1864(4)
O3B O -0.3227(3) 0.5266(3) -0.1033(3)
O4B O -0.4303(3) 0.4877(3) -0.3128(3)
O5B O -0.4876(3) 0.6479(3) -0.2214(3)
O6B O -0.5131(3) 0.6678(3) -0.4931(3)
O7B O -0.4913(3) 0.8370(3) -0.4270(3)
O8B O -0.2934(4) 0.2646(4) -0.1422(4)
H8B H -0.365(3) 0.240(5) -0.181(5)
H9B H -0.242(4) 0.256(6) -0.180(5)
O9B O -0.3474(3) 0.4758(3) 0.1284(4)
H10B H -0.384(5) 0.439(3) 0.165(5)
H11B H -0.382(4) 0.537(2) 0.107(5)
S1B S -0.38796(11) 0.57303(11) -0.22190(12)
Ni1_2 Ni -0.5000 0.5000 -0.5000
Ni1_3 Ni -0.5000 0.5000 0.5000
Mn1A Mn 0.69154(7) 0.12508(7) 0.49501(8)
Mn1C Mn -0.69154(7) 0.87492(7) -0.49501(8)
N1B_2 N 0.6819(3) 0.5020(3) 0.4950(4)
O4B_2 O 0.5697(3) 0.4877(3) 0.6872(3)
O6B_2 O 0.4869(3) 0.6678(3) 0.5069(3)
O7A O 0.5087(3) 0.6630(3) 0.0730(3)
O7C O -0.5087(3) 0.3370(3) -0.0730(3)
loop_
_geom_bond_atom_site_label_1
_geom_bond_atom_site_label_2
_geom_bond_site_symmetry_1
_geom_bond_site_symmetry_2
C1 H1 1_555 1_555
C2 C1 1_555 1_555
H2 C2 1_555 1_555
C3 C2 1_555 1_555
C4 C3 1_555 1_555
H3 C4 1_555 1_555
C5 C4 1_555 1_555
H4 C5 1_555 1_555
C6 C7 1_555 1_555
C7 C8 1_555 1_555
C8 H5 1_555 1_555
C9 C8 1_555 1_555
C10 C9 1_555 1_555
C11 C10 1_555 1_555
C12 C10 1_555 1_555
H6 C12 1_555 1_555
C13 C7 1_555 1_555
H7 C13 1_555 1_555
Ni1 N1 1_555 1_555
Mn1 O3 1_555 1_555
N1 C1 1_555 1_555
O1 C6 1_555 1_555
O2 C6 1_555 1_555
O3 S1 1_555 1_555
O4 Ni1 1_555 1_555
O5 S1 1_555 1_555
O6 C11 1_555 1_555
O7 C11 1_555 1_555
O8 Mn1 1_555 1_555
H8 O8 1_555 1_555
H9 O8 1_555 1_555
O9 Mn1 1_555 1_555
H10 O9 1_555 1_555
H11 O9 1_555 1_555
S1 C9 1_555 1_555
C1B H1B 1_555 1_555
C2B C1B 1_555 1_555
H2B C2B 1_555 1_555
C3B C3 1_555 1_555
C4B C3B 1_555 1_555
H3B C4B 1_555 1_555
C5B C4B 1_555 1_555
H4B C5B 1_555 1_555
N1B C1B 1_555 1_555
C6B C7B 1_555 1_555
C7B C8B 1_555 1_555
C8B H5B 1_555 1_555
C9B C8B 1_555 1_555
C10B C9B 1_555 1_555
C11B C10B 1_555 1_555
C12B C10B 1_555 1_555
H6B C12B 1_555 1_555
C13B C7B 1_555 1_555
H7B C13B 1_555 1_555
Mn1B O1 1_555 1_555
O1B Mn1 1_555 1_555
O2B C6B 1_555 1_555
O3B Mn1B 1_555 1_555
O4B S1B 1_555 1_555
O5B S1B 1_555 1_555
O6B C11B 1_555 1_555
O7B C11B 1_555 1_555
O8B Mn1B 1_555 1_555
H8B O8B 1_555 1_555
H9B O8B 1_555 1_555
O9B Mn1B 1_555 1_555
H10B O9B 1_555 1_555
H11B O9B 1_555 1_555
S1B C9B 1_555 1_555
Ni1_2 O4B 1_555 1_555
Ni1_3 N1B 1_555 1_555
Mn1A O7 1_555 1_555
Mn1C O7B 1_555 1_555
N1B_2 Ni1 1_555 1_555
O4B_2 Ni1 1_555 1_555
O6B_2 Ni1 1_555 1_555
O7A Mn1 1_555 1_555
O7C Mn1B 1_555 1_555
C5 N1 1_555 1_555
C12 C13 1_555 1_555
Ni1 O6 1_555 1_555
O4 S1 1_555 1_555
C2B C3B 1_555 1_555
C5B N1B 1_555 1_555
C6B O1B 1_555 1_555
C12B C13B 1_555 1_555
O3B S1B 1_555 1_555
O6B Ni1_2 1_555 1_555

#END
