
#######################################################################
#
#                 Cambridge Crystallographic Data Centre
#                                CCDC 
#
#######################################################################
#
# If this CIF has been generated from an entry in the Cambridge 
# Structural Database, then it will include bibliographic, chemical, 
# crystal, experimental, refinement or atomic coordinate data resulting 
# from the CCDC's data processing and validation procedures.
#
#######################################################################

data_DEYDES
_symmetry_cell_setting           monoclinic
_symmetry_space_group_name_H-M   'C 2/c'
_symmetry_Int_Tables_number      15
_space_group_name_Hall           '-C 2yn'
loop_
_symmetry_equiv_pos_site_id
_symmetry_equiv_pos_as_xyz
1 x,y,z
2 -x,y,1/2-z
3 1/2+x,1/2+y,z
4 1/2-x,1/2+y,1/2-z
5 -x,-y,-z
6 x,-y,1/2+z
7 1/2-x,1/2-y,-z
8 1/2+x,1/2-y,1/2+z
_cell_length_a                   21.744(3)
_cell_length_b                   10.0151(12)
_cell_length_c                   14.7122(17)
_cell_angle_alpha                90
_cell_angle_beta                 110.2850(10)
_cell_angle_gamma                90
_cell_volume                     3005.15
loop_
_atom_site_label
_atom_site_type_symbol
_atom_site_fract_x
_atom_site_fract_y
_atom_site_fract_z
C1 C 0.16881(9) 0.59198(17) 0.12767(13)
H1 H 0.1323 0.6508 0.1181
C2 C 0.23175(9) 0.64754(18) 0.15781(13)
H2 H 0.2378 0.7416 0.1702
C3 C 0.28414(9) 0.5664(2) 0.16985(12)
H3 H 0.3278 0.6022 0.1917
C4 C 0.27379(8) 0.42922(18) 0.15017(11)
C5 C 0.20875(8) 0.38149(16) 0.12060(10)
C6 C 0.19630(7) 0.24140(16) 0.09738(10)
C7 C 0.24935(9) 0.15612(17) 0.10371(12)
C8 C 0.31471(9) 0.2092(2) 0.13448(13)
H4 H 0.3507 0.1508 0.1393
C9 C 0.32625(9) 0.3389(2) 0.15653(13)
H5 H 0.3703 0.3724 0.1771
C10 C 0.23528(9) 0.02181(18) 0.07802(13)
H6 H 0.2700 -0.0398 0.0822
C11 C 0.17176(10) -0.02064(18) 0.04691(13)
H7 H 0.1611 -0.1117 0.0275
C12 C 0.12214(9) 0.07037(16) 0.04318(12)
H8 H 0.0777 0.0391 0.0215
C13 C 0.02144(7) 0.11260(14) 0.16578(10)
C14 C 0.00782(7) -0.01702(14) 0.20763(10)
C15 C 0.01500(7) -0.13765(13) 0.16599(10)
H9 H 0.0245 -0.1375 0.1069
C16 C 0.02426(7) -0.38537(13) 0.16570(10)
C17 C 0.00818(7) -0.25890(13) 0.20763(9)
Ca1 Ca 0.043078(14) 0.35684(3) 0.090531(19)
N1 N 0.15658(6) 0.46280(13) 0.11073(9)
N2 N 0.13309(6) 0.19816(13) 0.06824(9)
O1 O -0.00576(5) 0.13288(10) 0.07658(7)
O2 O 0.06096(5) 0.19350(10) 0.22232(7)
O3 O -0.06715(6) 0.36760(14) 0.11476(9)
O4 O 0.00620(5) -0.39589(10) 0.07424(7)
O5 O 0.05732(5) -0.47377(9) 0.22101(7)
H10 H -0.0724(12) 0.427(3) 0.1518(18)
H11 H -0.0739(13) 0.296(3) 0.1430(19)
C13A C -0.02144(7) 0.11260(14) 0.33422(10)
C14A C -0.00782(7) -0.01702(14) 0.29237(10)
C15A C -0.01500(7) -0.13765(13) 0.33401(10)
H9A H -0.0245 -0.1375 0.3931
O1A O 0.00576(5) 0.13288(10) 0.42342(7)
O2A O -0.06096(5) 0.19350(10) 0.27768(7)
C16A C -0.02426(7) -0.38537(13) 0.33430(10)
C17A C -0.00818(7) -0.25890(13) 0.29237(9)
O4A O -0.00620(5) -0.39589(10) 0.42576(7)
O5A O -0.05732(5) -0.47377(9) 0.27899(7)
C1A C -0.16881(9) 0.59198(17) 0.37233(13)
H1A H -0.1323 0.6508 0.3819
C2A C -0.23175(9) 0.64754(18) 0.34219(13)
H2A H -0.2378 0.7416 0.3298
C3A C -0.28414(9) 0.5664(2) 0.33015(12)
H3A H -0.3278 0.6022 0.3083
C4A C -0.27379(8) 0.42922(18) 0.34983(11)
C5A C -0.20875(8) 0.38149(16) 0.37940(10)
C6A C -0.19630(7) 0.24140(16) 0.40262(10)
C7A C -0.24935(9) 0.15612(17) 0.39629(12)
C8A C -0.31471(9) 0.2092(2) 0.36552(13)
H4A H -0.3507 0.1508 0.3607
C9A C -0.32625(9) 0.3389(2) 0.34347(13)
H5A H -0.3703 0.3724 0.3229
C10A C -0.23528(9) 0.02181(18) 0.42198(13)
H6A H -0.2700 -0.0398 0.4178
C11A C -0.17176(10) -0.02064(18) 0.45309(13)
H7A H -0.1611 -0.1117 0.4725
C12A C -0.12214(9) 0.07037(16) 0.45682(12)
H8A H -0.0777 0.0391 0.4785
Ca1A Ca -0.043078(14) 0.35684(3) 0.409469(19)
N1A N -0.15658(6) 0.46280(13) 0.38927(9)
N2A N -0.13309(6) 0.19816(13) 0.43176(9)
O3A O 0.06715(6) 0.36760(14) 0.38524(9)
H10A H 0.0724(12) 0.427(3) 0.3482(18)
H11A H 0.0739(13) 0.296(3) 0.3570(19)
Ca1_2 Ca 0.043078(14) -0.64316(3) 0.090531(19)
Ca1A_2 Ca -0.043078(14) -0.64316(3) 0.409469(19)
Ca1D Ca -0.043078(14) -0.35684(3) -0.090531(19)
Ca1E Ca 0.043078(14) -0.35684(3) 0.590531(19)
O4_2 O 0.00620(5) 0.60411(10) 0.07424(7)
O4A_2 O -0.00620(5) 0.60411(10) 0.42576(7)
O4D O -0.00620(5) 0.39589(10) -0.07424(7)
O4E O 0.00620(5) 0.39589(10) 0.57424(7)
O5_2 O 0.05732(5) 0.52623(9) 0.22101(7)
O5A_2 O -0.05732(5) 0.52623(9) 0.27899(7)
loop_
_geom_bond_atom_site_label_1
_geom_bond_atom_site_label_2
_geom_bond_site_symmetry_1
_geom_bond_site_symmetry_2
C1 H1 1_555 1_555
C2 C1 1_555 1_555
H2 C2 1_555 1_555
C3 C2 1_555 1_555
H3 C3 1_555 1_555
C4 C3 1_555 1_555
C5 C4 1_555 1_555
C6 C5 1_555 1_555
C7 C6 1_555 1_555
C8 C7 1_555 1_555
H4 C8 1_555 1_555
C9 C4 1_555 1_555
H5 C9 1_555 1_555
C10 C7 1_555 1_555
H6 C10 1_555 1_555
C11 C10 1_555 1_555
H7 C11 1_555 1_555
C12 C11 1_555 1_555
H8 C12 1_555 1_555
C13 C14 1_555 1_555
C14 C15 1_555 1_555
C15 H9 1_555 1_555
C16 C17 1_555 1_555
C17 C15 1_555 1_555
Ca1 N1 1_555 1_555
N1 C1 1_555 1_555
N2 C6 1_555 1_555
O1 C13 1_555 1_555
O2 C13 1_555 1_555
O3 Ca1 1_555 1_555
O4 C16 1_555 1_555
O5 C16 1_555 1_555
H10 O3 1_555 1_555
H11 O3 1_555 1_555
C13A C14A 1_555 1_555
C14A C14 1_555 1_555
C15A C14A 1_555 1_555
H9A C15A 1_555 1_555
O1A C13A 1_555 1_555
O2A C13A 1_555 1_555
C16A C17A 1_555 1_555
C17A C17 1_555 1_555
O4A C16A 1_555 1_555
O5A C16A 1_555 1_555
C1A H1A 1_555 1_555
C2A C1A 1_555 1_555
H2A C2A 1_555 1_555
C3A C2A 1_555 1_555
H3A C3A 1_555 1_555
C4A C3A 1_555 1_555
C5A C4A 1_555 1_555
C6A C5A 1_555 1_555
C7A C6A 1_555 1_555
C8A C7A 1_555 1_555
H4A C8A 1_555 1_555
C9A C4A 1_555 1_555
H5A C9A 1_555 1_555
C10A C7A 1_555 1_555
H6A C10A 1_555 1_555
C11A C10A 1_555 1_555
H7A C11A 1_555 1_555
C12A C11A 1_555 1_555
H8A C12A 1_555 1_555
Ca1A O1A 1_555 1_555
N1A C1A 1_555 1_555
N2A C6A 1_555 1_555
O3A Ca1A 1_555 1_555
H10A O3A 1_555 1_555
H11A O3A 1_555 1_555
Ca1_2 O4 1_555 1_555
Ca1A_2 O4A 1_555 1_555
Ca1D O4 1_555 1_555
Ca1E O4A 1_555 1_555
O4_2 Ca1 1_555 1_555
O4A_2 Ca1A 1_555 1_555
O4D Ca1 1_555 1_555
O4E Ca1A 1_555 1_555
O5_2 Ca1 1_555 1_555
O5A_2 Ca1A 1_555 1_555
C5 N1 1_555 1_555
C8 C9 1_555 1_555
C12 N2 1_555 1_555
Ca1 N2 1_555 1_555
Ca1 O1 1_555 1_555
Ca1 O2 1_555 1_555
O5 Ca1_2 1_555 1_555
C15A C17A 1_555 1_555
O2A Ca1A 1_555 1_555
O5A Ca1A_2 1_555 1_555
C5A N1A 1_555 1_555
C8A C9A 1_555 1_555
C12A N2A 1_555 1_555
Ca1A N1A 1_555 1_555
Ca1A N2A 1_555 1_555

#END
