
#######################################################################
#
#                 Cambridge Crystallographic Data Centre
#                                CCDC 
#
#######################################################################
#
# If this CIF has been generated from an entry in the Cambridge 
# Structural Database, then it will include bibliographic, chemical, 
# crystal, experimental, refinement or atomic coordinate data resulting 
# from the CCDC's data processing and validation procedures.
#
#######################################################################

data_DEYJAT
_symmetry_cell_setting           monoclinic
_symmetry_space_group_name_H-M   'P 21/c'
_symmetry_Int_Tables_number      14
_space_group_name_Hall           '-P 2ybc'
loop_
_symmetry_equiv_pos_site_id
_symmetry_equiv_pos_as_xyz
1 x,y,z
2 -x,1/2+y,1/2-z
3 -x,-y,-z
4 x,1/2-y,1/2+z
_cell_length_a                   17.588(4)
_cell_length_b                   14.047(3)
_cell_length_c                   15.434(3)
_cell_angle_alpha                90.00
_cell_angle_beta                 113.86(3)
_cell_angle_gamma                90.00
_cell_volume                     3487.22
loop_
_atom_site_label
_atom_site_type_symbol
_atom_site_fract_x
_atom_site_fract_y
_atom_site_fract_z
Mo1 Mo 0.29876(2) 0.39817(2) 0.20903(3)
Mo2 Mo 0.237384(19) 0.14425(2) 0.16420(2)
Mo3 Mo 0.26705(2) -0.11198(2) 0.24462(2)
Mo4 Mo 0.20627(2) 0.64015(2) 0.18278(2)
O1 O 0.3496(2) 0.3818(2) 0.3286(2)
O2 O 0.3724(2) 0.4261(2) 0.1674(3)
O3 O 0.27612(16) 0.27299(17) 0.1659(2)
O4 O 0.16027(18) 0.1672(2) 0.2019(2)
O5 O 0.18988(19) 0.1269(2) 0.0449(2)
O6 O 0.25335(18) 0.01333(18) 0.2036(2)
O7 O 0.1981(2) -0.1207(2) 0.2968(2)
O8 O 0.3644(2) -0.1078(2) 0.3322(3)
O9 O 0.27013(18) 0.74421(18) 0.2283(2)
O10 O 0.1310(2) 0.6365(3) 0.2248(3)
O11 O 0.1571(2) 0.6441(2) 0.0623(2)
O12 O 0.2716(2) 0.53635(19) 0.2206(2)
N1 N 0.1698(2) 0.3836(2) 0.2193(2)
N2 N 0.1889(2) 0.4217(2) 0.0614(2)
N3 N 0.3435(2) 0.1519(2) 0.3152(3)
N4 N 0.3668(2) 0.1151(2) 0.1588(3)
N5 N 0.1594(2) -0.1297(2) 0.0949(2)
N6 N 0.32077(19) -0.1325(2) 0.1293(3)
C1 C 0.1636(3) 0.3725(3) 0.3028(3)
C2 C 0.0876(4) 0.3549(4) 0.3085(4)
C3 C 0.0156(3) 0.3490(4) 0.2252(4)
C4 C 0.0215(3) 0.3621(3) 0.1394(3)
C5 C 0.0993(3) 0.3790(3) 0.1390(3)
C6 C 0.1118(2) 0.3964(2) 0.0497(3)
C7 C 0.0461(3) 0.3903(3) -0.0395(3)
C8 C 0.0615(3) 0.4119(4) -0.1190(3)
C9 C 0.1408(3) 0.4428(3) -0.1072(3)
C10 C 0.2031(3) 0.4465(3) -0.0150(3)
C11 C 0.3248(3) 0.1714(3) 0.3907(3)
C12 C 0.3829(4) 0.1648(4) 0.4827(4)
C13 C 0.4623(4) 0.1328(5) 0.4977(5)
C14 C 0.4834(4) 0.1129(5) 0.4196(5)
C15 C 0.4203(3) 0.1250(3) 0.3281(4)
C16 C 0.4352(3) 0.1120(3) 0.2404(4)
C17 C 0.5148(3) 0.0981(4) 0.2424(5)
C18 C 0.5227(4) 0.0867(5) 0.1578(7)
C19 C 0.4509(4) 0.0880(4) 0.0707(6)
C20 C 0.3735(3) 0.1033(3) 0.0758(4)
C21 C 0.0799(3) -0.1222(3) 0.0814(3)
C22 C 0.0156(3) -0.1226(4) -0.0067(4)
C23 C 0.0351(3) -0.1279(4) -0.0848(4)
C24 C 0.1170(3) -0.1378(4) -0.0732(3)
C25 C 0.1777(2) -0.1383(3) 0.0185(3)
C26 C 0.2680(3) -0.1504(3) 0.0389(3)
C27 C 0.2951(3) -0.1801(5) -0.0307(4)
C28 C 0.3790(4) -0.1920(5) -0.0056(5)
C29 C 0.4345(3) -0.1685(4) 0.0870(5)
C30 C 0.4029(3) -0.1398(3) 0.1538(4)
Mo3_2 Mo 0.26705(2) 0.88802(2) 0.24462(2)
O9_2 O 0.27013(18) -0.25579(18) 0.2283(2)
loop_
_geom_bond_atom_site_label_1
_geom_bond_atom_site_label_2
_geom_bond_site_symmetry_1
_geom_bond_site_symmetry_2
Mo1 O1 1_555 1_555
Mo2 O3 1_555 1_555
Mo3 O6 1_555 1_555
Mo4 O9 1_555 1_555
O2 Mo1 1_555 1_555
O3 Mo1 1_555 1_555
O4 Mo2 1_555 1_555
O5 Mo2 1_555 1_555
O6 Mo2 1_555 1_555
O7 Mo3 1_555 1_555
O8 Mo3 1_555 1_555
O9 Mo3_2 1_555 1_555
O10 Mo4 1_555 1_555
O11 Mo4 1_555 1_555
O12 Mo1 1_555 1_555
N1 Mo1 1_555 1_555
N2 Mo1 1_555 1_555
N3 Mo2 1_555 1_555
N4 Mo2 1_555 1_555
N5 Mo3 1_555 1_555
N6 Mo3 1_555 1_555
C1 N1 1_555 1_555
C2 C1 1_555 1_555
C3 C2 1_555 1_555
C4 C3 1_555 1_555
C5 N1 1_555 1_555
C6 N2 1_555 1_555
C7 C6 1_555 1_555
C8 C7 1_555 1_555
C9 C8 1_555 1_555
C10 N2 1_555 1_555
C11 N3 1_555 1_555
C12 C11 1_555 1_555
C13 C12 1_555 1_555
C14 C13 1_555 1_555
C15 N3 1_555 1_555
C16 N4 1_555 1_555
C17 C16 1_555 1_555
C18 C17 1_555 1_555
C19 C18 1_555 1_555
C20 N4 1_555 1_555
C21 N5 1_555 1_555
C22 C21 1_555 1_555
C23 C22 1_555 1_555
C24 C23 1_555 1_555
C25 N5 1_555 1_555
C26 N6 1_555 1_555
C27 C26 1_555 1_555
C28 C27 1_555 1_555
C29 C28 1_555 1_555
C30 N6 1_555 1_555
O9_2 Mo3 1_555 1_555
Mo4 O12 1_555 1_555
C4 C5 1_555 1_555
C5 C6 1_555 1_555
C9 C10 1_555 1_555
C14 C15 1_555 1_555
C15 C16 1_555 1_555
C19 C20 1_555 1_555
C24 C25 1_555 1_555
C25 C26 1_555 1_555
C29 C30 1_555 1_555

#END
