
#######################################################################
#
#                 Cambridge Crystallographic Data Centre
#                                CCDC 
#
#######################################################################
#
# If this CIF has been generated from an entry in the Cambridge 
# Structural Database, then it will include bibliographic, chemical, 
# crystal, experimental, refinement or atomic coordinate data resulting 
# from the CCDC's data processing and validation procedures.
#
#######################################################################

data_DEYMOJ
_symmetry_cell_setting           monoclinic
_symmetry_space_group_name_H-M   'C 2/c'
_symmetry_Int_Tables_number      15
_space_group_name_Hall           '-C 2yn'
loop_
_symmetry_equiv_pos_site_id
_symmetry_equiv_pos_as_xyz
1 x,y,z
2 1/2+x,1/2+y,z
3 x,-y,1/2+z
4 1/2+x,1/2-y,1/2+z
5 -x,-y,-z
6 1/2-x,1/2-y,-z
7 -x,y,1/2-z
8 1/2-x,1/2+y,1/2-z
_cell_length_a                   16.3458(17)
_cell_length_b                   7.3848(5)
_cell_length_c                   6.8236(7)
_cell_angle_alpha                90
_cell_angle_beta                 112.032(4)
_cell_angle_gamma                90
_cell_volume                     763.53
loop_
_atom_site_label
_atom_site_type_symbol
_atom_site_fract_x
_atom_site_fract_y
_atom_site_fract_z
Mn1 Mn 0.0000 0.00375(5) 0.2500
N1 N 0.09513(12) -0.0029(2) 0.5858(3)
N2 N 0.17047(14) 0.0395(3) 0.6619(3)
N3 N 0.24289(17) 0.0833(5) 0.7352(5)
N4 N 0.0000 0.3147(3) 0.2500
N5 N 0.0000 0.6925(3) 0.2500
C1 C -0.07426(14) 0.4108(3) 0.1512(3)
H1 H -0.1213(18) 0.351(4) 0.081(5)
C2 C -0.07391(13) 0.5980(3) 0.1509(3)
H2 H -0.1209(18) 0.662(3) 0.083(5)
C2F C 0.07391(13) 0.5980(3) 0.3491(3)
C1F C 0.07426(14) 0.4108(3) 0.3488(3)
H1F H 0.1213(18) 0.351(4) 0.419(5)
H2F H 0.1209(18) 0.662(3) 0.417(5)
N1B N 0.09513(12) 0.0029(2) 0.0858(3)
N2B N 0.17047(14) -0.0395(3) 0.1619(3)
N3B N 0.24289(17) -0.0833(5) 0.2352(5)
N1D N -0.09513(12) 0.0029(2) 0.4142(3)
N1F N -0.09513(12) -0.0029(2) -0.0858(3)
N5_2 N 0.0000 -0.3075(3) 0.2500
Mn1B Mn 0.0000 -0.00375(5) 0.7500
Mn1_2 Mn 0.0000 1.00375(5) 0.2500
Mn1B_2 Mn 0.0000 -0.00375(5) -0.2500
loop_
_geom_bond_atom_site_label_1
_geom_bond_atom_site_label_2
_geom_bond_site_symmetry_1
_geom_bond_site_symmetry_2
Mn1 N1 1_555 1_555
N1 N2 1_555 1_555
N2 N3 1_555 1_555
N4 Mn1 1_555 1_555
N5 C2 1_555 1_555
C1 N4 1_555 1_555
H1 C1 1_555 1_555
C2 C1 1_555 1_555
H2 C2 1_555 1_555
C2F N5 1_555 1_555
C1F N4 1_555 1_555
H1F C1F 1_555 1_555
H2F C2F 1_555 1_555
N1B Mn1 1_555 1_555
N2B N1B 1_555 1_555
N3B N2B 1_555 1_555
N1D Mn1 1_555 1_555
N1F Mn1 1_555 1_555
N5_2 Mn1 1_555 1_555
Mn1B N1 1_555 1_555
Mn1_2 N5 1_555 1_555
Mn1B_2 N1B 1_555 1_555
C2F C1F 1_555 1_555
N1D Mn1B 1_555 1_555
N1F Mn1B_2 1_555 1_555

#END
