
#######################################################################
#
#                 Cambridge Crystallographic Data Centre
#                                CCDC 
#
#######################################################################
#
# If this CIF has been generated from an entry in the Cambridge 
# Structural Database, then it will include bibliographic, chemical, 
# crystal, experimental, refinement or atomic coordinate data resulting 
# from the CCDC's data processing and validation procedures.
#
#######################################################################

data_DEYSUX
_symmetry_cell_setting           triclinic
_symmetry_space_group_name_H-M   'P -1'
_symmetry_Int_Tables_number      2
_space_group_name_Hall           '-P 1'
loop_
_symmetry_equiv_pos_site_id
_symmetry_equiv_pos_as_xyz
1 x,y,z
2 -x,-y,-z
_cell_length_a                   9.2816(9)
_cell_length_b                   9.7861(9)
_cell_length_c                   11.4489(11)
_cell_angle_alpha                82.693(2)
_cell_angle_beta                 66.899(2)
_cell_angle_gamma                76.121(2)
_cell_volume                     927.962
loop_
_atom_site_label
_atom_site_type_symbol
_atom_site_fract_x
_atom_site_fract_y
_atom_site_fract_z
Co1 Co 0.0000 0.0000 0.5000
F1 F 0.2106(3) 0.1200(3) 0.7999(2)
F2 F 0.1530(3) 0.1840(3) 1.0372(2)
O1 O -0.0008(3) 0.0114(3) 0.6794(2)
O2 O 0.1599(4) -0.1895(3) 0.7059(3)
O3 O -0.1665(3) 0.1894(3) 0.5305(2)
H1 H -0.1847 0.2255 0.4677
H2 H -0.2609 0.1849 0.5545
N1 N 0.1894(3) 0.1385(3) 0.4257(3)
N2 N 0.3479(4) 0.2775(3) 0.2512(3)
N3 N 0.4674(4) 0.1349(3) 0.3921(3)
N4 N 0.2648(4) 0.3449(3) 0.4672(3)
C1 C 0.0685(4) -0.0768(4) 0.7407(3)
C2 C 0.0317(4) -0.0346(4) 0.8748(3)
C3 C 0.1043(4) 0.0596(4) 0.8983(3)
C4 C 0.0746(4) 0.0933(4) 1.0200(3)
C5 C 0.3422(4) 0.0533(4) 0.4324(4)
H3 H 0.3235 0.0176 0.5190
H4 H 0.3784 -0.0268 0.3786
C6 C 0.1375(4) 0.2588(4) 0.5078(3)
H5 H 0.1158 0.2250 0.5952
H6 H 0.0393 0.3174 0.5032
C7 C 0.2224(5) 0.1958(4) 0.2930(3)
H7 H 0.2550 0.1185 0.2366
H8 H 0.1250 0.2553 0.2878
C8 C 0.4940(5) 0.1880(5) 0.2615(4)
H9 H 0.5299 0.1092 0.2064
H10 H 0.5777 0.2418 0.2332
C9 C 0.4187(5) 0.2517(4) 0.4732(4)
H11 H 0.5021 0.3058 0.4458
H12 H 0.4014 0.2174 0.5599
C10 C 0.2966(5) 0.3965(4) 0.3305(4)
H13 H 0.1998 0.4561 0.3241
H14 H 0.3789 0.4518 0.3024
F1A F -0.2106(3) -0.1200(3) 1.2001(2)
F2A F -0.1530(3) -0.1840(3) 0.9628(2)
O1A O 0.0008(3) -0.0114(3) 1.3206(2)
O2A O -0.1599(4) 0.1895(3) 1.2941(3)
C1A C -0.0685(4) 0.0768(4) 1.2593(3)
C2A C -0.0317(4) 0.0346(4) 1.1252(3)
C3A C -0.1043(4) -0.0596(4) 1.1017(3)
C4A C -0.0746(4) -0.0933(4) 0.9800(3)
O3A O 0.1665(3) -0.1894(3) 0.4695(2)
H1A H 0.1847 -0.2255 0.5323
H2A H 0.2609 -0.1849 0.4455
N1A N -0.1894(3) -0.1385(3) 0.5743(3)
N2A N -0.3479(4) -0.2775(3) 0.7488(3)
N3A N -0.4674(4) -0.1349(3) 0.6079(3)
N4A N -0.2648(4) -0.3449(3) 0.5328(3)
C5A C -0.3422(4) -0.0533(4) 0.5676(4)
H3A H -0.3235 -0.0176 0.4810
H4A H -0.3784 0.0268 0.6214
C6A C -0.1375(4) -0.2588(4) 0.4922(3)
H5A H -0.1158 -0.2250 0.4048
H6A H -0.0393 -0.3174 0.4968
C7A C -0.2224(5) -0.1958(4) 0.7070(3)
H7A H -0.2550 -0.1185 0.7634
H8A H -0.1250 -0.2553 0.7122
C8A C -0.4940(5) -0.1880(5) 0.7385(4)
H9A H -0.5299 -0.1092 0.7936
H10A H -0.5777 -0.2418 0.7668
C9A C -0.4187(5) -0.2517(4) 0.5268(4)
H11A H -0.5021 -0.3058 0.5542
H12A H -0.4014 -0.2174 0.4401
C10A C -0.2966(5) -0.3965(4) 0.6695(4)
H13A H -0.1998 -0.4561 0.6759
H14A H -0.3789 -0.4518 0.6976
Co1_2 Co 0.0000 0.0000 1.5000
O1A_2 O 0.0008(3) -0.0114(3) 0.3206(2)
F3 F 0.7280(3) 0.4000(3) 0.0908(2)
F4 F 0.8970(3) 0.3932(3) -0.1521(2)
O4 O 0.8905(4) 0.4765(3) 0.3469(3)
H15 H 0.9278 0.5444 0.3470
O5 O 0.6630(4) 0.5361(4) 0.3134(3)
C11 C 0.8122(5) 0.5044(4) 0.2762(4)
C12 C 0.9087(5) 0.5015(4) 0.1338(3)
C13 C 0.8622(5) 0.4511(4) 0.0495(4)
C14 C 0.9512(5) 0.4494(4) -0.0797(4)
F3A F 1.2720(3) 0.6000(3) -0.0908(2)
F4A F 1.1030(3) 0.6068(3) 0.1521(2)
O4A O 1.1095(4) 0.5235(3) -0.3469(3)
H15A H 1.0722 0.4556 -0.3470
O5A O 1.3370(4) 0.4639(4) -0.3134(3)
C11A C 1.1878(5) 0.4956(4) -0.2762(4)
C12A C 1.0913(5) 0.4985(4) -0.1338(3)
C13A C 1.1378(5) 0.5489(4) -0.0495(4)
C14A C 1.0488(5) 0.5506(4) 0.0797(4)
O6 O 0.4383(4) 0.7304(4) 0.2657(4)
H16 H 0.5056 0.6699 0.2833
C15 C 0.4540(9) 0.7133(8) 0.1360(7)
H17 H 0.5662 0.6979 0.0805
H18 H 0.4137 0.6313 0.1338
C16 C 0.3670(10) 0.8353(8) 0.0907(8)
H19 H 0.3753 0.8200 0.0069
H20 H 0.4109 0.9156 0.0881
H21 H 0.2564 0.8522 0.1468
loop_
_geom_bond_atom_site_label_1
_geom_bond_atom_site_label_2
_geom_bond_site_symmetry_1
_geom_bond_site_symmetry_2
Co1 O1 1_555 1_555
F1 C3 1_555 1_555
F2 C4 1_555 1_555
O1 C1 1_555 1_555
O2 C1 1_555 1_555
O3 Co1 1_555 1_555
H1 O3 1_555 1_555
H2 O3 1_555 1_555
N1 Co1 1_555 1_555
N2 C7 1_555 1_555
N3 C5 1_555 1_555
N4 C6 1_555 1_555
C1 C2 1_555 1_555
C2 C3 1_555 1_555
C3 C4 1_555 1_555
C4 C2A 1_555 1_555
C5 N1 1_555 1_555
H3 C5 1_555 1_555
H4 C5 1_555 1_555
C6 N1 1_555 1_555
H5 C6 1_555 1_555
H6 C6 1_555 1_555
C7 N1 1_555 1_555
H7 C7 1_555 1_555
H8 C7 1_555 1_555
C8 N2 1_555 1_555
H9 C8 1_555 1_555
H10 C8 1_555 1_555
C9 N3 1_555 1_555
H11 C9 1_555 1_555
H12 C9 1_555 1_555
C10 N2 1_555 1_555
H13 C10 1_555 1_555
H14 C10 1_555 1_555
F3 C13 1_555 1_555
F4 C14 1_555 1_555
O4 H15 1_555 1_555
O5 C11 1_555 1_555
C11 O4 1_555 1_555
C12 C11 1_555 1_555
C13 C12 1_555 1_555
C14 C13 1_555 1_555
O6 H16 1_555 1_555
C15 O6 1_555 1_555
H17 C15 1_555 1_555
H18 C15 1_555 1_555
C16 C15 1_555 1_555
H19 C16 1_555 1_555
H20 C16 1_555 1_555
H21 C16 1_555 1_555
F1A C3A 1_555 1_555
F2A C4A 1_555 1_555
O1A C1A 1_555 1_555
O2A C1A 1_555 1_555
C1A C2A 1_555 1_555
C2A C3A 1_555 1_555
C3A C4A 1_555 1_555
C4A C2 1_555 1_555
O3A Co1 1_555 1_555
H1A O3A 1_555 1_555
H2A O3A 1_555 1_555
N1A Co1 1_555 1_555
N2A C7A 1_555 1_555
N3A C5A 1_555 1_555
N4A C6A 1_555 1_555
C5A N1A 1_555 1_555
H3A C5A 1_555 1_555
H4A C5A 1_555 1_555
C6A N1A 1_555 1_555
H5A C6A 1_555 1_555
H6A C6A 1_555 1_555
C7A N1A 1_555 1_555
H7A C7A 1_555 1_555
H8A C7A 1_555 1_555
C8A N2A 1_555 1_555
H9A C8A 1_555 1_555
H10A C8A 1_555 1_555
C9A N3A 1_555 1_555
H11A C9A 1_555 1_555
H12A C9A 1_555 1_555
C10A N2A 1_555 1_555
H13A C10A 1_555 1_555
H14A C10A 1_555 1_555
Co1_2 O1A 1_555 1_555
O1A_2 Co1 1_555 1_555
F3A C13A 1_555 1_555
F4A C14A 1_555 1_555
O4A H15A 1_555 1_555
O5A C11A 1_555 1_555
C11A O4A 1_555 1_555
C12A C14 1_555 1_555
C13A C12A 1_555 1_555
C14A C12 1_555 1_555
N3 C8 1_555 1_555
N4 C9 1_555 1_555
N4 C10 1_555 1_555
N3A C8A 1_555 1_555
N4A C9A 1_555 1_555
N4A C10A 1_555 1_555
C11A C12A 1_555 1_555
C13A C14A 1_555 1_555

#END
