
#######################################################################
#
#                 Cambridge Crystallographic Data Centre
#                                CCDC 
#
#######################################################################
#
# If this CIF has been generated from an entry in the Cambridge 
# Structural Database, then it will include bibliographic, chemical, 
# crystal, experimental, refinement or atomic coordinate data resulting 
# from the CCDC's data processing and validation procedures.
#
#######################################################################

data_DEYTIM
_symmetry_cell_setting           monoclinic
_symmetry_space_group_name_H-M   'P 21/c'
_symmetry_Int_Tables_number      14
_space_group_name_Hall           '-P 2ybc'
loop_
_symmetry_equiv_pos_site_id
_symmetry_equiv_pos_as_xyz
1 x,y,z
2 -x,1/2+y,1/2-z
3 -x,-y,-z
4 x,1/2-y,1/2+z
_cell_length_a                   17.3773(9)
_cell_length_b                   12.7520(6)
_cell_length_c                   11.6893(6)
_cell_angle_alpha                90
_cell_angle_beta                 108.9990(10)
_cell_angle_gamma                90
_cell_volume                     2449.19
loop_
_atom_site_label
_atom_site_type_symbol
_atom_site_fract_x
_atom_site_fract_y
_atom_site_fract_z
C1 C 0.4309(2) 0.7156(3) 0.3748(4)
H1 H 0.4772 0.7298 0.3542
C2 C 0.3625(2) 0.7744(3) 0.3409(4)
H2 H 0.3532 0.8352 0.2945
C3 C 0.3499(2) 0.6426(3) 0.4522(3)
H3 H 0.3287 0.5977 0.4970
C4 C 0.22464(19) 0.7466(3) 0.3663(3)
C5 C 0.1812(3) 0.6889(5) 0.4245(5)
H4 H 0.2080 0.6403 0.4832
C6 C 0.0987(3) 0.7029(5) 0.3965(5)
H5 H 0.0708 0.6630 0.4368
C7 C 0.0563(2) 0.7738(3) 0.3110(3)
C8 C 0.1008(2) 0.8310(4) 0.2556(5)
H6 H 0.0741 0.8802 0.1975
C9 C 0.1840(2) 0.8186(4) 0.2825(4)
H7 H 0.2120 0.8595 0.2433
C10 C -0.0336(2) 0.7860(3) 0.2791(3)
C11 C -0.0774(2) 0.7375(5) 0.3424(5)
H8 H -0.0499 0.6949 0.4074
C12 C -0.1605(2) 0.7489(5) 0.3138(5)
H9 H -0.1876 0.7151 0.3601
C13 C -0.20301(19) 0.8094(3) 0.2181(3)
C14 C -0.1615(3) 0.8551(5) 0.1494(5)
H10 H -0.1897 0.8940 0.0813
C15 C -0.0784(2) 0.8441(4) 0.1802(4)
H11 H -0.0515 0.8768 0.1329
C16 C -0.3417(2) 0.7789(3) 0.2389(4)
H12 H -0.3298 0.7276 0.2986
C17 C -0.4145(2) 0.8241(3) 0.1840(4)
H13 H -0.4621 0.8080 0.2004
C18 C -0.3330(2) 0.8933(3) 0.1057(3)
H14 H -0.3119 0.9341 0.0571
Cl1 Cl 0.45898(16) 0.4815(2) 0.6507(2)
N1 N 0.42260(16) 0.6323(2) 0.4433(3)
N2 N 0.30903(16) 0.7257(2) 0.3894(3)
N3 N -0.28854(16) 0.8247(2) 0.1881(3)
N4 N -0.40917(16) 0.8964(2) 0.1012(3)
Ni1 Ni 0.5000 0.5000 0.5000
C1B C 0.5691(2) 0.2844(3) 0.6252(4)
H1B H 0.5228 0.2702 0.6458
C2B C 0.6375(2) 0.2256(3) 0.6591(4)
H2B H 0.6468 0.1648 0.7055
C3B C 0.6501(2) 0.3574(3) 0.5478(3)
H3B H 0.6713 0.4023 0.5030
C4B C 0.77536(19) 0.2534(3) 0.6337(3)
C5B C 0.8188(3) 0.3111(5) 0.5755(5)
H4B H 0.7920 0.3597 0.5168
C6B C 0.9013(3) 0.2971(5) 0.6035(5)
H5B H 0.9292 0.3370 0.5632
C7B C 0.9437(2) 0.2262(3) 0.6890(3)
C8B C 0.8992(2) 0.1690(4) 0.7444(5)
H6B H 0.9259 0.1198 0.8025
C9B C 0.8160(2) 0.1814(4) 0.7175(4)
H7B H 0.7880 0.1405 0.7567
C10B C 1.0336(2) 0.2140(3) 0.7209(3)
C11B C 1.0774(2) 0.2625(5) 0.6576(5)
H8B H 1.0499 0.3051 0.5926
C12B C 1.1605(2) 0.2511(5) 0.6862(5)
H9B H 1.1876 0.2849 0.6399
C13B C 1.20301(19) 0.1906(3) 0.7819(3)
C14B C 1.1615(3) 0.1449(5) 0.8506(5)
H10B H 1.1897 0.1060 0.9187
C15B C 1.0784(2) 0.1559(4) 0.8198(4)
H11B H 1.0515 0.1232 0.8671
C16B C 1.3417(2) 0.2211(3) 0.7611(4)
H12B H 1.3298 0.2724 0.7014
C17B C 1.4145(2) 0.1759(3) 0.8160(4)
H13B H 1.4621 0.1920 0.7996
C18B C 1.3330(2) 0.1067(3) 0.8943(3)
H14B H 1.3119 0.0659 0.9429
Cl1B Cl 0.54102(16) 0.5185(2) 0.3493(2)
N1B N 0.57740(16) 0.3677(2) 0.5567(3)
N2B N 0.69097(16) 0.2743(2) 0.6106(3)
N3B N 1.28854(16) 0.1753(2) 0.8119(3)
N4B N 1.40917(16) 0.1036(2) 0.8988(3)
N4A N 0.40917(16) 0.3964(2) 0.3988(3)
N4C N 0.59083(16) 0.6036(2) 0.6012(3)
Ni1A Ni -0.5000 1.0000 0.0000
Ni1A_2 Ni 1.5000 0.0000 1.0000
C19 C 0.4091(3) 0.4547(5) 0.0161(5)
H15 H 0.4478 0.4279 -0.0153
C20 C 0.3289(3) 0.4416(5) -0.0326(4)
H16 H 0.3023 0.4042 -0.1026
C21 C 0.3560(3) 0.5357(5) 0.1284(4)
H17 H 0.3494 0.5770 0.1902
C22 C 0.2099(3) 0.4968(3) 0.0265(4)
C23 C 0.1817(3) 0.5555(6) 0.1015(6)
H18 H 0.2179 0.5966 0.1607
C24 C 0.1007(3) 0.5552(6) 0.0916(5)
H19 H 0.0842 0.5947 0.1463
C25 C 0.0436(3) 0.4997(3) 0.0053(4)
C26 C 0.0734(3) 0.4412(6) -0.0686(7)
H20 H 0.0372 0.4005 -0.1283
C27 C 0.1535(3) 0.4396(6) -0.0592(7)
H21 H 0.1702 0.3985 -0.1125
N5 N 0.4259(3) 0.5132(4) 0.1189(4)
H22 H 0.4730 0.5311 0.1670
N6 N 0.2930(2) 0.4930(3) 0.0390(3)
C19B C -0.4091(3) 0.5453(5) -0.0161(5)
H15B H -0.4478 0.5721 0.0153
C20B C -0.3289(3) 0.5584(5) 0.0326(4)
H16B H -0.3023 0.5958 0.1026
C21B C -0.3560(3) 0.4643(5) -0.1284(4)
H17B H -0.3494 0.4230 -0.1902
C22B C -0.2099(3) 0.5032(3) -0.0265(4)
C23B C -0.1817(3) 0.4445(6) -0.1015(6)
H18B H -0.2179 0.4034 -0.1607
C24B C -0.1007(3) 0.4448(6) -0.0916(5)
H19B H -0.0842 0.4053 -0.1463
C25B C -0.0436(3) 0.5003(3) -0.0053(4)
C26B C -0.0734(3) 0.5588(6) 0.0686(7)
H20B H -0.0372 0.5995 0.1283
C27B C -0.1535(3) 0.5604(6) 0.0592(7)
H21B H -0.1702 0.6015 0.1125
N5B N -0.4259(3) 0.4868(4) -0.1189(4)
H22B H -0.4730 0.4689 -0.1670
N6B N -0.2930(2) 0.5070(3) -0.0390(3)
Cl2 Cl 0.27680(6) 0.48398(7) 0.64148(8)
loop_
_geom_bond_atom_site_label_1
_geom_bond_atom_site_label_2
_geom_bond_site_symmetry_1
_geom_bond_site_symmetry_2
C1 H1 1_555 1_555
C2 C1 1_555 1_555
H2 C2 1_555 1_555
C3 H3 1_555 1_555
C4 C5 1_555 1_555
C5 H4 1_555 1_555
C6 C5 1_555 1_555
H5 C6 1_555 1_555
C7 C6 1_555 1_555
C8 C7 1_555 1_555
H6 C8 1_555 1_555
C9 C4 1_555 1_555
H7 C9 1_555 1_555
C10 C7 1_555 1_555
C11 C10 1_555 1_555
H8 C11 1_555 1_555
C12 C11 1_555 1_555
H9 C12 1_555 1_555
C13 C12 1_555 1_555
C14 C13 1_555 1_555
H10 C14 1_555 1_555
C15 C10 1_555 1_555
H11 C15 1_555 1_555
C16 H12 1_555 1_555
C17 C16 1_555 1_555
H13 C17 1_555 1_555
C18 H14 1_555 1_555
Cl1 Ni1 1_555 1_555
N1 C1 1_555 1_555
N2 C2 1_555 1_555
N3 C13 1_555 1_555
N4 C17 1_555 1_555
Ni1 N1 1_555 1_555
C19 H15 1_555 1_555
C20 C19 1_555 1_555
H16 C20 1_555 1_555
C21 H17 1_555 1_555
C22 C23 1_555 1_555
C23 H18 1_555 1_555
C24 C23 1_555 1_555
H19 C24 1_555 1_555
C25 C24 1_555 1_555
C26 C25 1_555 1_555
H20 C26 1_555 1_555
C27 C22 1_555 1_555
H21 C27 1_555 1_555
N5 C19 1_555 1_555
H22 N5 1_555 1_555
N6 C20 1_555 1_555
C1B H1B 1_555 1_555
C2B C1B 1_555 1_555
H2B C2B 1_555 1_555
C3B H3B 1_555 1_555
C4B C5B 1_555 1_555
C5B H4B 1_555 1_555
C6B C5B 1_555 1_555
H5B C6B 1_555 1_555
C7B C6B 1_555 1_555
C8B C7B 1_555 1_555
H6B C8B 1_555 1_555
C9B C4B 1_555 1_555
H7B C9B 1_555 1_555
C10B C7B 1_555 1_555
C11B C10B 1_555 1_555
H8B C11B 1_555 1_555
C12B C11B 1_555 1_555
H9B C12B 1_555 1_555
C13B C12B 1_555 1_555
C14B C13B 1_555 1_555
H10B C14B 1_555 1_555
C15B C10B 1_555 1_555
H11B C15B 1_555 1_555
C16B H12B 1_555 1_555
C17B C16B 1_555 1_555
H13B C17B 1_555 1_555
C18B H14B 1_555 1_555
Cl1B Ni1 1_555 1_555
N1B Ni1 1_555 1_555
N2B C2B 1_555 1_555
N3B C13B 1_555 1_555
N4B C17B 1_555 1_555
N4A Ni1 1_555 1_555
N4C Ni1 1_555 1_555
Ni1A N4 1_555 1_555
Ni1A_2 N4B 1_555 1_555
C19B H15B 1_555 1_555
C20B C19B 1_555 1_555
H16B C20B 1_555 1_555
C21B H17B 1_555 1_555
C22B C23B 1_555 1_555
C23B H18B 1_555 1_555
C24B C23B 1_555 1_555
H19B C24B 1_555 1_555
C25B C25 1_555 1_555
C26B C25B 1_555 1_555
H20B C26B 1_555 1_555
C27B C22B 1_555 1_555
H21B C27B 1_555 1_555
N5B C19B 1_555 1_555
H22B N5B 1_555 1_555
N6B C20B 1_555 1_555
C3 N1 1_555 1_555
C3 N2 1_555 1_555
C4 N2 1_555 1_555
C8 C9 1_555 1_555
C14 C15 1_555 1_555
C16 N3 1_555 1_555
C18 N3 1_555 1_555
C18 N4 1_555 1_555
C21 N5 1_555 1_555
C21 N6 1_555 1_555
C22 N6 1_555 1_555
C26 C27 1_555 1_555
C1B N1B 1_555 1_555
C3B N1B 1_555 1_555
C3B N2B 1_555 1_555
C4B N2B 1_555 1_555
C8B C9B 1_555 1_555
C14B C15B 1_555 1_555
C16B N3B 1_555 1_555
C18B N3B 1_555 1_555
C18B N4B 1_555 1_555
C21B N5B 1_555 1_555
C21B N6B 1_555 1_555
C22B N6B 1_555 1_555
C24B C25B 1_555 1_555
C26B C27B 1_555 1_555

#END
