
#######################################################################
#
#                 Cambridge Crystallographic Data Centre
#                                CCDC 
#
#######################################################################
#
# If this CIF has been generated from an entry in the Cambridge 
# Structural Database, then it will include bibliographic, chemical, 
# crystal, experimental, refinement or atomic coordinate data resulting 
# from the CCDC's data processing and validation procedures.
#
#######################################################################

data_DEYTAE
_symmetry_cell_setting           triclinic
_symmetry_space_group_name_H-M   'P -1'
_symmetry_Int_Tables_number      2
_space_group_name_Hall           '-P 1'
loop_
_symmetry_equiv_pos_site_id
_symmetry_equiv_pos_as_xyz
1 x,y,z
2 -x,-y,-z
_cell_length_a                   7.3226(19)
_cell_length_b                   10.542(3)
_cell_length_c                   12.847(3)
_cell_angle_alpha                86.370(4)
_cell_angle_beta                 79.880(5)
_cell_angle_gamma                77.291(5)
_cell_volume                     952.06
loop_
_atom_site_label
_atom_site_type_symbol
_atom_site_fract_x
_atom_site_fract_y
_atom_site_fract_z
C1 C 0.1512(6) 0.2178(5) 0.4834(4)
C2 C 0.0725(7) 0.3624(5) 0.4919(4)
C3 C 0.0586(7) 0.4457(5) 0.4050(4)
C4 C 0.0083(6) 0.4236(5) 0.5921(3)
C5 C 0.3133(7) 0.2755(5) 0.9544(4)
C6 C 0.1492(7) 0.3881(5) 0.9801(4)
C7 C 0.1712(7) 0.4936(4) 1.0312(4)
C8 C 0.0222(6) 0.5997(4) 1.0537(3)
C9 C 0.0981(7) -0.1862(5) 0.7968(4)
H1 H 0.0404 -0.2096 0.7405
H2 H 0.0358 -0.2171 0.8635
C10 C 0.4624(6) -0.0222(4) 0.7499(4)
H3 H 0.4481 0.0716 0.7479
H4 H 0.5971 -0.0607 0.7350
C11 C 0.1592(6) 0.0052(4) 0.6947(4)
H5 H 0.1443 0.0988 0.6960
H6 H 0.0937 -0.0142 0.6401
C12 C 0.3819(7) -0.2031(5) 0.6758(4)
H7 H 0.3131 -0.2263 0.6244
H8 H 0.5137 -0.2476 0.6579
C13 C 0.1864(6) -0.0064(4) 0.8712(4)
H9 H 0.1762 0.0869 0.8644
H10 H 0.1274 -0.0250 0.9425
C14 C 0.3997(7) -0.2116(4) 0.8603(4)
H11 H 0.5330 -0.2539 0.8469
H12 H 0.3448 -0.2412 0.9294
Co1 Co 0.5000 0.0000 0.5000
Co2 Co 0.5000 0.0000 1.0000
F1 F 0.1177(4) 0.3898(3) 0.3076(2)
F2 F 0.0172(4) 0.3512(3) 0.6783(2)
F3 F 0.3230(4) 0.4881(3) 1.0738(2)
F4 F 0.0516(4) 0.7008(3) 1.1039(2)
N1 N 0.3700(5) -0.0585(4) 0.6687(3)
N2 N 0.3810(6) -0.0660(4) 0.8601(3)
N3 N 0.0746(5) -0.0427(4) 0.7977(3)
N4 N 0.3045(6) -0.2474(4) 0.7803(3)
O1 O 0.3111(5) 0.1800(3) 0.5114(3)
O2 O 0.0590(5) 0.1528(3) 0.4477(3)
O3 O 0.3071(5) 0.1757(3) 1.0084(3)
O4 O 0.4407(4) 0.2877(3) 0.8767(2)
O5 O 0.3227(4) -0.0902(3) 0.4349(2)
H13 H 0.2616 -0.0318 0.3850
H14 H 0.2283 -0.1131 0.4904
O6 O 0.2968(4) -0.0750(3) 1.1038(2)
H15 H 0.2145 -0.0067 1.1462
H16 H 0.3169 -0.1668 1.0936
C1A C -0.1512(6) 0.7822(5) 0.5166(4)
C2A C -0.0725(7) 0.6376(5) 0.5081(4)
C3A C -0.0586(7) 0.5543(5) 0.5950(4)
C4A C -0.0083(6) 0.5764(5) 0.4079(3)
F1A F -0.1177(4) 0.6102(3) 0.6924(2)
F2A F -0.0172(4) 0.6488(3) 0.3217(2)
O1A O -0.3111(5) 0.8200(3) 0.4886(3)
O2A O -0.0590(5) 0.8472(3) 0.5523(3)
C5A C -0.3133(7) 0.7245(5) 1.0456(4)
C6A C -0.1492(7) 0.6119(5) 1.0199(4)
C7A C -0.1712(7) 0.5064(4) 0.9688(4)
C8A C -0.0222(6) 0.4003(4) 0.9463(3)
F3A F -0.3230(4) 0.5119(3) 0.9262(2)
F4A F -0.0516(4) 0.2992(3) 0.8961(2)
O3A O -0.3071(5) 0.8243(3) 0.9916(3)
O4A O -0.4407(4) 0.7123(3) 1.1233(2)
C9A C 0.9019(7) 0.1862(5) 0.2032(4)
H1A H 0.9596 0.2096 0.2595
H2A H 0.9642 0.2171 0.1365
C10A C 0.5376(6) 0.0222(4) 0.2501(4)
H3A H 0.5519 -0.0716 0.2521
H4A H 0.4029 0.0607 0.2650
C11A C 0.8408(6) -0.0052(4) 0.3053(4)
H5A H 0.8557 -0.0988 0.3040
H6A H 0.9063 0.0142 0.3599
C12A C 0.6181(7) 0.2031(5) 0.3242(4)
H7A H 0.6869 0.2263 0.3756
H8A H 0.4863 0.2476 0.3421
C13A C 0.8136(6) 0.0064(4) 0.1288(4)
H9A H 0.8238 -0.0869 0.1356
H10A H 0.8726 0.0250 0.0575
C14A C 0.6003(7) 0.2116(4) 0.1397(4)
H11A H 0.4670 0.2539 0.1531
H12A H 0.6552 0.2412 0.0706
N1A N 0.6300(5) 0.0585(4) 0.3313(3)
N2A N 0.6190(6) 0.0660(4) 0.1399(3)
N3A N 0.9254(5) 0.0427(4) 0.2023(3)
N4A N 0.6955(6) 0.2474(4) 0.2197(3)
O5A O 0.6773(4) 0.0902(3) 0.5651(2)
H13A H 0.7384 0.0318 0.6150
H14A H 0.7717 0.1131 0.5096
O6A O 0.7032(4) 0.0750(3) 0.8962(2)
H15A H 0.7855 0.0067 0.8538
H16A H 0.6831 0.1668 0.9064
Co1_2 Co -0.5000 1.0000 0.5000
Co2_2 Co -0.5000 1.0000 1.0000
Co2_3 Co 0.5000 0.0000 0.0000
N2A_2 N 0.6190(6) 0.0660(4) 1.1399(3)
O1A_2 O 0.6889(5) -0.1800(3) 0.4886(3)
O3A_2 O 0.6929(5) -0.1757(3) 0.9916(3)
O7 O 0.4134(6) 0.4827(4) 0.7238(3)
H17 H 0.4187 0.4270 0.7746
H18 H 0.3661 0.5571 0.7501
O8 O 0.4187(6) 0.6447(4) 0.4364(3)
H19 H 0.4953 0.6955 0.4321
H20 H 0.3234 0.6843 0.4093
loop_
_geom_bond_atom_site_label_1
_geom_bond_atom_site_label_2
_geom_bond_site_symmetry_1
_geom_bond_site_symmetry_2
C1 C2 1_555 1_555
C2 C3 1_555 1_555
C3 F1 1_555 1_555
C4 C2 1_555 1_555
C5 C6 1_555 1_555
C6 C7 1_555 1_555
C7 C8 1_555 1_555
C8 F4 1_555 1_555
C9 H1 1_555 1_555
H2 C9 1_555 1_555
C10 H3 1_555 1_555
H4 C10 1_555 1_555
C11 H5 1_555 1_555
H6 C11 1_555 1_555
C12 H7 1_555 1_555
H8 C12 1_555 1_555
C13 H9 1_555 1_555
H10 C13 1_555 1_555
C14 H11 1_555 1_555
H12 C14 1_555 1_555
Co1 N1 1_555 1_555
Co2 N2 1_555 1_555
F2 C4 1_555 1_555
F3 C7 1_555 1_555
N1 C10 1_555 1_555
N2 C10 1_555 1_555
N3 C9 1_555 1_555
N4 C9 1_555 1_555
O1 C1 1_555 1_555
O2 C1 1_555 1_555
O3 C5 1_555 1_555
O4 C5 1_555 1_555
O5 Co1 1_555 1_555
H13 O5 1_555 1_555
H14 O5 1_555 1_555
O6 Co2 1_555 1_555
H15 O6 1_555 1_555
H16 O6 1_555 1_555
O7 H17 1_555 1_555
H18 O7 1_555 1_555
O8 H19 1_555 1_555
H20 O8 1_555 1_555
C1A C2A 1_555 1_555
C2A C3A 1_555 1_555
C3A C4 1_555 1_555
C4A C3 1_555 1_555
F1A C3A 1_555 1_555
F2A C4A 1_555 1_555
O1A C1A 1_555 1_555
O2A C1A 1_555 1_555
C5A C6A 1_555 1_555
C6A C8 1_555 1_555
C7A C6A 1_555 1_555
C8A C6 1_555 1_555
F3A C7A 1_555 1_555
F4A C8A 1_555 1_555
O3A C5A 1_555 1_555
O4A C5A 1_555 1_555
C9A H1A 1_555 1_555
H2A C9A 1_555 1_555
C10A H3A 1_555 1_555
H4A C10A 1_555 1_555
C11A H5A 1_555 1_555
H6A C11A 1_555 1_555
C12A H7A 1_555 1_555
H8A C12A 1_555 1_555
C13A H9A 1_555 1_555
H10A C13A 1_555 1_555
C14A H11A 1_555 1_555
H12A C14A 1_555 1_555
N1A Co1 1_555 1_555
N2A C10A 1_555 1_555
N3A C9A 1_555 1_555
N4A C9A 1_555 1_555
O5A Co1 1_555 1_555
H13A O5A 1_555 1_555
H14A O5A 1_555 1_555
O6A Co2 1_555 1_555
H15A O6A 1_555 1_555
H16A O6A 1_555 1_555
Co1_2 O1A 1_555 1_555
Co2_2 O3A 1_555 1_555
Co2_3 N2A 1_555 1_555
N2A_2 Co2 1_555 1_555
O1A_2 Co1 1_555 1_555
O3A_2 Co2 1_555 1_555
C11 N1 1_555 1_555
C11 N3 1_555 1_555
C12 N1 1_555 1_555
C12 N4 1_555 1_555
C13 N2 1_555 1_555
C13 N3 1_555 1_555
C14 N2 1_555 1_555
C14 N4 1_555 1_555
Co1 O1 1_555 1_555
Co2 O3 1_555 1_555
C2A C4A 1_555 1_555
C7A C8A 1_555 1_555
C10A N1A 1_555 1_555
C11A N1A 1_555 1_555
C11A N3A 1_555 1_555
C12A N1A 1_555 1_555
C12A N4A 1_555 1_555
C13A N2A 1_555 1_555
C13A N3A 1_555 1_555
C14A N2A 1_555 1_555
C14A N4A 1_555 1_555

#END
