
#######################################################################
#
#                 Cambridge Crystallographic Data Centre
#                                CCDC 
#
#######################################################################
#
# If this CIF has been generated from an entry in the Cambridge 
# Structural Database, then it will include bibliographic, chemical, 
# crystal, experimental, refinement or atomic coordinate data resulting 
# from the CCDC's data processing and validation procedures.
#
#######################################################################

data_DEYWIP
_symmetry_cell_setting           triclinic
_symmetry_space_group_name_H-M   'P -1'
_symmetry_Int_Tables_number      2
_space_group_name_Hall           '-P 1'
loop_
_symmetry_equiv_pos_site_id
_symmetry_equiv_pos_as_xyz
1 x,y,z
2 -x,-y,-z
_cell_length_a                   12.2030(10)
_cell_length_b                   15.1348(11)
_cell_length_c                   15.2241(13)
_cell_angle_alpha                77.3180(11)
_cell_angle_beta                 77.0710(9)
_cell_angle_gamma                85.5260(10)
_cell_volume                     2672.36
loop_
_atom_site_label
_atom_site_type_symbol
_atom_site_fract_x
_atom_site_fract_y
_atom_site_fract_z
Co1 Co 0.69783(3) 0.42358(3) 0.43007(3)
Co2 Co 0.65315(3) 0.93799(3) -0.12573(3)
O1 O 0.62364(18) 0.53881(13) 0.38703(14)
O2 O 0.37983(18) 0.63735(13) 0.44851(13)
O3 O 0.45035(18) 0.96367(13) 0.17154(13)
O4 O 0.60081(19) 0.90180(14) 0.00790(13)
N1 N 1.1847(2) 0.03810(16) 0.19422(16)
N2 N 0.6749(2) 0.33322(16) 0.35520(16)
N3 N 1.1343(2) 0.57835(16) -0.42786(16)
O5 O 0.74059(19) 0.53194(14) 0.25455(15)
N4 N 0.6595(2) 0.71300(16) -0.24720(16)
O6 O 0.3824(2) 0.53138(15) 0.36600(15)
N5 N 0.6267(2) 0.82193(16) -0.16607(16)
N6 N 0.9526(2) 0.54898(16) -0.37640(16)
C1 C 1.0559(3) 0.5386(2) -0.3584(2)
H1 H 1.0711 0.5066 -0.3027
O7 O 0.3466(2) 0.89261(15) 0.10873(15)
O8 O 0.7534(2) 0.81601(17) 0.01292(17)
N7 N 0.7121(2) 0.25219(17) 0.24561(17)
C2 C 1.1990(3) -0.06847(19) 0.34559(19)
H2 H 1.2768 -0.0769 0.3315
C3 C 1.1152(3) 0.66703(19) -0.5859(2)
H3 H 1.1912 0.6793 -0.6073
C4 C 0.6565(3) 0.8369(2) 0.0471(2)
C5 C 0.6568(3) 0.56575(19) 0.3007(2)
N8 N 0.9983(2) 0.05624(18) 0.22783(18)
C6 C 0.4109(2) 0.60354(19) 0.3768(2)
C7 C 0.6471(3) 0.70274(19) 0.17699(19)
H4 H 0.7197 0.6873 0.1488
C8 C 0.4873(3) 0.80579(18) 0.18014(18)
C9 C 0.5931(2) 0.64547(18) 0.25687(18)
C10 C 1.1434(2) -0.01401(18) 0.28123(19)
C11 C 0.4318(3) 0.74675(19) 0.25795(19)
H5 H 0.3587 0.7614 0.2854
C12 C 0.7226(3) 0.6567(2) -0.3094(2)
H6 H 0.7746 0.6937 -0.3590
H7 H 0.6710 0.6309 -0.3364
C13 C 1.0770(2) 0.61713(18) -0.4978(2)
C14 C 0.5486(3) 0.7539(2) -0.12499(19)
C15 C 0.5993(3) 0.2623(2) 0.3794(2)
C16 C 0.5133(3) 0.2391(2) 0.4553(2)
H8 H 0.4969 0.2732 0.5008
C17 C 0.5957(3) 0.78258(19) 0.13797(19)
C18 C 0.9627(3) 0.59922(19) -0.4659(2)
C19 C 1.0394(3) 0.6985(2) -0.6416(2)
C20 C 0.4242(3) 0.8930(2) 0.14837(19)
C21 C 0.7382(3) 0.3235(2) 0.2759(2)
H9 H 0.7958 0.3623 0.2435
C22 C 1.1988(3) -0.1635(2) 0.5015(2)
H10 H 1.1966 -0.1301 0.5487
H11 H 1.1632 -0.2204 0.5284
H12 H 1.2756 -0.1742 0.4726
C23 C 1.0274(3) -0.0036(2) 0.3027(2)
C24 C 0.4827(2) 0.66620(18) 0.29593(18)
C25 C 0.8853(3) 0.6290(2) -0.5214(2)
H13 H 0.8096 0.6159 -0.5001
C26 C 0.4641(3) 0.7443(2) -0.0462(2)
H14 H 0.4498 0.7894 -0.0119
C27 C 0.9240(3) 0.6787(2) -0.6092(2)
C28 C 0.6238(3) 0.2114(2) 0.3106(2)
C29 C 1.1371(3) -0.10947(19) 0.4302(2)
C30 C 0.4204(3) 0.5999(2) -0.0732(2)
C31 C 0.7874(3) 0.5811(2) -0.2569(2)
H15 H 0.8415 0.6081 -0.2336
H16 H 0.7351 0.5484 -0.2042
C32 C 0.6902(3) 0.7928(2) -0.2370(2)
H17 H 0.7506 0.8246 -0.2763
C33 C 0.9630(3) -0.0468(2) 0.3864(2)
H18 H 0.8849 -0.0405 0.3989
C34 C 0.5035(3) 0.6099(2) -0.1524(2)
H19 H 0.5156 0.5669 -0.1891
C35 C 0.5683(3) 0.68591(19) -0.1754(2)
C36 C 0.4011(3) 0.6666(2) -0.0188(2)
C37 C 1.0185(3) -0.0993(2) 0.4502(2)
C38 C 0.8491(3) 0.5139(2) -0.3125(2)
H20 H 0.7994 0.4971 -0.3473
H21 H 0.8677 0.4596 -0.2705
C39 C 1.0949(3) 0.0775(2) 0.1668(2)
H22 H 1.0981 0.1167 0.1100
C40 C 0.4512(3) 0.1632(2) 0.4621(3)
C41 C 0.5630(3) 0.1350(2) 0.3178(3)
H23 H 0.5800 0.1005 0.2726
C42 C 0.7691(3) 0.2254(3) 0.1590(2)
H24 H 0.7751 0.2786 0.1094
H25 H 0.7228 0.1828 0.1458
C43 C 0.9502(3) -0.1473(2) 0.5419(2)
H26 H 0.9615 -0.2117 0.5477
H27 H 0.9738 -0.1291 0.5911
H28 H 0.8718 -0.1317 0.5449
C44 C 0.4775(3) 0.1121(2) 0.3931(3)
C45 C 0.8835(3) 0.0931(3) 0.2223(3)
H29 H 0.8446 0.0514 0.2007
H30 H 0.8422 0.0982 0.2834
C46 C 0.8851(3) 0.1828(2) 0.1598(2)
H31 H 0.9212 0.1766 0.0978
H32 H 0.9298 0.2229 0.1784
C47 C 0.3483(3) 0.5170(2) -0.0456(3)
H33 H 0.3690 0.4809 -0.0917
H34 H 0.2705 0.5358 -0.0402
H35 H 0.3597 0.4819 0.0125
C48 C 1.0809(3) 0.7519(2) -0.7378(2)
H36 H 1.1611 0.7565 -0.7495
H37 H 1.0618 0.7218 -0.7814
H38 H 1.0464 0.8115 -0.7439
C49 C 0.8424(3) 0.7128(2) -0.6719(2)
H39 H 0.7690 0.6905 -0.6420
H40 H 0.8391 0.7779 -0.6850
H41 H 0.8674 0.6918 -0.7283
C50 C 0.3127(3) 0.6552(3) 0.0697(2)
H42 H 0.3009 0.7114 0.0903
H43 H 0.3376 0.6090 0.1159
H44 H 0.2435 0.6380 0.0590
C51 C 0.3589(3) 0.1367(3) 0.5462(3)
H45 H 0.2877 0.1590 0.5319
H46 H 0.3718 0.1624 0.5952
H47 H 0.3582 0.0719 0.5651
C52 C 0.4089(4) 0.0298(3) 0.4016(3)
H48 H 0.4378 0.0017 0.3500
H49 H 0.3317 0.0484 0.4025
H50 H 0.4139 -0.0127 0.4577
Co1A Co 0.30217(3) 0.57642(3) 0.56993(3)
Co1A_2 Co 1.30217(3) 0.57642(3) -0.43007(3)
Co2A Co 0.34685(3) 1.06201(3) 0.12573(3)
Co2A_2 Co 1.34685(3) 0.06201(3) 0.12573(3)
O2A O 0.62017(18) 0.36265(13) 0.55149(13)
O3A O 0.54965(18) 1.03633(13) -0.17154(13)
N1A N 0.8153(2) 0.96190(16) -0.19422(16)
N3A N 0.8657(2) 0.42165(16) 0.42786(16)
loop_
_geom_bond_atom_site_label_1
_geom_bond_atom_site_label_2
_geom_bond_site_symmetry_1
_geom_bond_site_symmetry_2
Co1 O1 1_555 1_555
Co2 O4 1_555 1_555
O1 C5 1_555 1_555
O2 C6 1_555 1_555
O3 C20 1_555 1_555
O4 C4 1_555 1_555
N1 C10 1_555 1_555
N2 Co1 1_555 1_555
N3 C1 1_555 1_555
O5 C5 1_555 1_555
N4 C12 1_555 1_555
O6 C6 1_555 1_555
N5 Co2 1_555 1_555
N6 C1 1_555 1_555
C1 H1 1_555 1_555
O7 C20 1_555 1_555
O8 C4 1_555 1_555
N7 C21 1_555 1_555
C2 H2 1_555 1_555
C3 H3 1_555 1_555
C4 C17 1_555 1_555
C5 C9 1_555 1_555
N8 C23 1_555 1_555
C6 C24 1_555 1_555
C7 H4 1_555 1_555
C8 C11 1_555 1_555
C9 C7 1_555 1_555
C10 C2 1_555 1_555
C11 H5 1_555 1_555
C12 H6 1_555 1_555
H7 C12 1_555 1_555
C13 N3 1_555 1_555
C14 N5 1_555 1_555
C15 N2 1_555 1_555
C16 C15 1_555 1_555
H8 C16 1_555 1_555
C17 C7 1_555 1_555
C18 N6 1_555 1_555
C19 C3 1_555 1_555
C20 C8 1_555 1_555
C21 N2 1_555 1_555
H9 C21 1_555 1_555
C22 H10 1_555 1_555
H11 C22 1_555 1_555
H12 C22 1_555 1_555
C23 C10 1_555 1_555
C24 C9 1_555 1_555
C25 C18 1_555 1_555
H13 C25 1_555 1_555
C26 C14 1_555 1_555
H14 C26 1_555 1_555
C27 C19 1_555 1_555
C28 N7 1_555 1_555
C29 C2 1_555 1_555
C30 C34 1_555 1_555
C31 C12 1_555 1_555
H15 C31 1_555 1_555
H16 C31 1_555 1_555
C32 N4 1_555 1_555
H17 C32 1_555 1_555
C33 C23 1_555 1_555
H18 C33 1_555 1_555
C34 H19 1_555 1_555
C35 N4 1_555 1_555
C36 C26 1_555 1_555
C37 C29 1_555 1_555
C38 N6 1_555 1_555
H20 C38 1_555 1_555
H21 C38 1_555 1_555
C39 N1 1_555 1_555
H22 C39 1_555 1_555
C40 C16 1_555 1_555
C41 C28 1_555 1_555
H23 C41 1_555 1_555
C42 N7 1_555 1_555
H24 C42 1_555 1_555
H25 C42 1_555 1_555
C43 C37 1_555 1_555
H26 C43 1_555 1_555
H27 C43 1_555 1_555
H28 C43 1_555 1_555
C44 C40 1_555 1_555
C45 N8 1_555 1_555
H29 C45 1_555 1_555
H30 C45 1_555 1_555
C46 C42 1_555 1_555
H31 C46 1_555 1_555
H32 C46 1_555 1_555
C47 C30 1_555 1_555
H33 C47 1_555 1_555
H34 C47 1_555 1_555
H35 C47 1_555 1_555
C48 C19 1_555 1_555
H36 C48 1_555 1_555
H37 C48 1_555 1_555
H38 C48 1_555 1_555
C49 C27 1_555 1_555
H39 C49 1_555 1_555
H40 C49 1_555 1_555
H41 C49 1_555 1_555
C50 C36 1_555 1_555
H42 C50 1_555 1_555
H43 C50 1_555 1_555
H44 C50 1_555 1_555
C51 C40 1_555 1_555
H45 C51 1_555 1_555
H46 C51 1_555 1_555
H47 C51 1_555 1_555
C52 C44 1_555 1_555
H48 C52 1_555 1_555
H49 C52 1_555 1_555
H50 C52 1_555 1_555
Co1A O2 1_555 1_555
Co1A_2 N3 1_555 1_555
Co2A O3 1_555 1_555
Co2A_2 N1 1_555 1_555
O2A Co1 1_555 1_555
O3A Co2 1_555 1_555
N1A Co2 1_555 1_555
N3A Co1 1_555 1_555
N5 C32 1_555 1_555
C3 C13 1_555 1_555
N8 C39 1_555 1_555
C8 C17 1_555 1_555
C11 C24 1_555 1_555
C13 C18 1_555 1_555
C14 C35 1_555 1_555
C15 C28 1_555 1_555
C22 C29 1_555 1_555
C25 C27 1_555 1_555
C30 C36 1_555 1_555
C31 C38 1_555 1_555
C33 C37 1_555 1_555
C34 C35 1_555 1_555
C41 C44 1_555 1_555
C45 C46 1_555 1_555

#END
