
#######################################################################
#
#                 Cambridge Crystallographic Data Centre
#                                CCDC 
#
#######################################################################
#
# If this CIF has been generated from an entry in the Cambridge 
# Structural Database, then it will include bibliographic, chemical, 
# crystal, experimental, refinement or atomic coordinate data resulting 
# from the CCDC's data processing and validation procedures.
#
#######################################################################

data_DEYWEL
_symmetry_cell_setting           triclinic
_symmetry_space_group_name_H-M   'P -1'
_symmetry_Int_Tables_number      2
_space_group_name_Hall           '-P 1'
loop_
_symmetry_equiv_pos_site_id
_symmetry_equiv_pos_as_xyz
1 x,y,z
2 -x,-y,-z
_cell_length_a                   9.9869(8)
_cell_length_b                   11.7213(10)
_cell_length_c                   12.9634(11)
_cell_angle_alpha                66.6760(10)
_cell_angle_beta                 88.5520(11)
_cell_angle_gamma                78.1790(10)
_cell_volume                     1361.29
loop_
_atom_site_label
_atom_site_type_symbol
_atom_site_fract_x
_atom_site_fract_y
_atom_site_fract_z
Co1 Co 0.98322(3) 0.05816(2) 0.15938(2)
O1 O 1.02428(16) -0.13982(14) 0.27419(13)
H1 H 1.0936 -0.1781 0.2571
N1 N 0.93718(18) 0.24929(16) 0.03885(15)
O2 O 0.79716(15) 0.03841(14) 0.12750(13)
O3 O 0.73998(16) 0.17813(14) -0.18200(14)
O4 O 0.84927(15) -0.02253(14) -0.07981(13)
O5 O 0.78856(16) -0.16832(15) 0.20960(14)
N2 N 0.97659(19) 0.80161(16) -0.40938(14)
C1 C 0.6179(2) 0.03875(18) -0.04961(17)
N3 N 0.9704(2) 0.41360(17) -0.11409(15)
N4 N 0.96264(19) 0.90365(17) -0.29447(15)
C2 C 0.6194(2) -0.02882(18) 0.06702(17)
C3 C 0.7453(2) -0.0566(2) 0.14090(17)
C4 C 0.8645(2) 0.9029(2) -0.45080(17)
C5 C 0.7456(2) 0.07047(19) -0.10818(17)
C6 C 1.0254(2) 0.6998(2) -0.44916(18)
H2 H 1.0377 0.7375 -0.5293
H3 H 1.1138 0.6508 -0.4113
C7 C 0.4979(2) 0.06751(18) -0.11496(17)
H4 H 0.4962 0.1136 -0.1923
C8 C 0.8568(2) 0.9663(2) -0.37869(17)
C9 C 0.7532(2) 1.0730(2) -0.39746(19)
H5 H 0.7468 1.1150 -0.3493
C10 C 0.8404(2) 0.3581(2) 0.03111(18)
C11 C 0.8629(2) 0.4614(2) -0.06365(19)
C12 C 1.0294(2) 0.8087(2) -0.31790(18)
H6 H 1.1064 0.7513 -0.2751
C13 C 1.0101(2) 0.2877(2) -0.04978(18)
H7 H 1.0813 0.2340 -0.0664
C14 C 0.8407(3) 0.6264(2) -0.5166(2)
H8 H 0.8480 0.6879 -0.5876
C15 C 0.7724(2) 0.9462(2) -0.54447(18)
H9 H 0.7802 0.9046 -0.5930
C16 C 0.6597(2) 1.1159(2) -0.4886(2)
C17 C 0.9180(2) 0.5149(2) -0.32095(19)
C18 C 0.7348(2) 0.3760(2) 0.0987(2)
H10 H 0.7149 0.3070 0.1593
C19 C 1.0198(3) 0.4840(2) -0.22386(18)
H11 H 1.1053 0.4339 -0.2340
H12 H 1.0382 0.5626 -0.2249
C20 C 0.9265(2) 0.6113(2) -0.42767(18)
C21 C 0.8194(3) 0.4435(2) -0.3082(2)
H13 H 0.8109 0.3817 -0.2376
C22 C 0.6698(2) 1.0522(2) -0.56325(19)
C23 C 0.7861(3) 0.5838(2) -0.0908(2)
H14 H 0.8019 0.6514 -0.1548
C24 C 0.6862(3) 0.6027(2) -0.0206(2)
C25 C 0.5675(3) 1.0986(3) -0.6623(2)
H15 H 0.5901 1.0459 -0.7037
H16 H 0.4772 1.0946 -0.6358
H17 H 0.5700 1.1848 -0.7103
C26 C 0.6590(3) 0.4981(3) 0.0747(2)
C27 C 0.7444(3) 0.5523(2) -0.5025(2)
H18 H 0.6880 0.5638 -0.5634
C28 C 0.5446(3) 1.2296(3) -0.5070(3)
H19 H 0.5470 1.2549 -0.4452
H20 H 0.5554 1.2987 -0.5758
H21 H 0.4583 1.2074 -0.5116
C29 C 0.7332(3) 0.4617(2) -0.3975(2)
H22 H 0.6676 0.4126 -0.3866
C30 C 0.6040(4) 0.7357(3) -0.0470(3)
H23 H 0.6336 0.7941 -0.1148
H24 H 0.6178 0.7597 0.0141
H25 H 0.5085 0.7378 -0.0569
C31 C 0.5474(3) 0.5188(3) 0.1505(3)
H26 H 0.5363 0.4381 0.2056
H27 H 0.4628 0.5630 0.1061
H28 H 0.5722 0.5685 0.1877
H29 H 0.963(3) -0.162(3) 0.256(3)
O2A O 0.20284(15) -0.03841(14) -0.12750(13)
O5A O 0.21144(16) 0.16832(15) -0.20960(14)
C1A C 0.3821(2) -0.03875(18) 0.04961(17)
C2A C 0.3806(2) 0.02882(18) -0.06702(17)
C3A C 0.2547(2) 0.0566(2) -0.14090(17)
C7A C 0.5021(2) -0.06751(18) 0.11496(17)
H4A H 0.5038 -0.1136 0.1923
O3A O 0.26002(16) -0.17813(14) 0.18200(14)
O4A O 0.15073(15) 0.02253(14) 0.07981(13)
C5A C 0.2544(2) -0.07047(19) 0.10818(17)
Co1A Co 0.01678(3) -0.05816(2) -0.15938(2)
O1A O -0.02428(16) 0.13982(14) -0.27419(13)
H1A H -0.0936 0.1781 -0.2571
N1A N 0.06282(18) -0.24929(16) -0.03885(15)
N2A N 0.02341(19) -0.80161(16) 0.40938(14)
N3A N 0.0296(2) -0.41360(17) 0.11409(15)
N4A N 0.03736(19) -0.90365(17) 0.29447(15)
C4A C 0.1355(2) -0.9029(2) 0.45080(17)
C6A C -0.0254(2) -0.6998(2) 0.44916(18)
H2A H -0.0377 -0.7375 0.5293
H3A H -0.1138 -0.6508 0.4113
C8A C 0.1432(2) -0.9663(2) 0.37869(17)
C9A C 0.2468(2) -1.0730(2) 0.39746(19)
H5A H 0.2532 -1.1150 0.3493
C10A C 0.1596(2) -0.3581(2) -0.03111(18)
C11A C 0.1371(2) -0.4614(2) 0.06365(19)
C12A C -0.0294(2) -0.8087(2) 0.31790(18)
H6A H -0.1064 -0.7513 0.2751
C13A C -0.0101(2) -0.2877(2) 0.04978(18)
H7A H -0.0813 -0.2340 0.0664
C14A C 0.1593(3) -0.6264(2) 0.5166(2)
H8A H 0.1520 -0.6879 0.5876
C15A C 0.2276(2) -0.9462(2) 0.54447(18)
H9A H 0.2198 -0.9046 0.5930
C16A C 0.3403(2) -1.1159(2) 0.4886(2)
C17A C 0.0820(2) -0.5149(2) 0.32095(19)
C18A C 0.2652(2) -0.3760(2) -0.0987(2)
H10A H 0.2851 -0.3070 -0.1593
C19A C -0.0198(3) -0.4840(2) 0.22386(18)
H11A H -0.1053 -0.4339 0.2340
H12A H -0.0382 -0.5626 0.2249
C20A C 0.0735(2) -0.6113(2) 0.42767(18)
C21A C 0.1806(3) -0.4435(2) 0.3082(2)
H13A H 0.1891 -0.3817 0.2376
C22A C 0.3302(2) -1.0522(2) 0.56325(19)
C23A C 0.2139(3) -0.5838(2) 0.0908(2)
H14A H 0.1981 -0.6514 0.1548
C24A C 0.3138(3) -0.6027(2) 0.0206(2)
C25A C 0.4325(3) -1.0986(3) 0.6623(2)
H15A H 0.4099 -1.0459 0.7037
H16A H 0.5228 -1.0946 0.6358
H17A H 0.4300 -1.1848 0.7103
C26A C 0.3410(3) -0.4981(3) -0.0747(2)
C27A C 0.2556(3) -0.5523(2) 0.5025(2)
H18A H 0.3120 -0.5638 0.5634
C28A C 0.4554(3) -1.2296(3) 0.5070(3)
H19A H 0.4530 -1.2549 0.4452
H20A H 0.4446 -1.2987 0.5758
H21A H 0.5417 -1.2074 0.5116
C29A C 0.2668(3) -0.4617(2) 0.3975(2)
H22A H 0.3324 -0.4126 0.3866
C30A C 0.3960(4) -0.7357(3) 0.0470(3)
H23A H 0.3664 -0.7941 0.1148
H24A H 0.3822 -0.7597 -0.0141
H25A H 0.4915 -0.7378 0.0569
C31A C 0.4526(3) -0.5188(3) -0.1505(3)
H26A H 0.4637 -0.4381 -0.2056
H27A H 0.5372 -0.5630 -0.1061
H28A H 0.4278 -0.5685 -0.1877
H29A H 0.037(3) 0.162(3) -0.256(3)
Co1_2 Co -0.01678(3) -0.94184(2) 0.15938(2)
Co1_3 Co -0.01678(3) 0.05816(2) 0.15938(2)
Co1A_2 Co 1.01678(3) -0.05816(2) -0.15938(2)
Co1A_3 Co 1.01678(3) 0.94184(2) -0.15938(2)
O4_2 O -0.15073(15) -0.02253(14) -0.07981(13)
O4A_2 O 1.15073(15) 0.02253(14) 0.07981(13)
N4_2 N -0.03736(19) -0.09635(17) -0.29447(15)
N4A_2 N 1.03736(19) 0.09635(17) 0.29447(15)
loop_
_geom_bond_atom_site_label_1
_geom_bond_atom_site_label_2
_geom_bond_site_symmetry_1
_geom_bond_site_symmetry_2
Co1 O1 1_555 1_555
O1 H1 1_555 1_555
N1 Co1 1_555 1_555
O2 Co1 1_555 1_555
O3 C5 1_555 1_555
O4 C5 1_555 1_555
O5 C3 1_555 1_555
N2 C4 1_555 1_555
C1 C2 1_555 1_555
N3 C11 1_555 1_555
N4 C8 1_555 1_555
C2 C3 1_555 1_555
C3 O2 1_555 1_555
C4 C8 1_555 1_555
C5 C1 1_555 1_555
C6 N2 1_555 1_555
H2 C6 1_555 1_555
H3 C6 1_555 1_555
C7 C1 1_555 1_555
H4 C7 1_555 1_555
C8 C9 1_555 1_555
C9 H5 1_555 1_555
C10 N1 1_555 1_555
C11 C10 1_555 1_555
C12 N2 1_555 1_555
H6 C12 1_555 1_555
C13 N1 1_555 1_555
H7 C13 1_555 1_555
C14 H8 1_555 1_555
C15 C4 1_555 1_555
H9 C15 1_555 1_555
C16 C9 1_555 1_555
C17 C19 1_555 1_555
C18 C10 1_555 1_555
H10 C18 1_555 1_555
C19 N3 1_555 1_555
H11 C19 1_555 1_555
H12 C19 1_555 1_555
C20 C6 1_555 1_555
C21 C17 1_555 1_555
H13 C21 1_555 1_555
C22 C15 1_555 1_555
C23 C11 1_555 1_555
H14 C23 1_555 1_555
C24 C23 1_555 1_555
C25 C22 1_555 1_555
H15 C25 1_555 1_555
H16 C25 1_555 1_555
H17 C25 1_555 1_555
C26 C18 1_555 1_555
C27 C14 1_555 1_555
H18 C27 1_555 1_555
C28 C16 1_555 1_555
H19 C28 1_555 1_555
H20 C28 1_555 1_555
H21 C28 1_555 1_555
C29 C21 1_555 1_555
H22 C29 1_555 1_555
C30 C24 1_555 1_555
H23 C30 1_555 1_555
H24 C30 1_555 1_555
H25 C30 1_555 1_555
C31 C26 1_555 1_555
H26 C31 1_555 1_555
H27 C31 1_555 1_555
H28 C31 1_555 1_555
H29 O1 1_555 1_555
O2A C3A 1_555 1_555
O5A C3A 1_555 1_555
C1A C2A 1_555 1_555
C2A C7 1_555 1_555
C3A C2A 1_555 1_555
C7A C2 1_555 1_555
H4A C7A 1_555 1_555
O3A C5A 1_555 1_555
O4A C5A 1_555 1_555
C5A C1A 1_555 1_555
Co1A O2A 1_555 1_555
O1A Co1A 1_555 1_555
H1A O1A 1_555 1_555
N1A Co1A 1_555 1_555
N2A C4A 1_555 1_555
N3A C11A 1_555 1_555
N4A C8A 1_555 1_555
C4A C8A 1_555 1_555
C6A N2A 1_555 1_555
H2A C6A 1_555 1_555
H3A C6A 1_555 1_555
C8A C9A 1_555 1_555
C9A H5A 1_555 1_555
C10A N1A 1_555 1_555
C11A C10A 1_555 1_555
C12A N2A 1_555 1_555
H6A C12A 1_555 1_555
C13A N1A 1_555 1_555
H7A C13A 1_555 1_555
C14A H8A 1_555 1_555
C15A C4A 1_555 1_555
H9A C15A 1_555 1_555
C16A C9A 1_555 1_555
C17A C19A 1_555 1_555
C18A C10A 1_555 1_555
H10A C18A 1_555 1_555
C19A N3A 1_555 1_555
H11A C19A 1_555 1_555
H12A C19A 1_555 1_555
C20A C6A 1_555 1_555
C21A C17A 1_555 1_555
H13A C21A 1_555 1_555
C22A C15A 1_555 1_555
C23A C11A 1_555 1_555
H14A C23A 1_555 1_555
C24A C23A 1_555 1_555
C25A C22A 1_555 1_555
H15A C25A 1_555 1_555
H16A C25A 1_555 1_555
H17A C25A 1_555 1_555
C26A C18A 1_555 1_555
C27A C14A 1_555 1_555
H18A C27A 1_555 1_555
C28A C16A 1_555 1_555
H19A C28A 1_555 1_555
H20A C28A 1_555 1_555
H21A C28A 1_555 1_555
C29A C21A 1_555 1_555
H22A C29A 1_555 1_555
C30A C24A 1_555 1_555
H23A C30A 1_555 1_555
H24A C30A 1_555 1_555
H25A C30A 1_555 1_555
C31A C26A 1_555 1_555
H26A C31A 1_555 1_555
H27A C31A 1_555 1_555
H28A C31A 1_555 1_555
H29A O1A 1_555 1_555
Co1_2 N4A 1_555 1_555
Co1_3 O4A 1_555 1_555
Co1A_2 O4 1_555 1_555
Co1A_3 N4 1_555 1_555
O4_2 Co1A 1_555 1_555
O4A_2 Co1 1_555 1_555
N4_2 Co1A 1_555 1_555
N4A_2 Co1 1_555 1_555
N3 C13 1_555 1_555
N4 C12 1_555 1_555
C14 C20 1_555 1_555
C16 C22 1_555 1_555
C17 C20 1_555 1_555
C24 C26 1_555 1_555
C27 C29 1_555 1_555
C1A C7A 1_555 1_555
N3A C13A 1_555 1_555
N4A C12A 1_555 1_555
C14A C20A 1_555 1_555
C16A C22A 1_555 1_555
C17A C20A 1_555 1_555
C24A C26A 1_555 1_555
C27A C29A 1_555 1_555

#END
