
#######################################################################
#
#                 Cambridge Crystallographic Data Centre
#                                CCDC 
#
#######################################################################
#
# If this CIF has been generated from an entry in the Cambridge 
# Structural Database, then it will include bibliographic, chemical, 
# crystal, experimental, refinement or atomic coordinate data resulting 
# from the CCDC's data processing and validation procedures.
#
#######################################################################

data_DEYYOW
_symmetry_cell_setting           monoclinic
_symmetry_space_group_name_H-M   'C 2/c'
_symmetry_Int_Tables_number      15
_space_group_name_Hall           '-C 2yn'
loop_
_symmetry_equiv_pos_site_id
_symmetry_equiv_pos_as_xyz
1 x,y,z
2 1/2+x,1/2+y,z
3 -x,y,1/2-z
4 1/2-x,1/2+y,1/2-z
5 -x,-y,-z
6 1/2-x,1/2-y,-z
7 x,-y,1/2+z
8 1/2+x,1/2-y,1/2+z
_cell_length_a                   16.438(3)
_cell_length_b                   4.5382(9)
_cell_length_c                   18.973(4)
_cell_angle_alpha                90
_cell_angle_beta                 91.04(3)
_cell_angle_gamma                90
_cell_volume                     1415.13
loop_
_atom_site_label
_atom_site_type_symbol
_atom_site_fract_x
_atom_site_fract_y
_atom_site_fract_z
Pb1 Pb 0.0000 0.18515(8) 0.7500
I1 I -0.04230(3) -0.30824(11) 0.63507(2)
O1 O 0.1457(3) 0.2011(12) 0.7115(2)
N1 N 0.1736(3) 0.0713(16) 0.6535(3)
C1 C 0.2329(4) -0.1819(17) 0.5321(3)
C2 C 0.2335(4) -0.125(2) 0.6584(4)
H1 H 0.2554 -0.1772 0.7034
C3 C 0.1407(5) 0.1428(19) 0.5895(4)
H2 H 0.0970 0.2797 0.5865
C4 C 0.2639(5) -0.252(2) 0.5992(4)
H3 H 0.3069 -0.3914 0.6037
C5 C 0.1697(4) 0.0201(19) 0.5302(4)
H4 H 0.1462 0.0739 0.4859
Pb1_2 Pb 0.0000 -0.81485(8) 0.7500
Pb1G Pb 0.5000 -0.68515(8) 0.2500
Pb1_3 Pb 0.0000 1.18515(8) 0.7500
I1_2 I -0.04230(3) 0.69176(11) 0.63507(2)
I1B I 0.04230(3) -0.30824(11) 0.86493(2)
I1B_2 I 0.04230(3) 0.69176(11) 0.86493(2)
O1E O 0.3543(3) -0.7011(12) 0.2885(2)
O1B O -0.1457(3) 0.2011(12) 0.7885(2)
N1E N 0.3264(3) -0.5713(16) 0.3465(3)
C1E C 0.2671(4) -0.3181(17) 0.4679(3)
C2E C 0.2665(4) -0.375(2) 0.3416(4)
H1E H 0.2446 -0.3228 0.2966
C3E C 0.3593(5) -0.6428(19) 0.4105(4)
H2E H 0.4030 -0.7797 0.4135
C4E C 0.2361(5) -0.248(2) 0.4008(4)
H3E H 0.1931 -0.1086 0.3963
C5E C 0.3303(4) -0.5201(19) 0.4698(4)
H4E H 0.3538 -0.5739 0.5141
loop_
_geom_bond_atom_site_label_1
_geom_bond_atom_site_label_2
_geom_bond_site_symmetry_1
_geom_bond_site_symmetry_2
Pb1 I1 1_555 1_555
I1 Pb1_2 1_555 1_555
O1 Pb1 1_555 1_555
N1 O1 1_555 1_555
C1 C4 1_555 1_555
C2 N1 1_555 1_555
H1 C2 1_555 1_555
C3 N1 1_555 1_555
H2 C3 1_555 1_555
C4 C2 1_555 1_555
H3 C4 1_555 1_555
C5 C1 1_555 1_555
H4 C5 1_555 1_555
Pb1_2 I1B 1_555 1_555
Pb1G O1E 1_555 1_555
Pb1_3 I1_2 1_555 1_555
I1_2 Pb1 1_555 1_555
I1B Pb1 1_555 1_555
I1B_2 Pb1 1_555 1_555
O1E N1E 1_555 1_555
O1B Pb1 1_555 1_555
N1E C2E 1_555 1_555
C1E C1 1_555 1_555
C2E H1E 1_555 1_555
C3E N1E 1_555 1_555
H2E C3E 1_555 1_555
C4E C1E 1_555 1_555
H3E C4E 1_555 1_555
C5E C1E 1_555 1_555
H4E C5E 1_555 1_555
C3 C5 1_555 1_555
Pb1_3 I1B_2 1_555 1_555
C2E C4E 1_555 1_555
C3E C5E 1_555 1_555

#END
