
#######################################################################
#
#                 Cambridge Crystallographic Data Centre
#                                CCDC 
#
#######################################################################
#
# If this CIF has been generated from an entry in the Cambridge 
# Structural Database, then it will include bibliographic, chemical, 
# crystal, experimental, refinement or atomic coordinate data resulting 
# from the CCDC's data processing and validation procedures.
#
#######################################################################

data_DEYZEN
_symmetry_cell_setting           monoclinic
_symmetry_space_group_name_H-M   'P 21/n'
_symmetry_Int_Tables_number      14
_space_group_name_Hall           '-P 2yn'
loop_
_symmetry_equiv_pos_site_id
_symmetry_equiv_pos_as_xyz
1 x,y,z
2 1/2-x,1/2+y,1/2-z
3 -x,-y,-z
4 1/2+x,1/2-y,1/2+z
_cell_length_a                   12.744(6)
_cell_length_b                   8.161(4)
_cell_length_c                   21.438(9)
_cell_angle_alpha                90
_cell_angle_beta                 92.233(6)
_cell_angle_gamma                90
_cell_volume                     2227.94
loop_
_atom_site_label
_atom_site_type_symbol
_atom_site_fract_x
_atom_site_fract_y
_atom_site_fract_z
Co1 Co 0.751375(18) 0.24775(3) 0.250053(10)
O1 O 0.51514(11) 0.39202(18) 0.21534(7)
O2 O 0.60575(10) 0.15975(17) 0.21943(6)
O3 O 0.76912(11) 0.33597(17) 0.16077(6)
O4 O 0.81244(13) 0.10618(18) 0.11251(6)
O5 O 0.81023(10) -0.00249(14) 0.22828(6)
H1 H 0.8133 0.0174 0.1895
H2 H 0.8683 -0.0219 0.2477
O6 O 0.89828(10) 0.32979(18) 0.27499(6)
H3 H 0.9341 0.2806 0.3035
H4 H 0.8945 0.4336 0.2773
O7 O 0.72686(11) 0.16636(18) 0.33764(6)
H5 H 0.7498 0.2135 0.3708
H6 H 0.7247 0.0623 0.3375
C1 C 0.52614(16) 0.2441(3) 0.20264(10)
C2 C 0.44328(15) 0.1576(2) 0.16316(9)
C3 C 0.47437(17) 0.0654(3) 0.11395(10)
H7 H 0.5455 0.0554 0.1067
C4 C 0.4004(2) -0.0146(3) 0.07416(11)
H8 H 0.4228 -0.0754 0.0405
C5 C 0.2964(2) -0.0032(3) 0.08478(12)
H9 H 0.2482 -0.0566 0.0582
C6 C 0.26050(17) 0.0880(3) 0.13517(10)
C7 C 0.15182(18) 0.0995(3) 0.14677(13)
H10 H 0.1034 0.0455 0.1205
C8 C 0.1178(2) 0.1863(4) 0.19474(15)
H11 H 0.0462 0.1922 0.2015
C9 C 0.1891(2) 0.2685(3) 0.23499(14)
H12 H 0.1644 0.3286 0.2682
C10 C 0.29457(18) 0.2612(3) 0.22590(11)
H13 H 0.3410 0.3154 0.2533
C11 C 0.33384(15) 0.1723(3) 0.17531(9)
C12 C 0.78592(17) 0.2534(3) 0.11211(9)
C13 C 0.77064(17) 0.3419(3) 0.05096(9)
C14 C 0.68054(18) 0.4303(3) 0.04125(10)
H14 H 0.6327 0.4376 0.0728
C15 C 0.6592(2) 0.5107(3) -0.01627(13)
H15 H 0.5975 0.5703 -0.0225
C16 C 0.7290(3) 0.5009(3) -0.06222(13)
H16 H 0.7142 0.5538 -0.1000
C17 C 0.8226(2) 0.4131(3) -0.05415(10)
C18 C 0.8958(3) 0.4017(4) -0.10191(13)
H17 H 0.8812 0.4537 -0.1399
C19 C 0.9857(3) 0.3179(6) -0.09371(18)
H18 H 1.0321 0.3112 -0.1260
C20 C 1.0097(2) 0.2411(4) -0.03728(17)
H19 H 1.0731 0.1857 -0.0317
C21 C 0.9415(2) 0.2456(3) 0.01037(13)
H20 H 0.9586 0.1923 0.0477
C22 C 0.84581(18) 0.3303(3) 0.00333(9)
Co1A Co 0.748625(18) -0.25225(3) 0.249947(10)
O5A O 0.68977(10) 0.49751(14) 0.27172(6)
H1A H 0.6867 0.5174 0.3105
H2A H 0.6317 0.4781 0.2523
O8 O 0.70363(15) 0.8485(2) 0.06364(7)
H21 H 0.7110 0.7990 0.0292
H22 H 0.7474 0.9255 0.0708
O9 O 0.48919(14) 0.6529(2) 0.13930(9)
H23 H 0.4828 0.5642 0.1596
H24 H 0.4325 0.6970 0.1255
loop_
_geom_bond_atom_site_label_1
_geom_bond_atom_site_label_2
_geom_bond_site_symmetry_1
_geom_bond_site_symmetry_2
Co1 O2 1_555 1_555
O1 C1 1_555 1_555
O2 C1 1_555 1_555
O3 Co1 1_555 1_555
O4 C12 1_555 1_555
O5 Co1 1_555 1_555
H1 O5 1_555 1_555
H2 O5 1_555 1_555
O6 Co1 1_555 1_555
H3 O6 1_555 1_555
H4 O6 1_555 1_555
O7 Co1 1_555 1_555
H5 O7 1_555 1_555
H6 O7 1_555 1_555
C1 C2 1_555 1_555
C2 C3 1_555 1_555
C3 H7 1_555 1_555
C4 C3 1_555 1_555
H8 C4 1_555 1_555
C5 C4 1_555 1_555
H9 C5 1_555 1_555
C6 C5 1_555 1_555
C7 C6 1_555 1_555
H10 C7 1_555 1_555
C8 C7 1_555 1_555
H11 C8 1_555 1_555
C9 C8 1_555 1_555
H12 C9 1_555 1_555
C10 C9 1_555 1_555
H13 C10 1_555 1_555
C11 C2 1_555 1_555
C12 O3 1_555 1_555
C13 C12 1_555 1_555
C14 C13 1_555 1_555
H14 C14 1_555 1_555
C15 C14 1_555 1_555
H15 C15 1_555 1_555
C16 C15 1_555 1_555
H16 C16 1_555 1_555
C17 C16 1_555 1_555
C18 C17 1_555 1_555
H17 C18 1_555 1_555
C19 C18 1_555 1_555
H18 C19 1_555 1_555
C20 C19 1_555 1_555
H19 C20 1_555 1_555
C21 C20 1_555 1_555
H20 C21 1_555 1_555
C22 C13 1_555 1_555
O8 H21 1_555 1_555
H22 O8 1_555 1_555
O9 H23 1_555 1_555
H24 O9 1_555 1_555
Co1A O5 1_555 1_555
O5A Co1 1_555 1_555
H1A O5A 1_555 1_555
H2A O5A 1_555 1_555
C6 C11 1_555 1_555
C10 C11 1_555 1_555
C17 C22 1_555 1_555
C21 C22 1_555 1_555

#END
