
#######################################################################
#
#                 Cambridge Crystallographic Data Centre
#                                CCDC 
#
#######################################################################
#
# If this CIF has been generated from an entry in the Cambridge 
# Structural Database, then it will include bibliographic, chemical, 
# crystal, experimental, refinement or atomic coordinate data resulting 
# from the CCDC's data processing and validation procedures.
#
#######################################################################

data_DEZGAS
_symmetry_cell_setting           monoclinic
_symmetry_space_group_name_H-M   'P 21/c'
_symmetry_Int_Tables_number      14
_space_group_name_Hall           '-P 2ybc'
loop_
_symmetry_equiv_pos_site_id
_symmetry_equiv_pos_as_xyz
1 x,y,z
2 -x,1/2+y,1/2-z
3 -x,-y,-z
4 x,1/2-y,1/2+z
_cell_length_a                   11.227(2)
_cell_length_b                   8.9820(18)
_cell_length_c                   23.119(5)
_cell_angle_alpha                90
_cell_angle_beta                 94.84(3)
_cell_angle_gamma                90
_cell_volume                     2323.03
loop_
_atom_site_label
_atom_site_type_symbol
_atom_site_fract_x
_atom_site_fract_y
_atom_site_fract_z
Gd1 Gd 0.202119(12) 0.161742(15) 0.264910(6)
O1 O 0.1062(2) -0.0371(3) 0.20804(10)
O2 O 0.2046(2) 0.1245(3) 0.15841(10)
O3 O -0.0222(2) -0.3548(3) 0.18230(12)
O4 O -0.1296(2) -0.1511(3) 0.16703(11)
O5 O 0.2466(2) -0.0743(3) 0.32390(10)
O6 O 0.3056(3) 0.1406(3) 0.36125(12)
O7 O 0.4879(3) -0.3615(3) 0.34401(14)
O8 O 0.5180(2) -0.1197(3) 0.32789(12)
H1 H 0.5408 -0.1505 0.2973
O9 O 0.3941(3) 0.0641(4) 0.24669(14)
H2 H 0.4104 0.0893 0.2128
H3 H 0.4469 0.0991 0.2715
O10 O 0.3169(2) 0.3765(3) 0.24921(13)
H4 H 0.2864 0.4224 0.2194
H5 H 0.3172 0.4332 0.2787
O11 O 0.0488(3) 0.3235(3) 0.21274(12)
H6 H -0.0188 0.2805 0.2114
H7 H 0.0451 0.4058 0.2307
N1 N 0.0364(3) -0.2997(4) -0.05036(13)
H8 H -0.0088 -0.3727 -0.0623
N2 N 0.1680(3) -0.1123(4) -0.04993(12)
N3 N 0.3336(3) -0.0961(4) 0.57751(12)
N4 N 0.4699(3) -0.2682(4) 0.57307(12)
H9 H 0.5208 -0.3366 0.5837
C1 C 0.1072(3) -0.2187(5) -0.08072(15)
H10 H 0.1143 -0.2341 -0.1201
C2 C 0.0515(3) -0.2406(4) 0.00492(14)
C3 C -0.0011(3) -0.2799(4) 0.05488(15)
H11 H -0.0532 -0.3604 0.0550
C4 C 0.0260(3) -0.1964(4) 0.10466(14)
C5 C 0.1088(3) -0.0772(4) 0.10572(13)
C6 C 0.1635(3) -0.0395(4) 0.05610(14)
H12 H 0.2179 0.0386 0.0562
C7 C 0.1342(3) -0.1224(4) 0.00621(13)
C8 C 0.1417(3) 0.0081(4) 0.16011(14)
C9 C -0.0440(3) -0.2352(4) 0.15541(13)
C10 C 0.4045(4) -0.1927(5) 0.60792(16)
H13 H 0.4074 -0.2051 0.6479
C11 C 0.3567(3) -0.1093(4) 0.51927(14)
C12 C 0.3115(3) -0.0320(4) 0.47043(14)
H14 H 0.2562 0.0445 0.4727
C13 C 0.3524(3) -0.0740(4) 0.41815(13)
C14 C 0.4392(3) -0.1880(4) 0.41522(14)
C15 C 0.4850(3) -0.2620(4) 0.46445(14)
H15 H 0.5415 -0.3372 0.4626
C16 C 0.4434(3) -0.2196(4) 0.51700(14)
C17 C 0.2985(3) 0.0015(4) 0.36411(14)
C18 C 0.4843(3) -0.2269(4) 0.35684(14)
Gd1A Gd -0.202119(12) -0.338258(15) 0.235090(6)
O3A O 0.0222(2) 0.1452(3) 0.31770(12)
O4A O 0.1296(2) 0.3489(3) 0.33297(11)
O12 O 0.1730(3) 0.1017(4) 0.60651(16)
H16 H 0.2347 0.0491 0.6024
H17 H 0.1605 0.1054 0.6422
O13 O 0.3450(2) 0.4529(3) 0.39520(11)
H18 H 0.2863 0.4361 0.3704
H19 H 0.3263 0.5206 0.4184
O14 O 0.2402(5) 0.6624(4) 0.2352(2)
H20 H 0.2552 0.7059 0.2677
H21 H 0.2971 0.6778 0.2139
loop_
_geom_bond_atom_site_label_1
_geom_bond_atom_site_label_2
_geom_bond_site_symmetry_1
_geom_bond_site_symmetry_2
Gd1 O1 1_555 1_555
O1 C8 1_555 1_555
O2 Gd1 1_555 1_555
O3 C9 1_555 1_555
O4 C9 1_555 1_555
O5 Gd1 1_555 1_555
O6 Gd1 1_555 1_555
O7 C18 1_555 1_555
O8 H1 1_555 1_555
O9 Gd1 1_555 1_555
H2 O9 1_555 1_555
H3 O9 1_555 1_555
O10 Gd1 1_555 1_555
H4 O10 1_555 1_555
H5 O10 1_555 1_555
O11 Gd1 1_555 1_555
H6 O11 1_555 1_555
H7 O11 1_555 1_555
N1 H8 1_555 1_555
N2 C1 1_555 1_555
N3 C10 1_555 1_555
N4 H9 1_555 1_555
C1 N1 1_555 1_555
H10 C1 1_555 1_555
C2 N1 1_555 1_555
C3 C2 1_555 1_555
H11 C3 1_555 1_555
C4 C3 1_555 1_555
C5 C4 1_555 1_555
C6 C5 1_555 1_555
H12 C6 1_555 1_555
C7 N2 1_555 1_555
C8 O2 1_555 1_555
C9 C4 1_555 1_555
C10 N4 1_555 1_555
H13 C10 1_555 1_555
C11 N3 1_555 1_555
C12 C11 1_555 1_555
H14 C12 1_555 1_555
C13 C12 1_555 1_555
C14 C13 1_555 1_555
C15 C14 1_555 1_555
H15 C15 1_555 1_555
C16 N4 1_555 1_555
C17 O5 1_555 1_555
C18 O8 1_555 1_555
O12 H16 1_555 1_555
H17 O12 1_555 1_555
O13 H18 1_555 1_555
H19 O13 1_555 1_555
O14 H20 1_555 1_555
H21 O14 1_555 1_555
Gd1A O3 1_555 1_555
O3A Gd1 1_555 1_555
O4A Gd1 1_555 1_555
O4 Gd1A 1_555 1_555
O6 C17 1_555 1_555
C2 C7 1_555 1_555
C5 C8 1_555 1_555
C6 C7 1_555 1_555
C11 C16 1_555 1_555
C13 C17 1_555 1_555
C14 C18 1_555 1_555
C15 C16 1_555 1_555

#END
