
#######################################################################
#
#                 Cambridge Crystallographic Data Centre
#                                CCDC 
#
#######################################################################
#
# If this CIF has been generated from an entry in the Cambridge 
# Structural Database, then it will include bibliographic, chemical, 
# crystal, experimental, refinement or atomic coordinate data resulting 
# from the CCDC's data processing and validation procedures.
#
#######################################################################

data_DEZJAV
_symmetry_cell_setting           monoclinic
_symmetry_space_group_name_H-M   'P 21/n'
_symmetry_Int_Tables_number      14
_space_group_name_Hall           '-P 2yn'
loop_
_symmetry_equiv_pos_site_id
_symmetry_equiv_pos_as_xyz
1 x,y,z
2 1/2-x,1/2+y,1/2-z
3 -x,-y,-z
4 1/2+x,1/2-y,1/2+z
_cell_length_a                   11.101(2)
_cell_length_b                   15.172(3)
_cell_length_c                   15.672(3)
_cell_angle_alpha                90
_cell_angle_beta                 95.80(3)
_cell_angle_gamma                90
_cell_volume                     2626.03
loop_
_atom_site_label
_atom_site_type_symbol
_atom_site_fract_x
_atom_site_fract_y
_atom_site_fract_z
Cd1 Cd 0.56415(6) 0.33345(4) 0.07084(4)
Co1 Co 0.0000 0.0000 0.0000
Co2 Co 0.09101(9) 0.18671(7) 0.16779(7)
S1 S 0.6247(2) 0.66049(15) 0.05001(15)
S2 S 0.7194(2) 0.31871(16) 0.22489(16)
S3 S 0.5291(3) 0.16763(17) 0.10826(19)
S4 S 0.4122(2) 0.40777(16) 0.18383(16)
S5 S 0.2392(2) 0.20990(19) 0.46883(16)
C1 C 0.3050(8) 0.3315(6) 0.1761(5)
N1 N -0.0568(5) 0.0946(4) 0.1686(4)
N2 N -0.0217(5) -0.1382(5) 0.0285(4)
N3 N 0.1315(8) 0.1777(5) 0.3023(5)
N4 N 0.4355(7) -0.0749(6) 0.1965(7)
H1 H 0.4518 -0.1261 0.1772
H2 H 0.4826 -0.0515 0.2372
N5 N 0.1983(6) 0.0729(5) 0.1450(4)
C2 C -0.0102(8) -0.1796(6) 0.1038(6)
H3 H 0.0145 -0.1531 0.1562
C3 C -0.1982(7) 0.0026(5) 0.1291(6)
H4 H -0.2456 -0.0399 0.0991
N6 N -0.0392(6) -0.2644(5) 0.0934(4)
N7 N -0.0996(5) 0.0341(4) 0.1058(4)
N8 N 0.1650(6) 0.0059(4) 0.0875(5)
C4 C 0.2971(7) 0.0503(6) 0.1878(6)
H5 H 0.3389 0.0839 0.2308
N9 N 0.2289(7) 0.2798(6) 0.1703(5)
N10 N -0.0581(6) -0.2010(4) -0.0308(4)
C5 C 0.8583(9) 0.3002(5) 0.1974(5)
N11 N -0.2232(6) 0.0395(4) 0.2031(4)
N12 N 0.3323(6) -0.0296(5) 0.1615(5)
C6 C 0.2489(7) -0.0539(6) 0.0990(5)
H6 H 0.2504 -0.1061 0.0680
N13 N 0.6266(7) 0.4768(5) 0.0639(5)
C7 C -0.0697(8) -0.2751(6) 0.0093(5)
H7 H -0.0954 -0.3279 -0.0167
N14 N -0.0324(9) -0.3272(6) 0.1583(6)
H8 H -0.0079 -0.3123 0.2101
H9 H -0.0528 -0.3809 0.1466
N15 N -0.3225(6) 0.0280(5) 0.2506(5)
H10 H -0.3798 -0.0077 0.2327
H11 H -0.3262 0.0567 0.2976
C8 C -0.1332(7) 0.0965(6) 0.2260(5)
H12 H -0.1268 0.1317 0.2749
N16 N 0.9540(7) 0.2866(5) 0.1811(5)
C9 C 0.4672(9) 0.1308(7) 0.0158(7)
N17 N 0.4257(12) 0.1069(9) -0.0490(9)
C10 C 0.6241(8) 0.5519(6) 0.0578(5)
C11 C 0.1699(8) 0.1896(6) 0.3724(5)
Cd1B Cd -0.56415(6) -0.33345(4) -0.07084(4)
Co2B Co -0.09101(9) -0.18671(7) -0.16779(7)
S1B S -0.6247(2) -0.66049(15) -0.05001(15)
S2B S -0.7194(2) -0.31871(16) -0.22489(16)
S3B S -0.5291(3) -0.16763(17) -0.10826(19)
S4B S -0.4122(2) -0.40777(16) -0.18383(16)
S5B S -0.2392(2) -0.20990(19) -0.46883(16)
C1B C -0.3050(8) -0.3315(6) -0.1761(5)
N1B N 0.0568(5) -0.0946(4) -0.1686(4)
N2B N 0.0217(5) 0.1382(5) -0.0285(4)
N3B N -0.1315(8) -0.1777(5) -0.3023(5)
N4B N -0.4355(7) 0.0749(6) -0.1965(7)
H1B H -0.4518 0.1261 -0.1772
H2B H -0.4826 0.0515 -0.2372
N5B N -0.1983(6) -0.0729(5) -0.1450(4)
C2B C 0.0102(8) 0.1796(6) -0.1038(6)
H3B H -0.0145 0.1531 -0.1562
C3B C 0.1982(7) -0.0026(5) -0.1291(6)
H4B H 0.2456 0.0399 -0.0991
N6B N 0.0392(6) 0.2644(5) -0.0934(4)
N7B N 0.0996(5) -0.0341(4) -0.1058(4)
N8B N -0.1650(6) -0.0059(4) -0.0875(5)
C4B C -0.2971(7) -0.0503(6) -0.1878(6)
H5B H -0.3389 -0.0839 -0.2308
N9B N -0.2289(7) -0.2798(6) -0.1703(5)
N10B N 0.0581(6) 0.2010(4) 0.0308(4)
C5B C -0.8583(9) -0.3002(5) -0.1974(5)
N11B N 0.2232(6) -0.0395(4) -0.2031(4)
N12B N -0.3323(6) 0.0296(5) -0.1615(5)
C6B C -0.2489(7) 0.0539(6) -0.0990(5)
H6B H -0.2504 0.1061 -0.0680
N13B N -0.6266(7) -0.4768(5) -0.0639(5)
C7B C 0.0697(8) 0.2751(6) -0.0093(5)
H7B H 0.0954 0.3279 0.0167
N14B N 0.0324(9) 0.3272(6) -0.1583(6)
H8B H 0.0079 0.3123 -0.2101
H9B H 0.0528 0.3809 -0.1466
N15B N 0.3225(6) -0.0280(5) -0.2506(5)
H10B H 0.3798 0.0077 -0.2327
H11B H 0.3262 -0.0567 -0.2976
C8B C 0.1332(7) -0.0965(6) -0.2260(5)
H12B H 0.1268 -0.1317 -0.2749
N16B N -0.9540(7) -0.2866(5) -0.1811(5)
C9B C -0.4672(9) -0.1308(7) -0.0158(7)
N17B N -0.4257(12) -0.1069(9) 0.0490(9)
C10B C -0.6241(8) -0.5519(6) -0.0578(5)
C11B C -0.1699(8) -0.1896(6) -0.3724(5)
Cd1_2 Cd -0.43585(6) -0.66655(4) 0.07084(4)
Cd1A Cd -0.06415(6) -0.16655(4) -0.57084(4)
Cd1B_2 Cd 0.43585(6) 0.66655(4) -0.07084(4)
Cd1C Cd 0.06415(6) 0.16655(4) 0.57084(4)
Co2_2 Co 1.09101(9) 0.18671(7) 0.16779(7)
Co2B_2 Co -1.09101(9) -0.18671(7) -0.16779(7)
S1_2 S -0.3753(2) -0.33951(15) 0.05001(15)
S1B_2 S 0.3753(2) 0.33951(15) -0.05001(15)
S5A S -0.7392(2) -0.29010(19) 0.03117(16)
S5C S 0.7392(2) 0.29010(19) -0.03117(16)
N16_2 N -0.0460(7) 0.2866(5) 0.1811(5)
N16B_2 N 0.0460(7) -0.2866(5) -0.1811(5)
O1 O 0.124(2) 0.5036(11) 0.0804(15)
Cd2? Cd 0.0000 0.0000 0.0000
Cd3? Cd 0.09101(9) 0.18671(7) 0.16779(7)
loop_
_geom_bond_atom_site_label_1
_geom_bond_atom_site_label_2
_geom_bond_site_symmetry_1
_geom_bond_site_symmetry_2
Cd1 S2 1_555 1_555
Co1 N2 1_555 1_555
Co2 N1 1_555 1_555
S1 C10 1_555 1_555
S2 C5 1_555 1_555
S3 Cd1 1_555 1_555
S4 Cd1 1_555 1_555
S5 C11 1_555 1_555
C1 S4 1_555 1_555
N1 N7 1_555 1_555
N2 C2 1_555 1_555
N3 Co2 1_555 1_555
N4 H1 1_555 1_555
H2 N4 1_555 1_555
N5 Co2 1_555 1_555
C2 H3 1_555 1_555
C3 H4 1_555 1_555
N6 C2 1_555 1_555
N7 Co1 1_555 1_555
N8 Co1 1_555 1_555
C4 N5 1_555 1_555
H5 C4 1_555 1_555
N9 Co2 1_555 1_555
N10 N2 1_555 1_555
C5 N16 1_555 1_555
N11 C3 1_555 1_555
N12 N4 1_555 1_555
C6 N8 1_555 1_555
H6 C6 1_555 1_555
N13 Cd1 1_555 1_555
C7 N6 1_555 1_555
H7 C7 1_555 1_555
N14 N6 1_555 1_555
H8 N14 1_555 1_555
H9 N14 1_555 1_555
N15 N11 1_555 1_555
H10 N15 1_555 1_555
H11 N15 1_555 1_555
C8 N1 1_555 1_555
H12 C8 1_555 1_555
N16 Co2_2 1_555 1_555
C9 S3 1_555 1_555
N17 C9 1_555 1_555
C10 N13 1_555 1_555
C11 N3 1_555 1_555
Cd1B S2B 1_555 1_555
Co2B N10 1_555 1_555
S1B C10B 1_555 1_555
S2B C5B 1_555 1_555
S3B Cd1B 1_555 1_555
S4B Cd1B 1_555 1_555
S5B C11B 1_555 1_555
C1B S4B 1_555 1_555
N1B Co2B 1_555 1_555
N2B Co1 1_555 1_555
N3B Co2B 1_555 1_555
N4B H1B 1_555 1_555
H2B N4B 1_555 1_555
N5B Co2B 1_555 1_555
C2B N2B 1_555 1_555
H3B C2B 1_555 1_555
C3B H4B 1_555 1_555
N6B C2B 1_555 1_555
N7B Co1 1_555 1_555
N8B Co1 1_555 1_555
C4B N5B 1_555 1_555
H5B C4B 1_555 1_555
N9B Co2B 1_555 1_555
N10B Co2 1_555 1_555
C5B N16B 1_555 1_555
N11B C3B 1_555 1_555
N12B N4B 1_555 1_555
C6B N8B 1_555 1_555
H6B C6B 1_555 1_555
N13B Cd1B 1_555 1_555
C7B N6B 1_555 1_555
H7B C7B 1_555 1_555
N14B N6B 1_555 1_555
H8B N14B 1_555 1_555
H9B N14B 1_555 1_555
N15B N11B 1_555 1_555
H10B N15B 1_555 1_555
H11B N15B 1_555 1_555
C8B N1B 1_555 1_555
H12B C8B 1_555 1_555
N16B Co2B_2 1_555 1_555
C9B S3B 1_555 1_555
N17B C9B 1_555 1_555
C10B N13B 1_555 1_555
C11B N3B 1_555 1_555
Cd1_2 S1B 1_555 1_555
Cd1A S5B 1_555 1_555
Cd1B_2 S1 1_555 1_555
Cd1C S5 1_555 1_555
S1_2 Cd1B 1_555 1_555
S1B_2 Cd1 1_555 1_555
S5A Cd1B 1_555 1_555
S5C Cd1 1_555 1_555
N16_2 Co2 1_555 1_555
N16B_2 Co2B 1_555 1_555
C1 N9 1_555 1_555
N5 N8 1_555 1_555
C3 N7 1_555 1_555
C4 N12 1_555 1_555
N10 C7 1_555 1_555
N11 C8 1_555 1_555
N12 C6 1_555 1_555
C1B N9B 1_555 1_555
N1B N7B 1_555 1_555
N2B N10B 1_555 1_555
N5B N8B 1_555 1_555
C3B N7B 1_555 1_555
C4B N12B 1_555 1_555
N10B C7B 1_555 1_555
N11B C8B 1_555 1_555
N12B C6B 1_555 1_555

#END
