
#######################################################################
#
#                 Cambridge Crystallographic Data Centre
#                                CCDC 
#
#######################################################################
#
# If this CIF has been generated from an entry in the Cambridge 
# Structural Database, then it will include bibliographic, chemical, 
# crystal, experimental, refinement or atomic coordinate data resulting 
# from the CCDC's data processing and validation procedures.
#
#######################################################################

data_DEZKEA
_symmetry_cell_setting           orthorhombic
_symmetry_space_group_name_H-M   'P b c n'
_symmetry_Int_Tables_number      60
_space_group_name_Hall           '-P 2n 2ab'
loop_
_symmetry_equiv_pos_site_id
_symmetry_equiv_pos_as_xyz
1 x,y,z
2 1/2-x,1/2-y,1/2+z
3 1/2+x,1/2-y,-z
4 -x,y,1/2-z
5 -x,-y,-z
6 1/2+x,1/2+y,1/2-z
7 1/2-x,1/2+y,z
8 x,-y,1/2+z
_cell_length_a                   23.746(8)
_cell_length_b                   12.946(4)
_cell_length_c                   15.957(5)
_cell_angle_alpha                90
_cell_angle_beta                 90
_cell_angle_gamma                90
_cell_volume                     4905.43
loop_
_atom_site_label
_atom_site_type_symbol
_atom_site_fract_x
_atom_site_fract_y
_atom_site_fract_z
Mn1 Mn 0.522825(18) 0.21230(4) 0.11317(3)
Mn2 Mn 0.269050(19) 0.10617(4) -0.00940(3)
C1 C 0.76167(13) 0.1313(2) 0.0059(2)
H1 H 0.7992 0.1152 -0.0046
C2 C 0.68666(12) 0.2127(2) 0.0282(2)
C3 C 0.65141(12) 0.3031(2) 0.0450(2)
C4 C 0.58995(13) 0.4113(2) 0.0785(2)
C5 C 0.53589(13) 0.4549(3) 0.1048(2)
C6 C 0.52568(16) 0.5605(3) 0.1049(3)
H2 H 0.5536 0.6067 0.0884
C7 C 0.47356(18) 0.5959(3) 0.1299(3)
H3 H 0.4656 0.6662 0.1295
C8 C 0.43349(18) 0.5260(4) 0.1553(3)
H4 H 0.3982 0.5483 0.1731
C9 C 0.44657(16) 0.4225(3) 0.1539(3)
H5 H 0.4193 0.3755 0.1711
C10 C 0.37454(16) 0.1369(4) 0.2725(2)
H6 H 0.3533 0.1234 0.3202
C11 C 0.39860(12) 0.1550(3) 0.1485(2)
C12 C 0.40149(12) 0.1626(2) 0.0575(2)
C13 C 0.38689(14) 0.1642(3) -0.0712(2)
C14 C 0.35707(16) 0.1546(3) -0.1519(2)
C15 C 0.3825(2) 0.1717(4) -0.2280(3)
H7 H 0.4204 0.1896 -0.2307
C16 C 0.3514(3) 0.1620(5) -0.2998(3)
H8 H 0.3680 0.1727 -0.3519
C17 C 0.2958(3) 0.1366(5) -0.2943(3)
H9 H 0.2739 0.1308 -0.3423
C18 C 0.2728(2) 0.1199(4) -0.2170(3)
H10 H 0.2350 0.1020 -0.2136
N1 N 0.74244(11) 0.2280(2) 0.01313(19)
N2 N 0.67210(10) 0.11453(19) 0.02929(17)
N3 N 0.72169(10) 0.06073(19) 0.01512(17)
N4 N 0.59661(10) 0.30795(18) 0.06707(17)
N5 N 0.67627(11) 0.3958(2) 0.0429(2)
N6 N 0.63600(12) 0.4668(2) 0.0652(2)
N7 N 0.49698(12) 0.3858(2) 0.1287(2)
N8 N 0.35295(12) 0.1318(3) 0.1947(2)
N9 N 0.44462(10) 0.1732(2) 0.19297(17)
N10 N 0.42852(12) 0.1626(3) 0.27590(18)
N11 N 0.35998(10) 0.1464(2) 0.00269(17)
N12 N 0.45021(11) 0.1890(2) 0.02222(17)
N13 N 0.44060(12) 0.1894(2) -0.06288(17)
N14 N 0.30244(14) 0.1279(2) -0.14563(19)
O1 O 0.55816(10) 0.0772(2) 0.04520(19)
H11 H 0.5945(8) 0.078(4) 0.045(3)
H12 H 0.5474(17) 0.076(4) -0.0052(15)
O2 O 0.25095(11) 0.1000(3) 0.12657(17)
H13 H 0.2812(11) 0.112(4) 0.152(3)
H14 H 0.2220(11) 0.101(4) 0.155(3)
Mn1C Mn 0.477175(18) 0.21230(4) 0.38683(3)
Mn2B Mn 0.769050(19) 0.39383(4) 0.00940(3)
Mn2D Mn 0.730950(19) -0.10617(4) 0.00940(3)
N1B N 0.24244(11) 0.2720(2) -0.01313(19)
N3D N 0.27831(10) -0.06073(19) -0.01512(17)
N5B N 0.17627(11) 0.1042(2) -0.0429(2)
N10C N 0.57148(12) 0.1626(3) 0.22410(18)
O3 O 0.5285(2) 0.0776(6) -0.1336(4)
H15 H 0.515(4) 0.065(8) -0.186(3)
H16 H 0.501(3) 0.119(7) -0.115(5)
O4 O 0.1839(3) 0.0946(5) 0.2882(4)
loop_
_geom_bond_atom_site_label_1
_geom_bond_atom_site_label_2
_geom_bond_site_symmetry_1
_geom_bond_site_symmetry_2
Mn1 N4 1_555 1_555
Mn2 N11 1_555 1_555
C1 H1 1_555 1_555
C2 C3 1_555 1_555
C3 N4 1_555 1_555
C4 C5 1_555 1_555
C5 C6 1_555 1_555
C6 H2 1_555 1_555
C7 C6 1_555 1_555
H3 C7 1_555 1_555
C8 C7 1_555 1_555
H4 C8 1_555 1_555
C9 C8 1_555 1_555
H5 C9 1_555 1_555
C10 H6 1_555 1_555
C11 C12 1_555 1_555
C12 N11 1_555 1_555
C13 C14 1_555 1_555
C14 C15 1_555 1_555
C15 H7 1_555 1_555
C16 C15 1_555 1_555
H8 C16 1_555 1_555
C17 C16 1_555 1_555
H9 C17 1_555 1_555
C18 C17 1_555 1_555
H10 C18 1_555 1_555
N1 C1 1_555 1_555
N2 C2 1_555 1_555
N3 C1 1_555 1_555
N4 C4 1_555 1_555
N5 C3 1_555 1_555
N6 C4 1_555 1_555
N7 Mn1 1_555 1_555
N8 C10 1_555 1_555
N9 Mn1 1_555 1_555
N10 C10 1_555 1_555
N11 C13 1_555 1_555
N12 Mn1 1_555 1_555
N13 C13 1_555 1_555
N14 Mn2 1_555 1_555
O1 Mn1 1_555 1_555
H11 O1 1_555 1_555
H12 O1 1_555 1_555
O2 Mn2 1_555 1_555
H13 O2 1_555 1_555
H14 O2 1_555 1_555
O3 H15 1_555 1_555
H16 O3 1_555 1_555
Mn1C N10 1_555 1_555
Mn2B N1 1_555 1_555
Mn2D N3 1_555 1_555
N1B Mn2 1_555 1_555
N3D Mn2 1_555 1_555
N5B Mn2 1_555 1_555
N10C Mn1 1_555 1_555
C2 N1 1_555 1_555
C5 N7 1_555 1_555
C9 N7 1_555 1_555
C11 N8 1_555 1_555
C11 N9 1_555 1_555
C12 N12 1_555 1_555
C14 N14 1_555 1_555
C18 N14 1_555 1_555
N2 N3 1_555 1_555
N5 N6 1_555 1_555
N5 Mn2B 1_555 1_555
N9 N10 1_555 1_555
N12 N13 1_555 1_555

#END
