
#######################################################################
#
#                 Cambridge Crystallographic Data Centre
#                                CCDC 
#
#######################################################################
#
# If this CIF has been generated from an entry in the Cambridge 
# Structural Database, then it will include bibliographic, chemical, 
# crystal, experimental, refinement or atomic coordinate data resulting 
# from the CCDC's data processing and validation procedures.
#
#######################################################################

data_DEZLOK
_symmetry_cell_setting           orthorhombic
_symmetry_space_group_name_H-M   'P b c m'
_symmetry_Int_Tables_number      57
_space_group_name_Hall           '-P 2c 2b'
loop_
_symmetry_equiv_pos_site_id
_symmetry_equiv_pos_as_xyz
1 x,y,z
2 -x,-y,1/2+z
3 -x,1/2+y,1/2-z
4 x,1/2-y,-z
5 -x,-y,-z
6 x,y,1/2-z
7 x,1/2-y,1/2+z
8 -x,1/2+y,z
_cell_length_a                   11.638(2)
_cell_length_b                   11.161(3)
_cell_length_c                   14.051(6)
_cell_angle_alpha                90
_cell_angle_beta                 90
_cell_angle_gamma                90
_cell_volume                     1825.11
loop_
_atom_site_label
_atom_site_type_symbol
_atom_site_fract_x
_atom_site_fract_y
_atom_site_fract_z
Ni1 Ni 0.52324(3) 0.61346(3) 0.2500
O1 O 0.64210(12) 0.63534(13) 0.34426(11)
O2 O 0.58247(13) 0.81329(13) 0.39832(11)
O3 O 0.5517(2) 0.3998(2) 0.2500
N1 N 0.39399(15) 0.59646(15) 0.34373(12)
C1 C 0.65197(17) 0.72998(19) 0.39470(14)
C2 C 0.76145(16) 0.73791(18) 0.45130(14)
C3 C 0.86558(18) 0.7266(2) 0.40415(16)
H1 H 0.8659 0.7102 0.3392
C4 C 0.96854(17) 0.7391(2) 0.45147(17)
H2 H 1.0376 0.7331 0.4185
C5 C 0.3973(2) 0.59886(19) 0.43866(16)
H3 H 0.4660 0.6185 0.4687
C6 C 0.3015(2) 0.5730(2) 0.49428(18)
H4 H 0.3062 0.5766 0.5603
C7 C 0.2002(2) 0.5423(2) 0.45107(19)
H5 H 0.1360 0.5236 0.4876
C8 C 0.19382(19) 0.53936(19) 0.35109(18)
C9 C 0.29319(17) 0.56805(18) 0.30111(15)
C10 C 0.09219(19) 0.5098(2) 0.29772(19)
H6 H 0.0251 0.4903 0.3301
H7 H 0.5175(16) 0.3732(19) 0.2027(4)
Ni1F Ni 0.52324(3) 0.88654(3) 0.7500
O1C O 0.64210(12) 0.86466(13) 0.65574(11)
O1E O 0.64210(12) 0.63534(13) 0.15574(11)
O2C O 0.58247(13) 0.68671(13) 0.60168(11)
N1E N 0.39399(15) 0.59646(15) 0.15627(12)
C1C C 0.65197(17) 0.77002(19) 0.60530(14)
C2C C 0.76145(16) 0.76209(18) 0.54870(14)
C3C C 0.86558(18) 0.7734(2) 0.59585(16)
H1C H 0.8659 0.7898 0.6608
C4C C 0.96854(17) 0.7609(2) 0.54853(17)
H2C H 1.0376 0.7669 0.5815
C5E C 0.3973(2) 0.59886(19) 0.06134(16)
H3E H 0.4660 0.6185 0.0313
C6E C 0.3015(2) 0.5730(2) 0.00572(18)
H4E H 0.3062 0.5766 -0.0603
C7E C 0.2002(2) 0.5423(2) 0.04893(19)
H5E H 0.1360 0.5236 0.0124
C8E C 0.19382(19) 0.53936(19) 0.14891(18)
C9E C 0.29319(17) 0.56805(18) 0.19889(15)
C10E C 0.09219(19) 0.5098(2) 0.20228(19)
H6E H 0.0251 0.4903 0.1699
H7E H 0.5175(16) 0.3732(19) 0.2973(4)
O4 O 0.8044(4) 0.4348(6) 0.2500
H9 H 0.790(7) 0.476(3) 0.2028(4)
H9E H 0.790(7) 0.476(3) 0.2972(4)
H8? H 0.800(7) 0.3612(12) 0.2500
loop_
_geom_bond_atom_site_label_1
_geom_bond_atom_site_label_2
_geom_bond_site_symmetry_1
_geom_bond_site_symmetry_2
Ni1 O1 1_555 1_555
O1 C1 1_555 1_555
O2 C1 1_555 1_555
O3 Ni1 1_555 1_555
O4 H9 1_555 1_555
N1 Ni1 1_555 1_555
C1 C2 1_555 1_555
C2 C3 1_555 1_555
C3 H1 1_555 1_555
C4 C3 1_555 1_555
H2 C4 1_555 1_555
C5 N1 1_555 1_555
H3 C5 1_555 1_555
C6 C5 1_555 1_555
H4 C6 1_555 1_555
C7 C6 1_555 1_555
H5 C7 1_555 1_555
C8 C7 1_555 1_555
C9 N1 1_555 1_555
C10 C8 1_555 1_555
H6 C10 1_555 1_555
H7 O3 1_555 1_555
Ni1F O1C 1_555 1_555
O1C C1C 1_555 1_555
O1E Ni1 1_555 1_555
O2C C1C 1_555 1_555
N1E Ni1 1_555 1_555
C1C C2C 1_555 1_555
C2C C2 1_555 1_555
C3C C2C 1_555 1_555
H1C C3C 1_555 1_555
C4C C4 1_555 1_555
H2C C4C 1_555 1_555
C5E N1E 1_555 1_555
H3E C5E 1_555 1_555
C6E C5E 1_555 1_555
H4E C6E 1_555 1_555
C7E C6E 1_555 1_555
H5E C7E 1_555 1_555
C8E C7E 1_555 1_555
C9E C9 1_555 1_555
C10E C10 1_555 1_555
H6E C10E 1_555 1_555
H7E O3 1_555 1_555
H9E O4 1_555 1_555
C8 C9 1_555 1_555
N1E C9E 1_555 1_555
C3C C4C 1_555 1_555
C8E C9E 1_555 1_555
C8E C10E 1_555 1_555

#END
