
#######################################################################
#
#                 Cambridge Crystallographic Data Centre
#                                CCDC 
#
#######################################################################
#
# If this CIF has been generated from an entry in the Cambridge 
# Structural Database, then it will include bibliographic, chemical, 
# crystal, experimental, refinement or atomic coordinate data resulting 
# from the CCDC's data processing and validation procedures.
#
#######################################################################

data_DEZYAK
_symmetry_cell_setting           triclinic
_symmetry_space_group_name_H-M   'P -1'
_symmetry_Int_Tables_number      2
_space_group_name_Hall           '-P 1'
loop_
_symmetry_equiv_pos_site_id
_symmetry_equiv_pos_as_xyz
1 x,y,z
2 -x,-y,-z
_cell_length_a                   9.916(2)
_cell_length_b                   11.906(3)
_cell_length_c                   13.431(3)
_cell_angle_alpha                67.168(4)
_cell_angle_beta                 71.504(4)
_cell_angle_gamma                81.029(5)
_cell_volume                     1384.95
loop_
_atom_site_label
_atom_site_type_symbol
_atom_site_fract_x
_atom_site_fract_y
_atom_site_fract_z
Mn1 Mn 0.08050(9) 1.12068(7) 0.13254(7)
S1 S 0.53187(17) 0.49024(15) 0.32890(14)
S2 S 0.36278(17) 0.43674(14) 0.46479(13)
O1 O 0.4039(6) 0.3162(5) -0.0444(4)
O2 O 0.6257(7) 0.2758(5) -0.0753(4)
O3 O 0.1217(4) 0.9349(3) 0.2303(3)
O4 O 0.0760(4) 0.8054(3) 0.1599(3)
O5 O -0.1661(4) 0.8396(4) 0.3640(4)
O6 O -0.1890(5) 0.8158(4) 0.5384(4)
O7 O 0.2394(4) 0.1877(3) 0.1757(3)
O8 O 0.1461(5) 0.3718(4) 0.1665(4)
O9 O 0.0105(4) 1.3102(3) 0.0517(3)
H1 H 0.0305 1.3537 0.0793
H2 H -0.0256 1.3545 0.0005
O10 O -0.0817(4) 1.0768(4) 0.0687(3)
H3 H -0.1544 1.1236 0.0794
H4 H -0.0527 1.0850 -0.0160
N1 N -0.1013(5) 1.1219(4) 0.2857(4)
N2 N -0.7574(5) 1.1081(4) 0.9716(3)
C1 C 0.3916(6) 0.3846(5) 0.2386(5)
H5 H 0.3090 0.3888 0.2946
N3 N -0.1281(6) 0.7979(5) 0.4503(5)
C2 C 0.2456(6) 0.2956(6) 0.1660(4)
C3 C 0.2175(6) 0.6455(5) 0.3475(5)
H6 H 0.2860 0.6484 0.2806
C4 C 0.5176(6) 0.4237(5) 0.2362(5)
C5 C 0.2279(6) 0.5565(5) 0.4508(5)
C6 C -0.6629(6) 1.0152(5) 0.9760(5)
H7 H -0.6683 0.9532 1.0455
C7 C 0.0977(6) 0.8328(5) 0.2349(5)
C8 C 0.1015(6) 0.7298(5) 0.3472(4)
C9 C -0.7490(6) 1.1936(5) 0.8704(4)
H8 H -0.8134 1.2599 0.8648
C10 C 0.3864(6) 0.3387(5) 0.1581(5)
C11 C -0.5482(6) 1.0942(5) 0.7781(5)
N4 N 0.5134(7) 0.3068(5) -0.0202(4)
C12 C -0.0780(7) 1.1141(6) 0.3820(5)
H9 H 0.0157 1.1086 0.3840
C13 C 0.0142(6) 0.6332(5) 0.5501(5)
H10 H -0.0523 0.6324 0.6171
C14 C 0.0035(6) 0.7167(5) 0.4455(4)
C15 C -0.6483(6) 1.1886(5) 0.7722(4)
H11 H -0.6490 1.2490 0.7029
C16 C 0.5120(7) 0.3382(5) 0.0765(5)
C17 C -0.5557(6) 1.0051(5) 0.8823(5)
H12 H -0.4905 0.9393 0.8902
C18 C 0.1311(7) 0.5508(5) 0.5476(5)
H13 H 0.1416 0.4911 0.6146
C19 C -0.3229(6) 1.1246(5) 0.4763(5)
C20 C -0.4403(6) 1.1294(5) 0.5768(5)
H14 H -0.5260 1.1678 0.5649
C21 C 0.6391(6) 0.4162(6) 0.1549(6)
H15 H 0.7239 0.4401 0.1551
C22 C -0.2405(7) 1.1313(5) 0.2894(5)
H16 H -0.2627 1.1365 0.2254
C23 C -0.1822(7) 1.1137(6) 0.4750(5)
H17 H -0.1589 1.1060 0.5392
C24 C 0.6400(7) 0.3746(6) 0.0728(6)
H18 H 0.7231 0.3709 0.0171
C25 C -0.4323(7) 1.0847(6) 0.6792(5)
H19 H -0.3480 1.0435 0.6919
C26 C -0.3499(6) 1.1338(5) 0.3802(5)
H20 H -0.4432 1.1418 0.3767
Mn1_2 Mn -0.91950(9) 1.12068(7) 1.13254(7)
Mn1_3 Mn 0.08050(9) 0.12068(7) 0.13254(7)
O7_2 O 0.2394(4) 1.1877(3) 0.1757(3)
N2_2 N 0.2426(5) 1.1081(4) -0.0284(3)
O11 O 0.0087(5) 0.5882(4) 0.1641(3)
H21 H 0.0345 0.5269 0.2118
H22 H 0.0430 0.6491 0.1622
loop_
_geom_bond_atom_site_label_1
_geom_bond_atom_site_label_2
_geom_bond_site_symmetry_1
_geom_bond_site_symmetry_2
Mn1 O3 1_555 1_555
S1 S2 1_555 1_555
S2 C5 1_555 1_555
O1 N4 1_555 1_555
O2 N4 1_555 1_555
O3 C7 1_555 1_555
O4 C7 1_555 1_555
O5 N3 1_555 1_555
O6 N3 1_555 1_555
O7 C2 1_555 1_555
O8 C2 1_555 1_555
O9 Mn1 1_555 1_555
H1 O9 1_555 1_555
H2 O9 1_555 1_555
O10 Mn1 1_555 1_555
H3 O10 1_555 1_555
H4 O10 1_555 1_555
N1 Mn1 1_555 1_555
N2 C6 1_555 1_555
C1 H5 1_555 1_555
N3 C14 1_555 1_555
C2 C10 1_555 1_555
C3 H6 1_555 1_555
C4 S1 1_555 1_555
C5 C3 1_555 1_555
C6 H7 1_555 1_555
C7 C8 1_555 1_555
C8 C3 1_555 1_555
C9 N2 1_555 1_555
H8 C9 1_555 1_555
C10 C1 1_555 1_555
C11 C15 1_555 1_555
N4 C16 1_555 1_555
C12 N1 1_555 1_555
H9 C12 1_555 1_555
C13 H10 1_555 1_555
C14 C8 1_555 1_555
C15 C9 1_555 1_555
H11 C15 1_555 1_555
C16 C10 1_555 1_555
C17 C6 1_555 1_555
H12 C17 1_555 1_555
C18 C5 1_555 1_555
H13 C18 1_555 1_555
C19 C20 1_555 1_555
C20 H14 1_555 1_555
C21 C4 1_555 1_555
H15 C21 1_555 1_555
C22 N1 1_555 1_555
H16 C22 1_555 1_555
C23 C12 1_555 1_555
H17 C23 1_555 1_555
C24 C16 1_555 1_555
H18 C24 1_555 1_555
C25 C11 1_555 1_555
H19 C25 1_555 1_555
C26 C19 1_555 1_555
H20 C26 1_555 1_555
O11 H21 1_555 1_555
H22 O11 1_555 1_555
Mn1_2 N2 1_555 1_555
Mn1_3 O7 1_555 1_555
O7_2 Mn1 1_555 1_555
N2_2 Mn1 1_555 1_555
C1 C4 1_555 1_555
C11 C17 1_555 1_555
C13 C14 1_555 1_555
C13 C18 1_555 1_555
C19 C23 1_555 1_555
C20 C25 1_555 1_555
C21 C24 1_555 1_555
C22 C26 1_555 1_555

#END
