
#######################################################################
#
#                 Cambridge Crystallographic Data Centre
#                                CCDC 
#
#######################################################################
#
# If this CIF has been generated from an entry in the Cambridge 
# Structural Database, then it will include bibliographic, chemical, 
# crystal, experimental, refinement or atomic coordinate data resulting 
# from the CCDC's data processing and validation procedures.
#
#######################################################################

data_DIBDID
_symmetry_cell_setting           triclinic
_symmetry_space_group_name_H-M   'P -1'
_symmetry_Int_Tables_number      2
_space_group_name_Hall           '-P 1'
loop_
_symmetry_equiv_pos_site_id
_symmetry_equiv_pos_as_xyz
1 x,y,z
2 -x,-y,-z
_cell_length_a                   9.422(2)
_cell_length_b                   12.234(3)
_cell_length_c                   18.735(4)
_cell_angle_alpha                108.845(3)
_cell_angle_beta                 91.083(3)
_cell_angle_gamma                110.110(3)
_cell_volume                     1898.57
loop_
_atom_site_label
_atom_site_type_symbol
_atom_site_fract_x
_atom_site_fract_y
_atom_site_fract_z
C1 C 0.9569(7) 0.1452(5) 0.0040(4)
H1 H 0.8526 0.1276 -0.0047
C2 C 1.1913(7) 0.1886(6) -0.0107(4)
H2 H 1.2813 0.2069 -0.0318
C3 C 1.1790(7) 0.1776(6) 0.0588(4)
H3 H 1.2576 0.1874 0.0939
C4 C 0.9580(7) 0.1308(6) 0.1334(3)
H4 H 0.9858 0.0694 0.1463
H5 H 0.8478 0.0983 0.1202
C5 C 1.0056(8) 0.2475(6) 0.2012(3)
H6 H 0.9715 0.3071 0.1897
H7 H 1.1163 0.2832 0.2126
C6 C 0.9384(8) 0.2234(6) 0.2718(3)
H8 H 0.8277 0.1892 0.2612
H9 H 0.9720 0.1639 0.2837
C7 C 0.9910(8) 0.3432(6) 0.3379(3)
H10 H 1.1016 0.3803 0.3444
H11 H 0.9509 0.3997 0.3264
C8 C 1.0412(8) 0.3533(6) 0.4715(4)
H12 H 1.1464 0.3763 0.4730
C9 C 0.8177(8) 0.3071(6) 0.5030(4)
H13 H 0.7380 0.2923 0.5315
C10 C 0.8013(8) 0.2994(6) 0.4286(4)
H14 H 0.7107 0.2778 0.3975
C11 C 0.8019(7) 0.3222(6) -0.0668(3)
H15 H 0.7478 0.2570 -0.0509
C12 C 0.9544(7) 0.4299(6) -0.1218(4)
H16 H 1.0285 0.4551 -0.1514
C13 C 0.8803(7) 0.5001(6) -0.0813(4)
H17 H 0.8924 0.5802 -0.0784
C14 C 0.6857(7) 0.4689(6) 0.0082(3)
H18 H 0.7449 0.5495 0.0461
H19 H 0.6511 0.4100 0.0344
C15 C 0.5482(6) 0.4771(6) -0.0292(3)
H20 H 0.4860 0.3958 -0.0653
H21 H 0.5821 0.5335 -0.0572
C16 C 1.4512(7) 0.0245(7) 0.5291(4)
H22 H 1.4317 -0.0212 0.5639
H23 H 1.5081 0.1114 0.5588
C17 C 1.3041(8) 0.0121(6) 0.4921(4)
H24 H 1.3234 0.0535 0.4550
H25 H 1.2446 -0.0752 0.4650
C18 C 1.2061(7) 0.1750(6) 0.5587(4)
H26 H 1.2584 0.2299 0.5350
C19 C 1.0616(7) 0.0935(6) 0.6281(3)
H27 H 0.9936 0.0813 0.6627
C20 C 1.1234(7) 0.0123(6) 0.5902(4)
H28 H 1.1060 -0.0655 0.5933
C21 C 0.7517(7) -0.0312(6) -0.2097(4)
C22 C 0.6641(6) -0.1540(6) -0.2693(3)
C23 C 0.6952(7) -0.2021(6) -0.3406(4)
H29 H 0.7772 -0.1595 -0.3604
C24 C 0.5910(7) -0.3226(6) -0.3814(4)
H30 H 0.5972 -0.3689 -0.4308
C25 C 0.4795(7) -0.3642(5) -0.3405(3)
C26 C 0.3448(7) -0.4862(6) -0.3686(4)
C27 C 1.2703(7) 0.2099(7) -0.1968(3)
C28 C 1.4108(6) 0.2661(6) -0.2292(3)
C29 C 1.4591(7) 0.3739(6) -0.2436(3)
H31 H 1.4035 0.4253 -0.2373
C30 C 1.6032(7) 0.3994(7) -0.2692(4)
H32 H 1.6544 0.4710 -0.2799
C31 C 1.6589(6) 0.3083(6) -0.2764(3)
C32 C 1.8016(8) 0.2959(8) -0.3036(4)
N1 N 1.0511(5) 0.1688(4) -0.0450(3)
N2 N 1.0286(6) 0.1494(4) 0.0670(3)
N3 N 0.9445(7) 0.3299(5) 0.4096(3)
N4 N 0.9690(6) 0.3398(5) 0.5297(3)
N5 N 0.9059(5) 0.3171(5) -0.1135(3)
N6 N 0.7839(5) 0.4307(5) -0.0454(3)
N7 N 1.2161(5) 0.0649(5) 0.5464(3)
N8 N 1.1136(5) 0.1973(5) 0.6084(3)
O1 O 0.8807(4) 0.0268(4) -0.2253(2)
O2 O 0.7024(4) 0.0044(4) -0.1494(2)
O3 O 0.2438(4) -0.4991(4) -0.3246(2)
O4 O 0.3422(5) -0.5609(4) -0.4318(2)
O5 O 1.2519(5) 0.1137(4) -0.1839(2)
O6 O 1.1812(4) 0.2694(4) -0.1833(2)
O7 O 1.9010(5) 0.3903(4) -0.3112(2)
O8 O 1.8156(6) 0.1948(5) -0.3195(3)
S1 S 0.50277(17) -0.25577(15) -0.25189(9)
S2 S 1.53792(18) 0.19181(16) -0.24959(10)
Zn1 Zn 1.05837(8) 0.34698(6) 0.63225(4)
Zn2 Zn 0.99802(7) 0.18629(6) -0.14563(4)
C11A C 0.1981(7) 0.6778(6) 0.0668(3)
H15A H 0.2522 0.7430 0.0509
C12A C 0.0456(7) 0.5701(6) 0.1218(4)
H16A H -0.0285 0.5449 0.1514
C13A C 0.1197(7) 0.4999(6) 0.0813(4)
H17A H 0.1076 0.4198 0.0784
C14A C 0.3143(7) 0.5311(6) -0.0082(3)
H18A H 0.2551 0.4505 -0.0461
H19A H 0.3489 0.5900 -0.0344
C15A C 0.4518(6) 0.5229(6) 0.0292(3)
H20A H 0.5140 0.6042 0.0653
H21A H 0.4179 0.4665 0.0572
N5A N 0.0941(5) 0.6829(5) 0.1135(3)
N6A N 0.2161(5) 0.5693(5) 0.0454(3)
C16A C 1.5488(7) -0.0245(7) 0.4709(4)
H22A H 1.5683 0.0212 0.4361
H23A H 1.4919 -0.1114 0.4412
C17A C 1.6959(8) -0.0121(6) 0.5079(4)
H24A H 1.6766 -0.0535 0.5450
H25A H 1.7554 0.0752 0.5350
C18A C 1.7939(7) -0.1750(6) 0.4413(4)
H26A H 1.7416 -0.2299 0.4650
C19A C 1.9384(7) -0.0935(6) 0.3719(3)
H27A H 2.0064 -0.0813 0.3373
C20A C 1.8766(7) -0.0123(6) 0.4098(4)
H28A H 1.8940 0.0655 0.4067
N7A N 1.7839(5) -0.0649(5) 0.4536(3)
N8A N 1.8864(5) -0.1973(5) 0.3916(3)
C1A C 0.0431(7) 0.8548(5) -0.0040(4)
H1A H 0.1474 0.8724 0.0047
C2A C -0.1913(7) 0.8114(6) 0.0107(4)
H2A H -0.2813 0.7931 0.0318
C3A C -0.1790(7) 0.8224(6) -0.0588(4)
H3A H -0.2576 0.8126 -0.0939
C4A C 0.0420(7) 0.8692(6) -0.1334(3)
H4A H 0.0142 0.9306 -0.1463
H5A H 0.1522 0.9017 -0.1202
C5A C -0.0056(8) 0.7525(6) -0.2012(3)
H6A H 0.0285 0.6929 -0.1897
H7A H -0.1163 0.7168 -0.2126
C6A C 0.0616(8) 0.7766(6) -0.2718(3)
H8A H 0.1723 0.8108 -0.2612
H9A H 0.0280 0.8361 -0.2837
C7A C 0.0090(8) 0.6568(6) -0.3379(3)
H10A H -0.1016 0.6197 -0.3444
H11A H 0.0491 0.6003 -0.3264
C8A C -0.0412(8) 0.6467(6) -0.4715(4)
H12A H -0.1464 0.6237 -0.4730
C9A C 0.1823(8) 0.6929(6) -0.5030(4)
H13A H 0.2620 0.7077 -0.5315
C10A C 0.1987(8) 0.7006(6) -0.4286(4)
H14A H 0.2893 0.7222 -0.3975
C21A C 0.2483(7) 1.0312(6) 0.2097(4)
C22A C 0.3359(6) 1.1540(6) 0.2693(3)
C23A C 0.3048(7) 1.2021(6) 0.3406(4)
H29A H 0.2228 1.1595 0.3604
C24A C 0.4090(7) 1.3226(6) 0.3814(4)
H30A H 0.4028 1.3689 0.4308
C25A C 0.5205(7) 1.3642(5) 0.3405(3)
C26A C 0.6552(7) 1.4862(6) 0.3686(4)
C27A C -0.2703(7) 0.7901(7) 0.1968(3)
C28A C -0.4108(6) 0.7339(6) 0.2292(3)
C29A C -0.4591(7) 0.6261(6) 0.2436(3)
H31A H -0.4035 0.5747 0.2373
C30A C -0.6032(7) 0.6006(7) 0.2692(4)
H32A H -0.6544 0.5290 0.2799
C31A C -0.6589(6) 0.6917(6) 0.2764(3)
C32A C -0.8016(8) 0.7041(8) 0.3036(4)
N1A N -0.0511(5) 0.8312(4) 0.0450(3)
N2A N -0.0286(6) 0.8506(4) -0.0670(3)
N3A N 0.0555(7) 0.6701(5) -0.4096(3)
N4A N 0.0310(6) 0.6602(5) -0.5297(3)
O1A O 0.1193(4) 0.9732(4) 0.2253(2)
O2A O 0.2976(4) 0.9956(4) 0.1494(2)
O3A O 0.7562(4) 1.4991(4) 0.3246(2)
O4A O 0.6578(5) 1.5609(4) 0.4318(2)
O5A O -0.2519(5) 0.8863(4) 0.1839(2)
O6A O -0.1812(4) 0.7306(4) 0.1833(2)
O7A O -0.9010(5) 0.6097(4) 0.3112(2)
O8A O -0.8156(6) 0.8052(5) 0.3195(3)
S1A S 0.49723(17) 1.25577(15) 0.25189(9)
S2A S -0.53792(18) 0.80819(16) 0.24959(10)
Zn1A Zn -0.05837(8) 0.65302(6) -0.63225(4)
Zn2A Zn 0.00198(7) 0.81371(6) 0.14563(4)
N8A_2 N -0.1136(5) 0.8027(5) -0.6084(3)
O3_2 O 1.2438(4) 0.5009(4) 0.6754(2)
O3A_2 O -0.2438(4) 0.4991(4) -0.6754(2)
O7_2 O 0.9010(5) 0.3903(4) 0.6888(2)
O7A_2 O 0.0990(5) 0.6097(4) -0.6888(2)
Zn1_2 Zn 0.05837(8) -0.65302(6) -0.36775(4)
Zn1_3 Zn 2.05837(8) 0.34698(6) -0.36775(4)
Zn1A_2 Zn -1.05837(8) 0.65302(6) 0.36775(4)
Zn1A_3 Zn 0.94163(8) 1.65302(6) 0.36775(4)
Zn1A_4 Zn 1.94163(8) -0.34698(6) 0.36775(4)
O9 O 1.4347(5) 0.0315(5) -0.1095(3)
H33 H 1.3939 0.0597 -0.1367
H34 H 1.5158 0.0262 -0.1268
O10 O 1.5875(7) 0.1681(6) 0.0413(3)
H35 H 1.5199 0.1425 0.0028
H36 H 1.5501 0.1240 0.0682
O11 O 1.767(3) 0.374(3) 0.1536(14)
H37 H 1.7944 0.4354 0.1952
H38 H 1.6933 0.3155 0.1599
loop_
_geom_bond_atom_site_label_1
_geom_bond_atom_site_label_2
_geom_bond_site_symmetry_1
_geom_bond_site_symmetry_2
C1 H1 1_555 1_555
C2 H2 1_555 1_555
C3 C2 1_555 1_555
H3 C3 1_555 1_555
C4 H4 1_555 1_555
H5 C4 1_555 1_555
C5 C4 1_555 1_555
H6 C5 1_555 1_555
H7 C5 1_555 1_555
C6 C5 1_555 1_555
H8 C6 1_555 1_555
H9 C6 1_555 1_555
C7 C6 1_555 1_555
H10 C7 1_555 1_555
H11 C7 1_555 1_555
C8 H12 1_555 1_555
C9 H13 1_555 1_555
C10 C9 1_555 1_555
H14 C10 1_555 1_555
C11 H15 1_555 1_555
C12 H16 1_555 1_555
C13 C12 1_555 1_555
H17 C13 1_555 1_555
C14 H18 1_555 1_555
H19 C14 1_555 1_555
C15 C14 1_555 1_555
H20 C15 1_555 1_555
H21 C15 1_555 1_555
C16 H22 1_555 1_555
H23 C16 1_555 1_555
C17 C16 1_555 1_555
H24 C17 1_555 1_555
H25 C17 1_555 1_555
C18 H26 1_555 1_555
C19 H27 1_555 1_555
C20 C19 1_555 1_555
H28 C20 1_555 1_555
C21 C22 1_555 1_555
C22 C23 1_555 1_555
C23 H29 1_555 1_555
C24 C23 1_555 1_555
H30 C24 1_555 1_555
C25 C24 1_555 1_555
C26 C25 1_555 1_555
C27 C28 1_555 1_555
C28 C29 1_555 1_555
C29 H31 1_555 1_555
C30 C29 1_555 1_555
H32 C30 1_555 1_555
C31 C30 1_555 1_555
C32 C31 1_555 1_555
N1 C1 1_555 1_555
N2 C1 1_555 1_555
N3 C7 1_555 1_555
N4 C8 1_555 1_555
N5 C11 1_555 1_555
N6 C11 1_555 1_555
N7 C17 1_555 1_555
N8 C18 1_555 1_555
O1 C21 1_555 1_555
O2 C21 1_555 1_555
O3 C26 1_555 1_555
O4 C26 1_555 1_555
O5 C27 1_555 1_555
O6 C27 1_555 1_555
O7 C32 1_555 1_555
O8 C32 1_555 1_555
S1 C22 1_555 1_555
S2 C28 1_555 1_555
Zn1 N4 1_555 1_555
Zn2 N1 1_555 1_555
O9 H33 1_555 1_555
H34 O9 1_555 1_555
O10 H35 1_555 1_555
H36 O10 1_555 1_555
O11 H37 1_555 1_555
H38 O11 1_555 1_555
C11A H15A 1_555 1_555
C12A H16A 1_555 1_555
C13A C12A 1_555 1_555
H17A C13A 1_555 1_555
C14A H18A 1_555 1_555
H19A C14A 1_555 1_555
C15A C15 1_555 1_555
H20A C15A 1_555 1_555
H21A C15A 1_555 1_555
N5A C11A 1_555 1_555
N6A C11A 1_555 1_555
C16A C16 1_555 1_555
H22A C16A 1_555 1_555
H23A C16A 1_555 1_555
C17A C16A 1_555 1_555
H24A C17A 1_555 1_555
H25A C17A 1_555 1_555
C18A H26A 1_555 1_555
C19A H27A 1_555 1_555
C20A C19A 1_555 1_555
H28A C20A 1_555 1_555
N7A C17A 1_555 1_555
N8A C18A 1_555 1_555
C1A H1A 1_555 1_555
C2A H2A 1_555 1_555
C3A C2A 1_555 1_555
H3A C3A 1_555 1_555
C4A H4A 1_555 1_555
H5A C4A 1_555 1_555
C5A C4A 1_555 1_555
H6A C5A 1_555 1_555
H7A C5A 1_555 1_555
C6A C5A 1_555 1_555
H8A C6A 1_555 1_555
H9A C6A 1_555 1_555
C7A C6A 1_555 1_555
H10A C7A 1_555 1_555
H11A C7A 1_555 1_555
C8A H12A 1_555 1_555
C9A H13A 1_555 1_555
C10A C9A 1_555 1_555
H14A C10A 1_555 1_555
C21A C22A 1_555 1_555
C22A C23A 1_555 1_555
C23A H29A 1_555 1_555
C24A C23A 1_555 1_555
H30A C24A 1_555 1_555
C25A C24A 1_555 1_555
C26A C25A 1_555 1_555
C27A C28A 1_555 1_555
C28A C29A 1_555 1_555
C29A H31A 1_555 1_555
C30A C29A 1_555 1_555
H32A C30A 1_555 1_555
C31A C30A 1_555 1_555
C32A C31A 1_555 1_555
N1A C1A 1_555 1_555
N2A C1A 1_555 1_555
N3A C7A 1_555 1_555
N4A C8A 1_555 1_555
O1A C21A 1_555 1_555
O2A C21A 1_555 1_555
O3A C26A 1_555 1_555
O4A C26A 1_555 1_555
O5A C27A 1_555 1_555
O6A C27A 1_555 1_555
O7A C32A 1_555 1_555
O8A C32A 1_555 1_555
S1A C22A 1_555 1_555
S2A C28A 1_555 1_555
Zn1A N4A 1_555 1_555
Zn2A N5A 1_555 1_555
N8A_2 Zn1A 1_555 1_555
O3_2 Zn1 1_555 1_555
O3A_2 Zn1A 1_555 1_555
O7_2 Zn1 1_555 1_555
O7A_2 Zn1A 1_555 1_555
Zn1_2 O3 1_555 1_555
Zn1_3 O7 1_555 1_555
Zn1A_2 O7A 1_555 1_555
Zn1A_3 O3A 1_555 1_555
Zn1A_4 N8A 1_555 1_555
C2 N1 1_555 1_555
C3 N2 1_555 1_555
C4 N2 1_555 1_555
C8 N3 1_555 1_555
C9 N4 1_555 1_555
C10 N3 1_555 1_555
C12 N5 1_555 1_555
C13 N6 1_555 1_555
C14 N6 1_555 1_555
C18 N7 1_555 1_555
C19 N8 1_555 1_555
C20 N7 1_555 1_555
C25 S1 1_555 1_555
C31 S2 1_555 1_555
N5 Zn2 1_555 1_555
N8 Zn1 1_555 1_555
O1 Zn2 1_555 1_555
O6 Zn2 1_555 1_555
C12A N5A 1_555 1_555
C13A N6A 1_555 1_555
C14A C15A 1_555 1_555
C14A N6A 1_555 1_555
C18A N7A 1_555 1_555
C19A N8A 1_555 1_555
C20A N7A 1_555 1_555
C2A N1A 1_555 1_555
C3A N2A 1_555 1_555
C4A N2A 1_555 1_555
C8A N3A 1_555 1_555
C9A N4A 1_555 1_555
C10A N3A 1_555 1_555
C25A S1A 1_555 1_555
C31A S2A 1_555 1_555
N1A Zn2A 1_555 1_555
O1A Zn2A 1_555 1_555
O6A Zn2A 1_555 1_555

#END
