
#######################################################################
#
#                 Cambridge Crystallographic Data Centre
#                                CCDC 
#
#######################################################################
#
# If this CIF has been generated from an entry in the Cambridge 
# Structural Database, then it will include bibliographic, chemical, 
# crystal, experimental, refinement or atomic coordinate data resulting 
# from the CCDC's data processing and validation procedures.
#
#######################################################################

data_DIBGOM
_symmetry_cell_setting           triclinic
_symmetry_space_group_name_H-M   'P -1'
_symmetry_Int_Tables_number      2
_space_group_name_Hall           '-P 1'
loop_
_symmetry_equiv_pos_site_id
_symmetry_equiv_pos_as_xyz
1 x,y,z
2 -x,-y,-z
_cell_length_a                   9.308(6)
_cell_length_b                   10.226(7)
_cell_length_c                   11.341(12)
_cell_angle_alpha                112.790(15)
_cell_angle_beta                 94.720(14)
_cell_angle_gamma                113.417(10)
_cell_volume                     876.91
loop_
_atom_site_label
_atom_site_type_symbol
_atom_site_fract_x
_atom_site_fract_y
_atom_site_fract_z
Fe1 Fe 0.48513(4) 0.89655(4) 0.22150(3)
C1 C 0.6977(4) 0.8291(3) 0.3989(3)
H1 H 0.6637 0.8817 0.4688
C2 C 0.8079(4) 0.7777(4) 0.4255(3)
H2 H 0.8468 0.7962 0.5116
C3 C 0.8584(4) 0.7003(4) 0.3250(3)
H3 H 0.9323 0.6653 0.3418
C4 C 0.7996(3) 0.6733(3) 0.1970(3)
C5 C 0.6896(3) 0.7293(3) 0.1789(2)
C6 C 0.6268(3) 0.7068(3) 0.0495(2)
C7 C 0.6761(3) 0.6295(3) -0.0578(3)
C8 C 0.7860(4) 0.5714(3) -0.0361(3)
H4 H 0.8177 0.5179 -0.1074
C9 C 0.8445(4) 0.5923(4) 0.0847(3)
H5 H 0.9165 0.5531 0.0959
C10 C 0.6151(4) 0.6162(3) -0.1797(3)
H6 H 0.6444 0.5653 -0.2540
C11 C 0.5129(4) 0.6774(4) -0.1906(3)
H7 H 0.4723 0.6694 -0.2722
C12 C 0.4689(3) 0.7519(3) -0.0802(2)
H8 H 0.3985 0.7935 -0.0892
C13 C 0.9772(3) 1.3896(3) 0.3739(2)
H9 H 0.9623 1.3152 0.2881
C14 C 0.8602(3) 1.3527(3) 0.4391(2)
C15 C 0.8842(3) 1.4648(3) 0.5655(2)
H10 H 0.8058 1.4419 0.6104
C16 C 0.7117(3) 1.1931(3) 0.3734(2)
C17 C 0.1996(3) 0.9508(3) 0.1686(2)
C18 C 0.0972(3) 0.9774(3) 0.0816(2)
C19 C 0.1130(3) 0.9534(3) -0.0438(2)
H11 H 0.1896 0.9221 -0.0738
C20 C -0.0173(3) 1.0247(3) 0.1245(2)
H12 H -0.0290 1.0418 0.2091
N1 N 0.6392(2) 0.8069(2) 0.27954(19)
N2 N 0.5233(2) 0.7662(2) 0.03742(18)
O1 O 0.6864(2) 1.10565(19) 0.25297(15)
O2 O 0.6172(2) 1.1482(2) 0.43713(16)
O3 O 0.3089(2) 0.9194(2) 0.12575(16)
O4 O 0.1711(2) 0.9574(3) 0.27456(17)
O5 O 0.3133(2) 0.7974(2) 0.30863(18)
H13 H 0.2497 0.8352 0.3148
H14 H 0.340(4) 0.812(4) 0.391(3)
C13A C 1.0228(3) 1.6104(3) 0.6261(2)
H9A H 1.0377 1.6848 0.7119
C14A C 1.1398(3) 1.6473(3) 0.5609(2)
C15A C 1.1158(3) 1.5352(3) 0.4345(2)
H10A H 1.1942 1.5581 0.3896
C16A C 1.2883(3) 1.8069(3) 0.6266(2)
O1A O 1.3136(2) 1.89435(19) 0.74703(15)
O2A O 1.3828(2) 1.8518(2) 0.56287(16)
C17A C -0.1996(3) 1.0492(3) -0.1686(2)
C18A C -0.0972(3) 1.0226(3) -0.0816(2)
C19A C -0.1130(3) 1.0466(3) 0.0438(2)
H11A H -0.1896 1.0779 0.0738
C20A C 0.0173(3) 0.9753(3) -0.1245(2)
H12A H 0.0290 0.9582 -0.2091
O3A O -0.3089(2) 1.0806(2) -0.12575(16)
O4A O -0.1711(2) 1.0426(3) -0.27456(17)
Fe1A Fe -0.48513(4) 1.10345(4) -0.22150(3)
C1A C -0.6977(4) 1.1709(3) -0.3989(3)
H1A H -0.6637 1.1183 -0.4688
C2A C -0.8079(4) 1.2223(4) -0.4255(3)
H2A H -0.8468 1.2038 -0.5116
C3A C -0.8584(4) 1.2997(4) -0.3250(3)
H3A H -0.9323 1.3347 -0.3418
C4A C -0.7996(3) 1.3267(3) -0.1970(3)
C5A C -0.6896(3) 1.2707(3) -0.1789(2)
C6A C -0.6268(3) 1.2932(3) -0.0495(2)
C7A C -0.6761(3) 1.3705(3) 0.0578(3)
C8A C -0.7860(4) 1.4286(3) 0.0361(3)
H4A H -0.8177 1.4821 0.1074
C9A C -0.8445(4) 1.4077(4) -0.0847(3)
H5A H -0.9165 1.4469 -0.0959
C10A C -0.6151(4) 1.3838(3) 0.1797(3)
H6A H -0.6444 1.4347 0.2540
C11A C -0.5129(4) 1.3226(4) 0.1906(3)
H7A H -0.4723 1.3306 0.2722
C12A C -0.4689(3) 1.2481(3) 0.0802(2)
H8A H -0.3985 1.2065 0.0892
N1A N -0.6392(2) 1.1931(2) -0.27954(19)
N2A N -0.5233(2) 1.2338(2) -0.03742(18)
O5A O -0.3133(2) 1.2026(2) -0.30863(18)
H13A H -0.2497 1.1648 -0.3148
H14A H -0.340(4) 1.188(4) -0.391(3)
Fe1A_2 Fe 1.51487(4) 2.10345(4) 0.77850(3)
O1A_2 O -0.6864(2) 0.89435(19) -0.25297(15)
loop_
_geom_bond_atom_site_label_1
_geom_bond_atom_site_label_2
_geom_bond_site_symmetry_1
_geom_bond_site_symmetry_2
Fe1 N1 1_555 1_555
C1 H1 1_555 1_555
C2 C1 1_555 1_555
H2 C2 1_555 1_555
C3 C2 1_555 1_555
H3 C3 1_555 1_555
C4 C3 1_555 1_555
C5 C4 1_555 1_555
C6 C5 1_555 1_555
C7 C6 1_555 1_555
C8 C7 1_555 1_555
H4 C8 1_555 1_555
C9 C4 1_555 1_555
H5 C9 1_555 1_555
C10 C7 1_555 1_555
H6 C10 1_555 1_555
C11 C10 1_555 1_555
H7 C11 1_555 1_555
C12 C11 1_555 1_555
H8 C12 1_555 1_555
C13 H9 1_555 1_555
C14 C13 1_555 1_555
C15 C14 1_555 1_555
H10 C15 1_555 1_555
C16 C14 1_555 1_555
C17 C18 1_555 1_555
C18 C19 1_555 1_555
C19 H11 1_555 1_555
C20 C18 1_555 1_555
H12 C20 1_555 1_555
N1 C1 1_555 1_555
N2 Fe1 1_555 1_555
O1 Fe1 1_555 1_555
O2 C16 1_555 1_555
O3 Fe1 1_555 1_555
O4 C17 1_555 1_555
O5 Fe1 1_555 1_555
H13 O5 1_555 1_555
H14 O5 1_555 1_555
C13A C15 1_555 1_555
H9A C13A 1_555 1_555
C14A C13A 1_555 1_555
C15A C13 1_555 1_555
H10A C15A 1_555 1_555
C16A C14A 1_555 1_555
O1A C16A 1_555 1_555
O2A C16A 1_555 1_555
C17A C18A 1_555 1_555
C18A C19A 1_555 1_555
C19A C20 1_555 1_555
H11A C19A 1_555 1_555
C20A C19 1_555 1_555
H12A C20A 1_555 1_555
O3A C17A 1_555 1_555
O4A C17A 1_555 1_555
Fe1A O3A 1_555 1_555
C1A H1A 1_555 1_555
C2A C1A 1_555 1_555
H2A C2A 1_555 1_555
C3A C2A 1_555 1_555
H3A C3A 1_555 1_555
C4A C3A 1_555 1_555
C5A C4A 1_555 1_555
C6A C5A 1_555 1_555
C7A C6A 1_555 1_555
C8A C7A 1_555 1_555
H4A C8A 1_555 1_555
C9A C4A 1_555 1_555
H5A C9A 1_555 1_555
C10A C7A 1_555 1_555
H6A C10A 1_555 1_555
C11A C10A 1_555 1_555
H7A C11A 1_555 1_555
C12A C11A 1_555 1_555
H8A C12A 1_555 1_555
N1A Fe1A 1_555 1_555
N2A Fe1A 1_555 1_555
O5A Fe1A 1_555 1_555
H13A O5A 1_555 1_555
H14A O5A 1_555 1_555
Fe1A_2 O1A 1_555 1_555
O1A_2 Fe1A 1_555 1_555
C5 N1 1_555 1_555
C6 N2 1_555 1_555
C8 C9 1_555 1_555
C12 N2 1_555 1_555
C16 O1 1_555 1_555
C17 O3 1_555 1_555
C14A C15A 1_555 1_555
C18A C20A 1_555 1_555
C1A N1A 1_555 1_555
C5A N1A 1_555 1_555
C6A N2A 1_555 1_555
C8A C9A 1_555 1_555
C12A N2A 1_555 1_555

#END
