
#######################################################################
#
#                 Cambridge Crystallographic Data Centre
#                                CCDC 
#
#######################################################################
#
# If this CIF has been generated from an entry in the Cambridge 
# Structural Database, then it will include bibliographic, chemical, 
# crystal, experimental, refinement or atomic coordinate data resulting 
# from the CCDC's data processing and validation procedures.
#
#######################################################################

data_DIBHAZ
_symmetry_cell_setting           monoclinic
_symmetry_space_group_name_H-M   'P 21/n'
_symmetry_Int_Tables_number      14
_space_group_name_Hall           '-P 2yn'
loop_
_symmetry_equiv_pos_site_id
_symmetry_equiv_pos_as_xyz
1 x,y,z
2 1/2-x,1/2+y,1/2-z
3 -x,-y,-z
4 1/2+x,1/2-y,1/2+z
_cell_length_a                   8.1083(16)
_cell_length_b                   17.194(3)
_cell_length_c                   28.646(6)
_cell_angle_alpha                90
_cell_angle_beta                 97.96(3)
_cell_angle_gamma                90
_cell_volume                     3955.18
loop_
_atom_site_label
_atom_site_type_symbol
_atom_site_fract_x
_atom_site_fract_y
_atom_site_fract_z
Zn1 Zn 1.00754(7) 1.08405(3) 0.11682(2)
Zn2 Zn 0.85914(7) 0.57841(3) 0.11401(2)
S1 S 0.40462(15) 1.02312(8) 0.05910(5)
S2 S 1.41436(16) 1.52632(7) 0.05900(5)
O1 O 0.8188(5) 0.7027(2) 0.14596(15)
O2 O 0.7031(4) 0.65707(19) 0.07842(13)
O3 O 0.7542(4) 1.1025(2) 0.06561(14)
O4 O 0.7812(4) 1.0914(2) 0.14220(14)
O5 O 1.0885(5) 1.2062(2) 0.14942(15)
O6 O 1.1309(4) 1.16044(18) 0.08104(13)
O7 O 1.1137(4) 1.5874(2) 0.14194(14)
O8 O 1.0609(4) 1.5967(2) 0.06558(15)
N1 N 1.1619(5) 1.0286(2) 0.17153(14)
N2 N 1.0140(4) 0.9710(2) 0.09111(14)
N3 N 0.7587(5) 0.5267(2) 0.17033(15)
N4 N 0.8264(4) 0.4648(2) 0.09121(14)
C1 C 0.4975(5) 0.9338(3) 0.07652(18)
C2 C 0.5923(6) 0.9205(3) 0.12040(18)
H1 H 0.6084 0.9601 0.1427
C3 C 0.6624(6) 0.8473(3) 0.13027(19)
H2 H 0.7262 0.8385 0.1593
C4 C 0.6390(5) 0.7869(3) 0.09752(18)
C5 C 0.5401(6) 0.7995(3) 0.05426(18)
H3 H 0.5210 0.7594 0.0324
C6 C 0.4706(6) 0.8725(3) 0.04414(18)
H4 H 0.4049 0.8808 0.0153
C7 C 0.7241(6) 0.7118(3) 0.1083(2)
C8 C 0.5055(6) 1.0913(3) 0.1018(2)
H5 H 0.4589 1.1426 0.0949
H6 H 0.4818 1.0766 0.1329
C9 C 0.6915(6) 1.0951(3) 0.1025(2)
C10 C 1.3352(5) 1.4361(3) 0.07678(19)
C11 C 1.2959(6) 1.4221(3) 0.12152(18)
H7 H 1.3097 1.4610 0.1443
C12 C 1.2368(6) 1.3508(3) 0.13217(18)
H8 H 1.2091 1.3420 0.1622
C13 C 1.2172(6) 1.2914(3) 0.09908(18)
C14 C 1.2613(6) 1.3062(3) 0.05516(19)
H9 H 1.2515 1.2666 0.0329
C15 C 1.3189(6) 1.3770(3) 0.04323(18)
H10 H 1.3468 1.3857 0.0132
C16 C 1.1432(6) 1.2156(3) 0.1113(2)
C17 C 1.3471(6) 1.5958(3) 0.1002(2)
H11 H 1.4053 1.5852 0.1315
H12 H 1.3774 1.6478 0.0914
C18 C 1.1612(6) 1.5929(3) 0.1017(2)
C19 C 1.2346(7) 1.0623(3) 0.2114(2)
H13 H 1.2163 1.1149 0.2162
C20 C 1.3354(7) 1.0212(4) 0.2455(2)
H14 H 1.3830 1.0455 0.2731
C21 C 1.3640(7) 0.9453(4) 0.2382(2)
H15 H 1.4328 0.9169 0.2607
C22 C 1.2910(7) 0.9094(3) 0.1972(2)
H16 H 1.3104 0.8571 0.1917
C23 C 1.1891(6) 0.9530(3) 0.16489(17)
C24 C 1.1054(5) 0.9194(3) 0.11939(18)
C25 C 1.1172(7) 0.8431(3) 0.1066(2)
H17 H 1.1778 0.8080 0.1270
C26 C 1.0392(7) 0.8189(3) 0.0636(2)
H18 H 1.0466 0.7671 0.0546
C27 C 0.9508(7) 0.8705(4) 0.0341(2)
H19 H 0.9006 0.8553 0.0043
C28 C 0.9376(6) 0.9457(3) 0.04932(18)
H20 H 0.8730 0.9806 0.0298
C29 C 0.7244(7) 0.5651(3) 0.2096(2)
H21 H 0.7452 0.6181 0.2126
C30 C 0.6595(7) 0.5261(4) 0.2449(2)
H22 H 0.6365 0.5526 0.2715
C31 C 0.6282(7) 0.4461(4) 0.2404(2)
H23 H 0.5863 0.4188 0.2642
C32 C 0.6604(7) 0.4083(3) 0.20011(19)
H24 H 0.6378 0.3555 0.1960
C33 C 0.7275(6) 0.4505(3) 0.16553(17)
C34 C 0.7648(5) 0.4153(3) 0.12129(18)
C35 C 0.7392(6) 0.3362(3) 0.1104(2)
H25 H 0.6980 0.3029 0.1316
C36 C 0.7757(7) 0.3085(3) 0.0679(2)
H26 H 0.7577 0.2563 0.0602
C37 C 0.8387(7) 0.3575(3) 0.0368(2)
H27 H 0.8646 0.3396 0.0080
C38 C 0.8624(6) 0.4360(3) 0.05025(18)
H28 H 0.9054 0.4698 0.0296
Zn2_2 Zn 0.85914(7) 1.57841(3) 0.11401(2)
O7_2 O 1.1137(4) 0.5874(2) 0.14194(14)
O8_2 O 1.0609(4) 0.5967(2) 0.06558(15)
O9 O 0.9781(8) 1.2646(3) 0.2284(2)
H29 H 1.094(3) 1.251(3) 0.233(3)
H30 H 0.913(5) 1.219(2) 0.222(3)
O10 O 1.2834(7) 1.7077(3) 0.2036(2)
H31 H 1.249(6) 1.669(3) 0.1806(19)
H32 H 1.178(5) 1.723(4) 0.217(2)
O11 O 0.9994(8) 0.7644(3) 0.2255(2)
H33 H 0.985(9) 0.734(3) 0.1974(15)
O12 O 0.6752(9) 1.2068(3) 0.2056(2)
H34 H 0.664(8) 1.1528(17) 0.194(2)
H35 H 0.615(8) 1.208(3) 0.2332(16)
loop_
_geom_bond_atom_site_label_1
_geom_bond_atom_site_label_2
_geom_bond_site_symmetry_1
_geom_bond_site_symmetry_2
Zn1 O3 1_555 1_555
Zn2 O1 1_555 1_555
S1 C1 1_555 1_555
S2 C10 1_555 1_555
O1 C7 1_555 1_555
O2 Zn2 1_555 1_555
O3 C9 1_555 1_555
O4 Zn1 1_555 1_555
O5 Zn1 1_555 1_555
O6 Zn1 1_555 1_555
O7 C18 1_555 1_555
O8 C18 1_555 1_555
N1 Zn1 1_555 1_555
N2 Zn1 1_555 1_555
N3 Zn2 1_555 1_555
N4 Zn2 1_555 1_555
C1 C2 1_555 1_555
C2 H1 1_555 1_555
C3 C2 1_555 1_555
H2 C3 1_555 1_555
C4 C3 1_555 1_555
C5 C4 1_555 1_555
H3 C5 1_555 1_555
C6 C1 1_555 1_555
H4 C6 1_555 1_555
C7 O2 1_555 1_555
C8 S1 1_555 1_555
H5 C8 1_555 1_555
H6 C8 1_555 1_555
C9 O4 1_555 1_555
C10 C11 1_555 1_555
C11 H7 1_555 1_555
C12 C11 1_555 1_555
H8 C12 1_555 1_555
C13 C12 1_555 1_555
C14 C13 1_555 1_555
H9 C14 1_555 1_555
C15 C10 1_555 1_555
H10 C15 1_555 1_555
C16 O5 1_555 1_555
C17 S2 1_555 1_555
H11 C17 1_555 1_555
H12 C17 1_555 1_555
C18 C17 1_555 1_555
C19 N1 1_555 1_555
H13 C19 1_555 1_555
C20 C19 1_555 1_555
H14 C20 1_555 1_555
C21 C20 1_555 1_555
H15 C21 1_555 1_555
C22 C21 1_555 1_555
H16 C22 1_555 1_555
C23 N1 1_555 1_555
C24 N2 1_555 1_555
C25 C24 1_555 1_555
H17 C25 1_555 1_555
C26 C25 1_555 1_555
H18 C26 1_555 1_555
C27 C26 1_555 1_555
H19 C27 1_555 1_555
C28 N2 1_555 1_555
H20 C28 1_555 1_555
C29 N3 1_555 1_555
H21 C29 1_555 1_555
C30 C29 1_555 1_555
H22 C30 1_555 1_555
C31 C30 1_555 1_555
H23 C31 1_555 1_555
C32 C31 1_555 1_555
H24 C32 1_555 1_555
C33 N3 1_555 1_555
C34 N4 1_555 1_555
C35 C34 1_555 1_555
H25 C35 1_555 1_555
C36 C35 1_555 1_555
H26 C36 1_555 1_555
C37 C36 1_555 1_555
H27 C37 1_555 1_555
C38 N4 1_555 1_555
H28 C38 1_555 1_555
O9 H29 1_555 1_555
H30 O9 1_555 1_555
O10 H31 1_555 1_555
H32 O10 1_555 1_555
O11 H33 1_555 1_555
O12 H34 1_555 1_555
H35 O12 1_555 1_555
Zn2_2 O7 1_555 1_555
O7_2 Zn2 1_555 1_555
O8_2 Zn2 1_555 1_555
O6 C16 1_555 1_555
O8 Zn2_2 1_555 1_555
C4 C7 1_555 1_555
C5 C6 1_555 1_555
C8 C9 1_555 1_555
C13 C16 1_555 1_555
C14 C15 1_555 1_555
C22 C23 1_555 1_555
C23 C24 1_555 1_555
C27 C28 1_555 1_555
C32 C33 1_555 1_555
C33 C34 1_555 1_555
C37 C38 1_555 1_555

#END
