
#######################################################################
#
#                 Cambridge Crystallographic Data Centre
#                                CCDC 
#
#######################################################################
#
# If this CIF has been generated from an entry in the Cambridge 
# Structural Database, then it will include bibliographic, chemical, 
# crystal, experimental, refinement or atomic coordinate data resulting 
# from the CCDC's data processing and validation procedures.
#
#######################################################################

data_DIBJUV
_symmetry_cell_setting           triclinic
_symmetry_space_group_name_H-M   'P -1'
_symmetry_Int_Tables_number      2
_space_group_name_Hall           '-P 1'
loop_
_symmetry_equiv_pos_site_id
_symmetry_equiv_pos_as_xyz
1 x,y,z
2 -x,-y,-z
_cell_length_a                   10.0073(7)
_cell_length_b                   10.1073(7)
_cell_length_c                   11.6425(8)
_cell_angle_alpha                77.4990(10)
_cell_angle_beta                 65.0560(10)
_cell_angle_gamma                61.4580(10)
_cell_volume                     937.823
loop_
_atom_site_label
_atom_site_type_symbol
_atom_site_fract_x
_atom_site_fract_y
_atom_site_fract_z
Co1 Co 0.84848(2) 0.37196(2) 0.269565(18)
N1 N 0.28112(17) 0.75903(16) -0.29071(13)
N2 N 0.37683(18) 0.71794(16) -0.22762(14)
N3 N 0.42059(17) 0.82840(15) -0.24000(12)
N4 N 0.97894(16) 0.50166(14) 0.24100(13)
O1 O 0.69715(13) 0.54580(12) 0.19184(11)
O2 O 0.49296(14) 0.67240(13) 0.36422(11)
O3 O 0.05074(14) 1.17078(12) 0.30066(10)
O4 O 0.04158(14) 1.23468(13) 0.11108(11)
O5 O 0.71179(14) 0.44953(13) 0.45747(10)
H1 H 0.6263 0.5389 0.4472
H2 H 0.6683 0.4024 0.5141
C1 C 0.46244(18) 0.83992(17) -0.04597(14)
C2 C 0.53925(18) 0.73805(17) 0.03326(15)
H3 H 0.6334 0.6505 -0.0001
C3 C 0.47683(17) 0.76548(16) 0.16226(14)
C4 C 0.33629(18) 0.89730(16) 0.21184(14)
H4 H 0.2938 0.9165 0.2977
C5 C 0.25936(17) 1.00060(16) 0.13242(14)
C6 C 0.32245(19) 0.97166(17) 0.00415(15)
H5 H 0.2709 1.0406 -0.0485
C7 C 0.5374(2) 0.8083(2) -0.18609(15)
H6 H 0.5891 0.8745 -0.2312
H7 H 0.6223 0.7055 -0.1998
C8 C 0.3528(2) 0.94447(18) -0.31348(14)
C9 C 0.26308(19) 0.89864(17) -0.34662(14)
C10 C 0.1810(2) 0.98684(19) -0.42866(16)
H8 H 0.1220 0.9564 -0.4523
C11 C 0.1921(2) 1.1197(2) -0.47206(18)
H9 H 0.1401 1.1808 -0.5271
C12 C 0.2811(2) 1.1665(2) -0.43517(19)
H10 H 0.2842 1.2584 -0.4659
C13 C 0.3622(2) 1.0815(2) -0.35622(17)
H11 H 0.4203 1.1126 -0.3322
C14 C 1.0470(2) 0.49153(19) 0.32146(16)
H12 H 1.0318 0.4307 0.3936
C15 C 1.1388(2) 0.5669(2) 0.3027(2)
H13 H 1.1840 0.5576 0.3610
C16 C 1.1621(3) 0.6568(3) 0.1950(2)
H14 H 1.2244 0.7083 0.1793
C17 C 1.0923(3) 0.6690(3) 0.1119(2)
H15 H 1.1060 0.7292 0.0391
C18 C 1.0011(2) 0.5904(2) 0.13811(17)
H16 H 0.9531 0.5996 0.0818
C19 C 0.56081(17) 0.65226(15) 0.24693(14)
C20 C 0.10886(18) 1.14375(16) 0.18473(14)
Co1_2 Co -0.15152(2) 1.37196(2) 0.269565(18)
Co1A Co 0.15152(2) 0.62804(2) -0.269565(18)
N1A N 0.71888(17) 0.24097(16) 0.29071(13)
O3_2 O 1.05074(14) 0.17078(12) 0.30066(10)
O4_2 O 1.04158(14) 0.23468(13) 0.11108(11)
loop_
_geom_bond_atom_site_label_1
_geom_bond_atom_site_label_2
_geom_bond_site_symmetry_1
_geom_bond_site_symmetry_2
Co1 N4 1_555 1_555
N1 N2 1_555 1_555
N2 N3 1_555 1_555
N3 C7 1_555 1_555
N4 C14 1_555 1_555
O1 Co1 1_555 1_555
O2 C19 1_555 1_555
O3 C20 1_555 1_555
O4 C20 1_555 1_555
O5 Co1 1_555 1_555
H1 O5 1_555 1_555
H2 O5 1_555 1_555
C1 C2 1_555 1_555
C2 H3 1_555 1_555
C3 C2 1_555 1_555
C4 C3 1_555 1_555
H4 C4 1_555 1_555
C5 C4 1_555 1_555
C6 C1 1_555 1_555
H5 C6 1_555 1_555
C7 C1 1_555 1_555
H6 C7 1_555 1_555
H7 C7 1_555 1_555
C8 N3 1_555 1_555
C9 N1 1_555 1_555
C10 C9 1_555 1_555
H8 C10 1_555 1_555
C11 C10 1_555 1_555
H9 C11 1_555 1_555
C12 C11 1_555 1_555
H10 C12 1_555 1_555
C13 C8 1_555 1_555
H11 C13 1_555 1_555
C14 H12 1_555 1_555
C15 C14 1_555 1_555
H13 C15 1_555 1_555
C16 C15 1_555 1_555
H14 C16 1_555 1_555
C17 C16 1_555 1_555
H15 C17 1_555 1_555
C18 N4 1_555 1_555
H16 C18 1_555 1_555
C19 O1 1_555 1_555
C20 C5 1_555 1_555
Co1_2 O3 1_555 1_555
Co1A N1 1_555 1_555
N1A Co1 1_555 1_555
O3_2 Co1 1_555 1_555
O4_2 Co1 1_555 1_555
O4 Co1_2 1_555 1_555
C3 C19 1_555 1_555
C5 C6 1_555 1_555
C8 C9 1_555 1_555
C12 C13 1_555 1_555
C17 C18 1_555 1_555

#END
