
#######################################################################
#
#                 Cambridge Crystallographic Data Centre
#                                CCDC 
#
#######################################################################
#
# If this CIF has been generated from an entry in the Cambridge 
# Structural Database, then it will include bibliographic, chemical, 
# crystal, experimental, refinement or atomic coordinate data resulting 
# from the CCDC's data processing and validation procedures.
#
#######################################################################

data_DIBJOP
_symmetry_cell_setting           monoclinic
_symmetry_space_group_name_H-M   'P 21/c'
_symmetry_Int_Tables_number      14
_space_group_name_Hall           '-P 2ybc'
loop_
_symmetry_equiv_pos_site_id
_symmetry_equiv_pos_as_xyz
1 x,y,z
2 -x,1/2+y,1/2-z
3 -x,-y,-z
4 x,1/2-y,1/2+z
_cell_length_a                   8.3839(6)
_cell_length_b                   11.1671(8)
_cell_length_c                   16.8776(10)
_cell_angle_alpha                90
_cell_angle_beta                 119.785(3)
_cell_angle_gamma                90
_cell_volume                     1371.4
loop_
_atom_site_label
_atom_site_type_symbol
_atom_site_fract_x
_atom_site_fract_y
_atom_site_fract_z
Co1 Co 0.61249(3) 0.64980(2) 0.515608(16)
N1 N 0.1700(2) 0.25854(16) 0.90241(11)
N2 N 0.1540(2) 0.29568(17) 0.82465(11)
N3 N 0.0103(2) 0.37027(16) 0.78539(12)
O1 O 0.29079(19) 0.49974(13) 0.51165(9)
O2 O 0.5395(2) 0.60468(15) 0.60680(10)
O3 O 0.6060(2) 0.77773(16) 0.88827(10)
O4 O 0.3909(2) 0.75475(16) 0.92381(9)
C1 C 0.1166(3) 0.50750(18) 0.70682(12)
C2 C 0.1724(3) 0.50108(18) 0.64197(12)
H1 H 0.1122 0.4498 0.5923
C3 C 0.3182(3) 0.57120(17) 0.65112(12)
C4 C 0.4072(3) 0.64775(16) 0.72453(13)
H2 H 0.5044 0.6945 0.7304
C5 C 0.3521(3) 0.65544(16) 0.79000(13)
C6 C 0.2057(3) 0.58547(19) 0.77991(13)
H3 H 0.1671 0.5911 0.8228
C7 C -0.0376(3) 0.4277(2) 0.69810(13)
H4 H -0.1481 0.4751 0.6777
H5 H -0.0629 0.3665 0.6525
C8 C -0.0700(3) 0.38246(19) 0.83784(14)
C9 C 0.0325(3) 0.31038(19) 0.91338(13)
C10 C -0.0119(3) 0.2994(2) 0.98280(15)
H6 H 0.0578 0.2528 1.0344
C11 C -0.1641(4) 0.3613(2) 0.97045(18)
H7 H -0.2001 0.3550 1.0143
C12 C -0.2665(4) 0.4336(3) 0.89395(19)
H8 H -0.3677 0.4744 0.8890
C13 C -0.2238(3) 0.4469(2) 0.82582(17)
H9 H -0.2921 0.4953 0.7752
C14 C 0.3857(3) 0.55779(17) 0.58434(12)
C15 C 0.4550(3) 0.73371(18) 0.87104(12)
Co1A Co 0.38751(3) 0.14980(2) 0.984392(16)
Co1B Co 0.38751(3) 0.35020(2) 0.484392(16)
Co1C Co 0.61249(3) 0.85020(2) 1.015608(16)
N1A N 0.8300(2) 0.75854(16) 0.59759(11)
O1B O 0.70921(19) 0.50026(13) 0.48835(9)
O3C O 0.6060(2) 0.72227(16) 0.38827(10)
O4C O 0.3909(2) 0.74525(16) 0.42381(9)
loop_
_geom_bond_atom_site_label_1
_geom_bond_atom_site_label_2
_geom_bond_site_symmetry_1
_geom_bond_site_symmetry_2
Co1 O2 1_555 1_555
N1 N2 1_555 1_555
N2 N3 1_555 1_555
N3 C7 1_555 1_555
O1 C14 1_555 1_555
O2 C14 1_555 1_555
O3 C15 1_555 1_555
O4 C15 1_555 1_555
C1 C2 1_555 1_555
C2 H1 1_555 1_555
C3 C2 1_555 1_555
C4 C3 1_555 1_555
H2 C4 1_555 1_555
C5 C4 1_555 1_555
C6 C1 1_555 1_555
H3 C6 1_555 1_555
C7 C1 1_555 1_555
H4 C7 1_555 1_555
H5 C7 1_555 1_555
C8 N3 1_555 1_555
C9 N1 1_555 1_555
C10 C9 1_555 1_555
H6 C10 1_555 1_555
C11 C10 1_555 1_555
H7 C11 1_555 1_555
C12 C11 1_555 1_555
H8 C12 1_555 1_555
C13 C8 1_555 1_555
H9 C13 1_555 1_555
C14 C3 1_555 1_555
C15 C5 1_555 1_555
Co1A N1 1_555 1_555
Co1B O1 1_555 1_555
Co1C O3 1_555 1_555
N1A Co1 1_555 1_555
O1B Co1 1_555 1_555
O3C Co1 1_555 1_555
O4C Co1 1_555 1_555
O4 Co1C 1_555 1_555
C5 C6 1_555 1_555
C8 C9 1_555 1_555
C12 C13 1_555 1_555

#END
