
#######################################################################
#
#                 Cambridge Crystallographic Data Centre
#                                CCDC 
#
#######################################################################
#
# If this CIF has been generated from an entry in the Cambridge 
# Structural Database, then it will include bibliographic, chemical, 
# crystal, experimental, refinement or atomic coordinate data resulting 
# from the CCDC's data processing and validation procedures.
#
#######################################################################

data_DIBLUX
_symmetry_cell_setting           monoclinic
_symmetry_space_group_name_H-M   'P 2/c'
_symmetry_Int_Tables_number      13
_space_group_name_Hall           '-P 2yc'
loop_
_symmetry_equiv_pos_site_id
_symmetry_equiv_pos_as_xyz
1 x,y,z
2 -x,y,1/2-z
3 -x,-y,-z
4 x,-y,1/2+z
_cell_length_a                   7.8148(2)
_cell_length_b                   11.6998(3)
_cell_length_c                   13.1710(3)
_cell_angle_alpha                90
_cell_angle_beta                 123.971(2)
_cell_angle_gamma                90
_cell_volume                     998.706
loop_
_atom_site_label
_atom_site_type_symbol
_atom_site_fract_x
_atom_site_fract_y
_atom_site_fract_z
O4 O 0.8401(3) 0.0875(2) 0.5613(2)
H11 H 0.8698 0.0168 0.5752
H12 H 0.8768 0.0851 0.5116
Cd1 Cd 0.5000 0.22400(3) 0.2500
O1 O 0.1423(3) 0.1998(2) 0.12140(19)
O2 O -0.1493(3) 0.1495(2) 0.1011(2)
O3 O 0.4997(3) 0.22144(19) 0.07350(18)
H1 H 0.3968 0.1861 0.0146
H2 H 0.6114 0.2035 0.0807
N1 N 0.5000 0.4208(3) 0.2500
N2 N 0.5000 1.0262(3) 0.2500
C1 C -0.0025(4) 0.2164(3) 0.1361(3)
C2 C -0.001(2) 0.3294(4) 0.2033(11)
C3 C -0.0063(12) 0.4346(6) 0.1524(7)
H3 H -0.0085 0.4377 0.0811
C4 C -0.0086(14) 0.5350(3) 0.2080(8)
C5 C -0.0332(10) 0.6485(6) 0.1437(6)
H4 H -0.0333 0.7071 0.1946
H5 H 0.0868 0.6566 0.1414
H6 H -0.1550 0.6552 0.0623
C6 C 0.5123(5) 0.4812(3) 0.3405(3)
H7 H 0.5211 0.4414 0.4044
C7 C 0.5128(5) 0.5989(3) 0.3439(3)
H8 H 0.5215 0.6367 0.4087
C8 C 0.5000 0.6606(4) 0.2500
C9 C 0.5000 0.7871(4) 0.2500
C10 C 0.6210(5) 0.8495(3) 0.2230(3)
H9 H 0.7035 0.8119 0.2032
C11 C 0.6185(5) 0.9664(3) 0.2255(3)
H10 H 0.7037 1.0063 0.2093
O1A O -0.1423(3) 0.1998(2) 0.37860(19)
O2A O 0.1493(3) 0.1495(2) 0.3989(2)
C1A C 0.0025(4) 0.2164(3) 0.3639(3)
C2A C 0.001(2) 0.3294(4) 0.2967(11)
C3A C 0.0063(12) 0.4346(6) 0.3476(7)
H3A H 0.0085 0.4377 0.4189
C4A C 0.0086(14) 0.5350(3) 0.2920(8)
C5A C 0.0332(10) 0.6485(6) 0.3563(6)
H4A H 0.0333 0.7071 0.3054
H5A H -0.0868 0.6566 0.3586
H6A H 0.1550 0.6552 0.4377
C6A C 0.4877(5) 0.4812(3) 0.1595(3)
H7A H 0.4789 0.4414 0.0956
C7A C 0.4872(5) 0.5989(3) 0.1561(3)
H8A H 0.4785 0.6367 0.0913
C10A C 0.3790(5) 0.8495(3) 0.2770(3)
H9A H 0.2965 0.8119 0.2968
C11A C 0.3815(5) 0.9664(3) 0.2745(3)
H10A H 0.2963 1.0063 0.2907
O3A O 0.5003(3) 0.22144(19) 0.42650(18)
H1A H 0.6032 0.1861 0.4854
H2A H 0.3886 0.2035 0.4193
Cd1_2 Cd -0.5000 0.22400(3) 0.2500
Cd1_3 Cd 0.5000 1.22400(3) 0.2500
O1A_2 O 0.8577(3) 0.1998(2) 0.37860(19)
N2_2 N 0.5000 0.0262(3) 0.2500
C12? C -0.0053(15) 0.5302(4) 0.3146(8)
H13? H -0.0068 0.5974 0.3518
C13? C 0.0002(13) 0.4251(7) 0.3654(7)
H14? H 0.0024 0.4219 0.4367
C14? C 0.002(2) 0.3247(4) 0.3098(11)
loop_
_geom_bond_atom_site_label_1
_geom_bond_atom_site_label_2
_geom_bond_site_symmetry_1
_geom_bond_site_symmetry_2
Cd1 O1 1_555 1_555
O1 C1 1_555 1_555
O2 C1 1_555 1_555
O3 Cd1 1_555 1_555
H1 O3 1_555 1_555
H2 O3 1_555 1_555
N1 Cd1 1_555 1_555
N2 C11 1_555 1_555
C1 C2 1_555 1_555
C2 C3 1_555 1_555
C3 H3 1_555 1_555
C4 C3 1_555 1_555
C5 C4 1_555 1_555
H4 C5 1_555 1_555
H5 C5 1_555 1_555
H6 C5 1_555 1_555
C6 N1 1_555 1_555
H7 C6 1_555 1_555
C7 C6 1_555 1_555
H8 C7 1_555 1_555
C8 C7 1_555 1_555
C9 C8 1_555 1_555
C10 C9 1_555 1_555
H9 C10 1_555 1_555
C11 C10 1_555 1_555
H10 C11 1_555 1_555
O4 H11 1_555 1_555
H12 O4 1_555 1_555
O1A C1A 1_555 1_555
O2A C1A 1_555 1_555
C1A C2A 1_555 1_555
C2A C2 1_555 1_555
C3A C2A 1_555 1_555
H3A C3A 1_555 1_555
C4A C4 1_555 1_555
C5A C4A 1_555 1_555
H4A C5A 1_555 1_555
H5A C5A 1_555 1_555
H6A C5A 1_555 1_555
C6A N1 1_555 1_555
H7A C6A 1_555 1_555
C7A C8 1_555 1_555
H8A C7A 1_555 1_555
C10A C9 1_555 1_555
H9A C10A 1_555 1_555
C11A N2 1_555 1_555
H10A C11A 1_555 1_555
O3A Cd1 1_555 1_555
H1A O3A 1_555 1_555
H2A O3A 1_555 1_555
Cd1_2 O1A 1_555 1_555
Cd1_3 N2 1_555 1_555
O1A_2 Cd1 1_555 1_555
N2_2 Cd1 1_555 1_555
C3A C4A 1_555 1_555
C6A C7A 1_555 1_555
C10A C11A 1_555 1_555

#END
