
#######################################################################
#
#                 Cambridge Crystallographic Data Centre
#                                CCDC 
#
#######################################################################
#
# If this CIF has been generated from an entry in the Cambridge 
# Structural Database, then it will include bibliographic, chemical, 
# crystal, experimental, refinement or atomic coordinate data resulting 
# from the CCDC's data processing and validation procedures.
#
#######################################################################

data_DIBWUI
_symmetry_cell_setting           triclinic
_symmetry_space_group_name_H-M   'P -1'
_symmetry_Int_Tables_number      2
_space_group_name_Hall           '-P 1'
loop_
_symmetry_equiv_pos_site_id
_symmetry_equiv_pos_as_xyz
1 x,y,z
2 -x,-y,-z
_cell_length_a                   10.6720(16)
_cell_length_b                   10.7194(16)
_cell_length_c                   11.9351(18)
_cell_angle_alpha                70.341(2)
_cell_angle_beta                 77.928(2)
_cell_angle_gamma                60.8544(10)
_cell_volume                     1121.26
loop_
_atom_site_label
_atom_site_type_symbol
_atom_site_fract_x
_atom_site_fract_y
_atom_site_fract_z
C1 C 0.8218(5) 0.0228(5) 0.7169(4)
C2 C 0.8271(5) 0.0118(5) 0.8349(4)
C3 C 0.7163(5) 0.0348(5) 0.6419(4)
C4 C 0.7353(4) -0.0019(5) 0.9447(4)
C5 C 0.0563(6) 0.6866(6) 0.5427(5)
H1 H -0.0106 0.7292 0.4852
C6 C 0.1137(6) 0.5362(7) 0.5947(5)
H2 H 0.0860 0.4790 0.5715
C7 C 0.2114(5) 0.4698(5) 0.6804(5)
C8 C 0.2488(7) 0.5604(7) 0.7090(6)
H3 H 0.3145 0.5206 0.7669
C9 C 0.1896(7) 0.7100(7) 0.6522(6)
H4 H 0.2189 0.7688 0.6712
C10 C 0.2761(5) 0.3064(5) 0.7430(4)
C11 C 0.9234(6) -0.6819(6) 0.8713(5)
H5 H 1.0052 -0.7215 0.8231
C12 C 0.8427(6) -0.5305(6) 0.8453(5)
H6 H 0.8686 -0.4692 0.7794
C13 C 0.7217(5) -0.4691(5) 0.9183(5)
C14 C 0.6874(5) -0.5669(5) 1.0136(5)
H7 H 0.6066 -0.5305 1.0635
C15 C 0.7719(5) -0.7157(5) 1.0341(5)
H8 H 0.7482 -0.7793 1.0994
C16 C 0.6294(5) -0.3054(5) 0.8917(5)
Cu1 Cu 1.0000 0.0000 1.0000
Cu2 Cu 1.0000 0.0000 0.5000
Tb1 Tb 0.45062(2) 0.00173(2) 0.83754(2)
N1 N 0.9452(4) 0.0239(4) 0.6623(3)
N2 N 1.0239(4) 0.0185(4) 0.7387(3)
N3 N 0.9524(4) 0.0103(4) 0.8447(3)
N4 N 0.0928(4) 0.7734(4) 0.5717(4)
N5 N 0.8885(4) -0.7747(4) 0.9636(4)
O1 O 0.7654(3) 0.0082(4) 0.5441(3)
O2 O 0.5864(3) 0.0769(4) 0.6808(3)
O3 O 0.6182(3) -0.0041(3) 0.9437(3)
O4 O 0.7768(3) -0.0129(3) 1.0412(3)
O5 O 0.2604(4) 0.2189(4) 0.7051(3)
O6 O 0.3501(4) 0.2597(4) 0.8308(3)
O7 O 0.5137(4) -0.2552(4) 0.9525(3)
O8 O 0.6675(4) -0.2195(4) 0.8075(3)
O9 O 0.3671(4) -0.0831(4) 0.7201(4)
H9 H 0.283(4) -0.047(7) 0.706(6)
H10 H 0.425(5) -0.102(7) 0.671(5)
C1A C 0.1782(5) -0.0228(5) 1.2831(4)
C2A C 0.1729(5) -0.0118(5) 1.1651(4)
C3A C 0.2837(5) -0.0348(5) 1.3581(4)
C4A C 0.2647(4) 0.0019(5) 1.0553(4)
C5A C 0.9437(6) -0.6866(6) 1.4573(5)
H1A H 1.0106 -0.7292 1.5148
C6A C 0.8863(6) -0.5362(7) 1.4053(5)
H2A H 0.9140 -0.4790 1.4285
C7A C 0.7886(5) -0.4698(5) 1.3196(5)
C8A C 0.7512(7) -0.5604(7) 1.2910(6)
H3A H 0.6855 -0.5206 1.2331
C9A C 0.8104(7) -0.7100(7) 1.3478(6)
H4A H 0.7811 -0.7688 1.3288
C10A C 0.7239(5) -0.3064(5) 1.2570(4)
C11A C 0.0766(6) 0.6819(6) 1.1287(5)
H5A H -0.0052 0.7215 1.1769
C12A C 0.1573(6) 0.5305(6) 1.1547(5)
H6A H 0.1314 0.4692 1.2206
C13A C 0.2783(5) 0.4691(5) 1.0817(5)
C14A C 0.3126(5) 0.5669(5) 0.9864(5)
H7A H 0.3934 0.5305 0.9365
C15A C 0.2281(5) 0.7157(5) 0.9659(5)
H8A H 0.2518 0.7793 0.9006
C16A C 0.3706(5) 0.3054(5) 1.1083(5)
Tb1A Tb 0.54938(2) -0.00173(2) 1.16246(2)
N1A N 0.0548(4) -0.0239(4) 1.3377(3)
N2A N -0.0239(4) -0.0185(4) 1.2613(3)
N3A N 0.0476(4) -0.0103(4) 1.1553(3)
N4A N 0.9072(4) -0.7734(4) 1.4283(4)
N5A N 0.1115(4) 0.7747(4) 1.0364(4)
O1A O 0.2346(3) -0.0082(4) 1.4559(3)
O2A O 0.4136(3) -0.0769(4) 1.3192(3)
O3A O 0.3818(3) 0.0041(3) 1.0563(3)
O4A O 0.2232(3) 0.0129(3) 0.9588(3)
O5A O 0.7396(4) -0.2189(4) 1.2949(3)
O6A O 0.6499(4) -0.2597(4) 1.1692(3)
O7A O 0.4863(4) 0.2552(4) 1.0475(3)
O8A O 0.3325(4) 0.2195(4) 1.1925(3)
O9A O 0.6329(4) 0.0831(4) 1.2799(4)
H9A H 0.717(4) 0.047(7) 1.294(6)
H10A H 0.575(5) 0.102(7) 1.329(5)
Cu1_2 Cu 0.0000 0.0000 1.0000
Cu1_3 Cu 0.0000 1.0000 1.0000
Cu1_4 Cu 1.0000 -1.0000 1.0000
Cu2_2 Cu 0.0000 0.0000 1.5000
Cu2_3 Cu 0.0000 1.0000 0.5000
Cu2_4 Cu 1.0000 -1.0000 1.5000
N1A_2 N 1.0548(4) -0.0239(4) 0.3377(3)
N3A_2 N 1.0476(4) -0.0103(4) 1.1553(3)
N4_2 N 1.0928(4) -0.2266(4) 0.5717(4)
N4A_2 N 0.9072(4) 0.2266(4) 0.4283(4)
N5_2 N 0.8885(4) 0.2253(4) 0.9636(4)
N5A_2 N 1.1115(4) -0.2253(4) 1.0364(4)
O1A_2 O 1.2346(3) -0.0082(4) 0.4559(3)
O4A_2 O 1.2232(3) 0.0129(3) 0.9588(3)
O10 O 0.4091(6) 0.6521(8) 0.1975(5)
H11 H 0.4223(19) 0.649(3) 0.2642(7)
H12 H 0.4815(11) 0.654(3) 0.1579(11)
O11 O 0.4779(9) 0.3479(7) 0.3310(6)
H13 H 0.485(2) 0.2748(10) 0.3875(14)
H14 H 0.477(2) 0.4050(12) 0.3635(17)
O12 O 0.2761(6) 0.2591(8) 0.4540(7)
H15 H 0.3600(7) 0.194(2) 0.463(4)
H16 H 0.2293(11) 0.219(2) 0.501(3)
loop_
_geom_bond_atom_site_label_1
_geom_bond_atom_site_label_2
_geom_bond_site_symmetry_1
_geom_bond_site_symmetry_2
C1 C2 1_555 1_555
C2 C4 1_555 1_555
C3 C1 1_555 1_555
C4 O3 1_555 1_555
C5 H1 1_555 1_555
C6 C5 1_555 1_555
H2 C6 1_555 1_555
C7 C6 1_555 1_555
C8 C7 1_555 1_555
H3 C8 1_555 1_555
C9 C8 1_555 1_555
H4 C9 1_555 1_555
C10 C7 1_555 1_555
C11 H5 1_555 1_555
C12 C11 1_555 1_555
H6 C12 1_555 1_555
C13 C12 1_555 1_555
C14 C13 1_555 1_555
H7 C14 1_555 1_555
C15 C14 1_555 1_555
H8 C15 1_555 1_555
C16 C13 1_555 1_555
Cu1 N3 1_555 1_555
Cu2 N1 1_555 1_555
Tb1 O2 1_555 1_555
N1 C1 1_555 1_555
N2 N1 1_555 1_555
N3 C2 1_555 1_555
N4 C5 1_555 1_555
N5 C11 1_555 1_555
O1 C3 1_555 1_555
O2 C3 1_555 1_555
O3 Tb1 1_555 1_555
O4 C4 1_555 1_555
O5 C10 1_555 1_555
O6 C10 1_555 1_555
O7 C16 1_555 1_555
O8 C16 1_555 1_555
O9 Tb1 1_555 1_555
H9 O9 1_555 1_555
H10 O9 1_555 1_555
O10 H11 1_555 1_555
H12 O10 1_555 1_555
O11 H13 1_555 1_555
H14 O11 1_555 1_555
O12 H15 1_555 1_555
H16 O12 1_555 1_555
C1A C2A 1_555 1_555
C2A C4A 1_555 1_555
C3A C1A 1_555 1_555
C4A O3A 1_555 1_555
C5A H1A 1_555 1_555
C6A C5A 1_555 1_555
H2A C6A 1_555 1_555
C7A C6A 1_555 1_555
C8A C7A 1_555 1_555
H3A C8A 1_555 1_555
C9A C8A 1_555 1_555
H4A C9A 1_555 1_555
C10A C7A 1_555 1_555
C11A H5A 1_555 1_555
C12A C11A 1_555 1_555
H6A C12A 1_555 1_555
C13A C12A 1_555 1_555
C14A C13A 1_555 1_555
H7A C14A 1_555 1_555
C15A C14A 1_555 1_555
H8A C15A 1_555 1_555
C16A C13A 1_555 1_555
Tb1A O3 1_555 1_555
N1A C1A 1_555 1_555
N2A N1A 1_555 1_555
N3A C2A 1_555 1_555
N4A C5A 1_555 1_555
N5A C11A 1_555 1_555
O1A C3A 1_555 1_555
O2A C3A 1_555 1_555
O3A Tb1 1_555 1_555
O4A Tb1 1_555 1_555
O5A C10A 1_555 1_555
O6A C10A 1_555 1_555
O7A C16A 1_555 1_555
O8A C16A 1_555 1_555
O9A Tb1A 1_555 1_555
H9A O9A 1_555 1_555
H10A O9A 1_555 1_555
Cu1_2 N3A 1_555 1_555
Cu1_3 N5A 1_555 1_555
Cu1_4 N5 1_555 1_555
Cu2_2 N1A 1_555 1_555
Cu2_3 N4 1_555 1_555
Cu2_4 N4A 1_555 1_555
N1A_2 Cu2 1_555 1_555
N3A_2 Cu1 1_555 1_555
N4_2 Cu2 1_555 1_555
N4A_2 Cu2 1_555 1_555
N5_2 Cu1 1_555 1_555
N5A_2 Cu1 1_555 1_555
O1A_2 Cu2 1_555 1_555
O4A_2 Cu1 1_555 1_555
C9 N4 1_555 1_555
C15 N5 1_555 1_555
Cu1 O4 1_555 1_555
Cu2 O1 1_555 1_555
Tb1 O5 1_555 1_555
Tb1 O6 1_555 1_555
Tb1 O7 1_555 1_555
Tb1 O8 1_555 1_555
N2 N3 1_555 1_555
O4 Tb1A 1_555 1_555
C4A O4A 1_555 1_555
C9A N4A 1_555 1_555
C15A N5A 1_555 1_555
Tb1A O2A 1_555 1_555
Tb1A O3A 1_555 1_555
Tb1A O5A 1_555 1_555
Tb1A O6A 1_555 1_555
Tb1A O7A 1_555 1_555
Tb1A O8A 1_555 1_555
N2A N3A 1_555 1_555
O1A Cu2_2 1_555 1_555
O4A Cu1_2 1_555 1_555

#END
