
#######################################################################
#
#                 Cambridge Crystallographic Data Centre
#                                CCDC 
#
#######################################################################
#
# If this CIF has been generated from an entry in the Cambridge 
# Structural Database, then it will include bibliographic, chemical, 
# crystal, experimental, refinement or atomic coordinate data resulting 
# from the CCDC's data processing and validation procedures.
#
#######################################################################

data_DIBZAR
_symmetry_cell_setting           triclinic
_symmetry_space_group_name_H-M   'P -1'
_symmetry_Int_Tables_number      2
_space_group_name_Hall           '-P 1'
loop_
_symmetry_equiv_pos_site_id
_symmetry_equiv_pos_as_xyz
1 x,y,z
2 -x,-y,-z
_cell_length_a                   7.5599(2)
_cell_length_b                   9.0786(3)
_cell_length_c                   13.5165(5)
_cell_angle_alpha                101.255(3)
_cell_angle_beta                 101.948(3)
_cell_angle_gamma                107.605(3)
_cell_volume                     831.365
loop_
_atom_site_label
_atom_site_type_symbol
_atom_site_fract_x
_atom_site_fract_y
_atom_site_fract_z
Ba1 Ba 0.856138(16) -0.092079(14) 0.120296(9)
C1 C 0.6942(3) 0.3002(3) 0.09477(17)
H1 H 0.7242 0.2739 0.0270
H2 H 0.6258 0.3773 0.0916
C2 C 0.5631(3) 0.1472(2) 0.11076(16)
C3 C 1.0487(3) 0.4518(2) 0.14576(17)
H3 H 1.1620 0.5127 0.2079
H4 H 1.0207 0.5293 0.1083
C4 C 1.0994(3) 0.3303(2) 0.07322(16)
C5 C 0.6221(3) 0.2178(3) 0.52120(16)
H5 H 0.7571 0.2814 0.5642
H6 H 0.6164 0.1083 0.4885
C6 C 0.4896(3) 0.2068(3) 0.59299(17)
C7 C 0.3767(3) 0.1932(2) 0.35629(17)
H7 H 0.3189 0.0934 0.3756
H8 H 0.3975 0.1624 0.2864
C8 C 0.2366(3) 0.2852(2) 0.35004(16)
C9 C 0.8670(3) 0.5001(3) 0.27020(17)
H9 H 0.8584 0.5929 0.2440
H10 H 0.9891 0.5386 0.3277
C10 C 0.6993(3) 0.4439(3) 0.31561(18)
H11 H 0.5795 0.3830 0.2572
H12 H 0.6814 0.5390 0.3561
C11 C 0.7298(3) 0.3385(3) 0.38692(17)
H13 H 0.7385 0.2395 0.3455
H14 H 0.8537 0.3964 0.4429
N1 N 0.8781(2) 0.3759(2) 0.18224(14)
H15 H 0.906(3) 0.309(3) 0.2080(19)
N2 N 0.5683(2) 0.2936(2) 0.43632(14)
H16 H 0.556(3) 0.383(3) 0.4676(19)
O1 O 0.6412(2) 0.08446(17) 0.17363(11)
O2 O 0.5539(3) -0.3291(2) 0.14904(15)
H17 H 0.458(4) -0.401(4) 0.114(2)
H18 H 0.526(4) -0.291(3) 0.196(2)
O3 O 1.2017(2) -0.1407(2) 0.15535(14)
H19 H 1.278(4) -0.077(3) 0.132(2)
H20 H 1.265(4) -0.147(3) 0.203(2)
O4 O 0.3885(2) 0.09430(18) 0.05916(12)
O5 O 1.0181(2) 0.18364(17) 0.06284(12)
O6 O 0.9347(3) -0.1100(2) 0.33293(14)
H21 H 0.853(4) -0.140(3) 0.367(2)
H22 H 0.984(4) -0.020(4) 0.351(2)
O7 O 1.2225(2) 0.38969(18) 0.02845(12)
O8 O 0.3261(2) 0.2117(2) 0.55903(13)
O9 O 0.5599(3) 0.1922(2) 0.68130(14)
O10 O 0.3004(2) 0.43122(18) 0.39600(12)
O11 O 0.0669(2) 0.20151(18) 0.29434(12)
Ba1_2 Ba -0.143862(16) -0.092079(14) 0.120296(9)
Ba1A Ba 0.143862(16) 0.092079(14) -0.120296(9)
Ba1A_2 Ba 1.143862(16) 0.092079(14) -0.120296(9)
O4A O 0.6115(2) -0.09430(18) -0.05916(12)
O5A O 0.9819(2) -0.18364(17) -0.06284(12)
O7A O 0.7775(2) -0.38969(18) -0.02845(12)
O11_2 O 1.0669(2) 0.20151(18) 0.29434(12)
loop_
_geom_bond_atom_site_label_1
_geom_bond_atom_site_label_2
_geom_bond_site_symmetry_1
_geom_bond_site_symmetry_2
Ba1 O1 1_555 1_555
C1 H1 1_555 1_555
H2 C1 1_555 1_555
C2 C1 1_555 1_555
C3 H3 1_555 1_555
H4 C3 1_555 1_555
C4 C3 1_555 1_555
C5 H5 1_555 1_555
H6 C5 1_555 1_555
C6 C5 1_555 1_555
C7 H7 1_555 1_555
H8 C7 1_555 1_555
C8 C7 1_555 1_555
C9 H9 1_555 1_555
H10 C9 1_555 1_555
C10 C9 1_555 1_555
H11 C10 1_555 1_555
H12 C10 1_555 1_555
C11 C10 1_555 1_555
H13 C11 1_555 1_555
H14 C11 1_555 1_555
N1 C1 1_555 1_555
H15 N1 1_555 1_555
N2 C5 1_555 1_555
H16 N2 1_555 1_555
O1 C2 1_555 1_555
O2 Ba1 1_555 1_555
H17 O2 1_555 1_555
H18 O2 1_555 1_555
O3 Ba1 1_555 1_555
H19 O3 1_555 1_555
H20 O3 1_555 1_555
O4 C2 1_555 1_555
O5 Ba1 1_555 1_555
O6 Ba1 1_555 1_555
H21 O6 1_555 1_555
H22 O6 1_555 1_555
O7 C4 1_555 1_555
O8 C6 1_555 1_555
O9 C6 1_555 1_555
O10 C8 1_555 1_555
O11 C8 1_555 1_555
Ba1_2 O11 1_555 1_555
Ba1A O4 1_555 1_555
Ba1A_2 O5 1_555 1_555
O4A Ba1 1_555 1_555
O5A Ba1 1_555 1_555
O7A Ba1 1_555 1_555
O11_2 Ba1 1_555 1_555
C3 N1 1_555 1_555
C4 O5 1_555 1_555
C7 N2 1_555 1_555
C9 N1 1_555 1_555
C11 N2 1_555 1_555
O7 Ba1A_2 1_555 1_555
Ba1A_2 O5A 1_555 1_555

#END
