
#######################################################################
#
#                 Cambridge Crystallographic Data Centre
#                                CCDC 
#
#######################################################################
#
# If this CIF has been generated from an entry in the Cambridge 
# Structural Database, then it will include bibliographic, chemical, 
# crystal, experimental, refinement or atomic coordinate data resulting 
# from the CCDC's data processing and validation procedures.
#
#######################################################################

data_DICBAT
_symmetry_cell_setting           triclinic
_symmetry_space_group_name_H-M   'P -1'
_symmetry_Int_Tables_number      2
_space_group_name_Hall           '-P 1'
loop_
_symmetry_equiv_pos_site_id
_symmetry_equiv_pos_as_xyz
1 x,y,z
2 -x,-y,-z
_cell_length_a                   9.986(7)
_cell_length_b                   13.549(10)
_cell_length_c                   16.396(12)
_cell_angle_alpha                90.642(10)
_cell_angle_beta                 98.767(9)
_cell_angle_gamma                90.280(10)
_cell_volume                     2192.28
loop_
_atom_site_label
_atom_site_type_symbol
_atom_site_fract_x
_atom_site_fract_y
_atom_site_fract_z
Mo1 Mo 0.96574(10) 0.61153(7) 0.44518(6)
Mo2 Mo 0.74246(11) 0.63236(8) 0.58660(6)
Mo3 Mo 1.05557(10) 0.59184(7) 0.66155(6)
Mo4 Mo 1.27872(10) 0.56983(8) 0.52298(6)
O1 O 1.1091(8) 0.6459(5) 0.5344(5)
O2 O 0.8446(8) 0.6895(5) 0.4742(5)
O3 O 1.0939(7) 0.4821(5) 0.4473(4)
O4 O 0.8424(8) 0.5138(6) 0.3857(4)
O5 O 1.0240(9) 0.6681(6) 0.3642(5)
O6 O 0.9150(9) 0.6830(5) 0.6387(5)
O7 O 0.7014(9) 0.5632(7) 0.6657(5)
O8 O 0.6513(8) 0.5559(7) 0.4945(5)
O9 O 0.6455(9) 0.7322(7) 0.5855(6)
O10 O 1.0004(9) 0.5240(6) 0.7379(5)
O11 O 1.1825(9) 0.6625(7) 0.7111(5)
O12 O 1.3869(7) 0.6144(6) 0.6058(5)
O13 O 1.3204(8) 0.6338(6) 0.4403(5)
Mo1A Mo 1.03426(10) 0.38847(7) 0.55482(6)
Mo2A Mo 1.25754(11) 0.36764(8) 0.41340(6)
Mo3A Mo 0.94443(10) 0.40816(7) 0.33845(6)
Mo4A Mo 0.72128(10) 0.43017(8) 0.47702(6)
O1A O 0.8909(8) 0.3541(5) 0.4656(5)
O2A O 1.1554(8) 0.3105(5) 0.5258(5)
O3A O 0.9061(7) 0.5179(5) 0.5527(4)
O4A O 1.1576(8) 0.4862(6) 0.6143(4)
O5A O 0.9760(9) 0.3319(6) 0.6358(5)
O6A O 1.0850(9) 0.3170(5) 0.3613(5)
O7A O 1.2986(9) 0.4368(7) 0.3343(5)
O8A O 1.3487(8) 0.4441(7) 0.5055(5)
O9A O 1.3545(9) 0.2678(7) 0.4145(6)
O10A O 0.9996(9) 0.4760(6) 0.2621(5)
O11A O 0.8175(9) 0.3375(7) 0.2889(5)
O12A O 0.6131(7) 0.3856(6) 0.3942(5)
O13A O 0.6796(8) 0.3662(6) 0.5597(5)
Ni1 Ni 0.5000 1.0000 0.5000
Ni2 Ni 1.0000 1.5000 1.0000
F1 F 1.1530(10) 0.9615(7) 0.7867(6)
F2 F 0.8056(14) 0.7453(8) 0.8318(8)
F3 F 0.6842(7) 0.6514(6) 0.1501(4)
F4 F 0.4709(12) 0.8826(8) -0.0358(6)
N1 N 0.9120(9) 1.0463(7) 0.6013(6)
N2 N 0.9285(10) 0.9497(6) 0.5804(6)
N3 N 0.7135(9) 0.9948(6) 0.5412(6)
N4 N 1.0535(10) 1.2341(7) 0.8612(6)
N5 N 1.0389(13) 1.1929(9) 0.9341(7)
N6 N 1.0103(9) 1.3580(7) 0.9403(6)
N7 N 0.5752(9) 0.7678(7) 0.3399(6)
N8 N 0.6267(11) 0.8419(8) 0.2983(6)
N9 N 0.5341(9) 0.9004(6) 0.4061(6)
N10 N 0.3816(9) 0.4979(6) 0.1511(6)
N11 N 0.4231(10) 0.4747(9) 0.0776(6)
N12 N 0.1962(9) 0.4808(7) 0.0617(6)
O14 O 0.8591(7) 1.1846(5) 0.7291(5)
H1 H 0.8762 1.2352 0.7056
O15 O 0.3361(8) 0.6524(6) 0.2686(5)
H2 H 0.3319 0.6187 0.3093
O16 O 0.4599(8) 0.8828(6) 0.5739(5)
H3 H 0.5011 0.8317 0.5606
H4 H 0.3760 0.8682 0.5651
O17 O 1.0785(8) 1.5705(7) 0.9043(5)
H5 H 1.1575 1.5943 0.9047
H6 H 1.0436 1.5661 0.8538
C1 C 1.0198(11) 1.0995(9) 0.6545(7)
H13 H 1.0403 1.1605 0.6284
H14 H 1.1012 1.0597 0.6624
C2 C 0.9751(11) 1.1229(8) 0.7399(7)
C3 C 1.0918(12) 1.1780(9) 0.7927(8)
H15 H 1.1602 1.1305 0.8142
H16 H 1.1326 1.2227 0.7576
C4 C 0.8058(12) 0.9236(8) 0.5435(8)
H17 H 0.7858 0.8609 0.5211
C5 C 0.7822(12) 1.0737(9) 0.5781(7)
H18 H 0.7464 1.1357 0.5860
C6 C 1.0136(15) 1.2697(10) 0.9791(8)
H19 H 0.9990 1.2639 1.0336
C7 C 1.0358(12) 1.3328(9) 0.8656(7)
H20 H 1.0408 1.3764 0.8227
C8 C 0.9306(15) 1.0256(10) 0.7751(8)
C9 C 1.0207(17) 0.9470(10) 0.7923(9)
C10 C 0.9842(18) 0.8535(12) 0.8117(10)
H21 H 1.0462 0.8024 0.8216
C11 C 0.847(2) 0.8414(12) 0.8154(11)
C12 C 0.7528(19) 0.9116(12) 0.8019(10)
H22 H 0.6628 0.8983 0.8064
C13 C 0.7939(17) 1.0071(11) 0.7805(9)
H23 H 0.7305 1.0572 0.7701
C14 C 0.5809(11) 0.6639(8) 0.3133(7)
H24 H 0.5744 0.6214 0.3597
H25 H 0.6673 0.6517 0.2950
C15 C 0.4640(10) 0.6383(8) 0.2419(6)
C16 C 0.4811(11) 0.5267(8) 0.2217(7)
H26 H 0.5717 0.5151 0.2095
H27 H 0.4684 0.4874 0.2691
C17 C 0.5994(13) 0.9207(9) 0.3405(7)
H28 H 0.6224 0.9844 0.3269
C18 C 0.5180(12) 0.8038(8) 0.4024(6)
H29 H 0.4739 0.7666 0.4377
C19 C 0.3078(13) 0.4649(11) 0.0277(8)
H30 H 0.3039 0.4479 -0.0277
C20 C 0.2454(12) 0.5000(9) 0.1400(7)
H31 H 0.1934 0.5130 0.1812
C21 C 0.4643(13) 0.7034(9) 0.1664(7)
C22 C 0.5723(13) 0.7090(10) 0.1235(8)
C23 C 0.5813(16) 0.7664(11) 0.0574(9)
H32 H 0.6580 0.7676 0.0315
C24 C 0.4677(18) 0.8235(12) 0.0309(9)
C25 C 0.3554(16) 0.8225(11) 0.0686(9)
H33 H 0.2815 0.8618 0.0492
C26 C 0.3521(15) 0.7617(10) 0.1368(8)
H34 H 0.2753 0.7599 0.1625
Ni2_2 Ni 0.0000 0.5000 0.0000
F1A F -0.1530(10) 1.0385(7) 0.2133(6)
F2A F 0.1944(14) 1.2547(8) 0.1682(8)
F3A F 0.3158(7) 1.3486(6) 0.8499(4)
F4A F 0.5291(12) 1.1174(8) 1.0358(6)
N1A N 0.0880(9) 0.9537(7) 0.3987(6)
N2A N 0.0715(10) 1.0503(6) 0.4196(6)
N3A N 0.2865(9) 1.0052(6) 0.4588(6)
N4A N -0.0535(10) 0.7659(7) 0.1388(6)
N5A N -0.0389(13) 0.8071(9) 0.0659(7)
N6A N -0.0103(9) 0.6420(7) 0.0597(6)
N6A_2 N 0.9897(9) 1.6420(7) 1.0597(6)
N7A N 0.4248(9) 1.2322(7) 0.6601(6)
N8A N 0.3733(11) 1.1581(8) 0.7017(6)
N9A N 0.4659(9) 1.0996(6) 0.5939(6)
N10A N 0.6184(9) 1.5021(6) 0.8489(6)
N11A N 0.5769(10) 1.5253(9) 0.9224(6)
N12A N 0.8038(9) 1.5192(7) 0.9383(6)
N12_2 N 1.1962(9) 1.4808(7) 1.0617(6)
O14A O 0.1409(7) 0.8154(5) 0.2709(5)
H1A H 0.1238 0.7648 0.2944
O15A O 0.6639(8) 1.3476(6) 0.7314(5)
H2A H 0.6681 1.3813 0.6907
O16A O 0.5401(8) 1.1172(6) 0.4261(5)
H3A H 0.4989 1.1683 0.4394
H4A H 0.6240 1.1318 0.4349
O17A O 0.9215(8) 1.4295(7) 1.0957(5)
H5A H 0.8425 1.4057 1.0953
H6A H 0.9564 1.4339 1.1462
C1A C -0.0198(11) 0.9005(9) 0.3455(7)
H13A H -0.0403 0.8395 0.3716
H14A H -0.1012 0.9403 0.3376
C2A C 0.0249(11) 0.8771(8) 0.2601(7)
C3A C -0.0918(12) 0.8220(9) 0.2073(8)
H15A H -0.1602 0.8695 0.1858
H16A H -0.1326 0.7773 0.2424
C4A C 0.1942(12) 1.0764(8) 0.4565(8)
H17A H 0.2142 1.1391 0.4789
C5A C 0.2178(12) 0.9263(9) 0.4219(7)
H18A H 0.2536 0.8643 0.4140
C6A C -0.0136(15) 0.7303(10) 0.0209(8)
H19A H 0.0010 0.7361 -0.0336
C7A C -0.0358(12) 0.6672(9) 0.1344(7)
H20A H -0.0408 0.6236 0.1773
C8A C 0.0694(15) 0.9744(10) 0.2249(8)
C9A C -0.0207(17) 1.0530(10) 0.2077(9)
C10A C 0.0158(18) 1.1465(12) 0.1883(10)
H21A H -0.0462 1.1976 0.1784
C11A C 0.153(2) 1.1586(12) 0.1846(11)
C12A C 0.2472(19) 1.0884(12) 0.1981(10)
H22A H 0.3372 1.1017 0.1936
C13A C 0.2061(17) 0.9929(11) 0.2195(9)
H23A H 0.2695 0.9428 0.2299
C14A C 0.4191(11) 1.3361(8) 0.6867(7)
H24A H 0.4256 1.3786 0.6403
H25A H 0.3327 1.3483 0.7050
C15A C 0.5360(10) 1.3617(8) 0.7581(6)
C16A C 0.5189(11) 1.4733(8) 0.7783(7)
H26A H 0.4283 1.4849 0.7905
H27A H 0.5316 1.5126 0.7309
C17A C 0.4006(13) 1.0793(9) 0.6595(7)
H28A H 0.3776 1.0156 0.6731
C18A C 0.4820(12) 1.1962(8) 0.5976(6)
H29A H 0.5261 1.2334 0.5623
C19A C 0.6922(13) 1.5351(11) 0.9723(8)
H30A H 0.6961 1.5521 1.0277
C20A C 0.7546(12) 1.5000(9) 0.8600(7)
H31A H 0.8066 1.4870 0.8188
C21A C 0.5357(13) 1.2966(9) 0.8336(7)
C22A C 0.4277(13) 1.2910(10) 0.8765(8)
C23A C 0.4187(16) 1.2336(11) 0.9426(9)
H32A H 0.3420 1.2324 0.9685
C24A C 0.5323(18) 1.1765(12) 0.9691(9)
C25A C 0.6446(16) 1.1775(11) 0.9314(9)
H33A H 0.7185 1.1382 0.9508
C26A C 0.6479(15) 1.2383(10) 0.8632(8)
H34A H 0.7247 1.2401 0.8375
O18 O 0.2039(11) 0.8550(7) 0.6135(8)
H7 H 0.1299 0.8863 0.6116
H8 H 0.1805 0.7975 0.5953
O19 O 0.3265(11) 0.6476(8) 0.8945(7)
H9 H 0.2584 0.6754 0.9100
H10 H 0.3484 0.6844 0.8569
O20 O 0.4732(18) 0.7312(13) 0.7640(11)
H11 H 0.5509 0.7344 0.7934
H12 H 0.4824 0.6985 0.7206
loop_
_geom_bond_atom_site_label_1
_geom_bond_atom_site_label_2
_geom_bond_site_symmetry_1
_geom_bond_site_symmetry_2
Mo1 O1 1_555 1_555
Mo2 O2 1_555 1_555
Mo3 O1 1_555 1_555
Mo4 O1 1_555 1_555
Ni1 N3 1_555 1_555
Ni2 N6 1_555 1_555
F1 C9 1_555 1_555
F2 C11 1_555 1_555
F3 C22 1_555 1_555
F4 C24 1_555 1_555
N1 N2 1_555 1_555
N2 C4 1_555 1_555
N3 C4 1_555 1_555
N4 N5 1_555 1_555
N5 C6 1_555 1_555
N6 C6 1_555 1_555
N7 N8 1_555 1_555
N8 C17 1_555 1_555
N9 Ni1 1_555 1_555
N10 N11 1_555 1_555
N11 C19 1_555 1_555
N12 C19 1_555 1_555
O2 Mo1 1_555 1_555
O3 Mo1 1_555 1_555
O4 Mo1 1_555 1_555
O5 Mo1 1_555 1_555
O6 Mo2 1_555 1_555
O7 Mo2 1_555 1_555
O8 Mo2 1_555 1_555
O9 Mo2 1_555 1_555
O10 Mo3 1_555 1_555
O11 Mo3 1_555 1_555
O12 Mo4 1_555 1_555
O13 Mo4 1_555 1_555
O14 H1 1_555 1_555
O15 H2 1_555 1_555
O16 Ni1 1_555 1_555
H3 O16 1_555 1_555
H4 O16 1_555 1_555
O17 Ni2 1_555 1_555
H5 O17 1_555 1_555
H6 O17 1_555 1_555
O18 H7 1_555 1_555
H8 O18 1_555 1_555
O19 H9 1_555 1_555
H10 O19 1_555 1_555
O20 H11 1_555 1_555
H12 O20 1_555 1_555
C1 N1 1_555 1_555
H13 C1 1_555 1_555
H14 C1 1_555 1_555
C2 O14 1_555 1_555
C3 N4 1_555 1_555
H15 C3 1_555 1_555
H16 C3 1_555 1_555
C4 H17 1_555 1_555
C5 N1 1_555 1_555
H18 C5 1_555 1_555
C6 H19 1_555 1_555
C7 N4 1_555 1_555
H20 C7 1_555 1_555
C8 C2 1_555 1_555
C9 C8 1_555 1_555
C10 C9 1_555 1_555
H21 C10 1_555 1_555
C11 C10 1_555 1_555
C12 C11 1_555 1_555
H22 C12 1_555 1_555
C13 C8 1_555 1_555
H23 C13 1_555 1_555
C14 N7 1_555 1_555
H24 C14 1_555 1_555
H25 C14 1_555 1_555
C15 O15 1_555 1_555
C16 N10 1_555 1_555
H26 C16 1_555 1_555
H27 C16 1_555 1_555
C17 N9 1_555 1_555
H28 C17 1_555 1_555
C18 N7 1_555 1_555
H29 C18 1_555 1_555
C19 H30 1_555 1_555
C20 N10 1_555 1_555
H31 C20 1_555 1_555
C21 C15 1_555 1_555
C22 C21 1_555 1_555
C23 C22 1_555 1_555
H32 C23 1_555 1_555
C24 C23 1_555 1_555
C25 C24 1_555 1_555
H33 C25 1_555 1_555
C26 C21 1_555 1_555
H34 C26 1_555 1_555
Mo1A O3 1_555 1_555
Mo2A O3 1_555 1_555
Mo3A O3 1_555 1_555
Mo4A O4 1_555 1_555
Ni2_2 N12 1_555 1_555
F1A C9A 1_555 1_555
F2A C11A 1_555 1_555
F3A C22A 1_555 1_555
F4A C24A 1_555 1_555
N1A N2A 1_555 1_555
N2A C4A 1_555 1_555
N3A Ni1 1_555 1_555
N4A N5A 1_555 1_555
N5A C6A 1_555 1_555
N6A Ni2_2 1_555 1_555
N6A_2 Ni2 1_555 1_555
N7A N8A 1_555 1_555
N8A C17A 1_555 1_555
N9A Ni1 1_555 1_555
N10A N11A 1_555 1_555
N11A C19A 1_555 1_555
N12A Ni2 1_555 1_555
N12_2 Ni2 1_555 1_555
O1A Mo1A 1_555 1_555
O2A Mo1A 1_555 1_555
O3A Mo1 1_555 1_555
O4A Mo3 1_555 1_555
O5A Mo1A 1_555 1_555
O6A Mo2A 1_555 1_555
O7A Mo2A 1_555 1_555
O8A Mo4 1_555 1_555
O9A Mo2A 1_555 1_555
O10A Mo3A 1_555 1_555
O11A Mo3A 1_555 1_555
O12A Mo4A 1_555 1_555
O13A Mo4A 1_555 1_555
O14A H1A 1_555 1_555
O15A H2A 1_555 1_555
O16A Ni1 1_555 1_555
H3A O16A 1_555 1_555
H4A O16A 1_555 1_555
O17A Ni2 1_555 1_555
H5A O17A 1_555 1_555
H6A O17A 1_555 1_555
C1A N1A 1_555 1_555
H13A C1A 1_555 1_555
H14A C1A 1_555 1_555
C2A O14A 1_555 1_555
C3A N4A 1_555 1_555
H15A C3A 1_555 1_555
H16A C3A 1_555 1_555
C4A N3A 1_555 1_555
H17A C4A 1_555 1_555
C5A N1A 1_555 1_555
H18A C5A 1_555 1_555
C6A N6A 1_555 1_555
H19A C6A 1_555 1_555
C7A N4A 1_555 1_555
H20A C7A 1_555 1_555
C8A C2A 1_555 1_555
C9A C8A 1_555 1_555
C10A C9A 1_555 1_555
H21A C10A 1_555 1_555
C11A C10A 1_555 1_555
C12A C11A 1_555 1_555
H22A C12A 1_555 1_555
C13A C8A 1_555 1_555
H23A C13A 1_555 1_555
C14A N7A 1_555 1_555
H24A C14A 1_555 1_555
H25A C14A 1_555 1_555
C15A O15A 1_555 1_555
C16A N10A 1_555 1_555
H26A C16A 1_555 1_555
H27A C16A 1_555 1_555
C17A N9A 1_555 1_555
H28A C17A 1_555 1_555
C18A N7A 1_555 1_555
H29A C18A 1_555 1_555
C19A N12A 1_555 1_555
H30A C19A 1_555 1_555
C20A N10A 1_555 1_555
H31A C20A 1_555 1_555
C21A C15A 1_555 1_555
C22A C21A 1_555 1_555
C23A C22A 1_555 1_555
H32A C23A 1_555 1_555
C24A C23A 1_555 1_555
C25A C24A 1_555 1_555
H33A C25A 1_555 1_555
C26A C21A 1_555 1_555
H34A C26A 1_555 1_555
Mo2 O3A 1_555 1_555
Mo3 O6 1_555 1_555
Mo3 O3A 1_555 1_555
Mo4 O3 1_555 1_555
Mo4 O4A 1_555 1_555
N3 C5 1_555 1_555
N6 C7 1_555 1_555
N9 C18 1_555 1_555
N12 C20 1_555 1_555
O4 Mo3A 1_555 1_555
O8 Mo4A 1_555 1_555
C1 C2 1_555 1_555
C2 C3 1_555 1_555
C12 C13 1_555 1_555
C14 C15 1_555 1_555
C15 C16 1_555 1_555
C25 C26 1_555 1_555
Mo1A O3A 1_555 1_555
Mo1A O4A 1_555 1_555
Mo2A O2A 1_555 1_555
Mo2A O8A 1_555 1_555
Mo3A O1A 1_555 1_555
Mo3A O6A 1_555 1_555
Mo4A O1A 1_555 1_555
Mo4A O3A 1_555 1_555
N3A C5A 1_555 1_555
N6A C7A 1_555 1_555
N9A C18A 1_555 1_555
N12A C20A 1_555 1_555
C1A C2A 1_555 1_555
C2A C3A 1_555 1_555
C12A C13A 1_555 1_555
C14A C15A 1_555 1_555
C15A C16A 1_555 1_555
C25A C26A 1_555 1_555

#END
