
#######################################################################
#
#                 Cambridge Crystallographic Data Centre
#                                CCDC 
#
#######################################################################
#
# If this CIF has been generated from an entry in the Cambridge 
# Structural Database, then it will include bibliographic, chemical, 
# crystal, experimental, refinement or atomic coordinate data resulting 
# from the CCDC's data processing and validation procedures.
#
#######################################################################

data_DICFIG
_symmetry_cell_setting           monoclinic
_symmetry_space_group_name_H-M   'P 21/c'
_symmetry_Int_Tables_number      14
_space_group_name_Hall           '-P 2ybc'
loop_
_symmetry_equiv_pos_site_id
_symmetry_equiv_pos_as_xyz
1 x,y,z
2 -x,1/2+y,1/2-z
3 -x,-y,-z
4 x,1/2-y,1/2+z
_cell_length_a                   10.105(2)
_cell_length_b                   13.664(3)
_cell_length_c                   17.180(3)
_cell_angle_alpha                90
_cell_angle_beta                 93.22(3)
_cell_angle_gamma                90
_cell_volume                     2368.38
loop_
_atom_site_label
_atom_site_type_symbol
_atom_site_fract_x
_atom_site_fract_y
_atom_site_fract_z
Cd1 Cd 0.01558(2) 0.191200(18) 0.226518(14)
N1 N 0.0262(3) 0.1669(2) 0.35825(17)
N2 N -0.0052(4) 0.1979(2) 0.48271(19)
H1 H -0.0362 0.2249 0.5230
N3 N -0.0716(3) 0.3785(2) 0.34057(18)
N4 N -0.0051(3) 0.3606(3) 0.27543(18)
N5 N -0.0165(3) 0.5218(2) 0.2984(2)
O1 O 0.1611(3) 0.2163(3) 0.13573(18)
O2 O 0.2817(3) 0.1924(3) 0.24200(18)
O3 O 0.3525(3) 0.2551(3) -0.11397(16)
H2 H 0.3494 0.2670 -0.1608
O4 O 0.5636(3) 0.2994(3) -0.12105(19)
O5 O 0.7818(3) 0.1964(2) 0.22451(17)
O6 O 0.8654(3) 0.2246(3) 0.11295(17)
C1 C 0.1065(4) 0.1039(3) 0.4048(2)
C2 C 0.1987(5) 0.0346(3) 0.3839(3)
H3 H 0.2159 0.0231 0.3321
C3 C 0.2634(6) -0.0161(4) 0.4440(3)
H4 H 0.3242 -0.0642 0.4320
C4 C 0.2413(6) 0.0018(4) 0.5209(3)
H5 H 0.2876 -0.0344 0.5593
C5 C 0.1526(6) 0.0720(4) 0.5429(3)
H6 H 0.1387 0.0846 0.5950
C6 C 0.0852(4) 0.1227(3) 0.4829(2)
C7 C -0.0364(4) 0.2214(3) 0.4076(2)
C8 C -0.1334(4) 0.3000(3) 0.3841(3)
H7 H -0.2056 0.2717 0.3519
H8 H -0.1702 0.3272 0.4303
C9 C -0.0763(4) 0.4744(3) 0.3526(2)
H9 H -0.1166 0.5039 0.3939
C10 C 0.0255(5) 0.4495(3) 0.2529(3)
H10 H 0.0726 0.4614 0.2089
C11 C 0.2705(3) 0.2104(3) 0.1720(2)
C12 C 0.4736(4) 0.2710(3) -0.0840(2)
C13 C 0.7688(4) 0.2154(3) 0.1540(2)
C14 C 0.3932(4) 0.2208(3) 0.1252(2)
C15 C 0.3763(4) 0.2377(3) 0.0451(2)
H11 H 0.2916 0.2406 0.0210
C16 C 0.4867(4) 0.2501(3) 0.0015(2)
C17 C 0.6129(4) 0.2446(3) 0.0375(2)
H12 H 0.6866 0.2540 0.0082
C18 C 0.6302(3) 0.2251(3) 0.1167(2)
C19 C 0.5198(4) 0.2145(3) 0.1611(2)
H13 H 0.5307 0.2033 0.2145
Cd1_2 Cd 1.01558(2) 0.191200(18) 0.226518(14)
Cd1A Cd -0.01558(2) 0.691200(18) 0.273482(14)
N5A N 0.0165(3) 0.0218(2) 0.2016(2)
O5_2 O -0.2182(3) 0.1964(2) 0.22451(17)
O6_2 O -0.1346(3) 0.2246(3) 0.11295(17)
O7 O -0.180(2) 0.5024(17) 0.5346(9)
H14 H -0.2409 0.4938 0.4993
H15 H -0.1730 0.4469 0.5567
O8 O -0.6446(10) 0.5318(7) 0.5790(8)
N6 N -0.4711(11) 0.5359(7) 0.6865(9)
C20 C -0.522(2) 0.5296(10) 0.6060(12)
H16 H -0.4593 0.5232 0.5690
C21 C -0.575(2) 0.5479(16) 0.7358(15)
H17 H -0.6556 0.5618 0.7052
H18 H -0.5556 0.6013 0.7709
H19 H -0.5864 0.4890 0.7651
C22 C -0.3437(14) 0.5117(13) 0.7350(19)
H20 H -0.3545 0.5285 0.7886
H21 H -0.2714 0.5485 0.7159
H22 H -0.3252 0.4430 0.7311
loop_
_geom_bond_atom_site_label_1
_geom_bond_atom_site_label_2
_geom_bond_site_symmetry_1
_geom_bond_site_symmetry_2
Cd1 N1 1_555 1_555
N1 C1 1_555 1_555
N2 H1 1_555 1_555
N3 N4 1_555 1_555
N4 Cd1 1_555 1_555
N5 C9 1_555 1_555
O1 Cd1 1_555 1_555
O2 Cd1 1_555 1_555
O3 H2 1_555 1_555
O4 C12 1_555 1_555
O5 C13 1_555 1_555
O6 C13 1_555 1_555
C1 C2 1_555 1_555
C2 H3 1_555 1_555
C3 C2 1_555 1_555
H4 C3 1_555 1_555
C4 C3 1_555 1_555
H5 C4 1_555 1_555
C5 C4 1_555 1_555
H6 C5 1_555 1_555
C6 N2 1_555 1_555
C7 N1 1_555 1_555
C8 N3 1_555 1_555
H7 C8 1_555 1_555
H8 C8 1_555 1_555
C9 N3 1_555 1_555
H9 C9 1_555 1_555
C10 N4 1_555 1_555
H10 C10 1_555 1_555
C11 O1 1_555 1_555
C12 O3 1_555 1_555
C13 C18 1_555 1_555
C14 C11 1_555 1_555
C15 C14 1_555 1_555
H11 C15 1_555 1_555
C16 C12 1_555 1_555
C17 C16 1_555 1_555
H12 C17 1_555 1_555
C18 C17 1_555 1_555
C19 C14 1_555 1_555
H13 C19 1_555 1_555
O7 H14 1_555 1_555
H15 O7 1_555 1_555
O8 C20 1_555 1_555
N6 C20 1_555 1_555
C20 H16 1_555 1_555
C21 N6 1_555 1_555
H17 C21 1_555 1_555
H18 C21 1_555 1_555
H19 C21 1_555 1_555
C22 N6 1_555 1_555
H20 C22 1_555 1_555
H21 C22 1_555 1_555
H22 C22 1_555 1_555
Cd1_2 O5 1_555 1_555
Cd1A N5 1_555 1_555
N5A Cd1 1_555 1_555
O5_2 Cd1 1_555 1_555
O6_2 Cd1 1_555 1_555
N2 C7 1_555 1_555
N5 C10 1_555 1_555
O2 C11 1_555 1_555
O6 Cd1_2 1_555 1_555
C1 C6 1_555 1_555
C5 C6 1_555 1_555
C7 C8 1_555 1_555
C15 C16 1_555 1_555
C18 C19 1_555 1_555

#END
