
#######################################################################
#
#                 Cambridge Crystallographic Data Centre
#                                CCDC 
#
#######################################################################
#
# If this CIF has been generated from an entry in the Cambridge 
# Structural Database, then it will include bibliographic, chemical, 
# crystal, experimental, refinement or atomic coordinate data resulting 
# from the CCDC's data processing and validation procedures.
#
#######################################################################

data_DIDBEZ
_symmetry_cell_setting           tetragonal
_symmetry_space_group_name_H-M   'P 4 21 2'
_symmetry_Int_Tables_number      90
_space_group_name_Hall           'P 4ab 2ab'
loop_
_symmetry_equiv_pos_site_id
_symmetry_equiv_pos_as_xyz
1 x,y,z
2 -x,-y,z
3 1/2-y,1/2+x,z
4 1/2+y,1/2-x,z
5 1/2-x,1/2+y,-z
6 1/2+x,1/2-y,-z
7 y,x,-z
8 -y,-x,-z
_cell_length_a                   22.6140(14)
_cell_length_b                   22.6140(14)
_cell_length_c                   12.7315(16)
_cell_angle_alpha                90
_cell_angle_beta                 90
_cell_angle_gamma                90
_cell_volume                     6510.8
loop_
_atom_site_label
_atom_site_type_symbol
_atom_site_fract_x
_atom_site_fract_y
_atom_site_fract_z
Co1 Co 0.26173(5) 0.74376(5) 0.74751(10)
C1 C 0.6425(5) 0.7045(5) 0.3041(9)
H1 H 0.6470 0.6859 0.2376
C2 C 0.5929(5) 0.6944(5) 0.3609(9)
H2 H 0.5639 0.6678 0.3346
C3 C 0.5835(5) 0.7219(6) 0.4563(8)
C4 C 0.6283(4) 0.7564(5) 0.4940(9)
H3 H 0.6250 0.7744 0.5612
C5 C 0.6786(5) 0.7650(5) 0.4333(9)
H4 H 0.7091 0.7896 0.4601
C6 C 0.5268(4) 0.7151(5) 0.5167(9)
C7 C 0.4747(5) 0.7043(6) 0.4636(8)
H5 H 0.4753 0.6970 0.3902
C8 C 0.4214(4) 0.7041(5) 0.5177(9)
H6 H 0.3855 0.6979 0.4804
C9 C 0.4199(5) 0.7127(5) 0.6223(8)
C10 C 0.4733(5) 0.7215(6) 0.6782(9)
H7 H 0.4733 0.7271 0.7521
C11 C 0.5247(5) 0.7217(6) 0.6228(9)
H8 H 0.5608 0.7267 0.6599
C12 C 0.3615(5) 0.7186(5) 0.6801(9)
C13 C 0.2626(5) 1.1134(4) 1.2348(8)
H9 H 0.2611 1.1139 1.3094
C14 C 0.2663(6) 1.0597(5) 1.1829(9)
H10 H 0.2645 1.0241 1.2224
C15 C 0.2725(5) 1.0568(4) 1.0773(8)
C16 C 0.2734(5) 1.1114(4) 1.0219(8)
H11 H 0.2780 1.1124 0.9478
C17 C 0.2674(5) 1.1632(4) 1.0793(9)
H12 H 0.2680 1.1996 1.0422
C18 C 0.2747(5) 0.9999(4) 1.0174(8)
C19 C 0.2446(5) 0.9509(5) 1.0549(8)
H13 H 0.2241 0.9529 1.1199
C20 C 0.2446(5) 0.8999(4) 0.9977(9)
H14 H 0.2236 0.8665 1.0231
C21 C 0.2746(5) 0.8960(5) 0.9038(8)
C22 C 0.3056(5) 0.9438(5) 0.8675(9)
H15 H 0.3276 0.9414 0.8041
C23 C 0.3043(6) 0.9956(5) 0.9244(9)
H16 H 0.3247 1.0292 0.8982
C24 C 0.2715(5) 0.8415(4) 0.8388(8)
O1 O 0.3143(3) 0.7181(3) 0.6259(5)
O2 O 0.3599(3) 0.7244(4) 0.7782(6)
O3 O 0.2897(3) 0.8401(3) 0.7466(6)
O4 O 0.2455(3) 0.7956(3) 0.8784(5)
N1 N 0.6859(4) 0.7407(4) 0.3403(6)
N2 N 0.2610(4) 1.1649(4) 1.1818(7)
Co1D Co 0.23827(5) 1.24376(5) 1.25249(10)
Co1E Co 0.76173(5) 0.75624(5) 0.25249(10)
N1E N 0.1859(4) 0.7593(4) 0.6597(6)
N2D N 0.2390(4) 0.6649(4) 0.8182(7)
O5 O 0.4839(6) 0.6113(6) 0.2287(12)
C25 C 0.469(2) 0.567(2) 0.312(4)
O6 O 0.5867(8) 0.5967(8) 0.1120(12)
C26 C 0.6139(10) 0.5468(10) 0.1537(18)
O7 O 0.377(3) 0.926(3) 1.204(4)
C27 C 0.376(3) 0.943(3) 1.311(4)
O8 O 0.642(8) 0.931(8) 0.576(9)
C28 C 0.6200(19) 0.9078(18) 0.671(3)
loop_
_geom_bond_atom_site_label_1
_geom_bond_atom_site_label_2
_geom_bond_site_symmetry_1
_geom_bond_site_symmetry_2
Co1 O1 1_555 1_555
C1 H1 1_555 1_555
C2 C1 1_555 1_555
H2 C2 1_555 1_555
C3 C2 1_555 1_555
C4 C3 1_555 1_555
H3 C4 1_555 1_555
C5 C4 1_555 1_555
H4 C5 1_555 1_555
C6 C3 1_555 1_555
C7 C6 1_555 1_555
H5 C7 1_555 1_555
C8 C7 1_555 1_555
H6 C8 1_555 1_555
C9 C8 1_555 1_555
C10 C9 1_555 1_555
H7 C10 1_555 1_555
C11 C6 1_555 1_555
H8 C11 1_555 1_555
C12 C9 1_555 1_555
C13 H9 1_555 1_555
C14 C13 1_555 1_555
H10 C14 1_555 1_555
C15 C14 1_555 1_555
C16 C15 1_555 1_555
H11 C16 1_555 1_555
C17 C16 1_555 1_555
H12 C17 1_555 1_555
C18 C15 1_555 1_555
C19 C18 1_555 1_555
H13 C19 1_555 1_555
C20 C19 1_555 1_555
H14 C20 1_555 1_555
C21 C20 1_555 1_555
C22 C21 1_555 1_555
H15 C22 1_555 1_555
C23 C18 1_555 1_555
H16 C23 1_555 1_555
C24 C21 1_555 1_555
O1 C12 1_555 1_555
O2 Co1 1_555 1_555
O3 Co1 1_555 1_555
O4 Co1 1_555 1_555
N1 C1 1_555 1_555
N2 C13 1_555 1_555
O5 C25 1_555 1_555
O6 C26 1_555 1_555
O7 C27 1_555 1_555
O8 C28 1_555 1_555
Co1D N2 1_555 1_555
Co1E N1 1_555 1_555
N1E Co1 1_555 1_555
N2D Co1 1_555 1_555
C5 N1 1_555 1_555
C10 C11 1_555 1_555
C12 O2 1_555 1_555
C17 N2 1_555 1_555
C22 C23 1_555 1_555
C24 O3 1_555 1_555
C24 O4 1_555 1_555

#END
