
#######################################################################
#
#                 Cambridge Crystallographic Data Centre
#                                CCDC 
#
#######################################################################
#
# If this CIF has been generated from an entry in the Cambridge 
# Structural Database, then it will include bibliographic, chemical, 
# crystal, experimental, refinement or atomic coordinate data resulting 
# from the CCDC's data processing and validation procedures.
#
#######################################################################

data_DIDFIH
_symmetry_cell_setting           triclinic
_symmetry_space_group_name_H-M   'P -1'
_symmetry_Int_Tables_number      2
_space_group_name_Hall           '-P 1'
loop_
_symmetry_equiv_pos_site_id
_symmetry_equiv_pos_as_xyz
1 x,y,z
2 -x,-y,-z
_cell_length_a                   7.3150(10)
_cell_length_b                   10.3598(14)
_cell_length_c                   10.8784(15)
_cell_angle_alpha                82.2740(10)
_cell_angle_beta                 72.9730(10)
_cell_angle_gamma                80.236(2)
_cell_volume                     773.683
loop_
_atom_site_label
_atom_site_type_symbol
_atom_site_fract_x
_atom_site_fract_y
_atom_site_fract_z
O1 O 0.6482(2) 0.45603(18) 1.30039(17)
O2 O 0.5098(3) 0.50775(18) 1.14280(16)
C1 C 0.5110(3) 0.4551(2) 1.2530(2)
Cd1 Cd 0.20870(2) 0.400140(15) 0.884157(15)
N1 N 0.0132(3) 0.24247(17) 0.88663(17)
N2 N 0.3979(3) 0.22369(18) 0.75716(17)
S1 S 0.07343(9) 0.32898(6) 1.53511(5)
C2 C 0.1898(3) 0.3689(2) 1.14904(19)
C3 C 0.1823(3) 0.36915(19) 1.28858(19)
C4 C 0.3361(3) 0.3966(2) 1.3344(2)
C5 C 0.2947(3) 0.3784(2) 1.4657(2)
H1 H 0.3775 0.3915 1.5121
C6 C 0.0309(3) 0.3332(2) 1.3873(2)
H2 H -0.0822 0.3134 1.3760
C7 C -0.1744(3) 0.2513(2) 0.9484(2)
H3 H -0.2357 0.3289 0.9850
C8 C -0.2829(3) 0.1493(2) 0.9607(2)
H4 H -0.4132 0.1588 1.0058
C9 C -0.1956(4) 0.0352(2) 0.9058(2)
H5 H -0.2656 -0.0340 0.9139
C10 C 0.1014(3) 0.1293(2) 0.8314(2)
C11 C 0.0019(3) 0.0234(2) 0.8366(2)
C12 C 0.1016(4) -0.0926(2) 0.7753(2)
H6 H 0.0352 -0.1630 0.7804
C13 C 0.2908(4) -0.1010(2) 0.7101(2)
H7 H 0.3525 -0.1767 0.6701
C14 C 0.3974(3) 0.0048(2) 0.7018(2)
C15 C 0.3045(3) 0.1201(2) 0.7620(2)
C16 C 0.5831(3) 0.2165(2) 0.6910(2)
H8 H 0.6474 0.2878 0.6867
C17 C 0.6855(4) 0.1064(3) 0.6275(2)
H9 H 0.8147 0.1054 0.5817
C18 C 0.5941(4) 0.0008(3) 0.6337(2)
H10 H 0.6610 -0.0736 0.5931
O3 O 0.2972(2) 0.28067(16) 1.08624(16)
O4 O 0.0816(2) 0.45546(17) 1.09955(15)
O1A O 0.3518(2) 0.54397(18) 0.69961(17)
O2A O 0.4902(3) 0.49225(18) 0.85720(16)
Cd1A Cd -0.20870(2) 0.599860(15) 1.115843(15)
Cd1A_2 Cd 0.79130(2) 0.599860(15) 1.115843(15)
O4A O -0.0816(2) 0.54454(17) 0.90045(15)
loop_
_geom_bond_atom_site_label_1
_geom_bond_atom_site_label_2
_geom_bond_site_symmetry_1
_geom_bond_site_symmetry_2
O1 C1 1_555 1_555
O2 C1 1_555 1_555
C1 C4 1_555 1_555
Cd1 N1 1_555 1_555
N1 C7 1_555 1_555
N2 Cd1 1_555 1_555
S1 C5 1_555 1_555
C2 C3 1_555 1_555
C3 C4 1_555 1_555
C4 C5 1_555 1_555
C5 H1 1_555 1_555
C6 S1 1_555 1_555
H2 C6 1_555 1_555
C7 H3 1_555 1_555
C8 C7 1_555 1_555
H4 C8 1_555 1_555
C9 C8 1_555 1_555
H5 C9 1_555 1_555
C10 N1 1_555 1_555
C11 C9 1_555 1_555
C12 C11 1_555 1_555
H6 C12 1_555 1_555
C13 C12 1_555 1_555
H7 C13 1_555 1_555
C14 C13 1_555 1_555
C15 N2 1_555 1_555
C16 N2 1_555 1_555
H8 C16 1_555 1_555
C17 C16 1_555 1_555
H9 C17 1_555 1_555
C18 C14 1_555 1_555
H10 C18 1_555 1_555
O3 Cd1 1_555 1_555
O4 Cd1 1_555 1_555
O1A Cd1 1_555 1_555
O2A Cd1 1_555 1_555
Cd1A O4 1_555 1_555
Cd1A_2 O1 1_555 1_555
O4A Cd1 1_555 1_555
O2 Cd1A_2 1_555 1_555
C2 O3 1_555 1_555
C2 O4 1_555 1_555
C3 C6 1_555 1_555
C10 C11 1_555 1_555
C10 C15 1_555 1_555
C14 C15 1_555 1_555
C17 C18 1_555 1_555
Cd1A O4A 1_555 1_555

#END
