
#######################################################################
#
#                 Cambridge Crystallographic Data Centre
#                                CCDC 
#
#######################################################################
#
# If this CIF has been generated from an entry in the Cambridge 
# Structural Database, then it will include bibliographic, chemical, 
# crystal, experimental, refinement or atomic coordinate data resulting 
# from the CCDC's data processing and validation procedures.
#
#######################################################################

data_DIDHOP
_symmetry_cell_setting           monoclinic
_symmetry_space_group_name_H-M   'P 21/c'
_symmetry_Int_Tables_number      14
_space_group_name_Hall           '-P 2ybc'
loop_
_symmetry_equiv_pos_site_id
_symmetry_equiv_pos_as_xyz
1 x,y,z
2 -x,1/2+y,1/2-z
3 -x,-y,-z
4 x,1/2-y,1/2+z
_cell_length_a                   8.7430(6)
_cell_length_b                   11.8990(8)
_cell_length_c                   16.6418(11)
_cell_angle_alpha                90
_cell_angle_beta                 101.8300(10)
_cell_angle_gamma                90
_cell_volume                     1694.52
loop_
_atom_site_label
_atom_site_type_symbol
_atom_site_fract_x
_atom_site_fract_y
_atom_site_fract_z
Ni1 Ni 0.27997(3) 0.05520(2) 0.854811(15)
C1 C 0.1215(2) 0.05304(19) 0.33143(13)
C2 C 0.1906(2) 0.07041(17) 0.42232(12)
C3 C 0.0923(3) 0.11347(19) 0.47063(13)
H1 H -0.0079 0.1365 0.4459
C4 C 0.1409(3) 0.12272(19) 0.55494(14)
H2 H 0.0735 0.1533 0.5856
C5 C 0.2881(2) 0.08729(18) 0.59449(12)
C6 C 0.3888(2) 0.04283(17) 0.54685(12)
C7 C 0.3419(2) 0.03788(17) 0.46075(12)
C8 C 0.3367(2) 0.10610(19) 0.68625(13)
C9 C 0.5399(2) -0.00718(17) 0.58830(12)
O1 O 0.56208(17) -0.03122(14) 0.66077(9)
C10 C 0.2020(3) 0.0849(2) 1.02935(14)
H3 H 0.1026 0.1081 1.0034
C11 C 0.2409(3) 0.0830(2) 1.11369(15)
H4 H 0.1685 0.1031 1.1450
C12 C 0.3900(3) 0.0505(2) 1.15056(14)
H5 H 0.4193 0.0510 1.2075
C13 C 0.4442(2) 0.01994(17) 1.02468(12)
N1 N 0.30489(19) 0.05375(15) 0.98397(10)
N2 N 0.4938(2) 0.01825(15) 1.10611(10)
O2 O 0.06219(19) 0.13641(13) 0.29070(9)
O3 O 0.11845(18) -0.04561(13) 0.30480(10)
O4 O 0.4246(2) 0.18700(14) 0.70938(9)
O5 O 0.27604(17) 0.04142(13) 0.73127(8)
O6 O 0.06695(17) 0.13650(13) 0.83277(9)
H6 H 0.0743 0.2065 0.8241
H7 H 0.0048 0.1056 0.7929
O7 O 0.37832(18) 0.21143(13) 0.86331(9)
H8 H 0.4065 0.2143 0.8174
H9 H 0.4577 0.2199 0.9020
O8 O 0.15395(17) -0.09106(12) 0.84699(9)
H10 H 0.0823 -0.0995 0.8044
H11 H 0.2100 -0.1500 0.8541
C1B C 0.8785(2) -0.05304(19) 0.66857(13)
C2B C 0.8094(2) -0.07041(17) 0.57768(12)
C3B C 0.9077(3) -0.11347(19) 0.52937(13)
H1B H 1.0079 -0.1365 0.5541
C4B C 0.8591(3) -0.12272(19) 0.44506(14)
H2B H 0.9265 -0.1533 0.4144
C5B C 0.7119(2) -0.08729(18) 0.40551(12)
C6B C 0.6112(2) -0.04283(17) 0.45315(12)
C7B C 0.6581(2) -0.03788(17) 0.53925(12)
C8B C 0.6633(2) -0.10610(19) 0.31375(13)
C9B C 0.4601(2) 0.00718(17) 0.41170(12)
O1B O 0.43792(17) 0.03122(14) 0.33923(9)
O2B O 0.93781(19) -0.13641(13) 0.70930(9)
O3B O 0.88155(18) 0.04561(13) 0.69520(10)
O4B O 0.5754(2) -0.18700(14) 0.29062(9)
O5B O 0.72396(17) -0.04142(13) 0.26873(8)
C10B C 0.7980(3) -0.0849(2) 0.97065(14)
H3B H 0.8974 -0.1081 0.9966
C11B C 0.7591(3) -0.0830(2) 0.88631(15)
H4B H 0.8315 -0.1031 0.8550
C12B C 0.6100(3) -0.0505(2) 0.84944(14)
H5B H 0.5807 -0.0510 0.7925
C13B C 0.5558(2) -0.01994(17) 0.97532(12)
N1B N 0.69511(19) -0.05375(15) 1.01603(10)
N2B N 0.5062(2) -0.01825(15) 0.89389(10)
Ni1B Ni 0.72003(3) -0.05520(2) 0.145189(15)
O6B O 0.93305(17) -0.13650(13) 0.16723(9)
H6B H 0.9257 -0.2065 0.1759
H7B H 0.9952 -0.1056 0.2071
O7B O 0.62168(18) -0.21143(13) 0.13669(9)
H8B H 0.5935 -0.2143 0.1826
H9B H 0.5423 -0.2199 0.0980
O8B O 0.84605(17) 0.09106(12) 0.15301(9)
H10B H 0.9177 0.0995 0.1956
H11B H 0.7900 0.1500 0.1459
Ni1B_2 Ni 0.72003(3) -0.05520(2) 1.145189(15)
N1B_2 N 0.69511(19) -0.05375(15) 0.01603(10)
N2_2 N 0.4938(2) 0.01825(15) 0.10611(10)
O9 O 0.6485(3) 0.22601(19) 0.97439(12)
H12 H 0.6655 0.2583 1.0209
H13 H 0.7108 0.2498 0.9453
O10 O 0.3148(2) 0.71467(14) 0.86121(10)
H14 H 0.2507 0.6621 0.8439
H15 H 0.3919 0.7120 0.8373
O11 O 0.2586(2) 0.81271(18) 0.66151(12)
H16 H 0.2634 0.8807 0.6776
H17 H 0.1952 0.7753 0.6835
loop_
_geom_bond_atom_site_label_1
_geom_bond_atom_site_label_2
_geom_bond_site_symmetry_1
_geom_bond_site_symmetry_2
Ni1 N1 1_555 1_555
C1 C2 1_555 1_555
C2 C3 1_555 1_555
C3 H1 1_555 1_555
C4 C3 1_555 1_555
H2 C4 1_555 1_555
C5 C4 1_555 1_555
C6 C5 1_555 1_555
C7 C2 1_555 1_555
C8 C5 1_555 1_555
C9 C6 1_555 1_555
O1 C9 1_555 1_555
C10 H3 1_555 1_555
C11 C10 1_555 1_555
H4 C11 1_555 1_555
C12 C11 1_555 1_555
H5 C12 1_555 1_555
C13 N1 1_555 1_555
N1 C10 1_555 1_555
N2 C12 1_555 1_555
O2 C1 1_555 1_555
O3 C1 1_555 1_555
O4 C8 1_555 1_555
O5 Ni1 1_555 1_555
O6 Ni1 1_555 1_555
H6 O6 1_555 1_555
H7 O6 1_555 1_555
O7 Ni1 1_555 1_555
H8 O7 1_555 1_555
H9 O7 1_555 1_555
O8 Ni1 1_555 1_555
H10 O8 1_555 1_555
H11 O8 1_555 1_555
O9 H12 1_555 1_555
H13 O9 1_555 1_555
O10 H14 1_555 1_555
H15 O10 1_555 1_555
O11 H16 1_555 1_555
H17 O11 1_555 1_555
C1B C2B 1_555 1_555
C2B C3B 1_555 1_555
C3B H1B 1_555 1_555
C4B C3B 1_555 1_555
H2B C4B 1_555 1_555
C5B C4B 1_555 1_555
C6B C5B 1_555 1_555
C7B C9 1_555 1_555
C8B C5B 1_555 1_555
C9B C7 1_555 1_555
O1B C9B 1_555 1_555
O2B C1B 1_555 1_555
O3B C1B 1_555 1_555
O4B C8B 1_555 1_555
O5B C8B 1_555 1_555
C10B H3B 1_555 1_555
C11B C10B 1_555 1_555
H4B C11B 1_555 1_555
C12B C11B 1_555 1_555
H5B C12B 1_555 1_555
C13B C13 1_555 1_555
N1B C10B 1_555 1_555
N2B Ni1 1_555 1_555
Ni1B O5B 1_555 1_555
O6B Ni1B 1_555 1_555
H6B O6B 1_555 1_555
H7B O6B 1_555 1_555
O7B Ni1B 1_555 1_555
H8B O7B 1_555 1_555
H9B O7B 1_555 1_555
O8B Ni1B 1_555 1_555
H10B O8B 1_555 1_555
H11B O8B 1_555 1_555
Ni1B_2 N2 1_555 1_555
N1B_2 Ni1B 1_555 1_555
N2_2 Ni1B 1_555 1_555
C6 C7 1_555 1_555
C8 O5 1_555 1_555
C13 N2 1_555 1_555
C2B C7B 1_555 1_555
C6B C7B 1_555 1_555
C6B C9B 1_555 1_555
C12B N2B 1_555 1_555
C13B N1B 1_555 1_555
C13B N2B 1_555 1_555
N1B Ni1B_2 1_555 1_555

#END
