
#######################################################################
#
#                 Cambridge Crystallographic Data Centre
#                                CCDC 
#
#######################################################################
#
# If this CIF has been generated from an entry in the Cambridge 
# Structural Database, then it will include bibliographic, chemical, 
# crystal, experimental, refinement or atomic coordinate data resulting 
# from the CCDC's data processing and validation procedures.
#
#######################################################################

data_DIDKOS
_symmetry_cell_setting           triclinic
_symmetry_space_group_name_H-M   'P -1'
_symmetry_Int_Tables_number      2
_space_group_name_Hall           '-P 1'
loop_
_symmetry_equiv_pos_site_id
_symmetry_equiv_pos_as_xyz
1 x,y,z
2 -x,-y,-z
_cell_length_a                   10.507(2)
_cell_length_b                   11.567(2)
_cell_length_c                   19.424(4)
_cell_angle_alpha                92.96(3)
_cell_angle_beta                 101.48(3)
_cell_angle_gamma                109.93(3)
_cell_volume                     2156.54
loop_
_atom_site_label
_atom_site_type_symbol
_atom_site_fract_x
_atom_site_fract_y
_atom_site_fract_z
C1 C -0.0994(5) -0.4559(4) 0.1618(3)
H1 H -0.1231 -0.4415 0.2064
H2 H -0.1532 -0.4249 0.1260
Cd1 Cd 0.86023(3) 0.06011(3) 0.225383(14)
Fe1 Fe 0.64132(6) -0.30224(5) -0.14457(3)
Fe2 Fe 1.29947(8) 0.32765(7) 0.61147(4)
N1 N -0.1613(3) -0.7847(3) 0.15919(17)
N2 N 0.6845(3) 0.0475(3) 0.28140(18)
C2 C -0.2248(4) -0.7832(4) 0.0892(2)
C3 C 0.7895(5) -0.1306(4) 0.1226(2)
C4 C 0.7299(4) -0.3415(4) -0.0497(2)
N3 N -0.1388(3) -0.5900(3) 0.1426(2)
N4 N 0.4677(4) -0.0205(3) 0.29579(19)
C5 C 0.6809(4) 0.1121(4) 0.3422(2)
O1 O 0.9113(3) -0.0523(3) 0.13989(18)
O2 O 1.0487(3) 0.2249(3) 0.30090(17)
O3 O 0.7017(4) -0.1247(3) 0.15647(19)
C6 C 0.8063(4) -0.2467(3) 0.0120(2)
C7 C 0.5564(4) -0.0281(4) 0.2556(2)
H3 H 0.5291 -0.0820 0.2138
C8 C 0.5826(5) -0.4112(4) -0.0688(2)
H4 H 0.5150 -0.4071 -0.0414
C9 C -0.2976(4) -0.8801(4) 0.0349(2)
H5 H -0.3073 -0.9615 0.0413
C10 C -0.2665(5) -0.6331(5) 0.0133(3)
H6 H -0.2551 -0.5517 0.0059
C11 C 0.7402(4) -0.2281(4) 0.0615(2)
H7 H 0.6505 -0.2848 0.0564
C12 C 0.1047(5) -0.2593(4) 0.2127(3)
H8 H 0.0838 -0.2706 0.2589
H9 H 0.0548 -0.2093 0.1903
C13 C 0.7850(5) -0.3770(5) -0.1060(2)
H10 H 0.8829 -0.3448 -0.1085
C14 C 0.2594(5) -0.1898(4) 0.2226(3)
H11 H 0.3076 -0.2480 0.2294
H12 H 0.2764 -0.1534 0.1799
C15 C 0.5452(4) 0.0694(4) 0.3522(2)
C16 C 1.1882(5) 0.2087(5) 0.4064(2)
H13 H 1.2409 0.2917 0.4066
C17 C 1.0784(5) 0.1503(5) 0.3412(2)
C18 C 0.6943(5) -0.1144(4) -0.1348(3)
H14 H 0.7562 -0.0555 -0.0937
C19 C 0.0527(5) -0.3842(4) 0.1687(3)
H15 H 0.0693 -0.3725 0.1217
H16 H 0.1058 -0.4327 0.1898
C20 C -0.2100(4) -0.6616(4) 0.0783(2)
C21 C 0.3173(5) -0.0906(4) 0.2836(3)
H17 H 0.2685 -0.0329 0.2764
H18 H 0.2987 -0.1275 0.3260
O4 O 1.0182(4) 0.0381(4) 0.32574(19)
C22 C 0.5514(6) -0.1711(5) -0.1455(3)
H19 H 0.4946 -0.1594 -0.1133
C23 C 0.5107(6) 0.1160(5) 0.4101(3)
H20 H 0.4202 0.0871 0.4165
C24 C 1.2227(5) 0.1607(5) 0.4644(3)
C25 C 1.3292(5) 0.2380(5) 0.5259(3)
C26 C 0.7848(5) 0.2039(4) 0.3912(3)
H21 H 0.8755 0.2338 0.3852
C27 C 0.5520(6) -0.4854(4) -0.1341(3)
H22 H 0.4593 -0.5411 -0.1600
C28 C -0.3551(5) -0.8506(5) -0.0288(2)
H23 H -0.4056 -0.9140 -0.0659
C29 C -0.1129(4) -0.6680(4) 0.1874(2)
H24 H -0.0648 -0.6417 0.2345
C30 C 0.6763(6) -0.4649(5) -0.1567(3)
H25 H 0.6850 -0.5039 -0.2006
C31 C 0.7347(7) -0.1555(6) -0.1926(4)
H26 H 0.8300 -0.1300 -0.1993
C32 C 0.9586(5) -0.1763(5) 0.0143(3)
H27 H 1.0000 -0.1191 0.0571
H28 H 0.9660 -0.1315 -0.0258
H29 H 1.0061 -0.2338 0.0132
C33 C -0.3398(6) -0.7301(5) -0.0393(2)
H30 H -0.3802 -0.7143 -0.0832
C34 C 0.5032(6) -0.2455(5) -0.2093(4)
H31 H 0.4057 -0.2964 -0.2302
C35 C 1.4028(6) 0.3694(6) 0.5333(3)
H32 H 1.3900 0.4244 0.4980
C36 C 0.7511(6) 0.2497(5) 0.4487(3)
H33 H 0.8202 0.3106 0.4823
C37 C 0.6158(9) -0.2377(6) -0.2402(3)
H34 H 0.6114 -0.2796 -0.2862
C38 C 0.6166(7) 0.2071(6) 0.4576(3)
H35 H 0.5969 0.2409 0.4969
C39 C 1.1596(8) 0.0263(6) 0.4722(4)
H36 H 1.1067 0.0175 0.5078
H37 H 1.2321 -0.0064 0.4858
H38 H 1.0996 -0.0182 0.4278
C40 C 1.4978(6) 0.4056(7) 0.6004(3)
H39 H 1.5624 0.4898 0.6197
C41 C 1.3815(7) 0.1983(7) 0.5891(3)
H40 H 1.3509 0.1130 0.6004
C42 C 1.4812(8) 0.3010(8) 0.6337(4)
H41 H 1.5328 0.2988 0.6813
C43 C 1.0959(9) 0.3028(9) 0.5979(6)
H42 H 1.0238 0.2604 0.5551
C44 C 1.1325(9) 0.2463(9) 0.6558(5)
H43 H 1.0927 0.1569 0.6575
C45 C 1.2656(11) 0.4396(9) 0.6818(7)
H44 H 1.3361 0.5167 0.7083
C46 C 1.2358(11) 0.3236(10) 0.7057(5)
H45 H 1.2800 0.3042 0.7507
C47 C 1.1796(12) 0.4288(10) 0.6088(7)
H46 H 1.1739 0.4942 0.5795
Cd1_2 Cd -0.13977(3) -0.93989(3) 0.225383(14)
N1_2 N 0.8387(3) 0.2153(3) 0.15919(17)
O5 O 0.1796(5) 0.4758(4) 0.3139(2)
H47 H 0.1549 0.4002 0.3125
C48 C 0.1434(8) 0.5247(8) 0.3716(5)
H48 H 0.1544 0.4784 0.4106
H49 H 0.0483 0.5191 0.3582
H50 H 0.2028 0.6100 0.3856
loop_
_geom_bond_atom_site_label_1
_geom_bond_atom_site_label_2
_geom_bond_site_symmetry_1
_geom_bond_site_symmetry_2
C1 H1 1_555 1_555
H2 C1 1_555 1_555
Cd1 N2 1_555 1_555
Fe1 C4 1_555 1_555
Fe2 C25 1_555 1_555
N1 C2 1_555 1_555
N2 C5 1_555 1_555
C2 C9 1_555 1_555
C3 O1 1_555 1_555
C4 C6 1_555 1_555
N3 C1 1_555 1_555
N4 C7 1_555 1_555
C5 C15 1_555 1_555
O1 Cd1 1_555 1_555
O2 Cd1 1_555 1_555
O3 Cd1 1_555 1_555
C6 C11 1_555 1_555
C7 N2 1_555 1_555
H3 C7 1_555 1_555
C8 Fe1 1_555 1_555
H4 C8 1_555 1_555
C9 H5 1_555 1_555
C10 H6 1_555 1_555
C11 C3 1_555 1_555
H7 C11 1_555 1_555
C12 H8 1_555 1_555
H9 C12 1_555 1_555
C13 Fe1 1_555 1_555
H10 C13 1_555 1_555
C14 C12 1_555 1_555
H11 C14 1_555 1_555
H12 C14 1_555 1_555
C15 N4 1_555 1_555
C16 H13 1_555 1_555
C17 O2 1_555 1_555
C18 Fe1 1_555 1_555
H14 C18 1_555 1_555
C19 C1 1_555 1_555
H15 C19 1_555 1_555
H16 C19 1_555 1_555
C20 C2 1_555 1_555
C21 N4 1_555 1_555
H17 C21 1_555 1_555
H18 C21 1_555 1_555
O4 Cd1 1_555 1_555
C22 Fe1 1_555 1_555
H19 C22 1_555 1_555
C23 C15 1_555 1_555
H20 C23 1_555 1_555
C24 C16 1_555 1_555
C25 C24 1_555 1_555
C26 C5 1_555 1_555
H21 C26 1_555 1_555
C27 Fe1 1_555 1_555
H22 C27 1_555 1_555
C28 C9 1_555 1_555
H23 C28 1_555 1_555
C29 N1 1_555 1_555
H24 C29 1_555 1_555
C30 Fe1 1_555 1_555
H25 C30 1_555 1_555
C31 Fe1 1_555 1_555
H26 C31 1_555 1_555
C32 C6 1_555 1_555
H27 C32 1_555 1_555
H28 C32 1_555 1_555
H29 C32 1_555 1_555
C33 C10 1_555 1_555
H30 C33 1_555 1_555
C34 Fe1 1_555 1_555
H31 C34 1_555 1_555
C35 Fe2 1_555 1_555
H32 C35 1_555 1_555
C36 C26 1_555 1_555
H33 C36 1_555 1_555
C37 Fe1 1_555 1_555
H34 C37 1_555 1_555
C38 C23 1_555 1_555
H35 C38 1_555 1_555
C39 C24 1_555 1_555
H36 C39 1_555 1_555
H37 C39 1_555 1_555
H38 C39 1_555 1_555
C40 Fe2 1_555 1_555
H39 C40 1_555 1_555
C41 Fe2 1_555 1_555
H40 C41 1_555 1_555
C42 Fe2 1_555 1_555
H41 C42 1_555 1_555
C43 Fe2 1_555 1_555
H42 C43 1_555 1_555
C44 Fe2 1_555 1_555
H43 C44 1_555 1_555
C45 Fe2 1_555 1_555
H44 C45 1_555 1_555
C46 Fe2 1_555 1_555
H45 C46 1_555 1_555
C47 Fe2 1_555 1_555
H46 C47 1_555 1_555
O5 H47 1_555 1_555
C48 O5 1_555 1_555
H48 C48 1_555 1_555
H49 C48 1_555 1_555
H50 C48 1_555 1_555
Cd1_2 N1 1_555 1_555
N1_2 Cd1 1_555 1_555
C3 O3 1_555 1_555
C4 C8 1_555 1_555
C4 C13 1_555 1_555
N3 C20 1_555 1_555
N3 C29 1_555 1_555
C8 C27 1_555 1_555
C10 C20 1_555 1_555
C12 C19 1_555 1_555
C13 C30 1_555 1_555
C14 C21 1_555 1_555
C16 C17 1_555 1_555
C17 O4 1_555 1_555
C18 C22 1_555 1_555
C18 C31 1_555 1_555
C22 C34 1_555 1_555
C25 C35 1_555 1_555
C25 C41 1_555 1_555
C27 C30 1_555 1_555
C28 C33 1_555 1_555
C31 C37 1_555 1_555
C34 C37 1_555 1_555
C35 C40 1_555 1_555
C36 C38 1_555 1_555
C40 C42 1_555 1_555
C41 C42 1_555 1_555
C43 C44 1_555 1_555
C43 C47 1_555 1_555
C44 C46 1_555 1_555
C45 C46 1_555 1_555
C45 C47 1_555 1_555

#END
