
#######################################################################
#
#                 Cambridge Crystallographic Data Centre
#                                CCDC 
#
#######################################################################
#
# If this CIF has been generated from an entry in the Cambridge 
# Structural Database, then it will include bibliographic, chemical, 
# crystal, experimental, refinement or atomic coordinate data resulting 
# from the CCDC's data processing and validation procedures.
#
#######################################################################

data_DIDXIY
_symmetry_cell_setting           triclinic
_symmetry_space_group_name_H-M   'P -1'
_symmetry_Int_Tables_number      2
_space_group_name_Hall           '-P 1'
loop_
_symmetry_equiv_pos_site_id
_symmetry_equiv_pos_as_xyz
1 x,y,z
2 -x,-y,-z
_cell_length_a                   5.934(1)
_cell_length_b                   8.124(2)
_cell_length_c                   17.256(3)
_cell_angle_alpha                97.08(3)
_cell_angle_beta                 94.34(3)
_cell_angle_gamma                98.54(3)
_cell_volume                     812.626
loop_
_atom_site_label
_atom_site_type_symbol
_atom_site_fract_x
_atom_site_fract_y
_atom_site_fract_z
Cu1 Cu 0.2019(9) 0.8558(6) 0.1893(3)
O1 O 0.201(7) 1.048(5) 0.266(2)
O2 O 0.200(6) 0.643(4) 0.117(2)
H1 H 0.1753 0.6185 0.0692
O3 O 0.077(10) 1.350(6) 0.298(3)
O4 O 0.015(8) 1.384(5) 0.420(3)
O5 O 0.662(8) 1.333(5) 0.599(2)
O6 O 0.900(9) 1.171(6) 0.562(3)
O7 O 0.944(6) 0.662(5) 0.259(2)
H2 H 1.0073 0.6131 0.2906
O8 O 0.890(6) 0.881(4) 0.151(2)
H3 H 0.8552 0.9702 0.1408
O9 O 0.321(7) 1.015(5) 0.092(3)
H4 H 0.4449 1.0726 0.1111
H5 H 0.2264 1.0881 0.0800
N1 N 0.495(7) 0.811(5) 0.232(2)
N2 N 0.113(8) 1.325(5) 0.366(3)
N3 N 0.730(9) 1.236(6) 0.549(3)
C1 C 0.607(8) 0.889(6) 0.295(3)
H6 H 0.7470 0.8578 0.3091
C2 C 0.535(8) 1.024(6) 0.347(3)
C3 C 0.337(9) 1.097(6) 0.327(3)
C4 C 0.296(9) 1.230(6) 0.384(3)
C5 C 0.417(10) 1.272(6) 0.456(3)
H7 H 0.3746 1.3525 0.4935
C6 C 0.600(9) 1.194(6) 0.473(3)
C7 C 0.663(9) 1.074(6) 0.418(3)
H8 H 0.7921 1.0259 0.4297
C8 C 0.582(8) 0.673(6) 0.184(3)
C9 C 0.370(8) 0.551(6) 0.146(3)
H9 H 0.4131 0.4774 0.1028
H10 H 0.3079 0.4828 0.1837
C10 C 0.722(9) 0.571(6) 0.233(3)
H11 H 0.6429 0.5445 0.2779
H12 H 0.7357 0.4668 0.2012
C11 C 0.710(8) 0.747(6) 0.120(3)
H13 H 0.7738 0.6597 0.0894
H14 H 0.6033 0.7891 0.0845
Cu1_2 Cu 1.2019(9) 0.8558(6) 0.1893(3)
O7_2 O -0.056(6) 0.662(5) 0.259(2)
H2_2 H 0.0073 0.6131 0.2906
O8_2 O -0.110(6) 0.881(4) 0.151(2)
H3_2 H -0.1448 0.9702 0.1408
O10 O 0.284(7) 0.665(5) -0.032(2)
O11 O 0.220(7) 0.827(5) -0.119(2)
O12 O -0.023(7) 0.773(6) -0.035(3)
N4 N 0.157(8) 0.755(5) -0.061(3)
loop_
_geom_bond_atom_site_label_1
_geom_bond_atom_site_label_2
_geom_bond_site_symmetry_1
_geom_bond_site_symmetry_2
Cu1 O1 1_555 1_555
O1 C3 1_555 1_555
O2 Cu1 1_555 1_555
H1 O2 1_555 1_555
O3 N2 1_555 1_555
O4 N2 1_555 1_555
O5 N3 1_555 1_555
O6 N3 1_555 1_555
O7 H2 1_555 1_555
O8 H3 1_555 1_555
O9 Cu1 1_555 1_555
H4 O9 1_555 1_555
H5 O9 1_555 1_555
N1 Cu1 1_555 1_555
N2 C4 1_555 1_555
N3 C6 1_555 1_555
C1 N1 1_555 1_555
H6 C1 1_555 1_555
C2 C1 1_555 1_555
C3 C2 1_555 1_555
C4 C3 1_555 1_555
C5 C4 1_555 1_555
H7 C5 1_555 1_555
C6 C5 1_555 1_555
C7 C2 1_555 1_555
H8 C7 1_555 1_555
C8 N1 1_555 1_555
C9 O2 1_555 1_555
H9 C9 1_555 1_555
H10 C9 1_555 1_555
C10 O7 1_555 1_555
H11 C10 1_555 1_555
H12 C10 1_555 1_555
C11 O8 1_555 1_555
H13 C11 1_555 1_555
H14 C11 1_555 1_555
O10 N4 1_555 1_555
O11 N4 1_555 1_555
O12 N4 1_555 1_555
Cu1_2 O7 1_555 1_555
O7_2 Cu1 1_555 1_555
H2_2 O7_2 1_555 1_555
O8_2 Cu1 1_555 1_555
H3_2 O8_2 1_555 1_555
O8 Cu1_2 1_555 1_555
C6 C7 1_555 1_555
C8 C9 1_555 1_555
C8 C10 1_555 1_555
C8 C11 1_555 1_555

#END
