
#######################################################################
#
#                 Cambridge Crystallographic Data Centre
#                                CCDC 
#
#######################################################################
#
# If this CIF has been generated from an entry in the Cambridge 
# Structural Database, then it will include bibliographic, chemical, 
# crystal, experimental, refinement or atomic coordinate data resulting 
# from the CCDC's data processing and validation procedures.
#
#######################################################################

data_DIFRIV
_symmetry_cell_setting           monoclinic
_symmetry_space_group_name_H-M   'C 2/c'
_symmetry_Int_Tables_number      15
_space_group_name_Hall           '-C 2yn'
loop_
_symmetry_equiv_pos_site_id
_symmetry_equiv_pos_as_xyz
1 x,y,z
2 -x,y,1/2-z
3 1/2+x,1/2+y,z
4 1/2-x,1/2+y,1/2-z
5 -x,-y,-z
6 x,-y,1/2+z
7 1/2-x,1/2-y,-z
8 1/2+x,1/2-y,1/2+z
_cell_length_a                   21.623(2)
_cell_length_b                   13.9245(15)
_cell_length_c                   19.743(3)
_cell_angle_alpha                90
_cell_angle_beta                 119.2360(10)
_cell_angle_gamma                90
_cell_volume                     5187.18
loop_
_atom_site_label
_atom_site_type_symbol
_atom_site_fract_x
_atom_site_fract_y
_atom_site_fract_z
Ni1 Ni 0.309430(18) -0.06947(2) 0.76868(2)
O1 O 0.27406(10) 0.07596(13) 0.72397(13)
O2 O 0.37690(10) 0.02073(14) 0.74975(13)
O3 O 0.27998(10) 0.36394(14) 0.74540(11)
O4 O 0.26830(12) 0.37077(16) 0.84896(13)
N1 N 0.36832(12) -0.19130(16) 0.79713(13)
N2 N 0.39588(11) -0.34329(15) 0.82429(12)
N3 N 0.33783(13) -0.02512(17) 0.87800(14)
N4 N 0.32582(15) 0.01895(18) 0.97806(15)
C1 C 0.33140(14) 0.08739(18) 0.72523(15)
C2 C 0.34649(14) 0.17770(18) 0.69414(15)
C3 C 0.32126(18) 0.1844(2) 0.61508(17)
H1 H 0.2943 0.1344 0.5831
C4 C 0.33501(19) 0.2629(2) 0.58268(18)
H2 H 0.3184 0.2652 0.5295
C5 C 0.37335(17) 0.3378(2) 0.62898(18)
H3 H 0.3827 0.3915 0.6074
C6 C 0.39798(15) 0.3334(2) 0.70772(17)
H4 H 0.4244 0.3843 0.7389
C7 C 0.38432(13) 0.25475(18) 0.74178(15)
C8 C 0.41039(14) 0.25422(18) 0.82680(15)
C9 C 0.47758(16) 0.2149(2) 0.87432(18)
H5 H 0.5029 0.1889 0.8519
C10 C 0.50671(19) 0.2143(3) 0.9540(2)
H6 H 0.5519 0.1894 0.9850
C11 C 0.4690(2) 0.2507(2) 0.98762(19)
H7 H 0.4881 0.2488 1.0412
C12 C 0.40299(19) 0.2897(2) 0.94201(17)
H8 H 0.3779 0.3139 0.9653
C13 C 0.37290(15) 0.29369(18) 0.86138(15)
C14 C 0.30284(15) 0.34486(18) 0.81639(16)
C15 C 0.35052(15) -0.27318(19) 0.81658(17)
H9 H 0.3115 -0.2812 0.8240
C16 C 0.42833(16) -0.2102(2) 0.79263(17)
H10 H 0.4532 -0.1655 0.7802
C17 C 0.44579(16) -0.3034(2) 0.80895(17)
H11 H 0.4841 -0.3346 0.8097
C18 C 0.39019(15) -0.44347(18) 0.84380(16)
H12 H 0.3936 -0.4854 0.8065
H13 H 0.3440 -0.4533 0.8395
C19 C 0.44709(14) -0.47106(18) 0.92489(15)
C20 C 0.51353(15) -0.50167(19) 0.93973(15)
C21 C 0.56460(14) -0.5302(2) 1.01245(16)
C22 C 0.29352(18) -0.0169(2) 0.90549(19)
H14 H 0.2459 -0.0337 0.8782
C23 C 0.40113(18) 0.0077(3) 0.9355(2)
H15 H 0.4427 0.0108 0.9325
C24 C 0.3950(2) 0.0350(3) 0.9969(2)
H16 H 0.4307 0.0599 1.0434
C25 C 0.2919(2) 0.0485(2) 1.0232(2)
H17 H 0.3243 0.0376 1.0779
H18 H 0.2501 0.0093 1.0084
C26 C 0.31500(18) 0.2241(3) 1.05711(18)
C27 C 0.27070(18) 0.1526(2) 1.01072(17)
C28 C 0.20517(19) 0.1818(2) 0.95301(19)
F1 F 0.52807(10) -0.50314(14) 0.88090(10)
F2 F 0.62818(9) -0.55884(14) 1.02294(11)
F3 F 0.15881(13) 0.11521(18) 0.90571(16)
F4 F 0.38020(13) 0.20017(19) 1.11362(13)
N1D N 0.63168(12) -0.80870(16) 1.20287(13)
N2D N 0.60412(11) -0.65671(15) 1.17571(12)
C15D C 0.64948(15) -0.72682(19) 1.18342(17)
H9D H 0.6885 -0.7188 1.1760
C16D C 0.57167(16) -0.7898(2) 1.20737(17)
H10D H 0.5468 -0.8345 1.2198
C17D C 0.55421(16) -0.6966(2) 1.19105(17)
H11D H 0.5159 -0.6654 1.1903
C18D C 0.60981(15) -0.55653(18) 1.15620(16)
H12D H 0.6064 -0.5146 1.1935
H13D H 0.6560 -0.5467 1.1605
C19D C 0.55291(14) -0.52894(18) 1.07511(15)
C20D C 0.48647(15) -0.49833(19) 1.06027(15)
C21D C 0.43540(14) -0.4698(2) 0.98755(16)
F1D F 0.47193(10) -0.49686(14) 1.11910(10)
F2D F 0.37182(9) -0.44116(14) 0.97706(11)
N3F N 0.16217(13) 0.52512(17) 1.12200(14)
N4F N 0.17418(15) 0.48105(18) 1.02194(15)
C22F C 0.20648(18) 0.5169(2) 1.09451(19)
H14F H 0.2541 0.5337 1.1218
C23F C 0.09887(18) 0.4923(3) 1.0645(2)
H15F H 0.0573 0.4892 1.0675
C24F C 0.1050(2) 0.4650(3) 1.0031(2)
H16F H 0.0693 0.4401 0.9566
C25F C 0.2081(2) 0.4515(2) 0.9768(2)
H17F H 0.1757 0.4624 0.9221
H18F H 0.2499 0.4907 0.9916
C26F C 0.18500(18) 0.2759(3) 0.94289(18)
C27F C 0.22930(18) 0.3474(2) 0.98928(17)
C28F C 0.29483(19) 0.3182(2) 1.04699(19)
F3F F 0.34119(13) 0.38479(18) 1.09429(16)
F4F F 0.11980(13) 0.29983(19) 0.88638(13)
Ni1D Ni 0.690570(18) -0.93053(2) 1.23132(2)
O1D O 0.72594(10) -1.07596(13) 1.27603(13)
O2D O 0.62310(10) -1.02073(14) 1.25025(13)
O3D O 0.72002(10) -1.36394(14) 1.25460(11)
O4D O 0.73170(12) -1.37077(16) 1.15104(13)
C1D C 0.66860(14) -1.08739(18) 1.27477(15)
C2D C 0.65351(14) -1.17770(18) 1.30586(15)
C3D C 0.67874(18) -1.1844(2) 1.38492(17)
H1D H 0.7057 -1.1344 1.4169
C4D C 0.66499(19) -1.2629(2) 1.41732(18)
H2D H 0.6816 -1.2652 1.4705
C5D C 0.62665(17) -1.3378(2) 1.37102(18)
H3D H 0.6173 -1.3915 1.3926
C6D C 0.60202(15) -1.3334(2) 1.29228(17)
H4D H 0.5756 -1.3843 1.2611
C7D C 0.61568(13) -1.25475(18) 1.25822(15)
C8D C 0.58961(14) -1.25422(18) 1.17320(15)
C9D C 0.52242(16) -1.2149(2) 1.12568(18)
H5D H 0.4971 -1.1889 1.1481
C10D C 0.49329(19) -1.2143(3) 1.0460(2)
H6D H 0.4481 -1.1894 1.0150
C11D C 0.5310(2) -1.2507(2) 1.01238(19)
H7D H 0.5119 -1.2488 0.9588
C12D C 0.59701(19) -1.2897(2) 1.05799(17)
H8D H 0.6221 -1.3139 1.0347
C13D C 0.62710(15) -1.29369(18) 1.13862(15)
C14D C 0.69716(15) -1.34486(18) 1.18361(16)
Ni1C Ni 0.190570(18) 0.43053(2) 0.73132(2)
Ni1F Ni 0.190570(18) 0.56947(2) 1.23132(2)
Ni1G Ni 0.809430(18) -1.43053(2) 1.26868(2)
O3C O 0.22002(10) -0.13606(14) 0.75460(11)
O3G O 0.77998(10) -0.86394(14) 1.24540(11)
O4C O 0.23170(12) -0.12923(16) 0.65104(13)
O4G O 0.76830(12) -0.87077(16) 1.34896(13)
N3D N 0.66217(13) -0.97488(17) 1.12200(14)
O5 O 0.4764(6) 0.9877(8) 0.7002(6)
H19 H 0.4588 0.9982 0.7321
H20? H 0.5240 0.9976 0.7385
loop_
_geom_bond_atom_site_label_1
_geom_bond_atom_site_label_2
_geom_bond_site_symmetry_1
_geom_bond_site_symmetry_2
Ni1 O1 1_555 1_555
O1 C1 1_555 1_555
O2 Ni1 1_555 1_555
O3 C14 1_555 1_555
O4 C14 1_555 1_555
N1 Ni1 1_555 1_555
N2 C15 1_555 1_555
N3 Ni1 1_555 1_555
N4 C22 1_555 1_555
C1 O2 1_555 1_555
C2 C1 1_555 1_555
C3 C2 1_555 1_555
H1 C3 1_555 1_555
C4 C3 1_555 1_555
H2 C4 1_555 1_555
C5 C4 1_555 1_555
H3 C5 1_555 1_555
C6 C5 1_555 1_555
H4 C6 1_555 1_555
C7 C2 1_555 1_555
C8 C7 1_555 1_555
C9 C8 1_555 1_555
H5 C9 1_555 1_555
C10 C9 1_555 1_555
H6 C10 1_555 1_555
C11 C10 1_555 1_555
H7 C11 1_555 1_555
C12 C11 1_555 1_555
H8 C12 1_555 1_555
C13 C8 1_555 1_555
C14 C13 1_555 1_555
C15 N1 1_555 1_555
H9 C15 1_555 1_555
C16 N1 1_555 1_555
H10 C16 1_555 1_555
C17 N2 1_555 1_555
H11 C17 1_555 1_555
C18 N2 1_555 1_555
H12 C18 1_555 1_555
H13 C18 1_555 1_555
C19 C18 1_555 1_555
C20 C19 1_555 1_555
C21 C20 1_555 1_555
C22 N3 1_555 1_555
H14 C22 1_555 1_555
C23 N3 1_555 1_555
H15 C23 1_555 1_555
C24 N4 1_555 1_555
H16 C24 1_555 1_555
C25 N4 1_555 1_555
H17 C25 1_555 1_555
H18 C25 1_555 1_555
C26 C27 1_555 1_555
C27 C25 1_555 1_555
C28 C27 1_555 1_555
F1 C20 1_555 1_555
F2 C21 1_555 1_555
F3 C28 1_555 1_555
F4 C26 1_555 1_555
O5 H19 1_555 1_555
N1D C15D 1_555 1_555
N2D C15D 1_555 1_555
C15D H9D 1_555 1_555
C16D N1D 1_555 1_555
H10D C16D 1_555 1_555
C17D N2D 1_555 1_555
H11D C17D 1_555 1_555
C18D N2D 1_555 1_555
H12D C18D 1_555 1_555
H13D C18D 1_555 1_555
C19D C21 1_555 1_555
C20D C19D 1_555 1_555
C21D C19 1_555 1_555
F1D C20D 1_555 1_555
F2D C21D 1_555 1_555
N3F C22F 1_555 1_555
N4F C22F 1_555 1_555
C22F H14F 1_555 1_555
C23F N3F 1_555 1_555
H15F C23F 1_555 1_555
C24F N4F 1_555 1_555
H16F C24F 1_555 1_555
C25F N4F 1_555 1_555
H17F C25F 1_555 1_555
H18F C25F 1_555 1_555
C26F C28 1_555 1_555
C27F C25F 1_555 1_555
C28F C26 1_555 1_555
F3F C28F 1_555 1_555
F4F C26F 1_555 1_555
Ni1D N1D 1_555 1_555
O1D Ni1D 1_555 1_555
O2D Ni1D 1_555 1_555
O3D C14D 1_555 1_555
O4D C14D 1_555 1_555
C1D O1D 1_555 1_555
C2D C1D 1_555 1_555
C3D C2D 1_555 1_555
H1D C3D 1_555 1_555
C4D C3D 1_555 1_555
H2D C4D 1_555 1_555
C5D C4D 1_555 1_555
H3D C5D 1_555 1_555
C6D C5D 1_555 1_555
H4D C6D 1_555 1_555
C7D C2D 1_555 1_555
C8D C7D 1_555 1_555
C9D C8D 1_555 1_555
H5D C9D 1_555 1_555
C10D C9D 1_555 1_555
H6D C10D 1_555 1_555
C11D C10D 1_555 1_555
H7D C11D 1_555 1_555
C12D C11D 1_555 1_555
H8D C12D 1_555 1_555
C13D C8D 1_555 1_555
C14D C13D 1_555 1_555
Ni1C O3 1_555 1_555
Ni1F N3F 1_555 1_555
Ni1G O3D 1_555 1_555
O3C Ni1 1_555 1_555
O3G Ni1D 1_555 1_555
O4C Ni1 1_555 1_555
O4G Ni1D 1_555 1_555
N3D Ni1D 1_555 1_555
O4 Ni1C 1_555 1_555
C6 C7 1_555 1_555
C12 C13 1_555 1_555
C16 C17 1_555 1_555
C23 C24 1_555 1_555
C16D C17D 1_555 1_555
C18D C19D 1_555 1_555
C20D C21D 1_555 1_555
C23F C24F 1_555 1_555
C26F C27F 1_555 1_555
C27F C28F 1_555 1_555
O2D C1D 1_555 1_555
O4D Ni1G 1_555 1_555
C6D C7D 1_555 1_555
C12D C13D 1_555 1_555

#END
