
#######################################################################
#
#                 Cambridge Crystallographic Data Centre
#                                CCDC 
#
#######################################################################
#
# If this CIF has been generated from an entry in the Cambridge 
# Structural Database, then it will include bibliographic, chemical, 
# crystal, experimental, refinement or atomic coordinate data resulting 
# from the CCDC's data processing and validation procedures.
#
#######################################################################

data_DIFRUG
_symmetry_cell_setting           monoclinic
_symmetry_space_group_name_H-M   'P 21/c'
_symmetry_Int_Tables_number      14
_space_group_name_Hall           '-P 2ybc'
loop_
_symmetry_equiv_pos_site_id
_symmetry_equiv_pos_as_xyz
1 x,y,z
2 -x,1/2+y,1/2-z
3 -x,-y,-z
4 x,1/2-y,1/2+z
_cell_length_a                   15.444(5)
_cell_length_b                   7.481(3)
_cell_length_c                   14.346(5)
_cell_angle_alpha                90
_cell_angle_beta                 102.107(5)
_cell_angle_gamma                90
_cell_volume                     1620.62
loop_
_atom_site_label
_atom_site_type_symbol
_atom_site_fract_x
_atom_site_fract_y
_atom_site_fract_z
Ag1 Ag 0.600515(17) 0.79471(4) 0.53768(2)
C1 C 0.20957(19) 0.6655(4) 0.6158(2)
C2 C 0.2719(2) 0.5274(4) 0.5855(2)
H1 H 0.3002 0.4589 0.6409
H2 H 0.2372 0.4453 0.5402
C3 C 0.4228(2) 0.6500(5) 0.5818(2)
H3 H 0.4485 0.6370 0.6461
C4 C 0.4013(2) 0.7027(5) 0.4356(2)
H4 H 0.4115 0.7368 0.3765
C5 C 0.15549(19) 0.7740(4) 0.5340(2)
C6 C 0.1029(2) 0.6972(4) 0.4544(2)
C7 C 0.0502(2) 0.7900(5) 0.3811(2)
H5 H 0.0161 0.7322 0.3286
C8 C 0.0509(2) 0.9724(5) 0.3899(2)
C9 C 0.0995(2) 1.0596(4) 0.4663(3)
H6 H 0.0979 1.1836 0.4703
C10 C 0.1516(2) 0.9595(4) 0.5381(2)
H7 H 0.1849 1.0183 0.5908
F1 F 0.10011(16) 0.5151(3) 0.44655(15)
F2 F -0.00042(16) 1.0679(3) 0.31862(17)
N1 N 0.33995(16) 0.6086(4) 0.54243(17)
N2 N 0.32451(17) 0.6406(4) 0.44732(18)
N3 N 0.46366(18) 0.7124(4) 0.5167(2)
N4 N 0.59563(19) 0.8952(4) 0.3241(2)
O1 O 0.25907(16) 0.7765(3) 0.68747(16)
H8 H 0.2930 0.8387 0.6644
O2 O 0.6424(2) 0.9609(5) 0.3963(2)
O3 O 0.5577(3) 0.7550(6) 0.3311(4)
O4 O 0.5929(2) 0.9684(5) 0.2473(2)
C11 C 0.14300(19) 0.5690(4) 0.6653(2)
H9 H 0.1103 0.6573 0.6934
H10 H 0.1010 0.5031 0.6179
C12 C 0.2422(2) 0.4789(4) 0.8209(2)
H11 H 0.2568 0.5919 0.8464
C13 C 0.2343(3) 0.2022(4) 0.7982(3)
H12 H 0.2443 0.0803 0.8079
N5 N 0.18639(16) 0.4461(3) 0.73925(17)
N6 N 0.1805(2) 0.2665(4) 0.7230(2)
N7 N 0.27424(18) 0.3267(4) 0.86086(18)
Ag1A Ag 0.399485(17) 0.29471(4) 0.96232(2)
N7A N 0.72576(18) 0.8267(4) 0.63914(18)
loop_
_geom_bond_atom_site_label_1
_geom_bond_atom_site_label_2
_geom_bond_site_symmetry_1
_geom_bond_site_symmetry_2
Ag1 N3 1_555 1_555
C1 C2 1_555 1_555
C2 H1 1_555 1_555
H2 C2 1_555 1_555
C3 H3 1_555 1_555
C4 H4 1_555 1_555
C5 C1 1_555 1_555
C6 C5 1_555 1_555
C7 C6 1_555 1_555
H5 C7 1_555 1_555
C8 C7 1_555 1_555
C9 C8 1_555 1_555
H6 C9 1_555 1_555
C10 C5 1_555 1_555
H7 C10 1_555 1_555
F1 C6 1_555 1_555
F2 C8 1_555 1_555
N1 C2 1_555 1_555
N2 C4 1_555 1_555
N3 C3 1_555 1_555
N4 O2 1_555 1_555
O1 C1 1_555 1_555
H8 O1 1_555 1_555
O2 Ag1 1_555 1_555
O3 N4 1_555 1_555
O4 N4 1_555 1_555
C11 C1 1_555 1_555
H9 C11 1_555 1_555
H10 C11 1_555 1_555
C12 H11 1_555 1_555
C13 H12 1_555 1_555
N5 C11 1_555 1_555
N6 C13 1_555 1_555
N7 C12 1_555 1_555
Ag1A N7 1_555 1_555
N7A Ag1 1_555 1_555
C3 N1 1_555 1_555
C4 N3 1_555 1_555
C9 C10 1_555 1_555
N1 N2 1_555 1_555
C12 N5 1_555 1_555
C13 N7 1_555 1_555
N5 N6 1_555 1_555

#END
