
#######################################################################
#
#                 Cambridge Crystallographic Data Centre
#                                CCDC 
#
#######################################################################
#
# If this CIF has been generated from an entry in the Cambridge 
# Structural Database, then it will include bibliographic, chemical, 
# crystal, experimental, refinement or atomic coordinate data resulting 
# from the CCDC's data processing and validation procedures.
#
#######################################################################

data_DIFXAT
_symmetry_cell_setting           triclinic
_symmetry_space_group_name_H-M   'P -1'
_symmetry_Int_Tables_number      2
_space_group_name_Hall           '-P 1'
loop_
_symmetry_equiv_pos_site_id
_symmetry_equiv_pos_as_xyz
1 x,y,z
2 -x,-y,-z
_cell_length_a                   6.985(2)
_cell_length_b                   8.284(3)
_cell_length_c                   8.354(3)
_cell_angle_alpha                60.958(11)
_cell_angle_beta                 66.111(12)
_cell_angle_gamma                74.649(13)
_cell_volume                     385.003
loop_
_atom_site_label
_atom_site_type_symbol
_atom_site_fract_x
_atom_site_fract_y
_atom_site_fract_z
Cd1 Cd 0.0000 0.5000 0.5000
N1 N -0.06271(19) 0.8633(2) -0.09047(17)
N2 N 0.03612(19) 0.7349(2) 0.03222(18)
N3 N -0.09927(17) 0.67854(16) 0.21048(16)
N4 N -0.28825(16) 0.76714(15) 0.20957(15)
N5 N -0.40874(16) 1.00613(14) -0.05960(15)
N6 N 0.34095(16) 0.55665(15) 0.28865(17)
N7 N 0.05480(18) 0.22127(16) 0.46893(18)
C1 C -0.25907(18) 0.87827(16) 0.02315(16)
C2 C 0.49966(19) 0.39881(19) 0.28540(19)
C3 C 0.4287(2) 0.26089(19) 0.25596(19)
C4 C 0.2713(2) 0.13285(18) 0.4325(2)
H1 H 0.522(2) 0.342(2) 0.4065(18)
H2 H 0.627(2) 0.439(2) 0.1833(19)
H3 H 0.324(3) 0.615(2) 0.172(2)
H4 H 0.308(3) 0.094(2) 0.543(2)
H5 H 0.393(3) 0.631(3) 0.302(3)
H6 H 0.280(3) 0.022(2) 0.419(3)
H7 H 0.372(3) 0.323(2) 0.151(2)
H8 H -0.022(3) 0.142(3) 0.582(2)
H9 H 0.015(3) 0.244(3) 0.375(2)
H10 H 0.550(3) 0.186(2) 0.212(3)
N1A N -0.93729(19) 1.1367(2) 0.09047(17)
N2A N -1.03612(19) 1.2651(2) -0.03222(18)
N3A N -0.90073(17) 1.32146(16) -0.21048(16)
N4A N -0.71175(16) 1.23286(15) -0.20957(15)
N5A N -0.59126(16) 0.99387(14) 0.05960(15)
C1A C -0.74093(18) 1.12173(16) -0.02315(16)
N6A N -0.34095(16) 0.44335(15) 0.71135(17)
N7A N -0.05480(18) 0.77873(16) 0.53107(18)
C2A C -0.49966(19) 0.60119(19) 0.71460(19)
C3A C -0.4287(2) 0.73911(19) 0.74404(19)
C4A C -0.2713(2) 0.86715(18) 0.5675(2)
H1A H -0.522(2) 0.658(2) 0.5935(18)
H2A H -0.627(2) 0.561(2) 0.8167(19)
H3A H -0.324(3) 0.385(2) 0.828(2)
H4A H -0.308(3) 0.906(2) 0.457(2)
H5A H -0.393(3) 0.369(3) 0.698(3)
H6A H -0.280(3) 0.978(2) 0.581(3)
H7A H -0.372(3) 0.677(2) 0.849(2)
H8A H 0.022(3) 0.858(3) 0.418(2)
H9A H -0.015(3) 0.756(3) 0.625(2)
H10A H -0.550(3) 0.814(2) 0.788(3)
Cd1_2 Cd -1.0000 1.5000 -0.5000
N3A_2 N 0.09927(17) 0.32146(16) 0.78952(16)
loop_
_geom_bond_atom_site_label_1
_geom_bond_atom_site_label_2
_geom_bond_site_symmetry_1
_geom_bond_site_symmetry_2
Cd1 N3 1_555 1_555
N1 N2 1_555 1_555
N2 N3 1_555 1_555
N3 N4 1_555 1_555
N4 C1 1_555 1_555
N5 C1 1_555 1_555
N6 Cd1 1_555 1_555
N7 Cd1 1_555 1_555
C1 N1 1_555 1_555
C2 N6 1_555 1_555
C3 C2 1_555 1_555
C4 N7 1_555 1_555
H1 C2 1_555 1_555
H2 C2 1_555 1_555
H3 N6 1_555 1_555
H4 C4 1_555 1_555
H5 N6 1_555 1_555
H6 C4 1_555 1_555
H7 C3 1_555 1_555
H8 N7 1_555 1_555
H9 N7 1_555 1_555
H10 C3 1_555 1_555
N1A N2A 1_555 1_555
N2A N3A 1_555 1_555
N3A N4A 1_555 1_555
N4A C1A 1_555 1_555
N5A N5 1_555 1_555
C1A N1A 1_555 1_555
N6A Cd1 1_555 1_555
N7A Cd1 1_555 1_555
C2A N6A 1_555 1_555
C3A C2A 1_555 1_555
C4A N7A 1_555 1_555
H1A C2A 1_555 1_555
H2A C2A 1_555 1_555
H3A N6A 1_555 1_555
H4A C4A 1_555 1_555
H5A N6A 1_555 1_555
H6A C4A 1_555 1_555
H7A C3A 1_555 1_555
H8A N7A 1_555 1_555
H9A N7A 1_555 1_555
H10A C3A 1_555 1_555
Cd1_2 N3A 1_555 1_555
N3A_2 Cd1 1_555 1_555
C3 C4 1_555 1_555
N5A C1A 1_555 1_555
C3A C4A 1_555 1_555

#END
