
#######################################################################
#
#                 Cambridge Crystallographic Data Centre
#                                CCDC 
#
#######################################################################
#
# If this CIF has been generated from an entry in the Cambridge 
# Structural Database, then it will include bibliographic, chemical, 
# crystal, experimental, refinement or atomic coordinate data resulting 
# from the CCDC's data processing and validation procedures.
#
#######################################################################

data_DIFZOJ
_symmetry_cell_setting           triclinic
_symmetry_space_group_name_H-M   'P -1'
_symmetry_Int_Tables_number      2
_space_group_name_Hall           '-P 1'
loop_
_symmetry_equiv_pos_site_id
_symmetry_equiv_pos_as_xyz
1 x,y,z
2 -x,-y,-z
_cell_length_a                   11.0192(9)
_cell_length_b                   11.0258(8)
_cell_length_c                   17.7378(15)
_cell_angle_alpha                82.288(5)
_cell_angle_beta                 78.980(6)
_cell_angle_gamma                89.361(5)
_cell_volume                     2095.96
loop_
_atom_site_label
_atom_site_type_symbol
_atom_site_fract_x
_atom_site_fract_y
_atom_site_fract_z
Ni1 Ni 0.55312(7) 0.37595(6) 0.32097(4)
O1 O 0.5265(4) 1.1951(3) 0.3138(2)
O2 O 0.4124(4) 1.1371(3) 0.4307(2)
O3 O 0.5764(4) 0.5558(3) 0.3358(2)
O4 O 0.6367(4) 0.5354(3) 0.4497(2)
N1 N 1.4567(4) 0.4241(4) 0.2320(3)
N2 N 0.7163(4) 0.3785(4) 0.2396(3)
C1 C 1.3386(5) 0.4910(5) 0.1058(3)
C2 C 0.4762(6) 1.1156(5) 0.3681(4)
C3 C 1.3878(6) 0.5240(5) 0.2269(4)
H1 H 1.3799 0.5725 0.2666
C4 C 0.4333(6) 0.7617(4) 0.3865(3)
H2 H 0.3706 0.7052 0.4176
H3 H 0.4346 0.7553 0.3323
C5 C 0.7527(6) 0.4736(5) 0.1860(3)
H4 H 0.6979 0.5376 0.1809
C6 C 0.9517(6) 0.3910(5) 0.1437(3)
C7 C 0.9131(6) 0.2904(5) 0.1983(4)
H5 H 0.9655 0.2245 0.2038
C8 C 0.5585(5) 0.7280(4) 0.4059(4)
H6 H 0.5539 0.7368 0.4606
C9 C 0.7986(6) 0.2878(5) 0.2441(4)
H7 H 0.7758 0.2193 0.2806
C10 C 0.6578(6) 0.8149(5) 0.3595(4)
H8 H 0.6667 0.8064 0.3050
H9 H 0.7359 0.7941 0.3751
C11 C 1.4659(6) 0.3586(5) 0.1738(4)
H10 H 1.5129 0.2881 0.1757
C12 C 0.8654(6) 0.4834(5) 0.1379(4)
H11 H 0.8849 0.5521 0.1011
C13 C 0.4995(5) 0.9822(4) 0.3546(3)
H12 H 0.5007 0.9773 0.2997
C14 C 0.5931(5) 0.5957(5) 0.3965(4)
C15 C 1.0807(6) 0.3980(5) 0.0960(4)
H13 H 1.0812 0.3552 0.0516
H14 H 1.1354 0.3547 0.1270
C16 C 0.4013(5) 0.8921(5) 0.4023(4)
H15 H 0.3215 0.9132 0.3891
H16 H 0.3958 0.8974 0.4570
C17 C 0.6273(6) 0.9479(5) 0.3709(4)
H17 H 0.6306 0.9593 0.4238
H18 H 0.6889 1.0019 0.3365
C18 C 1.1331(5) 0.5252(5) 0.0671(4)
H19 H 1.1121 0.5756 0.1084
H20 H 1.0947 0.5605 0.0245
C19 C 1.4105(6) 0.3885(5) 0.1111(4)
H21 H 1.4215 0.3391 0.0718
C20 C 1.3286(6) 0.5593(5) 0.1673(4)
H22 H 1.2811 0.6295 0.1674
C21 C 1.2730(6) 0.5279(5) 0.0398(3)
H23 H 1.2950 0.4728 0.0013
H24 H 1.2996 0.6099 0.0156
O5 O 0.3884(3) 0.3750(3) 0.4050(2)
H25 H 0.3810 0.2925 0.4101
H26 H 0.3955 0.4113 0.4434
O6 O 0.6568(4) 0.3174(3) 0.4083(2)
H27 H 0.6806 0.3989 0.4099
H28 H 0.6061 0.3644 0.4508
Ni1_2 Ni 0.55312(7) 1.37595(6) 0.32097(4)
Ni1_3 Ni 1.55312(7) 0.37595(6) 0.32097(4)
O1_2 O 0.5265(4) 0.1951(3) 0.3138(2)
N1_2 N 0.4567(4) 0.4241(4) 0.2320(3)
Ni2 Ni 0.10664(7) -0.07646(6) 0.17796(4)
O7 O 0.2900(3) -0.1053(3) 0.1815(2)
O8 O 0.3612(4) -0.1515(5) 0.0639(3)
O9 O 0.9268(3) -0.0458(3) 0.1653(2)
O10 O 0.9552(4) 0.0939(4) 0.0587(2)
N3 N 0.0887(5) 0.0218(4) 0.2711(3)
N4 N 0.0576(4) 0.7643(4) 0.2554(3)
C22 C 0.5058(5) -0.1073(5) 0.1405(3)
H29 H 0.5064 -0.1398 0.1946
C23 C 0.5377(5) 0.0293(5) 0.1301(4)
H30 H 0.5297 0.0655 0.0783
H31 H 0.4792 0.0687 0.1669
C24 C 0.3757(5) -0.1231(5) 0.1272(4)
C25 C 0.0024(6) 0.5426(5) 0.3534(3)
C26 C 0.7336(5) -0.1525(5) 0.1058(4)
H32 H 0.7374 -0.1874 0.1585
H33 H 0.7946 -0.1927 0.0709
C27 C 0.1273(6) 0.7230(5) 0.3054(3)
H34 H 0.1957 0.7698 0.3079
C28 C 0.1692(7) 0.1637(5) 0.3411(4)
H35 H 0.2339 0.2153 0.3440
C29 C -0.0729(5) 0.5886(5) 0.3040(4)
H36 H -0.1448 0.5462 0.3028
C30 C 0.0647(7) 0.1534(5) 0.3981(4)
C31 C 0.8913(6) 0.0134(6) 0.1056(4)
C32 C 0.0549(7) 0.2240(5) 0.4658(4)
H37 H 0.1164 0.1948 0.4961
H38 H -0.0260 0.2089 0.4986
C33 C -0.0436(5) 0.6968(5) 0.2563(4)
H39 H -0.0963 0.7249 0.2228
C34 C -0.0139(6) 0.0130(5) 0.3267(4)
H40 H -0.0779 -0.0386 0.3227
C35 C -0.0267(6) 0.4180(5) 0.4007(4)
H41 H -0.1001 0.4248 0.4399
H42 H -0.0465 0.3622 0.3668
C36 C 0.1784(6) 0.0970(5) 0.2789(4)
H43 H 0.2501 0.1053 0.2411
C37 C 0.7634(5) -0.0154(5) 0.0948(4)
H44 H 0.7610 0.0143 0.0405
C38 C 0.1047(6) 0.6137(5) 0.3547(4)
H45 H 0.1579 0.5883 0.3884
C39 C 0.0739(6) 0.3622(5) 0.4404(4)
H46 H 0.0763 0.4022 0.4856
H47 H 0.1530 0.3768 0.4054
C40 C -0.0279(6) 0.0777(5) 0.3897(4)
H48 H -0.1009 0.0696 0.4264
C41 C 0.6672(5) 0.0526(5) 0.1417(4)
H49 H 0.6859 0.1396 0.1286
H50 H 0.6704 0.0302 0.1960
C42 C 0.6041(5) -0.1750(5) 0.0898(4)
H51 H 0.6030 -0.1475 0.0356
H52 H 0.5852 -0.2620 0.0999
O11 O 0.1649(3) 0.0859(3) 0.1034(2)
H53 H 0.1166 0.1349 0.0765
H54 H 0.1457 0.1681 0.1288
O12 O 0.1220(3) -0.1755(3) 0.0837(2)
H55 H 0.0918 -0.1391 0.0462
H56 H 0.2053 -0.2084 0.0673
Ni2_2 Ni 0.10664(7) 0.92354(6) 0.17796(4)
Ni2_3 Ni 1.10664(7) -0.07646(6) 0.17796(4)
O9_2 O -0.0732(3) -0.0458(3) 0.1653(2)
N4_2 N 0.0576(4) -0.2357(4) 0.2554(3)
loop_
_geom_bond_atom_site_label_1
_geom_bond_atom_site_label_2
_geom_bond_site_symmetry_1
_geom_bond_site_symmetry_2
Ni1 O3 1_555 1_555
O1 C2 1_555 1_555
O2 C2 1_555 1_555
O3 C14 1_555 1_555
O4 C14 1_555 1_555
N1 C3 1_555 1_555
N2 Ni1 1_555 1_555
C1 C19 1_555 1_555
C2 C13 1_555 1_555
C3 H1 1_555 1_555
C4 H2 1_555 1_555
H3 C4 1_555 1_555
C5 N2 1_555 1_555
H4 C5 1_555 1_555
C6 C7 1_555 1_555
C7 H5 1_555 1_555
C8 C4 1_555 1_555
H6 C8 1_555 1_555
C9 N2 1_555 1_555
H7 C9 1_555 1_555
C10 C8 1_555 1_555
H8 C10 1_555 1_555
H9 C10 1_555 1_555
C11 N1 1_555 1_555
H10 C11 1_555 1_555
C12 C5 1_555 1_555
H11 C12 1_555 1_555
C13 H12 1_555 1_555
C14 C8 1_555 1_555
C15 C6 1_555 1_555
H13 C15 1_555 1_555
H14 C15 1_555 1_555
C16 C4 1_555 1_555
H15 C16 1_555 1_555
H16 C16 1_555 1_555
C17 C10 1_555 1_555
H17 C17 1_555 1_555
H18 C17 1_555 1_555
C18 C15 1_555 1_555
H19 C18 1_555 1_555
H20 C18 1_555 1_555
C19 C11 1_555 1_555
H21 C19 1_555 1_555
C20 C1 1_555 1_555
H22 C20 1_555 1_555
C21 C1 1_555 1_555
H23 C21 1_555 1_555
H24 C21 1_555 1_555
O5 Ni1 1_555 1_555
H25 O5 1_555 1_555
H26 O5 1_555 1_555
O6 Ni1 1_555 1_555
H27 O6 1_555 1_555
H28 O6 1_555 1_555
Ni2 O7 1_555 1_555
O7 C24 1_555 1_555
O8 C24 1_555 1_555
O9 C31 1_555 1_555
O10 C31 1_555 1_555
N3 Ni2 1_555 1_555
N4 C27 1_555 1_555
C22 H29 1_555 1_555
C23 C22 1_555 1_555
H30 C23 1_555 1_555
H31 C23 1_555 1_555
C24 C22 1_555 1_555
C25 C29 1_555 1_555
C26 H32 1_555 1_555
H33 C26 1_555 1_555
C27 H34 1_555 1_555
C28 H35 1_555 1_555
C29 H36 1_555 1_555
C30 C28 1_555 1_555
C31 C37 1_555 1_555
C32 C30 1_555 1_555
H37 C32 1_555 1_555
H38 C32 1_555 1_555
C33 N4 1_555 1_555
H39 C33 1_555 1_555
C34 N3 1_555 1_555
H40 C34 1_555 1_555
C35 C25 1_555 1_555
H41 C35 1_555 1_555
H42 C35 1_555 1_555
C36 N3 1_555 1_555
H43 C36 1_555 1_555
C37 C26 1_555 1_555
H44 C37 1_555 1_555
C38 C25 1_555 1_555
H45 C38 1_555 1_555
C39 C32 1_555 1_555
H46 C39 1_555 1_555
H47 C39 1_555 1_555
C40 C30 1_555 1_555
H48 C40 1_555 1_555
C41 C23 1_555 1_555
H49 C41 1_555 1_555
H50 C41 1_555 1_555
C42 C22 1_555 1_555
H51 C42 1_555 1_555
H52 C42 1_555 1_555
O11 Ni2 1_555 1_555
H53 O11 1_555 1_555
H54 O11 1_555 1_555
O12 Ni2 1_555 1_555
H55 O12 1_555 1_555
H56 O12 1_555 1_555
Ni1_2 O1 1_555 1_555
Ni1_3 N1 1_555 1_555
O1_2 Ni1 1_555 1_555
N1_2 Ni1 1_555 1_555
Ni2_2 N4 1_555 1_555
Ni2_3 O9 1_555 1_555
O9_2 Ni2 1_555 1_555
N4_2 Ni2 1_555 1_555
C3 C20 1_555 1_555
C6 C12 1_555 1_555
C7 C9 1_555 1_555
C13 C16 1_555 1_555
C13 C17 1_555 1_555
C18 C21 1_555 1_555
C26 C42 1_555 1_555
C27 C38 1_555 1_555
C28 C36 1_555 1_555
C29 C33 1_555 1_555
C34 C40 1_555 1_555
C35 C39 1_555 1_555
C37 C41 1_555 1_555

#END
