
#######################################################################
#
#                 Cambridge Crystallographic Data Centre
#                                CCDC 
#
#######################################################################
#
# If this CIF has been generated from an entry in the Cambridge 
# Structural Database, then it will include bibliographic, chemical, 
# crystal, experimental, refinement or atomic coordinate data resulting 
# from the CCDC's data processing and validation procedures.
#
#######################################################################

data_DIGTUK
_symmetry_cell_setting           monoclinic
_symmetry_space_group_name_H-M   'P 21/c'
_symmetry_Int_Tables_number      14
_space_group_name_Hall           '-P 2ybc'
loop_
_symmetry_equiv_pos_site_id
_symmetry_equiv_pos_as_xyz
1 x,y,z
2 -x,1/2+y,1/2-z
3 -x,-y,-z
4 x,1/2-y,1/2+z
_cell_length_a                   7.5673(5)
_cell_length_b                   9.3773(5)
_cell_length_c                   7.7862(5)
_cell_angle_alpha                90
_cell_angle_beta                 108.734(7)
_cell_angle_gamma                90
_cell_volume                     523.243
loop_
_atom_site_label
_atom_site_type_symbol
_atom_site_fract_x
_atom_site_fract_y
_atom_site_fract_z
Mg1 Mg 1.0000 1.0000 0.0000
O1 O 0.9704(2) 1.40101(15) 0.24897(19)
O2 O 0.5107(2) 1.21512(16) 0.0016(2)
O3 O 1.2823(2) 1.00534(18) 0.0627(2)
O4 O 1.02140(19) 1.19382(14) 0.1334(2)
C1 C 0.5103(3) 1.3475(2) -0.0018(3)
N1 N 0.6411(2) 1.42296(17) -0.0327(2)
C2 C 0.6488(3) 1.5783(2) -0.0283(3)
H1 H 0.6600 1.6113 -0.1425
H2 H 0.7615 1.6068 0.0668
C3 C 0.9409(3) 1.3102(2) 0.1227(3)
C4 C 0.7948(3) 1.3488(2) -0.0616(3)
H3 H 0.8521 1.4085 -0.1307
H4 H 0.7503 1.2625 -0.1306
H5 H 1.336(5) 1.080(4) 0.043(4)
H6 H 1.346(3) 0.929(3) 0.042(3)
O1B O 0.0296(2) 1.59899(15) -0.24897(19)
O2B O 0.4893(2) 1.78488(16) -0.0016(2)
O4B O -0.02140(19) 1.80618(14) -0.1334(2)
C1B C 0.4897(3) 1.6525(2) 0.0018(3)
N1B N 0.3589(2) 1.57704(17) 0.0327(2)
C2B C 0.3512(3) 1.4217(2) 0.0283(3)
H1B H 0.3400 1.3887 0.1425
H2B H 0.2385 1.3932 -0.0668
C3B C 0.0591(3) 1.6898(2) -0.1227(3)
C4B C 0.2052(3) 1.6512(2) 0.0616(3)
H3B H 0.1479 1.5915 0.1307
H4B H 0.2497 1.7375 0.1306
O3B O 0.7177(2) 0.99466(18) -0.0627(2)
H5B H 0.664(5) 0.920(4) -0.043(4)
H6B H 0.654(3) 1.071(3) -0.042(3)
Mg1_2 Mg 0.0000 2.0000 0.0000
Mg1A Mg 0.0000 1.5000 -0.5000
Mg1A_2 Mg 1.0000 1.5000 0.5000
O1A O 1.0296(2) 0.90101(15) 0.25103(19)
O1C O 0.9704(2) 1.09899(15) -0.25103(19)
O4B_2 O 0.97860(19) 0.80618(14) -0.1334(2)
loop_
_geom_bond_atom_site_label_1
_geom_bond_atom_site_label_2
_geom_bond_site_symmetry_1
_geom_bond_site_symmetry_2
Mg1 O3 1_555 1_555
O1 C3 1_555 1_555
O2 C1 1_555 1_555
O3 H5 1_555 1_555
O4 Mg1 1_555 1_555
C1 N1 1_555 1_555
N1 C2 1_555 1_555
C2 H1 1_555 1_555
H2 C2 1_555 1_555
C3 O4 1_555 1_555
C4 N1 1_555 1_555
H3 C4 1_555 1_555
H4 C4 1_555 1_555
H6 O3 1_555 1_555
O1B C3B 1_555 1_555
O2B C1B 1_555 1_555
O4B C3B 1_555 1_555
C1B C2 1_555 1_555
N1B C1B 1_555 1_555
C2B C1 1_555 1_555
H1B C2B 1_555 1_555
H2B C2B 1_555 1_555
C3B C4B 1_555 1_555
C4B N1B 1_555 1_555
H3B C4B 1_555 1_555
H4B C4B 1_555 1_555
O3B Mg1 1_555 1_555
H5B O3B 1_555 1_555
H6B O3B 1_555 1_555
Mg1_2 O4B 1_555 1_555
Mg1A O1B 1_555 1_555
Mg1A_2 O1 1_555 1_555
O1A Mg1 1_555 1_555
O1C Mg1 1_555 1_555
O4B_2 Mg1 1_555 1_555
C3 C4 1_555 1_555
N1B C2B 1_555 1_555

#END
