
#######################################################################
#
#                 Cambridge Crystallographic Data Centre
#                                CCDC 
#
#######################################################################
#
# If this CIF has been generated from an entry in the Cambridge 
# Structural Database, then it will include bibliographic, chemical, 
# crystal, experimental, refinement or atomic coordinate data resulting 
# from the CCDC's data processing and validation procedures.
#
#######################################################################

data_DIHDIJ
_symmetry_cell_setting           monoclinic
_symmetry_space_group_name_H-M   'P 21'
_symmetry_Int_Tables_number      4
_space_group_name_Hall           'P 2yb'
loop_
_symmetry_equiv_pos_site_id
_symmetry_equiv_pos_as_xyz
1 x,y,z
2 -x,1/2+y,-z
_cell_length_a                   6.0946(8)
_cell_length_b                   15.443(2)
_cell_length_c                   9.1202(11)
_cell_angle_alpha                90
_cell_angle_beta                 107.803(10)
_cell_angle_gamma                90
_cell_volume                     817.278
loop_
_atom_site_label
_atom_site_type_symbol
_atom_site_fract_x
_atom_site_fract_y
_atom_site_fract_z
Ni1 Ni -0.2059(2) 0.12114(7) 0.07252(12)
O1 O 0.0260(16) 0.0398(5) 0.0170(9)
H1 H -0.02(2) -0.016(5) 0.036(13)
H2 H 0.135(17) 0.056(7) 0.110(9)
O2 O -0.3977(16) 0.0221(6) 0.1203(11)
H3 H -0.351(19) -0.035(5) 0.138(13)
H4 H -0.481(19) 0.033(6) 0.190(11)
O3 O -0.0161(15) 0.2218(4) 0.0344(11)
C1 C -0.106(2) 0.2960(6) 0.0379(10)
O4 O -0.020(2) 0.3638(6) -0.0010(13)
N1 N -0.387(2) 0.2197(6) 0.1364(13)
H5 H -0.5397 0.2089 0.1003
H6 H -0.3471 0.2233 0.2397
C2 C -0.334(2) 0.3028(6) 0.0711(11)
H7 H -0.4518 0.3101 -0.0288
C3 C -0.354(2) 0.3808(6) 0.1671(12)
H8 H -0.5145 0.3881 0.1611
H9 H -0.3070 0.4320 0.1227
C4 C -0.211(2) 0.3748(6) 0.3352(11)
C5 C -0.305(2) 0.3477(8) 0.4462(13)
H10 H -0.4601 0.3331 0.4179
C6 C -0.172(2) 0.3412(8) 0.6016(12)
H11 H -0.2367 0.3206 0.6750
C7 C 0.056(2) 0.3660(7) 0.6427(14)
O5 O 0.1938(14) 0.3628(5) 0.7958(8)
H12 H 0.1134 0.3528 0.8513
C8 C 0.154(3) 0.3925(8) 0.5376(15)
H13 H 0.3099 0.4061 0.5667
C9 C 0.015(3) 0.3997(8) 0.3799(15)
H14 H 0.0797 0.4214 0.3072
O6 O -0.0028(10) 0.1199(8) 0.3087(6)
C10 C 0.2131(19) 0.1090(9) 0.3512(11)
O7 O 0.3362(13) 0.0917(5) 0.2675(8)
C11 C 0.3396(17) 0.1159(12) 0.5243(10)
C12 C 0.2331(19) 0.1308(11) 0.6313(11)
H15 H 0.0747 0.1398 0.6016
C13 C 0.3611(19) 0.1326(10) 0.7865(12)
H16 H 0.2832 0.1413 0.8584
N2 N 0.5883(13) 0.1224(10) 0.8376(8)
C14 C 0.6928(18) 0.1104(12) 0.7324(11)
H17 H 0.8518 0.1029 0.7654
C15 C 0.5794(18) 0.1083(13) 0.5752(12)
H18 H 0.6616 0.1018 0.5051
Ni1_2 Ni 0.7941(2) 0.12114(7) 1.07252(12)
N2_2 N -0.4117(13) 0.1224(10) -0.1624(8)
loop_
_geom_bond_atom_site_label_1
_geom_bond_atom_site_label_2
_geom_bond_site_symmetry_1
_geom_bond_site_symmetry_2
Ni1 O1 1_555 1_555
O1 H1 1_555 1_555
H2 O1 1_555 1_555
O2 Ni1 1_555 1_555
H3 O2 1_555 1_555
H4 O2 1_555 1_555
O3 Ni1 1_555 1_555
C1 O3 1_555 1_555
O4 C1 1_555 1_555
N1 Ni1 1_555 1_555
H5 N1 1_555 1_555
H6 N1 1_555 1_555
C2 C1 1_555 1_555
H7 C2 1_555 1_555
C3 C2 1_555 1_555
H8 C3 1_555 1_555
H9 C3 1_555 1_555
C4 C3 1_555 1_555
C5 C4 1_555 1_555
H10 C5 1_555 1_555
C6 C5 1_555 1_555
H11 C6 1_555 1_555
C7 C6 1_555 1_555
O5 C7 1_555 1_555
H12 O5 1_555 1_555
C8 C7 1_555 1_555
H13 C8 1_555 1_555
C9 C4 1_555 1_555
H14 C9 1_555 1_555
O6 Ni1 1_555 1_555
C10 O6 1_555 1_555
O7 C10 1_555 1_555
C11 C10 1_555 1_555
C12 C11 1_555 1_555
H15 C12 1_555 1_555
C13 C12 1_555 1_555
H16 C13 1_555 1_555
N2 C13 1_555 1_555
C14 N2 1_555 1_555
H17 C14 1_555 1_555
C15 C11 1_555 1_555
H18 C15 1_555 1_555
Ni1_2 N2 1_555 1_555
N2_2 Ni1 1_555 1_555
N1 C2 1_555 1_555
C8 C9 1_555 1_555
C14 C15 1_555 1_555

#END
