
#######################################################################
#
#                 Cambridge Crystallographic Data Centre
#                                CCDC 
#
#######################################################################
#
# If this CIF has been generated from an entry in the Cambridge 
# Structural Database, then it will include bibliographic, chemical, 
# crystal, experimental, refinement or atomic coordinate data resulting 
# from the CCDC's data processing and validation procedures.
#
#######################################################################

data_DIHJEL
_symmetry_cell_setting           triclinic
_symmetry_space_group_name_H-M   'P -1'
_symmetry_Int_Tables_number      2
_space_group_name_Hall           '-P 1'
loop_
_symmetry_equiv_pos_site_id
_symmetry_equiv_pos_as_xyz
1 x,y,z
2 -x,-y,-z
_cell_length_a                   9.2862(12)
_cell_length_b                   9.6561(13)
_cell_length_c                   9.7227(13)
_cell_angle_alpha                67.992(2)
_cell_angle_beta                 87.361(2)
_cell_angle_gamma                64.596(2)
_cell_volume                     723.252
loop_
_atom_site_label
_atom_site_type_symbol
_atom_site_fract_x
_atom_site_fract_y
_atom_site_fract_z
Mn1 Mn 0.16072(3) 0.49886(4) 0.24338(3)
O1 O 0.07437(18) 0.63708(18) 0.00373(16)
C1 C 0.0026(2) 0.5823(2) -0.0527(2)
O2 O -0.19558(16) 0.63184(18) 0.51347(16)
O3 O -0.07028(17) 0.63401(18) 0.31219(16)
O4 O -0.06506(19) 0.64768(18) -0.18369(16)
N1 N 0.6629(2) 0.1331(2) 0.3264(2)
N2 N 0.2349(2) 0.6951(2) 0.2274(2)
N3 N 0.4108(2) 0.3207(2) 0.2467(2)
N4 N 0.3589(2) 0.8496(2) 0.2132(2)
C2 C 0.9220(3) 0.0698(3) 0.4502(3)
H1 H 0.8694 0.1496 0.4957
H2 H 0.9466 0.1276 0.3537
C3 C 0.5590(3) 0.9271(3) 0.0658(3)
H3 H 0.6514 0.9463 0.0764
H4 H 0.5965 0.8274 0.0450
C4 C 0.8101(3) 0.0022(3) 0.4280(3)
H5 H 0.8651 -0.0820 0.3876
H6 H 0.7816 -0.0508 0.5242
C5 C -0.0771(2) 0.5771(2) 0.4490(2)
C6 C 0.3739(3) 0.6949(3) 0.2478(3)
H7 H 0.4713 0.5990 0.2821
C7 C 0.4900(3) 0.8964(3) 0.2136(3)
H8 H 0.5753 0.8081 0.2937
H9 H 0.4501 0.9967 0.2337
C8 C 0.6498(3) 0.2103(3) 0.1744(3)
H10 H 0.7316 0.1888 0.1152
C9 C 0.1247(3) 0.8602(3) 0.1762(3)
H11 H 0.0147 0.9001 0.1518
C10 C 0.5172(2) 0.2037(3) 0.3645(2)
H12 H 0.4937 0.1739 0.4623
C11 C 0.4941(3) 0.3239(3) 0.1273(3)
H13 H 0.4503 0.3940 0.0281
C12 C 0.1990(3) 0.9558(3) 0.1665(3)
H14 H 0.1510 1.0713 0.1344
O1A O -0.07437(18) 0.36292(18) -0.00373(16)
C1A C -0.0026(2) 0.4177(2) 0.0527(2)
O4A O 0.06506(19) 0.35232(18) 0.18369(16)
O2A O 0.19558(16) 0.36816(18) 0.48653(16)
O3A O 0.07028(17) 0.36599(18) 0.68781(16)
C5A C 0.0771(2) 0.4229(2) 0.5510(2)
N1A N 1.3371(2) -0.1331(2) 0.6736(2)
N3A N 1.5892(2) -0.3207(2) 0.7533(2)
C2A C 1.0780(3) -0.0698(3) 0.5498(3)
H1A H 1.1306 -0.1496 0.5043
H2A H 1.0534 -0.1276 0.6463
C4A C 1.1899(3) -0.0022(3) 0.5720(3)
H5A H 1.1349 0.0820 0.6124
H6A H 1.2184 0.0508 0.4758
C8A C 1.3502(3) -0.2103(3) 0.8256(3)
H10A H 1.2684 -0.1888 0.8848
C10A C 1.4828(2) -0.2037(3) 0.6355(2)
H12A H 1.5063 -0.1739 0.5377
C11A C 1.5059(3) -0.3239(3) 0.8727(3)
H13A H 1.5497 -0.3940 0.9719
N2A N 0.7651(2) 1.3049(2) -0.2274(2)
N4A N 0.6411(2) 1.1504(2) -0.2132(2)
C3A C 0.4410(3) 1.0729(3) -0.0658(3)
H3A H 0.3486 1.0537 -0.0764
H4A H 0.4035 1.1726 -0.0450
C6A C 0.6261(3) 1.3051(3) -0.2478(3)
H7A H 0.5287 1.4010 -0.2821
C7A C 0.5100(3) 1.1036(3) -0.2136(3)
H8A H 0.4247 1.1919 -0.2937
H9A H 0.5499 1.0033 -0.2337
C9A C 0.8753(3) 1.1398(3) -0.1762(3)
H11A H 0.9853 1.0999 -0.1518
C12A C 0.8010(3) 1.0442(3) -0.1665(3)
H14A H 0.8490 0.9287 -0.1344
Mn1A Mn -0.16072(3) 0.50114(4) -0.24338(3)
Mn1A_2 Mn -0.16072(3) 0.50114(4) 0.75662(3)
Mn1A_3 Mn 0.83928(3) 1.50114(4) -0.24338(3)
Mn1A_4 Mn 1.83928(3) -0.49886(4) 0.75662(3)
O2_2 O -0.19558(16) 0.63184(18) -0.48653(16)
O3A_2 O 0.07028(17) 0.36599(18) -0.31219(16)
N2A_2 N -0.2349(2) 0.3049(2) -0.2274(2)
N3A_2 N -0.4108(2) 0.6793(2) -0.2467(2)
O5 O 0.7189(10) 0.4977(10) 0.2437(10)
H15 H 0.8109 0.5033 0.2626
H16 H 0.6994 0.4082 0.2528
loop_
_geom_bond_atom_site_label_1
_geom_bond_atom_site_label_2
_geom_bond_site_symmetry_1
_geom_bond_site_symmetry_2
Mn1 O1 1_555 1_555
O1 C1 1_555 1_555
C1 O4 1_555 1_555
O2 C5 1_555 1_555
O3 Mn1 1_555 1_555
O4 Mn1A 1_555 1_555
N1 C4 1_555 1_555
N2 Mn1 1_555 1_555
N3 Mn1 1_555 1_555
N4 C6 1_555 1_555
C2 H1 1_555 1_555
H2 C2 1_555 1_555
C3 H3 1_555 1_555
H4 C3 1_555 1_555
C4 C2 1_555 1_555
H5 C4 1_555 1_555
H6 C4 1_555 1_555
C5 O3 1_555 1_555
C6 N2 1_555 1_555
H7 C6 1_555 1_555
C7 N4 1_555 1_555
H8 C7 1_555 1_555
H9 C7 1_555 1_555
C8 N1 1_555 1_555
H10 C8 1_555 1_555
C9 N2 1_555 1_555
H11 C9 1_555 1_555
C10 N1 1_555 1_555
H12 C10 1_555 1_555
C11 N3 1_555 1_555
H13 C11 1_555 1_555
C12 N4 1_555 1_555
H14 C12 1_555 1_555
O5 H15 1_555 1_555
H16 O5 1_555 1_555
O1A C1A 1_555 1_555
C1A C1 1_555 1_555
O4A Mn1 1_555 1_555
O2A Mn1 1_555 1_555
O3A C5A 1_555 1_555
C5A C5 1_555 1_555
N1A C4A 1_555 1_555
N3A C10A 1_555 1_555
C2A C2 1_555 1_555
H1A C2A 1_555 1_555
H2A C2A 1_555 1_555
C4A C2A 1_555 1_555
H5A C4A 1_555 1_555
H6A C4A 1_555 1_555
C8A N1A 1_555 1_555
H10A C8A 1_555 1_555
C10A N1A 1_555 1_555
H12A C10A 1_555 1_555
C11A N3A 1_555 1_555
H13A C11A 1_555 1_555
N2A C6A 1_555 1_555
N4A C6A 1_555 1_555
C3A C3 1_555 1_555
H3A C3A 1_555 1_555
H4A C3A 1_555 1_555
C6A H7A 1_555 1_555
C7A N4A 1_555 1_555
H8A C7A 1_555 1_555
H9A C7A 1_555 1_555
C9A N2A 1_555 1_555
H11A C9A 1_555 1_555
C12A N4A 1_555 1_555
H14A C12A 1_555 1_555
Mn1A O1A 1_555 1_555
Mn1A_2 O2 1_555 1_555
Mn1A_3 N2A 1_555 1_555
Mn1A_4 N3A 1_555 1_555
O2_2 Mn1A 1_555 1_555
O3A_2 Mn1A 1_555 1_555
N2A_2 Mn1A 1_555 1_555
N3A_2 Mn1A 1_555 1_555
N3 C10 1_555 1_555
C3 C7 1_555 1_555
C8 C11 1_555 1_555
C9 C12 1_555 1_555
C1A O4A 1_555 1_555
O2A C5A 1_555 1_555
O3A Mn1A_2 1_555 1_555
C8A C11A 1_555 1_555
C3A C7A 1_555 1_555
C9A C12A 1_555 1_555

#END
