
#######################################################################
#
#                 Cambridge Crystallographic Data Centre
#                                CCDC 
#
#######################################################################
#
# If this CIF has been generated from an entry in the Cambridge 
# Structural Database, then it will include bibliographic, chemical, 
# crystal, experimental, refinement or atomic coordinate data resulting 
# from the CCDC's data processing and validation procedures.
#
#######################################################################

data_DIHKIP
_symmetry_cell_setting           monoclinic
_symmetry_space_group_name_H-M   'C 2'
_symmetry_Int_Tables_number      5
_space_group_name_Hall           'C 2y'
loop_
_symmetry_equiv_pos_site_id
_symmetry_equiv_pos_as_xyz
1 x,y,z
2 -x,y,-z
3 1/2+x,1/2+y,z
4 1/2-x,1/2+y,-z
_cell_length_a                   17.9884(14)
_cell_length_b                   11.4661(9)
_cell_length_c                   24.5480(12)
_cell_angle_alpha                90.00
_cell_angle_beta                 90.00
_cell_angle_gamma                90.00
_cell_volume                     5063.19
loop_
_atom_site_label
_atom_site_type_symbol
_atom_site_fract_x
_atom_site_fract_y
_atom_site_fract_z
Co1 Co 0.5000 0.85433(10) 0.5000
O1 O 0.3935(4) 0.8598(7) 0.4609(2)
H1 H 0.3548 0.8290 0.4756
N1 N 0.5000 0.6674(10) 0.5000
C1 C 0.5608(6) 0.6044(9) 0.4902(4)
H4 H 0.6047 0.6446 0.4833
C2 C 0.5635(7) 0.4855(9) 0.4893(4)
H5 H 0.6079 0.4475 0.4816
C3 C 0.5000 0.4218(12) 0.5000
N3 N 0.5000 0.0493(11) 0.5000
C7 C 0.4361(6) 0.1109(8) 0.4886(3)
H8 H 0.3924 0.0708 0.4808
C8 C 0.4360(7) 0.2294(9) 0.4885(4)
H9 H 0.3922 0.2690 0.4807
C9 C 0.5000 0.2925(12) 0.5000
N11 N 0.5442(4) 0.8498(8) 0.4185(3)
C43 C 0.5126(5) 0.7772(8) 0.3803(4)
H36 H 0.4790 0.7207 0.3920
C44 C 0.5288(5) 0.7846(8) 0.3254(3)
H37 H 0.5066 0.7343 0.3005
C45 C 0.5770(5) 0.8660(10) 0.3090(3)
C46 C 0.6134(7) 0.9385(10) 0.3488(4)
H38 H 0.6489 0.9930 0.3383
C47 C 0.5945(5) 0.9254(9) 0.4029(4)
H39 H 0.6181 0.9712 0.4289
N12 N 0.6148(4) 0.9212(6) 0.1388(3)
C48 C 0.5663(6) 0.8471(12) 0.1547(4)
H40 H 0.5388 0.8078 0.1284
C49 C 0.5528(6) 0.8227(10) 0.2092(3)
H41 H 0.5175 0.7671 0.2189
C50 C 0.5938(5) 0.8840(8) 0.2504(4)
C51 C 0.6461(6) 0.9628(11) 0.2335(4)
H42 H 0.6742 1.0049 0.2585
C52 C 0.6554(6) 0.9772(11) 0.1792(4)
H43 H 0.6921 1.0290 0.1680
Co1_2 Co 0.5000 -0.14567(10) 0.5000
O1A O 0.6065(4) 0.8598(7) 0.5391(2)
H1A H 0.6452 0.8290 0.5244
C1A C 0.4392(6) 0.6044(9) 0.5098(4)
H4A H 0.3953 0.6446 0.5167
C2A C 0.4365(7) 0.4855(9) 0.5107(4)
H5A H 0.3921 0.4475 0.5184
N3_2 N 0.5000 1.0493(11) 0.5000
C7A C 0.5639(6) 0.1109(8) 0.5114(3)
H8A H 0.6076 0.0708 0.5192
C8A C 0.5640(7) 0.2294(9) 0.5115(4)
H9A H 0.6078 0.2690 0.5193
N11A N 0.4558(4) 0.8498(8) 0.5815(3)
C43A C 0.4874(5) 0.7772(8) 0.6197(4)
H36A H 0.5210 0.7207 0.6080
C44A C 0.4712(5) 0.7846(8) 0.6746(3)
H37A H 0.4934 0.7343 0.6995
C45A C 0.4230(5) 0.8660(10) 0.6910(3)
C46A C 0.3866(7) 0.9385(10) 0.6512(4)
H38A H 0.3511 0.9930 0.6617
C47A C 0.4055(5) 0.9254(9) 0.5971(4)
H39A H 0.3819 0.9712 0.5711
N12A N 0.3852(4) 0.9212(6) 0.8612(3)
C48A C 0.4337(6) 0.8471(12) 0.8453(4)
H40A H 0.4612 0.8078 0.8716
C49A C 0.4472(6) 0.8227(10) 0.7908(3)
H41A H 0.4825 0.7671 0.7811
C50A C 0.4062(5) 0.8840(8) 0.7496(4)
C51A C 0.3539(6) 0.9628(11) 0.7665(4)
H42A H 0.3258 1.0049 0.7415
C52A C 0.3446(6) 0.9772(11) 0.8208(4)
H43A H 0.3079 1.0290 0.8320
Co2 Co 0.5000 0.05261(9) 0.0000
O2 O 0.6046(3) 0.0475(7) 0.0398(2)
H2 H 0.6113 0.0236 0.0675
H3 H 0.6370 0.0491 0.0287
N2 N 0.5000 -0.1413(11) 0.0000
C4 C 0.5612(5) -0.2012(8) 0.0081(4)
H6 H 0.6050 -0.1596 0.0136
C5 C 0.5654(5) -0.3246(8) 0.0092(3)
H7 H 0.6102 -0.3624 0.0157
C6 C 0.5000 -0.3878(11) 0.0000
N4 N 0.5000 -0.7597(9) 0.0000
C10 C 0.5567(6) -0.6995(9) -0.0191(3)
H10 H 0.5974 -0.7397 -0.0330
C11 C 0.5581(5) -0.5788(8) -0.0195(3)
H11 H 0.5994 -0.5400 -0.0333
C12 C 0.5000 -0.5169(11) 0.0000
N9 N 0.4542(4) 0.0574(8) 0.0804(3)
C33 C 0.3991(5) -0.0129(9) 0.0947(3)
H28 H 0.3726 -0.0525 0.0680
C34 C 0.3810(5) -0.0277(9) 0.1477(3)
H29 H 0.3431 -0.0798 0.1563
C35 C 0.4162(5) 0.0309(8) 0.1901(3)
C36 C 0.4705(6) 0.1083(10) 0.1741(4)
H30 H 0.4947 0.1547 0.1996
C37 C 0.4878(6) 0.1156(9) 0.1212(4)
H31 H 0.5265 0.1654 0.1117
N10 N 0.3788(4) -0.0399(7) 0.3575(3)
C38 C 0.3511(7) -0.1038(11) 0.3187(4)
H32 H 0.3230 -0.1686 0.3286
C39 C 0.3606(7) -0.0817(11) 0.2628(4)
H33 H 0.3389 -0.1296 0.2367
C40 C 0.4018(6) 0.0104(9) 0.2484(3)
C41 C 0.4311(6) 0.0827(9) 0.2903(4)
H34 H 0.4589 0.1485 0.2815
C42 C 0.4182(6) 0.0551(11) 0.3434(4)
H35 H 0.4371 0.1031 0.3706
Co2_2 Co 0.5000 -0.94739(9) 0.0000
O2A O 0.3954(3) 0.0475(7) -0.0398(2)
H2A H 0.3887 0.0236 -0.0675
H3A H 0.3630 0.0491 -0.0287
C4A C 0.4388(5) -0.2012(8) -0.0081(4)
H6A H 0.3950 -0.1596 -0.0136
C5A C 0.4346(5) -0.3246(8) -0.0092(3)
H7A H 0.3898 -0.3624 -0.0157
N4_2 N 0.5000 0.2403(9) 0.0000
C10A C 0.4433(6) -0.6995(9) 0.0191(3)
H10A H 0.4026 -0.7397 0.0330
C11A C 0.4419(5) -0.5788(8) 0.0195(3)
H11A H 0.4006 -0.5400 0.0333
N9A N 0.5458(4) 0.0574(8) -0.0804(3)
C33A C 0.6009(5) -0.0129(9) -0.0947(3)
H28A H 0.6274 -0.0525 -0.0680
C34A C 0.6190(5) -0.0277(9) -0.1477(3)
H29A H 0.6569 -0.0798 -0.1563
C35A C 0.5838(5) 0.0309(8) -0.1901(3)
C36A C 0.5295(6) 0.1083(10) -0.1741(4)
H30A H 0.5053 0.1547 -0.1996
C37A C 0.5122(6) 0.1156(9) -0.1212(4)
H31A H 0.4735 0.1654 -0.1117
N10A N 0.6212(4) -0.0399(7) -0.3575(3)
C38A C 0.6489(7) -0.1038(11) -0.3187(4)
H32A H 0.6770 -0.1686 -0.3286
C39A C 0.6394(7) -0.0817(11) -0.2628(4)
H33A H 0.6611 -0.1296 -0.2367
C40A C 0.5982(6) 0.0104(9) -0.2484(3)
C41A C 0.5689(6) 0.0827(9) -0.2903(4)
H34A H 0.5411 0.1485 -0.2815
C42A C 0.5818(6) 0.0551(11) -0.3434(4)
H35A H 0.5629 0.1031 -0.3706
N5 N 0.7442(9) -0.2925(16) 0.3927(6)
C13 C 0.7154(10) -0.3678(18) 0.3626(7)
H12 H 0.6892 -0.4285 0.3788
C14 C 0.7210(9) -0.3651(15) 0.3026(6)
H13 H 0.6993 -0.4212 0.2803
C15 C 0.7624(7) -0.2695(12) 0.2818(5)
C16 C 0.7898(9) -0.1935(15) 0.3188(6)
H14 H 0.8165 -0.1295 0.3062
C17 C 0.7799(11) -0.206(2) 0.3755(7)
H15 H 0.7994 -0.1516 0.3996
N6 N 0.7950(9) -0.2295(16) 0.1111(6)
C18 C 0.7490(10) -0.3045(17) 0.1295(7)
H16 H 0.7229 -0.3488 0.1042
C19 C 0.7350(9) -0.3249(15) 0.1828(6)
H17 H 0.7009 -0.3820 0.1929
C20 C 0.7719(7) -0.2602(11) 0.2225(5)
C21 C 0.8229(10) -0.1788(14) 0.2050(6)
H18 H 0.8500 -0.1328 0.2291
C22 C 0.8311(11) -0.1703(18) 0.1491(7)
H19 H 0.8660 -0.1166 0.1368
N7 N 0.6262(8) 0.4422(14) 0.1106(5)
C23 C 0.6643(10) 0.3659(17) 0.1356(7)
H20 H 0.7037 0.3324 0.1167
C24 C 0.6523(9) 0.3276(14) 0.1895(6)
H21 H 0.6798 0.2686 0.2059
C25 C 0.5970(7) 0.3849(11) 0.2148(4)
C26 C 0.5552(9) 0.4729(14) 0.1852(6)
H22 H 0.5162 0.5130 0.2015
C27 C 0.5754(11) 0.4950(18) 0.1319(7)
H23 H 0.5497 0.5510 0.1120
N8 N 0.5460(9) 0.3102(15) 0.3784(6)
C28 C 0.6014(10) 0.2647(17) 0.3593(7)
H24 H 0.6313 0.2164 0.3805
C29 C 0.6193(9) 0.2875(15) 0.3034(6)
H25 H 0.6605 0.2512 0.2880
C30 C 0.5779(7) 0.3606(10) 0.2724(4)
C31 C 0.5177(9) 0.4093(14) 0.2945(6)
H26 H 0.4862 0.4597 0.2757
C32 C 0.5064(11) 0.3754(18) 0.3507(7)
H27 H 0.4647 0.4062 0.3680
O3 O 0.2647(6) 0.7694(13) 0.4949(4)
H44 H 0.2577 0.8596 0.4900
H45 H 0.2499 0.6854 0.4832
O4 O 0.8195(18) 0.119(4) 0.107(2)
O5 O 0.7370(10) 0.129(3) 0.0178(13)
O6 O 0.7508(8) 0.876(2) 0.0005(9)
H46 H 0.7663 0.9236 -0.0213
H47 H 0.7901 0.8585 0.0188
O7 O 0.8556(16) 0.076(3) 0.3858(12)
O8 O 0.7583(15) 0.076(3) 0.4175(12)
N13 N 0.7891(19) 0.108(3) 0.3711(12)
O9 O 0.7722(15) 0.111(2) 0.3166(13)
O13 O 0.8998(12) 0.105(2) 0.2582(16)
O14 O 0.9118(18) 0.152(3) 0.161(2)
O10? O 0.9130(18) 0.117(3) 0.1200(16)
O11? O 0.8103(13) 0.181(2) 0.1645(11)
O12? O 0.8622(17) 0.151(2) 0.1395(11)
loop_
_geom_bond_atom_site_label_1
_geom_bond_atom_site_label_2
_geom_bond_site_symmetry_1
_geom_bond_site_symmetry_2
Co1 O1 1_555 1_555
Co2 O2 1_555 1_555
O1 H1 1_555 1_555
O2 H2 1_555 1_555
H3 O2 1_555 1_555
N1 Co1 1_555 1_555
C1 N1 1_555 1_555
H4 C1 1_555 1_555
C2 C1 1_555 1_555
H5 C2 1_555 1_555
C3 C2 1_555 1_555
N2 Co2 1_555 1_555
C4 N2 1_555 1_555
H6 C4 1_555 1_555
C5 C4 1_555 1_555
H7 C5 1_555 1_555
C6 C5 1_555 1_555
N3 C7 1_555 1_555
C7 H8 1_555 1_555
C8 C7 1_555 1_555
H9 C8 1_555 1_555
C9 C3 1_555 1_555
N4 C10 1_555 1_555
C10 H10 1_555 1_555
C11 C10 1_555 1_555
H11 C11 1_555 1_555
C12 C6 1_555 1_555
N5 C13 1_555 1_555
C13 H12 1_555 1_555
C14 C13 1_555 1_555
H13 C14 1_555 1_555
C15 C14 1_555 1_555
C16 C15 1_555 1_555
H14 C16 1_555 1_555
C17 N5 1_555 1_555
H15 C17 1_555 1_555
N6 C18 1_555 1_555
C18 H16 1_555 1_555
C19 C18 1_555 1_555
H17 C19 1_555 1_555
C20 C15 1_555 1_555
C21 C20 1_555 1_555
H18 C21 1_555 1_555
C22 N6 1_555 1_555
H19 C22 1_555 1_555
N7 C23 1_555 1_555
C23 H20 1_555 1_555
C24 C23 1_555 1_555
H21 C24 1_555 1_555
C25 C24 1_555 1_555
C26 C25 1_555 1_555
H22 C26 1_555 1_555
C27 N7 1_555 1_555
H23 C27 1_555 1_555
N8 C28 1_555 1_555
C28 H24 1_555 1_555
C29 C28 1_555 1_555
H25 C29 1_555 1_555
C30 C25 1_555 1_555
C31 C30 1_555 1_555
H26 C31 1_555 1_555
C32 N8 1_555 1_555
H27 C32 1_555 1_555
N9 Co2 1_555 1_555
C33 N9 1_555 1_555
H28 C33 1_555 1_555
C34 C33 1_555 1_555
H29 C34 1_555 1_555
C35 C34 1_555 1_555
C36 C35 1_555 1_555
H30 C36 1_555 1_555
C37 N9 1_555 1_555
H31 C37 1_555 1_555
N10 C38 1_555 1_555
C38 H32 1_555 1_555
C39 C38 1_555 1_555
H33 C39 1_555 1_555
C40 C35 1_555 1_555
C41 C40 1_555 1_555
H34 C41 1_555 1_555
C42 N10 1_555 1_555
H35 C42 1_555 1_555
N11 Co1 1_555 1_555
C43 N11 1_555 1_555
H36 C43 1_555 1_555
C44 C43 1_555 1_555
H37 C44 1_555 1_555
C45 C44 1_555 1_555
C46 C45 1_555 1_555
H38 C46 1_555 1_555
C47 N11 1_555 1_555
H39 C47 1_555 1_555
N12 C48 1_555 1_555
C48 H40 1_555 1_555
C49 C48 1_555 1_555
H41 C49 1_555 1_555
C50 C45 1_555 1_555
C51 C50 1_555 1_555
H42 C51 1_555 1_555
C52 N12 1_555 1_555
H43 C52 1_555 1_555
O3 H44 1_555 1_555
H45 O3 1_555 1_555
O6 H46 1_555 1_555
H47 O6 1_555 1_555
O7 N13 1_555 1_555
O8 N13 1_555 1_555
N13 O9 1_555 1_555
Co1_2 N3 1_555 1_555
Co2_2 N4 1_555 1_555
O1A Co1 1_555 1_555
H1A O1A 1_555 1_555
O2A Co2 1_555 1_555
H2A O2A 1_555 1_555
H3A O2A 1_555 1_555
C1A N1 1_555 1_555
H4A C1A 1_555 1_555
C2A C3 1_555 1_555
H5A C2A 1_555 1_555
C4A N2 1_555 1_555
H6A C4A 1_555 1_555
C5A C6 1_555 1_555
H7A C5A 1_555 1_555
N3_2 Co1 1_555 1_555
C7A N3 1_555 1_555
H8A C7A 1_555 1_555
C8A C9 1_555 1_555
H9A C8A 1_555 1_555
N4_2 Co2 1_555 1_555
C10A N4 1_555 1_555
H10A C10A 1_555 1_555
C11A C12 1_555 1_555
H11A C11A 1_555 1_555
N9A Co2 1_555 1_555
C33A N9A 1_555 1_555
H28A C33A 1_555 1_555
C34A C33A 1_555 1_555
H29A C34A 1_555 1_555
C35A C34A 1_555 1_555
C36A C35A 1_555 1_555
H30A C36A 1_555 1_555
C37A N9A 1_555 1_555
H31A C37A 1_555 1_555
N10A C38A 1_555 1_555
C38A H32A 1_555 1_555
C39A C38A 1_555 1_555
H33A C39A 1_555 1_555
C40A C35A 1_555 1_555
C41A C40A 1_555 1_555
H34A C41A 1_555 1_555
C42A N10A 1_555 1_555
H35A C42A 1_555 1_555
N11A Co1 1_555 1_555
C43A N11A 1_555 1_555
H36A C43A 1_555 1_555
C44A C43A 1_555 1_555
H37A C44A 1_555 1_555
C45A C44A 1_555 1_555
C46A C45A 1_555 1_555
H38A C46A 1_555 1_555
C47A N11A 1_555 1_555
H39A C47A 1_555 1_555
N12A C48A 1_555 1_555
C48A H40A 1_555 1_555
C49A C48A 1_555 1_555
H41A C49A 1_555 1_555
C50A C45A 1_555 1_555
C51A C50A 1_555 1_555
H42A C51A 1_555 1_555
C52A N12A 1_555 1_555
H43A C52A 1_555 1_555
C8 C9 1_555 1_555
C11 C12 1_555 1_555
C16 C17 1_555 1_555
C19 C20 1_555 1_555
C21 C22 1_555 1_555
C26 C27 1_555 1_555
C29 C30 1_555 1_555
C31 C32 1_555 1_555
C36 C37 1_555 1_555
C39 C40 1_555 1_555
C41 C42 1_555 1_555
C46 C47 1_555 1_555
C49 C50 1_555 1_555
C51 C52 1_555 1_555
C1A C2A 1_555 1_555
C4A C5A 1_555 1_555
C7A C8A 1_555 1_555
C10A C11A 1_555 1_555
C36A C37A 1_555 1_555
C39A C40A 1_555 1_555
C41A C42A 1_555 1_555
C46A C47A 1_555 1_555
C49A C50A 1_555 1_555
C51A C52A 1_555 1_555

#END
