
#######################################################################
#
#                 Cambridge Crystallographic Data Centre
#                                CCDC 
#
#######################################################################
#
# If this CIF has been generated from an entry in the Cambridge 
# Structural Database, then it will include bibliographic, chemical, 
# crystal, experimental, refinement or atomic coordinate data resulting 
# from the CCDC's data processing and validation procedures.
#
#######################################################################

data_DIHROD
_symmetry_cell_setting           triclinic
_symmetry_space_group_name_H-M   'P -1'
_symmetry_Int_Tables_number      2
_space_group_name_Hall           '-P 1'
loop_
_symmetry_equiv_pos_site_id
_symmetry_equiv_pos_as_xyz
1 x,y,z
2 -x,-y,-z
_cell_length_a                   10.7367(5)
_cell_length_b                   14.3750(7)
_cell_length_c                   14.5422(7)
_cell_angle_alpha                92.8840(10)
_cell_angle_beta                 104.4010(10)
_cell_angle_gamma                98.1400(10)
_cell_volume                     2143.44
loop_
_atom_site_label
_atom_site_type_symbol
_atom_site_fract_x
_atom_site_fract_y
_atom_site_fract_z
Sm1 Sm 0.644561(17) 1.065279(11) 0.432736(12)
Sm2 Sm 0.649729(15) 0.590180(11) 0.977758(11)
O1 O 0.5983(2) 0.65454(18) 0.81930(18)
O2 O 0.7787(3) 0.59249(19) 0.85719(18)
O3 O 0.8010(3) 1.07875(19) 0.33151(19)
C1 C 0.6650(3) 1.3684(2) 0.0471(2)
O4 O 0.6060(2) 1.11467(18) 0.27052(18)
N1 N 0.7470(3) 0.7691(2) 0.9976(2)
O5 O 0.5268(2) 0.52937(17) 1.10975(17)
C2 C 0.7239(4) 1.1179(2) 0.2709(3)
N2 N 0.8980(3) 0.6394(2) 1.0717(2)
O6 O 0.5446(2) 1.34572(17) 0.03564(18)
O7 O 0.7148(3) 0.93983(18) 0.5236(2)
N3 N 0.7295(3) 1.2467(2) 0.4409(2)
C3 C 0.7058(3) 0.6407(2) 0.8046(3)
N4 N 0.8793(3) 1.1316(2) 0.5472(2)
C4 C 0.6940(3) 0.7634(2) 0.6895(3)
H1 H 0.6307 0.7865 0.7172
O8 O 0.6642(2) 0.66290(18) 1.13817(18)
O9 O 0.5425(3) 0.92107(18) 1.3389(2)
C5 C 0.6676(4) 0.8906(3) 0.5795(3)
C6 C 0.7012(3) 1.2400(2) 0.1544(2)
H2 H 0.6151 1.2410 0.1620
C7 C 0.7475(3) 0.6854(2) 0.7232(3)
O10 O 0.4040(3) 0.8762(2) 1.4252(2)
C8 C 0.5278(3) 0.7318(2) 1.2678(2)
H3 H 0.5642 0.7800 1.2343
C9 C 0.8679(4) 0.8009(3) 1.0556(3)
C10 C 0.9153(4) 1.2272(3) 0.5668(3)
O11 O 0.7194(2) 1.44355(17) 0.02186(19)
C11 C 0.9004(4) 1.1746(3) 0.1896(3)
H4 H 0.9531 1.1318 0.2227
C12 C 0.7487(3) 1.3005(2) 0.0948(2)
C13 C 0.7320(3) 0.8088(2) 0.6162(3)
C14 C 0.5747(3) 0.6085(2) 1.1579(2)
C15 C 0.8340(4) 1.2870(2) 0.5123(3)
C16 C 0.7768(3) 1.1777(2) 0.2029(2)
C17 C 0.8675(4) 1.3862(3) 0.5324(3)
C18 C 0.6603(4) 1.3027(3) 0.3873(3)
H5 H 0.5878 1.2742 0.3359
C19 C 0.5236(3) 0.6372(2) 1.2399(2)
C20 C 0.4786(3) 0.7571(2) 1.3432(2)
C21 C 0.8238(4) 0.7750(3) 0.5769(3)
H6 H 0.8501 0.8055 0.5259
C22 C 1.0289(4) 1.2681(3) 0.6364(3)
C23 C 0.9602(4) 1.0774(3) 0.5930(3)
H7 H 0.9367 1.0103 0.5794
C24 C 0.9484(4) 0.7326(3) 1.0928(3)
C25 C 0.9751(4) 0.5766(3) 1.1024(3)
H8 H 0.9407 0.5108 1.0863
C26 C 0.8719(3) 1.2965(3) 0.0820(3)
H9 H 0.9051 1.3375 0.0405
C27 C 0.4719(4) 0.5679(3) 1.2892(3)
H10 H 0.4659 0.5024 1.2688
C28 C 0.8766(4) 0.6968(3) 0.6108(3)
H11 H 0.9396 0.6734 0.5829
C29 C 1.0780(4) 1.1129(3) 0.6606(3)
H12 H 1.1347 1.0709 0.6901
C30 C 0.9798(4) 1.4245(3) 0.6073(4)
H13 H 0.9999 1.4916 0.6224
C31 C 0.9466(4) 1.2326(3) 0.1282(3)
H14 H 1.0308 1.2293 0.1178
C32 C 1.0769(4) 0.7638(3) 1.1490(3)
C33 C 0.8402(4) 0.6525(3) 0.6838(3)
H15 H 0.8786 0.5992 0.7077
C34 C 0.4308(4) 0.6869(3) 1.3936(3)
H16 H 0.3985 0.7041 1.4470
C35 C 0.9176(4) 0.8981(3) 1.0776(3)
C36 C 0.8360(5) 0.9620(3) 1.0379(4)
H17 H 0.8655 1.0287 1.0506
C37 C 0.7898(5) 1.4427(3) 0.4754(4)
H18 H 0.8084 1.5101 0.4884
C38 C 1.1047(4) 0.6019(3) 1.1568(3)
H19 H 1.1576 0.5544 1.1772
C39 C 0.6883(5) 1.4016(3) 0.4017(4)
H20 H 0.6367 1.4398 0.3606
C40 C 0.4282(4) 0.5933(3) 1.3674(3)
H21 H 0.3973 0.5455 1.4038
C41 C 1.0472(5) 0.9262(4) 1.1376(4)
H22 H 1.0806 0.9922 1.1537
C42 C 0.6749(4) 0.8327(3) 0.9617(4)
H23 H 0.5902 0.8106 0.9199
C43 C 0.7163(5) 0.9293(3) 0.9811(4)
H24 H 0.6594 0.9725 0.9545
C44 C 1.1099(4) 1.2067(3) 0.6831(3)
H25 H 1.1881 1.2318 0.7311
C45 C 1.0579(4) 1.3683(3) 0.6567(3)
H26 H 1.1332 1.3956 0.7064
O12 O 0.5694(3) 0.9044(2) 0.6062(2)
C46 C 0.4744(4) 0.8585(3) 1.3710(3)
C47 C 1.1536(4) 0.6943(4) 1.1802(3)
H27 H 1.2417 0.7127 1.2179
C48 C 1.1219(5) 0.8628(4) 1.1701(4)
H28 H 1.2083 0.8841 1.2097
Sm1_2 Sm 0.644561(17) 1.065279(11) 1.432736(12)
Sm1A Sm 0.355439(17) 0.934721(11) 0.567264(12)
Sm1A_2 Sm 0.355439(17) 0.934721(11) 1.567264(12)
Sm2_2 Sm 0.649729(15) 1.590180(11) -0.022242(11)
Sm2A Sm 0.350271(15) 0.409820(11) 1.022242(11)
Sm2A_2 Sm 0.350271(15) 1.409820(11) 0.022242(11)
O5A O 0.4732(2) 0.47063(17) 0.89025(17)
O6A O 0.4554(2) 0.65428(17) 0.96436(18)
O9_2 O 0.5425(3) 0.92107(18) 0.3389(2)
O10A O 0.5960(3) 1.1238(2) 0.5748(2)
O11_2 O 0.7194(2) 0.44355(17) 1.02186(19)
O12A O 0.4306(3) 1.0956(2) 0.3938(2)
loop_
_geom_bond_atom_site_label_1
_geom_bond_atom_site_label_2
_geom_bond_site_symmetry_1
_geom_bond_site_symmetry_2
Sm1 O3 1_555 1_555
Sm2 O1 1_555 1_555
O1 C3 1_555 1_555
O2 Sm2 1_555 1_555
O3 C2 1_555 1_555
C1 O6 1_555 1_555
O4 Sm1 1_555 1_555
N1 Sm2 1_555 1_555
O5 Sm2 1_555 1_555
C2 O4 1_555 1_555
N2 Sm2 1_555 1_555
O6 Sm2A_2 1_555 1_555
O7 Sm1 1_555 1_555
N3 Sm1 1_555 1_555
C3 O2 1_555 1_555
N4 Sm1 1_555 1_555
C4 H1 1_555 1_555
O8 Sm2 1_555 1_555
O9 C46 1_555 1_555
C5 O7 1_555 1_555
C6 H2 1_555 1_555
C7 C3 1_555 1_555
O10 C46 1_555 1_555
C8 H3 1_555 1_555
C9 N1 1_555 1_555
C10 N4 1_555 1_555
O11 C1 1_555 1_555
C11 H4 1_555 1_555
C12 C1 1_555 1_555
C13 C4 1_555 1_555
C14 O5 1_555 1_555
C15 N3 1_555 1_555
C16 C2 1_555 1_555
C17 C15 1_555 1_555
C18 N3 1_555 1_555
H5 C18 1_555 1_555
C19 C8 1_555 1_555
C20 C8 1_555 1_555
C21 C13 1_555 1_555
H6 C21 1_555 1_555
C22 C10 1_555 1_555
C23 N4 1_555 1_555
H7 C23 1_555 1_555
C24 N2 1_555 1_555
C25 N2 1_555 1_555
H8 C25 1_555 1_555
C26 C12 1_555 1_555
H9 C26 1_555 1_555
C27 C19 1_555 1_555
H10 C27 1_555 1_555
C28 C21 1_555 1_555
H11 C28 1_555 1_555
C29 C23 1_555 1_555
H12 C29 1_555 1_555
C30 C17 1_555 1_555
H13 C30 1_555 1_555
C31 C11 1_555 1_555
H14 C31 1_555 1_555
C32 C24 1_555 1_555
C33 C7 1_555 1_555
H15 C33 1_555 1_555
C34 C20 1_555 1_555
H16 C34 1_555 1_555
C35 C9 1_555 1_555
C36 C35 1_555 1_555
H17 C36 1_555 1_555
C37 C17 1_555 1_555
H18 C37 1_555 1_555
C38 C25 1_555 1_555
H19 C38 1_555 1_555
C39 C18 1_555 1_555
H20 C39 1_555 1_555
C40 C27 1_555 1_555
H21 C40 1_555 1_555
C41 C35 1_555 1_555
H22 C41 1_555 1_555
C42 N1 1_555 1_555
H23 C42 1_555 1_555
C43 C36 1_555 1_555
H24 C43 1_555 1_555
C44 C22 1_555 1_555
H25 C44 1_555 1_555
C45 C22 1_555 1_555
H26 C45 1_555 1_555
O12 C5 1_555 1_555
C46 C20 1_555 1_555
C47 C32 1_555 1_555
H27 C47 1_555 1_555
C48 C32 1_555 1_555
H28 C48 1_555 1_555
Sm1_2 O9 1_555 1_555
Sm1A O12 1_555 1_555
Sm1A_2 O10 1_555 1_555
Sm2_2 O11 1_555 1_555
Sm2A O5 1_555 1_555
O5A Sm2 1_555 1_555
O6A Sm2 1_555 1_555
O9_2 Sm1 1_555 1_555
O10A Sm1 1_555 1_555
O11_2 Sm2 1_555 1_555
O12A Sm1 1_555 1_555
C4 C7 1_555 1_555
O8 C14 1_555 1_555
C5 C13 1_555 1_555
C6 C12 1_555 1_555
C6 C16 1_555 1_555
C9 C24 1_555 1_555
C10 C15 1_555 1_555
C11 C16 1_555 1_555
C14 C19 1_555 1_555
C26 C31 1_555 1_555
C28 C33 1_555 1_555
C29 C44 1_555 1_555
C30 C45 1_555 1_555
C34 C40 1_555 1_555
C37 C39 1_555 1_555
C38 C47 1_555 1_555
C41 C48 1_555 1_555
C42 C43 1_555 1_555
Sm2A O5A 1_555 1_555

#END
