
#######################################################################
#
#                 Cambridge Crystallographic Data Centre
#                                CCDC 
#
#######################################################################
#
# If this CIF has been generated from an entry in the Cambridge 
# Structural Database, then it will include bibliographic, chemical, 
# crystal, experimental, refinement or atomic coordinate data resulting 
# from the CCDC's data processing and validation procedures.
#
#######################################################################

data_DIHRET
_symmetry_cell_setting           triclinic
_symmetry_space_group_name_H-M   'P -1'
_symmetry_Int_Tables_number      2
_space_group_name_Hall           '-P 1'
loop_
_symmetry_equiv_pos_site_id
_symmetry_equiv_pos_as_xyz
1 x,y,z
2 -x,-y,-z
_cell_length_a                   10.2417(15)
_cell_length_b                   13.752(2)
_cell_length_c                   22.201(3)
_cell_angle_alpha                73.899(2)
_cell_angle_beta                 88.416(2)
_cell_angle_gamma                78.305(2)
_cell_volume                     2940.5
loop_
_atom_site_label
_atom_site_type_symbol
_atom_site_fract_x
_atom_site_fract_y
_atom_site_fract_z
C1 C -0.3160(6) 0.4013(4) 0.9861(2)
H1 H -0.2290 0.4120 0.9849
C2 C -0.5243(6) 0.4122(4) 0.9581(2)
C3 C -0.4958(6) 0.3481(4) 1.0188(2)
C4 C -0.5957(6) 0.3027(5) 1.0536(3)
H2 H -0.5792 0.2591 1.0941
C5 C -0.7182(7) 0.3263(5) 1.0244(3)
H3 H -0.7856 0.2957 1.0456
C6 C -0.7479(6) 0.3936(5) 0.9646(3)
H4 H -0.8346 0.4100 0.9480
C7 C -0.6496(6) 0.4356(5) 0.9300(3)
H5 H -0.6668 0.4783 0.8893
C8 C -0.3819(6) 0.5055(4) 0.8763(2)
H6 H -0.2976 0.5272 0.8767
H7 H -0.4519 0.5671 0.8645
C9 C -0.3787(5) 0.4444(4) 0.8280(2)
C10 C -0.3163(7) 0.3414(5) 0.8412(3)
H8 H -0.2726 0.3087 0.8799
C11 C -0.3178(6) 0.2876(5) 0.7990(3)
H9 H -0.2790 0.2175 0.8096
C12 C -0.3768(6) 0.3355(4) 0.7397(2)
C13 C -0.4367(7) 0.4380(5) 0.7274(3)
H10 H -0.4790 0.4719 0.6885
C14 C -0.4357(7) 0.4907(5) 0.7701(3)
H11 H -0.4751 0.5606 0.7596
C15 C -0.3737(5) 0.2741(4) 0.6932(2)
C16 C -0.2689(7) 0.1939(5) 0.6950(3)
H12 H -0.2021 0.1772 0.7259
C17 C -0.2598(7) 0.1359(5) 0.6510(3)
H13 H -0.1873 0.0820 0.6527
C18 C -0.3607(6) 0.1601(4) 0.6050(2)
C19 C -0.4677(6) 0.2386(5) 0.6053(3)
H14 H -0.5367 0.2541 0.5756
C20 C -0.4754(6) 0.2951(4) 0.6486(2)
H15 H -0.5493 0.3475 0.6478
C21 C -0.3486(6) 0.0993(4) 0.5590(2)
H16 H -0.4364 0.1049 0.5414
H17 H -0.3144 0.0271 0.5803
C22 C -0.1254(5) 0.1196(4) 0.5112(2)
H18 H -0.0746 0.0781 0.5466
C23 C -0.1840(5) 0.2216(4) 0.4192(3)
C24 C -0.1873(6) 0.2810(4) 0.3579(2)
H19 H -0.1096 0.2931 0.3371
C25 C -0.3124(6) 0.3221(5) 0.3283(3)
H20 H -0.3187 0.3638 0.2872
C26 C -0.4289(6) 0.3018(5) 0.3593(3)
H21 H -0.5107 0.3298 0.3380
C27 C -0.4259(6) 0.2410(4) 0.4209(3)
H22 H -0.5035 0.2280 0.4415
C28 C -0.3006(5) 0.2006(4) 0.4500(2)
C29 C 0.7716(6) 0.0643(4) 1.0521(3)
H23 H 0.7177 0.0349 1.0834
C30 C 0.8747(5) 0.0968(4) 0.9632(3)
C31 C 0.9267(5) 0.1021(4) 0.9049(3)
H24 H 0.9082 0.0604 0.8810
C32 C 1.0078(6) 0.1727(5) 0.8838(3)
H25 H 1.0446 0.1785 0.8445
C33 C 1.0361(6) 0.2347(4) 0.9184(3)
H26 H 1.0914 0.2810 0.9021
C34 C 0.9842(5) 0.2299(4) 0.9770(3)
H27 H 1.0028 0.2725 1.0002
C35 C 0.9023(5) 0.1581(4) 1.0000(2)
C36 C 0.7198(6) -0.0263(5) 0.9745(3)
H28 H 0.6791 -0.0689 1.0092
H29 H 0.7831 -0.0720 0.9562
C37 C 0.6128(6) 0.0370(4) 0.9257(3)
C38 C 0.5310(6) 0.1273(5) 0.9344(3)
H30 H 0.5429 0.1476 0.9702
C39 C 0.4329(6) 0.1859(5) 0.8900(3)
H31 H 0.3806 0.2461 0.8959
C40 C 0.4111(6) 0.1561(4) 0.8363(3)
C41 C 0.4900(6) 0.0665(5) 0.8300(3)
H32 H 0.4774 0.0444 0.7950
C42 C 0.5890(6) 0.0074(5) 0.8748(3)
H33 H 0.6396 -0.0537 0.8694
C43 C 0.3068(6) 0.2187(4) 0.7887(2)
C44 C 0.2723(6) 0.3252(4) 0.7767(3)
H34 H 0.3140 0.3588 0.7992
C45 C 0.1746(6) 0.3822(5) 0.7306(3)
H35 H 0.1546 0.4538 0.7218
C46 C 0.1082(6) 0.3355(5) 0.6984(3)
C47 C 0.1431(6) 0.2282(5) 0.7098(3)
H36 H 0.1023 0.1949 0.6868
C48 C 0.2386(6) 0.1725(5) 0.7556(3)
H37 H 0.2578 0.1008 0.7646
C49 C 0.0049(7) 0.3965(5) 0.6465(3)
H38 H -0.0768 0.3702 0.6546
H39 H -0.0152 0.4685 0.6467
C50 C 0.0291(6) 0.3220(4) 0.5556(3)
H40 H -0.0308 0.2786 0.5697
C51 C 0.1746(5) 0.3973(4) 0.5010(3)
C52 C 0.2666(6) 0.4314(5) 0.4559(3)
H41 H 0.2851 0.4041 0.4220
C53 C 0.3281(7) 0.5071(5) 0.4643(3)
H42 H 0.3905 0.5306 0.4357
C54 C 0.2999(7) 0.5492(5) 0.5139(3)
H43 H 0.3418 0.6017 0.5171
C55 C 0.2090(7) 0.5146(5) 0.5600(3)
H44 H 0.1916 0.5415 0.5942
C56 C 0.1475(6) 0.4386(4) 0.5515(3)
C57 C 0.2860(6) 0.0632(4) 0.5575(3)
C58 C 0.3833(6) 0.0045(5) 0.6106(3)
H45 H 0.4500 -0.0442 0.5961
H46 H 0.4287 0.0529 0.6217
C59 C 0.3244(6) -0.0535(4) 0.6685(2)
H47 H 0.2807 -0.1035 0.6582
H48 H 0.2574 -0.0057 0.6835
C60 C 0.4312(6) -0.1103(5) 0.7210(2)
H49 H 0.4938 -0.1621 0.7070
H50 H 0.4802 -0.0610 0.7283
C61 C 0.3747(6) -0.1618(5) 0.7814(3)
C62 C 0.1631(6) 0.2468(5) 0.3297(3)
C63 C 0.1535(7) 0.2720(6) 0.2601(3)
H51 H 0.1048 0.2257 0.2488
H52 H 0.2428 0.2594 0.2442
C64 C 0.0839(7) 0.3848(5) 0.2277(3)
H53 H 0.0028 0.4019 0.2495
H54 H 0.1419 0.4305 0.2317
C65 C 0.0492(7) 0.4050(6) 0.1595(3)
H55 H 0.1292 0.3824 0.1385
H56 H 0.0207 0.4790 0.1415
C66 C -0.0591(7) 0.3524(5) 0.1460(3)
Cd1 Cd -0.23509(4) 0.24539(3) 1.119842(17)
Cd2 Cd 0.13733(4) 0.19430(3) 0.455606(18)
N1 N -0.3644(5) 0.3430(3) 1.0350(2)
N2 N -0.4052(5) 0.4443(3) 0.9378(2)
N3 N -0.2585(4) 0.1348(3) 0.50706(19)
N4 N -0.0753(5) 0.1688(4) 0.4610(2)
N5 N 0.8359(5) 0.1356(3) 1.0567(2)
N6 N 0.7907(5) 0.0378(3) 0.9982(2)
N7 N 0.0527(5) 0.3892(4) 0.5850(2)
N8 N 0.0990(5) 0.3227(4) 0.5043(2)
O1 O 0.1659(4) 0.0595(3) 0.56056(19)
O2 O 0.3334(4) 0.1156(3) 0.50784(19)
O3 O 0.2745(6) -0.1126(3) 0.8021(2)
O4 O 0.4260(5) -0.2517(4) 0.8111(2)
O5 O 0.1573(6) 0.3144(4) 0.3580(2)
O6 O 0.1686(5) 0.1533(4) 0.3609(2)
O7 O -0.1562(6) 0.3454(5) 0.1799(2)
O8 O -0.0508(5) 0.3205(4) 0.0991(2)
Cd1_2 Cd -0.23509(4) 0.24539(3) 0.119842(17)
Cd1_3 Cd 0.76491(4) 0.24539(3) 1.119842(17)
Cd1A Cd 0.23509(4) -0.24539(3) 0.880158(17)
N5_2 N -0.1641(5) 0.1356(3) 1.0567(2)
O3A O -0.2745(6) 0.1126(3) 1.1979(2)
O4A O -0.4260(5) 0.2517(4) 1.1889(2)
O7_2 O -0.1562(6) 0.3454(5) 1.1799(2)
O8_2 O -0.0508(5) 0.3205(4) 1.0991(2)
loop_
_geom_bond_atom_site_label_1
_geom_bond_atom_site_label_2
_geom_bond_site_symmetry_1
_geom_bond_site_symmetry_2
C1 H1 1_555 1_555
C2 C3 1_555 1_555
C3 C4 1_555 1_555
C4 H2 1_555 1_555
C5 C4 1_555 1_555
H3 C5 1_555 1_555
C6 C5 1_555 1_555
H4 C6 1_555 1_555
C7 C2 1_555 1_555
H5 C7 1_555 1_555
C8 H6 1_555 1_555
H7 C8 1_555 1_555
C9 C8 1_555 1_555
C10 C9 1_555 1_555
H8 C10 1_555 1_555
C11 C10 1_555 1_555
H9 C11 1_555 1_555
C12 C11 1_555 1_555
C13 C12 1_555 1_555
H10 C13 1_555 1_555
C14 C9 1_555 1_555
H11 C14 1_555 1_555
C15 C12 1_555 1_555
C16 C15 1_555 1_555
H12 C16 1_555 1_555
C17 C16 1_555 1_555
H13 C17 1_555 1_555
C18 C17 1_555 1_555
C19 C18 1_555 1_555
H14 C19 1_555 1_555
C20 C15 1_555 1_555
H15 C20 1_555 1_555
C21 C18 1_555 1_555
H16 C21 1_555 1_555
H17 C21 1_555 1_555
C22 H18 1_555 1_555
C23 C24 1_555 1_555
C24 H19 1_555 1_555
C25 C24 1_555 1_555
H20 C25 1_555 1_555
C26 C25 1_555 1_555
H21 C26 1_555 1_555
C27 C26 1_555 1_555
H22 C27 1_555 1_555
C28 C23 1_555 1_555
C29 H23 1_555 1_555
C30 C31 1_555 1_555
C31 H24 1_555 1_555
C32 C31 1_555 1_555
H25 C32 1_555 1_555
C33 C32 1_555 1_555
H26 C33 1_555 1_555
C34 C33 1_555 1_555
H27 C34 1_555 1_555
C35 C30 1_555 1_555
C36 H28 1_555 1_555
H29 C36 1_555 1_555
C37 C36 1_555 1_555
C38 C37 1_555 1_555
H30 C38 1_555 1_555
C39 C38 1_555 1_555
H31 C39 1_555 1_555
C40 C39 1_555 1_555
C41 C40 1_555 1_555
H32 C41 1_555 1_555
C42 C37 1_555 1_555
H33 C42 1_555 1_555
C43 C40 1_555 1_555
C44 C43 1_555 1_555
H34 C44 1_555 1_555
C45 C44 1_555 1_555
H35 C45 1_555 1_555
C46 C45 1_555 1_555
C47 C46 1_555 1_555
H36 C47 1_555 1_555
C48 C43 1_555 1_555
H37 C48 1_555 1_555
C49 C46 1_555 1_555
H38 C49 1_555 1_555
H39 C49 1_555 1_555
C50 H40 1_555 1_555
C51 C52 1_555 1_555
C52 H41 1_555 1_555
C53 C52 1_555 1_555
H42 C53 1_555 1_555
C54 C53 1_555 1_555
H43 C54 1_555 1_555
C55 C54 1_555 1_555
H44 C55 1_555 1_555
C56 C51 1_555 1_555
C57 C58 1_555 1_555
C58 H45 1_555 1_555
H46 C58 1_555 1_555
C59 C58 1_555 1_555
H47 C59 1_555 1_555
H48 C59 1_555 1_555
C60 C59 1_555 1_555
H49 C60 1_555 1_555
H50 C60 1_555 1_555
C61 C60 1_555 1_555
C62 C63 1_555 1_555
C63 H51 1_555 1_555
H52 C63 1_555 1_555
C64 C63 1_555 1_555
H53 C64 1_555 1_555
H54 C64 1_555 1_555
C65 C64 1_555 1_555
H55 C65 1_555 1_555
H56 C65 1_555 1_555
C66 C65 1_555 1_555
Cd1 N1 1_555 1_555
Cd2 N4 1_555 1_555
N1 C1 1_555 1_555
N2 C1 1_555 1_555
N3 C21 1_555 1_555
N4 C22 1_555 1_555
N5 C29 1_555 1_555
N6 C29 1_555 1_555
N7 C49 1_555 1_555
N8 C50 1_555 1_555
O1 C57 1_555 1_555
O2 C57 1_555 1_555
O3 C61 1_555 1_555
O4 C61 1_555 1_555
O5 C62 1_555 1_555
O6 C62 1_555 1_555
O7 C66 1_555 1_555
O8 C66 1_555 1_555
Cd1_2 O7 1_555 1_555
Cd1_3 N5 1_555 1_555
Cd1A O3 1_555 1_555
N5_2 Cd1 1_555 1_555
O3A Cd1 1_555 1_555
O4A Cd1 1_555 1_555
O7_2 Cd1 1_555 1_555
O8_2 Cd1 1_555 1_555
C2 N2 1_555 1_555
C3 N1 1_555 1_555
C6 C7 1_555 1_555
C8 N2 1_555 1_555
C13 C14 1_555 1_555
C19 C20 1_555 1_555
C22 N3 1_555 1_555
C23 N4 1_555 1_555
C27 C28 1_555 1_555
C28 N3 1_555 1_555
C30 N6 1_555 1_555
C34 C35 1_555 1_555
C35 N5 1_555 1_555
C36 N6 1_555 1_555
C41 C42 1_555 1_555
C47 C48 1_555 1_555
C50 N7 1_555 1_555
C51 N8 1_555 1_555
C55 C56 1_555 1_555
C56 N7 1_555 1_555
Cd2 N8 1_555 1_555
Cd2 O1 1_555 1_555
Cd2 O2 1_555 1_555
Cd2 O5 1_555 1_555
Cd2 O6 1_555 1_555
O4 Cd1A 1_555 1_555
O8 Cd1_2 1_555 1_555

#END
