
#######################################################################
#
#                 Cambridge Crystallographic Data Centre
#                                CCDC 
#
#######################################################################
#
# If this CIF has been generated from an entry in the Cambridge 
# Structural Database, then it will include bibliographic, chemical, 
# crystal, experimental, refinement or atomic coordinate data resulting 
# from the CCDC's data processing and validation procedures.
#
#######################################################################

data_DIHRAP
_symmetry_cell_setting           monoclinic
_symmetry_space_group_name_H-M   'P 2/c'
_symmetry_Int_Tables_number      13
_space_group_name_Hall           '-P 2yc'
loop_
_symmetry_equiv_pos_site_id
_symmetry_equiv_pos_as_xyz
1 x,y,z
2 -x,y,1/2-z
3 -x,-y,-z
4 x,-y,1/2+z
_cell_length_a                   6.9874(14)
_cell_length_b                   9.960(2)
_cell_length_c                   12.894(4)
_cell_angle_alpha                90
_cell_angle_beta                 117.47(2)
_cell_angle_gamma                90
_cell_volume                     796.177
loop_
_atom_site_label
_atom_site_type_symbol
_atom_site_fract_x
_atom_site_fract_y
_atom_site_fract_z
Fe1 Fe 0.0000 0.77194(3) 0.2500
O1 O 0.2366(2) 0.62140(12) 0.29926(11)
O2 O 0.2283(3) 0.52082(13) 0.14276(12)
O3 O 0.2235(2) 0.02433(12) 0.11966(11)
O4 O 0.2410(2) -0.09317(11) 0.27036(11)
O5 O -0.1100(3) 0.77342(13) 0.05928(12)
H1 H -0.1648 0.7138 0.0292
H2 H -0.1326 0.8187 0.0090
N1 N 0.3505(2) 0.24039(14) 0.58614(13)
H3 H 0.4874 0.2378 0.6337
H4 H 0.2979 0.1643 0.5991
H5 H 0.2954 0.3195 0.6041
C1 C 0.3136(3) 0.25036(15) 0.46537(14)
C2 C 0.2963(2) 0.37617(15) 0.41567(13)
H6 H 0.3041 0.4535 0.4579
C3 C 0.2673(2) 0.38471(15) 0.30157(14)
C4 C 0.2543(3) 0.26789(15) 0.23987(15)
H7 H 0.2376 0.2738 0.1642
C5 C 0.2658(2) 0.14285(15) 0.28923(13)
C6 C 0.2970(2) 0.13413(16) 0.40396(14)
H8 H 0.3065 0.0508 0.4386
C7 C 0.2422(3) 0.51865(16) 0.24238(15)
C8 C 0.2404(2) 0.01679(16) 0.22018(14)
O1A O -0.2366(2) 0.62140(12) 0.20074(11)
O2A O -0.2283(3) 0.52082(13) 0.35724(12)
O3A O -0.2235(2) 0.02433(12) 0.38034(11)
O4A O -0.2410(2) -0.09317(11) 0.22964(11)
O5A O 0.1100(3) 0.77342(13) 0.44072(12)
H1A H 0.1648 0.7138 0.4708
H2A H 0.1326 0.8187 0.4910
N1A N -0.3505(2) 0.24039(14) -0.08614(13)
H3A H -0.4874 0.2378 -0.1337
H4A H -0.2979 0.1643 -0.0991
H5A H -0.2954 0.3195 -0.1041
C1A C -0.3136(3) 0.25036(15) 0.03463(14)
C2A C -0.2963(2) 0.37617(15) 0.08433(13)
H6A H -0.3041 0.4535 0.0421
C3A C -0.2673(2) 0.38471(15) 0.19843(14)
C4A C -0.2543(3) 0.26789(15) 0.26013(15)
H7A H -0.2376 0.2738 0.3358
C5A C -0.2658(2) 0.14285(15) 0.21077(13)
C6A C -0.2970(2) 0.13413(16) 0.09604(14)
H8A H -0.3065 0.0508 0.0614
C7A C -0.2422(3) 0.51865(16) 0.25762(15)
C8A C -0.2404(2) 0.01679(16) 0.27982(14)
Fe1_2 Fe 0.0000 -0.22806(3) 0.2500
O4_2 O 0.2410(2) 0.90683(11) 0.27036(11)
O4A_2 O -0.2410(2) 0.90683(11) 0.22964(11)
loop_
_geom_bond_atom_site_label_1
_geom_bond_atom_site_label_2
_geom_bond_site_symmetry_1
_geom_bond_site_symmetry_2
Fe1 O1 1_555 1_555
O1 C7 1_555 1_555
O2 C7 1_555 1_555
O3 C8 1_555 1_555
O4 C8 1_555 1_555
O5 Fe1 1_555 1_555
H1 O5 1_555 1_555
H2 O5 1_555 1_555
N1 H3 1_555 1_555
H4 N1 1_555 1_555
H5 N1 1_555 1_555
C1 N1 1_555 1_555
C2 C1 1_555 1_555
H6 C2 1_555 1_555
C3 C2 1_555 1_555
C4 C3 1_555 1_555
H7 C4 1_555 1_555
C5 C4 1_555 1_555
C6 C1 1_555 1_555
H8 C6 1_555 1_555
C7 C3 1_555 1_555
C8 C5 1_555 1_555
O1A Fe1 1_555 1_555
O2A C7A 1_555 1_555
O3A C8A 1_555 1_555
O4A C8A 1_555 1_555
O5A Fe1 1_555 1_555
H1A O5A 1_555 1_555
H2A O5A 1_555 1_555
N1A H3A 1_555 1_555
H4A N1A 1_555 1_555
H5A N1A 1_555 1_555
C1A N1A 1_555 1_555
C2A C1A 1_555 1_555
H6A C2A 1_555 1_555
C3A C2A 1_555 1_555
C4A C3A 1_555 1_555
H7A C4A 1_555 1_555
C5A C4A 1_555 1_555
C6A C1A 1_555 1_555
H8A C6A 1_555 1_555
C7A O1A 1_555 1_555
C8A C5A 1_555 1_555
Fe1_2 O4 1_555 1_555
O4_2 Fe1 1_555 1_555
O4A_2 Fe1 1_555 1_555
C5 C6 1_555 1_555
O4A Fe1_2 1_555 1_555
C3A C7A 1_555 1_555
C5A C6A 1_555 1_555

#END
