
#######################################################################
#
#                 Cambridge Crystallographic Data Centre
#                                CCDC 
#
#######################################################################
#
# If this CIF has been generated from an entry in the Cambridge 
# Structural Database, then it will include bibliographic, chemical, 
# crystal, experimental, refinement or atomic coordinate data resulting 
# from the CCDC's data processing and validation procedures.
#
#######################################################################

data_DIHSIY
_symmetry_cell_setting           monoclinic
_symmetry_space_group_name_H-M   'C 2/c'
_symmetry_Int_Tables_number      15
_space_group_name_Hall           '-C 2yn'
loop_
_symmetry_equiv_pos_site_id
_symmetry_equiv_pos_as_xyz
1 x,y,z
2 -x,y,1/2-z
3 1/2+x,1/2+y,z
4 1/2-x,1/2+y,1/2-z
5 -x,-y,-z
6 x,-y,1/2+z
7 1/2-x,1/2-y,-z
8 1/2+x,1/2-y,1/2+z
_cell_length_a                   9.822(4)
_cell_length_b                   18.510(7)
_cell_length_c                   22.372(9)
_cell_angle_alpha                90
_cell_angle_beta                 98.359(6)
_cell_angle_gamma                90
_cell_volume                     4024.14
loop_
_atom_site_label
_atom_site_type_symbol
_atom_site_fract_x
_atom_site_fract_y
_atom_site_fract_z
Cd1 Cd 0.03527(4) 0.138647(19) 0.335913(16)
C1 C -0.3438(6) 0.5452(3) 0.2363(2)
C2 C -0.2590(6) 0.4823(3) 0.2631(2)
C3 C -0.2993(6) 0.4125(3) 0.2475(3)
H1 H -0.3799 0.4046 0.2209
C4 C -0.2219(6) 0.3551(3) 0.2706(3)
H2 H -0.2490 0.3085 0.2587
C5 C -0.1034(6) 0.3653(3) 0.3117(2)
C6 C -0.0612(6) 0.4348(3) 0.3272(3)
H3 H 0.0191 0.4424 0.3541
C7 C -0.1384(6) 0.4934(3) 0.3028(3)
H4 H -0.1092 0.5402 0.3130
C8 C -0.0214(6) 0.2996(3) 0.3386(3)
C9 C 0.3633(6) 0.1825(3) 0.3978(3)
C10 C 0.4258(7) 0.1991(4) 0.3477(4)
H5 H 0.3833 0.1890 0.3087
C11 C 0.5550(8) 0.2316(5) 0.3585(5)
H6 H 0.6008 0.2430 0.3262
C12 C 0.6169(9) 0.2473(5) 0.4175(6)
H7 H 0.7025 0.2698 0.4230
C13 C 0.5577(8) 0.2311(4) 0.4670(5)
H8 H 0.6004 0.2416 0.5059
C14 C 0.4294(6) 0.1979(3) 0.4562(3)
C15 C -0.1153(6) 0.0894(3) 0.4621(3)
C16 C -0.2518(7) 0.0718(4) 0.4385(3)
H9 H -0.2852 0.0778 0.3977
C17 C -0.3331(8) 0.0458(4) 0.4780(4)
H10 H -0.4237 0.0333 0.4638
C18 C -0.2842(10) 0.0375(5) 0.5384(4)
H11 H -0.3445 0.0200 0.5634
C19 C -0.1536(9) 0.0532(4) 0.5637(3)
H12 H -0.1229 0.0470 0.6047
C20 C -0.0681(7) 0.0797(3) 0.5234(3)
C21 C 0.2254(6) 0.1482(3) 0.4597(3)
C22 C 0.0969(6) 0.1228(3) 0.4766(3)
C23 C 0.1560(10) 0.1029(5) 0.5907(3)
H13 H 0.2464 0.1194 0.5859
H14 H 0.1617 0.0551 0.6075
H15 H 0.1167 0.1350 0.6172
O1 O -0.3333(4) 0.6056(2) 0.2616(2)
O2 O -0.4252(5) 0.5334(2) 0.18781(18)
O3 O -0.0622(5) 0.2411(2) 0.3149(2)
O4 O 0.0693(6) 0.3079(3) 0.3828(2)
N1 N 0.2357(4) 0.1525(2) 0.4015(2)
N2 N -0.0100(5) 0.1155(3) 0.4339(2)
N3 N 0.0688(6) 0.1017(3) 0.5316(2)
N4 N 0.3410(6) 0.1739(3) 0.4945(3)
H16 H 0.3559 0.1750 0.5334
Cd1B Cd -0.46473(4) 0.638647(19) 0.335913(16)
Cd1C Cd -0.53527(4) 0.638647(19) 0.164087(16)
O1B O 0.1667(4) 0.1056(2) 0.2616(2)
O1C O -0.1667(4) 0.1056(2) 0.2384(2)
O2C O -0.0748(5) 0.0334(2) 0.31219(18)
loop_
_geom_bond_atom_site_label_1
_geom_bond_atom_site_label_2
_geom_bond_site_symmetry_1
_geom_bond_site_symmetry_2
Cd1 O3 1_555 1_555
C1 C2 1_555 1_555
C2 C3 1_555 1_555
C3 H1 1_555 1_555
C4 C3 1_555 1_555
H2 C4 1_555 1_555
C5 C4 1_555 1_555
C6 C5 1_555 1_555
H3 C6 1_555 1_555
C7 C2 1_555 1_555
H4 C7 1_555 1_555
C8 C5 1_555 1_555
C9 C10 1_555 1_555
C10 H5 1_555 1_555
C11 C10 1_555 1_555
H6 C11 1_555 1_555
C12 C11 1_555 1_555
H7 C12 1_555 1_555
C13 C12 1_555 1_555
H8 C13 1_555 1_555
C14 C9 1_555 1_555
C15 C16 1_555 1_555
C16 H9 1_555 1_555
C17 C16 1_555 1_555
H10 C17 1_555 1_555
C18 C17 1_555 1_555
H11 C18 1_555 1_555
C19 C18 1_555 1_555
H12 C19 1_555 1_555
C20 C15 1_555 1_555
C21 C22 1_555 1_555
C22 N2 1_555 1_555
C23 H13 1_555 1_555
H14 C23 1_555 1_555
H15 C23 1_555 1_555
O1 C1 1_555 1_555
O2 C1 1_555 1_555
O3 C8 1_555 1_555
O4 C8 1_555 1_555
N1 Cd1 1_555 1_555
N2 Cd1 1_555 1_555
N3 C20 1_555 1_555
N4 C14 1_555 1_555
H16 N4 1_555 1_555
Cd1B O1 1_555 1_555
Cd1C O1 1_555 1_555
O1B Cd1 1_555 1_555
O1C Cd1 1_555 1_555
O2C Cd1 1_555 1_555
C6 C7 1_555 1_555
C9 N1 1_555 1_555
C13 C14 1_555 1_555
C15 N2 1_555 1_555
C19 C20 1_555 1_555
C21 N1 1_555 1_555
C21 N4 1_555 1_555
C22 N3 1_555 1_555
C23 N3 1_555 1_555
O2 Cd1C 1_555 1_555

#END
